# Generated by pormake.
# Topology eea, (3,6)-cn, num edge types: 1
# Building blocks:
#     Node 0, Type 0, BuildingBlock: ESEHIV_clean_linker_0, # of connection points: 3
#     Node 1, Type 0, BuildingBlock: ESEHIV_clean_linker_0, # of connection points: 3
#     Node 2, Type 0, BuildingBlock: ESEHIV_clean_linker_0, # of connection points: 3
#     Node 3, Type 0, BuildingBlock: ESEHIV_clean_linker_0, # of connection points: 3
#     Node 4, Type 0, BuildingBlock: ESEHIV_clean_linker_0, # of connection points: 3
#     Node 5, Type 0, BuildingBlock: ESEHIV_clean_linker_0, # of connection points: 3
#     Node 6, Type 0, BuildingBlock: ESEHIV_clean_linker_0, # of connection points: 3
#     Node 7, Type 0, BuildingBlock: ESEHIV_clean_linker_0, # of connection points: 3
#     Node 8, Type 0, BuildingBlock: ESEHIV_clean_linker_0, # of connection points: 3
#     Node 9, Type 0, BuildingBlock: ESEHIV_clean_linker_0, # of connection points: 3
#     Node 10, Type 0, BuildingBlock: ESEHIV_clean_linker_0, # of connection points: 3
#     Node 11, Type 0, BuildingBlock: ESEHIV_clean_linker_0, # of connection points: 3
#     Node 12, Type 0, BuildingBlock: ESEHIV_clean_linker_0, # of connection points: 3
#     Node 13, Type 0, BuildingBlock: ESEHIV_clean_linker_0, # of connection points: 3
#     Node 14, Type 0, BuildingBlock: ESEHIV_clean_linker_0, # of connection points: 3
#     Node 15, Type 0, BuildingBlock: ESEHIV_clean_linker_0, # of connection points: 3
#     Node 16, Type 0, BuildingBlock: ESEHIV_clean_linker_0, # of connection points: 3
#     Node 17, Type 0, BuildingBlock: ESEHIV_clean_linker_0, # of connection points: 3
#     Node 18, Type 1, BuildingBlock: HISSIN_clean_sbu_0, # of connection points: 6
#     Node 19, Type 1, BuildingBlock: HISSIN_clean_sbu_0, # of connection points: 6
#     Node 20, Type 1, BuildingBlock: HISSIN_clean_sbu_0, # of connection points: 6
#     Node 21, Type 1, BuildingBlock: HISSIN_clean_sbu_0, # of connection points: 6
#     Node 22, Type 1, BuildingBlock: HISSIN_clean_sbu_0, # of connection points: 6
#     Node 23, Type 1, BuildingBlock: HISSIN_clean_sbu_0, # of connection points: 6
#     Node 24, Type 1, BuildingBlock: HISSIN_clean_sbu_0, # of connection points: 6
#     Node 25, Type 1, BuildingBlock: HISSIN_clean_sbu_0, # of connection points: 6
#     Node 26, Type 1, BuildingBlock: HISSIN_clean_sbu_0, # of connection points: 6
#     Edge 27, Type (0, 1), BuildingBlock: ZUJKAS_clean_linker_0, # of connection points: 2
#     Edge 28, Type (0, 1), BuildingBlock: ZUJKAS_clean_linker_0, # of connection points: 2
#     Edge 29, Type (0, 1), BuildingBlock: ZUJKAS_clean_linker_0, # of connection points: 2
#     Edge 30, Type (0, 1), BuildingBlock: ZUJKAS_clean_linker_0, # of connection points: 2
#     Edge 31, Type (0, 1), BuildingBlock: ZUJKAS_clean_linker_0, # of connection points: 2
#     Edge 32, Type (0, 1), BuildingBlock: ZUJKAS_clean_linker_0, # of connection points: 2
#     Edge 33, Type (0, 1), BuildingBlock: ZUJKAS_clean_linker_0, # of connection points: 2
#     Edge 34, Type (0, 1), BuildingBlock: ZUJKAS_clean_linker_0, # of connection points: 2
#     Edge 35, Type (0, 1), BuildingBlock: ZUJKAS_clean_linker_0, # of connection points: 2
#     Edge 36, Type (0, 1), BuildingBlock: ZUJKAS_clean_linker_0, # of connection points: 2
#     Edge 37, Type (0, 1), BuildingBlock: ZUJKAS_clean_linker_0, # of connection points: 2
#     Edge 38, Type (0, 1), BuildingBlock: ZUJKAS_clean_linker_0, # of connection points: 2
#     Edge 39, Type (0, 1), BuildingBlock: ZUJKAS_clean_linker_0, # of connection points: 2
#     Edge 40, Type (0, 1), BuildingBlock: ZUJKAS_clean_linker_0, # of connection points: 2
#     Edge 41, Type (0, 1), BuildingBlock: ZUJKAS_clean_linker_0, # of connection points: 2
#     Edge 42, Type (0, 1), BuildingBlock: ZUJKAS_clean_linker_0, # of connection points: 2
#     Edge 43, Type (0, 1), BuildingBlock: ZUJKAS_clean_linker_0, # of connection points: 2
#     Edge 44, Type (0, 1), BuildingBlock: ZUJKAS_clean_linker_0, # of connection points: 2
#     Edge 45, Type (0, 1), BuildingBlock: ZUJKAS_clean_linker_0, # of connection points: 2
#     Edge 46, Type (0, 1), BuildingBlock: ZUJKAS_clean_linker_0, # of connection points: 2
#     Edge 47, Type (0, 1), BuildingBlock: ZUJKAS_clean_linker_0, # of connection points: 2
#     Edge 48, Type (0, 1), BuildingBlock: ZUJKAS_clean_linker_0, # of connection points: 2
#     Edge 49, Type (0, 1), BuildingBlock: ZUJKAS_clean_linker_0, # of connection points: 2
#     Edge 50, Type (0, 1), BuildingBlock: ZUJKAS_clean_linker_0, # of connection points: 2
#     Edge 51, Type (0, 1), BuildingBlock: ZUJKAS_clean_linker_0, # of connection points: 2
#     Edge 52, Type (0, 1), BuildingBlock: ZUJKAS_clean_linker_0, # of connection points: 2
#     Edge 53, Type (0, 1), BuildingBlock: ZUJKAS_clean_linker_0, # of connection points: 2
#     Edge 54, Type (0, 1), BuildingBlock: ZUJKAS_clean_linker_0, # of connection points: 2
#     Edge 55, Type (0, 1), BuildingBlock: ZUJKAS_clean_linker_0, # of connection points: 2
#     Edge 56, Type (0, 1), BuildingBlock: ZUJKAS_clean_linker_0, # of connection points: 2
#     Edge 57, Type (0, 1), BuildingBlock: ZUJKAS_clean_linker_0, # of connection points: 2
#     Edge 58, Type (0, 1), BuildingBlock: ZUJKAS_clean_linker_0, # of connection points: 2
#     Edge 59, Type (0, 1), BuildingBlock: ZUJKAS_clean_linker_0, # of connection points: 2
#     Edge 60, Type (0, 1), BuildingBlock: ZUJKAS_clean_linker_0, # of connection points: 2
#     Edge 61, Type (0, 1), BuildingBlock: ZUJKAS_clean_linker_0, # of connection points: 2
#     Edge 62, Type (0, 1), BuildingBlock: ZUJKAS_clean_linker_0, # of connection points: 2
#     Edge 63, Type (0, 1), BuildingBlock: ZUJKAS_clean_linker_0, # of connection points: 2
#     Edge 64, Type (0, 1), BuildingBlock: ZUJKAS_clean_linker_0, # of connection points: 2
#     Edge 65, Type (0, 1), BuildingBlock: ZUJKAS_clean_linker_0, # of connection points: 2
#     Edge 66, Type (0, 1), BuildingBlock: ZUJKAS_clean_linker_0, # of connection points: 2
#     Edge 67, Type (0, 1), BuildingBlock: ZUJKAS_clean_linker_0, # of connection points: 2
#     Edge 68, Type (0, 1), BuildingBlock: ZUJKAS_clean_linker_0, # of connection points: 2
#     Edge 69, Type (0, 1), BuildingBlock: ZUJKAS_clean_linker_0, # of connection points: 2
#     Edge 70, Type (0, 1), BuildingBlock: ZUJKAS_clean_linker_0, # of connection points: 2
#     Edge 71, Type (0, 1), BuildingBlock: ZUJKAS_clean_linker_0, # of connection points: 2
#     Edge 72, Type (0, 1), BuildingBlock: ZUJKAS_clean_linker_0, # of connection points: 2
#     Edge 73, Type (0, 1), BuildingBlock: ZUJKAS_clean_linker_0, # of connection points: 2
#     Edge 74, Type (0, 1), BuildingBlock: ZUJKAS_clean_linker_0, # of connection points: 2
#     Edge 75, Type (0, 1), BuildingBlock: ZUJKAS_clean_linker_0, # of connection points: 2
#     Edge 76, Type (0, 1), BuildingBlock: ZUJKAS_clean_linker_0, # of connection points: 2
#     Edge 77, Type (0, 1), BuildingBlock: ZUJKAS_clean_linker_0, # of connection points: 2
#     Edge 78, Type (0, 1), BuildingBlock: ZUJKAS_clean_linker_0, # of connection points: 2
#     Edge 79, Type (0, 1), BuildingBlock: ZUJKAS_clean_linker_0, # of connection points: 2
#     Edge 80, Type (0, 1), BuildingBlock: ZUJKAS_clean_linker_0, # of connection points: 2
# Relax obj value: 0.035
# Max RMSD: 0.133
# Mean RMSD: 0.075
data_MOF--net-eea--node1-HISSIN_clean_sbu_0--node2-ESEHIV_clean_linker_0--edge1-ZUJKAS_clean_linker_0
_symmetry_space_group_name_H-M    P1
_symmetry_Int_Tables_number       1
_symmetry_cell_setting            triclinic
loop_
_symmetry_equiv_pos_as_xyz
'x, y, z'
_cell_length_a     63.580761
_cell_length_b     63.768898
_cell_length_c     90.496921
_cell_angle_alpha  93.356653
_cell_angle_beta   93.614536
_cell_angle_gamma 119.83618
loop_
_atom_site_label
_atom_site_type_symbol
_atom_site_fract_x
_atom_site_fract_y
_atom_site_fract_z
_atom_type_partial_charge
H0 H 0.29714 0.18859 0.43474 0.0
H1 H 0.30351 0.12517 0.43907 0.0
H2 H 0.27035 0.13227 0.39827 0.0
C3 C 0.29472 0.17147 0.42991 0.0
C4 C 0.28324 0.16226 0.41535 0.0
C5 C 0.30218 0.15825 0.43853 0.0
C6 C 0.29831 0.13573 0.43237 0.0
C7 C 0.28671 0.12615 0.4179 0.0
C8 C 0.27957 0.1397 0.40939 0.0
H9 H 0.84472 0.12357 0.44345 0.0
H10 H 0.91197 0.191 0.44326 0.0
H11 H 0.88676 0.1357 0.40629 0.0
C12 C 0.86029 0.13543 0.43783 0.0
C13 C 0.86336 0.12706 0.42389 0.0
C14 C 0.87769 0.15845 0.44493 0.0
C15 C 0.89854 0.17315 0.43792 0.0
C16 C 0.90194 0.16509 0.42395 0.0
C17 C 0.88418 0.14209 0.417 0.0
H18 H 0.85224 0.75289 0.45087 0.0
H19 H 0.9202 0.75371 0.45024 0.0
H20 H 0.89629 0.78221 0.41511 0.0
C21 C 0.86855 0.75727 0.44557 0.0
C22 C 0.87225 0.76831 0.43225 0.0
C23 C 0.88567 0.75182 0.45212 0.0
C24 C 0.90687 0.75772 0.44519 0.0
C25 C 0.91092 0.7687 0.4318 0.0
C26 C 0.89343 0.77384 0.42543 0.0
H27 H 0.08033 0.24647 0.57366 0.0
H28 H 0.14849 0.24736 0.57494 0.0
H29 H 0.10161 0.21676 0.6093 0.0
C30 C 0.09318 0.24203 0.57897 0.0
C31 C 0.08837 0.23108 0.59236 0.0
C32 C 0.11488 0.24803 0.57263 0.0
C33 C 0.13176 0.24281 0.57978 0.0
C34 C 0.12723 0.23169 0.59307 0.0
C35 C 0.1055 0.22591 0.59926 0.0
H36 H 0.68987 0.86636 0.59118 0.0
H37 H 0.69381 0.80095 0.58967 0.0
H38 H 0.7175 0.84892 0.63023 0.0
C39 C 0.69346 0.85378 0.59685 0.0
C40 C 0.70394 0.8601 0.6117 0.0
C41 C 0.68947 0.83233 0.58887 0.0
C42 C 0.69605 0.81707 0.59593 0.0
C43 C 0.70656 0.82311 0.6108 0.0
C44 C 0.70976 0.84431 0.61869 0.0
H45 H 0.08303 0.81803 0.57952 0.0
H46 H 0.15221 0.88299 0.57861 0.0
H47 H 0.11123 0.87469 0.61595 0.0
C48 C 0.09725 0.83559 0.58477 0.0
C49 C 0.09459 0.84457 0.5987 0.0
C50 C 0.11807 0.84928 0.57749 0.0
C51 C 0.13625 0.87222 0.58424 0.0
C52 C 0.13388 0.8816 0.59805 0.0
C53 C 0.11311 0.86755 0.60526 0.0
H54 H 0.95839 0.51202 0.76832 0.0
H55 H 0.96134 0.44609 0.76718 0.0
H56 H 0.93711 0.46516 0.72744 0.0
C57 C 0.95653 0.49607 0.76205 0.0
C58 C 0.94719 0.49058 0.74696 0.0
C59 C 0.96186 0.48019 0.76939 0.0
C60 C 0.95789 0.45871 0.76145 0.0
C61 C 0.94859 0.45294 0.74637 0.0
C62 C 0.94386 0.46928 0.73915 0.0
H63 H 0.51901 0.45349 0.78123 0.0
H64 H 0.58641 0.52019 0.77954 0.0
H65 H 0.56031 0.46264 0.74389 0.0
C66 C 0.53489 0.46444 0.77557 0.0
C67 C 0.53745 0.4552 0.76177 0.0
C68 C 0.55244 0.4878 0.7821 0.0
C69 C 0.57255 0.5023 0.77447 0.0
C70 C 0.57554 0.49324 0.7607 0.0
C71 C 0.55791 0.46973 0.75443 0.0
H72 H 0.51681 0.08341 0.78301 0.0
H73 H 0.58336 0.08128 0.78246 0.0
H74 H 0.56128 0.11094 0.74721 0.0
C75 C 0.53295 0.08704 0.77772 0.0
C76 C 0.53684 0.09755 0.76422 0.0
C77 C 0.54963 0.08115 0.78447 0.0
C78 C 0.57062 0.08616 0.77753 0.0
C79 C 0.57486 0.09668 0.76399 0.0
C80 C 0.55783 0.10227 0.75744 0.0
H81 H 0.7471 0.58038 0.90721 0.0
H82 H 0.81372 0.57833 0.90775 0.0
H83 H 0.77058 0.55542 0.94453 0.0
C84 C 0.76021 0.57649 0.91274 0.0
C85 C 0.75629 0.5674 0.92672 0.0
C86 C 0.78089 0.58046 0.9058 0.0
C87 C 0.79779 0.57535 0.91305 0.0
C88 C 0.79429 0.56635 0.92704 0.0
C89 C 0.77347 0.56245 0.93377 0.0
H90 H 0.36224 0.20614 0.92267 0.0
H91 H 0.36681 0.14115 0.92212 0.0
H92 H 0.39577 0.19302 0.96103 0.0
C93 C 0.36755 0.19466 0.92827 0.0
C94 C 0.3792 0.20209 0.94286 0.0
C95 C 0.36331 0.17289 0.92065 0.0
C96 C 0.36981 0.15785 0.92801 0.0
C97 C 0.38127 0.16485 0.94268 0.0
C98 C 0.38579 0.18694 0.95003 0.0
H99 H 0.74886 0.14688 0.91068 0.0
H100 H 0.8175 0.21309 0.91161 0.0
H101 H 0.77734 0.1987 0.94975 0.0
C102 C 0.76317 0.16376 0.91666 0.0
C103 C 0.76045 0.17095 0.9311 0.0
C104 C 0.78374 0.17891 0.90959 0.0
C105 C 0.80177 0.20123 0.91712 0.0
C106 C 0.7995 0.20864 0.93154 0.0
C107 C 0.77892 0.19327 0.93849 0.0
H108 H 0.63194 0.8543 0.10321 0.0
H109 H 0.63118 0.78654 0.10319 0.0
H110 H 0.60006 0.8018 0.06464 0.0
C111 C 0.62736 0.83688 0.09754 0.0
C112 C 0.61564 0.8301 0.08296 0.0
C113 C 0.6329 0.82123 0.10497 0.0
C114 C 0.62727 0.79886 0.09746 0.0
C115 C 0.61563 0.79179 0.08285 0.0
C116 C 0.61004 0.8076 0.07565 0.0
H117 H 0.18139 0.7805 0.11126 0.0
H118 H 0.25004 0.84673 0.11201 0.0
H119 H 0.22213 0.79419 0.07336 0.0
C120 C 0.19714 0.79225 0.10574 0.0
C121 C 0.19949 0.78467 0.09138 0.0
C122 C 0.2152 0.81463 0.11322 0.0
C123 C 0.23578 0.82971 0.10613 0.0
C124 C 0.23862 0.82219 0.09184 0.0
C125 C 0.22027 0.79979 0.08451 0.0
H126 H 0.18283 0.41582 0.11592 0.0
H127 H 0.2507 0.41622 0.1161 0.0
H128 H 0.22699 0.44297 0.0799 0.0
C129 C 0.1993 0.42018 0.11081 0.0
C130 C 0.20282 0.43009 0.0971 0.0
C131 C 0.21645 0.41514 0.11778 0.0
C132 C 0.23735 0.42002 0.11081 0.0
C133 C 0.24114 0.42981 0.09704 0.0
C134 C 0.22378 0.43478 0.0903 0.0
H135 H 0.41329 0.9129 0.24042 0.0
H136 H 0.48089 0.91265 0.24081 0.0
H137 H 0.43538 0.88403 0.27611 0.0
C138 C 0.42654 0.909 0.24575 0.0
C139 C 0.42199 0.89811 0.25914 0.0
C140 C 0.44752 0.91383 0.23887 0.0
C141 C 0.46431 0.90826 0.2458 0.0
C142 C 0.46025 0.89768 0.25929 0.0
C143 C 0.43891 0.8925 0.26581 0.0
H144 H 0.03374 0.54169 0.2558 0.0
H145 H 0.03641 0.47567 0.255 0.0
H146 H 0.06175 0.52501 0.29505 0.0
C147 C 0.03731 0.52921 0.26161 0.0
C148 C 0.04812 0.53591 0.27639 0.0
C149 C 0.03278 0.5074 0.25387 0.0
C150 C 0.03915 0.49213 0.26109 0.0
C151 C 0.04992 0.49848 0.27592 0.0
C152 C 0.05381 0.52015 0.28355 0.0
H153 H 0.41433 0.48677 0.24527 0.0
H154 H 0.48269 0.55313 0.24576 0.0
H155 H 0.44207 0.54002 0.28364 0.0
C156 C 0.42845 0.50392 0.25107 0.0
C157 C 0.42577 0.51136 0.26546 0.0
C158 C 0.44879 0.51911 0.24383 0.0
C159 C 0.46669 0.54164 0.25118 0.0
C160 C 0.46435 0.54942 0.26548 0.0
C161 C 0.44395 0.53408 0.27259 0.0
Eu162 Eu 0.48895 0.98081 0.99542 0.0
Eu163 Eu 0.50991 0.01414 0.02822 0.0
C164 C 0.48305 0.02759 1.00277 0.0
C165 C 0.47945 0.96645 0.95368 0.0
C166 C 0.48612 0.99058 0.95169 0.0
C167 C 0.48371 0.95962 0.92762 0.0
C168 C 0.49154 -0.00084 0.93776 0.0
C169 C 0.47816 0.95101 0.94155 0.0
C170 C 0.49062 0.98384 0.92558 0.0
C171 C 0.47568 0.95795 0.96857 0.0
O172 O 0.4697 0.98883 0.02852 0.0
O173 O 0.46255 0.95768 0.01109 0.0
C174 C 0.4563 0.96621 0.02256 0.0
O175 O 0.51397 0.97033 1.00734 0.0
O176 O 0.50649 0.03587 0.04645 0.0
O177 O 0.53638 0.02868 0.04798 0.0
O178 O 0.50837 0.97872 0.03114 0.0
C179 C 0.5153 0.96777 0.02158 0.0
O180 O 0.521 0.01653 0.99156 0.0
O181 O 0.54213 0.02721 0.01478 0.0
O182 O 0.5015 0.03652 0.01321 0.0
O183 O 0.4954 0.96239 0.97667 0.0
O184 O 0.46153 0.9627 0.9762 0.0
O185 O 0.47265 0.00501 0.9967 0.0
C186 C 0.51797 0.0282 0.06979 0.0
C187 C 0.50315 0.00328 0.07102 0.0
C188 C 0.52028 0.03642 0.09658 0.0
C189 C 0.49704 0.99496 0.08494 0.0
C190 C 0.52646 0.04472 0.08262 0.0
C191 C 0.50556 0.01141 0.0979 0.0
C192 C 0.52422 0.03681 0.05509 0.0
C193 C 0.54146 0.02867 1.00034 0.0
H194 H 0.48759 0.0029 0.96099 0.0
H195 H 0.4826 0.94731 0.91843 0.0
H196 H 0.49711 0.01799 0.93662 0.0
H197 H 0.47324 0.9324 0.94291 0.0
H198 H 0.49625 0.99026 0.06119 0.0
H199 H 0.5273 0.04953 0.10635 0.0
H200 H 0.48539 0.97565 0.08552 0.0
H201 H 0.53788 0.06402 0.08186 0.0
Eu202 Eu 0.01393 0.50404 0.9975 0.0
Eu203 Eu 0.98154 0.48987 0.02612 0.0
C204 C 0.96826 0.45117 0.99774 0.0
C205 C 0.03341 0.51476 0.95849 0.0
C206 C 0.00916 0.50334 0.95206 0.0
C207 C 0.04734 0.52466 0.93418 0.0
C208 C 0.00402 0.50244 0.93672 0.0
C209 C 0.05245 0.52549 0.94951 0.0
C210 C 0.02306 0.51302 0.92761 0.0
C211 C 0.03897 0.51553 0.97454 0.0
O212 O 0.01705 0.49262 0.03437 0.0
O213 O 0.0272 0.48424 0.0118 0.0
C214 C 0.02957 0.48576 0.02642 0.0
O215 O 0.03683 0.53286 0.01623 0.0
O216 O 0.96288 0.46443 0.04219 0.0
O217 O 0.96158 0.49771 0.04225 0.0
O218 O 0.00582 0.53065 0.02879 0.0
C219 C 0.02852 0.54256 0.0257 0.0
O220 O 0.98794 0.51831 0.99444 0.0
O221 O 0.95765 0.4917 1.00744 0.0
O222 O 0.97103 0.45491 0.01232 0.0
O223 O 0.03599 0.53098 0.98294 0.0
O224 O 0.03032 0.49451 0.97981 0.0
O225 O 0.97941 0.46909 0.98954 0.0
C226 C 0.96176 0.48229 0.06524 0.0
C227 C 0.98594 0.49375 0.07179 0.0
C228 C 0.94756 0.47571 0.0897 0.0
C229 C 0.9909 0.49597 0.08724 0.0
C230 C 0.94263 0.47347 0.07425 0.0
C231 C 0.97175 0.48677 0.09636 0.0
C232 C 0.9563 0.47845 0.04902 0.0
C233 C 0.96526 0.50764 0.99766 0.0
H234 H 0.99425 0.4951 0.9589 0.0
H235 H 0.06238 0.53273 0.92743 0.0
H236 H 0.98515 0.4936 0.93201 0.0
H237 H 0.07127 0.53438 0.95435 0.0
H238 H 0.00092 0.50067 0.06494 0.0
H239 H 0.93241 0.46821 0.0964 0.0
H240 H 0.00972 0.50486 0.09205 0.0
H241 H 0.92386 0.46446 0.06931 0.0
Eu242 Eu 0.51058 0.49358 0.02748 0.0
Eu243 Eu 0.48645 0.50125 0.99633 0.0
C244 C 0.51771 0.54482 0.02145 0.0
C245 C 0.52154 0.48828 0.0681 0.0
C246 C 0.50602 0.4972 0.07147 0.0
C247 C 0.52408 0.47997 0.09377 0.0
C248 C 0.49965 0.49762 0.08592 0.0
C249 C 0.53052 0.47964 0.07929 0.0
C250 C 0.5086 0.489 0.09724 0.0
C251 C 0.52748 0.48706 0.05279 0.0
O252 O 0.51908 0.49891 0.99021 0.0
O253 O 0.54151 0.51006 0.0131 0.0
C254 C 0.53986 0.50689 0.99849 0.0
O255 O 0.4993 0.461 0.01116 0.0
O256 O 0.47931 0.52403 0.98207 0.0
O257 O 0.46651 0.48653 0.97431 0.0
O258 O 0.46687 0.46137 0.99927 0.0
C259 C 0.47808 0.44965 1.00314 0.0
O260 O 0.47144 0.48102 0.03094 0.0
O261 O 0.46124 0.49983 0.01321 0.0
O262 O 0.51549 0.53804 1.00721 0.0
O263 O 0.51017 0.46944 0.04368 0.0
O264 O 0.53774 0.50762 0.04688 0.0
O265 O 0.51071 0.52876 0.03113 0.0
C266 C 0.48021 0.51449 0.95662 0.0
C267 C 0.50387 0.51901 0.95503 0.0
C268 C 0.47508 0.51931 0.93047 0.0
C269 C 0.51289 0.5231 0.94117 0.0
C270 C 0.466 0.51503 0.94434 0.0
C271 C 0.49843 0.52289 0.92867 0.0
C272 C 0.46976 0.50736 0.97074 0.0
C273 C 0.4569 0.48829 0.02525 0.0
H274 H 0.49869 0.50367 0.06288 0.0
H275 H 0.53142 0.47341 0.10229 0.0
H276 H 0.48743 0.50437 0.08818 0.0
H277 H 0.5424 0.47256 0.07683 0.0
H278 H 0.51512 0.51874 0.96443 0.0
H279 H 0.46344 0.51882 0.92102 0.0
H280 H 0.53104 0.52608 0.94017 0.0
H281 H 0.44765 0.51146 0.94538 0.0
Eu282 Eu 0.15597 0.31197 0.32785 0.0
Eu283 Eu 0.17564 0.34473 0.36072 0.0
C284 C 0.15024 0.35825 0.33416 0.0
C285 C 0.14882 0.29808 0.28631 0.0
C286 C 0.1629 0.3231 0.28512 0.0
C287 C 0.14684 0.29013 0.25953 0.0
C288 C 0.16879 0.33159 0.27123 0.0
C289 C 0.14088 0.28164 0.27346 0.0
C290 C 0.16078 0.31523 0.25825 0.0
C291 C 0.14264 0.28933 0.30097 0.0
O292 O 0.14316 0.30899 0.36414 0.0
O293 O 0.12307 0.29914 0.34067 0.0
C294 C 0.12301 0.29721 0.35505 0.0
O295 O 0.16326 0.28933 0.34322 0.0
O296 O 0.1692 0.36346 0.37927 0.0
O297 O 0.20247 0.36198 0.3803 0.0
O298 O 0.19263 0.3211 0.35924 0.0
C299 C 0.182 0.29837 0.35345 0.0
O300 O 0.19641 0.33747 0.32824 0.0
O301 O 0.20209 0.36841 0.34529 0.0
O302 O 0.15138 0.35581 0.34843 0.0
O303 O 0.16057 0.29091 0.30974 0.0
O304 O 0.12983 0.29678 0.30795 0.0
O305 O 0.15714 0.34713 0.32469 0.0
C306 C 0.18402 0.35888 0.40249 0.0
C307 C 0.17023 0.33394 0.40397 0.0
C308 C 0.18708 0.36753 0.42928 0.0
C309 C 0.1647 0.32584 0.41799 0.0
C310 C 0.19252 0.37562 0.41522 0.0
C311 C 0.17291 0.34254 0.43082 0.0
C312 C 0.1885 0.36738 0.38764 0.0
C313 C 0.20929 0.36014 0.33422 0.0
H314 H 0.16934 0.33606 0.29496 0.0
H315 H 0.14022 0.27708 0.24974 0.0
H316 H 0.17984 0.35099 0.27067 0.0
H317 H 0.13002 0.26227 0.2742 0.0
H318 H 0.16354 0.32074 0.39424 0.0
H319 H 0.19349 0.38087 0.43892 0.0
H320 H 0.15406 0.30648 0.41879 0.0
H321 H 0.20306 0.39495 0.41426 0.0
Eu322 Eu 0.68391 0.8423 0.33275 0.0
Eu323 Eu 0.65137 0.82891 0.36125 0.0
C324 C 0.63789 0.78987 0.33311 0.0
C325 C 0.70454 0.85154 0.29389 0.0
C326 C 0.68076 0.84308 0.28736 0.0
C327 C 0.71905 0.85749 0.2695 0.0
C328 C 0.67613 0.8418 0.27194 0.0
C329 C 0.72364 0.85877 0.28492 0.0
C330 C 0.69523 0.84897 0.26283 0.0
C331 C 0.70953 0.85275 0.31003 0.0
O332 O 0.68692 0.83202 0.36983 0.0
O333 O 0.69652 0.8224 0.34743 0.0
C334 C 0.69915 0.82457 0.36206 0.0
O335 O 0.70643 0.87197 0.35117 0.0
O336 O 0.63197 0.80331 0.37708 0.0
O337 O 0.63169 0.83713 0.37742 0.0
O338 O 0.6752 0.86972 0.36351 0.0
C339 C 0.69785 0.8818 0.36035 0.0
O340 O 0.65758 0.85596 0.3287 0.0
O341 O 0.6276 0.83071 0.34247 0.0
O342 O 0.64108 0.79378 0.34768 0.0
O343 O 0.7065 0.86855 0.31802 0.0
O344 O 0.70044 0.83189 0.31554 0.0
O345 O 0.64904 0.80767 0.32484 0.0
C346 C 0.63044 0.82068 0.4002 0.0
C347 C 0.65435 0.83157 0.40713 0.0
C348 C 0.61502 0.81322 0.4243 0.0
C349 C 0.65857 0.83308 0.4226 0.0
C350 C 0.61084 0.8117 0.40884 0.0
C351 C 0.63892 0.82373 0.43135 0.0
C352 C 0.62565 0.81751 0.38395 0.0
C353 C 0.63504 0.8458 0.33218 0.0
H354 H 0.66579 0.83736 0.29418 0.0
H355 H 0.73418 0.86342 0.26281 0.0
H356 H 0.65755 0.83486 0.26714 0.0
H357 H 0.74212 0.8654 0.28984 0.0
H358 H 0.66968 0.83857 0.40056 0.0
H359 H 0.59949 0.80558 0.4307 0.0
H360 H 0.67719 0.84154 0.42772 0.0
H361 H 0.59226 0.80312 0.40361 0.0
Eu362 Eu 0.17653 0.82534 0.3605 0.0
Eu363 Eu 0.1554 0.83828 0.33035 0.0
C364 C 0.18571 0.87824 0.35784 0.0
C365 C 0.18465 0.81545 0.40052 0.0
C366 C 0.16845 0.82352 0.40388 0.0
C367 C 0.18711 0.80669 0.4261 0.0
C368 C 0.16159 0.82316 0.41827 0.0
C369 C 0.19397 0.80706 0.41168 0.0
C370 C 0.17076 0.81466 0.42955 0.0
C371 C 0.19112 0.8151 0.38526 0.0
O372 O 0.18615 0.83306 0.32369 0.0
O373 O 0.20816 0.8431 0.34662 0.0
C374 C 0.20674 0.84034 0.332 0.0
O375 O 0.16629 0.79459 0.3429 0.0
O376 O 0.15991 0.8647 0.31476 0.0
O377 O 0.12833 0.82861 0.31125 0.0
O378 O 0.13615 0.79748 0.32971 0.0
C379 C 0.14638 0.78484 0.33361 0.0
O380 O 0.13683 0.81246 0.36249 0.0
O381 O 0.13137 0.83782 0.34777 0.0
O382 O 0.18368 0.87343 0.34338 0.0
O383 O 0.17361 0.79884 0.37561 0.0
O384 O 0.20285 0.83623 0.38014 0.0
O385 O 0.17809 0.86075 0.36655 0.0
C386 C 0.146 0.84742 0.2901 0.0
C387 C 0.15438 0.83186 0.28524 0.0
C388 C 0.15019 0.86239 0.26578 0.0
C389 C 0.16059 0.83152 0.27073 0.0
C390 C 0.14387 0.86262 0.28029 0.0
C391 C 0.15878 0.84693 0.26084 0.0
C392 C 0.14114 0.8491 0.30564 0.0
C393 C 0.12452 0.82301 0.35825 0.0
H394 H 0.16105 0.83002 0.39535 0.0
H395 H 0.19429 0.7998 0.43449 0.0
H396 H 0.14927 0.82977 0.42057 0.0
H397 H 0.20637 0.80062 0.40922 0.0
H398 H 0.15637 0.82015 0.29272 0.0
H399 H 0.14888 0.87473 0.25855 0.0
H400 H 0.16675 0.81912 0.26726 0.0
H401 H 0.13773 0.87497 0.28394 0.0
Eu402 Eu 0.82574 0.64728 0.66199 0.0
Eu403 Eu 0.84454 0.67998 0.69482 0.0
C404 C 0.81832 0.6924 0.6682 0.0
C405 C 0.81953 0.63366 0.62048 0.0
C406 C 0.83624 0.6583 0.61959 0.0
C407 C 0.81535 0.6264 0.59353 0.0
C408 C 0.84247 0.66695 0.60576 0.0
C409 C 0.80914 0.61776 0.6074 0.0
C410 C 0.8321 0.65112 0.59254 0.0
C411 C 0.81294 0.62478 0.63508 0.0
O412 O 0.8129 0.64357 0.69819 0.0
O413 O 0.79269 0.63372 0.67476 0.0
C414 C 0.79278 0.63147 0.68911 0.0
O415 O 0.83381 0.62513 0.67739 0.0
O416 O 0.83693 0.69773 0.71334 0.0
O417 O 0.87123 0.69823 0.71437 0.0
O418 O 0.86238 0.65713 0.69364 0.0
C419 C 0.85233 0.63448 0.68779 0.0
O420 O 0.86606 0.67342 0.66251 0.0
O421 O 0.87087 0.7041 0.67945 0.0
O422 O 0.81933 0.68982 0.68245 0.0
O423 O 0.83064 0.62625 0.64402 0.0
O424 O 0.8 0.63224 0.64189 0.0
O425 O 0.82613 0.68206 0.65882 0.0
C426 C 0.85249 0.69395 0.73654 0.0
C427 C 0.84106 0.66897 0.73802 0.0
C428 C 0.8535 0.70204 0.76321 0.0
C429 C 0.83576 0.66056 0.752 0.0
C430 C 0.85879 0.71044 0.7492 0.0
C431 C 0.84177 0.67698 0.76476 0.0
C432 C 0.85658 0.7026 0.72171 0.0
C433 C 0.87849 0.69611 0.66847 0.0
H434 H 0.84437 0.67088 0.6296 0.0
H435 H 0.80723 0.61368 0.58359 0.0
H436 H 0.85513 0.68613 0.60542 0.0
H437 H 0.79623 0.59868 0.60791 0.0
H438 H 0.83588 0.65595 0.72833 0.0
H439 H 0.85864 0.71519 0.77283 0.0
H440 H 0.82641 0.64114 0.75273 0.0
H441 H 0.86755 0.72977 0.74824 0.0
Eu442 Eu 0.35097 0.17643 0.66568 0.0
Eu443 Eu 0.31793 0.16161 0.69396 0.0
C444 C 0.30387 0.12349 0.6654 0.0
C445 C 0.37208 0.18688 0.62696 0.0
C446 C 0.34806 0.17567 0.62018 0.0
C447 C 0.38707 0.19614 0.60284 0.0
C448 C 0.34355 0.17487 0.6048 0.0
C449 C 0.39154 0.19695 0.61823 0.0
C450 C 0.36303 0.18528 0.59597 0.0
C451 C 0.37703 0.18925 0.64317 0.0
O452 O 0.34376 0.14725 0.69742 0.0
O453 O 0.37419 0.17316 0.68416 0.0
C454 C 0.36637 0.15742 0.69408 0.0
O455 O 0.36098 0.21092 0.6799 0.0
O456 O 0.29436 0.13417 0.70776 0.0
O457 O 0.30182 0.17121 0.71181 0.0
O458 O 0.35288 0.19591 0.70243 0.0
C459 C 0.36417 0.21416 0.69449 0.0
O460 O 0.31556 0.17369 0.65721 0.0
O461 O 0.30529 0.182 0.67974 0.0
O462 O 0.2955 0.1328 0.67511 0.0
O463 O 0.37076 0.20313 0.65049 0.0
O464 O 0.37092 0.16921 0.64924 0.0
O465 O 0.32648 0.1357 0.66218 0.0
C466 C 0.29635 0.14896 0.73245 0.0
C467 C 0.32018 0.15855 0.73925 0.0
C468 C 0.28069 0.13753 0.7562 0.0
C469 C 0.32426 0.15777 0.7545 0.0
C470 C 0.27664 0.1384 0.74096 0.0
C471 C 0.30455 0.1473 0.76315 0.0
C472 C 0.29187 0.14965 0.71647 0.0
C473 C 0.30296 0.1805 0.66512 0.0
H474 H 0.33283 0.16784 0.62682 0.0
H475 H 0.40244 0.20454 0.59637 0.0
H476 H 0.32483 0.16609 0.59981 0.0
H477 H 0.4102 0.20581 0.62335 0.0
H478 H 0.33558 0.16661 0.73276 0.0
H479 H 0.26518 0.12959 0.7626 0.0
H480 H 0.34281 0.16516 0.75951 0.0
H481 H 0.25814 0.13089 0.73581 0.0
Eu482 Eu 0.84137 0.15205 0.69276 0.0
Eu483 Eu 0.81795 0.16257 0.66246 0.0
C484 C 0.85165 0.20485 0.68794 0.0
C485 C 0.85209 0.14469 0.73294 0.0
C486 C 0.83752 0.15463 0.73659 0.0
C487 C 0.85497 0.13637 0.75858 0.0
C488 C 0.8318 0.15554 0.75117 0.0
C489 C 0.86076 0.13554 0.74397 0.0
C490 C 0.84046 0.14644 0.76233 0.0
C491 C 0.85746 0.1432 0.71751 0.0
O492 O 0.84981 0.15941 0.65551 0.0
O493 O 0.87217 0.1681 0.67827 0.0
C494 C 0.87044 0.16605 0.66363 0.0
O495 O 0.8292 0.12035 0.67554 0.0
O496 O 0.81235 0.18692 0.64877 0.0
O497 O 0.79637 0.14892 0.64086 0.0
O498 O 0.79712 0.1225 0.66481 0.0
C499 C 0.80777 0.10993 0.66779 0.0
O500 O 0.80262 0.14096 0.69655 0.0
O501 O 0.7943 0.16258 0.68001 0.0
O502 O 0.84827 0.19847 0.67357 0.0
O503 O 0.83933 0.12651 0.70838 0.0
O504 O 0.86889 0.16387 0.71182 0.0
O505 O 0.84435 0.18843 0.69741 0.0
C506 C 0.81028 0.17672 0.62303 0.0
C507 C 0.83061 0.17515 0.61942 0.0
C508 C 0.80568 0.18723 0.59816 0.0
C509 C 0.83813 0.17907 0.60517 0.0
C510 C 0.79809 0.18315 0.61242 0.0
C511 C 0.82552 0.18479 0.59427 0.0
C512 C 0.801 0.17031 0.63753 0.0
C513 C 0.78923 0.15001 0.69161 0.0
H514 H 0.83045 0.16154 0.72814 0.0
H515 H 0.86208 0.12941 0.76697 0.0
H516 H 0.82029 0.16307 0.75365 0.0
H517 H 0.87193 0.12771 0.74128 0.0
H518 H 0.84023 0.17019 0.62749 0.0
H519 H 0.7958 0.19199 0.59014 0.0
H520 H 0.85326 0.1767 0.60256 0.0
H521 H 0.78241 0.18453 0.61506 0.0
H522 H 0.26572 0.80646 0.07785 0.0
H523 H 0.30254 0.83049 0.06573 0.0
H524 H 0.29954 0.89532 0.0777 0.0
H525 H 0.26242 0.87129 0.08979 0.0
H526 H 0.30673 0.88583 0.04596 0.0
H527 H 0.37124 0.8816 0.08854 0.0
H528 H 0.3441 0.85328 0.08195 0.0
H529 H 0.34166 0.87656 0.09248 0.0
C530 C 0.27282 0.82581 0.07784 0.0
C531 C 0.26117 0.83701 0.08473 0.0
C532 C 0.29391 0.83951 0.071 0.0
C533 C 0.30375 0.86463 0.07091 0.0
C534 C 0.29218 0.87591 0.07771 0.0
H535 H 0.44316 0.975 0.04925 0.0
H536 H 0.40572 0.94953 0.06025 0.0
C537 C 0.27112 0.86223 0.08466 0.0
C538 C 0.32609 0.87902 0.06365 0.0
H539 H 0.38717 0.89937 0.06671 0.0
C540 C 0.32434 0.88882 0.05046 0.0
C541 C 0.34896 0.88288 0.06963 0.0
C542 C 0.35181 0.87321 0.08399 0.0
C543 C 0.34497 0.90233 0.04301 0.0
C544 C 0.36779 0.90596 0.04891 0.0
C545 C 0.36955 0.89629 0.06216 0.0
C546 C 0.39037 0.92099 0.04199 0.0
C547 C 0.34238 0.91305 0.02906 0.0
C548 C 0.39423 0.91318 0.02812 0.0
C549 C 0.41576 0.9277 0.02176 0.0
C550 C 0.43364 0.95028 0.02917 0.0
C551 C 0.42969 0.95783 0.04314 0.0
C552 C 0.40834 0.94328 0.0495 0.0
H553 H 0.32435 0.91186 0.02729 0.0
H554 H 0.35693 0.9324 0.02955 0.0
H555 H 0.34439 0.90306 0.0193 0.0
H556 H 0.38063 0.89585 0.02225 0.0
H557 H 0.41828 0.92136 0.01101 0.0
H558 H 0.17851 0.45013 0.11051 0.0
H559 H 0.14817 0.45859 0.09882 0.0
H560 H 0.15648 0.43229 0.05585 0.0
H561 H 0.18609 0.42283 0.0675 0.0
H562 H 0.15313 0.48921 0.07749 0.0
H563 H 0.08301 0.39438 0.0567 0.0
H564 H 0.10847 0.40158 0.07014 0.0
H565 H 0.11244 0.40352 0.05066 0.0
C566 C 0.17362 0.44579 0.0986 0.0
C567 C 0.18462 0.43562 0.08996 0.0
C568 C 0.1564 0.45081 0.09193 0.0
C569 C 0.14976 0.44571 0.0765 0.0
C570 C 0.16095 0.4359 0.06781 0.0
H571 H 0.05684 0.46872 0.01372 0.0
H572 H 0.08594 0.45944 0.0263 0.0
C573 C 0.17811 0.4308 0.07448 0.0
C574 C 0.13158 0.45122 0.06948 0.0
H575 H 0.0769 0.42563 0.04796 0.0
C576 C 0.13639 0.47529 0.07111 0.0
C577 C 0.10972 0.43301 0.06119 0.0
C578 C 0.10293 0.40663 0.05966 0.0
C579 C 0.12019 0.48174 0.06439 0.0
C580 C 0.0985 0.46359 0.05597 0.0
C581 C 0.0936 0.4395 0.0544 0.0
C582 C 0.08079 0.46927 0.0485 0.0
C583 C 0.12667 0.50803 0.06605 0.0
C584 C 0.06803 0.4776 0.05684 0.0
C585 C 0.05132 0.48289 0.0497 0.0
C586 C 0.04704 0.4799 0.03406 0.0
C587 C 0.05973 0.47132 0.02577 0.0
C588 C 0.07635 0.46597 0.03293 0.0
H589 H 0.14623 0.5204 0.07007 0.0
H590 H 0.12257 0.51346 0.05529 0.0
H591 H 0.11559 0.51047 0.07424 0.0
H592 H 0.07092 0.47988 0.06889 0.0
H593 H 0.04181 0.48936 0.05644 0.0
H594 H 0.59432 0.74893 0.09534 0.0
H595 H 0.57929 0.7081 0.08322 0.0
H596 H 0.60194 0.7376 0.04162 0.0
H597 H 0.61787 0.77876 0.05382 0.0
H598 H 0.54307 0.68535 0.05926 0.0
H599 H 0.63019 0.69233 0.0454 0.0
H600 H 0.6292 0.71399 0.05869 0.0
H601 H 0.62448 0.71541 0.03908 0.0
C602 C 0.59662 0.74683 0.08369 0.0
C603 C 0.6075 0.76712 0.07557 0.0
C604 C 0.58783 0.72346 0.07676 0.0
C605 C 0.58975 0.71988 0.06158 0.0
C606 C 0.60066 0.74003 0.05341 0.0
H607 H 0.53698 0.58368 1.00497 0.0
H608 H 0.55406 0.62665 0.01383 0.0
C609 C 0.60953 0.76348 0.06036 0.0
C610 C 0.57925 0.69487 0.05428 0.0
H611 H 0.59391 0.65558 0.03693 0.0
C612 C 0.55417 0.67884 0.05435 0.0
C613 C 0.59379 0.68654 0.0478 0.0
C614 C 0.62095 0.70285 0.0478 0.0
C615 C 0.54323 0.65458 0.04826 0.0
C616 C 0.55785 0.64609 0.04213 0.0
C617 C 0.58282 0.66223 0.04168 0.0
C618 C 0.54769 0.62022 0.03675 0.0
C619 C 0.51611 0.6382 0.04843 0.0
C620 C 0.5388 0.60253 0.04678 0.0
C621 C 0.52911 0.57804 0.0418 0.0
C622 C 0.52818 0.57081 0.02668 0.0
C623 C 0.53734 0.58864 0.01667 0.0
C624 C 0.54713 0.61318 0.0217 0.0
H625 H 0.50669 0.64878 0.04995 0.0
H626 H 0.50793 0.62586 0.03794 0.0
H627 H 0.51274 0.62685 0.05781 0.0
H628 H 0.53945 0.6077 0.05849 0.0
H629 H 0.5223 0.56481 0.04981 0.0
H630 H 0.79174 0.24122 0.94782 0.0
H631 H 0.82208 0.28213 0.95882 0.0
H632 H 0.87936 0.27256 0.94251 0.0
H633 H 0.84922 0.23116 0.93201 0.0
H634 H 0.89125 0.29432 0.97116 0.0
H635 H 0.85642 0.34009 0.93507 0.0
H636 H 0.83352 0.31809 0.94523 0.0
H637 H 0.84696 0.30832 0.93149 0.0
C638 C 0.81082 0.24765 0.94676 0.0
C639 C 0.81805 0.23297 0.93896 0.0
C640 C 0.8281 0.27116 0.95287 0.0
C641 C 0.85288 0.28055 0.95117 0.0
C642 C 0.86027 0.26573 0.9438 0.0
H643 H 0.96117 0.43502 0.96812 0.0
H644 H 0.93468 0.39342 0.95642 0.0
C645 C 0.84302 0.24215 0.93773 0.0
C646 C 0.87108 0.30582 0.95711 0.0
H647 H 0.88541 0.36477 0.95566 0.0
C648 C 0.89009 0.30975 0.96771 0.0
C649 C 0.86978 0.32594 0.95237 0.0
C650 C 0.85072 0.32298 0.9403 0.0
C651 C 0.90744 0.33326 0.97406 0.0
C652 C 0.90536 0.35326 0.96989 0.0
C653 C 0.8868 0.34938 0.95895 0.0
C654 C 0.92188 0.37828 0.97701 0.0
C655 C 0.92792 0.33646 0.98507 0.0
C656 C 0.92318 0.38357 0.99241 0.0
C657 C 0.93833 0.40723 0.99912 0.0
C658 C 0.95227 0.42615 0.99053 0.0
C659 C 0.9507 0.42086 0.97506 0.0
C660 C 0.9356 0.39712 0.96836 0.0
H661 H 0.93121 0.32095 0.98359 0.0
H662 H 0.94512 0.35352 0.98395 0.0
H663 H 0.92297 0.33734 0.99653 0.0
H664 H 0.91225 0.36944 0.99923 0.0
H665 H 0.93892 0.41068 0.01105 0.0
H666 H 0.70929 0.54659 0.91363 0.0
H667 H 0.67268 0.53762 0.92564 0.0
H668 H 0.71618 0.56729 0.9681 0.0
H669 H 0.75295 0.57711 0.95612 0.0
H670 H 0.65348 0.50749 0.94783 0.0
H671 H 0.6765 0.60139 0.96707 0.0
H672 H 0.69267 0.59497 0.95347 0.0
H673 H 0.69958 0.59436 0.97297 0.0
C674 C 0.71114 0.55163 0.92548 0.0
C675 C 0.73409 0.56265 0.9339 0.0
C676 C 0.69017 0.54632 0.93235 0.0
C677 C 0.69172 0.55206 0.94774 0.0
C678 C 0.71458 0.5631 0.95617 0.0
H679 H 0.58688 0.52675 0.01139 0.0
H680 H 0.62342 0.53709 0.99895 0.0
C681 C 0.73556 0.56844 0.94932 0.0
C682 C 0.66931 0.54556 0.95507 0.0
H683 H 0.64233 0.5693 0.97656 0.0
C684 C 0.65096 0.52102 0.95403 0.0
C685 C 0.66609 0.56323 0.96319 0.0
C686 C 0.68464 0.58999 0.96415 0.0
C687 C 0.62969 0.5136 0.96112 0.0
C688 C 0.62654 0.53126 0.9693 0.0
C689 C 0.64485 0.5558 0.97032 0.0
C690 C 0.60428 0.52463 0.97679 0.0
C691 C 0.611 0.48688 0.96008 0.0
C692 C 0.58143 0.51438 0.96843 0.0
C693 C 0.56051 0.50843 0.97549 0.0
C694 C 0.56203 0.51272 0.99107 0.0
C695 C 0.585 0.52309 0.9994 0.0
C696 C 0.60593 0.52907 0.99231 0.0
H697 H 0.61875 0.47536 0.95659 0.0
H698 H 0.60361 0.48175 0.97092 0.0
H699 H 0.59563 0.48285 0.95169 0.0
H700 H 0.57981 0.5112 0.95642 0.0
H701 H 0.54318 0.50055 0.96869 0.0
H702 H 0.40476 0.14344 0.93007 0.0
H703 H 0.42157 0.12086 0.94205 0.0
H704 H 0.39712 0.13198 0.98363 0.0
H705 H 0.37944 0.15394 0.97158 0.0
H706 H 0.45746 0.13802 0.96622 0.0
H707 H 0.37091 0.05842 0.97855 0.0
H708 H 0.37166 0.07928 0.96565 0.0
H709 H 0.37555 0.08762 0.98536 0.0
C710 C 0.40249 0.14066 0.94169 0.0
C711 C 0.39054 0.15026 0.94985 0.0
C712 C 0.41233 0.12797 0.94855 0.0
C713 C 0.41039 0.12459 0.96368 0.0
C714 C 0.39849 0.13411 0.97189 0.0
H715 H 0.49559 0.07355 0.01436 0.0
H716 H 0.4785 0.09836 1.00597 0.0
C717 C 0.38858 0.14679 0.96502 0.0
C718 C 0.42138 0.11154 0.97083 0.0
H719 H 0.40753 0.06008 0.98733 0.0
C720 C 0.4466 0.12103 0.97091 0.0
C721 C 0.40707 0.08933 0.97683 0.0
C722 C 0.37977 0.07788 0.97652 0.0
C723 C 0.4579 0.1087 0.97666 0.0
C724 C 0.4436 0.08652 0.98267 0.0
C725 C 0.41843 0.0772 0.98279 0.0
C726 C 0.45404 0.07178 0.98795 0.0
C727 C 0.48486 0.11906 0.97575 0.0
C728 C 0.44565 0.04854 0.98075 0.0
C729 C 0.45521 0.03431 0.98554 0.0
C730 C 0.47335 0.04304 0.99768 0.0
C731 C 0.48174 0.06637 1.00492 0.0
C732 C 0.47207 0.08059 1.00012 0.0
H733 H 0.49209 0.13342 0.96803 0.0
H734 H 0.49483 0.12724 0.98696 0.0
H735 H 0.48874 0.10456 0.97199 0.0
H736 H 0.43175 0.04144 0.97132 0.0
H737 H 0.44835 0.01647 0.97967 0.0
H738 H 0.73445 0.1212 0.93068 0.0
H739 H 0.69698 0.09667 0.94219 0.0
H740 H 0.69886 0.16197 0.95979 0.0
H741 H 0.73542 0.18648 0.94777 0.0
H742 H 0.68827 0.09579 0.97144 0.0
H743 H 0.63032 0.12286 0.93909 0.0
H744 H 0.6598 0.12929 0.93404 0.0
H745 H 0.65749 0.1484 0.94852 0.0
C746 C 0.72669 0.13031 0.93683 0.0
C747 C 0.73795 0.15582 0.93826 0.0
C748 C 0.7054 0.11628 0.9435 0.0
C749 C 0.69493 0.12749 0.95166 0.0
C750 C 0.70633 0.15292 0.9533 0.0
H751 H 0.58698 0.06095 0.01447 0.0
H752 H 0.62452 0.08496 1.00291 0.0
C753 C 0.72747 0.16692 0.94658 0.0
C754 C 0.67224 0.11268 0.95861 0.0
H755 H 0.61425 0.10191 0.96021 0.0
C756 C 0.67203 0.097 0.96894 0.0
C757 C 0.65098 0.11407 0.95518 0.0
C758 C 0.64951 0.12937 0.94349 0.0
C759 C 0.65122 0.08295 0.97612 0.0
C760 C 0.63028 0.0851 0.97314 0.0
C761 C 0.63042 0.10052 0.96264 0.0
C762 C 0.60767 0.07087 0.98031 0.0
C763 C 0.6517 0.06558 0.98659 0.0
C764 C 0.5856 0.05562 0.97145 0.0
C765 C 0.56412 0.04223 0.97799 0.0
C766 C 0.56423 0.04375 0.99357 0.0
C767 C 0.58631 0.05925 1.00245 0.0
C768 C 0.60781 0.07284 0.99586 0.0
H769 H 0.66621 0.06123 0.9845 0.0
H770 H 0.65548 0.07408 0.99822 0.0
H771 H 0.6339 0.04836 0.9855 0.0
H772 H 0.58503 0.05389 0.95942 0.0
H773 H 0.54748 0.03044 0.97078 0.0
H774 H 0.8442 0.59284 0.92859 0.0
H775 H 0.87363 0.58317 0.94033 0.0
H776 H 0.81485 0.51827 0.9545 0.0
H777 H 0.78518 0.5274 0.94247 0.0
H778 H 0.85592 0.55 0.97725 0.0
H779 H 0.88455 0.52618 0.92501 0.0
H780 H 0.88462 0.55447 0.92639 0.0
H781 H 0.85627 0.52634 0.9255 0.0
C782 C 0.83747 0.57635 0.93404 0.0
C783 C 0.81228 0.56084 0.93451 0.0
C784 C 0.85433 0.57091 0.94078 0.0
C785 C 0.84636 0.54989 0.94813 0.0
C786 C 0.82132 0.53456 0.94884 0.0
H787 H 0.91612 0.48608 0.99932 0.0
H788 H 0.88762 0.49662 0.98736 0.0
C789 C 0.80442 0.5399 0.94204 0.0
C790 C 0.86417 0.54404 0.95524 0.0
H791 H 0.90582 0.52708 0.94761 0.0
C792 C 0.86682 0.54493 0.9708 0.0
C793 C 0.87842 0.53761 0.94676 0.0
C794 C 0.87581 0.53588 0.92998 0.0
C795 C 0.88361 0.53981 0.97816 0.0
C796 C 0.89764 0.533 0.96967 0.0
C797 C 0.89504 0.53226 0.95409 0.0
C798 C 0.91493 0.52636 0.97674 0.0
C799 C 0.88653 0.54229 0.99496 0.0
C800 C 0.93965 0.539 0.97432 0.0
C801 C 0.956 0.53282 0.981 0.0
C802 C 0.94791 0.51384 0.99023 0.0
C803 C 0.92305 0.50096 0.99241 0.0
C804 C 0.90672 0.50706 0.98566 0.0
H805 H 0.88012 0.55435 0.99967 0.0
H806 H 0.87545 0.52413 0.99887 0.0
H807 H 0.90585 0.54967 0.99941 0.0
H808 H 0.94635 0.55384 0.96737 0.0
H809 H 0.975 0.54308 0.97903 0.0
H810 H 0.37831 0.21556 0.97213 0.0
H811 H 0.39379 0.2568 0.98402 0.0
H812 H 0.41191 0.28519 0.94164 0.0
H813 H 0.39766 0.24443 0.92985 0.0
H814 H 0.44943 0.30953 0.96355 0.0
H815 H 0.36398 0.30046 0.98228 0.0
H816 H 0.37152 0.27853 0.9885 0.0
H817 H 0.36409 0.27829 0.96897 0.0
C818 C 0.38556 0.2306 0.96535 0.0
C819 C 0.38661 0.22667 0.95002 0.0
C820 C 0.39413 0.2541 0.97213 0.0
C821 C 0.40368 0.27397 0.96366 0.0
C822 C 0.40445 0.27005 0.94835 0.0
H823 H 0.43771 0.42172 0.98336 0.0
H824 H 0.4198 0.37865 0.97478 0.0
C825 C 0.39606 0.24668 0.9416 0.0
C826 C 0.4142 0.29911 0.97075 0.0
H827 H 0.40045 0.33767 0.98991 0.0
C828 C 0.43874 0.3157 0.96934 0.0
C829 C 0.40012 0.30707 0.97819 0.0
C830 C 0.37341 0.29025 0.97949 0.0
C831 C 0.44958 0.34014 0.97501 0.0
C832 C 0.43563 0.34806 0.98263 0.0
C833 C 0.41112 0.33145 0.98416 0.0
C834 C 0.44588 0.37378 0.98848 0.0
C835 C 0.47563 0.35741 0.97235 0.0
C836 C 0.46623 0.38516 0.99921 0.0
C837 C 0.47667 0.40983 1.00403 0.0
C838 C 0.46671 0.42343 0.99833 0.0
C839 C 0.44586 0.41177 0.98793 0.0
C840 C 0.43556 0.38715 0.98304 0.0
H841 H 0.48161 0.34984 0.96322 0.0
H842 H 0.47799 0.37511 0.96952 0.0
H843 H 0.48781 0.36079 0.98263 0.0
H844 H 0.47414 0.375 1.00377 0.0
H845 H 0.49254 0.41821 0.01219 0.0
H846 H 0.20682 0.75158 0.07536 0.0
H847 H 0.17611 0.71107 0.06396 0.0
H848 H 0.11925 0.72183 0.0798 0.0
H849 H 0.14978 0.76281 0.0907 0.0
H850 H 0.14397 0.67326 0.07856 0.0
H851 H 0.09387 0.69668 0.03632 0.0
H852 H 0.12338 0.71888 0.04569 0.0
H853 H 0.09636 0.70963 0.05495 0.0
C854 C 0.18775 0.74556 0.07615 0.0
C855 C 0.18074 0.76048 0.08389 0.0
C856 C 0.17025 0.72233 0.06973 0.0
C857 C 0.14541 0.71356 0.0709 0.0
C858 C 0.13829 0.72841 0.07854 0.0
H859 H 0.01724 0.57102 0.04356 0.0
H860 H 0.04508 0.61244 0.05522 0.0
C861 C 0.15579 0.75171 0.08491 0.0
C862 C 0.12714 0.68842 0.06476 0.0
H863 H 0.07681 0.6549 0.0397 0.0
C864 C 0.12932 0.66925 0.07004 0.0
C865 C 0.10798 0.68327 0.05371 0.0
C866 C 0.1053 0.70319 0.04722 0.0
C867 C 0.11284 0.64503 0.06456 0.0
C868 C 0.09386 0.63992 0.05342 0.0
C869 C 0.0914 0.65899 0.04829 0.0
C870 C 0.07705 0.61491 0.04651 0.0
C871 C 0.11575 0.62505 0.07076 0.0
C872 C 0.08589 0.60281 0.03769 0.0
C873 C 0.0701 0.57928 0.03099 0.0
C874 C 0.04516 0.5674 0.03299 0.0
C875 C 0.03636 0.57962 0.04184 0.0
C876 C 0.05219 0.60327 0.04848 0.0
H877 H 0.12754 0.63145 0.08152 0.0
H878 H 0.09774 0.60937 0.07242 0.0
H879 H 0.1243 0.61858 0.06273 0.0
H880 H 0.105 0.61168 0.0359 0.0
H881 H 0.0775 0.57044 0.02423 0.0
H882 H 0.28849 0.45297 0.10968 0.0
H883 H 0.32512 0.46306 0.09727 0.0
H884 H 0.28056 0.42913 0.05551 0.0
H885 H 0.24386 0.4189 0.06783 0.0
H886 H 0.31889 0.41623 0.06445 0.0
H887 H 0.35232 0.51533 0.06572 0.0
H888 H 0.34308 0.50173 0.08277 0.0
H889 H 0.32077 0.4932 0.06706 0.0
C890 C 0.2865 0.4475 0.09788 0.0
C891 C 0.26332 0.43521 0.08971 0.0
C892 C 0.30742 0.45343 0.0908 0.0
C893 C 0.3055 0.44703 0.07547 0.0
C894 C 0.28239 0.43434 0.06734 0.0
H895 H 0.41965 0.49611 0.01587 0.0
H896 H 0.38269 0.48584 0.02787 0.0
C897 C 0.26149 0.4286 0.07438 0.0
C898 C 0.3276 0.45348 0.06789 0.0
H899 H 0.37792 0.50156 0.05674 0.0
C900 C 0.33182 0.43486 0.06275 0.0
C901 C 0.3442 0.47776 0.06555 0.0
C902 C 0.33993 0.49824 0.07045 0.0
C903 C 0.35251 0.43996 0.05551 0.0
C904 C 0.36947 0.46435 0.05348 0.0
C905 C 0.36498 0.48291 0.0584 0.0
C906 C 0.39205 0.47093 0.04636 0.0
C907 C 0.35588 0.41917 0.04992 0.0
C908 C 0.40975 0.46635 0.05291 0.0
C909 C 0.43083 0.47215 0.0461 0.0
C910 C 0.43475 0.48281 0.0326 0.0
C911 C 0.41721 0.48786 0.02622 0.0
C912 C 0.39607 0.48202 0.03306 0.0
H913 H 0.33852 0.40149 0.04893 0.0
H914 H 0.36309 0.42202 0.03891 0.0
H915 H 0.36919 0.41804 0.05789 0.0
H916 H 0.40727 0.45831 0.06334 0.0
H917 H 0.44405 0.46824 0.05144 0.0
H918 H 0.59487 0.8542 0.09577 0.0
H919 H 0.57981 0.87827 0.08386 0.0
H920 H 0.60222 0.86472 0.04208 0.0
H921 H 0.61771 0.84078 0.05397 0.0
H922 H 0.60572 0.92019 0.06813 0.0
H923 H 0.52875 0.84201 0.03263 0.0
H924 H 0.54474 0.83805 0.04845 0.0
H925 H 0.5585 0.84569 0.03138 0.0
C926 C 0.59695 0.85661 0.0841 0.0
C927 C 0.60753 0.8456 0.07581 0.0
C928 C 0.58819 0.87024 0.0773 0.0
C929 C 0.58966 0.87298 0.06209 0.0
C930 C 0.60057 0.86243 0.0538 0.0
H931 H 0.53411 0.94455 1.0054 0.0
H932 H 0.55316 0.92206 0.01477 0.0
C933 C 0.60939 0.84879 0.0606 0.0
C934 C 0.5796 0.88686 0.05499 0.0
H935 H 0.53369 0.88077 0.03021 0.0
C936 C 0.59003 0.91164 0.0598 0.0
C937 C 0.55919 0.87557 0.0441 0.0
C938 C 0.54695 0.84883 0.03886 0.0
C939 C 0.58049 0.92548 0.05405 0.0
C940 C 0.55969 0.91407 0.04344 0.0
C941 C 0.54959 0.88941 0.03838 0.0
C942 C 0.54777 0.92729 0.03776 0.0
C943 C 0.59287 0.95224 0.0593 0.0
C944 C 0.53798 0.93718 0.04756 0.0
C945 C 0.52712 0.95005 0.04227 0.0
C946 C 0.52569 0.95309 0.02704 0.0
C947 C 0.53497 0.9426 0.01719 0.0
C948 C 0.54587 0.92976 0.02251 0.0
H949 H 0.61204 0.95943 0.06403 0.0
H950 H 0.59276 0.96291 0.05005 0.0
H951 H 0.58295 0.95506 0.06815 0.0
H952 H 0.53876 0.93496 0.05932 0.0
H953 H 0.52001 0.95774 0.05015 0.0
H954 H 0.90556 0.17332 0.39461 0.0
H955 H 0.94279 0.19532 0.38243 0.0
H956 H 0.98613 0.21341 0.42477 0.0
H957 H 0.94904 0.19086 0.43698 0.0
H958 H 0.98063 0.24419 0.38748 0.0
H959 H 0.01419 0.18055 0.3985 0.0
H960 H 0.98325 0.17314 0.40055 0.0
H961 H 0.00744 0.19263 0.41479 0.0
C962 C 0.92303 0.18189 0.40132 0.0
C963 C 0.92436 0.18015 0.41674 0.0
C964 C 0.94425 0.19455 0.39436 0.0
C965 C 0.96719 0.2056 0.40266 0.0
C966 C 0.96859 0.20461 0.41812 0.0
H967 H 0.11659 0.28844 0.38409 0.0
H968 H 0.07825 0.26585 0.3949 0.0
C969 C 0.94738 0.19196 0.4251 0.0
C970 C 0.98966 0.218 0.39512 0.0
H971 H 0.04135 0.21684 0.38845 0.0
C972 C 0.99387 0.23816 0.38761 0.0
C973 C 0.0068 0.20999 0.39527 0.0
C974 C 0.00267 0.18776 0.40259 0.0
C975 C 0.01514 0.25096 0.38057 0.0
C976 C 0.03239 0.2431 0.38086 0.0
C977 C 0.02806 0.2228 0.38826 0.0
C978 C 0.05549 0.25618 0.37401 0.0
C979 C 0.01932 0.2732 0.37325 0.0
C980 C 0.05541 0.25783 0.35861 0.0
C981 C 0.07736 0.27076 0.35234 0.0
C982 C 0.09975 0.28218 0.36139 0.0
C983 C 0.09971 0.27995 0.37677 0.0
C984 C 0.07781 0.26703 0.383 0.0
H985 H 0.00715 0.27992 0.37687 0.0
H986 H 0.03854 0.2881 0.37581 0.0
H987 H 0.01556 0.2686 0.361 0.0
H988 H 0.03837 0.24918 0.35145 0.0
H989 H 0.07674 0.27205 0.34046 0.0
H990 H 0.85525 0.76207 0.4028 0.0
H991 H 0.82568 0.77212 0.39173 0.0
H992 H 0.81761 0.79666 0.4353 0.0
H993 H 0.84783 0.78752 0.44642 0.0
H994 H 0.7774 0.75407 0.39683 0.0
H995 H 0.83116 0.85396 0.41183 0.0
H996 H 0.84454 0.83482 0.41293 0.0
H997 H 0.82696 0.83638 0.42731 0.0
C998 C 0.84745 0.76993 0.41002 0.0
C999 C 0.85404 0.77412 0.4255 0.0
C1000 C 0.83042 0.77549 0.40368 0.0
C1001 C 0.81971 0.78547 0.41266 0.0
C1002 C 0.82599 0.78941 0.42812 0.0
H1003 H 0.71139 0.82861 0.39215 0.0
H1004 H 0.73984 0.81841 0.4048 0.0
C1005 C 0.84305 0.78389 0.43448 0.0
C1006 C 0.80159 0.79123 0.40584 0.0
H1007 H 0.79037 0.83771 0.40121 0.0
C1008 C 0.78026 0.77236 0.39776 0.0
C1009 C 0.80532 0.81511 0.40712 0.0
C1010 C 0.82832 0.8363 0.41515 0.0
C1011 C 0.76248 0.77668 0.39098 0.0
C1012 C 0.76631 0.80057 0.39216 0.0
C1013 C 0.78749 0.8194 0.40038 0.0
C1014 C 0.7489 0.80651 0.38452 0.0
C1015 C 0.73961 0.75559 0.38277 0.0
C1016 C 0.74482 0.80347 0.36893 0.0
C1017 C 0.72865 0.80931 0.36167 0.0
C1018 C 0.71627 0.8184 0.36985 0.0
C1019 C 0.72054 0.82158 0.38549 0.0
C1020 C 0.73681 0.81579 0.39275 0.0
H1021 H 0.73656 0.73788 0.38613 0.0
H1022 H 0.72337 0.75717 0.38477 0.0
H1023 H 0.7413 0.75557 0.37064 0.0
H1024 H 0.75431 0.79676 0.36237 0.0
H1025 H 0.72592 0.80672 0.34962 0.0
H1026 H 0.26798 0.08585 0.43296 0.0
H1027 H 0.25397 0.04403 0.42318 0.0
H1028 H 0.27446 0.06744 0.37998 0.0
H1029 H 0.28949 0.1096 0.38984 0.0
H1030 H 0.21706 0.01823 0.40063 0.0
H1031 H 0.3027 0.02303 0.38592 0.0
H1032 H 0.30251 0.04652 0.39797 0.0
H1033 H 0.29686 0.04513 0.37811 0.0
C1034 C 0.27015 0.08224 0.42148 0.0
C1035 C 0.27999 0.10108 0.41219 0.0
C1036 C 0.26194 0.05829 0.41589 0.0
C1037 C 0.26342 0.0527 0.40092 0.0
C1038 C 0.27358 0.07145 0.39164 0.0
H1039 H 0.20609 0.9191 0.3433 0.0
H1040 H 0.22503 0.96132 0.3541 0.0
C1041 C 0.28189 0.09547 0.39724 0.0
C1042 C 0.25267 0.02703 0.39481 0.0
H1043 H 0.26564 0.98669 0.37714 0.0
C1044 C 0.2277 0.01128 0.39559 0.0
C1045 C 0.26663 0.0181 0.3882 0.0
C1046 C 0.29371 0.034 0.38759 0.0
C1047 C 0.21619 0.98686 0.38972 0.0
C1048 C 0.23012 0.97796 0.38307 0.0
C1049 C 0.25508 0.99367 0.38228 0.0
C1050 C 0.21896 0.95242 0.37671 0.0
C1051 C 0.18913 0.97088 0.39039 0.0
C1052 C 0.20952 0.93353 0.38592 0.0
C1053 C 0.19867 0.90937 0.3798 0.0
C1054 C 0.19715 0.90375 0.36437 0.0
C1055 C 0.20686 0.92279 0.35521 0.0
C1056 C 0.21775 0.94693 0.36135 0.0
H1057 H 0.18022 0.98169 0.39292 0.0
H1058 H 0.18018 0.95936 0.37968 0.0
H1059 H 0.18604 0.95868 0.39927 0.0
H1060 H 0.2106 0.93751 0.39783 0.0
H1061 H 0.19147 0.89514 0.38717 0.0
H1062 H 0.4863 0.5919 0.25262 0.0
H1063 H 0.51703 0.63217 0.26428 0.0
H1064 H 0.51415 0.60307 0.30643 0.0
H1065 H 0.48406 0.56242 0.29469 0.0
H1066 H 0.51276 0.65939 0.28721 0.0
H1067 H 0.58707 0.64031 0.30264 0.0
H1068 H 0.56071 0.61987 0.28983 0.0
H1069 H 0.55865 0.62034 0.30956 0.0
C1070 C 0.49249 0.59396 0.26432 0.0
C1071 C 0.48289 0.5739 0.2727 0.0
C1072 C 0.50992 0.61702 0.27098 0.0
C1073 C 0.51813 0.62053 0.28616 0.0
C1074 C 0.50842 0.60065 0.29463 0.0
H1075 H 0.61467 0.74822 0.34673 0.0
H1076 H 0.58581 0.70723 0.3351 0.0
C1077 C 0.49101 0.5775 0.28795 0.0
C1078 C 0.53627 0.6452 0.29314 0.0
H1079 H 0.59321 0.6788 0.31189 0.0
C1080 C 0.5304 0.66367 0.29255 0.0
C1081 C 0.55924 0.65069 0.30008 0.0
C1082 C 0.56695 0.63183 0.30048 0.0
C1083 C 0.54679 0.68745 0.29889 0.0
C1084 C 0.56971 0.69291 0.30585 0.0
C1085 C 0.57558 0.67447 0.30651 0.0
C1086 C 0.58772 0.71765 0.3127 0.0
C1087 C 0.53931 0.70647 0.29836 0.0
C1088 C 0.59858 0.73695 0.30387 0.0
C1089 C 0.61514 0.76042 0.31046 0.0
C1090 C 0.62108 0.76494 0.32599 0.0
C1091 C 0.61042 0.74542 0.33474 0.0
C1092 C 0.59397 0.72197 0.32814 0.0
H1093 H 0.51935 0.69824 0.29543 0.0
H1094 H 0.54459 0.71773 0.30924 0.0
H1095 H 0.5488 0.71869 0.28981 0.0
H1096 H 0.59419 0.73384 0.2919 0.0
H1097 H 0.62307 0.77503 0.3034 0.0
H1098 H 0.3895 0.85475 0.26844 0.0
H1099 H 0.35242 0.84475 0.28017 0.0
H1100 H 0.36704 0.91816 0.2779 0.0
H1101 H 0.40364 0.92789 0.26561 0.0
H1102 H 0.34612 0.86104 0.3055 0.0
H1103 H 0.29742 0.88175 0.26106 0.0
H1104 H 0.32463 0.88051 0.2583 0.0
H1105 H 0.32676 0.90746 0.26745 0.0
C1106 C 0.38468 0.86869 0.27037 0.0
C1107 C 0.39934 0.89206 0.26606 0.0
C1108 C 0.36349 0.86297 0.27707 0.0
C1109 C 0.35661 0.88055 0.27972 0.0
C1110 C 0.37147 0.90403 0.27558 0.0
H1111 H 0.25446 0.86726 0.34384 0.0
H1112 H 0.2908 0.87719 0.33133 0.0
C1113 C 0.39246 0.90964 0.26864 0.0
C1114 C 0.33439 0.87442 0.28728 0.0
H1115 H 0.28121 0.87571 0.28449 0.0
C1116 C 0.33186 0.86413 0.30084 0.0
C1117 C 0.31554 0.87807 0.28115 0.0
C1118 C 0.31606 0.8873 0.26612 0.0
C1119 C 0.31122 0.85758 0.30846 0.0
C1120 C 0.29292 0.86227 0.30267 0.0
C1121 C 0.29533 0.87236 0.28905 0.0
C1122 C 0.27087 0.85642 0.31036 0.0
C1123 C 0.30903 0.84508 0.32241 0.0
C1124 C 0.24749 0.84216 0.30264 0.0
C1125 C 0.2267 0.83693 0.30967 0.0
C1126 C 0.22881 0.84565 0.32464 0.0
C1127 C 0.2522 0.85995 0.33237 0.0
C1128 C 0.27301 0.86552 0.32524 0.0
H1129 H 0.32009 0.836 0.32263 0.0
H1130 H 0.31592 0.85881 0.33227 0.0
H1131 H 0.28979 0.83127 0.32344 0.0
H1132 H 0.2453 0.83499 0.29114 0.0
H1133 H 0.20896 0.82589 0.30339 0.0
H1134 H 0.02804 0.44868 0.27403 0.0
H1135 H 0.04461 0.4247 0.28449 0.0
H1136 H 0.10832 0.49055 0.30461 0.0
H1137 H 0.09259 0.51463 0.2936 0.0
H1138 H 0.12024 0.46061 0.29009 0.0
H1139 H 0.04907 0.40926 0.32696 0.0
H1140 H 0.03722 0.406 0.30791 0.0
H1141 H 0.05146 0.43526 0.3186 0.0
C1142 C 0.04558 0.45805 0.28067 0.0
C1143 C 0.0589 0.48359 0.28304 0.0
C1144 C 0.05488 0.4443 0.28679 0.0
C1145 C 0.07751 0.45584 0.29552 0.0
C1146 C 0.09073 0.48128 0.298 0.0
H1147 H 0.13794 0.38734 0.35042 0.0
H1148 H 0.12089 0.41153 0.34101 0.0
C1149 C 0.08157 0.49501 0.29181 0.0
C1150 C 0.08815 0.44161 0.30147 0.0
H1151 H 0.07809 0.39663 0.32358 0.0
C1152 C 0.11107 0.44668 0.29746 0.0
C1153 C 0.07628 0.42367 0.31122 0.0
C1154 C 0.05226 0.41835 0.31656 0.0
C1155 C 0.12236 0.43413 0.30282 0.0
C1156 C 0.11011 0.4156 0.31215 0.0
C1157 C 0.08732 0.41071 0.31631 0.0
C1158 C 0.1207 0.40116 0.31778 0.0
C1159 C 0.1475 0.44118 0.29867 0.0
C1160 C 0.12608 0.3872 0.30783 0.0
C1161 C 0.136 0.37353 0.31315 0.0
C1162 C 0.14043 0.37332 0.32855 0.0
C1163 C 0.1348 0.38715 0.3385 0.0
C1164 C 0.12501 0.40094 0.33315 0.0
H1165 H 0.15698 0.45983 0.29515 0.0
H1166 H 0.15894 0.44028 0.30812 0.0
H1167 H 0.14588 0.42842 0.2892 0.0
H1168 H 0.12237 0.38669 0.29592 0.0
H1169 H 0.13989 0.3629 0.30518 0.0
H1170 H 0.39974 0.5259 0.28193 0.0
H1171 H 0.36427 0.50079 0.29475 0.0
H1172 H 0.36521 0.4366 0.27793 0.0
H1173 H 0.40153 0.46175 0.26566 0.0
H1174 H 0.31948 0.46495 0.2835 0.0
H1175 H 0.36184 0.42832 0.32179 0.0
H1176 H 0.37959 0.45339 0.31126 0.0
H1177 H 0.36463 0.42264 0.30257 0.0
C1178 C 0.39272 0.50649 0.28117 0.0
C1179 C 0.40372 0.49589 0.27291 0.0
C1180 C 0.37229 0.49214 0.28841 0.0
C1181 C 0.36235 0.46688 0.28754 0.0
C1182 C 0.37292 0.45613 0.27906 0.0
H1183 H 0.2325 0.34765 0.31416 0.0
H1184 H 0.26991 0.37448 0.30347 0.0
C1185 C 0.3935 0.4705 0.27188 0.0
C1186 C 0.34049 0.4518 0.29516 0.0
H1187 H 0.3186 0.41004 0.3204 0.0
C1188 C 0.31935 0.4531 0.29166 0.0
C1189 C 0.34039 0.43641 0.30585 0.0
C1190 C 0.3629 0.43524 0.31072 0.0
C1191 C 0.29796 0.439 0.2983 0.0
C1192 C 0.29778 0.42333 0.30875 0.0
C1193 C 0.31889 0.42212 0.31236 0.0
C1194 C 0.27548 0.40734 0.31564 0.0
C1195 C 0.27548 0.44046 0.29387 0.0
C1196 C 0.26644 0.417 0.32616 0.0
C1197 C 0.24506 0.40169 0.33239 0.0
C1198 C 0.23237 0.3765 0.32812 0.0
C1199 C 0.24172 0.36696 0.31767 0.0
C1200 C 0.26313 0.38223 0.31156 0.0
H1201 H 0.27759 0.45081 0.28407 0.0
H1202 H 0.25938 0.42193 0.29123 0.0
H1203 H 0.27179 0.44962 0.30332 0.0
H1204 H 0.2759 0.43637 0.32951 0.0
H1205 H 0.23836 0.40962 0.3404 0.0
H1206 H 0.48493 0.87786 0.24611 0.0
H1207 H 0.51507 0.86931 0.25807 0.0
H1208 H 0.50625 0.89577 0.30084 0.0
H1209 H 0.47662 0.90506 0.28892 0.0
H1210 H 0.55507 0.91372 0.29585 0.0
H1211 H 0.5007 0.81334 0.28347 0.0
H1212 H 0.50463 0.82984 0.26747 0.0
H1213 H 0.48747 0.83252 0.28176 0.0
C1214 C 0.4895 0.882 0.25805 0.0
C1215 C 0.47829 0.89208 0.26656 0.0
C1216 C 0.50655 0.87687 0.26488 0.0
C1217 C 0.51264 0.88159 0.28037 0.0
C1218 C 0.50168 0.89184 0.28888 0.0
H1219 H 0.58738 0.82894 0.3368 0.0
H1220 H 0.55848 0.83826 0.32405 0.0
C1221 C 0.48462 0.89696 0.28207 0.0
C1222 C 0.53072 0.87619 0.28768 0.0
H1223 H 0.54163 0.82998 0.29395 0.0
C1224 C 0.55216 0.89542 0.29545 0.0
C1225 C 0.52673 0.85226 0.28726 0.0
C1226 C 0.50356 0.83074 0.27966 0.0
C1227 C 0.56983 0.8914 0.30271 0.0
C1228 C 0.56609 0.86754 0.30201 0.0
C1229 C 0.54456 0.84829 0.29435 0.0
C1230 C 0.58389 0.86202 0.30961 0.0
C1231 C 0.59208 0.91263 0.31136 0.0
C1232 C 0.60774 0.87208 0.3056 0.0
C1233 C 0.6244 0.86683 0.31289 0.0
C1234 C 0.61745 0.8513 0.32429 0.0
C1235 C 0.59342 0.84103 0.32812 0.0
C1236 C 0.57682 0.8463 0.32083 0.0
H1237 H 0.58942 0.9284 0.31376 0.0
H1238 H 0.59672 0.90743 0.32206 0.0
H1239 H 0.60782 0.91851 0.30473 0.0
H1240 H 0.61344 0.88389 0.29676 0.0
H1241 H 0.64268 0.87491 0.30957 0.0
H1242 H 0.02304 0.56067 0.27559 0.0
H1243 H 0.03807 0.60291 0.28539 0.0
H1244 H 0.10502 0.60845 0.30392 0.0
H1245 H 0.09071 0.56681 0.29368 0.0
H1246 H 0.05439 0.627 0.31443 0.0
H1247 H 0.1282 0.66388 0.2773 0.0
H1248 H 0.10332 0.63285 0.27456 0.0
H1249 H 0.1287 0.6416 0.28832 0.0
C1250 C 0.04098 0.57092 0.28174 0.0
C1251 C 0.05574 0.56042 0.28376 0.0
C1252 C 0.04945 0.59496 0.28739 0.0
C1253 C 0.07282 0.60887 0.29511 0.0
C1254 C 0.08712 0.59812 0.29774 0.0
H1255 H 0.16413 0.75412 0.33746 0.0
H1256 H 0.14493 0.71124 0.328 0.0
C1257 C 0.07874 0.57419 0.29204 0.0
C1258 C 0.08264 0.63484 0.3001 0.0
H1259 H 0.12982 0.69164 0.29672 0.0
C1260 C 0.07075 0.64118 0.31049 0.0
C1261 C 0.10391 0.65325 0.29483 0.0
C1262 C 0.11666 0.64763 0.28302 0.0
C1263 C 0.08011 0.6655 0.31615 0.0
C1264 C 0.10171 0.68378 0.31114 0.0
C1265 C 0.11333 0.67748 0.30057 0.0
C1266 C 0.11289 0.70958 0.31695 0.0
C1267 C 0.06727 0.67144 0.32772 0.0
C1268 C 0.10129 0.72281 0.31367 0.0
C1269 C 0.11225 0.74736 0.31899 0.0
C1270 C 0.13499 0.75903 0.32768 0.0
C1271 C 0.14659 0.74568 0.33084 0.0
C1272 C 0.13567 0.7212 0.32546 0.0
H1273 H 0.05344 0.65492 0.33234 0.0
H1274 H 0.08061 0.68428 0.33699 0.0
H1275 H 0.05788 0.68037 0.32258 0.0
H1276 H 0.08385 0.71418 0.30692 0.0
H1277 H 0.10284 0.75712 0.31634 0.0
H1278 H 0.81353 0.10414 0.4226 0.0
H1279 H 0.78387 0.06271 0.41181 0.0
H1280 H 0.84232 0.05269 0.39821 0.0
H1281 H 0.87215 0.09382 0.40925 0.0
H1282 H 0.80043 0.03809 0.37561 0.0
H1283 H 0.77444 -0.00064 0.42953 0.0
H1284 H 0.77401 0.02694 0.42705 0.0
H1285 H 0.80247 0.02732 0.42815 0.0
C1286 C 0.8201 0.09306 0.41742 0.0
C1287 C 0.84523 0.10228 0.41683 0.0
C1288 C 0.80313 0.06944 0.41125 0.0
C1289 C 0.81099 0.05466 0.40437 0.0
C1290 C 0.83596 0.06389 0.40349 0.0
H1291 H 0.74669 0.91059 0.35859 0.0
H1292 H 0.77325 0.95264 0.36917 0.0
C1293 C 0.85295 0.08744 0.40973 0.0
C1294 C 0.7932 0.02952 0.39804 0.0
H1295 H 0.75361 0.97315 0.40762 0.0
C1296 C 0.79014 0.02386 0.38257 0.0
C1297 C 0.77977 0.01114 0.4072 0.0
C1298 C 0.78284 0.01631 0.42392 0.0
C1299 C 0.77388 0.00019 0.37597 0.0
C1300 C 0.76086 0.98162 0.38515 0.0
C1301 C 0.76367 0.98741 0.40062 0.0
C1302 C 0.74471 0.95596 0.37895 0.0
C1303 C 0.77057 0.99539 0.35921 0.0
C1304 C 0.72001 0.94356 0.3814 0.0
C1305 C 0.70478 0.91936 0.37551 0.0
C1306 C 0.71403 0.90713 0.36708 0.0
C1307 C 0.7389 0.91951 0.36489 0.0
C1308 C 0.7541 0.94363 0.37085 0.0
H1309 H 0.77589 0.0123 0.35382 0.0
H1310 H 0.78236 0.98817 0.35571 0.0
H1311 H 0.75136 0.98181 0.35509 0.0
H1312 H 0.71245 0.95271 0.38773 0.0
H1313 H 0.68573 0.91035 0.37742 0.0
H1314 H 0.93901 0.80924 0.41786 0.0
H1315 H 0.97457 0.81821 0.40479 0.0
H1316 H 0.97011 0.75168 0.41661 0.0
H1317 H 0.93375 0.7419 0.42902 0.0
H1318 H 0.01871 0.82549 0.41473 0.0
H1319 H 0.97338 0.74542 0.37241 0.0
H1320 H 0.95648 0.75401 0.3842 0.0
H1321 H 0.97029 0.73729 0.39111 0.0
C1322 C 0.94532 0.79629 0.41749 0.0
C1323 C 0.93327 0.77469 0.42438 0.0
C1324 C 0.96581 0.80156 0.41011 0.0
C1325 C 0.97476 0.78541 0.40946 0.0
C1326 C 0.9632 0.76415 0.41664 0.0
H1327 H 0.10211 0.78953 0.37788 0.0
H1328 H 0.0659 0.78117 0.39007 0.0
C1329 C 0.94259 0.75876 0.42393 0.0
C1330 C 0.99645 0.79107 0.40149 0.0
H1331 H 0.01677 0.76868 0.37406 0.0
C1332 C 0.01821 0.81314 0.40576 0.0
C1333 C 0.9958 0.775 0.38973 0.0
C1334 C 0.97267 0.75173 0.38398 0.0
C1335 C 0.03942 0.8193 0.39883 0.0
C1336 C 0.03883 0.80302 0.38731 0.0
C1337 C 0.01712 0.78106 0.38296 0.0
C1338 C 0.06075 0.8083 0.37983 0.0
C1339 C 0.0625 0.84293 0.40403 0.0
C1340 C 0.06971 0.82622 0.36994 0.0
C1341 C 0.09035 0.83097 0.36283 0.0
C1342 C 0.10244 0.81793 0.36557 0.0
C1343 C 0.09332 0.79996 0.3755 0.0
C1344 C 0.0726 0.79511 0.38249 0.0
H1345 H 0.06087 0.85195 0.41443 0.0
H1346 H 0.07807 0.83976 0.40598 0.0
H1347 H 0.06672 0.85547 0.39525 0.0
H1348 H 0.06066 0.83646 0.36767 0.0
H1349 H 0.09689 0.84494 0.35527 0.0
H1350 H 0.23937 0.14278 0.39833 0.0
H1351 H 0.22239 0.16426 0.38521 0.0
H1352 H 0.28694 0.23271 0.40077 0.0
H1353 H 0.30462 0.21127 0.41334 0.0
H1354 H 0.21149 0.19664 0.39766 0.0
H1355 H 0.27844 0.24013 0.3571 0.0
H1356 H 0.27712 0.21604 0.36726 0.0
H1357 H 0.29244 0.24684 0.37591 0.0
C1358 C 0.25027 0.16236 0.39865 0.0
C1359 C 0.27346 0.1753 0.4068 0.0
C1360 C 0.24043 0.17462 0.39124 0.0
C1361 C 0.25354 0.20004 0.39183 0.0
C1362 C 0.27673 0.21304 0.39989 0.0
H1363 H 0.22342 0.31245 0.37188 0.0
H1364 H 0.2397 0.28714 0.38025 0.0
C1365 C 0.28668 0.20078 0.40723 0.0
C1366 C 0.24224 0.21301 0.38489 0.0
H1367 H 0.25123 0.2553 0.36082 0.0
C1368 C 0.22002 0.20923 0.38946 0.0
C1369 C 0.2534 0.22939 0.37418 0.0
C1370 C 0.27654 0.23318 0.36821 0.0
C1371 C 0.20906 0.22202 0.38398 0.0
C1372 C 0.22058 0.23887 0.37361 0.0
C1373 C 0.24254 0.24236 0.36881 0.0
C1374 C 0.21067 0.25391 0.36818 0.0
C1375 C 0.18566 0.21805 0.38964 0.0
C1376 C 0.18904 0.2435 0.35854 0.0
C1377 C 0.17965 0.25792 0.35368 0.0
C1378 C 0.19178 0.28294 0.35844 0.0
C1379 C 0.21355 0.29324 0.36804 0.0
C1380 C 0.22295 0.27885 0.37281 0.0
H1381 H 0.18097 0.20701 0.39924 0.0
H1382 H 0.18708 0.23576 0.39307 0.0
H1383 H 0.1705 0.20845 0.38058 0.0
H1384 H 0.17945 0.22426 0.35479 0.0
H1385 H 0.16288 0.24945 0.34627 0.0
H1386 H 0.60563 0.47874 0.74965 0.0
H1387 H 0.64198 0.50252 0.73709 0.0
H1388 H 0.63096 0.56404 0.74154 0.0
H1389 H 0.59494 0.54045 0.75456 0.0
H1390 H 0.64761 0.52259 0.71178 0.0
H1391 H 0.70106 0.59511 0.758 0.0
H1392 H 0.67323 0.56772 0.76046 0.0
H1393 H 0.67216 0.59235 0.75238 0.0
C1394 C 0.61101 0.49736 0.74796 0.0
C1395 C 0.59756 0.50782 0.75311 0.0
C1396 C 0.63177 0.51093 0.74079 0.0
C1397 C 0.63946 0.5352 0.73855 0.0
C1398 C 0.6258 0.54557 0.74349 0.0
H1399 H 0.746 0.61388 0.67652 0.0
H1400 H 0.70828 0.59042 0.68798 0.0
C1401 C 0.60518 0.53208 0.75086 0.0
C1402 C 0.66157 0.54936 0.73087 0.0
H1403 H 0.71733 0.60113 0.73474 0.0
C1404 C 0.66289 0.53975 0.71681 0.0
C1405 C 0.68164 0.5716 0.73752 0.0
C1406 C 0.68212 0.5822 0.75298 0.0
C1407 C 0.6837 0.55168 0.70924 0.0
C1408 C 0.70348 0.57426 0.7157 0.0
C1409 C 0.70211 0.58391 0.72974 0.0
C1410 C 0.72616 0.58788 0.70841 0.0
C1411 C 0.68454 0.53954 0.69464 0.0
C1412 C 0.74883 0.59475 0.71618 0.0
C1413 C 0.77039 0.60853 0.70978 0.0
C1414 C 0.76976 0.6156 0.6954 0.0
C1415 C 0.74706 0.60843 0.68753 0.0
C1416 C 0.72547 0.59492 0.69404 0.0
H1417 H 0.6715 0.51965 0.69349 0.0
H1418 H 0.6794 0.54726 0.68534 0.0
H1419 H 0.7031 0.54256 0.6935 0.0
H1420 H 0.74986 0.58956 0.72727 0.0
H1421 H 0.78758 0.61374 0.71614 0.0
H1422 H 0.51356 0.1185 0.7779 0.0
H1423 H 0.48361 0.12774 0.76646 0.0
H1424 H 0.49049 0.10068 0.72331 0.0
H1425 H 0.51985 0.09063 0.73472 0.0
H1426 H 0.48904 0.15852 0.74486 0.0
H1427 H 0.41676 0.06395 0.72524 0.0
H1428 H 0.44229 0.07092 0.73857 0.0
H1429 H 0.44593 0.07223 0.71904 0.0
C1430 C 0.50847 0.11421 0.766 0.0
C1431 C 0.51899 0.10365 0.75724 0.0
C1432 C 0.49147 0.11965 0.75947 0.0
C1433 C 0.48454 0.11456 0.74407 0.0
C1434 C 0.49522 0.10433 0.73526 0.0
H1435 H 0.41393 0.17364 0.68945 0.0
H1436 H 0.44224 0.16336 0.70198 0.0
C1437 C 0.51222 0.09887 0.74177 0.0
C1438 C 0.46656 0.12048 0.73721 0.0
H1439 H 0.41123 0.09553 0.71649 0.0
C1440 C 0.47198 0.14474 0.73871 0.0
C1441 C 0.44416 0.10242 0.72936 0.0
C1442 C 0.43676 0.07588 0.72805 0.0
C1443 C 0.45584 0.15153 0.7323 0.0
C1444 C 0.43387 0.13361 0.72399 0.0
C1445 C 0.4282 0.10926 0.72276 0.0
C1446 C 0.41659 0.13979 0.7164 0.0
C1447 C 0.46233 0.17778 0.73466 0.0
C1448 C 0.39255 0.12949 0.72008 0.0
C1449 C 0.37621 0.13521 0.71287 0.0
C1450 C 0.38358 0.15125 0.70176 0.0
C1451 C 0.40764 0.16135 0.69801 0.0
C1452 C 0.42393 0.1556 0.70522 0.0
H1453 H 0.4761 0.18769 0.74443 0.0
H1454 H 0.47017 0.1869 0.72468 0.0
H1455 H 0.44593 0.17925 0.7363 0.0
H1456 H 0.38648 0.11714 0.72863 0.0
H1457 H 0.35783 0.12708 0.71603 0.0
H1458 H 0.97319 0.4277 0.74809 0.0
H1459 H 0.95903 0.38618 0.73729 0.0
H1460 H 0.89446 0.3825 0.71601 0.0
H1461 H 0.90778 0.42333 0.72731 0.0
H1462 H 0.88395 0.34403 0.73145 0.0
H1463 H 0.95614 0.35861 0.69504 0.0
H1464 H 0.96745 0.37117 0.71403 0.0
H1465 H 0.95242 0.38317 0.70278 0.0
C1466 C 0.95602 0.41807 0.74107 0.0
C1467 C 0.94165 0.42888 0.73856 0.0
C1468 C 0.94811 0.39446 0.73475 0.0
C1469 C 0.92584 0.38139 0.7257 0.0
C1470 C 0.91179 0.39235 0.72289 0.0
H1471 H 0.86516 0.24358 0.67168 0.0
H1472 H 0.88387 0.28646 0.68109 0.0
C1473 C 0.91956 0.41581 0.72926 0.0
C1474 C 0.91613 0.35565 0.72008 0.0
H1475 H 0.92772 0.31761 0.69849 0.0
C1476 C 0.89349 0.33826 0.72421 0.0
C1477 C 0.92854 0.34824 0.71055 0.0
C1478 C 0.95238 0.36628 0.70521 0.0
C1479 C 0.88291 0.3136 0.71911 0.0
C1480 C 0.89561 0.30608 0.70991 0.0
C1481 C 0.91818 0.32346 0.70567 0.0
C1482 C 0.88538 0.28027 0.70428 0.0
C1483 C 0.85798 0.29594 0.72335 0.0
C1484 C 0.88044 0.2627 0.71422 0.0
C1485 C 0.86958 0.23818 0.70891 0.0
C1486 C 0.86372 0.23085 0.69354 0.0
C1487 C 0.86935 0.24861 0.68359 0.0
C1488 C 0.8801 0.27312 0.68893 0.0
H1489 H 0.84819 0.30533 0.72709 0.0
H1490 H 0.8466 0.28217 0.71386 0.0
H1491 H 0.85999 0.2863 0.73267 0.0
H1492 H 0.88484 0.26794 0.7261 0.0
H1493 H 0.86573 0.22499 0.71686 0.0
H1494 H 0.15708 0.92264 0.58385 0.0
H1495 H 0.18793 0.96349 0.59465 0.0
H1496 H 0.18334 0.93795 0.63807 0.0
H1497 H 0.15312 0.89675 0.62725 0.0
H1498 H 0.18298 0.99249 0.61585 0.0
H1499 H 0.25663 0.97482 0.63541 0.0
H1500 H 0.23076 0.95348 0.62254 0.0
H1501 H 0.22791 0.9553 0.64215 0.0
C1502 C 0.16295 0.92559 0.59565 0.0
C1503 C 0.15276 0.90639 0.60467 0.0
C1504 C 0.18046 0.94899 0.60182 0.0
C1505 C 0.18819 0.95368 0.61712 0.0
C1506 C 0.178 0.93462 0.62619 0.0
H1507 H 0.25674 0.09238 0.67025 0.0
H1508 H 0.2293 0.05152 0.65807 0.0
C1509 C 0.16051 0.91116 0.62002 0.0
C1510 C 0.20608 0.97877 0.62364 0.0
H1511 H 0.26164 0.01331 0.64389 0.0
C1512 C 0.20024 0.99707 0.62191 0.0
C1513 C 0.22872 0.98475 0.63136 0.0
C1514 C 0.23654 0.96612 0.63287 0.0
C1515 C 0.2162 0.02112 0.62799 0.0
C1516 C 0.23838 0.02691 0.63624 0.0
C1517 C 0.24451 0.00874 0.63767 0.0
C1518 C 0.25526 0.05164 0.64367 0.0
C1519 C 0.20926 0.04016 0.6254 0.0
C1520 C 0.27919 0.06503 0.63988 0.0
C1521 C 0.29505 0.08842 0.6469 0.0
C1522 C 0.28725 0.09875 0.65789 0.0
C1523 C 0.26332 0.08511 0.66176 0.0
C1524 C 0.24754 0.06176 0.65476 0.0
H1525 H 0.19544 0.03439 0.6156 0.0
H1526 H 0.20128 0.04316 0.6353 0.0
H1527 H 0.22545 0.05773 0.62365 0.0
H1528 H 0.28552 0.05744 0.6314 0.0
H1529 H 0.31337 0.09839 0.64369 0.0
H1530 H 0.08303 0.23683 0.62186 0.0
H1531 H 0.04538 0.22519 0.63323 0.0
H1532 H 0.00448 0.2008 0.58981 0.0
H1533 H 0.04198 0.21159 0.57836 0.0
H1534 H 0.01235 0.24119 0.6291 0.0
H1535 H 0.9677 0.14188 0.61272 0.0
H1536 H -0.00029 0.16235 0.61152 0.0
H1537 H 0.97723 0.16026 0.5975 0.0
C1538 C 0.066 0.22872 0.61472 0.0
C1539 C 0.06552 0.22492 0.59919 0.0
C1540 C 0.04451 0.22224 0.62124 0.0
C1541 C 0.02206 0.21175 0.6124 0.0
C1542 C 0.02153 0.20841 0.59688 0.0
H1543 H 0.87369 0.16125 0.63367 0.0
H1544 H 0.91037 0.17274 0.6212 0.0
C1545 C 0.04304 0.21487 0.59033 0.0
C1546 C -0.0007 0.2046 0.61949 0.0
H1547 H 0.94395 0.15594 0.62425 0.0
C1548 C 0.99742 0.22255 0.62807 0.0
C1549 C 0.97982 0.18025 0.61812 0.0
C1550 C 0.9812 0.16 0.60958 0.0
C1551 C 0.97649 0.21687 0.63519 0.0
C1552 C 0.95708 0.19252 0.63389 0.0
C1553 C 0.95886 0.17459 0.62522 0.0
C1554 C 0.93484 0.18526 0.64154 0.0
C1555 C 0.97516 0.23706 0.64385 0.0
C1556 C 0.93635 0.18808 0.65714 0.0
C1557 C 0.91542 0.18155 0.66433 0.0
C1558 C 0.8925 0.17198 0.65605 0.0
C1559 C 0.89101 0.16872 0.64042 0.0
C1560 C 0.91196 0.17524 0.63325 0.0
H1561 H 0.98852 0.25521 0.64067 0.0
H1562 H 0.95659 0.23462 0.64207 0.0
H1563 H 0.97936 0.2368 0.6559 0.0
H1564 H 0.95376 0.19534 0.66377 0.0
H1565 H 0.91727 0.18422 0.67637 0.0
H1566 H 0.68647 0.77344 0.60838 0.0
H1567 H 0.70467 0.75051 0.61837 0.0
H1568 H 0.76678 0.81732 0.6389 0.0
H1569 H 0.74947 0.84037 0.62838 0.0
H1570 H 0.78023 0.7891 0.62372 0.0
H1571 H 0.71053 0.73461 0.66069 0.0
H1572 H 0.69848 0.73146 0.64169 0.0
H1573 H 0.71164 0.76037 0.65268 0.0
C1574 C 0.704 0.78322 0.61502 0.0
C1575 C 0.7164 0.80873 0.61767 0.0
C1576 C 0.71423 0.77008 0.62087 0.0
C1577 C 0.7369 0.78221 0.62957 0.0
C1578 C 0.74918 0.8076 0.63231 0.0
H1579 H 0.80409 0.71997 0.68429 0.0
H1580 H 0.78476 0.74207 0.6747 0.0
C1581 C 0.7391 0.82073 0.6264 0.0
C1582 C 0.74859 0.76875 0.63523 0.0
H1583 H 0.74135 0.72454 0.65733 0.0
C1584 C 0.77175 0.77502 0.63109 0.0
C1585 C 0.7376 0.7506 0.64498 0.0
C1586 C 0.7133 0.74398 0.6504 0.0
C1587 C 0.78424 0.76357 0.6364 0.0
C1588 C 0.77296 0.74493 0.6458 0.0
C1589 C 0.74985 0.73873 0.65002 0.0
C1590 C 0.78496 0.73179 0.65152 0.0
C1591 C 0.80961 0.77195 0.63216 0.0
C1592 C 0.79135 0.71861 0.64164 0.0
C1593 C 0.80259 0.70617 0.64707 0.0
C1594 C 0.80734 0.70641 0.66248 0.0
C1595 C 0.80074 0.71948 0.67235 0.0
C1596 C 0.78964 0.73206 0.66691 0.0
H1597 H 0.81809 0.79053 0.62851 0.0
H1598 H 0.82162 0.77193 0.6416 0.0
H1599 H 0.80863 0.75942 0.62275 0.0
H1600 H 0.7874 0.71774 0.62973 0.0
H1601 H 0.8072 0.69606 0.63916 0.0
H1602 H 0.0699 0.79541 0.6007 0.0
H1603 H 0.03332 0.77193 0.61313 0.0
H1604 H 0.03322 0.83772 0.62707 0.0
H1605 H 0.06899 0.86115 0.61405 0.0
H1606 H 0.0267 0.77492 0.6424 0.0
H1607 H 0.96375 0.79457 0.60869 0.0
H1608 H 0.99312 0.80139 0.60322 0.0
H1609 H 0.99085 0.82135 0.6171 0.0
C1610 C 0.06187 0.80485 0.60619 0.0
C1611 C 0.07237 0.83019 0.60631 0.0
C1612 C 0.04107 0.79142 0.6134 0.0
C1613 C 0.03031 0.80301 0.62085 0.0
C1614 C 0.04088 0.8283 0.62114 0.0
H1615 H 0.90634 0.74583 0.67411 0.0
H1616 H 0.94405 0.77297 0.66344 0.0
C1617 C 0.06157 0.84173 0.61385 0.0
C1618 C 0.00839 0.78866 0.62861 0.0
H1619 H 0.94902 0.77388 0.63 0.0
C1620 C 0.00972 0.77469 0.63967 0.0
C1621 C 0.98623 0.78839 0.62505 0.0
C1622 C 0.98325 0.80204 0.61277 0.0
C1623 C 0.98952 0.76047 0.64727 0.0
C1624 C 0.96743 0.76019 0.64367 0.0
C1625 C 0.96612 0.77437 0.63279 0.0
C1626 C 0.94504 0.744 0.65041 0.0
C1627 C 0.99184 0.7458 0.65908 0.0
C1628 C 0.93316 0.71886 0.64649 0.0
C1629 C 0.91165 0.7034 0.65244 0.0
C1630 C 0.90161 0.71277 0.6625 0.0
C1631 C 0.91365 0.73803 0.66647 0.0
C1632 C 0.93513 0.75354 0.66037 0.0
H1633 H 0.01119 0.75166 0.66261 0.0
H1634 H 0.98307 0.74737 0.669 0.0
H1635 H 0.98237 0.72635 0.65462 0.0
H1636 H 0.94042 0.71121 0.63869 0.0
H1637 H 0.90289 0.68406 0.64912 0.0
H1638 H 0.15301 0.21309 0.57995 0.0
H1639 H 0.18286 0.2043 0.59207 0.0
H1640 H 0.17183 0.22845 0.63488 0.0
H1641 H 0.14219 0.2376 0.62285 0.0
H1642 H 0.22655 0.23682 0.61053 0.0
H1643 H 0.16214 0.16055 0.64039 0.0
H1644 H 0.15206 0.17163 0.62517 0.0
H1645 H 0.16089 0.18799 0.64342 0.0
C1646 C 0.15703 0.21668 0.59194 0.0
C1647 C 0.14516 0.22602 0.60043 0.0
C1648 C 0.174 0.21154 0.59884 0.0
C1649 C 0.17931 0.21543 0.61438 0.0
C1650 C 0.16763 0.22486 0.6229 0.0
H1651 H 0.27515 0.19695 0.67772 0.0
H1652 H 0.2459 0.20593 0.66507 0.0
C1653 C 0.15068 0.23005 0.616 0.0
C1654 C 0.19746 0.21012 0.62164 0.0
H1655 H 0.20425 0.17499 0.64639 0.0
C1656 C 0.2217 0.22323 0.61832 0.0
C1657 C 0.19103 0.1924 0.6318 0.0
C1658 C 0.16509 0.17715 0.63535 0.0
C1659 C 0.23984 0.21946 0.62515 0.0
C1660 C 0.23342 0.20175 0.63534 0.0
C1661 C 0.20914 0.18857 0.6386 0.0
C1662 C 0.25162 0.19672 0.64287 0.0
C1663 C 0.2658 0.23491 0.62169 0.0
C1664 C 0.26444 0.18838 0.63459 0.0
C1665 C 0.28129 0.18331 0.64179 0.0
C1666 C 0.28546 0.18628 0.65743 0.0
C1667 C 0.27245 0.19449 0.66567 0.0
C1668 C 0.25568 0.19961 0.65846 0.0
H1669 H 0.26873 0.25169 0.61689 0.0
H1670 H 0.27882 0.24016 0.63183 0.0
H1671 H 0.27002 0.22437 0.61341 0.0
H1672 H 0.26122 0.1855 0.62255 0.0
H1673 H 0.29085 0.17686 0.63508 0.0
H1674 H 0.74656 0.89076 0.62892 0.0
H1675 H 0.76088 0.93221 0.6395 0.0
H1676 H 0.69382 0.92691 0.62141 0.0
H1677 H 0.67882 0.88486 0.61121 0.0
H1678 H 0.76749 0.96928 0.62229 0.0
H1679 H 0.70333 0.95737 0.66436 0.0
H1680 H 0.70683 0.93265 0.65664 0.0
H1681 H 0.68935 0.94274 0.64599 0.0
C1682 C 0.73449 0.89808 0.62754 0.0
C1683 C 0.71145 0.88443 0.61929 0.0
C1684 C 0.74282 0.92187 0.6335 0.0
C1685 C 0.72833 0.93252 0.63133 0.0
C1686 C 0.70511 0.91886 0.6234 0.0
H1687 H 0.7626 0.08201 0.65235 0.0
H1688 H 0.74261 0.03885 0.64323 0.0
C1689 C 0.69668 0.89495 0.61746 0.0
C1690 C 0.73851 0.95851 0.63641 0.0
H1691 H 0.73147 -0.00222 0.66003 0.0
C1692 C 0.75964 0.97552 0.63055 0.0
C1693 C 0.72807 0.96653 0.6471 0.0
C1694 C 0.70575 0.9489 0.65401 0.0
C1695 C 0.77073 0.00039 0.63515 0.0
C1696 C 0.76058 0.00838 0.64604 0.0
C1697 C 0.73918 0.99148 0.6517 0.0
C1698 C 0.77235 0.03422 0.65191 0.0
C1699 C 0.79312 0.01796 0.62826 0.0
C1700 C 0.79552 0.04569 0.65996 0.0
C1701 C 0.807 0.07029 0.66517 0.0
C1702 C 0.79545 0.08381 0.66245 0.0
C1703 C 0.77204 0.07213 0.65457 0.0
C1704 C 0.76055 0.04749 0.64939 0.0
H1705 H 0.79502 0.00972 0.61763 0.0
H1706 H 0.79259 0.03467 0.62611 0.0
H1707 H 0.80957 0.02334 0.63606 0.0
H1708 H 0.80473 0.03559 0.66218 0.0
H1709 H 0.82496 0.07869 0.67127 0.0
H1710 H 0.51835 0.43978 0.73261 0.0
H1711 H 0.48823 0.3985 0.72184 0.0
H1712 H 0.48464 0.37295 0.76519 0.0
H1713 H 0.51498 0.41404 0.77602 0.0
H1714 H 0.49212 0.35577 0.723 0.0
H1715 H 0.4125 0.34776 0.74983 0.0
H1716 H 0.4396 0.37666 0.74866 0.0
H1717 H 0.43956 0.35721 0.76224 0.0
C1718 C 0.51125 0.42536 0.73984 0.0
C1719 C 0.519 0.43023 0.75519 0.0
C1720 C 0.49396 0.40183 0.73369 0.0
C1721 C 0.48399 0.3828 0.74277 0.0
C1722 C 0.49175 0.38752 0.75806 0.0
H1723 H 0.37863 0.22798 0.72436 0.0
H1724 H 0.408 0.26876 0.73633 0.0
C1725 C 0.50907 0.41101 0.76422 0.0
C1726 C 0.46605 0.35784 0.73615 0.0
H1727 H 0.40707 0.31229 0.73616 0.0
C1728 C 0.4735 0.34626 0.72583 0.0
C1729 C 0.44185 0.3455 0.73998 0.0
C1730 C 0.43274 0.35742 0.75069 0.0
C1731 C 0.45743 0.32251 0.71929 0.0
C1732 C 0.43313 0.31025 0.72296 0.0
C1733 C 0.42572 0.32176 0.73339 0.0
C1734 C 0.41498 0.2857 0.71579 0.0
C1735 C 0.46675 0.31061 0.7087 0.0
C1736 C 0.40884 0.28186 0.70033 0.0
C1737 C 0.39218 0.25867 0.69347 0.0
C1738 C 0.38114 0.23884 0.70195 0.0
C1739 C 0.38686 0.24284 0.7175 0.0
C1740 C 0.40362 0.26611 0.72436 0.0
H1741 H 0.48696 0.3195 0.71032 0.0
H1742 H 0.45883 0.29102 0.71014 0.0
H1743 H 0.46143 0.31219 0.69709 0.0
H1744 H 0.41697 0.29685 0.69356 0.0
H1745 H 0.38806 0.25631 0.68148 0.0
H1746 H 0.62185 0.11675 0.77696 0.0
H1747 H 0.6584 0.12615 0.76469 0.0
H1748 H 0.61472 0.09832 0.72222 0.0
H1749 H 0.57806 0.08843 0.73441 0.0
H1750 H 0.64829 0.08174 0.72755 0.0
H1751 H 0.69262 0.18219 0.73819 0.0
H1752 H 0.6834 0.16603 0.75437 0.0
H1753 H 0.66069 0.16208 0.73989 0.0
C1754 C 0.62001 0.11247 0.76502 0.0
C1755 C 0.59706 0.10195 0.75665 0.0
C1756 C 0.64093 0.11808 0.75801 0.0
C1757 C 0.63931 0.11327 0.74252 0.0
C1758 C 0.6164 0.10236 0.73417 0.0
H1759 H 0.75622 0.16482 0.68483 0.0
H1760 H 0.7198 0.15585 0.69709 0.0
C1761 C 0.5955 0.09685 0.74115 0.0
C1762 C 0.66143 0.11928 0.73499 0.0
H1763 H 0.71597 0.16662 0.7277 0.0
C1764 C 0.66309 0.10029 0.72757 0.0
C1765 C 0.68056 0.14353 0.73487 0.0
C1766 C 0.67926 0.1647 0.74214 0.0
C1767 C 0.68356 0.10486 0.72023 0.0
C1768 C 0.70297 0.12905 0.72045 0.0
C1769 C 0.70114 0.14808 0.72765 0.0
C1770 C 0.72533 0.1349 0.71324 0.0
C1771 C 0.68411 0.0838 0.71213 0.0
C1772 C 0.74073 0.12644 0.71843 0.0
C1773 C 0.76155 0.13154 0.71148 0.0
C1774 C 0.76746 0.14527 0.69919 0.0
C1775 C 0.7522 0.15411 0.6942 0.0
C1776 C 0.73138 0.14903 0.7012 0.0
H1777 H 0.66565 0.0674 0.71001 0.0
H1778 H 0.69177 0.08867 0.70134 0.0
H1779 H 0.69592 0.07907 0.71902 0.0
H1780 H 0.73664 0.11587 0.72787 0.0
H1781 H 0.77295 0.12459 0.71573 0.0
H1782 H 0.90588 0.47533 0.72811 0.0
H1783 H 0.89132 0.50011 0.71674 0.0
H1784 H 0.95401 0.56507 0.7387 0.0
H1785 H 0.96938 0.5404 0.74962 0.0
H1786 H 0.87897 0.53029 0.73128 0.0
H1787 H 0.95301 0.58201 0.69616 0.0
H1788 H 0.94941 0.55538 0.70428 0.0
H1789 H 0.96352 0.58427 0.71538 0.0
C1790 C 0.91693 0.49492 0.73025 0.0
C1791 C 0.93895 0.5059 0.73966 0.0
C1792 C 0.90845 0.50904 0.72384 0.0
C1793 C 0.92174 0.53442 0.72671 0.0
C1794 C 0.94373 0.54552 0.73609 0.0
H1795 H 0.89259 0.64891 0.70744 0.0
H1796 H 0.90899 0.62406 0.71648 0.0
C1797 C 0.95233 0.53139 0.74246 0.0
C1798 C 0.91178 0.54905 0.72052 0.0
H1799 H 0.92403 0.59492 0.69872 0.0
C1800 C 0.88874 0.54431 0.72408 0.0
C1801 C 0.9246 0.56732 0.71113 0.0
C1802 C 0.9489 0.57244 0.70638 0.0
C1803 C 0.87833 0.55764 0.71871 0.0
C1804 C 0.89123 0.576 0.70943 0.0
C1805 C 0.91424 0.58076 0.70584 0.0
C1806 C 0.88134 0.59086 0.70364 0.0
C1807 C 0.85386 0.55237 0.72323 0.0
C1808 C 0.86048 0.58037 0.69331 0.0
C1809 C 0.85103 0.59452 0.68807 0.0
C1810 C 0.86232 0.61938 0.69311 0.0
C1811 C 0.88337 0.62981 0.70336 0.0
C1812 C 0.89284 0.61568 0.70853 0.0
H1813 H 0.84854 0.54101 0.73267 0.0
H1814 H 0.85405 0.56954 0.72645 0.0
H1815 H 0.83973 0.54246 0.71365 0.0
H1816 H 0.85155 0.56126 0.6893 0.0
H1817 H 0.83484 0.58595 0.68015 0.0
H1818 H 0.4419 0.9514 0.2301 0.0
H1819 H 0.44975 0.96867 0.20614 0.0
H1820 H 0.47109 0.91728 0.19102 0.0
H1821 H 0.46296 0.89973 0.21474 0.0
H1822 H 0.49516 0.98914 0.19287 0.0
H1823 H 0.41993 0.91003 0.15739 0.0
H1824 H 0.42045 0.91389 0.17737 0.0
H1825 H 0.43861 0.90278 0.16929 0.0
C1826 C 0.448 0.94363 0.22159 0.0
C1827 C 0.45181 0.9242 0.22432 0.0
C1828 C 0.45259 0.95358 0.20796 0.0
C1829 C 0.46074 0.94407 0.19675 0.0
C1830 C 0.4645 0.92467 0.19944 0.0
H1831 H 0.50475 0.9718 0.10862 0.0
H1832 H 0.49364 0.95664 0.13278 0.0
C1833 C 0.46006 0.91482 0.21306 0.0
C1834 C 0.46605 0.95477 0.18238 0.0
H1835 H 0.45027 0.94099 0.14485 0.0
C1836 C 0.48522 0.97875 0.18236 0.0
C1837 C 0.45307 0.94111 0.16872 0.0
C1838 C 0.43172 0.91559 0.16812 0.0
C1839 C 0.49233 0.98916 0.16898 0.0
C1840 C 0.47958 0.97536 0.15528 0.0
C1841 C 0.46009 0.95153 0.15534 0.0
C1842 C 0.48653 0.98497 0.1407 0.0
C1843 C 0.51401 0.0145 0.16962 0.0
C1844 C 0.48605 0.00584 0.13705 0.0
C1845 C 0.49243 0.01458 0.12323 0.0
C1846 C 0.49914 0.00244 0.11271 0.0
C1847 C 0.49942 0.98144 0.11638 0.0
C1848 C 0.49316 0.9728 0.13022 0.0
H1849 H 0.52541 0.02011 0.1805 0.0
H1850 H 0.52561 0.01584 0.16063 0.0
H1851 H 0.50749 0.02753 0.16808 0.0
H1852 H 0.48045 0.01522 0.14482 0.0
H1853 H 0.49163 0.03056 0.12066 0.0
H1854 H 0.04924 0.49129 0.23115 0.0
H1855 H 0.03625 0.48588 0.2045 0.0
H1856 H 0.98246 0.50588 0.21375 0.0
H1857 H 0.99531 0.51129 0.24046 0.0
H1858 H 0.99025 0.45623 0.18782 0.0
H1859 H 0.02384 0.55465 0.18522 0.0
H1860 H 0.03215 0.54316 0.20096 0.0
H1861 H 0.00275 0.54081 0.19873 0.0
C1862 C 0.03436 0.49413 0.22753 0.0
C1863 C 0.02336 0.50183 0.23788 0.0
C1864 C 0.02706 0.49116 0.21231 0.0
C1865 C 0.00872 0.49591 0.20718 0.0
C1866 C 0.99702 0.50264 0.2175 0.0
H1867 H 0.95038 0.49849 0.11822 0.0
H1868 H 0.95824 0.49955 0.14518 0.0
C1869 C 0.00434 0.50567 0.23272 0.0
C1870 C 0.00232 0.49443 0.19101 0.0
H1871 H 0.00287 0.52857 0.1632 0.0
C1872 C 0.993 0.47202 0.18241 0.0
C1873 C 0.00599 0.51511 0.18404 0.0
C1874 C 0.01692 0.53986 0.19266 0.0
C1875 C 0.98699 0.46967 0.16699 0.0
C1876 C 0.99081 0.49038 0.16001 0.0
C1877 C -6e-05 0.51274 0.16863 0.0
C1878 C 0.98588 0.48937 0.14372 0.0
C1879 C 0.97633 0.44501 0.15831 0.0
C1880 C -0.00092 0.48364 0.13404 0.0
C1881 C 0.9946 0.48295 0.11867 0.0
C1882 C 0.9769 0.4881 0.11271 0.0
C1883 C 0.9639 0.49413 0.12247 0.0
C1884 C 0.96843 0.49485 0.13785 0.0
H1885 H 0.96878 0.43014 0.16567 0.0
H1886 H 0.96167 0.44194 0.14963 0.0
H1887 H 0.99087 0.444 0.1527 0.0
H1888 H 0.01294 0.47979 0.13839 0.0
H1889 H 0.00476 0.47805 0.11145 0.0
H1890 H 0.46104 0.54704 0.22078 0.0
H1891 H 0.46936 0.53732 0.19612 0.0
H1892 H 0.45117 0.46583 0.20736 0.0
H1893 H 0.44272 0.47548 0.2322 0.0
H1894 H 0.50518 0.52485 0.19116 0.0
H1895 H 0.41302 0.45253 0.16595 0.0
H1896 H 0.41742 0.47279 0.18215 0.0
H1897 H 0.42331 0.44823 0.18389 0.0
C1898 C 0.45867 0.52918 0.21798 0.0
C1899 C 0.45142 0.51207 0.22844 0.0
C1900 C 0.46336 0.52365 0.20388 0.0
C1901 C 0.46081 0.50085 0.19991 0.0
C1902 C 0.45291 0.4834 0.21015 0.0
H1903 H 0.49502 0.45348 0.11619 0.0
H1904 H 0.48402 0.45481 0.1416 0.0
C1905 C 0.44811 0.48893 0.22431 0.0
C1906 C 0.46796 0.49625 0.18535 0.0
H1907 H 0.44566 0.46312 0.15132 0.0
C1908 C 0.49219 0.51127 0.18247 0.0
C1909 C 0.45101 0.47838 0.1741 0.0
C1910 C 0.42467 0.46211 0.17655 0.0
C1911 C 0.49984 0.50927 0.16854 0.0
C1912 C 0.48271 0.49203 0.15712 0.0
C1913 C 0.45868 0.47638 0.16012 0.0
C1914 C 0.48918 0.49101 0.14178 0.0
C1915 C 0.52616 0.52575 0.1661 0.0
C1916 C 0.49545 0.51082 0.13348 0.0
C1917 C 0.50176 0.51015 0.11904 0.0
C1918 C 0.50188 0.4896 0.11261 0.0
C1919 C 0.4954 0.46968 0.12092 0.0
C1920 C 0.48897 0.47033 0.13538 0.0
H1921 H 0.53811 0.5332 0.1768 0.0
H1922 H 0.53288 0.51595 0.15905 0.0
H1923 H 0.52776 0.54127 0.16031 0.0
H1924 H 0.49543 0.52683 0.13819 0.0
H1925 H 0.50684 0.52584 0.11297 0.0
H1926 H 0.9961 0.52337 0.78499 0.0
H1927 H 0.00902 0.53126 0.81183 0.0
H1928 H 0.95842 0.45626 0.8171 0.0
H1929 H 0.9454 0.44828 0.79042 0.0
H1930 H 0.98071 0.52494 0.83556 0.0
H1931 H 0.02276 0.46691 0.83747 0.0
H1932 H 0.01555 0.47618 0.82031 0.0
H1933 H 0.99207 0.45126 0.82859 0.0
C1934 C 0.98776 0.50859 0.7919 0.0
C1935 C 0.96996 0.48514 0.78558 0.0
C1936 C 0.99519 0.5131 0.80719 0.0
C1937 C 0.985 0.49422 0.81637 0.0
C1938 C 0.96697 0.47092 0.81013 0.0
H1939 H 0.98897 0.47364 0.90905 0.0
H1940 H 0.9805 0.47083 0.88204 0.0
C1941 C 0.95957 0.46639 0.79489 0.0
C1942 C 0.99261 0.49887 0.83257 0.0
H1943 H 0.01519 0.47999 0.86079 0.0
C1944 C 0.98851 0.51535 0.84108 0.0
C1945 C 0.00282 0.48633 0.8397 0.0
C1946 C 0.0088 0.46936 0.83104 0.0
C1947 C 0.99351 0.51895 0.85665 0.0
C1948 C 0.00308 0.5059 0.86379 0.0
C1949 C 0.00769 0.48984 0.85525 0.0
C1950 C 0.00787 0.50812 0.88016 0.0
C1951 C 0.98775 0.53601 0.86539 0.0
C1952 C 0.02613 0.53001 0.88799 0.0
C1953 C 0.03098 0.5317 0.90342 0.0
C1954 C 0.01763 0.51149 0.91127 0.0
C1955 C -0.00068 0.48961 0.90336 0.0
C1956 C 0.99456 0.48793 0.88793 0.0
H1957 H 0.97605 0.54093 0.85851 0.0
H1958 H 0.97841 0.52774 0.87522 0.0
H1959 H 0.005 0.55298 0.86947 0.0
H1960 H 0.03681 0.54569 0.88213 0.0
H1961 H 0.04508 0.54884 0.90923 0.0
H1962 H 0.55834 0.53224 0.79177 0.0
H1963 H 0.55252 0.54523 0.8166 0.0
H1964 H 0.53535 0.47575 0.83104 0.0
H1965 H 0.5412 0.4627 0.80645 0.0
H1966 H 0.50144 0.50609 0.83293 0.0
H1967 H 0.59522 0.54233 0.86099 0.0
H1968 H 0.58972 0.54477 0.84148 0.0
H1969 H 0.58246 0.51589 0.84754 0.0
C1970 C 0.55355 0.51986 0.8003 0.0
C1971 C 0.55004 0.4964 0.79716 0.0
C1972 C 0.55016 0.52726 0.81441 0.0
C1973 C 0.54351 0.51139 0.82555 0.0
C1974 C 0.54045 0.48819 0.82253 0.0
H1975 H 0.52037 0.49969 0.91642 0.0
H1976 H 0.53231 0.50053 0.89125 0.0
C1977 C 0.54367 0.48075 0.80847 0.0
C1978 C 0.53892 0.51839 0.84031 0.0
H1979 H 0.56453 0.53707 0.8763 0.0
C1980 C 0.51526 0.51328 0.84242 0.0
C1981 C 0.55702 0.52748 0.85255 0.0
C1982 C 0.58263 0.53308 0.85066 0.0
C1983 C 0.50888 0.51608 0.85668 0.0
C1984 C 0.52687 0.52468 0.86907 0.0
C1985 C 0.55079 0.53058 0.8668 0.0
C1986 C 0.52078 0.52561 0.88457 0.0
C1987 C 0.48266 0.50851 0.85843 0.0
C1988 C 0.51072 0.53979 0.88928 0.0
C1989 C 0.50371 0.53921 0.90368 0.0
C1990 C 0.50703 0.52475 0.91367 0.0
C1991 C 0.51783 0.51121 0.90905 0.0
C1992 C 0.52461 0.51163 0.89465 0.0
H1993 H 0.47024 0.49727 0.84838 0.0
H1994 H 0.47647 0.49802 0.86819 0.0
H1995 H 0.48102 0.52497 0.86024 0.0
H1996 H 0.50813 0.55115 0.88181 0.0
H1997 H 0.49572 0.55007 0.90701 0.0
H1998 H 0.5825 0.0908 0.80872 0.0
H1999 H 0.57436 0.07297 0.8324 0.0
H2000 H 0.49801 0.02907 0.81652 0.0
H2001 H 0.50611 0.0459 0.79264 0.0
H2002 H 0.54592 0.07522 0.85265 0.0
H2003 H 0.51165 0.97891 0.83264 0.0
H2004 H 0.52715 0.00328 0.82118 0.0
H2005 H 0.49526 0.99117 0.82311 0.0
C2006 C 0.56405 0.077 0.81015 0.0
C2007 C 0.54497 0.0698 0.79874 0.0
C2008 C 0.5594 0.06695 0.82375 0.0
C2009 C 0.53563 0.04942 0.82619 0.0
C2010 C 0.51658 0.04217 0.81482 0.0
H2011 H 0.47767 0.01292 0.91109 0.0
H2012 H 0.4895 0.02903 0.88721 0.0
C2013 C 0.52121 0.0521 0.80122 0.0
C2014 C 0.53049 0.03955 0.84085 0.0
H2015 H 0.50373 0.98667 0.85728 0.0
C2016 C 0.53687 0.05586 0.85367 0.0
C2017 C 0.519 0.01432 0.84224 0.0
C2018 C 0.5131 0.99593 0.82908 0.0
C2019 C 0.53148 0.04762 0.86776 0.0
C2020 C 0.51885 0.02232 0.86903 0.0
C2021 C 0.5131 0.00604 0.85628 0.0
C2022 C 0.51146 0.01236 0.88348 0.0
C2023 C 0.53966 0.06613 0.88117 0.0
C2024 C 0.51918 0.99697 0.88912 0.0
C2025 C 0.51225 0.98755 0.9027 0.0
C2026 C 0.49742 0.99331 0.91093 0.0
C2027 C 0.48944 0.00847 0.90515 0.0
C2028 C 0.49625 0.01776 0.89152 0.0
H2029 H 0.55502 0.08403 0.87903 0.0
H2030 H 0.52428 0.06878 0.88381 0.0
H2031 H 0.54545 0.05998 0.89105 0.0
H2032 H 0.53084 0.99248 0.88308 0.0
H2033 H 0.5189 0.97612 0.9069 0.0
H2034 H 0.0837 0.23599 0.54721 0.0
H2035 H 0.09323 0.25325 0.52337 0.0
H2036 H 0.16707 0.30339 0.54224 0.0
H2037 H 0.15772 0.28623 0.56604 0.0
H2038 H 0.1107 0.30056 0.5157 0.0
H2039 H 0.17664 0.26958 0.50574 0.0
H2040 H 0.15597 0.25848 0.51987 0.0
H2041 H 0.18339 0.28767 0.5232 0.0
C2042 C 0.10189 0.25085 0.54631 0.0
C2043 C 0.12003 0.25956 0.55846 0.0
C2044 C 0.10734 0.26063 0.53268 0.0
C2045 C 0.131 0.27925 0.53094 0.0
C2046 C 0.14887 0.28859 0.54321 0.0
H2047 H 0.20233 0.35857 0.45726 0.0
H2048 H 0.19163 0.344 0.48166 0.0
C2049 C 0.14348 0.27879 0.55681 0.0
C2050 C 0.13709 0.28876 0.51628 0.0
H2051 H 0.17444 0.29599 0.48911 0.0
C2052 C 0.12456 0.29948 0.50985 0.0
C2053 C 0.15517 0.2873 0.50865 0.0
C2054 C 0.16843 0.27494 0.51463 0.0
C2055 C 0.12994 0.3092 0.49613 0.0
C2056 C 0.1481 0.30784 0.48856 0.0
C2057 C 0.16061 0.29711 0.49498 0.0
C2058 C 0.15423 0.31716 0.47386 0.0
C2059 C 0.1165 0.32126 0.48998 0.0
C2060 C 0.1368 0.30676 0.46137 0.0
C2061 C 0.14284 0.31507 0.44743 0.0
C2062 C 0.16647 0.3339 0.44569 0.0
C2063 C 0.1839 0.34426 0.45825 0.0
C2064 C 0.17786 0.33588 0.47218 0.0
H2065 H 0.10773 0.32618 0.49871 0.0
H2066 H 0.12902 0.33794 0.48493 0.0
H2067 H 0.102 0.30854 0.48117 0.0
H2068 H 0.11858 0.29203 0.46237 0.0
H2069 H 0.12893 0.30683 0.43803 0.0
H2070 H 0.65271 0.83698 0.57503 0.0
H2071 H 0.64128 0.8329 0.54822 0.0
H2072 H 0.69524 0.81286 0.53957 0.0
H2073 H 0.70692 0.81711 0.56629 0.0
H2074 H 0.67352 0.8602 0.52793 0.0
H2075 H 0.63429 0.76123 0.51288 0.0
H2076 H 0.63819 0.77428 0.53181 0.0
H2077 H 0.66379 0.77593 0.52342 0.0
C2078 C 0.66197 0.83148 0.56741 0.0
C2079 C 0.68067 0.8273 0.57277 0.0
C2080 C 0.65538 0.8291 0.55213 0.0
C2081 C 0.66723 0.82232 0.54195 0.0
C2082 C 0.6855 0.81759 0.54726 0.0
H2083 H 0.67084 0.81384 0.44673 0.0
H2084 H 0.67744 0.8141 0.47368 0.0
C2085 C 0.69213 0.81999 0.56254 0.0
C2086 C 0.66186 0.82205 0.52579 0.0
H2087 H 0.64293 0.7859 0.49282 0.0
C2088 C 0.66661 0.84392 0.52025 0.0
C2089 C 0.65301 0.80081 0.51584 0.0
C2090 C 0.6468 0.77666 0.52127 0.0
C2091 C 0.66329 0.84526 0.50494 0.0
C2092 C 0.65458 0.82405 0.49498 0.0
C2093 C 0.64964 0.80213 0.50052 0.0
C2094 C 0.65073 0.8243 0.47872 0.0
C2095 C 0.6698 0.86951 0.49953 0.0
C2096 C 0.63344 0.82985 0.47267 0.0
C2097 C 0.62977 0.82993 0.4573 0.0
C2098 C 0.64324 0.8243 0.44771 0.0
C2099 C 0.66047 0.81864 0.45383 0.0
C2100 C 0.66412 0.81858 0.4692 0.0
H2101 H 0.68171 0.88487 0.50812 0.0
H2102 H 0.67923 0.87216 0.4893 0.0
H2103 H 0.65286 0.87011 0.49683 0.0
H2104 H 0.62267 0.83397 0.47984 0.0
H2105 H 0.61647 0.8345 0.45293 0.0
H2106 H 0.15878 0.85128 0.56768 0.0
H2107 H 0.1644 0.84089 0.54236 0.0
H2108 H 0.08889 0.816 0.52831 0.0
H2109 H 0.0833 0.82711 0.55353 0.0
H2110 H 0.14131 0.79727 0.52338 0.0
H2111 H 0.12577 0.86812 0.50056 0.0
H2112 H 0.13079 0.86706 0.52028 0.0
H2113 H 0.10153 0.84656 0.51019 0.0
C2114 C 0.14336 0.84361 0.5592 0.0
C2115 C 0.12067 0.84032 0.56257 0.0
C2116 C 0.14657 0.83754 0.54477 0.0
C2117 C 0.12718 0.8281 0.53342 0.0
C2118 C 0.1042 0.82368 0.53687 0.0
H2119 H 0.1253 0.8014 0.4376 0.0
H2120 H 0.11353 0.80248 0.46273 0.0
C2121 C 0.10097 0.8298 0.55132 0.0
C2122 C 0.13144 0.82387 0.51789 0.0
H2123 H 0.13268 0.84344 0.48347 0.0
C2124 C 0.13935 0.80728 0.51462 0.0
C2125 C 0.12892 0.83703 0.50652 0.0
C2126 C 0.1215 0.85585 0.50952 0.0
C2127 C 0.14477 0.80346 0.50025 0.0
C2128 C 0.14258 0.81687 0.48895 0.0
C2129 C 0.13429 0.83316 0.49216 0.0
C2130 C 0.14951 0.81495 0.47381 0.0
C2131 C 0.15263 0.78499 0.49726 0.0
C2132 C 0.17368 0.82174 0.47172 0.0
C2133 C 0.18052 0.82131 0.45738 0.0
C2134 C 0.16333 0.81423 0.44483 0.0
C2135 C 0.13907 0.80726 0.447 0.0
C2136 C 0.13226 0.80771 0.46135 0.0
H2137 H 0.14704 0.77177 0.50571 0.0
H2138 H 0.14484 0.77487 0.48605 0.0
H2139 H 0.17281 0.79451 0.49768 0.0
H2140 H 0.1874 0.82794 0.48118 0.0
H2141 H 0.19942 0.82717 0.4561 0.0
H2142 H 0.6187 0.84074 0.12713 0.0
H2143 H 0.63222 0.84783 0.15372 0.0
H2144 H 0.68133 0.82113 0.14575 0.0
H2145 H 0.66846 0.81469 0.11899 0.0
H2146 H 0.62733 0.81144 0.1713 0.0
H2147 H 0.72428 0.88431 0.17322 0.0
H2148 H 0.70228 0.877 0.15732 0.0
H2149 H 0.71537 0.85808 0.1603 0.0
C2150 C 0.63283 0.83694 0.13097 0.0
C2151 C 0.64261 0.82726 0.12094 0.0
C2152 C 0.64039 0.84083 0.14618 0.0
C2153 C 0.65792 0.83523 0.15167 0.0
C2154 C 0.66806 0.82595 0.1417 0.0
H2155 H 0.71394 0.83311 0.2413 0.0
H2156 H 0.70516 0.82993 0.21427 0.0
C2157 C 0.66051 0.82206 0.12645 0.0
C2158 C 0.66426 0.83753 0.16792 0.0
H2159 H 0.71118 0.86668 0.19566 0.0
C2160 C 0.64564 0.82359 0.17664 0.0
C2161 C 0.68819 0.85328 0.1748 0.0
C2162 C 0.70868 0.8692 0.16597 0.0
C2163 C 0.65033 0.82482 0.1921 0.0
C2164 C 0.6742 0.84074 0.19902 0.0
C2165 C 0.6929 0.85454 0.19029 0.0
C2166 C 0.68002 0.8434 0.21533 0.0
C2167 C 0.6298 0.80878 0.20088 0.0
C2168 C 0.66908 0.8524 0.22482 0.0
C2169 C 0.6741 0.85432 0.24024 0.0
C2170 C 0.69028 0.84739 0.24644 0.0
C2171 C 0.70157 0.8388 0.23687 0.0
C2172 C 0.69652 0.83688 0.22144 0.0
H2173 H 0.61445 0.79344 0.19362 0.0
H2174 H 0.63627 0.80127 0.20969 0.0
H2175 H 0.62272 0.8197 0.20634 0.0
H2176 H 0.65666 0.85798 0.22029 0.0
H2177 H 0.66547 0.86143 0.24731 0.0
H2178 H 0.22037 0.85773 0.12499 0.0
H2179 H 0.21257 0.86716 0.15007 0.0
H2180 H 0.19683 0.79627 0.16123 0.0
H2181 H 0.20421 0.7867 0.13624 0.0
H2182 H 0.16154 0.80621 0.16799 0.0
H2183 H 0.25282 0.88326 0.19022 0.0
H2184 H 0.24045 0.88721 0.1729 0.0
H2185 H 0.24812 0.86368 0.17362 0.0
C2186 C 0.21559 0.84436 0.13291 0.0
C2187 C 0.21272 0.82144 0.12868 0.0
C2188 C 0.21121 0.84977 0.14722 0.0
C2189 C 0.20427 0.83246 0.15755 0.0
C2190 C 0.20208 0.80985 0.15343 0.0
H2191 H 0.19748 0.84348 0.25203 0.0
H2192 H 0.20802 0.84129 0.22672 0.0
C2193 C 0.20625 0.8044 0.13915 0.0
C2194 C 0.19788 0.83707 0.1724 0.0
H2195 H 0.22074 0.87331 0.20538 0.0
C2196 C 0.17447 0.82093 0.17616 0.0
C2197 C 0.21483 0.85618 0.18305 0.0
C2198 C 0.24054 0.87348 0.17985 0.0
C2199 C 0.16762 0.8231 0.19034 0.0
C2200 C 0.18447 0.84235 0.20096 0.0
C2201 C 0.20781 0.85869 0.19716 0.0
C2202 C 0.1786 0.84497 0.21631 0.0
C2203 C 0.14273 0.8042 0.19397 0.0
C2204 C 0.1588 0.84818 0.21889 0.0
C2205 C 0.15245 0.84902 0.23334 0.0
C2206 C 0.16597 0.84694 0.24551 0.0
C2207 C 0.18632 0.84458 0.2429 0.0
C2208 C 0.19255 0.84359 0.22845 0.0
H2209 H 0.13458 0.78752 0.18601 0.0
H2210 H 0.14364 0.79903 0.2054 0.0
H2211 H 0.13034 0.81177 0.19335 0.0
H2212 H 0.14806 0.84974 0.20971 0.0
H2213 H 0.13662 0.85075 0.23492 0.0
H2214 H 0.22278 0.37795 0.12647 0.0
H2215 H 0.21362 0.35945 0.14996 0.0
H2216 H 0.19163 0.41022 0.16535 0.0
H2217 H 0.20069 0.42872 0.14196 0.0
H2218 H 0.23172 0.37932 0.17939 0.0
H2219 H 0.13235 0.34472 0.17035 0.0
H2220 H 0.15194 0.35547 0.15565 0.0
H2221 H 0.15052 0.37673 0.16894 0.0
C2222 C 0.21618 0.38528 0.13491 0.0
C2223 C 0.21222 0.40464 0.13229 0.0
C2224 C 0.21086 0.37463 0.1483 0.0
C2225 C 0.20144 0.38312 0.15927 0.0
C2226 C 0.19824 0.40294 0.15687 0.0
H2227 H 0.15957 0.35395 0.24766 0.0
H2228 H 0.17007 0.36951 0.22352 0.0
C2229 C 0.20347 0.41352 0.14351 0.0
C2230 C 0.19504 0.37141 0.17328 0.0
H2231 H 0.14815 0.34384 0.19476 0.0
C2232 C 0.21341 0.37135 0.1827 0.0
C2233 C 0.1711 0.36093 0.17754 0.0
C2234 C 0.15028 0.35921 0.16753 0.0
C2235 C 0.20867 0.36185 0.19653 0.0
C2236 C 0.18487 0.35193 0.20092 0.0
C2237 C 0.16641 0.35158 0.19138 0.0
C2238 C 0.17884 0.34242 0.21557 0.0
C2239 C 0.2293 0.36321 0.20653 0.0
C2240 C 0.18005 0.32185 0.21905 0.0
C2241 C 0.1741 0.31292 0.23287 0.0
C2242 C 0.16683 0.32442 0.24346 0.0
C2243 C 0.16545 0.3449 0.23985 0.0
C2244 C 0.17131 0.35373 0.22603 0.0
H2245 H 0.24739 0.37579 0.20289 0.0
H2246 H 0.22889 0.36929 0.21821 0.0
H2247 H 0.22725 0.34486 0.20632 0.0
H2248 H 0.18547 0.31263 0.21104 0.0
H2249 H 0.17548 0.29721 0.23533 0.0
H2250 H 0.77514 0.61739 0.89601 0.0
H2251 H 0.78333 0.6337 0.87182 0.0
H2252 H 0.80496 0.58188 0.85818 0.0
H2253 H 0.79618 0.56506 0.88208 0.0
H2254 H 0.82779 0.6544 0.85948 0.0
H2255 H 0.75667 0.5736 0.82319 0.0
H2256 H 0.75622 0.57694 0.8431 0.0
H2257 H 0.7757 0.56718 0.83537 0.0
C2258 C 0.78126 0.60922 0.88776 0.0
C2259 C 0.78498 0.58991 0.89097 0.0
C2260 C 0.78607 0.61865 0.87399 0.0
C2261 C 0.79446 0.6088 0.86313 0.0
C2262 C 0.79809 0.58948 0.86628 0.0
H2263 H 0.84531 0.64004 0.77649 0.0
H2264 H 0.83365 0.62437 0.80049 0.0
C2265 C 0.79332 0.58007 0.88002 0.0
C2266 C 0.80043 0.61933 0.84874 0.0
H2267 H 0.7875 0.60501 0.81107 0.0
C2268 C 0.81884 0.6437 0.84889 0.0
C2269 C 0.78874 0.6053 0.83494 0.0
C2270 C 0.76807 0.57937 0.83409 0.0
C2271 C 0.8264 0.65421 0.83559 0.0
C2272 C 0.81496 0.64006 0.8218 0.0
C2273 C 0.79632 0.61579 0.82166 0.0
C2274 C 0.82229 0.64995 0.80736 0.0
C2275 C 0.84707 0.68014 0.83642 0.0
C2276 C 0.8196 0.66942 0.80322 0.0
C2277 C 0.82616 0.67836 0.78948 0.0
C2278 C 0.83541 0.66791 0.77956 0.0
C2279 C 0.83802 0.64835 0.78377 0.0
C2280 C 0.83146 0.63944 0.79751 0.0
H2281 H 0.85763 0.6865 0.8476 0.0
H2282 H 0.8597 0.68213 0.82797 0.0
H2283 H 0.83953 0.69215 0.83413 0.0
H2284 H 0.81208 0.67747 0.81052 0.0
H2285 H 0.82348 0.69313 0.78648 0.0
H2286 H 0.3285 0.1291 0.90575 0.0
H2287 H 0.31601 0.11989 0.8788 0.0
H2288 H 0.36588 0.1946 0.87251 0.0
H2289 H 0.37864 0.20385 0.8992 0.0
H2290 H 0.29733 0.14496 0.85941 0.0
H2291 H 0.38394 0.15221 0.84452 0.0
H2292 H 0.37434 0.14704 0.86298 0.0
H2293 H 0.38756 0.177 0.85703 0.0
C2294 C 0.33676 0.14351 0.89859 0.0
C2295 C 0.35448 0.1672 0.90457 0.0
C2296 C 0.32958 0.13825 0.88326 0.0
C2297 C 0.34026 0.15654 0.87374 0.0
C2298 C 0.35763 0.18022 0.8797 0.0
H2299 H 0.33927 0.18393 0.78303 0.0
H2300 H 0.34633 0.18346 0.80984 0.0
C2301 C 0.36471 0.18551 0.89497 0.0
C2302 C 0.33351 0.1512 0.8575 0.0
H2303 H 0.35763 0.15256 0.82473 0.0
C2304 C 0.3103 0.14623 0.85177 0.0
C2305 C 0.35057 0.15291 0.84767 0.0
C2306 C 0.37545 0.15737 0.85332 0.0
C2307 C 0.30411 0.14414 0.83637 0.0
C2308 C 0.32151 0.14666 0.82655 0.0
C2309 C 0.34439 0.15075 0.8323 0.0
C2310 C 0.31692 0.14653 0.81031 0.0
C2311 C 0.27949 0.14039 0.83078 0.0
C2312 C 0.29821 0.12582 0.80169 0.0
C2313 C 0.29414 0.12602 0.78636 0.0
C2314 C 0.30889 0.14689 0.77939 0.0
C2315 C 0.32778 0.1675 0.78805 0.0
C2316 C 0.33177 0.1673 0.80336 0.0
H2317 H 0.27037 0.14399 0.83987 0.0
H2318 H 0.28122 0.1524 0.82198 0.0
H2319 H 0.26758 0.12128 0.82589 0.0
H2320 H 0.28689 0.10944 0.80681 0.0
H2321 H 0.27968 0.10976 0.77992 0.0
H2322 H 0.79661 0.20731 0.88672 0.0
H2323 H 0.80466 0.19764 0.86196 0.0
H2324 H 0.78512 0.12558 0.87273 0.0
H2325 H 0.77698 0.1352 0.89766 0.0
H2326 H 0.83965 0.18429 0.85651 0.0
H2327 H 0.74675 0.11329 0.83161 0.0
H2328 H 0.75175 0.1335 0.84797 0.0
H2329 H 0.75695 0.10845 0.8494 0.0
C2330 C 0.79393 0.18936 0.8838 0.0
C2331 C 0.78636 0.17206 0.89415 0.0
C2332 C 0.79845 0.18384 0.86964 0.0
C2333 C 0.79539 0.16088 0.8655 0.0
C2334 C 0.78723 0.14329 0.87564 0.0
H2335 H 0.82629 0.11108 0.78144 0.0
H2336 H 0.8161 0.11323 0.80698 0.0
C2337 C 0.78261 0.1488 0.88986 0.0
C2338 C 0.8022 0.15616 0.85084 0.0
H2339 H 0.77913 0.12293 0.81688 0.0
C2340 C 0.82644 0.1708 0.84786 0.0
C2341 C 0.78496 0.13841 0.83965 0.0
C2342 C 0.75858 0.12258 0.8422 0.0
C2343 C 0.83383 0.1685 0.83389 0.0
C2344 C 0.81644 0.15134 0.82254 0.0
C2345 C 0.79237 0.13611 0.82563 0.0
C2346 C 0.82266 0.14994 0.80717 0.0
C2347 C 0.8602 0.18453 0.83136 0.0
C2348 C 0.82949 0.16979 0.79883 0.0
C2349 C 0.83536 0.16866 0.78432 0.0
C2350 C 0.83444 0.1476 0.77783 0.0
C2351 C 0.82747 0.12766 0.7862 0.0
C2352 C 0.82149 0.12879 0.80073 0.0
H2353 H 0.87226 0.19176 0.84202 0.0
H2354 H 0.86653 0.17447 0.82422 0.0
H2355 H 0.86211 0.20022 0.82563 0.0
H2356 H 0.83018 0.18617 0.80355 0.0
H2357 H 0.84084 0.18438 0.77821 0.0
H2358 H 0.34044 0.15752 0.45365 0.0
H2359 H 0.3525 0.16597 0.48053 0.0
H2360 H 0.29816 0.18661 0.48612 0.0
H2361 H 0.28546 0.17749 0.45936 0.0
H2362 H 0.36823 0.20829 0.50107 0.0
H2363 H 0.27969 0.1301 0.51216 0.0
H2364 H 0.28983 0.13419 0.49381 0.0
H2365 H 0.27739 0.15183 0.50142 0.0
C2366 C 0.33115 0.16397 0.46061 0.0
C2367 C 0.31185 0.16662 0.45441 0.0
C2368 C 0.33814 0.16891 0.47592 0.0
C2369 C 0.32592 0.1765 0.48528 0.0
C2370 C 0.30755 0.18041 0.47907 0.0
H2371 H 0.32985 0.19434 0.58141 0.0
H2372 H 0.3218 0.19382 0.55456 0.0
C2373 C 0.30051 0.17544 0.46376 0.0
C2374 C 0.33147 0.179 0.50161 0.0
H2375 H 0.3069 0.15454 0.53308 0.0
C2376 C 0.35486 0.19659 0.5081 0.0
C2377 C 0.31396 0.16361 0.51068 0.0
C2378 C 0.28886 0.14371 0.5042 0.0
C2379 C 0.36113 0.19938 0.52353 0.0
C2380 C 0.34364 0.18388 0.53258 0.0
C2381 C 0.32022 0.16642 0.52608 0.0
C2382 C 0.34928 0.18511 0.54882 0.0
C2383 C 0.38627 0.21907 0.53004 0.0
C2384 C 0.36722 0.1801 0.55443 0.0
C2385 C 0.37176 0.18023 0.56974 0.0
C2386 C 0.3583 0.1852 0.5797 0.0
C2387 C 0.3403 0.19015 0.57402 0.0
C2388 C 0.3358 0.19003 0.55871 0.0
H2389 H 0.39508 0.23324 0.52234 0.0
H2390 H 0.38554 0.22789 0.54079 0.0
H2391 H 0.39791 0.21091 0.53213 0.0
H2392 H 0.3774 0.17567 0.54694 0.0
H2393 H 0.38547 0.17599 0.57377 0.0
H2394 H 0.83565 0.15331 0.45457 0.0
H2395 H 0.82884 0.16227 0.47987 0.0
H2396 H 0.90485 0.19066 0.49445 0.0
H2397 H 0.9118 0.1814 0.46918 0.0
H2398 H 0.83917 0.14142 0.50482 0.0
H2399 H 0.88916 0.24252 0.51264 0.0
H2400 H 0.87928 0.2255 0.49444 0.0
H2401 H 0.90538 0.22847 0.50534 0.0
C2402 C 0.85097 0.16159 0.46313 0.0
C2403 C 0.87424 0.16648 0.45988 0.0
C2404 C 0.84706 0.16681 0.47755 0.0
C2405 C 0.86637 0.17726 0.48898 0.0
C2406 C 0.8898 0.18296 0.48572 0.0
H2407 H 0.87125 0.20519 0.5848 0.0
H2408 H 0.8815 0.20403 0.55925 0.0
C2409 C 0.89374 0.17767 0.47127 0.0
C2410 C 0.8614 0.18011 0.5045 0.0
H2411 H 0.87264 0.22204 0.53367 0.0
C2412 C 0.84641 0.15904 0.51112 0.0
C2413 C 0.87112 0.20312 0.5127 0.0
C2414 C 0.88702 0.22627 0.50595 0.0
C2415 C 0.84092 0.1603 0.52579 0.0
C2416 C 0.85017 0.18332 0.53393 0.0
C2417 C 0.86544 0.20443 0.52737 0.0
C2418 C 0.8441 0.18568 0.54926 0.0
C2419 C 0.82566 0.1369 0.53253 0.0
C2420 C 0.81973 0.17636 0.55205 0.0
C2421 C 0.81378 0.17668 0.56663 0.0
C2422 C 0.83212 0.18661 0.57871 0.0
C2423 C 0.85663 0.19698 0.57579 0.0
C2424 C 0.86255 0.19653 0.56119 0.0
H2425 H 0.8259 0.12134 0.52651 0.0
H2426 H 0.8322 0.13842 0.54443 0.0
H2427 H 0.80647 0.13277 0.53183 0.0
H2428 H 0.80524 0.16834 0.54297 0.0
H2429 H 0.79471 0.16834 0.56842 0.0
H2430 H 0.91842 0.76287 0.47662 0.0
H2431 H 0.91073 0.74433 0.50011 0.0
H2432 H 0.83534 0.69651 0.48325 0.0
H2433 H 0.84302 0.71438 0.45962 0.0
H2434 H 0.8783 0.74317 0.51969 0.0
H2435 H 0.85489 0.64956 0.4994 0.0
H2436 H 0.86979 0.67488 0.4885 0.0
H2437 H 0.8374 0.66024 0.48937 0.0
C2438 C 0.9003 0.74811 0.47782 0.0
C2439 C 0.88134 0.74009 0.46623 0.0
C2440 C 0.89591 0.73765 0.49128 0.0
C2441 C 0.87254 0.71882 0.49337 0.0
C2442 C 0.85362 0.71069 0.4818 0.0
H2443 H 0.80179 0.63936 0.56672 0.0
H2444 H 0.8124 0.6558 0.54279 0.0
C2445 C 0.85798 0.72114 0.46836 0.0
C2446 C 0.86763 0.70848 0.50788 0.0
H2447 H 0.84614 0.65543 0.52402 0.0
C2448 C 0.87148 0.72403 0.52067 0.0
C2449 C 0.85864 0.68348 0.50912 0.0
C2450 C 0.85514 0.66609 0.4959 0.0
C2451 C 0.866 0.71516 0.5346 0.0
C2452 C 0.85681 0.69013 0.53581 0.0
C2453 C 0.85314 0.6746 0.52305 0.0
C2454 C 0.85067 0.67968 0.55022 0.0
C2455 C 0.86943 0.73255 0.54781 0.0
C2456 C 0.86876 0.6873 0.56226 0.0
C2457 C 0.86278 0.67788 0.57593 0.0
C2458 C 0.8386 0.66051 0.57783 0.0
C2459 C 0.82062 0.65252 0.56562 0.0
C2460 C 0.82663 0.66198 0.55195 0.0
H2461 H 0.87081 0.74958 0.54435 0.0
H2462 H 0.85411 0.72404 0.55479 0.0
H2463 H 0.88655 0.73746 0.55478 0.0
H2464 H 0.88753 0.70054 0.56107 0.0
H2465 H 0.87716 0.68408 0.58499 0.0
loop_
_geom_bond_atom_site_label_1
_geom_bond_atom_site_label_2
_geom_bond_distance
_geom_bond_site_symmetry_2
_ccdc_geom_bond_type
H0 C3 0.931 . S
H1 C6 0.928 . S
H2 C8 0.930 . S
C3 H0 0.931 . S
C3 C4 1.413 . S
C3 C5 1.360 . S
C4 C3 1.413 . S
C4 C8 1.429 . S
C5 C3 1.360 . S
C5 C6 1.372 . S
C6 H1 0.928 . S
C6 C5 1.372 . S
C6 C7 1.404 . S
C7 C6 1.404 . S
C7 C8 1.391 . S
C8 H2 0.930 . S
C8 C4 1.429 . S
C8 C7 1.391 . S
H9 C12 0.931 . S
H10 C15 0.928 . S
H11 C17 0.930 . S
C12 H9 0.931 . S
C12 C13 1.413 . S
C12 C14 1.360 . S
C13 C12 1.413 . S
C13 C17 1.429 . S
C14 C12 1.360 . S
C14 C15 1.372 . S
C15 H10 0.928 . S
C15 C14 1.372 . S
C15 C16 1.404 . S
C16 C15 1.404 . S
C16 C17 1.391 . S
C17 H11 0.930 . S
C17 C13 1.429 . S
C17 C16 1.391 . S
H18 C21 0.931 . S
H19 C24 0.928 . S
H20 C26 0.930 . S
C21 H18 0.931 . S
C21 C22 1.413 . S
C21 C23 1.360 . S
C22 C21 1.413 . S
C22 C26 1.429 . S
C23 C21 1.360 . S
C23 C24 1.372 . S
C24 H19 0.928 . S
C24 C23 1.372 . S
C24 C25 1.404 . S
C25 C24 1.404 . S
C25 C26 1.391 . S
C26 H20 0.930 . S
C26 C22 1.429 . S
C26 C25 1.391 . S
H27 C30 0.931 . S
H28 C33 0.928 . S
H29 C35 0.930 . S
C30 H27 0.931 . S
C30 C31 1.413 . S
C30 C32 1.360 . S
C31 C30 1.413 . S
C31 C35 1.429 . S
C32 C30 1.360 . S
C32 C33 1.372 . S
C33 H28 0.928 . S
C33 C32 1.372 . S
C33 C34 1.404 . S
C34 C33 1.404 . S
C34 C35 1.391 . S
C35 H29 0.930 . S
C35 C31 1.429 . S
C35 C34 1.391 . S
H36 C39 0.931 . S
H37 C42 0.928 . S
H38 C44 0.930 . S
C39 H36 0.931 . S
C39 C40 1.413 . S
C39 C41 1.360 . S
C40 C39 1.413 . S
C40 C44 1.429 . S
C41 C39 1.360 . S
C41 C42 1.372 . S
C42 H37 0.928 . S
C42 C41 1.372 . S
C42 C43 1.404 . S
C43 C42 1.404 . S
C43 C44 1.391 . S
C44 H38 0.930 . S
C44 C40 1.429 . S
C44 C43 1.391 . S
H45 C48 0.931 . S
H46 C51 0.928 . S
H47 C53 0.930 . S
C48 H45 0.931 . S
C48 C49 1.413 . S
C48 C50 1.360 . S
C49 C48 1.413 . S
C49 C53 1.429 . S
C50 C48 1.360 . S
C50 C51 1.372 . S
C51 H46 0.928 . S
C51 C50 1.372 . S
C51 C52 1.404 . S
C52 C51 1.404 . S
C52 C53 1.391 . S
C53 H47 0.930 . S
C53 C49 1.429 . S
C53 C52 1.391 . S
H54 C57 0.931 . S
H55 C60 0.928 . S
H56 C62 0.930 . S
C57 H54 0.931 . S
C57 C58 1.413 . S
C57 C59 1.360 . S
C58 C57 1.413 . S
C58 C62 1.429 . S
C59 C57 1.360 . S
C59 C60 1.372 . S
C60 H55 0.928 . S
C60 C59 1.372 . S
C60 C61 1.404 . S
C61 C60 1.404 . S
C61 C62 1.391 . S
C62 H56 0.930 . S
C62 C58 1.429 . S
C62 C61 1.391 . S
H63 C66 0.931 . S
H64 C69 0.928 . S
H65 C71 0.930 . S
C66 H63 0.931 . S
C66 C67 1.413 . S
C66 C68 1.360 . S
C67 C66 1.413 . S
C67 C71 1.429 . S
C68 C66 1.360 . S
C68 C69 1.372 . S
C69 H64 0.928 . S
C69 C68 1.372 . S
C69 C70 1.404 . S
C70 C69 1.404 . S
C70 C71 1.391 . S
C71 H65 0.930 . S
C71 C67 1.429 . S
C71 C70 1.391 . S
H72 C75 0.931 . S
H73 C78 0.928 . S
H74 C80 0.930 . S
C75 H72 0.931 . S
C75 C76 1.413 . S
C75 C77 1.360 . S
C76 C75 1.413 . S
C76 C80 1.429 . S
C77 C75 1.360 . S
C77 C78 1.372 . S
C78 H73 0.928 . S
C78 C77 1.372 . S
C78 C79 1.404 . S
C79 C78 1.404 . S
C79 C80 1.391 . S
C80 H74 0.930 . S
C80 C76 1.429 . S
C80 C79 1.391 . S
H81 C84 0.931 . S
H82 C87 0.928 . S
H83 C89 0.930 . S
C84 H81 0.931 . S
C84 C85 1.413 . S
C84 C86 1.360 . S
C85 C84 1.413 . S
C85 C89 1.429 . S
C86 C84 1.360 . S
C86 C87 1.372 . S
C87 H82 0.928 . S
C87 C86 1.372 . S
C87 C88 1.404 . S
C88 C87 1.404 . S
C88 C89 1.391 . S
C89 H83 0.930 . S
C89 C85 1.429 . S
C89 C88 1.391 . S
H90 C93 0.931 . S
H91 C96 0.928 . S
H92 C98 0.930 . S
C93 H90 0.931 . S
C93 C94 1.413 . S
C93 C95 1.360 . S
C94 C93 1.413 . S
C94 C98 1.429 . S
C95 C93 1.360 . S
C95 C96 1.372 . S
C96 H91 0.928 . S
C96 C95 1.372 . S
C96 C97 1.404 . S
C97 C96 1.404 . S
C97 C98 1.391 . S
C98 H92 0.930 . S
C98 C94 1.429 . S
C98 C97 1.391 . S
H99 C102 0.931 . S
H100 C105 0.928 . S
H101 C107 0.930 . S
C102 H99 0.931 . S
C102 C103 1.413 . S
C102 C104 1.360 . S
C103 C102 1.413 . S
C103 C107 1.429 . S
C104 C102 1.360 . S
C104 C105 1.372 . S
C105 H100 0.928 . S
C105 C104 1.372 . S
C105 C106 1.404 . S
C106 C105 1.404 . S
C106 C107 1.391 . S
C107 H101 0.930 . S
C107 C103 1.429 . S
C107 C106 1.391 . S
H108 C111 0.931 . S
H109 C114 0.928 . S
H110 C116 0.930 . S
C111 H108 0.931 . S
C111 C112 1.413 . S
C111 C113 1.360 . S
C112 C111 1.413 . S
C112 C116 1.429 . S
C113 C111 1.360 . S
C113 C114 1.372 . S
C114 H109 0.928 . S
C114 C113 1.372 . S
C114 C115 1.404 . S
C115 C114 1.404 . S
C115 C116 1.391 . S
C116 H110 0.930 . S
C116 C112 1.429 . S
C116 C115 1.391 . S
H117 C120 0.931 . S
H118 C123 0.928 . S
H119 C125 0.930 . S
C120 H117 0.931 . S
C120 C121 1.413 . S
C120 C122 1.360 . S
C121 C120 1.413 . S
C121 C125 1.429 . S
C122 C120 1.360 . S
C122 C123 1.372 . S
C123 H118 0.928 . S
C123 C122 1.372 . S
C123 C124 1.404 . S
C124 C123 1.404 . S
C124 C125 1.391 . S
C125 H119 0.930 . S
C125 C121 1.429 . S
C125 C124 1.391 . S
H126 C129 0.931 . S
H127 C132 0.928 . S
H128 C134 0.930 . S
C129 H126 0.931 . S
C129 C130 1.413 . S
C129 C131 1.360 . S
C130 C129 1.413 . S
C130 C134 1.429 . S
C131 C129 1.360 . S
C131 C132 1.372 . S
C132 H127 0.928 . S
C132 C131 1.372 . S
C132 C133 1.404 . S
C133 C132 1.404 . S
C133 C134 1.391 . S
C134 H128 0.930 . S
C134 C130 1.429 . S
C134 C133 1.391 . S
H135 C138 0.931 . S
H136 C141 0.928 . S
H137 C143 0.930 . S
C138 H135 0.931 . S
C138 C139 1.413 . S
C138 C140 1.360 . S
C139 C138 1.413 . S
C139 C143 1.429 . S
C140 C138 1.360 . S
C140 C141 1.372 . S
C141 H136 0.928 . S
C141 C140 1.372 . S
C141 C142 1.404 . S
C142 C141 1.404 . S
C142 C143 1.391 . S
C143 H137 0.930 . S
C143 C139 1.429 . S
C143 C142 1.391 . S
H144 C147 0.931 . S
H145 C150 0.928 . S
H146 C152 0.930 . S
C147 H144 0.931 . S
C147 C148 1.413 . S
C147 C149 1.360 . S
C148 C147 1.413 . S
C148 C152 1.429 . S
C149 C147 1.360 . S
C149 C150 1.372 . S
C150 H145 0.928 . S
C150 C149 1.372 . S
C150 C151 1.404 . S
C151 C150 1.404 . S
C151 C152 1.391 . S
C152 H146 0.930 . S
C152 C148 1.429 . S
C152 C151 1.391 . S
H153 C156 0.931 . S
H154 C159 0.928 . S
H155 C161 0.930 . S
C156 H153 0.931 . S
C156 C157 1.413 . S
C156 C158 1.360 . S
C157 C156 1.413 . S
C157 C161 1.429 . S
C158 C156 1.360 . S
C158 C159 1.372 . S
C159 H154 0.928 . S
C159 C158 1.372 . S
C159 C160 1.404 . S
C160 C159 1.404 . S
C160 C161 1.391 . S
C161 H155 0.930 . S
C161 C157 1.429 . S
C161 C160 1.391 . S
Eu162 C171 2.828 . S
Eu162 O173 2.392 1_556 S
Eu162 O175 2.418 . S
Eu162 O180 2.373 1_565 S
Eu162 O183 2.488 . S
Eu162 O184 2.471 1_565 S
Eu162 O185 2.349 1_565 S
Eu163 O172 2.373 1_545 S
Eu163 O176 2.488 . S
Eu163 O177 2.461 1_545 S
Eu163 O178 2.349 1_545 S
Eu163 O181 2.392 . S
Eu163 O182 2.418 . S
Eu163 C192 2.828 . S
C164 O182 1.244 . S
C164 O185 1.265 1_554 S
C165 C166 1.379 1_565 S
C165 C169 1.373 . S
C165 C171 1.505 . S
C166 C165 1.379 1_545 S
C166 C168 1.369 . S
C166 H194 0.930 . S
C167 C169 1.383 . S
C167 C170 1.382 1_565 S
C167 H195 0.930 . S
C168 C166 1.369 . S
C168 C170 1.392 . S
C168 H196 0.930 . S
C169 C165 1.373 . S
C169 C167 1.383 . S
C169 H197 0.931 . S
C170 C167 1.382 1_545 S
C170 C168 1.392 . S
C171 Eu162 2.828 . S
C171 C165 1.505 . S
C171 O183 1.249 . S
C171 O184 1.244 1_565 S
O172 Eu163 2.373 1_565 S
O172 C174 1.258 . S
O173 Eu162 2.392 1_554 S
O173 C174 1.242 . S
C174 O172 1.258 . S
C174 O173 1.242 . S
O175 Eu162 2.418 . S
O175 C179 1.244 1_556 S
O176 Eu163 2.488 . S
O176 C192 1.249 . S
O177 Eu163 2.461 1_565 S
O177 C192 1.228 1_565 S
O178 Eu163 2.349 1_565 S
O178 C179 1.265 . S
C179 O175 1.244 1_554 S
C179 O178 1.265 . S
O180 Eu162 2.373 1_545 S
O180 C193 1.258 . S
O181 Eu163 2.392 . S
O181 C193 1.242 1_554 S
O182 Eu163 2.418 . S
O182 C164 1.244 . S
O183 Eu162 2.488 . S
O183 C171 1.249 . S
O184 Eu162 2.471 1_545 S
O184 C171 1.244 1_545 S
O185 Eu162 2.349 1_545 S
O185 C164 1.265 1_556 S
C186 C187 1.379 1_545 S
C186 C190 1.373 . S
C186 C192 1.505 . S
C187 C186 1.379 1_565 S
C187 C189 1.369 . S
C187 H198 0.930 . S
C188 C190 1.383 . S
C188 C191 1.382 1_545 S
C188 H199 0.930 . S
C189 C187 1.369 . S
C189 C191 1.392 . S
C189 H200 0.930 . S
C190 C186 1.373 . S
C190 C188 1.383 . S
C190 H201 0.931 . S
C191 C188 1.382 1_565 S
C191 C189 1.392 . S
C192 Eu163 2.828 . S
C192 O176 1.249 . S
C192 O177 1.228 1_545 S
C192 C186 1.505 . S
C193 O180 1.258 . S
C193 O181 1.242 1_556 S
H194 C166 0.930 . S
H195 C167 0.930 . S
H196 C168 0.930 . S
H197 C169 0.931 . S
H198 C187 0.930 . S
H199 C188 0.930 . S
H200 C189 0.930 . S
H201 C190 0.931 . S
Eu202 C211 2.828 . S
Eu202 O213 2.392 1_556 S
Eu202 O215 2.418 . S
Eu202 O220 2.373 1_455 S
Eu202 O223 2.488 . S
Eu202 O224 2.471 1_455 S
Eu202 O225 2.349 1_455 S
Eu203 O212 2.373 1_655 S
Eu203 O216 2.488 . S
Eu203 O217 2.471 1_655 S
Eu203 O218 2.349 1_655 S
Eu203 O221 2.392 . S
Eu203 O222 2.418 . S
Eu203 C232 2.828 . S
C204 O222 1.244 1_556 S
C204 O225 1.265 . S
C205 C206 1.379 1_455 S
C205 C209 1.373 . S
C205 C211 1.505 . S
C206 C205 1.379 1_655 S
C206 C208 1.369 . S
C206 H234 0.930 . S
C207 C209 1.383 . S
C207 C210 1.382 1_455 S
C207 H235 0.930 . S
C208 C206 1.369 . S
C208 C210 1.392 . S
C208 H236 0.930 . S
C209 C205 1.373 . S
C209 C207 1.383 . S
C209 H237 0.931 . S
C210 C207 1.382 1_655 S
C210 C208 1.392 . S
C211 Eu202 2.828 . S
C211 C205 1.505 . S
C211 O223 1.249 . S
C211 O224 1.244 1_455 S
O212 Eu203 2.373 1_455 S
O212 C214 1.258 . S
O213 Eu202 2.392 1_554 S
O213 C214 1.242 . S
C214 O212 1.258 . S
C214 O213 1.242 . S
O215 Eu202 2.418 . S
O215 C219 1.244 1_556 S
O216 Eu203 2.488 . S
O216 C232 1.249 . S
O217 Eu203 2.471 1_455 S
O217 C232 1.244 1_455 S
O218 Eu203 2.349 1_455 S
O218 C219 1.265 . S
C219 O215 1.244 1_554 S
C219 O218 1.265 . S
O220 Eu202 2.373 1_655 S
O220 C233 1.258 . S
O221 Eu203 2.392 . S
O221 C233 1.242 1_554 S
O222 Eu203 2.418 . S
O222 C204 1.244 1_554 S
O223 Eu202 2.488 . S
O223 C211 1.249 . S
O224 Eu202 2.471 1_655 S
O224 C211 1.244 1_655 S
O225 Eu202 2.349 1_655 S
O225 C204 1.265 . S
C226 C227 1.348 1_655 S
C226 C230 1.392 . S
C226 C232 1.519 . S
C227 C226 1.348 1_455 S
C227 C229 1.369 . S
C227 H238 0.930 . S
C228 C230 1.383 . S
C228 C231 1.382 1_655 S
C228 H239 0.930 . S
C229 C227 1.369 . S
C229 C231 1.392 . S
C229 H240 0.930 . S
C230 C226 1.392 . S
C230 C228 1.383 . S
C230 H241 0.931 . S
C231 C228 1.382 1_455 S
C231 C229 1.392 . S
C232 Eu203 2.828 . S
C232 O216 1.249 . S
C232 O217 1.244 1_655 S
C232 C226 1.519 . S
C233 O220 1.258 . S
C233 O221 1.242 1_556 S
H234 C206 0.930 . S
H235 C207 0.930 . S
H236 C208 0.930 . S
H237 C209 0.931 . S
H238 C227 0.930 . S
H239 C228 0.930 . S
H240 C229 0.930 . S
H241 C230 0.931 . S
Eu242 C251 2.828 . S
Eu242 O253 2.392 . S
Eu242 O255 2.418 . S
Eu242 O260 2.373 . S
Eu242 O263 2.488 . S
Eu242 O264 2.471 . S
Eu242 O265 2.349 . S
Eu243 O252 2.373 . S
Eu243 O256 2.488 . S
Eu243 O257 2.471 . S
Eu243 O258 2.349 . S
Eu243 O261 2.392 1_556 S
Eu243 O262 2.418 . S
Eu243 C272 2.828 . S
C244 O262 1.244 1_554 S
C244 O265 1.265 . S
C245 C246 1.379 . S
C245 C249 1.373 . S
C245 C251 1.505 . S
C246 C245 1.379 . S
C246 C248 1.369 . S
C246 H274 0.930 . S
C247 C249 1.383 . S
C247 C250 1.382 . S
C247 H275 0.930 . S
C248 C246 1.369 . S
C248 C250 1.392 . S
C248 H276 0.930 . S
C249 C245 1.373 . S
C249 C247 1.383 . S
C249 H277 0.931 . S
C250 C247 1.382 . S
C250 C248 1.392 . S
C251 Eu242 2.828 . S
C251 C245 1.505 . S
C251 O263 1.249 . S
C251 O264 1.244 . S
O252 Eu243 2.373 . S
O252 C254 1.258 . S
O253 Eu242 2.392 . S
O253 C254 1.242 1_554 S
C254 O252 1.258 . S
C254 O253 1.242 1_556 S
O255 Eu242 2.418 . S
O255 C259 1.181 1_554 S
O256 Eu243 2.488 . S
O256 C272 1.249 . S
O257 Eu243 2.471 . S
O257 C272 1.244 . S
O258 Eu243 2.349 . S
O258 C259 1.294 . S
C259 O255 1.181 1_556 S
C259 O258 1.294 . S
O260 Eu242 2.373 . S
O260 C273 1.258 . S
O261 Eu243 2.392 1_554 S
O261 C273 1.242 . S
O262 Eu243 2.418 . S
O262 C244 1.244 1_556 S
O263 Eu242 2.488 . S
O263 C251 1.249 . S
O264 Eu242 2.471 . S
O264 C251 1.244 . S
O265 Eu242 2.349 . S
O265 C244 1.265 . S
C266 C267 1.379 . S
C266 C270 1.373 . S
C266 C272 1.505 . S
C267 C266 1.379 . S
C267 C269 1.369 . S
C267 H278 0.930 . S
C268 C270 1.383 . S
C268 C271 1.382 . S
C268 H279 0.930 . S
C269 C267 1.369 . S
C269 C271 1.392 . S
C269 H280 0.930 . S
C270 C266 1.373 . S
C270 C268 1.383 . S
C270 H281 0.931 . S
C271 C268 1.382 . S
C271 C269 1.392 . S
C272 Eu243 2.828 . S
C272 O256 1.249 . S
C272 O257 1.244 . S
C272 C266 1.505 . S
C273 O260 1.258 . S
C273 O261 1.242 . S
H274 C246 0.930 . S
H275 C247 0.930 . S
H276 C248 0.930 . S
H277 C249 0.931 . S
H278 C267 0.930 . S
H279 C268 0.930 . S
H280 C269 0.930 . S
H281 C270 0.931 . S
Eu282 C291 2.828 . S
Eu282 O293 2.392 . S
Eu282 O295 2.418 . S
Eu282 O300 2.373 . S
Eu282 O303 2.488 . S
Eu282 O304 2.471 . S
Eu282 O305 2.349 . S
Eu283 O292 2.373 . S
Eu283 O296 2.488 . S
Eu283 O297 2.471 . S
Eu283 O298 2.349 . S
Eu283 O301 2.392 . S
Eu283 O302 2.418 . S
Eu283 C312 2.828 . S
C284 O302 1.244 . S
C284 O305 1.265 . S
C285 C286 1.379 . S
C285 C289 1.373 . S
C285 C291 1.505 . S
C286 C285 1.379 . S
C286 C288 1.369 . S
C286 H314 0.930 . S
C287 C289 1.383 . S
C287 C290 1.382 . S
C287 H315 0.930 . S
C288 C286 1.369 . S
C288 C290 1.392 . S
C288 H316 0.930 . S
C289 C285 1.373 . S
C289 C287 1.383 . S
C289 H317 0.931 . S
C290 C287 1.382 . S
C290 C288 1.392 . S
C291 Eu282 2.828 . S
C291 C285 1.505 . S
C291 O303 1.249 . S
C291 O304 1.244 . S
O292 Eu283 2.373 . S
O292 C294 1.258 . S
O293 Eu282 2.392 . S
O293 C294 1.242 . S
C294 O292 1.258 . S
C294 O293 1.242 . S
O295 Eu282 2.418 . S
O295 C299 1.244 . S
O296 Eu283 2.488 . S
O296 C312 1.249 . S
O297 Eu283 2.471 . S
O297 C312 1.244 . S
O298 Eu283 2.349 . S
O298 C299 1.265 . S
C299 O295 1.244 . S
C299 O298 1.265 . S
O300 Eu282 2.373 . S
O300 C313 1.258 . S
O301 Eu283 2.392 . S
O301 C313 1.242 . S
O302 Eu283 2.418 . S
O302 C284 1.244 . S
O303 Eu282 2.488 . S
O303 C291 1.249 . S
O304 Eu282 2.471 . S
O304 C291 1.244 . S
O305 Eu282 2.349 . S
O305 C284 1.265 . S
C306 C307 1.379 . S
C306 C310 1.373 . S
C306 C312 1.505 . S
C307 C306 1.379 . S
C307 C309 1.369 . S
C307 H318 0.930 . S
C308 C310 1.383 . S
C308 C311 1.382 . S
C308 H319 0.930 . S
C309 C307 1.369 . S
C309 C311 1.392 . S
C309 H320 0.930 . S
C310 C306 1.373 . S
C310 C308 1.383 . S
C310 H321 0.931 . S
C311 C308 1.382 . S
C311 C309 1.392 . S
C312 Eu283 2.828 . S
C312 O296 1.249 . S
C312 O297 1.244 . S
C312 C306 1.505 . S
C313 O300 1.258 . S
C313 O301 1.242 . S
H314 C286 0.930 . S
H315 C287 0.930 . S
H316 C288 0.930 . S
H317 C289 0.931 . S
H318 C307 0.930 . S
H319 C308 0.930 . S
H320 C309 0.930 . S
H321 C310 0.931 . S
Eu322 C331 2.828 . S
Eu322 O333 2.392 . S
Eu322 O335 2.418 . S
Eu322 O340 2.373 . S
Eu322 O343 2.488 . S
Eu322 O344 2.471 . S
Eu322 O345 2.349 . S
Eu323 O332 2.373 . S
Eu323 O336 2.488 . S
Eu323 O337 2.471 . S
Eu323 O338 2.349 . S
Eu323 O341 2.392 . S
Eu323 O342 2.418 . S
Eu323 C352 2.828 . S
C324 O342 1.244 . S
C324 O345 1.265 . S
C325 C326 1.379 . S
C325 C329 1.373 . S
C325 C331 1.505 . S
C326 C325 1.379 . S
C326 C328 1.369 . S
C326 H354 0.930 . S
C327 C329 1.383 . S
C327 C330 1.382 . S
C327 H355 0.930 . S
C328 C326 1.369 . S
C328 C330 1.392 . S
C328 H356 0.930 . S
C329 C325 1.373 . S
C329 C327 1.383 . S
C329 H357 0.931 . S
C330 C327 1.382 . S
C330 C328 1.392 . S
C331 Eu322 2.828 . S
C331 C325 1.505 . S
C331 O343 1.249 . S
C331 O344 1.244 . S
O332 Eu323 2.373 . S
O332 C334 1.258 . S
O333 Eu322 2.392 . S
O333 C334 1.242 . S
C334 O332 1.258 . S
C334 O333 1.242 . S
O335 Eu322 2.418 . S
O335 C339 1.244 . S
O336 Eu323 2.488 . S
O336 C352 1.249 . S
O337 Eu323 2.471 . S
O337 C352 1.244 . S
O338 Eu323 2.349 . S
O338 C339 1.265 . S
C339 O335 1.244 . S
C339 O338 1.265 . S
O340 Eu322 2.373 . S
O340 C353 1.258 . S
O341 Eu323 2.392 . S
O341 C353 1.242 . S
O342 Eu323 2.418 . S
O342 C324 1.244 . S
O343 Eu322 2.488 . S
O343 C331 1.249 . S
O344 Eu322 2.471 . S
O344 C331 1.244 . S
O345 Eu322 2.349 . S
O345 C324 1.265 . S
C346 C347 1.379 . S
C346 C350 1.373 . S
C346 C352 1.505 . S
C347 C346 1.379 . S
C347 C349 1.369 . S
C347 H358 0.930 . S
C348 C350 1.383 . S
C348 C351 1.382 . S
C348 H359 0.930 . S
C349 C347 1.369 . S
C349 C351 1.392 . S
C349 H360 0.930 . S
C350 C346 1.373 . S
C350 C348 1.383 . S
C350 H361 0.931 . S
C351 C348 1.382 . S
C351 C349 1.392 . S
C352 Eu323 2.828 . S
C352 O336 1.249 . S
C352 O337 1.244 . S
C352 C346 1.505 . S
C353 O340 1.258 . S
C353 O341 1.242 . S
H354 C326 0.930 . S
H355 C327 0.930 . S
H356 C328 0.930 . S
H357 C329 0.931 . S
H358 C347 0.930 . S
H359 C348 0.930 . S
H360 C349 0.930 . S
H361 C350 0.931 . S
Eu362 C371 2.828 . S
Eu362 O373 2.392 . S
Eu362 O375 2.418 . S
Eu362 O380 2.373 . S
Eu362 O383 2.488 . S
Eu362 O384 2.471 . S
Eu362 O385 2.349 . S
Eu363 O372 2.373 . S
Eu363 O376 2.488 . S
Eu363 O377 2.471 . S
Eu363 O378 2.349 . S
Eu363 O381 2.392 . S
Eu363 O382 2.418 . S
Eu363 C392 2.828 . S
C364 O382 1.244 . S
C364 O385 1.265 . S
C365 C366 1.379 . S
C365 C369 1.373 . S
C365 C371 1.505 . S
C366 C365 1.379 . S
C366 C368 1.369 . S
C366 H394 0.930 . S
C367 C369 1.383 . S
C367 C370 1.382 . S
C367 H395 0.930 . S
C368 C366 1.369 . S
C368 C370 1.392 . S
C368 H396 0.930 . S
C369 C365 1.373 . S
C369 C367 1.383 . S
C369 H397 0.931 . S
C370 C367 1.382 . S
C370 C368 1.392 . S
C371 Eu362 2.828 . S
C371 C365 1.505 . S
C371 O383 1.249 . S
C371 O384 1.244 . S
O372 Eu363 2.373 . S
O372 C374 1.258 . S
O373 Eu362 2.392 . S
O373 C374 1.242 . S
C374 O372 1.258 . S
C374 O373 1.242 . S
O375 Eu362 2.418 . S
O375 C379 1.244 . S
O376 Eu363 2.488 . S
O376 C392 1.249 . S
O377 Eu363 2.471 . S
O377 C392 1.244 . S
O378 Eu363 2.349 . S
O378 C379 1.265 . S
C379 O375 1.244 . S
C379 O378 1.265 . S
O380 Eu362 2.373 . S
O380 C393 1.258 . S
O381 Eu363 2.392 . S
O381 C393 1.242 . S
O382 Eu363 2.418 . S
O382 C364 1.244 . S
O383 Eu362 2.488 . S
O383 C371 1.249 . S
O384 Eu362 2.471 . S
O384 C371 1.244 . S
O385 Eu362 2.349 . S
O385 C364 1.265 . S
C386 C387 1.379 . S
C386 C390 1.373 . S
C386 C392 1.505 . S
C387 C386 1.379 . S
C387 C389 1.369 . S
C387 H398 0.930 . S
C388 C390 1.383 . S
C388 C391 1.382 . S
C388 H399 0.930 . S
C389 C387 1.369 . S
C389 C391 1.392 . S
C389 H400 0.930 . S
C390 C386 1.373 . S
C390 C388 1.383 . S
C390 H401 0.931 . S
C391 C388 1.382 . S
C391 C389 1.392 . S
C392 Eu363 2.828 . S
C392 O376 1.249 . S
C392 O377 1.244 . S
C392 C386 1.505 . S
C393 O380 1.258 . S
C393 O381 1.242 . S
H394 C366 0.930 . S
H395 C367 0.930 . S
H396 C368 0.930 . S
H397 C369 0.931 . S
H398 C387 0.930 . S
H399 C388 0.930 . S
H400 C389 0.930 . S
H401 C390 0.931 . S
Eu402 C411 2.828 . S
Eu402 O413 2.392 . S
Eu402 O415 2.418 . S
Eu402 O420 2.373 . S
Eu402 O423 2.488 . S
Eu402 O424 2.471 . S
Eu402 O425 2.349 . S
Eu403 O412 2.373 . S
Eu403 O416 2.488 . S
Eu403 O417 2.471 . S
Eu403 O418 2.349 . S
Eu403 O421 2.392 . S
Eu403 O422 2.418 . S
Eu403 C432 2.828 . S
C404 O422 1.244 . S
C404 O425 1.265 . S
C405 C406 1.379 . S
C405 C409 1.373 . S
C405 C411 1.505 . S
C406 C405 1.379 . S
C406 C408 1.369 . S
C406 H434 0.930 . S
C407 C409 1.383 . S
C407 C410 1.382 . S
C407 H435 0.930 . S
C408 C406 1.369 . S
C408 C410 1.392 . S
C408 H436 0.930 . S
C409 C405 1.373 . S
C409 C407 1.383 . S
C409 H437 0.931 . S
C410 C407 1.382 . S
C410 C408 1.392 . S
C411 Eu402 2.828 . S
C411 C405 1.505 . S
C411 O423 1.249 . S
C411 O424 1.244 . S
O412 Eu403 2.373 . S
O412 C414 1.258 . S
O413 Eu402 2.392 . S
O413 C414 1.242 . S
C414 O412 1.258 . S
C414 O413 1.242 . S
O415 Eu402 2.418 . S
O415 C419 1.244 . S
O416 Eu403 2.488 . S
O416 C432 1.249 . S
O417 Eu403 2.471 . S
O417 C432 1.244 . S
O418 Eu403 2.349 . S
O418 C419 1.265 . S
C419 O415 1.244 . S
C419 O418 1.265 . S
O420 Eu402 2.373 . S
O420 C433 1.258 . S
O421 Eu403 2.392 . S
O421 C433 1.242 . S
O422 Eu403 2.418 . S
O422 C404 1.244 . S
O423 Eu402 2.488 . S
O423 C411 1.249 . S
O424 Eu402 2.471 . S
O424 C411 1.244 . S
O425 Eu402 2.349 . S
O425 C404 1.265 . S
C426 C427 1.379 . S
C426 C430 1.373 . S
C426 C432 1.505 . S
C427 C426 1.379 . S
C427 C429 1.369 . S
C427 H438 0.930 . S
C428 C430 1.383 . S
C428 C431 1.382 . S
C428 H439 0.930 . S
C429 C427 1.369 . S
C429 C431 1.392 . S
C429 H440 0.930 . S
C430 C426 1.373 . S
C430 C428 1.383 . S
C430 H441 0.931 . S
C431 C428 1.382 . S
C431 C429 1.392 . S
C432 Eu403 2.828 . S
C432 O416 1.249 . S
C432 O417 1.244 . S
C432 C426 1.505 . S
C433 O420 1.258 . S
C433 O421 1.242 . S
H434 C406 0.930 . S
H435 C407 0.930 . S
H436 C408 0.930 . S
H437 C409 0.931 . S
H438 C427 0.930 . S
H439 C428 0.930 . S
H440 C429 0.930 . S
H441 C430 0.931 . S
Eu442 C451 2.828 . S
Eu442 O453 2.392 . S
Eu442 O455 2.418 . S
Eu442 O460 2.373 . S
Eu442 O463 2.488 . S
Eu442 O464 2.471 . S
Eu442 O465 2.349 . S
Eu443 O452 2.373 . S
Eu443 O456 2.488 . S
Eu443 O457 2.471 . S
Eu443 O458 2.349 . S
Eu443 O461 2.392 . S
Eu443 O462 2.418 . S
Eu443 C472 2.828 . S
C444 O462 1.244 . S
C444 O465 1.265 . S
C445 C446 1.379 . S
C445 C449 1.373 . S
C445 C451 1.505 . S
C446 C445 1.379 . S
C446 C448 1.369 . S
C446 H474 0.930 . S
C447 C449 1.383 . S
C447 C450 1.382 . S
C447 H475 0.930 . S
C448 C446 1.369 . S
C448 C450 1.392 . S
C448 H476 0.930 . S
C449 C445 1.373 . S
C449 C447 1.383 . S
C449 H477 0.931 . S
C450 C447 1.382 . S
C450 C448 1.392 . S
C451 Eu442 2.828 . S
C451 C445 1.505 . S
C451 O463 1.249 . S
C451 O464 1.244 . S
O452 Eu443 2.373 . S
O452 C454 1.258 . S
O453 Eu442 2.392 . S
O453 C454 1.242 . S
C454 O452 1.258 . S
C454 O453 1.242 . S
O455 Eu442 2.418 . S
O455 C459 1.244 . S
O456 Eu443 2.488 . S
O456 C472 1.249 . S
O457 Eu443 2.471 . S
O457 C472 1.244 . S
O458 Eu443 2.349 . S
O458 C459 1.265 . S
C459 O455 1.244 . S
C459 O458 1.265 . S
O460 Eu442 2.373 . S
O460 C473 1.258 . S
O461 Eu443 2.392 . S
O461 C473 1.242 . S
O462 Eu443 2.418 . S
O462 C444 1.244 . S
O463 Eu442 2.488 . S
O463 C451 1.249 . S
O464 Eu442 2.471 . S
O464 C451 1.244 . S
O465 Eu442 2.349 . S
O465 C444 1.265 . S
C466 C467 1.379 . S
C466 C470 1.373 . S
C466 C472 1.505 . S
C467 C466 1.379 . S
C467 C469 1.369 . S
C467 H478 0.930 . S
C468 C470 1.383 . S
C468 C471 1.382 . S
C468 H479 0.930 . S
C469 C467 1.369 . S
C469 C471 1.392 . S
C469 H480 0.930 . S
C470 C466 1.373 . S
C470 C468 1.383 . S
C470 H481 0.931 . S
C471 C468 1.382 . S
C471 C469 1.392 . S
C472 Eu443 2.828 . S
C472 O456 1.249 . S
C472 O457 1.244 . S
C472 C466 1.505 . S
C473 O460 1.258 . S
C473 O461 1.242 . S
H474 C446 0.930 . S
H475 C447 0.930 . S
H476 C448 0.930 . S
H477 C449 0.931 . S
H478 C467 0.930 . S
H479 C468 0.930 . S
H480 C469 0.930 . S
H481 C470 0.931 . S
Eu482 C491 2.828 . S
Eu482 O493 2.392 . S
Eu482 O495 2.418 . S
Eu482 O500 2.373 . S
Eu482 O503 2.488 . S
Eu482 O504 2.471 . S
Eu482 O505 2.349 . S
Eu483 O492 2.373 . S
Eu483 O496 2.488 . S
Eu483 O497 2.471 . S
Eu483 O498 2.349 . S
Eu483 O501 2.392 . S
Eu483 O502 2.418 . S
Eu483 C512 2.828 . S
C484 O502 1.244 . S
C484 O505 1.265 . S
C485 C486 1.379 . S
C485 C489 1.373 . S
C485 C491 1.505 . S
C486 C485 1.379 . S
C486 C488 1.369 . S
C486 H514 0.930 . S
C487 C489 1.383 . S
C487 C490 1.382 . S
C487 H515 0.930 . S
C488 C486 1.369 . S
C488 C490 1.392 . S
C488 H516 0.930 . S
C489 C485 1.373 . S
C489 C487 1.383 . S
C489 H517 0.931 . S
C490 C487 1.382 . S
C490 C488 1.392 . S
C491 Eu482 2.828 . S
C491 C485 1.505 . S
C491 O503 1.249 . S
C491 O504 1.244 . S
O492 Eu483 2.373 . S
O492 C494 1.258 . S
O493 Eu482 2.392 . S
O493 C494 1.242 . S
C494 O492 1.258 . S
C494 O493 1.242 . S
O495 Eu482 2.418 . S
O495 C499 1.244 . S
O496 Eu483 2.488 . S
O496 C512 1.249 . S
O497 Eu483 2.471 . S
O497 C512 1.244 . S
O498 Eu483 2.349 . S
O498 C499 1.265 . S
C499 O495 1.244 . S
C499 O498 1.265 . S
O500 Eu482 2.373 . S
O500 C513 1.258 . S
O501 Eu483 2.392 . S
O501 C513 1.242 . S
O502 Eu483 2.418 . S
O502 C484 1.244 . S
O503 Eu482 2.488 . S
O503 C491 1.249 . S
O504 Eu482 2.471 . S
O504 C491 1.244 . S
O505 Eu482 2.349 . S
O505 C484 1.265 . S
C506 C507 1.379 . S
C506 C510 1.373 . S
C506 C512 1.505 . S
C507 C506 1.379 . S
C507 C509 1.369 . S
C507 H518 0.930 . S
C508 C510 1.383 . S
C508 C511 1.382 . S
C508 H519 0.930 . S
C509 C507 1.369 . S
C509 C511 1.392 . S
C509 H520 0.930 . S
C510 C506 1.373 . S
C510 C508 1.383 . S
C510 H521 0.931 . S
C511 C508 1.382 . S
C511 C509 1.392 . S
C512 Eu483 2.828 . S
C512 O496 1.249 . S
C512 O497 1.244 . S
C512 C506 1.505 . S
C513 O500 1.258 . S
C513 O501 1.242 . S
H514 C486 0.930 . S
H515 C487 0.930 . S
H516 C488 0.930 . S
H517 C489 0.931 . S
H518 C507 0.930 . S
H519 C508 0.930 . S
H520 C509 0.930 . S
H521 C510 0.931 . S
H522 C530 0.929 . S
H523 C532 0.930 . S
H524 C534 0.930 . S
H525 C537 0.929 . S
H526 C540 0.930 . S
H527 C542 0.960 . S
H528 C542 0.960 . S
H529 C542 0.960 . S
C530 H522 0.929 . S
C530 C531 1.377 . S
C530 C532 1.384 . S
C531 C530 1.377 . S
C531 C537 1.390 . S
C532 H523 0.930 . S
C532 C530 1.384 . S
C532 C533 1.372 . S
C533 C532 1.372 . S
C533 C534 1.400 . S
C533 C538 1.490 . S
C534 H524 0.930 . S
C534 C533 1.400 . S
C534 C537 1.386 . S
H535 C551 0.930 . S
H536 C552 0.931 . S
C537 H525 0.929 . S
C537 C531 1.390 . S
C537 C534 1.386 . S
C538 C533 1.490 . S
C538 C540 1.395 . S
C538 C541 1.403 . S
H539 C545 0.930 . S
C540 H526 0.930 . S
C540 C538 1.395 . S
C540 C543 1.403 . S
C541 C538 1.403 . S
C541 C542 1.524 . S
C541 C545 1.400 . S
C542 H527 0.960 . S
C542 H528 0.960 . S
C542 H529 0.960 . S
C542 C541 1.524 . S
C543 C540 1.403 . S
C543 C544 1.392 . S
C543 C547 1.495 . S
C544 C543 1.392 . S
C544 C545 1.385 . S
C544 C546 1.478 . S
C545 H539 0.930 . S
C545 C541 1.400 . S
C545 C544 1.385 . S
C546 C544 1.478 . S
C546 C548 1.381 . S
C546 C552 1.383 . S
C547 C543 1.495 . S
C547 H553 0.959 . S
C547 H554 0.961 . S
C547 H555 0.960 . S
C548 C546 1.381 . S
C548 C549 1.394 . S
C548 H556 0.930 . S
C549 C548 1.394 . S
C549 C550 1.383 . S
C549 H557 0.929 . S
C550 C549 1.383 . S
C550 C551 1.377 . S
C551 H535 0.930 . S
C551 C550 1.377 . S
C551 C552 1.379 . S
C552 H536 0.931 . S
C552 C546 1.383 . S
C552 C551 1.379 . S
H553 C547 0.959 . S
H554 C547 0.961 . S
H555 C547 0.960 . S
H556 C548 0.930 . S
H557 C549 0.929 . S
H558 C566 0.929 . S
H559 C568 0.930 . S
H560 C570 0.930 . S
H561 C573 0.929 . S
H562 C576 0.930 . S
H563 C578 0.960 . S
H564 C578 0.960 . S
H565 C578 0.960 . S
C566 H558 0.929 . S
C566 C567 1.377 . S
C566 C568 1.384 . S
C567 C566 1.377 . S
C567 C573 1.390 . S
C568 H559 0.930 . S
C568 C566 1.384 . S
C568 C569 1.372 . S
C569 C568 1.372 . S
C569 C570 1.400 . S
C569 C574 1.490 . S
C570 H560 0.930 . S
C570 C569 1.400 . S
C570 C573 1.386 . S
H571 C587 0.930 . S
H572 C588 0.931 . S
C573 H561 0.929 . S
C573 C567 1.390 . S
C573 C570 1.386 . S
C574 C569 1.490 . S
C574 C576 1.395 . S
C574 C577 1.403 . S
H575 C581 0.930 . S
C576 H562 0.930 . S
C576 C574 1.395 . S
C576 C579 1.403 . S
C577 C574 1.403 . S
C577 C578 1.524 . S
C577 C581 1.400 . S
C578 H563 0.960 . S
C578 H564 0.960 . S
C578 H565 0.960 . S
C578 C577 1.524 . S
C579 C576 1.403 . S
C579 C580 1.392 . S
C579 C583 1.495 . S
C580 C579 1.392 . S
C580 C581 1.385 . S
C580 C582 1.478 . S
C581 H575 0.930 . S
C581 C577 1.400 . S
C581 C580 1.385 . S
C582 C580 1.478 . S
C582 C584 1.381 . S
C582 C588 1.383 . S
C583 C579 1.495 . S
C583 H589 0.959 . S
C583 H590 0.961 . S
C583 H591 0.960 . S
C584 C582 1.381 . S
C584 C585 1.394 . S
C584 H592 0.930 . S
C585 C584 1.394 . S
C585 C586 1.383 . S
C585 H593 0.929 . S
C586 C585 1.383 . S
C586 C587 1.377 . S
C587 H571 0.930 . S
C587 C586 1.377 . S
C587 C588 1.379 . S
C588 H572 0.931 . S
C588 C582 1.383 . S
C588 C587 1.379 . S
H589 C583 0.959 . S
H590 C583 0.961 . S
H591 C583 0.960 . S
H592 C584 0.930 . S
H593 C585 0.929 . S
H594 C602 0.929 . S
H595 C604 0.930 . S
H596 C606 0.930 . S
H597 C609 0.929 . S
H598 C612 0.930 . S
H599 C614 0.960 . S
H600 C614 0.960 . S
H601 C614 0.960 . S
C602 H594 0.929 . S
C602 C603 1.377 . S
C602 C604 1.384 . S
C603 C602 1.377 . S
C603 C609 1.390 . S
C604 H595 0.930 . S
C604 C602 1.384 . S
C604 C605 1.372 . S
C605 C604 1.372 . S
C605 C606 1.400 . S
C605 C610 1.490 . S
C606 H596 0.930 . S
C606 C605 1.400 . S
C606 C609 1.386 . S
H607 C623 0.977 . S
H608 C624 0.931 . S
C609 H597 0.929 . S
C609 C603 1.390 . S
C609 C606 1.386 . S
C610 C605 1.490 . S
C610 C612 1.395 . S
C610 C613 1.403 . S
H611 C617 0.930 . S
C612 H598 0.930 . S
C612 C610 1.395 . S
C612 C615 1.403 . S
C613 C610 1.403 . S
C613 C614 1.524 . S
C613 C617 1.400 . S
C614 H599 0.960 . S
C614 H600 0.960 . S
C614 H601 0.960 . S
C614 C613 1.524 . S
C615 C612 1.403 . S
C615 C616 1.392 . S
C615 C619 1.495 . S
C616 C615 1.392 . S
C616 C617 1.385 . S
C616 C618 1.478 . S
C617 H611 0.930 . S
C617 C613 1.400 . S
C617 C616 1.385 . S
C618 C616 1.478 . S
C618 C620 1.381 . S
C618 C624 1.383 . S
C619 C615 1.495 . S
C619 H625 0.959 . S
C619 H626 0.961 . S
C619 H627 0.960 . S
C620 C618 1.381 . S
C620 C621 1.394 . S
C620 H628 0.930 . S
C621 C620 1.394 . S
C621 C622 1.383 . S
C621 H629 0.929 . S
C622 C621 1.383 . S
C622 C623 1.377 . S
C623 H607 0.977 . S
C623 C622 1.377 . S
C623 C624 1.379 . S
C624 H608 0.931 . S
C624 C618 1.383 . S
C624 C623 1.379 . S
H625 C619 0.959 . S
H626 C619 0.961 . S
H627 C619 0.960 . S
H628 C620 0.930 . S
H629 C621 0.929 . S
H630 C638 0.929 . S
H631 C640 0.930 . S
H632 C642 0.930 . S
H633 C645 0.929 . S
H634 C648 0.930 . S
H635 C650 0.960 . S
H636 C650 0.960 . S
H637 C650 0.960 . S
C638 H630 0.929 . S
C638 C639 1.377 . S
C638 C640 1.384 . S
C639 C638 1.377 . S
C639 C645 1.390 . S
C640 H631 0.930 . S
C640 C638 1.384 . S
C640 C641 1.372 . S
C641 C640 1.372 . S
C641 C642 1.400 . S
C641 C646 1.490 . S
C642 H632 0.930 . S
C642 C641 1.400 . S
C642 C645 1.386 . S
H643 C659 0.930 . S
H644 C660 0.931 . S
C645 H633 0.929 . S
C645 C639 1.390 . S
C645 C642 1.386 . S
C646 C641 1.490 . S
C646 C648 1.395 . S
C646 C649 1.403 . S
H647 C653 0.930 . S
C648 H634 0.930 . S
C648 C646 1.395 . S
C648 C651 1.403 . S
C649 C646 1.403 . S
C649 C650 1.524 . S
C649 C653 1.400 . S
C650 H635 0.960 . S
C650 H636 0.960 . S
C650 H637 0.960 . S
C650 C649 1.524 . S
C651 C648 1.403 . S
C651 C652 1.392 . S
C651 C655 1.538 . S
C652 C651 1.392 . S
C652 C653 1.385 . S
C652 C654 1.478 . S
C653 H647 0.930 . S
C653 C649 1.400 . S
C653 C652 1.385 . S
C654 C652 1.478 . S
C654 C656 1.381 . S
C654 C660 1.383 . S
C655 C651 1.538 . S
C655 H661 0.939 1_556 S
C655 H662 0.973 . S
C655 H663 0.928 1_556 S
C656 C654 1.381 . S
C656 C657 1.411 . S
C656 H664 0.939 . S
C657 C656 1.411 . S
C657 C658 1.433 . S
C657 H665 0.867 1_556 S
C658 C657 1.433 . S
C658 C659 1.377 . S
C659 H643 0.930 . S
C659 C658 1.377 . S
C659 C660 1.379 . S
C660 H644 0.931 . S
C660 C654 1.383 . S
C660 C659 1.379 . S
H661 C655 0.939 1_554 S
H662 C655 0.973 . S
H663 C655 0.928 1_554 S
H664 C656 0.939 . S
H665 C657 0.867 1_554 S
H666 C674 0.929 . S
H667 C676 0.930 . S
H668 C678 0.930 . S
H669 C681 0.929 . S
H670 C684 0.930 . S
H671 C686 0.960 . S
H672 C686 0.960 . S
H673 C686 0.960 . S
C674 H666 0.929 . S
C674 C675 1.377 . S
C674 C676 1.384 . S
C675 C674 1.377 . S
C675 C681 1.390 . S
C676 H667 0.930 . S
C676 C674 1.384 . S
C676 C677 1.372 . S
C677 C676 1.372 . S
C677 C678 1.400 . S
C677 C682 1.490 . S
C678 H668 0.930 . S
C678 C677 1.400 . S
C678 C681 1.386 . S
H679 C695 0.930 1_554 S
H680 C696 0.931 . S
C681 H669 0.929 . S
C681 C675 1.390 . S
C681 C678 1.386 . S
C682 C677 1.490 . S
C682 C684 1.395 . S
C682 C685 1.403 . S
H683 C689 0.930 . S
C684 H670 0.930 . S
C684 C682 1.395 . S
C684 C687 1.403 . S
C685 C682 1.403 . S
C685 C686 1.524 . S
C685 C689 1.400 . S
C686 H671 0.960 . S
C686 H672 0.960 . S
C686 H673 0.960 . S
C686 C685 1.524 . S
C687 C684 1.403 . S
C687 C688 1.392 . S
C687 C691 1.495 . S
C688 C687 1.392 . S
C688 C689 1.385 . S
C688 C690 1.478 . S
C689 H683 0.930 . S
C689 C685 1.400 . S
C689 C688 1.385 . S
C690 C688 1.478 . S
C690 C692 1.381 . S
C690 C696 1.383 . S
C691 C687 1.495 . S
C691 H697 0.959 . S
C691 H698 0.961 . S
C691 H699 0.960 . S
C692 C690 1.381 . S
C692 C693 1.394 . S
C692 H700 0.930 . S
C693 C692 1.394 . S
C693 C694 1.383 . S
C693 H701 0.929 . S
C694 C693 1.383 . S
C694 C695 1.377 . S
C695 H679 0.930 1_556 S
C695 C694 1.377 . S
C695 C696 1.379 . S
C696 H680 0.931 . S
C696 C690 1.383 . S
C696 C695 1.379 . S
H697 C691 0.959 . S
H698 C691 0.961 . S
H699 C691 0.960 . S
H700 C692 0.930 . S
H701 C693 0.929 . S
H702 C710 0.929 . S
H703 C712 0.930 . S
H704 C714 0.930 . S
H705 C717 0.929 . S
H706 C720 0.930 . S
H707 C722 0.960 . S
H708 C722 0.960 . S
H709 C722 0.960 . S
C710 H702 0.929 . S
C710 C711 1.377 . S
C710 C712 1.384 . S
C711 C710 1.377 . S
C711 C717 1.390 . S
C712 H703 0.930 . S
C712 C710 1.384 . S
C712 C713 1.372 . S
C713 C712 1.372 . S
C713 C714 1.400 . S
C713 C718 1.490 . S
C714 H704 0.930 . S
C714 C713 1.400 . S
C714 C717 1.386 . S
H715 C731 0.930 . S
H716 C732 0.931 1_554 S
C717 H705 0.929 . S
C717 C711 1.390 . S
C717 C714 1.386 . S
C718 C713 1.490 . S
C718 C720 1.395 . S
C718 C721 1.403 . S
H719 C725 0.930 . S
C720 H706 0.930 . S
C720 C718 1.395 . S
C720 C723 1.403 . S
C721 C718 1.403 . S
C721 C722 1.524 . S
C721 C725 1.400 . S
C722 H707 0.960 . S
C722 H708 0.960 . S
C722 H709 0.960 . S
C722 C721 1.524 . S
C723 C720 1.403 . S
C723 C724 1.392 . S
C723 C727 1.495 . S
C724 C723 1.392 . S
C724 C725 1.385 . S
C724 C726 1.478 . S
C725 H719 0.930 . S
C725 C721 1.400 . S
C725 C724 1.385 . S
C726 C724 1.478 . S
C726 C728 1.381 . S
C726 C732 1.383 . S
C727 C723 1.495 . S
C727 H733 0.959 . S
C727 H734 0.961 . S
C727 H735 0.960 . S
C728 C726 1.381 . S
C728 C729 1.394 . S
C728 H736 0.930 . S
C729 C728 1.394 . S
C729 C730 1.383 . S
C729 H737 0.929 . S
C730 C729 1.383 . S
C730 C731 1.377 1_556 S
C731 H715 0.930 . S
C731 C730 1.377 1_554 S
C731 C732 1.379 1_554 S
C732 H716 0.931 1_556 S
C732 C726 1.383 . S
C732 C731 1.379 1_556 S
H733 C727 0.959 . S
H734 C727 0.961 . S
H735 C727 0.960 . S
H736 C728 0.930 . S
H737 C729 0.929 . S
H738 C746 0.929 . S
H739 C748 0.930 . S
H740 C750 0.930 . S
H741 C753 0.929 . S
H742 C756 0.930 . S
H743 C758 0.960 . S
H744 C758 0.960 . S
H745 C758 0.960 . S
C746 H738 0.929 . S
C746 C747 1.377 . S
C746 C748 1.384 . S
C747 C746 1.377 . S
C747 C753 1.390 . S
C748 H739 0.930 . S
C748 C746 1.384 . S
C748 C749 1.372 . S
C749 C748 1.372 . S
C749 C750 1.400 . S
C749 C754 1.490 . S
C750 H740 0.930 . S
C750 C749 1.400 . S
C750 C753 1.386 . S
H751 C767 0.930 1_554 S
H752 C768 0.931 . S
C753 H741 0.929 . S
C753 C747 1.390 . S
C753 C750 1.386 . S
C754 C749 1.490 . S
C754 C756 1.395 . S
C754 C757 1.403 . S
H755 C761 0.930 . S
C756 H742 0.930 . S
C756 C754 1.395 . S
C756 C759 1.403 . S
C757 C754 1.403 . S
C757 C758 1.524 . S
C757 C761 1.400 . S
C758 H743 0.960 . S
C758 H744 0.960 . S
C758 H745 0.960 . S
C758 C757 1.524 . S
C759 C756 1.403 . S
C759 C760 1.392 . S
C759 C763 1.495 . S
C760 C759 1.392 . S
C760 C761 1.385 . S
C760 C762 1.478 . S
C761 H755 0.930 . S
C761 C757 1.400 . S
C761 C760 1.385 . S
C762 C760 1.478 . S
C762 C764 1.381 . S
C762 C768 1.383 . S
C763 C759 1.495 . S
C763 H769 0.959 . S
C763 H770 0.961 . S
C763 H771 0.960 . S
C764 C762 1.381 . S
C764 C765 1.394 . S
C764 H772 0.930 . S
C765 C764 1.394 . S
C765 C766 1.383 . S
C765 H773 0.929 . S
C766 C765 1.383 . S
C766 C767 1.377 . S
C767 H751 0.930 1_556 S
C767 C766 1.377 . S
C767 C768 1.379 . S
C768 H752 0.931 . S
C768 C762 1.383 . S
C768 C767 1.379 . S
H769 C763 0.959 . S
H770 C763 0.961 . S
H771 C763 0.960 . S
H772 C764 0.930 . S
H773 C765 0.929 . S
H774 C782 0.929 . S
H775 C784 0.930 . S
H776 C786 0.930 . S
H777 C789 0.929 . S
H778 C792 0.930 . S
H779 C794 0.960 . S
H780 C794 0.960 . S
H781 C794 0.960 . S
C782 H774 0.929 . S
C782 C783 1.377 . S
C782 C784 1.384 . S
C783 C782 1.377 . S
C783 C789 1.390 . S
C784 H775 0.930 . S
C784 C782 1.384 . S
C784 C785 1.372 . S
C785 C784 1.372 . S
C785 C786 1.400 . S
C785 C790 1.490 . S
C786 H776 0.930 . S
C786 C785 1.400 . S
C786 C789 1.386 . S
H787 C803 0.930 . S
H788 C804 0.931 . S
C789 H777 0.929 . S
C789 C783 1.390 . S
C789 C786 1.386 . S
C790 C785 1.490 . S
C790 C792 1.395 . S
C790 C793 1.403 . S
H791 C797 0.930 . S
C792 H778 0.930 . S
C792 C790 1.395 . S
C792 C795 1.403 . S
C793 C790 1.403 . S
C793 C794 1.524 . S
C793 C797 1.400 . S
C794 H779 0.960 . S
C794 H780 0.960 . S
C794 H781 0.960 . S
C794 C793 1.524 . S
C795 C792 1.403 . S
C795 C796 1.392 . S
C795 C799 1.495 . S
C796 C795 1.392 . S
C796 C797 1.385 . S
C796 C798 1.478 . S
C797 H791 0.930 . S
C797 C793 1.400 . S
C797 C796 1.385 . S
C798 C796 1.478 . S
C798 C800 1.381 . S
C798 C804 1.383 . S
C799 C795 1.495 . S
C799 H805 0.959 . S
C799 H806 0.961 . S
C799 H807 0.960 . S
C800 C798 1.381 . S
C800 C801 1.394 . S
C800 H808 0.930 . S
C801 C800 1.394 . S
C801 C802 1.383 . S
C801 H809 0.929 . S
C802 C801 1.383 . S
C802 C803 1.377 . S
C803 H787 0.930 . S
C803 C802 1.377 . S
C803 C804 1.379 . S
C804 H788 0.931 . S
C804 C798 1.383 . S
C804 C803 1.379 . S
H805 C799 0.959 . S
H806 C799 0.961 . S
H807 C799 0.960 . S
H808 C800 0.930 . S
H809 C801 0.929 . S
H810 C818 0.929 . S
H811 C820 0.930 . S
H812 C822 0.930 . S
H813 C825 0.929 . S
H814 C828 0.930 . S
H815 C830 0.960 . S
H816 C830 0.960 . S
H817 C830 0.960 . S
C818 H810 0.929 . S
C818 C819 1.377 . S
C818 C820 1.384 . S
C819 C818 1.377 . S
C819 C825 1.390 . S
C820 H811 0.930 . S
C820 C818 1.384 . S
C820 C821 1.372 . S
C821 C820 1.372 . S
C821 C822 1.400 . S
C821 C826 1.490 . S
C822 H812 0.930 . S
C822 C821 1.400 . S
C822 C825 1.386 . S
H823 C839 0.930 . S
H824 C840 0.931 . S
C825 H813 0.929 . S
C825 C819 1.390 . S
C825 C822 1.386 . S
C826 C821 1.490 . S
C826 C828 1.395 . S
C826 C829 1.403 . S
H827 C833 0.930 . S
C828 H814 0.930 . S
C828 C826 1.395 . S
C828 C831 1.403 . S
C829 C826 1.403 . S
C829 C830 1.524 . S
C829 C833 1.400 . S
C830 H815 0.960 . S
C830 H816 0.960 . S
C830 H817 0.960 . S
C830 C829 1.524 . S
C831 C828 1.403 . S
C831 C832 1.392 . S
C831 C835 1.495 . S
C832 C831 1.392 . S
C832 C833 1.385 . S
C832 C834 1.478 . S
C833 H827 0.930 . S
C833 C829 1.400 . S
C833 C832 1.385 . S
C834 C832 1.478 . S
C834 C836 1.381 . S
C834 C840 1.383 . S
C835 C831 1.495 . S
C835 H841 0.959 . S
C835 H842 0.961 . S
C835 H843 0.960 1_556 S
C836 C834 1.381 . S
C836 C837 1.394 1_556 S
C836 H844 0.930 1_556 S
C837 C836 1.394 1_554 S
C837 C838 1.383 1_554 S
C837 H845 0.929 . S
C838 C837 1.383 1_556 S
C838 C839 1.377 . S
C839 H823 0.930 . S
C839 C838 1.377 . S
C839 C840 1.379 . S
C840 H824 0.931 . S
C840 C834 1.383 . S
C840 C839 1.379 . S
H841 C835 0.959 . S
H842 C835 0.961 . S
H843 C835 0.960 1_554 S
H844 C836 0.930 1_554 S
H845 C837 0.929 . S
H846 C854 0.929 . S
H847 C856 0.930 . S
H848 C858 0.930 . S
H849 C861 0.929 . S
H850 C864 0.930 . S
H851 C866 0.960 . S
H852 C866 0.960 . S
H853 C866 0.960 . S
C854 H846 0.929 . S
C854 C855 1.377 . S
C854 C856 1.384 . S
C855 C854 1.377 . S
C855 C861 1.390 . S
C856 H847 0.930 . S
C856 C854 1.384 . S
C856 C857 1.372 . S
C857 C856 1.372 . S
C857 C858 1.400 . S
C857 C862 1.490 . S
C858 H848 0.930 . S
C858 C857 1.400 . S
C858 C861 1.386 . S
H859 C875 0.930 . S
H860 C876 0.931 . S
C861 H849 0.929 . S
C861 C855 1.390 . S
C861 C858 1.386 . S
C862 C857 1.490 . S
C862 C864 1.395 . S
C862 C865 1.403 . S
H863 C869 0.930 . S
C864 H850 0.930 . S
C864 C862 1.395 . S
C864 C867 1.403 . S
C865 C862 1.403 . S
C865 C866 1.524 . S
C865 C869 1.400 . S
C866 H851 0.960 . S
C866 H852 0.960 . S
C866 H853 0.960 . S
C866 C865 1.524 . S
C867 C864 1.403 . S
C867 C868 1.392 . S
C867 C871 1.495 . S
C868 C867 1.392 . S
C868 C869 1.385 . S
C868 C870 1.478 . S
C869 H863 0.930 . S
C869 C865 1.400 . S
C869 C868 1.385 . S
C870 C868 1.478 . S
C870 C872 1.381 . S
C870 C876 1.383 . S
C871 C867 1.495 . S
C871 H877 0.959 . S
C871 H878 0.961 . S
C871 H879 0.960 . S
C872 C870 1.381 . S
C872 C873 1.394 . S
C872 H880 0.930 . S
C873 C872 1.394 . S
C873 C874 1.383 . S
C873 H881 0.929 . S
C874 C873 1.383 . S
C874 C875 1.377 . S
C875 H859 0.930 . S
C875 C874 1.377 . S
C875 C876 1.379 . S
C876 H860 0.931 . S
C876 C870 1.383 . S
C876 C875 1.379 . S
H877 C871 0.959 . S
H878 C871 0.961 . S
H879 C871 0.960 . S
H880 C872 0.930 . S
H881 C873 0.929 . S
H882 C890 0.929 . S
H883 C892 0.930 . S
H884 C894 0.930 . S
H885 C897 0.929 . S
H886 C900 0.930 . S
H887 C902 0.960 . S
H888 C902 0.960 . S
H889 C902 0.960 . S
C890 H882 0.929 . S
C890 C891 1.377 . S
C890 C892 1.384 . S
C891 C890 1.377 . S
C891 C897 1.390 . S
C892 H883 0.930 . S
C892 C890 1.384 . S
C892 C893 1.372 . S
C893 C892 1.372 . S
C893 C894 1.400 . S
C893 C898 1.490 . S
C894 H884 0.930 . S
C894 C893 1.400 . S
C894 C897 1.386 . S
H895 C911 0.930 . S
H896 C912 0.931 . S
C897 H885 0.929 . S
C897 C891 1.390 . S
C897 C894 1.386 . S
C898 C893 1.490 . S
C898 C900 1.395 . S
C898 C901 1.403 . S
H899 C905 0.930 . S
C900 H886 0.930 . S
C900 C898 1.395 . S
C900 C903 1.403 . S
C901 C898 1.403 . S
C901 C902 1.524 . S
C901 C905 1.400 . S
C902 H887 0.960 . S
C902 H888 0.960 . S
C902 H889 0.960 . S
C902 C901 1.524 . S
C903 C900 1.403 . S
C903 C904 1.392 . S
C903 C907 1.495 . S
C904 C903 1.392 . S
C904 C905 1.385 . S
C904 C906 1.478 . S
C905 H899 0.930 . S
C905 C901 1.400 . S
C905 C904 1.385 . S
C906 C904 1.478 . S
C906 C908 1.381 . S
C906 C912 1.383 . S
C907 C903 1.495 . S
C907 H913 0.959 . S
C907 H914 0.961 . S
C907 H915 0.960 . S
C908 C906 1.381 . S
C908 C909 1.394 . S
C908 H916 0.930 . S
C909 C908 1.394 . S
C909 C910 1.383 . S
C909 H917 0.929 . S
C910 C909 1.383 . S
C910 C911 1.377 . S
C911 H895 0.930 . S
C911 C910 1.377 . S
C911 C912 1.379 . S
C912 H896 0.931 . S
C912 C906 1.383 . S
C912 C911 1.379 . S
H913 C907 0.959 . S
H914 C907 0.961 . S
H915 C907 0.960 . S
H916 C908 0.930 . S
H917 C909 0.929 . S
H918 C926 0.929 . S
H919 C928 0.930 . S
H920 C930 0.930 . S
H921 C933 0.929 . S
H922 C936 0.930 . S
H923 C938 0.960 . S
H924 C938 0.960 . S
H925 C938 0.960 . S
C926 H918 0.929 . S
C926 C927 1.377 . S
C926 C928 1.384 . S
C927 C926 1.377 . S
C927 C933 1.390 . S
C928 H919 0.930 . S
C928 C926 1.384 . S
C928 C929 1.372 . S
C929 C928 1.372 . S
C929 C930 1.400 . S
C929 C934 1.490 . S
C930 H920 0.930 . S
C930 C929 1.400 . S
C930 C933 1.386 . S
H931 C947 0.930 . S
H932 C948 0.931 . S
C933 H921 0.929 . S
C933 C927 1.390 . S
C933 C930 1.386 . S
C934 C929 1.490 . S
C934 C936 1.395 . S
C934 C937 1.403 . S
H935 C941 0.930 . S
C936 H922 0.930 . S
C936 C934 1.395 . S
C936 C939 1.403 . S
C937 C934 1.403 . S
C937 C938 1.524 . S
C937 C941 1.400 . S
C938 H923 0.960 . S
C938 H924 0.960 . S
C938 H925 0.960 . S
C938 C937 1.524 . S
C939 C936 1.403 . S
C939 C940 1.392 . S
C939 C943 1.495 . S
C940 C939 1.392 . S
C940 C941 1.385 . S
C940 C942 1.478 . S
C941 H935 0.930 . S
C941 C937 1.400 . S
C941 C940 1.385 . S
C942 C940 1.478 . S
C942 C944 1.381 . S
C942 C948 1.383 . S
C943 C939 1.495 . S
C943 H949 0.959 . S
C943 H950 0.961 . S
C943 H951 0.960 . S
C944 C942 1.381 . S
C944 C945 1.394 . S
C944 H952 0.930 . S
C945 C944 1.394 . S
C945 C946 1.383 . S
C945 H953 0.929 . S
C946 C945 1.383 . S
C946 C947 1.377 . S
C947 H931 0.930 . S
C947 C946 1.377 . S
C947 C948 1.379 . S
C948 H932 0.931 . S
C948 C942 1.383 . S
C948 C947 1.379 . S
H949 C943 0.959 . S
H950 C943 0.961 . S
H951 C943 0.960 . S
H952 C944 0.930 . S
H953 C945 0.929 . S
H954 C962 0.929 . S
H955 C964 0.930 . S
H956 C966 0.930 . S
H957 C969 0.929 . S
H958 C972 0.930 . S
H959 C974 0.960 1_455 S
H960 C974 0.960 . S
H961 C974 0.960 . S
C962 H954 0.929 . S
C962 C963 1.377 . S
C962 C964 1.384 . S
C963 C962 1.377 . S
C963 C969 1.390 . S
C964 H955 0.930 . S
C964 C962 1.384 . S
C964 C965 1.372 . S
C965 C964 1.372 . S
C965 C966 1.400 . S
C965 C970 1.490 . S
C966 H956 0.930 . S
C966 C965 1.400 . S
C966 C969 1.386 . S
H967 C983 0.930 . S
H968 C984 0.931 . S
C969 H957 0.929 . S
C969 C963 1.390 . S
C969 C966 1.386 . S
C970 C965 1.490 . S
C970 C972 1.395 . S
C970 C973 1.403 . S
H971 C977 0.930 . S
C972 H958 0.930 . S
C972 C970 1.395 . S
C972 C975 1.403 1_655 S
C973 C970 1.403 . S
C973 C974 1.524 . S
C973 C977 1.400 1_655 S
C974 H959 0.960 1_655 S
C974 H960 0.960 . S
C974 H961 0.960 . S
C974 C973 1.524 . S
C975 C972 1.403 1_455 S
C975 C976 1.392 . S
C975 C979 1.495 . S
C976 C975 1.392 . S
C976 C977 1.385 . S
C976 C978 1.478 . S
C977 H971 0.930 . S
C977 C973 1.400 1_455 S
C977 C976 1.385 . S
C978 C976 1.478 . S
C978 C980 1.381 . S
C978 C984 1.383 . S
C979 C975 1.495 . S
C979 H985 0.959 . S
C979 H986 0.961 . S
C979 H987 0.960 . S
C980 C978 1.381 . S
C980 C981 1.394 . S
C980 H988 0.930 . S
C981 C980 1.394 . S
C981 C982 1.383 . S
C981 H989 0.929 . S
C982 C981 1.383 . S
C982 C983 1.377 . S
C983 H967 0.930 . S
C983 C982 1.377 . S
C983 C984 1.379 . S
C984 H968 0.931 . S
C984 C978 1.383 . S
C984 C983 1.379 . S
H985 C979 0.959 . S
H986 C979 0.961 . S
H987 C979 0.960 . S
H988 C980 0.930 . S
H989 C981 0.929 . S
H990 C998 0.929 . S
H991 C1000 0.930 . S
H992 C1002 0.930 . S
H993 C1005 0.929 . S
H994 C1008 0.930 . S
H995 C1010 0.960 . S
H996 C1010 0.960 . S
H997 C1010 0.960 . S
C998 H990 0.929 . S
C998 C999 1.377 . S
C998 C1000 1.384 . S
C999 C998 1.377 . S
C999 C1005 1.390 . S
C1000 H991 0.930 . S
C1000 C998 1.384 . S
C1000 C1001 1.372 . S
C1001 C1000 1.372 . S
C1001 C1002 1.400 . S
C1001 C1006 1.490 . S
C1002 H992 0.930 . S
C1002 C1001 1.400 . S
C1002 C1005 1.386 . S
H1003 C1019 0.930 . S
H1004 C1020 0.931 . S
C1005 H993 0.929 . S
C1005 C999 1.390 . S
C1005 C1002 1.386 . S
C1006 C1001 1.490 . S
C1006 C1008 1.395 . S
C1006 C1009 1.403 . S
H1007 C1013 0.930 . S
C1008 H994 0.930 . S
C1008 C1006 1.395 . S
C1008 C1011 1.403 . S
C1009 C1006 1.403 . S
C1009 C1010 1.524 . S
C1009 C1013 1.400 . S
C1010 H995 0.960 . S
C1010 H996 0.960 . S
C1010 H997 0.960 . S
C1010 C1009 1.524 . S
C1011 C1008 1.403 . S
C1011 C1012 1.392 . S
C1011 C1015 1.495 . S
C1012 C1011 1.392 . S
C1012 C1013 1.385 . S
C1012 C1014 1.478 . S
C1013 H1007 0.930 . S
C1013 C1009 1.400 . S
C1013 C1012 1.385 . S
C1014 C1012 1.478 . S
C1014 C1016 1.381 . S
C1014 C1020 1.383 . S
C1015 C1011 1.495 . S
C1015 H1021 0.959 . S
C1015 H1022 0.961 . S
C1015 H1023 0.960 . S
C1016 C1014 1.381 . S
C1016 C1017 1.394 . S
C1016 H1024 0.930 . S
C1017 C1016 1.394 . S
C1017 C1018 1.383 . S
C1017 H1025 0.929 . S
C1018 C1017 1.383 . S
C1018 C1019 1.377 . S
C1019 H1003 0.930 . S
C1019 C1018 1.377 . S
C1019 C1020 1.379 . S
C1020 H1004 0.931 . S
C1020 C1014 1.383 . S
C1020 C1019 1.379 . S
H1021 C1015 0.959 . S
H1022 C1015 0.961 . S
H1023 C1015 0.960 . S
H1024 C1016 0.930 . S
H1025 C1017 0.929 . S
H1026 C1034 0.929 . S
H1027 C1036 0.930 . S
H1028 C1038 0.930 . S
H1029 C1041 0.929 . S
H1030 C1044 0.930 . S
H1031 C1046 0.960 . S
H1032 C1046 0.960 . S
H1033 C1046 0.960 . S
C1034 H1026 0.929 . S
C1034 C1035 1.377 . S
C1034 C1036 1.384 . S
C1035 C1034 1.377 . S
C1035 C1041 1.390 . S
C1036 H1027 0.930 . S
C1036 C1034 1.384 . S
C1036 C1037 1.372 . S
C1037 C1036 1.372 . S
C1037 C1038 1.400 . S
C1037 C1042 1.490 . S
C1038 H1028 0.930 . S
C1038 C1037 1.400 . S
C1038 C1041 1.386 . S
H1039 C1055 0.930 . S
H1040 C1056 0.931 . S
C1041 H1029 0.929 . S
C1041 C1035 1.390 . S
C1041 C1038 1.386 . S
C1042 C1037 1.490 . S
C1042 C1044 1.395 . S
C1042 C1045 1.403 . S
H1043 C1049 0.930 . S
C1044 H1030 0.930 . S
C1044 C1042 1.395 . S
C1044 C1047 1.403 1_545 S
C1045 C1042 1.403 . S
C1045 C1046 1.524 . S
C1045 C1049 1.400 1_545 S
C1046 H1031 0.960 . S
C1046 H1032 0.960 . S
C1046 H1033 0.960 . S
C1046 C1045 1.524 . S
C1047 C1044 1.403 1_565 S
C1047 C1048 1.392 . S
C1047 C1051 1.495 . S
C1048 C1047 1.392 . S
C1048 C1049 1.385 . S
C1048 C1050 1.478 . S
C1049 H1043 0.930 . S
C1049 C1045 1.400 1_565 S
C1049 C1048 1.385 . S
C1050 C1048 1.478 . S
C1050 C1052 1.381 . S
C1050 C1056 1.383 . S
C1051 C1047 1.495 . S
C1051 H1057 0.959 . S
C1051 H1058 0.961 . S
C1051 H1059 0.960 . S
C1052 C1050 1.381 . S
C1052 C1053 1.394 . S
C1052 H1060 0.930 . S
C1053 C1052 1.394 . S
C1053 C1054 1.383 . S
C1053 H1061 0.929 . S
C1054 C1053 1.383 . S
C1054 C1055 1.377 . S
C1055 H1039 0.930 . S
C1055 C1054 1.377 . S
C1055 C1056 1.379 . S
C1056 H1040 0.931 . S
C1056 C1050 1.383 . S
C1056 C1055 1.379 . S
H1057 C1051 0.959 . S
H1058 C1051 0.961 . S
H1059 C1051 0.960 . S
H1060 C1052 0.930 . S
H1061 C1053 0.929 . S
H1062 C1070 0.929 . S
H1063 C1072 0.930 . S
H1064 C1074 0.930 . S
H1065 C1077 0.929 . S
H1066 C1080 0.930 . S
H1067 C1082 0.960 . S
H1068 C1082 0.960 . S
H1069 C1082 0.960 . S
C1070 H1062 0.929 . S
C1070 C1071 1.377 . S
C1070 C1072 1.384 . S
C1071 C1070 1.377 . S
C1071 C1077 1.390 . S
C1072 H1063 0.930 . S
C1072 C1070 1.384 . S
C1072 C1073 1.372 . S
C1073 C1072 1.372 . S
C1073 C1074 1.400 . S
C1073 C1078 1.490 . S
C1074 H1064 0.930 . S
C1074 C1073 1.400 . S
C1074 C1077 1.386 . S
H1075 C1091 0.930 . S
H1076 C1092 0.931 . S
C1077 H1065 0.929 . S
C1077 C1071 1.390 . S
C1077 C1074 1.386 . S
C1078 C1073 1.490 . S
C1078 C1080 1.395 . S
C1078 C1081 1.403 . S
H1079 C1085 0.930 . S
C1080 H1066 0.930 . S
C1080 C1078 1.395 . S
C1080 C1083 1.403 . S
C1081 C1078 1.403 . S
C1081 C1082 1.524 . S
C1081 C1085 1.400 . S
C1082 H1067 0.960 . S
C1082 H1068 0.960 . S
C1082 H1069 0.960 . S
C1082 C1081 1.524 . S
C1083 C1080 1.403 . S
C1083 C1084 1.392 . S
C1083 C1087 1.495 . S
C1084 C1083 1.392 . S
C1084 C1085 1.385 . S
C1084 C1086 1.478 . S
C1085 H1079 0.930 . S
C1085 C1081 1.400 . S
C1085 C1084 1.385 . S
C1086 C1084 1.478 . S
C1086 C1088 1.381 . S
C1086 C1092 1.383 . S
C1087 C1083 1.495 . S
C1087 H1093 0.959 . S
C1087 H1094 0.961 . S
C1087 H1095 0.960 . S
C1088 C1086 1.381 . S
C1088 C1089 1.394 . S
C1088 H1096 0.930 . S
C1089 C1088 1.394 . S
C1089 C1090 1.383 . S
C1089 H1097 0.929 . S
C1090 C1089 1.383 . S
C1090 C1091 1.377 . S
C1091 H1075 0.930 . S
C1091 C1090 1.377 . S
C1091 C1092 1.379 . S
C1092 H1076 0.931 . S
C1092 C1086 1.383 . S
C1092 C1091 1.379 . S
H1093 C1087 0.959 . S
H1094 C1087 0.961 . S
H1095 C1087 0.960 . S
H1096 C1088 0.930 . S
H1097 C1089 0.929 . S
H1098 C1106 0.929 . S
H1099 C1108 0.930 . S
H1100 C1110 0.930 . S
H1101 C1113 0.929 . S
H1102 C1116 0.930 . S
H1103 C1118 0.960 . S
H1104 C1118 0.960 . S
H1105 C1118 0.960 . S
C1106 H1098 0.929 . S
C1106 C1107 1.377 . S
C1106 C1108 1.384 . S
C1107 C1106 1.377 . S
C1107 C1113 1.390 . S
C1108 H1099 0.930 . S
C1108 C1106 1.384 . S
C1108 C1109 1.372 . S
C1109 C1108 1.372 . S
C1109 C1110 1.400 . S
C1109 C1114 1.490 . S
C1110 H1100 0.930 . S
C1110 C1109 1.400 . S
C1110 C1113 1.386 . S
H1111 C1127 0.930 . S
H1112 C1128 0.931 . S
C1113 H1101 0.929 . S
C1113 C1107 1.390 . S
C1113 C1110 1.386 . S
C1114 C1109 1.490 . S
C1114 C1116 1.395 . S
C1114 C1117 1.403 . S
H1115 C1121 0.930 . S
C1116 H1102 0.930 . S
C1116 C1114 1.395 . S
C1116 C1119 1.403 . S
C1117 C1114 1.403 . S
C1117 C1118 1.524 . S
C1117 C1121 1.400 . S
C1118 H1103 0.960 . S
C1118 H1104 0.960 . S
C1118 H1105 0.960 . S
C1118 C1117 1.524 . S
C1119 C1116 1.403 . S
C1119 C1120 1.392 . S
C1119 C1123 1.495 . S
C1120 C1119 1.392 . S
C1120 C1121 1.385 . S
C1120 C1122 1.478 . S
C1121 H1115 0.930 . S
C1121 C1117 1.400 . S
C1121 C1120 1.385 . S
C1122 C1120 1.478 . S
C1122 C1124 1.381 . S
C1122 C1128 1.383 . S
C1123 C1119 1.495 . S
C1123 H1129 0.959 . S
C1123 H1130 0.961 . S
C1123 H1131 0.960 . S
C1124 C1122 1.381 . S
C1124 C1125 1.394 . S
C1124 H1132 0.930 . S
C1125 C1124 1.394 . S
C1125 C1126 1.383 . S
C1125 H1133 0.929 . S
C1126 C1125 1.383 . S
C1126 C1127 1.377 . S
C1127 H1111 0.930 . S
C1127 C1126 1.377 . S
C1127 C1128 1.379 . S
C1128 H1112 0.931 . S
C1128 C1122 1.383 . S
C1128 C1127 1.379 . S
H1129 C1123 0.959 . S
H1130 C1123 0.961 . S
H1131 C1123 0.960 . S
H1132 C1124 0.930 . S
H1133 C1125 0.929 . S
H1134 C1142 0.929 . S
H1135 C1144 0.930 . S
H1136 C1146 0.930 . S
H1137 C1149 0.929 . S
H1138 C1152 0.930 . S
H1139 C1154 0.960 . S
H1140 C1154 0.960 . S
H1141 C1154 0.960 . S
C1142 H1134 0.929 . S
C1142 C1143 1.377 . S
C1142 C1144 1.384 . S
C1143 C1142 1.377 . S
C1143 C1149 1.390 . S
C1144 H1135 0.930 . S
C1144 C1142 1.384 . S
C1144 C1145 1.372 . S
C1145 C1144 1.372 . S
C1145 C1146 1.400 . S
C1145 C1150 1.490 . S
C1146 H1136 0.930 . S
C1146 C1145 1.400 . S
C1146 C1149 1.386 . S
H1147 C1163 0.930 . S
H1148 C1164 0.931 . S
C1149 H1137 0.929 . S
C1149 C1143 1.390 . S
C1149 C1146 1.386 . S
C1150 C1145 1.490 . S
C1150 C1152 1.395 . S
C1150 C1153 1.403 . S
H1151 C1157 0.930 . S
C1152 H1138 0.930 . S
C1152 C1150 1.395 . S
C1152 C1155 1.403 . S
C1153 C1150 1.403 . S
C1153 C1154 1.524 . S
C1153 C1157 1.400 . S
C1154 H1139 0.960 . S
C1154 H1140 0.960 . S
C1154 H1141 0.960 . S
C1154 C1153 1.524 . S
C1155 C1152 1.403 . S
C1155 C1156 1.392 . S
C1155 C1159 1.495 . S
C1156 C1155 1.392 . S
C1156 C1157 1.385 . S
C1156 C1158 1.478 . S
C1157 H1151 0.930 . S
C1157 C1153 1.400 . S
C1157 C1156 1.385 . S
C1158 C1156 1.478 . S
C1158 C1160 1.381 . S
C1158 C1164 1.383 . S
C1159 C1155 1.495 . S
C1159 H1165 0.959 . S
C1159 H1166 0.961 . S
C1159 H1167 0.960 . S
C1160 C1158 1.381 . S
C1160 C1161 1.394 . S
C1160 H1168 0.930 . S
C1161 C1160 1.394 . S
C1161 C1162 1.383 . S
C1161 H1169 0.929 . S
C1162 C1161 1.383 . S
C1162 C1163 1.377 . S
C1163 H1147 0.930 . S
C1163 C1162 1.377 . S
C1163 C1164 1.379 . S
C1164 H1148 0.931 . S
C1164 C1158 1.383 . S
C1164 C1163 1.379 . S
H1165 C1159 0.959 . S
H1166 C1159 0.961 . S
H1167 C1159 0.960 . S
H1168 C1160 0.930 . S
H1169 C1161 0.929 . S
H1170 C1178 0.929 . S
H1171 C1180 0.930 . S
H1172 C1182 0.930 . S
H1173 C1185 0.929 . S
H1174 C1188 0.930 . S
H1175 C1190 0.960 . S
H1176 C1190 0.960 . S
H1177 C1190 0.960 . S
C1178 H1170 0.929 . S
C1178 C1179 1.377 . S
C1178 C1180 1.384 . S
C1179 C1178 1.377 . S
C1179 C1185 1.390 . S
C1180 H1171 0.930 . S
C1180 C1178 1.384 . S
C1180 C1181 1.372 . S
C1181 C1180 1.372 . S
C1181 C1182 1.400 . S
C1181 C1186 1.490 . S
C1182 H1172 0.930 . S
C1182 C1181 1.400 . S
C1182 C1185 1.386 . S
H1183 C1199 0.930 . S
H1184 C1200 0.931 . S
C1185 H1173 0.929 . S
C1185 C1179 1.390 . S
C1185 C1182 1.386 . S
C1186 C1181 1.490 . S
C1186 C1188 1.395 . S
C1186 C1189 1.403 . S
H1187 C1193 0.930 . S
C1188 H1174 0.930 . S
C1188 C1186 1.395 . S
C1188 C1191 1.403 . S
C1189 C1186 1.403 . S
C1189 C1190 1.524 . S
C1189 C1193 1.400 . S
C1190 H1175 0.960 . S
C1190 H1176 0.960 . S
C1190 H1177 0.960 . S
C1190 C1189 1.524 . S
C1191 C1188 1.403 . S
C1191 C1192 1.392 . S
C1191 C1195 1.495 . S
C1192 C1191 1.392 . S
C1192 C1193 1.385 . S
C1192 C1194 1.478 . S
C1193 H1187 0.930 . S
C1193 C1189 1.400 . S
C1193 C1192 1.385 . S
C1194 C1192 1.478 . S
C1194 C1196 1.381 . S
C1194 C1200 1.383 . S
C1195 C1191 1.495 . S
C1195 H1201 0.959 . S
C1195 H1202 0.961 . S
C1195 H1203 0.960 . S
C1196 C1194 1.381 . S
C1196 C1197 1.394 . S
C1196 H1204 0.930 . S
C1197 C1196 1.394 . S
C1197 C1198 1.383 . S
C1197 H1205 0.929 . S
C1198 C1197 1.383 . S
C1198 C1199 1.377 . S
C1199 H1183 0.930 . S
C1199 C1198 1.377 . S
C1199 C1200 1.379 . S
C1200 H1184 0.931 . S
C1200 C1194 1.383 . S
C1200 C1199 1.379 . S
H1201 C1195 0.959 . S
H1202 C1195 0.961 . S
H1203 C1195 0.960 . S
H1204 C1196 0.930 . S
H1205 C1197 0.929 . S
H1206 C1214 0.929 . S
H1207 C1216 0.930 . S
H1208 C1218 0.930 . S
H1209 C1221 0.929 . S
H1210 C1224 0.930 . S
H1211 C1226 0.960 . S
H1212 C1226 0.960 . S
H1213 C1226 0.960 . S
C1214 H1206 0.929 . S
C1214 C1215 1.377 . S
C1214 C1216 1.384 . S
C1215 C1214 1.377 . S
C1215 C1221 1.390 . S
C1216 H1207 0.930 . S
C1216 C1214 1.384 . S
C1216 C1217 1.372 . S
C1217 C1216 1.372 . S
C1217 C1218 1.400 . S
C1217 C1222 1.490 . S
C1218 H1208 0.930 . S
C1218 C1217 1.400 . S
C1218 C1221 1.386 . S
H1219 C1235 0.930 . S
H1220 C1236 0.931 . S
C1221 H1209 0.929 . S
C1221 C1215 1.390 . S
C1221 C1218 1.386 . S
C1222 C1217 1.490 . S
C1222 C1224 1.395 . S
C1222 C1225 1.403 . S
H1223 C1229 0.930 . S
C1224 H1210 0.930 . S
C1224 C1222 1.395 . S
C1224 C1227 1.403 . S
C1225 C1222 1.403 . S
C1225 C1226 1.524 . S
C1225 C1229 1.400 . S
C1226 H1211 0.960 . S
C1226 H1212 0.960 . S
C1226 H1213 0.960 . S
C1226 C1225 1.524 . S
C1227 C1224 1.403 . S
C1227 C1228 1.392 . S
C1227 C1231 1.495 . S
C1228 C1227 1.392 . S
C1228 C1229 1.385 . S
C1228 C1230 1.478 . S
C1229 H1223 0.930 . S
C1229 C1225 1.400 . S
C1229 C1228 1.385 . S
C1230 C1228 1.478 . S
C1230 C1232 1.381 . S
C1230 C1236 1.383 . S
C1231 C1227 1.495 . S
C1231 H1237 0.959 . S
C1231 H1238 0.961 . S
C1231 H1239 0.960 . S
C1232 C1230 1.381 . S
C1232 C1233 1.394 . S
C1232 H1240 0.930 . S
C1233 C1232 1.394 . S
C1233 C1234 1.383 . S
C1233 H1241 0.929 . S
C1234 C1233 1.383 . S
C1234 C1235 1.377 . S
C1235 H1219 0.930 . S
C1235 C1234 1.377 . S
C1235 C1236 1.379 . S
C1236 H1220 0.931 . S
C1236 C1230 1.383 . S
C1236 C1235 1.379 . S
H1237 C1231 0.959 . S
H1238 C1231 0.961 . S
H1239 C1231 0.960 . S
H1240 C1232 0.930 . S
H1241 C1233 0.929 . S
H1242 C1250 0.929 . S
H1243 C1252 0.930 . S
H1244 C1254 0.930 . S
H1245 C1257 0.929 . S
H1246 C1260 0.930 . S
H1247 C1262 0.960 . S
H1248 C1262 0.960 . S
H1249 C1262 0.960 . S
C1250 H1242 0.929 . S
C1250 C1251 1.377 . S
C1250 C1252 1.384 . S
C1251 C1250 1.377 . S
C1251 C1257 1.390 . S
C1252 H1243 0.930 . S
C1252 C1250 1.384 . S
C1252 C1253 1.372 . S
C1253 C1252 1.372 . S
C1253 C1254 1.400 . S
C1253 C1258 1.490 . S
C1254 H1244 0.930 . S
C1254 C1253 1.400 . S
C1254 C1257 1.386 . S
H1255 C1271 0.930 . S
H1256 C1272 0.931 . S
C1257 H1245 0.929 . S
C1257 C1251 1.390 . S
C1257 C1254 1.386 . S
C1258 C1253 1.490 . S
C1258 C1260 1.395 . S
C1258 C1261 1.403 . S
H1259 C1265 0.930 . S
C1260 H1246 0.930 . S
C1260 C1258 1.395 . S
C1260 C1263 1.403 . S
C1261 C1258 1.403 . S
C1261 C1262 1.524 . S
C1261 C1265 1.400 . S
C1262 H1247 0.960 . S
C1262 H1248 0.960 . S
C1262 H1249 0.960 . S
C1262 C1261 1.524 . S
C1263 C1260 1.403 . S
C1263 C1264 1.392 . S
C1263 C1267 1.495 . S
C1264 C1263 1.392 . S
C1264 C1265 1.385 . S
C1264 C1266 1.478 . S
C1265 H1259 0.930 . S
C1265 C1261 1.400 . S
C1265 C1264 1.385 . S
C1266 C1264 1.478 . S
C1266 C1268 1.381 . S
C1266 C1272 1.383 . S
C1267 C1263 1.495 . S
C1267 H1273 0.959 . S
C1267 H1274 0.961 . S
C1267 H1275 0.960 . S
C1268 C1266 1.381 . S
C1268 C1269 1.394 . S
C1268 H1276 0.930 . S
C1269 C1268 1.394 . S
C1269 C1270 1.383 . S
C1269 H1277 0.929 . S
C1270 C1269 1.383 . S
C1270 C1271 1.377 . S
C1271 H1255 0.930 . S
C1271 C1270 1.377 . S
C1271 C1272 1.379 . S
C1272 H1256 0.931 . S
C1272 C1266 1.383 . S
C1272 C1271 1.379 . S
H1273 C1267 0.959 . S
H1274 C1267 0.961 . S
H1275 C1267 0.960 . S
H1276 C1268 0.930 . S
H1277 C1269 0.929 . S
H1278 C1286 0.929 . S
H1279 C1288 0.930 . S
H1280 C1290 0.930 . S
H1281 C1293 0.929 . S
H1282 C1296 0.930 . S
H1283 C1298 0.981 . S
H1284 C1298 0.960 . S
H1285 C1298 0.960 . S
C1286 H1278 0.929 . S
C1286 C1287 1.377 . S
C1286 C1288 1.384 . S
C1287 C1286 1.377 . S
C1287 C1293 1.390 . S
C1288 H1279 0.930 . S
C1288 C1286 1.384 . S
C1288 C1289 1.372 . S
C1289 C1288 1.372 . S
C1289 C1290 1.400 . S
C1289 C1294 1.490 . S
C1290 H1280 0.930 . S
C1290 C1289 1.400 . S
C1290 C1293 1.386 . S
H1291 C1307 0.930 . S
H1292 C1308 0.931 . S
C1293 H1281 0.929 . S
C1293 C1287 1.390 . S
C1293 C1290 1.386 . S
C1294 C1289 1.490 . S
C1294 C1296 1.395 . S
C1294 C1297 1.403 . S
H1295 C1301 0.930 . S
C1296 H1282 0.930 . S
C1296 C1294 1.395 . S
C1296 C1299 1.444 . S
C1297 C1294 1.403 . S
C1297 C1298 1.524 . S
C1297 C1301 1.400 1_545 S
C1298 H1283 0.981 . S
C1298 H1284 0.960 . S
C1298 H1285 0.960 . S
C1298 C1297 1.524 . S
C1299 C1296 1.444 . S
C1299 C1300 1.352 1_545 S
C1299 C1303 1.498 1_545 S
C1300 C1299 1.352 1_565 S
C1300 C1301 1.385 . S
C1300 C1302 1.478 . S
C1301 H1295 0.930 . S
C1301 C1297 1.400 1_565 S
C1301 C1300 1.385 . S
C1302 C1300 1.478 . S
C1302 C1304 1.381 . S
C1302 C1308 1.383 . S
C1303 C1299 1.498 1_565 S
C1303 H1309 0.959 1_565 S
C1303 H1310 0.961 . S
C1303 H1311 0.960 . S
C1304 C1302 1.381 . S
C1304 C1305 1.394 . S
C1304 H1312 0.930 . S
C1305 C1304 1.394 . S
C1305 C1306 1.383 . S
C1305 H1313 0.929 . S
C1306 C1305 1.383 . S
C1306 C1307 1.377 . S
C1307 H1291 0.930 . S
C1307 C1306 1.377 . S
C1307 C1308 1.379 . S
C1308 H1292 0.931 . S
C1308 C1302 1.383 . S
C1308 C1307 1.379 . S
H1309 C1303 0.959 1_545 S
H1310 C1303 0.961 . S
H1311 C1303 0.960 . S
H1312 C1304 0.930 . S
H1313 C1305 0.929 . S
H1314 C1322 0.929 . S
H1315 C1324 0.930 . S
H1316 C1326 0.930 . S
H1317 C1329 0.929 . S
H1318 C1332 0.930 . S
H1319 C1334 0.960 . S
H1320 C1334 0.960 . S
H1321 C1334 0.960 . S
C1322 H1314 0.929 . S
C1322 C1323 1.377 . S
C1322 C1324 1.384 . S
C1323 C1322 1.377 . S
C1323 C1329 1.390 . S
C1324 H1315 0.930 . S
C1324 C1322 1.384 . S
C1324 C1325 1.372 . S
C1325 C1324 1.372 . S
C1325 C1326 1.400 . S
C1325 C1330 1.490 . S
C1326 H1316 0.930 . S
C1326 C1325 1.400 . S
C1326 C1329 1.386 . S
H1327 C1343 0.930 . S
H1328 C1344 0.931 . S
C1329 H1317 0.929 . S
C1329 C1323 1.390 . S
C1329 C1326 1.386 . S
C1330 C1325 1.490 . S
C1330 C1332 1.395 1_655 S
C1330 C1333 1.403 . S
H1331 C1337 0.930 . S
C1332 H1318 0.930 . S
C1332 C1330 1.395 1_455 S
C1332 C1335 1.403 . S
C1333 C1330 1.403 . S
C1333 C1334 1.524 . S
C1333 C1337 1.400 1_655 S
C1334 H1319 0.960 . S
C1334 H1320 0.960 . S
C1334 H1321 0.960 . S
C1334 C1333 1.524 . S
C1335 C1332 1.403 . S
C1335 C1336 1.392 . S
C1335 C1339 1.495 . S
C1336 C1335 1.392 . S
C1336 C1337 1.385 . S
C1336 C1338 1.478 . S
C1337 H1331 0.930 . S
C1337 C1333 1.400 1_455 S
C1337 C1336 1.385 . S
C1338 C1336 1.478 . S
C1338 C1340 1.381 . S
C1338 C1344 1.383 . S
C1339 C1335 1.495 . S
C1339 H1345 0.959 . S
C1339 H1346 0.961 . S
C1339 H1347 0.960 . S
C1340 C1338 1.381 . S
C1340 C1341 1.394 . S
C1340 H1348 0.930 . S
C1341 C1340 1.394 . S
C1341 C1342 1.383 . S
C1341 H1349 0.929 . S
C1342 C1341 1.383 . S
C1342 C1343 1.377 . S
C1343 H1327 0.930 . S
C1343 C1342 1.377 . S
C1343 C1344 1.379 . S
C1344 H1328 0.931 . S
C1344 C1338 1.383 . S
C1344 C1343 1.379 . S
H1345 C1339 0.959 . S
H1346 C1339 0.961 . S
H1347 C1339 0.960 . S
H1348 C1340 0.930 . S
H1349 C1341 0.929 . S
H1350 C1358 0.929 . S
H1351 C1360 0.930 . S
H1352 C1362 0.930 . S
H1353 C1365 0.929 . S
H1354 C1368 0.930 . S
H1355 C1370 0.960 . S
H1356 C1370 0.960 . S
H1357 C1370 0.960 . S
C1358 H1350 0.929 . S
C1358 C1359 1.377 . S
C1358 C1360 1.384 . S
C1359 C1358 1.377 . S
C1359 C1365 1.390 . S
C1360 H1351 0.930 . S
C1360 C1358 1.384 . S
C1360 C1361 1.372 . S
C1361 C1360 1.372 . S
C1361 C1362 1.400 . S
C1361 C1366 1.490 . S
C1362 H1352 0.930 . S
C1362 C1361 1.400 . S
C1362 C1365 1.386 . S
H1363 C1379 0.930 . S
H1364 C1380 0.931 . S
C1365 H1353 0.929 . S
C1365 C1359 1.390 . S
C1365 C1362 1.386 . S
C1366 C1361 1.490 . S
C1366 C1368 1.395 . S
C1366 C1369 1.403 . S
H1367 C1373 0.930 . S
C1368 H1354 0.930 . S
C1368 C1366 1.395 . S
C1368 C1371 1.403 . S
C1369 C1366 1.403 . S
C1369 C1370 1.524 . S
C1369 C1373 1.400 . S
C1370 H1355 0.960 . S
C1370 H1356 0.960 . S
C1370 H1357 0.960 . S
C1370 C1369 1.524 . S
C1371 C1368 1.403 . S
C1371 C1372 1.392 . S
C1371 C1375 1.495 . S
C1372 C1371 1.392 . S
C1372 C1373 1.385 . S
C1372 C1374 1.478 . S
C1373 H1367 0.930 . S
C1373 C1369 1.400 . S
C1373 C1372 1.385 . S
C1374 C1372 1.478 . S
C1374 C1376 1.381 . S
C1374 C1380 1.383 . S
C1375 C1371 1.495 . S
C1375 H1381 0.959 . S
C1375 H1382 0.961 . S
C1375 H1383 0.960 . S
C1376 C1374 1.381 . S
C1376 C1377 1.394 . S
C1376 H1384 0.930 . S
C1377 C1376 1.394 . S
C1377 C1378 1.383 . S
C1377 H1385 0.929 . S
C1378 C1377 1.383 . S
C1378 C1379 1.377 . S
C1379 H1363 0.930 . S
C1379 C1378 1.377 . S
C1379 C1380 1.379 . S
C1380 H1364 0.931 . S
C1380 C1374 1.383 . S
C1380 C1379 1.379 . S
H1381 C1375 0.959 . S
H1382 C1375 0.961 . S
H1383 C1375 0.960 . S
H1384 C1376 0.930 . S
H1385 C1377 0.929 . S
H1386 C1394 0.929 . S
H1387 C1396 0.930 . S
H1388 C1398 0.930 . S
H1389 C1401 0.929 . S
H1390 C1404 0.930 . S
H1391 C1406 0.960 . S
H1392 C1406 0.960 . S
H1393 C1406 0.960 . S
C1394 H1386 0.929 . S
C1394 C1395 1.377 . S
C1394 C1396 1.384 . S
C1395 C1394 1.377 . S
C1395 C1401 1.390 . S
C1396 H1387 0.930 . S
C1396 C1394 1.384 . S
C1396 C1397 1.372 . S
C1397 C1396 1.372 . S
C1397 C1398 1.400 . S
C1397 C1402 1.490 . S
C1398 H1388 0.930 . S
C1398 C1397 1.400 . S
C1398 C1401 1.386 . S
H1399 C1415 0.930 . S
H1400 C1416 0.931 . S
C1401 H1389 0.929 . S
C1401 C1395 1.390 . S
C1401 C1398 1.386 . S
C1402 C1397 1.490 . S
C1402 C1404 1.395 . S
C1402 C1405 1.403 . S
H1403 C1409 0.930 . S
C1404 H1390 0.930 . S
C1404 C1402 1.395 . S
C1404 C1407 1.403 . S
C1405 C1402 1.403 . S
C1405 C1406 1.524 . S
C1405 C1409 1.400 . S
C1406 H1391 0.960 . S
C1406 H1392 0.960 . S
C1406 H1393 0.960 . S
C1406 C1405 1.524 . S
C1407 C1404 1.403 . S
C1407 C1408 1.392 . S
C1407 C1411 1.495 . S
C1408 C1407 1.392 . S
C1408 C1409 1.385 . S
C1408 C1410 1.478 . S
C1409 H1403 0.930 . S
C1409 C1405 1.400 . S
C1409 C1408 1.385 . S
C1410 C1408 1.478 . S
C1410 C1412 1.381 . S
C1410 C1416 1.383 . S
C1411 C1407 1.495 . S
C1411 H1417 0.959 . S
C1411 H1418 0.961 . S
C1411 H1419 0.960 . S
C1412 C1410 1.381 . S
C1412 C1413 1.394 . S
C1412 H1420 0.930 . S
C1413 C1412 1.394 . S
C1413 C1414 1.383 . S
C1413 H1421 0.929 . S
C1414 C1413 1.383 . S
C1414 C1415 1.377 . S
C1415 H1399 0.930 . S
C1415 C1414 1.377 . S
C1415 C1416 1.379 . S
C1416 H1400 0.931 . S
C1416 C1410 1.383 . S
C1416 C1415 1.379 . S
H1417 C1411 0.959 . S
H1418 C1411 0.961 . S
H1419 C1411 0.960 . S
H1420 C1412 0.930 . S
H1421 C1413 0.929 . S
H1422 C1430 0.929 . S
H1423 C1432 0.930 . S
H1424 C1434 0.930 . S
H1425 C1437 0.929 . S
H1426 C1440 0.930 . S
H1427 C1442 0.960 . S
H1428 C1442 0.960 . S
H1429 C1442 0.960 . S
C1430 H1422 0.929 . S
C1430 C1431 1.377 . S
C1430 C1432 1.384 . S
C1431 C1430 1.377 . S
C1431 C1437 1.390 . S
C1432 H1423 0.930 . S
C1432 C1430 1.384 . S
C1432 C1433 1.372 . S
C1433 C1432 1.372 . S
C1433 C1434 1.400 . S
C1433 C1438 1.490 . S
C1434 H1424 0.930 . S
C1434 C1433 1.400 . S
C1434 C1437 1.386 . S
H1435 C1451 0.930 . S
H1436 C1452 0.931 . S
C1437 H1425 0.929 . S
C1437 C1431 1.390 . S
C1437 C1434 1.386 . S
C1438 C1433 1.490 . S
C1438 C1440 1.395 . S
C1438 C1441 1.403 . S
H1439 C1445 0.930 . S
C1440 H1426 0.930 . S
C1440 C1438 1.395 . S
C1440 C1443 1.403 . S
C1441 C1438 1.403 . S
C1441 C1442 1.524 . S
C1441 C1445 1.400 . S
C1442 H1427 0.960 . S
C1442 H1428 0.960 . S
C1442 H1429 0.960 . S
C1442 C1441 1.524 . S
C1443 C1440 1.403 . S
C1443 C1444 1.392 . S
C1443 C1447 1.495 . S
C1444 C1443 1.392 . S
C1444 C1445 1.385 . S
C1444 C1446 1.478 . S
C1445 H1439 0.930 . S
C1445 C1441 1.400 . S
C1445 C1444 1.385 . S
C1446 C1444 1.478 . S
C1446 C1448 1.381 . S
C1446 C1452 1.383 . S
C1447 C1443 1.495 . S
C1447 H1453 0.959 . S
C1447 H1454 0.961 . S
C1447 H1455 0.960 . S
C1448 C1446 1.381 . S
C1448 C1449 1.394 . S
C1448 H1456 0.930 . S
C1449 C1448 1.394 . S
C1449 C1450 1.383 . S
C1449 H1457 0.929 . S
C1450 C1449 1.383 . S
C1450 C1451 1.377 . S
C1451 H1435 0.930 . S
C1451 C1450 1.377 . S
C1451 C1452 1.379 . S
C1452 H1436 0.931 . S
C1452 C1446 1.383 . S
C1452 C1451 1.379 . S
H1453 C1447 0.959 . S
H1454 C1447 0.961 . S
H1455 C1447 0.960 . S
H1456 C1448 0.930 . S
H1457 C1449 0.929 . S
H1458 C1466 0.929 . S
H1459 C1468 0.930 . S
H1460 C1470 0.930 . S
H1461 C1473 0.929 . S
H1462 C1476 0.930 . S
H1463 C1478 0.960 . S
H1464 C1478 0.960 . S
H1465 C1478 0.960 . S
C1466 H1458 0.929 . S
C1466 C1467 1.377 . S
C1466 C1468 1.384 . S
C1467 C1466 1.377 . S
C1467 C1473 1.390 . S
C1468 H1459 0.930 . S
C1468 C1466 1.384 . S
C1468 C1469 1.372 . S
C1469 C1468 1.372 . S
C1469 C1470 1.400 . S
C1469 C1474 1.490 . S
C1470 H1460 0.930 . S
C1470 C1469 1.400 . S
C1470 C1473 1.386 . S
H1471 C1487 0.930 . S
H1472 C1488 0.931 . S
C1473 H1461 0.929 . S
C1473 C1467 1.390 . S
C1473 C1470 1.386 . S
C1474 C1469 1.490 . S
C1474 C1476 1.395 . S
C1474 C1477 1.403 . S
H1475 C1481 0.930 . S
C1476 H1462 0.930 . S
C1476 C1474 1.395 . S
C1476 C1479 1.403 . S
C1477 C1474 1.403 . S
C1477 C1478 1.524 . S
C1477 C1481 1.400 . S
C1478 H1463 0.960 . S
C1478 H1464 0.960 . S
C1478 H1465 0.960 . S
C1478 C1477 1.524 . S
C1479 C1476 1.403 . S
C1479 C1480 1.392 . S
C1479 C1483 1.495 . S
C1480 C1479 1.392 . S
C1480 C1481 1.385 . S
C1480 C1482 1.478 . S
C1481 H1475 0.930 . S
C1481 C1477 1.400 . S
C1481 C1480 1.385 . S
C1482 C1480 1.478 . S
C1482 C1484 1.381 . S
C1482 C1488 1.383 . S
C1483 C1479 1.495 . S
C1483 H1489 0.959 . S
C1483 H1490 0.961 . S
C1483 H1491 0.960 . S
C1484 C1482 1.381 . S
C1484 C1485 1.394 . S
C1484 H1492 0.930 . S
C1485 C1484 1.394 . S
C1485 C1486 1.383 . S
C1485 H1493 0.929 . S
C1486 C1485 1.383 . S
C1486 C1487 1.377 . S
C1487 H1471 0.930 . S
C1487 C1486 1.377 . S
C1487 C1488 1.379 . S
C1488 H1472 0.931 . S
C1488 C1482 1.383 . S
C1488 C1487 1.379 . S
H1489 C1483 0.959 . S
H1490 C1483 0.961 . S
H1491 C1483 0.960 . S
H1492 C1484 0.930 . S
H1493 C1485 0.929 . S
H1494 C1502 0.929 . S
H1495 C1504 0.930 . S
H1496 C1506 0.930 . S
H1497 C1509 0.929 . S
H1498 C1512 0.930 . S
H1499 C1514 0.960 . S
H1500 C1514 0.960 . S
H1501 C1514 0.960 . S
C1502 H1494 0.929 . S
C1502 C1503 1.377 . S
C1502 C1504 1.384 . S
C1503 C1502 1.377 . S
C1503 C1509 1.390 . S
C1504 H1495 0.930 . S
C1504 C1502 1.384 . S
C1504 C1505 1.372 . S
C1505 C1504 1.372 . S
C1505 C1506 1.400 . S
C1505 C1510 1.490 . S
C1506 H1496 0.930 . S
C1506 C1505 1.400 . S
C1506 C1509 1.386 . S
H1507 C1523 0.930 . S
H1508 C1524 0.931 . S
C1509 H1497 0.929 . S
C1509 C1503 1.390 . S
C1509 C1506 1.386 . S
C1510 C1505 1.490 . S
C1510 C1512 1.395 . S
C1510 C1513 1.403 . S
H1511 C1517 0.930 . S
C1512 H1498 0.930 . S
C1512 C1510 1.395 . S
C1512 C1515 1.403 1_565 S
C1513 C1510 1.403 . S
C1513 C1514 1.524 . S
C1513 C1517 1.400 1_565 S
C1514 H1499 0.960 . S
C1514 H1500 0.960 . S
C1514 H1501 0.960 . S
C1514 C1513 1.524 . S
C1515 C1512 1.403 1_545 S
C1515 C1516 1.392 . S
C1515 C1519 1.495 . S
C1516 C1515 1.392 . S
C1516 C1517 1.385 . S
C1516 C1518 1.478 . S
C1517 H1511 0.930 . S
C1517 C1513 1.400 1_545 S
C1517 C1516 1.385 . S
C1518 C1516 1.478 . S
C1518 C1520 1.381 . S
C1518 C1524 1.383 . S
C1519 C1515 1.495 . S
C1519 H1525 0.959 . S
C1519 H1526 0.961 . S
C1519 H1527 0.960 . S
C1520 C1518 1.381 . S
C1520 C1521 1.394 . S
C1520 H1528 0.930 . S
C1521 C1520 1.394 . S
C1521 C1522 1.383 . S
C1521 H1529 0.929 . S
C1522 C1521 1.383 . S
C1522 C1523 1.377 . S
C1523 H1507 0.930 . S
C1523 C1522 1.377 . S
C1523 C1524 1.379 . S
C1524 H1508 0.931 . S
C1524 C1518 1.383 . S
C1524 C1523 1.379 . S
H1525 C1519 0.959 . S
H1526 C1519 0.961 . S
H1527 C1519 0.960 . S
H1528 C1520 0.930 . S
H1529 C1521 0.929 . S
H1530 C1538 0.929 . S
H1531 C1540 0.930 . S
H1532 C1542 0.930 . S
H1533 C1545 0.929 . S
H1534 C1548 0.927 1_455 S
H1535 C1550 0.960 1_655 S
H1536 C1550 0.960 . S
H1537 C1550 0.960 . S
C1538 H1530 0.929 . S
C1538 C1539 1.377 . S
C1538 C1540 1.384 . S
C1539 C1538 1.377 . S
C1539 C1545 1.390 . S
C1540 H1531 0.930 . S
C1540 C1538 1.384 . S
C1540 C1541 1.372 . S
C1541 C1540 1.372 . S
C1541 C1542 1.400 . S
C1541 C1546 1.490 . S
C1542 H1532 0.930 . S
C1542 C1541 1.400 . S
C1542 C1545 1.386 . S
H1543 C1559 0.930 . S
H1544 C1560 0.931 . S
C1545 H1533 0.929 . S
C1545 C1539 1.390 . S
C1545 C1542 1.386 . S
C1546 C1541 1.490 . S
C1546 C1548 1.358 1_455 S
C1546 C1549 1.403 1_455 S
H1547 C1553 0.930 . S
C1548 H1534 0.927 1_655 S
C1548 C1546 1.358 1_655 S
C1548 C1551 1.444 . S
C1549 C1546 1.403 1_655 S
C1549 C1550 1.524 1_655 S
C1549 C1553 1.400 . S
C1550 H1535 0.960 1_455 S
C1550 H1536 0.960 . S
C1550 H1537 0.960 . S
C1550 C1549 1.524 1_455 S
C1551 C1548 1.444 . S
C1551 C1552 1.392 . S
C1551 C1555 1.495 . S
C1552 C1551 1.392 . S
C1552 C1553 1.385 . S
C1552 C1554 1.478 . S
C1553 H1547 0.930 . S
C1553 C1549 1.400 . S
C1553 C1552 1.385 . S
C1554 C1552 1.478 . S
C1554 C1556 1.381 . S
C1554 C1560 1.383 . S
C1555 C1551 1.495 . S
C1555 H1561 0.959 . S
C1555 H1562 0.961 . S
C1555 H1563 0.960 . S
C1556 C1554 1.381 . S
C1556 C1557 1.394 . S
C1556 H1564 0.930 . S
C1557 C1556 1.394 . S
C1557 C1558 1.383 . S
C1557 H1565 0.929 . S
C1558 C1557 1.383 . S
C1558 C1559 1.377 . S
C1559 H1543 0.930 . S
C1559 C1558 1.377 . S
C1559 C1560 1.379 . S
C1560 H1544 0.931 . S
C1560 C1554 1.383 . S
C1560 C1559 1.379 . S
H1561 C1555 0.959 . S
H1562 C1555 0.961 . S
H1563 C1555 0.960 . S
H1564 C1556 0.930 . S
H1565 C1557 0.929 . S
H1566 C1574 0.929 . S
H1567 C1576 0.930 . S
H1568 C1578 0.930 . S
H1569 C1581 0.929 . S
H1570 C1584 0.930 . S
H1571 C1586 0.960 . S
H1572 C1586 0.960 . S
H1573 C1586 0.960 . S
C1574 H1566 0.929 . S
C1574 C1575 1.377 . S
C1574 C1576 1.384 . S
C1575 C1574 1.377 . S
C1575 C1581 1.390 . S
C1576 H1567 0.930 . S
C1576 C1574 1.384 . S
C1576 C1577 1.372 . S
C1577 C1576 1.372 . S
C1577 C1578 1.400 . S
C1577 C1582 1.490 . S
C1578 H1568 0.930 . S
C1578 C1577 1.400 . S
C1578 C1581 1.386 . S
H1579 C1595 0.930 . S
H1580 C1596 0.931 . S
C1581 H1569 0.929 . S
C1581 C1575 1.390 . S
C1581 C1578 1.386 . S
C1582 C1577 1.490 . S
C1582 C1584 1.395 . S
C1582 C1585 1.403 . S
H1583 C1589 0.930 . S
C1584 H1570 0.930 . S
C1584 C1582 1.395 . S
C1584 C1587 1.403 . S
C1585 C1582 1.403 . S
C1585 C1586 1.524 . S
C1585 C1589 1.400 . S
C1586 H1571 0.960 . S
C1586 H1572 0.960 . S
C1586 H1573 0.960 . S
C1586 C1585 1.524 . S
C1587 C1584 1.403 . S
C1587 C1588 1.392 . S
C1587 C1591 1.495 . S
C1588 C1587 1.392 . S
C1588 C1589 1.385 . S
C1588 C1590 1.478 . S
C1589 H1583 0.930 . S
C1589 C1585 1.400 . S
C1589 C1588 1.385 . S
C1590 C1588 1.478 . S
C1590 C1592 1.381 . S
C1590 C1596 1.383 . S
C1591 C1587 1.495 . S
C1591 H1597 0.959 . S
C1591 H1598 0.961 . S
C1591 H1599 0.960 . S
C1592 C1590 1.381 . S
C1592 C1593 1.394 . S
C1592 H1600 0.930 . S
C1593 C1592 1.394 . S
C1593 C1594 1.383 . S
C1593 H1601 0.929 . S
C1594 C1593 1.383 . S
C1594 C1595 1.377 . S
C1595 H1579 0.930 . S
C1595 C1594 1.377 . S
C1595 C1596 1.379 . S
C1596 H1580 0.931 . S
C1596 C1590 1.383 . S
C1596 C1595 1.379 . S
H1597 C1591 0.959 . S
H1598 C1591 0.961 . S
H1599 C1591 0.960 . S
H1600 C1592 0.930 . S
H1601 C1593 0.929 . S
H1602 C1610 0.929 . S
H1603 C1612 0.930 . S
H1604 C1614 0.930 . S
H1605 C1617 0.929 . S
H1606 C1620 0.930 . S
H1607 C1622 0.960 . S
H1608 C1622 0.960 1_455 S
H1609 C1622 0.960 1_455 S
C1610 H1602 0.929 . S
C1610 C1611 1.377 . S
C1610 C1612 1.384 . S
C1611 C1610 1.377 . S
C1611 C1617 1.390 . S
C1612 H1603 0.930 . S
C1612 C1610 1.384 . S
C1612 C1613 1.372 . S
C1613 C1612 1.372 . S
C1613 C1614 1.400 . S
C1613 C1618 1.490 . S
C1614 H1604 0.930 . S
C1614 C1613 1.400 . S
C1614 C1617 1.386 . S
H1615 C1631 0.930 . S
H1616 C1632 0.931 . S
C1617 H1605 0.929 . S
C1617 C1611 1.390 . S
C1617 C1614 1.386 . S
C1618 C1613 1.490 . S
C1618 C1620 1.395 . S
C1618 C1621 1.403 1_455 S
H1619 C1625 0.930 . S
C1620 H1606 0.930 . S
C1620 C1618 1.395 . S
C1620 C1623 1.403 1_455 S
C1621 C1618 1.403 1_655 S
C1621 C1622 1.524 . S
C1621 C1625 1.400 . S
C1622 H1607 0.960 . S
C1622 H1608 0.960 1_655 S
C1622 H1609 0.960 1_655 S
C1622 C1621 1.524 . S
C1623 C1620 1.403 1_655 S
C1623 C1624 1.392 . S
C1623 C1627 1.495 . S
C1624 C1623 1.392 . S
C1624 C1625 1.385 . S
C1624 C1626 1.478 . S
C1625 H1619 0.930 . S
C1625 C1621 1.400 . S
C1625 C1624 1.385 . S
C1626 C1624 1.478 . S
C1626 C1628 1.381 . S
C1626 C1632 1.383 . S
C1627 C1623 1.495 . S
C1627 H1633 0.959 1_655 S
C1627 H1634 0.961 . S
C1627 H1635 0.960 . S
C1628 C1626 1.381 . S
C1628 C1629 1.394 . S
C1628 H1636 0.930 . S
C1629 C1628 1.394 . S
C1629 C1630 1.383 . S
C1629 H1637 0.929 . S
C1630 C1629 1.383 . S
C1630 C1631 1.377 . S
C1631 H1615 0.930 . S
C1631 C1630 1.377 . S
C1631 C1632 1.379 . S
C1632 H1616 0.931 . S
C1632 C1626 1.383 . S
C1632 C1631 1.379 . S
H1633 C1627 0.959 1_455 S
H1634 C1627 0.961 . S
H1635 C1627 0.960 . S
H1636 C1628 0.930 . S
H1637 C1629 0.929 . S
H1638 C1646 0.929 . S
H1639 C1648 0.930 . S
H1640 C1650 0.930 . S
H1641 C1653 0.929 . S
H1642 C1656 0.930 . S
H1643 C1658 0.960 . S
H1644 C1658 0.960 . S
H1645 C1658 0.960 . S
C1646 H1638 0.929 . S
C1646 C1647 1.377 . S
C1646 C1648 1.384 . S
C1647 C1646 1.377 . S
C1647 C1653 1.390 . S
C1648 H1639 0.930 . S
C1648 C1646 1.384 . S
C1648 C1649 1.372 . S
C1649 C1648 1.372 . S
C1649 C1650 1.400 . S
C1649 C1654 1.490 . S
C1650 H1640 0.930 . S
C1650 C1649 1.400 . S
C1650 C1653 1.386 . S
H1651 C1667 0.930 . S
H1652 C1668 0.931 . S
C1653 H1641 0.929 . S
C1653 C1647 1.390 . S
C1653 C1650 1.386 . S
C1654 C1649 1.490 . S
C1654 C1656 1.395 . S
C1654 C1657 1.403 . S
H1655 C1661 0.930 . S
C1656 H1642 0.930 . S
C1656 C1654 1.395 . S
C1656 C1659 1.403 . S
C1657 C1654 1.403 . S
C1657 C1658 1.524 . S
C1657 C1661 1.400 . S
C1658 H1643 0.960 . S
C1658 H1644 0.960 . S
C1658 H1645 0.960 . S
C1658 C1657 1.524 . S
C1659 C1656 1.403 . S
C1659 C1660 1.392 . S
C1659 C1663 1.495 . S
C1660 C1659 1.392 . S
C1660 C1661 1.385 . S
C1660 C1662 1.478 . S
C1661 H1655 0.930 . S
C1661 C1657 1.400 . S
C1661 C1660 1.385 . S
C1662 C1660 1.478 . S
C1662 C1664 1.381 . S
C1662 C1668 1.383 . S
C1663 C1659 1.495 . S
C1663 H1669 0.959 . S
C1663 H1670 0.961 . S
C1663 H1671 0.960 . S
C1664 C1662 1.381 . S
C1664 C1665 1.394 . S
C1664 H1672 0.930 . S
C1665 C1664 1.394 . S
C1665 C1666 1.383 . S
C1665 H1673 0.929 . S
C1666 C1665 1.383 . S
C1666 C1667 1.377 . S
C1667 H1651 0.930 . S
C1667 C1666 1.377 . S
C1667 C1668 1.379 . S
C1668 H1652 0.931 . S
C1668 C1662 1.383 . S
C1668 C1667 1.379 . S
H1669 C1663 0.959 . S
H1670 C1663 0.961 . S
H1671 C1663 0.960 . S
H1672 C1664 0.930 . S
H1673 C1665 0.929 . S
H1674 C1682 0.929 . S
H1675 C1684 0.930 . S
H1676 C1686 0.930 . S
H1677 C1689 0.929 . S
H1678 C1692 0.930 . S
H1679 C1694 0.960 . S
H1680 C1694 0.960 . S
H1681 C1694 0.960 . S
C1682 H1674 0.929 . S
C1682 C1683 1.377 . S
C1682 C1684 1.384 . S
C1683 C1682 1.377 . S
C1683 C1689 1.390 . S
C1684 H1675 0.930 . S
C1684 C1682 1.384 . S
C1684 C1685 1.372 . S
C1685 C1684 1.372 . S
C1685 C1686 1.400 . S
C1685 C1690 1.490 . S
C1686 H1676 0.930 . S
C1686 C1685 1.400 . S
C1686 C1689 1.386 . S
H1687 C1703 0.930 . S
H1688 C1704 0.931 . S
C1689 H1677 0.929 . S
C1689 C1683 1.390 . S
C1689 C1686 1.386 . S
C1690 C1685 1.490 . S
C1690 C1692 1.395 . S
C1690 C1693 1.403 . S
H1691 C1697 0.930 . S
C1692 H1678 0.930 . S
C1692 C1690 1.395 . S
C1692 C1695 1.403 1_565 S
C1693 C1690 1.403 . S
C1693 C1694 1.524 . S
C1693 C1697 1.400 1_565 S
C1694 H1679 0.960 . S
C1694 H1680 0.960 . S
C1694 H1681 0.960 . S
C1694 C1693 1.524 . S
C1695 C1692 1.403 1_545 S
C1695 C1696 1.392 . S
C1695 C1699 1.495 . S
C1696 C1695 1.392 . S
C1696 C1697 1.385 . S
C1696 C1698 1.478 . S
C1697 H1691 0.930 . S
C1697 C1693 1.400 1_545 S
C1697 C1696 1.385 . S
C1698 C1696 1.478 . S
C1698 C1700 1.381 . S
C1698 C1704 1.383 . S
C1699 C1695 1.495 . S
C1699 H1705 0.959 . S
C1699 H1706 0.961 . S
C1699 H1707 0.960 . S
C1700 C1698 1.381 . S
C1700 C1701 1.394 . S
C1700 H1708 0.930 . S
C1701 C1700 1.394 . S
C1701 C1702 1.383 . S
C1701 H1709 0.929 . S
C1702 C1701 1.383 . S
C1702 C1703 1.377 . S
C1703 H1687 0.930 . S
C1703 C1702 1.377 . S
C1703 C1704 1.379 . S
C1704 H1688 0.931 . S
C1704 C1698 1.383 . S
C1704 C1703 1.379 . S
H1705 C1699 0.959 . S
H1706 C1699 0.961 . S
H1707 C1699 0.960 . S
H1708 C1700 0.930 . S
H1709 C1701 0.929 . S
H1710 C1718 0.929 . S
H1711 C1720 0.930 . S
H1712 C1722 0.930 . S
H1713 C1725 0.929 . S
H1714 C1728 0.930 . S
H1715 C1730 0.960 . S
H1716 C1730 0.960 . S
H1717 C1730 0.960 . S
C1718 H1710 0.929 . S
C1718 C1719 1.377 . S
C1718 C1720 1.384 . S
C1719 C1718 1.377 . S
C1719 C1725 1.390 . S
C1720 H1711 0.930 . S
C1720 C1718 1.384 . S
C1720 C1721 1.372 . S
C1721 C1720 1.372 . S
C1721 C1722 1.400 . S
C1721 C1726 1.490 . S
C1722 H1712 0.930 . S
C1722 C1721 1.400 . S
C1722 C1725 1.386 . S
H1723 C1739 0.930 . S
H1724 C1740 0.931 . S
C1725 H1713 0.929 . S
C1725 C1719 1.390 . S
C1725 C1722 1.386 . S
C1726 C1721 1.490 . S
C1726 C1728 1.395 . S
C1726 C1729 1.403 . S
H1727 C1733 0.930 . S
C1728 H1714 0.930 . S
C1728 C1726 1.395 . S
C1728 C1731 1.403 . S
C1729 C1726 1.403 . S
C1729 C1730 1.524 . S
C1729 C1733 1.400 . S
C1730 H1715 0.960 . S
C1730 H1716 0.960 . S
C1730 H1717 0.960 . S
C1730 C1729 1.524 . S
C1731 C1728 1.403 . S
C1731 C1732 1.392 . S
C1731 C1735 1.495 . S
C1732 C1731 1.392 . S
C1732 C1733 1.385 . S
C1732 C1734 1.478 . S
C1733 H1727 0.930 . S
C1733 C1729 1.400 . S
C1733 C1732 1.385 . S
C1734 C1732 1.478 . S
C1734 C1736 1.381 . S
C1734 C1740 1.383 . S
C1735 C1731 1.495 . S
C1735 H1741 0.959 . S
C1735 H1742 0.961 . S
C1735 H1743 0.960 . S
C1736 C1734 1.381 . S
C1736 C1737 1.394 . S
C1736 H1744 0.930 . S
C1737 C1736 1.394 . S
C1737 C1738 1.383 . S
C1737 H1745 0.929 . S
C1738 C1737 1.383 . S
C1738 C1739 1.377 . S
C1739 H1723 0.930 . S
C1739 C1738 1.377 . S
C1739 C1740 1.379 . S
C1740 H1724 0.931 . S
C1740 C1734 1.383 . S
C1740 C1739 1.379 . S
H1741 C1735 0.959 . S
H1742 C1735 0.961 . S
H1743 C1735 0.960 . S
H1744 C1736 0.930 . S
H1745 C1737 0.929 . S
H1746 C1754 0.929 . S
H1747 C1756 0.930 . S
H1748 C1758 0.930 . S
H1749 C1761 0.929 . S
H1750 C1764 0.930 . S
H1751 C1766 0.960 . S
H1752 C1766 0.960 . S
H1753 C1766 0.960 . S
C1754 H1746 0.929 . S
C1754 C1755 1.377 . S
C1754 C1756 1.384 . S
C1755 C1754 1.377 . S
C1755 C1761 1.390 . S
C1756 H1747 0.930 . S
C1756 C1754 1.384 . S
C1756 C1757 1.372 . S
C1757 C1756 1.372 . S
C1757 C1758 1.400 . S
C1757 C1762 1.490 . S
C1758 H1748 0.930 . S
C1758 C1757 1.400 . S
C1758 C1761 1.386 . S
H1759 C1775 0.930 . S
H1760 C1776 0.931 . S
C1761 H1749 0.929 . S
C1761 C1755 1.390 . S
C1761 C1758 1.386 . S
C1762 C1757 1.490 . S
C1762 C1764 1.395 . S
C1762 C1765 1.403 . S
H1763 C1769 0.930 . S
C1764 H1750 0.930 . S
C1764 C1762 1.395 . S
C1764 C1767 1.403 . S
C1765 C1762 1.403 . S
C1765 C1766 1.524 . S
C1765 C1769 1.400 . S
C1766 H1751 0.960 . S
C1766 H1752 0.960 . S
C1766 H1753 0.960 . S
C1766 C1765 1.524 . S
C1767 C1764 1.403 . S
C1767 C1768 1.392 . S
C1767 C1771 1.495 . S
C1768 C1767 1.392 . S
C1768 C1769 1.385 . S
C1768 C1770 1.478 . S
C1769 H1763 0.930 . S
C1769 C1765 1.400 . S
C1769 C1768 1.385 . S
C1770 C1768 1.478 . S
C1770 C1772 1.381 . S
C1770 C1776 1.383 . S
C1771 C1767 1.495 . S
C1771 H1777 0.959 . S
C1771 H1778 0.961 . S
C1771 H1779 0.960 . S
C1772 C1770 1.381 . S
C1772 C1773 1.394 . S
C1772 H1780 0.930 . S
C1773 C1772 1.394 . S
C1773 C1774 1.383 . S
C1773 H1781 0.929 . S
C1774 C1773 1.383 . S
C1774 C1775 1.377 . S
C1775 H1759 0.930 . S
C1775 C1774 1.377 . S
C1775 C1776 1.379 . S
C1776 H1760 0.931 . S
C1776 C1770 1.383 . S
C1776 C1775 1.379 . S
H1777 C1771 0.959 . S
H1778 C1771 0.961 . S
H1779 C1771 0.960 . S
H1780 C1772 0.930 . S
H1781 C1773 0.929 . S
H1782 C1790 0.929 . S
H1783 C1792 0.930 . S
H1784 C1794 0.930 . S
H1785 C1797 0.929 . S
H1786 C1800 0.930 . S
H1787 C1802 0.960 . S
H1788 C1802 0.960 . S
H1789 C1802 0.960 . S
C1790 H1782 0.929 . S
C1790 C1791 1.377 . S
C1790 C1792 1.384 . S
C1791 C1790 1.377 . S
C1791 C1797 1.390 . S
C1792 H1783 0.930 . S
C1792 C1790 1.384 . S
C1792 C1793 1.372 . S
C1793 C1792 1.372 . S
C1793 C1794 1.400 . S
C1793 C1798 1.490 . S
C1794 H1784 0.930 . S
C1794 C1793 1.400 . S
C1794 C1797 1.386 . S
H1795 C1811 0.930 . S
H1796 C1812 0.931 . S
C1797 H1785 0.929 . S
C1797 C1791 1.390 . S
C1797 C1794 1.386 . S
C1798 C1793 1.490 . S
C1798 C1800 1.395 . S
C1798 C1801 1.403 . S
H1799 C1805 0.930 . S
C1800 H1786 0.930 . S
C1800 C1798 1.395 . S
C1800 C1803 1.403 . S
C1801 C1798 1.403 . S
C1801 C1802 1.524 . S
C1801 C1805 1.400 . S
C1802 H1787 0.960 . S
C1802 H1788 0.960 . S
C1802 H1789 0.960 . S
C1802 C1801 1.524 . S
C1803 C1800 1.403 . S
C1803 C1804 1.392 . S
C1803 C1807 1.495 . S
C1804 C1803 1.392 . S
C1804 C1805 1.385 . S
C1804 C1806 1.478 . S
C1805 H1799 0.930 . S
C1805 C1801 1.400 . S
C1805 C1804 1.385 . S
C1806 C1804 1.478 . S
C1806 C1808 1.381 . S
C1806 C1812 1.383 . S
C1807 C1803 1.495 . S
C1807 H1813 0.959 . S
C1807 H1814 0.961 . S
C1807 H1815 0.960 . S
C1808 C1806 1.381 . S
C1808 C1809 1.394 . S
C1808 H1816 0.930 . S
C1809 C1808 1.394 . S
C1809 C1810 1.383 . S
C1809 H1817 0.929 . S
C1810 C1809 1.383 . S
C1810 C1811 1.377 . S
C1811 H1795 0.930 . S
C1811 C1810 1.377 . S
C1811 C1812 1.379 . S
C1812 H1796 0.931 . S
C1812 C1806 1.383 . S
C1812 C1811 1.379 . S
H1813 C1807 0.959 . S
H1814 C1807 0.961 . S
H1815 C1807 0.960 . S
H1816 C1808 0.930 . S
H1817 C1809 0.929 . S
H1818 C1826 0.929 . S
H1819 C1828 0.930 . S
H1820 C1830 0.930 . S
H1821 C1833 0.929 . S
H1822 C1836 0.930 . S
H1823 C1838 0.960 . S
H1824 C1838 0.960 . S
H1825 C1838 0.960 . S
C1826 H1818 0.929 . S
C1826 C1827 1.377 . S
C1826 C1828 1.384 . S
C1827 C1826 1.377 . S
C1827 C1833 1.390 . S
C1828 H1819 0.930 . S
C1828 C1826 1.384 . S
C1828 C1829 1.372 . S
C1829 C1828 1.372 . S
C1829 C1830 1.400 . S
C1829 C1834 1.490 . S
C1830 H1820 0.930 . S
C1830 C1829 1.400 . S
C1830 C1833 1.386 . S
H1831 C1847 0.930 . S
H1832 C1848 0.931 . S
C1833 H1821 0.929 . S
C1833 C1827 1.390 . S
C1833 C1830 1.386 . S
C1834 C1829 1.490 . S
C1834 C1836 1.395 . S
C1834 C1837 1.403 . S
H1835 C1841 0.930 . S
C1836 H1822 0.930 . S
C1836 C1834 1.395 . S
C1836 C1839 1.403 . S
C1837 C1834 1.403 . S
C1837 C1838 1.524 . S
C1837 C1841 1.400 . S
C1838 H1823 0.960 . S
C1838 H1824 0.960 . S
C1838 H1825 0.960 . S
C1838 C1837 1.524 . S
C1839 C1836 1.403 . S
C1839 C1840 1.392 . S
C1839 C1843 1.495 1_565 S
C1840 C1839 1.392 . S
C1840 C1841 1.385 . S
C1840 C1842 1.478 . S
C1841 H1835 0.930 . S
C1841 C1837 1.400 . S
C1841 C1840 1.385 . S
C1842 C1840 1.478 . S
C1842 C1844 1.381 1_565 S
C1842 C1848 1.383 . S
C1843 C1839 1.495 1_545 S
C1843 H1849 0.959 . S
C1843 H1850 0.961 . S
C1843 H1851 0.960 . S
C1844 C1842 1.381 1_545 S
C1844 C1845 1.394 . S
C1844 H1852 0.930 . S
C1845 C1844 1.394 . S
C1845 C1846 1.383 1_545 S
C1845 H1853 0.929 . S
C1846 C1845 1.383 1_565 S
C1846 C1847 1.377 . S
C1847 H1831 0.930 . S
C1847 C1846 1.377 . S
C1847 C1848 1.379 . S
C1848 H1832 0.931 . S
C1848 C1842 1.383 . S
C1848 C1847 1.379 . S
H1849 C1843 0.959 . S
H1850 C1843 0.961 . S
H1851 C1843 0.960 . S
H1852 C1844 0.930 . S
H1853 C1845 0.929 . S
H1854 C1862 0.929 . S
H1855 C1864 0.930 . S
H1856 C1866 0.930 1_655 S
H1857 C1869 0.929 1_655 S
H1858 C1872 0.930 . S
H1859 C1874 0.960 . S
H1860 C1874 0.960 . S
H1861 C1874 0.960 . S
C1862 H1854 0.929 . S
C1862 C1863 1.377 . S
C1862 C1864 1.384 . S
C1863 C1862 1.377 . S
C1863 C1869 1.390 . S
C1864 H1855 0.930 . S
C1864 C1862 1.384 . S
C1864 C1865 1.372 . S
C1865 C1864 1.372 . S
C1865 C1866 1.400 . S
C1865 C1870 1.490 . S
C1866 H1856 0.930 1_455 S
C1866 C1865 1.400 . S
C1866 C1869 1.386 . S
H1867 C1883 0.930 . S
H1868 C1884 0.931 . S
C1869 H1857 0.929 1_455 S
C1869 C1863 1.390 . S
C1869 C1866 1.386 . S
C1870 C1865 1.490 . S
C1870 C1872 1.395 . S
C1870 C1873 1.403 . S
H1871 C1877 0.930 . S
C1872 H1858 0.930 . S
C1872 C1870 1.395 . S
C1872 C1875 1.403 . S
C1873 C1870 1.403 . S
C1873 C1874 1.524 . S
C1873 C1877 1.400 . S
C1874 H1859 0.960 . S
C1874 H1860 0.960 . S
C1874 H1861 0.960 . S
C1874 C1873 1.524 . S
C1875 C1872 1.403 . S
C1875 C1876 1.392 . S
C1875 C1879 1.495 . S
C1876 C1875 1.392 . S
C1876 C1877 1.385 . S
C1876 C1878 1.478 . S
C1877 H1871 0.930 . S
C1877 C1873 1.400 . S
C1877 C1876 1.385 . S
C1878 C1876 1.478 . S
C1878 C1880 1.381 . S
C1878 C1884 1.383 1_455 S
C1879 C1875 1.495 . S
C1879 H1885 0.959 . S
C1879 H1886 0.961 . S
C1879 H1887 0.960 . S
C1880 C1878 1.381 . S
C1880 C1881 1.394 . S
C1880 H1888 0.930 . S
C1881 C1880 1.394 . S
C1881 C1882 1.383 . S
C1881 H1889 0.929 . S
C1882 C1881 1.383 . S
C1882 C1883 1.377 1_455 S
C1883 H1867 0.930 . S
C1883 C1882 1.377 1_655 S
C1883 C1884 1.379 . S
C1884 H1868 0.931 . S
C1884 C1878 1.383 1_655 S
C1884 C1883 1.379 . S
H1885 C1879 0.959 . S
H1886 C1879 0.961 . S
H1887 C1879 0.960 . S
H1888 C1880 0.930 . S
H1889 C1881 0.929 . S
H1890 C1898 0.929 . S
H1891 C1900 0.930 . S
H1892 C1902 0.930 . S
H1893 C1905 0.929 . S
H1894 C1908 0.930 . S
H1895 C1910 0.960 . S
H1896 C1910 0.960 . S
H1897 C1910 0.960 . S
C1898 H1890 0.929 . S
C1898 C1899 1.377 . S
C1898 C1900 1.384 . S
C1899 C1898 1.377 . S
C1899 C1905 1.390 . S
C1900 H1891 0.930 . S
C1900 C1898 1.384 . S
C1900 C1901 1.372 . S
C1901 C1900 1.372 . S
C1901 C1902 1.400 . S
C1901 C1906 1.490 . S
C1902 H1892 0.930 . S
C1902 C1901 1.400 . S
C1902 C1905 1.386 . S
H1903 C1919 0.930 . S
H1904 C1920 0.931 . S
C1905 H1893 0.929 . S
C1905 C1899 1.390 . S
C1905 C1902 1.386 . S
C1906 C1901 1.490 . S
C1906 C1908 1.395 . S
C1906 C1909 1.403 . S
H1907 C1913 0.930 . S
C1908 H1894 0.930 . S
C1908 C1906 1.395 . S
C1908 C1911 1.403 . S
C1909 C1906 1.403 . S
C1909 C1910 1.524 . S
C1909 C1913 1.400 . S
C1910 H1895 0.960 . S
C1910 H1896 0.960 . S
C1910 H1897 0.960 . S
C1910 C1909 1.524 . S
C1911 C1908 1.403 . S
C1911 C1912 1.392 . S
C1911 C1915 1.495 . S
C1912 C1911 1.392 . S
C1912 C1913 1.385 . S
C1912 C1914 1.478 . S
C1913 H1907 0.930 . S
C1913 C1909 1.400 . S
C1913 C1912 1.385 . S
C1914 C1912 1.478 . S
C1914 C1916 1.381 . S
C1914 C1920 1.383 . S
C1915 C1911 1.495 . S
C1915 H1921 0.959 . S
C1915 H1922 0.961 . S
C1915 H1923 0.960 . S
C1916 C1914 1.381 . S
C1916 C1917 1.394 . S
C1916 H1924 0.930 . S
C1917 C1916 1.394 . S
C1917 C1918 1.383 . S
C1917 H1925 0.929 . S
C1918 C1917 1.383 . S
C1918 C1919 1.377 . S
C1919 H1903 0.930 . S
C1919 C1918 1.377 . S
C1919 C1920 1.379 . S
C1920 H1904 0.931 . S
C1920 C1914 1.383 . S
C1920 C1919 1.379 . S
H1921 C1915 0.959 . S
H1922 C1915 0.961 . S
H1923 C1915 0.960 . S
H1924 C1916 0.930 . S
H1925 C1917 0.929 . S
H1926 C1934 0.929 . S
H1927 C1936 0.935 . S
H1928 C1938 0.930 . S
H1929 C1941 0.929 . S
H1930 C1944 0.930 . S
H1931 C1946 0.960 1_455 S
H1932 C1946 0.960 1_455 S
H1933 C1946 0.960 . S
C1934 H1926 0.929 . S
C1934 C1935 1.377 . S
C1934 C1936 1.384 . S
C1935 C1934 1.377 . S
C1935 C1941 1.390 . S
C1936 H1927 0.935 . S
C1936 C1934 1.384 . S
C1936 C1937 1.372 . S
C1937 C1936 1.372 . S
C1937 C1938 1.400 . S
C1937 C1942 1.490 . S
C1938 H1928 0.930 . S
C1938 C1937 1.400 . S
C1938 C1941 1.386 . S
H1939 C1955 0.930 . S
H1940 C1956 0.931 . S
C1941 H1929 0.929 . S
C1941 C1935 1.390 . S
C1941 C1938 1.386 . S
C1942 C1937 1.490 . S
C1942 C1944 1.395 . S
C1942 C1945 1.403 . S
H1943 C1949 0.930 . S
C1944 H1930 0.930 . S
C1944 C1942 1.395 . S
C1944 C1947 1.403 . S
C1945 C1942 1.403 . S
C1945 C1946 1.524 . S
C1945 C1949 1.400 . S
C1946 H1931 0.960 1_655 S
C1946 H1932 0.960 1_655 S
C1946 H1933 0.960 . S
C1946 C1945 1.524 . S
C1947 C1944 1.403 . S
C1947 C1948 1.392 . S
C1947 C1951 1.495 . S
C1948 C1947 1.392 . S
C1948 C1949 1.385 . S
C1948 C1950 1.478 . S
C1949 H1943 0.930 . S
C1949 C1945 1.400 . S
C1949 C1948 1.385 . S
C1950 C1948 1.478 . S
C1950 C1952 1.381 . S
C1950 C1956 1.383 . S
C1951 C1947 1.495 . S
C1951 H1957 0.959 . S
C1951 H1958 0.961 . S
C1951 H1959 0.960 . S
C1952 C1950 1.381 . S
C1952 C1953 1.394 . S
C1952 H1960 0.930 1_655 S
C1953 C1952 1.394 . S
C1953 C1954 1.383 . S
C1953 H1961 0.929 1_655 S
C1954 C1953 1.383 . S
C1954 C1955 1.377 . S
C1955 H1939 0.930 . S
C1955 C1954 1.377 . S
C1955 C1956 1.379 . S
C1956 H1940 0.931 . S
C1956 C1950 1.383 . S
C1956 C1955 1.379 . S
H1957 C1951 0.959 . S
H1958 C1951 0.961 . S
H1959 C1951 0.960 . S
H1960 C1952 0.930 1_455 S
H1961 C1953 0.929 1_455 S
H1962 C1970 0.929 . S
H1963 C1972 0.930 . S
H1964 C1974 0.930 . S
H1965 C1977 0.929 . S
H1966 C1980 0.930 . S
H1967 C1982 0.960 . S
H1968 C1982 0.960 . S
H1969 C1982 0.960 . S
C1970 H1962 0.929 . S
C1970 C1971 1.377 . S
C1970 C1972 1.384 . S
C1971 C1970 1.377 . S
C1971 C1977 1.390 . S
C1972 H1963 0.930 . S
C1972 C1970 1.384 . S
C1972 C1973 1.372 . S
C1973 C1972 1.372 . S
C1973 C1974 1.400 . S
C1973 C1978 1.490 . S
C1974 H1964 0.930 . S
C1974 C1973 1.400 . S
C1974 C1977 1.386 . S
H1975 C1991 0.930 . S
H1976 C1992 0.931 . S
C1977 H1965 0.929 . S
C1977 C1971 1.390 . S
C1977 C1974 1.386 . S
C1978 C1973 1.490 . S
C1978 C1980 1.395 . S
C1978 C1981 1.403 . S
H1979 C1985 0.930 . S
C1980 H1966 0.930 . S
C1980 C1978 1.395 . S
C1980 C1983 1.403 . S
C1981 C1978 1.403 . S
C1981 C1982 1.524 . S
C1981 C1985 1.400 . S
C1982 H1967 0.960 . S
C1982 H1968 0.960 . S
C1982 H1969 0.960 . S
C1982 C1981 1.524 . S
C1983 C1980 1.403 . S
C1983 C1984 1.392 . S
C1983 C1987 1.495 . S
C1984 C1983 1.392 . S
C1984 C1985 1.385 . S
C1984 C1986 1.478 . S
C1985 H1979 0.930 . S
C1985 C1981 1.400 . S
C1985 C1984 1.385 . S
C1986 C1984 1.478 . S
C1986 C1988 1.381 . S
C1986 C1992 1.383 . S
C1987 C1983 1.495 . S
C1987 H1993 0.959 . S
C1987 H1994 0.961 . S
C1987 H1995 0.960 . S
C1988 C1986 1.381 . S
C1988 C1989 1.394 . S
C1988 H1996 0.930 . S
C1989 C1988 1.394 . S
C1989 C1990 1.383 . S
C1989 H1997 0.929 . S
C1990 C1989 1.383 . S
C1990 C1991 1.377 . S
C1991 H1975 0.930 . S
C1991 C1990 1.377 . S
C1991 C1992 1.379 . S
C1992 H1976 0.931 . S
C1992 C1986 1.383 . S
C1992 C1991 1.379 . S
H1993 C1987 0.959 . S
H1994 C1987 0.961 . S
H1995 C1987 0.960 . S
H1996 C1988 0.930 . S
H1997 C1989 0.929 . S
H1998 C2006 0.929 . S
H1999 C2008 0.930 . S
H2000 C2010 0.930 . S
H2001 C2013 0.929 . S
H2002 C2016 0.930 . S
H2003 C2018 0.960 . S
H2004 C2018 0.960 . S
H2005 C2018 0.960 . S
C2006 H1998 0.929 . S
C2006 C2007 1.377 . S
C2006 C2008 1.384 . S
C2007 C2006 1.377 . S
C2007 C2013 1.390 . S
C2008 H1999 0.930 . S
C2008 C2006 1.384 . S
C2008 C2009 1.372 . S
C2009 C2008 1.372 . S
C2009 C2010 1.400 . S
C2009 C2014 1.490 . S
C2010 H2000 0.930 . S
C2010 C2009 1.400 . S
C2010 C2013 1.386 . S
H2011 C2027 0.930 . S
H2012 C2028 0.931 . S
C2013 H2001 0.929 . S
C2013 C2007 1.390 . S
C2013 C2010 1.386 . S
C2014 C2009 1.490 . S
C2014 C2016 1.395 . S
C2014 C2017 1.403 . S
H2015 C2021 0.930 1_565 S
C2016 H2002 0.930 . S
C2016 C2014 1.395 . S
C2016 C2019 1.403 . S
C2017 C2014 1.403 . S
C2017 C2018 1.524 1_545 S
C2017 C2021 1.400 . S
C2018 H2003 0.960 . S
C2018 H2004 0.960 . S
C2018 H2005 0.960 . S
C2018 C2017 1.524 1_565 S
C2019 C2016 1.403 . S
C2019 C2020 1.392 . S
C2019 C2023 1.495 . S
C2020 C2019 1.392 . S
C2020 C2021 1.385 . S
C2020 C2022 1.478 . S
C2021 H2015 0.930 1_545 S
C2021 C2017 1.400 . S
C2021 C2020 1.385 . S
C2022 C2020 1.478 . S
C2022 C2024 1.381 . S
C2022 C2028 1.383 . S
C2023 C2019 1.495 . S
C2023 H2029 0.959 . S
C2023 H2030 0.961 . S
C2023 H2031 0.960 . S
C2024 C2022 1.381 . S
C2024 C2025 1.394 . S
C2024 H2032 0.930 . S
C2025 C2024 1.394 . S
C2025 C2026 1.383 . S
C2025 H2033 0.929 . S
C2026 C2025 1.383 . S
C2026 C2027 1.377 . S
C2027 H2011 0.930 . S
C2027 C2026 1.377 . S
C2027 C2028 1.379 . S
C2028 H2012 0.931 . S
C2028 C2022 1.383 . S
C2028 C2027 1.379 . S
H2029 C2023 0.959 . S
H2030 C2023 0.961 . S
H2031 C2023 0.960 . S
H2032 C2024 0.930 . S
H2033 C2025 0.929 . S
H2034 C2042 0.929 . S
H2035 C2044 0.930 . S
H2036 C2046 0.930 . S
H2037 C2049 0.929 . S
H2038 C2052 0.930 . S
H2039 C2054 0.960 . S
H2040 C2054 0.960 . S
H2041 C2054 0.960 . S
C2042 H2034 0.929 . S
C2042 C2043 1.377 . S
C2042 C2044 1.384 . S
C2043 C2042 1.377 . S
C2043 C2049 1.390 . S
C2044 H2035 0.930 . S
C2044 C2042 1.384 . S
C2044 C2045 1.372 . S
C2045 C2044 1.372 . S
C2045 C2046 1.400 . S
C2045 C2050 1.490 . S
C2046 H2036 0.930 . S
C2046 C2045 1.400 . S
C2046 C2049 1.386 . S
H2047 C2063 0.930 . S
H2048 C2064 0.931 . S
C2049 H2037 0.929 . S
C2049 C2043 1.390 . S
C2049 C2046 1.386 . S
C2050 C2045 1.490 . S
C2050 C2052 1.395 . S
C2050 C2053 1.403 . S
H2051 C2057 0.930 . S
C2052 H2038 0.930 . S
C2052 C2050 1.395 . S
C2052 C2055 1.403 . S
C2053 C2050 1.403 . S
C2053 C2054 1.524 . S
C2053 C2057 1.400 . S
C2054 H2039 0.960 . S
C2054 H2040 0.960 . S
C2054 H2041 0.960 . S
C2054 C2053 1.524 . S
C2055 C2052 1.403 . S
C2055 C2056 1.392 . S
C2055 C2059 1.495 . S
C2056 C2055 1.392 . S
C2056 C2057 1.385 . S
C2056 C2058 1.478 . S
C2057 H2051 0.930 . S
C2057 C2053 1.400 . S
C2057 C2056 1.385 . S
C2058 C2056 1.478 . S
C2058 C2060 1.381 . S
C2058 C2064 1.383 . S
C2059 C2055 1.495 . S
C2059 H2065 0.959 . S
C2059 H2066 0.961 . S
C2059 H2067 0.960 . S
C2060 C2058 1.381 . S
C2060 C2061 1.394 . S
C2060 H2068 0.930 . S
C2061 C2060 1.394 . S
C2061 C2062 1.383 . S
C2061 H2069 0.929 . S
C2062 C2061 1.383 . S
C2062 C2063 1.377 . S
C2063 H2047 0.930 . S
C2063 C2062 1.377 . S
C2063 C2064 1.379 . S
C2064 H2048 0.931 . S
C2064 C2058 1.383 . S
C2064 C2063 1.379 . S
H2065 C2059 0.959 . S
H2066 C2059 0.961 . S
H2067 C2059 0.960 . S
H2068 C2060 0.930 . S
H2069 C2061 0.929 . S
H2070 C2078 0.929 . S
H2071 C2080 0.930 . S
H2072 C2082 0.930 . S
H2073 C2085 0.929 . S
H2074 C2088 0.930 . S
H2075 C2090 0.960 . S
H2076 C2090 0.960 . S
H2077 C2090 0.960 . S
C2078 H2070 0.929 . S
C2078 C2079 1.377 . S
C2078 C2080 1.384 . S
C2079 C2078 1.377 . S
C2079 C2085 1.390 . S
C2080 H2071 0.930 . S
C2080 C2078 1.384 . S
C2080 C2081 1.372 . S
C2081 C2080 1.372 . S
C2081 C2082 1.400 . S
C2081 C2086 1.490 . S
C2082 H2072 0.930 . S
C2082 C2081 1.400 . S
C2082 C2085 1.386 . S
H2083 C2099 0.930 . S
H2084 C2100 0.931 . S
C2085 H2073 0.929 . S
C2085 C2079 1.390 . S
C2085 C2082 1.386 . S
C2086 C2081 1.490 . S
C2086 C2088 1.395 . S
C2086 C2089 1.403 . S
H2087 C2093 0.930 . S
C2088 H2074 0.930 . S
C2088 C2086 1.395 . S
C2088 C2091 1.403 . S
C2089 C2086 1.403 . S
C2089 C2090 1.524 . S
C2089 C2093 1.400 . S
C2090 H2075 0.960 . S
C2090 H2076 0.960 . S
C2090 H2077 0.960 . S
C2090 C2089 1.524 . S
C2091 C2088 1.403 . S
C2091 C2092 1.392 . S
C2091 C2095 1.495 . S
C2092 C2091 1.392 . S
C2092 C2093 1.385 . S
C2092 C2094 1.478 . S
C2093 H2087 0.930 . S
C2093 C2089 1.400 . S
C2093 C2092 1.385 . S
C2094 C2092 1.478 . S
C2094 C2096 1.381 . S
C2094 C2100 1.383 . S
C2095 C2091 1.495 . S
C2095 H2101 0.959 . S
C2095 H2102 0.961 . S
C2095 H2103 0.960 . S
C2096 C2094 1.381 . S
C2096 C2097 1.394 . S
C2096 H2104 0.930 . S
C2097 C2096 1.394 . S
C2097 C2098 1.383 . S
C2097 H2105 0.929 . S
C2098 C2097 1.383 . S
C2098 C2099 1.377 . S
C2099 H2083 0.930 . S
C2099 C2098 1.377 . S
C2099 C2100 1.379 . S
C2100 H2084 0.931 . S
C2100 C2094 1.383 . S
C2100 C2099 1.379 . S
H2101 C2095 0.959 . S
H2102 C2095 0.961 . S
H2103 C2095 0.960 . S
H2104 C2096 0.930 . S
H2105 C2097 0.929 . S
H2106 C2114 0.929 . S
H2107 C2116 0.930 . S
H2108 C2118 0.930 . S
H2109 C2121 0.929 . S
H2110 C2124 0.930 . S
H2111 C2126 0.960 . S
H2112 C2126 0.960 . S
H2113 C2126 0.960 . S
C2114 H2106 0.929 . S
C2114 C2115 1.377 . S
C2114 C2116 1.384 . S
C2115 C2114 1.377 . S
C2115 C2121 1.390 . S
C2116 H2107 0.930 . S
C2116 C2114 1.384 . S
C2116 C2117 1.372 . S
C2117 C2116 1.372 . S
C2117 C2118 1.400 . S
C2117 C2122 1.490 . S
C2118 H2108 0.930 . S
C2118 C2117 1.400 . S
C2118 C2121 1.386 . S
H2119 C2135 0.930 . S
H2120 C2136 0.931 . S
C2121 H2109 0.929 . S
C2121 C2115 1.390 . S
C2121 C2118 1.386 . S
C2122 C2117 1.490 . S
C2122 C2124 1.395 . S
C2122 C2125 1.403 . S
H2123 C2129 0.930 . S
C2124 H2110 0.930 . S
C2124 C2122 1.395 . S
C2124 C2127 1.403 . S
C2125 C2122 1.403 . S
C2125 C2126 1.524 . S
C2125 C2129 1.400 . S
C2126 H2111 0.960 . S
C2126 H2112 0.960 . S
C2126 H2113 0.960 . S
C2126 C2125 1.524 . S
C2127 C2124 1.403 . S
C2127 C2128 1.392 . S
C2127 C2131 1.495 . S
C2128 C2127 1.392 . S
C2128 C2129 1.385 . S
C2128 C2130 1.478 . S
C2129 H2123 0.930 . S
C2129 C2125 1.400 . S
C2129 C2128 1.385 . S
C2130 C2128 1.478 . S
C2130 C2132 1.381 . S
C2130 C2136 1.383 . S
C2131 C2127 1.495 . S
C2131 H2137 0.959 . S
C2131 H2138 0.961 . S
C2131 H2139 0.960 . S
C2132 C2130 1.381 . S
C2132 C2133 1.394 . S
C2132 H2140 0.930 . S
C2133 C2132 1.394 . S
C2133 C2134 1.383 . S
C2133 H2141 0.929 . S
C2134 C2133 1.383 . S
C2134 C2135 1.377 . S
C2135 H2119 0.930 . S
C2135 C2134 1.377 . S
C2135 C2136 1.379 . S
C2136 H2120 0.931 . S
C2136 C2130 1.383 . S
C2136 C2135 1.379 . S
H2137 C2131 0.959 . S
H2138 C2131 0.961 . S
H2139 C2131 0.960 . S
H2140 C2132 0.930 . S
H2141 C2133 0.929 . S
H2142 C2150 0.929 . S
H2143 C2152 0.930 . S
H2144 C2154 0.930 . S
H2145 C2157 0.929 . S
H2146 C2160 0.930 . S
H2147 C2162 0.960 . S
H2148 C2162 0.960 . S
H2149 C2162 0.960 . S
C2150 H2142 0.929 . S
C2150 C2151 1.377 . S
C2150 C2152 1.384 . S
C2151 C2150 1.377 . S
C2151 C2157 1.390 . S
C2152 H2143 0.930 . S
C2152 C2150 1.384 . S
C2152 C2153 1.372 . S
C2153 C2152 1.372 . S
C2153 C2154 1.400 . S
C2153 C2158 1.490 . S
C2154 H2144 0.930 . S
C2154 C2153 1.400 . S
C2154 C2157 1.386 . S
H2155 C2171 0.930 . S
H2156 C2172 0.931 . S
C2157 H2145 0.929 . S
C2157 C2151 1.390 . S
C2157 C2154 1.386 . S
C2158 C2153 1.490 . S
C2158 C2160 1.395 . S
C2158 C2161 1.403 . S
H2159 C2165 0.930 . S
C2160 H2146 0.930 . S
C2160 C2158 1.395 . S
C2160 C2163 1.403 . S
C2161 C2158 1.403 . S
C2161 C2162 1.524 . S
C2161 C2165 1.400 . S
C2162 H2147 0.960 . S
C2162 H2148 0.960 . S
C2162 H2149 0.960 . S
C2162 C2161 1.524 . S
C2163 C2160 1.403 . S
C2163 C2164 1.392 . S
C2163 C2167 1.495 . S
C2164 C2163 1.392 . S
C2164 C2165 1.385 . S
C2164 C2166 1.478 . S
C2165 H2159 0.930 . S
C2165 C2161 1.400 . S
C2165 C2164 1.385 . S
C2166 C2164 1.478 . S
C2166 C2168 1.381 . S
C2166 C2172 1.383 . S
C2167 C2163 1.495 . S
C2167 H2173 0.959 . S
C2167 H2174 0.961 . S
C2167 H2175 0.960 . S
C2168 C2166 1.381 . S
C2168 C2169 1.394 . S
C2168 H2176 0.930 . S
C2169 C2168 1.394 . S
C2169 C2170 1.383 . S
C2169 H2177 0.929 . S
C2170 C2169 1.383 . S
C2170 C2171 1.377 . S
C2171 H2155 0.930 . S
C2171 C2170 1.377 . S
C2171 C2172 1.379 . S
C2172 H2156 0.931 . S
C2172 C2166 1.383 . S
C2172 C2171 1.379 . S
H2173 C2167 0.959 . S
H2174 C2167 0.961 . S
H2175 C2167 0.960 . S
H2176 C2168 0.930 . S
H2177 C2169 0.929 . S
H2178 C2186 0.929 . S
H2179 C2188 0.930 . S
H2180 C2190 0.930 . S
H2181 C2193 0.929 . S
H2182 C2196 0.930 . S
H2183 C2198 0.960 . S
H2184 C2198 0.960 . S
H2185 C2198 0.960 . S
C2186 H2178 0.929 . S
C2186 C2187 1.377 . S
C2186 C2188 1.384 . S
C2187 C2186 1.377 . S
C2187 C2193 1.390 . S
C2188 H2179 0.930 . S
C2188 C2186 1.384 . S
C2188 C2189 1.372 . S
C2189 C2188 1.372 . S
C2189 C2190 1.400 . S
C2189 C2194 1.490 . S
C2190 H2180 0.930 . S
C2190 C2189 1.400 . S
C2190 C2193 1.386 . S
H2191 C2207 0.930 . S
H2192 C2208 0.931 . S
C2193 H2181 0.929 . S
C2193 C2187 1.390 . S
C2193 C2190 1.386 . S
C2194 C2189 1.490 . S
C2194 C2196 1.395 . S
C2194 C2197 1.403 . S
H2195 C2201 0.930 . S
C2196 H2182 0.930 . S
C2196 C2194 1.395 . S
C2196 C2199 1.403 . S
C2197 C2194 1.403 . S
C2197 C2198 1.524 . S
C2197 C2201 1.400 . S
C2198 H2183 0.960 . S
C2198 H2184 0.960 . S
C2198 H2185 0.960 . S
C2198 C2197 1.524 . S
C2199 C2196 1.403 . S
C2199 C2200 1.392 . S
C2199 C2203 1.495 . S
C2200 C2199 1.392 . S
C2200 C2201 1.385 . S
C2200 C2202 1.478 . S
C2201 H2195 0.930 . S
C2201 C2197 1.400 . S
C2201 C2200 1.385 . S
C2202 C2200 1.478 . S
C2202 C2204 1.381 . S
C2202 C2208 1.383 . S
C2203 C2199 1.495 . S
C2203 H2209 0.959 . S
C2203 H2210 0.961 . S
C2203 H2211 0.960 . S
C2204 C2202 1.381 . S
C2204 C2205 1.394 . S
C2204 H2212 0.930 . S
C2205 C2204 1.394 . S
C2205 C2206 1.383 . S
C2205 H2213 0.929 . S
C2206 C2205 1.383 . S
C2206 C2207 1.377 . S
C2207 H2191 0.930 . S
C2207 C2206 1.377 . S
C2207 C2208 1.379 . S
C2208 H2192 0.931 . S
C2208 C2202 1.383 . S
C2208 C2207 1.379 . S
H2209 C2203 0.959 . S
H2210 C2203 0.961 . S
H2211 C2203 0.960 . S
H2212 C2204 0.930 . S
H2213 C2205 0.929 . S
H2214 C2222 0.929 . S
H2215 C2224 0.930 . S
H2216 C2226 0.930 . S
H2217 C2229 0.929 . S
H2218 C2232 0.930 . S
H2219 C2234 0.960 . S
H2220 C2234 0.960 . S
H2221 C2234 0.960 . S
C2222 H2214 0.929 . S
C2222 C2223 1.377 . S
C2222 C2224 1.384 . S
C2223 C2222 1.377 . S
C2223 C2229 1.390 . S
C2224 H2215 0.930 . S
C2224 C2222 1.384 . S
C2224 C2225 1.372 . S
C2225 C2224 1.372 . S
C2225 C2226 1.400 . S
C2225 C2230 1.490 . S
C2226 H2216 0.930 . S
C2226 C2225 1.400 . S
C2226 C2229 1.386 . S
H2227 C2243 0.930 . S
H2228 C2244 0.931 . S
C2229 H2217 0.929 . S
C2229 C2223 1.390 . S
C2229 C2226 1.386 . S
C2230 C2225 1.490 . S
C2230 C2232 1.395 . S
C2230 C2233 1.403 . S
H2231 C2237 0.930 . S
C2232 H2218 0.930 . S
C2232 C2230 1.395 . S
C2232 C2235 1.403 . S
C2233 C2230 1.403 . S
C2233 C2234 1.524 . S
C2233 C2237 1.400 . S
C2234 H2219 0.960 . S
C2234 H2220 0.960 . S
C2234 H2221 0.960 . S
C2234 C2233 1.524 . S
C2235 C2232 1.403 . S
C2235 C2236 1.392 . S
C2235 C2239 1.495 . S
C2236 C2235 1.392 . S
C2236 C2237 1.385 . S
C2236 C2238 1.478 . S
C2237 H2231 0.930 . S
C2237 C2233 1.400 . S
C2237 C2236 1.385 . S
C2238 C2236 1.478 . S
C2238 C2240 1.381 . S
C2238 C2244 1.383 . S
C2239 C2235 1.495 . S
C2239 H2245 0.959 . S
C2239 H2246 0.961 . S
C2239 H2247 0.960 . S
C2240 C2238 1.381 . S
C2240 C2241 1.394 . S
C2240 H2248 0.930 . S
C2241 C2240 1.394 . S
C2241 C2242 1.383 . S
C2241 H2249 0.929 . S
C2242 C2241 1.383 . S
C2242 C2243 1.377 . S
C2243 H2227 0.930 . S
C2243 C2242 1.377 . S
C2243 C2244 1.379 . S
C2244 H2228 0.931 . S
C2244 C2238 1.383 . S
C2244 C2243 1.379 . S
H2245 C2239 0.959 . S
H2246 C2239 0.961 . S
H2247 C2239 0.960 . S
H2248 C2240 0.930 . S
H2249 C2241 0.929 . S
H2250 C2258 0.929 . S
H2251 C2260 0.930 . S
H2252 C2262 0.930 . S
H2253 C2265 0.929 . S
H2254 C2268 0.930 . S
H2255 C2270 0.960 . S
H2256 C2270 0.960 . S
H2257 C2270 0.960 . S
C2258 H2250 0.929 . S
C2258 C2259 1.377 . S
C2258 C2260 1.384 . S
C2259 C2258 1.377 . S
C2259 C2265 1.390 . S
C2260 H2251 0.930 . S
C2260 C2258 1.384 . S
C2260 C2261 1.372 . S
C2261 C2260 1.372 . S
C2261 C2262 1.400 . S
C2261 C2266 1.490 . S
C2262 H2252 0.930 . S
C2262 C2261 1.400 . S
C2262 C2265 1.386 . S
H2263 C2279 0.930 . S
H2264 C2280 0.931 . S
C2265 H2253 0.929 . S
C2265 C2259 1.390 . S
C2265 C2262 1.386 . S
C2266 C2261 1.490 . S
C2266 C2268 1.395 . S
C2266 C2269 1.403 . S
H2267 C2273 0.930 . S
C2268 H2254 0.930 . S
C2268 C2266 1.395 . S
C2268 C2271 1.403 . S
C2269 C2266 1.403 . S
C2269 C2270 1.524 . S
C2269 C2273 1.400 . S
C2270 H2255 0.960 . S
C2270 H2256 0.960 . S
C2270 H2257 0.960 . S
C2270 C2269 1.524 . S
C2271 C2268 1.403 . S
C2271 C2272 1.392 . S
C2271 C2275 1.495 . S
C2272 C2271 1.392 . S
C2272 C2273 1.385 . S
C2272 C2274 1.478 . S
C2273 H2267 0.930 . S
C2273 C2269 1.400 . S
C2273 C2272 1.385 . S
C2274 C2272 1.478 . S
C2274 C2276 1.381 . S
C2274 C2280 1.383 . S
C2275 C2271 1.495 . S
C2275 H2281 0.959 . S
C2275 H2282 0.961 . S
C2275 H2283 0.960 . S
C2276 C2274 1.381 . S
C2276 C2277 1.394 . S
C2276 H2284 0.930 . S
C2277 C2276 1.394 . S
C2277 C2278 1.383 . S
C2277 H2285 0.929 . S
C2278 C2277 1.383 . S
C2278 C2279 1.377 . S
C2279 H2263 0.930 . S
C2279 C2278 1.377 . S
C2279 C2280 1.379 . S
C2280 H2264 0.931 . S
C2280 C2274 1.383 . S
C2280 C2279 1.379 . S
H2281 C2275 0.959 . S
H2282 C2275 0.961 . S
H2283 C2275 0.960 . S
H2284 C2276 0.930 . S
H2285 C2277 0.929 . S
H2286 C2294 0.929 . S
H2287 C2296 0.930 . S
H2288 C2298 0.930 . S
H2289 C2301 0.929 . S
H2290 C2304 0.930 . S
H2291 C2306 0.960 . S
H2292 C2306 0.960 . S
H2293 C2306 0.960 . S
C2294 H2286 0.929 . S
C2294 C2295 1.377 . S
C2294 C2296 1.384 . S
C2295 C2294 1.377 . S
C2295 C2301 1.390 . S
C2296 H2287 0.930 . S
C2296 C2294 1.384 . S
C2296 C2297 1.372 . S
C2297 C2296 1.372 . S
C2297 C2298 1.400 . S
C2297 C2302 1.490 . S
C2298 H2288 0.930 . S
C2298 C2297 1.400 . S
C2298 C2301 1.386 . S
H2299 C2315 0.930 . S
H2300 C2316 0.931 . S
C2301 H2289 0.929 . S
C2301 C2295 1.390 . S
C2301 C2298 1.386 . S
C2302 C2297 1.490 . S
C2302 C2304 1.395 . S
C2302 C2305 1.403 . S
H2303 C2309 0.930 . S
C2304 H2290 0.930 . S
C2304 C2302 1.395 . S
C2304 C2307 1.403 . S
C2305 C2302 1.403 . S
C2305 C2306 1.524 . S
C2305 C2309 1.400 . S
C2306 H2291 0.960 . S
C2306 H2292 0.960 . S
C2306 H2293 0.960 . S
C2306 C2305 1.524 . S
C2307 C2304 1.403 . S
C2307 C2308 1.392 . S
C2307 C2311 1.495 . S
C2308 C2307 1.392 . S
C2308 C2309 1.385 . S
C2308 C2310 1.478 . S
C2309 H2303 0.930 . S
C2309 C2305 1.400 . S
C2309 C2308 1.385 . S
C2310 C2308 1.478 . S
C2310 C2312 1.381 . S
C2310 C2316 1.383 . S
C2311 C2307 1.495 . S
C2311 H2317 0.959 . S
C2311 H2318 0.961 . S
C2311 H2319 0.960 . S
C2312 C2310 1.381 . S
C2312 C2313 1.394 . S
C2312 H2320 0.930 . S
C2313 C2312 1.394 . S
C2313 C2314 1.383 . S
C2313 H2321 0.929 . S
C2314 C2313 1.383 . S
C2314 C2315 1.377 . S
C2315 H2299 0.930 . S
C2315 C2314 1.377 . S
C2315 C2316 1.379 . S
C2316 H2300 0.931 . S
C2316 C2310 1.383 . S
C2316 C2315 1.379 . S
H2317 C2311 0.959 . S
H2318 C2311 0.961 . S
H2319 C2311 0.960 . S
H2320 C2312 0.930 . S
H2321 C2313 0.929 . S
H2322 C2330 0.929 . S
H2323 C2332 0.930 . S
H2324 C2334 0.930 . S
H2325 C2337 0.929 . S
H2326 C2340 0.930 . S
H2327 C2342 0.960 . S
H2328 C2342 0.960 . S
H2329 C2342 0.960 . S
C2330 H2322 0.929 . S
C2330 C2331 1.377 . S
C2330 C2332 1.384 . S
C2331 C2330 1.377 . S
C2331 C2337 1.390 . S
C2332 H2323 0.930 . S
C2332 C2330 1.384 . S
C2332 C2333 1.372 . S
C2333 C2332 1.372 . S
C2333 C2334 1.400 . S
C2333 C2338 1.490 . S
C2334 H2324 0.930 . S
C2334 C2333 1.400 . S
C2334 C2337 1.386 . S
H2335 C2351 0.930 . S
H2336 C2352 0.931 . S
C2337 H2325 0.929 . S
C2337 C2331 1.390 . S
C2337 C2334 1.386 . S
C2338 C2333 1.490 . S
C2338 C2340 1.395 . S
C2338 C2341 1.403 . S
H2339 C2345 0.930 . S
C2340 H2326 0.930 . S
C2340 C2338 1.395 . S
C2340 C2343 1.403 . S
C2341 C2338 1.403 . S
C2341 C2342 1.524 . S
C2341 C2345 1.400 . S
C2342 H2327 0.960 . S
C2342 H2328 0.960 . S
C2342 H2329 0.960 . S
C2342 C2341 1.524 . S
C2343 C2340 1.403 . S
C2343 C2344 1.392 . S
C2343 C2347 1.495 . S
C2344 C2343 1.392 . S
C2344 C2345 1.385 . S
C2344 C2346 1.478 . S
C2345 H2339 0.930 . S
C2345 C2341 1.400 . S
C2345 C2344 1.385 . S
C2346 C2344 1.478 . S
C2346 C2348 1.381 . S
C2346 C2352 1.383 . S
C2347 C2343 1.495 . S
C2347 H2353 0.959 . S
C2347 H2354 0.961 . S
C2347 H2355 0.960 . S
C2348 C2346 1.381 . S
C2348 C2349 1.394 . S
C2348 H2356 0.930 . S
C2349 C2348 1.394 . S
C2349 C2350 1.383 . S
C2349 H2357 0.929 . S
C2350 C2349 1.383 . S
C2350 C2351 1.377 . S
C2351 H2335 0.930 . S
C2351 C2350 1.377 . S
C2351 C2352 1.379 . S
C2352 H2336 0.931 . S
C2352 C2346 1.383 . S
C2352 C2351 1.379 . S
H2353 C2347 0.959 . S
H2354 C2347 0.961 . S
H2355 C2347 0.960 . S
H2356 C2348 0.930 . S
H2357 C2349 0.929 . S
H2358 C2366 0.929 . S
H2359 C2368 0.930 . S
H2360 C2370 0.930 . S
H2361 C2373 0.929 . S
H2362 C2376 0.930 . S
H2363 C2378 0.960 . S
H2364 C2378 0.960 . S
H2365 C2378 0.960 . S
C2366 H2358 0.929 . S
C2366 C2367 1.377 . S
C2366 C2368 1.384 . S
C2367 C2366 1.377 . S
C2367 C2373 1.390 . S
C2368 H2359 0.930 . S
C2368 C2366 1.384 . S
C2368 C2369 1.372 . S
C2369 C2368 1.372 . S
C2369 C2370 1.400 . S
C2369 C2374 1.490 . S
C2370 H2360 0.930 . S
C2370 C2369 1.400 . S
C2370 C2373 1.386 . S
H2371 C2387 0.930 . S
H2372 C2388 0.931 . S
C2373 H2361 0.929 . S
C2373 C2367 1.390 . S
C2373 C2370 1.386 . S
C2374 C2369 1.490 . S
C2374 C2376 1.395 . S
C2374 C2377 1.403 . S
H2375 C2381 0.930 . S
C2376 H2362 0.930 . S
C2376 C2374 1.395 . S
C2376 C2379 1.403 . S
C2377 C2374 1.403 . S
C2377 C2378 1.524 . S
C2377 C2381 1.400 . S
C2378 H2363 0.960 . S
C2378 H2364 0.960 . S
C2378 H2365 0.960 . S
C2378 C2377 1.524 . S
C2379 C2376 1.403 . S
C2379 C2380 1.392 . S
C2379 C2383 1.495 . S
C2380 C2379 1.392 . S
C2380 C2381 1.385 . S
C2380 C2382 1.478 . S
C2381 H2375 0.930 . S
C2381 C2377 1.400 . S
C2381 C2380 1.385 . S
C2382 C2380 1.478 . S
C2382 C2384 1.381 . S
C2382 C2388 1.383 . S
C2383 C2379 1.495 . S
C2383 H2389 0.959 . S
C2383 H2390 0.961 . S
C2383 H2391 0.960 . S
C2384 C2382 1.381 . S
C2384 C2385 1.394 . S
C2384 H2392 0.930 . S
C2385 C2384 1.394 . S
C2385 C2386 1.383 . S
C2385 H2393 0.929 . S
C2386 C2385 1.383 . S
C2386 C2387 1.377 . S
C2387 H2371 0.930 . S
C2387 C2386 1.377 . S
C2387 C2388 1.379 . S
C2388 H2372 0.931 . S
C2388 C2382 1.383 . S
C2388 C2387 1.379 . S
H2389 C2383 0.959 . S
H2390 C2383 0.961 . S
H2391 C2383 0.960 . S
H2392 C2384 0.930 . S
H2393 C2385 0.929 . S
H2394 C2402 0.929 . S
H2395 C2404 0.930 . S
H2396 C2406 0.930 . S
H2397 C2409 0.929 . S
H2398 C2412 0.930 . S
H2399 C2414 0.960 . S
H2400 C2414 0.960 . S
H2401 C2414 0.960 . S
C2402 H2394 0.929 . S
C2402 C2403 1.377 . S
C2402 C2404 1.384 . S
C2403 C2402 1.377 . S
C2403 C2409 1.390 . S
C2404 H2395 0.930 . S
C2404 C2402 1.384 . S
C2404 C2405 1.372 . S
C2405 C2404 1.372 . S
C2405 C2406 1.400 . S
C2405 C2410 1.490 . S
C2406 H2396 0.930 . S
C2406 C2405 1.400 . S
C2406 C2409 1.386 . S
H2407 C2423 0.930 . S
H2408 C2424 0.931 . S
C2409 H2397 0.929 . S
C2409 C2403 1.390 . S
C2409 C2406 1.386 . S
C2410 C2405 1.490 . S
C2410 C2412 1.395 . S
C2410 C2413 1.403 . S
H2411 C2417 0.930 . S
C2412 H2398 0.930 . S
C2412 C2410 1.395 . S
C2412 C2415 1.403 . S
C2413 C2410 1.403 . S
C2413 C2414 1.524 . S
C2413 C2417 1.400 . S
C2414 H2399 0.960 . S
C2414 H2400 0.960 . S
C2414 H2401 0.960 . S
C2414 C2413 1.524 . S
C2415 C2412 1.403 . S
C2415 C2416 1.392 . S
C2415 C2419 1.495 . S
C2416 C2415 1.392 . S
C2416 C2417 1.385 . S
C2416 C2418 1.478 . S
C2417 H2411 0.930 . S
C2417 C2413 1.400 . S
C2417 C2416 1.385 . S
C2418 C2416 1.478 . S
C2418 C2420 1.381 . S
C2418 C2424 1.383 . S
C2419 C2415 1.495 . S
C2419 H2425 0.959 . S
C2419 H2426 0.961 . S
C2419 H2427 0.960 . S
C2420 C2418 1.381 . S
C2420 C2421 1.394 . S
C2420 H2428 0.930 . S
C2421 C2420 1.394 . S
C2421 C2422 1.383 . S
C2421 H2429 0.929 . S
C2422 C2421 1.383 . S
C2422 C2423 1.377 . S
C2423 H2407 0.930 . S
C2423 C2422 1.377 . S
C2423 C2424 1.379 . S
C2424 H2408 0.931 . S
C2424 C2418 1.383 . S
C2424 C2423 1.379 . S
H2425 C2419 0.959 . S
H2426 C2419 0.961 . S
H2427 C2419 0.960 . S
H2428 C2420 0.930 . S
H2429 C2421 0.929 . S
H2430 C2438 0.929 . S
H2431 C2440 0.930 . S
H2432 C2442 0.930 . S
H2433 C2445 0.929 . S
H2434 C2448 0.930 . S
H2435 C2450 0.960 . S
H2436 C2450 0.960 . S
H2437 C2450 0.960 . S
C2438 H2430 0.929 . S
C2438 C2439 1.377 . S
C2438 C2440 1.384 . S
C2439 C2438 1.377 . S
C2439 C2445 1.390 . S
C2440 H2431 0.930 . S
C2440 C2438 1.384 . S
C2440 C2441 1.372 . S
C2441 C2440 1.372 . S
C2441 C2442 1.400 . S
C2441 C2446 1.490 . S
C2442 H2432 0.930 . S
C2442 C2441 1.400 . S
C2442 C2445 1.386 . S
H2443 C2459 0.930 . S
H2444 C2460 0.931 . S
C2445 H2433 0.929 . S
C2445 C2439 1.390 . S
C2445 C2442 1.386 . S
C2446 C2441 1.490 . S
C2446 C2448 1.395 . S
C2446 C2449 1.403 . S
H2447 C2453 0.930 . S
C2448 H2434 0.930 . S
C2448 C2446 1.395 . S
C2448 C2451 1.403 . S
C2449 C2446 1.403 . S
C2449 C2450 1.524 . S
C2449 C2453 1.400 . S
C2450 H2435 0.960 . S
C2450 H2436 0.960 . S
C2450 H2437 0.960 . S
C2450 C2449 1.524 . S
C2451 C2448 1.403 . S
C2451 C2452 1.392 . S
C2451 C2455 1.495 . S
C2452 C2451 1.392 . S
C2452 C2453 1.385 . S
C2452 C2454 1.478 . S
C2453 H2447 0.930 . S
C2453 C2449 1.400 . S
C2453 C2452 1.385 . S
C2454 C2452 1.478 . S
C2454 C2456 1.381 . S
C2454 C2460 1.383 . S
C2455 C2451 1.495 . S
C2455 H2461 0.959 . S
C2455 H2462 0.961 . S
C2455 H2463 0.960 . S
C2456 C2454 1.381 . S
C2456 C2457 1.394 . S
C2456 H2464 0.930 . S
C2457 C2456 1.394 . S
C2457 C2458 1.383 . S
C2457 H2465 0.929 . S
C2458 C2457 1.383 . S
C2458 C2459 1.377 . S
C2459 H2443 0.930 . S
C2459 C2458 1.377 . S
C2459 C2460 1.379 . S
C2460 H2444 0.931 . S
C2460 C2454 1.383 . S
C2460 C2459 1.379 . S
H2461 C2455 0.959 . S
H2462 C2455 0.961 . S
H2463 C2455 0.960 . S
H2464 C2456 0.930 . S
H2465 C2457 0.929 . S
C531 C124 1.549 . S
C550 C174 1.551 . S
C567 C130 1.762 . S
C586 C214 1.762 . S
C603 C115 1.568 . S
C622 C244 1.554 . S
C639 C106 1.458 . S
C658 C204 1.436 . S
C694 C254 1.434 . S
C675 C85 1.427 . S
C711 C97 1.244 . S
C730 C164 1.249 1_556 S
C766 C193 1.578 . S
C747 C103 1.577 . S
C802 C233 1.731 . S
C783 C88 1.736 . S
C819 C94 1.574 . S
C838 C259 1.575 . S
C855 C121 1.460 . S
C874 C219 1.448 . S
C891 C133 1.396 . S
C910 C273 1.402 . S
C946 C179 1.288 . S
C927 C112 1.266 . S
C982 C294 1.551 . S
C963 C16 1.552 . S
C999 C22 1.764 . S
C1018 C334 1.763 . S
C1035 C7 1.568 . S
C1054 C364 1.559 . S
C1071 C160 1.460 . S
C1090 C324 1.455 . S
C1107 C139 1.424 . S
C1126 C374 1.429 . S
C1143 C151 1.247 . S
C1162 C284 1.261 . S
C1179 C157 1.578 . S
C1198 C313 1.592 . S
C1215 C142 1.734 . S
C1234 C353 1.738 . S
C1270 C379 1.562 . S
C1251 C148 1.567 . S
C1287 C13 1.459 . S
C1306 C339 1.428 . S
C1342 C393 1.406 . S
C1323 C25 1.398 . S
C1359 C4 1.270 . S
C1378 C299 1.280 . S
C1414 C414 1.562 . S
C1395 C70 1.550 . S
C1431 C76 1.764 . S
C1450 C454 1.768 . S
C1486 C484 1.579 . S
C1467 C61 1.572 . S
C1522 C444 1.452 . S
C1503 C52 1.460 . S
C1558 C494 1.426 . S
C1539 C31 1.425 . S
C1575 C43 1.247 . S
C1594 C404 1.261 . S
C1611 C49 1.579 . S
C1630 C433 1.580 . S
C1647 C34 1.734 . S
C1666 C473 1.740 . S
C1702 C499 1.563 . S
C1683 C40 1.573 . S
C1719 C67 1.461 . S
C1738 C459 1.438 . S
C1755 C79 1.396 . S
C1774 C513 1.398 . S
C1791 C58 1.272 . S
C1810 C419 1.272 . S
C1827 C140 1.319 . S
C1846 C191 1.300 . S
C1882 C231 1.777 . S
C1863 C149 1.779 . S
C1899 C158 1.547 . S
C1918 C250 1.535 . S
C1935 C59 1.806 . S
C1954 C210 1.802 . S
C1971 C68 1.525 . S
C1990 C271 1.511 . S
C2026 C170 1.308 . S
C2007 C77 1.318 . S
C2043 C32 1.318 . S
C2062 C311 1.320 . S
C2079 C41 1.782 . S
C2098 C351 1.759 . S
C2115 C50 1.547 . S
C2134 C370 1.541 . S
C2151 C113 1.804 . S
C2170 C330 1.790 . S
C2206 C391 1.511 . S
C2187 C122 1.525 . S
C2223 C131 1.319 . S
C2242 C290 1.315 . S
C2259 C86 1.319 . S
C2278 C431 1.305 . S
C2295 C95 1.781 . S
C2314 C471 1.754 . S
C2350 C490 1.535 . S
C2331 C104 1.547 . S
C2367 C5 1.805 . S
C2386 C450 1.790 . S
C2403 C14 1.526 . S
C2422 C511 1.515 . S
C2439 C23 1.317 . S
C2458 C410 1.294 . S
