# Generated by pormake.
# Topology apo, (3,6)-cn, num edge types: 1
# Building blocks:
#     Node 0, Type 0, BuildingBlock: ESEHIV_clean_linker_0, # of connection points: 3
#     Node 1, Type 0, BuildingBlock: ESEHIV_clean_linker_0, # of connection points: 3
#     Node 2, Type 0, BuildingBlock: ESEHIV_clean_linker_0, # of connection points: 3
#     Node 3, Type 0, BuildingBlock: ESEHIV_clean_linker_0, # of connection points: 3
#     Node 4, Type 0, BuildingBlock: ESEHIV_clean_linker_0, # of connection points: 3
#     Node 5, Type 0, BuildingBlock: ESEHIV_clean_linker_0, # of connection points: 3
#     Node 6, Type 0, BuildingBlock: ESEHIV_clean_linker_0, # of connection points: 3
#     Node 7, Type 0, BuildingBlock: ESEHIV_clean_linker_0, # of connection points: 3
#     Node 8, Type 1, BuildingBlock: KUMBUR_clean_sbu_1, # of connection points: 6
#     Node 9, Type 1, BuildingBlock: KUMBUR_clean_sbu_1, # of connection points: 6
#     Node 10, Type 1, BuildingBlock: KUMBUR_clean_sbu_1, # of connection points: 6
#     Node 11, Type 1, BuildingBlock: KUMBUR_clean_sbu_1, # of connection points: 6
#     Edge 12, Type (0, 1), BuildingBlock: XIVTED_clean_linker_0, # of connection points: 2
#     Edge 13, Type (0, 1), BuildingBlock: XIVTED_clean_linker_0, # of connection points: 2
#     Edge 14, Type (0, 1), BuildingBlock: XIVTED_clean_linker_0, # of connection points: 2
#     Edge 15, Type (0, 1), BuildingBlock: XIVTED_clean_linker_0, # of connection points: 2
#     Edge 16, Type (0, 1), BuildingBlock: XIVTED_clean_linker_0, # of connection points: 2
#     Edge 17, Type (0, 1), BuildingBlock: XIVTED_clean_linker_0, # of connection points: 2
#     Edge 18, Type (0, 1), BuildingBlock: XIVTED_clean_linker_0, # of connection points: 2
#     Edge 19, Type (0, 1), BuildingBlock: XIVTED_clean_linker_0, # of connection points: 2
#     Edge 20, Type (0, 1), BuildingBlock: XIVTED_clean_linker_0, # of connection points: 2
#     Edge 21, Type (0, 1), BuildingBlock: XIVTED_clean_linker_0, # of connection points: 2
#     Edge 22, Type (0, 1), BuildingBlock: XIVTED_clean_linker_0, # of connection points: 2
#     Edge 23, Type (0, 1), BuildingBlock: XIVTED_clean_linker_0, # of connection points: 2
#     Edge 24, Type (0, 1), BuildingBlock: XIVTED_clean_linker_0, # of connection points: 2
#     Edge 25, Type (0, 1), BuildingBlock: XIVTED_clean_linker_0, # of connection points: 2
#     Edge 26, Type (0, 1), BuildingBlock: XIVTED_clean_linker_0, # of connection points: 2
#     Edge 27, Type (0, 1), BuildingBlock: XIVTED_clean_linker_0, # of connection points: 2
#     Edge 28, Type (0, 1), BuildingBlock: XIVTED_clean_linker_0, # of connection points: 2
#     Edge 29, Type (0, 1), BuildingBlock: XIVTED_clean_linker_0, # of connection points: 2
#     Edge 30, Type (0, 1), BuildingBlock: XIVTED_clean_linker_0, # of connection points: 2
#     Edge 31, Type (0, 1), BuildingBlock: XIVTED_clean_linker_0, # of connection points: 2
#     Edge 32, Type (0, 1), BuildingBlock: XIVTED_clean_linker_0, # of connection points: 2
#     Edge 33, Type (0, 1), BuildingBlock: XIVTED_clean_linker_0, # of connection points: 2
#     Edge 34, Type (0, 1), BuildingBlock: XIVTED_clean_linker_0, # of connection points: 2
#     Edge 35, Type (0, 1), BuildingBlock: XIVTED_clean_linker_0, # of connection points: 2
# Relax obj value: 0.008
# Max RMSD: 0.114
# Mean RMSD: 0.087
data_MOF--net-apo--node1-KUMBUR_clean_sbu_1--node2-ESEHIV_clean_linker_0--edge1-XIVTED_clean_linker_0
_symmetry_space_group_name_H-M    P1
_symmetry_Int_Tables_number       1
_symmetry_cell_setting            triclinic
loop_
_symmetry_equiv_pos_as_xyz
'x, y, z'
_cell_length_a     22.689676
_cell_length_b     40.389697
_cell_length_c     50.866294
_cell_angle_alpha  90.137024
_cell_angle_beta   89.797456
_cell_angle_gamma 90.782602
loop_
_atom_site_label
_atom_site_type_symbol
_atom_site_fract_x
_atom_site_fract_y
_atom_site_fract_z
_atom_type_partial_charge
H0 H 0.34449 0.42016 0.4329 0.0
H1 H 0.26733 0.3749 0.36447 0.0
H2 H 0.24239 0.3299 0.44025 0.0
C3 C 0.31808 0.40058 0.42407 0.0
C4 C 0.29399 0.3754 0.44011 0.0
C5 C 0.30869 0.40074 0.39678 0.0
C6 C 0.2756 0.37485 0.38545 0.0
C7 C 0.25227 0.34902 0.40089 0.0
C8 C 0.26199 0.34925 0.42821 0.0
H9 H 0.16302 0.07261 0.93438 0.0
H10 H 0.22418 0.11969 0.86373 0.0
H11 H 0.25756 0.16586 0.93868 0.0
C12 C 0.18593 0.09308 0.9249 0.0
C13 C 0.20924 0.11931 0.9401 0.0
C14 C 0.19095 0.09323 0.89742 0.0
C15 C 0.21982 0.11976 0.88497 0.0
C16 C 0.24414 0.14602 0.89968 0.0
C17 C 0.23787 0.14595 0.92724 0.0
H18 H 0.83971 0.0807 0.58672 0.0
H19 H 0.76713 0.11847 0.65875 0.0
H20 H 0.74317 0.17178 0.58676 0.0
C21 C 0.81515 0.09942 0.59718 0.0
C22 C 0.79442 0.12726 0.58353 0.0
C23 C 0.80421 0.09567 0.62429 0.0
C24 C 0.77304 0.1204 0.63767 0.0
C25 C 0.75049 0.14789 0.62441 0.0
C26 C 0.76152 0.1511 0.59732 0.0
H27 H 0.65069 0.41091 0.09194 0.0
H28 H 0.73637 0.37472 0.1612 0.0
H29 H 0.73893 0.3171 0.09026 0.0
C30 C 0.67663 0.39228 0.10168 0.0
C31 C 0.69415 0.36391 0.08762 0.0
C32 C 0.69043 0.39595 0.12851 0.0
C33 C 0.72324 0.37131 0.1409 0.0
C34 C 0.74002 0.34253 0.12752 0.0
C35 C 0.72572 0.33914 0.1008 0.0
H36 H 0.69739 0.56269 0.58459 0.0
H37 H 0.78405 0.65839 0.58284 0.0
H38 H 0.74082 0.6125 0.65677 0.0
C39 C 0.7167 0.5838 0.59475 0.0
C40 C 0.71595 0.58464 0.62234 0.0
C41 C 0.74041 0.61052 0.58023 0.0
C42 C 0.76431 0.63805 0.59377 0.0
C43 C 0.76556 0.63861 0.62141 0.0
C44 C 0.74057 0.61203 0.63545 0.0
H45 H 0.82998 0.92152 0.08584 0.0
H46 H 0.78886 0.87347 0.15913 0.0
H47 H 0.73866 0.82703 0.08647 0.0
C48 C 0.81116 0.90065 0.09644 0.0
C49 C 0.78507 0.87405 0.08249 0.0
C50 C 0.81287 0.90055 0.12409 0.0
C51 C 0.78848 0.87353 0.13781 0.0
C52 C 0.76095 0.84731 0.12435 0.0
C53 C 0.75914 0.84768 0.09676 0.0
H54 H 0.15137 0.91141 0.43385 0.0
H55 H 0.2518 0.82176 0.43152 0.0
H56 H 0.21537 0.8741 0.3601 0.0
C57 C 0.17485 0.89279 0.42277 0.0
C58 C 0.18003 0.89587 0.39535 0.0
C59 C 0.20054 0.8661 0.43603 0.0
C60 C 0.23158 0.84227 0.42145 0.0
C61 C 0.23723 0.845 0.39399 0.0
C62 C 0.21107 0.87179 0.38123 0.0
H63 H 0.36265 0.59079 0.92792 0.0
H64 H 0.26989 0.62297 0.85906 0.0
H65 H 0.25439 0.67701 0.93167 0.0
C66 C 0.33313 0.60779 0.91834 0.0
C67 C 0.30995 0.6343 0.93279 0.0
C68 C 0.31834 0.60316 0.89173 0.0
C69 C 0.28101 0.62609 0.8796 0.0
C70 C 0.25812 0.6531 0.89369 0.0
C71 C 0.27227 0.65664 0.92042 0.0
Tb72 Tb 0.08297 0.13577 0.2414 0.0
C73 C 0.82516 0.0917 0.2595 0.0
N74 N 0.8474 0.12311 0.25853 0.0
C75 C 0.77012 0.13885 0.22924 0.0
C76 C 0.77528 0.08237 0.24467 0.0
C77 C 0.82001 0.14686 0.24416 0.0
C78 C 0.74789 0.10641 0.22934 0.0
C79 C 0.83184 0.03602 0.27667 0.0
C80 C 0.8538 0.06879 0.27495 0.0
C81 C 0.78292 0.02631 0.26148 0.0
C82 C 0.75473 0.04943 0.2455 0.0
Tb83 Tb 0.92998 0.13324 0.28294 0.0
N84 N 0.90141 0.07902 0.2892 0.0
C85 C 0.8584 0.01434 0.29429 0.0
C86 C 0.92251 0.05904 0.30857 0.0
C87 C 0.903 0.02617 0.31077 0.0
H88 H 0.83639 0.172 0.24442 0.0
H89 H 0.92139 0.01023 0.32564 0.0
H90 H 0.17309 0.09433 0.27986 0.0
H91 H 0.08664 0.26337 0.2078 0.0
H92 H 0.95306 0.06844 0.323 0.0
H93 H 0.84286 0.98897 0.29623 0.0
H94 H 0.05477 0.20529 0.20702 0.0
H95 H 0.74881 0.1577 0.21772 0.0
H96 H 0.76584 0.00116 0.26235 0.0
H97 H 0.71672 0.04168 0.23409 0.0
H98 H 0.26129 0.10644 0.3068 0.0
H99 H 0.70942 0.10024 0.21766 0.0
H100 H 0.16776 0.28139 0.23706 0.0
N101 N 0.16435 0.14405 0.26692 0.0
C102 C 0.18716 0.17536 0.26719 0.0
C103 C 0.2407 0.12606 0.29583 0.0
C104 C 0.23711 0.18342 0.28241 0.0
C105 C 0.19063 0.1193 0.28068 0.0
C106 C 0.26394 0.15826 0.29679 0.0
N107 N 0.1098 0.19077 0.23879 0.0
C108 C 0.08665 0.21289 0.22148 0.0
C109 C 0.18007 0.23247 0.25325 0.0
C110 C 0.1583 0.19959 0.25308 0.0
C111 C 0.15235 0.25589 0.23752 0.0
C112 C 0.10623 0.24587 0.22116 0.0
H113 H 0.30245 0.16345 0.30872 0.0
H114 H 0.29615 0.22304 0.29482 0.0
H115 H 0.24658 0.26594 0.26908 0.0
O116 O 0.10593 0.13986 0.20066 0.0
O117 O 0.08051 0.15398 0.28217 0.0
O118 O 0.98891 0.1764 0.28744 0.0
O119 O 0.15467 0.10882 0.22753 0.0
O120 O 0.00409 0.15801 0.22375 0.0
O121 O 0.94969 0.17703 0.25919 0.0
O122 O 0.9131 0.13331 0.32417 0.0
O123 O 0.93118 0.11236 0.24279 0.0
O124 O 0.02485 0.09275 0.23517 0.0
O125 O 0.85814 0.16042 0.29693 0.0
O126 O 0.0085 0.10927 0.29923 0.0
O127 O 0.06449 0.09071 0.26388 0.0
C128 C 0.04556 0.17604 0.29255 0.0
C129 C 0.19191 0.11004 0.18302 0.0
C130 C 0.21925 0.10255 0.13683 0.0
C131 C 0.27253 0.08845 0.14489 0.0
C132 C 0.24561 0.09589 0.19043 0.0
C133 C 0.28562 0.08533 0.17148 0.0
C134 C 0.17916 0.11382 0.15605 0.0
C135 C 0.96395 0.17763 0.23407 0.0
C136 C 0.14991 0.11994 0.2038 0.0
C137 C 0.258 0.21629 0.28312 0.0
C138 C 0.22956 0.24075 0.26858 0.0
C139 C 0.96727 0.0907 0.23248 0.0
C140 C 0.83001 0.16414 0.34296 0.0
C141 C 0.80686 0.16935 0.38983 0.0
C142 C 0.75983 0.1901 0.38344 0.0
C143 C 0.78241 0.18481 0.33721 0.0
C144 C 0.84168 0.15607 0.36942 0.0
C145 C 0.74759 0.19758 0.35733 0.0
C146 C 0.04516 0.08814 0.28829 0.0
C147 C 0.86779 0.15231 0.32118 0.0
H148 H 0.30435 0.07996 0.13054 0.0
H149 H 0.25681 0.09294 0.21097 0.0
H150 H 0.32685 0.0745 0.17743 0.0
H151 H 0.13776 0.1245 0.15007 0.0
H152 H 0.73213 0.20038 0.39874 0.0
H153 H 0.77223 0.19139 0.31712 0.0
H154 H 0.87835 0.14028 0.37419 0.0
H155 H 0.71114 0.21353 0.35267 0.0
Tb156 Tb 0.42277 0.35971 0.74125 0.0
C157 C 0.69029 0.3878 0.7599 0.0
N158 N 0.66025 0.35846 0.76053 0.0
C159 C 0.73539 0.33324 0.73426 0.0
C160 C 0.74357 0.39122 0.74579 0.0
C161 C 0.68255 0.33112 0.74843 0.0
C162 C 0.76588 0.36347 0.73279 0.0
C163 C 0.69589 0.44562 0.77262 0.0
C164 C 0.66629 0.4147 0.7729 0.0
C165 C 0.74874 0.44929 0.75837 0.0
C166 C 0.7725 0.42217 0.74498 0.0
Tb167 Tb 0.57361 0.35812 0.78353 0.0
N168 N 0.61432 0.41037 0.78603 0.0
C169 C 0.67204 0.47175 0.78706 0.0
C170 C 0.59399 0.435 0.80197 0.0
C171 C 0.62148 0.46621 0.8022 0.0
H172 H 0.66034 0.30746 0.75021 0.0
H173 H 0.60431 0.48577 0.81449 0.0
H174 H 0.33059 0.39962 0.78009 0.0
H175 H 0.42002 0.23364 0.70368 0.0
H176 H 0.55805 0.43066 0.81536 0.0
H177 H 0.69345 0.49589 0.78741 0.0
H178 H 0.4506 0.29197 0.70423 0.0
H179 H 0.75273 0.31152 0.72462 0.0
H180 H 0.77189 0.47293 0.75781 0.0
H181 H 0.8134 0.42535 0.73416 0.0
H182 H 0.24153 0.38631 0.80645 0.0
H183 H 0.80673 0.36506 0.72174 0.0
H184 H 0.33982 0.21401 0.73301 0.0
N185 N 0.34057 0.35029 0.76621 0.0
C186 C 0.31841 0.31885 0.76581 0.0
C187 C 0.26287 0.36711 0.79517 0.0
C188 C 0.26821 0.31009 0.78076 0.0
C189 C 0.31327 0.37456 0.7803 0.0
C190 C 0.24038 0.33471 0.79551 0.0
N191 N 0.39644 0.30477 0.73703 0.0
C192 C 0.41933 0.28355 0.71878 0.0
C193 C 0.32676 0.26224 0.75057 0.0
C194 C 0.34804 0.29522 0.75121 0.0
C195 C 0.3548 0.23956 0.7341 0.0
C196 C 0.40041 0.25047 0.71769 0.0
H197 H 0.20165 0.32897 0.80724 0.0
H198 H 0.20979 0.26975 0.79231 0.0
H199 H 0.26067 0.22792 0.76567 0.0
O200 O 0.39954 0.35651 0.70063 0.0
O201 O 0.42272 0.34205 0.78222 0.0
O202 O 0.51133 0.31646 0.78633 0.0
O203 O 0.3529 0.38842 0.72782 0.0
O204 O 0.50194 0.3378 0.72342 0.0
O205 O 0.55014 0.31546 0.75896 0.0
O206 O 0.58395 0.36062 0.82526 0.0
O207 O 0.5768 0.38169 0.74452 0.0
O208 O 0.48373 0.4016 0.73547 0.0
O209 O 0.63924 0.32957 0.80066 0.0
O210 O 0.49814 0.38592 0.79952 0.0
O211 O 0.44181 0.40431 0.76429 0.0
C212 C 0.45536 0.31884 0.79231 0.0
C213 C 0.31637 0.38833 0.68318 0.0
C214 C 0.28954 0.39501 0.63693 0.0
C215 C 0.23819 0.41141 0.64493 0.0
C216 C 0.26469 0.40485 0.69051 0.0
C217 C 0.22587 0.41614 0.6715 0.0
C218 C 0.32834 0.38302 0.65624 0.0
C219 C 0.53954 0.3168 0.73358 0.0
C220 C 0.35701 0.37734 0.70399 0.0
C221 C 0.24805 0.27706 0.7808 0.0
C222 C 0.27726 0.2532 0.76575 0.0
C223 C 0.5416 0.40317 0.73356 0.0
C224 C 0.66073 0.32785 0.8472 0.0
C225 C 0.67746 0.32392 0.8946 0.0
C226 C 0.7233 0.30165 0.88973 0.0
C227 C 0.70709 0.30565 0.84301 0.0
C228 C 0.64647 0.33735 0.87318 0.0
C229 C 0.73811 0.29277 0.86412 0.0
C230 C 0.46155 0.40708 0.78859 0.0
C231 C 0.6272 0.33975 0.82423 0.0
H232 H 0.20723 0.42047 0.63056 0.0
H233 H 0.25409 0.40904 0.71102 0.0
H234 H 0.18615 0.42876 0.67738 0.0
H235 H 0.36822 0.37051 0.65032 0.0
H236 H 0.7481 0.29127 0.90583 0.0
H237 H 0.7193 0.29797 0.82333 0.0
H238 H 0.61078 0.35435 0.87678 0.0
H239 H 0.77363 0.27566 0.86062 0.0
Tb240 Tb 0.06618 0.85754 0.74011 0.0
C241 C 0.81571 0.81244 0.75781 0.0
N242 N 0.83234 0.84487 0.75737 0.0
C243 C 0.7524 0.85707 0.72838 0.0
C244 C 0.76751 0.80082 0.74285 0.0
C245 C 0.80096 0.86738 0.74332 0.0
C246 C 0.73582 0.82361 0.72799 0.0
C247 C 0.83188 0.7571 0.77416 0.0
C248 C 0.84821 0.7909 0.77292 0.0
C249 C 0.78498 0.74511 0.7587 0.0
C250 C 0.75286 0.76693 0.74308 0.0
Tb251 Tb 0.91296 0.85906 0.78188 0.0
N252 N 0.89362 0.80339 0.78749 0.0
C253 C 0.86156 0.73667 0.7917 0.0
C254 C 0.917 0.78437 0.80698 0.0
C255 C 0.9032 0.75059 0.8087 0.0
H256 H 0.81397 0.89319 0.74342 0.0
H257 H 0.9236 0.73551 0.8236 0.0
H258 H 0.13736 0.78987 0.75733 0.0
H259 H 0.13229 0.98642 0.73744 0.0
H260 H 0.94505 0.79508 0.82188 0.0
H261 H 0.85037 0.71058 0.79329 0.0
H262 H 0.06657 0.93849 0.72889 0.0
H263 H 0.72801 0.87489 0.71705 0.0
H264 H 0.77231 0.71916 0.75917 0.0
H265 H 0.71636 0.75742 0.7315 0.0
H266 H 0.23114 0.77633 0.77917 0.0
H267 H 0.6985 0.81566 0.71622 0.0
H268 H 0.2278 0.97842 0.75976 0.0
N269 N 0.15295 0.84185 0.7586 0.0
C270 C 0.19156 0.8667 0.76458 0.0
C271 C 0.22042 0.80188 0.7753 0.0
C272 C 0.24615 0.86017 0.77645 0.0
C273 C 0.16702 0.80964 0.76325 0.0
C274 C 0.26006 0.82727 0.78206 0.0
N275 N 0.12321 0.90382 0.74697 0.0
C276 C 0.10779 0.93468 0.73879 0.0
C277 C 0.21564 0.92535 0.76344 0.0
C278 C 0.17657 0.89879 0.75826 0.0
C279 C 0.19905 0.95728 0.75611 0.0
C280 C 0.1451 0.9619 0.74353 0.0
H281 H 0.30153 0.82118 0.79124 0.0
H282 H 0.32724 0.88211 0.79128 0.0
H283 H 0.30054 0.93921 0.77983 0.0
O284 O 0.06186 0.86767 0.69951 0.0
O285 O 0.06713 0.88675 0.7767 0.0
O286 O 0.97148 0.90161 0.78851 0.0
O287 O 0.12441 0.83316 0.7146 0.0
O288 O 0.99705 0.89019 0.7254 0.0
O289 O 0.92628 0.90319 0.75748 0.0
O290 O 0.88677 0.8561 0.82216 0.0
O291 O 0.91506 0.84301 0.7403 0.0
O292 O 0.00283 0.81659 0.73815 0.0
O293 O 0.84182 0.88783 0.79465 0.0
O294 O 0.99407 0.84005 0.80017 0.0
O295 O 0.03751 0.81616 0.7644 0.0
C296 C 0.02915 0.90561 0.78914 0.0
C297 C 0.153 0.86365 0.67711 0.0
C298 C 0.19546 0.87252 0.6334 0.0
C299 C 0.24308 0.88968 0.64503 0.0
C300 C 0.2013 0.88056 0.6882 0.0
C301 C 0.2458 0.89367 0.67223 0.0
C302 C 0.15005 0.85983 0.64965 0.0
C303 C 0.95339 0.90823 0.73469 0.0
C304 C 0.10659 0.84898 0.69396 0.0
C305 C 0.28509 0.88659 0.7821 0.0
C306 C 0.2699 0.91911 0.77557 0.0
C307 C 0.94858 0.82011 0.73009 0.0
C308 C 0.80345 0.8882 0.8393 0.0
C309 C 0.77106 0.89096 0.88532 0.0
C310 C 0.72235 0.90959 0.87737 0.0
C311 C 0.7543 0.90687 0.83209 0.0
C312 C 0.81194 0.88043 0.8661 0.0
C313 C 0.71421 0.91748 0.851 0.0
C314 C 0.03191 0.81919 0.7899 0.0
C315 C 0.84474 0.87707 0.81855 0.0
H316 H 0.27817 0.90019 0.63306 0.0
H317 H 0.20515 0.88331 0.70918 0.0
H318 H 0.28278 0.90677 0.68099 0.0
H319 H 0.11328 0.8463 0.64104 0.0
H320 H 0.69074 0.91848 0.89166 0.0
H321 H 0.74658 0.91323 0.81172 0.0
H322 H 0.8496 0.86599 0.87193 0.0
H323 H 0.67659 0.93191 0.84519 0.0
Tb324 Tb 0.4415 0.63225 0.23434 0.0
C325 C 0.68203 0.67889 0.27752 0.0
N326 N 0.66177 0.64769 0.27277 0.0
C327 C 0.75206 0.63459 0.2507 0.0
C328 C 0.73756 0.68964 0.26819 0.0
C329 C 0.69632 0.6252 0.26016 0.0
C330 C 0.77259 0.66704 0.25452 0.0
C331 C 0.66577 0.73256 0.29727 0.0
C332 C 0.64644 0.69998 0.29171 0.0
C333 C 0.72037 0.74385 0.28739 0.0
C334 C 0.75624 0.72241 0.2729 0.0
Tb335 Tb 0.57096 0.63452 0.28923 0.0
N336 N 0.59417 0.68801 0.30106 0.0
C337 C 0.63047 0.75245 0.31323 0.0
C338 C 0.56227 0.70644 0.31848 0.0
C339 C 0.579 0.73911 0.32425 0.0
H340 H 0.6809 0.60003 0.25739 0.0
H341 H 0.55278 0.75375 0.33764 0.0
H342 H 0.34584 0.69017 0.25434 0.0
H343 H 0.40042 0.50475 0.2082 0.0
H344 H 0.52483 0.69589 0.32867 0.0
H345 H 0.64369 0.77764 0.31798 0.0
H346 H 0.45522 0.55831 0.20807 0.0
H347 H 0.77913 0.61681 0.24048 0.0
H348 H 0.73577 0.76889 0.29129 0.0
H349 H 0.79859 0.73128 0.26572 0.0
H350 H 0.25074 0.69135 0.27758 0.0
H351 H 0.81564 0.67428 0.24707 0.0
H352 H 0.30682 0.49931 0.23315 0.0
N353 N 0.35038 0.63744 0.25373 0.0
C354 C 0.3189 0.60879 0.25666 0.0
C355 C 0.2699 0.66786 0.27227 0.0
C356 C 0.2629 0.60834 0.26877 0.0
C357 C 0.32474 0.66701 0.25964 0.0
C358 C 0.23935 0.63832 0.27736 0.0
N359 N 0.39411 0.58207 0.23336 0.0
C360 C 0.41443 0.55593 0.21897 0.0
C361 C 0.30825 0.55036 0.24632 0.0
C362 C 0.34091 0.58023 0.24558 0.0
C363 C 0.33065 0.52274 0.23312 0.0
C364 C 0.38349 0.52571 0.21901 0.0
H365 H 0.19648 0.63908 0.28678 0.0
H366 H 0.18842 0.57738 0.28031 0.0
H367 H 0.22825 0.52653 0.26065 0.0
O368 O 0.45883 0.62664 0.19396 0.0
O369 O 0.45361 0.5901 0.26123 0.0
O370 O 0.48271 0.61612 0.29877 0.0
O371 O 0.37988 0.64997 0.20706 0.0
O372 O 0.52739 0.6118 0.22403 0.0
O373 O 0.57004 0.59159 0.26224 0.0
O374 O 0.59912 0.63702 0.32849 0.0
O375 O 0.58717 0.65576 0.24994 0.0
O376 O 0.49798 0.67674 0.23709 0.0
O377 O 0.60892 0.59224 0.30615 0.0
O378 O 0.48449 0.6555 0.29892 0.0
O379 O 0.44658 0.67613 0.26019 0.0
C380 C 0.45742 0.59102 0.28691 0.0
C381 C 0.41999 0.66722 0.16647 0.0
C382 C 0.4179 0.68247 0.12014 0.0
C383 C 0.442 0.71367 0.12664 0.0
C384 C 0.44264 0.69868 0.17272 0.0
C385 C 0.45391 0.72175 0.15285 0.0
C386 C 0.40713 0.6593 0.14024 0.0
C387 C 0.55977 0.59016 0.23662 0.0
C388 C 0.41162 0.64192 0.18683 0.0
C389 C 0.23125 0.57828 0.27083 0.0
C390 C 0.25385 0.54934 0.25958 0.0
C391 C 0.55603 0.67787 0.23736 0.0
C392 C 0.67616 0.60239 0.34143 0.0
C393 C 0.73233 0.6006 0.38239 0.0
C394 C 0.7828 0.59221 0.36784 0.0
C395 C 0.72702 0.59402 0.32728 0.0
C396 C 0.67919 0.6058 0.36892 0.0
C397 C 0.78008 0.5891 0.34048 0.0
C398 C 0.45238 0.67693 0.28597 0.0
C399 C 0.61888 0.60707 0.32849 0.0
H400 H 0.45056 0.73198 0.11153 0.0
H401 H 0.45154 0.70522 0.19292 0.0
H402 H 0.47181 0.74595 0.15777 0.0
H403 H 0.38965 0.63491 0.13542 0.0
H404 H 0.82448 0.58831 0.37759 0.0
H405 H 0.72575 0.59104 0.30616 0.0
H406 H 0.63965 0.61179 0.37989 0.0
H407 H 0.81922 0.58268 0.32947 0.0
H408 H 0.17951 0.96121 0.41075 0.0
H409 H 0.07266 0.02633 0.27139 0.0
H410 H 0.12426 0.89632 0.34762 0.0
H411 H 0.06557 0.08694 0.34122 0.0
H412 H 0.10268 0.97941 0.29828 0.0
H413 H 0.14584 0.00862 0.38523 0.0
C414 C 0.15968 0.95684 0.3917 0.0
C415 C 0.1552 0.92468 0.38125 0.0
C416 C 0.09454 0.00297 0.30774 0.0
C417 C 0.11804 0.97887 0.35176 0.0
C418 C 0.07793 0.02977 0.29238 0.0
C419 C 0.0665 0.06038 0.30419 0.0
C420 C 0.10067 0.00699 0.33503 0.0
C421 C 0.07364 0.06357 0.33147 0.0
C422 C 0.14088 0.98394 0.37709 0.0
C423 C 0.12986 0.92066 0.35626 0.0
N424 N 0.09045 0.03717 0.34602 0.0
N425 N 0.11274 0.94743 0.34231 0.0
H426 H 0.35536 0.60133 0.84017 0.0
H427 H 0.45299 0.41198 0.84229 0.0
H428 H 0.33453 0.5392 0.90866 0.0
H429 H 0.42189 0.46645 0.77092 0.0
H430 H 0.4192 0.45973 0.86785 0.0
H431 H 0.38939 0.55349 0.81533 0.0
C432 C 0.35756 0.57764 0.85001 0.0
C433 C 0.34151 0.57441 0.8766 0.0
C434 C 0.41965 0.46115 0.84659 0.0
C435 C 0.38175 0.51948 0.84823 0.0
C436 C 0.43904 0.43398 0.83202 0.0
C437 C 0.44022 0.43528 0.80445 0.0
C438 C 0.40196 0.48993 0.8335 0.0
C439 C 0.4214 0.46431 0.79213 0.0
C440 C 0.37731 0.55033 0.8358 0.0
C441 C 0.34697 0.5431 0.88834 0.0
N442 N 0.40338 0.49053 0.80673 0.0
N443 N 0.36664 0.51689 0.87409 0.0
H444 H 0.73773 0.51825 0.61807 0.0
H445 H 0.49724 0.46442 0.72493 0.0
H446 H 0.63474 0.58857 0.66181 0.0
H447 H 0.64492 0.40276 0.70538 0.0
H448 H 0.53952 0.50844 0.69752 0.0
H449 H 0.69627 0.47348 0.64544 0.0
C450 C 0.70607 0.52416 0.6333 0.0
C451 C 0.68958 0.55705 0.63776 0.0
C452 C 0.56277 0.48531 0.69929 0.0
C453 C 0.6421 0.50627 0.66893 0.0
C454 C 0.53856 0.46015 0.71481 0.0
C455 C 0.56769 0.42995 0.71741 0.0
C456 C 0.61603 0.48007 0.68588 0.0
C457 C 0.62135 0.42581 0.70406 0.0
C458 C 0.68284 0.49873 0.649 0.0
C459 C 0.64883 0.56352 0.65788 0.0
N460 N 0.64366 0.45053 0.68868 0.0
N461 N 0.62625 0.53836 0.67262 0.0
H462 H 0.89287 0.89868 0.16402 0.0
H463 H 0.868 0.09007 0.20177 0.0
H464 H 0.79003 0.96665 0.11848 0.0
H465 H 0.01222 0.0291 0.2263 0.0
H466 H 0.83033 0.04389 0.17484 0.0
H467 H 0.92976 0.94518 0.19049 0.0
C468 C 0.87827 0.92347 0.15956 0.0
C469 C 0.83853 0.92889 0.139 0.0
C470 C 0.87027 0.0407 0.1861 0.0
C471 C 0.87993 0.98216 0.1694 0.0
C472 C 0.89143 0.06689 0.20162 0.0
C473 C 0.94313 0.0633 0.21632 0.0
C474 C 0.90081 0.01065 0.18552 0.0
C475 C 0.97237 0.03295 0.21513 0.0
C476 C 0.89937 0.94998 0.17462 0.0
C477 C 0.8211 0.9615 0.134 0.0
N478 N 0.95068 0.00777 0.20012 0.0
N479 N 0.84155 0.98691 0.14923 0.0
H480 H 0.74563 0.06124 0.66294 0.0
H481 H 0.9984 0.92939 0.68723 0.0
H482 H 0.90938 0.06244 0.61942 0.0
H483 H 0.86057 0.95001 0.74354 0.0
H484 H 0.96193 0.9738 0.65944 0.0
H485 H 0.78213 0.01586 0.68951 0.0
C486 C 0.78942 0.05207 0.65899 0.0
C487 C 0.82478 0.06615 0.63908 0.0
C488 C 0.93977 0.96858 0.67789 0.0
C489 C 0.86648 0.01351 0.66933 0.0
C490 C 0.96049 0.94316 0.69383 0.0
C491 C 0.93249 0.9357 0.71787 0.0
C492 C 0.89024 0.9865 0.68581 0.0
C493 C 0.88357 0.95461 0.72521 0.0
C494 C 0.81013 0.02603 0.67416 0.0
C495 C 0.88043 0.05238 0.63444 0.0
N496 N 0.8639 0.97897 0.7092 0.0
N497 N 0.89963 0.02687 0.6495 0.0
H498 H 0.64923 0.39636 0.17922 0.0
H499 H 0.5791 0.58885 0.18367 0.0
H500 H 0.68459 0.46154 0.1137 0.0
H501 H 0.59575 0.52917 0.25346 0.0
H502 H 0.61147 0.54207 0.15708 0.0
H503 H 0.62214 0.44403 0.20583 0.0
C504 C 0.6517 0.42073 0.17041 0.0
C505 C 0.6701 0.42489 0.14418 0.0
C506 C 0.60847 0.53926 0.17822 0.0
C507 C 0.63783 0.4797 0.17462 0.0
C508 C 0.58994 0.56593 0.19344 0.0
C509 C 0.58463 0.56288 0.22086 0.0
C510 C 0.62108 0.50908 0.1904 0.0
C511 C 0.59952 0.53266 0.23242 0.0
C512 C 0.63602 0.44795 0.18567 0.0
C513 C 0.67047 0.45705 0.13373 0.0
N514 N 0.61657 0.50681 0.21709 0.0
N515 N 0.65461 0.48323 0.14899 0.0
H516 H 0.35632 0.39781 0.34698 0.0
H517 H 0.42509 0.59229 0.33854 0.0
H518 H 0.31304 0.46711 0.40864 0.0
H519 H 0.43769 0.52662 0.27183 0.0
H520 H 0.38881 0.54606 0.36521 0.0
H521 H 0.39068 0.44402 0.31976 0.0
C522 C 0.3538 0.42272 0.3548 0.0
C523 C 0.33165 0.42847 0.38022 0.0
C524 C 0.39918 0.54175 0.3447 0.0
C525 C 0.37175 0.48152 0.34918 0.0
C526 C 0.42006 0.56811 0.32948 0.0
C527 C 0.43402 0.5633 0.30288 0.0
C528 C 0.39277 0.51019 0.33333 0.0
C529 C 0.42653 0.5315 0.29215 0.0
C530 C 0.37365 0.44908 0.33925 0.0
C531 C 0.33055 0.46131 0.38938 0.0
N532 N 0.40661 0.50609 0.30743 0.0
N533 N 0.35032 0.48652 0.3739 0.0
H534 H 0.21407 0.02748 0.90297 0.0
H535 H 0.97823 0.96528 0.79841 0.0
H536 H 0.11467 0.09561 0.85609 0.0
H537 H 0.13419 0.90934 0.81533 0.0
H538 H 0.01829 0.0114 0.82451 0.0
H539 H 0.17575 0.98148 0.87603 0.0
C540 C 0.18391 0.03264 0.88707 0.0
C541 C 0.16731 0.06524 0.88167 0.0
C542 C 0.0437 0.98903 0.82244 0.0
C543 C 0.12318 0.01304 0.8511 0.0
C544 C 0.02077 0.96268 0.80773 0.0
C545 C 0.05293 0.93349 0.80482 0.0
C546 C 0.09855 0.98586 0.83478 0.0
C547 C 0.10812 0.93151 0.81704 0.0
C548 C 0.16244 0.00652 0.87166 0.0
C549 C 0.12857 0.07078 0.86076 0.0
N550 N 0.12902 0.95726 0.83172 0.0
N551 N 0.10736 0.04489 0.84634 0.0
H552 H 0.18626 0.16975 0.97529 0.0
H553 H 0.22513 0.05283 0.10094 0.0
H554 H 0.22451 0.06545 0.97176 0.0
H555 H 0.1856 0.15657 0.1078 0.0
H556 H 0.21766 0.05703 0.0533 0.0
H557 H 0.18103 0.16591 0.02343 0.0
C558 C 0.19364 0.14609 0.98459 0.0
C559 C 0.20564 0.11786 0.96936 0.0
C560 C 0.21019 0.07893 0.0651 0.0
C561 C 0.19915 0.11324 0.02438 0.0
C562 C 0.21438 0.07649 0.09233 0.0
C563 C 0.20646 0.10445 0.10828 0.0
C564 C 0.19846 0.10967 0.05351 0.0
C565 C 0.19193 0.13443 0.09615 0.0
C566 C 0.19023 0.14388 0.01205 0.0
C567 C 0.21418 0.08778 0.98253 0.0
N568 N 0.18901 0.13637 0.06941 0.0
N569 N 0.21089 0.08634 1.00915 0.0
H570 H 0.28619 0.43098 0.47061 0.0
H571 H 0.31972 0.33895 0.60915 0.0
H572 H 0.31318 0.32566 0.4764 0.0
H573 H 0.28615 0.44303 0.59963 0.0
H574 H 0.32656 0.33334 0.56099 0.0
H575 H 0.29425 0.43555 0.51803 0.0
C576 C 0.2945 0.40877 0.48181 0.0
C577 C 0.29943 0.37789 0.4693 0.0
C578 C 0.31817 0.35742 0.5695 0.0
C579 C 0.30757 0.38292 0.52425 0.0
C580 C 0.31469 0.36066 0.59694 0.0
C581 C 0.30175 0.39143 0.60834 0.0
C582 C 0.309 0.38523 0.55348 0.0
C583 C 0.29531 0.41874 0.59166 0.0
C584 C 0.29871 0.41138 0.50905 0.0
C585 C 0.30864 0.34994 0.48516 0.0
N586 N 0.29869 0.41496 0.56519 0.0
N587 N 0.31235 0.3531 0.51182 0.0
H588 H 0.65383 0.30794 0.06262 0.0
H589 H 0.67272 0.38541 0.91775 0.0
H590 H 0.69975 0.41028 0.04802 0.0
H591 H 0.65172 0.28135 0.93443 0.0
H592 H 0.66635 0.39721 0.96519 0.0
H593 H 0.63751 0.29994 0.01567 0.0
C594 C 0.66051 0.32877 0.04952 0.0
C595 C 0.67916 0.3597 0.05929 0.0
C596 C 0.66233 0.37185 0.95841 0.0
C597 C 0.65998 0.35077 1.00525 0.0
C598 C 0.66548 0.36517 0.93137 0.0
C599 C 0.66314 0.33236 0.92228 0.0
C600 C 0.65641 0.34549 0.97632 0.0
C601 C 0.65427 0.30697 0.9407 0.0
C602 C 0.65086 0.32423 0.02268 0.0
C603 C 0.68547 0.386 0.04138 0.0
N604 N 0.65163 0.31404 0.96678 0.0
N605 N 0.67647 0.38087 0.0152 0.0
H606 H 0.79205 0.0801 0.54413 0.0
H607 H 0.82193 0.21397 0.42943 0.0
H608 H 0.82393 0.18439 0.55737 0.0
H609 H 0.81723 0.10897 0.41417 0.0
H610 H 0.82762 0.20282 0.47648 0.0
H611 H 0.8057 0.08907 0.49684 0.0
C612 C 0.80255 0.10481 0.53718 0.0
C613 C 0.80618 0.1316 0.55484 0.0
C614 C 0.82595 0.18211 0.46293 0.0
C615 C 0.82127 0.14206 0.50064 0.0
C616 C 0.82272 0.1885 0.43606 0.0
C617 C 0.81876 0.16235 0.41794 0.0
C618 C 0.82438 0.14925 0.47194 0.0
C619 C 0.82038 0.12981 0.42753 0.0
C620 C 0.81013 0.10992 0.51014 0.0
C621 C 0.81939 0.1631 0.54455 0.0
N622 N 0.82229 0.12415 0.45394 0.0
N623 N 0.82602 0.16745 0.51822 0.0
H624 H 0.69519 0.85479 0.04954 0.0
H625 H 0.87051 0.897 0.91602 0.0
H626 H 0.87385 0.8928 0.04833 0.0
H627 H 0.68718 0.86774 0.91949 0.0
H628 H 0.87652 0.89045 0.96398 0.0
H629 H 0.69502 0.85477 1.00156 0.0
C630 C 0.7346 0.86293 0.03921 0.0
C631 C 0.78456 0.87388 0.05312 0.0
C632 C 0.8351 0.88525 0.9542 0.0
C633 C 0.78453 0.87418 0.99786 0.0
C634 C 0.83181 0.88874 0.92681 0.0
C635 C 0.77813 0.88319 0.91376 0.0
C636 C 0.78444 0.87595 0.96858 0.0
C637 C 0.72924 0.87276 0.92877 0.0
C638 C 0.73438 0.86307 0.01174 0.0
C639 C 0.83401 0.88458 0.0385 0.0
N640 N 0.7335 0.86964 0.95528 0.0
N641 N 0.83274 0.88449 0.01172 0.0
H642 H 0.7713 0.55878 0.5484 0.0
H643 H 0.6845 0.64841 0.41414 0.0
H644 H 0.71064 0.65945 0.54548 0.0
H645 H 0.78512 0.55865 0.41714 0.0
H646 H 0.68721 0.65142 0.46226 0.0
H647 H 0.7702 0.55675 0.50034 0.0
C648 C 0.75755 0.58044 0.53763 0.0
C649 C 0.74091 0.60931 0.55099 0.0
C650 C 0.70887 0.63114 0.45237 0.0
C651 C 0.73962 0.60718 0.49588 0.0
C652 C 0.70707 0.6293 0.42493 0.0
C653 C 0.73466 0.60323 0.41158 0.0
C654 C 0.73788 0.60652 0.46665 0.0
C655 C 0.76378 0.57936 0.42657 0.0
C656 C 0.75726 0.57933 0.51018 0.0
C657 C 0.72423 0.63678 0.53598 0.0
N658 N 0.76434 0.58147 0.45326 0.0
N659 N 0.72368 0.63498 0.50925 0.0
H660 H 0.23541 0.64307 0.97438 0.0
H661 H 0.48793 0.68993 0.07658 0.0
H662 H 0.41988 0.63687 0.95462 0.0
H663 H 0.31515 0.65618 0.101 0.0
H664 H 0.4624 0.67643 0.03091 0.0
H665 H 0.26217 0.65354 0.02033 0.0
C666 C 0.28154 0.64388 0.97979 0.0
C667 C 0.32557 0.63912 0.96079 0.0
C668 C 0.43022 0.67187 0.0463 0.0
C669 C 0.35647 0.65138 0.01309 0.0
C670 C 0.44461 0.67974 0.07227 0.0
C671 C 0.40353 0.67414 0.0925 0.0
C672 C 0.374 0.65889 0.04051 0.0
C673 C 0.34817 0.66065 0.08595 0.0
C674 C 0.29677 0.6497 1.00597 0.0
C675 C 0.38469 0.64021 0.96877 0.0
N676 N 0.33482 0.65373 0.06048 0.0
N677 N 0.3985 0.64654 0.99431 0.0
H678 H 0.10475 0.87754 0.46787 0.0
H679 H 0.28623 0.85461 0.60115 0.0
H680 H 0.2876 0.84973 0.4707 0.0
H681 H 0.10195 0.87948 0.59967 0.0
H682 H 0.28581 0.85042 0.55331 0.0
H683 H 0.10119 0.87639 0.51596 0.0
C684 C 0.14415 0.87118 0.47859 0.0
C685 C 0.19663 0.86383 0.46519 0.0
C686 C 0.24533 0.85667 0.56339 0.0
C687 C 0.19274 0.86227 0.52026 0.0
C688 C 0.24562 0.85922 0.59072 0.0
C689 C 0.19418 0.86775 0.60443 0.0
C690 C 0.19327 0.86283 0.54948 0.0
C691 C 0.14255 0.87276 0.58991 0.0
C692 C 0.14198 0.87036 0.50605 0.0
C693 C 0.24602 0.85525 0.48013 0.0
N694 N 0.14351 0.87047 0.5632 0.0
N695 N 0.24292 0.85488 0.50681 0.0
H696 H 0.26326 0.28178 0.40583 0.0
H697 H 0.0083 0.23912 0.30171 0.0
H698 H 0.16071 0.35594 0.36674 0.0
H699 H 0.14045 0.16934 0.32485 0.0
H700 H 0.05466 0.28081 0.33033 0.0
H701 H 0.20938 0.23863 0.38126 0.0
C702 C 0.22892 0.2889 0.39232 0.0
C703 C 0.21664 0.32242 0.38815 0.0
C704 C 0.07344 0.25634 0.32919 0.0
C705 C 0.15503 0.27342 0.36002 0.0
C706 C 0.04683 0.23254 0.31297 0.0
C707 C 0.07097 0.2009 0.31076 0.0
C708 C 0.12409 0.24828 0.34355 0.0
C709 C 0.12103 0.19364 0.32571 0.0
C710 C 0.1985 0.26435 0.37818 0.0
C711 C 0.17199 0.33037 0.37028 0.0
N712 N 0.14598 0.21715 0.34146 0.0
N713 N 0.14287 0.30609 0.35687 0.0
H714 H 0.23487 0.21344 0.90537 0.0
H715 H 0.48654 0.2544 0.7988 0.0
H716 H 0.33067 0.13883 0.86286 0.0
H717 H 0.3614 0.32664 0.82543 0.0
H718 H 0.4375 0.21273 0.82641 0.0
H719 H 0.28846 0.25644 0.88045 0.0
C720 C 0.26749 0.20617 0.89095 0.0
C721 C 0.27809 0.17258 0.88601 0.0
C722 C 0.42076 0.23771 0.82625 0.0
C723 C 0.33947 0.2214 0.85757 0.0
C724 C 0.44894 0.26151 0.81062 0.0
C725 C 0.42766 0.29389 0.80974 0.0
C726 C 0.37138 0.24645 0.84139 0.0
C727 C 0.37865 0.30179 0.82534 0.0
C728 C 0.29776 0.23064 0.87665 0.0
C729 C 0.32061 0.16444 0.86703 0.0
N730 N 0.35212 0.27824 0.84054 0.0
N731 N 0.34972 0.18864 0.85354 0.0
H732 H 0.67125 0.13713 0.66454 0.0
H733 H 0.57515 0.32492 0.68251 0.0
H734 H 0.74819 0.2158 0.61774 0.0
H735 H 0.56825 0.2533 0.74521 0.0
H736 H 0.62457 0.28394 0.65448 0.0
H737 H 0.61873 0.17827 0.69031 0.0
C738 C 0.67749 0.16303 0.6597 0.0
C739 C 0.71522 0.17289 0.63909 0.0
C740 C 0.61212 0.27728 0.67437 0.0
C741 C 0.65347 0.22018 0.66827 0.0
C742 C 0.58376 0.3005 0.69027 0.0
C743 C 0.56793 0.29239 0.71617 0.0
C744 C 0.62341 0.24559 0.68433 0.0
C745 C 0.58022 0.26056 0.7254 0.0
C746 C 0.64712 0.1865 0.67439 0.0
C747 C 0.71951 0.20689 0.6333 0.0
N748 N 0.60694 0.23826 0.70946 0.0
N749 N 0.68906 0.22933 0.64783 0.0
H750 H 0.71899 0.32081 0.17757 0.0
H751 H 0.96146 0.18021 0.17993 0.0
H752 H 0.83183 0.30337 0.11054 0.0
H753 H 0.89682 0.22988 0.24933 0.0
H754 H 0.90665 0.21932 0.15266 0.0
H755 H 0.77459 0.28068 0.20257 0.0
C756 C 0.7557 0.30868 0.16809 0.0
C757 C 0.77136 0.31605 0.142 0.0
C758 C 0.90477 0.22157 0.17387 0.0
C759 C 0.83467 0.26932 0.17055 0.0
C760 C 0.93601 0.19935 0.18943 0.0
C761 C 0.93349 0.20163 0.21699 0.0
C762 C 0.87022 0.24585 0.18599 0.0
C763 C 0.89976 0.22691 0.22821 0.0
C764 C 0.7873 0.28564 0.1824 0.0
C765 C 0.81812 0.29851 0.13058 0.0
N766 N 0.86916 0.2478 0.2127 0.0
N767 N 0.84831 0.27597 0.14496 0.0
H768 H 0.84612 0.63361 0.66062 0.0
H769 H 0.85586 0.82638 0.69612 0.0
H770 H 0.75171 0.70579 0.61549 0.0
H771 H 0.98167 0.75596 0.72453 0.0
H772 H 0.81147 0.78273 0.66854 0.0
H773 H 0.89102 0.67829 0.68631 0.0
C774 C 0.83488 0.65896 0.65614 0.0
C775 C 0.79498 0.66604 0.63599 0.0
C776 C 0.84901 0.77694 0.6807 0.0
C777 C 0.84622 0.71746 0.66539 0.0
C778 C 0.87409 0.80175 0.69651 0.0
C779 C 0.92229 0.79468 0.71265 0.0
C780 C 0.87224 0.74488 0.68121 0.0
C781 C 0.94471 0.76252 0.71227 0.0
C782 C 0.8607 0.68447 0.67074 0.0
C783 C 0.78249 0.69934 0.6308 0.0
N784 N 0.9193 0.7388 0.69695 0.0
N785 N 0.80771 0.72388 0.64557 0.0
H786 H 0.81258 0.805 0.15878 0.0
H787 H 0.51385 0.73709 0.22002 0.0
H788 H 0.64477 0.82904 0.12491 0.0
H789 H 0.66873 0.67641 0.21773 0.0
H790 H 0.56344 0.77691 0.19085 0.0
H791 H 0.76322 0.76296 0.18636 0.0
C792 C 0.7654 0.80117 0.15707 0.0
C793 C 0.73256 0.82018 0.13951 0.0
C794 C 0.58644 0.75483 0.19677 0.0
C795 C 0.67594 0.77311 0.1713 0.0
C796 C 0.55813 0.73202 0.21328 0.0
C797 C 0.58686 0.70311 0.22106 0.0
C798 C 0.64455 0.74919 0.18859 0.0
C799 C 0.64508 0.69847 0.21247 0.0
C800 C 0.73737 0.77729 0.17274 0.0
C801 C 0.67153 0.81458 0.13807 0.0
N802 N 0.67218 0.72135 0.19681 0.0
N803 N 0.64499 0.79178 0.154 0.0
H804 H 0.3114 0.85612 0.35206 0.0
H805 H 0.40358 0.66786 0.33433 0.0
H806 H 0.2396 0.77735 0.40027 0.0
H807 H 0.42421 0.74041 0.2728 0.0
H808 H 0.35102 0.70855 0.36092 0.0
H809 H 0.3612 0.81503 0.32506 0.0
C810 C 0.30575 0.83018 0.35693 0.0
C811 C 0.27059 0.82023 0.37839 0.0
C812 C 0.36679 0.71555 0.34157 0.0
C813 C 0.32872 0.77307 0.34773 0.0
C814 C 0.39689 0.69242 0.32644 0.0
C815 C 0.41823 0.70095 0.30142 0.0
C816 C 0.35873 0.74759 0.33175 0.0
C817 C 0.40815 0.73293 0.29199 0.0
C818 C 0.33442 0.80676 0.34151 0.0
C819 C 0.26654 0.78626 0.3841 0.0
N820 N 0.37946 0.75524 0.30727 0.0
N821 N 0.29527 0.76391 0.36887 0.0
H822 H 0.25721 0.7207 0.90079 0.0
H823 H 0.04812 0.75424 0.77905 0.0
H824 H 0.17317 0.6424 0.85601 0.0
H825 H 0.08002 0.82806 0.83885 0.0
H826 H 0.0995 0.71364 0.80569 0.0
H827 H 0.1977 0.7611 0.87747 0.0
C828 C 0.22587 0.71188 0.88629 0.0
C829 C 0.22055 0.67794 0.88035 0.0
C830 C 0.09509 0.73863 0.81312 0.0
C831 C 0.15319 0.72432 0.85319 0.0
C832 C 0.06606 0.76183 0.79787 0.0
C833 C 0.06041 0.79451 0.80677 0.0
C834 C 0.11938 0.74823 0.83734 0.0
C835 C 0.08361 0.80303 0.8314 0.0
C836 C 0.19211 0.73505 0.87291 0.0
C837 C 0.17985 0.66825 0.86095 0.0
N838 N 0.11276 0.78007 0.84578 0.0
N839 N 0.14812 0.69131 0.84797 0.0
loop_
_geom_bond_atom_site_label_1
_geom_bond_atom_site_label_2
_geom_bond_distance
_geom_bond_site_symmetry_2
_ccdc_geom_bond_type
H0 C3 0.931 . S
H1 C6 0.928 . S
H2 C8 0.930 . S
C3 H0 0.931 . S
C3 C4 1.413 . S
C3 C5 1.360 . S
C4 C3 1.413 . S
C4 C8 1.429 . S
C5 C3 1.360 . S
C5 C6 1.372 . S
C6 H1 0.928 . S
C6 C5 1.372 . S
C6 C7 1.404 . S
C7 C6 1.404 . S
C7 C8 1.391 . S
C8 H2 0.930 . S
C8 C4 1.429 . S
C8 C7 1.391 . S
H9 C12 0.931 . S
H10 C15 0.928 . S
H11 C17 0.930 . S
C12 H9 0.931 . S
C12 C13 1.413 . S
C12 C14 1.360 . S
C13 C12 1.413 . S
C13 C17 1.429 . S
C14 C12 1.360 . S
C14 C15 1.372 . S
C15 H10 0.928 . S
C15 C14 1.372 . S
C15 C16 1.404 . S
C16 C15 1.404 . S
C16 C17 1.391 . S
C17 H11 0.930 . S
C17 C13 1.429 . S
C17 C16 1.391 . S
H18 C21 0.931 . S
H19 C24 0.928 . S
H20 C26 0.930 . S
C21 H18 0.931 . S
C21 C22 1.413 . S
C21 C23 1.360 . S
C22 C21 1.413 . S
C22 C26 1.429 . S
C23 C21 1.360 . S
C23 C24 1.372 . S
C24 H19 0.928 . S
C24 C23 1.372 . S
C24 C25 1.404 . S
C25 C24 1.404 . S
C25 C26 1.391 . S
C26 H20 0.930 . S
C26 C22 1.429 . S
C26 C25 1.391 . S
H27 C30 0.931 . S
H28 C33 0.928 . S
H29 C35 0.930 . S
C30 H27 0.931 . S
C30 C31 1.413 . S
C30 C32 1.360 . S
C31 C30 1.413 . S
C31 C35 1.429 . S
C32 C30 1.360 . S
C32 C33 1.372 . S
C33 H28 0.928 . S
C33 C32 1.372 . S
C33 C34 1.404 . S
C34 C33 1.404 . S
C34 C35 1.391 . S
C35 H29 0.930 . S
C35 C31 1.429 . S
C35 C34 1.391 . S
H36 C39 0.931 . S
H37 C42 0.928 . S
H38 C44 0.930 . S
C39 H36 0.931 . S
C39 C40 1.413 . S
C39 C41 1.360 . S
C40 C39 1.413 . S
C40 C44 1.429 . S
C41 C39 1.360 . S
C41 C42 1.372 . S
C42 H37 0.928 . S
C42 C41 1.372 . S
C42 C43 1.404 . S
C43 C42 1.404 . S
C43 C44 1.391 . S
C44 H38 0.930 . S
C44 C40 1.429 . S
C44 C43 1.391 . S
H45 C48 0.931 . S
H46 C51 0.928 . S
H47 C53 0.930 . S
C48 H45 0.931 . S
C48 C49 1.413 . S
C48 C50 1.360 . S
C49 C48 1.413 . S
C49 C53 1.429 . S
C50 C48 1.360 . S
C50 C51 1.372 . S
C51 H46 0.928 . S
C51 C50 1.372 . S
C51 C52 1.404 . S
C52 C51 1.404 . S
C52 C53 1.391 . S
C53 H47 0.930 . S
C53 C49 1.429 . S
C53 C52 1.391 . S
H54 C57 0.931 . S
H55 C60 0.928 . S
H56 C62 0.930 . S
C57 H54 0.931 . S
C57 C58 1.413 . S
C57 C59 1.360 . S
C58 C57 1.413 . S
C58 C62 1.429 . S
C59 C57 1.360 . S
C59 C60 1.372 . S
C60 H55 0.928 . S
C60 C59 1.372 . S
C60 C61 1.404 . S
C61 C60 1.404 . S
C61 C62 1.391 . S
C62 H56 0.930 . S
C62 C58 1.429 . S
C62 C61 1.391 . S
H63 C66 0.931 . S
H64 C69 0.928 . S
H65 C71 0.930 . S
C66 H63 0.931 . S
C66 C67 1.413 . S
C66 C68 1.360 . S
C67 C66 1.413 . S
C67 C71 1.429 . S
C68 C66 1.360 . S
C68 C69 1.372 . S
C69 H64 0.928 . S
C69 C68 1.372 . S
C69 C70 1.404 . S
C70 C69 1.404 . S
C70 C71 1.391 . S
C71 H65 0.930 . S
C71 C67 1.429 . S
C71 C70 1.391 . S
Tb72 N101 2.617 . S
Tb72 N107 2.572 . S
Tb72 O116 2.465 . S
Tb72 O117 2.387 . S
Tb72 O119 2.428 . S
Tb72 O120 2.296 1_455 S
Tb72 O124 2.358 . S
Tb72 O127 2.393 . S
Tb72 C136 2.802 . S
C73 N74 1.379 . S
C73 C76 1.416 . S
C73 C80 1.424 . S
N74 C73 1.379 . S
N74 C77 1.334 . S
N74 Tb83 2.617 . S
C75 C77 1.390 . S
C75 C78 1.339 . S
C75 H95 0.930 . S
C76 C73 1.416 . S
C76 C78 1.416 . S
C76 C82 1.448 . S
C77 N74 1.334 . S
C77 C75 1.390 . S
C77 H88 0.930 . S
C78 C75 1.339 . S
C78 C76 1.416 . S
C78 H99 0.930 . S
C79 C80 1.413 . S
C79 C81 1.427 . S
C79 C85 1.416 . S
C80 C73 1.424 . S
C80 C79 1.413 . S
C80 N84 1.361 . S
C81 C79 1.427 . S
C81 C82 1.328 . S
C81 H96 0.929 . S
C82 C76 1.448 . S
C82 C81 1.328 . S
C82 H97 0.930 . S
Tb83 N74 2.617 . S
Tb83 N84 2.572 . S
Tb83 O118 2.337 1_655 S
Tb83 O121 2.393 . S
Tb83 O122 2.465 . S
Tb83 O123 2.387 . S
Tb83 O125 2.428 . S
Tb83 O126 2.308 1_655 S
Tb83 C147 2.802 . S
N84 C80 1.361 . S
N84 Tb83 2.572 . S
N84 C86 1.340 . S
C85 C79 1.416 . S
C85 C87 1.332 . S
C85 H93 0.931 . S
C86 N84 1.340 . S
C86 C87 1.407 . S
C86 H92 0.930 . S
C87 C85 1.332 . S
C87 C86 1.407 . S
C87 H89 0.929 . S
H88 C77 0.930 . S
H89 C87 0.929 . S
H90 C105 0.930 . S
H91 C112 0.929 . S
H92 C86 0.930 . S
H93 C85 0.931 . S
H94 C108 0.930 . S
H95 C75 0.930 . S
H96 C81 0.929 . S
H97 C82 0.930 . S
H98 C103 0.930 . S
H99 C78 0.930 . S
H100 C111 0.931 . S
N101 Tb72 2.617 . S
N101 C102 1.379 . S
N101 C105 1.334 . S
C102 N101 1.379 . S
C102 C104 1.416 . S
C102 C110 1.424 . S
C103 H98 0.930 . S
C103 C105 1.390 . S
C103 C106 1.339 . S
C104 C102 1.416 . S
C104 C106 1.416 . S
C104 C137 1.448 . S
C105 H90 0.930 . S
C105 N101 1.334 . S
C105 C103 1.390 . S
C106 C103 1.339 . S
C106 C104 1.416 . S
C106 H113 0.930 . S
N107 Tb72 2.572 . S
N107 C108 1.340 . S
N107 C110 1.361 . S
C108 H94 0.930 . S
C108 N107 1.340 . S
C108 C112 1.407 . S
C109 C110 1.413 . S
C109 C111 1.416 . S
C109 C138 1.427 . S
C110 C102 1.424 . S
C110 N107 1.361 . S
C110 C109 1.413 . S
C111 H100 0.931 . S
C111 C109 1.416 . S
C111 C112 1.332 . S
C112 H91 0.929 . S
C112 C108 1.407 . S
C112 C111 1.332 . S
H113 C106 0.930 . S
H114 C137 0.930 . S
H115 C138 0.929 . S
O116 Tb72 2.465 . S
O116 C136 1.264 . S
O117 Tb72 2.387 . S
O117 C128 1.264 . S
O118 Tb83 2.337 1_455 S
O118 C128 1.258 . S
O119 Tb72 2.428 . S
O119 C136 1.256 . S
O120 Tb72 2.296 1_655 S
O120 C135 1.281 . S
O121 Tb83 2.393 . S
O121 C135 1.248 . S
O122 Tb83 2.465 . S
O122 C147 1.264 . S
O123 Tb83 2.387 . S
O123 C139 1.264 . S
O124 Tb72 2.358 . S
O124 C139 1.232 1_455 S
O125 Tb83 2.428 . S
O125 C147 1.256 . S
O126 Tb83 2.308 1_455 S
O126 C146 1.266 . S
O127 Tb72 2.393 . S
O127 C146 1.248 . S
C128 O117 1.264 . S
C128 O118 1.258 . S
C129 C132 1.399 . S
C129 C134 1.383 . S
C129 C136 1.496 . S
C130 C131 1.399 . S
C130 C134 1.389 . S
C131 C130 1.399 . S
C131 C133 1.380 . S
C131 H148 0.929 . S
C132 C129 1.399 . S
C132 C133 1.392 . S
C132 H149 0.929 . S
C133 C131 1.380 . S
C133 C132 1.392 . S
C133 H150 0.929 . S
C134 C129 1.383 . S
C134 C130 1.389 . S
C134 H151 0.931 . S
C135 O120 1.281 . S
C135 O121 1.248 . S
C136 Tb72 2.802 . S
C136 O116 1.264 . S
C136 O119 1.256 . S
C136 C129 1.496 . S
C137 C104 1.448 . S
C137 H114 0.930 . S
C137 C138 1.328 . S
C138 C109 1.427 . S
C138 H115 0.929 . S
C138 C137 1.328 . S
C139 O123 1.264 . S
C139 O124 1.232 1_655 S
C140 C143 1.399 . S
C140 C144 1.383 . S
C140 C147 1.496 . S
C141 C142 1.399 . S
C141 C144 1.389 . S
C142 C141 1.399 . S
C142 C145 1.380 . S
C142 H152 0.929 . S
C143 C140 1.399 . S
C143 C145 1.392 . S
C143 H153 0.929 . S
C144 C140 1.383 . S
C144 C141 1.389 . S
C144 H154 0.931 . S
C145 C142 1.380 . S
C145 C143 1.392 . S
C145 H155 0.929 . S
C146 O126 1.266 . S
C146 O127 1.248 . S
C147 Tb83 2.802 . S
C147 O122 1.264 . S
C147 O125 1.256 . S
C147 C140 1.496 . S
H148 C131 0.929 . S
H149 C132 0.929 . S
H150 C133 0.929 . S
H151 C134 0.931 . S
H152 C142 0.929 . S
H153 C143 0.929 . S
H154 C144 0.931 . S
H155 C145 0.929 . S
Tb156 N185 2.617 . S
Tb156 N191 2.572 . S
Tb156 O200 2.465 . S
Tb156 O201 2.387 . S
Tb156 O203 2.428 . S
Tb156 O204 2.308 . S
Tb156 O208 2.349 . S
Tb156 O211 2.393 . S
Tb156 C220 2.802 . S
C157 N158 1.379 . S
C157 C160 1.416 . S
C157 C164 1.424 . S
N158 C157 1.379 . S
N158 C161 1.334 . S
N158 Tb167 2.617 . S
C159 C161 1.390 . S
C159 C162 1.339 . S
C159 H179 0.930 . S
C160 C157 1.416 . S
C160 C162 1.416 . S
C160 C166 1.448 . S
C161 N158 1.334 . S
C161 C159 1.390 . S
C161 H172 0.930 . S
C162 C159 1.339 . S
C162 C160 1.416 . S
C162 H183 0.930 . S
C163 C164 1.413 . S
C163 C165 1.427 . S
C163 C169 1.416 . S
C164 C157 1.424 . S
C164 C163 1.413 . S
C164 N168 1.361 . S
C165 C163 1.427 . S
C165 C166 1.328 . S
C165 H180 0.929 . S
C166 C160 1.448 . S
C166 C165 1.328 . S
C166 H181 0.930 . S
Tb167 N158 2.617 . S
Tb167 N168 2.572 . S
Tb167 O202 2.349 . S
Tb167 O205 2.393 . S
Tb167 O206 2.465 . S
Tb167 O207 2.387 . S
Tb167 O209 2.428 . S
Tb167 O210 2.308 . S
Tb167 C231 2.802 . S
N168 C164 1.361 . S
N168 Tb167 2.572 . S
N168 C170 1.340 . S
C169 C163 1.416 . S
C169 C171 1.332 . S
C169 H177 0.931 . S
C170 N168 1.340 . S
C170 C171 1.407 . S
C170 H176 0.930 . S
C171 C169 1.332 . S
C171 C170 1.407 . S
C171 H173 0.929 . S
H172 C161 0.930 . S
H173 C171 0.929 . S
H174 C189 0.930 . S
H175 C196 0.929 . S
H176 C170 0.930 . S
H177 C169 0.931 . S
H178 C192 0.930 . S
H179 C159 0.930 . S
H180 C165 0.929 . S
H181 C166 0.930 . S
H182 C187 0.930 . S
H183 C162 0.930 . S
H184 C195 0.931 . S
N185 Tb156 2.617 . S
N185 C186 1.379 . S
N185 C189 1.334 . S
C186 N185 1.379 . S
C186 C188 1.416 . S
C186 C194 1.424 . S
C187 H182 0.930 . S
C187 C189 1.390 . S
C187 C190 1.339 . S
C188 C186 1.416 . S
C188 C190 1.416 . S
C188 C221 1.448 . S
C189 H174 0.930 . S
C189 N185 1.334 . S
C189 C187 1.390 . S
C190 C187 1.339 . S
C190 C188 1.416 . S
C190 H197 0.930 . S
N191 Tb156 2.572 . S
N191 C192 1.340 . S
N191 C194 1.361 . S
C192 H178 0.930 . S
C192 N191 1.340 . S
C192 C196 1.407 . S
C193 C194 1.413 . S
C193 C195 1.416 . S
C193 C222 1.427 . S
C194 C186 1.424 . S
C194 N191 1.361 . S
C194 C193 1.413 . S
C195 H184 0.931 . S
C195 C193 1.416 . S
C195 C196 1.332 . S
C196 H175 0.929 . S
C196 C192 1.407 . S
C196 C195 1.332 . S
H197 C190 0.930 . S
H198 C221 0.930 . S
H199 C222 0.929 . S
O200 Tb156 2.465 . S
O200 C220 1.264 . S
O201 Tb156 2.387 . S
O201 C212 1.264 . S
O202 Tb167 2.349 . S
O202 C212 1.243 . S
O203 Tb156 2.428 . S
O203 C220 1.256 . S
O204 Tb156 2.308 . S
O204 C219 1.266 . S
O205 Tb167 2.393 . S
O205 C219 1.248 . S
O206 Tb167 2.465 . S
O206 C231 1.264 . S
O207 Tb167 2.387 . S
O207 C223 1.264 . S
O208 Tb156 2.349 . S
O208 C223 1.243 . S
O209 Tb167 2.428 . S
O209 C231 1.256 . S
O210 Tb167 2.308 . S
O210 C230 1.266 . S
O211 Tb156 2.393 . S
O211 C230 1.248 . S
C212 O201 1.264 . S
C212 O202 1.243 . S
C213 C216 1.399 . S
C213 C218 1.383 . S
C213 C220 1.496 . S
C214 C215 1.399 . S
C214 C218 1.389 . S
C215 C214 1.399 . S
C215 C217 1.380 . S
C215 H232 0.929 . S
C216 C213 1.399 . S
C216 C217 1.392 . S
C216 H233 0.929 . S
C217 C215 1.380 . S
C217 C216 1.392 . S
C217 H234 0.929 . S
C218 C213 1.383 . S
C218 C214 1.389 . S
C218 H235 0.931 . S
C219 O204 1.266 . S
C219 O205 1.248 . S
C220 Tb156 2.802 . S
C220 O200 1.264 . S
C220 O203 1.256 . S
C220 C213 1.496 . S
C221 C188 1.448 . S
C221 H198 0.930 . S
C221 C222 1.328 . S
C222 C193 1.427 . S
C222 H199 0.929 . S
C222 C221 1.328 . S
C223 O207 1.264 . S
C223 O208 1.243 . S
C224 C227 1.399 . S
C224 C228 1.383 . S
C224 C231 1.496 . S
C225 C226 1.399 . S
C225 C228 1.389 . S
C226 C225 1.399 . S
C226 C229 1.380 . S
C226 H236 0.929 . S
C227 C224 1.399 . S
C227 C229 1.392 . S
C227 H237 0.929 . S
C228 C224 1.383 . S
C228 C225 1.389 . S
C228 H238 0.931 . S
C229 C226 1.380 . S
C229 C227 1.392 . S
C229 H239 0.929 . S
C230 O210 1.266 . S
C230 O211 1.248 . S
C231 Tb167 2.802 . S
C231 O206 1.264 . S
C231 O209 1.256 . S
C231 C224 1.496 . S
H232 C215 0.929 . S
H233 C216 0.929 . S
H234 C217 0.929 . S
H235 C218 0.931 . S
H236 C226 0.929 . S
H237 C227 0.929 . S
H238 C228 0.931 . S
H239 C229 0.929 . S
Tb240 N269 2.617 . S
Tb240 N275 2.572 . S
Tb240 O284 2.465 . S
Tb240 O285 2.387 . S
Tb240 O287 2.428 . S
Tb240 O288 2.308 . S
Tb240 O292 2.349 . S
Tb240 O295 2.393 . S
Tb240 C304 2.802 . S
C241 N242 1.379 . S
C241 C244 1.416 . S
C241 C248 1.424 . S
N242 C241 1.379 . S
N242 C245 1.334 . S
N242 Tb251 2.617 . S
C243 C245 1.390 . S
C243 C246 1.339 . S
C243 H263 0.930 . S
C244 C241 1.416 . S
C244 C246 1.416 . S
C244 C250 1.448 . S
C245 N242 1.334 . S
C245 C243 1.390 . S
C245 H256 0.930 . S
C246 C243 1.339 . S
C246 C244 1.416 . S
C246 H267 0.930 . S
C247 C248 1.413 . S
C247 C249 1.427 . S
C247 C253 1.416 . S
C248 C241 1.424 . S
C248 C247 1.413 . S
C248 N252 1.361 . S
C249 C247 1.427 . S
C249 C250 1.328 . S
C249 H264 0.929 . S
C250 C244 1.448 . S
C250 C249 1.328 . S
C250 H265 0.930 . S
Tb251 N242 2.617 . S
Tb251 N252 2.572 . S
Tb251 O286 2.349 1_655 S
Tb251 O289 2.393 . S
Tb251 O290 2.465 . S
Tb251 O291 2.387 . S
Tb251 O293 2.428 . S
Tb251 O294 2.308 1_655 S
Tb251 C315 2.802 . S
N252 C248 1.361 . S
N252 Tb251 2.572 . S
N252 C254 1.340 . S
C253 C247 1.416 . S
C253 C255 1.332 . S
C253 H261 0.931 . S
C254 N252 1.340 . S
C254 C255 1.407 . S
C254 H260 0.930 . S
C255 C253 1.332 . S
C255 C254 1.407 . S
C255 H257 0.929 . S
H256 C245 0.930 . S
H257 C255 0.929 . S
H258 C273 0.930 . S
H259 C280 0.929 . S
H260 C254 0.930 . S
H261 C253 0.931 . S
H262 C276 0.930 . S
H263 C243 0.930 . S
H264 C249 0.929 . S
H265 C250 0.930 . S
H266 C271 0.930 . S
H267 C246 0.930 . S
H268 C279 0.931 . S
N269 Tb240 2.617 . S
N269 C270 1.379 . S
N269 C273 1.334 . S
C270 N269 1.379 . S
C270 C272 1.416 . S
C270 C278 1.424 . S
C271 H266 0.930 . S
C271 C273 1.390 . S
C271 C274 1.339 . S
C272 C270 1.416 . S
C272 C274 1.416 . S
C272 C305 1.448 . S
C273 H258 0.930 . S
C273 N269 1.334 . S
C273 C271 1.390 . S
C274 C271 1.339 . S
C274 C272 1.416 . S
C274 H281 0.930 . S
N275 Tb240 2.572 . S
N275 C276 1.340 . S
N275 C278 1.361 . S
C276 H262 0.930 . S
C276 N275 1.340 . S
C276 C280 1.407 . S
C277 C278 1.413 . S
C277 C279 1.416 . S
C277 C306 1.427 . S
C278 C270 1.424 . S
C278 N275 1.361 . S
C278 C277 1.413 . S
C279 H268 0.931 . S
C279 C277 1.416 . S
C279 C280 1.332 . S
C280 H259 0.929 . S
C280 C276 1.407 . S
C280 C279 1.332 . S
H281 C274 0.930 . S
H282 C305 0.930 . S
H283 C306 0.929 . S
O284 Tb240 2.465 . S
O284 C304 1.264 . S
O285 Tb240 2.387 . S
O285 C296 1.264 . S
O286 Tb251 2.349 1_455 S
O286 C296 1.243 . S
O287 Tb240 2.428 . S
O287 C304 1.256 . S
O288 Tb240 2.308 . S
O288 C303 1.266 1_455 S
O289 Tb251 2.393 . S
O289 C303 1.248 . S
O290 Tb251 2.465 . S
O290 C315 1.264 . S
O291 Tb251 2.387 . S
O291 C307 1.264 . S
O292 Tb240 2.349 . S
O292 C307 1.243 1_455 S
O293 Tb251 2.428 . S
O293 C315 1.256 . S
O294 Tb251 2.308 1_455 S
O294 C314 1.266 . S
O295 Tb240 2.393 . S
O295 C314 1.248 . S
C296 O285 1.264 . S
C296 O286 1.243 . S
C297 C300 1.399 . S
C297 C302 1.383 . S
C297 C304 1.496 . S
C298 C299 1.399 . S
C298 C302 1.389 . S
C299 C298 1.399 . S
C299 C301 1.380 . S
C299 H316 0.929 . S
C300 C297 1.399 . S
C300 C301 1.392 . S
C300 H317 0.929 . S
C301 C299 1.380 . S
C301 C300 1.392 . S
C301 H318 0.929 . S
C302 C297 1.383 . S
C302 C298 1.389 . S
C302 H319 0.931 . S
C303 O288 1.266 1_655 S
C303 O289 1.248 . S
C304 Tb240 2.802 . S
C304 O284 1.264 . S
C304 O287 1.256 . S
C304 C297 1.496 . S
C305 C272 1.448 . S
C305 H282 0.930 . S
C305 C306 1.328 . S
C306 C277 1.427 . S
C306 H283 0.929 . S
C306 C305 1.328 . S
C307 O291 1.264 . S
C307 O292 1.243 1_655 S
C308 C311 1.399 . S
C308 C312 1.383 . S
C308 C315 1.496 . S
C309 C310 1.399 . S
C309 C312 1.389 . S
C310 C309 1.399 . S
C310 C313 1.380 . S
C310 H320 0.929 . S
C311 C308 1.399 . S
C311 C313 1.392 . S
C311 H321 0.929 . S
C312 C308 1.383 . S
C312 C309 1.389 . S
C312 H322 0.931 . S
C313 C310 1.380 . S
C313 C311 1.392 . S
C313 H323 0.929 . S
C314 O294 1.266 . S
C314 O295 1.248 . S
C315 Tb251 2.802 . S
C315 O290 1.264 . S
C315 O293 1.256 . S
C315 C308 1.496 . S
H316 C299 0.929 . S
H317 C300 0.929 . S
H318 C301 0.929 . S
H319 C302 0.931 . S
H320 C310 0.929 . S
H321 C311 0.929 . S
H322 C312 0.931 . S
H323 C313 0.929 . S
Tb324 N353 2.617 . S
Tb324 N359 2.572 . S
Tb324 O368 2.465 . S
Tb324 O369 2.387 . S
Tb324 O371 2.428 . S
Tb324 O372 2.308 . S
Tb324 O376 2.349 . S
Tb324 O379 2.393 . S
Tb324 C388 2.802 . S
C325 N326 1.379 . S
C325 C328 1.416 . S
C325 C332 1.424 . S
N326 C325 1.379 . S
N326 C329 1.334 . S
N326 Tb335 2.617 . S
C327 C329 1.390 . S
C327 C330 1.339 . S
C327 H347 0.930 . S
C328 C325 1.416 . S
C328 C330 1.416 . S
C328 C334 1.448 . S
C329 N326 1.334 . S
C329 C327 1.390 . S
C329 H340 0.930 . S
C330 C327 1.339 . S
C330 C328 1.416 . S
C330 H351 0.930 . S
C331 C332 1.413 . S
C331 C333 1.427 . S
C331 C337 1.416 . S
C332 C325 1.424 . S
C332 C331 1.413 . S
C332 N336 1.361 . S
C333 C331 1.427 . S
C333 C334 1.328 . S
C333 H348 0.929 . S
C334 C328 1.448 . S
C334 C333 1.328 . S
C334 H349 0.930 . S
Tb335 N326 2.617 . S
Tb335 N336 2.572 . S
Tb335 O370 2.349 . S
Tb335 O373 2.393 . S
Tb335 O374 2.465 . S
Tb335 O375 2.387 . S
Tb335 O377 2.428 . S
Tb335 O378 2.308 . S
Tb335 C399 2.802 . S
N336 C332 1.361 . S
N336 Tb335 2.572 . S
N336 C338 1.340 . S
C337 C331 1.416 . S
C337 C339 1.332 . S
C337 H345 0.931 . S
C338 N336 1.340 . S
C338 C339 1.407 . S
C338 H344 0.930 . S
C339 C337 1.332 . S
C339 C338 1.407 . S
C339 H341 0.929 . S
H340 C329 0.930 . S
H341 C339 0.929 . S
H342 C357 0.930 . S
H343 C364 0.929 . S
H344 C338 0.930 . S
H345 C337 0.931 . S
H346 C360 0.930 . S
H347 C327 0.930 . S
H348 C333 0.929 . S
H349 C334 0.930 . S
H350 C355 0.930 . S
H351 C330 0.930 . S
H352 C363 0.931 . S
N353 Tb324 2.617 . S
N353 C354 1.379 . S
N353 C357 1.334 . S
C354 N353 1.379 . S
C354 C356 1.416 . S
C354 C362 1.424 . S
C355 H350 0.930 . S
C355 C357 1.390 . S
C355 C358 1.339 . S
C356 C354 1.416 . S
C356 C358 1.416 . S
C356 C389 1.448 . S
C357 H342 0.930 . S
C357 N353 1.334 . S
C357 C355 1.390 . S
C358 C355 1.339 . S
C358 C356 1.416 . S
C358 H365 0.930 . S
N359 Tb324 2.572 . S
N359 C360 1.340 . S
N359 C362 1.361 . S
C360 H346 0.930 . S
C360 N359 1.340 . S
C360 C364 1.407 . S
C361 C362 1.413 . S
C361 C363 1.416 . S
C361 C390 1.427 . S
C362 C354 1.424 . S
C362 N359 1.361 . S
C362 C361 1.413 . S
C363 H352 0.931 . S
C363 C361 1.416 . S
C363 C364 1.332 . S
C364 H343 0.929 . S
C364 C360 1.407 . S
C364 C363 1.332 . S
H365 C358 0.930 . S
H366 C389 0.930 . S
H367 C390 0.929 . S
O368 Tb324 2.465 . S
O368 C388 1.264 . S
O369 Tb324 2.387 . S
O369 C380 1.264 . S
O370 Tb335 2.349 . S
O370 C380 1.243 . S
O371 Tb324 2.428 . S
O371 C388 1.256 . S
O372 Tb324 2.308 . S
O372 C387 1.266 . S
O373 Tb335 2.393 . S
O373 C387 1.248 . S
O374 Tb335 2.465 . S
O374 C399 1.264 . S
O375 Tb335 2.387 . S
O375 C391 1.264 . S
O376 Tb324 2.349 . S
O376 C391 1.243 . S
O377 Tb335 2.428 . S
O377 C399 1.256 . S
O378 Tb335 2.308 . S
O378 C398 1.266 . S
O379 Tb324 2.393 . S
O379 C398 1.248 . S
C380 O369 1.264 . S
C380 O370 1.243 . S
C381 C384 1.399 . S
C381 C386 1.383 . S
C381 C388 1.496 . S
C382 C383 1.399 . S
C382 C386 1.389 . S
C383 C382 1.399 . S
C383 C385 1.380 . S
C383 H400 0.929 . S
C384 C381 1.399 . S
C384 C385 1.392 . S
C384 H401 0.929 . S
C385 C383 1.380 . S
C385 C384 1.392 . S
C385 H402 0.929 . S
C386 C381 1.383 . S
C386 C382 1.389 . S
C386 H403 0.931 . S
C387 O372 1.266 . S
C387 O373 1.248 . S
C388 Tb324 2.802 . S
C388 O368 1.264 . S
C388 O371 1.256 . S
C388 C381 1.496 . S
C389 C356 1.448 . S
C389 H366 0.930 . S
C389 C390 1.328 . S
C390 C361 1.427 . S
C390 H367 0.929 . S
C390 C389 1.328 . S
C391 O375 1.264 . S
C391 O376 1.243 . S
C392 C395 1.399 . S
C392 C396 1.383 . S
C392 C399 1.496 . S
C393 C394 1.399 . S
C393 C396 1.389 . S
C394 C393 1.399 . S
C394 C397 1.380 . S
C394 H404 0.929 . S
C395 C392 1.399 . S
C395 C397 1.392 . S
C395 H405 0.929 . S
C396 C392 1.383 . S
C396 C393 1.389 . S
C396 H406 0.931 . S
C397 C394 1.380 . S
C397 C395 1.392 . S
C397 H407 0.929 . S
C398 O378 1.266 . S
C398 O379 1.248 . S
C399 Tb335 2.802 . S
C399 O374 1.264 . S
C399 O377 1.256 . S
C399 C392 1.496 . S
H400 C383 0.929 . S
H401 C384 0.929 . S
H402 C385 0.929 . S
H403 C386 0.931 . S
H404 C394 0.929 . S
H405 C395 0.929 . S
H406 C396 0.931 . S
H407 C397 0.929 . S
H408 C414 0.930 . S
H409 C418 0.930 . S
H410 C423 0.929 . S
H411 C421 0.929 . S
H412 C416 0.929 1_565 S
H413 C422 0.929 1_545 S
C414 H408 0.930 . S
C414 C415 1.367 . S
C414 C422 1.378 . S
C415 C414 1.367 . S
C415 C423 1.433 . S
C416 H412 0.929 1_545 S
C416 C418 1.378 . S
C416 C420 1.350 . S
C417 C420 1.463 1_565 S
C417 C422 1.350 . S
C417 N425 1.427 . S
C418 H409 0.930 . S
C418 C416 1.378 . S
C418 C419 1.367 . S
C419 C418 1.367 . S
C419 C421 1.433 . S
C420 C416 1.350 . S
C420 C417 1.463 1_545 S
C420 N424 1.427 . S
C421 H411 0.929 . S
C421 C419 1.433 . S
C421 N424 1.384 . S
C422 H413 0.929 1_565 S
C422 C414 1.378 . S
C422 C417 1.350 . S
C423 H410 0.929 . S
C423 C415 1.433 . S
C423 N425 1.384 . S
N424 C420 1.427 . S
N424 C421 1.384 . S
N425 C417 1.427 . S
N425 C423 1.384 . S
H426 C432 0.930 . S
H427 C436 0.930 . S
H428 C441 0.929 . S
H429 C439 0.929 . S
H430 C434 0.929 . S
H431 C440 0.929 . S
C432 H426 0.930 . S
C432 C433 1.367 . S
C432 C440 1.378 . S
C433 C432 1.367 . S
C433 C441 1.433 . S
C434 H430 0.929 . S
C434 C436 1.378 . S
C434 C438 1.350 . S
C435 C438 1.463 . S
C435 C440 1.350 . S
C435 N443 1.427 . S
C436 H427 0.930 . S
C436 C434 1.378 . S
C436 C437 1.367 . S
C437 C436 1.367 . S
C437 C439 1.433 . S
C438 C434 1.350 . S
C438 C435 1.463 . S
C438 N442 1.427 . S
C439 H429 0.929 . S
C439 C437 1.433 . S
C439 N442 1.384 . S
C440 H431 0.929 . S
C440 C432 1.378 . S
C440 C435 1.350 . S
C441 H428 0.929 . S
C441 C433 1.433 . S
C441 N443 1.384 . S
N442 C438 1.427 . S
N442 C439 1.384 . S
N443 C435 1.427 . S
N443 C441 1.384 . S
H444 C450 0.930 . S
H445 C454 0.930 . S
H446 C459 0.929 . S
H447 C457 0.929 . S
H448 C452 0.929 . S
H449 C458 0.929 . S
C450 H444 0.930 . S
C450 C451 1.367 . S
C450 C458 1.378 . S
C451 C450 1.367 . S
C451 C459 1.433 . S
C452 H448 0.929 . S
C452 C454 1.378 . S
C452 C456 1.350 . S
C453 C456 1.463 . S
C453 C458 1.350 . S
C453 N461 1.427 . S
C454 H445 0.930 . S
C454 C452 1.378 . S
C454 C455 1.367 . S
C455 C454 1.367 . S
C455 C457 1.433 . S
C456 C452 1.350 . S
C456 C453 1.463 . S
C456 N460 1.427 . S
C457 H447 0.929 . S
C457 C455 1.433 . S
C457 N460 1.384 . S
C458 H449 0.929 . S
C458 C450 1.378 . S
C458 C453 1.350 . S
C459 H446 0.929 . S
C459 C451 1.433 . S
C459 N461 1.384 . S
N460 C456 1.427 . S
N460 C457 1.384 . S
N461 C453 1.427 . S
N461 C459 1.384 . S
H462 C468 0.930 . S
H463 C472 0.930 . S
H464 C477 0.929 . S
H465 C475 0.929 . S
H466 C470 0.929 . S
H467 C476 0.929 . S
C468 H462 0.930 . S
C468 C469 1.367 . S
C468 C476 1.378 . S
C469 C468 1.367 . S
C469 C477 1.433 . S
C470 H466 0.929 . S
C470 C472 1.378 . S
C470 C474 1.350 . S
C471 C474 1.463 1_565 S
C471 C476 1.350 . S
C471 N479 1.427 . S
C472 H463 0.930 . S
C472 C470 1.378 . S
C472 C473 1.367 . S
C473 C472 1.367 . S
C473 C475 1.433 . S
C474 C470 1.350 . S
C474 C471 1.463 1_545 S
C474 N478 1.427 . S
C475 H465 0.929 . S
C475 C473 1.433 . S
C475 N478 1.384 . S
C476 H467 0.929 . S
C476 C468 1.378 . S
C476 C471 1.350 . S
C477 H464 0.929 . S
C477 C469 1.433 . S
C477 N479 1.384 . S
N478 C474 1.427 . S
N478 C475 1.384 . S
N479 C471 1.427 . S
N479 C477 1.384 . S
H480 C486 0.930 . S
H481 C490 0.930 . S
H482 C495 0.929 . S
H483 C493 0.929 . S
H484 C488 0.929 . S
H485 C494 0.929 . S
C486 H480 0.930 . S
C486 C487 1.367 . S
C486 C494 1.378 . S
C487 C486 1.367 . S
C487 C495 1.433 . S
C488 H484 0.929 . S
C488 C490 1.378 . S
C488 C492 1.350 . S
C489 C492 1.463 1_545 S
C489 C494 1.350 . S
C489 N497 1.427 . S
C490 H481 0.930 . S
C490 C488 1.378 . S
C490 C491 1.367 . S
C491 C490 1.367 . S
C491 C493 1.433 . S
C492 C488 1.350 . S
C492 C489 1.463 1_565 S
C492 N496 1.427 . S
C493 H483 0.929 . S
C493 C491 1.433 . S
C493 N496 1.384 . S
C494 H485 0.929 . S
C494 C486 1.378 . S
C494 C489 1.350 . S
C495 H482 0.929 . S
C495 C487 1.433 . S
C495 N497 1.384 . S
N496 C492 1.427 . S
N496 C493 1.384 . S
N497 C489 1.427 . S
N497 C495 1.384 . S
H498 C504 0.930 . S
H499 C508 0.930 . S
H500 C513 0.929 . S
H501 C511 0.929 . S
H502 C506 0.929 . S
H503 C512 0.929 . S
C504 H498 0.930 . S
C504 C505 1.367 . S
C504 C512 1.378 . S
C505 C504 1.367 . S
C505 C513 1.433 . S
C506 H502 0.929 . S
C506 C508 1.378 . S
C506 C510 1.350 . S
C507 C510 1.463 . S
C507 C512 1.350 . S
C507 N515 1.427 . S
C508 H499 0.930 . S
C508 C506 1.378 . S
C508 C509 1.367 . S
C509 C508 1.367 . S
C509 C511 1.433 . S
C510 C506 1.350 . S
C510 C507 1.463 . S
C510 N514 1.427 . S
C511 H501 0.929 . S
C511 C509 1.433 . S
C511 N514 1.384 . S
C512 H503 0.929 . S
C512 C504 1.378 . S
C512 C507 1.350 . S
C513 H500 0.929 . S
C513 C505 1.433 . S
C513 N515 1.384 . S
N514 C510 1.427 . S
N514 C511 1.384 . S
N515 C507 1.427 . S
N515 C513 1.384 . S
H516 C522 0.930 . S
H517 C526 0.930 . S
H518 C531 0.929 . S
H519 C529 0.929 . S
H520 C524 0.929 . S
H521 C530 0.929 . S
C522 H516 0.930 . S
C522 C523 1.367 . S
C522 C530 1.378 . S
C523 C522 1.367 . S
C523 C531 1.433 . S
C524 H520 0.929 . S
C524 C526 1.378 . S
C524 C528 1.350 . S
C525 C528 1.463 . S
C525 C530 1.350 . S
C525 N533 1.427 . S
C526 H517 0.930 . S
C526 C524 1.378 . S
C526 C527 1.367 . S
C527 C526 1.367 . S
C527 C529 1.433 . S
C528 C524 1.350 . S
C528 C525 1.463 . S
C528 N532 1.427 . S
C529 H519 0.929 . S
C529 C527 1.433 . S
C529 N532 1.384 . S
C530 H521 0.929 . S
C530 C522 1.378 . S
C530 C525 1.350 . S
C531 H518 0.929 . S
C531 C523 1.433 . S
C531 N533 1.384 . S
N532 C528 1.427 . S
N532 C529 1.384 . S
N533 C525 1.427 . S
N533 C531 1.384 . S
H534 C540 0.930 . S
H535 C544 0.930 . S
H536 C549 0.929 . S
H537 C547 0.929 . S
H538 C542 0.929 1_545 S
H539 C548 0.899 1_565 S
C540 H534 0.930 . S
C540 C541 1.367 . S
C540 C548 1.400 . S
C541 C540 1.367 . S
C541 C549 1.433 . S
C542 H538 0.929 1_565 S
C542 C544 1.378 . S
C542 C546 1.350 . S
C543 C546 1.463 1_545 S
C543 C548 1.358 . S
C543 N551 1.427 . S
C544 H535 0.930 . S
C544 C542 1.378 . S
C544 C545 1.367 . S
C545 C544 1.367 . S
C545 C547 1.433 . S
C546 C542 1.350 . S
C546 C543 1.463 1_565 S
C546 N550 1.427 . S
C547 H537 0.929 . S
C547 C545 1.433 . S
C547 N550 1.384 . S
C548 H539 0.899 1_545 S
C548 C540 1.400 . S
C548 C543 1.358 . S
C549 H536 0.929 . S
C549 C541 1.433 . S
C549 N551 1.384 . S
N550 C546 1.427 . S
N550 C547 1.384 . S
N551 C543 1.427 . S
N551 C549 1.384 . S
H552 C558 0.930 . S
H553 C562 0.930 . S
H554 C567 0.929 . S
H555 C565 0.929 . S
H556 C560 0.929 . S
H557 C566 0.929 . S
C558 H552 0.930 . S
C558 C559 1.367 . S
C558 C566 1.378 . S
C559 C558 1.367 . S
C559 C567 1.433 . S
C560 H556 0.929 . S
C560 C562 1.378 . S
C560 C564 1.350 . S
C561 C564 1.463 . S
C561 C566 1.350 1_554 S
C561 N569 1.427 1_554 S
C562 H553 0.930 . S
C562 C560 1.378 . S
C562 C563 1.367 . S
C563 C562 1.367 . S
C563 C565 1.433 . S
C564 C560 1.350 . S
C564 C561 1.463 . S
C564 N568 1.427 . S
C565 H555 0.929 . S
C565 C563 1.433 . S
C565 N568 1.384 . S
C566 H557 0.929 . S
C566 C558 1.378 . S
C566 C561 1.350 1_556 S
C567 H554 0.929 . S
C567 C559 1.433 . S
C567 N569 1.384 . S
N568 C564 1.427 . S
N568 C565 1.384 . S
N569 C561 1.427 1_556 S
N569 C567 1.384 . S
H570 C576 0.930 . S
H571 C580 0.930 . S
H572 C585 0.929 . S
H573 C583 0.929 . S
H574 C578 0.929 . S
H575 C584 0.929 . S
C576 H570 0.930 . S
C576 C577 1.367 . S
C576 C584 1.378 . S
C577 C576 1.367 . S
C577 C585 1.433 . S
C578 H574 0.929 . S
C578 C580 1.378 . S
C578 C582 1.350 . S
C579 C582 1.463 . S
C579 C584 1.350 . S
C579 N587 1.427 . S
C580 H571 0.930 . S
C580 C578 1.378 . S
C580 C581 1.367 . S
C581 C580 1.367 . S
C581 C583 1.433 . S
C582 C578 1.350 . S
C582 C579 1.463 . S
C582 N586 1.427 . S
C583 H573 0.929 . S
C583 C581 1.433 . S
C583 N586 1.384 . S
C584 H575 0.929 . S
C584 C576 1.378 . S
C584 C579 1.350 . S
C585 H572 0.929 . S
C585 C577 1.433 . S
C585 N587 1.384 . S
N586 C582 1.427 . S
N586 C583 1.384 . S
N587 C579 1.427 . S
N587 C585 1.384 . S
H588 C594 0.930 . S
H589 C598 0.930 . S
H590 C603 0.929 . S
H591 C601 0.929 . S
H592 C596 0.929 . S
H593 C602 0.929 . S
C594 H588 0.930 . S
C594 C595 1.367 . S
C594 C602 1.378 . S
C595 C594 1.367 . S
C595 C603 1.433 . S
C596 H592 0.929 . S
C596 C598 1.378 . S
C596 C600 1.350 . S
C597 C600 1.463 1_554 S
C597 C602 1.350 . S
C597 N605 1.427 . S
C598 H589 0.930 . S
C598 C596 1.378 . S
C598 C599 1.367 . S
C599 C598 1.367 . S
C599 C601 1.433 . S
C600 C596 1.350 . S
C600 C597 1.463 1_556 S
C600 N604 1.427 . S
C601 H591 0.929 . S
C601 C599 1.433 . S
C601 N604 1.384 . S
C602 H593 0.929 . S
C602 C594 1.378 . S
C602 C597 1.350 . S
C603 H590 0.929 . S
C603 C595 1.433 . S
C603 N605 1.384 . S
N604 C600 1.427 . S
N604 C601 1.384 . S
N605 C597 1.427 . S
N605 C603 1.384 . S
H606 C612 0.930 . S
H607 C616 0.930 . S
H608 C621 0.929 . S
H609 C619 0.929 . S
H610 C614 0.929 . S
H611 C620 0.929 . S
C612 H606 0.930 . S
C612 C613 1.367 . S
C612 C620 1.378 . S
C613 C612 1.367 . S
C613 C621 1.433 . S
C614 H610 0.929 . S
C614 C616 1.378 . S
C614 C618 1.350 . S
C615 C618 1.463 . S
C615 C620 1.350 . S
C615 N623 1.427 . S
C616 H607 0.930 . S
C616 C614 1.378 . S
C616 C617 1.367 . S
C617 C616 1.367 . S
C617 C619 1.433 . S
C618 C614 1.350 . S
C618 C615 1.463 . S
C618 N622 1.427 . S
C619 H609 0.929 . S
C619 C617 1.433 . S
C619 N622 1.384 . S
C620 H611 0.929 . S
C620 C612 1.378 . S
C620 C615 1.350 . S
C621 H608 0.929 . S
C621 C613 1.433 . S
C621 N623 1.384 . S
N622 C618 1.427 . S
N622 C619 1.384 . S
N623 C615 1.427 . S
N623 C621 1.384 . S
H624 C630 0.930 . S
H625 C634 0.930 . S
H626 C639 0.929 . S
H627 C637 0.929 . S
H628 C632 0.929 . S
H629 C638 0.929 1_556 S
C630 H624 0.930 . S
C630 C631 1.367 . S
C630 C638 1.378 . S
C631 C630 1.367 . S
C631 C639 1.433 . S
C632 H628 0.929 . S
C632 C634 1.378 . S
C632 C636 1.350 . S
C633 C636 1.463 . S
C633 C638 1.350 1_556 S
C633 N641 1.427 1_556 S
C634 H625 0.930 . S
C634 C632 1.378 . S
C634 C635 1.367 . S
C635 C634 1.367 . S
C635 C637 1.433 . S
C636 C632 1.350 . S
C636 C633 1.463 . S
C636 N640 1.427 . S
C637 H627 0.929 . S
C637 C635 1.433 . S
C637 N640 1.384 . S
C638 H629 0.929 1_554 S
C638 C630 1.378 . S
C638 C633 1.350 1_554 S
C639 H626 0.929 . S
C639 C631 1.433 . S
C639 N641 1.384 . S
N640 C636 1.427 . S
N640 C637 1.384 . S
N641 C633 1.427 1_554 S
N641 C639 1.384 . S
H642 C648 0.930 . S
H643 C652 0.930 . S
H644 C657 0.929 . S
H645 C655 0.929 . S
H646 C650 0.929 . S
H647 C656 0.929 . S
C648 H642 0.930 . S
C648 C649 1.367 . S
C648 C656 1.378 . S
C649 C648 1.367 . S
C649 C657 1.433 . S
C650 H646 0.929 . S
C650 C652 1.378 . S
C650 C654 1.350 . S
C651 C654 1.463 . S
C651 C656 1.350 . S
C651 N659 1.427 . S
C652 H643 0.930 . S
C652 C650 1.378 . S
C652 C653 1.367 . S
C653 C652 1.367 . S
C653 C655 1.433 . S
C654 C650 1.350 . S
C654 C651 1.463 . S
C654 N658 1.427 . S
C655 H645 0.929 . S
C655 C653 1.433 . S
C655 N658 1.384 . S
C656 H647 0.929 . S
C656 C648 1.378 . S
C656 C651 1.350 . S
C657 H644 0.929 . S
C657 C649 1.433 . S
C657 N659 1.384 . S
N658 C654 1.427 . S
N658 C655 1.384 . S
N659 C651 1.427 . S
N659 C657 1.384 . S
H660 C666 0.930 . S
H661 C670 0.930 . S
H662 C675 0.929 . S
H663 C673 0.929 . S
H664 C668 0.929 . S
H665 C674 0.929 1_554 S
C666 H660 0.930 . S
C666 C667 1.367 . S
C666 C674 1.378 . S
C667 C666 1.367 . S
C667 C675 1.433 . S
C668 H664 0.929 . S
C668 C670 1.378 . S
C668 C672 1.350 . S
C669 C672 1.482 . S
C669 C674 1.346 1_554 S
C669 N677 1.412 1_554 S
C670 H661 0.930 . S
C670 C668 1.378 . S
C670 C671 1.367 . S
C671 C670 1.367 . S
C671 C673 1.433 . S
C672 C668 1.350 . S
C672 C669 1.482 . S
C672 N676 1.427 . S
C673 H663 0.929 . S
C673 C671 1.433 . S
C673 N676 1.384 . S
C674 H665 0.929 1_556 S
C674 C666 1.378 . S
C674 C669 1.346 1_556 S
C675 H662 0.929 . S
C675 C667 1.433 . S
C675 N677 1.384 . S
N676 C672 1.427 . S
N676 C673 1.384 . S
N677 C669 1.412 1_556 S
N677 C675 1.384 . S
H678 C684 0.930 . S
H679 C688 0.930 . S
H680 C693 0.929 . S
H681 C691 0.929 . S
H682 C686 0.929 . S
H683 C692 0.929 . S
C684 H678 0.930 . S
C684 C685 1.367 . S
C684 C692 1.378 . S
C685 C684 1.367 . S
C685 C693 1.433 . S
C686 H682 0.929 . S
C686 C688 1.378 . S
C686 C690 1.350 . S
C687 C690 1.463 . S
C687 C692 1.350 . S
C687 N695 1.427 . S
C688 H679 0.930 . S
C688 C686 1.378 . S
C688 C689 1.367 . S
C689 C688 1.367 . S
C689 C691 1.433 . S
C690 C686 1.350 . S
C690 C687 1.463 . S
C690 N694 1.427 . S
C691 H681 0.929 . S
C691 C689 1.433 . S
C691 N694 1.384 . S
C692 H683 0.929 . S
C692 C684 1.378 . S
C692 C687 1.350 . S
C693 H680 0.929 . S
C693 C685 1.433 . S
C693 N695 1.384 . S
N694 C690 1.427 . S
N694 C691 1.384 . S
N695 C687 1.427 . S
N695 C693 1.384 . S
H696 C702 0.930 . S
H697 C706 0.950 . S
H698 C711 0.929 . S
H699 C709 0.929 . S
H700 C704 0.929 . S
H701 C710 0.929 . S
C702 H696 0.930 . S
C702 C703 1.367 . S
C702 C710 1.378 . S
C703 C702 1.367 . S
C703 C711 1.433 . S
C704 H700 0.929 . S
C704 C706 1.378 . S
C704 C708 1.350 . S
C705 C708 1.463 . S
C705 C710 1.350 . S
C705 N713 1.427 . S
C706 H697 0.950 . S
C706 C704 1.378 . S
C706 C707 1.367 . S
C707 C706 1.367 . S
C707 C709 1.433 . S
C708 C704 1.350 . S
C708 C705 1.463 . S
C708 N712 1.427 . S
C709 H699 0.929 . S
C709 C707 1.433 . S
C709 N712 1.384 . S
C710 H701 0.929 . S
C710 C702 1.378 . S
C710 C705 1.350 . S
C711 H698 0.929 . S
C711 C703 1.433 . S
C711 N713 1.384 . S
N712 C708 1.427 . S
N712 C709 1.384 . S
N713 C705 1.427 . S
N713 C711 1.384 . S
H714 C720 0.930 . S
H715 C724 0.930 . S
H716 C729 0.929 . S
H717 C727 0.929 . S
H718 C722 0.929 . S
H719 C728 0.929 . S
C720 H714 0.930 . S
C720 C721 1.367 . S
C720 C728 1.378 . S
C721 C720 1.367 . S
C721 C729 1.433 . S
C722 H718 0.929 . S
C722 C724 1.378 . S
C722 C726 1.350 . S
C723 C726 1.463 . S
C723 C728 1.350 . S
C723 N731 1.427 . S
C724 H715 0.930 . S
C724 C722 1.378 . S
C724 C725 1.367 . S
C725 C724 1.367 . S
C725 C727 1.433 . S
C726 C722 1.350 . S
C726 C723 1.463 . S
C726 N730 1.427 . S
C727 H717 0.929 . S
C727 C725 1.433 . S
C727 N730 1.384 . S
C728 H719 0.929 . S
C728 C720 1.378 . S
C728 C723 1.350 . S
C729 H716 0.929 . S
C729 C721 1.433 . S
C729 N731 1.384 . S
N730 C726 1.427 . S
N730 C727 1.384 . S
N731 C723 1.427 . S
N731 C729 1.384 . S
H732 C738 0.930 . S
H733 C742 0.930 . S
H734 C747 0.929 . S
H735 C745 0.929 . S
H736 C740 0.929 . S
H737 C746 0.929 . S
C738 H732 0.930 . S
C738 C739 1.367 . S
C738 C746 1.378 . S
C739 C738 1.367 . S
C739 C747 1.433 . S
C740 H736 0.929 . S
C740 C742 1.378 . S
C740 C744 1.350 . S
C741 C744 1.463 . S
C741 C746 1.350 . S
C741 N749 1.427 . S
C742 H733 0.930 . S
C742 C740 1.378 . S
C742 C743 1.367 . S
C743 C742 1.367 . S
C743 C745 1.433 . S
C744 C740 1.350 . S
C744 C741 1.463 . S
C744 N748 1.427 . S
C745 H735 0.929 . S
C745 C743 1.433 . S
C745 N748 1.384 . S
C746 H737 0.929 . S
C746 C738 1.378 . S
C746 C741 1.350 . S
C747 H734 0.929 . S
C747 C739 1.433 . S
C747 N749 1.384 . S
N748 C744 1.427 . S
N748 C745 1.384 . S
N749 C741 1.427 . S
N749 C747 1.384 . S
H750 C756 0.930 . S
H751 C760 0.930 . S
H752 C765 0.929 . S
H753 C763 0.929 . S
H754 C758 0.929 . S
H755 C764 0.929 . S
C756 H750 0.930 . S
C756 C757 1.367 . S
C756 C764 1.378 . S
C757 C756 1.367 . S
C757 C765 1.433 . S
C758 H754 0.929 . S
C758 C760 1.378 . S
C758 C762 1.350 . S
C759 C762 1.463 . S
C759 C764 1.350 . S
C759 N767 1.427 . S
C760 H751 0.930 . S
C760 C758 1.378 . S
C760 C761 1.367 . S
C761 C760 1.367 . S
C761 C763 1.433 . S
C762 C758 1.350 . S
C762 C759 1.463 . S
C762 N766 1.427 . S
C763 H753 0.929 . S
C763 C761 1.433 . S
C763 N766 1.384 . S
C764 H755 0.929 . S
C764 C756 1.378 . S
C764 C759 1.350 . S
C765 H752 0.929 . S
C765 C757 1.433 . S
C765 N767 1.384 . S
N766 C762 1.427 . S
N766 C763 1.384 . S
N767 C759 1.427 . S
N767 C765 1.384 . S
H768 C774 0.930 . S
H769 C778 0.930 . S
H770 C783 0.929 . S
H771 C781 0.929 . S
H772 C776 0.929 . S
H773 C782 0.929 . S
C774 H768 0.930 . S
C774 C775 1.367 . S
C774 C782 1.378 . S
C775 C774 1.367 . S
C775 C783 1.433 . S
C776 H772 0.929 . S
C776 C778 1.378 . S
C776 C780 1.350 . S
C777 C780 1.463 . S
C777 C782 1.350 . S
C777 N785 1.427 . S
C778 H769 0.930 . S
C778 C776 1.378 . S
C778 C779 1.367 . S
C779 C778 1.367 . S
C779 C781 1.433 . S
C780 C776 1.350 . S
C780 C777 1.463 . S
C780 N784 1.427 . S
C781 H771 0.929 . S
C781 C779 1.433 . S
C781 N784 1.384 . S
C782 H773 0.929 . S
C782 C774 1.378 . S
C782 C777 1.350 . S
C783 H770 0.929 . S
C783 C775 1.433 . S
C783 N785 1.384 . S
N784 C780 1.427 . S
N784 C781 1.384 . S
N785 C777 1.427 . S
N785 C783 1.384 . S
H786 C792 0.930 . S
H787 C796 0.930 . S
H788 C801 0.929 . S
H789 C799 0.929 . S
H790 C794 0.929 . S
H791 C800 0.929 . S
C792 H786 0.930 . S
C792 C793 1.367 . S
C792 C800 1.378 . S
C793 C792 1.367 . S
C793 C801 1.433 . S
C794 H790 0.929 . S
C794 C796 1.378 . S
C794 C798 1.350 . S
C795 C798 1.463 . S
C795 C800 1.350 . S
C795 N803 1.427 . S
C796 H787 0.930 . S
C796 C794 1.378 . S
C796 C797 1.367 . S
C797 C796 1.367 . S
C797 C799 1.433 . S
C798 C794 1.350 . S
C798 C795 1.463 . S
C798 N802 1.427 . S
C799 H789 0.929 . S
C799 C797 1.433 . S
C799 N802 1.384 . S
C800 H791 0.929 . S
C800 C792 1.378 . S
C800 C795 1.350 . S
C801 H788 0.929 . S
C801 C793 1.433 . S
C801 N803 1.384 . S
N802 C798 1.427 . S
N802 C799 1.384 . S
N803 C795 1.427 . S
N803 C801 1.384 . S
H804 C810 0.930 . S
H805 C814 0.930 . S
H806 C819 0.929 . S
H807 C817 0.929 . S
H808 C812 0.929 . S
H809 C818 0.929 . S
C810 H804 0.930 . S
C810 C811 1.367 . S
C810 C818 1.378 . S
C811 C810 1.367 . S
C811 C819 1.433 . S
C812 H808 0.929 . S
C812 C814 1.378 . S
C812 C816 1.350 . S
C813 C816 1.463 . S
C813 C818 1.350 . S
C813 N821 1.427 . S
C814 H805 0.930 . S
C814 C812 1.378 . S
C814 C815 1.367 . S
C815 C814 1.367 . S
C815 C817 1.433 . S
C816 C812 1.350 . S
C816 C813 1.463 . S
C816 N820 1.427 . S
C817 H807 0.929 . S
C817 C815 1.433 . S
C817 N820 1.384 . S
C818 H809 0.929 . S
C818 C810 1.378 . S
C818 C813 1.350 . S
C819 H806 0.929 . S
C819 C811 1.433 . S
C819 N821 1.384 . S
N820 C816 1.427 . S
N820 C817 1.384 . S
N821 C813 1.427 . S
N821 C819 1.384 . S
H822 C828 0.930 . S
H823 C832 0.930 . S
H824 C837 0.929 . S
H825 C835 0.929 . S
H826 C830 0.929 . S
H827 C836 0.929 . S
C828 H822 0.930 . S
C828 C829 1.367 . S
C828 C836 1.378 . S
C829 C828 1.367 . S
C829 C837 1.433 . S
C830 H826 0.929 . S
C830 C832 1.378 . S
C830 C834 1.350 . S
C831 C834 1.463 . S
C831 C836 1.350 . S
C831 N839 1.427 . S
C832 H823 0.930 . S
C832 C830 1.378 . S
C832 C833 1.367 . S
C833 C832 1.367 . S
C833 C835 1.433 . S
C834 C830 1.350 . S
C834 C831 1.463 . S
C834 N838 1.427 . S
C835 H825 0.929 . S
C835 C833 1.433 . S
C835 N838 1.384 . S
C836 H827 0.929 . S
C836 C828 1.378 . S
C836 C831 1.350 . S
C837 H824 0.929 . S
C837 C829 1.433 . S
C837 N839 1.384 . S
N838 C834 1.427 . S
N838 C835 1.384 . S
N839 C831 1.427 . S
N839 C837 1.384 . S
C415 C58 1.473 . S
C419 C146 1.446 . S
C437 C230 1.451 . S
C433 C68 1.470 . S
C455 C223 1.461 . S
C451 C40 1.462 . S
C469 C50 1.458 . S
C473 C139 1.460 . S
C491 C303 1.456 . S
C487 C23 1.474 . S
C509 C387 1.451 . S
C505 C32 1.472 . S
C523 C5 1.462 . S
C527 C380 1.460 . S
C541 C14 1.463 . S
C545 C296 1.463 . S
C563 C130 1.322 . S
C559 C13 1.499 . S
C581 C214 1.343 . S
C577 C4 1.500 . S
C599 C225 1.398 . S
C595 C31 1.521 . S
C617 C141 1.399 . S
C613 C22 1.523 . S
C635 C309 1.336 . S
C631 C49 1.501 . S
C649 C41 1.502 . S
C653 C393 1.339 . S
C671 C382 1.406 . S
C667 C67 1.524 . S
C685 C59 1.524 . S
C689 C298 1.389 . S
C707 C128 1.532 . S
C703 C7 1.528 . S
C725 C212 1.531 . S
C721 C16 1.527 . S
C739 C25 1.525 . S
C743 C219 1.510 . S
C761 C135 1.511 . S
C757 C34 1.521 . S
C779 C307 1.530 . S
C775 C43 1.531 . S
C793 C52 1.526 . S
C797 C391 1.533 . S
C811 C61 1.527 . S
C815 C398 1.509 . S
C829 C70 1.523 . S
C833 C314 1.510 . S
