# Generated by pormake.
# Topology apo, (3,6)-cn, num edge types: 1
# Building blocks:
#     Node 0, Type 0, BuildingBlock: VETTIZ_charged_linker_0, # of connection points: 3
#     Node 1, Type 0, BuildingBlock: VETTIZ_charged_linker_0, # of connection points: 3
#     Node 2, Type 0, BuildingBlock: VETTIZ_charged_linker_0, # of connection points: 3
#     Node 3, Type 0, BuildingBlock: VETTIZ_charged_linker_0, # of connection points: 3
#     Node 4, Type 0, BuildingBlock: VETTIZ_charged_linker_0, # of connection points: 3
#     Node 5, Type 0, BuildingBlock: VETTIZ_charged_linker_0, # of connection points: 3
#     Node 6, Type 0, BuildingBlock: VETTIZ_charged_linker_0, # of connection points: 3
#     Node 7, Type 0, BuildingBlock: VETTIZ_charged_linker_0, # of connection points: 3
#     Node 8, Type 1, BuildingBlock: KUMBOL_clean_sbu_1, # of connection points: 6
#     Node 9, Type 1, BuildingBlock: KUMBOL_clean_sbu_1, # of connection points: 6
#     Node 10, Type 1, BuildingBlock: KUMBOL_clean_sbu_1, # of connection points: 6
#     Node 11, Type 1, BuildingBlock: KUMBOL_clean_sbu_1, # of connection points: 6
#     Edge 12, Type (0, 1), BuildingBlock: UVAHIK_clean_linker_0, # of connection points: 2
#     Edge 13, Type (0, 1), BuildingBlock: UVAHIK_clean_linker_0, # of connection points: 2
#     Edge 14, Type (0, 1), BuildingBlock: UVAHIK_clean_linker_0, # of connection points: 2
#     Edge 15, Type (0, 1), BuildingBlock: UVAHIK_clean_linker_0, # of connection points: 2
#     Edge 16, Type (0, 1), BuildingBlock: UVAHIK_clean_linker_0, # of connection points: 2
#     Edge 17, Type (0, 1), BuildingBlock: UVAHIK_clean_linker_0, # of connection points: 2
#     Edge 18, Type (0, 1), BuildingBlock: UVAHIK_clean_linker_0, # of connection points: 2
#     Edge 19, Type (0, 1), BuildingBlock: UVAHIK_clean_linker_0, # of connection points: 2
#     Edge 20, Type (0, 1), BuildingBlock: UVAHIK_clean_linker_0, # of connection points: 2
#     Edge 21, Type (0, 1), BuildingBlock: UVAHIK_clean_linker_0, # of connection points: 2
#     Edge 22, Type (0, 1), BuildingBlock: UVAHIK_clean_linker_0, # of connection points: 2
#     Edge 23, Type (0, 1), BuildingBlock: UVAHIK_clean_linker_0, # of connection points: 2
#     Edge 24, Type (0, 1), BuildingBlock: UVAHIK_clean_linker_0, # of connection points: 2
#     Edge 25, Type (0, 1), BuildingBlock: UVAHIK_clean_linker_0, # of connection points: 2
#     Edge 26, Type (0, 1), BuildingBlock: UVAHIK_clean_linker_0, # of connection points: 2
#     Edge 27, Type (0, 1), BuildingBlock: UVAHIK_clean_linker_0, # of connection points: 2
#     Edge 28, Type (0, 1), BuildingBlock: UVAHIK_clean_linker_0, # of connection points: 2
#     Edge 29, Type (0, 1), BuildingBlock: UVAHIK_clean_linker_0, # of connection points: 2
#     Edge 30, Type (0, 1), BuildingBlock: UVAHIK_clean_linker_0, # of connection points: 2
#     Edge 31, Type (0, 1), BuildingBlock: UVAHIK_clean_linker_0, # of connection points: 2
#     Edge 32, Type (0, 1), BuildingBlock: UVAHIK_clean_linker_0, # of connection points: 2
#     Edge 33, Type (0, 1), BuildingBlock: UVAHIK_clean_linker_0, # of connection points: 2
#     Edge 34, Type (0, 1), BuildingBlock: UVAHIK_clean_linker_0, # of connection points: 2
#     Edge 35, Type (0, 1), BuildingBlock: UVAHIK_clean_linker_0, # of connection points: 2
# Relax obj value: 0.011
# Max RMSD: 0.086
# Mean RMSD: 0.070
data_MOF--net-apo--node1-KUMBOL_clean_sbu_1--node2-VETTIZ_charged_linker_0--edge1-UVAHIK_clean_linker_0
_symmetry_space_group_name_H-M    P1
_symmetry_Int_Tables_number       1
_symmetry_cell_setting            triclinic
loop_
_symmetry_equiv_pos_as_xyz
'x, y, z'
_cell_length_a     35.790732
_cell_length_b     64.723494
_cell_length_c     77.308596
_cell_angle_alpha  89.957891
_cell_angle_beta   90.036285
_cell_angle_gamma 90.336103
loop_
_atom_site_label
_atom_site_type_symbol
_atom_site_fract_x
_atom_site_fract_y
_atom_site_fract_z
_atom_type_partial_charge
C0 C 0.29656 0.37186 0.47687 0.0
C1 C 0.31932 0.38609 0.48588 0.0
C2 C 0.33484 0.40293 0.47671 0.0
C3 C 0.30467 0.39146 0.45032 0.0
C4 C 0.28987 0.37476 0.45917 0.0
C5 C 0.26723 0.36081 0.44756 0.0
H6 H 0.20831 0.33696 0.36658 0.0
C7 C 0.29241 0.39004 0.43212 0.0
C8 C 0.27059 0.37205 0.43036 0.0
H9 H 0.18708 0.30307 0.4137 0.0
H10 H 0.21976 0.32935 0.43029 0.0
H11 H 0.18654 0.37941 0.38172 0.0
H12 H 0.29402 0.3514 0.37489 0.0
H13 H 0.29647 0.3771 0.36735 0.0
H14 H 0.26408 0.35934 0.35748 0.0
H15 H 0.21098 0.38113 0.36154 0.0
H16 H 0.21773 0.40005 0.37845 0.0
C17 C 0.22644 0.36035 0.45422 0.0
C18 C 0.2864 0.33943 0.44716 0.0
C19 C 0.32998 0.44616 0.38931 0.0
C20 C 0.32145 0.44939 0.37176 0.0
C21 C 0.29895 0.43487 0.363 0.0
C22 C 0.28538 0.41726 0.37151 0.0
C23 C 0.29413 0.41419 0.38904 0.0
C24 C 0.31576 0.42861 0.3977 0.0
C25 C 0.32103 0.4231 0.41645 0.0
C26 C 0.29886 0.40306 0.41761 0.0
C27 C 0.2836 0.39783 0.40147 0.0
C28 C 0.30343 0.44044 0.42754 0.0
C29 C 0.3633 0.41969 0.4197 0.0
C30 C 0.21101 0.3352 0.38046 0.0
C31 C 0.19581 0.3179 0.3889 0.0
C32 C 0.19885 0.3163 0.407 0.0
C33 C 0.21794 0.3315 0.41655 0.0
C34 C 0.23379 0.34855 0.40788 0.0
C35 C 0.22945 0.35036 0.39017 0.0
C36 C 0.24602 0.37005 0.38321 0.0
C37 C 0.26251 0.37936 0.39953 0.0
C38 C 0.25561 0.36664 0.41393 0.0
C39 C 0.21391 0.38339 0.37572 0.0
C40 C 0.27668 0.36434 0.36994 0.0
H41 H 0.34024 0.41885 0.45291 0.0
H42 H 0.28388 0.35882 0.48345 0.0
H43 H 0.31732 0.34122 0.44669 0.0
H44 H 0.27915 0.33025 0.43561 0.0
H45 H 0.27937 0.3303 0.4589 0.0
H46 H 0.21837 0.37564 0.45959 0.0
H47 H 0.22282 0.34869 0.46464 0.0
H48 H 0.20591 0.35725 0.44386 0.0
H49 H 0.34692 0.4572 0.3964 0.0
H50 H 0.29232 0.43698 0.34943 0.0
H51 H 0.26875 0.40669 0.36407 0.0
H52 H 0.27727 0.44617 0.42146 0.0
H53 H 0.32285 0.4538 0.42887 0.0
H54 H 0.29497 0.43519 0.44055 0.0
H55 H 0.37714 0.41321 0.40803 0.0
H56 H 0.3688 0.40828 0.43001 0.0
H57 H 0.37769 0.43444 0.42293 0.0
H58 H 0.35315 0.4139 0.48311 0.0
C59 C 0.32756 0.40572 0.45907 0.0
C60 C 0.288 0.16971 0.87999 0.0
C61 C 0.30535 0.1865 0.88825 0.0
C62 C 0.30448 0.18775 0.90644 0.0
C63 C 0.26769 0.15613 0.90774 0.0
C64 C 0.2698 0.15467 0.88993 0.0
C65 C 0.25128 0.13547 0.8831 0.0
H66 H 0.1537 0.04753 0.89789 0.0
C67 C 0.24594 0.13812 0.91408 0.0
C68 C 0.23668 0.12588 0.89968 0.0
H69 H 0.1966 0.07076 0.84928 0.0
H70 H 0.22235 0.10049 0.86374 0.0
H71 H 0.22667 0.05893 0.92078 0.0
H72 H 0.12329 0.09042 0.91115 0.0
H73 H 0.13533 0.09597 0.93265 0.0
H74 H 0.12638 0.06954 0.92633 0.0
H75 H 0.18249 0.05028 0.92916 0.0
H76 H 0.21084 0.06886 0.94062 0.0
C77 C 0.28162 0.12193 0.87442 0.0
C78 C 0.2191 0.14207 0.8709 0.0
C79 C 0.21132 0.13204 0.97777 0.0
C80 C 0.1895 0.11766 0.98709 0.0
C81 C 0.17398 0.10062 0.97821 0.0
C82 C 0.17996 0.09794 0.96046 0.0
C83 C 0.20153 0.11249 0.95135 0.0
C84 C 0.2168 0.12921 0.95998 0.0
C85 C 0.23839 0.14328 0.94803 0.0
C86 C 0.23316 0.13232 0.93081 0.0
C87 C 0.21167 0.11425 0.93289 0.0
C88 C 0.27982 0.1435 0.95384 0.0
C89 C 0.21952 0.16474 0.94822 0.0
C90 C 0.16845 0.0591 0.89036 0.0
C91 C 0.17333 0.05668 0.87242 0.0
C92 C 0.19298 0.07204 0.86314 0.0
C93 C 0.2078 0.08938 0.87156 0.0
C94 C 0.20299 0.0915 0.8895 0.0
C95 C 0.18355 0.07654 0.8986 0.0
C96 C 0.18123 0.08146 0.91759 0.0
C97 C 0.20306 0.10164 0.91838 0.0
C98 C 0.21556 0.10745 0.90189 0.0
C99 C 0.20106 0.06399 0.9277 0.0
C100 C 0.13949 0.08439 0.92234 0.0
H101 H 0.28543 0.17456 0.93003 0.0
H102 H 0.28897 0.16819 0.86604 0.0
H103 H 0.20427 0.15574 0.8762 0.0
H104 H 0.1973 0.13007 0.8694 0.0
H105 H 0.22992 0.14633 0.85791 0.0
H106 H 0.30953 0.12455 0.8804 0.0
H107 H 0.28418 0.12548 0.86041 0.0
H108 H 0.27636 0.1052 0.87608 0.0
H109 H 0.22403 0.1452 0.98418 0.0
H110 H 0.15651 0.08949 0.98491 0.0
H111 H 0.16724 0.08469 0.95451 0.0
H112 H 0.28807 0.12825 0.95923 0.0
H113 H 0.28479 0.15531 0.96401 0.0
H114 H 0.29935 0.14624 0.943 0.0
H115 H 0.18857 0.16306 0.94787 0.0
H116 H 0.22671 0.1743 0.93689 0.0
H117 H 0.22699 0.17341 0.96014 0.0
H118 H 0.31789 0.20058 0.91301 0.0
C119 C 0.28555 0.17269 0.91624 0.0
C120 C 0.80328 0.13424 0.52823 0.0
C121 C 0.82381 0.11978 0.51853 0.0
C122 C 0.83832 0.1023 0.52711 0.0
C123 C 0.8122 0.11392 0.55434 0.0
C124 C 0.79802 0.13108 0.54602 0.0
C125 C 0.77762 0.14518 0.55824 0.0
H126 H 0.72656 0.16765 0.6405 0.0
C127 C 0.80228 0.11535 0.57288 0.0
C128 C 0.78215 0.13373 0.57527 0.0
H129 H 0.70098 0.20235 0.59413 0.0
H130 H 0.73374 0.17717 0.57689 0.0
H131 H 0.70377 0.12526 0.62491 0.0
H132 H 0.81002 0.15545 0.63092 0.0
H133 H 0.81656 0.12939 0.63648 0.0
H134 H 0.78396 0.14475 0.64865 0.0
H135 H 0.72846 0.12509 0.64509 0.0
H136 H 0.73557 0.10535 0.62893 0.0
C137 C 0.7362 0.14624 0.55253 0.0
C138 C 0.79807 0.16633 0.55838 0.0
C139 C 0.84027 0.05835 0.61492 0.0
C140 C 0.83468 0.05572 0.63283 0.0
C141 C 0.81603 0.07128 0.64214 0.0
C142 C 0.80284 0.08898 0.63383 0.0
C143 C 0.80823 0.09131 0.61595 0.0
C144 C 0.82672 0.0762 0.60676 0.0
C145 C 0.82985 0.08155 0.58783 0.0
C146 C 0.80968 0.10218 0.58721 0.0
C147 C 0.79726 0.10776 0.60375 0.0
C148 C 0.80895 0.0647 0.57734 0.0
C149 C 0.87185 0.08383 0.5833 0.0
C150 C 0.72744 0.16985 0.62662 0.0
C151 C 0.71097 0.18719 0.61879 0.0
C152 C 0.71379 0.18938 0.60064 0.0
C153 C 0.73264 0.17464 0.5906 0.0
C154 C 0.74877 0.15739 0.59872 0.0
C155 C 0.74559 0.15519 0.61642 0.0
C156 C 0.76279 0.13558 0.62291 0.0
C157 C 0.77748 0.12644 0.60623 0.0
C158 C 0.76958 0.1393 0.59207 0.0
C159 C 0.73132 0.12207 0.63101 0.0
C160 C 0.79489 0.14141 0.63551 0.0
H161 H 0.84443 0.08571 0.55058 0.0
H162 H 0.79128 0.14772 0.52211 0.0
H163 H 0.82889 0.16415 0.55831 0.0
H164 H 0.79225 0.17552 0.57006 0.0
H165 H 0.79062 0.1756 0.54679 0.0
H166 H 0.72654 0.13109 0.54733 0.0
H167 H 0.73222 0.15799 0.54222 0.0
H168 H 0.71705 0.14957 0.56336 0.0
H169 H 0.85442 0.04667 0.60738 0.0
H170 H 0.81202 0.0699 0.65598 0.0
H171 H 0.78903 0.10019 0.64173 0.0
H172 H 0.78258 0.06011 0.58397 0.0
H173 H 0.82631 0.05063 0.57594 0.0
H174 H 0.8003 0.06998 0.56438 0.0
H175 H 0.88798 0.09003 0.59448 0.0
H176 H 0.87704 0.09499 0.57274 0.0
H177 H 0.88415 0.06869 0.57977 0.0
H178 H 0.85476 0.09105 0.52014 0.0
C179 C 0.83256 0.09928 0.54487 0.0
C180 C 0.78563 0.33404 0.1283 0.0
C181 C 0.7974 0.31519 0.12121 0.0
C182 C 0.79147 0.31157 0.1034 0.0
C183 C 0.76113 0.3449 0.10044 0.0
C184 C 0.76759 0.34849 0.11781 0.0
C185 C 0.75253 0.3689 0.12371 0.0
H186 H 0.65053 0.45405 0.10754 0.0
C187 C 0.74057 0.36291 0.09344 0.0
C188 C 0.7355 0.37695 0.10708 0.0
H189 H 0.70643 0.43669 0.15502 0.0
H190 H 0.73135 0.40662 0.14118 0.0
H191 H 0.72107 0.44464 0.08362 0.0
H192 H 0.62336 0.40866 0.09609 0.0
H193 H 0.6313 0.40637 0.07371 0.0
H194 H 0.62217 0.43144 0.08283 0.0
H195 H 0.67693 0.44918 0.07335 0.0
H196 H 0.70976 0.43065 0.0649 0.0
C197 C 0.78581 0.3825 0.12985 0.0
C198 C 0.7225 0.36459 0.13773 0.0
C199 C 0.7013 0.36533 0.03003 0.0
C200 C 0.68183 0.38009 0.02014 0.0
C201 C 0.66868 0.39805 0.0284 0.0
C202 C 0.67502 0.4014 0.04606 0.0
C203 C 0.69473 0.38664 0.0557 0.0
C204 C 0.7075 0.36894 0.04771 0.0
C205 C 0.72801 0.35504 0.06012 0.0
C206 C 0.72594 0.3675 0.07675 0.0
C207 C 0.70619 0.38595 0.07406 0.0
C208 C 0.76871 0.35272 0.05369 0.0
C209 C 0.70609 0.33441 0.06148 0.0
C210 C 0.66839 0.44389 0.11494 0.0
C211 C 0.67572 0.44765 0.13258 0.0
C212 C 0.69926 0.43393 0.1416 0.0
C213 C 0.71401 0.41648 0.13349 0.0
C214 C 0.70545 0.41259 0.11607 0.0
C215 C 0.68367 0.42639 0.10697 0.0
C216 C 0.67898 0.4201 0.08834 0.0
C217 C 0.7007 0.39998 0.08795 0.0
C218 C 0.71575 0.3956 0.10428 0.0
C219 C 0.69731 0.43699 0.07684 0.0
C220 C 0.63679 0.41655 0.08489 0.0
H221 H 0.76945 0.32258 0.07959 0.0
H222 H 0.79035 0.33757 0.14183 0.0
H223 H 0.70559 0.35068 0.13437 0.0
H224 H 0.70197 0.37713 0.13905 0.0
H225 H 0.73562 0.36176 0.15053 0.0
H226 H 0.81196 0.37853 0.12285 0.0
H227 H 0.79121 0.38039 0.14389 0.0
H228 H 0.78165 0.39911 0.12713 0.0
H229 H 0.71206 0.35144 0.02408 0.0
H230 H 0.65308 0.4095 0.02122 0.0
H231 H 0.66422 0.41537 0.05151 0.0
H232 H 0.77959 0.36769 0.04864 0.0
H233 H 0.77043 0.3412 0.04308 0.0
H234 H 0.78826 0.34827 0.06407 0.0
H235 H 0.67544 0.33716 0.06109 0.0
H236 H 0.71096 0.32625 0.0738 0.0
H237 H 0.7131 0.32395 0.05058 0.0
H238 H 0.8001 0.29714 0.09759 0.0
C239 C 0.77343 0.3263 0.09299 0.0
C240 C 0.69061 0.56176 0.62571 0.0
C241 C 0.66711 0.54636 0.61884 0.0
C242 C 0.65441 0.54827 0.60165 0.0
C243 C 0.68848 0.5806 0.59853 0.0
C244 C 0.7006 0.57873 0.61544 0.0
C245 C 0.72364 0.59698 0.62114 0.0
H246 H 0.79883 0.6909 0.60403 0.0
C247 C 0.7034 0.6003 0.59157 0.0
C248 C 0.72374 0.61002 0.60482 0.0
H249 H 0.80227 0.65601 0.65174 0.0
H250 H 0.76792 0.62828 0.63843 0.0
H251 H 0.81641 0.65238 0.57944 0.0
H252 H 0.71193 0.67994 0.59425 0.0
H253 H 0.71096 0.67529 0.57182 0.0
H254 H 0.74544 0.69273 0.58061 0.0
H255 H 0.8008 0.67631 0.57028 0.0
H256 H 0.78714 0.65168 0.56123 0.0
C257 C 0.76328 0.58917 0.62574 0.0
C258 C 0.70284 0.60773 0.63624 0.0
C259 C 0.67923 0.61992 0.52885 0.0
C260 C 0.69053 0.63678 0.51857 0.0
C261 C 0.71197 0.6527 0.52622 0.0
C262 C 0.72215 0.65179 0.54373 0.0
C263 C 0.71097 0.63474 0.55378 0.0
C264 C 0.68986 0.61917 0.5463 0.0
C265 C 0.68098 0.60207 0.55887 0.0
C266 C 0.7006 0.60982 0.57505 0.0
C267 C 0.71796 0.62903 0.57203 0.0
C268 C 0.69862 0.58189 0.55198 0.0
C269 C 0.63801 0.60103 0.56122 0.0
C270 C 0.79193 0.67731 0.61159 0.0
C271 C 0.80338 0.67566 0.62898 0.0
C272 C 0.79427 0.65759 0.63829 0.0
C273 C 0.77404 0.64152 0.63056 0.0
C274 C 0.76261 0.6434 0.61325 0.0
C275 C 0.77177 0.66099 0.604 0.0
C276 C 0.7578 0.65993 0.58561 0.0
C277 C 0.738 0.63906 0.58557 0.0
C278 C 0.74094 0.62952 0.60182 0.0
C279 C 0.7921 0.66023 0.57338 0.0
C280 C 0.73022 0.67794 0.58275 0.0
H281 H 0.6546 0.5658 0.57845 0.0
H282 H 0.7002 0.56091 0.63899 0.0
H283 H 0.67202 0.60602 0.63486 0.0
H284 H 0.70763 0.6246 0.63661 0.0
H285 H 0.71079 0.60097 0.64891 0.0
H286 H 0.77196 0.57661 0.6168 0.0
H287 H 0.76419 0.5829 0.63911 0.0
H288 H 0.78507 0.60121 0.62434 0.0
H289 H 0.66314 0.60731 0.52335 0.0
H290 H 0.7207 0.66597 0.51866 0.0
H291 H 0.73843 0.66439 0.54876 0.0
H292 H 0.72678 0.58502 0.54643 0.0
H293 H 0.6811 0.57493 0.54162 0.0
H294 H 0.7032 0.57024 0.56217 0.0
H295 H 0.62532 0.61661 0.55995 0.0
H296 H 0.62965 0.59567 0.57424 0.0
H297 H 0.62486 0.59088 0.55133 0.0
H298 H 0.6363 0.53656 0.5961 0.0
C299 C 0.66511 0.56524 0.59144 0.0
C300 C 0.71964 0.8334 0.1234 0.0
C301 C 0.70768 0.81487 0.11571 0.0
C302 C 0.71564 0.81136 0.0981 0.0
C303 C 0.74653 0.84482 0.09616 0.0
C304 C 0.73908 0.84799 0.11349 0.0
C305 C 0.75489 0.86804 0.12003 0.0
H306 H 0.85 0.95684 0.10547 0.0
C307 C 0.7675 0.86308 0.08972 0.0
C308 C 0.77263 0.87662 0.10371 0.0
H309 H 0.80553 0.93346 0.15368 0.0
H310 H 0.78145 0.90338 0.13913 0.0
H311 H 0.88316 0.91415 0.093 0.0
H312 H 0.77783 0.94276 0.08108 0.0
H313 H 0.79647 0.93273 0.06181 0.0
H314 H 0.8217 0.95263 0.07329 0.0
H315 H 0.87982 0.93569 0.07846 0.0
H316 H 0.8738 0.90944 0.07106 0.0
C317 C 0.78441 0.86312 0.13416 0.0
C318 C 0.72192 0.88155 0.12628 0.0
C319 C 0.80443 0.86802 0.02629 0.0
C320 C 0.82414 0.88298 0.01666 0.0
C321 C 0.83745 0.90085 0.02514 0.0
C322 C 0.83109 0.90385 0.04286 0.0
C323 C 0.81135 0.88878 0.05231 0.0
C324 C 0.79851 0.87119 0.04402 0.0
C325 C 0.77874 0.85664 0.05621 0.0
C326 C 0.78145 0.86851 0.07311 0.0
C327 C 0.80053 0.88737 0.07074 0.0
C328 C 0.80087 0.83615 0.05688 0.0
C329 C 0.73779 0.85423 0.05004 0.0
C330 C 0.83474 0.94527 0.11278 0.0
C331 C 0.82966 0.94744 0.13074 0.0
C332 C 0.81008 0.93199 0.13988 0.0
C333 C 0.79606 0.91453 0.13138 0.0
C334 C 0.80184 0.91231 0.11352 0.0
C335 C 0.82089 0.9275 0.10448 0.0
C336 C 0.82534 0.92198 0.08564 0.0
C337 C 0.80588 0.90102 0.08497 0.0
C338 C 0.79203 0.89559 0.10133 0.0
C339 C 0.86765 0.92033 0.08166 0.0
C340 C 0.80454 0.93837 0.07475 0.0
H341 H 0.73989 0.8228 0.0749 0.0
H342 H 0.71465 0.83634 0.137 0.0
H343 H 0.69749 0.87987 0.11746 0.0
H344 H 0.72847 0.89823 0.12629 0.0
H345 H 0.71273 0.8769 0.13945 0.0
H346 H 0.79708 0.84765 0.13213 0.0
H347 H 0.77176 0.86316 0.14727 0.0
H348 H 0.80845 0.87393 0.13393 0.0
H349 H 0.79425 0.85401 0.02021 0.0
H350 H 0.85235 0.9127 0.018 0.0
H351 H 0.84177 0.91781 0.04851 0.0
H352 H 0.83137 0.83903 0.05533 0.0
H353 H 0.79196 0.8255 0.04637 0.0
H354 H 0.79826 0.82813 0.06944 0.0
H355 H 0.72641 0.86938 0.04582 0.0
H356 H 0.71877 0.8488 0.06033 0.0
H357 H 0.73583 0.84344 0.03891 0.0
H358 H 0.70665 0.79717 0.09192 0.0
C359 C 0.73483 0.82629 0.08826 0.0
C360 C 0.18322 0.93947 0.38071 0.0
C361 C 0.16275 0.95545 0.38844 0.0
C362 C 0.15344 0.95396 0.40611 0.0
C363 C 0.18462 0.92084 0.40799 0.0
C364 C 0.19356 0.92233 0.39064 0.0
C365 C 0.21365 0.90354 0.38415 0.0
H366 H 0.28855 0.80959 0.39995 0.0
C367 C 0.19886 0.90085 0.41445 0.0
C368 C 0.21573 0.89062 0.4005 0.0
H369 H 0.28083 0.84189 0.35117 0.0
H370 H 0.24999 0.8704 0.36517 0.0
H371 H 0.30869 0.85059 0.42415 0.0
H372 H 0.20731 0.81813 0.41114 0.0
H373 H 0.20161 0.82684 0.43244 0.0
H374 H 0.23843 0.8088 0.42753 0.0
H375 H 0.298 0.82489 0.43148 0.0
H376 H 0.28243 0.84728 0.44321 0.0
C377 C 0.25289 0.91042 0.37788 0.0
C378 C 0.18912 0.89312 0.37003 0.0
C379 C 0.18106 0.88081 0.4776 0.0
C380 C 0.1899 0.86291 0.48712 0.0
C381 C 0.20872 0.8467 0.47863 0.0
C382 C 0.21851 0.84825 0.46115 0.0
C383 C 0.20914 0.86611 0.45183 0.0
C384 C 0.19066 0.882 0.46005 0.0
C385 C 0.18177 0.89948 0.44789 0.0
C386 C 0.19811 0.89146 0.43107 0.0
C387 C 0.21426 0.87194 0.4335 0.0
C388 C 0.20253 0.91907 0.45434 0.0
C389 C 0.1387 0.90169 0.4469 0.0
C390 C 0.28051 0.82294 0.39239 0.0
C391 C 0.28717 0.82362 0.37448 0.0
C392 C 0.27574 0.84104 0.36496 0.0
C393 C 0.25792 0.85758 0.37313 0.0
C394 C 0.25103 0.85663 0.391 0.0
C395 C 0.2621 0.83948 0.40032 0.0
C396 C 0.25071 0.84076 0.41902 0.0
C397 C 0.23137 0.86159 0.4194 0.0
C398 C 0.23192 0.87086 0.40299 0.0
C399 C 0.28665 0.84076 0.43018 0.0
C400 C 0.2233 0.82268 0.4229 0.0
H401 H 0.15657 0.93659 0.42933 0.0
H402 H 0.19016 0.94002 0.36708 0.0
H403 H 0.15891 0.89619 0.37219 0.0
H404 H 0.19123 0.87609 0.37014 0.0
H405 H 0.19634 0.89897 0.35693 0.0
H406 H 0.26526 0.92196 0.38692 0.0
H407 H 0.25135 0.9177 0.36488 0.0
H408 H 0.27314 0.89765 0.37743 0.0
H409 H 0.16692 0.89368 0.48362 0.0
H410 H 0.21524 0.83252 0.4854 0.0
H411 H 0.23263 0.83533 0.45551 0.0
H412 H 0.23113 0.91515 0.45888 0.0
H413 H 0.18746 0.92627 0.46532 0.0
H414 H 0.20665 0.93076 0.44411 0.0
H415 H 0.12457 0.88645 0.44852 0.0
H416 H 0.12898 0.90736 0.4342 0.0
H417 H 0.12818 0.91208 0.45721 0.0
H418 H 0.13776 0.96614 0.41233 0.0
C419 C 0.16444 0.93681 0.41595 0.0
C420 C 0.22388 0.66827 0.88025 0.0
C421 C 0.21009 0.6864 0.88793 0.0
C422 C 0.21472 0.68908 0.90594 0.0
C423 C 0.2467 0.65618 0.90804 0.0
C424 C 0.24165 0.65345 0.89047 0.0
C425 C 0.25705 0.63327 0.88418 0.0
H426 H 0.35412 0.54611 0.89988 0.0
C427 C 0.26689 0.63793 0.91475 0.0
C428 C 0.27276 0.62443 0.90082 0.0
H429 H 0.3022 0.56578 0.85206 0.0
H430 H 0.27874 0.59607 0.86609 0.0
H431 H 0.38353 0.59102 0.91214 0.0
H432 H 0.28317 0.55664 0.92345 0.0
H433 H 0.29611 0.56939 0.94258 0.0
H434 H 0.32712 0.55048 0.93331 0.0
H435 H 0.38315 0.56811 0.92524 0.0
H436 H 0.37472 0.59322 0.93443 0.0
C437 C 0.28819 0.63808 0.87082 0.0
C438 C 0.22417 0.62004 0.87705 0.0
C439 C 0.30598 0.63461 0.978 0.0
C440 C 0.32579 0.61991 0.98777 0.0
C441 C 0.33805 0.60173 0.97953 0.0
C442 C 0.33104 0.59833 0.96192 0.0
C443 C 0.31151 0.61323 0.95234 0.0
C444 C 0.29914 0.63096 0.96041 0.0
C445 C 0.27862 0.64502 0.94818 0.0
C446 C 0.28077 0.63282 0.93144 0.0
C447 C 0.3002 0.61424 0.93396 0.0
C448 C 0.3005 0.66569 0.94703 0.0
C449 C 0.23787 0.64718 0.95464 0.0
C450 C 0.33743 0.55684 0.89245 0.0
C451 C 0.33068 0.55359 0.8747 0.0
C452 C 0.30882 0.56807 0.8656 0.0
C453 C 0.29486 0.58565 0.87382 0.0
C454 C 0.30248 0.58887 0.89142 0.0
C455 C 0.32295 0.57447 0.90052 0.0
C456 C 0.3271 0.58025 0.9193 0.0
C457 C 0.30611 0.60059 0.91984 0.0
C458 C 0.29211 0.60561 0.90343 0.0
C459 C 0.36927 0.58321 0.92315 0.0
C460 C 0.30769 0.56333 0.93036 0.0
H461 H 0.23562 0.6771 0.9296 0.0
H462 H 0.22144 0.66569 0.86646 0.0
H463 H 0.19731 0.62411 0.8834 0.0
H464 H 0.22757 0.60336 0.8797 0.0
H465 H 0.22052 0.62239 0.86291 0.0
H466 H 0.30541 0.65151 0.87509 0.0
H467 H 0.27607 0.64195 0.858 0.0
H468 H 0.30819 0.62533 0.86919 0.0
H469 H 0.29648 0.64886 0.98382 0.0
H470 H 0.35282 0.58999 0.98675 0.0
H471 H 0.34116 0.58421 0.95645 0.0
H472 H 0.33114 0.66287 0.94685 0.0
H473 H 0.29437 0.6757 0.95833 0.0
H474 H 0.29471 0.67439 0.93507 0.0
H475 H 0.22776 0.6325 0.96055 0.0
H476 H 0.21791 0.65039 0.94409 0.0
H477 H 0.23563 0.65948 0.9646 0.0
H478 H 0.20391 0.70267 0.91234 0.0
C479 C 0.23296 0.67412 0.916 0.0
C480 C 0.88994 0.10915 0.25186 0.0
C481 C 0.90069 0.0746 0.26289 0.0
C482 C 0.91029 0.09577 0.26228 0.0
C483 C 0.87184 0.06699 0.25229 0.0
C484 C 0.86027 0.10167 0.24158 0.0
C485 C 0.85167 0.08048 0.24168 0.0
N486 N 0.89972 0.12947 0.25151 0.0
C487 C 0.8799 0.14336 0.24196 0.0
C488 C 0.84034 0.11573 0.23139 0.0
C489 C 0.85003 0.13668 0.23168 0.0
Gd490 Gd 0.04782 0.13874 0.24067 0.0
Gd491 Gd 0.95064 0.13913 0.26871 0.0
N492 N 0.93845 0.10353 0.27225 0.0
C493 C 0.91965 0.06181 0.27451 0.0
C494 C 0.95402 0.09155 0.28486 0.0
C495 C 0.94581 0.07044 0.28582 0.0
H496 H 0.97192 0.09823 0.29459 0.0
H497 H 0.95911 0.06092 0.29554 0.0
H498 H 0.04553 0.18956 0.23232 0.0
H499 H 0.88763 0.15952 0.24212 0.0
H500 H 0.0863 0.22014 0.23613 0.0
H501 H 0.91311 0.04548 0.27538 0.0
H502 H 0.86443 0.05073 0.25245 0.0
H503 H 0.09768 0.09795 0.25359 0.0
H504 H 0.81738 0.11058 0.2233 0.0
H505 H 0.83464 0.14766 0.22393 0.0
H506 H 0.19735 0.19304 0.26244 0.0
H507 H 0.82926 0.07441 0.23371 0.0
H508 H 0.20296 0.12002 0.27264 0.0
H509 H 0.15921 0.09107 0.26688 0.0
N510 N 0.10576 0.13047 0.25287 0.0
C511 C 0.12964 0.14655 0.25559 0.0
C512 C 0.11615 0.11071 0.25656 0.0
C513 C 0.17579 0.12314 0.26707 0.0
C514 C 0.15114 0.10676 0.26387 0.0
C515 C 0.16533 0.14332 0.26279 0.0
H516 H 0.217 0.15807 0.27087 0.0
N517 N 0.08379 0.16889 0.24413 0.0
C518 C 0.11857 0.16631 0.2509 0.0
C519 C 0.13084 0.20288 0.24797 0.0
C520 C 0.14289 0.18329 0.25317 0.0
C521 C 0.07248 0.18779 0.23836 0.0
C522 C 0.0956 0.2051 0.24043 0.0
O523 O 0.95376 0.12896 0.24058 0.0
O524 O 0.00857 0.11159 0.24055 0.0
O525 O 0.04285 0.14325 0.21286 0.0
O526 O 0.08682 0.12407 0.2231 0.0
O527 O 0.00382 0.12726 0.28131 0.0
O528 O 0.03304 0.11223 0.2582 0.0
O529 O 0.04872 0.15985 0.26399 0.0
O530 O 0.99062 0.16385 0.27729 0.0
O531 O 0.92768 0.13587 0.29481 0.0
O532 O 0.90536 0.15906 0.27708 0.0
O533 O 0.0009 0.15893 0.23083 0.0
O534 O 0.95951 0.16803 0.25288 0.0
C535 C 0.97419 0.11355 0.23514 0.0
C536 C 0.02875 0.11448 0.27494 0.0
C537 C 0.10019 0.14306 0.19778 0.0
C538 C 0.12431 0.14939 0.16871 0.0
C539 C 0.1527 0.16643 0.19347 0.0
C540 C 0.12756 0.15645 0.20445 0.0
C541 C 0.15109 0.163 0.1757 0.0
C542 C 0.09881 0.13942 0.17987 0.0
C543 C 0.07307 0.1329 0.2094 0.0
C544 C 0.17832 0.18017 0.26051 0.0
C545 C 0.18949 0.16025 0.26532 0.0
H546 H 0.14867 0.21634 0.24955 0.0
C547 C 0.02621 0.16843 0.27535 0.0
C548 C 0.97445 0.17071 0.23742 0.0
C549 C 0.8772 0.15755 0.30574 0.0
C550 C 0.85747 0.15972 0.33601 0.0
C551 C 0.82378 0.17847 0.3137 0.0
C552 C 0.84799 0.17087 0.30114 0.0
C553 C 0.82855 0.17306 0.33102 0.0
C554 C 0.88155 0.15177 0.32324 0.0
C555 C 0.90402 0.15077 0.29239 0.0
H556 H 0.17368 0.17674 0.19878 0.0
H557 H 0.12979 0.15912 0.21812 0.0
H558 H 0.17131 0.17067 0.16745 0.0
H559 H 0.07784 0.12901 0.17463 0.0
H560 H 0.80136 0.18873 0.31002 0.0
H561 H 0.84398 0.17555 0.28781 0.0
H562 H 0.80938 0.1792 0.34053 0.0
H563 H 0.90426 0.14171 0.32699 0.0
C564 C 0.62826 0.38187 0.75688 0.0
C565 C 0.62606 0.41675 0.76828 0.0
C566 C 0.60965 0.39702 0.76624 0.0
C567 C 0.66056 0.42118 0.76041 0.0
C568 C 0.66305 0.38621 0.74909 0.0
C569 C 0.679 0.40596 0.75085 0.0
N570 N 0.61167 0.36306 0.75491 0.0
C571 C 0.62868 0.34774 0.74579 0.0
C572 C 0.68048 0.37064 0.73951 0.0
C573 C 0.66325 0.35131 0.7379 0.0
Gd574 Gd 0.46154 0.3618 0.73847 0.0
Gd575 Gd 0.5543 0.35837 0.76888 0.0
N576 N 0.57604 0.39236 0.77361 0.0
C577 C 0.60772 0.43134 0.7785 0.0
C578 C 0.55984 0.40599 0.78476 0.0
C579 C 0.5748 0.4258 0.78701 0.0
H580 H 0.53627 0.40155 0.79254 0.0
H581 H 0.56135 0.43664 0.79562 0.0
H582 H 0.47705 0.31269 0.72514 0.0
H583 H 0.61576 0.33268 0.74478 0.0
H584 H 0.44501 0.2791 0.72609 0.0
H585 H 0.61941 0.44666 0.7804 0.0
H586 H 0.67342 0.43629 0.76179 0.0
H587 H 0.40287 0.39569 0.75612 0.0
H588 H 0.7072 0.37338 0.73332 0.0
H589 H 0.67663 0.33914 0.73062 0.0
H590 H 0.32751 0.29354 0.75318 0.0
H591 H 0.70562 0.40961 0.74489 0.0
H592 H 0.30309 0.36322 0.77063 0.0
H593 H 0.33976 0.3957 0.76912 0.0
N594 N 0.40214 0.3635 0.7509 0.0
C595 C 0.38244 0.34549 0.75147 0.0
C596 C 0.38731 0.3814 0.75705 0.0
C597 C 0.33085 0.3631 0.76505 0.0
C598 C 0.35149 0.38147 0.76426 0.0
C599 C 0.34621 0.34481 0.75859 0.0
H600 H 0.29876 0.32513 0.7646 0.0
N601 N 0.43427 0.32865 0.73862 0.0
C602 C 0.39884 0.32758 0.74506 0.0
C603 C 0.39627 0.29101 0.7389 0.0
C604 C 0.37913 0.30867 0.74557 0.0
C605 C 0.45038 0.31166 0.73143 0.0
C606 C 0.4319 0.29257 0.73167 0.0
O607 O 0.55975 0.3743 0.74268 0.0
O608 O 0.50181 0.38849 0.73991 0.0
O609 O 0.46047 0.35925 0.71044 0.0
O610 O 0.42257 0.38003 0.7233 0.0
O611 O 0.50202 0.37337 0.78 0.0
O612 O 0.47356 0.3885 0.75632 0.0
O613 O 0.45572 0.34535 0.76426 0.0
O614 O 0.51377 0.33165 0.7685 0.0
O615 O 0.56372 0.35751 0.79709 0.0
O616 O 0.59595 0.33807 0.77951 0.0
O617 O 0.51253 0.34588 0.72746 0.0
O618 O 0.54377 0.33166 0.75077 0.0
C619 C 0.53697 0.38753 0.73534 0.0
C620 C 0.47904 0.38702 0.77314 0.0
C621 C 0.40144 0.36388 0.69758 0.0
C622 C 0.37538 0.35836 0.66873 0.0
C623 C 0.34277 0.34529 0.69406 0.0
C624 C 0.37063 0.35343 0.70471 0.0
C625 C 0.34514 0.34764 0.67617 0.0
C626 C 0.40354 0.36649 0.67955 0.0
C627 C 0.432 0.37152 0.7087 0.0
C628 C 0.34302 0.30796 0.75266 0.0
C629 C 0.32662 0.32596 0.75915 0.0
H630 H 0.38204 0.27619 0.73904 0.0
C631 C 0.4782 0.33262 0.77233 0.0
C632 C 0.53712 0.33304 0.73407 0.0
C633 C 0.61043 0.33411 0.80984 0.0
C634 C 0.63277 0.33411 0.83975 0.0
C635 C 0.65074 0.3066 0.8201 0.0
C636 C 0.63017 0.31573 0.80688 0.0
C637 C 0.65219 0.31572 0.83639 0.0
C638 C 0.6114 0.34316 0.82643 0.0
C639 C 0.58962 0.34359 0.79537 0.0
H640 H 0.31918 0.33721 0.69971 0.0
H641 H 0.36795 0.35156 0.71847 0.0
H642 H 0.32295 0.3414 0.66816 0.0
H643 H 0.42724 0.37456 0.67394 0.0
H644 H 0.66574 0.29241 0.81769 0.0
H645 H 0.62971 0.30834 0.79432 0.0
H646 H 0.66833 0.30827 0.84646 0.0
H647 H 0.59649 0.35739 0.82884 0.0
C648 C 0.90244 0.82035 0.75425 0.0
C649 C 0.92071 0.7878 0.76701 0.0
C650 C 0.92556 0.80933 0.76517 0.0
C651 C 0.89402 0.77745 0.75681 0.0
C652 C 0.87421 0.81026 0.74469 0.0
C653 C 0.87077 0.78866 0.74567 0.0
N654 N 0.90705 0.8411 0.75329 0.0
C655 C 0.88272 0.85301 0.74412 0.0
C656 C 0.85005 0.82224 0.73461 0.0
C657 C 0.85402 0.84375 0.73451 0.0
Gd658 Gd 0.05223 0.85675 0.73846 0.0
Gd659 Gd 0.95714 0.85557 0.76866 0.0
N660 N 0.95086 0.8199 0.77491 0.0
C661 C 0.94166 0.77749 0.77958 0.0
C662 C 0.96806 0.81025 0.78845 0.0
C663 C 0.96472 0.78886 0.79065 0.0
H664 H 0.98412 0.81895 0.79778 0.0
H665 H 0.97948 0.78123 0.80105 0.0
H666 H 0.07494 0.90517 0.72883 0.0
H667 H 0.88612 0.86962 0.74393 0.0
H668 H 0.12755 0.92964 0.73355 0.0
H669 H 0.9388 0.76096 0.78142 0.0
H670 H 0.8903 0.76087 0.75785 0.0
H671 H 0.08856 0.8096 0.74347 0.0
H672 H 0.82799 0.81508 0.72707 0.0
H673 H 0.83518 0.85317 0.72696 0.0
H674 H 0.21948 0.889 0.76335 0.0
H675 H 0.84968 0.78056 0.7382 0.0
H676 H 0.19652 0.81603 0.76695 0.0
H677 H 0.14514 0.79375 0.75612 0.0
N678 N 0.1065 0.84035 0.74858 0.0
C679 C 0.13523 0.85277 0.75345 0.0
C680 C 0.1105 0.81939 0.7486 0.0
C681 C 0.17148 0.82302 0.76176 0.0
C682 C 0.14259 0.81039 0.7556 0.0
C683 C 0.16852 0.8445 0.76023 0.0
H684 H 0.22398 0.85182 0.76982 0.0
N685 N 0.10111 0.88057 0.7423 0.0
C686 C 0.1326 0.87362 0.75 0.0
C687 C 0.16101 0.90742 0.74732 0.0
C688 C 0.16331 0.88689 0.75297 0.0
C689 C 0.09954 0.90015 0.73574 0.0
C690 C 0.12923 0.91398 0.73838 0.0
O691 O 0.95962 0.84733 0.74011 0.0
O692 O 0.01363 0.82943 0.73938 0.0
O693 O 0.03062 0.85688 0.71216 0.0
O694 O 0.08922 0.85129 0.71677 0.0
O695 O 0.01207 0.84604 0.78091 0.0
O696 O 0.03838 0.83116 0.75726 0.0
O697 O 0.04479 0.88384 0.75677 0.0
O698 O 0.00676 0.87286 0.77952 0.0
O699 O 0.923 0.85244 0.79206 0.0
O700 O 0.92296 0.88123 0.77723 0.0
O701 O 0.01118 0.8823 0.73301 0.0
O702 O 0.95688 0.88236 0.75005 0.0
C703 C 0.97907 0.83169 0.73435 0.0
C704 C 0.03756 0.83407 0.774 0.0
C705 C 0.06231 0.83544 0.69247 0.0
C706 C 0.07308 0.82442 0.66268 0.0
C707 C 0.0563 0.79928 0.68492 0.0
C708 C 0.05502 0.81495 0.69729 0.0
C709 C 0.0655 0.8039 0.66776 0.0
C710 C 0.07089 0.84014 0.67522 0.0
C711 C 0.06262 0.85205 0.70534 0.0
C712 C 0.19575 0.87901 0.76073 0.0
C713 C 0.19831 0.85784 0.76441 0.0
H714 H 0.18403 0.91811 0.7493 0.0
C715 C 0.03059 0.88595 0.77243 0.0
C716 C 0.97839 0.88982 0.73762 0.0
C717 C 0.88322 0.88026 0.80263 0.0
C718 C 0.857 0.88371 0.83168 0.0
C719 C 0.83059 0.90296 0.8076 0.0
C720 C 0.85684 0.8944 0.79642 0.0
C721 C 0.83056 0.89766 0.82509 0.0
C722 C 0.88331 0.87497 0.82031 0.0
C723 C 0.9103 0.87111 0.79054 0.0
H724 H 0.05076 0.78345 0.68869 0.0
H725 H 0.04882 0.81109 0.71061 0.0
H726 H 0.06745 0.7913 0.65861 0.0
H727 H 0.07596 0.85611 0.67166 0.0
H728 H 0.81026 0.91382 0.8027 0.0
H729 H 0.85629 0.89868 0.78287 0.0
H730 H 0.81025 0.90477 0.83356 0.0
H731 H 0.90374 0.86413 0.82519 0.0
C732 C 0.6219 0.66883 0.2535 0.0
C733 C 0.61672 0.70353 0.26503 0.0
C734 C 0.60271 0.68318 0.26347 0.0
C735 C 0.64894 0.70942 0.25585 0.0
C736 C 0.65457 0.67459 0.2445 0.0
C737 C 0.66779 0.695 0.24562 0.0
N738 N 0.60778 0.64934 0.25215 0.0
C739 C 0.62566 0.63461 0.24267 0.0
C740 C 0.67281 0.65967 0.23452 0.0
C741 C 0.65839 0.63957 0.23368 0.0
Gd742 Gd 0.45903 0.64827 0.23791 0.0
Gd743 Gd 0.55269 0.64245 0.26746 0.0
N744 N 0.57126 0.6771 0.27208 0.0
C745 C 0.59855 0.71721 0.27616 0.0
C746 C 0.55603 0.68978 0.28428 0.0
C747 C 0.56859 0.71015 0.28611 0.0
H748 H 0.53512 0.68419 0.29314 0.0
H749 H 0.55569 0.72025 0.2955 0.0
H750 H 0.46704 0.60153 0.21823 0.0
H751 H 0.61432 0.61912 0.24194 0.0
H752 H 0.4318 0.56906 0.21642 0.0
H753 H 0.60845 0.73295 0.27774 0.0
H754 H 0.65985 0.72503 0.25681 0.0
H755 H 0.40468 0.68102 0.25973 0.0
H756 H 0.69801 0.6635 0.22742 0.0
H757 H 0.67237 0.62794 0.22604 0.0
H758 H 0.31886 0.58246 0.24762 0.0
H759 H 0.69273 0.69976 0.23871 0.0
H760 H 0.30315 0.64946 0.2728 0.0
H761 H 0.3429 0.68084 0.27395 0.0
N762 N 0.40071 0.64981 0.2515 0.0
C763 C 0.37898 0.63258 0.25029 0.0
C764 C 0.38802 0.66709 0.25964 0.0
C765 C 0.3304 0.6494 0.2667 0.0
C766 C 0.35282 0.66712 0.26745 0.0
C767 C 0.3433 0.63186 0.25801 0.0
H768 H 0.29441 0.61283 0.26287 0.0
N769 N 0.42792 0.61634 0.23475 0.0
C770 C 0.393 0.61535 0.24175 0.0
C771 C 0.38589 0.58018 0.23171 0.0
C772 C 0.37132 0.59712 0.24063 0.0
C773 C 0.44125 0.60024 0.22523 0.0
C774 C 0.42081 0.58185 0.22382 0.0
O775 O 0.55674 0.65566 0.24034 0.0
O776 O 0.50245 0.67348 0.23924 0.0
O777 O 0.45398 0.64916 0.20942 0.0
O778 O 0.42105 0.66957 0.22599 0.0
O779 O 0.50104 0.65644 0.27982 0.0
O780 O 0.47568 0.67333 0.25655 0.0
O781 O 0.45242 0.62984 0.26279 0.0
O782 O 0.51089 0.61636 0.26851 0.0
O783 O 0.56786 0.6416 0.29504 0.0
O784 O 0.59555 0.62155 0.27639 0.0
O785 O 0.5071 0.62979 0.2266 0.0
O786 O 0.53973 0.61565 0.2498 0.0
C787 C 0.53669 0.67068 0.23396 0.0
C788 C 0.47859 0.67048 0.2733 0.0
C789 C 0.41137 0.67399 0.19538 0.0
C790 C 0.39643 0.6759 0.16455 0.0
C791 C 0.37614 0.70303 0.18408 0.0
C792 C 0.39272 0.6928 0.19792 0.0
C793 C 0.37796 0.69469 0.16752 0.0
C794 C 0.41302 0.66548 0.17861 0.0
C795 C 0.42919 0.66383 0.21036 0.0
C796 C 0.3358 0.59636 0.24832 0.0
C797 C 0.32184 0.61368 0.25698 0.0
H798 H 0.3701 0.56591 0.23056 0.0
C799 C 0.47444 0.61647 0.27054 0.0
C800 C 0.52975 0.61588 0.23337 0.0
C801 C 0.61662 0.61841 0.30608 0.0
C802 C 0.63891 0.61709 0.33598 0.0
C803 C 0.66612 0.59472 0.31419 0.0
C804 C 0.64245 0.60299 0.30169 0.0
C805 C 0.66456 0.60177 0.33119 0.0
C806 C 0.61461 0.62526 0.32338 0.0
C807 C 0.59296 0.62748 0.29237 0.0
H808 H 0.3618 0.71748 0.18621 0.0
H809 H 0.39107 0.69976 0.21064 0.0
H810 H 0.36444 0.70286 0.15702 0.0
H811 H 0.42739 0.65101 0.17648 0.0
H812 H 0.68592 0.58288 0.31066 0.0
H813 H 0.6446 0.59737 0.28854 0.0
H814 H 0.68328 0.59512 0.34068 0.0
H815 H 0.59496 0.6372 0.32696 0.0
C816 C 0.17537 0.98365 0.36694 0.0
C817 C 0.15023 0.97327 0.37792 0.0
C818 C 0.16317 0.9999 0.35648 0.0
C819 C 0.08041 0.0189 0.33443 0.0
H820 H 0.13375 0.07117 0.33163 0.0
C821 C 0.05398 0.10445 0.30392 0.0
C822 C 0.04596 0.09925 0.28668 0.0
C823 C 0.06826 0.0896 0.31527 0.0
C824 C 0.11859 0.05666 0.33233 0.0
H825 H 0.09273 0.97168 0.38659 0.0
H826 H 0.07124 0.99992 0.36806 0.0
H827 H 0.1556 0.04427 0.35151 0.0
H828 H 0.04623 0.07453 0.26777 0.0
H829 H 0.0707 0.04856 0.28765 0.0
H830 H 0.04374 0.03112 0.31509 0.0
C831 C 0.10041 0.99556 0.36767 0.0
C832 C 0.13117 0.04127 0.34361 0.0
C833 C 0.11273 0.97953 0.37834 0.0
C834 C 0.05261 0.07902 0.28095 0.0
C835 C 0.06628 0.06412 0.29234 0.0
C836 C 0.06821 0.03414 0.32297 0.0
C837 C 0.12548 0.00583 0.35659 0.0
C838 C 0.11211 0.02227 0.34479 0.0
C839 C 0.07404 0.06923 0.30963 0.0
C840 C 0.08715 0.05316 0.32182 0.0
H841 H 0.20446 0.97917 0.36645 0.0
H842 H 0.18301 0.00749 0.34797 0.0
H843 H 0.06539 0.00434 0.335 0.0
H844 H 0.04899 0.11995 0.30864 0.0
H845 H 0.07384 0.09389 0.32857 0.0
C846 C 0.34845 0.51591 0.87362 0.0
C847 C 0.34635 0.53537 0.86551 0.0
C848 C 0.36199 0.49875 0.86461 0.0
C849 C 0.37193 0.47879 0.82068 0.0
H850 H 0.44933 0.4435 0.83933 0.0
C851 C 0.45085 0.42178 0.77758 0.0
C852 C 0.46178 0.40267 0.78447 0.0
C853 C 0.43535 0.43688 0.78819 0.0
C854 C 0.42724 0.45296 0.83404 0.0
H855 H 0.35858 0.55208 0.84179 0.0
H856 H 0.38101 0.5221 0.82604 0.0
H857 H 0.42494 0.47183 0.85683 0.0
H858 H 0.4648 0.38428 0.80785 0.0
H859 H 0.43681 0.41055 0.82643 0.0
H860 H 0.37361 0.45999 0.79802 0.0
C861 C 0.37181 0.52012 0.83929 0.0
C862 C 0.41341 0.46922 0.84406 0.0
C863 C 0.35878 0.53728 0.84832 0.0
C864 C 0.45672 0.39892 0.80221 0.0
C865 C 0.44087 0.41401 0.81285 0.0
C866 C 0.38538 0.46244 0.81076 0.0
C867 C 0.37326 0.50067 0.84728 0.0
C868 C 0.38612 0.4825 0.83733 0.0
C869 C 0.43002 0.4332 0.80596 0.0
C870 C 0.41374 0.44955 0.81716 0.0
H871 H 0.33881 0.51381 0.88678 0.0
H872 H 0.36272 0.48388 0.87103 0.0
H873 H 0.35041 0.48859 0.8153 0.0
H874 H 0.45486 0.42525 0.764 0.0
H875 H 0.42818 0.45161 0.78248 0.0
C876 C 0.61683 0.52359 0.63104 0.0
C877 C 0.65489 0.5288 0.62981 0.0
C878 C 0.60501 0.50784 0.64219 0.0
C879 C 0.63471 0.46096 0.66442 0.0
H880 H 0.55551 0.47364 0.69682 0.0
C881 C 0.58938 0.40339 0.71803 0.0
C882 C 0.55155 0.40299 0.72285 0.0
C883 C 0.60297 0.41855 0.70672 0.0
C884 C 0.5772 0.46964 0.68769 0.0
H885 H 0.71051 0.52132 0.63885 0.0
H886 H 0.68982 0.49343 0.65813 0.0
H887 H 0.57674 0.49994 0.67652 0.0
H888 H 0.49785 0.41764 0.71874 0.0
H889 H 0.52093 0.44326 0.69848 0.0
H890 H 0.63453 0.43048 0.67512 0.0
C891 C 0.66921 0.50166 0.65056 0.0
C892 C 0.58947 0.4848 0.67612 0.0
C893 C 0.68099 0.51765 0.63963 0.0
C894 C 0.52734 0.41765 0.71558 0.0
C895 C 0.5407 0.43254 0.70403 0.0
C896 C 0.62202 0.44565 0.67581 0.0
C897 C 0.63106 0.49679 0.6521 0.0
C898 C 0.61828 0.48061 0.66436 0.0
C899 C 0.5788 0.43341 0.69959 0.0
C900 C 0.59298 0.44975 0.68759 0.0
H901 H 0.59613 0.53205 0.62372 0.0
H902 H 0.57545 0.5043 0.64308 0.0
H903 H 0.65685 0.45732 0.65539 0.0
H904 H 0.60859 0.39201 0.72297 0.0
H905 H 0.63252 0.41873 0.70374 0.0
C906 C 0.83794 0.9857 0.13489 0.0
C907 C 0.84524 0.96539 0.14025 0.0
C908 C 0.85029 0.0025 0.14483 0.0
C909 C 0.88322 0.01507 0.18941 0.0
H910 H 0.91745 0.0661 0.16825 0.0
C911 C 0.96897 0.0768 0.22586 0.0
C912 C 0.95748 0.09738 0.22413 0.0
C913 C 0.9528 0.06131 0.21571 0.0
C914 C 0.90759 0.05199 0.17431 0.0
H915 H 0.87269 0.94667 0.15964 0.0
H916 H 0.89539 0.97579 0.1766 0.0
H917 H 0.89523 0.03781 0.14995 0.0
H918 H 0.92044 0.11807 0.21042 0.0
H919 H 0.89262 0.09093 0.19228 0.0
H920 H 0.89683 0.0291 0.21373 0.0
C921 C 0.87894 0.97891 0.16514 0.0
C922 C 0.89476 0.03579 0.16385 0.0
C923 C 0.86619 0.96219 0.15536 0.0
C924 C 0.92973 0.10228 0.21197 0.0
C925 C 0.91396 0.08681 0.20159 0.0
C926 C 0.89647 0.03115 0.19981 0.0
C927 C 0.87059 0.99931 0.16022 0.0
C928 C 0.8828 0.017 0.17126 0.0
C929 C 0.92532 0.06618 0.2034 0.0
C930 C 0.90912 0.04968 0.19237 0.0
H931 H 0.82162 0.98855 0.12333 0.0
H932 H 0.84304 0.01795 0.14068 0.0
H933 H 0.87329 0.0011 0.19564 0.0
H934 H 0.9901 0.07261 0.23526 0.0
H935 H 0.96221 0.04555 0.21729 0.0
C936 C 0.8264 0.02769 0.65493 0.0
C937 C 0.84843 0.0371 0.64206 0.0
C938 C 0.84024 0.01124 0.66466 0.0
C939 C 0.92903 0.98814 0.6788 0.0
H940 H 0.86559 0.94228 0.69271 0.0
C941 C 0.98602 0.91626 0.71411 0.0
C942 C 0.96427 0.90765 0.72749 0.0
C943 C 0.97201 0.93214 0.70378 0.0
C944 C 0.88353 0.95511 0.68911 0.0
H945 H 0.90195 0.03619 0.62898 0.0
H946 H 0.92596 0.00715 0.64578 0.0
H947 H 0.8408 0.96892 0.67364 0.0
H948 H 0.91076 0.90942 0.74062 0.0
H949 H 0.88651 0.93726 0.72265 0.0
H950 H 0.97175 0.97432 0.69427 0.0
C951 C 0.89813 0.01275 0.64852 0.0
C952 C 0.86936 0.97036 0.67814 0.0
C953 C 0.88423 0.02923 0.63875 0.0
C954 C 0.92834 0.91561 0.73045 0.0
C955 C 0.91429 0.93149 0.72006 0.0
C956 C 0.94321 0.97288 0.68975 0.0
C957 C 0.87647 0.00375 0.66175 0.0
C958 C 0.8919 0.98709 0.67289 0.0
C959 C 0.93587 0.93982 0.70652 0.0
C960 C 0.92062 0.9562 0.69506 0.0
H961 H 0.79848 0.03319 0.65763 0.0
H962 H 0.82289 0.0048 0.67481 0.0
H963 H 0.94696 0.001 0.67527 0.0
H964 H 0.01375 0.91054 0.71135 0.0
H965 H 0.98921 0.93804 0.69335 0.0
C966 C 0.64688 0.46339 0.15903 0.0
C967 C 0.65855 0.46547 0.14174 0.0
C968 C 0.63155 0.48007 0.1679 0.0
C969 C 0.62442 0.53727 0.16686 0.0
H970 H 0.54774 0.52706 0.2013 0.0
C971 C 0.54551 0.60195 0.20402 0.0
C972 C 0.54415 0.59933 0.22206 0.0
C973 C 0.55873 0.58611 0.19338 0.0
C974 C 0.56924 0.53011 0.19176 0.0
H975 H 0.66271 0.4869 0.12022 0.0
H976 H 0.63447 0.5158 0.1355 0.0
H977 H 0.57072 0.49853 0.18384 0.0
H978 H 0.5555 0.57807 0.2431 0.0
H979 H 0.57797 0.55035 0.22451 0.0
H980 H 0.62215 0.56904 0.17472 0.0
C981 C 0.63804 0.50133 0.14233 0.0
C982 C 0.58258 0.51377 0.18179 0.0
C983 C 0.65379 0.48465 0.13347 0.0
C984 C 0.55629 0.58059 0.22925 0.0
C985 C 0.56893 0.56467 0.21862 0.0
C986 C 0.61064 0.5537 0.17669 0.0
C987 C 0.62685 0.49927 0.1597 0.0
C988 C 0.61083 0.51703 0.16941 0.0
C989 C 0.57023 0.56726 0.20059 0.0
C990 C 0.58335 0.55019 0.18942 0.0
H991 H 0.6494 0.44879 0.16576 0.0
H992 H 0.62388 0.47791 0.18133 0.0
H993 H 0.64647 0.54038 0.15762 0.0
H994 H 0.53649 0.61627 0.19812 0.0
H995 H 0.55936 0.58846 0.17951 0.0
C996 C 0.31251 0.47986 0.35225 0.0
C997 C 0.33625 0.46769 0.36249 0.0
C998 C 0.32676 0.49667 0.34295 0.0
C999 C 0.4118 0.51511 0.32237 0.0
H1000 H 0.3661 0.56924 0.32393 0.0
C1001 C 0.48064 0.58506 0.28921 0.0
C1002 C 0.45766 0.59998 0.28143 0.0
C1003 C 0.46529 0.56936 0.29938 0.0
C1004 C 0.37888 0.55416 0.3231 0.0
H1005 H 0.3933 0.46354 0.37114 0.0
H1006 H 0.41837 0.49279 0.35463 0.0
H1007 H 0.34003 0.54108 0.34124 0.0
H1008 H 0.40047 0.61037 0.27895 0.0
H1009 H 0.37341 0.58235 0.29577 0.0
H1010 H 0.44988 0.52772 0.30389 0.0
C1011 C 0.38875 0.48936 0.35389 0.0
C1012 C 0.36403 0.53809 0.33311 0.0
C1013 C 0.37441 0.47275 0.3634 0.0
C1014 C 0.41894 0.59892 0.28431 0.0
C1015 C 0.40346 0.58297 0.29426 0.0
C1016 C 0.4263 0.53105 0.31217 0.0
C1017 C 0.36508 0.5014 0.34352 0.0
C1018 C 0.38055 0.51847 0.33292 0.0
C1019 C 0.42646 0.56794 0.30191 0.0
C1020 C 0.41024 0.55085 0.31249 0.0
H1021 H 0.28293 0.47635 0.35143 0.0
H1022 H 0.30798 0.50567 0.33499 0.0
H1023 H 0.42468 0.50002 0.32179 0.0
H1024 H 0.51068 0.58548 0.28752 0.0
H1025 H 0.48407 0.55845 0.3054 0.0
C1026 C 0.17933 0.02851 0.8504 0.0
C1027 C 0.15815 0.03829 0.86328 0.0
C1028 C 0.16464 0.01179 0.84121 0.0
C1029 C 0.0916 0.97128 0.84219 0.0
H1030 H 0.10875 0.97024 0.79267 0.0
C1031 C 0.0215 0.91144 0.7964 0.0
C1032 C 0.04424 0.90317 0.78334 0.0
C1033 C 0.03428 0.9279 0.80659 0.0
C1034 C 0.10401 0.97019 0.8065 0.0
H1035 H 0.10509 0.03794 0.87681 0.0
H1036 H 0.07936 0.00864 0.86073 0.0
H1037 H 0.13332 0.99878 0.80979 0.0
H1038 H 0.09884 0.90482 0.77156 0.0
H1039 H 0.12111 0.93355 0.78897 0.0
H1040 H 0.06231 0.94259 0.83883 0.0
C1041 C 0.10749 0.01385 0.85785 0.0
C1042 C 0.11812 0.98654 0.81632 0.0
C1043 C 0.12222 0.03063 0.86706 0.0
C1044 C 0.0802 0.91136 0.78095 0.0
C1045 C 0.093 0.92777 0.79107 0.0
C1046 C 0.07745 0.95488 0.83234 0.0
C1047 C 0.12839 0.00441 0.84468 0.0
C1048 C 0.11239 0.9872 0.8343 0.0
C1049 C 0.07011 0.93635 0.80392 0.0
C1050 C 0.0838 0.95407 0.8144 0.0
H1051 H 0.20739 0.03376 0.84743 0.0
H1052 H 0.18177 0.00457 0.83141 0.0
H1053 H 0.08699 0.97126 0.85603 0.0
H1054 H 0.99359 0.9054 0.79858 0.0
H1055 H 0.01588 0.93424 0.81632 0.0
C1056 C 0.17553 0.1403 0.01271 0.0
C1057 C 0.18214 0.12052 0.00588 0.0
C1058 C 0.16726 0.14286 0.03024 0.0
C1059 C 0.17347 0.11644 0.07278 0.0
H1060 H 0.10004 0.15721 0.08624 0.0
C1061 C 0.12345 0.12508 0.14345 0.0
C1062 C 0.12406 0.14539 0.14983 0.0
C1063 C 0.12742 0.12134 0.12572 0.0
C1064 C 0.12069 0.14582 0.08267 0.0
H1065 H 0.1861 0.08797 0.01236 0.0
H1066 H 0.17049 0.09235 0.04274 0.0
H1067 H 0.1142 0.15215 0.05568 0.0
H1068 H 0.12744 0.17773 0.14267 0.0
H1069 H 0.13422 0.17123 0.11175 0.0
H1070 H 0.17978 0.1101 0.09981 0.0
C1071 C 0.17216 0.10595 0.03459 0.0
C1072 C 0.12897 0.14298 0.06517 0.0
C1073 C 0.18065 0.1034 0.01709 0.0
C1074 C 0.12716 0.1619 0.1381 0.0
C1075 C 0.13077 0.15819 0.1204 0.0
C1076 C 0.16498 0.11919 0.09027 0.0
C1077 C 0.16519 0.1257 0.04139 0.0
C1078 C 0.15572 0.12838 0.06 0.0
C1079 C 0.13164 0.13787 0.11404 0.0
C1080 C 0.13874 0.13403 0.09541 0.0
H1081 H 0.17606 0.15381 0.00444 0.0
H1082 H 0.16264 0.15834 0.03506 0.0
H1083 H 0.19461 0.10528 0.06933 0.0
H1084 H 0.12131 0.11206 0.15222 0.0
H1085 H 0.12764 0.10552 0.12116 0.0
C1086 C 0.33197 0.36364 0.51186 0.0
C1087 C 0.32712 0.38343 0.50469 0.0
C1088 C 0.33968 0.36123 0.52948 0.0
C1089 C 0.33497 0.38916 0.57148 0.0
H1090 H 0.40106 0.3455 0.58673 0.0
C1091 C 0.38215 0.38107 0.64263 0.0
C1092 C 0.37672 0.3613 0.64973 0.0
C1093 C 0.37941 0.38414 0.62476 0.0
C1094 C 0.3825 0.35773 0.58264 0.0
H1095 H 0.32606 0.41619 0.51067 0.0
H1096 H 0.34113 0.41206 0.54108 0.0
H1097 H 0.38925 0.35022 0.55589 0.0
H1098 H 0.36597 0.32911 0.64375 0.0
H1099 H 0.36166 0.33441 0.61251 0.0
H1100 H 0.32869 0.39676 0.59828 0.0
C1101 C 0.33828 0.39833 0.53319 0.0
C1102 C 0.37551 0.36038 0.56498 0.0
C1103 C 0.33018 0.40072 0.51562 0.0
C1104 C 0.37003 0.34453 0.6386 0.0
C1105 C 0.3678 0.34754 0.62073 0.0
C1106 C 0.34233 0.38666 0.58911 0.0
C1107 C 0.3431 0.37855 0.54038 0.0
C1108 C 0.35138 0.37602 0.55916 0.0
C1109 C 0.37174 0.36743 0.61366 0.0
C1110 C 0.36592 0.37082 0.59488 0.0
H1111 H 0.33028 0.34996 0.50384 0.0
H1112 H 0.34263 0.34574 0.53457 0.0
H1113 H 0.31571 0.40113 0.56757 0.0
H1114 H 0.38714 0.39427 0.65094 0.0
H1115 H 0.38285 0.39961 0.61962 0.0
C1116 C 0.66492 0.35752 0.99475 0.0
C1117 C 0.6753 0.37699 1.00129 0.0
C1118 C 0.65815 0.35481 0.97705 0.0
C1119 C 0.67911 0.37791 0.93441 0.0
H1120 H 0.59768 0.34285 0.9187 0.0
C1121 C 0.67064 0.34545 0.86524 0.0
C1122 C 0.63556 0.34354 0.85721 0.0
C1123 C 0.67354 0.35199 0.88238 0.0
C1124 C 0.62024 0.3529 0.92286 0.0
H1125 H 0.68733 0.40879 0.99426 0.0
H1126 H 0.67506 0.40414 0.96351 0.0
H1127 H 0.60628 0.34899 0.94962 0.0
H1128 H 0.57604 0.34771 0.86064 0.0
H1129 H 0.58105 0.35929 0.89079 0.0
H1130 H 0.69311 0.38182 0.90768 0.0
C1131 C 0.67229 0.39093 0.97202 0.0
C1132 C 0.62548 0.3562 0.94059 0.0
C1133 C 0.67896 0.39364 0.9897 0.0
C1134 C 0.60344 0.34911 0.8665 0.0
C1135 C 0.60631 0.35553 0.88378 0.0
C1136 C 0.67394 0.37457 0.9167 0.0
C1137 C 0.66176 0.37149 0.96547 0.0
C1138 C 0.65522 0.36857 0.94659 0.0
C1139 C 0.6414 0.35673 0.89199 0.0
C1140 C 0.64473 0.36182 0.91071 0.0
H1141 H 0.66155 0.34441 0.00333 0.0
H1142 H 0.65053 0.33958 0.97241 0.0
H1143 H 0.70245 0.38741 0.93856 0.0
H1144 H 0.69591 0.34143 0.85833 0.0
H1145 H 0.70096 0.35256 0.88831 0.0
C1146 C 0.83718 0.14284 0.49295 0.0
C1147 C 0.83048 0.12295 0.49965 0.0
C1148 C 0.84367 0.1458 0.47527 0.0
C1149 C 0.83075 0.12046 0.43249 0.0
H1150 H 0.90036 0.16287 0.4173 0.0
C1151 C 0.86499 0.1338 0.36004 0.0
C1152 C 0.86219 0.15446 0.3546 0.0
C1153 C 0.86527 0.12891 0.37771 0.0
C1154 C 0.88078 0.15099 0.42135 0.0
H1155 H 0.82503 0.09056 0.49276 0.0
H1156 H 0.83756 0.09563 0.46212 0.0
H1157 H 0.89225 0.1563 0.44815 0.0
H1158 H 0.85956 0.18622 0.36334 0.0
H1159 H 0.86037 0.17774 0.39409 0.0
H1160 H 0.8194 0.11519 0.40563 0.0
C1161 C 0.83725 0.10903 0.47049 0.0
C1162 C 0.87595 0.14728 0.43905 0.0
C1163 C 0.83053 0.10609 0.48815 0.0
C1164 C 0.86139 0.17015 0.36716 0.0
C1165 C 0.86214 0.1653 0.38477 0.0
C1166 C 0.83583 0.12407 0.41479 0.0
C1167 C 0.84387 0.12894 0.46378 0.0
C1168 C 0.85046 0.13217 0.44488 0.0
C1169 C 0.86333 0.14461 0.39027 0.0
C1170 C 0.86051 0.13956 0.40902 0.0
H1171 H 0.83785 0.15618 0.50139 0.0
H1172 H 0.84809 0.1614 0.4706 0.0
H1173 H 0.8105 0.1089 0.43644 0.0
H1174 H 0.86556 0.12141 0.35064 0.0
H1175 H 0.86656 0.11284 0.38156 0.0
C1176 C 0.86556 0.88461 0.99045 0.0
C1177 C 0.83054 0.88012 0.9978 0.0
C1178 C 0.8713 0.88249 0.97264 0.0
C1179 C 0.82989 0.85915 0.93279 0.0
H1180 H 0.88974 0.90087 0.90956 0.0
C1181 C 0.82382 0.87444 0.85918 0.0
C1182 C 0.85736 0.87895 0.85048 0.0
C1183 C 0.82332 0.87202 0.87715 0.0
C1184 C 0.87341 0.88891 0.91587 0.0
H1185 H 0.77406 0.86991 0.99222 0.0
H1186 H 0.7837 0.86662 0.96115 0.0
H1187 H 0.88323 0.9019 0.94089 0.0
H1188 H 0.91686 0.8839 0.85372 0.0
H1189 H 0.916 0.87977 0.88523 0.0
H1190 H 0.81913 0.84663 0.90759 0.0
C1191 C 0.80711 0.87131 0.96914 0.0
C1192 C 0.86968 0.88947 0.93388 0.0
C1193 C 0.80149 0.87326 0.98697 0.0
C1194 C 0.89064 0.88033 0.86008 0.0
C1195 C 0.89008 0.87814 0.8781 0.0
C1196 C 0.83338 0.8587 0.91476 0.0
C1197 C 0.84205 0.876 0.9617 0.0
C1198 C 0.84757 0.87472 0.94259 0.0
C1199 C 0.85631 0.87425 0.88686 0.0
C1200 C 0.85489 0.87369 0.90609 0.0
H1201 H 0.88867 0.88963 0.9985 0.0
H1202 H 0.89877 0.88587 0.96747 0.0
H1203 H 0.81326 0.84727 0.93903 0.0
H1204 H 0.79778 0.87315 0.8521 0.0
H1205 H 0.79682 0.86917 0.8835 0.0
C1206 C 0.70765 0.64361 0.48759 0.0
C1207 C 0.6808 0.63755 0.49986 0.0
C1208 C 0.69895 0.64388 0.46996 0.0
C1209 C 0.63208 0.62216 0.43804 0.0
H1210 H 0.67648 0.66358 0.40804 0.0
C1211 C 0.60545 0.62349 0.36403 0.0
C1212 C 0.63836 0.62435 0.35416 0.0
C1213 C 0.60647 0.62768 0.38182 0.0
C1214 C 0.66385 0.65192 0.41626 0.0
H1215 H 0.62344 0.62742 0.50325 0.0
H1216 H 0.60803 0.62813 0.47248 0.0
H1217 H 0.68605 0.66574 0.43922 0.0
H1218 H 0.6976 0.63129 0.35484 0.0
H1219 H 0.69936 0.6389 0.38572 0.0
H1220 H 0.61014 0.6083 0.41497 0.0
C1221 C 0.63609 0.63231 0.47645 0.0
C1222 C 0.66948 0.65308 0.43413 0.0
C1223 C 0.64489 0.63193 0.49409 0.0
C1224 C 0.67186 0.63046 0.36218 0.0
C1225 C 0.6728 0.63491 0.37984 0.0
C1226 C 0.62622 0.6211 0.42016 0.0
C1227 C 0.66306 0.63822 0.46413 0.0
C1228 C 0.65434 0.63797 0.44524 0.0
C1229 C 0.64031 0.63315 0.38995 0.0
C1230 C 0.64267 0.63573 0.40904 0.0
H1231 H 0.73576 0.6477 0.49158 0.0
H1232 H 0.72072 0.64808 0.46088 0.0
H1233 H 0.62031 0.61012 0.44613 0.0
H1234 H 0.57932 0.61871 0.35814 0.0
H1235 H 0.58095 0.62634 0.38926 0.0
C1236 C 0.36875 0.61815 0.01352 0.0
C1237 C 0.33395 0.62358 0.00641 0.0
C1238 C 0.37677 0.6221 0.03092 0.0
C1239 C 0.34948 0.65631 0.06657 0.0
H1240 H 0.4027 0.61733 0.09555 0.0
C1241 C 0.40542 0.68064 0.13275 0.0
C1242 C 0.39734 0.66745 0.14671 0.0
C1243 C 0.40063 0.67392 0.11575 0.0
C1244 C 0.38771 0.62832 0.08762 0.0
H1245 H 0.27988 0.63684 0.01226 0.0
H1246 H 0.29403 0.64392 0.04254 0.0
H1247 H 0.38652 0.60791 0.06577 0.0
H1248 H 0.38004 0.63646 0.15382 0.0
H1249 H 0.37165 0.6246 0.12394 0.0
H1250 H 0.35024 0.67664 0.08832 0.0
C1251 C 0.31528 0.63682 0.03458 0.0
C1252 C 0.3787 0.62301 0.07055 0.0
C1253 C 0.30721 0.63281 0.0172 0.0
C1254 C 0.38659 0.64693 0.1433 0.0
C1255 C 0.38174 0.64017 0.12621 0.0
C1256 C 0.35864 0.66165 0.08354 0.0
C1257 C 0.35026 0.63166 0.04161 0.0
C1258 C 0.35947 0.63697 0.05984 0.0
C1259 C 0.38761 0.65383 0.11228 0.0
C1260 C 0.37802 0.64778 0.09425 0.0
H1261 H 0.39021 0.61129 0.00554 0.0
H1262 H 0.40414 0.61819 0.03588 0.0
H1263 H 0.33501 0.6675 0.05863 0.0
H1264 H 0.41442 0.69643 0.13499 0.0
H1265 H 0.40631 0.68465 0.10531 0.0
C1266 C 0.14483 0.86901 0.51164 0.0
C1267 C 0.17878 0.86078 0.50563 0.0
C1268 C 0.13369 0.86616 0.52883 0.0
C1269 C 0.1432 0.83043 0.56477 0.0
H1270 H 0.10962 0.87562 0.5937 0.0
C1271 C 0.0689 0.81827 0.6305 0.0
C1272 C 0.08414 0.82937 0.64452 0.0
C1273 C 0.0801 0.82258 0.61354 0.0
C1274 C 0.11894 0.86288 0.58574 0.0
H1275 H 0.22822 0.84379 0.51339 0.0
H1276 H 0.20795 0.8382 0.54313 0.0
H1277 H 0.13059 0.88261 0.56405 0.0
H1278 H 0.12351 0.85371 0.65144 0.0
H1279 H 0.14175 0.86166 0.62181 0.0
H1280 H 0.13112 0.81066 0.58634 0.0
C1281 C 0.19005 0.8468 0.53445 0.0
C1282 C 0.13073 0.86686 0.5688 0.0
C1283 C 0.2015 0.84992 0.51737 0.0
C1284 C 0.11047 0.8451 0.64104 0.0
C1285 C 0.12115 0.84963 0.62406 0.0
C1286 C 0.13078 0.82641 0.58158 0.0
C1287 C 0.15594 0.85477 0.5403 0.0
C1288 C 0.14318 0.85067 0.55821 0.0
C1289 C 0.1063 0.8383 0.61017 0.0
C1290 C 0.1187 0.8426 0.59224 0.0
H1291 H 0.12626 0.87717 0.50299 0.0
H1292 H 0.10711 0.87233 0.53301 0.0
H1293 H 0.15241 0.81766 0.55682 0.0
H1294 H 0.04807 0.80633 0.63257 0.0
H1295 H 0.06796 0.81376 0.60302 0.0
C1296 C 0.14 0.29603 0.38173 0.0
C1297 C 0.17742 0.30151 0.37865 0.0
C1298 C 0.12223 0.28129 0.37129 0.0
C1299 C 0.13884 0.2365 0.34447 0.0
H1300 H 0.05035 0.25202 0.3187 0.0
C1301 C 0.08115 0.18464 0.29029 0.0
C1302 C 0.04245 0.18388 0.28738 0.0
C1303 C 0.09659 0.19897 0.30175 0.0
C1304 C 0.0746 0.24723 0.32602 0.0
H1305 H 0.22597 0.29575 0.36271 0.0
H1306 H 0.19524 0.26944 0.34481 0.0
H1307 H 0.07859 0.27652 0.33891 0.0
H1308 H 0.98936 0.19726 0.29475 0.0
H1309 H 0.01599 0.22156 0.31543 0.0
H1310 H 0.13461 0.20708 0.33217 0.0
C1311 C 0.17958 0.27671 0.35512 0.0
C1312 C 0.09081 0.26134 0.33752 0.0
C1313 C 0.19706 0.29174 0.36528 0.0
C1314 C 0.01938 0.19753 0.29655 0.0
C1315 C 0.03474 0.21164 0.30831 0.0
C1316 C 0.12226 0.22225 0.33324 0.0
C1317 C 0.14194 0.27152 0.35792 0.0
C1318 C 0.12332 0.25616 0.34666 0.0
C1319 C 0.07361 0.21258 0.31106 0.0
C1320 C 0.09021 0.2275 0.32364 0.0
H1321 H 0.12434 0.30348 0.39194 0.0
H1322 H 0.09319 0.27746 0.37369 0.0
H1323 H 0.16375 0.23213 0.35152 0.0
H1324 H 0.09963 0.17386 0.28404 0.0
H1325 H 0.12666 0.19932 0.30326 0.0
C1326 C 0.30397 0.21268 0.86462 0.0
C1327 C 0.32392 0.20263 0.87774 0.0
C1328 C 0.32171 0.22704 0.85389 0.0
C1329 C 0.40898 0.25863 0.84917 0.0
H1330 H 0.37535 0.26179 0.80154 0.0
C1331 C 0.48515 0.30365 0.79377 0.0
C1332 C 0.46217 0.31776 0.78496 0.0
C1333 C 0.46974 0.28957 0.80557 0.0
C1334 C 0.38495 0.26105 0.81482 0.0
H1335 H 0.37784 0.19963 0.8901 0.0
H1336 H 0.40955 0.22411 0.87091 0.0
H1337 H 0.3461 0.23713 0.82115 0.0
H1338 H 0.40521 0.32867 0.78243 0.0
H1339 H 0.37829 0.30342 0.80216 0.0
H1340 H 0.44882 0.28222 0.84237 0.0
C1341 C 0.3799 0.22145 0.86915 0.0
C1342 C 0.368 0.24706 0.82615 0.0
C1343 C 0.36187 0.20736 0.88013 0.0
C1344 C 0.42362 0.31765 0.78845 0.0
C1345 C 0.40816 0.30329 0.79989 0.0
C1346 C 0.42644 0.27236 0.8377 0.0
C1347 C 0.36013 0.23136 0.85576 0.0
C1348 C 0.37935 0.24584 0.84358 0.0
C1349 C 0.43105 0.28911 0.80853 0.0
C1350 C 0.41421 0.27385 0.82049 0.0
H1351 H 0.27454 0.2094 0.86267 0.0
H1352 H 0.30517 0.23473 0.84412 0.0
H1353 H 0.41824 0.2584 0.8625 0.0
H1354 H 0.51504 0.30346 0.79157 0.0
H1355 H 0.48792 0.27877 0.81214 0.0
C1356 C 0.67166 0.19652 0.64461 0.0
C1357 C 0.69116 0.20275 0.62964 0.0
C1358 C 0.65536 0.21108 0.65553 0.0
C1359 C 0.61497 0.26202 0.65754 0.0
H1360 H 0.64402 0.26148 0.70587 0.0
C1361 C 0.56256 0.32433 0.70494 0.0
C1362 C 0.55589 0.31859 0.72217 0.0
C1363 C 0.58004 0.3107 0.69354 0.0
C1364 C 0.635 0.26169 0.69251 0.0
H1365 H 0.70758 0.22942 0.61429 0.0
H1366 H 0.67746 0.25475 0.63306 0.0
H1367 H 0.67113 0.23658 0.68594 0.0
H1368 H 0.56182 0.29408 0.74103 0.0
H1369 H 0.59063 0.26987 0.72103 0.0
H1370 H 0.57761 0.28641 0.66404 0.0
C1371 C 0.6755 0.23851 0.63634 0.0
C1372 C 0.65082 0.24749 0.68108 0.0
C1373 C 0.69252 0.22395 0.62555 0.0
C1374 C 0.56693 0.29895 0.72782 0.0
C1375 C 0.5837 0.28514 0.71634 0.0
C1376 C 0.59852 0.27596 0.66902 0.0
C1377 C 0.65735 0.2322 0.65156 0.0
C1378 C 0.64096 0.24753 0.66351 0.0
C1379 C 0.59057 0.29081 0.69901 0.0
C1380 C 0.60831 0.27602 0.6867 0.0
H1381 H 0.66893 0.18035 0.64799 0.0
H1382 H 0.64098 0.20583 0.66706 0.0
H1383 H 0.60669 0.26221 0.64406 0.0
H1384 H 0.55473 0.3395 0.7003 0.0
H1385 H 0.58555 0.31591 0.68048 0.0
C1386 C 0.80155 0.29596 0.14935 0.0
C1387 C 0.81517 0.29941 0.13253 0.0
C1388 C 0.81897 0.28189 0.16039 0.0
C1389 C 0.90866 0.25515 0.16756 0.0
H1390 H 0.84925 0.22076 0.19822 0.0
C1391 C 0.97219 0.18964 0.20906 0.0
C1392 C 0.95829 0.18681 0.22594 0.0
C1393 C 0.95544 0.20366 0.19774 0.0
C1394 C 0.86628 0.23043 0.1899 0.0
H1395 H 0.85762 0.29045 0.11405 0.0
H1396 H 0.88767 0.2655 0.13323 0.0
H1397 H 0.81825 0.24378 0.17789 0.0
H1398 H 0.91636 0.19713 0.24422 0.0
H1399 H 0.88734 0.22167 0.22448 0.0
H1400 H 0.95671 0.24172 0.17957 0.0
C1401 C 0.86376 0.27397 0.13796 0.0
C1402 C 0.8485 0.24362 0.17821 0.0
C1403 C 0.84628 0.28809 0.12689 0.0
C1404 C 0.92774 0.19877 0.23132 0.0
C1405 C 0.91091 0.21276 0.21995 0.0
C1406 C 0.92646 0.24192 0.17924 0.0
C1407 C 0.85043 0.27079 0.15489 0.0
C1408 C 0.86944 0.25623 0.16693 0.0
C1409 C 0.92432 0.21523 0.20296 0.0
C1410 C 0.90548 0.22945 0.1906 0.0
H1411 H 0.77732 0.30418 0.15405 0.0
H1412 H 0.80812 0.28002 0.17337 0.0
H1413 H 0.9257 0.26486 0.15926 0.0
H1414 H 0.99568 0.18077 0.20441 0.0
H1415 H 0.9663 0.20502 0.18471 0.0
C1416 C 0.81288 0.71331 0.6359 0.0
C1417 C 0.82421 0.69265 0.63767 0.0
C1418 C 0.83046 0.72899 0.64544 0.0
C1419 C 0.88594 0.73629 0.68535 0.0
H1420 H 0.90677 0.79071 0.66658 0.0
C1421 C 0.97484 0.79605 0.72227 0.0
C1422 C 0.96217 0.81652 0.72241 0.0
C1423 C 0.95814 0.78141 0.71145 0.0
C1424 C 0.90077 0.77564 0.67204 0.0
H1425 H 0.86426 0.67243 0.65003 0.0
H1426 H 0.89509 0.6997 0.66648 0.0
H1427 H 0.878 0.76433 0.64818 0.0
H1428 H 0.92286 0.83794 0.71109 0.0
H1429 H 0.89325 0.81227 0.69224 0.0
H1430 H 0.90863 0.74753 0.70918 0.0
C1431 C 0.872 0.70377 0.65811 0.0
C1432 C 0.8843 0.76053 0.66151 0.0
C1433 C 0.8544 0.68814 0.64864 0.0
C1434 C 0.93293 0.8222 0.71131 0.0
C1435 C 0.91623 0.80755 0.70043 0.0
C1436 C 0.9024 0.75135 0.69584 0.0
C1437 C 0.8598 0.72433 0.6569 0.0
C1438 C 0.87692 0.74062 0.66801 0.0
C1439 C 0.92849 0.78695 0.70047 0.0
C1440 C 0.91024 0.77116 0.6893 0.0
H1441 H 0.78951 0.71724 0.62764 0.0
H1442 H 0.8202 0.74464 0.64428 0.0
H1443 H 0.87987 0.72128 0.69091 0.0
H1444 H 0.99733 0.79126 0.73074 0.0
H1445 H 0.96859 0.76574 0.71162 0.0
C1446 C 0.65828 0.8053 0.1372 0.0
C1447 C 0.68758 0.79925 0.12628 0.0
C1448 C 0.64101 0.791 0.14816 0.0
C1449 C 0.62998 0.73463 0.15656 0.0
H1450 H 0.60218 0.7536 0.20234 0.0
C1451 C 0.58545 0.67939 0.21192 0.0
C1452 C 0.55356 0.68509 0.22133 0.0
C1453 C 0.60162 0.69307 0.20007 0.0
C1454 C 0.60952 0.74812 0.18956 0.0
H1455 H 0.72151 0.77346 0.11808 0.0
H1456 H 0.69196 0.74849 0.13752 0.0
H1457 H 0.63057 0.77771 0.18198 0.0
H1458 H 0.51348 0.70952 0.22568 0.0
H1459 H 0.54182 0.73347 0.20498 0.0
H1460 H 0.60954 0.70488 0.16443 0.0
C1461 C 0.68173 0.76419 0.13738 0.0
C1462 C 0.62567 0.76196 0.17783 0.0
C1463 C 0.69874 0.77849 0.12626 0.0
C1464 C 0.53805 0.7047 0.21861 0.0
C1465 C 0.5544 0.71845 0.20685 0.0
C1466 C 0.61415 0.72074 0.16838 0.0
C1467 C 0.65292 0.77033 0.14864 0.0
C1468 C 0.63592 0.75544 0.16113 0.0
C1469 C 0.58632 0.71277 0.19745 0.0
C1470 C 0.6036 0.72738 0.18496 0.0
H1471 H 0.6488 0.82116 0.1373 0.0
H1472 H 0.61833 0.79621 0.1563 0.0
H1473 H 0.63701 0.72911 0.14376 0.0
H1474 H 0.59778 0.66429 0.21362 0.0
H1475 H 0.62637 0.68833 0.19309 0.0
C1476 C 0.33973 0.79847 0.37143 0.0
C1477 C 0.30538 0.80614 0.36557 0.0
C1478 C 0.35787 0.78278 0.36232 0.0
C1479 C 0.359 0.75823 0.31881 0.0
H1480 H 0.42186 0.718 0.34167 0.0
C1481 C 0.4556 0.70592 0.27951 0.0
C1482 C 0.46053 0.68543 0.28495 0.0
C1483 C 0.4372 0.72005 0.29004 0.0
C1484 C 0.40408 0.72895 0.33507 0.0
H1485 H 0.26203 0.80285 0.34623 0.0
H1486 H 0.29266 0.77494 0.33072 0.0
H1487 H 0.38698 0.74276 0.35892 0.0
H1488 H 0.45069 0.66362 0.30569 0.0
H1489 H 0.41719 0.68817 0.32401 0.0
H1490 H 0.37464 0.74397 0.29505 0.0
C1491 C 0.30656 0.78148 0.34191 0.0
C1492 C 0.38445 0.74338 0.34497 0.0
C1493 C 0.28882 0.79739 0.35083 0.0
C1494 C 0.4473 0.67939 0.30127 0.0
C1495 C 0.42827 0.69349 0.31175 0.0
C1496 C 0.37815 0.74367 0.30896 0.0
C1497 C 0.34169 0.7742 0.34731 0.0
C1498 C 0.36182 0.75832 0.33695 0.0
C1499 C 0.42267 0.71398 0.30619 0.0
C1500 C 0.40131 0.72897 0.31692 0.0
H1501 H 0.35311 0.80507 0.38274 0.0
H1502 H 0.38506 0.77782 0.36678 0.0
H1503 H 0.34243 0.76963 0.31207 0.0
H1504 H 0.46609 0.71105 0.26707 0.0
H1505 H 0.43447 0.7358 0.28549 0.0
C1506 C 0.16942 0.69657 0.86278 0.0
C1507 C 0.19143 0.70239 0.8771 0.0
C1508 C 0.15387 0.71147 0.85192 0.0
C1509 C 0.12283 0.76489 0.84977 0.0
H1510 H 0.13909 0.75933 0.80041 0.0
C1511 C 0.07181 0.82688 0.80145 0.0
C1512 C 0.05816 0.81995 0.78547 0.0
C1513 C 0.08992 0.81323 0.81267 0.0
C1514 C 0.13376 0.761 0.81412 0.0
H1515 H 0.21351 0.72872 0.89129 0.0
H1516 H 0.18508 0.75472 0.87261 0.0
H1517 H 0.16556 0.734 0.82019 0.0
H1518 H 0.05151 0.79332 0.76879 0.0
H1519 H 0.08202 0.76936 0.78843 0.0
H1520 H 0.08992 0.79142 0.84378 0.0
C1521 C 0.18029 0.73852 0.86982 0.0
C1522 C 0.14912 0.74652 0.82544 0.0
C1523 C 0.19638 0.72359 0.88056 0.0
C1524 C 0.06263 0.79915 0.78089 0.0
C1525 C 0.08021 0.78543 0.79217 0.0
C1526 C 0.10694 0.77923 0.83842 0.0
C1527 C 0.15936 0.73258 0.85526 0.0
C1528 C 0.14369 0.74828 0.84336 0.0
C1529 C 0.09409 0.79226 0.80824 0.0
C1530 C 0.11205 0.77743 0.82042 0.0
H1531 H 0.1641 0.68045 0.85992 0.0
H1532 H 0.13732 0.70649 0.84094 0.0
H1533 H 0.118 0.76649 0.86353 0.0
H1534 H 0.06861 0.84289 0.80523 0.0
H1535 H 0.10073 0.81916 0.82478 0.0
loop_
_geom_bond_atom_site_label_1
_geom_bond_atom_site_label_2
_geom_bond_distance
_geom_bond_site_symmetry_2
_ccdc_geom_bond_type
C0 C1 1.391 . S
C0 C4 1.391 . S
C0 H42 0.948 . S
C1 C0 1.391 . S
C1 C2 1.391 . S
C2 C1 1.391 . S
C2 H58 0.947 . S
C2 C59 1.392 . S
C3 C4 1.391 . S
C3 C7 1.397 . S
C3 C59 1.419 . S
C4 C0 1.391 . S
C4 C3 1.391 . S
C4 C5 1.399 . S
C5 C4 1.399 . S
C5 C8 1.396 . S
C5 C17 1.453 . S
C5 C18 1.684 . S
H6 C30 0.948 . S
C7 C3 1.397 . S
C7 C8 1.394 . S
C7 C26 1.723 . S
C8 C5 1.396 . S
C8 C7 1.394 . S
C8 C38 1.723 . S
H9 C32 0.947 . S
H10 C33 0.948 . S
H11 C39 0.982 . S
H12 C40 0.979 . S
H13 C40 0.980 . S
H14 C40 0.983 . S
H15 C39 0.979 . S
H16 C39 0.977 . S
C17 C5 1.453 . S
C17 H46 0.982 . S
C17 H47 0.979 . S
C17 H48 0.977 . S
C18 C5 1.684 . S
C18 H43 0.979 . S
C18 H44 0.980 . S
C18 H45 0.983 . S
C19 C20 1.391 . S
C19 C24 1.391 . S
C19 H49 0.948 . S
C20 C19 1.391 . S
C20 C21 1.391 . S
C21 C20 1.391 . S
C21 C22 1.392 . S
C21 H50 0.947 . S
C22 C21 1.392 . S
C22 C23 1.419 . S
C22 H51 0.948 . S
C23 C22 1.419 . S
C23 C24 1.391 . S
C23 C27 1.397 . S
C24 C19 1.391 . S
C24 C23 1.391 . S
C24 C25 1.399 . S
C25 C24 1.399 . S
C25 C26 1.396 . S
C25 C28 1.453 . S
C25 C29 1.684 . S
C26 C7 1.723 . S
C26 C25 1.396 . S
C26 C27 1.394 . S
C27 C23 1.397 . S
C27 C26 1.394 . S
C27 C37 1.723 . S
C28 C25 1.453 . S
C28 H52 0.982 . S
C28 H53 0.979 . S
C28 H54 0.977 . S
C29 C25 1.684 . S
C29 H55 0.979 . S
C29 H56 0.980 . S
C29 H57 0.983 . S
C30 H6 0.948 . S
C30 C31 1.391 . S
C30 C35 1.391 . S
C31 C30 1.391 . S
C31 C32 1.391 . S
C32 H9 0.947 . S
C32 C31 1.391 . S
C32 C33 1.392 . S
C33 H10 0.948 . S
C33 C32 1.392 . S
C33 C34 1.419 . S
C34 C33 1.419 . S
C34 C35 1.391 . S
C34 C38 1.397 . S
C35 C30 1.391 . S
C35 C34 1.391 . S
C35 C36 1.399 . S
C36 C35 1.399 . S
C36 C37 1.396 . S
C36 C39 1.453 . S
C36 C40 1.684 . S
C37 C27 1.723 . S
C37 C36 1.396 . S
C37 C38 1.394 . S
C38 C8 1.723 . S
C38 C34 1.397 . S
C38 C37 1.394 . S
C39 H11 0.982 . S
C39 H15 0.979 . S
C39 H16 0.977 . S
C39 C36 1.453 . S
C40 H12 0.979 . S
C40 H13 0.980 . S
C40 H14 0.983 . S
C40 C36 1.684 . S
H41 C59 0.948 . S
H42 C0 0.948 . S
H43 C18 0.979 . S
H44 C18 0.980 . S
H45 C18 0.983 . S
H46 C17 0.982 . S
H47 C17 0.979 . S
H48 C17 0.977 . S
H49 C19 0.948 . S
H50 C21 0.947 . S
H51 C22 0.948 . S
H52 C28 0.982 . S
H53 C28 0.979 . S
H54 C28 0.977 . S
H55 C29 0.979 . S
H56 C29 0.980 . S
H57 C29 0.983 . S
H58 C2 0.947 . S
C59 C2 1.392 . S
C59 C3 1.419 . S
C59 H41 0.948 . S
C60 C61 1.391 . S
C60 C64 1.391 . S
C60 H102 0.948 . S
C61 C60 1.391 . S
C61 C62 1.391 . S
C62 C61 1.391 . S
C62 H118 0.947 . S
C62 C119 1.392 . S
C63 C64 1.391 . S
C63 C67 1.397 . S
C63 C119 1.419 . S
C64 C60 1.391 . S
C64 C63 1.391 . S
C64 C65 1.399 . S
C65 C64 1.399 . S
C65 C68 1.396 . S
C65 C77 1.453 . S
C65 C78 1.684 . S
H66 C90 0.948 . S
C67 C63 1.397 . S
C67 C68 1.394 . S
C67 C86 1.723 . S
C68 C65 1.396 . S
C68 C67 1.394 . S
C68 C98 1.723 . S
H69 C92 0.947 . S
H70 C93 0.948 . S
H71 C99 0.982 . S
H72 C100 0.979 . S
H73 C100 0.980 . S
H74 C100 0.983 . S
H75 C99 0.979 . S
H76 C99 0.977 . S
C77 C65 1.453 . S
C77 H106 0.982 . S
C77 H107 0.979 . S
C77 H108 0.977 . S
C78 C65 1.684 . S
C78 H103 0.979 . S
C78 H104 0.980 . S
C78 H105 0.983 . S
C79 C80 1.391 . S
C79 C84 1.391 . S
C79 H109 0.948 . S
C80 C79 1.391 . S
C80 C81 1.391 . S
C81 C80 1.391 . S
C81 C82 1.392 . S
C81 H110 0.947 . S
C82 C81 1.392 . S
C82 C83 1.419 . S
C82 H111 0.948 . S
C83 C82 1.419 . S
C83 C84 1.391 . S
C83 C87 1.397 . S
C84 C79 1.391 . S
C84 C83 1.391 . S
C84 C85 1.399 . S
C85 C84 1.399 . S
C85 C86 1.396 . S
C85 C88 1.453 . S
C85 C89 1.684 . S
C86 C67 1.723 . S
C86 C85 1.396 . S
C86 C87 1.394 . S
C87 C83 1.397 . S
C87 C86 1.394 . S
C87 C97 1.723 . S
C88 C85 1.453 . S
C88 H112 0.982 . S
C88 H113 0.979 . S
C88 H114 0.977 . S
C89 C85 1.684 . S
C89 H115 0.979 . S
C89 H116 0.980 . S
C89 H117 0.983 . S
C90 H66 0.948 . S
C90 C91 1.391 . S
C90 C95 1.391 . S
C91 C90 1.391 . S
C91 C92 1.391 . S
C92 H69 0.947 . S
C92 C91 1.391 . S
C92 C93 1.392 . S
C93 H70 0.948 . S
C93 C92 1.392 . S
C93 C94 1.419 . S
C94 C93 1.419 . S
C94 C95 1.391 . S
C94 C98 1.397 . S
C95 C90 1.391 . S
C95 C94 1.391 . S
C95 C96 1.399 . S
C96 C95 1.399 . S
C96 C97 1.396 . S
C96 C99 1.453 . S
C96 C100 1.684 . S
C97 C87 1.723 . S
C97 C96 1.396 . S
C97 C98 1.394 . S
C98 C68 1.723 . S
C98 C94 1.397 . S
C98 C97 1.394 . S
C99 H71 0.982 . S
C99 H75 0.979 . S
C99 H76 0.977 . S
C99 C96 1.453 . S
C100 H72 0.979 . S
C100 H73 0.980 . S
C100 H74 0.983 . S
C100 C96 1.684 . S
H101 C119 0.948 . S
H102 C60 0.948 . S
H103 C78 0.979 . S
H104 C78 0.980 . S
H105 C78 0.983 . S
H106 C77 0.982 . S
H107 C77 0.979 . S
H108 C77 0.977 . S
H109 C79 0.948 . S
H110 C81 0.947 . S
H111 C82 0.948 . S
H112 C88 0.982 . S
H113 C88 0.979 . S
H114 C88 0.977 . S
H115 C89 0.979 . S
H116 C89 0.980 . S
H117 C89 0.983 . S
H118 C62 0.947 . S
C119 C62 1.392 . S
C119 C63 1.419 . S
C119 H101 0.948 . S
C120 C121 1.391 . S
C120 C124 1.391 . S
C120 H162 0.948 . S
C121 C120 1.391 . S
C121 C122 1.391 . S
C122 C121 1.391 . S
C122 H178 0.947 . S
C122 C179 1.392 . S
C123 C124 1.391 . S
C123 C127 1.397 . S
C123 C179 1.419 . S
C124 C120 1.391 . S
C124 C123 1.391 . S
C124 C125 1.399 . S
C125 C124 1.399 . S
C125 C128 1.396 . S
C125 C137 1.453 . S
C125 C138 1.684 . S
H126 C150 0.948 . S
C127 C123 1.397 . S
C127 C128 1.394 . S
C127 C146 1.723 . S
C128 C125 1.396 . S
C128 C127 1.394 . S
C128 C158 1.723 . S
H129 C152 0.947 . S
H130 C153 0.948 . S
H131 C159 0.982 . S
H132 C160 0.979 . S
H133 C160 0.980 . S
H134 C160 0.983 . S
H135 C159 0.979 . S
H136 C159 0.977 . S
C137 C125 1.453 . S
C137 H166 0.982 . S
C137 H167 0.979 . S
C137 H168 0.977 . S
C138 C125 1.684 . S
C138 H163 0.979 . S
C138 H164 0.980 . S
C138 H165 0.983 . S
C139 C140 1.391 . S
C139 C144 1.391 . S
C139 H169 0.948 . S
C140 C139 1.391 . S
C140 C141 1.391 . S
C141 C140 1.391 . S
C141 C142 1.392 . S
C141 H170 0.947 . S
C142 C141 1.392 . S
C142 C143 1.419 . S
C142 H171 0.948 . S
C143 C142 1.419 . S
C143 C144 1.391 . S
C143 C147 1.397 . S
C144 C139 1.391 . S
C144 C143 1.391 . S
C144 C145 1.399 . S
C145 C144 1.399 . S
C145 C146 1.396 . S
C145 C148 1.453 . S
C145 C149 1.684 . S
C146 C127 1.723 . S
C146 C145 1.396 . S
C146 C147 1.394 . S
C147 C143 1.397 . S
C147 C146 1.394 . S
C147 C157 1.723 . S
C148 C145 1.453 . S
C148 H172 0.982 . S
C148 H173 0.979 . S
C148 H174 0.977 . S
C149 C145 1.684 . S
C149 H175 0.979 . S
C149 H176 0.980 . S
C149 H177 0.983 . S
C150 H126 0.948 . S
C150 C151 1.391 . S
C150 C155 1.391 . S
C151 C150 1.391 . S
C151 C152 1.391 . S
C152 H129 0.947 . S
C152 C151 1.391 . S
C152 C153 1.392 . S
C153 H130 0.948 . S
C153 C152 1.392 . S
C153 C154 1.419 . S
C154 C153 1.419 . S
C154 C155 1.391 . S
C154 C158 1.397 . S
C155 C150 1.391 . S
C155 C154 1.391 . S
C155 C156 1.399 . S
C156 C155 1.399 . S
C156 C157 1.396 . S
C156 C159 1.453 . S
C156 C160 1.684 . S
C157 C147 1.723 . S
C157 C156 1.396 . S
C157 C158 1.394 . S
C158 C128 1.723 . S
C158 C154 1.397 . S
C158 C157 1.394 . S
C159 H131 0.982 . S
C159 H135 0.979 . S
C159 H136 0.977 . S
C159 C156 1.453 . S
C160 H132 0.979 . S
C160 H133 0.980 . S
C160 H134 0.983 . S
C160 C156 1.684 . S
H161 C179 0.948 . S
H162 C120 0.948 . S
H163 C138 0.979 . S
H164 C138 0.980 . S
H165 C138 0.983 . S
H166 C137 0.982 . S
H167 C137 0.979 . S
H168 C137 0.977 . S
H169 C139 0.948 . S
H170 C141 0.947 . S
H171 C142 0.948 . S
H172 C148 0.982 . S
H173 C148 0.979 . S
H174 C148 0.977 . S
H175 C149 0.979 . S
H176 C149 0.980 . S
H177 C149 0.983 . S
H178 C122 0.947 . S
C179 C122 1.392 . S
C179 C123 1.419 . S
C179 H161 0.948 . S
C180 C181 1.391 . S
C180 C184 1.391 . S
C180 H222 0.948 . S
C181 C180 1.391 . S
C181 C182 1.391 . S
C182 C181 1.391 . S
C182 H238 0.947 . S
C182 C239 1.392 . S
C183 C184 1.391 . S
C183 C187 1.397 . S
C183 C239 1.419 . S
C184 C180 1.391 . S
C184 C183 1.391 . S
C184 C185 1.399 . S
C185 C184 1.399 . S
C185 C188 1.396 . S
C185 C197 1.453 . S
C185 C198 1.684 . S
H186 C210 0.948 . S
C187 C183 1.397 . S
C187 C188 1.394 . S
C187 C206 1.723 . S
C188 C185 1.396 . S
C188 C187 1.394 . S
C188 C218 1.723 . S
H189 C212 0.947 . S
H190 C213 0.948 . S
H191 C219 0.982 . S
H192 C220 0.979 . S
H193 C220 0.980 . S
H194 C220 0.983 . S
H195 C219 0.979 . S
H196 C219 0.977 . S
C197 C185 1.453 . S
C197 H226 0.982 . S
C197 H227 0.979 . S
C197 H228 0.977 . S
C198 C185 1.684 . S
C198 H223 0.979 . S
C198 H224 0.980 . S
C198 H225 0.983 . S
C199 C200 1.391 . S
C199 C204 1.391 . S
C199 H229 0.948 . S
C200 C199 1.391 . S
C200 C201 1.391 . S
C201 C200 1.391 . S
C201 C202 1.392 . S
C201 H230 0.947 . S
C202 C201 1.392 . S
C202 C203 1.419 . S
C202 H231 0.948 . S
C203 C202 1.419 . S
C203 C204 1.391 . S
C203 C207 1.397 . S
C204 C199 1.391 . S
C204 C203 1.391 . S
C204 C205 1.399 . S
C205 C204 1.399 . S
C205 C206 1.396 . S
C205 C208 1.453 . S
C205 C209 1.684 . S
C206 C187 1.723 . S
C206 C205 1.396 . S
C206 C207 1.394 . S
C207 C203 1.397 . S
C207 C206 1.394 . S
C207 C217 1.723 . S
C208 C205 1.453 . S
C208 H232 0.982 . S
C208 H233 0.979 . S
C208 H234 0.977 . S
C209 C205 1.684 . S
C209 H235 0.979 . S
C209 H236 0.980 . S
C209 H237 0.983 . S
C210 H186 0.948 . S
C210 C211 1.391 . S
C210 C215 1.391 . S
C211 C210 1.391 . S
C211 C212 1.391 . S
C212 H189 0.947 . S
C212 C211 1.391 . S
C212 C213 1.392 . S
C213 H190 0.948 . S
C213 C212 1.392 . S
C213 C214 1.419 . S
C214 C213 1.419 . S
C214 C215 1.391 . S
C214 C218 1.397 . S
C215 C210 1.391 . S
C215 C214 1.391 . S
C215 C216 1.399 . S
C216 C215 1.399 . S
C216 C217 1.396 . S
C216 C219 1.453 . S
C216 C220 1.684 . S
C217 C207 1.723 . S
C217 C216 1.396 . S
C217 C218 1.394 . S
C218 C188 1.723 . S
C218 C214 1.397 . S
C218 C217 1.394 . S
C219 H191 0.982 . S
C219 H195 0.979 . S
C219 H196 0.977 . S
C219 C216 1.453 . S
C220 H192 0.979 . S
C220 H193 0.980 . S
C220 H194 0.983 . S
C220 C216 1.684 . S
H221 C239 0.948 . S
H222 C180 0.948 . S
H223 C198 0.979 . S
H224 C198 0.980 . S
H225 C198 0.983 . S
H226 C197 0.982 . S
H227 C197 0.979 . S
H228 C197 0.977 . S
H229 C199 0.948 . S
H230 C201 0.947 . S
H231 C202 0.948 . S
H232 C208 0.982 . S
H233 C208 0.979 . S
H234 C208 0.977 . S
H235 C209 0.979 . S
H236 C209 0.980 . S
H237 C209 0.983 . S
H238 C182 0.947 . S
C239 C182 1.392 . S
C239 C183 1.419 . S
C239 H221 0.948 . S
C240 C241 1.391 . S
C240 C244 1.391 . S
C240 H282 0.948 . S
C241 C240 1.391 . S
C241 C242 1.391 . S
C242 C241 1.391 . S
C242 H298 0.947 . S
C242 C299 1.392 . S
C243 C244 1.391 . S
C243 C247 1.397 . S
C243 C299 1.419 . S
C244 C240 1.391 . S
C244 C243 1.391 . S
C244 C245 1.399 . S
C245 C244 1.399 . S
C245 C248 1.396 . S
C245 C257 1.453 . S
C245 C258 1.684 . S
H246 C270 0.948 . S
C247 C243 1.397 . S
C247 C248 1.394 . S
C247 C266 1.723 . S
C248 C245 1.396 . S
C248 C247 1.394 . S
C248 C278 1.723 . S
H249 C272 0.947 . S
H250 C273 0.948 . S
H251 C279 0.982 . S
H252 C280 0.979 . S
H253 C280 0.980 . S
H254 C280 0.983 . S
H255 C279 0.979 . S
H256 C279 0.977 . S
C257 C245 1.453 . S
C257 H286 0.982 . S
C257 H287 0.979 . S
C257 H288 0.977 . S
C258 C245 1.684 . S
C258 H283 0.979 . S
C258 H284 0.980 . S
C258 H285 0.983 . S
C259 C260 1.391 . S
C259 C264 1.391 . S
C259 H289 0.948 . S
C260 C259 1.391 . S
C260 C261 1.391 . S
C261 C260 1.391 . S
C261 C262 1.392 . S
C261 H290 0.947 . S
C262 C261 1.392 . S
C262 C263 1.419 . S
C262 H291 0.948 . S
C263 C262 1.419 . S
C263 C264 1.391 . S
C263 C267 1.397 . S
C264 C259 1.391 . S
C264 C263 1.391 . S
C264 C265 1.399 . S
C265 C264 1.399 . S
C265 C266 1.396 . S
C265 C268 1.453 . S
C265 C269 1.684 . S
C266 C247 1.723 . S
C266 C265 1.396 . S
C266 C267 1.394 . S
C267 C263 1.397 . S
C267 C266 1.394 . S
C267 C277 1.723 . S
C268 C265 1.453 . S
C268 H292 0.982 . S
C268 H293 0.979 . S
C268 H294 0.977 . S
C269 C265 1.684 . S
C269 H295 0.979 . S
C269 H296 0.980 . S
C269 H297 0.983 . S
C270 H246 0.948 . S
C270 C271 1.391 . S
C270 C275 1.391 . S
C271 C270 1.391 . S
C271 C272 1.391 . S
C272 H249 0.947 . S
C272 C271 1.391 . S
C272 C273 1.392 . S
C273 H250 0.948 . S
C273 C272 1.392 . S
C273 C274 1.419 . S
C274 C273 1.419 . S
C274 C275 1.391 . S
C274 C278 1.397 . S
C275 C270 1.391 . S
C275 C274 1.391 . S
C275 C276 1.399 . S
C276 C275 1.399 . S
C276 C277 1.396 . S
C276 C279 1.453 . S
C276 C280 1.684 . S
C277 C267 1.723 . S
C277 C276 1.396 . S
C277 C278 1.394 . S
C278 C248 1.723 . S
C278 C274 1.397 . S
C278 C277 1.394 . S
C279 H251 0.982 . S
C279 H255 0.979 . S
C279 H256 0.977 . S
C279 C276 1.453 . S
C280 H252 0.979 . S
C280 H253 0.980 . S
C280 H254 0.983 . S
C280 C276 1.684 . S
H281 C299 0.948 . S
H282 C240 0.948 . S
H283 C258 0.979 . S
H284 C258 0.980 . S
H285 C258 0.983 . S
H286 C257 0.982 . S
H287 C257 0.979 . S
H288 C257 0.977 . S
H289 C259 0.948 . S
H290 C261 0.947 . S
H291 C262 0.948 . S
H292 C268 0.982 . S
H293 C268 0.979 . S
H294 C268 0.977 . S
H295 C269 0.979 . S
H296 C269 0.980 . S
H297 C269 0.983 . S
H298 C242 0.947 . S
C299 C242 1.392 . S
C299 C243 1.419 . S
C299 H281 0.948 . S
C300 C301 1.391 . S
C300 C304 1.391 . S
C300 H342 0.948 . S
C301 C300 1.391 . S
C301 C302 1.391 . S
C302 C301 1.391 . S
C302 H358 0.947 . S
C302 C359 1.392 . S
C303 C304 1.391 . S
C303 C307 1.397 . S
C303 C359 1.419 . S
C304 C300 1.391 . S
C304 C303 1.391 . S
C304 C305 1.399 . S
C305 C304 1.399 . S
C305 C308 1.396 . S
C305 C317 1.453 . S
C305 C318 1.684 . S
H306 C330 0.948 . S
C307 C303 1.397 . S
C307 C308 1.394 . S
C307 C326 1.723 . S
C308 C305 1.396 . S
C308 C307 1.394 . S
C308 C338 1.723 . S
H309 C332 0.947 . S
H310 C333 0.948 . S
H311 C339 0.982 . S
H312 C340 0.979 . S
H313 C340 0.980 . S
H314 C340 0.983 . S
H315 C339 0.979 . S
H316 C339 0.977 . S
C317 C305 1.453 . S
C317 H346 0.982 . S
C317 H347 0.979 . S
C317 H348 0.977 . S
C318 C305 1.684 . S
C318 H343 0.979 . S
C318 H344 0.980 . S
C318 H345 0.983 . S
C319 C320 1.391 . S
C319 C324 1.391 . S
C319 H349 0.948 . S
C320 C319 1.391 . S
C320 C321 1.391 . S
C321 C320 1.391 . S
C321 C322 1.392 . S
C321 H350 0.947 . S
C322 C321 1.392 . S
C322 C323 1.419 . S
C322 H351 0.948 . S
C323 C322 1.419 . S
C323 C324 1.391 . S
C323 C327 1.397 . S
C324 C319 1.391 . S
C324 C323 1.391 . S
C324 C325 1.399 . S
C325 C324 1.399 . S
C325 C326 1.396 . S
C325 C328 1.453 . S
C325 C329 1.684 . S
C326 C307 1.723 . S
C326 C325 1.396 . S
C326 C327 1.394 . S
C327 C323 1.397 . S
C327 C326 1.394 . S
C327 C337 1.723 . S
C328 C325 1.453 . S
C328 H352 0.982 . S
C328 H353 0.979 . S
C328 H354 0.977 . S
C329 C325 1.684 . S
C329 H355 0.979 . S
C329 H356 0.980 . S
C329 H357 0.983 . S
C330 H306 0.948 . S
C330 C331 1.391 . S
C330 C335 1.391 . S
C331 C330 1.391 . S
C331 C332 1.391 . S
C332 H309 0.947 . S
C332 C331 1.391 . S
C332 C333 1.392 . S
C333 H310 0.948 . S
C333 C332 1.392 . S
C333 C334 1.419 . S
C334 C333 1.419 . S
C334 C335 1.391 . S
C334 C338 1.397 . S
C335 C330 1.391 . S
C335 C334 1.391 . S
C335 C336 1.399 . S
C336 C335 1.399 . S
C336 C337 1.396 . S
C336 C339 1.453 . S
C336 C340 1.684 . S
C337 C327 1.723 . S
C337 C336 1.396 . S
C337 C338 1.394 . S
C338 C308 1.723 . S
C338 C334 1.397 . S
C338 C337 1.394 . S
C339 H311 0.982 . S
C339 H315 0.979 . S
C339 H316 0.977 . S
C339 C336 1.453 . S
C340 H312 0.979 . S
C340 H313 0.980 . S
C340 H314 0.983 . S
C340 C336 1.684 . S
H341 C359 0.948 . S
H342 C300 0.948 . S
H343 C318 0.979 . S
H344 C318 0.980 . S
H345 C318 0.983 . S
H346 C317 0.982 . S
H347 C317 0.979 . S
H348 C317 0.977 . S
H349 C319 0.948 . S
H350 C321 0.947 . S
H351 C322 0.948 . S
H352 C328 0.982 . S
H353 C328 0.979 . S
H354 C328 0.977 . S
H355 C329 0.979 . S
H356 C329 0.980 . S
H357 C329 0.983 . S
H358 C302 0.947 . S
C359 C302 1.392 . S
C359 C303 1.419 . S
C359 H341 0.948 . S
C360 C361 1.391 . S
C360 C364 1.391 . S
C360 H402 0.948 . S
C361 C360 1.391 . S
C361 C362 1.391 . S
C362 C361 1.391 . S
C362 H418 0.947 . S
C362 C419 1.392 . S
C363 C364 1.391 . S
C363 C367 1.397 . S
C363 C419 1.419 . S
C364 C360 1.391 . S
C364 C363 1.391 . S
C364 C365 1.399 . S
C365 C364 1.399 . S
C365 C368 1.396 . S
C365 C377 1.453 . S
C365 C378 1.684 . S
H366 C390 0.948 . S
C367 C363 1.397 . S
C367 C368 1.394 . S
C367 C386 1.723 . S
C368 C365 1.396 . S
C368 C367 1.394 . S
C368 C398 1.723 . S
H369 C392 0.947 . S
H370 C393 0.948 . S
H371 C399 0.982 . S
H372 C400 0.979 . S
H373 C400 0.980 . S
H374 C400 0.983 . S
H375 C399 0.979 . S
H376 C399 0.977 . S
C377 C365 1.453 . S
C377 H406 0.982 . S
C377 H407 0.979 . S
C377 H408 0.977 . S
C378 C365 1.684 . S
C378 H403 0.979 . S
C378 H404 0.980 . S
C378 H405 0.983 . S
C379 C380 1.391 . S
C379 C384 1.391 . S
C379 H409 0.948 . S
C380 C379 1.391 . S
C380 C381 1.391 . S
C381 C380 1.391 . S
C381 C382 1.392 . S
C381 H410 0.947 . S
C382 C381 1.392 . S
C382 C383 1.419 . S
C382 H411 0.948 . S
C383 C382 1.419 . S
C383 C384 1.391 . S
C383 C387 1.397 . S
C384 C379 1.391 . S
C384 C383 1.391 . S
C384 C385 1.399 . S
C385 C384 1.399 . S
C385 C386 1.396 . S
C385 C388 1.453 . S
C385 C389 1.684 . S
C386 C367 1.723 . S
C386 C385 1.396 . S
C386 C387 1.394 . S
C387 C383 1.397 . S
C387 C386 1.394 . S
C387 C397 1.723 . S
C388 C385 1.453 . S
C388 H412 0.982 . S
C388 H413 0.979 . S
C388 H414 0.977 . S
C389 C385 1.684 . S
C389 H415 0.979 . S
C389 H416 0.980 . S
C389 H417 0.983 . S
C390 H366 0.948 . S
C390 C391 1.391 . S
C390 C395 1.391 . S
C391 C390 1.391 . S
C391 C392 1.391 . S
C392 H369 0.947 . S
C392 C391 1.391 . S
C392 C393 1.392 . S
C393 H370 0.948 . S
C393 C392 1.392 . S
C393 C394 1.419 . S
C394 C393 1.419 . S
C394 C395 1.391 . S
C394 C398 1.397 . S
C395 C390 1.391 . S
C395 C394 1.391 . S
C395 C396 1.399 . S
C396 C395 1.399 . S
C396 C397 1.396 . S
C396 C399 1.453 . S
C396 C400 1.684 . S
C397 C387 1.723 . S
C397 C396 1.396 . S
C397 C398 1.394 . S
C398 C368 1.723 . S
C398 C394 1.397 . S
C398 C397 1.394 . S
C399 H371 0.982 . S
C399 H375 0.979 . S
C399 H376 0.977 . S
C399 C396 1.453 . S
C400 H372 0.979 . S
C400 H373 0.980 . S
C400 H374 0.983 . S
C400 C396 1.684 . S
H401 C419 0.948 . S
H402 C360 0.948 . S
H403 C378 0.979 . S
H404 C378 0.980 . S
H405 C378 0.983 . S
H406 C377 0.982 . S
H407 C377 0.979 . S
H408 C377 0.977 . S
H409 C379 0.948 . S
H410 C381 0.947 . S
H411 C382 0.948 . S
H412 C388 0.982 . S
H413 C388 0.979 . S
H414 C388 0.977 . S
H415 C389 0.979 . S
H416 C389 0.980 . S
H417 C389 0.983 . S
H418 C362 0.947 . S
C419 C362 1.392 . S
C419 C363 1.419 . S
C419 H401 0.948 . S
C420 C421 1.391 . S
C420 C424 1.391 . S
C420 H462 0.948 . S
C421 C420 1.391 . S
C421 C422 1.391 . S
C422 C421 1.391 . S
C422 H478 0.947 . S
C422 C479 1.392 . S
C423 C424 1.391 . S
C423 C427 1.397 . S
C423 C479 1.419 . S
C424 C420 1.391 . S
C424 C423 1.391 . S
C424 C425 1.399 . S
C425 C424 1.399 . S
C425 C428 1.396 . S
C425 C437 1.453 . S
C425 C438 1.684 . S
H426 C450 0.948 . S
C427 C423 1.397 . S
C427 C428 1.394 . S
C427 C446 1.723 . S
C428 C425 1.396 . S
C428 C427 1.394 . S
C428 C458 1.723 . S
H429 C452 0.947 . S
H430 C453 0.948 . S
H431 C459 0.982 . S
H432 C460 0.979 . S
H433 C460 0.980 . S
H434 C460 0.983 . S
H435 C459 0.979 . S
H436 C459 0.977 . S
C437 C425 1.453 . S
C437 H466 0.982 . S
C437 H467 0.979 . S
C437 H468 0.977 . S
C438 C425 1.684 . S
C438 H463 0.979 . S
C438 H464 0.980 . S
C438 H465 0.983 . S
C439 C440 1.391 . S
C439 C444 1.391 . S
C439 H469 0.948 . S
C440 C439 1.391 . S
C440 C441 1.391 . S
C441 C440 1.391 . S
C441 C442 1.392 . S
C441 H470 0.947 . S
C442 C441 1.392 . S
C442 C443 1.419 . S
C442 H471 0.948 . S
C443 C442 1.419 . S
C443 C444 1.391 . S
C443 C447 1.397 . S
C444 C439 1.391 . S
C444 C443 1.391 . S
C444 C445 1.399 . S
C445 C444 1.399 . S
C445 C446 1.396 . S
C445 C448 1.453 . S
C445 C449 1.684 . S
C446 C427 1.723 . S
C446 C445 1.396 . S
C446 C447 1.394 . S
C447 C443 1.397 . S
C447 C446 1.394 . S
C447 C457 1.723 . S
C448 C445 1.453 . S
C448 H472 0.982 . S
C448 H473 0.979 . S
C448 H474 0.977 . S
C449 C445 1.684 . S
C449 H475 0.979 . S
C449 H476 0.980 . S
C449 H477 0.983 . S
C450 H426 0.948 . S
C450 C451 1.391 . S
C450 C455 1.391 . S
C451 C450 1.391 . S
C451 C452 1.391 . S
C452 H429 0.947 . S
C452 C451 1.391 . S
C452 C453 1.392 . S
C453 H430 0.948 . S
C453 C452 1.392 . S
C453 C454 1.419 . S
C454 C453 1.419 . S
C454 C455 1.391 . S
C454 C458 1.397 . S
C455 C450 1.391 . S
C455 C454 1.391 . S
C455 C456 1.399 . S
C456 C455 1.399 . S
C456 C457 1.396 . S
C456 C459 1.453 . S
C456 C460 1.684 . S
C457 C447 1.723 . S
C457 C456 1.396 . S
C457 C458 1.394 . S
C458 C428 1.723 . S
C458 C454 1.397 . S
C458 C457 1.394 . S
C459 H431 0.982 . S
C459 H435 0.979 . S
C459 H436 0.977 . S
C459 C456 1.453 . S
C460 H432 0.979 . S
C460 H433 0.980 . S
C460 H434 0.983 . S
C460 C456 1.684 . S
H461 C479 0.948 . S
H462 C420 0.948 . S
H463 C438 0.979 . S
H464 C438 0.980 . S
H465 C438 0.983 . S
H466 C437 0.982 . S
H467 C437 0.979 . S
H468 C437 0.977 . S
H469 C439 0.948 . S
H470 C441 0.947 . S
H471 C442 0.948 . S
H472 C448 0.982 . S
H473 C448 0.979 . S
H474 C448 0.977 . S
H475 C449 0.979 . S
H476 C449 0.980 . S
H477 C449 0.983 . S
H478 C422 0.947 . S
C479 C422 1.392 . S
C479 C423 1.419 . S
C479 H461 0.948 . S
C480 C482 1.422 . S
C480 C484 1.415 . S
C480 N486 1.369 . S
C481 C482 1.421 . S
C481 C483 1.417 . S
C481 C493 1.422 . S
C482 C480 1.422 . S
C482 C481 1.421 . S
C482 N492 1.359 . S
C483 C481 1.417 . S
C483 C485 1.329 . S
C483 H502 0.930 . S
C484 C480 1.415 . S
C484 C485 1.437 . S
C484 C488 1.413 . S
C485 C483 1.329 . S
C485 C484 1.437 . S
C485 H507 0.929 . S
N486 C480 1.369 . S
N486 C487 1.338 . S
N486 Gd491 2.622 . S
C487 N486 1.338 . S
C487 C489 1.378 . S
C487 H499 0.929 . S
C488 C484 1.413 . S
C488 C489 1.348 . S
C488 H504 0.931 . S
C489 C487 1.378 . S
C489 C488 1.348 . S
C489 H505 0.930 . S
Gd490 N510 2.622 . S
Gd490 N517 2.570 . S
Gd490 O524 2.353 . S
Gd490 O525 2.468 . S
Gd490 O526 2.427 . S
Gd490 O528 2.388 . S
Gd490 O529 2.386 . S
Gd490 O533 2.307 . S
Gd490 C543 2.805 . S
Gd491 N486 2.622 . S
Gd491 N492 2.570 . S
Gd491 O523 2.386 . S
Gd491 O527 2.307 1_655 S
Gd491 O530 2.353 1_655 S
Gd491 O531 2.468 . S
Gd491 O532 2.427 . S
Gd491 O534 2.388 . S
Gd491 C555 2.805 . S
N492 C482 1.359 . S
N492 Gd491 2.570 . S
N492 C494 1.343 . S
C493 C481 1.422 . S
C493 C495 1.321 . S
C493 H501 0.931 . S
C494 N492 1.343 . S
C494 C495 1.390 . S
C494 H496 0.931 . S
C495 C493 1.321 . S
C495 C494 1.390 . S
C495 H497 0.930 . S
H496 C494 0.931 . S
H497 C495 0.930 . S
H498 C521 0.931 . S
H499 C487 0.929 . S
H500 C522 0.930 . S
H501 C493 0.931 . S
H502 C483 0.930 . S
H503 C512 0.929 . S
H504 C488 0.931 . S
H505 C489 0.930 . S
H506 C544 0.930 . S
H507 C485 0.929 . S
H508 C513 0.931 . S
H509 C514 0.930 . S
N510 Gd490 2.622 . S
N510 C511 1.369 . S
N510 C512 1.338 . S
C511 N510 1.369 . S
C511 C515 1.415 . S
C511 C518 1.422 . S
C512 H503 0.929 . S
C512 N510 1.338 . S
C512 C514 1.378 . S
C513 H508 0.931 . S
C513 C514 1.348 . S
C513 C515 1.413 . S
C514 H509 0.930 . S
C514 C512 1.378 . S
C514 C513 1.348 . S
C515 C511 1.415 . S
C515 C513 1.413 . S
C515 C545 1.437 . S
H516 C545 0.929 . S
N517 Gd490 2.570 . S
N517 C518 1.359 . S
N517 C521 1.343 . S
C518 C511 1.422 . S
C518 N517 1.359 . S
C518 C520 1.421 . S
C519 C520 1.422 . S
C519 C522 1.321 . S
C519 H546 0.931 . S
C520 C518 1.421 . S
C520 C519 1.422 . S
C520 C544 1.417 . S
C521 H498 0.931 . S
C521 N517 1.343 . S
C521 C522 1.390 . S
C522 H500 0.930 . S
C522 C519 1.321 . S
C522 C521 1.390 . S
O523 Gd491 2.386 . S
O523 C535 1.265 . S
O524 Gd490 2.353 . S
O524 C535 1.242 1_455 S
O525 Gd490 2.468 . S
O525 C543 1.263 . S
O526 Gd490 2.427 . S
O526 C543 1.252 . S
O527 Gd491 2.307 1_455 S
O527 C536 1.261 . S
O528 Gd490 2.388 . S
O528 C536 1.252 . S
O529 Gd490 2.386 . S
O529 C547 1.265 . S
O530 Gd491 2.353 1_455 S
O530 C547 1.242 . S
O531 Gd491 2.468 . S
O531 C555 1.263 . S
O532 Gd491 2.427 . S
O532 C555 1.252 . S
O533 Gd490 2.307 . S
O533 C548 1.261 1_455 S
O534 Gd491 2.388 . S
O534 C548 1.252 . S
C535 O523 1.265 . S
C535 O524 1.242 1_655 S
C536 O527 1.261 . S
C536 O528 1.252 . S
C537 C540 1.394 . S
C537 C542 1.370 . S
C537 C543 1.500 . S
C538 C541 1.383 . S
C538 C542 1.395 . S
C539 C540 1.396 . S
C539 C541 1.365 . S
C539 H556 0.929 . S
C540 C537 1.394 . S
C540 C539 1.396 . S
C540 H557 0.930 . S
C541 C538 1.383 . S
C541 C539 1.365 . S
C541 H558 0.931 . S
C542 C537 1.370 . S
C542 C538 1.395 . S
C542 H559 0.930 . S
C543 Gd490 2.805 . S
C543 O525 1.263 . S
C543 O526 1.252 . S
C543 C537 1.500 . S
C544 H506 0.930 . S
C544 C520 1.417 . S
C544 C545 1.329 . S
C545 C515 1.437 . S
C545 H516 0.929 . S
C545 C544 1.329 . S
H546 C519 0.931 . S
C547 O529 1.265 . S
C547 O530 1.242 . S
C548 O533 1.261 1_655 S
C548 O534 1.252 . S
C549 C552 1.394 . S
C549 C554 1.370 . S
C549 C555 1.500 . S
C550 C553 1.383 . S
C550 C554 1.395 . S
C551 C552 1.396 . S
C551 C553 1.365 . S
C551 H560 0.929 . S
C552 C549 1.394 . S
C552 C551 1.396 . S
C552 H561 0.930 . S
C553 C550 1.383 . S
C553 C551 1.365 . S
C553 H562 0.931 . S
C554 C549 1.370 . S
C554 C550 1.395 . S
C554 H563 0.930 . S
C555 Gd491 2.805 . S
C555 O531 1.263 . S
C555 O532 1.252 . S
C555 C549 1.500 . S
H556 C539 0.929 . S
H557 C540 0.930 . S
H558 C541 0.931 . S
H559 C542 0.930 . S
H560 C551 0.929 . S
H561 C552 0.930 . S
H562 C553 0.931 . S
H563 C554 0.930 . S
C564 C566 1.422 . S
C564 C568 1.415 . S
C564 N570 1.369 . S
C565 C566 1.421 . S
C565 C567 1.417 . S
C565 C577 1.422 . S
C566 C564 1.422 . S
C566 C565 1.421 . S
C566 N576 1.359 . S
C567 C565 1.417 . S
C567 C569 1.329 . S
C567 H586 0.930 . S
C568 C564 1.415 . S
C568 C569 1.437 . S
C568 C572 1.413 . S
C569 C567 1.329 . S
C569 C568 1.437 . S
C569 H591 0.929 . S
N570 C564 1.369 . S
N570 C571 1.338 . S
N570 Gd575 2.622 . S
C571 N570 1.338 . S
C571 C573 1.378 . S
C571 H583 0.929 . S
C572 C568 1.413 . S
C572 C573 1.348 . S
C572 H588 0.931 . S
C573 C571 1.378 . S
C573 C572 1.348 . S
C573 H589 0.930 . S
Gd574 N594 2.622 . S
Gd574 N601 2.570 . S
Gd574 O608 2.353 . S
Gd574 O609 2.468 . S
Gd574 O610 2.427 . S
Gd574 O612 2.388 . S
Gd574 O613 2.386 . S
Gd574 O617 2.307 . S
Gd574 C627 2.805 . S
Gd575 N570 2.622 . S
Gd575 N576 2.570 . S
Gd575 O607 2.386 . S
Gd575 O611 2.307 . S
Gd575 O614 2.353 . S
Gd575 O615 2.468 . S
Gd575 O616 2.427 . S
Gd575 O618 2.388 . S
Gd575 C639 2.805 . S
N576 C566 1.359 . S
N576 Gd575 2.570 . S
N576 C578 1.343 . S
C577 C565 1.422 . S
C577 C579 1.321 . S
C577 H585 0.931 . S
C578 N576 1.343 . S
C578 C579 1.390 . S
C578 H580 0.931 . S
C579 C577 1.321 . S
C579 C578 1.390 . S
C579 H581 0.930 . S
H580 C578 0.931 . S
H581 C579 0.930 . S
H582 C605 0.931 . S
H583 C571 0.929 . S
H584 C606 0.930 . S
H585 C577 0.931 . S
H586 C567 0.930 . S
H587 C596 0.929 . S
H588 C572 0.931 . S
H589 C573 0.930 . S
H590 C628 0.930 . S
H591 C569 0.929 . S
H592 C597 0.931 . S
H593 C598 0.930 . S
N594 Gd574 2.622 . S
N594 C595 1.369 . S
N594 C596 1.338 . S
C595 N594 1.369 . S
C595 C599 1.415 . S
C595 C602 1.422 . S
C596 H587 0.929 . S
C596 N594 1.338 . S
C596 C598 1.378 . S
C597 H592 0.931 . S
C597 C598 1.348 . S
C597 C599 1.413 . S
C598 H593 0.930 . S
C598 C596 1.378 . S
C598 C597 1.348 . S
C599 C595 1.415 . S
C599 C597 1.413 . S
C599 C629 1.437 . S
H600 C629 0.929 . S
N601 Gd574 2.570 . S
N601 C602 1.359 . S
N601 C605 1.343 . S
C602 C595 1.422 . S
C602 N601 1.359 . S
C602 C604 1.421 . S
C603 C604 1.422 . S
C603 C606 1.321 . S
C603 H630 0.931 . S
C604 C602 1.421 . S
C604 C603 1.422 . S
C604 C628 1.417 . S
C605 H582 0.931 . S
C605 N601 1.343 . S
C605 C606 1.390 . S
C606 H584 0.930 . S
C606 C603 1.321 . S
C606 C605 1.390 . S
O607 Gd575 2.386 . S
O607 C619 1.265 . S
O608 Gd574 2.353 . S
O608 C619 1.242 . S
O609 Gd574 2.468 . S
O609 C627 1.263 . S
O610 Gd574 2.427 . S
O610 C627 1.252 . S
O611 Gd575 2.307 . S
O611 C620 1.261 . S
O612 Gd574 2.388 . S
O612 C620 1.252 . S
O613 Gd574 2.386 . S
O613 C631 1.265 . S
O614 Gd575 2.353 . S
O614 C631 1.242 . S
O615 Gd575 2.468 . S
O615 C639 1.263 . S
O616 Gd575 2.427 . S
O616 C639 1.252 . S
O617 Gd574 2.307 . S
O617 C632 1.261 . S
O618 Gd575 2.388 . S
O618 C632 1.252 . S
C619 O607 1.265 . S
C619 O608 1.242 . S
C620 O611 1.261 . S
C620 O612 1.252 . S
C621 C624 1.394 . S
C621 C626 1.370 . S
C621 C627 1.500 . S
C622 C625 1.383 . S
C622 C626 1.395 . S
C623 C624 1.396 . S
C623 C625 1.365 . S
C623 H640 0.929 . S
C624 C621 1.394 . S
C624 C623 1.396 . S
C624 H641 0.930 . S
C625 C622 1.383 . S
C625 C623 1.365 . S
C625 H642 0.931 . S
C626 C621 1.370 . S
C626 C622 1.395 . S
C626 H643 0.930 . S
C627 Gd574 2.805 . S
C627 O609 1.263 . S
C627 O610 1.252 . S
C627 C621 1.500 . S
C628 H590 0.930 . S
C628 C604 1.417 . S
C628 C629 1.329 . S
C629 C599 1.437 . S
C629 H600 0.929 . S
C629 C628 1.329 . S
H630 C603 0.931 . S
C631 O613 1.265 . S
C631 O614 1.242 . S
C632 O617 1.261 . S
C632 O618 1.252 . S
C633 C636 1.394 . S
C633 C638 1.370 . S
C633 C639 1.500 . S
C634 C637 1.383 . S
C634 C638 1.395 . S
C635 C636 1.396 . S
C635 C637 1.365 . S
C635 H644 0.929 . S
C636 C633 1.394 . S
C636 C635 1.396 . S
C636 H645 0.930 . S
C637 C634 1.383 . S
C637 C635 1.365 . S
C637 H646 0.931 . S
C638 C633 1.370 . S
C638 C634 1.395 . S
C638 H647 0.930 . S
C639 Gd575 2.805 . S
C639 O615 1.263 . S
C639 O616 1.252 . S
C639 C633 1.500 . S
H640 C623 0.929 . S
H641 C624 0.930 . S
H642 C625 0.931 . S
H643 C626 0.930 . S
H644 C635 0.929 . S
H645 C636 0.930 . S
H646 C637 0.931 . S
H647 C638 0.930 . S
C648 C650 1.422 . S
C648 C652 1.415 . S
C648 N654 1.369 . S
C649 C650 1.421 . S
C649 C651 1.417 . S
C649 C661 1.422 . S
C650 C648 1.422 . S
C650 C649 1.421 . S
C650 N660 1.359 . S
C651 C649 1.417 . S
C651 C653 1.329 . S
C651 H670 0.930 . S
C652 C648 1.415 . S
C652 C653 1.437 . S
C652 C656 1.413 . S
C653 C651 1.329 . S
C653 C652 1.437 . S
C653 H675 0.929 . S
N654 C648 1.369 . S
N654 C655 1.338 . S
N654 Gd659 2.622 . S
C655 N654 1.338 . S
C655 C657 1.378 . S
C655 H667 0.929 . S
C656 C652 1.413 . S
C656 C657 1.348 . S
C656 H672 0.931 . S
C657 C655 1.378 . S
C657 C656 1.348 . S
C657 H673 0.930 . S
Gd658 N678 2.622 . S
Gd658 N685 2.570 . S
Gd658 O692 2.353 . S
Gd658 O693 2.468 . S
Gd658 O694 2.427 . S
Gd658 O696 2.388 . S
Gd658 O697 2.386 . S
Gd658 O701 2.307 . S
Gd658 C711 2.805 . S
Gd659 N654 2.622 . S
Gd659 N660 2.570 . S
Gd659 O691 2.386 . S
Gd659 O695 2.307 1_655 S
Gd659 O698 2.353 1_655 S
Gd659 O699 2.468 . S
Gd659 O700 2.427 . S
Gd659 O702 2.388 . S
Gd659 C723 2.805 . S
N660 C650 1.359 . S
N660 Gd659 2.570 . S
N660 C662 1.343 . S
C661 C649 1.422 . S
C661 C663 1.321 . S
C661 H669 0.931 . S
C662 N660 1.343 . S
C662 C663 1.390 . S
C662 H664 0.931 . S
C663 C661 1.321 . S
C663 C662 1.390 . S
C663 H665 0.930 . S
H664 C662 0.931 . S
H665 C663 0.930 . S
H666 C689 0.931 . S
H667 C655 0.929 . S
H668 C690 0.930 . S
H669 C661 0.931 . S
H670 C651 0.930 . S
H671 C680 0.929 . S
H672 C656 0.931 . S
H673 C657 0.930 . S
H674 C712 0.930 . S
H675 C653 0.929 . S
H676 C681 0.931 . S
H677 C682 0.930 . S
N678 Gd658 2.622 . S
N678 C679 1.369 . S
N678 C680 1.338 . S
C679 N678 1.369 . S
C679 C683 1.415 . S
C679 C686 1.422 . S
C680 H671 0.929 . S
C680 N678 1.338 . S
C680 C682 1.378 . S
C681 H676 0.931 . S
C681 C682 1.348 . S
C681 C683 1.413 . S
C682 H677 0.930 . S
C682 C680 1.378 . S
C682 C681 1.348 . S
C683 C679 1.415 . S
C683 C681 1.413 . S
C683 C713 1.437 . S
H684 C713 0.929 . S
N685 Gd658 2.570 . S
N685 C686 1.359 . S
N685 C689 1.343 . S
C686 C679 1.422 . S
C686 N685 1.359 . S
C686 C688 1.421 . S
C687 C688 1.422 . S
C687 C690 1.321 . S
C687 H714 0.931 . S
C688 C686 1.421 . S
C688 C687 1.422 . S
C688 C712 1.417 . S
C689 H666 0.931 . S
C689 N685 1.343 . S
C689 C690 1.390 . S
C690 H668 0.930 . S
C690 C687 1.321 . S
C690 C689 1.390 . S
O691 Gd659 2.386 . S
O691 C703 1.265 . S
O692 Gd658 2.353 . S
O692 C703 1.242 1_455 S
O693 Gd658 2.468 . S
O693 C711 1.263 . S
O694 Gd658 2.427 . S
O694 C711 1.252 . S
O695 Gd659 2.307 1_455 S
O695 C704 1.261 . S
O696 Gd658 2.388 . S
O696 C704 1.252 . S
O697 Gd658 2.386 . S
O697 C715 1.265 . S
O698 Gd659 2.353 1_455 S
O698 C715 1.242 . S
O699 Gd659 2.468 . S
O699 C723 1.263 . S
O700 Gd659 2.427 . S
O700 C723 1.252 . S
O701 Gd658 2.307 . S
O701 C716 1.261 1_455 S
O702 Gd659 2.388 . S
O702 C716 1.252 . S
C703 O691 1.265 . S
C703 O692 1.242 1_655 S
C704 O695 1.261 . S
C704 O696 1.252 . S
C705 C708 1.394 . S
C705 C710 1.370 . S
C705 C711 1.500 . S
C706 C709 1.383 . S
C706 C710 1.395 . S
C707 C708 1.396 . S
C707 C709 1.365 . S
C707 H724 0.929 . S
C708 C705 1.394 . S
C708 C707 1.396 . S
C708 H725 0.930 . S
C709 C706 1.383 . S
C709 C707 1.365 . S
C709 H726 0.931 . S
C710 C705 1.370 . S
C710 C706 1.395 . S
C710 H727 0.930 . S
C711 Gd658 2.805 . S
C711 O693 1.263 . S
C711 O694 1.252 . S
C711 C705 1.500 . S
C712 H674 0.930 . S
C712 C688 1.417 . S
C712 C713 1.329 . S
C713 C683 1.437 . S
C713 H684 0.929 . S
C713 C712 1.329 . S
H714 C687 0.931 . S
C715 O697 1.265 . S
C715 O698 1.242 . S
C716 O701 1.261 1_655 S
C716 O702 1.252 . S
C717 C720 1.394 . S
C717 C722 1.370 . S
C717 C723 1.500 . S
C718 C721 1.383 . S
C718 C722 1.395 . S
C719 C720 1.396 . S
C719 C721 1.365 . S
C719 H728 0.929 . S
C720 C717 1.394 . S
C720 C719 1.396 . S
C720 H729 0.930 . S
C721 C718 1.383 . S
C721 C719 1.365 . S
C721 H730 0.931 . S
C722 C717 1.370 . S
C722 C718 1.395 . S
C722 H731 0.930 . S
C723 Gd659 2.805 . S
C723 O699 1.263 . S
C723 O700 1.252 . S
C723 C717 1.500 . S
H724 C707 0.929 . S
H725 C708 0.930 . S
H726 C709 0.931 . S
H727 C710 0.930 . S
H728 C719 0.929 . S
H729 C720 0.930 . S
H730 C721 0.931 . S
H731 C722 0.930 . S
C732 C734 1.422 . S
C732 C736 1.415 . S
C732 N738 1.369 . S
C733 C734 1.421 . S
C733 C735 1.417 . S
C733 C745 1.422 . S
C734 C732 1.422 . S
C734 C733 1.421 . S
C734 N744 1.359 . S
C735 C733 1.417 . S
C735 C737 1.329 . S
C735 H754 0.930 . S
C736 C732 1.415 . S
C736 C737 1.437 . S
C736 C740 1.413 . S
C737 C735 1.329 . S
C737 C736 1.437 . S
C737 H759 0.929 . S
N738 C732 1.369 . S
N738 C739 1.338 . S
N738 Gd743 2.622 . S
C739 N738 1.338 . S
C739 C741 1.378 . S
C739 H751 0.929 . S
C740 C736 1.413 . S
C740 C741 1.348 . S
C740 H756 0.931 . S
C741 C739 1.378 . S
C741 C740 1.348 . S
C741 H757 0.930 . S
Gd742 N762 2.622 . S
Gd742 N769 2.570 . S
Gd742 O776 2.353 . S
Gd742 O777 2.468 . S
Gd742 O778 2.427 . S
Gd742 O780 2.388 . S
Gd742 O781 2.386 . S
Gd742 O785 2.307 . S
Gd742 C795 2.805 . S
Gd743 N738 2.622 . S
Gd743 N744 2.570 . S
Gd743 O775 2.386 . S
Gd743 O779 2.307 . S
Gd743 O782 2.353 . S
Gd743 O783 2.468 . S
Gd743 O784 2.427 . S
Gd743 O786 2.388 . S
Gd743 C807 2.805 . S
N744 C734 1.359 . S
N744 Gd743 2.570 . S
N744 C746 1.343 . S
C745 C733 1.422 . S
C745 C747 1.321 . S
C745 H753 0.931 . S
C746 N744 1.343 . S
C746 C747 1.390 . S
C746 H748 0.931 . S
C747 C745 1.321 . S
C747 C746 1.390 . S
C747 H749 0.930 . S
H748 C746 0.931 . S
H749 C747 0.930 . S
H750 C773 0.931 . S
H751 C739 0.929 . S
H752 C774 0.930 . S
H753 C745 0.931 . S
H754 C735 0.930 . S
H755 C764 0.929 . S
H756 C740 0.931 . S
H757 C741 0.930 . S
H758 C796 0.930 . S
H759 C737 0.929 . S
H760 C765 0.931 . S
H761 C766 0.930 . S
N762 Gd742 2.622 . S
N762 C763 1.369 . S
N762 C764 1.338 . S
C763 N762 1.369 . S
C763 C767 1.415 . S
C763 C770 1.422 . S
C764 H755 0.929 . S
C764 N762 1.338 . S
C764 C766 1.378 . S
C765 H760 0.931 . S
C765 C766 1.348 . S
C765 C767 1.413 . S
C766 H761 0.930 . S
C766 C764 1.378 . S
C766 C765 1.348 . S
C767 C763 1.415 . S
C767 C765 1.413 . S
C767 C797 1.437 . S
H768 C797 0.929 . S
N769 Gd742 2.570 . S
N769 C770 1.359 . S
N769 C773 1.343 . S
C770 C763 1.422 . S
C770 N769 1.359 . S
C770 C772 1.421 . S
C771 C772 1.422 . S
C771 C774 1.321 . S
C771 H798 0.931 . S
C772 C770 1.421 . S
C772 C771 1.422 . S
C772 C796 1.417 . S
C773 H750 0.931 . S
C773 N769 1.343 . S
C773 C774 1.390 . S
C774 H752 0.930 . S
C774 C771 1.321 . S
C774 C773 1.390 . S
O775 Gd743 2.386 . S
O775 C787 1.265 . S
O776 Gd742 2.353 . S
O776 C787 1.242 . S
O777 Gd742 2.468 . S
O777 C795 1.263 . S
O778 Gd742 2.427 . S
O778 C795 1.252 . S
O779 Gd743 2.307 . S
O779 C788 1.261 . S
O780 Gd742 2.388 . S
O780 C788 1.252 . S
O781 Gd742 2.386 . S
O781 C799 1.265 . S
O782 Gd743 2.353 . S
O782 C799 1.242 . S
O783 Gd743 2.468 . S
O783 C807 1.263 . S
O784 Gd743 2.427 . S
O784 C807 1.252 . S
O785 Gd742 2.307 . S
O785 C800 1.261 . S
O786 Gd743 2.388 . S
O786 C800 1.252 . S
C787 O775 1.265 . S
C787 O776 1.242 . S
C788 O779 1.261 . S
C788 O780 1.252 . S
C789 C792 1.394 . S
C789 C794 1.370 . S
C789 C795 1.500 . S
C790 C793 1.383 . S
C790 C794 1.395 . S
C791 C792 1.396 . S
C791 C793 1.365 . S
C791 H808 0.929 . S
C792 C789 1.394 . S
C792 C791 1.396 . S
C792 H809 0.930 . S
C793 C790 1.383 . S
C793 C791 1.365 . S
C793 H810 0.931 . S
C794 C789 1.370 . S
C794 C790 1.395 . S
C794 H811 0.930 . S
C795 Gd742 2.805 . S
C795 O777 1.263 . S
C795 O778 1.252 . S
C795 C789 1.500 . S
C796 H758 0.930 . S
C796 C772 1.417 . S
C796 C797 1.329 . S
C797 C767 1.437 . S
C797 H768 0.929 . S
C797 C796 1.329 . S
H798 C771 0.931 . S
C799 O781 1.265 . S
C799 O782 1.242 . S
C800 O785 1.261 . S
C800 O786 1.252 . S
C801 C804 1.394 . S
C801 C806 1.370 . S
C801 C807 1.500 . S
C802 C805 1.383 . S
C802 C806 1.395 . S
C803 C804 1.396 . S
C803 C805 1.365 . S
C803 H812 0.929 . S
C804 C801 1.394 . S
C804 C803 1.396 . S
C804 H813 0.930 . S
C805 C802 1.383 . S
C805 C803 1.365 . S
C805 H814 0.931 . S
C806 C801 1.370 . S
C806 C802 1.395 . S
C806 H815 0.930 . S
C807 Gd743 2.805 . S
C807 O783 1.263 . S
C807 O784 1.252 . S
C807 C801 1.500 . S
H808 C791 0.929 . S
H809 C792 0.930 . S
H810 C793 0.931 . S
H811 C794 0.930 . S
H812 C803 0.929 . S
H813 C804 0.930 . S
H814 C805 0.931 . S
H815 C806 0.930 . S
C816 C817 1.349 . S
C816 C818 1.327 . S
C816 H841 0.950 . S
C817 C816 1.349 . S
C817 C833 1.349 . S
C818 C816 1.327 . S
C818 C837 1.424 1_565 S
C818 H842 0.940 1_565 S
C819 C836 1.574 . S
C819 C838 1.368 . S
C819 H843 0.949 . S
H820 C824 0.949 . S
C821 C822 1.349 . S
C821 C823 1.327 . S
C821 H844 0.950 . S
C822 C821 1.349 . S
C822 C834 1.349 . S
C823 C821 1.327 . S
C823 C839 1.429 . S
C823 H845 0.950 . S
C824 H820 0.949 . S
C824 C832 1.574 . S
C824 C840 1.368 . S
H825 C833 0.950 . S
H826 C831 0.950 . S
H827 C832 0.949 . S
H828 C834 0.950 . S
H829 C835 0.950 . S
H830 C836 0.949 . S
C831 H826 0.950 . S
C831 C833 1.327 . S
C831 C837 1.420 1_565 S
C832 C824 1.574 . S
C832 H827 0.949 . S
C832 C838 1.368 . S
C833 C817 1.349 . S
C833 H825 0.950 . S
C833 C831 1.327 . S
C834 C822 1.349 . S
C834 H828 0.950 . S
C834 C835 1.327 . S
C835 H829 0.950 . S
C835 C834 1.327 . S
C835 C839 1.429 . S
C836 C819 1.574 . S
C836 H830 0.949 . S
C836 C840 1.368 . S
C837 C818 1.424 1_545 S
C837 C831 1.420 1_545 S
C837 C838 1.535 . S
C838 C819 1.368 . S
C838 C832 1.368 . S
C838 C837 1.535 . S
C839 C823 1.429 . S
C839 C835 1.429 . S
C839 C840 1.523 . S
C840 C824 1.368 . S
C840 C836 1.368 . S
C840 C839 1.523 . S
H841 C816 0.950 . S
H842 C818 0.940 1_545 S
H843 C819 0.949 . S
H844 C821 0.950 . S
H845 C823 0.950 . S
C846 C847 1.349 . S
C846 C848 1.327 . S
C846 H871 0.950 . S
C847 C846 1.349 . S
C847 C863 1.349 . S
C848 C846 1.327 . S
C848 C867 1.429 . S
C848 H872 0.950 . S
C849 C866 1.574 . S
C849 C868 1.368 . S
C849 H873 0.949 . S
H850 C854 0.949 . S
C851 C852 1.349 . S
C851 C853 1.327 . S
C851 H874 0.950 . S
C852 C851 1.349 . S
C852 C864 1.349 . S
C853 C851 1.327 . S
C853 C869 1.429 . S
C853 H875 0.950 . S
C854 H850 0.949 . S
C854 C862 1.574 . S
C854 C870 1.368 . S
H855 C863 0.950 . S
H856 C861 0.950 . S
H857 C862 0.949 . S
H858 C864 0.950 . S
H859 C865 0.950 . S
H860 C866 0.949 . S
C861 H856 0.950 . S
C861 C863 1.327 . S
C861 C867 1.429 . S
C862 C854 1.574 . S
C862 H857 0.949 . S
C862 C868 1.368 . S
C863 C847 1.349 . S
C863 H855 0.950 . S
C863 C861 1.327 . S
C864 C852 1.349 . S
C864 H858 0.950 . S
C864 C865 1.327 . S
C865 H859 0.950 . S
C865 C864 1.327 . S
C865 C869 1.429 . S
C866 C849 1.574 . S
C866 H860 0.949 . S
C866 C870 1.368 . S
C867 C848 1.429 . S
C867 C861 1.429 . S
C867 C868 1.523 . S
C868 C849 1.368 . S
C868 C862 1.368 . S
C868 C867 1.523 . S
C869 C853 1.429 . S
C869 C865 1.429 . S
C869 C870 1.523 . S
C870 C854 1.368 . S
C870 C866 1.368 . S
C870 C869 1.523 . S
H871 C846 0.950 . S
H872 C848 0.950 . S
H873 C849 0.949 . S
H874 C851 0.950 . S
H875 C853 0.950 . S
C876 C877 1.349 . S
C876 C878 1.327 . S
C876 H901 0.950 . S
C877 C876 1.349 . S
C877 C893 1.349 . S
C878 C876 1.327 . S
C878 C897 1.429 . S
C878 H902 0.950 . S
C879 C896 1.574 . S
C879 C898 1.368 . S
C879 H903 0.949 . S
H880 C884 0.949 . S
C881 C882 1.349 . S
C881 C883 1.327 . S
C881 H904 0.950 . S
C882 C881 1.349 . S
C882 C894 1.349 . S
C883 C881 1.327 . S
C883 C899 1.429 . S
C883 H905 0.950 . S
C884 H880 0.949 . S
C884 C892 1.574 . S
C884 C900 1.368 . S
H885 C893 0.950 . S
H886 C891 0.950 . S
H887 C892 0.949 . S
H888 C894 0.950 . S
H889 C895 0.950 . S
H890 C896 0.949 . S
C891 H886 0.950 . S
C891 C893 1.327 . S
C891 C897 1.429 . S
C892 C884 1.574 . S
C892 H887 0.949 . S
C892 C898 1.368 . S
C893 C877 1.349 . S
C893 H885 0.950 . S
C893 C891 1.327 . S
C894 C882 1.349 . S
C894 H888 0.950 . S
C894 C895 1.327 . S
C895 H889 0.950 . S
C895 C894 1.327 . S
C895 C899 1.429 . S
C896 C879 1.574 . S
C896 H890 0.949 . S
C896 C900 1.368 . S
C897 C878 1.429 . S
C897 C891 1.429 . S
C897 C898 1.523 . S
C898 C879 1.368 . S
C898 C892 1.368 . S
C898 C897 1.523 . S
C899 C883 1.429 . S
C899 C895 1.429 . S
C899 C900 1.523 . S
C900 C884 1.368 . S
C900 C896 1.368 . S
C900 C899 1.523 . S
H901 C876 0.950 . S
H902 C878 0.950 . S
H903 C879 0.949 . S
H904 C881 0.950 . S
H905 C883 0.950 . S
C906 C907 1.349 . S
C906 C908 1.327 1_565 S
C906 H931 0.950 . S
C907 C906 1.349 . S
C907 C923 1.349 . S
C908 C906 1.327 1_545 S
C908 C927 1.429 . S
C908 H932 0.950 . S
C909 C926 1.574 . S
C909 C928 1.368 . S
C909 H933 0.949 1_545 S
H910 C914 0.949 . S
C911 C912 1.349 . S
C911 C913 1.327 . S
C911 H934 0.950 . S
C912 C911 1.349 . S
C912 C924 1.349 . S
C913 C911 1.327 . S
C913 C929 1.429 . S
C913 H935 0.950 . S
C914 H910 0.949 . S
C914 C922 1.574 . S
C914 C930 1.368 . S
H915 C923 0.950 . S
H916 C921 0.950 . S
H917 C922 0.949 . S
H918 C924 0.950 . S
H919 C925 0.950 . S
H920 C926 0.949 . S
C921 H916 0.950 . S
C921 C923 1.327 . S
C921 C927 1.429 1_565 S
C922 C914 1.574 . S
C922 H917 0.949 . S
C922 C928 1.368 . S
C923 C907 1.349 . S
C923 H915 0.950 . S
C923 C921 1.327 . S
C924 C912 1.349 . S
C924 H918 0.950 . S
C924 C925 1.327 . S
C925 H919 0.950 . S
C925 C924 1.327 . S
C925 C929 1.429 . S
C926 C909 1.574 . S
C926 H920 0.949 . S
C926 C930 1.368 . S
C927 C908 1.429 . S
C927 C921 1.429 1_545 S
C927 C928 1.523 . S
C928 C909 1.368 . S
C928 C922 1.368 . S
C928 C927 1.523 . S
C929 C913 1.429 . S
C929 C925 1.429 . S
C929 C930 1.523 . S
C930 C914 1.368 . S
C930 C926 1.368 . S
C930 C929 1.523 . S
H931 C906 0.950 . S
H932 C908 0.950 . S
H933 C909 0.949 1_565 S
H934 C911 0.950 . S
H935 C913 0.950 . S
C936 C937 1.349 . S
C936 C938 1.327 . S
C936 H961 0.950 . S
C937 C936 1.349 . S
C937 C953 1.349 . S
C938 C936 1.327 . S
C938 C957 1.423 1_545 S
C938 H962 0.960 . S
C939 C956 1.574 . S
C939 C958 1.368 . S
C939 H963 0.949 . S
H940 C944 0.949 . S
C941 C942 1.349 . S
C941 C943 1.327 . S
C941 H964 0.950 1_655 S
C942 C941 1.349 . S
C942 C954 1.349 . S
C943 C941 1.327 . S
C943 C959 1.429 . S
C943 H965 0.950 . S
C944 H940 0.949 . S
C944 C952 1.574 . S
C944 C960 1.368 . S
H945 C953 0.950 . S
H946 C951 0.950 . S
H947 C952 0.949 . S
H948 C954 0.950 . S
H949 C955 0.950 . S
H950 C956 0.949 . S
C951 H946 0.950 . S
C951 C953 1.327 . S
C951 C957 1.421 1_545 S
C952 C944 1.574 . S
C952 H947 0.949 . S
C952 C958 1.368 . S
C953 C937 1.349 . S
C953 H945 0.950 . S
C953 C951 1.327 . S
C954 C942 1.349 . S
C954 H948 0.950 . S
C954 C955 1.327 . S
C955 H949 0.950 . S
C955 C954 1.327 . S
C955 C959 1.429 . S
C956 C939 1.574 . S
C956 H950 0.949 . S
C956 C960 1.368 . S
C957 C938 1.423 1_565 S
C957 C951 1.421 1_565 S
C957 C958 1.535 . S
C958 C939 1.368 . S
C958 C952 1.368 . S
C958 C957 1.535 . S
C959 C943 1.429 . S
C959 C955 1.429 . S
C959 C960 1.523 . S
C960 C944 1.368 . S
C960 C956 1.368 . S
C960 C959 1.523 . S
H961 C936 0.950 . S
H962 C938 0.960 . S
H963 C939 0.949 . S
H964 C941 0.950 1_455 S
H965 C943 0.950 . S
C966 C967 1.349 . S
C966 C968 1.327 . S
C966 H991 0.950 . S
C967 C966 1.349 . S
C967 C983 1.349 . S
C968 C966 1.327 . S
C968 C987 1.429 . S
C968 H992 0.950 . S
C969 C986 1.574 . S
C969 C988 1.368 . S
C969 H993 0.949 . S
H970 C974 0.949 . S
C971 C972 1.349 . S
C971 C973 1.327 . S
C971 H994 0.950 . S
C972 C971 1.349 . S
C972 C984 1.349 . S
C973 C971 1.327 . S
C973 C989 1.429 . S
C973 H995 0.950 . S
C974 H970 0.949 . S
C974 C982 1.574 . S
C974 C990 1.368 . S
H975 C983 0.950 . S
H976 C981 0.950 . S
H977 C982 0.949 . S
H978 C984 0.950 . S
H979 C985 0.950 . S
H980 C986 0.949 . S
C981 H976 0.950 . S
C981 C983 1.327 . S
C981 C987 1.429 . S
C982 C974 1.574 . S
C982 H977 0.949 . S
C982 C988 1.368 . S
C983 C967 1.349 . S
C983 H975 0.950 . S
C983 C981 1.327 . S
C984 C972 1.349 . S
C984 H978 0.950 . S
C984 C985 1.327 . S
C985 H979 0.950 . S
C985 C984 1.327 . S
C985 C989 1.429 . S
C986 C969 1.574 . S
C986 H980 0.949 . S
C986 C990 1.368 . S
C987 C968 1.429 . S
C987 C981 1.429 . S
C987 C988 1.523 . S
C988 C969 1.368 . S
C988 C982 1.368 . S
C988 C987 1.523 . S
C989 C973 1.429 . S
C989 C985 1.429 . S
C989 C990 1.523 . S
C990 C974 1.368 . S
C990 C986 1.368 . S
C990 C989 1.523 . S
H991 C966 0.950 . S
H992 C968 0.950 . S
H993 C969 0.949 . S
H994 C971 0.950 . S
H995 C973 0.950 . S
C996 C997 1.349 . S
C996 C998 1.327 . S
C996 H1021 0.950 . S
C997 C996 1.349 . S
C997 C1013 1.349 . S
C998 C996 1.327 . S
C998 C1017 1.429 . S
C998 H1022 0.950 . S
C999 C1016 1.574 . S
C999 C1018 1.368 . S
C999 H1023 0.949 . S
H1000 C1004 0.949 . S
C1001 C1002 1.349 . S
C1001 C1003 1.327 . S
C1001 H1024 0.950 . S
C1002 C1001 1.349 . S
C1002 C1014 1.349 . S
C1003 C1001 1.327 . S
C1003 C1019 1.429 . S
C1003 H1025 0.950 . S
C1004 H1000 0.949 . S
C1004 C1012 1.574 . S
C1004 C1020 1.368 . S
H1005 C1013 0.950 . S
H1006 C1011 0.950 . S
H1007 C1012 0.949 . S
H1008 C1014 0.950 . S
H1009 C1015 0.950 . S
H1010 C1016 0.949 . S
C1011 H1006 0.950 . S
C1011 C1013 1.327 . S
C1011 C1017 1.429 . S
C1012 C1004 1.574 . S
C1012 H1007 0.949 . S
C1012 C1018 1.368 . S
C1013 C997 1.349 . S
C1013 H1005 0.950 . S
C1013 C1011 1.327 . S
C1014 C1002 1.349 . S
C1014 H1008 0.950 . S
C1014 C1015 1.327 . S
C1015 H1009 0.950 . S
C1015 C1014 1.327 . S
C1015 C1019 1.429 . S
C1016 C999 1.574 . S
C1016 H1010 0.949 . S
C1016 C1020 1.368 . S
C1017 C998 1.429 . S
C1017 C1011 1.429 . S
C1017 C1018 1.523 . S
C1018 C999 1.368 . S
C1018 C1012 1.368 . S
C1018 C1017 1.523 . S
C1019 C1003 1.429 . S
C1019 C1015 1.429 . S
C1019 C1020 1.523 . S
C1020 C1004 1.368 . S
C1020 C1016 1.368 . S
C1020 C1019 1.523 . S
H1021 C996 0.950 . S
H1022 C998 0.950 . S
H1023 C999 0.949 . S
H1024 C1001 0.950 . S
H1025 C1003 0.950 . S
C1026 C1027 1.349 . S
C1026 C1028 1.327 . S
C1026 H1051 0.950 . S
C1027 C1026 1.349 . S
C1027 C1043 1.349 . S
C1028 C1026 1.327 . S
C1028 C1047 1.429 1_545 S
C1028 H1052 0.950 . S
C1029 C1046 1.574 . S
C1029 C1048 1.368 . S
C1029 H1053 0.949 . S
H1030 C1034 0.949 . S
C1031 C1032 1.349 . S
C1031 C1033 1.327 . S
C1031 H1054 0.950 . S
C1032 C1031 1.349 . S
C1032 C1044 1.349 . S
C1033 C1031 1.327 . S
C1033 C1049 1.429 . S
C1033 H1055 0.950 . S
C1034 H1030 0.949 . S
C1034 C1042 1.574 . S
C1034 C1050 1.368 . S
H1035 C1043 0.950 . S
H1036 C1041 0.950 1_565 S
H1037 C1042 0.949 . S
H1038 C1044 0.950 . S
H1039 C1045 0.950 . S
H1040 C1046 0.949 . S
C1041 H1036 0.950 1_545 S
C1041 C1043 1.327 . S
C1041 C1047 1.429 1_545 S
C1042 C1034 1.574 . S
C1042 H1037 0.949 . S
C1042 C1048 1.368 . S
C1043 C1027 1.349 . S
C1043 H1035 0.950 . S
C1043 C1041 1.327 . S
C1044 C1032 1.349 . S
C1044 H1038 0.950 . S
C1044 C1045 1.327 . S
C1045 H1039 0.950 . S
C1045 C1044 1.327 . S
C1045 C1049 1.429 . S
C1046 C1029 1.574 . S
C1046 H1040 0.949 . S
C1046 C1050 1.368 . S
C1047 C1028 1.429 1_565 S
C1047 C1041 1.429 1_565 S
C1047 C1048 1.523 . S
C1048 C1029 1.368 . S
C1048 C1042 1.368 . S
C1048 C1047 1.523 . S
C1049 C1033 1.429 . S
C1049 C1045 1.429 . S
C1049 C1050 1.523 . S
C1050 C1034 1.368 . S
C1050 C1046 1.368 . S
C1050 C1049 1.523 . S
H1051 C1026 0.950 . S
H1052 C1028 0.950 . S
H1053 C1029 0.949 . S
H1054 C1031 0.950 . S
H1055 C1033 0.950 . S
C1056 C1057 1.349 . S
C1056 C1058 1.327 . S
C1056 H1081 0.950 1_554 S
C1057 C1056 1.349 . S
C1057 C1073 1.349 . S
C1058 C1056 1.327 . S
C1058 C1077 1.429 . S
C1058 H1082 0.950 . S
C1059 C1076 1.574 . S
C1059 C1078 1.368 . S
C1059 H1083 0.949 . S
H1060 C1064 0.949 . S
C1061 C1062 1.349 . S
C1061 C1063 1.327 . S
C1061 H1084 0.950 . S
C1062 C1061 1.349 . S
C1062 C1074 1.349 . S
C1063 C1061 1.327 . S
C1063 C1079 1.429 . S
C1063 H1085 0.950 . S
C1064 H1060 0.949 . S
C1064 C1072 1.574 . S
C1064 C1080 1.368 . S
H1065 C1073 0.950 . S
H1066 C1071 0.950 . S
H1067 C1072 0.949 . S
H1068 C1074 0.950 . S
H1069 C1075 0.950 . S
H1070 C1076 0.949 . S
C1071 H1066 0.950 . S
C1071 C1073 1.327 . S
C1071 C1077 1.429 . S
C1072 C1064 1.574 . S
C1072 H1067 0.949 . S
C1072 C1078 1.368 . S
C1073 C1057 1.349 . S
C1073 H1065 0.950 . S
C1073 C1071 1.327 . S
C1074 C1062 1.349 . S
C1074 H1068 0.950 . S
C1074 C1075 1.327 . S
C1075 H1069 0.950 . S
C1075 C1074 1.327 . S
C1075 C1079 1.429 . S
C1076 C1059 1.574 . S
C1076 H1070 0.949 . S
C1076 C1080 1.368 . S
C1077 C1058 1.429 . S
C1077 C1071 1.429 . S
C1077 C1078 1.523 . S
C1078 C1059 1.368 . S
C1078 C1072 1.368 . S
C1078 C1077 1.523 . S
C1079 C1063 1.429 . S
C1079 C1075 1.429 . S
C1079 C1080 1.523 . S
C1080 C1064 1.368 . S
C1080 C1076 1.368 . S
C1080 C1079 1.523 . S
H1081 C1056 0.950 1_556 S
H1082 C1058 0.950 . S
H1083 C1059 0.949 . S
H1084 C1061 0.950 . S
H1085 C1063 0.950 . S
C1086 C1087 1.349 . S
C1086 C1088 1.327 . S
C1086 H1111 0.950 . S
C1087 C1086 1.349 . S
C1087 C1103 1.349 . S
C1088 C1086 1.327 . S
C1088 C1107 1.429 . S
C1088 H1112 0.950 . S
C1089 C1106 1.574 . S
C1089 C1108 1.368 . S
C1089 H1113 0.949 . S
H1090 C1094 0.949 . S
C1091 C1092 1.349 . S
C1091 C1093 1.327 . S
C1091 H1114 0.950 . S
C1092 C1091 1.349 . S
C1092 C1104 1.349 . S
C1093 C1091 1.327 . S
C1093 C1109 1.429 . S
C1093 H1115 0.950 . S
C1094 H1090 0.949 . S
C1094 C1102 1.574 . S
C1094 C1110 1.368 . S
H1095 C1103 0.950 . S
H1096 C1101 0.950 . S
H1097 C1102 0.949 . S
H1098 C1104 0.950 . S
H1099 C1105 0.950 . S
H1100 C1106 0.949 . S
C1101 H1096 0.950 . S
C1101 C1103 1.327 . S
C1101 C1107 1.429 . S
C1102 C1094 1.574 . S
C1102 H1097 0.949 . S
C1102 C1108 1.368 . S
C1103 C1087 1.349 . S
C1103 H1095 0.950 . S
C1103 C1101 1.327 . S
C1104 C1092 1.349 . S
C1104 H1098 0.950 . S
C1104 C1105 1.327 . S
C1105 H1099 0.950 . S
C1105 C1104 1.327 . S
C1105 C1109 1.429 . S
C1106 C1089 1.574 . S
C1106 H1100 0.949 . S
C1106 C1110 1.368 . S
C1107 C1088 1.429 . S
C1107 C1101 1.429 . S
C1107 C1108 1.523 . S
C1108 C1089 1.368 . S
C1108 C1102 1.368 . S
C1108 C1107 1.523 . S
C1109 C1093 1.429 . S
C1109 C1105 1.429 . S
C1109 C1110 1.523 . S
C1110 C1094 1.368 . S
C1110 C1106 1.368 . S
C1110 C1109 1.523 . S
H1111 C1086 0.950 . S
H1112 C1088 0.950 . S
H1113 C1089 0.949 . S
H1114 C1091 0.950 . S
H1115 C1093 0.950 . S
C1116 C1117 1.336 1_556 S
C1116 C1118 1.327 . S
C1116 H1141 0.950 1_556 S
C1117 C1116 1.336 1_554 S
C1117 C1133 1.307 1_554 S
C1118 C1116 1.327 . S
C1118 C1137 1.429 . S
C1118 H1142 0.950 . S
C1119 C1136 1.574 . S
C1119 C1138 1.368 . S
C1119 H1143 0.949 . S
H1120 C1124 0.949 . S
C1121 C1122 1.349 . S
C1121 C1123 1.327 . S
C1121 H1144 0.950 . S
C1122 C1121 1.349 . S
C1122 C1134 1.349 . S
C1123 C1121 1.327 . S
C1123 C1139 1.429 . S
C1123 H1145 0.950 . S
C1124 H1120 0.949 . S
C1124 C1132 1.574 . S
C1124 C1140 1.368 . S
H1125 C1133 0.950 . S
H1126 C1131 0.950 . S
H1127 C1132 0.949 . S
H1128 C1134 0.950 . S
H1129 C1135 0.950 . S
H1130 C1136 0.949 . S
C1131 H1126 0.950 . S
C1131 C1133 1.327 . S
C1131 C1137 1.429 . S
C1132 C1124 1.574 . S
C1132 H1127 0.949 . S
C1132 C1138 1.368 . S
C1133 C1117 1.307 1_556 S
C1133 H1125 0.950 . S
C1133 C1131 1.327 . S
C1134 C1122 1.349 . S
C1134 H1128 0.950 . S
C1134 C1135 1.327 . S
C1135 H1129 0.950 . S
C1135 C1134 1.327 . S
C1135 C1139 1.429 . S
C1136 C1119 1.574 . S
C1136 H1130 0.949 . S
C1136 C1140 1.368 . S
C1137 C1118 1.429 . S
C1137 C1131 1.429 . S
C1137 C1138 1.523 . S
C1138 C1119 1.368 . S
C1138 C1132 1.368 . S
C1138 C1137 1.523 . S
C1139 C1123 1.429 . S
C1139 C1135 1.429 . S
C1139 C1140 1.523 . S
C1140 C1124 1.368 . S
C1140 C1136 1.368 . S
C1140 C1139 1.523 . S
H1141 C1116 0.950 1_554 S
H1142 C1118 0.950 . S
H1143 C1119 0.949 . S
H1144 C1121 0.950 . S
H1145 C1123 0.950 . S
C1146 C1147 1.349 . S
C1146 C1148 1.327 . S
C1146 H1171 0.950 . S
C1147 C1146 1.349 . S
C1147 C1163 1.349 . S
C1148 C1146 1.327 . S
C1148 C1167 1.429 . S
C1148 H1172 0.950 . S
C1149 C1166 1.574 . S
C1149 C1168 1.368 . S
C1149 H1173 0.949 . S
H1150 C1154 0.949 . S
C1151 C1152 1.349 . S
C1151 C1153 1.327 . S
C1151 H1174 0.950 . S
C1152 C1151 1.349 . S
C1152 C1164 1.349 . S
C1153 C1151 1.327 . S
C1153 C1169 1.429 . S
C1153 H1175 0.950 . S
C1154 H1150 0.949 . S
C1154 C1162 1.574 . S
C1154 C1170 1.368 . S
H1155 C1163 0.950 . S
H1156 C1161 0.950 . S
H1157 C1162 0.949 . S
H1158 C1164 0.950 . S
H1159 C1165 0.950 . S
H1160 C1166 0.949 . S
C1161 H1156 0.950 . S
C1161 C1163 1.327 . S
C1161 C1167 1.429 . S
C1162 C1154 1.574 . S
C1162 H1157 0.949 . S
C1162 C1168 1.368 . S
C1163 C1147 1.349 . S
C1163 H1155 0.950 . S
C1163 C1161 1.327 . S
C1164 C1152 1.349 . S
C1164 H1158 0.950 . S
C1164 C1165 1.327 . S
C1165 H1159 0.950 . S
C1165 C1164 1.327 . S
C1165 C1169 1.429 . S
C1166 C1149 1.574 . S
C1166 H1160 0.949 . S
C1166 C1170 1.368 . S
C1167 C1148 1.429 . S
C1167 C1161 1.429 . S
C1167 C1168 1.523 . S
C1168 C1149 1.368 . S
C1168 C1162 1.368 . S
C1168 C1167 1.523 . S
C1169 C1153 1.429 . S
C1169 C1165 1.429 . S
C1169 C1170 1.523 . S
C1170 C1154 1.368 . S
C1170 C1166 1.368 . S
C1170 C1169 1.523 . S
H1171 C1146 0.950 . S
H1172 C1148 0.950 . S
H1173 C1149 0.949 . S
H1174 C1151 0.950 . S
H1175 C1153 0.950 . S
C1176 C1177 1.349 . S
C1176 C1178 1.327 . S
C1176 H1201 0.962 . S
C1177 C1176 1.349 . S
C1177 C1193 1.349 . S
C1178 C1176 1.327 . S
C1178 C1197 1.429 . S
C1178 H1202 0.950 . S
C1179 C1196 1.574 . S
C1179 C1198 1.368 . S
C1179 H1203 0.949 . S
H1180 C1184 0.949 . S
C1181 C1182 1.349 . S
C1181 C1183 1.327 . S
C1181 H1204 0.950 . S
C1182 C1181 1.349 . S
C1182 C1194 1.349 . S
C1183 C1181 1.327 . S
C1183 C1199 1.429 . S
C1183 H1205 0.950 . S
C1184 H1180 0.949 . S
C1184 C1192 1.574 . S
C1184 C1200 1.368 . S
H1185 C1193 0.950 . S
H1186 C1191 0.950 . S
H1187 C1192 0.949 . S
H1188 C1194 0.950 . S
H1189 C1195 0.950 . S
H1190 C1196 0.949 . S
C1191 H1186 0.950 . S
C1191 C1193 1.327 . S
C1191 C1197 1.429 . S
C1192 C1184 1.574 . S
C1192 H1187 0.949 . S
C1192 C1198 1.368 . S
C1193 C1177 1.349 . S
C1193 H1185 0.950 . S
C1193 C1191 1.327 . S
C1194 C1182 1.349 . S
C1194 H1188 0.950 . S
C1194 C1195 1.327 . S
C1195 H1189 0.950 . S
C1195 C1194 1.327 . S
C1195 C1199 1.429 . S
C1196 C1179 1.574 . S
C1196 H1190 0.949 . S
C1196 C1200 1.368 . S
C1197 C1178 1.429 . S
C1197 C1191 1.429 . S
C1197 C1198 1.523 . S
C1198 C1179 1.368 . S
C1198 C1192 1.368 . S
C1198 C1197 1.523 . S
C1199 C1183 1.429 . S
C1199 C1195 1.429 . S
C1199 C1200 1.523 . S
C1200 C1184 1.368 . S
C1200 C1196 1.368 . S
C1200 C1199 1.523 . S
H1201 C1176 0.962 . S
H1202 C1178 0.950 . S
H1203 C1179 0.949 . S
H1204 C1181 0.950 . S
H1205 C1183 0.950 . S
C1206 C1207 1.349 . S
C1206 C1208 1.327 . S
C1206 H1231 0.950 . S
C1207 C1206 1.349 . S
C1207 C1223 1.349 . S
C1208 C1206 1.327 . S
C1208 C1227 1.429 . S
C1208 H1232 0.950 . S
C1209 C1226 1.574 . S
C1209 C1228 1.368 . S
C1209 H1233 0.949 . S
H1210 C1214 0.949 . S
C1211 C1212 1.349 . S
C1211 C1213 1.327 . S
C1211 H1234 0.950 . S
C1212 C1211 1.349 . S
C1212 C1224 1.349 . S
C1213 C1211 1.327 . S
C1213 C1229 1.429 . S
C1213 H1235 0.950 . S
C1214 H1210 0.949 . S
C1214 C1222 1.574 . S
C1214 C1230 1.368 . S
H1215 C1223 0.950 . S
H1216 C1221 0.950 . S
H1217 C1222 0.949 . S
H1218 C1224 0.950 . S
H1219 C1225 0.950 . S
H1220 C1226 0.949 . S
C1221 H1216 0.950 . S
C1221 C1223 1.327 . S
C1221 C1227 1.429 . S
C1222 C1214 1.574 . S
C1222 H1217 0.949 . S
C1222 C1228 1.368 . S
C1223 C1207 1.349 . S
C1223 H1215 0.950 . S
C1223 C1221 1.327 . S
C1224 C1212 1.349 . S
C1224 H1218 0.950 . S
C1224 C1225 1.327 . S
C1225 H1219 0.950 . S
C1225 C1224 1.327 . S
C1225 C1229 1.429 . S
C1226 C1209 1.574 . S
C1226 H1220 0.949 . S
C1226 C1230 1.368 . S
C1227 C1208 1.429 . S
C1227 C1221 1.429 . S
C1227 C1228 1.523 . S
C1228 C1209 1.368 . S
C1228 C1222 1.368 . S
C1228 C1227 1.523 . S
C1229 C1213 1.429 . S
C1229 C1225 1.429 . S
C1229 C1230 1.523 . S
C1230 C1214 1.368 . S
C1230 C1226 1.368 . S
C1230 C1229 1.523 . S
H1231 C1206 0.950 . S
H1232 C1208 0.950 . S
H1233 C1209 0.949 . S
H1234 C1211 0.950 . S
H1235 C1213 0.950 . S
C1236 C1237 1.349 1_554 S
C1236 C1238 1.327 . S
C1236 H1261 0.950 1_554 S
C1237 C1236 1.349 1_556 S
C1237 C1253 1.349 1_556 S
C1238 C1236 1.327 . S
C1238 C1257 1.429 . S
C1238 H1262 0.950 . S
C1239 C1256 1.574 . S
C1239 C1258 1.368 . S
C1239 H1263 0.949 . S
H1240 C1244 0.949 . S
C1241 C1242 1.349 . S
C1241 C1243 1.327 . S
C1241 H1264 0.950 . S
C1242 C1241 1.349 . S
C1242 C1254 1.349 . S
C1243 C1241 1.327 . S
C1243 C1259 1.429 . S
C1243 H1265 0.950 . S
C1244 H1240 0.949 . S
C1244 C1252 1.574 . S
C1244 C1260 1.368 . S
H1245 C1253 0.950 . S
H1246 C1251 0.950 . S
H1247 C1252 0.949 . S
H1248 C1254 0.950 . S
H1249 C1255 0.950 . S
H1250 C1256 0.949 . S
C1251 H1246 0.950 . S
C1251 C1253 1.327 . S
C1251 C1257 1.429 . S
C1252 C1244 1.574 . S
C1252 H1247 0.949 . S
C1252 C1258 1.368 . S
C1253 C1237 1.349 1_554 S
C1253 H1245 0.950 . S
C1253 C1251 1.327 . S
C1254 C1242 1.349 . S
C1254 H1248 0.950 . S
C1254 C1255 1.327 . S
C1255 H1249 0.950 . S
C1255 C1254 1.327 . S
C1255 C1259 1.429 . S
C1256 C1239 1.574 . S
C1256 H1250 0.949 . S
C1256 C1260 1.368 . S
C1257 C1238 1.429 . S
C1257 C1251 1.429 . S
C1257 C1258 1.523 . S
C1258 C1239 1.368 . S
C1258 C1252 1.368 . S
C1258 C1257 1.523 . S
C1259 C1243 1.429 . S
C1259 C1255 1.429 . S
C1259 C1260 1.523 . S
C1260 C1244 1.368 . S
C1260 C1256 1.368 . S
C1260 C1259 1.523 . S
H1261 C1236 0.950 1_556 S
H1262 C1238 0.950 . S
H1263 C1239 0.949 . S
H1264 C1241 0.950 . S
H1265 C1243 0.950 . S
C1266 C1267 1.349 . S
C1266 C1268 1.327 . S
C1266 H1291 0.950 . S
C1267 C1266 1.349 . S
C1267 C1283 1.349 . S
C1268 C1266 1.327 . S
C1268 C1287 1.429 . S
C1268 H1292 0.950 . S
C1269 C1286 1.574 . S
C1269 C1288 1.368 . S
C1269 H1293 0.949 . S
H1270 C1274 0.949 . S
C1271 C1272 1.349 . S
C1271 C1273 1.327 . S
C1271 H1294 0.950 . S
C1272 C1271 1.349 . S
C1272 C1284 1.349 . S
C1273 C1271 1.327 . S
C1273 C1289 1.429 . S
C1273 H1295 0.950 . S
C1274 H1270 0.949 . S
C1274 C1282 1.574 . S
C1274 C1290 1.368 . S
H1275 C1283 0.950 . S
H1276 C1281 0.950 . S
H1277 C1282 0.949 . S
H1278 C1284 0.950 . S
H1279 C1285 0.950 . S
H1280 C1286 0.949 . S
C1281 H1276 0.950 . S
C1281 C1283 1.327 . S
C1281 C1287 1.429 . S
C1282 C1274 1.574 . S
C1282 H1277 0.949 . S
C1282 C1288 1.368 . S
C1283 C1267 1.349 . S
C1283 H1275 0.950 . S
C1283 C1281 1.327 . S
C1284 C1272 1.349 . S
C1284 H1278 0.950 . S
C1284 C1285 1.327 . S
C1285 H1279 0.950 . S
C1285 C1284 1.327 . S
C1285 C1289 1.429 . S
C1286 C1269 1.574 . S
C1286 H1280 0.949 . S
C1286 C1290 1.368 . S
C1287 C1268 1.429 . S
C1287 C1281 1.429 . S
C1287 C1288 1.523 . S
C1288 C1269 1.368 . S
C1288 C1282 1.368 . S
C1288 C1287 1.523 . S
C1289 C1273 1.429 . S
C1289 C1285 1.429 . S
C1289 C1290 1.523 . S
C1290 C1274 1.368 . S
C1290 C1286 1.368 . S
C1290 C1289 1.523 . S
H1291 C1266 0.950 . S
H1292 C1268 0.950 . S
H1293 C1269 0.949 . S
H1294 C1271 0.950 . S
H1295 C1273 0.950 . S
C1296 C1297 1.349 . S
C1296 C1298 1.327 . S
C1296 H1321 0.950 . S
C1297 C1296 1.349 . S
C1297 C1313 1.349 . S
C1298 C1296 1.327 . S
C1298 C1317 1.429 . S
C1298 H1322 0.950 . S
C1299 C1316 1.574 . S
C1299 C1318 1.368 . S
C1299 H1323 0.949 . S
H1300 C1304 0.949 . S
C1301 C1302 1.349 . S
C1301 C1303 1.327 . S
C1301 H1324 0.950 . S
C1302 C1301 1.349 . S
C1302 C1314 1.349 . S
C1303 C1301 1.327 . S
C1303 C1319 1.429 . S
C1303 H1325 0.950 . S
C1304 H1300 0.949 . S
C1304 C1312 1.574 . S
C1304 C1320 1.368 . S
H1305 C1313 0.950 . S
H1306 C1311 0.950 . S
H1307 C1312 0.949 . S
H1308 C1314 0.964 . S
H1309 C1315 0.950 . S
H1310 C1316 0.949 . S
C1311 H1306 0.950 . S
C1311 C1313 1.327 . S
C1311 C1317 1.429 . S
C1312 C1304 1.574 . S
C1312 H1307 0.949 . S
C1312 C1318 1.368 . S
C1313 C1297 1.349 . S
C1313 H1305 0.950 . S
C1313 C1311 1.327 . S
C1314 C1302 1.349 . S
C1314 H1308 0.964 . S
C1314 C1315 1.327 . S
C1315 H1309 0.950 . S
C1315 C1314 1.327 . S
C1315 C1319 1.429 . S
C1316 C1299 1.574 . S
C1316 H1310 0.949 . S
C1316 C1320 1.368 . S
C1317 C1298 1.429 . S
C1317 C1311 1.429 . S
C1317 C1318 1.523 . S
C1318 C1299 1.368 . S
C1318 C1312 1.368 . S
C1318 C1317 1.523 . S
C1319 C1303 1.429 . S
C1319 C1315 1.429 . S
C1319 C1320 1.523 . S
C1320 C1304 1.368 . S
C1320 C1316 1.368 . S
C1320 C1319 1.523 . S
H1321 C1296 0.950 . S
H1322 C1298 0.950 . S
H1323 C1299 0.949 . S
H1324 C1301 0.950 . S
H1325 C1303 0.950 . S
C1326 C1327 1.349 . S
C1326 C1328 1.327 . S
C1326 H1351 0.950 . S
C1327 C1326 1.349 . S
C1327 C1343 1.349 . S
C1328 C1326 1.327 . S
C1328 C1347 1.429 . S
C1328 H1352 0.950 . S
C1329 C1346 1.574 . S
C1329 C1348 1.368 . S
C1329 H1353 0.949 . S
H1330 C1334 0.949 . S
C1331 C1332 1.349 . S
C1331 C1333 1.327 . S
C1331 H1354 0.950 . S
C1332 C1331 1.349 . S
C1332 C1344 1.349 . S
C1333 C1331 1.327 . S
C1333 C1349 1.429 . S
C1333 H1355 0.950 . S
C1334 H1330 0.949 . S
C1334 C1342 1.574 . S
C1334 C1350 1.368 . S
H1335 C1343 0.950 . S
H1336 C1341 0.950 . S
H1337 C1342 0.949 . S
H1338 C1344 0.950 . S
H1339 C1345 0.950 . S
H1340 C1346 0.949 . S
C1341 H1336 0.950 . S
C1341 C1343 1.327 . S
C1341 C1347 1.429 . S
C1342 C1334 1.574 . S
C1342 H1337 0.949 . S
C1342 C1348 1.368 . S
C1343 C1327 1.349 . S
C1343 H1335 0.950 . S
C1343 C1341 1.327 . S
C1344 C1332 1.349 . S
C1344 H1338 0.950 . S
C1344 C1345 1.327 . S
C1345 H1339 0.950 . S
C1345 C1344 1.327 . S
C1345 C1349 1.429 . S
C1346 C1329 1.574 . S
C1346 H1340 0.949 . S
C1346 C1350 1.368 . S
C1347 C1328 1.429 . S
C1347 C1341 1.429 . S
C1347 C1348 1.523 . S
C1348 C1329 1.368 . S
C1348 C1342 1.368 . S
C1348 C1347 1.523 . S
C1349 C1333 1.429 . S
C1349 C1345 1.429 . S
C1349 C1350 1.523 . S
C1350 C1334 1.368 . S
C1350 C1346 1.368 . S
C1350 C1349 1.523 . S
H1351 C1326 0.950 . S
H1352 C1328 0.950 . S
H1353 C1329 0.949 . S
H1354 C1331 0.950 . S
H1355 C1333 0.950 . S
C1356 C1357 1.349 . S
C1356 C1358 1.327 . S
C1356 H1381 0.950 . S
C1357 C1356 1.349 . S
C1357 C1373 1.349 . S
C1358 C1356 1.327 . S
C1358 C1377 1.429 . S
C1358 H1382 0.950 . S
C1359 C1376 1.574 . S
C1359 C1378 1.368 . S
C1359 H1383 0.949 . S
H1360 C1364 0.949 . S
C1361 C1362 1.349 . S
C1361 C1363 1.327 . S
C1361 H1384 0.950 . S
C1362 C1361 1.349 . S
C1362 C1374 1.349 . S
C1363 C1361 1.327 . S
C1363 C1379 1.429 . S
C1363 H1385 0.950 . S
C1364 H1360 0.949 . S
C1364 C1372 1.574 . S
C1364 C1380 1.368 . S
H1365 C1373 0.950 . S
H1366 C1371 0.950 . S
H1367 C1372 0.949 . S
H1368 C1374 0.950 . S
H1369 C1375 0.950 . S
H1370 C1376 0.949 . S
C1371 H1366 0.950 . S
C1371 C1373 1.327 . S
C1371 C1377 1.429 . S
C1372 C1364 1.574 . S
C1372 H1367 0.949 . S
C1372 C1378 1.368 . S
C1373 C1357 1.349 . S
C1373 H1365 0.950 . S
C1373 C1371 1.327 . S
C1374 C1362 1.349 . S
C1374 H1368 0.950 . S
C1374 C1375 1.327 . S
C1375 H1369 0.950 . S
C1375 C1374 1.327 . S
C1375 C1379 1.429 . S
C1376 C1359 1.574 . S
C1376 H1370 0.949 . S
C1376 C1380 1.368 . S
C1377 C1358 1.429 . S
C1377 C1371 1.429 . S
C1377 C1378 1.523 . S
C1378 C1359 1.368 . S
C1378 C1372 1.368 . S
C1378 C1377 1.523 . S
C1379 C1363 1.429 . S
C1379 C1375 1.429 . S
C1379 C1380 1.523 . S
C1380 C1364 1.368 . S
C1380 C1376 1.368 . S
C1380 C1379 1.523 . S
H1381 C1356 0.950 . S
H1382 C1358 0.950 . S
H1383 C1359 0.949 . S
H1384 C1361 0.950 . S
H1385 C1363 0.950 . S
C1386 C1387 1.349 . S
C1386 C1388 1.327 . S
C1386 H1411 0.950 . S
C1387 C1386 1.349 . S
C1387 C1403 1.349 . S
C1388 C1386 1.327 . S
C1388 C1407 1.429 . S
C1388 H1412 0.950 . S
C1389 C1406 1.574 . S
C1389 C1408 1.368 . S
C1389 H1413 0.949 . S
H1390 C1394 0.949 . S
C1391 C1392 1.349 . S
C1391 C1393 1.327 . S
C1391 H1414 0.950 1_655 S
C1392 C1391 1.349 . S
C1392 C1404 1.349 . S
C1393 C1391 1.327 . S
C1393 C1409 1.429 . S
C1393 H1415 0.950 . S
C1394 H1390 0.949 . S
C1394 C1402 1.574 . S
C1394 C1410 1.368 . S
H1395 C1403 0.950 . S
H1396 C1401 0.950 . S
H1397 C1402 0.949 . S
H1398 C1404 0.950 . S
H1399 C1405 0.950 . S
H1400 C1406 0.949 . S
C1401 H1396 0.950 . S
C1401 C1403 1.327 . S
C1401 C1407 1.429 . S
C1402 C1394 1.574 . S
C1402 H1397 0.949 . S
C1402 C1408 1.368 . S
C1403 C1387 1.349 . S
C1403 H1395 0.950 . S
C1403 C1401 1.327 . S
C1404 C1392 1.349 . S
C1404 H1398 0.950 . S
C1404 C1405 1.327 . S
C1405 H1399 0.950 . S
C1405 C1404 1.327 . S
C1405 C1409 1.429 . S
C1406 C1389 1.574 . S
C1406 H1400 0.949 . S
C1406 C1410 1.368 . S
C1407 C1388 1.429 . S
C1407 C1401 1.429 . S
C1407 C1408 1.523 . S
C1408 C1389 1.368 . S
C1408 C1402 1.368 . S
C1408 C1407 1.523 . S
C1409 C1393 1.429 . S
C1409 C1405 1.429 . S
C1409 C1410 1.523 . S
C1410 C1394 1.368 . S
C1410 C1406 1.368 . S
C1410 C1409 1.523 . S
H1411 C1386 0.950 . S
H1412 C1388 0.950 . S
H1413 C1389 0.949 . S
H1414 C1391 0.950 1_455 S
H1415 C1393 0.950 . S
C1416 C1417 1.349 . S
C1416 C1418 1.327 . S
C1416 H1441 0.950 . S
C1417 C1416 1.349 . S
C1417 C1433 1.349 . S
C1418 C1416 1.327 . S
C1418 C1437 1.429 . S
C1418 H1442 0.950 . S
C1419 C1436 1.574 . S
C1419 C1438 1.368 . S
C1419 H1443 0.949 . S
H1420 C1424 0.949 . S
C1421 C1422 1.349 . S
C1421 C1423 1.327 . S
C1421 H1444 0.950 . S
C1422 C1421 1.349 . S
C1422 C1434 1.349 . S
C1423 C1421 1.327 . S
C1423 C1439 1.429 . S
C1423 H1445 0.950 . S
C1424 H1420 0.949 . S
C1424 C1432 1.574 . S
C1424 C1440 1.368 . S
H1425 C1433 0.950 . S
H1426 C1431 0.950 . S
H1427 C1432 0.949 . S
H1428 C1434 0.950 . S
H1429 C1435 0.950 . S
H1430 C1436 0.949 . S
C1431 H1426 0.950 . S
C1431 C1433 1.327 . S
C1431 C1437 1.429 . S
C1432 C1424 1.574 . S
C1432 H1427 0.949 . S
C1432 C1438 1.368 . S
C1433 C1417 1.349 . S
C1433 H1425 0.950 . S
C1433 C1431 1.327 . S
C1434 C1422 1.349 . S
C1434 H1428 0.950 . S
C1434 C1435 1.327 . S
C1435 H1429 0.950 . S
C1435 C1434 1.327 . S
C1435 C1439 1.429 . S
C1436 C1419 1.574 . S
C1436 H1430 0.949 . S
C1436 C1440 1.368 . S
C1437 C1418 1.429 . S
C1437 C1431 1.429 . S
C1437 C1438 1.523 . S
C1438 C1419 1.368 . S
C1438 C1432 1.368 . S
C1438 C1437 1.523 . S
C1439 C1423 1.429 . S
C1439 C1435 1.429 . S
C1439 C1440 1.523 . S
C1440 C1424 1.368 . S
C1440 C1436 1.368 . S
C1440 C1439 1.523 . S
H1441 C1416 0.950 . S
H1442 C1418 0.950 . S
H1443 C1419 0.949 . S
H1444 C1421 0.950 . S
H1445 C1423 0.950 . S
C1446 C1447 1.349 . S
C1446 C1448 1.327 . S
C1446 H1471 0.950 . S
C1447 C1446 1.349 . S
C1447 C1463 1.349 . S
C1448 C1446 1.327 . S
C1448 C1467 1.429 . S
C1448 H1472 0.950 . S
C1449 C1466 1.574 . S
C1449 C1468 1.368 . S
C1449 H1473 0.949 . S
H1450 C1454 0.949 . S
C1451 C1452 1.349 . S
C1451 C1453 1.327 . S
C1451 H1474 0.950 . S
C1452 C1451 1.349 . S
C1452 C1464 1.349 . S
C1453 C1451 1.327 . S
C1453 C1469 1.429 . S
C1453 H1475 0.950 . S
C1454 H1450 0.949 . S
C1454 C1462 1.574 . S
C1454 C1470 1.368 . S
H1455 C1463 0.950 . S
H1456 C1461 0.950 . S
H1457 C1462 0.949 . S
H1458 C1464 0.950 . S
H1459 C1465 0.950 . S
H1460 C1466 0.949 . S
C1461 H1456 0.950 . S
C1461 C1463 1.327 . S
C1461 C1467 1.429 . S
C1462 C1454 1.574 . S
C1462 H1457 0.949 . S
C1462 C1468 1.368 . S
C1463 C1447 1.349 . S
C1463 H1455 0.950 . S
C1463 C1461 1.327 . S
C1464 C1452 1.349 . S
C1464 H1458 0.950 . S
C1464 C1465 1.327 . S
C1465 H1459 0.950 . S
C1465 C1464 1.327 . S
C1465 C1469 1.429 . S
C1466 C1449 1.574 . S
C1466 H1460 0.949 . S
C1466 C1470 1.368 . S
C1467 C1448 1.429 . S
C1467 C1461 1.429 . S
C1467 C1468 1.523 . S
C1468 C1449 1.368 . S
C1468 C1462 1.368 . S
C1468 C1467 1.523 . S
C1469 C1453 1.429 . S
C1469 C1465 1.429 . S
C1469 C1470 1.523 . S
C1470 C1454 1.368 . S
C1470 C1466 1.368 . S
C1470 C1469 1.523 . S
H1471 C1446 0.950 . S
H1472 C1448 0.950 . S
H1473 C1449 0.949 . S
H1474 C1451 0.950 . S
H1475 C1453 0.950 . S
C1476 C1477 1.349 . S
C1476 C1478 1.327 . S
C1476 H1501 0.950 . S
C1477 C1476 1.349 . S
C1477 C1493 1.349 . S
C1478 C1476 1.327 . S
C1478 C1497 1.429 . S
C1478 H1502 0.950 . S
C1479 C1496 1.574 . S
C1479 C1498 1.368 . S
C1479 H1503 0.949 . S
H1480 C1484 0.949 . S
C1481 C1482 1.349 . S
C1481 C1483 1.327 . S
C1481 H1504 0.950 . S
C1482 C1481 1.349 . S
C1482 C1494 1.349 . S
C1483 C1481 1.327 . S
C1483 C1499 1.429 . S
C1483 H1505 0.950 . S
C1484 H1480 0.949 . S
C1484 C1492 1.574 . S
C1484 C1500 1.368 . S
H1485 C1493 0.950 . S
H1486 C1491 0.950 . S
H1487 C1492 0.949 . S
H1488 C1494 0.950 . S
H1489 C1495 0.950 . S
H1490 C1496 0.949 . S
C1491 H1486 0.950 . S
C1491 C1493 1.327 . S
C1491 C1497 1.429 . S
C1492 C1484 1.574 . S
C1492 H1487 0.949 . S
C1492 C1498 1.368 . S
C1493 C1477 1.349 . S
C1493 H1485 0.950 . S
C1493 C1491 1.327 . S
C1494 C1482 1.349 . S
C1494 H1488 0.950 . S
C1494 C1495 1.327 . S
C1495 H1489 0.950 . S
C1495 C1494 1.327 . S
C1495 C1499 1.429 . S
C1496 C1479 1.574 . S
C1496 H1490 0.949 . S
C1496 C1500 1.368 . S
C1497 C1478 1.429 . S
C1497 C1491 1.429 . S
C1497 C1498 1.523 . S
C1498 C1479 1.368 . S
C1498 C1492 1.368 . S
C1498 C1497 1.523 . S
C1499 C1483 1.429 . S
C1499 C1495 1.429 . S
C1499 C1500 1.523 . S
C1500 C1484 1.368 . S
C1500 C1496 1.368 . S
C1500 C1499 1.523 . S
H1501 C1476 0.950 . S
H1502 C1478 0.950 . S
H1503 C1479 0.949 . S
H1504 C1481 0.950 . S
H1505 C1483 0.950 . S
C1506 C1507 1.349 . S
C1506 C1508 1.327 . S
C1506 H1531 0.950 . S
C1507 C1506 1.349 . S
C1507 C1523 1.349 . S
C1508 C1506 1.327 . S
C1508 C1527 1.429 . S
C1508 H1532 0.950 . S
C1509 C1526 1.574 . S
C1509 C1528 1.368 . S
C1509 H1533 0.949 . S
H1510 C1514 0.949 . S
C1511 C1512 1.349 . S
C1511 C1513 1.327 . S
C1511 H1534 0.950 . S
C1512 C1511 1.349 . S
C1512 C1524 1.349 . S
C1513 C1511 1.327 . S
C1513 C1529 1.429 . S
C1513 H1535 0.950 . S
C1514 H1510 0.949 . S
C1514 C1522 1.574 . S
C1514 C1530 1.368 . S
H1515 C1523 0.950 . S
H1516 C1521 0.950 . S
H1517 C1522 0.949 . S
H1518 C1524 0.950 . S
H1519 C1525 0.950 . S
H1520 C1526 0.949 . S
C1521 H1516 0.950 . S
C1521 C1523 1.327 . S
C1521 C1527 1.429 . S
C1522 C1514 1.574 . S
C1522 H1517 0.949 . S
C1522 C1528 1.368 . S
C1523 C1507 1.349 . S
C1523 H1515 0.950 . S
C1523 C1521 1.327 . S
C1524 C1512 1.349 . S
C1524 H1518 0.950 . S
C1524 C1525 1.327 . S
C1525 H1519 0.950 . S
C1525 C1524 1.327 . S
C1525 C1529 1.429 . S
C1526 C1509 1.574 . S
C1526 H1520 0.949 . S
C1526 C1530 1.368 . S
C1527 C1508 1.429 . S
C1527 C1521 1.429 . S
C1527 C1528 1.523 . S
C1528 C1509 1.368 . S
C1528 C1522 1.368 . S
C1528 C1527 1.523 . S
C1529 C1513 1.429 . S
C1529 C1525 1.429 . S
C1529 C1530 1.523 . S
C1530 C1514 1.368 . S
C1530 C1526 1.368 . S
C1530 C1529 1.523 . S
H1531 C1506 0.950 . S
H1532 C1508 0.950 . S
H1533 C1509 0.949 . S
H1534 C1511 0.950 . S
H1535 C1513 0.950 . S
C817 C361 1.438 . S
C822 C536 1.448 . S
C852 C620 1.447 . S
C847 C451 1.446 . S
C882 C619 1.453 . S
C877 C241 1.426 . S
C907 C331 1.433 . S
C912 C535 1.453 . S
C942 C716 1.447 . S
C937 C140 1.430 . S
C972 C800 1.447 . S
C967 C211 1.429 . S
C997 C20 1.414 . S
C1002 C799 1.453 . S
C1027 C91 1.414 . S
C1032 C715 1.453 . S
C1062 C538 1.341 . S
C1057 C80 1.475 1_554 S
C1092 C622 1.341 . S
C1087 C1 1.475 . S
C1122 C634 1.409 . S
C1117 C200 1.564 . S
C1152 C550 1.409 . S
C1147 C121 1.505 . S
C1182 C718 1.341 . S
C1177 C320 1.496 1_556 S
C1207 C260 1.488 . S
C1212 C802 1.341 . S
C1242 C790 1.409 . S
C1237 C440 1.522 . S
C1267 C380 1.517 . S
C1272 C706 1.409 . S
C1302 C547 1.595 . S
C1297 C31 1.572 . S
C1332 C631 1.594 . S
C1327 C61 1.572 . S
C1357 C151 1.559 . S
C1362 C632 1.566 . S
C1392 C548 1.566 . S
C1387 C181 1.559 . S
C1422 C703 1.595 . S
C1417 C271 1.535 . S
C1447 C301 1.594 . S
C1452 C787 1.595 . S
C1477 C391 1.524 . S
C1482 C788 1.566 . S
C1507 C421 1.578 . S
C1512 C704 1.566 . S
