# Generated by pormake.
# Topology anh, (6,3)-cn, num edge types: 1
# Building blocks:
#     Node 0, Type 0, BuildingBlock: INOVEN_clean_sbu_0, # of connection points: 6
#     Node 1, Type 0, BuildingBlock: INOVEN_clean_sbu_0, # of connection points: 6
#     Node 2, Type 0, BuildingBlock: INOVEN_clean_sbu_0, # of connection points: 6
#     Node 3, Type 1, BuildingBlock: VETTIZ_charged_linker_0, # of connection points: 3
#     Node 4, Type 1, BuildingBlock: VETTIZ_charged_linker_0, # of connection points: 3
#     Node 5, Type 1, BuildingBlock: VETTIZ_charged_linker_0, # of connection points: 3
#     Node 6, Type 1, BuildingBlock: VETTIZ_charged_linker_0, # of connection points: 3
#     Node 7, Type 1, BuildingBlock: VETTIZ_charged_linker_0, # of connection points: 3
#     Node 8, Type 1, BuildingBlock: VETTIZ_charged_linker_0, # of connection points: 3
#     Edge 9, Type (0, 1), BuildingBlock: KIFKEQ_clean_linker_1, # of connection points: 2
#     Edge 10, Type (0, 1), BuildingBlock: KIFKEQ_clean_linker_1, # of connection points: 2
#     Edge 11, Type (0, 1), BuildingBlock: KIFKEQ_clean_linker_1, # of connection points: 2
#     Edge 12, Type (0, 1), BuildingBlock: KIFKEQ_clean_linker_1, # of connection points: 2
#     Edge 13, Type (0, 1), BuildingBlock: KIFKEQ_clean_linker_1, # of connection points: 2
#     Edge 14, Type (0, 1), BuildingBlock: KIFKEQ_clean_linker_1, # of connection points: 2
#     Edge 15, Type (0, 1), BuildingBlock: KIFKEQ_clean_linker_1, # of connection points: 2
#     Edge 16, Type (0, 1), BuildingBlock: KIFKEQ_clean_linker_1, # of connection points: 2
#     Edge 17, Type (0, 1), BuildingBlock: KIFKEQ_clean_linker_1, # of connection points: 2
#     Edge 18, Type (0, 1), BuildingBlock: KIFKEQ_clean_linker_1, # of connection points: 2
#     Edge 19, Type (0, 1), BuildingBlock: KIFKEQ_clean_linker_1, # of connection points: 2
#     Edge 20, Type (0, 1), BuildingBlock: KIFKEQ_clean_linker_1, # of connection points: 2
#     Edge 21, Type (0, 1), BuildingBlock: KIFKEQ_clean_linker_1, # of connection points: 2
#     Edge 22, Type (0, 1), BuildingBlock: KIFKEQ_clean_linker_1, # of connection points: 2
#     Edge 23, Type (0, 1), BuildingBlock: KIFKEQ_clean_linker_1, # of connection points: 2
#     Edge 24, Type (0, 1), BuildingBlock: KIFKEQ_clean_linker_1, # of connection points: 2
#     Edge 25, Type (0, 1), BuildingBlock: KIFKEQ_clean_linker_1, # of connection points: 2
#     Edge 26, Type (0, 1), BuildingBlock: KIFKEQ_clean_linker_1, # of connection points: 2
# Relax obj value: 0.181
# Max RMSD: 0.214
# Mean RMSD: 0.160
data_MOF--net-anh--node1-INOVEN_clean_sbu_0--node2-VETTIZ_charged_linker_0--edge1-KIFKEQ_clean_linker_1
_symmetry_space_group_name_H-M    P1
_symmetry_Int_Tables_number       1
_symmetry_cell_setting            triclinic
loop_
_symmetry_equiv_pos_as_xyz
'x, y, z'
_cell_length_a     37.984276
_cell_length_b     43.926813
_cell_length_c     67.599065
_cell_angle_alpha  92.89288
_cell_angle_beta   89.505324
_cell_angle_gamma 128.89936
loop_
_atom_site_label
_atom_site_type_symbol
_atom_site_fract_x
_atom_site_fract_y
_atom_site_fract_z
_atom_type_partial_charge
Gd0 Gd 0.10246 0.50265 0.15732 0.0
Gd1 Gd 0.05692 0.53582 0.159 0.0
C2 C 0.16323 0.59818 0.15796 0.0
C3 C 0.15767 0.48959 0.15161 0.0
C4 C 0.2051 0.51873 0.15752 0.0
C5 C 0.21764 0.53631 0.17688 0.0
C6 C 0.23776 0.53341 0.1431 0.0
C7 C 0.29615 0.57437 0.1686 0.0
C8 C 0.28309 0.56164 0.14852 0.0
C9 C 0.26307 0.56446 0.18232 0.0
C10 C 0.07712 0.50666 0.19411 0.0
C11 C 0.99657 0.44217 0.15481 0.0
C12 C 1.01908 0.56185 0.17518 0.0
C13 C 0.9721 0.53724 0.181 0.0
C14 C 0.94064 0.53404 0.16853 0.0
C15 C 0.95713 0.51002 0.19566 0.0
C16 C 0.88064 0.47419 0.1835 0.0
C17 C 0.91134 0.47866 0.19697 0.0
C18 C 0.89526 0.50242 0.16959 0.0
C19 C 0.06217 0.52346 0.1196 0.0
O20 O 0.1636 0.56842 0.15961 0.0
O21 O 0.125 0.59217 0.1563 0.0
O22 O 0.12938 0.47413 0.1661 0.0
O23 O 0.14491 0.49986 0.13725 0.0
O24 O 0.07017 0.47578 0.18623 0.0
O25 O 0.09634 0.53353 0.18197 0.0
O26 O 0.99882 0.47143 0.16286 0.0
O27 O 1.03293 0.44851 0.14772 0.0
O28 O 1.02436 0.56157 0.15605 0.0
O29 O 1.04544 0.55831 0.18522 0.0
O30 O 1.04131 0.53589 0.12682 0.0
O31 O 0.07703 0.51578 0.13349 0.0
H32 H 0.19263 0.52733 0.18804 0.0
H33 H 0.22832 0.52198 0.12783 0.0
H34 H 0.30767 0.56932 0.13735 0.0
H35 H 0.27232 0.57455 0.19777 0.0
H36 H 0.95144 0.55452 0.15709 0.0
H37 H 0.98077 0.51174 0.20548 0.0
H38 H 0.89998 0.45766 0.20815 0.0
H39 H 0.87142 0.49994 0.15952 0.0
Gd40 Gd 0.59132 1.00823 0.48029 0.0
Gd41 Gd 0.53888 0.03502 0.47888 0.0
C42 C 0.48152 0.94417 0.47795 0.0
C43 C 0.62125 0.97001 0.48423 0.0
C44 C 0.60055 0.92836 0.48496 0.0
C45 C 0.60528 0.9097 0.4689 0.0
C46 C 0.57765 0.90733 0.50171 0.0
C47 C 0.5707 0.85183 0.4875 0.0
C48 C 0.56283 0.86934 0.50295 0.0
C49 C 0.59029 0.87164 0.47012 0.0
C50 C 0.58232 0.02524 0.44389 0.0
C51 C 0.64953 0.09986 0.48358 0.0
C52 C 0.51082 0.07298 0.46994 0.0
C53 C 0.52834 0.1138 0.47358 0.0
C54 C 0.52109 0.12606 0.49168 0.0
C55 C 0.55142 0.14066 0.45867 0.0
C56 C 0.55607 0.18984 0.47924 0.0
C57 C 0.56529 0.17853 0.46151 0.0
C58 C 0.53477 0.1638 0.49444 0.0
C59 C 0.54759 0.01991 0.51599 0.0
O60 O 0.51938 0.953 0.4851 0.0
O61 O 0.48166 0.97168 0.47093 0.0
O62 O 0.61772 0.98067 0.46719 0.0
O63 O 0.61549 0.98624 0.49931 0.0
O64 O 0.62029 0.03683 0.45153 0.0
O65 O 0.55078 1.0057 0.45587 0.0
O66 O 0.61093 0.09242 0.47911 0.0
O67 O 0.65109 0.07141 0.48689 0.0
O68 O 0.49663 0.05134 0.48527 0.0
O69 O 0.53383 0.06766 0.45786 0.0
O70 O 0.51173 0.01347 0.5089 0.0
O71 O 0.57892 0.03693 0.50365 0.0
H72 H 0.62231 0.92514 0.45571 0.0
H73 H 0.57267 0.92062 0.51418 0.0
H74 H 0.5472 0.85433 0.51641 0.0
H75 H 0.5969 0.85884 0.45803 0.0
H76 H 0.50369 0.10624 0.50351 0.0
H77 H 0.55759 0.13207 0.4446 0.0
H78 H 0.58132 0.19833 0.44959 0.0
H79 H 0.5272 0.17222 0.50816 0.0
Gd80 Gd 0.64465 0.58928 0.83069 0.0
Gd81 Gd 0.58314 0.50421 0.83039 0.0
C82 C 0.5325 0.54261 0.83438 0.0
C83 C 0.68141 0.6607 0.82412 0.0
C84 C 0.66321 0.682 0.82364 0.0
C85 C 0.6814 0.71488 0.83669 0.0
C86 C 0.627 0.6693 0.81071 0.0
C87 C 0.6308 0.72453 0.82245 0.0
C88 C 0.61101 0.69042 0.81012 0.0
C89 C 0.66526 0.73595 0.83614 0.0
C90 C 0.63027 0.56173 0.8665 0.0
C91 C 0.69596 0.55124 0.83186 0.0
C92 C 0.54452 0.43167 0.83583 0.0
C93 C 0.55644 0.40556 0.83247 0.0
C94 C 0.54923 0.38668 0.81377 0.0
C95 C 0.57411 0.39846 0.84813 0.0
C96 C 0.57571 0.35315 0.82662 0.0
C97 C 0.58387 0.37274 0.84521 0.0
C98 C 0.55867 0.36078 0.81089 0.0
C99 C 0.59504 0.53215 0.79434 0.0
O100 O 0.57331 0.57481 0.82948 0.0
O101 O 0.52858 0.51104 0.83808 0.0
O102 O 0.68271 0.64977 0.84151 0.0
O103 O 0.6679 0.63385 0.80985 0.0
O104 O 0.6695 0.59224 0.86118 0.0
O105 O 0.60038 0.5485 0.85315 0.0
O106 O 0.65356 0.51787 0.83299 0.0
O107 O 0.70183 0.58413 0.82935 0.0
O108 O 0.53673 0.44309 0.82014 0.0
O109 O 0.56774 0.45967 0.84975 0.0
O110 O 0.55637 0.50295 0.80081 0.0
O111 O 0.62651 0.54503 0.807 0.0
H112 H 0.70874 0.72472 0.84705 0.0
H113 H 0.61142 0.64343 0.80083 0.0
H114 H 0.58387 0.68062 0.79964 0.0
H115 H 0.68123 0.7622 0.84577 0.0
H116 H 0.53554 0.39134 0.80137 0.0
H117 H 0.58007 0.41255 0.86272 0.0
H118 H 0.59767 0.36814 0.85758 0.0
H119 H 0.55124 0.34586 0.79644 0.0
C120 C 0.6839 0.13261 0.17019 0.0
C121 C 0.71781 0.16919 0.18035 0.0
C122 C 0.71397 0.17376 0.20077 0.0
C123 C 0.64723 0.10598 0.20146 0.0
C124 C 0.64852 0.10111 0.18117 0.0
C125 C 0.60916 0.05929 0.1738 0.0
H126 H 0.42671 0.87559 0.20171 0.0
C127 C 0.60931 0.06837 0.20921 0.0
C128 C 0.58588 0.04022 0.19318 0.0
H129 H 0.46517 0.90666 0.14137 0.0
H130 H 0.52923 0.97393 0.15325 0.0
H131 H 0.52067 0.91629 0.21939 0.0
H132 H 0.43582 0.94857 0.21458 0.0
H133 H 0.46214 0.96767 0.23808 0.0
H134 H 0.42701 0.91552 0.23232 0.0
H135 H 0.47481 0.89911 0.23565 0.0
H136 H 0.5314 0.94358 0.24156 0.0
C137 C 0.62804 0.04028 0.1636 0.0
C138 C 0.57831 0.06061 0.15987 0.0
C139 C 0.59219 0.05946 0.28414 0.0
C140 C 0.56045 0.02851 0.29601 0.0
C141 C 0.5252 0.99181 0.28683 0.0
C142 C 0.52165 0.98582 0.26622 0.0
C143 C 0.55356 0.01689 0.25447 0.0
C144 C 0.58782 0.05301 0.26343 0.0
C145 C 0.61789 0.08261 0.24847 0.0
C146 C 0.59631 0.05796 0.22906 0.0
C147 C 0.55909 0.0197 0.23278 0.0
C148 C 0.66626 0.0962 0.25204 0.0
C149 C 0.61396 0.11578 0.2506 0.0
C150 C 0.44849 0.89666 0.19086 0.0
C151 C 0.44032 0.88583 0.17064 0.0
C152 C 0.47061 0.91428 0.15715 0.0
C153 C 0.50752 0.95326 0.16404 0.0
C154 C 0.51415 0.96361 0.1846 0.0
C155 C 0.4844 0.93488 0.19737 0.0
C156 C 0.49405 0.94903 0.21856 0.0
C157 C 0.53474 0.99127 0.21693 0.0
C158 C 0.54738 1.00072 0.19708 0.0
C159 C 0.50557 0.92583 0.22952 0.0
C160 C 0.4527 0.94485 0.22648 0.0
H161 H 0.67951 0.1485 0.22682 0.0
H162 H 0.68568 0.12845 0.1544 0.0
H163 H 0.56903 0.07788 0.16714 0.0
H164 H 0.54641 0.03116 0.15589 0.0
H165 H 0.59583 0.07461 0.14599 0.0
H166 H 0.65344 0.04331 0.17349 0.0
H167 H 0.64478 0.05456 0.14965 0.0
H168 H 0.60135 1.00869 0.15998 0.0
H169 H 0.61948 0.0881 0.2908 0.0
H170 H 0.50073 0.96739 0.29566 0.0
H171 H 0.49417 0.95701 0.26032 0.0
H172 H 0.66495 0.07108 0.25569 0.0
H173 H 0.68395 0.11854 0.26461 0.0
H174 H 0.68748 0.10805 0.2389 0.0
H175 H 0.58219 0.1059 0.25785 0.0
H176 H 0.61221 0.12543 0.23606 0.0
H177 H 0.64262 0.14152 0.25965 0.0
H178 H 0.73882 0.20163 0.20881 0.0
C179 C 0.67925 0.14268 0.21127 0.0
C180 C 0.56853 0.60824 0.51835 0.0
C181 C 0.56978 0.63851 0.527 0.0
C182 C 0.57242 0.6446 0.54773 0.0
C183 C 0.57403 0.59109 0.55115 0.0
C184 C 0.57099 0.58503 0.53073 0.0
C185 C 0.57276 0.55291 0.52412 0.0
H186 H 0.57975 0.40956 0.54796 0.0
C187 C 0.57746 0.56289 0.55971 0.0
C188 C 0.57663 0.54038 0.54396 0.0
H189 H 0.57764 0.4441 0.48956 0.0
H190 H 0.57814 0.49589 0.50401 0.0
H191 H 0.65488 0.49748 0.56625 0.0
H192 H 0.50941 0.41784 0.56741 0.0
H193 H 0.52939 0.44142 0.59114 0.0
H194 H 0.54386 0.4115 0.58165 0.0
H195 H 0.62436 0.45592 0.58129 0.0
H196 H 0.64009 0.50253 0.59014 0.0
C197 C 0.61572 0.57096 0.51175 0.0
C198 C 0.52769 0.52017 0.51283 0.0
C199 C 0.59208 0.563 0.63453 0.0
C200 C 0.59385 0.5389 0.64663 0.0
C201 C 0.59163 0.50798 0.63788 0.0
C202 C 0.58824 0.50129 0.61725 0.0
C203 C 0.58655 0.52556 0.60524 0.0
C204 C 0.588 0.55556 0.6139 0.0
C205 C 0.58392 0.57724 0.59874 0.0
C206 C 0.58114 0.55603 0.57961 0.0
C207 C 0.58275 0.52588 0.58353 0.0
C208 C 0.62737 0.62067 0.60028 0.0
C209 C 0.53944 0.57097 0.60231 0.0
C210 C 0.57937 0.4284 0.53836 0.0
C211 C 0.57829 0.42294 0.5177 0.0
C212 C 0.57857 0.44812 0.50555 0.0
C213 C 0.57865 0.47795 0.51399 0.0
C214 C 0.57897 0.4827 0.53475 0.0
C215 C 0.58006 0.45854 0.54655 0.0
C216 C 0.58216 0.4688 0.56827 0.0
C217 C 0.58145 0.50281 0.56762 0.0
C218 C 0.57907 0.51045 0.54796 0.0
C219 C 0.62747 0.48164 0.57713 0.0
C220 C 0.53926 0.43311 0.5778 0.0
H221 H 0.57667 0.62711 0.57558 0.0
H222 H 0.56708 0.60357 0.50239 0.0
H223 H 0.49861 0.51565 0.52028 0.0
H224 H 0.51986 0.49134 0.51238 0.0
H225 H 0.52796 0.52794 0.49741 0.0
H226 H 0.64314 0.60213 0.51665 0.0
H227 H 0.60839 0.57006 0.49576 0.0
H228 H 0.63091 0.55647 0.51354 0.0
H229 H 0.59297 0.58655 0.64101 0.0
H230 H 0.59255 0.48897 0.64707 0.0
H231 H 0.58683 0.47734 0.61147 0.0
H232 H 0.65746 0.6231 0.60423 0.0
H233 H 0.62453 0.63783 0.61186 0.0
H234 H 0.63574 0.63504 0.58612 0.0
H235 H 0.51252 0.5411 0.60737 0.0
H236 H 0.52494 0.57266 0.58872 0.0
H237 H 0.54456 0.59242 0.61385 0.0
H238 H 0.57352 0.66811 0.55448 0.0
C239 C 0.57434 0.6209 0.55989 0.0
C240 C 0.22372 0.54699 0.84538 0.0
C241 C 0.25339 0.5432 0.85688 0.0
C242 C 0.24196 0.53534 0.87688 0.0
C243 C 0.18123 0.54026 0.87494 0.0
C244 C 0.18714 0.54504 0.85485 0.0
C245 C 0.14984 0.54724 0.84682 0.0
H246 H 0.97601 0.55933 0.87945 0.0
C247 C 0.14442 0.54158 0.88186 0.0
C248 C 0.12364 0.54514 0.86562 0.0
H249 H 0.98798 0.53895 0.81786 0.0
H250 H 0.05176 0.53863 0.82647 0.0
H251 H 0.97545 0.49399 0.89151 0.0
H252 H 0.07733 0.61838 0.89177 0.0
H253 H 0.08916 0.60599 0.91356 0.0
H254 H 1.03496 0.59497 0.91017 0.0
H255 H 0.97848 0.52662 0.9098 0.0
H256 H 1.00625 0.50583 0.91352 0.0
C257 C 0.11767 0.51214 0.83213 0.0
C258 C 0.17228 0.58591 0.83683 0.0
C259 C 0.11971 0.53494 0.9569 0.0
C260 C 0.09325 0.5399 0.96937 0.0
C261 C 0.06927 0.55065 0.96034 0.0
C262 C 0.06866 0.55336 0.93981 0.0
C263 C 0.09352 0.54668 0.92755 0.0
C264 C 0.11975 0.53911 0.93625 0.0
C265 C 0.14737 0.53678 0.9211 0.0
C266 C 0.13118 0.54165 0.90169 0.0
C267 C 0.09922 0.54695 0.90559 0.0
C268 C 0.13452 0.49554 0.92167 0.0
C269 C 0.1979 0.57201 0.92613 0.0
C270 C 0.9921 0.55543 0.86741 0.0
C271 C 0.97582 0.55005 0.84789 0.0
C272 C 0.99866 0.54359 0.83325 0.0
C273 C 1.03605 0.54353 0.8382 0.0
C274 C 0.05142 0.549 0.85822 0.0
C275 C 1.02751 0.55385 0.87206 0.0
C276 C 1.04103 0.5545 0.89268 0.0
C277 C 0.0769 0.54963 0.88981 0.0
C278 C 0.0864 0.54755 0.86951 0.0
C279 C 0.99836 0.51875 0.90258 0.0
C280 C 0.06138 0.59532 0.90273 0.0
H281 H 0.20445 0.52951 0.90106 0.0
H282 H 0.22917 0.55184 0.82974 0.0
H283 H 0.19574 0.61124 0.84748 0.0
H284 H 0.14627 0.58799 0.83153 0.0
H285 H 0.19192 0.58797 0.82394 0.0
H286 H 0.10155 0.48419 0.8394 0.0
H287 H 0.13645 0.51283 0.81922 0.0
H288 H 0.09054 0.51251 0.8266 0.0
H289 H 0.13957 0.52744 0.96283 0.0
H290 H 1.05066 0.55736 0.96902 0.0
H291 H 1.04826 0.56035 0.93439 0.0
H292 H 0.09951 0.47352 0.92686 0.0
H293 H 0.15771 0.49598 0.9318 0.0
H294 H 0.13409 0.48343 0.90681 0.0
H295 H 0.20171 0.5973 0.93338 0.0
H296 H 0.21874 0.58414 0.91285 0.0
H297 H 0.21318 0.56396 0.93639 0.0
H298 H 0.25964 0.52945 0.88636 0.0
C299 C 0.20804 0.53458 0.88567 0.0
C300 C 0.95101 0.41528 0.47064 0.0
C301 C 0.91432 0.37955 0.46077 0.0
C302 C 0.90688 0.37888 0.44039 0.0
C303 C 0.97418 0.44641 0.43912 0.0
C304 C 0.98065 0.4487 0.45941 0.0
C305 C 1.02226 0.48971 0.46655 0.0
H306 H 0.20362 0.67373 0.43842 0.0
C307 C 1.01191 0.48387 0.43105 0.0
C308 C 1.04057 0.51021 0.44698 0.0
H309 H 0.17094 0.63956 0.49864 0.0
H310 H 0.10596 0.57287 0.48671 0.0
H311 H 0.1897 0.59826 0.42332 0.0
H312 H 0.10853 0.63485 0.42211 0.0
H313 H 0.09879 0.61057 0.39894 0.0
H314 H 0.15538 0.65343 0.40623 0.0
H315 H 0.19753 0.63073 0.40548 0.0
H316 H 0.15944 0.57817 0.40067 0.0
C317 C 0.05579 0.48685 0.47712 0.0
C318 C 1.0066 0.50821 0.48009 0.0
C319 C 1.02529 0.49209 0.35566 0.0
C320 C 0.05936 0.52149 0.34365 0.0
C321 C 0.0965 0.55739 0.35277 0.0
C322 C 0.10019 0.56399 0.37338 0.0
C323 C 0.06667 0.53423 0.3853 0.0
C324 C 1.02998 0.49901 0.37645 0.0
C325 C 0.99878 0.47052 0.3917 0.0
C326 C 1.02317 0.49446 0.41105 0.0
C327 C 0.06247 0.53168 0.40711 0.0
C328 C 0.99735 0.43447 0.38897 0.0
C329 C 0.95225 0.46119 0.38912 0.0
C330 C 0.18234 0.65209 0.44913 0.0
C331 C 0.19182 0.66205 0.46939 0.0
C332 C 0.16397 0.63261 0.48285 0.0
C333 C 0.12622 0.59409 0.47592 0.0
C334 C 0.11671 0.58497 0.45533 0.0
C335 C 0.14548 0.61411 0.44253 0.0
C336 C 0.13312 0.60058 0.42126 0.0
C337 C 0.09058 0.55901 0.42293 0.0
C338 C 0.0804 0.54898 0.44287 0.0
C339 C 0.17186 0.60217 0.41203 0.0
C340 C 0.12369 0.62616 0.41145 0.0
H341 H 0.92854 0.40876 0.41411 0.0
H342 H 0.95704 0.41674 0.48641 0.0
H343 H 0.97893 0.50589 0.47265 0.0
H344 H 1.03397 0.53961 0.48378 0.0
H345 H 0.9936 0.49297 0.49415 0.0
H346 H 0.06227 0.4695 0.46762 0.0
H347 H 1.04202 0.47224 0.49129 0.0
H348 H 0.08883 0.51588 0.4804 0.0
H349 H 0.99645 0.46407 0.34908 0.0
H350 H 0.12288 0.58056 0.34386 0.0
H351 H 0.12934 0.59214 0.37919 0.0
H352 H 1.03134 0.44374 0.38532 0.0
H353 H 0.97344 0.41401 0.3767 0.0
H354 H 0.98829 0.41815 0.40246 0.0
H355 H 0.95568 0.4854 0.38224 0.0
H356 H 0.93631 0.45821 0.40347 0.0
H357 H 0.92851 0.43413 0.37952 0.0
H358 H 0.87853 0.35213 0.4326 0.0
C359 C 0.93619 0.41188 0.42963 0.0
C360 C 0.57565 0.93529 0.7918 0.0
C361 C 0.57628 0.90632 0.78258 0.0
C362 C 0.56853 0.8983 0.76197 0.0
C363 C 0.5649 0.95082 0.75954 0.0
C364 C 0.57003 0.95734 0.77994 0.0
C365 C 0.57091 0.99091 0.78686 0.0
H366 H 0.57958 0.14335 0.76283 0.0
C367 C 0.56388 0.98058 0.75126 0.0
C368 C 0.56701 1.00409 0.76718 0.0
H369 H 0.57885 0.10849 0.82153 0.0
H370 H 0.57136 0.05271 0.80737 0.0
H371 H 0.64341 0.12979 0.74364 0.0
H372 H 0.4985 0.0559 0.7455 0.0
H373 H 0.51106 0.04844 0.72159 0.0
H374 H 0.53089 0.09667 0.73 0.0
H375 H 0.6107 0.13678 0.7285 0.0
H376 H 0.62304 0.10475 0.72029 0.0
C377 C 0.61688 0.02261 0.79779 0.0
C378 C 0.52915 0.97454 0.79973 0.0
C379 C 0.56145 0.98845 0.67625 0.0
C380 C 0.56045 0.01333 0.6644 0.0
C381 C 0.56121 0.04323 0.67359 0.0
C382 C 0.56284 0.04841 0.69423 0.0
C383 C 0.56336 0.02322 0.70596 0.0
C384 C 0.56243 0.99371 0.697 0.0
C385 C 0.56211 0.96934 0.71203 0.0
C386 C 0.56304 0.98923 0.73138 0.0
C387 C 0.56423 0.02092 0.72766 0.0
C388 C 0.60581 0.97392 0.70962 0.0
C389 C 0.51753 0.92661 0.70901 0.0
C390 C 0.57814 0.12383 0.77262 0.0
C391 C 0.5806 0.13048 0.79325 0.0
C392 C 0.57729 0.10389 0.80556 0.0
C393 C 0.57302 0.07167 0.7973 0.0
C394 C 0.57163 0.06592 0.77654 0.0
C395 C 0.57341 0.09149 0.76464 0.0
C396 C 0.56988 0.08043 0.74298 0.0
C397 C 0.56692 0.04453 0.74368 0.0
C398 C 0.56802 0.03609 0.76334 0.0
C399 C 0.61372 0.11461 0.73317 0.0
C400 C 0.52555 0.07004 0.73438 0.0
H401 H 0.55774 0.91319 0.73476 0.0
H402 H 0.5814 0.94174 0.80766 0.0
H403 H 0.4995 0.94474 0.79396 0.0
H404 H 0.51764 0.99219 0.79958 0.0
H405 H 0.53609 0.97227 0.81529 0.0
H406 H 0.64493 0.02638 0.78971 0.0
H407 H 0.61711 0.01427 0.813 0.0
H408 H 0.62577 0.05184 0.79877 0.0
H409 H 0.56046 0.96499 0.66955 0.0
H410 H 0.56069 0.06281 0.6647 0.0
H411 H 0.56362 0.0719 0.70024 0.0
H412 H 0.63517 1.0048 0.70693 0.0
H413 H 0.60224 0.95516 0.69684 0.0
H414 H 0.61568 0.96714 0.72296 0.0
H415 H 0.48996 0.92563 0.70257 0.0
H416 H 0.50408 0.91199 0.72313 0.0
H417 H 0.52209 0.90874 0.69883 0.0
H418 H 0.56828 0.87557 0.75473 0.0
C419 C 0.56264 0.92026 0.75041 0.0
C420 C 0.6504 0.48704 0.13293 0.0
C421 C 0.68431 0.48622 0.12589 0.0
C422 C 0.69105 0.48599 0.10537 0.0
C423 C 0.62408 0.47949 0.09934 0.0
C424 C 0.6192 0.48113 0.11953 0.0
C425 C 0.57421 0.46907 0.12505 0.0
H426 H 0.40384 0.46379 0.10136 0.0
C427 C 0.58335 0.46955 0.08979 0.0
C428 C 0.55386 0.46278 0.10473 0.0
H429 H 0.44098 0.44848 0.15798 0.0
H430 H 0.48993 0.43871 0.14224 0.0
H431 H 0.49419 0.51813 0.08575 0.0
H432 H 0.40325 0.39278 0.07639 0.0
H433 H 0.43275 0.41103 0.05437 0.0
H434 H 0.39759 0.42345 0.06265 0.0
H435 H 0.4455 0.49232 0.06925 0.0
H436 H 0.49938 0.50764 0.06099 0.0
C437 C 0.5826 0.50385 0.1375 0.0
C438 C 0.54844 0.4301 0.13584 0.0
C439 C 0.57669 0.4774 0.01592 0.0
C440 C 0.54746 0.47798 0.00385 0.0
C441 C 0.50947 0.47217 0.01176 0.0
C442 C 0.50067 0.46591 0.03183 0.0
C443 C 0.53073 0.46625 0.04393 0.0
C444 C 0.56806 0.47204 0.036 0.0
C445 C 0.59811 0.4746 0.05141 0.0
C446 C 0.57212 0.46876 0.06984 0.0
C447 C 0.53246 0.46323 0.06527 0.0
C448 C 0.64496 0.51596 0.05144 0.0
C449 C 0.59951 0.44043 0.04705 0.0
C450 C 0.4208 0.45607 0.11003 0.0
C451 C 0.41949 0.45703 0.13075 0.0
C452 C 0.44183 0.44748 0.14193 0.0
C453 C 0.47079 0.4425 0.13276 0.0
C454 C 0.47734 0.44762 0.1124 0.0
C455 C 0.4502 0.45115 0.10105 0.0
C456 C 0.46235 0.45573 0.07957 0.0
C457 C 0.50285 0.45664 0.08039 0.0
C458 C 0.51228 0.45374 0.09978 0.0
C459 C 0.47582 0.4953 0.07337 0.0
C460 C 0.42199 0.41912 0.06746 0.0
H461 H 0.66634 0.48137 0.07642 0.0
H462 H 0.64452 0.48679 0.14867 0.0
H463 H 0.56364 0.41533 0.13346 0.0
H464 H 0.51307 0.40793 0.13012 0.0
H465 H 0.54842 0.43524 0.1521 0.0
H466 H 0.60877 0.53206 0.13069 0.0
H467 H 0.59482 0.50584 0.15276 0.0
H468 H 0.55256 0.50223 0.13867 0.0
H469 H 0.60672 0.48286 0.01004 0.0
H470 H 0.48713 0.4731 0.00243 0.0
H471 H 0.47166 0.46226 0.03721 0.0
H472 H 0.64126 0.53846 0.04827 0.0
H473 H 0.66674 0.51703 0.03995 0.0
H474 H 0.66328 0.52597 0.06588 0.0
H475 H 0.56579 0.41342 0.04162 0.0
H476 H 0.60759 0.4321 0.06038 0.0
H477 H 0.62432 0.44774 0.03549 0.0
H478 H 0.71711 0.48498 0.09974 0.0
C479 C 0.66109 0.48304 0.09194 0.0
H480 H 0.38154 0.6234 0.15397 0.0
H481 H 0.30248 0.5383 0.19797 0.0
H482 H 0.42132 0.59704 0.14789 0.0
H483 H 0.34214 0.51254 0.19191 0.0
H484 H 0.33654 0.43515 0.13849 0.0
H485 H 0.32133 0.47645 0.15546 0.0
H486 H 0.46506 0.5724 0.16135 0.0
H487 H 0.48 0.53105 0.14451 0.0
C488 C 0.3751 0.60123 0.16339 0.0
C489 C 0.33742 0.58152 0.17557 0.0
C490 C 0.39736 0.58579 0.15972 0.0
C491 C 0.38309 0.55202 0.16899 0.0
C492 C 0.35268 0.53818 0.18438 0.0
C493 C 0.33062 0.55362 0.18806 0.0
C494 C 0.36447 0.4649 0.14365 0.0
C495 C 0.40908 0.48028 0.14067 0.0
C496 C 0.35608 0.48828 0.15341 0.0
C497 C 0.39241 0.52704 0.16 0.0
C498 C 0.43696 0.54242 0.15662 0.0
C499 C 0.4453 0.51898 0.14706 0.0
H500 H 0.68495 0.15973 0.51188 0.0
H501 H 0.70776 0.13208 0.4536 0.0
H502 H 0.75304 0.22827 0.50983 0.0
H503 H 0.77415 0.20039 0.45088 0.0
H504 H 0.90997 0.31628 0.45369 0.0
H505 H 0.84874 0.24897 0.46128 0.0
H506 H 0.78513 0.28802 0.49499 0.0
H507 H 0.84792 0.35593 0.48774 0.0
C508 C 0.70487 0.16844 0.49869 0.0
C509 C 0.69189 0.14067 0.48306 0.0
C510 C 0.74364 0.20778 0.49738 0.0
C511 C 0.76993 0.2203 0.48027 0.0
C512 C 0.75606 0.19209 0.46458 0.0
C513 C 0.7178 0.15283 0.46603 0.0
C514 C 0.88369 0.31057 0.46333 0.0
C515 C 0.88409 0.34146 0.47033 0.0
C516 C 0.84793 0.27178 0.46738 0.0
C517 C 0.81096 0.26244 0.47839 0.0
C518 C 0.81283 0.29374 0.4865 0.0
C519 C 0.84899 0.33283 0.48248 0.0
H520 H 0.61606 0.76295 0.85043 0.0
H521 H 0.62121 0.74565 0.78728 0.0
H522 H 0.60528 0.81142 0.8444 0.0
H523 H 0.60964 0.79281 0.78138 0.0
H524 H 0.64771 0.90879 0.77602 0.0
H525 H 0.66143 0.86622 0.7889 0.0
H526 H 0.54642 0.81542 0.8265 0.0
H527 H 0.53301 0.85895 0.81361 0.0
C528 C 0.61445 0.76922 0.83533 0.0
C529 C 0.61943 0.75056 0.81931 0.0
C530 C 0.60813 0.7967 0.83191 0.0
C531 C 0.60738 0.80613 0.81247 0.0
C532 C 0.61087 0.7865 0.79654 0.0
C533 C 0.61688 0.75909 0.79991 0.0
C534 C 0.626 0.88911 0.78736 0.0
C535 C 0.58892 0.88639 0.79364 0.0
C536 C 0.63372 0.86475 0.79467 0.0
C537 C 0.60428 0.83701 0.80829 0.0
C538 C 0.56939 0.83653 0.81591 0.0
C539 C 0.56172 0.86125 0.80858 0.0
H540 H 0.8303 0.47164 0.2121 0.0
H541 H 0.82365 0.4126 0.15761 0.0
H542 H 0.76379 0.46341 0.20138 0.0
H543 H 0.75645 0.4035 0.14709 0.0
H544 H 0.77275 0.51832 0.12981 0.0
H545 H 0.80318 0.49489 0.15043 0.0
H546 H 0.67053 0.40755 0.17308 0.0
H547 H 0.63963 0.4299 0.15227 0.0
C548 C 0.81195 0.45346 0.19877 0.0
C549 C 0.83227 0.44391 0.18527 0.0
C550 C 0.7742 0.44911 0.19258 0.0
C551 C 0.75648 0.4337 0.17337 0.0
C552 C 0.77016 0.41542 0.16201 0.0
C553 C 0.80819 0.42018 0.16813 0.0
C554 C 0.75041 0.4944 0.13931 0.0
C555 C 0.70427 0.47597 0.13958 0.0
C556 C 0.76752 0.4811 0.151 0.0
C557 C 0.73844 0.44928 0.16288 0.0
C558 C 0.69288 0.43195 0.16386 0.0
C559 C 0.67568 0.44505 0.15212 0.0
H560 H 0.40735 0.90778 0.45309 0.0
H561 H 0.45868 0.8876 0.50304 0.0
H562 H 0.33801 0.84056 0.45268 0.0
H563 H 0.38783 0.8211 0.50393 0.0
H564 H 0.27018 0.69043 0.4898 0.0
H565 H 0.34004 0.75811 0.49235 0.0
H566 H 0.2706 0.79496 0.46496 0.0
H567 H 0.20253 0.7272 0.46133 0.0
C568 C 0.40341 0.88903 0.46423 0.0
C569 C 0.43859 0.90311 0.47808 0.0
C570 C 0.36314 0.85025 0.46421 0.0
C571 C 0.356 0.82452 0.47847 0.0
C572 C 0.39148 0.83908 0.49244 0.0
C573 C 0.43231 0.87757 0.49206 0.0
C574 C 0.26992 0.71329 0.48473 0.0
C575 C 0.23081 0.70351 0.47549 0.0
C576 C 0.31015 0.75239 0.48612 0.0
C577 C 0.31217 0.78291 0.47854 0.0
C578 C 0.27179 0.77288 0.47039 0.0
C579 C 0.23209 0.73388 0.46867 0.0
H580 H 0.56072 0.30058 0.85287 0.0
H581 H 0.60695 0.33847 0.79378 0.0
H582 H 0.56847 0.24995 0.84741 0.0
H583 H 0.61086 0.28589 0.78772 0.0
H584 H 0.64443 0.20587 0.78392 0.0
H585 H 0.64924 0.26229 0.7942 0.0
H586 H 0.53251 0.18896 0.83052 0.0
H587 H 0.5295 0.13304 0.82085 0.0
C588 C 0.57284 0.29836 0.83875 0.0
C589 C 0.583 0.32364 0.82374 0.0
C590 C 0.57657 0.26881 0.8355 0.0
C591 C 0.59002 0.26346 0.81708 0.0
C592 C 0.60104 0.28929 0.80222 0.0
C593 C 0.59802 0.31917 0.80558 0.0
C594 C 0.62029 0.20212 0.79434 0.0
C595 C 0.58643 0.16521 0.80152 0.0
C596 C 0.62272 0.23432 0.80012 0.0
C597 C 0.59078 0.23023 0.81294 0.0
C598 C 0.55801 0.19347 0.82078 0.0
C599 C 0.55609 0.16133 0.81523 0.0
H600 H 0.53275 0.78621 0.46249 0.0
H601 H 0.5997 0.83881 0.51975 0.0
H602 H 0.53351 0.73148 0.46742 0.0
H603 H 0.59988 0.78467 0.52469 0.0
H604 H 0.64196 0.713 0.52166 0.0
H605 H 0.64137 0.76308 0.50801 0.0
H606 H 0.49931 0.67534 0.49224 0.0
H607 H 0.50043 0.62493 0.50562 0.0
C608 C 0.54712 0.78581 0.47614 0.0
C609 C 0.56582 0.81645 0.49083 0.0
C610 C 0.54757 0.75469 0.47893 0.0
C611 C 0.56749 0.75444 0.49625 0.0
C612 C 0.58512 0.78462 0.51103 0.0
C613 C 0.58431 0.81526 0.50835 0.0
C614 C 0.61109 0.70441 0.5147 0.0
C615 C 0.57116 0.66568 0.51475 0.0
C616 C 0.61064 0.73288 0.50699 0.0
C617 C 0.57005 0.72299 0.4995 0.0
C618 C 0.53094 0.68354 0.49795 0.0
C619 C 0.53151 0.65487 0.5056 0.0
H620 H 0.78871 0.61365 0.8405 0.0
H621 H 0.69953 0.48898 0.82799 0.0
H622 H 0.85291 0.61351 0.8439 0.0
H623 H 0.76368 0.4887 0.83107 0.0
H624 H 0.89571 0.50052 0.82333 0.0
H625 H 0.83107 0.50035 0.81982 0.0
H626 H 0.89719 0.60133 0.86072 0.0
H627 H 0.961 0.60108 0.86431 0.0
C628 C 0.78233 0.58596 0.83829 0.0
C629 C 0.73735 0.55139 0.83372 0.0
C630 C 0.81989 0.58577 0.84041 0.0
C631 C 0.81554 0.55108 0.83774 0.0
C632 C 0.77043 0.51654 0.8331 0.0
C633 C 0.73274 0.51664 0.83137 0.0
C634 C 0.89711 0.52314 0.83146 0.0
C635 C 0.93558 0.55108 0.844 0.0
C636 C 0.85905 0.52285 0.8296 0.0
C637 C 0.85701 0.55097 0.83982 0.0
C638 C 0.89582 0.5791 0.85217 0.0
C639 C 0.93326 0.57887 0.85433 0.0
H640 H 0.16837 0.6627 0.16016 0.0
H641 H 0.25369 0.6291 0.15743 0.0
H642 H 0.23369 0.73058 0.16033 0.0
H643 H 0.32083 0.69886 0.15845 0.0
H644 H 0.43196 0.82972 0.14537 0.0
H645 H 0.36603 0.75964 0.1414 0.0
H646 H 0.29173 0.77999 0.18088 0.0
H647 H 0.35547 0.84905 0.18362 0.0
C648 C 0.20125 0.66969 0.15964 0.0
C649 C 0.20539 0.63994 0.15865 0.0
C650 C 0.23915 0.70915 0.15995 0.0
C651 C 0.28307 0.72078 0.15955 0.0
C652 C 0.2876 0.69116 0.15856 0.0
C653 C 0.24915 0.65114 0.15816 0.0
C654 C 0.40093 0.81917 0.15263 0.0
C655 C 0.39901 0.84505 0.16476 0.0
C656 C 0.36341 0.77888 0.1507 0.0
C657 C 0.32324 0.76368 0.16087 0.0
C658 C 0.32134 0.79013 0.17247 0.0
C659 C 0.35823 0.83001 0.17415 0.0
H660 H 0.49145 0.19653 0.47439 0.0
H661 H 0.63395 0.26404 0.48808 0.0
H662 H 0.49768 0.25503 0.4805 0.0
H663 H 0.64038 0.32301 0.49463 0.0
H664 H 0.63481 0.4254 0.4914 0.0
H665 H 0.63146 0.37003 0.47893 0.0
H666 H 0.51156 0.29182 0.5126 0.0
H667 H 0.51501 0.34676 0.52487 0.0
C668 C 0.52419 0.2242 0.47851 0.0
C669 C 0.56218 0.22625 0.48092 0.0
C670 C 0.52777 0.25751 0.48204 0.0
C671 C 0.5694 0.29332 0.4882 0.0
C672 C 0.60801 0.29574 0.48974 0.0
C673 C 0.60438 0.26223 0.48613 0.0
C674 C 0.60759 0.39619 0.49586 0.0
C675 C 0.57517 0.38998 0.50904 0.0
C676 C 0.60584 0.36475 0.48888 0.0
C677 C 0.57118 0.32679 0.49477 0.0
C678 C 0.53831 0.32072 0.50764 0.0
C679 C 0.54039 0.35206 0.51475 0.0
H680 H 0.47997 0.54325 0.80535 0.0
H681 H 0.48916 0.54158 0.86847 0.0
H682 H 0.41563 0.54363 0.80891 0.0
H683 H 0.42552 0.54226 0.87225 0.0
H684 H 0.33255 0.57454 0.87887 0.0
H685 H 0.39332 0.57197 0.8735 0.0
H686 H 0.34007 0.52053 0.81465 0.0
H687 H 0.27618 0.52126 0.82055 0.0
C688 C 0.46862 0.54311 0.82011 0.0
C689 C 0.49132 0.54258 0.83655 0.0
C690 C 0.43082 0.54314 0.82222 0.0
C691 C 0.41357 0.54346 0.84098 0.0
C692 C 0.43653 0.54277 0.85738 0.0
C693 C 0.4737 0.54208 0.85523 0.0
C694 C 0.33224 0.56172 0.86471 0.0
C695 C 0.29637 0.54701 0.85055 0.0
C696 C 0.36844 0.56033 0.86157 0.0
C697 C 0.37327 0.54516 0.84368 0.0
C698 C 0.33899 0.53231 0.82888 0.0
C699 C 0.30165 0.53296 0.83223 0.0
H700 H 0.96232 0.40324 0.1884 0.0
H701 H 0.93835 0.38859 0.12519 0.0
H702 H 0.89598 0.33478 0.19179 0.0
H703 H 0.87104 0.31987 0.12848 0.0
H704 H 0.72443 0.21341 0.15069 0.0
H705 H 0.7926 0.27922 0.14295 0.0
H706 H 0.87196 0.26879 0.183 0.0
H707 H 0.80448 0.20356 0.19047 0.0
C708 C 0.9424 0.38535 0.17525 0.0
C709 C 0.95499 0.40121 0.15657 0.0
C710 C 0.90462 0.34602 0.17713 0.0
C711 C 0.87803 0.32165 0.16038 0.0
C712 C 0.8905 0.3378 0.14168 0.0
C713 C 0.92898 0.37706 0.13977 0.0
C714 C 0.7568 0.22471 0.15721 0.0
C715 C 0.75916 0.20322 0.17108 0.0
C716 C 0.7958 0.26254 0.15295 0.0
C717 C 0.8377 0.27967 0.16264 0.0
C718 C 0.84026 0.25697 0.17554 0.0
C719 C 0.80166 0.21932 0.17962 0.0
H720 H 0.1393 0.55025 0.09935 0.0
H721 H 0.9964 0.48789 0.091 0.0
H722 H 0.14817 0.55249 0.06341 0.0
H723 H 1.00338 0.48577 0.0555 0.0
H724 H 1.02405 0.52053 0.99396 0.0
H725 H 1.01998 0.51717 0.02887 0.0
H726 H 0.14506 0.53407 0.03122 0.0
H727 H 0.15279 0.54373 0.99586 0.0
C728 C 0.10956 0.53608 0.08975 0.0
C729 C 0.06718 0.51925 0.09797 0.0
C730 C 0.11448 0.53718 0.06899 0.0
C731 C 0.07683 0.52047 0.05588 0.0
C732 C 1.03404 0.5011 0.06452 0.0
C733 C 1.02958 0.50148 0.0851 0.0
C734 C 0.05192 0.52503 0.00166 0.0
C735 C 0.0896 0.53383 0.99146 0.0
C736 C 1.04868 0.5216 0.02215 0.0
C737 C 0.08165 0.52452 0.0336 0.0
C738 C 0.11886 0.532 0.0234 0.0
C739 C 0.12299 0.53696 0.00276 0.0
H740 H 0.64487 0.08386 0.42116 0.0
H741 H 0.50735 0.97622 0.41955 0.0
H742 H 0.63918 0.08923 0.38585 0.0
H743 H 0.50216 0.97985 0.38388 0.0
H744 H 0.49367 1.00709 0.32168 0.0
H745 H 0.49768 0.00992 0.35775 0.0
H746 H 0.63919 0.06192 0.35565 0.0
H747 H 0.63521 0.06051 0.31965 0.0
C748 C 0.61338 0.0613 0.41314 0.0
C749 C 0.57662 0.02959 0.42296 0.0
C750 C 0.61019 0.06412 0.39286 0.0
C751 C 0.57044 0.03472 0.38178 0.0
C752 C 0.53315 1.00341 0.39185 0.0
C753 C 0.53607 1.00113 0.41229 0.0
C754 C 0.52568 0.01947 0.32903 0.0
C755 C 0.56412 0.03353 0.31792 0.0
C756 C 0.52797 0.02085 0.34971 0.0
C757 C 0.56866 0.03586 0.35978 0.0
C758 C 0.60739 0.05075 0.34856 0.0
C759 C 0.6052 0.04988 0.32788 0.0
H760 H 0.53376 0.52693 0.7714 0.0
H761 H 0.66831 0.56207 0.77064 0.0
H762 H 0.53597 0.53533 0.73599 0.0
H763 H 0.67007 0.569 0.73474 0.0
H764 H 0.66591 0.5967 0.67036 0.0
H765 H 0.67011 0.60227 0.70679 0.0
H766 H 0.53027 0.49767 0.70778 0.0
H767 H 0.52652 0.49275 0.67166 0.0
C768 C 0.564 0.53674 0.7636 0.0
C769 C 0.60062 0.54339 0.77365 0.0
C770 C 0.56519 0.5413 0.74328 0.0
C771 C 0.60275 0.55195 0.73237 0.0
C772 C 0.64062 0.56086 0.74267 0.0
C773 C 0.63966 0.55684 0.7632 0.0
C774 C 0.63611 0.57538 0.67853 0.0
C775 C 0.59584 0.5444 0.66842 0.0
C776 C 0.63853 0.57832 0.69932 0.0
C777 C 0.6005 0.55052 0.71028 0.0
C778 C 0.56004 0.52001 0.69992 0.0
C779 C 0.55782 0.51695 0.67924 0.0
H780 H 0.52756 0.05021 0.54529 0.0
H781 H 0.58313 0.99048 0.535 0.0
H782 H 0.53242 0.04699 0.58081 0.0
H783 H 0.58571 0.98491 0.57085 0.0
H784 H 0.61833 0.01463 0.63916 0.0
H785 H 0.61839 0.01644 0.60292 0.0
H786 H 0.49402 1.00074 0.60447 0.0
H787 H 0.49561 1.00096 0.64039 0.0
C788 C 0.54072 0.03622 0.55072 0.0
C789 C 0.55483 0.0205 0.53747 0.0
C790 C 0.54306 0.03391 0.57111 0.0
C791 C 0.55832 0.01472 0.57885 0.0
C792 C 0.57384 0.99997 0.56552 0.0
C793 C 0.57239 1.00311 0.54499 0.0
C794 C 0.59089 0.01118 0.63159 0.0
C795 C 0.55729 1.00821 0.64249 0.0
C796 C 0.59083 0.01217 0.61084 0.0
C797 C 0.55684 0.00979 0.60067 0.0
C798 C 0.52173 1.00419 0.61171 0.0
C799 C 0.52225 1.00385 0.63231 0.0
H800 H 0.55405 0.49321 0.87817 0.0
H801 H 0.68362 0.59955 0.89955 0.0
H802 H 0.5361 0.47074 0.91181 0.0
H803 H 0.66448 0.57771 0.93339 0.0
H804 H 0.56714 0.54162 0.98785 0.0
H805 H 0.59086 0.56153 0.95398 0.0
H806 H 0.57805 0.45771 0.94056 0.0
H807 H 0.55523 0.43819 0.97471 0.0
C808 C 0.57882 0.51145 0.89003 0.0
C809 C 0.62033 0.54781 0.88643 0.0
C810 C 0.56854 0.49864 0.90915 0.0
C811 C 0.59916 0.52264 0.92482 0.0
C812 C 0.64073 0.55891 0.92128 0.0
C813 C 0.65154 0.57127 0.90207 0.0
C814 C 0.56924 0.52311 0.97755 0.0
C815 C 0.55914 0.48837 0.98344 0.0
C816 C 0.58309 0.53458 0.95842 0.0
C817 C 0.58624 0.51104 0.94505 0.0
C818 C 0.57571 0.47606 0.95086 0.0
C819 C 0.56268 0.46495 0.97015 0.0
H820 H 0.14165 0.56287 0.22127 0.0
H821 H 1.00154 0.45991 0.21554 0.0
H822 H 0.13527 0.56489 0.25739 0.0
H823 H 0.9946 0.4621 0.25157 0.0
H824 H 0.99287 0.50151 0.31693 0.0
H825 H 0.99566 0.49942 0.28059 0.0
H826 H 0.1259 0.52598 0.28478 0.0
H827 H 0.12323 0.52873 0.32089 0.0
C828 C 0.10925 0.54117 0.22774 0.0
C829 C 0.07202 0.51138 0.21561 0.0
C830 C 0.10563 0.54199 0.24844 0.0
C831 C 0.06445 0.51345 0.2575 0.0
C832 C 1.02678 0.4846 0.2452 0.0
C833 C 1.03073 0.48328 0.22455 0.0
C834 C 1.0217 0.50634 0.31 0.0
C835 C 0.05789 0.51541 0.3217 0.0
C836 C 1.02344 0.50527 0.28919 0.0
C837 C 0.06136 0.51312 0.27966 0.0
C838 C 0.09672 0.5208 0.29151 0.0
C839 C 0.09506 0.52206 0.31222 0.0
loop_
_geom_bond_atom_site_label_1
_geom_bond_atom_site_label_2
_geom_bond_distance
_geom_bond_site_symmetry_2
_ccdc_geom_bond_type
Gd0 C3 2.818 . S
Gd0 O20 2.377 . S
Gd0 O22 2.448 . S
Gd0 O23 2.506 . S
Gd0 O24 2.435 . S
Gd0 O25 2.717 . S
Gd0 O27 2.395 1_455 S
Gd0 O31 2.327 . S
Gd1 C12 2.818 1_455 S
Gd1 O21 2.395 . S
Gd1 O25 2.327 . S
Gd1 O26 2.377 1_455 S
Gd1 O28 2.448 1_455 S
Gd1 O29 2.506 1_455 S
Gd1 O30 2.435 . S
Gd1 O31 2.717 . S
C2 O20 1.240 . S
C2 O21 1.240 . S
C3 Gd0 2.818 . S
C3 C4 1.510 . S
C3 O22 1.249 . S
C3 O23 1.252 . S
C4 C3 1.510 . S
C4 C5 1.404 . S
C4 C6 1.352 . S
C5 C4 1.404 . S
C5 C9 1.389 . S
C5 H32 0.930 . S
C6 C4 1.352 . S
C6 C8 1.374 . S
C6 H33 0.931 . S
C7 C8 1.359 . S
C7 C9 1.364 . S
C8 C6 1.374 . S
C8 C7 1.359 . S
C8 H34 0.931 . S
C9 C5 1.389 . S
C9 C7 1.364 . S
C9 H35 0.931 . S
C10 O24 1.256 . S
C10 O25 1.257 . S
C11 O26 1.240 . S
C11 O27 1.240 . S
C12 Gd1 2.818 1_655 S
C12 C13 1.510 . S
C12 O28 1.249 . S
C12 O29 1.252 . S
C13 C12 1.510 . S
C13 C14 1.404 . S
C13 C15 1.352 . S
C14 C13 1.404 . S
C14 C18 1.389 . S
C14 H36 0.930 . S
C15 C13 1.352 . S
C15 C17 1.374 . S
C15 H37 0.931 . S
C16 C17 1.359 . S
C16 C18 1.364 . S
C17 C15 1.374 . S
C17 C16 1.359 . S
C17 H38 0.931 . S
C18 C14 1.389 . S
C18 C16 1.364 . S
C18 H39 0.931 . S
C19 O30 1.256 . S
C19 O31 1.257 . S
O20 Gd0 2.377 . S
O20 C2 1.240 . S
O21 Gd1 2.395 . S
O21 C2 1.240 . S
O22 Gd0 2.448 . S
O22 C3 1.249 . S
O23 Gd0 2.506 . S
O23 C3 1.252 . S
O24 Gd0 2.435 . S
O24 C10 1.256 . S
O25 Gd0 2.717 . S
O25 Gd1 2.327 . S
O25 C10 1.257 . S
O26 Gd1 2.377 1_655 S
O26 C11 1.240 . S
O27 Gd0 2.395 1_655 S
O27 C11 1.240 . S
O28 Gd1 2.448 1_655 S
O28 C12 1.249 . S
O29 Gd1 2.506 1_655 S
O29 C12 1.252 . S
O30 Gd1 2.435 . S
O30 C19 1.256 . S
O31 Gd0 2.327 . S
O31 Gd1 2.717 . S
O31 C19 1.257 . S
H32 C5 0.930 . S
H33 C6 0.931 . S
H34 C8 0.931 . S
H35 C9 0.931 . S
H36 C14 0.930 . S
H37 C15 0.931 . S
H38 C17 0.931 . S
H39 C18 0.931 . S
Gd40 C43 2.818 . S
Gd40 O60 2.377 . S
Gd40 O62 2.448 . S
Gd40 O63 2.506 . S
Gd40 O64 2.435 . S
Gd40 O65 2.717 1_565 S
Gd40 O67 2.395 1_565 S
Gd40 O71 2.327 1_565 S
Gd41 C52 2.818 . S
Gd41 O61 2.395 1_545 S
Gd41 O65 2.327 . S
Gd41 O66 2.377 . S
Gd41 O68 2.448 . S
Gd41 O69 2.506 . S
Gd41 O70 2.435 . S
Gd41 O71 2.717 . S
C42 O60 1.240 . S
C42 O61 1.240 . S
C43 Gd40 2.818 . S
C43 C44 1.510 . S
C43 O62 1.249 . S
C43 O63 1.252 . S
C44 C43 1.510 . S
C44 C45 1.404 . S
C44 C46 1.352 . S
C45 C44 1.404 . S
C45 C49 1.389 . S
C45 H72 0.930 . S
C46 C44 1.352 . S
C46 C48 1.374 . S
C46 H73 0.931 . S
C47 C48 1.359 . S
C47 C49 1.364 . S
C48 C46 1.374 . S
C48 C47 1.359 . S
C48 H74 0.931 . S
C49 C45 1.389 . S
C49 C47 1.364 . S
C49 H75 0.931 . S
C50 O64 1.256 1_545 S
C50 O65 1.257 . S
C51 O66 1.240 . S
C51 O67 1.240 . S
C52 Gd41 2.818 . S
C52 C53 1.510 . S
C52 O68 1.249 . S
C52 O69 1.252 . S
C53 C52 1.510 . S
C53 C54 1.404 . S
C53 C55 1.352 . S
C54 C53 1.404 . S
C54 C58 1.389 . S
C54 H76 0.930 . S
C55 C53 1.352 . S
C55 C57 1.374 . S
C55 H77 0.931 . S
C56 C57 1.359 . S
C56 C58 1.364 . S
C57 C55 1.374 . S
C57 C56 1.359 . S
C57 H78 0.931 . S
C58 C54 1.389 . S
C58 C56 1.364 . S
C58 H79 0.931 . S
C59 O70 1.256 . S
C59 O71 1.257 . S
O60 Gd40 2.377 . S
O60 C42 1.240 . S
O61 Gd41 2.395 1_565 S
O61 C42 1.240 . S
O62 Gd40 2.448 . S
O62 C43 1.249 . S
O63 Gd40 2.506 . S
O63 C43 1.252 . S
O64 Gd40 2.435 . S
O64 C50 1.256 1_565 S
O65 Gd40 2.717 1_545 S
O65 Gd41 2.327 . S
O65 C50 1.257 . S
O66 Gd41 2.377 . S
O66 C51 1.240 . S
O67 Gd40 2.395 1_545 S
O67 C51 1.240 . S
O68 Gd41 2.448 . S
O68 C52 1.249 . S
O69 Gd41 2.506 . S
O69 C52 1.252 . S
O70 Gd41 2.435 . S
O70 C59 1.256 . S
O71 Gd40 2.327 1_545 S
O71 Gd41 2.717 . S
O71 C59 1.257 . S
H72 C45 0.930 . S
H73 C46 0.931 . S
H74 C48 0.931 . S
H75 C49 0.931 . S
H76 C54 0.930 . S
H77 C55 0.931 . S
H78 C57 0.931 . S
H79 C58 0.931 . S
Gd80 C83 2.818 . S
Gd80 O100 2.377 . S
Gd80 O102 2.448 . S
Gd80 O103 2.506 . S
Gd80 O104 2.435 . S
Gd80 O105 2.717 . S
Gd80 O107 2.395 . S
Gd80 O111 2.327 . S
Gd81 C92 2.818 . S
Gd81 O101 2.395 . S
Gd81 O105 2.327 . S
Gd81 O106 2.377 . S
Gd81 O108 2.448 . S
Gd81 O109 2.506 . S
Gd81 O110 2.435 . S
Gd81 O111 2.717 . S
C82 O100 1.240 . S
C82 O101 1.240 . S
C83 Gd80 2.818 . S
C83 C84 1.510 . S
C83 O102 1.249 . S
C83 O103 1.252 . S
C84 C83 1.510 . S
C84 C85 1.404 . S
C84 C86 1.352 . S
C85 C84 1.404 . S
C85 C89 1.389 . S
C85 H112 0.930 . S
C86 C84 1.352 . S
C86 C88 1.374 . S
C86 H113 0.931 . S
C87 C88 1.359 . S
C87 C89 1.364 . S
C88 C86 1.374 . S
C88 C87 1.359 . S
C88 H114 0.931 . S
C89 C85 1.389 . S
C89 C87 1.364 . S
C89 H115 0.931 . S
C90 O104 1.256 . S
C90 O105 1.257 . S
C91 O106 1.240 . S
C91 O107 1.240 . S
C92 Gd81 2.818 . S
C92 C93 1.510 . S
C92 O108 1.249 . S
C92 O109 1.252 . S
C93 C92 1.510 . S
C93 C94 1.404 . S
C93 C95 1.352 . S
C94 C93 1.404 . S
C94 C98 1.389 . S
C94 H116 0.930 . S
C95 C93 1.352 . S
C95 C97 1.374 . S
C95 H117 0.931 . S
C96 C97 1.359 . S
C96 C98 1.364 . S
C97 C95 1.374 . S
C97 C96 1.359 . S
C97 H118 0.931 . S
C98 C94 1.389 . S
C98 C96 1.364 . S
C98 H119 0.931 . S
C99 O110 1.256 . S
C99 O111 1.257 . S
O100 Gd80 2.377 . S
O100 C82 1.240 . S
O101 Gd81 2.395 . S
O101 C82 1.240 . S
O102 Gd80 2.448 . S
O102 C83 1.249 . S
O103 Gd80 2.506 . S
O103 C83 1.252 . S
O104 Gd80 2.435 . S
O104 C90 1.256 . S
O105 Gd80 2.717 . S
O105 Gd81 2.327 . S
O105 C90 1.257 . S
O106 Gd81 2.377 . S
O106 C91 1.240 . S
O107 Gd80 2.395 . S
O107 C91 1.240 . S
O108 Gd81 2.448 . S
O108 C92 1.249 . S
O109 Gd81 2.506 . S
O109 C92 1.252 . S
O110 Gd81 2.435 . S
O110 C99 1.256 . S
O111 Gd80 2.327 . S
O111 Gd81 2.717 . S
O111 C99 1.257 . S
H112 C85 0.930 . S
H113 C86 0.931 . S
H114 C88 0.931 . S
H115 C89 0.931 . S
H116 C94 0.930 . S
H117 C95 0.931 . S
H118 C97 0.931 . S
H119 C98 0.931 . S
C120 C121 1.391 . S
C120 C124 1.391 . S
C120 H162 0.948 . S
C121 C120 1.391 . S
C121 C122 1.391 . S
C122 C121 1.391 . S
C122 H178 0.947 . S
C122 C179 1.392 . S
C123 C124 1.391 . S
C123 C127 1.397 . S
C123 C179 1.419 . S
C124 C120 1.391 . S
C124 C123 1.391 . S
C124 C125 1.399 . S
C125 C124 1.399 . S
C125 C128 1.396 . S
C125 C137 1.453 . S
C125 C138 1.684 . S
H126 C150 0.948 . S
C127 C123 1.397 . S
C127 C128 1.394 . S
C127 C146 1.723 . S
C128 C125 1.396 . S
C128 C127 1.394 . S
C128 C158 1.723 1_545 S
H129 C152 0.947 . S
H130 C153 0.948 . S
H131 C159 0.982 . S
H132 C160 0.979 . S
H133 C160 0.980 . S
H134 C160 0.983 . S
H135 C159 0.979 . S
H136 C159 0.977 . S
C137 C125 1.453 . S
C137 H166 0.982 . S
C137 H167 0.979 . S
C137 H168 0.977 . S
C138 C125 1.684 . S
C138 H163 0.979 . S
C138 H164 0.980 . S
C138 H165 0.983 . S
C139 C140 1.391 . S
C139 C144 1.391 . S
C139 H169 0.948 . S
C140 C139 1.391 . S
C140 C141 1.391 1_545 S
C141 C140 1.391 1_565 S
C141 C142 1.392 . S
C141 H170 0.947 . S
C142 C141 1.392 . S
C142 C143 1.419 1_565 S
C142 H171 0.948 . S
C143 C142 1.419 1_545 S
C143 C144 1.391 . S
C143 C147 1.397 . S
C144 C139 1.391 . S
C144 C143 1.391 . S
C144 C145 1.399 . S
C145 C144 1.399 . S
C145 C146 1.396 . S
C145 C148 1.453 . S
C145 C149 1.684 . S
C146 C127 1.723 . S
C146 C145 1.396 . S
C146 C147 1.394 . S
C147 C143 1.397 . S
C147 C146 1.394 . S
C147 C157 1.723 1_545 S
C148 C145 1.453 . S
C148 H172 0.982 . S
C148 H173 0.979 . S
C148 H174 0.977 . S
C149 C145 1.684 . S
C149 H175 0.979 . S
C149 H176 0.980 . S
C149 H177 0.983 . S
C150 H126 0.948 . S
C150 C151 1.391 . S
C150 C155 1.391 . S
C151 C150 1.391 . S
C151 C152 1.391 . S
C152 H129 0.947 . S
C152 C151 1.391 . S
C152 C153 1.392 . S
C153 H130 0.948 . S
C153 C152 1.392 . S
C153 C154 1.419 . S
C154 C153 1.419 . S
C154 C155 1.391 . S
C154 C158 1.397 . S
C155 C150 1.391 . S
C155 C154 1.391 . S
C155 C156 1.399 . S
C156 C155 1.399 . S
C156 C157 1.396 . S
C156 C159 1.453 . S
C156 C160 1.684 . S
C157 C147 1.723 1_565 S
C157 C156 1.396 . S
C157 C158 1.394 . S
C158 C128 1.723 1_565 S
C158 C154 1.397 . S
C158 C157 1.394 . S
C159 H131 0.982 . S
C159 H135 0.979 . S
C159 H136 0.977 . S
C159 C156 1.453 . S
C160 H132 0.979 . S
C160 H133 0.980 . S
C160 H134 0.983 . S
C160 C156 1.684 . S
H161 C179 0.948 . S
H162 C120 0.948 . S
H163 C138 0.979 . S
H164 C138 0.980 . S
H165 C138 0.983 . S
H166 C137 0.982 . S
H167 C137 0.979 . S
H168 C137 0.977 . S
H169 C139 0.948 . S
H170 C141 0.947 . S
H171 C142 0.948 . S
H172 C148 0.982 . S
H173 C148 0.979 . S
H174 C148 0.977 . S
H175 C149 0.979 . S
H176 C149 0.980 . S
H177 C149 0.983 . S
H178 C122 0.947 . S
C179 C122 1.392 . S
C179 C123 1.419 . S
C179 H161 0.948 . S
C180 C181 1.391 . S
C180 C184 1.391 . S
C180 H222 0.948 . S
C181 C180 1.391 . S
C181 C182 1.391 . S
C182 C181 1.391 . S
C182 H238 0.947 . S
C182 C239 1.392 . S
C183 C184 1.391 . S
C183 C187 1.397 . S
C183 C239 1.419 . S
C184 C180 1.391 . S
C184 C183 1.391 . S
C184 C185 1.399 . S
C185 C184 1.399 . S
C185 C188 1.396 . S
C185 C197 1.453 . S
C185 C198 1.684 . S
H186 C210 0.948 . S
C187 C183 1.397 . S
C187 C188 1.394 . S
C187 C206 1.723 . S
C188 C185 1.396 . S
C188 C187 1.394 . S
C188 C218 1.723 . S
H189 C212 0.947 . S
H190 C213 0.948 . S
H191 C219 0.982 . S
H192 C220 0.979 . S
H193 C220 0.980 . S
H194 C220 0.983 . S
H195 C219 0.979 . S
H196 C219 0.977 . S
C197 C185 1.453 . S
C197 H226 0.982 . S
C197 H227 0.979 . S
C197 H228 0.977 . S
C198 C185 1.684 . S
C198 H223 0.979 . S
C198 H224 0.980 . S
C198 H225 0.983 . S
C199 C200 1.391 . S
C199 C204 1.391 . S
C199 H229 0.948 . S
C200 C199 1.391 . S
C200 C201 1.391 . S
C201 C200 1.391 . S
C201 C202 1.392 . S
C201 H230 0.947 . S
C202 C201 1.392 . S
C202 C203 1.419 . S
C202 H231 0.948 . S
C203 C202 1.419 . S
C203 C204 1.391 . S
C203 C207 1.397 . S
C204 C199 1.391 . S
C204 C203 1.391 . S
C204 C205 1.399 . S
C205 C204 1.399 . S
C205 C206 1.396 . S
C205 C208 1.453 . S
C205 C209 1.684 . S
C206 C187 1.723 . S
C206 C205 1.396 . S
C206 C207 1.394 . S
C207 C203 1.397 . S
C207 C206 1.394 . S
C207 C217 1.723 . S
C208 C205 1.453 . S
C208 H232 0.982 . S
C208 H233 0.979 . S
C208 H234 0.977 . S
C209 C205 1.684 . S
C209 H235 0.979 . S
C209 H236 0.980 . S
C209 H237 0.983 . S
C210 H186 0.948 . S
C210 C211 1.391 . S
C210 C215 1.391 . S
C211 C210 1.391 . S
C211 C212 1.391 . S
C212 H189 0.947 . S
C212 C211 1.391 . S
C212 C213 1.392 . S
C213 H190 0.948 . S
C213 C212 1.392 . S
C213 C214 1.419 . S
C214 C213 1.419 . S
C214 C215 1.391 . S
C214 C218 1.397 . S
C215 C210 1.391 . S
C215 C214 1.391 . S
C215 C216 1.399 . S
C216 C215 1.399 . S
C216 C217 1.396 . S
C216 C219 1.453 . S
C216 C220 1.684 . S
C217 C207 1.723 . S
C217 C216 1.396 . S
C217 C218 1.394 . S
C218 C188 1.723 . S
C218 C214 1.397 . S
C218 C217 1.394 . S
C219 H191 0.982 . S
C219 H195 0.979 . S
C219 H196 0.977 . S
C219 C216 1.453 . S
C220 H192 0.979 . S
C220 H193 0.980 . S
C220 H194 0.983 . S
C220 C216 1.684 . S
H221 C239 0.948 . S
H222 C180 0.948 . S
H223 C198 0.979 . S
H224 C198 0.980 . S
H225 C198 0.983 . S
H226 C197 0.982 . S
H227 C197 0.979 . S
H228 C197 0.977 . S
H229 C199 0.948 . S
H230 C201 0.947 . S
H231 C202 0.948 . S
H232 C208 0.982 . S
H233 C208 0.979 . S
H234 C208 0.977 . S
H235 C209 0.979 . S
H236 C209 0.980 . S
H237 C209 0.983 . S
H238 C182 0.947 . S
C239 C182 1.392 . S
C239 C183 1.419 . S
C239 H221 0.948 . S
C240 C241 1.391 . S
C240 C244 1.391 . S
C240 H282 0.948 . S
C241 C240 1.391 . S
C241 C242 1.391 . S
C242 C241 1.391 . S
C242 H298 0.947 . S
C242 C299 1.392 . S
C243 C244 1.391 . S
C243 C247 1.397 . S
C243 C299 1.419 . S
C244 C240 1.391 . S
C244 C243 1.391 . S
C244 C245 1.399 . S
C245 C244 1.399 . S
C245 C248 1.396 . S
C245 C257 1.453 . S
C245 C258 1.684 . S
H246 C270 0.948 . S
C247 C243 1.397 . S
C247 C248 1.394 . S
C247 C266 1.723 . S
C248 C245 1.396 . S
C248 C247 1.394 . S
C248 C278 1.723 . S
H249 C272 0.947 . S
H250 C273 0.948 . S
H251 C279 0.982 . S
H252 C280 0.979 1_455 S
H253 C280 0.980 . S
H254 C280 0.983 . S
H255 C279 0.979 . S
H256 C279 0.977 . S
C257 C245 1.453 . S
C257 H286 0.982 . S
C257 H287 0.979 . S
C257 H288 0.977 . S
C258 C245 1.684 . S
C258 H283 0.979 . S
C258 H284 0.980 . S
C258 H285 0.983 . S
C259 C260 1.391 . S
C259 C264 1.391 . S
C259 H289 0.948 . S
C260 C259 1.391 . S
C260 C261 1.391 . S
C261 C260 1.391 . S
C261 C262 1.392 . S
C261 H290 0.947 . S
C262 C261 1.392 . S
C262 C263 1.419 . S
C262 H291 0.948 . S
C263 C262 1.419 . S
C263 C264 1.391 . S
C263 C267 1.397 . S
C264 C259 1.391 . S
C264 C263 1.391 . S
C264 C265 1.399 . S
C265 C264 1.399 . S
C265 C266 1.396 . S
C265 C268 1.453 . S
C265 C269 1.684 . S
C266 C247 1.723 . S
C266 C265 1.396 . S
C266 C267 1.394 . S
C267 C263 1.397 . S
C267 C266 1.394 . S
C267 C277 1.723 . S
C268 C265 1.453 . S
C268 H292 0.982 . S
C268 H293 0.979 . S
C268 H294 0.977 . S
C269 C265 1.684 . S
C269 H295 0.979 . S
C269 H296 0.980 . S
C269 H297 0.983 . S
C270 H246 0.948 . S
C270 C271 1.391 . S
C270 C275 1.391 . S
C271 C270 1.391 . S
C271 C272 1.391 . S
C272 H249 0.947 . S
C272 C271 1.391 . S
C272 C273 1.392 1_655 S
C273 H250 0.948 . S
C273 C272 1.392 1_455 S
C273 C274 1.419 . S
C274 C273 1.419 . S
C274 C275 1.391 1_455 S
C274 C278 1.397 . S
C275 C270 1.391 . S
C275 C274 1.391 1_655 S
C275 C276 1.399 . S
C276 C275 1.399 . S
C276 C277 1.396 1_655 S
C276 C279 1.453 . S
C276 C280 1.684 . S
C277 C267 1.723 . S
C277 C276 1.396 1_455 S
C277 C278 1.394 . S
C278 C248 1.723 . S
C278 C274 1.397 . S
C278 C277 1.394 . S
C279 H251 0.982 . S
C279 H255 0.979 . S
C279 H256 0.977 . S
C279 C276 1.453 . S
C280 H252 0.979 1_655 S
C280 H253 0.980 . S
C280 H254 0.983 . S
C280 C276 1.684 . S
H281 C299 0.948 . S
H282 C240 0.948 . S
H283 C258 0.979 . S
H284 C258 0.980 . S
H285 C258 0.983 . S
H286 C257 0.982 . S
H287 C257 0.979 . S
H288 C257 0.977 . S
H289 C259 0.948 . S
H290 C261 0.947 . S
H291 C262 0.948 . S
H292 C268 0.982 . S
H293 C268 0.979 . S
H294 C268 0.977 . S
H295 C269 0.979 . S
H296 C269 0.980 . S
H297 C269 0.983 . S
H298 C242 0.947 . S
C299 C242 1.392 . S
C299 C243 1.419 . S
C299 H281 0.948 . S
C300 C301 1.391 . S
C300 C304 1.391 . S
C300 H342 0.948 . S
C301 C300 1.391 . S
C301 C302 1.391 . S
C302 C301 1.391 . S
C302 H358 0.947 . S
C302 C359 1.392 . S
C303 C304 1.391 . S
C303 C307 1.397 . S
C303 C359 1.419 . S
C304 C300 1.391 . S
C304 C303 1.391 . S
C304 C305 1.399 . S
C305 C304 1.399 . S
C305 C308 1.396 . S
C305 C317 1.453 . S
C305 C318 1.684 . S
H306 C330 0.948 . S
C307 C303 1.397 . S
C307 C308 1.394 . S
C307 C326 1.723 . S
C308 C305 1.396 . S
C308 C307 1.394 . S
C308 C338 1.723 1_655 S
H309 C332 0.947 . S
H310 C333 0.948 . S
H311 C339 0.982 . S
H312 C340 0.979 . S
H313 C340 0.980 . S
H314 C340 0.983 . S
H315 C339 0.979 . S
H316 C339 0.977 . S
C317 C305 1.453 . S
C317 H346 0.982 1_655 S
C317 H347 0.979 . S
C317 H348 0.977 1_655 S
C318 C305 1.684 . S
C318 H343 0.979 . S
C318 H344 0.980 . S
C318 H345 0.983 . S
C319 C320 1.391 1_655 S
C319 C324 1.391 . S
C319 H349 0.948 . S
C320 C319 1.391 1_455 S
C320 C321 1.391 . S
C321 C320 1.391 . S
C321 C322 1.392 . S
C321 H350 0.947 . S
C322 C321 1.392 . S
C322 C323 1.419 . S
C322 H351 0.948 . S
C323 C322 1.419 . S
C323 C324 1.391 1_455 S
C323 C327 1.397 . S
C324 C319 1.391 . S
C324 C323 1.391 1_655 S
C324 C325 1.399 . S
C325 C324 1.399 . S
C325 C326 1.396 . S
C325 C328 1.453 . S
C325 C329 1.684 . S
C326 C307 1.723 . S
C326 C325 1.396 . S
C326 C327 1.394 1_655 S
C327 C323 1.397 . S
C327 C326 1.394 1_455 S
C327 C337 1.723 . S
C328 C325 1.453 . S
C328 H352 0.982 . S
C328 H353 0.979 . S
C328 H354 0.977 . S
C329 C325 1.684 . S
C329 H355 0.979 . S
C329 H356 0.980 . S
C329 H357 0.983 . S
C330 H306 0.948 . S
C330 C331 1.391 . S
C330 C335 1.391 . S
C331 C330 1.391 . S
C331 C332 1.391 . S
C332 H309 0.947 . S
C332 C331 1.391 . S
C332 C333 1.392 . S
C333 H310 0.948 . S
C333 C332 1.392 . S
C333 C334 1.419 . S
C334 C333 1.419 . S
C334 C335 1.391 . S
C334 C338 1.397 . S
C335 C330 1.391 . S
C335 C334 1.391 . S
C335 C336 1.399 . S
C336 C335 1.399 . S
C336 C337 1.396 . S
C336 C339 1.453 . S
C336 C340 1.684 . S
C337 C327 1.723 . S
C337 C336 1.396 . S
C337 C338 1.394 . S
C338 C308 1.723 1_455 S
C338 C334 1.397 . S
C338 C337 1.394 . S
C339 H311 0.982 . S
C339 H315 0.979 . S
C339 H316 0.977 . S
C339 C336 1.453 . S
C340 H312 0.979 . S
C340 H313 0.980 . S
C340 H314 0.983 . S
C340 C336 1.684 . S
H341 C359 0.948 . S
H342 C300 0.948 . S
H343 C318 0.979 . S
H344 C318 0.980 . S
H345 C318 0.983 . S
H346 C317 0.982 1_455 S
H347 C317 0.979 . S
H348 C317 0.977 1_455 S
H349 C319 0.948 . S
H350 C321 0.947 . S
H351 C322 0.948 . S
H352 C328 0.982 . S
H353 C328 0.979 . S
H354 C328 0.977 . S
H355 C329 0.979 . S
H356 C329 0.980 . S
H357 C329 0.983 . S
H358 C302 0.947 . S
C359 C302 1.392 . S
C359 C303 1.419 . S
C359 H341 0.948 . S
C360 C361 1.391 . S
C360 C364 1.391 . S
C360 H402 0.948 . S
C361 C360 1.391 . S
C361 C362 1.391 . S
C362 C361 1.391 . S
C362 H418 0.947 . S
C362 C419 1.392 . S
C363 C364 1.391 . S
C363 C367 1.397 . S
C363 C419 1.419 . S
C364 C360 1.391 . S
C364 C363 1.391 . S
C364 C365 1.399 . S
C365 C364 1.399 . S
C365 C368 1.396 . S
C365 C377 1.453 1_565 S
C365 C378 1.684 . S
H366 C390 0.948 . S
C367 C363 1.397 . S
C367 C368 1.394 . S
C367 C386 1.723 . S
C368 C365 1.396 . S
C368 C367 1.394 . S
C368 C398 1.723 1_565 S
H369 C392 0.947 . S
H370 C393 0.948 . S
H371 C399 0.982 . S
H372 C400 0.979 . S
H373 C400 0.980 . S
H374 C400 0.983 . S
H375 C399 0.979 . S
H376 C399 0.977 . S
C377 C365 1.453 1_545 S
C377 H406 0.982 . S
C377 H407 0.972 1_545 S
C377 H408 0.977 . S
C378 C365 1.684 . S
C378 H403 0.979 . S
C378 H404 0.980 . S
C378 H405 0.983 . S
C379 C380 1.391 . S
C379 C384 1.391 . S
C379 H409 0.948 . S
C380 C379 1.391 . S
C380 C381 1.391 1_565 S
C381 C380 1.391 1_545 S
C381 C382 1.392 . S
C381 H410 0.947 . S
C382 C381 1.392 . S
C382 C383 1.419 . S
C382 H411 0.948 . S
C383 C382 1.419 . S
C383 C384 1.391 1_545 S
C383 C387 1.397 . S
C384 C379 1.391 . S
C384 C383 1.391 1_565 S
C384 C385 1.399 . S
C385 C384 1.399 . S
C385 C386 1.396 . S
C385 C388 1.453 . S
C385 C389 1.684 . S
C386 C367 1.723 . S
C386 C385 1.396 . S
C386 C387 1.394 1_565 S
C387 C383 1.397 . S
C387 C386 1.394 1_545 S
C387 C397 1.723 . S
C388 C385 1.453 . S
C388 H412 0.982 . S
C388 H413 0.979 . S
C388 H414 0.977 . S
C389 C385 1.684 . S
C389 H415 0.979 . S
C389 H416 0.980 . S
C389 H417 0.983 . S
C390 H366 0.948 . S
C390 C391 1.391 . S
C390 C395 1.391 . S
C391 C390 1.391 . S
C391 C392 1.391 . S
C392 H369 0.947 . S
C392 C391 1.391 . S
C392 C393 1.392 . S
C393 H370 0.948 . S
C393 C392 1.392 . S
C393 C394 1.419 . S
C394 C393 1.419 . S
C394 C395 1.391 . S
C394 C398 1.397 . S
C395 C390 1.391 . S
C395 C394 1.391 . S
C395 C396 1.399 . S
C396 C395 1.399 . S
C396 C397 1.396 . S
C396 C399 1.453 . S
C396 C400 1.684 . S
C397 C387 1.723 . S
C397 C396 1.396 . S
C397 C398 1.394 . S
C398 C368 1.723 1_545 S
C398 C394 1.397 . S
C398 C397 1.394 . S
C399 H371 0.982 . S
C399 H375 0.979 . S
C399 H376 0.977 . S
C399 C396 1.453 . S
C400 H372 0.979 . S
C400 H373 0.980 . S
C400 H374 0.983 . S
C400 C396 1.684 . S
H401 C419 0.948 . S
H402 C360 0.948 . S
H403 C378 0.979 . S
H404 C378 0.980 . S
H405 C378 0.983 . S
H406 C377 0.982 . S
H407 C377 0.972 1_565 S
H408 C377 0.977 . S
H409 C379 0.948 . S
H410 C381 0.947 . S
H411 C382 0.948 . S
H412 C388 0.982 . S
H413 C388 0.979 . S
H414 C388 0.977 . S
H415 C389 0.979 . S
H416 C389 0.980 . S
H417 C389 0.983 . S
H418 C362 0.947 . S
C419 C362 1.392 . S
C419 C363 1.419 . S
C419 H401 0.948 . S
C420 C421 1.391 . S
C420 C424 1.391 . S
C420 H462 0.948 . S
C421 C420 1.391 . S
C421 C422 1.391 . S
C422 C421 1.391 . S
C422 H478 0.947 . S
C422 C479 1.392 . S
C423 C424 1.391 . S
C423 C427 1.397 . S
C423 C479 1.419 . S
C424 C420 1.391 . S
C424 C423 1.391 . S
C424 C425 1.399 . S
C425 C424 1.399 . S
C425 C428 1.396 . S
C425 C437 1.453 . S
C425 C438 1.684 . S
H426 C450 0.948 . S
C427 C423 1.397 . S
C427 C428 1.394 . S
C427 C446 1.723 . S
C428 C425 1.396 . S
C428 C427 1.394 . S
C428 C458 1.723 . S
H429 C452 0.947 . S
H430 C453 0.948 . S
H431 C459 0.982 . S
H432 C460 0.979 . S
H433 C460 0.980 . S
H434 C460 0.983 . S
H435 C459 0.979 . S
H436 C459 0.977 . S
C437 C425 1.453 . S
C437 H466 0.982 . S
C437 H467 0.979 . S
C437 H468 0.977 . S
C438 C425 1.684 . S
C438 H463 0.979 . S
C438 H464 0.980 . S
C438 H465 0.983 . S
C439 C440 1.391 . S
C439 C444 1.391 . S
C439 H469 0.948 . S
C440 C439 1.391 . S
C440 C441 1.391 . S
C441 C440 1.391 . S
C441 C442 1.392 . S
C441 H470 0.947 . S
C442 C441 1.392 . S
C442 C443 1.419 . S
C442 H471 0.948 . S
C443 C442 1.419 . S
C443 C444 1.391 . S
C443 C447 1.397 . S
C444 C439 1.391 . S
C444 C443 1.391 . S
C444 C445 1.399 . S
C445 C444 1.399 . S
C445 C446 1.396 . S
C445 C448 1.453 . S
C445 C449 1.684 . S
C446 C427 1.723 . S
C446 C445 1.396 . S
C446 C447 1.394 . S
C447 C443 1.397 . S
C447 C446 1.394 . S
C447 C457 1.723 . S
C448 C445 1.453 . S
C448 H472 0.982 . S
C448 H473 0.979 . S
C448 H474 0.977 . S
C449 C445 1.684 . S
C449 H475 0.979 . S
C449 H476 0.980 . S
C449 H477 0.983 . S
C450 H426 0.948 . S
C450 C451 1.391 . S
C450 C455 1.391 . S
C451 C450 1.391 . S
C451 C452 1.391 . S
C452 H429 0.947 . S
C452 C451 1.391 . S
C452 C453 1.392 . S
C453 H430 0.948 . S
C453 C452 1.392 . S
C453 C454 1.419 . S
C454 C453 1.419 . S
C454 C455 1.391 . S
C454 C458 1.397 . S
C455 C450 1.391 . S
C455 C454 1.391 . S
C455 C456 1.399 . S
C456 C455 1.399 . S
C456 C457 1.396 . S
C456 C459 1.453 . S
C456 C460 1.684 . S
C457 C447 1.723 . S
C457 C456 1.396 . S
C457 C458 1.394 . S
C458 C428 1.723 . S
C458 C454 1.397 . S
C458 C457 1.394 . S
C459 H431 0.982 . S
C459 H435 0.979 . S
C459 H436 0.977 . S
C459 C456 1.453 . S
C460 H432 0.979 . S
C460 H433 0.980 . S
C460 H434 0.983 . S
C460 C456 1.684 . S
H461 C479 0.948 . S
H462 C420 0.948 . S
H463 C438 0.979 . S
H464 C438 0.980 . S
H465 C438 0.983 . S
H466 C437 0.982 . S
H467 C437 0.979 . S
H468 C437 0.977 . S
H469 C439 0.948 . S
H470 C441 0.947 . S
H471 C442 0.948 . S
H472 C448 0.982 . S
H473 C448 0.979 . S
H474 C448 0.977 . S
H475 C449 0.979 . S
H476 C449 0.980 . S
H477 C449 0.983 . S
H478 C422 0.947 . S
C479 C422 1.392 . S
C479 C423 1.419 . S
C479 H461 0.948 . S
H480 C488 0.950 . S
H481 C493 0.950 . S
H482 C490 0.950 . S
H483 C492 0.950 . S
H484 C494 0.950 . S
H485 C496 0.950 . S
H486 C498 0.950 . S
H487 C499 0.950 . S
C488 H480 0.950 . S
C488 C489 1.386 . S
C488 C490 1.391 . S
C489 C488 1.386 . S
C489 C493 1.393 . S
C490 H482 0.950 . S
C490 C488 1.391 . S
C490 C491 1.400 . S
C491 C490 1.400 . S
C491 C492 1.398 . S
C491 C497 1.491 . S
C492 H483 0.950 . S
C492 C491 1.398 . S
C492 C493 1.391 . S
C493 H481 0.950 . S
C493 C489 1.393 . S
C493 C492 1.391 . S
C494 H484 0.950 . S
C494 C495 1.386 . S
C494 C496 1.391 . S
C495 C494 1.386 . S
C495 C499 1.393 . S
C496 H485 0.950 . S
C496 C494 1.391 . S
C496 C497 1.400 . S
C497 C491 1.491 . S
C497 C496 1.400 . S
C497 C498 1.398 . S
C498 H486 0.950 . S
C498 C497 1.398 . S
C498 C499 1.391 . S
C499 H487 0.950 . S
C499 C495 1.393 . S
C499 C498 1.391 . S
H500 C508 0.950 . S
H501 C513 0.950 . S
H502 C510 0.950 . S
H503 C512 0.950 . S
H504 C514 0.950 . S
H505 C516 0.950 . S
H506 C518 0.950 . S
H507 C519 0.950 . S
C508 H500 0.950 . S
C508 C509 1.386 . S
C508 C510 1.391 . S
C509 C508 1.386 . S
C509 C513 1.393 . S
C510 H502 0.950 . S
C510 C508 1.391 . S
C510 C511 1.400 . S
C511 C510 1.400 . S
C511 C512 1.398 . S
C511 C517 1.491 . S
C512 H503 0.950 . S
C512 C511 1.398 . S
C512 C513 1.391 . S
C513 H501 0.950 . S
C513 C509 1.393 . S
C513 C512 1.391 . S
C514 H504 0.950 . S
C514 C515 1.386 . S
C514 C516 1.391 . S
C515 C514 1.386 . S
C515 C519 1.393 . S
C516 H505 0.950 . S
C516 C514 1.391 . S
C516 C517 1.400 . S
C517 C511 1.491 . S
C517 C516 1.400 . S
C517 C518 1.398 . S
C518 H506 0.950 . S
C518 C517 1.398 . S
C518 C519 1.391 . S
C519 H507 0.950 . S
C519 C515 1.393 . S
C519 C518 1.391 . S
H520 C528 0.950 . S
H521 C533 0.950 . S
H522 C530 0.950 . S
H523 C532 0.950 . S
H524 C534 0.950 . S
H525 C536 0.950 . S
H526 C538 0.950 . S
H527 C539 0.950 . S
C528 H520 0.950 . S
C528 C529 1.386 . S
C528 C530 1.391 . S
C529 C528 1.386 . S
C529 C533 1.393 . S
C530 H522 0.950 . S
C530 C528 1.391 . S
C530 C531 1.400 . S
C531 C530 1.400 . S
C531 C532 1.398 . S
C531 C537 1.491 . S
C532 H523 0.950 . S
C532 C531 1.398 . S
C532 C533 1.391 . S
C533 H521 0.950 . S
C533 C529 1.393 . S
C533 C532 1.391 . S
C534 H524 0.950 . S
C534 C535 1.386 . S
C534 C536 1.391 . S
C535 C534 1.386 . S
C535 C539 1.393 . S
C536 H525 0.950 . S
C536 C534 1.391 . S
C536 C537 1.400 . S
C537 C531 1.491 . S
C537 C536 1.400 . S
C537 C538 1.398 . S
C538 H526 0.950 . S
C538 C537 1.398 . S
C538 C539 1.391 . S
C539 H527 0.950 . S
C539 C535 1.393 . S
C539 C538 1.391 . S
H540 C548 0.950 . S
H541 C553 0.950 . S
H542 C550 0.950 . S
H543 C552 0.950 . S
H544 C554 0.950 . S
H545 C556 0.950 . S
H546 C558 0.950 . S
H547 C559 0.950 . S
C548 H540 0.950 . S
C548 C549 1.386 . S
C548 C550 1.391 . S
C549 C548 1.386 . S
C549 C553 1.393 . S
C550 H542 0.950 . S
C550 C548 1.391 . S
C550 C551 1.400 . S
C551 C550 1.400 . S
C551 C552 1.398 . S
C551 C557 1.491 . S
C552 H543 0.950 . S
C552 C551 1.398 . S
C552 C553 1.391 . S
C553 H541 0.950 . S
C553 C549 1.393 . S
C553 C552 1.391 . S
C554 H544 0.950 . S
C554 C555 1.386 . S
C554 C556 1.391 . S
C555 C554 1.386 . S
C555 C559 1.393 . S
C556 H545 0.950 . S
C556 C554 1.391 . S
C556 C557 1.400 . S
C557 C551 1.491 . S
C557 C556 1.400 . S
C557 C558 1.398 . S
C558 H546 0.950 . S
C558 C557 1.398 . S
C558 C559 1.391 . S
C559 H547 0.950 . S
C559 C555 1.393 . S
C559 C558 1.391 . S
H560 C568 0.950 . S
H561 C573 0.950 . S
H562 C570 0.950 . S
H563 C572 0.950 . S
H564 C574 0.950 . S
H565 C576 0.950 . S
H566 C578 0.950 . S
H567 C579 0.950 . S
C568 H560 0.950 . S
C568 C569 1.386 . S
C568 C570 1.391 . S
C569 C568 1.386 . S
C569 C573 1.393 . S
C570 H562 0.950 . S
C570 C568 1.391 . S
C570 C571 1.400 . S
C571 C570 1.400 . S
C571 C572 1.398 . S
C571 C577 1.491 . S
C572 H563 0.950 . S
C572 C571 1.398 . S
C572 C573 1.391 . S
C573 H561 0.950 . S
C573 C569 1.393 . S
C573 C572 1.391 . S
C574 H564 0.950 . S
C574 C575 1.386 . S
C574 C576 1.391 . S
C575 C574 1.386 . S
C575 C579 1.393 . S
C576 H565 0.950 . S
C576 C574 1.391 . S
C576 C577 1.400 . S
C577 C571 1.491 . S
C577 C576 1.400 . S
C577 C578 1.398 . S
C578 H566 0.950 . S
C578 C577 1.398 . S
C578 C579 1.391 . S
C579 H567 0.950 . S
C579 C575 1.393 . S
C579 C578 1.391 . S
H580 C588 0.950 . S
H581 C593 0.950 . S
H582 C590 0.950 . S
H583 C592 0.950 . S
H584 C594 0.950 . S
H585 C596 0.950 . S
H586 C598 0.950 . S
H587 C599 0.950 . S
C588 H580 0.950 . S
C588 C589 1.386 . S
C588 C590 1.391 . S
C589 C588 1.386 . S
C589 C593 1.393 . S
C590 H582 0.950 . S
C590 C588 1.391 . S
C590 C591 1.400 . S
C591 C590 1.400 . S
C591 C592 1.398 . S
C591 C597 1.491 . S
C592 H583 0.950 . S
C592 C591 1.398 . S
C592 C593 1.391 . S
C593 H581 0.950 . S
C593 C589 1.393 . S
C593 C592 1.391 . S
C594 H584 0.950 . S
C594 C595 1.386 . S
C594 C596 1.391 . S
C595 C594 1.386 . S
C595 C599 1.393 . S
C596 H585 0.950 . S
C596 C594 1.391 . S
C596 C597 1.400 . S
C597 C591 1.491 . S
C597 C596 1.400 . S
C597 C598 1.398 . S
C598 H586 0.950 . S
C598 C597 1.398 . S
C598 C599 1.391 . S
C599 H587 0.950 . S
C599 C595 1.393 . S
C599 C598 1.391 . S
H600 C608 0.950 . S
H601 C613 0.950 . S
H602 C610 0.950 . S
H603 C612 0.950 . S
H604 C614 0.950 . S
H605 C616 0.950 . S
H606 C618 0.950 . S
H607 C619 0.950 . S
C608 H600 0.950 . S
C608 C609 1.386 . S
C608 C610 1.391 . S
C609 C608 1.386 . S
C609 C613 1.393 . S
C610 H602 0.950 . S
C610 C608 1.391 . S
C610 C611 1.400 . S
C611 C610 1.400 . S
C611 C612 1.398 . S
C611 C617 1.491 . S
C612 H603 0.950 . S
C612 C611 1.398 . S
C612 C613 1.391 . S
C613 H601 0.950 . S
C613 C609 1.393 . S
C613 C612 1.391 . S
C614 H604 0.950 . S
C614 C615 1.386 . S
C614 C616 1.391 . S
C615 C614 1.386 . S
C615 C619 1.393 . S
C616 H605 0.950 . S
C616 C614 1.391 . S
C616 C617 1.400 . S
C617 C611 1.491 . S
C617 C616 1.400 . S
C617 C618 1.398 . S
C618 H606 0.950 . S
C618 C617 1.398 . S
C618 C619 1.391 . S
C619 H607 0.950 . S
C619 C615 1.393 . S
C619 C618 1.391 . S
H620 C628 0.950 . S
H621 C633 0.950 . S
H622 C630 0.950 . S
H623 C632 0.950 . S
H624 C634 0.950 . S
H625 C636 0.950 . S
H626 C638 0.950 . S
H627 C639 0.950 . S
C628 H620 0.950 . S
C628 C629 1.386 . S
C628 C630 1.391 . S
C629 C628 1.386 . S
C629 C633 1.393 . S
C630 H622 0.950 . S
C630 C628 1.391 . S
C630 C631 1.400 . S
C631 C630 1.400 . S
C631 C632 1.398 . S
C631 C637 1.491 . S
C632 H623 0.950 . S
C632 C631 1.398 . S
C632 C633 1.391 . S
C633 H621 0.950 . S
C633 C629 1.393 . S
C633 C632 1.391 . S
C634 H624 0.950 . S
C634 C635 1.386 . S
C634 C636 1.391 . S
C635 C634 1.386 . S
C635 C639 1.393 . S
C636 H625 0.950 . S
C636 C634 1.391 . S
C636 C637 1.400 . S
C637 C631 1.491 . S
C637 C636 1.400 . S
C637 C638 1.398 . S
C638 H626 0.950 . S
C638 C637 1.398 . S
C638 C639 1.391 . S
C639 H627 0.950 . S
C639 C635 1.393 . S
C639 C638 1.391 . S
H640 C648 0.950 . S
H641 C653 0.950 . S
H642 C650 0.950 . S
H643 C652 0.950 . S
H644 C654 0.950 . S
H645 C656 0.950 . S
H646 C658 0.950 . S
H647 C659 0.950 . S
C648 H640 0.950 . S
C648 C649 1.386 . S
C648 C650 1.391 . S
C649 C648 1.386 . S
C649 C653 1.393 . S
C650 H642 0.950 . S
C650 C648 1.391 . S
C650 C651 1.400 . S
C651 C650 1.400 . S
C651 C652 1.398 . S
C651 C657 1.491 . S
C652 H643 0.950 . S
C652 C651 1.398 . S
C652 C653 1.391 . S
C653 H641 0.950 . S
C653 C649 1.393 . S
C653 C652 1.391 . S
C654 H644 0.950 . S
C654 C655 1.386 . S
C654 C656 1.391 . S
C655 C654 1.386 . S
C655 C659 1.393 . S
C656 H645 0.950 . S
C656 C654 1.391 . S
C656 C657 1.400 . S
C657 C651 1.491 . S
C657 C656 1.400 . S
C657 C658 1.398 . S
C658 H646 0.950 . S
C658 C657 1.398 . S
C658 C659 1.391 . S
C659 H647 0.950 . S
C659 C655 1.393 . S
C659 C658 1.391 . S
H660 C668 0.950 . S
H661 C673 0.950 . S
H662 C670 0.950 . S
H663 C672 0.950 . S
H664 C674 0.950 . S
H665 C676 0.950 . S
H666 C678 0.950 . S
H667 C679 0.950 . S
C668 H660 0.950 . S
C668 C669 1.386 . S
C668 C670 1.391 . S
C669 C668 1.386 . S
C669 C673 1.393 . S
C670 H662 0.950 . S
C670 C668 1.391 . S
C670 C671 1.400 . S
C671 C670 1.400 . S
C671 C672 1.398 . S
C671 C677 1.491 . S
C672 H663 0.950 . S
C672 C671 1.398 . S
C672 C673 1.391 . S
C673 H661 0.950 . S
C673 C669 1.393 . S
C673 C672 1.391 . S
C674 H664 0.950 . S
C674 C675 1.386 . S
C674 C676 1.391 . S
C675 C674 1.386 . S
C675 C679 1.393 . S
C676 H665 0.950 . S
C676 C674 1.391 . S
C676 C677 1.400 . S
C677 C671 1.491 . S
C677 C676 1.400 . S
C677 C678 1.398 . S
C678 H666 0.950 . S
C678 C677 1.398 . S
C678 C679 1.391 . S
C679 H667 0.950 . S
C679 C675 1.393 . S
C679 C678 1.391 . S
H680 C688 0.950 . S
H681 C693 0.950 . S
H682 C690 0.950 . S
H683 C692 0.950 . S
H684 C694 0.950 . S
H685 C696 0.950 . S
H686 C698 0.950 . S
H687 C699 0.950 . S
C688 H680 0.950 . S
C688 C689 1.386 . S
C688 C690 1.391 . S
C689 C688 1.386 . S
C689 C693 1.393 . S
C690 H682 0.950 . S
C690 C688 1.391 . S
C690 C691 1.400 . S
C691 C690 1.400 . S
C691 C692 1.398 . S
C691 C697 1.491 . S
C692 H683 0.950 . S
C692 C691 1.398 . S
C692 C693 1.391 . S
C693 H681 0.950 . S
C693 C689 1.393 . S
C693 C692 1.391 . S
C694 H684 0.950 . S
C694 C695 1.386 . S
C694 C696 1.391 . S
C695 C694 1.386 . S
C695 C699 1.393 . S
C696 H685 0.950 . S
C696 C694 1.391 . S
C696 C697 1.400 . S
C697 C691 1.491 . S
C697 C696 1.400 . S
C697 C698 1.398 . S
C698 H686 0.950 . S
C698 C697 1.398 . S
C698 C699 1.391 . S
C699 H687 0.950 . S
C699 C695 1.393 . S
C699 C698 1.391 . S
H700 C708 0.950 . S
H701 C713 0.950 . S
H702 C710 0.950 . S
H703 C712 0.950 . S
H704 C714 0.950 . S
H705 C716 0.950 . S
H706 C718 0.950 . S
H707 C719 0.950 . S
C708 H700 0.950 . S
C708 C709 1.386 . S
C708 C710 1.391 . S
C709 C708 1.386 . S
C709 C713 1.393 . S
C710 H702 0.950 . S
C710 C708 1.391 . S
C710 C711 1.400 . S
C711 C710 1.400 . S
C711 C712 1.398 . S
C711 C717 1.491 . S
C712 H703 0.950 . S
C712 C711 1.398 . S
C712 C713 1.391 . S
C713 H701 0.950 . S
C713 C709 1.393 . S
C713 C712 1.391 . S
C714 H704 0.950 . S
C714 C715 1.386 . S
C714 C716 1.391 . S
C715 C714 1.386 . S
C715 C719 1.393 . S
C716 H705 0.950 . S
C716 C714 1.391 . S
C716 C717 1.400 . S
C717 C711 1.491 . S
C717 C716 1.400 . S
C717 C718 1.398 . S
C718 H706 0.950 . S
C718 C717 1.398 . S
C718 C719 1.391 . S
C719 H707 0.950 . S
C719 C715 1.393 . S
C719 C718 1.391 . S
H720 C728 0.950 . S
H721 C733 0.950 1_655 S
H722 C730 0.950 . S
H723 C732 0.950 1_655 S
H724 C734 0.947 1_655 S
H725 C736 0.950 1_655 S
H726 C738 0.950 . S
H727 C739 0.950 . S
C728 H720 0.950 . S
C728 C729 1.386 . S
C728 C730 1.391 . S
C729 C728 1.386 . S
C729 C733 1.393 . S
C730 H722 0.950 . S
C730 C728 1.391 . S
C730 C731 1.400 . S
C731 C730 1.400 . S
C731 C732 1.398 . S
C731 C737 1.491 . S
C732 H723 0.950 1_455 S
C732 C731 1.398 . S
C732 C733 1.391 . S
C733 H721 0.950 1_455 S
C733 C729 1.393 . S
C733 C732 1.391 . S
C734 H724 0.947 1_455 S
C734 C735 1.397 . S
C734 C736 1.391 . S
C735 C734 1.397 . S
C735 C739 1.406 . S
C736 H725 0.950 1_455 S
C736 C734 1.391 . S
C736 C737 1.400 . S
C737 C731 1.491 . S
C737 C736 1.400 . S
C737 C738 1.398 . S
C738 H726 0.950 . S
C738 C737 1.398 . S
C738 C739 1.391 . S
C739 H727 0.950 . S
C739 C735 1.406 . S
C739 C738 1.391 . S
H740 C748 0.950 . S
H741 C753 0.950 . S
H742 C750 0.950 . S
H743 C752 0.950 . S
H744 C754 0.950 . S
H745 C756 0.950 . S
H746 C758 0.950 . S
H747 C759 0.950 . S
C748 H740 0.950 . S
C748 C749 1.386 . S
C748 C750 1.391 . S
C749 C748 1.386 . S
C749 C753 1.393 1_545 S
C750 H742 0.950 . S
C750 C748 1.391 . S
C750 C751 1.400 . S
C751 C750 1.400 . S
C751 C752 1.398 1_545 S
C751 C757 1.491 . S
C752 H743 0.950 . S
C752 C751 1.398 1_565 S
C752 C753 1.391 . S
C753 H741 0.950 . S
C753 C749 1.393 1_565 S
C753 C752 1.391 . S
C754 H744 0.950 . S
C754 C755 1.386 1_565 S
C754 C756 1.391 . S
C755 C754 1.386 1_545 S
C755 C759 1.393 . S
C756 H745 0.950 . S
C756 C754 1.391 . S
C756 C757 1.400 1_565 S
C757 C751 1.491 . S
C757 C756 1.400 1_545 S
C757 C758 1.398 . S
C758 H746 0.950 . S
C758 C757 1.398 . S
C758 C759 1.391 . S
C759 H747 0.950 . S
C759 C755 1.393 . S
C759 C758 1.391 . S
H760 C768 0.950 . S
H761 C773 0.950 . S
H762 C770 0.950 . S
H763 C772 0.950 . S
H764 C774 0.950 . S
H765 C776 0.950 . S
H766 C778 0.950 . S
H767 C779 0.950 . S
C768 H760 0.950 . S
C768 C769 1.386 . S
C768 C770 1.391 . S
C769 C768 1.386 . S
C769 C773 1.393 . S
C770 H762 0.950 . S
C770 C768 1.391 . S
C770 C771 1.400 . S
C771 C770 1.400 . S
C771 C772 1.398 . S
C771 C777 1.491 . S
C772 H763 0.950 . S
C772 C771 1.398 . S
C772 C773 1.391 . S
C773 H761 0.950 . S
C773 C769 1.393 . S
C773 C772 1.391 . S
C774 H764 0.950 . S
C774 C775 1.386 . S
C774 C776 1.391 . S
C775 C774 1.386 . S
C775 C779 1.393 . S
C776 H765 0.950 . S
C776 C774 1.391 . S
C776 C777 1.400 . S
C777 C771 1.491 . S
C777 C776 1.400 . S
C777 C778 1.398 . S
C778 H766 0.950 . S
C778 C777 1.398 . S
C778 C779 1.391 . S
C779 H767 0.950 . S
C779 C775 1.393 . S
C779 C778 1.391 . S
H780 C788 0.950 . S
H781 C793 0.950 . S
H782 C790 0.950 . S
H783 C792 0.950 . S
H784 C794 0.950 . S
H785 C796 0.950 . S
H786 C798 0.950 . S
H787 C799 0.950 . S
C788 H780 0.950 . S
C788 C789 1.386 . S
C788 C790 1.391 . S
C789 C788 1.386 . S
C789 C793 1.393 1_545 S
C790 H782 0.950 . S
C790 C788 1.391 . S
C790 C791 1.428 . S
C791 C790 1.428 . S
C791 C792 1.374 1_545 S
C791 C797 1.487 1_545 S
C792 H783 0.950 . S
C792 C791 1.374 1_565 S
C792 C793 1.391 . S
C793 H781 0.950 . S
C793 C789 1.393 1_565 S
C793 C792 1.391 . S
C794 H784 0.950 . S
C794 C795 1.386 . S
C794 C796 1.391 . S
C795 C794 1.386 . S
C795 C799 1.393 1_565 S
C796 H785 0.950 . S
C796 C794 1.391 . S
C796 C797 1.406 . S
C797 C791 1.487 1_565 S
C797 C796 1.406 . S
C797 C798 1.393 1_565 S
C798 H786 0.950 . S
C798 C797 1.393 1_545 S
C798 C799 1.391 . S
C799 H787 0.950 . S
C799 C795 1.393 1_545 S
C799 C798 1.391 . S
H800 C808 0.950 . S
H801 C813 0.950 . S
H802 C810 0.950 . S
H803 C812 0.950 . S
H804 C814 0.950 . S
H805 C816 0.950 . S
H806 C818 0.950 . S
H807 C819 0.950 . S
C808 H800 0.950 . S
C808 C809 1.386 . S
C808 C810 1.391 . S
C809 C808 1.386 . S
C809 C813 1.393 . S
C810 H802 0.950 . S
C810 C808 1.391 . S
C810 C811 1.400 . S
C811 C810 1.400 . S
C811 C812 1.398 . S
C811 C817 1.491 . S
C812 H803 0.950 . S
C812 C811 1.398 . S
C812 C813 1.391 . S
C813 H801 0.950 . S
C813 C809 1.393 . S
C813 C812 1.391 . S
C814 H804 0.950 . S
C814 C815 1.386 . S
C814 C816 1.391 . S
C815 C814 1.386 . S
C815 C819 1.393 . S
C816 H805 0.950 . S
C816 C814 1.391 . S
C816 C817 1.400 . S
C817 C811 1.491 . S
C817 C816 1.400 . S
C817 C818 1.398 . S
C818 H806 0.950 . S
C818 C817 1.398 . S
C818 C819 1.391 . S
C819 H807 0.950 . S
C819 C815 1.393 . S
C819 C818 1.391 . S
H820 C828 0.950 . S
H821 C833 0.950 . S
H822 C830 0.950 . S
H823 C832 0.950 . S
H824 C834 0.950 . S
H825 C836 0.950 . S
H826 C838 0.950 . S
H827 C839 0.950 . S
C828 H820 0.950 . S
C828 C829 1.386 . S
C828 C830 1.391 . S
C829 C828 1.386 . S
C829 C833 1.393 1_455 S
C830 H822 0.950 . S
C830 C828 1.391 . S
C830 C831 1.400 . S
C831 C830 1.400 . S
C831 C832 1.398 1_455 S
C831 C837 1.491 . S
C832 H823 0.950 . S
C832 C831 1.398 1_655 S
C832 C833 1.391 . S
C833 H821 0.950 . S
C833 C829 1.393 1_655 S
C833 C832 1.391 . S
C834 H824 0.950 . S
C834 C835 1.386 . S
C834 C836 1.391 . S
C835 C834 1.386 . S
C835 C839 1.393 1_655 S
C836 H825 0.950 . S
C836 C834 1.391 . S
C836 C837 1.400 1_655 S
C837 C831 1.491 . S
C837 C836 1.400 1_455 S
C837 C838 1.398 . S
C838 H826 0.950 . S
C838 C837 1.398 . S
C838 C839 1.391 . S
C839 H827 0.950 . S
C839 C835 1.393 1_455 S
C839 C838 1.391 . S
C489 C7 0.666 . S
C495 C451 0.626 . S
C509 C51 1.910 . S
C515 C301 1.769 . S
C529 C87 1.225 . S
C535 C361 1.205 . S
C549 C16 0.406 . S
C555 C421 0.395 . S
C575 C331 2.056 . S
C569 C42 2.060 . S
C595 C391 1.355 . S
C589 C96 1.337 . S
C609 C47 1.198 . S
C615 C181 1.148 . S
C629 C91 3.117 . S
C635 C271 3.105 . S
C649 C2 2.093 . S
C655 C151 2.107 . S
C675 C211 1.331 . S
C669 C56 1.312 . S
C695 C241 2.838 . S
C689 C82 2.988 . S
C709 C11 1.907 . S
C715 C121 1.777 . S
C735 C260 1.722 1_554 S
C729 C19 1.713 . S
C749 C50 1.327 . S
C755 C140 1.352 . S
C769 C99 1.475 . S
C775 C200 1.472 . S
C795 C380 1.461 . S
C789 C59 1.455 . S
C815 C440 1.104 1_556 S
C809 C90 1.108 . S
C829 C10 1.344 . S
C835 C320 1.354 1_655 S
