# Generated by pormake.
# Topology tsx, (6,3)-cn, num edge types: 1
# Building blocks:
#     Node 0, Type 0, BuildingBlock: MIDCAF_clean_sbu_0, # of connection points: 6
#     Node 1, Type 0, BuildingBlock: MIDCAF_clean_sbu_0, # of connection points: 6
#     Node 2, Type 1, BuildingBlock: BELTOD_clean_linker_0, # of connection points: 3
#     Node 3, Type 1, BuildingBlock: BELTOD_clean_linker_0, # of connection points: 3
#     Node 4, Type 1, BuildingBlock: BELTOD_clean_linker_0, # of connection points: 3
#     Node 5, Type 1, BuildingBlock: BELTOD_clean_linker_0, # of connection points: 3
#     Edge 6, Type (0, 1), BuildingBlock: KIFKEQ_clean_linker_1, # of connection points: 2
#     Edge 7, Type (0, 1), BuildingBlock: KIFKEQ_clean_linker_1, # of connection points: 2
#     Edge 8, Type (0, 1), BuildingBlock: KIFKEQ_clean_linker_1, # of connection points: 2
#     Edge 9, Type (0, 1), BuildingBlock: KIFKEQ_clean_linker_1, # of connection points: 2
#     Edge 10, Type (0, 1), BuildingBlock: KIFKEQ_clean_linker_1, # of connection points: 2
#     Edge 11, Type (0, 1), BuildingBlock: KIFKEQ_clean_linker_1, # of connection points: 2
#     Edge 12, Type (0, 1), BuildingBlock: KIFKEQ_clean_linker_1, # of connection points: 2
#     Edge 13, Type (0, 1), BuildingBlock: KIFKEQ_clean_linker_1, # of connection points: 2
#     Edge 14, Type (0, 1), BuildingBlock: KIFKEQ_clean_linker_1, # of connection points: 2
#     Edge 15, Type (0, 1), BuildingBlock: KIFKEQ_clean_linker_1, # of connection points: 2
#     Edge 16, Type (0, 1), BuildingBlock: KIFKEQ_clean_linker_1, # of connection points: 2
#     Edge 17, Type (0, 1), BuildingBlock: KIFKEQ_clean_linker_1, # of connection points: 2
# Relax obj value: 0.110
# Max RMSD: 0.178
# Mean RMSD: 0.105
data_MOF--net-tsx--node1-MIDCAF_clean_sbu_0--node2-BELTOD_clean_linker_0--edge1-KIFKEQ_clean_linker_1
_symmetry_space_group_name_H-M    P1
_symmetry_Int_Tables_number       1
_symmetry_cell_setting            triclinic
loop_
_symmetry_equiv_pos_as_xyz
'x, y, z'
_cell_length_a     22.414898
_cell_length_b     23.302829
_cell_length_c     43.530634
_cell_angle_alpha  91.194049
_cell_angle_beta   94.850561
_cell_angle_gamma 90.288593
loop_
_atom_site_label
_atom_site_type_symbol
_atom_site_fract_x
_atom_site_fract_y
_atom_site_fract_z
_atom_type_partial_charge
Zn0 Zn 0.91681 0.01195 0.97955 0.0
Zn1 Zn 0.12309 0.02688 0.0459 0.0
Zn2 Zn 0.02269 0.02337 0.01157 0.0
C3 C 0.08803 0.14048 0.0374 0.0
C4 C 0.14992 0.97479 0.99139 0.0
O5 O 0.96042 0.96885 0.03644 0.0
O6 O 0.87526 0.96222 0.00689 0.0
C7 C 0.93676 0.12978 0.99287 0.0
O8 O 0.04563 0.11586 0.01996 0.0
O9 O 0.12646 0.1109 0.05273 0.0
O10 O 0.17579 0.99428 0.01631 0.0
O11 O 0.09287 0.98055 0.98572 0.0
O12 O 0.89778 0.09466 0.98112 0.0
O13 O 0.98802 0.11178 0.00434 0.0
O14 O 0.03892 0.98243 0.96698 0.0
O15 O 0.94851 0.97653 0.94226 0.0
C16 C 1.00426 0.96824 0.94287 0.0
O17 O 0.01205 0.98119 0.05615 0.0
O18 O 0.10288 0.97862 0.08026 0.0
C19 C 0.90642 0.94928 0.03121 0.0
C20 C 0.04781 0.96689 0.07948 0.0
Zn21 Zn 0.61719 0.52611 0.54684 0.0
Zn22 Zn 0.42201 0.50267 0.4736 0.0
Zn23 Zn 0.52131 0.51885 0.50955 0.0
C24 C 0.51284 0.45305 0.44283 0.0
C25 C 0.44207 0.62202 0.48065 0.0
O26 O 0.50582 0.47794 0.55393 0.0
O27 O 0.59487 0.47599 0.57997 0.0
C28 C 0.65281 0.47437 0.49419 0.0
O29 O 0.54406 0.4746 0.46656 0.0
O30 O 0.45646 0.45631 0.44077 0.0
O31 O 0.40818 0.58517 0.46631 0.0
O32 O 0.48703 0.60584 0.49875 0.0
O33 O 0.67549 0.49652 0.51919 0.0
O34 O 0.59588 0.47699 0.4871 0.0
O35 O 0.54154 0.61191 0.51736 0.0
O36 O 0.61584 0.61004 0.55419 0.0
C37 C 0.57976 0.63816 0.5366 0.0
O38 O 0.45547 0.46658 0.53303 0.0
O39 O 0.37212 0.46314 0.50198 0.0
C40 C 0.53982 0.46374 0.57792 0.0
C41 C 0.40063 0.44988 0.52702 0.0
P42 P 0.12791 0.12184 0.38263 0.0
H43 H 0.12098 0.23368 0.41309 0.0
H44 H 0.03734 0.28831 0.43081 0.0
H45 H 0.91911 0.14371 0.40818 0.0
H46 H 1.00332 0.0892 0.39041 0.0
H47 H 0.25605 0.10071 0.39143 0.0
H48 H 0.3144 0.02955 0.42084 0.0
H49 H 0.15544 0.97639 0.46264 0.0
H50 H 0.09692 0.04719 0.43241 0.0
H51 H 0.03956 0.14439 0.33153 0.0
H52 H 0.15148 0.00302 0.3622 0.0
O53 O 0.17186 0.17144 0.36882 0.0
H54 H 1.00411 0.08888 0.28526 0.0
H55 H 0.11607 0.94742 0.31606 0.0
C56 C 0.068 0.15798 0.39987 0.0
C57 C 0.07722 0.21353 0.41223 0.0
C58 C 0.02937 0.24461 0.42244 0.0
C59 C 0.97147 0.2205 0.42054 0.0
C60 C 0.96298 0.16374 0.40939 0.0
C61 C 0.01108 0.13252 0.39938 0.0
C62 C 0.17229 0.07956 0.40996 0.0
C63 C 0.23404 0.07494 0.4076 0.0
C64 C 0.26751 0.03429 0.42459 0.0
C65 C 0.23963 0.99707 0.44407 0.0
C66 C 0.17818 0.00406 0.44763 0.0
C67 C 0.14471 0.04476 0.43054 0.0
C68 C 0.09776 0.07782 0.35045 0.0
C69 C 0.05562 0.10102 0.3286 0.0
C70 C 0.03505 0.06909 0.30228 0.0
C71 C 0.05708 0.01366 0.29712 0.0
C72 C 0.09837 0.99005 0.31942 0.0
C73 C 0.11861 0.0219 0.34586 0.0
P74 P 0.07965 0.94462 0.61724 0.0
H75 H 0.02267 0.90416 0.55776 0.0
H76 H 0.91792 0.8859 0.53957 0.0
H77 H 0.86237 0.96431 0.62321 0.0
H78 H 0.96732 0.98257 0.64122 0.0
H79 H 0.20579 0.96902 0.61406 0.0
H80 H 0.26174 0.05651 0.60592 0.0
H81 H 0.09553 0.14994 0.59317 0.0
H82 H 0.04006 0.06217 0.60263 0.0
H83 H 0.02558 0.85997 0.65457 0.0
H84 H 0.14029 0.0088 0.67057 0.0
O85 O 0.11454 0.88867 0.60248 0.0
H86 H 0.02473 0.84841 0.71032 0.0
H87 H 0.13993 0.99705 0.72612 0.0
C88 C 1.00275 0.94317 0.60119 0.0
C89 C 0.9879 0.91844 0.5719 0.0
C90 C 0.92793 0.90839 0.56144 0.0
C91 C 0.88186 0.92295 0.58015 0.0
C92 C 0.8969 0.9518 0.60849 0.0
C93 C 0.95687 0.96223 0.6188 0.0
C94 C 0.11881 0.00891 0.60826 0.0
C95 C 0.18139 0.00824 0.60916 0.0
C96 C 0.21333 0.05839 0.60446 0.0
C97 C 0.18325 0.11041 0.59864 0.0
C98 C 0.12027 0.11086 0.59788 0.0
C99 C 0.08835 0.06056 0.60289 0.0
C100 C 0.0823 0.93557 0.65835 0.0
C101 C 0.05079 0.88996 0.67005 0.0
C102 C 0.05033 0.8834 0.70185 0.0
C103 C 0.08221 0.92191 0.72251 0.0
C104 C 0.11543 0.96644 0.71072 0.0
C105 C 0.11529 0.97336 0.67888 0.0
P106 P 0.61403 0.61167 0.87949 0.0
H107 H 0.60862 0.72188 0.91162 0.0
H108 H 0.52562 0.7769 0.92962 0.0
H109 H 0.4061 0.63335 0.90675 0.0
H110 H 0.4898 0.57838 0.8887 0.0
H111 H 0.74442 0.60848 0.88972 0.0
H112 H 0.81272 0.54565 0.91952 0.0
H113 H 0.66168 0.46113 0.9551 0.0
H114 H 0.59353 0.52557 0.9257 0.0
H115 H 0.5224 0.63207 0.82974 0.0
H116 H 0.63802 0.49268 0.85933 0.0
O117 O 0.6535 0.66271 0.86385 0.0
H118 H 0.48658 0.57631 0.78369 0.0
H119 H 0.60183 0.43649 0.81353 0.0
C120 C 0.5551 0.6466 0.89827 0.0
C121 C 0.56478 0.7019 0.91091 0.0
C122 C 0.51722 0.73326 0.92126 0.0
C123 C 0.45902 0.70974 0.91924 0.0
C124 C 0.45015 0.65301 0.90805 0.0
C125 C 0.49802 0.62148 0.89791 0.0
C126 C 0.66388 0.57202 0.90574 0.0
C127 C 0.72595 0.57737 0.90448 0.0
C128 C 0.76506 0.54099 0.92136 0.0
C129 C 0.74282 0.49801 0.93959 0.0
C130 C 0.6805 0.49423 0.94166 0.0
C131 C 0.64138 0.53091 0.92481 0.0
C132 C 0.58245 0.56648 0.84812 0.0
C133 C 0.53901 0.58893 0.82669 0.0
C134 C 0.51823 0.55682 0.80048 0.0
C135 C 0.5412 0.50186 0.79502 0.0
C136 C 0.58343 0.47877 0.81707 0.0
C137 C 0.60404 0.5109 0.84335 0.0
P138 P 0.59279 0.43944 0.11966 0.0
H139 H 0.53373 0.40389 0.05978 0.0
H140 H 0.42852 0.38691 0.04213 0.0
H141 H 0.37607 0.45828 0.12811 0.0
H142 H 0.48149 0.47509 0.14561 0.0
H143 H 0.71911 0.46277 0.1162 0.0
H144 H 0.77603 0.55019 0.10906 0.0
H145 H 0.61094 0.6458 0.09848 0.0
H146 H 0.55452 0.55804 0.10679 0.0
H147 H 0.5455 0.34929 0.15598 0.0
H148 H 0.64863 0.50516 0.17365 0.0
O149 O 0.62646 0.38389 0.10376 0.0
H150 H 0.54619 0.33466 0.21156 0.0
H151 H 0.64962 0.49057 0.22901 0.0
C152 C 0.51543 0.43925 0.1043 0.0
C153 C 0.49953 0.41692 0.07458 0.0
C154 C 0.43927 0.40758 0.06444 0.0
C155 C 0.39391 0.4205 0.0839 0.0
C156 C 0.41 0.44699 0.11279 0.0
C157 C 0.47026 0.45664 0.12281 0.0
C158 C 0.6326 0.50375 0.11132 0.0
C159 C 0.69516 0.50247 0.11198 0.0
C160 C 0.72766 0.55258 0.10786 0.0
C161 C 0.69819 0.60518 0.103 0.0
C162 C 0.63523 0.60624 0.10248 0.0
C163 C 0.60276 0.55597 0.10683 0.0
C164 C 0.59668 0.42835 0.16063 0.0
C165 C 0.56861 0.38012 0.1718 0.0
C166 C 0.56896 0.37186 0.20351 0.0
C167 C 0.59802 0.41147 0.22461 0.0
C168 C 0.62751 0.45898 0.2133 0.0
C169 C 0.62662 0.4675 0.18157 0.0
H170 H 0.06895 0.21996 0.08188 0.0
H171 H 0.13913 0.19771 0.9934 0.0
H172 H 0.12733 0.30825 0.09116 0.0
H173 H 0.20073 0.28322 0.00311 0.0
H174 H 0.32623 0.42626 0.02821 0.0
H175 H 0.23084 0.37776 0.0134 0.0
H176 H 0.22827 0.31593 0.10631 0.0
H177 H 0.32139 0.36572 0.12099 0.0
C178 C 0.09493 0.23553 0.06385 0.0
C179 C 0.09945 0.20251 0.03689 0.0
C180 C 0.12948 0.28546 0.06936 0.0
C181 C 0.17083 0.30204 0.04847 0.0
C182 C 0.16974 0.27235 0.01988 0.0
C183 C 0.13411 0.22319 0.01413 0.0
C184 C 0.30438 0.40319 0.04552 0.0
C185 C 0.33157 0.39961 0.07573 0.0
C186 C 0.24974 0.37519 0.03704 0.0
C187 C 0.2215 0.34219 0.05847 0.0
C188 C 0.24737 0.34159 0.08912 0.0
C189 C 0.30136 0.37009 0.09763 0.0
H190 H 0.26215 -1e-05 0.97812 0.0
H191 H 0.12117 0.87414 0.95956 0.0
H192 H 0.33322 0.93474 0.95696 0.0
H193 H 0.19313 0.80753 0.93882 0.0
H194 H 0.3476 0.71875 0.88826 0.0
H195 H 0.26741 0.78499 0.89975 0.0
H196 H 0.37542 0.84764 0.98047 0.0
H197 H 0.4549 0.78191 0.96912 0.0
C198 C 0.24614 0.95871 0.96879 0.0
C199 C 0.18646 0.94178 0.97073 0.0
C200 C 0.28694 0.92109 0.95698 0.0
C201 C 0.26921 0.86532 0.94717 0.0
C202 C 0.20819 0.85012 0.94642 0.0
C203 C 0.16695 0.88826 0.95812 0.0
C204 C 0.35374 0.74618 0.90869 0.0
C205 C 0.40789 0.74555 0.92763 0.0
C206 C 0.30793 0.78421 0.91516 0.0
C207 C 0.31559 0.8224 0.94061 0.0
C208 C 0.36879 0.81999 0.96014 0.0
C209 C 0.41432 0.78216 0.95372 0.0
H210 H 0.79079 0.93944 0.0441 0.0
H211 H 0.96463 0.8629 0.06278 0.0
H212 H 0.74425 0.8584 0.06749 0.0
H213 H 0.91809 0.7817 0.0867 0.0
H214 H 0.79738 0.61651 0.07083 0.0
H215 H 0.85278 0.70362 0.06167 0.0
H216 H 0.73338 0.80223 0.11461 0.0
H217 H 0.67835 0.71467 0.12443 0.0
C218 C 0.8192 0.90599 0.05408 0.0
C219 C 0.88129 0.90746 0.0517 0.0
C220 C 0.79257 0.85965 0.06759 0.0
C221 C 0.82742 0.81338 0.07868 0.0
C222 C 0.89005 0.81654 0.07807 0.0
C223 C 0.91681 0.86334 0.06477 0.0
C224 C 0.78353 0.65647 0.08111 0.0
C225 C 0.73311 0.65842 0.09829 0.0
C226 C 0.81549 0.70646 0.0759 0.0
C227 C 0.79764 0.75979 0.08753 0.0
C228 C 0.74797 0.76178 0.10519 0.0
C229 C 0.71619 0.71165 0.1106 0.0
H230 H 0.82985 0.17178 0.00524 0.0
H231 H 1.00518 0.22501 0.98256 0.0
H232 H 0.7935 0.26897 -0.00118 0.0
H233 H 0.96858 0.32383 0.97608 0.0
H234 H 0.83799 0.44598 0.91528 0.0
H235 H 0.89617 0.36537 0.93565 0.0
H236 H 0.79844 0.36913 0.01699 0.0
H237 H 0.74018 0.45034 0.99668 0.0
C238 C 0.861 0.20482 -0.00051 0.0
C239 C 0.92017 0.19093 0.99417 0.0
C240 C 0.84028 0.26072 0.99606 0.0
C241 C 0.87803 0.30423 0.98686 0.0
C242 C 0.93836 0.29107 0.98305 0.0
C243 C 0.95946 0.23479 0.98696 0.0
C244 C 0.82995 0.43083 0.93793 0.0
C245 C 0.78379 0.45429 0.95417 0.0
C246 C 0.86356 0.38458 0.94965 0.0
C247 C 0.85169 0.36053 0.97783 0.0
C248 C 0.8081 0.38623 0.99498 0.0
C249 C 0.77451 0.43255 0.98328 0.0
H250 H 0.62973 0.69437 0.4918 0.0
H251 H 0.56025 0.71903 0.5803 0.0
H252 H 0.69028 0.7808 0.50044 0.0
H253 H 0.61701 0.80844 0.58836 0.0
H254 H 0.80935 0.86985 0.61777 0.0
H255 H 0.71711 0.81844 0.60352 0.0
H256 H 0.72039 0.87518 0.50964 0.0
H257 H 0.81517 0.92506 0.52407 0.0
C258 C 0.62459 0.72051 0.51228 0.0
C259 C 0.59069 0.70021 0.53544 0.0
C260 C 0.6596 0.77023 0.51741 0.0
C261 C 0.66052 0.80099 0.5457 0.0
C262 C 0.61952 0.78477 0.56685 0.0
C263 C 0.58589 0.73418 0.56203 0.0
C264 C 0.78964 0.87272 0.59426 0.0
C265 C 0.81988 0.90122 0.57203 0.0
C266 C 0.73612 0.8433 0.58598 0.0
C267 C 0.71069 0.842 0.55523 0.0
C268 C 0.73895 0.87402 0.53339 0.0
C269 C 0.7932 0.90286 0.54165 0.0
H270 H 0.76626 0.50244 0.48412 0.0
H271 H 0.62997 0.37313 0.46213 0.0
H272 H 0.84038 0.4407 0.46285 0.0
H273 H 0.70477 0.31024 0.4412 0.0
H274 H 0.86014 0.2293 0.38973 0.0
H275 H 0.77873 0.29305 0.40234 0.0
H276 H 0.88618 0.35385 0.48371 0.0
H277 H 0.96705 0.29074 0.47109 0.0
C278 C 0.75202 0.4611 0.47415 0.0
C279 C 0.69263 0.44231 0.47489 0.0
C280 C 0.79452 0.42552 0.46223 0.0
C281 C 0.77877 0.36998 0.45115 0.0
C282 C 0.71828 0.35276 0.44967 0.0
C283 C 0.67542 0.38878 0.46149 0.0
C284 C 0.86593 0.25588 0.41049 0.0
C285 C 0.92018 0.25545 0.4293 0.0
C286 C 0.81943 0.29245 0.41763 0.0
C287 C 0.82645 0.32926 0.44367 0.0
C288 C 0.87999 0.32725 0.46296 0.0
C289 C 0.92628 0.29093 0.45583 0.0
H290 H 0.45385 0.36359 0.56048 0.0
H291 H 0.28286 0.4427 0.53694 0.0
H292 H 0.40356 0.28441 0.58396 0.0
H293 H 0.23243 0.36315 0.55984 0.0
H294 H 0.28312 0.12055 0.56696 0.0
H295 H 0.33901 0.20708 0.55743 0.0
H296 H 0.217 0.30812 0.60752 0.0
H297 H 0.16152 0.22103 0.61788 0.0
C298 C 0.40577 0.36515 0.56136 0.0
C299 C 0.37228 0.40947 0.54712 0.0
C300 C 0.37688 0.31939 0.57437 0.0
C301 C 0.314 0.31727 0.57342 0.0
C302 C 0.2809 0.36369 0.5611 0.0
C303 C 0.30975 0.40914 0.54791 0.0
C304 C 0.26873 0.16092 0.57654 0.0
C305 C 0.21769 0.16361 0.59322 0.0
C306 C 0.30093 0.21059 0.5711 0.0
C307 C 0.28269 0.26436 0.58194 0.0
C308 C 0.23197 0.26726 0.59879 0.0
C309 C 0.19997 0.2174 0.6045 0.0
H310 H 0.38603 0.66923 0.43023 0.0
H311 H 0.46107 0.71218 0.52256 0.0
H312 H 0.34138 0.76374 0.42606 0.0
H313 H 0.41635 0.80832 0.5181 0.0
H314 H 0.35615 0.99133 0.46992 0.0
H315 H 0.41389 0.90391 0.4815 0.0
H316 H 0.25514 0.80141 0.45803 0.0
H317 H 0.19803 0.88747 0.44597 0.0
C318 C 0.39388 0.69932 0.44948 0.0
C319 C 0.42659 0.68314 0.47683 0.0
C320 C 0.36811 0.75334 0.44711 0.0
C321 C 0.37438 0.79267 0.472 0.0
C322 C 0.41074 0.77847 0.49865 0.0
C323 C 0.43663 0.72377 0.5011 0.0
C324 C 0.3335 0.95011 0.46769 0.0
C325 C 0.27253 0.94639 0.4568 0.0
C326 C 0.36647 0.90029 0.47449 0.0
C327 C 0.33903 0.84614 0.4702 0.0
C328 C 0.27745 0.84274 0.46119 0.0
C329 C 0.24458 0.89219 0.4546 0.0
H330 H 0.95482 0.009 0.10854 0.0
H331 H 0.09119 0.87908 0.11456 0.0
H332 H 0.94398 0.0013 0.16337 0.0
H333 H 0.07737 0.86745 0.16902 0.0
H334 H 0.13444 0.96095 0.26126 0.0
H335 H 0.11567 0.9281 0.2084 0.0
H336 H 0.92721 0.96517 0.21142 0.0
H337 H 0.94716 0.00038 0.26463 0.0
C338 C 0.98011 0.97651 0.12136 0.0
C339 C 0.02476 0.94557 0.10773 0.0
C340 C 0.97394 0.97189 0.15291 0.0
C341 C 0.01158 0.93527 0.17109 0.0
C342 C 0.04953 0.89793 0.1561 0.0
C343 C 0.05697 0.9039 0.12482 0.0
C344 C 0.0887 0.96061 0.25097 0.0
C345 C 0.04242 0.98376 0.267 0.0
C346 C 0.07764 0.94133 0.2205 0.0
C347 C 0.01974 0.94408 0.20525 0.0
C348 C 0.97253 0.96338 0.22211 0.0
C349 C 0.98386 0.98343 0.25261 0.0
H350 H 0.95763 0.88375 0.90441 0.0
H351 H 0.10474 0.00418 0.91747 0.0
H352 H 0.98484 0.8606 0.85266 0.0
H353 H 0.1302 0.98403 0.86489 0.0
H354 H 0.17262 0.9274 0.76911 0.0
H355 H 0.16305 0.92594 0.82469 0.0
H356 H 0.97084 0.90947 0.80673 0.0
H357 H 0.98104 0.90872 0.75177 0.0
C358 C 0.99637 0.90469 0.89622 0.0
C359 C 0.02877 0.9461 0.91465 0.0
C360 C 0.01165 0.89197 0.86645 0.0
C361 C 0.05858 0.92173 0.85409 0.0
C362 C 0.09383 0.96012 0.87351 0.0
C363 C 0.07927 0.97185 0.90366 0.0
C364 C 0.12852 0.9229 0.77725 0.0
C365 C 0.07757 0.91792 0.75618 0.0
C366 C 0.12295 0.92223 0.80905 0.0
C367 C 0.0662 0.91728 0.82041 0.0
C368 C 0.0155 0.91171 0.79909 0.0
C369 C 0.02118 0.91163 0.76745 0.0
H370 H 0.4463 0.50623 0.60644 0.0
H371 H 0.5794 0.37323 0.61188 0.0
H372 H 0.4327 0.49576 0.66088 0.0
H373 H 0.56287 0.35906 0.66584 0.0
H374 H 0.61906 0.44932 0.75929 0.0
H375 H 0.60135 0.41831 0.70612 0.0
H376 H 0.41299 0.45653 0.70816 0.0
H377 H 0.4317 0.48944 0.76185 0.0
C378 C 0.4702 0.47253 0.61898 0.0
C379 C 0.51477 0.44139 0.60541 0.0
C380 C 0.46245 0.46632 0.65029 0.0
C381 C 0.49845 0.42799 0.66822 0.0
C382 C 0.53622 0.39069 0.65311 0.0
C383 C 0.54522 0.39816 0.62211 0.0
C384 C 0.57349 0.44947 0.74878 0.0
C385 C 0.52694 0.47238 0.76471 0.0
C386 C 0.56306 0.43131 0.71809 0.0
C387 C 0.50559 0.43508 0.70248 0.0
C388 C 0.45801 0.45396 0.71919 0.0
C389 C 0.46866 0.47273 0.74995 0.0
H390 H 0.47769 0.36114 0.40648 0.0
H391 H 0.61107 0.4956 0.41809 0.0
H392 H 0.50863 0.33828 0.35536 0.0
H393 H 0.64009 0.47534 0.36623 0.0
H394 H 0.68804 0.4231 0.27117 0.0
H395 H 0.6791 0.41946 0.32673 0.0
H396 H 0.48929 0.38547 0.3089 0.0
H397 H 0.49894 0.38728 0.25392 0.0
C398 C 0.51449 0.38504 0.39821 0.0
C399 C 0.54167 0.43039 0.41597 0.0
C400 C 0.53183 0.37247 0.3688 0.0
C401 C 0.57557 0.40613 0.35614 0.0
C402 C 0.60628 0.44839 0.37508 0.0
C403 C 0.58969 0.46014 0.40485 0.0
C404 C 0.64464 0.41427 0.2793 0.0
C405 C 0.59419 0.40536 0.25824 0.0
C406 C 0.63945 0.41227 0.31111 0.0
C407 C 0.58352 0.40196 0.3225 0.0
C408 C 0.53345 0.39201 0.30122 0.0
C409 C 0.53881 0.39336 0.26956 0.0
loop_
_geom_bond_atom_site_label_1
_geom_bond_atom_site_label_2
_geom_bond_distance
_geom_bond_site_symmetry_2
_ccdc_geom_bond_type
Zn0 O6 1.920 1_545 S
Zn0 O12 1.898 . S
Zn0 O15 1.905 1_545 S
Zn1 O9 1.905 . S
Zn1 O10 1.898 1_545 S
Zn1 O18 1.920 1_545 S
Zn2 O5 2.080 1_445 S
Zn2 O8 2.114 . S
Zn2 O11 2.120 1_545 S
Zn2 O13 2.120 1_455 S
Zn2 O14 2.114 1_554 S
Zn2 O17 2.080 . S
C3 O8 1.166 . S
C3 O9 1.182 . S
C4 O10 1.167 . S
C4 O11 1.299 . S
O5 Zn2 2.080 1_665 S
O5 C19 1.305 . S
O6 Zn0 1.920 1_565 S
O6 C19 1.234 1_556 S
C7 O12 1.167 . S
C7 O13 1.299 1_556 S
O8 Zn2 2.114 . S
O8 C3 1.166 . S
O9 Zn1 1.905 . S
O9 C3 1.182 . S
O10 Zn1 1.898 1_565 S
O10 C4 1.167 . S
O11 Zn2 2.120 1_565 S
O11 C4 1.299 . S
O12 Zn0 1.898 . S
O12 C7 1.167 . S
O13 Zn2 2.120 1_655 S
O13 C7 1.299 1_554 S
O14 Zn2 2.114 1_556 S
O14 C16 1.166 1_545 S
O15 Zn0 1.905 1_565 S
O15 C16 1.182 1_655 S
C16 O14 1.166 1_565 S
C16 O15 1.182 1_455 S
O17 Zn2 2.080 . S
O17 C20 1.305 1_545 S
O18 Zn1 1.920 1_565 S
O18 C20 1.234 . S
C19 O5 1.305 . S
C19 O6 1.234 1_554 S
C20 O17 1.305 1_565 S
C20 O18 1.234 . S
Zn21 O27 1.920 . S
Zn21 O33 1.898 . S
Zn21 O36 1.905 . S
Zn22 O30 1.905 . S
Zn22 O31 1.898 . S
Zn22 O39 1.920 . S
Zn23 O26 2.080 . S
Zn23 O29 2.114 . S
Zn23 O32 2.120 . S
Zn23 O34 2.120 . S
Zn23 O35 2.114 . S
Zn23 O38 2.080 . S
C24 O29 1.166 . S
C24 O30 1.182 . S
C25 O31 1.167 . S
C25 O32 1.299 . S
O26 Zn23 2.080 . S
O26 C40 1.305 . S
O27 Zn21 1.920 . S
O27 C40 1.234 . S
C28 O33 1.167 . S
C28 O34 1.299 . S
O29 Zn23 2.114 . S
O29 C24 1.166 . S
O30 Zn22 1.905 . S
O30 C24 1.182 . S
O31 Zn22 1.898 . S
O31 C25 1.167 . S
O32 Zn23 2.120 . S
O32 C25 1.299 . S
O33 Zn21 1.898 . S
O33 C28 1.167 . S
O34 Zn23 2.120 . S
O34 C28 1.299 . S
O35 Zn23 2.114 . S
O35 C37 1.166 . S
O36 Zn21 1.905 . S
O36 C37 1.182 . S
C37 O35 1.166 . S
C37 O36 1.182 . S
O38 Zn23 2.080 . S
O38 C41 1.305 . S
O39 Zn22 1.920 . S
O39 C41 1.234 . S
C40 O26 1.305 . S
C40 O27 1.234 . S
C41 O38 1.305 . S
C41 O39 1.234 . S
P42 O53 1.490 . S
P42 C56 1.812 . S
P42 C62 1.803 . S
P42 C68 1.819 . S
H43 C57 0.941 . S
H44 C58 0.939 . S
H45 C60 0.940 . S
H46 C61 0.940 . S
H47 C63 0.939 . S
H48 C64 0.942 . S
H49 C66 0.940 . S
H50 C67 0.939 . S
H51 C69 0.941 . S
H52 C73 0.939 1_565 S
O53 P42 1.490 . S
H54 C70 0.939 . S
H55 C72 0.940 1_565 S
C56 P42 1.812 . S
C56 C57 1.389 . S
C56 C61 1.391 . S
C57 H43 0.941 . S
C57 C56 1.389 . S
C57 C58 1.397 . S
C58 H44 0.939 . S
C58 C57 1.397 . S
C58 C59 1.378 1_455 S
C59 C58 1.378 1_655 S
C59 C60 1.378 . S
C60 H45 0.940 . S
C60 C59 1.378 . S
C60 C61 1.396 1_655 S
C61 H46 0.940 . S
C61 C56 1.391 . S
C61 C60 1.396 1_455 S
C62 P42 1.803 . S
C62 C63 1.378 . S
C62 C67 1.400 1_545 S
C63 H47 0.939 . S
C63 C62 1.378 . S
C63 C64 1.361 1_545 S
C64 H48 0.942 . S
C64 C63 1.361 1_565 S
C64 C65 1.369 . S
C65 C64 1.369 . S
C65 C66 1.404 . S
C66 H49 0.940 . S
C66 C65 1.404 . S
C66 C67 1.389 . S
C67 H50 0.939 . S
C67 C62 1.400 1_565 S
C67 C66 1.389 . S
C68 P42 1.819 . S
C68 C69 1.391 . S
C68 C73 1.391 . S
C69 H51 0.941 . S
C69 C68 1.391 . S
C69 C70 1.396 . S
C70 H54 0.939 . S
C70 C69 1.396 . S
C70 C71 1.397 . S
C71 C70 1.397 . S
C71 C72 1.385 . S
C72 H55 0.940 1_545 S
C72 C71 1.385 . S
C72 C73 1.388 . S
C73 H52 0.939 1_545 S
C73 C68 1.391 . S
C73 C72 1.388 . S
P74 O85 1.490 . S
P74 C88 1.812 1_455 S
P74 C94 1.803 1_565 S
P74 C100 1.819 . S
H75 C89 0.941 1_455 S
H76 C90 0.939 . S
H77 C92 0.940 . S
H78 C93 0.937 1_545 S
H79 C95 0.939 . S
H80 C96 0.942 . S
H81 C98 0.940 . S
H82 C99 0.939 . S
H83 C101 0.941 . S
H84 C105 0.939 . S
O85 P74 1.490 . S
H86 C102 0.939 . S
H87 C104 0.940 . S
C88 P74 1.812 1_655 S
C88 C89 1.389 . S
C88 C93 1.391 . S
C89 H75 0.941 1_655 S
C89 C88 1.389 . S
C89 C90 1.397 . S
C90 H76 0.939 . S
C90 C89 1.397 . S
C90 C91 1.378 . S
C91 C90 1.378 . S
C91 C92 1.378 . S
C92 H77 0.940 . S
C92 C91 1.378 . S
C92 C93 1.396 . S
C93 H78 0.937 1_565 S
C93 C88 1.391 . S
C93 C92 1.396 . S
C94 P74 1.803 1_545 S
C94 C95 1.378 . S
C94 C99 1.400 . S
C95 H79 0.939 . S
C95 C94 1.378 . S
C95 C96 1.361 . S
C96 H80 0.942 . S
C96 C95 1.361 . S
C96 C97 1.369 . S
C97 C96 1.369 . S
C97 C98 1.404 . S
C98 H81 0.940 . S
C98 C97 1.404 . S
C98 C99 1.389 . S
C99 H82 0.939 . S
C99 C94 1.400 . S
C99 C98 1.389 . S
C100 P74 1.819 . S
C100 C101 1.391 . S
C100 C105 1.391 1_565 S
C101 H83 0.941 . S
C101 C100 1.391 . S
C101 C102 1.396 . S
C102 H86 0.939 . S
C102 C101 1.396 . S
C102 C103 1.397 1_565 S
C103 C102 1.397 1_545 S
C103 C104 1.385 . S
C104 H87 0.940 . S
C104 C103 1.385 . S
C104 C105 1.388 . S
C105 H84 0.939 . S
C105 C100 1.391 1_545 S
C105 C104 1.388 . S
P106 O117 1.490 . S
P106 C120 1.812 . S
P106 C126 1.803 . S
P106 C132 1.819 . S
H107 C121 0.941 . S
H108 C122 0.939 . S
H109 C124 0.940 . S
H110 C125 0.940 . S
H111 C127 0.939 . S
H112 C128 0.942 . S
H113 C130 0.940 . S
H114 C131 0.939 . S
H115 C133 0.941 . S
H116 C137 0.939 . S
O117 P106 1.490 . S
H118 C134 0.939 . S
H119 C136 0.940 . S
C120 P106 1.812 . S
C120 C121 1.389 . S
C120 C125 1.391 . S
C121 H107 0.941 . S
C121 C120 1.389 . S
C121 C122 1.397 . S
C122 H108 0.939 . S
C122 C121 1.397 . S
C122 C123 1.378 . S
C123 C122 1.378 . S
C123 C124 1.378 . S
C124 H109 0.940 . S
C124 C123 1.378 . S
C124 C125 1.396 . S
C125 H110 0.940 . S
C125 C120 1.391 . S
C125 C124 1.396 . S
C126 P106 1.803 . S
C126 C127 1.378 . S
C126 C131 1.400 . S
C127 H111 0.939 . S
C127 C126 1.378 . S
C127 C128 1.361 . S
C128 H112 0.942 . S
C128 C127 1.361 . S
C128 C129 1.369 . S
C129 C128 1.369 . S
C129 C130 1.404 . S
C130 H113 0.940 . S
C130 C129 1.404 . S
C130 C131 1.389 . S
C131 H114 0.939 . S
C131 C126 1.400 . S
C131 C130 1.389 . S
C132 P106 1.819 . S
C132 C133 1.391 . S
C132 C137 1.391 . S
C133 H115 0.941 . S
C133 C132 1.391 . S
C133 C134 1.396 . S
C134 H118 0.939 . S
C134 C133 1.396 . S
C134 C135 1.397 . S
C135 C134 1.397 . S
C135 C136 1.385 . S
C136 H119 0.940 . S
C136 C135 1.385 . S
C136 C137 1.388 . S
C137 H116 0.939 . S
C137 C132 1.391 . S
C137 C136 1.388 . S
P138 O149 1.490 . S
P138 C152 1.812 . S
P138 C158 1.803 . S
P138 C164 1.819 . S
H139 C153 0.941 . S
H140 C154 0.939 . S
H141 C156 0.940 . S
H142 C157 0.940 . S
H143 C159 0.939 . S
H144 C160 0.942 . S
H145 C162 0.940 . S
H146 C163 0.939 . S
H147 C165 0.941 . S
H148 C169 0.939 . S
O149 P138 1.490 . S
H150 C166 0.939 . S
H151 C168 0.940 . S
C152 P138 1.812 . S
C152 C153 1.389 . S
C152 C157 1.391 . S
C153 H139 0.941 . S
C153 C152 1.389 . S
C153 C154 1.397 . S
C154 H140 0.939 . S
C154 C153 1.397 . S
C154 C155 1.378 . S
C155 C154 1.378 . S
C155 C156 1.378 . S
C156 H141 0.940 . S
C156 C155 1.378 . S
C156 C157 1.396 . S
C157 H142 0.940 . S
C157 C152 1.391 . S
C157 C156 1.396 . S
C158 P138 1.803 . S
C158 C159 1.378 . S
C158 C163 1.400 . S
C159 H143 0.939 . S
C159 C158 1.378 . S
C159 C160 1.361 . S
C160 H144 0.942 . S
C160 C159 1.361 . S
C160 C161 1.369 . S
C161 C160 1.369 . S
C161 C162 1.404 . S
C162 H145 0.940 . S
C162 C161 1.404 . S
C162 C163 1.389 . S
C163 H146 0.939 . S
C163 C158 1.400 . S
C163 C162 1.389 . S
C164 P138 1.819 . S
C164 C165 1.391 . S
C164 C169 1.391 . S
C165 H147 0.941 . S
C165 C164 1.391 . S
C165 C166 1.396 . S
C166 H150 0.939 . S
C166 C165 1.396 . S
C166 C167 1.397 . S
C167 C166 1.397 . S
C167 C168 1.385 . S
C168 H151 0.940 . S
C168 C167 1.385 . S
C168 C169 1.388 . S
C169 H148 0.939 . S
C169 C164 1.391 . S
C169 C168 1.388 . S
H170 C178 0.950 . S
H171 C183 0.950 1_556 S
H172 C180 0.950 . S
H173 C182 0.961 . S
H174 C184 0.950 . S
H175 C186 0.950 . S
H176 C188 0.950 . S
H177 C189 0.950 . S
C178 H170 0.950 . S
C178 C179 1.386 . S
C178 C180 1.391 . S
C179 C178 1.386 . S
C179 C183 1.393 . S
C180 H172 0.950 . S
C180 C178 1.391 . S
C180 C181 1.400 . S
C181 C180 1.400 . S
C181 C182 1.398 . S
C181 C187 1.491 . S
C182 H173 0.961 . S
C182 C181 1.398 . S
C182 C183 1.391 . S
C183 H171 0.950 1_554 S
C183 C179 1.393 . S
C183 C182 1.391 . S
C184 H174 0.950 . S
C184 C185 1.386 . S
C184 C186 1.391 . S
C185 C184 1.386 . S
C185 C189 1.393 . S
C186 H175 0.950 . S
C186 C184 1.391 . S
C186 C187 1.400 . S
C187 C181 1.491 . S
C187 C186 1.400 . S
C187 C188 1.398 . S
C188 H176 0.950 . S
C188 C187 1.398 . S
C188 C189 1.391 . S
C189 H177 0.950 . S
C189 C185 1.393 . S
C189 C188 1.391 . S
H190 C198 0.950 . S
H191 C203 0.950 . S
H192 C200 0.950 . S
H193 C202 0.950 . S
H194 C204 0.950 . S
H195 C206 0.950 . S
H196 C208 0.950 1_554 S
H197 C209 0.931 1_554 S
C198 H190 0.950 . S
C198 C199 1.386 1_554 S
C198 C200 1.391 . S
C199 C198 1.386 1_556 S
C199 C203 1.393 . S
C200 H192 0.950 . S
C200 C198 1.391 . S
C200 C201 1.400 1_554 S
C201 C200 1.400 1_556 S
C201 C202 1.398 . S
C201 C207 1.491 . S
C202 H193 0.950 . S
C202 C201 1.398 . S
C202 C203 1.391 . S
C203 H191 0.950 . S
C203 C199 1.393 . S
C203 C202 1.391 . S
C204 H194 0.950 . S
C204 C205 1.386 . S
C204 C206 1.391 . S
C205 C204 1.386 . S
C205 C209 1.393 . S
C206 H195 0.950 . S
C206 C204 1.391 . S
C206 C207 1.400 . S
C207 C201 1.491 . S
C207 C206 1.400 . S
C207 C208 1.398 . S
C208 H196 0.950 1_556 S
C208 C207 1.398 . S
C208 C209 1.391 . S
C209 H197 0.931 1_556 S
C209 C205 1.393 . S
C209 C208 1.391 . S
H210 C218 0.950 . S
H211 C223 0.950 . S
H212 C220 0.950 . S
H213 C222 0.950 . S
H214 C224 0.950 . S
H215 C226 0.950 . S
H216 C228 0.950 . S
H217 C229 0.950 . S
C218 H210 0.950 . S
C218 C219 1.386 . S
C218 C220 1.391 . S
C219 C218 1.386 . S
C219 C223 1.393 . S
C220 H212 0.950 . S
C220 C218 1.391 . S
C220 C221 1.400 . S
C221 C220 1.400 . S
C221 C222 1.398 . S
C221 C227 1.491 . S
C222 H213 0.950 . S
C222 C221 1.398 . S
C222 C223 1.391 . S
C223 H211 0.950 . S
C223 C219 1.393 . S
C223 C222 1.391 . S
C224 H214 0.950 . S
C224 C225 1.386 . S
C224 C226 1.391 . S
C225 C224 1.386 . S
C225 C229 1.393 . S
C226 H215 0.950 . S
C226 C224 1.391 . S
C226 C227 1.400 . S
C227 C221 1.491 . S
C227 C226 1.400 . S
C227 C228 1.398 . S
C228 H216 0.950 . S
C228 C227 1.398 . S
C228 C229 1.391 . S
C229 H217 0.950 . S
C229 C225 1.393 . S
C229 C228 1.391 . S
H230 C238 0.950 . S
H231 C243 0.950 . S
H232 C240 0.950 . S
H233 C242 0.950 . S
H234 C244 0.950 . S
H235 C246 0.950 . S
H236 C248 0.953 . S
H237 C249 0.950 . S
C238 H230 0.950 . S
C238 C239 1.376 1_554 S
C238 C240 1.391 . S
C239 C238 1.376 1_556 S
C239 C243 1.407 . S
C240 H232 0.950 . S
C240 C238 1.391 . S
C240 C241 1.400 1_554 S
C241 C240 1.400 1_556 S
C241 C242 1.398 . S
C241 C247 1.491 . S
C242 H233 0.950 . S
C242 C241 1.398 . S
C242 C243 1.391 . S
C243 H231 0.950 . S
C243 C239 1.407 . S
C243 C242 1.391 . S
C244 H234 0.950 . S
C244 C245 1.386 . S
C244 C246 1.391 . S
C245 C244 1.386 . S
C245 C249 1.393 . S
C246 H235 0.950 . S
C246 C244 1.391 . S
C246 C247 1.400 . S
C247 C241 1.491 . S
C247 C246 1.400 . S
C247 C248 1.398 . S
C248 H236 0.953 . S
C248 C247 1.398 . S
C248 C249 1.391 . S
C249 H237 0.950 . S
C249 C245 1.393 . S
C249 C248 1.391 . S
H250 C258 0.950 . S
H251 C263 0.950 . S
H252 C260 0.950 . S
H253 C262 0.950 . S
H254 C264 0.950 . S
H255 C266 0.950 . S
H256 C268 0.950 . S
H257 C269 0.950 . S
C258 H250 0.950 . S
C258 C259 1.386 . S
C258 C260 1.391 . S
C259 C258 1.386 . S
C259 C263 1.393 . S
C260 H252 0.950 . S
C260 C258 1.391 . S
C260 C261 1.400 . S
C261 C260 1.400 . S
C261 C262 1.398 . S
C261 C267 1.491 . S
C262 H253 0.950 . S
C262 C261 1.398 . S
C262 C263 1.391 . S
C263 H251 0.950 . S
C263 C259 1.393 . S
C263 C262 1.391 . S
C264 H254 0.950 . S
C264 C265 1.386 . S
C264 C266 1.391 . S
C265 C264 1.386 . S
C265 C269 1.393 . S
C266 H255 0.950 . S
C266 C264 1.391 . S
C266 C267 1.400 . S
C267 C261 1.491 . S
C267 C266 1.400 . S
C267 C268 1.398 . S
C268 H256 0.950 . S
C268 C267 1.398 . S
C268 C269 1.391 . S
C269 H257 0.950 . S
C269 C265 1.393 . S
C269 C268 1.391 . S
H270 C278 0.950 . S
H271 C283 0.950 . S
H272 C280 0.950 . S
H273 C282 0.950 . S
H274 C284 0.950 . S
H275 C286 0.950 . S
H276 C288 0.950 . S
H277 C289 0.950 . S
C278 H270 0.950 . S
C278 C279 1.386 . S
C278 C280 1.391 . S
C279 C278 1.386 . S
C279 C283 1.393 . S
C280 H272 0.950 . S
C280 C278 1.391 . S
C280 C281 1.400 . S
C281 C280 1.400 . S
C281 C282 1.398 . S
C281 C287 1.491 . S
C282 H273 0.950 . S
C282 C281 1.398 . S
C282 C283 1.391 . S
C283 H271 0.950 . S
C283 C279 1.393 . S
C283 C282 1.391 . S
C284 H274 0.950 . S
C284 C285 1.386 . S
C284 C286 1.391 . S
C285 C284 1.386 . S
C285 C289 1.393 . S
C286 H275 0.950 . S
C286 C284 1.391 . S
C286 C287 1.400 . S
C287 C281 1.491 . S
C287 C286 1.400 . S
C287 C288 1.398 . S
C288 H276 0.950 . S
C288 C287 1.398 . S
C288 C289 1.391 . S
C289 H277 0.950 . S
C289 C285 1.393 . S
C289 C288 1.391 . S
H290 C298 0.950 . S
H291 C303 0.950 . S
H292 C300 0.950 . S
H293 C302 0.950 . S
H294 C304 0.950 . S
H295 C306 0.950 . S
H296 C308 0.950 . S
H297 C309 0.950 . S
C298 H290 0.950 . S
C298 C299 1.386 . S
C298 C300 1.391 . S
C299 C298 1.386 . S
C299 C303 1.393 . S
C300 H292 0.950 . S
C300 C298 1.391 . S
C300 C301 1.400 . S
C301 C300 1.400 . S
C301 C302 1.398 . S
C301 C307 1.491 . S
C302 H293 0.950 . S
C302 C301 1.398 . S
C302 C303 1.391 . S
C303 H291 0.950 . S
C303 C299 1.393 . S
C303 C302 1.391 . S
C304 H294 0.950 . S
C304 C305 1.386 . S
C304 C306 1.391 . S
C305 C304 1.386 . S
C305 C309 1.393 . S
C306 H295 0.950 . S
C306 C304 1.391 . S
C306 C307 1.400 . S
C307 C301 1.491 . S
C307 C306 1.400 . S
C307 C308 1.398 . S
C308 H296 0.950 . S
C308 C307 1.398 . S
C308 C309 1.391 . S
C309 H297 0.950 . S
C309 C305 1.393 . S
C309 C308 1.391 . S
H310 C318 0.950 . S
H311 C323 0.950 . S
H312 C320 0.950 . S
H313 C322 0.950 . S
H314 C324 0.950 . S
H315 C326 0.950 . S
H316 C328 0.950 . S
H317 C329 0.950 . S
C318 H310 0.950 . S
C318 C319 1.386 . S
C318 C320 1.391 . S
C319 C318 1.386 . S
C319 C323 1.393 . S
C320 H312 0.950 . S
C320 C318 1.391 . S
C320 C321 1.400 . S
C321 C320 1.400 . S
C321 C322 1.398 . S
C321 C327 1.491 . S
C322 H313 0.950 . S
C322 C321 1.398 . S
C322 C323 1.391 . S
C323 H311 0.950 . S
C323 C319 1.393 . S
C323 C322 1.391 . S
C324 H314 0.950 . S
C324 C325 1.386 . S
C324 C326 1.391 . S
C325 C324 1.386 . S
C325 C329 1.393 . S
C326 H315 0.950 . S
C326 C324 1.391 . S
C326 C327 1.400 . S
C327 C321 1.491 . S
C327 C326 1.400 . S
C327 C328 1.398 . S
C328 H316 0.950 . S
C328 C327 1.398 . S
C328 C329 1.391 . S
C329 H317 0.950 . S
C329 C325 1.393 . S
C329 C328 1.391 . S
H330 C338 0.950 1_655 S
H331 C343 0.950 . S
H332 C340 0.959 . S
H333 C342 0.950 . S
H334 C344 0.950 . S
H335 C346 0.950 . S
H336 C348 0.950 . S
H337 C349 0.950 . S
C338 H330 0.950 1_455 S
C338 C339 1.386 1_545 S
C338 C340 1.391 . S
C339 C338 1.386 1_565 S
C339 C343 1.393 . S
C340 H332 0.959 . S
C340 C338 1.391 . S
C340 C341 1.400 . S
C341 C340 1.400 . S
C341 C342 1.398 1_545 S
C341 C347 1.491 . S
C342 H333 0.950 . S
C342 C341 1.398 1_565 S
C342 C343 1.391 . S
C343 H331 0.950 . S
C343 C339 1.393 . S
C343 C342 1.391 . S
C344 H334 0.950 . S
C344 C345 1.386 1_565 S
C344 C346 1.391 . S
C345 C344 1.386 1_545 S
C345 C349 1.393 . S
C346 H335 0.950 . S
C346 C344 1.391 . S
C346 C347 1.400 1_565 S
C347 C341 1.491 . S
C347 C346 1.400 1_545 S
C347 C348 1.398 . S
C348 H336 0.950 . S
C348 C347 1.398 . S
C348 C349 1.391 . S
C349 H337 0.950 . S
C349 C345 1.393 . S
C349 C348 1.391 . S
H350 C358 0.950 . S
H351 C363 0.950 . S
H352 C360 0.950 . S
H353 C362 0.950 . S
H354 C364 0.950 . S
H355 C366 0.950 . S
H356 C368 0.950 . S
H357 C369 0.950 . S
C358 H350 0.950 . S
C358 C359 1.386 1_655 S
C358 C360 1.391 . S
C359 C358 1.386 1_455 S
C359 C363 1.393 1_565 S
C360 H352 0.950 . S
C360 C358 1.391 . S
C360 C361 1.400 1_665 S
C361 C360 1.400 1_445 S
C361 C362 1.398 . S
C361 C367 1.491 . S
C362 H353 0.950 . S
C362 C361 1.398 . S
C362 C363 1.391 . S
C363 H351 0.950 . S
C363 C359 1.393 1_545 S
C363 C362 1.391 . S
C364 H354 0.950 . S
C364 C365 1.386 . S
C364 C366 1.391 . S
C365 C364 1.386 . S
C365 C369 1.393 1_445 S
C366 H355 0.950 . S
C366 C364 1.391 . S
C366 C367 1.400 . S
C367 C361 1.491 . S
C367 C366 1.400 . S
C367 C368 1.398 1_445 S
C368 H356 0.950 . S
C368 C367 1.398 1_665 S
C368 C369 1.391 . S
C369 H357 0.950 . S
C369 C365 1.393 1_665 S
C369 C368 1.391 . S
H370 C378 0.950 . S
H371 C383 0.950 . S
H372 C380 0.950 . S
H373 C382 0.950 . S
H374 C384 0.950 . S
H375 C386 0.950 . S
H376 C388 0.950 . S
H377 C389 0.950 . S
C378 H370 0.950 . S
C378 C379 1.386 . S
C378 C380 1.391 . S
C379 C378 1.386 . S
C379 C383 1.393 . S
C380 H372 0.950 . S
C380 C378 1.391 . S
C380 C381 1.400 . S
C381 C380 1.400 . S
C381 C382 1.398 . S
C381 C387 1.491 . S
C382 H373 0.950 . S
C382 C381 1.398 . S
C382 C383 1.391 . S
C383 H371 0.950 . S
C383 C379 1.393 . S
C383 C382 1.391 . S
C384 H374 0.950 . S
C384 C385 1.386 . S
C384 C386 1.391 . S
C385 C384 1.386 . S
C385 C389 1.393 . S
C386 H375 0.950 . S
C386 C384 1.391 . S
C386 C387 1.400 . S
C387 C381 1.491 . S
C387 C386 1.400 . S
C387 C388 1.398 . S
C388 H376 0.950 . S
C388 C387 1.398 . S
C388 C389 1.391 . S
C389 H377 0.950 . S
C389 C385 1.393 . S
C389 C388 1.391 . S
H390 C398 0.950 . S
H391 C403 0.950 . S
H392 C400 0.950 . S
H393 C402 0.950 . S
H394 C404 0.950 . S
H395 C406 0.950 . S
H396 C408 0.950 . S
H397 C409 0.950 . S
C398 H390 0.950 . S
C398 C399 1.386 . S
C398 C400 1.391 . S
C399 C398 1.386 . S
C399 C403 1.393 . S
C400 H392 0.950 . S
C400 C398 1.391 . S
C400 C401 1.400 . S
C401 C400 1.400 . S
C401 C402 1.398 . S
C401 C407 1.491 . S
C402 H393 0.950 . S
C402 C401 1.398 . S
C402 C403 1.391 . S
C403 H391 0.950 . S
C403 C399 1.393 . S
C403 C402 1.391 . S
C404 H394 0.950 . S
C404 C405 1.386 . S
C404 C406 1.391 . S
C405 C404 1.386 . S
C405 C409 1.393 . S
C406 H395 0.950 . S
C406 C404 1.391 . S
C406 C407 1.400 . S
C407 C401 1.491 . S
C407 C406 1.400 . S
C407 C408 1.398 . S
C408 H396 0.950 . S
C408 C407 1.398 . S
C408 C409 1.391 . S
C409 H397 0.950 . S
C409 C405 1.393 . S
C409 C408 1.391 . S
C185 C155 1.231 . S
C179 C3 1.090 . S
C199 C4 1.489 1_556 S
C205 C123 1.574 . S
C219 C19 1.493 . S
C225 C161 1.569 . S
C239 C7 1.145 . S
C245 C129 1.231 . S
C259 C37 1.139 . S
C265 C91 1.207 . S
C279 C28 1.486 . S
C285 C59 1.574 . S
C305 C97 1.566 . S
C299 C41 1.497 . S
C325 C65 1.218 . S
C319 C25 1.097 . S
C339 C20 1.325 . S
C345 C71 1.446 . S
C359 C16 1.328 . S
C365 C103 1.445 . S
C385 C135 1.445 . S
C379 C40 1.326 . S
C399 C24 1.332 . S
C405 C167 1.447 . S
