# Generated by pormake.
# Topology zzz, (3,6)-cn, num edge types: 1
# Building blocks:
#     Node 0, Type 0, BuildingBlock: BETDIP_clean_linker_0, # of connection points: 3
#     Node 1, Type 0, BuildingBlock: BETDIP_clean_linker_0, # of connection points: 3
#     Node 2, Type 0, BuildingBlock: BETDIP_clean_linker_0, # of connection points: 3
#     Node 3, Type 0, BuildingBlock: BETDIP_clean_linker_0, # of connection points: 3
#     Node 4, Type 0, BuildingBlock: BETDIP_clean_linker_0, # of connection points: 3
#     Node 5, Type 0, BuildingBlock: BETDIP_clean_linker_0, # of connection points: 3
#     Node 6, Type 0, BuildingBlock: BETDIP_clean_linker_0, # of connection points: 3
#     Node 7, Type 0, BuildingBlock: BETDIP_clean_linker_0, # of connection points: 3
#     Node 8, Type 1, BuildingBlock: BETGAK_clean_sbu_0, # of connection points: 6
#     Node 9, Type 1, BuildingBlock: BETGAK_clean_sbu_0, # of connection points: 6
#     Node 10, Type 1, BuildingBlock: BETGAK_clean_sbu_0, # of connection points: 6
#     Node 11, Type 1, BuildingBlock: BETGAK_clean_sbu_0, # of connection points: 6
#     Edge 12, Type (0, 1), BuildingBlock: XIVTED_clean_linker_0, # of connection points: 2
#     Edge 13, Type (0, 1), BuildingBlock: XIVTED_clean_linker_0, # of connection points: 2
#     Edge 14, Type (0, 1), BuildingBlock: XIVTED_clean_linker_0, # of connection points: 2
#     Edge 15, Type (0, 1), BuildingBlock: XIVTED_clean_linker_0, # of connection points: 2
#     Edge 16, Type (0, 1), BuildingBlock: XIVTED_clean_linker_0, # of connection points: 2
#     Edge 17, Type (0, 1), BuildingBlock: XIVTED_clean_linker_0, # of connection points: 2
#     Edge 18, Type (0, 1), BuildingBlock: XIVTED_clean_linker_0, # of connection points: 2
#     Edge 19, Type (0, 1), BuildingBlock: XIVTED_clean_linker_0, # of connection points: 2
#     Edge 20, Type (0, 1), BuildingBlock: XIVTED_clean_linker_0, # of connection points: 2
#     Edge 21, Type (0, 1), BuildingBlock: XIVTED_clean_linker_0, # of connection points: 2
#     Edge 22, Type (0, 1), BuildingBlock: XIVTED_clean_linker_0, # of connection points: 2
#     Edge 23, Type (0, 1), BuildingBlock: XIVTED_clean_linker_0, # of connection points: 2
#     Edge 24, Type (0, 1), BuildingBlock: XIVTED_clean_linker_0, # of connection points: 2
#     Edge 25, Type (0, 1), BuildingBlock: XIVTED_clean_linker_0, # of connection points: 2
#     Edge 26, Type (0, 1), BuildingBlock: XIVTED_clean_linker_0, # of connection points: 2
#     Edge 27, Type (0, 1), BuildingBlock: XIVTED_clean_linker_0, # of connection points: 2
#     Edge 28, Type (0, 1), BuildingBlock: XIVTED_clean_linker_0, # of connection points: 2
#     Edge 29, Type (0, 1), BuildingBlock: XIVTED_clean_linker_0, # of connection points: 2
#     Edge 30, Type (0, 1), BuildingBlock: XIVTED_clean_linker_0, # of connection points: 2
#     Edge 31, Type (0, 1), BuildingBlock: XIVTED_clean_linker_0, # of connection points: 2
#     Edge 32, Type (0, 1), BuildingBlock: XIVTED_clean_linker_0, # of connection points: 2
#     Edge 33, Type (0, 1), BuildingBlock: XIVTED_clean_linker_0, # of connection points: 2
#     Edge 34, Type (0, 1), BuildingBlock: XIVTED_clean_linker_0, # of connection points: 2
#     Edge 35, Type (0, 1), BuildingBlock: XIVTED_clean_linker_0, # of connection points: 2
# Relax obj value: 0.281
# Max RMSD: 0.193
# Mean RMSD: 0.160
data_MOF--net-zzz--node1-BETGAK_clean_sbu_0--node2-BETDIP_clean_linker_0--edge1-XIVTED_clean_linker_0
_symmetry_space_group_name_H-M    P1
_symmetry_Int_Tables_number       1
_symmetry_cell_setting            triclinic
loop_
_symmetry_equiv_pos_as_xyz
'x, y, z'
_cell_length_a     52.895392
_cell_length_b     52.973832
_cell_length_c     13.447303
_cell_angle_alpha  90.125163
_cell_angle_beta   90.015998
_cell_angle_gamma 90.133257
loop_
_atom_site_label
_atom_site_type_symbol
_atom_site_fract_x
_atom_site_fract_y
_atom_site_fract_z
_atom_type_partial_charge
H0 H 0.75883 0.5347 0.44514 0.0
H1 H 0.73683 0.4795 0.22478 0.0
H2 H 0.80744 0.47193 0.37898 0.0
H3 H 0.73013 0.52904 0.15998 0.0
C4 C 0.71502 0.52752 0.21451 0.0
C5 C 0.76235 0.51718 0.40591 0.0
C6 C 0.78518 0.50387 0.4223 0.0
C7 C 0.74455 0.50814 0.33525 0.0
C8 C 0.74994 0.48606 0.2812 0.0
C9 C 0.77235 0.4727 0.29778 0.0
C10 C 0.78948 0.4815 0.36954 0.0
N11 N 0.72175 0.52156 0.31455 0.0
H12 H 0.99432 0.76605 0.44778 0.0
H13 H 0.05564 0.75115 0.24367 0.0
H14 H 0.05587 0.81868 0.42026 0.0
H15 H 1.01214 0.74068 0.1562 0.0
C16 C 1.01085 0.7255 0.21032 0.0
C17 C 1.01248 0.77114 0.41644 0.0
C18 C 0.02417 0.79423 0.44408 0.0
C19 C 0.02402 0.75518 0.34456 0.0
C20 C 0.04702 0.76274 0.30081 0.0
C21 C 0.0588 0.78534 0.32933 0.0
C22 C 0.04745 0.80056 0.40181 0.0
N23 N 1.01233 0.73206 0.31336 0.0
H24 H 0.76323 0.02557 0.44027 0.0
H25 H 0.78211 0.9658 0.23463 0.0
H26 H 0.70928 0.96719 0.37471 0.0
H27 H 0.82233 0.97238 0.33572 0.0
C28 C 0.82259 0.99149 0.30633 0.0
C29 C 0.75848 1.00797 0.40361 0.0
C30 C 0.7343 0.99697 0.41813 0.0
C31 C 0.77645 0.99603 0.34063 0.0
C32 C 0.76935 0.974 0.28875 0.0
C33 C 0.7452 0.96354 0.30029 0.0
C34 C 0.72833 0.97464 0.36779 0.0
N35 N 0.80083 1.00696 0.32291 0.0
H36 H 0.5225 0.77303 0.41779 0.0
H37 H 0.46239 0.79442 0.21825 0.0
H38 H 0.45651 0.72613 0.38803 0.0
H39 H 0.50923 0.79861 0.13036 0.0
C40 C 0.51042 0.81423 0.18281 0.0
C41 C 0.50386 0.76973 0.38701 0.0
C42 C 0.49018 0.74774 0.41362 0.0
C43 C 0.49363 0.78691 0.31709 0.0
C44 C 0.46994 0.78175 0.27399 0.0
C45 C 0.45629 0.76008 0.30014 0.0
C46 C 0.46635 0.74361 0.3713 0.0
N47 N 0.50738 0.80877 0.28607 0.0
H48 H 0.26265 0.50947 0.08328 0.0
H49 H 0.28479 0.57375 0.26145 0.0
H50 H 0.21411 0.57414 0.105 0.0
H51 H 0.32526 0.56044 0.16742 0.0
C52 C 0.3237 0.54252 0.20628 0.0
C53 C 0.25915 0.52844 0.11003 0.0
C54 C 0.23648 0.54096 0.08377 0.0
C55 C 0.27743 0.54081 0.17038 0.0
C56 C 0.27191 0.5649 0.20925 0.0
C57 C 0.24914 0.57699 0.1859 0.0
C58 C 0.23213 0.56523 0.1207 0.0
N59 N 0.30059 0.52863 0.19715 0.0
H60 H 1.00868 0.27378 0.05264 0.0
H61 H 0.05509 0.29205 0.3072 0.0
H62 H 0.05962 0.21861 0.1727 0.0
H63 H 0.99785 0.30712 0.31283 0.0
C64 C 1.009 0.32037 0.26939 0.0
C65 C 0.02339 0.26866 0.1048 0.0
C66 C 0.03363 0.24395 0.10327 0.0
C67 C 0.03153 0.28633 0.17791 0.0
C68 C 0.0496 0.27902 0.24875 0.0
C69 C 0.06028 0.25489 0.24545 0.0
C70 C 0.05248 0.23782 0.17172 0.0
N71 N 0.02155 0.31131 0.18241 0.0
H72 H 0.25825 0.03827 0.09759 0.0
H73 H 0.23669 0.97254 0.26773 0.0
H74 H 0.30874 0.9751 0.12202 0.0
H75 H 0.19751 0.98459 0.16603 0.0
C76 C 0.19748 1.0021 0.20843 0.0
C77 C 0.26221 0.0194 0.12412 0.0
C78 C 0.28558 1.00773 0.10046 0.0
C79 C 0.24385 1.00624 0.18142 0.0
C80 C 0.24981 0.98214 0.21873 0.0
C81 C 0.27305 0.9708 0.19725 0.0
C82 C 0.29039 0.98347 0.13636 0.0
N83 N 0.2199 0.01728 0.20552 0.0
H84 H 0.49506 0.27624 0.12465 0.0
H85 H 0.55834 0.25269 0.30437 0.0
H86 H 0.56073 0.32364 0.1508 0.0
H87 H 0.54325 0.21274 0.19956 0.0
C88 C 0.52618 0.21468 0.24397 0.0
C89 C 0.514 0.27943 0.15265 0.0
C90 C 0.52718 0.3018 0.12709 0.0
C91 C 0.52572 0.261 0.21355 0.0
C92 C 0.5499 0.26594 0.25291 0.0
C93 C 0.5626 0.28851 0.23115 0.0
C94 C 0.55138 0.3058 0.16591 0.0
N95 N 0.51294 0.23815 0.24003 0.0
La96 La 0.02622 1.01003 0.86916 0.0
La97 La 1.00185 0.02624 0.69071 0.0
C98 C 0.04587 1.00098 0.03578 0.0
C99 C 0.06431 0.98168 0.06596 0.0
C100 C 0.08362 0.97407 1.00065 0.0
C101 C 0.09841 0.953 0.02229 0.0
C102 C 0.0941 0.93907 0.10941 0.0
C103 C 0.07591 0.94782 0.17784 0.0
C104 C 0.06112 0.96892 0.15611 0.0
C105 C 0.05653 1.01148 0.71201 0.0
C106 C 1.00729 0.96669 0.72929 0.0
C107 C 0.99506 0.03931 0.5146 0.0
C108 C 1.00799 0.06136 0.46999 0.0
C109 C 0.99623 0.08509 0.47365 0.0
C110 C 1.01069 0.1071 0.46936 0.0
C111 C 0.03713 0.10584 0.46031 0.0
C112 C 0.04852 0.08227 0.44451 0.0
C113 C 0.03405 0.06021 0.44873 0.0
C114 C 0.9698 0.02369 0.84295 0.0
C115 C 0.01717 0.06807 0.83622 0.0
O116 O 0.05427 0.01822 0.97467 0.0
O117 O 0.02366 0.9924 0.00893 0.0
O118 O 0.05618 0.99373 0.77729 0.0
O119 O 0.04043 0.02793 0.73607 0.0
O120 O 1.01595 0.97204 0.81927 0.0
O121 O 1.00118 0.98499 0.66657 0.0
O122 O 0.97903 0.04469 0.58574 0.0
O123 O 1.00975 0.02046 0.53927 0.0
O124 O 0.96846 0.03979 0.77095 0.0
O125 O 0.98742 1.00834 0.82401 0.0
O126 O 0.01731 0.06226 0.74105 0.0
O127 O 1.01592 0.04966 0.90231 0.0
H128 H 0.08662 0.98372 0.93078 0.0
H129 H 0.11245 0.94695 0.96875 0.0
H130 H 0.07185 0.93739 0.24516 0.0
H131 H 0.04633 0.97448 0.20737 0.0
H132 H 0.97616 0.08665 0.48844 0.0
H133 H 1.00125 0.12511 0.47757 0.0
H134 H 0.0688 0.08072 0.43553 0.0
H135 H 0.0437 0.04225 0.44373 0.0
La136 La 0.51775 0.03269 0.84469 0.0
La137 La 0.50216 1.00993 0.66054 0.0
C138 C 0.54155 0.03656 0.00439 0.0
C139 C 0.56261 0.01975 0.03339 0.0
C140 C 0.5877 0.02763 0.01955 0.0
C141 C 0.6074 1.01016 0.02287 0.0
C142 C 0.60245 0.98441 0.03992 0.0
C143 C 0.57752 0.97676 0.05931 0.0
C144 C 0.55785 0.99425 0.05672 0.0
C145 C 0.50565 0.06677 0.70802 0.0
C146 C 0.55906 0.01857 0.68331 0.0
C147 C 0.48125 0.99602 0.5016 0.0
C148 C 0.45882 0.98006 0.48355 0.0
C149 C 0.46116 0.95758 0.42877 0.0
C150 C 0.44046 0.94131 0.4178 0.0
C151 C 0.41714 0.9472 0.46219 0.0
C152 C 0.41492 0.96972 0.51694 0.0
C153 C 0.43548 0.986 0.52713 0.0
C154 C 0.51569 0.97645 0.79767 0.0
C155 C 0.45965 0.02634 0.82172 0.0
O156 O 0.54593 0.05124 0.92804 0.0
O157 O 0.51935 0.02577 0.99804 0.0
O158 O 0.50228 0.06967 0.803 0.0
O159 O 0.51725 0.04629 0.69393 0.0
O160 O 0.55329 0.01786 0.77901 0.0
O161 O 0.54057 0.02051 0.6179 0.0
O162 O 0.50037 0.98429 0.54163 0.0
O163 O 0.47745 0.01815 0.54272 0.0
O164 O 0.5205 0.97465 0.70392 0.0
O165 O 0.50275 0.9961 0.8113 0.0
O166 O 0.46496 0.01755 0.73144 0.0
O167 O 0.4779 0.03297 0.88342 0.0
H168 H 0.59199 0.04711 1.00157 0.0
H169 H 0.62652 0.01684 0.01087 0.0
H170 H 0.57304 0.95712 0.07322 0.0
H171 H 0.53877 0.98746 0.06832 0.0
H172 H 0.47905 0.95252 0.3951 0.0
H173 H 0.44266 0.92418 0.37459 0.0
H174 H 0.39703 0.97521 0.54956 0.0
H175 H 0.43305 1.00327 0.56904 0.0
La176 La 0.4924 0.53056 0.84924 0.0
La177 La 0.52517 0.51895 0.69101 0.0
C178 C 0.4689 0.55004 0.99339 0.0
C179 C 0.45421 0.57349 1.00428 0.0
C180 C 0.42919 0.57257 0.03918 0.0
C181 C 0.41475 0.59464 0.04531 0.0
C182 C 0.42506 0.6179 0.01544 0.0
C183 C 0.45009 0.61866 0.98043 0.0
C184 C 0.46453 0.59676 0.97548 0.0
C185 C 0.46764 0.51596 0.6858 0.0
C186 C 0.50925 0.5749 0.70064 0.0
C187 C 0.54884 0.49946 0.54743 0.0
C188 C 0.56307 0.47575 0.53583 0.0
C189 C 0.58827 0.47643 0.50307 0.0
C190 C 0.60235 0.45416 0.49586 0.0
C191 C 0.59146 0.43085 0.52185 0.0
C192 C 0.56625 0.43035 0.55517 0.0
C193 C 0.55222 0.45252 0.56192 0.0
C194 C 0.54995 0.53515 0.85064 0.0
C195 C 0.50831 0.47481 0.841 0.0
O196 O 0.4591 0.53323 0.93382 0.0
O197 O 0.49328 0.55245 0.97959 0.0
O198 O 0.46232 0.50905 0.77537 0.0
O199 O 0.48651 0.53052 0.68986 0.0
O200 O 0.50098 0.56881 0.79052 0.0
O201 O 0.51668 0.55696 0.63914 0.0
O202 O 0.55879 0.51573 0.60898 0.0
O203 O 0.52433 0.49763 0.55907 0.0
O204 O 0.5542 0.54201 0.76022 0.0
O205 O 0.53164 0.51967 0.85058 0.0
O206 O 0.51654 0.48071 0.75083 0.0
O207 O 0.50094 0.49285 0.90178 0.0
H208 H 0.42084 0.55477 0.06166 0.0
H209 H 0.3956 0.59355 0.07353 0.0
H210 H 0.45889 0.63638 0.9598 0.0
H211 H 0.48385 0.59813 0.94964 0.0
H212 H 0.59707 0.49421 0.48321 0.0
H213 H 0.62169 0.45517 0.46971 0.0
H214 H 0.55699 0.41268 0.57318 0.0
H215 H 0.5328 0.45138 0.58699 0.0
La216 La 1.00675 0.50477 0.82417 0.0
La217 La 0.01902 0.53783 0.64984 0.0
C218 C 0.98718 0.48231 0.96991 0.0
C219 C 0.96233 0.47014 0.98287 0.0
C220 C 0.96095 0.44472 0.01185 0.0
C221 C 0.93759 0.43234 0.01662 0.0
C222 C 0.91523 0.44519 0.99187 0.0
C223 C 0.91673 0.47067 0.96333 0.0
C224 C 0.93999 0.48301 0.95896 0.0
C225 C 0.02215 0.48066 0.66117 0.0
C226 C 0.9618 0.52283 0.6784 0.0
C227 C 0.037 0.55299 0.48807 0.0
C228 C 0.05727 0.57138 0.47016 0.0
C229 C 0.06773 0.5848 0.55041 0.0
C230 C 0.08875 0.60035 0.53643 0.0
C231 C 0.09994 0.60251 0.44206 0.0
C232 C 0.08867 0.58982 0.36095 0.0
C233 C 0.06749 0.57438 0.37501 0.0
C234 C 1.01303 0.56788 0.80782 0.0
C235 C 0.0622 0.52295 0.80728 0.0
O236 O 1.00195 0.47132 0.9054 0.0
O237 O 0.98748 0.50693 0.96055 0.0
O238 O 0.0292 0.47548 0.75092 0.0
O239 O 1.00718 0.49921 0.66515 0.0
O240 O 0.96863 0.51138 0.762 0.0
O241 O 0.97874 0.53315 0.61835 0.0
O242 O 0.01636 0.56224 0.52771 0.0
O243 O 0.04431 0.53214 0.5319 0.0
O244 O 0.01735 0.57541 0.71833 0.0
O245 O 1.01151 0.5441 0.80454 0.0
O246 O 0.05653 0.5292 0.7143 0.0
O247 O 0.0444 0.51616 0.87079 0.0
H248 H 0.978 0.43438 0.02979 0.0
H249 H 0.93702 0.41275 0.0393 0.0
H250 H 0.89983 0.48134 0.94643 0.0
H251 H 0.94042 0.5026 0.9362 0.0
H252 H 0.0602 0.58258 0.62469 0.0
H253 H 0.09675 0.60999 0.60024 0.0
H254 H 0.09702 0.59066 0.28751 0.0
H255 H 0.05971 0.56405 0.31241 0.0
H256 H 0.15767 0.97112 0.23438 0.0
H257 H 0.07798 0.05357 0.62207 0.0
H258 H 0.18675 0.04276 0.33601 0.0
H259 H 0.07851 0.97226 0.61692 0.0
H260 H 0.11189 0.05366 0.49495 0.0
H261 H 0.1223 0.97519 0.34953 0.0
C262 C 0.15655 0.98785 0.2807 0.0
C263 C 0.17541 1.0065 0.27586 0.0
C264 C 0.10445 0.03586 0.52164 0.0
C265 C 0.1345 1.01138 0.40874 0.0
C266 C 0.08502 0.0358 0.59348 0.0
C267 C 0.07541 1.01284 0.63001 0.0
C268 C 0.11383 1.01281 0.48474 0.0
C269 C 0.08536 0.99037 0.59107 0.0
C270 C 0.13632 0.99011 0.34677 0.0
C271 C 0.17275 0.02784 0.33758 0.0
N272 N 0.10378 0.99093 0.52053 0.0
N273 N 0.15266 0.02971 0.4016 0.0
H274 H 0.49297 0.21291 0.40501 0.0
H275 H 0.52308 0.06665 0.51647 0.0
H276 H 0.54341 0.1669 0.23062 0.0
H277 H 0.48747 0.11513 0.73258 0.0
H278 H 0.52525 0.10215 0.40081 0.0
H279 H 0.48547 0.17653 0.51586 0.0
C280 C 0.50216 0.19511 0.38921 0.0
C281 C 0.5188 0.19291 0.30819 0.0
C282 C 0.51686 0.10509 0.47333 0.0
C283 C 0.51038 0.15129 0.43448 0.0
C284 C 0.51555 0.08474 0.53946 0.0
C285 C 0.50524 0.0879 0.63484 0.0
C286 C 0.50764 0.12893 0.50194 0.0
C287 C 0.4957 0.11186 0.66001 0.0
C288 C 0.49802 0.17439 0.45279 0.0
C289 C 0.53042 0.16945 0.29205 0.0
N290 N 0.49718 0.13145 0.59423 0.0
N291 N 0.526 0.14969 0.35418 0.0
H292 H 0.32664 0.50447 0.34853 0.0
H293 H 0.46865 0.54233 0.50995 0.0
H294 H 0.37053 0.56314 0.20879 0.0
H295 H 0.42206 0.49117 0.67893 0.0
H296 H 0.43453 0.54626 0.38743 0.0
H297 H 0.36272 0.49554 0.459 0.0
C298 C 0.34393 0.51525 0.34024 0.0
C299 C 0.34555 0.5346 0.26927 0.0
C300 C 0.43178 0.53403 0.45093 0.0
C301 C 0.38691 0.52457 0.39553 0.0
C302 C 0.45134 0.53171 0.52077 0.0
C303 C 0.44822 0.51649 0.60525 0.0
C304 C 0.40881 0.521 0.46507 0.0
C305 C 0.42529 0.5032 0.61518 0.0
C306 C 0.3645 0.51024 0.4036 0.0
C307 C 0.36841 0.54808 0.26251 0.0
N308 N 0.40649 0.50583 0.54645 0.0
N309 N 0.38806 0.54287 0.32457 0.0
H310 H 0.97204 0.34748 0.35956 0.0
H311 H 0.05987 0.44795 0.61112 0.0
H312 H 0.04964 0.35331 0.26544 0.0
H313 H 0.98311 0.46721 0.53647 0.0
H314 H 0.05714 0.41132 0.4986 0.0
H315 H 0.97555 0.38921 0.4385 0.0
C316 C 0.98972 0.35776 0.35423 0.0
C317 C 1.01046 0.34706 0.30471 0.0
C318 C 0.04105 0.42379 0.50565 0.0
C319 C 1.01493 0.39444 0.39851 0.0
C320 C 0.04258 0.44468 0.56977 0.0
C321 C 0.02177 0.46079 0.58259 0.0
C322 C 0.01822 0.41838 0.45648 0.0
C323 C 0.99971 0.45548 0.52802 0.0
C324 C 0.99171 0.38155 0.39932 0.0
C325 C 0.03306 0.36104 0.30143 0.0
N326 N 0.99835 0.4345 0.46897 0.0
N327 N 0.03485 0.38379 0.34931 0.0
H328 H 0.83032 0.0346 0.19099 0.0
H329 H 0.96438 0.98542 0.97976 0.0
H330 H 0.86552 0.96485 0.27897 0.0
H331 H 0.92825 0.05328 0.87596 0.0
H332 H 0.92933 0.979 0.09674 0.0
H333 H 0.86683 0.04338 0.08232 0.0
C334 C 0.84579 0.02127 0.18823 0.0
C335 C 0.84486 0.99896 0.2444 0.0
C336 C 0.92904 0.99535 0.04859 0.0
C337 C 0.88667 1.00876 0.11977 0.0
C338 C 0.94912 0.99901 0.98179 0.0
C339 C 0.94924 0.01984 0.91747 0.0
C340 C 0.90884 1.01266 0.05163 0.0
C341 C 0.92891 0.03688 0.92377 0.0
C342 C 0.86661 0.02622 0.12588 0.0
C343 C 0.86542 0.98229 0.23712 0.0
N344 N 0.90959 0.0329 0.98917 0.0
N345 N 0.88533 0.98748 0.17624 0.0
H346 H 0.50013 0.86143 0.26624 0.0
H347 H 0.54303 0.93392 0.769 0.0
H348 H 0.52931 0.82553 1.0025 0.0
H349 H 0.49398 0.96919 0.98386 0.0
H350 H 0.54447 0.89618 0.87202 0.0
H351 H 0.50344 0.90275 0.18159 0.0
C352 C 0.50762 0.86228 0.19138 0.0
C353 C 0.51456 0.84001 0.14133 0.0
C354 C 0.53342 0.91213 0.89731 0.0
C355 C 0.51839 0.887 0.04448 0.0
C356 C 0.53263 0.93378 0.83839 0.0
C357 C 0.51812 0.95469 0.86707 0.0
C358 C 0.5196 0.91111 0.98647 0.0
C359 C 0.50527 0.95342 0.95858 0.0
C360 C 0.50933 0.88581 0.14291 0.0
C361 C 0.52379 0.84218 0.04395 0.0
N362 N 0.50618 0.93193 0.01487 0.0
N363 N 0.52545 0.8651 0.99914 0.0
H364 H 0.70108 0.55447 0.05469 0.0
H365 H 0.55891 0.50511 0.01725 0.0
H366 H 0.66921 0.50946 0.28997 0.0
H367 H 0.58867 0.56842 0.85356 0.0
H368 H 0.59768 0.5052 0.1204 0.0
H369 H 0.65928 0.55847 0.98057 0.0
C370 C 0.68512 0.54567 0.09152 0.0
C371 C 0.68865 0.53184 0.17908 0.0
C372 C 0.59547 0.51927 0.06279 0.0
C373 C 0.64031 0.53576 0.0927 0.0
C374 C 0.57332 0.51929 1.0042 0.0
C375 C 0.5706 0.53668 0.92602 0.0
C376 C 0.61501 0.53663 0.04225 0.0
C377 C 0.58997 0.5545 0.91219 0.0
C378 C 0.66117 0.54792 0.04905 0.0
C379 C 0.66727 0.52059 0.223 0.0
N380 N 0.61128 0.55383 0.96855 0.0
N381 N 0.64401 0.52252 0.17867 0.0
H382 H 0.02291 0.67867 0.29386 0.0
H383 H 0.98019 0.60615 0.7949 0.0
H384 H 0.99024 0.71308 0.03408 0.0
H385 H 0.03177 0.5716 1.00123 0.0
H386 H 0.9761 0.64224 0.90598 0.0
H387 H 0.01996 0.637 0.21016 0.0
C388 C 1.01467 0.67741 0.22029 0.0
C389 C 1.00667 0.6994 0.17094 0.0
C390 C 0.98807 0.6267 0.92843 0.0
C391 C 1.0032 0.65199 0.07527 0.0
C392 C 0.9902 0.6059 0.86524 0.0
C393 C 1.00614 0.5857 0.88904 0.0
C394 C 1.00235 0.62784 0.01647 0.0
C395 C 0.01894 0.5866 0.98078 0.0
C396 C 1.01316 0.65368 0.17233 0.0
C397 C 0.99657 0.6967 0.07508 0.0
N398 N 0.01703 0.60751 0.04079 0.0
N399 N 0.99511 0.67363 0.03094 0.0
H400 H 0.10591 0.23061 0.23931 0.0
H401 H 0.03122 0.14394 0.59534 0.0
H402 H 0.04751 0.25454 0.44124 0.0
H403 H 0.0788 0.12026 0.35209 0.0
H404 H 0.05237 0.18489 0.5958 0.0
H405 H 0.11329 0.19359 0.34279 0.0
C406 C 0.09565 0.22882 0.30869 0.0
C407 C 0.07512 0.24473 0.3292 0.0
C408 C 0.05861 0.17055 0.54384 0.0
C409 C 0.08278 0.20233 0.44523 0.0
C410 C 0.04635 0.14726 0.54275 0.0
C411 C 0.0526 0.12903 0.471 0.0
C412 C 0.07693 0.17583 0.47131 0.0
C413 C 0.07298 0.13397 0.40723 0.0
C414 C 0.09962 0.20749 0.36712 0.0
C415 C 0.06286 0.24206 0.42088 0.0
N416 N 0.08401 0.15715 0.40725 0.0
N417 N 0.06611 0.22053 0.47377 0.0
H418 H 0.27165 0.96275 0.39695 0.0
H419 H 0.37998 0.93291 0.59357 0.0
H420 H 0.29573 0.92825 0.12269 0.0
H421 H 0.40199 0.92632 0.28587 0.0
H422 H 0.33715 0.91991 0.54862 0.0
H423 H 0.30333 0.93893 0.4856 0.0
C424 C 0.28279 0.9491 0.35599 0.0
C425 C 0.28191 0.94828 0.25191 0.0
C426 C 0.35133 0.92104 0.49087 0.0
C427 C 0.319 0.92129 0.35232 0.0
C428 C 0.37586 0.92831 0.5167 0.0
C429 C 0.39421 0.93184 0.44256 0.0
C430 C 0.34512 0.91801 0.38987 0.0
C431 C 0.38826 0.92453 0.34513 0.0
C432 C 0.30121 0.93544 0.40683 0.0
C433 C 0.29656 0.93008 0.20285 0.0
N434 N 0.36404 0.91863 0.32119 0.0
N435 N 0.3152 0.91797 0.25295 0.0
H436 H 0.56944 0.28536 0.43211 0.0
H437 H 0.62158 0.41783 0.36393 0.0
H438 H 0.60602 0.31168 0.16523 0.0
H439 H 0.59223 0.38866 0.64018 0.0
H440 H 0.63216 0.37506 0.31299 0.0
H441 H 0.59396 0.31557 0.52854 0.0
C442 C 0.58346 0.29672 0.39408 0.0
C443 C 0.58482 0.29692 0.28991 0.0
C444 C 0.62405 0.37798 0.38604 0.0
C445 C 0.61205 0.33237 0.39926 0.0
C446 C 0.61807 0.40253 0.41541 0.0
C447 C 0.60497 0.40671 0.50464 0.0
C448 C 0.6163 0.35752 0.44526 0.0
C449 C 0.60126 0.38612 0.56862 0.0
C450 C 0.59734 0.31426 0.44927 0.0
C451 C 0.60363 0.31178 0.2452 0.0
N452 N 0.60618 0.36233 0.53649 0.0
N453 N 0.61585 0.32964 0.29962 0.0
H454 H 0.22797 0.62079 0.11676 0.0
H455 H 0.14011 0.6016 0.57097 0.0
H456 H 0.24777 0.58215 0.38725 0.0
H457 H 0.11731 0.63151 0.28639 0.0
H458 H 0.18373 0.61219 0.53252 0.0
H459 H 0.19444 0.64293 0.20595 0.0
C460 C 0.22604 0.6179 0.19615 0.0
C461 C 0.23986 0.59886 0.24393 0.0
C462 C 0.16914 0.61707 0.47944 0.0
C463 C 0.20125 0.62342 0.34535 0.0
C464 C 0.14408 0.61112 0.50152 0.0
C465 C 0.12502 0.61489 0.4303 0.0
C466 C 0.17527 0.62641 0.38483 0.0
C467 C 0.13152 0.62734 0.34187 0.0
C468 C 0.20674 0.63036 0.24691 0.0
C469 C 0.23705 0.5962 0.347 0.0
N470 N 0.15618 0.63208 0.32056 0.0
N471 N 0.21742 0.60765 0.39374 0.0
H472 H 0.0626 0.7913 0.12903 0.0
H473 H 0.10164 0.90271 0.96706 0.0
H474 H 0.10287 0.8053 0.40213 0.0
H475 H 0.11214 0.91714 0.28037 0.0
H476 H 0.10876 0.858 0.99634 0.0
H477 H 0.08592 0.82524 0.05059 0.0
C478 C 0.07739 0.80068 0.17101 0.0
C479 C 0.08027 0.79611 0.27293 0.0
C480 C 0.10969 0.87088 0.05877 0.0
C481 C 0.10683 0.8356 0.18465 0.0
C482 C 0.10603 0.89659 0.04188 0.0
C483 C 0.10534 0.91362 0.12215 0.0
C484 C 0.11213 0.86214 0.15686 0.0
C485 C 0.11147 0.90453 0.21694 0.0
C486 C 0.09075 0.82035 0.12623 0.0
C487 C 0.09966 0.80881 0.32383 0.0
N488 N 0.11402 0.87933 0.23201 0.0
N489 N 0.11159 0.82861 0.28021 0.0
H490 H 0.74915 0.96542 0.09818 0.0
H491 H 0.60935 0.94424 0.16586 0.0
H492 H 0.71643 0.92097 0.33332 0.0
H493 H 0.6433 0.98187 0.91463 0.0
H494 H 0.64807 0.92028 0.18871 0.0
H495 H 0.71406 0.9539 0.99096 0.0
C496 C 0.73524 0.95215 0.12594 0.0
C497 C 0.73477 0.94542 0.22676 0.0
C498 C 0.64693 0.93332 0.12697 0.0
C499 C 0.69393 0.93332 0.10637 0.0
C500 C 0.62473 0.94707 0.11392 0.0
C501 C 0.6235 0.96594 0.04101 0.0
C502 C 0.66822 0.93895 0.06836 0.0
C503 C 0.64392 0.96841 0.97508 0.0
C504 C 0.71489 0.94581 0.0648 0.0
C505 C 0.71668 0.92763 0.25725 0.0
N506 N 0.66568 0.95559 0.99194 0.0
N507 N 0.69624 0.9231 0.19882 0.0
H508 H 0.41164 0.73971 0.36703 0.0
H509 H 0.42154 0.65822 0.88876 0.0
H510 H 0.45106 0.75991 0.09806 0.0
H511 H 0.39759 0.63253 0.17797 0.0
H512 H 0.41225 0.70158 0.93875 0.0
H513 H 0.38659 0.70917 0.2725 0.0
C514 C 0.4143 0.73845 0.28729 0.0
C515 C 0.43423 0.75145 0.24102 0.0
C516 C 0.40822 0.68638 0.99017 0.0
C517 C 0.40604 0.71644 0.13322 0.0
C518 C 0.41361 0.66165 0.96181 0.0
C519 C 0.41133 0.64194 0.03089 0.0
C520 C 0.4009 0.69137 0.08863 0.0
C521 C 0.40019 0.64725 0.12316 0.0
C522 C 0.40004 0.72097 0.23339 0.0
C523 C 0.43637 0.74974 0.13729 0.0
N524 N 0.39608 0.67158 0.15049 0.0
N525 N 0.42304 0.73185 0.08724 0.0
H526 H 0.79285 0.42675 0.34428 0.0
H527 H 0.87377 0.44843 0.86972 0.0
H528 H 0.77202 0.47331 0.09504 0.0
H529 H 0.89923 0.41476 0.14381 0.0
H530 H 0.83009 0.43989 0.91838 0.0
H531 H 0.82291 0.4044 0.23823 0.0
C532 C 0.79387 0.43155 0.2661 0.0
C533 C 0.78077 0.45254 0.22914 0.0
C534 C 0.84527 0.43367 0.9665 0.0
C535 C 0.81541 0.42762 0.10857 0.0
C536 C 0.87019 0.43868 0.93907 0.0
C537 C 0.89007 0.43325 0.00482 0.0
C538 C 0.84026 0.42346 0.06075 0.0
C539 C 0.88447 0.41978 0.09177 0.0
C540 C 0.8111 0.41888 0.20565 0.0
C541 C 0.78226 0.45762 0.12705 0.0
N542 N 0.86002 0.41595 0.11851 0.0
N543 N 0.79998 0.44581 0.07086 0.0
H544 H 0.9977 0.20999 0.15661 0.0
H545 H 0.03162 0.10965 0.7277 0.0
H546 H 0.04957 0.22724 0.91982 0.0
H547 H 1.00349 0.08866 0.01682 0.0
H548 H 0.03193 0.15413 0.78066 0.0
H549 H 0.99197 0.16746 0.08732 0.0
C550 C 1.00702 0.20518 0.08739 0.0
C551 C 0.02356 0.22253 0.04238 0.0
C552 C 0.02561 0.1398 0.83229 0.0
C553 C 0.01789 0.17329 0.96431 0.0
C554 C 0.02542 0.11436 0.8022 0.0
C555 C 0.01763 0.09522 0.86797 0.0
C556 C 0.01745 0.14639 0.92838 0.0
C557 C 1.00984 0.10262 0.96367 0.0
C558 C 1.00414 0.1807 0.0489 0.0
C559 C 0.03606 0.21479 0.95525 0.0
N560 N 1.00982 0.12751 0.99064 0.0
N561 N 0.03305 0.19079 0.91929 0.0
H562 H 0.29814 1.00084 0.90561 0.0
H563 H 0.44115 0.04677 0.99579 0.0
H564 H 0.32268 0.03896 0.17148 0.0
H565 H 0.41618 1.00923 0.72837 0.0
H566 H 0.39737 0.04763 0.05462 0.0
H567 H 0.33984 1.00837 0.8312 0.0
C568 C 0.31198 1.01178 0.94669 0.0
C569 C 0.30659 0.01995 0.04386 0.0
C570 C 0.4014 0.03937 0.98266 0.0
C571 C 0.35512 0.02752 0.9611 0.0
C572 C 0.42652 0.03881 0.94885 0.0
C573 C 0.43267 0.02789 0.85639 0.0
C574 C 0.38197 0.02886 0.92415 0.0
C575 C 0.4126 0.01796 0.79958 0.0
C576 C 0.33599 0.0157 0.90486 0.0
C577 C 0.32572 0.03302 0.09534 0.0
N578 N 0.38833 0.01857 0.8344 0.0
N579 N 0.34911 0.03615 0.05393 0.0
H580 H 0.53958 0.31529 0.93777 0.0
H581 H 0.48747 0.45594 0.01249 0.0
H582 H 0.49298 0.33765 0.18472 0.0
H583 H 0.52793 0.43211 0.75039 0.0
H584 H 0.48727 0.41233 0.07141 0.0
H585 H 0.53251 0.35662 0.86066 0.0
C586 C 0.52702 0.32858 0.97383 0.0
C587 C 0.51631 0.32273 0.06662 0.0
C588 C 0.49608 0.41654 1.00068 0.0
C589 C 0.50911 0.37078 0.98116 0.0
C590 C 0.49631 0.44157 0.96692 0.0
C591 C 0.50781 0.44796 0.876 0.0
C592 C 0.50759 0.39747 0.94381 0.0
C593 C 0.5188 0.42826 0.82062 0.0
C594 C 0.52328 0.35236 0.93052 0.0
C595 C 0.50102 0.34109 0.11196 0.0
N596 N 0.51854 0.40405 0.85555 0.0
N597 N 0.49812 0.36431 0.06948 0.0
H598 H 0.20156 0.5066 0.14795 0.0
H599 H 0.10433 0.54038 0.70729 0.0
H600 H 0.2216 0.55182 0.89441 0.0
H601 H 0.08216 0.50499 0.9826 0.0
H602 H 0.14844 0.5398 0.76345 0.0
H603 H 0.15947 0.49964 0.07525 0.0
C604 C 0.19747 0.51413 0.07486 0.0
C605 C 0.21537 0.52928 0.02605 0.0
C606 C 0.13394 0.53207 0.81146 0.0
C607 C 0.16674 0.52239 0.94399 0.0
C608 C 0.10867 0.53242 0.77943 0.0
C609 C 0.08927 0.52284 0.84028 0.0
C610 C 0.14012 0.52189 0.90497 0.0
C611 C 0.0963 0.51276 0.93309 0.0
C612 C 0.17325 0.51057 0.03413 0.0
C613 C 0.20861 0.5395 0.93337 0.0
N614 N 0.121 0.51257 0.96238 0.0
N615 N 0.18487 0.53606 0.89585 0.0
H616 H 0.03578 0.80692 0.63573 0.0
H617 H 0.98574 0.94787 0.55777 0.0
H618 H 0.98866 0.82886 0.39006 0.0
H619 H 0.02354 0.92358 0.8251 0.0
H620 H 0.98424 0.90398 0.50082 0.0
H621 H 0.0282 0.84811 0.71406 0.0
C622 C 0.02289 0.82001 0.60045 0.0
C623 C 1.01225 0.81409 0.50746 0.0
C624 C 0.99267 0.90816 0.57237 0.0
C625 C 1.00461 0.8621 0.59403 0.0
C626 C 0.9936 0.93334 0.60503 0.0
C627 C 1.00485 0.93968 0.69661 0.0
C628 C 1.00328 0.88892 0.63092 0.0
C629 C 1.01465 0.91978 0.7541 0.0
C630 C 0.0189 0.84375 0.64436 0.0
C631 C 0.99663 0.8323 0.46302 0.0
N632 N 1.01383 0.89546 0.72006 0.0
N633 N 0.99358 0.85551 0.50583 0.0
H634 H 0.72046 0.98875 0.61187 0.0
H635 H 0.57797 0.02953 0.49821 0.0
H636 H 0.69825 0.02888 0.34832 0.0
H637 H 0.60207 1.00721 0.79146 0.0
H638 H 0.62208 0.02924 0.44363 0.0
H639 H 0.67828 0.99636 0.68301 0.0
C640 C 0.70706 1.00013 0.57082 0.0
C641 C 0.71322 1.00889 0.47522 0.0
C642 C 0.61781 0.02451 0.52011 0.0
C643 C 0.66424 0.01641 0.5536 0.0
C644 C 0.59251 0.02452 0.55131 0.0
C645 C 0.58609 0.0183 0.64972 0.0
C646 C 0.63713 0.01792 0.5871 0.0
C647 C 0.60599 1.01214 0.71492 0.0
C648 C 0.68281 1.00412 0.61073 0.0
C649 C 0.69462 0.02246 0.42339 0.0
N650 N 0.6305 1.01192 0.68236 0.0
N651 N 0.67101 0.02551 0.46248 0.0
H652 H 0.52856 0.71513 0.36785 0.0
H653 H 0.4862 0.61587 0.78834 0.0
H654 H 0.47326 0.7312 0.59386 0.0
H655 H 0.53229 0.59576 0.5362 0.0
H656 H 0.48606 0.6597 0.73182 0.0
H657 H 0.53583 0.67357 0.44396 0.0
C658 C 0.51871 0.71031 0.43585 0.0
C659 C 0.50064 0.72688 0.47567 0.0
C660 C 0.49636 0.64576 0.68902 0.0
C661 C 0.50811 0.67891 0.56134 0.0
C662 C 0.4965 0.62063 0.72161 0.0
C663 C 0.5093 0.60189 0.66743 0.0
C664 C 0.50921 0.65249 0.60137 0.0
C665 C 0.52204 0.60942 0.58044 0.0
C666 C 0.52252 0.6864 0.47835 0.0
C667 C 0.4877 0.71922 0.56184 0.0
N668 N 0.52166 0.63402 0.55024 0.0
N669 N 0.49154 0.69584 0.6012 0.0
H670 H 0.80332 0.484 0.5951 0.0
H671 H 0.93883 0.54987 0.52851 0.0
H672 H 0.8174 0.54313 0.38323 0.0
H673 H 0.92199 0.49636 0.76048 0.0
H674 H 0.89417 0.54943 0.48002 0.0
H675 H 0.84551 0.49088 0.66585 0.0
C676 C 0.81497 0.49912 0.56598 0.0
C677 C 0.80654 0.51342 0.48464 0.0
C678 C 0.90018 0.53792 0.54206 0.0
C679 C 0.85563 0.52062 0.56205 0.0
C680 C 0.9258 0.53807 0.56967 0.0
C681 C 0.93443 0.52314 0.64914 0.0
C682 C 0.88285 0.52258 0.59356 0.0
C683 C 0.91639 0.50833 0.69943 0.0
C684 C 0.83925 0.50281 0.60542 0.0
C685 C 0.82286 0.53213 0.44748 0.0
N686 N 0.89164 0.50833 0.67057 0.0
N687 N 0.84666 0.53497 0.48551 0.0
loop_
_geom_bond_atom_site_label_1
_geom_bond_atom_site_label_2
_geom_bond_distance
_geom_bond_site_symmetry_2
_ccdc_geom_bond_type
H0 C5 0.930 . S
H1 C8 0.930 . S
H2 C10 0.930 . S
H3 C4 1.016 . S
C4 H3 1.016 . S
C4 N11 1.286 . S
C5 H0 0.930 . S
C5 C6 1.397 . S
C5 C7 1.361 . S
C6 C5 1.397 . S
C6 C10 1.390 . S
C7 C5 1.361 . S
C7 C8 1.393 . S
C7 N11 1.413 . S
C8 H1 0.930 . S
C8 C7 1.393 . S
C8 C9 1.399 . S
C9 C8 1.399 . S
C9 C10 1.381 . S
C10 H2 0.930 . S
C10 C6 1.390 . S
C10 C9 1.381 . S
N11 C4 1.286 . S
N11 C7 1.413 . S
H12 C17 0.930 . S
H13 C20 0.930 . S
H14 C22 0.930 . S
H15 C16 1.029 . S
C16 H15 1.029 . S
C16 N23 1.268 1_655 S
C17 H12 0.930 . S
C17 C18 1.397 . S
C17 C19 1.361 . S
C18 C17 1.397 . S
C18 C22 1.390 1_455 S
C19 C17 1.361 . S
C19 C20 1.393 . S
C19 N23 1.413 . S
C20 H13 0.930 . S
C20 C19 1.393 . S
C20 C21 1.402 . S
C21 C20 1.402 . S
C21 C22 1.379 1_455 S
C22 H14 0.930 . S
C22 C18 1.390 1_655 S
C22 C21 1.379 1_655 S
N23 C16 1.268 1_455 S
N23 C19 1.413 . S
H24 C29 0.930 . S
H25 C32 0.930 . S
H26 C34 0.930 . S
H27 C28 1.030 . S
C28 H27 1.030 . S
C28 N35 1.268 1_565 S
C29 H24 0.930 . S
C29 C30 1.397 . S
C29 C31 1.361 . S
C30 C29 1.397 . S
C30 C34 1.390 1_545 S
C31 C29 1.361 . S
C31 C32 1.393 . S
C31 N35 1.413 . S
C32 H25 0.930 . S
C32 C31 1.393 . S
C32 C33 1.402 . S
C33 C32 1.402 . S
C33 C34 1.379 1_545 S
C34 H26 0.930 . S
C34 C30 1.390 1_565 S
C34 C33 1.379 1_565 S
N35 C28 1.268 1_545 S
N35 C31 1.413 . S
H36 C41 0.930 . S
H37 C44 0.930 . S
H38 C46 0.930 . S
H39 C40 1.016 . S
C40 H39 1.016 . S
C40 N47 1.286 . S
C41 H36 0.930 . S
C41 C42 1.397 . S
C41 C43 1.361 . S
C42 C41 1.397 . S
C42 C46 1.390 . S
C43 C41 1.361 . S
C43 C44 1.393 . S
C43 N47 1.413 . S
C44 H37 0.930 . S
C44 C43 1.393 . S
C44 C45 1.399 . S
C45 C44 1.399 . S
C45 C46 1.381 . S
C46 H38 0.930 . S
C46 C42 1.390 . S
C46 C45 1.381 . S
N47 C40 1.286 . S
N47 C43 1.413 . S
H48 C53 0.930 . S
H49 C56 0.930 . S
H50 C58 0.930 . S
H51 C52 1.016 . S
C52 H51 1.016 . S
C52 N59 1.286 . S
C53 H48 0.930 . S
C53 C54 1.397 . S
C53 C55 1.361 1_556 S
C54 C53 1.397 . S
C54 C58 1.390 1_556 S
C55 C53 1.361 1_554 S
C55 C56 1.393 . S
C55 N59 1.413 . S
C56 H49 0.930 . S
C56 C55 1.393 . S
C56 C57 1.399 . S
C57 C56 1.399 . S
C57 C58 1.381 . S
C58 H50 0.930 . S
C58 C54 1.390 1_554 S
C58 C57 1.381 . S
N59 C52 1.286 . S
N59 C55 1.413 . S
H60 C65 0.930 . S
H61 C68 0.930 . S
H62 C70 0.930 . S
H63 C64 1.026 . S
C64 H63 1.026 . S
C64 N71 1.273 1_655 S
C65 H60 0.930 . S
C65 C66 1.397 . S
C65 C67 1.361 1_556 S
C66 C65 1.397 . S
C66 C70 1.390 1_456 S
C67 C65 1.361 1_554 S
C67 C68 1.393 . S
C67 N71 1.413 . S
C68 H61 0.930 . S
C68 C67 1.393 . S
C68 C69 1.404 . S
C69 C68 1.404 . S
C69 C70 1.378 1_455 S
C70 H62 0.930 . S
C70 C66 1.390 1_654 S
C70 C69 1.378 1_655 S
N71 C64 1.273 1_455 S
N71 C67 1.413 . S
H72 C77 0.930 . S
H73 C80 0.930 . S
H74 C82 0.930 . S
H75 C76 1.026 . S
C76 H75 1.026 . S
C76 N83 1.273 1_565 S
C77 H72 0.930 . S
C77 C78 1.397 . S
C77 C79 1.361 1_556 S
C78 C77 1.397 . S
C78 C82 1.390 1_546 S
C79 C77 1.361 1_554 S
C79 C80 1.393 . S
C79 N83 1.413 . S
C80 H73 0.930 . S
C80 C79 1.393 . S
C80 C81 1.404 . S
C81 C80 1.404 . S
C81 C82 1.378 1_545 S
C82 H74 0.930 . S
C82 C78 1.390 1_564 S
C82 C81 1.378 1_565 S
N83 C76 1.273 1_545 S
N83 C79 1.413 . S
H84 C89 0.930 . S
H85 C92 0.930 . S
H86 C94 0.930 . S
H87 C88 1.016 . S
C88 H87 1.016 . S
C88 N95 1.286 . S
C89 H84 0.930 . S
C89 C90 1.397 . S
C89 C91 1.361 1_556 S
C90 C89 1.397 . S
C90 C94 1.390 1_556 S
C91 C89 1.361 1_554 S
C91 C92 1.393 . S
C91 N95 1.413 . S
C92 H85 0.930 . S
C92 C91 1.393 . S
C92 C93 1.399 . S
C93 C92 1.399 . S
C93 C94 1.381 . S
C94 H86 0.930 . S
C94 C90 1.390 1_554 S
C94 C93 1.381 . S
N95 C88 1.286 . S
N95 C91 1.413 . S
La96 C98 2.928 . S
La96 O116 2.521 . S
La96 O117 2.628 . S
La96 O118 2.554 . S
La96 O119 2.757 1_565 S
La96 O120 2.470 . S
La96 O125 2.482 1_455 S
La96 O127 2.503 1_565 S
La97 C107 2.928 . S
La97 O119 2.482 1_655 S
La97 O121 2.503 1_545 S
La97 O122 2.521 . S
La97 O123 2.628 . S
La97 O124 2.554 . S
La97 O125 2.757 1_545 S
La97 O126 2.470 . S
C98 La96 2.928 . S
C98 C99 1.503 1_556 S
C98 O116 1.261 . S
C98 O117 1.243 . S
C99 C98 1.503 1_554 S
C99 C100 1.394 . S
C99 C104 1.373 . S
C100 C99 1.394 . S
C100 C101 1.380 . S
C100 H128 0.930 . S
C101 C100 1.380 . S
C101 C102 1.376 . S
C101 H129 0.930 . S
C102 C101 1.376 . S
C102 C103 1.370 . S
C103 C102 1.370 . S
C103 C104 1.396 . S
C103 H130 0.929 1_455 S
C104 C99 1.373 . S
C104 C103 1.396 . S
C104 H131 0.929 1_455 S
C105 O118 1.240 . S
C105 O119 1.289 1_565 S
C106 O120 1.258 1_655 S
C106 O121 1.256 . S
C107 La97 2.928 . S
C107 C108 1.503 . S
C107 O122 1.261 . S
C107 O123 1.243 . S
C108 C107 1.503 . S
C108 C109 1.394 . S
C108 C113 1.373 . S
C109 C108 1.394 . S
C109 C110 1.380 . S
C109 H132 0.930 . S
C110 C109 1.380 . S
C110 C111 1.376 . S
C110 H133 0.930 . S
C111 C110 1.376 . S
C111 C112 1.370 . S
C112 C111 1.370 . S
C112 C113 1.396 . S
C112 H134 0.929 1_655 S
C113 C108 1.373 . S
C113 C112 1.396 . S
C113 H135 0.929 1_655 S
C114 O124 1.240 . S
C114 O125 1.289 1_545 S
C115 O126 1.258 1_455 S
C115 O127 1.256 . S
O116 La96 2.521 . S
O116 C98 1.261 . S
O117 La96 2.628 . S
O117 C98 1.243 . S
O118 La96 2.554 . S
O118 C105 1.240 . S
O119 La96 2.757 1_545 S
O119 La97 2.482 1_455 S
O119 C105 1.289 1_545 S
O120 La96 2.470 . S
O120 C106 1.258 1_455 S
O121 La97 2.503 1_565 S
O121 C106 1.256 . S
O122 La97 2.521 . S
O122 C107 1.261 . S
O123 La97 2.628 . S
O123 C107 1.243 . S
O124 La97 2.554 . S
O124 C114 1.240 . S
O125 La96 2.482 1_655 S
O125 La97 2.757 1_565 S
O125 C114 1.289 1_565 S
O126 La97 2.470 . S
O126 C115 1.258 1_655 S
O127 La96 2.503 1_545 S
O127 C115 1.256 . S
H128 C100 0.930 . S
H129 C101 0.930 . S
H130 C103 0.929 1_655 S
H131 C104 0.929 1_655 S
H132 C109 0.930 . S
H133 C110 0.930 . S
H134 C112 0.929 1_455 S
H135 C113 0.929 1_455 S
La136 C138 2.928 . S
La136 O156 2.521 . S
La136 O157 2.628 . S
La136 O158 2.554 . S
La136 O159 2.757 . S
La136 O160 2.470 . S
La136 O165 2.482 1_545 S
La136 O167 2.503 . S
La137 C147 2.928 . S
La137 O159 2.482 1_565 S
La137 O161 2.503 . S
La137 O162 2.521 . S
La137 O163 2.628 . S
La137 O164 2.554 . S
La137 O165 2.757 . S
La137 O166 2.470 . S
C138 La136 2.928 . S
C138 C139 1.503 1_556 S
C138 O156 1.261 . S
C138 O157 1.243 . S
C139 C138 1.503 1_554 S
C139 C140 1.394 . S
C139 C144 1.373 . S
C140 C139 1.394 . S
C140 C141 1.380 . S
C140 H168 0.930 . S
C141 C140 1.380 . S
C141 C142 1.376 . S
C141 H169 0.930 . S
C142 C141 1.376 . S
C142 C143 1.370 . S
C143 C142 1.370 . S
C143 C144 1.396 . S
C143 H170 0.929 1_545 S
C144 C139 1.373 . S
C144 C143 1.396 . S
C144 H171 0.929 1_545 S
C145 O158 1.240 . S
C145 O159 1.289 . S
C146 O160 1.258 1_565 S
C146 O161 1.256 . S
C147 La137 2.928 . S
C147 C148 1.503 . S
C147 O162 1.261 . S
C147 O163 1.243 . S
C148 C147 1.503 . S
C148 C149 1.394 . S
C148 C153 1.373 . S
C149 C148 1.394 . S
C149 C150 1.380 . S
C149 H172 0.930 . S
C150 C149 1.380 . S
C150 C151 1.376 . S
C150 H173 0.930 . S
C151 C150 1.376 . S
C151 C152 1.370 . S
C152 C151 1.370 . S
C152 C153 1.396 . S
C152 H174 0.929 1_565 S
C153 C148 1.373 . S
C153 C152 1.396 . S
C153 H175 0.929 1_565 S
C154 O164 1.240 . S
C154 O165 1.289 . S
C155 O166 1.258 1_545 S
C155 O167 1.256 . S
O156 La136 2.521 . S
O156 C138 1.261 . S
O157 La136 2.628 . S
O157 C138 1.243 . S
O158 La136 2.554 . S
O158 C145 1.240 . S
O159 La136 2.757 . S
O159 La137 2.482 1_545 S
O159 C145 1.289 . S
O160 La136 2.470 . S
O160 C146 1.258 1_545 S
O161 La137 2.503 . S
O161 C146 1.256 . S
O162 La137 2.521 . S
O162 C147 1.261 . S
O163 La137 2.628 . S
O163 C147 1.243 . S
O164 La137 2.554 . S
O164 C154 1.240 . S
O165 La136 2.482 1_565 S
O165 La137 2.757 . S
O165 C154 1.289 . S
O166 La137 2.470 . S
O166 C155 1.258 1_565 S
O167 La136 2.503 . S
O167 C155 1.256 . S
H168 C140 0.930 . S
H169 C141 0.930 . S
H170 C143 0.929 1_565 S
H171 C144 0.929 1_565 S
H172 C149 0.930 . S
H173 C150 0.930 . S
H174 C152 0.929 1_545 S
H175 C153 0.929 1_545 S
La176 C178 2.928 . S
La176 O196 2.521 . S
La176 O197 2.628 . S
La176 O198 2.554 . S
La176 O199 2.757 . S
La176 O200 2.470 . S
La176 O205 2.482 . S
La176 O207 2.503 . S
La177 C187 2.928 . S
La177 O199 2.482 . S
La177 O201 2.503 . S
La177 O202 2.521 . S
La177 O203 2.628 . S
La177 O204 2.554 . S
La177 O205 2.757 . S
La177 O206 2.470 . S
C178 La176 2.928 . S
C178 C179 1.503 1_556 S
C178 O196 1.261 . S
C178 O197 1.243 . S
C179 C178 1.503 1_554 S
C179 C180 1.394 . S
C179 C184 1.373 . S
C180 C179 1.394 . S
C180 C181 1.380 . S
C180 H208 0.930 . S
C181 C180 1.380 . S
C181 C182 1.376 . S
C181 H209 0.930 . S
C182 C181 1.376 . S
C182 C183 1.370 . S
C183 C182 1.370 . S
C183 C184 1.396 . S
C183 H210 0.929 . S
C184 C179 1.373 . S
C184 C183 1.396 . S
C184 H211 0.929 . S
C185 O198 1.240 . S
C185 O199 1.289 . S
C186 O200 1.258 . S
C186 O201 1.256 . S
C187 La177 2.928 . S
C187 C188 1.503 . S
C187 O202 1.261 . S
C187 O203 1.243 . S
C188 C187 1.503 . S
C188 C189 1.394 . S
C188 C193 1.373 . S
C189 C188 1.394 . S
C189 C190 1.380 . S
C189 H212 0.930 . S
C190 C189 1.380 . S
C190 C191 1.376 . S
C190 H213 0.930 . S
C191 C190 1.376 . S
C191 C192 1.370 . S
C192 C191 1.370 . S
C192 C193 1.396 . S
C192 H214 0.929 . S
C193 C188 1.373 . S
C193 C192 1.396 . S
C193 H215 0.929 . S
C194 O204 1.240 . S
C194 O205 1.289 . S
C195 O206 1.258 . S
C195 O207 1.256 . S
O196 La176 2.521 . S
O196 C178 1.261 . S
O197 La176 2.628 . S
O197 C178 1.243 . S
O198 La176 2.554 . S
O198 C185 1.240 . S
O199 La176 2.757 . S
O199 La177 2.482 . S
O199 C185 1.289 . S
O200 La176 2.470 . S
O200 C186 1.258 . S
O201 La177 2.503 . S
O201 C186 1.256 . S
O202 La177 2.521 . S
O202 C187 1.261 . S
O203 La177 2.628 . S
O203 C187 1.243 . S
O204 La177 2.554 . S
O204 C194 1.240 . S
O205 La176 2.482 . S
O205 La177 2.757 . S
O205 C194 1.289 . S
O206 La177 2.470 . S
O206 C195 1.258 . S
O207 La176 2.503 . S
O207 C195 1.256 . S
H208 C180 0.930 . S
H209 C181 0.930 . S
H210 C183 0.929 . S
H211 C184 0.929 . S
H212 C189 0.930 . S
H213 C190 0.930 . S
H214 C192 0.929 . S
H215 C193 0.929 . S
La216 C218 2.928 . S
La216 O236 2.521 . S
La216 O237 2.628 . S
La216 O238 2.554 . S
La216 O239 2.757 1_655 S
La216 O240 2.470 . S
La216 O245 2.482 . S
La216 O247 2.503 1_655 S
La217 C227 2.928 . S
La217 O239 2.482 . S
La217 O241 2.503 1_455 S
La217 O242 2.521 . S
La217 O243 2.628 . S
La217 O244 2.554 . S
La217 O245 2.757 1_455 S
La217 O246 2.470 . S
C218 La216 2.928 . S
C218 C219 1.503 1_556 S
C218 O236 1.261 . S
C218 O237 1.243 . S
C219 C218 1.503 1_554 S
C219 C220 1.394 . S
C219 C224 1.373 . S
C220 C219 1.394 . S
C220 C221 1.380 . S
C220 H248 0.930 . S
C221 C220 1.380 . S
C221 C222 1.376 . S
C221 H249 0.930 . S
C222 C221 1.376 . S
C222 C223 1.370 . S
C223 C222 1.370 . S
C223 C224 1.396 . S
C223 H250 0.929 . S
C224 C219 1.373 . S
C224 C223 1.396 . S
C224 H251 0.929 . S
C225 O238 1.257 . S
C225 O239 1.279 1_655 S
C226 O240 1.258 . S
C226 O241 1.256 . S
C227 La217 2.928 . S
C227 C228 1.503 . S
C227 O242 1.261 . S
C227 O243 1.243 . S
C228 C227 1.503 . S
C228 C229 1.394 . S
C228 C233 1.373 . S
C229 C228 1.394 . S
C229 C230 1.380 . S
C229 H252 0.930 . S
C230 C229 1.380 . S
C230 C231 1.376 . S
C230 H253 0.930 . S
C231 C230 1.376 . S
C231 C232 1.370 . S
C232 C231 1.370 . S
C232 C233 1.396 . S
C232 H254 0.929 . S
C233 C228 1.373 . S
C233 C232 1.396 . S
C233 H255 0.929 . S
C234 O244 1.263 . S
C234 O245 1.276 1_455 S
C235 O246 1.258 . S
C235 O247 1.256 . S
O236 La216 2.521 . S
O236 C218 1.261 . S
O237 La216 2.628 . S
O237 C218 1.243 . S
O238 La216 2.554 . S
O238 C225 1.257 . S
O239 La216 2.757 1_455 S
O239 La217 2.482 . S
O239 C225 1.279 1_455 S
O240 La216 2.470 . S
O240 C226 1.258 . S
O241 La217 2.503 1_655 S
O241 C226 1.256 . S
O242 La217 2.521 . S
O242 C227 1.261 . S
O243 La217 2.628 . S
O243 C227 1.243 . S
O244 La217 2.554 . S
O244 C234 1.263 . S
O245 La216 2.482 . S
O245 La217 2.757 1_655 S
O245 C234 1.276 1_655 S
O246 La217 2.470 . S
O246 C235 1.258 . S
O247 La216 2.503 1_455 S
O247 C235 1.256 . S
H248 C220 0.930 . S
H249 C221 0.930 . S
H250 C223 0.929 . S
H251 C224 0.929 . S
H252 C229 0.930 . S
H253 C230 0.930 . S
H254 C232 0.929 . S
H255 C233 0.929 . S
H256 C262 0.930 . S
H257 C266 0.930 . S
H258 C271 0.929 . S
H259 C269 0.929 . S
H260 C264 0.929 . S
H261 C270 0.929 . S
C262 H256 0.930 . S
C262 C263 1.369 . S
C262 C270 1.378 . S
C263 C262 1.369 . S
C263 C271 1.431 1_565 S
C264 H260 0.929 . S
C264 C266 1.378 . S
C264 C268 1.350 . S
C265 C268 1.463 1_565 S
C265 C270 1.346 . S
C265 N273 1.431 1_565 S
C266 H257 0.930 . S
C266 C264 1.378 . S
C266 C267 1.367 . S
C267 C266 1.367 . S
C267 C269 1.433 1_545 S
C268 C264 1.350 . S
C268 C265 1.463 1_545 S
C268 N272 1.427 1_545 S
C269 H259 0.929 . S
C269 C267 1.433 1_565 S
C269 N272 1.384 . S
C270 H261 0.929 . S
C270 C262 1.378 . S
C270 C265 1.346 . S
C271 H258 0.929 . S
C271 C263 1.431 1_545 S
C271 N273 1.384 . S
N272 C268 1.427 1_565 S
N272 C269 1.384 . S
N273 C265 1.431 1_545 S
N273 C271 1.384 . S
H274 C280 0.930 . S
H275 C284 0.930 . S
H276 C289 0.929 . S
H277 C287 0.929 . S
H278 C282 0.929 . S
H279 C288 0.929 . S
C280 H274 0.930 . S
C280 C281 1.367 . S
C280 C288 1.378 . S
C281 C280 1.367 . S
C281 C289 1.433 . S
C282 H278 0.929 . S
C282 C284 1.378 . S
C282 C286 1.350 . S
C283 C286 1.463 . S
C283 C288 1.350 . S
C283 N291 1.427 . S
C284 H275 0.930 . S
C284 C282 1.378 . S
C284 C285 1.367 . S
C285 C284 1.367 . S
C285 C287 1.433 . S
C286 C282 1.350 . S
C286 C283 1.463 . S
C286 N290 1.427 . S
C287 H277 0.929 . S
C287 C285 1.433 . S
C287 N290 1.384 . S
C288 H279 0.929 . S
C288 C280 1.378 . S
C288 C283 1.350 . S
C289 H276 0.929 . S
C289 C281 1.433 . S
C289 N291 1.384 . S
N290 C286 1.427 . S
N290 C287 1.384 . S
N291 C283 1.427 . S
N291 C289 1.384 . S
H292 C298 0.930 . S
H293 C302 0.930 . S
H294 C307 0.929 . S
H295 C305 0.929 . S
H296 C300 0.929 . S
H297 C306 0.929 . S
C298 H292 0.930 . S
C298 C299 1.367 . S
C298 C306 1.378 . S
C299 C298 1.367 . S
C299 C307 1.433 . S
C300 H296 0.929 . S
C300 C302 1.378 . S
C300 C304 1.350 . S
C301 C304 1.463 . S
C301 C306 1.350 . S
C301 N309 1.427 . S
C302 H293 0.930 . S
C302 C300 1.378 . S
C302 C303 1.367 . S
C303 C302 1.367 . S
C303 C305 1.433 . S
C304 C300 1.350 . S
C304 C301 1.463 . S
C304 N308 1.427 . S
C305 H295 0.929 . S
C305 C303 1.433 . S
C305 N308 1.384 . S
C306 H297 0.929 . S
C306 C298 1.378 . S
C306 C301 1.350 . S
C307 H294 0.929 . S
C307 C299 1.433 . S
C307 N309 1.384 . S
N308 C304 1.427 . S
N308 C305 1.384 . S
N309 C301 1.427 . S
N309 C307 1.384 . S
H310 C316 0.930 . S
H311 C320 0.930 . S
H312 C325 0.929 . S
H313 C323 0.929 . S
H314 C318 0.929 . S
H315 C324 0.929 . S
C316 H310 0.930 . S
C316 C317 1.366 . S
C316 C324 1.378 . S
C317 C316 1.366 . S
C317 C325 1.434 1_655 S
C318 H314 0.929 . S
C318 C320 1.378 . S
C318 C322 1.350 . S
C319 C322 1.463 . S
C319 C324 1.346 1_455 S
C319 N327 1.432 . S
C320 H311 0.930 . S
C320 C318 1.378 . S
C320 C321 1.367 . S
C321 C320 1.367 . S
C321 C323 1.433 1_455 S
C322 C318 1.350 . S
C322 C319 1.463 . S
C322 N326 1.427 1_455 S
C323 H313 0.929 . S
C323 C321 1.433 1_655 S
C323 N326 1.384 . S
C324 H315 0.929 . S
C324 C316 1.378 . S
C324 C319 1.346 1_655 S
C325 H312 0.929 . S
C325 C317 1.434 1_455 S
C325 N327 1.384 . S
N326 C322 1.427 1_655 S
N326 C323 1.384 . S
N327 C319 1.432 . S
N327 C325 1.384 . S
H328 C334 0.930 . S
H329 C338 0.930 . S
H330 C343 0.929 . S
H331 C341 0.929 . S
H332 C336 0.929 . S
H333 C342 0.929 . S
C334 H328 0.930 . S
C334 C335 1.371 . S
C334 C342 1.378 . S
C335 C334 1.371 . S
C335 C343 1.429 1_545 S
C336 H332 0.929 . S
C336 C338 1.378 . S
C336 C340 1.350 . S
C337 C340 1.463 1_545 S
C337 C342 1.348 . S
C337 N345 1.429 1_545 S
C338 H329 0.930 . S
C338 C336 1.378 . S
C338 C339 1.367 1_554 S
C339 C338 1.367 1_556 S
C339 C341 1.433 1_565 S
C340 C336 1.350 . S
C340 C337 1.463 1_565 S
C340 N344 1.427 1_565 S
C341 H331 0.929 . S
C341 C339 1.433 1_545 S
C341 N344 1.384 1_556 S
C342 H333 0.929 . S
C342 C334 1.378 . S
C342 C337 1.348 . S
C343 H330 0.929 . S
C343 C335 1.429 1_565 S
C343 N345 1.384 . S
N344 C340 1.427 1_545 S
N344 C341 1.384 1_554 S
N345 C337 1.429 1_565 S
N345 C343 1.384 . S
H346 C352 0.930 . S
H347 C356 0.930 . S
H348 C361 0.929 . S
H349 C359 0.929 . S
H350 C354 0.929 . S
H351 C360 0.929 . S
C352 H346 0.930 . S
C352 C353 1.367 . S
C352 C360 1.378 . S
C353 C352 1.367 . S
C353 C361 1.433 . S
C354 H350 0.929 . S
C354 C356 1.378 1_554 S
C354 C358 1.350 . S
C355 C358 1.463 . S
C355 C360 1.350 . S
C355 N363 1.427 . S
C356 H347 0.930 . S
C356 C354 1.378 1_556 S
C356 C357 1.367 . S
C357 C356 1.367 . S
C357 C359 1.433 1_556 S
C358 C354 1.350 . S
C358 C355 1.463 . S
C358 N362 1.427 . S
C359 H349 0.929 . S
C359 C357 1.433 1_554 S
C359 N362 1.384 . S
C360 H351 0.929 . S
C360 C352 1.378 . S
C360 C355 1.350 . S
C361 H348 0.929 . S
C361 C353 1.433 . S
C361 N363 1.384 . S
N362 C358 1.427 . S
N362 C359 1.384 . S
N363 C355 1.427 . S
N363 C361 1.384 . S
H364 C370 0.930 . S
H365 C374 0.930 . S
H366 C379 0.929 . S
H367 C377 0.929 . S
H368 C372 0.929 . S
H369 C378 0.929 . S
C370 H364 0.930 . S
C370 C371 1.367 . S
C370 C378 1.378 . S
C371 C370 1.367 . S
C371 C379 1.433 . S
C372 H368 0.929 . S
C372 C374 1.378 1_554 S
C372 C376 1.350 . S
C373 C376 1.463 . S
C373 C378 1.350 . S
C373 N381 1.427 . S
C374 H365 0.930 . S
C374 C372 1.378 1_556 S
C374 C375 1.367 . S
C375 C374 1.367 . S
C375 C377 1.433 . S
C376 C372 1.350 . S
C376 C373 1.463 . S
C376 N380 1.427 . S
C377 H367 0.929 . S
C377 C375 1.433 . S
C377 N380 1.384 1_556 S
C378 H369 0.929 . S
C378 C370 1.378 . S
C378 C373 1.350 . S
C379 H366 0.929 . S
C379 C371 1.433 . S
C379 N381 1.384 . S
N380 C376 1.427 . S
N380 C377 1.384 1_554 S
N381 C373 1.427 . S
N381 C379 1.384 . S
H382 C388 0.930 . S
H383 C392 0.930 . S
H384 C397 0.929 . S
H385 C395 0.929 . S
H386 C390 0.929 . S
H387 C396 0.929 . S
C388 H382 0.930 . S
C388 C389 1.366 . S
C388 C396 1.378 . S
C389 C388 1.366 . S
C389 C397 1.434 1_455 S
C390 H386 0.929 . S
C390 C392 1.378 . S
C390 C394 1.350 . S
C391 C394 1.463 . S
C391 C396 1.345 1_655 S
C391 N399 1.432 . S
C392 H383 0.930 . S
C392 C390 1.378 . S
C392 C393 1.367 1_554 S
C393 C392 1.367 1_556 S
C393 C395 1.433 1_655 S
C394 C390 1.350 . S
C394 C391 1.463 . S
C394 N398 1.427 1_655 S
C395 H385 0.929 . S
C395 C393 1.433 1_455 S
C395 N398 1.384 1_556 S
C396 H387 0.929 . S
C396 C388 1.378 . S
C396 C391 1.345 1_455 S
C397 H384 0.929 . S
C397 C389 1.434 1_655 S
C397 N399 1.384 . S
N398 C394 1.427 1_455 S
N398 C395 1.384 1_554 S
N399 C391 1.432 . S
N399 C397 1.384 . S
H400 C406 0.930 . S
H401 C410 0.930 . S
H402 C415 0.929 . S
H403 C413 0.929 . S
H404 C408 0.929 . S
H405 C414 0.929 . S
C406 H400 0.930 . S
C406 C407 1.367 . S
C406 C414 1.378 . S
C407 C406 1.367 . S
C407 C415 1.433 1_455 S
C408 H404 0.929 . S
C408 C410 1.378 . S
C408 C412 1.350 . S
C409 C412 1.463 . S
C409 C414 1.350 1_655 S
C409 N417 1.427 . S
C410 H401 0.930 . S
C410 C408 1.378 . S
C410 C411 1.367 . S
C411 C410 1.367 . S
C411 C413 1.433 . S
C412 C408 1.350 . S
C412 C409 1.463 . S
C412 N416 1.427 . S
C413 H403 0.929 . S
C413 C411 1.433 . S
C413 N416 1.384 . S
C414 H405 0.929 . S
C414 C406 1.378 . S
C414 C409 1.350 1_455 S
C415 H402 0.929 . S
C415 C407 1.433 1_655 S
C415 N417 1.384 . S
N416 C412 1.427 . S
N416 C413 1.384 . S
N417 C409 1.427 . S
N417 C415 1.384 . S
H418 C424 0.932 . S
H419 C428 0.930 . S
H420 C433 0.929 1_545 S
H421 C431 0.929 . S
H422 C426 0.929 . S
H423 C432 0.929 . S
C424 H418 0.932 . S
C424 C425 1.367 1_565 S
C424 C432 1.378 . S
C425 C424 1.367 1_545 S
C425 C433 1.433 1_545 S
C426 H422 0.929 . S
C426 C428 1.378 . S
C426 C430 1.350 . S
C427 C430 1.463 . S
C427 C432 1.350 . S
C427 N435 1.427 . S
C428 H419 0.930 . S
C428 C426 1.378 . S
C428 C429 1.367 . S
C429 C428 1.367 . S
C429 C431 1.433 . S
C430 C426 1.350 . S
C430 C427 1.463 . S
C430 N434 1.427 . S
C431 H421 0.929 . S
C431 C429 1.433 . S
C431 N434 1.384 . S
C432 H423 0.929 . S
C432 C424 1.378 . S
C432 C427 1.350 . S
C433 H420 0.929 1_565 S
C433 C425 1.433 1_565 S
C433 N435 1.384 . S
N434 C430 1.427 . S
N434 C431 1.384 . S
N435 C427 1.427 . S
N435 C433 1.384 . S
H436 C442 0.930 . S
H437 C446 0.930 . S
H438 C451 0.929 . S
H439 C449 0.929 . S
H440 C444 0.929 . S
H441 C450 0.929 . S
C442 H436 0.930 . S
C442 C443 1.367 . S
C442 C450 1.378 . S
C443 C442 1.367 . S
C443 C451 1.433 . S
C444 H440 0.929 . S
C444 C446 1.378 . S
C444 C448 1.350 . S
C445 C448 1.463 . S
C445 C450 1.350 . S
C445 N453 1.427 . S
C446 H437 0.930 . S
C446 C444 1.378 . S
C446 C447 1.367 . S
C447 C446 1.367 . S
C447 C449 1.433 . S
C448 C444 1.350 . S
C448 C445 1.463 . S
C448 N452 1.427 . S
C449 H439 0.929 . S
C449 C447 1.433 . S
C449 N452 1.384 . S
C450 H441 0.929 . S
C450 C442 1.378 . S
C450 C445 1.350 . S
C451 H438 0.929 . S
C451 C443 1.433 . S
C451 N453 1.384 . S
N452 C448 1.427 . S
N452 C449 1.384 . S
N453 C445 1.427 . S
N453 C451 1.384 . S
H454 C460 0.930 . S
H455 C464 0.930 . S
H456 C469 0.929 . S
H457 C467 0.929 . S
H458 C462 0.929 . S
H459 C468 0.929 . S
C460 H454 0.930 . S
C460 C461 1.367 . S
C460 C468 1.378 . S
C461 C460 1.367 . S
C461 C469 1.433 . S
C462 H458 0.929 . S
C462 C464 1.378 . S
C462 C466 1.350 . S
C463 C466 1.463 . S
C463 C468 1.350 . S
C463 N471 1.427 . S
C464 H455 0.930 . S
C464 C462 1.378 . S
C464 C465 1.367 . S
C465 C464 1.367 . S
C465 C467 1.433 . S
C466 C462 1.350 . S
C466 C463 1.463 . S
C466 N470 1.427 . S
C467 H457 0.929 . S
C467 C465 1.433 . S
C467 N470 1.384 . S
C468 H459 0.929 . S
C468 C460 1.378 . S
C468 C463 1.350 . S
C469 H456 0.929 . S
C469 C461 1.433 . S
C469 N471 1.384 . S
N470 C466 1.427 . S
N470 C467 1.384 . S
N471 C463 1.427 . S
N471 C469 1.384 . S
H472 C478 0.930 . S
H473 C482 0.930 . S
H474 C487 0.929 . S
H475 C485 0.929 . S
H476 C480 0.929 . S
H477 C486 0.929 . S
C478 H472 0.930 . S
C478 C479 1.367 . S
C478 C486 1.378 1_655 S
C479 C478 1.367 . S
C479 C487 1.433 1_655 S
C480 H476 0.929 . S
C480 C482 1.378 . S
C480 C484 1.350 . S
C481 C484 1.463 . S
C481 C486 1.350 . S
C481 N489 1.427 . S
C482 H473 0.930 . S
C482 C480 1.378 . S
C482 C483 1.367 . S
C483 C482 1.367 . S
C483 C485 1.433 . S
C484 C480 1.350 . S
C484 C481 1.463 . S
C484 N488 1.427 . S
C485 H475 0.929 . S
C485 C483 1.433 . S
C485 N488 1.384 . S
C486 H477 0.929 . S
C486 C478 1.378 1_455 S
C486 C481 1.350 . S
C487 H474 0.929 . S
C487 C479 1.433 1_455 S
C487 N489 1.384 . S
N488 C484 1.427 . S
N488 C485 1.384 . S
N489 C481 1.427 . S
N489 C487 1.384 . S
H490 C496 0.930 . S
H491 C500 0.930 . S
H492 C505 0.929 . S
H493 C503 0.929 . S
H494 C498 0.929 . S
H495 C504 0.929 . S
C496 H490 0.930 . S
C496 C497 1.367 1_545 S
C496 C504 1.378 . S
C497 C496 1.367 1_565 S
C497 C505 1.433 . S
C498 H494 0.929 . S
C498 C500 1.378 . S
C498 C502 1.350 . S
C499 C502 1.463 . S
C499 C504 1.350 . S
C499 N507 1.423 1_545 S
C500 H491 0.930 . S
C500 C498 1.378 . S
C500 C501 1.367 . S
C501 C500 1.367 . S
C501 C503 1.433 . S
C502 C498 1.350 . S
C502 C499 1.463 . S
C502 N506 1.427 . S
C503 H493 0.929 . S
C503 C501 1.433 . S
C503 N506 1.384 . S
C504 H495 0.929 . S
C504 C496 1.378 . S
C504 C499 1.350 . S
C505 H492 0.929 . S
C505 C497 1.433 . S
C505 N507 1.386 . S
N506 C502 1.427 . S
N506 C503 1.384 . S
N507 C499 1.423 1_565 S
N507 C505 1.386 . S
H508 C514 0.930 . S
H509 C518 0.930 . S
H510 C523 0.929 . S
H511 C521 0.929 . S
H512 C516 0.929 . S
H513 C522 0.929 . S
C514 H508 0.930 . S
C514 C515 1.367 . S
C514 C522 1.378 . S
C515 C514 1.367 . S
C515 C523 1.433 . S
C516 H512 0.929 . S
C516 C518 1.378 . S
C516 C520 1.350 . S
C517 C520 1.463 . S
C517 C522 1.350 . S
C517 N525 1.427 . S
C518 H509 0.930 . S
C518 C516 1.378 . S
C518 C519 1.367 . S
C519 C518 1.367 . S
C519 C521 1.433 . S
C520 C516 1.350 . S
C520 C517 1.463 . S
C520 N524 1.427 . S
C521 H511 0.929 . S
C521 C519 1.433 . S
C521 N524 1.384 . S
C522 H513 0.929 . S
C522 C514 1.378 . S
C522 C517 1.350 . S
C523 H510 0.929 . S
C523 C515 1.433 . S
C523 N525 1.384 . S
N524 C520 1.427 . S
N524 C521 1.384 . S
N525 C517 1.427 . S
N525 C523 1.384 . S
H526 C532 0.930 . S
H527 C536 0.930 . S
H528 C541 0.929 . S
H529 C539 0.929 . S
H530 C534 0.929 . S
H531 C540 0.929 . S
C532 H526 0.930 . S
C532 C533 1.367 . S
C532 C540 1.378 . S
C533 C532 1.367 . S
C533 C541 1.433 . S
C534 H530 0.929 . S
C534 C536 1.378 . S
C534 C538 1.350 . S
C535 C538 1.463 . S
C535 C540 1.350 . S
C535 N543 1.427 . S
C536 H527 0.930 . S
C536 C534 1.378 . S
C536 C537 1.367 . S
C537 C536 1.367 . S
C537 C539 1.433 . S
C538 C534 1.350 . S
C538 C535 1.463 . S
C538 N542 1.427 . S
C539 H529 0.929 . S
C539 C537 1.433 . S
C539 N542 1.384 . S
C540 H531 0.929 . S
C540 C532 1.378 . S
C540 C535 1.350 . S
C541 H528 0.929 . S
C541 C533 1.433 . S
C541 N543 1.384 . S
N542 C538 1.427 . S
N542 C539 1.384 . S
N543 C535 1.427 . S
N543 C541 1.384 . S
H544 C550 0.930 . S
H545 C554 0.930 . S
H546 C559 0.929 . S
H547 C557 0.929 . S
H548 C552 0.929 . S
H549 C558 0.929 . S
C550 H544 0.930 . S
C550 C551 1.367 1_655 S
C550 C558 1.378 . S
C551 C550 1.367 1_455 S
C551 C559 1.433 . S
C552 H548 0.929 . S
C552 C554 1.378 . S
C552 C556 1.350 . S
C553 C556 1.463 . S
C553 C558 1.350 1_455 S
C553 N561 1.427 . S
C554 H545 0.930 . S
C554 C552 1.378 . S
C554 C555 1.367 . S
C555 C554 1.367 . S
C555 C557 1.433 1_455 S
C556 C552 1.350 . S
C556 C553 1.463 . S
C556 N560 1.427 1_455 S
C557 H547 0.929 . S
C557 C555 1.433 1_655 S
C557 N560 1.384 . S
C558 H549 0.929 . S
C558 C550 1.378 . S
C558 C553 1.350 1_655 S
C559 H546 0.929 . S
C559 C551 1.433 . S
C559 N561 1.384 . S
N560 C556 1.427 1_655 S
N560 C557 1.384 . S
N561 C553 1.427 . S
N561 C559 1.384 . S
H562 C568 0.930 . S
H563 C572 0.930 . S
H564 C577 0.929 . S
H565 C575 0.929 . S
H566 C570 0.929 . S
H567 C576 0.929 . S
C568 H562 0.930 . S
C568 C569 1.367 1_565 S
C568 C576 1.378 . S
C569 C568 1.367 1_545 S
C569 C577 1.433 . S
C570 H566 0.929 . S
C570 C572 1.378 . S
C570 C574 1.350 . S
C571 C574 1.463 . S
C571 C576 1.350 1_545 S
C571 N579 1.427 . S
C572 H563 0.930 . S
C572 C570 1.378 . S
C572 C573 1.367 . S
C573 C572 1.367 . S
C573 C575 1.433 1_545 S
C574 C570 1.350 . S
C574 C571 1.463 . S
C574 N578 1.427 1_545 S
C575 H565 0.929 . S
C575 C573 1.433 1_565 S
C575 N578 1.384 . S
C576 H567 0.929 . S
C576 C568 1.378 . S
C576 C571 1.350 1_565 S
C577 H564 0.929 . S
C577 C569 1.433 . S
C577 N579 1.384 . S
N578 C574 1.427 1_565 S
N578 C575 1.384 . S
N579 C571 1.427 . S
N579 C577 1.384 . S
H580 C586 0.930 . S
H581 C590 0.930 . S
H582 C595 0.929 1_554 S
H583 C593 0.929 . S
H584 C588 0.929 . S
H585 C594 0.929 . S
C586 H580 0.930 . S
C586 C587 1.367 . S
C586 C594 1.378 . S
C587 C586 1.367 . S
C587 C595 1.433 . S
C588 H584 0.929 . S
C588 C590 1.378 . S
C588 C592 1.350 . S
C589 C592 1.463 . S
C589 C594 1.350 . S
C589 N597 1.427 . S
C590 H581 0.930 . S
C590 C588 1.378 . S
C590 C591 1.367 . S
C591 C590 1.367 . S
C591 C593 1.433 . S
C592 C588 1.350 . S
C592 C589 1.463 . S
C592 N596 1.427 . S
C593 H583 0.929 . S
C593 C591 1.433 . S
C593 N596 1.384 . S
C594 H585 0.929 . S
C594 C586 1.378 . S
C594 C589 1.350 . S
C595 H582 0.929 1_556 S
C595 C587 1.433 . S
C595 N597 1.384 . S
N596 C592 1.427 . S
N596 C593 1.384 . S
N597 C589 1.427 . S
N597 C595 1.384 . S
H598 C604 0.930 1_554 S
H599 C608 0.930 . S
H600 C613 0.929 . S
H601 C611 0.929 . S
H602 C606 0.929 . S
H603 C612 0.929 . S
C604 H598 0.930 1_556 S
C604 C605 1.367 . S
C604 C612 1.378 . S
C605 C604 1.367 . S
C605 C613 1.433 . S
C606 H602 0.929 . S
C606 C608 1.378 . S
C606 C610 1.350 . S
C607 C610 1.463 . S
C607 C612 1.350 . S
C607 N615 1.427 . S
C608 H599 0.930 . S
C608 C606 1.378 . S
C608 C609 1.367 . S
C609 C608 1.367 . S
C609 C611 1.433 . S
C610 C606 1.350 . S
C610 C607 1.463 . S
C610 N614 1.427 . S
C611 H601 0.929 . S
C611 C609 1.433 . S
C611 N614 1.384 . S
C612 H603 0.929 . S
C612 C604 1.378 . S
C612 C607 1.350 . S
C613 H600 0.929 . S
C613 C605 1.433 . S
C613 N615 1.384 . S
N614 C610 1.427 . S
N614 C611 1.384 . S
N615 C607 1.427 . S
N615 C613 1.384 . S
H616 C622 0.930 . S
H617 C626 0.930 . S
H618 C631 0.929 . S
H619 C629 0.929 . S
H620 C624 0.929 . S
H621 C630 0.927 1_455 S
C622 H616 0.930 . S
C622 C623 1.367 1_455 S
C622 C630 1.377 1_455 S
C623 C622 1.367 1_655 S
C623 C631 1.433 . S
C624 H620 0.929 . S
C624 C626 1.378 . S
C624 C628 1.350 . S
C625 C628 1.463 . S
C625 C630 1.352 . S
C625 N633 1.427 . S
C626 H617 0.930 . S
C626 C624 1.378 . S
C626 C627 1.367 . S
C627 C626 1.367 . S
C627 C629 1.433 . S
C628 C624 1.350 . S
C628 C625 1.463 . S
C628 N632 1.427 . S
C629 H619 0.929 . S
C629 C627 1.433 . S
C629 N632 1.384 . S
C630 H621 0.927 1_655 S
C630 C622 1.377 1_655 S
C630 C625 1.352 . S
C631 H618 0.929 . S
C631 C623 1.433 . S
C631 N633 1.384 . S
N632 C628 1.427 . S
N632 C629 1.384 . S
N633 C625 1.427 . S
N633 C631 1.384 . S
H634 C640 0.930 . S
H635 C644 0.930 1_545 S
H636 C649 0.929 . S
H637 C647 0.929 . S
H638 C642 0.918 1_545 S
H639 C648 0.929 . S
C640 H634 0.930 . S
C640 C641 1.367 . S
C640 C648 1.378 . S
C641 C640 1.367 . S
C641 C649 1.433 1_565 S
C642 H638 0.918 1_565 S
C642 C644 1.381 . S
C642 C646 1.359 . S
C643 C646 1.463 . S
C643 C648 1.350 . S
C643 N651 1.427 1_565 S
C644 H635 0.930 1_565 S
C644 C642 1.381 . S
C644 C645 1.367 . S
C645 C644 1.367 . S
C645 C647 1.433 . S
C646 C642 1.359 . S
C646 C643 1.463 . S
C646 N650 1.427 . S
C647 H637 0.929 . S
C647 C645 1.433 . S
C647 N650 1.384 . S
C648 H639 0.929 . S
C648 C640 1.378 . S
C648 C643 1.350 . S
C649 H636 0.929 . S
C649 C641 1.433 1_545 S
C649 N651 1.384 . S
N650 C646 1.427 . S
N650 C647 1.384 . S
N651 C643 1.427 1_545 S
N651 C649 1.384 . S
H652 C658 0.930 . S
H653 C662 0.930 . S
H654 C667 0.929 . S
H655 C665 0.929 . S
H656 C660 0.929 . S
H657 C666 0.929 . S
C658 H652 0.930 . S
C658 C659 1.367 . S
C658 C666 1.378 . S
C659 C658 1.367 . S
C659 C667 1.433 . S
C660 H656 0.929 . S
C660 C662 1.378 . S
C660 C664 1.350 . S
C661 C664 1.463 . S
C661 C666 1.350 . S
C661 N669 1.427 . S
C662 H653 0.930 . S
C662 C660 1.378 . S
C662 C663 1.367 . S
C663 C662 1.367 . S
C663 C665 1.433 . S
C664 C660 1.350 . S
C664 C661 1.463 . S
C664 N668 1.427 . S
C665 H655 0.929 . S
C665 C663 1.433 . S
C665 N668 1.384 . S
C666 H657 0.929 . S
C666 C658 1.378 . S
C666 C661 1.350 . S
C667 H654 0.929 . S
C667 C659 1.433 . S
C667 N669 1.384 . S
N668 C664 1.427 . S
N668 C665 1.384 . S
N669 C661 1.427 . S
N669 C667 1.384 . S
H670 C676 0.930 . S
H671 C680 0.930 . S
H672 C685 0.929 . S
H673 C683 0.929 . S
H674 C678 0.929 . S
H675 C684 0.929 . S
C676 H670 0.930 . S
C676 C677 1.367 . S
C676 C684 1.378 . S
C677 C676 1.367 . S
C677 C685 1.433 . S
C678 H674 0.929 . S
C678 C680 1.378 . S
C678 C682 1.350 . S
C679 C682 1.463 . S
C679 C684 1.350 . S
C679 N687 1.427 . S
C680 H671 0.930 . S
C680 C678 1.378 . S
C680 C681 1.367 . S
C681 C680 1.367 . S
C681 C683 1.433 . S
C682 C678 1.350 . S
C682 C679 1.463 . S
C682 N686 1.427 . S
C683 H673 0.929 . S
C683 C681 1.433 . S
C683 N686 1.384 . S
C684 H675 0.929 . S
C684 C676 1.378 . S
C684 C679 1.350 . S
C685 H672 0.929 . S
C685 C677 1.433 . S
C685 N687 1.384 . S
N686 C682 1.427 . S
N686 C683 1.384 . S
N687 C679 1.427 . S
N687 C685 1.384 . S
C263 C76 1.815 . S
C267 C105 1.976 1_545 S
C285 C145 1.984 . S
C281 C88 1.824 . S
C303 C185 1.988 . S
C299 C52 1.837 . S
C321 C225 1.980 1_455 S
C317 C64 1.831 . S
C339 C114 1.980 1_565 S
C335 C28 1.819 1_545 S
C353 C40 1.835 . S
C357 C154 1.986 . S
C371 C4 1.830 . S
C375 C194 1.988 . S
C389 C16 1.823 1_455 S
C393 C234 1.984 1_655 S
C411 C111 0.516 . S
C407 C69 0.507 . S
C429 C151 0.502 . S
C425 C81 0.496 . S
C447 C191 0.519 . S
C443 C93 0.531 . S
C461 C57 0.488 . S
C465 C231 0.480 . S
C479 C21 0.498 1_655 S
C483 C102 0.503 . S
C501 C142 0.498 . S
C497 C33 0.524 1_565 S
C519 C182 0.505 . S
C515 C45 0.505 . S
C533 C9 0.495 . S
C537 C222 0.497 . S
C551 C66 2.062 . S
C555 C115 2.296 . S
C569 C78 2.052 . S
C573 C155 2.281 . S
C591 C195 2.267 . S
C587 C90 2.047 . S
C609 C235 2.289 . S
C605 C54 2.044 . S
C623 C18 2.084 1_655 S
C627 C106 2.307 . S
C645 C146 2.276 . S
C641 C30 2.062 1_565 S
C663 C186 2.263 . S
C659 C42 2.043 . S
C677 C6 2.059 . S
C681 C226 2.297 . S
