# Generated by pormake.
# Topology apo, (3,6)-cn, num edge types: 1
# Building blocks:
#     Node 0, Type 0, BuildingBlock: CUQRIR_clean_linker_1, # of connection points: 3
#     Node 1, Type 0, BuildingBlock: CUQRIR_clean_linker_1, # of connection points: 3
#     Node 2, Type 0, BuildingBlock: CUQRIR_clean_linker_1, # of connection points: 3
#     Node 3, Type 0, BuildingBlock: CUQRIR_clean_linker_1, # of connection points: 3
#     Node 4, Type 0, BuildingBlock: CUQRIR_clean_linker_1, # of connection points: 3
#     Node 5, Type 0, BuildingBlock: CUQRIR_clean_linker_1, # of connection points: 3
#     Node 6, Type 0, BuildingBlock: CUQRIR_clean_linker_1, # of connection points: 3
#     Node 7, Type 0, BuildingBlock: CUQRIR_clean_linker_1, # of connection points: 3
#     Node 8, Type 1, BuildingBlock: MIDCAF_clean_sbu_0, # of connection points: 6
#     Node 9, Type 1, BuildingBlock: MIDCAF_clean_sbu_0, # of connection points: 6
#     Node 10, Type 1, BuildingBlock: MIDCAF_clean_sbu_0, # of connection points: 6
#     Node 11, Type 1, BuildingBlock: MIDCAF_clean_sbu_0, # of connection points: 6
#     Edge 12, Type (0, 1), BuildingBlock: MIFKUJ_clean_linker_0, # of connection points: 2
#     Edge 13, Type (0, 1), BuildingBlock: MIFKUJ_clean_linker_0, # of connection points: 2
#     Edge 14, Type (0, 1), BuildingBlock: MIFKUJ_clean_linker_0, # of connection points: 2
#     Edge 15, Type (0, 1), BuildingBlock: MIFKUJ_clean_linker_0, # of connection points: 2
#     Edge 16, Type (0, 1), BuildingBlock: MIFKUJ_clean_linker_0, # of connection points: 2
#     Edge 17, Type (0, 1), BuildingBlock: MIFKUJ_clean_linker_0, # of connection points: 2
#     Edge 18, Type (0, 1), BuildingBlock: MIFKUJ_clean_linker_0, # of connection points: 2
#     Edge 19, Type (0, 1), BuildingBlock: MIFKUJ_clean_linker_0, # of connection points: 2
#     Edge 20, Type (0, 1), BuildingBlock: MIFKUJ_clean_linker_0, # of connection points: 2
#     Edge 21, Type (0, 1), BuildingBlock: MIFKUJ_clean_linker_0, # of connection points: 2
#     Edge 22, Type (0, 1), BuildingBlock: MIFKUJ_clean_linker_0, # of connection points: 2
#     Edge 23, Type (0, 1), BuildingBlock: MIFKUJ_clean_linker_0, # of connection points: 2
#     Edge 24, Type (0, 1), BuildingBlock: MIFKUJ_clean_linker_0, # of connection points: 2
#     Edge 25, Type (0, 1), BuildingBlock: MIFKUJ_clean_linker_0, # of connection points: 2
#     Edge 26, Type (0, 1), BuildingBlock: MIFKUJ_clean_linker_0, # of connection points: 2
#     Edge 27, Type (0, 1), BuildingBlock: MIFKUJ_clean_linker_0, # of connection points: 2
#     Edge 28, Type (0, 1), BuildingBlock: MIFKUJ_clean_linker_0, # of connection points: 2
#     Edge 29, Type (0, 1), BuildingBlock: MIFKUJ_clean_linker_0, # of connection points: 2
#     Edge 30, Type (0, 1), BuildingBlock: MIFKUJ_clean_linker_0, # of connection points: 2
#     Edge 31, Type (0, 1), BuildingBlock: MIFKUJ_clean_linker_0, # of connection points: 2
#     Edge 32, Type (0, 1), BuildingBlock: MIFKUJ_clean_linker_0, # of connection points: 2
#     Edge 33, Type (0, 1), BuildingBlock: MIFKUJ_clean_linker_0, # of connection points: 2
#     Edge 34, Type (0, 1), BuildingBlock: MIFKUJ_clean_linker_0, # of connection points: 2
#     Edge 35, Type (0, 1), BuildingBlock: MIFKUJ_clean_linker_0, # of connection points: 2
# Relax obj value: 0.009
# Max RMSD: 0.064
# Mean RMSD: 0.062
data_MOF--net-apo--node1-MIDCAF_clean_sbu_0--node2-CUQRIR_clean_linker_1--edge1-MIFKUJ_clean_linker_0
_symmetry_space_group_name_H-M    P1
_symmetry_Int_Tables_number       1
_symmetry_cell_setting            triclinic
loop_
_symmetry_equiv_pos_as_xyz
'x, y, z'
_cell_length_a     45.124448
_cell_length_b     51.470215
_cell_length_c     42.573548
_cell_angle_alpha  90.010852
_cell_angle_beta   89.953201
_cell_angle_gamma 90.233481
loop_
_atom_site_label
_atom_site_type_symbol
_atom_site_fract_x
_atom_site_fract_y
_atom_site_fract_z
_atom_type_partial_charge
C0 C 0.29983 0.29894 0.40355 0.0
N1 N 0.32029 0.31763 0.41012 0.0
N2 N 0.29188 0.29993 0.3729 0.0
C3 C 0.28765 0.27954 0.42672 0.0
C4 C 0.30833 0.3195 0.3609 0.0
N5 N 0.32576 0.33004 0.3833 0.0
C6 C 0.30663 0.32896 0.32753 0.0
H7 H 0.28159 0.26107 0.41499 0.0
H8 H 0.26724 0.28753 0.43752 0.0
H9 H 0.30399 0.27538 0.4455 0.0
H10 H 0.29209 0.34628 0.32671 0.0
H11 H 0.29736 0.31383 0.31175 0.0
H12 H 0.32886 0.33485 0.3189 0.0
C13 C 0.20616 0.19273 0.90015 0.0
N14 N 0.18488 0.17463 0.90567 0.0
N15 N 0.21555 0.19149 0.86993 0.0
C16 C 0.21943 0.21016 0.92486 0.0
C17 C 0.19927 0.17191 0.85736 0.0
N18 N 0.18086 0.16143 0.87917 0.0
C19 C 0.19946 0.16458 0.82313 0.0
H20 H 0.20643 0.22839 0.92604 0.0
H21 H 0.24274 0.21517 0.9191 0.0
H22 H 0.21867 0.20077 0.94831 0.0
H23 H 0.21534 0.14846 0.81948 0.0
H24 H 0.20639 0.18125 0.8083 0.0
H25 H 0.1772 0.15789 0.81551 0.0
C26 C 0.79805 0.19517 0.60107 0.0
N27 N 0.8192 0.17677 0.59653 0.0
N28 N 0.78567 0.19269 0.62985 0.0
C29 C 0.78745 0.2141 0.57664 0.0
C30 C 0.79967 0.17215 0.64271 0.0
N31 N 0.81986 0.16224 0.62243 0.0
C32 C 0.79486 0.16298 0.6759 0.0
H33 H 0.80101 0.23209 0.57806 0.0
H34 H 0.76397 0.21945 0.58083 0.0
H35 H 0.78957 0.20583 0.55269 0.0
H36 H 0.77786 0.14735 0.6759 0.0
H37 H 0.78677 0.17903 0.69102 0.0
H38 H 0.81564 0.15514 0.686 0.0
C39 C 0.71557 0.31512 0.10725 0.0
N40 N 0.69207 0.33076 0.10243 0.0
N41 N 0.72238 0.31407 0.13823 0.0
C42 C 0.73206 0.3013 0.08152 0.0
C43 C 0.70189 0.32957 0.15203 0.0
N44 N 0.68331 0.33958 0.1302 0.0
C45 C 0.70065 0.33525 0.18674 0.0
H46 H 0.72082 0.28253 0.07656 0.0
H47 H 0.75531 0.29743 0.0885 0.0
H48 H 0.7319 0.31295 0.05959 0.0
H49 H 0.71724 0.35052 0.19232 0.0
H50 H 0.70618 0.3176 0.20046 0.0
H51 H 0.67879 0.34243 0.19448 0.0
C52 C 0.69977 0.70126 0.60478 0.0
N53 N 0.68209 0.6807 0.59804 0.0
N54 N 0.7151 0.69722 0.6318 0.0
C55 C 0.69992 0.72606 0.58605 0.0
C56 C 0.7059 0.67325 0.64112 0.0
N57 N 0.68582 0.66336 0.62074 0.0
C58 C 0.71741 0.65875 0.66929 0.0
H59 H 0.71728 0.72497 0.56764 0.0
H60 H 0.70445 0.74307 0.60134 0.0
H61 H 0.67827 0.7288 0.57415 0.0
H62 H 0.70368 0.66367 0.69006 0.0
H63 H 0.74083 0.66397 0.67415 0.0
H64 H 0.71608 0.63746 0.66575 0.0
C65 C 0.80233 0.79935 0.11017 0.0
N66 N 0.82242 0.81841 0.1044 0.0
N67 N 0.79153 0.80131 0.13986 0.0
C68 C 0.79581 0.77721 0.08806 0.0
C69 C 0.80605 0.82217 0.15192 0.0
N70 N 0.82497 0.8323 0.13056 0.0
C71 C 0.80021 0.83409 0.18359 0.0
H72 H 0.77661 0.78235 0.07307 0.0
H73 H 0.7903 0.75924 0.10125 0.0
H74 H 0.81507 0.77335 0.07254 0.0
H75 H 0.81526 0.8252 0.20112 0.0
H76 H 0.77694 0.83073 0.19104 0.0
H77 H 0.80464 0.85531 0.18318 0.0
C78 C 0.19775 0.80293 0.4009 0.0
N79 N 0.17975 0.82333 0.40639 0.0
N80 N 0.20726 0.80303 0.3707 0.0
C81 C 0.20553 0.78271 0.42504 0.0
C82 C 0.19421 0.82436 0.35807 0.0
N83 N 0.1776 0.83688 0.37995 0.0
C84 C 0.19685 0.83195 0.32394 0.0
H85 H 0.22411 0.79006 0.43965 0.0
H86 H 0.21225 0.76423 0.41374 0.0
H87 H 0.18648 0.77892 0.4409 0.0
H88 H 0.18342 0.81831 0.30964 0.0
H89 H 0.22026 0.83046 0.31616 0.0
H90 H 0.18864 0.85162 0.31869 0.0
C91 C 0.28669 0.69115 0.90319 0.0
N92 N 0.30789 0.67301 0.90859 0.0
N93 N 0.27846 0.69091 0.87271 0.0
C94 C 0.27258 0.70811 0.92775 0.0
C95 C 0.29498 0.67201 0.85963 0.0
N96 N 0.31271 0.66086 0.88142 0.0
C97 C 0.2942 0.66498 0.82533 0.0
H98 H 0.27292 0.69859 0.95112 0.0
H99 H 0.24934 0.71265 0.92137 0.0
H100 H 0.28498 0.72673 0.92918 0.0
H101 H 0.28793 0.68198 0.81079 0.0
H102 H 0.27729 0.64957 0.82166 0.0
H103 H 0.31601 0.65758 0.81739 0.0
Zn104 Zn 0.02383 0.11025 0.3056 0.0
Zn105 Zn 0.98177 0.11814 0.19493 0.0
Zn106 Zn 0.00126 0.11244 0.24962 0.0
C107 C 0.03558 0.13926 0.18908 0.0
C108 C 0.97967 0.06495 0.2066 0.0
O109 O 0.96951 0.13091 0.28345 0.0
O110 O 0.99344 0.12971 0.32881 0.0
C111 C 0.06464 0.13727 0.27019 0.0
O112 O 0.03497 0.13214 0.21818 0.0
O113 O 0.01327 0.13573 0.17186 0.0
O114 O 0.97405 0.08154 0.18568 0.0
O115 O 0.99171 0.0722 0.23265 0.0
O116 O 0.06203 0.12769 0.2973 0.0
O117 O 0.04412 0.13383 0.24951 0.0
O118 O 0.00864 0.07065 0.26085 0.0
O119 O 0.02424 0.07222 0.31014 0.0
C120 C 0.01757 0.0592 0.28607 0.0
O121 O 0.95826 0.13401 0.2531 0.0
O122 O 0.94611 0.13787 0.20307 0.0
C123 C 0.97089 0.13593 0.31313 0.0
C124 C 0.94029 0.14188 0.23158 0.0
Zn125 Zn 0.53261 0.38821 0.71239 0.0
Zn126 Zn 0.4768 0.38965 0.80213 0.0
Zn127 Zn 0.5044 0.38957 0.75684 0.0
C128 C 0.46988 0.43839 0.78121 0.0
C129 C 0.4481 0.35374 0.76987 0.0
O130 O 0.54422 0.36402 0.76526 0.0
O131 O 0.55257 0.35442 0.7156 0.0
C132 C 0.54251 0.43691 0.73326 0.0
O133 O 0.49406 0.43118 0.76767 0.0
O134 O 0.45407 0.42173 0.79506 0.0
O135 O 0.45412 0.35716 0.79847 0.0
O136 O 0.46252 0.36661 0.74873 0.0
O137 O 0.55717 0.41944 0.71958 0.0
O138 O 0.51772 0.43078 0.7465 0.0
O139 O 0.4749 0.37329 0.71948 0.0
O140 O 0.50079 0.39076 0.68118 0.0
C141 C 0.47752 0.37935 0.69021 0.0
O142 O 0.53317 0.3724 0.79374 0.0
O143 O 0.50957 0.39139 0.83264 0.0
C144 C 0.55758 0.35027 0.74424 0.0
C145 C 0.53198 0.37931 0.82281 0.0
Zn146 Zn 0.03809 0.89232 0.80019 0.0
Zn147 Zn 0.96841 0.89133 0.68255 0.0
Zn148 Zn 0.00139 0.88787 0.75507 0.0
C149 C 0.97445 0.93985 0.71608 0.0
C150 C 0.94658 0.86186 0.74389 0.0
O151 O 0.04188 0.86497 0.74387 0.0
O152 O 0.06957 0.8688 0.78646 0.0
C153 C 0.02849 0.94216 0.77977 0.0
O154 O 0.98647 0.92726 0.73911 0.0
O155 O 0.96699 0.92898 0.69057 0.0
O156 O 0.95522 0.87347 0.71981 0.0
O157 O 0.96236 0.86455 0.76848 0.0
O158 O 0.04598 0.92974 0.79721 0.0
O159 O 0.0089 0.93002 0.76336 0.0
O160 O 0.97819 0.86992 0.79586 0.0
O161 O 0.01056 0.87963 0.833 0.0
C162 C 0.98588 0.87003 0.82503 0.0
O163 O 0.02627 0.86913 0.71551 0.0
O164 O 0.00551 0.8755 0.66815 0.0
C165 C 0.06541 0.85931 0.75954 0.0
C166 C 0.02602 0.86649 0.68524 0.0
Zn167 Zn 0.51991 0.60958 0.19811 0.0
Zn168 Zn 0.47987 0.60877 0.30177 0.0
Zn169 Zn 0.49817 0.60989 0.2528 0.0
C170 C 0.53576 0.61784 0.31445 0.0
C171 C 0.46442 0.56235 0.28312 0.0
O172 O 0.4643 0.62831 0.22168 0.0
O173 O 0.48664 0.62517 0.17555 0.0
C174 C 0.55989 0.6377 0.23356 0.0
O175 O 0.53193 0.62654 0.28631 0.0
O176 O 0.51617 0.60339 0.32639 0.0
O177 O 0.45197 0.57957 0.29941 0.0
O178 O 0.48679 0.56874 0.26582 0.0
O179 O 0.55585 0.63026 0.20566 0.0
O180 O 0.54092 0.63186 0.25512 0.0
O181 O 0.50558 0.56845 0.23956 0.0
O182 O 0.52499 0.57203 0.19201 0.0
C183 C 0.51673 0.55801 0.21468 0.0
O184 O 0.45692 0.63413 0.25337 0.0
O185 O 0.46175 0.64325 0.30344 0.0
C186 C 0.46431 0.6314 0.1916 0.0
C187 C 0.44898 0.64745 0.27762 0.0
H188 H 0.11934 0.84346 0.39292 0.0
H189 H 0.08909 0.88118 0.38019 0.0
H190 H 0.16597 0.91881 0.3397 0.0
H191 H 0.19683 0.88318 0.35814 0.0
H192 H 0.13637 0.95381 0.3549 0.0
H193 H 0.10521 0.87767 0.29771 0.0
H194 H 0.08686 0.83274 0.29149 0.0
H195 H 0.00717 0.85233 0.34119 0.0
H196 H 0.02521 0.89729 0.34804 0.0
H197 H 0.05855 0.03446 0.25089 0.0
H198 H 0.08267 0.99339 0.26481 0.0
H199 H 0.01864 0.98142 0.3387 0.0
H200 H 0.99485 0.02267 0.32512 0.0
H201 H 0.03955 0.93388 0.30508 0.0
H202 H 0.07618 0.01308 0.3574 0.0
H203 H 0.09677 0.05752 0.35504 0.0
H204 H 0.17096 0.02984 0.30161 0.0
H205 H 0.15052 0.98531 0.30318 0.0
C206 C 0.12987 0.86026 0.38246 0.0
C207 C 0.16028 0.86013 0.37561 0.0
C208 C 0.1124 0.8816 0.37425 0.0
C209 C 0.12459 0.90245 0.35703 0.0
C210 C 0.15549 0.90299 0.35232 0.0
C211 C 0.17319 0.88243 0.36244 0.0
C212 C 0.10542 0.92317 0.34303 0.0
C213 C 0.11551 0.94909 0.34362 0.0
C214 C 0.0778 0.91763 0.32827 0.0
C215 C 0.06668 0.89076 0.32362 0.0
C216 C 0.08381 0.87236 0.30737 0.0
C217 C 0.07347 0.84689 0.30376 0.0
C218 C 0.0459 0.83967 0.31601 0.0
C219 C 0.02854 0.85793 0.33177 0.0
C220 C 0.03879 0.88341 0.3355 0.0
C221 C 0.04888 0.02242 0.26912 0.0
C222 C 0.02469 0.03141 0.28673 0.0
C223 C 0.06276 0.99912 0.27721 0.0
C224 C 0.0526 0.98459 0.30301 0.0
C225 C 0.02676 0.99235 0.3187 0.0
C226 C 0.01311 0.0158 0.31086 0.0
C227 C 0.07113 0.96372 0.31655 0.0
C228 C 0.06071 0.93808 0.31611 0.0
C229 C 0.09902 0.96926 0.33015 0.0
C230 C 0.1117 0.99591 0.3302 0.0
C231 C 0.0968 0.0165 0.34502 0.0
C232 C 0.10844 0.0417 0.34382 0.0
C233 C 0.13513 0.04651 0.32813 0.0
C234 C 0.15028 0.0261 0.31372 0.0
C235 C 0.13869 0.00088 0.31478 0.0
H236 H 0.14408 0.06604 0.32719 0.0
H237 H 0.03796 0.81993 0.31322 0.0
H238 H 0.29639 0.61455 0.85872 0.0
H239 H 0.32875 0.57924 0.84215 0.0
H240 H 0.40477 0.62195 0.87617 0.0
H241 H 0.37201 0.65818 0.89123 0.0
H242 H 0.41591 0.60157 0.81939 0.0
H243 H 0.37624 0.56774 0.91574 0.0
H244 H 0.33627 0.55696 0.95312 0.0
H245 H 0.29704 0.50542 0.88543 0.0
H246 H 0.3365 0.5162 0.84746 0.0
H247 H 0.50176 0.48155 0.7989 0.0
H248 H 0.48019 0.52298 0.81665 0.0
H249 H 0.39385 0.49681 0.78633 0.0
H250 H 0.41514 0.45575 0.76917 0.0
H251 H 0.3939 0.51 0.84733 0.0
H252 H 0.43152 0.54381 0.75052 0.0
H253 H 0.46958 0.55507 0.71133 0.0
H254 H 0.50985 0.6081 0.77648 0.0
H255 H 0.47331 0.59584 0.81691 0.0
C256 C 0.32001 0.61626 0.86276 0.0
C257 C 0.33183 0.63895 0.87606 0.0
C258 C 0.3385 0.59604 0.85353 0.0
C259 C 0.36925 0.5977 0.85825 0.0
C260 C 0.38112 0.62019 0.87234 0.0
C261 C 0.36249 0.6407 0.88122 0.0
C262 C 0.38866 0.57613 0.84745 0.0
C263 C 0.4116 0.58156 0.82602 0.0
C264 C 0.38259 0.54997 0.85554 0.0
C265 C 0.35932 0.54286 0.87872 0.0
C266 C 0.35906 0.55416 0.9088 0.0
C267 C 0.33647 0.54806 0.93009 0.0
C268 C 0.31413 0.53053 0.92165 0.0
C269 C 0.31438 0.51898 0.89195 0.0
C270 C 0.33688 0.52505 0.87056 0.0
C271 C 0.47843 0.48519 0.79499 0.0
C272 C 0.46005 0.46561 0.78264 0.0
C273 C 0.46607 0.50871 0.80536 0.0
C274 C 0.4353 0.51281 0.80325 0.0
C275 C 0.41754 0.49398 0.78857 0.0
C276 C 0.42976 0.47063 0.77848 0.0
C277 C 0.42071 0.53533 0.81865 0.0
C278 C 0.39867 0.53003 0.84108 0.0
C279 C 0.42754 0.56149 0.81123 0.0
C280 C 0.44997 0.56844 0.78707 0.0
C281 C 0.44893 0.55737 0.75685 0.0
C282 C 0.47032 0.56388 0.7344 0.0
C283 C 0.49243 0.58199 0.74157 0.0
C284 C 0.49313 0.59366 0.77118 0.0
C285 C 0.47217 0.58682 0.79394 0.0
H286 H 0.50885 0.58715 0.72408 0.0
H287 H 0.29663 0.52587 0.93815 0.0
H288 H 0.6991 0.6126 0.61445 0.0
H289 H 0.67012 0.57597 0.63541 0.0
H290 H 0.60081 0.62897 0.66285 0.0
H291 H 0.63066 0.66548 0.64316 0.0
H292 H 0.61338 0.59816 0.70973 0.0
H293 H 0.59444 0.58436 0.59935 0.0
H294 H 0.60877 0.57805 0.54396 0.0
H295 H 0.65699 0.50933 0.56892 0.0
H296 H 0.64337 0.51546 0.62452 0.0
H297 H 0.51158 0.48333 0.73291 0.0
H298 H 0.53186 0.52612 0.71749 0.0
H299 H 0.6194 0.49314 0.71243 0.0
H300 H 0.59977 0.45115 0.72845 0.0
H301 H 0.59201 0.51578 0.65375 0.0
H302 H 0.61488 0.529 0.76191 0.0
H303 H 0.60673 0.53526 0.8185 0.0
H304 H 0.55819 0.60507 0.79996 0.0
H305 H 0.56454 0.59846 0.74293 0.0
C306 C 0.67735 0.61612 0.62429 0.0
C307 C 0.66671 0.64156 0.62692 0.0
C308 C 0.66078 0.5953 0.63626 0.0
C309 C 0.63304 0.59962 0.6505 0.0
C310 C 0.62205 0.62508 0.65199 0.0
C311 C 0.63883 0.64585 0.64043 0.0
C312 C 0.61634 0.57792 0.66555 0.0
C313 C 0.60805 0.58037 0.69727 0.0
C314 C 0.61023 0.55436 0.64963 0.0
C315 C 0.618 0.55046 0.61612 0.0
C316 C 0.60821 0.56797 0.59304 0.0
C317 C 0.61622 0.56443 0.56161 0.0
C318 C 0.63378 0.54331 0.55293 0.0
C319 C 0.64337 0.52567 0.57566 0.0
C320 C 0.63549 0.52916 0.60713 0.0
C321 C 0.53526 0.48555 0.72965 0.0
C322 C 0.55405 0.46385 0.73156 0.0
C323 C 0.54678 0.5099 0.72069 0.0
C324 C 0.5771 0.51263 0.71359 0.0
C325 C 0.59597 0.4914 0.71769 0.0
C326 C 0.58465 0.46739 0.72682 0.0
C327 C 0.58903 0.5361 0.69781 0.0
C328 C 0.59659 0.53387 0.66595 0.0
C329 C 0.59487 0.55963 0.71379 0.0
C330 C 0.58938 0.56274 0.74796 0.0
C331 C 0.60155 0.5452 0.76971 0.0
C332 C 0.59736 0.54888 0.80192 0.0
C333 C 0.58156 0.57036 0.81278 0.0
C334 C 0.56995 0.5882 0.79143 0.0
C335 C 0.5737 0.58442 0.75915 0.0
H336 H 0.57857 0.57332 0.83775 0.0
H337 H 0.63996 0.54061 0.52859 0.0
H338 H 0.82143 0.88099 0.10798 0.0
H339 H 0.85393 0.91772 0.12161 0.0
H340 H 0.90727 0.86669 0.17874 0.0
H341 H 0.87359 0.83053 0.16625 0.0
H342 H 0.89906 0.9088 0.20936 0.0
H343 H 0.92986 0.89168 0.10292 0.0
H344 H 0.92351 0.88531 0.04593 0.0
H345 H 0.88605 0.96158 0.03763 0.0
H346 H 0.89192 0.96831 0.09459 0.0
H347 H 0.00113 0.01805 0.22923 0.0
H348 H 0.98152 0.97437 0.21761 0.0
H349 H 0.91316 0.00868 0.16037 0.0
H350 H 0.93253 0.05156 0.17165 0.0
H351 H 0.93867 0.9703 0.13003 0.0
H352 H 0.89985 0.98486 0.23548 0.0
H353 H 0.90566 0.99329 0.29219 0.0
H354 H 0.95714 0.92374 0.30182 0.0
H355 H 0.95185 0.91506 0.24505 0.0
C356 C 0.84033 0.87783 0.12313 0.0
C357 C 0.84544 0.85324 0.13598 0.0
C358 C 0.85899 0.89864 0.13082 0.0
C359 C 0.8835 0.89494 0.15081 0.0
C360 C 0.88865 0.8701 0.16326 0.0
C361 C 0.86963 0.84948 0.15606 0.0
C362 C 0.90293 0.91717 0.15983 0.0
C363 C 0.90815 0.92196 0.1919 0.0
C364 C 0.91472 0.93459 0.13728 0.0
C365 C 0.9112 0.93043 0.10303 0.0
C366 C 0.92012 0.90702 0.08896 0.0
C367 C 0.9166 0.90336 0.05664 0.0
C368 C 0.90428 0.92302 0.03819 0.0
C369 C 0.89556 0.94638 0.05197 0.0
C370 C 0.89902 0.95014 0.08423 0.0
C371 C 0.9818 0.01614 0.21457 0.0
C372 C 0.96855 0.03822 0.20136 0.0
C373 C 0.97064 0.99123 0.2078 0.0
C374 C 0.9459 0.98826 0.18797 0.0
C375 C 0.93247 0.0104 0.17538 0.0
C376 C 0.94365 0.03497 0.18189 0.0
C377 C 0.93359 0.96243 0.17938 0.0
C378 C 0.92995 0.95684 0.14738 0.0
C379 C 0.92305 0.94451 0.20194 0.0
C380 C 0.92575 0.94948 0.23605 0.0
C381 C 0.91254 0.97145 0.24969 0.0
C382 C 0.91571 0.97626 0.28183 0.0
C383 C 0.93184 0.9591 0.30058 0.0
C384 C 0.9447 0.93703 0.28726 0.0
C385 C 0.9416 0.93215 0.25512 0.0
H386 H 0.93431 0.96288 0.32545 0.0
H387 H 0.90146 0.92027 0.01321 0.0
H388 H 0.87983 0.16048 0.61919 0.0
H389 H 0.91152 0.12483 0.63819 0.0
H390 H 0.8335 0.07961 0.66002 0.0
H391 H 0.80218 0.11459 0.6399 0.0
H392 H 0.87285 0.08507 0.71096 0.0
H393 H 0.87069 0.06294 0.60359 0.0
H394 H 0.87728 0.06409 0.54627 0.0
H395 H 0.97162 0.0694 0.55816 0.0
H396 H 0.96547 0.0703 0.61548 0.0
H397 H 0.9198 0.95498 0.73131 0.0
H398 H 0.89828 0.99749 0.72092 0.0
H399 H 0.9849 0.0274 0.69685 0.0
H400 H 0.00632 0.98425 0.70653 0.0
H401 H 0.94585 0.03367 0.65037 0.0
H402 H 0.94414 0.05021 0.76152 0.0
H403 H 0.93306 0.03874 0.81651 0.0
H404 H 0.84027 0.03389 0.7948 0.0
H405 H 0.85083 0.04486 0.73955 0.0
C406 C 0.86967 0.14261 0.62731 0.0
C407 C 0.83868 0.14024 0.62851 0.0
C408 C 0.88766 0.1224 0.63834 0.0
C409 C 0.87478 0.09979 0.651 0.0
C410 C 0.84385 0.09704 0.65079 0.0
C411 C 0.82602 0.11693 0.63927 0.0
C412 C 0.89318 0.07931 0.66572 0.0
C413 C 0.8889 0.07386 0.69773 0.0
C414 C 0.91416 0.06479 0.6485 0.0
C415 C 0.91756 0.06731 0.61398 0.0
C416 C 0.89277 0.06537 0.59405 0.0
C417 C 0.89643 0.06559 0.56147 0.0
C418 C 0.92481 0.06704 0.5485 0.0
C419 C 0.94957 0.06867 0.56811 0.0
C420 C 0.946 0.06909 0.60066 0.0
C421 C 0.93439 0.97099 0.7252 0.0
C422 C 0.96469 0.9667 0.72019 0.0
C423 C 0.92209 0.99528 0.71921 0.0
C424 C 0.93998 0.01577 0.70833 0.0
C425 C 0.97072 0.0119 0.70539 0.0
C426 C 0.98301 0.98743 0.71119 0.0
C427 C 0.92587 0.0396 0.69565 0.0
C428 C 0.93065 0.04554 0.66389 0.0
C429 C 0.90476 0.05404 0.71287 0.0
C430 C 0.89831 0.04833 0.74635 0.0
C431 C 0.92138 0.04664 0.76844 0.0
C432 C 0.91519 0.04019 0.79966 0.0
C433 C 0.88598 0.03559 0.80914 0.0
C434 C 0.86288 0.0375 0.78744 0.0
C435 C 0.86896 0.04387 0.75618 0.0
H436 H 0.88124 0.03055 0.83331 0.0
H437 H 0.92762 0.06668 0.52327 0.0
H438 H 0.6339 0.33179 0.16456 0.0
H439 H 0.59903 0.36524 0.18186 0.0
H440 H 0.64371 0.42133 0.12276 0.0
H441 H 0.68012 0.38832 0.10817 0.0
H442 H 0.63688 0.44215 0.17494 0.0
H443 H 0.56939 0.39378 0.10899 0.0
H444 H 0.54299 0.35463 0.09043 0.0
H445 H 0.50363 0.34477 0.18155 0.0
H446 H 0.53004 0.38373 0.20073 0.0
H447 H 0.50302 0.52659 0.16603 0.0
H448 H 0.52422 0.48385 0.1552 0.0
H449 H 0.56606 0.48422 0.24627 0.0
H450 H 0.54521 0.52732 0.25691 0.0
H451 H 0.52743 0.43397 0.18137 0.0
H452 H 0.63209 0.47197 0.23729 0.0
H453 H 0.65676 0.51382 0.2491 0.0
H454 H 0.61986 0.54709 0.16536 0.0
H455 H 0.59485 0.5055 0.1533 0.0
C456 C 0.63592 0.35129 0.15522 0.0
C457 C 0.65972 0.35776 0.13547 0.0
C458 C 0.61588 0.37034 0.16481 0.0
C459 C 0.61855 0.39595 0.15361 0.0
C460 C 0.64125 0.40184 0.13203 0.0
C461 C 0.6618 0.38296 0.12328 0.0
C462 C 0.5993 0.41707 0.16596 0.0
C463 C 0.61297 0.44013 0.17627 0.0
C464 C 0.568 0.41477 0.16796 0.0
C465 C 0.55188 0.39153 0.15635 0.0
C466 C 0.55522 0.38318 0.1251 0.0
C467 C 0.54024 0.36104 0.11447 0.0
C468 C 0.5217 0.34719 0.13482 0.0
C469 C 0.51802 0.35551 0.16582 0.0
C470 C 0.53295 0.37764 0.17657 0.0
C471 C 0.51587 0.51707 0.18415 0.0
C472 C 0.52227 0.52997 0.21242 0.0
C473 C 0.52791 0.49268 0.17798 0.0
C474 C 0.54689 0.481 0.19981 0.0
C475 C 0.55151 0.49299 0.22909 0.0
C476 C 0.53941 0.51744 0.23528 0.0
C477 C 0.56519 0.45862 0.1899 0.0
C478 C 0.55139 0.43551 0.18022 0.0
C479 C 0.59629 0.46099 0.18755 0.0
C480 C 0.61167 0.48577 0.19448 0.0
C481 C 0.6294 0.48823 0.2214 0.0
C482 C 0.64332 0.5119 0.22818 0.0
C483 C 0.63988 0.5331 0.208 0.0
C484 C 0.62247 0.53068 0.18101 0.0
C485 C 0.60836 0.50711 0.17424 0.0
H486 H 0.6507 0.55139 0.21326 0.0
H487 H 0.51015 0.33004 0.12655 0.0
H488 H 0.31343 0.38022 0.39377 0.0
H489 H 0.34257 0.4176 0.37474 0.0
H490 H 0.41035 0.36546 0.34151 0.0
H491 H 0.3808 0.32824 0.36012 0.0
H492 H 0.4318 0.4142 0.37046 0.0
H493 H 0.36456 0.38199 0.29076 0.0
H494 H 0.31566 0.36832 0.27073 0.0
H495 H 0.28051 0.44387 0.29107 0.0
H496 H 0.32914 0.45792 0.31152 0.0
H497 H 0.49515 0.51641 0.27844 0.0
H498 H 0.47641 0.47275 0.2911 0.0
H499 H 0.39004 0.50519 0.30973 0.0
H500 H 0.40821 0.54798 0.2954 0.0
H501 H 0.38258 0.46141 0.28342 0.0
H502 H 0.4446 0.4931 0.36821 0.0
H503 H 0.49121 0.50847 0.39224 0.0
H504 H 0.53367 0.43686 0.36723 0.0
H505 H 0.48738 0.42122 0.34266 0.0
C506 C 0.33497 0.37703 0.38328 0.0
C507 C 0.34532 0.35172 0.37864 0.0
C508 C 0.35148 0.39819 0.3723 0.0
C509 C 0.3785 0.39418 0.35662 0.0
C510 C 0.38965 0.36892 0.35369 0.0
C511 C 0.37294 0.34778 0.36431 0.0
C512 C 0.39349 0.41602 0.34051 0.0
C513 C 0.42133 0.42437 0.35113 0.0
C514 C 0.37959 0.42929 0.31552 0.0
C515 C 0.35043 0.42093 0.3029 0.0
C516 C 0.34635 0.39563 0.29117 0.0
C517 C 0.3187 0.38782 0.2797 0.0
C518 C 0.29497 0.40518 0.27974 0.0
C519 C 0.29889 0.43043 0.2911 0.0
C520 C 0.32651 0.43834 0.30258 0.0
C521 C 0.47199 0.51391 0.28399 0.0
C522 C 0.45315 0.53549 0.28568 0.0
C523 C 0.46137 0.48908 0.29183 0.0
C524 C 0.43188 0.48571 0.30192 0.0
C525 C 0.41284 0.50717 0.30206 0.0
C526 C 0.42332 0.53171 0.29397 0.0
C527 C 0.42061 0.46045 0.31403 0.0
C528 C 0.3934 0.45119 0.30249 0.0
C529 C 0.43486 0.44673 0.33861 0.0
C530 C 0.46268 0.45615 0.35324 0.0
C531 C 0.46396 0.48073 0.36761 0.0
C532 C 0.4903 0.48948 0.38136 0.0
C533 C 0.51542 0.47369 0.38116 0.0
C534 C 0.51422 0.4491 0.36728 0.0
C535 C 0.48795 0.44029 0.35344 0.0
H536 H 0.53578 0.48048 0.39185 0.0
H537 H 0.27357 0.39908 0.27089 0.0
H538 H 0.19344 0.1139 0.85718 0.0
H539 H 0.15783 0.08117 0.83886 0.0
H540 H 0.0857 0.12893 0.87124 0.0
H541 H 0.1216 0.16207 0.88906 0.0
H542 H 0.08104 0.07025 0.88176 0.0
H543 H 0.09728 0.1347 0.8005 0.0
H544 H 0.12965 0.16237 0.7678 0.0
H545 H 0.17195 0.09457 0.73015 0.0
H546 H 0.14012 0.0665 0.76299 0.0
H547 H 0.99127 0.98077 0.79964 0.0
H548 H 0.00727 0.02512 0.81344 0.0
H549 H 0.09289 0.01011 0.77205 0.0
H550 H 0.07674 0.96648 0.75796 0.0
H551 H 0.08149 0.05916 0.7659 0.0
H552 H 0.07729 0.99621 0.85003 0.0
H553 H 0.0522 0.9647 0.88478 0.0
H554 H 0.99473 0.0248 0.91873 0.0
H555 H 0.01924 0.0566 0.88376 0.0
C556 C 0.16999 0.11714 0.86077 0.0
C557 C 0.16012 0.14048 0.87411 0.0
C558 C 0.14971 0.09851 0.85038 0.0
C559 C 0.11914 0.10281 0.85335 0.0
C560 C 0.1092 0.12531 0.86872 0.0
C561 C 0.12962 0.14412 0.87895 0.0
C562 C 0.09804 0.08471 0.83788 0.0
C563 C 0.08046 0.06823 0.8564 0.0
C564 C 0.09793 0.0817 0.80485 0.0
C565 C 0.11637 0.09851 0.78427 0.0
C566 C 0.11354 0.1257 0.78532 0.0
C567 C 0.13179 0.14145 0.76676 0.0
C568 C 0.15285 0.13024 0.74693 0.0
C569 C 0.15561 0.10323 0.74551 0.0
C570 C 0.13743 0.08739 0.76404 0.0
C571 C 0.01295 0.98753 0.79227 0.0
C572 C 0.03286 0.97041 0.77778 0.0
C573 C 0.02224 0.0127 0.80047 0.0
C574 C 0.0516 0.02077 0.79452 0.0
C575 C 0.07022 0.00444 0.77705 0.0
C576 C 0.06097 0.97949 0.7689 0.0
C577 C 0.06469 0.04423 0.80974 0.0
C578 C 0.08109 0.06168 0.7912 0.0
C579 C 0.06435 0.04765 0.84283 0.0
C580 C 0.04981 0.02868 0.86405 0.0
C581 C 0.05917 0.00265 0.86477 0.0
C582 C 0.04507 0.98475 0.8845 0.0
C583 C 0.02183 0.99273 0.90389 0.0
C584 C 0.01269 0.01864 0.90363 0.0
C585 C 0.02666 0.03661 0.88386 0.0
H586 H 0.01096 0.97885 0.91918 0.0
H587 H 0.16702 0.14247 0.73264 0.0
H588 H 0.15246 0.20846 0.9389 0.0
H589 H 0.13288 0.20232 0.99213 0.0
H590 H 0.16635 0.12386 0.99265 0.0
H591 H 0.18534 0.13005 0.93892 0.0
H592 H 0.11369 0.12557 0.0202 0.0
H593 H 0.20371 0.17389 0.02948 0.0
H594 H 0.23868 0.20938 0.0172 0.0
H595 H 0.176 0.26539 0.05096 0.0
H596 H 0.14039 0.23026 0.0629 0.0
H597 H 0.08649 0.11242 0.18123 0.0
H598 H 0.12081 0.11894 0.13716 0.0
H599 H 0.07868 0.19188 0.11587 0.0
H600 H 0.04399 0.18504 0.15931 0.0
H601 H 0.1416 0.19033 0.10159 0.0
H602 H 0.04994 0.14235 0.08487 0.0
H603 H 0.01436 0.10713 0.09637 0.0
H604 H 0.08112 0.05029 0.07613 0.0
H605 H 0.11729 0.08526 0.06513 0.0
C606 C 0.15525 0.18987 0.95041 0.0
C607 C 0.17043 0.16976 0.93522 0.0
C608 C 0.14431 0.1864 0.9808 0.0
C609 C 0.14884 0.16284 0.99675 0.0
C610 C 0.16282 0.14227 0.98094 0.0
C611 C 0.17355 0.14572 0.95033 0.0
C612 C 0.13937 0.15999 0.03005 0.0
C613 C 0.12032 0.13944 0.03809 0.0
C614 C 0.1477 0.17826 0.05343 0.0
C615 C 0.1693 0.19943 0.04691 0.0
C616 C 0.19731 0.19378 0.03414 0.0
C617 C 0.21725 0.21384 0.02723 0.0
C618 C 0.20955 0.23963 0.03326 0.0
C619 C 0.18192 0.2454 0.04629 0.0
C620 C 0.16186 0.22542 0.05316 0.0
C621 C 0.08568 0.13049 0.1682 0.0
C622 C 0.06282 0.14834 0.17364 0.0
C623 C 0.10506 0.13407 0.14285 0.0
C624 C 0.10193 0.1557 0.12301 0.0
C625 C 0.08146 0.17508 0.13089 0.0
C626 C 0.06178 0.17126 0.15583 0.0
C627 C 0.11587 0.15609 0.09146 0.0
C628 C 0.13556 0.17622 0.08375 0.0
C629 C 0.10822 0.13742 0.06836 0.0
C630 C 0.08643 0.1164 0.07466 0.0
C631 C 0.05711 0.12235 0.08319 0.0
C632 C 0.03683 0.10243 0.08957 0.0
C633 C 0.0455 0.07648 0.08709 0.0
C634 C 0.07446 0.07041 0.07813 0.0
C635 C 0.09487 0.09026 0.07185 0.0
H636 H 0.02976 0.06109 0.09202 0.0
H637 H 0.22501 0.25513 0.02788 0.0
H638 H 0.37805 0.32744 0.42344 0.0
H639 H 0.39922 0.33817 0.47421 0.0
H640 H 0.31325 0.3282 0.51742 0.0
H641 H 0.29127 0.3225 0.46558 0.0
H642 H 0.33679 0.36116 0.54829 0.0
H643 H 0.37632 0.27911 0.51629 0.0
H644 H 0.40127 0.24807 0.48101 0.0
H645 H 0.48036 0.29471 0.48308 0.0
H646 H 0.4558 0.32617 0.51807 0.0
H647 H 0.42504 0.3511 0.6964 0.0
H648 H 0.39153 0.33766 0.65346 0.0
H649 H 0.44697 0.37809 0.58683 0.0
H650 H 0.47962 0.39181 0.62861 0.0
H651 H 0.43399 0.32236 0.57468 0.0
H652 H 0.38887 0.40502 0.60705 0.0
H653 H 0.36157 0.43275 0.64425 0.0
H654 H 0.289 0.37854 0.6442 0.0
H655 H 0.31641 0.34993 0.60813 0.0
C656 C 0.36348 0.32847 0.44352 0.0
C657 C 0.33297 0.32385 0.44039 0.0
C658 C 0.37578 0.33377 0.47291 0.0
C659 C 0.35825 0.33273 0.50024 0.0
C660 C 0.32757 0.32873 0.49701 0.0
C661 C 0.31502 0.32495 0.46735 0.0
C662 C 0.37183 0.33602 0.53199 0.0
C663 C 0.35773 0.35211 0.55414 0.0
C664 C 0.39913 0.32422 0.54023 0.0
C665 C 0.41415 0.30504 0.5197 0.0
C666 C 0.39901 0.28276 0.50917 0.0
C667 C 0.41308 0.2651 0.4892 0.0
C668 C 0.44236 0.26943 0.47978 0.0
C669 C 0.45768 0.29137 0.4904 0.0
C670 C 0.44372 0.30909 0.51035 0.0
C671 C 0.42981 0.35731 0.67266 0.0
C672 C 0.4552 0.37234 0.66604 0.0
C673 C 0.41072 0.34962 0.64821 0.0
C674 C 0.41705 0.35679 0.61704 0.0
C675 C 0.44185 0.37224 0.61069 0.0
C676 C 0.46052 0.38006 0.6348 0.0
C677 C 0.39917 0.34772 0.5901 0.0
C678 C 0.41259 0.33062 0.56887 0.0
C679 C 0.37096 0.35795 0.58317 0.0
C680 C 0.35495 0.37508 0.60536 0.0
C681 C 0.36738 0.39873 0.61549 0.0
C682 C 0.35186 0.41463 0.63639 0.0
C683 C 0.3237 0.40728 0.6469 0.0
C684 C 0.31096 0.38406 0.63643 0.0
C685 C 0.32652 0.36797 0.61583 0.0
H686 H 0.31166 0.41966 0.66297 0.0
H687 H 0.45319 0.25576 0.46428 0.0
H688 H 0.64895 0.30047 0.07951 0.0
H689 H 0.62534 0.30406 0.02764 0.0
H690 H 0.67768 0.37271 0.00843 0.0
H691 H 0.70195 0.3682 0.05978 0.0
H692 H 0.59189 0.33911 1.00259 0.0
H693 H 0.69288 0.37868 0.93381 0.0
H694 H 0.74738 0.37497 0.93484 0.0
H695 H 0.74007 0.29905 0.97601 0.0
H696 H 0.68554 0.30226 0.97504 0.0
H697 H 0.54619 0.40738 0.87392 0.0
H698 H 0.57793 0.3948 0.91735 0.0
H699 H 0.60282 0.32514 0.86777 0.0
H700 H 0.57074 0.33784 0.82346 0.0
H701 H 0.65043 0.3507 0.9047 0.0
H702 H 0.55217 0.31669 0.9168 0.0
H703 H 0.4976 0.31882 0.91586 0.0
H704 H 0.4992 0.37751 0.98753 0.0
H705 H 0.55383 0.37604 0.98855 0.0
C706 C 0.65509 0.3163 0.06404 0.0
C707 C 0.67677 0.33426 0.07327 0.0
C708 C 0.64178 0.31835 0.03454 0.0
C709 C 0.65004 0.33843 0.01391 0.0
C710 C 0.6714 0.35672 0.0236 0.0
C711 C 0.68493 0.35444 0.05296 0.0
C712 C 0.63577 0.34064 0.98263 0.0
C713 C 0.60474 0.34138 0.98121 0.0
C714 C 0.65244 0.34313 0.95456 0.0
C715 C 0.68517 0.34076 0.95441 0.0
C716 C 0.70292 0.36113 0.94286 0.0
C717 C 0.7338 0.35915 0.94353 0.0
C718 C 0.74718 0.3368 0.9555 0.0
C719 C 0.72969 0.31637 0.96679 0.0
C720 C 0.6988 0.31828 0.96624 0.0
C721 C 0.55877 0.38956 0.87191 0.0
C722 C 0.55564 0.37334 0.84556 0.0
C723 C 0.57694 0.38245 0.89675 0.0
C724 C 0.59221 0.35886 0.89597 0.0
C725 C 0.59102 0.34341 0.86875 0.0
C726 C 0.57278 0.35066 0.84353 0.0
C727 C 0.60676 0.34972 0.92503 0.0
C728 C 0.63771 0.34787 0.92607 0.0
C729 C 0.59002 0.34568 0.95275 0.0
C730 C 0.55712 0.34635 0.95262 0.0
C731 C 0.5409 0.33017 0.93223 0.0
C732 C 0.50995 0.33124 0.93169 0.0
C733 C 0.49494 0.34831 0.95159 0.0
C734 C 0.51086 0.3643 0.97213 0.0
C735 C 0.54181 0.36332 0.97272 0.0
H736 H 0.47099 0.34913 0.95114 0.0
H737 H 0.77109 0.33531 0.95602 0.0
H738 H 0.8288 0.13164 0.565 0.0
H739 H 0.85471 0.12668 0.51451 0.0
H740 H 0.87255 0.20899 0.51279 0.0
H741 H 0.84912 0.21361 0.56438 0.0
H742 H 0.83909 0.18313 0.45744 0.0
H743 H 0.92347 0.1823 0.52332 0.0
H744 H 0.95983 0.16965 0.5633 0.0
H745 H 0.9758 0.09826 0.51417 0.0
H746 H 0.93714 0.10907 0.47586 0.0
H747 H 0.96651 0.18321 0.34043 0.0
H748 H 0.93489 0.19338 0.38566 0.0
H749 H 0.88961 0.12011 0.37433 0.0
H750 H 0.9206 0.1103 0.32848 0.0
H751 H 0.93678 0.14341 0.43528 0.0
H752 H 0.84007 0.14418 0.37744 0.0
H753 H 0.80759 0.16141 0.33599 0.0
H754 H 0.82519 0.23929 0.36708 0.0
H755 H 0.85738 0.22239 0.40926 0.0
C756 C 0.83911 0.14848 0.55432 0.0
C757 C 0.83674 0.17308 0.56847 0.0
C758 C 0.85366 0.14567 0.52541 0.0
C759 C 0.86542 0.16751 0.50997 0.0
C760 C 0.86355 0.19194 0.52434 0.0
C761 C 0.84999 0.19458 0.55363 0.0
C762 C 0.87772 0.1653 0.47784 0.0
C763 C 0.86045 0.17435 0.4527 0.0
C764 C 0.90576 0.15415 0.47168 0.0
C765 C 0.92651 0.14625 0.49704 0.0
C766 C 0.93352 0.16332 0.52181 0.0
C767 C 0.95467 0.15645 0.54427 0.0
C768 C 0.96976 0.13292 0.54167 0.0
C769 C 0.96361 0.11618 0.51669 0.0
C770 C 0.94175 0.12251 0.49484 0.0
C771 C 0.94862 0.17003 0.34651 0.0
C772 C 0.94551 0.14624 0.33074 0.0
C773 C 0.93073 0.17575 0.37243 0.0
C774 C 0.90982 0.15757 0.38314 0.0
C775 C 0.90519 0.13462 0.36599 0.0
C776 C 0.92276 0.1291 0.33972 0.0
C777 C 0.89762 0.1601 0.41526 0.0
C778 C 0.91515 0.15155 0.44033 0.0
C779 C 0.87016 0.17191 0.42152 0.0
C780 C 0.8514 0.18208 0.39603 0.0
C781 C 0.83725 0.16498 0.37517 0.0
C782 C 0.81883 0.17468 0.35162 0.0
C783 C 0.81463 0.20145 0.34854 0.0
C784 C 0.82859 0.21857 0.36933 0.0
C785 C 0.84681 0.20894 0.39316 0.0
H786 H 0.80041 0.20889 0.33019 0.0
H787 H 0.98647 0.1278 0.55879 0.0
H788 H 0.79624 0.82304 0.04795 0.0
H789 H 0.82062 0.83039 0.99718 0.0
H790 H 0.9053 0.83493 0.04382 0.0
H791 H 0.88111 0.82614 0.09437 0.0
H792 H 0.89293 0.87578 0.9986 0.0
H793 H 0.89122 0.78254 0.00896 0.0
H794 H 0.86696 0.74013 0.0175 0.0
H795 H 0.81297 0.75197 0.93578 0.0
H796 H 0.83655 0.79473 0.92708 0.0
H797 H 0.00099 0.85969 0.88528 0.0
H798 H 0.96838 0.84997 0.92913 0.0
H799 H 0.89314 0.84878 0.86679 0.0
H800 H 0.92588 0.85915 0.82221 0.0
H801 H 0.89495 0.80761 0.91621 0.0
H802 H 0.89816 0.90014 0.90466 0.0
H803 H 0.92189 0.94287 0.89659 0.0
H804 H 0.97287 0.93261 0.98076 0.0
H805 H 0.94987 0.88956 0.98898 0.0
C806 C 0.82009 0.82532 0.04721 0.0
C807 C 0.83686 0.82389 0.07494 0.0
C808 C 0.83392 0.82966 0.01834 0.0
C809 C 0.86471 0.83305 0.01685 0.0
C810 C 0.88146 0.83238 0.0446 0.0
C811 C 0.86767 0.82755 0.07342 0.0
C812 C 0.87954 0.83704 0.98626 0.0
C813 C 0.89368 0.86085 0.98073 0.0
C814 C 0.8794 0.81776 0.96256 0.0
C815 C 0.86538 0.79198 0.9676 0.0
C816 C 0.87396 0.77623 0.99299 0.0
C817 C 0.86037 0.75211 0.99783 0.0
C818 C 0.83837 0.7434 0.97726 0.0
C819 C 0.82997 0.75877 0.95174 0.0
C820 C 0.84344 0.78295 0.94684 0.0
C821 C 0.97757 0.85713 0.88062 0.0
C822 C 0.96601 0.86039 0.85018 0.0
C823 C 0.95898 0.85153 0.90579 0.0
C824 C 0.92841 0.84899 0.9012 0.0
C825 C 0.91677 0.85073 0.87069 0.0
C826 C 0.93548 0.85655 0.84527 0.0
C827 C 0.90897 0.84623 0.92895 0.0
C828 C 0.89398 0.82269 0.93399 0.0
C829 C 0.90825 0.86579 0.95229 0.0
C830 C 0.92237 0.89158 0.94736 0.0
C831 C 0.91462 0.9069 0.9213 0.0
C832 C 0.92793 0.93118 0.91671 0.0
C833 C 0.9489 0.94044 0.93813 0.0
C834 C 0.95666 0.9254 0.96416 0.0
C835 C 0.94351 0.90104 0.96878 0.0
H836 H 0.95909 0.95928 0.93459 0.0
H837 H 0.82788 0.72471 0.98103 0.0
H838 H 0.62451 0.67113 0.58343 0.0
H839 H 0.60447 0.662 0.53082 0.0
H840 H 0.69221 0.67015 0.49147 0.0
H841 H 0.71215 0.67813 0.54404 0.0
H842 H 0.60289 0.6901 0.47778 0.0
H843 H 0.70091 0.62891 0.43125 0.0
H844 H 0.73911 0.59919 0.45168 0.0
H845 H 0.68276 0.57934 0.52946 0.0
H846 H 0.64408 0.60861 0.50924 0.0
H847 H 0.56439 0.66513 0.31906 0.0
H848 H 0.59702 0.67878 0.36238 0.0
H849 H 0.59398 0.60086 0.3999 0.0
H850 H 0.56304 0.5872 0.35635 0.0
H851 H 0.64426 0.61905 0.41255 0.0
H852 H 0.54371 0.65218 0.42127 0.0
H853 H 0.50072 0.67827 0.40468 0.0
H854 H 0.55372 0.74769 0.40866 0.0
H855 H 0.59712 0.72193 0.42488 0.0
C856 C 0.63941 0.67054 0.56355 0.0
C857 C 0.66982 0.67508 0.56759 0.0
C858 C 0.62799 0.66567 0.53351 0.0
C859 C 0.64689 0.66523 0.50721 0.0
C860 C 0.67725 0.67005 0.51138 0.0
C861 C 0.6886 0.67473 0.5413 0.0
C862 C 0.63507 0.65939 0.47542 0.0
C863 C 0.61196 0.6746 0.46346 0.0
C864 C 0.64681 0.63912 0.45677 0.0
C865 C 0.66976 0.62116 0.46888 0.0
C866 C 0.69664 0.61811 0.45263 0.0
C867 C 0.71836 0.60134 0.46418 0.0
C868 C 0.71337 0.58742 0.49187 0.0
C869 C 0.68661 0.59016 0.50803 0.0
C870 C 0.66479 0.60686 0.49656 0.0
C871 C 0.57186 0.65079 0.33583 0.0
C872 C 0.56117 0.62515 0.33445 0.0
C873 C 0.59006 0.65866 0.36089 0.0
C874 C 0.59738 0.64101 0.38497 0.0
C875 C 0.58866 0.61495 0.38188 0.0
C876 C 0.57085 0.60713 0.35693 0.0
C877 C 0.6116 0.64946 0.41487 0.0
C878 C 0.63538 0.63481 0.42658 0.0
C879 C 0.59976 0.66967 0.43369 0.0
C880 C 0.57372 0.6851 0.42386 0.0
C881 C 0.54623 0.67298 0.41838 0.0
C882 C 0.52179 0.68771 0.40907 0.0
C883 C 0.52451 0.71461 0.40551 0.0
C884 C 0.55166 0.72684 0.41133 0.0
C885 C 0.57618 0.71219 0.42057 0.0
H886 H 0.50557 0.72598 0.39833 0.0
H887 H 0.73023 0.57447 0.50079 0.0
H888 H 0.33245 0.70906 0.94632 0.0
H889 H 0.35317 0.70255 0.99842 0.0
H890 H 0.34153 0.61963 0.98823 0.0
H891 H 0.31721 0.62664 0.93746 0.0
H892 H 0.32824 0.63063 0.04362 0.0
H893 H 0.41249 0.65493 0.98153 0.0
H894 H 0.44141 0.68204 0.94476 0.0
H895 H 0.43647 0.74641 0.00872 0.0
H896 H 0.4072 0.71977 0.0457 0.0
H897 H 0.42998 0.59616 0.16371 0.0
H898 H 0.39851 0.60367 0.1184 0.0
H899 H 0.40712 0.68652 0.13208 0.0
H900 H 0.44077 0.67869 0.17641 0.0
H901 H 0.42052 0.67588 0.07581 0.0
H902 H 0.33722 0.64753 0.13952 0.0
H903 H 0.31115 0.6173 0.17502 0.0
H904 H 0.31814 0.55649 0.10644 0.0
H905 H 0.34453 0.58628 0.07058 0.0
C906 C 0.33395 0.68949 0.95541 0.0
C907 C 0.32301 0.66841 0.93794 0.0
C908 C 0.34636 0.68569 0.98501 0.0
C909 C 0.3497 0.66052 0.99723 0.0
C910 C 0.33936 0.63927 0.97943 0.0
C911 C 0.32586 0.64321 0.95019 0.0
C912 C 0.36319 0.65655 0.02886 0.0
C913 C 0.34863 0.64031 0.05048 0.0
C914 C 0.38952 0.66948 0.03829 0.0
C915 C 0.40746 0.68541 0.01625 0.0
C916 C 0.41746 0.6749 0.98768 0.0
C917 C 0.43392 0.69018 0.96681 0.0
C918 C 0.44072 0.71594 0.97437 0.0
C919 C 0.43117 0.72645 1.00288 0.0
C920 C 0.41467 0.71127 0.02382 0.0
C921 C 0.42401 0.61597 0.15789 0.0
C922 C 0.43717 0.63686 0.17388 0.0
C923 C 0.40594 0.62029 0.13188 0.0
C924 C 0.39992 0.64571 0.12179 0.0
C925 C 0.41131 0.66671 0.13937 0.0
C926 C 0.43014 0.66231 0.165 0.0
C927 C 0.38541 0.6502 0.09077 0.0
C928 C 0.39994 0.66643 0.06911 0.0
C929 C 0.35942 0.63682 0.08115 0.0
C930 C 0.34296 0.61912 0.10245 0.0
C931 C 0.33327 0.6277 0.13205 0.0
C932 C 0.31844 0.61063 0.15224 0.0
C933 C 0.31302 0.58498 0.14305 0.0
C934 C 0.32233 0.57636 0.11355 0.0
C935 C 0.33716 0.59334 0.09325 0.0
H936 H 0.30159 0.57181 0.15878 0.0
H937 H 0.45344 0.72775 0.95817 0.0
H938 H 0.20188 0.8558 0.44987 0.0
H939 H 0.18177 0.86334 0.50302 0.0
H940 H 0.10862 0.81187 0.48221 0.0
H941 H 0.12919 0.80411 0.42959 0.0
H942 H 0.09197 0.85924 0.51068 0.0
H943 H 0.16333 0.78994 0.52322 0.0
H944 H 0.21309 0.77056 0.51981 0.0
H945 H 0.24749 0.82971 0.58105 0.0
H946 H 0.19799 0.84975 0.58434 0.0
H947 H 0.02247 0.82602 0.64565 0.0
H948 H 0.05684 0.81765 0.60259 0.0
H949 H 0.11842 0.87324 0.64157 0.0
H950 H 0.08396 0.88139 0.68524 0.0
H951 H 0.14518 0.82923 0.60603 0.0
H952 H 0.07438 0.89783 0.59552 0.0
H953 H 0.02489 0.91768 0.59944 0.0
H954 H 0.99037 0.86162 0.53419 0.0
H955 H 0.03957 0.8411 0.53037 0.0
C956 C 0.18133 0.84651 0.45681 0.0
C957 C 0.1666 0.8298 0.43599 0.0
C958 C 0.17001 0.85062 0.487 0.0
C959 C 0.14378 0.83809 0.49644 0.0
C960 C 0.12883 0.82177 0.47527 0.0
C961 C 0.14038 0.81742 0.44536 0.0
C962 C 0.13175 0.84161 0.52844 0.0
C963 C 0.10356 0.8526 0.53149 0.0
C964 C 0.14734 0.83364 0.55562 0.0
C965 C 0.17705 0.82155 0.55369 0.0
C966 C 0.18156 0.79898 0.53569 0.0
C967 C 0.20971 0.78785 0.53383 0.0
C968 C 0.23346 0.79894 0.55013 0.0
C969 C 0.22909 0.82117 0.56838 0.0
C970 C 0.201 0.83243 0.57024 0.0
C971 C 0.04402 0.8354 0.64591 0.0
C972 C 0.05073 0.85431 0.66856 0.0
C973 C 0.06353 0.83076 0.62123 0.0
C974 C 0.08978 0.84526 0.61865 0.0
C975 C 0.09818 0.86192 0.64323 0.0
C976 C 0.07864 0.86644 0.66821 0.0
C977 C 0.10515 0.84621 0.58802 0.0
C978 C 0.13385 0.83619 0.58522 0.0
C979 C 0.0902 0.85532 0.56096 0.0
C980 C 0.06062 0.86777 0.5629 0.0
C981 C 0.05618 0.88959 0.58222 0.0
C982 C 0.02819 0.90098 0.5844 0.0
C983 C 0.00448 0.89088 0.56713 0.0
C984 C 0.00875 0.8694 0.54759 0.0
C985 C 0.03669 0.85788 0.5454 0.0
H986 H 0.98282 0.89974 0.56883 0.0
H987 H 0.25524 0.79028 0.54868 0.0
H988 H 0.24067 0.31853 0.35063 0.0
H989 H 0.2022 0.29413 0.3222 0.0
H990 H 0.25417 0.22426 0.33106 0.0
H991 H 0.29287 0.24904 0.35877 0.0
H992 H 0.23044 0.22792 0.27312 0.0
H993 H 0.19621 0.23582 0.37959 0.0
H994 H 0.18263 0.25909 0.42809 0.0
H995 H 0.11535 0.30086 0.37806 0.0
H996 H 0.12887 0.2781 0.3291 0.0
H997 H 0.12203 0.12732 0.28317 0.0
H998 H 0.16189 0.15944 0.28778 0.0
H999 H 0.10377 0.21867 0.25174 0.0
H1000 H 0.064 0.18616 0.24593 0.0
H1001 H 0.12822 0.22562 0.31609 0.0
H1002 H 0.15849 0.21082 0.21094 0.0
H1003 H 0.17136 0.18426 0.16478 0.0
H1004 H 0.24568 0.15247 0.2144 0.0
H1005 H 0.23289 0.17845 0.26113 0.0
C1006 C 0.24363 0.29795 0.34641 0.0
C1007 C 0.26918 0.28537 0.35713 0.0
C1008 C 0.22181 0.28406 0.33024 0.0
C1009 C 0.22519 0.25731 0.32477 0.0
C1010 C 0.2511 0.24487 0.33503 0.0
C1011 C 0.27296 0.25884 0.35109 0.0
C1012 C 0.20131 0.24209 0.30936 0.0
C1013 C 0.20812 0.22734 0.28256 0.0
C1014 C 0.17199 0.24183 0.32123 0.0
C1015 C 0.1638 0.25551 0.35062 0.0
C1016 C 0.1787 0.25014 0.37887 0.0
C1017 C 0.17099 0.2632 0.40645 0.0
C1018 C 0.1482 0.28151 0.40614 0.0
C1019 C 0.13304 0.28673 0.37825 0.0
C1020 C 0.14071 0.27375 0.35058 0.0
C1021 C 0.1182 0.14696 0.27499 0.0
C1022 C 0.09014 0.15437 0.26413 0.0
C1023 C 0.1409 0.16528 0.27771 0.0
C1024 C 0.13564 0.19138 0.27024 0.0
C1025 C 0.10818 0.19855 0.25749 0.0
C1026 C 0.08563 0.18 0.25397 0.0
C1027 C 0.15746 0.21125 0.28016 0.0
C1028 C 0.15035 0.22673 0.30616 0.0
C1029 C 0.18649 0.21189 0.26779 0.0
C1030 C 0.1946 0.19647 0.23964 0.0
C1031 C 0.17744 0.19801 0.21212 0.0
C1032 C 0.18474 0.18308 0.18583 0.0
C1033 C 0.20931 0.16667 0.18667 0.0
C1034 C 0.22666 0.16519 0.21379 0.0
C1035 C 0.2194 0.18004 0.24019 0.0
H1036 H 0.21493 0.15512 0.16629 0.0
H1037 H 0.14224 0.29159 0.42753 0.0
H1038 H 0.26244 0.17396 0.83703 0.0
H1039 H 0.30043 0.20009 0.8104 0.0
H1040 H 0.25803 0.27013 0.84303 0.0
H1041 H 0.21935 0.24384 0.86849 0.0
H1042 H 0.27473 0.27605 0.78404 0.0
H1043 H 0.32125 0.24555 0.87823 0.0
H1044 H 0.33793 0.21289 0.91664 0.0
H1045 H 0.39167 0.17671 0.84591 0.0
H1046 H 0.37497 0.20897 0.80693 0.0
H1047 H 0.39198 0.36717 0.78109 0.0
H1048 H 0.3504 0.33757 0.78847 0.0
H1049 H 0.40327 0.27428 0.75298 0.0
H1050 H 0.4456 0.30416 0.7468 0.0
H1051 H 0.38111 0.2618 0.80722 0.0
H1052 H 0.33768 0.29881 0.71458 0.0
H1053 H 0.32193 0.33481 0.68029 0.0
H1054 H 0.26261 0.36191 0.75196 0.0
H1055 H 0.27833 0.32637 0.78688 0.0
C1056 C 0.2612 0.19494 0.83819 0.0
C1057 C 0.2381 0.20696 0.85476 0.0
C1058 C 0.28299 0.20986 0.82323 0.0
C1059 C 0.28234 0.23713 0.82495 0.0
C1060 C 0.25906 0.24915 0.84134 0.0
C1061 C 0.23715 0.23419 0.85611 0.0
C1062 C 0.30608 0.25313 0.81003 0.0
C1063 C 0.298 0.27304 0.78922 0.0
C1064 C 0.33651 0.24889 0.81621 0.0
C1065 C 0.34659 0.22948 0.83958 0.0
C1066 C 0.33643 0.2305 0.8708 0.0
C1067 C 0.34592 0.21209 0.89269 0.0
C1068 C 0.36577 0.19269 0.8837 0.0
C1069 C 0.37624 0.19171 0.85282 0.0
C1070 C 0.36679 0.21006 0.83083 0.0
C1071 C 0.39427 0.34717 0.77353 0.0
C1072 C 0.4217 0.33798 0.76282 0.0
C1073 C 0.37045 0.33017 0.77779 0.0
C1074 C 0.3734 0.30359 0.77103 0.0
C1075 C 0.40034 0.2947 0.75825 0.0
C1076 C 0.42439 0.31178 0.75427 0.0
C1077 C 0.34986 0.28495 0.78125 0.0
C1078 C 0.35793 0.26454 0.80139 0.0
C1079 C 0.31941 0.28901 0.77479 0.0
C1080 C 0.30929 0.30995 0.7534 0.0
C1081 C 0.32134 0.31249 0.72307 0.0
C1082 C 0.31242 0.33283 0.70352 0.0
C1083 C 0.2913 0.35064 0.71398 0.0
C1084 C 0.27895 0.34809 0.74391 0.0
C1085 C 0.28782 0.32782 0.76356 0.0
H1086 H 0.28445 0.36644 0.69896 0.0
H1087 H 0.37311 0.17846 0.90068 0.0
H1088 H 0.78848 0.24319 0.64579 0.0
H1089 H 0.7498 0.26852 0.67276 0.0
H1090 H 0.69212 0.20147 0.67167 0.0
H1091 H 0.73111 0.17617 0.64534 0.0
H1092 H 0.66528 0.25008 0.65195 0.0
H1093 H 0.72329 0.21388 0.736 0.0
H1094 H 0.76996 0.20511 0.76404 0.0
H1095 H 0.78414 0.287 0.77666 0.0
H1096 H 0.7378 0.29628 0.74812 0.0
H1097 H 0.55211 0.29806 0.74294 0.0
H1098 H 0.59273 0.26807 0.73181 0.0
H1099 H 0.65581 0.33017 0.74587 0.0
H1100 H 0.61509 0.35995 0.75799 0.0
H1101 H 0.68062 0.28333 0.76026 0.0
H1102 H 0.62674 0.32076 0.67497 0.0
H1103 H 0.58212 0.33205 0.64459 0.0
H1104 H 0.56268 0.25106 0.63119 0.0
H1105 H 0.60692 0.23929 0.66204 0.0
C1106 C 0.76741 0.23411 0.65124 0.0
C1107 C 0.76247 0.20793 0.64369 0.0
C1108 C 0.74547 0.24842 0.66667 0.0
C1109 C 0.71818 0.23678 0.67435 0.0
C1110 C 0.71302 0.21077 0.66598 0.0
C1111 C 0.73514 0.19637 0.65105 0.0
C1112 C 0.69506 0.25166 0.69131 0.0
C1113 C 0.66841 0.25699 0.6758 0.0
C1114 C 0.6996 0.26132 0.72207 0.0
C1115 C 0.72721 0.25578 0.73968 0.0
C1116 C 0.73648 0.23003 0.74453 0.0
C1117 C 0.76286 0.22496 0.76054 0.0
C1118 C 0.78004 0.24549 0.77208 0.0
C1119 C 0.77082 0.27112 0.76768 0.0
C1120 C 0.74449 0.2763 0.7516 0.0
C1121 C 0.57474 0.30486 0.74548 0.0
C1122 C 0.58058 0.33115 0.75172 0.0
C1123 C 0.59794 0.28784 0.73866 0.0
C1124 C 0.62728 0.29705 0.73715 0.0
C1125 C 0.63338 0.32263 0.74677 0.0
C1126 C 0.61012 0.3396 0.75398 0.0
C1127 C 0.65053 0.28145 0.72106 0.0
C1128 C 0.67731 0.27619 0.73655 0.0
C1129 C 0.64637 0.27216 0.68998 0.0
C1130 C 0.61995 0.27915 0.67111 0.0
C1131 C 0.61283 0.30536 0.66574 0.0
C1132 C 0.58761 0.31185 0.64843 0.0
C1133 C 0.56953 0.29228 0.63603 0.0
C1134 C 0.57667 0.26619 0.64086 0.0
C1135 C 0.60181 0.2596 0.65827 0.0
H1136 H 0.55002 0.29734 0.62262 0.0
H1137 H 0.80045 0.24153 0.78448 0.0
H1138 H 0.76299 0.32915 0.18138 0.0
H1139 H 0.79608 0.30099 0.21131 0.0
H1140 H 0.7662 0.23508 0.15681 0.0
H1141 H 0.73069 0.2628 0.12976 0.0
H1142 H 0.76981 0.22024 0.21199 0.0
H1143 H 0.83729 0.27056 0.14716 0.0
H1144 H 0.86051 0.31072 0.127 0.0
H1145 H 0.88777 0.33131 0.22039 0.0
H1146 H 0.86443 0.29138 0.24113 0.0
H1147 H 0.88855 0.13534 0.20202 0.0
H1148 H 0.84772 0.16556 0.20028 0.0
H1149 H 0.88803 0.2108 0.27435 0.0
H1150 H 0.93035 0.18068 0.275 0.0
H1151 H 0.87673 0.23989 0.22467 0.0
H1152 H 0.81938 0.17704 0.28136 0.0
H1153 H 0.79964 0.13316 0.29262 0.0
H1154 H 0.75564 0.13199 0.2034 0.0
H1155 H 0.77572 0.17534 0.19111 0.0
C1156 C 0.76326 0.30858 0.17624 0.0
C1157 C 0.74417 0.29808 0.15346 0.0
C1158 C 0.78253 0.29253 0.19297 0.0
C1159 C 0.78403 0.26583 0.18621 0.0
C1160 C 0.76546 0.25554 0.16273 0.0
C1161 C 0.7455 0.27143 0.14684 0.0
C1162 C 0.80445 0.2483 0.20357 0.0
C1163 C 0.79326 0.22445 0.21453 0.0
C1164 C 0.83484 0.25417 0.20818 0.0
C1165 C 0.84881 0.27818 0.19573 0.0
C1166 C 0.84806 0.28375 0.16341 0.0
C1167 C 0.86127 0.30645 0.15188 0.0
C1168 C 0.87551 0.3236 0.17242 0.0
C1169 C 0.87666 0.31804 0.20452 0.0
C1170 C 0.86347 0.29538 0.21618 0.0
C1171 C 0.88832 0.15127 0.21868 0.0
C1172 C 0.91261 0.15578 0.23855 0.0
C1173 C 0.86475 0.16849 0.21784 0.0
C1174 C 0.8645 0.19041 0.23739 0.0
C1175 C 0.8877 0.19393 0.25915 0.0
C1176 C 0.91167 0.17661 0.2598 0.0
C1177 C 0.84243 0.21113 0.23124 0.0
C1178 C 0.85319 0.2358 0.22272 0.0
C1179 C 0.81183 0.20553 0.2276 0.0
C1180 C 0.79898 0.17964 0.23545 0.0
C1181 C 0.80547 0.16745 0.26417 0.0
C1182 C 0.79427 0.14264 0.2707 0.0
C1183 C 0.77626 0.12992 0.24887 0.0
C1184 C 0.76948 0.14192 0.22038 0.0
C1185 C 0.78076 0.16662 0.21363 0.0
H1186 H 0.76764 0.11073 0.25399 0.0
H1187 H 0.88573 0.34116 0.16345 0.0
H1188 H 0.75786 0.72567 0.60268 0.0
H1189 H 0.79407 0.75409 0.62692 0.0
H1190 H 0.76285 0.73066 0.71869 0.0
H1191 H 0.72209 0.7073 0.69406 0.0
H1192 H 0.78012 0.77287 0.72762 0.0
H1193 H 0.83257 0.70557 0.67255 0.0
H1194 H 0.84652 0.67832 0.62722 0.0
H1195 H 0.8755 0.74613 0.57691 0.0
H1196 H 0.86149 0.77379 0.62179 0.0
H1197 H 0.92628 0.82246 0.78338 0.0
H1198 H 0.88589 0.79137 0.77132 0.0
H1199 H 0.86869 0.83182 0.6846 0.0
H1200 H 0.90727 0.86289 0.69664 0.0
H1201 H 0.88042 0.77556 0.68014 0.0
H1202 H 0.82318 0.84118 0.73905 0.0
H1203 H 0.81368 0.86501 0.78831 0.0
H1204 H 0.79945 0.79288 0.83685 0.0
H1205 H 0.80929 0.76864 0.78794 0.0
C1206 C 0.75791 0.72735 0.62797 0.0
C1207 C 0.73708 0.71386 0.64635 0.0
C1208 C 0.77953 0.74294 0.64202 0.0
C1209 C 0.78272 0.74358 0.6749 0.0
C1210 C 0.76154 0.73042 0.6933 0.0
C1211 C 0.73851 0.71644 0.67918 0.0
C1212 C 0.80772 0.75814 0.69002 0.0
C1213 C 0.80212 0.77277 0.71739 0.0
C1214 C 0.83687 0.7584 0.67726 0.0
C1215 C 0.84585 0.74173 0.65048 0.0
C1216 C 0.84188 0.71465 0.6518 0.0
C1217 C 0.84978 0.69915 0.62617 0.0
C1218 C 0.86185 0.71049 0.5992 0.0
C1219 C 0.86616 0.73736 0.59782 0.0
C1220 C 0.85831 0.75295 0.62336 0.0
C1221 C 0.91331 0.825 0.76224 0.0
C1222 C 0.92008 0.84506 0.74098 0.0
C1223 C 0.89053 0.80717 0.75523 0.0
C1224 C 0.87476 0.80921 0.72683 0.0
C1225 C 0.88084 0.82977 0.70642 0.0
C1226 C 0.90294 0.84757 0.71351 0.0
C1227 C 0.85233 0.78989 0.71698 0.0
C1228 C 0.85846 0.77468 0.69053 0.0
C1229 C 0.82416 0.7884 0.7311 0.0
C1230 C 0.81718 0.80312 0.75999 0.0
C1231 C 0.81815 0.83042 0.76028 0.0
C1232 C 0.81271 0.844 0.78812 0.0
C1233 C 0.80603 0.83047 0.81571 0.0
C1234 C 0.80464 0.80334 0.81548 0.0
C1235 C 0.81012 0.78968 0.78771 0.0
H1236 H 0.80189 0.841 0.83726 0.0
H1237 H 0.86789 0.69846 0.57937 0.0
H1238 H 0.7397 0.7844 0.1151 0.0
H1239 H 0.7025 0.75712 0.14054 0.0
H1240 H 0.75436 0.75756 0.22581 0.0
H1241 H 0.79348 0.78156 0.19869 0.0
H1242 H 0.73273 0.71454 0.22293 0.0
H1243 H 0.68674 0.79763 0.20998 0.0
H1244 H 0.67017 0.83637 0.18084 0.0
H1245 H 0.61464 0.78855 0.12263 0.0
H1246 H 0.63115 0.74951 0.15112 0.0
H1247 H 0.56386 0.68405 0.26486 0.0
H1248 H 0.60591 0.71463 0.26233 0.0
H1249 H 0.65663 0.65759 0.21121 0.0
H1250 H 0.61523 0.62728 0.21423 0.0
H1251 H 0.62609 0.73447 0.20925 0.0
H1252 H 0.72788 0.66502 0.21859 0.0
H1253 H 0.74389 0.6282 0.25143 0.0
H1254 H 0.687 0.65386 0.32604 0.0
H1255 H 0.6709 0.69099 0.29382 0.0
C1256 C 0.74343 0.77813 0.13901 0.0
C1257 C 0.76942 0.78529 0.15498 0.0
C1258 C 0.72179 0.76305 0.15389 0.0
C1259 C 0.72487 0.75599 0.18565 0.0
C1260 C 0.75108 0.7629 0.20146 0.0
C1261 C 0.7733 0.77699 0.18612 0.0
C1262 C 0.70123 0.74086 0.20211 0.0
C1263 C 0.70946 0.71916 0.22013 0.0
C1264 C 0.67072 0.74707 0.19939 0.0
C1265 C 0.66028 0.77063 0.18265 0.0
C1266 C 0.67105 0.79538 0.19093 0.0
C1267 C 0.66168 0.81739 0.1745 0.0
C1268 C 0.64139 0.81492 0.14989 0.0
C1269 C 0.63035 0.79044 0.14171 0.0
C1270 C 0.63966 0.76837 0.15803 0.0
C1271 C 0.58452 0.67778 0.2544 0.0
C1272 C 0.58655 0.65333 0.24 0.0
C1273 C 0.60836 0.6953 0.25261 0.0
C1274 C 0.6345 0.6884 0.23666 0.0
C1275 C 0.63701 0.66329 0.22413 0.0
C1276 C 0.61329 0.64596 0.22579 0.0
C1277 C 0.65773 0.708 0.2292 0.0
C1278 C 0.64943 0.73039 0.21268 0.0
C1279 C 0.68814 0.7029 0.23407 0.0
C1280 C 0.69809 0.68075 0.2537 0.0
C1281 C 0.71893 0.66292 0.24207 0.0
C1282 C 0.72798 0.64195 0.26056 0.0
C1283 C 0.71644 0.63868 0.29078 0.0
C1284 C 0.69586 0.65638 0.3026 0.0
C1285 C 0.68673 0.67736 0.28421 0.0
H1286 H 0.72347 0.62243 0.30505 0.0
H1287 H 0.6342 0.83197 0.13717 0.0
H1288 H 0.26046 0.7903 0.39485 0.0
H1289 H 0.29892 0.76433 0.3701 0.0
H1290 H 0.244 0.75521 0.28775 0.0
H1291 H 0.20378 0.7778 0.31473 0.0
H1292 H 0.27253 0.71466 0.29231 0.0
H1293 H 0.30601 0.8031 0.29624 0.0
H1294 H 0.31733 0.84532 0.32106 0.0
H1295 H 0.38039 0.80855 0.38187 0.0
H1296 H 0.36921 0.76611 0.35772 0.0
H1297 H 0.40986 0.66 0.22942 0.0
H1298 H 0.36682 0.68928 0.23307 0.0
H1299 H 0.38776 0.70405 0.33036 0.0
H1300 H 0.43052 0.67648 0.32659 0.0
H1301 H 0.37542 0.74784 0.30163 0.0
H1302 H 0.33181 0.65869 0.30406 0.0
H1303 H 0.31915 0.61673 0.27923 0.0
H1304 H 0.27628 0.65678 0.20346 0.0
H1305 H 0.2888 0.69895 0.22783 0.0
C1306 C 0.25632 0.78217 0.37182 0.0
C1307 C 0.22931 0.78656 0.35647 0.0
C1308 C 0.27862 0.76784 0.35727 0.0
C1309 C 0.27514 0.75887 0.32626 0.0
C1310 C 0.24766 0.76236 0.31137 0.0
C1311 C 0.22481 0.77569 0.32657 0.0
C1312 C 0.30016 0.74586 0.30969 0.0
C1313 C 0.29494 0.72225 0.29391 0.0
C1314 C 0.32952 0.75574 0.31108 0.0
C1315 C 0.33672 0.78141 0.32515 0.0
C1316 C 0.32226 0.80403 0.31492 0.0
C1317 C 0.32863 0.82799 0.32891 0.0
C1318 C 0.34956 0.82961 0.35302 0.0
C1319 C 0.36422 0.80728 0.36316 0.0
C1320 C 0.35792 0.78328 0.34928 0.0
C1321 C 0.40549 0.66994 0.25129 0.0
C1322 C 0.42391 0.66604 0.27752 0.0
C1323 C 0.38074 0.68643 0.25348 0.0
C1324 C 0.37403 0.69888 0.28206 0.0
C1325 C 0.39255 0.69496 0.30797 0.0
C1326 C 0.41713 0.679 0.30571 0.0
C1327 C 0.34792 0.71601 0.28639 0.0
C1328 C 0.35286 0.74066 0.29948 0.0
C1329 C 0.31846 0.7072 0.28229 0.0
C1330 C 0.31147 0.68189 0.26757 0.0
C1331 C 0.31987 0.65851 0.282 0.0
C1332 C 0.31266 0.63471 0.26806 0.0
C1333 C 0.29691 0.63409 0.23982 0.0
C1334 C 0.28844 0.65728 0.22536 0.0
C1335 C 0.29556 0.68112 0.23923 0.0
H1336 H 0.2912 0.61564 0.22921 0.0
H1337 H 0.35442 0.84817 0.36384 0.0
H1338 H 0.22018 0.68196 0.86644 0.0
H1339 H 0.18437 0.70909 0.83787 0.0
H1340 H 0.25448 0.76325 0.81501 0.0
H1341 H 0.28987 0.73622 0.84426 0.0
H1342 H 0.20549 0.78802 0.83386 0.0
H1343 H 0.22754 0.71859 0.76122 0.0
H1344 H 0.23162 0.67249 0.74613 0.0
H1345 H 0.13846 0.66173 0.76245 0.0
H1346 H 0.13391 0.70768 0.77816 0.0
H1347 H 0.122 0.86609 0.73989 0.0
H1348 H 0.16114 0.83385 0.74705 0.0
H1349 H 0.09506 0.77567 0.7685 0.0
H1350 H 0.05598 0.80761 0.75963 0.0
H1351 H 0.14371 0.75243 0.7474 0.0
H1352 H 0.12097 0.8167 0.8254 0.0
H1353 H 0.11366 0.86124 0.84522 0.0
H1354 H 0.20445 0.87976 0.82437 0.0
H1355 H 0.21215 0.83541 0.80393 0.0
C1356 C 0.22761 0.69977 0.85537 0.0
C1357 C 0.2574 0.7073 0.85732 0.0
C1358 C 0.20737 0.71512 0.83892 0.0
C1359 C 0.21685 0.738 0.82384 0.0
C1360 C 0.24669 0.74565 0.82633 0.0
C1361 C 0.26683 0.73035 0.84294 0.0
C1362 C 0.19565 0.75424 0.80587 0.0
C1363 C 0.19244 0.78035 0.81455 0.0
C1364 C 0.17785 0.744 0.78136 0.0
C1365 C 0.18042 0.71656 0.77102 0.0
C1366 C 0.20794 0.70638 0.7617 0.0
C1367 C 0.21034 0.68026 0.75306 0.0
C1368 C 0.18532 0.66418 0.75336 0.0
C1369 C 0.15782 0.67421 0.76222 0.0
C1370 C 0.15532 0.70029 0.77096 0.0
C1371 C 0.11588 0.84602 0.74417 0.0
C1372 C 0.08614 0.8392 0.74916 0.0
C1373 C 0.13822 0.82767 0.7487 0.0
C1374 C 0.13107 0.80259 0.75951 0.0
C1375 C 0.10117 0.79493 0.76048 0.0
C1376 C 0.0788 0.81316 0.75519 0.0
C1377 C 0.15393 0.78631 0.77511 0.0
C1378 C 0.15721 0.76019 0.76629 0.0
C1379 C 0.17144 0.79632 0.80003 0.0
C1380 C 0.16704 0.82285 0.81283 0.0
C1381 C 0.13933 0.83032 0.8249 0.0
C1382 C 0.13511 0.85553 0.83623 0.0
C1383 C 0.15855 0.87334 0.83598 0.0
C1384 C 0.18629 0.86595 0.82449 0.0
C1385 C 0.1906 0.84079 0.81302 0.0
H1386 H 0.15525 0.89286 0.84476 0.0
H1387 H 0.18723 0.64397 0.74669 0.0
loop_
_geom_bond_atom_site_label_1
_geom_bond_atom_site_label_2
_geom_bond_distance
_geom_bond_site_symmetry_2
_ccdc_geom_bond_type
C0 N1 1.317 . S
C0 N2 1.348 . S
C0 C3 1.485 . S
N1 C0 1.317 . S
N1 N5 1.370 . S
N2 C0 1.348 . S
N2 C4 1.346 . S
C3 C0 1.485 . S
C3 H7 0.960 . S
C3 H8 0.961 . S
C3 H9 0.960 . S
C4 N2 1.346 . S
C4 N5 1.307 . S
C4 C6 1.486 . S
N5 N1 1.370 . S
N5 C4 1.307 . S
C6 C4 1.486 . S
C6 H10 0.960 . S
C6 H11 0.960 . S
C6 H12 0.959 . S
H7 C3 0.960 . S
H8 C3 0.961 . S
H9 C3 0.960 . S
H10 C6 0.960 . S
H11 C6 0.960 . S
H12 C6 0.959 . S
C13 N14 1.317 . S
C13 N15 1.348 . S
C13 C16 1.485 . S
N14 C13 1.317 . S
N14 N18 1.370 . S
N15 C13 1.348 . S
N15 C17 1.346 . S
C16 C13 1.485 . S
C16 H20 0.960 . S
C16 H21 0.961 . S
C16 H22 0.960 . S
C17 N15 1.346 . S
C17 N18 1.307 . S
C17 C19 1.486 . S
N18 N14 1.370 . S
N18 C17 1.307 . S
C19 C17 1.486 . S
C19 H23 0.960 . S
C19 H24 0.960 . S
C19 H25 0.959 . S
H20 C16 0.960 . S
H21 C16 0.961 . S
H22 C16 0.960 . S
H23 C19 0.960 . S
H24 C19 0.960 . S
H25 C19 0.959 . S
C26 N27 1.317 . S
C26 N28 1.348 . S
C26 C29 1.485 . S
N27 C26 1.317 . S
N27 N31 1.370 . S
N28 C26 1.348 . S
N28 C30 1.346 . S
C29 C26 1.485 . S
C29 H33 0.960 . S
C29 H34 0.961 . S
C29 H35 0.960 . S
C30 N28 1.346 . S
C30 N31 1.307 . S
C30 C32 1.486 . S
N31 N27 1.370 . S
N31 C30 1.307 . S
C32 C30 1.486 . S
C32 H36 0.960 . S
C32 H37 0.960 . S
C32 H38 0.959 . S
H33 C29 0.960 . S
H34 C29 0.961 . S
H35 C29 0.960 . S
H36 C32 0.960 . S
H37 C32 0.960 . S
H38 C32 0.959 . S
C39 N40 1.317 . S
C39 N41 1.348 . S
C39 C42 1.485 . S
N40 C39 1.317 . S
N40 N44 1.370 . S
N41 C39 1.348 . S
N41 C43 1.346 . S
C42 C39 1.485 . S
C42 H46 0.960 . S
C42 H47 0.961 . S
C42 H48 0.960 . S
C43 N41 1.346 . S
C43 N44 1.307 . S
C43 C45 1.486 . S
N44 N40 1.370 . S
N44 C43 1.307 . S
C45 C43 1.486 . S
C45 H49 0.960 . S
C45 H50 0.960 . S
C45 H51 0.959 . S
H46 C42 0.960 . S
H47 C42 0.961 . S
H48 C42 0.960 . S
H49 C45 0.960 . S
H50 C45 0.960 . S
H51 C45 0.959 . S
C52 N53 1.317 . S
C52 N54 1.348 . S
C52 C55 1.485 . S
N53 C52 1.317 . S
N53 N57 1.370 . S
N54 C52 1.348 . S
N54 C56 1.346 . S
C55 C52 1.485 . S
C55 H59 0.960 . S
C55 H60 0.961 . S
C55 H61 0.960 . S
C56 N54 1.346 . S
C56 N57 1.307 . S
C56 C58 1.486 . S
N57 N53 1.370 . S
N57 C56 1.307 . S
C58 C56 1.486 . S
C58 H62 0.960 . S
C58 H63 0.960 . S
C58 H64 0.959 . S
H59 C55 0.960 . S
H60 C55 0.961 . S
H61 C55 0.960 . S
H62 C58 0.960 . S
H63 C58 0.960 . S
H64 C58 0.959 . S
C65 N66 1.317 . S
C65 N67 1.348 . S
C65 C68 1.485 . S
N66 C65 1.317 . S
N66 N70 1.370 . S
N67 C65 1.348 . S
N67 C69 1.346 . S
C68 C65 1.485 . S
C68 H72 0.960 . S
C68 H73 0.961 . S
C68 H74 0.960 . S
C69 N67 1.346 . S
C69 N70 1.307 . S
C69 C71 1.486 . S
N70 N66 1.370 . S
N70 C69 1.307 . S
C71 C69 1.486 . S
C71 H75 0.960 . S
C71 H76 0.960 . S
C71 H77 0.959 . S
H72 C68 0.960 . S
H73 C68 0.961 . S
H74 C68 0.960 . S
H75 C71 0.960 . S
H76 C71 0.960 . S
H77 C71 0.959 . S
C78 N79 1.317 . S
C78 N80 1.348 . S
C78 C81 1.485 . S
N79 C78 1.317 . S
N79 N83 1.370 . S
N80 C78 1.348 . S
N80 C82 1.346 . S
C81 C78 1.485 . S
C81 H85 0.960 . S
C81 H86 0.961 . S
C81 H87 0.960 . S
C82 N80 1.346 . S
C82 N83 1.307 . S
C82 C84 1.486 . S
N83 N79 1.370 . S
N83 C82 1.307 . S
C84 C82 1.486 . S
C84 H88 0.960 . S
C84 H89 0.960 . S
C84 H90 0.959 . S
H85 C81 0.960 . S
H86 C81 0.961 . S
H87 C81 0.960 . S
H88 C84 0.960 . S
H89 C84 0.960 . S
H90 C84 0.959 . S
C91 N92 1.317 . S
C91 N93 1.348 . S
C91 C94 1.485 . S
N92 C91 1.317 . S
N92 N96 1.370 . S
N93 C91 1.348 . S
N93 C95 1.346 . S
C94 C91 1.485 . S
C94 H98 0.960 . S
C94 H99 0.961 . S
C94 H100 0.960 . S
C95 N93 1.346 . S
C95 N96 1.307 . S
C95 C97 1.486 . S
N96 N92 1.370 . S
N96 C95 1.307 . S
C97 C95 1.486 . S
C97 H101 0.960 . S
C97 H102 0.960 . S
C97 H103 0.959 . S
H98 C94 0.960 . S
H99 C94 0.961 . S
H100 C94 0.960 . S
H101 C97 0.960 . S
H102 C97 0.960 . S
H103 C97 0.959 . S
Zn104 O110 1.920 1_455 S
Zn104 O116 1.898 . S
Zn104 O119 1.905 . S
Zn105 O113 1.905 1_655 S
Zn105 O114 1.898 . S
Zn105 O122 1.920 . S
Zn106 O109 2.080 1_455 S
Zn106 O112 2.114 . S
Zn106 O115 2.120 1_455 S
Zn106 O117 2.120 . S
Zn106 O118 2.114 . S
Zn106 O121 2.080 1_455 S
C107 O112 1.166 . S
C107 O113 1.182 . S
C108 O114 1.167 . S
C108 O115 1.299 . S
O109 Zn106 2.080 1_655 S
O109 C123 1.305 . S
O110 Zn104 1.920 1_655 S
O110 C123 1.234 . S
C111 O116 1.167 . S
C111 O117 1.299 . S
O112 Zn106 2.114 . S
O112 C107 1.166 . S
O113 Zn105 1.905 1_455 S
O113 C107 1.182 . S
O114 Zn105 1.898 . S
O114 C108 1.167 . S
O115 Zn106 2.120 1_655 S
O115 C108 1.299 . S
O116 Zn104 1.898 . S
O116 C111 1.167 . S
O117 Zn106 2.120 . S
O117 C111 1.299 . S
O118 Zn106 2.114 . S
O118 C120 1.166 . S
O119 Zn104 1.905 . S
O119 C120 1.182 . S
C120 O118 1.166 . S
C120 O119 1.182 . S
O121 Zn106 2.080 1_655 S
O121 C124 1.305 . S
O122 Zn105 1.920 . S
O122 C124 1.234 . S
C123 O109 1.305 . S
C123 O110 1.234 . S
C124 O121 1.305 . S
C124 O122 1.234 . S
Zn125 O131 1.920 . S
Zn125 O137 1.898 . S
Zn125 O140 1.905 . S
Zn126 O134 1.905 . S
Zn126 O135 1.898 . S
Zn126 O143 1.920 . S
Zn127 O130 2.080 . S
Zn127 O133 2.114 . S
Zn127 O136 2.120 . S
Zn127 O138 2.120 . S
Zn127 O139 2.114 . S
Zn127 O142 2.080 . S
C128 O133 1.166 . S
C128 O134 1.182 . S
C129 O135 1.167 . S
C129 O136 1.299 . S
O130 Zn127 2.080 . S
O130 C144 1.305 . S
O131 Zn125 1.920 . S
O131 C144 1.234 . S
C132 O137 1.167 . S
C132 O138 1.299 . S
O133 Zn127 2.114 . S
O133 C128 1.166 . S
O134 Zn126 1.905 . S
O134 C128 1.182 . S
O135 Zn126 1.898 . S
O135 C129 1.167 . S
O136 Zn127 2.120 . S
O136 C129 1.299 . S
O137 Zn125 1.898 . S
O137 C132 1.167 . S
O138 Zn127 2.120 . S
O138 C132 1.299 . S
O139 Zn127 2.114 . S
O139 C141 1.166 . S
O140 Zn125 1.905 . S
O140 C141 1.182 . S
C141 O139 1.166 . S
C141 O140 1.182 . S
O142 Zn127 2.080 . S
O142 C145 1.305 . S
O143 Zn126 1.920 . S
O143 C145 1.234 . S
C144 O130 1.305 . S
C144 O131 1.234 . S
C145 O142 1.305 . S
C145 O143 1.234 . S
Zn146 O152 1.920 . S
Zn146 O158 1.898 . S
Zn146 O161 1.905 1_455 S
Zn147 O155 1.905 . S
Zn147 O156 1.898 . S
Zn147 O164 1.920 1_655 S
Zn148 O151 2.080 . S
Zn148 O154 2.114 1_455 S
Zn148 O157 2.120 1_455 S
Zn148 O159 2.120 . S
Zn148 O160 2.114 1_455 S
Zn148 O163 2.080 . S
C149 O154 1.166 . S
C149 O155 1.182 . S
C150 O156 1.167 . S
C150 O157 1.299 . S
O151 Zn148 2.080 . S
O151 C165 1.305 . S
O152 Zn146 1.920 . S
O152 C165 1.234 . S
C153 O158 1.167 . S
C153 O159 1.299 . S
O154 Zn148 2.114 1_655 S
O154 C149 1.166 . S
O155 Zn147 1.905 . S
O155 C149 1.182 . S
O156 Zn147 1.898 . S
O156 C150 1.167 . S
O157 Zn148 2.120 1_655 S
O157 C150 1.299 . S
O158 Zn146 1.898 . S
O158 C153 1.167 . S
O159 Zn148 2.120 . S
O159 C153 1.299 . S
O160 Zn148 2.114 1_655 S
O160 C162 1.166 . S
O161 Zn146 1.905 1_655 S
O161 C162 1.182 . S
C162 O160 1.166 . S
C162 O161 1.182 . S
O163 Zn148 2.080 . S
O163 C166 1.305 . S
O164 Zn147 1.920 1_455 S
O164 C166 1.234 . S
C165 O151 1.305 . S
C165 O152 1.234 . S
C166 O163 1.305 . S
C166 O164 1.234 . S
Zn167 O173 1.920 . S
Zn167 O179 1.898 . S
Zn167 O182 1.905 . S
Zn168 O176 1.905 . S
Zn168 O177 1.898 . S
Zn168 O185 1.920 . S
Zn169 O172 2.080 . S
Zn169 O175 2.114 . S
Zn169 O178 2.120 . S
Zn169 O180 2.120 . S
Zn169 O181 2.114 . S
Zn169 O184 2.080 . S
C170 O175 1.166 . S
C170 O176 1.182 . S
C171 O177 1.167 . S
C171 O178 1.299 . S
O172 Zn169 2.080 . S
O172 C186 1.305 . S
O173 Zn167 1.920 . S
O173 C186 1.234 . S
C174 O179 1.167 . S
C174 O180 1.299 . S
O175 Zn169 2.114 . S
O175 C170 1.166 . S
O176 Zn168 1.905 . S
O176 C170 1.182 . S
O177 Zn168 1.898 . S
O177 C171 1.167 . S
O178 Zn169 2.120 . S
O178 C171 1.299 . S
O179 Zn167 1.898 . S
O179 C174 1.167 . S
O180 Zn169 2.120 . S
O180 C174 1.299 . S
O181 Zn169 2.114 . S
O181 C183 1.166 . S
O182 Zn167 1.905 . S
O182 C183 1.182 . S
C183 O181 1.166 . S
C183 O182 1.182 . S
O184 Zn169 2.080 . S
O184 C187 1.305 . S
O185 Zn168 1.920 . S
O185 C187 1.234 . S
C186 O172 1.305 . S
C186 O173 1.234 . S
C187 O184 1.305 . S
C187 O185 1.234 . S
H188 C206 0.951 . S
H189 C208 0.951 . S
H190 C210 0.950 . S
H191 C211 0.950 . S
H192 C213 0.950 . S
H193 C216 0.950 . S
H194 C217 0.950 . S
H195 C219 0.950 . S
H196 C220 0.950 . S
H197 C221 0.951 . S
H198 C223 0.951 . S
H199 C225 0.950 . S
H200 C226 0.950 . S
H201 C228 0.950 . S
H202 C231 0.950 . S
H203 C232 0.950 . S
H204 C234 0.950 . S
H205 C235 0.950 . S
C206 H188 0.951 . S
C206 C207 1.366 . S
C206 C208 1.388 . S
C207 C206 1.366 . S
C207 C211 1.385 . S
C208 H189 0.951 . S
C208 C206 1.388 . S
C208 C209 1.366 . S
C209 C208 1.366 . S
C209 C210 1.414 . S
C209 C212 1.499 . S
C210 H190 0.950 . S
C210 C209 1.414 . S
C210 C211 1.374 . S
C211 H191 0.950 . S
C211 C207 1.385 . S
C211 C210 1.374 . S
C212 C209 1.499 . S
C212 C213 1.373 . S
C212 C214 1.389 . S
C213 H192 0.950 . S
C213 C212 1.373 . S
C213 C229 1.377 . S
C214 C212 1.389 . S
C214 C215 1.524 . S
C214 C228 1.377 . S
C215 C214 1.524 . S
C215 C216 1.397 . S
C215 C220 1.363 . S
C216 H193 0.950 . S
C216 C215 1.397 . S
C216 C217 1.334 . S
C217 H194 0.950 . S
C217 C216 1.334 . S
C217 C218 1.287 . S
C218 C217 1.287 . S
C218 C219 1.524 . S
C218 H237 0.913 . S
C219 H195 0.950 . S
C219 C218 1.524 . S
C219 C220 1.415 . S
C220 H196 0.950 . S
C220 C215 1.363 . S
C220 C219 1.415 . S
C221 H197 0.951 . S
C221 C222 1.366 . S
C221 C223 1.388 . S
C222 C221 1.366 . S
C222 C226 1.385 . S
C223 H198 0.951 . S
C223 C221 1.388 . S
C223 C224 1.366 . S
C224 C223 1.366 . S
C224 C225 1.414 . S
C224 C227 1.499 1_545 S
C225 H199 0.950 . S
C225 C224 1.414 . S
C225 C226 1.374 . S
C226 H200 0.950 . S
C226 C222 1.385 . S
C226 C225 1.374 . S
C227 C224 1.499 1_565 S
C227 C228 1.373 . S
C227 C229 1.389 . S
C228 H201 0.950 . S
C228 C214 1.377 . S
C228 C227 1.373 . S
C229 C213 1.377 . S
C229 C227 1.389 . S
C229 C230 1.540 . S
C230 C229 1.540 . S
C230 C231 1.380 1_565 S
C230 C235 1.365 . S
C231 H202 0.950 . S
C231 C230 1.380 1_545 S
C231 C232 1.334 . S
C232 H203 0.950 . S
C232 C231 1.334 . S
C232 C233 1.287 . S
C233 C232 1.287 . S
C233 C234 1.524 . S
C233 H236 0.999 . S
C234 H204 0.950 . S
C234 C233 1.524 . S
C234 C235 1.415 1_545 S
C235 H205 0.950 . S
C235 C230 1.365 . S
C235 C234 1.415 1_565 S
H236 C233 0.999 . S
H237 C218 0.913 . S
H238 C256 0.951 . S
H239 C258 0.951 . S
H240 C260 0.950 . S
H241 C261 0.950 . S
H242 C263 0.950 . S
H243 C266 0.950 . S
H244 C267 0.950 . S
H245 C269 0.950 . S
H246 C270 0.950 . S
H247 C271 0.951 . S
H248 C273 0.951 . S
H249 C275 0.950 . S
H250 C276 0.950 . S
H251 C278 0.950 . S
H252 C281 0.950 . S
H253 C282 0.950 . S
H254 C284 0.950 . S
H255 C285 0.950 . S
C256 H238 0.951 . S
C256 C257 1.366 . S
C256 C258 1.388 . S
C257 C256 1.366 . S
C257 C261 1.385 . S
C258 H239 0.951 . S
C258 C256 1.388 . S
C258 C259 1.366 . S
C259 C258 1.366 . S
C259 C260 1.414 . S
C259 C262 1.499 . S
C260 H240 0.950 . S
C260 C259 1.414 . S
C260 C261 1.374 . S
C261 H241 0.950 . S
C261 C257 1.385 . S
C261 C260 1.374 . S
C262 C259 1.499 . S
C262 C263 1.373 . S
C262 C264 1.389 . S
C263 H242 0.950 . S
C263 C262 1.373 . S
C263 C279 1.377 . S
C264 C262 1.389 . S
C264 C265 1.524 . S
C264 C278 1.377 . S
C265 C264 1.524 . S
C265 C266 1.397 . S
C265 C270 1.363 . S
C266 H243 0.950 . S
C266 C265 1.397 . S
C266 C267 1.334 . S
C267 H244 0.950 . S
C267 C266 1.334 . S
C267 C268 1.287 . S
C268 C267 1.287 . S
C268 C269 1.524 . S
C268 H287 0.913 . S
C269 H245 0.950 . S
C269 C268 1.524 . S
C269 C270 1.415 . S
C270 H246 0.950 . S
C270 C265 1.363 . S
C270 C269 1.415 . S
C271 H247 0.951 . S
C271 C272 1.366 . S
C271 C273 1.388 . S
C272 C271 1.366 . S
C272 C276 1.385 . S
C273 H248 0.951 . S
C273 C271 1.388 . S
C273 C274 1.366 . S
C274 C273 1.366 . S
C274 C275 1.414 . S
C274 C277 1.499 . S
C275 H249 0.950 . S
C275 C274 1.414 . S
C275 C276 1.374 . S
C276 H250 0.950 . S
C276 C272 1.385 . S
C276 C275 1.374 . S
C277 C274 1.499 . S
C277 C278 1.373 . S
C277 C279 1.389 . S
C278 H251 0.950 . S
C278 C264 1.377 . S
C278 C277 1.373 . S
C279 C263 1.377 . S
C279 C277 1.389 . S
C279 C280 1.524 . S
C280 C279 1.524 . S
C280 C281 1.397 . S
C280 C285 1.363 . S
C281 H252 0.950 . S
C281 C280 1.397 . S
C281 C282 1.334 . S
C282 H253 0.950 . S
C282 C281 1.334 . S
C282 C283 1.287 . S
C283 C282 1.287 . S
C283 C284 1.524 . S
C283 H286 0.999 . S
C284 H254 0.950 . S
C284 C283 1.524 . S
C284 C285 1.415 . S
C285 H255 0.950 . S
C285 C280 1.363 . S
C285 C284 1.415 . S
H286 C283 0.999 . S
H287 C268 0.913 . S
H288 C306 0.951 . S
H289 C308 0.951 . S
H290 C310 0.950 . S
H291 C311 0.950 . S
H292 C313 0.950 . S
H293 C316 0.950 . S
H294 C317 0.950 . S
H295 C319 0.950 . S
H296 C320 0.950 . S
H297 C321 0.951 . S
H298 C323 0.951 . S
H299 C325 0.950 . S
H300 C326 0.950 . S
H301 C328 0.950 . S
H302 C331 0.950 . S
H303 C332 0.950 . S
H304 C334 0.950 . S
H305 C335 0.950 . S
C306 H288 0.951 . S
C306 C307 1.366 . S
C306 C308 1.388 . S
C307 C306 1.366 . S
C307 C311 1.385 . S
C308 H289 0.951 . S
C308 C306 1.388 . S
C308 C309 1.366 . S
C309 C308 1.366 . S
C309 C310 1.414 . S
C309 C312 1.499 . S
C310 H290 0.950 . S
C310 C309 1.414 . S
C310 C311 1.374 . S
C311 H291 0.950 . S
C311 C307 1.385 . S
C311 C310 1.374 . S
C312 C309 1.499 . S
C312 C313 1.373 . S
C312 C314 1.389 . S
C313 H292 0.950 . S
C313 C312 1.373 . S
C313 C329 1.377 . S
C314 C312 1.389 . S
C314 C315 1.524 . S
C314 C328 1.377 . S
C315 C314 1.524 . S
C315 C316 1.397 . S
C315 C320 1.363 . S
C316 H293 0.950 . S
C316 C315 1.397 . S
C316 C317 1.334 . S
C317 H294 0.950 . S
C317 C316 1.334 . S
C317 C318 1.287 . S
C318 C317 1.287 . S
C318 C319 1.524 . S
C318 H337 0.913 . S
C319 H295 0.950 . S
C319 C318 1.524 . S
C319 C320 1.415 . S
C320 H296 0.950 . S
C320 C315 1.363 . S
C320 C319 1.415 . S
C321 H297 0.951 . S
C321 C322 1.366 . S
C321 C323 1.388 . S
C322 C321 1.366 . S
C322 C326 1.385 . S
C323 H298 0.951 . S
C323 C321 1.388 . S
C323 C324 1.366 . S
C324 C323 1.366 . S
C324 C325 1.414 . S
C324 C327 1.499 . S
C325 H299 0.950 . S
C325 C324 1.414 . S
C325 C326 1.374 . S
C326 H300 0.950 . S
C326 C322 1.385 . S
C326 C325 1.374 . S
C327 C324 1.499 . S
C327 C328 1.373 . S
C327 C329 1.389 . S
C328 H301 0.950 . S
C328 C314 1.377 . S
C328 C327 1.373 . S
C329 C313 1.377 . S
C329 C327 1.389 . S
C329 C330 1.524 . S
C330 C329 1.524 . S
C330 C331 1.397 . S
C330 C335 1.363 . S
C331 H302 0.950 . S
C331 C330 1.397 . S
C331 C332 1.334 . S
C332 H303 0.950 . S
C332 C331 1.334 . S
C332 C333 1.287 . S
C333 C332 1.287 . S
C333 C334 1.524 . S
C333 H336 0.999 . S
C334 H304 0.950 . S
C334 C333 1.524 . S
C334 C335 1.415 . S
C335 H305 0.950 . S
C335 C330 1.363 . S
C335 C334 1.415 . S
H336 C333 0.999 . S
H337 C318 0.913 . S
H338 C356 0.951 . S
H339 C358 0.951 . S
H340 C360 0.950 . S
H341 C361 0.950 . S
H342 C363 0.950 . S
H343 C366 0.950 . S
H344 C367 0.950 . S
H345 C369 0.950 . S
H346 C370 0.950 . S
H347 C371 0.951 . S
H348 C373 0.951 . S
H349 C375 0.950 . S
H350 C376 0.950 . S
H351 C378 0.950 . S
H352 C381 0.950 . S
H353 C382 0.950 . S
H354 C384 0.950 . S
H355 C385 0.950 . S
C356 H338 0.951 . S
C356 C357 1.366 . S
C356 C358 1.388 . S
C357 C356 1.366 . S
C357 C361 1.385 . S
C358 H339 0.951 . S
C358 C356 1.388 . S
C358 C359 1.366 . S
C359 C358 1.366 . S
C359 C360 1.414 . S
C359 C362 1.499 . S
C360 H340 0.950 . S
C360 C359 1.414 . S
C360 C361 1.374 . S
C361 H341 0.950 . S
C361 C357 1.385 . S
C361 C360 1.374 . S
C362 C359 1.499 . S
C362 C363 1.373 . S
C362 C364 1.389 . S
C363 H342 0.950 . S
C363 C362 1.373 . S
C363 C379 1.377 . S
C364 C362 1.389 . S
C364 C365 1.524 . S
C364 C378 1.377 . S
C365 C364 1.524 . S
C365 C366 1.397 . S
C365 C370 1.363 . S
C366 H343 0.950 . S
C366 C365 1.397 . S
C366 C367 1.334 . S
C367 H344 0.950 . S
C367 C366 1.334 . S
C367 C368 1.287 . S
C368 C367 1.287 . S
C368 C369 1.524 . S
C368 H387 0.913 . S
C369 H345 0.950 . S
C369 C368 1.524 . S
C369 C370 1.415 . S
C370 H346 0.950 . S
C370 C365 1.363 . S
C370 C369 1.415 . S
C371 H347 0.951 . S
C371 C372 1.366 . S
C371 C373 1.388 1_545 S
C372 C371 1.366 . S
C372 C376 1.385 . S
C373 H348 0.951 . S
C373 C371 1.388 1_565 S
C373 C374 1.366 1_565 S
C374 C373 1.366 1_545 S
C374 C375 1.412 . S
C374 C377 1.501 1_545 S
C375 H349 0.950 . S
C375 C374 1.412 . S
C375 C376 1.374 . S
C376 H350 0.950 . S
C376 C372 1.385 . S
C376 C375 1.374 . S
C377 C374 1.501 1_565 S
C377 C378 1.373 . S
C377 C379 1.389 . S
C378 H351 0.950 . S
C378 C364 1.377 . S
C378 C377 1.373 . S
C379 C363 1.377 . S
C379 C377 1.389 . S
C379 C380 1.524 . S
C380 C379 1.524 . S
C380 C381 1.397 . S
C380 C385 1.363 . S
C381 H352 0.950 . S
C381 C380 1.397 . S
C381 C382 1.334 . S
C382 H353 0.950 . S
C382 C381 1.334 . S
C382 C383 1.287 . S
C383 C382 1.287 . S
C383 C384 1.524 . S
C383 H386 0.999 . S
C384 H354 0.950 . S
C384 C383 1.524 . S
C384 C385 1.415 . S
C385 H355 0.950 . S
C385 C380 1.363 . S
C385 C384 1.415 . S
H386 C383 0.999 . S
H387 C368 0.913 . S
H388 C406 0.951 . S
H389 C408 0.951 . S
H390 C410 0.950 . S
H391 C411 0.950 . S
H392 C413 0.950 . S
H393 C416 0.950 . S
H394 C417 0.950 . S
H395 C419 0.950 . S
H396 C420 0.950 . S
H397 C421 0.951 . S
H398 C423 0.951 . S
H399 C425 0.950 1_545 S
H400 C426 0.950 . S
H401 C428 0.950 . S
H402 C431 0.950 . S
H403 C432 0.950 . S
H404 C434 0.950 1_565 S
H405 C435 0.950 . S
C406 H388 0.951 . S
C406 C407 1.366 . S
C406 C408 1.388 . S
C407 C406 1.366 . S
C407 C411 1.385 . S
C408 H389 0.951 . S
C408 C406 1.388 . S
C408 C409 1.366 . S
C409 C408 1.366 . S
C409 C410 1.414 . S
C409 C412 1.499 . S
C410 H390 0.950 . S
C410 C409 1.414 . S
C410 C411 1.374 . S
C411 H391 0.950 . S
C411 C407 1.385 . S
C411 C410 1.374 . S
C412 C409 1.499 . S
C412 C413 1.373 . S
C412 C414 1.389 . S
C413 H392 0.950 . S
C413 C412 1.373 . S
C413 C429 1.377 . S
C414 C412 1.389 . S
C414 C415 1.524 . S
C414 C428 1.377 . S
C415 C414 1.524 . S
C415 C416 1.397 . S
C415 C420 1.363 . S
C416 H393 0.950 . S
C416 C415 1.397 . S
C416 C417 1.334 . S
C417 H394 0.950 . S
C417 C416 1.334 . S
C417 C418 1.287 . S
C418 C417 1.287 . S
C418 C419 1.524 . S
C418 H437 0.913 . S
C419 H395 0.950 . S
C419 C418 1.524 . S
C419 C420 1.415 . S
C420 H396 0.950 . S
C420 C415 1.363 . S
C420 C419 1.415 . S
C421 H397 0.951 . S
C421 C422 1.366 . S
C421 C423 1.388 . S
C422 C421 1.366 . S
C422 C426 1.385 . S
C423 H398 0.951 . S
C423 C421 1.388 . S
C423 C424 1.366 . S
C424 C423 1.366 . S
C424 C425 1.414 . S
C424 C427 1.499 1_565 S
C425 H399 0.950 1_565 S
C425 C424 1.414 . S
C425 C426 1.374 . S
C426 H400 0.950 . S
C426 C422 1.385 . S
C426 C425 1.374 . S
C427 C424 1.499 1_545 S
C427 C428 1.373 . S
C427 C429 1.389 . S
C428 H401 0.950 . S
C428 C414 1.377 . S
C428 C427 1.373 . S
C429 C413 1.377 . S
C429 C427 1.389 . S
C429 C430 1.524 . S
C430 C429 1.524 . S
C430 C431 1.397 . S
C430 C435 1.363 . S
C431 H402 0.950 . S
C431 C430 1.397 . S
C431 C432 1.334 . S
C432 H403 0.950 . S
C432 C431 1.334 . S
C432 C433 1.287 . S
C433 C432 1.287 . S
C433 C434 1.524 . S
C433 H436 0.999 1_545 S
C434 H404 0.950 1_545 S
C434 C433 1.524 . S
C434 C435 1.415 . S
C435 H405 0.950 . S
C435 C430 1.363 . S
C435 C434 1.415 . S
H436 C433 0.999 1_565 S
H437 C418 0.913 . S
H438 C456 0.951 . S
H439 C458 0.951 . S
H440 C460 0.950 . S
H441 C461 0.950 . S
H442 C463 0.950 . S
H443 C466 0.950 . S
H444 C467 0.950 . S
H445 C469 0.950 . S
H446 C470 0.950 . S
H447 C471 0.951 . S
H448 C473 0.951 . S
H449 C475 0.950 . S
H450 C476 0.950 . S
H451 C478 0.950 . S
H452 C481 0.950 . S
H453 C482 0.950 . S
H454 C484 0.950 . S
H455 C485 0.950 . S
C456 H438 0.951 . S
C456 C457 1.366 . S
C456 C458 1.388 . S
C457 C456 1.366 . S
C457 C461 1.385 . S
C458 H439 0.951 . S
C458 C456 1.388 . S
C458 C459 1.366 . S
C459 C458 1.366 . S
C459 C460 1.414 . S
C459 C462 1.499 . S
C460 H440 0.950 . S
C460 C459 1.414 . S
C460 C461 1.374 . S
C461 H441 0.950 . S
C461 C457 1.385 . S
C461 C460 1.374 . S
C462 C459 1.499 . S
C462 C463 1.373 . S
C462 C464 1.389 . S
C463 H442 0.950 . S
C463 C462 1.373 . S
C463 C479 1.377 . S
C464 C462 1.389 . S
C464 C465 1.524 . S
C464 C478 1.377 . S
C465 C464 1.524 . S
C465 C466 1.397 . S
C465 C470 1.363 . S
C466 H443 0.950 . S
C466 C465 1.397 . S
C466 C467 1.334 . S
C467 H444 0.950 . S
C467 C466 1.334 . S
C467 C468 1.287 . S
C468 C467 1.287 . S
C468 C469 1.524 . S
C468 H487 0.913 . S
C469 H445 0.950 . S
C469 C468 1.524 . S
C469 C470 1.415 . S
C470 H446 0.950 . S
C470 C465 1.363 . S
C470 C469 1.415 . S
C471 H447 0.951 . S
C471 C472 1.366 . S
C471 C473 1.388 . S
C472 C471 1.366 . S
C472 C476 1.385 . S
C473 H448 0.951 . S
C473 C471 1.388 . S
C473 C474 1.366 . S
C474 C473 1.366 . S
C474 C475 1.414 . S
C474 C477 1.499 . S
C475 H449 0.950 . S
C475 C474 1.414 . S
C475 C476 1.374 . S
C476 H450 0.950 . S
C476 C472 1.385 . S
C476 C475 1.374 . S
C477 C474 1.499 . S
C477 C478 1.373 . S
C477 C479 1.389 . S
C478 H451 0.950 . S
C478 C464 1.377 . S
C478 C477 1.373 . S
C479 C463 1.377 . S
C479 C477 1.389 . S
C479 C480 1.524 . S
C480 C479 1.524 . S
C480 C481 1.397 . S
C480 C485 1.363 . S
C481 H452 0.950 . S
C481 C480 1.397 . S
C481 C482 1.334 . S
C482 H453 0.950 . S
C482 C481 1.334 . S
C482 C483 1.287 . S
C483 C482 1.287 . S
C483 C484 1.524 . S
C483 H486 0.999 . S
C484 H454 0.950 . S
C484 C483 1.524 . S
C484 C485 1.415 . S
C485 H455 0.950 . S
C485 C480 1.363 . S
C485 C484 1.415 . S
H486 C483 0.999 . S
H487 C468 0.913 . S
H488 C506 0.951 . S
H489 C508 0.951 . S
H490 C510 0.950 . S
H491 C511 0.950 . S
H492 C513 0.950 . S
H493 C516 0.950 . S
H494 C517 0.950 . S
H495 C519 0.950 . S
H496 C520 0.950 . S
H497 C521 0.951 . S
H498 C523 0.951 . S
H499 C525 0.950 . S
H500 C526 0.950 . S
H501 C528 0.950 . S
H502 C531 0.950 . S
H503 C532 0.950 . S
H504 C534 0.950 . S
H505 C535 0.950 . S
C506 H488 0.951 . S
C506 C507 1.366 . S
C506 C508 1.388 . S
C507 C506 1.366 . S
C507 C511 1.385 . S
C508 H489 0.951 . S
C508 C506 1.388 . S
C508 C509 1.366 . S
C509 C508 1.366 . S
C509 C510 1.414 . S
C509 C512 1.499 . S
C510 H490 0.950 . S
C510 C509 1.414 . S
C510 C511 1.374 . S
C511 H491 0.950 . S
C511 C507 1.385 . S
C511 C510 1.374 . S
C512 C509 1.499 . S
C512 C513 1.373 . S
C512 C514 1.389 . S
C513 H492 0.950 . S
C513 C512 1.373 . S
C513 C529 1.377 . S
C514 C512 1.389 . S
C514 C515 1.524 . S
C514 C528 1.377 . S
C515 C514 1.524 . S
C515 C516 1.397 . S
C515 C520 1.363 . S
C516 H493 0.950 . S
C516 C515 1.397 . S
C516 C517 1.334 . S
C517 H494 0.950 . S
C517 C516 1.334 . S
C517 C518 1.287 . S
C518 C517 1.287 . S
C518 C519 1.524 . S
C518 H537 0.913 . S
C519 H495 0.950 . S
C519 C518 1.524 . S
C519 C520 1.415 . S
C520 H496 0.950 . S
C520 C515 1.363 . S
C520 C519 1.415 . S
C521 H497 0.951 . S
C521 C522 1.366 . S
C521 C523 1.388 . S
C522 C521 1.366 . S
C522 C526 1.385 . S
C523 H498 0.951 . S
C523 C521 1.388 . S
C523 C524 1.366 . S
C524 C523 1.366 . S
C524 C525 1.414 . S
C524 C527 1.499 . S
C525 H499 0.950 . S
C525 C524 1.414 . S
C525 C526 1.374 . S
C526 H500 0.950 . S
C526 C522 1.385 . S
C526 C525 1.374 . S
C527 C524 1.499 . S
C527 C528 1.373 . S
C527 C529 1.389 . S
C528 H501 0.950 . S
C528 C514 1.377 . S
C528 C527 1.373 . S
C529 C513 1.377 . S
C529 C527 1.389 . S
C529 C530 1.524 . S
C530 C529 1.524 . S
C530 C531 1.397 . S
C530 C535 1.363 . S
C531 H502 0.950 . S
C531 C530 1.397 . S
C531 C532 1.334 . S
C532 H503 0.950 . S
C532 C531 1.334 . S
C532 C533 1.287 . S
C533 C532 1.287 . S
C533 C534 1.524 . S
C533 H536 0.999 . S
C534 H504 0.950 . S
C534 C533 1.524 . S
C534 C535 1.415 . S
C535 H505 0.950 . S
C535 C530 1.363 . S
C535 C534 1.415 . S
H536 C533 0.999 . S
H537 C518 0.913 . S
H538 C556 0.951 . S
H539 C558 0.951 . S
H540 C560 0.950 . S
H541 C561 0.950 . S
H542 C563 0.950 . S
H543 C566 0.950 . S
H544 C567 0.950 . S
H545 C569 0.950 . S
H546 C570 0.950 . S
H547 C571 0.951 . S
H548 C573 0.951 1_545 S
H549 C575 0.950 . S
H550 C576 0.950 . S
H551 C578 0.950 . S
H552 C581 0.950 . S
H553 C582 0.950 . S
H554 C584 0.950 . S
H555 C585 0.950 . S
C556 H538 0.951 . S
C556 C557 1.366 . S
C556 C558 1.388 . S
C557 C556 1.366 . S
C557 C561 1.385 . S
C558 H539 0.951 . S
C558 C556 1.388 . S
C558 C559 1.366 . S
C559 C558 1.366 . S
C559 C560 1.414 . S
C559 C562 1.499 . S
C560 H540 0.950 . S
C560 C559 1.414 . S
C560 C561 1.374 . S
C561 H541 0.950 . S
C561 C557 1.385 . S
C561 C560 1.374 . S
C562 C559 1.499 . S
C562 C563 1.373 . S
C562 C564 1.389 . S
C563 H542 0.950 . S
C563 C562 1.373 . S
C563 C579 1.377 . S
C564 C562 1.389 . S
C564 C565 1.524 . S
C564 C578 1.377 . S
C565 C564 1.524 . S
C565 C566 1.397 . S
C565 C570 1.363 . S
C566 H543 0.950 . S
C566 C565 1.397 . S
C566 C567 1.334 . S
C567 H544 0.950 . S
C567 C566 1.334 . S
C567 C568 1.287 . S
C568 C567 1.287 . S
C568 C569 1.524 . S
C568 H587 0.913 . S
C569 H545 0.950 . S
C569 C568 1.524 . S
C569 C570 1.415 . S
C570 H546 0.950 . S
C570 C565 1.363 . S
C570 C569 1.415 . S
C571 H547 0.951 . S
C571 C572 1.366 . S
C571 C573 1.388 . S
C572 C571 1.366 . S
C572 C576 1.385 . S
C573 H548 0.951 1_565 S
C573 C571 1.388 . S
C573 C574 1.369 . S
C574 C573 1.369 . S
C574 C575 1.432 . S
C574 C577 1.478 1_565 S
C575 H549 0.950 . S
C575 C574 1.432 . S
C575 C576 1.374 . S
C576 H550 0.950 . S
C576 C572 1.385 . S
C576 C575 1.374 . S
C577 C574 1.478 1_545 S
C577 C578 1.373 . S
C577 C579 1.389 . S
C578 H551 0.950 . S
C578 C564 1.377 . S
C578 C577 1.373 . S
C579 C563 1.377 . S
C579 C577 1.389 . S
C579 C580 1.524 . S
C580 C579 1.524 . S
C580 C581 1.397 1_545 S
C580 C585 1.363 . S
C581 H552 0.950 . S
C581 C580 1.397 1_565 S
C581 C582 1.334 . S
C582 H553 0.950 . S
C582 C581 1.334 . S
C582 C583 1.287 . S
C583 C582 1.287 . S
C583 C584 1.524 1_565 S
C583 H586 0.999 . S
C584 H554 0.950 . S
C584 C583 1.524 1_545 S
C584 C585 1.415 . S
C585 H555 0.950 . S
C585 C580 1.363 . S
C585 C584 1.415 . S
H586 C583 0.999 . S
H587 C568 0.913 . S
H588 C606 0.951 . S
H589 C608 0.951 . S
H590 C610 0.950 . S
H591 C611 0.950 . S
H592 C613 0.950 . S
H593 C616 0.950 . S
H594 C617 0.950 . S
H595 C619 0.950 . S
H596 C620 0.950 . S
H597 C621 0.951 . S
H598 C623 0.951 . S
H599 C625 0.950 . S
H600 C626 0.950 . S
H601 C628 0.950 . S
H602 C631 0.950 . S
H603 C632 0.950 1_655 S
H604 C634 0.950 . S
H605 C635 0.950 . S
C606 H588 0.951 . S
C606 C607 1.366 . S
C606 C608 1.388 . S
C607 C606 1.366 . S
C607 C611 1.385 . S
C608 H589 0.951 . S
C608 C606 1.388 . S
C608 C609 1.366 . S
C609 C608 1.366 . S
C609 C610 1.414 . S
C609 C612 1.499 1_556 S
C610 H590 0.950 . S
C610 C609 1.414 . S
C610 C611 1.374 . S
C611 H591 0.950 . S
C611 C607 1.385 . S
C611 C610 1.374 . S
C612 C609 1.499 1_554 S
C612 C613 1.373 . S
C612 C614 1.389 . S
C613 H592 0.950 . S
C613 C612 1.373 . S
C613 C629 1.377 . S
C614 C612 1.389 . S
C614 C615 1.524 . S
C614 C628 1.377 . S
C615 C614 1.524 . S
C615 C616 1.397 . S
C615 C620 1.363 . S
C616 H593 0.950 . S
C616 C615 1.397 . S
C616 C617 1.334 . S
C617 H594 0.950 . S
C617 C616 1.334 . S
C617 C618 1.287 . S
C618 C617 1.287 . S
C618 C619 1.524 . S
C618 H637 0.913 . S
C619 H595 0.950 . S
C619 C618 1.524 . S
C619 C620 1.415 . S
C620 H596 0.950 . S
C620 C615 1.363 . S
C620 C619 1.415 . S
C621 H597 0.951 . S
C621 C622 1.366 . S
C621 C623 1.388 . S
C622 C621 1.366 . S
C622 C626 1.385 . S
C623 H598 0.951 . S
C623 C621 1.388 . S
C623 C624 1.366 . S
C624 C623 1.366 . S
C624 C625 1.414 . S
C624 C627 1.499 . S
C625 H599 0.950 . S
C625 C624 1.414 . S
C625 C626 1.374 . S
C626 H600 0.950 . S
C626 C622 1.385 . S
C626 C625 1.374 . S
C627 C624 1.499 . S
C627 C628 1.373 . S
C627 C629 1.389 . S
C628 H601 0.950 . S
C628 C614 1.377 . S
C628 C627 1.373 . S
C629 C613 1.377 . S
C629 C627 1.389 . S
C629 C630 1.524 . S
C630 C629 1.524 . S
C630 C631 1.397 . S
C630 C635 1.363 . S
C631 H602 0.950 . S
C631 C630 1.397 . S
C631 C632 1.334 . S
C632 H603 0.950 1_455 S
C632 C631 1.334 . S
C632 C633 1.287 . S
C633 C632 1.287 . S
C633 C634 1.524 . S
C633 H636 0.999 . S
C634 H604 0.950 . S
C634 C633 1.524 . S
C634 C635 1.415 . S
C635 H605 0.950 . S
C635 C630 1.363 . S
C635 C634 1.415 . S
H636 C633 0.999 . S
H637 C618 0.913 . S
H638 C656 0.951 . S
H639 C658 0.951 . S
H640 C660 0.950 . S
H641 C661 0.950 . S
H642 C663 0.950 . S
H643 C666 0.950 . S
H644 C667 0.950 . S
H645 C669 0.950 . S
H646 C670 0.950 . S
H647 C671 0.951 . S
H648 C673 0.951 . S
H649 C675 0.950 . S
H650 C676 0.950 . S
H651 C678 0.950 . S
H652 C681 0.950 . S
H653 C682 0.950 . S
H654 C684 0.950 . S
H655 C685 0.950 . S
C656 H638 0.951 . S
C656 C657 1.366 . S
C656 C658 1.388 . S
C657 C656 1.366 . S
C657 C661 1.385 . S
C658 H639 0.951 . S
C658 C656 1.388 . S
C658 C659 1.366 . S
C659 C658 1.366 . S
C659 C660 1.414 . S
C659 C662 1.499 . S
C660 H640 0.950 . S
C660 C659 1.414 . S
C660 C661 1.374 . S
C661 H641 0.950 . S
C661 C657 1.385 . S
C661 C660 1.374 . S
C662 C659 1.499 . S
C662 C663 1.373 . S
C662 C664 1.389 . S
C663 H642 0.950 . S
C663 C662 1.373 . S
C663 C679 1.377 . S
C664 C662 1.389 . S
C664 C665 1.524 . S
C664 C678 1.377 . S
C665 C664 1.524 . S
C665 C666 1.397 . S
C665 C670 1.363 . S
C666 H643 0.950 . S
C666 C665 1.397 . S
C666 C667 1.334 . S
C667 H644 0.950 . S
C667 C666 1.334 . S
C667 C668 1.287 . S
C668 C667 1.287 . S
C668 C669 1.524 . S
C668 H687 0.913 . S
C669 H645 0.950 . S
C669 C668 1.524 . S
C669 C670 1.415 . S
C670 H646 0.950 . S
C670 C665 1.363 . S
C670 C669 1.415 . S
C671 H647 0.951 . S
C671 C672 1.366 . S
C671 C673 1.388 . S
C672 C671 1.366 . S
C672 C676 1.385 . S
C673 H648 0.951 . S
C673 C671 1.388 . S
C673 C674 1.366 . S
C674 C673 1.366 . S
C674 C675 1.414 . S
C674 C677 1.499 . S
C675 H649 0.950 . S
C675 C674 1.414 . S
C675 C676 1.374 . S
C676 H650 0.950 . S
C676 C672 1.385 . S
C676 C675 1.374 . S
C677 C674 1.499 . S
C677 C678 1.373 . S
C677 C679 1.389 . S
C678 H651 0.950 . S
C678 C664 1.377 . S
C678 C677 1.373 . S
C679 C663 1.377 . S
C679 C677 1.389 . S
C679 C680 1.524 . S
C680 C679 1.524 . S
C680 C681 1.397 . S
C680 C685 1.363 . S
C681 H652 0.950 . S
C681 C680 1.397 . S
C681 C682 1.334 . S
C682 H653 0.950 . S
C682 C681 1.334 . S
C682 C683 1.287 . S
C683 C682 1.287 . S
C683 C684 1.524 . S
C683 H686 0.999 . S
C684 H654 0.950 . S
C684 C683 1.524 . S
C684 C685 1.415 . S
C685 H655 0.950 . S
C685 C680 1.363 . S
C685 C684 1.415 . S
H686 C683 0.999 . S
H687 C668 0.913 . S
H688 C706 0.951 . S
H689 C708 0.951 1_556 S
H690 C710 0.950 . S
H691 C711 0.950 . S
H692 C713 0.941 1_554 S
H693 C716 0.950 . S
H694 C717 0.950 . S
H695 C719 0.950 . S
H696 C720 0.950 . S
H697 C721 0.951 . S
H698 C723 0.951 . S
H699 C725 0.950 . S
H700 C726 0.950 . S
H701 C728 0.950 . S
H702 C731 0.950 . S
H703 C732 0.950 . S
H704 C734 0.950 . S
H705 C735 0.950 . S
C706 H688 0.951 . S
C706 C707 1.366 . S
C706 C708 1.388 . S
C707 C706 1.366 . S
C707 C711 1.385 . S
C708 H689 0.951 1_554 S
C708 C706 1.388 . S
C708 C709 1.366 . S
C709 C708 1.366 . S
C709 C710 1.414 . S
C709 C712 1.499 1_554 S
C710 H690 0.950 . S
C710 C709 1.414 . S
C710 C711 1.374 . S
C711 H691 0.950 . S
C711 C707 1.385 . S
C711 C710 1.374 . S
C712 C709 1.499 1_556 S
C712 C713 1.373 . S
C712 C714 1.389 . S
C713 H692 0.941 1_556 S
C713 C712 1.373 . S
C713 C729 1.377 . S
C714 C712 1.389 . S
C714 C715 1.524 . S
C714 C728 1.377 . S
C715 C714 1.524 . S
C715 C716 1.397 . S
C715 C720 1.363 . S
C716 H693 0.950 . S
C716 C715 1.397 . S
C716 C717 1.334 . S
C717 H694 0.950 . S
C717 C716 1.334 . S
C717 C718 1.287 . S
C718 C717 1.287 . S
C718 C719 1.524 . S
C718 H737 0.913 . S
C719 H695 0.950 . S
C719 C718 1.524 . S
C719 C720 1.415 . S
C720 H696 0.950 . S
C720 C715 1.363 . S
C720 C719 1.415 . S
C721 H697 0.951 . S
C721 C722 1.366 . S
C721 C723 1.388 . S
C722 C721 1.366 . S
C722 C726 1.385 . S
C723 H698 0.951 . S
C723 C721 1.388 . S
C723 C724 1.366 . S
C724 C723 1.366 . S
C724 C725 1.414 . S
C724 C727 1.499 . S
C725 H699 0.950 . S
C725 C724 1.414 . S
C725 C726 1.374 . S
C726 H700 0.950 . S
C726 C722 1.385 . S
C726 C725 1.374 . S
C727 C724 1.499 . S
C727 C728 1.373 . S
C727 C729 1.389 . S
C728 H701 0.950 . S
C728 C714 1.377 . S
C728 C727 1.373 . S
C729 C713 1.377 . S
C729 C727 1.389 . S
C729 C730 1.524 . S
C730 C729 1.524 . S
C730 C731 1.397 . S
C730 C735 1.363 . S
C731 H702 0.950 . S
C731 C730 1.397 . S
C731 C732 1.334 . S
C732 H703 0.950 . S
C732 C731 1.334 . S
C732 C733 1.287 . S
C733 C732 1.287 . S
C733 C734 1.524 . S
C733 H736 0.999 . S
C734 H704 0.950 . S
C734 C733 1.524 . S
C734 C735 1.415 . S
C735 H705 0.950 . S
C735 C730 1.363 . S
C735 C734 1.415 . S
H736 C733 0.999 . S
H737 C718 0.913 . S
H738 C756 0.951 . S
H739 C758 0.951 . S
H740 C760 0.950 . S
H741 C761 0.950 . S
H742 C763 0.950 . S
H743 C766 0.950 . S
H744 C767 0.950 . S
H745 C769 0.950 . S
H746 C770 0.950 . S
H747 C771 0.951 . S
H748 C773 0.951 . S
H749 C775 0.950 . S
H750 C776 0.950 . S
H751 C778 0.950 . S
H752 C781 0.950 . S
H753 C782 0.950 . S
H754 C784 0.950 . S
H755 C785 0.950 . S
C756 H738 0.951 . S
C756 C757 1.366 . S
C756 C758 1.388 . S
C757 C756 1.366 . S
C757 C761 1.385 . S
C758 H739 0.951 . S
C758 C756 1.388 . S
C758 C759 1.366 . S
C759 C758 1.366 . S
C759 C760 1.414 . S
C759 C762 1.499 . S
C760 H740 0.950 . S
C760 C759 1.414 . S
C760 C761 1.374 . S
C761 H741 0.950 . S
C761 C757 1.385 . S
C761 C760 1.374 . S
C762 C759 1.499 . S
C762 C763 1.373 . S
C762 C764 1.389 . S
C763 H742 0.950 . S
C763 C762 1.373 . S
C763 C779 1.377 . S
C764 C762 1.389 . S
C764 C765 1.524 . S
C764 C778 1.377 . S
C765 C764 1.524 . S
C765 C766 1.397 . S
C765 C770 1.363 . S
C766 H743 0.950 . S
C766 C765 1.397 . S
C766 C767 1.334 . S
C767 H744 0.950 . S
C767 C766 1.334 . S
C767 C768 1.287 . S
C768 C767 1.287 . S
C768 C769 1.524 . S
C768 H787 0.913 . S
C769 H745 0.950 . S
C769 C768 1.524 . S
C769 C770 1.415 . S
C770 H746 0.950 . S
C770 C765 1.363 . S
C770 C769 1.415 . S
C771 H747 0.951 . S
C771 C772 1.366 . S
C771 C773 1.388 . S
C772 C771 1.366 . S
C772 C776 1.385 . S
C773 H748 0.951 . S
C773 C771 1.388 . S
C773 C774 1.366 . S
C774 C773 1.366 . S
C774 C775 1.414 . S
C774 C777 1.499 . S
C775 H749 0.950 . S
C775 C774 1.414 . S
C775 C776 1.374 . S
C776 H750 0.950 . S
C776 C772 1.385 . S
C776 C775 1.374 . S
C777 C774 1.499 . S
C777 C778 1.373 . S
C777 C779 1.389 . S
C778 H751 0.950 . S
C778 C764 1.377 . S
C778 C777 1.373 . S
C779 C763 1.377 . S
C779 C777 1.389 . S
C779 C780 1.524 . S
C780 C779 1.524 . S
C780 C781 1.397 . S
C780 C785 1.363 . S
C781 H752 0.950 . S
C781 C780 1.397 . S
C781 C782 1.334 . S
C782 H753 0.950 . S
C782 C781 1.334 . S
C782 C783 1.287 . S
C783 C782 1.287 . S
C783 C784 1.524 . S
C783 H786 0.999 . S
C784 H754 0.950 . S
C784 C783 1.524 . S
C784 C785 1.415 . S
C785 H755 0.950 . S
C785 C780 1.363 . S
C785 C784 1.415 . S
H786 C783 0.999 . S
H787 C768 0.913 . S
H788 C806 0.951 . S
H789 C808 0.951 1_556 S
H790 C810 0.950 . S
H791 C811 0.950 . S
H792 C813 0.950 . S
H793 C816 0.950 . S
H794 C817 0.950 1_554 S
H795 C819 0.950 . S
H796 C820 0.950 . S
H797 C821 0.951 . S
H798 C823 0.951 . S
H799 C825 0.950 . S
H800 C826 0.950 . S
H801 C828 0.950 . S
H802 C831 0.950 . S
H803 C832 0.950 . S
H804 C834 0.950 . S
H805 C835 0.950 . S
C806 H788 0.951 . S
C806 C807 1.366 . S
C806 C808 1.388 . S
C807 C806 1.366 . S
C807 C811 1.385 . S
C808 H789 0.951 1_554 S
C808 C806 1.388 . S
C808 C809 1.366 . S
C809 C808 1.366 . S
C809 C810 1.414 . S
C809 C812 1.499 1_554 S
C810 H790 0.950 . S
C810 C809 1.414 . S
C810 C811 1.374 . S
C811 H791 0.950 . S
C811 C807 1.385 . S
C811 C810 1.374 . S
C812 C809 1.499 1_556 S
C812 C813 1.373 . S
C812 C814 1.389 . S
C813 H792 0.950 . S
C813 C812 1.373 . S
C813 C829 1.377 . S
C814 C812 1.389 . S
C814 C815 1.524 . S
C814 C828 1.377 . S
C815 C814 1.524 . S
C815 C816 1.397 . S
C815 C820 1.363 . S
C816 H793 0.950 . S
C816 C815 1.397 . S
C816 C817 1.334 . S
C817 H794 0.950 1_556 S
C817 C816 1.334 . S
C817 C818 1.287 . S
C818 C817 1.287 . S
C818 C819 1.524 . S
C818 H837 0.913 . S
C819 H795 0.950 . S
C819 C818 1.524 . S
C819 C820 1.415 . S
C820 H796 0.950 . S
C820 C815 1.363 . S
C820 C819 1.415 . S
C821 H797 0.951 . S
C821 C822 1.366 . S
C821 C823 1.388 . S
C822 C821 1.366 . S
C822 C826 1.385 . S
C823 H798 0.951 . S
C823 C821 1.388 . S
C823 C824 1.366 . S
C824 C823 1.366 . S
C824 C825 1.414 . S
C824 C827 1.499 . S
C825 H799 0.950 . S
C825 C824 1.414 . S
C825 C826 1.374 . S
C826 H800 0.950 . S
C826 C822 1.385 . S
C826 C825 1.374 . S
C827 C824 1.499 . S
C827 C828 1.373 . S
C827 C829 1.389 . S
C828 H801 0.950 . S
C828 C814 1.377 . S
C828 C827 1.373 . S
C829 C813 1.377 . S
C829 C827 1.389 . S
C829 C830 1.524 . S
C830 C829 1.524 . S
C830 C831 1.397 . S
C830 C835 1.363 . S
C831 H802 0.950 . S
C831 C830 1.397 . S
C831 C832 1.334 . S
C832 H803 0.950 . S
C832 C831 1.334 . S
C832 C833 1.287 . S
C833 C832 1.287 . S
C833 C834 1.524 . S
C833 H836 0.999 . S
C834 H804 0.950 . S
C834 C833 1.524 . S
C834 C835 1.415 . S
C835 H805 0.950 . S
C835 C830 1.363 . S
C835 C834 1.415 . S
H836 C833 0.999 . S
H837 C818 0.913 . S
H838 C856 0.951 . S
H839 C858 0.951 . S
H840 C860 0.950 . S
H841 C861 0.950 . S
H842 C863 0.950 . S
H843 C866 0.950 . S
H844 C867 0.950 . S
H845 C869 0.950 . S
H846 C870 0.950 . S
H847 C871 0.951 . S
H848 C873 0.951 . S
H849 C875 0.950 . S
H850 C876 0.950 . S
H851 C878 0.950 . S
H852 C881 0.950 . S
H853 C882 0.950 . S
H854 C884 0.950 . S
H855 C885 0.950 . S
C856 H838 0.951 . S
C856 C857 1.366 . S
C856 C858 1.388 . S
C857 C856 1.366 . S
C857 C861 1.385 . S
C858 H839 0.951 . S
C858 C856 1.388 . S
C858 C859 1.366 . S
C859 C858 1.366 . S
C859 C860 1.414 . S
C859 C862 1.499 . S
C860 H840 0.950 . S
C860 C859 1.414 . S
C860 C861 1.374 . S
C861 H841 0.950 . S
C861 C857 1.385 . S
C861 C860 1.374 . S
C862 C859 1.499 . S
C862 C863 1.373 . S
C862 C864 1.389 . S
C863 H842 0.950 . S
C863 C862 1.373 . S
C863 C879 1.377 . S
C864 C862 1.389 . S
C864 C865 1.524 . S
C864 C878 1.377 . S
C865 C864 1.524 . S
C865 C866 1.397 . S
C865 C870 1.363 . S
C866 H843 0.950 . S
C866 C865 1.397 . S
C866 C867 1.334 . S
C867 H844 0.950 . S
C867 C866 1.334 . S
C867 C868 1.287 . S
C868 C867 1.287 . S
C868 C869 1.524 . S
C868 H887 0.913 . S
C869 H845 0.950 . S
C869 C868 1.524 . S
C869 C870 1.415 . S
C870 H846 0.950 . S
C870 C865 1.363 . S
C870 C869 1.415 . S
C871 H847 0.951 . S
C871 C872 1.366 . S
C871 C873 1.388 . S
C872 C871 1.366 . S
C872 C876 1.385 . S
C873 H848 0.951 . S
C873 C871 1.388 . S
C873 C874 1.366 . S
C874 C873 1.366 . S
C874 C875 1.414 . S
C874 C877 1.499 . S
C875 H849 0.950 . S
C875 C874 1.414 . S
C875 C876 1.374 . S
C876 H850 0.950 . S
C876 C872 1.385 . S
C876 C875 1.374 . S
C877 C874 1.499 . S
C877 C878 1.373 . S
C877 C879 1.389 . S
C878 H851 0.950 . S
C878 C864 1.377 . S
C878 C877 1.373 . S
C879 C863 1.377 . S
C879 C877 1.389 . S
C879 C880 1.524 . S
C880 C879 1.524 . S
C880 C881 1.397 . S
C880 C885 1.363 . S
C881 H852 0.950 . S
C881 C880 1.397 . S
C881 C882 1.334 . S
C882 H853 0.950 . S
C882 C881 1.334 . S
C882 C883 1.287 . S
C883 C882 1.287 . S
C883 C884 1.524 . S
C883 H886 0.999 . S
C884 H854 0.950 . S
C884 C883 1.524 . S
C884 C885 1.415 . S
C885 H855 0.950 . S
C885 C880 1.363 . S
C885 C884 1.415 . S
H886 C883 0.999 . S
H887 C868 0.913 . S
H888 C906 0.951 . S
H889 C908 0.971 . S
H890 C910 0.950 . S
H891 C911 0.950 . S
H892 C913 0.950 . S
H893 C916 0.950 . S
H894 C917 0.950 . S
H895 C919 0.950 . S
H896 C920 0.950 . S
H897 C921 0.951 . S
H898 C923 0.951 . S
H899 C925 0.950 . S
H900 C926 0.950 . S
H901 C928 0.950 . S
H902 C931 0.950 . S
H903 C932 0.950 . S
H904 C934 0.950 . S
H905 C935 0.950 . S
C906 H888 0.951 . S
C906 C907 1.366 . S
C906 C908 1.388 . S
C907 C906 1.366 . S
C907 C911 1.385 . S
C908 H889 0.971 . S
C908 C906 1.388 . S
C908 C909 1.366 . S
C909 C908 1.366 . S
C909 C910 1.414 . S
C909 C912 1.499 1_556 S
C910 H890 0.950 . S
C910 C909 1.414 . S
C910 C911 1.374 . S
C911 H891 0.950 . S
C911 C907 1.385 . S
C911 C910 1.374 . S
C912 C909 1.499 1_554 S
C912 C913 1.373 . S
C912 C914 1.389 . S
C913 H892 0.950 . S
C913 C912 1.373 . S
C913 C929 1.377 . S
C914 C912 1.389 . S
C914 C915 1.524 . S
C914 C928 1.377 . S
C915 C914 1.524 . S
C915 C916 1.397 1_554 S
C915 C920 1.363 . S
C916 H893 0.950 . S
C916 C915 1.397 1_556 S
C916 C917 1.334 . S
C917 H894 0.950 . S
C917 C916 1.334 . S
C917 C918 1.287 . S
C918 C917 1.287 . S
C918 C919 1.524 1_556 S
C918 H937 0.913 . S
C919 H895 0.950 . S
C919 C918 1.524 1_554 S
C919 C920 1.415 . S
C920 H896 0.950 . S
C920 C915 1.363 . S
C920 C919 1.415 . S
C921 H897 0.951 . S
C921 C922 1.366 . S
C921 C923 1.388 . S
C922 C921 1.366 . S
C922 C926 1.385 . S
C923 H898 0.951 . S
C923 C921 1.388 . S
C923 C924 1.366 . S
C924 C923 1.366 . S
C924 C925 1.414 . S
C924 C927 1.499 . S
C925 H899 0.950 . S
C925 C924 1.414 . S
C925 C926 1.374 . S
C926 H900 0.950 . S
C926 C922 1.385 . S
C926 C925 1.374 . S
C927 C924 1.499 . S
C927 C928 1.373 . S
C927 C929 1.389 . S
C928 H901 0.950 . S
C928 C914 1.377 . S
C928 C927 1.373 . S
C929 C913 1.377 . S
C929 C927 1.389 . S
C929 C930 1.524 . S
C930 C929 1.524 . S
C930 C931 1.397 . S
C930 C935 1.363 . S
C931 H902 0.950 . S
C931 C930 1.397 . S
C931 C932 1.334 . S
C932 H903 0.950 . S
C932 C931 1.334 . S
C932 C933 1.287 . S
C933 C932 1.287 . S
C933 C934 1.524 . S
C933 H936 0.999 . S
C934 H904 0.950 . S
C934 C933 1.524 . S
C934 C935 1.415 . S
C935 H905 0.950 . S
C935 C930 1.363 . S
C935 C934 1.415 . S
H936 C933 0.999 . S
H937 C918 0.913 . S
H938 C956 0.951 . S
H939 C958 0.951 . S
H940 C960 0.950 . S
H941 C961 0.950 . S
H942 C963 0.950 . S
H943 C966 0.950 . S
H944 C967 0.950 . S
H945 C969 0.950 . S
H946 C970 0.950 . S
H947 C971 0.951 . S
H948 C973 0.951 . S
H949 C975 0.950 . S
H950 C976 0.950 . S
H951 C978 0.950 . S
H952 C981 0.950 . S
H953 C982 0.950 . S
H954 C984 0.924 1_655 S
H955 C985 0.950 . S
C956 H938 0.951 . S
C956 C957 1.366 . S
C956 C958 1.388 . S
C957 C956 1.366 . S
C957 C961 1.385 . S
C958 H939 0.951 . S
C958 C956 1.388 . S
C958 C959 1.366 . S
C959 C958 1.366 . S
C959 C960 1.414 . S
C959 C962 1.499 . S
C960 H940 0.950 . S
C960 C959 1.414 . S
C960 C961 1.374 . S
C961 H941 0.950 . S
C961 C957 1.385 . S
C961 C960 1.374 . S
C962 C959 1.499 . S
C962 C963 1.373 . S
C962 C964 1.389 . S
C963 H942 0.950 . S
C963 C962 1.373 . S
C963 C979 1.377 . S
C964 C962 1.389 . S
C964 C965 1.524 . S
C964 C978 1.377 . S
C965 C964 1.524 . S
C965 C966 1.397 . S
C965 C970 1.363 . S
C966 H943 0.950 . S
C966 C965 1.397 . S
C966 C967 1.334 . S
C967 H944 0.950 . S
C967 C966 1.334 . S
C967 C968 1.287 . S
C968 C967 1.287 . S
C968 C969 1.524 . S
C968 H987 0.913 . S
C969 H945 0.950 . S
C969 C968 1.524 . S
C969 C970 1.415 . S
C970 H946 0.950 . S
C970 C965 1.363 . S
C970 C969 1.415 . S
C971 H947 0.951 . S
C971 C972 1.366 . S
C971 C973 1.388 . S
C972 C971 1.366 . S
C972 C976 1.385 . S
C973 H948 0.951 . S
C973 C971 1.388 . S
C973 C974 1.366 . S
C974 C973 1.366 . S
C974 C975 1.414 . S
C974 C977 1.499 . S
C975 H949 0.950 . S
C975 C974 1.414 . S
C975 C976 1.374 . S
C976 H950 0.950 . S
C976 C972 1.385 . S
C976 C975 1.374 . S
C977 C974 1.499 . S
C977 C978 1.373 . S
C977 C979 1.389 . S
C978 H951 0.950 . S
C978 C964 1.377 . S
C978 C977 1.373 . S
C979 C963 1.377 . S
C979 C977 1.389 . S
C979 C980 1.524 . S
C980 C979 1.524 . S
C980 C981 1.397 . S
C980 C985 1.363 . S
C981 H952 0.950 . S
C981 C980 1.397 . S
C981 C982 1.334 . S
C982 H953 0.950 . S
C982 C981 1.334 . S
C982 C983 1.287 . S
C983 C982 1.287 . S
C983 C984 1.525 . S
C983 H986 0.999 1_455 S
C984 H954 0.924 1_455 S
C984 C983 1.525 . S
C984 C985 1.443 . S
C985 H955 0.950 . S
C985 C980 1.363 . S
C985 C984 1.443 . S
H986 C983 0.999 1_655 S
H987 C968 0.913 . S
H988 C1006 0.951 . S
H989 C1008 0.951 . S
H990 C1010 0.950 . S
H991 C1011 0.950 . S
H992 C1013 0.950 . S
H993 C1016 0.950 . S
H994 C1017 0.950 . S
H995 C1019 0.950 . S
H996 C1020 0.950 . S
H997 C1021 0.951 . S
H998 C1023 0.951 . S
H999 C1025 0.950 . S
H1000 C1026 0.950 . S
H1001 C1028 0.950 . S
H1002 C1031 0.950 . S
H1003 C1032 0.950 . S
H1004 C1034 0.950 . S
H1005 C1035 0.950 . S
C1006 H988 0.951 . S
C1006 C1007 1.366 . S
C1006 C1008 1.388 . S
C1007 C1006 1.366 . S
C1007 C1011 1.385 . S
C1008 H989 0.951 . S
C1008 C1006 1.388 . S
C1008 C1009 1.366 . S
C1009 C1008 1.366 . S
C1009 C1010 1.414 . S
C1009 C1012 1.499 . S
C1010 H990 0.950 . S
C1010 C1009 1.414 . S
C1010 C1011 1.374 . S
C1011 H991 0.950 . S
C1011 C1007 1.385 . S
C1011 C1010 1.374 . S
C1012 C1009 1.499 . S
C1012 C1013 1.373 . S
C1012 C1014 1.389 . S
C1013 H992 0.950 . S
C1013 C1012 1.373 . S
C1013 C1029 1.377 . S
C1014 C1012 1.389 . S
C1014 C1015 1.524 . S
C1014 C1028 1.377 . S
C1015 C1014 1.524 . S
C1015 C1016 1.397 . S
C1015 C1020 1.363 . S
C1016 H993 0.950 . S
C1016 C1015 1.397 . S
C1016 C1017 1.334 . S
C1017 H994 0.950 . S
C1017 C1016 1.334 . S
C1017 C1018 1.287 . S
C1018 C1017 1.287 . S
C1018 C1019 1.524 . S
C1018 H1037 0.913 . S
C1019 H995 0.950 . S
C1019 C1018 1.524 . S
C1019 C1020 1.415 . S
C1020 H996 0.950 . S
C1020 C1015 1.363 . S
C1020 C1019 1.415 . S
C1021 H997 0.951 . S
C1021 C1022 1.366 . S
C1021 C1023 1.388 . S
C1022 C1021 1.366 . S
C1022 C1026 1.385 . S
C1023 H998 0.951 . S
C1023 C1021 1.388 . S
C1023 C1024 1.366 . S
C1024 C1023 1.366 . S
C1024 C1025 1.414 . S
C1024 C1027 1.499 . S
C1025 H999 0.950 . S
C1025 C1024 1.414 . S
C1025 C1026 1.374 . S
C1026 H1000 0.950 . S
C1026 C1022 1.385 . S
C1026 C1025 1.374 . S
C1027 C1024 1.499 . S
C1027 C1028 1.373 . S
C1027 C1029 1.389 . S
C1028 H1001 0.950 . S
C1028 C1014 1.377 . S
C1028 C1027 1.373 . S
C1029 C1013 1.377 . S
C1029 C1027 1.389 . S
C1029 C1030 1.524 . S
C1030 C1029 1.524 . S
C1030 C1031 1.397 . S
C1030 C1035 1.363 . S
C1031 H1002 0.950 . S
C1031 C1030 1.397 . S
C1031 C1032 1.334 . S
C1032 H1003 0.950 . S
C1032 C1031 1.334 . S
C1032 C1033 1.287 . S
C1033 C1032 1.287 . S
C1033 C1034 1.524 . S
C1033 H1036 0.999 . S
C1034 H1004 0.950 . S
C1034 C1033 1.524 . S
C1034 C1035 1.415 . S
C1035 H1005 0.950 . S
C1035 C1030 1.363 . S
C1035 C1034 1.415 . S
H1036 C1033 0.999 . S
H1037 C1018 0.913 . S
H1038 C1056 0.951 . S
H1039 C1058 0.951 . S
H1040 C1060 0.950 . S
H1041 C1061 0.950 . S
H1042 C1063 0.950 . S
H1043 C1066 0.950 . S
H1044 C1067 0.950 . S
H1045 C1069 0.950 . S
H1046 C1070 0.950 . S
H1047 C1071 0.951 . S
H1048 C1073 0.951 . S
H1049 C1075 0.950 . S
H1050 C1076 0.950 . S
H1051 C1078 0.950 . S
H1052 C1081 0.950 . S
H1053 C1082 0.950 . S
H1054 C1084 0.950 . S
H1055 C1085 0.950 . S
C1056 H1038 0.951 . S
C1056 C1057 1.366 . S
C1056 C1058 1.388 . S
C1057 C1056 1.366 . S
C1057 C1061 1.385 . S
C1058 H1039 0.951 . S
C1058 C1056 1.388 . S
C1058 C1059 1.366 . S
C1059 C1058 1.366 . S
C1059 C1060 1.414 . S
C1059 C1062 1.499 . S
C1060 H1040 0.950 . S
C1060 C1059 1.414 . S
C1060 C1061 1.374 . S
C1061 H1041 0.950 . S
C1061 C1057 1.385 . S
C1061 C1060 1.374 . S
C1062 C1059 1.499 . S
C1062 C1063 1.373 . S
C1062 C1064 1.389 . S
C1063 H1042 0.950 . S
C1063 C1062 1.373 . S
C1063 C1079 1.377 . S
C1064 C1062 1.389 . S
C1064 C1065 1.524 . S
C1064 C1078 1.377 . S
C1065 C1064 1.524 . S
C1065 C1066 1.397 . S
C1065 C1070 1.363 . S
C1066 H1043 0.950 . S
C1066 C1065 1.397 . S
C1066 C1067 1.334 . S
C1067 H1044 0.950 . S
C1067 C1066 1.334 . S
C1067 C1068 1.287 . S
C1068 C1067 1.287 . S
C1068 C1069 1.524 . S
C1068 H1087 0.913 . S
C1069 H1045 0.950 . S
C1069 C1068 1.524 . S
C1069 C1070 1.415 . S
C1070 H1046 0.950 . S
C1070 C1065 1.363 . S
C1070 C1069 1.415 . S
C1071 H1047 0.951 . S
C1071 C1072 1.366 . S
C1071 C1073 1.388 . S
C1072 C1071 1.366 . S
C1072 C1076 1.385 . S
C1073 H1048 0.951 . S
C1073 C1071 1.388 . S
C1073 C1074 1.366 . S
C1074 C1073 1.366 . S
C1074 C1075 1.414 . S
C1074 C1077 1.499 . S
C1075 H1049 0.950 . S
C1075 C1074 1.414 . S
C1075 C1076 1.374 . S
C1076 H1050 0.950 . S
C1076 C1072 1.385 . S
C1076 C1075 1.374 . S
C1077 C1074 1.499 . S
C1077 C1078 1.373 . S
C1077 C1079 1.389 . S
C1078 H1051 0.950 . S
C1078 C1064 1.377 . S
C1078 C1077 1.373 . S
C1079 C1063 1.377 . S
C1079 C1077 1.389 . S
C1079 C1080 1.524 . S
C1080 C1079 1.524 . S
C1080 C1081 1.397 . S
C1080 C1085 1.363 . S
C1081 H1052 0.950 . S
C1081 C1080 1.397 . S
C1081 C1082 1.334 . S
C1082 H1053 0.950 . S
C1082 C1081 1.334 . S
C1082 C1083 1.287 . S
C1083 C1082 1.287 . S
C1083 C1084 1.524 . S
C1083 H1086 0.999 . S
C1084 H1054 0.950 . S
C1084 C1083 1.524 . S
C1084 C1085 1.415 . S
C1085 H1055 0.950 . S
C1085 C1080 1.363 . S
C1085 C1084 1.415 . S
H1086 C1083 0.999 . S
H1087 C1068 0.913 . S
H1088 C1106 0.951 . S
H1089 C1108 0.951 . S
H1090 C1110 0.950 . S
H1091 C1111 0.950 . S
H1092 C1113 0.950 . S
H1093 C1116 0.950 . S
H1094 C1117 0.950 . S
H1095 C1119 0.950 . S
H1096 C1120 0.950 . S
H1097 C1121 0.951 . S
H1098 C1123 0.951 . S
H1099 C1125 0.950 . S
H1100 C1126 0.950 . S
H1101 C1128 0.950 . S
H1102 C1131 0.950 . S
H1103 C1132 0.950 . S
H1104 C1134 0.950 . S
H1105 C1135 0.950 . S
C1106 H1088 0.951 . S
C1106 C1107 1.366 . S
C1106 C1108 1.388 . S
C1107 C1106 1.366 . S
C1107 C1111 1.385 . S
C1108 H1089 0.951 . S
C1108 C1106 1.388 . S
C1108 C1109 1.366 . S
C1109 C1108 1.366 . S
C1109 C1110 1.414 . S
C1109 C1112 1.499 . S
C1110 H1090 0.950 . S
C1110 C1109 1.414 . S
C1110 C1111 1.374 . S
C1111 H1091 0.950 . S
C1111 C1107 1.385 . S
C1111 C1110 1.374 . S
C1112 C1109 1.499 . S
C1112 C1113 1.373 . S
C1112 C1114 1.389 . S
C1113 H1092 0.950 . S
C1113 C1112 1.373 . S
C1113 C1129 1.377 . S
C1114 C1112 1.389 . S
C1114 C1115 1.524 . S
C1114 C1128 1.377 . S
C1115 C1114 1.524 . S
C1115 C1116 1.397 . S
C1115 C1120 1.363 . S
C1116 H1093 0.950 . S
C1116 C1115 1.397 . S
C1116 C1117 1.334 . S
C1117 H1094 0.950 . S
C1117 C1116 1.334 . S
C1117 C1118 1.287 . S
C1118 C1117 1.287 . S
C1118 C1119 1.524 . S
C1118 H1137 0.913 . S
C1119 H1095 0.950 . S
C1119 C1118 1.524 . S
C1119 C1120 1.415 . S
C1120 H1096 0.950 . S
C1120 C1115 1.363 . S
C1120 C1119 1.415 . S
C1121 H1097 0.951 . S
C1121 C1122 1.366 . S
C1121 C1123 1.388 . S
C1122 C1121 1.366 . S
C1122 C1126 1.385 . S
C1123 H1098 0.951 . S
C1123 C1121 1.388 . S
C1123 C1124 1.366 . S
C1124 C1123 1.366 . S
C1124 C1125 1.414 . S
C1124 C1127 1.499 . S
C1125 H1099 0.950 . S
C1125 C1124 1.414 . S
C1125 C1126 1.374 . S
C1126 H1100 0.950 . S
C1126 C1122 1.385 . S
C1126 C1125 1.374 . S
C1127 C1124 1.499 . S
C1127 C1128 1.373 . S
C1127 C1129 1.389 . S
C1128 H1101 0.950 . S
C1128 C1114 1.377 . S
C1128 C1127 1.373 . S
C1129 C1113 1.377 . S
C1129 C1127 1.389 . S
C1129 C1130 1.524 . S
C1130 C1129 1.524 . S
C1130 C1131 1.397 . S
C1130 C1135 1.363 . S
C1131 H1102 0.950 . S
C1131 C1130 1.397 . S
C1131 C1132 1.334 . S
C1132 H1103 0.950 . S
C1132 C1131 1.334 . S
C1132 C1133 1.287 . S
C1133 C1132 1.287 . S
C1133 C1134 1.524 . S
C1133 H1136 0.999 . S
C1134 H1104 0.950 . S
C1134 C1133 1.524 . S
C1134 C1135 1.415 . S
C1135 H1105 0.950 . S
C1135 C1130 1.363 . S
C1135 C1134 1.415 . S
H1136 C1133 0.999 . S
H1137 C1118 0.913 . S
H1138 C1156 0.951 . S
H1139 C1158 0.951 . S
H1140 C1160 0.950 . S
H1141 C1161 0.950 . S
H1142 C1163 0.950 . S
H1143 C1166 0.950 . S
H1144 C1167 0.950 . S
H1145 C1169 0.950 . S
H1146 C1170 0.950 . S
H1147 C1171 0.951 . S
H1148 C1173 0.951 . S
H1149 C1175 0.950 . S
H1150 C1176 0.950 . S
H1151 C1178 0.950 . S
H1152 C1181 0.950 . S
H1153 C1182 0.950 . S
H1154 C1184 0.950 . S
H1155 C1185 0.950 . S
C1156 H1138 0.951 . S
C1156 C1157 1.366 . S
C1156 C1158 1.388 . S
C1157 C1156 1.366 . S
C1157 C1161 1.385 . S
C1158 H1139 0.951 . S
C1158 C1156 1.388 . S
C1158 C1159 1.366 . S
C1159 C1158 1.366 . S
C1159 C1160 1.414 . S
C1159 C1162 1.499 . S
C1160 H1140 0.950 . S
C1160 C1159 1.414 . S
C1160 C1161 1.374 . S
C1161 H1141 0.950 . S
C1161 C1157 1.385 . S
C1161 C1160 1.374 . S
C1162 C1159 1.499 . S
C1162 C1163 1.373 . S
C1162 C1164 1.389 . S
C1163 H1142 0.950 . S
C1163 C1162 1.373 . S
C1163 C1179 1.377 . S
C1164 C1162 1.389 . S
C1164 C1165 1.524 . S
C1164 C1178 1.377 . S
C1165 C1164 1.524 . S
C1165 C1166 1.397 . S
C1165 C1170 1.363 . S
C1166 H1143 0.950 . S
C1166 C1165 1.397 . S
C1166 C1167 1.334 . S
C1167 H1144 0.950 . S
C1167 C1166 1.334 . S
C1167 C1168 1.287 . S
C1168 C1167 1.287 . S
C1168 C1169 1.524 . S
C1168 H1187 0.913 . S
C1169 H1145 0.950 . S
C1169 C1168 1.524 . S
C1169 C1170 1.415 . S
C1170 H1146 0.950 . S
C1170 C1165 1.363 . S
C1170 C1169 1.415 . S
C1171 H1147 0.951 . S
C1171 C1172 1.366 . S
C1171 C1173 1.388 . S
C1172 C1171 1.366 . S
C1172 C1176 1.385 . S
C1173 H1148 0.951 . S
C1173 C1171 1.388 . S
C1173 C1174 1.366 . S
C1174 C1173 1.366 . S
C1174 C1175 1.414 . S
C1174 C1177 1.499 . S
C1175 H1149 0.950 . S
C1175 C1174 1.414 . S
C1175 C1176 1.374 . S
C1176 H1150 0.950 . S
C1176 C1172 1.385 . S
C1176 C1175 1.374 . S
C1177 C1174 1.499 . S
C1177 C1178 1.373 . S
C1177 C1179 1.389 . S
C1178 H1151 0.950 . S
C1178 C1164 1.377 . S
C1178 C1177 1.373 . S
C1179 C1163 1.377 . S
C1179 C1177 1.389 . S
C1179 C1180 1.524 . S
C1180 C1179 1.524 . S
C1180 C1181 1.397 . S
C1180 C1185 1.363 . S
C1181 H1152 0.950 . S
C1181 C1180 1.397 . S
C1181 C1182 1.334 . S
C1182 H1153 0.950 . S
C1182 C1181 1.334 . S
C1182 C1183 1.287 . S
C1183 C1182 1.287 . S
C1183 C1184 1.524 . S
C1183 H1186 0.999 . S
C1184 H1154 0.950 . S
C1184 C1183 1.524 . S
C1184 C1185 1.415 . S
C1185 H1155 0.950 . S
C1185 C1180 1.363 . S
C1185 C1184 1.415 . S
H1186 C1183 0.999 . S
H1187 C1168 0.913 . S
H1188 C1206 0.951 . S
H1189 C1208 0.951 . S
H1190 C1210 0.950 . S
H1191 C1211 0.950 . S
H1192 C1213 0.950 . S
H1193 C1216 0.950 . S
H1194 C1217 0.950 . S
H1195 C1219 0.950 . S
H1196 C1220 0.950 . S
H1197 C1221 0.951 . S
H1198 C1223 0.951 . S
H1199 C1225 0.950 . S
H1200 C1226 0.950 . S
H1201 C1228 0.950 . S
H1202 C1231 0.950 . S
H1203 C1232 0.950 . S
H1204 C1234 0.950 . S
H1205 C1235 0.950 . S
C1206 H1188 0.951 . S
C1206 C1207 1.366 . S
C1206 C1208 1.388 . S
C1207 C1206 1.366 . S
C1207 C1211 1.385 . S
C1208 H1189 0.951 . S
C1208 C1206 1.388 . S
C1208 C1209 1.366 . S
C1209 C1208 1.366 . S
C1209 C1210 1.414 . S
C1209 C1212 1.499 . S
C1210 H1190 0.950 . S
C1210 C1209 1.414 . S
C1210 C1211 1.374 . S
C1211 H1191 0.950 . S
C1211 C1207 1.385 . S
C1211 C1210 1.374 . S
C1212 C1209 1.499 . S
C1212 C1213 1.373 . S
C1212 C1214 1.389 . S
C1213 H1192 0.950 . S
C1213 C1212 1.373 . S
C1213 C1229 1.377 . S
C1214 C1212 1.389 . S
C1214 C1215 1.524 . S
C1214 C1228 1.377 . S
C1215 C1214 1.524 . S
C1215 C1216 1.397 . S
C1215 C1220 1.363 . S
C1216 H1193 0.950 . S
C1216 C1215 1.397 . S
C1216 C1217 1.334 . S
C1217 H1194 0.950 . S
C1217 C1216 1.334 . S
C1217 C1218 1.287 . S
C1218 C1217 1.287 . S
C1218 C1219 1.524 . S
C1218 H1237 0.913 . S
C1219 H1195 0.950 . S
C1219 C1218 1.524 . S
C1219 C1220 1.415 . S
C1220 H1196 0.950 . S
C1220 C1215 1.363 . S
C1220 C1219 1.415 . S
C1221 H1197 0.951 . S
C1221 C1222 1.366 . S
C1221 C1223 1.388 . S
C1222 C1221 1.366 . S
C1222 C1226 1.385 . S
C1223 H1198 0.951 . S
C1223 C1221 1.388 . S
C1223 C1224 1.366 . S
C1224 C1223 1.366 . S
C1224 C1225 1.414 . S
C1224 C1227 1.499 . S
C1225 H1199 0.950 . S
C1225 C1224 1.414 . S
C1225 C1226 1.374 . S
C1226 H1200 0.950 . S
C1226 C1222 1.385 . S
C1226 C1225 1.374 . S
C1227 C1224 1.499 . S
C1227 C1228 1.373 . S
C1227 C1229 1.389 . S
C1228 H1201 0.950 . S
C1228 C1214 1.377 . S
C1228 C1227 1.373 . S
C1229 C1213 1.377 . S
C1229 C1227 1.389 . S
C1229 C1230 1.524 . S
C1230 C1229 1.524 . S
C1230 C1231 1.397 . S
C1230 C1235 1.363 . S
C1231 H1202 0.950 . S
C1231 C1230 1.397 . S
C1231 C1232 1.334 . S
C1232 H1203 0.950 . S
C1232 C1231 1.334 . S
C1232 C1233 1.287 . S
C1233 C1232 1.287 . S
C1233 C1234 1.524 . S
C1233 H1236 0.999 . S
C1234 H1204 0.950 . S
C1234 C1233 1.524 . S
C1234 C1235 1.415 . S
C1235 H1205 0.950 . S
C1235 C1230 1.363 . S
C1235 C1234 1.415 . S
H1236 C1233 0.999 . S
H1237 C1218 0.913 . S
H1238 C1256 0.951 . S
H1239 C1258 0.951 . S
H1240 C1260 0.950 . S
H1241 C1261 0.950 . S
H1242 C1263 0.950 . S
H1243 C1266 0.950 . S
H1244 C1267 0.950 . S
H1245 C1269 0.950 . S
H1246 C1270 0.950 . S
H1247 C1271 0.951 . S
H1248 C1273 0.951 . S
H1249 C1275 0.950 . S
H1250 C1276 0.950 . S
H1251 C1278 0.950 . S
H1252 C1281 0.950 . S
H1253 C1282 0.950 . S
H1254 C1284 0.950 . S
H1255 C1285 0.950 . S
C1256 H1238 0.951 . S
C1256 C1257 1.366 . S
C1256 C1258 1.388 . S
C1257 C1256 1.366 . S
C1257 C1261 1.385 . S
C1258 H1239 0.951 . S
C1258 C1256 1.388 . S
C1258 C1259 1.366 . S
C1259 C1258 1.366 . S
C1259 C1260 1.414 . S
C1259 C1262 1.499 . S
C1260 H1240 0.950 . S
C1260 C1259 1.414 . S
C1260 C1261 1.374 . S
C1261 H1241 0.950 . S
C1261 C1257 1.385 . S
C1261 C1260 1.374 . S
C1262 C1259 1.499 . S
C1262 C1263 1.373 . S
C1262 C1264 1.389 . S
C1263 H1242 0.950 . S
C1263 C1262 1.373 . S
C1263 C1279 1.377 . S
C1264 C1262 1.389 . S
C1264 C1265 1.524 . S
C1264 C1278 1.377 . S
C1265 C1264 1.524 . S
C1265 C1266 1.397 . S
C1265 C1270 1.363 . S
C1266 H1243 0.950 . S
C1266 C1265 1.397 . S
C1266 C1267 1.334 . S
C1267 H1244 0.950 . S
C1267 C1266 1.334 . S
C1267 C1268 1.287 . S
C1268 C1267 1.287 . S
C1268 C1269 1.524 . S
C1268 H1287 0.913 . S
C1269 H1245 0.950 . S
C1269 C1268 1.524 . S
C1269 C1270 1.415 . S
C1270 H1246 0.950 . S
C1270 C1265 1.363 . S
C1270 C1269 1.415 . S
C1271 H1247 0.951 . S
C1271 C1272 1.366 . S
C1271 C1273 1.388 . S
C1272 C1271 1.366 . S
C1272 C1276 1.385 . S
C1273 H1248 0.951 . S
C1273 C1271 1.388 . S
C1273 C1274 1.366 . S
C1274 C1273 1.366 . S
C1274 C1275 1.414 . S
C1274 C1277 1.499 . S
C1275 H1249 0.950 . S
C1275 C1274 1.414 . S
C1275 C1276 1.374 . S
C1276 H1250 0.950 . S
C1276 C1272 1.385 . S
C1276 C1275 1.374 . S
C1277 C1274 1.499 . S
C1277 C1278 1.373 . S
C1277 C1279 1.389 . S
C1278 H1251 0.950 . S
C1278 C1264 1.377 . S
C1278 C1277 1.373 . S
C1279 C1263 1.377 . S
C1279 C1277 1.389 . S
C1279 C1280 1.524 . S
C1280 C1279 1.524 . S
C1280 C1281 1.397 . S
C1280 C1285 1.363 . S
C1281 H1252 0.950 . S
C1281 C1280 1.397 . S
C1281 C1282 1.334 . S
C1282 H1253 0.950 . S
C1282 C1281 1.334 . S
C1282 C1283 1.287 . S
C1283 C1282 1.287 . S
C1283 C1284 1.524 . S
C1283 H1286 0.999 . S
C1284 H1254 0.950 . S
C1284 C1283 1.524 . S
C1284 C1285 1.415 . S
C1285 H1255 0.950 . S
C1285 C1280 1.363 . S
C1285 C1284 1.415 . S
H1286 C1283 0.999 . S
H1287 C1268 0.913 . S
H1288 C1306 0.951 . S
H1289 C1308 0.951 . S
H1290 C1310 0.950 . S
H1291 C1311 0.950 . S
H1292 C1313 0.950 . S
H1293 C1316 0.950 . S
H1294 C1317 0.950 . S
H1295 C1319 0.950 . S
H1296 C1320 0.950 . S
H1297 C1321 0.951 . S
H1298 C1323 0.951 . S
H1299 C1325 0.950 . S
H1300 C1326 0.950 . S
H1301 C1328 0.950 . S
H1302 C1331 0.950 . S
H1303 C1332 0.950 . S
H1304 C1334 0.950 . S
H1305 C1335 0.950 . S
C1306 H1288 0.951 . S
C1306 C1307 1.366 . S
C1306 C1308 1.388 . S
C1307 C1306 1.366 . S
C1307 C1311 1.385 . S
C1308 H1289 0.951 . S
C1308 C1306 1.388 . S
C1308 C1309 1.366 . S
C1309 C1308 1.366 . S
C1309 C1310 1.414 . S
C1309 C1312 1.499 . S
C1310 H1290 0.950 . S
C1310 C1309 1.414 . S
C1310 C1311 1.374 . S
C1311 H1291 0.950 . S
C1311 C1307 1.385 . S
C1311 C1310 1.374 . S
C1312 C1309 1.499 . S
C1312 C1313 1.373 . S
C1312 C1314 1.389 . S
C1313 H1292 0.950 . S
C1313 C1312 1.373 . S
C1313 C1329 1.377 . S
C1314 C1312 1.389 . S
C1314 C1315 1.524 . S
C1314 C1328 1.377 . S
C1315 C1314 1.524 . S
C1315 C1316 1.397 . S
C1315 C1320 1.363 . S
C1316 H1293 0.950 . S
C1316 C1315 1.397 . S
C1316 C1317 1.334 . S
C1317 H1294 0.950 . S
C1317 C1316 1.334 . S
C1317 C1318 1.287 . S
C1318 C1317 1.287 . S
C1318 C1319 1.524 . S
C1318 H1337 0.913 . S
C1319 H1295 0.950 . S
C1319 C1318 1.524 . S
C1319 C1320 1.415 . S
C1320 H1296 0.950 . S
C1320 C1315 1.363 . S
C1320 C1319 1.415 . S
C1321 H1297 0.951 . S
C1321 C1322 1.366 . S
C1321 C1323 1.388 . S
C1322 C1321 1.366 . S
C1322 C1326 1.385 . S
C1323 H1298 0.951 . S
C1323 C1321 1.388 . S
C1323 C1324 1.366 . S
C1324 C1323 1.366 . S
C1324 C1325 1.414 . S
C1324 C1327 1.499 . S
C1325 H1299 0.950 . S
C1325 C1324 1.414 . S
C1325 C1326 1.374 . S
C1326 H1300 0.950 . S
C1326 C1322 1.385 . S
C1326 C1325 1.374 . S
C1327 C1324 1.499 . S
C1327 C1328 1.373 . S
C1327 C1329 1.389 . S
C1328 H1301 0.950 . S
C1328 C1314 1.377 . S
C1328 C1327 1.373 . S
C1329 C1313 1.377 . S
C1329 C1327 1.389 . S
C1329 C1330 1.524 . S
C1330 C1329 1.524 . S
C1330 C1331 1.397 . S
C1330 C1335 1.363 . S
C1331 H1302 0.950 . S
C1331 C1330 1.397 . S
C1331 C1332 1.334 . S
C1332 H1303 0.950 . S
C1332 C1331 1.334 . S
C1332 C1333 1.287 . S
C1333 C1332 1.287 . S
C1333 C1334 1.524 . S
C1333 H1336 0.999 . S
C1334 H1304 0.950 . S
C1334 C1333 1.524 . S
C1334 C1335 1.415 . S
C1335 H1305 0.950 . S
C1335 C1330 1.363 . S
C1335 C1334 1.415 . S
H1336 C1333 0.999 . S
H1337 C1318 0.913 . S
H1338 C1356 0.951 . S
H1339 C1358 0.951 . S
H1340 C1360 0.950 . S
H1341 C1361 0.950 . S
H1342 C1363 0.950 . S
H1343 C1366 0.950 . S
H1344 C1367 0.950 . S
H1345 C1369 0.950 . S
H1346 C1370 0.950 . S
H1347 C1371 0.951 . S
H1348 C1373 0.951 . S
H1349 C1375 0.950 . S
H1350 C1376 0.950 . S
H1351 C1378 0.950 . S
H1352 C1381 0.950 . S
H1353 C1382 0.950 . S
H1354 C1384 0.950 . S
H1355 C1385 0.950 . S
C1356 H1338 0.951 . S
C1356 C1357 1.366 . S
C1356 C1358 1.388 . S
C1357 C1356 1.366 . S
C1357 C1361 1.385 . S
C1358 H1339 0.951 . S
C1358 C1356 1.388 . S
C1358 C1359 1.366 . S
C1359 C1358 1.366 . S
C1359 C1360 1.414 . S
C1359 C1362 1.499 . S
C1360 H1340 0.950 . S
C1360 C1359 1.414 . S
C1360 C1361 1.374 . S
C1361 H1341 0.950 . S
C1361 C1357 1.385 . S
C1361 C1360 1.374 . S
C1362 C1359 1.499 . S
C1362 C1363 1.373 . S
C1362 C1364 1.389 . S
C1363 H1342 0.950 . S
C1363 C1362 1.373 . S
C1363 C1379 1.377 . S
C1364 C1362 1.389 . S
C1364 C1365 1.524 . S
C1364 C1378 1.377 . S
C1365 C1364 1.524 . S
C1365 C1366 1.397 . S
C1365 C1370 1.363 . S
C1366 H1343 0.950 . S
C1366 C1365 1.397 . S
C1366 C1367 1.334 . S
C1367 H1344 0.950 . S
C1367 C1366 1.334 . S
C1367 C1368 1.287 . S
C1368 C1367 1.287 . S
C1368 C1369 1.524 . S
C1368 H1387 0.913 . S
C1369 H1345 0.950 . S
C1369 C1368 1.524 . S
C1369 C1370 1.415 . S
C1370 H1346 0.950 . S
C1370 C1365 1.363 . S
C1370 C1369 1.415 . S
C1371 H1347 0.951 . S
C1371 C1372 1.366 . S
C1371 C1373 1.388 . S
C1372 C1371 1.366 . S
C1372 C1376 1.385 . S
C1373 H1348 0.951 . S
C1373 C1371 1.388 . S
C1373 C1374 1.366 . S
C1374 C1373 1.366 . S
C1374 C1375 1.414 . S
C1374 C1377 1.499 . S
C1375 H1349 0.950 . S
C1375 C1374 1.414 . S
C1375 C1376 1.374 . S
C1376 H1350 0.950 . S
C1376 C1372 1.385 . S
C1376 C1375 1.374 . S
C1377 C1374 1.499 . S
C1377 C1378 1.373 . S
C1377 C1379 1.389 . S
C1378 H1351 0.950 . S
C1378 C1364 1.377 . S
C1378 C1377 1.373 . S
C1379 C1363 1.377 . S
C1379 C1377 1.389 . S
C1379 C1380 1.524 . S
C1380 C1379 1.524 . S
C1380 C1381 1.397 . S
C1380 C1385 1.363 . S
C1381 H1352 0.950 . S
C1381 C1380 1.397 . S
C1381 C1382 1.334 . S
C1382 H1353 0.950 . S
C1382 C1381 1.334 . S
C1382 C1383 1.287 . S
C1383 C1382 1.287 . S
C1383 C1384 1.524 . S
C1383 H1386 0.999 . S
C1384 H1354 0.950 . S
C1384 C1383 1.524 . S
C1384 C1385 1.415 . S
C1385 H1355 0.950 . S
C1385 C1380 1.363 . S
C1385 C1384 1.415 . S
H1386 C1383 0.999 . S
H1387 C1368 0.913 . S
C207 N83 1.430 . S
C222 C120 1.335 . S
C272 C128 1.334 . S
C257 N96 1.430 . S
C322 C132 1.323 . S
C307 N57 1.425 . S
C357 N70 1.425 . S
C372 C108 1.323 . S
C422 C149 1.334 . S
C407 N31 1.429 . S
C472 C183 1.335 . S
C457 N44 1.429 . S
C507 N5 1.424 . S
C522 C171 1.324 . S
C557 N18 1.424 . S
C572 C153 1.325 . S
C622 C107 1.350 . S
C607 N14 1.476 . S
C672 C141 1.349 . S
C657 N1 1.475 . S
C722 C145 1.348 . S
C707 N40 1.477 . S
C772 C123 1.346 . S
C757 N27 1.476 . S
C822 C162 1.350 . S
C807 N66 1.481 . S
C857 N53 1.481 . S
C872 C170 1.350 . S
C922 C186 1.347 . S
C907 N92 1.481 . S
C957 N79 1.482 . S
C972 C166 1.348 . S
C1022 C111 1.380 . S
C1007 N2 1.546 . S
C1072 C129 1.380 . S
C1057 N15 1.546 . S
C1107 N28 1.540 . S
C1122 C144 1.382 . S
C1172 C124 1.381 . S
C1157 N41 1.540 . S
C1222 C150 1.380 . S
C1207 N54 1.549 . S
C1257 N67 1.549 . S
C1272 C174 1.381 . S
C1307 N80 1.543 . S
C1322 C187 1.381 . S
C1357 N93 1.543 . S
C1372 C165 1.382 . S
