# Generated by pormake.
# Topology zzz, (3,6)-cn, num edge types: 1
# Building blocks:
#     Node 0, Type 0, BuildingBlock: KAKCAD_clean_linker_0, # of connection points: 3
#     Node 1, Type 0, BuildingBlock: KAKCAD_clean_linker_0, # of connection points: 3
#     Node 2, Type 0, BuildingBlock: KAKCAD_clean_linker_0, # of connection points: 3
#     Node 3, Type 0, BuildingBlock: KAKCAD_clean_linker_0, # of connection points: 3
#     Node 4, Type 0, BuildingBlock: KAKCAD_clean_linker_0, # of connection points: 3
#     Node 5, Type 0, BuildingBlock: KAKCAD_clean_linker_0, # of connection points: 3
#     Node 6, Type 0, BuildingBlock: KAKCAD_clean_linker_0, # of connection points: 3
#     Node 7, Type 0, BuildingBlock: KAKCAD_clean_linker_0, # of connection points: 3
#     Node 8, Type 1, BuildingBlock: BETDIP_clean_sbu_0, # of connection points: 6
#     Node 9, Type 1, BuildingBlock: BETDIP_clean_sbu_0, # of connection points: 6
#     Node 10, Type 1, BuildingBlock: BETDIP_clean_sbu_0, # of connection points: 6
#     Node 11, Type 1, BuildingBlock: BETDIP_clean_sbu_0, # of connection points: 6
#     Edge 12, Type (0, 1), BuildingBlock: XIVTED_clean_linker_0, # of connection points: 2
#     Edge 13, Type (0, 1), BuildingBlock: XIVTED_clean_linker_0, # of connection points: 2
#     Edge 14, Type (0, 1), BuildingBlock: XIVTED_clean_linker_0, # of connection points: 2
#     Edge 15, Type (0, 1), BuildingBlock: XIVTED_clean_linker_0, # of connection points: 2
#     Edge 16, Type (0, 1), BuildingBlock: XIVTED_clean_linker_0, # of connection points: 2
#     Edge 17, Type (0, 1), BuildingBlock: XIVTED_clean_linker_0, # of connection points: 2
#     Edge 18, Type (0, 1), BuildingBlock: XIVTED_clean_linker_0, # of connection points: 2
#     Edge 19, Type (0, 1), BuildingBlock: XIVTED_clean_linker_0, # of connection points: 2
#     Edge 20, Type (0, 1), BuildingBlock: XIVTED_clean_linker_0, # of connection points: 2
#     Edge 21, Type (0, 1), BuildingBlock: XIVTED_clean_linker_0, # of connection points: 2
#     Edge 22, Type (0, 1), BuildingBlock: XIVTED_clean_linker_0, # of connection points: 2
#     Edge 23, Type (0, 1), BuildingBlock: XIVTED_clean_linker_0, # of connection points: 2
#     Edge 24, Type (0, 1), BuildingBlock: XIVTED_clean_linker_0, # of connection points: 2
#     Edge 25, Type (0, 1), BuildingBlock: XIVTED_clean_linker_0, # of connection points: 2
#     Edge 26, Type (0, 1), BuildingBlock: XIVTED_clean_linker_0, # of connection points: 2
#     Edge 27, Type (0, 1), BuildingBlock: XIVTED_clean_linker_0, # of connection points: 2
#     Edge 28, Type (0, 1), BuildingBlock: XIVTED_clean_linker_0, # of connection points: 2
#     Edge 29, Type (0, 1), BuildingBlock: XIVTED_clean_linker_0, # of connection points: 2
#     Edge 30, Type (0, 1), BuildingBlock: XIVTED_clean_linker_0, # of connection points: 2
#     Edge 31, Type (0, 1), BuildingBlock: XIVTED_clean_linker_0, # of connection points: 2
#     Edge 32, Type (0, 1), BuildingBlock: XIVTED_clean_linker_0, # of connection points: 2
#     Edge 33, Type (0, 1), BuildingBlock: XIVTED_clean_linker_0, # of connection points: 2
#     Edge 34, Type (0, 1), BuildingBlock: XIVTED_clean_linker_0, # of connection points: 2
#     Edge 35, Type (0, 1), BuildingBlock: XIVTED_clean_linker_0, # of connection points: 2
# Relax obj value: 0.438
# Max RMSD: 0.264
# Mean RMSD: 0.241
data_MOF--net-zzz--node1-BETDIP_clean_sbu_0--node2-KAKCAD_clean_linker_0--edge1-XIVTED_clean_linker_0
_symmetry_space_group_name_H-M    P1
_symmetry_Int_Tables_number       1
_symmetry_cell_setting            triclinic
loop_
_symmetry_equiv_pos_as_xyz
'x, y, z'
_cell_length_a     59.94381
_cell_length_b     59.944697
_cell_length_c     18.654343
_cell_angle_alpha  89.802735
_cell_angle_beta   90.034912
_cell_angle_gamma 89.992957
loop_
_atom_site_label
_atom_site_type_symbol
_atom_site_fract_x
_atom_site_fract_y
_atom_site_fract_z
_atom_type_partial_charge
C0 C 0.75441 0.42261 0.06897 0.0
C1 C 0.77352 0.41083 0.09134 0.0
C2 C 0.74189 0.4349 0.11808 0.0
C3 C 0.74764 0.43498 0.19124 0.0
C4 C 0.76447 0.42035 0.2148 0.0
C5 C 0.77748 0.4087 0.16549 0.0
C6 C 0.73858 0.45244 0.24013 0.0
C7 C 0.7171 0.46119 0.23043 0.0
C8 C 0.70996 0.48025 0.26781 0.0
C9 C 0.72454 0.49034 0.31783 0.0
C10 C 0.7457 0.48086 0.33129 0.0
C11 C 0.75253 0.46226 0.29156 0.0
C12 C 0.76186 0.49001 0.38414 0.0
C13 C 0.77239 0.51061 0.37217 0.0
C14 C 0.77036 0.47583 0.43773 0.0
C15 C 0.78976 0.48138 0.47534 0.0
C16 C 0.80133 0.50128 0.46026 0.0
C17 C 0.68777 0.48977 0.24879 0.0
C18 C 0.68588 0.51171 0.22281 0.0
C19 C 0.66915 0.4756 0.24384 0.0
C20 C 0.64971 0.48254 0.20874 0.0
C21 C 0.64831 0.50391 0.17763 0.0
C22 C 0.66636 0.51871 0.18754 0.0
C23 C 0.79193 0.5162 0.40985 0.0
H24 H 0.75006 0.42382 0.01278 0.0
H25 H 0.72889 0.44565 0.09731 0.0
H26 H 0.76873 0.4191 0.27109 0.0
H27 H 0.79177 0.39966 0.18588 0.0
H28 H 0.70608 0.45367 0.19133 0.0
H29 H 0.76941 0.45619 0.29874 0.0
H30 H 0.71935 0.50512 0.34663 0.0
H31 H 0.76639 0.5217 0.33042 0.0
H32 H 0.76274 0.4597 0.44729 0.0
H33 H 0.79644 0.4693 0.5129 0.0
H34 H 0.69999 0.52296 0.22543 0.0
H35 H 0.67011 0.45859 0.26343 0.0
H36 H 0.80011 0.53185 0.39753 0.0
H37 H 0.66577 0.53544 0.16564 0.0
H38 H 0.63638 0.47054 0.20209 0.0
C39 C 0.08196 0.77827 0.10773 0.0
C40 C 0.0971 0.79092 0.14864 0.0
C41 C 0.06866 0.76204 0.14032 0.0
C42 C 0.07011 0.75833 0.2144 0.0
C43 C 0.08699 0.76898 0.25368 0.0
C44 C 0.10057 0.78495 0.22086 0.0
C45 C 0.05137 0.7473 0.25177 0.0
C46 C 0.04338 0.72655 0.22961 0.0
C47 C 0.02343 0.71776 0.2577 0.0
C48 C 0.01098 0.73054 0.30739 0.0
C49 C 0.01933 0.75132 0.33117 0.0
C50 C 0.03956 0.75926 0.30349 0.0
C51 C 0.00733 0.76628 0.38153 0.0
C52 C 0.98901 0.77885 0.35753 0.0
C53 C 0.01795 0.7726 0.4455 0.0
C54 C 0.01152 0.79196 0.48186 0.0
C55 C 0.99431 0.80564 0.45504 0.0
C56 C 0.01629 0.6954 0.23185 0.0
C57 C 0.99681 0.69276 0.19072 0.0
C58 C 0.03141 0.67752 0.23628 0.0
C59 C 0.02813 0.65818 0.19604 0.0
C60 C 0.00965 0.65617 0.15011 0.0
C61 C 0.99348 0.67325 0.15025 0.0
C62 C 0.98254 0.79831 0.39394 0.0
H63 H 0.07864 0.78232 0.05215 0.0
H64 H 0.05572 0.75408 0.10894 0.0
H65 H 0.08857 0.76612 0.31084 0.0
H66 H 0.11255 0.79385 0.2535 0.0
H67 H 0.0525 0.7174 0.18897 0.0
H68 H 0.04548 0.77564 0.3193 0.0
H69 H 0.9953 0.72427 0.32805 0.0
H70 H 0.98082 0.77464 0.3076 0.0
H71 H 0.03245 0.76349 0.46431 0.0
H72 H 0.0212 0.79699 0.52807 0.0
H73 H 0.98503 0.70638 0.18566 0.0
H74 H 0.04655 0.6791 0.2676 0.0
H75 H 0.96894 0.80813 0.37227 0.0
H76 H 0.9791 0.67224 0.11526 0.0
H77 H 0.0407 0.64521 0.19811 0.0
C78 C 0.74766 0.08743 0.05207 0.0
C79 C 0.72936 0.10054 0.07319 0.0
C80 C 0.75917 0.07445 0.10215 0.0
C81 C 0.75324 0.0749 0.17517 0.0
C82 C 0.73711 0.09045 0.19738 0.0
C83 C 0.72509 0.10287 0.14702 0.0
C84 C 0.76171 0.05744 0.2256 0.0
C85 C 0.78274 0.04773 0.21573 0.0
C86 C 0.78926 0.02873 0.25458 0.0
C87 C 0.77481 0.01974 0.30704 0.0
C88 C 0.75419 0.03027 0.32105 0.0
C89 C 0.74776 0.04871 0.27925 0.0
C90 C 0.7383 0.02243 0.377 0.0
C91 C 0.72761 1.00167 0.37124 0.0
C92 C 0.73058 0.03767 0.42845 0.0
C93 C 0.7118 0.03289 0.47022 0.0
C94 C 0.70008 0.01274 0.4615 0.0
C95 C 0.81085 0.01843 0.23456 0.0
C96 C 0.81116 1.00019 0.18746 0.0
C97 C 0.83056 0.03066 0.24482 0.0
C98 C 0.8496 0.02606 0.20413 0.0
C99 C 0.84931 0.00921 0.1518 0.0
C100 C 0.83026 0.99556 0.14656 0.0
C101 C 0.70866 0.99689 0.41298 0.0
H102 H 0.75213 0.08587 0.9961 0.0
H103 H 0.77156 0.06291 0.08222 0.0
H104 H 0.73272 0.09208 0.2534 0.0
H105 H 0.71132 0.11286 0.16621 0.0
H106 H 0.794 0.05449 0.17572 0.0
H107 H 0.73122 0.05557 0.28693 0.0
H108 H 0.77969 1.00505 0.33717 0.0
H109 H 0.73303 0.98975 0.33139 0.0
H110 H 0.73838 0.0539 0.43344 0.0
H111 H 0.70571 0.04565 0.50619 0.0
H112 H 0.79602 0.99084 0.1774 0.0
H113 H 0.83064 0.04501 0.28 0.0
H114 H 0.7003 0.98105 0.4055 0.0
H115 H 0.82942 0.98251 0.10662 0.0
H116 H 0.8641 0.03665 0.21043 0.0
C117 C 0.47128 0.72249 0.50531 0.0
C118 C 0.49076 0.71044 0.48897 0.0
C119 C 0.46548 0.74154 0.46599 0.0
C120 C 0.47902 0.74917 0.40952 0.0
C121 C 0.49935 0.73827 0.3966 0.0
C122 C 0.50515 0.71908 0.43585 0.0
C123 C 0.46941 0.76459 0.35506 0.0
C124 C 0.47977 0.78473 0.33372 0.0
C125 C 0.47001 0.79807 0.27931 0.0
C126 C 0.45071 0.79038 0.24423 0.0
C127 C 0.44076 0.77017 0.26377 0.0
C128 C 0.44986 0.75773 0.32019 0.0
C129 C 0.42304 0.76011 0.2192 0.0
C130 C 0.40425 0.75031 0.2512 0.0
C131 C 0.4269 0.7568 0.14588 0.0
C132 C 0.4137 0.74193 0.10716 0.0
C133 C 0.39621 0.73022 0.14091 0.0
C134 C 0.4798 0.81964 0.25511 0.0
C135 C 0.46583 0.83829 0.24627 0.0
C136 C 0.50193 0.82098 0.23078 0.0
C137 C 0.50942 0.84007 0.19403 0.0
C138 C 0.49496 0.85823 0.18126 0.0
C139 C 0.47328 0.8573 0.20994 0.0
C140 C 0.39077 0.73571 0.21214 0.0
H141 H 0.45965 0.71638 0.54519 0.0
H142 H 0.44958 0.74948 0.47653 0.0
H143 H 0.50995 0.7436 0.35277 0.0
H144 H 0.52048 0.71048 0.42254 0.0
H145 H 0.495 0.79009 0.35977 0.0
H146 H 0.44251 0.74174 0.33393 0.0
H147 H 0.44375 0.79984 0.19987 0.0
H148 H 0.40081 0.75287 0.30759 0.0
H149 H 0.44137 0.76408 0.12005 0.0
H150 H 0.41864 0.73816 0.05274 0.0
H151 H 0.44869 0.83775 0.2646 0.0
H152 H 0.51302 0.80682 0.23648 0.0
H153 H 0.37703 0.72757 0.23932 0.0
H154 H 0.46153 0.87073 0.20086 0.0
H155 H 0.52634 0.8403 0.17375 0.0
C156 C 0.22414 0.61833 0.1907 0.0
C157 C 0.21751 0.61484 0.26222 0.0
C158 C 0.24028 0.60462 0.15955 0.0
C159 C 0.25031 0.5875 0.19977 0.0
C160 C 0.24603 0.58614 0.27358 0.0
C161 C 0.22973 0.59964 0.30454 0.0
C162 C 0.26094 0.56835 0.16331 0.0
C163 C 0.28064 0.55883 0.18952 0.0
C164 C 0.28842 0.53825 0.16325 0.0
C165 C 0.27564 0.52683 0.11099 0.0
C166 C 0.25606 0.5367 0.0829 0.0
C167 C 0.24917 0.55748 0.10895 0.0
C168 C 0.24099 0.52544 0.03094 0.0
C169 C 0.23446 0.5369 0.96847 0.0
C170 C 0.22898 0.50635 0.05144 0.0
C171 C 0.20976 0.49996 0.01348 0.0
C172 C 0.20216 0.51254 0.95418 0.0
C173 C 0.30937 0.52891 0.19447 0.0
C174 C 0.32798 0.54289 0.20388 0.0
C175 C 0.31012 0.50724 0.22334 0.0
C176 C 0.32851 0.50026 0.26453 0.0
C177 C 0.34661 0.51478 0.27742 0.0
C178 C 0.34629 0.53596 0.24472 0.0
C179 C 0.21536 0.53054 0.93053 0.0
H180 H 0.21554 0.63033 0.1571 0.0
H181 H 0.24359 0.6062 0.10267 0.0
H182 H 0.25349 0.57305 0.30583 0.0
H183 H 0.22516 0.59637 0.35971 0.0
H184 H 0.28952 0.56714 0.23248 0.0
H185 H 0.2335 0.56448 0.0903 0.0
H186 H 0.28098 0.51065 0.09183 0.0
H187 H 0.24325 0.55186 0.95202 0.0
H188 H 0.23342 0.4974 0.09993 0.0
H189 H 0.20031 0.48575 0.03257 0.0
H190 H 0.32798 0.55965 0.18193 0.0
H191 H 0.29601 0.49611 0.21731 0.0
H192 H 0.21011 0.54079 0.88569 0.0
H193 H 0.35968 0.54775 0.25361 0.0
H194 H 0.32828 0.48369 0.28777 0.0
C195 C 0.09667 0.22993 0.31629 0.0
C196 C 0.10292 0.20975 0.28315 0.0
C197 C 0.0862 0.2468 0.27677 0.0
C198 C 0.08288 0.24437 0.2026 0.0
C199 C 0.09356 0.22655 0.16786 0.0
C200 C 0.10305 0.20922 0.20756 0.0
C201 C 0.06515 0.25736 0.16477 0.0
C202 C 0.05969 0.27924 0.18469 0.0
C203 C 0.04038 0.28987 0.15795 0.0
C204 C 0.02652 0.27828 0.10906 0.0
C205 C 0.03244 0.25663 0.08641 0.0
C206 C 0.0515 0.24648 0.11484 0.0
C207 C 0.01895 0.24294 0.03636 0.0
C208 C 1.00149 0.22978 0.06341 0.0
C209 C 0.02803 0.23756 0.96918 0.0
C210 C 0.02107 0.21843 0.93246 0.0
C211 C 1.00493 0.20407 0.96231 0.0
C212 C 0.03468 0.31246 0.18612 0.0
C213 C 0.01353 0.31699 0.21531 0.0
C214 C 0.05154 0.32863 0.19337 0.0
C215 C 0.04793 0.34799 0.23331 0.0
C216 C 0.02732 0.35183 0.26694 0.0
C217 C 0.00987 0.33651 0.25527 0.0
C218 C 0.9945 0.21059 0.0267 0.0
H219 H 0.09787 0.23204 0.3737 0.0
H220 H 0.07893 0.2606 0.3058 0.0
H221 H 0.09262 0.2248 0.11016 0.0
H222 H 0.10831 0.19465 0.17819 0.0
H223 H 0.07005 0.28778 0.22347 0.0
H224 H 0.05487 0.22931 0.10037 0.0
H225 H 0.01147 0.28602 0.08862 0.0
H226 H 0.99459 0.23323 0.11587 0.0
H227 H 0.04195 0.24707 0.94811 0.0
H228 H 0.02968 0.21401 0.88352 0.0
H229 H 1.00024 0.30482 0.21112 0.0
H230 H 0.06792 0.32583 0.17063 0.0
H231 H 0.98173 0.20024 0.05078 0.0
H232 H 0.99378 0.33895 0.28047 0.0
H233 H 0.06158 0.35965 0.23979 0.0
C234 C 0.27175 0.9092 0.28475 0.0
C235 C 0.27645 0.91545 0.35592 0.0
C236 C 0.25925 0.92318 0.24012 0.0
C237 C 0.25064 0.94329 0.26648 0.0
C238 C 0.2533 0.94846 0.33916 0.0
C239 C 0.2662 0.93478 0.38338 0.0
C240 C 0.24135 0.96018 0.21715 0.0
C241 C 0.22052 0.96968 0.23025 0.0
C242 C 0.21246 0.98729 0.18764 0.0
C243 C 0.22614 0.99611 0.13257 0.0
C244 C 0.24715 0.98628 0.11838 0.0
C245 C 0.25436 0.96824 0.16059 0.0
C246 C 0.2627 0.99452 0.06217 0.0
C247 C 0.27048 0.97957 0.00995 0.0
C248 C 0.27359 0.0151 0.07002 0.0
C249 C 0.29284 0.01994 0.02984 0.0
C250 C 0.30153 1.0043 0.98086 0.0
C251 C 0.1896 0.99556 0.20322 0.0
C252 C 0.17212 0.98002 0.20709 0.0
C253 C 0.18586 0.01731 0.22819 0.0
C254 C 0.16554 0.02283 0.26147 0.0
C255 C 0.14864 1.00663 0.27085 0.0
C256 C 0.15205 0.98539 0.24068 0.0
C257 C 0.28957 0.98441 0.96968 0.0
H258 H 0.27879 0.89414 0.26221 0.0
H259 H 0.25709 0.91877 0.18427 0.0
H260 H 0.24684 0.96396 0.36048 0.0
H261 H 0.26952 0.94044 0.43737 0.0
H262 H 0.21054 0.96336 0.27439 0.0
H263 H 0.27074 0.96109 0.15147 0.0
H264 H 0.22033 0.00998 0.10021 0.0
H265 H 0.26259 0.96344 1.00363 0.0
H266 H 0.26817 0.02675 0.11069 0.0
H267 H 0.30138 0.03558 0.03916 0.0
H268 H 0.17459 0.96309 0.18851 0.0
H269 H 0.19913 0.02956 0.22631 0.0
H270 H 0.29574 0.97183 0.93321 0.0
H271 H 0.1399 0.97219 0.24708 0.0
H272 H 0.16349 0.03953 0.28231 0.0
C273 C 0.49034 0.2989 0.031 0.0
C274 C 0.50512 0.30836 0.98046 0.0
C275 C 0.49624 0.2796 0.06962 0.0
C276 C 0.51704 0.26941 0.05859 0.0
C277 C 0.53113 0.27798 1.00498 0.0
C278 C 0.52525 0.29713 0.96632 0.0
C279 C 0.52633 0.25345 0.11203 0.0
C280 C 0.51691 0.2323 0.12612 0.0
C281 C 0.52702 0.21791 0.17686 0.0
C282 C 0.54604 0.2252 0.21427 0.0
C283 C 0.5547 0.24671 0.20411 0.0
C284 C 0.54487 0.26047 0.1519 0.0
C285 C 0.572 0.25597 0.25339 0.0
C286 C 0.57211 0.25015 0.32657 0.0
C287 C 0.58649 0.27296 0.23012 0.0
C288 C 0.59808 0.28596 0.27965 0.0
C289 C 0.59605 0.28183 0.35375 0.0
C290 C 0.51741 0.19583 0.19692 0.0
C291 C 0.49537 0.19413 0.2218 0.0
C292 C 0.53155 0.17724 0.20403 0.0
C293 C 0.52448 0.15808 0.24043 0.0
C294 C 0.503 0.15693 0.27065 0.0
C295 C 0.48824 0.17488 0.25832 0.0
C296 C 0.58435 0.26265 0.37587 0.0
H297 H 0.47455 0.30686 0.04262 0.0
H298 H 0.48521 0.27353 0.11133 0.0
H299 H 0.5474 0.27061 0.99608 0.0
H300 H 0.53722 0.3039 0.92862 0.0
H301 H 0.50214 0.227 0.09732 0.0
H302 H 0.55084 0.27737 0.14426 0.0
H303 H 0.55357 0.21429 0.25389 0.0
H304 H 0.56145 0.23706 0.34722 0.0
H305 H 0.58772 0.27731 0.17388 0.0
H306 H 0.60704 0.30032 0.2595 0.0
H307 H 0.48413 0.20822 0.21745 0.0
H308 H 0.54863 0.17805 0.18522 0.0
H309 H 0.58319 0.25819 0.43201 0.0
H310 H 0.47142 0.17446 0.27942 0.0
H311 H 0.53645 0.1448 0.24889 0.0
Tb312 Tb 0.00717 0.99741 0.76903 0.0
Tb313 Tb 0.98688 0.01475 0.63541 0.0
C314 C 0.02164 0.9874 0.89127 0.0
C315 C 0.03751 0.97044 0.91656 0.0
C316 C 0.0365 0.96278 0.98742 0.0
C317 C 0.05107 0.94607 0.01098 0.0
C318 C 0.0669 0.93678 0.96393 0.0
C319 C 0.0681 0.94489 0.89325 0.0
C320 C 0.05349 0.9615 0.86975 0.0
C321 C 0.03462 1.00279 0.65948 0.0
C322 C 0.99184 0.96159 0.6584 0.0
C323 C 0.98514 0.02645 0.50707 0.0
C324 C 0.99879 0.04397 0.47254 0.0
C325 C 0.01605 0.03791 0.4254 0.0
C326 C 0.03267 0.05326 0.40688 0.0
C327 C 0.03233 0.07493 0.43536 0.0
C328 C 0.01413 0.08141 0.47804 0.0
C329 C 0.9976 0.06612 0.4966 0.0
C330 C 0.95785 0.0103 0.74029 0.0
C331 C 0.998 0.04897 0.75254 0.0
O332 O 1.00276 0.97984 0.86567 0.0
O333 O 0.03021 1.00314 0.85109 0.0
O334 O 0.01942 0.0158 0.67878 0.0
O335 O 0.03533 0.98603 0.70306 0.0
O336 O 0.99879 0.96494 0.72482 0.0
O337 O 0.98667 0.97848 0.61521 0.0
O338 O 0.99662 0.00918 0.52925 0.0
O339 O 0.97045 0.03299 0.55478 0.0
O340 O 0.97401 0.99743 0.72742 0.0
O341 O 0.95586 0.02455 0.68813 0.0
O342 O 0.99873 0.04575 0.68259 0.0
O343 O 0.99723 0.03168 0.79676 0.0
H344 H 0.02422 0.96945 0.02417 0.0
H345 H 0.04941 0.93994 0.06539 0.0
H346 H 0.08021 0.93827 0.85589 0.0
H347 H 0.05459 0.96723 0.81481 0.0
H348 H 0.01747 0.02089 0.40653 0.0
H349 H 0.04641 0.04776 0.37366 0.0
H350 H 0.01294 0.09821 0.49886 0.0
H351 H 0.98457 0.07143 0.53294 0.0
Tb352 Tb 0.50749 0.02383 0.78111 0.0
Tb353 Tb 0.49581 0.99159 0.67477 0.0
C354 C 0.52561 0.04641 0.87839 0.0
C355 C 0.54517 0.06104 0.87911 0.0
C356 C 0.55573 0.06703 0.81475 0.0
C357 C 0.57513 0.07991 0.81587 0.0
C358 C 0.5843 0.08695 0.88143 0.0
C359 C 0.57318 0.08145 0.9456 0.0
C360 C 0.55376 0.06858 0.94436 0.0
C361 C 0.49259 0.04209 0.66034 0.0
C362 C 0.54497 1.00669 0.67193 0.0
C363 C 0.47792 0.96861 0.57808 0.0
C364 C 0.45757 0.95491 0.57324 0.0
C365 C 0.43645 0.96396 0.58755 0.0
C366 C 0.41738 0.95074 0.58208 0.0
C367 C 0.41902 0.92818 0.56213 0.0
C368 C 0.44024 0.91904 0.5494 0.0
C369 C 0.45933 0.9323 0.55482 0.0
C370 C 0.51099 0.97354 0.79566 0.0
C371 C 0.4583 0.00885 0.78305 0.0
O372 O 0.52976 0.02525 0.86782 0.0
O373 O 0.50888 0.0535 0.83978 0.0
O374 O 0.50559 0.02567 0.66565 0.0
O375 O 0.48823 0.0492 0.724 0.0
O376 O 0.5406 0.01536 0.73566 0.0
O377 O 0.52856 0.99915 0.63166 0.0
O378 O 0.47531 0.99022 0.5838 0.0
O379 O 0.49332 0.96101 0.62114 0.0
O380 O 0.49769 0.98972 0.79026 0.0
O381 O 0.51575 0.96674 0.7319 0.0
O382 O 0.4627 1.00046 0.71899 0.0
O383 O 0.47473 0.01597 0.82406 0.0
H384 H 0.54919 0.06139 0.76377 0.0
H385 H 0.58319 0.08399 0.76556 0.0
H386 H 0.57999 0.08622 0.99709 0.0
H387 H 0.54578 0.06406 0.99445 0.0
H388 H 0.43457 0.98135 0.6018 0.0
H389 H 0.40128 0.95847 0.59084 0.0
H390 H 0.44208 0.9017 0.53438 0.0
H391 H 0.47548 0.92494 0.54404 0.0
Tb392 Tb 0.4813 0.51419 0.78642 0.0
Tb393 Tb 0.51249 0.50344 0.67436 0.0
C394 C 0.46004 0.53035 0.8903 0.0
C395 C 0.44537 0.54963 0.90276 0.0
C396 C 0.45083 0.57094 0.87689 0.0
C397 C 0.437 0.58911 0.89133 0.0
C398 C 0.41739 0.58632 0.93185 0.0
C399 C 0.41165 0.5648 0.95583 0.0
C400 C 0.42554 0.54664 0.94143 0.0
C401 C 0.46182 0.5008 0.66601 0.0
C402 C 0.49784 0.5528 0.67942 0.0
C403 C 0.53401 0.48622 0.57303 0.0
C404 C 0.54636 0.46511 0.5649 0.0
C405 C 0.53602 0.44449 0.57792 0.0
C406 C 0.5482 0.42473 0.57322 0.0
C407 C 0.571 0.42513 0.55534 0.0
C408 C 0.58131 0.44579 0.54198 0.0
C409 C 0.56909 0.4656 0.54677 0.0
C410 C 0.53174 0.51736 0.79437 0.0
C411 C 0.49622 0.46488 0.78089 0.0
O412 O 0.48114 0.53448 0.87777 0.0
O413 O 0.45205 0.51502 0.84799 0.0
O414 O 0.47841 0.51357 0.67109 0.0
O415 O 0.45519 0.49583 0.72991 0.0
O416 O 0.48953 0.54777 0.7434 0.0
O417 O 0.50499 0.53686 0.63659 0.0
O418 O 0.51229 0.48486 0.57932 0.0
O419 O 0.54264 0.50037 0.61825 0.0
O420 O 0.51544 0.50418 0.78966 0.0
O421 O 0.53806 0.52263 0.73033 0.0
O422 O 0.50396 0.46993 0.71637 0.0
O423 O 0.4895 0.48085 0.82423 0.0
H424 H 0.46601 0.57364 0.84682 0.0
H425 H 0.44215 0.60548 0.87306 0.0
H426 H 0.39657 0.56204 0.98654 0.0
H427 H 0.42093 0.53027 0.96131 0.0
H428 H 0.5185 0.44355 0.59169 0.0
H429 H 0.53958 0.40909 0.58218 0.0
H430 H 0.59884 0.44666 0.52831 0.0
H431 H 0.57742 0.48134 0.53679 0.0
Tb432 Tb 0.99666 0.49107 0.76277 0.0
Tb433 Tb 0.01004 0.51942 0.63158 0.0
C434 C 0.97872 0.47412 0.8714 0.0
C435 C 0.95751 0.46211 0.88244 0.0
C436 C 0.93695 0.47221 0.86656 0.0
C437 C 0.91716 0.46012 0.87272 0.0
C438 C 0.91746 0.43763 0.89468 0.0
C439 C 0.93805 0.42761 0.91117 0.0
C440 C 0.95787 0.43976 0.90521 0.0
C441 C 0.011 0.46893 0.64923 0.0
C442 C 0.95885 0.50714 0.65212 0.0
C443 C 0.02417 0.53161 0.51174 0.0
C444 C 0.04131 0.54769 0.48869 0.0
C445 C 0.06221 0.54852 0.52255 0.0
C446 C 0.07816 0.56408 0.50072 0.0
C447 C 0.07347 0.57934 0.44518 0.0
C448 C 0.05229 0.57877 0.41259 0.0
C449 C 0.0364 0.56304 0.43404 0.0
C450 C 1.00592 0.54539 0.74699 0.0
C451 C 0.04624 0.50582 0.74905 0.0
O452 O 0.97748 0.49543 0.85564 0.0
O453 O 0.99338 0.46368 0.83195 0.0
O454 O 0.99867 0.48596 0.64871 0.0
O455 O 0.01493 0.46329 0.71506 0.0
O456 O 0.96386 0.49676 0.71303 0.0
O457 O 0.97434 0.51617 0.61045 0.0
O458 O 0.03126 0.51351 0.5447 0.0
O459 O 1.00659 0.54043 0.54242 0.0
O460 O 1.00274 0.52481 0.74083 0.0
O461 O 0.01205 0.55237 0.68434 0.0
O462 O 0.04228 0.50998 0.68009 0.0
O463 O 0.02985 0.50163 0.79481 0.0
H464 H 0.93609 0.48942 0.84894 0.0
H465 H 0.90158 0.46855 0.86124 0.0
H466 H 0.93889 0.41032 0.92791 0.0
H467 H 0.97355 0.43159 0.91744 0.0
H468 H 0.06632 0.53706 0.56557 0.0
H469 H 0.09438 0.56369 0.52623 0.0
H470 H 0.04797 0.59044 0.37038 0.0
H471 H 0.02024 0.56287 0.408 0.0
H472 H 0.10622 0.98855 0.26038 0.0
H473 H 0.05013 0.04199 0.60222 0.0
H474 H 0.14497 0.03402 0.38987 0.0
H475 H 0.05198 0.9707 0.57335 0.0
H476 H 0.07636 0.04624 0.50101 0.0
H477 H 0.0769 0.98931 0.35117 0.0
C478 C 0.10866 0.99882 0.30733 0.0
C479 C 0.12868 0.0107 0.31779 0.0
C480 C 0.07082 0.02974 0.5168 0.0
C481 C 0.0944 0.01235 0.42032 0.0
C482 C 0.05591 0.02729 0.57415 0.0
C483 C 0.04919 1.00593 0.5964 0.0
C484 C 0.07815 0.01076 0.47983 0.0
C485 C 0.057 0.98742 0.5582 0.0
C486 C 0.09175 0.99933 0.35878 0.0
C487 C 0.13005 0.02451 0.37873 0.0
N488 N 0.07091 0.99026 0.50131 0.0
N489 N 0.11321 0.02486 0.42786 0.0
H490 H 0.47827 0.15886 0.3946 0.0
H491 H 0.51066 0.03579 0.52636 0.0
H492 H 0.51467 0.11231 0.26279 0.0
H493 H 0.47014 0.08143 0.6481 0.0
H494 H 0.5102 0.06225 0.42547 0.0
H495 H 0.47264 0.12949 0.48322 0.0
C496 C 0.48476 0.14238 0.38339 0.0
C497 C 0.49709 0.13825 0.32073 0.0
C498 C 0.50123 0.06638 0.47402 0.0
C499 C 0.49113 0.1044 0.42393 0.0
C500 C 0.50147 0.05126 0.53153 0.0
C501 C 0.49057 0.0565 0.59589 0.0
C502 C 0.49006 0.08691 0.48102 0.0
C503 C 0.47889 0.07677 0.59967 0.0
C504 C 0.48169 0.12559 0.43464 0.0
C505 C 0.5054 0.11651 0.31065 0.0
N506 N 0.4791 0.09126 0.54342 0.0
N507 N 0.50244 0.1005 0.36185 0.0
H508 H 0.34354 0.49109 0.40381 0.0
H509 H 0.46807 0.51901 0.53199 0.0
H510 H 0.39152 0.52507 0.26987 0.0
H511 H 0.42145 0.48003 0.65594 0.0
H512 H 0.44121 0.51972 0.43251 0.0
H513 H 0.37267 0.48488 0.49308 0.0
C514 C 0.36025 0.49696 0.3924 0.0
C515 C 0.36489 0.50877 0.32888 0.0
C516 C 0.43693 0.51085 0.48124 0.0
C517 C 0.39846 0.50209 0.4325 0.0
C518 C 0.45228 0.51042 0.53798 0.0
C519 C 0.44693 0.49957 0.60252 0.0
C520 C 0.41602 0.50043 0.48918 0.0
C521 C 0.42623 0.4887 0.60732 0.0
C522 C 0.3769 0.49356 0.44393 0.0
C523 C 0.38693 0.51626 0.31837 0.0
N524 N 0.41151 0.48955 0.55179 0.0
N525 N 0.40278 0.51295 0.36972 0.0
H526 H 0.99224 0.38147 0.2826 0.0
H527 H 0.04099 0.43515 0.64115 0.0
H528 H 0.05675 0.3649 0.37042 0.0
H529 H 0.98938 0.46779 0.51867 0.0
H530 H 0.04532 0.40782 0.54524 0.0
H531 H 0.98887 0.41157 0.37151 0.0
C532 C 1.00569 0.38417 0.32038 0.0
C533 C 0.02487 0.37068 0.31864 0.0
C534 C 0.03314 0.42103 0.53887 0.0
C535 C 0.02104 0.40492 0.42073 0.0
C536 C 0.03067 0.43664 0.59367 0.0
C537 C 0.01484 0.45376 0.58782 0.0
C538 C 0.01939 0.42221 0.47791 0.0
C539 C 1.00187 0.45488 0.52511 0.0
C540 C 1.00381 0.40142 0.3708 0.0
C541 C 0.0418 0.37502 0.36887 0.0
N542 N 1.00426 0.43917 0.47284 0.0
N543 N 0.03942 0.39158 0.4179 0.0
H544 H 0.8702 0.97209 0.09416 0.0
H545 H 0.92927 0.04237 0.78434 0.0
H546 H 0.86899 0.04396 0.08157 0.0
H547 H 0.95245 0.97645 0.83984 0.0
H548 H 0.90424 0.04156 0.88737 0.0
H549 H 0.89781 0.97159 0.99629 0.0
C550 C 0.87584 0.98773 0.0713 0.0
C551 C 0.86735 0.00811 0.09668 0.0
C552 C 0.91481 0.02724 0.87736 0.0
C553 C 0.89859 0.00761 0.98426 0.0
C554 C 0.92904 0.02766 0.81827 0.0
C555 C 0.9429 0.00943 0.80346 0.0
C556 C 0.91408 0.0083 0.92182 0.0
C557 C 0.94201 0.99086 0.84955 0.0
C558 C 0.89163 0.98743 0.01568 0.0
C559 C 0.87527 0.02786 0.06488 0.0
N560 N 0.92768 0.99067 0.90648 0.0
N561 N 0.89021 0.02709 0.01023 0.0
H562 H 0.48437 0.90293 0.19328 0.0
H563 H 0.53421 0.93464 0.80742 0.0
H564 H 0.52015 0.85689 0.05804 0.0
H565 H 0.49155 0.97852 0.92833 0.0
H566 H 0.53357 0.90797 0.90679 0.0
H567 H 0.49097 0.93247 0.10501 0.0
C568 C 0.49373 0.899 0.14534 0.0
C569 C 0.5015 0.87718 0.13314 0.0
C570 C 0.52448 0.92349 0.91201 0.0
C571 C 0.50928 0.91117 0.03173 0.0
C572 C 0.52488 0.93877 0.85529 0.0
C573 C 0.51275 0.95875 0.85933 0.0
C574 C 0.51183 0.92815 0.97357 0.0
C575 C 0.50106 0.96326 0.92285 0.0
C576 C 0.49754 0.91595 0.095 0.0
C577 C 0.51395 0.87338 0.07048 0.0
N578 N 0.50074 0.94801 0.97725 0.0
N579 N 0.51727 0.8901 0.02209 0.0
H580 H 0.60379 0.49238 0.19118 0.0
H581 H 0.57051 0.54079 0.80423 0.0
H582 H 0.64896 0.5283 0.05239 0.0
H583 H 0.52749 0.49758 0.92726 0.0
H584 H 0.59744 0.54046 0.90253 0.0
H585 H 0.57401 0.49796 0.10308 0.0
C586 C 0.60749 0.50155 0.14253 0.0
C587 C 0.62914 0.50971 0.12941 0.0
C588 C 0.58207 0.53115 0.90846 0.0
C589 C 0.59486 0.51633 0.02822 0.0
C590 C 0.56664 0.53137 0.85232 0.0
C591 C 0.5468 0.51904 0.85729 0.0
C592 C 0.57773 0.51849 0.97042 0.0
C593 C 0.54263 0.50725 0.92108 0.0
C594 C 0.5904 0.50479 0.09228 0.0
C595 C 0.63261 0.52186 0.06574 0.0
N596 N 0.55803 0.50713 0.97496 0.0
N597 N 0.61576 0.52465 0.01758 0.0
H598 H 0.04347 0.64214 0.0643 0.0
H599 H 0.98111 0.54106 0.87188 0.0
H600 H 0.97437 0.62862 0.11191 0.0
H601 H 0.03159 0.58145 0.77056 0.0
H602 H 0.9814 0.56688 0.97526 0.0
H603 H 0.04261 0.61342 0.97211 0.0
C604 C 0.02815 0.63291 0.05602 0.0
C605 C 0.00898 0.63779 0.09624 0.0
C606 C 0.99244 0.56991 0.93035 0.0
C607 C 0.0079 0.60471 0.98997 0.0
C608 C 0.99241 0.55513 0.87186 0.0
C609 C 1.00639 0.55914 0.81282 0.0
C610 C 1.00696 0.58837 0.93008 0.0
C611 C 0.02052 0.57777 0.81489 0.0
C612 C 0.02765 0.6166 1.00297 0.0
C613 C 0.9895 0.62546 0.08198 0.0
N614 N 0.02055 0.59154 0.87251 0.0
N615 N 0.98946 0.60939 0.03012 0.0
H616 H 0.08565 0.20072 0.41825 0.0
H617 H 0.05635 0.08197 0.31138 0.0
H618 H 0.12261 0.16886 0.24727 0.0
H619 H 0.05128 0.10368 0.5312 0.0
H620 H 0.08325 0.11191 0.28879 0.0
H621 H 0.0769 0.16468 0.46645 0.0
C622 C 0.09257 0.18643 0.39104 0.0
C623 C 0.10411 0.18841 0.32548 0.0
C624 C 0.07658 0.10979 0.34232 0.0
C625 C 0.0929 0.14636 0.38052 0.0
C626 C 0.06117 0.09275 0.3552 0.0
C627 C 0.05097 0.09078 0.42266 0.0
C628 C 0.08155 0.12505 0.39703 0.0
C629 C 0.058 0.10515 0.47754 0.0
C630 C 0.08726 0.16556 0.41897 0.0
C631 C 0.1124 0.16855 0.29497 0.0
N632 N 0.07247 0.12196 0.46315 0.0
N633 N 0.10593 0.14835 0.32115 0.0
H634 H 0.28074 0.90944 0.50263 0.0
H635 H 0.41136 0.8992 0.45179 0.0
H636 H 0.31487 0.89694 0.30269 0.0
H637 H 0.37973 0.92758 0.63831 0.0
H638 H 0.3754 0.88462 0.41346 0.0
H639 H 0.31576 0.90274 0.56645 0.0
C640 C 0.29538 0.90484 0.4721 0.0
C641 C 0.2949 0.90461 0.3967 0.0
C642 C 0.37639 0.89364 0.46357 0.0
C643 C 0.33484 0.8965 0.46967 0.0
C644 C 0.39699 0.90188 0.48581 0.0
C645 C 0.39848 0.91515 0.54745 0.0
C646 C 0.35713 0.89891 0.50277 0.0
C647 C 0.37919 0.91804 0.58916 0.0
C648 C 0.31533 0.9009 0.50872 0.0
C649 C 0.31423 0.8976 0.36057 0.0
N650 N 0.3592 0.91038 0.56531 0.0
N651 N 0.33348 0.89428 0.39727 0.0
H652 H 0.63004 0.31334 0.34651 0.0
H653 H 0.5686 0.38752 0.63909 0.0
H654 H 0.57578 0.29142 0.4824 0.0
H655 H 0.60167 0.41419 0.45196 0.0
H656 H 0.5832 0.3506 0.60997 0.0
H657 H 0.63136 0.34826 0.41374 0.0
C658 C 0.61867 0.31554 0.39098 0.0
C659 C 0.60218 0.29951 0.40648 0.0
C660 C 0.58761 0.36465 0.57617 0.0
C661 C 0.60422 0.33917 0.48491 0.0
C662 C 0.57917 0.38568 0.59241 0.0
C663 C 0.58337 0.40385 0.5467 0.0
C664 C 0.60035 0.36175 0.51382 0.0
C665 C 0.59782 0.40064 0.48836 0.0
C666 C 0.61959 0.33545 0.4296 0.0
C667 C 0.58871 0.30306 0.46722 0.0
N668 N 0.60547 0.37987 0.47281 0.0
N669 N 0.58979 0.32262 0.50326 0.0
H670 H 0.20486 0.62803 0.39827 0.0
H671 H 0.08175 0.59199 0.30616 0.0
H672 H 0.179 0.61867 0.1843 0.0
H673 H 0.10586 0.60144 0.52219 0.0
H674 H 0.11436 0.61152 0.26098 0.0
H675 H 0.16662 0.62829 0.44379 0.0
C676 C 0.19119 0.62659 0.36059 0.0
C677 C 0.1953 0.62265 0.28755 0.0
C678 C 0.1124 0.60965 0.31839 0.0
C679 C 0.15153 0.62287 0.3393 0.0
C680 C 0.09362 0.59857 0.3444 0.0
C681 C 0.09123 0.59453 0.41818 0.0
C682 C 0.12915 0.61647 0.36626 0.0
C683 C 0.10736 0.60345 0.46472 0.0
C684 C 0.16934 0.62675 0.38664 0.0
C685 C 0.17686 0.62157 0.24108 0.0
N686 N 0.12585 0.61361 0.43793 0.0
N687 N 0.15585 0.62116 0.26794 0.0
H688 H 0.10968 0.80212 0.01039 0.0
H689 H 0.08758 0.93026 0.09382 0.0
H690 H 0.10236 0.83007 0.22231 0.0
H691 H 0.07812 0.89955 0.88698 0.0
H692 H 0.10514 0.89591 0.13675 0.0
H693 H 0.11086 0.83996 0.96109 0.0
C694 C 0.10882 0.81612 0.04681 0.0
C695 C 0.10519 0.81275 0.1205 0.0
C696 C 0.09957 0.89686 0.08159 0.0
C697 C 0.10673 0.85603 0.06442 0.0
C698 C 0.0894 0.9164 0.0572 0.0
C699 C 0.08089 0.91763 0.98718 0.0
C700 C 0.10116 0.8784 0.03575 0.0
C701 C 0.08434 0.89938 0.94145 0.0
C702 C 0.10954 0.83772 0.01857 0.0
C703 C 0.105 0.83161 0.16516 0.0
N704 N 0.09388 0.88039 0.96688 0.0
N705 N 0.10527 0.8524 0.13626 0.0
H706 H 0.70122 0.13734 0.07729 0.0
H707 H 0.62113 0.07714 0.80092 0.0
H708 H 0.71819 0.08055 0.94573 0.0
H709 H 0.5984 0.12118 0.96835 0.0
H710 H 0.65927 0.08916 0.82333 0.0
H711 H 0.66674 0.14165 0.00851 0.0
C712 C 0.69804 0.12604 0.03334 0.0
C713 C 0.71244 0.10801 0.01951 0.0
C714 C 0.64589 0.09655 0.85421 0.0
C715 C 0.67327 0.11328 0.93966 0.0
C716 C 0.62404 0.0898 0.84113 0.0
C717 C 0.60656 0.09776 0.88405 0.0
C718 C 0.65035 0.11119 0.91103 0.0
C719 C 0.61147 0.1141 0.93552 0.0
C720 C 0.67839 0.12864 0.99382 0.0
C721 C 0.70777 0.0946 0.95957 0.0
N722 N 0.63298 0.11996 0.9486 0.0
N723 N 0.68843 0.09726 0.92291 0.0
H724 H 0.38407 0.69102 0.20655 0.0
H725 H 0.40661 0.62371 0.85312 0.0
H726 H 0.38786 0.72198 0.99734 0.0
H727 H 0.39853 0.59417 0.06288 0.0
H728 H 0.39147 0.65871 0.89929 0.0
H729 H 0.37953 0.65509 0.14989 0.0
C730 C 0.38329 0.6905 0.14862 0.0
C731 C 0.38703 0.70972 0.10688 0.0
C732 C 0.39258 0.64443 0.93481 0.0
C733 C 0.38277 0.66804 0.04138 0.0
C734 C 0.40136 0.62448 0.90861 0.0
C735 C 0.40431 0.60611 0.95456 0.0
C736 C 0.38689 0.64605 0.00765 0.0
C737 C 0.39666 0.60787 0.02542 0.0
C738 C 0.38094 0.66976 0.11614 0.0
C739 C 0.38592 0.70758 0.0319 0.0
N740 N 0.38869 0.62759 0.05003 0.0
N741 N 0.38447 0.68704 1.00153 0.0
H742 H 0.80519 0.37698 0.09917 0.0
H743 H 0.88028 0.43909 0.80887 0.0
H744 H 0.78336 0.43129 0.96277 0.0
H745 H 0.90608 0.40774 1.00051 0.0
H746 H 0.84339 0.42408 0.83681 0.0
H747 H 0.84048 0.37623 0.03361 0.0
C748 C 0.80748 0.38847 0.05491 0.0
C749 C 0.79137 0.40485 0.03893 0.0
C750 C 0.85727 0.42014 0.87185 0.0
C751 C 0.83145 0.40342 0.96232 0.0
C752 C 0.87827 0.42885 0.85637 0.0
C753 C 0.89619 0.42523 0.90356 0.0
C754 C 0.85414 0.40767 0.93481 0.0
C755 C 0.89276 0.41113 0.96287 0.0
C756 C 0.82761 0.38787 0.01725 0.0
C757 C 0.79506 0.41845 0.97838 0.0
N758 N 0.87203 0.40316 0.97749 0.0
N759 N 0.81483 0.41768 0.94324 0.0
H760 H 0.99804 0.16432 0.03303 0.0
H761 H 1.00051 0.08873 0.67861 0.0
H762 H 1.00344 0.1917 0.81942 0.0
H763 H 0.99512 0.06213 0.89318 0.0
H764 H 1.00037 0.12652 0.72819 0.0
H765 H 0.99505 0.12706 0.9819 0.0
C766 C 0.99823 0.16263 0.97527 0.0
C767 C 1.00096 0.18142 0.93072 0.0
C768 C 0.99919 0.11242 0.76443 0.0
C769 C 0.99805 0.13831 0.87146 0.0
C770 C 0.99929 0.09079 0.73614 0.0
C771 C 0.9979 0.0721 0.78171 0.0
C772 C 0.99767 0.11552 0.83897 0.0
C773 C 0.99631 0.07594 0.85584 0.0
C774 C 0.99676 0.14121 0.94606 0.0
C775 C 1.00162 0.17782 0.85619 0.0
N776 N 0.99627 0.09713 0.882 0.0
N777 N 1.00026 0.15676 0.82905 0.0
H778 H 0.31504 0.99306 0.84404 0.0
H779 H 0.44341 0.02483 0.91207 0.0
H780 H 0.33949 0.02249 0.03973 0.0
H781 H 0.41978 0.99418 0.71736 0.0
H782 H 0.40519 0.02547 0.95725 0.0
H783 H 0.35277 0.9949 0.79435 0.0
C784 C 0.32827 1.0 0.87658 0.0
C785 C 0.32391 0.00757 0.94652 0.0
C786 C 0.40832 0.01863 0.90456 0.0
C787 C 0.36738 0.00976 0.8895 0.0
C788 C 0.43021 0.01822 0.87864 0.0
C789 C 0.43496 0.00937 0.81065 0.0
C790 C 0.39086 0.01011 0.86243 0.0
C791 C 0.41702 1.00113 0.77001 0.0
C792 C 0.34985 1.00109 0.848 0.0
C793 C 0.34183 0.0167 0.98538 0.0
N794 N 0.39583 1.00166 0.79651 0.0
N795 N 0.36269 0.01741 0.95658 0.0
H796 H 0.48612 0.34531 0.04281 0.0
H797 H 0.51113 0.42723 0.71115 0.0
H798 H 0.51464 0.323 0.8431 0.0
H799 H 0.48138 0.4486 0.90995 0.0
H800 H 0.51145 0.38883 0.75631 0.0
H801 H 0.48253 0.38276 0.99236 0.0
C802 C 0.49132 0.34813 0.98795 0.0
C803 C 0.50075 0.33078 0.94743 0.0
C804 C 0.50478 0.40191 0.78997 0.0
C805 C 0.4971 0.3741 0.88948 0.0
C806 C 0.5046 0.4239 0.76416 0.0
C807 C 0.49626 0.44131 0.80669 0.0
C808 C 0.49655 0.39719 0.85899 0.0
C809 C 0.48804 0.43583 0.87511 0.0
C810 C 0.48946 0.36966 0.95933 0.0
C811 C 0.50756 0.3358 0.87696 0.0
N812 N 0.48844 0.41435 0.89904 0.0
N813 N 0.5057 0.35694 0.85047 0.0
H814 H 0.16331 0.50043 0.02235 0.0
H815 H 0.08527 0.51394 0.67475 0.0
H816 H 0.1891 0.51615 0.81216 0.0
H817 H 0.0608 0.4976 0.88609 0.0
H818 H 0.12343 0.51379 0.72223 0.0
H819 H 0.12598 0.49755 0.97132 0.0
C820 C 0.16127 0.50293 0.96522 0.0
C821 C 0.17961 0.50854 0.92176 0.0
C822 C 0.1097 0.51019 0.75813 0.0
C823 C 0.13639 0.50577 0.8628 0.0
C824 C 0.08786 0.51031 0.73105 0.0
C825 C 0.06965 0.50582 0.77635 0.0
C826 C 0.11346 0.50556 0.83115 0.0
C827 C 0.07418 0.5012 0.8489 0.0
C828 C 0.1398 0.50151 0.93614 0.0
C829 C 0.17555 0.51207 0.84819 0.0
N830 N 0.09553 0.50122 0.87386 0.0
N831 N 0.15444 0.51071 0.8212 0.0
H832 H 0.98378 0.84481 0.38491 0.0
H833 H 0.9988 0.9222 0.7315 0.0
H834 H 0.99634 0.81872 0.59711 0.0
H835 H 0.98062 0.94758 0.5227 0.0
H836 H 0.99708 0.88422 0.68413 0.0
H837 H 0.9811 0.88225 0.43525 0.0
C838 C 0.98562 0.8468 0.44226 0.0
C839 C 0.99034 0.82833 0.48653 0.0
C840 C 0.99335 0.89808 0.64872 0.0
C841 C 0.9878 0.87164 0.54465 0.0
C842 C 0.99434 0.91984 0.67578 0.0
C843 C 0.98987 0.93827 0.63118 0.0
C844 C 0.98796 0.89457 0.57625 0.0
C845 C 0.98419 0.934 0.55933 0.0
C846 C 0.98429 0.86833 0.47095 0.0
C847 C 0.99302 0.83234 0.5604 0.0
N848 N 0.9835 0.91268 0.53417 0.0
N849 N 0.99184 0.85347 0.58691 0.0
H850 H 0.68754 0.02497 0.59852 0.0
H851 H 0.55956 0.9894 0.54468 0.0
H852 H 0.662 0.99325 0.408 0.0
H853 H 0.58347 0.02325 0.73354 0.0
H854 H 0.59742 0.98919 0.49706 0.0
H855 H 0.65029 0.02283 0.65183 0.0
C856 C 0.67417 0.01746 0.56786 0.0
C857 C 0.67808 0.00935 0.49824 0.0
C858 C 0.59447 0.99664 0.54899 0.0
C859 C 0.63519 1.00679 0.55954 0.0
C860 C 0.57276 0.99679 0.57634 0.0
C861 C 0.56819 1.00639 0.64337 0.0
C862 C 0.61195 1.00617 0.58865 0.0
C863 C 0.58614 0.01565 0.68169 0.0
C864 C 0.65287 0.01621 0.59855 0.0
C865 C 0.66004 0.9995 0.46198 0.0
N866 N 0.60718 0.01535 0.65376 0.0
N867 N 0.63946 0.99862 0.4928 0.0
H868 H 0.48283 0.69667 0.62825 0.0
H869 H 0.5112 0.56834 0.54803 0.0
H870 H 0.50714 0.67257 0.42502 0.0
H871 H 0.48554 0.59117 0.75098 0.0
H872 H 0.51144 0.60675 0.50473 0.0
H873 H 0.48546 0.65873 0.67658 0.0
C874 C 0.48883 0.68347 0.59378 0.0
C875 C 0.49471 0.68799 0.52215 0.0
C876 C 0.50576 0.60342 0.55881 0.0
C877 C 0.4978 0.64432 0.57753 0.0
C878 C 0.5056 0.5814 0.58371 0.0
C879 C 0.49819 0.57634 0.65338 0.0
C880 C 0.49847 0.62073 0.60366 0.0
C881 C 0.49122 0.59415 0.69683 0.0
C882 C 0.49037 0.66178 0.62156 0.0
C883 C 0.50268 0.67012 0.48069 0.0
N884 N 0.49148 0.61549 0.67126 0.0
N885 N 0.50385 0.64916 0.50878 0.0
H886 H 0.83828 0.52022 0.39674 0.0
H887 H 0.92157 0.49016 0.71959 0.0
H888 H 0.81646 0.491 0.59657 0.0
H889 H 0.94181 0.52529 0.52802 0.0
H890 H 0.88301 0.49067 0.67651 0.0
H891 H 0.87597 0.52317 0.44547 0.0
C892 C 0.84124 0.51473 0.45127 0.0
C893 C 0.82395 0.50528 0.49228 0.0
C894 C 0.89588 0.49835 0.64402 0.0
C895 C 0.86756 0.50815 0.54815 0.0
C896 C 0.91797 0.49806 0.66863 0.0
C897 C 0.93514 0.50768 0.62754 0.0
C898 C 0.89078 0.50825 0.57752 0.0
C899 C 0.92927 0.51762 0.56173 0.0
C900 C 0.86292 0.51623 0.47889 0.0
C901 C 0.82919 0.49807 0.56224 0.0
N902 N 0.90769 0.51757 0.53881 0.0
N903 N 0.85046 0.49954 0.58767 0.0
loop_
_geom_bond_atom_site_label_1
_geom_bond_atom_site_label_2
_geom_bond_distance
_geom_bond_site_symmetry_2
_ccdc_geom_bond_type
C0 C1 1.386 . S
C0 C2 1.397 . S
C0 H24 0.931 . S
C1 C0 1.386 . S
C1 C5 1.397 . S
C2 C0 1.397 . S
C2 C3 1.384 . S
C2 H25 0.930 . S
C3 C2 1.384 . S
C3 C4 1.377 . S
C3 C6 1.481 . S
C4 C3 1.377 . S
C4 C5 1.389 . S
C4 H26 0.929 . S
C5 C1 1.397 . S
C5 C4 1.389 . S
C5 H27 0.931 . S
C6 C3 1.481 . S
C6 C7 1.387 . S
C6 C11 1.390 . S
C7 C6 1.387 . S
C7 C8 1.401 . S
C7 H28 0.930 . S
C8 C7 1.401 . S
C8 C9 1.376 . S
C8 C17 1.511 . S
C9 C8 1.376 . S
C9 C10 1.392 . S
C9 H30 0.931 . S
C10 C9 1.392 . S
C10 C11 1.361 . S
C10 C12 1.500 . S
C11 C6 1.390 . S
C11 C10 1.361 . S
C11 H29 0.931 . S
C12 C10 1.500 . S
C12 C13 1.371 . S
C12 C14 1.365 . S
C13 C12 1.371 . S
C13 C23 1.386 . S
C13 H31 0.931 . S
C14 C12 1.365 . S
C14 C15 1.409 . S
C14 H32 0.929 . S
C15 C14 1.409 . S
C15 C16 1.380 . S
C15 H33 0.930 . S
C16 C15 1.380 . S
C16 C23 1.357 . S
C17 C8 1.511 . S
C17 C18 1.341 . S
C17 C19 1.371 . S
C18 C17 1.341 . S
C18 C22 1.394 . S
C18 H34 0.930 . S
C19 C17 1.371 . S
C19 C20 1.392 . S
C19 H35 0.931 . S
C20 C19 1.392 . S
C20 C21 1.331 . S
C20 H38 0.932 . S
C21 C20 1.331 . S
C21 C22 1.336 . S
C22 C18 1.394 . S
C22 C21 1.336 . S
C22 H37 0.929 . S
C23 C13 1.386 . S
C23 C16 1.357 . S
C23 H36 0.928 . S
H24 C0 0.931 . S
H25 C2 0.930 . S
H26 C4 0.929 . S
H27 C5 0.931 . S
H28 C7 0.930 . S
H29 C11 0.931 . S
H30 C9 0.931 . S
H31 C13 0.931 . S
H32 C14 0.929 . S
H33 C15 0.930 . S
H34 C18 0.930 . S
H35 C19 0.931 . S
H36 C23 0.928 . S
H37 C22 0.929 . S
H38 C20 0.932 . S
C39 C40 1.394 . S
C39 C41 1.397 . S
C39 H63 0.931 . S
C40 C39 1.394 . S
C40 C44 1.389 1_655 S
C41 C39 1.397 . S
C41 C42 1.389 . S
C41 H64 0.930 . S
C42 C41 1.389 . S
C42 C43 1.373 1_655 S
C42 C45 1.480 . S
C43 C42 1.373 1_455 S
C43 C44 1.389 . S
C43 H65 0.929 . S
C44 C40 1.389 1_455 S
C44 C43 1.389 . S
C44 H66 0.931 . S
C45 C42 1.480 . S
C45 C46 1.388 . S
C45 C50 1.390 . S
C46 C45 1.388 . S
C46 C47 1.402 . S
C46 H67 0.930 . S
C47 C46 1.402 . S
C47 C48 1.376 . S
C47 C56 1.513 . S
C48 C47 1.376 . S
C48 C49 1.392 . S
C48 H69 0.934 . S
C49 C48 1.392 . S
C49 C50 1.361 . S
C49 C51 1.499 1_655 S
C50 C45 1.390 . S
C50 C49 1.361 . S
C50 H68 0.931 . S
C51 C49 1.499 1_455 S
C51 C52 1.362 1_455 S
C51 C53 1.374 . S
C52 C51 1.362 1_655 S
C52 C62 1.386 . S
C52 H70 0.931 . S
C53 C51 1.374 . S
C53 C54 1.409 . S
C53 H71 0.929 . S
C54 C53 1.409 . S
C54 C55 1.379 . S
C54 H72 0.930 . S
C55 C54 1.379 . S
C55 C62 1.359 1_455 S
C56 C47 1.513 . S
C56 C57 1.341 . S
C56 C58 1.371 1_655 S
C57 C56 1.341 . S
C57 C61 1.394 . S
C57 H73 0.930 . S
C58 C56 1.371 1_455 S
C58 C59 1.392 . S
C58 H74 0.931 . S
C59 C58 1.392 . S
C59 C60 1.322 1_455 S
C59 H77 0.932 . S
C60 C59 1.322 1_655 S
C60 C61 1.345 . S
C61 C57 1.394 . S
C61 C60 1.345 . S
C61 H76 0.929 . S
C62 C52 1.386 . S
C62 C55 1.359 1_655 S
C62 H75 0.928 . S
H63 C39 0.931 . S
H64 C41 0.930 . S
H65 C43 0.929 . S
H66 C44 0.931 . S
H67 C46 0.930 . S
H68 C50 0.931 . S
H69 C48 0.934 . S
H70 C52 0.931 . S
H71 C53 0.929 . S
H72 C54 0.930 . S
H73 C57 0.930 . S
H74 C58 0.931 . S
H75 C62 0.928 . S
H76 C61 0.929 . S
H77 C59 0.932 . S
C78 C79 1.394 . S
C78 C80 1.397 . S
C78 H102 0.931 . S
C79 C78 1.394 . S
C79 C83 1.389 1_565 S
C80 C78 1.397 . S
C80 C81 1.389 . S
C80 H103 0.930 . S
C81 C80 1.389 . S
C81 C82 1.373 1_565 S
C81 C84 1.481 . S
C82 C81 1.373 1_545 S
C82 C83 1.389 . S
C82 H104 0.929 . S
C83 C79 1.389 1_545 S
C83 C82 1.389 . S
C83 H105 0.931 . S
C84 C81 1.481 . S
C84 C85 1.388 . S
C84 C89 1.390 . S
C85 C84 1.388 . S
C85 C86 1.402 . S
C85 H106 0.930 . S
C86 C85 1.402 . S
C86 C87 1.376 . S
C86 C95 1.513 . S
C87 C86 1.376 . S
C87 C88 1.391 . S
C87 H108 0.934 . S
C88 C87 1.391 . S
C88 C89 1.361 . S
C88 C90 1.499 1_565 S
C89 C84 1.390 . S
C89 C88 1.361 . S
C89 H107 0.931 . S
C90 C88 1.499 1_545 S
C90 C91 1.362 1_545 S
C90 C92 1.374 . S
C91 C90 1.362 1_565 S
C91 C101 1.386 . S
C91 H109 0.931 . S
C92 C90 1.374 . S
C92 C93 1.409 . S
C92 H110 0.929 . S
C93 C92 1.409 . S
C93 C94 1.379 . S
C93 H111 0.930 . S
C94 C93 1.379 . S
C94 C101 1.359 1_545 S
C95 C86 1.513 . S
C95 C96 1.341 . S
C95 C97 1.371 1_565 S
C96 C95 1.341 . S
C96 C100 1.394 . S
C96 H112 0.930 . S
C97 C95 1.371 1_545 S
C97 C98 1.392 . S
C97 H113 0.931 . S
C98 C97 1.392 . S
C98 C99 1.322 1_545 S
C98 H116 0.932 . S
C99 C98 1.322 1_565 S
C99 C100 1.345 . S
C100 C96 1.394 . S
C100 C99 1.345 . S
C100 H115 0.929 . S
C101 C91 1.386 . S
C101 C94 1.359 1_565 S
C101 H114 0.928 . S
H102 C78 0.931 . S
H103 C80 0.930 . S
H104 C82 0.929 . S
H105 C83 0.931 . S
H106 C85 0.930 . S
H107 C89 0.931 . S
H108 C87 0.934 . S
H109 C91 0.931 . S
H110 C92 0.929 . S
H111 C93 0.930 . S
H112 C96 0.930 . S
H113 C97 0.931 . S
H114 C101 0.928 . S
H115 C100 0.929 . S
H116 C98 0.932 . S
C117 C118 1.386 . S
C117 C119 1.397 . S
C117 H141 0.931 . S
C118 C117 1.386 . S
C118 C122 1.397 . S
C119 C117 1.397 . S
C119 C120 1.384 . S
C119 H142 0.930 . S
C120 C119 1.384 . S
C120 C121 1.377 . S
C120 C123 1.481 . S
C121 C120 1.377 . S
C121 C122 1.389 . S
C121 H143 0.929 . S
C122 C118 1.397 . S
C122 C121 1.389 . S
C122 H144 0.931 . S
C123 C120 1.481 . S
C123 C124 1.387 . S
C123 C128 1.390 . S
C124 C123 1.387 . S
C124 C125 1.401 . S
C124 H145 0.930 . S
C125 C124 1.401 . S
C125 C126 1.376 . S
C125 C134 1.511 . S
C126 C125 1.376 . S
C126 C127 1.392 . S
C126 H147 0.931 . S
C127 C126 1.392 . S
C127 C128 1.361 . S
C127 C129 1.500 . S
C128 C123 1.390 . S
C128 C127 1.361 . S
C128 H146 0.931 . S
C129 C127 1.500 . S
C129 C130 1.371 . S
C129 C131 1.365 . S
C130 C129 1.371 . S
C130 C140 1.386 . S
C130 H148 0.931 . S
C131 C129 1.365 . S
C131 C132 1.409 . S
C131 H149 0.929 . S
C132 C131 1.409 . S
C132 C133 1.380 . S
C132 H150 0.930 . S
C133 C132 1.380 . S
C133 C140 1.357 . S
C134 C125 1.511 . S
C134 C135 1.341 . S
C134 C136 1.371 . S
C135 C134 1.341 . S
C135 C139 1.394 . S
C135 H151 0.930 . S
C136 C134 1.371 . S
C136 C137 1.392 . S
C136 H152 0.931 . S
C137 C136 1.392 . S
C137 C138 1.331 . S
C137 H155 0.932 . S
C138 C137 1.331 . S
C138 C139 1.336 . S
C139 C135 1.394 . S
C139 C138 1.336 . S
C139 H154 0.929 . S
C140 C130 1.386 . S
C140 C133 1.357 . S
C140 H153 0.928 . S
H141 C117 0.931 . S
H142 C119 0.930 . S
H143 C121 0.929 . S
H144 C122 0.931 . S
H145 C124 0.930 . S
H146 C128 0.931 . S
H147 C126 0.931 . S
H148 C130 0.931 . S
H149 C131 0.929 . S
H150 C132 0.930 . S
H151 C135 0.930 . S
H152 C136 0.931 . S
H153 C140 0.928 . S
H154 C139 0.929 . S
H155 C137 0.932 . S
C156 C157 1.386 . S
C156 C158 1.397 . S
C156 H180 0.931 . S
C157 C156 1.386 . S
C157 C161 1.397 . S
C158 C156 1.397 . S
C158 C159 1.384 . S
C158 H181 0.930 . S
C159 C158 1.384 . S
C159 C160 1.377 . S
C159 C162 1.481 . S
C160 C159 1.377 . S
C160 C161 1.389 . S
C160 H182 0.929 . S
C161 C157 1.397 . S
C161 C160 1.389 . S
C161 H183 0.931 . S
C162 C159 1.481 . S
C162 C163 1.387 . S
C162 C167 1.390 . S
C163 C162 1.387 . S
C163 C164 1.401 . S
C163 H184 0.930 . S
C164 C163 1.401 . S
C164 C165 1.382 . S
C164 C173 1.511 . S
C165 C164 1.382 . S
C165 C166 1.391 1_554 S
C165 H186 0.926 1_554 S
C166 C165 1.391 1_556 S
C166 C167 1.361 1_556 S
C166 C168 1.500 . S
C167 C162 1.390 . S
C167 C166 1.361 1_554 S
C167 H185 0.931 . S
C168 C166 1.500 . S
C168 C169 1.371 . S
C168 C170 1.365 . S
C169 C168 1.371 . S
C169 C179 1.386 . S
C169 H187 0.931 . S
C170 C168 1.365 . S
C170 C171 1.409 . S
C170 H188 0.929 . S
C171 C170 1.409 . S
C171 C172 1.380 . S
C171 H189 0.930 . S
C172 C171 1.380 . S
C172 C179 1.357 . S
C173 C164 1.511 . S
C173 C174 1.341 . S
C173 C175 1.371 . S
C174 C173 1.341 . S
C174 C178 1.394 . S
C174 H190 0.930 . S
C175 C173 1.371 . S
C175 C176 1.392 . S
C175 H191 0.931 1_554 S
C176 C175 1.392 . S
C176 C177 1.331 . S
C176 H194 0.932 . S
C177 C176 1.331 . S
C177 C178 1.336 . S
C178 C174 1.394 . S
C178 C177 1.336 . S
C178 H193 0.929 . S
C179 C169 1.386 . S
C179 C172 1.357 . S
C179 H192 0.928 . S
H180 C156 0.931 . S
H181 C158 0.930 . S
H182 C160 0.929 . S
H183 C161 0.931 . S
H184 C163 0.930 . S
H185 C167 0.931 . S
H186 C165 0.926 1_556 S
H187 C169 0.931 . S
H188 C170 0.929 . S
H189 C171 0.930 . S
H190 C174 0.930 . S
H191 C175 0.931 1_556 S
H192 C179 0.928 . S
H193 C178 0.929 . S
H194 C176 0.932 . S
C195 C196 1.387 . S
C195 C197 1.397 . S
C195 H219 0.931 . S
C196 C195 1.387 . S
C196 C200 1.396 1_655 S
C197 C195 1.397 . S
C197 C198 1.382 . S
C197 H220 0.930 . S
C198 C197 1.382 . S
C198 C199 1.380 1_655 S
C198 C201 1.480 . S
C199 C198 1.380 1_455 S
C199 C200 1.389 . S
C199 H221 0.929 . S
C200 C196 1.396 1_455 S
C200 C199 1.389 . S
C200 H222 0.931 . S
C201 C198 1.480 . S
C201 C202 1.388 . S
C201 C206 1.390 . S
C202 C201 1.388 . S
C202 C203 1.402 . S
C202 H223 0.930 . S
C203 C202 1.402 . S
C203 C204 1.376 . S
C203 C212 1.512 . S
C204 C203 1.376 . S
C204 C205 1.392 1_654 S
C204 H225 0.933 1_554 S
C205 C204 1.392 1_456 S
C205 C206 1.361 1_456 S
C205 C207 1.499 . S
C206 C201 1.390 . S
C206 C205 1.361 1_654 S
C206 H224 0.931 . S
C207 C205 1.499 . S
C207 C208 1.357 1_455 S
C207 C209 1.380 . S
C208 C207 1.357 1_655 S
C208 C218 1.386 . S
C208 H226 0.931 . S
C209 C207 1.380 . S
C209 C210 1.409 . S
C209 H227 0.929 . S
C210 C209 1.409 . S
C210 C211 1.384 . S
C210 H228 0.930 . S
C211 C210 1.384 . S
C211 C218 1.353 1_455 S
C212 C203 1.512 . S
C212 C213 1.341 . S
C212 C214 1.371 1_655 S
C213 C212 1.341 . S
C213 C217 1.394 . S
C213 H229 0.930 . S
C214 C212 1.371 1_455 S
C214 C215 1.392 . S
C214 H230 0.931 1_554 S
C215 C214 1.392 . S
C215 C216 1.326 1_455 S
C215 H233 0.932 . S
C216 C215 1.326 1_655 S
C216 C217 1.341 . S
C217 C213 1.394 . S
C217 C216 1.341 . S
C217 H232 0.929 . S
C218 C208 1.386 . S
C218 C211 1.353 1_655 S
C218 H231 0.928 . S
H219 C195 0.931 . S
H220 C197 0.930 . S
H221 C199 0.929 . S
H222 C200 0.931 . S
H223 C202 0.930 . S
H224 C206 0.931 . S
H225 C204 0.933 1_556 S
H226 C208 0.931 . S
H227 C209 0.929 . S
H228 C210 0.930 . S
H229 C213 0.930 . S
H230 C214 0.931 1_556 S
H231 C218 0.928 . S
H232 C217 0.929 . S
H233 C215 0.932 . S
C234 C235 1.387 . S
C234 C236 1.397 . S
C234 H258 0.931 . S
C235 C234 1.387 . S
C235 C239 1.396 1_565 S
C236 C234 1.397 . S
C236 C237 1.382 . S
C236 H259 0.930 . S
C237 C236 1.382 . S
C237 C238 1.380 1_565 S
C237 C240 1.480 . S
C238 C237 1.380 1_545 S
C238 C239 1.389 . S
C238 H260 0.929 . S
C239 C235 1.396 1_545 S
C239 C238 1.389 . S
C239 H261 0.931 . S
C240 C237 1.480 . S
C240 C241 1.388 . S
C240 C245 1.390 . S
C241 C240 1.388 . S
C241 C242 1.402 . S
C241 H262 0.930 . S
C242 C241 1.402 . S
C242 C243 1.376 . S
C242 C251 1.512 . S
C243 C242 1.376 . S
C243 C244 1.392 1_564 S
C243 H264 0.933 1_554 S
C244 C243 1.392 1_546 S
C244 C245 1.361 1_546 S
C244 C246 1.499 . S
C245 C240 1.390 . S
C245 C244 1.361 1_564 S
C245 H263 0.931 . S
C246 C244 1.499 . S
C246 C247 1.357 1_545 S
C246 C248 1.380 . S
C247 C246 1.357 1_565 S
C247 C257 1.386 . S
C247 H265 0.931 . S
C248 C246 1.380 . S
C248 C249 1.409 . S
C248 H266 0.929 . S
C249 C248 1.409 . S
C249 C250 1.384 . S
C249 H267 0.930 . S
C250 C249 1.384 . S
C250 C257 1.353 1_545 S
C251 C242 1.512 . S
C251 C252 1.341 . S
C251 C253 1.371 1_565 S
C252 C251 1.341 . S
C252 C256 1.394 . S
C252 H268 0.930 . S
C253 C251 1.371 1_545 S
C253 C254 1.392 . S
C253 H269 0.931 1_554 S
C254 C253 1.392 . S
C254 C255 1.326 1_545 S
C254 H272 0.932 . S
C255 C254 1.326 1_565 S
C255 C256 1.341 . S
C256 C252 1.394 . S
C256 C255 1.341 . S
C256 H271 0.929 . S
C257 C247 1.386 . S
C257 C250 1.353 1_565 S
C257 H270 0.928 . S
H258 C234 0.931 . S
H259 C236 0.930 . S
H260 C238 0.929 . S
H261 C239 0.931 . S
H262 C241 0.930 . S
H263 C245 0.931 . S
H264 C243 0.933 1_556 S
H265 C247 0.931 . S
H266 C248 0.929 . S
H267 C249 0.930 . S
H268 C252 0.930 . S
H269 C253 0.931 1_556 S
H270 C257 0.928 . S
H271 C256 0.929 . S
H272 C254 0.932 . S
C273 C274 1.386 . S
C273 C275 1.397 . S
C273 H297 0.931 . S
C274 C273 1.386 . S
C274 C278 1.397 . S
C275 C273 1.397 . S
C275 C276 1.384 . S
C275 H298 0.930 . S
C276 C275 1.384 . S
C276 C277 1.377 . S
C276 C279 1.481 . S
C277 C276 1.377 . S
C277 C278 1.389 . S
C277 H299 0.929 . S
C278 C274 1.397 . S
C278 C277 1.389 . S
C278 H300 0.931 . S
C279 C276 1.481 . S
C279 C280 1.387 1_556 S
C279 C284 1.390 1_556 S
C280 C279 1.387 1_554 S
C280 C281 1.401 . S
C280 H301 0.930 1_554 S
C281 C280 1.401 . S
C281 C282 1.376 . S
C281 C290 1.511 . S
C282 C281 1.376 . S
C282 C283 1.392 . S
C282 H303 0.931 . S
C283 C282 1.392 . S
C283 C284 1.361 . S
C283 C285 1.500 . S
C284 C279 1.390 1_554 S
C284 C283 1.361 . S
C284 H302 0.931 . S
C285 C283 1.500 . S
C285 C286 1.371 . S
C285 C287 1.365 . S
C286 C285 1.371 . S
C286 C296 1.386 . S
C286 H304 0.931 . S
C287 C285 1.365 . S
C287 C288 1.409 . S
C287 H305 0.929 . S
C288 C287 1.409 . S
C288 C289 1.380 . S
C288 H306 0.930 . S
C289 C288 1.380 . S
C289 C296 1.357 . S
C290 C281 1.511 . S
C290 C291 1.341 . S
C290 C292 1.371 . S
C291 C290 1.341 . S
C291 C295 1.394 . S
C291 H307 0.930 1_554 S
C292 C290 1.371 . S
C292 C293 1.392 . S
C292 H308 0.931 . S
C293 C292 1.392 . S
C293 C294 1.331 . S
C293 H311 0.932 . S
C294 C293 1.331 . S
C294 C295 1.336 . S
C295 C291 1.394 . S
C295 C294 1.336 . S
C295 H310 0.929 . S
C296 C286 1.386 . S
C296 C289 1.357 . S
C296 H309 0.928 . S
H297 C273 0.931 . S
H298 C275 0.930 . S
H299 C277 0.929 . S
H300 C278 0.931 . S
H301 C280 0.930 1_556 S
H302 C284 0.931 . S
H303 C282 0.931 . S
H304 C286 0.931 . S
H305 C287 0.929 . S
H306 C288 0.930 . S
H307 C291 0.930 1_556 S
H308 C292 0.931 . S
H309 C296 0.928 . S
H310 C295 0.929 . S
H311 C293 0.932 . S
Tb312 C314 2.809 . S
Tb312 O332 2.484 . S
Tb312 O333 2.440 . S
Tb312 O334 2.658 1_565 S
Tb312 O335 2.409 . S
Tb312 O336 2.378 . S
Tb312 O340 2.325 1_455 S
Tb312 O343 2.341 1_565 S
Tb313 C323 2.809 . S
Tb313 O334 2.325 1_655 S
Tb313 O337 2.341 1_545 S
Tb313 O338 2.484 . S
Tb313 O339 2.440 . S
Tb313 O340 2.658 1_545 S
Tb313 O341 2.409 . S
Tb313 O342 2.378 . S
C314 Tb312 2.809 . S
C314 C315 1.514 . S
C314 O332 1.248 . S
C314 O333 1.266 . S
C315 C314 1.514 . S
C315 C316 1.359 . S
C315 C320 1.348 . S
C316 C315 1.359 . S
C316 C317 1.380 . S
C316 H344 0.929 1_455 S
C317 C316 1.380 . S
C317 C318 1.347 . S
C317 H345 0.931 1_455 S
C318 C317 1.347 . S
C318 C319 1.369 . S
C319 C318 1.369 . S
C319 C320 1.408 . S
C319 H346 0.930 . S
C320 C315 1.348 . S
C320 C319 1.408 . S
C320 H347 0.930 . S
C321 O334 1.281 1_565 S
C321 O335 1.254 . S
C322 O336 1.236 1_655 S
C322 O337 1.266 . S
C323 Tb313 2.809 . S
C323 C324 1.514 . S
C323 O338 1.248 . S
C323 O339 1.266 . S
C324 C323 1.514 . S
C324 C325 1.359 . S
C324 C329 1.348 . S
C325 C324 1.359 . S
C325 C326 1.380 . S
C325 H348 0.929 1_655 S
C326 C325 1.380 . S
C326 C327 1.347 . S
C326 H349 0.931 1_655 S
C327 C326 1.347 . S
C327 C328 1.369 . S
C328 C327 1.369 . S
C328 C329 1.408 . S
C328 H350 0.930 . S
C329 C324 1.348 . S
C329 C328 1.408 . S
C329 H351 0.930 . S
C330 O340 1.281 1_545 S
C330 O341 1.254 . S
C331 O342 1.236 1_455 S
C331 O343 1.266 . S
O332 Tb312 2.484 . S
O332 C314 1.248 . S
O333 Tb312 2.440 . S
O333 C314 1.266 . S
O334 Tb312 2.658 1_545 S
O334 Tb313 2.325 1_455 S
O334 C321 1.281 1_545 S
O335 Tb312 2.409 . S
O335 C321 1.254 . S
O336 Tb312 2.378 . S
O336 C322 1.236 1_455 S
O337 Tb313 2.341 1_565 S
O337 C322 1.266 . S
O338 Tb313 2.484 . S
O338 C323 1.248 . S
O339 Tb313 2.440 . S
O339 C323 1.266 . S
O340 Tb312 2.325 1_655 S
O340 Tb313 2.658 1_565 S
O340 C330 1.281 1_565 S
O341 Tb313 2.409 . S
O341 C330 1.254 . S
O342 Tb313 2.378 . S
O342 C331 1.236 1_655 S
O343 Tb312 2.341 1_545 S
O343 C331 1.266 . S
H344 C316 0.929 1_655 S
H345 C317 0.931 1_655 S
H346 C319 0.930 . S
H347 C320 0.930 . S
H348 C325 0.929 1_455 S
H349 C326 0.931 1_455 S
H350 C328 0.930 . S
H351 C329 0.930 . S
Tb352 C354 2.809 . S
Tb352 O372 2.484 . S
Tb352 O373 2.440 . S
Tb352 O374 2.658 . S
Tb352 O375 2.409 . S
Tb352 O376 2.378 . S
Tb352 O380 2.325 1_545 S
Tb352 O383 2.341 . S
Tb353 C363 2.809 . S
Tb353 O374 2.325 1_565 S
Tb353 O377 2.341 . S
Tb353 O378 2.484 . S
Tb353 O379 2.440 . S
Tb353 O380 2.658 . S
Tb353 O381 2.409 . S
Tb353 O382 2.378 . S
C354 Tb352 2.809 . S
C354 C355 1.514 . S
C354 O372 1.248 . S
C354 O373 1.266 . S
C355 C354 1.514 . S
C355 C356 1.359 . S
C355 C360 1.348 . S
C356 C355 1.359 . S
C356 C357 1.380 . S
C356 H384 0.929 1_545 S
C357 C356 1.380 . S
C357 C358 1.347 . S
C357 H385 0.931 1_545 S
C358 C357 1.347 . S
C358 C359 1.369 . S
C359 C358 1.369 . S
C359 C360 1.408 . S
C359 H386 0.930 . S
C360 C355 1.348 . S
C360 C359 1.408 . S
C360 H387 0.930 . S
C361 O374 1.281 . S
C361 O375 1.254 . S
C362 O376 1.236 1_565 S
C362 O377 1.266 . S
C363 Tb353 2.809 . S
C363 C364 1.514 . S
C363 O378 1.248 . S
C363 O379 1.266 . S
C364 C363 1.514 . S
C364 C365 1.359 . S
C364 C369 1.348 . S
C365 C364 1.359 . S
C365 C366 1.380 . S
C365 H388 0.929 1_565 S
C366 C365 1.380 . S
C366 C367 1.347 . S
C366 H389 0.931 1_565 S
C367 C366 1.347 . S
C367 C368 1.369 . S
C368 C367 1.369 . S
C368 C369 1.408 . S
C368 H390 0.930 . S
C369 C364 1.348 . S
C369 C368 1.408 . S
C369 H391 0.930 . S
C370 O380 1.281 . S
C370 O381 1.254 . S
C371 O382 1.236 1_545 S
C371 O383 1.266 . S
O372 Tb352 2.484 . S
O372 C354 1.248 . S
O373 Tb352 2.440 . S
O373 C354 1.266 . S
O374 Tb352 2.658 . S
O374 Tb353 2.325 1_545 S
O374 C361 1.281 . S
O375 Tb352 2.409 . S
O375 C361 1.254 . S
O376 Tb352 2.378 . S
O376 C362 1.236 1_545 S
O377 Tb353 2.341 . S
O377 C362 1.266 . S
O378 Tb353 2.484 . S
O378 C363 1.248 . S
O379 Tb353 2.440 . S
O379 C363 1.266 . S
O380 Tb352 2.325 1_565 S
O380 Tb353 2.658 . S
O380 C370 1.281 . S
O381 Tb353 2.409 . S
O381 C370 1.254 . S
O382 Tb353 2.378 . S
O382 C371 1.236 1_565 S
O383 Tb352 2.341 . S
O383 C371 1.266 . S
H384 C356 0.929 1_565 S
H385 C357 0.931 1_565 S
H386 C359 0.930 . S
H387 C360 0.930 . S
H388 C365 0.929 1_545 S
H389 C366 0.931 1_545 S
H390 C368 0.930 . S
H391 C369 0.930 . S
Tb392 C394 2.809 . S
Tb392 O412 2.484 . S
Tb392 O413 2.440 . S
Tb392 O414 2.658 . S
Tb392 O415 2.409 . S
Tb392 O416 2.378 . S
Tb392 O420 2.325 . S
Tb392 O423 2.341 . S
Tb393 C403 2.809 . S
Tb393 O414 2.325 . S
Tb393 O417 2.341 . S
Tb393 O418 2.484 . S
Tb393 O419 2.440 . S
Tb393 O420 2.658 . S
Tb393 O421 2.409 . S
Tb393 O422 2.378 . S
C394 Tb392 2.809 . S
C394 C395 1.514 . S
C394 O412 1.248 . S
C394 O413 1.266 . S
C395 C394 1.514 . S
C395 C396 1.359 . S
C395 C400 1.348 . S
C396 C395 1.359 . S
C396 C397 1.380 . S
C396 H424 0.929 . S
C397 C396 1.380 . S
C397 C398 1.347 . S
C397 H425 0.931 . S
C398 C397 1.347 . S
C398 C399 1.369 . S
C399 C398 1.369 . S
C399 C400 1.408 . S
C399 H426 0.930 . S
C400 C395 1.348 . S
C400 C399 1.408 . S
C400 H427 0.930 . S
C401 O414 1.281 . S
C401 O415 1.254 . S
C402 O416 1.236 . S
C402 O417 1.266 . S
C403 Tb393 2.809 . S
C403 C404 1.514 . S
C403 O418 1.248 . S
C403 O419 1.266 . S
C404 C403 1.514 . S
C404 C405 1.359 . S
C404 C409 1.348 . S
C405 C404 1.359 . S
C405 C406 1.380 . S
C405 H428 0.929 . S
C406 C405 1.380 . S
C406 C407 1.347 . S
C406 H429 0.931 . S
C407 C406 1.347 . S
C407 C408 1.369 . S
C408 C407 1.369 . S
C408 C409 1.408 . S
C408 H430 0.930 . S
C409 C404 1.348 . S
C409 C408 1.408 . S
C409 H431 0.930 . S
C410 O420 1.281 . S
C410 O421 1.254 . S
C411 O422 1.236 . S
C411 O423 1.266 . S
O412 Tb392 2.484 . S
O412 C394 1.248 . S
O413 Tb392 2.440 . S
O413 C394 1.266 . S
O414 Tb392 2.658 . S
O414 Tb393 2.325 . S
O414 C401 1.281 . S
O415 Tb392 2.409 . S
O415 C401 1.254 . S
O416 Tb392 2.378 . S
O416 C402 1.236 . S
O417 Tb393 2.341 . S
O417 C402 1.266 . S
O418 Tb393 2.484 . S
O418 C403 1.248 . S
O419 Tb393 2.440 . S
O419 C403 1.266 . S
O420 Tb392 2.325 . S
O420 Tb393 2.658 . S
O420 C410 1.281 . S
O421 Tb393 2.409 . S
O421 C410 1.254 . S
O422 Tb393 2.378 . S
O422 C411 1.236 . S
O423 Tb392 2.341 . S
O423 C411 1.266 . S
H424 C396 0.929 . S
H425 C397 0.931 . S
H426 C399 0.930 . S
H427 C400 0.930 . S
H428 C405 0.929 . S
H429 C406 0.931 . S
H430 C408 0.930 . S
H431 C409 0.930 . S
Tb432 C434 2.809 . S
Tb432 O452 2.484 . S
Tb432 O453 2.440 . S
Tb432 O454 2.658 1_655 S
Tb432 O455 2.409 . S
Tb432 O456 2.378 . S
Tb432 O460 2.325 . S
Tb432 O463 2.341 1_655 S
Tb433 C443 2.809 . S
Tb433 O454 2.325 . S
Tb433 O457 2.341 1_455 S
Tb433 O458 2.484 . S
Tb433 O459 2.440 . S
Tb433 O460 2.658 1_455 S
Tb433 O461 2.409 . S
Tb433 O462 2.378 . S
C434 Tb432 2.809 . S
C434 C435 1.514 . S
C434 O452 1.248 . S
C434 O453 1.266 . S
C435 C434 1.514 . S
C435 C436 1.359 . S
C435 C440 1.348 . S
C436 C435 1.359 . S
C436 C437 1.380 . S
C436 H464 0.929 . S
C437 C436 1.380 . S
C437 C438 1.347 . S
C437 H465 0.931 . S
C438 C437 1.347 . S
C438 C439 1.369 . S
C439 C438 1.369 . S
C439 C440 1.408 . S
C439 H466 0.930 . S
C440 C435 1.348 . S
C440 C439 1.408 . S
C440 H467 0.930 . S
C441 O454 1.276 1_655 S
C441 O455 1.261 . S
C442 O456 1.236 . S
C442 O457 1.266 . S
C443 Tb433 2.809 . S
C443 C444 1.514 . S
C443 O458 1.248 . S
C443 O459 1.266 . S
C444 C443 1.514 . S
C444 C445 1.359 . S
C444 C449 1.348 . S
C445 C444 1.359 . S
C445 C446 1.380 . S
C445 H468 0.929 . S
C446 C445 1.380 . S
C446 C447 1.347 . S
C446 H469 0.931 . S
C447 C446 1.347 . S
C447 C448 1.369 . S
C448 C447 1.369 . S
C448 C449 1.408 . S
C448 H470 0.930 . S
C449 C444 1.348 . S
C449 C448 1.408 . S
C449 H471 0.930 . S
C450 O460 1.272 1_455 S
C450 O461 1.266 . S
C451 O462 1.236 . S
C451 O463 1.266 . S
O452 Tb432 2.484 . S
O452 C434 1.248 . S
O453 Tb432 2.440 . S
O453 C434 1.266 . S
O454 Tb432 2.658 1_455 S
O454 Tb433 2.325 . S
O454 C441 1.276 1_455 S
O455 Tb432 2.409 . S
O455 C441 1.261 . S
O456 Tb432 2.378 . S
O456 C442 1.236 . S
O457 Tb433 2.341 1_655 S
O457 C442 1.266 . S
O458 Tb433 2.484 . S
O458 C443 1.248 . S
O459 Tb433 2.440 . S
O459 C443 1.266 . S
O460 Tb432 2.325 . S
O460 Tb433 2.658 1_655 S
O460 C450 1.272 1_655 S
O461 Tb433 2.409 . S
O461 C450 1.266 . S
O462 Tb433 2.378 . S
O462 C451 1.236 . S
O463 Tb432 2.341 1_455 S
O463 C451 1.266 . S
H464 C436 0.929 . S
H465 C437 0.931 . S
H466 C439 0.930 . S
H467 C440 0.930 . S
H468 C445 0.929 . S
H469 C446 0.931 . S
H470 C448 0.930 . S
H471 C449 0.930 . S
H472 C478 0.930 . S
H473 C482 0.930 . S
H474 C487 0.929 . S
H475 C485 0.929 . S
H476 C480 0.929 . S
H477 C486 0.929 . S
C478 H472 0.930 . S
C478 C479 1.375 . S
C478 C486 1.378 . S
C479 C478 1.375 . S
C479 C487 1.425 1_565 S
C480 H476 0.929 . S
C480 C482 1.378 . S
C480 C484 1.387 . S
C481 C484 1.460 1_565 S
C481 C486 1.364 . S
C481 N489 1.413 1_565 S
C482 H473 0.930 . S
C482 C480 1.378 . S
C482 C483 1.397 . S
C483 C482 1.397 . S
C483 C485 1.402 1_545 S
C484 C480 1.387 . S
C484 C481 1.460 1_545 S
C484 N488 1.391 1_545 S
C485 H475 0.929 . S
C485 C483 1.402 1_565 S
C485 N488 1.384 . S
C486 H477 0.929 . S
C486 C478 1.378 . S
C486 C481 1.364 . S
C487 H474 0.929 . S
C487 C479 1.425 1_545 S
C487 N489 1.384 . S
N488 C484 1.391 1_565 S
N488 C485 1.384 . S
N489 C481 1.413 1_545 S
N489 C487 1.384 . S
H490 C496 0.930 . S
H491 C500 0.930 . S
H492 C505 0.929 . S
H493 C503 0.929 . S
H494 C498 0.929 . S
H495 C504 0.929 . S
C496 H490 0.930 . S
C496 C497 1.367 . S
C496 C504 1.378 . S
C497 C496 1.367 . S
C497 C505 1.433 . S
C498 H494 0.929 . S
C498 C500 1.378 . S
C498 C502 1.350 . S
C499 C502 1.463 . S
C499 C504 1.350 . S
C499 N507 1.427 . S
C500 H491 0.930 . S
C500 C498 1.378 . S
C500 C501 1.367 . S
C501 C500 1.367 . S
C501 C503 1.433 . S
C502 C498 1.350 . S
C502 C499 1.463 . S
C502 N506 1.427 . S
C503 H493 0.929 . S
C503 C501 1.433 . S
C503 N506 1.384 . S
C504 H495 0.929 . S
C504 C496 1.378 . S
C504 C499 1.350 . S
C505 H492 0.929 . S
C505 C497 1.433 . S
C505 N507 1.384 . S
N506 C502 1.427 . S
N506 C503 1.384 . S
N507 C499 1.427 . S
N507 C505 1.384 . S
H508 C514 0.930 . S
H509 C518 0.930 . S
H510 C523 0.929 . S
H511 C521 0.929 . S
H512 C516 0.929 . S
H513 C522 0.929 . S
C514 H508 0.930 . S
C514 C515 1.367 . S
C514 C522 1.378 . S
C515 C514 1.367 . S
C515 C523 1.433 . S
C516 H512 0.929 . S
C516 C518 1.378 . S
C516 C520 1.350 . S
C517 C520 1.463 . S
C517 C522 1.350 . S
C517 N525 1.427 . S
C518 H509 0.930 . S
C518 C516 1.378 . S
C518 C519 1.367 . S
C519 C518 1.367 . S
C519 C521 1.433 . S
C520 C516 1.350 . S
C520 C517 1.463 . S
C520 N524 1.427 . S
C521 H511 0.929 . S
C521 C519 1.433 . S
C521 N524 1.384 . S
C522 H513 0.929 . S
C522 C514 1.378 . S
C522 C517 1.350 . S
C523 H510 0.929 . S
C523 C515 1.433 . S
C523 N525 1.384 . S
N524 C520 1.427 . S
N524 C521 1.384 . S
N525 C517 1.427 . S
N525 C523 1.384 . S
H526 C532 0.930 . S
H527 C536 0.930 . S
H528 C541 0.929 . S
H529 C539 0.929 . S
H530 C534 0.929 . S
H531 C540 0.929 . S
C532 H526 0.930 . S
C532 C533 1.365 . S
C532 C540 1.378 . S
C533 C532 1.365 . S
C533 C541 1.435 1_655 S
C534 H530 0.929 . S
C534 C536 1.378 . S
C534 C538 1.350 . S
C535 C538 1.462 . S
C535 C540 1.350 1_455 S
C535 N543 1.427 . S
C536 H527 0.930 . S
C536 C534 1.378 . S
C536 C537 1.367 . S
C537 C536 1.367 . S
C537 C539 1.433 1_455 S
C538 C534 1.350 . S
C538 C535 1.462 . S
C538 N542 1.427 1_455 S
C539 H529 0.929 . S
C539 C537 1.433 1_655 S
C539 N542 1.384 . S
C540 H531 0.929 . S
C540 C532 1.378 . S
C540 C535 1.350 1_655 S
C541 H528 0.929 . S
C541 C533 1.435 1_455 S
C541 N543 1.384 . S
N542 C538 1.427 1_655 S
N542 C539 1.384 . S
N543 C535 1.427 . S
N543 C541 1.384 . S
H544 C550 0.930 . S
H545 C554 0.930 . S
H546 C559 0.929 . S
H547 C557 0.929 . S
H548 C552 0.929 . S
H549 C558 0.929 . S
C550 H544 0.930 . S
C550 C551 1.378 . S
C550 C558 1.378 . S
C551 C550 1.378 . S
C551 C559 1.422 1_565 S
C552 H548 0.929 . S
C552 C554 1.378 . S
C552 C556 1.370 1_556 S
C553 C556 1.461 1_565 S
C553 C558 1.373 . S
C553 N561 1.404 1_565 S
C554 H545 0.930 . S
C554 C552 1.378 . S
C554 C555 1.375 . S
C555 C554 1.375 . S
C555 C557 1.425 1_545 S
C556 C552 1.370 1_554 S
C556 C553 1.461 1_545 S
C556 N560 1.407 1_544 S
C557 H547 0.929 . S
C557 C555 1.425 1_565 S
C557 N560 1.384 . S
C558 H549 0.929 . S
C558 C550 1.378 . S
C558 C553 1.373 . S
C559 H546 0.929 . S
C559 C551 1.422 1_545 S
C559 N561 1.384 . S
N560 C556 1.407 1_566 S
N560 C557 1.384 . S
N561 C553 1.404 1_545 S
N561 C559 1.384 . S
H562 C568 0.930 . S
H563 C572 0.930 . S
H564 C577 0.929 . S
H565 C575 0.929 . S
H566 C570 0.929 . S
H567 C576 0.929 . S
C568 H562 0.930 . S
C568 C569 1.367 . S
C568 C576 1.378 . S
C569 C568 1.367 . S
C569 C577 1.433 . S
C570 H566 0.929 . S
C570 C572 1.378 . S
C570 C574 1.350 1_556 S
C571 C574 1.463 . S
C571 C576 1.350 . S
C571 N579 1.427 . S
C572 H563 0.930 . S
C572 C570 1.378 . S
C572 C573 1.367 . S
C573 C572 1.367 . S
C573 C575 1.433 . S
C574 C570 1.350 1_554 S
C574 C571 1.463 . S
C574 N578 1.427 . S
C575 H565 0.929 . S
C575 C573 1.433 . S
C575 N578 1.384 1_556 S
C576 H567 0.929 . S
C576 C568 1.378 . S
C576 C571 1.350 . S
C577 H564 0.929 . S
C577 C569 1.433 . S
C577 N579 1.384 . S
N578 C574 1.427 . S
N578 C575 1.384 1_554 S
N579 C571 1.427 . S
N579 C577 1.384 . S
H580 C586 0.930 . S
H581 C590 0.930 . S
H582 C595 0.929 . S
H583 C593 0.929 . S
H584 C588 0.929 . S
H585 C594 0.929 . S
C586 H580 0.930 . S
C586 C587 1.367 . S
C586 C594 1.378 . S
C587 C586 1.367 . S
C587 C595 1.433 . S
C588 H584 0.929 . S
C588 C590 1.378 . S
C588 C592 1.350 1_556 S
C589 C592 1.463 . S
C589 C594 1.350 . S
C589 N597 1.427 . S
C590 H581 0.930 . S
C590 C588 1.378 . S
C590 C591 1.367 . S
C591 C590 1.367 . S
C591 C593 1.433 . S
C592 C588 1.350 1_554 S
C592 C589 1.463 . S
C592 N596 1.427 1_554 S
C593 H583 0.929 . S
C593 C591 1.433 . S
C593 N596 1.384 . S
C594 H585 0.929 . S
C594 C586 1.378 . S
C594 C589 1.350 . S
C595 H582 0.929 . S
C595 C587 1.433 . S
C595 N597 1.384 . S
N596 C592 1.427 1_556 S
N596 C593 1.384 . S
N597 C589 1.427 . S
N597 C595 1.384 . S
H598 C604 0.930 . S
H599 C608 0.930 . S
H600 C613 0.929 . S
H601 C611 0.929 . S
H602 C606 0.929 1_554 S
H603 C612 0.929 . S
C604 H598 0.930 . S
C604 C605 1.369 1_455 S
C604 C612 1.378 . S
C605 C604 1.369 1_655 S
C605 C613 1.431 . S
C606 H602 0.929 1_556 S
C606 C608 1.378 . S
C606 C610 1.350 1_556 S
C607 C610 1.463 . S
C607 C612 1.347 1_655 S
C607 N615 1.430 . S
C608 H599 0.930 . S
C608 C606 1.378 . S
C608 C609 1.367 . S
C609 C608 1.367 . S
C609 C611 1.433 1_655 S
C610 C606 1.350 1_554 S
C610 C607 1.463 . S
C610 N614 1.427 1_654 S
C611 H601 0.929 . S
C611 C609 1.433 1_455 S
C611 N614 1.384 . S
C612 H603 0.929 . S
C612 C604 1.378 . S
C612 C607 1.347 1_455 S
C613 H600 0.929 . S
C613 C605 1.431 . S
C613 N615 1.384 . S
N614 C610 1.427 1_456 S
N614 C611 1.384 . S
N615 C607 1.430 . S
N615 C613 1.384 . S
H616 C622 0.930 . S
H617 C626 0.930 . S
H618 C631 0.929 . S
H619 C629 0.929 . S
H620 C624 0.929 1_455 S
H621 C630 0.929 . S
C622 H616 0.930 . S
C622 C623 1.367 1_655 S
C622 C630 1.378 . S
C623 C622 1.367 1_455 S
C623 C631 1.433 . S
C624 H620 0.929 1_655 S
C624 C626 1.378 . S
C624 C628 1.350 . S
C625 C628 1.463 . S
C625 C630 1.350 . S
C625 N633 1.427 1_655 S
C626 H617 0.930 . S
C626 C624 1.378 . S
C626 C627 1.367 . S
C627 C626 1.367 . S
C627 C629 1.433 . S
C628 C624 1.350 . S
C628 C625 1.463 . S
C628 N632 1.427 . S
C629 H619 0.929 . S
C629 C627 1.433 . S
C629 N632 1.384 . S
C630 H621 0.929 . S
C630 C622 1.378 . S
C630 C625 1.350 . S
C631 H618 0.929 . S
C631 C623 1.433 . S
C631 N633 1.384 . S
N632 C628 1.427 . S
N632 C629 1.384 . S
N633 C625 1.427 1_455 S
N633 C631 1.384 . S
H634 C640 0.930 . S
H635 C644 0.930 . S
H636 C649 0.929 . S
H637 C647 0.929 . S
H638 C642 0.929 . S
H639 C648 0.929 . S
C640 H634 0.930 . S
C640 C641 1.367 . S
C640 C648 1.378 1_545 S
C641 C640 1.367 . S
C641 C649 1.433 1_545 S
C642 H638 0.929 . S
C642 C644 1.378 . S
C642 C646 1.350 . S
C643 C646 1.463 . S
C643 C648 1.350 . S
C643 N651 1.427 . S
C644 H635 0.930 . S
C644 C642 1.378 . S
C644 C645 1.367 . S
C645 C644 1.367 . S
C645 C647 1.433 . S
C646 C642 1.350 . S
C646 C643 1.463 . S
C646 N650 1.427 . S
C647 H637 0.929 . S
C647 C645 1.433 . S
C647 N650 1.384 . S
C648 H639 0.929 . S
C648 C640 1.378 1_565 S
C648 C643 1.350 . S
C649 H636 0.929 . S
C649 C641 1.433 1_565 S
C649 N651 1.384 . S
N650 C646 1.427 . S
N650 C647 1.384 . S
N651 C643 1.427 . S
N651 C649 1.384 . S
H652 C658 0.930 . S
H653 C662 0.930 . S
H654 C667 0.929 . S
H655 C665 0.929 . S
H656 C660 0.929 . S
H657 C666 0.929 . S
C658 H652 0.930 . S
C658 C659 1.367 . S
C658 C666 1.378 . S
C659 C658 1.367 . S
C659 C667 1.433 . S
C660 H656 0.929 . S
C660 C662 1.378 . S
C660 C664 1.350 . S
C661 C664 1.463 . S
C661 C666 1.350 . S
C661 N669 1.427 . S
C662 H653 0.930 . S
C662 C660 1.378 . S
C662 C663 1.367 . S
C663 C662 1.367 . S
C663 C665 1.433 . S
C664 C660 1.350 . S
C664 C661 1.463 . S
C664 N668 1.427 . S
C665 H655 0.929 . S
C665 C663 1.433 . S
C665 N668 1.384 . S
C666 H657 0.929 . S
C666 C658 1.378 . S
C666 C661 1.350 . S
C667 H654 0.929 . S
C667 C659 1.433 . S
C667 N669 1.384 . S
N668 C664 1.427 . S
N668 C665 1.384 . S
N669 C661 1.427 . S
N669 C667 1.384 . S
H670 C676 0.930 . S
H671 C680 0.930 . S
H672 C685 0.929 . S
H673 C683 0.929 . S
H674 C678 0.929 . S
H675 C684 0.929 . S
C676 H670 0.930 . S
C676 C677 1.367 . S
C676 C684 1.378 . S
C677 C676 1.367 . S
C677 C685 1.433 . S
C678 H674 0.929 . S
C678 C680 1.378 . S
C678 C682 1.350 . S
C679 C682 1.463 . S
C679 C684 1.350 . S
C679 N687 1.427 . S
C680 H671 0.930 . S
C680 C678 1.378 . S
C680 C681 1.367 . S
C681 C680 1.367 . S
C681 C683 1.433 . S
C682 C678 1.350 . S
C682 C679 1.463 . S
C682 N686 1.427 . S
C683 H673 0.929 . S
C683 C681 1.433 . S
C683 N686 1.384 . S
C684 H675 0.929 . S
C684 C676 1.378 . S
C684 C679 1.350 . S
C685 H672 0.929 . S
C685 C677 1.433 . S
C685 N687 1.384 . S
N686 C682 1.427 . S
N686 C683 1.384 . S
N687 C679 1.427 . S
N687 C685 1.384 . S
H688 C694 0.930 . S
H689 C698 0.930 . S
H690 C703 0.929 . S
H691 C701 0.929 . S
H692 C696 0.929 . S
H693 C702 0.929 1_556 S
C694 H688 0.930 . S
C694 C695 1.367 . S
C694 C702 1.378 1_655 S
C695 C694 1.367 . S
C695 C703 1.433 1_655 S
C696 H692 0.929 . S
C696 C698 1.378 . S
C696 C700 1.350 . S
C697 C700 1.463 . S
C697 C702 1.350 . S
C697 N705 1.427 . S
C698 H689 0.930 . S
C698 C696 1.378 . S
C698 C699 1.367 1_554 S
C699 C698 1.367 1_556 S
C699 C701 1.433 . S
C700 C696 1.350 . S
C700 C697 1.463 . S
C700 N704 1.427 1_554 S
C701 H691 0.929 . S
C701 C699 1.433 . S
C701 N704 1.384 . S
C702 H693 0.929 1_554 S
C702 C694 1.378 1_455 S
C702 C697 1.350 . S
C703 H690 0.929 . S
C703 C695 1.433 1_455 S
C703 N705 1.384 . S
N704 C700 1.427 1_556 S
N704 C701 1.384 . S
N705 C697 1.427 . S
N705 C703 1.384 . S
H706 C712 0.930 . S
H707 C716 0.930 . S
H708 C721 0.929 . S
H709 C719 0.929 . S
H710 C714 0.929 . S
H711 C720 0.929 1_556 S
C712 H706 0.930 . S
C712 C713 1.367 1_545 S
C712 C720 1.378 . S
C713 C712 1.367 1_565 S
C713 C721 1.433 . S
C714 H710 0.929 . S
C714 C716 1.378 . S
C714 C718 1.350 . S
C715 C718 1.463 . S
C715 C720 1.350 . S
C715 N723 1.427 1_545 S
C716 H707 0.930 . S
C716 C714 1.378 . S
C716 C717 1.367 1_554 S
C717 C716 1.367 1_556 S
C717 C719 1.433 . S
C718 C714 1.350 . S
C718 C715 1.463 . S
C718 N722 1.427 1_554 S
C719 H709 0.929 . S
C719 C717 1.433 . S
C719 N722 1.384 . S
C720 H711 0.929 1_554 S
C720 C712 1.378 . S
C720 C715 1.350 . S
C721 H708 0.929 . S
C721 C713 1.433 . S
C721 N723 1.384 . S
N722 C718 1.427 1_556 S
N722 C719 1.384 . S
N723 C715 1.427 1_565 S
N723 C721 1.384 . S
H724 C730 0.930 . S
H725 C734 0.930 . S
H726 C739 0.929 . S
H727 C737 0.929 . S
H728 C732 0.929 . S
H729 C738 0.929 . S
C730 H724 0.930 . S
C730 C731 1.367 . S
C730 C738 1.378 . S
C731 C730 1.367 . S
C731 C739 1.433 . S
C732 H728 0.929 . S
C732 C734 1.378 . S
C732 C736 1.350 1_556 S
C733 C736 1.463 . S
C733 C738 1.350 . S
C733 N741 1.427 . S
C734 H725 0.930 . S
C734 C732 1.378 . S
C734 C735 1.367 . S
C735 C734 1.367 . S
C735 C737 1.433 1_556 S
C736 C732 1.350 1_554 S
C736 C733 1.463 . S
C736 N740 1.427 . S
C737 H727 0.929 . S
C737 C735 1.433 1_554 S
C737 N740 1.384 . S
C738 H729 0.929 . S
C738 C730 1.378 . S
C738 C733 1.350 . S
C739 H726 0.929 . S
C739 C731 1.433 . S
C739 N741 1.384 . S
N740 C736 1.427 . S
N740 C737 1.384 . S
N741 C733 1.427 . S
N741 C739 1.384 . S
H742 C748 0.930 . S
H743 C752 0.930 . S
H744 C757 0.929 . S
H745 C755 0.929 . S
H746 C750 0.929 . S
H747 C756 0.929 . S
C748 H742 0.930 . S
C748 C749 1.367 . S
C748 C756 1.378 . S
C749 C748 1.367 . S
C749 C757 1.433 . S
C750 H746 0.929 . S
C750 C752 1.378 . S
C750 C754 1.350 1_556 S
C751 C754 1.463 . S
C751 C756 1.350 . S
C751 N759 1.427 . S
C752 H743 0.930 . S
C752 C750 1.378 . S
C752 C753 1.367 . S
C753 C752 1.367 . S
C753 C755 1.433 1_556 S
C754 C750 1.350 1_554 S
C754 C751 1.463 . S
C754 N758 1.427 . S
C755 H745 0.929 . S
C755 C753 1.433 1_554 S
C755 N758 1.384 . S
C756 H747 0.929 . S
C756 C748 1.378 . S
C756 C751 1.350 . S
C757 H744 0.929 . S
C757 C749 1.433 . S
C757 N759 1.384 . S
N758 C754 1.427 . S
N758 C755 1.384 . S
N759 C751 1.427 . S
N759 C757 1.384 . S
H760 C766 0.930 . S
H761 C770 0.930 . S
H762 C775 0.929 . S
H763 C773 0.929 . S
H764 C768 0.929 . S
H765 C774 0.929 . S
C766 H760 0.930 . S
C766 C767 1.367 1_655 S
C766 C774 1.378 . S
C767 C766 1.367 1_455 S
C767 C775 1.433 . S
C768 H764 0.929 . S
C768 C770 1.378 . S
C768 C772 1.350 . S
C769 C772 1.463 . S
C769 C774 1.350 1_455 S
C769 N777 1.427 . S
C770 H761 0.930 . S
C770 C768 1.378 . S
C770 C771 1.367 . S
C771 C770 1.367 . S
C771 C773 1.433 1_455 S
C772 C768 1.350 . S
C772 C769 1.463 . S
C772 N776 1.427 1_455 S
C773 H763 0.929 . S
C773 C771 1.433 1_655 S
C773 N776 1.384 . S
C774 H765 0.929 . S
C774 C766 1.378 . S
C774 C769 1.350 1_655 S
C775 H762 0.929 . S
C775 C767 1.433 . S
C775 N777 1.384 . S
N776 C772 1.427 1_655 S
N776 C773 1.384 . S
N777 C769 1.427 . S
N777 C775 1.384 . S
H778 C784 0.930 . S
H779 C788 0.930 . S
H780 C793 0.929 . S
H781 C791 0.929 . S
H782 C786 0.929 . S
H783 C792 0.929 . S
C784 H778 0.930 . S
C784 C785 1.367 1_565 S
C784 C792 1.378 . S
C785 C784 1.367 1_545 S
C785 C793 1.433 . S
C786 H782 0.929 . S
C786 C788 1.378 . S
C786 C790 1.350 . S
C787 C790 1.463 . S
C787 C792 1.350 1_545 S
C787 N795 1.427 . S
C788 H779 0.930 . S
C788 C786 1.378 . S
C788 C789 1.367 . S
C789 C788 1.367 . S
C789 C791 1.433 1_545 S
C790 C786 1.350 . S
C790 C787 1.463 . S
C790 N794 1.427 1_545 S
C791 H781 0.929 . S
C791 C789 1.433 1_565 S
C791 N794 1.384 . S
C792 H783 0.929 . S
C792 C784 1.378 . S
C792 C787 1.350 1_565 S
C793 H780 0.929 . S
C793 C785 1.433 . S
C793 N795 1.384 . S
N794 C790 1.427 1_565 S
N794 C791 1.384 . S
N795 C787 1.427 . S
N795 C793 1.384 . S
H796 C802 0.930 . S
H797 C806 0.930 . S
H798 C811 0.929 . S
H799 C809 0.929 . S
H800 C804 0.929 . S
H801 C810 0.929 . S
C802 H796 0.930 . S
C802 C803 1.367 . S
C802 C810 1.378 . S
C803 C802 1.367 . S
C803 C811 1.433 . S
C804 H800 0.929 . S
C804 C806 1.378 . S
C804 C808 1.350 . S
C805 C808 1.463 . S
C805 C810 1.350 . S
C805 N813 1.427 . S
C806 H797 0.930 . S
C806 C804 1.378 . S
C806 C807 1.367 . S
C807 C806 1.367 . S
C807 C809 1.433 . S
C808 C804 1.350 . S
C808 C805 1.463 . S
C808 N812 1.427 . S
C809 H799 0.929 . S
C809 C807 1.433 . S
C809 N812 1.384 . S
C810 H801 0.929 . S
C810 C802 1.378 . S
C810 C805 1.350 . S
C811 H798 0.929 . S
C811 C803 1.433 . S
C811 N813 1.384 . S
N812 C808 1.427 . S
N812 C809 1.384 . S
N813 C805 1.427 . S
N813 C811 1.384 . S
H814 C820 0.930 . S
H815 C824 0.930 . S
H816 C829 0.929 . S
H817 C827 0.929 . S
H818 C822 0.929 . S
H819 C828 0.929 . S
C820 H814 0.930 . S
C820 C821 1.367 . S
C820 C828 1.378 . S
C821 C820 1.367 . S
C821 C829 1.433 . S
C822 H818 0.929 . S
C822 C824 1.378 . S
C822 C826 1.350 . S
C823 C826 1.463 . S
C823 C828 1.350 . S
C823 N831 1.427 . S
C824 H815 0.930 . S
C824 C822 1.378 . S
C824 C825 1.367 . S
C825 C824 1.367 . S
C825 C827 1.433 . S
C826 C822 1.350 . S
C826 C823 1.463 . S
C826 N830 1.427 . S
C827 H817 0.929 . S
C827 C825 1.433 . S
C827 N830 1.384 . S
C828 H819 0.929 . S
C828 C820 1.378 . S
C828 C823 1.350 . S
C829 H816 0.929 . S
C829 C821 1.433 . S
C829 N831 1.384 . S
N830 C826 1.427 . S
N830 C827 1.384 . S
N831 C823 1.427 . S
N831 C829 1.384 . S
H832 C838 0.930 . S
H833 C842 0.930 . S
H834 C847 0.929 . S
H835 C845 0.929 . S
H836 C840 0.929 . S
H837 C846 0.929 . S
C838 H832 0.930 . S
C838 C839 1.367 . S
C838 C846 1.378 . S
C839 C838 1.367 . S
C839 C847 1.433 1_655 S
C840 H836 0.929 . S
C840 C842 1.378 . S
C840 C844 1.350 1_455 S
C841 C844 1.463 . S
C841 C846 1.350 . S
C841 N849 1.427 1_655 S
C842 H833 0.930 . S
C842 C840 1.378 . S
C842 C843 1.367 1_455 S
C843 C842 1.367 1_655 S
C843 C845 1.433 . S
C844 C840 1.350 1_655 S
C844 C841 1.463 . S
C844 N848 1.427 . S
C845 H835 0.929 . S
C845 C843 1.433 . S
C845 N848 1.384 . S
C846 H837 0.929 . S
C846 C838 1.378 . S
C846 C841 1.350 . S
C847 H834 0.929 . S
C847 C839 1.433 1_455 S
C847 N849 1.384 . S
N848 C844 1.427 . S
N848 C845 1.384 . S
N849 C841 1.427 1_455 S
N849 C847 1.384 . S
H850 C856 0.930 . S
H851 C860 0.930 . S
H852 C865 0.929 . S
H853 C863 0.929 . S
H854 C858 0.929 . S
H855 C864 0.929 . S
C856 H850 0.930 . S
C856 C857 1.367 1_545 S
C856 C864 1.378 . S
C857 C856 1.367 1_565 S
C857 C865 1.433 . S
C858 H854 0.929 . S
C858 C860 1.378 . S
C858 C862 1.350 . S
C859 C862 1.463 . S
C859 C864 1.350 1_565 S
C859 N867 1.427 . S
C860 H851 0.930 . S
C860 C858 1.378 . S
C860 C861 1.367 . S
C861 C860 1.367 . S
C861 C863 1.433 1_565 S
C862 C858 1.350 . S
C862 C859 1.463 . S
C862 N866 1.427 1_565 S
C863 H853 0.929 . S
C863 C861 1.433 1_545 S
C863 N866 1.384 . S
C864 H855 0.929 . S
C864 C856 1.378 . S
C864 C859 1.350 1_545 S
C865 H852 0.929 . S
C865 C857 1.433 . S
C865 N867 1.384 . S
N866 C862 1.427 1_545 S
N866 C863 1.384 . S
N867 C859 1.427 . S
N867 C865 1.384 . S
H868 C874 0.930 . S
H869 C878 0.930 . S
H870 C883 0.929 . S
H871 C881 0.929 . S
H872 C876 0.929 . S
H873 C882 0.929 . S
C874 H868 0.930 . S
C874 C875 1.367 . S
C874 C882 1.378 . S
C875 C874 1.367 . S
C875 C883 1.433 . S
C876 H872 0.929 . S
C876 C878 1.378 . S
C876 C880 1.350 . S
C877 C880 1.463 . S
C877 C882 1.350 . S
C877 N885 1.427 . S
C878 H869 0.930 . S
C878 C876 1.378 . S
C878 C879 1.367 . S
C879 C878 1.367 . S
C879 C881 1.433 . S
C880 C876 1.350 . S
C880 C877 1.463 . S
C880 N884 1.427 . S
C881 H871 0.929 . S
C881 C879 1.433 . S
C881 N884 1.384 . S
C882 H873 0.929 . S
C882 C874 1.378 . S
C882 C877 1.350 . S
C883 H870 0.929 . S
C883 C875 1.433 . S
C883 N885 1.384 . S
N884 C880 1.427 . S
N884 C881 1.384 . S
N885 C877 1.427 . S
N885 C883 1.384 . S
H886 C892 0.930 . S
H887 C896 0.930 . S
H888 C901 0.929 . S
H889 C899 0.929 . S
H890 C894 0.929 . S
H891 C900 0.929 . S
C892 H886 0.930 . S
C892 C893 1.367 . S
C892 C900 1.378 . S
C893 C892 1.367 . S
C893 C901 1.433 . S
C894 H890 0.929 . S
C894 C896 1.378 . S
C894 C898 1.350 . S
C895 C898 1.463 . S
C895 C900 1.350 . S
C895 N903 1.427 . S
C896 H887 0.930 . S
C896 C894 1.378 . S
C896 C897 1.367 . S
C897 C896 1.367 . S
C897 C899 1.433 . S
C898 C894 1.350 . S
C898 C895 1.463 . S
C898 N902 1.427 . S
C899 H889 0.929 . S
C899 C897 1.433 . S
C899 N902 1.384 . S
C900 H891 0.929 . S
C900 C892 1.378 . S
C900 C895 1.350 . S
C901 H888 0.929 . S
C901 C893 1.433 . S
C901 N903 1.384 . S
N902 C898 1.427 . S
N902 C899 1.384 . S
N903 C895 1.427 . S
N903 C901 1.384 . S
C479 C255 2.164 . S
C483 C321 2.360 1_545 S
C501 C361 2.391 . S
C497 C294 2.155 . S
C519 C401 2.385 . S
C515 C177 2.187 . S
C537 C441 2.374 1_455 S
C533 C216 2.184 . S
C555 C330 2.363 . S
C551 C99 2.175 . S
C569 C138 2.177 . S
C573 C370 2.395 . S
C587 C21 2.195 . S
C591 C410 2.388 . S
C605 C60 2.173 . S
C609 C450 2.373 1_655 S
C627 C327 0.394 . S
C623 C196 0.395 1_455 S
C645 C367 0.426 . S
C641 C235 0.432 1_545 S
C663 C407 0.388 . S
C659 C289 0.376 . S
C677 C157 0.412 . S
C681 C447 0.408 . S
C695 C40 0.418 . S
C699 C318 0.415 . S
C717 C358 0.410 . S
C713 C79 0.414 . S
C735 C398 0.389 . S
C731 C133 0.372 . S
C749 C1 0.364 . S
C753 C438 0.388 . S
C767 C211 2.851 . S
C771 C331 3.244 . S
C785 C250 2.818 . S
C789 C371 3.209 . S
C807 C411 3.196 . S
C803 C274 2.803 . S
C825 C451 3.226 . S
C821 C172 2.822 . S
C839 C55 2.854 1_655 S
C843 C322 3.254 . S
C861 C362 3.209 . S
C857 C94 2.811 1_565 S
C879 C402 3.200 . S
C875 C118 2.814 . S
C893 C16 2.830 . S
C897 C442 3.234 . S
