# Generated by pormake.
# Topology zzz, (3,6)-cn, num edge types: 1
# Building blocks:
#     Node 0, Type 0, BuildingBlock: BELTOD_clean_linker_0, # of connection points: 3
#     Node 1, Type 0, BuildingBlock: BELTOD_clean_linker_0, # of connection points: 3
#     Node 2, Type 0, BuildingBlock: BELTOD_clean_linker_0, # of connection points: 3
#     Node 3, Type 0, BuildingBlock: BELTOD_clean_linker_0, # of connection points: 3
#     Node 4, Type 0, BuildingBlock: BELTOD_clean_linker_0, # of connection points: 3
#     Node 5, Type 0, BuildingBlock: BELTOD_clean_linker_0, # of connection points: 3
#     Node 6, Type 0, BuildingBlock: BELTOD_clean_linker_0, # of connection points: 3
#     Node 7, Type 0, BuildingBlock: BELTOD_clean_linker_0, # of connection points: 3
#     Node 8, Type 1, BuildingBlock: HISSIN_clean_sbu_0, # of connection points: 6
#     Node 9, Type 1, BuildingBlock: HISSIN_clean_sbu_0, # of connection points: 6
#     Node 10, Type 1, BuildingBlock: HISSIN_clean_sbu_0, # of connection points: 6
#     Node 11, Type 1, BuildingBlock: HISSIN_clean_sbu_0, # of connection points: 6
#     Edge 12, Type (0, 1), BuildingBlock: ZUJKAS_clean_linker_0, # of connection points: 2
#     Edge 13, Type (0, 1), BuildingBlock: ZUJKAS_clean_linker_0, # of connection points: 2
#     Edge 14, Type (0, 1), BuildingBlock: ZUJKAS_clean_linker_0, # of connection points: 2
#     Edge 15, Type (0, 1), BuildingBlock: ZUJKAS_clean_linker_0, # of connection points: 2
#     Edge 16, Type (0, 1), BuildingBlock: ZUJKAS_clean_linker_0, # of connection points: 2
#     Edge 17, Type (0, 1), BuildingBlock: ZUJKAS_clean_linker_0, # of connection points: 2
#     Edge 18, Type (0, 1), BuildingBlock: ZUJKAS_clean_linker_0, # of connection points: 2
#     Edge 19, Type (0, 1), BuildingBlock: ZUJKAS_clean_linker_0, # of connection points: 2
#     Edge 20, Type (0, 1), BuildingBlock: ZUJKAS_clean_linker_0, # of connection points: 2
#     Edge 21, Type (0, 1), BuildingBlock: ZUJKAS_clean_linker_0, # of connection points: 2
#     Edge 22, Type (0, 1), BuildingBlock: ZUJKAS_clean_linker_0, # of connection points: 2
#     Edge 23, Type (0, 1), BuildingBlock: ZUJKAS_clean_linker_0, # of connection points: 2
#     Edge 24, Type (0, 1), BuildingBlock: ZUJKAS_clean_linker_0, # of connection points: 2
#     Edge 25, Type (0, 1), BuildingBlock: ZUJKAS_clean_linker_0, # of connection points: 2
#     Edge 26, Type (0, 1), BuildingBlock: ZUJKAS_clean_linker_0, # of connection points: 2
#     Edge 27, Type (0, 1), BuildingBlock: ZUJKAS_clean_linker_0, # of connection points: 2
#     Edge 28, Type (0, 1), BuildingBlock: ZUJKAS_clean_linker_0, # of connection points: 2
#     Edge 29, Type (0, 1), BuildingBlock: ZUJKAS_clean_linker_0, # of connection points: 2
#     Edge 30, Type (0, 1), BuildingBlock: ZUJKAS_clean_linker_0, # of connection points: 2
#     Edge 31, Type (0, 1), BuildingBlock: ZUJKAS_clean_linker_0, # of connection points: 2
#     Edge 32, Type (0, 1), BuildingBlock: ZUJKAS_clean_linker_0, # of connection points: 2
#     Edge 33, Type (0, 1), BuildingBlock: ZUJKAS_clean_linker_0, # of connection points: 2
#     Edge 34, Type (0, 1), BuildingBlock: ZUJKAS_clean_linker_0, # of connection points: 2
#     Edge 35, Type (0, 1), BuildingBlock: ZUJKAS_clean_linker_0, # of connection points: 2
# Relax obj value: 0.343
# Max RMSD: 0.210
# Mean RMSD: 0.178
data_MOF--net-zzz--node1-HISSIN_clean_sbu_0--node2-BELTOD_clean_linker_0--edge1-ZUJKAS_clean_linker_0
_symmetry_space_group_name_H-M    P1
_symmetry_Int_Tables_number       1
_symmetry_cell_setting            triclinic
loop_
_symmetry_equiv_pos_as_xyz
'x, y, z'
_cell_length_a     66.399461
_cell_length_b     66.883338
_cell_length_c     25.364715
_cell_angle_alpha  89.838561
_cell_angle_beta   92.091918
_cell_angle_gamma 91.655695
loop_
_atom_site_label
_atom_site_type_symbol
_atom_site_fract_x
_atom_site_fract_y
_atom_site_fract_z
_atom_type_partial_charge
P0 P 0.7276 0.50682 0.26129 0.0
H1 H 0.73366 0.51586 0.3738 0.0
H2 H 0.76345 0.52799 0.42463 0.0
H3 H 0.793 0.54224 0.27969 0.0
H4 H 0.76297 0.53046 0.22919 0.0
H5 H 0.68507 0.49767 0.24081 0.0
H6 H 0.66039 0.51091 0.17796 0.0
H7 H 0.70292 0.55797 0.1364 0.0
H8 H 0.72781 0.54437 0.19975 0.0
H9 H 0.75883 0.47783 0.27873 0.0
H10 H 0.72738 0.50395 0.1447 0.0
O11 O 0.71663 0.49103 0.3033 0.0
H12 H 0.78147 0.46154 0.21932 0.0
H13 H 0.75009 0.48817 0.08563 0.0
C14 C 0.74617 0.52202 0.29768 0.0
C15 C 0.74629 0.52217 0.35294 0.0
C16 C 0.76344 0.52894 0.382 0.0
C17 C 0.78082 0.53566 0.35627 0.0
C18 C 0.77992 0.5372 0.30088 0.0
C19 C 0.76271 0.53047 0.27186 0.0
C20 C 0.70819 0.5202 0.22568 0.0
C21 C 0.68892 0.51123 0.21956 0.0
C22 C 0.67476 0.51885 0.18342 0.0
C23 C 0.67963 0.53553 0.15198 0.0
C24 C 0.69872 0.54503 0.15976 0.0
C25 C 0.71289 0.53742 0.19638 0.0
C26 C 0.74146 0.49216 0.21634 0.0
C27 C 0.75657 0.47978 0.23653 0.0
C28 C 0.76958 0.47061 0.20259 0.0
C29 C 0.76766 0.47368 0.14779 0.0
C30 C 0.75185 0.48533 0.12758 0.0
C31 C 0.73889 0.49452 0.16157 0.0
P32 P 0.03416 0.72671 0.26588 0.0
H33 H 0.03767 0.73654 0.37811 0.0
H34 H 0.02719 0.76563 0.42537 0.0
H35 H 0.98767 0.78103 0.29319 0.0
H36 H 0.99892 0.75198 0.24511 0.0
H37 H 0.05364 0.69173 0.22978 0.0
H38 H 0.04385 0.66543 0.16831 0.0
H39 H 0.98296 0.68677 0.16046 0.0
H40 H 0.99331 0.71384 0.22217 0.0
H41 H 0.06851 0.75491 0.26297 0.0
H42 H 0.01765 0.7372 0.16122 0.0
O43 O 0.05436 0.71966 0.30165 0.0
H44 H 0.07735 0.78158 0.20088 0.0
H45 H 0.02647 0.76356 0.09922 0.0
C46 C 0.0192 0.74194 0.3077 0.0
C47 C 0.02621 0.74569 0.35972 0.0
C48 C 0.02016 0.76255 0.38696 0.0
C49 C 0.00683 0.77613 0.36298 0.0
C50 C 0.99836 0.77128 0.31262 0.0
C51 C 1.0045 0.75438 0.28529 0.0
C52 C 0.02415 0.70458 0.23179 0.0
C53 C 0.03798 0.69048 0.21637 0.0
C54 C 0.0323 0.67529 0.18083 0.0
C55 C 0.01252 0.6737 0.15918 0.0
C56 C 0.99838 0.68753 0.17591 0.0
C57 C 1.00417 0.70288 0.21183 0.0
C58 C 0.04269 0.74379 0.21619 0.0
C59 C 0.05958 0.7564 0.22668 0.0
C60 C 0.0646 0.77163 0.19126 0.0
C61 C 0.05256 0.77462 0.14536 0.0
C62 C 0.03593 0.76166 0.13449 0.0
C63 C 0.031 0.74642 0.16971 0.0
P64 P 0.78195 0.00714 0.17168 0.0
H65 H 0.7803 0.02875 0.27172 0.0
H66 H 0.75544 0.02733 0.34062 0.0
H67 H 0.73088 0.97188 0.27535 0.0
H68 H 0.75565 0.97307 0.20866 0.0
H69 H 0.81327 0.03813 0.1555 0.0
H70 H 0.84432 0.03701 0.1083 0.0
H71 H 0.84119 0.97246 0.11321 0.0
H72 H 0.81064 0.97373 0.16353 0.0
H73 H 0.75876 0.01945 0.07753 0.0
H74 H 0.7786 0.96389 0.14612 0.0
O75 O 0.77611 0.03101 0.16149 0.0
H76 H 0.73893 1.00099 0.01105 0.0
H77 H 0.75864 0.94527 0.07906 0.0
C78 C 0.77012 1.00115 0.23393 0.0
C79 C 0.7701 0.01585 0.27343 0.0
C80 C 0.75555 0.01521 0.31245 0.0
C81 C 0.74067 0.99972 0.31318 0.0
C82 C 0.74197 0.98408 0.27659 0.0
C83 C 0.75644 0.98478 0.23769 0.0
C84 C 0.80893 0.00598 0.16176 0.0
C85 C 0.81947 0.02366 0.14817 0.0
C86 C 0.83722 0.02301 0.12014 0.0
C87 C 0.84491 0.00464 0.10451 0.0
C88 C 0.83564 0.98694 0.12356 0.0
C89 C 0.81795 0.98764 0.15232 0.0
C90 C 0.76982 0.99314 0.11798 0.0
C91 C 0.75919 1.0033 0.07799 0.0
C92 C 0.74804 0.99267 0.03927 0.0
C93 C 0.74725 0.97164 0.03983 0.0
C94 C 0.759 0.96146 0.07772 0.0
C95 C 0.77041 0.97217 0.11609 0.0
P96 P 0.48086 0.79889 0.23181 0.0
H97 H 0.49178 0.7929 0.34361 0.0
H98 H 0.50456 0.76381 0.39048 0.0
H99 H 0.51815 0.73679 0.24186 0.0
H100 H 0.50485 0.76588 0.19509 0.0
H101 H 0.4673 0.83781 0.19961 0.0
H102 H 0.47808 0.86141 0.13235 0.0
H103 H 0.52947 0.82538 0.1037 0.0
H104 H 0.51854 0.80163 0.17201 0.0
H105 H 0.45045 0.7686 0.25716 0.0
H106 H 0.47511 0.79439 0.11641 0.0
O107 O 0.46706 0.81002 0.27627 0.0
H108 H 0.43177 0.74346 0.20329 0.0
H109 H 0.45678 0.76942 0.06297 0.0
C110 C 0.49728 0.7816 0.26575 0.0
C111 C 0.49811 0.78105 0.32106 0.0
C112 C 0.50545 0.7643 0.34795 0.0
C113 C 0.51208 0.74772 0.31999 0.0
C114 C 0.51279 0.74909 0.26465 0.0
C115 C 0.50547 0.76588 0.23782 0.0
C116 C 0.49229 0.81813 0.19163 0.0
C117 C 0.48121 0.8352 0.18004 0.0
C118 C 0.48725 0.84858 0.14101 0.0
C119 C 0.50449 0.84515 0.11224 0.0
C120 C 0.51616 0.82847 0.12539 0.0
C121 C 0.50998 0.81494 0.16455 0.0
C122 C 0.46407 0.78346 0.19094 0.0
C123 C 0.45145 0.76917 0.21465 0.0
C124 C 0.44089 0.75476 0.18391 0.0
C125 C 0.44281 0.75446 0.1289 0.0
C126 C 0.45471 0.76943 0.10513 0.0
C127 C 0.46533 0.78373 0.13588 0.0
P128 P 0.29135 0.43324 0.03138 0.0
H129 H 0.28027 0.42567 0.92 0.0
H130 H 0.25422 0.4402 0.86265 0.0
H131 H 0.24742 0.48738 0.97598 0.0
H132 H 0.27333 0.47263 0.03347 0.0
H133 H 0.32516 0.41249 0.07855 0.0
H134 H 0.35521 0.42394 0.12868 0.0
H135 H 0.34121 0.48519 0.09152 0.0
H136 H 0.3109 0.4735 0.04133 0.0
H137 H 0.25172 0.4145 0.04233 0.0
H138 H 0.29265 0.45231 0.13622 0.0
O139 O 0.2933 0.4099 0.00935 0.0
H140 H 0.22517 0.41998 0.1047 0.0
H141 H 0.2663 0.45809 0.19766 0.0
C142 C 0.27878 0.44802 0.98116 0.0
C143 C 0.27374 0.43955 0.93173 0.0
C144 C 0.25877 0.44787 0.89889 0.0
C145 C 0.24848 0.46475 0.91517 0.0
C146 C 0.25482 0.47418 0.9627 0.0
C147 C 0.26987 0.46591 0.99531 0.0
C148 C 0.31591 0.44209 0.05545 0.0
C149 C 0.32887 0.42836 0.07967 0.0
C150 C 0.3461 0.43495 0.10847 0.0
C151 C 0.35066 0.45551 0.1143 0.0
C152 C 0.33805 0.46926 0.08816 0.0
C153 C 0.32081 0.4626 0.05898 0.0
C154 C 0.27423 0.4328 0.08475 0.0
C155 C 0.25518 0.42347 0.07715 0.0
C156 C 0.23997 0.4268 0.11248 0.0
C157 C 0.24359 0.43959 0.15591 0.0
C158 C 0.26307 0.44796 0.16501 0.0
C159 C 0.27822 0.44467 0.12961 0.0
P160 P 0.06837 0.29398 0.03102 0.0
H161 H 0.08142 0.28434 0.92536 0.0
H162 H 0.07202 0.25686 0.86597 0.0
H163 H 0.02125 0.2416 0.96136 0.0
H164 H 0.03061 0.26952 0.02048 0.0
H165 H 0.07466 0.33756 0.03357 0.0
H166 H 0.06268 0.36265 0.09328 0.0
H167 H 0.01918 0.31961 0.15198 0.0
H168 H 0.03154 0.29438 0.0924 0.0
H169 H 0.07351 0.25034 0.03712 0.0
H170 H 0.07723 0.30051 0.14408 0.0
O171 O 0.09029 0.30364 0.01122 0.0
H172 H 0.07271 0.22748 0.11119 0.0
H173 H 0.07722 0.27753 0.21899 0.0
C174 C 0.0567 0.2792 0.97755 0.0
C175 C 0.06783 0.27561 0.9327 0.0
C176 C 0.06259 0.25961 0.899 0.0
C177 C 0.04614 0.24664 0.9094 0.0
C178 C 0.034 0.25125 0.95194 0.0
C179 C 0.03924 0.26738 0.98568 0.0
C180 C 0.05403 0.31398 0.05818 0.0
C181 C 0.06205 0.33363 0.05783 0.0
C182 C 0.05519 0.34805 0.09235 0.0
C183 C 0.04016 0.34314 0.12833 0.0
C184 C 0.03103 0.32386 0.12557 0.0
C185 C 0.03783 0.30947 0.0907 0.0
C186 C 0.07403 0.27719 0.08497 0.0
C187 C 0.07439 0.25651 0.07653 0.0
C188 C 0.0743 0.24335 0.11924 0.0
C189 C 0.07432 0.25068 0.17117 0.0
C190 C 0.07653 0.27142 0.17944 0.0
C191 C 0.07652 0.28458 0.13658 0.0
P192 P 0.23569 0.07223 0.01409 0.0
H193 H 0.24736 0.08391 0.90778 0.0
H194 H 0.27506 0.07406 0.85421 0.0
H195 H 0.28737 0.02536 0.96157 0.0
H196 H 0.2593 0.03525 0.01509 0.0
H197 H 0.19347 0.08365 0.01441 0.0
H198 H 0.1664 0.07323 0.07075 0.0
H199 H 0.2006 0.02234 0.12266 0.0
H200 H 0.22814 0.03344 0.06703 0.0
H201 H 0.27958 0.07754 0.03315 0.0
H202 H 0.22616 0.07842 0.12519 0.0
O203 O 0.22935 0.09462 0.99064 0.0
H204 H 0.3004 0.07586 0.11387 0.0
H205 H 0.24701 0.07693 0.20609 0.0
C206 C 0.25104 0.06033 0.96571 0.0
C207 C 0.25554 0.07072 0.91921 0.0
C208 C 0.27167 0.06522 0.88878 0.0
C209 C 0.28385 0.04917 0.904 0.0
C210 C 0.27837 0.03779 0.94843 0.0
C211 C 0.26214 0.04333 0.97897 0.0
C212 C 0.21296 0.05931 0.03583 0.0
C213 C 0.19495 0.06982 0.03625 0.0
C214 C 0.17934 0.06381 0.069 0.0
C215 C 0.18125 0.04706 0.10242 0.0
C216 C 0.19865 0.03557 0.09855 0.0
C217 C 0.21432 0.04165 0.06568 0.0
C218 C 0.25122 0.07668 0.07293 0.0
C219 C 0.27229 0.07755 0.0706 0.0
C220 C 0.28424 0.07692 0.11693 0.0
C221 C 0.27526 0.07573 0.16624 0.0
C222 C 0.25428 0.0773 0.16853 0.0
C223 C 0.24236 0.078 0.12217 0.0
P224 P 0.46695 0.24994 0.0533 0.0
H225 H 0.44127 0.26087 0.96189 0.0
H226 H 0.44762 0.28435 0.89042 0.0
H227 H 0.5113 0.28485 0.93261 0.0
H228 H 0.50486 0.26051 1.0022 0.0
H229 H 0.43975 0.21689 0.082 0.0
H230 H 0.44616 0.18494 0.12415 0.0
H231 H 0.50975 0.19316 0.09746 0.0
H232 H 0.50315 0.22549 0.05519 0.0
H233 H 0.47846 0.29232 0.0556 0.0
H234 H 0.48749 0.2409 0.15619 0.0
O235 O 0.44291 0.25464 0.06442 0.0
H236 H 0.50142 0.3122 0.11287 0.0
H237 H 0.51055 0.26084 0.21356 0.0
C238 C 0.47254 0.25924 0.9882 0.0
C239 C 0.4567 0.26539 0.95446 0.0
C240 C 0.46035 0.27914 0.91398 0.0
C241 C 0.47989 0.28722 0.90685 0.0
C242 C 0.49602 0.27915 0.93681 0.0
C243 C 0.49237 0.2651 0.97674 0.0
C244 C 0.47099 0.22369 0.06562 0.0
C245 C 0.45502 0.2116 0.08346 0.0
C246 C 0.45871 0.19321 0.1077 0.0
C247 C 0.47852 0.18655 0.11497 0.0
C248 C 0.49435 0.19798 0.09319 0.0
C249 C 0.49058 0.21634 0.06837 0.0
C250 C 0.48205 0.26482 0.09987 0.0
C251 C 0.48552 0.28521 0.08964 0.0
C252 C 0.49868 0.29657 0.12233 0.0
C253 C 0.50821 0.28788 0.16672 0.0
C254 C 0.50365 0.26781 0.17907 0.0
C255 C 0.49058 0.25637 0.14596 0.0
Eu256 Eu 0.9975 0.02226 0.57279 0.0
Eu257 Eu 0.03543 0.00927 0.64897 0.0
C258 C 0.02271 0.05501 0.64467 0.0
C259 C 0.96732 0.05566 0.48647 0.0
C260 C 0.97178 0.07302 0.51634 0.0
C261 C 0.96895 0.07547 0.40633 0.0
C262 C 0.97546 0.09127 0.49134 0.0
C263 C 0.96515 0.05718 0.43141 0.0
C264 C 0.97492 0.09249 0.43605 0.0
C265 C 0.96873 0.0358 0.5113 0.0
O266 O 0.00881 0.01165 0.70171 0.0
O267 O 0.98308 0.00602 0.64077 0.0
C268 C 0.98975 0.00719 0.69013 0.0
O269 O 1.00347 0.99043 0.54965 0.0
O270 O 0.05109 0.00921 0.72629 0.0
O271 O 0.06424 0.99482 0.66005 0.0
O272 O 0.01955 0.97998 0.62584 0.0
C273 C 0.01034 0.97603 0.58009 0.0
O274 O 0.0253 0.03361 0.53121 0.0
O275 O 0.04763 0.01165 0.56721 0.0
O276 O 0.03808 0.04304 0.64614 0.0
O277 O 0.98314 0.02493 0.49438 0.0
O278 O 0.96781 0.03521 0.56257 0.0
O279 O 1.00492 0.04878 0.62601 0.0
C280 C 0.06783 0.9793 0.74318 0.0
C281 C 0.06098 0.9605 0.72431 0.0
C282 C 0.07769 0.96408 0.82675 0.0
C283 C 0.06247 0.94363 0.75642 0.0
C284 C 0.07635 0.98096 0.79437 0.0
C285 C 0.07057 0.94526 0.80828 0.0
C286 C 0.06495 0.99735 0.71101 0.0
C287 C 0.04248 0.02437 0.52997 0.0
H288 H 0.97378 0.07231 0.55887 0.0
H289 H 0.96821 0.07607 0.36363 0.0
H290 H 0.98022 0.10405 0.51531 0.0
H291 H 0.96182 0.04398 0.40765 0.0
H292 H 0.05419 0.95885 0.68501 0.0
H293 H 0.08376 0.96589 0.86672 0.0
H294 H 0.05715 0.92932 0.74067 0.0
H295 H 0.08153 0.99539 0.8097 0.0
Eu296 Eu 0.52046 0.03195 0.64842 0.0
Eu297 Eu 0.5021 0.99595 0.57388 0.0
C298 C 0.52106 0.98606 0.68719 0.0
C299 C 0.5496 0.05197 0.7624 0.0
C300 C 0.54317 0.03722 0.79825 0.0
C301 C 0.58404 0.04793 0.79505 0.0
C302 C 0.55718 0.02708 0.82965 0.0
C303 C 0.57 0.05804 0.76333 0.0
C304 C 0.57788 0.03152 0.82607 0.0
C305 C 0.5364 0.05719 0.71669 0.0
O306 O 0.47808 1.00314 0.63167 0.0
O307 O 0.48668 0.03595 0.64573 0.0
C308 C 0.47347 0.02099 0.64802 0.0
O309 O 0.51704 0.0462 0.5685 0.0
O310 O 0.4881 0.96612 0.56726 0.0
O311 O 0.49291 0.98361 0.49677 0.0
O312 O 0.4925 0.02474 0.53401 0.0
C313 C 0.50311 0.04165 0.53213 0.0
O314 O 0.54777 0.01634 0.61855 0.0
O315 O 0.53358 1.00119 0.54465 0.0
O316 O 0.52041 0.98047 0.63763 0.0
O317 O 0.54403 0.05411 0.67084 0.0
O318 O 0.51772 0.05067 0.71799 0.0
O319 O 0.51755 0.00458 0.70007 0.0
C320 C 0.4617 0.96679 0.50271 0.0
C321 C 0.44736 0.97122 0.54011 0.0
C322 C 0.4356 0.96826 0.43349 0.0
C323 C 0.42753 0.97493 0.52407 0.0
C324 C 0.45549 0.96454 0.4496 0.0
C325 C 0.4217 0.97437 0.47036 0.0
C326 C 0.48332 0.96836 0.51731 0.0
C327 C 0.54954 0.00777 0.57231 0.0
H328 H 0.52752 0.03222 0.79887 0.0
H329 H 0.59985 0.05218 0.79279 0.0
H330 H 0.55184 0.01464 0.85327 0.0
H331 H 0.57531 0.06944 0.73634 0.0
H332 H 0.45171 0.97313 0.58139 0.0
H333 H 0.43155 0.96786 0.39175 0.0
H334 H 0.41706 0.97937 0.55335 0.0
H335 H 0.46634 0.9613 0.42013 0.0
Eu336 Eu 0.49611 0.52534 0.65652 0.0
Eu337 Eu 0.53612 0.51235 0.59402 0.0
C338 C 0.54067 0.53166 0.70852 0.0
C339 C 0.45957 0.55307 0.74029 0.0
C340 C 0.47299 0.56952 0.74649 0.0
C341 C 0.43618 0.56904 0.79688 0.0
C342 C 0.468 0.58571 0.77758 0.0
C343 C 0.44119 0.55287 0.76566 0.0
C344 C 0.44953 0.58567 0.80312 0.0
C345 C 0.46452 0.53626 0.70672 0.0
O346 O 0.52839 0.48649 0.64788 0.0
O347 O 0.4947 0.4916 0.65569 0.0
C348 C 0.51029 0.47998 0.6601 0.0
O349 O 0.48589 0.52009 0.57193 0.0
O350 O 0.56669 0.50129 0.59829 0.0
O351 O 0.5529 0.50883 0.52247 0.0
O352 O 0.50983 0.49843 0.54696 0.0
C353 C 0.49221 0.50661 0.53936 0.0
O354 O 0.51105 0.55447 0.63158 0.0
O355 O 0.528 0.54263 0.56149 0.0
O356 O 0.54751 0.53225 0.66069 0.0
O357 O 0.46766 0.5407 0.6576 0.0
O358 O 0.47782 0.52408 0.72636 0.0
O359 O 0.52202 0.52574 0.7168 0.0
C360 C 0.57313 0.48078 0.52678 0.0
C361 C 0.55955 0.46452 0.53177 0.0
C362 C 0.59545 0.45972 0.47943 0.0
C363 C 0.56371 0.44606 0.51004 0.0
C364 C 0.59122 0.47827 0.50121 0.0
C365 C 0.58159 0.44348 0.48299 0.0
C366 C 0.56797 0.50034 0.5472 0.0
C367 C 0.52028 0.55748 0.58711 0.0
H368 H 0.48724 0.5699 0.72693 0.0
H369 H 0.42197 0.56845 0.81652 0.0
H370 H 0.47848 0.59839 0.78094 0.0
H371 H 0.43071 0.54022 0.76124 0.0
H372 H 0.54548 0.46626 0.55142 0.0
H373 H 0.60939 0.45817 0.45916 0.0
H374 H 0.55249 0.43405 0.51261 0.0
H375 H 0.60188 0.49071 0.49734 0.0
Eu376 Eu 0.02515 0.52752 0.60232 0.0
Eu377 Eu 1.00522 0.49224 0.67491 0.0
C378 C 0.05303 0.50001 0.67443 0.0
C379 C 0.06289 0.5496 0.51377 0.0
C380 C 0.08015 0.54169 0.53891 0.0
C381 C 0.07772 0.54429 0.42888 0.0
C382 C 0.09573 0.53467 0.50931 0.0
C383 C 0.0621 0.5514 0.45859 0.0
C384 C 0.09438 0.53525 0.45395 0.0
C385 C 0.04467 0.55294 0.54389 0.0
O386 O 0.99722 0.52111 0.71411 0.0
O387 O 0.02358 0.54031 0.68466 0.0
C388 C 0.00924 0.53701 0.7183 0.0
O389 O 0.99215 0.53447 0.5997 0.0
O390 O 1.00103 0.47823 0.75164 0.0
O391 O 0.98724 0.46461 0.68139 0.0
O392 O 0.97985 0.50319 0.62164 0.0
C393 C 0.97719 0.52122 0.60221 0.0
O394 O 0.0179 0.50146 0.54759 0.0
O395 O 0.01942 0.4761 0.60792 0.0
O396 O 0.03758 0.49657 0.70429 0.0
O397 O 0.02846 0.54308 0.52709 0.0
O398 O 0.04693 0.55232 0.59519 0.0
O399 O 0.05044 0.50738 0.62685 0.0
C400 C 0.96932 0.46235 0.75927 0.0
C401 C 0.95483 0.4771 0.75309 0.0
C402 C 0.94739 0.44394 0.81775 0.0
C403 C 0.93674 0.47533 0.77932 0.0
C404 C 0.9655 0.44574 0.79147 0.0
C405 C 0.93286 0.45879 0.81221 0.0
C406 C 0.98851 0.46443 0.73281 0.0
C407 C 0.01958 0.48239 0.5588 0.0
H408 H 0.08127 0.54002 0.58139 0.0
H409 H 0.07621 0.54488 0.38624 0.0
H410 H 0.10856 0.52815 0.52981 0.0
H411 H 0.0489 0.55732 0.43833 0.0
H412 H 0.95757 0.49001 0.72817 0.0
H413 H 0.94496 0.43116 0.84328 0.0
H414 H 0.92576 0.48687 0.7737 0.0
H415 H 0.9766 0.43427 0.79667 0.0
H416 H 0.13997 0.05196 0.09688 0.0
H417 H 0.11624 0.04887 0.16811 0.0
H418 H 0.16387 0.02865 0.27338 0.0
H419 H 0.18792 0.03278 0.2035 0.0
H420 H 0.10271 0.01866 0.22736 0.0
H421 H 0.14327 0.07322 0.35938 0.0
H422 H 0.14974 0.06998 0.29156 0.0
H423 H 0.15884 0.05302 0.34167 0.0
C424 C 0.14552 0.04702 0.13526 0.0
C425 C 0.16608 0.04286 0.14408 0.0
C426 C 0.13182 0.04512 0.17604 0.0
C427 C 0.13825 0.03902 0.22685 0.0
C428 C 0.15854 0.03397 0.23516 0.0
H429 H 0.08135 0.01232 0.52248 0.0
H430 H 0.10362 0.01647 0.44834 0.0
C431 C 0.17228 0.036 0.19457 0.0
C432 C 0.12379 0.03795 0.27097 0.0
H433 H 0.11691 0.05367 0.39738 0.0
C434 C 0.10578 0.02647 0.26432 0.0
C435 C 0.12757 0.04822 0.31939 0.0
C436 C 0.14579 0.06197 0.32832 0.0
C437 C 0.09188 0.02452 0.30496 0.0
C438 C 0.09595 0.03439 0.35365 0.0
C439 C 0.11381 0.04603 0.36018 0.0
C440 C 0.08219 0.03232 0.39889 0.0
C441 C 0.07317 0.01147 0.29607 0.0
C442 C 0.06274 0.04014 0.39638 0.0
C443 C 0.04993 0.03795 0.43912 0.0
C444 C 0.05626 0.02776 0.48525 0.0
C445 C 0.07586 0.02018 0.4877 0.0
C446 C 0.08867 0.02255 0.44525 0.0
H447 H 0.07394 1.0021 0.26015 0.0
H448 H 0.07079 1.00155 0.33059 0.0
H449 H 0.05987 0.02108 0.29133 0.0
H450 H 0.05746 0.04799 0.36134 0.0
H451 H 0.03497 0.04398 0.4357 0.0
H452 H 0.50854 0.18335 0.19102 0.0
H453 H 0.5126 0.15696 0.25711 0.0
H454 H 0.46126 0.12452 0.18777 0.0
H455 H 0.45734 0.15067 0.12067 0.0
H456 H 0.48253 0.1462 0.32908 0.0
H457 H 0.50346 0.08087 0.20996 0.0
H458 H 0.50574 0.10628 0.18609 0.0
H459 H 0.48148 0.09369 0.18628 0.0
C460 C 0.49844 0.17034 0.18878 0.0
C461 C 0.48264 0.16914 0.1503 0.0
C462 C 0.50069 0.15534 0.22695 0.0
C463 C 0.48732 0.13869 0.22728 0.0
C464 C 0.47193 0.13708 0.18792 0.0
H465 H 0.4752 0.03853 0.44931 0.0
H466 H 0.47031 0.06197 0.37568 0.0
C467 C 0.46962 0.15212 0.1498 0.0
C468 C 0.48858 0.12391 0.27116 0.0
H469 H 0.49697 0.0748 0.29989 0.0
C470 C 0.48574 0.1306 0.3227 0.0
C471 C 0.49253 0.10351 0.26274 0.0
C472 C 0.49614 0.0956 0.20838 0.0
C473 C 0.4867 0.11748 0.36603 0.0
C474 C 0.4911 0.09715 0.35786 0.0
C475 C 0.49363 0.09037 0.30618 0.0
C476 C 0.49387 0.08293 0.40268 0.0
C477 C 0.48267 0.12549 0.42009 0.0
C478 C 0.50886 0.08677 0.44207 0.0
C479 C 0.51162 0.07351 0.48424 0.0
C480 C 0.49957 0.05592 0.48786 0.0
C481 C 0.48467 0.05197 0.44803 0.0
C482 C 0.48189 0.06532 0.4058 0.0
H483 H 0.47366 0.13922 0.41763 0.0
H484 H 0.47454 0.11418 0.4441 0.0
H485 H 0.49724 0.12943 0.44085 0.0
H486 H 0.51862 0.09999 0.43996 0.0
H487 H 0.52339 0.077 0.51375 0.0
H488 H 0.38845 0.44014 0.12776 0.0
H489 H 0.41401 0.4486 0.19688 0.0
H490 H 0.37642 0.49479 0.25361 0.0
H491 H 0.3506 0.48613 0.18568 0.0
H492 H 0.43525 0.48536 0.22423 0.0
H493 H 0.38598 0.45819 0.38307 0.0
H494 H 0.38081 0.45233 0.31438 0.0
H495 H 0.37474 0.47639 0.33984 0.0
C496 C 0.38565 0.45216 0.15484 0.0
C497 C 0.36738 0.46235 0.15137 0.0
C498 C 0.40031 0.45702 0.19415 0.0
C499 C 0.39695 0.47208 0.23094 0.0
C500 C 0.37917 0.4829 0.22612 0.0
H501 H 0.45545 0.52135 0.51092 0.0
H502 H 0.43369 0.51235 0.43478 0.0
C503 C 0.36452 0.47808 0.18682 0.0
C504 C 0.41164 0.476 0.27555 0.0
H505 H 0.4163 0.4754 0.41009 0.0
C506 C 0.43119 0.48308 0.26489 0.0
C507 C 0.40634 0.47287 0.32852 0.0
C508 C 0.38589 0.46435 0.34234 0.0
C509 C 0.44535 0.48781 0.30595 0.0
C510 C 0.43989 0.48503 0.35897 0.0
C511 C 0.42046 0.47758 0.36946 0.0
C512 C 0.4537 0.49055 0.4044 0.0
C513 C 0.46578 0.49636 0.2923 0.0
C514 C 0.47221 0.48117 0.41303 0.0
C515 C 0.48481 0.48633 0.45679 0.0
C516 C 0.47905 0.50087 0.49287 0.0
C517 C 0.46043 0.5101 0.48409 0.0
C518 C 0.44792 0.50497 0.44049 0.0
H519 H 0.46598 0.50179 0.25089 0.0
H520 H 0.47042 0.50892 0.31902 0.0
H521 H 0.47712 0.48456 0.29711 0.0
H522 H 0.47681 0.46971 0.3863 0.0
H523 H 0.49899 0.47886 0.46242 0.0
H524 H 0.03373 0.33469 0.23242 0.0
H525 H 0.02887 0.35812 0.30438 0.0
H526 H 0.03238 0.40748 0.1952 0.0
H527 H 0.03671 0.3841 0.12265 0.0
H528 H 0.05546 0.3887 0.33923 0.0
H529 H 0.9819 0.41975 0.2754 0.0
H530 H 0.99122 0.39707 0.24794 0.0
H531 H 1.00066 0.42104 0.22617 0.0
C532 C 0.033 0.35048 0.22332 0.0
C533 C 0.03548 0.35741 0.17138 0.0
C534 C 0.0304 0.3639 0.26474 0.0
C535 C 0.03004 0.3846 0.25534 0.0
C536 C 0.03225 0.39159 0.20349 0.0
H537 H 0.0223 0.49028 0.45304 0.0
H538 H 0.02523 0.46648 0.38095 0.0
C539 C 0.03491 0.37817 0.16202 0.0
C540 C 0.0283 0.39886 0.30013 0.0
H541 H 0.99947 0.43597 0.34717 0.0
C542 C 0.04314 0.39895 0.34111 0.0
C543 C 0.01231 0.41234 0.3026 0.0
C544 C 0.9955 0.4125 0.26097 0.0
C545 C 0.04264 0.41235 0.38378 0.0
C546 C 0.02661 0.4258 0.38636 0.0
C547 C 0.01176 0.42569 0.34537 0.0
C548 C 0.02504 0.44022 0.43091 0.0
C549 C 0.05964 0.41234 0.42493 0.0
C550 C 0.02378 0.43348 0.4833 0.0
C551 C 0.02216 0.4471 0.52484 0.0
C552 C 0.02159 0.46781 0.51495 0.0
C553 C 0.0227 0.47449 0.46236 0.0
C554 C 0.02435 0.46086 0.42093 0.0
H555 H 0.07327 0.40531 0.40996 0.0
H556 H 0.0638 0.42779 0.43805 0.0
H557 H 0.05476 0.40364 0.45975 0.0
H558 H 0.02381 0.41763 0.49209 0.0
H559 H 0.02119 0.44137 0.56466 0.0
H560 H 0.87624 0.97829 0.09798 0.0
H561 H 0.90175 0.97719 0.03045 0.0
H562 H 0.87578 0.0283 0.95311 0.0
H563 H 0.85021 0.02935 0.01935 0.0
H564 H 0.89697 0.97278 0.91996 0.0
H565 H 0.93535 0.04526 0.97008 0.0
H566 H 0.91821 0.03273 0.01379 0.0
H567 H 0.90862 0.04706 0.95878 0.0
C568 C 0.87593 0.98931 0.06665 0.0
C569 C 0.86121 1.0041 0.06497 0.0
C570 C 0.89058 0.98868 0.02805 0.0
C571 C 0.89096 1.00288 0.98704 0.0
C572 C 0.8762 0.01748 0.98497 0.0
H573 H 0.94869 0.99978 0.68332 0.0
H574 H 0.92522 0.99756 0.75556 0.0
C575 C 0.86157 0.0181 0.02328 0.0
C576 C 0.90644 1.00232 0.94569 0.0
H577 H 0.94346 0.0306 0.88837 0.0
C578 C 0.90723 0.98537 0.91328 0.0
C579 C 0.92002 0.01864 0.93712 0.0
C580 C 0.9207 0.03688 0.97207 0.0
C581 C 0.9208 0.98452 0.87186 0.0
C582 C 0.93383 1.00117 0.86201 0.0
C583 C 0.93338 0.0179 0.89535 0.0
C584 C 0.94816 1.00158 0.81776 0.0
C585 C 0.92122 0.96568 0.83942 0.0
C586 C 0.96891 0.00485 0.82821 0.0
C587 C 0.98238 0.00622 0.78693 0.0
C588 C 0.97544 0.00449 0.73393 0.0
C589 C 0.95465 1.00105 0.72352 0.0
C590 C 0.94117 0.99967 0.76493 0.0
H591 H 0.91459 0.95263 0.86052 0.0
H592 H 0.91223 0.96777 0.80217 0.0
H593 H 0.93687 0.96224 0.82922 0.0
H594 H 0.97473 0.00646 0.86849 0.0
H595 H 0.99824 0.00891 0.79671 0.0
H596 H 0.5412 0.86216 0.087 0.0
H597 H 0.54797 0.88599 0.01522 0.0
H598 H 0.48552 0.88124 0.9627 0.0
H599 H 0.47867 0.85784 0.03425 0.0
H600 H 0.54337 0.88423 0.90621 0.0
H601 H 0.49343 0.94094 0.98476 0.0
H602 H 0.50107 0.9194 0.02263 0.0
H603 H 0.48054 0.91727 0.9744 0.0
C604 C 0.52898 0.86615 0.0599 0.0
C605 C 0.50932 0.85843 0.06689 0.0
C606 C 0.53285 0.87977 0.01898 0.0
C607 C 0.51714 0.88581 0.98433 0.0
C608 C 0.49776 0.87731 0.98983 0.0
H609 H 0.51896 0.94506 0.67997 0.0
H610 H 0.52054 0.92086 0.75246 0.0
C611 C 0.49387 0.86391 0.03076 0.0
C612 C 0.52069 0.90123 0.94293 0.0
H613 H 0.50328 0.94564 0.89593 0.0
C614 C 0.53476 0.89776 0.90418 0.0
C615 C 0.50976 0.9191 0.94078 0.0
C616 C 0.49552 0.92453 0.98319 0.0
C617 C 0.53763 0.91133 0.86231 0.0
C618 C 0.52578 0.9286 0.85846 0.0
C619 C 0.51223 0.93233 0.8983 0.0
C620 C 0.52685 0.94299 0.81351 0.0
C621 C 0.55348 0.9071 0.82305 0.0
C622 C 0.52963 0.96356 0.82335 0.0
C623 C 0.52831 0.97742 0.7821 0.0
C624 C 0.52434 0.97109 0.72984 0.0
C625 C 0.52223 0.95045 0.71967 0.0
C626 C 0.52328 0.93656 0.76115 0.0
H627 H 0.56534 0.89744 0.84046 0.0
H628 H 0.54632 0.89906 0.78871 0.0
H629 H 0.56076 0.92114 0.80869 0.0
H630 H 0.53237 0.96896 0.86328 0.0
H631 H 0.52998 0.99317 0.79137 0.0
H632 H 0.68877 0.54613 0.05108 0.0
H633 H 0.66533 0.55099 0.97587 0.0
H634 H 0.61509 0.54192 0.07713 0.0
H635 H 0.63842 0.53774 0.15286 0.0
H636 H 0.63877 0.52195 0.93955 0.0
H637 H 0.59694 0.5894 0.9896 0.0
H638 H 0.6204 0.58308 0.02295 0.0
H639 H 0.59714 0.5709 0.04101 0.0
C640 C 0.67275 0.54581 0.05775 0.0
C641 C 0.6655 0.54151 0.1081 0.0
C642 C 0.65935 0.54844 0.01457 0.0
C643 C 0.63843 0.54698 0.02082 0.0
C644 C 0.63114 0.54349 0.07138 0.0
H645 H 0.53276 0.53038 0.81395 0.0
H646 H 0.55674 0.53556 0.88865 0.0
C647 C 0.64452 0.54087 0.11459 0.0
C648 C 0.62435 0.54697 0.97385 0.0
H649 H 0.5825 0.56891 0.91995 0.0
C650 C 0.62662 0.53238 0.93497 0.0
C651 C 0.60838 0.56047 0.96809 0.0
C652 C 0.60564 0.57697 0.00738 0.0
C653 C 0.61311 0.53059 0.89125 0.0
C654 C 0.59704 0.54397 0.88569 0.0
C655 C 0.59483 0.55868 0.92429 0.0
C656 C 0.58222 0.54256 0.84046 0.0
C657 C 0.61579 0.51395 0.85224 0.0
C658 C 0.58847 0.54532 0.78863 0.0
C659 C 0.57484 0.54233 0.74583 0.0
C660 C 0.55462 0.53661 0.75402 0.0
C661 C 0.54822 0.53468 0.80613 0.0
C662 C 0.5619 0.53766 0.84893 0.0
H663 H 0.62578 0.50224 0.8686 0.0
H664 H 0.60102 0.50683 0.8402 0.0
H665 H 0.62272 0.52022 0.81641 0.0
H666 H 0.60401 0.54945 0.78123 0.0
H667 H 0.58029 0.54411 0.70632 0.0
H668 H 0.02631 0.63544 0.15115 0.0
H669 H 0.02268 0.61289 0.07604 0.0
H670 H 0.9825 0.65376 0.99719 0.0
H671 H 0.98726 0.67719 0.07073 0.0
H672 H 0.99382 0.59239 0.02851 0.0
H673 H 0.02223 0.64816 0.88514 0.0
H674 H 0.02297 0.6528 0.95512 0.0
H675 H 0.99997 0.65587 0.91645 0.0
C676 C 0.01684 0.63983 0.1177 0.0
C677 C 0.00748 0.6585 0.11689 0.0
C678 C 0.01462 0.62674 0.07476 0.0
C679 C 1.00279 0.63177 0.02988 0.0
C680 C 0.99229 0.64975 0.03037 0.0
H681 H 0.97706 0.54075 0.78239 0.0
H682 H 0.974 0.56381 0.85629 0.0
C683 C 0.99474 0.66303 0.0731 0.0
C684 C 1.00198 0.61832 0.98263 0.0
H685 H 0.01049 0.61705 0.85041 0.0
C686 C 0.99745 0.59782 0.98956 0.0
C687 C 0.00704 0.62521 0.9317 0.0
C688 C 0.01353 0.64666 0.92162 0.0
C689 C 0.998 0.58411 0.94759 0.0
C690 C 1.00251 0.5911 0.89638 0.0
C691 C 0.00685 0.61162 0.88935 0.0
C692 C 1.00385 0.57736 0.85012 0.0
C693 C 0.99456 0.56216 0.9593 0.0
C694 C 0.02126 0.57774 0.82012 0.0
C695 C 0.02284 0.5649 0.77699 0.0
C696 C 0.00711 0.55118 0.76289 0.0
C697 C 0.98956 0.55095 0.79246 0.0
C698 C 0.98786 0.56405 0.83513 0.0
H699 H 0.99735 0.55878 1.00181 0.0
H700 H 0.97864 0.55785 0.94906 0.0
H701 H 1.00448 0.55277 0.93597 0.0
H702 H 0.03382 0.58784 0.83047 0.0
H703 H 0.03659 0.56549 0.75528 0.0
H704 H 0.0494 0.25798 0.25169 0.0
H705 H 0.03463 0.23356 0.31139 0.0
H706 H 0.07065 0.1876 0.24664 0.0
H707 H 0.08634 0.21218 0.18861 0.0
H708 H 0.01185 0.20306 0.27229 0.0
H709 H 0.07292 0.17291 0.40074 0.0
H710 H 0.07593 0.19599 0.36435 0.0
H711 H 0.07895 0.1723 0.33243 0.0
C712 C 0.05489 0.24289 0.25166 0.0
C713 C 0.06898 0.23701 0.21502 0.0
C714 C 0.04626 0.2289 0.28557 0.0
C715 C 0.05154 0.20878 0.28353 0.0
C716 C 0.06657 0.20311 0.24954 0.0
H717 H 1.00121 0.09403 0.35636 0.0
H718 H 0.01864 0.12358 0.32135 0.0
C719 C 0.07535 0.21714 0.21589 0.0
C720 C 0.03936 0.19336 0.31089 0.0
H721 H 0.04269 0.1522 0.39012 0.0
C722 C 0.01853 0.19216 0.29886 0.0
C723 C 0.04813 0.17912 0.3453 0.0
C724 C 0.07018 0.18025 0.36188 0.0
C725 C 1.00638 0.1766 0.31859 0.0
C726 C 0.0153 0.16198 0.35131 0.0
C727 C 0.03598 0.16345 0.36465 0.0
C728 C 1.00359 0.14451 0.3702 0.0
C729 C 0.98425 0.1754 0.3027 0.0
C730 C 0.98912 0.14666 0.40852 0.0
C731 C 0.97901 0.12981 0.42837 0.0
C732 C 0.98324 0.11061 0.41006 0.0
C733 C 0.99734 0.10864 0.37051 0.0
C734 C 0.00748 0.12546 0.35091 0.0
H735 H 0.98028 0.18632 0.27119 0.0
H736 H 0.97992 0.16011 0.28863 0.0
H737 H 0.97522 0.17854 0.33753 0.0
H738 H 0.98605 0.1613 0.42397 0.0
H739 H 0.96822 0.13175 0.45882 0.0
H740 H 0.31262 0.09006 0.20018 0.0
H741 H 0.33519 0.07439 0.26576 0.0
H742 H 0.28804 0.03139 0.30219 0.0
H743 H 0.26543 0.04702 0.2375 0.0
H744 H 0.31212 0.04236 0.39041 0.0
H745 H 0.35731 0.02081 0.2205 0.0
H746 H 0.35472 0.04729 0.22782 0.0
H747 H 0.33285 0.03164 0.21218 0.0
C748 C 0.30697 0.07756 0.22309 0.0
C749 C 0.28737 0.06963 0.21337 0.0
C750 C 0.31985 0.06861 0.26035 0.0
C751 C 0.31337 0.05147 0.28774 0.0
C752 C 0.29332 0.04457 0.28127 0.0
H753 H 0.39449 0.95966 0.39536 0.0
H754 H 0.3656 0.97705 0.35605 0.0
C755 C 0.2804 0.05359 0.24441 0.0
C756 C 0.32792 0.03935 0.31834 0.0
H757 H 0.36982 0.01179 0.30516 0.0
C758 C 0.32477 0.03567 0.37195 0.0
C759 C 0.34404 0.03022 0.2936 0.0
C760 C 0.34738 0.03248 0.23527 0.0
C761 C 0.33762 0.02336 0.40185 0.0
C762 C 0.35417 0.01485 0.37748 0.0
C763 C 0.3571 0.01834 0.32373 0.0
C764 C 0.36926 1.00294 0.40696 0.0
C765 C 0.33315 0.01933 0.45885 0.0
C766 C 0.38057 0.01156 0.44918 0.0
C767 C 0.39691 1.00163 0.47178 0.0
C768 C 0.40241 0.983 0.45208 0.0
C769 C 0.3906 0.97402 0.41113 0.0
C770 C 0.37412 0.98391 0.38881 0.0
H771 H 0.31696 0.02137 0.46643 0.0
H772 H 0.33722 1.00393 0.47069 0.0
H773 H 0.34209 0.03006 0.4842 0.0
H774 H 0.37746 0.02645 0.46283 0.0
H775 H 0.40598 0.00912 0.50257 0.0
H776 H 0.51017 0.29098 0.27428 0.0
H777 H 0.53158 0.31429 0.3275 0.0
H778 H 0.56042 0.33505 0.18707 0.0
H779 H 0.53901 0.31193 0.13368 0.0
H780 H 0.57537 0.32268 0.33894 0.0
H781 H 0.53194 0.3843 0.24582 0.0
H782 H 0.52358 0.35844 0.24121 0.0
H783 H 0.54355 0.36773 0.20113 0.0
C784 C 0.52135 0.30025 0.25498 0.0
C785 C 0.52272 0.29995 0.19985 0.0
C786 C 0.53357 0.3135 0.28535 0.0
C787 C 0.54734 0.32651 0.26097 0.0
C788 C 0.54967 0.32528 0.20639 0.0
H789 H 0.59624 0.43882 0.38456 0.0
H790 H 0.59407 0.40865 0.33068 0.0
C791 C 0.53738 0.31218 0.17601 0.0
C792 C 0.55755 0.34283 0.2916 0.0
H793 H 0.55736 0.39333 0.30815 0.0
C794 C 0.57162 0.33817 0.33207 0.0
C795 C 0.55257 0.36297 0.28235 0.0
C796 C 0.53698 0.36875 0.2406 0.0
C797 C 0.58077 0.35325 0.36402 0.0
C798 C 0.57536 0.37334 0.35561 0.0
C799 C 0.56166 0.37795 0.31421 0.0
C800 C 0.58189 0.38976 0.39189 0.0
C801 C 0.59603 0.34752 0.40646 0.0
C802 C 0.5766 0.38894 0.44491 0.0
C803 C 0.57807 0.40612 0.47607 0.0
C804 C 0.58454 0.4245 0.45447 0.0
C805 C 0.59132 0.42491 0.4026 0.0
C806 C 0.59 0.40768 0.37161 0.0
H807 H 0.60363 0.33355 0.39608 0.0
H808 H 0.60766 0.35959 0.41333 0.0
H809 H 0.58822 0.34476 0.44383 0.0
H810 H 0.56996 0.3754 0.46121 0.0
H811 H 0.57307 0.40524 0.5162 0.0
H812 H 0.20578 0.44964 0.12153 0.0
H813 H 0.17961 0.46446 0.17282 0.0
H814 H 0.21727 0.45964 0.31415 0.0
H815 H 0.24354 0.44458 0.26318 0.0
H816 H 0.15885 0.45111 0.26318 0.0
H817 H 0.20582 0.52004 0.30129 0.0
H818 H 0.21177 0.50188 0.25213 0.0
H819 H 0.21751 0.49713 0.32071 0.0
C820 C 0.20834 0.45128 0.16372 0.0
C821 C 0.22678 0.44602 0.18829 0.0
C822 C 0.19342 0.45988 0.19287 0.0
C823 C 0.1967 0.46345 0.24697 0.0
C824 C 0.21465 0.45735 0.27216 0.0
H825 H 0.11073 0.49896 0.47376 0.0
H826 H 0.13525 0.48172 0.42233 0.0
C827 C 0.22961 0.44874 0.24305 0.0
C828 C 0.18163 0.47427 0.27647 0.0
H829 H 0.17473 0.51745 0.34407 0.0
C830 C 0.16228 0.46561 0.28089 0.0
C831 C 0.18611 0.49335 0.2986 0.0
C832 C 0.20636 0.50379 0.29267 0.0
C833 C 0.14734 0.47537 0.3079 0.0
C834 C 0.15203 0.49416 0.33149 0.0
C835 C 0.17126 0.50299 0.32619 0.0
C836 C 0.13728 0.50476 0.3626 0.0
C837 C 0.12661 0.46564 0.31039 0.0
C838 C 0.13073 0.52369 0.34673 0.0
C839 C 0.11686 0.53373 0.37643 0.0
C840 C 0.10951 0.52506 0.42275 0.0
C841 C 0.11631 0.50618 0.43869 0.0
C842 C 0.13012 0.49617 0.409 0.0
H843 H 0.12396 0.45414 0.27919 0.0
H844 H 0.12511 0.45817 0.34922 0.0
H845 H 0.11472 0.47693 0.30619 0.0
H846 H 0.13624 0.53061 0.31118 0.0
H847 H 0.11201 0.54832 0.3634 0.0
H848 H 0.02528 0.80073 0.10561 0.0
H849 H 0.03154 0.82961 0.04858 0.0
H850 H 0.09485 0.81688 0.05044 0.0
H851 H 0.08869 0.78773 0.10747 0.0
H852 H 0.06203 0.86329 0.07403 0.0
H853 H 0.07335 0.82097 0.88884 0.0
H854 H 0.05935 0.81043 0.94252 0.0
H855 H 0.08628 0.81294 0.9486 0.0
C856 C 0.04051 0.80395 0.09345 0.0
C857 C 0.0565 0.79193 0.11054 0.0
C858 C 0.04406 0.8205 0.06125 0.0
C859 C 0.06361 0.82519 0.04532 0.0
C860 C 0.07965 0.81332 0.06229 0.0
H861 H 0.10028 0.93453 0.88004 0.0
H862 H 0.10006 0.90551 0.93927 0.0
C863 C 0.07614 0.7968 0.0949 0.0
C864 C 0.06705 0.84269 0.01114 0.0
H865 H 0.0752 0.85615 0.88373 0.0
C866 C 0.06514 0.86181 0.03255 0.0
C867 C 0.07087 0.84051 0.9571 0.0
C868 C 0.07251 0.82014 0.93247 0.0
C869 C 0.06678 0.87895 1.0009 0.0
C870 C 0.07045 0.87676 0.94678 0.0
C871 C 0.07255 0.85765 0.92546 0.0
C872 C 0.07085 0.89411 0.911 0.0
C873 C 0.06395 0.89924 0.02491 0.0
C874 C 0.05451 0.89709 0.87567 0.0
C875 C 0.05446 0.9137 0.84235 0.0
C876 C 0.07086 0.9275 0.84343 0.0
C877 C 0.08732 0.92432 0.87871 0.0
C878 C 0.08728 0.90774 0.91232 0.0
H879 H 0.05904 0.89818 0.06625 0.0
H880 H 0.07838 0.90801 0.02454 0.0
H881 H 0.05258 0.90759 1.00116 0.0
H882 H 0.04167 0.88671 0.87446 0.0
H883 H 0.04139 0.91588 0.8164 0.0
H884 H 0.73773 0.9771 0.93518 0.0
H885 H 0.70405 0.97141 0.89555 0.0
H886 H 0.68701 0.93677 0.03124 0.0
H887 H 0.72052 0.94283 0.07179 0.0
H888 H 0.66994 0.94147 0.87801 0.0
H889 H 0.66312 0.99372 0.04755 0.0
H890 H 0.68736 0.9866 0.02543 0.0
H891 H 0.67202 0.96905 0.0611 0.0
C892 C 0.7271 0.9675 0.95547 0.0
C893 C 0.73144 0.96101 0.00724 0.0
C894 C 0.7079 0.96412 0.93263 0.0
C895 C 0.69297 0.95419 0.96133 0.0
C896 C 0.69834 0.94469 0.00891 0.0
H897 H 0.57678 0.01115 0.92045 0.0
H898 H 0.60047 0.98646 0.95406 0.0
C899 C 0.71754 0.94814 0.03196 0.0
C900 C 0.67178 0.95901 0.94913 0.0
H901 H 0.63764 0.9934 0.98281 0.0
C902 C 0.66254 0.95241 0.90151 0.0
C903 C 0.66218 0.97327 0.98008 0.0
C904 C 0.67161 0.98122 0.03128 0.0
C905 C 0.64444 0.96061 0.88248 0.0
C906 C 0.63587 0.97617 0.91118 0.0
C907 C 0.64428 0.98155 0.96075 0.0
C908 C 0.62011 0.98906 0.88794 0.0
C909 C 0.63507 0.95294 0.83112 0.0
C910 C 0.62343 0.99893 0.84006 0.0
C911 C 0.60985 0.01287 0.82052 0.0
C912 C 0.59285 0.01759 0.84902 0.0
C913 C 0.58962 0.00778 0.89727 0.0
C914 C 0.60312 0.99362 0.91649 0.0
H915 H 0.63798 0.93679 0.82606 0.0
H916 H 0.61853 0.95506 0.82884 0.0
H917 H 0.64199 0.96109 0.79787 0.0
H918 H 0.63679 0.99622 0.81821 0.0
H919 H 0.61263 0.01976 0.7827 0.0
H920 H 0.42382 0.75549 0.03117 0.0
H921 H 0.41634 0.72706 0.9723 0.0
H922 H 0.43653 0.68664 0.09473 0.0
H923 H 0.44396 0.71483 0.15352 0.0
H924 H 0.44581 0.70371 0.94073 0.0
H925 H 0.38771 0.65608 0.03387 0.0
H926 H 0.39251 0.68189 0.0524 0.0
H927 H 0.40805 0.66251 0.07969 0.0
C928 C 0.42622 0.74049 0.04584 0.0
C929 C 0.43454 0.73739 0.09689 0.0
C930 C 0.42187 0.72428 0.0123 0.0
C931 C 0.42568 0.70471 0.02929 0.0
C932 C 0.43295 0.70153 0.08118 0.0
H933 H 0.47415 0.60697 0.87236 0.0
H934 H 0.46594 0.63637 0.92334 0.0
C935 C 0.43725 0.71771 0.11477 0.0
C936 C 0.42511 0.68803 0.99096 0.0
H937 H 0.40931 0.63938 0.97371 0.0
C938 C 0.43749 0.68979 0.94739 0.0
C939 C 0.41415 0.66992 0.99937 0.0
C940 C 0.3997 0.66755 0.0436 0.0
C941 C 0.44011 0.67357 0.91379 0.0
C942 C 0.43035 0.65504 0.92456 0.0
C943 C 0.41702 0.65356 0.96614 0.0
C944 C 0.43484 0.63683 0.8949 0.0
C945 C 0.4537 0.67626 0.86773 0.0
C946 C 0.4199 0.6271 0.86315 0.0
C947 C 0.42457 0.61032 0.83368 0.0
C948 C 0.44424 0.60297 0.83586 0.0
C949 C 0.45899 0.6125 0.86893 0.0
C950 C 0.45432 0.62925 0.89819 0.0
H951 H 0.45552 0.69226 0.85647 0.0
H952 H 0.46884 0.67064 0.87883 0.0
H953 H 0.44771 0.66768 0.83287 0.0
H954 H 0.40476 0.63274 0.86034 0.0
H955 H 0.41291 0.60341 0.80829 0.0
H956 H 0.76175 0.45679 0.04975 0.0
H957 H 0.78762 0.44837 0.98763 0.0
H958 H 0.83406 0.46619 0.10272 0.0
H959 H 0.80845 0.47463 0.16469 0.0
H960 H 0.81499 0.47474 0.94781 0.0
H961 H 0.855 0.41376 0.0507 0.0
H962 H 0.83042 0.42155 0.06924 0.0
H963 H 0.85281 0.43514 0.09239 0.0
C964 C 0.77749 0.45867 0.06198 0.0
C965 C 0.78306 0.46631 0.1122 0.0
C966 C 0.79223 0.45378 0.02657 0.0
C967 C 0.81276 0.45636 0.04086 0.0
C968 C 0.81833 0.46354 0.09137 0.0
H969 H 0.91464 0.48864 0.86405 0.0
H970 H 0.88399 0.48624 0.91421 0.0
C971 C 0.80364 0.46838 0.12677 0.0
C972 C 0.82838 0.45349 1.0016 0.0
H973 H 0.8735 0.43168 0.98435 0.0
C974 C 0.82761 0.46506 0.95535 0.0
C975 C 0.84469 0.44066 0.01108 0.0
C976 C 0.84569 0.42692 0.0583 0.0
C977 C 0.84328 0.46497 0.91977 0.0
C978 C 0.8603 0.45329 0.93132 0.0
C979 C 0.86055 0.44085 0.97598 0.0
C980 C 0.87848 0.45467 0.89929 0.0
C981 C 0.84158 0.47761 0.87052 0.0
C982 C 0.8858 0.43761 0.87527 0.0
C983 C 0.90338 0.43892 0.84658 0.0
C984 C 0.91398 0.45732 0.84171 0.0
C985 C 0.90661 0.47434 0.86611 0.0
C986 C 0.88909 0.473 0.89477 0.0
H987 H 0.82558 0.48045 0.8593 0.0
H988 H 0.84937 0.49229 0.87788 0.0
H989 H 0.84869 0.47035 0.83685 0.0
H990 H 0.87788 0.4233 0.87861 0.0
H991 H 0.9086 0.42558 0.82791 0.0
H992 H 0.01029 0.22851 0.87341 0.0
H993 H 1.00559 0.19647 0.82661 0.0
H994 H 0.06993 0.18952 0.82991 0.0
H995 H 0.07475 0.22114 0.87711 0.0
H996 H 0.02243 0.18397 0.72677 0.0
H997 H 0.04751 0.13694 0.89607 0.0
H998 H 0.03994 0.16245 0.90391 0.0
H999 H 0.06448 0.15735 0.88051 0.0
C1000 C 0.02343 0.22014 0.8643 0.0
C1001 C 0.04291 0.22755 0.87899 0.0
C1002 C 0.02072 0.20186 0.83732 0.0
C1003 C 0.0374 0.19045 0.82517 0.0
C1004 C 0.05681 0.1979 0.83929 0.0
H1005 H 0.05707 0.07384 0.68644 0.0
H1006 H 0.06032 0.10698 0.72718 0.0
C1007 C 0.05954 0.21616 0.86585 0.0
C1008 C 0.03467 0.17074 0.7979 0.0
H1009 H 0.04295 0.12078 0.81337 0.0
C1010 C 0.02678 0.17013 0.74577 0.0
C1011 C 0.04046 0.15266 0.82253 0.0
C1012 C 0.04842 0.15224 0.87899 0.0
C1013 C 0.025 0.15205 0.71723 0.0
C1014 C 0.03081 0.13393 0.74188 0.0
C1015 C 0.03856 0.13458 0.79421 0.0
C1016 C 0.02892 0.11411 0.71449 0.0
C1017 C 0.01752 0.15268 0.66038 0.0
C1018 C 0.0102 0.10689 0.69366 0.0
C1019 C 0.00833 0.08798 0.66996 0.0
C1020 C 0.02509 0.07562 0.66702 0.0
C1021 C 0.04384 0.08289 0.68777 0.0
C1022 C 0.04571 0.10187 0.71126 0.0
H1023 H 0.01962 0.16785 0.64307 0.0
H1024 H 0.02542 0.14183 0.63601 0.0
H1025 H 1.00116 0.14878 0.65818 0.0
H1026 H 0.99687 0.11571 0.69671 0.0
H1027 H 0.9936 0.0829 0.65485 0.0
H1028 H 0.3114 0.07682 0.86803 0.0
H1029 H 0.34269 0.07114 0.82328 0.0
H1030 H 0.33162 0.00747 0.83283 0.0
H1031 H 0.29998 0.01304 0.8772 0.0
H1032 H 0.37656 0.04929 0.86132 0.0
H1033 H 0.34343 0.01701 0.67494 0.0
H1034 H 0.3288 0.03093 0.72009 0.0
H1035 H 0.33508 0.00555 0.73484 0.0
C1036 C 0.31538 0.06157 0.85999 0.0
C1037 C 0.30291 0.0454 0.87585 0.0
C1038 C 0.33343 0.05836 0.83466 0.0
C1039 C 0.33949 0.03889 0.82393 0.0
C1040 C 0.32717 0.02266 0.83984 0.0
H1041 H 0.44379 0.99267 0.66692 0.0
H1042 H 0.4118 0.99706 0.70961 0.0
C1043 C 0.30913 0.02586 0.86563 0.0
C1044 C 0.35894 0.03575 0.79742 0.0
H1045 H 0.37895 0.01779 0.68499 0.0
C1046 C 0.37708 0.04242 0.82273 0.0
C1047 C 0.35971 0.02671 0.74712 0.0
C1048 C 0.34075 0.01975 0.71726 0.0
C1049 C 0.39587 0.0401 0.79964 0.0
C1050 C 0.39665 0.03136 0.74886 0.0
C1051 C 0.37849 0.02457 0.7237 0.0
C1052 C 0.41612 0.02894 0.72149 0.0
C1053 C 0.41474 0.04656 0.83072 0.0
C1054 C 0.42923 0.04542 0.71256 0.0
C1055 C 0.4477 0.04294 0.68833 0.0
C1056 C 0.45344 0.02392 0.67169 0.0
C1057 C 0.44 0.00755 0.67923 0.0
C1058 C 0.42161 0.01003 0.70372 0.0
H1059 H 0.41213 0.04712 0.87371 0.0
H1060 H 0.42725 0.03629 0.82414 0.0
H1061 H 0.41952 0.06181 0.81802 0.0
H1062 H 0.4252 0.06029 0.72433 0.0
H1063 H 0.4575 0.05594 0.68284 0.0
H1064 H 0.51223 0.29773 0.84548 0.0
H1065 H 0.51849 0.32967 0.80035 0.0
H1066 H 0.46075 0.35 0.84671 0.0
H1067 H 0.45478 0.31882 0.89377 0.0
H1068 H 0.49798 0.34981 0.71949 0.0
H1069 H 0.4987 0.39395 0.90398 0.0
H1070 H 0.4997 0.36702 0.90394 0.0
H1071 H 0.47597 0.37908 0.89396 0.0
C1072 C 0.50087 0.309 0.84625 0.0
C1073 C 0.48301 0.30555 0.87366 0.0
C1074 C 0.50444 0.32724 0.82012 0.0
C1075 C 0.49028 0.34244 0.82105 0.0
C1076 C 0.47211 0.33871 0.84636 0.0
H1077 H 0.47662 0.46284 0.70298 0.0
H1078 H 0.47252 0.42909 0.73925 0.0
C1079 C 0.46858 0.32062 0.87262 0.0
C1080 C 0.49448 0.36235 0.79658 0.0
H1081 H 0.4969 0.41245 0.82358 0.0
C1082 C 0.49793 0.3635 0.7423 0.0
C1083 C 0.49454 0.38024 0.82639 0.0
C1084 C 0.49224 0.38005 0.88537 0.0
C1085 C 0.5007 0.38207 0.7168 0.0
C1086 C 0.50019 0.39994 0.74644 0.0
C1087 C 0.49711 0.39876 0.8008 0.0
C1088 C 0.50259 0.42008 0.72194 0.0
C1089 C 0.5036 0.38249 0.65811 0.0
C1090 C 0.5209 0.42629 0.70025 0.0
C1091 C 0.52335 0.44565 0.67967 0.0
C1092 C 0.50751 0.45921 0.68032 0.0
C1093 C 0.48912 0.45283 0.70162 0.0
C1094 C 0.48675 0.43353 0.72247 0.0
H1095 H 0.49951 0.36787 0.63935 0.0
H1096 H 0.49438 0.39425 0.63895 0.0
H1097 H 0.51966 0.38607 0.65062 0.0
H1098 H 0.53344 0.41629 0.70012 0.0
H1099 H 0.53771 0.45001 0.66357 0.0
H1100 H 0.21278 0.47452 0.95678 0.0
H1101 H 0.18102 0.4816 0.91 0.0
H1102 H 0.2097 0.47594 0.76113 0.0
H1103 H 0.24161 0.46851 0.80794 0.0
H1104 H 0.16966 0.5106 0.84265 0.0
H1105 H 0.16247 0.43712 0.7412 0.0
H1106 H 0.18109 0.4422 0.79335 0.0
H1107 H 0.18516 0.45112 0.72751 0.0
C1108 C 0.21245 0.47507 0.91408 0.0
C1109 C 0.22977 0.47096 0.8861 0.0
C1110 C 0.19421 0.479 0.88734 0.0
C1111 C 0.19281 0.47893 0.83199 0.0
C1112 C 0.21024 0.47554 0.80383 0.0
H1113 H 0.08825 0.50159 0.62102 0.0
H1114 H 0.12256 0.49687 0.65699 0.0
C1115 C 0.2285 0.47142 0.83062 0.0
C1116 C 0.17301 0.48224 0.80435 0.0
H1117 H 0.13743 0.46058 0.71993 0.0
C1118 C 0.16266 0.49966 0.81576 0.0
C1119 C 0.16379 0.46795 0.76929 0.0
C1120 C 0.17358 0.44846 0.75739 0.0
C1121 C 0.1434 0.50311 0.79337 0.0
C1122 C 0.13419 0.48877 0.75878 0.0
C1123 C 0.14461 0.47156 0.74641 0.0
C1124 C 0.1134 0.4911 0.73666 0.0
C1125 C 0.13295 0.52206 0.80687 0.0
C1126 C 0.09689 0.48909 0.76943 0.0
C1127 C 0.07726 0.4916 0.74901 0.0
C1128 C 0.07377 0.49628 0.6954 0.0
C1129 C 0.09038 0.49803 0.66251 0.0
C1130 C 0.11 0.49534 0.68293 0.0
H1131 H 0.14346 0.53325 0.82622 0.0
H1132 H 0.12602 0.52885 0.77081 0.0
H1133 H 0.1207 0.51845 0.83424 0.0
H1134 H 0.09921 0.48564 0.81093 0.0
H1135 H 0.06487 0.49016 0.77549 0.0
H1136 H 1.00221 0.81275 0.31465 0.0
H1137 H 1.00039 0.84557 0.35598 0.0
H1138 H 1.00332 0.81812 0.50973 0.0
H1139 H 1.00438 0.78506 0.46897 0.0
H1140 H 0.97148 0.85966 0.43941 0.0
H1141 H 0.05271 0.86063 0.50243 0.0
H1142 H 0.04265 0.8449 0.44939 0.0
H1143 H 0.03773 0.83851 0.51648 0.0
C1144 C 1.00196 0.8135 0.35724 0.0
C1145 C 1.00352 0.79602 0.38823 0.0
C1146 C 1.0011 0.83239 0.38083 0.0
C1147 C 1.00198 0.83435 0.43594 0.0
C1148 C 1.00289 0.817 0.4671 0.0
H1149 H 0.01919 0.94139 0.63425 0.0
H1150 H 0.01594 0.9069 0.60199 0.0
C1151 C 1.00357 0.79807 0.44359 0.0
C1152 C 1.00255 0.85457 0.46065 0.0
H1153 H 0.03409 0.88855 0.52484 0.0
C1154 C 0.98514 0.86599 0.4582 0.0
C1155 C 0.02033 0.86275 0.48555 0.0
C1156 C 0.03952 0.8512 0.48861 0.0
C1157 C 0.985 0.88533 0.48012 0.0
C1158 C 1.00298 0.89381 0.50373 0.0
C1159 C 0.02031 0.8822 0.50677 0.0
C1160 C 1.00432 0.91483 0.52409 0.0
C1161 C 0.96543 0.89627 0.47863 0.0
C1162 C 0.9991 0.93095 0.49116 0.0
C1163 C 1.00075 0.95067 0.50966 0.0
C1164 C 0.008 0.95489 0.56143 0.0
C1165 C 0.01346 0.93877 0.59426 0.0
C1166 C 0.01164 0.91899 0.57579 0.0
H1167 H 0.95223 0.88568 0.47616 0.0
H1168 H 0.96416 0.90581 0.51405 0.0
H1169 H 0.96472 0.90596 0.44307 0.0
H1170 H 0.99402 0.92834 0.45065 0.0
H1171 H 0.99663 0.96265 0.48291 0.0
H1172 H 0.72028 0.96873 0.36271 0.0
H1173 H 0.68881 0.97007 0.40965 0.0
H1174 H 0.68921 0.03416 0.39152 0.0
H1175 H 0.72013 0.0329 0.34255 0.0
H1176 H 0.67748 0.98824 0.49966 0.0
H1177 H 0.63417 0.01884 0.3284 0.0
H1178 H 0.65912 0.00928 0.3228 0.0
H1179 H 0.65585 0.03406 0.34791 0.0
C1180 C 0.71368 0.98314 0.36841 0.0
C1181 C 0.72284 1.00068 0.34803 0.0
C1182 C 0.69568 0.98389 0.39569 0.0
C1183 C 0.68626 1.00217 0.40328 0.0
C1184 C 0.69582 0.01979 0.3852 0.0
H1185 H 0.58623 0.02168 0.61386 0.0
H1186 H 0.61932 0.02004 0.57485 0.0
C1187 C 0.71378 0.01906 0.35778 0.0
C1188 C 0.66629 1.00271 0.42905 0.0
H1189 H 0.61756 0.0173 0.40952 0.0
C1190 C 0.66438 0.99459 0.4799 0.0
C1191 C 0.649 0.01068 0.40316 0.0
C1192 C 0.64951 0.01853 0.34737 0.0
C1193 C 0.64588 0.99447 0.50567 0.0
C1194 C 0.62876 1.00302 0.48041 0.0
C1195 C 0.63063 0.01091 0.42931 0.0
C1196 C 0.60865 1.00357 0.50548 0.0
C1197 C 0.64477 0.98472 0.55922 0.0
C1198 C 0.59135 0.99524 0.47936 0.0
C1199 C 0.57232 0.99631 0.5014 0.0
C1200 C 0.57 0.00582 0.55022 0.0
C1201 C 0.58736 0.01409 0.57648 0.0
C1202 C 0.6064 0.01305 0.55429 0.0
H1203 H 0.65713 0.97408 0.56631 0.0
H1204 H 0.64625 0.99643 0.59014 0.0
H1205 H 0.63012 0.97656 0.56358 0.0
H1206 H 0.59255 0.98789 0.44164 0.0
H1207 H 0.55939 0.9898 0.4798 0.0
H1208 H 0.50124 0.7098 0.28742 0.0
H1209 H 0.50472 0.67853 0.33632 0.0
H1210 H 0.53438 0.71048 0.46591 0.0
H1211 H 0.53151 0.74191 0.41652 0.0
H1212 H 0.55248 0.67392 0.44224 0.0
H1213 H 0.46991 0.66387 0.46217 0.0
H1214 H 0.47736 0.66716 0.39528 0.0
H1215 H 0.48151 0.68724 0.44177 0.0
C1216 C 0.50889 0.71021 0.32586 0.0
C1217 C 0.51607 0.72847 0.34796 0.0
C1218 C 0.51061 0.6923 0.3541 0.0
C1219 C 0.51944 0.6922 0.40521 0.0
C1220 C 0.52734 0.71023 0.42671 0.0
H1221 H 0.50457 0.592 0.62483 0.0
H1222 H 0.50553 0.62531 0.58441 0.0
C1223 C 0.5256 0.72819 0.39849 0.0
C1224 C 0.52005 0.67333 0.43641 0.0
H1225 H 0.48992 0.6362 0.48678 0.0
C1226 C 0.53882 0.66572 0.45224 0.0
C1227 C 0.50221 0.66279 0.45027 0.0
C1228 C 0.48159 0.67075 0.43699 0.0
C1229 C 0.54021 0.64754 0.48008 0.0
C1230 C 0.52237 0.63656 0.49183 0.0
C1231 C 0.50361 0.6445 0.4774 0.0
C1232 C 0.52276 0.61658 0.51789 0.0
C1233 C 0.56078 0.64035 0.49699 0.0
C1234 C 0.53205 0.60054 0.49392 0.0
C1235 C 0.53154 0.58149 0.5169 0.0
C1236 C 0.52161 0.57799 0.56431 0.0
C1237 C 0.51241 0.59413 0.58845 0.0
C1238 C 0.51292 0.61319 0.56535 0.0
H1239 H 0.57218 0.65285 0.49887 0.0
H1240 H 0.56047 0.63294 0.5362 0.0
H1241 H 0.5657 0.62932 0.46786 0.0
H1242 H 0.53934 0.60264 0.45673 0.0
H1243 H 0.5387 0.56945 0.49696 0.0
H1244 H 0.81015 0.5651 0.34324 0.0
H1245 H 0.84354 0.56775 0.38783 0.0
H1246 H 0.82923 0.51551 0.48075 0.0
H1247 H 0.79601 0.5128 0.43681 0.0
H1248 H 0.84868 0.54501 0.53995 0.0
H1249 H 0.88954 0.53128 0.35654 0.0
H1250 H 0.87335 0.55234 0.35406 0.0
H1251 H 0.86261 0.5275 0.36004 0.0
C1252 C 0.81411 0.55424 0.37332 0.0
C1253 C 0.80036 0.53875 0.3864 0.0
C1254 C 0.83322 0.55573 0.39864 0.0
C1255 C 0.83903 0.54162 0.43703 0.0
C1256 C 0.8251 0.52657 0.45129 0.0
H1257 H 0.94174 0.5001 0.61353 0.0
H1258 H 0.9085 0.50758 0.57545 0.0
C1259 C 0.80603 0.52512 0.42627 0.0
C1260 C 0.85972 0.54199 0.46167 0.0
H1261 H 0.90928 0.53615 0.43465 0.0
C1262 C 0.86194 0.54321 0.51687 0.0
C1263 C 0.87705 0.53965 0.43156 0.0
C1264 C 0.87561 0.53744 0.37232 0.0
C1265 C 0.88092 0.54184 0.54278 0.0
C1266 C 0.89813 0.53894 0.51277 0.0
C1267 C 0.89605 0.53839 0.45753 0.0
C1268 C 0.9182 0.53514 0.53801 0.0
C1269 C 0.8824 0.54338 0.60213 0.0
C1270 C 0.93479 0.54803 0.52912 0.0
C1271 C 0.9539 0.5438 0.55089 0.0
C1272 C 0.95681 0.52641 0.58133 0.0
C1273 C 0.94009 0.5136 0.59029 0.0
C1274 C 0.92101 0.51792 0.56884 0.0
H1275 H 0.86925 0.55102 0.61785 0.0
H1276 H 0.88273 0.52812 0.61933 0.0
H1277 H 0.89642 0.55163 0.61542 0.0
H1278 H 0.93297 0.56132 0.50511 0.0
H1279 H 0.96645 0.55394 0.54299 0.0
loop_
_geom_bond_atom_site_label_1
_geom_bond_atom_site_label_2
_geom_bond_distance
_geom_bond_site_symmetry_2
_ccdc_geom_bond_type
P0 O11 1.490 . S
P0 C14 1.812 . S
P0 C20 1.803 . S
P0 C26 1.819 . S
H1 C15 0.941 . S
H2 C16 0.939 . S
H3 C18 0.940 . S
H4 C19 0.940 . S
H5 C21 0.939 . S
H6 C22 0.942 . S
H7 C24 0.940 . S
H8 C25 0.939 . S
H9 C27 0.941 . S
H10 C31 0.939 . S
O11 P0 1.490 . S
H12 C28 0.939 . S
H13 C30 0.940 . S
C14 P0 1.812 . S
C14 C15 1.389 . S
C14 C19 1.391 . S
C15 H1 0.941 . S
C15 C14 1.389 . S
C15 C16 1.397 . S
C16 H2 0.939 . S
C16 C15 1.397 . S
C16 C17 1.378 . S
C17 C16 1.378 . S
C17 C18 1.378 . S
C18 H3 0.940 . S
C18 C17 1.378 . S
C18 C19 1.396 . S
C19 H4 0.940 . S
C19 C14 1.391 . S
C19 C18 1.396 . S
C20 P0 1.803 . S
C20 C21 1.378 . S
C20 C25 1.400 . S
C21 H5 0.939 . S
C21 C20 1.378 . S
C21 C22 1.361 . S
C22 H6 0.942 . S
C22 C21 1.361 . S
C22 C23 1.369 . S
C23 C22 1.369 . S
C23 C24 1.404 . S
C24 H7 0.940 . S
C24 C23 1.404 . S
C24 C25 1.389 . S
C25 H8 0.939 . S
C25 C20 1.400 . S
C25 C24 1.389 . S
C26 P0 1.819 . S
C26 C27 1.391 . S
C26 C31 1.391 . S
C27 H9 0.941 . S
C27 C26 1.391 . S
C27 C28 1.396 . S
C28 H12 0.939 . S
C28 C27 1.396 . S
C28 C29 1.397 . S
C29 C28 1.397 . S
C29 C30 1.385 . S
C30 H13 0.940 . S
C30 C29 1.385 . S
C30 C31 1.388 . S
C31 H10 0.939 . S
C31 C26 1.391 . S
C31 C30 1.388 . S
P32 O43 1.490 1_655 S
P32 C46 1.812 . S
P32 C52 1.803 . S
P32 C58 1.819 . S
H33 C47 0.941 1_455 S
H34 C48 0.939 . S
H35 C50 0.940 . S
H36 C51 0.940 . S
H37 C53 0.939 1_455 S
H38 C54 0.942 . S
H39 C56 0.940 . S
H40 C57 0.939 . S
H41 C59 0.979 . S
H42 C63 0.939 . S
O43 P32 1.490 1_455 S
H44 C60 0.939 . S
H45 C62 0.940 . S
C46 P32 1.812 . S
C46 C47 1.389 . S
C46 C51 1.391 . S
C47 H33 0.941 1_655 S
C47 C46 1.389 . S
C47 C48 1.397 . S
C48 H34 0.939 . S
C48 C47 1.397 . S
C48 C49 1.378 . S
C49 C48 1.378 . S
C49 C50 1.378 . S
C50 H35 0.940 . S
C50 C49 1.378 . S
C50 C51 1.396 . S
C51 H36 0.940 . S
C51 C46 1.391 . S
C51 C50 1.396 . S
C52 P32 1.803 . S
C52 C53 1.378 . S
C52 C57 1.400 . S
C53 H37 0.939 1_655 S
C53 C52 1.378 . S
C53 C54 1.361 . S
C54 H38 0.942 . S
C54 C53 1.361 . S
C54 C55 1.369 . S
C55 C54 1.369 . S
C55 C56 1.404 . S
C56 H39 0.940 . S
C56 C55 1.404 . S
C56 C57 1.389 . S
C57 H40 0.939 . S
C57 C52 1.400 . S
C57 C56 1.389 . S
C58 P32 1.819 . S
C58 C59 1.391 . S
C58 C63 1.391 . S
C59 H41 0.979 . S
C59 C58 1.391 . S
C59 C60 1.396 . S
C60 H44 0.939 . S
C60 C59 1.396 . S
C60 C61 1.397 . S
C61 C60 1.397 . S
C61 C62 1.385 . S
C62 H45 0.940 . S
C62 C61 1.385 . S
C62 C63 1.388 . S
C63 H42 0.939 . S
C63 C58 1.391 . S
C63 C62 1.388 . S
P64 O75 1.490 . S
P64 C78 1.812 . S
P64 C84 1.803 . S
P64 C90 1.819 . S
H65 C79 0.941 . S
H66 C80 0.939 . S
H67 C82 0.940 . S
H68 C83 0.940 . S
H69 C85 0.939 . S
H70 C86 0.942 . S
H71 C88 0.940 . S
H72 C89 0.939 . S
H73 C91 0.941 . S
H74 C95 0.939 . S
O75 P64 1.490 . S
H76 C92 0.939 . S
H77 C94 0.940 . S
C78 P64 1.812 . S
C78 C79 1.389 . S
C78 C83 1.391 . S
C79 H65 0.941 . S
C79 C78 1.389 . S
C79 C80 1.397 . S
C80 H66 0.939 . S
C80 C79 1.397 . S
C80 C81 1.378 . S
C81 C80 1.378 . S
C81 C82 1.378 . S
C82 H67 0.940 . S
C82 C81 1.378 . S
C82 C83 1.396 . S
C83 H68 0.940 . S
C83 C78 1.391 . S
C83 C82 1.396 . S
C84 P64 1.803 . S
C84 C85 1.378 . S
C84 C89 1.400 . S
C85 H69 0.939 . S
C85 C84 1.378 . S
C85 C86 1.361 . S
C86 H70 0.942 . S
C86 C85 1.361 . S
C86 C87 1.369 . S
C87 C86 1.369 . S
C87 C88 1.404 . S
C88 H71 0.940 . S
C88 C87 1.404 . S
C88 C89 1.389 . S
C89 H72 0.939 . S
C89 C84 1.400 . S
C89 C88 1.389 . S
C90 P64 1.819 . S
C90 C91 1.391 . S
C90 C95 1.391 . S
C91 H73 0.941 . S
C91 C90 1.391 . S
C91 C92 1.396 . S
C92 H76 0.939 . S
C92 C91 1.396 . S
C92 C93 1.397 . S
C93 C92 1.397 . S
C93 C94 1.385 . S
C94 H77 0.940 . S
C94 C93 1.385 . S
C94 C95 1.388 . S
C95 H74 0.939 . S
C95 C90 1.391 . S
C95 C94 1.388 . S
P96 O107 1.490 . S
P96 C110 1.812 . S
P96 C116 1.803 . S
P96 C122 1.819 . S
H97 C111 0.941 . S
H98 C112 0.939 . S
H99 C114 0.940 . S
H100 C115 0.940 . S
H101 C117 0.939 . S
H102 C118 0.942 . S
H103 C120 0.940 . S
H104 C121 0.939 . S
H105 C123 0.941 . S
H106 C127 0.939 . S
O107 P96 1.490 . S
H108 C124 0.939 . S
H109 C126 0.940 . S
C110 P96 1.812 . S
C110 C111 1.389 . S
C110 C115 1.391 . S
C111 H97 0.941 . S
C111 C110 1.389 . S
C111 C112 1.397 . S
C112 H98 0.939 . S
C112 C111 1.397 . S
C112 C113 1.378 . S
C113 C112 1.378 . S
C113 C114 1.378 . S
C114 H99 0.940 . S
C114 C113 1.378 . S
C114 C115 1.396 . S
C115 H100 0.940 . S
C115 C110 1.391 . S
C115 C114 1.396 . S
C116 P96 1.803 . S
C116 C117 1.378 . S
C116 C121 1.400 . S
C117 H101 0.939 . S
C117 C116 1.378 . S
C117 C118 1.361 . S
C118 H102 0.942 . S
C118 C117 1.361 . S
C118 C119 1.369 . S
C119 C118 1.369 . S
C119 C120 1.404 . S
C120 H103 0.940 . S
C120 C119 1.404 . S
C120 C121 1.389 . S
C121 H104 0.939 . S
C121 C116 1.400 . S
C121 C120 1.389 . S
C122 P96 1.819 . S
C122 C123 1.391 . S
C122 C127 1.391 . S
C123 H105 0.941 . S
C123 C122 1.391 . S
C123 C124 1.396 . S
C124 H108 0.939 . S
C124 C123 1.396 . S
C124 C125 1.397 . S
C125 C124 1.397 . S
C125 C126 1.385 . S
C126 H109 0.940 . S
C126 C125 1.385 . S
C126 C127 1.388 . S
C127 H106 0.939 . S
C127 C122 1.391 . S
C127 C126 1.388 . S
P128 O139 1.490 . S
P128 C142 1.812 . S
P128 C148 1.803 . S
P128 C154 1.819 . S
H129 C143 0.941 . S
H130 C144 0.939 . S
H131 C146 0.940 . S
H132 C147 0.940 . S
H133 C149 0.939 . S
H134 C150 0.942 . S
H135 C152 0.940 . S
H136 C153 0.939 . S
H137 C155 0.941 . S
H138 C159 0.939 . S
O139 P128 1.490 . S
H140 C156 0.939 . S
H141 C158 0.940 . S
C142 P128 1.812 . S
C142 C143 1.389 1_554 S
C142 C147 1.391 . S
C143 H129 0.941 . S
C143 C142 1.389 1_556 S
C143 C144 1.397 . S
C144 H130 0.939 . S
C144 C143 1.397 . S
C144 C145 1.378 . S
C145 C144 1.378 . S
C145 C146 1.378 . S
C146 H131 0.940 . S
C146 C145 1.378 . S
C146 C147 1.396 1_556 S
C147 H132 0.940 . S
C147 C142 1.391 . S
C147 C146 1.396 1_554 S
C148 P128 1.803 . S
C148 C149 1.378 . S
C148 C153 1.400 . S
C149 H133 0.939 . S
C149 C148 1.378 . S
C149 C150 1.361 . S
C150 H134 0.942 . S
C150 C149 1.361 . S
C150 C151 1.369 . S
C151 C150 1.369 . S
C151 C152 1.404 . S
C152 H135 0.940 . S
C152 C151 1.404 . S
C152 C153 1.389 . S
C153 H136 0.939 . S
C153 C148 1.400 . S
C153 C152 1.389 . S
C154 P128 1.819 . S
C154 C155 1.391 . S
C154 C159 1.391 . S
C155 H137 0.941 . S
C155 C154 1.391 . S
C155 C156 1.396 . S
C156 H140 0.939 . S
C156 C155 1.396 . S
C156 C157 1.397 . S
C157 C156 1.397 . S
C157 C158 1.385 . S
C158 H141 0.940 . S
C158 C157 1.385 . S
C158 C159 1.388 . S
C159 H138 0.939 . S
C159 C154 1.391 . S
C159 C158 1.388 . S
P160 O171 1.490 . S
P160 C174 1.812 1_554 S
P160 C180 1.803 . S
P160 C186 1.819 . S
H161 C175 0.941 . S
H162 C176 0.939 . S
H163 C178 0.940 . S
H164 C179 0.940 . S
H165 C181 0.939 . S
H166 C182 0.942 . S
H167 C184 0.940 . S
H168 C185 0.939 . S
H169 C187 0.941 . S
H170 C191 0.939 . S
O171 P160 1.490 . S
H172 C188 0.939 . S
H173 C190 0.940 . S
C174 P160 1.812 1_556 S
C174 C175 1.389 . S
C174 C179 1.391 . S
C175 H161 0.941 . S
C175 C174 1.389 . S
C175 C176 1.397 . S
C176 H162 0.939 . S
C176 C175 1.397 . S
C176 C177 1.378 . S
C177 C176 1.378 . S
C177 C178 1.378 . S
C178 H163 0.940 . S
C178 C177 1.378 . S
C178 C179 1.396 . S
C179 H164 0.940 . S
C179 C174 1.391 . S
C179 C178 1.396 . S
C180 P160 1.803 . S
C180 C181 1.378 . S
C180 C185 1.400 . S
C181 H165 0.939 . S
C181 C180 1.378 . S
C181 C182 1.361 . S
C182 H166 0.942 . S
C182 C181 1.361 . S
C182 C183 1.369 . S
C183 C182 1.369 . S
C183 C184 1.404 . S
C184 H167 0.940 . S
C184 C183 1.404 . S
C184 C185 1.389 . S
C185 H168 0.939 . S
C185 C180 1.400 . S
C185 C184 1.389 . S
C186 P160 1.819 . S
C186 C187 1.391 . S
C186 C191 1.391 . S
C187 H169 0.941 . S
C187 C186 1.391 . S
C187 C188 1.396 . S
C188 H172 0.939 . S
C188 C187 1.396 . S
C188 C189 1.397 . S
C189 C188 1.397 . S
C189 C190 1.385 . S
C190 H173 0.940 . S
C190 C189 1.385 . S
C190 C191 1.388 . S
C191 H170 0.939 . S
C191 C186 1.391 . S
C191 C190 1.388 . S
P192 O203 1.490 . S
P192 C206 1.812 1_554 S
P192 C212 1.803 . S
P192 C218 1.819 . S
H193 C207 0.941 . S
H194 C208 0.939 . S
H195 C210 0.940 . S
H196 C211 0.940 . S
H197 C213 0.939 . S
H198 C214 0.942 . S
H199 C216 0.940 . S
H200 C217 0.939 1_556 S
H201 C219 0.941 . S
H202 C223 0.939 . S
O203 P192 1.490 . S
H204 C220 0.939 . S
H205 C222 0.940 . S
C206 P192 1.812 1_556 S
C206 C207 1.389 . S
C206 C211 1.391 . S
C207 H193 0.941 . S
C207 C206 1.389 . S
C207 C208 1.397 . S
C208 H194 0.939 . S
C208 C207 1.397 . S
C208 C209 1.378 . S
C209 C208 1.378 . S
C209 C210 1.378 . S
C210 H195 0.940 . S
C210 C209 1.378 . S
C210 C211 1.396 . S
C211 H196 0.940 . S
C211 C206 1.391 . S
C211 C210 1.396 . S
C212 P192 1.803 . S
C212 C213 1.378 . S
C212 C217 1.400 . S
C213 H197 0.939 . S
C213 C212 1.378 . S
C213 C214 1.361 . S
C214 H198 0.942 . S
C214 C213 1.361 . S
C214 C215 1.369 . S
C215 C214 1.369 . S
C215 C216 1.404 . S
C216 H199 0.940 . S
C216 C215 1.404 . S
C216 C217 1.389 . S
C217 H200 0.939 1_554 S
C217 C212 1.400 . S
C217 C216 1.389 . S
C218 P192 1.819 . S
C218 C219 1.391 . S
C218 C223 1.391 . S
C219 H201 0.941 . S
C219 C218 1.391 . S
C219 C220 1.396 . S
C220 H204 0.939 . S
C220 C219 1.396 . S
C220 C221 1.397 . S
C221 C220 1.397 . S
C221 C222 1.385 . S
C222 H205 0.940 . S
C222 C221 1.385 . S
C222 C223 1.388 . S
C223 H202 0.939 . S
C223 C218 1.391 . S
C223 C222 1.388 . S
P224 O235 1.490 . S
P224 C238 1.812 . S
P224 C244 1.803 . S
P224 C250 1.819 . S
H225 C239 0.941 . S
H226 C240 0.939 . S
H227 C242 0.940 . S
H228 C243 0.953 . S
H229 C245 0.939 . S
H230 C246 0.942 . S
H231 C248 0.940 . S
H232 C249 0.939 . S
H233 C251 0.941 . S
H234 C255 0.939 . S
O235 P224 1.490 . S
H236 C252 0.939 . S
H237 C254 0.940 . S
C238 P224 1.812 . S
C238 C239 1.389 1_554 S
C238 C243 1.393 . S
C239 H225 0.941 . S
C239 C238 1.389 1_556 S
C239 C240 1.397 . S
C240 H226 0.939 . S
C240 C239 1.397 . S
C240 C241 1.378 . S
C241 C240 1.378 . S
C241 C242 1.378 . S
C242 H227 0.940 . S
C242 C241 1.378 . S
C242 C243 1.382 1_556 S
C243 H228 0.953 . S
C243 C238 1.393 . S
C243 C242 1.382 1_554 S
C244 P224 1.803 . S
C244 C245 1.378 . S
C244 C249 1.400 . S
C245 H229 0.939 . S
C245 C244 1.378 . S
C245 C246 1.361 . S
C246 H230 0.942 . S
C246 C245 1.361 . S
C246 C247 1.369 . S
C247 C246 1.369 . S
C247 C248 1.404 . S
C248 H231 0.940 . S
C248 C247 1.404 . S
C248 C249 1.389 . S
C249 H232 0.939 . S
C249 C244 1.400 . S
C249 C248 1.389 . S
C250 P224 1.819 . S
C250 C251 1.391 . S
C250 C255 1.391 . S
C251 H233 0.941 . S
C251 C250 1.391 . S
C251 C252 1.396 . S
C252 H236 0.939 . S
C252 C251 1.396 . S
C252 C253 1.397 . S
C253 C252 1.397 . S
C253 C254 1.385 . S
C254 H237 0.940 . S
C254 C253 1.385 . S
C254 C255 1.388 . S
C255 H234 0.939 . S
C255 C250 1.391 . S
C255 C254 1.388 . S
Eu256 C265 2.828 . S
Eu256 O267 2.392 . S
Eu256 O269 2.418 1_545 S
Eu256 O274 2.373 1_655 S
Eu256 O277 2.488 . S
Eu256 O278 2.471 . S
Eu256 O279 2.349 1_655 S
Eu257 O266 2.373 1_455 S
Eu257 O270 2.488 . S
Eu257 O271 2.471 . S
Eu257 O272 2.349 . S
Eu257 O275 2.392 1_565 S
Eu257 O276 2.418 1_565 S
Eu257 C286 2.828 . S
C258 O276 1.244 . S
C258 O279 1.265 . S
C259 C260 1.379 1_655 S
C259 C263 1.373 . S
C259 C265 1.505 . S
C260 C259 1.379 1_455 S
C260 C262 1.369 . S
C260 H288 0.930 . S
C261 C263 1.383 . S
C261 C264 1.382 1_655 S
C261 H289 0.930 . S
C262 C260 1.369 . S
C262 C264 1.392 . S
C262 H290 0.930 . S
C263 C259 1.373 . S
C263 C261 1.383 . S
C263 H291 0.931 . S
C264 C261 1.382 1_455 S
C264 C262 1.392 . S
C265 Eu256 2.828 . S
C265 C259 1.505 . S
C265 O277 1.249 . S
C265 O278 1.244 . S
O266 Eu257 2.373 1_655 S
O266 C268 1.258 . S
O267 Eu256 2.392 . S
O267 C268 1.242 1_545 S
C268 O266 1.258 . S
C268 O267 1.242 1_565 S
O269 Eu256 2.418 1_565 S
O269 C273 1.244 . S
O270 Eu257 2.488 . S
O270 C286 1.249 . S
O271 Eu257 2.471 . S
O271 C286 1.244 . S
O272 Eu257 2.349 . S
O272 C273 1.265 1_455 S
C273 O269 1.244 . S
C273 O272 1.265 1_655 S
O274 Eu256 2.373 1_455 S
O274 C287 1.258 . S
O275 Eu257 2.392 1_545 S
O275 C287 1.242 . S
O276 Eu257 2.418 1_545 S
O276 C258 1.244 . S
O277 Eu256 2.488 . S
O277 C265 1.249 . S
O278 Eu256 2.471 . S
O278 C265 1.244 . S
O279 Eu256 2.349 1_455 S
O279 C258 1.265 . S
C280 C281 1.379 . S
C280 C284 1.373 . S
C280 C286 1.505 . S
C281 C280 1.379 . S
C281 C283 1.379 . S
C281 H292 0.930 1_455 S
C282 C284 1.383 . S
C282 C285 1.382 . S
C282 H293 0.930 . S
C283 C281 1.379 . S
C283 C285 1.414 . S
C283 H294 0.900 1_455 S
C284 C280 1.373 . S
C284 C282 1.383 . S
C284 H295 0.931 . S
C285 C282 1.382 . S
C285 C283 1.414 . S
C286 Eu257 2.828 . S
C286 O270 1.249 . S
C286 O271 1.244 . S
C286 C280 1.505 . S
C287 O274 1.258 . S
C287 O275 1.242 . S
H288 C260 0.930 . S
H289 C261 0.930 . S
H290 C262 0.930 . S
H291 C263 0.931 . S
H292 C281 0.930 1_655 S
H293 C282 0.930 . S
H294 C283 0.900 1_655 S
H295 C284 0.931 . S
Eu296 C305 2.828 . S
Eu296 O307 2.392 . S
Eu296 O309 2.418 . S
Eu296 O314 2.373 . S
Eu296 O317 2.488 . S
Eu296 O318 2.471 . S
Eu296 O319 2.349 1_545 S
Eu297 O306 2.373 1_565 S
Eu297 O310 2.488 . S
Eu297 O311 2.471 1_565 S
Eu297 O312 2.349 1_565 S
Eu297 O315 2.392 . S
Eu297 O316 2.418 . S
Eu297 C326 2.828 . S
C298 O316 1.244 . S
C298 O319 1.265 . S
C299 C300 1.379 1_545 S
C299 C303 1.373 . S
C299 C305 1.505 . S
C300 C299 1.379 1_565 S
C300 C302 1.369 . S
C300 H328 0.930 . S
C301 C303 1.383 . S
C301 C304 1.382 . S
C301 H329 0.930 . S
C302 C300 1.369 . S
C302 C304 1.392 1_565 S
C302 H330 0.930 . S
C303 C299 1.373 . S
C303 C301 1.383 . S
C303 H331 0.931 . S
C304 C301 1.382 . S
C304 C302 1.392 1_545 S
C305 Eu296 2.828 . S
C305 C299 1.505 . S
C305 O317 1.249 . S
C305 O318 1.244 . S
O306 Eu297 2.373 1_545 S
O306 C308 1.258 . S
O307 Eu296 2.392 . S
O307 C308 1.242 . S
C308 O306 1.258 . S
C308 O307 1.242 . S
O309 Eu296 2.418 . S
O309 C313 1.244 . S
O310 Eu297 2.488 . S
O310 C326 1.249 . S
O311 Eu297 2.471 1_545 S
O311 C326 1.244 1_545 S
O312 Eu297 2.349 1_545 S
O312 C313 1.265 . S
C313 O309 1.244 . S
C313 O312 1.265 . S
O314 Eu296 2.373 . S
O314 C327 1.258 1_545 S
O315 Eu297 2.392 . S
O315 C327 1.242 . S
O316 Eu297 2.418 . S
O316 C298 1.244 . S
O317 Eu296 2.488 . S
O317 C305 1.249 . S
O318 Eu296 2.471 . S
O318 C305 1.244 . S
O319 Eu296 2.349 1_565 S
O319 C298 1.265 . S
C320 C321 1.379 1_565 S
C320 C324 1.373 . S
C320 C326 1.505 . S
C321 C320 1.379 1_545 S
C321 C323 1.369 . S
C321 H332 0.930 . S
C322 C324 1.383 . S
C322 C325 1.382 1_565 S
C322 H333 0.930 . S
C323 C321 1.369 . S
C323 C325 1.392 . S
C323 H334 0.930 . S
C324 C320 1.373 . S
C324 C322 1.383 . S
C324 H335 0.931 . S
C325 C322 1.382 1_545 S
C325 C323 1.392 . S
C326 Eu297 2.828 . S
C326 O310 1.249 . S
C326 O311 1.244 1_565 S
C326 C320 1.505 . S
C327 O314 1.258 1_565 S
C327 O315 1.242 . S
H328 C300 0.930 . S
H329 C301 0.930 . S
H330 C302 0.930 . S
H331 C303 0.931 . S
H332 C321 0.930 . S
H333 C322 0.930 . S
H334 C323 0.930 . S
H335 C324 0.931 . S
Eu336 C345 2.828 . S
Eu336 O347 2.392 . S
Eu336 O349 2.418 . S
Eu336 O354 2.373 . S
Eu336 O357 2.488 . S
Eu336 O358 2.471 . S
Eu336 O359 2.349 . S
Eu337 O346 2.373 . S
Eu337 O350 2.488 . S
Eu337 O351 2.471 . S
Eu337 O352 2.349 . S
Eu337 O355 2.392 . S
Eu337 O356 2.418 . S
Eu337 C366 2.828 . S
C338 O356 1.244 . S
C338 O359 1.265 . S
C339 C340 1.379 . S
C339 C343 1.373 . S
C339 C345 1.505 . S
C340 C339 1.379 . S
C340 C342 1.369 . S
C340 H368 0.930 . S
C341 C343 1.383 . S
C341 C344 1.382 . S
C341 H369 0.930 . S
C342 C340 1.369 . S
C342 C344 1.392 . S
C342 H370 0.930 . S
C343 C339 1.373 . S
C343 C341 1.383 . S
C343 H371 0.931 . S
C344 C341 1.382 . S
C344 C342 1.392 . S
C345 Eu336 2.828 . S
C345 C339 1.505 . S
C345 O357 1.249 . S
C345 O358 1.244 . S
O346 Eu337 2.373 . S
O346 C348 1.258 . S
O347 Eu336 2.392 . S
O347 C348 1.242 . S
C348 O346 1.258 . S
C348 O347 1.242 . S
O349 Eu336 2.418 . S
O349 C353 1.244 . S
O350 Eu337 2.488 . S
O350 C366 1.249 . S
O351 Eu337 2.471 . S
O351 C366 1.244 . S
O352 Eu337 2.349 . S
O352 C353 1.265 . S
C353 O349 1.244 . S
C353 O352 1.265 . S
O354 Eu336 2.373 . S
O354 C367 1.258 . S
O355 Eu337 2.392 . S
O355 C367 1.242 . S
O356 Eu337 2.418 . S
O356 C338 1.244 . S
O357 Eu336 2.488 . S
O357 C345 1.249 . S
O358 Eu336 2.471 . S
O358 C345 1.244 . S
O359 Eu336 2.349 . S
O359 C338 1.265 . S
C360 C361 1.379 . S
C360 C364 1.373 . S
C360 C366 1.505 . S
C361 C360 1.379 . S
C361 C363 1.369 . S
C361 H372 0.930 . S
C362 C364 1.383 . S
C362 C365 1.382 . S
C362 H373 0.930 . S
C363 C361 1.369 . S
C363 C365 1.392 . S
C363 H374 0.930 . S
C364 C360 1.373 . S
C364 C362 1.383 . S
C364 H375 0.931 . S
C365 C362 1.382 . S
C365 C363 1.392 . S
C366 Eu337 2.828 . S
C366 O350 1.249 . S
C366 O351 1.244 . S
C366 C360 1.505 . S
C367 O354 1.258 . S
C367 O355 1.242 . S
H368 C340 0.930 . S
H369 C341 0.930 . S
H370 C342 0.930 . S
H371 C343 0.931 . S
H372 C361 0.930 . S
H373 C362 0.930 . S
H374 C363 0.930 . S
H375 C364 0.931 . S
Eu376 C385 2.828 . S
Eu376 O387 2.392 . S
Eu376 O389 2.418 1_455 S
Eu376 O394 2.373 . S
Eu376 O397 2.488 . S
Eu376 O398 2.471 . S
Eu376 O399 2.349 . S
Eu377 O386 2.373 . S
Eu377 O390 2.488 . S
Eu377 O391 2.471 . S
Eu377 O392 2.349 . S
Eu377 O395 2.392 1_655 S
Eu377 O396 2.418 1_655 S
Eu377 C406 2.828 . S
C378 O396 1.244 . S
C378 O399 1.265 . S
C379 C380 1.379 . S
C379 C383 1.373 . S
C379 C385 1.505 . S
C380 C379 1.379 . S
C380 C382 1.369 . S
C380 H408 0.930 . S
C381 C383 1.383 . S
C381 C384 1.382 . S
C381 H409 0.930 . S
C382 C380 1.369 . S
C382 C384 1.392 . S
C382 H410 0.930 . S
C383 C379 1.373 . S
C383 C381 1.383 . S
C383 H411 0.931 . S
C384 C381 1.382 . S
C384 C382 1.392 . S
C385 Eu376 2.828 . S
C385 C379 1.505 . S
C385 O397 1.249 . S
C385 O398 1.244 . S
O386 Eu377 2.373 . S
O386 C388 1.258 1_655 S
O387 Eu376 2.392 . S
O387 C388 1.242 . S
C388 O386 1.258 1_455 S
C388 O387 1.242 . S
O389 Eu376 2.418 1_655 S
O389 C393 1.244 . S
O390 Eu377 2.488 . S
O390 C406 1.249 . S
O391 Eu377 2.471 . S
O391 C406 1.244 . S
O392 Eu377 2.349 . S
O392 C393 1.265 . S
C393 O389 1.244 . S
C393 O392 1.265 . S
O394 Eu376 2.373 . S
O394 C407 1.258 . S
O395 Eu377 2.392 1_455 S
O395 C407 1.242 . S
O396 Eu377 2.418 1_455 S
O396 C378 1.244 . S
O397 Eu376 2.488 . S
O397 C385 1.249 . S
O398 Eu376 2.471 . S
O398 C385 1.244 . S
O399 Eu376 2.349 . S
O399 C378 1.265 . S
C400 C401 1.379 . S
C400 C404 1.373 . S
C400 C406 1.505 . S
C401 C400 1.379 . S
C401 C403 1.369 . S
C401 H412 0.930 . S
C402 C404 1.383 . S
C402 C405 1.382 . S
C402 H413 0.930 . S
C403 C401 1.369 . S
C403 C405 1.392 . S
C403 H414 0.930 . S
C404 C400 1.373 . S
C404 C402 1.383 . S
C404 H415 0.931 . S
C405 C402 1.382 . S
C405 C403 1.392 . S
C406 Eu377 2.828 . S
C406 O390 1.249 . S
C406 O391 1.244 . S
C406 C400 1.505 . S
C407 O394 1.258 . S
C407 O395 1.242 . S
H408 C380 0.930 . S
H409 C381 0.930 . S
H410 C382 0.930 . S
H411 C383 0.931 . S
H412 C401 0.930 . S
H413 C402 0.930 . S
H414 C403 0.930 . S
H415 C404 0.931 . S
H416 C424 0.929 . S
H417 C426 0.930 . S
H418 C428 0.930 . S
H419 C431 0.929 . S
H420 C434 0.930 . S
H421 C436 0.960 . S
H422 C436 0.960 . S
H423 C436 0.960 . S
C424 H416 0.929 . S
C424 C425 1.377 . S
C424 C426 1.384 . S
C425 C424 1.377 . S
C425 C431 1.390 . S
C426 H417 0.930 . S
C426 C424 1.384 . S
C426 C427 1.372 . S
C427 C426 1.372 . S
C427 C428 1.400 . S
C427 C432 1.490 . S
C428 H418 0.930 . S
C428 C427 1.400 . S
C428 C431 1.386 . S
H429 C445 0.930 1_565 S
H430 C446 0.931 . S
C431 H419 0.929 . S
C431 C425 1.390 . S
C431 C428 1.386 . S
C432 C427 1.490 . S
C432 C434 1.395 . S
C432 C435 1.403 . S
H433 C439 0.930 . S
C434 H420 0.930 . S
C434 C432 1.395 . S
C434 C437 1.403 . S
C435 C432 1.403 . S
C435 C436 1.524 . S
C435 C439 1.400 . S
C436 H421 0.960 . S
C436 H422 0.960 . S
C436 H423 0.960 . S
C436 C435 1.524 . S
C437 C434 1.403 . S
C437 C438 1.392 . S
C437 C441 1.495 . S
C438 C437 1.392 . S
C438 C439 1.385 . S
C438 C440 1.478 . S
C439 H433 0.930 . S
C439 C435 1.400 . S
C439 C438 1.385 . S
C440 C438 1.478 . S
C440 C442 1.381 . S
C440 C446 1.383 . S
C441 C437 1.495 . S
C441 H447 0.959 . S
C441 H448 0.961 . S
C441 H449 0.960 . S
C442 C440 1.381 . S
C442 C443 1.394 . S
C442 H450 0.930 . S
C443 C442 1.394 . S
C443 C444 1.383 . S
C443 H451 0.929 . S
C444 C443 1.383 . S
C444 C445 1.377 . S
C445 H429 0.930 1_545 S
C445 C444 1.377 . S
C445 C446 1.379 . S
C446 H430 0.931 . S
C446 C440 1.383 . S
C446 C445 1.379 . S
H447 C441 0.959 . S
H448 C441 0.961 . S
H449 C441 0.960 . S
H450 C442 0.930 . S
H451 C443 0.929 . S
H452 C460 0.929 . S
H453 C462 0.930 . S
H454 C464 0.930 . S
H455 C467 0.929 . S
H456 C470 0.930 . S
H457 C472 0.960 . S
H458 C472 0.960 . S
H459 C472 0.960 . S
C460 H452 0.929 . S
C460 C461 1.377 . S
C460 C462 1.384 . S
C461 C460 1.377 . S
C461 C467 1.390 . S
C462 H453 0.930 . S
C462 C460 1.384 . S
C462 C463 1.372 . S
C463 C462 1.372 . S
C463 C464 1.400 . S
C463 C468 1.490 . S
C464 H454 0.930 . S
C464 C463 1.400 . S
C464 C467 1.386 . S
H465 C481 0.930 . S
H466 C482 0.931 . S
C467 H455 0.929 . S
C467 C461 1.390 . S
C467 C464 1.386 . S
C468 C463 1.490 . S
C468 C470 1.395 . S
C468 C471 1.403 . S
H469 C475 0.930 . S
C470 H456 0.930 . S
C470 C468 1.395 . S
C470 C473 1.403 . S
C471 C468 1.403 . S
C471 C472 1.524 . S
C471 C475 1.400 . S
C472 H457 0.960 . S
C472 H458 0.960 . S
C472 H459 0.960 . S
C472 C471 1.524 . S
C473 C470 1.403 . S
C473 C474 1.392 . S
C473 C477 1.495 . S
C474 C473 1.392 . S
C474 C475 1.385 . S
C474 C476 1.478 . S
C475 H469 0.930 . S
C475 C471 1.400 . S
C475 C474 1.385 . S
C476 C474 1.478 . S
C476 C478 1.381 . S
C476 C482 1.383 . S
C477 C473 1.495 . S
C477 H483 0.959 . S
C477 H484 0.961 . S
C477 H485 0.960 . S
C478 C476 1.381 . S
C478 C479 1.394 . S
C478 H486 0.930 . S
C479 C478 1.394 . S
C479 C480 1.383 . S
C479 H487 0.929 . S
C480 C479 1.383 . S
C480 C481 1.377 . S
C481 H465 0.930 . S
C481 C480 1.377 . S
C481 C482 1.379 . S
C482 H466 0.931 . S
C482 C476 1.383 . S
C482 C481 1.379 . S
H483 C477 0.959 . S
H484 C477 0.961 . S
H485 C477 0.960 . S
H486 C478 0.930 . S
H487 C479 0.929 . S
H488 C496 0.929 . S
H489 C498 0.930 . S
H490 C500 0.930 . S
H491 C503 0.929 . S
H492 C506 0.930 . S
H493 C508 0.960 . S
H494 C508 0.960 . S
H495 C508 0.960 . S
C496 H488 0.929 . S
C496 C497 1.377 . S
C496 C498 1.384 . S
C497 C496 1.377 . S
C497 C503 1.390 . S
C498 H489 0.930 . S
C498 C496 1.384 . S
C498 C499 1.372 . S
C499 C498 1.372 . S
C499 C500 1.400 . S
C499 C504 1.490 . S
C500 H490 0.930 . S
C500 C499 1.400 . S
C500 C503 1.386 . S
H501 C517 0.930 . S
H502 C518 0.931 . S
C503 H491 0.929 . S
C503 C497 1.390 . S
C503 C500 1.386 . S
C504 C499 1.490 . S
C504 C506 1.395 . S
C504 C507 1.403 . S
H505 C511 0.930 . S
C506 H492 0.930 . S
C506 C504 1.395 . S
C506 C509 1.403 . S
C507 C504 1.403 . S
C507 C508 1.524 . S
C507 C511 1.400 . S
C508 H493 0.960 . S
C508 H494 0.960 . S
C508 H495 0.960 . S
C508 C507 1.524 . S
C509 C506 1.403 . S
C509 C510 1.392 . S
C509 C513 1.495 . S
C510 C509 1.392 . S
C510 C511 1.385 . S
C510 C512 1.478 . S
C511 H505 0.930 . S
C511 C507 1.400 . S
C511 C510 1.385 . S
C512 C510 1.478 . S
C512 C514 1.381 . S
C512 C518 1.383 . S
C513 C509 1.495 . S
C513 H519 0.959 . S
C513 H520 0.961 . S
C513 H521 0.960 . S
C514 C512 1.381 . S
C514 C515 1.394 . S
C514 H522 0.930 . S
C515 C514 1.394 . S
C515 C516 1.383 . S
C515 H523 0.929 . S
C516 C515 1.383 . S
C516 C517 1.377 . S
C517 H501 0.930 . S
C517 C516 1.377 . S
C517 C518 1.379 . S
C518 H502 0.931 . S
C518 C512 1.383 . S
C518 C517 1.379 . S
H519 C513 0.959 . S
H520 C513 0.961 . S
H521 C513 0.960 . S
H522 C514 0.930 . S
H523 C515 0.929 . S
H524 C532 0.929 . S
H525 C534 0.930 . S
H526 C536 0.930 . S
H527 C539 0.929 . S
H528 C542 0.930 . S
H529 C544 0.960 . S
H530 C544 0.960 . S
H531 C544 0.960 . S
C532 H524 0.929 . S
C532 C533 1.377 . S
C532 C534 1.384 . S
C533 C532 1.377 . S
C533 C539 1.390 . S
C534 H525 0.930 . S
C534 C532 1.384 . S
C534 C535 1.372 . S
C535 C534 1.372 . S
C535 C536 1.400 . S
C535 C540 1.490 . S
C536 H526 0.930 . S
C536 C535 1.400 . S
C536 C539 1.386 . S
H537 C553 0.930 . S
H538 C554 0.931 . S
C539 H527 0.929 . S
C539 C533 1.390 . S
C539 C536 1.386 . S
C540 C535 1.490 . S
C540 C542 1.395 . S
C540 C543 1.403 . S
H541 C547 0.930 . S
C542 H528 0.930 . S
C542 C540 1.395 . S
C542 C545 1.403 . S
C543 C540 1.403 . S
C543 C544 1.524 . S
C543 C547 1.400 . S
C544 H529 0.960 . S
C544 H530 0.960 . S
C544 H531 0.960 . S
C544 C543 1.524 . S
C545 C542 1.403 . S
C545 C546 1.392 . S
C545 C549 1.495 . S
C546 C545 1.392 . S
C546 C547 1.385 . S
C546 C548 1.478 . S
C547 H541 0.930 . S
C547 C543 1.400 . S
C547 C546 1.385 . S
C548 C546 1.478 . S
C548 C550 1.381 . S
C548 C554 1.383 . S
C549 C545 1.495 . S
C549 H555 0.959 . S
C549 H556 0.961 . S
C549 H557 0.960 . S
C550 C548 1.381 . S
C550 C551 1.394 . S
C550 H558 0.930 1_455 S
C551 C550 1.394 . S
C551 C552 1.383 . S
C551 H559 0.929 1_455 S
C552 C551 1.383 . S
C552 C553 1.377 . S
C553 H537 0.930 . S
C553 C552 1.377 . S
C553 C554 1.379 . S
C554 H538 0.931 . S
C554 C548 1.383 . S
C554 C553 1.379 . S
H555 C549 0.959 . S
H556 C549 0.961 . S
H557 C549 0.960 . S
H558 C550 0.930 1_655 S
H559 C551 0.929 1_655 S
H560 C568 0.929 . S
H561 C570 0.930 . S
H562 C572 0.930 . S
H563 C575 0.929 . S
H564 C578 0.930 . S
H565 C580 0.960 1_545 S
H566 C580 0.960 . S
H567 C580 0.990 . S
C568 H560 0.929 . S
C568 C569 1.377 . S
C568 C570 1.384 . S
C569 C568 1.377 . S
C569 C575 1.390 . S
C570 H561 0.930 . S
C570 C568 1.384 . S
C570 C571 1.372 . S
C571 C570 1.372 . S
C571 C572 1.400 . S
C571 C576 1.490 1_554 S
C572 H562 0.930 . S
C572 C571 1.400 . S
C572 C575 1.386 . S
H573 C589 0.930 . S
H574 C590 0.931 1_545 S
C575 H563 0.929 . S
C575 C569 1.390 . S
C575 C572 1.386 . S
C576 C571 1.490 1_556 S
C576 C578 1.395 . S
C576 C579 1.403 . S
H577 C583 0.930 . S
C578 H564 0.930 . S
C578 C576 1.395 . S
C578 C581 1.403 . S
C579 C576 1.403 . S
C579 C580 1.524 1_556 S
C579 C583 1.400 . S
C580 H565 0.960 1_565 S
C580 H566 0.960 . S
C580 H567 0.990 . S
C580 C579 1.524 1_554 S
C581 C578 1.403 . S
C581 C582 1.392 . S
C581 C585 1.495 . S
C582 C581 1.392 . S
C582 C583 1.385 . S
C582 C584 1.478 . S
C583 H577 0.930 . S
C583 C579 1.400 . S
C583 C582 1.385 . S
C584 C582 1.478 . S
C584 C586 1.381 . S
C584 C590 1.383 . S
C585 C581 1.495 . S
C585 H591 0.959 . S
C585 H592 0.961 . S
C585 H593 0.960 . S
C586 C584 1.381 . S
C586 C587 1.394 . S
C586 H594 0.930 . S
C587 C586 1.394 . S
C587 C588 1.383 . S
C587 H595 0.929 . S
C588 C587 1.383 . S
C588 C589 1.377 1_565 S
C589 H573 0.930 . S
C589 C588 1.377 1_545 S
C589 C590 1.379 1_545 S
C590 H574 0.931 1_565 S
C590 C584 1.383 . S
C590 C589 1.379 1_565 S
H591 C585 0.959 . S
H592 C585 0.961 . S
H593 C585 0.960 . S
H594 C586 0.930 . S
H595 C587 0.929 . S
H596 C604 0.929 . S
H597 C606 0.930 . S
H598 C608 0.930 1_556 S
H599 C611 0.929 . S
H600 C614 0.930 . S
H601 C616 0.960 . S
H602 C616 0.960 . S
H603 C616 0.960 . S
C604 H596 0.929 . S
C604 C605 1.377 . S
C604 C606 1.384 . S
C605 C604 1.377 . S
C605 C611 1.390 . S
C606 H597 0.930 . S
C606 C604 1.384 . S
C606 C607 1.372 . S
C607 C606 1.372 . S
C607 C608 1.400 . S
C607 C612 1.490 1_554 S
C608 H598 0.930 1_554 S
C608 C607 1.400 . S
C608 C611 1.386 . S
H609 C625 0.930 . S
H610 C626 0.931 . S
C611 H599 0.929 . S
C611 C605 1.390 . S
C611 C608 1.386 . S
C612 C607 1.490 1_556 S
C612 C614 1.395 . S
C612 C615 1.403 . S
H613 C619 0.930 . S
C614 H600 0.930 . S
C614 C612 1.395 . S
C614 C617 1.403 . S
C615 C612 1.403 . S
C615 C616 1.524 . S
C615 C619 1.400 . S
C616 H601 0.960 . S
C616 H602 0.960 . S
C616 H603 0.960 . S
C616 C615 1.524 . S
C617 C614 1.403 . S
C617 C618 1.392 . S
C617 C621 1.495 . S
C618 C617 1.392 . S
C618 C619 1.385 . S
C618 C620 1.478 . S
C619 H613 0.930 . S
C619 C615 1.400 . S
C619 C618 1.385 . S
C620 C618 1.478 . S
C620 C622 1.381 . S
C620 C626 1.383 . S
C621 C617 1.495 . S
C621 H627 0.959 . S
C621 H628 0.961 . S
C621 H629 0.960 . S
C622 C620 1.381 . S
C622 C623 1.394 . S
C622 H630 0.930 . S
C623 C622 1.394 . S
C623 C624 1.383 . S
C623 H631 0.929 . S
C624 C623 1.383 . S
C624 C625 1.377 . S
C625 H609 0.930 . S
C625 C624 1.377 . S
C625 C626 1.379 . S
C626 H610 0.931 . S
C626 C620 1.383 . S
C626 C625 1.379 . S
H627 C621 0.959 . S
H628 C621 0.961 . S
H629 C621 0.960 . S
H630 C622 0.930 . S
H631 C623 0.929 . S
H632 C640 0.929 . S
H633 C642 0.930 . S
H634 C644 0.930 . S
H635 C647 0.929 . S
H636 C650 0.930 . S
H637 C652 0.960 . S
H638 C652 0.960 1_554 S
H639 C652 0.960 1_554 S
C640 H632 0.929 . S
C640 C641 1.377 . S
C640 C642 1.384 1_554 S
C641 C640 1.377 . S
C641 C647 1.390 . S
C642 H633 0.930 . S
C642 C640 1.384 1_556 S
C642 C643 1.372 . S
C643 C642 1.372 . S
C643 C644 1.400 1_556 S
C643 C648 1.490 . S
C644 H634 0.930 . S
C644 C643 1.400 1_554 S
C644 C647 1.386 . S
H645 C661 0.930 . S
H646 C662 0.931 . S
C647 H635 0.929 . S
C647 C641 1.390 . S
C647 C644 1.386 . S
C648 C643 1.490 . S
C648 C650 1.395 . S
C648 C651 1.403 . S
H649 C655 0.930 . S
C650 H636 0.930 . S
C650 C648 1.395 . S
C650 C653 1.403 . S
C651 C648 1.403 . S
C651 C652 1.524 . S
C651 C655 1.400 . S
C652 H637 0.960 . S
C652 H638 0.960 1_556 S
C652 H639 0.960 1_556 S
C652 C651 1.524 . S
C653 C650 1.403 . S
C653 C654 1.392 . S
C653 C657 1.495 . S
C654 C653 1.392 . S
C654 C655 1.385 . S
C654 C656 1.478 . S
C655 H649 0.930 . S
C655 C651 1.400 . S
C655 C654 1.385 . S
C656 C654 1.478 . S
C656 C658 1.381 . S
C656 C662 1.383 . S
C657 C653 1.495 . S
C657 H663 0.959 . S
C657 H664 0.961 . S
C657 H665 0.960 . S
C658 C656 1.381 . S
C658 C659 1.394 . S
C658 H666 0.930 . S
C659 C658 1.394 . S
C659 C660 1.383 . S
C659 H667 0.929 . S
C660 C659 1.383 . S
C660 C661 1.377 . S
C661 H645 0.930 . S
C661 C660 1.377 . S
C661 C662 1.379 . S
C662 H646 0.931 . S
C662 C656 1.383 . S
C662 C661 1.379 . S
H663 C657 0.959 . S
H664 C657 0.961 . S
H665 C657 0.960 . S
H666 C658 0.930 . S
H667 C659 0.929 . S
H668 C676 0.929 . S
H669 C678 0.930 1_455 S
H670 C680 0.930 . S
H671 C683 0.929 . S
H672 C686 0.930 1_554 S
H673 C688 0.960 . S
H674 C688 0.960 . S
H675 C688 0.960 . S
C676 H668 0.929 . S
C676 C677 1.377 . S
C676 C678 1.384 . S
C677 C676 1.377 . S
C677 C683 1.390 . S
C678 H669 0.930 1_655 S
C678 C676 1.384 . S
C678 C679 1.372 . S
C679 C678 1.372 . S
C679 C680 1.400 . S
C679 C684 1.490 1_554 S
C680 H670 0.930 . S
C680 C679 1.400 . S
C680 C683 1.386 . S
H681 C697 0.930 . S
H682 C698 0.931 . S
C683 H671 0.929 . S
C683 C677 1.390 . S
C683 C680 1.386 . S
C684 C679 1.490 1_556 S
C684 C686 1.395 . S
C684 C687 1.403 . S
H685 C691 0.930 . S
C686 H672 0.930 1_556 S
C686 C684 1.395 . S
C686 C689 1.403 . S
C687 C684 1.403 . S
C687 C688 1.524 . S
C687 C691 1.400 . S
C688 H673 0.960 . S
C688 H674 0.960 . S
C688 H675 0.960 . S
C688 C687 1.524 . S
C689 C686 1.403 . S
C689 C690 1.392 . S
C689 C693 1.495 1_655 S
C690 C689 1.392 . S
C690 C691 1.385 . S
C690 C692 1.478 . S
C691 H685 0.930 . S
C691 C687 1.400 . S
C691 C690 1.385 . S
C692 C690 1.478 . S
C692 C694 1.381 1_655 S
C692 C698 1.383 . S
C693 C689 1.495 1_455 S
C693 H699 0.959 . S
C693 H700 0.961 . S
C693 H701 0.960 . S
C694 C692 1.381 1_455 S
C694 C695 1.394 . S
C694 H702 0.930 . S
C695 C694 1.394 . S
C695 C696 1.383 1_455 S
C695 H703 0.929 . S
C696 C695 1.383 1_655 S
C696 C697 1.377 . S
C697 H681 0.930 . S
C697 C696 1.377 . S
C697 C698 1.379 . S
C698 H682 0.931 . S
C698 C692 1.383 . S
C698 C697 1.379 . S
H699 C693 0.959 . S
H700 C693 0.961 . S
H701 C693 0.960 . S
H702 C694 0.930 . S
H703 C695 0.929 . S
H704 C712 0.929 . S
H705 C714 0.930 . S
H706 C716 0.930 . S
H707 C719 0.929 . S
H708 C722 0.930 . S
H709 C724 0.960 . S
H710 C724 0.960 . S
H711 C724 0.960 . S
C712 H704 0.929 . S
C712 C713 1.377 . S
C712 C714 1.384 . S
C713 C712 1.377 . S
C713 C719 1.390 . S
C714 H705 0.930 . S
C714 C712 1.384 . S
C714 C715 1.372 . S
C715 C714 1.372 . S
C715 C716 1.400 . S
C715 C720 1.490 . S
C716 H706 0.930 . S
C716 C715 1.400 . S
C716 C719 1.386 . S
H717 C733 0.930 . S
H718 C734 0.931 . S
C719 H707 0.929 . S
C719 C713 1.390 . S
C719 C716 1.386 . S
C720 C715 1.490 . S
C720 C722 1.395 . S
C720 C723 1.403 . S
H721 C727 0.930 . S
C722 H708 0.930 . S
C722 C720 1.395 . S
C722 C725 1.403 . S
C723 C720 1.403 . S
C723 C724 1.524 . S
C723 C727 1.400 . S
C724 H709 0.960 . S
C724 H710 0.960 . S
C724 H711 0.960 . S
C724 C723 1.524 . S
C725 C722 1.403 . S
C725 C726 1.392 . S
C725 C729 1.495 1_455 S
C726 C725 1.392 . S
C726 C727 1.385 . S
C726 C728 1.478 . S
C727 H721 0.930 . S
C727 C723 1.400 . S
C727 C726 1.385 . S
C728 C726 1.478 . S
C728 C730 1.381 1_455 S
C728 C734 1.383 . S
C729 C725 1.495 1_655 S
C729 H735 0.959 . S
C729 H736 0.961 . S
C729 H737 0.960 . S
C730 C728 1.381 1_655 S
C730 C731 1.394 . S
C730 H738 0.930 . S
C731 C730 1.394 . S
C731 C732 1.411 . S
C731 H739 0.929 . S
C732 C731 1.411 . S
C732 C733 1.335 1_655 S
C733 H717 0.930 . S
C733 C732 1.335 1_455 S
C733 C734 1.379 . S
C734 H718 0.931 . S
C734 C728 1.383 . S
C734 C733 1.379 . S
H735 C729 0.959 . S
H736 C729 0.961 . S
H737 C729 0.960 . S
H738 C730 0.930 . S
H739 C731 0.929 . S
H740 C748 0.929 . S
H741 C750 0.930 . S
H742 C752 0.930 . S
H743 C755 0.929 . S
H744 C758 0.930 . S
H745 C760 0.921 1_565 S
H746 C760 0.960 . S
H747 C760 0.960 . S
C748 H740 0.929 . S
C748 C749 1.377 . S
C748 C750 1.384 . S
C749 C748 1.377 . S
C749 C755 1.390 . S
C750 H741 0.930 . S
C750 C748 1.384 . S
C750 C751 1.372 . S
C751 C750 1.372 . S
C751 C752 1.400 . S
C751 C756 1.490 . S
C752 H742 0.930 . S
C752 C751 1.400 . S
C752 C755 1.386 . S
H753 C769 0.930 . S
H754 C770 0.931 . S
C755 H743 0.929 . S
C755 C749 1.390 . S
C755 C752 1.386 . S
C756 C751 1.490 . S
C756 C758 1.395 . S
C756 C759 1.403 . S
H757 C763 0.930 . S
C758 H744 0.930 . S
C758 C756 1.395 . S
C758 C761 1.403 . S
C759 C756 1.403 . S
C759 C760 1.524 . S
C759 C763 1.400 . S
C760 H745 0.921 1_545 S
C760 H746 0.960 . S
C760 H747 0.960 . S
C760 C759 1.524 . S
C761 C758 1.403 . S
C761 C762 1.392 . S
C761 C765 1.495 . S
C762 C761 1.392 . S
C762 C763 1.385 . S
C762 C764 1.478 . S
C763 H757 0.930 . S
C763 C759 1.400 . S
C763 C762 1.385 . S
C764 C762 1.478 . S
C764 C766 1.381 . S
C764 C770 1.383 . S
C765 C761 1.495 . S
C765 H771 0.959 . S
C765 H772 0.961 . S
C765 H773 0.960 . S
C766 C764 1.381 . S
C766 C767 1.394 . S
C766 H774 0.930 . S
C767 C766 1.394 . S
C767 C768 1.383 . S
C767 H775 0.929 . S
C768 C767 1.383 . S
C768 C769 1.377 1_545 S
C769 H753 0.930 . S
C769 C768 1.377 1_565 S
C769 C770 1.379 1_565 S
C770 H754 0.931 . S
C770 C764 1.383 . S
C770 C769 1.379 1_545 S
H771 C765 0.959 . S
H772 C765 0.961 . S
H773 C765 0.960 . S
H774 C766 0.930 . S
H775 C767 0.929 . S
H776 C784 0.929 . S
H777 C786 0.930 . S
H778 C788 0.930 . S
H779 C791 0.929 . S
H780 C794 0.930 . S
H781 C796 0.960 . S
H782 C796 0.960 . S
H783 C796 0.960 . S
C784 H776 0.929 . S
C784 C785 1.377 . S
C784 C786 1.384 . S
C785 C784 1.377 . S
C785 C791 1.390 . S
C786 H777 0.930 . S
C786 C784 1.384 . S
C786 C787 1.372 . S
C787 C786 1.372 . S
C787 C788 1.400 . S
C787 C792 1.490 . S
C788 H778 0.930 . S
C788 C787 1.400 . S
C788 C791 1.386 . S
H789 C805 0.930 . S
H790 C806 0.931 . S
C791 H779 0.929 . S
C791 C785 1.390 . S
C791 C788 1.386 . S
C792 C787 1.490 . S
C792 C794 1.395 . S
C792 C795 1.403 . S
H793 C799 0.930 . S
C794 H780 0.930 . S
C794 C792 1.395 . S
C794 C797 1.403 . S
C795 C792 1.403 . S
C795 C796 1.524 . S
C795 C799 1.400 . S
C796 H781 0.960 . S
C796 H782 0.960 . S
C796 H783 0.960 . S
C796 C795 1.524 . S
C797 C794 1.403 . S
C797 C798 1.392 . S
C797 C801 1.495 . S
C798 C797 1.392 . S
C798 C799 1.385 . S
C798 C800 1.478 . S
C799 H793 0.930 . S
C799 C795 1.400 . S
C799 C798 1.385 . S
C800 C798 1.478 . S
C800 C802 1.381 . S
C800 C806 1.383 . S
C801 C797 1.495 . S
C801 H807 0.959 . S
C801 H808 0.961 . S
C801 H809 0.960 . S
C802 C800 1.381 . S
C802 C803 1.394 . S
C802 H810 0.930 . S
C803 C802 1.394 . S
C803 C804 1.383 . S
C803 H811 0.929 . S
C804 C803 1.383 . S
C804 C805 1.377 . S
C805 H789 0.930 . S
C805 C804 1.377 . S
C805 C806 1.379 . S
C806 H790 0.931 . S
C806 C800 1.383 . S
C806 C805 1.379 . S
H807 C801 0.959 . S
H808 C801 0.961 . S
H809 C801 0.960 . S
H810 C802 0.930 . S
H811 C803 0.929 . S
H812 C820 0.929 . S
H813 C822 0.930 . S
H814 C824 0.930 . S
H815 C827 0.929 . S
H816 C830 0.930 . S
H817 C832 0.960 . S
H818 C832 0.960 . S
H819 C832 0.960 . S
C820 H812 0.929 . S
C820 C821 1.377 . S
C820 C822 1.384 . S
C821 C820 1.377 . S
C821 C827 1.390 . S
C822 H813 0.930 . S
C822 C820 1.384 . S
C822 C823 1.372 . S
C823 C822 1.372 . S
C823 C824 1.400 . S
C823 C828 1.490 . S
C824 H814 0.930 . S
C824 C823 1.400 . S
C824 C827 1.386 . S
H825 C841 0.930 . S
H826 C842 0.931 . S
C827 H815 0.929 . S
C827 C821 1.390 . S
C827 C824 1.386 . S
C828 C823 1.490 . S
C828 C830 1.395 . S
C828 C831 1.403 . S
H829 C835 0.930 . S
C830 H816 0.930 . S
C830 C828 1.395 . S
C830 C833 1.403 . S
C831 C828 1.403 . S
C831 C832 1.524 . S
C831 C835 1.400 . S
C832 H817 0.960 . S
C832 H818 0.960 . S
C832 H819 0.960 . S
C832 C831 1.524 . S
C833 C830 1.403 . S
C833 C834 1.392 . S
C833 C837 1.495 . S
C834 C833 1.392 . S
C834 C835 1.385 . S
C834 C836 1.478 . S
C835 H829 0.930 . S
C835 C831 1.400 . S
C835 C834 1.385 . S
C836 C834 1.478 . S
C836 C838 1.381 . S
C836 C842 1.383 . S
C837 C833 1.495 . S
C837 H843 0.959 . S
C837 H844 0.961 . S
C837 H845 0.960 . S
C838 C836 1.381 . S
C838 C839 1.394 . S
C838 H846 0.930 . S
C839 C838 1.394 . S
C839 C840 1.383 . S
C839 H847 0.929 . S
C840 C839 1.383 . S
C840 C841 1.377 . S
C841 H825 0.930 . S
C841 C840 1.377 . S
C841 C842 1.379 . S
C842 H826 0.931 . S
C842 C836 1.383 . S
C842 C841 1.379 . S
H843 C837 0.959 . S
H844 C837 0.961 . S
H845 C837 0.960 . S
H846 C838 0.930 . S
H847 C839 0.929 . S
H848 C856 0.929 . S
H849 C858 0.945 . S
H850 C860 0.930 . S
H851 C863 0.929 . S
H852 C866 0.930 . S
H853 C868 0.960 . S
H854 C868 0.960 1_655 S
H855 C868 0.960 1_554 S
C856 H848 0.929 . S
C856 C857 1.377 . S
C856 C858 1.384 . S
C857 C856 1.377 . S
C857 C863 1.390 . S
C858 H849 0.945 . S
C858 C856 1.384 . S
C858 C859 1.372 . S
C859 C858 1.372 . S
C859 C860 1.400 . S
C859 C864 1.490 . S
C860 H850 0.930 . S
C860 C859 1.400 . S
C860 C863 1.386 . S
H861 C877 0.930 . S
H862 C878 0.931 . S
C863 H851 0.929 . S
C863 C857 1.390 . S
C863 C860 1.386 . S
C864 C859 1.490 . S
C864 C866 1.395 . S
C864 C867 1.403 1_554 S
H865 C871 0.905 1_455 S
C866 H852 0.930 . S
C866 C864 1.395 . S
C866 C869 1.403 1_554 S
C867 C864 1.403 1_556 S
C867 C868 1.524 1_655 S
C867 C871 1.408 . S
C868 H853 0.960 . S
C868 H854 0.960 1_455 S
C868 H855 0.960 1_556 S
C868 C867 1.524 1_455 S
C869 C866 1.403 1_556 S
C869 C870 1.392 . S
C869 C873 1.495 . S
C870 C869 1.392 . S
C870 C871 1.402 . S
C870 C872 1.478 . S
C871 H865 0.905 1_655 S
C871 C867 1.408 . S
C871 C870 1.402 . S
C872 C870 1.478 . S
C872 C874 1.381 . S
C872 C878 1.383 1_655 S
C873 C869 1.495 . S
C873 H879 0.959 1_556 S
C873 H880 0.961 1_556 S
C873 H881 0.960 . S
C874 C872 1.381 . S
C874 C875 1.394 . S
C874 H882 0.930 . S
C875 C874 1.394 . S
C875 C876 1.383 1_655 S
C875 H883 0.929 . S
C876 C875 1.383 1_455 S
C876 C877 1.377 . S
C877 H861 0.930 . S
C877 C876 1.377 . S
C877 C878 1.379 . S
C878 H862 0.931 . S
C878 C872 1.383 1_455 S
C878 C877 1.379 . S
H879 C873 0.959 1_554 S
H880 C873 0.961 1_554 S
H881 C873 0.960 . S
H882 C874 0.930 . S
H883 C875 0.929 . S
H884 C892 0.929 . S
H885 C894 0.930 1_556 S
H886 C896 0.930 . S
H887 C899 0.929 . S
H888 C902 0.930 . S
H889 C904 0.960 1_545 S
H890 C904 0.942 1_545 S
H891 C904 0.960 . S
C892 H884 0.929 . S
C892 C893 1.377 . S
C892 C894 1.384 . S
C893 C892 1.377 . S
C893 C899 1.390 . S
C894 H885 0.930 1_554 S
C894 C892 1.384 . S
C894 C895 1.372 . S
C895 C894 1.372 . S
C895 C896 1.400 . S
C895 C900 1.490 1_554 S
C896 H886 0.930 . S
C896 C895 1.400 . S
C896 C899 1.386 . S
H897 C913 0.930 . S
H898 C914 0.931 . S
C899 H887 0.929 . S
C899 C893 1.390 . S
C899 C896 1.386 . S
C900 C895 1.490 1_556 S
C900 C902 1.395 . S
C900 C903 1.403 1_556 S
H901 C907 0.937 . S
C902 H888 0.930 . S
C902 C900 1.395 . S
C902 C905 1.403 . S
C903 C900 1.403 1_554 S
C903 C904 1.524 . S
C903 C907 1.400 1_554 S
C904 H889 0.960 1_565 S
C904 H890 0.942 1_565 S
C904 H891 0.960 . S
C904 C903 1.524 . S
C905 C902 1.403 . S
C905 C906 1.392 . S
C905 C909 1.495 . S
C906 C905 1.392 . S
C906 C907 1.385 . S
C906 C908 1.478 . S
C907 H901 0.937 . S
C907 C903 1.400 1_556 S
C907 C906 1.385 . S
C908 C906 1.478 . S
C908 C910 1.381 1_565 S
C908 C914 1.383 . S
C909 C905 1.495 . S
C909 H915 0.959 . S
C909 H916 0.961 . S
C909 H917 0.960 . S
C910 C908 1.381 1_545 S
C910 C911 1.394 . S
C910 H918 0.930 . S
C911 C910 1.394 . S
C911 C912 1.383 . S
C911 H919 0.929 . S
C912 C911 1.383 . S
C912 C913 1.377 1_545 S
C913 H897 0.930 . S
C913 C912 1.377 1_565 S
C913 C914 1.379 . S
C914 H898 0.931 . S
C914 C908 1.383 . S
C914 C913 1.379 . S
H915 C909 0.959 . S
H916 C909 0.961 . S
H917 C909 0.960 . S
H918 C910 0.930 . S
H919 C911 0.929 . S
H920 C928 0.929 1_556 S
H921 C930 0.930 . S
H922 C932 0.930 . S
H923 C935 0.929 . S
H924 C938 0.930 . S
H925 C940 0.960 . S
H926 C940 0.960 . S
H927 C940 0.960 1_554 S
C928 H920 0.929 1_554 S
C928 C929 1.377 . S
C928 C930 1.384 1_554 S
C929 C928 1.377 . S
C929 C935 1.390 . S
C930 H921 0.930 . S
C930 C928 1.384 1_556 S
C930 C931 1.372 . S
C931 C930 1.372 . S
C931 C932 1.400 1_556 S
C931 C936 1.490 . S
C932 H922 0.930 . S
C932 C931 1.400 1_554 S
C932 C935 1.386 . S
H933 C949 0.930 . S
H934 C950 0.931 . S
C935 H923 0.929 . S
C935 C929 1.390 . S
C935 C932 1.386 . S
C936 C931 1.490 . S
C936 C938 1.395 . S
C936 C939 1.403 . S
H937 C943 0.930 . S
C938 H924 0.930 . S
C938 C936 1.395 . S
C938 C941 1.403 . S
C939 C936 1.403 . S
C939 C940 1.524 . S
C939 C943 1.400 . S
C940 H925 0.960 . S
C940 H926 0.960 . S
C940 H927 0.960 1_556 S
C940 C939 1.524 . S
C941 C938 1.403 . S
C941 C942 1.392 . S
C941 C945 1.495 . S
C942 C941 1.392 . S
C942 C943 1.385 . S
C942 C944 1.478 . S
C943 H937 0.930 . S
C943 C939 1.400 . S
C943 C942 1.385 . S
C944 C942 1.478 . S
C944 C946 1.381 . S
C944 C950 1.383 . S
C945 C941 1.495 . S
C945 H951 0.959 . S
C945 H952 0.961 . S
C945 H953 0.960 . S
C946 C944 1.381 . S
C946 C947 1.394 . S
C946 H954 0.930 . S
C947 C946 1.394 . S
C947 C948 1.383 . S
C947 H955 0.929 . S
C948 C947 1.383 . S
C948 C949 1.377 . S
C949 H933 0.930 . S
C949 C948 1.377 . S
C949 C950 1.379 . S
C950 H934 0.931 . S
C950 C944 1.383 . S
C950 C949 1.379 . S
H951 C945 0.959 . S
H952 C945 0.961 . S
H953 C945 0.960 . S
H954 C946 0.930 . S
H955 C947 0.929 . S
H956 C964 0.929 . S
H957 C966 0.930 . S
H958 C968 0.930 . S
H959 C971 0.933 . S
H960 C974 0.930 . S
H961 C976 0.960 . S
H962 C976 0.960 . S
H963 C976 0.960 1_556 S
C964 H956 0.929 . S
C964 C965 1.377 . S
C964 C966 1.384 . S
C965 C964 1.377 . S
C965 C971 1.390 . S
C966 H957 0.930 . S
C966 C964 1.384 . S
C966 C967 1.372 . S
C967 C966 1.372 . S
C967 C968 1.400 1_554 S
C967 C972 1.490 1_554 S
C968 H958 0.930 . S
C968 C967 1.400 1_556 S
C968 C971 1.386 1_556 S
H969 C985 0.930 . S
H970 C986 0.931 . S
C971 H959 0.933 . S
C971 C965 1.390 . S
C971 C968 1.386 1_554 S
C972 C967 1.490 1_556 S
C972 C974 1.395 . S
C972 C975 1.403 . S
H973 C979 0.930 . S
C974 H960 0.930 . S
C974 C972 1.395 . S
C974 C977 1.403 . S
C975 C972 1.403 . S
C975 C976 1.524 1_556 S
C975 C979 1.400 . S
C976 H961 0.960 . S
C976 H962 0.960 . S
C976 H963 0.960 1_554 S
C976 C975 1.524 1_554 S
C977 C974 1.403 . S
C977 C978 1.392 . S
C977 C981 1.495 . S
C978 C977 1.392 . S
C978 C979 1.385 . S
C978 C980 1.478 . S
C979 H973 0.930 . S
C979 C975 1.400 . S
C979 C978 1.385 . S
C980 C978 1.478 . S
C980 C982 1.381 . S
C980 C986 1.383 . S
C981 C977 1.495 . S
C981 H987 0.959 . S
C981 H988 0.961 . S
C981 H989 0.960 . S
C982 C980 1.381 . S
C982 C983 1.394 . S
C982 H990 0.930 . S
C983 C982 1.394 . S
C983 C984 1.383 . S
C983 H991 0.929 . S
C984 C983 1.383 . S
C984 C985 1.377 . S
C985 H969 0.930 . S
C985 C984 1.377 . S
C985 C986 1.379 . S
C986 H970 0.931 . S
C986 C980 1.383 . S
C986 C985 1.379 . S
H987 C981 0.959 . S
H988 C981 0.961 . S
H989 C981 0.960 . S
H990 C982 0.930 . S
H991 C983 0.929 . S
H992 C1000 0.929 . S
H993 C1002 0.930 . S
H994 C1004 0.930 . S
H995 C1007 0.929 . S
H996 C1010 0.930 . S
H997 C1012 0.960 . S
H998 C1012 0.960 . S
H999 C1012 0.960 . S
C1000 H992 0.929 . S
C1000 C1001 1.377 . S
C1000 C1002 1.384 . S
C1001 C1000 1.377 . S
C1001 C1007 1.390 . S
C1002 H993 0.930 . S
C1002 C1000 1.384 . S
C1002 C1003 1.372 . S
C1003 C1002 1.372 . S
C1003 C1004 1.400 . S
C1003 C1008 1.490 . S
C1004 H994 0.930 . S
C1004 C1003 1.400 . S
C1004 C1007 1.386 . S
H1005 C1021 0.930 . S
H1006 C1022 0.931 . S
C1007 H995 0.929 . S
C1007 C1001 1.390 . S
C1007 C1004 1.386 . S
C1008 C1003 1.490 . S
C1008 C1010 1.395 . S
C1008 C1011 1.403 . S
H1009 C1015 0.930 . S
C1010 H996 0.930 . S
C1010 C1008 1.395 . S
C1010 C1013 1.403 . S
C1011 C1008 1.403 . S
C1011 C1012 1.524 . S
C1011 C1015 1.400 . S
C1012 H997 0.960 . S
C1012 H998 0.960 . S
C1012 H999 0.960 . S
C1012 C1011 1.524 . S
C1013 C1010 1.403 . S
C1013 C1014 1.392 . S
C1013 C1017 1.495 . S
C1014 C1013 1.392 . S
C1014 C1015 1.385 . S
C1014 C1016 1.478 . S
C1015 H1009 0.930 . S
C1015 C1011 1.400 . S
C1015 C1014 1.385 . S
C1016 C1014 1.478 . S
C1016 C1018 1.381 . S
C1016 C1022 1.383 . S
C1017 C1013 1.495 . S
C1017 H1023 0.959 . S
C1017 H1024 0.961 . S
C1017 H1025 0.993 . S
C1018 C1016 1.381 . S
C1018 C1019 1.394 . S
C1018 H1026 0.930 1_455 S
C1019 C1018 1.394 . S
C1019 C1020 1.383 . S
C1019 H1027 0.929 1_455 S
C1020 C1019 1.383 . S
C1020 C1021 1.377 . S
C1021 H1005 0.930 . S
C1021 C1020 1.377 . S
C1021 C1022 1.379 . S
C1022 H1006 0.931 . S
C1022 C1016 1.383 . S
C1022 C1021 1.379 . S
H1023 C1017 0.959 . S
H1024 C1017 0.961 . S
H1025 C1017 0.993 . S
H1026 C1018 0.930 1_655 S
H1027 C1019 0.929 1_655 S
H1028 C1036 0.929 . S
H1029 C1038 0.930 . S
H1030 C1040 0.930 . S
H1031 C1043 0.929 . S
H1032 C1046 0.930 . S
H1033 C1048 0.960 . S
H1034 C1048 0.960 . S
H1035 C1048 0.960 . S
C1036 H1028 0.929 . S
C1036 C1037 1.377 . S
C1036 C1038 1.384 . S
C1037 C1036 1.377 . S
C1037 C1043 1.390 . S
C1038 H1029 0.930 . S
C1038 C1036 1.384 . S
C1038 C1039 1.372 . S
C1039 C1038 1.372 . S
C1039 C1040 1.400 . S
C1039 C1044 1.490 . S
C1040 H1030 0.930 . S
C1040 C1039 1.400 . S
C1040 C1043 1.386 . S
H1041 C1057 0.930 . S
H1042 C1058 0.931 . S
C1043 H1031 0.929 . S
C1043 C1037 1.390 . S
C1043 C1040 1.386 . S
C1044 C1039 1.490 . S
C1044 C1046 1.395 . S
C1044 C1047 1.403 . S
H1045 C1051 0.930 . S
C1046 H1032 0.930 . S
C1046 C1044 1.395 . S
C1046 C1049 1.403 . S
C1047 C1044 1.403 . S
C1047 C1048 1.524 . S
C1047 C1051 1.400 . S
C1048 H1033 0.960 . S
C1048 H1034 0.960 . S
C1048 H1035 0.960 . S
C1048 C1047 1.524 . S
C1049 C1046 1.403 . S
C1049 C1050 1.392 . S
C1049 C1053 1.495 . S
C1050 C1049 1.392 . S
C1050 C1051 1.385 . S
C1050 C1052 1.478 . S
C1051 H1045 0.930 . S
C1051 C1047 1.400 . S
C1051 C1050 1.385 . S
C1052 C1050 1.478 . S
C1052 C1054 1.381 . S
C1052 C1058 1.383 . S
C1053 C1049 1.495 . S
C1053 H1059 0.959 . S
C1053 H1060 0.961 . S
C1053 H1061 0.960 . S
C1054 C1052 1.381 . S
C1054 C1055 1.394 . S
C1054 H1062 0.930 . S
C1055 C1054 1.394 . S
C1055 C1056 1.383 . S
C1055 H1063 0.929 . S
C1056 C1055 1.383 . S
C1056 C1057 1.377 . S
C1057 H1041 0.930 . S
C1057 C1056 1.377 . S
C1057 C1058 1.379 . S
C1058 H1042 0.931 . S
C1058 C1052 1.383 . S
C1058 C1057 1.379 . S
H1059 C1053 0.959 . S
H1060 C1053 0.961 . S
H1061 C1053 0.960 . S
H1062 C1054 0.930 . S
H1063 C1055 0.929 . S
H1064 C1072 0.929 . S
H1065 C1074 0.930 . S
H1066 C1076 0.930 . S
H1067 C1079 0.929 . S
H1068 C1082 0.930 . S
H1069 C1084 0.960 . S
H1070 C1084 0.960 . S
H1071 C1084 0.960 . S
C1072 H1064 0.929 . S
C1072 C1073 1.377 . S
C1072 C1074 1.384 . S
C1073 C1072 1.377 . S
C1073 C1079 1.390 . S
C1074 H1065 0.930 . S
C1074 C1072 1.384 . S
C1074 C1075 1.372 . S
C1075 C1074 1.372 . S
C1075 C1076 1.400 . S
C1075 C1080 1.490 . S
C1076 H1066 0.930 . S
C1076 C1075 1.400 . S
C1076 C1079 1.386 . S
H1077 C1093 0.930 . S
H1078 C1094 0.931 . S
C1079 H1067 0.929 . S
C1079 C1073 1.390 . S
C1079 C1076 1.386 . S
C1080 C1075 1.490 . S
C1080 C1082 1.395 . S
C1080 C1083 1.403 . S
H1081 C1087 0.930 . S
C1082 H1068 0.930 . S
C1082 C1080 1.395 . S
C1082 C1085 1.403 . S
C1083 C1080 1.403 . S
C1083 C1084 1.524 . S
C1083 C1087 1.400 . S
C1084 H1069 0.960 . S
C1084 H1070 0.960 . S
C1084 H1071 0.960 . S
C1084 C1083 1.524 . S
C1085 C1082 1.403 . S
C1085 C1086 1.392 . S
C1085 C1089 1.495 . S
C1086 C1085 1.392 . S
C1086 C1087 1.385 . S
C1086 C1088 1.478 . S
C1087 H1081 0.930 . S
C1087 C1083 1.400 . S
C1087 C1086 1.385 . S
C1088 C1086 1.478 . S
C1088 C1090 1.381 . S
C1088 C1094 1.383 . S
C1089 C1085 1.495 . S
C1089 H1095 0.959 . S
C1089 H1096 0.961 . S
C1089 H1097 0.960 . S
C1090 C1088 1.381 . S
C1090 C1091 1.394 . S
C1090 H1098 0.930 . S
C1091 C1090 1.394 . S
C1091 C1092 1.383 . S
C1091 H1099 0.929 . S
C1092 C1091 1.383 . S
C1092 C1093 1.377 . S
C1093 H1077 0.930 . S
C1093 C1092 1.377 . S
C1093 C1094 1.379 . S
C1094 H1078 0.931 . S
C1094 C1088 1.383 . S
C1094 C1093 1.379 . S
H1095 C1089 0.959 . S
H1096 C1089 0.961 . S
H1097 C1089 0.960 . S
H1098 C1090 0.930 . S
H1099 C1091 0.929 . S
H1100 C1108 0.929 . S
H1101 C1110 0.930 . S
H1102 C1112 0.930 . S
H1103 C1115 0.929 . S
H1104 C1118 0.930 . S
H1105 C1120 0.960 . S
H1106 C1120 0.960 . S
H1107 C1120 0.960 . S
C1108 H1100 0.929 . S
C1108 C1109 1.377 . S
C1108 C1110 1.384 . S
C1109 C1108 1.377 . S
C1109 C1115 1.390 . S
C1110 H1101 0.930 . S
C1110 C1108 1.384 . S
C1110 C1111 1.372 . S
C1111 C1110 1.372 . S
C1111 C1112 1.400 . S
C1111 C1116 1.490 . S
C1112 H1102 0.930 . S
C1112 C1111 1.400 . S
C1112 C1115 1.386 . S
H1113 C1129 0.930 . S
H1114 C1130 0.931 . S
C1115 H1103 0.929 . S
C1115 C1109 1.390 . S
C1115 C1112 1.386 . S
C1116 C1111 1.490 . S
C1116 C1118 1.395 . S
C1116 C1119 1.403 . S
H1117 C1123 0.930 . S
C1118 H1104 0.930 . S
C1118 C1116 1.395 . S
C1118 C1121 1.403 . S
C1119 C1116 1.403 . S
C1119 C1120 1.524 . S
C1119 C1123 1.400 . S
C1120 H1105 0.960 . S
C1120 H1106 0.960 . S
C1120 H1107 0.960 . S
C1120 C1119 1.524 . S
C1121 C1118 1.403 . S
C1121 C1122 1.392 . S
C1121 C1125 1.495 . S
C1122 C1121 1.392 . S
C1122 C1123 1.385 . S
C1122 C1124 1.478 . S
C1123 H1117 0.930 . S
C1123 C1119 1.400 . S
C1123 C1122 1.385 . S
C1124 C1122 1.478 . S
C1124 C1126 1.381 . S
C1124 C1130 1.383 . S
C1125 C1121 1.495 . S
C1125 H1131 0.959 . S
C1125 H1132 0.961 . S
C1125 H1133 0.960 . S
C1126 C1124 1.381 . S
C1126 C1127 1.394 . S
C1126 H1134 0.930 . S
C1127 C1126 1.394 . S
C1127 C1128 1.383 . S
C1127 H1135 0.929 . S
C1128 C1127 1.383 . S
C1128 C1129 1.377 . S
C1129 H1113 0.930 . S
C1129 C1128 1.377 . S
C1129 C1130 1.379 . S
C1130 H1114 0.931 . S
C1130 C1124 1.383 . S
C1130 C1129 1.379 . S
H1131 C1125 0.959 . S
H1132 C1125 0.961 . S
H1133 C1125 0.960 . S
H1134 C1126 0.930 . S
H1135 C1127 0.929 . S
H1136 C1144 0.929 . S
H1137 C1146 0.930 . S
H1138 C1148 0.930 . S
H1139 C1151 0.929 . S
H1140 C1154 0.930 . S
H1141 C1156 0.960 . S
H1142 C1156 0.960 . S
H1143 C1156 0.960 . S
C1144 H1136 0.929 . S
C1144 C1145 1.377 . S
C1144 C1146 1.384 . S
C1145 C1144 1.377 . S
C1145 C1151 1.390 . S
C1146 H1137 0.930 . S
C1146 C1144 1.384 . S
C1146 C1147 1.372 . S
C1147 C1146 1.372 . S
C1147 C1148 1.400 . S
C1147 C1152 1.490 . S
C1148 H1138 0.930 . S
C1148 C1147 1.400 . S
C1148 C1151 1.386 . S
H1149 C1165 0.942 . S
H1150 C1166 0.931 . S
C1151 H1139 0.929 . S
C1151 C1145 1.390 . S
C1151 C1148 1.386 . S
C1152 C1147 1.490 . S
C1152 C1154 1.395 . S
C1152 C1155 1.403 . S
H1153 C1159 0.930 1_455 S
C1154 H1140 0.930 . S
C1154 C1152 1.395 . S
C1154 C1157 1.403 . S
C1155 C1152 1.403 . S
C1155 C1156 1.524 1_655 S
C1155 C1159 1.400 . S
C1156 H1141 0.960 . S
C1156 H1142 0.960 . S
C1156 H1143 0.960 . S
C1156 C1155 1.524 1_455 S
C1157 C1154 1.403 . S
C1157 C1158 1.392 . S
C1157 C1161 1.495 . S
C1158 C1157 1.392 . S
C1158 C1159 1.385 . S
C1158 C1160 1.478 . S
C1159 H1153 0.930 1_655 S
C1159 C1155 1.400 . S
C1159 C1158 1.385 . S
C1160 C1158 1.478 . S
C1160 C1162 1.381 . S
C1160 C1166 1.383 . S
C1161 C1157 1.495 . S
C1161 H1167 0.959 . S
C1161 H1168 0.961 . S
C1161 H1169 0.960 . S
C1162 C1160 1.381 . S
C1162 C1163 1.394 . S
C1162 H1170 0.930 . S
C1163 C1162 1.394 . S
C1163 C1164 1.383 . S
C1163 H1171 0.929 . S
C1164 C1163 1.383 . S
C1164 C1165 1.377 . S
C1165 H1149 0.942 . S
C1165 C1164 1.377 . S
C1165 C1166 1.379 . S
C1166 H1150 0.931 . S
C1166 C1160 1.383 . S
C1166 C1165 1.379 . S
H1167 C1161 0.959 . S
H1168 C1161 0.961 . S
H1169 C1161 0.960 . S
H1170 C1162 0.930 . S
H1171 C1163 0.929 . S
H1172 C1180 0.929 . S
H1173 C1182 0.930 . S
H1174 C1184 0.930 . S
H1175 C1187 0.929 . S
H1176 C1190 0.930 . S
H1177 C1192 0.960 . S
H1178 C1192 0.960 . S
H1179 C1192 0.960 . S
C1180 H1172 0.929 . S
C1180 C1181 1.377 . S
C1180 C1182 1.384 . S
C1181 C1180 1.377 . S
C1181 C1187 1.390 . S
C1182 H1173 0.930 . S
C1182 C1180 1.384 . S
C1182 C1183 1.372 . S
C1183 C1182 1.372 . S
C1183 C1184 1.400 . S
C1183 C1188 1.490 . S
C1184 H1174 0.930 . S
C1184 C1183 1.400 . S
C1184 C1187 1.386 . S
H1185 C1201 0.930 1_545 S
H1186 C1202 0.957 . S
C1187 H1175 0.929 . S
C1187 C1181 1.390 . S
C1187 C1184 1.386 . S
C1188 C1183 1.490 . S
C1188 C1190 1.395 . S
C1188 C1191 1.403 . S
H1189 C1195 0.930 . S
C1190 H1176 0.930 . S
C1190 C1188 1.395 . S
C1190 C1193 1.403 . S
C1191 C1188 1.403 . S
C1191 C1192 1.524 . S
C1191 C1195 1.400 . S
C1192 H1177 0.960 . S
C1192 H1178 0.960 . S
C1192 H1179 0.960 . S
C1192 C1191 1.524 . S
C1193 C1190 1.403 . S
C1193 C1194 1.392 . S
C1193 C1197 1.495 . S
C1194 C1193 1.392 . S
C1194 C1195 1.385 . S
C1194 C1196 1.478 . S
C1195 H1189 0.930 . S
C1195 C1191 1.400 . S
C1195 C1194 1.385 . S
C1196 C1194 1.478 . S
C1196 C1198 1.381 . S
C1196 C1202 1.383 . S
C1197 C1193 1.495 . S
C1197 H1203 0.959 . S
C1197 H1204 0.961 . S
C1197 H1205 0.960 . S
C1198 C1196 1.381 . S
C1198 C1199 1.394 . S
C1198 H1206 0.930 . S
C1199 C1198 1.394 . S
C1199 C1200 1.383 . S
C1199 H1207 0.929 . S
C1200 C1199 1.383 . S
C1200 C1201 1.377 . S
C1201 H1185 0.930 1_565 S
C1201 C1200 1.377 . S
C1201 C1202 1.379 . S
C1202 H1186 0.957 . S
C1202 C1196 1.383 . S
C1202 C1201 1.379 . S
H1203 C1197 0.959 . S
H1204 C1197 0.961 . S
H1205 C1197 0.960 . S
H1206 C1198 0.930 . S
H1207 C1199 0.929 . S
H1208 C1216 0.929 . S
H1209 C1218 0.930 . S
H1210 C1220 0.930 . S
H1211 C1223 0.929 . S
H1212 C1226 0.930 . S
H1213 C1228 0.960 . S
H1214 C1228 0.960 . S
H1215 C1228 0.960 . S
C1216 H1208 0.929 . S
C1216 C1217 1.377 . S
C1216 C1218 1.384 . S
C1217 C1216 1.377 . S
C1217 C1223 1.390 . S
C1218 H1209 0.930 . S
C1218 C1216 1.384 . S
C1218 C1219 1.372 . S
C1219 C1218 1.372 . S
C1219 C1220 1.400 . S
C1219 C1224 1.490 . S
C1220 H1210 0.930 . S
C1220 C1219 1.400 . S
C1220 C1223 1.386 . S
H1221 C1237 0.930 . S
H1222 C1238 0.931 . S
C1223 H1211 0.929 . S
C1223 C1217 1.390 . S
C1223 C1220 1.386 . S
C1224 C1219 1.490 . S
C1224 C1226 1.395 . S
C1224 C1227 1.403 . S
H1225 C1231 0.930 . S
C1226 H1212 0.930 . S
C1226 C1224 1.395 . S
C1226 C1229 1.403 . S
C1227 C1224 1.403 . S
C1227 C1228 1.524 . S
C1227 C1231 1.400 . S
C1228 H1213 0.960 . S
C1228 H1214 0.960 . S
C1228 H1215 0.960 . S
C1228 C1227 1.524 . S
C1229 C1226 1.403 . S
C1229 C1230 1.392 . S
C1229 C1233 1.495 . S
C1230 C1229 1.392 . S
C1230 C1231 1.385 . S
C1230 C1232 1.478 . S
C1231 H1225 0.930 . S
C1231 C1227 1.400 . S
C1231 C1230 1.385 . S
C1232 C1230 1.478 . S
C1232 C1234 1.381 . S
C1232 C1238 1.383 . S
C1233 C1229 1.495 . S
C1233 H1239 0.959 . S
C1233 H1240 0.961 . S
C1233 H1241 0.960 . S
C1234 C1232 1.381 . S
C1234 C1235 1.394 . S
C1234 H1242 0.930 . S
C1235 C1234 1.394 . S
C1235 C1236 1.383 . S
C1235 H1243 0.929 . S
C1236 C1235 1.383 . S
C1236 C1237 1.377 . S
C1237 H1221 0.930 . S
C1237 C1236 1.377 . S
C1237 C1238 1.379 . S
C1238 H1222 0.931 . S
C1238 C1232 1.383 . S
C1238 C1237 1.379 . S
H1239 C1233 0.959 . S
H1240 C1233 0.961 . S
H1241 C1233 0.960 . S
H1242 C1234 0.930 . S
H1243 C1235 0.929 . S
H1244 C1252 0.929 . S
H1245 C1254 0.930 . S
H1246 C1256 0.930 . S
H1247 C1259 0.929 . S
H1248 C1262 0.930 . S
H1249 C1264 0.960 . S
H1250 C1264 0.960 . S
H1251 C1264 0.960 . S
C1252 H1244 0.929 . S
C1252 C1253 1.377 . S
C1252 C1254 1.384 . S
C1253 C1252 1.377 . S
C1253 C1259 1.390 . S
C1254 H1245 0.930 . S
C1254 C1252 1.384 . S
C1254 C1255 1.372 . S
C1255 C1254 1.372 . S
C1255 C1256 1.400 . S
C1255 C1260 1.490 . S
C1256 H1246 0.930 . S
C1256 C1255 1.400 . S
C1256 C1259 1.386 . S
H1257 C1273 0.930 . S
H1258 C1274 0.931 . S
C1259 H1247 0.929 . S
C1259 C1253 1.390 . S
C1259 C1256 1.386 . S
C1260 C1255 1.490 . S
C1260 C1262 1.395 . S
C1260 C1263 1.403 . S
H1261 C1267 0.930 . S
C1262 H1248 0.930 . S
C1262 C1260 1.395 . S
C1262 C1265 1.403 . S
C1263 C1260 1.403 . S
C1263 C1264 1.524 . S
C1263 C1267 1.400 . S
C1264 H1249 0.960 . S
C1264 H1250 0.960 . S
C1264 H1251 0.960 . S
C1264 C1263 1.524 . S
C1265 C1262 1.403 . S
C1265 C1266 1.392 . S
C1265 C1269 1.495 . S
C1266 C1265 1.392 . S
C1266 C1267 1.385 . S
C1266 C1268 1.478 . S
C1267 H1261 0.930 . S
C1267 C1263 1.400 . S
C1267 C1266 1.385 . S
C1268 C1266 1.478 . S
C1268 C1270 1.381 . S
C1268 C1274 1.383 . S
C1269 C1265 1.495 . S
C1269 H1275 0.959 . S
C1269 H1276 0.961 . S
C1269 H1277 0.960 . S
C1270 C1268 1.381 . S
C1270 C1271 1.394 . S
C1270 H1278 0.930 . S
C1271 C1270 1.394 . S
C1271 C1272 1.383 . S
C1271 H1279 0.929 . S
C1272 C1271 1.383 . S
C1272 C1273 1.377 . S
C1273 H1257 0.930 . S
C1273 C1272 1.377 . S
C1273 C1274 1.379 . S
C1274 H1258 0.931 . S
C1274 C1268 1.383 . S
C1274 C1273 1.379 . S
H1275 C1269 0.959 . S
H1276 C1269 0.961 . S
H1277 C1269 0.960 . S
H1278 C1270 0.930 . S
H1279 C1271 0.929 . S
C425 C215 2.427 . S
C444 C287 2.517 . S
C480 C313 1.833 . S
C461 C247 1.680 . S
C516 C353 1.953 . S
C497 C151 1.877 . S
C552 C407 2.522 . S
C533 C183 2.432 . S
C588 C268 2.535 . S
C569 C87 2.345 . S
C605 C119 1.748 . S
C624 C298 1.838 . S
C641 C23 1.803 . S
C660 C338 1.949 . S
C677 C55 2.356 . S
C696 C388 2.507 1_655 S
C732 C264 0.280 1_655 S
C713 C189 0.153 . S
C768 C325 0.491 . S
C749 C221 0.452 . S
C804 C365 0.390 . S
C785 C253 0.349 . S
C821 C157 0.268 . S
C840 C384 0.362 . S
C857 C61 0.581 . S
C876 C285 0.270 . S
C912 C304 0.505 . S
C893 C93 0.559 . S
C948 C344 0.337 . S
C929 C125 0.313 . S
C965 C29 0.697 . S
C984 C405 0.324 . S
C1001 C177 2.050 . S
C1020 C258 2.231 . S
C1037 C209 2.806 . S
C1056 C308 2.991 . S
C1092 C348 2.687 . S
C1073 C241 2.451 . S
C1128 C378 1.993 . S
C1109 C145 1.851 . S
C1145 C49 1.989 . S
C1164 C273 2.223 . S
C1200 C327 2.989 . S
C1181 C81 2.729 . S
C1236 C367 2.694 . S
C1217 C113 2.531 . S
C1253 C17 1.784 . S
C1272 C393 1.991 . S
