# Generated by pormake.
# Topology zzz, (3,6)-cn, num edge types: 1
# Building blocks:
#     Node 0, Type 0, BuildingBlock: BETDAH_clean_linker_0, # of connection points: 3
#     Node 1, Type 0, BuildingBlock: BETDAH_clean_linker_0, # of connection points: 3
#     Node 2, Type 0, BuildingBlock: BETDAH_clean_linker_0, # of connection points: 3
#     Node 3, Type 0, BuildingBlock: BETDAH_clean_linker_0, # of connection points: 3
#     Node 4, Type 0, BuildingBlock: BETDAH_clean_linker_0, # of connection points: 3
#     Node 5, Type 0, BuildingBlock: BETDAH_clean_linker_0, # of connection points: 3
#     Node 6, Type 0, BuildingBlock: BETDAH_clean_linker_0, # of connection points: 3
#     Node 7, Type 0, BuildingBlock: BETDAH_clean_linker_0, # of connection points: 3
#     Node 8, Type 1, BuildingBlock: JUFBIX_clean_sbu_0, # of connection points: 6
#     Node 9, Type 1, BuildingBlock: JUFBIX_clean_sbu_0, # of connection points: 6
#     Node 10, Type 1, BuildingBlock: JUFBIX_clean_sbu_0, # of connection points: 6
#     Node 11, Type 1, BuildingBlock: JUFBIX_clean_sbu_0, # of connection points: 6
#     Edge 12, Type (0, 1), BuildingBlock: MIFKUJ_clean_linker_0, # of connection points: 2
#     Edge 13, Type (0, 1), BuildingBlock: MIFKUJ_clean_linker_0, # of connection points: 2
#     Edge 14, Type (0, 1), BuildingBlock: MIFKUJ_clean_linker_0, # of connection points: 2
#     Edge 15, Type (0, 1), BuildingBlock: MIFKUJ_clean_linker_0, # of connection points: 2
#     Edge 16, Type (0, 1), BuildingBlock: MIFKUJ_clean_linker_0, # of connection points: 2
#     Edge 17, Type (0, 1), BuildingBlock: MIFKUJ_clean_linker_0, # of connection points: 2
#     Edge 18, Type (0, 1), BuildingBlock: MIFKUJ_clean_linker_0, # of connection points: 2
#     Edge 19, Type (0, 1), BuildingBlock: MIFKUJ_clean_linker_0, # of connection points: 2
#     Edge 20, Type (0, 1), BuildingBlock: MIFKUJ_clean_linker_0, # of connection points: 2
#     Edge 21, Type (0, 1), BuildingBlock: MIFKUJ_clean_linker_0, # of connection points: 2
#     Edge 22, Type (0, 1), BuildingBlock: MIFKUJ_clean_linker_0, # of connection points: 2
#     Edge 23, Type (0, 1), BuildingBlock: MIFKUJ_clean_linker_0, # of connection points: 2
#     Edge 24, Type (0, 1), BuildingBlock: MIFKUJ_clean_linker_0, # of connection points: 2
#     Edge 25, Type (0, 1), BuildingBlock: MIFKUJ_clean_linker_0, # of connection points: 2
#     Edge 26, Type (0, 1), BuildingBlock: MIFKUJ_clean_linker_0, # of connection points: 2
#     Edge 27, Type (0, 1), BuildingBlock: MIFKUJ_clean_linker_0, # of connection points: 2
#     Edge 28, Type (0, 1), BuildingBlock: MIFKUJ_clean_linker_0, # of connection points: 2
#     Edge 29, Type (0, 1), BuildingBlock: MIFKUJ_clean_linker_0, # of connection points: 2
#     Edge 30, Type (0, 1), BuildingBlock: MIFKUJ_clean_linker_0, # of connection points: 2
#     Edge 31, Type (0, 1), BuildingBlock: MIFKUJ_clean_linker_0, # of connection points: 2
#     Edge 32, Type (0, 1), BuildingBlock: MIFKUJ_clean_linker_0, # of connection points: 2
#     Edge 33, Type (0, 1), BuildingBlock: MIFKUJ_clean_linker_0, # of connection points: 2
#     Edge 34, Type (0, 1), BuildingBlock: MIFKUJ_clean_linker_0, # of connection points: 2
#     Edge 35, Type (0, 1), BuildingBlock: MIFKUJ_clean_linker_0, # of connection points: 2
# Relax obj value: 0.129
# Max RMSD: 0.180
# Mean RMSD: 0.087
data_MOF--net-zzz--node1-JUFBIX_clean_sbu_0--node2-BETDAH_clean_linker_0--edge1-MIFKUJ_clean_linker_0
_symmetry_space_group_name_H-M    P1
_symmetry_Int_Tables_number       1
_symmetry_cell_setting            triclinic
loop_
_symmetry_equiv_pos_as_xyz
'x, y, z'
_cell_length_a     67.147842
_cell_length_b     66.675405
_cell_length_c     22.494776
_cell_angle_alpha  83.245735
_cell_angle_beta   89.794165
_cell_angle_gamma 91.250852
loop_
_atom_site_label
_atom_site_type_symbol
_atom_site_fract_x
_atom_site_fract_y
_atom_site_fract_z
_atom_type_partial_charge
H0 H 0.83732 0.52924 0.25695 0.0
H1 H 0.78234 0.51444 0.17311 0.0
H2 H 0.78465 0.51626 0.36411 0.0
C3 C 0.82143 0.52591 0.25988 0.0
C4 C 0.81218 0.52364 0.31607 0.0
C5 C 0.8109 0.52244 0.20824 0.0
C6 C 0.79049 0.51725 0.21286 0.0
C7 C 0.78084 0.51541 0.26917 0.0
C8 C 0.7919 0.51821 0.32062 0.0
N9 N 0.76023 0.51031 0.27628 0.0
C10 C 0.74676 0.50957 0.22966 0.0
H11 H 0.96314 0.81347 0.24443 0.0
H12 H 0.96775 0.75911 0.16028 0.0
H13 H 0.96167 0.75597 0.35236 0.0
C14 C 0.96306 0.79711 0.2475 0.0
C15 C 0.96181 0.78589 0.30395 0.0
C16 C 0.96531 0.78764 0.19553 0.0
C17 C 0.966 0.76645 0.20038 0.0
C18 C 0.96438 0.75487 0.25701 0.0
C19 C 0.96255 0.76475 0.30867 0.0
N20 N 0.96468 0.73339 0.26375 0.0
C21 C 0.96692 0.72172 0.21677 0.0
H22 H 0.69612 0.98897 0.16263 0.0
H23 H 0.75288 1.0012 0.07623 0.0
H24 H 0.74772 0.99869 0.26856 0.0
C25 C 0.71204 0.99171 0.16583 0.0
C26 C 0.72047 0.99325 0.22185 0.0
C27 C 0.72352 0.99476 0.11342 0.0
C28 C 0.74406 0.99876 0.11695 0.0
C29 C 0.75298 0.99977 0.17333 0.0
C30 C 0.74099 0.9975 0.22537 0.0
N31 N 0.77381 0.00326 0.17948 0.0
C32 C 0.7879 0.00255 0.13416 0.0
H33 H 0.50735 0.67673 0.19582 0.0
H34 H 0.52257 0.73406 0.09624 0.0
H35 H 0.52876 0.72561 0.28839 0.0
C36 C 0.51211 0.69242 0.19505 0.0
C37 C 0.51747 0.6998 0.24855 0.0
C38 C 0.51416 0.70458 0.14013 0.0
C39 C 0.52086 0.72473 0.13883 0.0
C40 C 0.52573 0.73253 0.19275 0.0
C41 C 0.52447 0.71982 0.24713 0.0
N42 N 0.5324 0.75283 0.19412 0.0
C43 C 0.53047 0.76822 0.1472 0.0
H44 H 0.179 0.47588 0.31008 0.0
H45 H 0.23598 0.48863 0.38478 0.0
H46 H 0.23015 0.48645 0.19461 0.0
C47 C 0.19492 0.4786 0.30423 0.0
C48 C 0.20313 0.48048 0.24659 0.0
C49 C 0.20659 0.48168 0.35397 0.0
C50 C 0.22704 0.48606 0.34629 0.0
C51 C 0.23571 0.48734 0.28868 0.0
C52 C 0.22359 0.48494 0.23905 0.0
N53 N 0.2564 0.4914 0.27873 0.0
C54 C 0.27045 0.4917 0.32397 0.0
H55 H 0.02477 0.18781 0.31239 0.0
H56 H 0.02406 0.24451 0.38475 0.0
H57 H 0.02941 0.24319 0.1938 0.0
C58 C 0.02551 0.2042 0.30552 0.0
C59 C 0.02697 0.21413 0.24723 0.0
C60 C 0.02458 0.21504 0.35504 0.0
C61 C 0.02506 0.23623 0.34629 0.0
C62 C 0.02708 0.24652 0.28799 0.0
C63 C 0.02817 0.23534 0.23871 0.0
N64 N 0.02784 0.26799 0.27722 0.0
C65 C 0.0259 0.28085 0.32137 0.0
H66 H 0.32025 0.00534 0.38024 0.0
H67 H 0.263 0.00538 0.4661 0.0
H68 H 0.26967 0.02756 0.27868 0.0
C69 C 0.30445 0.0084 0.37762 0.0
C70 C 0.29653 0.0171 0.32347 0.0
C71 C 0.29253 0.00405 0.42896 0.0
C72 C 0.27214 0.0084 0.42614 0.0
C73 C 0.26376 0.01664 0.3714 0.0
C74 C 0.27604 0.02087 0.32038 0.0
N75 N 0.24322 0.02126 0.36581 0.0
C76 C 0.22885 0.01736 0.41076 0.0
H77 H 0.50963 0.32601 0.35968 0.0
H78 H 0.49292 0.26915 0.45967 0.0
H79 H 0.48856 0.27705 0.26705 0.0
C80 C 0.50479 0.31033 0.36062 0.0
C81 C 0.49987 0.30285 0.3069 0.0
C82 C 0.50216 0.29841 0.41579 0.0
C83 C 0.49513 0.27834 0.41706 0.0
C84 C 0.49057 0.27045 0.36305 0.0
C85 C 0.49254 0.28294 0.30842 0.0
N86 N 0.48345 0.25028 0.36176 0.0
C87 C 0.48488 0.23486 0.40881 0.0
Co88 Co 0.01265 0.00583 0.81292 0.0
C89 C 0.97153 0.99685 0.81384 0.0
Co90 Co 1.00132 0.9942 0.73065 0.0
C91 C 0.02626 0.03598 0.88808 0.0
C92 C 0.01824 0.00777 0.93885 0.0
N93 N 0.02059 0.01669 0.88219 0.0
N94 N 0.02705 0.03951 0.94595 0.0
C95 C 0.02216 0.02171 0.97799 0.0
H96 H 0.02834 0.04764 0.85073 0.0
H97 H 0.01274 0.99246 0.95105 0.0
C98 C 0.04244 0.00308 0.72966 0.0
N99 N 0.99327 0.98333 0.66158 0.0
C100 C 0.98675 0.96427 0.65621 0.0
C101 C 0.99568 0.99208 0.60476 0.0
N102 N 0.98541 0.96068 0.59844 0.0
C103 C 0.99087 0.97825 0.56601 0.0
C104 C 1.00019 0.0356 0.72375 0.0
O105 O 0.03923 0.00845 0.78131 0.0
O106 O 0.02794 0.99638 0.70087 0.0
O107 O 0.99646 0.0209 0.69403 0.0
O108 O 0.00707 0.03208 0.77626 0.0
O109 O 0.97468 0.99215 0.7614 0.0
H110 H 1.00157 0.00721 0.59217 0.0
H111 H 0.98421 0.95282 0.6939 0.0
O112 O 0.98607 0.00304 0.8435 0.0
O113 O 0.01795 0.97927 0.84888 0.0
O114 O 0.00634 0.96784 0.76815 0.0
C115 C 0.0136 0.96446 0.82027 0.0
H116 H 0.02063 0.01917 0.02622 0.0
H117 H 0.99196 0.98078 0.51769 0.0
Co118 Co 0.50079 0.00497 0.81539 0.0
C119 C 0.50769 0.96368 0.81918 0.0
Co120 Co 0.51216 0.99581 0.73015 0.0
C121 C 0.47121 0.01848 0.8947 0.0
C122 C 0.49746 0.00852 0.94187 0.0
N123 N 0.48975 0.01173 0.88638 0.0
N124 N 0.4669 0.01926 0.95306 0.0
C125 C 0.4835 0.01317 0.98286 0.0
H126 H 0.4608 0.0222 0.85875 0.0
H127 H 0.51192 0.00222 0.95225 0.0
C128 C 0.50532 0.03712 0.72652 0.0
N129 N 0.52327 0.98881 0.65969 0.0
C130 C 0.54098 0.99527 0.63476 0.0
C131 C 0.51645 0.97489 0.6255 0.0
N132 N 0.54567 0.98575 0.58689 0.0
C133 C 0.53012 0.973 0.58079 0.0
C134 C 0.47134 0.99456 0.73533 0.0
O135 O 0.49989 0.03235 0.78071 0.0
O136 O 0.51138 0.02341 0.69632 0.0
O137 O 0.48589 0.99152 0.70147 0.0
O138 O 0.47481 1.00022 0.78628 0.0
O139 O 0.5128 0.9684 0.76474 0.0
H140 H 0.50271 0.96621 0.63358 0.0
H141 H 0.55063 0.00617 0.65303 0.0
O142 O 0.50185 0.97743 0.84946 0.0
O143 O 0.52705 0.00965 0.84341 0.0
O144 O 0.53813 0.99999 0.75987 0.0
C145 C 0.5416 0.006 0.81034 0.0
H146 H 0.48505 0.01109 0.03105 0.0
H147 H 0.52874 0.96277 0.54702 0.0
Co148 Co 0.52436 0.50121 0.78129 0.0
C149 C 0.50483 0.47766 0.87468 0.0
Co150 Co 0.49149 0.50172 0.77478 0.0
C151 C 0.56338 0.50296 0.83526 0.0
C152 C 0.56487 0.49712 0.74387 0.0
N153 N 0.55192 0.50053 0.78723 0.0
N154 N 0.58303 0.50119 0.8237 0.0
C155 C 0.58392 0.49748 0.76605 0.0
H156 H 0.55732 0.50609 0.87774 0.0
H157 H 0.56069 0.49436 0.69909 0.0
C158 C 0.51106 0.52531 0.68141 0.0
N159 N 0.46396 0.50236 0.76867 0.0
C160 C 0.45271 0.50039 0.71993 0.0
C161 C 0.45082 0.50516 0.81219 0.0
N162 N 0.43305 0.50191 0.73119 0.0
C163 C 0.43184 0.50493 0.78932 0.0
C164 C 0.50758 0.53261 0.83323 0.0
O165 O 0.52661 0.51864 0.70834 0.0
O166 O 0.49404 0.5193 0.7022 0.0
O167 O 0.49141 0.52466 0.81714 0.0
O168 O 0.524 0.52441 0.82322 0.0
O169 O 0.48927 0.48412 0.84737 0.0
H170 H 0.4548 0.50727 0.85763 0.0
H171 H 0.45891 0.49821 0.67673 0.0
O172 O 0.52185 0.48381 0.85424 0.0
O173 O 0.52433 0.47794 0.73903 0.0
O174 O 0.49176 0.47881 0.73286 0.0
C175 C 0.50797 0.47027 0.72311 0.0
H176 H 0.59732 0.49481 0.74162 0.0
H177 H 0.41821 0.50661 0.81389 0.0
Co178 Co 0.01022 0.51903 0.7765 0.0
C179 C 0.03632 0.49594 0.85105 0.0
Co180 Co 0.00661 0.4859 0.77471 0.0
C181 C 1.00196 0.55894 0.81134 0.0
C182 C 0.03034 0.55782 0.76851 0.0
N183 N 0.01359 0.5467 0.78272 0.0
N184 N 0.01098 0.57698 0.81643 0.0
C185 C 0.02877 0.57634 0.78902 0.0
H186 H 0.98774 0.55428 0.83179 0.0
H187 H 0.04345 0.55245 0.74792 0.0
C188 C 0.98063 0.50912 0.69983 0.0
N189 N 0.00381 0.45832 0.76936 0.0
C190 C 0.00542 0.44877 0.7198 0.0
C191 C 1.00082 0.44339 0.81452 0.0
N192 N 0.00373 0.42844 0.73214 0.0
C193 C 1.00073 0.42507 0.79188 0.0
C194 C 0.982 0.50022 0.85738 0.0
O195 O 0.98937 0.52405 0.72 0.0
O196 O 0.98634 0.49128 0.7167 0.0
O197 O 0.98671 0.48423 0.8355 0.0
O198 O 0.99107 0.51673 0.83926 0.0
O199 O 0.02704 0.48092 0.83329 0.0
H200 H 0.99913 0.44566 0.86108 0.0
H201 H 0.00838 0.45663 0.6757 0.0
O202 O 0.03097 0.51372 0.83236 0.0
O203 O 0.02938 0.52069 0.71362 0.0
O204 O 0.02638 0.4879 0.71397 0.0
C205 C 0.03474 0.50457 0.69374 0.0
H206 H 0.04022 0.5881 0.78621 0.0
H207 H 0.99866 0.41043 0.81771 0.0
H208 H 0.22537 0.02722 0.5241 0.0
H209 H 0.19481 0.02495 0.58565 0.0
H210 H 0.16307 0.99899 0.44562 0.0
H211 H 0.19349 1.00142 0.38437 0.0
H212 H 0.14275 0.02929 0.48378 0.0
H213 H 0.17625 0.97038 0.57586 0.0
H214 H 0.20402 0.95199 0.62687 0.0
H215 H 0.19976 0.98793 0.77258 0.0
H216 H 0.17213 0.00673 0.72202 0.0
H217 H 0.0536 0.99208 0.62156 0.0
H218 H 0.08646 0.99503 0.57479 0.0
H219 H 0.11027 0.02061 0.72769 0.0
H220 H 0.07724 0.01745 0.77559 0.0
H221 H 0.13558 0.99327 0.68888 0.0
H222 H 0.10105 0.0509 0.60046 0.0
H223 H 0.07321 0.06943 0.55038 0.0
H224 H 0.07968 0.03669 0.39836 0.0
H225 H 0.10737 0.01773 0.44792 0.0
C226 C 0.21188 0.02079 0.50715 0.0
C227 C 0.21165 0.01436 0.44997 0.0
C228 C 0.19446 0.01948 0.5422 0.0
C229 C 0.1766 0.01173 0.5204 0.0
C230 C 0.1766 0.00505 0.46343 0.0
C231 C 0.19398 0.00633 0.42861 0.0
C232 C 0.15764 0.01131 0.55533 0.0
C233 C 0.14116 0.02122 0.52838 0.0
C234 C 0.15568 1.00141 0.61441 0.0
C235 C 0.17228 0.99012 0.64483 0.0
C236 C 0.18136 0.97449 0.61852 0.0
C237 C 0.19704 0.96396 0.64741 0.0
C238 C 0.20369 0.96883 0.70284 0.0
C239 C 0.19462 0.9842 0.72959 0.0
C240 C 0.17894 0.99479 0.70086 0.0
C241 C 0.06577 0.99833 0.6455 0.0
C242 C 0.0627 0.00464 0.70231 0.0
C243 C 0.08459 1.00007 0.6185 0.0
C244 C 0.10083 0.00832 0.64724 0.0
C245 C 0.09797 0.01426 0.70453 0.0
C246 C 0.07906 0.0125 0.73176 0.0
C247 C 0.12061 0.01086 0.61667 0.0
C248 C 0.13724 1.00144 0.64444 0.0
C249 C 0.12277 0.0213 0.55834 0.0
C250 C 0.1062 0.03278 0.52814 0.0
C251 C 0.09645 0.04754 0.55653 0.0
C252 C 0.0807 0.05814 0.52821 0.0
C253 C 0.07466 0.05421 0.47128 0.0
C254 C 0.08437 0.03971 0.44248 0.0
C255 C 0.10011 0.02904 0.47065 0.0
H256 H 0.06246 0.06244 0.44942 0.0
H257 H 0.21584 0.96066 0.72514 0.0
H258 H 0.5154 0.22425 0.48326 0.0
H259 H 0.51897 0.19174 0.54598 0.0
H260 H 0.461 0.17238 0.48953 0.0
H261 H 0.45738 0.20495 0.42783 0.0
H262 H 0.46621 0.15953 0.60509 0.0
H263 H 0.50342 0.15853 0.42239 0.0
H264 H 0.52849 0.17086 0.34554 0.0
H265 H 0.57471 0.16375 0.47732 0.0
H266 H 0.54985 0.15162 0.55514 0.0
H267 H 0.50781 0.05101 0.60749 0.0
H268 H 0.50419 0.08564 0.56042 0.0
H269 H 0.49712 0.10593 0.73434 0.0
H270 H 0.49997 0.07115 0.7816 0.0
H271 H 0.52444 0.11885 0.56247 0.0
H272 H 0.46686 0.14757 0.72266 0.0
H273 H 0.44042 0.13393 0.79346 0.0
H274 H 0.43205 0.08287 0.69585 0.0
H275 H 0.458 0.09648 0.62327 0.0
C276 C 0.50334 0.21312 0.48531 0.0
C277 C 0.48612 0.21692 0.45121 0.0
C278 C 0.5054 0.19455 0.52076 0.0
C279 C 0.49035 0.17948 0.52192 0.0
C280 C 0.47279 0.18373 0.48949 0.0
C281 C 0.47073 0.20229 0.45424 0.0
C282 C 0.49329 0.1589 0.55383 0.0
C283 C 0.479 0.15067 0.59606 0.0
C284 C 0.50978 0.14716 0.54138 0.0
C285 C 0.52476 0.15438 0.49467 0.0
C286 C 0.51891 0.15974 0.43504 0.0
C287 C 0.53308 0.16667 0.39131 0.0
C288 C 0.55317 0.16815 0.40657 0.0
C289 C 0.55914 0.16264 0.46558 0.0
C290 C 0.54502 0.15572 0.50951 0.0
C291 C 0.5055 0.06284 0.63578 0.0
C292 C 0.50405 0.05829 0.69829 0.0
C293 C 0.50348 0.08267 0.60878 0.0
C294 C 0.50012 0.09844 0.64365 0.0
C295 C 0.49927 0.09402 0.70628 0.0
C296 C 0.50099 0.07412 0.73329 0.0
C297 C 0.49739 0.1194 0.61405 0.0
C298 C 0.51173 0.12773 0.57211 0.0
C299 C 0.48071 0.13103 0.62593 0.0
C300 C 0.46456 0.12296 0.66793 0.0
C301 C 0.45927 0.13351 0.71598 0.0
C302 C 0.44434 0.1258 0.75635 0.0
C303 C 0.43457 0.10754 0.7491 0.0
C304 C 0.4396 0.09703 0.70122 0.0
C305 C 0.45441 0.10475 0.66042 0.0
H306 H 0.42309 0.10154 0.78056 0.0
H307 H 0.56412 0.17351 0.37265 0.0
H308 H 0.30529 0.47277 0.32211 0.0
H309 H 0.33281 0.47401 0.39311 0.0
H310 H 0.29846 0.51235 0.4944 0.0
H311 H 0.271 0.51127 0.42261 0.0
H312 H 0.33604 0.52664 0.47778 0.0
H313 H 0.30515 0.46249 0.54548 0.0
H314 H 0.2915 0.42839 0.53589 0.0
H315 H 0.34871 0.41022 0.47837 0.0
H316 H 0.36265 0.4443 0.48682 0.0
H317 H 0.39708 0.51943 0.7355 0.0
H318 H 0.36934 0.51717 0.66661 0.0
H319 H 0.40415 0.47993 0.56332 0.0
H320 H 0.43186 0.48172 0.6331 0.0
H321 H 0.36637 0.46498 0.58126 0.0
H322 H 0.39722 0.52902 0.51304 0.0
H323 H 0.41102 0.56305 0.52273 0.0
H324 H 0.35396 0.58137 0.58105 0.0
H325 H 0.33988 0.54734 0.57253 0.0
C326 C 0.30365 0.48133 0.35985 0.0
C327 C 0.28617 0.49186 0.36749 0.0
C328 C 0.3193 0.48199 0.40045 0.0
C329 C 0.31765 0.4931 0.44954 0.0
C330 C 0.30007 0.50366 0.45698 0.0
C331 C 0.2844 0.50299 0.41626 0.0
C332 C 0.33446 0.49413 0.49207 0.0
C333 C 0.34246 0.51316 0.50111 0.0
C334 C 0.34324 0.47653 0.52132 0.0
C335 C 0.3349 0.45601 0.51622 0.0
C336 C 0.31479 0.45127 0.5303 0.0
C337 C 0.307 0.43194 0.52517 0.0
C338 C 0.31922 0.41717 0.50638 0.0
C339 C 0.33926 0.42168 0.49283 0.0
C340 C 0.34711 0.441 0.49784 0.0
C341 C 0.39882 0.51063 0.69845 0.0
C342 C 0.41675 0.50077 0.68989 0.0
C343 C 0.38299 0.50951 0.65873 0.0
C344 C 0.38472 0.49856 0.6094 0.0
C345 C 0.4025 0.48853 0.60095 0.0
C346 C 0.4184 0.48971 0.64061 0.0
C347 C 0.36789 0.49748 0.56701 0.0
C348 C 0.35991 0.47844 0.55797 0.0
C349 C 0.35914 0.51507 0.53772 0.0
C350 C 0.36755 0.53557 0.54271 0.0
C351 C 0.38765 0.54026 0.5284 0.0
C352 C 0.39552 0.55955 0.5336 0.0
C353 C 0.38339 0.57435 0.55264 0.0
C354 C 0.36335 0.56989 0.56638 0.0
C355 C 0.35541 0.5506 0.56133 0.0
H356 H 0.3895 0.58928 0.55663 0.0
H357 H 0.31316 0.4022 0.50245 0.0
H358 H 0.01738 0.32008 0.29549 0.0
H359 H 0.01383 0.34516 0.36616 0.0
H360 H 0.0263 0.29951 0.51292 0.0
H361 H 0.02965 0.27438 0.44199 0.0
H362 H 0.99552 0.32193 0.53974 0.0
H363 H 0.06146 0.33534 0.46177 0.0
H364 H 0.08739 0.34272 0.3839 0.0
H365 H 0.05883 0.398 0.31939 0.0
H366 H 0.03255 0.39081 0.39639 0.0
H367 H 0.01326 0.38891 0.75853 0.0
H368 H 0.01672 0.36381 0.68892 0.0
H369 H 0.00268 0.40855 0.54164 0.0
H370 H 0.99888 0.43377 0.61109 0.0
H371 H 0.0345 0.38648 0.5158 0.0
H372 H 0.96841 0.37273 0.59407 0.0
H373 H 0.94285 0.36533 0.67304 0.0
H374 H 0.97221 0.31056 0.73804 0.0
H375 H 0.99812 0.31778 0.65992 0.0
C376 C 0.01936 0.31548 0.34289 0.0
C377 C 0.02379 0.29544 0.36362 0.0
C378 C 0.01743 0.3298 0.38319 0.0
C379 C 0.02003 0.32432 0.44492 0.0
C380 C 0.02426 0.30413 0.46558 0.0
C381 C 0.0262 0.2898 0.42516 0.0
C382 C 0.01811 0.3396 0.4878 0.0
C383 C 0.00426 0.33591 0.53497 0.0
C384 C 0.02917 0.35808 0.48095 0.0
C385 C 0.04492 0.36243 0.43448 0.0
C386 C 0.06061 0.34899 0.43065 0.0
C387 C 0.07538 0.35315 0.38673 0.0
C388 C 0.07472 0.37079 0.34661 0.0
C389 C 0.0593 0.38432 0.35043 0.0
C390 C 0.04447 0.38022 0.39424 0.0
C391 C 0.01063 0.39345 0.71153 0.0
C392 C 0.00567 0.41348 0.6908 0.0
C393 C 0.01269 0.37903 0.67164 0.0
C394 C 0.00979 0.38421 0.61002 0.0
C395 C 0.00502 0.40418 0.58898 0.0
C396 C 0.00291 0.41863 0.62888 0.0
C397 C 0.01189 0.36883 0.56757 0.0
C398 C 0.02577 0.3725 0.52052 0.0
C399 C 1.0009 0.35031 0.57461 0.0
C400 C 0.98531 0.3459 0.62151 0.0
C401 C 0.96951 0.35919 0.6255 0.0
C402 C 0.95494 0.35501 0.67005 0.0
C403 C 0.95593 0.33751 0.71063 0.0
C404 C 0.97148 0.32412 0.70663 0.0
C405 C 0.9861 0.32824 0.66219 0.0
H406 H 0.94464 0.3343 0.74508 0.0
H407 H 0.08618 0.37399 0.31266 0.0
H408 H 0.8173 0.03036 0.10936 0.0
H409 H 0.84653 0.02786 0.04514 0.0
H410 H 0.82451 0.97012 0.00135 0.0
H411 H 0.79536 0.97258 0.0665 0.0
H412 H 0.86294 0.96807 0.02835 0.0
H413 H 0.82335 0.01281 0.89834 0.0
H414 H 0.80298 0.0427 0.8696 0.0
H415 H 0.8527 0.08169 0.90016 0.0
H416 H 0.8733 0.05204 0.92987 0.0
H417 H 0.93561 0.99462 0.75664 0.0
H418 H 0.90216 0.99363 0.80176 0.0
H419 H 0.92821 0.99442 0.97636 0.0
H420 H 0.96154 0.99575 0.93177 0.0
H421 H 0.88541 0.02249 0.8713 0.0
H422 H 0.90026 0.96284 0.0727 0.0
H423 H 0.91958 0.93185 0.09625 0.0
H424 H 0.91652 0.92056 0.91249 0.0
H425 H 0.89743 0.95157 0.88773 0.0
C426 C 0.81863 0.01729 0.0853 0.0
C427 C 0.80414 1.00173 0.09216 0.0
C428 C 0.83529 0.01587 0.04854 0.0
C429 C 0.83768 0.99889 0.01777 0.0
C430 C 0.82301 0.98338 0.02444 0.0
C431 C 0.80634 0.98482 0.06131 0.0
C432 C 0.85588 0.997 0.98075 0.0
C433 C 0.86774 0.97995 0.99385 0.0
C434 C 0.86213 0.01231 0.93494 0.0
C435 C 0.84982 0.03018 0.91673 0.0
C436 C 0.8299 0.02776 0.89931 0.0
C437 C 0.81832 0.04466 0.88278 0.0
C438 C 0.82653 0.06408 0.88315 0.0
C439 C 0.84636 0.06664 0.89991 0.0
C440 C 0.858 0.04979 0.91652 0.0
C441 C 0.93419 0.99449 0.80467 0.0
C442 C 0.95123 0.99533 0.84059 0.0
C443 C 0.91508 0.99399 0.83032 0.0
C444 C 0.9127 0.99388 0.89243 0.0
C445 C 0.92969 0.99436 0.9284 0.0
C446 C 0.94874 0.9952 0.90277 0.0
C447 C 0.89254 0.99385 0.92005 0.0
C448 C 0.88041 0.01056 0.90543 0.0
C449 C 0.88591 0.97815 0.96385 0.0
C450 C 0.89755 0.95959 0.97836 0.0
C451 C 0.90375 0.95375 0.03734 0.0
C452 C 0.91474 0.93623 0.05083 0.0
C453 C 0.91943 0.92433 0.00577 0.0
C454 C 0.91312 0.92992 0.94716 0.0
C455 C 0.90229 0.94751 0.93334 0.0
H456 H 0.92788 0.91074 0.0163 0.0
H457 H 0.81754 0.07715 0.87037 0.0
H458 H 0.49648 0.78459 0.10273 0.0
H459 H 0.49334 0.81678 0.03849 0.0
H460 H 0.5574 0.82391 0.03189 0.0
H461 H 0.56043 0.79184 0.09682 0.0
H462 H 0.54124 0.85755 0.05686 0.0
H463 H 0.53095 0.81277 0.90919 0.0
H464 H 0.51589 0.78408 0.86426 0.0
H465 H 0.45865 0.81153 0.86449 0.0
H466 H 0.47331 0.84026 0.91023 0.0
H467 H 0.52083 0.93088 0.76868 0.0
H468 H 0.52539 0.89658 0.81791 0.0
H469 H 0.50265 0.91429 0.9831 0.0
H470 H 0.49831 0.94865 0.93458 0.0
H471 H 0.50084 0.86776 0.87194 0.0
H472 H 0.52816 0.89045 0.09966 0.0
H473 H 0.54601 0.91882 0.13876 0.0
H474 H 0.57446 0.93474 0.96797 0.0
H475 H 0.55702 0.90629 0.92813 0.0
C476 C 0.50983 0.79294 0.08658 0.0
C477 C 0.52868 0.78586 0.10393 0.0
C478 C 0.50806 0.81128 0.0499 0.0
C479 C 0.52515 0.82275 0.02997 0.0
C480 C 0.54402 0.81535 0.04665 0.0
C481 C 0.54576 0.79703 0.08334 0.0
C482 C 0.5233 0.84294 0.9946 0.0
C483 C 0.53243 0.85974 0.01638 0.0
C484 C 0.5121 0.84583 0.94117 0.0
C485 C 0.50321 0.82858 0.91365 0.0
C486 C 0.51512 0.81261 0.90012 0.0
C487 C 0.50666 0.79635 0.87442 0.0
C488 C 0.48632 0.79596 0.86166 0.0
C489 C 0.4744 0.81185 0.87446 0.0
C490 C 0.48278 0.82813 0.90022 0.0
C491 C 0.51671 0.92746 0.81544 0.0
C492 C 0.50932 0.94257 0.84778 0.0
C493 C 0.51928 0.90782 0.84346 0.0
C494 C 0.51461 0.9029 0.90439 0.0
C495 C 0.50668 0.9178 0.93629 0.0
C496 C 0.50413 0.93744 0.90838 0.0
C497 C 0.51842 0.88235 0.93501 0.0
C498 C 0.50966 0.86551 0.9124 0.0
C499 C 0.53033 0.87935 0.98699 0.0
C500 C 0.54112 0.89634 0.01079 0.0
C501 C 0.53829 0.89995 0.07054 0.0
C502 C 0.54833 0.91605 0.09281 0.0
C503 C 0.56132 0.92861 0.05582 0.0
C504 C 0.56435 0.92504 0.99652 0.0
C505 C 0.55437 0.90894 0.97405 0.0
H506 H 0.56906 0.94108 0.07313 0.0
H507 H 0.4798 0.78336 0.84175 0.0
H508 H 0.74978 0.5123 0.10856 0.0
H509 H 0.72212 0.5109 0.03754 0.0
H510 H 0.68027 0.5037 0.18504 0.0
H511 H 0.70789 0.50482 0.25565 0.0
H512 H 0.6712 0.47809 0.10627 0.0
H513 H 0.68708 0.54918 0.09682 0.0
H514 H 0.70899 0.57954 0.08213 0.0
H515 H 0.72164 0.56796 0.9022 0.0
H516 H 0.69999 0.53736 0.9161 0.0
H517 H 0.58184 0.49747 0.9458 0.0
H518 H 0.60989 0.49942 0.01349 0.0
H519 H 0.65017 0.50911 0.86259 0.0
H520 H 0.62217 0.50823 0.79449 0.0
H521 H 0.66053 0.53309 0.94171 0.0
H522 H 0.6445 0.46227 0.95016 0.0
H523 H 0.62264 0.43186 0.96433 0.0
H524 H 0.61056 0.44261 0.14533 0.0
H525 H 0.63214 0.47325 0.13199 0.0
C526 C 0.73464 0.51041 0.12546 0.0
C527 C 0.73079 0.50869 0.18714 0.0
C528 C 0.71887 0.50969 0.08503 0.0
C529 C 0.69905 0.50738 0.10588 0.0
C530 C 0.69537 0.50548 0.16783 0.0
C531 C 0.71111 0.50618 0.20808 0.0
C532 C 0.6821 0.50686 0.06354 0.0
C533 C 0.66875 0.49023 0.07071 0.0
C534 C 0.67911 0.52245 0.0162 0.0
C535 C 0.69208 0.54087 0.00772 0.0
C536 C 0.69465 0.55302 0.05428 0.0
C537 C 0.70701 0.57029 0.04607 0.0
C538 C 0.71675 0.57564 0.99132 0.0
C539 C 0.71411 0.56377 0.94461 0.0
C540 C 0.70179 0.54648 0.95262 0.0
C541 C 0.59659 0.50025 0.92672 0.0
C542 C 0.59959 0.50255 0.86426 0.0
C543 C 0.61271 0.50113 0.96571 0.0
C544 C 0.63225 0.50405 0.94331 0.0
C545 C 0.63527 0.50672 0.8811 0.0
C546 C 0.61917 0.506 0.84208 0.0
C547 C 0.64956 0.50434 0.98453 0.0
C548 C 0.663 0.52091 0.97716 0.0
C549 C 0.65266 0.48866 0.0316 0.0
C550 C 0.63979 0.47016 0.03988 0.0
C551 C 0.63708 0.45822 0.99286 0.0
C552 C 0.62475 0.44094 0.00076 0.0
C553 C 0.61518 0.43534 0.05564 0.0
C554 C 0.61796 0.44698 0.10281 0.0
C555 C 0.63026 0.4643 0.09513 0.0
H556 H 0.60563 0.42195 0.06166 0.0
H557 H 0.7263 0.58902 0.98505 0.0
H558 H 1.00148 0.7067 0.18323 0.0
H559 H 0.00616 0.68297 0.10918 0.0
H560 H 0.94302 0.68305 0.07387 0.0
H561 H 0.93837 0.70663 0.14894 0.0
H562 H 0.95669 0.64521 0.08242 0.0
H563 H 0.97554 0.70849 0.97406 0.0
H564 H 0.99317 0.74148 0.95565 0.0
H565 H 0.04941 0.71187 0.96463 0.0
H566 H 0.03213 0.6787 0.98402 0.0
H567 H 0.97316 0.58886 0.83319 0.0
H568 H 0.96254 0.61484 0.89473 0.0
H569 H 0.0237 0.6249 0.94401 0.0
H570 H 0.03427 0.59958 0.88157 0.0
H571 H 0.007 0.65944 0.9201 0.0
H572 H 0.98709 0.59592 0.03731 0.0
H573 H 0.96867 0.56327 0.05253 0.0
H574 H 0.91334 0.59389 0.02327 0.0
H575 H 0.93146 0.62669 0.00702 0.0
C576 C 0.98867 0.70171 0.15925 0.0
C577 C 0.96962 0.70849 0.17103 0.0
C578 C 0.99132 0.68821 0.11692 0.0
C579 C 0.97497 0.68137 0.08529 0.0
C580 C 0.95586 0.68812 0.09752 0.0
C581 C 0.95322 0.70164 0.14003 0.0
C582 C 0.97796 0.66706 0.04001 0.0
C583 C 0.96748 0.64844 0.04636 0.0
C584 C 0.99207 0.67118 0.99301 0.0
C585 C 0.00253 0.6911 0.98094 0.0
C586 C 0.99168 0.70901 0.97253 0.0
C587 C 1.0016 0.72775 0.96186 0.0
C588 C 0.0224 0.72877 0.95908 0.0
C589 C 0.0333 0.71105 0.96683 0.0
C590 C 0.02345 0.69228 0.9776 0.0
C591 C 0.98427 0.59667 0.85723 0.0
C592 C 0.00455 0.59228 0.85219 0.0
C593 C 0.9782 0.61145 0.89257 0.0
C594 C 0.99228 0.62176 0.9247 0.0
C595 C 0.01252 0.61732 0.91953 0.0
C596 C 0.01858 0.60284 0.88362 0.0
C597 C 0.98629 0.63726 0.96371 0.0
C598 C 0.99613 0.65621 0.95595 0.0
C599 C 0.97153 0.63344 0.00913 0.0
C600 C 0.96065 0.61374 0.02038 0.0
C601 C 0.971 0.59567 0.03387 0.0
C602 C 0.96062 0.57714 0.04266 0.0
C603 C 0.93985 0.57649 0.03869 0.0
C604 C 0.92942 0.5944 0.02621 0.0
C605 C 0.93974 0.61296 0.01725 0.0
H606 H 0.93183 0.56214 0.04541 0.0
H607 H 0.03005 0.74329 0.95082 0.0
H608 H 0.99392 0.21643 0.43404 0.0
H609 H 0.98619 0.19136 0.52063 0.0
H610 H 0.04184 0.16229 0.49479 0.0
H611 H 0.04946 0.18715 0.40866 0.0
H612 H 0.98057 0.15226 0.50739 0.0
H613 H 0.05771 0.13757 0.62487 0.0
H614 H 0.08582 0.1573 0.6602 0.0
H615 H 0.04815 0.20824 0.66604 0.0
H616 H 0.01971 0.18874 0.63165 0.0
H617 H 0.99555 0.04976 0.60561 0.0
H618 H 0.9955 0.08504 0.56142 0.0
H619 H 0.99907 0.10439 0.73763 0.0
H620 H 0.99977 0.0692 0.78191 0.0
H621 H 0.02506 0.12428 0.67054 0.0
H622 H 0.95608 0.11088 0.65005 0.0
H623 H 0.92584 0.0923 0.62373 0.0
H624 H 0.94335 0.10046 0.43854 0.0
H625 H 0.97384 0.11885 0.4638 0.0
C626 C 0.00477 0.20511 0.44847 0.0
C627 C 0.02226 0.20363 0.41507 0.0
C628 C 1.00031 0.19076 0.49755 0.0
C629 C 0.01345 0.17499 0.51423 0.0
C630 C 0.03161 0.17447 0.48338 0.0
C631 C 0.03594 0.18863 0.43412 0.0
C632 C 0.00719 0.15737 0.55715 0.0
C633 C 0.99012 0.14627 0.54371 0.0
C634 C 0.01941 0.14979 0.60533 0.0
C635 C 0.03658 0.16171 0.62516 0.0
C636 C 0.05538 0.15296 0.63386 0.0
C637 C 0.07139 0.16411 0.65373 0.0
C638 C 0.06878 0.18403 0.66523 0.0
C639 C 0.05016 0.19284 0.65689 0.0
C640 C 0.0341 0.18175 0.63706 0.0
C641 C 0.996 0.06154 0.63495 0.0
C642 C 0.99773 0.05671 0.69715 0.0
C643 C 0.99587 0.08171 0.6097 0.0
C644 C 0.99708 0.09741 0.64626 0.0
C645 C 0.99813 0.09256 0.70855 0.0
C646 C 0.99851 0.07243 0.73375 0.0
C647 C 0.99889 0.11879 0.61917 0.0
C648 C 0.0152 0.13049 0.63531 0.0
C649 C 0.98569 0.12714 0.5745 0.0
C650 C 0.96731 0.11617 0.55892 0.0
C651 C 0.95355 0.10861 0.60375 0.0
C652 C 0.93635 0.09812 0.58901 0.0
C653 C 0.93269 0.09518 0.52951 0.0
C654 C 0.9462 0.10276 0.48461 0.0
C655 C 0.96343 0.11325 0.4991 0.0
H656 H 0.91937 0.08705 0.5182 0.0
H657 H 0.08119 0.19262 0.68067 0.0
H658 H 0.31464 0.97048 0.4497 0.0
H659 H 0.34056 0.96492 0.52483 0.0
H660 H 0.31985 0.0155 0.60957 0.0
H661 H 0.29414 0.02143 0.53268 0.0
H662 H 0.35686 0.02143 0.57881 0.0
H663 H 0.32164 0.9661 0.68555 0.0
H664 H 0.3019 0.93429 0.70088 0.0
H665 H 0.34977 0.90276 0.62886 0.0
H666 H 0.36971 0.93443 0.61226 0.0
H667 H 0.43828 0.00997 0.78176 0.0
H668 H 0.40399 0.00794 0.7468 0.0
H669 H 0.42263 0.97191 0.61044 0.0
H670 H 0.45727 0.97425 0.64434 0.0
H671 H 0.38489 0.95853 0.68212 0.0
H672 H 0.41694 0.01502 0.56098 0.0
H673 H 0.43642 0.04697 0.54366 0.0
H674 H 0.39349 0.07608 0.64428 0.0
H675 H 0.3739 0.04417 0.66304 0.0
C676 C 0.3151 0.97985 0.48591 0.0
C677 C 0.30253 0.99644 0.48535 0.0
C678 C 0.32992 0.97665 0.52906 0.0
C679 C 0.33228 0.98984 0.57293 0.0
C680 C 0.31836 0.00517 0.57605 0.0
C681 C 0.30354 0.00843 0.53255 0.0
C682 C 0.35111 0.98979 0.60761 0.0
C683 C 0.36266 0.00774 0.60283 0.0
C684 C 0.35907 0.97185 0.63746 0.0
C685 C 0.34714 0.95271 0.64734 0.0
C686 C 0.32791 0.95243 0.67254 0.0
C687 C 0.3167 0.9344 0.68154 0.0
C688 C 0.32457 0.91653 0.66578 0.0
C689 C 0.34369 0.91662 0.64107 0.0
C690 C 0.35497 0.93461 0.63195 0.0
C691 C 0.43512 1.00148 0.7446 0.0
C692 C 0.45051 0.99234 0.71558 0.0
C693 C 0.41551 1.00032 0.7248 0.0
C694 C 0.41085 0.98975 0.67624 0.0
C695 C 0.426 0.98005 0.64825 0.0
C696 C 0.44575 0.98151 0.66737 0.0
C697 C 0.39036 0.99002 0.65238 0.0
C698 C 0.37869 0.97218 0.65911 0.0
C699 C 0.3822 0.00804 0.6244 0.0
C700 C 0.3941 0.02715 0.61407 0.0
C701 C 0.41179 0.02816 0.58008 0.0
C702 C 0.42281 0.04628 0.56981 0.0
C703 C 0.4162 0.06353 0.59286 0.0
C704 C 0.39858 0.0627 0.62644 0.0
C705 C 0.38752 0.0446 0.63692 0.0
H706 H 0.42469 0.07757 0.58454 0.0
H707 H 0.31586 0.90259 0.67278 0.0
H708 H 0.53505 0.31869 0.44896 0.0
H709 H 0.53603 0.34349 0.52071 0.0
H710 H 0.4758 0.32644 0.57581 0.0
H711 H 0.47479 0.30161 0.50348 0.0
H712 H 0.47981 0.36621 0.53496 0.0
H713 H 0.51357 0.31989 0.67578 0.0
H714 H 0.53906 0.29523 0.71066 0.0
H715 H 0.58516 0.34023 0.66676 0.0
H716 H 0.55997 0.36511 0.6308 0.0
H717 H 0.47634 0.44421 0.72099 0.0
H718 H 0.47556 0.41102 0.68574 0.0
H719 H 0.53755 0.41855 0.63481 0.0
H720 H 0.53863 0.45157 0.67264 0.0
H721 H 0.53071 0.38133 0.68364 0.0
H722 H 0.49841 0.42581 0.53075 0.0
H723 H 0.47381 0.45097 0.49215 0.0
H724 H 0.42608 0.4097 0.55353 0.0
H725 H 0.45042 0.38438 0.59315 0.0
C726 C 0.52233 0.3197 0.47813 0.0
C727 C 0.50485 0.30828 0.47086 0.0
C728 C 0.52288 0.33387 0.51912 0.0
C729 C 0.50597 0.33686 0.55357 0.0
C730 C 0.48902 0.32434 0.5497 0.0
C731 C 0.48851 0.31004 0.50885 0.0
C732 C 0.50508 0.35491 0.58622 0.0
C733 C 0.49066 0.3693 0.56855 0.0
C734 C 0.51966 0.35924 0.62843 0.0
C735 C 0.53487 0.34434 0.65021 0.0
C736 C 0.52915 0.3245 0.67312 0.0
C737 C 0.54355 0.31048 0.69318 0.0
C738 C 0.56372 0.31615 0.69084 0.0
C739 C 0.56953 0.33586 0.66854 0.0
C740 C 0.55519 0.34993 0.6484 0.0
C741 C 0.48979 0.43889 0.70187 0.0
C742 C 0.50749 0.45064 0.69867 0.0
C743 C 0.48932 0.41987 0.68177 0.0
C744 C 0.50639 0.4124 0.65657 0.0
C745 C 0.52417 0.42401 0.65398 0.0
C746 C 0.52475 0.44293 0.67515 0.0
C747 C 0.50558 0.39269 0.63181 0.0
C748 C 0.5197 0.37808 0.65071 0.0
C749 C 0.49087 0.3882 0.59005 0.0
C750 C 0.47623 0.40329 0.56543 0.0
C751 C 0.48267 0.42215 0.53629 0.0
C752 C 0.46877 0.43643 0.5142 0.0
C753 C 0.44839 0.43196 0.52055 0.0
C754 C 0.44187 0.41316 0.54874 0.0
C755 C 0.4557 0.39883 0.57096 0.0
H756 H 0.43766 0.44305 0.50351 0.0
H757 H 0.57484 0.30528 0.70638 0.0
H758 H 0.18402 0.4519 0.41504 0.0
H759 H 0.15747 0.457 0.48597 0.0
H760 H 0.17815 0.51845 0.49082 0.0
H761 H 0.20486 0.51336 0.41966 0.0
H762 H 0.15845 0.49733 0.60402 0.0
H763 H 0.1483 0.51525 0.39115 0.0
H764 H 0.15026 0.50862 0.2857 0.0
H765 H 0.11253 0.45589 0.32529 0.0
H766 H 0.11061 0.46203 0.43126 0.0
H767 H 0.0631 0.53448 0.6689 0.0
H768 H 0.09492 0.53193 0.61712 0.0
H769 H 0.07804 0.47207 0.5784 0.0
H770 H 0.04627 0.47444 0.63011 0.0
H771 H 0.09687 0.49488 0.48297 0.0
H772 H 0.1061 0.47708 0.69455 0.0
H773 H 0.10438 0.48282 0.80078 0.0
H774 H 0.14375 0.53448 0.76535 0.0
H775 H 0.14539 0.5293 0.6586 0.0
C776 C 0.18348 0.46617 0.43355 0.0
C777 C 0.1963 0.4823 0.41179 0.0
C778 C 0.1683 0.46909 0.47386 0.0
C779 C 0.16571 0.48819 0.49262 0.0
C780 C 0.17997 0.50361 0.47676 0.0
C781 C 0.19524 0.50067 0.43634 0.0
C782 C 0.14628 0.49296 0.51798 0.0
C783 C 0.145 0.49711 0.57751 0.0
C784 C 0.12877 0.49244 0.48324 0.0
C785 C 0.12945 0.48901 0.41922 0.0
C786 C 0.14051 0.50218 0.37743 0.0
C787 C 0.14159 0.49853 0.31756 0.0
C788 C 0.13155 0.48183 0.29882 0.0
C789 C 0.12032 0.46881 0.33988 0.0
C790 C 0.11921 0.47238 0.39984 0.0
C791 C 0.06599 0.52095 0.64829 0.0
C792 C 0.05224 0.50461 0.65382 0.0
C793 C 0.08423 0.51947 0.61915 0.0
C794 C 0.0889 0.50169 0.59484 0.0
C795 C 0.07472 0.48587 0.59716 0.0
C796 C 0.05659 0.48726 0.62671 0.0
C797 C 0.1089 0.49909 0.56939 0.0
C798 C 0.1103 0.49533 0.50955 0.0
C799 C 0.12644 0.49996 0.604 0.0
C800 C 0.12569 0.50294 0.66838 0.0
C801 C 0.11426 0.48977 0.70927 0.0
C802 C 0.11331 0.49291 0.7696 0.0
C803 C 0.12392 0.50903 0.78976 0.0
C804 C 0.13552 0.52202 0.74964 0.0
C805 C 0.13646 0.51899 0.68921 0.0
H806 H 0.1232 0.51141 0.83649 0.0
H807 H 0.13244 0.47901 0.25248 0.0
H808 H 0.99412 0.78444 0.11106 0.0
H809 H 0.00394 0.81034 0.02911 0.0
H810 H 0.95406 0.84617 0.07004 0.0
H811 H 0.94391 0.82017 0.15055 0.0
H812 H 0.96178 0.85145 0.95183 0.0
H813 H 0.99778 0.85301 0.13569 0.0
H814 H 0.01826 0.83848 0.22025 0.0
H815 H 0.06501 0.8276 0.09797 0.0
H816 H 0.04461 0.84181 0.01271 0.0
H817 H 0.01834 0.95176 0.93911 0.0
H818 H 0.01312 0.91748 0.98879 0.0
H819 H 0.00619 0.89535 0.81716 0.0
H820 H 0.01082 0.92972 0.76714 0.0
H821 H 0.02831 0.88085 0.99165 0.0
H822 H 0.96588 0.86058 0.8316 0.0
H823 H 0.94481 0.87832 0.75335 0.0
H824 H 0.94756 0.93172 0.84303 0.0
H825 H 0.96825 0.91414 0.92223 0.0
C826 C 0.98485 0.79749 0.10105 0.0
C827 C 0.96842 0.80045 0.13763 0.0
C828 C 0.99055 0.81234 0.05455 0.0
C829 C 0.97995 0.83035 0.04427 0.0
C830 C 0.9625 0.83244 0.07722 0.0
C831 C 0.95678 0.81762 0.12347 0.0
C832 C 0.98828 0.84809 0.00544 0.0
C833 C 0.97644 0.85773 0.95987 0.0
C834 C 0.00719 0.85657 0.01698 0.0
C835 C 0.0196 0.84821 0.06796 0.0
C836 C 0.01237 0.84737 0.12696 0.0
C837 C 0.02396 0.83922 0.17495 0.0
C838 C 0.04291 0.83206 0.16447 0.0
C839 C 0.05031 0.83311 0.10599 0.0
C840 C 0.03874 0.84121 0.05783 0.0
C841 C 0.01614 0.93955 0.91186 0.0
C842 C 0.01465 0.94347 0.84932 0.0
C843 C 0.01322 0.91993 0.94032 0.0
C844 C 0.00887 0.90394 0.90671 0.0
C845 C 0.00916 0.90754 0.84396 0.0
C846 C 0.01183 0.92719 0.81549 0.0
C847 C 1.00189 0.88417 0.93771 0.0
C848 C 0.01391 0.87427 0.98226 0.0
C849 C 0.98283 0.87586 0.92653 0.0
C850 C 0.96904 0.88615 0.88194 0.0
C851 C 0.96191 0.87607 0.83461 0.0
C852 C 0.95001 0.88609 0.79019 0.0
C853 C 0.94496 0.90618 0.79302 0.0
C854 C 0.95157 0.91619 0.8407 0.0
C855 C 0.96335 0.90618 0.88544 0.0
H856 H 0.93586 0.91396 0.75839 0.0
H857 H 0.05188 0.82575 0.20167 0.0
H858 H 0.71753 0.02739 0.03191 0.0
H859 H 0.68936 0.03089 0.96254 0.0
H860 H 0.67607 0.96709 0.00061 0.0
H861 H 0.70402 0.96365 0.07024 0.0
H862 H 0.67192 0.01336 0.86369 0.0
H863 H 0.62777 0.96303 0.0456 0.0
H864 H 0.62937 0.95163 0.15389 0.0
H865 H 0.66148 0.00604 0.18225 0.0
H866 H 0.65996 0.01783 0.07417 0.0
H867 H 0.57456 0.9906 0.76319 0.0
H868 H 0.60848 0.99074 0.80117 0.0
H869 H 0.58991 0.02553 0.94095 0.0
H870 H 0.55562 0.02461 0.90463 0.0
H871 H 0.61104 0.99661 0.98703 0.0
H872 H 0.61972 0.04538 0.81347 0.0
H873 H 0.61763 0.05813 0.70627 0.0
H874 H 0.65557 0.01092 0.6624 0.0
H875 H 0.65766 0.9977 0.7693 0.0
C876 C 0.70923 0.01398 0.02288 0.0
C877 C 0.71286 0.99526 0.05608 0.0
C878 C 0.69307 0.016 0.98363 0.0
C879 C 0.68043 0.99932 0.97753 0.0
C880 C 0.68554 0.98017 0.00525 0.0
C881 C 0.70159 0.97817 0.04454 0.0
C882 C 0.66039 0.00238 0.95111 0.0
C883 C 0.65856 0.0097 0.89038 0.0
C884 C 0.64302 0.99802 0.98652 0.0
C885 C 0.64393 0.99119 0.0517 0.0
C886 C 0.63514 0.97257 0.07497 0.0
C887 C 0.63605 0.96604 0.13627 0.0
C888 C 0.64561 0.97807 0.17483 0.0
C889 C 0.65416 0.99671 0.15224 0.0
C890 C 0.65334 0.00329 0.09093 0.0
C891 C 0.57771 0.99846 0.80171 0.0
C892 C 0.5624 0.00758 0.83102 0.0
C893 C 0.5972 0.99865 0.82313 0.0
C894 C 0.6019 0.0084 0.87344 0.0
C895 C 0.58668 0.01792 0.90199 0.0
C896 C 0.56709 0.01742 0.8812 0.0
C897 C 0.62232 0.00741 0.89892 0.0
C898 C 0.62428 1.0004 0.95988 0.0
C899 C 0.63972 0.01234 0.86371 0.0
C900 C 0.63872 0.02046 0.79944 0.0
C901 C 0.62752 0.03765 0.78096 0.0
C902 C 0.62635 0.04496 0.72023 0.0
C903 C 0.63642 0.03531 0.67755 0.0
C904 C 0.64776 0.01837 0.69552 0.0
C905 C 0.64896 0.01097 0.75619 0.0
H906 H 0.63546 0.04097 0.63056 0.0
H907 H 0.64635 0.97293 0.22219 0.0
H908 H 0.54243 0.69534 0.06241 0.0
H909 H 0.53912 0.66978 0.99326 0.0
H910 H 0.47576 0.66554 0.02749 0.0
H911 H 0.47932 0.69052 0.09853 0.0
H912 H 0.49072 0.63051 0.05062 0.0
H913 H 0.49677 0.68172 0.88438 0.0
H914 H 0.51132 0.71152 0.8228 0.0
H915 H 0.56556 0.67985 0.8041 0.0
H916 H 0.55146 0.64995 0.86631 0.0
H917 H 0.47505 0.55334 0.86281 0.0
H918 H 0.47453 0.5862 0.90064 0.0
H919 H 0.53875 0.58909 0.89808 0.0
H920 H 0.53946 0.55619 0.85994 0.0
H921 H 0.52129 0.62569 0.85192 0.0
H922 H 0.516 0.57619 0.0265 0.0
H923 H 0.50136 0.54639 0.08792 0.0
H924 H 0.44507 0.5757 0.08958 0.0
H925 H 0.45933 0.60558 0.02744 0.0
C926 C 0.52771 0.68956 0.053 0.0
C927 C 0.51109 0.69492 0.08511 0.0
C928 C 0.5258 0.67492 0.01355 0.0
C929 C 0.50717 0.66567 0.00504 0.0
C930 C 0.49029 0.67239 0.0334 0.0
C931 C 0.49226 0.68678 0.07349 0.0
C932 C 0.50578 0.64705 0.9746 0.0
C933 C 0.49701 0.62968 0.00651 0.0
C934 C 0.51454 0.64566 0.91788 0.0
C935 C 0.5231 0.66363 0.88047 0.0
C936 C 0.51187 0.68116 0.86757 0.0
C937 C 0.52002 0.69806 0.83246 0.0
C938 C 0.53937 0.69759 0.80966 0.0
C939 C 0.55058 0.6802 0.82182 0.0
C940 C 0.5425 0.66326 0.85695 0.0
C941 C 0.48909 0.56089 0.87054 0.0
C942 C 0.50731 0.55203 0.85897 0.0
C943 C 0.48874 0.5797 0.89196 0.0
C944 C 0.5066 0.59002 0.90233 0.0
C945 C 0.52481 0.58137 0.89018 0.0
C946 C 0.52518 0.5625 0.86896 0.0
C947 C 0.50625 0.60946 0.9281 0.0
C948 C 0.51478 0.62681 0.89558 0.0
C949 C 0.49723 0.61094 0.98423 0.0
C950 C 0.48867 0.59302 0.02179 0.0
C951 C 0.50046 0.57621 0.03955 0.0
C952 C 0.49224 0.55932 0.07457 0.0
C953 C 0.47228 0.55913 0.09249 0.0
C954 C 0.46052 0.57585 0.07558 0.0
C955 C 0.46866 0.59277 0.0405 0.0
H956 H 0.46594 0.54604 0.11961 0.0
H957 H 0.54565 0.71069 0.78247 0.0
H958 H 0.83693 0.55132 0.15746 0.0
H959 H 0.86295 0.54671 0.08501 0.0
H960 H 0.83723 0.48845 0.05961 0.0
H961 H 0.81146 0.49278 0.1343 0.0
H962 H 0.87477 0.48487 0.08877 0.0
H963 H 0.84022 0.529 0.94353 0.0
H964 H 0.82246 0.5596 0.90346 0.0
H965 H 0.87422 0.59622 0.93134 0.0
H966 H 0.89221 0.56587 0.97229 0.0
H967 H 0.95302 0.47085 0.88067 0.0
H968 H 0.92123 0.4738 0.93185 0.0
H969 H 0.93926 0.533 0.97398 0.0
H970 H 0.97085 0.53035 0.92182 0.0
H971 H 0.9033 0.534 0.92657 0.0
H972 H 0.9363 0.49127 0.08158 0.0
H973 H 0.95452 0.46128 0.12425 0.0
H974 H 0.90602 0.42275 0.08026 0.0
H975 H 0.8876 0.45252 0.03661 0.0
C976 C 0.83647 0.53781 0.135 0.0
C977 C 0.8223 0.52234 0.15178 0.0
C978 C 0.85131 0.53521 0.0933 0.0
C979 C 0.8521 0.51721 0.06673 0.0
C980 C 0.83694 0.50244 0.07965 0.0
C981 C 0.82209 0.50501 0.12178 0.0
C982 C 0.87014 0.51284 0.03245 0.0
C983 C 0.88075 0.49539 0.05225 0.0
C984 C 0.87831 0.52684 0.9861 0.0
C985 C 0.86752 0.54514 0.96133 0.0
C986 C 0.84777 0.54358 0.94151 0.0
C987 C 0.83767 0.56089 0.91855 0.0
C988 C 0.84719 0.57984 0.91493 0.0
C989 C 0.86686 0.58153 0.93415 0.0
C990 C 0.87703 0.56428 0.95714 0.0
C991 C 0.95038 0.48432 0.90189 0.0
C992 C 0.96443 0.50039 0.89708 0.0
C993 C 0.93218 0.486 0.93107 0.0
C994 C 0.92784 0.50364 0.95669 0.0
C995 C 0.94222 0.51932 0.95413 0.0
C996 C 0.96033 0.51773 0.92461 0.0
C997 C 0.90799 0.50625 0.98365 0.0
C998 C 0.89712 0.52336 0.96245 0.0
C999 C 0.89963 0.49201 0.02894 0.0
C1000 C 0.91067 0.47411 0.05522 0.0
C1001 C 0.92959 0.47639 0.08055 0.0
C1002 C 0.93994 0.45944 0.105 0.0
C1003 C 0.93146 0.44012 0.1048 0.0
C1004 C 0.91258 0.43772 0.08029 0.0
C1005 C 0.90218 0.45463 0.05573 0.0
H1006 H 0.93949 0.42701 0.12375 0.0
H1007 H 0.83934 0.59322 0.89715 0.0
H1008 H 0.99867 0.18664 0.22453 0.0
H1009 H 1.0013 0.16057 0.15739 0.0
H1010 H 0.05739 0.18679 0.08996 0.0
H1011 H 0.05478 0.21314 0.15774 0.0
H1012 H 0.02901 0.16802 0.00109 0.0
H1013 H 0.06356 0.15341 0.18932 0.0
H1014 H 0.06564 0.15244 0.29905 0.0
H1015 H 0.01533 0.11132 0.32017 0.0
H1016 H 0.01269 0.11238 0.21045 0.0
H1017 H 0.05066 0.07142 0.90187 0.0
H1018 H 0.05359 0.10436 0.94034 0.0
H1019 H 0.0098 0.08446 0.07682 0.0
H1020 H 0.00742 0.05163 0.03986 0.0
H1021 H 0.03792 0.10233 0.12568 0.0
H1022 H 1.00056 0.11844 0.94305 0.0
H1023 H 0.99459 0.12118 0.83433 0.0
H1024 H 0.04673 0.15941 0.80215 0.0
H1025 H 0.05312 0.15674 0.91084 0.0
C1026 C 0.01129 0.18719 0.19419 0.0
C1027 C 0.02662 0.20175 0.19661 0.0
C1028 C 0.01276 0.17233 0.1558 0.0
C1029 C 0.02963 0.17164 0.11921 0.0
C1030 C 0.04422 0.18713 0.11776 0.0
C1031 C 0.04273 0.20213 0.15638 0.0
C1032 C 0.03304 0.15313 0.09022 0.0
C1033 C 0.03136 0.15366 0.02791 0.0
C1034 C 0.03578 0.13442 0.12555 0.0
C1035 C 0.03786 0.13308 0.19163 0.0
C1036 C 0.05289 0.14424 0.21735 0.0
C1037 C 0.05416 0.14368 0.27954 0.0
C1038 C 0.04061 0.13185 0.31656 0.0
C1039 C 0.02581 0.12048 0.29144 0.0
C1040 C 0.02443 0.12104 0.22924 0.0
C1041 C 0.04172 0.07417 0.94009 0.0
C1042 C 0.02898 0.05888 0.96825 0.0
C1043 C 0.0433 0.09302 0.96188 0.0
C1044 C 0.03181 0.09706 0.01139 0.0
C1045 C 0.01898 0.08177 0.03897 0.0
C1046 C 0.01766 0.06293 0.01792 0.0
C1047 C 0.03322 0.11686 0.03611 0.0
C1048 C 0.0359 0.11662 0.09813 0.0
C1049 C 0.03117 0.13572 0.00035 0.0
C1050 C 0.02745 0.13718 0.93503 0.0
C1051 C 0.01086 0.12728 0.91278 0.0
C1052 C 0.00738 0.12885 0.85116 0.0
C1053 C 0.02031 0.1404 0.81135 0.0
C1054 C 0.03675 0.15043 0.83307 0.0
C1055 C 0.0403 0.14891 0.89467 0.0
H1056 H 0.01755 0.14168 0.76371 0.0
H1057 H 0.04158 0.13148 0.3647 0.0
H1058 H 0.33195 0.03756 0.32306 0.0
H1059 H 0.35717 0.04169 0.24441 0.0
H1060 H 0.31756 0.01318 0.12736 0.0
H1061 H 0.29228 0.0084 0.20757 0.0
H1062 H 0.35292 0.99678 0.12757 0.0
H1063 H 0.331 0.0642 0.09886 0.0
H1064 H 0.32076 0.09713 0.12682 0.0
H1065 H 0.37885 0.10693 0.19859 0.0
H1066 H 0.38938 0.07392 0.17187 0.0
H1067 H 0.43032 0.01225 0.90742 0.0
H1068 H 0.39806 0.01586 0.95537 0.0
H1069 H 0.42767 0.03755 0.10596 0.0
H1070 H 0.46001 0.03425 0.0578 0.0
H1071 H 0.39373 0.05915 0.07195 0.0
H1072 H 0.41301 0.98914 0.11324 0.0
H1073 H 0.42295 0.95617 0.0847 0.0
H1074 H 0.3687 0.95187 0.98602 0.0
H1075 H 0.35857 0.98497 0.01336 0.0
C1076 C 0.32849 0.03237 0.28032 0.0
C1077 C 0.3102 0.0225 0.27162 0.0
C1078 C 0.34288 0.03493 0.23507 0.0
C1079 C 0.33927 0.02793 0.17954 0.0
C1080 C 0.32068 0.01877 0.16976 0.0
C1081 C 0.3062 0.01617 0.21535 0.0
C1082 C 0.35568 0.0287 0.13446 0.0
C1083 C 0.36151 0.01056 0.11419 0.0
C1084 C 0.36716 0.04657 0.11759 0.0
C1085 C 0.36095 0.06651 0.13359 0.0
C1086 C 0.34156 0.07331 0.12096 0.0
C1087 C 0.33571 0.092 0.13654 0.0
C1088 C 0.34914 0.1041 0.16452 0.0
C1089 C 0.36847 0.09754 0.17689 0.0
C1090 C 0.3744 0.07885 0.16144 0.0
C1091 C 0.42999 0.01814 0.95021 0.0
C1092 C 0.44779 0.02291 0.97892 0.0
C1093 C 0.41152 0.02005 0.97777 0.0
C1094 C 0.41046 0.0268 0.0345 0.0
C1095 C 0.42814 0.03229 0.06221 0.0
C1096 C 0.44661 0.03026 0.03487 0.0
C1097 C 0.3911 0.02721 0.06656 0.0
C1098 C 0.38481 0.04553 0.08439 0.0
C1099 C 0.37911 0.00955 0.08086 0.0
C1100 C 0.38515 0.98962 0.06473 0.0
C1101 C 0.40328 0.98124 0.08505 0.0
C1102 C 0.40894 0.96251 0.06917 0.0
C1103 C 0.3965 0.95196 0.0334 0.0
C1104 C 0.37834 0.96008 0.01361 0.0
C1105 C 0.37263 0.97881 0.0293 0.0
H1106 H 0.4009 0.93747 0.02116 0.0
H1107 H 0.34457 0.11857 0.17656 0.0
H1108 H 0.53223 0.32503 0.26336 0.0
H1109 H 0.53274 0.35343 0.18394 0.0
H1110 H 0.471 0.34124 0.14616 0.0
H1111 H 0.47057 0.31246 0.22521 0.0
H1112 H 0.49263 0.35544 0.04322 0.0
H1113 H 0.4818 0.37427 0.23993 0.0
H1114 H 0.48931 0.37468 0.34701 0.0
H1115 H 0.54586 0.40387 0.30138 0.0
H1116 H 0.53884 0.40328 0.19398 0.0
H1117 H 0.47184 0.45481 0.91192 0.0
H1118 H 0.47059 0.42415 0.98324 0.0
H1119 H 0.53303 0.43205 0.02058 0.0
H1120 H 0.53448 0.4627 0.94909 0.0
H1121 H 0.50977 0.41994 0.12314 0.0
H1122 H 0.52027 0.40101 0.92555 0.0
H1123 H 0.51241 0.40048 0.81868 0.0
H1124 H 0.45577 0.37182 0.86613 0.0
H1125 H 0.46311 0.37254 0.97329 0.0
C1126 C 0.51894 0.32809 0.23696 0.0
C1127 C 0.50132 0.31671 0.25053 0.0
C1128 C 0.51921 0.34434 0.19181 0.0
C1129 C 0.50178 0.34972 0.16013 0.0
C1130 C 0.48459 0.33739 0.17029 0.0
C1131 C 0.48436 0.32095 0.21526 0.0
C1132 C 0.50105 0.36931 0.12143 0.0
C1133 C 0.49613 0.36956 0.06077 0.0
C1134 C 0.5058 0.38774 0.14435 0.0
C1135 C 0.50986 0.38858 0.20889 0.0
C1136 C 0.49588 0.38068 0.25272 0.0
C1137 C 0.50005 0.38094 0.31348 0.0
C1138 C 0.51807 0.38926 0.33099 0.0
C1139 C 0.53192 0.3974 0.28775 0.0
C1140 C 0.52785 0.39712 0.22692 0.0
C1141 C 0.48524 0.45025 0.93607 0.0
C1142 C 0.5033 0.46114 0.92463 0.0
C1143 C 0.48451 0.43265 0.97651 0.0
C1144 C 0.50178 0.4257 0.00642 0.0
C1145 C 0.51956 0.43714 0.99767 0.0
C1146 C 0.52035 0.45464 0.95684 0.0
C1147 C 0.50155 0.40606 0.04484 0.0
C1148 C 0.50623 0.40582 0.10557 0.0
C1149 C 0.49649 0.38771 0.02197 0.0
C1150 C 0.49216 0.38701 0.95751 0.0
C1151 C 0.50606 0.39474 0.91322 0.0
C1152 C 0.50172 0.39439 0.85258 0.0
C1153 C 0.48359 0.38615 0.83565 0.0
C1154 C 0.46979 0.37822 0.87932 0.0
C1155 C 0.47404 0.37859 0.94002 0.0
H1156 H 0.48027 0.38585 0.78871 0.0
H1157 H 0.52127 0.38943 0.37806 0.0
H1158 H 0.17517 0.45119 0.23227 0.0
H1159 H 0.14883 0.45235 0.15709 0.0
H1160 H 0.17358 0.50867 0.07102 0.0
H1161 H 0.20001 0.50756 0.14635 0.0
H1162 H 0.13325 0.5102 0.10059 0.0
H1163 H 0.17609 0.46775 0.00084 0.0
H1164 H 0.19698 0.43817 0.99357 0.0
H1165 H 0.14661 0.39851 0.03923 0.0
H1166 H 0.12546 0.42785 0.04759 0.0
H1167 H 0.06633 0.52321 0.86133 0.0
H1168 H 0.09635 0.5189 0.92138 0.0
H1169 H 0.07697 0.45818 0.98739 0.0
H1170 H 0.04711 0.46216 0.92476 0.0
H1171 H 0.11521 0.45859 0.967 0.0
H1172 H 0.07269 0.49912 0.07251 0.0
H1173 H 0.05088 0.52764 0.08492 0.0
H1174 H 0.09934 0.56953 0.03648 0.0
H1175 H 0.12138 0.54126 0.02302 0.0
C1176 C 0.17524 0.46357 0.19647 0.0
C1177 C 0.18965 0.47926 0.19497 0.0
C1178 C 0.16022 0.4642 0.15352 0.0
C1179 C 0.15928 0.48058 0.10843 0.0
C1180 C 0.17409 0.49587 0.10542 0.0
C1181 C 0.18926 0.49514 0.14808 0.0
C1182 C 0.14187 0.48258 0.06787 0.0
C1183 C 0.12949 0.49912 0.07054 0.0
C1184 C 0.13656 0.46766 0.0306 0.0
C1185 C 0.14923 0.45 0.02535 0.0
C1186 C 0.1695 0.45272 0.00982 0.0
C1187 C 0.18138 0.43599 0.0054 0.0
C1188 C 0.17314 0.41647 0.01607 0.0
C1189 C 0.15298 0.41364 0.03102 0.0
C1190 C 0.14103 0.43031 0.03554 0.0
C1191 C 0.06836 0.50896 0.88891 0.0
C1192 C 0.05418 0.49312 0.88915 0.0
C1193 C 0.08556 0.50652 0.92334 0.0
C1194 C 0.08876 0.48838 0.96014 0.0
C1195 C 0.0748 0.47237 0.95964 0.0
C1196 C 0.05769 0.47467 0.92415 0.0
C1197 C 0.10659 0.48633 0.99935 0.0
C1198 C 0.119 0.46975 0.99677 0.0
C1199 C 0.11179 0.50104 0.03761 0.0
C1200 C 0.09863 0.51807 0.04625 0.0
C1201 C 0.07866 0.51442 0.06416 0.0
C1202 C 0.06626 0.53054 0.07142 0.0
C1203 C 0.07371 0.55039 0.06135 0.0
C1204 C 0.09359 0.55415 0.0442 0.0
C1205 C 0.10604 0.53808 0.03681 0.0
H1206 H 0.06408 0.56285 0.06694 0.0
H1207 H 0.18237 0.40354 0.01263 0.0
H1208 H 0.93112 0.80786 0.33731 0.0
H1209 H 0.93307 0.83433 0.40395 0.0
H1210 H 0.99304 0.81719 0.45143 0.0
H1211 H 0.99086 0.7903 0.38572 0.0
H1212 H 0.97399 0.83248 0.54488 0.0
H1213 H 0.98662 0.85093 0.3367 0.0
H1214 H 0.9791 0.85204 0.22931 0.0
H1215 H 0.92679 0.88618 0.25319 0.0
H1216 H 0.93369 0.88478 0.36133 0.0
H1217 H 1.00096 0.94816 0.49836 0.0
H1218 H 0.99561 0.91562 0.46142 0.0
H1219 H 0.95634 0.8967 0.61079 0.0
H1220 H 0.96201 0.92937 0.64871 0.0
H1221 H 0.96523 0.89842 0.42153 0.0
H1222 H 0.95822 0.84336 0.64251 0.0
H1223 H 0.97026 0.84046 0.7464 0.0
H1224 H 0.01981 0.88026 0.69198 0.0
H1225 H 0.00853 0.88274 0.58726 0.0
C1226 C 0.94436 0.8092 0.36409 0.0
C1227 C 0.9608 0.79706 0.35684 0.0
C1228 C 0.94553 0.82439 0.40181 0.0
C1229 C 0.96334 0.828 0.43178 0.0
C1230 C 0.97916 0.81468 0.4288 0.0
C1231 C 0.9779 0.79929 0.39143 0.0
C1232 C 0.96646 0.84729 0.45801 0.0
C1233 C 0.97194 0.84694 0.51826 0.0
C1234 C 0.96447 0.86615 0.42255 0.0
C1235 C 0.96056 0.86756 0.35725 0.0
C1236 C 0.97344 0.85858 0.31915 0.0
C1237 C 0.9693 0.85926 0.25812 0.0
C1238 C 0.95248 0.86917 0.23438 0.0
C1239 C 0.9398 0.87847 0.27166 0.0
C1240 C 0.94381 0.87772 0.33287 0.0
C1241 C 0.99103 0.93719 0.52316 0.0
C1242 C 0.98179 0.94146 0.5763 0.0
C1243 C 0.98803 0.9185 0.50205 0.0
C1244 C 0.97563 0.90357 0.53327 0.0
C1245 C 0.96622 0.9078 0.58625 0.0
C1246 C 0.96942 0.9265 0.60784 0.0
C1247 C 0.97248 0.88382 0.50923 0.0
C1248 C 0.96706 0.88406 0.44886 0.0
C1249 C 0.97523 0.86495 0.54425 0.0
C1250 C 0.98231 0.86349 0.60706 0.0
C1251 C 0.97173 0.85143 0.65261 0.0
C1252 C 0.97847 0.84982 0.71166 0.0
C1253 C 0.99571 0.8603 0.7259 0.0
C1254 C 0.00639 0.87224 0.68095 0.0
C1255 C 0.99986 0.8737 0.62167 0.0
H1256 H 1.00084 0.85911 0.77172 0.0
H1257 H 0.9493 0.86965 0.18709 0.0
H1258 H 0.71493 0.02014 0.30338 0.0
H1259 H 0.68711 0.01981 0.37495 0.0
H1260 H 0.66757 0.96154 0.32903 0.0
H1261 H 0.69503 0.96199 0.25745 0.0
H1262 H 0.63852 0.98807 0.31467 0.0
H1263 H 0.68711 0.96864 0.46661 0.0
H1264 H 0.71766 0.97213 0.52528 0.0
H1265 H 0.6968 0.0276 0.57991 0.0
H1266 H 0.66628 0.02466 0.52063 0.0
H1267 H 0.56115 0.95833 0.52003 0.0
H1268 H 0.59241 0.96115 0.46428 0.0
H1269 H 0.60413 0.01971 0.52159 0.0
H1270 H 0.57262 0.01721 0.57697 0.0
H1271 H 0.63724 0.99675 0.53047 0.0
H1272 H 0.58864 0.01587 0.38183 0.0
H1273 H 0.55802 0.01301 0.32302 0.0
H1274 H 0.57913 0.95874 0.26111 0.0
H1275 H 0.60973 0.96106 0.32042 0.0
C1276 C 0.70505 0.007 0.31021 0.0
C1277 C 0.70709 0.99109 0.27498 0.0
C1278 C 0.68912 0.00685 0.35089 0.0
C1279 C 0.67515 0.99069 0.35717 0.0
C1280 C 0.67805 0.97422 0.32477 0.0
C1281 C 0.69381 0.97443 0.28412 0.0
C1282 C 0.6564 0.99163 0.39216 0.0
C1283 C 0.6383 0.98963 0.36211 0.0
C1284 C 0.65602 0.99467 0.45342 0.0
C1285 C 0.67453 0.99659 0.48834 0.0
C1286 C 0.68915 0.98173 0.49044 0.0
C1287 C 0.70644 0.98358 0.52396 0.0
C1288 C 0.70922 1.00013 0.55607 0.0
C1289 C 0.69467 0.01484 0.55483 0.0
C1290 C 0.67738 0.01309 0.52124 0.0
C1291 C 0.57014 0.97197 0.52033 0.0
C1292 C 0.56412 0.98759 0.55296 0.0
C1293 C 0.58812 0.97351 0.48851 0.0
C1294 C 0.60055 0.99073 0.48821 0.0
C1295 C 0.59479 0.00627 0.52118 0.0
C1296 C 0.57673 0.00477 0.55296 0.0
C1297 C 0.61949 0.99239 0.45328 0.0
C1298 C 0.63754 0.99512 0.48306 0.0
C1299 C 0.6199 0.99006 0.39156 0.0
C1300 C 0.6014 0.98852 0.35623 0.0
C1301 C 0.58667 0.0032 0.35623 0.0
C1302 C 0.56933 1.0017 0.32269 0.0
C1303 C 0.5666 0.98567 0.28852 0.0
C1304 C 0.58124 0.97113 0.28773 0.0
C1305 C 0.59858 0.97253 0.32131 0.0
H1306 H 0.55318 0.98455 0.26252 0.0
H1307 H 0.7226 1.00151 0.58209 0.0
H1308 H 0.54865 0.68803 0.32021 0.0
H1309 H 0.54885 0.65961 0.40037 0.0
H1310 H 0.48543 0.65121 0.38139 0.0
H1311 H 0.48528 0.67929 0.3004 0.0
H1312 H 0.5011 0.6462 0.50638 0.0
H1313 H 0.51059 0.62442 0.3092 0.0
H1314 H 0.52755 0.62577 0.21136 0.0
H1315 H 0.58289 0.61119 0.2995 0.0
H1316 H 0.56629 0.61012 0.39797 0.0
H1317 H 0.48074 0.5457 0.62251 0.0
H1318 H 0.48343 0.57656 0.55263 0.0
H1319 H 0.54751 0.57395 0.55904 0.0
H1320 H 0.545 0.54296 0.629 0.0
H1321 H 0.53399 0.58576 0.44531 0.0
H1322 H 0.52548 0.6044 0.64106 0.0
H1323 H 0.51 0.60343 0.74098 0.0
H1324 H 0.45529 0.62459 0.66051 0.0
H1325 H 0.47034 0.62538 0.55999 0.0
C1326 C 0.53471 0.68046 0.33447 0.0
C1327 C 0.51694 0.68578 0.30456 0.0
C1328 C 0.53484 0.66422 0.37993 0.0
C1329 C 0.51716 0.65331 0.39649 0.0
C1330 C 0.49919 0.65951 0.36937 0.0
C1331 C 0.49911 0.67549 0.32323 0.0
C1332 C 0.51767 0.63417 0.43708 0.0
C1333 C 0.50816 0.63293 0.49302 0.0
C1334 C 0.52734 0.61706 0.42004 0.0
C1335 C 0.53726 0.61743 0.36091 0.0
C1336 C 0.52641 0.62169 0.30772 0.0
C1337 C 0.53595 0.62237 0.25215 0.0
C1338 C 0.5563 0.61862 0.24921 0.0
C1339 C 0.56714 0.61413 0.30185 0.0
C1340 C 0.55767 0.61348 0.35754 0.0
C1341 C 0.49543 0.55146 0.60836 0.0
C1342 C 0.51267 0.54193 0.63172 0.0
C1343 C 0.49692 0.56919 0.5687 0.0
C1344 C 0.51566 0.57774 0.55162 0.0
C1345 C 0.5329 0.56765 0.572 0.0
C1346 C 0.53143 0.54993 0.61192 0.0
C1347 C 0.51716 0.59763 0.51447 0.0
C1348 C 0.52706 0.59903 0.45909 0.0
C1349 C 0.50807 0.61495 0.53247 0.0
C1350 C 0.49899 0.61478 0.59289 0.0
C1351 C 0.5101 0.60871 0.64461 0.0
C1352 C 0.50141 0.60821 0.70138 0.0
C1353 C 0.48167 0.61391 0.70707 0.0
C1354 C 0.47059 0.62017 0.65601 0.0
C1355 C 0.47919 0.62066 0.59912 0.0
H1356 H 0.47497 0.6135 0.75106 0.0
H1357 H 0.56366 0.61916 0.20616 0.0
H1358 H 0.81885 0.49481 0.40945 0.0
H1359 H 0.84556 0.49512 0.48315 0.0
H1360 H 0.8607 0.55685 0.41492 0.0
H1361 H 0.83447 0.55619 0.33984 0.0
H1362 H 0.8923 0.53615 0.41774 0.0
H1363 H 0.84096 0.54245 0.56049 0.0
H1364 H 0.80937 0.53434 0.61514 0.0
H1365 H 0.83044 0.47541 0.67896 0.0
H1366 H 0.86207 0.48304 0.624 0.0
H1367 H 0.9669 0.54472 0.64252 0.0
H1368 H 0.93642 0.54961 0.5833 0.0
H1369 H 0.92354 0.48556 0.61214 0.0
H1370 H 0.95399 0.48047 0.67058 0.0
H1371 H 0.89055 0.50997 0.6334 0.0
H1372 H 0.94098 0.50391 0.48301 0.0
H1373 H 0.97259 0.51298 0.42935 0.0
H1374 H 0.95258 0.57346 0.38194 0.0
H1375 H 0.92094 0.56482 0.43612 0.0
C1376 C 0.82748 0.50862 0.41166 0.0
C1377 C 0.82461 0.5255 0.36936 0.0
C1378 C 0.84277 0.50881 0.45373 0.0
C1379 C 0.8552 0.52604 0.45484 0.0
C1380 C 0.85142 0.54335 0.41488 0.0
C1381 C 0.83636 0.54304 0.37233 0.0
C1382 C 0.87333 0.52533 0.49291 0.0
C1383 C 0.89178 0.53083 0.4652 0.0
C1384 C 0.87285 0.51796 0.5546 0.0
C1385 C 0.85383 0.51327 0.58767 0.0
C1386 C 0.8388 0.5277 0.58577 0.0
C1387 C 0.82089 0.5232 0.61689 0.0
C1388 C 0.81788 0.50436 0.65039 0.0
C1389 C 0.83279 0.48999 0.65295 0.0
C1390 C 0.85072 0.49441 0.62187 0.0
C1391 C 0.95765 0.53167 0.63587 0.0
C1392 C 0.96293 0.5122 0.661 0.0
C1393 C 0.94024 0.53449 0.60216 0.0
C1394 C 0.92773 0.51794 0.59353 0.0
C1395 C 0.93296 0.49853 0.61854 0.0
C1396 C 0.95045 0.49565 0.65153 0.0
C1397 C 0.90925 0.52074 0.55797 0.0
C1398 C 0.89086 0.51555 0.58611 0.0
C1399 C 0.90971 0.52859 0.49683 0.0
C1400 C 0.9287 0.53379 0.46423 0.0
C1401 C 0.9434 0.5192 0.46164 0.0
C1402 C 0.9613 0.52425 0.43103 0.0
C1403 C 0.96462 0.54381 0.40242 0.0
C1404 C 0.95001 0.55833 0.40423 0.0
C1405 C 0.93209 0.55336 0.43486 0.0
H1406 H 0.97848 0.54768 0.37871 0.0
H1407 H 0.80401 0.5009 0.67447 0.0
loop_
_geom_bond_atom_site_label_1
_geom_bond_atom_site_label_2
_geom_bond_distance
_geom_bond_site_symmetry_2
_ccdc_geom_bond_type
H0 C3 0.929 . S
H1 C6 0.929 . S
H2 C8 0.930 . S
C3 H0 0.929 . S
C3 C4 1.398 . S
C3 C5 1.396 . S
C4 C3 1.398 . S
C4 C8 1.407 . S
C5 C3 1.396 . S
C5 C6 1.394 . S
C6 H1 0.929 . S
C6 C5 1.394 . S
C6 C7 1.382 . S
C7 C6 1.382 . S
C7 C8 1.392 . S
C7 N9 1.420 . S
C8 H2 0.930 . S
C8 C4 1.407 . S
C8 C7 1.392 . S
N9 C7 1.420 . S
N9 C10 1.244 . S
C10 N9 1.244 . S
H11 C14 0.929 . S
H12 C17 0.929 . S
H13 C19 0.930 . S
C14 H11 0.929 . S
C14 C15 1.398 . S
C14 C16 1.396 . S
C15 C14 1.398 . S
C15 C19 1.407 . S
C16 C14 1.396 . S
C16 C17 1.394 . S
C17 H12 0.929 . S
C17 C16 1.394 . S
C17 C18 1.382 . S
C18 C17 1.382 . S
C18 C19 1.392 . S
C18 N20 1.420 . S
C19 H13 0.930 . S
C19 C15 1.407 . S
C19 C18 1.392 . S
N20 C18 1.420 . S
N20 C21 1.244 . S
C21 N20 1.244 . S
H22 C25 0.929 . S
H23 C28 0.929 1_556 S
H24 C30 0.930 . S
C25 H22 0.929 . S
C25 C26 1.393 1_565 S
C25 C27 1.396 1_565 S
C26 C25 1.393 1_545 S
C26 C30 1.412 . S
C27 C25 1.396 1_545 S
C27 C28 1.396 . S
C28 H23 0.929 1_554 S
C28 C27 1.396 . S
C28 C29 1.382 . S
C29 C28 1.382 . S
C29 C30 1.392 . S
C29 N31 1.420 . S
C30 H24 0.930 . S
C30 C26 1.412 . S
C30 C29 1.392 . S
N31 C29 1.420 . S
N31 C32 1.229 1_545 S
C32 N31 1.229 1_565 S
H33 C36 0.929 . S
H34 C39 0.929 . S
H35 C41 0.930 . S
C36 H33 0.929 . S
C36 C37 1.398 . S
C36 C38 1.396 . S
C37 C36 1.398 . S
C37 C41 1.407 . S
C38 C36 1.396 . S
C38 C39 1.394 . S
C39 H34 0.929 . S
C39 C38 1.394 . S
C39 C40 1.382 . S
C40 C39 1.382 . S
C40 C41 1.392 . S
C40 N42 1.420 . S
C41 H35 0.930 . S
C41 C37 1.407 . S
C41 C40 1.392 . S
N42 C40 1.420 . S
N42 C43 1.244 . S
C43 N42 1.244 . S
H44 C47 0.929 . S
H45 C50 0.929 . S
H46 C52 0.930 . S
C47 H44 0.929 . S
C47 C48 1.398 . S
C47 C49 1.396 . S
C48 C47 1.398 . S
C48 C52 1.407 . S
C49 C47 1.396 . S
C49 C50 1.394 . S
C50 H45 0.929 . S
C50 C49 1.394 . S
C50 C51 1.382 . S
C51 C50 1.382 . S
C51 C52 1.392 . S
C51 N53 1.420 . S
C52 H46 0.930 . S
C52 C48 1.407 . S
C52 C51 1.392 . S
N53 C51 1.420 . S
N53 C54 1.244 . S
C54 N53 1.244 . S
H55 C58 0.929 . S
H56 C61 0.929 . S
H57 C63 0.930 . S
C58 H55 0.929 . S
C58 C59 1.398 . S
C58 C60 1.396 . S
C59 C58 1.398 . S
C59 C63 1.407 . S
C60 C58 1.396 . S
C60 C61 1.394 . S
C61 H56 0.929 . S
C61 C60 1.394 . S
C61 C62 1.382 . S
C62 C61 1.382 . S
C62 C63 1.392 . S
C62 N64 1.420 . S
C63 H57 0.930 . S
C63 C59 1.407 . S
C63 C62 1.392 . S
N64 C62 1.420 . S
N64 C65 1.244 . S
C65 N64 1.244 . S
H66 C69 0.929 . S
H67 C72 0.929 . S
H68 C74 0.930 . S
C69 H66 0.929 . S
C69 C70 1.398 1_565 S
C69 C71 1.391 1_565 S
C70 C69 1.398 1_545 S
C70 C74 1.417 . S
C71 C69 1.391 1_545 S
C71 C72 1.399 . S
C72 H67 0.929 . S
C72 C71 1.399 . S
C72 C73 1.382 . S
C73 C72 1.382 . S
C73 C74 1.392 . S
C73 N75 1.420 . S
C74 H68 0.930 . S
C74 C70 1.417 . S
C74 C73 1.392 . S
N75 C73 1.420 . S
N75 C76 1.239 1_545 S
C76 N75 1.239 1_565 S
H77 C80 0.929 . S
H78 C83 0.929 . S
H79 C85 0.930 . S
C80 H77 0.929 . S
C80 C81 1.398 . S
C80 C82 1.396 . S
C81 C80 1.398 . S
C81 C85 1.407 . S
C82 C80 1.396 . S
C82 C83 1.394 . S
C83 H78 0.929 . S
C83 C82 1.394 . S
C83 C84 1.382 . S
C84 C83 1.382 . S
C84 C85 1.392 . S
C84 N86 1.420 . S
C85 H79 0.930 . S
C85 C81 1.407 . S
C85 C84 1.392 . S
N86 C84 1.420 . S
N86 C87 1.244 . S
C87 N86 1.244 . S
Co88 N93 2.057 . S
Co88 O105 2.021 . S
Co88 O108 2.062 . S
Co88 O112 2.117 1_455 S
Co88 O113 2.020 1_545 S
C89 O109 1.259 1_545 S
C89 O112 1.258 . S
Co90 N99 2.057 . S
Co90 O106 2.117 1_655 S
Co90 O107 2.019 1_665 S
Co90 O109 2.021 . S
Co90 O114 2.062 . S
C91 N93 1.316 . S
C91 N94 1.347 . S
C91 H96 0.931 . S
C92 N93 1.375 1_655 S
C92 C95 1.350 1_655 S
C92 H97 0.930 . S
N93 Co88 2.057 . S
N93 C91 1.316 . S
N93 C92 1.375 1_455 S
N94 C91 1.347 . S
N94 C95 1.373 . S
C95 C92 1.350 1_455 S
C95 N94 1.373 . S
C95 H116 0.931 1_455 S
H96 C91 0.931 . S
H97 C92 0.930 . S
C98 O105 1.259 1_565 S
C98 O106 1.258 . S
N99 Co90 2.057 . S
N99 C100 1.316 . S
N99 C101 1.375 1_655 S
C100 N99 1.316 . S
C100 N102 1.347 . S
C100 H111 0.931 . S
C101 N99 1.375 1_455 S
C101 C103 1.350 . S
C101 H110 0.930 . S
N102 C100 1.347 . S
N102 C103 1.373 1_655 S
C103 C101 1.350 . S
C103 N102 1.373 1_455 S
C103 H117 0.931 . S
C104 O107 1.257 . S
C104 O108 1.255 . S
O105 Co88 2.021 . S
O105 C98 1.259 1_545 S
O106 Co90 2.117 1_455 S
O106 C98 1.258 . S
O107 Co90 2.019 1_445 S
O107 C104 1.257 . S
O108 Co88 2.062 . S
O108 C104 1.255 . S
O109 C89 1.259 1_565 S
O109 Co90 2.021 . S
H110 C101 0.930 . S
H111 C100 0.931 . S
O112 Co88 2.117 1_655 S
O112 C89 1.258 . S
O113 Co88 2.020 1_565 S
O113 C115 1.256 . S
O114 Co90 2.062 . S
O114 C115 1.255 1_655 S
C115 O113 1.256 . S
C115 O114 1.255 1_455 S
H116 C95 0.931 1_655 S
H117 C103 0.931 . S
Co118 N123 2.057 1_545 S
Co118 O135 2.021 . S
Co118 O138 2.064 . S
Co118 O142 2.117 1_545 S
Co118 O143 2.020 . S
C119 O139 1.259 . S
C119 O142 1.258 . S
Co120 N129 2.057 1_565 S
Co120 O136 2.117 1_565 S
Co120 O137 2.020 . S
Co120 O139 2.021 . S
Co120 O144 2.062 . S
C121 N123 1.318 1_545 S
C121 N124 1.347 . S
C121 H126 0.931 . S
C122 N123 1.373 . S
C122 C125 1.350 . S
C122 H127 0.930 . S
N123 Co118 2.057 1_565 S
N123 C121 1.318 1_565 S
N123 C122 1.373 . S
N124 C121 1.347 . S
N124 C125 1.373 1_545 S
C125 C122 1.350 . S
C125 N124 1.373 1_565 S
C125 H146 0.931 1_556 S
H126 C121 0.931 . S
H127 C122 0.930 . S
C128 O135 1.259 . S
C128 O136 1.258 . S
N129 Co120 2.057 1_545 S
N129 C130 1.308 1_545 S
N129 C131 1.383 . S
C130 N129 1.308 1_565 S
C130 N132 1.347 . S
C130 H141 0.931 . S
C131 N129 1.383 . S
C131 C133 1.350 . S
C131 H140 0.930 . S
N132 C130 1.347 . S
N132 C133 1.373 1_565 S
C133 C131 1.350 . S
C133 N132 1.373 1_545 S
C133 H147 0.931 . S
C134 O137 1.256 . S
C134 O138 1.250 1_565 S
O135 Co118 2.021 . S
O135 C128 1.259 . S
O136 Co120 2.117 1_545 S
O136 C128 1.258 . S
O137 Co120 2.020 . S
O137 C134 1.256 . S
O138 Co118 2.064 . S
O138 C134 1.250 1_545 S
O139 C119 1.259 . S
O139 Co120 2.021 . S
H140 C131 0.930 . S
H141 C130 0.931 . S
O142 Co118 2.117 1_565 S
O142 C119 1.258 . S
O143 Co118 2.020 . S
O143 C145 1.256 . S
O144 Co120 2.062 . S
O144 C145 1.254 1_565 S
C145 O143 1.256 . S
C145 O144 1.254 1_545 S
H146 C125 0.931 1_554 S
H147 C133 0.931 . S
Co148 N153 2.057 . S
Co148 O165 2.021 . S
Co148 O168 2.062 . S
Co148 O172 2.117 . S
Co148 O173 2.020 . S
C149 O169 1.259 . S
C149 O172 1.258 . S
Co150 N159 2.057 . S
Co150 O166 2.117 . S
Co150 O167 2.020 . S
Co150 O169 2.021 . S
Co150 O174 2.062 . S
C151 N153 1.316 . S
C151 N154 1.347 . S
C151 H156 0.931 . S
C152 N153 1.375 . S
C152 C155 1.350 . S
C152 H157 0.930 . S
N153 Co148 2.057 . S
N153 C151 1.316 . S
N153 C152 1.375 . S
N154 C151 1.347 . S
N154 C155 1.373 . S
C155 C152 1.350 . S
C155 N154 1.373 . S
C155 H176 0.931 . S
H156 C151 0.931 . S
H157 C152 0.930 . S
C158 O165 1.259 . S
C158 O166 1.258 . S
N159 Co150 2.057 . S
N159 C160 1.316 . S
N159 C161 1.375 . S
C160 N159 1.316 . S
C160 N162 1.347 . S
C160 H171 0.931 . S
C161 N159 1.375 . S
C161 C163 1.350 . S
C161 H170 0.930 . S
N162 C160 1.347 . S
N162 C163 1.373 . S
C163 C161 1.350 . S
C163 N162 1.373 . S
C163 H177 0.931 . S
C164 O167 1.256 . S
C164 O168 1.255 . S
O165 Co148 2.021 . S
O165 C158 1.259 . S
O166 Co150 2.117 . S
O166 C158 1.258 . S
O167 Co150 2.020 . S
O167 C164 1.256 . S
O168 Co148 2.062 . S
O168 C164 1.255 . S
O169 C149 1.259 . S
O169 Co150 2.021 . S
H170 C161 0.930 . S
H171 C160 0.931 . S
O172 Co148 2.117 . S
O172 C149 1.258 . S
O173 Co148 2.020 . S
O173 C175 1.256 . S
O174 Co150 2.062 . S
O174 C175 1.255 . S
C175 O173 1.256 . S
C175 O174 1.255 . S
H176 C155 0.931 . S
H177 C163 0.931 . S
Co178 N183 2.057 . S
Co178 O195 2.021 1_455 S
Co178 O198 2.062 1_455 S
Co178 O202 2.117 . S
Co178 O203 2.020 . S
C179 O199 1.259 . S
C179 O202 1.258 . S
Co180 N189 2.057 . S
Co180 O196 2.117 1_455 S
Co180 O197 2.020 1_455 S
Co180 O199 2.021 . S
Co180 O204 2.062 . S
C181 N183 1.316 1_655 S
C181 N184 1.359 . S
C181 H186 0.931 . S
C182 N183 1.375 . S
C182 C185 1.350 . S
C182 H187 0.930 . S
N183 Co178 2.057 . S
N183 C181 1.316 1_455 S
N183 C182 1.375 . S
N184 C181 1.359 . S
N184 C185 1.330 1_655 S
C185 C182 1.350 . S
C185 N184 1.330 1_455 S
C185 H206 0.931 . S
H186 C181 0.931 . S
H187 C182 0.930 . S
C188 O195 1.259 . S
C188 O196 1.258 . S
N189 Co180 2.057 . S
N189 C190 1.316 . S
N189 C191 1.375 1_455 S
C190 N189 1.316 . S
C190 N192 1.347 . S
C190 H201 0.931 . S
C191 N189 1.375 1_655 S
C191 C193 1.350 . S
C191 H200 0.930 . S
N192 C190 1.347 . S
N192 C193 1.373 1_455 S
C193 C191 1.350 . S
C193 N192 1.373 1_655 S
C193 H207 0.931 . S
C194 O197 1.256 . S
C194 O198 1.255 . S
O195 Co178 2.021 1_655 S
O195 C188 1.259 . S
O196 Co180 2.117 1_655 S
O196 C188 1.258 . S
O197 Co180 2.020 1_655 S
O197 C194 1.256 . S
O198 Co178 2.062 1_655 S
O198 C194 1.255 . S
O199 C179 1.259 . S
O199 Co180 2.021 . S
H200 C191 0.930 . S
H201 C190 0.931 . S
O202 Co178 2.117 . S
O202 C179 1.258 . S
O203 Co178 2.020 . S
O203 C205 1.256 . S
O204 Co180 2.062 . S
O204 C205 1.255 . S
C205 O203 1.256 . S
C205 O204 1.255 . S
H206 C185 0.931 . S
H207 C193 0.931 . S
H208 C226 0.951 . S
H209 C228 0.951 . S
H210 C230 0.950 . S
H211 C231 0.950 . S
H212 C233 0.950 . S
H213 C236 0.950 . S
H214 C237 0.950 . S
H215 C239 0.950 . S
H216 C240 0.950 . S
H217 C241 0.951 . S
H218 C243 0.951 . S
H219 C245 0.950 . S
H220 C246 0.950 . S
H221 C248 0.950 . S
H222 C251 0.950 . S
H223 C252 0.950 . S
H224 C254 0.950 . S
H225 C255 0.950 1_565 S
C226 H208 0.951 . S
C226 C227 1.364 1_545 S
C226 C228 1.388 . S
C227 C226 1.364 1_565 S
C227 C231 1.386 . S
C228 H209 0.951 . S
C228 C226 1.388 . S
C228 C229 1.366 1_545 S
C229 C228 1.366 1_565 S
C229 C230 1.414 . S
C229 C232 1.499 . S
C230 H210 0.950 . S
C230 C229 1.414 . S
C230 C231 1.374 . S
C231 H211 0.950 . S
C231 C227 1.386 . S
C231 C230 1.374 . S
C232 C229 1.499 . S
C232 C233 1.373 1_565 S
C232 C234 1.389 . S
C233 H212 0.950 . S
C233 C232 1.373 1_545 S
C233 C249 1.377 . S
C234 C232 1.389 . S
C234 C235 1.524 . S
C234 C248 1.377 . S
C235 C234 1.524 . S
C235 C236 1.397 . S
C235 C240 1.363 . S
C236 H213 0.950 . S
C236 C235 1.397 . S
C236 C237 1.334 . S
C237 H214 0.950 . S
C237 C236 1.334 . S
C237 C238 1.287 . S
C238 C237 1.287 . S
C238 C239 1.524 . S
C238 H257 0.913 . S
C239 H215 0.950 . S
C239 C238 1.524 . S
C239 C240 1.415 . S
C240 H216 0.950 . S
C240 C235 1.363 . S
C240 C239 1.415 . S
C241 H217 0.951 . S
C241 C242 1.366 . S
C241 C243 1.388 . S
C242 C241 1.366 . S
C242 C246 1.385 1_565 S
C243 H218 0.951 . S
C243 C241 1.388 . S
C243 C244 1.366 . S
C244 C243 1.366 . S
C244 C245 1.414 1_565 S
C244 C247 1.499 . S
C245 H219 0.950 . S
C245 C244 1.414 1_545 S
C245 C246 1.374 . S
C246 H220 0.950 . S
C246 C242 1.385 1_545 S
C246 C245 1.374 . S
C247 C244 1.499 . S
C247 C248 1.373 . S
C247 C249 1.389 1_565 S
C248 H221 0.950 . S
C248 C234 1.377 . S
C248 C247 1.373 . S
C249 C233 1.377 . S
C249 C247 1.389 1_545 S
C249 C250 1.524 . S
C250 C249 1.524 . S
C250 C251 1.397 . S
C250 C255 1.363 . S
C251 H222 0.950 . S
C251 C250 1.397 . S
C251 C252 1.334 . S
C252 H223 0.950 . S
C252 C251 1.334 . S
C252 C253 1.287 . S
C253 C252 1.287 . S
C253 C254 1.524 . S
C253 H256 0.999 . S
C254 H224 0.950 . S
C254 C253 1.524 . S
C254 C255 1.415 . S
C255 H225 0.950 1_545 S
C255 C250 1.363 . S
C255 C254 1.415 . S
H256 C253 0.999 . S
H257 C238 0.913 . S
H258 C276 0.951 . S
H259 C278 0.951 . S
H260 C280 0.950 . S
H261 C281 0.950 . S
H262 C283 0.950 . S
H263 C286 0.950 . S
H264 C287 0.950 . S
H265 C289 0.950 . S
H266 C290 0.950 . S
H267 C291 0.951 . S
H268 C293 0.951 . S
H269 C295 0.950 . S
H270 C296 0.950 . S
H271 C298 0.950 . S
H272 C301 0.950 . S
H273 C302 0.950 . S
H274 C304 0.950 . S
H275 C305 0.950 . S
C276 H258 0.951 . S
C276 C277 1.366 . S
C276 C278 1.388 . S
C277 C276 1.366 . S
C277 C281 1.385 . S
C278 H259 0.951 . S
C278 C276 1.388 . S
C278 C279 1.366 . S
C279 C278 1.366 . S
C279 C280 1.414 . S
C279 C282 1.499 . S
C280 H260 0.950 . S
C280 C279 1.414 . S
C280 C281 1.374 . S
C281 H261 0.950 . S
C281 C277 1.385 . S
C281 C280 1.374 . S
C282 C279 1.499 . S
C282 C283 1.373 . S
C282 C284 1.389 . S
C283 H262 0.950 . S
C283 C282 1.373 . S
C283 C299 1.377 . S
C284 C282 1.389 . S
C284 C285 1.524 . S
C284 C298 1.377 . S
C285 C284 1.524 . S
C285 C286 1.397 . S
C285 C290 1.363 . S
C286 H263 0.950 . S
C286 C285 1.397 . S
C286 C287 1.334 . S
C287 H264 0.950 . S
C287 C286 1.334 . S
C287 C288 1.287 . S
C288 C287 1.287 . S
C288 C289 1.524 . S
C288 H307 0.913 . S
C289 H265 0.950 . S
C289 C288 1.524 . S
C289 C290 1.415 . S
C290 H266 0.950 . S
C290 C285 1.363 . S
C290 C289 1.415 . S
C291 H267 0.951 . S
C291 C292 1.366 . S
C291 C293 1.388 . S
C292 C291 1.366 . S
C292 C296 1.385 . S
C293 H268 0.951 . S
C293 C291 1.388 . S
C293 C294 1.366 . S
C294 C293 1.366 . S
C294 C295 1.414 . S
C294 C297 1.499 . S
C295 H269 0.950 . S
C295 C294 1.414 . S
C295 C296 1.374 . S
C296 H270 0.950 . S
C296 C292 1.385 . S
C296 C295 1.374 . S
C297 C294 1.499 . S
C297 C298 1.373 . S
C297 C299 1.389 . S
C298 H271 0.950 . S
C298 C284 1.377 . S
C298 C297 1.373 . S
C299 C283 1.377 . S
C299 C297 1.389 . S
C299 C300 1.524 . S
C300 C299 1.524 . S
C300 C301 1.397 . S
C300 C305 1.363 . S
C301 H272 0.950 . S
C301 C300 1.397 . S
C301 C302 1.334 . S
C302 H273 0.950 . S
C302 C301 1.334 . S
C302 C303 1.287 . S
C303 C302 1.287 . S
C303 C304 1.524 . S
C303 H306 0.999 . S
C304 H274 0.950 . S
C304 C303 1.524 . S
C304 C305 1.415 . S
C305 H275 0.950 . S
C305 C300 1.363 . S
C305 C304 1.415 . S
H306 C303 0.999 . S
H307 C288 0.913 . S
H308 C326 0.951 . S
H309 C328 0.951 . S
H310 C330 0.950 . S
H311 C331 0.950 . S
H312 C333 0.950 . S
H313 C336 0.950 . S
H314 C337 0.950 . S
H315 C339 0.950 . S
H316 C340 0.950 . S
H317 C341 0.951 . S
H318 C343 0.951 . S
H319 C345 0.950 . S
H320 C346 0.950 . S
H321 C348 0.950 . S
H322 C351 0.950 . S
H323 C352 0.950 . S
H324 C354 0.950 . S
H325 C355 0.950 . S
C326 H308 0.951 . S
C326 C327 1.366 . S
C326 C328 1.388 . S
C327 C326 1.366 . S
C327 C331 1.385 . S
C328 H309 0.951 . S
C328 C326 1.388 . S
C328 C329 1.366 . S
C329 C328 1.366 . S
C329 C330 1.414 . S
C329 C332 1.499 . S
C330 H310 0.950 . S
C330 C329 1.414 . S
C330 C331 1.374 . S
C331 H311 0.950 . S
C331 C327 1.385 . S
C331 C330 1.374 . S
C332 C329 1.499 . S
C332 C333 1.373 . S
C332 C334 1.389 . S
C333 H312 0.950 . S
C333 C332 1.373 . S
C333 C349 1.377 . S
C334 C332 1.389 . S
C334 C335 1.524 . S
C334 C348 1.377 . S
C335 C334 1.524 . S
C335 C336 1.397 . S
C335 C340 1.363 . S
C336 H313 0.950 . S
C336 C335 1.397 . S
C336 C337 1.334 . S
C337 H314 0.950 . S
C337 C336 1.334 . S
C337 C338 1.287 . S
C338 C337 1.287 . S
C338 C339 1.524 . S
C338 H357 0.913 . S
C339 H315 0.950 . S
C339 C338 1.524 . S
C339 C340 1.415 . S
C340 H316 0.950 . S
C340 C335 1.363 . S
C340 C339 1.415 . S
C341 H317 0.951 . S
C341 C342 1.366 . S
C341 C343 1.388 . S
C342 C341 1.366 . S
C342 C346 1.385 . S
C343 H318 0.951 . S
C343 C341 1.388 . S
C343 C344 1.366 . S
C344 C343 1.366 . S
C344 C345 1.414 . S
C344 C347 1.499 . S
C345 H319 0.950 . S
C345 C344 1.414 . S
C345 C346 1.374 . S
C346 H320 0.950 . S
C346 C342 1.385 . S
C346 C345 1.374 . S
C347 C344 1.499 . S
C347 C348 1.373 . S
C347 C349 1.389 . S
C348 H321 0.950 . S
C348 C334 1.377 . S
C348 C347 1.373 . S
C349 C333 1.377 . S
C349 C347 1.389 . S
C349 C350 1.524 . S
C350 C349 1.524 . S
C350 C351 1.397 . S
C350 C355 1.363 . S
C351 H322 0.950 . S
C351 C350 1.397 . S
C351 C352 1.334 . S
C352 H323 0.950 . S
C352 C351 1.334 . S
C352 C353 1.287 . S
C353 C352 1.287 . S
C353 C354 1.524 . S
C353 H356 0.999 . S
C354 H324 0.950 . S
C354 C353 1.524 . S
C354 C355 1.415 . S
C355 H325 0.950 . S
C355 C350 1.363 . S
C355 C354 1.415 . S
H356 C353 0.999 . S
H357 C338 0.913 . S
H358 C376 0.951 . S
H359 C378 0.951 . S
H360 C380 0.950 . S
H361 C381 0.950 . S
H362 C383 0.950 . S
H363 C386 0.950 . S
H364 C387 0.950 . S
H365 C389 0.950 . S
H366 C390 0.950 . S
H367 C391 0.951 . S
H368 C393 0.951 . S
H369 C395 0.950 . S
H370 C396 0.950 . S
H371 C398 0.950 . S
H372 C401 0.950 . S
H373 C402 0.950 . S
H374 C404 0.950 . S
H375 C405 0.950 . S
C376 H358 0.951 . S
C376 C377 1.366 . S
C376 C378 1.388 . S
C377 C376 1.366 . S
C377 C381 1.385 . S
C378 H359 0.951 . S
C378 C376 1.388 . S
C378 C379 1.366 . S
C379 C378 1.366 . S
C379 C380 1.414 . S
C379 C382 1.499 . S
C380 H360 0.950 . S
C380 C379 1.414 . S
C380 C381 1.374 . S
C381 H361 0.950 . S
C381 C377 1.385 . S
C381 C380 1.374 . S
C382 C379 1.499 . S
C382 C383 1.373 . S
C382 C384 1.389 . S
C383 H362 0.950 . S
C383 C382 1.373 . S
C383 C399 1.377 . S
C384 C382 1.389 . S
C384 C385 1.524 . S
C384 C398 1.377 . S
C385 C384 1.524 . S
C385 C386 1.397 . S
C385 C390 1.363 . S
C386 H363 0.950 . S
C386 C385 1.397 . S
C386 C387 1.334 . S
C387 H364 0.950 . S
C387 C386 1.334 . S
C387 C388 1.287 . S
C388 C387 1.287 . S
C388 C389 1.524 . S
C388 H407 0.913 . S
C389 H365 0.950 . S
C389 C388 1.524 . S
C389 C390 1.415 . S
C390 H366 0.950 . S
C390 C385 1.363 . S
C390 C389 1.415 . S
C391 H367 0.951 . S
C391 C392 1.366 . S
C391 C393 1.388 . S
C392 C391 1.366 . S
C392 C396 1.385 . S
C393 H368 0.951 . S
C393 C391 1.388 . S
C393 C394 1.366 . S
C394 C393 1.366 . S
C394 C395 1.414 . S
C394 C397 1.499 . S
C395 H369 0.950 . S
C395 C394 1.414 . S
C395 C396 1.374 . S
C396 H370 0.950 . S
C396 C392 1.385 . S
C396 C395 1.374 . S
C397 C394 1.499 . S
C397 C398 1.373 . S
C397 C399 1.389 . S
C398 H371 0.950 . S
C398 C384 1.377 . S
C398 C397 1.373 . S
C399 C383 1.377 . S
C399 C397 1.389 . S
C399 C400 1.524 . S
C400 C399 1.524 . S
C400 C401 1.397 1_455 S
C400 C405 1.363 . S
C401 H372 0.950 . S
C401 C400 1.397 1_655 S
C401 C402 1.334 . S
C402 H373 0.950 . S
C402 C401 1.334 . S
C402 C403 1.287 . S
C403 C402 1.287 . S
C403 C404 1.524 . S
C403 H406 0.999 . S
C404 H374 0.950 . S
C404 C403 1.524 . S
C404 C405 1.415 1_655 S
C405 H375 0.950 . S
C405 C400 1.363 . S
C405 C404 1.415 1_455 S
H406 C403 0.999 . S
H407 C388 0.913 . S
H408 C426 0.951 . S
H409 C428 0.951 . S
H410 C430 0.950 . S
H411 C431 0.950 . S
H412 C433 0.950 . S
H413 C436 0.950 . S
H414 C437 0.950 . S
H415 C439 0.950 . S
H416 C440 0.950 . S
H417 C441 0.951 . S
H418 C443 0.951 . S
H419 C445 0.950 . S
H420 C446 0.950 . S
H421 C448 0.950 . S
H422 C451 0.950 . S
H423 C452 0.950 . S
H424 C454 0.950 . S
H425 C455 0.950 . S
C426 H408 0.951 . S
C426 C427 1.374 . S
C426 C428 1.388 . S
C427 C426 1.374 . S
C427 C431 1.376 1_544 S
C428 H409 0.951 . S
C428 C426 1.388 . S
C428 C429 1.366 1_554 S
C429 C428 1.366 1_556 S
C429 C430 1.414 1_545 S
C429 C432 1.499 . S
C430 H410 0.950 . S
C430 C429 1.414 1_565 S
C430 C431 1.374 . S
C431 H411 0.950 . S
C431 C427 1.376 1_566 S
C431 C430 1.374 . S
C432 C429 1.499 . S
C432 C433 1.373 1_545 S
C432 C434 1.389 . S
C433 H412 0.950 . S
C433 C432 1.373 1_565 S
C433 C449 1.377 . S
C434 C432 1.389 . S
C434 C435 1.524 . S
C434 C448 1.377 . S
C435 C434 1.524 . S
C435 C436 1.397 . S
C435 C440 1.363 . S
C436 H413 0.950 . S
C436 C435 1.397 . S
C436 C437 1.334 . S
C437 H414 0.950 . S
C437 C436 1.334 . S
C437 C438 1.287 . S
C438 C437 1.287 . S
C438 C439 1.524 . S
C438 H457 0.913 . S
C439 H415 0.950 . S
C439 C438 1.524 . S
C439 C440 1.415 . S
C440 H416 0.950 . S
C440 C435 1.363 . S
C440 C439 1.415 . S
C441 H417 0.951 . S
C441 C442 1.366 1_565 S
C441 C443 1.388 . S
C442 C441 1.366 1_545 S
C442 C446 1.385 . S
C443 H418 0.951 . S
C443 C441 1.388 . S
C443 C444 1.366 1_565 S
C444 C443 1.366 1_545 S
C444 C445 1.414 . S
C444 C447 1.499 . S
C445 H419 0.950 . S
C445 C444 1.414 . S
C445 C446 1.374 . S
C446 H420 0.950 . S
C446 C442 1.385 . S
C446 C445 1.374 . S
C447 C444 1.499 . S
C447 C448 1.373 . S
C447 C449 1.389 1_545 S
C448 H421 0.950 . S
C448 C434 1.377 . S
C448 C447 1.373 . S
C449 C433 1.377 . S
C449 C447 1.389 1_565 S
C449 C450 1.524 . S
C450 C449 1.524 . S
C450 C451 1.397 . S
C450 C455 1.363 . S
C451 H422 0.950 . S
C451 C450 1.397 . S
C451 C452 1.334 . S
C452 H423 0.950 . S
C452 C451 1.334 . S
C452 C453 1.287 . S
C453 C452 1.287 . S
C453 C454 1.524 . S
C453 H456 0.999 . S
C454 H424 0.950 . S
C454 C453 1.524 . S
C454 C455 1.415 . S
C455 H425 0.950 . S
C455 C450 1.363 . S
C455 C454 1.415 . S
H456 C453 0.999 . S
H457 C438 0.913 . S
H458 C476 0.951 . S
H459 C478 0.951 . S
H460 C480 0.950 . S
H461 C481 0.950 . S
H462 C483 0.950 1_554 S
H463 C486 0.950 . S
H464 C487 0.950 . S
H465 C489 0.950 . S
H466 C490 0.950 . S
H467 C491 0.951 . S
H468 C493 0.951 . S
H469 C495 0.950 . S
H470 C496 0.950 . S
H471 C498 0.950 . S
H472 C501 0.950 . S
H473 C502 0.950 . S
H474 C504 0.950 . S
H475 C505 0.950 . S
C476 H458 0.951 . S
C476 C477 1.366 . S
C476 C478 1.388 1_554 S
C477 C476 1.366 . S
C477 C481 1.385 . S
C478 H459 0.951 . S
C478 C476 1.388 1_556 S
C478 C479 1.366 . S
C479 C478 1.366 . S
C479 C480 1.414 1_556 S
C479 C482 1.499 . S
C480 H460 0.950 . S
C480 C479 1.414 1_554 S
C480 C481 1.374 . S
C481 H461 0.950 . S
C481 C477 1.385 . S
C481 C480 1.374 . S
C482 C479 1.499 . S
C482 C483 1.373 . S
C482 C484 1.389 . S
C483 H462 0.950 1_556 S
C483 C482 1.373 . S
C483 C499 1.377 . S
C484 C482 1.389 . S
C484 C485 1.524 . S
C484 C498 1.377 . S
C485 C484 1.524 . S
C485 C486 1.397 . S
C485 C490 1.363 . S
C486 H463 0.950 . S
C486 C485 1.397 . S
C486 C487 1.334 . S
C487 H464 0.950 . S
C487 C486 1.334 . S
C487 C488 1.287 . S
C488 C487 1.287 . S
C488 C489 1.524 . S
C488 H507 0.913 . S
C489 H465 0.950 . S
C489 C488 1.524 . S
C489 C490 1.415 . S
C490 H466 0.950 . S
C490 C485 1.363 . S
C490 C489 1.415 . S
C491 H467 0.951 . S
C491 C492 1.366 . S
C491 C493 1.388 . S
C492 C491 1.366 . S
C492 C496 1.385 . S
C493 H468 0.951 . S
C493 C491 1.388 . S
C493 C494 1.366 . S
C494 C493 1.366 . S
C494 C495 1.414 . S
C494 C497 1.499 . S
C495 H469 0.950 . S
C495 C494 1.414 . S
C495 C496 1.374 . S
C496 H470 0.950 . S
C496 C492 1.385 . S
C496 C495 1.374 . S
C497 C494 1.499 . S
C497 C498 1.373 . S
C497 C499 1.389 . S
C498 H471 0.950 . S
C498 C484 1.377 . S
C498 C497 1.373 . S
C499 C483 1.377 . S
C499 C497 1.389 . S
C499 C500 1.524 1_556 S
C500 C499 1.524 1_554 S
C500 C501 1.397 . S
C500 C505 1.363 . S
C501 H472 0.950 . S
C501 C500 1.397 . S
C501 C502 1.334 . S
C502 H473 0.950 . S
C502 C501 1.334 . S
C502 C503 1.287 . S
C503 C502 1.287 . S
C503 C504 1.524 . S
C503 H506 0.999 . S
C504 H474 0.950 . S
C504 C503 1.524 . S
C504 C505 1.415 . S
C505 H475 0.950 . S
C505 C500 1.363 . S
C505 C504 1.415 . S
H506 C503 0.999 . S
H507 C488 0.913 . S
H508 C526 0.951 . S
H509 C528 0.951 1_556 S
H510 C530 0.950 . S
H511 C531 0.950 . S
H512 C533 0.950 . S
H513 C536 0.950 1_554 S
H514 C537 0.950 . S
H515 C539 0.950 . S
H516 C540 0.950 . S
H517 C541 0.951 . S
H518 C543 0.951 . S
H519 C545 0.950 . S
H520 C546 0.950 . S
H521 C548 0.950 . S
H522 C551 0.950 . S
H523 C552 0.950 1_556 S
H524 C554 0.950 . S
H525 C555 0.950 . S
C526 H508 0.951 . S
C526 C527 1.366 . S
C526 C528 1.388 . S
C527 C526 1.366 . S
C527 C531 1.385 . S
C528 H509 0.951 1_554 S
C528 C526 1.388 . S
C528 C529 1.366 . S
C529 C528 1.366 . S
C529 C530 1.414 . S
C529 C532 1.499 . S
C530 H510 0.950 . S
C530 C529 1.414 . S
C530 C531 1.374 . S
C531 H511 0.950 . S
C531 C527 1.385 . S
C531 C530 1.374 . S
C532 C529 1.499 . S
C532 C533 1.373 . S
C532 C534 1.389 1_554 S
C533 H512 0.950 . S
C533 C532 1.373 . S
C533 C549 1.377 . S
C534 C532 1.389 1_556 S
C534 C535 1.524 . S
C534 C548 1.377 . S
C535 C534 1.524 . S
C535 C536 1.397 . S
C535 C540 1.363 . S
C536 H513 0.950 1_556 S
C536 C535 1.397 . S
C536 C537 1.334 . S
C537 H514 0.950 . S
C537 C536 1.334 . S
C537 C538 1.287 . S
C538 C537 1.287 . S
C538 C539 1.524 . S
C538 H557 0.913 . S
C539 H515 0.950 . S
C539 C538 1.524 . S
C539 C540 1.415 . S
C540 H516 0.950 . S
C540 C535 1.363 . S
C540 C539 1.415 . S
C541 H517 0.951 . S
C541 C542 1.366 . S
C541 C543 1.388 . S
C542 C541 1.366 . S
C542 C546 1.385 . S
C543 H518 0.951 . S
C543 C541 1.388 . S
C543 C544 1.366 . S
C544 C543 1.366 . S
C544 C545 1.414 . S
C544 C547 1.499 . S
C545 H519 0.950 . S
C545 C544 1.414 . S
C545 C546 1.374 . S
C546 H520 0.950 . S
C546 C542 1.385 . S
C546 C545 1.374 . S
C547 C544 1.499 . S
C547 C548 1.373 . S
C547 C549 1.389 1_556 S
C548 H521 0.950 . S
C548 C534 1.377 . S
C548 C547 1.373 . S
C549 C533 1.377 . S
C549 C547 1.389 1_554 S
C549 C550 1.524 . S
C550 C549 1.524 . S
C550 C551 1.397 1_554 S
C550 C555 1.363 . S
C551 H522 0.950 . S
C551 C550 1.397 1_556 S
C551 C552 1.334 1_556 S
C552 H523 0.950 1_554 S
C552 C551 1.334 1_554 S
C552 C553 1.287 . S
C553 C552 1.287 . S
C553 C554 1.524 . S
C553 H556 0.999 . S
C554 H524 0.950 . S
C554 C553 1.524 . S
C554 C555 1.415 . S
C555 H525 0.950 . S
C555 C550 1.363 . S
C555 C554 1.415 . S
H556 C553 0.999 . S
H557 C538 0.913 . S
H558 C576 0.951 . S
H559 C578 0.951 . S
H560 C580 0.950 1_556 S
H561 C581 0.950 . S
H562 C583 0.950 1_554 S
H563 C586 0.950 . S
H564 C587 0.950 1_655 S
H565 C589 0.950 . S
H566 C590 0.950 . S
H567 C591 0.951 . S
H568 C593 0.951 . S
H569 C595 0.972 . S
H570 C596 0.950 . S
H571 C598 0.950 1_455 S
H572 C601 0.950 1_554 S
H573 C602 0.950 . S
H574 C604 0.950 . S
H575 C605 0.950 . S
C576 H558 0.951 . S
C576 C577 1.366 . S
C576 C578 1.388 . S
C577 C576 1.366 . S
C577 C581 1.385 . S
C578 H559 0.951 . S
C578 C576 1.388 . S
C578 C579 1.366 . S
C579 C578 1.366 . S
C579 C580 1.414 . S
C579 C582 1.499 1_554 S
C580 H560 0.950 1_554 S
C580 C579 1.414 . S
C580 C581 1.374 . S
C581 H561 0.950 . S
C581 C577 1.385 . S
C581 C580 1.374 . S
C582 C579 1.499 1_556 S
C582 C583 1.373 . S
C582 C584 1.389 . S
C583 H562 0.950 1_556 S
C583 C582 1.373 . S
C583 C599 1.377 . S
C584 C582 1.389 . S
C584 C585 1.533 . S
C584 C598 1.377 . S
C585 C584 1.533 . S
C585 C586 1.402 . S
C585 C590 1.349 1_655 S
C586 H563 0.950 . S
C586 C585 1.402 . S
C586 C587 1.334 1_655 S
C587 H564 0.950 1_455 S
C587 C586 1.334 1_455 S
C587 C588 1.287 . S
C588 C587 1.287 . S
C588 C589 1.524 . S
C588 H607 0.913 . S
C589 H565 0.950 . S
C589 C588 1.524 . S
C589 C590 1.415 . S
C590 H566 0.950 . S
C590 C585 1.349 1_455 S
C590 C589 1.415 . S
C591 H567 0.951 . S
C591 C592 1.366 . S
C591 C593 1.388 . S
C592 C591 1.366 . S
C592 C596 1.385 1_655 S
C593 H568 0.951 . S
C593 C591 1.388 . S
C593 C594 1.366 . S
C594 C593 1.366 . S
C594 C595 1.385 1_655 S
C594 C597 1.499 . S
C595 H569 0.972 . S
C595 C594 1.385 1_455 S
C595 C596 1.382 . S
C596 H570 0.950 . S
C596 C592 1.385 1_455 S
C596 C595 1.382 . S
C597 C594 1.499 . S
C597 C598 1.373 . S
C597 C599 1.389 . S
C598 H571 0.950 1_655 S
C598 C584 1.377 . S
C598 C597 1.373 . S
C599 C583 1.377 . S
C599 C597 1.389 . S
C599 C600 1.524 . S
C600 C599 1.524 . S
C600 C601 1.397 . S
C600 C605 1.363 . S
C601 H572 0.950 1_556 S
C601 C600 1.397 . S
C601 C602 1.334 1_556 S
C602 H573 0.950 . S
C602 C601 1.334 1_554 S
C602 C603 1.287 . S
C603 C602 1.287 . S
C603 C604 1.524 1_554 S
C603 H606 0.999 . S
C604 H574 0.950 . S
C604 C603 1.524 1_556 S
C604 C605 1.415 . S
C605 H575 0.950 . S
C605 C600 1.363 . S
C605 C604 1.415 . S
H606 C603 0.999 . S
H607 C588 0.913 . S
H608 C626 0.951 . S
H609 C628 0.951 . S
H610 C630 0.950 . S
H611 C631 0.950 . S
H612 C633 0.950 . S
H613 C636 0.950 . S
H614 C637 0.950 . S
H615 C639 0.950 . S
H616 C640 0.950 . S
H617 C641 0.951 . S
H618 C643 0.951 . S
H619 C645 0.950 . S
H620 C646 0.958 . S
H621 C648 0.950 . S
H622 C651 0.950 . S
H623 C652 0.950 . S
H624 C654 0.950 . S
H625 C655 0.952 . S
C626 H608 0.951 . S
C626 C627 1.366 . S
C626 C628 1.388 . S
C627 C626 1.366 . S
C627 C631 1.385 . S
C628 H609 0.951 . S
C628 C626 1.388 . S
C628 C629 1.366 . S
C629 C628 1.366 . S
C629 C630 1.414 . S
C629 C632 1.499 . S
C630 H610 0.950 . S
C630 C629 1.414 . S
C630 C631 1.374 . S
C631 H611 0.950 . S
C631 C627 1.385 . S
C631 C630 1.374 . S
C632 C629 1.499 . S
C632 C633 1.373 . S
C632 C634 1.389 . S
C633 H612 0.950 . S
C633 C632 1.373 . S
C633 C649 1.377 . S
C634 C632 1.389 . S
C634 C635 1.524 . S
C634 C648 1.377 . S
C635 C634 1.524 . S
C635 C636 1.397 . S
C635 C640 1.363 . S
C636 H613 0.950 . S
C636 C635 1.397 . S
C636 C637 1.334 . S
C637 H614 0.950 . S
C637 C636 1.334 . S
C637 C638 1.287 . S
C638 C637 1.287 . S
C638 C639 1.524 . S
C638 H657 0.913 . S
C639 H615 0.950 . S
C639 C638 1.524 . S
C639 C640 1.415 . S
C640 H616 0.950 . S
C640 C635 1.363 . S
C640 C639 1.415 . S
C641 H617 0.951 . S
C641 C642 1.366 . S
C641 C643 1.388 . S
C642 C641 1.366 . S
C642 C646 1.385 . S
C643 H618 0.951 . S
C643 C641 1.388 . S
C643 C644 1.366 . S
C644 C643 1.366 . S
C644 C645 1.414 . S
C644 C647 1.499 . S
C645 H619 0.950 . S
C645 C644 1.414 . S
C645 C646 1.374 . S
C646 H620 0.958 . S
C646 C642 1.385 . S
C646 C645 1.374 . S
C647 C644 1.499 . S
C647 C648 1.373 . S
C647 C649 1.389 . S
C648 H621 0.950 . S
C648 C634 1.377 . S
C648 C647 1.373 . S
C649 C633 1.377 . S
C649 C647 1.389 . S
C649 C650 1.482 1_455 S
C650 C649 1.482 1_655 S
C650 C651 1.444 . S
C650 C655 1.361 1_655 S
C651 H622 0.950 . S
C651 C650 1.444 . S
C651 C652 1.334 . S
C652 H623 0.950 . S
C652 C651 1.334 . S
C652 C653 1.287 . S
C653 C652 1.287 . S
C653 C654 1.524 . S
C653 H656 0.999 . S
C654 H624 0.950 . S
C654 C653 1.524 . S
C654 C655 1.413 1_655 S
C655 H625 0.952 . S
C655 C650 1.361 1_455 S
C655 C654 1.413 1_455 S
H656 C653 0.999 . S
H657 C638 0.913 . S
H658 C676 0.951 . S
H659 C678 0.951 . S
H660 C680 0.950 . S
H661 C681 0.950 . S
H662 C683 0.950 . S
H663 C686 0.950 . S
H664 C687 0.950 . S
H665 C689 0.950 . S
H666 C690 0.950 . S
H667 C691 0.951 . S
H668 C693 0.951 . S
H669 C695 0.950 . S
H670 C696 0.950 . S
H671 C698 0.950 . S
H672 C701 0.950 . S
H673 C702 0.950 . S
H674 C704 0.950 . S
H675 C705 0.950 . S
C676 H658 0.951 . S
C676 C677 1.357 1_565 S
C676 C678 1.388 . S
C677 C676 1.357 1_545 S
C677 C681 1.393 . S
C678 H659 0.951 . S
C678 C676 1.388 . S
C678 C679 1.366 . S
C679 C678 1.366 . S
C679 C680 1.414 1_565 S
C679 C682 1.499 . S
C680 H660 0.950 . S
C680 C679 1.414 1_545 S
C680 C681 1.374 . S
C681 H661 0.950 . S
C681 C677 1.393 . S
C681 C680 1.374 . S
C682 C679 1.499 . S
C682 C683 1.373 1_565 S
C682 C684 1.389 . S
C683 H662 0.950 . S
C683 C682 1.373 1_545 S
C683 C699 1.377 . S
C684 C682 1.389 . S
C684 C685 1.524 . S
C684 C698 1.377 . S
C685 C684 1.524 . S
C685 C686 1.397 . S
C685 C690 1.363 . S
C686 H663 0.950 . S
C686 C685 1.397 . S
C686 C687 1.334 . S
C687 H664 0.950 . S
C687 C686 1.334 . S
C687 C688 1.287 . S
C688 C687 1.287 . S
C688 C689 1.524 . S
C688 H707 0.913 . S
C689 H665 0.950 . S
C689 C688 1.524 . S
C689 C690 1.415 . S
C690 H666 0.950 . S
C690 C685 1.363 . S
C690 C689 1.415 . S
C691 H667 0.951 . S
C691 C692 1.366 1_545 S
C691 C693 1.388 . S
C692 C691 1.366 1_565 S
C692 C696 1.385 . S
C693 H668 0.951 . S
C693 C691 1.388 . S
C693 C694 1.366 1_545 S
C694 C693 1.366 1_565 S
C694 C695 1.414 . S
C694 C697 1.499 . S
C695 H669 0.950 . S
C695 C694 1.414 . S
C695 C696 1.374 . S
C696 H670 0.950 . S
C696 C692 1.385 . S
C696 C695 1.374 . S
C697 C694 1.499 . S
C697 C698 1.373 . S
C697 C699 1.389 1_565 S
C698 H671 0.950 . S
C698 C684 1.377 . S
C698 C697 1.373 . S
C699 C683 1.377 . S
C699 C697 1.389 1_545 S
C699 C700 1.524 . S
C700 C699 1.524 . S
C700 C701 1.397 . S
C700 C705 1.363 . S
C701 H672 0.950 . S
C701 C700 1.397 . S
C701 C702 1.334 . S
C702 H673 0.950 . S
C702 C701 1.334 . S
C702 C703 1.287 . S
C703 C702 1.287 . S
C703 C704 1.524 . S
C703 H706 0.999 . S
C704 H674 0.950 . S
C704 C703 1.524 . S
C704 C705 1.415 . S
C705 H675 0.950 . S
C705 C700 1.363 . S
C705 C704 1.415 . S
H706 C703 0.999 . S
H707 C688 0.913 . S
H708 C726 0.951 . S
H709 C728 0.951 . S
H710 C730 0.950 . S
H711 C731 0.950 . S
H712 C733 0.950 . S
H713 C736 0.950 . S
H714 C737 0.950 . S
H715 C739 0.950 . S
H716 C740 0.950 . S
H717 C741 0.951 . S
H718 C743 0.951 . S
H719 C745 0.950 . S
H720 C746 0.950 . S
H721 C748 0.950 . S
H722 C751 0.950 . S
H723 C752 0.950 . S
H724 C754 0.950 . S
H725 C755 0.950 . S
C726 H708 0.951 . S
C726 C727 1.366 . S
C726 C728 1.388 . S
C727 C726 1.366 . S
C727 C731 1.385 . S
C728 H709 0.951 . S
C728 C726 1.388 . S
C728 C729 1.366 . S
C729 C728 1.366 . S
C729 C730 1.414 . S
C729 C732 1.499 . S
C730 H710 0.950 . S
C730 C729 1.414 . S
C730 C731 1.374 . S
C731 H711 0.950 . S
C731 C727 1.385 . S
C731 C730 1.374 . S
C732 C729 1.499 . S
C732 C733 1.373 . S
C732 C734 1.389 . S
C733 H712 0.950 . S
C733 C732 1.373 . S
C733 C749 1.377 . S
C734 C732 1.389 . S
C734 C735 1.524 . S
C734 C748 1.377 . S
C735 C734 1.524 . S
C735 C736 1.397 . S
C735 C740 1.363 . S
C736 H713 0.950 . S
C736 C735 1.397 . S
C736 C737 1.334 . S
C737 H714 0.950 . S
C737 C736 1.334 . S
C737 C738 1.287 . S
C738 C737 1.287 . S
C738 C739 1.524 . S
C738 H757 0.913 . S
C739 H715 0.950 . S
C739 C738 1.524 . S
C739 C740 1.415 . S
C740 H716 0.950 . S
C740 C735 1.363 . S
C740 C739 1.415 . S
C741 H717 0.951 . S
C741 C742 1.366 . S
C741 C743 1.388 . S
C742 C741 1.366 . S
C742 C746 1.385 . S
C743 H718 0.951 . S
C743 C741 1.388 . S
C743 C744 1.366 . S
C744 C743 1.366 . S
C744 C745 1.414 . S
C744 C747 1.499 . S
C745 H719 0.950 . S
C745 C744 1.414 . S
C745 C746 1.374 . S
C746 H720 0.950 . S
C746 C742 1.385 . S
C746 C745 1.374 . S
C747 C744 1.499 . S
C747 C748 1.373 . S
C747 C749 1.389 . S
C748 H721 0.950 . S
C748 C734 1.377 . S
C748 C747 1.373 . S
C749 C733 1.377 . S
C749 C747 1.389 . S
C749 C750 1.524 . S
C750 C749 1.524 . S
C750 C751 1.397 . S
C750 C755 1.363 . S
C751 H722 0.950 . S
C751 C750 1.397 . S
C751 C752 1.334 . S
C752 H723 0.950 . S
C752 C751 1.334 . S
C752 C753 1.287 . S
C753 C752 1.287 . S
C753 C754 1.524 . S
C753 H756 0.999 . S
C754 H724 0.950 . S
C754 C753 1.524 . S
C754 C755 1.415 . S
C755 H725 0.950 . S
C755 C750 1.363 . S
C755 C754 1.415 . S
H756 C753 0.999 . S
H757 C738 0.913 . S
H758 C776 0.951 . S
H759 C778 0.951 . S
H760 C780 0.950 . S
H761 C781 0.950 . S
H762 C783 0.950 . S
H763 C786 0.950 . S
H764 C787 0.950 . S
H765 C789 0.950 . S
H766 C790 0.950 . S
H767 C791 0.951 . S
H768 C793 0.951 . S
H769 C795 0.950 . S
H770 C796 0.950 . S
H771 C798 0.950 . S
H772 C801 0.950 . S
H773 C802 0.950 . S
H774 C804 0.950 . S
H775 C805 0.950 . S
C776 H758 0.951 . S
C776 C777 1.366 . S
C776 C778 1.388 . S
C777 C776 1.366 . S
C777 C781 1.385 . S
C778 H759 0.951 . S
C778 C776 1.388 . S
C778 C779 1.366 . S
C779 C778 1.366 . S
C779 C780 1.414 . S
C779 C782 1.499 . S
C780 H760 0.950 . S
C780 C779 1.414 . S
C780 C781 1.374 . S
C781 H761 0.950 . S
C781 C777 1.385 . S
C781 C780 1.374 . S
C782 C779 1.499 . S
C782 C783 1.373 . S
C782 C784 1.389 . S
C783 H762 0.950 . S
C783 C782 1.373 . S
C783 C799 1.377 . S
C784 C782 1.389 . S
C784 C785 1.524 . S
C784 C798 1.377 . S
C785 C784 1.524 . S
C785 C786 1.397 . S
C785 C790 1.363 . S
C786 H763 0.950 . S
C786 C785 1.397 . S
C786 C787 1.334 . S
C787 H764 0.950 . S
C787 C786 1.334 . S
C787 C788 1.287 . S
C788 C787 1.287 . S
C788 C789 1.524 . S
C788 H807 0.913 . S
C789 H765 0.950 . S
C789 C788 1.524 . S
C789 C790 1.415 . S
C790 H766 0.950 . S
C790 C785 1.363 . S
C790 C789 1.415 . S
C791 H767 0.951 . S
C791 C792 1.366 . S
C791 C793 1.388 . S
C792 C791 1.366 . S
C792 C796 1.385 . S
C793 H768 0.951 . S
C793 C791 1.388 . S
C793 C794 1.366 . S
C794 C793 1.366 . S
C794 C795 1.414 . S
C794 C797 1.499 . S
C795 H769 0.950 . S
C795 C794 1.414 . S
C795 C796 1.374 . S
C796 H770 0.950 . S
C796 C792 1.385 . S
C796 C795 1.374 . S
C797 C794 1.499 . S
C797 C798 1.373 . S
C797 C799 1.389 . S
C798 H771 0.950 . S
C798 C784 1.377 . S
C798 C797 1.373 . S
C799 C783 1.377 . S
C799 C797 1.389 . S
C799 C800 1.524 . S
C800 C799 1.524 . S
C800 C801 1.397 . S
C800 C805 1.363 . S
C801 H772 0.950 . S
C801 C800 1.397 . S
C801 C802 1.334 . S
C802 H773 0.950 . S
C802 C801 1.334 . S
C802 C803 1.287 . S
C803 C802 1.287 . S
C803 C804 1.524 . S
C803 H806 0.999 . S
C804 H774 0.950 . S
C804 C803 1.524 . S
C804 C805 1.415 . S
C805 H775 0.950 . S
C805 C800 1.363 . S
C805 C804 1.415 . S
H806 C803 0.999 . S
H807 C788 0.913 . S
H808 C826 0.951 . S
H809 C828 0.951 . S
H810 C830 0.950 . S
H811 C831 0.950 . S
H812 C833 0.950 . S
H813 C836 0.950 1_655 S
H814 C837 0.950 . S
H815 C839 0.950 . S
H816 C840 0.950 . S
H817 C841 0.951 . S
H818 C843 0.951 . S
H819 C845 0.950 . S
H820 C846 0.950 . S
H821 C848 0.950 1_455 S
H822 C851 0.950 . S
H823 C852 0.950 . S
H824 C854 0.950 . S
H825 C855 0.950 1_554 S
C826 H808 0.951 . S
C826 C827 1.366 . S
C826 C828 1.388 1_554 S
C827 C826 1.366 . S
C827 C831 1.385 . S
C828 H809 0.951 . S
C828 C826 1.388 1_556 S
C828 C829 1.366 1_556 S
C829 C828 1.366 1_554 S
C829 C830 1.414 . S
C829 C832 1.499 1_554 S
C830 H810 0.950 . S
C830 C829 1.414 . S
C830 C831 1.374 . S
C831 H811 0.950 . S
C831 C827 1.385 . S
C831 C830 1.374 . S
C832 C829 1.499 1_556 S
C832 C833 1.373 . S
C832 C834 1.389 . S
C833 H812 0.950 . S
C833 C832 1.373 . S
C833 C849 1.377 . S
C834 C832 1.389 . S
C834 C835 1.524 1_655 S
C834 C848 1.377 . S
C835 C834 1.524 1_455 S
C835 C836 1.397 1_556 S
C835 C840 1.363 . S
C836 H813 0.950 1_455 S
C836 C835 1.397 1_554 S
C836 C837 1.334 . S
C837 H814 0.950 . S
C837 C836 1.334 . S
C837 C838 1.287 . S
C838 C837 1.287 . S
C838 C839 1.524 1_554 S
C838 H857 0.913 . S
C839 H815 0.950 . S
C839 C838 1.524 1_556 S
C839 C840 1.415 . S
C840 H816 0.950 . S
C840 C835 1.363 . S
C840 C839 1.415 . S
C841 H817 0.951 . S
C841 C842 1.366 1_655 S
C841 C843 1.388 . S
C842 C841 1.366 1_455 S
C842 C846 1.385 . S
C843 H818 0.951 . S
C843 C841 1.388 . S
C843 C844 1.366 . S
C844 C843 1.366 . S
C844 C845 1.414 1_655 S
C844 C847 1.499 . S
C845 H819 0.950 . S
C845 C844 1.414 1_455 S
C845 C846 1.374 . S
C846 H820 0.950 . S
C846 C842 1.385 . S
C846 C845 1.374 . S
C847 C844 1.499 . S
C847 C848 1.373 . S
C847 C849 1.389 . S
C848 H821 0.950 1_655 S
C848 C834 1.377 . S
C848 C847 1.373 . S
C849 C833 1.377 . S
C849 C847 1.389 . S
C849 C850 1.524 . S
C850 C849 1.524 . S
C850 C851 1.397 . S
C850 C855 1.363 . S
C851 H822 0.950 . S
C851 C850 1.397 . S
C851 C852 1.334 . S
C852 H823 0.950 . S
C852 C851 1.334 . S
C852 C853 1.287 . S
C853 C852 1.287 . S
C853 C854 1.524 . S
C853 H856 0.999 . S
C854 H824 0.950 . S
C854 C853 1.524 . S
C854 C855 1.415 . S
C855 H825 0.950 1_556 S
C855 C850 1.363 . S
C855 C854 1.415 . S
H856 C853 0.999 . S
H857 C838 0.913 . S
H858 C876 0.951 . S
H859 C878 0.951 . S
H860 C880 0.950 . S
H861 C881 0.950 . S
H862 C883 0.950 . S
H863 C886 0.950 . S
H864 C887 0.950 . S
H865 C889 0.950 . S
H866 C890 0.950 1_545 S
H867 C891 0.951 . S
H868 C893 0.951 . S
H869 C895 0.950 . S
H870 C896 0.950 . S
H871 C898 0.950 . S
H872 C901 0.950 . S
H873 C902 0.950 . S
H874 C904 0.950 . S
H875 C905 0.950 . S
C876 H858 0.951 . S
C876 C877 1.367 1_545 S
C876 C878 1.388 . S
C877 C876 1.367 1_565 S
C877 C881 1.383 1_554 S
C878 H859 0.951 . S
C878 C876 1.388 . S
C878 C879 1.378 1_554 S
C879 C878 1.378 1_556 S
C879 C880 1.402 1_545 S
C879 C882 1.499 . S
C880 H860 0.950 . S
C880 C879 1.402 1_565 S
C880 C881 1.374 . S
C881 H861 0.950 . S
C881 C877 1.383 1_556 S
C881 C880 1.374 . S
C882 C879 1.499 . S
C882 C883 1.386 . S
C882 C884 1.382 1_545 S
C883 H862 0.950 . S
C883 C882 1.386 . S
C883 C899 1.377 . S
C884 C882 1.382 1_565 S
C884 C885 1.524 1_556 S
C884 C898 1.377 . S
C885 C884 1.524 1_554 S
C885 C886 1.397 . S
C885 C890 1.363 . S
C886 H863 0.950 . S
C886 C885 1.397 . S
C886 C887 1.334 . S
C887 H864 0.950 . S
C887 C886 1.334 . S
C887 C888 1.287 . S
C888 C887 1.287 . S
C888 C889 1.524 . S
C888 H907 0.913 . S
C889 H865 0.950 . S
C889 C888 1.524 . S
C889 C890 1.415 . S
C890 H866 0.950 1_565 S
C890 C885 1.363 . S
C890 C889 1.415 . S
C891 H867 0.951 . S
C891 C892 1.366 1_565 S
C891 C893 1.388 . S
C892 C891 1.366 1_545 S
C892 C896 1.385 . S
C893 H868 0.951 . S
C893 C891 1.388 . S
C893 C894 1.366 1_565 S
C894 C893 1.366 1_545 S
C894 C895 1.414 . S
C894 C897 1.499 . S
C895 H869 0.950 . S
C895 C894 1.414 . S
C895 C896 1.374 . S
C896 H870 0.950 . S
C896 C892 1.385 . S
C896 C895 1.374 . S
C897 C894 1.499 . S
C897 C898 1.373 1_545 S
C897 C899 1.389 . S
C898 H871 0.950 . S
C898 C884 1.377 . S
C898 C897 1.373 1_565 S
C899 C883 1.377 . S
C899 C897 1.389 . S
C899 C900 1.524 . S
C900 C899 1.524 . S
C900 C901 1.397 . S
C900 C905 1.363 . S
C901 H872 0.950 . S
C901 C900 1.397 . S
C901 C902 1.334 . S
C902 H873 0.950 . S
C902 C901 1.334 . S
C902 C903 1.287 . S
C903 C902 1.287 . S
C903 C904 1.524 . S
C903 H906 0.999 . S
C904 H874 0.950 . S
C904 C903 1.524 . S
C904 C905 1.415 . S
C905 H875 0.950 . S
C905 C900 1.363 . S
C905 C904 1.415 . S
H906 C903 0.999 . S
H907 C888 0.913 . S
H908 C926 0.951 . S
H909 C928 0.951 1_556 S
H910 C930 0.950 . S
H911 C931 0.950 . S
H912 C933 0.950 . S
H913 C936 0.950 . S
H914 C937 0.950 . S
H915 C939 0.950 . S
H916 C940 0.950 . S
H917 C941 0.951 . S
H918 C943 0.951 . S
H919 C945 0.950 . S
H920 C946 0.950 . S
H921 C948 0.950 . S
H922 C951 0.950 . S
H923 C952 0.950 . S
H924 C954 0.950 . S
H925 C955 0.950 . S
C926 H908 0.951 . S
C926 C927 1.366 . S
C926 C928 1.388 . S
C927 C926 1.366 . S
C927 C931 1.385 . S
C928 H909 0.951 1_554 S
C928 C926 1.388 . S
C928 C929 1.366 . S
C929 C928 1.366 . S
C929 C930 1.414 . S
C929 C932 1.499 1_554 S
C930 H910 0.950 . S
C930 C929 1.414 . S
C930 C931 1.374 . S
C931 H911 0.950 . S
C931 C927 1.385 . S
C931 C930 1.374 . S
C932 C929 1.499 1_556 S
C932 C933 1.373 1_556 S
C932 C934 1.389 . S
C933 H912 0.950 . S
C933 C932 1.373 1_554 S
C933 C949 1.377 1_554 S
C934 C932 1.389 . S
C934 C935 1.524 . S
C934 C948 1.377 . S
C935 C934 1.524 . S
C935 C936 1.397 . S
C935 C940 1.363 . S
C936 H913 0.950 . S
C936 C935 1.397 . S
C936 C937 1.334 . S
C937 H914 0.950 . S
C937 C936 1.334 . S
C937 C938 1.287 . S
C938 C937 1.287 . S
C938 C939 1.524 . S
C938 H957 0.913 . S
C939 H915 0.950 . S
C939 C938 1.524 . S
C939 C940 1.415 . S
C940 H916 0.950 . S
C940 C935 1.363 . S
C940 C939 1.415 . S
C941 H917 0.951 . S
C941 C942 1.366 . S
C941 C943 1.388 . S
C942 C941 1.366 . S
C942 C946 1.385 . S
C943 H918 0.951 . S
C943 C941 1.388 . S
C943 C944 1.366 . S
C944 C943 1.366 . S
C944 C945 1.414 . S
C944 C947 1.499 . S
C945 H919 0.950 . S
C945 C944 1.414 . S
C945 C946 1.374 . S
C946 H920 0.950 . S
C946 C942 1.385 . S
C946 C945 1.374 . S
C947 C944 1.499 . S
C947 C948 1.373 . S
C947 C949 1.389 . S
C948 H921 0.950 . S
C948 C934 1.377 . S
C948 C947 1.373 . S
C949 C933 1.377 1_556 S
C949 C947 1.389 . S
C949 C950 1.524 1_556 S
C950 C949 1.524 1_554 S
C950 C951 1.397 . S
C950 C955 1.363 . S
C951 H922 0.950 . S
C951 C950 1.397 . S
C951 C952 1.334 . S
C952 H923 0.950 . S
C952 C951 1.334 . S
C952 C953 1.287 . S
C953 C952 1.287 . S
C953 C954 1.524 . S
C953 H956 0.999 . S
C954 H924 0.950 . S
C954 C953 1.524 . S
C954 C955 1.415 . S
C955 H925 0.950 . S
C955 C950 1.363 . S
C955 C954 1.415 . S
H956 C953 0.999 . S
H957 C938 0.913 . S
H958 C976 0.951 . S
H959 C978 0.951 . S
H960 C980 0.950 1_556 S
H961 C981 0.950 . S
H962 C983 0.949 1_554 S
H963 C986 0.950 . S
H964 C987 0.950 . S
H965 C989 0.950 . S
H966 C990 0.950 . S
H967 C991 0.951 . S
H968 C993 0.951 . S
H969 C995 0.950 . S
H970 C996 0.950 . S
H971 C998 0.950 . S
H972 C1001 0.950 1_554 S
H973 C1002 0.950 . S
H974 C1004 0.950 . S
H975 C1005 0.950 . S
C976 H958 0.951 . S
C976 C977 1.366 . S
C976 C978 1.388 . S
C977 C976 1.366 . S
C977 C981 1.385 . S
C978 H959 0.951 . S
C978 C976 1.388 . S
C978 C979 1.366 . S
C979 C978 1.366 . S
C979 C980 1.414 . S
C979 C982 1.499 . S
C980 H960 0.950 1_554 S
C980 C979 1.414 . S
C980 C981 1.374 . S
C981 H961 0.950 . S
C981 C977 1.385 . S
C981 C980 1.374 . S
C982 C979 1.499 . S
C982 C983 1.367 1_554 S
C982 C984 1.391 . S
C983 H962 0.949 1_556 S
C983 C982 1.367 1_556 S
C983 C999 1.384 . S
C984 C982 1.391 . S
C984 C985 1.527 . S
C984 C998 1.371 1_554 S
C985 C984 1.527 . S
C985 C986 1.397 1_554 S
C985 C990 1.363 . S
C986 H963 0.950 . S
C986 C985 1.397 1_556 S
C986 C987 1.334 . S
C987 H964 0.950 . S
C987 C986 1.334 . S
C987 C988 1.287 1_556 S
C988 C987 1.287 1_554 S
C988 C989 1.524 . S
C988 H1007 0.913 . S
C989 H965 0.950 . S
C989 C988 1.524 . S
C989 C990 1.415 . S
C990 H966 0.950 . S
C990 C985 1.363 . S
C990 C989 1.415 . S
C991 H967 0.951 . S
C991 C992 1.366 . S
C991 C993 1.388 . S
C992 C991 1.366 . S
C992 C996 1.385 . S
C993 H968 0.951 . S
C993 C991 1.388 . S
C993 C994 1.366 . S
C994 C993 1.366 . S
C994 C995 1.414 . S
C994 C997 1.499 . S
C995 H969 0.950 . S
C995 C994 1.414 . S
C995 C996 1.374 . S
C996 H970 0.950 . S
C996 C992 1.385 . S
C996 C995 1.374 . S
C997 C994 1.499 . S
C997 C998 1.373 . S
C997 C999 1.389 . S
C998 H971 0.950 . S
C998 C984 1.371 1_556 S
C998 C997 1.373 . S
C999 C983 1.384 . S
C999 C997 1.389 . S
C999 C1000 1.524 . S
C1000 C999 1.524 . S
C1000 C1001 1.397 . S
C1000 C1005 1.363 . S
C1001 H972 0.950 1_556 S
C1001 C1000 1.397 . S
C1001 C1002 1.334 . S
C1002 H973 0.950 . S
C1002 C1001 1.334 . S
C1002 C1003 1.287 . S
C1003 C1002 1.287 . S
C1003 C1004 1.524 . S
C1003 H1006 0.999 . S
C1004 H974 0.950 . S
C1004 C1003 1.524 . S
C1004 C1005 1.415 . S
C1005 H975 0.950 . S
C1005 C1000 1.363 . S
C1005 C1004 1.415 . S
H1006 C1003 0.999 . S
H1007 C988 0.913 . S
H1008 C1026 0.951 . S
H1009 C1028 0.951 . S
H1010 C1030 0.950 . S
H1011 C1031 0.950 . S
H1012 C1033 0.950 . S
H1013 C1036 0.950 . S
H1014 C1037 0.950 . S
H1015 C1039 0.950 . S
H1016 C1040 0.950 . S
H1017 C1041 0.951 . S
H1018 C1043 0.951 . S
H1019 C1045 0.950 . S
H1020 C1046 0.950 . S
H1021 C1048 0.950 . S
H1022 C1051 0.950 1_554 S
H1023 C1052 0.950 . S
H1024 C1054 0.950 . S
H1025 C1055 0.950 1_554 S
C1026 H1008 0.951 . S
C1026 C1027 1.366 . S
C1026 C1028 1.388 . S
C1027 C1026 1.366 . S
C1027 C1031 1.385 . S
C1028 H1009 0.951 . S
C1028 C1026 1.388 . S
C1028 C1029 1.366 . S
C1029 C1028 1.366 . S
C1029 C1030 1.414 . S
C1029 C1032 1.499 . S
C1030 H1010 0.950 . S
C1030 C1029 1.414 . S
C1030 C1031 1.374 . S
C1031 H1011 0.950 . S
C1031 C1027 1.385 . S
C1031 C1030 1.374 . S
C1032 C1029 1.499 . S
C1032 C1033 1.373 . S
C1032 C1034 1.389 . S
C1033 H1012 0.950 . S
C1033 C1032 1.373 . S
C1033 C1049 1.377 . S
C1034 C1032 1.389 . S
C1034 C1035 1.524 . S
C1034 C1048 1.377 . S
C1035 C1034 1.524 . S
C1035 C1036 1.397 . S
C1035 C1040 1.363 . S
C1036 H1013 0.950 . S
C1036 C1035 1.397 . S
C1036 C1037 1.334 . S
C1037 H1014 0.950 . S
C1037 C1036 1.334 . S
C1037 C1038 1.287 . S
C1038 C1037 1.287 . S
C1038 C1039 1.524 . S
C1038 H1057 0.913 . S
C1039 H1015 0.950 . S
C1039 C1038 1.524 . S
C1039 C1040 1.415 . S
C1040 H1016 0.950 . S
C1040 C1035 1.363 . S
C1040 C1039 1.415 . S
C1041 H1017 0.951 . S
C1041 C1042 1.366 . S
C1041 C1043 1.388 1_556 S
C1042 C1041 1.366 . S
C1042 C1046 1.385 1_556 S
C1043 H1018 0.951 . S
C1043 C1041 1.388 1_554 S
C1043 C1044 1.366 . S
C1044 C1043 1.366 . S
C1044 C1045 1.414 . S
C1044 C1047 1.499 . S
C1045 H1019 0.950 . S
C1045 C1044 1.414 . S
C1045 C1046 1.374 . S
C1046 H1020 0.950 . S
C1046 C1042 1.385 1_554 S
C1046 C1045 1.374 . S
C1047 C1044 1.499 . S
C1047 C1048 1.373 . S
C1047 C1049 1.389 . S
C1048 H1021 0.950 . S
C1048 C1034 1.377 . S
C1048 C1047 1.373 . S
C1049 C1033 1.377 . S
C1049 C1047 1.389 . S
C1049 C1050 1.524 . S
C1050 C1049 1.524 . S
C1050 C1051 1.397 1_554 S
C1050 C1055 1.363 1_554 S
C1051 H1022 0.950 1_556 S
C1051 C1050 1.397 1_556 S
C1051 C1052 1.334 . S
C1052 H1023 0.950 . S
C1052 C1051 1.334 . S
C1052 C1053 1.287 . S
C1053 C1052 1.287 . S
C1053 C1054 1.524 . S
C1053 H1056 0.999 . S
C1054 H1024 0.950 . S
C1054 C1053 1.524 . S
C1054 C1055 1.415 . S
C1055 H1025 0.950 1_556 S
C1055 C1050 1.363 1_556 S
C1055 C1054 1.415 . S
H1056 C1053 0.999 . S
H1057 C1038 0.913 . S
H1058 C1076 0.951 . S
H1059 C1078 0.951 . S
H1060 C1080 0.950 . S
H1061 C1081 0.950 . S
H1062 C1083 0.950 . S
H1063 C1086 0.950 . S
H1064 C1087 0.950 . S
H1065 C1089 0.950 . S
H1066 C1090 0.950 . S
H1067 C1091 0.951 1_556 S
H1068 C1093 0.951 . S
H1069 C1095 0.950 . S
H1070 C1096 0.950 . S
H1071 C1098 0.950 . S
H1072 C1101 0.950 . S
H1073 C1102 0.950 . S
H1074 C1104 0.950 . S
H1075 C1105 0.950 . S
C1076 H1058 0.951 . S
C1076 C1077 1.384 . S
C1076 C1078 1.388 . S
C1077 C1076 1.384 . S
C1077 C1081 1.365 1_545 S
C1078 H1059 0.951 . S
C1078 C1076 1.388 . S
C1078 C1079 1.366 . S
C1079 C1078 1.366 . S
C1079 C1080 1.414 1_545 S
C1079 C1082 1.499 . S
C1080 H1060 0.950 . S
C1080 C1079 1.414 1_565 S
C1080 C1081 1.374 . S
C1081 H1061 0.950 . S
C1081 C1077 1.365 1_565 S
C1081 C1080 1.374 . S
C1082 C1079 1.499 . S
C1082 C1083 1.373 1_545 S
C1082 C1084 1.389 . S
C1083 H1062 0.950 . S
C1083 C1082 1.373 1_565 S
C1083 C1099 1.377 . S
C1084 C1082 1.389 . S
C1084 C1085 1.524 . S
C1084 C1098 1.377 . S
C1085 C1084 1.524 . S
C1085 C1086 1.397 . S
C1085 C1090 1.363 . S
C1086 H1063 0.950 . S
C1086 C1085 1.397 . S
C1086 C1087 1.334 . S
C1087 H1064 0.950 . S
C1087 C1086 1.334 . S
C1087 C1088 1.287 . S
C1088 C1087 1.287 . S
C1088 C1089 1.524 . S
C1088 H1107 0.913 . S
C1089 H1065 0.950 . S
C1089 C1088 1.524 . S
C1089 C1090 1.415 . S
C1090 H1066 0.950 . S
C1090 C1085 1.363 . S
C1090 C1089 1.415 . S
C1091 H1067 0.951 1_554 S
C1091 C1092 1.366 1_565 S
C1091 C1093 1.388 . S
C1092 C1091 1.366 1_545 S
C1092 C1096 1.385 . S
C1093 H1068 0.951 . S
C1093 C1091 1.388 . S
C1093 C1094 1.366 1_565 S
C1094 C1093 1.366 1_545 S
C1094 C1095 1.414 . S
C1094 C1097 1.499 . S
C1095 H1069 0.950 . S
C1095 C1094 1.414 . S
C1095 C1096 1.374 . S
C1096 H1070 0.950 . S
C1096 C1092 1.385 . S
C1096 C1095 1.374 . S
C1097 C1094 1.499 . S
C1097 C1098 1.373 . S
C1097 C1099 1.389 1_545 S
C1098 H1071 0.950 . S
C1098 C1084 1.377 . S
C1098 C1097 1.373 . S
C1099 C1083 1.377 . S
C1099 C1097 1.389 1_565 S
C1099 C1100 1.524 . S
C1100 C1099 1.524 . S
C1100 C1101 1.397 . S
C1100 C1105 1.363 . S
C1101 H1072 0.950 . S
C1101 C1100 1.397 . S
C1101 C1102 1.334 . S
C1102 H1073 0.950 . S
C1102 C1101 1.334 . S
C1102 C1103 1.287 . S
C1103 C1102 1.287 . S
C1103 C1104 1.524 . S
C1103 H1106 0.999 . S
C1104 H1074 0.950 . S
C1104 C1103 1.524 . S
C1104 C1105 1.415 . S
C1105 H1075 0.950 . S
C1105 C1100 1.363 . S
C1105 C1104 1.415 . S
H1106 C1103 0.999 . S
H1107 C1088 0.913 . S
H1108 C1126 0.951 . S
H1109 C1128 0.951 . S
H1110 C1130 0.950 . S
H1111 C1131 0.950 . S
H1112 C1133 0.950 . S
H1113 C1136 0.950 . S
H1114 C1137 0.950 . S
H1115 C1139 0.950 . S
H1116 C1140 0.950 . S
H1117 C1141 0.951 . S
H1118 C1143 0.951 . S
H1119 C1145 0.950 . S
H1120 C1146 0.950 . S
H1121 C1148 0.950 . S
H1122 C1151 0.950 . S
H1123 C1152 0.950 . S
H1124 C1154 0.950 . S
H1125 C1155 0.950 . S
C1126 H1108 0.951 . S
C1126 C1127 1.366 . S
C1126 C1128 1.388 . S
C1127 C1126 1.366 . S
C1127 C1131 1.385 . S
C1128 H1109 0.951 . S
C1128 C1126 1.388 . S
C1128 C1129 1.366 . S
C1129 C1128 1.366 . S
C1129 C1130 1.414 . S
C1129 C1132 1.499 . S
C1130 H1110 0.950 . S
C1130 C1129 1.414 . S
C1130 C1131 1.374 . S
C1131 H1111 0.950 . S
C1131 C1127 1.385 . S
C1131 C1130 1.374 . S
C1132 C1129 1.499 . S
C1132 C1133 1.373 . S
C1132 C1134 1.389 . S
C1133 H1112 0.950 . S
C1133 C1132 1.373 . S
C1133 C1149 1.377 . S
C1134 C1132 1.389 . S
C1134 C1135 1.524 . S
C1134 C1148 1.377 . S
C1135 C1134 1.524 . S
C1135 C1136 1.397 . S
C1135 C1140 1.363 . S
C1136 H1113 0.950 . S
C1136 C1135 1.397 . S
C1136 C1137 1.334 . S
C1137 H1114 0.950 . S
C1137 C1136 1.334 . S
C1137 C1138 1.287 . S
C1138 C1137 1.287 . S
C1138 C1139 1.524 . S
C1138 H1157 0.913 . S
C1139 H1115 0.950 . S
C1139 C1138 1.524 . S
C1139 C1140 1.415 . S
C1140 H1116 0.950 . S
C1140 C1135 1.363 . S
C1140 C1139 1.415 . S
C1141 H1117 0.951 . S
C1141 C1142 1.366 . S
C1141 C1143 1.388 1_556 S
C1142 C1141 1.366 . S
C1142 C1146 1.385 . S
C1143 H1118 0.951 . S
C1143 C1141 1.388 1_554 S
C1143 C1144 1.366 . S
C1144 C1143 1.366 . S
C1144 C1145 1.414 1_554 S
C1144 C1147 1.499 . S
C1145 H1119 0.950 . S
C1145 C1144 1.414 1_556 S
C1145 C1146 1.374 . S
C1146 H1120 0.950 . S
C1146 C1142 1.385 . S
C1146 C1145 1.374 . S
C1147 C1144 1.499 . S
C1147 C1148 1.373 . S
C1147 C1149 1.389 . S
C1148 H1121 0.950 . S
C1148 C1134 1.377 . S
C1148 C1147 1.373 . S
C1149 C1133 1.377 . S
C1149 C1147 1.389 . S
C1149 C1150 1.524 . S
C1150 C1149 1.524 . S
C1150 C1151 1.397 1_554 S
C1150 C1155 1.363 . S
C1151 H1122 0.950 . S
C1151 C1150 1.397 1_556 S
C1151 C1152 1.334 . S
C1152 H1123 0.950 . S
C1152 C1151 1.334 . S
C1152 C1153 1.287 . S
C1153 C1152 1.287 . S
C1153 C1154 1.524 1_556 S
C1153 H1156 0.999 . S
C1154 H1124 0.950 . S
C1154 C1153 1.524 1_554 S
C1154 C1155 1.415 . S
C1155 H1125 0.950 . S
C1155 C1150 1.363 . S
C1155 C1154 1.415 . S
H1156 C1153 0.999 . S
H1157 C1138 0.913 . S
H1158 C1176 0.951 . S
H1159 C1178 0.951 . S
H1160 C1180 0.950 . S
H1161 C1181 0.950 . S
H1162 C1183 0.950 . S
H1163 C1186 0.950 . S
H1164 C1187 0.950 . S
H1165 C1189 0.950 . S
H1166 C1190 0.950 . S
H1167 C1191 0.951 . S
H1168 C1193 0.951 . S
H1169 C1195 0.950 . S
H1170 C1196 0.950 . S
H1171 C1198 0.950 . S
H1172 C1201 0.950 . S
H1173 C1202 0.950 . S
H1174 C1204 0.950 . S
H1175 C1205 0.950 . S
C1176 H1158 0.951 . S
C1176 C1177 1.366 . S
C1176 C1178 1.388 . S
C1177 C1176 1.366 . S
C1177 C1181 1.385 . S
C1178 H1159 0.951 . S
C1178 C1176 1.388 . S
C1178 C1179 1.366 . S
C1179 C1178 1.366 . S
C1179 C1180 1.414 . S
C1179 C1182 1.499 . S
C1180 H1160 0.950 . S
C1180 C1179 1.414 . S
C1180 C1181 1.374 . S
C1181 H1161 0.950 . S
C1181 C1177 1.385 . S
C1181 C1180 1.374 . S
C1182 C1179 1.499 . S
C1182 C1183 1.373 . S
C1182 C1184 1.389 . S
C1183 H1162 0.950 . S
C1183 C1182 1.373 . S
C1183 C1199 1.377 . S
C1184 C1182 1.389 . S
C1184 C1185 1.524 . S
C1184 C1198 1.377 . S
C1185 C1184 1.524 . S
C1185 C1186 1.397 . S
C1185 C1190 1.363 . S
C1186 H1163 0.950 . S
C1186 C1185 1.397 . S
C1186 C1187 1.334 . S
C1187 H1164 0.950 . S
C1187 C1186 1.334 . S
C1187 C1188 1.287 . S
C1188 C1187 1.287 . S
C1188 C1189 1.524 . S
C1188 H1207 0.913 . S
C1189 H1165 0.950 . S
C1189 C1188 1.524 . S
C1189 C1190 1.415 . S
C1190 H1166 0.950 . S
C1190 C1185 1.363 . S
C1190 C1189 1.415 . S
C1191 H1167 0.951 . S
C1191 C1192 1.366 . S
C1191 C1193 1.388 . S
C1192 C1191 1.366 . S
C1192 C1196 1.385 . S
C1193 H1168 0.951 . S
C1193 C1191 1.388 . S
C1193 C1194 1.366 . S
C1194 C1193 1.366 . S
C1194 C1195 1.414 1_556 S
C1194 C1197 1.499 1_556 S
C1195 H1169 0.950 . S
C1195 C1194 1.414 1_554 S
C1195 C1196 1.374 1_554 S
C1196 H1170 0.950 . S
C1196 C1192 1.385 . S
C1196 C1195 1.374 1_556 S
C1197 C1194 1.499 1_554 S
C1197 C1198 1.373 . S
C1197 C1199 1.389 . S
C1198 H1171 0.950 . S
C1198 C1184 1.377 . S
C1198 C1197 1.373 . S
C1199 C1183 1.377 . S
C1199 C1197 1.389 . S
C1199 C1200 1.524 . S
C1200 C1199 1.524 . S
C1200 C1201 1.397 . S
C1200 C1205 1.363 1_554 S
C1201 H1172 0.950 . S
C1201 C1200 1.397 . S
C1201 C1202 1.334 1_554 S
C1202 H1173 0.950 . S
C1202 C1201 1.334 1_556 S
C1202 C1203 1.287 . S
C1203 C1202 1.287 . S
C1203 C1204 1.524 . S
C1203 H1206 0.999 . S
C1204 H1174 0.950 . S
C1204 C1203 1.524 . S
C1204 C1205 1.415 . S
C1205 H1175 0.950 . S
C1205 C1200 1.363 1_556 S
C1205 C1204 1.415 . S
H1206 C1203 0.999 . S
H1207 C1188 0.913 . S
H1208 C1226 0.951 . S
H1209 C1228 0.951 . S
H1210 C1230 0.950 . S
H1211 C1231 0.950 . S
H1212 C1233 0.950 . S
H1213 C1236 0.950 . S
H1214 C1237 0.950 . S
H1215 C1239 0.950 . S
H1216 C1240 0.950 . S
H1217 C1241 0.951 1_455 S
H1218 C1243 0.951 1_455 S
H1219 C1245 0.950 . S
H1220 C1246 0.950 . S
H1221 C1248 0.950 . S
H1222 C1251 0.950 . S
H1223 C1252 0.950 . S
H1224 C1254 0.950 . S
H1225 C1255 0.950 . S
C1226 H1208 0.951 . S
C1226 C1227 1.366 . S
C1226 C1228 1.388 . S
C1227 C1226 1.366 . S
C1227 C1231 1.385 . S
C1228 H1209 0.951 . S
C1228 C1226 1.388 . S
C1228 C1229 1.366 . S
C1229 C1228 1.366 . S
C1229 C1230 1.414 . S
C1229 C1232 1.499 . S
C1230 H1210 0.950 . S
C1230 C1229 1.414 . S
C1230 C1231 1.374 . S
C1231 H1211 0.950 . S
C1231 C1227 1.385 . S
C1231 C1230 1.374 . S
C1232 C1229 1.499 . S
C1232 C1233 1.373 . S
C1232 C1234 1.389 . S
C1233 H1212 0.950 . S
C1233 C1232 1.373 . S
C1233 C1249 1.377 . S
C1234 C1232 1.389 . S
C1234 C1235 1.524 . S
C1234 C1248 1.377 . S
C1235 C1234 1.524 . S
C1235 C1236 1.397 . S
C1235 C1240 1.363 . S
C1236 H1213 0.950 . S
C1236 C1235 1.397 . S
C1236 C1237 1.334 . S
C1237 H1214 0.950 . S
C1237 C1236 1.334 . S
C1237 C1238 1.287 . S
C1238 C1237 1.287 . S
C1238 C1239 1.524 . S
C1238 H1257 0.913 . S
C1239 H1215 0.950 . S
C1239 C1238 1.524 . S
C1239 C1240 1.415 . S
C1240 H1216 0.950 . S
C1240 C1235 1.363 . S
C1240 C1239 1.415 . S
C1241 H1217 0.951 1_655 S
C1241 C1242 1.366 . S
C1241 C1243 1.388 . S
C1242 C1241 1.366 . S
C1242 C1246 1.385 . S
C1243 H1218 0.951 1_655 S
C1243 C1241 1.388 . S
C1243 C1244 1.366 . S
C1244 C1243 1.366 . S
C1244 C1245 1.414 . S
C1244 C1247 1.499 . S
C1245 H1219 0.950 . S
C1245 C1244 1.414 . S
C1245 C1246 1.374 . S
C1246 H1220 0.950 . S
C1246 C1242 1.385 . S
C1246 C1245 1.374 . S
C1247 C1244 1.499 . S
C1247 C1248 1.373 . S
C1247 C1249 1.389 . S
C1248 H1221 0.950 . S
C1248 C1234 1.377 . S
C1248 C1247 1.373 . S
C1249 C1233 1.377 . S
C1249 C1247 1.389 . S
C1249 C1250 1.524 . S
C1250 C1249 1.524 . S
C1250 C1251 1.397 . S
C1250 C1255 1.363 1_655 S
C1251 H1222 0.950 . S
C1251 C1250 1.397 . S
C1251 C1252 1.334 . S
C1252 H1223 0.950 . S
C1252 C1251 1.334 . S
C1252 C1253 1.287 1_655 S
C1253 C1252 1.287 1_455 S
C1253 C1254 1.524 . S
C1253 H1256 0.999 . S
C1254 H1224 0.950 . S
C1254 C1253 1.524 . S
C1254 C1255 1.415 . S
C1255 H1225 0.950 . S
C1255 C1250 1.363 1_455 S
C1255 C1254 1.415 . S
H1256 C1253 0.999 . S
H1257 C1238 0.913 . S
H1258 C1276 0.951 . S
H1259 C1278 0.951 . S
H1260 C1280 0.950 . S
H1261 C1281 0.950 . S
H1262 C1283 0.950 . S
H1263 C1286 0.950 . S
H1264 C1287 0.950 1_565 S
H1265 C1289 0.950 . S
H1266 C1290 0.950 . S
H1267 C1291 0.951 . S
H1268 C1293 0.951 . S
H1269 C1295 0.950 . S
H1270 C1296 0.950 . S
H1271 C1298 0.950 . S
H1272 C1301 0.950 1_545 S
H1273 C1302 0.950 . S
H1274 C1304 0.950 . S
H1275 C1305 0.950 . S
C1276 H1258 0.951 . S
C1276 C1277 1.347 1_545 S
C1276 C1278 1.388 . S
C1277 C1276 1.347 1_565 S
C1277 C1281 1.403 . S
C1278 H1259 0.951 . S
C1278 C1276 1.388 . S
C1278 C1279 1.366 1_545 S
C1279 C1278 1.366 1_565 S
C1279 C1280 1.414 . S
C1279 C1282 1.499 . S
C1280 H1260 0.950 . S
C1280 C1279 1.414 . S
C1280 C1281 1.374 . S
C1281 H1261 0.950 . S
C1281 C1277 1.403 . S
C1281 C1280 1.374 . S
C1282 C1279 1.499 . S
C1282 C1283 1.373 . S
C1282 C1284 1.389 1_565 S
C1283 H1262 0.950 . S
C1283 C1282 1.373 . S
C1283 C1299 1.377 . S
C1284 C1282 1.389 1_545 S
C1284 C1285 1.524 . S
C1284 C1298 1.377 . S
C1285 C1284 1.524 . S
C1285 C1286 1.397 1_545 S
C1285 C1290 1.363 . S
C1286 H1263 0.950 . S
C1286 C1285 1.397 1_565 S
C1286 C1287 1.334 1_565 S
C1287 H1264 0.950 1_545 S
C1287 C1286 1.334 1_545 S
C1287 C1288 1.287 . S
C1288 C1287 1.287 . S
C1288 C1289 1.524 . S
C1288 H1307 0.913 . S
C1289 H1265 0.950 . S
C1289 C1288 1.524 . S
C1289 C1290 1.415 . S
C1290 H1266 0.950 . S
C1290 C1285 1.363 . S
C1290 C1289 1.415 . S
C1291 H1267 0.951 . S
C1291 C1292 1.366 . S
C1291 C1293 1.388 . S
C1292 C1291 1.366 . S
C1292 C1296 1.385 1_565 S
C1293 H1268 0.951 . S
C1293 C1291 1.388 . S
C1293 C1294 1.366 . S
C1294 C1293 1.366 . S
C1294 C1295 1.414 1_565 S
C1294 C1297 1.499 . S
C1295 H1269 0.950 . S
C1295 C1294 1.414 1_545 S
C1295 C1296 1.374 . S
C1296 H1270 0.950 . S
C1296 C1292 1.385 1_545 S
C1296 C1295 1.374 . S
C1297 C1294 1.499 . S
C1297 C1298 1.373 1_565 S
C1297 C1299 1.389 . S
C1298 H1271 0.950 . S
C1298 C1284 1.377 . S
C1298 C1297 1.373 1_545 S
C1299 C1283 1.377 . S
C1299 C1297 1.389 . S
C1299 C1300 1.524 . S
C1300 C1299 1.524 . S
C1300 C1301 1.397 . S
C1300 C1305 1.363 . S
C1301 H1272 0.950 1_565 S
C1301 C1300 1.397 . S
C1301 C1302 1.334 . S
C1302 H1273 0.950 . S
C1302 C1301 1.334 . S
C1302 C1303 1.287 . S
C1303 C1302 1.287 . S
C1303 C1304 1.524 . S
C1303 H1306 0.999 . S
C1304 H1274 0.950 . S
C1304 C1303 1.524 . S
C1304 C1305 1.415 . S
C1305 H1275 0.950 . S
C1305 C1300 1.363 . S
C1305 C1304 1.415 . S
H1306 C1303 0.999 . S
H1307 C1288 0.913 . S
H1308 C1326 0.951 . S
H1309 C1328 0.951 . S
H1310 C1330 0.950 . S
H1311 C1331 0.950 . S
H1312 C1333 0.950 . S
H1313 C1336 0.950 . S
H1314 C1337 0.950 . S
H1315 C1339 0.950 . S
H1316 C1340 0.950 . S
H1317 C1341 0.951 . S
H1318 C1343 0.951 . S
H1319 C1345 0.950 . S
H1320 C1346 0.950 . S
H1321 C1348 0.950 . S
H1322 C1351 0.950 . S
H1323 C1352 0.950 . S
H1324 C1354 0.950 . S
H1325 C1355 0.950 . S
C1326 H1308 0.951 . S
C1326 C1327 1.366 . S
C1326 C1328 1.388 . S
C1327 C1326 1.366 . S
C1327 C1331 1.385 . S
C1328 H1309 0.951 . S
C1328 C1326 1.388 . S
C1328 C1329 1.366 . S
C1329 C1328 1.366 . S
C1329 C1330 1.414 . S
C1329 C1332 1.499 . S
C1330 H1310 0.950 . S
C1330 C1329 1.414 . S
C1330 C1331 1.374 . S
C1331 H1311 0.950 . S
C1331 C1327 1.385 . S
C1331 C1330 1.374 . S
C1332 C1329 1.499 . S
C1332 C1333 1.373 . S
C1332 C1334 1.389 . S
C1333 H1312 0.950 . S
C1333 C1332 1.373 . S
C1333 C1349 1.377 . S
C1334 C1332 1.389 . S
C1334 C1335 1.524 . S
C1334 C1348 1.377 . S
C1335 C1334 1.524 . S
C1335 C1336 1.397 . S
C1335 C1340 1.363 . S
C1336 H1313 0.950 . S
C1336 C1335 1.397 . S
C1336 C1337 1.334 . S
C1337 H1314 0.950 . S
C1337 C1336 1.334 . S
C1337 C1338 1.287 . S
C1338 C1337 1.287 . S
C1338 C1339 1.524 . S
C1338 H1357 0.913 . S
C1339 H1315 0.950 . S
C1339 C1338 1.524 . S
C1339 C1340 1.415 . S
C1340 H1316 0.950 . S
C1340 C1335 1.363 . S
C1340 C1339 1.415 . S
C1341 H1317 0.951 . S
C1341 C1342 1.366 . S
C1341 C1343 1.388 . S
C1342 C1341 1.366 . S
C1342 C1346 1.385 . S
C1343 H1318 0.951 . S
C1343 C1341 1.388 . S
C1343 C1344 1.366 . S
C1344 C1343 1.366 . S
C1344 C1345 1.414 . S
C1344 C1347 1.499 . S
C1345 H1319 0.950 . S
C1345 C1344 1.414 . S
C1345 C1346 1.374 . S
C1346 H1320 0.950 . S
C1346 C1342 1.385 . S
C1346 C1345 1.374 . S
C1347 C1344 1.499 . S
C1347 C1348 1.373 . S
C1347 C1349 1.389 . S
C1348 H1321 0.950 . S
C1348 C1334 1.377 . S
C1348 C1347 1.373 . S
C1349 C1333 1.377 . S
C1349 C1347 1.389 . S
C1349 C1350 1.524 . S
C1350 C1349 1.524 . S
C1350 C1351 1.397 . S
C1350 C1355 1.363 . S
C1351 H1322 0.950 . S
C1351 C1350 1.397 . S
C1351 C1352 1.334 . S
C1352 H1323 0.950 . S
C1352 C1351 1.334 . S
C1352 C1353 1.287 . S
C1353 C1352 1.287 . S
C1353 C1354 1.524 . S
C1353 H1356 0.999 . S
C1354 H1324 0.950 . S
C1354 C1353 1.524 . S
C1354 C1355 1.415 . S
C1355 H1325 0.950 . S
C1355 C1350 1.363 . S
C1355 C1354 1.415 . S
H1356 C1353 0.999 . S
H1357 C1338 0.913 . S
H1358 C1376 0.951 . S
H1359 C1378 0.951 . S
H1360 C1380 0.950 . S
H1361 C1381 0.950 . S
H1362 C1383 0.950 . S
H1363 C1386 0.950 . S
H1364 C1387 0.950 . S
H1365 C1389 0.950 . S
H1366 C1390 0.950 . S
H1367 C1391 0.951 . S
H1368 C1393 0.951 . S
H1369 C1395 0.950 . S
H1370 C1396 0.950 . S
H1371 C1398 0.950 . S
H1372 C1401 0.950 . S
H1373 C1402 0.950 . S
H1374 C1404 0.950 . S
H1375 C1405 0.950 . S
C1376 H1358 0.951 . S
C1376 C1377 1.366 . S
C1376 C1378 1.388 . S
C1377 C1376 1.366 . S
C1377 C1381 1.385 . S
C1378 H1359 0.951 . S
C1378 C1376 1.388 . S
C1378 C1379 1.366 . S
C1379 C1378 1.366 . S
C1379 C1380 1.414 . S
C1379 C1382 1.499 . S
C1380 H1360 0.950 . S
C1380 C1379 1.414 . S
C1380 C1381 1.374 . S
C1381 H1361 0.950 . S
C1381 C1377 1.385 . S
C1381 C1380 1.374 . S
C1382 C1379 1.499 . S
C1382 C1383 1.373 . S
C1382 C1384 1.389 . S
C1383 H1362 0.950 . S
C1383 C1382 1.373 . S
C1383 C1399 1.377 . S
C1384 C1382 1.389 . S
C1384 C1385 1.524 . S
C1384 C1398 1.377 . S
C1385 C1384 1.524 . S
C1385 C1386 1.397 . S
C1385 C1390 1.363 . S
C1386 H1363 0.950 . S
C1386 C1385 1.397 . S
C1386 C1387 1.334 . S
C1387 H1364 0.950 . S
C1387 C1386 1.334 . S
C1387 C1388 1.287 . S
C1388 C1387 1.287 . S
C1388 C1389 1.524 . S
C1388 H1407 0.913 . S
C1389 H1365 0.950 . S
C1389 C1388 1.524 . S
C1389 C1390 1.415 . S
C1390 H1366 0.950 . S
C1390 C1385 1.363 . S
C1390 C1389 1.415 . S
C1391 H1367 0.951 . S
C1391 C1392 1.366 . S
C1391 C1393 1.388 . S
C1392 C1391 1.366 . S
C1392 C1396 1.385 . S
C1393 H1368 0.951 . S
C1393 C1391 1.388 . S
C1393 C1394 1.366 . S
C1394 C1393 1.366 . S
C1394 C1395 1.414 . S
C1394 C1397 1.499 . S
C1395 H1369 0.950 . S
C1395 C1394 1.414 . S
C1395 C1396 1.374 . S
C1396 H1370 0.950 . S
C1396 C1392 1.385 . S
C1396 C1395 1.374 . S
C1397 C1394 1.499 . S
C1397 C1398 1.373 . S
C1397 C1399 1.389 . S
C1398 H1371 0.950 . S
C1398 C1384 1.377 . S
C1398 C1397 1.373 . S
C1399 C1383 1.377 . S
C1399 C1397 1.389 . S
C1399 C1400 1.524 . S
C1400 C1399 1.524 . S
C1400 C1401 1.397 . S
C1400 C1405 1.363 . S
C1401 H1372 0.950 . S
C1401 C1400 1.397 . S
C1401 C1402 1.334 . S
C1402 H1373 0.950 . S
C1402 C1401 1.334 . S
C1402 C1403 1.287 . S
C1403 C1402 1.287 . S
C1403 C1404 1.524 . S
C1403 H1406 0.999 . S
C1404 H1374 0.950 . S
C1404 C1403 1.524 . S
C1404 C1405 1.415 . S
C1405 H1375 0.950 . S
C1405 C1400 1.363 . S
C1405 C1404 1.415 . S
H1406 C1403 0.999 . S
H1407 C1388 0.913 . S
C227 C76 1.623 . S
C242 C98 1.637 . S
C292 C128 1.804 . S
C277 C87 1.774 . S
C342 N162 1.370 . S
C327 C54 1.390 . S
C392 N192 1.371 . S
C377 C65 1.378 . S
C442 C89 1.638 . S
C427 C32 1.625 1_545 S
C477 C43 1.786 . S
C492 C119 1.810 . S
C527 C10 1.392 . S
C542 N154 1.369 . S
C577 C21 1.385 . S
C592 N184 1.396 . S
C642 C104 0.235 . S
C627 C60 0.405 . S
C692 C134 0.449 . S
C677 C71 0.516 . S
C742 C175 0.724 . S
C727 C82 0.726 . S
C777 C49 0.356 . S
C792 C205 0.320 . S
C827 C16 0.434 . S
C842 C115 0.241 . S
C892 C145 0.448 . S
C877 C27 0.515 1_565 S
C942 C164 0.723 . S
C927 C38 0.726 . S
C977 C5 0.362 . S
C992 C194 0.317 . S
C1027 C59 1.472 . S
C1042 N94 1.469 . S
C1077 C70 1.426 . S
C1092 N124 1.423 1_554 S
C1142 C149 1.648 . S
C1127 C81 1.615 . S
C1192 C179 1.588 . S
C1177 C48 1.549 . S
C1227 C15 1.465 . S
C1242 N102 1.478 . S
C1292 N132 1.423 . S
C1277 C26 1.434 1_565 S
C1342 C158 1.648 . S
C1327 C37 1.609 . S
C1377 C4 1.547 . S
C1392 C188 1.588 . S
