# Generated by pormake.
# Topology ptr, (4,4)-cn, num edge types: 1
# Building blocks:
#     Node 0, Type 0, BuildingBlock: UXUYUI_clean_sbu_0, # of connection points: 4
#     Node 1, Type 0, BuildingBlock: UXUYUI_clean_sbu_0, # of connection points: 4
#     Node 2, Type 0, BuildingBlock: UXUYUI_clean_sbu_0, # of connection points: 4
#     Node 3, Type 0, BuildingBlock: UXUYUI_clean_sbu_0, # of connection points: 4
#     Node 4, Type 0, BuildingBlock: UXUYUI_clean_sbu_0, # of connection points: 4
#     Node 5, Type 0, BuildingBlock: UXUYUI_clean_sbu_0, # of connection points: 4
#     Node 6, Type 0, BuildingBlock: UXUYUI_clean_sbu_0, # of connection points: 4
#     Node 7, Type 0, BuildingBlock: UXUYUI_clean_sbu_0, # of connection points: 4
#     Node 8, Type 0, BuildingBlock: UXUYUI_clean_sbu_0, # of connection points: 4
#     Node 9, Type 0, BuildingBlock: UXUYUI_clean_sbu_0, # of connection points: 4
#     Node 10, Type 0, BuildingBlock: UXUYUI_clean_sbu_0, # of connection points: 4
#     Node 11, Type 0, BuildingBlock: UXUYUI_clean_sbu_0, # of connection points: 4
#     Node 12, Type 0, BuildingBlock: UXUYUI_clean_sbu_0, # of connection points: 4
#     Node 13, Type 0, BuildingBlock: UXUYUI_clean_sbu_0, # of connection points: 4
#     Node 14, Type 0, BuildingBlock: UXUYUI_clean_sbu_0, # of connection points: 4
#     Node 15, Type 0, BuildingBlock: UXUYUI_clean_sbu_0, # of connection points: 4
#     Node 16, Type 0, BuildingBlock: UXUYUI_clean_sbu_0, # of connection points: 4
#     Node 17, Type 0, BuildingBlock: UXUYUI_clean_sbu_0, # of connection points: 4
#     Node 18, Type 1, BuildingBlock: MIFKUJ_clean_linker_1, # of connection points: 4
#     Node 19, Type 1, BuildingBlock: MIFKUJ_clean_linker_1, # of connection points: 4
#     Node 20, Type 1, BuildingBlock: MIFKUJ_clean_linker_1, # of connection points: 4
#     Node 21, Type 1, BuildingBlock: MIFKUJ_clean_linker_1, # of connection points: 4
#     Node 22, Type 1, BuildingBlock: MIFKUJ_clean_linker_1, # of connection points: 4
#     Node 23, Type 1, BuildingBlock: MIFKUJ_clean_linker_1, # of connection points: 4
#     Node 24, Type 1, BuildingBlock: MIFKUJ_clean_linker_1, # of connection points: 4
#     Node 25, Type 1, BuildingBlock: MIFKUJ_clean_linker_1, # of connection points: 4
#     Node 26, Type 1, BuildingBlock: MIFKUJ_clean_linker_1, # of connection points: 4
#     Node 27, Type 1, BuildingBlock: MIFKUJ_clean_linker_1, # of connection points: 4
#     Node 28, Type 1, BuildingBlock: MIFKUJ_clean_linker_1, # of connection points: 4
#     Node 29, Type 1, BuildingBlock: MIFKUJ_clean_linker_1, # of connection points: 4
#     Node 30, Type 1, BuildingBlock: MIFKUJ_clean_linker_1, # of connection points: 4
#     Node 31, Type 1, BuildingBlock: MIFKUJ_clean_linker_1, # of connection points: 4
#     Node 32, Type 1, BuildingBlock: MIFKUJ_clean_linker_1, # of connection points: 4
#     Node 33, Type 1, BuildingBlock: MIFKUJ_clean_linker_1, # of connection points: 4
#     Node 34, Type 1, BuildingBlock: MIFKUJ_clean_linker_1, # of connection points: 4
#     Node 35, Type 1, BuildingBlock: MIFKUJ_clean_linker_1, # of connection points: 4
#     Edge 36, Type (0, 1), BuildingBlock: ZUJKAS_clean_linker_0, # of connection points: 2
#     Edge 37, Type (0, 1), BuildingBlock: ZUJKAS_clean_linker_0, # of connection points: 2
#     Edge 38, Type (0, 1), BuildingBlock: ZUJKAS_clean_linker_0, # of connection points: 2
#     Edge 39, Type (0, 1), BuildingBlock: ZUJKAS_clean_linker_0, # of connection points: 2
#     Edge 40, Type (0, 1), BuildingBlock: ZUJKAS_clean_linker_0, # of connection points: 2
#     Edge 41, Type (0, 1), BuildingBlock: ZUJKAS_clean_linker_0, # of connection points: 2
#     Edge 42, Type (0, 1), BuildingBlock: ZUJKAS_clean_linker_0, # of connection points: 2
#     Edge 43, Type (0, 1), BuildingBlock: ZUJKAS_clean_linker_0, # of connection points: 2
#     Edge 44, Type (0, 1), BuildingBlock: ZUJKAS_clean_linker_0, # of connection points: 2
#     Edge 45, Type (0, 1), BuildingBlock: ZUJKAS_clean_linker_0, # of connection points: 2
#     Edge 46, Type (0, 1), BuildingBlock: ZUJKAS_clean_linker_0, # of connection points: 2
#     Edge 47, Type (0, 1), BuildingBlock: ZUJKAS_clean_linker_0, # of connection points: 2
#     Edge 48, Type (0, 1), BuildingBlock: ZUJKAS_clean_linker_0, # of connection points: 2
#     Edge 49, Type (0, 1), BuildingBlock: ZUJKAS_clean_linker_0, # of connection points: 2
#     Edge 50, Type (0, 1), BuildingBlock: ZUJKAS_clean_linker_0, # of connection points: 2
#     Edge 51, Type (0, 1), BuildingBlock: ZUJKAS_clean_linker_0, # of connection points: 2
#     Edge 52, Type (0, 1), BuildingBlock: ZUJKAS_clean_linker_0, # of connection points: 2
#     Edge 53, Type (0, 1), BuildingBlock: ZUJKAS_clean_linker_0, # of connection points: 2
#     Edge 54, Type (0, 1), BuildingBlock: ZUJKAS_clean_linker_0, # of connection points: 2
#     Edge 55, Type (0, 1), BuildingBlock: ZUJKAS_clean_linker_0, # of connection points: 2
#     Edge 56, Type (0, 1), BuildingBlock: ZUJKAS_clean_linker_0, # of connection points: 2
#     Edge 57, Type (0, 1), BuildingBlock: ZUJKAS_clean_linker_0, # of connection points: 2
#     Edge 58, Type (0, 1), BuildingBlock: ZUJKAS_clean_linker_0, # of connection points: 2
#     Edge 59, Type (0, 1), BuildingBlock: ZUJKAS_clean_linker_0, # of connection points: 2
#     Edge 60, Type (0, 1), BuildingBlock: ZUJKAS_clean_linker_0, # of connection points: 2
#     Edge 61, Type (0, 1), BuildingBlock: ZUJKAS_clean_linker_0, # of connection points: 2
#     Edge 62, Type (0, 1), BuildingBlock: ZUJKAS_clean_linker_0, # of connection points: 2
#     Edge 63, Type (0, 1), BuildingBlock: ZUJKAS_clean_linker_0, # of connection points: 2
#     Edge 64, Type (0, 1), BuildingBlock: ZUJKAS_clean_linker_0, # of connection points: 2
#     Edge 65, Type (0, 1), BuildingBlock: ZUJKAS_clean_linker_0, # of connection points: 2
#     Edge 66, Type (0, 1), BuildingBlock: ZUJKAS_clean_linker_0, # of connection points: 2
#     Edge 67, Type (0, 1), BuildingBlock: ZUJKAS_clean_linker_0, # of connection points: 2
#     Edge 68, Type (0, 1), BuildingBlock: ZUJKAS_clean_linker_0, # of connection points: 2
#     Edge 69, Type (0, 1), BuildingBlock: ZUJKAS_clean_linker_0, # of connection points: 2
#     Edge 70, Type (0, 1), BuildingBlock: ZUJKAS_clean_linker_0, # of connection points: 2
#     Edge 71, Type (0, 1), BuildingBlock: ZUJKAS_clean_linker_0, # of connection points: 2
#     Edge 72, Type (0, 1), BuildingBlock: ZUJKAS_clean_linker_0, # of connection points: 2
#     Edge 73, Type (0, 1), BuildingBlock: ZUJKAS_clean_linker_0, # of connection points: 2
#     Edge 74, Type (0, 1), BuildingBlock: ZUJKAS_clean_linker_0, # of connection points: 2
#     Edge 75, Type (0, 1), BuildingBlock: ZUJKAS_clean_linker_0, # of connection points: 2
#     Edge 76, Type (0, 1), BuildingBlock: ZUJKAS_clean_linker_0, # of connection points: 2
#     Edge 77, Type (0, 1), BuildingBlock: ZUJKAS_clean_linker_0, # of connection points: 2
#     Edge 78, Type (0, 1), BuildingBlock: ZUJKAS_clean_linker_0, # of connection points: 2
#     Edge 79, Type (0, 1), BuildingBlock: ZUJKAS_clean_linker_0, # of connection points: 2
#     Edge 80, Type (0, 1), BuildingBlock: ZUJKAS_clean_linker_0, # of connection points: 2
#     Edge 81, Type (0, 1), BuildingBlock: ZUJKAS_clean_linker_0, # of connection points: 2
#     Edge 82, Type (0, 1), BuildingBlock: ZUJKAS_clean_linker_0, # of connection points: 2
#     Edge 83, Type (0, 1), BuildingBlock: ZUJKAS_clean_linker_0, # of connection points: 2
#     Edge 84, Type (0, 1), BuildingBlock: ZUJKAS_clean_linker_0, # of connection points: 2
#     Edge 85, Type (0, 1), BuildingBlock: ZUJKAS_clean_linker_0, # of connection points: 2
#     Edge 86, Type (0, 1), BuildingBlock: ZUJKAS_clean_linker_0, # of connection points: 2
#     Edge 87, Type (0, 1), BuildingBlock: ZUJKAS_clean_linker_0, # of connection points: 2
#     Edge 88, Type (0, 1), BuildingBlock: ZUJKAS_clean_linker_0, # of connection points: 2
#     Edge 89, Type (0, 1), BuildingBlock: ZUJKAS_clean_linker_0, # of connection points: 2
#     Edge 90, Type (0, 1), BuildingBlock: ZUJKAS_clean_linker_0, # of connection points: 2
#     Edge 91, Type (0, 1), BuildingBlock: ZUJKAS_clean_linker_0, # of connection points: 2
#     Edge 92, Type (0, 1), BuildingBlock: ZUJKAS_clean_linker_0, # of connection points: 2
#     Edge 93, Type (0, 1), BuildingBlock: ZUJKAS_clean_linker_0, # of connection points: 2
#     Edge 94, Type (0, 1), BuildingBlock: ZUJKAS_clean_linker_0, # of connection points: 2
#     Edge 95, Type (0, 1), BuildingBlock: ZUJKAS_clean_linker_0, # of connection points: 2
#     Edge 96, Type (0, 1), BuildingBlock: ZUJKAS_clean_linker_0, # of connection points: 2
#     Edge 97, Type (0, 1), BuildingBlock: ZUJKAS_clean_linker_0, # of connection points: 2
#     Edge 98, Type (0, 1), BuildingBlock: ZUJKAS_clean_linker_0, # of connection points: 2
#     Edge 99, Type (0, 1), BuildingBlock: ZUJKAS_clean_linker_0, # of connection points: 2
#     Edge 100, Type (0, 1), BuildingBlock: ZUJKAS_clean_linker_0, # of connection points: 2
#     Edge 101, Type (0, 1), BuildingBlock: ZUJKAS_clean_linker_0, # of connection points: 2
#     Edge 102, Type (0, 1), BuildingBlock: ZUJKAS_clean_linker_0, # of connection points: 2
#     Edge 103, Type (0, 1), BuildingBlock: ZUJKAS_clean_linker_0, # of connection points: 2
#     Edge 104, Type (0, 1), BuildingBlock: ZUJKAS_clean_linker_0, # of connection points: 2
#     Edge 105, Type (0, 1), BuildingBlock: ZUJKAS_clean_linker_0, # of connection points: 2
#     Edge 106, Type (0, 1), BuildingBlock: ZUJKAS_clean_linker_0, # of connection points: 2
#     Edge 107, Type (0, 1), BuildingBlock: ZUJKAS_clean_linker_0, # of connection points: 2
# Relax obj value: 0.094
# Max RMSD: 0.272
# Mean RMSD: 0.119
data_MOF--net-ptr--node1-UXUYUI_clean_sbu_0--node2-MIFKUJ_clean_linker_1--edge1-ZUJKAS_clean_linker_0
_symmetry_space_group_name_H-M    P1
_symmetry_Int_Tables_number       1
_symmetry_cell_setting            triclinic
loop_
_symmetry_equiv_pos_as_xyz
'x, y, z'
_cell_length_a     130.09205
_cell_length_b     130.08784
_cell_length_c     85.402548
_cell_angle_alpha  90.12215
_cell_angle_beta   89.88696
_cell_angle_gamma 120.11967
loop_
_atom_site_label
_atom_site_type_symbol
_atom_site_fract_x
_atom_site_fract_y
_atom_site_fract_z
_atom_type_partial_charge
Li0 Li 0.99203 0.33847 0.00381 0.0
Li1 Li 0.01228 0.349 0.01336 0.0
Li2 Li 0.99787 0.35547 0.02037 0.0
Li3 Li 0.00576 0.35863 0.99401 0.0
C4 C 0.9907 0.32982 0.03276 0.0
N5 N 0.97666 0.30784 0.04639 0.0
C6 C 0.99427 0.32133 0.03246 0.0
C7 C 0.98011 0.32723 0.04026 0.0
C8 C 0.98702 0.31024 0.03933 0.0
C9 C 0.97311 0.31604 0.04702 0.0
C10 C 0.01615 0.34634 0.98175 0.0
C11 C 0.03665 0.35865 0.97409 0.0
N12 N 0.03482 0.35121 0.96186 0.0
C13 C 0.01447 0.33881 0.96913 0.0
C14 C 0.02732 0.35634 0.98428 0.0
C15 C 0.02403 0.34143 0.9592 0.0
C16 C 0.96906 0.3205 0.99325 0.0
N17 N 0.98015 0.32301 0.99751 0.0
C18 C 0.9757 0.30337 0.99073 0.0
C19 C 0.9836 0.31475 0.99626 0.0
C20 C 0.96422 0.30053 0.98613 0.0
C21 C 0.9609 0.30924 0.98752 0.0
H22 H 0.96664 0.32729 0.99391 0.0
H23 H 0.9926 0.31712 0.99924 0.0
C24 C 0.03167 0.35332 0.03267 0.0
N25 N 0.02472 0.34668 0.02059 0.0
C26 C 0.04028 0.35106 0.03884 0.0
C27 C 0.03443 0.33523 0.01991 0.0
C28 C 0.02595 0.3378 0.01412 0.0
C29 C 0.04165 0.34182 0.03255 0.0
H30 H 0.03032 0.36017 0.03775 0.0
H31 H 0.02017 0.33254 0.00467 0.0
C32 C 0.97948 0.35338 0.00228 0.0
N33 N 0.96054 0.35709 0.00675 0.0
C34 C 0.97893 0.36237 0.99407 0.0
C35 C 0.97036 0.34622 0.01266 0.0
C36 C 0.96929 0.36412 0.99651 0.0
C37 C 0.96088 0.34824 0.01479 0.0
C38 C 0.01866 0.37723 0.01639 0.0
C39 C 0.01275 0.38256 0.00956 0.0
C40 C 0.02839 0.38392 0.02616 0.0
C41 C 0.01666 0.39452 0.01263 0.0
C42 C 0.03204 0.39585 0.02896 0.0
N43 N 0.02614 0.40086 0.02219 0.0
C44 C 0.99486 0.3597 0.05196 0.0
C45 C 0.99014 0.37057 0.03401 0.0
C46 C 0.99287 0.36533 0.0646 0.0
N47 N 0.99354 0.36244 0.03702 0.0
C48 C 0.98799 0.37634 0.04626 0.0
C49 C 0.98948 0.37385 0.0618 0.0
H50 H 0.99774 0.35333 0.05405 0.0
H51 H 0.98944 0.3729 0.02212 0.0
C52 C 0.00168 0.36545 0.96483 0.0
N53 N 0.01014 0.3685 0.97601 0.0
C54 C 0.00374 0.37289 0.95203 0.0
C55 C 0.02341 0.38622 0.96214 0.0
C56 C 0.02097 0.3785 0.97474 0.0
C57 C 0.01465 0.38356 0.95073 0.0
H58 H 0.99317 0.35741 0.96615 0.0
H59 H 0.02758 0.38065 0.98373 0.0
O60 O 0.99764 0.3407 0.02599 0.0
O61 O 0.00685 0.34388 0.99152 0.0
O62 O 0.98891 0.35161 0.00014 0.0
O63 O 0.01493 0.36551 0.01363 0.0
H64 H 0.0025 0.32323 0.02685 0.0
H65 H 0.97737 0.3338 0.04098 0.0
H66 H 0.98962 0.30354 0.03905 0.0
H67 H 0.96486 0.31389 0.0528 0.0
H68 H 0.04534 0.36636 0.9759 0.0
H69 H 0.00587 0.33103 0.96703 0.0
H70 H 0.02881 0.36226 0.99401 0.0
H71 H 0.02286 0.33568 0.94937 0.0
H72 H 0.97869 0.29699 0.98955 0.0
H73 H 0.95212 0.30739 0.98409 0.0
H74 H 0.04553 0.35623 0.04874 0.0
H75 H 0.03526 0.32811 0.01462 0.0
H76 H 0.98591 0.36803 0.98601 0.0
H77 H 0.9706 0.33916 0.01899 0.0
H78 H 0.96877 0.37109 0.9903 0.0
H79 H 0.95378 0.34279 0.02283 0.0
H80 H 0.00517 0.37751 0.00203 0.0
H81 H 0.03308 0.37994 0.03154 0.0
H82 H 0.01214 0.39874 0.00744 0.0
H83 H 0.03955 0.40114 0.03651 0.0
H84 H 0.99409 0.36313 0.07642 0.0
H85 H 0.98564 0.38303 0.04354 0.0
H86 H 0.99669 0.37054 0.94362 0.0
H87 H 0.032 0.39426 0.96146 0.0
Li88 Li 0.65848 0.64773 0.0009 0.0
Li89 Li 0.64932 0.6575 0.01403 0.0
Li90 Li 0.64315 0.63683 0.02055 0.0
Li91 Li 0.63768 0.64211 0.9962 0.0
C92 C 0.66641 0.64825 0.03099 0.0
N93 N 0.68143 0.64226 0.04609 0.0
C94 C 0.67437 0.65584 0.04228 0.0
C95 C 0.6661 0.63761 0.02734 0.0
C96 C 0.68189 0.65266 0.0498 0.0
C97 C 0.67377 0.63475 0.03512 0.0
C98 C 0.65543 0.6686 0.98684 0.0
C99 C 0.65078 0.68424 0.98359 0.0
N100 N 0.66214 0.69173 0.97891 0.0
C101 C 0.66703 0.67641 0.9818 0.0
C102 C 0.6472 0.6725 0.98755 0.0
C103 C 0.67026 0.68808 0.97791 0.0
C104 C 0.67516 0.64289 0.98439 0.0
N105 N 0.67352 0.65075 0.99304 0.0
C106 C 0.69421 0.66518 0.99127 0.0
C107 C 0.68281 0.66161 0.99684 0.0
C108 C 0.69606 0.65747 0.98172 0.0
C109 C 0.68639 0.64613 0.97847 0.0
H110 H 0.66782 0.63413 0.98198 0.0
H111 H 0.6813 0.66759 0.00402 0.0
C112 C 0.64461 0.67406 0.02968 0.0
N113 N 0.65308 0.67237 0.02281 0.0
C114 C 0.64769 0.68503 0.03643 0.0
C115 C 0.6681 0.69226 0.02881 0.0
C116 C 0.66464 0.68115 0.02232 0.0
C117 C 0.65959 0.6943 0.03611 0.0
H118 H 0.63551 0.66686 0.03008 0.0
H119 H 0.67118 0.67949 0.01687 0.0
C120 C 0.64444 0.62594 0.98567 0.0
N121 N 0.64447 0.61504 0.95785 0.0
C122 C 0.64661 0.63206 0.97148 0.0
C123 C 0.64229 0.61428 0.98568 0.0
C124 C 0.64658 0.62639 0.95756 0.0
C125 C 0.64235 0.60893 0.9715 0.0
C126 C 0.6211 0.63933 0.01616 0.0
C127 C 0.61344 0.62744 0.02011 0.0
C128 C 0.61641 0.64616 0.01037 0.0
C129 C 0.60121 0.62252 0.01795 0.0
C130 C 0.60413 0.64092 0.00837 0.0
N131 N 0.59685 0.6293 0.01215 0.0
C132 C 0.63914 0.629 0.05191 0.0
C133 C 0.63249 0.61369 0.03285 0.0
C134 C 0.63431 0.62061 0.06392 0.0
N135 N 0.63799 0.62539 0.03675 0.0
C136 C 0.6275 0.60501 0.04446 0.0
C137 C 0.62819 0.60843 0.06021 0.0
H138 H 0.6435 0.63838 0.05461 0.0
H139 H 0.63163 0.61112 0.02067 0.0
C140 C 0.62475 0.64279 0.96936 0.0
N141 N 0.6253 0.63597 0.98098 0.0
C142 C 0.61604 0.63765 0.95774 0.0
C143 C 0.60863 0.61861 0.97043 0.0
C144 C 0.61745 0.62411 0.98174 0.0
C145 C 0.60794 0.62536 0.95809 0.0
H146 H 0.63125 0.65216 0.96885 0.0
H147 H 0.6182 0.61888 0.99101 0.0
O148 O 0.65907 0.65133 0.02349 0.0
O149 O 0.65215 0.65719 0.99096 0.0
O150 O 0.64418 0.63117 0.99948 0.0
O151 O 0.63313 0.64424 0.01791 0.0
H152 H 0.67473 0.66413 0.04519 0.0
H153 H 0.66005 0.63164 0.01859 0.0
H154 H 0.68809 0.65845 0.05857 0.0
H155 H 0.67363 0.62655 0.03241 0.0
H156 H 0.64452 0.68739 0.98425 0.0
H157 H 0.67345 0.6735 0.98082 0.0
H158 H 0.63819 0.66656 0.99129 0.0
H159 H 0.67922 0.69423 0.97407 0.0
H160 H 0.70141 0.67402 0.99403 0.0
H161 H 0.68751 0.63981 0.97144 0.0
H162 H 0.64086 0.68613 0.04214 0.0
H163 H 0.67734 0.69917 0.02807 0.0
H164 H 0.64832 0.64108 0.97115 0.0
H165 H 0.64061 0.6094 0.99652 0.0
H166 H 0.64823 0.63102 0.94651 0.0
H167 H 0.64071 0.59991 0.97135 0.0
H168 H 0.61687 0.62201 0.02462 0.0
H169 H 0.62216 0.65541 0.00744 0.0
H170 H 0.59519 0.61331 0.02085 0.0
H171 H 0.6004 0.64609 0.00381 0.0
H172 H 0.63494 0.62363 0.07589 0.0
H173 H 0.62297 0.59573 0.04111 0.0
H174 H 0.61592 0.64314 0.94833 0.0
H175 H 0.60247 0.60915 0.97127 0.0
Li176 Li 0.35365 0.99611 0.99476 0.0
Li177 Li 0.35878 0.00366 0.02177 0.0
Li178 Li 0.33862 0.99112 0.01359 0.0
Li179 Li 0.34877 0.01075 0.00348 0.0
C180 C 0.34491 0.97539 0.01769 0.0
N181 N 0.3306 0.95164 0.02498 0.0
C182 C 0.3442 0.97152 0.03311 0.0
C183 C 0.33841 0.96718 0.00594 0.0
C184 C 0.33689 0.95948 0.03657 0.0
C185 C 0.33122 0.9552 0.00987 0.0
C186 C 0.37471 0.01576 0.99305 0.0
C187 C 0.38801 0.02671 0.97187 0.0
N188 N 0.39403 0.02081 0.97431 0.0
C189 C 0.38111 0.0099 0.99545 0.0
C190 C 0.37824 0.0243 0.98124 0.0
C191 C 0.39082 0.01254 0.98582 0.0
C192 C 0.36013 0.99653 0.96313 0.0
N193 N 0.35922 0.9913 0.97721 0.0
C194 C 0.36935 0.98161 0.96735 0.0
C195 C 0.36346 0.98377 0.97945 0.0
C196 C 0.37094 0.98732 0.95286 0.0
C197 C 0.366 0.99466 0.9507 0.0
H198 H 0.3568 0.00262 0.9618 0.0
H199 H 0.36276 0.97986 0.99085 0.0
C200 C 0.36481 0.00275 0.05292 0.0
N201 N 0.3695 0.00763 0.03878 0.0
C202 C 0.37224 0.0046 0.06567 0.0
C203 C 0.38917 0.01684 0.0492 0.0
C204 C 0.3814 0.01483 0.0368 0.0
C205 C 0.38464 0.01153 0.06383 0.0
H206 H 0.35528 0.99728 0.05421 0.0
H207 H 0.38489 0.01885 0.02556 0.0
C208 C 0.32818 0.9955 0.98803 0.0
N209 N 0.30723 0.99493 0.98057 0.0
C210 C 0.32226 0.99844 0.99931 0.0
C211 C 0.32345 0.9923 0.97296 0.0
C212 C 0.31168 0.99809 0.9953 0.0
C213 C 0.31285 0.99205 0.96942 0.0
C214 C 0.34844 0.01542 0.03562 0.0
C215 C 0.34118 0.01482 0.04808 0.0
C216 C 0.35931 0.02584 0.03316 0.0
C217 C 0.34489 0.02468 0.05785 0.0
C218 C 0.36269 0.0355 0.0432 0.0
N219 N 0.35547 0.03473 0.05523 0.0
C220 C 0.32208 0.97895 0.03714 0.0
C221 C 0.31498 0.97115 0.01181 0.0
C222 C 0.31121 0.97079 0.0438 0.0
N223 N 0.3237 0.97905 0.02142 0.0
C224 C 0.30392 0.96287 0.01796 0.0
C225 C 0.30188 0.96271 0.03416 0.0
H226 H 0.32925 0.98527 0.04449 0.0
H227 H 0.31655 0.97138 0.99934 0.0
C228 C 0.34945 0.02666 0.98112 0.0
N229 N 0.3467 0.02347 0.99637 0.0
C230 C 0.34692 0.03489 0.97436 0.0
C231 C 0.33864 0.03634 0.99906 0.0
C232 C 0.34135 0.0281 0.00536 0.0
C233 C 0.34132 0.03975 0.98332 0.0
H234 H 0.35318 0.02243 0.97405 0.0
H235 H 0.33876 0.0251 0.01723 0.0
O236 O 0.35175 0.98718 0.01412 0.0
O237 O 0.36494 0.01301 0.00204 0.0
O238 O 0.33864 0.9959 0.99151 0.0
O239 O 0.3449 0.00575 0.02609 0.0
H240 H 0.34917 0.97776 0.04233 0.0
H241 H 0.33879 0.97005 0.99397 0.0
H242 H 0.3362 0.95636 0.04847 0.0
H243 H 0.32608 0.94876 0.00093 0.0
H244 H 0.39081 0.03326 0.96265 0.0
H245 H 0.37845 0.0032 0.00447 0.0
H246 H 0.3735 0.02904 0.97933 0.0
H247 H 0.39575 0.00796 0.98743 0.0
H248 H 0.37289 0.97577 0.96945 0.0
H249 H 0.36714 0.99935 0.9398 0.0
H250 H 0.36832 0.00055 0.0768 0.0
H251 H 0.39864 0.02219 0.04715 0.0
H252 H 0.32576 0.00096 0.01102 0.0
H253 H 0.32795 0.99005 0.96409 0.0
H254 H 0.30702 0.00034 0.00391 0.0
H255 H 0.30909 0.98959 0.9578 0.0
H256 H 0.33276 0.00681 0.05016 0.0
H257 H 0.36507 0.02651 0.02362 0.0
H258 H 0.33934 0.02434 0.06753 0.0
H259 H 0.37106 0.04362 0.04143 0.0
H260 H 0.31014 0.97083 0.05637 0.0
H261 H 0.29697 0.95688 0.01007 0.0
H262 H 0.34889 0.03707 0.96208 0.0
H263 H 0.33433 0.03987 0.00638 0.0
Li264 Li 0.00829 0.66149 0.01339 0.0
Li265 Li 0.99364 0.64138 0.0215 0.0
Li266 Li 0.00215 0.64592 0.99419 0.0
Li267 Li 0.98777 0.65179 0.00241 0.0
C268 C 0.02122 0.65183 0.02105 0.0
N269 N 0.04342 0.66142 0.03465 0.0
C270 C 0.02228 0.64979 0.03686 0.0
C271 C 0.03145 0.6586 0.01209 0.0
C272 C 0.03358 0.65475 0.04354 0.0
C273 C 0.04259 0.66342 0.0192 0.0
C274 C 0.98552 0.65556 0.03621 0.0
C275 C 0.96571 0.64782 0.04652 0.0
N276 N 0.97034 0.65442 0.05972 0.0
C277 C 0.99007 0.66238 0.04979 0.0
C278 C 0.97324 0.64831 0.03449 0.0
C279 C 0.98226 0.66164 0.06158 0.0
C280 C 0.02651 0.68575 0.012 0.0
N281 N 0.02073 0.67605 0.02137 0.0
C282 C 0.03124 0.68739 0.04383 0.0
C283 C 0.02298 0.67665 0.03697 0.0
C284 C 0.03716 0.69765 0.03456 0.0
C285 C 0.03486 0.69671 0.01839 0.0
H286 H 0.0244 0.68506 0.99967 0.0
H287 H 0.01815 0.66881 0.04415 0.0
C288 C 0.9854 0.61876 0.0342 0.0
N289 N 0.9889 0.63019 0.03805 0.0
C290 C 0.98302 0.61037 0.04589 0.0
C291 C 0.9878 0.62567 0.06531 0.0
C292 C 0.99006 0.63375 0.05324 0.0
C293 C 0.98438 0.61383 0.06169 0.0
H294 H 0.98482 0.61625 0.02201 0.0
H295 H 0.99319 0.64296 0.056 0.0
C296 C 0.00685 0.66465 0.9764 0.0
N297 N 0.01406 0.67036 0.94563 0.0
C298 C 0.99876 0.66376 0.96498 0.0
C299 C 0.01864 0.66859 0.97221 0.0
C300 C 0.00257 0.66666 0.94948 0.0
C301 C 0.0221 0.67138 0.95658 0.0
C302 C 0.97416 0.62646 0.99792 0.0
C303 C 0.97113 0.62173 0.98281 0.0
C304 C 0.96571 0.62161 0.0099 0.0
C305 C 0.95961 0.61245 0.97984 0.0
C306 C 0.95428 0.61233 0.00647 0.0
N307 N 0.95149 0.60799 0.99163 0.0
C308 C 0.01448 0.63555 0.98049 0.0
C309 C 0.00168 0.6379 0.96302 0.0
C310 C 0.0171 0.62953 0.96904 0.0
N311 N 0.00678 0.63947 0.97736 0.0
C312 C 0.00407 0.63196 0.95121 0.0
C313 C 0.0117 0.62748 0.95425 0.0
H314 H 0.0183 0.63677 0.99205 0.0
H315 H 0.9954 0.64087 0.96091 0.0
C316 C 0.97596 0.66466 0.00204 0.0
N317 N 0.97564 0.65489 0.9958 0.0
C318 C 0.96787 0.66806 0.99718 0.0
C319 C 0.95923 0.65126 0.97952 0.0
C320 C 0.9675 0.64818 0.98474 0.0
C321 C 0.95941 0.66138 0.98567 0.0
H322 H 0.98264 0.66992 0.01067 0.0
H323 H 0.96764 0.64068 0.97959 0.0
O324 O 0.01023 0.6472 0.01436 0.0
O325 O 0.99308 0.65622 0.02456 0.0
O326 O 0.00327 0.66178 0.99162 0.0
O327 O 0.98545 0.63547 0.00104 0.0
H328 H 0.01447 0.64452 0.04395 0.0
H329 H 0.03078 0.66014 0.99981 0.0
H330 H 0.03454 0.65331 0.05579 0.0
H331 H 0.05057 0.66873 0.01243 0.0
H332 H 0.95619 0.64222 0.04533 0.0
H333 H -0.00046 0.66816 0.05127 0.0
H334 H 0.96953 0.64325 0.02391 0.0
H335 H 0.98567 0.66681 0.07219 0.0
H336 H 0.03286 0.68767 0.0563 0.0
H337 H 0.03912 0.70442 0.01085 0.0
H338 H 0.98062 0.60141 0.04255 0.0
H339 H 0.98892 0.6287 0.07734 0.0
H340 H 0.98963 0.66081 0.96802 0.0
H341 H 0.02504 0.66944 0.98092 0.0
H342 H 0.99639 0.66595 0.94051 0.0
H343 H 0.03118 0.67437 0.95316 0.0
H344 H 0.97756 0.62525 0.97342 0.0
H345 H 0.96795 0.62485 0.02177 0.0
H346 H 0.95713 0.60879 0.96816 0.0
H347 H 0.94766 0.60853 0.01563 0.0
H348 H 0.02311 0.62632 0.97184 0.0
H349 H -0.00043 0.63042 0.94006 0.0
H350 H 0.96826 0.67586 0.00233 0.0
H351 H 0.95303 0.64599 0.9704 0.0
Li352 Li 0.34061 0.35132 0.01735 0.0
Li353 Li 0.36115 0.35692 0.02386 0.0
Li354 Li 0.3563 0.36225 0.99762 0.0
Li355 Li 0.35102 0.34188 0.00409 0.0
C356 C 0.35218 0.37611 0.02352 0.0
N357 N 0.34717 0.39351 0.03276 0.0
C358 C 0.35488 0.38073 0.03871 0.0
C359 C 0.34713 0.38051 0.01295 0.0
C360 C 0.35222 0.38948 0.04319 0.0
C361 C 0.34462 0.38926 0.01787 0.0
C362 C 0.34746 0.33757 0.04112 0.0
C363 C 0.35632 0.32995 0.05907 0.0
N364 N 0.34967 0.33064 0.0709 0.0
C365 C 0.34063 0.33809 0.05342 0.0
C366 C 0.35529 0.33337 0.04392 0.0
C367 C 0.3419 0.33458 0.0684 0.0
C368 C 0.31585 0.33893 0.01866 0.0
N369 N 0.32563 0.34815 0.02529 0.0
C370 C 0.31355 0.35135 0.04351 0.0
C371 C 0.3247 0.35433 0.03752 0.0
C372 C 0.30327 0.34183 0.03692 0.0
C373 C 0.30453 0.33563 0.02427 0.0
H374 H 0.31686 0.33405 0.00909 0.0
H375 H 0.33259 0.36135 0.04296 0.0
C376 C 0.38421 0.36646 0.0362 0.0
N377 N 0.37272 0.36266 0.04012 0.0
C378 C 0.39314 0.37154 0.04751 0.0
C379 C 0.37823 0.36852 0.06674 0.0
C380 C 0.3696 0.36357 0.05504 0.0
C381 C 0.3902 0.37273 0.06298 0.0
H382 H 0.38649 0.36579 0.02422 0.0
H383 H 0.36045 0.36074 0.05779 0.0
C384 C 0.3341 0.34831 0.98297 0.0
N385 N 0.32057 0.34984 0.95916 0.0
C386 C 0.3328 0.34239 0.96879 0.0
C387 C 0.32833 0.35482 0.98513 0.0
C388 C 0.32599 0.34333 0.95687 0.0
C389 C 0.32158 0.35554 0.97294 0.0
C390 C 0.37358 0.35195 0.99511 0.0
C391 C 0.3766 0.35473 0.97936 0.0
C392 C 0.37708 0.34481 0.00298 0.0
C393 C 0.3829 0.35013 0.97165 0.0
C394 C 0.38337 0.34037 0.99487 0.0
N395 N 0.38611 0.34309 0.97949 0.0
C396 C 0.36887 0.3856 0.98621 0.0
C397 C 0.36011 0.37097 0.96634 0.0
C398 C 0.37399 0.39459 0.97501 0.0
N399 N 0.36207 0.37407 0.98172 0.0
C400 C 0.36511 0.37968 0.95474 0.0
C401 C 0.37226 0.39167 0.95901 0.0
H402 H 0.37049 0.38779 0.99851 0.0
H403 H 0.35504 0.36172 0.96305 0.0
C404 C 0.34398 0.31755 0.00462 0.0
N405 N 0.34856 0.32736 0.99539 0.0
C406 C 0.34131 0.30658 0.99831 0.0
C407 C 0.34826 0.31606 0.97313 0.0
C408 C 0.35073 0.32683 0.97992 0.0
C409 C 0.34336 0.30572 0.98233 0.0
H410 H 0.34218 0.31819 0.01684 0.0
H411 H 0.35417 0.33472 0.97278 0.0
O412 O 0.35475 0.36756 0.01896 0.0
O413 O 0.3464 0.34105 0.02639 0.0
O414 O 0.34074 0.34745 0.99478 0.0
O415 O 0.36728 0.35624 0.0028 0.0
H416 H 0.35891 0.37756 0.047 0.0
H417 H 0.34533 0.37734 0.00102 0.0
H418 H 0.35418 0.39306 0.05494 0.0
H419 H 0.34069 0.39271 0.00981 0.0
H420 H 0.36239 0.32675 0.06142 0.0
H421 H 0.33447 0.34123 0.05145 0.0
H422 H 0.36053 0.33276 0.03451 0.0
H423 H 0.33672 0.335 0.07805 0.0
H424 H 0.31301 0.35621 0.05348 0.0
H425 H 0.29685 0.3283 0.01877 0.0
H426 H 0.40226 0.37462 0.04414 0.0
H427 H 0.3756 0.36945 0.07846 0.0
H428 H 0.33707 0.33718 0.96696 0.0
H429 H 0.32892 0.35915 0.99616 0.0
H430 H 0.32499 0.33887 0.94579 0.0
H431 H 0.3171 0.36058 0.97445 0.0
H432 H 0.37404 0.36032 0.97311 0.0
H433 H 0.37495 0.34269 0.01522 0.0
H434 H 0.38523 0.35215 0.95943 0.0
H435 H 0.38607 0.33477 0.0008 0.0
H436 H 0.37935 0.40372 0.97886 0.0
H437 H 0.36374 0.37698 0.94256 0.0
H438 H 0.33762 0.29884 0.00583 0.0
H439 H 0.34981 0.31576 0.96072 0.0
Li440 Li 0.65156 0.98824 0.0165 0.0
Li441 Li 0.646 0.00265 0.02546 0.0
Li442 Li 0.64166 0.99507 0.99787 0.0
Li443 Li 0.66178 0.00922 0.0065 0.0
C444 C 0.62621 0.97463 0.01836 0.0
N445 N 0.60764 0.95141 0.0193 0.0
C446 C 0.61921 0.97024 0.03183 0.0
C447 C 0.62361 0.96726 0.00528 0.0
C448 C 0.60991 0.95846 0.0321 0.0
C449 C 0.61423 0.95554 0.006 0.0
C450 C 0.66419 0.00647 0.04339 0.0
C451 C 0.67134 0.02122 0.06389 0.0
N452 N 0.66906 0.01261 0.0746 0.0
C453 C 0.66203 0.99778 0.05457 0.0
C454 C 0.66898 0.0183 0.04805 0.0
C455 C 0.66451 0.00105 0.0703 0.0
C456 C 0.6645 0.97647 0.01821 0.0
N457 N 0.65419 0.97578 0.02292 0.0
C458 C 0.64924 0.95861 0.03834 0.0
C459 C 0.64657 0.96707 0.03277 0.0
C460 C 0.65994 0.9592 0.03389 0.0
C461 C 0.66756 0.96822 0.02353 0.0
H462 H 0.67048 0.98362 0.01057 0.0
H463 H 0.63859 0.96687 0.03669 0.0
C464 C 0.63758 0.01584 0.04241 0.0
N465 N 0.63962 0.00657 0.04301 0.0
C466 C 0.63174 0.01785 0.05476 0.0
C467 C 0.63043 0.00089 0.06817 0.0
C468 C 0.6363 0.99923 0.05561 0.0
C469 C 0.62788 0.01017 0.06772 0.0
H470 H 0.64014 0.02143 0.03214 0.0
H471 H 0.63792 0.99185 0.0557 0.0
C472 C 0.65646 0.98789 0.98192 0.0
N473 N 0.6571 0.97525 0.95621 0.0
C474 C 0.66262 0.99385 0.96839 0.0
C475 C 0.65086 0.97549 0.98246 0.0
C476 C 0.66276 0.98731 0.95548 0.0
C477 C 0.65122 0.96926 0.96932 0.0
C478 C 0.65233 0.02274 6e-05 0.0
C479 C 0.64971 0.02449 0.98478 0.0
C480 C 0.65973 0.03256 0.00936 0.0
C481 C 0.6547 0.03605 0.97896 0.0
C482 C 0.66456 0.04398 0.00311 0.0
N483 N 0.66198 0.04547 0.98816 0.0
C484 C 0.61904 0.98672 0.98493 0.0
C485 C 0.63446 0.99353 0.96606 0.0
C486 C 0.61074 0.98481 0.97332 0.0
N487 N 0.63064 0.99104 0.98114 0.0
C488 C 0.62647 0.99183 0.95407 0.0
C489 C 0.61445 0.98759 0.95766 0.0
H490 H 0.61629 0.98506 0.99706 0.0
H491 H 0.64378 0.99738 0.96341 0.0
C492 C 0.68639 0.02601 0.00858 0.0
N493 N 0.67663 0.02174 0.99927 0.0
C494 C 0.69756 0.03433 0.00274 0.0
C495 C 0.68835 0.03384 0.97798 0.0
C496 C 0.67738 0.02556 0.98429 0.0
C497 C 0.69865 0.03818 0.98714 0.0
H498 H 0.68556 0.02268 0.02037 0.0
H499 H 0.6695 0.02195 0.97711 0.0
O500 O 0.63535 0.98616 0.01792 0.0
O501 O 0.66167 0.00341 0.02795 0.0
O502 O 0.65637 0.99419 0.99474 0.0
O503 O 0.64764 0.01148 0.00591 0.0
H504 H 0.62095 0.97583 0.04199 0.0
H505 H 0.62864 0.9706 0.99459 0.0
H506 H 0.60448 0.95493 0.04249 0.0
H507 H 0.61215 0.94975 0.99596 0.0
H508 H 0.67499 0.03034 0.06767 0.0
H509 H 0.65837 0.98859 0.05118 0.0
H510 H 0.67086 0.02516 0.03954 0.0
H511 H 0.66281 0.99441 0.07909 0.0
H512 H 0.64305 0.95175 0.04619 0.0
H513 H 0.67597 0.96914 0.01998 0.0
H514 H 0.62982 0.02503 0.05385 0.0
H515 H 0.62773 0.99484 0.07801 0.0
H516 H 0.66717 0.00343 0.96779 0.0
H517 H 0.64637 0.97069 0.99294 0.0
H518 H 0.66741 0.99183 0.94491 0.0
H519 H 0.64687 0.95966 0.96959 0.0
H520 H 0.64393 0.01702 0.97746 0.0
H521 H 0.66175 0.03137 0.02126 0.0
H522 H 0.6528 0.03753 0.96712 0.0
H523 H 0.67035 0.05165 0.01015 0.0
H524 H 0.60155 0.98141 0.97663 0.0
H525 H 0.62978 0.99433 0.94223 0.0
H526 H 0.7053 0.03735 0.01015 0.0
H527 H 0.68877 0.03669 0.96597 0.0
Li528 Li 0.65681 0.67488 0.33773 0.0
Li529 Li 0.67655 0.68494 0.34968 0.0
Li530 Li 0.66179 0.69149 0.35612 0.0
Li531 Li 0.67206 0.69593 0.33095 0.0
C532 C 0.65309 0.66732 0.37021 0.0
N533 N 0.63741 0.64986 0.39041 0.0
C534 C 0.65588 0.65913 0.37658 0.0
C535 C 0.64242 0.66676 0.37436 0.0
C536 C 0.64781 0.65033 0.38669 0.0
C537 C 0.63459 0.65784 0.38453 0.0
C538 C 0.67938 0.67658 0.32223 0.0
C539 C 0.69856 0.67923 0.31541 0.0
N540 N 0.69346 0.66732 0.31298 0.0
C541 C 0.67431 0.66439 0.31952 0.0
C542 C 0.69158 0.68408 0.32001 0.0
C543 C 0.68158 0.65987 0.3149 0.0
C544 C 0.6394 0.66017 0.31596 0.0
N545 N 0.64477 0.6601 0.32956 0.0
C546 C 0.63402 0.63888 0.33008 0.0
C547 C 0.64226 0.64976 0.33666 0.0
C548 C 0.62839 0.63863 0.31594 0.0
C549 C 0.63111 0.64948 0.30893 0.0
H550 H 0.64174 0.66853 0.31043 0.0
H551 H 0.64689 0.64992 0.3472 0.0
C552 C 0.69833 0.69081 0.3647 0.0
N553 N 0.68834 0.68194 0.35795 0.0
C554 C 0.70687 0.68846 0.37089 0.0
C555 C 0.6947 0.66794 0.36294 0.0
C556 C 0.68636 0.67066 0.35707 0.0
C557 C 0.7051 0.67689 0.37 0.0
H558 H 0.69962 0.69968 0.36537 0.0
H559 H 0.67824 0.66374 0.35188 0.0
C560 C 0.64392 0.68822 0.33364 0.0
N561 N 0.62201 0.6867 0.331 0.0
C562 C 0.64294 0.69729 0.32631 0.0
C563 C 0.6337 0.67827 0.33936 0.0
C564 C 0.63181 0.69639 0.32518 0.0
C565 C 0.62272 0.67769 0.33798 0.0
C566 C 0.68731 0.71299 0.34989 0.0
C567 C 0.68487 0.72175 0.35502 0.0
C568 C 0.69805 0.7163 0.34229 0.0
C569 C 0.69314 0.73369 0.35219 0.0
C570 C 0.70609 0.72833 0.33967 0.0
N571 N 0.70348 0.73671 0.34461 0.0
C572 C 0.65715 0.69542 0.38725 0.0
C573 C 0.65191 0.705 0.36789 0.0
C574 C 0.65381 0.70055 0.39915 0.0
N575 N 0.65613 0.69772 0.37198 0.0
C576 C 0.64848 0.71031 0.37939 0.0
C577 C 0.64952 0.70821 0.39528 0.0
H578 H 0.66077 0.68979 0.39018 0.0
H579 H 0.65153 0.70698 0.35572 0.0
C580 C 0.68337 0.70609 0.30188 0.0
N581 N 0.678 0.70748 0.31473 0.0
C582 C 0.68742 0.71454 0.2899 0.0
C583 C 0.68039 0.72567 0.3047 0.0
C584 C 0.67643 0.717 0.31631 0.0
C585 C 0.68593 0.72449 0.29123 0.0
H586 H 0.6844 0.69838 0.30086 0.0
H587 H 0.672 0.71779 0.32657 0.0
O588 O 0.66094 0.67603 0.36034 0.0
O589 O 0.67241 0.68114 0.32697 0.0
O590 O 0.65477 0.68895 0.33476 0.0
O591 O 0.67924 0.70124 0.35232 0.0
H592 H 0.66415 0.65951 0.37371 0.0
H593 H 0.64026 0.67323 0.37002 0.0
H594 H 0.64982 0.64389 0.3916 0.0
H595 H 0.62629 0.6573 0.3878 0.0
H596 H 0.70803 0.68492 0.31376 0.0
H597 H 0.66488 0.65845 0.32107 0.0
H598 H 0.69563 0.69354 0.32192 0.0
H599 H 0.67779 0.65044 0.31286 0.0
H600 H 0.63213 0.63076 0.33597 0.0
H601 H 0.62715 0.64972 0.2979 0.0
H602 H 0.7148 0.69561 0.37621 0.0
H603 H 0.69291 0.65887 0.36226 0.0
H604 H 0.6507 0.70498 0.32159 0.0
H605 H 0.63418 0.67097 0.34458 0.0
H606 H 0.63095 0.70339 0.31963 0.0
H607 H 0.61476 0.67004 0.34239 0.0
H608 H 0.67665 0.71937 0.36101 0.0
H609 H 0.70014 0.70965 0.3384 0.0
H610 H 0.69132 0.74056 0.356 0.0
H611 H 0.71439 0.73101 0.3337 0.0
H612 H 0.65494 0.69883 0.41125 0.0
H613 H 0.64516 0.7161 0.37586 0.0
H614 H 0.6917 0.71332 0.27974 0.0
H615 H 0.67886 0.73308 0.30608 0.0
Li616 Li 0.30018 0.97542 0.33097 0.0
Li617 Li 0.30488 0.97016 0.35636 0.0
Li618 Li 0.31323 0.99157 0.34924 0.0
Li619 Li 0.32082 0.97948 0.33764 0.0
C620 C 0.28725 0.98141 0.35267 0.0
N621 N 0.26903 0.98651 0.35379 0.0
C622 C 0.27678 0.97395 0.36083 0.0
C623 C 0.28851 0.99156 0.3453 0.0
C624 C 0.26765 0.97665 0.36119 0.0
C625 C 0.27919 0.99397 0.34595 0.0
C626 C 0.30063 0.9521 0.33782 0.0
C627 C 0.30141 0.93519 0.34789 0.0
N628 N 0.28987 0.928 0.34365 0.0
C629 C 0.28883 0.94453 0.33343 0.0
C630 C 0.30702 0.94739 0.34498 0.0
C631 C 0.28353 0.93237 0.33652 0.0
C632 C 0.29209 0.97153 0.29979 0.0
N633 N 0.28848 0.97033 0.31495 0.0
C634 C 0.26812 0.96038 0.30708 0.0
C635 C 0.27677 0.96489 0.31877 0.0
C636 C 0.27155 0.96133 0.29129 0.0
C637 C 0.28374 0.96712 0.2877 0.0
H638 H 0.30147 0.97572 0.29711 0.0
H639 H 0.27409 0.96372 0.3309 0.0
C640 C 0.30445 0.95863 0.38499 0.0
N641 N 0.29794 0.95873 0.37262 0.0
C642 C 0.29906 0.95013 0.3968 0.0
C643 C 0.28043 0.94208 0.38288 0.0
C644 C 0.28616 0.95071 0.3714 0.0
C645 C 0.28687 0.94173 0.39586 0.0
H646 H 0.31378 0.96519 0.38577 0.0
H647 H 0.28121 0.95102 0.36143 0.0
C648 C 0.31865 0.99913 0.31695 0.0
N649 N 0.32429 0.01789 0.29686 0.0
C650 C 0.33043 0.00664 0.3123 0.0
C651 C 0.30972 0.00103 0.31106 0.0
C652 C 0.33311 0.01612 0.30224 0.0
C653 C 0.31275 0.01059 0.30101 0.0
C654 C 0.33214 0.98681 0.36524 0.0
C655 C 0.34042 0.99866 0.36865 0.0
C656 C 0.33531 0.97809 0.36703 0.0
C657 C 0.35182 0.00161 0.37355 0.0
C658 C 0.34681 0.9814 0.37193 0.0
N659 N 0.35476 0.99299 0.37505 0.0
C660 C 0.31137 0.00798 0.369 0.0
C661 C 0.32736 0.01668 0.35095 0.0
C662 C 0.31459 0.01913 0.37522 0.0
N663 N 0.31768 0.00698 0.35697 0.0
C664 C 0.33093 0.02799 0.35686 0.0
C665 C 0.3245 0.02932 0.36915 0.0
H666 H 0.3039 0.0001 0.37386 0.0
H667 H 0.33247 0.01563 0.34178 0.0
C668 C 0.33397 0.97071 0.3217 0.0
N669 N 0.33476 0.98028 0.32927 0.0
C670 C 0.3441 0.9713 0.31512 0.0
C671 C 0.35564 0.99155 0.32436 0.0
C672 C 0.3453 0.99059 0.33066 0.0
C673 C 0.35513 0.98186 0.31635 0.0
H674 H 0.32545 0.96267 0.32059 0.0
H675 H 0.34567 0.9981 0.3366 0.0
O676 O 0.29626 0.97886 0.35219 0.0
O677 O 0.3059 0.96406 0.33517 0.0
O678 O 0.31587 0.98972 0.32667 0.0
O679 O 0.32097 0.98378 0.36028 0.0
H680 H 0.27569 0.96614 0.36678 0.0
H681 H 0.29667 0.99764 0.3394 0.0
H682 H 0.25948 0.97091 0.36738 0.0
H683 H 0.28007 0.0018 0.34028 0.0
H684 H 0.30622 0.93144 0.35351 0.0
H685 H 0.28376 0.948 0.32782 0.0
H686 H 0.3162 0.95309 0.3483 0.0
H687 H 0.27437 0.92643 0.33328 0.0
H688 H 0.25884 0.95606 0.3104 0.0
H689 H 0.28679 0.96789 0.27573 0.0
H690 H 0.30433 0.95027 0.40669 0.0
H691 H 0.27106 0.93567 0.38154 0.0
H692 H 0.33745 0.00523 0.31651 0.0
H693 H 0.30051 0.99511 0.31403 0.0
H694 H 0.3422 0.02205 0.29869 0.0
H695 H 0.30592 0.01217 0.29642 0.0
H696 H 0.33809 0.00551 0.36749 0.0
H697 H 0.32901 0.96888 0.36454 0.0
H698 H 0.35833 0.01075 0.37615 0.0
H699 H 0.34941 0.97474 0.37324 0.0
H700 H 0.30952 0.01973 0.38489 0.0
H701 H 0.33862 0.03561 0.35184 0.0
H702 H 0.34323 0.96367 0.30885 0.0
H703 H 0.36395 -0.00019 0.3258 0.0
Li704 Li 0.02433 0.32793 0.33014 0.0
Li705 Li 0.02945 0.33741 0.35747 0.0
Li706 Li 0.00889 0.32407 0.3492 0.0
Li707 Li 0.01979 0.34312 0.33796 0.0
C708 C 0.01546 0.30862 0.35531 0.0
N709 N 0.00153 0.28509 0.36389 0.0
C710 C 0.01401 0.30544 0.37112 0.0
C711 C 0.00985 0.29985 0.34386 0.0
C712 C 0.00692 0.29349 0.37522 0.0
C713 C 0.00284 0.288 0.34844 0.0
C714 C 0.04198 0.35538 0.32925 0.0
C715 C 0.05237 0.3768 0.33019 0.0
N716 N 0.05364 0.37715 0.31435 0.0
C717 C 0.04346 0.35595 0.313 0.0
C718 C 0.04654 0.36588 0.33794 0.0
C719 C 0.04936 0.36704 0.30568 0.0
C720 C 0.02744 0.32301 0.29881 0.0
N721 N 0.02953 0.32166 0.31403 0.0
C722 C 0.04012 0.31185 0.30657 0.0
C723 C 0.03563 0.31613 0.31811 0.0
C724 C 0.03845 0.31341 0.29067 0.0
C725 C 0.0319 0.31898 0.28686 0.0
H726 H 0.02256 0.32747 0.29596 0.0
H727 H 0.03709 0.31515 0.33035 0.0
C728 C 0.03671 0.33832 0.3888 0.0
N729 N 0.04054 0.34214 0.374 0.0
C730 C 0.04487 0.34165 0.40106 0.0
C731 C 0.06069 0.353 0.3826 0.0
C732 C 0.05224 0.34936 0.3707 0.0
C733 C 0.05707 0.34906 0.39802 0.0
H734 H 0.02732 0.33264 0.39105 0.0
H735 H 0.05501 0.35229 0.35881 0.0
C736 C 0.99892 0.32685 0.32189 0.0
N737 N 0.9776 0.32453 0.31223 0.0
C738 C 0.99332 0.33158 0.33094 0.0
C739 C 0.99369 0.32095 0.30791 0.0
C740 C 0.98255 0.33032 0.32587 0.0
C741 C 0.9829 0.31987 0.30323 0.0
C742 C 0.01476 0.34727 0.36986 0.0
C743 C 0.00364 0.3458 0.37369 0.0
C744 C 0.02503 0.35683 0.3762 0.0
C745 C 0.00301 0.35404 0.38357 0.0
C746 C 0.02401 0.36487 0.38604 0.0
N747 N 0.01312 0.36333 0.38947 0.0
C748 C 0.99144 0.31321 0.37227 0.0
C749 C 0.98577 0.30363 0.34756 0.0
C750 C 0.98037 0.3052 0.37858 0.0
N751 N 0.99385 0.31237 0.357 0.0
C752 C 0.97458 0.2954 0.35339 0.0
C753 C 0.97172 0.29618 0.36907 0.0
H754 H 0.9981 0.32021 0.37951 0.0
H755 H 0.988 0.30309 0.3355 0.0
C756 C 0.01759 0.35581 0.31317 0.0
N757 N 0.01879 0.35612 0.32901 0.0
C758 C 0.01666 0.36472 0.3054 0.0
C759 C 0.0183 0.37422 0.33034 0.0
C760 C 0.01927 0.36515 0.33761 0.0
C761 C 0.01693 0.37407 0.31401 0.0
H762 H 0.0174 0.34862 0.30656 0.0
H763 H 0.02038 0.3654 0.3501 0.0
O764 O 0.02208 0.3203 0.35106 0.0
O765 O 0.03592 0.3446 0.33657 0.0
O766 O 0.00945 0.32792 0.32662 0.0
O767 O 0.01552 0.33916 0.36043 0.0
H768 H 0.01824 0.31213 0.38012 0.0
H769 H 0.01077 0.30219 0.33158 0.0
H770 H 0.00568 0.29089 0.38741 0.0
H771 H 0.9984 0.28112 0.33971 0.0
H772 H 0.05586 0.385 0.33676 0.0
H773 H 0.03999 0.34792 0.3061 0.0
H774 H 0.0455 0.36561 0.35052 0.0
H775 H 0.0505 0.36761 0.29311 0.0
H776 H 0.0449 0.30741 0.3101 0.0
H777 H 0.03051 0.32052 0.2748 0.0
H778 H 0.04166 0.33828 0.41271 0.0
H779 H 0.06996 0.35887 0.37973 0.0
H780 H 0.99728 0.33621 0.34172 0.0
H781 H 0.99792 0.31724 0.30078 0.0
H782 H 0.97813 0.33394 0.33276 0.0
H783 H 0.97874 0.31531 0.29244 0.0
H784 H 0.99557 0.33835 0.36916 0.0
H785 H 0.0337 0.35812 0.37347 0.0
H786 H 0.99446 0.35303 0.38658 0.0
H787 H 0.0319 0.37234 0.39093 0.0
H788 H 0.97853 0.30623 0.39067 0.0
H789 H 0.96826 0.28847 0.34573 0.0
H790 H 0.01584 0.36434 0.29277 0.0
H791 H 0.01844 0.38118 0.33748 0.0
Li792 Li 0.67754 0.98973 0.34817 0.0
Li793 Li 0.66347 0.96899 0.35469 0.0
Li794 Li 0.67354 0.9742 0.32843 0.0
Li795 Li 0.65769 0.97833 0.33517 0.0
C796 C 0.69203 0.97886 0.35264 0.0
N797 N 0.71498 0.98388 0.35857 0.0
C798 C 0.69498 0.97624 0.36724 0.0
C799 C 0.70072 0.98384 0.34097 0.0
C800 C 0.70664 0.97891 0.37004 0.0
C801 C 0.71227 0.98637 0.34421 0.0
C802 C 0.65711 0.98157 0.37236 0.0
C803 C 0.6412 0.9714 0.391 0.0
N804 N 0.6486 0.97821 0.40268 0.0
C805 C 0.66453 0.98852 0.38452 0.0
C806 C 0.64533 0.97299 0.37558 0.0
C807 C 0.66007 0.98667 0.39978 0.0
C808 C 0.68745 0.01418 0.3514 0.0
N809 N 0.68875 0.00494 0.35616 0.0
C810 C 0.70506 0.0178 0.37257 0.0
C811 C 0.69731 0.00651 0.36658 0.0
C812 C 0.70393 0.02754 0.36791 0.0
C813 C 0.69498 0.02561 0.35713 0.0
H814 H 0.68045 0.01262 0.34326 0.0
H815 H 0.69803 0.99901 0.37044 0.0
C816 C 0.64958 0.94626 0.36826 0.0
N817 N 0.65823 0.95764 0.37117 0.0
C818 C 0.64592 0.93768 0.38001 0.0
C819 C 0.66008 0.95271 0.39755 0.0
C820 C 0.66345 0.961 0.38547 0.0
C821 C 0.65127 0.94085 0.39486 0.0
H822 H 0.64568 0.9438 0.35673 0.0
H823 H 0.67032 0.9701 0.38746 0.0
C824 C 0.68091 0.99707 0.31465 0.0
N825 N 0.69608 0.013 0.29257 0.0
C826 C 0.67636 0.99903 0.30087 0.0
C827 C 0.69316 0.00339 0.31731 0.0
C828 C 0.68418 0.00706 0.28981 0.0
C829 C 0.70069 0.01136 0.30598 0.0
C830 C 0.64652 0.95609 0.32537 0.0
C831 C 0.64709 0.95354 0.30959 0.0
C832 C 0.63547 0.95209 0.33246 0.0
C833 C 0.63656 0.94715 0.3011 0.0
C834 C 0.62514 0.94575 0.32357 0.0
N835 N 0.6259 0.94343 0.3082 0.0
C836 C 0.6827 0.96042 0.31673 0.0
C837 C 0.68108 0.97259 0.29743 0.0
C838 C 0.68674 0.95542 0.30557 0.0
N839 N 0.67996 0.96882 0.31249 0.0
C840 C 0.68511 0.96784 0.28588 0.0
C841 C 0.68791 0.95905 0.28986 0.0
H842 H 0.68153 0.95746 0.32876 0.0
H843 H 0.6786 0.97907 0.29426 0.0
C844 C 0.63821 0.98234 0.33589 0.0
N845 N 0.64497 0.97965 0.32649 0.0
C846 C 0.62897 0.98353 0.32955 0.0
C847 C 0.63386 0.97915 0.30399 0.0
C848 C 0.64299 0.97806 0.31082 0.0
C849 C 0.62674 0.98198 0.31337 0.0
H850 H 0.64007 0.98369 0.34829 0.0
H851 H 0.64852 0.97594 0.30362 0.0
O852 O 0.68061 0.97624 0.34971 0.0
O853 O 0.66137 0.98315 0.35737 0.0
O854 O 0.67334 0.98927 0.32563 0.0
O855 O 0.65674 0.96249 0.33381 0.0
H856 H 0.68837 0.97224 0.37636 0.0
H857 H 0.69856 0.98561 0.32945 0.0
H858 H 0.70906 0.977 0.38133 0.0
H859 H 0.71908 0.99025 0.33528 0.0
H860 H 0.63213 0.96474 0.39368 0.0
H861 H 0.67366 0.99521 0.38224 0.0
H862 H 0.63946 0.96756 0.3663 0.0
H863 H 0.66572 0.99194 0.40933 0.0
H864 H 0.71189 0.01888 0.38074 0.0
H865 H 0.69364 0.0328 0.3534 0.0
H866 H 0.63922 0.9286 0.37736 0.0
H867 H 0.66434 0.95556 0.40886 0.0
H868 H 0.66691 0.99436 0.29868 0.0
H869 H 0.69684 0.0023 0.32807 0.0
H870 H 0.68078 0.00859 0.27905 0.0
H871 H 0.71019 0.01629 0.30789 0.0
H872 H 0.65557 0.95653 0.30393 0.0
H873 H 0.63487 0.95397 0.34466 0.0
H874 H 0.63687 0.94517 0.28886 0.0
H875 H 0.61653 0.94267 0.32887 0.0
H876 H 0.68857 0.94851 0.30915 0.0
H877 H 0.68595 0.97096 0.27394 0.0
H878 H 0.62381 0.98588 0.33718 0.0
H879 H 0.63235 0.97773 0.29151 0.0
Li880 Li 0.02846 0.69401 0.35798 0.0
Li881 Li 0.00792 0.68739 0.3501 0.0
Li882 Li 0.01936 0.67861 0.33746 0.0
Li883 Li 0.02364 0.6988 0.33134 0.0
C884 C 0.01447 0.67172 0.37258 0.0
N885 N 0.01475 0.65938 0.39873 0.0
C886 C 0.0075 0.67067 0.38561 0.0
C887 C 0.02141 0.66629 0.37274 0.0
C888 C 0.00781 0.66446 0.39875 0.0
C889 C 0.02148 0.66015 0.38609 0.0
C890 C 0.01704 0.71037 0.3596 0.0
C891 C 0.00557 0.72028 0.35897 0.0
N892 N 0.00801 0.72307 0.37438 0.0
C893 C 0.01954 0.71346 0.37539 0.0
C894 C 0.0101 0.71391 0.35127 0.0
C895 C 0.01485 0.71984 0.38267 0.0
C896 C 0.0513 0.70736 0.37075 0.0
N897 N 0.03972 0.70005 0.37465 0.0
C898 C 0.04463 0.70245 0.40188 0.0
C899 C 0.03625 0.6976 0.38986 0.0
C900 C 0.05668 0.70999 0.3982 0.0
C901 C 0.05998 0.71239 0.38237 0.0
H902 H 0.05379 0.70942 0.35858 0.0
H903 H 0.02697 0.69209 0.39272 0.0
C904 C 0.98309 0.67697 0.34802 0.0
N905 N 0.99259 0.68361 0.35744 0.0
C906 C 0.97161 0.67352 0.35313 0.0
C907 C 0.97988 0.68384 0.37751 0.0
C908 C 0.99119 0.68701 0.37198 0.0
C909 C 0.9699 0.67695 0.36807 0.0
H910 H 0.98442 0.67421 0.33662 0.0
H911 H 0.99882 0.69196 0.37944 0.0
C912 C 0.04413 0.69153 0.33344 0.0
N913 N 0.06252 0.68753 0.32603 0.0
C914 C 0.04984 0.69512 0.31894 0.0
C915 C 0.04791 0.68608 0.34426 0.0
C916 C 0.05907 0.69296 0.31538 0.0
C917 C 0.05719 0.6841 0.34028 0.0
C918 C 0.00452 0.6846 0.31348 0.0
C919 C 0.00561 0.67871 0.30043 0.0
C920 C 0.99916 0.69153 0.31188 0.0
C921 C 0.00151 0.68006 0.2859 0.0
C922 C 0.99518 0.69267 0.29715 0.0
N923 N 0.99645 0.68697 0.28457 0.0
C924 C 0.01072 0.65394 0.33549 0.0
C925 C 0.02443 0.6654 0.31562 0.0
C926 C 0.00935 0.64347 0.32897 0.0
N927 N 0.01821 0.66461 0.32879 0.0
C928 C 0.02337 0.65518 0.30874 0.0
C929 C 0.0157 0.644 0.31537 0.0
H930 H 0.00566 0.65355 0.34575 0.0
H931 H 0.03004 0.67394 0.31024 0.0
C932 C 0.03224 0.72177 0.31854 0.0
N933 N 0.02923 0.71038 0.31516 0.0
C934 C 0.03716 0.73053 0.30698 0.0
C935 C 0.03558 0.71561 0.28865 0.0
C936 C 0.03078 0.70719 0.30058 0.0
C937 C 0.03901 0.72752 0.29181 0.0
H938 H 0.03114 0.72412 0.33031 0.0
H939 H 0.02856 0.69813 0.2983 0.0
O940 O 0.01424 0.67776 0.3596 0.0
O941 O 0.02151 0.70408 0.35231 0.0
O942 O 0.03503 0.69353 0.33708 0.0
O943 O 0.00856 0.68346 0.32778 0.0
H944 H 0.00197 0.67469 0.38564 0.0
H945 H 0.02658 0.66669 0.3626 0.0
H946 H 0.00253 0.66367 0.40897 0.0
H947 H 0.02684 0.65594 0.38638 0.0
H948 H 0.00014 0.72302 0.35268 0.0
H949 H 0.02497 0.71089 0.38199 0.0
H950 H 0.00827 0.7118 0.33899 0.0
H951 H 0.01665 0.72222 0.39491 0.0
H952 H 0.04169 0.70035 0.41392 0.0
H953 H 0.06912 0.71834 0.379 0.0
H954 H 0.96415 0.66824 0.34547 0.0
H955 H 0.97893 0.68647 0.38922 0.0
H956 H 0.04712 0.69946 0.31048 0.0
H957 H 0.04383 0.68355 0.35568 0.0
H958 H 0.06351 0.69562 0.30416 0.0
H959 H 0.06018 0.67987 0.34854 0.0
H960 H 0.00963 0.67322 0.30148 0.0
H961 H 0.99805 0.69596 0.32191 0.0
H962 H 0.00237 0.67562 0.27567 0.0
H963 H 0.99107 0.69806 0.29574 0.0
H964 H 0.00317 0.63505 0.33432 0.0
H965 H 0.0285 0.65603 0.29832 0.0
H966 H 0.03986 0.73962 0.31005 0.0
H967 H 0.0367 0.71284 0.27712 0.0
Li968 Li 0.31121 0.34057 0.3577 0.0
Li969 Li 0.31689 0.32563 0.35166 0.0
Li970 Li 0.32628 0.34526 0.33814 0.0
Li971 Li 0.30602 0.33006 0.33152 0.0
C972 C 0.33056 0.34631 0.37523 0.0
N973 N 0.33746 0.35537 0.40509 0.0
C974 C 0.33032 0.33899 0.38735 0.0
C975 C 0.33443 0.35827 0.37826 0.0
C976 C 0.33382 0.34373 0.40238 0.0
C977 C 0.33784 0.36267 0.39345 0.0
C978 C 0.29153 0.31264 0.35767 0.0
C979 C 0.27693 0.29218 0.35231 0.0
N980 N 0.27298 0.29092 0.36732 0.0
C981 C 0.28722 0.31117 0.37299 0.0
C982 C 0.28626 0.3031 0.34719 0.0
C983 C 0.27788 0.30011 0.37767 0.0
C984 C 0.30152 0.35408 0.36988 0.0
N985 N 0.3055 0.34656 0.37384 0.0
C986 C 0.30039 0.34688 0.40067 0.0
C987 C 0.30499 0.34291 0.38887 0.0
C988 C 0.29607 0.35452 0.3969 0.0
C989 C 0.29672 0.35817 0.38129 0.0
H990 H 0.3019 0.35674 0.35782 0.0
H991 H 0.30796 0.33672 0.39168 0.0
C992 C 0.33048 0.31481 0.35513 0.0
N993 N 0.32015 0.31401 0.35994 0.0
C994 C 0.33392 0.30696 0.36089 0.0
C995 C 0.31599 0.29758 0.37649 0.0
C996 C 0.31293 0.30565 0.37046 0.0
C997 C 0.32664 0.2982 0.37176 0.0
H998 H 0.33612 0.32165 0.34689 0.0
H999 H 0.30487 0.3053 0.37434 0.0
C1000 C 0.31652 0.35756 0.32841 0.0
N1001 N 0.3261 0.37866 0.312 0.0
C1002 C 0.31431 0.35748 0.31239 0.0
C1003 C 0.32347 0.36837 0.33613 0.0
C1004 C 0.31927 0.36824 0.30429 0.0
C1005 C 0.32827 0.37894 0.32761 0.0
C1006 C 0.32001 0.32088 0.31873 0.0
C1007 C 0.32671 0.3243 0.30494 0.0
C1008 C 0.3127 0.30882 0.32205 0.0
C1009 C 0.32581 0.31557 0.29455 0.0
C1010 C 0.31205 0.30035 0.31138 0.0
N1011 N 0.31854 0.30388 0.29795 0.0
C1012 C 0.35032 0.36385 0.33822 0.0
C1013 C 0.34119 0.35839 0.31326 0.0
C1014 C 0.36113 0.3721 0.33142 0.0
N1015 N 0.34067 0.35719 0.32908 0.0
C1016 C 0.35178 0.36654 0.30597 0.0
C1017 C 0.36198 0.37343 0.31506 0.0
H1018 H 0.34971 0.36257 0.35076 0.0
H1019 H 0.33338 0.3529 0.30628 0.0
C1020 C 0.28302 0.32017 0.31906 0.0
N1021 N 0.29451 0.32386 0.31528 0.0
C1022 C 0.27435 0.31621 0.3074 0.0
C1023 C 0.2895 0.31997 0.28817 0.0
C1024 C 0.29787 0.32384 0.30021 0.0
C1025 C 0.27756 0.31617 0.29169 0.0
H1026 H 0.28065 0.32053 0.33111 0.0
H1027 H 0.30711 0.32712 0.29746 0.0
O1028 O 0.3271 0.34181 0.36046 0.0
O1029 O 0.30063 0.32345 0.35289 0.0
O1030 O 0.31191 0.3471 0.33648 0.0
O1031 O 0.32082 0.32934 0.32902 0.0
H1032 H 0.3274 0.32973 0.38521 0.0
H1033 H 0.33473 0.36407 0.36901 0.0
H1034 H 0.33362 0.33815 0.41188 0.0
H1035 H 0.34078 0.37189 0.39598 0.0
H1036 H 0.2728 0.28473 0.34432 0.0
H1037 H 0.29108 0.31845 0.38123 0.0
H1038 H 0.28922 0.30412 0.33517 0.0
H1039 H 0.27452 0.29884 0.38953 0.0
H1040 H 0.29985 0.34369 0.41251 0.0
H1041 H 0.29351 0.36409 0.37793 0.0
H1042 H 0.3423 0.3079 0.35711 0.0
H1043 H 0.31005 0.29092 0.38473 0.0
H1044 H 0.30892 0.34919 0.30625 0.0
H1045 H 0.32517 0.36858 0.34854 0.0
H1046 H 0.3177 0.36831 0.29186 0.0
H1047 H 0.33373 0.38737 0.33342 0.0
H1048 H 0.33252 0.33359 0.30225 0.0
H1049 H 0.3077 0.30599 0.33282 0.0
H1050 H 0.33089 0.3181 0.2838 0.0
H1051 H 0.30641 0.29098 0.31381 0.0
H1052 H 0.3688 0.3771 0.33886 0.0
H1053 H 0.35199 0.36738 0.29334 0.0
H1054 H 0.2653 0.31359 0.31062 0.0
H1055 H 0.29236 0.32006 0.27623 0.0
Li1056 Li 0.32267 0.00895 0.67017 0.0
Li1057 Li 0.34229 0.02008 0.68211 0.0
Li1058 Li 0.32605 0.02478 0.688 0.0
Li1059 Li 0.33642 0.0303 0.66269 0.0
C1060 C 0.32005 0.99891 0.69836 0.0
N1061 N 0.30636 0.97584 0.70894 0.0
C1062 C 0.32525 0.99193 0.70108 0.0
C1063 C 0.30793 0.99423 0.70127 0.0
C1064 C 0.31816 0.98027 0.70637 0.0
C1065 C 0.30115 0.98252 0.70653 0.0
C1066 C 0.34701 0.01572 0.65096 0.0
C1067 C 0.3662 0.02549 0.63831 0.0
N1068 N 0.3644 0.01475 0.63342 0.0
C1069 C 0.34528 0.0048 0.64561 0.0
C1070 C 0.3575 0.02616 0.64712 0.0
C1071 C 0.3542 0.00449 0.63684 0.0
C1072 C 0.30134 0.99188 0.65541 0.0
N1073 N 0.31147 0.99366 0.66241 0.0
C1074 C 0.30615 0.97346 0.65781 0.0
C1075 C 0.31402 0.98476 0.66364 0.0
C1076 C 0.29562 0.97136 0.65045 0.0
C1077 C 0.29324 0.98073 0.6493 0.0
H1078 H 0.29959 0.99915 0.65442 0.0
H1079 H 0.32225 0.98648 0.66901 0.0
C1080 C 0.36153 0.02633 0.70258 0.0
N1081 N 0.35513 0.01891 0.69069 0.0
C1082 C 0.37088 0.02555 0.70932 0.0
C1083 C 0.3667 0.00934 0.6917 0.0
C1084 C 0.35745 0.01045 0.68529 0.0
C1085 C 0.37356 0.01695 0.70389 0.0
H1086 H 0.3593 0.03278 0.70691 0.0
H1087 H 0.352 0.00442 0.67619 0.0
C1088 C 0.31011 0.02451 0.66745 0.0
N1089 N 0.2923 0.03014 0.66959 0.0
C1090 C 0.31149 0.03479 0.6603 0.0
C1091 C 0.29959 0.01701 0.67548 0.0
C1092 C 0.3024 0.0375 0.66156 0.0
C1093 C 0.29072 0.02004 0.67649 0.0
C1094 C 0.35298 0.04687 0.68506 0.0
C1095 C 0.35201 0.05618 0.69169 0.0
C1096 C 0.36407 0.04894 0.67992 0.0
C1097 C 0.36208 0.06747 0.69272 0.0
C1098 C 0.37394 0.06035 0.68117 0.0
N1099 N 0.37275 0.06931 0.68747 0.0
C1100 C 0.31645 0.02479 0.71789 0.0
C1101 C 0.31867 0.04002 0.70063 0.0
C1102 C 0.31235 0.02925 0.72976 0.0
N1103 N 0.31954 0.03025 0.7037 0.0
C1104 C 0.31447 0.04468 0.71205 0.0
C1105 C 0.31136 0.03935 0.72688 0.0
H1106 H 0.31739 0.01712 0.72009 0.0
H1107 H 0.32151 0.0444 0.68942 0.0
C1108 C 0.34187 0.03824 0.63131 0.0
N1109 N 0.3417 0.04171 0.64629 0.0
C1110 C 0.34537 0.04644 0.61907 0.0
C1111 C 0.34836 0.06158 0.63792 0.0
C1112 C 0.34475 0.05309 0.64975 0.0
C1113 C 0.34867 0.0583 0.62234 0.0
H1114 H 0.33919 0.02907 0.62885 0.0
H1115 H 0.34408 0.05553 0.66162 0.0
O1116 O 0.32681 0.0103 0.69299 0.0
O1117 O 0.33835 0.01617 0.65955 0.0
O1118 O 0.31896 0.02177 0.66646 0.0
O1119 O 0.34318 0.03575 0.68399 0.0
H1120 H 0.33462 0.99544 0.69902 0.0
H1121 H 0.30381 0.99956 0.69947 0.0
H1122 H 0.32205 0.97474 0.70841 0.0
H1123 H 0.29174 0.97876 0.70873 0.0
H1124 H 0.37436 0.03351 0.6353 0.0
H1125 H 0.33717 0.99664 0.64826 0.0
H1126 H 0.35884 0.03472 0.65069 0.0
H1127 H 0.35301 0.99609 0.63274 0.0
H1128 H 0.30842 0.96653 0.65872 0.0
H1129 H 0.28519 0.97946 0.64379 0.0
H1130 H 0.3758 0.03145 0.71889 0.0
H1131 H 0.36847 0.00261 0.68713 0.0
H1132 H 0.31951 0.04064 0.65391 0.0
H1133 H 0.29831 0.00895 0.6809 0.0
H1134 H 0.30339 0.04546 0.65617 0.0
H1135 H 0.28257 0.01434 0.68276 0.0
H1136 H 0.34355 0.05473 0.69592 0.0
H1137 H 0.36511 0.0418 0.67526 0.0
H1138 H 0.36143 0.07477 0.69772 0.0
H1139 H 0.38257 0.06207 0.67722 0.0
H1140 H 0.31005 0.02491 0.74107 0.0
H1141 H 0.31407 0.05262 0.70947 0.0
H1142 H 0.34549 0.04354 0.60721 0.0
H1143 H 0.35054 0.07055 0.6409 0.0
Li1144 Li 0.99054 0.31238 0.66834 0.0
Li1145 Li 0.97945 0.32104 0.67983 0.0
Li1146 Li 0.97436 0.30063 0.68587 0.0
Li1147 Li 0.9702 0.3059 0.66016 0.0
C1148 C 0.00068 0.32073 0.69531 0.0
N1149 N 0.02451 0.33159 0.70282 0.0
C1150 C 0.00761 0.33312 0.69555 0.0
C1151 C 0.00584 0.31386 0.69898 0.0
C1152 C 0.01965 0.33844 0.69937 0.0
C1153 C 0.01791 0.31951 0.70271 0.0
C1154 C 0.98325 0.32419 0.64274 0.0
C1155 C 0.97375 0.32976 0.62297 0.0
N1156 N 0.97984 0.32761 0.6117 0.0
C1157 C 0.98942 0.32204 0.63097 0.0
C1158 C 0.97536 0.3281 0.63873 0.0
C1159 C 0.98758 0.32384 0.61534 0.0
C1160 C 0.00879 0.30765 0.65866 0.0
N1161 N 0.00592 0.31622 0.66125 0.0
C1162 C 0.02516 0.33131 0.65278 0.0
C1163 C 0.01382 0.32787 0.65847 0.0
C1164 C 0.02837 0.32266 0.6499 0.0
C1165 C 0.02005 0.3107 0.65302 0.0
H1166 H 0.00229 0.29844 0.66075 0.0
H1167 H 0.01126 0.33448 0.66055 0.0
C1168 C 0.97992 0.33552 0.70449 0.0
N1169 N 0.98092 0.33511 0.68869 0.0
C1170 C 0.98092 0.34564 0.71163 0.0
C1171 C 0.98432 0.35486 0.68614 0.0
C1172 C 0.98315 0.34451 0.67947 0.0
C1173 C 0.98317 0.35549 0.70243 0.0
H1174 H 0.97836 0.32797 0.71153 0.0
H1175 H 0.98408 0.344 0.66697 0.0
C1176 C 0.97362 0.28428 0.66696 0.0
N1177 N 0.96531 0.26042 0.6722 0.0
C1178 C 0.96283 0.27569 0.66045 0.0
C1179 C 0.9802 0.28073 0.67609 0.0
C1180 C 0.95878 0.26367 0.66324 0.0
C1181 C 0.97584 0.26863 0.67863 0.0
C1182 C 0.95728 0.31049 0.6891 0.0
C1183 C 0.95467 0.30722 0.70482 0.0
C1184 C 0.95396 0.31821 0.68246 0.0
C1185 C 0.94882 0.31178 0.71367 0.0
C1186 C 0.94815 0.3226 0.69171 0.0
N1187 N 0.94572 0.31932 0.70699 0.0
C1188 C 0.97409 0.28992 0.71509 0.0
C1189 C 0.95703 0.27924 0.69916 0.0
C1190 C 0.96894 0.28139 0.72691 0.0
N1191 N 0.96807 0.28869 0.70158 0.0
C1192 C 0.95163 0.27044 0.71053 0.0
C1193 C 0.9575 0.2715 0.72476 0.0
H1194 H 0.98276 0.29766 0.71683 0.0
H1195 H 0.95235 0.27863 0.68843 0.0
C1196 C 0.96225 0.29591 0.63016 0.0
N1197 N 0.9594 0.30014 0.64302 0.0
C1198 C 0.95425 0.29106 0.61774 0.0
C1199 C 0.94064 0.29521 0.63193 0.0
C1200 C 0.94888 0.29993 0.6441 0.0
C1201 C 0.94321 0.29056 0.61858 0.0
H1202 H 0.97064 0.29607 0.62972 0.0
H1203 H 0.9468 0.30326 0.6545 0.0
O1204 O 0.98895 0.31535 0.6912 0.0
O1205 O 0.98471 0.32221 0.65809 0.0
O1206 O 0.97767 0.2961 0.66454 0.0
O1207 O 0.96321 0.3063 0.68031 0.0
H1208 H 0.00378 0.33858 0.69264 0.0
H1209 H 0.00061 0.30426 0.69878 0.0
H1210 H 0.02514 0.34802 0.69953 0.0
H1211 H 0.02205 0.31431 0.70548 0.0
H1212 H 0.96761 0.3327 0.61969 0.0
H1213 H 0.99546 0.31889 0.63383 0.0
H1214 H 0.9704 0.32965 0.64768 0.0
H1215 H 0.99226 0.32217 0.6061 0.0
H1216 H 0.03134 0.34064 0.65068 0.0
H1217 H 0.02211 0.30373 0.65075 0.0
H1218 H 0.98017 0.34583 0.72425 0.0
H1219 H 0.98601 0.36225 0.67863 0.0
H1220 H 0.95757 0.27826 0.65346 0.0
H1221 H 0.9885 0.28725 0.68137 0.0
H1222 H 0.95043 0.25693 0.65832 0.0
H1223 H 0.9808 0.26576 0.68576 0.0
H1224 H 0.95722 0.30131 0.71019 0.0
H1225 H 0.95605 0.32096 0.67038 0.0
H1226 H 0.94678 0.30936 0.72586 0.0
H1227 H 0.94562 0.32866 0.68676 0.0
H1228 H 0.97374 0.28272 0.73776 0.0
H1229 H 0.9429 0.26292 0.70819 0.0
H1230 H 0.95655 0.28742 0.60781 0.0
H1231 H 0.93232 0.29516 0.63302 0.0
Li1232 Li 0.68172 0.67501 0.66918 0.0
Li1233 Li 0.67292 0.6554 0.68109 0.0
Li1234 Li 0.69341 0.67061 0.68666 0.0
Li1235 Li 0.68776 0.66078 0.66118 0.0
C1236 C 0.67402 0.67754 0.6965 0.0
N1237 N 0.66408 0.69121 0.70475 0.0
C1238 C 0.66174 0.67224 0.69855 0.0
C1239 C 0.68125 0.68979 0.69873 0.0
C1240 C 0.65688 0.6793 0.70272 0.0
C1241 C 0.67605 0.69655 0.70286 0.0
C1242 C 0.66912 0.65546 0.64412 0.0
C1243 C 0.66311 0.64002 0.62468 0.0
N1244 N 0.66458 0.64796 0.61333 0.0
C1245 C 0.67055 0.66347 0.63227 0.0
C1246 C 0.66533 0.64363 0.64033 0.0
C1247 C 0.66821 0.6595 0.61677 0.0
C1248 C 0.68676 0.69737 0.65678 0.0
N1249 N 0.67809 0.68655 0.6618 0.0
C1250 C 0.66307 0.69123 0.65533 0.0
C1251 C 0.66642 0.68334 0.66112 0.0
C1252 C 0.67179 0.70247 0.64992 0.0
C1253 C 0.68379 0.70552 0.65077 0.0
H1254 H 0.69595 0.69958 0.65719 0.0
H1255 H 0.65972 0.67459 0.66498 0.0
C1256 C 0.65821 0.64217 0.70605 0.0
N1257 N 0.65874 0.64318 0.6902 0.0
C1258 C 0.64765 0.63397 0.71337 0.0
C1259 C 0.63841 0.62798 0.6879 0.0
C1260 C 0.64917 0.63628 0.68107 0.0
C1261 C 0.63751 0.62684 0.70429 0.0
H1262 H 0.66593 0.64793 0.71301 0.0
H1263 H 0.64978 0.63746 0.66852 0.0
C1264 C 0.70977 0.68551 0.66744 0.0
N1265 N 0.73382 0.70023 0.6725 0.0
C1266 C 0.71788 0.68227 0.66196 0.0
C1267 C 0.71389 0.69627 0.67542 0.0
C1268 C 0.73 0.68983 0.66464 0.0
C1269 C 0.72608 0.70357 0.67789 0.0
C1270 C 0.68305 0.6435 0.6902 0.0
C1271 C 0.68587 0.64416 0.70608 0.0
C1272 C 0.67554 0.63244 0.68335 0.0
C1273 C 0.68108 0.63372 0.71489 0.0
C1274 C 0.67091 0.62221 0.69256 0.0
N1275 N 0.67375 0.62305 0.70801 0.0
C1276 C 0.70524 0.68271 0.71467 0.0
C1277 C 0.71412 0.67349 0.70048 0.0
C1278 C 0.71392 0.68632 0.72631 0.0
N1279 N 0.70551 0.67641 0.70212 0.0
C1280 C 0.72298 0.67695 0.71177 0.0
C1281 C 0.72289 0.68334 0.72501 0.0
H1282 H 0.69817 0.68473 0.71581 0.0
H1283 H 0.714 0.66833 0.69047 0.0
C1284 C 0.69673 0.66245 0.63085 0.0
N1285 N 0.69336 0.65567 0.644 0.0
C1286 C 0.70187 0.65971 0.61839 0.0
C1287 C 0.69989 0.64297 0.63317 0.0
C1288 C 0.69474 0.64603 0.64535 0.0
C1289 C 0.70371 0.64997 0.61955 0.0
H1290 H 0.69568 0.67018 0.63023 0.0
H1291 H 0.69219 0.64093 0.65606 0.0
O1292 O 0.67893 0.67081 0.69214 0.0
O1293 O 0.67158 0.65922 0.65933 0.0
O1294 O 0.69784 0.67812 0.66521 0.0
O1295 O 0.68747 0.65363 0.68143 0.0
H1296 H 0.65599 0.66279 0.69678 0.0
H1297 H 0.69077 0.69405 0.69709 0.0
H1298 H 0.64738 0.67533 0.70427 0.0
H1299 H 0.68154 0.70604 0.70451 0.0
H1300 H 0.66024 0.6309 0.62157 0.0
H1301 H 0.67355 0.67267 0.63496 0.0
H1302 H 0.66426 0.63734 0.64934 0.0
H1303 H 0.66933 0.66561 0.60746 0.0
H1304 H 0.65373 0.68854 0.65511 0.0
H1305 H 0.69081 0.714 0.64649 0.0
H1306 H 0.64741 0.6333 0.72602 0.0
H1307 H 0.63077 0.62282 0.68046 0.0
H1308 H 0.71485 0.67394 0.65586 0.0
H1309 H 0.70774 0.69888 0.67981 0.0
H1310 H 0.73638 0.68741 0.66053 0.0
H1311 H 0.7294 0.71188 0.68414 0.0
H1312 H 0.6916 0.65264 0.71161 0.0
H1313 H 0.6732 0.63178 0.67109 0.0
H1314 H 0.68315 0.63409 0.72721 0.0
H1315 H 0.66503 0.6136 0.68743 0.0
H1316 H 0.71341 0.69108 0.73642 0.0
H1317 H 0.72979 0.67459 0.71016 0.0
H1318 H 0.70456 0.66527 0.60805 0.0
H1319 H 0.7013 0.63551 0.63469 0.0
Li1320 Li 0.34373 0.32542 0.68109 0.0
Li1321 Li 0.32887 0.30484 0.6876 0.0
Li1322 Li 0.33851 0.30985 0.66097 0.0
Li1323 Li 0.32368 0.3151 0.66874 0.0
C1324 C 0.35675 0.3128 0.68525 0.0
N1325 N 0.37876 0.31549 0.69197 0.0
C1326 C 0.35909 0.31 0.70013 0.0
C1327 C 0.36556 0.31677 0.67371 0.0
C1328 C 0.37029 0.31148 0.70332 0.0
C1329 C 0.37664 0.31812 0.67735 0.0
C1330 C 0.32385 0.31833 0.70598 0.0
C1331 C 0.3082 0.30869 0.7251 0.0
N1332 N 0.31579 0.31574 0.73647 0.0
C1333 C 0.33148 0.32554 0.71783 0.0
C1334 C 0.3121 0.30989 0.7096 0.0
C1335 C 0.32724 0.32407 0.73318 0.0
C1336 C 0.35491 0.34992 0.68482 0.0
N1337 N 0.35564 0.34027 0.68918 0.0
C1338 C 0.37227 0.35229 0.70563 0.0
C1339 C 0.36409 0.34123 0.69938 0.0
C1340 C 0.37168 0.36242 0.70145 0.0
C1341 C 0.36288 0.36114 0.69082 0.0
H1342 H 0.34798 0.34884 0.67685 0.0
H1343 H 0.36438 0.33343 0.7029 0.0
C1344 C 0.31511 0.28187 0.70048 0.0
N1345 N 0.3234 0.29329 0.70386 0.0
C1346 C 0.31134 0.27311 0.71202 0.0
C1347 C 0.32458 0.28809 0.73034 0.0
C1348 C 0.32814 0.29653 0.71843 0.0
C1349 C 0.31617 0.27616 0.72717 0.0
H1350 H 0.31159 0.27951 0.68874 0.0
H1351 H 0.33479 0.30565 0.72079 0.0
C1352 C 0.34756 0.33311 0.64817 0.0
N1353 N 0.36413 0.34866 0.62697 0.0
C1354 C 0.34386 0.33637 0.63465 0.0
C1355 C 0.35969 0.33791 0.65101 0.0
C1356 C 0.35237 0.34419 0.62403 0.0
C1357 C 0.36793 0.34572 0.64014 0.0
C1358 C 0.3112 0.29326 0.65854 0.0
C1359 C 0.31137 0.29166 0.64238 0.0
C1360 C 0.30036 0.28926 0.66623 0.0
C1361 C 0.30066 0.28619 0.63412 0.0
C1362 C 0.28984 0.28386 0.65756 0.0
N1363 N 0.29021 0.28245 0.64182 0.0
C1364 C 0.34592 0.29487 0.64861 0.0
C1365 C 0.34592 0.30824 0.6298 0.0
C1366 C 0.34963 0.28964 0.63735 0.0
N1367 N 0.34418 0.30399 0.64468 0.0
C1368 C 0.34967 0.30329 0.61815 0.0
C1369 C 0.35153 0.29382 0.62184 0.0
H1370 H 0.34429 0.29157 0.6605 0.0
H1371 H 0.34424 0.31532 0.62687 0.0
C1372 C 0.30469 0.31979 0.67092 0.0
N1373 N 0.3114 0.31749 0.66087 0.0
C1374 C 0.29601 0.3221 0.6652 0.0
C1375 C 0.30128 0.31958 0.63888 0.0
C1376 C 0.30983 0.31729 0.64513 0.0
C1377 C 0.29429 0.32213 0.64895 0.0
H1378 H 0.30619 0.32 0.68338 0.0
H1379 H 0.31534 0.3155 0.63741 0.0
O1380 O 0.34578 0.31129 0.68192 0.0
O1381 O 0.32787 0.31957 0.6909 0.0
O1382 O 0.33931 0.32546 0.65868 0.0
O1383 O 0.32161 0.2988 0.66677 0.0
H1384 H 0.35238 0.30679 0.70917 0.0
H1385 H 0.36387 0.31867 0.662 0.0
H1386 H 0.37223 0.30943 0.71483 0.0
H1387 H 0.38354 0.32122 0.66853 0.0
H1388 H 0.29916 0.30214 0.72809 0.0
H1389 H 0.34058 0.33214 0.71524 0.0
H1390 H 0.30609 0.30424 0.70058 0.0
H1391 H 0.33305 0.32955 0.74249 0.0
H1392 H 0.37897 0.35287 0.71367 0.0
H1393 H 0.36195 0.36865 0.68745 0.0
H1394 H 0.30497 0.264 0.70896 0.0
H1395 H 0.32843 0.2909 0.74188 0.0
H1396 H 0.33452 0.33287 0.63232 0.0
H1397 H 0.36275 0.33577 0.66159 0.0
H1398 H 0.34962 0.34673 0.61348 0.0
H1399 H 0.37735 0.34948 0.6422 0.0
H1400 H 0.31969 0.2947 0.63625 0.0
H1401 H 0.30008 0.29041 0.67874 0.0
H1402 H 0.30065 0.28494 0.62159 0.0
H1403 H 0.28139 0.28079 0.66334 0.0
H1404 H 0.35072 0.28222 0.64069 0.0
H1405 H 0.35108 0.30683 0.60638 0.0
H1406 H 0.29073 0.32388 0.6734 0.0
H1407 H 0.30039 0.31967 0.62629 0.0
Li1408 Li 0.67857 0.0208 0.68051 0.0
Li1409 Li 0.69877 0.0252 0.68678 0.0
Li1410 Li 0.69366 0.03009 0.66068 0.0
Li1411 Li 0.68721 0.00948 0.66726 0.0
C1412 C 0.69011 0.04367 0.68945 0.0
N1413 N 0.68318 0.05761 0.70566 0.0
C1414 C 0.69444 0.04771 0.70453 0.0
C1415 C 0.68236 0.04686 0.68255 0.0
C1416 C 0.69081 0.05472 0.71255 0.0
C1417 C 0.67893 0.05387 0.69096 0.0
C1418 C 0.68294 0.00301 0.70209 0.0
C1419 C 0.68665 0.98818 0.71337 0.0
N1420 N 0.68127 0.98857 0.72685 0.0
C1421 C 0.67727 0.00311 0.71598 0.0
C1422 C 0.68752 0.99536 0.70071 0.0
C1423 C 0.6766 0.99581 0.72839 0.0
C1424 C 0.65439 0.01445 0.68041 0.0
N1425 N 0.66442 0.0193 0.68927 0.0
C1426 C 0.65416 0.02187 0.71079 0.0
C1427 C 0.66447 0.0229 0.70423 0.0
C1428 C 0.64367 0.01691 0.70192 0.0
C1429 C 0.64384 0.01314 0.68655 0.0
H1430 H 0.65458 0.01155 0.66859 0.0
H1431 H 0.6725 0.02656 0.71111 0.0
C1432 C 0.72214 0.03744 0.69836 0.0
N1433 N 0.71058 0.0307 0.70275 0.0
C1434 C 0.7311 0.04244 0.70963 0.0
C1435 C 0.71609 0.03353 0.72978 0.0
C1436 C 0.70743 0.02866 0.7181 0.0
C1437 C 0.72811 0.04063 0.72561 0.0
H1438 H 0.72439 0.03912 0.68608 0.0
H1439 H 0.69818 0.02366 0.72133 0.0
C1440 C 0.67465 0.01765 0.64346 0.0
N1441 N 0.6695 0.02161 0.61347 0.0
C1442 C 0.67618 0.01177 0.63076 0.0
C1443 C 0.67036 0.02544 0.64094 0.0
C1444 C 0.67356 0.01391 0.61567 0.0
C1445 C 0.66785 0.02736 0.62568 0.0
C1446 C 0.71208 0.0196 0.66343 0.0
C1447 C 0.7186 0.02226 0.64952 0.0
C1448 C 0.71424 0.01361 0.67538 0.0
C1449 C 0.727 0.01865 0.64767 0.0
C1450 C 0.72272 0.01016 0.6731 0.0
N1451 N 0.72886 0.01272 0.6594 0.0
C1452 C 0.70087 0.05221 0.64593 0.0
C1453 C 0.70247 0.03803 0.63024 0.0
C1454 C 0.70546 0.06054 0.63385 0.0
N1455 N 0.69949 0.04122 0.64393 0.0
C1456 C 0.70714 0.04609 0.61787 0.0
C1457 C 0.70877 0.05757 0.61961 0.0
H1458 H 0.69853 0.05456 0.65696 0.0
H1459 H 0.70132 0.02925 0.629 0.0
C1460 C 0.67363 0.98468 0.66508 0.0
N1461 N 0.68341 0.99435 0.6592 0.0
C1462 C 0.67004 0.97337 0.65914 0.0
C1463 C 0.6866 0.9822 0.6411 0.0
C1464 C 0.68986 0.99333 0.6474 0.0
C1465 C 0.67653 0.97203 0.64692 0.0
H1466 H 0.66854 0.98579 0.67428 0.0
H1467 H 0.6974 0.00117 0.64262 0.0
O1468 O 0.69348 0.0367 0.68148 0.0
O1469 O 0.68355 0.01001 0.68976 0.0
O1470 O 0.6774 0.01585 0.65828 0.0
O1471 O 0.70379 0.02305 0.66538 0.0
H1472 H 0.70052 0.04544 0.71 0.0
H1473 H 0.67895 0.04385 0.6709 0.0
H1474 H 0.69406 0.05786 0.72424 0.0
H1475 H 0.67287 0.05631 0.68581 0.0
H1476 H 0.6902 0.98226 0.71245 0.0
H1477 H 0.67352 0.00882 0.71722 0.0
H1478 H 0.69158 0.99482 0.68992 0.0
H1479 H 0.67233 0.99589 0.73924 0.0
H1480 H 0.65435 0.02472 0.72276 0.0
H1481 H 0.63594 0.00932 0.67932 0.0
H1482 H 0.74025 0.04777 0.70585 0.0
H1483 H 0.71334 0.03211 0.74193 0.0
H1484 H 0.67947 0.0057 0.63249 0.0
H1485 H 0.66902 0.02999 0.65064 0.0
H1486 H 0.67479 0.00948 0.60572 0.0
H1487 H 0.6646 0.03342 0.62355 0.0
H1488 H 0.71717 0.02702 0.64021 0.0
H1489 H 0.70957 0.0118 0.68638 0.0
H1490 H 0.73205 0.02059 0.63692 0.0
H1491 H 0.72446 0.00551 0.68226 0.0
H1492 H 0.70643 0.06922 0.63567 0.0
H1493 H 0.70971 0.04345 0.60721 0.0
H1494 H 0.66211 0.9658 0.66381 0.0
H1495 H 0.6919 0.98158 0.63175 0.0
Li1496 Li 0.97485 0.67201 0.68863 0.0
Li1497 Li 0.97866 0.65605 0.68155 0.0
Li1498 Li 0.99059 0.67614 0.66918 0.0
Li1499 Li 0.96989 0.66245 0.66196 0.0
C1500 C 0.9971 0.67858 0.70321 0.0
N1501 N 0.0122 0.69284 0.72665 0.0
C1502 C 0.99811 0.67353 0.71714 0.0
C1503 C 0.00397 0.69087 0.7011 0.0
C1504 C 0.00572 0.68089 0.72888 0.0
C1505 C 0.0115 0.69793 0.71311 0.0
C1506 C 0.95603 0.64476 0.68997 0.0
C1507 C 0.94555 0.62333 0.68985 0.0
N1508 N 0.94231 0.6233 0.70501 0.0
C1509 C 0.95251 0.64452 0.7055 0.0
C1510 C 0.95243 0.63409 0.68202 0.0
C1511 C 0.9456 0.63358 0.71292 0.0
C1512 C 0.96357 0.68383 0.70159 0.0
N1513 N 0.96973 0.67825 0.70513 0.0
C1514 C 0.96731 0.68021 0.73252 0.0
C1515 C 0.97166 0.67638 0.72023 0.0
C1516 C 0.9609 0.68599 0.72922 0.0
C1517 C 0.95914 0.68789 0.71351 0.0
H1518 H 0.9619 0.68492 0.68948 0.0
H1519 H 0.97624 0.67159 0.72275 0.0
C1520 C 0.98264 0.63653 0.6808 0.0
N1521 N 0.97954 0.64304 0.69006 0.0
C1522 C 0.98362 0.62716 0.68715 0.0
C1523 C 0.97812 0.63139 0.7124 0.0
C1524 C 0.97726 0.64065 0.70556 0.0
C1525 C 0.98143 0.62456 0.70319 0.0
H1526 H 0.98453 0.63871 0.66853 0.0
H1527 H 0.97481 0.64599 0.71264 0.0
C1528 C 0.9804 0.69111 0.66467 0.0
N1529 N 0.98651 0.71438 0.65877 0.0
C1530 C 0.97781 0.69424 0.65017 0.0
C1531 C 0.98591 0.69979 0.67625 0.0
C1532 C 0.98103 0.70606 0.64738 0.0
C1533 C 0.98897 0.71151 0.67303 0.0
C1534 C 0.98276 0.65615 0.64442 0.0
C1535 C 0.98997 0.66386 0.63265 0.0
C1536 C 0.9744 0.64439 0.64068 0.0
C1537 C 0.98857 0.65971 0.61725 0.0
C1538 C 0.97326 0.64059 0.62514 0.0
N1539 N 0.9803 0.64827 0.61384 0.0
C1540 C 0.01515 0.68603 0.66675 0.0
C1541 C 0.00774 0.69596 0.65124 0.0
C1542 C 0.02667 0.6936 0.66136 0.0
N1543 N 0.00598 0.68736 0.66167 0.0
C1544 C 0.01912 0.70377 0.64559 0.0
C1545 C 0.02879 0.70261 0.65058 0.0
H1546 H 0.01345 0.67899 0.67488 0.0
H1547 H 0.00031 0.69669 0.64707 0.0
C1548 C 0.9475 0.64896 0.64717 0.0
N1549 N 0.95898 0.65764 0.64498 0.0
C1550 C 0.93938 0.64542 0.63484 0.0
C1551 C 0.95506 0.65982 0.61824 0.0
C1552 C 0.96285 0.66308 0.63088 0.0
C1553 C 0.94312 0.65091 0.62014 0.0
H1554 H 0.9446 0.64488 0.65854 0.0
H1555 H 0.97202 0.66998 0.62947 0.0
O1556 O 0.98973 0.67146 0.69154 0.0
O1557 O 0.96295 0.6554 0.68258 0.0
O1558 O 0.9773 0.67955 0.66756 0.0
O1559 O 0.9839 0.66009 0.65954 0.0
H1560 H 0.99303 0.66403 0.71892 0.0
H1561 H 0.00365 0.69494 0.69025 0.0
H1562 H 0.00651 0.67709 0.73976 0.0
H1563 H 0.01683 0.70746 0.71162 0.0
H1564 H 0.94278 0.615 0.68388 0.0
H1565 H 0.95511 0.65268 0.71178 0.0
H1566 H 0.95501 0.63411 0.66999 0.0
H1567 H 0.94287 0.63327 0.72496 0.0
H1568 H 0.96885 0.67856 0.74448 0.0
H1569 H 0.95405 0.69211 0.71046 0.0
H1570 H 0.98633 0.62221 0.67967 0.0
H1571 H 0.97621 0.6296 0.72476 0.0
H1572 H 0.97341 0.68764 0.64113 0.0
H1573 H 0.98763 0.69749 0.68771 0.0
H1574 H 0.97915 0.70861 0.63617 0.0
H1575 H 0.99325 0.71831 0.68189 0.0
H1576 H 0.99652 0.67296 0.63532 0.0
H1577 H 0.96881 0.63829 0.64965 0.0
H1578 H 0.99404 0.6656 0.608 0.0
H1579 H 0.96676 0.63154 0.62207 0.0
H1580 H 0.0338 0.69224 0.66533 0.0
H1581 H 0.02033 0.71064 0.63742 0.0
H1582 H 0.93022 0.63865 0.6369 0.0
H1583 H 0.95835 0.66421 0.60708 0.0
H1584 H 0.14227 0.31327 0.17897 0.0
H1585 H 0.12608 0.3125 0.19428 0.0
H1586 H 0.10061 0.28374 0.1652 0.0
H1587 H 0.11695 0.28475 0.14966 0.0
H1588 H 0.14848 0.29678 0.175 0.0
H1589 H 0.1376 0.31951 0.14348 0.0
H1590 H 0.12467 0.32452 0.12873 0.0
H1591 H 0.11619 0.29544 0.09691 0.0
H1592 H 0.12892 0.29025 0.11208 0.0
H1593 H 0.16276 0.28969 0.11328 0.0
H1594 H 0.18084 0.29425 0.0988 0.0
H1595 H 0.20154 0.32335 0.13053 0.0
H1596 H 0.18344 0.319 0.14457 0.0
H1597 H 0.15304 0.30402 0.11774 0.0
H1598 H 0.16952 0.28533 0.15116 0.0
H1599 H 0.18469 0.28485 0.16766 0.0
H1600 H 0.18551 0.31237 0.19695 0.0
H1601 H 0.17047 0.31284 0.18051 0.0
C1602 C 0.13082 0.29905 0.16321 0.0
C1603 C 0.1332 0.30678 0.1759 0.0
C1604 C 0.12392 0.30629 0.18468 0.0
C1605 C 0.11204 0.29797 0.18107 0.0
C1606 C 0.10965 0.29031 0.16821 0.0
C1607 C 0.11897 0.29085 0.15936 0.0
C1608 C 0.14083 0.29954 0.15426 0.0
C1609 C 0.1495 0.29838 0.16247 0.0
C1610 C 0.14209 0.30156 0.13793 0.0
C1611 C 0.13407 0.3044 0.12901 0.0
C1612 C 0.13284 0.31412 0.13345 0.0
C1613 C 0.12555 0.31705 0.12489 0.0
C1614 C 0.11943 0.31039 0.11163 0.0
C1615 C 0.12069 0.30066 0.10718 0.0
C1616 C 0.128 0.29773 0.11576 0.0
C1617 C 0.17179 0.30391 0.13011 0.0
C1618 C 0.17121 0.29704 0.1171 0.0
C1619 C 0.18155 0.29961 0.10891 0.0
C1620 C 0.19263 0.30916 0.11353 0.0
C1621 C 0.19314 0.31602 0.12657 0.0
C1622 C 0.18282 0.31346 0.13472 0.0
C1623 C 0.16081 0.30142 0.13854 0.0
C1624 C 0.1519 0.30214 0.1302 0.0
C1625 C 0.15958 0.29949 0.15491 0.0
C1626 C 0.16885 0.29912 0.1646 0.0
C1627 C 0.17303 0.2913 0.16108 0.0
C1628 C 0.18169 0.29104 0.17051 0.0
C1629 C 0.18621 0.2985 0.18368 0.0
C1630 C 0.18204 0.30635 0.18707 0.0
C1631 C 0.17346 0.30664 0.17765 0.0
H1632 H 0.7227 0.87581 0.16565 0.0
H1633 H 0.72361 0.89178 0.18189 0.0
H1634 H 0.68685 0.87977 0.17093 0.0
H1635 H 0.68611 0.86403 0.15454 0.0
H1636 H 0.7077 0.85157 0.16976 0.0
H1637 H 0.71522 0.88082 0.12931 0.0
H1638 H 0.71128 0.89461 0.1146 0.0
H1639 H 0.6761 0.86579 0.10349 0.0
H1640 H 0.68013 0.85209 0.11805 0.0
H1641 H 0.6805 0.82325 0.11695 0.0
H1642 H 0.67638 0.80508 0.10323 0.0
H1643 H 0.71048 0.81032 0.11771 0.0
H1644 H 0.71468 0.82865 0.13121 0.0
H1645 H 0.69613 0.84542 0.11373 0.0
H1646 H 0.68576 0.81695 0.15406 0.0
H1647 H 0.6862 0.80168 0.17013 0.0
H1648 H 0.7223 0.82671 0.18376 0.0
H1649 H 0.72183 0.84198 0.16753 0.0
C1650 C 0.70438 0.86882 0.15877 0.0
C1651 C 0.71488 0.87671 0.16667 0.0
C1652 C 0.71536 0.88579 0.17599 0.0
C1653 C 0.7053 0.88707 0.17771 0.0
C1654 C 0.69483 0.8792 0.16964 0.0
C1655 C 0.69437 0.87016 0.1603 0.0
C1656 C 0.70365 0.8588 0.14959 0.0
C1657 C 0.70544 0.85034 0.15741 0.0
C1658 C 0.7002 0.85697 0.13368 0.0
C1659 C 0.69795 0.86543 0.12482 0.0
C1660 C 0.70665 0.8775 0.12375 0.0
C1661 C 0.70438 0.88537 0.11537 0.0
C1662 C 0.69339 0.88129 0.10783 0.0
C1663 C 0.68472 0.86919 0.10892 0.0
C1664 C 0.687 0.86135 0.11729 0.0
C1665 C 0.69786 0.82728 0.12523 0.0
C1666 C 0.68716 0.82057 0.11704 0.0
C1667 C 0.68481 0.81019 0.10919 0.0
C1668 C 0.6931 0.80628 0.10944 0.0
C1669 C 0.70387 0.81306 0.11749 0.0
C1670 C 0.70627 0.82352 0.12521 0.0
C1671 C 0.70009 0.83811 0.13391 0.0
C1672 C 0.6986 0.84672 0.12601 0.0
C1673 C 0.70342 0.83988 0.1499 0.0
C1674 C 0.70382 0.83056 0.15941 0.0
C1675 C 0.69384 0.81911 0.16031 0.0
C1676 C 0.6941 0.81038 0.16949 0.0
C1677 C 0.70431 0.81298 0.17814 0.0
C1678 C 0.71428 0.82447 0.1773 0.0
C1679 C 0.71404 0.83319 0.16803 0.0
H1680 H 0.12165 0.84488 0.16717 0.0
H1681 H 0.10666 0.82994 0.18469 0.0
H1682 H 0.11914 0.80573 0.17295 0.0
H1683 H 0.13418 0.82073 0.15573 0.0
H1684 H 0.1462 0.85497 0.16983 0.0
H1685 H 0.11575 0.83143 0.13147 0.0
H1686 H 0.10179 0.81311 0.11778 0.0
H1687 H 0.13086 0.8077 0.10477 0.0
H1688 H 0.14472 0.82598 0.11838 0.0
H1689 H 0.17361 0.85505 0.11748 0.0
H1690 H 0.19143 0.86873 0.10291 0.0
H1691 H 0.18499 0.89752 0.11363 0.0
H1692 H 0.16725 0.88377 0.1285 0.0
H1693 H 0.15079 0.84822 0.1137 0.0
H1694 H 0.18027 0.8674 0.15219 0.0
H1695 H 0.19597 0.88321 0.16769 0.0
H1696 H 0.17132 0.8942 0.18332 0.0
H1697 H 0.15575 0.87866 0.16712 0.0
C1698 C 0.12895 0.83387 0.16006 0.0
C1699 C 0.12109 0.83632 0.16832 0.0
C1700 C 0.1125 0.82776 0.17824 0.0
C1701 C 0.11175 0.81668 0.18021 0.0
C1702 C 0.11957 0.81423 0.17179 0.0
C1703 C 0.1281 0.82274 0.16183 0.0
C1704 C 0.13847 0.84312 0.15021 0.0
C1705 C 0.14705 0.85366 0.15745 0.0
C1706 C 0.13985 0.84112 0.13425 0.0
C1707 C 0.13128 0.83005 0.126 0.0
C1708 C 0.11909 0.82626 0.12573 0.0
C1709 C 0.11113 0.81579 0.11792 0.0
C1710 C 0.11523 0.80898 0.11015 0.0
C1711 C 0.12744 0.81284 0.11041 0.0
C1712 C 0.13537 0.82327 0.11823 0.0
C1713 C 0.16914 0.8684 0.12412 0.0
C1714 C 0.176 0.8643 0.1166 0.0
C1715 C 0.18616 0.87213 0.10822 0.0
C1716 C 0.18963 0.88423 0.10706 0.0
C1717 C 0.18266 0.88829 0.11447 0.0
C1718 C 0.1725 0.88045 0.12292 0.0
C1719 C 0.15856 0.86003 0.13334 0.0
C1720 C 0.14979 0.84968 0.12599 0.0
C1721 C 0.15724 0.862 0.14933 0.0
C1722 C 0.16687 0.87195 0.15829 0.0
C1723 C 0.1783 0.87337 0.15868 0.0
C1724 C 0.18724 0.88232 0.16773 0.0
C1725 C 0.1849 0.88995 0.17681 0.0
C1726 C 0.17347 0.88859 0.17631 0.0
C1727 C 0.16453 0.87965 0.16716 0.0
H1728 H 0.27982 0.15851 0.85146 0.0
H1729 H 0.28007 0.17369 0.83421 0.0
H1730 H 0.31707 0.19725 0.84538 0.0
H1731 H 0.31681 0.18202 0.86234 0.0
H1732 H 0.29417 0.14813 0.84813 0.0
H1733 H 0.28752 0.17148 0.88742 0.0
H1734 H 0.29257 0.19026 0.90038 0.0
H1735 H 0.32711 0.19538 0.91226 0.0
H1736 H 0.32212 0.17679 0.89902 0.0
H1737 H 0.32111 0.14759 0.90075 0.0
H1738 H 0.32533 0.13374 0.91459 0.0
H1739 H 0.29067 0.10473 0.90186 0.0
H1740 H 0.28635 0.11873 0.88837 0.0
H1741 H 0.30542 0.15437 0.90426 0.0
H1742 H 0.31548 0.13515 0.86569 0.0
H1743 H 0.31536 0.11955 0.84979 0.0
H1744 H 0.28022 0.10958 0.83302 0.0
H1745 H 0.28011 0.12477 0.84981 0.0
C1746 C 0.29826 0.16919 0.85827 0.0
C1747 C 0.28795 0.16699 0.85025 0.0
C1748 C 0.28809 0.17567 0.84048 0.0
C1749 C 0.2986 0.18664 0.83844 0.0
C1750 C 0.30887 0.18884 0.84662 0.0
C1751 C 0.30871 0.1802 0.85641 0.0
C1752 C 0.29836 0.1598 0.86794 0.0
C1753 C 0.2963 0.14931 0.86052 0.0
C1754 C 0.30171 0.16166 0.88389 0.0
C1755 C 0.30447 0.17278 0.89219 0.0
C1756 C 0.29619 0.17668 0.89279 0.0
C1757 C 0.29905 0.18736 0.90028 0.0
C1758 C 0.31026 0.19432 0.90727 0.0
C1759 C 0.31847 0.1903 0.90679 0.0
C1760 C 0.31559 0.17962 0.89936 0.0
C1761 C 0.30344 0.13419 0.89345 0.0
C1762 C 0.31436 0.13827 0.90109 0.0
C1763 C 0.31681 0.13032 0.90885 0.0
C1764 C 0.30838 0.11813 0.9092 0.0
C1765 C 0.29732 0.11408 0.90187 0.0
C1766 C 0.29488 0.12205 0.89407 0.0
C1767 C 0.30127 0.14265 0.88446 0.0
C1768 C 0.30295 0.15298 0.89199 0.0
C1769 C 0.29804 0.14086 0.86843 0.0
C1770 C 0.29771 0.13101 0.85919 0.0
C1771 C 0.30762 0.12942 0.85891 0.0
C1772 C 0.30761 0.12059 0.84959 0.0
C1773 C 0.2978 0.11332 0.84003 0.0
C1774 C 0.28785 0.11489 0.84039 0.0
C1775 C 0.28782 0.12364 0.84988 0.0
H1776 H 0.84418 0.12193 0.85079 0.0
H1777 H 0.82864 0.10716 0.83383 0.0
H1778 H 0.80418 0.11789 0.85112 0.0
H1779 H 0.81989 0.13296 0.86751 0.0
H1780 H 0.8538 0.14568 0.84953 0.0
H1781 H 0.83149 0.11508 0.88834 0.0
H1782 H 0.81357 0.10134 0.90295 0.0
H1783 H 0.81005 0.13096 0.91901 0.0
H1784 H 0.82786 0.14459 0.90437 0.0
H1785 H 0.85663 0.17222 0.90481 0.0
H1786 H 0.87097 0.1898 0.91924 0.0
H1787 H 0.89948 0.18488 0.90209 0.0
H1788 H 0.88501 0.16708 0.88781 0.0
H1789 H 0.84997 0.15004 0.90658 0.0
H1790 H 0.86877 0.18012 0.86817 0.0
H1791 H 0.88419 0.19536 0.85158 0.0
H1792 H 0.89202 0.16925 0.83259 0.0
H1793 H 0.87682 0.15407 0.8496 0.0
C1794 C 0.83317 0.12846 0.86054 0.0
C1795 C 0.83545 0.12105 0.85097 0.0
C1796 C 0.82652 0.11255 0.84137 0.0
C1797 C 0.81515 0.11134 0.84111 0.0
C1798 C 0.81287 0.11868 0.8509 0.0
C1799 C 0.82181 0.1272 0.86043 0.0
C1800 C 0.84287 0.13799 0.86994 0.0
C1801 C 0.85311 0.14651 0.86208 0.0
C1802 C 0.84171 0.13931 0.88619 0.0
C1803 C 0.83099 0.13086 0.89518 0.0
C1804 C 0.82682 0.11859 0.89495 0.0
C1805 C 0.81658 0.11076 0.90329 0.0
C1806 C 0.81042 0.11508 0.91216 0.0
C1807 C 0.8147 0.12737 0.91248 0.0
C1808 C 0.82487 0.13517 0.90409 0.0
C1809 C 0.86973 0.16835 0.89514 0.0
C1810 C 0.86594 0.17482 0.90428 0.0
C1811 C 0.87415 0.18486 0.91254 0.0
C1812 C 0.88633 0.18869 0.9118 0.0
C1813 C 0.89014 0.18218 0.90275 0.0
C1814 C 0.88189 0.17203 0.89459 0.0
C1815 C 0.86086 0.15785 0.88615 0.0
C1816 C 0.8508 0.14912 0.89408 0.0
C1817 C 0.862 0.15657 0.86987 0.0
C1818 C 0.87176 0.16597 0.86036 0.0
C1819 C 0.87399 0.17772 0.86074 0.0
C1820 C 0.88278 0.18642 0.85122 0.0
C1821 C 0.88931 0.18348 0.84086 0.0
C1822 C 0.88708 0.17173 0.84045 0.0
C1823 C 0.87841 0.16307 0.85015 0.0
H1824 H 0.82805 0.68652 0.83985 0.0
H1825 H 0.81277 0.68659 0.82345 0.0
H1826 H 0.81572 0.7164 0.8497 0.0
H1827 H 0.83098 0.71619 0.86625 0.0
H1828 H 0.85067 0.70277 0.84388 0.0
H1829 H 0.8166 0.68183 0.87604 0.0
H1830 H 0.79862 0.67775 0.89013 0.0
H1831 H 0.8191 0.70935 0.91811 0.0
H1832 H 0.83714 0.71324 0.90407 0.0
H1833 H 0.87145 0.71301 0.90627 0.0
H1834 H 0.88473 0.70899 0.92215 0.0
H1835 H 0.87597 0.67825 0.89348 0.0
H1836 H 0.86251 0.6821 0.87804 0.0
H1837 H 0.84723 0.69867 0.90168 0.0
H1838 H 0.88261 0.71671 0.86828 0.0
H1839 H 0.89888 0.71684 0.85349 0.0
H1840 H 0.87331 0.68619 0.82725 0.0
H1841 H 0.85716 0.68606 0.84207 0.0
C1842 C 0.83066 0.70134 0.85427 0.0
C1843 C 0.82545 0.6931 0.84204 0.0
C1844 C 0.81674 0.69318 0.83264 0.0
C1845 C 0.81309 0.70156 0.83519 0.0
C1846 C 0.81826 0.70977 0.84753 0.0
C1847 C 0.82699 0.70967 0.85696 0.0
C1848 C 0.84 0.70121 0.86403 0.0
C1849 C 0.84991 0.70186 0.85652 0.0
C1850 C 0.83907 0.70012 0.88051 0.0
C1851 C 0.82817 0.69792 0.88888 0.0
C1852 C 0.81719 0.68794 0.8851 0.0
C1853 C 0.80691 0.68564 0.89315 0.0
C1854 C 0.8074 0.69326 0.9052 0.0
C1855 C 0.81843 0.70324 0.90901 0.0
C1856 C 0.82874 0.70551 0.90096 0.0
C1857 C 0.86613 0.69795 0.89086 0.0
C1858 C 0.87242 0.70542 0.90344 0.0
C1859 C 0.88004 0.70315 0.91243 0.0
C1860 C 0.88139 0.6933 0.90907 0.0
C1861 C 0.87503 0.68582 0.89648 0.0
C1862 C 0.86744 0.6881 0.88752 0.0
C1863 C 0.85784 0.70013 0.8815 0.0
C1864 C 0.84814 0.69988 0.88909 0.0
C1865 C 0.85877 0.70122 0.86501 0.0
C1866 C 0.86869 0.70136 0.85627 0.0
C1867 C 0.88054 0.71 0.85939 0.0
C1868 C 0.88981 0.7101 0.8509 0.0
C1869 C 0.88735 0.7015 0.83928 0.0
C1870 C 0.87547 0.69284 0.83627 0.0
C1871 C 0.86624 0.69281 0.84463 0.0
H1872 H 0.81027 0.64914 0.50893 0.0
H1873 H 0.79483 0.64965 0.52459 0.0
H1874 H 0.76787 0.62152 0.49621 0.0
H1875 H 0.78343 0.62081 0.48082 0.0
H1876 H 0.81592 0.63252 0.50438 0.0
H1877 H 0.80512 0.65551 0.47228 0.0
H1878 H 0.7914 0.66009 0.45877 0.0
H1879 H 0.77886 0.62826 0.43082 0.0
H1880 H 0.79289 0.62391 0.44421 0.0
H1881 H 0.82804 0.62453 0.44137 0.0
H1882 H 0.84571 0.62898 0.42596 0.0
H1883 H 0.86735 0.65797 0.45743 0.0
H1884 H 0.84966 0.65381 0.47225 0.0
H1885 H 0.81834 0.63858 0.44685 0.0
H1886 H 0.83523 0.61981 0.47942 0.0
H1887 H 0.85138 0.61978 0.49419 0.0
H1888 H 0.85441 0.64854 0.52294 0.0
H1889 H 0.83852 0.6487 0.50801 0.0
C1890 C 0.79801 0.63498 0.49367 0.0
C1891 C 0.80103 0.64302 0.50614 0.0
C1892 C 0.7922 0.64339 0.51497 0.0
C1893 C 0.78012 0.63569 0.51155 0.0
C1894 C 0.77709 0.62752 0.49917 0.0
C1895 C 0.78596 0.62716 0.49031 0.0
C1896 C 0.80754 0.63496 0.48414 0.0
C1897 C 0.81645 0.63383 0.4918 0.0
C1898 C 0.8082 0.6366 0.46773 0.0
C1899 C 0.7999 0.63931 0.45935 0.0
C1900 C 0.79938 0.64951 0.46327 0.0
C1901 C 0.79148 0.65208 0.45558 0.0
C1902 C 0.78394 0.64449 0.44379 0.0
C1903 C 0.78462 0.63434 0.43974 0.0
C1904 C 0.79258 0.63181 0.44741 0.0
C1905 C 0.83756 0.63872 0.45809 0.0
C1906 C 0.83661 0.63184 0.4449 0.0
C1907 C 0.84672 0.63435 0.43619 0.0
C1908 C 0.85795 0.64383 0.44047 0.0
C1909 C 0.85883 0.6507 0.45368 0.0
C1910 C 0.84874 0.64823 0.46231 0.0
C1911 C 0.82684 0.63631 0.46714 0.0
C1912 C 0.81766 0.63694 0.45937 0.0
C1913 C 0.82616 0.63464 0.48357 0.0
C1914 C 0.83571 0.63429 0.49258 0.0
C1915 C 0.83942 0.62613 0.48887 0.0
C1916 C 0.84859 0.62607 0.49736 0.0
C1917 C 0.85421 0.63421 0.50965 0.0
C1918 C 0.85039 0.64229 0.51338 0.0
C1919 C 0.84123 0.64231 0.50496 0.0
H1920 H 0.38732 0.21103 0.49831 0.0
H1921 H 0.38764 0.22654 0.51492 0.0
H1922 H 0.3512 0.21464 0.50218 0.0
H1923 H 0.35106 0.19937 0.48541 0.0
H1924 H 0.37187 0.18642 0.50122 0.0
H1925 H 0.38127 0.21704 0.46191 0.0
H1926 H 0.3777 0.23144 0.44813 0.0
H1927 H 0.34277 0.20316 0.43488 0.0
H1928 H 0.34645 0.18885 0.44847 0.0
H1929 H 0.3462 0.15956 0.44722 0.0
H1930 H 0.34203 0.14139 0.43353 0.0
H1931 H 0.37612 0.14656 0.44808 0.0
H1932 H 0.38019 0.16471 0.46191 0.0
H1933 H 0.36255 0.18213 0.44446 0.0
H1934 H 0.34988 0.15258 0.48311 0.0
H1935 H 0.34871 0.13655 0.49916 0.0
H1936 H 0.38407 0.16024 0.51671 0.0
H1937 H 0.38539 0.17613 0.50001 0.0
C1938 C 0.36922 0.20414 0.49052 0.0
C1939 C 0.37945 0.21185 0.49903 0.0
C1940 C 0.37959 0.22067 0.50857 0.0
C1941 C 0.36944 0.22186 0.50989 0.0
C1942 C 0.35924 0.21415 0.50122 0.0
C1943 C 0.35913 0.20538 0.49166 0.0
C1944 C 0.36883 0.19441 0.48103 0.0
C1945 C 0.37015 0.18562 0.48872 0.0
C1946 C 0.36602 0.19311 0.4649 0.0
C1947 C 0.36411 0.20188 0.45626 0.0
C1948 C 0.37285 0.21397 0.45603 0.0
C1949 C 0.37078 0.22218 0.4482 0.0
C1950 C 0.35995 0.21845 0.44039 0.0
C1951 C 0.35128 0.20631 0.44054 0.0
C1952 C 0.35336 0.19812 0.44835 0.0
C1953 C 0.36347 0.16346 0.45566 0.0
C1954 C 0.35283 0.15685 0.44732 0.0
C1955 C 0.35047 0.14647 0.43947 0.0
C1956 C 0.35873 0.14251 0.43972 0.0
C1957 C 0.36949 0.14927 0.44784 0.0
C1958 C 0.37185 0.15966 0.45571 0.0
C1959 C 0.36559 0.17412 0.46464 0.0
C1960 C 0.36459 0.18306 0.45687 0.0
C1961 C 0.36825 0.17533 0.48083 0.0
C1962 C 0.36779 0.16551 0.49017 0.0
C1963 C 0.35748 0.15426 0.49016 0.0
C1964 C 0.35677 0.14514 0.4995 0.0
C1965 C 0.36628 0.14712 0.50927 0.0
C1966 C 0.37665 0.15838 0.50918 0.0
C1967 C 0.37738 0.16749 0.49974 0.0
H1968 H 0.79047 0.17589 0.49724 0.0
H1969 H 0.77477 0.16045 0.51344 0.0
H1970 H 0.78416 0.13497 0.49629 0.0
H1971 H 0.79988 0.15041 0.4803 0.0
H1972 H 0.81413 0.18442 0.49868 0.0
H1973 H 0.78345 0.16397 0.45904 0.0
H1974 H 0.76898 0.14618 0.44481 0.0
H1975 H 0.7972 0.13986 0.43034 0.0
H1976 H 0.81156 0.15764 0.44441 0.0
H1977 H 0.84053 0.18623 0.44369 0.0
H1978 H 0.85861 0.20022 0.42987 0.0
H1979 H 0.85501 0.22944 0.44749 0.0
H1980 H 0.83657 0.21532 0.46071 0.0
H1981 H 0.81841 0.18046 0.4416 0.0
H1982 H 0.84814 0.19704 0.48085 0.0
H1983 H 0.86404 0.21218 0.49697 0.0
H1984 H 0.83995 0.22338 0.51424 0.0
H1985 H 0.82407 0.20826 0.49791 0.0
C1986 C 0.79624 0.16427 0.48738 0.0
C1987 C 0.7891 0.16696 0.49692 0.0
C1988 C 0.78016 0.15815 0.50619 0.0
C1989 C 0.7782 0.14649 0.50607 0.0
C1990 C 0.78531 0.14381 0.49641 0.0
C1991 C 0.79429 0.15263 0.48726 0.0
C1992 C 0.8061 0.17375 0.47814 0.0
C1993 C 0.81494 0.18371 0.48613 0.0
C1994 C 0.80738 0.17257 0.46188 0.0
C1995 C 0.79857 0.1621 0.45283 0.0
C1996 C 0.78649 0.15874 0.45277 0.0
C1997 C 0.77824 0.14856 0.44468 0.0
C1998 C 0.78194 0.14161 0.43643 0.0
C1999 C 0.79408 0.14512 0.43635 0.0
C2000 C 0.8023 0.15526 0.44442 0.0
C2001 C 0.83724 0.19972 0.45335 0.0
C2002 C 0.84355 0.19564 0.44443 0.0
C2003 C 0.85397 0.20367 0.43668 0.0
C2004 C 0.85834 0.21597 0.4377 0.0
C2005 C 0.85186 0.22003 0.44637 0.0
C2006 C 0.84137 0.21197 0.45406 0.0
C2007 C 0.82649 0.1911 0.46215 0.0
C2008 C 0.81749 0.18133 0.4541 0.0
C2009 C 0.82525 0.19225 0.47844 0.0
C2010 C 0.83496 0.20163 0.48799 0.0
C2011 C 0.84633 0.20288 0.4879 0.0
C2012 C 0.85541 0.21154 0.49712 0.0
C2013 C 0.85325 0.219 0.50681 0.0
C2014 C 0.84185 0.2177 0.50696 0.0
C2015 C 0.83278 0.20909 0.49763 0.0
H2016 H 0.97193 0.5023 0.18096 0.0
H2017 H 0.96984 0.51676 0.16504 0.0
H2018 H 0.00541 0.54384 0.17795 0.0
H2019 H 0.00758 0.52925 0.19337 0.0
H2020 H 0.98742 0.49441 0.17738 0.0
H2021 H 0.97825 0.5143 0.21828 0.0
H2022 H 0.98084 0.53184 0.23241 0.0
H2023 H 0.01705 0.54156 0.24319 0.0
H2024 H 0.01446 0.52412 0.22881 0.0
H2025 H 0.01531 0.49291 0.22841 0.0
H2026 H 0.01865 0.47828 0.2419 0.0
H2027 H 0.98253 0.45103 0.23159 0.0
H2028 H 0.97938 0.46567 0.21785 0.0
H2029 H 0.99931 0.5005 0.23333 0.0
H2030 H 0.00933 0.48174 0.19312 0.0
H2031 H 0.00831 0.46535 0.17791 0.0
H2032 H 0.9722 0.45447 0.16472 0.0
H2033 H 0.97314 0.47067 0.18046 0.0
C2034 C 0.98986 0.51472 0.18845 0.0
C2035 C 0.97926 0.51136 0.18037 0.0
C2036 C 0.97805 0.51966 0.17139 0.0
C2037 C 0.98746 0.53146 0.17025 0.0
C2038 C 0.99804 0.5348 0.17847 0.0
C2039 C 0.99925 0.5265 0.18742 0.0
C2040 C 0.99129 0.5058 0.1975 0.0
C2041 C 0.98979 0.49563 0.1897 0.0
C2042 C 0.99478 0.50758 0.21342 0.0
C2043 C 0.9962 0.51797 0.22239 0.0
C2044 C 0.98675 0.52023 0.22366 0.0
C2045 C 0.98821 0.53019 0.23183 0.0
C2046 C 0.99916 0.53808 0.23887 0.0
C2047 C 0.00856 0.53571 0.23773 0.0
C2048 C 0.00707 0.52572 0.22963 0.0
C2049 C 0.99714 0.48034 0.22203 0.0
C2050 C 0.00811 0.48379 0.22916 0.0
C2051 C 0.00999 0.47542 0.23689 0.0
C2052 C 0.00088 0.46346 0.23776 0.0
C2053 C 0.98981 0.46011 0.23088 0.0
C2054 C 0.98797 0.46847 0.22309 0.0
C2055 C 0.99534 0.4891 0.21323 0.0
C2056 C 0.99681 0.49923 0.22107 0.0
C2057 C 0.99193 0.48734 0.1973 0.0
C2058 C 0.99126 0.47735 0.18807 0.0
C2059 C 0.00114 0.47573 0.18712 0.0
C2060 C 0.00058 0.46642 0.17829 0.0
C2061 C 0.99017 0.4586 0.1701 0.0
C2062 C 0.98029 0.46024 0.17107 0.0
C2063 C 0.98085 0.46955 0.17994 0.0
H2064 H 0.50891 0.45746 0.18447 0.0
H2065 H 0.4934 0.44127 0.16892 0.0
H2066 H 0.46921 0.45388 0.18019 0.0
H2067 H 0.48465 0.46986 0.19582 0.0
H2068 H 0.51871 0.48181 0.18043 0.0
H2069 H 0.49673 0.45278 0.22075 0.0
H2070 H 0.47859 0.43882 0.23474 0.0
H2071 H 0.47229 0.4676 0.24612 0.0
H2072 H 0.49042 0.48147 0.2322 0.0
H2073 H 0.51938 0.51062 0.23187 0.0
H2074 H 0.5332 0.52909 0.24514 0.0
H2075 H 0.56242 0.52392 0.23206 0.0
H2076 H 0.54845 0.50514 0.2194 0.0
H2077 H 0.51306 0.48835 0.23629 0.0
H2078 H 0.53079 0.51617 0.19481 0.0
H2079 H 0.54675 0.53146 0.17898 0.0
H2080 H 0.55921 0.50709 0.16807 0.0
H2081 H 0.54309 0.49176 0.1839 0.0
C2082 C 0.49788 0.46476 0.19145 0.0
C2083 C 0.50023 0.45667 0.18362 0.0
C2084 C 0.49138 0.44746 0.17471 0.0
C2085 C 0.48003 0.44623 0.17337 0.0
C2086 C 0.47774 0.45439 0.18123 0.0
C2087 C 0.48658 0.46357 0.19013 0.0
C2088 C 0.5073 0.47472 0.20059 0.0
C2089 C 0.51762 0.4831 0.19275 0.0
C2090 C 0.50566 0.47662 0.21649 0.0
C2091 C 0.49489 0.46815 0.22536 0.0
C2092 C 0.49142 0.45606 0.22624 0.0
C2093 C 0.48104 0.4481 0.23421 0.0
C2094 C 0.474 0.45211 0.24153 0.0
C2095 C 0.4776 0.46425 0.2408 0.0
C2096 C 0.48795 0.47219 0.23282 0.0
C2097 C 0.53288 0.50654 0.22454 0.0
C2098 C 0.52875 0.5134 0.23201 0.0
C2099 C 0.53668 0.52403 0.23943 0.0
C2100 C 0.54894 0.52805 0.23954 0.0
C2101 C 0.55303 0.52104 0.23229 0.0
C2102 C 0.54507 0.51036 0.22492 0.0
C2103 C 0.5244 0.49552 0.2161 0.0
C2104 C 0.51428 0.48694 0.22406 0.0
C2105 C 0.52605 0.4936 0.20019 0.0
C2106 C 0.53585 0.50288 0.19069 0.0
C2107 C 0.53703 0.51416 0.18914 0.0
C2108 C 0.54619 0.52291 0.18013 0.0
C2109 C 0.55431 0.52053 0.17235 0.0
C2110 C 0.55305 0.50918 0.17382 0.0
C2111 C 0.54388 0.50042 0.18288 0.0
H2112 H 0.52868 0.02654 0.1825 0.0
H2113 H 0.5453 0.02837 0.16692 0.0
H2114 H 0.53704 0.99329 0.18182 0.0
H2115 H 0.52012 0.99131 0.19668 0.0
H2116 H 0.50558 0.01157 0.17972 0.0
H2117 H 0.5345 0.02061 0.22015 0.0
H2118 H 0.54938 0.01805 0.23431 0.0
H2119 H 0.5225 0.98218 0.24634 0.0
H2120 H 0.50766 0.98483 0.23222 0.0
H2121 H 0.47657 0.98388 0.23178 0.0
H2122 H 0.45856 0.98018 0.24567 0.0
H2123 H 0.46521 0.01504 0.23251 0.0
H2124 H 0.48329 0.01877 0.21882 0.0
H2125 H 0.49931 -0.00027 0.23566 0.0
H2126 H 0.47095 0.9899 0.19394 0.0
H2127 H 0.4561 0.9915 0.17825 0.0
H2128 H 0.48179 0.02815 0.16806 0.0
H2129 H 0.49654 0.02654 0.18399 0.0
C2130 C 0.52322 0.00884 0.19089 0.0
C2131 C 0.53045 0.01925 0.18237 0.0
C2132 C 0.54002 0.02032 0.17359 0.0
C2133 C 0.54254 0.01099 0.17314 0.0
C2134 C 0.53529 0.0006 0.18175 0.0
C2135 C 0.52568 0.9995 0.19042 0.0
C2136 C 0.51288 0.0076 0.1999 0.0
C2137 C 0.50433 0.00919 0.19203 0.0
C2138 C 0.51107 0.00421 0.21586 0.0
C2139 C 0.52 0.00287 0.225 0.0
C2140 C 0.53183 0.01219 0.22582 0.0
C2141 C 0.54032 0.0107 0.23388 0.0
C2142 C 0.53713 -0.00011 0.24138 0.0
C2143 C 0.52522 0.99066 0.24084 0.0
C2144 C 0.51673 0.99215 0.23275 0.0
C2145 C 0.48121 0.00155 0.22409 0.0
C2146 C 0.47419 0.99076 0.23197 0.0
C2147 C 0.46391 0.98865 0.23991 0.0
C2148 C 0.46045 0.9973 0.2401 0.0
C2149 C 0.46756 0.00815 0.23235 0.0
C2150 C 0.47788 0.01028 0.22452 0.0
C2151 C 0.49199 0.00363 0.21544 0.0
C2152 C 0.50063 0.00221 0.22339 0.0
C2153 C 0.49386 0.00714 0.19954 0.0
C2154 C 0.48481 0.00813 0.19021 0.0
C2155 C 0.47334 0.9983 0.18843 0.0
C2156 C 0.4649 0.99921 0.17938 0.0
C2157 C 0.46778 0.00996 0.17194 0.0
C2158 C 0.47926 0.0198 0.17381 0.0
C2159 C 0.48772 0.01887 0.18279 0.0
H2160 H 0.48796 0.00622 0.84669 0.0
H2161 H 0.47102 0.00408 0.86177 0.0
H2162 H 0.44705 0.97651 0.83011 0.0
H2163 H 0.46405 0.97865 0.81507 0.0
H2164 H 0.49543 0.9911 0.84146 0.0
H2165 H 0.48273 0.01281 0.80979 0.0
H2166 H 0.46832 0.01593 0.7954 0.0
H2167 H 0.46205 0.98729 0.76393 0.0
H2168 H 0.47623 0.98397 0.77872 0.0
H2169 H 0.50826 0.9839 0.77888 0.0
H2170 H 0.52575 0.98695 0.76429 0.0
H2171 H 0.54837 0.01441 0.79707 0.0
H2172 H 0.53084 0.01174 0.81107 0.0
H2173 H 0.49979 0.99845 0.78421 0.0
H2174 H 0.51399 0.97772 0.81725 0.0
H2175 H 0.52845 0.97562 0.8332 0.0
H2176 H 0.53323 0.00502 0.86211 0.0
H2177 H 0.51866 0.00691 0.84632 0.0
C2178 C 0.47729 0.99265 0.8297 0.0
C2179 C 0.47906 -0.0003 0.84301 0.0
C2180 C 0.46937 0.99845 0.85163 0.0
C2181 C 0.4577 0.99011 0.84714 0.0
C2182 C 0.45593 0.98311 0.83374 0.0
C2183 C 0.46564 0.98432 0.82515 0.0
C2184 C 0.48767 0.99388 0.82082 0.0
C2185 C 0.49644 0.99282 0.82896 0.0
C2186 C 0.4889 0.99594 0.80448 0.0
C2187 C 0.48042 0.99806 0.79544 0.0
C2188 C 0.47819 0.00716 0.79985 0.0
C2189 C 0.47004 0.00901 0.79152 0.0
C2190 C 0.46402 0.00184 0.77854 0.0
C2191 C 0.46642 0.99285 0.77401 0.0
C2192 C 0.47458 0.991 0.78236 0.0
C2193 C 0.51823 0.99747 0.79619 0.0
C2194 C 0.51699 0.99061 0.78287 0.0
C2195 C 0.52701 0.99229 0.77462 0.0
C2196 C 0.53849 0.00089 0.77954 0.0
C2197 C 0.53968 0.0078 0.79284 0.0
C2198 C 0.52966 0.00617 0.801 0.0
C2199 C 0.50757 0.9957 0.80487 0.0
C2200 C 0.49874 0.99664 0.79668 0.0
C2201 C 0.50637 0.99371 0.82123 0.0
C2202 C 0.51527 0.99248 0.8306 0.0
C2203 C 0.51821 0.98373 0.82699 0.0
C2204 C 0.5265 0.98257 0.83609 0.0
C2205 C 0.53196 0.99012 0.84898 0.0
C2206 C 0.52903 0.99892 0.85246 0.0
C2207 C 0.52074 4e-05 0.84341 0.0
H2208 H 0.02795 0.52958 0.83591 0.0
H2209 H 0.02953 0.546 0.8518 0.0
H2210 H 0.99294 0.53496 0.84127 0.0
H2211 H 0.99135 0.51842 0.82573 0.0
H2212 H 0.01358 0.50579 0.83982 0.0
H2213 H 0.02038 0.53438 0.80019 0.0
H2214 H 0.01719 0.54885 0.78604 0.0
H2215 H 0.98143 0.52127 0.77484 0.0
H2216 H 0.9847 0.50683 0.789 0.0
H2217 H 0.98478 0.47544 0.79003 0.0
H2218 H 0.98166 0.45778 0.77571 0.0
H2219 H 0.01827 0.46773 0.78392 0.0
H2220 H 0.02138 0.48548 0.798 0.0
H2221 H 1e-05 0.49915 0.78455 0.0
H2222 H 0.99282 0.47081 0.82488 0.0
H2223 H 0.99562 0.45626 0.83945 0.0
H2224 H 0.03189 0.48323 0.84943 0.0
H2225 H 0.029 0.49776 0.83483 0.0
C2226 C 0.00956 0.52283 0.82955 0.0
C2227 C 0.02028 0.53071 0.83703 0.0
C2228 C 0.02119 0.54014 0.846 0.0
C2229 C 0.01136 0.54178 0.84777 0.0
C2230 C 0.00064 0.53387 0.84025 0.0
C2231 C -0.00025 0.52448 0.83125 0.0
C2232 C 0.00852 0.51271 0.82026 0.0
C2233 C 0.01082 0.50445 0.82765 0.0
C2234 C 0.00464 0.5108 0.8045 0.0
C2235 C 0.00273 0.51956 0.79579 0.0
C2236 C 0.01183 0.53147 0.79478 0.0
C2237 C 0.00999 0.53973 0.78671 0.0
C2238 C 0.99904 0.53621 0.77938 0.0
C2239 C 0.99 0.52423 0.78023 0.0
C2240 C 0.99184 0.51598 0.78835 0.0
C2241 C 0.00328 0.48171 0.79515 0.0
C2242 C 0.99214 0.47384 0.78865 0.0
C2243 C 0.99035 0.46372 0.78059 0.0
C2244 C -0.00029 0.46136 0.77875 0.0
C2245 C 0.01092 0.46937 0.78505 0.0
C2246 C 0.01268 0.47946 0.79318 0.0
C2247 C 0.00502 0.49222 0.80414 0.0
C2248 C 0.00285 0.50054 0.79669 0.0
C2249 C 0.00901 0.49417 0.81984 0.0
C2250 C 0.01074 0.48533 0.82862 0.0
C2251 C 0.00141 0.47355 0.83006 0.0
C2252 C 0.00304 0.46524 0.83836 0.0
C2253 C 0.014 0.46858 0.84553 0.0
C2254 C 0.02331 0.48041 0.84416 0.0
C2255 C 0.02168 0.48871 0.8358 0.0
H2256 H 0.45639 0.50853 0.83591 0.0
H2257 H 0.44111 0.49314 0.85257 0.0
H2258 H 0.45158 0.4682 0.8364 0.0
H2259 H 0.46713 0.48373 0.82039 0.0
H2260 H 0.48011 0.51789 0.83788 0.0
H2261 H 0.45031 0.49647 0.79778 0.0
H2262 H 0.43629 0.47868 0.78316 0.0
H2263 H 0.46502 0.47266 0.77039 0.0
H2264 H 0.47893 0.49045 0.78482 0.0
H2265 H 0.50806 0.51904 0.78563 0.0
H2266 H 0.5264 0.53283 0.77211 0.0
H2267 H 0.52113 0.56202 0.78495 0.0
H2268 H 0.50278 0.54813 0.79863 0.0
H2269 H 0.48562 0.51307 0.78139 0.0
H2270 H 0.5144 0.53046 0.82153 0.0
H2271 H 0.52992 0.54592 0.83765 0.0
H2272 H 0.50529 0.55705 0.85291 0.0
H2273 H 0.48991 0.54185 0.83613 0.0
C2274 C 0.46281 0.49726 0.82676 0.0
C2275 C 0.45534 0.49973 0.83593 0.0
C2276 C 0.44655 0.49089 0.84534 0.0
C2277 C 0.44512 0.47943 0.84582 0.0
C2278 C 0.45253 0.47696 0.83645 0.0
C2279 C 0.46133 0.4858 0.82712 0.0
C2280 C 0.47261 0.50679 0.81752 0.0
C2281 C 0.48116 0.51699 0.82543 0.0
C2282 C 0.47422 0.50539 0.80142 0.0
C2283 C 0.46566 0.49476 0.79241 0.0
C2284 C 0.45356 0.49129 0.79183 0.0
C2285 C 0.44556 0.48111 0.78351 0.0
C2286 C 0.44954 0.47427 0.77557 0.0
C2287 C 0.46168 0.47784 0.77613 0.0
C2288 C 0.46965 0.48799 0.78441 0.0
C2289 C 0.50408 0.53256 0.79318 0.0
C2290 C 0.5108 0.5284 0.78542 0.0
C2291 C 0.52127 0.53629 0.77766 0.0
C2292 C 0.52522 0.54852 0.77743 0.0
C2293 C 0.51841 0.55267 0.78508 0.0
C2294 C 0.50791 0.54475 0.79286 0.0
C2295 C 0.49317 0.52408 0.80178 0.0
C2296 C 0.48442 0.51412 0.79375 0.0
C2297 C 0.49156 0.52552 0.81787 0.0
C2298 C 0.50104 0.53511 0.82743 0.0
C2299 C 0.51239 0.53636 0.82812 0.0
C2300 C 0.52122 0.54512 0.83751 0.0
C2301 C 0.51884 0.55271 0.84662 0.0
C2302 C 0.50746 0.55146 0.84589 0.0
C2303 C 0.49864 0.54272 0.83641 0.0
H2304 H 0.61202 0.8223 0.51957 0.0
H2305 H 0.61181 0.83737 0.50265 0.0
H2306 H 0.64811 0.86218 0.51576 0.0
H2307 H 0.64823 0.84713 0.53263 0.0
H2308 H 0.62674 0.81288 0.51716 0.0
H2309 H 0.61899 0.83564 0.55617 0.0
H2310 H 0.62373 0.85442 0.56884 0.0
H2311 H 0.65804 0.85964 0.58228 0.0
H2312 H 0.6534 0.8411 0.56923 0.0
H2313 H 0.65232 0.81188 0.57181 0.0
H2314 H 0.65605 0.79776 0.5859 0.0
H2315 H 0.62235 0.76888 0.56998 0.0
H2316 H 0.61852 0.78308 0.55611 0.0
H2317 H 0.63686 0.81862 0.57367 0.0
H2318 H 0.64825 0.80052 0.53455 0.0
H2319 H 0.64855 0.78519 0.51838 0.0
H2320 H 0.61269 0.77357 0.50315 0.0
H2321 H 0.61247 0.789 0.51938 0.0
C2322 C 0.63008 0.83364 0.5275 0.0
C2323 C 0.61989 0.83102 0.51886 0.0
C2324 C 0.6198 0.83962 0.50917 0.0
C2325 C 0.62993 0.85098 0.5079 0.0
C2326 C 0.64009 0.8536 0.51669 0.0
C2327 C 0.64018 0.84499 0.52633 0.0
C2328 C 0.6304 0.82433 0.53713 0.0
C2329 C 0.62866 0.81398 0.52961 0.0
C2330 C 0.63345 0.82605 0.55319 0.0
C2331 C 0.63589 0.83702 0.56164 0.0
C2332 C 0.62753 0.84085 0.56183 0.0
C2333 C 0.63022 0.85153 0.56917 0.0
C2334 C 0.64129 0.85855 0.57647 0.0
C2335 C 0.64951 0.85454 0.57655 0.0
C2336 C 0.64683 0.84388 0.56923 0.0
C2337 C 0.63519 0.79854 0.56277 0.0
C2338 C 0.64565 0.80253 0.5715 0.0
C2339 C 0.64778 0.79446 0.57956 0.0
C2340 C 0.63951 0.78223 0.57898 0.0
C2341 C 0.62894 0.77825 0.57045 0.0
C2342 C 0.62676 0.78635 0.56252 0.0
C2343 C 0.63327 0.80716 0.55369 0.0
C2344 C 0.63468 0.81736 0.5613 0.0
C2345 C 0.63038 0.80553 0.53756 0.0
C2346 C 0.63028 0.79581 0.52832 0.0
C2347 C 0.64038 0.79455 0.52794 0.0
C2348 C 0.64053 0.78576 0.5187 0.0
C2349 C 0.63063 0.77813 0.50952 0.0
C2350 C 0.62049 0.77937 0.50998 0.0
C2351 C 0.62034 0.78816 0.51928 0.0
H2352 H 0.17515 0.7894 0.52086 0.0
H2353 H 0.15917 0.77489 0.50406 0.0
H2354 H 0.13534 0.78577 0.52327 0.0
H2355 H 0.1514 0.80047 0.53957 0.0
H2356 H 0.18462 0.81343 0.51989 0.0
H2357 H 0.16474 0.78268 0.55925 0.0
H2358 H 0.14717 0.76819 0.57378 0.0
H2359 H 0.14156 0.79651 0.59002 0.0
H2360 H 0.15916 0.81089 0.57568 0.0
H2361 H 0.18716 0.83959 0.57519 0.0
H2362 H 0.2011 0.85797 0.58847 0.0
H2363 H 0.23047 0.8552 0.56956 0.0
H2364 H 0.21641 0.83646 0.55688 0.0
H2365 H 0.18191 0.81767 0.57724 0.0
H2366 H 0.19702 0.84711 0.53739 0.0
H2367 H 0.21125 0.86288 0.5203 0.0
H2368 H 0.22287 0.83922 0.50259 0.0
H2369 H 0.20887 0.82359 0.52018 0.0
C2370 C 0.16444 0.79593 0.53159 0.0
C2371 C 0.16644 0.78857 0.52152 0.0
C2372 C 0.15729 0.78024 0.51202 0.0
C2373 C 0.14599 0.7792 0.51232 0.0
C2374 C 0.14397 0.78643 0.52264 0.0
C2375 C 0.15311 0.79475 0.53211 0.0
C2376 C 0.17435 0.80543 0.54072 0.0
C2377 C 0.18421 0.8142 0.5325 0.0
C2378 C 0.17355 0.80667 0.55707 0.0
C2379 C 0.16323 0.79786 0.56634 0.0
C2380 C 0.15972 0.78574 0.56598 0.0
C2381 C 0.14966 0.77748 0.57425 0.0
C2382 C 0.14296 0.78119 0.58307 0.0
C2383 C 0.14663 0.79336 0.58357 0.0
C2384 C 0.15667 0.8016 0.57534 0.0
C2385 C 0.20073 0.83668 0.56492 0.0
C2386 C 0.1966 0.84285 0.57406 0.0
C2387 C 0.20459 0.85344 0.5815 0.0
C2388 C 0.21691 0.85814 0.57994 0.0
C2389 C 0.22104 0.8518 0.57108 0.0
C2390 C 0.21302 0.84114 0.56371 0.0
C2391 C 0.1921 0.82578 0.55638 0.0
C2392 C 0.18251 0.81675 0.5647 0.0
C2393 C 0.19293 0.82449 0.54003 0.0
C2394 C 0.20199 0.83422 0.5302 0.0
C2395 C 0.20278 0.84538 0.53004 0.0
C2396 C 0.21084 0.85435 0.52014 0.0
C2397 C 0.21817 0.85229 0.51004 0.0
C2398 C 0.21746 0.84114 0.51036 0.0
C2399 C 0.2094 0.83217 0.52031 0.0
H2400 H 0.1618 0.35103 0.50968 0.0
H2401 H 0.14653 0.35178 0.49407 0.0
H2402 H 0.14804 0.37906 0.52457 0.0
H2403 H 0.16337 0.37823 0.54027 0.0
H2404 H 0.18403 0.36704 0.5152 0.0
H2405 H 0.14916 0.3442 0.54526 0.0
H2406 H 0.13098 0.33956 0.55928 0.0
H2407 H 0.15153 0.36773 0.59232 0.0
H2408 H 0.16969 0.37262 0.57781 0.0
H2409 H 0.20424 0.37331 0.57712 0.0
H2410 H 0.21758 0.36858 0.59166 0.0
H2411 H 0.20835 0.33895 0.56056 0.0
H2412 H 0.19494 0.34361 0.54629 0.0
H2413 H 0.17964 0.35875 0.57223 0.0
H2414 H 0.21574 0.37775 0.541 0.0
H2415 H 0.23198 0.37822 0.5259 0.0
H2416 H 0.20641 0.35237 0.49373 0.0
H2417 H 0.19028 0.35151 0.50925 0.0
C2418 C 0.16373 0.36457 0.52614 0.0
C2419 C 0.15891 0.35724 0.51296 0.0
C2420 C 0.1502 0.35769 0.50403 0.0
C2421 C 0.14613 0.36553 0.50802 0.0
C2422 C 0.15092 0.37285 0.52128 0.0
C2423 C 0.15969 0.37241 0.53023 0.0
C2424 C 0.17299 0.36392 0.53548 0.0
C2425 C 0.18305 0.36519 0.52767 0.0
C2426 C 0.17177 0.36164 0.55177 0.0
C2427 C 0.16076 0.35889 0.56034 0.0
C2428 C 0.14974 0.34948 0.5554 0.0
C2429 C 0.13937 0.34674 0.56355 0.0
C2430 C 0.1398 0.35326 0.57695 0.0
C2431 C 0.15087 0.36263 0.58194 0.0
C2432 C 0.16126 0.36539 0.57373 0.0
C2433 C 0.19872 0.35889 0.56055 0.0
C2434 C 0.20511 0.3658 0.57347 0.0
C2435 C 0.21276 0.36313 0.58169 0.0
C2436 C 0.214 0.3534 0.57723 0.0
C2437 C 0.20749 0.34643 0.56436 0.0
C2438 C 0.19991 0.34915 0.55611 0.0
C2439 C 0.19056 0.36163 0.55187 0.0
C2440 C 0.18073 0.36083 0.55983 0.0
C2441 C 0.19178 0.3639 0.53557 0.0
C2442 C 0.20177 0.36451 0.52636 0.0
C2443 C 0.21364 0.37209 0.53079 0.0
C2444 C 0.22292 0.37244 0.52206 0.0
C2445 C 0.22051 0.36529 0.50864 0.0
C2446 C 0.2086 0.35783 0.50415 0.0
C2447 C 0.19936 0.35743 0.51292 0.0
H2448 H 0.9722 0.37976 0.06566 0.0
H2449 H 0.9714 0.39295 0.0855 0.0
H2450 H 0.00303 0.39668 0.10712 0.0
H2451 H 0.00391 0.38351 0.08731 0.0
H2452 H 0.98518 0.39405 0.12876 0.0
H2453 H 0.99517 0.42899 0.0843 0.0
H2454 H 0.98249 0.41474 0.07992 0.0
H2455 H 0.99704 0.41638 0.08047 0.0
C2456 C 0.97895 0.38335 0.07468 0.0
C2457 C 0.98818 0.38069 0.07483 0.0
C2458 C 0.97849 0.39088 0.08599 0.0
C2459 C 0.98728 0.39594 0.09758 0.0
C2460 C 0.99618 0.39287 0.09823 0.0
H2461 H 0.00746 0.45985 0.15062 0.0
H2462 H 0.00668 0.44417 0.13399 0.0
C2463 C 0.99664 0.38531 0.08694 0.0
C2464 C 0.98754 0.40489 0.10855 0.0
H2465 H 0.99076 0.43258 0.1099 0.0
C2466 C 0.98638 0.40248 0.12467 0.0
C2467 C 0.98929 0.41594 0.10316 0.0
C2468 C 0.99118 0.41926 0.08604 0.0
C2469 C 0.98681 0.4108 0.13556 0.0
C2470 C 0.98829 0.42172 0.13012 0.0
C2471 C 0.98954 0.42416 0.11401 0.0
C2472 C 0.98886 0.43093 0.1409 0.0
C2473 C 0.98594 0.40794 0.15279 0.0
C2474 C 0.97908 0.42868 0.15028 0.0
C2475 C 0.97952 0.43761 0.15989 0.0
C2476 C 0.98975 0.44897 0.16023 0.0
C2477 C -0.00047 0.45115 0.15083 0.0
C2478 C 0.99907 0.44223 0.14124 0.0
H2479 H 0.98773 0.40059 0.15519 0.0
H2480 H 0.99228 0.41587 0.15965 0.0
H2481 H 0.97682 0.40515 0.15696 0.0
H2482 H 0.97103 0.42007 0.14999 0.0
H2483 H 0.97188 0.43562 0.16708 0.0
H2484 H 0.60594 0.58901 0.0588 0.0
H2485 H 0.59514 0.57458 0.07945 0.0
H2486 H 0.62515 0.59303 0.11036 0.0
H2487 H 0.63617 0.60747 0.0896 0.0
H2488 H 0.61378 0.56678 0.10937 0.0
H2489 H 0.58225 0.58317 0.11949 0.0
H2490 H 0.58389 0.58013 0.09938 0.0
H2491 H 0.5963 0.5919 0.10957 0.0
C2492 C 0.61033 0.58992 0.0699 0.0
C2493 C 0.62192 0.59939 0.07257 0.0
C2494 C 0.6041 0.58173 0.08173 0.0
C2495 C 0.60932 0.58284 0.09644 0.0
C2496 C 0.62097 0.59208 0.09908 0.0
H2497 H 0.56816 0.54432 0.17851 0.0
H2498 H 0.58267 0.55975 0.16116 0.0
C2499 C 0.62721 0.60034 0.08726 0.0
C2500 C 0.60244 0.57442 0.10909 0.0
H2501 H 0.57753 0.56485 0.13145 0.0
C2502 C 0.60591 0.56639 0.11432 0.0
C2503 C 0.59228 0.57407 0.11562 0.0
C2504 C 0.58848 0.58283 0.11086 0.0
C2505 C 0.59919 0.55772 0.12558 0.0
C2506 C 0.58873 0.55704 0.13159 0.0
C2507 C 0.58552 0.56534 0.12674 0.0
C2508 C 0.58073 0.54758 0.14257 0.0
C2509 C 0.60333 0.54935 0.13094 0.0
C2510 C 0.57486 0.53563 0.13786 0.0
C2511 C 0.5665 0.5268 0.14769 0.0
C2512 C 0.56382 0.52978 0.16239 0.0
C2513 C 0.56991 0.54175 0.16718 0.0
C2514 C 0.57825 0.55056 0.15734 0.0
H2515 H 0.61294 0.553 0.12854 0.0
H2516 H 0.60171 0.5475 0.14367 0.0
H2517 H 0.59831 0.54081 0.12454 0.0
H2518 H 0.57646 0.53317 0.12637 0.0
H2519 H 0.56184 0.5177 0.14354 0.0
H2520 H 0.38199 0.99453 0.08492 0.0
H2521 H 0.39599 0.99601 0.10498 0.0
H2522 H 0.42003 0.03237 0.09181 0.0
H2523 H 0.4059 0.03113 0.07196 0.0
H2524 H 0.42989 0.01663 0.09249 0.0
H2525 H 0.40596 0.015 0.14723 0.0
H2526 H 0.39724 0.00392 0.13282 0.0
H2527 H 0.40275 0.01933 0.12859 0.0
C2528 C 0.3901 0.00296 0.08651 0.0
C2529 C 0.39279 0.01272 0.07679 0.0
C2530 C 0.39811 0.00376 0.09797 0.0
C2531 C 0.40897 0.01432 0.09994 0.0
C2532 C 0.41165 0.02415 0.09047 0.0
H2533 H 0.46259 0.0279 0.17103 0.0
H2534 H 0.4485 0.02958 0.15365 0.0
C2535 C 0.4036 0.02339 0.07907 0.0
C2536 C 0.41787 0.01477 0.11108 0.0
H2537 H 0.42268 0.0123 0.14982 0.0
C2538 C 0.42838 0.01579 0.10504 0.0
C2539 C 0.41587 0.01374 0.12742 0.0
C2540 C 0.40489 0.01303 0.13448 0.0
C2541 C 0.43679 0.01543 0.1149 0.0
C2542 C 0.43458 0.01396 0.13118 0.0
C2543 C 0.42427 0.01333 0.1373 0.0
C2544 C 0.44281 0.0128 0.14197 0.0
C2545 C 0.44796 0.01657 0.10786 0.0
C2546 C 0.4441 0.00274 0.14126 0.0
C2547 C 0.45209 0.00174 0.15114 0.0
C2548 C 0.45896 0.01083 0.1619 0.0
C2549 C 0.45751 0.02083 0.16273 0.0
C2550 C 0.44945 0.02177 0.1529 0.0
H2551 H 0.44952 0.02018 0.09576 0.0
H2552 H 0.45582 0.02243 0.11516 0.0
H2553 H 0.44716 0.00767 0.1074 0.0
H2554 H 0.43896 0.99568 0.13297 0.0
H2555 H 0.45308 0.99398 0.15014 0.0
H2556 H 0.39187 0.98754 0.95664 0.0
H2557 H 0.40458 0.98649 0.93642 0.0
H2558 H 0.37996 0.98399 0.90085 0.0
H2559 H 0.36705 0.98493 0.9211 0.0
H2560 H 0.3991 0.96849 0.91372 0.0
H2561 H 0.41214 0.01227 0.88663 0.0
H2562 H 0.40526 0.00808 0.9057 0.0
H2563 H 0.39646 0.00199 0.88836 0.0
C2564 C 0.38905 0.9866 0.94455 0.0
C2565 C 0.37841 0.98628 0.94049 0.0
C2566 C 0.39637 0.98607 0.933 0.0
C2567 C 0.39327 0.98529 0.91715 0.0
C2568 C 0.3826 0.9848 0.91301 0.0
H2569 H 0.43664 0.98762 0.83676 0.0
H2570 H 0.41988 0.98533 0.85267 0.0
C2571 C 0.37524 0.98533 0.92458 0.0
C2572 C 0.40133 0.98503 0.9051 0.0
H2573 H 0.42041 0.00138 0.87576 0.0
C2574 C 0.4037 0.97563 0.90533 0.0
C2575 C 0.40725 0.99434 0.89414 0.0
C2576 C 0.40526 0.0048 0.89368 0.0
C2577 C 0.41202 0.9754 0.8951 0.0
C2578 C 0.41827 0.98492 0.88454 0.0
C2579 C 0.4156 0.99411 0.8839 0.0
C2580 C 0.42817 0.98592 0.87484 0.0
C2581 C 0.41413 0.96501 0.89574 0.0
C2582 C 0.43839 0.98712 0.88207 0.0
C2583 C 0.44792 0.98841 0.87306 0.0
C2584 C 0.44746 0.98858 0.85663 0.0
C2585 C 0.4372 0.98738 0.8494 0.0
C2586 C 0.42766 0.98613 0.85845 0.0
H2587 H 0.40643 0.95705 0.90096 0.0
H2588 H 0.41584 0.96269 0.88387 0.0
H2589 H 0.42203 0.96742 0.90312 0.0
H2590 H 0.43903 0.98717 0.89472 0.0
H2591 H 0.45565 0.98921 0.87898 0.0
H2592 H 0.02505 0.4077 0.95322 0.0
H2593 H 0.02634 0.42169 0.93319 0.0
H2594 H 0.00953 0.39301 0.89986 0.0
H2595 H 0.00828 0.37893 0.91981 0.0
H2596 H 0.03679 0.42715 0.90268 0.0
H2597 H 0.9877 0.40754 0.90117 0.0
H2598 H 0.99513 0.40431 0.91657 0.0
H2599 H 0.99294 0.39731 0.89776 0.0
C2600 C 0.02183 0.40438 0.94156 0.0
C2601 C 0.01649 0.39218 0.93814 0.0
C2602 C 0.02252 0.41239 0.93015 0.0
C2603 C 0.01786 0.40834 0.91515 0.0
C2604 C 0.01297 0.39626 0.91148 0.0
H2605 H 0.00638 0.44535 0.83813 0.0
H2606 H 0.0081 0.43064 0.854 0.0
C2607 C 0.01226 0.38824 0.92288 0.0
C2608 C 0.01769 0.41672 0.90361 0.0
H2609 H 0.99897 0.42331 0.8838 0.0
C2610 C 0.02853 0.42631 0.89849 0.0
C2611 C 0.00689 0.41558 0.89819 0.0
C2612 C 0.99499 0.4057 0.90377 0.0
C2613 C 0.02886 0.4348 0.88806 0.0
C2614 C 0.01806 0.43376 0.88286 0.0
C2615 C 0.00723 0.42406 0.88778 0.0
C2616 C 0.01773 0.44286 0.87283 0.0
C2617 C 0.04075 0.44474 0.8826 0.0
C2618 C 0.02253 0.45458 0.8782 0.0
C2619 C 0.02152 0.46299 0.8692 0.0
C2620 C 0.01559 0.45979 0.85471 0.0
C2621 C 0.01088 0.44806 0.84931 0.0
C2622 C 0.01191 0.43966 0.85831 0.0
H2623 H 0.04783 0.44241 0.88392 0.0
H2624 H 0.04039 0.44699 0.87015 0.0
H2625 H 0.04327 0.45277 0.88979 0.0
H2626 H 0.02679 0.45716 0.88955 0.0
H2627 H 0.02506 0.47189 0.87382 0.0
H2628 H 0.60168 0.60424 0.94381 0.0
H2629 H 0.58687 0.59419 0.92338 0.0
H2630 H 0.57961 0.62309 0.92265 0.0
H2631 H 0.59425 0.63311 0.94356 0.0
H2632 H 0.55915 0.60064 0.92355 0.0
H2633 H 0.58972 0.60256 0.877 0.0
H2634 H 0.59151 0.59644 0.8949 0.0
H2635 H 0.59489 0.61166 0.89441 0.0
C2636 C 0.5969 0.60845 0.93939 0.0
C2637 C 0.59911 0.61946 0.94536 0.0
C2638 C 0.58854 0.60276 0.92756 0.0
C2639 C 0.5823 0.60799 0.92131 0.0
C2640 C 0.58443 0.61897 0.92723 0.0
H2641 H 0.52415 0.57566 0.85234 0.0
H2642 H 0.53943 0.59019 0.86994 0.0
C2643 C 0.59282 0.6247 0.9391 0.0
C2644 C 0.57321 0.60166 0.90907 0.0
H2645 H 0.56905 0.58821 0.87344 0.0
C2646 C 0.56131 0.59808 0.91247 0.0
C2647 C 0.57608 0.5984 0.89461 0.0
C2648 C 0.58876 0.60257 0.88993 0.0
C2649 C 0.55213 0.59076 0.90212 0.0
C2650 C 0.55498 0.58705 0.88801 0.0
C2651 C 0.56691 0.59102 0.88434 0.0
C2652 C 0.54568 0.5784 0.87739 0.0
C2653 C 0.53942 0.58657 0.90666 0.0
C2654 C 0.54426 0.56704 0.87566 0.0
C2655 C 0.53554 0.55872 0.86572 0.0
C2656 C 0.52811 0.56164 0.85719 0.0
C2657 C 0.52961 0.57308 0.8589 0.0
C2658 C 0.53834 0.5814 0.86891 0.0
H2659 H 0.53862 0.5888 0.919 0.0
H2660 H 0.53581 0.59087 0.89896 0.0
H2661 H 0.53386 0.57681 0.90504 0.0
H2662 H 0.54984 0.56456 0.88215 0.0
H2663 H 0.53451 0.54995 0.8649 0.0
H2664 H 0.01501 0.63107 0.92255 0.0
H2665 H 0.01632 0.6179 0.90308 0.0
H2666 H 0.0132 0.5938 0.93982 0.0
H2667 H 0.01192 0.60688 0.95929 0.0
H2668 H 0.0305 0.59752 0.91805 0.0
H2669 H 0.98793 0.58638 0.88904 0.0
H2670 H 0.99867 0.60197 0.88991 0.0
H2671 H 0.99229 0.59388 0.9077 0.0
C2672 C 0.0146 0.62296 0.92646 0.0
C2673 C 0.01333 0.62001 0.94246 0.0
C2674 C 0.01533 0.61545 0.91533 0.0
C2675 C 0.01467 0.60479 0.92 0.0
C2676 C 0.01373 0.60198 0.93598 0.0
H2677 H 0.99511 0.54063 0.86903 0.0
H2678 H 0.99654 0.55653 0.88582 0.0
C2679 C 0.01305 0.6095 0.9471 0.0
C2680 C 0.01472 0.59637 0.9083 0.0
H2681 H 0.99885 0.57815 0.878 0.0
C2682 C 0.02363 0.59332 0.90923 0.0
C2683 C 0.00564 0.59082 0.89695 0.0
C2684 C 0.99552 0.59332 0.89586 0.0
C2685 C 0.02366 0.58477 0.8992 0.0
C2686 C 0.01464 0.5793 0.88774 0.0
C2687 C 0.0058 0.58244 0.88672 0.0
C2688 C 0.01384 0.56983 0.87726 0.0
C2689 C 0.03309 0.58138 0.90131 0.0
C2690 C 0.02303 0.57207 0.86674 0.0
C2691 C 0.02224 0.56298 0.85712 0.0
C2692 C 0.01218 0.55152 0.85776 0.0
C2693 C 0.00291 0.54938 0.86814 0.0
C2694 C 0.00374 0.55845 0.87778 0.0
H2695 H 0.03756 0.58429 0.91286 0.0
H2696 H 0.02922 0.57162 0.90025 0.0
H2697 H 0.03994 0.58571 0.89206 0.0
H2698 H 0.0308 0.58085 0.86591 0.0
H2699 H 0.02944 0.56494 0.84907 0.0
H2700 H 0.3635 0.39378 0.9307 0.0
H2701 H 0.37407 0.40864 0.91029 0.0
H2702 H 0.40527 0.42552 0.93949 0.0
H2703 H 0.39491 0.41064 0.95979 0.0
H2704 H 0.39878 0.44144 0.92466 0.0
H2705 H 0.40132 0.40968 0.88321 0.0
H2706 H 0.38682 0.4056 0.89067 0.0
H2707 H 0.39797 0.40637 0.90374 0.0
C2708 C 0.37263 0.40062 0.93275 0.0
C2709 C 0.37836 0.40099 0.94688 0.0
C2710 C 0.37864 0.40911 0.92109 0.0
C2711 C 0.39046 0.4181 0.92337 0.0
C2712 C 0.39612 0.41866 0.93755 0.0
H2713 H 0.44796 0.46366 0.86375 0.0
H2714 H 0.43367 0.44872 0.88168 0.0
C2715 C 0.39016 0.41017 0.94918 0.0
C2716 C 0.39713 0.42681 0.91089 0.0
H2717 H 0.40994 0.42959 0.87506 0.0
C2718 C 0.40114 0.43887 0.91374 0.0
C2719 C 0.40025 0.42338 0.89675 0.0
C2720 C 0.39647 0.41057 0.89336 0.0
C2721 C 0.40836 0.44764 0.90287 0.0
C2722 C 0.41155 0.44422 0.88879 0.0
C2723 C 0.40739 0.43214 0.88584 0.0
C2724 C 0.41992 0.45309 0.8775 0.0
C2725 C 0.41288 0.46053 0.90677 0.0
C2726 C 0.41684 0.4604 0.86908 0.0
C2727 C 0.42498 0.46892 0.85869 0.0
C2728 C 0.4363 0.47023 0.85654 0.0
C2729 C 0.43926 0.46277 0.86492 0.0
C2730 C 0.43113 0.45427 0.87524 0.0
H2731 H 0.41126 0.46179 0.91922 0.0
H2732 H 0.42256 0.46595 0.90436 0.0
H2733 H 0.40829 0.46395 0.89929 0.0
H2734 H 0.40815 0.4595 0.87052 0.0
H2735 H 0.42236 0.4744 0.85226 0.0
H2736 H 0.61271 0.98011 0.92714 0.0
H2737 H 0.59956 0.9802 0.90668 0.0
H2738 H 0.58383 0.99318 0.94006 0.0
H2739 H 0.59717 0.99358 0.96033 0.0
H2740 H 0.57469 0.96847 0.90507 0.0
H2741 H 0.594 0.01732 0.90461 0.0
H2742 H 0.60128 0.01023 0.91392 0.0
H2743 H 0.58948 0.01106 0.92381 0.0
C2744 C 0.60651 0.98307 0.93009 0.0
C2745 C 0.60603 0.98688 0.94538 0.0
C2746 C 0.59896 0.98304 0.91841 0.0
C2747 C 0.59088 0.9869 0.92181 0.0
C2748 C 0.59016 0.99039 0.93712 0.0
H2749 H 0.53398 0.99176 0.88086 0.0
H2750 H 0.54874 0.9906 0.8972 0.0
C2751 C 0.5977 0.99045 0.94876 0.0
C2752 C 0.58312 0.98728 0.90944 0.0
H2753 H 0.57507 0.00584 0.89218 0.0
C2754 C 0.57486 0.97665 0.90207 0.0
C2755 C 0.58346 0.998 0.90547 0.0
C2756 C 0.59261 0.00982 0.91224 0.0
C2757 C 0.56653 0.97637 0.89138 0.0
C2758 C 0.56655 0.98701 0.88799 0.0
C2759 C 0.57505 0.99769 0.89494 0.0
C2760 C 0.55741 0.98718 0.87793 0.0
C2761 C 0.55747 0.96469 0.88423 0.0
C2762 C 0.55745 0.98564 0.86167 0.0
C2763 C 0.54909 0.98644 0.85224 0.0
C2764 C 0.54059 0.9888 0.85894 0.0
C2765 C 0.54052 0.99015 0.87528 0.0
C2766 C 0.54889 0.9894 0.88466 0.0
H2767 H 0.55779 0.95704 0.88944 0.0
H2768 H 0.54838 0.96332 0.8858 0.0
H2769 H 0.55914 0.96485 0.87146 0.0
H2770 H 0.56407 0.98405 0.85628 0.0
H2771 H 0.54948 0.9855 0.83968 0.0
H2772 H 0.63103 0.03055 0.08183 0.0
H2773 H 0.61836 0.03227 0.10175 0.0
H2774 H 0.5954 0.9942 0.10131 0.0
H2775 H 0.60798 0.99242 0.08155 0.0
H2776 H 0.59486 0.02562 0.09959 0.0
H2777 H 0.60108 0.00086 0.14772 0.0
H2778 H 0.61069 0.00602 0.13078 0.0
H2779 H 0.59656 0.99245 0.12988 0.0
C2780 C 0.62331 0.02255 0.08605 0.0
C2781 C 0.62057 0.01134 0.08023 0.0
C2782 C 0.61611 0.02354 0.09746 0.0
C2783 C 0.60608 0.01334 0.10325 0.0
C2784 C 0.6033 0.00216 0.09737 0.0
H2785 H 0.54294 0.99369 0.15527 0.0
H2786 H 0.55924 0.99529 0.13922 0.0
C2787 C 0.6105 0.00116 0.08605 0.0
C2788 C 0.59808 0.01433 0.11477 0.0
H2789 H 0.58409 0.00346 0.14978 0.0
C2790 C 0.59265 0.02094 0.11068 0.0
C2791 C 0.59523 0.00824 0.12926 0.0
C2792 C 0.60129 0.0016 0.13475 0.0
C2793 C 0.58403 0.02117 0.12037 0.0
C2794 C 0.58085 0.01467 0.13452 0.0
C2795 C 0.58653 0.00837 0.13885 0.0
C2796 C 0.57119 0.01381 0.1446 0.0
C2797 C 0.57803 0.02794 0.11516 0.0
C2798 C 0.57261 0.02369 0.15306 0.0
C2799 C 0.56335 0.02278 0.16241 0.0
C2800 C 0.55251 0.01197 0.16344 0.0
C2801 C 0.5512 0.00209 0.15497 0.0
C2802 C 0.56048 0.003 0.14571 0.0
H2803 H 0.58032 0.03112 0.1029 0.0
H2804 H 0.56823 0.02226 0.11616 0.0
H2805 H 0.58084 0.03577 0.1229 0.0
H2806 H 0.58089 0.03207 0.15247 0.0
H2807 H 0.56473 0.03051 0.16896 0.0
H2808 H 0.99857 0.61814 0.08728 0.0
H2809 H 0.99748 0.60383 0.10665 0.0
H2810 H 0.96637 0.57602 0.08375 0.0
H2811 H 0.96735 0.59032 0.06432 0.0
H2812 H 0.97931 0.5885 0.12753 0.0
H2813 H 0.99008 0.56378 0.08344 0.0
H2814 H 0.99199 0.57828 0.0796 0.0
H2815 H 0.97744 0.56531 0.07886 0.0
C2816 C 0.99136 0.60903 0.08651 0.0
C2817 C 0.98308 0.60535 0.07421 0.0
C2818 C 0.99079 0.60086 0.09755 0.0
C2819 C 0.98196 0.58885 0.09647 0.0
C2820 C 0.9734 0.58522 0.08459 0.0
H2821 H 0.96828 0.53465 0.16687 0.0
H2822 H 0.96642 0.54848 0.14928 0.0
C2823 C 0.97397 0.59338 0.07351 0.0
C2824 C 0.98204 0.58011 0.10745 0.0
H2825 H 0.98601 0.55612 0.10914 0.0
C2826 C 0.98072 0.58138 0.12354 0.0
C2827 C 0.98405 0.57095 0.10218 0.0
C2828 C 0.98608 0.56951 0.0851 0.0
C2829 C 0.98136 0.5737 0.13453 0.0
C2830 C 0.98322 0.56445 0.12922 0.0
C2831 C 0.98451 0.56318 0.11314 0.0
C2832 C 0.98432 0.55625 0.14017 0.0
C2833 C 0.98037 0.57574 0.15173 0.0
C2834 C 0.99492 0.55591 0.14066 0.0
C2835 C 0.99597 0.54796 0.15055 0.0
C2836 C 0.9864 0.54014 0.1601 0.0
C2837 C 0.97578 0.54051 0.15959 0.0
C2838 C 0.97474 0.54848 0.14967 0.0
H2839 H 0.98166 0.58472 0.15401 0.0
H2840 H 0.97139 0.56907 0.15597 0.0
H2841 H 0.98701 0.57469 0.15862 0.0
H2842 H 0.00238 0.56178 0.13332 0.0
H2843 H 0.0042 0.54777 0.15046 0.0
H2844 H 0.39023 0.36628 0.0935 0.0
H2845 H 0.40535 0.37734 0.11354 0.0
H2846 H 0.42644 0.4042 0.0795 0.0
H2847 H 0.41139 0.3933 0.05947 0.0
H2848 H 0.43244 0.38654 0.11138 0.0
H2849 H 0.419 0.42076 0.11813 0.0
H2850 H 0.4091 0.4061 0.11039 0.0
H2851 H 0.42087 0.41699 0.09843 0.0
C2852 C 0.3981 0.37453 0.0903 0.0
C2853 C 0.39962 0.37893 0.07492 0.0
C2854 C 0.40673 0.38078 0.10171 0.0
C2855 C 0.41693 0.39158 0.09795 0.0
C2856 C 0.41859 0.39588 0.08258 0.0
H2857 H 0.48276 0.4385 0.14462 0.0
H2858 H 0.46719 0.42406 0.12739 0.0
C2859 C 0.41002 0.38961 0.07115 0.0
C2860 C 0.42569 0.39862 0.11018 0.0
H2861 H 0.43641 0.42423 0.13133 0.0
C2862 C 0.4333 0.39475 0.11583 0.0
C2863 C 0.42666 0.40924 0.11601 0.0
C2864 C 0.41844 0.41354 0.11056 0.0
C2865 C 0.44211 0.40146 0.12695 0.0
C2866 C 0.44331 0.41228 0.13243 0.0
C2867 C 0.43548 0.41595 0.12705 0.0
C2868 C 0.45281 0.42012 0.14346 0.0
C2869 C 0.45004 0.39693 0.1328 0.0
C2870 C 0.44986 0.42268 0.15819 0.0
C2871 C 0.45873 0.43089 0.1681 0.0
C2872 C 0.47071 0.43678 0.16339 0.0
C2873 C 0.47365 0.434 0.14873 0.0
C2874 C 0.46477 0.42575 0.13885 0.0
H2875 H 0.44621 0.3873 0.13036 0.0
H2876 H 0.45878 0.40182 0.12682 0.0
H2877 H 0.45158 0.39846 0.14559 0.0
H2878 H 0.44066 0.41843 0.16193 0.0
H2879 H 0.45618 0.43269 0.17941 0.0
H2880 H 0.63792 0.69916 0.42313 0.0
H2881 H 0.63379 0.70971 0.44378 0.0
H2882 H 0.65037 0.7417 0.41605 0.0
H2883 H 0.65484 0.73136 0.39561 0.0
H2884 H 0.65804 0.74504 0.44725 0.0
H2885 H 0.60873 0.72031 0.44298 0.0
H2886 H 0.61552 0.71132 0.44545 0.0
H2887 H 0.61815 0.71978 0.42782 0.0
C2888 C 0.64071 0.70845 0.42146 0.0
C2889 C 0.64665 0.7144 0.40768 0.0
C2890 C 0.63824 0.71442 0.43319 0.0
C2891 C 0.64164 0.72643 0.43133 0.0
C2892 C 0.6476 0.7324 0.41765 0.0
H2893 H 0.62266 0.77268 0.47935 0.0
H2894 H 0.62488 0.75929 0.46132 0.0
C2895 C 0.65006 0.72645 0.40593 0.0
C2896 C 0.63935 0.73297 0.44379 0.0
H2897 H 0.61725 0.73465 0.46315 0.0
C2898 C 0.64913 0.74275 0.45079 0.0
C2899 C 0.62771 0.73 0.44825 0.0
C2900 C 0.6169 0.71984 0.44068 0.0
C2901 C 0.64758 0.7497 0.46209 0.0
C2902 C 0.63594 0.74667 0.46666 0.0
C2903 C 0.62615 0.73687 0.4597 0.0
C2904 C 0.63378 0.75397 0.47806 0.0
C2905 C 0.65841 0.76044 0.46868 0.0
C2906 C 0.63779 0.75518 0.49355 0.0
C2907 C 0.63651 0.7628 0.50391 0.0
C2908 C 0.63114 0.7693 0.49896 0.0
C2909 C 0.62674 0.76772 0.48358 0.0
C2910 C 0.62804 0.76011 0.47324 0.0
H2911 H 0.66647 0.763 0.4615 0.0
H2912 H 0.65699 0.76816 0.46942 0.0
H2913 H 0.66011 0.7584 0.48069 0.0
H2914 H 0.64205 0.75034 0.49758 0.0
H2915 H 0.6398 0.76366 0.51576 0.0
H2916 H 0.26493 0.9342 0.40854 0.0
H2917 H 0.25461 0.91885 0.42833 0.0
H2918 H 0.2847 0.91355 0.43141 0.0
H2919 H 0.29509 0.92884 0.41141 0.0
H2920 H 0.24906 0.89472 0.42604 0.0
H2921 H 0.27757 0.91786 0.47756 0.0
H2922 H 0.27771 0.92567 0.46003 0.0
H2923 H 0.2851 0.91715 0.46026 0.0
C2924 C 0.26936 0.92975 0.41336 0.0
C2925 C 0.28083 0.93272 0.40835 0.0
C2926 C 0.26346 0.92103 0.42473 0.0
C2927 C 0.26894 0.91516 0.43141 0.0
C2928 C 0.28042 0.91814 0.42657 0.0
H2929 H 0.24107 0.85873 0.50202 0.0
H2930 H 0.25381 0.87357 0.48259 0.0
C2931 C 0.28633 0.92687 0.41516 0.0
C2932 C 0.26236 0.9056 0.44299 0.0
H2933 H 0.26177 0.89828 0.48149 0.0
C2934 C 0.25185 0.89547 0.43816 0.0
C2935 C 0.26609 0.9066 0.45873 0.0
C2936 C 0.27719 0.91743 0.46457 0.0
C2937 C 0.24488 0.88634 0.4487 0.0
C2938 C 0.24841 0.88748 0.46456 0.0
C2939 C 0.25909 0.89746 0.46932 0.0
C2940 C 0.24084 0.87865 0.47647 0.0
C2941 C 0.23382 0.87551 0.44275 0.0
C2942 C 0.22943 0.87675 0.47961 0.0
C2943 C 0.22214 0.86827 0.49059 0.0
C2944 C 0.22614 0.86157 0.49875 0.0
C2945 C 0.23768 0.86364 0.49578 0.0
C2946 C 0.24498 0.87215 0.48477 0.0
H2947 H 0.23418 0.87445 0.42989 0.0
H2948 H 0.2325 0.86731 0.44858 0.0
H2949 H 0.22598 0.87648 0.44533 0.0
H2950 H 0.22615 0.88182 0.47351 0.0
H2951 H 0.21327 0.86682 0.49246 0.0
H2952 H 0.05533 0.35451 0.42869 0.0
H2953 H 0.06998 0.35954 0.44961 0.0
H2954 H 0.09363 0.35642 0.41706 0.0
H2955 H 0.079 0.35106 0.39625 0.0
H2956 H 0.08007 0.34505 0.45967 0.0
H2957 H 0.11418 0.38954 0.4383 0.0
H2958 H 0.09884 0.38236 0.43212 0.0
H2959 H 0.1088 0.37809 0.42362 0.0
C2960 C 0.06362 0.35483 0.42599 0.0
C2961 C 0.066 0.35243 0.41074 0.0
C2962 C 0.072 0.35779 0.43793 0.0
C2963 C 0.08293 0.35853 0.43478 0.0
C2964 C 0.08533 0.35614 0.41962 0.0
H2965 H 0.14482 0.36533 0.47615 0.0
H2966 H 0.12898 0.36455 0.46001 0.0
C2967 C 0.07696 0.35311 0.40773 0.0
C2968 C 0.09169 0.36124 0.44739 0.0
H2969 H 0.12053 0.38045 0.45734 0.0
C2970 C 0.08886 0.35288 0.45938 0.0
C2971 C 0.10311 0.37147 0.44691 0.0
C2972 C 0.10642 0.38095 0.43463 0.0
C2973 C 0.09741 0.35415 0.47041 0.0
C2974 C 0.10899 0.36416 0.46954 0.0
C2975 C 0.11164 0.37278 0.45795 0.0
C2976 C 0.11877 0.36529 0.47957 0.0
C2977 C 0.09417 0.34444 0.48233 0.0
C2978 C 0.11839 0.3662 0.49592 0.0
C2979 C 0.1274 0.36653 0.50522 0.0
C2980 C 0.13694 0.366 0.49828 0.0
C2981 C 0.13747 0.36552 0.48187 0.0
C2982 C 0.12848 0.36517 0.47262 0.0
H2983 H 0.08561 0.33631 0.47952 0.0
H2984 H 0.10123 0.34204 0.48309 0.0
H2985 H 0.09329 0.34766 0.49402 0.0
H2986 H 0.11106 0.3665 0.50149 0.0
H2987 H 0.12673 0.36688 0.51783 0.0
H2988 H 0.02931 0.30374 0.26177 0.0
H2989 H 0.03892 0.29846 0.24105 0.0
H2990 H 0.06943 0.3092 0.27069 0.0
H2991 H 0.06019 0.31489 0.29118 0.0
H2992 H 0.06317 0.31521 0.22781 0.0
H2993 H 0.05896 0.27444 0.2547 0.0
H2994 H 0.04931 0.28021 0.2598 0.0
H2995 H 0.0641 0.287 0.26762 0.0
C2996 C 0.03809 0.30504 0.26387 0.0
C2997 C 0.04394 0.3097 0.27822 0.0
C2998 C 0.04352 0.30194 0.25206 0.0
C2999 C 0.05479 0.3033 0.25448 0.0
C3000 C 0.06062 0.30788 0.26874 0.0
H3001 H 0.11155 0.29965 0.2129 0.0
H3002 H 0.0962 0.29989 0.22904 0.0
C3003 C 0.05528 0.31108 0.28048 0.0
C3004 C 0.06084 0.30052 0.24193 0.0
H3005 H 0.07291 0.28312 0.23383 0.0
C3006 C 0.06514 0.30807 0.22891 0.0
C3007 C 0.06337 0.29121 0.24352 0.0
C3008 C 0.05863 0.28267 0.25709 0.0
C3009 C 0.07256 0.307 0.21785 0.0
C3010 C 0.07548 0.29795 0.21975 0.0
C3011 C 0.07068 0.29005 0.23241 0.0
C3012 C 0.0844 0.29725 0.20969 0.0
C3013 C 0.07776 0.31599 0.20479 0.0
C3014 C 0.08278 0.29549 0.19346 0.0
C3015 C 0.09166 0.29555 0.18412 0.0
C3016 C 0.10227 0.29727 0.1909 0.0
C3017 C 0.10363 0.29859 0.20724 0.0
C3018 C 0.09481 0.2986 0.21651 0.0
H3019 H 0.0766 0.32378 0.2069 0.0
H3020 H 0.08738 0.3192 0.20333 0.0
H3021 H 0.07322 0.31176 0.19365 0.0
H3022 H 0.07471 0.29419 0.18799 0.0
H3023 H 0.09034 0.29452 0.17157 0.0
H3024 H 0.69715 0.74869 0.29395 0.0
H3025 H 0.70173 0.76321 0.27305 0.0
H3026 H 0.68804 0.73504 0.23878 0.0
H3027 H 0.68317 0.72041 0.25964 0.0
H3028 H 0.71604 0.7681 0.24501 0.0
H3029 H 0.66832 0.75181 0.23256 0.0
H3030 H 0.67321 0.74801 0.25026 0.0
H3031 H 0.67278 0.74078 0.23214 0.0
C3032 C 0.69511 0.74558 0.28196 0.0
C3033 C 0.68969 0.73339 0.27846 0.0
C3034 C 0.6978 0.75389 0.27004 0.0
C3035 C 0.69508 0.75016 0.25443 0.0
C3036 C 0.69008 0.73806 0.2508 0.0
H3037 H 0.69577 0.78947 0.17153 0.0
H3038 H 0.69454 0.77409 0.18919 0.0
C3039 C 0.6874 0.72974 0.26271 0.0
C3040 C 0.69705 0.75892 0.24206 0.0
H3041 H 0.68237 0.76738 0.21682 0.0
C3042 C 0.7087 0.76794 0.23878 0.0
C3043 C 0.68743 0.75864 0.23399 0.0
C3044 C 0.67471 0.74936 0.23744 0.0
C3045 C 0.711 0.77673 0.22757 0.0
C3046 C 0.70137 0.77659 0.21971 0.0
C3047 C 0.68974 0.76744 0.22283 0.0
C3048 C 0.70305 0.78608 0.20865 0.0
C3049 C 0.72373 0.786 0.22414 0.0
C3050 C 0.70824 0.79792 0.21374 0.0
C3051 C 0.70895 0.80671 0.20369 0.0
C3052 C 0.70434 0.8038 0.18841 0.0
C3053 C 0.69929 0.79196 0.18328 0.0
C3054 C 0.69863 0.78318 0.19332 0.0
H3055 H 0.72995 0.78285 0.2274 0.0
H3056 H 0.72499 0.78846 0.21155 0.0
H3057 H 0.72612 0.7941 0.23111 0.0
H3058 H 0.71142 0.8003 0.22564 0.0
H3059 H 0.71271 0.81571 0.20807 0.0
H3060 H 0.27172 0.97007 0.26198 0.0
H3061 H 0.25708 0.96037 0.24105 0.0
H3062 H 0.23631 0.93041 0.27126 0.0
H3063 H 0.25091 0.93991 0.29209 0.0
H3064 H 0.25031 0.93832 0.22724 0.0
H3065 H 0.21163 0.93841 0.25432 0.0
H3066 H 0.22666 0.9478 0.26119 0.0
H3067 H 0.21837 0.93244 0.26693 0.0
C3068 C 0.26403 0.96142 0.26416 0.0
C3069 C 0.26246 0.9558 0.27875 0.0
C3070 C 0.25565 0.95593 0.25223 0.0
C3071 C 0.24551 0.94477 0.25471 0.0
C3072 C 0.24391 0.93916 0.26924 0.0
H3073 H 0.20076 0.88737 0.19491 0.0
H3074 H 0.21592 0.90198 0.21231 0.0
C3075 C 0.25227 0.94462 0.28115 0.0
C3076 C 0.23695 0.93859 0.24187 0.0
H3077 H 0.20743 0.92492 0.23287 0.0
C3078 C 0.24096 0.93553 0.22835 0.0
C3079 C 0.22479 0.93511 0.24327 0.0
C3080 C 0.22011 0.93871 0.25714 0.0
C3081 C 0.23302 0.92855 0.21654 0.0
C3082 C 0.22076 0.92442 0.21842 0.0
C3083 C 0.21683 0.928 0.23154 0.0
C3084 C 0.2118 0.91582 0.20738 0.0
C3085 C 0.23781 0.92551 0.20224 0.0
C3086 C 0.20429 0.91869 0.19905 0.0
C3087 C 0.19561 0.91035 0.189 0.0
C3088 C 0.19424 0.89897 0.18722 0.0
C3089 C 0.20174 0.89613 0.19571 0.0
C3090 C 0.21041 0.90447 0.20569 0.0
H3091 H 0.2474 0.93198 0.20043 0.0
H3092 H 0.2368 0.91658 0.20379 0.0
H3093 H 0.23285 0.9253 0.19156 0.0
H3094 H 0.20519 0.92739 0.20029 0.0
H3095 H 0.19004 0.91285 0.18255 0.0
H3096 H 0.67902 0.9525 0.26017 0.0
H3097 H 0.68404 0.94189 0.24072 0.0
H3098 H 0.70962 0.94163 0.27247 0.0
H3099 H 0.70485 0.95246 0.29192 0.0
H3100 H 0.7073 0.9479 0.22717 0.0
H3101 H 0.68584 0.90593 0.26159 0.0
H3102 H 0.68286 0.91788 0.26519 0.0
H3103 H 0.6965 0.91909 0.27184 0.0
C3104 C 0.68587 0.95039 0.26294 0.0
C3105 C 0.69149 0.95328 0.27766 0.0
C3106 C 0.68868 0.94427 0.25183 0.0
C3107 C 0.69708 0.94087 0.25527 0.0
C3108 C 0.70297 0.94403 0.26972 0.0
H3109 H 0.71584 0.89387 0.20652 0.0
H3110 H 0.71517 0.90801 0.22475 0.0
C3111 C 0.70021 0.95018 0.28083 0.0
C3112 C 0.69937 0.93365 0.24391 0.0
H3113 H 0.69534 0.90591 0.23812 0.0
C3114 C 0.70472 0.93873 0.22953 0.0
C3115 C 0.696 0.92171 0.2471 0.0
C3116 C 0.6899 0.91575 0.2622 0.0
C3117 C 0.70688 0.93217 0.21824 0.0
C3118 C 0.70333 0.92015 0.22132 0.0
C3119 C 0.69808 0.91513 0.23579 0.0
C3120 C 0.70465 0.91245 0.20961 0.0
C3121 C 0.7131 0.93822 0.20324 0.0
C3122 C 0.69901 0.9103 0.195 0.0
C3123 C 0.6995 0.90232 0.18446 0.0
C3124 C 0.70552 0.89623 0.1884 0.0
C3125 C 0.71129 0.89854 0.20298 0.0
C3126 C 0.71084 0.90655 0.21348 0.0
H3127 H 0.71836 0.94803 0.20468 0.0
H3128 H 0.71912 0.93501 0.19917 0.0
H3129 H 0.70636 0.93622 0.19401 0.0
H3130 H 0.69397 0.91455 0.19189 0.0
H3131 H 0.69506 0.90084 0.17328 0.0
H3132 H 0.05534 0.72931 0.27012 0.0
H3133 H 0.06577 0.74489 0.25068 0.0
H3134 H 0.04726 0.76268 0.26664 0.0
H3135 H 0.03647 0.74691 0.28594 0.0
H3136 H 0.05544 0.75344 0.22621 0.0
H3137 H 0.08416 0.78744 0.27026 0.0
H3138 H 0.07657 0.77171 0.27442 0.0
H3139 H 0.06838 0.77941 0.27373 0.0
C3140 C 0.05329 0.73639 0.26935 0.0
C3141 C 0.04503 0.73683 0.27962 0.0
C3142 C 0.05932 0.74533 0.25828 0.0
C3143 C 0.05732 0.75493 0.25733 0.0
C3144 C 0.04899 0.75537 0.26734 0.0
H3145 H 0.08825 0.8098 0.18421 0.0
H3146 H 0.07417 0.79512 0.20287 0.0
C3147 C 0.04288 0.74638 0.27839 0.0
C3148 C 0.06426 0.76462 0.24608 0.0
H3149 H 0.08743 0.79311 0.24376 0.0
C3150 C 0.06235 0.76217 0.23 0.0
C3151 C 0.0733 0.77592 0.25115 0.0
C3152 C 0.07584 0.77885 0.26832 0.0
C3153 C 0.0694 0.77073 0.21881 0.0
C3154 C 0.07856 0.78197 0.22389 0.0
C3155 C 0.08034 0.78448 0.23996 0.0
C3156 C 0.08694 0.79094 0.21272 0.0
C3157 C 0.06734 0.76758 0.20165 0.0
C3158 C 0.09877 0.79351 0.21227 0.0
C3159 C 0.10679 0.80184 0.20168 0.0
C3160 C 0.10314 0.80783 0.19141 0.0
C3161 C 0.09131 0.80535 0.19203 0.0
C3162 C 0.08325 0.79694 0.20259 0.0
H3163 H 0.06091 0.75799 0.19974 0.0
H3164 H 0.0638 0.77283 0.19598 0.0
H3165 H 0.07585 0.76986 0.19578 0.0
H3166 H 0.10177 0.78899 0.22007 0.0
H3167 H 0.11589 0.80369 0.20164 0.0
H3168 H 0.28035 0.32704 0.26336 0.0
H3169 H 0.2652 0.3225 0.24341 0.0
H3170 H 0.23934 0.2935 0.27153 0.0
H3171 H 0.25453 0.29778 0.29141 0.0
H3172 H 0.23858 0.28861 0.23807 0.0
H3173 H 0.23835 0.3303 0.25194 0.0
H3174 H 0.25265 0.33208 0.24734 0.0
H3175 H 0.24498 0.32421 0.26473 0.0
C3176 C 0.27151 0.31955 0.26518 0.0
C3177 C 0.26862 0.31281 0.27903 0.0
C3178 C 0.26284 0.31703 0.25382 0.0
C3179 C 0.25114 0.30777 0.25612 0.0
C3180 C 0.24833 0.30072 0.2696 0.0
H3181 H 0.18679 0.29881 0.21559 0.0
H3182 H 0.20251 0.30017 0.23258 0.0
C3183 C 0.25698 0.30324 0.28098 0.0
C3184 C 0.24169 0.30588 0.24493 0.0
H3185 H 0.22626 0.31875 0.231 0.0
C3186 C 0.23588 0.29519 0.23646 0.0
C3187 C 0.23814 0.31445 0.24303 0.0
C3188 C 0.24376 0.32588 0.25231 0.0
C3189 C 0.22661 0.29287 0.22604 0.0
C3190 C 0.22317 0.30151 0.22403 0.0
C3191 C 0.22898 0.31218 0.23253 0.0
C3192 C 0.21326 0.29959 0.21364 0.0
C3193 C 0.22038 0.28112 0.21754 0.0
C3194 C 0.21407 0.29869 0.19735 0.0
C3195 C 0.2051 0.29796 0.18757 0.0
C3196 C 0.19525 0.29822 0.19395 0.0
C3197 C 0.19436 0.29879 0.21031 0.0
C3198 C 0.20329 0.2995 0.22003 0.0
H3199 H 0.22242 0.27453 0.22275 0.0
H3200 H 0.2106 0.27739 0.2177 0.0
H3201 H 0.22332 0.28249 0.20513 0.0
H3202 H 0.2218 0.29894 0.19217 0.0
H3203 H 0.20609 0.29765 0.17501 0.0
H3204 H 0.27516 0.35452 0.39478 0.0
H3205 H 0.26497 0.359 0.41541 0.0
H3206 H 0.29381 0.3671 0.4472 0.0
H3207 H 0.30395 0.36238 0.42663 0.0
H3208 H 0.27315 0.35279 0.46059 0.0
H3209 H 0.27044 0.38981 0.43335 0.0
H3210 H 0.26431 0.37709 0.4207 0.0
H3211 H 0.27987 0.3845 0.42566 0.0
C3212 C 0.27944 0.35747 0.40608 0.0
C3213 C 0.29037 0.35814 0.40908 0.0
C3214 C 0.27362 0.36008 0.41785 0.0
C3215 C 0.27872 0.36362 0.43278 0.0
C3216 C 0.28974 0.36446 0.43575 0.0
H3217 H 0.24204 0.38467 0.50096 0.0
H3218 H 0.25765 0.38512 0.48443 0.0
C3219 C 0.2955 0.36173 0.42401 0.0
C3220 C 0.27211 0.36553 0.44556 0.0
H3221 H 0.25646 0.37944 0.45418 0.0
C3222 C 0.26965 0.35876 0.45928 0.0
C3223 C 0.26774 0.37349 0.44404 0.0
C3224 C 0.27085 0.38173 0.43021 0.0
C3225 C 0.26245 0.35928 0.47115 0.0
C3226 C 0.25729 0.36651 0.46904 0.0
C3227 C 0.26026 0.37375 0.4557 0.0
C3228 C 0.24828 0.36617 0.48002 0.0
C3229 C 0.26041 0.35202 0.48578 0.0
C3230 C 0.23783 0.35539 0.48304 0.0
C3231 C 0.22898 0.35508 0.49263 0.0
C3232 C 0.23029 0.36559 0.49922 0.0
C3233 C 0.24081 0.37639 0.49626 0.0
C3234 C 0.24971 0.37668 0.48672 0.0
H3235 H 0.26796 0.3505 0.48802 0.0
H3236 H 0.25919 0.35641 0.4962 0.0
H3237 H 0.25231 0.34319 0.48428 0.0
H3238 H 0.23638 0.34721 0.47771 0.0
H3239 H 0.22107 0.34659 0.4948 0.0
H3240 H 0.66619 0.93823 0.4148 0.0
H3241 H 0.661 0.92272 0.43441 0.0
H3242 H 0.62398 0.90711 0.42227 0.0
H3243 H 0.62906 0.92279 0.40283 0.0
H3244 H 0.62893 0.90904 0.45547 0.0
H3245 H 0.65026 0.88779 0.42264 0.0
H3246 H 0.65967 0.90347 0.4259 0.0
H3247 H 0.64675 0.89822 0.41371 0.0
C3248 C 0.65692 0.9316 0.41644 0.0
C3249 C 0.64803 0.93172 0.40722 0.0
C3250 C 0.65399 0.92268 0.42754 0.0
C3251 C 0.64214 0.9137 0.4296 0.0
C3252 C 0.63319 0.91394 0.42075 0.0
H3253 H 0.62117 0.84734 0.47808 0.0
H3254 H 0.62276 0.86227 0.45935 0.0
C3255 C 0.63612 0.92285 0.4096 0.0
C3256 C 0.63914 0.90396 0.44084 0.0
H3257 H 0.64402 0.88105 0.44861 0.0
C3258 C 0.63216 0.90286 0.45396 0.0
C3259 C 0.64324 0.89584 0.43868 0.0
C3260 C 0.65031 0.89628 0.42441 0.0
C3261 C 0.62944 0.89402 0.46526 0.0
C3262 C 0.63394 0.8862 0.4634 0.0
C3263 C 0.64065 0.88711 0.45005 0.0
C3264 C 0.63201 0.87711 0.47525 0.0
C3265 C 0.62173 0.89308 0.47902 0.0
C3266 C 0.63662 0.88051 0.49042 0.0
C3267 C 0.63567 0.87199 0.50118 0.0
C3268 C 0.63014 0.85993 0.49692 0.0
C3269 C 0.62533 0.85654 0.4818 0.0
C3270 C 0.6263 0.86506 0.47105 0.0
H3271 H 0.61645 0.89747 0.4766 0.0
H3272 H 0.61555 0.88364 0.48212 0.0
H3273 H 0.62746 0.89753 0.48931 0.0
H3274 H 0.64125 0.88979 0.49381 0.0
H3275 H 0.63938 0.87487 0.51277 0.0
H3276 H 0.05462 0.71963 0.42572 0.0
H3277 H 0.0699 0.73006 0.44564 0.0
H3278 H 0.09446 0.72384 0.41901 0.0
H3279 H 0.0792 0.7133 0.39906 0.0
H3280 H 0.08335 0.7226 0.46389 0.0
H3281 H 0.11165 0.76033 0.42435 0.0
H3282 H 0.09635 0.74965 0.41993 0.0
H3283 H 0.10773 0.74585 0.41703 0.0
C3284 C 0.06321 0.72032 0.4242 0.0
C3285 C 0.06572 0.7157 0.41075 0.0
C3286 C 0.07194 0.72632 0.43556 0.0
C3287 C 0.08334 0.72785 0.43367 0.0
C3288 C 0.08577 0.72294 0.42053 0.0
H3289 H 0.1398 0.75637 0.50421 0.0
H3290 H 0.12461 0.74336 0.48532 0.0
C3291 C 0.07705 0.71694 0.40914 0.0
C3292 C 0.09275 0.7349 0.44524 0.0
H3293 H 0.11924 0.76066 0.44954 0.0
C3294 C 0.09123 0.7309 0.46078 0.0
C3295 C 0.10293 0.74578 0.44112 0.0
C3296 C 0.10477 0.75075 0.42474 0.0
C3297 C 0.09967 0.73751 0.47235 0.0
C3298 C 0.1099 0.74833 0.46818 0.0
C3299 C 0.11142 0.75231 0.45264 0.0
C3300 C 0.11891 0.75597 0.47989 0.0
C3301 C 0.09742 0.73305 0.489 0.0
C3302 C 0.12083 0.7674 0.48288 0.0
C3303 C 0.12952 0.77486 0.49353 0.0
C3304 C 0.13652 0.77105 0.50136 0.0
C3305 C 0.13459 0.75957 0.49832 0.0
C3306 C 0.12585 0.7521 0.48766 0.0
H3307 H 0.08805 0.72593 0.49085 0.0
H3308 H 0.10326 0.72937 0.4918 0.0
H3309 H 0.09953 0.74042 0.49731 0.0
H3310 H 0.11561 0.77057 0.47692 0.0
H3311 H 0.13092 0.78371 0.4954 0.0
H3312 H 0.29534 0.04703 0.72513 0.0
H3313 H 0.29109 0.05793 0.7451 0.0
H3314 H 0.3154 0.0552 0.77676 0.0
H3315 H 0.31948 0.04407 0.75696 0.0
H3316 H 0.29551 0.0521 0.79184 0.0
H3317 H 0.31452 0.09244 0.75455 0.0
H3318 H 0.30238 0.07961 0.7456 0.0
H3319 H 0.316 0.07973 0.74978 0.0
C3320 C 0.2997 0.04869 0.7364 0.0
C3321 C 0.30781 0.04481 0.73947 0.0
C3322 C 0.2973 0.05495 0.74777 0.0
C3323 C 0.30314 0.05761 0.76228 0.0
C3324 C 0.31083 0.05328 0.76561 0.0
H3325 H 0.3168 0.11582 0.82308 0.0
H3326 H 0.31752 0.10162 0.80516 0.0
C3327 C 0.31314 0.0469 0.75432 0.0
C3328 C 0.30167 0.06537 0.77372 0.0
H3329 H 0.30567 0.09321 0.77836 0.0
C3330 C 0.29771 0.06109 0.78891 0.0
C3331 C 0.30473 0.07716 0.76993 0.0
C3332 C 0.30976 0.08257 0.75414 0.0
C3333 C 0.29673 0.06828 0.80043 0.0
C3334 C 0.29953 0.07997 0.79652 0.0
C3335 C 0.30344 0.08422 0.78131 0.0
C3336 C 0.29903 0.0882 0.80813 0.0
C3337 C 0.29306 0.06341 0.81679 0.0
C3338 C 0.28838 0.08539 0.8158 0.0
C3339 C 0.28798 0.09344 0.82633 0.0
C3340 C 0.2982 0.10452 0.82923 0.0
C3341 C 0.30882 0.1073 0.82143 0.0
C3342 C 0.30922 0.09922 0.81104 0.0
H3343 H 0.29432 0.05568 0.81886 0.0
H3344 H 0.29821 0.07032 0.82571 0.0
H3345 H 0.2835 0.06039 0.81846 0.0
H3346 H 0.28033 0.07705 0.8135 0.0
H3347 H 0.27968 0.09097 0.8322 0.0
H3348 H 0.96752 0.263 0.74572 0.0
H3349 H 0.95758 0.24863 0.76676 0.0
H3350 H 0.92401 0.24499 0.75309 0.0
H3351 H 0.93393 0.25987 0.73279 0.0
H3352 H 0.92653 0.24687 0.78381 0.0
H3353 H 0.93757 0.21316 0.76282 0.0
H3354 H 0.95036 0.22748 0.76637 0.0
H3355 H 0.9401 0.22573 0.75109 0.0
C3356 C 0.95804 0.25923 0.74727 0.0
C3357 C 0.95154 0.26256 0.73742 0.0
C3358 C 0.95234 0.25087 0.75918 0.0
C3359 C 0.94 0.24554 0.76131 0.0
C3360 C 0.93352 0.24891 0.75159 0.0
H3361 H 0.89112 0.18125 0.8094 0.0
H3362 H 0.90426 0.19663 0.79094 0.0
C3363 C 0.93921 0.25734 0.73984 0.0
C3364 C 0.93377 0.23664 0.77385 0.0
H3365 H 0.92781 0.20949 0.78734 0.0
C3366 C 0.92682 0.2387 0.78459 0.0
C3367 C 0.93407 0.22593 0.77477 0.0
C3368 C 0.94083 0.22286 0.76307 0.0
C3369 C 0.92 0.2303 0.79605 0.0
C3370 C 0.92047 0.21968 0.79717 0.0
C3371 C 0.92755 0.21768 0.78657 0.0
C3372 C 0.91312 0.21024 0.80863 0.0
C3373 C 0.91201 0.23269 0.8064 0.0
C3374 C 0.91393 0.21267 0.82475 0.0
C3375 C 0.90631 0.20393 0.83529 0.0
C3376 C 0.89796 0.19252 0.82992 0.0
C3377 C 0.89753 0.18995 0.81387 0.0
C3378 C 0.90502 0.19873 0.80332 0.0
H3379 H 0.91026 0.23951 0.80127 0.0
H3380 H 0.90336 0.22446 0.80841 0.0
H3381 H 0.91638 0.23607 0.81791 0.0
H3382 H 0.92034 0.22138 0.82917 0.0
H3383 H 0.90693 0.20608 0.84764 0.0
H3384 H 0.73443 0.70408 0.74194 0.0
H3385 H 0.74929 0.7091 0.76257 0.0
H3386 H 0.74669 0.67494 0.75679 0.0
H3387 H 0.73156 0.66966 0.7367 0.0
H3388 H 0.74657 0.68094 0.7878 0.0
H3389 H 0.78382 0.71786 0.7552 0.0
H3390 H 0.77082 0.71918 0.7578 0.0
H3391 H 0.77001 0.7074 0.74589 0.0
C3392 C 0.73695 0.6976 0.74517 0.0
C3393 C 0.73188 0.68651 0.73756 0.0
C3394 C 0.74553 0.70054 0.75684 0.0
C3395 C 0.74922 0.69246 0.76103 0.0
C3396 C 0.74402 0.68133 0.75366 0.0
H3397 H 0.81105 0.69869 0.80345 0.0
H3398 H 0.79532 0.69748 0.78668 0.0
C3399 C 0.73545 0.67838 0.74206 0.0
C3400 C 0.7585 0.69548 0.77305 0.0
H3401 H 0.78806 0.7137 0.78042 0.0
C3402 C 0.75562 0.68816 0.78629 0.0
C3403 C 0.77031 0.70487 0.77094 0.0
C3404 C 0.774 0.71274 0.75665 0.0
C3405 C 0.76431 0.68976 0.79728 0.0
C3406 C 0.77614 0.69909 0.79511 0.0
C3407 C 0.77895 0.70661 0.78209 0.0
C3408 C 0.78592 0.70051 0.80541 0.0
C3409 C 0.76085 0.68111 0.8107 0.0
C3410 C 0.78597 0.70283 0.82148 0.0
C3411 C 0.7949 0.70338 0.83116 0.0
C3412 C 0.80395 0.70168 0.8249 0.0
C3413 C 0.80407 0.69978 0.8087 0.0
C3414 C 0.79515 0.6992 0.79907 0.0
H3415 H 0.75204 0.67304 0.80883 0.0
H3416 H 0.76757 0.67832 0.81239 0.0
H3417 H 0.76039 0.68547 0.82164 0.0
H3418 H 0.77903 0.70407 0.82655 0.0
H3419 H 0.79453 0.70482 0.84359 0.0
H3420 H 0.69915 0.62841 0.60776 0.0
H3421 H 0.71101 0.62472 0.58862 0.0
H3422 H 0.73475 0.66246 0.58393 0.0
H3423 H 0.72325 0.66623 0.60332 0.0
H3424 H 0.71751 0.63287 0.55695 0.0
H3425 H 0.75668 0.6494 0.59607 0.0
H3426 H 0.74213 0.6457 0.60313 0.0
H3427 H 0.75142 0.65968 0.59356 0.0
C3428 C 0.70692 0.63592 0.60269 0.0
C3429 C 0.71028 0.64762 0.60713 0.0
C3430 C 0.71363 0.63379 0.59169 0.0
C3431 C 0.72384 0.64331 0.58506 0.0
C3432 C 0.727 0.65499 0.5891 0.0
H3433 H 0.77987 0.65549 0.52162 0.0
H3434 H 0.76537 0.65647 0.53886 0.0
C3435 C 0.72032 0.65712 0.60006 0.0
C3436 C 0.7314 0.64114 0.57416 0.0
H3437 H 0.75965 0.64632 0.56937 0.0
C3438 C 0.7267 0.63569 0.55968 0.0
C3439 C 0.74334 0.64479 0.57784 0.0
C3440 C 0.74868 0.65011 0.59355 0.0
C3441 C 0.7338 0.63423 0.54849 0.0
C3442 C 0.74584 0.6382 0.55204 0.0
C3443 C 0.75043 0.64337 0.56667 0.0
C3444 C 0.754 0.63741 0.54064 0.0
C3445 C 0.72853 0.62882 0.53281 0.0
C3446 C 0.75235 0.62635 0.53587 0.0
C3447 C 0.76067 0.62576 0.52608 0.0
C3448 C 0.77081 0.63623 0.521 0.0
C3449 C 0.77226 0.64727 0.52553 0.0
C3450 C 0.76396 0.64785 0.5353 0.0
H3451 H 0.71989 0.62841 0.53079 0.0
H3452 H 0.73473 0.63399 0.52319 0.0
H3453 H 0.72701 0.61964 0.53229 0.0
H3454 H 0.74482 0.61819 0.54009 0.0
H3455 H 0.75937 0.61712 0.52293 0.0
H3456 H 0.36694 0.08131 0.62192 0.0
H3457 H 0.37125 0.09635 0.60183 0.0
H3458 H 0.34214 0.07034 0.57395 0.0
H3459 H 0.33779 0.05524 0.59396 0.0
H3460 H 0.36259 0.08512 0.55635 0.0
H3461 H 0.35013 0.11109 0.59588 0.0
H3462 H 0.3615 0.1085 0.60343 0.0
H3463 H 0.34676 0.09617 0.60035 0.0
C3464 C 0.36147 0.0788 0.61149 0.0
C3465 C 0.35195 0.06713 0.60958 0.0
C3466 C 0.36394 0.08739 0.60004 0.0
C3467 C 0.35688 0.08449 0.58656 0.0
C3468 C 0.34768 0.07275 0.58431 0.0
H3469 H 0.3469 0.13175 0.52651 0.0
H3470 H 0.34504 0.11632 0.54442 0.0
C3471 C 0.34522 0.06413 0.59573 0.0
C3472 C 0.35876 0.09379 0.57508 0.0
H3473 H 0.35798 0.11949 0.57113 0.0
C3474 C 0.36161 0.09265 0.55955 0.0
C3475 C 0.35731 0.10351 0.57929 0.0
C3476 C 0.35365 0.10488 0.5956 0.0
C3477 C 0.36309 0.10103 0.5481 0.0
C3478 C 0.36186 0.11086 0.55239 0.0
C3479 C 0.359 0.11198 0.56792 0.0
C3480 C 0.36301 0.11988 0.54089 0.0
C3481 C 0.36565 0.09911 0.53144 0.0
C3482 C 0.37375 0.12702 0.53297 0.0
C3483 C 0.37481 0.1358 0.52256 0.0
C3484 C 0.36516 0.13762 0.51998 0.0
C3485 C 0.35443 0.13044 0.52798 0.0
C3486 C 0.35338 0.12168 0.53833 0.0
H3487 H 0.3635 0.08981 0.52938 0.0
H3488 H 0.36051 0.10128 0.52305 0.0
H3489 H 0.37525 0.10505 0.52896 0.0
H3490 H 0.38136 0.12593 0.535 0.0
H3491 H 0.38317 0.14113 0.51652 0.0
H3492 H 0.94692 0.29159 0.5868 0.0
H3493 H 0.93213 0.2811 0.56629 0.0
H3494 H 0.90448 0.26598 0.60121 0.0
H3495 H 0.91916 0.27616 0.62179 0.0
H3496 H 0.91665 0.2558 0.56451 0.0
H3497 H 0.89157 0.27989 0.56807 0.0
H3498 H 0.90637 0.28586 0.57592 0.0
H3499 H 0.89378 0.27469 0.58653 0.0
C3500 C 0.93769 0.28602 0.59013 0.0
C3501 C 0.93423 0.28475 0.60596 0.0
C3502 C 0.92926 0.2801 0.57838 0.0
C3503 C 0.91721 0.27292 0.58224 0.0
C3504 C 0.9137 0.2717 0.59797 0.0
H3505 H 0.8515 0.22377 0.53756 0.0
H3506 H 0.86746 0.23753 0.55492 0.0
C3507 C 0.92212 0.27755 0.60972 0.0
C3508 C 0.90835 0.26611 0.56996 0.0
H3509 H 0.88262 0.26185 0.55345 0.0
C3510 C 0.90928 0.25719 0.56193 0.0
C3511 C 0.89874 0.26794 0.56672 0.0
C3512 C 0.89756 0.27768 0.57465 0.0
C3513 C 0.90059 0.24974 0.55113 0.0
C3514 C 0.89087 0.25146 0.54803 0.0
C3515 C 0.89008 0.26055 0.55585 0.0
C3516 C 0.88118 0.24362 0.53719 0.0
C3517 C 0.90165 0.2398 0.54362 0.0
C3518 C 0.88356 0.24268 0.52138 0.0
C3519 C 0.87447 0.2348 0.51144 0.0
C3520 C 0.8628 0.22784 0.5171 0.0
C3521 C 0.86038 0.22909 0.53282 0.0
C3522 C 0.86949 0.23691 0.54277 0.0
H3523 H 0.90789 0.23788 0.5501 0.0
H3524 H 0.89286 0.23152 0.543 0.0
H3525 H 0.90508 0.24239 0.53151 0.0
H3526 H 0.89247 0.24799 0.51674 0.0
H3527 H 0.87655 0.23417 0.49932 0.0
H3528 H 0.36718 0.28561 0.6244 0.0
H3529 H 0.37176 0.27479 0.60475 0.0
H3530 H 0.3485 0.27813 0.57188 0.0
H3531 H 0.34365 0.28873 0.59152 0.0
H3532 H 0.35419 0.25305 0.59012 0.0
H3533 H 0.37976 0.28885 0.54685 0.0
H3534 H 0.37766 0.29189 0.56689 0.0
H3535 H 0.36582 0.2873 0.55297 0.0
C3536 C 0.36303 0.28405 0.61299 0.0
C3537 C 0.35502 0.28802 0.60956 0.0
C3538 C 0.36572 0.27793 0.60176 0.0
C3539 C 0.36057 0.27579 0.58684 0.0
C3540 C 0.35275 0.27991 0.58324 0.0
H3541 H 0.35921 0.23562 0.50528 0.0
H3542 H 0.35748 0.24887 0.5241 0.0
C3543 C 0.35001 0.28598 0.59449 0.0
C3544 C 0.36274 0.26852 0.5754 0.0
H3545 H 0.37429 0.2692 0.53924 0.0
C3546 C 0.35866 0.25658 0.57904 0.0
C3547 C 0.36849 0.27317 0.56093 0.0
C3548 C 0.37328 0.28603 0.55666 0.0
C3549 C 0.35996 0.24905 0.56844 0.0
C3550 C 0.36577 0.2537 0.55397 0.0
C3551 C 0.36988 0.26567 0.55036 0.0
C3552 C 0.36741 0.24618 0.54234 0.0
C3553 C 0.35476 0.23611 0.57265 0.0
C3554 C 0.37381 0.2405 0.54622 0.0
C3555 C 0.37468 0.23279 0.53558 0.0
C3556 C 0.36927 0.23072 0.52076 0.0
C3557 C 0.36327 0.23682 0.5167 0.0
C3558 C 0.36236 0.24448 0.52738 0.0
H3559 H 0.34793 0.23335 0.58201 0.0
H3560 H 0.35065 0.23032 0.56229 0.0
H3561 H 0.36194 0.23464 0.57703 0.0
H3562 H 0.37799 0.24188 0.55758 0.0
H3563 H 0.37929 0.2282 0.53916 0.0
H3564 H 0.70522 0.05407 0.58791 0.0
H3565 H 0.7152 0.06866 0.56704 0.0
H3566 H 0.73459 0.09583 0.60154 0.0
H3567 H 0.72491 0.08131 0.62247 0.0
H3568 H 0.7236 0.1021 0.57563 0.0
H3569 H 0.75141 0.08296 0.55624 0.0
H3570 H 0.73568 0.07286 0.55805 0.0
H3571 H 0.74434 0.07982 0.57523 0.0
C3572 C 0.71166 0.06313 0.59107 0.0
C3573 C 0.71429 0.0665 0.60689 0.0
C3574 C 0.71731 0.07145 0.57913 0.0
C3575 C 0.72568 0.08327 0.58279 0.0
C3576 C 0.72813 0.08674 0.59852 0.0
H3577 H 0.77398 0.14873 0.53685 0.0
H3578 H 0.7601 0.1332 0.55454 0.0
C3579 C 0.72253 0.07843 0.61046 0.0
C3580 C 0.73215 0.09201 0.57027 0.0
H3581 H 0.75369 0.09964 0.54256 0.0
C3582 C 0.73015 0.10156 0.56832 0.0
C3583 C 0.74061 0.0912 0.56075 0.0
C3584 C 0.74325 0.08122 0.56266 0.0
C3585 C 0.73645 0.11041 0.55709 0.0
C3586 C 0.74519 0.1098 0.54788 0.0
C3587 C 0.74699 0.10009 0.54963 0.0
C3588 C 0.75297 0.11938 0.53686 0.0
C3589 C 0.73363 0.12025 0.55513 0.0
C3590 C 0.75373 0.11675 0.5211 0.0
C3591 C 0.76174 0.12561 0.51099 0.0
C3592 C 0.76915 0.13725 0.51648 0.0
C3593 C 0.76824 0.1399 0.53221 0.0
C3594 C 0.76029 0.13103 0.54233 0.0
H3595 H 0.72447 0.11745 0.55916 0.0
H3596 H 0.73988 0.128 0.56232 0.0
H3597 H 0.73454 0.12313 0.54273 0.0
H3598 H 0.74821 0.10781 0.51666 0.0
H3599 H 0.76218 0.12333 0.4989 0.0
H3600 H 0.92544 0.62869 0.61145 0.0
H3601 H 0.9108 0.62358 0.59051 0.0
H3602 H 0.92669 0.66065 0.57848 0.0
H3603 H 0.94126 0.66583 0.59936 0.0
H3604 H 0.89448 0.63111 0.58784 0.0
H3605 H 0.92402 0.64525 0.53597 0.0
H3606 H 0.92872 0.64311 0.55497 0.0
H3607 H 0.92881 0.65668 0.55058 0.0
C3608 C 0.92583 0.63574 0.60431 0.0
C3609 C 0.93455 0.64767 0.60703 0.0
C3610 C 0.91751 0.6328 0.59231 0.0
C3611 C 0.9178 0.64171 0.58277 0.0
C3612 C 0.92651 0.6536 0.58542 0.0
H3613 H 0.8751 0.65349 0.51874 0.0
H3614 H 0.89038 0.65383 0.53569 0.0
C3615 C 0.93482 0.65655 0.59739 0.0
C3616 C 0.90853 0.63875 0.57074 0.0
H3617 H 0.90459 0.64274 0.53219 0.0
C3618 C 0.89665 0.63346 0.57561 0.0
C3619 C 0.9114 0.64181 0.5548 0.0
C3620 C 0.92392 0.64692 0.54872 0.0
C3621 C 0.88761 0.63171 0.56513 0.0
C3622 C 0.89056 0.63521 0.54933 0.0
C3623 C 0.90238 0.6401 0.54433 0.0
C3624 C 0.88165 0.63473 0.53816 0.0
C3625 C 0.87509 0.62668 0.5712 0.0
C3626 C 0.87182 0.62385 0.53366 0.0
C3627 C 0.86303 0.62362 0.52402 0.0
C3628 C 0.86395 0.63429 0.51876 0.0
C3629 C 0.87404 0.64514 0.52283 0.0
C3630 C 0.88282 0.64535 0.53242 0.0
H3631 H 0.87471 0.62642 0.5842 0.0
H3632 H 0.87117 0.63203 0.56696 0.0
H3633 H 0.86952 0.61748 0.56676 0.0
H3634 H 0.87086 0.61555 0.53783 0.0
H3635 H 0.85534 0.61514 0.52111 0.0
H3636 H 0.96058 0.70678 0.73246 0.0
H3637 H 0.95073 0.71192 0.75299 0.0
H3638 H 0.93893 0.67799 0.77504 0.0
H3639 H 0.94885 0.67288 0.75475 0.0
H3640 H 0.92746 0.70082 0.75957 0.0
H3641 H 0.95163 0.69986 0.81223 0.0
H3642 H 0.95698 0.70008 0.79265 0.0
H3643 H 0.94578 0.68633 0.80121 0.0
C3644 C 0.95596 0.70047 0.74178 0.0
C3645 C 0.95554 0.68946 0.74205 0.0
C3646 C 0.95038 0.70343 0.75351 0.0
C3647 C 0.94428 0.69544 0.76572 0.0
C3648 C 0.94389 0.68445 0.76603 0.0
H3649 H 0.8903 0.68269 0.83211 0.0
H3650 H 0.9053 0.68258 0.81485 0.0
C3651 C 0.94953 0.68153 0.75438 0.0
C3652 C 0.93754 0.69813 0.77745 0.0
H3653 H 0.93265 0.69841 0.81674 0.0
C3654 C 0.92874 0.7005 0.77206 0.0
C3655 C 0.93922 0.69773 0.79377 0.0
C3656 C 0.949 0.69598 0.80031 0.0
C3657 C 0.92125 0.70195 0.78254 0.0
C3658 C 0.92262 0.70105 0.79879 0.0
C3659 C 0.93162 0.69903 0.80423 0.0
C3660 C 0.91429 0.70146 0.81019 0.0
C3661 C 0.91159 0.70397 0.77619 0.0
C3662 C 0.91457 0.71216 0.81347 0.0
C3663 C 0.90603 0.71226 0.82334 0.0
C3664 C 0.89705 0.70163 0.82998 0.0
C3665 C 0.89703 0.69099 0.82701 0.0
C3666 C 0.90562 0.69092 0.81725 0.0
H3667 H 0.91088 0.70316 0.76323 0.0
H3668 H 0.90287 0.69749 0.7814 0.0
H3669 H 0.91348 0.71302 0.7795 0.0
H3670 H 0.92124 0.72038 0.80813 0.0
H3671 H 0.9062 0.72057 0.82535 0.0
H3672 H 0.33069 0.27437 0.74877 0.0
H3673 H 0.32543 0.25881 0.76826 0.0
H3674 H 0.28904 0.24119 0.7526 0.0
H3675 H 0.29414 0.2569 0.73322 0.0
H3676 H 0.30703 0.25051 0.79289 0.0
H3677 H 0.30031 0.21607 0.74878 0.0
H3678 H 0.30847 0.23176 0.74439 0.0
H3679 H 0.29256 0.2241 0.74566 0.0
C3680 C 0.32152 0.26731 0.74961 0.0
C3681 C 0.31284 0.26689 0.7394 0.0
C3682 C 0.31855 0.2584 0.76071 0.0
C3683 C 0.30689 0.24884 0.76175 0.0
C3684 C 0.29813 0.24845 0.75182 0.0
H3685 H 0.2824 0.19409 0.83502 0.0
H3686 H 0.28328 0.20896 0.81653 0.0
C3687 C 0.30107 0.2574 0.74072 0.0
C3688 C 0.30406 0.23916 0.77301 0.0
H3689 H 0.29787 0.21041 0.77529 0.0
C3690 C 0.3049 0.2417 0.78909 0.0
C3691 C 0.30138 0.22773 0.76793 0.0
C3692 C 0.30068 0.22469 0.75076 0.0
C3693 C 0.30328 0.23311 0.80026 0.0
C3694 C 0.30076 0.22174 0.79516 0.0
C3695 C 0.29974 0.21914 0.7791 0.0
C3696 C 0.30002 0.2127 0.80626 0.0
C3697 C 0.3047 0.23634 0.81741 0.0
C3698 C 0.30907 0.20984 0.80642 0.0
C3699 C 0.3086 0.20141 0.81691 0.0
C3700 C 0.29901 0.19561 0.82736 0.0
C3701 C 0.28987 0.19839 0.82705 0.0
C3702 C 0.29039 0.20691 0.81659 0.0
H3703 H 0.30813 0.24598 0.8193 0.0
H3704 H 0.29596 0.23127 0.82334 0.0
H3705 H 0.31086 0.23389 0.82303 0.0
H3706 H 0.31655 0.2142 0.79847 0.0
H3707 H 0.31569 0.19933 0.81672 0.0
H3708 H 0.73 0.03167 0.75385 0.0
H3709 H 0.74471 0.04208 0.77449 0.0
H3710 H 0.76189 0.07346 0.74566 0.0
H3711 H 0.74718 0.06325 0.72512 0.0
H3712 H 0.77766 0.06696 0.76064 0.0
H3713 H 0.74554 0.06906 0.80182 0.0
H3714 H 0.74151 0.0546 0.79426 0.0
H3715 H 0.74239 0.06582 0.78124 0.0
C3716 C 0.73688 0.0408 0.75193 0.0
C3717 C 0.73738 0.04663 0.73784 0.0
C3718 C 0.74528 0.04672 0.76372 0.0
C3719 C 0.7543 0.05856 0.76163 0.0
C3720 C 0.755 0.06431 0.74747 0.0
H3721 H 0.79953 0.1148 0.8237 0.0
H3722 H 0.78467 0.10108 0.80518 0.0
C3723 C 0.74661 0.05842 0.73571 0.0
C3724 C 0.7629 0.06513 0.77427 0.0
H3725 H 0.76532 0.07733 0.81046 0.0
C3726 C 0.77498 0.06915 0.7716 0.0
C3727 C 0.75934 0.06805 0.78845 0.0
C3728 C 0.74651 0.06426 0.79166 0.0
C3729 C 0.78364 0.07615 0.78272 0.0
C3730 C 0.78008 0.0791 0.79689 0.0
C3731 C 0.76799 0.07496 0.79962 0.0
C3732 C 0.78884 0.0871 0.80858 0.0
C3733 C 0.79656 0.08069 0.77902 0.0
C3734 C 0.79598 0.08369 0.81678 0.0
C3735 C 0.80444 0.09149 0.8275 0.0
C3736 C 0.80588 0.10282 0.8302 0.0
C3737 C 0.79856 0.10609 0.82209 0.0
C3738 C 0.7901 0.09829 0.81143 0.0
H3739 H 0.79797 0.07943 0.76648 0.0
H3740 H 0.80202 0.09028 0.78194 0.0
H3741 H 0.79981 0.0758 0.78621 0.0
H3742 H 0.795 0.07501 0.8149 0.0
H3743 H 0.80981 0.08862 0.83372 0.0
H3744 H 0.06431 0.35699 0.04282 0.0
H3745 H 0.07808 0.35177 0.05509 0.0
H3746 H 0.05209 0.31456 0.05047 0.0
H3747 H 0.03826 0.31967 0.03832 0.0
H3748 H 0.07433 0.33867 0.08256 0.0
H3749 H 0.08212 0.31656 0.03199 0.0
H3750 H 0.07564 0.32593 0.02987 0.0
H3751 H 0.06671 0.31086 0.03654 0.0
C3752 C 0.06153 0.3477 0.04441 0.0
C3753 C 0.05021 0.33874 0.03952 0.0
C3754 C 0.06942 0.34474 0.05135 0.0
C3755 C 0.06617 0.33278 0.05344 0.0
C3756 C 0.05489 0.32383 0.0486 0.0
H3757 H 0.09739 0.29558 0.09926 0.0
H3758 H 0.08465 0.30119 0.0849 0.0
C3759 C 0.047 0.32677 0.04166 0.0
C3760 C 0.07434 0.32966 0.06139 0.0
H3761 H 0.08921 0.31444 0.05675 0.0
C3762 C 0.07766 0.33345 0.07689 0.0
C3763 C 0.07861 0.3228 0.05397 0.0
C3764 C 0.07569 0.31888 0.03713 0.0
C3765 C 0.08496 0.33036 0.0853 0.0
C3766 C 0.0892 0.32347 0.0779 0.0
C3767 C 0.08591 0.3197 0.06238 0.0
C3768 C 0.09708 0.32009 0.0861 0.0
C3769 C 0.08784 0.33425 0.10216 0.0
C3770 C 0.10836 0.32886 0.09122 0.0
C3771 C 0.11565 0.32569 0.09937 0.0
C3772 C 0.11182 0.31368 0.10247 0.0
C3773 C 0.10062 0.3049 0.09697 0.0
C3774 C 0.09332 0.30808 0.08883 0.0
H3775 H 0.08159 0.33686 0.10718 0.0
H3776 H 0.08755 0.32705 0.10947 0.0
H3777 H 0.09695 0.34205 0.10285 0.0
H3778 H 0.11152 0.33816 0.08891 0.0
H3779 H 0.12432 0.33265 0.10316 0.0
H3780 H 0.67982 0.70848 0.05287 0.0
H3781 H 0.68575 0.72769 0.06503 0.0
H3782 H 0.65341 0.72565 0.04892 0.0
H3783 H 0.6475 0.70657 0.03629 0.0
H3784 H 0.68785 0.74909 0.04915 0.0
H3785 H 0.65507 0.73136 0.09799 0.0
H3786 H 0.65948 0.72222 0.08721 0.0
H3787 H 0.64943 0.72625 0.07858 0.0
C3788 C 0.67401 0.71216 0.05172 0.0
C3789 C 0.66318 0.70596 0.04357 0.0
C3790 C 0.6774 0.7231 0.05877 0.0
C3791 C 0.66997 0.72799 0.05795 0.0
C3792 C 0.65918 0.72191 0.04982 0.0
H3793 H 0.68385 0.79882 0.08019 0.0
H3794 H 0.67863 0.77989 0.06751 0.0
C3795 C 0.65581 0.71099 0.04267 0.0
C3796 C 0.67357 0.73952 0.06553 0.0
H3797 H 0.66684 0.75226 0.09586 0.0
C3798 C 0.68328 0.74981 0.05936 0.0
C3799 C 0.66762 0.74035 0.07891 0.0
C3800 C 0.65736 0.72947 0.0862 0.0
C3801 C 0.68709 0.76099 0.06613 0.0
C3802 C 0.68102 0.76184 0.07936 0.0
C3803 C 0.67142 0.75153 0.08567 0.0
C3804 C 0.68449 0.77338 0.08683 0.0
C3805 C 0.69765 0.77181 0.05923 0.0
C3806 C 0.68943 0.7759 0.10189 0.0
C3807 C 0.69243 0.78669 0.10914 0.0
C3808 C 0.69039 0.79506 0.1015 0.0
C3809 C 0.68544 0.7925 0.08638 0.0
C3810 C 0.68254 0.78175 0.0791 0.0
H3811 H 0.70266 0.7694 0.05088 0.0
H3812 H 0.69453 0.77717 0.05287 0.0
H3813 H 0.70378 0.77748 0.06864 0.0
H3814 H 0.69093 0.76949 0.10805 0.0
H3815 H 0.6961 0.78837 0.12086 0.0
H3816 H 0.29022 0.96716 0.05752 0.0
H3817 H 0.27091 0.95346 0.06901 0.0
H3818 H 0.26701 0.92597 0.03713 0.0
H3819 H 0.28661 0.93945 0.02605 0.0
H3820 H 0.24904 0.94204 0.05534 0.0
H3821 H 0.26039 0.90926 0.07904 0.0
H3822 H 0.27154 0.92372 0.07211 0.0
H3823 H 0.26309 0.91192 0.05842 0.0
C3824 C 0.28537 0.95814 0.05312 0.0
C3825 C 0.29004 0.95438 0.04097 0.0
C3826 C 0.27428 0.95036 0.05961 0.0
C3827 C 0.26761 0.93865 0.05409 0.0
C3828 C 0.27212 0.9349 0.04178 0.0
H3829 H 0.19784 0.88027 0.07943 0.0
H3830 H 0.2165 0.89359 0.06601 0.0
C3831 C 0.28326 0.94267 0.03533 0.0
C3832 C 0.25587 0.93048 0.06112 0.0
H3833 H 0.24017 0.90413 0.08056 0.0
C3834 C 0.2471 0.93376 0.06088 0.0
C3835 C 0.25338 0.91969 0.06835 0.0
C3836 C 0.26262 0.91596 0.06966 0.0
C3837 C 0.23588 0.92651 0.06761 0.0
C3838 C 0.23342 0.91575 0.07483 0.0
C3839 C 0.24212 0.91239 0.07495 0.0
C3840 C 0.22195 0.90795 0.08264 0.0
C3841 C 0.22669 0.93032 0.06686 0.0
C3842 C 0.2189 0.91165 0.09644 0.0
C3843 C 0.20832 0.90402 0.10425 0.0
C3844 C 0.20061 0.89256 0.09838 0.0
C3845 C 0.20366 0.88897 0.0844 0.0
C3846 C 0.21427 0.89658 0.07666 0.0
H3847 H 0.22909 0.93753 0.05817 0.0
H3848 H 0.21784 0.92268 0.06378 0.0
H3849 H 0.22593 0.93365 0.07852 0.0
H3850 H 0.22483 0.92034 0.10135 0.0
H3851 H 0.20635 0.907 0.11511 0.0
H3852 H 0.32039 0.03965 0.98702 0.0
H3853 H 0.31434 0.05264 0.97444 0.0
H3854 H 0.34812 0.07114 0.95065 0.0
H3855 H 0.35426 0.05818 0.9632 0.0
H3856 H 0.32478 0.07728 0.97562 0.0
H3857 H 0.3242 0.06177 0.91487 0.0
H3858 H 0.3248 0.05382 0.93181 0.0
H3859 H 0.33803 0.06674 0.92489 0.0
C3860 C 0.32658 0.04655 0.97922 0.0
C3861 C 0.3378 0.04788 0.97607 0.0
C3862 C 0.32307 0.05392 0.97198 0.0
C3863 C 0.3307 0.06271 0.96142 0.0
C3864 C 0.34199 0.06422 0.95848 0.0
H3865 H 0.3291 0.11769 0.90739 0.0
H3866 H 0.33406 0.10406 0.92052 0.0
C3867 C 0.34549 0.05683 0.96568 0.0
C3868 C 0.32689 0.0704 0.95365 0.0
H3869 H 0.3222 0.07886 0.9178 0.0
C3870 C 0.32413 0.07758 0.96299 0.0
C3871 C 0.32602 0.07072 0.93717 0.0
C3872 C 0.32831 0.06277 0.92658 0.0
C3873 C 0.32083 0.08534 0.95625 0.0
C3874 C 0.32014 0.08577 0.93977 0.0
C3875 C 0.32277 0.07851 0.93044 0.0
C3876 C 0.31699 0.09395 0.93194 0.0
C3877 C 0.31844 0.09323 0.96678 0.0
C3878 C 0.30569 0.09266 0.93389 0.0
C3879 C 0.30284 0.10047 0.92645 0.0
C3880 C 0.31125 0.10968 0.91694 0.0
C3881 C 0.3225 0.11081 0.91486 0.0
C3882 C 0.32533 0.103 0.92226 0.0
H3883 H 0.32183 0.09367 0.97884 0.0
H3884 H 0.32259 0.10238 0.96199 0.0
H3885 H 0.30871 0.08965 0.96752 0.0
H3886 H 0.29908 0.0856 0.94113 0.0
H3887 H 0.29412 0.0994 0.92832 0.0
H3888 H 0.95949 0.27871 0.99651 0.0
H3889 H 0.94648 0.25934 0.9844 0.0
H3890 H 0.93758 0.27643 0.94792 0.0
H3891 H 0.95044 0.29577 0.96007 0.0
H3892 H 0.91813 0.25685 0.95908 0.0
H3893 H 0.95353 0.24633 0.9452 0.0
H3894 H 0.95284 0.2494 0.96556 0.0
H3895 H 0.95675 0.26094 0.95129 0.0
C3896 C 0.95478 0.27832 0.98587 0.0
C3897 C 0.956 0.28875 0.97921 0.0
C3898 C 0.9474 0.26727 0.97893 0.0
C3899 C 0.94124 0.26647 0.96509 0.0
C3900 C 0.94229 0.27685 0.95857 0.0
H3901 H 0.90726 0.20698 0.90069 0.0
H3902 H 0.92071 0.22573 0.91395 0.0
C3903 C 0.94959 0.28788 0.96556 0.0
C3904 C 0.93355 0.25483 0.95749 0.0
H3905 H 0.93361 0.23084 0.94125 0.0
C3906 C 0.92152 0.25117 0.95516 0.0
C3907 C 0.93803 0.24751 0.95218 0.0
C3908 C 0.95102 0.25127 0.95353 0.0
C3909 C 0.9138 0.24034 0.94779 0.0
C3910 C 0.91819 0.23284 0.94297 0.0
C3911 C 0.93025 0.23655 0.94513 0.0
C3912 C 0.91043 0.22122 0.93536 0.0
C3913 C 0.9011 0.23717 0.94493 0.0
C3914 C 0.90039 0.21237 0.94317 0.0
C3915 C 0.8927 0.20169 0.93563 0.0
C3916 C 0.89499 0.19962 0.92019 0.0
C3917 C 0.90531 0.20831 0.91262 0.0
C3918 C 0.91297 0.21902 0.92015 0.0
H3919 H 0.90005 0.24513 0.94538 0.0
H3920 H 0.89792 0.23279 0.93337 0.0
H3921 H 0.89533 0.23092 0.95414 0.0
H3922 H 0.89844 0.21376 0.95507 0.0
H3923 H 0.88491 0.19507 0.94184 0.0
H3924 H 0.7178 0.66948 0.99603 0.0
H3925 H 0.73738 0.67656 0.98405 0.0
H3926 H 0.72063 0.66135 0.93985 0.0
H3927 H 0.70107 0.65435 0.95165 0.0
H3928 H 0.74552 0.6619 0.96698 0.0
H3929 H 0.7454 0.69738 0.93096 0.0
H3930 H 0.73598 0.69106 0.94793 0.0
H3931 H 0.73222 0.68298 0.9298 0.0
C3932 C 0.7183 0.66769 0.98375 0.0
C3933 C 0.70791 0.66138 0.97476 0.0
C3934 C 0.72947 0.67169 0.97696 0.0
C3935 C 0.7304 0.66958 0.96106 0.0
C3936 C 0.72006 0.66316 0.95211 0.0
H3937 H 0.78508 0.68505 0.89333 0.0
H3938 H 0.76683 0.67959 0.90775 0.0
C3939 C 0.7089 0.65908 0.9589 0.0
C3940 C 0.74218 0.67397 0.95376 0.0
H3941 H 0.76078 0.69308 0.92595 0.0
C3942 C 0.74894 0.66878 0.9581 0.0
C3943 C 0.74654 0.68293 0.94219 0.0
C3944 C 0.73973 0.68901 0.93748 0.0
C3945 C 0.75982 0.67204 0.95075 0.0
C3946 C 0.76414 0.68094 0.93904 0.0
C3947 C 0.75745 0.68627 0.93493 0.0
C3948 C 0.77534 0.6845 0.93045 0.0
C3949 C 0.76635 0.66562 0.95518 0.0
C3950 C 0.78622 0.68927 0.93839 0.0
C3951 C 0.79666 0.69226 0.93019 0.0
C3952 C 0.79643 0.69064 0.91387 0.0
C3953 C 0.78555 0.68619 0.90592 0.0
C3954 C 0.77512 0.68315 0.91413 0.0
H3955 H 0.76046 0.65712 0.96132 0.0
H3956 H 0.77014 0.66369 0.94468 0.0
H3957 H 0.77377 0.67131 0.96319 0.0
H3958 H 0.78662 0.69063 0.95094 0.0
H3959 H 0.80487 0.6956 0.9367 0.0
H3960 H 0.96443 0.68397 0.97893 0.0
H3961 H 0.95105 0.69023 0.9681 0.0
H3962 H 0.92259 0.65376 0.96722 0.0
H3963 H 0.9358 0.64745 0.97851 0.0
H3964 H 0.93944 0.68319 0.93945 0.0
H3965 H 0.90708 0.67096 0.98814 0.0
H3966 H 0.92142 0.67216 0.9906 0.0
H3967 H 0.90938 0.6591 0.98182 0.0
C3968 C 0.95526 0.6773 0.97673 0.0
C3969 C 0.95116 0.66521 0.97964 0.0
C3970 C 0.94766 0.68089 0.97045 0.0
C3971 C 0.9358 0.67248 0.96707 0.0
C3972 C 0.93165 0.66041 0.97003 0.0
H3973 H 0.87715 0.67173 0.91979 0.0
H3974 H 0.89069 0.66735 0.93428 0.0
C3975 C 0.93925 0.65681 0.9763 0.0
C3976 C 0.92798 0.67625 0.95956 0.0
H3977 H 0.9017 0.67589 0.96379 0.0
C3978 C 0.93124 0.6817 0.94482 0.0
C3979 C 0.9173 0.67427 0.96662 0.0
C3980 C 0.91361 0.6689 0.98273 0.0
C3981 C 0.92392 0.68493 0.93671 0.0
C3982 C 0.91316 0.68281 0.94367 0.0
C3983 C 0.90997 0.67749 0.95851 0.0
C3984 C 0.9049 0.68566 0.93546 0.0
C3985 C 0.92757 0.69021 0.92054 0.0
C3986 C 0.90834 0.69743 0.93158 0.0
C3987 C 0.90066 0.69996 0.9232 0.0
C3988 C 0.88938 0.69075 0.91861 0.0
C3989 C 0.88586 0.679 0.92291 0.0
C3990 C 0.89354 0.67649 0.93129 0.0
H3991 H 0.93465 0.6888 0.91551 0.0
H3992 H 0.91985 0.68631 0.91246 0.0
H3993 H 0.93105 0.69993 0.92119 0.0
H3994 H 0.91702 0.70465 0.93492 0.0
H3995 H 0.90365 0.70909 0.92001 0.0
H3996 H 0.35602 0.30065 0.96117 0.0
H3997 H 0.35005 0.2815 0.94863 0.0
H3998 H 0.31728 0.26532 0.97484 0.0
H3999 H 0.32307 0.28445 0.98722 0.0
H4000 H 0.34367 0.25911 0.9638 0.0
H4001 H 0.30692 0.25709 0.92826 0.0
H4002 H 0.31845 0.27074 0.93684 0.0
H4003 H 0.3066 0.25994 0.94881 0.0
C4004 C 0.34752 0.29302 0.96419 0.0
C4005 C 0.34 0.29406 0.97515 0.0
C4006 C 0.34415 0.2821 0.95708 0.0
C4007 C 0.33317 0.27207 0.96069 0.0
C4008 C 0.32572 0.27301 0.97177 0.0
H4009 H 0.29658 0.19912 0.927 0.0
H4010 H 0.30216 0.21792 0.94026 0.0
C4011 C 0.3291 0.28391 0.97894 0.0
C4012 C 0.32955 0.26057 0.95294 0.0
H4013 H 0.30915 0.24014 0.92776 0.0
C4014 C 0.33615 0.25495 0.95589 0.0
C4015 C 0.3197 0.2552 0.9427 0.0
C4016 C 0.31253 0.26106 0.93882 0.0
C4017 C 0.33306 0.24398 0.94899 0.0
C4018 C 0.32328 0.23865 0.9386 0.0
C4019 C 0.31665 0.24425 0.93573 0.0
C4020 C 0.31988 0.22733 0.93043 0.0
C4021 C 0.34015 0.23808 0.95313 0.0
C4022 C 0.32791 0.22648 0.92029 0.0
C4023 C 0.32476 0.21578 0.91272 0.0
C4024 C 0.31345 0.20575 0.91503 0.0
C4025 C 0.30532 0.20671 0.92492 0.0
C4026 C 0.30851 0.21742 0.93255 0.0
H4027 H 0.34504 0.24154 0.96432 0.0
H4028 H 0.33432 0.2283 0.95412 0.0
H4029 H 0.34679 0.23991 0.94377 0.0
H4030 H 0.33662 0.23412 0.91817 0.0
H4031 H 0.33113 0.21538 0.90492 0.0
H4032 H 0.70676 0.03645 0.95832 0.0
H4033 H 0.72627 0.04953 0.94681 0.0
H4034 H 0.73703 0.07091 0.98875 0.0
H4035 H 0.71737 0.05797 0.00028 0.0
H4036 H 0.74216 0.08393 0.96 0.0
H4037 H 0.75783 0.05133 0.9592 0.0
H4038 H 0.74349 0.04609 0.95049 0.0
H4039 H 0.74547 0.04936 0.97108 0.0
C4040 C 0.71323 0.04399 0.96506 0.0
C4041 C 0.71051 0.0462 0.98021 0.0
C4042 C 0.72442 0.05136 0.95854 0.0
C4043 C 0.73313 0.06106 0.96703 0.0
C4044 C 0.73044 0.06339 0.98208 0.0
H4045 H 0.80424 0.1177 0.94188 0.0
H4046 H 0.78572 0.10465 0.95575 0.0
C4047 C 0.71924 0.05598 0.98866 0.0
C4048 C 0.74491 0.06894 0.95996 0.0
H4049 H 0.76941 0.06924 0.94499 0.0
C4050 C 0.74819 0.08078 0.95683 0.0
C4051 C 0.75268 0.06474 0.95581 0.0
C4052 C 0.74977 0.05221 0.95942 0.0
C4053 C 0.75892 0.08847 0.94923 0.0
C4054 C 0.76667 0.08424 0.94496 0.0
C4055 C 0.76344 0.07244 0.94826 0.0
C4056 C 0.77808 0.09191 0.93685 0.0
C4057 C 0.7617 0.10093 0.9454 0.0
C4058 C 0.78009 0.08884 0.92185 0.0
C4059 C 0.79069 0.09625 0.91392 0.0
C4060 C 0.79947 0.10684 0.92088 0.0
C4061 C 0.79755 0.10971 0.93609 0.0
C4062 C 0.78697 0.10228 0.94403 0.0
H4063 H 0.75363 0.10179 0.94587 0.0
H4064 H 0.76815 0.1072 0.95408 0.0
H4065 H 0.76574 0.10362 0.93358 0.0
H4066 H 0.77335 0.08084 0.91614 0.0
H4067 H 0.79187 0.09385 0.90217 0.0
H4068 H 0.67091 0.94858 0.01895 0.0
H4069 H 0.67695 0.93513 0.03025 0.0
H4070 H 0.66272 0.93729 0.07497 0.0
H4071 H 0.65687 0.95089 0.06393 0.0
H4072 H 0.69241 0.93965 0.05685 0.0
H4073 H 0.64706 0.90107 0.06583 0.0
H4074 H 0.65005 0.91319 0.0528 0.0
H4075 H 0.64933 0.91491 0.07358 0.0
C4076 C 0.66911 0.94624 0.03121 0.0
C4077 C 0.66334 0.95076 0.04051 0.0
C4078 C 0.67253 0.93853 0.03761 0.0
C4079 C 0.67014 0.93513 0.05337 0.0
C4080 C 0.66443 0.93964 0.0627 0.0
H4081 H 0.69899 0.90391 0.11592 0.0
H4082 H 0.69402 0.91717 0.10175 0.0
C4083 C 0.66106 0.94738 0.05634 0.0
C4084 C 0.67383 0.92705 0.06021 0.0
H4085 H 0.663 0.89998 0.07766 0.0
C4086 C 0.686 0.93094 0.06133 0.0
C4087 C 0.66542 0.91567 0.06587 0.0
C4088 C 0.65223 0.91088 0.06437 0.0
C4089 C 0.69 0.92384 0.06836 0.0
C4090 C 0.6816 0.91263 0.07451 0.0
C4091 C 0.66942 0.90862 0.07303 0.0
C4092 C 0.68521 0.90492 0.08264 0.0
C4093 C 0.70317 0.92834 0.06907 0.0
C4094 C 0.68182 0.89362 0.07663 0.0
C4095 C 0.68466 0.88604 0.08467 0.0
C4096 C 0.69088 0.88959 0.09894 0.0
C4097 C 0.69436 0.90098 0.10485 0.0
C4098 C 0.69153 0.90856 0.09678 0.0
H4099 H 0.7082 0.93565 0.06057 0.0
H4100 H 0.70648 0.93183 0.08099 0.0
H4101 H 0.70507 0.92106 0.06666 0.0
H4102 H 0.67692 0.89065 0.06574 0.0
H4103 H 0.68199 0.8774 0.07969 0.0
H4104 H 0.034 0.70644 0.06209 0.0
H4105 H 0.04729 0.72564 0.07422 0.0
H4106 H 0.07187 0.73461 0.03578 0.0
H4107 H 0.05865 0.71532 0.02357 0.0
H4108 H 0.07099 0.73469 0.08349 0.0
H4109 H 0.06689 0.76339 0.03877 0.0
H4110 H 0.05662 0.7476 0.03995 0.0
H4111 H 0.07102 0.75306 0.03123 0.0
C4112 C 0.04228 0.71245 0.05625 0.0
C4113 C 0.04529 0.70934 0.04187 0.0
C4114 C 0.04982 0.72344 0.06316 0.0
C4115 C 0.06047 0.73159 0.0558 0.0
C4116 C 0.06356 0.72853 0.04149 0.0
H4117 H 0.11821 0.80126 0.08161 0.0
H4118 H 0.10486 0.78242 0.06858 0.0
C4119 C 0.05601 0.71751 0.03455 0.0
C4120 C 0.06847 0.74314 0.06339 0.0
H4121 H 0.08111 0.77315 0.05884 0.0
C4122 C 0.07318 0.7431 0.07814 0.0
C4123 C 0.0713 0.75408 0.05634 0.0
C4124 C 0.06613 0.7546 0.04076 0.0
C4125 C 0.0808 0.75374 0.08597 0.0
C4126 C 0.08359 0.76468 0.07896 0.0
C4127 C 0.07892 0.76473 0.06418 0.0
C4128 C 0.09145 0.77619 0.08674 0.0
C4129 C 0.08598 0.7532 0.10153 0.0
C4130 C 0.08822 0.77899 0.10112 0.0
C4131 C 0.09586 0.78971 0.10865 0.0
C4132 C 0.10684 0.79783 0.10187 0.0
C4133 C 0.1099 0.7951 0.08726 0.0
C4134 C 0.10226 0.78439 0.07975 0.0
H4135 H 0.08534 0.74444 0.1034 0.0
H4136 H 0.09545 0.76027 0.10241 0.0
H4137 H 0.08101 0.75457 0.11109 0.0
H4138 H 0.07981 0.77285 0.10657 0.0
H4139 H 0.09327 0.79152 0.11992 0.0
H4140 H 0.28501 0.31925 0.04221 0.0
H4141 H 0.26556 0.31321 0.05371 0.0
H4142 H 0.27532 0.35 0.05872 0.0
H4143 H 0.29467 0.35612 0.04682 0.0
H4144 H 0.26131 0.31922 0.08364 0.0
H4145 H 0.24269 0.33501 0.03728 0.0
H4146 H 0.25541 0.33319 0.03404 0.0
H4147 H 0.2571 0.34607 0.04418 0.0
C4148 C 0.28294 0.32605 0.0455 0.0
C4149 C 0.29136 0.33817 0.04353 0.0
C4150 C 0.27186 0.32259 0.05216 0.0
C4151 C 0.26896 0.33116 0.05687 0.0
C4152 C 0.27732 0.34325 0.05491 0.0
H4153 H 0.21076 0.33114 0.10525 0.0
H4154 H 0.22912 0.33598 0.09144 0.0
C4155 C 0.28841 0.34673 0.04827 0.0
C4156 C 0.2574 0.32746 0.0645 0.0
H4157 H 0.23204 0.32897 0.06133 0.0
C4158 C 0.25485 0.32126 0.07872 0.0
C4159 C 0.24904 0.33016 0.05803 0.0
C4160 C 0.25112 0.33638 0.04247 0.0
C4161 C 0.24428 0.31796 0.08689 0.0
C4162 C 0.23596 0.32075 0.08049 0.0
C4163 C 0.23845 0.32685 0.06619 0.0
C4164 C 0.22474 0.31769 0.08866 0.0
C4165 C 0.24226 0.31182 0.10251 0.0
C4166 C 0.21614 0.30579 0.09148 0.0
C4167 C 0.20567 0.30299 0.09948 0.0
C4168 C 0.20361 0.31206 0.10474 0.0
C4169 C 0.21217 0.32396 0.10161 0.0
C4170 C 0.22262 0.32674 0.09362 0.0
H4171 H 0.25062 0.31286 0.10744 0.0
H4172 H 0.23838 0.31537 0.11108 0.0
H4173 H 0.23591 0.30219 0.101 0.0
H4174 H 0.21753 0.29866 0.08751 0.0
H4175 H 0.19928 0.29374 0.10177 0.0
H4176 H 0.71605 0.68359 0.39847 0.0
H4177 H 0.72972 0.67795 0.41016 0.0
H4178 H 0.72742 0.658 0.36865 0.0
H4179 H 0.71378 0.66362 0.35684 0.0
H4180 H 0.7235 0.65187 0.41321 0.0
H4181 H 0.76439 0.68131 0.37899 0.0
H4182 H 0.75271 0.6848 0.38198 0.0
H4183 H 0.75053 0.67327 0.36856 0.0
C4184 C 0.71859 0.67813 0.39176 0.0
C4185 C 0.71386 0.67404 0.37675 0.0
C4186 C 0.72633 0.67488 0.39847 0.0
C4187 C 0.72958 0.66763 0.39021 0.0
C4188 C 0.72504 0.66367 0.37514 0.0
H4189 H 0.77802 0.64194 0.41263 0.0
H4190 H 0.76421 0.64671 0.39956 0.0
C4191 C 0.71722 0.66683 0.36846 0.0
C4192 C 0.73735 0.6638 0.3976 0.0
H4193 H 0.76545 0.66809 0.39685 0.0
C4194 C 0.73268 0.6554 0.40968 0.0
C4195 C 0.74924 0.66836 0.39278 0.0
C4196 C 0.75462 0.67749 0.37992 0.0
C4197 C 0.73961 0.65137 0.41709 0.0
C4198 C 0.75163 0.65615 0.41256 0.0
C4199 C 0.75625 0.66446 0.40033 0.0
C4200 C 0.75965 0.65285 0.4206 0.0
C4201 C 0.73392 0.64188 0.42949 0.0
C4202 C 0.76171 0.65476 0.43674 0.0
C4203 C 0.76944 0.65189 0.44428 0.0
C4204 C 0.77544 0.64721 0.43578 0.0
C4205 C 0.77341 0.64536 0.41958 0.0
C4206 C 0.7656 0.64817 0.41206 0.0
H4207 H 0.72411 0.63665 0.4281 0.0
H4208 H 0.73746 0.63569 0.42912 0.0
H4209 H 0.73584 0.64614 0.44121 0.0
H4210 H 0.75742 0.6586 0.44352 0.0
H4211 H 0.77069 0.65331 0.4568 0.0
H4212 H 0.3104 0.03849 0.3775 0.0
H4213 H 0.31662 0.05805 0.38879 0.0
H4214 H 0.35319 0.06653 0.38736 0.0
H4215 H 0.34706 0.04701 0.37605 0.0
H4216 H 0.32848 0.06762 0.41642 0.0
H4217 H 0.3546 0.09519 0.36593 0.0
H4218 H 0.34453 0.07939 0.36435 0.0
H4219 H 0.3591 0.08495 0.37254 0.0
C4220 C 0.31977 0.04452 0.37961 0.0
C4221 C 0.32825 0.04123 0.37581 0.0
C4222 C 0.3233 0.0557 0.386 0.0
C4223 C 0.33538 0.0638 0.38868 0.0
C4224 C 0.34386 0.06052 0.38503 0.0
H4225 H 0.36306 0.12521 0.45042 0.0
H4226 H 0.35777 0.10627 0.43787 0.0
C4227 C 0.34034 0.04936 0.37858 0.0
C4228 C 0.33904 0.07554 0.39578 0.0
H4229 H 0.35624 0.10543 0.38974 0.0
C4230 C 0.33452 0.07589 0.41058 0.0
C4231 C 0.34682 0.08631 0.38803 0.0
C4232 C 0.35147 0.08649 0.37177 0.0
C4233 C 0.33769 0.08672 0.41796 0.0
C4234 C 0.34577 0.09748 0.41044 0.0
C4235 C 0.35016 0.09715 0.39554 0.0
C4236 C 0.34953 0.10919 0.41769 0.0
C4237 C 0.33218 0.08654 0.4336 0.0
C4238 C 0.34704 0.11729 0.41022 0.0
C4239 C 0.3502 0.12818 0.41724 0.0
C4240 C 0.35596 0.13121 0.43186 0.0
C4241 C 0.35872 0.12319 0.43911 0.0
C4242 C 0.35557 0.11231 0.43206 0.0
H4243 H 0.32399 0.07788 0.43579 0.0
H4244 H 0.33862 0.08799 0.44305 0.0
H4245 H 0.32993 0.09371 0.43434 0.0
H4246 H 0.34247 0.11509 0.39906 0.0
H4247 H 0.34813 0.13424 0.41122 0.0
H4248 H 0.9502 0.28769 0.35454 0.0
H4249 H 0.93045 0.27435 0.36538 0.0
H4250 H 0.94633 0.27262 0.40882 0.0
H4251 H 0.96612 0.28575 0.39802 0.0
H4252 H 0.92146 0.2508 0.37812 0.0
H4253 H 0.92179 0.28285 0.4215 0.0
H4254 H 0.93185 0.28742 0.40502 0.0
H4255 H 0.9346 0.28103 0.42201 0.0
C4256 C 0.94951 0.28437 0.36634 0.0
C4257 C 0.95974 0.28783 0.37544 0.0
C4258 C 0.93822 0.27682 0.37253 0.0
C4259 C 0.93696 0.27267 0.38795 0.0
C4260 C 0.94713 0.27593 0.39699 0.0
H4261 H 0.87873 0.21481 0.43607 0.0
H4262 H 0.89736 0.22862 0.42305 0.0
C4263 C 0.95842 0.28344 0.39081 0.0
C4264 C 0.92502 0.26478 0.39455 0.0
H4265 H 0.90608 0.26282 0.42362 0.0
C4266 C 0.91805 0.25343 0.38801 0.0
C4267 C 0.92058 0.26833 0.40731 0.0
C4268 C 0.92752 0.28061 0.41432 0.0
C4269 C 0.90686 0.24539 0.39423 0.0
C4270 C 0.90262 0.24878 0.40736 0.0
C4271 C 0.90942 0.26025 0.41361 0.0
C4272 C 0.89127 0.24041 0.41506 0.0
C4273 C 0.89965 0.23332 0.38672 0.0
C4274 C 0.88176 0.24262 0.41508 0.0
C4275 C 0.87105 0.23469 0.42242 0.0
C4276 C 0.86971 0.22448 0.42996 0.0
C4277 C 0.87936 0.22244 0.43008 0.0
C4278 C 0.89003 0.23033 0.42269 0.0
H4279 H 0.90284 0.23311 0.37471 0.0
H4280 H 0.90039 0.22662 0.39389 0.0
H4281 H 0.89011 0.23069 0.38613 0.0
H4282 H 0.8826 0.2504 0.40928 0.0
H4283 H 0.86377 0.23648 0.42198 0.0
H4284 H 0.02861 0.39794 0.32045 0.0
H4285 H 0.02583 0.41326 0.30794 0.0
H4286 H 1e-05 0.387 0.2766 0.0
H4287 H 0.00229 0.37154 0.2895 0.0
H4288 H 0.02938 0.42083 0.27755 0.0
H4289 H 0.98209 0.4025 0.29395 0.0
H4290 H 0.99131 0.39734 0.30267 0.0
H4291 H 0.98479 0.39203 0.28369 0.0
C4292 C 0.02221 0.39539 0.31104 0.0
C4293 C 0.0156 0.38348 0.30607 0.0
C4294 C 0.02071 0.40417 0.30383 0.0
C4295 C 0.01256 0.40122 0.29154 0.0
C4296 C 0.00615 0.38942 0.2863 0.0
H4297 H 0.9932 0.44056 0.22859 0.0
H4298 H 0.99631 0.42571 0.24189 0.0
C4299 C 0.00759 0.38062 0.29356 0.0
C4300 C 0.01091 0.41054 0.28401 0.0
H4301 H 0.98999 0.41814 0.27518 0.0
C4302 C 0.02079 0.42029 0.27712 0.0
C4303 C -0.00031 0.40982 0.28353 0.0
C4304 C 0.98889 0.39993 0.29149 0.0
C4305 C 0.01969 0.42921 0.26944 0.0
C4306 C 0.00845 0.42836 0.26874 0.0
C4307 C 0.99859 0.41868 0.2757 0.0
C4308 C 0.00671 0.43743 0.26074 0.0
C4309 C 0.03049 0.43937 0.26185 0.0
C4310 C 0.01145 0.44886 0.26708 0.0
C4311 C 0.00957 0.45733 0.25963 0.0
C4312 C 0.00292 0.45449 0.2457 0.0
C4313 C 0.99821 0.44299 0.23941 0.0
C4314 C 4e-05 0.43452 0.24692 0.0
H4315 H 0.03803 0.43767 0.26111 0.0
H4316 H 0.02832 0.44101 0.24988 0.0
H4317 H 0.03338 0.44758 0.26884 0.0
H4318 H 0.01649 0.45119 0.27788 0.0
H4319 H 0.01316 0.46604 0.26492 0.0
H4320 H 0.60758 0.63254 0.30061 0.0
H4321 H 0.59415 0.61368 0.28761 0.0
H4322 H 0.61682 0.59987 0.30106 0.0
H4323 H 0.63042 0.61873 0.31377 0.0
H4324 H 0.60044 0.60226 0.26288 0.0
H4325 H 0.58293 0.57462 0.31654 0.0
H4326 H 0.59015 0.59064 0.31695 0.0
H4327 H 0.59885 0.58349 0.31514 0.0
C4328 C 0.60975 0.62552 0.30073 0.0
C4329 C 0.62005 0.62713 0.30831 0.0
C4330 C 0.60204 0.61474 0.29337 0.0
C4331 C 0.60444 0.60537 0.29357 0.0
C4332 C 0.61471 0.60694 0.30104 0.0
H4333 H 0.56837 0.53322 0.25756 0.0
H4334 H 0.58219 0.55219 0.26998 0.0
C4335 C 0.62245 0.61771 0.30835 0.0
C4336 C 0.59636 0.59403 0.28562 0.0
H4337 H 0.57739 0.56452 0.29224 0.0
C4338 C 0.59535 0.594 0.26927 0.0
C4339 C 0.58982 0.58331 0.29403 0.0
C4340 C 0.59038 0.58295 0.31165 0.0
C4341 C 0.58808 0.58345 0.26104 0.0
C4342 C 0.58146 0.57271 0.26946 0.0
C4343 C 0.58249 0.57276 0.28582 0.0
C4344 C 0.57327 0.56135 0.26155 0.0
C4345 C 0.58779 0.58384 0.24339 0.0
C4346 C 0.56364 0.56021 0.25279 0.0
C4347 C 0.55581 0.54944 0.24556 0.0
C4348 C 0.55738 0.53954 0.24708 0.0
C4349 C 0.56701 0.5407 0.25596 0.0
C4350 C 0.57486 0.55151 0.26315 0.0
H4351 H 0.59577 0.5918 0.23864 0.0
H4352 H 0.58725 0.57578 0.23812 0.0
H4353 H 0.57985 0.58427 0.23969 0.0
H4354 H 0.56211 0.56762 0.25166 0.0
H4355 H 0.54857 0.54889 0.23868 0.0
H4356 H 0.36189 0.96498 0.31502 0.0
H4357 H 0.37976 0.96676 0.30278 0.0
H4358 H 0.39085 0.00275 0.28919 0.0
H4359 H 0.37293 0.00099 0.30099 0.0
H4360 H 0.38737 0.97308 0.27018 0.0
H4361 H 0.41979 0.0047 0.31335 0.0
H4362 H 0.4041 0.99569 0.31755 0.0
H4363 H 0.40946 0.00876 0.30566 0.0
C4364 C 0.36808 0.97325 0.30932 0.0
C4365 C 0.36599 0.98287 0.30907 0.0
C4366 C 0.37831 0.97426 0.30242 0.0
C4367 C 0.38666 0.98493 0.2953 0.0
C4368 C 0.38459 0.99451 0.29491 0.0
H4369 H 0.44333 0.0019 0.22966 0.0
H4370 H 0.42523 0.99824 0.24333 0.0
C4371 C 0.37436 0.9935 0.30171 0.0
C4372 C 0.39746 0.98602 0.28793 0.0
H4373 H 0.42775 0.00136 0.29009 0.0
C4374 C 0.3962 0.9792 0.27457 0.0
C4375 C 0.40893 0.99394 0.2938 0.0
C4376 C 0.41072 0.00113 0.30846 0.0
C4377 C 0.40618 0.98034 0.26663 0.0
C4378 C 0.41766 0.98856 0.27219 0.0
C4379 C 0.41891 0.99513 0.28581 0.0
C4380 C 0.42851 0.99062 0.26388 0.0
C4381 C 0.40438 0.97275 0.25237 0.0
C4382 C 0.43641 0.98771 0.27104 0.0
C4383 C 0.44675 0.98981 0.26329 0.0
C4384 C 0.44944 0.99499 0.24831 0.0
C4385 C 0.44154 0.99798 0.24123 0.0
C4386 C 0.43116 0.9958 0.24895 0.0
H4387 H 0.39518 0.96508 0.25171 0.0
H4388 H 0.40608 0.97822 0.24169 0.0
H4389 H 0.4107 0.96937 0.25239 0.0
H4390 H 0.43454 0.98378 0.28262 0.0
H4391 H 0.45274 0.98754 0.2691 0.0
H4392 H 0.60437 0.97443 0.32482 0.0
H4393 H 0.58873 0.97711 0.313 0.0
H4394 H 0.61188 0.99568 0.27417 0.0
H4395 H 0.62757 0.99315 0.28593 0.0
H4396 H 0.58956 0.99862 0.30484 0.0
H4397 H 0.58147 0.96976 0.25295 0.0
H4398 H 0.58946 0.96934 0.26997 0.0
H4399 H 0.59676 0.98096 0.25571 0.0
C4400 C 0.60614 0.97914 0.3138 0.0
C4401 C 0.61719 0.98351 0.30626 0.0
C4402 C 0.59719 0.98061 0.30704 0.0
C4403 C 0.5991 0.98642 0.29261 0.0
C4404 C 0.61014 0.99092 0.28515 0.0
H4405 H 0.55965 0.00674 0.23143 0.0
H4406 H 0.57456 0.00364 0.24458 0.0
C4407 C 0.61909 0.98946 0.29188 0.0
C4408 C 0.58965 0.98804 0.28548 0.0
H4409 H 0.57243 0.98174 0.25281 0.0
C4410 C 0.58574 0.99486 0.29352 0.0
C4411 C 0.58471 0.98312 0.27071 0.0
C4412 C 0.58822 0.97529 0.26187 0.0
C4413 C 0.57722 0.99719 0.28697 0.0
C4414 C 0.57238 0.99238 0.27213 0.0
C4415 C 0.5762 0.98545 0.26417 0.0
C4416 C 0.56342 0.99452 0.26452 0.0
C4417 C 0.57372 0.00503 0.29579 0.0
C4418 C 0.5522 0.99036 0.27136 0.0
C4419 C 0.54369 0.99219 0.26393 0.0
C4420 C 0.54623 0.99816 0.24948 0.0
C4421 C 0.55748 0.00228 0.24266 0.0
C4422 C 0.56597 0.00045 0.2501 0.0
H4423 H 0.58026 0.01028 0.30507 0.0
H4424 H 0.57288 0.01125 0.28772 0.0
H4425 H 0.56497 0.9994 0.30148 0.0
H4426 H 0.54999 0.9856 0.28237 0.0
H4427 H 0.53514 0.98897 0.26953 0.0
H4428 H 0.01337 0.62408 0.3297 0.0
H4429 H 0.0104 0.60584 0.31723 0.0
H4430 H 0.01178 0.62082 0.27174 0.0
H4431 H 0.01425 0.63887 0.28408 0.0
H4432 H 0.99331 0.59801 0.27449 0.0
H4433 H 0.03536 0.6012 0.29463 0.0
H4434 H 0.02629 0.60166 0.31017 0.0
H4435 H 0.03263 0.61347 0.29602 0.0
C4436 C 0.01297 0.62347 0.31704 0.0
C4437 C 0.01412 0.63297 0.30789 0.0
C4438 C 0.01141 0.61309 0.30994 0.0
C4439 C 0.01108 0.61206 0.29356 0.0
C4440 C 0.01211 0.62148 0.2844 0.0
H4441 H 0.01809 0.56066 0.23699 0.0
H4442 H 0.02072 0.57844 0.25045 0.0
C4443 C 0.01363 0.63183 0.29148 0.0
C4444 C 0.00936 0.60108 0.28591 0.0
H4445 H 0.02154 0.5833 0.28188 0.0
C4446 C -0.00052 0.59479 0.27608 0.0
C4447 C 0.01751 0.597 0.28787 0.0
C4448 C 0.02861 0.60373 0.29762 0.0
C4449 C 0.99749 0.58447 0.26823 0.0
C4450 C 0.00546 0.5802 0.27052 0.0
C4451 C 0.01539 0.58654 0.28026 0.0
C4452 C 0.00385 0.56935 0.2626 0.0
C4453 C 0.98703 0.5784 0.25725 0.0
C4454 C 0.99356 0.55832 0.26514 0.0
C4455 C 0.99203 0.54815 0.25743 0.0
C4456 C 0.00083 0.54882 0.2472 0.0
C4457 C 0.01121 0.55985 0.2449 0.0
C4458 C 0.0127 0.57001 0.25254 0.0
H4459 H 0.98373 0.58443 0.25365 0.0
H4460 H 0.98939 0.57515 0.24657 0.0
H4461 H 0.97965 0.57064 0.26327 0.0
H4462 H 0.98675 0.55755 0.27314 0.0
H4463 H 0.98402 0.53974 0.25962 0.0
H4464 H 0.37884 0.39578 0.3246 0.0
H4465 H 0.39801 0.40909 0.31221 0.0
H4466 H 0.39041 0.38302 0.27611 0.0
H4467 H 0.37134 0.36961 0.28846 0.0
H4468 H 0.41685 0.40445 0.30571 0.0
H4469 H 0.39922 0.41367 0.25162 0.0
H4470 H 0.39028 0.40742 0.26898 0.0
H4471 H 0.39309 0.39818 0.25605 0.0
C4472 C 0.38126 0.39286 0.31405 0.0
C4473 C 0.37352 0.38166 0.30746 0.0
C4474 C 0.39219 0.40049 0.30697 0.0
C4475 C 0.39552 0.39709 0.29314 0.0
C4476 C 0.38788 0.3859 0.28659 0.0
H4477 H 0.45702 0.42989 0.23198 0.0
H4478 H 0.43831 0.41626 0.2451 0.0
C4479 C 0.37697 0.37827 0.29366 0.0
C4480 C 0.40713 0.40512 0.28573 0.0
H4481 H 0.4199 0.42061 0.25225 0.0
C4482 C 0.41754 0.40804 0.29406 0.0
C4483 C 0.40796 0.40972 0.27051 0.0
C4484 C 0.39705 0.40719 0.26128 0.0
C4485 C 0.4288 0.41532 0.28743 0.0
C4486 C 0.42963 0.41994 0.27221 0.0
C4487 C 0.41922 0.41701 0.2639 0.0
C4488 C 0.44122 0.42797 0.26472 0.0
C4489 C 0.4397 0.41779 0.29664 0.0
C4490 C 0.44903 0.43906 0.2714 0.0
C4491 C 0.45975 0.44682 0.264 0.0
C4492 C 0.46283 0.44366 0.24972 0.0
C4493 C 0.45499 0.43251 0.24308 0.0
C4494 C 0.44427 0.42476 0.2505 0.0
H4495 H 0.43753 0.41114 0.30608 0.0
H4496 H 0.44656 0.41778 0.28889 0.0
H4497 H 0.44355 0.42668 0.30218 0.0
H4498 H 0.44675 0.44179 0.28223 0.0
H4499 H 0.46563 0.4553 0.26947 0.0
H4500 H 0.33728 0.28743 0.35646 0.0
H4501 H 0.34344 0.27401 0.36746 0.0
H4502 H 0.33022 0.27665 0.41273 0.0
H4503 H 0.32427 0.29028 0.40197 0.0
H4504 H 0.35939 0.27864 0.39406 0.0
H4505 H 0.31389 0.2402 0.40304 0.0
H4506 H 0.31695 0.25233 0.38999 0.0
H4507 H 0.31647 0.25417 0.41077 0.0
C4508 C 0.33577 0.28524 0.36879 0.0
C4509 C 0.33024 0.28991 0.37832 0.0
C4510 C 0.33924 0.27753 0.37502 0.0
C4511 C 0.33717 0.27427 0.39084 0.0
C4512 C 0.33172 0.27893 0.40042 0.0
H4513 H 0.36544 0.24064 0.45043 0.0
H4514 H 0.3606 0.25451 0.43768 0.0
C4515 C 0.32829 0.28668 0.39423 0.0
C4516 C 0.3408 0.26608 0.3974 0.0
H4517 H 0.32984 0.23858 0.4136 0.0
C4518 C 0.35296 0.26986 0.3983 0.0
C4519 C 0.33234 0.25462 0.40275 0.0
C4520 C 0.31917 0.25 0.40151 0.0
C4521 C 0.3569 0.26253 0.40473 0.0
C4522 C 0.34845 0.25119 0.41045 0.0
C4523 C 0.33629 0.24733 0.40928 0.0
C4524 C 0.35201 0.24314 0.41771 0.0
C4525 C 0.37005 0.2669 0.40523 0.0
C4526 C 0.34873 0.23216 0.41072 0.0
C4527 C 0.35153 0.22425 0.41792 0.0
C4528 C 0.35757 0.22714 0.43233 0.0
C4529 C 0.36095 0.23823 0.43922 0.0
C4530 C 0.35818 0.24615 0.43197 0.0
H4531 H 0.37515 0.27459 0.39731 0.0
H4532 H 0.37335 0.26975 0.41734 0.0
H4533 H 0.37185 0.25969 0.4019 0.0
H4534 H 0.34395 0.2297 0.39971 0.0
H4535 H 0.34894 0.21586 0.4122 0.0
H4536 H 0.71381 0.04894 0.35263 0.0
H4537 H 0.72674 0.06876 0.36358 0.0
H4538 H 0.72511 0.05327 0.40874 0.0
H4539 H 0.71196 0.03345 0.39805 0.0
H4540 H 0.72188 0.07979 0.39053 0.0
H4541 H 0.76137 0.07442 0.39824 0.0
H4542 H 0.74921 0.06502 0.38539 0.0
H4543 H 0.74767 0.06271 0.40618 0.0
C4544 C 0.7161 0.04974 0.36493 0.0
C4545 C 0.71188 0.03959 0.37444 0.0
C4546 C 0.72353 0.06106 0.37113 0.0
C4547 C 0.72695 0.06242 0.38689 0.0
C4548 C 0.7227 0.05236 0.39647 0.0
H4549 H 0.75988 0.12462 0.44658 0.0
H4550 H 0.74612 0.1058 0.43377 0.0
C4551 C 0.71524 0.04104 0.39031 0.0
C4552 C 0.73493 0.07438 0.39338 0.0
H4553 H 0.76253 0.09177 0.40899 0.0
C4554 C 0.73079 0.08245 0.39453 0.0
C4555 C 0.74655 0.07781 0.39843 0.0
C4556 C 0.75155 0.0696 0.39692 0.0
C4557 C 0.73793 0.09384 0.40092 0.0
C4558 C 0.74945 0.09715 0.40632 0.0
C4559 C 0.75366 0.08915 0.4049 0.0
C4560 C 0.75732 0.10888 0.41353 0.0
C4561 C 0.73317 0.10228 0.4017 0.0
C4562 C 0.76817 0.1168 0.40638 0.0
C4563 C 0.77601 0.12757 0.41361 0.0
C4564 C 0.77321 0.13056 0.42822 0.0
C4565 C 0.76223 0.12267 0.43523 0.0
C4566 C 0.75436 0.11191 0.42794 0.0
H4567 H 0.72533 0.0994 0.39397 0.0
H4568 H 0.73042 0.10263 0.4139 0.0
H4569 H 0.74013 0.1114 0.39831 0.0
H4570 H 0.77059 0.1146 0.39525 0.0
H4571 H 0.78432 0.13352 0.4078 0.0
H4572 H 0.96226 0.69027 0.38362 0.0
H4573 H 0.94237 0.68363 0.39422 0.0
H4574 H 0.93029 0.64835 0.37645 0.0
H4575 H 0.95017 0.65487 0.36592 0.0
H4576 H 0.9191 0.67129 0.37622 0.0
H4577 H 0.92285 0.64524 0.42534 0.0
H4578 H 0.93574 0.657 0.41563 0.0
H4579 H 0.92697 0.64295 0.40606 0.0
C4580 C 0.95537 0.68109 0.38201 0.0
C4581 C 0.95777 0.67308 0.37398 0.0
C4582 C 0.94403 0.67734 0.38799 0.0
C4583 C 0.93494 0.6655 0.38618 0.0
C4584 C 0.93724 0.65751 0.37802 0.0
H4585 H 0.86398 0.62828 0.42743 0.0
H4586 H 0.88201 0.63306 0.41272 0.0
C4587 C 0.94856 0.66127 0.37193 0.0
C4588 C 0.9231 0.66151 0.39303 0.0
H4589 H 0.90483 0.64523 0.42301 0.0
C4590 C 0.91593 0.66556 0.38642 0.0
C4591 C 0.91902 0.65397 0.40624 0.0
C4592 C 0.92653 0.64955 0.41386 0.0
C4593 C 0.90473 0.66229 0.39272 0.0
C4594 C 0.90077 0.65503 0.40624 0.0
C4595 C 0.90788 0.6508 0.41266 0.0
C4596 C 0.88954 0.65212 0.41432 0.0
C4597 C 0.8972 0.66653 0.38474 0.0
C4598 C 0.88782 0.66123 0.42014 0.0
C4599 C 0.87749 0.65853 0.42839 0.0
C4600 C 0.86873 0.64665 0.43118 0.0
C4601 C 0.87047 0.63752 0.42531 0.0
C4602 C 0.8808 0.64024 0.41699 0.0
H4603 H 0.89966 0.66861 0.3722 0.0
H4604 H 0.8876 0.65979 0.38549 0.0
H4605 H 0.89862 0.67479 0.39053 0.0
H4606 H 0.89456 0.67046 0.41854 0.0
H4607 H 0.87639 0.66578 0.43258 0.0
H4608 H 0.37345 0.99648 0.71146 0.0
H4609 H 0.38943 0.99453 0.72351 0.0
H4610 H 0.41157 0.03269 0.72476 0.0
H4611 H 0.39566 0.03473 0.7126 0.0
H4612 H 0.41281 0.00301 0.71267 0.0
H4613 H 0.41217 0.02271 0.77023 0.0
H4614 H 0.40025 0.01788 0.75621 0.0
H4615 H 0.41378 0.03179 0.75354 0.0
C4616 C 0.38175 0.00446 0.71419 0.0
C4617 C 0.38328 0.01577 0.71112 0.0
C4618 C 0.39084 0.00333 0.72113 0.0
C4619 C 0.4016 0.01347 0.72521 0.0
C4620 C 0.40323 0.02476 0.72199 0.0
H4621 H 0.46571 0.02293 0.77011 0.0
H4622 H 0.45085 0.02589 0.75652 0.0
C4623 C 0.39414 0.02591 0.71506 0.0
C4624 C 0.41114 0.01217 0.73267 0.0
H4625 H 0.42744 0.01815 0.76618 0.0
C4626 C 0.41601 0.0063 0.72438 0.0
C4627 C 0.41529 0.01651 0.74793 0.0
C4628 C 0.41005 0.02249 0.75759 0.0
C4629 C 0.42502 0.00473 0.73089 0.0
C4630 C 0.42909 0.00897 0.74619 0.0
C4631 C 0.42429 0.01493 0.75444 0.0
C4632 C 0.43818 0.00713 0.75401 0.0
C4633 C 0.43022 0.99869 0.72126 0.0
C4634 C 0.43592 0.9956 0.75721 0.0
C4635 C 0.44436 0.99388 0.76502 0.0
C4636 C 0.45518 0.00367 0.76988 0.0
C4637 C 0.45741 0.01521 0.76666 0.0
C4638 C 0.44896 0.01692 0.75884 0.0
H4639 H 0.42843 0.99883 0.70857 0.0
H4640 H 0.43997 0.00301 0.72304 0.0
H4641 H 0.42614 0.98927 0.72496 0.0
H4642 H 0.42753 0.98793 0.75389 0.0
H4643 H 0.44229 0.98489 0.76757 0.0
H4644 H -5e-05 0.37854 0.6962 0.0
H4645 H 0.00248 0.39651 0.70906 0.0
H4646 H 0.97187 0.37508 0.73806 0.0
H4647 H 0.96935 0.35709 0.72534 0.0
H4648 H 0.98739 0.4055 0.71111 0.0
H4649 H 0.99705 0.39493 0.77028 0.0
H4650 H 0.99704 0.38693 0.75298 0.0
H4651 H 0.98326 0.38353 0.76223 0.0
C4652 C 0.99372 0.37767 0.70526 0.0
C4653 C 0.9845 0.36641 0.70985 0.0
C4654 C 0.9952 0.38793 0.71263 0.0
C4655 C 0.9875 0.38711 0.72471 0.0
C4656 C 0.97811 0.3759 0.72905 0.0
H4657 H 0.98098 0.43875 0.78185 0.0
H4658 H 0.97785 0.42081 0.76821 0.0
C4659 C 0.97666 0.36563 0.72176 0.0
C4660 C 0.98923 0.398 0.73265 0.0
H4661 H 0.99414 0.4115 0.76839 0.0
C4662 C 0.98892 0.40684 0.72362 0.0
C4663 C 0.99125 0.39973 0.74898 0.0
C4664 C 0.99229 0.39083 0.75918 0.0
C4665 C 0.99038 0.4173 0.73052 0.0
C4666 C 0.9923 0.41896 0.74683 0.0
C4667 C 0.99261 0.41014 0.75588 0.0
C4668 C 0.99411 0.42986 0.75474 0.0
C4669 C 0.98967 0.4264 0.72038 0.0
C4670 C 0.00433 0.44084 0.75175 0.0
C4671 C 0.00615 0.45108 0.75952 0.0
C4672 C 0.99776 0.45051 0.7704 0.0
C4673 C 0.98752 0.43948 0.77337 0.0
C4674 C 0.98575 0.42924 0.76567 0.0
H4675 H 0.9857 0.42271 0.70875 0.0
H4676 H 0.98432 0.4298 0.7262 0.0
H4677 H 0.99875 0.43404 0.71848 0.0
H4678 H 0.01095 0.44145 0.74349 0.0
H4679 H 0.01408 0.45946 0.75692 0.0
H4680 H 0.6208 0.60436 0.69508 0.0
H4681 H 0.60143 0.59129 0.7071 0.0
H4682 H 0.60891 0.61756 0.74289 0.0
H4683 H 0.62805 0.63084 0.73065 0.0
H4684 H 0.59626 0.58189 0.73714 0.0
H4685 H 0.57654 0.61047 0.72664 0.0
H4686 H 0.58992 0.61288 0.71696 0.0
H4687 H 0.59051 0.61785 0.73677 0.0
C4688 C 0.61826 0.6074 0.70541 0.0
C4689 C 0.62596 0.61866 0.71187 0.0
C4690 C 0.60723 0.5999 0.71231 0.0
C4691 C 0.60366 0.60355 0.72572 0.0
C4692 C 0.61139 0.61467 0.73236 0.0
H4693 H 0.54255 0.57048 0.78744 0.0
H4694 H 0.56152 0.58384 0.77463 0.0
C4695 C 0.62241 0.62219 0.72547 0.0
C4696 C 0.59195 0.59561 0.73296 0.0
H4697 H 0.56572 0.5938 0.74333 0.0
C4698 C 0.58955 0.58445 0.73842 0.0
C4699 C 0.58323 0.59901 0.7346 0.0
C4700 C 0.58511 0.61066 0.72831 0.0
C4701 C 0.57873 0.57667 0.74575 0.0
C4702 C 0.57006 0.58011 0.74747 0.0
C4703 C 0.57243 0.59124 0.74201 0.0
C4704 C 0.55843 0.5722 0.75488 0.0
C4705 C 0.57674 0.56494 0.75188 0.0
C4706 C 0.55035 0.56139 0.74781 0.0
C4707 C 0.53949 0.55379 0.75501 0.0
C4708 C 0.53651 0.55689 0.76942 0.0
C4709 C 0.54453 0.56788 0.77628 0.0
C4710 C 0.55539 0.57549 0.76904 0.0
H4711 H 0.58519 0.56479 0.75279 0.0
H4712 H 0.57244 0.563 0.76359 0.0
H4713 H 0.57076 0.55773 0.74378 0.0
H4714 H 0.55246 0.55882 0.73672 0.0
H4715 H 0.53342 0.54549 0.74927 0.0
H4716 H 0.65274 0.6971 0.63104 0.0
H4717 H 0.64707 0.71078 0.61976 0.0
H4718 H 0.67745 0.74037 0.64137 0.0
H4719 H 0.68304 0.72673 0.65318 0.0
H4720 H 0.64346 0.72903 0.63782 0.0
H4721 H 0.67876 0.74712 0.59201 0.0
H4722 H 0.67369 0.73283 0.6011 0.0
H4723 H 0.68312 0.74621 0.61174 0.0
C4724 C 0.65815 0.70649 0.63361 0.0
C4725 C 0.66835 0.71081 0.64306 0.0
C4726 C 0.65492 0.71429 0.62707 0.0
C4727 C 0.66188 0.72654 0.62969 0.0
C4728 C 0.67204 0.73092 0.63912 0.0
H4729 H 0.648 0.78367 0.60862 0.0
H4730 H 0.65309 0.76991 0.6213 0.0
C4731 C 0.67524 0.72312 0.64578 0.0
C4732 C 0.65851 0.73472 0.6225 0.0
H4733 H 0.66625 0.75538 0.59356 0.0
C4734 C 0.64844 0.73482 0.62817 0.0
C4735 C 0.665 0.74215 0.60985 0.0
C4736 C 0.67572 0.7421 0.60318 0.0
C4737 C 0.64473 0.74229 0.62156 0.0
C4738 C 0.65128 0.74979 0.609 0.0
C4739 C 0.6613 0.74962 0.60324 0.0
C4740 C 0.64784 0.75786 0.60159 0.0
C4741 C 0.63377 0.74204 0.62786 0.0
C4742 C 0.64326 0.7556 0.58633 0.0
C4743 C 0.64032 0.7634 0.57909 0.0
C4744 C 0.64207 0.77366 0.58695 0.0
C4745 C 0.64663 0.77587 0.60227 0.0
C4746 C 0.64947 0.76801 0.60954 0.0
H4747 H 0.62867 0.73445 0.63594 0.0
H4748 H 0.63642 0.75041 0.63434 0.0
H4749 H 0.62788 0.74147 0.6181 0.0
H4750 H 0.642 0.74782 0.58001 0.0
H4751 H 0.63695 0.76156 0.56722 0.0
H4752 H 0.28455 0.96646 0.62202 0.0
H4753 H 0.2712 0.9469 0.61062 0.0
H4754 H 0.2749 0.93 0.65189 0.0
H4755 H 0.28814 0.94953 0.66349 0.0
H4756 H 0.27681 0.92793 0.60543 0.0
H4757 H 0.23817 0.91505 0.64496 0.0
H4758 H 0.24985 0.93029 0.64247 0.0
H4759 H 0.25236 0.92035 0.65426 0.0
C4760 C 0.28241 0.95858 0.62875 0.0
C4761 C 0.28735 0.95952 0.64368 0.0
C4762 C 0.27486 0.94743 0.62218 0.0
C4763 C 0.27203 0.93706 0.63048 0.0
C4764 C 0.27691 0.93794 0.64538 0.0
H4765 H 0.23794 0.8644 0.59483 0.0
H4766 H 0.25171 0.88353 0.60701 0.0
C4767 C 0.28452 0.94908 0.65193 0.0
C4768 C 0.2641 0.9253 0.6234 0.0
H4769 H 0.23663 0.90062 0.62678 0.0
C4770 C 0.26803 0.92193 0.61009 0.0
C4771 C 0.25265 0.91758 0.6295 0.0
C4772 C 0.24791 0.92097 0.64352 0.0
C4773 C 0.26079 0.91096 0.60271 0.0
C4774 C 0.24938 0.9032 0.60889 0.0
C4775 C 0.24543 0.90659 0.62217 0.0
C4776 C 0.24122 0.89168 0.60139 0.0
C4777 C 0.26528 0.90784 0.58819 0.0
C4778 C 0.23076 0.88996 0.59433 0.0
C4779 C 0.22293 0.87911 0.58729 0.0
C4780 C 0.22537 0.86972 0.5873 0.0
C4781 C 0.23588 0.87149 0.59443 0.0
C4782 C 0.24374 0.88239 0.60143 0.0
H4783 H 0.27335 0.91564 0.58335 0.0
H4784 H 0.26753 0.90089 0.59109 0.0
H4785 H 0.25829 0.9042 0.57901 0.0
H4786 H 0.22869 0.89706 0.59417 0.0
H4787 H 0.21503 0.87813 0.58168 0.0
H4788 H 0.04014 0.33849 0.62636 0.0
H4789 H 0.05944 0.3438 0.61494 0.0
H4790 H 0.06257 0.31975 0.6466 0.0
H4791 H 0.04334 0.31453 0.65832 0.0
H4792 H 0.08365 0.3431 0.64352 0.0
H4793 H 0.06513 0.32115 0.58633 0.0
H4794 H 0.06041 0.33129 0.59284 0.0
H4795 H 0.0561 0.31793 0.60372 0.0
C4796 C 0.04498 0.33441 0.63101 0.0
C4797 C 0.0402 0.32607 0.64322 0.0
C4798 C 0.05595 0.33738 0.62438 0.0
C4799 C 0.06233 0.33206 0.62982 0.0
C4800 C 0.05773 0.3239 0.6422 0.0
H4801 H 0.12127 0.33112 0.58385 0.0
H4802 H 0.10274 0.32608 0.59732 0.0
C4803 C 0.04672 0.32088 0.6488 0.0
C4804 C 0.07378 0.33495 0.62249 0.0
H4805 H 0.08609 0.33288 0.58815 0.0
C4806 C 0.08421 0.34086 0.63143 0.0
C4807 C 0.07442 0.33188 0.60677 0.0
C4808 C 0.06342 0.32512 0.59685 0.0
C4809 C 0.09533 0.34397 0.62495 0.0
C4810 C 0.09599 0.34116 0.60911 0.0
C4811 C 0.08554 0.33509 0.60026 0.0
C4812 C 0.10743 0.34433 0.60149 0.0
C4813 C 0.10625 0.35008 0.63514 0.0
C4814 C 0.11618 0.35627 0.59931 0.0
C4815 C 0.12675 0.35919 0.5915 0.0
C4816 C 0.12874 0.35021 0.58567 0.0
C4817 C 0.11996 0.33825 0.58799 0.0
C4818 C 0.10939 0.33535 0.59576 0.0
H4819 H 0.10394 0.34914 0.64779 0.0
H4820 H 0.11222 0.34643 0.63296 0.0
H4821 H 0.11122 0.3597 0.63229 0.0
H4822 H 0.11472 0.36333 0.60339 0.0
H4823 H 0.13325 0.36848 0.58971 0.0
H4824 H 0.27935 0.31199 0.62393 0.0
H4825 H 0.2657 0.31775 0.61262 0.0
H4826 H 0.27558 0.34466 0.64816 0.0
H4827 H 0.28944 0.33918 0.65938 0.0
H4828 H 0.25009 0.3296 0.64233 0.0
H4829 H 0.27678 0.34965 0.58847 0.0
H4830 H 0.27372 0.33488 0.59301 0.0
H4831 H 0.28295 0.34697 0.60587 0.0
C4832 C 0.27869 0.3192 0.62928 0.0
C4833 C 0.28554 0.32517 0.64252 0.0
C4834 C 0.27087 0.32245 0.62282 0.0
C4835 C 0.26976 0.3317 0.62947 0.0
C4836 C 0.27634 0.3375 0.64287 0.0
H4837 H 0.23663 0.36868 0.58723 0.0
H4838 H 0.25011 0.36371 0.60093 0.0
C4839 C 0.2842 0.3343 0.64931 0.0
C4840 C 0.26178 0.3354 0.62237 0.0
H4841 H 0.2577 0.34775 0.58945 0.0
C4842 C 0.25174 0.3336 0.6308 0.0
C4843 C 0.26409 0.34074 0.60741 0.0
C4844 C 0.27501 0.34329 0.59816 0.0
C4845 C 0.24377 0.33677 0.62446 0.0
C4846 C 0.2459 0.34179 0.60931 0.0
C4847 C 0.25608 0.34383 0.60104 0.0
C4848 C 0.23757 0.34482 0.6017 0.0
C4849 C 0.23318 0.33481 0.63404 0.0
C4850 C 0.22611 0.33583 0.59758 0.0
C4851 C 0.21841 0.33863 0.58977 0.0
C4852 C 0.22206 0.35048 0.58593 0.0
C4853 C 0.23353 0.35949 0.59019 0.0
C4854 C 0.24125 0.35666 0.59793 0.0
H4855 H 0.23429 0.33349 0.64664 0.0
H4856 H 0.23168 0.34245 0.63287 0.0
H4857 H 0.22513 0.32674 0.62972 0.0
H4858 H 0.22318 0.32661 0.60021 0.0
H4859 H 0.2096 0.33152 0.58675 0.0
H4860 H 0.668 0.95078 0.66223 0.0
H4861 H 0.66137 0.93119 0.65071 0.0
H4862 H 0.66984 0.94681 0.60463 0.0
H4863 H 0.67612 0.96635 0.61598 0.0
H4864 H 0.64761 0.9261 0.60645 0.0
H4865 H 0.68309 0.91969 0.63253 0.0
H4866 H 0.67474 0.92299 0.64639 0.0
H4867 H 0.6839 0.93395 0.63214 0.0
C4868 C 0.66838 0.95003 0.64964 0.0
C4869 C 0.67265 0.96014 0.64003 0.0
C4870 C 0.6647 0.93886 0.64309 0.0
C4871 C 0.66528 0.9376 0.62685 0.0
C4872 C 0.6694 0.94762 0.61721 0.0
H4873 H 0.66236 0.87946 0.5745 0.0
H4874 H 0.66767 0.89844 0.58687 0.0
C4875 C 0.67308 0.95879 0.62373 0.0
C4876 C 0.66148 0.92581 0.61981 0.0
H4877 H 0.66786 0.90337 0.61869 0.0
C4878 C 0.65201 0.92111 0.60912 0.0
C4879 C 0.66734 0.91941 0.62322 0.0
C4880 C 0.6779 0.92428 0.63409 0.0
C4881 C 0.64822 0.91012 0.60176 0.0
C4882 C 0.65394 0.90362 0.60539 0.0
C4883 C 0.66343 0.90835 0.61604 0.0
C4884 C 0.65053 0.89209 0.59784 0.0
C4885 C 0.63831 0.9057 0.58989 0.0
C4886 C 0.63914 0.88221 0.59999 0.0
C4887 C 0.63608 0.87132 0.59296 0.0
C4888 C 0.6444 0.87012 0.58378 0.0
C4889 C 0.6558 0.88005 0.58168 0.0
C4890 C 0.65884 0.89091 0.58868 0.0
H4891 H 0.63681 0.91293 0.58576 0.0
H4892 H 0.64028 0.90174 0.5796 0.0
H4893 H 0.62996 0.89873 0.59533 0.0
H4894 H 0.63267 0.88288 0.60727 0.0
H4895 H 0.62728 0.86379 0.59497 0.0
H4896 H 0.04997 0.71236 0.66642 0.0
H4897 H 0.06993 0.72545 0.65601 0.0
H4898 H 0.0551 0.72421 0.61049 0.0
H4899 H 0.03515 0.71089 0.62062 0.0
H4900 H 0.0813 0.72081 0.62872 0.0
H4901 H 0.07606 0.76048 0.62231 0.0
H4902 H 0.06665 0.74817 0.63496 0.0
H4903 H 0.06433 0.74686 0.61417 0.0
C4904 C 0.05095 0.71477 0.65416 0.0
C4905 C 0.04093 0.71061 0.64437 0.0
C4906 C 0.06235 0.72229 0.64826 0.0
C4907 C 0.06393 0.72585 0.63255 0.0
C4908 C 0.05402 0.72167 0.62272 0.0
H4909 H 0.12572 0.7593 0.57273 0.0
H4910 H 0.10703 0.74549 0.58575 0.0
C4911 C 0.04262 0.71411 0.62856 0.0
C4912 C 0.07596 0.73395 0.62637 0.0
H4913 H 0.09344 0.76177 0.61147 0.0
C4914 C 0.084 0.72979 0.625 0.0
C4915 C 0.07944 0.74566 0.62169 0.0
C4916 C 0.07123 0.75065 0.62343 0.0
C4917 C 0.0954 0.73699 0.61869 0.0
C4918 C 0.09875 0.74859 0.6136 0.0
C4919 C 0.0908 0.75283 0.61532 0.0
C4920 C 0.11043 0.75648 0.6063 0.0
C4921 C 0.1038 0.7322 0.61759 0.0
C4922 C 0.11849 0.76722 0.61357 0.0
C4923 C 0.1292 0.7751 0.60622 0.0
C4924 C 0.13198 0.77243 0.59138 0.0
C4925 C 0.12394 0.76155 0.58426 0.0
C4926 C 0.11325 0.75366 0.59165 0.0
H4927 H 0.10091 0.72426 0.62512 0.0
H4928 H 0.10411 0.72959 0.60529 0.0
H4929 H 0.11294 0.73909 0.62102 0.0
H4930 H 0.11645 0.76955 0.62488 0.0
H4931 H 0.13526 0.78331 0.61213 0.0
H4932 H 0.97448 0.60241 0.69138 0.0
H4933 H 0.97726 0.58684 0.70325 0.0
H4934 H 0.99427 0.60946 0.7431 0.0
H4935 H 0.99182 0.62516 0.73118 0.0
H4936 H 0.00663 0.59859 0.73033 0.0
H4937 H 0.95894 0.56591 0.74116 0.0
H4938 H 0.96266 0.57141 0.72146 0.0
H4939 H 0.96419 0.58137 0.73704 0.0
C4940 C 0.97886 0.60408 0.70264 0.0
C4941 C 0.98288 0.61499 0.71038 0.0
C4942 C 0.98033 0.59514 0.70946 0.0
C4943 C 0.98582 0.59696 0.72413 0.0
C4944 C 0.98993 0.60786 0.73182 0.0
H4945 H 0.00554 0.55882 0.7885 0.0
H4946 H 0.00248 0.57341 0.77441 0.0
C4947 C 0.98844 0.61679 0.72504 0.0
C4948 C 0.98758 0.58764 0.73138 0.0
H4949 H 0.97279 0.55978 0.74709 0.0
C4950 C 0.99924 0.5901 0.734 0.0
C4951 C 0.97791 0.57657 0.73606 0.0
C4952 C 0.96521 0.57364 0.73393 0.0
C4953 C 0.00151 0.58175 0.74118 0.0
C4954 C 0.99184 0.57077 0.74614 0.0
C4955 C 0.98017 0.56823 0.74329 0.0
C4956 C 0.99366 0.56191 0.75463 0.0
C4957 C 0.01422 0.58472 0.74325 0.0
C4958 C 0.98944 0.55051 0.74835 0.0
C4959 C 0.99115 0.54214 0.75639 0.0
C4960 C 0.99708 0.54502 0.77088 0.0
C4961 C 0.00115 0.55641 0.77722 0.0
C4962 C -0.00059 0.56475 0.76919 0.0
H4963 H 0.02031 0.59187 0.73514 0.0
H4964 H 0.0171 0.58787 0.7554 0.0
H4965 H 0.01514 0.57677 0.74125 0.0
H4966 H 0.98493 0.54814 0.73715 0.0
H4967 H 0.988 0.53349 0.75114 0.0
H4968 H 0.38246 0.3842 0.68707 0.0
H4969 H 0.3957 0.40361 0.6989 0.0
H4970 H 0.39297 0.38675 0.74333 0.0
H4971 H 0.37954 0.36735 0.73175 0.0
H4972 H 0.39072 0.41417 0.72578 0.0
H4973 H 0.42936 0.40762 0.73474 0.0
H4974 H 0.41741 0.39861 0.72139 0.0
H4975 H 0.41541 0.39592 0.74209 0.0
C4976 C 0.38461 0.38462 0.69938 0.0
C4977 C 0.37997 0.3742 0.70845 0.0
C4978 C 0.39221 0.39571 0.70609 0.0
C4979 C 0.39538 0.39656 0.72191 0.0
C4980 C 0.39077 0.38623 0.73101 0.0
H4981 H 0.42716 0.45712 0.78445 0.0
H4982 H 0.41373 0.43865 0.7707 0.0
C4983 C 0.38313 0.37515 0.72435 0.0
C4984 C 0.40338 0.4083 0.72901 0.0
H4985 H 0.43051 0.42476 0.74627 0.0
C4986 C 0.39944 0.41653 0.73022 0.0
C4987 C 0.41477 0.41134 0.73463 0.0
C4988 C 0.41958 0.40297 0.73306 0.0
C4989 C 0.40654 0.42768 0.73723 0.0
C4990 C 0.4178 0.43059 0.74323 0.0
C4991 C 0.42182 0.42245 0.74174 0.0
C4992 C 0.42559 0.44206 0.75112 0.0
C4993 C 0.40201 0.43631 0.73803 0.0
C4994 C 0.43671 0.45003 0.74468 0.0
C4995 C 0.44437 0.4606 0.75245 0.0
C4996 C 0.4411 0.46334 0.76691 0.0
C4997 C 0.42988 0.45537 0.77324 0.0
C4998 C 0.4222 0.4448 0.76542 0.0
H4999 H 0.3945 0.43384 0.72983 0.0
H5000 H 0.39884 0.43635 0.75009 0.0
H5001 H 0.40922 0.44547 0.73527 0.0
H5002 H 0.43947 0.44805 0.73365 0.0
H5003 H 0.45288 0.46663 0.74715 0.0
H5004 H 0.62136 0.99748 0.70054 0.0
H5005 H 0.60323 0.99495 0.71282 0.0
H5006 H 0.62279 0.03066 0.7311 0.0
H5007 H 0.64099 0.03317 0.71903 0.0
H5008 H 0.60911 0.01491 0.75324 0.0
H5009 H 0.58223 0.00804 0.69982 0.0
H5010 H 0.58772 0.99789 0.70128 0.0
H5011 H 0.59801 0.01354 0.69909 0.0
C5012 C 0.62175 0.00484 0.707 0.0
C5013 C 0.63258 0.01553 0.7088 0.0
C5014 C 0.61138 0.0034 0.71397 0.0
C5015 C 0.61161 0.01269 0.72265 0.0
C5016 C 0.6224 0.02339 0.7244 0.0
H5017 H 0.5588 0.0219 0.77301 0.0
H5018 H 0.57657 0.02472 0.75934 0.0
C5019 C 0.63279 0.02481 0.71755 0.0
C5020 C 0.60074 0.01106 0.73056 0.0
H5021 H 0.57195 0.00385 0.72423 0.0
C5022 C 0.60102 0.01257 0.74687 0.0
C5023 C 0.59018 0.00801 0.72223 0.0
C5024 C 0.58952 0.00689 0.70462 0.0
C5025 C 0.59097 0.01094 0.75511 0.0
C5026 C 0.58041 0.00775 0.7468 0.0
C5027 C 0.58009 0.00624 0.73052 0.0
C5028 C 0.56961 0.00602 0.75489 0.0
C5029 C 0.59161 0.01246 0.77266 0.0
C5030 C 0.55982 0.99456 0.75674 0.0
C5031 C 0.5497 0.99289 0.76472 0.0
C5032 C 0.54917 0.00266 0.77085 0.0
C5033 C 0.55898 0.01416 0.76871 0.0
C5034 C 0.56912 0.01581 0.76083 0.0
H5035 H 0.59984 0.01316 0.77759 0.0
H5036 H 0.59145 0.02067 0.77571 0.0
H5037 H 0.58379 0.00486 0.77829 0.0
H5038 H 0.56009 0.98691 0.75222 0.0
H5039 H 0.54239 0.98391 0.76631 0.0
loop_
_geom_bond_atom_site_label_1
_geom_bond_atom_site_label_2
_geom_bond_distance
_geom_bond_site_symmetry_2
_ccdc_geom_bond_type
Li0 N17 2.004 . S
Li0 O60 1.956 . S
Li0 O61 1.970 1_654 S
Li0 O62 1.961 . S
Li1 N25 1.990 . S
Li1 O60 1.970 1_455 S
Li1 O61 1.956 1_554 S
Li1 O63 1.961 . S
Li2 N47 1.990 . S
Li2 O60 1.961 . S
Li2 O62 1.956 . S
Li2 O63 1.970 1_655 S
Li3 N53 1.990 . S
Li3 O61 1.961 . S
Li3 O62 1.970 1_456 S
Li3 O63 1.956 1_556 S
C4 C6 1.297 1_655 S
C4 C7 1.356 . S
C4 O60 1.325 . S
N5 C8 1.314 . S
N5 C9 1.279 . S
C6 C4 1.297 1_455 S
C6 C8 1.354 1_455 S
C6 H64 0.980 . S
C7 C4 1.356 . S
C7 C9 1.358 . S
C7 H65 0.930 . S
C8 N5 1.314 . S
C8 C6 1.354 1_655 S
C8 H66 0.930 1_655 S
C9 N5 1.279 . S
C9 C7 1.358 . S
C9 H67 0.930 . S
C10 C13 1.348 . S
C10 C14 1.356 . S
C10 O61 1.325 . S
C11 N12 1.279 . S
C11 C14 1.358 . S
C11 H68 0.930 . S
N12 C11 1.279 . S
N12 C15 1.314 . S
C13 C10 1.348 . S
C13 C15 1.353 . S
C13 H69 0.929 1_455 S
C14 C10 1.356 . S
C14 C11 1.358 . S
C14 H70 0.930 . S
C15 N12 1.314 . S
C15 C13 1.353 . S
C15 H71 0.930 . S
C16 N17 1.262 1_556 S
C16 C21 1.353 . S
C16 H22 0.930 . S
N17 Li0 2.004 . S
N17 C16 1.262 1_554 S
N17 C19 1.313 . S
C18 C19 1.358 . S
C18 C20 1.356 1_554 S
C18 H72 0.930 . S
C19 N17 1.313 . S
C19 C18 1.358 . S
C19 H23 0.930 . S
C20 C18 1.356 1_556 S
C20 C21 1.348 . S
C21 C16 1.353 . S
C21 C20 1.348 . S
C21 H73 0.929 . S
H22 C16 0.930 . S
H23 C19 0.930 . S
C24 N25 1.314 . S
C24 C26 1.353 . S
C24 H30 0.930 . S
N25 Li1 1.990 . S
N25 C24 1.314 . S
N25 C28 1.279 . S
C26 C24 1.353 . S
C26 C29 1.348 . S
C26 H74 0.929 . S
C27 C28 1.358 . S
C27 C29 1.356 . S
C27 H75 0.930 . S
C28 N25 1.279 . S
C28 C27 1.358 . S
C28 H31 0.930 . S
C29 C26 1.348 . S
C29 C27 1.356 . S
H30 C24 0.930 . S
H31 C28 0.930 . S
C32 C34 1.325 1_554 S
C32 C35 1.373 . S
C32 O62 1.334 . S
N33 C36 1.314 . S
N33 C37 1.279 1_556 S
C34 C32 1.325 1_556 S
C34 C36 1.353 . S
C34 H76 0.929 . S
C35 C32 1.373 . S
C35 C37 1.358 . S
C35 H77 0.930 . S
C36 N33 1.314 . S
C36 C34 1.353 . S
C36 H78 0.930 . S
C37 N33 1.279 1_554 S
C37 C35 1.358 . S
C37 H79 0.930 . S
C38 C39 1.348 . S
C38 C40 1.356 . S
C38 O63 1.325 . S
C39 C38 1.348 . S
C39 C41 1.353 . S
C39 H80 0.929 . S
C40 C38 1.356 . S
C40 C42 1.358 . S
C40 H81 0.930 . S
C41 C39 1.353 . S
C41 N43 1.314 . S
C41 H82 0.930 . S
C42 C40 1.358 . S
C42 N43 1.279 . S
C42 H83 0.930 . S
N43 C41 1.314 . S
N43 C42 1.279 . S
C44 C46 1.353 . S
C44 N47 1.314 . S
C44 H50 0.862 1_655 S
C45 N47 1.279 . S
C45 C48 1.358 . S
C45 H51 0.930 . S
C46 C44 1.353 . S
C46 C49 1.348 . S
C46 H84 0.929 . S
N47 Li2 1.990 . S
N47 C44 1.314 . S
N47 C45 1.279 . S
C48 C45 1.358 . S
C48 C49 1.356 . S
C48 H85 0.930 . S
C49 C46 1.348 . S
C49 C48 1.356 . S
H50 C44 0.862 1_455 S
H51 C45 0.930 . S
C52 N53 1.314 . S
C52 C54 1.353 . S
C52 H58 0.930 . S
N53 Li3 1.990 . S
N53 C52 1.314 . S
N53 C56 1.279 . S
C54 C52 1.353 . S
C54 C57 1.348 . S
C54 H86 0.929 . S
C55 C56 1.358 . S
C55 C57 1.356 . S
C55 H87 0.930 . S
C56 N53 1.279 . S
C56 C55 1.358 . S
C56 H59 0.930 . S
C57 C54 1.348 . S
C57 C55 1.356 . S
H58 C52 0.930 . S
H59 C56 0.930 . S
O60 Li0 1.956 . S
O60 Li1 1.970 1_655 S
O60 Li2 1.961 . S
O60 C4 1.325 . S
O61 Li0 1.970 1_456 S
O61 Li1 1.956 1_556 S
O61 Li3 1.961 . S
O61 C10 1.325 . S
O62 Li0 1.961 . S
O62 Li2 1.956 . S
O62 Li3 1.970 1_654 S
O62 C32 1.334 . S
O63 Li1 1.961 . S
O63 Li2 1.970 1_455 S
O63 Li3 1.956 1_554 S
O63 C38 1.325 . S
H64 C6 0.980 . S
H65 C7 0.930 . S
H66 C8 0.930 1_455 S
H67 C9 0.930 . S
H68 C11 0.930 . S
H69 C13 0.929 1_655 S
H70 C14 0.930 . S
H71 C15 0.930 . S
H72 C18 0.930 . S
H73 C21 0.929 . S
H74 C26 0.929 . S
H75 C27 0.930 . S
H76 C34 0.929 . S
H77 C35 0.930 . S
H78 C36 0.930 . S
H79 C37 0.930 . S
H80 C39 0.929 . S
H81 C40 0.930 . S
H82 C41 0.930 . S
H83 C42 0.930 . S
H84 C46 0.929 . S
H85 C48 0.930 . S
H86 C54 0.929 . S
H87 C55 0.930 . S
Li88 N105 1.990 1_554 S
Li88 O148 1.956 . S
Li88 O149 1.970 1_554 S
Li88 O150 1.961 . S
Li89 N113 1.990 . S
Li89 O148 1.970 . S
Li89 O149 1.956 1_554 S
Li89 O151 1.961 . S
Li90 N135 1.990 . S
Li90 O148 1.961 . S
Li90 O150 1.956 . S
Li90 O151 1.970 . S
Li91 N141 1.990 . S
Li91 O149 1.961 . S
Li91 O150 1.970 1_556 S
Li91 O151 1.956 1_556 S
C92 C94 1.348 . S
C92 C95 1.356 . S
C92 O148 1.325 . S
N93 C96 1.314 . S
N93 C97 1.279 . S
C94 C92 1.348 . S
C94 C96 1.353 . S
C94 H152 0.929 . S
C95 C92 1.356 . S
C95 C97 1.358 . S
C95 H153 0.930 . S
C96 N93 1.314 . S
C96 C94 1.353 . S
C96 H154 0.930 . S
C97 N93 1.279 . S
C97 C95 1.358 . S
C97 H155 0.930 . S
C98 C101 1.348 . S
C98 C102 1.356 . S
C98 O149 1.325 . S
C99 N100 1.279 . S
C99 C102 1.358 . S
C99 H156 0.930 . S
N100 C99 1.279 . S
N100 C103 1.314 . S
C101 C98 1.348 . S
C101 C103 1.353 . S
C101 H157 0.929 . S
C102 C98 1.356 . S
C102 C99 1.358 . S
C102 H158 0.930 . S
C103 N100 1.314 . S
C103 C101 1.353 . S
C103 H159 0.930 . S
C104 N105 1.314 . S
C104 C109 1.353 . S
C104 H110 0.930 . S
N105 Li88 1.990 1_556 S
N105 C104 1.314 . S
N105 C107 1.279 1_556 S
C106 C107 1.358 1_556 S
C106 C108 1.356 . S
C106 H160 0.930 1_556 S
C107 N105 1.279 1_554 S
C107 C106 1.358 1_554 S
C107 H111 0.930 . S
C108 C106 1.356 . S
C108 C109 1.348 . S
C109 C104 1.353 . S
C109 C108 1.348 . S
C109 H161 0.929 . S
H110 C104 0.930 . S
H111 C107 0.930 . S
C112 N113 1.314 . S
C112 C114 1.353 . S
C112 H118 0.930 . S
N113 Li89 1.990 . S
N113 C112 1.314 . S
N113 C116 1.279 . S
C114 C112 1.353 . S
C114 C117 1.348 . S
C114 H162 0.929 . S
C115 C116 1.358 . S
C115 C117 1.356 . S
C115 H163 0.930 . S
C116 N113 1.279 . S
C116 C115 1.358 . S
C116 H119 0.930 . S
C117 C114 1.348 . S
C117 C115 1.356 . S
H118 C112 0.930 . S
H119 C116 0.930 . S
C120 C122 1.348 . S
C120 C123 1.356 1_556 S
C120 O150 1.325 1_556 S
N121 C124 1.314 . S
N121 C125 1.279 . S
C122 C120 1.348 . S
C122 C124 1.353 . S
C122 H164 0.929 . S
C123 C120 1.356 1_554 S
C123 C125 1.358 1_554 S
C123 H165 0.930 . S
C124 N121 1.314 . S
C124 C122 1.353 . S
C124 H166 0.930 . S
C125 N121 1.279 . S
C125 C123 1.358 1_556 S
C125 H167 0.928 1_556 S
C126 C127 1.348 . S
C126 C128 1.356 . S
C126 O151 1.325 . S
C127 C126 1.348 . S
C127 C129 1.353 . S
C127 H168 0.929 . S
C128 C126 1.356 . S
C128 C130 1.358 . S
C128 H169 0.930 . S
C129 C127 1.353 . S
C129 N131 1.314 . S
C129 H170 0.930 . S
C130 C128 1.358 . S
C130 N131 1.279 . S
C130 H171 0.930 . S
N131 C129 1.314 . S
N131 C130 1.279 . S
C132 C134 1.353 . S
C132 N135 1.314 . S
C132 H138 0.930 . S
C133 N135 1.279 . S
C133 C136 1.358 . S
C133 H139 0.930 . S
C134 C132 1.353 . S
C134 C137 1.348 . S
C134 H172 0.929 . S
N135 Li90 1.990 . S
N135 C132 1.314 . S
N135 C133 1.279 . S
C136 C133 1.358 . S
C136 C137 1.356 . S
C136 H173 0.930 . S
C137 C134 1.348 . S
C137 C136 1.356 . S
H138 C132 0.930 . S
H139 C133 0.930 . S
C140 N141 1.314 . S
C140 C142 1.353 . S
C140 H146 0.930 . S
N141 Li91 1.990 . S
N141 C140 1.314 . S
N141 C144 1.279 . S
C142 C140 1.353 . S
C142 C145 1.348 . S
C142 H174 0.929 . S
C143 C144 1.358 . S
C143 C145 1.356 . S
C143 H175 0.930 . S
C144 N141 1.279 . S
C144 C143 1.358 . S
C144 H147 0.930 . S
C145 C142 1.348 . S
C145 C143 1.356 . S
H146 C140 0.930 . S
H147 C144 0.930 . S
O148 Li88 1.956 . S
O148 Li89 1.970 . S
O148 Li90 1.961 . S
O148 C92 1.325 . S
O149 Li88 1.970 1_556 S
O149 Li89 1.956 1_556 S
O149 Li91 1.961 . S
O149 C98 1.325 . S
O150 Li88 1.961 . S
O150 Li90 1.956 . S
O150 Li91 1.970 1_554 S
O150 C120 1.325 1_554 S
O151 Li89 1.961 . S
O151 Li90 1.970 . S
O151 Li91 1.956 1_554 S
O151 C126 1.325 . S
H152 C94 0.929 . S
H153 C95 0.930 . S
H154 C96 0.930 . S
H155 C97 0.930 . S
H156 C99 0.930 . S
H157 C101 0.929 . S
H158 C102 0.930 . S
H159 C103 0.930 . S
H160 C106 0.930 1_554 S
H161 C109 0.929 . S
H162 C114 0.929 . S
H163 C115 0.930 . S
H164 C122 0.929 . S
H165 C123 0.930 . S
H166 C124 0.930 . S
H167 C125 0.928 1_554 S
H168 C127 0.929 . S
H169 C128 0.930 . S
H170 C129 0.930 . S
H171 C130 0.930 . S
H172 C134 0.929 . S
H173 C136 0.930 . S
H174 C142 0.929 . S
H175 C143 0.930 . S
Li176 N193 1.990 . S
Li176 O236 1.956 1_556 S
Li176 O237 1.970 1_566 S
Li176 O238 1.961 . S
Li177 N201 1.990 . S
Li177 O236 1.970 1_545 S
Li177 O237 1.956 . S
Li177 O239 1.961 . S
Li178 N223 1.990 . S
Li178 O236 1.961 . S
Li178 O238 1.956 1_554 S
Li178 O239 1.970 1_565 S
Li179 N229 1.994 . S
Li179 O237 1.961 . S
Li179 O238 1.970 1_544 S
Li179 O239 1.956 . S
C180 C182 1.348 . S
C180 C183 1.356 . S
C180 O236 1.325 . S
N181 C184 1.314 . S
N181 C185 1.279 . S
C182 C180 1.348 . S
C182 C184 1.353 . S
C182 H240 0.929 . S
C183 C180 1.356 . S
C183 C185 1.358 . S
C183 H241 0.930 . S
C184 N181 1.314 . S
C184 C182 1.353 . S
C184 H242 0.930 . S
C185 N181 1.279 . S
C185 C183 1.358 . S
C185 H243 0.930 . S
C186 C189 1.345 1_554 S
C186 C190 1.358 . S
C186 O237 1.326 . S
C187 N188 1.279 1_554 S
C187 C190 1.358 . S
C187 H244 0.930 . S
N188 C187 1.279 1_556 S
N188 C191 1.314 . S
C189 C186 1.345 1_556 S
C189 C191 1.353 . S
C189 H245 0.929 . S
C190 C186 1.358 . S
C190 C187 1.358 . S
C190 H246 0.930 . S
C191 N188 1.314 . S
C191 C189 1.353 . S
C191 H247 0.930 . S
C192 N193 1.314 . S
C192 C197 1.353 . S
C192 H198 0.862 1_565 S
N193 Li176 1.990 . S
N193 C192 1.314 . S
N193 C195 1.279 . S
C194 C195 1.358 . S
C194 C196 1.356 . S
C194 H248 0.930 . S
C195 N193 1.279 . S
C195 C194 1.358 . S
C195 H199 0.930 . S
C196 C194 1.356 . S
C196 C197 1.348 . S
C197 C192 1.353 . S
C197 C196 1.348 . S
C197 H249 0.929 . S
H198 C192 0.862 1_545 S
H199 C195 0.930 . S
C200 N201 1.314 . S
C200 C202 1.353 . S
C200 H206 0.930 . S
N201 Li177 1.990 . S
N201 C200 1.314 . S
N201 C204 1.279 . S
C202 C200 1.353 . S
C202 C205 1.348 . S
C202 H250 0.929 . S
C203 C204 1.358 . S
C203 C205 1.356 . S
C203 H251 0.930 . S
C204 N201 1.279 . S
C204 C203 1.358 . S
C204 H207 0.930 . S
C205 C202 1.348 . S
C205 C203 1.356 . S
H206 C200 0.930 . S
H207 C204 0.930 . S
C208 C210 1.298 1_565 S
C208 C211 1.356 . S
C208 O238 1.325 . S
N209 C212 1.314 . S
N209 C213 1.279 . S
C210 C208 1.298 1_545 S
C210 C212 1.354 1_545 S
C210 H252 0.980 . S
C211 C208 1.356 . S
C211 C213 1.358 . S
C211 H253 0.930 . S
C212 N209 1.314 . S
C212 C210 1.354 1_565 S
C212 H254 0.930 1_565 S
C213 N209 1.279 . S
C213 C211 1.358 . S
C213 H255 0.930 . S
C214 C215 1.348 . S
C214 C216 1.356 . S
C214 O239 1.325 . S
C215 C214 1.348 . S
C215 C217 1.353 . S
C215 H256 0.929 1_545 S
C216 C214 1.356 . S
C216 C218 1.358 . S
C216 H257 0.930 . S
C217 C215 1.353 . S
C217 N219 1.314 . S
C217 H258 0.930 . S
C218 C216 1.358 . S
C218 N219 1.279 . S
C218 H259 0.930 . S
N219 C217 1.314 . S
N219 C218 1.279 . S
C220 C222 1.353 . S
C220 N223 1.314 . S
C220 H226 0.930 . S
C221 N223 1.279 . S
C221 C224 1.358 . S
C221 H227 0.930 . S
C222 C220 1.353 . S
C222 C225 1.348 . S
C222 H260 0.929 . S
N223 Li178 1.990 . S
N223 C220 1.314 . S
N223 C221 1.279 . S
C224 C221 1.358 . S
C224 C225 1.356 . S
C224 H261 0.930 . S
C225 C222 1.348 . S
C225 C224 1.356 . S
H226 C220 0.930 . S
H227 C221 0.930 . S
C228 N229 1.300 1_556 S
C228 C230 1.353 . S
C228 H234 0.930 . S
N229 Li179 1.994 . S
N229 C228 1.300 1_554 S
N229 C232 1.288 . S
C230 C228 1.353 . S
C230 C233 1.348 . S
C230 H262 0.929 . S
C231 C232 1.358 . S
C231 C233 1.356 1_554 S
C231 H263 0.930 . S
C232 N229 1.288 . S
C232 C231 1.358 . S
C232 H235 0.930 . S
C233 C230 1.348 . S
C233 C231 1.356 1_556 S
H234 C228 0.930 . S
H235 C232 0.930 . S
O236 Li176 1.956 1_554 S
O236 Li177 1.970 1_565 S
O236 Li178 1.961 . S
O236 C180 1.325 . S
O237 Li176 1.970 1_544 S
O237 Li177 1.956 . S
O237 Li179 1.961 . S
O237 C186 1.326 . S
O238 Li176 1.961 . S
O238 Li178 1.956 1_556 S
O238 Li179 1.970 1_566 S
O238 C208 1.325 . S
O239 Li177 1.961 . S
O239 Li178 1.970 1_545 S
O239 Li179 1.956 . S
O239 C214 1.325 . S
H240 C182 0.929 . S
H241 C183 0.930 . S
H242 C184 0.930 . S
H243 C185 0.930 . S
H244 C187 0.930 . S
H245 C189 0.929 . S
H246 C190 0.930 . S
H247 C191 0.930 . S
H248 C194 0.930 . S
H249 C197 0.929 . S
H250 C202 0.929 . S
H251 C203 0.930 . S
H252 C210 0.980 . S
H253 C211 0.930 . S
H254 C212 0.930 1_545 S
H255 C213 0.930 . S
H256 C215 0.929 1_565 S
H257 C216 0.930 . S
H258 C217 0.930 . S
H259 C218 0.930 . S
H260 C222 0.929 . S
H261 C224 0.930 . S
H262 C230 0.929 . S
H263 C231 0.930 . S
Li264 N281 1.990 . S
Li264 O324 1.956 . S
Li264 O325 1.970 1_455 S
Li264 O326 1.961 1_554 S
Li265 N289 1.990 . S
Li265 O324 1.970 1_655 S
Li265 O325 1.956 . S
Li265 O327 1.961 . S
Li266 N311 1.990 . S
Li266 O324 1.961 1_556 S
Li266 O326 1.956 . S
Li266 O327 1.970 1_456 S
Li267 N317 1.977 1_554 S
Li267 O325 1.961 . S
Li267 O326 1.970 1_654 S
Li267 O327 1.956 . S
C268 C270 1.348 . S
C268 C271 1.356 . S
C268 O324 1.325 . S
N269 C272 1.314 . S
N269 C273 1.279 . S
C270 C268 1.348 . S
C270 C272 1.353 . S
C270 H328 0.929 . S
C271 C268 1.356 . S
C271 C273 1.358 . S
C271 H329 0.930 1_554 S
C272 N269 1.314 . S
C272 C270 1.353 . S
C272 H330 0.930 . S
C273 N269 1.279 . S
C273 C271 1.358 . S
C273 H331 0.930 . S
C274 C277 1.348 1_655 S
C274 C278 1.356 . S
C274 O325 1.325 . S
C275 N276 1.279 . S
C275 C278 1.358 . S
C275 H332 0.930 . S
N276 C275 1.279 . S
N276 C279 1.314 . S
C277 C274 1.348 1_455 S
C277 C279 1.353 1_455 S
C277 H333 0.929 . S
C278 C274 1.356 . S
C278 C275 1.358 . S
C278 H334 0.930 . S
C279 N276 1.314 . S
C279 C277 1.353 1_655 S
C279 H335 0.930 1_655 S
C280 N281 1.314 . S
C280 C285 1.353 . S
C280 H286 0.930 . S
N281 Li264 1.990 . S
N281 C280 1.314 . S
N281 C283 1.279 . S
C282 C283 1.358 . S
C282 C284 1.356 . S
C282 H336 0.930 . S
C283 N281 1.279 . S
C283 C282 1.358 . S
C283 H287 0.930 . S
C284 C282 1.356 . S
C284 C285 1.348 . S
C285 C280 1.353 . S
C285 C284 1.348 . S
C285 H337 0.929 . S
H286 C280 0.930 . S
H287 C283 0.930 . S
C288 N289 1.314 . S
C288 C290 1.353 . S
C288 H294 0.930 . S
N289 Li265 1.990 . S
N289 C288 1.314 . S
N289 C292 1.279 . S
C290 C288 1.353 . S
C290 C293 1.348 . S
C290 H338 0.929 . S
C291 C292 1.358 . S
C291 C293 1.356 . S
C291 H339 0.930 . S
C292 N289 1.279 . S
C292 C291 1.358 . S
C292 H295 0.930 . S
C293 C290 1.348 . S
C293 C291 1.356 . S
H294 C288 0.930 . S
H295 C292 0.930 . S
C296 C298 1.348 1_455 S
C296 C299 1.356 . S
C296 O326 1.325 . S
N297 C300 1.314 . S
N297 C301 1.279 . S
C298 C296 1.348 1_655 S
C298 C300 1.353 1_655 S
C298 H340 0.929 . S
C299 C296 1.356 . S
C299 C301 1.358 . S
C299 H341 0.930 . S
C300 N297 1.314 . S
C300 C298 1.353 1_455 S
C300 H342 0.930 1_455 S
C301 N297 1.279 . S
C301 C299 1.358 . S
C301 H343 0.930 . S
C302 C303 1.349 . S
C302 C304 1.355 1_556 S
C302 O327 1.325 1_556 S
C303 C302 1.349 . S
C303 C305 1.353 . S
C303 H344 0.929 . S
C304 C302 1.355 1_554 S
C304 C306 1.358 . S
C304 H345 0.930 . S
C305 C303 1.353 . S
C305 N307 1.314 . S
C305 H346 0.930 . S
C306 C304 1.358 . S
C306 N307 1.279 1_554 S
C306 H347 0.930 . S
N307 C305 1.314 . S
N307 C306 1.279 1_556 S
C308 C310 1.353 . S
C308 N311 1.314 . S
C308 H314 0.930 . S
C309 N311 1.279 . S
C309 C312 1.358 . S
C309 H315 0.930 . S
C310 C308 1.353 . S
C310 C313 1.348 . S
C310 H348 0.929 . S
N311 Li266 1.990 . S
N311 C308 1.314 . S
N311 C309 1.279 . S
C312 C309 1.358 . S
C312 C313 1.356 . S
C312 H349 0.930 . S
C313 C310 1.348 . S
C313 C312 1.356 . S
H314 C308 0.930 . S
H315 C309 0.930 . S
C316 N317 1.302 1_554 S
C316 C318 1.353 1_554 S
C316 H322 0.930 . S
N317 Li267 1.977 1_556 S
N317 C316 1.302 1_556 S
N317 C320 1.314 . S
C318 C316 1.353 1_556 S
C318 C321 1.348 . S
C318 H350 0.929 1_556 S
C319 C320 1.358 . S
C319 C321 1.356 . S
C319 H351 0.930 . S
C320 N317 1.314 . S
C320 C319 1.358 . S
C320 H323 0.930 . S
C321 C318 1.348 . S
C321 C319 1.356 . S
H322 C316 0.930 . S
H323 C320 0.930 . S
O324 Li264 1.956 . S
O324 Li265 1.970 1_455 S
O324 Li266 1.961 1_554 S
O324 C268 1.325 . S
O325 Li264 1.970 1_655 S
O325 Li265 1.956 . S
O325 Li267 1.961 . S
O325 C274 1.325 . S
O326 Li264 1.961 1_556 S
O326 Li266 1.956 . S
O326 Li267 1.970 1_456 S
O326 C296 1.325 . S
O327 Li265 1.961 . S
O327 Li266 1.970 1_654 S
O327 Li267 1.956 . S
O327 C302 1.325 1_554 S
H328 C270 0.929 . S
H329 C271 0.930 1_556 S
H330 C272 0.930 . S
H331 C273 0.930 . S
H332 C275 0.930 . S
H333 C277 0.929 . S
H334 C278 0.930 . S
H335 C279 0.930 1_455 S
H336 C282 0.930 . S
H337 C285 0.929 . S
H338 C290 0.929 . S
H339 C291 0.930 . S
H340 C298 0.929 . S
H341 C299 0.930 . S
H342 C300 0.930 1_655 S
H343 C301 0.930 . S
H344 C303 0.929 . S
H345 C304 0.930 . S
H346 C305 0.930 . S
H347 C306 0.930 . S
H348 C310 0.929 . S
H349 C312 0.930 . S
H350 C318 0.929 1_554 S
H351 C319 0.930 . S
Li352 N369 1.990 . S
Li352 O412 1.956 . S
Li352 O413 1.970 . S
Li352 O414 1.961 1_554 S
Li353 N377 1.990 . S
Li353 O412 1.970 . S
Li353 O413 1.956 . S
Li353 O415 1.961 . S
Li354 N399 1.990 . S
Li354 O412 1.961 1_556 S
Li354 O414 1.956 . S
Li354 O415 1.970 1_556 S
Li355 N405 1.990 1_554 S
Li355 O413 1.961 . S
Li355 O414 1.970 1_554 S
Li355 O415 1.956 . S
C356 C358 1.348 . S
C356 C359 1.356 . S
C356 O412 1.325 . S
N357 C360 1.314 . S
N357 C361 1.279 . S
C358 C356 1.348 . S
C358 C360 1.353 . S
C358 H416 0.929 . S
C359 C356 1.356 . S
C359 C361 1.358 . S
C359 H417 0.930 . S
C360 N357 1.314 . S
C360 C358 1.353 . S
C360 H418 0.930 . S
C361 N357 1.279 . S
C361 C359 1.358 . S
C361 H419 0.930 . S
C362 C365 1.348 . S
C362 C366 1.356 . S
C362 O413 1.325 . S
C363 N364 1.279 . S
C363 C366 1.358 . S
C363 H420 0.930 . S
N364 C363 1.279 . S
N364 C367 1.314 . S
C365 C362 1.348 . S
C365 C367 1.353 . S
C365 H421 0.929 . S
C366 C362 1.356 . S
C366 C363 1.358 . S
C366 H422 0.930 . S
C367 N364 1.314 . S
C367 C365 1.353 . S
C367 H423 0.930 . S
C368 N369 1.314 . S
C368 C373 1.353 . S
C368 H374 0.930 . S
N369 Li352 1.990 . S
N369 C368 1.314 . S
N369 C371 1.279 . S
C370 C371 1.358 . S
C370 C372 1.356 . S
C370 H424 0.930 . S
C371 N369 1.279 . S
C371 C370 1.358 . S
C371 H375 0.930 . S
C372 C370 1.356 . S
C372 C373 1.348 . S
C373 C368 1.353 . S
C373 C372 1.348 . S
C373 H425 0.929 . S
H374 C368 0.930 . S
H375 C371 0.930 . S
C376 N377 1.314 . S
C376 C378 1.353 . S
C376 H382 0.930 . S
N377 Li353 1.990 . S
N377 C376 1.314 . S
N377 C380 1.279 . S
C378 C376 1.353 . S
C378 C381 1.348 . S
C378 H426 0.929 . S
C379 C380 1.358 . S
C379 C381 1.356 . S
C379 H427 0.930 . S
C380 N377 1.279 . S
C380 C379 1.358 . S
C380 H383 0.930 . S
C381 C378 1.348 . S
C381 C379 1.356 . S
H382 C376 0.930 . S
H383 C380 0.930 . S
C384 C386 1.348 . S
C384 C387 1.356 . S
C384 O414 1.325 . S
N385 C388 1.314 . S
N385 C389 1.279 . S
C386 C384 1.348 . S
C386 C388 1.353 . S
C386 H428 0.929 . S
C387 C384 1.356 . S
C387 C389 1.358 . S
C387 H429 0.930 . S
C388 N385 1.314 . S
C388 C386 1.353 . S
C388 H430 0.930 . S
C389 N385 1.279 . S
C389 C387 1.358 . S
C389 H431 0.930 . S
C390 C391 1.348 . S
C390 C392 1.356 1_556 S
C390 O415 1.325 1_556 S
C391 C390 1.348 . S
C391 C393 1.353 . S
C391 H432 0.929 . S
C392 C390 1.356 1_554 S
C392 C394 1.365 . S
C392 H433 0.930 . S
C393 C391 1.353 . S
C393 N395 1.314 . S
C393 H434 0.930 . S
C394 C392 1.365 . S
C394 N395 1.263 1_554 S
C394 H435 0.942 . S
N395 C393 1.314 . S
N395 C394 1.263 1_556 S
C396 C398 1.353 . S
C396 N399 1.314 . S
C396 H402 0.930 . S
C397 N399 1.279 . S
C397 C400 1.358 . S
C397 H403 0.930 . S
C398 C396 1.353 . S
C398 C401 1.348 . S
C398 H436 0.929 . S
N399 Li354 1.990 . S
N399 C396 1.314 . S
N399 C397 1.279 . S
C400 C397 1.358 . S
C400 C401 1.356 . S
C400 H437 0.930 . S
C401 C398 1.348 . S
C401 C400 1.356 . S
H402 C396 0.930 . S
H403 C397 0.930 . S
C404 N405 1.322 . S
C404 C406 1.363 . S
C404 H410 0.911 1_556 S
N405 Li355 1.990 1_556 S
N405 C404 1.322 . S
N405 C408 1.279 . S
C406 C404 1.363 . S
C406 C409 1.348 . S
C406 H438 0.929 . S
C407 C408 1.358 . S
C407 C409 1.356 . S
C407 H439 0.930 . S
C408 N405 1.279 . S
C408 C407 1.358 . S
C408 H411 0.930 . S
C409 C406 1.348 . S
C409 C407 1.356 . S
H410 C404 0.911 1_554 S
H411 C408 0.930 . S
O412 Li352 1.956 . S
O412 Li353 1.970 . S
O412 Li354 1.961 1_554 S
O412 C356 1.325 . S
O413 Li352 1.970 . S
O413 Li353 1.956 . S
O413 Li355 1.961 . S
O413 C362 1.325 . S
O414 Li352 1.961 1_556 S
O414 Li354 1.956 . S
O414 Li355 1.970 1_556 S
O414 C384 1.325 . S
O415 Li353 1.961 . S
O415 Li354 1.970 1_554 S
O415 Li355 1.956 . S
O415 C390 1.325 1_554 S
H416 C358 0.929 . S
H417 C359 0.930 . S
H418 C360 0.930 . S
H419 C361 0.930 . S
H420 C363 0.930 . S
H421 C365 0.929 . S
H422 C366 0.930 . S
H423 C367 0.930 . S
H424 C370 0.930 . S
H425 C373 0.929 . S
H426 C378 0.929 . S
H427 C379 0.930 . S
H428 C386 0.929 . S
H429 C387 0.930 . S
H430 C388 0.930 . S
H431 C389 0.930 . S
H432 C391 0.929 . S
H433 C392 0.930 . S
H434 C393 0.930 . S
H435 C394 0.942 . S
H436 C398 0.929 . S
H437 C400 0.930 . S
H438 C406 0.929 . S
H439 C407 0.930 . S
Li440 N457 1.990 . S
Li440 O500 1.956 . S
Li440 O501 1.970 1_565 S
Li440 O502 1.961 1_554 S
Li441 N465 1.990 . S
Li441 O500 1.970 1_545 S
Li441 O501 1.956 . S
Li441 O503 1.961 . S
Li442 N487 1.990 . S
Li442 O500 1.961 1_556 S
Li442 O502 1.956 . S
Li442 O503 1.970 1_566 S
Li443 N493 1.997 . S
Li443 O501 1.961 . S
Li443 O502 1.970 1_544 S
Li443 O503 1.956 . S
C444 C446 1.348 . S
C444 C447 1.356 . S
C444 O500 1.325 . S
N445 C448 1.314 . S
N445 C449 1.279 . S
C446 C444 1.348 . S
C446 C448 1.353 . S
C446 H504 0.929 . S
C447 C444 1.356 . S
C447 C449 1.358 . S
C447 H505 0.902 1_554 S
C448 N445 1.314 . S
C448 C446 1.353 . S
C448 H506 0.930 . S
C449 N445 1.279 . S
C449 C447 1.358 . S
C449 H507 0.930 . S
C450 C453 1.348 1_545 S
C450 C454 1.356 . S
C450 O501 1.325 . S
C451 N452 1.279 . S
C451 C454 1.358 . S
C451 H508 0.930 . S
N452 C451 1.279 . S
N452 C455 1.314 . S
C453 C450 1.348 1_565 S
C453 C455 1.353 1_565 S
C453 H509 0.929 . S
C454 C450 1.356 . S
C454 C451 1.358 . S
C454 H510 0.930 . S
C455 N452 1.314 . S
C455 C453 1.353 1_545 S
C455 H511 0.930 1_545 S
C456 N457 1.314 . S
C456 C461 1.353 . S
C456 H462 0.930 . S
N457 Li440 1.990 . S
N457 C456 1.314 . S
N457 C459 1.279 . S
C458 C459 1.358 . S
C458 C460 1.356 . S
C458 H512 0.930 . S
C459 N457 1.279 . S
C459 C458 1.358 . S
C459 H463 0.930 . S
C460 C458 1.356 . S
C460 C461 1.348 . S
C461 C456 1.353 . S
C461 C460 1.348 . S
C461 H513 0.929 . S
H462 C456 0.930 . S
H463 C459 0.930 . S
C464 N465 1.314 . S
C464 C466 1.353 . S
C464 H470 0.930 . S
N465 Li441 1.990 . S
N465 C464 1.314 . S
N465 C468 1.279 . S
C466 C464 1.353 . S
C466 C469 1.348 . S
C466 H514 0.929 . S
C467 C468 1.358 . S
C467 C469 1.356 . S
C467 H515 0.930 . S
C468 N465 1.279 . S
C468 C467 1.358 . S
C468 H471 0.930 . S
C469 C466 1.348 . S
C469 C467 1.356 . S
H470 C464 0.930 . S
H471 C468 0.930 . S
C472 C474 1.348 1_565 S
C472 C475 1.356 . S
C472 O502 1.325 . S
N473 C476 1.314 . S
N473 C477 1.279 . S
C474 C472 1.348 1_545 S
C474 C476 1.353 1_545 S
C474 H516 0.929 . S
C475 C472 1.356 . S
C475 C477 1.358 . S
C475 H517 0.930 . S
C476 N473 1.314 . S
C476 C474 1.353 1_565 S
C476 H518 0.930 1_565 S
C477 N473 1.279 . S
C477 C475 1.358 . S
C477 H519 0.930 . S
C478 C479 1.348 1_554 S
C478 C480 1.356 . S
C478 O503 1.325 . S
C479 C478 1.348 1_556 S
C479 C481 1.353 . S
C479 H520 0.929 . S
C480 C478 1.356 . S
C480 C482 1.358 . S
C480 H521 0.930 . S
C481 C479 1.353 . S
C481 N483 1.314 . S
C481 H522 0.930 . S
C482 C480 1.358 . S
C482 N483 1.279 1_554 S
C482 H523 0.930 . S
N483 C481 1.314 . S
N483 C482 1.279 1_556 S
C484 C486 1.353 . S
C484 N487 1.314 . S
C484 H490 0.930 . S
C485 N487 1.279 . S
C485 C488 1.358 . S
C485 H491 0.930 . S
C486 C484 1.353 . S
C486 C489 1.348 . S
C486 H524 0.929 . S
N487 Li442 1.990 . S
N487 C484 1.314 . S
N487 C485 1.279 . S
C488 C485 1.358 . S
C488 C489 1.356 . S
C488 H525 0.930 . S
C489 C486 1.348 . S
C489 C488 1.356 . S
H490 C484 0.930 . S
H491 C485 0.930 . S
C492 N493 1.321 . S
C492 C494 1.354 . S
C492 H498 0.930 . S
N493 Li443 1.997 . S
N493 C492 1.321 . S
N493 C496 1.264 1_554 S
C494 C492 1.354 . S
C494 C497 1.345 1_554 S
C494 H526 0.931 . S
C495 C496 1.358 . S
C495 C497 1.356 . S
C495 H527 0.930 . S
C496 N493 1.264 1_556 S
C496 C495 1.358 . S
C496 H499 0.930 . S
C497 C494 1.345 1_556 S
C497 C495 1.356 . S
H498 C492 0.930 . S
H499 C496 0.930 . S
O500 Li440 1.956 . S
O500 Li441 1.970 1_565 S
O500 Li442 1.961 1_554 S
O500 C444 1.325 . S
O501 Li440 1.970 1_545 S
O501 Li441 1.956 . S
O501 Li443 1.961 . S
O501 C450 1.325 . S
O502 Li440 1.961 1_556 S
O502 Li442 1.956 . S
O502 Li443 1.970 1_566 S
O502 C472 1.325 . S
O503 Li441 1.961 . S
O503 Li442 1.970 1_544 S
O503 Li443 1.956 . S
O503 C478 1.325 . S
H504 C446 0.929 . S
H505 C447 0.902 1_556 S
H506 C448 0.930 . S
H507 C449 0.930 . S
H508 C451 0.930 . S
H509 C453 0.929 . S
H510 C454 0.930 . S
H511 C455 0.930 1_565 S
H512 C458 0.930 . S
H513 C461 0.929 . S
H514 C466 0.929 . S
H515 C467 0.930 . S
H516 C474 0.929 . S
H517 C475 0.930 . S
H518 C476 0.930 1_545 S
H519 C477 0.930 . S
H520 C479 0.929 . S
H521 C480 0.930 . S
H522 C481 0.930 . S
H523 C482 0.930 . S
H524 C486 0.929 . S
H525 C488 0.930 . S
H526 C494 0.931 . S
H527 C495 0.930 . S
Li528 N545 1.990 . S
Li528 O588 1.956 . S
Li528 O589 1.970 . S
Li528 O590 1.961 . S
Li529 N553 1.990 . S
Li529 O588 1.970 . S
Li529 O589 1.956 . S
Li529 O591 1.961 . S
Li530 N575 1.990 . S
Li530 O588 1.961 . S
Li530 O590 1.956 . S
Li530 O591 1.970 . S
Li531 N581 1.990 . S
Li531 O589 1.961 . S
Li531 O590 1.970 . S
Li531 O591 1.956 . S
C532 C534 1.348 . S
C532 C535 1.356 . S
C532 O588 1.325 . S
N533 C536 1.314 . S
N533 C537 1.279 . S
C534 C532 1.348 . S
C534 C536 1.353 . S
C534 H592 0.929 . S
C535 C532 1.356 . S
C535 C537 1.358 . S
C535 H593 0.930 . S
C536 N533 1.314 . S
C536 C534 1.353 . S
C536 H594 0.930 . S
C537 N533 1.279 . S
C537 C535 1.358 . S
C537 H595 0.930 . S
C538 C541 1.348 . S
C538 C542 1.356 . S
C538 O589 1.325 . S
C539 N540 1.279 . S
C539 C542 1.358 . S
C539 H596 0.930 . S
N540 C539 1.279 . S
N540 C543 1.314 . S
C541 C538 1.348 . S
C541 C543 1.353 . S
C541 H597 0.929 . S
C542 C538 1.356 . S
C542 C539 1.358 . S
C542 H598 0.930 . S
C543 N540 1.314 . S
C543 C541 1.353 . S
C543 H599 0.930 . S
C544 N545 1.314 . S
C544 C549 1.353 . S
C544 H550 0.930 . S
N545 Li528 1.990 . S
N545 C544 1.314 . S
N545 C547 1.279 . S
C546 C547 1.358 . S
C546 C548 1.356 . S
C546 H600 0.930 . S
C547 N545 1.279 . S
C547 C546 1.358 . S
C547 H551 0.930 . S
C548 C546 1.356 . S
C548 C549 1.348 . S
C549 C544 1.353 . S
C549 C548 1.348 . S
C549 H601 0.929 . S
H550 C544 0.930 . S
H551 C547 0.930 . S
C552 N553 1.314 . S
C552 C554 1.353 . S
C552 H558 0.930 . S
N553 Li529 1.990 . S
N553 C552 1.314 . S
N553 C556 1.279 . S
C554 C552 1.353 . S
C554 C557 1.348 . S
C554 H602 0.929 . S
C555 C556 1.358 . S
C555 C557 1.356 . S
C555 H603 0.930 . S
C556 N553 1.279 . S
C556 C555 1.358 . S
C556 H559 0.930 . S
C557 C554 1.348 . S
C557 C555 1.356 . S
H558 C552 0.930 . S
H559 C556 0.930 . S
C560 C562 1.348 . S
C560 C563 1.356 . S
C560 O590 1.325 . S
N561 C564 1.314 . S
N561 C565 1.279 . S
C562 C560 1.348 . S
C562 C564 1.353 . S
C562 H604 0.929 . S
C563 C560 1.356 . S
C563 C565 1.358 . S
C563 H605 0.930 . S
C564 N561 1.314 . S
C564 C562 1.353 . S
C564 H606 0.930 . S
C565 N561 1.279 . S
C565 C563 1.358 . S
C565 H607 0.930 . S
C566 C567 1.348 . S
C566 C568 1.356 . S
C566 O591 1.325 . S
C567 C566 1.348 . S
C567 C569 1.353 . S
C567 H608 0.929 . S
C568 C566 1.356 . S
C568 C570 1.358 . S
C568 H609 0.930 . S
C569 C567 1.353 . S
C569 N571 1.314 . S
C569 H610 0.930 . S
C570 C568 1.358 . S
C570 N571 1.279 . S
C570 H611 0.930 . S
N571 C569 1.314 . S
N571 C570 1.279 . S
C572 C574 1.353 . S
C572 N575 1.314 . S
C572 H578 0.930 . S
C573 N575 1.279 . S
C573 C576 1.358 . S
C573 H579 0.930 . S
C574 C572 1.353 . S
C574 C577 1.348 . S
C574 H612 0.929 . S
N575 Li530 1.990 . S
N575 C572 1.314 . S
N575 C573 1.279 . S
C576 C573 1.358 . S
C576 C577 1.356 . S
C576 H613 0.930 . S
C577 C574 1.348 . S
C577 C576 1.356 . S
H578 C572 0.930 . S
H579 C573 0.930 . S
C580 N581 1.314 . S
C580 C582 1.353 . S
C580 H586 0.930 . S
N581 Li531 1.990 . S
N581 C580 1.314 . S
N581 C584 1.279 . S
C582 C580 1.353 . S
C582 C585 1.348 . S
C582 H614 0.929 . S
C583 C584 1.358 . S
C583 C585 1.356 . S
C583 H615 0.930 . S
C584 N581 1.279 . S
C584 C583 1.358 . S
C584 H587 0.930 . S
C585 C582 1.348 . S
C585 C583 1.356 . S
H586 C580 0.930 . S
H587 C584 0.930 . S
O588 Li528 1.956 . S
O588 Li529 1.970 . S
O588 Li530 1.961 . S
O588 C532 1.325 . S
O589 Li528 1.970 . S
O589 Li529 1.956 . S
O589 Li531 1.961 . S
O589 C538 1.325 . S
O590 Li528 1.961 . S
O590 Li530 1.956 . S
O590 Li531 1.970 . S
O590 C560 1.325 . S
O591 Li529 1.961 . S
O591 Li530 1.970 . S
O591 Li531 1.956 . S
O591 C566 1.325 . S
H592 C534 0.929 . S
H593 C535 0.930 . S
H594 C536 0.930 . S
H595 C537 0.930 . S
H596 C539 0.930 . S
H597 C541 0.929 . S
H598 C542 0.930 . S
H599 C543 0.930 . S
H600 C546 0.930 . S
H601 C549 0.929 . S
H602 C554 0.929 . S
H603 C555 0.930 . S
H604 C562 0.929 . S
H605 C563 0.930 . S
H606 C564 0.930 . S
H607 C565 0.930 . S
H608 C567 0.929 . S
H609 C568 0.930 . S
H610 C569 0.930 . S
H611 C570 0.930 . S
H612 C574 0.929 . S
H613 C576 0.930 . S
H614 C582 0.929 . S
H615 C583 0.930 . S
Li616 N633 1.990 . S
Li616 O676 1.956 . S
Li616 O677 1.970 . S
Li616 O678 1.961 . S
Li617 N641 1.990 . S
Li617 O676 1.970 . S
Li617 O677 1.956 . S
Li617 O679 1.961 . S
Li618 N663 1.990 1_565 S
Li618 O676 1.961 . S
Li618 O678 1.956 . S
Li618 O679 1.970 . S
Li619 N669 1.990 . S
Li619 O677 1.961 . S
Li619 O678 1.970 . S
Li619 O679 1.956 . S
C620 C622 1.348 . S
C620 C623 1.356 . S
C620 O676 1.325 . S
N621 C624 1.314 . S
N621 C625 1.279 . S
C622 C620 1.348 . S
C622 C624 1.353 . S
C622 H680 0.929 . S
C623 C620 1.356 . S
C623 C625 1.358 . S
C623 H681 0.930 . S
C624 N621 1.314 . S
C624 C622 1.353 . S
C624 H682 0.930 . S
C625 N621 1.279 . S
C625 C623 1.358 . S
C625 H683 0.930 . S
C626 C629 1.348 . S
C626 C630 1.356 . S
C626 O677 1.325 . S
C627 N628 1.279 . S
C627 C630 1.358 . S
C627 H684 0.930 . S
N628 C627 1.279 . S
N628 C631 1.314 . S
C629 C626 1.348 . S
C629 C631 1.353 . S
C629 H685 0.929 . S
C630 C626 1.356 . S
C630 C627 1.358 . S
C630 H686 0.930 . S
C631 N628 1.314 . S
C631 C629 1.353 . S
C631 H687 0.930 . S
C632 N633 1.314 . S
C632 C637 1.353 . S
C632 H638 0.930 . S
N633 Li616 1.990 . S
N633 C632 1.314 . S
N633 C635 1.279 . S
C634 C635 1.358 . S
C634 C636 1.356 . S
C634 H688 0.930 . S
C635 N633 1.279 . S
C635 C634 1.358 . S
C635 H639 0.930 . S
C636 C634 1.356 . S
C636 C637 1.348 . S
C637 C632 1.353 . S
C637 C636 1.348 . S
C637 H689 0.929 . S
H638 C632 0.930 . S
H639 C635 0.930 . S
C640 N641 1.314 . S
C640 C642 1.353 . S
C640 H646 0.930 . S
N641 Li617 1.990 . S
N641 C640 1.314 . S
N641 C644 1.279 . S
C642 C640 1.353 . S
C642 C645 1.348 . S
C642 H690 0.929 . S
C643 C644 1.358 . S
C643 C645 1.356 . S
C643 H691 0.930 . S
C644 N641 1.279 . S
C644 C643 1.358 . S
C644 H647 0.930 . S
C645 C642 1.348 . S
C645 C643 1.356 . S
H646 C640 0.930 . S
H647 C644 0.930 . S
C648 C650 1.348 . S
C648 C651 1.350 . S
C648 O678 1.330 1_545 S
N649 C652 1.314 . S
N649 C653 1.279 . S
C650 C648 1.348 . S
C650 C652 1.353 . S
C650 H692 0.929 . S
C651 C648 1.350 . S
C651 C653 1.358 . S
C651 H693 0.930 . S
C652 N649 1.314 . S
C652 C650 1.353 . S
C652 H694 0.930 . S
C653 N649 1.279 . S
C653 C651 1.358 . S
C653 H695 0.930 . S
C654 C655 1.348 1_565 S
C654 C656 1.356 . S
C654 O679 1.325 . S
C655 C654 1.348 1_545 S
C655 C657 1.353 . S
C655 H696 0.929 . S
C656 C654 1.356 . S
C656 C658 1.358 . S
C656 H697 0.930 . S
C657 C655 1.353 . S
C657 N659 1.314 1_545 S
C657 H698 0.930 . S
C658 C656 1.358 . S
C658 N659 1.279 . S
C658 H699 0.930 . S
N659 C657 1.314 1_565 S
N659 C658 1.279 . S
C660 C662 1.353 . S
C660 N663 1.314 . S
C660 H666 0.930 . S
C661 N663 1.279 . S
C661 C664 1.358 . S
C661 H667 0.930 . S
C662 C660 1.353 . S
C662 C665 1.348 . S
C662 H700 0.929 . S
N663 Li618 1.990 1_545 S
N663 C660 1.314 . S
N663 C661 1.279 . S
C664 C661 1.358 . S
C664 C665 1.356 . S
C664 H701 0.930 . S
C665 C662 1.348 . S
C665 C664 1.356 . S
H666 C660 0.930 . S
H667 C661 0.930 . S
C668 N669 1.314 . S
C668 C670 1.353 . S
C668 H674 0.930 . S
N669 Li619 1.990 . S
N669 C668 1.314 . S
N669 C672 1.279 . S
C670 C668 1.353 . S
C670 C673 1.348 . S
C670 H702 0.929 . S
C671 C672 1.358 . S
C671 C673 1.356 . S
C671 H703 0.930 . S
C672 N669 1.279 . S
C672 C671 1.358 . S
C672 H675 0.930 . S
C673 C670 1.348 . S
C673 C671 1.356 . S
H674 C668 0.930 . S
H675 C672 0.930 . S
O676 Li616 1.956 . S
O676 Li617 1.970 . S
O676 Li618 1.961 . S
O676 C620 1.325 . S
O677 Li616 1.970 . S
O677 Li617 1.956 . S
O677 Li619 1.961 . S
O677 C626 1.325 . S
O678 Li616 1.961 . S
O678 Li618 1.956 . S
O678 Li619 1.970 . S
O678 C648 1.330 1_565 S
O679 Li617 1.961 . S
O679 Li618 1.970 . S
O679 Li619 1.956 . S
O679 C654 1.325 . S
H680 C622 0.929 . S
H681 C623 0.930 . S
H682 C624 0.930 . S
H683 C625 0.930 . S
H684 C627 0.930 . S
H685 C629 0.929 . S
H686 C630 0.930 . S
H687 C631 0.930 . S
H688 C634 0.930 . S
H689 C637 0.929 . S
H690 C642 0.929 . S
H691 C643 0.930 . S
H692 C650 0.929 . S
H693 C651 0.930 . S
H694 C652 0.930 . S
H695 C653 0.930 . S
H696 C655 0.929 . S
H697 C656 0.930 . S
H698 C657 0.930 . S
H699 C658 0.930 . S
H700 C662 0.929 . S
H701 C664 0.930 . S
H702 C670 0.929 . S
H703 C671 0.930 . S
Li704 N721 1.990 . S
Li704 O764 1.956 . S
Li704 O765 1.970 . S
Li704 O766 1.961 . S
Li705 N729 1.990 . S
Li705 O764 1.970 . S
Li705 O765 1.956 . S
Li705 O767 1.961 . S
Li706 N751 1.990 1_455 S
Li706 O764 1.961 . S
Li706 O766 1.956 . S
Li706 O767 1.970 . S
Li707 N757 1.990 . S
Li707 O765 1.961 . S
Li707 O766 1.970 . S
Li707 O767 1.956 . S
C708 C710 1.348 . S
C708 C711 1.356 . S
C708 O764 1.325 . S
N709 C712 1.314 . S
N709 C713 1.279 . S
C710 C708 1.348 . S
C710 C712 1.353 . S
C710 H768 0.929 . S
C711 C708 1.356 . S
C711 C713 1.358 . S
C711 H769 0.930 . S
C712 N709 1.314 . S
C712 C710 1.353 . S
C712 H770 0.930 . S
C713 N709 1.279 . S
C713 C711 1.358 . S
C713 H771 0.930 . S
C714 C717 1.348 . S
C714 C718 1.356 . S
C714 O765 1.325 . S
C715 N716 1.279 . S
C715 C718 1.358 . S
C715 H772 0.930 . S
N716 C715 1.279 . S
N716 C719 1.314 . S
C717 C714 1.348 . S
C717 C719 1.353 . S
C717 H773 0.929 . S
C718 C714 1.356 . S
C718 C715 1.358 . S
C718 H774 0.930 . S
C719 N716 1.314 . S
C719 C717 1.353 . S
C719 H775 0.930 . S
C720 N721 1.314 . S
C720 C725 1.353 . S
C720 H726 0.930 . S
N721 Li704 1.990 . S
N721 C720 1.314 . S
N721 C723 1.279 . S
C722 C723 1.358 . S
C722 C724 1.356 . S
C722 H776 0.930 . S
C723 N721 1.279 . S
C723 C722 1.358 . S
C723 H727 0.930 . S
C724 C722 1.356 . S
C724 C725 1.348 . S
C725 C720 1.353 . S
C725 C724 1.348 . S
C725 H777 0.929 . S
H726 C720 0.930 . S
H727 C723 0.930 . S
C728 N729 1.314 . S
C728 C730 1.353 . S
C728 H734 0.930 . S
N729 Li705 1.990 . S
N729 C728 1.314 . S
N729 C732 1.279 . S
C730 C728 1.353 . S
C730 C733 1.348 . S
C730 H778 0.929 . S
C731 C732 1.358 . S
C731 C733 1.356 . S
C731 H779 0.930 . S
C732 N729 1.279 . S
C732 C731 1.358 . S
C732 H735 0.930 . S
C733 C730 1.348 . S
C733 C731 1.356 . S
H734 C728 0.930 . S
H735 C732 0.930 . S
C736 C738 1.348 1_455 S
C736 C739 1.356 1_455 S
C736 O766 1.325 . S
N737 C740 1.314 . S
N737 C741 1.279 . S
C738 C736 1.348 1_655 S
C738 C740 1.353 . S
C738 H780 0.929 . S
C739 C736 1.356 1_655 S
C739 C741 1.358 . S
C739 H781 0.876 1_655 S
C740 N737 1.314 . S
C740 C738 1.353 . S
C740 H782 0.930 . S
C741 N737 1.279 . S
C741 C739 1.358 . S
C741 H783 0.930 . S
C742 C743 1.273 1_455 S
C742 C744 1.356 . S
C742 O767 1.325 . S
C743 C742 1.273 1_655 S
C743 C745 1.401 . S
C743 H784 0.962 . S
C744 C742 1.356 . S
C744 C746 1.358 . S
C744 H785 0.930 . S
C745 C743 1.401 . S
C745 N747 1.314 1_655 S
C745 H786 0.930 . S
C746 C744 1.358 . S
C746 N747 1.279 . S
C746 H787 0.930 . S
N747 C745 1.314 1_455 S
N747 C746 1.279 . S
C748 C750 1.353 . S
C748 N751 1.314 . S
C748 H754 0.930 . S
C749 N751 1.279 . S
C749 C752 1.358 . S
C749 H755 0.930 . S
C750 C748 1.353 . S
C750 C753 1.348 . S
C750 H788 0.929 . S
N751 Li706 1.990 1_655 S
N751 C748 1.314 . S
N751 C749 1.279 . S
C752 C749 1.358 . S
C752 C753 1.356 . S
C752 H789 0.930 . S
C753 C750 1.348 . S
C753 C752 1.356 . S
H754 C748 0.930 . S
H755 C749 0.930 . S
C756 N757 1.314 . S
C756 C758 1.353 . S
C756 H762 0.930 . S
N757 Li707 1.990 . S
N757 C756 1.314 . S
N757 C760 1.279 . S
C758 C756 1.353 . S
C758 C761 1.348 . S
C758 H790 0.929 . S
C759 C760 1.358 . S
C759 C761 1.356 . S
C759 H791 0.930 . S
C760 N757 1.279 . S
C760 C759 1.358 . S
C760 H763 0.930 . S
C761 C758 1.348 . S
C761 C759 1.356 . S
H762 C756 0.930 . S
H763 C760 0.930 . S
O764 Li704 1.956 . S
O764 Li705 1.970 . S
O764 Li706 1.961 . S
O764 C708 1.325 . S
O765 Li704 1.970 . S
O765 Li705 1.956 . S
O765 Li707 1.961 . S
O765 C714 1.325 . S
O766 Li704 1.961 . S
O766 Li706 1.956 . S
O766 Li707 1.970 . S
O766 C736 1.325 . S
O767 Li705 1.961 . S
O767 Li706 1.970 . S
O767 Li707 1.956 . S
O767 C742 1.325 . S
H768 C710 0.929 . S
H769 C711 0.930 . S
H770 C712 0.930 . S
H771 C713 0.930 . S
H772 C715 0.930 . S
H773 C717 0.929 . S
H774 C718 0.930 . S
H775 C719 0.930 . S
H776 C722 0.930 . S
H777 C725 0.929 . S
H778 C730 0.929 . S
H779 C731 0.930 . S
H780 C738 0.929 . S
H781 C739 0.876 1_455 S
H782 C740 0.930 . S
H783 C741 0.930 . S
H784 C743 0.962 . S
H785 C744 0.930 . S
H786 C745 0.930 . S
H787 C746 0.930 . S
H788 C750 0.929 . S
H789 C752 0.930 . S
H790 C758 0.929 . S
H791 C759 0.930 . S
Li792 N809 1.990 1_565 S
Li792 O852 1.956 . S
Li792 O853 1.970 . S
Li792 O854 1.961 . S
Li793 N817 1.990 . S
Li793 O852 1.970 . S
Li793 O853 1.956 . S
Li793 O855 1.961 . S
Li794 N839 1.990 . S
Li794 O852 1.961 . S
Li794 O854 1.956 . S
Li794 O855 1.970 . S
Li795 N845 1.990 . S
Li795 O853 1.961 . S
Li795 O854 1.970 . S
Li795 O855 1.956 . S
C796 C798 1.348 . S
C796 C799 1.356 . S
C796 O852 1.325 . S
N797 C800 1.314 . S
N797 C801 1.279 . S
C798 C796 1.348 . S
C798 C800 1.353 . S
C798 H856 0.929 . S
C799 C796 1.356 . S
C799 C801 1.358 . S
C799 H857 0.930 . S
C800 N797 1.314 . S
C800 C798 1.353 . S
C800 H858 0.930 . S
C801 N797 1.279 . S
C801 C799 1.358 . S
C801 H859 0.930 . S
C802 C805 1.348 . S
C802 C806 1.356 . S
C802 O853 1.325 . S
C803 N804 1.279 . S
C803 C806 1.358 . S
C803 H860 0.930 . S
N804 C803 1.279 . S
N804 C807 1.314 1_565 S
C805 C802 1.348 . S
C805 C807 1.353 1_565 S
C805 H861 0.929 1_565 S
C806 C802 1.356 . S
C806 C803 1.358 . S
C806 H862 0.930 . S
C807 N804 1.314 1_545 S
C807 C805 1.353 1_545 S
C807 H863 0.930 . S
C808 N809 1.314 . S
C808 C813 1.353 . S
C808 H814 0.930 . S
N809 Li792 1.990 1_545 S
N809 C808 1.314 . S
N809 C811 1.279 . S
C810 C811 1.358 . S
C810 C812 1.356 . S
C810 H864 0.930 . S
C811 N809 1.279 . S
C811 C810 1.358 . S
C811 H815 0.930 . S
C812 C810 1.356 . S
C812 C813 1.348 . S
C813 C808 1.353 . S
C813 C812 1.348 . S
C813 H865 0.929 . S
H814 C808 0.930 . S
H815 C811 0.930 . S
C816 N817 1.314 . S
C816 C818 1.353 . S
C816 H822 0.930 . S
N817 Li793 1.990 . S
N817 C816 1.314 . S
N817 C820 1.279 . S
C818 C816 1.353 . S
C818 C821 1.348 . S
C818 H866 0.929 . S
C819 C820 1.358 . S
C819 C821 1.356 . S
C819 H867 0.930 . S
C820 N817 1.279 . S
C820 C819 1.358 . S
C820 H823 0.930 . S
C821 C818 1.348 . S
C821 C819 1.356 . S
H822 C816 0.930 . S
H823 C820 0.930 . S
C824 C826 1.394 . S
C824 C827 1.356 1_565 S
C824 O854 1.325 . S
N825 C828 1.314 . S
N825 C829 1.279 . S
C826 C824 1.394 . S
C826 C828 1.297 1_565 S
C826 H868 0.952 . S
C827 C824 1.356 1_545 S
C827 C829 1.358 . S
C827 H869 0.930 . S
C828 N825 1.314 . S
C828 C826 1.297 1_545 S
C828 H870 0.930 . S
C829 N825 1.279 . S
C829 C827 1.358 . S
C829 H871 0.930 . S
C830 C831 1.348 . S
C830 C832 1.356 . S
C830 O855 1.325 . S
C831 C830 1.348 . S
C831 C833 1.353 . S
C831 H872 0.929 . S
C832 C830 1.356 . S
C832 C834 1.358 . S
C832 H873 0.930 . S
C833 C831 1.353 . S
C833 N835 1.314 . S
C833 H874 0.930 . S
C834 C832 1.358 . S
C834 N835 1.279 . S
C834 H875 0.930 . S
N835 C833 1.314 . S
N835 C834 1.279 . S
C836 C838 1.353 . S
C836 N839 1.314 . S
C836 H842 0.930 . S
C837 N839 1.279 . S
C837 C840 1.358 . S
C837 H843 0.930 . S
C838 C836 1.353 . S
C838 C841 1.348 . S
C838 H876 0.929 . S
N839 Li794 1.990 . S
N839 C836 1.314 . S
N839 C837 1.279 . S
C840 C837 1.358 . S
C840 C841 1.356 . S
C840 H877 0.930 . S
C841 C838 1.348 . S
C841 C840 1.356 . S
H842 C836 0.930 . S
H843 C837 0.930 . S
C844 N845 1.314 . S
C844 C846 1.353 . S
C844 H850 0.930 . S
N845 Li795 1.990 . S
N845 C844 1.314 . S
N845 C848 1.279 . S
C846 C844 1.353 . S
C846 C849 1.348 . S
C846 H878 0.953 . S
C847 C848 1.358 . S
C847 C849 1.356 . S
C847 H879 0.930 . S
C848 N845 1.279 . S
C848 C847 1.358 . S
C848 H851 0.930 . S
C849 C846 1.348 . S
C849 C847 1.356 . S
H850 C844 0.930 . S
H851 C848 0.930 . S
O852 Li792 1.956 . S
O852 Li793 1.970 . S
O852 Li794 1.961 . S
O852 C796 1.325 . S
O853 Li792 1.970 . S
O853 Li793 1.956 . S
O853 Li795 1.961 . S
O853 C802 1.325 . S
O854 Li792 1.961 . S
O854 Li794 1.956 . S
O854 Li795 1.970 . S
O854 C824 1.325 . S
O855 Li793 1.961 . S
O855 Li794 1.970 . S
O855 Li795 1.956 . S
O855 C830 1.325 . S
H856 C798 0.929 . S
H857 C799 0.930 . S
H858 C800 0.930 . S
H859 C801 0.930 . S
H860 C803 0.930 . S
H861 C805 0.929 1_545 S
H862 C806 0.930 . S
H863 C807 0.930 . S
H864 C810 0.930 . S
H865 C813 0.929 . S
H866 C818 0.929 . S
H867 C819 0.930 . S
H868 C826 0.952 . S
H869 C827 0.930 . S
H870 C828 0.930 . S
H871 C829 0.930 . S
H872 C831 0.929 . S
H873 C832 0.930 . S
H874 C833 0.930 . S
H875 C834 0.930 . S
H876 C838 0.929 . S
H877 C840 0.930 . S
H878 C846 0.953 . S
H879 C847 0.930 . S
Li880 N897 1.990 . S
Li880 O940 1.956 . S
Li880 O941 1.970 . S
Li880 O942 1.961 . S
Li881 N905 1.990 1_455 S
Li881 O940 1.970 . S
Li881 O941 1.956 . S
Li881 O943 1.961 . S
Li882 N927 1.990 . S
Li882 O940 1.961 . S
Li882 O942 1.956 . S
Li882 O943 1.970 . S
Li883 N933 1.990 . S
Li883 O941 1.961 . S
Li883 O942 1.970 . S
Li883 O943 1.956 . S
C884 C886 1.348 . S
C884 C887 1.356 . S
C884 O940 1.325 . S
N885 C888 1.314 1_455 S
N885 C889 1.279 . S
C886 C884 1.348 . S
C886 C888 1.353 1_455 S
C886 H944 0.929 1_455 S
C887 C884 1.356 . S
C887 C889 1.358 . S
C887 H945 0.930 . S
C888 N885 1.314 1_655 S
C888 C886 1.353 1_655 S
C888 H946 0.930 . S
C889 N885 1.279 . S
C889 C887 1.358 . S
C889 H947 0.930 . S
C890 C893 1.348 . S
C890 C894 1.356 . S
C890 O941 1.325 . S
C891 N892 1.279 . S
C891 C894 1.358 . S
C891 H948 0.930 . S
N892 C891 1.279 . S
N892 C895 1.314 . S
C893 C890 1.348 . S
C893 C895 1.353 . S
C893 H949 0.929 . S
C894 C890 1.356 . S
C894 C891 1.358 . S
C894 H950 0.930 . S
C895 N892 1.314 . S
C895 C893 1.353 . S
C895 H951 0.930 . S
C896 N897 1.314 . S
C896 C901 1.353 . S
C896 H902 0.930 . S
N897 Li880 1.990 . S
N897 C896 1.314 . S
N897 C899 1.279 . S
C898 C899 1.358 . S
C898 C900 1.356 . S
C898 H952 0.930 . S
C899 N897 1.279 . S
C899 C898 1.358 . S
C899 H903 0.930 . S
C900 C898 1.356 . S
C900 C901 1.348 . S
C901 C896 1.353 . S
C901 C900 1.348 . S
C901 H953 0.929 . S
H902 C896 0.930 . S
H903 C899 0.930 . S
C904 N905 1.314 . S
C904 C906 1.353 . S
C904 H910 0.930 . S
N905 Li881 1.990 1_655 S
N905 C904 1.314 . S
N905 C908 1.279 . S
C906 C904 1.353 . S
C906 C909 1.348 . S
C906 H954 0.929 . S
C907 C908 1.358 . S
C907 C909 1.356 . S
C907 H955 0.930 . S
C908 N905 1.279 . S
C908 C907 1.358 . S
C908 H911 0.930 . S
C909 C906 1.348 . S
C909 C907 1.356 . S
H910 C904 0.930 . S
H911 C908 0.930 . S
C912 C914 1.348 . S
C912 C915 1.356 . S
C912 O942 1.325 . S
N913 C916 1.314 . S
N913 C917 1.279 . S
C914 C912 1.348 . S
C914 C916 1.353 . S
C914 H956 0.929 . S
C915 C912 1.356 . S
C915 C917 1.358 . S
C915 H957 0.930 . S
C916 N913 1.314 . S
C916 C914 1.353 . S
C916 H958 0.930 . S
C917 N913 1.279 . S
C917 C915 1.358 . S
C917 H959 0.930 . S
C918 C919 1.362 . S
C918 C920 1.274 1_455 S
C918 O943 1.377 . S
C919 C918 1.362 . S
C919 C921 1.324 1_455 S
C919 H960 0.976 . S
C920 C918 1.274 1_655 S
C920 C922 1.358 . S
C920 H961 0.930 . S
C921 C919 1.324 1_655 S
C921 N923 1.314 . S
C921 H962 0.930 . S
C922 C920 1.358 . S
C922 N923 1.279 . S
C922 H963 0.930 . S
N923 C921 1.314 . S
N923 C922 1.279 . S
C924 C926 1.353 . S
C924 N927 1.314 . S
C924 H930 0.930 . S
C925 N927 1.279 . S
C925 C928 1.358 . S
C925 H931 0.930 . S
C926 C924 1.353 . S
C926 C929 1.348 . S
C926 H964 0.930 1_455 S
N927 Li882 1.990 . S
N927 C924 1.314 . S
N927 C925 1.279 . S
C928 C925 1.358 . S
C928 C929 1.356 . S
C928 H965 0.930 . S
C929 C926 1.348 . S
C929 C928 1.356 . S
H930 C924 0.930 . S
H931 C925 0.930 . S
C932 N933 1.314 . S
C932 C934 1.353 . S
C932 H938 0.930 . S
N933 Li883 1.990 . S
N933 C932 1.314 . S
N933 C936 1.279 . S
C934 C932 1.353 . S
C934 C937 1.348 . S
C934 H966 0.929 . S
C935 C936 1.358 . S
C935 C937 1.356 . S
C935 H967 0.930 . S
C936 N933 1.279 . S
C936 C935 1.358 . S
C936 H939 0.930 . S
C937 C934 1.348 . S
C937 C935 1.356 . S
H938 C932 0.930 . S
H939 C936 0.930 . S
O940 Li880 1.956 . S
O940 Li881 1.970 . S
O940 Li882 1.961 . S
O940 C884 1.325 . S
O941 Li880 1.970 . S
O941 Li881 1.956 . S
O941 Li883 1.961 . S
O941 C890 1.325 . S
O942 Li880 1.961 . S
O942 Li882 1.956 . S
O942 Li883 1.970 . S
O942 C912 1.325 . S
O943 Li881 1.961 . S
O943 Li882 1.970 . S
O943 Li883 1.956 . S
O943 C918 1.377 . S
H944 C886 0.929 1_655 S
H945 C887 0.930 . S
H946 C888 0.930 . S
H947 C889 0.930 . S
H948 C891 0.930 . S
H949 C893 0.929 . S
H950 C894 0.930 . S
H951 C895 0.930 . S
H952 C898 0.930 . S
H953 C901 0.929 . S
H954 C906 0.929 . S
H955 C907 0.930 . S
H956 C914 0.929 . S
H957 C915 0.930 . S
H958 C916 0.930 . S
H959 C917 0.930 . S
H960 C919 0.976 . S
H961 C920 0.930 . S
H962 C921 0.930 . S
H963 C922 0.930 . S
H964 C926 0.930 1_655 S
H965 C928 0.930 . S
H966 C934 0.929 . S
H967 C935 0.930 . S
Li968 N985 1.990 . S
Li968 O1028 1.956 . S
Li968 O1029 1.970 . S
Li968 O1030 1.961 . S
Li969 N993 1.990 . S
Li969 O1028 1.970 . S
Li969 O1029 1.956 . S
Li969 O1031 1.961 . S
Li970 N1015 1.990 . S
Li970 O1028 1.961 . S
Li970 O1030 1.956 . S
Li970 O1031 1.970 . S
Li971 N1021 1.990 . S
Li971 O1029 1.961 . S
Li971 O1030 1.970 . S
Li971 O1031 1.956 . S
C972 C974 1.348 . S
C972 C975 1.356 . S
C972 O1028 1.325 . S
N973 C976 1.314 . S
N973 C977 1.279 . S
C974 C972 1.348 . S
C974 C976 1.353 . S
C974 H1032 0.929 . S
C975 C972 1.356 . S
C975 C977 1.358 . S
C975 H1033 0.930 . S
C976 N973 1.314 . S
C976 C974 1.353 . S
C976 H1034 0.930 . S
C977 N973 1.279 . S
C977 C975 1.358 . S
C977 H1035 0.930 . S
C978 C981 1.348 . S
C978 C982 1.356 . S
C978 O1029 1.325 . S
C979 N980 1.279 . S
C979 C982 1.358 . S
C979 H1036 0.930 . S
N980 C979 1.279 . S
N980 C983 1.314 . S
C981 C978 1.348 . S
C981 C983 1.353 . S
C981 H1037 0.929 . S
C982 C978 1.356 . S
C982 C979 1.358 . S
C982 H1038 0.930 . S
C983 N980 1.314 . S
C983 C981 1.353 . S
C983 H1039 0.930 . S
C984 N985 1.314 . S
C984 C989 1.353 . S
C984 H990 0.930 . S
N985 Li968 1.990 . S
N985 C984 1.314 . S
N985 C987 1.279 . S
C986 C987 1.358 . S
C986 C988 1.356 . S
C986 H1040 0.930 . S
C987 N985 1.279 . S
C987 C986 1.358 . S
C987 H991 0.930 . S
C988 C986 1.356 . S
C988 C989 1.348 . S
C989 C984 1.353 . S
C989 C988 1.348 . S
C989 H1041 0.929 . S
H990 C984 0.930 . S
H991 C987 0.930 . S
C992 N993 1.314 . S
C992 C994 1.353 . S
C992 H998 0.930 . S
N993 Li969 1.990 . S
N993 C992 1.314 . S
N993 C996 1.279 . S
C994 C992 1.353 . S
C994 C997 1.348 . S
C994 H1042 0.929 . S
C995 C996 1.358 . S
C995 C997 1.356 . S
C995 H1043 0.930 . S
C996 N993 1.279 . S
C996 C995 1.358 . S
C996 H999 0.930 . S
C997 C994 1.348 . S
C997 C995 1.356 . S
H998 C992 0.930 . S
H999 C996 0.930 . S
C1000 C1002 1.348 . S
C1000 C1003 1.356 . S
C1000 O1030 1.325 . S
N1001 C1004 1.314 . S
N1001 C1005 1.279 . S
C1002 C1000 1.348 . S
C1002 C1004 1.353 . S
C1002 H1044 0.929 . S
C1003 C1000 1.356 . S
C1003 C1005 1.358 . S
C1003 H1045 0.930 . S
C1004 N1001 1.314 . S
C1004 C1002 1.353 . S
C1004 H1046 0.930 . S
C1005 N1001 1.279 . S
C1005 C1003 1.358 . S
C1005 H1047 0.930 . S
C1006 C1007 1.348 . S
C1006 C1008 1.356 . S
C1006 O1031 1.325 . S
C1007 C1006 1.348 . S
C1007 C1009 1.353 . S
C1007 H1048 0.929 . S
C1008 C1006 1.356 . S
C1008 C1010 1.358 . S
C1008 H1049 0.930 . S
C1009 C1007 1.353 . S
C1009 N1011 1.314 . S
C1009 H1050 0.930 . S
C1010 C1008 1.358 . S
C1010 N1011 1.279 . S
C1010 H1051 0.930 . S
N1011 C1009 1.314 . S
N1011 C1010 1.279 . S
C1012 C1014 1.353 . S
C1012 N1015 1.314 . S
C1012 H1018 0.930 . S
C1013 N1015 1.279 . S
C1013 C1016 1.358 . S
C1013 H1019 0.930 . S
C1014 C1012 1.353 . S
C1014 C1017 1.348 . S
C1014 H1052 0.929 . S
N1015 Li970 1.990 . S
N1015 C1012 1.314 . S
N1015 C1013 1.279 . S
C1016 C1013 1.358 . S
C1016 C1017 1.356 . S
C1016 H1053 0.930 . S
C1017 C1014 1.348 . S
C1017 C1016 1.356 . S
H1018 C1012 0.930 . S
H1019 C1013 0.930 . S
C1020 N1021 1.314 . S
C1020 C1022 1.353 . S
C1020 H1026 0.930 . S
N1021 Li971 1.990 . S
N1021 C1020 1.314 . S
N1021 C1024 1.279 . S
C1022 C1020 1.353 . S
C1022 C1025 1.348 . S
C1022 H1054 0.929 . S
C1023 C1024 1.358 . S
C1023 C1025 1.356 . S
C1023 H1055 0.930 . S
C1024 N1021 1.279 . S
C1024 C1023 1.358 . S
C1024 H1027 0.930 . S
C1025 C1022 1.348 . S
C1025 C1023 1.356 . S
H1026 C1020 0.930 . S
H1027 C1024 0.930 . S
O1028 Li968 1.956 . S
O1028 Li969 1.970 . S
O1028 Li970 1.961 . S
O1028 C972 1.325 . S
O1029 Li968 1.970 . S
O1029 Li969 1.956 . S
O1029 Li971 1.961 . S
O1029 C978 1.325 . S
O1030 Li968 1.961 . S
O1030 Li970 1.956 . S
O1030 Li971 1.970 . S
O1030 C1000 1.325 . S
O1031 Li969 1.961 . S
O1031 Li970 1.970 . S
O1031 Li971 1.956 . S
O1031 C1006 1.325 . S
H1032 C974 0.929 . S
H1033 C975 0.930 . S
H1034 C976 0.930 . S
H1035 C977 0.930 . S
H1036 C979 0.930 . S
H1037 C981 0.929 . S
H1038 C982 0.930 . S
H1039 C983 0.930 . S
H1040 C986 0.930 . S
H1041 C989 0.929 . S
H1042 C994 0.929 . S
H1043 C995 0.930 . S
H1044 C1002 0.929 . S
H1045 C1003 0.930 . S
H1046 C1004 0.930 . S
H1047 C1005 0.930 . S
H1048 C1007 0.929 . S
H1049 C1008 0.930 . S
H1050 C1009 0.930 . S
H1051 C1010 0.930 . S
H1052 C1014 0.929 . S
H1053 C1016 0.930 . S
H1054 C1022 0.929 . S
H1055 C1023 0.930 . S
Li1056 N1073 1.990 1_545 S
Li1056 O1116 1.956 . S
Li1056 O1117 1.970 . S
Li1056 O1118 1.961 . S
Li1057 N1081 1.990 . S
Li1057 O1116 1.970 . S
Li1057 O1117 1.956 . S
Li1057 O1119 1.961 . S
Li1058 N1103 1.990 . S
Li1058 O1116 1.961 . S
Li1058 O1118 1.956 . S
Li1058 O1119 1.970 . S
Li1059 N1109 1.990 . S
Li1059 O1117 1.961 . S
Li1059 O1118 1.970 . S
Li1059 O1119 1.956 . S
C1060 C1062 1.348 1_545 S
C1060 C1063 1.356 1_545 S
C1060 O1116 1.325 . S
N1061 C1064 1.314 . S
N1061 C1065 1.279 . S
C1062 C1060 1.348 1_565 S
C1062 C1064 1.353 . S
C1062 H1120 0.929 . S
C1063 C1060 1.356 1_565 S
C1063 C1065 1.358 . S
C1063 H1121 0.886 1_565 S
C1064 N1061 1.314 . S
C1064 C1062 1.353 . S
C1064 H1122 0.930 . S
C1065 N1061 1.279 . S
C1065 C1063 1.358 . S
C1065 H1123 0.930 . S
C1066 C1069 1.262 1_545 S
C1066 C1070 1.356 . S
C1066 O1117 1.325 . S
C1067 N1068 1.279 . S
C1067 C1070 1.358 . S
C1067 H1124 0.930 . S
N1068 C1067 1.279 . S
N1068 C1071 1.314 1_545 S
C1069 C1066 1.262 1_565 S
C1069 C1071 1.409 . S
C1069 H1125 0.967 . S
C1070 C1066 1.356 . S
C1070 C1067 1.358 . S
C1070 H1126 0.930 . S
C1071 N1068 1.314 1_565 S
C1071 C1069 1.409 . S
C1071 H1127 0.930 . S
C1072 N1073 1.314 . S
C1072 C1077 1.353 . S
C1072 H1078 0.930 . S
N1073 Li1056 1.990 1_565 S
N1073 C1072 1.314 . S
N1073 C1075 1.279 . S
C1074 C1075 1.358 . S
C1074 C1076 1.356 . S
C1074 H1128 0.930 . S
C1075 N1073 1.279 . S
C1075 C1074 1.358 . S
C1075 H1079 0.930 . S
C1076 C1074 1.356 . S
C1076 C1077 1.348 . S
C1077 C1072 1.353 . S
C1077 C1076 1.348 . S
C1077 H1129 0.929 . S
H1078 C1072 0.930 . S
H1079 C1075 0.930 . S
C1080 N1081 1.314 . S
C1080 C1082 1.353 . S
C1080 H1086 0.930 . S
N1081 Li1057 1.990 . S
N1081 C1080 1.314 . S
N1081 C1084 1.279 . S
C1082 C1080 1.353 . S
C1082 C1085 1.348 . S
C1082 H1130 0.929 . S
C1083 C1084 1.358 . S
C1083 C1085 1.356 . S
C1083 H1131 0.930 . S
C1084 N1081 1.279 . S
C1084 C1083 1.358 . S
C1084 H1087 0.930 . S
C1085 C1082 1.348 . S
C1085 C1083 1.356 . S
H1086 C1080 0.930 . S
H1087 C1084 0.930 . S
C1088 C1090 1.348 . S
C1088 C1091 1.356 . S
C1088 O1118 1.325 . S
N1089 C1092 1.314 . S
N1089 C1093 1.279 . S
C1090 C1088 1.348 . S
C1090 C1092 1.353 . S
C1090 H1132 0.929 . S
C1091 C1088 1.356 . S
C1091 C1093 1.358 . S
C1091 H1133 0.930 . S
C1092 N1089 1.314 . S
C1092 C1090 1.353 . S
C1092 H1134 0.930 . S
C1093 N1089 1.279 . S
C1093 C1091 1.358 . S
C1093 H1135 0.930 . S
C1094 C1095 1.348 . S
C1094 C1096 1.356 . S
C1094 O1119 1.325 . S
C1095 C1094 1.348 . S
C1095 C1097 1.353 . S
C1095 H1136 0.929 . S
C1096 C1094 1.356 . S
C1096 C1098 1.358 . S
C1096 H1137 0.930 . S
C1097 C1095 1.353 . S
C1097 N1099 1.314 . S
C1097 H1138 0.930 . S
C1098 C1096 1.358 . S
C1098 N1099 1.279 . S
C1098 H1139 0.930 . S
N1099 C1097 1.314 . S
N1099 C1098 1.279 . S
C1100 C1102 1.353 . S
C1100 N1103 1.314 . S
C1100 H1106 0.930 . S
C1101 N1103 1.279 . S
C1101 C1104 1.358 . S
C1101 H1107 0.930 . S
C1102 C1100 1.353 . S
C1102 C1105 1.348 . S
C1102 H1140 0.929 . S
N1103 Li1058 1.990 . S
N1103 C1100 1.314 . S
N1103 C1101 1.279 . S
C1104 C1101 1.358 . S
C1104 C1105 1.356 . S
C1104 H1141 0.930 . S
C1105 C1102 1.348 . S
C1105 C1104 1.356 . S
H1106 C1100 0.930 . S
H1107 C1101 0.930 . S
C1108 N1109 1.314 . S
C1108 C1110 1.353 . S
C1108 H1114 0.930 . S
N1109 Li1059 1.990 . S
N1109 C1108 1.314 . S
N1109 C1112 1.279 . S
C1110 C1108 1.353 . S
C1110 C1113 1.348 . S
C1110 H1142 0.929 . S
C1111 C1112 1.358 . S
C1111 C1113 1.356 . S
C1111 H1143 0.930 . S
C1112 N1109 1.279 . S
C1112 C1111 1.358 . S
C1112 H1115 0.930 . S
C1113 C1110 1.348 . S
C1113 C1111 1.356 . S
H1114 C1108 0.930 . S
H1115 C1112 0.930 . S
O1116 Li1056 1.956 . S
O1116 Li1057 1.970 . S
O1116 Li1058 1.961 . S
O1116 C1060 1.325 . S
O1117 Li1056 1.970 . S
O1117 Li1057 1.956 . S
O1117 Li1059 1.961 . S
O1117 C1066 1.325 . S
O1118 Li1056 1.961 . S
O1118 Li1058 1.956 . S
O1118 Li1059 1.970 . S
O1118 C1088 1.325 . S
O1119 Li1057 1.961 . S
O1119 Li1058 1.970 . S
O1119 Li1059 1.956 . S
O1119 C1094 1.325 . S
H1120 C1062 0.929 . S
H1121 C1063 0.886 1_545 S
H1122 C1064 0.930 . S
H1123 C1065 0.930 . S
H1124 C1067 0.930 . S
H1125 C1069 0.967 . S
H1126 C1070 0.930 . S
H1127 C1071 0.930 . S
H1128 C1074 0.930 . S
H1129 C1077 0.929 . S
H1130 C1082 0.929 . S
H1131 C1083 0.930 . S
H1132 C1090 0.929 . S
H1133 C1091 0.930 . S
H1134 C1092 0.930 . S
H1135 C1093 0.930 . S
H1136 C1095 0.929 . S
H1137 C1096 0.930 . S
H1138 C1097 0.930 . S
H1139 C1098 0.930 . S
H1140 C1102 0.929 . S
H1141 C1104 0.930 . S
H1142 C1110 0.929 . S
H1143 C1111 0.930 . S
Li1144 N1161 1.990 1_655 S
Li1144 O1204 1.956 . S
Li1144 O1205 1.970 . S
Li1144 O1206 1.961 . S
Li1145 N1169 1.990 . S
Li1145 O1204 1.970 . S
Li1145 O1205 1.956 . S
Li1145 O1207 1.961 . S
Li1146 N1191 1.990 . S
Li1146 O1204 1.961 . S
Li1146 O1206 1.956 . S
Li1146 O1207 1.970 . S
Li1147 N1197 1.990 . S
Li1147 O1205 1.961 . S
Li1147 O1206 1.970 . S
Li1147 O1207 1.956 . S
C1148 C1150 1.348 . S
C1148 C1151 1.349 . S
C1148 O1204 1.331 1_455 S
N1149 C1152 1.314 . S
N1149 C1153 1.279 . S
C1150 C1148 1.348 . S
C1150 C1152 1.353 . S
C1150 H1208 0.929 . S
C1151 C1148 1.349 . S
C1151 C1153 1.358 . S
C1151 H1209 0.930 . S
C1152 N1149 1.314 . S
C1152 C1150 1.353 . S
C1152 H1210 0.930 . S
C1153 N1149 1.279 . S
C1153 C1151 1.358 . S
C1153 H1211 0.930 . S
C1154 C1157 1.348 1_655 S
C1154 C1158 1.356 . S
C1154 O1205 1.325 . S
C1155 N1156 1.279 . S
C1155 C1158 1.358 . S
C1155 H1212 0.930 . S
N1156 C1155 1.279 . S
N1156 C1159 1.314 1_655 S
C1157 C1154 1.348 1_455 S
C1157 C1159 1.353 . S
C1157 H1213 0.929 . S
C1158 C1154 1.356 . S
C1158 C1155 1.358 . S
C1158 H1214 0.930 . S
C1159 N1156 1.314 1_455 S
C1159 C1157 1.353 . S
C1159 H1215 0.930 . S
C1160 N1161 1.314 . S
C1160 C1165 1.353 . S
C1160 H1166 0.930 . S
N1161 Li1144 1.990 1_455 S
N1161 C1160 1.314 . S
N1161 C1163 1.279 . S
C1162 C1163 1.358 . S
C1162 C1164 1.356 . S
C1162 H1216 0.930 . S
C1163 N1161 1.279 . S
C1163 C1162 1.358 . S
C1163 H1167 0.930 . S
C1164 C1162 1.356 . S
C1164 C1165 1.348 . S
C1165 C1160 1.353 . S
C1165 C1164 1.348 . S
C1165 H1217 0.929 . S
H1166 C1160 0.930 . S
H1167 C1163 0.930 . S
C1168 N1169 1.314 . S
C1168 C1170 1.353 . S
C1168 H1174 0.930 . S
N1169 Li1145 1.990 . S
N1169 C1168 1.314 . S
N1169 C1172 1.279 . S
C1170 C1168 1.353 . S
C1170 C1173 1.348 . S
C1170 H1218 0.929 . S
C1171 C1172 1.358 . S
C1171 C1173 1.356 . S
C1171 H1219 0.930 . S
C1172 N1169 1.279 . S
C1172 C1171 1.358 . S
C1172 H1175 0.930 . S
C1173 C1170 1.348 . S
C1173 C1171 1.356 . S
H1174 C1168 0.930 . S
H1175 C1172 0.930 . S
C1176 C1178 1.348 . S
C1176 C1179 1.356 . S
C1176 O1206 1.325 . S
N1177 C1180 1.314 . S
N1177 C1181 1.279 . S
C1178 C1176 1.348 . S
C1178 C1180 1.353 . S
C1178 H1220 0.929 . S
C1179 C1176 1.356 . S
C1179 C1181 1.358 . S
C1179 H1221 0.930 . S
C1180 N1177 1.314 . S
C1180 C1178 1.353 . S
C1180 H1222 0.930 . S
C1181 N1177 1.279 . S
C1181 C1179 1.358 . S
C1181 H1223 0.930 . S
C1182 C1183 1.348 . S
C1182 C1184 1.356 . S
C1182 O1207 1.325 . S
C1183 C1182 1.348 . S
C1183 C1185 1.353 . S
C1183 H1224 0.929 . S
C1184 C1182 1.356 . S
C1184 C1186 1.358 . S
C1184 H1225 0.930 . S
C1185 C1183 1.353 . S
C1185 N1187 1.314 . S
C1185 H1226 0.930 . S
C1186 C1184 1.358 . S
C1186 N1187 1.279 . S
C1186 H1227 0.930 . S
N1187 C1185 1.314 . S
N1187 C1186 1.279 . S
C1188 C1190 1.353 . S
C1188 N1191 1.314 . S
C1188 H1194 0.930 . S
C1189 N1191 1.279 . S
C1189 C1192 1.358 . S
C1189 H1195 0.930 . S
C1190 C1188 1.353 . S
C1190 C1193 1.348 . S
C1190 H1228 0.929 . S
N1191 Li1146 1.990 . S
N1191 C1188 1.314 . S
N1191 C1189 1.279 . S
C1192 C1189 1.358 . S
C1192 C1193 1.356 . S
C1192 H1229 0.930 . S
C1193 C1190 1.348 . S
C1193 C1192 1.356 . S
H1194 C1188 0.930 . S
H1195 C1189 0.930 . S
C1196 N1197 1.314 . S
C1196 C1198 1.353 . S
C1196 H1202 0.930 . S
N1197 Li1147 1.990 . S
N1197 C1196 1.314 . S
N1197 C1200 1.279 . S
C1198 C1196 1.353 . S
C1198 C1201 1.348 . S
C1198 H1230 0.929 . S
C1199 C1200 1.358 . S
C1199 C1201 1.356 . S
C1199 H1231 0.930 . S
C1200 N1197 1.279 . S
C1200 C1199 1.358 . S
C1200 H1203 0.930 . S
C1201 C1198 1.348 . S
C1201 C1199 1.356 . S
H1202 C1196 0.930 . S
H1203 C1200 0.930 . S
O1204 Li1144 1.956 . S
O1204 Li1145 1.970 . S
O1204 Li1146 1.961 . S
O1204 C1148 1.331 1_655 S
O1205 Li1144 1.970 . S
O1205 Li1145 1.956 . S
O1205 Li1147 1.961 . S
O1205 C1154 1.325 . S
O1206 Li1144 1.961 . S
O1206 Li1146 1.956 . S
O1206 Li1147 1.970 . S
O1206 C1176 1.325 . S
O1207 Li1145 1.961 . S
O1207 Li1146 1.970 . S
O1207 Li1147 1.956 . S
O1207 C1182 1.325 . S
H1208 C1150 0.929 . S
H1209 C1151 0.930 . S
H1210 C1152 0.930 . S
H1211 C1153 0.930 . S
H1212 C1155 0.930 . S
H1213 C1157 0.929 . S
H1214 C1158 0.930 . S
H1215 C1159 0.930 . S
H1216 C1162 0.930 . S
H1217 C1165 0.929 . S
H1218 C1170 0.929 . S
H1219 C1171 0.930 . S
H1220 C1178 0.929 . S
H1221 C1179 0.930 . S
H1222 C1180 0.930 . S
H1223 C1181 0.930 . S
H1224 C1183 0.929 . S
H1225 C1184 0.930 . S
H1226 C1185 0.930 . S
H1227 C1186 0.930 . S
H1228 C1190 0.929 . S
H1229 C1192 0.930 . S
H1230 C1198 0.929 . S
H1231 C1199 0.930 . S
Li1232 N1249 1.990 . S
Li1232 O1292 1.956 . S
Li1232 O1293 1.970 . S
Li1232 O1294 1.961 . S
Li1233 N1257 1.990 . S
Li1233 O1292 1.970 . S
Li1233 O1293 1.956 . S
Li1233 O1295 1.961 . S
Li1234 N1279 1.990 . S
Li1234 O1292 1.961 . S
Li1234 O1294 1.956 . S
Li1234 O1295 1.970 . S
Li1235 N1285 1.990 . S
Li1235 O1293 1.961 . S
Li1235 O1294 1.970 . S
Li1235 O1295 1.956 . S
C1236 C1238 1.348 . S
C1236 C1239 1.356 . S
C1236 O1292 1.325 . S
N1237 C1240 1.314 . S
N1237 C1241 1.279 . S
C1238 C1236 1.348 . S
C1238 C1240 1.353 . S
C1238 H1296 0.929 . S
C1239 C1236 1.356 . S
C1239 C1241 1.358 . S
C1239 H1297 0.930 . S
C1240 N1237 1.314 . S
C1240 C1238 1.353 . S
C1240 H1298 0.930 . S
C1241 N1237 1.279 . S
C1241 C1239 1.358 . S
C1241 H1299 0.930 . S
C1242 C1245 1.348 . S
C1242 C1246 1.356 . S
C1242 O1293 1.325 . S
C1243 N1244 1.279 . S
C1243 C1246 1.358 . S
C1243 H1300 0.930 . S
N1244 C1243 1.279 . S
N1244 C1247 1.314 . S
C1245 C1242 1.348 . S
C1245 C1247 1.353 . S
C1245 H1301 0.929 . S
C1246 C1242 1.356 . S
C1246 C1243 1.358 . S
C1246 H1302 0.930 . S
C1247 N1244 1.314 . S
C1247 C1245 1.353 . S
C1247 H1303 0.930 . S
C1248 N1249 1.314 . S
C1248 C1253 1.353 . S
C1248 H1254 0.930 . S
N1249 Li1232 1.990 . S
N1249 C1248 1.314 . S
N1249 C1251 1.279 . S
C1250 C1251 1.358 . S
C1250 C1252 1.356 . S
C1250 H1304 0.930 . S
C1251 N1249 1.279 . S
C1251 C1250 1.358 . S
C1251 H1255 0.930 . S
C1252 C1250 1.356 . S
C1252 C1253 1.348 . S
C1253 C1248 1.353 . S
C1253 C1252 1.348 . S
C1253 H1305 0.929 . S
H1254 C1248 0.930 . S
H1255 C1251 0.930 . S
C1256 N1257 1.314 . S
C1256 C1258 1.353 . S
C1256 H1262 0.930 . S
N1257 Li1233 1.990 . S
N1257 C1256 1.314 . S
N1257 C1260 1.279 . S
C1258 C1256 1.353 . S
C1258 C1261 1.348 . S
C1258 H1306 0.929 . S
C1259 C1260 1.358 . S
C1259 C1261 1.356 . S
C1259 H1307 0.930 . S
C1260 N1257 1.279 . S
C1260 C1259 1.358 . S
C1260 H1263 0.930 . S
C1261 C1258 1.348 . S
C1261 C1259 1.356 . S
H1262 C1256 0.930 . S
H1263 C1260 0.930 . S
C1264 C1266 1.348 . S
C1264 C1267 1.356 . S
C1264 O1294 1.325 . S
N1265 C1268 1.314 . S
N1265 C1269 1.279 . S
C1266 C1264 1.348 . S
C1266 C1268 1.353 . S
C1266 H1308 0.929 . S
C1267 C1264 1.356 . S
C1267 C1269 1.358 . S
C1267 H1309 0.930 . S
C1268 N1265 1.314 . S
C1268 C1266 1.353 . S
C1268 H1310 0.930 . S
C1269 N1265 1.279 . S
C1269 C1267 1.358 . S
C1269 H1311 0.930 . S
C1270 C1271 1.348 . S
C1270 C1272 1.356 . S
C1270 O1295 1.325 . S
C1271 C1270 1.348 . S
C1271 C1273 1.353 . S
C1271 H1312 0.929 . S
C1272 C1270 1.356 . S
C1272 C1274 1.358 . S
C1272 H1313 0.930 . S
C1273 C1271 1.353 . S
C1273 N1275 1.314 . S
C1273 H1314 0.930 . S
C1274 C1272 1.358 . S
C1274 N1275 1.279 . S
C1274 H1315 0.930 . S
N1275 C1273 1.314 . S
N1275 C1274 1.279 . S
C1276 C1278 1.353 . S
C1276 N1279 1.314 . S
C1276 H1282 0.930 . S
C1277 N1279 1.279 . S
C1277 C1280 1.358 . S
C1277 H1283 0.930 . S
C1278 C1276 1.353 . S
C1278 C1281 1.348 . S
C1278 H1316 0.929 . S
N1279 Li1234 1.990 . S
N1279 C1276 1.314 . S
N1279 C1277 1.279 . S
C1280 C1277 1.358 . S
C1280 C1281 1.356 . S
C1280 H1317 0.930 . S
C1281 C1278 1.348 . S
C1281 C1280 1.356 . S
H1282 C1276 0.930 . S
H1283 C1277 0.930 . S
C1284 N1285 1.314 . S
C1284 C1286 1.353 . S
C1284 H1290 0.930 . S
N1285 Li1235 1.990 . S
N1285 C1284 1.314 . S
N1285 C1288 1.279 . S
C1286 C1284 1.353 . S
C1286 C1289 1.348 . S
C1286 H1318 0.929 . S
C1287 C1288 1.358 . S
C1287 C1289 1.356 . S
C1287 H1319 0.930 . S
C1288 N1285 1.279 . S
C1288 C1287 1.358 . S
C1288 H1291 0.930 . S
C1289 C1286 1.348 . S
C1289 C1287 1.356 . S
H1290 C1284 0.930 . S
H1291 C1288 0.930 . S
O1292 Li1232 1.956 . S
O1292 Li1233 1.970 . S
O1292 Li1234 1.961 . S
O1292 C1236 1.325 . S
O1293 Li1232 1.970 . S
O1293 Li1233 1.956 . S
O1293 Li1235 1.961 . S
O1293 C1242 1.325 . S
O1294 Li1232 1.961 . S
O1294 Li1234 1.956 . S
O1294 Li1235 1.970 . S
O1294 C1264 1.325 . S
O1295 Li1233 1.961 . S
O1295 Li1234 1.970 . S
O1295 Li1235 1.956 . S
O1295 C1270 1.325 . S
H1296 C1238 0.929 . S
H1297 C1239 0.930 . S
H1298 C1240 0.930 . S
H1299 C1241 0.930 . S
H1300 C1243 0.930 . S
H1301 C1245 0.929 . S
H1302 C1246 0.930 . S
H1303 C1247 0.930 . S
H1304 C1250 0.930 . S
H1305 C1253 0.929 . S
H1306 C1258 0.929 . S
H1307 C1259 0.930 . S
H1308 C1266 0.929 . S
H1309 C1267 0.930 . S
H1310 C1268 0.930 . S
H1311 C1269 0.930 . S
H1312 C1271 0.929 . S
H1313 C1272 0.930 . S
H1314 C1273 0.930 . S
H1315 C1274 0.930 . S
H1316 C1278 0.929 . S
H1317 C1280 0.930 . S
H1318 C1286 0.929 . S
H1319 C1287 0.930 . S
Li1320 N1337 1.990 . S
Li1320 O1380 1.956 . S
Li1320 O1381 1.970 . S
Li1320 O1382 1.961 . S
Li1321 N1345 1.990 . S
Li1321 O1380 1.970 . S
Li1321 O1381 1.956 . S
Li1321 O1383 1.961 . S
Li1322 N1367 1.990 . S
Li1322 O1380 1.961 . S
Li1322 O1382 1.956 . S
Li1322 O1383 1.970 . S
Li1323 N1373 1.990 . S
Li1323 O1381 1.961 . S
Li1323 O1382 1.970 . S
Li1323 O1383 1.956 . S
C1324 C1326 1.348 . S
C1324 C1327 1.356 . S
C1324 O1380 1.325 . S
N1325 C1328 1.314 . S
N1325 C1329 1.279 . S
C1326 C1324 1.348 . S
C1326 C1328 1.353 . S
C1326 H1384 0.929 . S
C1327 C1324 1.356 . S
C1327 C1329 1.358 . S
C1327 H1385 0.930 . S
C1328 N1325 1.314 . S
C1328 C1326 1.353 . S
C1328 H1386 0.930 . S
C1329 N1325 1.279 . S
C1329 C1327 1.358 . S
C1329 H1387 0.930 . S
C1330 C1333 1.348 . S
C1330 C1334 1.356 . S
C1330 O1381 1.325 . S
C1331 N1332 1.279 . S
C1331 C1334 1.358 . S
C1331 H1388 0.930 . S
N1332 C1331 1.279 . S
N1332 C1335 1.314 . S
C1333 C1330 1.348 . S
C1333 C1335 1.353 . S
C1333 H1389 0.929 . S
C1334 C1330 1.356 . S
C1334 C1331 1.358 . S
C1334 H1390 0.930 . S
C1335 N1332 1.314 . S
C1335 C1333 1.353 . S
C1335 H1391 0.930 . S
C1336 N1337 1.314 . S
C1336 C1341 1.353 . S
C1336 H1342 0.930 . S
N1337 Li1320 1.990 . S
N1337 C1336 1.314 . S
N1337 C1339 1.279 . S
C1338 C1339 1.358 . S
C1338 C1340 1.356 . S
C1338 H1392 0.930 . S
C1339 N1337 1.279 . S
C1339 C1338 1.358 . S
C1339 H1343 0.930 . S
C1340 C1338 1.356 . S
C1340 C1341 1.348 . S
C1341 C1336 1.353 . S
C1341 C1340 1.348 . S
C1341 H1393 0.929 . S
H1342 C1336 0.930 . S
H1343 C1339 0.930 . S
C1344 N1345 1.314 . S
C1344 C1346 1.353 . S
C1344 H1350 0.930 . S
N1345 Li1321 1.990 . S
N1345 C1344 1.314 . S
N1345 C1348 1.279 . S
C1346 C1344 1.353 . S
C1346 C1349 1.348 . S
C1346 H1394 0.929 . S
C1347 C1348 1.358 . S
C1347 C1349 1.356 . S
C1347 H1395 0.930 . S
C1348 N1345 1.279 . S
C1348 C1347 1.358 . S
C1348 H1351 0.930 . S
C1349 C1346 1.348 . S
C1349 C1347 1.356 . S
H1350 C1344 0.930 . S
H1351 C1348 0.930 . S
C1352 C1354 1.348 . S
C1352 C1355 1.356 . S
C1352 O1382 1.325 . S
N1353 C1356 1.314 . S
N1353 C1357 1.279 . S
C1354 C1352 1.348 . S
C1354 C1356 1.353 . S
C1354 H1396 0.929 . S
C1355 C1352 1.356 . S
C1355 C1357 1.358 . S
C1355 H1397 0.930 . S
C1356 N1353 1.314 . S
C1356 C1354 1.353 . S
C1356 H1398 0.930 . S
C1357 N1353 1.279 . S
C1357 C1355 1.358 . S
C1357 H1399 0.930 . S
C1358 C1359 1.348 . S
C1358 C1360 1.356 . S
C1358 O1383 1.325 . S
C1359 C1358 1.348 . S
C1359 C1361 1.353 . S
C1359 H1400 0.929 . S
C1360 C1358 1.356 . S
C1360 C1362 1.358 . S
C1360 H1401 0.930 . S
C1361 C1359 1.353 . S
C1361 N1363 1.314 . S
C1361 H1402 0.930 . S
C1362 C1360 1.358 . S
C1362 N1363 1.279 . S
C1362 H1403 0.930 . S
N1363 C1361 1.314 . S
N1363 C1362 1.279 . S
C1364 C1366 1.353 . S
C1364 N1367 1.314 . S
C1364 H1370 0.930 . S
C1365 N1367 1.279 . S
C1365 C1368 1.358 . S
C1365 H1371 0.930 . S
C1366 C1364 1.353 . S
C1366 C1369 1.348 . S
C1366 H1404 0.929 . S
N1367 Li1322 1.990 . S
N1367 C1364 1.314 . S
N1367 C1365 1.279 . S
C1368 C1365 1.358 . S
C1368 C1369 1.356 . S
C1368 H1405 0.930 . S
C1369 C1366 1.348 . S
C1369 C1368 1.356 . S
H1370 C1364 0.930 . S
H1371 C1365 0.930 . S
C1372 N1373 1.314 . S
C1372 C1374 1.353 . S
C1372 H1378 0.930 . S
N1373 Li1323 1.990 . S
N1373 C1372 1.314 . S
N1373 C1376 1.279 . S
C1374 C1372 1.353 . S
C1374 C1377 1.348 . S
C1374 H1406 0.929 . S
C1375 C1376 1.358 . S
C1375 C1377 1.356 . S
C1375 H1407 0.930 . S
C1376 N1373 1.279 . S
C1376 C1375 1.358 . S
C1376 H1379 0.930 . S
C1377 C1374 1.348 . S
C1377 C1375 1.356 . S
H1378 C1372 0.930 . S
H1379 C1376 0.930 . S
O1380 Li1320 1.956 . S
O1380 Li1321 1.970 . S
O1380 Li1322 1.961 . S
O1380 C1324 1.325 . S
O1381 Li1320 1.970 . S
O1381 Li1321 1.956 . S
O1381 Li1323 1.961 . S
O1381 C1330 1.325 . S
O1382 Li1320 1.961 . S
O1382 Li1322 1.956 . S
O1382 Li1323 1.970 . S
O1382 C1352 1.325 . S
O1383 Li1321 1.961 . S
O1383 Li1322 1.970 . S
O1383 Li1323 1.956 . S
O1383 C1358 1.325 . S
H1384 C1326 0.929 . S
H1385 C1327 0.930 . S
H1386 C1328 0.930 . S
H1387 C1329 0.930 . S
H1388 C1331 0.930 . S
H1389 C1333 0.929 . S
H1390 C1334 0.930 . S
H1391 C1335 0.930 . S
H1392 C1338 0.930 . S
H1393 C1341 0.929 . S
H1394 C1346 0.929 . S
H1395 C1347 0.930 . S
H1396 C1354 0.929 . S
H1397 C1355 0.930 . S
H1398 C1356 0.930 . S
H1399 C1357 0.930 . S
H1400 C1359 0.929 . S
H1401 C1360 0.930 . S
H1402 C1361 0.930 . S
H1403 C1362 0.930 . S
H1404 C1366 0.929 . S
H1405 C1368 0.930 . S
H1406 C1374 0.929 . S
H1407 C1375 0.930 . S
Li1408 N1425 1.990 . S
Li1408 O1468 1.956 . S
Li1408 O1469 1.970 . S
Li1408 O1470 1.961 . S
Li1409 N1433 1.990 . S
Li1409 O1468 1.970 . S
Li1409 O1469 1.956 . S
Li1409 O1471 1.961 . S
Li1410 N1455 1.990 . S
Li1410 O1468 1.961 . S
Li1410 O1470 1.956 . S
Li1410 O1471 1.970 . S
Li1411 N1461 1.990 1_545 S
Li1411 O1469 1.961 . S
Li1411 O1470 1.970 . S
Li1411 O1471 1.956 . S
C1412 C1414 1.348 . S
C1412 C1415 1.356 . S
C1412 O1468 1.325 . S
N1413 C1416 1.314 . S
N1413 C1417 1.279 . S
C1414 C1412 1.348 . S
C1414 C1416 1.353 . S
C1414 H1472 0.929 . S
C1415 C1412 1.356 . S
C1415 C1417 1.358 . S
C1415 H1473 0.930 . S
C1416 N1413 1.314 . S
C1416 C1414 1.353 . S
C1416 H1474 0.930 . S
C1417 N1413 1.279 . S
C1417 C1415 1.358 . S
C1417 H1475 0.930 . S
C1418 C1421 1.362 . S
C1418 C1422 1.275 1_545 S
C1418 O1469 1.376 . S
C1419 N1420 1.279 . S
C1419 C1422 1.358 . S
C1419 H1476 0.930 . S
N1420 C1419 1.279 . S
N1420 C1423 1.314 . S
C1421 C1418 1.362 . S
C1421 C1423 1.325 1_545 S
C1421 H1477 0.975 . S
C1422 C1418 1.275 1_565 S
C1422 C1419 1.358 . S
C1422 H1478 0.930 . S
C1423 N1420 1.314 . S
C1423 C1421 1.325 1_565 S
C1423 H1479 0.930 . S
C1424 N1425 1.314 . S
C1424 C1429 1.353 . S
C1424 H1430 0.930 . S
N1425 Li1408 1.990 . S
N1425 C1424 1.314 . S
N1425 C1427 1.279 . S
C1426 C1427 1.358 . S
C1426 C1428 1.356 . S
C1426 H1480 0.930 . S
C1427 N1425 1.279 . S
C1427 C1426 1.358 . S
C1427 H1431 0.930 . S
C1428 C1426 1.356 . S
C1428 C1429 1.348 . S
C1429 C1424 1.353 . S
C1429 C1428 1.348 . S
C1429 H1481 0.929 1_545 S
H1430 C1424 0.930 . S
H1431 C1427 0.930 . S
C1432 N1433 1.314 . S
C1432 C1434 1.353 . S
C1432 H1438 0.930 . S
N1433 Li1409 1.990 . S
N1433 C1432 1.314 . S
N1433 C1436 1.279 . S
C1434 C1432 1.353 . S
C1434 C1437 1.348 . S
C1434 H1482 0.929 . S
C1435 C1436 1.358 . S
C1435 C1437 1.356 . S
C1435 H1483 0.930 . S
C1436 N1433 1.279 . S
C1436 C1435 1.358 . S
C1436 H1439 0.930 . S
C1437 C1434 1.348 . S
C1437 C1435 1.356 . S
H1438 C1432 0.930 . S
H1439 C1436 0.930 . S
C1440 C1442 1.348 . S
C1440 C1443 1.356 . S
C1440 O1470 1.325 . S
N1441 C1444 1.314 1_545 S
N1441 C1445 1.279 . S
C1442 C1440 1.348 . S
C1442 C1444 1.353 1_545 S
C1442 H1484 0.929 1_545 S
C1443 C1440 1.356 . S
C1443 C1445 1.358 . S
C1443 H1485 0.930 . S
C1444 N1441 1.314 1_565 S
C1444 C1442 1.353 1_565 S
C1444 H1486 0.930 . S
C1445 N1441 1.279 . S
C1445 C1443 1.358 . S
C1445 H1487 0.930 . S
C1446 C1447 1.348 . S
C1446 C1448 1.356 . S
C1446 O1471 1.325 . S
C1447 C1446 1.348 . S
C1447 C1449 1.353 . S
C1447 H1488 0.929 . S
C1448 C1446 1.356 . S
C1448 C1450 1.358 . S
C1448 H1489 0.930 . S
C1449 C1447 1.353 . S
C1449 N1451 1.314 . S
C1449 H1490 0.930 . S
C1450 C1448 1.358 . S
C1450 N1451 1.279 . S
C1450 H1491 0.930 . S
N1451 C1449 1.314 . S
N1451 C1450 1.279 . S
C1452 C1454 1.353 . S
C1452 N1455 1.314 . S
C1452 H1458 0.930 . S
C1453 N1455 1.279 . S
C1453 C1456 1.358 . S
C1453 H1459 0.930 . S
C1454 C1452 1.353 . S
C1454 C1457 1.348 . S
C1454 H1492 0.929 . S
N1455 Li1410 1.990 . S
N1455 C1452 1.314 . S
N1455 C1453 1.279 . S
C1456 C1453 1.358 . S
C1456 C1457 1.356 . S
C1456 H1493 0.930 . S
C1457 C1454 1.348 . S
C1457 C1456 1.356 . S
H1458 C1452 0.930 . S
H1459 C1453 0.930 . S
C1460 N1461 1.314 . S
C1460 C1462 1.353 . S
C1460 H1466 0.930 . S
N1461 Li1411 1.990 1_565 S
N1461 C1460 1.314 . S
N1461 C1464 1.279 . S
C1462 C1460 1.353 . S
C1462 C1465 1.348 . S
C1462 H1494 0.929 . S
C1463 C1464 1.358 . S
C1463 C1465 1.356 . S
C1463 H1495 0.930 . S
C1464 N1461 1.279 . S
C1464 C1463 1.358 . S
C1464 H1467 0.930 . S
C1465 C1462 1.348 . S
C1465 C1463 1.356 . S
H1466 C1460 0.930 . S
H1467 C1464 0.930 . S
O1468 Li1408 1.956 . S
O1468 Li1409 1.970 . S
O1468 Li1410 1.961 . S
O1468 C1412 1.325 . S
O1469 Li1408 1.970 . S
O1469 Li1409 1.956 . S
O1469 Li1411 1.961 . S
O1469 C1418 1.376 . S
O1470 Li1408 1.961 . S
O1470 Li1410 1.956 . S
O1470 Li1411 1.970 . S
O1470 C1440 1.325 . S
O1471 Li1409 1.961 . S
O1471 Li1410 1.970 . S
O1471 Li1411 1.956 . S
O1471 C1446 1.325 . S
H1472 C1414 0.929 . S
H1473 C1415 0.930 . S
H1474 C1416 0.930 . S
H1475 C1417 0.930 . S
H1476 C1419 0.930 . S
H1477 C1421 0.975 . S
H1478 C1422 0.930 . S
H1479 C1423 0.930 . S
H1480 C1426 0.930 . S
H1481 C1429 0.929 1_565 S
H1482 C1434 0.929 . S
H1483 C1435 0.930 . S
H1484 C1442 0.929 1_565 S
H1485 C1443 0.930 . S
H1486 C1444 0.930 . S
H1487 C1445 0.930 . S
H1488 C1447 0.929 . S
H1489 C1448 0.930 . S
H1490 C1449 0.930 . S
H1491 C1450 0.930 . S
H1492 C1454 0.929 . S
H1493 C1456 0.930 . S
H1494 C1462 0.929 . S
H1495 C1463 0.930 . S
Li1496 N1513 1.990 . S
Li1496 O1556 1.956 . S
Li1496 O1557 1.970 . S
Li1496 O1558 1.961 . S
Li1497 N1521 1.990 . S
Li1497 O1556 1.970 . S
Li1497 O1557 1.956 . S
Li1497 O1559 1.961 . S
Li1498 N1543 1.990 1_655 S
Li1498 O1556 1.961 . S
Li1498 O1558 1.956 . S
Li1498 O1559 1.970 . S
Li1499 N1549 1.990 . S
Li1499 O1557 1.961 . S
Li1499 O1558 1.970 . S
Li1499 O1559 1.956 . S
C1500 C1502 1.386 . S
C1500 C1503 1.356 1_655 S
C1500 O1556 1.325 . S
N1501 C1504 1.314 . S
N1501 C1505 1.279 . S
C1502 C1500 1.386 . S
C1502 C1504 1.305 1_655 S
C1502 H1560 0.948 . S
C1503 C1500 1.356 1_455 S
C1503 C1505 1.358 . S
C1503 H1561 0.930 . S
C1504 N1501 1.314 . S
C1504 C1502 1.305 1_455 S
C1504 H1562 0.930 . S
C1505 N1501 1.279 . S
C1505 C1503 1.358 . S
C1505 H1563 0.930 . S
C1506 C1509 1.348 . S
C1506 C1510 1.356 . S
C1506 O1557 1.325 . S
C1507 N1508 1.279 . S
C1507 C1510 1.358 . S
C1507 H1564 0.930 . S
N1508 C1507 1.279 . S
N1508 C1511 1.314 . S
C1509 C1506 1.348 . S
C1509 C1511 1.353 . S
C1509 H1565 0.929 . S
C1510 C1506 1.356 . S
C1510 C1507 1.358 . S
C1510 H1566 0.930 . S
C1511 N1508 1.314 . S
C1511 C1509 1.353 . S
C1511 H1567 0.930 . S
C1512 N1513 1.314 . S
C1512 C1517 1.353 . S
C1512 H1518 0.930 . S
N1513 Li1496 1.990 . S
N1513 C1512 1.314 . S
N1513 C1515 1.279 . S
C1514 C1515 1.358 . S
C1514 C1516 1.356 . S
C1514 H1568 0.930 . S
C1515 N1513 1.279 . S
C1515 C1514 1.358 . S
C1515 H1519 0.930 . S
C1516 C1514 1.356 . S
C1516 C1517 1.348 . S
C1517 C1512 1.353 . S
C1517 C1516 1.348 . S
C1517 H1569 0.929 . S
H1518 C1512 0.930 . S
H1519 C1515 0.930 . S
C1520 N1521 1.314 . S
C1520 C1522 1.353 . S
C1520 H1526 0.930 . S
N1521 Li1497 1.990 . S
N1521 C1520 1.314 . S
N1521 C1524 1.279 . S
C1522 C1520 1.353 . S
C1522 C1525 1.348 . S
C1522 H1570 0.938 . S
C1523 C1524 1.358 . S
C1523 C1525 1.356 . S
C1523 H1571 0.930 . S
C1524 N1521 1.279 . S
C1524 C1523 1.358 . S
C1524 H1527 0.930 . S
C1525 C1522 1.348 . S
C1525 C1523 1.356 . S
H1526 C1520 0.930 . S
H1527 C1524 0.930 . S
C1528 C1530 1.348 . S
C1528 C1531 1.356 . S
C1528 O1558 1.325 . S
N1529 C1532 1.314 . S
N1529 C1533 1.279 . S
C1530 C1528 1.348 . S
C1530 C1532 1.353 . S
C1530 H1572 0.929 . S
C1531 C1528 1.356 . S
C1531 C1533 1.358 . S
C1531 H1573 0.930 . S
C1532 N1529 1.314 . S
C1532 C1530 1.353 . S
C1532 H1574 0.930 . S
C1533 N1529 1.279 . S
C1533 C1531 1.358 . S
C1533 H1575 0.930 . S
C1534 C1535 1.348 . S
C1534 C1536 1.356 . S
C1534 O1559 1.325 . S
C1535 C1534 1.348 . S
C1535 C1537 1.353 1_655 S
C1535 H1576 0.929 1_655 S
C1536 C1534 1.356 . S
C1536 C1538 1.358 . S
C1536 H1577 0.930 . S
C1537 C1535 1.353 1_455 S
C1537 N1539 1.314 1_455 S
C1537 H1578 0.930 . S
C1538 C1536 1.358 . S
C1538 N1539 1.279 . S
C1538 H1579 0.930 . S
N1539 C1537 1.314 1_655 S
N1539 C1538 1.279 . S
C1540 C1542 1.353 . S
C1540 N1543 1.314 . S
C1540 H1546 0.930 . S
C1541 N1543 1.279 . S
C1541 C1544 1.358 . S
C1541 H1547 0.930 . S
C1542 C1540 1.353 . S
C1542 C1545 1.348 . S
C1542 H1580 0.929 . S
N1543 Li1498 1.990 1_455 S
N1543 C1540 1.314 . S
N1543 C1541 1.279 . S
C1544 C1541 1.358 . S
C1544 C1545 1.356 . S
C1544 H1581 0.930 . S
C1545 C1542 1.348 . S
C1545 C1544 1.356 . S
H1546 C1540 0.930 . S
H1547 C1541 0.930 . S
C1548 N1549 1.314 . S
C1548 C1550 1.353 . S
C1548 H1554 0.930 . S
N1549 Li1499 1.990 . S
N1549 C1548 1.314 . S
N1549 C1552 1.279 . S
C1550 C1548 1.353 . S
C1550 C1553 1.348 . S
C1550 H1582 0.929 . S
C1551 C1552 1.358 . S
C1551 C1553 1.356 . S
C1551 H1583 0.930 . S
C1552 N1549 1.279 . S
C1552 C1551 1.358 . S
C1552 H1555 0.930 . S
C1553 C1550 1.348 . S
C1553 C1551 1.356 . S
H1554 C1548 0.930 . S
H1555 C1552 0.930 . S
O1556 Li1496 1.956 . S
O1556 Li1497 1.970 . S
O1556 Li1498 1.961 . S
O1556 C1500 1.325 . S
O1557 Li1496 1.970 . S
O1557 Li1497 1.956 . S
O1557 Li1499 1.961 . S
O1557 C1506 1.325 . S
O1558 Li1496 1.961 . S
O1558 Li1498 1.956 . S
O1558 Li1499 1.970 . S
O1558 C1528 1.325 . S
O1559 Li1497 1.961 . S
O1559 Li1498 1.970 . S
O1559 Li1499 1.956 . S
O1559 C1534 1.325 . S
H1560 C1502 0.948 . S
H1561 C1503 0.930 . S
H1562 C1504 0.930 . S
H1563 C1505 0.930 . S
H1564 C1507 0.930 . S
H1565 C1509 0.929 . S
H1566 C1510 0.930 . S
H1567 C1511 0.930 . S
H1568 C1514 0.930 . S
H1569 C1517 0.929 . S
H1570 C1522 0.938 . S
H1571 C1523 0.930 . S
H1572 C1530 0.929 . S
H1573 C1531 0.930 . S
H1574 C1532 0.930 . S
H1575 C1533 0.930 . S
H1576 C1535 0.929 1_455 S
H1577 C1536 0.930 . S
H1578 C1537 0.930 . S
H1579 C1538 0.930 . S
H1580 C1542 0.929 . S
H1581 C1544 0.930 . S
H1582 C1550 0.929 . S
H1583 C1551 0.930 . S
H1584 C1603 0.949 . S
H1585 C1604 0.950 . S
H1586 C1606 0.950 . S
H1587 C1607 0.950 . S
H1588 C1609 0.950 . S
H1589 C1612 0.950 . S
H1590 C1613 0.950 . S
H1591 C1615 0.951 . S
H1592 C1616 0.949 . S
H1593 C1618 0.949 . S
H1594 C1619 0.950 . S
H1595 C1621 0.950 . S
H1596 C1622 0.950 . S
H1597 C1624 0.950 . S
H1598 C1627 0.950 . S
H1599 C1628 0.950 . S
H1600 C1630 0.951 . S
H1601 C1631 0.949 . S
C1602 C1603 1.376 . S
C1602 C1607 1.386 . S
C1602 C1608 1.483 . S
C1603 H1584 0.949 . S
C1603 C1602 1.376 . S
C1603 C1604 1.397 . S
C1604 H1585 0.950 . S
C1604 C1603 1.397 . S
C1604 C1605 1.391 . S
C1605 C1604 1.391 . S
C1605 C1606 1.405 . S
C1606 H1586 0.950 . S
C1606 C1605 1.405 . S
C1606 C1607 1.367 . S
C1607 H1587 0.950 . S
C1607 C1602 1.386 . S
C1607 C1606 1.367 . S
C1608 C1602 1.483 . S
C1608 C1609 1.382 . S
C1608 C1610 1.403 . S
C1609 H1588 0.950 . S
C1609 C1608 1.382 . S
C1609 C1625 1.411 . S
C1610 C1608 1.403 . S
C1610 C1611 1.489 . S
C1610 C1624 1.411 . S
C1611 C1610 1.489 . S
C1611 C1612 1.383 . S
C1611 C1616 1.382 . S
C1612 H1589 0.950 . S
C1612 C1611 1.383 . S
C1612 C1613 1.395 . S
C1613 H1590 0.950 . S
C1613 C1612 1.395 . S
C1613 C1614 1.288 . S
C1614 C1613 1.288 . S
C1614 C1615 1.392 . S
C1615 H1591 0.951 . S
C1615 C1614 1.392 . S
C1615 C1616 1.392 . S
C1616 H1592 0.949 . S
C1616 C1611 1.382 . S
C1616 C1615 1.392 . S
C1617 C1618 1.376 . S
C1617 C1622 1.386 . S
C1617 C1623 1.483 . S
C1618 H1593 0.949 . S
C1618 C1617 1.376 . S
C1618 C1619 1.397 . S
C1619 H1594 0.950 . S
C1619 C1618 1.397 . S
C1619 C1620 1.391 . S
C1620 C1619 1.391 . S
C1620 C1621 1.405 . S
C1621 H1595 0.950 . S
C1621 C1620 1.405 . S
C1621 C1622 1.367 . S
C1622 H1596 0.950 . S
C1622 C1617 1.386 . S
C1622 C1621 1.367 . S
C1623 C1617 1.483 . S
C1623 C1624 1.382 . S
C1623 C1625 1.403 . S
C1624 H1597 0.950 . S
C1624 C1610 1.411 . S
C1624 C1623 1.382 . S
C1625 C1609 1.411 . S
C1625 C1623 1.403 . S
C1625 C1626 1.489 . S
C1626 C1625 1.489 . S
C1626 C1627 1.383 . S
C1626 C1631 1.382 . S
C1627 H1598 0.950 . S
C1627 C1626 1.383 . S
C1627 C1628 1.395 . S
C1628 H1599 0.950 . S
C1628 C1627 1.395 . S
C1628 C1629 1.288 . S
C1629 C1628 1.288 . S
C1629 C1630 1.392 . S
C1630 H1600 0.951 . S
C1630 C1629 1.392 . S
C1630 C1631 1.392 . S
C1631 H1601 0.949 . S
C1631 C1626 1.382 . S
C1631 C1630 1.392 . S
H1632 C1651 0.949 . S
H1633 C1652 0.950 . S
H1634 C1654 0.950 . S
H1635 C1655 0.950 . S
H1636 C1657 0.950 . S
H1637 C1660 0.950 . S
H1638 C1661 0.950 . S
H1639 C1663 0.951 . S
H1640 C1664 0.949 . S
H1641 C1666 0.949 . S
H1642 C1667 0.950 . S
H1643 C1669 0.950 . S
H1644 C1670 0.950 . S
H1645 C1672 0.950 . S
H1646 C1675 0.950 . S
H1647 C1676 0.950 . S
H1648 C1678 0.951 . S
H1649 C1679 0.949 . S
C1650 C1651 1.376 . S
C1650 C1655 1.386 . S
C1650 C1656 1.483 . S
C1651 H1632 0.949 . S
C1651 C1650 1.376 . S
C1651 C1652 1.397 . S
C1652 H1633 0.950 . S
C1652 C1651 1.397 . S
C1652 C1653 1.391 . S
C1653 C1652 1.391 . S
C1653 C1654 1.405 . S
C1654 H1634 0.950 . S
C1654 C1653 1.405 . S
C1654 C1655 1.367 . S
C1655 H1635 0.950 . S
C1655 C1650 1.386 . S
C1655 C1654 1.367 . S
C1656 C1650 1.483 . S
C1656 C1657 1.382 . S
C1656 C1658 1.403 . S
C1657 H1636 0.950 . S
C1657 C1656 1.382 . S
C1657 C1673 1.411 . S
C1658 C1656 1.403 . S
C1658 C1659 1.489 . S
C1658 C1672 1.411 . S
C1659 C1658 1.489 . S
C1659 C1660 1.383 . S
C1659 C1664 1.382 . S
C1660 H1637 0.950 . S
C1660 C1659 1.383 . S
C1660 C1661 1.395 . S
C1661 H1638 0.950 . S
C1661 C1660 1.395 . S
C1661 C1662 1.288 . S
C1662 C1661 1.288 . S
C1662 C1663 1.392 . S
C1663 H1639 0.951 . S
C1663 C1662 1.392 . S
C1663 C1664 1.392 . S
C1664 H1640 0.949 . S
C1664 C1659 1.382 . S
C1664 C1663 1.392 . S
C1665 C1666 1.376 . S
C1665 C1670 1.386 . S
C1665 C1671 1.483 . S
C1666 H1641 0.949 . S
C1666 C1665 1.376 . S
C1666 C1667 1.397 . S
C1667 H1642 0.950 . S
C1667 C1666 1.397 . S
C1667 C1668 1.391 . S
C1668 C1667 1.391 . S
C1668 C1669 1.405 . S
C1669 H1643 0.950 . S
C1669 C1668 1.405 . S
C1669 C1670 1.367 . S
C1670 H1644 0.950 . S
C1670 C1665 1.386 . S
C1670 C1669 1.367 . S
C1671 C1665 1.483 . S
C1671 C1672 1.382 . S
C1671 C1673 1.403 . S
C1672 H1645 0.950 . S
C1672 C1658 1.411 . S
C1672 C1671 1.382 . S
C1673 C1657 1.411 . S
C1673 C1671 1.403 . S
C1673 C1674 1.489 . S
C1674 C1673 1.489 . S
C1674 C1675 1.383 . S
C1674 C1679 1.382 . S
C1675 H1646 0.950 . S
C1675 C1674 1.383 . S
C1675 C1676 1.395 . S
C1676 H1647 0.950 . S
C1676 C1675 1.395 . S
C1676 C1677 1.288 . S
C1677 C1676 1.288 . S
C1677 C1678 1.392 . S
C1678 H1648 0.951 . S
C1678 C1677 1.392 . S
C1678 C1679 1.392 . S
C1679 H1649 0.949 . S
C1679 C1674 1.382 . S
C1679 C1678 1.392 . S
H1680 C1699 0.949 . S
H1681 C1700 0.950 . S
H1682 C1702 0.950 . S
H1683 C1703 0.950 . S
H1684 C1705 0.950 . S
H1685 C1708 0.950 . S
H1686 C1709 0.950 . S
H1687 C1711 0.951 . S
H1688 C1712 0.949 . S
H1689 C1714 0.949 . S
H1690 C1715 0.950 . S
H1691 C1717 0.950 . S
H1692 C1718 0.950 . S
H1693 C1720 0.950 . S
H1694 C1723 0.950 . S
H1695 C1724 0.950 . S
H1696 C1726 0.951 . S
H1697 C1727 0.949 . S
C1698 C1699 1.376 . S
C1698 C1703 1.386 . S
C1698 C1704 1.483 . S
C1699 H1680 0.949 . S
C1699 C1698 1.376 . S
C1699 C1700 1.397 . S
C1700 H1681 0.950 . S
C1700 C1699 1.397 . S
C1700 C1701 1.391 . S
C1701 C1700 1.391 . S
C1701 C1702 1.405 . S
C1702 H1682 0.950 . S
C1702 C1701 1.405 . S
C1702 C1703 1.367 . S
C1703 H1683 0.950 . S
C1703 C1698 1.386 . S
C1703 C1702 1.367 . S
C1704 C1698 1.483 . S
C1704 C1705 1.382 . S
C1704 C1706 1.403 . S
C1705 H1684 0.950 . S
C1705 C1704 1.382 . S
C1705 C1721 1.411 . S
C1706 C1704 1.403 . S
C1706 C1707 1.489 . S
C1706 C1720 1.411 . S
C1707 C1706 1.489 . S
C1707 C1708 1.383 . S
C1707 C1712 1.382 . S
C1708 H1685 0.950 . S
C1708 C1707 1.383 . S
C1708 C1709 1.395 . S
C1709 H1686 0.950 . S
C1709 C1708 1.395 . S
C1709 C1710 1.288 . S
C1710 C1709 1.288 . S
C1710 C1711 1.392 . S
C1711 H1687 0.951 . S
C1711 C1710 1.392 . S
C1711 C1712 1.392 . S
C1712 H1688 0.949 . S
C1712 C1707 1.382 . S
C1712 C1711 1.392 . S
C1713 C1714 1.376 . S
C1713 C1718 1.386 . S
C1713 C1719 1.483 . S
C1714 H1689 0.949 . S
C1714 C1713 1.376 . S
C1714 C1715 1.397 . S
C1715 H1690 0.950 . S
C1715 C1714 1.397 . S
C1715 C1716 1.391 . S
C1716 C1715 1.391 . S
C1716 C1717 1.405 . S
C1717 H1691 0.950 . S
C1717 C1716 1.405 . S
C1717 C1718 1.367 . S
C1718 H1692 0.950 . S
C1718 C1713 1.386 . S
C1718 C1717 1.367 . S
C1719 C1713 1.483 . S
C1719 C1720 1.382 . S
C1719 C1721 1.403 . S
C1720 H1693 0.950 . S
C1720 C1706 1.411 . S
C1720 C1719 1.382 . S
C1721 C1705 1.411 . S
C1721 C1719 1.403 . S
C1721 C1722 1.489 . S
C1722 C1721 1.489 . S
C1722 C1723 1.383 . S
C1722 C1727 1.382 . S
C1723 H1694 0.950 . S
C1723 C1722 1.383 . S
C1723 C1724 1.395 . S
C1724 H1695 0.950 . S
C1724 C1723 1.395 . S
C1724 C1725 1.288 . S
C1725 C1724 1.288 . S
C1725 C1726 1.392 . S
C1726 H1696 0.951 . S
C1726 C1725 1.392 . S
C1726 C1727 1.392 . S
C1727 H1697 0.949 . S
C1727 C1722 1.382 . S
C1727 C1726 1.392 . S
H1728 C1747 0.949 . S
H1729 C1748 0.950 . S
H1730 C1750 0.950 . S
H1731 C1751 0.950 . S
H1732 C1753 0.950 . S
H1733 C1756 0.950 . S
H1734 C1757 0.950 . S
H1735 C1759 0.951 . S
H1736 C1760 0.949 . S
H1737 C1762 0.949 . S
H1738 C1763 0.950 . S
H1739 C1765 0.950 . S
H1740 C1766 0.950 . S
H1741 C1768 0.950 . S
H1742 C1771 0.950 . S
H1743 C1772 0.950 . S
H1744 C1774 0.951 . S
H1745 C1775 0.949 . S
C1746 C1747 1.376 . S
C1746 C1751 1.386 . S
C1746 C1752 1.483 . S
C1747 H1728 0.949 . S
C1747 C1746 1.376 . S
C1747 C1748 1.397 . S
C1748 H1729 0.950 . S
C1748 C1747 1.397 . S
C1748 C1749 1.391 . S
C1749 C1748 1.391 . S
C1749 C1750 1.405 . S
C1750 H1730 0.950 . S
C1750 C1749 1.405 . S
C1750 C1751 1.367 . S
C1751 H1731 0.950 . S
C1751 C1746 1.386 . S
C1751 C1750 1.367 . S
C1752 C1746 1.483 . S
C1752 C1753 1.382 . S
C1752 C1754 1.403 . S
C1753 H1732 0.950 . S
C1753 C1752 1.382 . S
C1753 C1769 1.411 . S
C1754 C1752 1.403 . S
C1754 C1755 1.489 . S
C1754 C1768 1.411 . S
C1755 C1754 1.489 . S
C1755 C1756 1.383 . S
C1755 C1760 1.382 . S
C1756 H1733 0.950 . S
C1756 C1755 1.383 . S
C1756 C1757 1.395 . S
C1757 H1734 0.950 . S
C1757 C1756 1.395 . S
C1757 C1758 1.288 . S
C1758 C1757 1.288 . S
C1758 C1759 1.392 . S
C1759 H1735 0.951 . S
C1759 C1758 1.392 . S
C1759 C1760 1.392 . S
C1760 H1736 0.949 . S
C1760 C1755 1.382 . S
C1760 C1759 1.392 . S
C1761 C1762 1.376 . S
C1761 C1766 1.386 . S
C1761 C1767 1.483 . S
C1762 H1737 0.949 . S
C1762 C1761 1.376 . S
C1762 C1763 1.397 . S
C1763 H1738 0.950 . S
C1763 C1762 1.397 . S
C1763 C1764 1.391 . S
C1764 C1763 1.391 . S
C1764 C1765 1.405 . S
C1765 H1739 0.950 . S
C1765 C1764 1.405 . S
C1765 C1766 1.367 . S
C1766 H1740 0.950 . S
C1766 C1761 1.386 . S
C1766 C1765 1.367 . S
C1767 C1761 1.483 . S
C1767 C1768 1.382 . S
C1767 C1769 1.403 . S
C1768 H1741 0.950 . S
C1768 C1754 1.411 . S
C1768 C1767 1.382 . S
C1769 C1753 1.411 . S
C1769 C1767 1.403 . S
C1769 C1770 1.489 . S
C1770 C1769 1.489 . S
C1770 C1771 1.383 . S
C1770 C1775 1.382 . S
C1771 H1742 0.950 . S
C1771 C1770 1.383 . S
C1771 C1772 1.395 . S
C1772 H1743 0.950 . S
C1772 C1771 1.395 . S
C1772 C1773 1.288 . S
C1773 C1772 1.288 . S
C1773 C1774 1.392 . S
C1774 H1744 0.951 . S
C1774 C1773 1.392 . S
C1774 C1775 1.392 . S
C1775 H1745 0.949 . S
C1775 C1770 1.382 . S
C1775 C1774 1.392 . S
H1776 C1795 0.949 . S
H1777 C1796 0.950 . S
H1778 C1798 0.950 . S
H1779 C1799 0.950 . S
H1780 C1801 0.950 . S
H1781 C1804 0.950 . S
H1782 C1805 0.950 . S
H1783 C1807 0.951 . S
H1784 C1808 0.949 . S
H1785 C1810 0.949 . S
H1786 C1811 0.950 . S
H1787 C1813 0.950 . S
H1788 C1814 0.950 . S
H1789 C1816 0.950 . S
H1790 C1819 0.950 . S
H1791 C1820 0.950 . S
H1792 C1822 0.951 . S
H1793 C1823 0.949 . S
C1794 C1795 1.376 . S
C1794 C1799 1.386 . S
C1794 C1800 1.483 . S
C1795 H1776 0.949 . S
C1795 C1794 1.376 . S
C1795 C1796 1.397 . S
C1796 H1777 0.950 . S
C1796 C1795 1.397 . S
C1796 C1797 1.391 . S
C1797 C1796 1.391 . S
C1797 C1798 1.405 . S
C1798 H1778 0.950 . S
C1798 C1797 1.405 . S
C1798 C1799 1.367 . S
C1799 H1779 0.950 . S
C1799 C1794 1.386 . S
C1799 C1798 1.367 . S
C1800 C1794 1.483 . S
C1800 C1801 1.382 . S
C1800 C1802 1.403 . S
C1801 H1780 0.950 . S
C1801 C1800 1.382 . S
C1801 C1817 1.411 . S
C1802 C1800 1.403 . S
C1802 C1803 1.489 . S
C1802 C1816 1.411 . S
C1803 C1802 1.489 . S
C1803 C1804 1.383 . S
C1803 C1808 1.382 . S
C1804 H1781 0.950 . S
C1804 C1803 1.383 . S
C1804 C1805 1.395 . S
C1805 H1782 0.950 . S
C1805 C1804 1.395 . S
C1805 C1806 1.288 . S
C1806 C1805 1.288 . S
C1806 C1807 1.392 . S
C1807 H1783 0.951 . S
C1807 C1806 1.392 . S
C1807 C1808 1.392 . S
C1808 H1784 0.949 . S
C1808 C1803 1.382 . S
C1808 C1807 1.392 . S
C1809 C1810 1.376 . S
C1809 C1814 1.386 . S
C1809 C1815 1.483 . S
C1810 H1785 0.949 . S
C1810 C1809 1.376 . S
C1810 C1811 1.397 . S
C1811 H1786 0.950 . S
C1811 C1810 1.397 . S
C1811 C1812 1.391 . S
C1812 C1811 1.391 . S
C1812 C1813 1.405 . S
C1813 H1787 0.950 . S
C1813 C1812 1.405 . S
C1813 C1814 1.367 . S
C1814 H1788 0.950 . S
C1814 C1809 1.386 . S
C1814 C1813 1.367 . S
C1815 C1809 1.483 . S
C1815 C1816 1.382 . S
C1815 C1817 1.403 . S
C1816 H1789 0.950 . S
C1816 C1802 1.411 . S
C1816 C1815 1.382 . S
C1817 C1801 1.411 . S
C1817 C1815 1.403 . S
C1817 C1818 1.489 . S
C1818 C1817 1.489 . S
C1818 C1819 1.383 . S
C1818 C1823 1.382 . S
C1819 H1790 0.950 . S
C1819 C1818 1.383 . S
C1819 C1820 1.395 . S
C1820 H1791 0.950 . S
C1820 C1819 1.395 . S
C1820 C1821 1.288 . S
C1821 C1820 1.288 . S
C1821 C1822 1.392 . S
C1822 H1792 0.951 . S
C1822 C1821 1.392 . S
C1822 C1823 1.392 . S
C1823 H1793 0.949 . S
C1823 C1818 1.382 . S
C1823 C1822 1.392 . S
H1824 C1843 0.949 . S
H1825 C1844 0.950 . S
H1826 C1846 0.950 . S
H1827 C1847 0.950 . S
H1828 C1849 0.950 . S
H1829 C1852 0.950 . S
H1830 C1853 0.950 . S
H1831 C1855 0.951 . S
H1832 C1856 0.949 . S
H1833 C1858 0.949 . S
H1834 C1859 0.950 . S
H1835 C1861 0.950 . S
H1836 C1862 0.950 . S
H1837 C1864 0.950 . S
H1838 C1867 0.950 . S
H1839 C1868 0.950 . S
H1840 C1870 0.951 . S
H1841 C1871 0.949 . S
C1842 C1843 1.376 . S
C1842 C1847 1.386 . S
C1842 C1848 1.483 . S
C1843 H1824 0.949 . S
C1843 C1842 1.376 . S
C1843 C1844 1.397 . S
C1844 H1825 0.950 . S
C1844 C1843 1.397 . S
C1844 C1845 1.391 . S
C1845 C1844 1.391 . S
C1845 C1846 1.405 . S
C1846 H1826 0.950 . S
C1846 C1845 1.405 . S
C1846 C1847 1.367 . S
C1847 H1827 0.950 . S
C1847 C1842 1.386 . S
C1847 C1846 1.367 . S
C1848 C1842 1.483 . S
C1848 C1849 1.382 . S
C1848 C1850 1.403 . S
C1849 H1828 0.950 . S
C1849 C1848 1.382 . S
C1849 C1865 1.411 . S
C1850 C1848 1.403 . S
C1850 C1851 1.489 . S
C1850 C1864 1.411 . S
C1851 C1850 1.489 . S
C1851 C1852 1.383 . S
C1851 C1856 1.382 . S
C1852 H1829 0.950 . S
C1852 C1851 1.383 . S
C1852 C1853 1.395 . S
C1853 H1830 0.950 . S
C1853 C1852 1.395 . S
C1853 C1854 1.288 . S
C1854 C1853 1.288 . S
C1854 C1855 1.392 . S
C1855 H1831 0.951 . S
C1855 C1854 1.392 . S
C1855 C1856 1.392 . S
C1856 H1832 0.949 . S
C1856 C1851 1.382 . S
C1856 C1855 1.392 . S
C1857 C1858 1.376 . S
C1857 C1862 1.386 . S
C1857 C1863 1.483 . S
C1858 H1833 0.949 . S
C1858 C1857 1.376 . S
C1858 C1859 1.397 . S
C1859 H1834 0.950 . S
C1859 C1858 1.397 . S
C1859 C1860 1.391 . S
C1860 C1859 1.391 . S
C1860 C1861 1.405 . S
C1861 H1835 0.950 . S
C1861 C1860 1.405 . S
C1861 C1862 1.367 . S
C1862 H1836 0.950 . S
C1862 C1857 1.386 . S
C1862 C1861 1.367 . S
C1863 C1857 1.483 . S
C1863 C1864 1.382 . S
C1863 C1865 1.403 . S
C1864 H1837 0.950 . S
C1864 C1850 1.411 . S
C1864 C1863 1.382 . S
C1865 C1849 1.411 . S
C1865 C1863 1.403 . S
C1865 C1866 1.489 . S
C1866 C1865 1.489 . S
C1866 C1867 1.383 . S
C1866 C1871 1.382 . S
C1867 H1838 0.950 . S
C1867 C1866 1.383 . S
C1867 C1868 1.395 . S
C1868 H1839 0.950 . S
C1868 C1867 1.395 . S
C1868 C1869 1.288 . S
C1869 C1868 1.288 . S
C1869 C1870 1.392 . S
C1870 H1840 0.951 . S
C1870 C1869 1.392 . S
C1870 C1871 1.392 . S
C1871 H1841 0.949 . S
C1871 C1866 1.382 . S
C1871 C1870 1.392 . S
H1872 C1891 0.949 . S
H1873 C1892 0.950 . S
H1874 C1894 0.950 . S
H1875 C1895 0.950 . S
H1876 C1897 0.950 . S
H1877 C1900 0.950 . S
H1878 C1901 0.950 . S
H1879 C1903 0.951 . S
H1880 C1904 0.949 . S
H1881 C1906 0.949 . S
H1882 C1907 0.950 . S
H1883 C1909 0.950 . S
H1884 C1910 0.950 . S
H1885 C1912 0.950 . S
H1886 C1915 0.950 . S
H1887 C1916 0.950 . S
H1888 C1918 0.951 . S
H1889 C1919 0.949 . S
C1890 C1891 1.376 . S
C1890 C1895 1.386 . S
C1890 C1896 1.483 . S
C1891 H1872 0.949 . S
C1891 C1890 1.376 . S
C1891 C1892 1.397 . S
C1892 H1873 0.950 . S
C1892 C1891 1.397 . S
C1892 C1893 1.391 . S
C1893 C1892 1.391 . S
C1893 C1894 1.405 . S
C1894 H1874 0.950 . S
C1894 C1893 1.405 . S
C1894 C1895 1.367 . S
C1895 H1875 0.950 . S
C1895 C1890 1.386 . S
C1895 C1894 1.367 . S
C1896 C1890 1.483 . S
C1896 C1897 1.382 . S
C1896 C1898 1.403 . S
C1897 H1876 0.950 . S
C1897 C1896 1.382 . S
C1897 C1913 1.411 . S
C1898 C1896 1.403 . S
C1898 C1899 1.489 . S
C1898 C1912 1.411 . S
C1899 C1898 1.489 . S
C1899 C1900 1.383 . S
C1899 C1904 1.382 . S
C1900 H1877 0.950 . S
C1900 C1899 1.383 . S
C1900 C1901 1.395 . S
C1901 H1878 0.950 . S
C1901 C1900 1.395 . S
C1901 C1902 1.288 . S
C1902 C1901 1.288 . S
C1902 C1903 1.392 . S
C1903 H1879 0.951 . S
C1903 C1902 1.392 . S
C1903 C1904 1.392 . S
C1904 H1880 0.949 . S
C1904 C1899 1.382 . S
C1904 C1903 1.392 . S
C1905 C1906 1.376 . S
C1905 C1910 1.386 . S
C1905 C1911 1.483 . S
C1906 H1881 0.949 . S
C1906 C1905 1.376 . S
C1906 C1907 1.397 . S
C1907 H1882 0.950 . S
C1907 C1906 1.397 . S
C1907 C1908 1.391 . S
C1908 C1907 1.391 . S
C1908 C1909 1.405 . S
C1909 H1883 0.950 . S
C1909 C1908 1.405 . S
C1909 C1910 1.367 . S
C1910 H1884 0.950 . S
C1910 C1905 1.386 . S
C1910 C1909 1.367 . S
C1911 C1905 1.483 . S
C1911 C1912 1.382 . S
C1911 C1913 1.403 . S
C1912 H1885 0.950 . S
C1912 C1898 1.411 . S
C1912 C1911 1.382 . S
C1913 C1897 1.411 . S
C1913 C1911 1.403 . S
C1913 C1914 1.489 . S
C1914 C1913 1.489 . S
C1914 C1915 1.383 . S
C1914 C1919 1.382 . S
C1915 H1886 0.950 . S
C1915 C1914 1.383 . S
C1915 C1916 1.395 . S
C1916 H1887 0.950 . S
C1916 C1915 1.395 . S
C1916 C1917 1.288 . S
C1917 C1916 1.288 . S
C1917 C1918 1.392 . S
C1918 H1888 0.951 . S
C1918 C1917 1.392 . S
C1918 C1919 1.392 . S
C1919 H1889 0.949 . S
C1919 C1914 1.382 . S
C1919 C1918 1.392 . S
H1920 C1939 0.949 . S
H1921 C1940 0.950 . S
H1922 C1942 0.950 . S
H1923 C1943 0.950 . S
H1924 C1945 0.950 . S
H1925 C1948 0.950 . S
H1926 C1949 0.950 . S
H1927 C1951 0.951 . S
H1928 C1952 0.949 . S
H1929 C1954 0.949 . S
H1930 C1955 0.950 . S
H1931 C1957 0.950 . S
H1932 C1958 0.950 . S
H1933 C1960 0.950 . S
H1934 C1963 0.950 . S
H1935 C1964 0.950 . S
H1936 C1966 0.951 . S
H1937 C1967 0.949 . S
C1938 C1939 1.376 . S
C1938 C1943 1.386 . S
C1938 C1944 1.483 . S
C1939 H1920 0.949 . S
C1939 C1938 1.376 . S
C1939 C1940 1.397 . S
C1940 H1921 0.950 . S
C1940 C1939 1.397 . S
C1940 C1941 1.391 . S
C1941 C1940 1.391 . S
C1941 C1942 1.405 . S
C1942 H1922 0.950 . S
C1942 C1941 1.405 . S
C1942 C1943 1.367 . S
C1943 H1923 0.950 . S
C1943 C1938 1.386 . S
C1943 C1942 1.367 . S
C1944 C1938 1.483 . S
C1944 C1945 1.382 . S
C1944 C1946 1.403 . S
C1945 H1924 0.950 . S
C1945 C1944 1.382 . S
C1945 C1961 1.411 . S
C1946 C1944 1.403 . S
C1946 C1947 1.489 . S
C1946 C1960 1.411 . S
C1947 C1946 1.489 . S
C1947 C1948 1.383 . S
C1947 C1952 1.382 . S
C1948 H1925 0.950 . S
C1948 C1947 1.383 . S
C1948 C1949 1.395 . S
C1949 H1926 0.950 . S
C1949 C1948 1.395 . S
C1949 C1950 1.288 . S
C1950 C1949 1.288 . S
C1950 C1951 1.392 . S
C1951 H1927 0.951 . S
C1951 C1950 1.392 . S
C1951 C1952 1.392 . S
C1952 H1928 0.949 . S
C1952 C1947 1.382 . S
C1952 C1951 1.392 . S
C1953 C1954 1.376 . S
C1953 C1958 1.386 . S
C1953 C1959 1.483 . S
C1954 H1929 0.949 . S
C1954 C1953 1.376 . S
C1954 C1955 1.397 . S
C1955 H1930 0.950 . S
C1955 C1954 1.397 . S
C1955 C1956 1.391 . S
C1956 C1955 1.391 . S
C1956 C1957 1.405 . S
C1957 H1931 0.950 . S
C1957 C1956 1.405 . S
C1957 C1958 1.367 . S
C1958 H1932 0.950 . S
C1958 C1953 1.386 . S
C1958 C1957 1.367 . S
C1959 C1953 1.483 . S
C1959 C1960 1.382 . S
C1959 C1961 1.403 . S
C1960 H1933 0.950 . S
C1960 C1946 1.411 . S
C1960 C1959 1.382 . S
C1961 C1945 1.411 . S
C1961 C1959 1.403 . S
C1961 C1962 1.489 . S
C1962 C1961 1.489 . S
C1962 C1963 1.383 . S
C1962 C1967 1.382 . S
C1963 H1934 0.950 . S
C1963 C1962 1.383 . S
C1963 C1964 1.395 . S
C1964 H1935 0.950 . S
C1964 C1963 1.395 . S
C1964 C1965 1.288 . S
C1965 C1964 1.288 . S
C1965 C1966 1.392 . S
C1966 H1936 0.951 . S
C1966 C1965 1.392 . S
C1966 C1967 1.392 . S
C1967 H1937 0.949 . S
C1967 C1962 1.382 . S
C1967 C1966 1.392 . S
H1968 C1987 0.949 . S
H1969 C1988 0.950 . S
H1970 C1990 0.950 . S
H1971 C1991 0.950 . S
H1972 C1993 0.950 . S
H1973 C1996 0.950 . S
H1974 C1997 0.950 . S
H1975 C1999 0.951 . S
H1976 C2000 0.949 . S
H1977 C2002 0.949 . S
H1978 C2003 0.950 . S
H1979 C2005 0.950 . S
H1980 C2006 0.950 . S
H1981 C2008 0.950 . S
H1982 C2011 0.950 . S
H1983 C2012 0.950 . S
H1984 C2014 0.951 . S
H1985 C2015 0.949 . S
C1986 C1987 1.376 . S
C1986 C1991 1.386 . S
C1986 C1992 1.483 . S
C1987 H1968 0.949 . S
C1987 C1986 1.376 . S
C1987 C1988 1.397 . S
C1988 H1969 0.950 . S
C1988 C1987 1.397 . S
C1988 C1989 1.391 . S
C1989 C1988 1.391 . S
C1989 C1990 1.405 . S
C1990 H1970 0.950 . S
C1990 C1989 1.405 . S
C1990 C1991 1.367 . S
C1991 H1971 0.950 . S
C1991 C1986 1.386 . S
C1991 C1990 1.367 . S
C1992 C1986 1.483 . S
C1992 C1993 1.382 . S
C1992 C1994 1.403 . S
C1993 H1972 0.950 . S
C1993 C1992 1.382 . S
C1993 C2009 1.411 . S
C1994 C1992 1.403 . S
C1994 C1995 1.489 . S
C1994 C2008 1.411 . S
C1995 C1994 1.489 . S
C1995 C1996 1.383 . S
C1995 C2000 1.382 . S
C1996 H1973 0.950 . S
C1996 C1995 1.383 . S
C1996 C1997 1.395 . S
C1997 H1974 0.950 . S
C1997 C1996 1.395 . S
C1997 C1998 1.288 . S
C1998 C1997 1.288 . S
C1998 C1999 1.392 . S
C1999 H1975 0.951 . S
C1999 C1998 1.392 . S
C1999 C2000 1.392 . S
C2000 H1976 0.949 . S
C2000 C1995 1.382 . S
C2000 C1999 1.392 . S
C2001 C2002 1.376 . S
C2001 C2006 1.386 . S
C2001 C2007 1.483 . S
C2002 H1977 0.949 . S
C2002 C2001 1.376 . S
C2002 C2003 1.397 . S
C2003 H1978 0.950 . S
C2003 C2002 1.397 . S
C2003 C2004 1.391 . S
C2004 C2003 1.391 . S
C2004 C2005 1.405 . S
C2005 H1979 0.950 . S
C2005 C2004 1.405 . S
C2005 C2006 1.367 . S
C2006 H1980 0.950 . S
C2006 C2001 1.386 . S
C2006 C2005 1.367 . S
C2007 C2001 1.483 . S
C2007 C2008 1.382 . S
C2007 C2009 1.403 . S
C2008 H1981 0.950 . S
C2008 C1994 1.411 . S
C2008 C2007 1.382 . S
C2009 C1993 1.411 . S
C2009 C2007 1.403 . S
C2009 C2010 1.489 . S
C2010 C2009 1.489 . S
C2010 C2011 1.383 . S
C2010 C2015 1.382 . S
C2011 H1982 0.950 . S
C2011 C2010 1.383 . S
C2011 C2012 1.395 . S
C2012 H1983 0.950 . S
C2012 C2011 1.395 . S
C2012 C2013 1.288 . S
C2013 C2012 1.288 . S
C2013 C2014 1.392 . S
C2014 H1984 0.951 . S
C2014 C2013 1.392 . S
C2014 C2015 1.392 . S
C2015 H1985 0.949 . S
C2015 C2010 1.382 . S
C2015 C2014 1.392 . S
H2016 C2035 0.949 . S
H2017 C2036 0.950 . S
H2018 C2038 0.950 . S
H2019 C2039 0.950 . S
H2020 C2041 0.950 . S
H2021 C2044 0.950 . S
H2022 C2045 0.950 . S
H2023 C2047 0.951 . S
H2024 C2048 0.949 . S
H2025 C2050 0.949 . S
H2026 C2051 0.950 . S
H2027 C2053 0.950 . S
H2028 C2054 0.950 . S
H2029 C2056 0.950 . S
H2030 C2059 0.950 . S
H2031 C2060 0.950 . S
H2032 C2062 0.951 . S
H2033 C2063 0.949 . S
C2034 C2035 1.376 . S
C2034 C2039 1.386 1_655 S
C2034 C2040 1.483 . S
C2035 H2016 0.949 . S
C2035 C2034 1.376 . S
C2035 C2036 1.397 . S
C2036 H2017 0.950 . S
C2036 C2035 1.397 . S
C2036 C2037 1.391 . S
C2037 C2036 1.391 . S
C2037 C2038 1.405 1_655 S
C2038 H2018 0.950 . S
C2038 C2037 1.405 1_455 S
C2038 C2039 1.367 . S
C2039 H2019 0.950 . S
C2039 C2034 1.386 1_455 S
C2039 C2038 1.367 . S
C2040 C2034 1.483 . S
C2040 C2041 1.382 . S
C2040 C2042 1.403 1_655 S
C2041 H2020 0.950 . S
C2041 C2040 1.382 . S
C2041 C2057 1.411 . S
C2042 C2040 1.403 1_455 S
C2042 C2043 1.489 . S
C2042 C2056 1.411 . S
C2043 C2042 1.489 . S
C2043 C2044 1.383 1_455 S
C2043 C2048 1.382 . S
C2044 H2021 0.950 . S
C2044 C2043 1.383 1_655 S
C2044 C2045 1.395 . S
C2045 H2022 0.950 . S
C2045 C2044 1.395 . S
C2045 C2046 1.288 1_655 S
C2046 C2045 1.288 1_455 S
C2046 C2047 1.392 . S
C2047 H2023 0.951 . S
C2047 C2046 1.392 . S
C2047 C2048 1.392 . S
C2048 H2024 0.949 . S
C2048 C2043 1.382 . S
C2048 C2047 1.392 . S
C2049 C2050 1.376 . S
C2049 C2054 1.386 1_455 S
C2049 C2055 1.483 . S
C2050 H2025 0.949 . S
C2050 C2049 1.376 . S
C2050 C2051 1.397 . S
C2051 H2026 0.950 . S
C2051 C2050 1.397 . S
C2051 C2052 1.391 . S
C2052 C2051 1.391 . S
C2052 C2053 1.405 1_455 S
C2053 H2027 0.950 . S
C2053 C2052 1.405 1_655 S
C2053 C2054 1.367 . S
C2054 H2028 0.950 . S
C2054 C2049 1.386 1_655 S
C2054 C2053 1.367 . S
C2055 C2049 1.483 . S
C2055 C2056 1.382 . S
C2055 C2057 1.403 1_455 S
C2056 H2029 0.950 . S
C2056 C2042 1.411 . S
C2056 C2055 1.382 . S
C2057 C2041 1.411 . S
C2057 C2055 1.403 1_655 S
C2057 C2058 1.489 . S
C2058 C2057 1.489 . S
C2058 C2059 1.383 1_655 S
C2058 C2063 1.382 . S
C2059 H2030 0.950 . S
C2059 C2058 1.383 1_455 S
C2059 C2060 1.395 . S
C2060 H2031 0.950 . S
C2060 C2059 1.395 . S
C2060 C2061 1.288 1_455 S
C2061 C2060 1.288 1_655 S
C2061 C2062 1.392 . S
C2062 H2032 0.951 . S
C2062 C2061 1.392 . S
C2062 C2063 1.392 . S
C2063 H2033 0.949 . S
C2063 C2058 1.382 . S
C2063 C2062 1.392 . S
H2064 C2083 0.949 . S
H2065 C2084 0.950 . S
H2066 C2086 0.950 . S
H2067 C2087 0.950 . S
H2068 C2089 0.950 . S
H2069 C2092 0.950 . S
H2070 C2093 0.950 . S
H2071 C2095 0.951 . S
H2072 C2096 0.949 . S
H2073 C2098 0.949 . S
H2074 C2099 0.950 . S
H2075 C2101 0.950 . S
H2076 C2102 0.950 . S
H2077 C2104 0.950 . S
H2078 C2107 0.950 . S
H2079 C2108 0.950 . S
H2080 C2110 0.951 . S
H2081 C2111 0.949 . S
C2082 C2083 1.376 . S
C2082 C2087 1.386 . S
C2082 C2088 1.483 . S
C2083 H2064 0.949 . S
C2083 C2082 1.376 . S
C2083 C2084 1.397 . S
C2084 H2065 0.950 . S
C2084 C2083 1.397 . S
C2084 C2085 1.391 . S
C2085 C2084 1.391 . S
C2085 C2086 1.405 . S
C2086 H2066 0.950 . S
C2086 C2085 1.405 . S
C2086 C2087 1.367 . S
C2087 H2067 0.950 . S
C2087 C2082 1.386 . S
C2087 C2086 1.367 . S
C2088 C2082 1.483 . S
C2088 C2089 1.382 . S
C2088 C2090 1.403 . S
C2089 H2068 0.950 . S
C2089 C2088 1.382 . S
C2089 C2105 1.411 . S
C2090 C2088 1.403 . S
C2090 C2091 1.489 . S
C2090 C2104 1.411 . S
C2091 C2090 1.489 . S
C2091 C2092 1.383 . S
C2091 C2096 1.382 . S
C2092 H2069 0.950 . S
C2092 C2091 1.383 . S
C2092 C2093 1.395 . S
C2093 H2070 0.950 . S
C2093 C2092 1.395 . S
C2093 C2094 1.288 . S
C2094 C2093 1.288 . S
C2094 C2095 1.392 . S
C2095 H2071 0.951 . S
C2095 C2094 1.392 . S
C2095 C2096 1.392 . S
C2096 H2072 0.949 . S
C2096 C2091 1.382 . S
C2096 C2095 1.392 . S
C2097 C2098 1.376 . S
C2097 C2102 1.386 . S
C2097 C2103 1.483 . S
C2098 H2073 0.949 . S
C2098 C2097 1.376 . S
C2098 C2099 1.397 . S
C2099 H2074 0.950 . S
C2099 C2098 1.397 . S
C2099 C2100 1.391 . S
C2100 C2099 1.391 . S
C2100 C2101 1.405 . S
C2101 H2075 0.950 . S
C2101 C2100 1.405 . S
C2101 C2102 1.367 . S
C2102 H2076 0.950 . S
C2102 C2097 1.386 . S
C2102 C2101 1.367 . S
C2103 C2097 1.483 . S
C2103 C2104 1.382 . S
C2103 C2105 1.403 . S
C2104 H2077 0.950 . S
C2104 C2090 1.411 . S
C2104 C2103 1.382 . S
C2105 C2089 1.411 . S
C2105 C2103 1.403 . S
C2105 C2106 1.489 . S
C2106 C2105 1.489 . S
C2106 C2107 1.383 . S
C2106 C2111 1.382 . S
C2107 H2078 0.950 . S
C2107 C2106 1.383 . S
C2107 C2108 1.395 . S
C2108 H2079 0.950 . S
C2108 C2107 1.395 . S
C2108 C2109 1.288 . S
C2109 C2108 1.288 . S
C2109 C2110 1.392 . S
C2110 H2080 0.951 . S
C2110 C2109 1.392 . S
C2110 C2111 1.392 . S
C2111 H2081 0.949 . S
C2111 C2106 1.382 . S
C2111 C2110 1.392 . S
H2112 C2131 0.949 . S
H2113 C2132 0.950 . S
H2114 C2134 0.950 . S
H2115 C2135 0.950 . S
H2116 C2137 0.950 . S
H2117 C2140 0.950 . S
H2118 C2141 0.950 . S
H2119 C2143 0.951 . S
H2120 C2144 0.949 . S
H2121 C2146 0.949 . S
H2122 C2147 0.950 . S
H2123 C2149 0.950 . S
H2124 C2150 0.950 . S
H2125 C2152 0.950 . S
H2126 C2155 0.950 . S
H2127 C2156 0.950 . S
H2128 C2158 0.951 . S
H2129 C2159 0.949 . S
C2130 C2131 1.376 . S
C2130 C2135 1.386 1_545 S
C2130 C2136 1.483 . S
C2131 H2112 0.949 . S
C2131 C2130 1.376 . S
C2131 C2132 1.397 . S
C2132 H2113 0.950 . S
C2132 C2131 1.397 . S
C2132 C2133 1.391 . S
C2133 C2132 1.391 . S
C2133 C2134 1.405 1_545 S
C2134 H2114 0.950 . S
C2134 C2133 1.405 1_565 S
C2134 C2135 1.367 . S
C2135 H2115 0.950 . S
C2135 C2130 1.386 1_565 S
C2135 C2134 1.367 . S
C2136 C2130 1.483 . S
C2136 C2137 1.382 . S
C2136 C2138 1.403 1_545 S
C2137 H2116 0.950 . S
C2137 C2136 1.382 . S
C2137 C2153 1.411 . S
C2138 C2136 1.403 1_565 S
C2138 C2139 1.489 . S
C2138 C2152 1.411 . S
C2139 C2138 1.489 . S
C2139 C2140 1.383 1_565 S
C2139 C2144 1.382 . S
C2140 H2117 0.950 . S
C2140 C2139 1.383 1_545 S
C2140 C2141 1.395 . S
C2141 H2118 0.950 . S
C2141 C2140 1.395 . S
C2141 C2142 1.288 1_545 S
C2142 C2141 1.288 1_565 S
C2142 C2143 1.392 . S
C2143 H2119 0.951 . S
C2143 C2142 1.392 . S
C2143 C2144 1.392 . S
C2144 H2120 0.949 . S
C2144 C2139 1.382 . S
C2144 C2143 1.392 . S
C2145 C2146 1.376 . S
C2145 C2150 1.386 1_565 S
C2145 C2151 1.483 . S
C2146 H2121 0.949 . S
C2146 C2145 1.376 . S
C2146 C2147 1.397 . S
C2147 H2122 0.950 . S
C2147 C2146 1.397 . S
C2147 C2148 1.391 . S
C2148 C2147 1.391 . S
C2148 C2149 1.405 1_565 S
C2149 H2123 0.950 . S
C2149 C2148 1.405 1_545 S
C2149 C2150 1.367 . S
C2150 H2124 0.950 . S
C2150 C2145 1.386 1_545 S
C2150 C2149 1.367 . S
C2151 C2145 1.483 . S
C2151 C2152 1.382 . S
C2151 C2153 1.403 1_565 S
C2152 H2125 0.950 . S
C2152 C2138 1.411 . S
C2152 C2151 1.382 . S
C2153 C2137 1.411 . S
C2153 C2151 1.403 1_545 S
C2153 C2154 1.489 . S
C2154 C2153 1.489 . S
C2154 C2155 1.383 1_545 S
C2154 C2159 1.382 . S
C2155 H2126 0.950 . S
C2155 C2154 1.383 1_565 S
C2155 C2156 1.395 . S
C2156 H2127 0.950 . S
C2156 C2155 1.395 . S
C2156 C2157 1.288 1_565 S
C2157 C2156 1.288 1_545 S
C2157 C2158 1.392 . S
C2158 H2128 0.951 . S
C2158 C2157 1.392 . S
C2158 C2159 1.392 . S
C2159 H2129 0.949 . S
C2159 C2154 1.382 . S
C2159 C2158 1.392 . S
H2160 C2179 0.949 . S
H2161 C2180 0.950 . S
H2162 C2182 0.950 . S
H2163 C2183 0.950 . S
H2164 C2185 0.950 . S
H2165 C2188 0.950 . S
H2166 C2189 0.950 . S
H2167 C2191 0.951 . S
H2168 C2192 0.949 . S
H2169 C2194 0.949 . S
H2170 C2195 0.950 . S
H2171 C2197 0.950 . S
H2172 C2198 0.950 . S
H2173 C2200 0.966 . S
H2174 C2203 0.950 . S
H2175 C2204 0.950 . S
H2176 C2206 0.951 . S
H2177 C2207 0.949 . S
C2178 C2179 1.378 . S
C2178 C2183 1.385 1_545 S
C2178 C2184 1.506 . S
C2179 H2160 0.949 . S
C2179 C2178 1.378 . S
C2179 C2180 1.397 . S
C2180 H2161 0.950 . S
C2180 C2179 1.397 . S
C2180 C2181 1.391 1_545 S
C2181 C2180 1.391 1_565 S
C2181 C2182 1.405 . S
C2182 H2162 0.950 . S
C2182 C2181 1.405 . S
C2182 C2183 1.367 . S
C2183 H2163 0.950 . S
C2183 C2178 1.385 1_565 S
C2183 C2182 1.367 . S
C2184 C2178 1.506 . S
C2184 C2185 1.359 . S
C2184 C2186 1.399 1_545 S
C2185 H2164 0.950 . S
C2185 C2184 1.359 . S
C2185 C2201 1.440 . S
C2186 C2184 1.399 1_565 S
C2186 C2187 1.480 . S
C2186 C2200 1.377 . S
C2187 C2186 1.480 . S
C2187 C2188 1.373 1_565 S
C2187 C2192 1.387 . S
C2188 H2165 0.950 . S
C2188 C2187 1.373 1_545 S
C2188 C2189 1.395 . S
C2189 H2166 0.950 . S
C2189 C2188 1.395 . S
C2189 C2190 1.288 . S
C2190 C2189 1.288 . S
C2190 C2191 1.392 1_545 S
C2191 H2167 0.951 . S
C2191 C2190 1.392 1_565 S
C2191 C2192 1.392 . S
C2192 H2168 0.949 . S
C2192 C2187 1.387 . S
C2192 C2191 1.392 . S
C2193 C2194 1.378 1_545 S
C2193 C2198 1.385 . S
C2193 C2199 1.495 1_545 S
C2194 H2169 0.949 . S
C2194 C2193 1.378 1_565 S
C2194 C2195 1.397 . S
C2195 H2170 0.950 . S
C2195 C2194 1.397 . S
C2195 C2196 1.391 1_565 S
C2196 C2195 1.391 1_545 S
C2196 C2197 1.405 . S
C2197 H2171 0.950 . S
C2197 C2196 1.405 . S
C2197 C2198 1.367 . S
C2198 H2172 0.950 . S
C2198 C2193 1.385 . S
C2198 C2197 1.367 . S
C2199 C2193 1.495 1_565 S
C2199 C2200 1.412 . S
C2199 C2201 1.399 1_565 S
C2200 H2173 0.966 . S
C2200 C2186 1.377 . S
C2200 C2199 1.412 . S
C2201 C2185 1.440 . S
C2201 C2199 1.399 1_545 S
C2201 C2202 1.480 . S
C2202 C2201 1.480 . S
C2202 C2203 1.348 1_545 S
C2202 C2207 1.400 . S
C2203 H2174 0.950 . S
C2203 C2202 1.348 1_565 S
C2203 C2204 1.395 . S
C2204 H2175 0.950 . S
C2204 C2203 1.395 . S
C2204 C2205 1.346 . S
C2205 C2204 1.346 . S
C2205 C2206 1.282 1_565 S
C2206 H2176 0.951 . S
C2206 C2205 1.282 1_545 S
C2206 C2207 1.392 . S
C2207 H2177 0.949 . S
C2207 C2202 1.400 . S
C2207 C2206 1.392 . S
H2208 C2227 0.949 . S
H2209 C2228 0.950 . S
H2210 C2230 0.950 . S
H2211 C2231 0.950 . S
H2212 C2233 0.950 . S
H2213 C2236 0.950 . S
H2214 C2237 0.950 . S
H2215 C2239 0.951 . S
H2216 C2240 0.949 . S
H2217 C2242 0.949 . S
H2218 C2243 0.950 . S
H2219 C2245 0.950 . S
H2220 C2246 0.950 . S
H2221 C2248 0.950 . S
H2222 C2251 0.950 . S
H2223 C2252 0.950 . S
H2224 C2254 0.951 . S
H2225 C2255 0.949 . S
C2226 C2227 1.376 . S
C2226 C2231 1.386 1_455 S
C2226 C2232 1.483 . S
C2227 H2208 0.949 . S
C2227 C2226 1.376 . S
C2227 C2228 1.397 . S
C2228 H2209 0.950 . S
C2228 C2227 1.397 . S
C2228 C2229 1.391 . S
C2229 C2228 1.391 . S
C2229 C2230 1.405 1_455 S
C2230 H2210 0.950 . S
C2230 C2229 1.405 1_655 S
C2230 C2231 1.367 . S
C2231 H2211 0.950 . S
C2231 C2226 1.386 1_655 S
C2231 C2230 1.367 . S
C2232 C2226 1.483 . S
C2232 C2233 1.382 . S
C2232 C2234 1.403 1_455 S
C2233 H2212 0.950 . S
C2233 C2232 1.382 . S
C2233 C2249 1.411 . S
C2234 C2232 1.403 1_655 S
C2234 C2235 1.489 . S
C2234 C2248 1.411 . S
C2235 C2234 1.489 . S
C2235 C2236 1.383 1_655 S
C2235 C2240 1.382 . S
C2236 H2213 0.950 . S
C2236 C2235 1.383 1_455 S
C2236 C2237 1.395 . S
C2237 H2214 0.950 . S
C2237 C2236 1.395 . S
C2237 C2238 1.288 1_455 S
C2238 C2237 1.288 1_655 S
C2238 C2239 1.392 . S
C2239 H2215 0.951 . S
C2239 C2238 1.392 . S
C2239 C2240 1.392 . S
C2240 H2216 0.949 . S
C2240 C2235 1.382 . S
C2240 C2239 1.392 . S
C2241 C2242 1.376 . S
C2241 C2246 1.386 1_655 S
C2241 C2247 1.483 . S
C2242 H2217 0.949 . S
C2242 C2241 1.376 . S
C2242 C2243 1.397 . S
C2243 H2218 0.950 . S
C2243 C2242 1.397 . S
C2243 C2244 1.391 . S
C2244 C2243 1.391 . S
C2244 C2245 1.405 1_655 S
C2245 H2219 0.950 . S
C2245 C2244 1.405 1_455 S
C2245 C2246 1.367 . S
C2246 H2220 0.950 . S
C2246 C2241 1.386 1_455 S
C2246 C2245 1.367 . S
C2247 C2241 1.483 . S
C2247 C2248 1.382 . S
C2247 C2249 1.403 1_655 S
C2248 H2221 0.950 . S
C2248 C2234 1.411 . S
C2248 C2247 1.382 . S
C2249 C2233 1.411 . S
C2249 C2247 1.403 1_455 S
C2249 C2250 1.489 . S
C2250 C2249 1.489 . S
C2250 C2251 1.383 1_455 S
C2250 C2255 1.382 . S
C2251 H2222 0.950 . S
C2251 C2250 1.383 1_655 S
C2251 C2252 1.395 . S
C2252 H2223 0.950 . S
C2252 C2251 1.395 . S
C2252 C2253 1.288 1_655 S
C2253 C2252 1.288 1_455 S
C2253 C2254 1.392 . S
C2254 H2224 0.951 . S
C2254 C2253 1.392 . S
C2254 C2255 1.392 . S
C2255 H2225 0.949 . S
C2255 C2250 1.382 . S
C2255 C2254 1.392 . S
H2256 C2275 0.949 . S
H2257 C2276 0.950 . S
H2258 C2278 0.950 . S
H2259 C2279 0.950 . S
H2260 C2281 0.950 . S
H2261 C2284 0.950 . S
H2262 C2285 0.950 . S
H2263 C2287 0.951 . S
H2264 C2288 0.949 . S
H2265 C2290 0.949 . S
H2266 C2291 0.950 . S
H2267 C2293 0.950 . S
H2268 C2294 0.950 . S
H2269 C2296 0.950 . S
H2270 C2299 0.950 . S
H2271 C2300 0.950 . S
H2272 C2302 0.951 . S
H2273 C2303 0.949 . S
C2274 C2275 1.376 . S
C2274 C2279 1.386 . S
C2274 C2280 1.483 . S
C2275 H2256 0.949 . S
C2275 C2274 1.376 . S
C2275 C2276 1.397 . S
C2276 H2257 0.950 . S
C2276 C2275 1.397 . S
C2276 C2277 1.391 . S
C2277 C2276 1.391 . S
C2277 C2278 1.405 . S
C2278 H2258 0.950 . S
C2278 C2277 1.405 . S
C2278 C2279 1.367 . S
C2279 H2259 0.950 . S
C2279 C2274 1.386 . S
C2279 C2278 1.367 . S
C2280 C2274 1.483 . S
C2280 C2281 1.382 . S
C2280 C2282 1.403 . S
C2281 H2260 0.950 . S
C2281 C2280 1.382 . S
C2281 C2297 1.411 . S
C2282 C2280 1.403 . S
C2282 C2283 1.489 . S
C2282 C2296 1.411 . S
C2283 C2282 1.489 . S
C2283 C2284 1.383 . S
C2283 C2288 1.382 . S
C2284 H2261 0.950 . S
C2284 C2283 1.383 . S
C2284 C2285 1.395 . S
C2285 H2262 0.950 . S
C2285 C2284 1.395 . S
C2285 C2286 1.288 . S
C2286 C2285 1.288 . S
C2286 C2287 1.392 . S
C2287 H2263 0.951 . S
C2287 C2286 1.392 . S
C2287 C2288 1.392 . S
C2288 H2264 0.949 . S
C2288 C2283 1.382 . S
C2288 C2287 1.392 . S
C2289 C2290 1.376 . S
C2289 C2294 1.386 . S
C2289 C2295 1.483 . S
C2290 H2265 0.949 . S
C2290 C2289 1.376 . S
C2290 C2291 1.397 . S
C2291 H2266 0.950 . S
C2291 C2290 1.397 . S
C2291 C2292 1.391 . S
C2292 C2291 1.391 . S
C2292 C2293 1.405 . S
C2293 H2267 0.950 . S
C2293 C2292 1.405 . S
C2293 C2294 1.367 . S
C2294 H2268 0.950 . S
C2294 C2289 1.386 . S
C2294 C2293 1.367 . S
C2295 C2289 1.483 . S
C2295 C2296 1.382 . S
C2295 C2297 1.403 . S
C2296 H2269 0.950 . S
C2296 C2282 1.411 . S
C2296 C2295 1.382 . S
C2297 C2281 1.411 . S
C2297 C2295 1.403 . S
C2297 C2298 1.489 . S
C2298 C2297 1.489 . S
C2298 C2299 1.383 . S
C2298 C2303 1.382 . S
C2299 H2270 0.950 . S
C2299 C2298 1.383 . S
C2299 C2300 1.395 . S
C2300 H2271 0.950 . S
C2300 C2299 1.395 . S
C2300 C2301 1.288 . S
C2301 C2300 1.288 . S
C2301 C2302 1.392 . S
C2302 H2272 0.951 . S
C2302 C2301 1.392 . S
C2302 C2303 1.392 . S
C2303 H2273 0.949 . S
C2303 C2298 1.382 . S
C2303 C2302 1.392 . S
H2304 C2323 0.949 . S
H2305 C2324 0.950 . S
H2306 C2326 0.950 . S
H2307 C2327 0.950 . S
H2308 C2329 0.950 . S
H2309 C2332 0.950 . S
H2310 C2333 0.950 . S
H2311 C2335 0.951 . S
H2312 C2336 0.949 . S
H2313 C2338 0.949 . S
H2314 C2339 0.950 . S
H2315 C2341 0.950 . S
H2316 C2342 0.950 . S
H2317 C2344 0.950 . S
H2318 C2347 0.950 . S
H2319 C2348 0.950 . S
H2320 C2350 0.951 . S
H2321 C2351 0.949 . S
C2322 C2323 1.376 . S
C2322 C2327 1.386 . S
C2322 C2328 1.483 . S
C2323 H2304 0.949 . S
C2323 C2322 1.376 . S
C2323 C2324 1.397 . S
C2324 H2305 0.950 . S
C2324 C2323 1.397 . S
C2324 C2325 1.391 . S
C2325 C2324 1.391 . S
C2325 C2326 1.405 . S
C2326 H2306 0.950 . S
C2326 C2325 1.405 . S
C2326 C2327 1.367 . S
C2327 H2307 0.950 . S
C2327 C2322 1.386 . S
C2327 C2326 1.367 . S
C2328 C2322 1.483 . S
C2328 C2329 1.382 . S
C2328 C2330 1.403 . S
C2329 H2308 0.950 . S
C2329 C2328 1.382 . S
C2329 C2345 1.411 . S
C2330 C2328 1.403 . S
C2330 C2331 1.489 . S
C2330 C2344 1.411 . S
C2331 C2330 1.489 . S
C2331 C2332 1.383 . S
C2331 C2336 1.382 . S
C2332 H2309 0.950 . S
C2332 C2331 1.383 . S
C2332 C2333 1.395 . S
C2333 H2310 0.950 . S
C2333 C2332 1.395 . S
C2333 C2334 1.288 . S
C2334 C2333 1.288 . S
C2334 C2335 1.392 . S
C2335 H2311 0.951 . S
C2335 C2334 1.392 . S
C2335 C2336 1.392 . S
C2336 H2312 0.949 . S
C2336 C2331 1.382 . S
C2336 C2335 1.392 . S
C2337 C2338 1.376 . S
C2337 C2342 1.386 . S
C2337 C2343 1.483 . S
C2338 H2313 0.949 . S
C2338 C2337 1.376 . S
C2338 C2339 1.397 . S
C2339 H2314 0.950 . S
C2339 C2338 1.397 . S
C2339 C2340 1.391 . S
C2340 C2339 1.391 . S
C2340 C2341 1.405 . S
C2341 H2315 0.950 . S
C2341 C2340 1.405 . S
C2341 C2342 1.367 . S
C2342 H2316 0.950 . S
C2342 C2337 1.386 . S
C2342 C2341 1.367 . S
C2343 C2337 1.483 . S
C2343 C2344 1.382 . S
C2343 C2345 1.403 . S
C2344 H2317 0.950 . S
C2344 C2330 1.411 . S
C2344 C2343 1.382 . S
C2345 C2329 1.411 . S
C2345 C2343 1.403 . S
C2345 C2346 1.489 . S
C2346 C2345 1.489 . S
C2346 C2347 1.383 . S
C2346 C2351 1.382 . S
C2347 H2318 0.950 . S
C2347 C2346 1.383 . S
C2347 C2348 1.395 . S
C2348 H2319 0.950 . S
C2348 C2347 1.395 . S
C2348 C2349 1.288 . S
C2349 C2348 1.288 . S
C2349 C2350 1.392 . S
C2350 H2320 0.951 . S
C2350 C2349 1.392 . S
C2350 C2351 1.392 . S
C2351 H2321 0.949 . S
C2351 C2346 1.382 . S
C2351 C2350 1.392 . S
H2352 C2371 0.949 . S
H2353 C2372 0.950 . S
H2354 C2374 0.950 . S
H2355 C2375 0.950 . S
H2356 C2377 0.950 . S
H2357 C2380 0.950 . S
H2358 C2381 0.950 . S
H2359 C2383 0.951 . S
H2360 C2384 0.949 . S
H2361 C2386 0.949 . S
H2362 C2387 0.950 . S
H2363 C2389 0.950 . S
H2364 C2390 0.950 . S
H2365 C2392 0.950 . S
H2366 C2395 0.950 . S
H2367 C2396 0.950 . S
H2368 C2398 0.951 . S
H2369 C2399 0.949 . S
C2370 C2371 1.376 . S
C2370 C2375 1.386 . S
C2370 C2376 1.483 . S
C2371 H2352 0.949 . S
C2371 C2370 1.376 . S
C2371 C2372 1.397 . S
C2372 H2353 0.950 . S
C2372 C2371 1.397 . S
C2372 C2373 1.391 . S
C2373 C2372 1.391 . S
C2373 C2374 1.405 . S
C2374 H2354 0.950 . S
C2374 C2373 1.405 . S
C2374 C2375 1.367 . S
C2375 H2355 0.950 . S
C2375 C2370 1.386 . S
C2375 C2374 1.367 . S
C2376 C2370 1.483 . S
C2376 C2377 1.382 . S
C2376 C2378 1.403 . S
C2377 H2356 0.950 . S
C2377 C2376 1.382 . S
C2377 C2393 1.411 . S
C2378 C2376 1.403 . S
C2378 C2379 1.489 . S
C2378 C2392 1.411 . S
C2379 C2378 1.489 . S
C2379 C2380 1.383 . S
C2379 C2384 1.382 . S
C2380 H2357 0.950 . S
C2380 C2379 1.383 . S
C2380 C2381 1.395 . S
C2381 H2358 0.950 . S
C2381 C2380 1.395 . S
C2381 C2382 1.288 . S
C2382 C2381 1.288 . S
C2382 C2383 1.392 . S
C2383 H2359 0.951 . S
C2383 C2382 1.392 . S
C2383 C2384 1.392 . S
C2384 H2360 0.949 . S
C2384 C2379 1.382 . S
C2384 C2383 1.392 . S
C2385 C2386 1.376 . S
C2385 C2390 1.386 . S
C2385 C2391 1.483 . S
C2386 H2361 0.949 . S
C2386 C2385 1.376 . S
C2386 C2387 1.397 . S
C2387 H2362 0.950 . S
C2387 C2386 1.397 . S
C2387 C2388 1.391 . S
C2388 C2387 1.391 . S
C2388 C2389 1.405 . S
C2389 H2363 0.950 . S
C2389 C2388 1.405 . S
C2389 C2390 1.367 . S
C2390 H2364 0.950 . S
C2390 C2385 1.386 . S
C2390 C2389 1.367 . S
C2391 C2385 1.483 . S
C2391 C2392 1.382 . S
C2391 C2393 1.403 . S
C2392 H2365 0.950 . S
C2392 C2378 1.411 . S
C2392 C2391 1.382 . S
C2393 C2377 1.411 . S
C2393 C2391 1.403 . S
C2393 C2394 1.489 . S
C2394 C2393 1.489 . S
C2394 C2395 1.383 . S
C2394 C2399 1.382 . S
C2395 H2366 0.950 . S
C2395 C2394 1.383 . S
C2395 C2396 1.395 . S
C2396 H2367 0.950 . S
C2396 C2395 1.395 . S
C2396 C2397 1.288 . S
C2397 C2396 1.288 . S
C2397 C2398 1.392 . S
C2398 H2368 0.951 . S
C2398 C2397 1.392 . S
C2398 C2399 1.392 . S
C2399 H2369 0.949 . S
C2399 C2394 1.382 . S
C2399 C2398 1.392 . S
H2400 C2419 0.949 . S
H2401 C2420 0.950 . S
H2402 C2422 0.950 . S
H2403 C2423 0.950 . S
H2404 C2425 0.950 . S
H2405 C2428 0.950 . S
H2406 C2429 0.950 . S
H2407 C2431 0.951 . S
H2408 C2432 0.949 . S
H2409 C2434 0.949 . S
H2410 C2435 0.950 . S
H2411 C2437 0.950 . S
H2412 C2438 0.950 . S
H2413 C2440 0.950 . S
H2414 C2443 0.950 . S
H2415 C2444 0.950 . S
H2416 C2446 0.951 . S
H2417 C2447 0.949 . S
C2418 C2419 1.376 . S
C2418 C2423 1.386 . S
C2418 C2424 1.483 . S
C2419 H2400 0.949 . S
C2419 C2418 1.376 . S
C2419 C2420 1.397 . S
C2420 H2401 0.950 . S
C2420 C2419 1.397 . S
C2420 C2421 1.391 . S
C2421 C2420 1.391 . S
C2421 C2422 1.405 . S
C2422 H2402 0.950 . S
C2422 C2421 1.405 . S
C2422 C2423 1.367 . S
C2423 H2403 0.950 . S
C2423 C2418 1.386 . S
C2423 C2422 1.367 . S
C2424 C2418 1.483 . S
C2424 C2425 1.382 . S
C2424 C2426 1.403 . S
C2425 H2404 0.950 . S
C2425 C2424 1.382 . S
C2425 C2441 1.411 . S
C2426 C2424 1.403 . S
C2426 C2427 1.489 . S
C2426 C2440 1.411 . S
C2427 C2426 1.489 . S
C2427 C2428 1.383 . S
C2427 C2432 1.382 . S
C2428 H2405 0.950 . S
C2428 C2427 1.383 . S
C2428 C2429 1.395 . S
C2429 H2406 0.950 . S
C2429 C2428 1.395 . S
C2429 C2430 1.288 . S
C2430 C2429 1.288 . S
C2430 C2431 1.392 . S
C2431 H2407 0.951 . S
C2431 C2430 1.392 . S
C2431 C2432 1.392 . S
C2432 H2408 0.949 . S
C2432 C2427 1.382 . S
C2432 C2431 1.392 . S
C2433 C2434 1.376 . S
C2433 C2438 1.386 . S
C2433 C2439 1.483 . S
C2434 H2409 0.949 . S
C2434 C2433 1.376 . S
C2434 C2435 1.397 . S
C2435 H2410 0.950 . S
C2435 C2434 1.397 . S
C2435 C2436 1.391 . S
C2436 C2435 1.391 . S
C2436 C2437 1.405 . S
C2437 H2411 0.950 . S
C2437 C2436 1.405 . S
C2437 C2438 1.367 . S
C2438 H2412 0.950 . S
C2438 C2433 1.386 . S
C2438 C2437 1.367 . S
C2439 C2433 1.483 . S
C2439 C2440 1.382 . S
C2439 C2441 1.403 . S
C2440 H2413 0.950 . S
C2440 C2426 1.411 . S
C2440 C2439 1.382 . S
C2441 C2425 1.411 . S
C2441 C2439 1.403 . S
C2441 C2442 1.489 . S
C2442 C2441 1.489 . S
C2442 C2443 1.383 . S
C2442 C2447 1.382 . S
C2443 H2414 0.950 . S
C2443 C2442 1.383 . S
C2443 C2444 1.395 . S
C2444 H2415 0.950 . S
C2444 C2443 1.395 . S
C2444 C2445 1.288 . S
C2445 C2444 1.288 . S
C2445 C2446 1.392 . S
C2446 H2416 0.951 . S
C2446 C2445 1.392 . S
C2446 C2447 1.392 . S
C2447 H2417 0.949 . S
C2447 C2442 1.382 . S
C2447 C2446 1.392 . S
H2448 C2456 0.929 . S
H2449 C2458 0.930 . S
H2450 C2460 0.930 1_455 S
H2451 C2463 0.929 1_455 S
H2452 C2466 0.930 . S
H2453 C2468 0.963 1_455 S
H2454 C2468 0.975 . S
H2455 C2468 0.938 1_455 S
C2456 H2448 0.929 . S
C2456 C2457 1.377 . S
C2456 C2458 1.384 . S
C2457 C2456 1.377 . S
C2457 C2463 1.390 . S
C2458 H2449 0.930 . S
C2458 C2456 1.384 . S
C2458 C2459 1.372 . S
C2459 C2458 1.372 . S
C2459 C2460 1.400 . S
C2459 C2464 1.490 . S
C2460 H2450 0.930 1_655 S
C2460 C2459 1.400 . S
C2460 C2463 1.386 . S
H2461 C2477 0.930 . S
H2462 C2478 0.931 . S
C2463 H2451 0.929 1_655 S
C2463 C2457 1.390 . S
C2463 C2460 1.386 . S
C2464 C2459 1.490 . S
C2464 C2466 1.395 . S
C2464 C2467 1.403 . S
H2465 C2471 0.930 . S
C2466 H2452 0.930 . S
C2466 C2464 1.395 . S
C2466 C2469 1.403 . S
C2467 C2464 1.403 . S
C2467 C2468 1.529 . S
C2467 C2471 1.400 . S
C2468 H2453 0.963 1_655 S
C2468 H2454 0.975 . S
C2468 H2455 0.938 1_655 S
C2468 C2467 1.529 . S
C2469 C2466 1.403 . S
C2469 C2470 1.392 . S
C2469 C2473 1.495 . S
C2470 C2469 1.392 . S
C2470 C2471 1.385 . S
C2470 C2472 1.478 . S
C2471 H2465 0.930 . S
C2471 C2467 1.400 . S
C2471 C2470 1.385 . S
C2472 C2470 1.478 . S
C2472 C2474 1.381 . S
C2472 C2478 1.383 1_655 S
C2473 C2469 1.495 . S
C2473 H2479 0.959 . S
C2473 H2480 0.961 . S
C2473 H2481 0.960 . S
C2474 C2472 1.381 . S
C2474 C2475 1.394 . S
C2474 H2482 0.930 . S
C2475 C2474 1.394 . S
C2475 C2476 1.383 . S
C2475 H2483 0.929 . S
C2476 C2475 1.383 . S
C2476 C2477 1.377 1_655 S
C2477 H2461 0.930 . S
C2477 C2476 1.377 1_455 S
C2477 C2478 1.379 . S
C2478 H2462 0.931 . S
C2478 C2472 1.383 1_455 S
C2478 C2477 1.379 . S
H2479 C2473 0.959 . S
H2480 C2473 0.961 . S
H2481 C2473 0.960 . S
H2482 C2474 0.930 . S
H2483 C2475 0.929 . S
H2484 C2492 0.929 . S
H2485 C2494 0.930 . S
H2486 C2496 0.930 . S
H2487 C2499 0.929 . S
H2488 C2502 0.930 . S
H2489 C2504 0.960 . S
H2490 C2504 0.960 . S
H2491 C2504 0.960 . S
C2492 H2484 0.929 . S
C2492 C2493 1.377 . S
C2492 C2494 1.384 . S
C2493 C2492 1.377 . S
C2493 C2499 1.390 . S
C2494 H2485 0.930 . S
C2494 C2492 1.384 . S
C2494 C2495 1.372 . S
C2495 C2494 1.372 . S
C2495 C2496 1.400 . S
C2495 C2500 1.490 . S
C2496 H2486 0.930 . S
C2496 C2495 1.400 . S
C2496 C2499 1.386 . S
H2497 C2513 0.930 . S
H2498 C2514 0.931 . S
C2499 H2487 0.929 . S
C2499 C2493 1.390 . S
C2499 C2496 1.386 . S
C2500 C2495 1.490 . S
C2500 C2502 1.395 . S
C2500 C2503 1.403 . S
H2501 C2507 0.930 . S
C2502 H2488 0.930 . S
C2502 C2500 1.395 . S
C2502 C2505 1.403 . S
C2503 C2500 1.403 . S
C2503 C2504 1.524 . S
C2503 C2507 1.400 . S
C2504 H2489 0.960 . S
C2504 H2490 0.960 . S
C2504 H2491 0.960 . S
C2504 C2503 1.524 . S
C2505 C2502 1.403 . S
C2505 C2506 1.392 . S
C2505 C2509 1.495 . S
C2506 C2505 1.392 . S
C2506 C2507 1.385 . S
C2506 C2508 1.478 . S
C2507 H2501 0.930 . S
C2507 C2503 1.400 . S
C2507 C2506 1.385 . S
C2508 C2506 1.478 . S
C2508 C2510 1.381 . S
C2508 C2514 1.383 . S
C2509 C2505 1.495 . S
C2509 H2515 0.959 . S
C2509 H2516 0.961 . S
C2509 H2517 0.960 . S
C2510 C2508 1.381 . S
C2510 C2511 1.394 . S
C2510 H2518 0.930 . S
C2511 C2510 1.394 . S
C2511 C2512 1.383 . S
C2511 H2519 0.929 . S
C2512 C2511 1.383 . S
C2512 C2513 1.377 . S
C2513 H2497 0.930 . S
C2513 C2512 1.377 . S
C2513 C2514 1.379 . S
C2514 H2498 0.931 . S
C2514 C2508 1.383 . S
C2514 C2513 1.379 . S
H2515 C2509 0.959 . S
H2516 C2509 0.961 . S
H2517 C2509 0.960 . S
H2518 C2510 0.930 . S
H2519 C2511 0.929 . S
H2520 C2528 0.929 1_565 S
H2521 C2530 0.930 1_565 S
H2522 C2532 0.930 . S
H2523 C2535 0.929 . S
H2524 C2538 0.930 . S
H2525 C2540 0.960 . S
H2526 C2540 0.960 . S
H2527 C2540 0.960 . S
C2528 H2520 0.929 1_545 S
C2528 C2529 1.377 . S
C2528 C2530 1.384 . S
C2529 C2528 1.377 . S
C2529 C2535 1.390 . S
C2530 H2521 0.930 1_545 S
C2530 C2528 1.384 . S
C2530 C2531 1.372 . S
C2531 C2530 1.372 . S
C2531 C2532 1.400 . S
C2531 C2536 1.490 . S
C2532 H2522 0.930 . S
C2532 C2531 1.400 . S
C2532 C2535 1.386 . S
H2533 C2549 0.930 . S
H2534 C2550 0.931 . S
C2535 H2523 0.929 . S
C2535 C2529 1.390 . S
C2535 C2532 1.386 . S
C2536 C2531 1.490 . S
C2536 C2538 1.395 . S
C2536 C2539 1.403 . S
H2537 C2543 0.930 . S
C2538 H2524 0.930 . S
C2538 C2536 1.395 . S
C2538 C2541 1.403 . S
C2539 C2536 1.403 . S
C2539 C2540 1.524 . S
C2539 C2543 1.400 . S
C2540 H2525 0.960 . S
C2540 H2526 0.960 . S
C2540 H2527 0.960 . S
C2540 C2539 1.524 . S
C2541 C2538 1.403 . S
C2541 C2542 1.392 . S
C2541 C2545 1.495 . S
C2542 C2541 1.392 . S
C2542 C2543 1.385 . S
C2542 C2544 1.478 . S
C2543 H2537 0.930 . S
C2543 C2539 1.400 . S
C2543 C2542 1.385 . S
C2544 C2542 1.478 . S
C2544 C2546 1.381 1_545 S
C2544 C2550 1.383 . S
C2545 C2541 1.495 . S
C2545 H2551 0.959 . S
C2545 H2552 0.961 . S
C2545 H2553 0.960 1_545 S
C2546 C2544 1.381 1_565 S
C2546 C2547 1.394 . S
C2546 H2554 0.930 . S
C2547 C2546 1.394 . S
C2547 C2548 1.383 1_565 S
C2547 H2555 0.929 . S
C2548 C2547 1.383 1_545 S
C2548 C2549 1.377 . S
C2549 H2533 0.930 . S
C2549 C2548 1.377 . S
C2549 C2550 1.379 . S
C2550 H2534 0.931 . S
C2550 C2544 1.383 . S
C2550 C2549 1.379 . S
H2551 C2545 0.959 . S
H2552 C2545 0.961 . S
H2553 C2545 0.960 1_565 S
H2554 C2546 0.930 . S
H2555 C2547 0.929 . S
H2556 C2564 0.929 . S
H2557 C2566 0.930 . S
H2558 C2568 0.930 . S
H2559 C2571 0.929 . S
H2560 C2574 0.930 . S
H2561 C2576 0.960 . S
H2562 C2576 0.960 . S
H2563 C2576 0.960 . S
C2564 H2556 0.929 . S
C2564 C2565 1.377 . S
C2564 C2566 1.384 . S
C2565 C2564 1.377 . S
C2565 C2571 1.390 . S
C2566 H2557 0.930 . S
C2566 C2564 1.384 . S
C2566 C2567 1.372 . S
C2567 C2566 1.372 . S
C2567 C2568 1.400 . S
C2567 C2572 1.490 . S
C2568 H2558 0.930 . S
C2568 C2567 1.400 . S
C2568 C2571 1.386 . S
H2569 C2585 0.958 . S
H2570 C2586 0.931 . S
C2571 H2559 0.929 . S
C2571 C2565 1.390 . S
C2571 C2568 1.386 . S
C2572 C2567 1.490 . S
C2572 C2574 1.395 . S
C2572 C2575 1.339 1_565 S
H2573 C2579 1.000 . S
C2574 H2560 0.930 . S
C2574 C2572 1.395 . S
C2574 C2577 1.403 . S
C2575 C2572 1.339 1_545 S
C2575 C2576 1.628 . S
C2575 C2579 1.401 . S
C2576 H2561 0.960 . S
C2576 H2562 0.960 . S
C2576 H2563 0.960 . S
C2576 C2575 1.628 . S
C2577 C2574 1.403 . S
C2577 C2578 1.392 . S
C2577 C2581 1.495 . S
C2578 C2577 1.392 . S
C2578 C2579 1.279 1_565 S
C2578 C2580 1.478 . S
C2579 H2573 1.000 . S
C2579 C2575 1.401 . S
C2579 C2578 1.279 1_545 S
C2580 C2578 1.478 . S
C2580 C2582 1.381 . S
C2580 C2586 1.383 . S
C2581 C2577 1.495 . S
C2581 H2587 0.959 . S
C2581 H2588 0.961 . S
C2581 H2589 0.960 . S
C2582 C2580 1.381 . S
C2582 C2583 1.394 . S
C2582 H2590 0.930 . S
C2583 C2582 1.394 . S
C2583 C2584 1.383 . S
C2583 H2591 0.929 . S
C2584 C2583 1.383 . S
C2584 C2585 1.377 . S
C2585 H2569 0.958 . S
C2585 C2584 1.377 . S
C2585 C2586 1.379 . S
C2586 H2570 0.931 . S
C2586 C2580 1.383 . S
C2586 C2585 1.379 . S
H2587 C2581 0.959 . S
H2588 C2581 0.961 . S
H2589 C2581 0.960 . S
H2590 C2582 0.930 . S
H2591 C2583 0.929 . S
H2592 C2600 0.929 . S
H2593 C2602 0.930 . S
H2594 C2604 0.930 . S
H2595 C2607 0.929 . S
H2596 C2610 0.930 . S
H2597 C2612 0.960 . S
H2598 C2612 0.960 . S
H2599 C2612 0.960 . S
C2600 H2592 0.929 . S
C2600 C2601 1.377 . S
C2600 C2602 1.384 . S
C2601 C2600 1.377 . S
C2601 C2607 1.390 . S
C2602 H2593 0.930 . S
C2602 C2600 1.384 . S
C2602 C2603 1.372 . S
C2603 C2602 1.372 . S
C2603 C2604 1.400 . S
C2603 C2608 1.490 . S
C2604 H2594 0.930 . S
C2604 C2603 1.400 . S
C2604 C2607 1.386 . S
H2605 C2621 0.922 1_655 S
H2606 C2622 0.931 . S
C2607 H2595 0.929 . S
C2607 C2601 1.390 . S
C2607 C2604 1.386 . S
C2608 C2603 1.490 . S
C2608 C2610 1.395 . S
C2608 C2611 1.433 . S
H2609 C2615 0.925 1_655 S
C2610 H2596 0.930 . S
C2610 C2608 1.395 . S
C2610 C2613 1.403 . S
C2611 C2608 1.433 . S
C2611 C2612 1.506 1_455 S
C2611 C2615 1.389 . S
C2612 H2597 0.960 . S
C2612 H2598 0.960 . S
C2612 H2599 0.960 . S
C2612 C2611 1.506 1_655 S
C2613 C2610 1.403 . S
C2613 C2614 1.392 . S
C2613 C2617 1.495 . S
C2614 C2613 1.392 . S
C2614 C2615 1.388 . S
C2614 C2616 1.478 . S
C2615 H2609 0.925 1_455 S
C2615 C2611 1.389 . S
C2615 C2614 1.388 . S
C2616 C2614 1.478 . S
C2616 C2618 1.381 . S
C2616 C2622 1.383 . S
C2617 C2613 1.495 . S
C2617 H2623 0.959 . S
C2617 H2624 0.961 . S
C2617 H2625 0.960 . S
C2618 C2616 1.381 . S
C2618 C2619 1.394 . S
C2618 H2626 0.930 . S
C2619 C2618 1.394 . S
C2619 C2620 1.383 . S
C2619 H2627 0.929 . S
C2620 C2619 1.383 . S
C2620 C2621 1.377 . S
C2621 H2605 0.922 1_455 S
C2621 C2620 1.377 . S
C2621 C2622 1.379 . S
C2622 H2606 0.931 . S
C2622 C2616 1.383 . S
C2622 C2621 1.379 . S
H2623 C2617 0.959 . S
H2624 C2617 0.961 . S
H2625 C2617 0.960 . S
H2626 C2618 0.930 . S
H2627 C2619 0.929 . S
H2628 C2636 0.929 . S
H2629 C2638 0.930 . S
H2630 C2640 0.930 . S
H2631 C2643 0.929 . S
H2632 C2646 0.930 . S
H2633 C2648 0.960 . S
H2634 C2648 0.960 . S
H2635 C2648 0.960 . S
C2636 H2628 0.929 . S
C2636 C2637 1.377 . S
C2636 C2638 1.384 . S
C2637 C2636 1.377 . S
C2637 C2643 1.390 . S
C2638 H2629 0.930 . S
C2638 C2636 1.384 . S
C2638 C2639 1.372 . S
C2639 C2638 1.372 . S
C2639 C2640 1.400 . S
C2639 C2644 1.490 . S
C2640 H2630 0.930 . S
C2640 C2639 1.400 . S
C2640 C2643 1.386 . S
H2641 C2657 0.930 . S
H2642 C2658 0.931 . S
C2643 H2631 0.929 . S
C2643 C2637 1.390 . S
C2643 C2640 1.386 . S
C2644 C2639 1.490 . S
C2644 C2646 1.395 . S
C2644 C2647 1.403 . S
H2645 C2651 0.930 . S
C2646 H2632 0.930 . S
C2646 C2644 1.395 . S
C2646 C2649 1.403 . S
C2647 C2644 1.403 . S
C2647 C2648 1.524 . S
C2647 C2651 1.400 . S
C2648 H2633 0.960 . S
C2648 H2634 0.960 . S
C2648 H2635 0.960 . S
C2648 C2647 1.524 . S
C2649 C2646 1.403 . S
C2649 C2650 1.392 . S
C2649 C2653 1.495 . S
C2650 C2649 1.392 . S
C2650 C2651 1.385 . S
C2650 C2652 1.478 . S
C2651 H2645 0.930 . S
C2651 C2647 1.400 . S
C2651 C2650 1.385 . S
C2652 C2650 1.478 . S
C2652 C2654 1.381 . S
C2652 C2658 1.383 . S
C2653 C2649 1.495 . S
C2653 H2659 0.959 . S
C2653 H2660 0.961 . S
C2653 H2661 0.960 . S
C2654 C2652 1.381 . S
C2654 C2655 1.394 . S
C2654 H2662 0.930 . S
C2655 C2654 1.394 . S
C2655 C2656 1.383 . S
C2655 H2663 0.929 . S
C2656 C2655 1.383 . S
C2656 C2657 1.377 . S
C2657 H2641 0.930 . S
C2657 C2656 1.377 . S
C2657 C2658 1.379 . S
C2658 H2642 0.931 . S
C2658 C2652 1.383 . S
C2658 C2657 1.379 . S
H2659 C2653 0.959 . S
H2660 C2653 0.961 . S
H2661 C2653 0.960 . S
H2662 C2654 0.930 . S
H2663 C2655 0.929 . S
H2664 C2672 0.929 . S
H2665 C2674 0.930 . S
H2666 C2676 0.930 . S
H2667 C2679 0.929 . S
H2668 C2682 0.930 . S
H2669 C2684 0.960 . S
H2670 C2684 0.960 . S
H2671 C2684 0.960 . S
C2672 H2664 0.929 . S
C2672 C2673 1.377 . S
C2672 C2674 1.384 . S
C2673 C2672 1.377 . S
C2673 C2679 1.390 . S
C2674 H2665 0.930 . S
C2674 C2672 1.384 . S
C2674 C2675 1.372 . S
C2675 C2674 1.372 . S
C2675 C2676 1.400 . S
C2675 C2680 1.490 . S
C2676 H2666 0.930 . S
C2676 C2675 1.400 . S
C2676 C2679 1.386 . S
H2677 C2693 0.931 1_655 S
H2678 C2694 0.940 . S
C2679 H2667 0.929 . S
C2679 C2673 1.390 . S
C2679 C2676 1.386 . S
C2680 C2675 1.490 . S
C2680 C2682 1.395 . S
C2680 C2683 1.403 1_455 S
H2681 C2687 0.945 . S
C2682 H2668 0.930 . S
C2682 C2680 1.395 . S
C2682 C2685 1.403 . S
C2683 C2680 1.403 1_655 S
C2683 C2684 1.523 . S
C2683 C2687 1.410 . S
C2684 H2669 0.960 . S
C2684 H2670 0.960 . S
C2684 H2671 0.960 . S
C2684 C2683 1.523 . S
C2685 C2682 1.403 . S
C2685 C2686 1.392 . S
C2685 C2689 1.495 . S
C2686 C2685 1.392 . S
C2686 C2687 1.362 1_455 S
C2686 C2688 1.478 . S
C2687 H2681 0.945 . S
C2687 C2683 1.410 . S
C2687 C2686 1.362 1_655 S
C2688 C2686 1.478 . S
C2688 C2690 1.381 . S
C2688 C2694 1.383 . S
C2689 C2685 1.495 . S
C2689 H2695 0.959 . S
C2689 H2696 0.961 . S
C2689 H2697 0.960 . S
C2690 C2688 1.381 . S
C2690 C2691 1.394 . S
C2690 H2698 0.930 . S
C2691 C2690 1.394 . S
C2691 C2692 1.383 . S
C2691 H2699 0.929 . S
C2692 C2691 1.383 . S
C2692 C2693 1.392 . S
C2693 H2677 0.931 1_455 S
C2693 C2692 1.392 . S
C2693 C2694 1.366 . S
C2694 H2678 0.940 . S
C2694 C2688 1.383 . S
C2694 C2693 1.366 . S
H2695 C2689 0.959 . S
H2696 C2689 0.961 . S
H2697 C2689 0.960 . S
H2698 C2690 0.930 . S
H2699 C2691 0.929 . S
H2700 C2708 0.929 . S
H2701 C2710 0.930 . S
H2702 C2712 0.930 . S
H2703 C2715 0.929 . S
H2704 C2718 0.930 . S
H2705 C2720 0.960 . S
H2706 C2720 0.960 . S
H2707 C2720 0.960 . S
C2708 H2700 0.929 . S
C2708 C2709 1.377 . S
C2708 C2710 1.384 . S
C2709 C2708 1.377 . S
C2709 C2715 1.390 . S
C2710 H2701 0.930 . S
C2710 C2708 1.384 . S
C2710 C2711 1.372 . S
C2711 C2710 1.372 . S
C2711 C2712 1.400 . S
C2711 C2716 1.490 . S
C2712 H2702 0.930 . S
C2712 C2711 1.400 . S
C2712 C2715 1.386 . S
H2713 C2729 0.930 . S
H2714 C2730 0.931 . S
C2715 H2703 0.929 . S
C2715 C2709 1.390 . S
C2715 C2712 1.386 . S
C2716 C2711 1.490 . S
C2716 C2718 1.395 . S
C2716 C2719 1.403 . S
H2717 C2723 0.930 . S
C2718 H2704 0.930 . S
C2718 C2716 1.395 . S
C2718 C2721 1.403 . S
C2719 C2716 1.403 . S
C2719 C2720 1.524 . S
C2719 C2723 1.400 . S
C2720 H2705 0.960 . S
C2720 H2706 0.960 . S
C2720 H2707 0.960 . S
C2720 C2719 1.524 . S
C2721 C2718 1.403 . S
C2721 C2722 1.392 . S
C2721 C2725 1.495 . S
C2722 C2721 1.392 . S
C2722 C2723 1.385 . S
C2722 C2724 1.478 . S
C2723 H2717 0.930 . S
C2723 C2719 1.400 . S
C2723 C2722 1.385 . S
C2724 C2722 1.478 . S
C2724 C2726 1.381 . S
C2724 C2730 1.383 . S
C2725 C2721 1.495 . S
C2725 H2731 0.959 . S
C2725 H2732 0.961 . S
C2725 H2733 0.960 . S
C2726 C2724 1.381 . S
C2726 C2727 1.394 . S
C2726 H2734 0.930 . S
C2727 C2726 1.394 . S
C2727 C2728 1.383 . S
C2727 H2735 0.929 . S
C2728 C2727 1.383 . S
C2728 C2729 1.377 . S
C2729 H2713 0.930 . S
C2729 C2728 1.377 . S
C2729 C2730 1.379 . S
C2730 H2714 0.931 . S
C2730 C2724 1.383 . S
C2730 C2729 1.379 . S
H2731 C2725 0.959 . S
H2732 C2725 0.961 . S
H2733 C2725 0.960 . S
H2734 C2726 0.930 . S
H2735 C2727 0.929 . S
H2736 C2744 0.929 . S
H2737 C2746 0.930 . S
H2738 C2748 0.930 . S
H2739 C2751 0.929 . S
H2740 C2754 0.930 . S
H2741 C2756 0.960 . S
H2742 C2756 0.960 . S
H2743 C2756 0.960 . S
C2744 H2736 0.929 . S
C2744 C2745 1.377 . S
C2744 C2746 1.384 . S
C2745 C2744 1.377 . S
C2745 C2751 1.390 . S
C2746 H2737 0.930 . S
C2746 C2744 1.384 . S
C2746 C2747 1.372 . S
C2747 C2746 1.372 . S
C2747 C2748 1.400 . S
C2747 C2752 1.490 . S
C2748 H2738 0.930 . S
C2748 C2747 1.400 . S
C2748 C2751 1.386 . S
H2749 C2765 0.930 1_545 S
H2750 C2766 0.931 . S
C2751 H2739 0.929 . S
C2751 C2745 1.390 . S
C2751 C2748 1.386 . S
C2752 C2747 1.490 . S
C2752 C2754 1.395 . S
C2752 C2755 1.360 1_565 S
H2753 C2759 0.986 . S
C2754 H2740 0.930 . S
C2754 C2752 1.395 . S
C2754 C2757 1.403 . S
C2755 C2752 1.360 1_545 S
C2755 C2756 1.549 . S
C2755 C2759 1.395 . S
C2756 H2741 0.960 . S
C2756 H2742 0.960 . S
C2756 H2743 0.960 . S
C2756 C2755 1.549 . S
C2757 C2754 1.403 . S
C2757 C2758 1.392 . S
C2757 C2761 1.495 . S
C2758 C2757 1.392 . S
C2758 C2759 1.356 1_565 S
C2758 C2760 1.478 . S
C2759 H2753 0.986 . S
C2759 C2755 1.395 . S
C2759 C2758 1.356 1_545 S
C2760 C2758 1.478 . S
C2760 C2762 1.381 . S
C2760 C2766 1.383 . S
C2761 C2757 1.495 . S
C2761 H2767 0.959 . S
C2761 H2768 0.961 . S
C2761 H2769 0.960 . S
C2762 C2760 1.381 . S
C2762 C2763 1.394 . S
C2762 H2770 0.930 . S
C2763 C2762 1.394 . S
C2763 C2764 1.383 . S
C2763 H2771 0.929 . S
C2764 C2763 1.383 . S
C2764 C2765 1.377 . S
C2765 H2749 0.930 1_565 S
C2765 C2764 1.377 . S
C2765 C2766 1.379 . S
C2766 H2750 0.931 . S
C2766 C2760 1.383 . S
C2766 C2765 1.379 . S
H2767 C2761 0.959 . S
H2768 C2761 0.961 . S
H2769 C2761 0.960 . S
H2770 C2762 0.930 . S
H2771 C2763 0.929 . S
H2772 C2780 0.929 . S
H2773 C2782 0.930 . S
H2774 C2784 0.930 1_565 S
H2775 C2787 0.929 1_565 S
H2776 C2790 0.930 . S
H2777 C2792 0.958 . S
H2778 C2792 0.960 . S
H2779 C2792 0.960 1_565 S
C2780 H2772 0.929 . S
C2780 C2781 1.377 . S
C2780 C2782 1.384 . S
C2781 C2780 1.377 . S
C2781 C2787 1.390 . S
C2782 H2773 0.930 . S
C2782 C2780 1.384 . S
C2782 C2783 1.372 . S
C2783 C2782 1.372 . S
C2783 C2784 1.400 . S
C2783 C2788 1.490 . S
C2784 H2774 0.930 1_545 S
C2784 C2783 1.400 . S
C2784 C2787 1.386 . S
H2785 C2801 0.930 . S
H2786 C2802 0.931 . S
C2787 H2775 0.929 1_545 S
C2787 C2781 1.390 . S
C2787 C2784 1.386 . S
C2788 C2783 1.490 . S
C2788 C2790 1.395 . S
C2788 C2791 1.403 . S
H2789 C2795 0.930 . S
C2790 H2776 0.930 . S
C2790 C2788 1.395 . S
C2790 C2793 1.403 . S
C2791 C2788 1.403 . S
C2791 C2792 1.524 . S
C2791 C2795 1.400 . S
C2792 H2777 0.958 . S
C2792 H2778 0.960 . S
C2792 H2779 0.960 1_545 S
C2792 C2791 1.524 . S
C2793 C2790 1.403 . S
C2793 C2794 1.392 . S
C2793 C2797 1.495 . S
C2794 C2793 1.392 . S
C2794 C2795 1.385 . S
C2794 C2796 1.478 . S
C2795 H2789 0.930 . S
C2795 C2791 1.400 . S
C2795 C2794 1.385 . S
C2796 C2794 1.478 . S
C2796 C2798 1.381 . S
C2796 C2802 1.383 1_545 S
C2797 C2793 1.495 . S
C2797 H2803 0.959 . S
C2797 H2804 0.961 . S
C2797 H2805 0.960 . S
C2798 C2796 1.381 . S
C2798 C2799 1.394 . S
C2798 H2806 0.930 . S
C2799 C2798 1.394 . S
C2799 C2800 1.383 . S
C2799 H2807 0.929 . S
C2800 C2799 1.383 . S
C2800 C2801 1.377 1_545 S
C2801 H2785 0.930 . S
C2801 C2800 1.377 1_565 S
C2801 C2802 1.379 . S
C2802 H2786 0.931 . S
C2802 C2796 1.383 1_565 S
C2802 C2801 1.379 . S
H2803 C2797 0.959 . S
H2804 C2797 0.961 . S
H2805 C2797 0.960 . S
H2806 C2798 0.930 . S
H2807 C2799 0.929 . S
H2808 C2816 0.929 1_455 S
H2809 C2818 0.930 1_455 S
H2810 C2820 0.930 . S
H2811 C2823 0.929 . S
H2812 C2826 0.930 . S
H2813 C2828 0.960 . S
H2814 C2828 0.960 . S
H2815 C2828 0.960 . S
C2816 H2808 0.929 1_655 S
C2816 C2817 1.377 . S
C2816 C2818 1.384 . S
C2817 C2816 1.377 . S
C2817 C2823 1.390 . S
C2818 H2809 0.930 1_655 S
C2818 C2816 1.384 . S
C2818 C2819 1.372 . S
C2819 C2818 1.372 . S
C2819 C2820 1.400 . S
C2819 C2824 1.490 . S
C2820 H2810 0.930 . S
C2820 C2819 1.400 . S
C2820 C2823 1.386 . S
H2821 C2837 0.930 . S
H2822 C2838 0.931 . S
C2823 H2811 0.929 . S
C2823 C2817 1.390 . S
C2823 C2820 1.386 . S
C2824 C2819 1.490 . S
C2824 C2826 1.395 . S
C2824 C2827 1.403 . S
H2825 C2831 0.930 . S
C2826 H2812 0.930 . S
C2826 C2824 1.395 . S
C2826 C2829 1.403 . S
C2827 C2824 1.403 . S
C2827 C2828 1.524 . S
C2827 C2831 1.400 . S
C2828 H2813 0.960 . S
C2828 H2814 0.960 . S
C2828 H2815 0.960 . S
C2828 C2827 1.524 . S
C2829 C2826 1.403 . S
C2829 C2830 1.392 . S
C2829 C2833 1.510 . S
C2830 C2829 1.392 . S
C2830 C2831 1.385 . S
C2830 C2832 1.478 . S
C2831 H2825 0.930 . S
C2831 C2827 1.400 . S
C2831 C2830 1.385 . S
C2832 C2830 1.478 . S
C2832 C2834 1.381 1_655 S
C2832 C2838 1.383 . S
C2833 C2829 1.510 . S
C2833 H2839 1.004 1_655 S
C2833 H2840 1.014 . S
C2833 H2841 0.858 1_655 S
C2834 C2832 1.381 1_455 S
C2834 C2835 1.394 . S
C2834 H2842 0.930 . S
C2835 C2834 1.394 . S
C2835 C2836 1.383 1_455 S
C2835 H2843 0.929 . S
C2836 C2835 1.383 1_655 S
C2836 C2837 1.377 . S
C2837 H2821 0.930 . S
C2837 C2836 1.377 . S
C2837 C2838 1.379 . S
C2838 H2822 0.931 . S
C2838 C2832 1.383 . S
C2838 C2837 1.379 . S
H2839 C2833 1.004 1_455 S
H2840 C2833 1.014 . S
H2841 C2833 0.858 1_455 S
H2842 C2834 0.930 . S
H2843 C2835 0.929 . S
H2844 C2852 0.929 . S
H2845 C2854 0.930 . S
H2846 C2856 0.930 . S
H2847 C2859 0.929 . S
H2848 C2862 0.930 . S
H2849 C2864 0.960 . S
H2850 C2864 0.960 . S
H2851 C2864 0.960 . S
C2852 H2844 0.929 . S
C2852 C2853 1.377 . S
C2852 C2854 1.384 . S
C2853 C2852 1.377 . S
C2853 C2859 1.390 . S
C2854 H2845 0.930 . S
C2854 C2852 1.384 . S
C2854 C2855 1.372 . S
C2855 C2854 1.372 . S
C2855 C2856 1.400 . S
C2855 C2860 1.490 . S
C2856 H2846 0.930 . S
C2856 C2855 1.400 . S
C2856 C2859 1.386 . S
H2857 C2873 0.930 . S
H2858 C2874 0.931 . S
C2859 H2847 0.929 . S
C2859 C2853 1.390 . S
C2859 C2856 1.386 . S
C2860 C2855 1.490 . S
C2860 C2862 1.395 . S
C2860 C2863 1.403 . S
H2861 C2867 0.930 . S
C2862 H2848 0.930 . S
C2862 C2860 1.395 . S
C2862 C2865 1.403 . S
C2863 C2860 1.403 . S
C2863 C2864 1.524 . S
C2863 C2867 1.400 . S
C2864 H2849 0.960 . S
C2864 H2850 0.960 . S
C2864 H2851 0.960 . S
C2864 C2863 1.524 . S
C2865 C2862 1.403 . S
C2865 C2866 1.392 . S
C2865 C2869 1.495 . S
C2866 C2865 1.392 . S
C2866 C2867 1.385 . S
C2866 C2868 1.478 . S
C2867 H2861 0.930 . S
C2867 C2863 1.400 . S
C2867 C2866 1.385 . S
C2868 C2866 1.478 . S
C2868 C2870 1.381 . S
C2868 C2874 1.383 . S
C2869 C2865 1.495 . S
C2869 H2875 0.959 . S
C2869 H2876 0.961 . S
C2869 H2877 0.960 . S
C2870 C2868 1.381 . S
C2870 C2871 1.394 . S
C2870 H2878 0.930 . S
C2871 C2870 1.394 . S
C2871 C2872 1.383 . S
C2871 H2879 0.929 . S
C2872 C2871 1.383 . S
C2872 C2873 1.377 . S
C2873 H2857 0.930 . S
C2873 C2872 1.377 . S
C2873 C2874 1.379 . S
C2874 H2858 0.931 . S
C2874 C2868 1.383 . S
C2874 C2873 1.379 . S
H2875 C2869 0.959 . S
H2876 C2869 0.961 . S
H2877 C2869 0.960 . S
H2878 C2870 0.930 . S
H2879 C2871 0.929 . S
H2880 C2888 0.929 . S
H2881 C2890 0.930 . S
H2882 C2892 0.930 . S
H2883 C2895 0.929 . S
H2884 C2898 0.930 . S
H2885 C2900 0.960 . S
H2886 C2900 0.960 . S
H2887 C2900 0.960 . S
C2888 H2880 0.929 . S
C2888 C2889 1.377 . S
C2888 C2890 1.384 . S
C2889 C2888 1.377 . S
C2889 C2895 1.390 . S
C2890 H2881 0.930 . S
C2890 C2888 1.384 . S
C2890 C2891 1.372 . S
C2891 C2890 1.372 . S
C2891 C2892 1.400 . S
C2891 C2896 1.490 . S
C2892 H2882 0.930 . S
C2892 C2891 1.400 . S
C2892 C2895 1.386 . S
H2893 C2909 0.930 . S
H2894 C2910 0.931 . S
C2895 H2883 0.929 . S
C2895 C2889 1.390 . S
C2895 C2892 1.386 . S
C2896 C2891 1.490 . S
C2896 C2898 1.395 . S
C2896 C2899 1.403 . S
H2897 C2903 0.930 . S
C2898 H2884 0.930 . S
C2898 C2896 1.395 . S
C2898 C2901 1.403 . S
C2899 C2896 1.403 . S
C2899 C2900 1.524 . S
C2899 C2903 1.400 . S
C2900 H2885 0.960 . S
C2900 H2886 0.960 . S
C2900 H2887 0.960 . S
C2900 C2899 1.524 . S
C2901 C2898 1.403 . S
C2901 C2902 1.392 . S
C2901 C2905 1.495 . S
C2902 C2901 1.392 . S
C2902 C2903 1.385 . S
C2902 C2904 1.478 . S
C2903 H2897 0.930 . S
C2903 C2899 1.400 . S
C2903 C2902 1.385 . S
C2904 C2902 1.478 . S
C2904 C2906 1.381 . S
C2904 C2910 1.383 . S
C2905 C2901 1.495 . S
C2905 H2911 0.959 . S
C2905 H2912 0.961 . S
C2905 H2913 0.960 . S
C2906 C2904 1.381 . S
C2906 C2907 1.394 . S
C2906 H2914 0.930 . S
C2907 C2906 1.394 . S
C2907 C2908 1.383 . S
C2907 H2915 0.929 . S
C2908 C2907 1.383 . S
C2908 C2909 1.377 . S
C2909 H2893 0.930 . S
C2909 C2908 1.377 . S
C2909 C2910 1.379 . S
C2910 H2894 0.931 . S
C2910 C2904 1.383 . S
C2910 C2909 1.379 . S
H2911 C2905 0.959 . S
H2912 C2905 0.961 . S
H2913 C2905 0.960 . S
H2914 C2906 0.930 . S
H2915 C2907 0.929 . S
H2916 C2924 0.929 . S
H2917 C2926 0.930 . S
H2918 C2928 0.930 . S
H2919 C2931 0.929 . S
H2920 C2934 0.930 . S
H2921 C2936 0.960 . S
H2922 C2936 0.960 . S
H2923 C2936 0.960 . S
C2924 H2916 0.929 . S
C2924 C2925 1.377 . S
C2924 C2926 1.384 . S
C2925 C2924 1.377 . S
C2925 C2931 1.390 . S
C2926 H2917 0.930 . S
C2926 C2924 1.384 . S
C2926 C2927 1.372 . S
C2927 C2926 1.372 . S
C2927 C2928 1.400 . S
C2927 C2932 1.490 . S
C2928 H2918 0.930 . S
C2928 C2927 1.400 . S
C2928 C2931 1.386 . S
H2929 C2945 0.930 . S
H2930 C2946 0.931 . S
C2931 H2919 0.929 . S
C2931 C2925 1.390 . S
C2931 C2928 1.386 . S
C2932 C2927 1.490 . S
C2932 C2934 1.395 . S
C2932 C2935 1.403 . S
H2933 C2939 0.930 . S
C2934 H2920 0.930 . S
C2934 C2932 1.395 . S
C2934 C2937 1.403 . S
C2935 C2932 1.403 . S
C2935 C2936 1.524 . S
C2935 C2939 1.400 . S
C2936 H2921 0.960 . S
C2936 H2922 0.960 . S
C2936 H2923 0.960 . S
C2936 C2935 1.524 . S
C2937 C2934 1.403 . S
C2937 C2938 1.392 . S
C2937 C2941 1.495 . S
C2938 C2937 1.392 . S
C2938 C2939 1.385 . S
C2938 C2940 1.478 . S
C2939 H2933 0.930 . S
C2939 C2935 1.400 . S
C2939 C2938 1.385 . S
C2940 C2938 1.478 . S
C2940 C2942 1.381 . S
C2940 C2946 1.383 . S
C2941 C2937 1.495 . S
C2941 H2947 0.959 . S
C2941 H2948 0.961 . S
C2941 H2949 0.960 . S
C2942 C2940 1.381 . S
C2942 C2943 1.394 . S
C2942 H2950 0.930 . S
C2943 C2942 1.394 . S
C2943 C2944 1.383 . S
C2943 H2951 0.929 . S
C2944 C2943 1.383 . S
C2944 C2945 1.377 . S
C2945 H2929 0.930 . S
C2945 C2944 1.377 . S
C2945 C2946 1.379 . S
C2946 H2930 0.931 . S
C2946 C2940 1.383 . S
C2946 C2945 1.379 . S
H2947 C2941 0.959 . S
H2948 C2941 0.961 . S
H2949 C2941 0.960 . S
H2950 C2942 0.930 . S
H2951 C2943 0.929 . S
H2952 C2960 0.929 . S
H2953 C2962 0.930 . S
H2954 C2964 0.930 . S
H2955 C2967 0.929 . S
H2956 C2970 0.930 . S
H2957 C2972 0.960 . S
H2958 C2972 0.960 . S
H2959 C2972 0.960 . S
C2960 H2952 0.929 . S
C2960 C2961 1.377 . S
C2960 C2962 1.384 . S
C2961 C2960 1.377 . S
C2961 C2967 1.390 . S
C2962 H2953 0.930 . S
C2962 C2960 1.384 . S
C2962 C2963 1.372 . S
C2963 C2962 1.372 . S
C2963 C2964 1.400 . S
C2963 C2968 1.490 . S
C2964 H2954 0.930 . S
C2964 C2963 1.400 . S
C2964 C2967 1.386 . S
H2965 C2981 0.930 . S
H2966 C2982 0.931 . S
C2967 H2955 0.929 . S
C2967 C2961 1.390 . S
C2967 C2964 1.386 . S
C2968 C2963 1.490 . S
C2968 C2970 1.395 . S
C2968 C2971 1.403 . S
H2969 C2975 0.930 . S
C2970 H2956 0.930 . S
C2970 C2968 1.395 . S
C2970 C2973 1.403 . S
C2971 C2968 1.403 . S
C2971 C2972 1.524 . S
C2971 C2975 1.400 . S
C2972 H2957 0.960 . S
C2972 H2958 0.960 . S
C2972 H2959 0.960 . S
C2972 C2971 1.524 . S
C2973 C2970 1.403 . S
C2973 C2974 1.392 . S
C2973 C2977 1.495 . S
C2974 C2973 1.392 . S
C2974 C2975 1.385 . S
C2974 C2976 1.478 . S
C2975 H2969 0.930 . S
C2975 C2971 1.400 . S
C2975 C2974 1.385 . S
C2976 C2974 1.478 . S
C2976 C2978 1.381 . S
C2976 C2982 1.383 . S
C2977 C2973 1.495 . S
C2977 H2983 0.959 . S
C2977 H2984 0.961 . S
C2977 H2985 0.960 . S
C2978 C2976 1.381 . S
C2978 C2979 1.394 . S
C2978 H2986 0.930 . S
C2979 C2978 1.394 . S
C2979 C2980 1.383 . S
C2979 H2987 0.929 . S
C2980 C2979 1.383 . S
C2980 C2981 1.377 . S
C2981 H2965 0.930 . S
C2981 C2980 1.377 . S
C2981 C2982 1.379 . S
C2982 H2966 0.931 . S
C2982 C2976 1.383 . S
C2982 C2981 1.379 . S
H2983 C2977 0.959 . S
H2984 C2977 0.961 . S
H2985 C2977 0.960 . S
H2986 C2978 0.930 . S
H2987 C2979 0.929 . S
H2988 C2996 0.929 . S
H2989 C2998 0.930 . S
H2990 C3000 0.930 . S
H2991 C3003 0.929 . S
H2992 C3006 0.930 . S
H2993 C3008 0.960 . S
H2994 C3008 0.960 . S
H2995 C3008 0.960 . S
C2996 H2988 0.929 . S
C2996 C2997 1.377 . S
C2996 C2998 1.384 . S
C2997 C2996 1.377 . S
C2997 C3003 1.390 . S
C2998 H2989 0.930 . S
C2998 C2996 1.384 . S
C2998 C2999 1.372 . S
C2999 C2998 1.372 . S
C2999 C3000 1.400 . S
C2999 C3004 1.490 . S
C3000 H2990 0.930 . S
C3000 C2999 1.400 . S
C3000 C3003 1.386 . S
H3001 C3017 0.930 . S
H3002 C3018 0.931 . S
C3003 H2991 0.929 . S
C3003 C2997 1.390 . S
C3003 C3000 1.386 . S
C3004 C2999 1.490 . S
C3004 C3006 1.395 . S
C3004 C3007 1.403 . S
H3005 C3011 0.930 . S
C3006 H2992 0.930 . S
C3006 C3004 1.395 . S
C3006 C3009 1.403 . S
C3007 C3004 1.403 . S
C3007 C3008 1.524 . S
C3007 C3011 1.400 . S
C3008 H2993 0.960 . S
C3008 H2994 0.960 . S
C3008 H2995 0.960 . S
C3008 C3007 1.524 . S
C3009 C3006 1.403 . S
C3009 C3010 1.392 . S
C3009 C3013 1.495 . S
C3010 C3009 1.392 . S
C3010 C3011 1.385 . S
C3010 C3012 1.478 . S
C3011 H3005 0.930 . S
C3011 C3007 1.400 . S
C3011 C3010 1.385 . S
C3012 C3010 1.478 . S
C3012 C3014 1.381 . S
C3012 C3018 1.383 . S
C3013 C3009 1.495 . S
C3013 H3019 0.959 . S
C3013 H3020 0.961 . S
C3013 H3021 0.960 . S
C3014 C3012 1.381 . S
C3014 C3015 1.394 . S
C3014 H3022 0.930 . S
C3015 C3014 1.394 . S
C3015 C3016 1.383 . S
C3015 H3023 0.929 . S
C3016 C3015 1.383 . S
C3016 C3017 1.377 . S
C3017 H3001 0.930 . S
C3017 C3016 1.377 . S
C3017 C3018 1.379 . S
C3018 H3002 0.931 . S
C3018 C3012 1.383 . S
C3018 C3017 1.379 . S
H3019 C3013 0.959 . S
H3020 C3013 0.961 . S
H3021 C3013 0.960 . S
H3022 C3014 0.930 . S
H3023 C3015 0.929 . S
H3024 C3032 0.929 . S
H3025 C3034 0.930 . S
H3026 C3036 0.930 . S
H3027 C3039 0.929 . S
H3028 C3042 0.930 . S
H3029 C3044 0.960 . S
H3030 C3044 0.960 . S
H3031 C3044 0.960 . S
C3032 H3024 0.929 . S
C3032 C3033 1.377 . S
C3032 C3034 1.384 . S
C3033 C3032 1.377 . S
C3033 C3039 1.390 . S
C3034 H3025 0.930 . S
C3034 C3032 1.384 . S
C3034 C3035 1.372 . S
C3035 C3034 1.372 . S
C3035 C3036 1.400 . S
C3035 C3040 1.490 . S
C3036 H3026 0.930 . S
C3036 C3035 1.400 . S
C3036 C3039 1.386 . S
H3037 C3053 0.930 . S
H3038 C3054 0.931 . S
C3039 H3027 0.929 . S
C3039 C3033 1.390 . S
C3039 C3036 1.386 . S
C3040 C3035 1.490 . S
C3040 C3042 1.395 . S
C3040 C3043 1.403 . S
H3041 C3047 0.930 . S
C3042 H3028 0.930 . S
C3042 C3040 1.395 . S
C3042 C3045 1.403 . S
C3043 C3040 1.403 . S
C3043 C3044 1.524 . S
C3043 C3047 1.400 . S
C3044 H3029 0.960 . S
C3044 H3030 0.960 . S
C3044 H3031 0.960 . S
C3044 C3043 1.524 . S
C3045 C3042 1.403 . S
C3045 C3046 1.392 . S
C3045 C3049 1.495 . S
C3046 C3045 1.392 . S
C3046 C3047 1.385 . S
C3046 C3048 1.478 . S
C3047 H3041 0.930 . S
C3047 C3043 1.400 . S
C3047 C3046 1.385 . S
C3048 C3046 1.478 . S
C3048 C3050 1.381 . S
C3048 C3054 1.383 . S
C3049 C3045 1.495 . S
C3049 H3055 0.959 . S
C3049 H3056 0.961 . S
C3049 H3057 0.960 . S
C3050 C3048 1.381 . S
C3050 C3051 1.394 . S
C3050 H3058 0.930 . S
C3051 C3050 1.394 . S
C3051 C3052 1.383 . S
C3051 H3059 0.929 . S
C3052 C3051 1.383 . S
C3052 C3053 1.377 . S
C3053 H3037 0.930 . S
C3053 C3052 1.377 . S
C3053 C3054 1.379 . S
C3054 H3038 0.931 . S
C3054 C3048 1.383 . S
C3054 C3053 1.379 . S
H3055 C3049 0.959 . S
H3056 C3049 0.961 . S
H3057 C3049 0.960 . S
H3058 C3050 0.930 . S
H3059 C3051 0.929 . S
H3060 C3068 0.929 . S
H3061 C3070 0.930 . S
H3062 C3072 0.930 . S
H3063 C3075 0.929 . S
H3064 C3078 0.930 . S
H3065 C3080 0.960 . S
H3066 C3080 0.960 . S
H3067 C3080 0.960 . S
C3068 H3060 0.929 . S
C3068 C3069 1.377 . S
C3068 C3070 1.384 . S
C3069 C3068 1.377 . S
C3069 C3075 1.390 . S
C3070 H3061 0.930 . S
C3070 C3068 1.384 . S
C3070 C3071 1.372 . S
C3071 C3070 1.372 . S
C3071 C3072 1.400 . S
C3071 C3076 1.490 . S
C3072 H3062 0.930 . S
C3072 C3071 1.400 . S
C3072 C3075 1.386 . S
H3073 C3089 0.930 . S
H3074 C3090 0.931 . S
C3075 H3063 0.929 . S
C3075 C3069 1.390 . S
C3075 C3072 1.386 . S
C3076 C3071 1.490 . S
C3076 C3078 1.395 . S
C3076 C3079 1.403 . S
H3077 C3083 0.930 . S
C3078 H3064 0.930 . S
C3078 C3076 1.395 . S
C3078 C3081 1.403 . S
C3079 C3076 1.403 . S
C3079 C3080 1.524 . S
C3079 C3083 1.400 . S
C3080 H3065 0.960 . S
C3080 H3066 0.960 . S
C3080 H3067 0.960 . S
C3080 C3079 1.524 . S
C3081 C3078 1.403 . S
C3081 C3082 1.392 . S
C3081 C3085 1.495 . S
C3082 C3081 1.392 . S
C3082 C3083 1.385 . S
C3082 C3084 1.478 . S
C3083 H3077 0.930 . S
C3083 C3079 1.400 . S
C3083 C3082 1.385 . S
C3084 C3082 1.478 . S
C3084 C3086 1.381 . S
C3084 C3090 1.383 . S
C3085 C3081 1.495 . S
C3085 H3091 0.959 . S
C3085 H3092 0.961 . S
C3085 H3093 0.960 . S
C3086 C3084 1.381 . S
C3086 C3087 1.394 . S
C3086 H3094 0.930 . S
C3087 C3086 1.394 . S
C3087 C3088 1.383 . S
C3087 H3095 0.929 . S
C3088 C3087 1.383 . S
C3088 C3089 1.377 . S
C3089 H3073 0.930 . S
C3089 C3088 1.377 . S
C3089 C3090 1.379 . S
C3090 H3074 0.931 . S
C3090 C3084 1.383 . S
C3090 C3089 1.379 . S
H3091 C3085 0.959 . S
H3092 C3085 0.961 . S
H3093 C3085 0.960 . S
H3094 C3086 0.930 . S
H3095 C3087 0.929 . S
H3096 C3104 0.929 . S
H3097 C3106 0.930 . S
H3098 C3108 0.930 . S
H3099 C3111 0.929 . S
H3100 C3114 0.930 . S
H3101 C3116 0.960 . S
H3102 C3116 0.960 . S
H3103 C3116 0.960 . S
C3104 H3096 0.929 . S
C3104 C3105 1.377 . S
C3104 C3106 1.384 . S
C3105 C3104 1.377 . S
C3105 C3111 1.390 . S
C3106 H3097 0.930 . S
C3106 C3104 1.384 . S
C3106 C3107 1.372 . S
C3107 C3106 1.372 . S
C3107 C3108 1.400 . S
C3107 C3112 1.490 . S
C3108 H3098 0.930 . S
C3108 C3107 1.400 . S
C3108 C3111 1.386 . S
H3109 C3125 0.930 . S
H3110 C3126 0.931 . S
C3111 H3099 0.929 . S
C3111 C3105 1.390 . S
C3111 C3108 1.386 . S
C3112 C3107 1.490 . S
C3112 C3114 1.395 . S
C3112 C3115 1.403 . S
H3113 C3119 0.930 . S
C3114 H3100 0.930 . S
C3114 C3112 1.395 . S
C3114 C3117 1.403 . S
C3115 C3112 1.403 . S
C3115 C3116 1.524 . S
C3115 C3119 1.400 . S
C3116 H3101 0.960 . S
C3116 H3102 0.960 . S
C3116 H3103 0.960 . S
C3116 C3115 1.524 . S
C3117 C3114 1.403 . S
C3117 C3118 1.392 . S
C3117 C3121 1.495 . S
C3118 C3117 1.392 . S
C3118 C3119 1.385 . S
C3118 C3120 1.478 . S
C3119 H3113 0.930 . S
C3119 C3115 1.400 . S
C3119 C3118 1.385 . S
C3120 C3118 1.478 . S
C3120 C3122 1.381 . S
C3120 C3126 1.383 . S
C3121 C3117 1.495 . S
C3121 H3127 0.959 . S
C3121 H3128 0.961 . S
C3121 H3129 0.960 . S
C3122 C3120 1.381 . S
C3122 C3123 1.394 . S
C3122 H3130 0.930 . S
C3123 C3122 1.394 . S
C3123 C3124 1.383 . S
C3123 H3131 0.929 . S
C3124 C3123 1.383 . S
C3124 C3125 1.377 . S
C3125 H3109 0.930 . S
C3125 C3124 1.377 . S
C3125 C3126 1.379 . S
C3126 H3110 0.931 . S
C3126 C3120 1.383 . S
C3126 C3125 1.379 . S
H3127 C3121 0.959 . S
H3128 C3121 0.961 . S
H3129 C3121 0.960 . S
H3130 C3122 0.930 . S
H3131 C3123 0.929 . S
H3132 C3140 0.929 . S
H3133 C3142 0.930 . S
H3134 C3144 0.930 . S
H3135 C3147 0.929 . S
H3136 C3150 0.930 . S
H3137 C3152 0.960 . S
H3138 C3152 0.960 . S
H3139 C3152 0.960 . S
C3140 H3132 0.929 . S
C3140 C3141 1.377 . S
C3140 C3142 1.384 . S
C3141 C3140 1.377 . S
C3141 C3147 1.390 . S
C3142 H3133 0.930 . S
C3142 C3140 1.384 . S
C3142 C3143 1.372 . S
C3143 C3142 1.372 . S
C3143 C3144 1.400 . S
C3143 C3148 1.490 . S
C3144 H3134 0.930 . S
C3144 C3143 1.400 . S
C3144 C3147 1.386 . S
H3145 C3161 0.930 . S
H3146 C3162 0.931 . S
C3147 H3135 0.929 . S
C3147 C3141 1.390 . S
C3147 C3144 1.386 . S
C3148 C3143 1.490 . S
C3148 C3150 1.395 . S
C3148 C3151 1.403 . S
H3149 C3155 0.930 . S
C3150 H3136 0.930 . S
C3150 C3148 1.395 . S
C3150 C3153 1.403 . S
C3151 C3148 1.403 . S
C3151 C3152 1.524 . S
C3151 C3155 1.400 . S
C3152 H3137 0.960 . S
C3152 H3138 0.960 . S
C3152 H3139 0.960 . S
C3152 C3151 1.524 . S
C3153 C3150 1.403 . S
C3153 C3154 1.392 . S
C3153 C3157 1.495 . S
C3154 C3153 1.392 . S
C3154 C3155 1.385 . S
C3154 C3156 1.478 . S
C3155 H3149 0.930 . S
C3155 C3151 1.400 . S
C3155 C3154 1.385 . S
C3156 C3154 1.478 . S
C3156 C3158 1.381 . S
C3156 C3162 1.383 . S
C3157 C3153 1.495 . S
C3157 H3163 0.959 . S
C3157 H3164 0.961 . S
C3157 H3165 0.960 . S
C3158 C3156 1.381 . S
C3158 C3159 1.394 . S
C3158 H3166 0.930 . S
C3159 C3158 1.394 . S
C3159 C3160 1.383 . S
C3159 H3167 0.929 . S
C3160 C3159 1.383 . S
C3160 C3161 1.377 . S
C3161 H3145 0.930 . S
C3161 C3160 1.377 . S
C3161 C3162 1.379 . S
C3162 H3146 0.931 . S
C3162 C3156 1.383 . S
C3162 C3161 1.379 . S
H3163 C3157 0.959 . S
H3164 C3157 0.961 . S
H3165 C3157 0.960 . S
H3166 C3158 0.930 . S
H3167 C3159 0.929 . S
H3168 C3176 0.929 . S
H3169 C3178 0.930 . S
H3170 C3180 0.930 . S
H3171 C3183 0.929 . S
H3172 C3186 0.930 . S
H3173 C3188 0.960 . S
H3174 C3188 0.960 . S
H3175 C3188 0.960 . S
C3176 H3168 0.929 . S
C3176 C3177 1.377 . S
C3176 C3178 1.384 . S
C3177 C3176 1.377 . S
C3177 C3183 1.390 . S
C3178 H3169 0.930 . S
C3178 C3176 1.384 . S
C3178 C3179 1.372 . S
C3179 C3178 1.372 . S
C3179 C3180 1.400 . S
C3179 C3184 1.490 . S
C3180 H3170 0.930 . S
C3180 C3179 1.400 . S
C3180 C3183 1.386 . S
H3181 C3197 0.930 . S
H3182 C3198 0.931 . S
C3183 H3171 0.929 . S
C3183 C3177 1.390 . S
C3183 C3180 1.386 . S
C3184 C3179 1.490 . S
C3184 C3186 1.395 . S
C3184 C3187 1.403 . S
H3185 C3191 0.930 . S
C3186 H3172 0.930 . S
C3186 C3184 1.395 . S
C3186 C3189 1.403 . S
C3187 C3184 1.403 . S
C3187 C3188 1.524 . S
C3187 C3191 1.400 . S
C3188 H3173 0.960 . S
C3188 H3174 0.960 . S
C3188 H3175 0.960 . S
C3188 C3187 1.524 . S
C3189 C3186 1.403 . S
C3189 C3190 1.392 . S
C3189 C3193 1.495 . S
C3190 C3189 1.392 . S
C3190 C3191 1.385 . S
C3190 C3192 1.478 . S
C3191 H3185 0.930 . S
C3191 C3187 1.400 . S
C3191 C3190 1.385 . S
C3192 C3190 1.478 . S
C3192 C3194 1.381 . S
C3192 C3198 1.383 . S
C3193 C3189 1.495 . S
C3193 H3199 0.959 . S
C3193 H3200 0.961 . S
C3193 H3201 0.960 . S
C3194 C3192 1.381 . S
C3194 C3195 1.394 . S
C3194 H3202 0.930 . S
C3195 C3194 1.394 . S
C3195 C3196 1.383 . S
C3195 H3203 0.929 . S
C3196 C3195 1.383 . S
C3196 C3197 1.377 . S
C3197 H3181 0.930 . S
C3197 C3196 1.377 . S
C3197 C3198 1.379 . S
C3198 H3182 0.931 . S
C3198 C3192 1.383 . S
C3198 C3197 1.379 . S
H3199 C3193 0.959 . S
H3200 C3193 0.961 . S
H3201 C3193 0.960 . S
H3202 C3194 0.930 . S
H3203 C3195 0.929 . S
H3204 C3212 0.929 . S
H3205 C3214 0.930 . S
H3206 C3216 0.930 . S
H3207 C3219 0.929 . S
H3208 C3222 0.930 . S
H3209 C3224 0.960 . S
H3210 C3224 0.960 . S
H3211 C3224 0.960 . S
C3212 H3204 0.929 . S
C3212 C3213 1.377 . S
C3212 C3214 1.384 . S
C3213 C3212 1.377 . S
C3213 C3219 1.390 . S
C3214 H3205 0.930 . S
C3214 C3212 1.384 . S
C3214 C3215 1.372 . S
C3215 C3214 1.372 . S
C3215 C3216 1.400 . S
C3215 C3220 1.490 . S
C3216 H3206 0.930 . S
C3216 C3215 1.400 . S
C3216 C3219 1.386 . S
H3217 C3233 0.930 . S
H3218 C3234 0.931 . S
C3219 H3207 0.929 . S
C3219 C3213 1.390 . S
C3219 C3216 1.386 . S
C3220 C3215 1.490 . S
C3220 C3222 1.395 . S
C3220 C3223 1.403 . S
H3221 C3227 0.930 . S
C3222 H3208 0.930 . S
C3222 C3220 1.395 . S
C3222 C3225 1.403 . S
C3223 C3220 1.403 . S
C3223 C3224 1.524 . S
C3223 C3227 1.400 . S
C3224 H3209 0.960 . S
C3224 H3210 0.960 . S
C3224 H3211 0.960 . S
C3224 C3223 1.524 . S
C3225 C3222 1.403 . S
C3225 C3226 1.392 . S
C3225 C3229 1.495 . S
C3226 C3225 1.392 . S
C3226 C3227 1.385 . S
C3226 C3228 1.478 . S
C3227 H3221 0.930 . S
C3227 C3223 1.400 . S
C3227 C3226 1.385 . S
C3228 C3226 1.478 . S
C3228 C3230 1.381 . S
C3228 C3234 1.383 . S
C3229 C3225 1.495 . S
C3229 H3235 0.959 . S
C3229 H3236 0.961 . S
C3229 H3237 0.960 . S
C3230 C3228 1.381 . S
C3230 C3231 1.394 . S
C3230 H3238 0.930 . S
C3231 C3230 1.394 . S
C3231 C3232 1.383 . S
C3231 H3239 0.929 . S
C3232 C3231 1.383 . S
C3232 C3233 1.377 . S
C3233 H3217 0.930 . S
C3233 C3232 1.377 . S
C3233 C3234 1.379 . S
C3234 H3218 0.931 . S
C3234 C3228 1.383 . S
C3234 C3233 1.379 . S
H3235 C3229 0.959 . S
H3236 C3229 0.961 . S
H3237 C3229 0.960 . S
H3238 C3230 0.930 . S
H3239 C3231 0.929 . S
H3240 C3248 0.929 . S
H3241 C3250 0.930 . S
H3242 C3252 0.930 . S
H3243 C3255 0.929 . S
H3244 C3258 0.930 . S
H3245 C3260 0.960 . S
H3246 C3260 0.960 . S
H3247 C3260 0.960 . S
C3248 H3240 0.929 . S
C3248 C3249 1.377 . S
C3248 C3250 1.384 . S
C3249 C3248 1.377 . S
C3249 C3255 1.390 . S
C3250 H3241 0.930 . S
C3250 C3248 1.384 . S
C3250 C3251 1.372 . S
C3251 C3250 1.372 . S
C3251 C3252 1.400 . S
C3251 C3256 1.490 . S
C3252 H3242 0.930 . S
C3252 C3251 1.400 . S
C3252 C3255 1.386 . S
H3253 C3269 0.930 . S
H3254 C3270 0.931 . S
C3255 H3243 0.929 . S
C3255 C3249 1.390 . S
C3255 C3252 1.386 . S
C3256 C3251 1.490 . S
C3256 C3258 1.395 . S
C3256 C3259 1.403 . S
H3257 C3263 0.930 . S
C3258 H3244 0.930 . S
C3258 C3256 1.395 . S
C3258 C3261 1.403 . S
C3259 C3256 1.403 . S
C3259 C3260 1.524 . S
C3259 C3263 1.400 . S
C3260 H3245 0.960 . S
C3260 H3246 0.960 . S
C3260 H3247 0.960 . S
C3260 C3259 1.524 . S
C3261 C3258 1.403 . S
C3261 C3262 1.392 . S
C3261 C3265 1.495 . S
C3262 C3261 1.392 . S
C3262 C3263 1.385 . S
C3262 C3264 1.478 . S
C3263 H3257 0.930 . S
C3263 C3259 1.400 . S
C3263 C3262 1.385 . S
C3264 C3262 1.478 . S
C3264 C3266 1.381 . S
C3264 C3270 1.383 . S
C3265 C3261 1.495 . S
C3265 H3271 0.959 . S
C3265 H3272 0.961 . S
C3265 H3273 0.960 . S
C3266 C3264 1.381 . S
C3266 C3267 1.394 . S
C3266 H3274 0.930 . S
C3267 C3266 1.394 . S
C3267 C3268 1.383 . S
C3267 H3275 0.929 . S
C3268 C3267 1.383 . S
C3268 C3269 1.377 . S
C3269 H3253 0.930 . S
C3269 C3268 1.377 . S
C3269 C3270 1.379 . S
C3270 H3254 0.931 . S
C3270 C3264 1.383 . S
C3270 C3269 1.379 . S
H3271 C3265 0.959 . S
H3272 C3265 0.961 . S
H3273 C3265 0.960 . S
H3274 C3266 0.930 . S
H3275 C3267 0.929 . S
H3276 C3284 0.929 . S
H3277 C3286 0.930 . S
H3278 C3288 0.930 . S
H3279 C3291 0.929 . S
H3280 C3294 0.930 . S
H3281 C3296 0.960 . S
H3282 C3296 0.960 . S
H3283 C3296 0.960 . S
C3284 H3276 0.929 . S
C3284 C3285 1.377 . S
C3284 C3286 1.384 . S
C3285 C3284 1.377 . S
C3285 C3291 1.390 . S
C3286 H3277 0.930 . S
C3286 C3284 1.384 . S
C3286 C3287 1.372 . S
C3287 C3286 1.372 . S
C3287 C3288 1.400 . S
C3287 C3292 1.490 . S
C3288 H3278 0.930 . S
C3288 C3287 1.400 . S
C3288 C3291 1.386 . S
H3289 C3305 0.930 . S
H3290 C3306 0.931 . S
C3291 H3279 0.929 . S
C3291 C3285 1.390 . S
C3291 C3288 1.386 . S
C3292 C3287 1.490 . S
C3292 C3294 1.395 . S
C3292 C3295 1.403 . S
H3293 C3299 0.930 . S
C3294 H3280 0.930 . S
C3294 C3292 1.395 . S
C3294 C3297 1.403 . S
C3295 C3292 1.403 . S
C3295 C3296 1.524 . S
C3295 C3299 1.400 . S
C3296 H3281 0.960 . S
C3296 H3282 0.960 . S
C3296 H3283 0.960 . S
C3296 C3295 1.524 . S
C3297 C3294 1.403 . S
C3297 C3298 1.392 . S
C3297 C3301 1.495 . S
C3298 C3297 1.392 . S
C3298 C3299 1.385 . S
C3298 C3300 1.478 . S
C3299 H3293 0.930 . S
C3299 C3295 1.400 . S
C3299 C3298 1.385 . S
C3300 C3298 1.478 . S
C3300 C3302 1.381 . S
C3300 C3306 1.383 . S
C3301 C3297 1.495 . S
C3301 H3307 0.959 . S
C3301 H3308 0.961 . S
C3301 H3309 0.960 . S
C3302 C3300 1.381 . S
C3302 C3303 1.394 . S
C3302 H3310 0.930 . S
C3303 C3302 1.394 . S
C3303 C3304 1.383 . S
C3303 H3311 0.929 . S
C3304 C3303 1.383 . S
C3304 C3305 1.377 . S
C3305 H3289 0.930 . S
C3305 C3304 1.377 . S
C3305 C3306 1.379 . S
C3306 H3290 0.931 . S
C3306 C3300 1.383 . S
C3306 C3305 1.379 . S
H3307 C3301 0.959 . S
H3308 C3301 0.961 . S
H3309 C3301 0.960 . S
H3310 C3302 0.930 . S
H3311 C3303 0.929 . S
H3312 C3320 0.929 . S
H3313 C3322 0.930 . S
H3314 C3324 0.930 . S
H3315 C3327 0.929 . S
H3316 C3330 0.930 . S
H3317 C3332 0.960 . S
H3318 C3332 0.960 . S
H3319 C3332 0.960 . S
C3320 H3312 0.929 . S
C3320 C3321 1.377 . S
C3320 C3322 1.384 . S
C3321 C3320 1.377 . S
C3321 C3327 1.390 . S
C3322 H3313 0.930 . S
C3322 C3320 1.384 . S
C3322 C3323 1.372 . S
C3323 C3322 1.372 . S
C3323 C3324 1.400 . S
C3323 C3328 1.490 . S
C3324 H3314 0.930 . S
C3324 C3323 1.400 . S
C3324 C3327 1.386 . S
H3325 C3341 0.930 . S
H3326 C3342 0.931 . S
C3327 H3315 0.929 . S
C3327 C3321 1.390 . S
C3327 C3324 1.386 . S
C3328 C3323 1.490 . S
C3328 C3330 1.395 . S
C3328 C3331 1.403 . S
H3329 C3335 0.930 . S
C3330 H3316 0.930 . S
C3330 C3328 1.395 . S
C3330 C3333 1.403 . S
C3331 C3328 1.403 . S
C3331 C3332 1.524 . S
C3331 C3335 1.400 . S
C3332 H3317 0.960 . S
C3332 H3318 0.960 . S
C3332 H3319 0.960 . S
C3332 C3331 1.524 . S
C3333 C3330 1.403 . S
C3333 C3334 1.392 . S
C3333 C3337 1.495 . S
C3334 C3333 1.392 . S
C3334 C3335 1.385 . S
C3334 C3336 1.478 . S
C3335 H3329 0.930 . S
C3335 C3331 1.400 . S
C3335 C3334 1.385 . S
C3336 C3334 1.478 . S
C3336 C3338 1.381 . S
C3336 C3342 1.383 . S
C3337 C3333 1.495 . S
C3337 H3343 0.959 . S
C3337 H3344 0.961 . S
C3337 H3345 0.960 . S
C3338 C3336 1.381 . S
C3338 C3339 1.394 . S
C3338 H3346 0.930 . S
C3339 C3338 1.394 . S
C3339 C3340 1.383 . S
C3339 H3347 0.929 . S
C3340 C3339 1.383 . S
C3340 C3341 1.377 . S
C3341 H3325 0.930 . S
C3341 C3340 1.377 . S
C3341 C3342 1.379 . S
C3342 H3326 0.931 . S
C3342 C3336 1.383 . S
C3342 C3341 1.379 . S
H3343 C3337 0.959 . S
H3344 C3337 0.961 . S
H3345 C3337 0.960 . S
H3346 C3338 0.930 . S
H3347 C3339 0.929 . S
H3348 C3356 0.929 . S
H3349 C3358 0.930 . S
H3350 C3360 0.930 . S
H3351 C3363 0.929 . S
H3352 C3366 0.930 . S
H3353 C3368 0.960 . S
H3354 C3368 0.960 . S
H3355 C3368 0.960 . S
C3356 H3348 0.929 . S
C3356 C3357 1.377 . S
C3356 C3358 1.384 . S
C3357 C3356 1.377 . S
C3357 C3363 1.390 . S
C3358 H3349 0.930 . S
C3358 C3356 1.384 . S
C3358 C3359 1.372 . S
C3359 C3358 1.372 . S
C3359 C3360 1.400 . S
C3359 C3364 1.490 . S
C3360 H3350 0.930 . S
C3360 C3359 1.400 . S
C3360 C3363 1.386 . S
H3361 C3377 0.930 . S
H3362 C3378 0.931 . S
C3363 H3351 0.929 . S
C3363 C3357 1.390 . S
C3363 C3360 1.386 . S
C3364 C3359 1.490 . S
C3364 C3366 1.395 . S
C3364 C3367 1.403 . S
H3365 C3371 0.930 . S
C3366 H3352 0.930 . S
C3366 C3364 1.395 . S
C3366 C3369 1.403 . S
C3367 C3364 1.403 . S
C3367 C3368 1.524 . S
C3367 C3371 1.400 . S
C3368 H3353 0.960 . S
C3368 H3354 0.960 . S
C3368 H3355 0.960 . S
C3368 C3367 1.524 . S
C3369 C3366 1.403 . S
C3369 C3370 1.392 . S
C3369 C3373 1.495 . S
C3370 C3369 1.392 . S
C3370 C3371 1.385 . S
C3370 C3372 1.478 . S
C3371 H3365 0.930 . S
C3371 C3367 1.400 . S
C3371 C3370 1.385 . S
C3372 C3370 1.478 . S
C3372 C3374 1.381 . S
C3372 C3378 1.383 . S
C3373 C3369 1.495 . S
C3373 H3379 0.959 . S
C3373 H3380 0.961 . S
C3373 H3381 0.960 . S
C3374 C3372 1.381 . S
C3374 C3375 1.394 . S
C3374 H3382 0.930 . S
C3375 C3374 1.394 . S
C3375 C3376 1.383 . S
C3375 H3383 0.929 . S
C3376 C3375 1.383 . S
C3376 C3377 1.377 . S
C3377 H3361 0.930 . S
C3377 C3376 1.377 . S
C3377 C3378 1.379 . S
C3378 H3362 0.931 . S
C3378 C3372 1.383 . S
C3378 C3377 1.379 . S
H3379 C3373 0.959 . S
H3380 C3373 0.961 . S
H3381 C3373 0.960 . S
H3382 C3374 0.930 . S
H3383 C3375 0.929 . S
H3384 C3392 0.929 . S
H3385 C3394 0.930 . S
H3386 C3396 0.930 . S
H3387 C3399 0.929 . S
H3388 C3402 0.930 . S
H3389 C3404 0.960 . S
H3390 C3404 0.960 . S
H3391 C3404 0.960 . S
C3392 H3384 0.929 . S
C3392 C3393 1.377 . S
C3392 C3394 1.384 . S
C3393 C3392 1.377 . S
C3393 C3399 1.390 . S
C3394 H3385 0.930 . S
C3394 C3392 1.384 . S
C3394 C3395 1.372 . S
C3395 C3394 1.372 . S
C3395 C3396 1.400 . S
C3395 C3400 1.490 . S
C3396 H3386 0.930 . S
C3396 C3395 1.400 . S
C3396 C3399 1.386 . S
H3397 C3413 0.930 . S
H3398 C3414 0.931 . S
C3399 H3387 0.929 . S
C3399 C3393 1.390 . S
C3399 C3396 1.386 . S
C3400 C3395 1.490 . S
C3400 C3402 1.395 . S
C3400 C3403 1.403 . S
H3401 C3407 0.930 . S
C3402 H3388 0.930 . S
C3402 C3400 1.395 . S
C3402 C3405 1.403 . S
C3403 C3400 1.403 . S
C3403 C3404 1.524 . S
C3403 C3407 1.400 . S
C3404 H3389 0.960 . S
C3404 H3390 0.960 . S
C3404 H3391 0.960 . S
C3404 C3403 1.524 . S
C3405 C3402 1.403 . S
C3405 C3406 1.392 . S
C3405 C3409 1.495 . S
C3406 C3405 1.392 . S
C3406 C3407 1.385 . S
C3406 C3408 1.478 . S
C3407 H3401 0.930 . S
C3407 C3403 1.400 . S
C3407 C3406 1.385 . S
C3408 C3406 1.478 . S
C3408 C3410 1.381 . S
C3408 C3414 1.383 . S
C3409 C3405 1.495 . S
C3409 H3415 0.959 . S
C3409 H3416 0.961 . S
C3409 H3417 0.960 . S
C3410 C3408 1.381 . S
C3410 C3411 1.394 . S
C3410 H3418 0.930 . S
C3411 C3410 1.394 . S
C3411 C3412 1.383 . S
C3411 H3419 0.929 . S
C3412 C3411 1.383 . S
C3412 C3413 1.377 . S
C3413 H3397 0.930 . S
C3413 C3412 1.377 . S
C3413 C3414 1.379 . S
C3414 H3398 0.931 . S
C3414 C3408 1.383 . S
C3414 C3413 1.379 . S
H3415 C3409 0.959 . S
H3416 C3409 0.961 . S
H3417 C3409 0.960 . S
H3418 C3410 0.930 . S
H3419 C3411 0.929 . S
H3420 C3428 0.929 . S
H3421 C3430 0.930 . S
H3422 C3432 0.930 . S
H3423 C3435 0.929 . S
H3424 C3438 0.930 . S
H3425 C3440 0.960 . S
H3426 C3440 0.960 . S
H3427 C3440 0.960 . S
C3428 H3420 0.929 . S
C3428 C3429 1.377 . S
C3428 C3430 1.384 . S
C3429 C3428 1.377 . S
C3429 C3435 1.390 . S
C3430 H3421 0.930 . S
C3430 C3428 1.384 . S
C3430 C3431 1.372 . S
C3431 C3430 1.372 . S
C3431 C3432 1.400 . S
C3431 C3436 1.490 . S
C3432 H3422 0.930 . S
C3432 C3431 1.400 . S
C3432 C3435 1.386 . S
H3433 C3449 0.930 . S
H3434 C3450 0.931 . S
C3435 H3423 0.929 . S
C3435 C3429 1.390 . S
C3435 C3432 1.386 . S
C3436 C3431 1.490 . S
C3436 C3438 1.395 . S
C3436 C3439 1.403 . S
H3437 C3443 0.930 . S
C3438 H3424 0.930 . S
C3438 C3436 1.395 . S
C3438 C3441 1.403 . S
C3439 C3436 1.403 . S
C3439 C3440 1.524 . S
C3439 C3443 1.400 . S
C3440 H3425 0.960 . S
C3440 H3426 0.960 . S
C3440 H3427 0.960 . S
C3440 C3439 1.524 . S
C3441 C3438 1.403 . S
C3441 C3442 1.392 . S
C3441 C3445 1.495 . S
C3442 C3441 1.392 . S
C3442 C3443 1.385 . S
C3442 C3444 1.478 . S
C3443 H3437 0.930 . S
C3443 C3439 1.400 . S
C3443 C3442 1.385 . S
C3444 C3442 1.478 . S
C3444 C3446 1.381 . S
C3444 C3450 1.383 . S
C3445 C3441 1.495 . S
C3445 H3451 0.959 . S
C3445 H3452 0.961 . S
C3445 H3453 0.960 . S
C3446 C3444 1.381 . S
C3446 C3447 1.394 . S
C3446 H3454 0.930 . S
C3447 C3446 1.394 . S
C3447 C3448 1.383 . S
C3447 H3455 0.929 . S
C3448 C3447 1.383 . S
C3448 C3449 1.377 . S
C3449 H3433 0.930 . S
C3449 C3448 1.377 . S
C3449 C3450 1.379 . S
C3450 H3434 0.931 . S
C3450 C3444 1.383 . S
C3450 C3449 1.379 . S
H3451 C3445 0.959 . S
H3452 C3445 0.961 . S
H3453 C3445 0.960 . S
H3454 C3446 0.930 . S
H3455 C3447 0.929 . S
H3456 C3464 0.929 . S
H3457 C3466 0.930 . S
H3458 C3468 0.930 . S
H3459 C3471 0.929 . S
H3460 C3474 0.930 . S
H3461 C3476 0.960 . S
H3462 C3476 0.960 . S
H3463 C3476 0.960 . S
C3464 H3456 0.929 . S
C3464 C3465 1.377 . S
C3464 C3466 1.384 . S
C3465 C3464 1.377 . S
C3465 C3471 1.390 . S
C3466 H3457 0.930 . S
C3466 C3464 1.384 . S
C3466 C3467 1.372 . S
C3467 C3466 1.372 . S
C3467 C3468 1.400 . S
C3467 C3472 1.490 . S
C3468 H3458 0.930 . S
C3468 C3467 1.400 . S
C3468 C3471 1.386 . S
H3469 C3485 0.930 . S
H3470 C3486 0.931 . S
C3471 H3459 0.929 . S
C3471 C3465 1.390 . S
C3471 C3468 1.386 . S
C3472 C3467 1.490 . S
C3472 C3474 1.395 . S
C3472 C3475 1.403 . S
H3473 C3479 0.930 . S
C3474 H3460 0.930 . S
C3474 C3472 1.395 . S
C3474 C3477 1.403 . S
C3475 C3472 1.403 . S
C3475 C3476 1.524 . S
C3475 C3479 1.400 . S
C3476 H3461 0.960 . S
C3476 H3462 0.960 . S
C3476 H3463 0.960 . S
C3476 C3475 1.524 . S
C3477 C3474 1.403 . S
C3477 C3478 1.392 . S
C3477 C3481 1.495 . S
C3478 C3477 1.392 . S
C3478 C3479 1.385 . S
C3478 C3480 1.478 . S
C3479 H3473 0.930 . S
C3479 C3475 1.400 . S
C3479 C3478 1.385 . S
C3480 C3478 1.478 . S
C3480 C3482 1.381 . S
C3480 C3486 1.383 . S
C3481 C3477 1.495 . S
C3481 H3487 0.959 . S
C3481 H3488 0.961 . S
C3481 H3489 0.960 . S
C3482 C3480 1.381 . S
C3482 C3483 1.394 . S
C3482 H3490 0.930 . S
C3483 C3482 1.394 . S
C3483 C3484 1.383 . S
C3483 H3491 0.929 . S
C3484 C3483 1.383 . S
C3484 C3485 1.377 . S
C3485 H3469 0.930 . S
C3485 C3484 1.377 . S
C3485 C3486 1.379 . S
C3486 H3470 0.931 . S
C3486 C3480 1.383 . S
C3486 C3485 1.379 . S
H3487 C3481 0.959 . S
H3488 C3481 0.961 . S
H3489 C3481 0.960 . S
H3490 C3482 0.930 . S
H3491 C3483 0.929 . S
H3492 C3500 0.929 . S
H3493 C3502 0.930 . S
H3494 C3504 0.930 . S
H3495 C3507 0.929 . S
H3496 C3510 0.930 . S
H3497 C3512 0.960 . S
H3498 C3512 0.960 . S
H3499 C3512 0.960 . S
C3500 H3492 0.929 . S
C3500 C3501 1.377 . S
C3500 C3502 1.384 . S
C3501 C3500 1.377 . S
C3501 C3507 1.390 . S
C3502 H3493 0.930 . S
C3502 C3500 1.384 . S
C3502 C3503 1.372 . S
C3503 C3502 1.372 . S
C3503 C3504 1.400 . S
C3503 C3508 1.490 . S
C3504 H3494 0.930 . S
C3504 C3503 1.400 . S
C3504 C3507 1.386 . S
H3505 C3521 0.930 . S
H3506 C3522 0.931 . S
C3507 H3495 0.929 . S
C3507 C3501 1.390 . S
C3507 C3504 1.386 . S
C3508 C3503 1.490 . S
C3508 C3510 1.395 . S
C3508 C3511 1.403 . S
H3509 C3515 0.930 . S
C3510 H3496 0.930 . S
C3510 C3508 1.395 . S
C3510 C3513 1.403 . S
C3511 C3508 1.403 . S
C3511 C3512 1.524 . S
C3511 C3515 1.400 . S
C3512 H3497 0.960 . S
C3512 H3498 0.960 . S
C3512 H3499 0.960 . S
C3512 C3511 1.524 . S
C3513 C3510 1.403 . S
C3513 C3514 1.392 . S
C3513 C3517 1.495 . S
C3514 C3513 1.392 . S
C3514 C3515 1.385 . S
C3514 C3516 1.478 . S
C3515 H3509 0.930 . S
C3515 C3511 1.400 . S
C3515 C3514 1.385 . S
C3516 C3514 1.478 . S
C3516 C3518 1.381 . S
C3516 C3522 1.383 . S
C3517 C3513 1.495 . S
C3517 H3523 0.959 . S
C3517 H3524 0.961 . S
C3517 H3525 0.960 . S
C3518 C3516 1.381 . S
C3518 C3519 1.394 . S
C3518 H3526 0.930 . S
C3519 C3518 1.394 . S
C3519 C3520 1.383 . S
C3519 H3527 0.929 . S
C3520 C3519 1.383 . S
C3520 C3521 1.377 . S
C3521 H3505 0.930 . S
C3521 C3520 1.377 . S
C3521 C3522 1.379 . S
C3522 H3506 0.931 . S
C3522 C3516 1.383 . S
C3522 C3521 1.379 . S
H3523 C3517 0.959 . S
H3524 C3517 0.961 . S
H3525 C3517 0.960 . S
H3526 C3518 0.930 . S
H3527 C3519 0.929 . S
H3528 C3536 0.929 . S
H3529 C3538 0.930 . S
H3530 C3540 0.930 . S
H3531 C3543 0.929 . S
H3532 C3546 0.930 . S
H3533 C3548 0.960 . S
H3534 C3548 0.960 . S
H3535 C3548 0.960 . S
C3536 H3528 0.929 . S
C3536 C3537 1.377 . S
C3536 C3538 1.384 . S
C3537 C3536 1.377 . S
C3537 C3543 1.390 . S
C3538 H3529 0.930 . S
C3538 C3536 1.384 . S
C3538 C3539 1.372 . S
C3539 C3538 1.372 . S
C3539 C3540 1.400 . S
C3539 C3544 1.490 . S
C3540 H3530 0.930 . S
C3540 C3539 1.400 . S
C3540 C3543 1.386 . S
H3541 C3557 0.930 . S
H3542 C3558 0.931 . S
C3543 H3531 0.929 . S
C3543 C3537 1.390 . S
C3543 C3540 1.386 . S
C3544 C3539 1.490 . S
C3544 C3546 1.395 . S
C3544 C3547 1.403 . S
H3545 C3551 0.930 . S
C3546 H3532 0.930 . S
C3546 C3544 1.395 . S
C3546 C3549 1.403 . S
C3547 C3544 1.403 . S
C3547 C3548 1.524 . S
C3547 C3551 1.400 . S
C3548 H3533 0.960 . S
C3548 H3534 0.960 . S
C3548 H3535 0.960 . S
C3548 C3547 1.524 . S
C3549 C3546 1.403 . S
C3549 C3550 1.392 . S
C3549 C3553 1.495 . S
C3550 C3549 1.392 . S
C3550 C3551 1.385 . S
C3550 C3552 1.478 . S
C3551 H3545 0.930 . S
C3551 C3547 1.400 . S
C3551 C3550 1.385 . S
C3552 C3550 1.478 . S
C3552 C3554 1.381 . S
C3552 C3558 1.383 . S
C3553 C3549 1.495 . S
C3553 H3559 0.959 . S
C3553 H3560 0.961 . S
C3553 H3561 0.960 . S
C3554 C3552 1.381 . S
C3554 C3555 1.394 . S
C3554 H3562 0.930 . S
C3555 C3554 1.394 . S
C3555 C3556 1.383 . S
C3555 H3563 0.929 . S
C3556 C3555 1.383 . S
C3556 C3557 1.377 . S
C3557 H3541 0.930 . S
C3557 C3556 1.377 . S
C3557 C3558 1.379 . S
C3558 H3542 0.931 . S
C3558 C3552 1.383 . S
C3558 C3557 1.379 . S
H3559 C3553 0.959 . S
H3560 C3553 0.961 . S
H3561 C3553 0.960 . S
H3562 C3554 0.930 . S
H3563 C3555 0.929 . S
H3564 C3572 0.929 . S
H3565 C3574 0.930 . S
H3566 C3576 0.930 . S
H3567 C3579 0.929 . S
H3568 C3582 0.930 . S
H3569 C3584 0.960 . S
H3570 C3584 0.960 . S
H3571 C3584 0.960 . S
C3572 H3564 0.929 . S
C3572 C3573 1.377 . S
C3572 C3574 1.384 . S
C3573 C3572 1.377 . S
C3573 C3579 1.390 . S
C3574 H3565 0.930 . S
C3574 C3572 1.384 . S
C3574 C3575 1.372 . S
C3575 C3574 1.372 . S
C3575 C3576 1.400 . S
C3575 C3580 1.490 . S
C3576 H3566 0.930 . S
C3576 C3575 1.400 . S
C3576 C3579 1.386 . S
H3577 C3593 0.930 . S
H3578 C3594 0.931 . S
C3579 H3567 0.929 . S
C3579 C3573 1.390 . S
C3579 C3576 1.386 . S
C3580 C3575 1.490 . S
C3580 C3582 1.395 . S
C3580 C3583 1.403 . S
H3581 C3587 0.930 . S
C3582 H3568 0.930 . S
C3582 C3580 1.395 . S
C3582 C3585 1.403 . S
C3583 C3580 1.403 . S
C3583 C3584 1.524 . S
C3583 C3587 1.400 . S
C3584 H3569 0.960 . S
C3584 H3570 0.960 . S
C3584 H3571 0.960 . S
C3584 C3583 1.524 . S
C3585 C3582 1.403 . S
C3585 C3586 1.392 . S
C3585 C3589 1.495 . S
C3586 C3585 1.392 . S
C3586 C3587 1.385 . S
C3586 C3588 1.478 . S
C3587 H3581 0.930 . S
C3587 C3583 1.400 . S
C3587 C3586 1.385 . S
C3588 C3586 1.478 . S
C3588 C3590 1.381 . S
C3588 C3594 1.383 . S
C3589 C3585 1.495 . S
C3589 H3595 0.959 . S
C3589 H3596 0.961 . S
C3589 H3597 0.960 . S
C3590 C3588 1.381 . S
C3590 C3591 1.394 . S
C3590 H3598 0.930 . S
C3591 C3590 1.394 . S
C3591 C3592 1.383 . S
C3591 H3599 0.929 . S
C3592 C3591 1.383 . S
C3592 C3593 1.377 . S
C3593 H3577 0.930 . S
C3593 C3592 1.377 . S
C3593 C3594 1.379 . S
C3594 H3578 0.931 . S
C3594 C3588 1.383 . S
C3594 C3593 1.379 . S
H3595 C3589 0.959 . S
H3596 C3589 0.961 . S
H3597 C3589 0.960 . S
H3598 C3590 0.930 . S
H3599 C3591 0.929 . S
H3600 C3608 0.929 . S
H3601 C3610 0.930 . S
H3602 C3612 0.930 . S
H3603 C3615 0.929 . S
H3604 C3618 0.930 . S
H3605 C3620 0.960 . S
H3606 C3620 0.960 . S
H3607 C3620 0.960 . S
C3608 H3600 0.929 . S
C3608 C3609 1.377 . S
C3608 C3610 1.384 . S
C3609 C3608 1.377 . S
C3609 C3615 1.390 . S
C3610 H3601 0.930 . S
C3610 C3608 1.384 . S
C3610 C3611 1.372 . S
C3611 C3610 1.372 . S
C3611 C3612 1.400 . S
C3611 C3616 1.490 . S
C3612 H3602 0.930 . S
C3612 C3611 1.400 . S
C3612 C3615 1.386 . S
H3613 C3629 0.930 . S
H3614 C3630 0.931 . S
C3615 H3603 0.929 . S
C3615 C3609 1.390 . S
C3615 C3612 1.386 . S
C3616 C3611 1.490 . S
C3616 C3618 1.395 . S
C3616 C3619 1.403 . S
H3617 C3623 0.930 . S
C3618 H3604 0.930 . S
C3618 C3616 1.395 . S
C3618 C3621 1.403 . S
C3619 C3616 1.403 . S
C3619 C3620 1.524 . S
C3619 C3623 1.400 . S
C3620 H3605 0.960 . S
C3620 H3606 0.960 . S
C3620 H3607 0.960 . S
C3620 C3619 1.524 . S
C3621 C3618 1.403 . S
C3621 C3622 1.392 . S
C3621 C3625 1.495 . S
C3622 C3621 1.392 . S
C3622 C3623 1.385 . S
C3622 C3624 1.478 . S
C3623 H3617 0.930 . S
C3623 C3619 1.400 . S
C3623 C3622 1.385 . S
C3624 C3622 1.478 . S
C3624 C3626 1.381 . S
C3624 C3630 1.383 . S
C3625 C3621 1.495 . S
C3625 H3631 0.959 . S
C3625 H3632 0.961 . S
C3625 H3633 0.960 . S
C3626 C3624 1.381 . S
C3626 C3627 1.394 . S
C3626 H3634 0.930 . S
C3627 C3626 1.394 . S
C3627 C3628 1.383 . S
C3627 H3635 0.929 . S
C3628 C3627 1.383 . S
C3628 C3629 1.377 . S
C3629 H3613 0.930 . S
C3629 C3628 1.377 . S
C3629 C3630 1.379 . S
C3630 H3614 0.931 . S
C3630 C3624 1.383 . S
C3630 C3629 1.379 . S
H3631 C3625 0.959 . S
H3632 C3625 0.961 . S
H3633 C3625 0.960 . S
H3634 C3626 0.930 . S
H3635 C3627 0.929 . S
H3636 C3644 0.929 . S
H3637 C3646 0.930 . S
H3638 C3648 0.930 . S
H3639 C3651 0.929 . S
H3640 C3654 0.930 . S
H3641 C3656 0.960 . S
H3642 C3656 0.960 . S
H3643 C3656 0.960 . S
C3644 H3636 0.929 . S
C3644 C3645 1.377 . S
C3644 C3646 1.384 . S
C3645 C3644 1.377 . S
C3645 C3651 1.390 . S
C3646 H3637 0.930 . S
C3646 C3644 1.384 . S
C3646 C3647 1.372 . S
C3647 C3646 1.372 . S
C3647 C3648 1.400 . S
C3647 C3652 1.490 . S
C3648 H3638 0.930 . S
C3648 C3647 1.400 . S
C3648 C3651 1.386 . S
H3649 C3665 0.930 . S
H3650 C3666 0.931 . S
C3651 H3639 0.929 . S
C3651 C3645 1.390 . S
C3651 C3648 1.386 . S
C3652 C3647 1.490 . S
C3652 C3654 1.395 . S
C3652 C3655 1.403 . S
H3653 C3659 0.930 . S
C3654 H3640 0.930 . S
C3654 C3652 1.395 . S
C3654 C3657 1.403 . S
C3655 C3652 1.403 . S
C3655 C3656 1.524 . S
C3655 C3659 1.400 . S
C3656 H3641 0.960 . S
C3656 H3642 0.960 . S
C3656 H3643 0.960 . S
C3656 C3655 1.524 . S
C3657 C3654 1.403 . S
C3657 C3658 1.392 . S
C3657 C3661 1.495 . S
C3658 C3657 1.392 . S
C3658 C3659 1.385 . S
C3658 C3660 1.478 . S
C3659 H3653 0.930 . S
C3659 C3655 1.400 . S
C3659 C3658 1.385 . S
C3660 C3658 1.478 . S
C3660 C3662 1.381 . S
C3660 C3666 1.383 . S
C3661 C3657 1.495 . S
C3661 H3667 0.959 . S
C3661 H3668 0.961 . S
C3661 H3669 0.960 . S
C3662 C3660 1.381 . S
C3662 C3663 1.394 . S
C3662 H3670 0.930 . S
C3663 C3662 1.394 . S
C3663 C3664 1.383 . S
C3663 H3671 0.929 . S
C3664 C3663 1.383 . S
C3664 C3665 1.377 . S
C3665 H3649 0.930 . S
C3665 C3664 1.377 . S
C3665 C3666 1.379 . S
C3666 H3650 0.931 . S
C3666 C3660 1.383 . S
C3666 C3665 1.379 . S
H3667 C3661 0.959 . S
H3668 C3661 0.961 . S
H3669 C3661 0.960 . S
H3670 C3662 0.930 . S
H3671 C3663 0.929 . S
H3672 C3680 0.929 . S
H3673 C3682 0.930 . S
H3674 C3684 0.930 . S
H3675 C3687 0.929 . S
H3676 C3690 0.930 . S
H3677 C3692 0.960 . S
H3678 C3692 0.960 . S
H3679 C3692 0.960 . S
C3680 H3672 0.929 . S
C3680 C3681 1.377 . S
C3680 C3682 1.384 . S
C3681 C3680 1.377 . S
C3681 C3687 1.390 . S
C3682 H3673 0.930 . S
C3682 C3680 1.384 . S
C3682 C3683 1.372 . S
C3683 C3682 1.372 . S
C3683 C3684 1.400 . S
C3683 C3688 1.490 . S
C3684 H3674 0.930 . S
C3684 C3683 1.400 . S
C3684 C3687 1.386 . S
H3685 C3701 0.930 . S
H3686 C3702 0.931 . S
C3687 H3675 0.929 . S
C3687 C3681 1.390 . S
C3687 C3684 1.386 . S
C3688 C3683 1.490 . S
C3688 C3690 1.395 . S
C3688 C3691 1.403 . S
H3689 C3695 0.930 . S
C3690 H3676 0.930 . S
C3690 C3688 1.395 . S
C3690 C3693 1.403 . S
C3691 C3688 1.403 . S
C3691 C3692 1.524 . S
C3691 C3695 1.400 . S
C3692 H3677 0.960 . S
C3692 H3678 0.960 . S
C3692 H3679 0.960 . S
C3692 C3691 1.524 . S
C3693 C3690 1.403 . S
C3693 C3694 1.392 . S
C3693 C3697 1.495 . S
C3694 C3693 1.392 . S
C3694 C3695 1.385 . S
C3694 C3696 1.478 . S
C3695 H3689 0.930 . S
C3695 C3691 1.400 . S
C3695 C3694 1.385 . S
C3696 C3694 1.478 . S
C3696 C3698 1.381 . S
C3696 C3702 1.383 . S
C3697 C3693 1.495 . S
C3697 H3703 0.959 . S
C3697 H3704 0.961 . S
C3697 H3705 0.960 . S
C3698 C3696 1.381 . S
C3698 C3699 1.394 . S
C3698 H3706 0.930 . S
C3699 C3698 1.394 . S
C3699 C3700 1.383 . S
C3699 H3707 0.929 . S
C3700 C3699 1.383 . S
C3700 C3701 1.377 . S
C3701 H3685 0.930 . S
C3701 C3700 1.377 . S
C3701 C3702 1.379 . S
C3702 H3686 0.931 . S
C3702 C3696 1.383 . S
C3702 C3701 1.379 . S
H3703 C3697 0.959 . S
H3704 C3697 0.961 . S
H3705 C3697 0.960 . S
H3706 C3698 0.930 . S
H3707 C3699 0.929 . S
H3708 C3716 0.929 . S
H3709 C3718 0.930 . S
H3710 C3720 0.930 . S
H3711 C3723 0.929 . S
H3712 C3726 0.930 . S
H3713 C3728 0.960 . S
H3714 C3728 0.960 . S
H3715 C3728 0.960 . S
C3716 H3708 0.929 . S
C3716 C3717 1.377 . S
C3716 C3718 1.384 . S
C3717 C3716 1.377 . S
C3717 C3723 1.390 . S
C3718 H3709 0.930 . S
C3718 C3716 1.384 . S
C3718 C3719 1.372 . S
C3719 C3718 1.372 . S
C3719 C3720 1.400 . S
C3719 C3724 1.490 . S
C3720 H3710 0.930 . S
C3720 C3719 1.400 . S
C3720 C3723 1.386 . S
H3721 C3737 0.930 . S
H3722 C3738 0.931 . S
C3723 H3711 0.929 . S
C3723 C3717 1.390 . S
C3723 C3720 1.386 . S
C3724 C3719 1.490 . S
C3724 C3726 1.395 . S
C3724 C3727 1.403 . S
H3725 C3731 0.930 . S
C3726 H3712 0.930 . S
C3726 C3724 1.395 . S
C3726 C3729 1.403 . S
C3727 C3724 1.403 . S
C3727 C3728 1.524 . S
C3727 C3731 1.400 . S
C3728 H3713 0.960 . S
C3728 H3714 0.960 . S
C3728 H3715 0.960 . S
C3728 C3727 1.524 . S
C3729 C3726 1.403 . S
C3729 C3730 1.392 . S
C3729 C3733 1.495 . S
C3730 C3729 1.392 . S
C3730 C3731 1.385 . S
C3730 C3732 1.478 . S
C3731 H3725 0.930 . S
C3731 C3727 1.400 . S
C3731 C3730 1.385 . S
C3732 C3730 1.478 . S
C3732 C3734 1.381 . S
C3732 C3738 1.383 . S
C3733 C3729 1.495 . S
C3733 H3739 0.959 . S
C3733 H3740 0.961 . S
C3733 H3741 0.960 . S
C3734 C3732 1.381 . S
C3734 C3735 1.394 . S
C3734 H3742 0.930 . S
C3735 C3734 1.394 . S
C3735 C3736 1.383 . S
C3735 H3743 0.929 . S
C3736 C3735 1.383 . S
C3736 C3737 1.377 . S
C3737 H3721 0.930 . S
C3737 C3736 1.377 . S
C3737 C3738 1.379 . S
C3738 H3722 0.931 . S
C3738 C3732 1.383 . S
C3738 C3737 1.379 . S
H3739 C3733 0.959 . S
H3740 C3733 0.961 . S
H3741 C3733 0.960 . S
H3742 C3734 0.930 . S
H3743 C3735 0.929 . S
H3744 C3752 0.929 . S
H3745 C3754 0.930 . S
H3746 C3756 0.930 . S
H3747 C3759 0.929 . S
H3748 C3762 0.930 . S
H3749 C3764 0.960 . S
H3750 C3764 0.960 . S
H3751 C3764 0.960 . S
C3752 H3744 0.929 . S
C3752 C3753 1.377 . S
C3752 C3754 1.384 . S
C3753 C3752 1.377 . S
C3753 C3759 1.390 . S
C3754 H3745 0.930 . S
C3754 C3752 1.384 . S
C3754 C3755 1.372 . S
C3755 C3754 1.372 . S
C3755 C3756 1.400 . S
C3755 C3760 1.490 . S
C3756 H3746 0.930 . S
C3756 C3755 1.400 . S
C3756 C3759 1.386 . S
H3757 C3773 0.930 . S
H3758 C3774 0.931 . S
C3759 H3747 0.929 . S
C3759 C3753 1.390 . S
C3759 C3756 1.386 . S
C3760 C3755 1.490 . S
C3760 C3762 1.395 . S
C3760 C3763 1.403 . S
H3761 C3767 0.930 . S
C3762 H3748 0.930 . S
C3762 C3760 1.395 . S
C3762 C3765 1.403 . S
C3763 C3760 1.403 . S
C3763 C3764 1.524 . S
C3763 C3767 1.400 . S
C3764 H3749 0.960 . S
C3764 H3750 0.960 . S
C3764 H3751 0.960 . S
C3764 C3763 1.524 . S
C3765 C3762 1.403 . S
C3765 C3766 1.392 . S
C3765 C3769 1.495 . S
C3766 C3765 1.392 . S
C3766 C3767 1.385 . S
C3766 C3768 1.478 . S
C3767 H3761 0.930 . S
C3767 C3763 1.400 . S
C3767 C3766 1.385 . S
C3768 C3766 1.478 . S
C3768 C3770 1.381 . S
C3768 C3774 1.383 . S
C3769 C3765 1.495 . S
C3769 H3775 0.959 . S
C3769 H3776 0.961 . S
C3769 H3777 0.960 . S
C3770 C3768 1.381 . S
C3770 C3771 1.394 . S
C3770 H3778 0.930 . S
C3771 C3770 1.394 . S
C3771 C3772 1.383 . S
C3771 H3779 0.929 . S
C3772 C3771 1.383 . S
C3772 C3773 1.377 . S
C3773 H3757 0.930 . S
C3773 C3772 1.377 . S
C3773 C3774 1.379 . S
C3774 H3758 0.931 . S
C3774 C3768 1.383 . S
C3774 C3773 1.379 . S
H3775 C3769 0.959 . S
H3776 C3769 0.961 . S
H3777 C3769 0.960 . S
H3778 C3770 0.930 . S
H3779 C3771 0.929 . S
H3780 C3788 0.929 . S
H3781 C3790 0.930 . S
H3782 C3792 0.930 . S
H3783 C3795 0.929 . S
H3784 C3798 0.930 . S
H3785 C3800 0.960 . S
H3786 C3800 0.960 . S
H3787 C3800 0.960 . S
C3788 H3780 0.929 . S
C3788 C3789 1.377 . S
C3788 C3790 1.384 . S
C3789 C3788 1.377 . S
C3789 C3795 1.390 . S
C3790 H3781 0.930 . S
C3790 C3788 1.384 . S
C3790 C3791 1.372 . S
C3791 C3790 1.372 . S
C3791 C3792 1.400 . S
C3791 C3796 1.490 . S
C3792 H3782 0.930 . S
C3792 C3791 1.400 . S
C3792 C3795 1.386 . S
H3793 C3809 0.930 . S
H3794 C3810 0.931 . S
C3795 H3783 0.929 . S
C3795 C3789 1.390 . S
C3795 C3792 1.386 . S
C3796 C3791 1.490 . S
C3796 C3798 1.395 . S
C3796 C3799 1.403 . S
H3797 C3803 0.930 . S
C3798 H3784 0.930 . S
C3798 C3796 1.395 . S
C3798 C3801 1.403 . S
C3799 C3796 1.403 . S
C3799 C3800 1.524 . S
C3799 C3803 1.400 . S
C3800 H3785 0.960 . S
C3800 H3786 0.960 . S
C3800 H3787 0.960 . S
C3800 C3799 1.524 . S
C3801 C3798 1.403 . S
C3801 C3802 1.392 . S
C3801 C3805 1.495 . S
C3802 C3801 1.392 . S
C3802 C3803 1.385 . S
C3802 C3804 1.478 . S
C3803 H3797 0.930 . S
C3803 C3799 1.400 . S
C3803 C3802 1.385 . S
C3804 C3802 1.478 . S
C3804 C3806 1.381 . S
C3804 C3810 1.383 . S
C3805 C3801 1.495 . S
C3805 H3811 0.959 . S
C3805 H3812 0.961 . S
C3805 H3813 0.960 . S
C3806 C3804 1.381 . S
C3806 C3807 1.394 . S
C3806 H3814 0.930 . S
C3807 C3806 1.394 . S
C3807 C3808 1.383 . S
C3807 H3815 0.929 . S
C3808 C3807 1.383 . S
C3808 C3809 1.377 . S
C3809 H3793 0.930 . S
C3809 C3808 1.377 . S
C3809 C3810 1.379 . S
C3810 H3794 0.931 . S
C3810 C3804 1.383 . S
C3810 C3809 1.379 . S
H3811 C3805 0.959 . S
H3812 C3805 0.961 . S
H3813 C3805 0.960 . S
H3814 C3806 0.930 . S
H3815 C3807 0.929 . S
H3816 C3824 0.929 . S
H3817 C3826 0.930 . S
H3818 C3828 0.930 . S
H3819 C3831 0.929 . S
H3820 C3834 0.930 . S
H3821 C3836 0.960 . S
H3822 C3836 0.960 . S
H3823 C3836 0.960 . S
C3824 H3816 0.929 . S
C3824 C3825 1.377 . S
C3824 C3826 1.384 . S
C3825 C3824 1.377 . S
C3825 C3831 1.390 . S
C3826 H3817 0.930 . S
C3826 C3824 1.384 . S
C3826 C3827 1.372 . S
C3827 C3826 1.372 . S
C3827 C3828 1.400 . S
C3827 C3832 1.490 . S
C3828 H3818 0.930 . S
C3828 C3827 1.400 . S
C3828 C3831 1.386 . S
H3829 C3845 0.930 . S
H3830 C3846 0.931 . S
C3831 H3819 0.929 . S
C3831 C3825 1.390 . S
C3831 C3828 1.386 . S
C3832 C3827 1.490 . S
C3832 C3834 1.395 . S
C3832 C3835 1.403 . S
H3833 C3839 0.930 . S
C3834 H3820 0.930 . S
C3834 C3832 1.395 . S
C3834 C3837 1.403 . S
C3835 C3832 1.403 . S
C3835 C3836 1.524 . S
C3835 C3839 1.400 . S
C3836 H3821 0.960 . S
C3836 H3822 0.960 . S
C3836 H3823 0.960 . S
C3836 C3835 1.524 . S
C3837 C3834 1.403 . S
C3837 C3838 1.392 . S
C3837 C3841 1.495 . S
C3838 C3837 1.392 . S
C3838 C3839 1.385 . S
C3838 C3840 1.478 . S
C3839 H3833 0.930 . S
C3839 C3835 1.400 . S
C3839 C3838 1.385 . S
C3840 C3838 1.478 . S
C3840 C3842 1.381 . S
C3840 C3846 1.383 . S
C3841 C3837 1.495 . S
C3841 H3847 0.959 . S
C3841 H3848 0.961 . S
C3841 H3849 0.960 . S
C3842 C3840 1.381 . S
C3842 C3843 1.394 . S
C3842 H3850 0.930 . S
C3843 C3842 1.394 . S
C3843 C3844 1.383 . S
C3843 H3851 0.929 . S
C3844 C3843 1.383 . S
C3844 C3845 1.377 . S
C3845 H3829 0.930 . S
C3845 C3844 1.377 . S
C3845 C3846 1.379 . S
C3846 H3830 0.931 . S
C3846 C3840 1.383 . S
C3846 C3845 1.379 . S
H3847 C3841 0.959 . S
H3848 C3841 0.961 . S
H3849 C3841 0.960 . S
H3850 C3842 0.930 . S
H3851 C3843 0.929 . S
H3852 C3860 0.929 . S
H3853 C3862 0.930 . S
H3854 C3864 0.930 . S
H3855 C3867 0.929 . S
H3856 C3870 0.930 . S
H3857 C3872 0.960 . S
H3858 C3872 0.960 . S
H3859 C3872 0.960 . S
C3860 H3852 0.929 . S
C3860 C3861 1.377 . S
C3860 C3862 1.384 . S
C3861 C3860 1.377 . S
C3861 C3867 1.390 . S
C3862 H3853 0.930 . S
C3862 C3860 1.384 . S
C3862 C3863 1.372 . S
C3863 C3862 1.372 . S
C3863 C3864 1.400 . S
C3863 C3868 1.490 . S
C3864 H3854 0.930 . S
C3864 C3863 1.400 . S
C3864 C3867 1.386 . S
H3865 C3881 0.930 . S
H3866 C3882 0.931 . S
C3867 H3855 0.929 . S
C3867 C3861 1.390 . S
C3867 C3864 1.386 . S
C3868 C3863 1.490 . S
C3868 C3870 1.395 . S
C3868 C3871 1.403 . S
H3869 C3875 0.930 . S
C3870 H3856 0.930 . S
C3870 C3868 1.395 . S
C3870 C3873 1.403 . S
C3871 C3868 1.403 . S
C3871 C3872 1.524 . S
C3871 C3875 1.400 . S
C3872 H3857 0.960 . S
C3872 H3858 0.960 . S
C3872 H3859 0.960 . S
C3872 C3871 1.524 . S
C3873 C3870 1.403 . S
C3873 C3874 1.392 . S
C3873 C3877 1.495 . S
C3874 C3873 1.392 . S
C3874 C3875 1.385 . S
C3874 C3876 1.478 . S
C3875 H3869 0.930 . S
C3875 C3871 1.400 . S
C3875 C3874 1.385 . S
C3876 C3874 1.478 . S
C3876 C3878 1.381 . S
C3876 C3882 1.383 . S
C3877 C3873 1.495 . S
C3877 H3883 0.959 . S
C3877 H3884 0.961 . S
C3877 H3885 0.960 . S
C3878 C3876 1.381 . S
C3878 C3879 1.394 . S
C3878 H3886 0.930 . S
C3879 C3878 1.394 . S
C3879 C3880 1.383 . S
C3879 H3887 0.929 . S
C3880 C3879 1.383 . S
C3880 C3881 1.377 . S
C3881 H3865 0.930 . S
C3881 C3880 1.377 . S
C3881 C3882 1.379 . S
C3882 H3866 0.931 . S
C3882 C3876 1.383 . S
C3882 C3881 1.379 . S
H3883 C3877 0.959 . S
H3884 C3877 0.961 . S
H3885 C3877 0.960 . S
H3886 C3878 0.930 . S
H3887 C3879 0.929 . S
H3888 C3896 0.929 1_554 S
H3889 C3898 0.930 . S
H3890 C3900 0.930 . S
H3891 C3903 0.929 . S
H3892 C3906 0.930 . S
H3893 C3908 0.960 . S
H3894 C3908 0.960 . S
H3895 C3908 0.960 . S
C3896 H3888 0.929 1_556 S
C3896 C3897 1.377 . S
C3896 C3898 1.384 . S
C3897 C3896 1.377 . S
C3897 C3903 1.390 . S
C3898 H3889 0.930 . S
C3898 C3896 1.384 . S
C3898 C3899 1.372 . S
C3899 C3898 1.372 . S
C3899 C3900 1.400 . S
C3899 C3904 1.490 . S
C3900 H3890 0.930 . S
C3900 C3899 1.400 . S
C3900 C3903 1.386 . S
H3901 C3917 0.930 . S
H3902 C3918 0.931 . S
C3903 H3891 0.929 . S
C3903 C3897 1.390 . S
C3903 C3900 1.386 . S
C3904 C3899 1.490 . S
C3904 C3906 1.395 . S
C3904 C3907 1.403 . S
H3905 C3911 0.930 . S
C3906 H3892 0.930 . S
C3906 C3904 1.395 . S
C3906 C3909 1.403 . S
C3907 C3904 1.403 . S
C3907 C3908 1.524 . S
C3907 C3911 1.400 . S
C3908 H3893 0.960 . S
C3908 H3894 0.960 . S
C3908 H3895 0.960 . S
C3908 C3907 1.524 . S
C3909 C3906 1.403 . S
C3909 C3910 1.392 . S
C3909 C3913 1.495 . S
C3910 C3909 1.392 . S
C3910 C3911 1.385 . S
C3910 C3912 1.478 . S
C3911 H3905 0.930 . S
C3911 C3907 1.400 . S
C3911 C3910 1.385 . S
C3912 C3910 1.478 . S
C3912 C3914 1.381 . S
C3912 C3918 1.383 . S
C3913 C3909 1.495 . S
C3913 H3919 0.959 . S
C3913 H3920 0.961 . S
C3913 H3921 0.960 . S
C3914 C3912 1.381 . S
C3914 C3915 1.394 . S
C3914 H3922 0.930 . S
C3915 C3914 1.394 . S
C3915 C3916 1.383 . S
C3915 H3923 0.929 . S
C3916 C3915 1.383 . S
C3916 C3917 1.377 . S
C3917 H3901 0.930 . S
C3917 C3916 1.377 . S
C3917 C3918 1.379 . S
C3918 H3902 0.931 . S
C3918 C3912 1.383 . S
C3918 C3917 1.379 . S
H3919 C3913 0.959 . S
H3920 C3913 0.961 . S
H3921 C3913 0.960 . S
H3922 C3914 0.930 . S
H3923 C3915 0.929 . S
H3924 C3932 0.929 . S
H3925 C3934 0.930 . S
H3926 C3936 0.930 . S
H3927 C3939 0.929 . S
H3928 C3942 0.930 . S
H3929 C3944 0.960 . S
H3930 C3944 0.960 . S
H3931 C3944 0.960 . S
C3932 H3924 0.929 . S
C3932 C3933 1.377 . S
C3932 C3934 1.384 . S
C3933 C3932 1.377 . S
C3933 C3939 1.390 . S
C3934 H3925 0.930 . S
C3934 C3932 1.384 . S
C3934 C3935 1.372 . S
C3935 C3934 1.372 . S
C3935 C3936 1.400 . S
C3935 C3940 1.490 . S
C3936 H3926 0.930 . S
C3936 C3935 1.400 . S
C3936 C3939 1.386 . S
H3937 C3953 0.930 . S
H3938 C3954 0.931 . S
C3939 H3927 0.929 . S
C3939 C3933 1.390 . S
C3939 C3936 1.386 . S
C3940 C3935 1.490 . S
C3940 C3942 1.395 . S
C3940 C3943 1.403 . S
H3941 C3947 0.930 . S
C3942 H3928 0.930 . S
C3942 C3940 1.395 . S
C3942 C3945 1.403 . S
C3943 C3940 1.403 . S
C3943 C3944 1.524 . S
C3943 C3947 1.400 . S
C3944 H3929 0.960 . S
C3944 H3930 0.960 . S
C3944 H3931 0.960 . S
C3944 C3943 1.524 . S
C3945 C3942 1.403 . S
C3945 C3946 1.392 . S
C3945 C3949 1.495 . S
C3946 C3945 1.392 . S
C3946 C3947 1.385 . S
C3946 C3948 1.478 . S
C3947 H3941 0.930 . S
C3947 C3943 1.400 . S
C3947 C3946 1.385 . S
C3948 C3946 1.478 . S
C3948 C3950 1.381 . S
C3948 C3954 1.383 . S
C3949 C3945 1.495 . S
C3949 H3955 0.959 . S
C3949 H3956 0.961 . S
C3949 H3957 0.960 . S
C3950 C3948 1.381 . S
C3950 C3951 1.394 . S
C3950 H3958 0.930 . S
C3951 C3950 1.394 . S
C3951 C3952 1.383 . S
C3951 H3959 0.929 . S
C3952 C3951 1.383 . S
C3952 C3953 1.377 . S
C3953 H3937 0.930 . S
C3953 C3952 1.377 . S
C3953 C3954 1.379 . S
C3954 H3938 0.931 . S
C3954 C3948 1.383 . S
C3954 C3953 1.379 . S
H3955 C3949 0.959 . S
H3956 C3949 0.961 . S
H3957 C3949 0.960 . S
H3958 C3950 0.930 . S
H3959 C3951 0.929 . S
H3960 C3968 0.929 . S
H3961 C3970 0.930 . S
H3962 C3972 0.930 . S
H3963 C3975 0.929 . S
H3964 C3978 0.930 . S
H3965 C3980 0.960 . S
H3966 C3980 0.960 . S
H3967 C3980 0.960 . S
C3968 H3960 0.929 . S
C3968 C3969 1.377 . S
C3968 C3970 1.384 . S
C3969 C3968 1.377 . S
C3969 C3975 1.390 . S
C3970 H3961 0.930 . S
C3970 C3968 1.384 . S
C3970 C3971 1.372 . S
C3971 C3970 1.372 . S
C3971 C3972 1.400 . S
C3971 C3976 1.490 . S
C3972 H3962 0.930 . S
C3972 C3971 1.400 . S
C3972 C3975 1.386 . S
H3973 C3989 0.930 . S
H3974 C3990 0.931 . S
C3975 H3963 0.929 . S
C3975 C3969 1.390 . S
C3975 C3972 1.386 . S
C3976 C3971 1.490 . S
C3976 C3978 1.395 . S
C3976 C3979 1.403 . S
H3977 C3983 0.930 . S
C3978 H3964 0.930 . S
C3978 C3976 1.395 . S
C3978 C3981 1.403 . S
C3979 C3976 1.403 . S
C3979 C3980 1.524 . S
C3979 C3983 1.400 . S
C3980 H3965 0.960 . S
C3980 H3966 0.960 . S
C3980 H3967 0.960 . S
C3980 C3979 1.524 . S
C3981 C3978 1.403 . S
C3981 C3982 1.392 . S
C3981 C3985 1.495 . S
C3982 C3981 1.392 . S
C3982 C3983 1.385 . S
C3982 C3984 1.478 . S
C3983 H3977 0.930 . S
C3983 C3979 1.400 . S
C3983 C3982 1.385 . S
C3984 C3982 1.478 . S
C3984 C3986 1.381 . S
C3984 C3990 1.383 . S
C3985 C3981 1.495 . S
C3985 H3991 0.959 . S
C3985 H3992 0.961 . S
C3985 H3993 0.960 . S
C3986 C3984 1.381 . S
C3986 C3987 1.394 . S
C3986 H3994 0.930 . S
C3987 C3986 1.394 . S
C3987 C3988 1.383 . S
C3987 H3995 0.929 . S
C3988 C3987 1.383 . S
C3988 C3989 1.377 . S
C3989 H3973 0.930 . S
C3989 C3988 1.377 . S
C3989 C3990 1.379 . S
C3990 H3974 0.931 . S
C3990 C3984 1.383 . S
C3990 C3989 1.379 . S
H3991 C3985 0.959 . S
H3992 C3985 0.961 . S
H3993 C3985 0.960 . S
H3994 C3986 0.930 . S
H3995 C3987 0.929 . S
H3996 C4004 0.929 . S
H3997 C4006 0.930 . S
H3998 C4008 0.930 . S
H3999 C4011 0.929 . S
H4000 C4014 0.930 . S
H4001 C4016 0.960 . S
H4002 C4016 0.960 . S
H4003 C4016 0.960 . S
C4004 H3996 0.929 . S
C4004 C4005 1.377 . S
C4004 C4006 1.384 . S
C4005 C4004 1.377 . S
C4005 C4011 1.390 . S
C4006 H3997 0.930 . S
C4006 C4004 1.384 . S
C4006 C4007 1.372 . S
C4007 C4006 1.372 . S
C4007 C4008 1.400 . S
C4007 C4012 1.490 . S
C4008 H3998 0.930 . S
C4008 C4007 1.400 . S
C4008 C4011 1.386 . S
H4009 C4025 0.930 . S
H4010 C4026 0.931 . S
C4011 H3999 0.929 . S
C4011 C4005 1.390 . S
C4011 C4008 1.386 . S
C4012 C4007 1.490 . S
C4012 C4014 1.395 . S
C4012 C4015 1.403 . S
H4013 C4019 0.930 . S
C4014 H4000 0.930 . S
C4014 C4012 1.395 . S
C4014 C4017 1.403 . S
C4015 C4012 1.403 . S
C4015 C4016 1.524 . S
C4015 C4019 1.400 . S
C4016 H4001 0.960 . S
C4016 H4002 0.960 . S
C4016 H4003 0.960 . S
C4016 C4015 1.524 . S
C4017 C4014 1.403 . S
C4017 C4018 1.392 . S
C4017 C4021 1.495 . S
C4018 C4017 1.392 . S
C4018 C4019 1.385 . S
C4018 C4020 1.478 . S
C4019 H4013 0.930 . S
C4019 C4015 1.400 . S
C4019 C4018 1.385 . S
C4020 C4018 1.478 . S
C4020 C4022 1.381 . S
C4020 C4026 1.383 . S
C4021 C4017 1.495 . S
C4021 H4027 0.959 . S
C4021 H4028 0.961 . S
C4021 H4029 0.960 . S
C4022 C4020 1.381 . S
C4022 C4023 1.394 . S
C4022 H4030 0.930 . S
C4023 C4022 1.394 . S
C4023 C4024 1.383 . S
C4023 H4031 0.929 . S
C4024 C4023 1.383 . S
C4024 C4025 1.377 . S
C4025 H4009 0.930 . S
C4025 C4024 1.377 . S
C4025 C4026 1.379 . S
C4026 H4010 0.931 . S
C4026 C4020 1.383 . S
C4026 C4025 1.379 . S
H4027 C4021 0.959 . S
H4028 C4021 0.961 . S
H4029 C4021 0.960 . S
H4030 C4022 0.930 . S
H4031 C4023 0.929 . S
H4032 C4040 0.929 . S
H4033 C4042 0.930 . S
H4034 C4044 0.930 . S
H4035 C4047 0.929 1_554 S
H4036 C4050 0.930 . S
H4037 C4052 0.960 . S
H4038 C4052 0.960 . S
H4039 C4052 0.960 . S
C4040 H4032 0.929 . S
C4040 C4041 1.377 . S
C4040 C4042 1.384 . S
C4041 C4040 1.377 . S
C4041 C4047 1.390 . S
C4042 H4033 0.930 . S
C4042 C4040 1.384 . S
C4042 C4043 1.372 . S
C4043 C4042 1.372 . S
C4043 C4044 1.400 . S
C4043 C4048 1.490 . S
C4044 H4034 0.930 . S
C4044 C4043 1.400 . S
C4044 C4047 1.386 . S
H4045 C4061 0.930 . S
H4046 C4062 0.931 . S
C4047 H4035 0.929 1_556 S
C4047 C4041 1.390 . S
C4047 C4044 1.386 . S
C4048 C4043 1.490 . S
C4048 C4050 1.395 . S
C4048 C4051 1.403 . S
H4049 C4055 0.930 . S
C4050 H4036 0.930 . S
C4050 C4048 1.395 . S
C4050 C4053 1.403 . S
C4051 C4048 1.403 . S
C4051 C4052 1.524 . S
C4051 C4055 1.400 . S
C4052 H4037 0.960 . S
C4052 H4038 0.960 . S
C4052 H4039 0.960 . S
C4052 C4051 1.524 . S
C4053 C4050 1.403 . S
C4053 C4054 1.392 . S
C4053 C4057 1.495 . S
C4054 C4053 1.392 . S
C4054 C4055 1.385 . S
C4054 C4056 1.478 . S
C4055 H4049 0.930 . S
C4055 C4051 1.400 . S
C4055 C4054 1.385 . S
C4056 C4054 1.478 . S
C4056 C4058 1.381 . S
C4056 C4062 1.383 . S
C4057 C4053 1.495 . S
C4057 H4063 0.959 . S
C4057 H4064 0.961 . S
C4057 H4065 0.960 . S
C4058 C4056 1.381 . S
C4058 C4059 1.394 . S
C4058 H4066 0.930 . S
C4059 C4058 1.394 . S
C4059 C4060 1.383 . S
C4059 H4067 0.929 . S
C4060 C4059 1.383 . S
C4060 C4061 1.377 . S
C4061 H4045 0.930 . S
C4061 C4060 1.377 . S
C4061 C4062 1.379 . S
C4062 H4046 0.931 . S
C4062 C4056 1.383 . S
C4062 C4061 1.379 . S
H4063 C4057 0.959 . S
H4064 C4057 0.961 . S
H4065 C4057 0.960 . S
H4066 C4058 0.930 . S
H4067 C4059 0.929 . S
H4068 C4076 0.929 . S
H4069 C4078 0.930 . S
H4070 C4080 0.930 . S
H4071 C4083 0.929 . S
H4072 C4086 0.930 . S
H4073 C4088 0.960 . S
H4074 C4088 0.960 . S
H4075 C4088 0.960 . S
C4076 H4068 0.929 . S
C4076 C4077 1.377 . S
C4076 C4078 1.384 . S
C4077 C4076 1.377 . S
C4077 C4083 1.390 . S
C4078 H4069 0.930 . S
C4078 C4076 1.384 . S
C4078 C4079 1.372 . S
C4079 C4078 1.372 . S
C4079 C4080 1.400 . S
C4079 C4084 1.490 . S
C4080 H4070 0.930 . S
C4080 C4079 1.400 . S
C4080 C4083 1.386 . S
H4081 C4097 0.930 . S
H4082 C4098 0.931 . S
C4083 H4071 0.929 . S
C4083 C4077 1.390 . S
C4083 C4080 1.386 . S
C4084 C4079 1.490 . S
C4084 C4086 1.395 . S
C4084 C4087 1.403 . S
H4085 C4091 0.930 . S
C4086 H4072 0.930 . S
C4086 C4084 1.395 . S
C4086 C4089 1.403 . S
C4087 C4084 1.403 . S
C4087 C4088 1.524 . S
C4087 C4091 1.400 . S
C4088 H4073 0.960 . S
C4088 H4074 0.960 . S
C4088 H4075 0.960 . S
C4088 C4087 1.524 . S
C4089 C4086 1.403 . S
C4089 C4090 1.392 . S
C4089 C4093 1.495 . S
C4090 C4089 1.392 . S
C4090 C4091 1.385 . S
C4090 C4092 1.478 . S
C4091 H4085 0.930 . S
C4091 C4087 1.400 . S
C4091 C4090 1.385 . S
C4092 C4090 1.478 . S
C4092 C4094 1.381 . S
C4092 C4098 1.383 . S
C4093 C4089 1.495 . S
C4093 H4099 0.959 . S
C4093 H4100 0.961 . S
C4093 H4101 0.960 . S
C4094 C4092 1.381 . S
C4094 C4095 1.394 . S
C4094 H4102 0.930 . S
C4095 C4094 1.394 . S
C4095 C4096 1.383 . S
C4095 H4103 0.929 . S
C4096 C4095 1.383 . S
C4096 C4097 1.377 . S
C4097 H4081 0.930 . S
C4097 C4096 1.377 . S
C4097 C4098 1.379 . S
C4098 H4082 0.931 . S
C4098 C4092 1.383 . S
C4098 C4097 1.379 . S
H4099 C4093 0.959 . S
H4100 C4093 0.961 . S
H4101 C4093 0.960 . S
H4102 C4094 0.930 . S
H4103 C4095 0.929 . S
H4104 C4112 0.929 . S
H4105 C4114 0.930 . S
H4106 C4116 0.930 . S
H4107 C4119 0.929 . S
H4108 C4122 0.930 . S
H4109 C4124 0.960 . S
H4110 C4124 0.960 . S
H4111 C4124 0.960 . S
C4112 H4104 0.929 . S
C4112 C4113 1.377 . S
C4112 C4114 1.384 . S
C4113 C4112 1.377 . S
C4113 C4119 1.390 . S
C4114 H4105 0.930 . S
C4114 C4112 1.384 . S
C4114 C4115 1.372 . S
C4115 C4114 1.372 . S
C4115 C4116 1.400 . S
C4115 C4120 1.490 . S
C4116 H4106 0.930 . S
C4116 C4115 1.400 . S
C4116 C4119 1.386 . S
H4117 C4133 0.930 . S
H4118 C4134 0.931 . S
C4119 H4107 0.929 . S
C4119 C4113 1.390 . S
C4119 C4116 1.386 . S
C4120 C4115 1.490 . S
C4120 C4122 1.395 . S
C4120 C4123 1.403 . S
H4121 C4127 0.930 . S
C4122 H4108 0.930 . S
C4122 C4120 1.395 . S
C4122 C4125 1.403 . S
C4123 C4120 1.403 . S
C4123 C4124 1.524 . S
C4123 C4127 1.400 . S
C4124 H4109 0.960 . S
C4124 H4110 0.960 . S
C4124 H4111 0.960 . S
C4124 C4123 1.524 . S
C4125 C4122 1.403 . S
C4125 C4126 1.392 . S
C4125 C4129 1.495 . S
C4126 C4125 1.392 . S
C4126 C4127 1.385 . S
C4126 C4128 1.478 . S
C4127 H4121 0.930 . S
C4127 C4123 1.400 . S
C4127 C4126 1.385 . S
C4128 C4126 1.478 . S
C4128 C4130 1.381 . S
C4128 C4134 1.383 . S
C4129 C4125 1.495 . S
C4129 H4135 0.959 . S
C4129 H4136 0.961 . S
C4129 H4137 0.960 . S
C4130 C4128 1.381 . S
C4130 C4131 1.394 . S
C4130 H4138 0.930 . S
C4131 C4130 1.394 . S
C4131 C4132 1.383 . S
C4131 H4139 0.929 . S
C4132 C4131 1.383 . S
C4132 C4133 1.377 . S
C4133 H4117 0.930 . S
C4133 C4132 1.377 . S
C4133 C4134 1.379 . S
C4134 H4118 0.931 . S
C4134 C4128 1.383 . S
C4134 C4133 1.379 . S
H4135 C4129 0.959 . S
H4136 C4129 0.961 . S
H4137 C4129 0.960 . S
H4138 C4130 0.930 . S
H4139 C4131 0.929 . S
H4140 C4148 0.929 . S
H4141 C4150 0.930 . S
H4142 C4152 0.930 . S
H4143 C4155 0.929 . S
H4144 C4158 0.930 . S
H4145 C4160 0.960 . S
H4146 C4160 0.960 . S
H4147 C4160 0.960 . S
C4148 H4140 0.929 . S
C4148 C4149 1.377 . S
C4148 C4150 1.384 . S
C4149 C4148 1.377 . S
C4149 C4155 1.390 . S
C4150 H4141 0.930 . S
C4150 C4148 1.384 . S
C4150 C4151 1.372 . S
C4151 C4150 1.372 . S
C4151 C4152 1.400 . S
C4151 C4156 1.490 . S
C4152 H4142 0.930 . S
C4152 C4151 1.400 . S
C4152 C4155 1.386 . S
H4153 C4169 0.930 . S
H4154 C4170 0.931 . S
C4155 H4143 0.929 . S
C4155 C4149 1.390 . S
C4155 C4152 1.386 . S
C4156 C4151 1.490 . S
C4156 C4158 1.395 . S
C4156 C4159 1.403 . S
H4157 C4163 0.930 . S
C4158 H4144 0.930 . S
C4158 C4156 1.395 . S
C4158 C4161 1.403 . S
C4159 C4156 1.403 . S
C4159 C4160 1.524 . S
C4159 C4163 1.400 . S
C4160 H4145 0.960 . S
C4160 H4146 0.960 . S
C4160 H4147 0.960 . S
C4160 C4159 1.524 . S
C4161 C4158 1.403 . S
C4161 C4162 1.392 . S
C4161 C4165 1.495 . S
C4162 C4161 1.392 . S
C4162 C4163 1.385 . S
C4162 C4164 1.478 . S
C4163 H4157 0.930 . S
C4163 C4159 1.400 . S
C4163 C4162 1.385 . S
C4164 C4162 1.478 . S
C4164 C4166 1.381 . S
C4164 C4170 1.383 . S
C4165 C4161 1.495 . S
C4165 H4171 0.959 . S
C4165 H4172 0.961 . S
C4165 H4173 0.960 . S
C4166 C4164 1.381 . S
C4166 C4167 1.394 . S
C4166 H4174 0.930 . S
C4167 C4166 1.394 . S
C4167 C4168 1.383 . S
C4167 H4175 0.929 . S
C4168 C4167 1.383 . S
C4168 C4169 1.377 . S
C4169 H4153 0.930 . S
C4169 C4168 1.377 . S
C4169 C4170 1.379 . S
C4170 H4154 0.931 . S
C4170 C4164 1.383 . S
C4170 C4169 1.379 . S
H4171 C4165 0.959 . S
H4172 C4165 0.961 . S
H4173 C4165 0.960 . S
H4174 C4166 0.930 . S
H4175 C4167 0.929 . S
H4176 C4184 0.929 . S
H4177 C4186 0.930 . S
H4178 C4188 0.930 . S
H4179 C4191 0.929 . S
H4180 C4194 0.930 . S
H4181 C4196 0.960 . S
H4182 C4196 0.960 . S
H4183 C4196 0.960 . S
C4184 H4176 0.929 . S
C4184 C4185 1.377 . S
C4184 C4186 1.384 . S
C4185 C4184 1.377 . S
C4185 C4191 1.390 . S
C4186 H4177 0.930 . S
C4186 C4184 1.384 . S
C4186 C4187 1.372 . S
C4187 C4186 1.372 . S
C4187 C4188 1.400 . S
C4187 C4192 1.490 . S
C4188 H4178 0.930 . S
C4188 C4187 1.400 . S
C4188 C4191 1.386 . S
H4189 C4205 0.930 . S
H4190 C4206 0.931 . S
C4191 H4179 0.929 . S
C4191 C4185 1.390 . S
C4191 C4188 1.386 . S
C4192 C4187 1.490 . S
C4192 C4194 1.395 . S
C4192 C4195 1.403 . S
H4193 C4199 0.930 . S
C4194 H4180 0.930 . S
C4194 C4192 1.395 . S
C4194 C4197 1.403 . S
C4195 C4192 1.403 . S
C4195 C4196 1.524 . S
C4195 C4199 1.400 . S
C4196 H4181 0.960 . S
C4196 H4182 0.960 . S
C4196 H4183 0.960 . S
C4196 C4195 1.524 . S
C4197 C4194 1.403 . S
C4197 C4198 1.392 . S
C4197 C4201 1.495 . S
C4198 C4197 1.392 . S
C4198 C4199 1.385 . S
C4198 C4200 1.478 . S
C4199 H4193 0.930 . S
C4199 C4195 1.400 . S
C4199 C4198 1.385 . S
C4200 C4198 1.478 . S
C4200 C4202 1.381 . S
C4200 C4206 1.383 . S
C4201 C4197 1.495 . S
C4201 H4207 0.959 . S
C4201 H4208 0.961 . S
C4201 H4209 0.960 . S
C4202 C4200 1.381 . S
C4202 C4203 1.394 . S
C4202 H4210 0.930 . S
C4203 C4202 1.394 . S
C4203 C4204 1.383 . S
C4203 H4211 0.929 . S
C4204 C4203 1.383 . S
C4204 C4205 1.377 . S
C4205 H4189 0.930 . S
C4205 C4204 1.377 . S
C4205 C4206 1.379 . S
C4206 H4190 0.931 . S
C4206 C4200 1.383 . S
C4206 C4205 1.379 . S
H4207 C4201 0.959 . S
H4208 C4201 0.961 . S
H4209 C4201 0.960 . S
H4210 C4202 0.930 . S
H4211 C4203 0.929 . S
H4212 C4220 0.929 . S
H4213 C4222 0.930 . S
H4214 C4224 0.930 . S
H4215 C4227 0.929 . S
H4216 C4230 0.930 . S
H4217 C4232 0.960 . S
H4218 C4232 0.960 . S
H4219 C4232 0.960 . S
C4220 H4212 0.929 . S
C4220 C4221 1.377 . S
C4220 C4222 1.384 . S
C4221 C4220 1.377 . S
C4221 C4227 1.390 . S
C4222 H4213 0.930 . S
C4222 C4220 1.384 . S
C4222 C4223 1.372 . S
C4223 C4222 1.372 . S
C4223 C4224 1.400 . S
C4223 C4228 1.490 . S
C4224 H4214 0.930 . S
C4224 C4223 1.400 . S
C4224 C4227 1.386 . S
H4225 C4241 0.930 . S
H4226 C4242 0.931 . S
C4227 H4215 0.929 . S
C4227 C4221 1.390 . S
C4227 C4224 1.386 . S
C4228 C4223 1.490 . S
C4228 C4230 1.395 . S
C4228 C4231 1.403 . S
H4229 C4235 0.930 . S
C4230 H4216 0.930 . S
C4230 C4228 1.395 . S
C4230 C4233 1.403 . S
C4231 C4228 1.403 . S
C4231 C4232 1.524 . S
C4231 C4235 1.400 . S
C4232 H4217 0.960 . S
C4232 H4218 0.960 . S
C4232 H4219 0.960 . S
C4232 C4231 1.524 . S
C4233 C4230 1.403 . S
C4233 C4234 1.392 . S
C4233 C4237 1.495 . S
C4234 C4233 1.392 . S
C4234 C4235 1.385 . S
C4234 C4236 1.478 . S
C4235 H4229 0.930 . S
C4235 C4231 1.400 . S
C4235 C4234 1.385 . S
C4236 C4234 1.478 . S
C4236 C4238 1.381 . S
C4236 C4242 1.383 . S
C4237 C4233 1.495 . S
C4237 H4243 0.959 . S
C4237 H4244 0.961 . S
C4237 H4245 0.960 . S
C4238 C4236 1.381 . S
C4238 C4239 1.394 . S
C4238 H4246 0.930 . S
C4239 C4238 1.394 . S
C4239 C4240 1.383 . S
C4239 H4247 0.929 . S
C4240 C4239 1.383 . S
C4240 C4241 1.377 . S
C4241 H4225 0.930 . S
C4241 C4240 1.377 . S
C4241 C4242 1.379 . S
C4242 H4226 0.931 . S
C4242 C4236 1.383 . S
C4242 C4241 1.379 . S
H4243 C4237 0.959 . S
H4244 C4237 0.961 . S
H4245 C4237 0.960 . S
H4246 C4238 0.930 . S
H4247 C4239 0.929 . S
H4248 C4256 0.929 . S
H4249 C4258 0.930 . S
H4250 C4260 0.930 . S
H4251 C4263 0.929 . S
H4252 C4266 0.930 . S
H4253 C4268 0.960 . S
H4254 C4268 0.960 . S
H4255 C4268 0.960 . S
C4256 H4248 0.929 . S
C4256 C4257 1.377 . S
C4256 C4258 1.384 . S
C4257 C4256 1.377 . S
C4257 C4263 1.390 . S
C4258 H4249 0.930 . S
C4258 C4256 1.384 . S
C4258 C4259 1.372 . S
C4259 C4258 1.372 . S
C4259 C4260 1.400 . S
C4259 C4264 1.490 . S
C4260 H4250 0.930 . S
C4260 C4259 1.400 . S
C4260 C4263 1.386 . S
H4261 C4277 0.930 . S
H4262 C4278 0.931 . S
C4263 H4251 0.929 . S
C4263 C4257 1.390 . S
C4263 C4260 1.386 . S
C4264 C4259 1.490 . S
C4264 C4266 1.395 . S
C4264 C4267 1.403 . S
H4265 C4271 0.930 . S
C4266 H4252 0.930 . S
C4266 C4264 1.395 . S
C4266 C4269 1.403 . S
C4267 C4264 1.403 . S
C4267 C4268 1.524 . S
C4267 C4271 1.400 . S
C4268 H4253 0.960 . S
C4268 H4254 0.960 . S
C4268 H4255 0.960 . S
C4268 C4267 1.524 . S
C4269 C4266 1.403 . S
C4269 C4270 1.392 . S
C4269 C4273 1.495 . S
C4270 C4269 1.392 . S
C4270 C4271 1.385 . S
C4270 C4272 1.478 . S
C4271 H4265 0.930 . S
C4271 C4267 1.400 . S
C4271 C4270 1.385 . S
C4272 C4270 1.478 . S
C4272 C4274 1.381 . S
C4272 C4278 1.383 . S
C4273 C4269 1.495 . S
C4273 H4279 0.959 . S
C4273 H4280 0.961 . S
C4273 H4281 0.960 . S
C4274 C4272 1.381 . S
C4274 C4275 1.394 . S
C4274 H4282 0.930 . S
C4275 C4274 1.394 . S
C4275 C4276 1.383 . S
C4275 H4283 0.929 . S
C4276 C4275 1.383 . S
C4276 C4277 1.377 . S
C4277 H4261 0.930 . S
C4277 C4276 1.377 . S
C4277 C4278 1.379 . S
C4278 H4262 0.931 . S
C4278 C4272 1.383 . S
C4278 C4277 1.379 . S
H4279 C4273 0.959 . S
H4280 C4273 0.961 . S
H4281 C4273 0.960 . S
H4282 C4274 0.930 . S
H4283 C4275 0.929 . S
H4284 C4292 0.929 . S
H4285 C4294 0.930 . S
H4286 C4296 0.930 . S
H4287 C4299 0.929 . S
H4288 C4302 0.930 . S
H4289 C4304 0.960 . S
H4290 C4304 0.960 . S
H4291 C4304 0.960 . S
C4292 H4284 0.929 . S
C4292 C4293 1.377 . S
C4292 C4294 1.384 . S
C4293 C4292 1.377 . S
C4293 C4299 1.390 . S
C4294 H4285 0.930 . S
C4294 C4292 1.384 . S
C4294 C4295 1.372 . S
C4295 C4294 1.372 . S
C4295 C4296 1.400 . S
C4295 C4300 1.490 . S
C4296 H4286 0.930 . S
C4296 C4295 1.400 . S
C4296 C4299 1.386 . S
H4297 C4313 0.893 1_655 S
H4298 C4314 0.931 . S
C4299 H4287 0.929 . S
C4299 C4293 1.390 . S
C4299 C4296 1.386 . S
C4300 C4295 1.490 . S
C4300 C4302 1.395 . S
C4300 C4303 1.380 1_455 S
H4301 C4307 0.979 . S
C4302 H4288 0.930 . S
C4302 C4300 1.395 . S
C4302 C4305 1.403 . S
C4303 C4300 1.380 1_655 S
C4303 C4304 1.536 . S
C4303 C4307 1.388 . S
C4304 H4289 0.960 . S
C4304 H4290 0.960 . S
C4304 H4291 0.960 . S
C4304 C4303 1.536 . S
C4305 C4302 1.403 . S
C4305 C4306 1.392 . S
C4305 C4309 1.495 . S
C4306 C4305 1.392 . S
C4306 C4307 1.363 1_455 S
C4306 C4308 1.478 . S
C4307 H4301 0.979 . S
C4307 C4303 1.388 . S
C4307 C4306 1.363 1_655 S
C4308 C4306 1.478 . S
C4308 C4310 1.381 . S
C4308 C4314 1.383 . S
C4309 C4305 1.495 . S
C4309 H4315 0.959 . S
C4309 H4316 0.961 . S
C4309 H4317 0.960 . S
C4310 C4308 1.381 . S
C4310 C4311 1.394 . S
C4310 H4318 0.930 . S
C4311 C4310 1.394 . S
C4311 C4312 1.383 . S
C4311 H4319 0.929 . S
C4312 C4311 1.383 . S
C4312 C4313 1.355 . S
C4313 H4297 0.893 1_455 S
C4313 C4312 1.355 . S
C4313 C4314 1.451 . S
C4314 H4298 0.931 . S
C4314 C4308 1.383 . S
C4314 C4313 1.451 . S
H4315 C4309 0.959 . S
H4316 C4309 0.961 . S
H4317 C4309 0.960 . S
H4318 C4310 0.930 . S
H4319 C4311 0.929 . S
H4320 C4328 0.929 . S
H4321 C4330 0.930 . S
H4322 C4332 0.930 . S
H4323 C4335 0.929 . S
H4324 C4338 0.930 . S
H4325 C4340 0.960 . S
H4326 C4340 0.960 . S
H4327 C4340 0.960 . S
C4328 H4320 0.929 . S
C4328 C4329 1.377 . S
C4328 C4330 1.384 . S
C4329 C4328 1.377 . S
C4329 C4335 1.390 . S
C4330 H4321 0.930 . S
C4330 C4328 1.384 . S
C4330 C4331 1.372 . S
C4331 C4330 1.372 . S
C4331 C4332 1.400 . S
C4331 C4336 1.490 . S
C4332 H4322 0.930 . S
C4332 C4331 1.400 . S
C4332 C4335 1.386 . S
H4333 C4349 0.930 . S
H4334 C4350 0.931 . S
C4335 H4323 0.929 . S
C4335 C4329 1.390 . S
C4335 C4332 1.386 . S
C4336 C4331 1.490 . S
C4336 C4338 1.395 . S
C4336 C4339 1.403 . S
H4337 C4343 0.930 . S
C4338 H4324 0.930 . S
C4338 C4336 1.395 . S
C4338 C4341 1.403 . S
C4339 C4336 1.403 . S
C4339 C4340 1.524 . S
C4339 C4343 1.400 . S
C4340 H4325 0.960 . S
C4340 H4326 0.960 . S
C4340 H4327 0.960 . S
C4340 C4339 1.524 . S
C4341 C4338 1.403 . S
C4341 C4342 1.392 . S
C4341 C4345 1.495 . S
C4342 C4341 1.392 . S
C4342 C4343 1.385 . S
C4342 C4344 1.478 . S
C4343 H4337 0.930 . S
C4343 C4339 1.400 . S
C4343 C4342 1.385 . S
C4344 C4342 1.478 . S
C4344 C4346 1.381 . S
C4344 C4350 1.383 . S
C4345 C4341 1.495 . S
C4345 H4351 0.959 . S
C4345 H4352 0.961 . S
C4345 H4353 0.960 . S
C4346 C4344 1.381 . S
C4346 C4347 1.394 . S
C4346 H4354 0.930 . S
C4347 C4346 1.394 . S
C4347 C4348 1.383 . S
C4347 H4355 0.929 . S
C4348 C4347 1.383 . S
C4348 C4349 1.377 . S
C4349 H4333 0.930 . S
C4349 C4348 1.377 . S
C4349 C4350 1.379 . S
C4350 H4334 0.931 . S
C4350 C4344 1.383 . S
C4350 C4349 1.379 . S
H4351 C4345 0.959 . S
H4352 C4345 0.961 . S
H4353 C4345 0.960 . S
H4354 C4346 0.930 . S
H4355 C4347 0.929 . S
H4356 C4364 0.929 . S
H4357 C4366 0.930 . S
H4358 C4368 0.930 1_545 S
H4359 C4371 0.929 1_545 S
H4360 C4374 0.930 . S
H4361 C4376 0.960 . S
H4362 C4376 0.960 . S
H4363 C4376 0.960 . S
C4364 H4356 0.929 . S
C4364 C4365 1.377 . S
C4364 C4366 1.384 . S
C4365 C4364 1.377 . S
C4365 C4371 1.390 . S
C4366 H4357 0.930 . S
C4366 C4364 1.384 . S
C4366 C4367 1.372 . S
C4367 C4366 1.372 . S
C4367 C4368 1.400 . S
C4367 C4372 1.490 . S
C4368 H4358 0.930 1_565 S
C4368 C4367 1.400 . S
C4368 C4371 1.386 . S
H4369 C4385 0.930 . S
H4370 C4386 0.931 . S
C4371 H4359 0.929 1_565 S
C4371 C4365 1.390 . S
C4371 C4368 1.386 . S
C4372 C4367 1.490 . S
C4372 C4374 1.395 . S
C4372 C4375 1.396 1_565 S
H4373 C4379 0.952 . S
C4374 H4360 0.930 . S
C4374 C4372 1.395 . S
C4374 C4377 1.403 . S
C4375 C4372 1.396 1_545 S
C4375 C4376 1.538 . S
C4375 C4379 1.414 . S
C4376 H4361 0.960 . S
C4376 H4362 0.960 . S
C4376 H4363 0.960 . S
C4376 C4375 1.538 . S
C4377 C4374 1.403 . S
C4377 C4378 1.392 . S
C4377 C4381 1.495 . S
C4378 C4377 1.392 . S
C4378 C4379 1.344 1_565 S
C4378 C4380 1.478 . S
C4379 H4373 0.952 . S
C4379 C4375 1.414 . S
C4379 C4378 1.344 1_545 S
C4380 C4378 1.478 . S
C4380 C4382 1.381 . S
C4380 C4386 1.383 1_565 S
C4381 C4377 1.495 . S
C4381 H4387 0.959 . S
C4381 H4388 0.961 . S
C4381 H4389 0.960 . S
C4382 C4380 1.381 . S
C4382 C4383 1.394 . S
C4382 H4390 0.930 . S
C4383 C4382 1.394 . S
C4383 C4384 1.383 . S
C4383 H4391 0.929 . S
C4384 C4383 1.383 . S
C4384 C4385 1.377 1_565 S
C4385 H4369 0.930 . S
C4385 C4384 1.377 1_545 S
C4385 C4386 1.379 . S
C4386 H4370 0.931 . S
C4386 C4380 1.383 1_545 S
C4386 C4385 1.379 . S
H4387 C4381 0.959 . S
H4388 C4381 0.961 . S
H4389 C4381 0.960 . S
H4390 C4382 0.930 . S
H4391 C4383 0.929 . S
H4392 C4400 0.929 . S
H4393 C4402 0.930 . S
H4394 C4404 0.930 . S
H4395 C4407 0.929 . S
H4396 C4410 0.930 1_545 S
H4397 C4412 0.960 . S
H4398 C4412 0.960 . S
H4399 C4412 0.960 . S
C4400 H4392 0.929 . S
C4400 C4401 1.377 . S
C4400 C4402 1.384 . S
C4401 C4400 1.377 . S
C4401 C4407 1.390 . S
C4402 H4393 0.930 . S
C4402 C4400 1.384 . S
C4402 C4403 1.372 . S
C4403 C4402 1.372 . S
C4403 C4404 1.400 . S
C4403 C4408 1.490 . S
C4404 H4394 0.930 . S
C4404 C4403 1.400 . S
C4404 C4407 1.386 . S
H4405 C4421 0.930 . S
H4406 C4422 0.923 . S
C4407 H4395 0.929 . S
C4407 C4401 1.390 . S
C4407 C4404 1.386 . S
C4408 C4403 1.490 . S
C4408 C4410 1.395 . S
C4408 C4411 1.403 . S
H4409 C4415 0.930 . S
C4410 H4396 0.930 1_565 S
C4410 C4408 1.395 . S
C4410 C4413 1.368 1_565 S
C4411 C4408 1.403 . S
C4411 C4412 1.524 . S
C4411 C4415 1.400 . S
C4412 H4397 0.960 . S
C4412 H4398 0.960 . S
C4412 H4399 0.960 . S
C4412 C4411 1.524 . S
C4413 C4410 1.368 1_545 S
C4413 C4414 1.375 1_545 S
C4413 C4417 1.549 . S
C4414 C4413 1.375 1_565 S
C4414 C4415 1.385 . S
C4414 C4416 1.478 . S
C4415 H4409 0.930 . S
C4415 C4411 1.400 . S
C4415 C4414 1.385 . S
C4416 C4414 1.478 . S
C4416 C4418 1.381 . S
C4416 C4422 1.357 1_565 S
C4417 C4413 1.549 . S
C4417 H4423 0.959 . S
C4417 H4424 0.961 . S
C4417 H4425 0.960 . S
C4418 C4416 1.381 . S
C4418 C4419 1.394 . S
C4418 H4426 0.930 . S
C4419 C4418 1.394 . S
C4419 C4420 1.383 . S
C4419 H4427 0.929 . S
C4420 C4419 1.383 . S
C4420 C4421 1.377 1_565 S
C4421 H4405 0.930 . S
C4421 C4420 1.377 1_545 S
C4421 C4422 1.420 . S
C4422 H4406 0.923 . S
C4422 C4416 1.357 1_545 S
C4422 C4421 1.420 . S
H4423 C4417 0.959 . S
H4424 C4417 0.961 . S
H4425 C4417 0.960 . S
H4426 C4418 0.930 . S
H4427 C4419 0.929 . S
H4428 C4436 0.929 1_655 S
H4429 C4438 0.930 1_655 S
H4430 C4440 0.930 . S
H4431 C4443 0.929 . S
H4432 C4446 0.930 . S
H4433 C4448 0.960 . S
H4434 C4448 0.960 . S
H4435 C4448 0.960 . S
C4436 H4428 0.929 1_455 S
C4436 C4437 1.377 . S
C4436 C4438 1.384 . S
C4437 C4436 1.377 . S
C4437 C4443 1.390 . S
C4438 H4429 0.930 1_455 S
C4438 C4436 1.384 . S
C4438 C4439 1.372 . S
C4439 C4438 1.372 . S
C4439 C4440 1.400 . S
C4439 C4444 1.490 . S
C4440 H4430 0.930 . S
C4440 C4439 1.400 . S
C4440 C4443 1.386 . S
H4441 C4457 0.930 . S
H4442 C4458 0.931 . S
C4443 H4431 0.929 . S
C4443 C4437 1.390 . S
C4443 C4440 1.386 . S
C4444 C4439 1.490 . S
C4444 C4446 1.395 1_455 S
C4444 C4447 1.403 . S
H4445 C4451 0.930 . S
C4446 H4432 0.930 . S
C4446 C4444 1.395 1_655 S
C4446 C4449 1.403 . S
C4447 C4444 1.403 . S
C4447 C4448 1.524 . S
C4447 C4451 1.400 . S
C4448 H4433 0.960 . S
C4448 H4434 0.960 . S
C4448 H4435 0.960 . S
C4448 C4447 1.524 . S
C4449 C4446 1.403 . S
C4449 C4450 1.392 1_655 S
C4449 C4453 1.495 . S
C4450 C4449 1.392 1_455 S
C4450 C4451 1.385 . S
C4450 C4452 1.478 . S
C4451 H4445 0.930 . S
C4451 C4447 1.400 . S
C4451 C4450 1.385 . S
C4452 C4450 1.478 . S
C4452 C4454 1.381 1_455 S
C4452 C4458 1.383 . S
C4453 C4449 1.495 . S
C4453 H4459 0.959 . S
C4453 H4460 0.961 . S
C4453 H4461 0.960 . S
C4454 C4452 1.381 1_655 S
C4454 C4455 1.394 . S
C4454 H4462 0.930 . S
C4455 C4454 1.394 . S
C4455 C4456 1.383 1_655 S
C4455 H4463 0.929 . S
C4456 C4455 1.383 1_455 S
C4456 C4457 1.377 . S
C4457 H4441 0.930 . S
C4457 C4456 1.377 . S
C4457 C4458 1.379 . S
C4458 H4442 0.931 . S
C4458 C4452 1.383 . S
C4458 C4457 1.379 . S
H4459 C4453 0.959 . S
H4460 C4453 0.961 . S
H4461 C4453 0.960 . S
H4462 C4454 0.930 . S
H4463 C4455 0.929 . S
H4464 C4472 0.929 . S
H4465 C4474 0.930 . S
H4466 C4476 0.930 . S
H4467 C4479 0.929 . S
H4468 C4482 0.930 . S
H4469 C4484 0.960 . S
H4470 C4484 0.960 . S
H4471 C4484 0.960 . S
C4472 H4464 0.929 . S
C4472 C4473 1.377 . S
C4472 C4474 1.384 . S
C4473 C4472 1.377 . S
C4473 C4479 1.390 . S
C4474 H4465 0.930 . S
C4474 C4472 1.384 . S
C4474 C4475 1.372 . S
C4475 C4474 1.372 . S
C4475 C4476 1.400 . S
C4475 C4480 1.490 . S
C4476 H4466 0.930 . S
C4476 C4475 1.400 . S
C4476 C4479 1.386 . S
H4477 C4493 0.930 . S
H4478 C4494 0.931 . S
C4479 H4467 0.929 . S
C4479 C4473 1.390 . S
C4479 C4476 1.386 . S
C4480 C4475 1.490 . S
C4480 C4482 1.395 . S
C4480 C4483 1.403 . S
H4481 C4487 0.930 . S
C4482 H4468 0.930 . S
C4482 C4480 1.395 . S
C4482 C4485 1.403 . S
C4483 C4480 1.403 . S
C4483 C4484 1.524 . S
C4483 C4487 1.400 . S
C4484 H4469 0.960 . S
C4484 H4470 0.960 . S
C4484 H4471 0.960 . S
C4484 C4483 1.524 . S
C4485 C4482 1.403 . S
C4485 C4486 1.392 . S
C4485 C4489 1.495 . S
C4486 C4485 1.392 . S
C4486 C4487 1.385 . S
C4486 C4488 1.478 . S
C4487 H4481 0.930 . S
C4487 C4483 1.400 . S
C4487 C4486 1.385 . S
C4488 C4486 1.478 . S
C4488 C4490 1.381 . S
C4488 C4494 1.383 . S
C4489 C4485 1.495 . S
C4489 H4495 0.959 . S
C4489 H4496 0.961 . S
C4489 H4497 0.960 . S
C4490 C4488 1.381 . S
C4490 C4491 1.394 . S
C4490 H4498 0.930 . S
C4491 C4490 1.394 . S
C4491 C4492 1.383 . S
C4491 H4499 0.929 . S
C4492 C4491 1.383 . S
C4492 C4493 1.377 . S
C4493 H4477 0.930 . S
C4493 C4492 1.377 . S
C4493 C4494 1.379 . S
C4494 H4478 0.931 . S
C4494 C4488 1.383 . S
C4494 C4493 1.379 . S
H4495 C4489 0.959 . S
H4496 C4489 0.961 . S
H4497 C4489 0.960 . S
H4498 C4490 0.930 . S
H4499 C4491 0.929 . S
H4500 C4508 0.929 . S
H4501 C4510 0.930 . S
H4502 C4512 0.930 . S
H4503 C4515 0.929 . S
H4504 C4518 0.930 . S
H4505 C4520 0.960 . S
H4506 C4520 0.960 . S
H4507 C4520 0.960 . S
C4508 H4500 0.929 . S
C4508 C4509 1.377 . S
C4508 C4510 1.384 . S
C4509 C4508 1.377 . S
C4509 C4515 1.390 . S
C4510 H4501 0.930 . S
C4510 C4508 1.384 . S
C4510 C4511 1.372 . S
C4511 C4510 1.372 . S
C4511 C4512 1.400 . S
C4511 C4516 1.490 . S
C4512 H4502 0.930 . S
C4512 C4511 1.400 . S
C4512 C4515 1.386 . S
H4513 C4529 0.930 . S
H4514 C4530 0.931 . S
C4515 H4503 0.929 . S
C4515 C4509 1.390 . S
C4515 C4512 1.386 . S
C4516 C4511 1.490 . S
C4516 C4518 1.395 . S
C4516 C4519 1.403 . S
H4517 C4523 0.930 . S
C4518 H4504 0.930 . S
C4518 C4516 1.395 . S
C4518 C4521 1.403 . S
C4519 C4516 1.403 . S
C4519 C4520 1.524 . S
C4519 C4523 1.400 . S
C4520 H4505 0.960 . S
C4520 H4506 0.960 . S
C4520 H4507 0.960 . S
C4520 C4519 1.524 . S
C4521 C4518 1.403 . S
C4521 C4522 1.392 . S
C4521 C4525 1.495 . S
C4522 C4521 1.392 . S
C4522 C4523 1.385 . S
C4522 C4524 1.478 . S
C4523 H4517 0.930 . S
C4523 C4519 1.400 . S
C4523 C4522 1.385 . S
C4524 C4522 1.478 . S
C4524 C4526 1.381 . S
C4524 C4530 1.383 . S
C4525 C4521 1.495 . S
C4525 H4531 0.959 . S
C4525 H4532 0.961 . S
C4525 H4533 0.960 . S
C4526 C4524 1.381 . S
C4526 C4527 1.394 . S
C4526 H4534 0.930 . S
C4527 C4526 1.394 . S
C4527 C4528 1.383 . S
C4527 H4535 0.929 . S
C4528 C4527 1.383 . S
C4528 C4529 1.377 . S
C4529 H4513 0.930 . S
C4529 C4528 1.377 . S
C4529 C4530 1.379 . S
C4530 H4514 0.931 . S
C4530 C4524 1.383 . S
C4530 C4529 1.379 . S
H4531 C4525 0.959 . S
H4532 C4525 0.961 . S
H4533 C4525 0.960 . S
H4534 C4526 0.930 . S
H4535 C4527 0.929 . S
H4536 C4544 0.929 . S
H4537 C4546 0.930 . S
H4538 C4548 0.930 . S
H4539 C4551 0.929 . S
H4540 C4554 0.930 . S
H4541 C4556 0.960 . S
H4542 C4556 0.960 . S
H4543 C4556 0.960 . S
C4544 H4536 0.929 . S
C4544 C4545 1.377 . S
C4544 C4546 1.384 . S
C4545 C4544 1.377 . S
C4545 C4551 1.390 . S
C4546 H4537 0.930 . S
C4546 C4544 1.384 . S
C4546 C4547 1.372 . S
C4547 C4546 1.372 . S
C4547 C4548 1.400 . S
C4547 C4552 1.490 . S
C4548 H4538 0.930 . S
C4548 C4547 1.400 . S
C4548 C4551 1.386 . S
H4549 C4565 0.930 . S
H4550 C4566 0.931 . S
C4551 H4539 0.929 . S
C4551 C4545 1.390 . S
C4551 C4548 1.386 . S
C4552 C4547 1.490 . S
C4552 C4554 1.395 . S
C4552 C4555 1.403 . S
H4553 C4559 0.930 . S
C4554 H4540 0.930 . S
C4554 C4552 1.395 . S
C4554 C4557 1.403 . S
C4555 C4552 1.403 . S
C4555 C4556 1.524 . S
C4555 C4559 1.400 . S
C4556 H4541 0.960 . S
C4556 H4542 0.960 . S
C4556 H4543 0.960 . S
C4556 C4555 1.524 . S
C4557 C4554 1.403 . S
C4557 C4558 1.392 . S
C4557 C4561 1.495 . S
C4558 C4557 1.392 . S
C4558 C4559 1.385 . S
C4558 C4560 1.478 . S
C4559 H4553 0.930 . S
C4559 C4555 1.400 . S
C4559 C4558 1.385 . S
C4560 C4558 1.478 . S
C4560 C4562 1.381 . S
C4560 C4566 1.383 . S
C4561 C4557 1.495 . S
C4561 H4567 0.959 . S
C4561 H4568 0.961 . S
C4561 H4569 0.960 . S
C4562 C4560 1.381 . S
C4562 C4563 1.394 . S
C4562 H4570 0.930 . S
C4563 C4562 1.394 . S
C4563 C4564 1.383 . S
C4563 H4571 0.929 . S
C4564 C4563 1.383 . S
C4564 C4565 1.377 . S
C4565 H4549 0.930 . S
C4565 C4564 1.377 . S
C4565 C4566 1.379 . S
C4566 H4550 0.931 . S
C4566 C4560 1.383 . S
C4566 C4565 1.379 . S
H4567 C4561 0.959 . S
H4568 C4561 0.961 . S
H4569 C4561 0.960 . S
H4570 C4562 0.930 . S
H4571 C4563 0.929 . S
H4572 C4580 0.929 . S
H4573 C4582 0.930 . S
H4574 C4584 0.930 . S
H4575 C4587 0.929 . S
H4576 C4590 0.930 . S
H4577 C4592 0.960 . S
H4578 C4592 0.960 . S
H4579 C4592 0.960 . S
C4580 H4572 0.929 . S
C4580 C4581 1.377 . S
C4580 C4582 1.384 . S
C4581 C4580 1.377 . S
C4581 C4587 1.390 . S
C4582 H4573 0.930 . S
C4582 C4580 1.384 . S
C4582 C4583 1.372 . S
C4583 C4582 1.372 . S
C4583 C4584 1.400 . S
C4583 C4588 1.490 . S
C4584 H4574 0.930 . S
C4584 C4583 1.400 . S
C4584 C4587 1.386 . S
H4585 C4601 0.930 . S
H4586 C4602 0.931 . S
C4587 H4575 0.929 . S
C4587 C4581 1.390 . S
C4587 C4584 1.386 . S
C4588 C4583 1.490 . S
C4588 C4590 1.395 . S
C4588 C4591 1.403 . S
H4589 C4595 0.930 . S
C4590 H4576 0.930 . S
C4590 C4588 1.395 . S
C4590 C4593 1.403 . S
C4591 C4588 1.403 . S
C4591 C4592 1.524 . S
C4591 C4595 1.400 . S
C4592 H4577 0.960 . S
C4592 H4578 0.960 . S
C4592 H4579 0.960 . S
C4592 C4591 1.524 . S
C4593 C4590 1.403 . S
C4593 C4594 1.392 . S
C4593 C4597 1.495 . S
C4594 C4593 1.392 . S
C4594 C4595 1.385 . S
C4594 C4596 1.478 . S
C4595 H4589 0.930 . S
C4595 C4591 1.400 . S
C4595 C4594 1.385 . S
C4596 C4594 1.478 . S
C4596 C4598 1.381 . S
C4596 C4602 1.383 . S
C4597 C4593 1.495 . S
C4597 H4603 0.959 . S
C4597 H4604 0.961 . S
C4597 H4605 0.960 . S
C4598 C4596 1.381 . S
C4598 C4599 1.394 . S
C4598 H4606 0.930 . S
C4599 C4598 1.394 . S
C4599 C4600 1.383 . S
C4599 H4607 0.929 . S
C4600 C4599 1.383 . S
C4600 C4601 1.377 . S
C4601 H4585 0.930 . S
C4601 C4600 1.377 . S
C4601 C4602 1.379 . S
C4602 H4586 0.931 . S
C4602 C4596 1.383 . S
C4602 C4601 1.379 . S
H4603 C4597 0.959 . S
H4604 C4597 0.961 . S
H4605 C4597 0.960 . S
H4606 C4598 0.930 . S
H4607 C4599 0.929 . S
H4608 C4616 0.929 1_565 S
H4609 C4618 0.930 1_565 S
H4610 C4620 0.930 . S
H4611 C4623 0.929 . S
H4612 C4626 0.930 . S
H4613 C4628 0.960 . S
H4614 C4628 0.960 . S
H4615 C4628 0.960 . S
C4616 H4608 0.929 1_545 S
C4616 C4617 1.377 . S
C4616 C4618 1.384 . S
C4617 C4616 1.377 . S
C4617 C4623 1.390 . S
C4618 H4609 0.930 1_545 S
C4618 C4616 1.384 . S
C4618 C4619 1.372 . S
C4619 C4618 1.372 . S
C4619 C4620 1.400 . S
C4619 C4624 1.490 . S
C4620 H4610 0.930 . S
C4620 C4619 1.400 . S
C4620 C4623 1.386 . S
H4621 C4637 0.930 . S
H4622 C4638 0.931 . S
C4623 H4611 0.929 . S
C4623 C4617 1.390 . S
C4623 C4620 1.386 . S
C4624 C4619 1.490 . S
C4624 C4626 1.395 . S
C4624 C4627 1.403 . S
H4625 C4631 0.930 . S
C4626 H4612 0.930 . S
C4626 C4624 1.395 . S
C4626 C4629 1.403 . S
C4627 C4624 1.403 . S
C4627 C4628 1.524 . S
C4627 C4631 1.400 . S
C4628 H4613 0.960 . S
C4628 H4614 0.960 . S
C4628 H4615 0.960 . S
C4628 C4627 1.524 . S
C4629 C4626 1.403 . S
C4629 C4630 1.392 . S
C4629 C4633 1.549 . S
C4630 C4629 1.392 . S
C4630 C4631 1.385 . S
C4630 C4632 1.478 . S
C4631 H4625 0.930 . S
C4631 C4627 1.400 . S
C4631 C4630 1.385 . S
C4632 C4630 1.478 . S
C4632 C4634 1.381 1_545 S
C4632 C4638 1.383 . S
C4633 C4629 1.549 . S
C4633 H4639 0.972 1_545 S
C4633 H4640 0.987 . S
C4633 H4641 0.878 1_545 S
C4634 C4632 1.381 1_565 S
C4634 C4635 1.394 . S
C4634 H4642 0.930 . S
C4635 C4634 1.394 . S
C4635 C4636 1.383 1_565 S
C4635 H4643 0.929 . S
C4636 C4635 1.383 1_545 S
C4636 C4637 1.377 . S
C4637 H4621 0.930 . S
C4637 C4636 1.377 . S
C4637 C4638 1.379 . S
C4638 H4622 0.931 . S
C4638 C4632 1.383 . S
C4638 C4637 1.379 . S
H4639 C4633 0.972 1_565 S
H4640 C4633 0.987 . S
H4641 C4633 0.878 1_565 S
H4642 C4634 0.930 . S
H4643 C4635 0.929 . S
H4644 C4652 0.929 1_455 S
H4645 C4654 0.887 1_455 S
H4646 C4656 0.930 . S
H4647 C4659 0.929 . S
H4648 C4662 0.930 . S
H4649 C4664 0.960 . S
H4650 C4664 0.960 . S
H4651 C4664 0.960 . S
C4652 H4644 0.929 1_655 S
C4652 C4653 1.377 . S
C4652 C4654 1.353 . S
C4653 C4652 1.377 . S
C4653 C4659 1.390 . S
C4654 H4645 0.887 1_655 S
C4654 C4652 1.353 . S
C4654 C4655 1.452 . S
C4655 C4654 1.452 . S
C4655 C4656 1.400 . S
C4655 C4660 1.490 . S
C4656 H4646 0.930 . S
C4656 C4655 1.400 . S
C4656 C4659 1.386 . S
H4657 C4673 0.930 . S
H4658 C4674 0.931 . S
C4659 H4647 0.929 . S
C4659 C4653 1.390 . S
C4659 C4656 1.386 . S
C4660 C4655 1.490 . S
C4660 C4662 1.395 . S
C4660 C4663 1.403 . S
H4661 C4667 0.930 . S
C4662 H4648 0.930 . S
C4662 C4660 1.395 . S
C4662 C4665 1.403 . S
C4663 C4660 1.403 . S
C4663 C4664 1.524 . S
C4663 C4667 1.400 . S
C4664 H4649 0.960 . S
C4664 H4650 0.960 . S
C4664 H4651 0.960 . S
C4664 C4663 1.524 . S
C4665 C4662 1.403 . S
C4665 C4666 1.392 . S
C4665 C4669 1.495 . S
C4666 C4665 1.392 . S
C4666 C4667 1.385 . S
C4666 C4668 1.478 . S
C4667 H4661 0.930 . S
C4667 C4663 1.400 . S
C4667 C4666 1.385 . S
C4668 C4666 1.478 . S
C4668 C4670 1.381 1_655 S
C4668 C4674 1.383 . S
C4669 C4665 1.495 . S
C4669 H4675 0.959 . S
C4669 H4676 0.961 . S
C4669 H4677 0.960 1_655 S
C4670 C4668 1.381 1_455 S
C4670 C4671 1.394 . S
C4670 H4678 0.930 . S
C4671 C4670 1.394 . S
C4671 C4672 1.383 1_455 S
C4671 H4679 0.929 . S
C4672 C4671 1.383 1_655 S
C4672 C4673 1.377 . S
C4673 H4657 0.930 . S
C4673 C4672 1.377 . S
C4673 C4674 1.379 . S
C4674 H4658 0.931 . S
C4674 C4668 1.383 . S
C4674 C4673 1.379 . S
H4675 C4669 0.959 . S
H4676 C4669 0.961 . S
H4677 C4669 0.960 1_455 S
H4678 C4670 0.930 . S
H4679 C4671 0.929 . S
H4680 C4688 0.929 . S
H4681 C4690 0.930 . S
H4682 C4692 0.930 . S
H4683 C4695 0.929 . S
H4684 C4698 0.930 . S
H4685 C4700 0.960 . S
H4686 C4700 0.960 . S
H4687 C4700 0.960 . S
C4688 H4680 0.929 . S
C4688 C4689 1.377 . S
C4688 C4690 1.384 . S
C4689 C4688 1.377 . S
C4689 C4695 1.390 . S
C4690 H4681 0.930 . S
C4690 C4688 1.384 . S
C4690 C4691 1.372 . S
C4691 C4690 1.372 . S
C4691 C4692 1.400 . S
C4691 C4696 1.490 . S
C4692 H4682 0.930 . S
C4692 C4691 1.400 . S
C4692 C4695 1.386 . S
H4693 C4709 0.930 . S
H4694 C4710 0.931 . S
C4695 H4683 0.929 . S
C4695 C4689 1.390 . S
C4695 C4692 1.386 . S
C4696 C4691 1.490 . S
C4696 C4698 1.395 . S
C4696 C4699 1.403 . S
H4697 C4703 0.930 . S
C4698 H4684 0.930 . S
C4698 C4696 1.395 . S
C4698 C4701 1.403 . S
C4699 C4696 1.403 . S
C4699 C4700 1.524 . S
C4699 C4703 1.400 . S
C4700 H4685 0.960 . S
C4700 H4686 0.960 . S
C4700 H4687 0.960 . S
C4700 C4699 1.524 . S
C4701 C4698 1.403 . S
C4701 C4702 1.392 . S
C4701 C4705 1.495 . S
C4702 C4701 1.392 . S
C4702 C4703 1.385 . S
C4702 C4704 1.478 . S
C4703 H4697 0.930 . S
C4703 C4699 1.400 . S
C4703 C4702 1.385 . S
C4704 C4702 1.478 . S
C4704 C4706 1.381 . S
C4704 C4710 1.383 . S
C4705 C4701 1.495 . S
C4705 H4711 0.959 . S
C4705 H4712 0.961 . S
C4705 H4713 0.960 . S
C4706 C4704 1.381 . S
C4706 C4707 1.394 . S
C4706 H4714 0.930 . S
C4707 C4706 1.394 . S
C4707 C4708 1.383 . S
C4707 H4715 0.929 . S
C4708 C4707 1.383 . S
C4708 C4709 1.377 . S
C4709 H4693 0.930 . S
C4709 C4708 1.377 . S
C4709 C4710 1.379 . S
C4710 H4694 0.931 . S
C4710 C4704 1.383 . S
C4710 C4709 1.379 . S
H4711 C4705 0.959 . S
H4712 C4705 0.961 . S
H4713 C4705 0.960 . S
H4714 C4706 0.930 . S
H4715 C4707 0.929 . S
H4716 C4724 0.929 . S
H4717 C4726 0.930 . S
H4718 C4728 0.930 . S
H4719 C4731 0.929 . S
H4720 C4734 0.930 . S
H4721 C4736 0.960 . S
H4722 C4736 0.960 . S
H4723 C4736 0.960 . S
C4724 H4716 0.929 . S
C4724 C4725 1.377 . S
C4724 C4726 1.384 . S
C4725 C4724 1.377 . S
C4725 C4731 1.390 . S
C4726 H4717 0.930 . S
C4726 C4724 1.384 . S
C4726 C4727 1.372 . S
C4727 C4726 1.372 . S
C4727 C4728 1.400 . S
C4727 C4732 1.490 . S
C4728 H4718 0.930 . S
C4728 C4727 1.400 . S
C4728 C4731 1.386 . S
H4729 C4745 0.930 . S
H4730 C4746 0.931 . S
C4731 H4719 0.929 . S
C4731 C4725 1.390 . S
C4731 C4728 1.386 . S
C4732 C4727 1.490 . S
C4732 C4734 1.395 . S
C4732 C4735 1.403 . S
H4733 C4739 0.930 . S
C4734 H4720 0.930 . S
C4734 C4732 1.395 . S
C4734 C4737 1.403 . S
C4735 C4732 1.403 . S
C4735 C4736 1.524 . S
C4735 C4739 1.400 . S
C4736 H4721 0.960 . S
C4736 H4722 0.960 . S
C4736 H4723 0.960 . S
C4736 C4735 1.524 . S
C4737 C4734 1.403 . S
C4737 C4738 1.392 . S
C4737 C4741 1.495 . S
C4738 C4737 1.392 . S
C4738 C4739 1.385 . S
C4738 C4740 1.478 . S
C4739 H4733 0.930 . S
C4739 C4735 1.400 . S
C4739 C4738 1.385 . S
C4740 C4738 1.478 . S
C4740 C4742 1.381 . S
C4740 C4746 1.383 . S
C4741 C4737 1.495 . S
C4741 H4747 0.959 . S
C4741 H4748 0.961 . S
C4741 H4749 0.960 . S
C4742 C4740 1.381 . S
C4742 C4743 1.394 . S
C4742 H4750 0.930 . S
C4743 C4742 1.394 . S
C4743 C4744 1.383 . S
C4743 H4751 0.929 . S
C4744 C4743 1.383 . S
C4744 C4745 1.377 . S
C4745 H4729 0.930 . S
C4745 C4744 1.377 . S
C4745 C4746 1.379 . S
C4746 H4730 0.931 . S
C4746 C4740 1.383 . S
C4746 C4745 1.379 . S
H4747 C4741 0.959 . S
H4748 C4741 0.961 . S
H4749 C4741 0.960 . S
H4750 C4742 0.930 . S
H4751 C4743 0.929 . S
H4752 C4760 0.929 . S
H4753 C4762 0.930 . S
H4754 C4764 0.930 . S
H4755 C4767 0.929 . S
H4756 C4770 0.930 . S
H4757 C4772 0.960 . S
H4758 C4772 0.960 . S
H4759 C4772 0.960 . S
C4760 H4752 0.929 . S
C4760 C4761 1.377 . S
C4760 C4762 1.384 . S
C4761 C4760 1.377 . S
C4761 C4767 1.390 . S
C4762 H4753 0.930 . S
C4762 C4760 1.384 . S
C4762 C4763 1.372 . S
C4763 C4762 1.372 . S
C4763 C4764 1.400 . S
C4763 C4768 1.490 . S
C4764 H4754 0.930 . S
C4764 C4763 1.400 . S
C4764 C4767 1.386 . S
H4765 C4781 0.930 . S
H4766 C4782 0.931 . S
C4767 H4755 0.929 . S
C4767 C4761 1.390 . S
C4767 C4764 1.386 . S
C4768 C4763 1.490 . S
C4768 C4770 1.395 . S
C4768 C4771 1.403 . S
H4769 C4775 0.930 . S
C4770 H4756 0.930 . S
C4770 C4768 1.395 . S
C4770 C4773 1.403 . S
C4771 C4768 1.403 . S
C4771 C4772 1.524 . S
C4771 C4775 1.400 . S
C4772 H4757 0.960 . S
C4772 H4758 0.960 . S
C4772 H4759 0.960 . S
C4772 C4771 1.524 . S
C4773 C4770 1.403 . S
C4773 C4774 1.392 . S
C4773 C4777 1.495 . S
C4774 C4773 1.392 . S
C4774 C4775 1.385 . S
C4774 C4776 1.478 . S
C4775 H4769 0.930 . S
C4775 C4771 1.400 . S
C4775 C4774 1.385 . S
C4776 C4774 1.478 . S
C4776 C4778 1.381 . S
C4776 C4782 1.383 . S
C4777 C4773 1.495 . S
C4777 H4783 0.959 . S
C4777 H4784 0.961 . S
C4777 H4785 0.960 . S
C4778 C4776 1.381 . S
C4778 C4779 1.394 . S
C4778 H4786 0.930 . S
C4779 C4778 1.394 . S
C4779 C4780 1.383 . S
C4779 H4787 0.929 . S
C4780 C4779 1.383 . S
C4780 C4781 1.377 . S
C4781 H4765 0.930 . S
C4781 C4780 1.377 . S
C4781 C4782 1.379 . S
C4782 H4766 0.931 . S
C4782 C4776 1.383 . S
C4782 C4781 1.379 . S
H4783 C4777 0.959 . S
H4784 C4777 0.961 . S
H4785 C4777 0.960 . S
H4786 C4778 0.930 . S
H4787 C4779 0.929 . S
H4788 C4796 0.929 . S
H4789 C4798 0.930 . S
H4790 C4800 0.930 . S
H4791 C4803 0.929 . S
H4792 C4806 0.930 . S
H4793 C4808 0.960 . S
H4794 C4808 0.960 . S
H4795 C4808 0.960 . S
C4796 H4788 0.929 . S
C4796 C4797 1.377 . S
C4796 C4798 1.384 . S
C4797 C4796 1.377 . S
C4797 C4803 1.390 . S
C4798 H4789 0.930 . S
C4798 C4796 1.384 . S
C4798 C4799 1.372 . S
C4799 C4798 1.372 . S
C4799 C4800 1.400 . S
C4799 C4804 1.490 . S
C4800 H4790 0.930 . S
C4800 C4799 1.400 . S
C4800 C4803 1.386 . S
H4801 C4817 0.930 . S
H4802 C4818 0.931 . S
C4803 H4791 0.929 . S
C4803 C4797 1.390 . S
C4803 C4800 1.386 . S
C4804 C4799 1.490 . S
C4804 C4806 1.395 . S
C4804 C4807 1.403 . S
H4805 C4811 0.930 . S
C4806 H4792 0.930 . S
C4806 C4804 1.395 . S
C4806 C4809 1.403 . S
C4807 C4804 1.403 . S
C4807 C4808 1.524 . S
C4807 C4811 1.400 . S
C4808 H4793 0.960 . S
C4808 H4794 0.960 . S
C4808 H4795 0.960 . S
C4808 C4807 1.524 . S
C4809 C4806 1.403 . S
C4809 C4810 1.392 . S
C4809 C4813 1.495 . S
C4810 C4809 1.392 . S
C4810 C4811 1.385 . S
C4810 C4812 1.478 . S
C4811 H4805 0.930 . S
C4811 C4807 1.400 . S
C4811 C4810 1.385 . S
C4812 C4810 1.478 . S
C4812 C4814 1.381 . S
C4812 C4818 1.383 . S
C4813 C4809 1.495 . S
C4813 H4819 0.959 . S
C4813 H4820 0.961 . S
C4813 H4821 0.960 . S
C4814 C4812 1.381 . S
C4814 C4815 1.394 . S
C4814 H4822 0.930 . S
C4815 C4814 1.394 . S
C4815 C4816 1.383 . S
C4815 H4823 0.929 . S
C4816 C4815 1.383 . S
C4816 C4817 1.377 . S
C4817 H4801 0.930 . S
C4817 C4816 1.377 . S
C4817 C4818 1.379 . S
C4818 H4802 0.931 . S
C4818 C4812 1.383 . S
C4818 C4817 1.379 . S
H4819 C4813 0.959 . S
H4820 C4813 0.961 . S
H4821 C4813 0.960 . S
H4822 C4814 0.930 . S
H4823 C4815 0.929 . S
H4824 C4832 0.929 . S
H4825 C4834 0.930 . S
H4826 C4836 0.930 . S
H4827 C4839 0.929 . S
H4828 C4842 0.930 . S
H4829 C4844 0.960 . S
H4830 C4844 0.960 . S
H4831 C4844 0.960 . S
C4832 H4824 0.929 . S
C4832 C4833 1.377 . S
C4832 C4834 1.384 . S
C4833 C4832 1.377 . S
C4833 C4839 1.390 . S
C4834 H4825 0.930 . S
C4834 C4832 1.384 . S
C4834 C4835 1.372 . S
C4835 C4834 1.372 . S
C4835 C4836 1.400 . S
C4835 C4840 1.490 . S
C4836 H4826 0.930 . S
C4836 C4835 1.400 . S
C4836 C4839 1.386 . S
H4837 C4853 0.930 . S
H4838 C4854 0.931 . S
C4839 H4827 0.929 . S
C4839 C4833 1.390 . S
C4839 C4836 1.386 . S
C4840 C4835 1.490 . S
C4840 C4842 1.395 . S
C4840 C4843 1.403 . S
H4841 C4847 0.930 . S
C4842 H4828 0.930 . S
C4842 C4840 1.395 . S
C4842 C4845 1.403 . S
C4843 C4840 1.403 . S
C4843 C4844 1.524 . S
C4843 C4847 1.400 . S
C4844 H4829 0.960 . S
C4844 H4830 0.960 . S
C4844 H4831 0.960 . S
C4844 C4843 1.524 . S
C4845 C4842 1.403 . S
C4845 C4846 1.392 . S
C4845 C4849 1.495 . S
C4846 C4845 1.392 . S
C4846 C4847 1.385 . S
C4846 C4848 1.478 . S
C4847 H4841 0.930 . S
C4847 C4843 1.400 . S
C4847 C4846 1.385 . S
C4848 C4846 1.478 . S
C4848 C4850 1.381 . S
C4848 C4854 1.383 . S
C4849 C4845 1.495 . S
C4849 H4855 0.959 . S
C4849 H4856 0.961 . S
C4849 H4857 0.960 . S
C4850 C4848 1.381 . S
C4850 C4851 1.394 . S
C4850 H4858 0.930 . S
C4851 C4850 1.394 . S
C4851 C4852 1.383 . S
C4851 H4859 0.929 . S
C4852 C4851 1.383 . S
C4852 C4853 1.377 . S
C4853 H4837 0.930 . S
C4853 C4852 1.377 . S
C4853 C4854 1.379 . S
C4854 H4838 0.931 . S
C4854 C4848 1.383 . S
C4854 C4853 1.379 . S
H4855 C4849 0.959 . S
H4856 C4849 0.961 . S
H4857 C4849 0.960 . S
H4858 C4850 0.930 . S
H4859 C4851 0.929 . S
H4860 C4868 0.929 . S
H4861 C4870 0.930 . S
H4862 C4872 0.930 . S
H4863 C4875 0.929 . S
H4864 C4878 0.930 . S
H4865 C4880 0.960 . S
H4866 C4880 0.960 . S
H4867 C4880 0.960 . S
C4868 H4860 0.929 . S
C4868 C4869 1.377 . S
C4868 C4870 1.384 . S
C4869 C4868 1.377 . S
C4869 C4875 1.390 . S
C4870 H4861 0.930 . S
C4870 C4868 1.384 . S
C4870 C4871 1.372 . S
C4871 C4870 1.372 . S
C4871 C4872 1.400 . S
C4871 C4876 1.490 . S
C4872 H4862 0.930 . S
C4872 C4871 1.400 . S
C4872 C4875 1.386 . S
H4873 C4889 0.930 . S
H4874 C4890 0.931 . S
C4875 H4863 0.929 . S
C4875 C4869 1.390 . S
C4875 C4872 1.386 . S
C4876 C4871 1.490 . S
C4876 C4878 1.395 . S
C4876 C4879 1.403 . S
H4877 C4883 0.930 . S
C4878 H4864 0.930 . S
C4878 C4876 1.395 . S
C4878 C4881 1.403 . S
C4879 C4876 1.403 . S
C4879 C4880 1.524 . S
C4879 C4883 1.400 . S
C4880 H4865 0.960 . S
C4880 H4866 0.960 . S
C4880 H4867 0.960 . S
C4880 C4879 1.524 . S
C4881 C4878 1.403 . S
C4881 C4882 1.392 . S
C4881 C4885 1.495 . S
C4882 C4881 1.392 . S
C4882 C4883 1.385 . S
C4882 C4884 1.478 . S
C4883 H4877 0.930 . S
C4883 C4879 1.400 . S
C4883 C4882 1.385 . S
C4884 C4882 1.478 . S
C4884 C4886 1.381 . S
C4884 C4890 1.383 . S
C4885 C4881 1.495 . S
C4885 H4891 0.959 . S
C4885 H4892 0.961 . S
C4885 H4893 0.960 . S
C4886 C4884 1.381 . S
C4886 C4887 1.394 . S
C4886 H4894 0.930 . S
C4887 C4886 1.394 . S
C4887 C4888 1.383 . S
C4887 H4895 0.929 . S
C4888 C4887 1.383 . S
C4888 C4889 1.377 . S
C4889 H4873 0.930 . S
C4889 C4888 1.377 . S
C4889 C4890 1.379 . S
C4890 H4874 0.931 . S
C4890 C4884 1.383 . S
C4890 C4889 1.379 . S
H4891 C4885 0.959 . S
H4892 C4885 0.961 . S
H4893 C4885 0.960 . S
H4894 C4886 0.930 . S
H4895 C4887 0.929 . S
H4896 C4904 0.929 . S
H4897 C4906 0.930 . S
H4898 C4908 0.930 . S
H4899 C4911 0.929 . S
H4900 C4914 0.930 . S
H4901 C4916 0.960 . S
H4902 C4916 0.960 . S
H4903 C4916 0.960 . S
C4904 H4896 0.929 . S
C4904 C4905 1.377 . S
C4904 C4906 1.384 . S
C4905 C4904 1.377 . S
C4905 C4911 1.390 . S
C4906 H4897 0.930 . S
C4906 C4904 1.384 . S
C4906 C4907 1.372 . S
C4907 C4906 1.372 . S
C4907 C4908 1.400 . S
C4907 C4912 1.490 . S
C4908 H4898 0.930 . S
C4908 C4907 1.400 . S
C4908 C4911 1.386 . S
H4909 C4925 0.930 . S
H4910 C4926 0.931 . S
C4911 H4899 0.929 . S
C4911 C4905 1.390 . S
C4911 C4908 1.386 . S
C4912 C4907 1.490 . S
C4912 C4914 1.395 . S
C4912 C4915 1.403 . S
H4913 C4919 0.930 . S
C4914 H4900 0.930 . S
C4914 C4912 1.395 . S
C4914 C4917 1.403 . S
C4915 C4912 1.403 . S
C4915 C4916 1.524 . S
C4915 C4919 1.400 . S
C4916 H4901 0.960 . S
C4916 H4902 0.960 . S
C4916 H4903 0.960 . S
C4916 C4915 1.524 . S
C4917 C4914 1.403 . S
C4917 C4918 1.392 . S
C4917 C4921 1.495 . S
C4918 C4917 1.392 . S
C4918 C4919 1.385 . S
C4918 C4920 1.478 . S
C4919 H4913 0.930 . S
C4919 C4915 1.400 . S
C4919 C4918 1.385 . S
C4920 C4918 1.478 . S
C4920 C4922 1.381 . S
C4920 C4926 1.383 . S
C4921 C4917 1.495 . S
C4921 H4927 0.959 . S
C4921 H4928 0.961 . S
C4921 H4929 0.960 . S
C4922 C4920 1.381 . S
C4922 C4923 1.394 . S
C4922 H4930 0.930 . S
C4923 C4922 1.394 . S
C4923 C4924 1.383 . S
C4923 H4931 0.929 . S
C4924 C4923 1.383 . S
C4924 C4925 1.377 . S
C4925 H4909 0.930 . S
C4925 C4924 1.377 . S
C4925 C4926 1.379 . S
C4926 H4910 0.931 . S
C4926 C4920 1.383 . S
C4926 C4925 1.379 . S
H4927 C4921 0.959 . S
H4928 C4921 0.961 . S
H4929 C4921 0.960 . S
H4930 C4922 0.930 . S
H4931 C4923 0.929 . S
H4932 C4940 0.929 . S
H4933 C4942 0.930 . S
H4934 C4944 0.930 . S
H4935 C4947 0.929 . S
H4936 C4950 0.930 . S
H4937 C4952 0.960 . S
H4938 C4952 0.960 . S
H4939 C4952 0.960 . S
C4940 H4932 0.929 . S
C4940 C4941 1.377 . S
C4940 C4942 1.384 . S
C4941 C4940 1.377 . S
C4941 C4947 1.390 . S
C4942 H4933 0.930 . S
C4942 C4940 1.384 . S
C4942 C4943 1.372 . S
C4943 C4942 1.372 . S
C4943 C4944 1.400 . S
C4943 C4948 1.490 . S
C4944 H4934 0.930 . S
C4944 C4943 1.400 . S
C4944 C4947 1.386 . S
H4945 C4961 0.930 . S
H4946 C4962 0.931 . S
C4947 H4935 0.929 . S
C4947 C4941 1.390 . S
C4947 C4944 1.386 . S
C4948 C4943 1.490 . S
C4948 C4950 1.395 1_655 S
C4948 C4951 1.403 . S
H4949 C4955 0.930 . S
C4950 H4936 0.930 . S
C4950 C4948 1.395 1_455 S
C4950 C4953 1.403 . S
C4951 C4948 1.403 . S
C4951 C4952 1.524 . S
C4951 C4955 1.400 . S
C4952 H4937 0.960 . S
C4952 H4938 0.960 . S
C4952 H4939 0.960 . S
C4952 C4951 1.524 . S
C4953 C4950 1.403 . S
C4953 C4954 1.392 1_455 S
C4953 C4957 1.495 . S
C4954 C4953 1.392 1_655 S
C4954 C4955 1.385 . S
C4954 C4956 1.478 . S
C4955 H4949 0.930 . S
C4955 C4951 1.400 . S
C4955 C4954 1.385 . S
C4956 C4954 1.478 . S
C4956 C4958 1.368 1_655 S
C4956 C4962 1.383 . S
C4957 C4953 1.495 . S
C4957 H4963 0.959 . S
C4957 H4964 0.961 . S
C4957 H4965 0.960 . S
C4958 C4956 1.368 1_455 S
C4958 C4959 1.363 . S
C4958 H4966 0.934 . S
C4959 C4958 1.363 . S
C4959 C4960 1.372 1_455 S
C4959 H4967 0.988 . S
C4960 C4959 1.372 1_655 S
C4960 C4961 1.377 . S
C4961 H4945 0.930 . S
C4961 C4960 1.377 . S
C4961 C4962 1.379 . S
C4962 H4946 0.931 . S
C4962 C4956 1.383 . S
C4962 C4961 1.379 . S
H4963 C4957 0.959 . S
H4964 C4957 0.961 . S
H4965 C4957 0.960 . S
H4966 C4958 0.934 . S
H4967 C4959 0.988 . S
H4968 C4976 0.929 . S
H4969 C4978 0.930 . S
H4970 C4980 0.930 . S
H4971 C4983 0.929 . S
H4972 C4986 0.930 . S
H4973 C4988 0.960 . S
H4974 C4988 0.960 . S
H4975 C4988 0.960 . S
C4976 H4968 0.929 . S
C4976 C4977 1.377 . S
C4976 C4978 1.384 . S
C4977 C4976 1.377 . S
C4977 C4983 1.390 . S
C4978 H4969 0.930 . S
C4978 C4976 1.384 . S
C4978 C4979 1.372 . S
C4979 C4978 1.372 . S
C4979 C4980 1.400 . S
C4979 C4984 1.490 . S
C4980 H4970 0.930 . S
C4980 C4979 1.400 . S
C4980 C4983 1.386 . S
H4981 C4997 0.930 . S
H4982 C4998 0.931 . S
C4983 H4971 0.929 . S
C4983 C4977 1.390 . S
C4983 C4980 1.386 . S
C4984 C4979 1.490 . S
C4984 C4986 1.395 . S
C4984 C4987 1.403 . S
H4985 C4991 0.930 . S
C4986 H4972 0.930 . S
C4986 C4984 1.395 . S
C4986 C4989 1.403 . S
C4987 C4984 1.403 . S
C4987 C4988 1.524 . S
C4987 C4991 1.400 . S
C4988 H4973 0.960 . S
C4988 H4974 0.960 . S
C4988 H4975 0.960 . S
C4988 C4987 1.524 . S
C4989 C4986 1.403 . S
C4989 C4990 1.392 . S
C4989 C4993 1.495 . S
C4990 C4989 1.392 . S
C4990 C4991 1.385 . S
C4990 C4992 1.478 . S
C4991 H4985 0.930 . S
C4991 C4987 1.400 . S
C4991 C4990 1.385 . S
C4992 C4990 1.478 . S
C4992 C4994 1.381 . S
C4992 C4998 1.383 . S
C4993 C4989 1.495 . S
C4993 H4999 0.959 . S
C4993 H5000 0.961 . S
C4993 H5001 0.960 . S
C4994 C4992 1.381 . S
C4994 C4995 1.394 . S
C4994 H5002 0.930 . S
C4995 C4994 1.394 . S
C4995 C4996 1.383 . S
C4995 H5003 0.929 . S
C4996 C4995 1.383 . S
C4996 C4997 1.377 . S
C4997 H4981 0.930 . S
C4997 C4996 1.377 . S
C4997 C4998 1.379 . S
C4998 H4982 0.931 . S
C4998 C4992 1.383 . S
C4998 C4997 1.379 . S
H4999 C4993 0.959 . S
H5000 C4993 0.961 . S
H5001 C4993 0.960 . S
H5002 C4994 0.930 . S
H5003 C4995 0.929 . S
H5004 C5012 0.929 . S
H5005 C5014 0.913 1_565 S
H5006 C5016 0.930 . S
H5007 C5019 0.929 . S
H5008 C5022 0.930 . S
H5009 C5024 0.957 . S
H5010 C5024 0.976 . S
H5011 C5024 0.952 1_545 S
C5012 H5004 0.929 . S
C5012 C5013 1.377 . S
C5012 C5014 1.384 . S
C5013 C5012 1.377 . S
C5013 C5019 1.390 . S
C5014 H5005 0.913 1_545 S
C5014 C5012 1.384 . S
C5014 C5015 1.372 . S
C5015 C5014 1.372 . S
C5015 C5016 1.400 . S
C5015 C5020 1.490 . S
C5016 H5006 0.930 . S
C5016 C5015 1.400 . S
C5016 C5019 1.386 . S
H5017 C5033 0.930 . S
H5018 C5034 0.931 . S
C5019 H5007 0.929 . S
C5019 C5013 1.390 . S
C5019 C5016 1.386 . S
C5020 C5015 1.490 . S
C5020 C5022 1.395 . S
C5020 C5023 1.403 . S
H5021 C5027 0.925 . S
C5022 H5008 0.930 . S
C5022 C5020 1.395 . S
C5022 C5025 1.403 . S
C5023 C5020 1.403 . S
C5023 C5024 1.519 1_545 S
C5023 C5027 1.400 . S
C5024 H5009 0.957 . S
C5024 H5010 0.976 . S
C5024 H5011 0.952 1_565 S
C5024 C5023 1.519 1_565 S
C5025 C5022 1.403 . S
C5025 C5026 1.392 . S
C5025 C5029 1.495 . S
C5026 C5025 1.392 . S
C5026 C5027 1.385 . S
C5026 C5028 1.478 . S
C5027 H5021 0.925 . S
C5027 C5023 1.400 . S
C5027 C5026 1.385 . S
C5028 C5026 1.478 . S
C5028 C5030 1.381 1_545 S
C5028 C5034 1.383 . S
C5029 C5025 1.495 . S
C5029 H5035 0.959 . S
C5029 H5036 0.961 . S
C5029 H5037 0.960 . S
C5030 C5028 1.381 1_565 S
C5030 C5031 1.394 . S
C5030 H5038 0.930 . S
C5031 C5030 1.394 . S
C5031 C5032 1.383 1_565 S
C5031 H5039 0.929 . S
C5032 C5031 1.383 1_545 S
C5032 C5033 1.377 . S
C5033 H5017 0.930 . S
C5033 C5032 1.377 . S
C5033 C5034 1.379 . S
C5034 H5018 0.931 . S
C5034 C5028 1.383 . S
C5034 C5033 1.379 . S
H5035 C5029 0.959 . S
H5036 C5029 0.961 . S
H5037 C5029 0.960 . S
H5038 C5030 0.930 . S
H5039 C5031 0.929 . S
C2457 C49 1.559 . S
C2476 C2061 1.573 . S
C2493 C137 1.620 . S
C2512 C2109 1.632 . S
C2548 C2157 1.595 . S
C2529 C205 1.582 . S
C2565 C196 1.558 . S
C2584 C2181 1.590 . S
C2601 C57 1.572 . S
C2620 C2253 1.590 . S
C2637 C145 1.622 . S
C2656 C2301 1.629 . S
C2673 C313 1.565 . S
C2692 C2229 1.578 . S
C2728 C2277 1.641 . S
C2709 C401 1.630 . S
C2764 C2205 1.681 . S
C2745 C489 1.582 . S
C2781 C469 1.567 . S
C2800 C2133 1.582 . S
C2836 C2037 1.612 . S
C2817 C293 1.581 . S
C2853 C381 1.629 . S
C2872 C2085 1.641 . S
C2889 C577 1.703 . S
C2908 C2349 1.711 . S
C2925 C645 1.683 . S
C2944 C2397 1.677 . S
C2980 C2421 1.626 . S
C2961 C733 1.646 . S
C2997 C724 1.617 . S
C3016 C1605 1.605 . S
C3033 C585 1.678 . S
C3052 C1677 1.690 . S
C3069 C636 1.690 . S
C3088 C1725 1.699 . S
C3105 C841 1.610 . S
C3124 C1653 1.621 . S
C3141 C937 1.694 . S
C3160 C1701 1.700 . S
C3196 C1629 1.679 . S
C3177 C1025 1.682 . S
C3232 C2445 1.680 . S
C3213 C988 1.704 . S
C3268 C2325 1.645 . S
C3249 C821 1.639 . S
C3304 C2373 1.690 . S
C3285 C900 1.688 . S
C3321 C1105 1.612 . S
C3340 C1773 1.625 . S
C3357 C1193 1.690 . S
C3376 C1821 1.695 . S
C3393 C1281 1.685 . S
C3412 C1845 1.682 . S
C3429 C1289 1.705 . S
C3448 C1893 1.705 . S
C3484 C1965 1.649 . S
C3465 C1113 1.638 . S
C3520 C2013 1.683 . S
C3501 C1201 1.685 . S
C3556 C1941 1.712 . S
C3537 C1369 1.712 . S
C3592 C1989 1.696 . S
C3573 C1457 1.691 . S
C3609 C1553 1.639 . S
C3628 C1917 1.610 . S
C3664 C1869 1.577 . S
C3645 C1516 1.611 . S
C3681 C1349 1.684 . S
C3700 C1749 1.693 . S
C3736 C1797 1.703 . S
C3717 C1437 1.697 . S
C3772 C1614 1.444 . S
C3753 C29 1.444 . S
C3789 C117 1.348 . S
C3808 C1668 1.347 . S
C3844 C1716 1.479 . S
C3825 C225 1.480 . S
C3880 C1764 1.446 . S
C3861 C233 1.442 . S
C3916 C1812 1.438 . S
C3897 C20 1.478 . S
C3952 C1854 1.349 . S
C3933 C108 1.346 . S
C3969 C321 1.454 . S
C3988 C1860 1.451 . S
C4005 C409 1.356 . S
C4024 C1758 1.316 . S
C4041 C497 1.475 . S
C4060 C1806 1.412 . S
C4077 C460 1.456 . S
C4096 C1662 1.457 . S
C4132 C1710 1.417 . S
C4113 C284 1.474 . S
C4149 C372 1.355 . S
C4168 C1620 1.342 . S
C4204 C1902 1.367 . S
C4185 C557 1.364 . S
C4221 C665 1.495 . S
C4240 C1956 1.441 . S
C4257 C753 1.492 . S
C4276 C2004 1.464 . S
C4312 C2052 1.076 . S
C4293 C761 1.087 . S
C4329 C548 1.356 . S
C4348 C2100 1.322 . S
C4365 C673 1.095 . S
C4384 C2148 1.077 . S
C4401 C849 1.089 . S
C4420 C2142 1.094 . S
C4437 C929 1.105 . S
C4456 C2046 1.111 . S
C4492 C2094 1.350 . S
C4473 C1017 1.361 . S
C4509 C997 1.374 . S
C4528 C1950 1.360 . S
C4545 C812 1.493 . S
C4564 C1998 1.472 . S
C4600 C1908 1.494 . S
C4581 C909 1.500 . S
C4636 C2190 1.090 . S
C4617 C1085 1.080 . S
C4653 C1173 1.093 . S
C4672 C2244 1.105 . S
C4689 C1261 1.356 . S
C4708 C2292 1.315 . S
C4744 C2340 1.362 . S
C4725 C1252 1.364 . S
C4780 C2388 1.459 . S
C4761 C1076 1.492 . S
C4797 C1164 1.490 . S
C4816 C2430 1.496 . S
C4833 C1377 1.378 . S
C4852 C2436 1.373 . S
C4869 C1465 1.499 . S
C4888 C2334 1.475 . S
C4924 C2382 1.470 . S
C4905 C1545 1.491 . S
C4960 C2238 1.094 . S
C4941 C1525 1.080 . S
C4996 C2286 1.353 . S
C4977 C1340 1.365 . S
C5013 C1428 1.105 . S
C5032 C2196 1.092 . S
