# Generated by pormake.
# Topology tbo, (3,4)-cn, num edge types: 1
# Building blocks:
#     Node 0, Type 0, BuildingBlock: BELTOD_clean_linker_0, # of connection points: 3
#     Node 1, Type 0, BuildingBlock: BELTOD_clean_linker_0, # of connection points: 3
#     Node 2, Type 0, BuildingBlock: BELTOD_clean_linker_0, # of connection points: 3
#     Node 3, Type 0, BuildingBlock: BELTOD_clean_linker_0, # of connection points: 3
#     Node 4, Type 0, BuildingBlock: BELTOD_clean_linker_0, # of connection points: 3
#     Node 5, Type 0, BuildingBlock: BELTOD_clean_linker_0, # of connection points: 3
#     Node 6, Type 0, BuildingBlock: BELTOD_clean_linker_0, # of connection points: 3
#     Node 7, Type 0, BuildingBlock: BELTOD_clean_linker_0, # of connection points: 3
#     Node 8, Type 0, BuildingBlock: BELTOD_clean_linker_0, # of connection points: 3
#     Node 9, Type 0, BuildingBlock: BELTOD_clean_linker_0, # of connection points: 3
#     Node 10, Type 0, BuildingBlock: BELTOD_clean_linker_0, # of connection points: 3
#     Node 11, Type 0, BuildingBlock: BELTOD_clean_linker_0, # of connection points: 3
#     Node 12, Type 0, BuildingBlock: BELTOD_clean_linker_0, # of connection points: 3
#     Node 13, Type 0, BuildingBlock: BELTOD_clean_linker_0, # of connection points: 3
#     Node 14, Type 0, BuildingBlock: BELTOD_clean_linker_0, # of connection points: 3
#     Node 15, Type 0, BuildingBlock: BELTOD_clean_linker_0, # of connection points: 3
#     Node 16, Type 0, BuildingBlock: BELTOD_clean_linker_0, # of connection points: 3
#     Node 17, Type 0, BuildingBlock: BELTOD_clean_linker_0, # of connection points: 3
#     Node 18, Type 0, BuildingBlock: BELTOD_clean_linker_0, # of connection points: 3
#     Node 19, Type 0, BuildingBlock: BELTOD_clean_linker_0, # of connection points: 3
#     Node 20, Type 0, BuildingBlock: BELTOD_clean_linker_0, # of connection points: 3
#     Node 21, Type 0, BuildingBlock: BELTOD_clean_linker_0, # of connection points: 3
#     Node 22, Type 0, BuildingBlock: BELTOD_clean_linker_0, # of connection points: 3
#     Node 23, Type 0, BuildingBlock: BELTOD_clean_linker_0, # of connection points: 3
#     Node 24, Type 0, BuildingBlock: BELTOD_clean_linker_0, # of connection points: 3
#     Node 25, Type 0, BuildingBlock: BELTOD_clean_linker_0, # of connection points: 3
#     Node 26, Type 0, BuildingBlock: BELTOD_clean_linker_0, # of connection points: 3
#     Node 27, Type 0, BuildingBlock: BELTOD_clean_linker_0, # of connection points: 3
#     Node 28, Type 0, BuildingBlock: BELTOD_clean_linker_0, # of connection points: 3
#     Node 29, Type 0, BuildingBlock: BELTOD_clean_linker_0, # of connection points: 3
#     Node 30, Type 0, BuildingBlock: BELTOD_clean_linker_0, # of connection points: 3
#     Node 31, Type 0, BuildingBlock: BELTOD_clean_linker_0, # of connection points: 3
#     Node 32, Type 1, BuildingBlock: ESEHIV_clean_sbu_0, # of connection points: 4
#     Node 33, Type 1, BuildingBlock: ESEHIV_clean_sbu_0, # of connection points: 4
#     Node 34, Type 1, BuildingBlock: ESEHIV_clean_sbu_0, # of connection points: 4
#     Node 35, Type 1, BuildingBlock: ESEHIV_clean_sbu_0, # of connection points: 4
#     Node 36, Type 1, BuildingBlock: ESEHIV_clean_sbu_0, # of connection points: 4
#     Node 37, Type 1, BuildingBlock: ESEHIV_clean_sbu_0, # of connection points: 4
#     Node 38, Type 1, BuildingBlock: ESEHIV_clean_sbu_0, # of connection points: 4
#     Node 39, Type 1, BuildingBlock: ESEHIV_clean_sbu_0, # of connection points: 4
#     Node 40, Type 1, BuildingBlock: ESEHIV_clean_sbu_0, # of connection points: 4
#     Node 41, Type 1, BuildingBlock: ESEHIV_clean_sbu_0, # of connection points: 4
#     Node 42, Type 1, BuildingBlock: ESEHIV_clean_sbu_0, # of connection points: 4
#     Node 43, Type 1, BuildingBlock: ESEHIV_clean_sbu_0, # of connection points: 4
#     Node 44, Type 1, BuildingBlock: ESEHIV_clean_sbu_0, # of connection points: 4
#     Node 45, Type 1, BuildingBlock: ESEHIV_clean_sbu_0, # of connection points: 4
#     Node 46, Type 1, BuildingBlock: ESEHIV_clean_sbu_0, # of connection points: 4
#     Node 47, Type 1, BuildingBlock: ESEHIV_clean_sbu_0, # of connection points: 4
#     Node 48, Type 1, BuildingBlock: ESEHIV_clean_sbu_0, # of connection points: 4
#     Node 49, Type 1, BuildingBlock: ESEHIV_clean_sbu_0, # of connection points: 4
#     Node 50, Type 1, BuildingBlock: ESEHIV_clean_sbu_0, # of connection points: 4
#     Node 51, Type 1, BuildingBlock: ESEHIV_clean_sbu_0, # of connection points: 4
#     Node 52, Type 1, BuildingBlock: ESEHIV_clean_sbu_0, # of connection points: 4
#     Node 53, Type 1, BuildingBlock: ESEHIV_clean_sbu_0, # of connection points: 4
#     Node 54, Type 1, BuildingBlock: ESEHIV_clean_sbu_0, # of connection points: 4
#     Node 55, Type 1, BuildingBlock: ESEHIV_clean_sbu_0, # of connection points: 4
#     Edge 56, Type (0, 1), BuildingBlock: UVAHIK_clean_linker_0, # of connection points: 2
#     Edge 57, Type (0, 1), BuildingBlock: UVAHIK_clean_linker_0, # of connection points: 2
#     Edge 58, Type (0, 1), BuildingBlock: UVAHIK_clean_linker_0, # of connection points: 2
#     Edge 59, Type (0, 1), BuildingBlock: UVAHIK_clean_linker_0, # of connection points: 2
#     Edge 60, Type (0, 1), BuildingBlock: UVAHIK_clean_linker_0, # of connection points: 2
#     Edge 61, Type (0, 1), BuildingBlock: UVAHIK_clean_linker_0, # of connection points: 2
#     Edge 62, Type (0, 1), BuildingBlock: UVAHIK_clean_linker_0, # of connection points: 2
#     Edge 63, Type (0, 1), BuildingBlock: UVAHIK_clean_linker_0, # of connection points: 2
#     Edge 64, Type (0, 1), BuildingBlock: UVAHIK_clean_linker_0, # of connection points: 2
#     Edge 65, Type (0, 1), BuildingBlock: UVAHIK_clean_linker_0, # of connection points: 2
#     Edge 66, Type (0, 1), BuildingBlock: UVAHIK_clean_linker_0, # of connection points: 2
#     Edge 67, Type (0, 1), BuildingBlock: UVAHIK_clean_linker_0, # of connection points: 2
#     Edge 68, Type (0, 1), BuildingBlock: UVAHIK_clean_linker_0, # of connection points: 2
#     Edge 69, Type (0, 1), BuildingBlock: UVAHIK_clean_linker_0, # of connection points: 2
#     Edge 70, Type (0, 1), BuildingBlock: UVAHIK_clean_linker_0, # of connection points: 2
#     Edge 71, Type (0, 1), BuildingBlock: UVAHIK_clean_linker_0, # of connection points: 2
#     Edge 72, Type (0, 1), BuildingBlock: UVAHIK_clean_linker_0, # of connection points: 2
#     Edge 73, Type (0, 1), BuildingBlock: UVAHIK_clean_linker_0, # of connection points: 2
#     Edge 74, Type (0, 1), BuildingBlock: UVAHIK_clean_linker_0, # of connection points: 2
#     Edge 75, Type (0, 1), BuildingBlock: UVAHIK_clean_linker_0, # of connection points: 2
#     Edge 76, Type (0, 1), BuildingBlock: UVAHIK_clean_linker_0, # of connection points: 2
#     Edge 77, Type (0, 1), BuildingBlock: UVAHIK_clean_linker_0, # of connection points: 2
#     Edge 78, Type (0, 1), BuildingBlock: UVAHIK_clean_linker_0, # of connection points: 2
#     Edge 79, Type (0, 1), BuildingBlock: UVAHIK_clean_linker_0, # of connection points: 2
#     Edge 80, Type (0, 1), BuildingBlock: UVAHIK_clean_linker_0, # of connection points: 2
#     Edge 81, Type (0, 1), BuildingBlock: UVAHIK_clean_linker_0, # of connection points: 2
#     Edge 82, Type (0, 1), BuildingBlock: UVAHIK_clean_linker_0, # of connection points: 2
#     Edge 83, Type (0, 1), BuildingBlock: UVAHIK_clean_linker_0, # of connection points: 2
#     Edge 84, Type (0, 1), BuildingBlock: UVAHIK_clean_linker_0, # of connection points: 2
#     Edge 85, Type (0, 1), BuildingBlock: UVAHIK_clean_linker_0, # of connection points: 2
#     Edge 86, Type (0, 1), BuildingBlock: UVAHIK_clean_linker_0, # of connection points: 2
#     Edge 87, Type (0, 1), BuildingBlock: UVAHIK_clean_linker_0, # of connection points: 2
#     Edge 88, Type (0, 1), BuildingBlock: UVAHIK_clean_linker_0, # of connection points: 2
#     Edge 89, Type (0, 1), BuildingBlock: UVAHIK_clean_linker_0, # of connection points: 2
#     Edge 90, Type (0, 1), BuildingBlock: UVAHIK_clean_linker_0, # of connection points: 2
#     Edge 91, Type (0, 1), BuildingBlock: UVAHIK_clean_linker_0, # of connection points: 2
#     Edge 92, Type (0, 1), BuildingBlock: UVAHIK_clean_linker_0, # of connection points: 2
#     Edge 93, Type (0, 1), BuildingBlock: UVAHIK_clean_linker_0, # of connection points: 2
#     Edge 94, Type (0, 1), BuildingBlock: UVAHIK_clean_linker_0, # of connection points: 2
#     Edge 95, Type (0, 1), BuildingBlock: UVAHIK_clean_linker_0, # of connection points: 2
#     Edge 96, Type (0, 1), BuildingBlock: UVAHIK_clean_linker_0, # of connection points: 2
#     Edge 97, Type (0, 1), BuildingBlock: UVAHIK_clean_linker_0, # of connection points: 2
#     Edge 98, Type (0, 1), BuildingBlock: UVAHIK_clean_linker_0, # of connection points: 2
#     Edge 99, Type (0, 1), BuildingBlock: UVAHIK_clean_linker_0, # of connection points: 2
#     Edge 100, Type (0, 1), BuildingBlock: UVAHIK_clean_linker_0, # of connection points: 2
#     Edge 101, Type (0, 1), BuildingBlock: UVAHIK_clean_linker_0, # of connection points: 2
#     Edge 102, Type (0, 1), BuildingBlock: UVAHIK_clean_linker_0, # of connection points: 2
#     Edge 103, Type (0, 1), BuildingBlock: UVAHIK_clean_linker_0, # of connection points: 2
#     Edge 104, Type (0, 1), BuildingBlock: UVAHIK_clean_linker_0, # of connection points: 2
#     Edge 105, Type (0, 1), BuildingBlock: UVAHIK_clean_linker_0, # of connection points: 2
#     Edge 106, Type (0, 1), BuildingBlock: UVAHIK_clean_linker_0, # of connection points: 2
#     Edge 107, Type (0, 1), BuildingBlock: UVAHIK_clean_linker_0, # of connection points: 2
#     Edge 108, Type (0, 1), BuildingBlock: UVAHIK_clean_linker_0, # of connection points: 2
#     Edge 109, Type (0, 1), BuildingBlock: UVAHIK_clean_linker_0, # of connection points: 2
#     Edge 110, Type (0, 1), BuildingBlock: UVAHIK_clean_linker_0, # of connection points: 2
#     Edge 111, Type (0, 1), BuildingBlock: UVAHIK_clean_linker_0, # of connection points: 2
#     Edge 112, Type (0, 1), BuildingBlock: UVAHIK_clean_linker_0, # of connection points: 2
#     Edge 113, Type (0, 1), BuildingBlock: UVAHIK_clean_linker_0, # of connection points: 2
#     Edge 114, Type (0, 1), BuildingBlock: UVAHIK_clean_linker_0, # of connection points: 2
#     Edge 115, Type (0, 1), BuildingBlock: UVAHIK_clean_linker_0, # of connection points: 2
#     Edge 116, Type (0, 1), BuildingBlock: UVAHIK_clean_linker_0, # of connection points: 2
#     Edge 117, Type (0, 1), BuildingBlock: UVAHIK_clean_linker_0, # of connection points: 2
#     Edge 118, Type (0, 1), BuildingBlock: UVAHIK_clean_linker_0, # of connection points: 2
#     Edge 119, Type (0, 1), BuildingBlock: UVAHIK_clean_linker_0, # of connection points: 2
#     Edge 120, Type (0, 1), BuildingBlock: UVAHIK_clean_linker_0, # of connection points: 2
#     Edge 121, Type (0, 1), BuildingBlock: UVAHIK_clean_linker_0, # of connection points: 2
#     Edge 122, Type (0, 1), BuildingBlock: UVAHIK_clean_linker_0, # of connection points: 2
#     Edge 123, Type (0, 1), BuildingBlock: UVAHIK_clean_linker_0, # of connection points: 2
#     Edge 124, Type (0, 1), BuildingBlock: UVAHIK_clean_linker_0, # of connection points: 2
#     Edge 125, Type (0, 1), BuildingBlock: UVAHIK_clean_linker_0, # of connection points: 2
#     Edge 126, Type (0, 1), BuildingBlock: UVAHIK_clean_linker_0, # of connection points: 2
#     Edge 127, Type (0, 1), BuildingBlock: UVAHIK_clean_linker_0, # of connection points: 2
#     Edge 128, Type (0, 1), BuildingBlock: UVAHIK_clean_linker_0, # of connection points: 2
#     Edge 129, Type (0, 1), BuildingBlock: UVAHIK_clean_linker_0, # of connection points: 2
#     Edge 130, Type (0, 1), BuildingBlock: UVAHIK_clean_linker_0, # of connection points: 2
#     Edge 131, Type (0, 1), BuildingBlock: UVAHIK_clean_linker_0, # of connection points: 2
#     Edge 132, Type (0, 1), BuildingBlock: UVAHIK_clean_linker_0, # of connection points: 2
#     Edge 133, Type (0, 1), BuildingBlock: UVAHIK_clean_linker_0, # of connection points: 2
#     Edge 134, Type (0, 1), BuildingBlock: UVAHIK_clean_linker_0, # of connection points: 2
#     Edge 135, Type (0, 1), BuildingBlock: UVAHIK_clean_linker_0, # of connection points: 2
#     Edge 136, Type (0, 1), BuildingBlock: UVAHIK_clean_linker_0, # of connection points: 2
#     Edge 137, Type (0, 1), BuildingBlock: UVAHIK_clean_linker_0, # of connection points: 2
#     Edge 138, Type (0, 1), BuildingBlock: UVAHIK_clean_linker_0, # of connection points: 2
#     Edge 139, Type (0, 1), BuildingBlock: UVAHIK_clean_linker_0, # of connection points: 2
#     Edge 140, Type (0, 1), BuildingBlock: UVAHIK_clean_linker_0, # of connection points: 2
#     Edge 141, Type (0, 1), BuildingBlock: UVAHIK_clean_linker_0, # of connection points: 2
#     Edge 142, Type (0, 1), BuildingBlock: UVAHIK_clean_linker_0, # of connection points: 2
#     Edge 143, Type (0, 1), BuildingBlock: UVAHIK_clean_linker_0, # of connection points: 2
#     Edge 144, Type (0, 1), BuildingBlock: UVAHIK_clean_linker_0, # of connection points: 2
#     Edge 145, Type (0, 1), BuildingBlock: UVAHIK_clean_linker_0, # of connection points: 2
#     Edge 146, Type (0, 1), BuildingBlock: UVAHIK_clean_linker_0, # of connection points: 2
#     Edge 147, Type (0, 1), BuildingBlock: UVAHIK_clean_linker_0, # of connection points: 2
#     Edge 148, Type (0, 1), BuildingBlock: UVAHIK_clean_linker_0, # of connection points: 2
#     Edge 149, Type (0, 1), BuildingBlock: UVAHIK_clean_linker_0, # of connection points: 2
#     Edge 150, Type (0, 1), BuildingBlock: UVAHIK_clean_linker_0, # of connection points: 2
#     Edge 151, Type (0, 1), BuildingBlock: UVAHIK_clean_linker_0, # of connection points: 2
# Relax obj value: 0.002
# Max RMSD: 0.117
# Mean RMSD: 0.050
data_MOF--net-tbo--node1-ESEHIV_clean_sbu_0--node2-BELTOD_clean_linker_0--edge1-UVAHIK_clean_linker_0
_symmetry_space_group_name_H-M    P1
_symmetry_Int_Tables_number       1
_symmetry_cell_setting            triclinic
loop_
_symmetry_equiv_pos_as_xyz
'x, y, z'
_cell_length_a     106.13365
_cell_length_b     107.2664
_cell_length_c     104.92131
_cell_angle_alpha  90.010612
_cell_angle_beta   91.86154
_cell_angle_gamma 90.703509
loop_
_atom_site_label
_atom_site_type_symbol
_atom_site_fract_x
_atom_site_fract_y
_atom_site_fract_z
_atom_type_partial_charge
P0 P 0.18201 0.17614 0.19483 0.0
H1 H 0.16852 0.17976 0.21833 0.0
H2 H 0.14729 0.18716 0.22238 0.0
H3 H 0.13826 0.18626 0.18196 0.0
H4 H 0.15943 0.17863 0.17798 0.0
H5 H 0.20475 0.16386 0.20426 0.0
H6 H 0.21016 0.1421 0.20771 0.0
H7 H 0.17367 0.13079 0.19186 0.0
H8 H 0.16821 0.15277 0.18878 0.0
H9 H 0.17693 0.20001 0.18297 0.0
H10 H 0.19603 0.16625 0.17315 0.0
O11 O 0.1906 0.18419 0.20568 0.0
H12 H 0.18242 0.20923 0.16266 0.0
H13 H 0.20211 0.17563 0.15298 0.0
C14 C 0.16565 0.17897 0.19784 0.0
C15 C 0.1619 0.18093 0.21036 0.0
C16 C 0.14975 0.18513 0.21267 0.0
C17 C 0.1412 0.18749 0.20247 0.0
C18 C 0.14474 0.18473 0.18999 0.0
C19 C 0.15683 0.18036 0.18771 0.0
C20 C 0.18597 0.15992 0.19655 0.0
C21 C 0.19789 0.1567 0.20154 0.0
C22 C 0.20103 0.14421 0.20338 0.0
C23 C 0.19234 0.13463 0.20012 0.0
C24 C 0.18052 0.13792 0.19468 0.0
C25 C 0.17738 0.15047 0.19288 0.0
C26 C 0.18589 0.18239 0.17949 0.0
C27 C 0.1823 0.19456 0.1764 0.0
C28 C 0.18558 0.19988 0.16482 0.0
C29 C 0.19279 0.19322 0.15616 0.0
C30 C 0.1964 0.18098 0.15931 0.0
C31 C 0.19298 0.17561 0.1709 0.0
P32 P 0.85855 0.16626 0.16303 0.0
H33 H 0.8692 0.15871 0.18778 0.0
H34 H 0.8837 0.16891 0.20312 0.0
H35 H 0.88308 0.20229 0.18014 0.0
H36 H 0.8684 0.19213 0.1649 0.0
H37 H 0.85448 0.13964 0.15804 0.0
H38 H 0.84352 0.12327 0.16962 0.0
H39 H 0.83017 0.15073 0.19593 0.0
H40 H 0.84115 0.16715 0.1842 0.0
H41 H 0.86639 0.18248 0.14252 0.0
H42 H 0.83136 0.17181 0.15942 0.0
O43 O 0.86912 0.15889 0.15443 0.0
H44 H 0.85489 0.19508 0.12675 0.0
H45 H 0.81976 0.18435 0.14354 0.0
C46 C 0.86746 0.1747 0.17527 0.0
C47 C 0.87187 0.16834 0.18619 0.0
C48 C 0.88019 0.17418 0.19497 0.0
C49 C 0.88452 0.1864 0.19284 0.0
C50 C 0.87995 0.19283 0.182 0.0
C51 C 0.87148 0.18704 0.1733 0.0
C52 C 0.84876 0.15459 0.17037 0.0
C53 C 0.84909 0.14219 0.16622 0.0
C54 C 0.84288 0.13281 0.17289 0.0
C55 C 0.83613 0.13567 0.18381 0.0
C56 C 0.83526 0.14822 0.18754 0.0
C57 C 0.84154 0.15761 0.18087 0.0
C58 C 0.84977 0.17621 0.15217 0.0
C59 C 0.85622 0.18295 0.14292 0.0
C60 C 0.84964 0.19018 0.13392 0.0
C61 C 0.83641 0.19071 0.13388 0.0
C62 C 0.82995 0.18404 0.14326 0.0
C63 C 0.83658 0.17692 0.15239 0.0
P64 P 0.84642 0.86783 0.15375 0.0
H65 H 0.84274 0.89475 0.15126 0.0
H66 H 0.82915 0.9094 0.1618 0.0
H67 H 0.81366 0.87922 0.18391 0.0
H68 H 0.82753 0.86457 0.17337 0.0
H69 H 0.87242 0.87418 0.16121 0.0
H70 H 0.8878 0.86471 0.17584 0.0
H71 H 0.85979 0.83748 0.18679 0.0
H72 H 0.8445 0.84688 0.17174 0.0
H73 H 0.82075 0.86689 0.14248 0.0
H74 H 0.85331 0.84324 0.14441 0.0
O75 O 0.85472 0.87575 0.14312 0.0
H76 H 0.8101 0.85225 0.12782 0.0
H77 H 0.84262 0.82839 0.12993 0.0
C78 C 0.83617 0.87855 0.16155 0.0
C79 C 0.83642 0.89124 0.15836 0.0
C80 C 0.82855 0.89963 0.16434 0.0
C81 C 0.82025 0.89551 0.17369 0.0
C82 C 0.82002 0.88274 0.17685 0.0
C83 C 0.82791 0.87434 0.17082 0.0
C84 C 0.85739 0.86111 0.16523 0.0
C85 C 0.86957 0.86617 0.16674 0.0
C86 C 0.87835 0.86079 0.17523 0.0
C87 C 0.87509 0.85028 0.18251 0.0
C88 C 0.86271 0.84543 0.1812 0.0
C89 C 0.85393 0.85083 0.17266 0.0
C90 C 0.8377 0.85601 0.14483 0.0
C91 C 0.82548 0.85837 0.14004 0.0
C92 C 0.81939 0.84997 0.13162 0.0
C93 C 0.82548 0.8391 0.12768 0.0
C94 C 0.83769 0.8367 0.13266 0.0
C95 C 0.84375 0.84512 0.14108 0.0
P96 P 0.13815 0.84584 0.1488 0.0
H97 H 0.16207 0.85977 0.15012 0.0
H98 H 0.17133 0.87416 0.16594 0.0
H99 H 0.14068 0.86607 0.19091 0.0
H100 H 0.13132 0.85199 0.17489 0.0
H101 H 0.1385 0.84437 0.12107 0.0
H102 H 0.15334 0.83572 0.10634 0.0
H103 H 0.17629 0.82248 0.13821 0.0
H104 H 0.1614 0.8315 0.15298 0.0
H105 H 0.11212 0.83901 0.14177 0.0
H106 H 0.14074 0.8269 0.16895 0.0
O107 O 0.12967 0.85627 0.14054 0.0
H108 H 0.09699 0.82453 0.15087 0.0
H109 H 0.12552 0.81248 0.17835 0.0
C110 C 0.14619 0.85449 0.16145 0.0
C111 C 0.15751 0.86085 0.15913 0.0
C112 C 0.1628 0.8691 0.16821 0.0
C113 C 0.15677 0.8713 0.17974 0.0
C114 C 0.14553 0.86471 0.1821 0.0
C115 C 0.14024 0.8565 0.173 0.0
C116 C 0.14896 0.83876 0.13812 0.0
C117 C 0.14672 0.83962 0.12492 0.0
C118 C 0.15519 0.83456 0.11648 0.0
C119 C 0.16606 0.8284 0.12106 0.0
C120 C 0.16812 0.82731 0.13435 0.0
C121 C 0.1596 0.8324 0.1428 0.0
C122 C 0.12748 0.83422 0.15487 0.0
C123 C 0.11516 0.83322 0.14971 0.0
C124 C 0.10648 0.82496 0.15497 0.0
C125 C 0.10996 0.81746 0.16548 0.0
C126 C 0.12252 0.81807 0.17024 0.0
C127 C 0.13122 0.82636 0.16493 0.0
P128 P 0.18043 0.82921 0.83016 0.0
H129 H 0.16924 0.82012 0.80601 0.0
H130 H 0.14756 0.81711 0.79826 0.0
H131 H 0.13429 0.8317 0.83375 0.0
H132 H 0.15617 0.83435 0.8416 0.0
H133 H 0.20302 0.84133 0.84092 0.0
H134 H 0.21144 0.86255 0.83931 0.0
H135 H 0.17708 0.87381 0.81951 0.0
H136 H 0.16892 0.85251 0.82084 0.0
H137 H 0.18655 0.80349 0.83611 0.0
H138 H 0.17896 0.837 0.85705 0.0
O139 O 0.18977 0.82259 0.81967 0.0
H140 H 0.1909 0.79244 0.85608 0.0
H141 H 0.18345 0.826 0.87718 0.0
C142 C 0.16431 0.82732 0.82445 0.0
C143 C 0.16169 0.82266 0.81216 0.0
C144 C 0.14924 0.82105 0.80767 0.0
C145 C 0.13912 0.82417 0.81535 0.0
C146 C 0.14182 0.82903 0.82763 0.0
C147 C 0.15432 0.8306 0.83213 0.0
C148 C 0.18528 0.84535 0.83117 0.0
C149 C 0.1972 0.84844 0.83648 0.0
C150 C 0.20199 0.86061 0.83556 0.0
C151 C 0.19497 0.86992 0.82922 0.0
C152 C 0.18283 0.86685 0.8243 0.0
C153 C 0.17807 0.85466 0.82518 0.0
C154 C 0.18275 0.82113 0.8451 0.0
C155 C 0.18585 0.80848 0.84503 0.0
C156 C 0.18836 0.80218 0.85646 0.0
C157 C 0.18772 0.80838 0.86823 0.0
C158 C 0.18403 0.82095 0.86829 0.0
C159 C 0.18155 0.82727 0.85679 0.0
P160 P 0.19946 0.18132 0.83913 0.0
H161 H 0.22338 0.18917 0.85137 0.0
H162 H 0.22989 0.19317 0.87347 0.0
H163 H 0.19331 0.18063 0.88558 0.0
H164 H 0.18675 0.17698 0.86328 0.0
H165 H 0.19295 0.17057 0.81442 0.0
H166 H 0.19494 0.14961 0.80556 0.0
H167 H 0.20763 0.13615 0.84253 0.0
H168 H 0.20562 0.15716 0.85134 0.0
H169 H 0.19259 0.20632 0.83078 0.0
H170 H 0.17324 0.17265 0.84185 0.0
O171 O 0.2099 0.18884 0.83028 0.0
H172 H 0.1724 0.21646 0.8267 0.0
H173 H 0.15287 0.18282 0.83783 0.0
C174 C 0.2045 0.18298 0.85565 0.0
C175 C 0.21675 0.18723 0.85877 0.0
C176 C 0.22051 0.18942 0.87147 0.0
C177 C 0.21212 0.1873 0.88137 0.0
C178 C 0.19996 0.18259 0.87821 0.0
C179 C 0.1962 0.18043 0.86546 0.0
C180 C 0.19908 0.16542 0.83353 0.0
C181 C 0.19598 0.16306 0.82067 0.0
C182 C 0.19721 0.15111 0.81559 0.0
C183 C 0.20153 0.14123 0.82332 0.0
C184 C 0.20419 0.14353 0.83635 0.0
C185 C 0.20306 0.15556 0.8414 0.0
C186 C 0.18441 0.18866 0.8364 0.0
C187 C 0.18398 0.20108 0.83228 0.0
C188 C 0.17242 0.20687 0.82992 0.0
C189 C 0.16103 0.20041 0.83182 0.0
C190 C 0.16149 0.18804 0.8363 0.0
C191 C 0.1731 0.18221 0.83854 0.0
P192 P 0.86913 0.15786 0.84971 0.0
H193 H 0.87203 0.13726 0.8321 0.0
H194 H 0.85681 0.12338 0.82114 0.0
H195 H 0.82637 0.1462 0.83386 0.0
H196 H 0.84164 0.15989 0.84496 0.0
H197 H 0.8955 0.16335 0.8556 0.0
H198 H 0.91188 0.17441 0.84437 0.0
H199 H 0.88503 0.18288 0.8138 0.0
H200 H 0.86867 0.17126 0.82506 0.0
H201 H 0.85723 0.15266 0.87368 0.0
H202 H 0.86307 0.18467 0.84965 0.0
O203 O 0.87666 0.14706 0.8584 0.0
H204 H 0.84623 0.16557 0.88876 0.0
H205 H 0.8518 0.19769 0.86462 0.0
C206 C 0.85799 0.14954 0.83944 0.0
C207 C 0.86209 0.1394 0.83232 0.0
C208 C 0.85336 0.13148 0.82603 0.0
C209 C 0.84033 0.13357 0.82674 0.0
C210 C 0.83631 0.14417 0.83332 0.0
C211 C 0.84506 0.15208 0.83961 0.0
C212 C 0.88092 0.16632 0.84108 0.0
C213 C 0.89313 0.16751 0.84645 0.0
C214 C 0.90248 0.17398 0.84004 0.0
C215 C 0.89982 0.17963 0.82816 0.0
C216 C 0.88748 0.17852 0.82284 0.0
C217 C 0.8781 0.17194 0.82928 0.0
C218 C 0.8612 0.16776 0.8607 0.0
C219 C 0.85617 0.16251 0.87167 0.0
C220 C 0.84975 0.16989 0.88023 0.0
C221 C 0.84812 0.18269 0.87793 0.0
C222 C 0.85304 0.18791 0.86679 0.0
C223 C 0.85947 0.18047 0.8582 0.0
P224 P 0.85285 0.87621 0.85588 0.0
H225 H 0.87963 0.87873 0.8511 0.0
H226 H 0.89513 0.86441 0.84289 0.0
H227 H 0.86596 0.83624 0.8375 0.0
H228 H 0.85044 0.85079 0.84549 0.0
H229 H 0.85279 0.90324 0.85213 0.0
H230 H 0.84381 0.91656 0.83547 0.0
H231 H 0.82931 0.884 0.81536 0.0
H232 H 0.83828 0.87065 0.83227 0.0
H233 H 0.85504 0.85676 0.87498 0.0
H234 H 0.82505 0.87747 0.85652 0.0
O235 O 0.86069 0.88525 0.86647 0.0
H236 H 0.83987 0.84653 0.8886 0.0
H237 H 0.80971 0.86697 0.86982 0.0
C238 C 0.86397 0.86571 0.84917 0.0
C239 C 0.87658 0.86947 0.84815 0.0
C240 C 0.88544 0.86124 0.84351 0.0
C241 C 0.88184 0.84909 0.83972 0.0
C242 C 0.86906 0.84552 0.84032 0.0
C243 C 0.86019 0.8538 0.84496 0.0
C244 C 0.84618 0.88594 0.84345 0.0
C245 C 0.84771 0.89892 0.84415 0.0
C246 C 0.84264 0.90655 0.83454 0.0
C247 C 0.83589 0.90136 0.82403 0.0
C248 C 0.83438 0.8883 0.82337 0.0
C249 C 0.83952 0.88066 0.83299 0.0
C250 C 0.84117 0.86772 0.8646 0.0
C251 C 0.84513 0.85891 0.87368 0.0
C252 C 0.83641 0.85302 0.88143 0.0
C253 C 0.82351 0.85587 0.88031 0.0
C254 C 0.81957 0.86462 0.87105 0.0
C255 C 0.82833 0.87055 0.86332 0.0
P256 P 0.17922 0.69346 0.68233 0.0
H257 H 0.16962 0.69307 0.70779 0.0
H258 H 0.14874 0.69613 0.71628 0.0
H259 H 0.1336 0.70216 0.67807 0.0
H260 H 0.15465 0.69921 0.66965 0.0
H261 H 0.20306 0.68116 0.68842 0.0
H262 H 0.20812 0.65991 0.69501 0.0
H263 H 0.16912 0.64895 0.68846 0.0
H264 H 0.16412 0.6703 0.68205 0.0
H265 H 0.18495 0.71742 0.67083 0.0
H266 H 0.17677 0.67999 0.65783 0.0
O267 O 0.18924 0.70215 0.69125 0.0
H268 H 0.18871 0.72395 0.64902 0.0
H269 H 0.18014 0.68651 0.63581 0.0
C270 C 0.1637 0.69609 0.68814 0.0
C271 C 0.16181 0.69512 0.70125 0.0
C272 C 0.14984 0.69675 0.70607 0.0
C273 C 0.13948 0.69937 0.69785 0.0
C274 C 0.14141 0.7003 0.68466 0.0
C275 C 0.15343 0.6986 0.67983 0.0
C276 C 0.18318 0.67736 0.68501 0.0
C277 C 0.19563 0.67415 0.68827 0.0
C278 C 0.19852 0.66196 0.69198 0.0
C279 C 0.18899 0.65274 0.69243 0.0
C280 C 0.17663 0.65588 0.68848 0.0
C281 C 0.17377 0.66807 0.68474 0.0
C282 C 0.18086 0.69818 0.66597 0.0
C283 C 0.18387 0.71062 0.66323 0.0
C284 C 0.1859 0.71437 0.6507 0.0
C285 C 0.18482 0.70576 0.6406 0.0
C286 C 0.1813 0.69335 0.64336 0.0
C287 C 0.17931 0.68961 0.65595 0.0
P288 P 0.85906 0.67299 0.64394 0.0
H289 H 0.88554 0.66924 0.65118 0.0
H290 H 0.90093 0.68168 0.66348 0.0
H291 H 0.87191 0.70807 0.67206 0.0
H292 H 0.85665 0.69574 0.65921 0.0
H293 H 0.85149 0.64701 0.64004 0.0
H294 H 0.83916 0.63234 0.65241 0.0
H295 H 0.83258 0.66117 0.68008 0.0
H296 H 0.84493 0.67594 0.66751 0.0
H297 H 0.86683 0.6938 0.62838 0.0
H298 H 0.83189 0.67527 0.63717 0.0
O299 O 0.86748 0.66443 0.6341 0.0
H300 H 0.85563 0.70706 0.61298 0.0
H301 H 0.8206 0.68849 0.62167 0.0
C302 C 0.86999 0.68164 0.65417 0.0
C303 C 0.88247 0.67768 0.65572 0.0
C304 C 0.89127 0.68479 0.66287 0.0
C305 C 0.88772 0.69595 0.66876 0.0
C306 C 0.87506 0.69967 0.66748 0.0
C307 C 0.86628 0.69257 0.66023 0.0
C308 C 0.84935 0.66252 0.65298 0.0
C309 C 0.84743 0.65021 0.64878 0.0
C310 C 0.8404 0.6418 0.6559 0.0
C311 C 0.83502 0.64552 0.66734 0.0
C312 C 0.83659 0.65801 0.67131 0.0
C313 C 0.84371 0.66644 0.66418 0.0
C314 C 0.85019 0.68364 0.634 0.0
C315 C 0.85671 0.69271 0.62712 0.0
C316 C 0.85031 0.70022 0.61824 0.0
C317 C 0.83724 0.69878 0.61604 0.0
C318 C 0.83065 0.68989 0.62323 0.0
C319 C 0.8371 0.68232 0.63209 0.0
P320 P 0.85977 0.36909 0.66778 0.0
H321 H 0.86323 0.38177 0.69219 0.0
H322 H 0.85051 0.3966 0.70351 0.0
H323 H 0.82062 0.39212 0.67486 0.0
H324 H 0.83357 0.37729 0.66346 0.0
H325 H 0.88634 0.36333 0.66526 0.0
H326 H 0.90168 0.35256 0.67901 0.0
H327 H 0.87255 0.34446 0.70574 0.0
H328 H 0.85722 0.35536 0.69187 0.0
H329 H 0.86382 0.36399 0.64096 0.0
H330 H 0.83918 0.35058 0.66994 0.0
O331 O 0.86805 0.37952 0.65959 0.0
H332 H 0.85442 0.34919 0.62576 0.0
H333 H 0.82978 0.33541 0.65471 0.0
C334 C 0.84921 0.37807 0.6772 0.0
C335 C 0.85379 0.38367 0.68853 0.0
C336 C 0.84649 0.3922 0.695 0.0
C337 C 0.83448 0.39553 0.69016 0.0
C338 C 0.82984 0.38981 0.67884 0.0
C339 C 0.83718 0.38121 0.67238 0.0
C340 C 0.87073 0.36041 0.67771 0.0
C341 C 0.88324 0.35923 0.67407 0.0
C342 C 0.89199 0.35299 0.68191 0.0
C343 C 0.88837 0.34773 0.69354 0.0
C344 C 0.87569 0.34859 0.69696 0.0
C345 C 0.86691 0.35478 0.68903 0.0
C346 C 0.85205 0.35854 0.65653 0.0
C347 C 0.8563 0.3579 0.64405 0.0
C348 C 0.85099 0.34931 0.63536 0.0
C349 C 0.84137 0.34104 0.639 0.0
C350 C 0.83708 0.34173 0.65155 0.0
C351 C 0.84244 0.35036 0.66027 0.0
P352 P 0.15756 0.36453 0.66214 0.0
H353 H 0.16764 0.38758 0.6521 0.0
H354 H 0.18062 0.40438 0.66137 0.0
H355 H 0.1807 0.38568 0.69787 0.0
H356 H 0.16793 0.36867 0.68834 0.0
H357 H 0.15427 0.35186 0.63763 0.0
H358 H 0.16889 0.34118 0.624 0.0
H359 H 0.1985 0.34587 0.65293 0.0
H360 H 0.18381 0.35676 0.66645 0.0
H361 H 0.13984 0.37147 0.68131 0.0
H362 H 0.15508 0.33744 0.66675 0.0
O363 O 0.14708 0.37103 0.65206 0.0
H364 H 0.1253 0.35944 0.69414 0.0
H365 H 0.14079 0.32527 0.67984 0.0
C366 C 0.16657 0.37705 0.6696 0.0
C367 C 0.17035 0.38716 0.66213 0.0
C368 C 0.17775 0.39679 0.66747 0.0
C369 C 0.1816 0.39649 0.68042 0.0
C370 C 0.17795 0.3862 0.68786 0.0
C371 C 0.17054 0.37652 0.68246 0.0
C372 C 0.16803 0.35532 0.65292 0.0
C373 C 0.16388 0.35053 0.64107 0.0
C374 C 0.17225 0.34434 0.63332 0.0
C375 C 0.18492 0.34277 0.63731 0.0
C376 C 0.18888 0.34714 0.64946 0.0
C377 C 0.18048 0.35331 0.65723 0.0
C378 C 0.14865 0.35538 0.6732 0.0
C379 C 0.14026 0.36139 0.68113 0.0
C380 C 0.13196 0.35446 0.68849 0.0
C381 C 0.13183 0.34133 0.68806 0.0
C382 C 0.1405 0.33534 0.6803 0.0
C383 C 0.14879 0.34231 0.6729 0.0
P384 P 0.18169 0.31946 0.34129 0.0
H385 H 0.17114 0.29586 0.33252 0.0
H386 H 0.14972 0.28844 0.32781 0.0
H387 H 0.13551 0.32483 0.3371 0.0
H388 H 0.15709 0.33203 0.3423 0.0
H389 H 0.19819 0.33724 0.35528 0.0
H390 H 0.20514 0.35842 0.35049 0.0
H391 H 0.17955 0.35898 0.31761 0.0
H392 H 0.17282 0.33765 0.32236 0.0
H393 H 0.19721 0.29906 0.35113 0.0
H394 H 0.17397 0.32776 0.36644 0.0
O395 O 0.19109 0.3123 0.33124 0.0
H396 H 0.20212 0.2915 0.3726 0.0
H397 H 0.17868 0.32009 0.3881 0.0
C398 C 0.16573 0.31459 0.33737 0.0
C399 C 0.16342 0.30228 0.33343 0.0
C400 C 0.15114 0.29806 0.33069 0.0
C401 C 0.14084 0.30607 0.33186 0.0
C402 C 0.14319 0.31838 0.33611 0.0
C403 C 0.15553 0.32257 0.33895 0.0
C404 C 0.1847 0.33595 0.3394 0.0
C405 C 0.19378 0.34202 0.34726 0.0
C406 C 0.19778 0.35418 0.34448 0.0
C407 C 0.19292 0.36045 0.33365 0.0
C408 C 0.18358 0.35441 0.32597 0.0
C409 C 0.17959 0.34226 0.32876 0.0
C410 C 0.18541 0.31411 0.35723 0.0
C411 C 0.19318 0.30377 0.35913 0.0
C412 C 0.19587 0.29936 0.37143 0.0
C413 C 0.19079 0.30518 0.38209 0.0
C414 C 0.18287 0.31549 0.38011 0.0
C415 C 0.18015 0.31987 0.36777 0.0
P416 P 0.17919 0.67049 0.32396 0.0
H417 H 0.20513 0.67468 0.333 0.0
H418 H 0.21469 0.67976 0.35387 0.0
H419 H 0.17791 0.67811 0.37036 0.0
H420 H 0.16846 0.67275 0.34943 0.0
H421 H 0.17138 0.65685 0.30094 0.0
H422 H 0.17628 0.63597 0.29322 0.0
H423 H 0.19453 0.62764 0.32956 0.0
H424 H 0.18968 0.64847 0.33717 0.0
H425 H 0.17036 0.69586 0.32396 0.0
H426 H 0.1536 0.6591 0.32141 0.0
O427 O 0.1878 0.67832 0.31353 0.0
H428 H 0.14957 0.70514 0.32143 0.0
H429 H 0.13262 0.66834 0.31899 0.0
C430 C 0.18606 0.6736 0.33962 0.0
C431 C 0.19912 0.67541 0.34111 0.0
C432 C 0.20457 0.67838 0.35305 0.0
C433 C 0.19706 0.67953 0.36379 0.0
C434 C 0.18399 0.67727 0.36232 0.0
C435 C 0.17855 0.67429 0.35034 0.0
C436 C 0.18013 0.65425 0.31963 0.0
C437 C 0.17615 0.65041 0.30735 0.0
C438 C 0.17895 0.63846 0.30295 0.0
C439 C 0.18591 0.63018 0.31073 0.0
C440 C 0.18931 0.63386 0.32326 0.0
C441 C 0.18646 0.64578 0.32766 0.0
C442 C 0.16354 0.67682 0.32269 0.0
C443 C 0.16216 0.68978 0.3229 0.0
C444 C 0.15024 0.69508 0.32155 0.0
C445 C 0.13939 0.6875 0.31999 0.0
C446 C 0.14079 0.67445 0.32001 0.0
C447 C 0.15278 0.66915 0.32142 0.0
P448 P 0.85452 0.64961 0.34983 0.0
H449 H 0.85936 0.62969 0.33192 0.0
H450 H 0.84552 0.61548 0.31952 0.0
H451 H 0.81296 0.63423 0.33354 0.0
H452 H 0.82682 0.64848 0.34581 0.0
H453 H 0.87454 0.66692 0.35751 0.0
H454 H 0.88914 0.67987 0.34563 0.0
H455 H 0.8702 0.66862 0.31032 0.0
H456 H 0.85566 0.6556 0.32231 0.0
H457 H 0.84267 0.64039 0.37251 0.0
H458 H 0.84642 0.67566 0.35324 0.0
O459 O 0.86447 0.64001 0.35742 0.0
H460 H 0.82991 0.65012 0.38856 0.0
H461 H 0.83403 0.68565 0.36957 0.0
C462 C 0.84414 0.64006 0.33987 0.0
C463 C 0.84924 0.6308 0.33223 0.0
C464 C 0.84133 0.62272 0.32514 0.0
C465 C 0.82815 0.6237 0.32564 0.0
C466 C 0.82307 0.63315 0.33311 0.0
C467 C 0.83101 0.64134 0.3401 0.0
C468 C 0.86402 0.66029 0.34083 0.0
C469 C 0.87343 0.66737 0.34722 0.0
C470 C 0.88176 0.6748 0.3404 0.0
C471 C 0.88087 0.67528 0.32699 0.0
C472 C 0.87124 0.66835 0.32062 0.0
C473 C 0.86286 0.66094 0.32748 0.0
C474 C 0.84569 0.65734 0.36184 0.0
C475 C 0.8409 0.6503 0.37187 0.0
C476 C 0.83365 0.65591 0.38108 0.0
C477 C 0.83102 0.66873 0.38048 0.0
C478 C 0.83578 0.67575 0.37031 0.0
C479 C 0.84298 0.67008 0.36102 0.0
P480 P 0.85417 0.3652 0.36475 0.0
H481 H 0.88016 0.37069 0.3586 0.0
H482 H 0.89533 0.36018 0.34544 0.0
H483 H 0.86786 0.33104 0.33698 0.0
H484 H 0.85267 0.34168 0.35025 0.0
H485 H 0.85771 0.39167 0.35952 0.0
H486 H 0.84852 0.40561 0.3435 0.0
H487 H 0.82471 0.37547 0.32908 0.0
H488 H 0.8339 0.36155 0.34537 0.0
H489 H 0.85753 0.34105 0.37708 0.0
H490 H 0.82788 0.36789 0.37216 0.0
O491 O 0.86207 0.37362 0.37582 0.0
H492 H 0.84445 0.32888 0.39127 0.0
H493 H 0.81458 0.35563 0.38624 0.0
C494 C 0.86542 0.35678 0.35569 0.0
C495 C 0.87744 0.36196 0.35405 0.0
C496 C 0.88606 0.356 0.34641 0.0
C497 C 0.88281 0.34476 0.34018 0.0
C498 C 0.8707 0.3396 0.3418 0.0
C499 C 0.86203 0.34565 0.34938 0.0
C500 C 0.84629 0.37565 0.3538 0.0
C501 C 0.85037 0.38809 0.35306 0.0
C502 C 0.8452 0.39603 0.34379 0.0
C503 C 0.83591 0.39165 0.33497 0.0
C504 C 0.83174 0.37917 0.33582 0.0
C505 C 0.83697 0.37121 0.34511 0.0
C506 C 0.84354 0.35517 0.37321 0.0
C507 C 0.84804 0.34412 0.37873 0.0
C508 C 0.84053 0.33717 0.38689 0.0
C509 C 0.8284 0.34121 0.38986 0.0
C510 C 0.82388 0.35226 0.38421 0.0
C511 C 0.83142 0.35921 0.37602 0.0
P512 P 0.69348 0.18983 0.68207 0.0
H513 H 0.68561 0.19141 0.70825 0.0
H514 H 0.66528 0.19453 0.71785 0.0
H515 H 0.64719 0.19481 0.68034 0.0
H516 H 0.66772 0.19201 0.67078 0.0
H517 H 0.71768 0.17783 0.68699 0.0
H518 H 0.72362 0.15616 0.69026 0.0
H519 H 0.68521 0.14448 0.68127 0.0
H520 H 0.67928 0.16631 0.67845 0.0
H521 H 0.70073 0.21426 0.67247 0.0
H522 H 0.68733 0.17927 0.65666 0.0
O523 O 0.70382 0.1979 0.69125 0.0
H524 H 0.70293 0.22266 0.6511 0.0
H525 H 0.68904 0.18776 0.6351 0.0
C526 C 0.67821 0.19174 0.68881 0.0
C527 C 0.67727 0.19219 0.70208 0.0
C528 C 0.6656 0.19385 0.70757 0.0
C529 C 0.65455 0.19496 0.69989 0.0
C530 C 0.65551 0.19421 0.68654 0.0
C531 C 0.66724 0.19256 0.68106 0.0
C532 C 0.69799 0.17369 0.68277 0.0
C533 C 0.71055 0.1706 0.68566 0.0
C534 C 0.71396 0.15816 0.68742 0.0
C535 C 0.70489 0.14852 0.68617 0.0
C536 C 0.69241 0.15166 0.68259 0.0
C537 C 0.689 0.16414 0.68091 0.0
C538 C 0.69414 0.19606 0.66614 0.0
C539 C 0.69818 0.2084 0.66437 0.0
C540 C 0.6993 0.21325 0.65209 0.0
C541 C 0.69623 0.2059 0.64129 0.0
C542 C 0.69173 0.19363 0.64316 0.0
C543 C 0.6907 0.18876 0.65548 0.0
P544 P 0.36372 0.16126 0.66322 0.0
H545 H 0.39094 0.15855 0.66569 0.0
H546 H 0.40763 0.17097 0.67615 0.0
H547 H 0.37994 0.19688 0.68913 0.0
H548 H 0.36317 0.18435 0.67843 0.0
H549 H 0.36993 0.13577 0.67025 0.0
H550 H 0.36122 0.12104 0.68539 0.0
H551 H 0.33462 0.14875 0.69689 0.0
H552 H 0.34369 0.16361 0.68184 0.0
H553 H 0.36456 0.18579 0.65108 0.0
H554 H 0.33722 0.15628 0.65603 0.0
O555 O 0.37042 0.15281 0.65199 0.0
H556 H 0.34965 0.19676 0.6371 0.0
H557 H 0.3221 0.16733 0.64222 0.0
C558 C 0.37585 0.17067 0.67106 0.0
C559 C 0.38843 0.16694 0.67071 0.0
C560 C 0.39798 0.17401 0.6768 0.0
C561 C 0.39513 0.18494 0.68348 0.0
C562 C 0.38246 0.18861 0.68392 0.0
C563 C 0.37287 0.18145 0.67786 0.0
C564 C 0.35722 0.15066 0.67468 0.0
C565 C 0.36219 0.13867 0.67598 0.0
C566 C 0.35715 0.13023 0.68462 0.0
C567 C 0.34706 0.13361 0.69223 0.0
C568 C 0.34238 0.14582 0.6912 0.0
C569 C 0.34749 0.1543 0.68254 0.0
C570 C 0.35188 0.17042 0.65499 0.0
C571 C 0.3552 0.18186 0.64951 0.0
C572 C 0.34664 0.18812 0.64146 0.0
C573 C 0.33462 0.18297 0.63856 0.0
C574 C 0.33129 0.17154 0.64419 0.0
C575 C 0.33987 0.16529 0.65225 0.0
P576 P 0.35337 0.86563 0.66551 0.0
H577 H 0.36083 0.88697 0.6809 0.0
H578 H 0.34917 0.90263 0.69232 0.0
H579 H 0.31419 0.88375 0.68163 0.0
H580 H 0.32602 0.86815 0.66997 0.0
H581 H 0.37671 0.85309 0.66008 0.0
H582 H 0.39271 0.84285 0.6735 0.0
H583 H 0.37054 0.84948 0.70661 0.0
H584 H 0.3546 0.85985 0.69308 0.0
H585 H 0.33782 0.86928 0.64253 0.0
H586 H 0.34814 0.83856 0.66704 0.0
O587 O 0.36172 0.87426 0.6555 0.0
H588 H 0.32727 0.85482 0.62756 0.0
H589 H 0.33743 0.82402 0.65222 0.0
C590 C 0.34432 0.87641 0.6746 0.0
C591 C 0.35065 0.88615 0.68108 0.0
C592 C 0.34395 0.89508 0.68767 0.0
C593 C 0.33071 0.89445 0.68796 0.0
C594 C 0.32436 0.88458 0.68151 0.0
C595 C 0.33112 0.87561 0.6749 0.0
C596 C 0.36459 0.85743 0.6756 0.0
C597 C 0.37528 0.85232 0.67023 0.0
C598 C 0.38439 0.84639 0.67791 0.0
C599 C 0.38296 0.84539 0.69116 0.0
C600 C 0.37204 0.85026 0.69648 0.0
C601 C 0.3629 0.85616 0.68874 0.0
C602 C 0.34389 0.85499 0.65581 0.0
C603 C 0.33763 0.85942 0.64478 0.0
C604 C 0.33155 0.85113 0.63625 0.0
C605 C 0.33159 0.83821 0.6386 0.0
C606 C 0.33741 0.83388 0.64999 0.0
C607 C 0.34348 0.8422 0.65852 0.0
P608 P 0.64031 0.85649 0.64662 0.0
H609 H 0.65162 0.88046 0.6404 0.0
H610 H 0.66294 0.89631 0.65314 0.0
H611 H 0.66141 0.87236 0.68619 0.0
H612 H 0.65027 0.85646 0.67331 0.0
H613 H 0.63341 0.83366 0.63323 0.0
H614 H 0.64428 0.82056 0.61827 0.0
H615 H 0.67734 0.84434 0.62226 0.0
H616 H 0.66645 0.85727 0.6376 0.0
H617 H 0.61366 0.85811 0.65278 0.0
H618 H 0.64503 0.83429 0.66224 0.0
O619 O 0.63103 0.86481 0.63679 0.0
H620 H 0.59974 0.84459 0.6649 0.0
H621 H 0.63113 0.82068 0.6744 0.0
C622 C 0.6499 0.86736 0.65594 0.0
C623 C 0.65379 0.87858 0.65037 0.0
C624 C 0.6602 0.88767 0.65769 0.0
C625 C 0.66292 0.8857 0.67075 0.0
C626 C 0.6595 0.87418 0.67616 0.0
C627 C 0.65306 0.86508 0.66881 0.0
C628 C 0.64918 0.84631 0.63672 0.0
C629 C 0.64308 0.83594 0.63108 0.0
C630 C 0.64927 0.82853 0.6224 0.0
C631 C 0.66166 0.83144 0.61898 0.0
C632 C 0.66784 0.84176 0.62478 0.0
C633 C 0.66162 0.84919 0.63354 0.0
C634 C 0.63035 0.84713 0.65653 0.0
C635 C 0.61756 0.84999 0.6575 0.0
C636 C 0.60959 0.84221 0.66436 0.0
C637 C 0.61431 0.8315 0.6705 0.0
C638 C 0.62722 0.82888 0.66982 0.0
C639 C 0.63517 0.83663 0.66286 0.0
P640 P 0.67275 0.82835 0.32197 0.0
H641 H 0.66088 0.81243 0.30235 0.0
H642 H 0.63908 0.80813 0.29582 0.0
H643 H 0.62656 0.83293 0.32516 0.0
H644 H 0.6486 0.83721 0.33172 0.0
H645 H 0.69534 0.8414 0.33083 0.0
H646 H 0.70275 0.86282 0.32888 0.0
H647 H 0.66719 0.87271 0.31051 0.0
H648 H 0.66007 0.85101 0.31202 0.0
H649 H 0.69079 0.80937 0.3303 0.0
H650 H 0.66484 0.83425 0.34786 0.0
O651 O 0.68166 0.82156 0.3112 0.0
H652 H 0.69905 0.80321 0.35131 0.0
H653 H 0.67299 0.82792 0.369 0.0
C654 C 0.65642 0.82518 0.31753 0.0
C655 C 0.6535 0.81699 0.30741 0.0
C656 C 0.64098 0.81459 0.3036 0.0
C657 C 0.63104 0.82026 0.30988 0.0
C658 C 0.63398 0.82834 0.32016 0.0
C659 C 0.64658 0.8308 0.32394 0.0
C660 C 0.67706 0.84463 0.32182 0.0
C661 C 0.68905 0.84821 0.32656 0.0
C662 C 0.69326 0.86053 0.32549 0.0
C663 C 0.68556 0.86959 0.31962 0.0
C664 C 0.67343 0.86598 0.31499 0.0
C665 C 0.66927 0.85358 0.31599 0.0
C666 C 0.6771 0.8222 0.33748 0.0
C667 C 0.68668 0.81335 0.33866 0.0
C668 C 0.69147 0.80989 0.35069 0.0
C669 C 0.68672 0.81515 0.36178 0.0
C670 C 0.67676 0.82365 0.36061 0.0
C671 C 0.67206 0.82722 0.34854 0.0
P672 P 0.67999 0.18137 0.32549 0.0
H673 H 0.70573 0.18485 0.33527 0.0
H674 H 0.71491 0.189 0.3565 0.0
H675 H 0.67777 0.18711 0.37216 0.0
H676 H 0.66863 0.18315 0.35078 0.0
H677 H 0.67201 0.16854 0.3021 0.0
H678 H 0.67572 0.14754 0.29396 0.0
H679 H 0.69492 0.13814 0.32956 0.0
H680 H 0.69095 0.15898 0.33767 0.0
H681 H 0.66962 0.20539 0.31789 0.0
H682 H 0.65526 0.16965 0.32982 0.0
O683 O 0.68872 0.18971 0.31557 0.0
H684 H 0.64818 0.21288 0.31461 0.0
H685 H 0.63365 0.1772 0.32702 0.0
C686 C 0.68648 0.18393 0.3414 0.0
C687 C 0.69955 0.18535 0.34327 0.0
C688 C 0.70481 0.18761 0.35545 0.0
C689 C 0.69709 0.18844 0.36607 0.0
C690 C 0.68398 0.18673 0.36418 0.0
C691 C 0.67873 0.18442 0.35196 0.0
C692 C 0.68113 0.16532 0.3205 0.0
C693 C 0.67682 0.16187 0.30822 0.0
C694 C 0.67906 0.1499 0.30354 0.0
C695 C 0.68568 0.14114 0.31107 0.0
C696 C 0.68965 0.14457 0.32354 0.0
C697 C 0.68742 0.15654 0.32819 0.0
C698 C 0.66402 0.18689 0.32384 0.0
C699 C 0.66182 0.19916 0.31987 0.0
C700 C 0.64951 0.20348 0.31813 0.0
C701 C 0.6391 0.19565 0.32049 0.0
C702 C 0.6414 0.18343 0.32487 0.0
C703 C 0.65375 0.1791 0.32653 0.0
P704 P 0.35167 0.14813 0.36213 0.0
H705 H 0.35434 0.12598 0.34668 0.0
H706 H 0.33922 0.11105 0.33721 0.0
H707 H 0.30855 0.13328 0.35042 0.0
H708 H 0.32379 0.14808 0.36004 0.0
H709 H 0.37671 0.1591 0.36521 0.0
H710 H 0.39101 0.16906 0.35045 0.0
H711 H 0.36296 0.16457 0.31994 0.0
H712 H 0.34876 0.15442 0.33481 0.0
H713 H 0.34048 0.14549 0.38689 0.0
H714 H 0.34707 0.17517 0.36012 0.0
O715 O 0.36078 0.13898 0.3713 0.0
H716 H 0.33214 0.16045 0.4019 0.0
H717 H 0.33858 0.19022 0.37504 0.0
C718 C 0.34021 0.13808 0.35412 0.0
C719 C 0.34436 0.12769 0.34744 0.0
C720 C 0.33568 0.11919 0.34197 0.0
C721 C 0.32264 0.12092 0.34308 0.0
C722 C 0.31851 0.13156 0.34954 0.0
C723 C 0.32723 0.14008 0.355 0.0
C724 C 0.3618 0.15581 0.35105 0.0
C725 C 0.37365 0.16024 0.35534 0.0
C726 C 0.38178 0.16603 0.34689 0.0
C727 C 0.37816 0.16759 0.33398 0.0
C728 C 0.36612 0.16335 0.32977 0.0
C729 C 0.35797 0.15757 0.33826 0.0
C730 C 0.34457 0.15924 0.3725 0.0
C731 C 0.34004 0.15523 0.38421 0.0
C732 C 0.3352 0.1638 0.39275 0.0
C733 C 0.33475 0.17656 0.38971 0.0
C734 C 0.33898 0.18049 0.37776 0.0
C735 C 0.34379 0.17188 0.3692 0.0
P736 P 0.34413 0.85947 0.3631 0.0
H737 H 0.37052 0.8624 0.35677 0.0
H738 H 0.38538 0.8488 0.34639 0.0
H739 H 0.35584 0.82113 0.34043 0.0
H740 H 0.34099 0.83486 0.35086 0.0
H741 H 0.3459 0.88639 0.35885 0.0
H742 H 0.33564 0.90032 0.34351 0.0
H743 H 0.31561 0.86888 0.32639 0.0
H744 H 0.3258 0.85498 0.34206 0.0
H745 H 0.34636 0.83638 0.37765 0.0
H746 H 0.31781 0.86381 0.36973 0.0
O747 O 0.35265 0.86809 0.37354 0.0
H748 H 0.33223 0.82544 0.39186 0.0
H749 H 0.30354 0.85285 0.38394 0.0
C750 C 0.35475 0.84949 0.35489 0.0
C751 C 0.36724 0.8534 0.35324 0.0
C752 C 0.3757 0.84565 0.34721 0.0
C753 C 0.37182 0.83383 0.34267 0.0
C754 C 0.35917 0.83009 0.34401 0.0
C755 C 0.35067 0.83793 0.34995 0.0
C756 C 0.33651 0.86966 0.35167 0.0
C757 C 0.33929 0.88247 0.35182 0.0
C758 C 0.33348 0.89043 0.34294 0.0
C759 C 0.3248 0.88574 0.33367 0.0
C760 C 0.32214 0.87284 0.33349 0.0
C761 C 0.32798 0.86487 0.34239 0.0
C762 C 0.33301 0.85067 0.37227 0.0
C763 C 0.33693 0.83988 0.37872 0.0
C764 C 0.32883 0.83364 0.38688 0.0
C765 C 0.3167 0.8382 0.38897 0.0
C766 C 0.31282 0.8491 0.38256 0.0
C767 C 0.32093 0.8553 0.37432 0.0
P768 P 0.67528 0.68928 0.18215 0.0
H769 H 0.66903 0.69412 0.20845 0.0
H770 H 0.64916 0.69633 0.21919 0.0
H771 H 0.62875 0.68888 0.18362 0.0
H772 H 0.64879 0.68623 0.17304 0.0
H773 H 0.70072 0.67949 0.18475 0.0
H774 H 0.70899 0.6584 0.18667 0.0
H775 H 0.67106 0.64337 0.18361 0.0
H776 H 0.66283 0.66457 0.18171 0.0
H777 H 0.66038 0.70841 0.16879 0.0
H778 H 0.68976 0.68273 0.15987 0.0
O779 O 0.68551 0.69866 0.18999 0.0
H780 H 0.66141 0.71737 0.14749 0.0
H781 H 0.69142 0.69208 0.1389 0.0
C782 C 0.66038 0.6904 0.18987 0.0
C783 C 0.66028 0.69299 0.20295 0.0
C784 C 0.64889 0.69431 0.20908 0.0
C785 C 0.63731 0.69303 0.20225 0.0
C786 C 0.63746 0.68993 0.1892 0.0
C787 C 0.64891 0.68854 0.18309 0.0
C788 C 0.68115 0.67361 0.18333 0.0
C789 C 0.69417 0.67166 0.18452 0.0
C790 C 0.6989 0.65959 0.1855 0.0
C791 C 0.69068 0.64921 0.18533 0.0
C792 C 0.67762 0.65119 0.18394 0.0
C793 C 0.6729 0.6633 0.18284 0.0
C794 C 0.67469 0.6946 0.16583 0.0
C795 C 0.66689 0.70452 0.16217 0.0
C796 C 0.66765 0.70979 0.15001 0.0
C797 C 0.67652 0.7055 0.14138 0.0
C798 C 0.68427 0.69548 0.1451 0.0
C799 C 0.68336 0.69012 0.15719 0.0
P800 P 0.34978 0.65462 0.15398 0.0
H801 H 0.3764 0.65084 0.15982 0.0
H802 H 0.39253 0.66308 0.17137 0.0
H803 H 0.36483 0.69087 0.17974 0.0
H804 H 0.34869 0.67855 0.16788 0.0
H805 H 0.34036 0.62934 0.14947 0.0
H806 H 0.33223 0.61317 0.16346 0.0
H807 H 0.33554 0.63862 0.19536 0.0
H808 H 0.34347 0.65487 0.18118 0.0
H809 H 0.35185 0.6783 0.14057 0.0
H810 H 0.32276 0.651 0.1476 0.0
O811 O 0.35738 0.64684 0.14287 0.0
H812 H 0.33747 0.68945 0.12614 0.0
H813 H 0.30823 0.66217 0.1332 0.0
C814 C 0.36142 0.6639 0.16277 0.0
C815 C 0.37379 0.65959 0.16407 0.0
C816 C 0.383 0.66657 0.17079 0.0
C817 C 0.38 0.67799 0.1765 0.0
C818 C 0.3675 0.68222 0.17531 0.0
C819 C 0.35826 0.67517 0.16857 0.0
C820 C 0.34275 0.64323 0.16433 0.0
C821 C 0.33931 0.63146 0.15947 0.0
C822 C 0.33472 0.62219 0.16751 0.0
C823 C 0.33342 0.62451 0.1806 0.0
C824 C 0.33641 0.63651 0.18534 0.0
C825 C 0.34101 0.6458 0.17725 0.0
C826 C 0.33831 0.664 0.14546 0.0
C827 C 0.34225 0.6749 0.13931 0.0
C828 C 0.33399 0.68126 0.13101 0.0
C829 C 0.32166 0.67673 0.12852 0.0
C830 C 0.31768 0.66587 0.13484 0.0
C831 C 0.32595 0.65955 0.1432 0.0
P832 P 0.35547 0.35614 0.16705 0.0
H833 H 0.35715 0.36947 0.19134 0.0
H834 H 0.34243 0.38298 0.20206 0.0
H835 H 0.31357 0.3738 0.17349 0.0
H836 H 0.32835 0.3604 0.1628 0.0
H837 H 0.38221 0.35289 0.16334 0.0
H838 H 0.3988 0.34215 0.17533 0.0
H839 H 0.37189 0.33074 0.20324 0.0
H840 H 0.35528 0.34191 0.19121 0.0
H841 H 0.34501 0.35989 0.14137 0.0
H842 H 0.35018 0.32904 0.16726 0.0
O843 O 0.36256 0.36753 0.15903 0.0
H844 H 0.33607 0.34577 0.12517 0.0
H845 H 0.34157 0.31472 0.15093 0.0
C846 C 0.3438 0.36367 0.17643 0.0
C847 C 0.34755 0.37008 0.18759 0.0
C848 C 0.33911 0.37784 0.19369 0.0
C849 C 0.32681 0.37952 0.18862 0.0
C850 C 0.323 0.37283 0.17759 0.0
C851 C 0.33143 0.36503 0.17154 0.0
C852 C 0.36756 0.34839 0.1765 0.0
C853 C 0.37987 0.3482 0.17211 0.0
C854 C 0.38935 0.34192 0.17893 0.0
C855 C 0.3867 0.3355 0.19025 0.0
C856 C 0.3743 0.3357 0.19465 0.0
C857 C 0.36479 0.34205 0.18778 0.0
C858 C 0.34848 0.3455 0.15544 0.0
C859 C 0.34431 0.35004 0.14354 0.0
C860 C 0.33926 0.34192 0.13424 0.0
C861 C 0.33826 0.32904 0.13664 0.0
C862 C 0.34215 0.32457 0.14875 0.0
C863 C 0.34716 0.33274 0.15808 0.0
P864 P 0.65307 0.35811 0.15653 0.0
H865 H 0.64248 0.37685 0.17278 0.0
H866 H 0.65182 0.3929 0.18677 0.0
H867 H 0.68899 0.3796 0.17867 0.0
H868 H 0.67952 0.36338 0.16484 0.0
H869 H 0.66475 0.36642 0.13323 0.0
H870 H 0.67792 0.35593 0.11794 0.0
H871 H 0.6791 0.32336 0.14215 0.0
H872 H 0.6661 0.33402 0.15752 0.0
H873 H 0.65042 0.35058 0.18347 0.0
H874 H 0.63519 0.33974 0.14646 0.0
O875 O 0.64319 0.36624 0.14715 0.0
H876 H 0.63662 0.33529 0.19354 0.0
H877 H 0.62131 0.32454 0.15642 0.0
C878 C 0.6603 0.36902 0.16768 0.0
C879 C 0.65264 0.37734 0.1741 0.0
C880 C 0.658 0.38656 0.18203 0.0
C881 C 0.67117 0.38764 0.18373 0.0
C882 C 0.67882 0.37898 0.17763 0.0
C883 C 0.67342 0.36974 0.16966 0.0
C884 C 0.66423 0.35089 0.14634 0.0
C885 C 0.66795 0.35706 0.1353 0.0
C886 C 0.67543 0.35103 0.12654 0.0
C887 C 0.67939 0.33872 0.12871 0.0
C888 C 0.67623 0.33283 0.14018 0.0
C889 C 0.66873 0.33889 0.14895 0.0
C890 C 0.6437 0.34638 0.16422 0.0
C891 C 0.64412 0.34491 0.1775 0.0
C892 C 0.6362 0.33618 0.18325 0.0
C893 C 0.62781 0.32872 0.17579 0.0
C894 C 0.62773 0.33002 0.16245 0.0
C895 C 0.6356 0.33877 0.15674 0.0
P896 P 0.68677 0.34084 0.82907 0.0
H897 H 0.67536 0.33906 0.80369 0.0
H898 H 0.65411 0.33386 0.7956 0.0
H899 H 0.64167 0.33046 0.83428 0.0
H900 H 0.663 0.3359 0.84229 0.0
H901 H 0.7093 0.35299 0.81948 0.0
H902 H 0.71461 0.3746 0.81475 0.0
H903 H 0.67853 0.38605 0.82842 0.0
H904 H 0.67312 0.36419 0.83272 0.0
H905 H 0.68673 0.31664 0.84144 0.0
H906 H 0.69391 0.35481 0.8526 0.0
O907 O 0.69604 0.33216 0.82017 0.0
H908 H 0.69351 0.30963 0.86268 0.0
H909 H 0.70038 0.34794 0.874 0.0
C910 C 0.6708 0.33764 0.82357 0.0
C911 C 0.66805 0.33721 0.81043 0.0
C912 C 0.6559 0.33417 0.80582 0.0
C913 C 0.6462 0.33157 0.81429 0.0
C914 C 0.64891 0.33244 0.8275 0.0
C915 C 0.66112 0.33547 0.8321 0.0
C916 C 0.69074 0.35697 0.82626 0.0
C917 C 0.70251 0.36014 0.82144 0.0
C918 C 0.70558 0.37256 0.81885 0.0
C919 C 0.69701 0.38214 0.82118 0.0
C920 C 0.68529 0.37892 0.8263 0.0
C921 C 0.6822 0.36644 0.82883 0.0
C922 C 0.68987 0.33622 0.8454 0.0
C923 C 0.68955 0.32353 0.84855 0.0
C924 C 0.69338 0.31955 0.86075 0.0
C925 C 0.69759 0.3282 0.87009 0.0
C926 C 0.69742 0.34098 0.867 0.0
C927 C 0.69362 0.34495 0.85477 0.0
P928 P 0.69696 0.67818 0.83003 0.0
H929 H 0.72024 0.68867 0.84158 0.0
H930 H 0.72617 0.69502 0.86329 0.0
H931 H 0.69042 0.68103 0.87624 0.0
H932 H 0.68443 0.675 0.85433 0.0
H933 H 0.69032 0.66411 0.807 0.0
H934 H 0.69543 0.64305 0.79997 0.0
H935 H 0.71289 0.63568 0.83693 0.0
H936 H 0.70764 0.65664 0.8439 0.0
H937 H 0.688 0.70332 0.82637 0.0
H938 H 0.67154 0.66646 0.82806 0.0
O939 O 0.70652 0.68602 0.82048 0.0
H940 H 0.66712 0.71221 0.823 0.0
H941 H 0.65045 0.67532 0.8248 0.0
C942 C 0.7018 0.68157 0.84631 0.0
C943 C 0.71369 0.68692 0.84909 0.0
C944 C 0.71712 0.69046 0.86156 0.0
C945 C 0.70875 0.68864 0.87155 0.0
C946 C 0.69701 0.68279 0.86876 0.0
C947 C 0.69359 0.67928 0.85626 0.0
C948 C 0.69845 0.66192 0.82601 0.0
C949 C 0.69499 0.65785 0.81367 0.0
C950 C 0.69803 0.64584 0.80963 0.0
C951 C 0.70464 0.63768 0.81786 0.0
C952 C 0.70766 0.64165 0.83039 0.0
C953 C 0.70466 0.65368 0.8344 0.0
C954 C 0.68134 0.68423 0.82721 0.0
C955 C 0.67986 0.69713 0.82595 0.0
C956 C 0.66789 0.70221 0.82415 0.0
C957 C 0.65707 0.69449 0.82364 0.0
C958 C 0.65858 0.68151 0.82499 0.0
C959 C 0.67063 0.67643 0.82685 0.0
P960 P 0.36134 0.65551 0.84894 0.0
H961 H 0.36377 0.64806 0.82223 0.0
H962 H 0.35121 0.63415 0.8084 0.0
H963 H 0.32342 0.63074 0.83741 0.0
H964 H 0.33608 0.64475 0.85126 0.0
H965 H 0.38879 0.65579 0.85191 0.0
H966 H 0.40535 0.66707 0.84105 0.0
H967 H 0.37717 0.68609 0.81792 0.0
H968 H 0.36052 0.67456 0.82884 0.0
H969 H 0.3668 0.66158 0.87552 0.0
H970 H 0.33947 0.67218 0.84636 0.0
O971 O 0.36819 0.64417 0.85745 0.0
H972 H 0.35699 0.6753 0.89069 0.0
H973 H 0.32964 0.68625 0.8615 0.0
C974 C 0.3507 0.64775 0.83767 0.0
C975 C 0.35477 0.64471 0.82548 0.0
C976 C 0.34758 0.63669 0.81756 0.0
C977 C 0.33631 0.63133 0.82179 0.0
C978 C 0.33209 0.63467 0.83389 0.0
C979 C 0.33925 0.64278 0.84177 0.0
C980 C 0.37343 0.66423 0.84107 0.0
C981 C 0.38613 0.66236 0.84451 0.0
C982 C 0.39561 0.66889 0.83833 0.0
C983 C 0.39259 0.67748 0.82861 0.0
C984 C 0.37981 0.67943 0.82527 0.0
C985 C 0.3703 0.67291 0.83153 0.0
C986 C 0.35368 0.66565 0.8599 0.0
C987 C 0.35863 0.66685 0.87239 0.0
C988 C 0.35307 0.67483 0.88104 0.0
C989 C 0.34251 0.68192 0.87735 0.0
C990 C 0.33766 0.6808 0.86472 0.0
C991 C 0.34327 0.67279 0.85604 0.0
P992 P 0.36134 0.36162 0.86298 0.0
H993 H 0.38287 0.36744 0.84746 0.0
H994 H 0.39758 0.35435 0.83617 0.0
H995 H 0.37498 0.32182 0.84473 0.0
H996 H 0.36037 0.33494 0.85603 0.0
H997 H 0.34441 0.37998 0.87254 0.0
H998 H 0.33098 0.39558 0.86243 0.0
H999 H 0.34407 0.38461 0.82551 0.0
H1000 H 0.35712 0.36856 0.83578 0.0
H1001 H 0.3665 0.34768 0.8864 0.0
H1002 H 0.33459 0.35412 0.86085 0.0
O1003 O 0.37143 0.36937 0.8727 0.0
H1004 H 0.35299 0.33574 0.90055 0.0
H1005 H 0.32101 0.34229 0.87501 0.0
C1006 C 0.37059 0.35218 0.85267 0.0
C1007 C 0.38097 0.35752 0.8467 0.0
C1008 C 0.38936 0.35002 0.84023 0.0
C1009 C 0.38753 0.33701 0.83966 0.0
C1010 C 0.37677 0.33178 0.84517 0.0
C1011 C 0.36836 0.3393 0.85159 0.0
C1012 C 0.35175 0.37312 0.85493 0.0
C1013 C 0.34437 0.38093 0.86226 0.0
C1014 C 0.33677 0.38993 0.85645 0.0
C1015 C 0.33649 0.39149 0.84313 0.0
C1016 C 0.34394 0.38362 0.83577 0.0
C1017 C 0.35149 0.37448 0.84164 0.0
C1018 C 0.35148 0.35206 0.87278 0.0
C1019 C 0.35659 0.3465 0.88383 0.0
C1020 C 0.34888 0.33962 0.89186 0.0
C1021 C 0.33592 0.3382 0.88894 0.0
C1022 C 0.33092 0.34341 0.8776 0.0
C1023 C 0.33868 0.35018 0.86951 0.0
Cu1024 Cu 0.25662 0.26253 0.01704 0.0
N1025 N 0.25746 0.27655 0.00657 0.0
N1026 N 0.26328 0.28831 0.99014 0.0
C1027 C 0.26169 0.27661 0.99462 0.0
C1028 C 0.25989 0.2959 0.99967 0.0
C1029 C 0.25645 0.28862 0.00984 0.0
O1030 O 0.25489 0.24813 0.00575 0.0
C1031 C 0.27369 0.25767 0.03837 0.0
O1032 O 0.26565 0.24897 0.04168 0.0
H1033 H 0.26413 0.26824 0.98955 0.0
H1034 H 0.25427 0.29194 0.01922 0.0
N1035 N 0.24263 0.26308 0.02752 0.0
N1036 N 0.22938 0.25747 0.0427 0.0
C1037 C 0.23855 0.25375 0.035 0.0
C1038 C 0.23548 0.27293 0.0303 0.0
C1039 C 0.22736 0.26953 0.03971 0.0
C1040 C 0.24433 0.24728 0.99964 0.0
O1041 O 0.23568 0.25559 1.00189 0.0
H1042 H 0.2427 0.24459 0.03526 0.0
H1043 H 0.23631 0.28208 0.02611 0.0
O1044 O 0.27194 0.26336 0.02782 0.0
H1045 H 0.26072 0.30597 0.99963 0.0
H1046 H 0.22074 0.27556 0.04425 0.0
Cu1047 Cu 0.76327 0.2594 0.00387 0.0
N1048 N 0.74828 0.26165 0.01389 0.0
N1049 N 0.73532 0.26848 0.02867 0.0
C1050 C 0.74702 0.26928 0.02395 0.0
C1051 C 0.72906 0.26002 0.0212 0.0
C1052 C 0.73708 0.25583 0.0121 0.0
O1053 O 0.77187 0.25063 0.019 0.0
C1054 C 0.75731 0.27849 0.9847 0.0
O1055 O 0.76648 0.28471 0.99065 0.0
H1056 H 0.75457 0.27517 0.02777 0.0
H1057 H 0.73491 0.24908 0.00467 0.0
N1058 N 0.77832 0.25725 0.99385 0.0
N1059 N 0.7913 0.25105 0.9788 0.0
C1060 C 0.77972 0.24973 0.98372 0.0
C1061 C 0.78929 0.26353 0.99544 0.0
C1062 C 0.79732 0.25971 0.9862 0.0
C1063 C 0.77866 0.25644 0.02733 0.0
O1064 O 0.78047 0.26851 0.02608 0.0
H1065 H 0.77231 0.24366 0.97988 0.0
H1066 H 0.79126 0.27047 0.00272 0.0
O1067 O 0.75434 0.26766 0.98863 0.0
H1068 H 0.71931 0.25719 0.02207 0.0
H1069 H 0.8069 0.26302 0.98511 0.0
Cu1070 Cu 0.74084 0.77569 0.00386 0.0
N1071 N 0.74189 0.79028 0.9942 0.0
N1072 N 0.74825 0.80344 0.97905 0.0
C1073 C 0.74814 0.79153 0.98329 0.0
C1074 C 0.74174 0.80989 0.98768 0.0
C1075 C 0.73788 0.80177 0.99701 0.0
O1076 O 0.74164 0.76166 0.99211 0.0
C1077 C 0.75216 0.78393 0.0263 0.0
O1078 O 0.74166 0.7903 0.02602 0.0
H1079 H 0.75266 0.78382 0.97872 0.0
H1080 H 0.73285 0.80417 0.00545 0.0
N1081 N 0.72552 0.77435 0.01216 0.0
N1082 N 0.71175 0.76805 0.02655 0.0
C1083 C 0.72311 0.76617 0.02153 0.0
C1084 C 0.71527 0.7816 0.01111 0.0
C1085 C 0.70677 0.77776 0.02004 0.0
C1086 C 0.73216 0.7607 0.98437 0.0
O1087 O 0.72319 0.76899 0.98503 0.0
H1088 H 0.72983 0.75934 0.02497 0.0
H1089 H 0.71416 0.78928 0.00452 0.0
O1090 O 0.75422 0.77651 0.01712 0.0
H1091 H 0.74028 0.81985 0.98759 0.0
H1092 H 0.6977 0.78187 0.02169 0.0
Cu1093 Cu 0.26009 0.75751 0.00288 0.0
N1094 N 0.25766 0.77265 0.01125 0.0
N1095 N 0.24973 0.78596 0.02523 0.0
C1096 C 0.25048 0.77396 0.0215 0.0
C1097 C 0.2567 0.79249 0.01692 0.0
C1098 C 0.26159 0.78424 0.00831 0.0
O1099 O 0.26106 0.74464 0.01602 0.0
C1100 C 0.24743 0.76281 0.98044 0.0
O1101 O 0.25721 0.7704 0.9799 0.0
H1102 H 0.2456 0.76624 0.02589 0.0
H1103 H 0.26741 0.78655 1.00036 0.0
N1104 N 0.27518 0.75712 0.99412 0.0
N1105 N 0.28874 0.75148 0.97932 0.0
C1106 C 0.27728 0.74949 0.98424 0.0
C1107 C 0.28569 0.76417 0.99562 0.0
C1108 C 0.29409 0.76069 0.98651 0.0
C1109 C 0.2692 0.74703 0.02493 0.0
O1110 O 0.27595 0.75734 0.02422 0.0
H1111 H 0.27046 0.74263 0.98075 0.0
H1112 H 0.28708 0.77142 0.00271 0.0
O1113 O 0.24636 0.75576 0.99014 0.0
H1114 H 0.25814 0.80249 0.01702 0.0
H1115 H 0.30329 0.76485 0.98513 0.0
Cu1116 Cu 0.00636 0.26253 0.26189 0.0
N1117 N 0.01657 0.26332 0.24781 0.0
N1118 N 0.03216 0.25783 0.23524 0.0
C1119 C 0.02795 0.258 0.24723 0.0
C1120 C 0.02307 0.26332 0.22798 0.0
C1121 C 0.01345 0.26673 0.23578 0.0
O1122 O 0.01791 0.25993 0.2764 0.0
C1123 C 0.98636 0.24414 0.26533 0.0
O1124 O 0.98601 0.2475 0.27735 0.0
H1125 H 0.03261 0.2535 0.25529 0.0
H1126 H 0.00452 0.27072 0.23281 0.0
N1127 N 0.99752 0.27735 0.26372 0.0
N1128 N 0.98291 0.29067 0.27013 0.0
C1129 C 0.98616 0.27859 0.26892 0.0
C1130 C 1.00159 0.28902 0.26141 0.0
C1131 C 0.99262 0.29726 0.26533 0.0
C1132 C 0.01808 0.26648 0.28653 0.0
O1133 O 0.00865 0.27394 0.28862 0.0
H1134 H 0.98054 0.27076 0.27198 0.0
H1135 H 0.01066 0.29137 0.25758 0.0
O1136 O 0.99451 0.24903 0.25817 0.0
H1137 H 0.02317 0.26439 0.21772 0.0
H1138 H 0.99347 0.30731 0.26515 0.0
Cu1139 Cu 0.75774 0.01006 0.26286 0.0
N1140 N 0.77248 0.01973 0.2635 0.0
N1141 N 0.78597 0.03485 0.25811 0.0
C1142 C 0.77404 0.03041 0.25698 0.0
C1143 C 0.79217 0.02662 0.26569 0.0
C1144 C 0.78381 0.0173 0.26901 0.0
O1145 O 0.74373 0.02178 0.26222 0.0
C1146 C 0.76689 0.98997 0.25023 0.0
O1147 O 0.77358 0.9899 0.26098 0.0
H1148 H 0.76667 0.03451 0.25103 0.0
H1149 H 0.78595 0.00915 0.2747 0.0
N1150 N 0.75607 1.00004 0.27736 0.0
N1151 N 0.74876 0.98462 0.28958 0.0
C1152 C 0.7481 0.99023 0.27805 0.0
C1153 C 0.76208 1.0007 0.28882 0.0
C1154 C 0.75758 0.99123 0.29639 0.0
C1155 C 0.74182 0.02726 0.27277 0.0
O1156 O 0.74901 0.02453 0.28276 0.0
H1157 H 0.7421 0.98723 0.27008 0.0
H1158 H 0.76914 0.00764 0.29153 0.0
O1159 O 0.75884 0.99859 0.24842 0.0
H1160 H 0.80207 0.02719 0.26848 0.0
H1161 H 0.76052 0.98951 0.30619 0.0
Cu1162 Cu 0.99822 0.76217 0.26176 0.0
N1163 N 0.99024 0.77765 0.26099 0.0
N1164 N 0.9762 0.79209 0.25488 0.0
C1165 C 0.97995 0.78016 0.25363 0.0
C1166 C 0.98456 0.79727 0.26338 0.0
C1167 C 0.9932 0.78836 0.26712 0.0
O1168 O 0.98501 0.74944 0.26324 0.0
C1169 C 0.01812 0.76896 0.2476 0.0
O1170 O 0.01916 0.77642 0.25753 0.0
H1171 H 0.97545 0.77334 0.24734 0.0
H1172 H 1.0011 0.78963 0.27377 0.0
N1173 N 0.009 0.76045 0.27615 0.0
N1174 N 0.02497 0.75311 0.28833 0.0
C1175 C 0.01883 0.75263 0.27685 0.0
C1176 C 0.00883 0.76608 0.2876 0.0
C1177 C 0.01869 0.7616 0.29512 0.0
C1178 C 0.97786 0.75146 0.27255 0.0
O1179 O 0.98003 0.7615 0.27951 0.0
H1180 H 0.0215 0.74683 0.26897 0.0
H1181 H 1.00198 0.77287 0.29034 0.0
O1182 O 0.00887 0.76125 0.24695 0.0
H1183 H 0.98444 0.80679 0.26679 0.0
H1184 H 0.02091 0.76426 0.30489 0.0
Cu1185 Cu 0.23307 0.99662 0.26756 0.0
N1186 N 0.2347 0.00581 0.28265 0.0
N1187 N 0.2425 0.02052 0.29595 0.0
C1188 C 0.24189 0.01618 0.28386 0.0
C1189 C 0.23528 0.01254 0.30261 0.0
C1190 C 0.23052 0.00344 0.29439 0.0
O1191 O 0.23197 0.00889 0.25383 0.0
C1192 C 0.24649 0.97632 0.27525 0.0
O1193 O 0.23664 0.97571 0.2825 0.0
H1194 H 0.24674 0.02032 0.27596 0.0
H1195 H 0.2248 0.99545 0.29689 0.0
N1196 N 0.21846 0.9866 0.26652 0.0
N1197 N 0.20543 0.97132 0.25959 0.0
C1198 C 0.21663 0.97717 0.25817 0.0
C1199 C 0.20806 0.98677 0.27351 0.0
C1200 C 0.19997 0.97737 0.26923 0.0
C1201 C 0.2218 0.01511 0.25376 0.0
O1202 O 0.21344 0.01248 0.26235 0.0
H1203 H 0.22341 0.97474 0.25113 0.0
H1204 H 0.20645 0.99325 0.28117 0.0
O1205 O 0.24735 0.98533 0.26738 0.0
H1206 H 0.23393 0.01292 0.31278 0.0
H1207 H 0.19089 0.97507 0.27305 0.0
Cu1208 Cu 1.0009 0.75875 0.76622 0.0
N1209 N 0.00994 0.74401 0.76522 0.0
N1210 N 0.02484 0.73124 0.7585 0.0
C1211 C 0.02068 0.74307 0.75887 0.0
C1212 C 0.01635 0.72446 0.76498 0.0
C1213 C 0.0071 0.73237 0.76904 0.0
O1214 O 0.01341 0.77221 0.76724 0.0
C1215 C 0.97938 0.75239 0.75232 0.0
O1216 O 0.97773 0.74602 0.76283 0.0
H1217 H 0.02525 0.75096 0.75445 0.0
H1218 H 0.99872 0.72974 0.77403 0.0
N1219 N 0.9913 0.75981 0.78083 0.0
N1220 N 0.97714 0.7674 0.79402 0.0
C1221 C 0.98299 0.76891 0.78288 0.0
C1222 C 0.99077 0.75226 0.79104 0.0
C1223 C 0.982 0.75691 0.79919 0.0
C1224 C 0.02 0.77223 0.77761 0.0
O1225 O 0.01767 0.76364 0.78617 0.0
H1226 H 0.98111 0.77635 0.77614 0.0
H1227 H 0.99637 0.74401 0.7925 0.0
O1228 O 0.98931 0.7591 0.75141 0.0
H1229 H 0.01654 0.71445 0.76627 0.0
H1230 H 0.97953 0.75295 0.80828 0.0
Cu1231 Cu 0.26581 0.01193 0.77307 0.0
N1232 N 0.28001 0.02231 0.77495 0.0
N1233 N 0.29343 0.03782 0.7705 0.0
C1234 C 0.28241 0.03204 0.76728 0.0
C1235 C 0.29815 0.03143 0.78063 0.0
C1236 C 0.28981 0.02188 0.78339 0.0
O1237 O 0.2518 0.02338 0.77036 0.0
C1238 C 0.27844 0.99342 0.76139 0.0
O1239 O 0.2848 0.99486 0.77226 0.0
H1240 H 0.27629 0.03462 0.75929 0.0
H1241 H 0.2909 0.01504 0.7909 0.0
N1242 N 0.26325 1.00235 0.78768 0.0
N1243 N 0.25619 0.98659 0.79959 0.0
C1244 C 0.25784 0.99094 0.78766 0.0
C1245 C 0.2652 0.00537 0.80003 0.0
C1246 C 0.26089 0.99564 0.80741 0.0
C1247 C 0.2418 0.02294 0.77677 0.0
O1248 O 0.23946 0.01301 0.78365 0.0
H1249 H 0.255 0.98604 0.779 0.0
H1250 H 0.26911 0.01417 0.80342 0.0
O1251 O 0.26893 1.00034 0.75918 0.0
H1252 H 0.30695 0.03351 0.78573 0.0
H1253 H 0.26082 0.99547 0.81772 0.0
Cu1254 Cu 0.01762 0.27221 0.77589 0.0
N1255 N 0.0066 0.28567 0.77666 0.0
N1256 N 0.99054 0.29792 0.77071 0.0
C1257 C 0.99693 0.28742 0.76827 0.0
C1258 C 0.99645 0.30297 0.78111 0.0
C1259 C 0.00639 0.29541 0.78474 0.0
O1260 O 0.00695 0.25721 0.77504 0.0
C1261 C 0.0353 0.28531 0.76342 0.0
O1262 O 0.03382 0.29169 0.77395 0.0
H1263 H 0.99461 0.28102 0.76055 0.0
H1264 H 0.01308 0.29703 0.79256 0.0
N1265 N 0.02839 0.27069 0.79034 0.0
N1266 N 0.04504 0.26424 0.80211 0.0
C1267 C 0.03944 0.26465 0.79037 0.0
C1268 C 0.02694 0.27431 0.8025 0.0
C1269 C 0.03718 0.2703 0.80978 0.0
C1270 C 1.00027 0.25599 0.78487 0.0
O1271 O 1.00121 0.26459 0.79376 0.0
H1272 H 0.04311 0.26031 0.78197 0.0
H1273 H 0.01891 0.27927 0.8059 0.0
O1274 O 0.0286 0.27547 0.76163 0.0
H1275 H 0.99397 0.31164 0.78561 0.0
H1276 H 0.03872 0.27173 0.81993 0.0
Cu1277 Cu 0.74699 0.0105 0.75349 0.0
N1278 N 0.74932 0.01959 0.76858 0.0
N1279 N 0.75792 0.03413 0.78158 0.0
C1280 C 0.75672 0.02984 0.7695 0.0
C1281 C 0.75087 0.02625 0.78854 0.0
C1282 C 0.74563 0.01724 0.78049 0.0
O1283 O 0.74569 0.02289 0.7399 0.0
C1284 C 0.76018 0.98973 0.76038 0.0
O1285 O 0.75032 0.98886 0.76759 0.0
H1286 H 0.76129 0.03392 0.7614 0.0
H1287 H 0.73992 0.00932 0.78322 0.0
N1288 N 0.73214 1.00081 0.75282 0.0
N1289 N 0.71849 0.98598 0.74602 0.0
C1290 C 0.72972 0.99169 0.74425 0.0
C1291 C 0.72211 1.00095 0.76033 0.0
C1292 C 0.71367 0.99181 0.75616 0.0
C1293 C 0.7358 0.02947 0.74051 0.0
O1294 O 0.72789 0.02703 0.74958 0.0
H1295 H 0.73626 0.98915 0.73702 0.0
H1296 H 0.72098 0.00725 0.76824 0.0
O1297 O 0.76107 0.999 0.75283 0.0
H1298 H 0.74997 0.02665 0.79877 0.0
H1299 H 0.70463 0.98974 0.76021 0.0
Cu1300 Cu 0.25931 0.75069 0.50798 0.0
N1301 N 0.27381 0.7529 0.5184 0.0
N1302 N 0.28625 0.76062 0.53423 0.0
C1303 C 0.27451 0.76021 0.52884 0.0
C1304 C 0.29319 0.7532 0.52685 0.0
C1305 C 0.2855 0.74849 0.51708 0.0
O1306 O 0.24514 0.74948 0.51936 0.0
C1307 C 0.26736 0.76357 0.48736 0.0
O1308 O 0.27535 0.75433 0.4882 0.0
H1309 H 0.26651 0.76516 0.53235 0.0
H1310 H 0.28832 0.74251 0.50941 0.0
N1311 N 0.25941 0.73592 0.49839 0.0
N1312 N 0.25426 0.72254 0.48262 0.0
C1313 C 0.25208 0.73378 0.48788 0.0
C1314 C 0.26649 0.72567 0.4999 0.0
C1315 C 0.26335 0.71741 0.49018 0.0
C1316 C 0.24563 0.73996 0.52663 0.0
O1317 O 0.25518 0.73238 0.52568 0.0
H1318 H 0.24549 0.74052 0.48402 0.0
H1319 H 0.27343 0.72429 0.50752 0.0
O1320 O 0.25889 0.76434 0.49566 0.0
H1321 H 0.30319 0.75156 0.52818 0.0
H1322 H 0.26738 0.7083 0.48888 0.0
Cu1323 Cu 0.74584 0.75232 0.49721 0.0
N1324 N 0.7481 0.73641 0.4906 0.0
N1325 N 0.75545 0.72157 0.47798 0.0
C1326 C 0.75336 0.73387 0.47941 0.0
C1327 C 0.75124 0.71615 0.48869 0.0
C1328 C 0.74669 0.72535 0.49646 0.0
O1329 O 0.74526 0.76366 0.48279 0.0
C1330 C 0.77035 0.75151 0.5089 0.0
O1331 O 0.77368 0.74666 0.49804 0.0
H1332 H 0.75632 0.741 0.47282 0.0
H1333 H 0.74312 0.72414 0.50592 0.0
N1334 N 0.73073 0.75314 0.50569 0.0
N1335 N 0.71681 0.75919 0.51991 0.0
C1336 C 0.72889 0.75986 0.51628 0.0
C1337 C 0.71948 0.74795 0.50248 0.0
C1338 C 0.71085 0.75168 0.51123 0.0
C1339 C 0.73951 0.77399 0.48261 0.0
O1340 O 0.73495 0.77831 0.49321 0.0
H1341 H 0.73621 0.76548 0.52094 0.0
H1342 H 0.71766 0.74203 0.49426 0.0
O1343 O 0.7592 0.75554 0.50989 0.0
H1344 H 0.7517 0.70631 0.49089 0.0
H1345 H 0.70096 0.74908 0.51119 0.0
Cu1346 Cu 0.76719 0.25423 0.50968 0.0
N1347 N 0.76612 0.23963 0.49979 0.0
N1348 N 0.75949 0.22691 0.48395 0.0
C1349 C 0.75831 0.23818 0.48951 0.0
C1350 C 0.76844 0.22103 0.49106 0.0
C1351 C 0.77249 0.22888 0.50083 0.0
O1352 O 0.76855 0.26795 0.49751 0.0
C1353 C 0.75196 0.24421 0.52728 0.0
O1354 O 0.76071 0.23577 0.52611 0.0
H1355 H 0.75206 0.24541 0.48606 0.0
H1356 H 0.77952 0.22685 0.5082 0.0
N1357 N 0.78142 0.25505 0.5207 0.0
N1358 N 0.79385 0.26172 0.53705 0.0
C1359 C 0.78236 0.26235 0.53115 0.0
C1360 C 0.7927 0.24958 0.5199 0.0
C1361 C 0.80038 0.25366 0.52997 0.0
C1362 C 0.77732 0.26629 0.48967 0.0
O1363 O 0.78434 0.25634 0.49102 0.0
H1364 H 0.77483 0.2683 0.5341 0.0
H1365 H 0.79527 0.24328 0.5124 0.0
O1366 O 0.75263 0.2541 0.52058 0.0
H1367 H 0.77174 0.21168 0.48943 0.0
H1368 H 0.81003 0.25091 0.53187 0.0
Cu1369 Cu 0.27072 0.26621 0.51629 0.0
N1370 N 0.27011 0.2811 0.52555 0.0
N1371 N 0.26329 0.29441 0.54013 0.0
C1372 C 0.26199 0.28295 0.53491 0.0
C1373 C 0.27268 0.29999 0.53378 0.0
C1374 C 0.27686 0.29176 0.52476 0.0
O1375 O 0.27203 0.25288 0.52887 0.0
C1376 C 0.254 0.27533 0.49841 0.0
O1377 O 0.26202 0.28469 0.49986 0.0
H1378 H 0.25536 0.27588 0.53791 0.0
H1379 H 0.28417 0.29349 0.51802 0.0
N1380 N 0.28457 0.26519 0.50585 0.0
N1381 N 0.29628 0.25773 0.49028 0.0
C1382 C 0.28488 0.25762 0.49565 0.0
C1383 C 0.29617 0.27034 0.50704 0.0
C1384 C 0.30341 0.2658 0.4974 0.0
C1385 C 0.28074 0.25464 0.53735 0.0
O1386 O 0.28797 0.26462 0.53652 0.0
H1387 H 0.27688 0.252 0.49239 0.0
H1388 H 0.29929 0.27661 0.51461 0.0
O1389 O 0.25578 0.2655 0.50501 0.0
H1390 H 0.27614 0.30942 0.53536 0.0
H1391 H 0.31328 0.26789 0.49606 0.0
Cu1392 Cu 0.76621 0.52133 0.75972 0.0
N1393 N 0.76328 0.53496 0.74896 0.0
N1394 N 0.7672 0.55161 0.73679 0.0
C1395 C 0.77222 0.54214 0.74368 0.0
C1396 C 0.7546 0.55024 0.7377 0.0
C1397 C 0.75221 0.53994 0.74515 0.0
O1398 O 0.77842 0.52596 0.77312 0.0
C1399 C 0.77951 0.49924 0.75554 0.0
O1400 O 0.78125 0.49984 0.76798 0.0
H1401 H 0.78222 0.54063 0.74521 0.0
H1402 H 0.74305 0.53637 0.74762 0.0
N1403 N 0.75154 0.5154 0.76721 0.0
N1404 N 0.73837 0.50203 0.77652 0.0
C1405 C 0.74941 0.50348 0.77063 0.0
C1406 C 0.74151 0.52175 0.77113 0.0
C1407 C 0.73332 0.5135 0.77681 0.0
C1408 C 0.77717 0.53358 0.78229 0.0
O1409 O 0.78629 0.5346 0.791 0.0
H1410 H 0.75587 0.496 0.76887 0.0
H1411 H 0.74038 0.53172 0.77025 0.0
O1412 O 0.77325 0.50779 0.74989 0.0
H1413 H 0.74758 0.55617 0.7332 0.0
H1414 H 0.72455 0.51584 0.78117 0.0
Cu1415 Cu 0.25183 0.51236 0.76201 0.0
N1416 N 0.2513 0.5026 0.77664 0.0
N1417 N 0.25708 0.48773 0.79047 0.0
C1418 C 0.25767 0.49193 0.77838 0.0
C1419 C 0.25001 0.49609 0.79657 0.0
C1420 C 0.24645 0.50527 0.78799 0.0
O1421 O 0.25217 0.50066 0.74785 0.0
C1422 C 0.27131 0.53065 0.75653 0.0
O1423 O 0.26682 0.53101 0.74472 0.0
H1424 H 0.26325 0.48774 0.77109 0.0
H1425 H 0.24116 0.51355 0.79001 0.0
N1426 N 0.23755 0.52237 0.76043 0.0
N1427 N 0.22515 0.53804 0.75397 0.0
C1428 C 0.23706 0.53381 0.75518 0.0
C1429 C 0.22553 0.51926 0.7628 0.0
C1430 C 0.21786 0.52892 0.75886 0.0
C1431 C 0.24573 0.50198 0.7375 0.0
O1432 O 0.24017 0.51265 0.73516 0.0
H1433 H 0.24528 0.53882 0.75203 0.0
H1434 H 0.22253 0.5104 0.76665 0.0
O1435 O 0.26662 0.52301 0.76439 0.0
H1436 H 0.24785 0.49578 0.80657 0.0
H1437 H 0.20767 0.52896 0.75905 0.0
Cu1438 Cu 0.26119 0.49921 0.2668 0.0
N1439 N 0.25964 0.4903 0.28207 0.0
N1440 N 0.25328 0.47496 0.29493 0.0
C1441 C 0.25256 0.47987 0.28308 0.0
C1442 C 0.26108 0.48271 0.30168 0.0
C1443 C 0.26502 0.49215 0.29372 0.0
O1444 O 0.26173 0.48662 0.25336 0.0
C1445 C 0.24899 0.51972 0.2745 0.0
O1446 O 0.25844 0.51866 0.28282 0.0
H1447 H 0.24699 0.47599 0.27519 0.0
H1448 H 0.27143 0.49974 0.29623 0.0
N1449 N 0.27614 0.50859 0.26593 0.0
N1450 N 0.28926 0.52331 0.25873 0.0
C1451 C 0.27776 0.51785 0.25746 0.0
C1452 C 0.28702 0.50809 0.27286 0.0
C1453 C 0.29513 0.5172 0.26846 0.0
C1454 C 0.27034 0.47863 0.25561 0.0
O1455 O 0.27763 0.48008 0.26588 0.0
H1456 H 0.27047 0.52063 0.25063 0.0
H1457 H 0.28894 0.50157 0.28051 0.0
O1458 O 0.24762 0.51139 0.26586 0.0
H1459 H 0.26398 0.48152 0.31159 0.0
H1460 H 0.30465 0.51902 0.27202 0.0
Cu1461 Cu 0.75706 0.50627 0.24083 0.0
N1462 N 0.77128 0.49627 0.24021 0.0
N1463 N 0.78472 0.4814 0.24641 0.0
C1464 C 0.77347 0.48672 0.24824 0.0
C1465 C 0.78984 0.48791 0.2368 0.0
C1466 C 0.78149 0.49707 0.23296 0.0
O1467 O 0.74313 0.4947 0.24357 0.0
C1468 C 0.7693 0.52606 0.25187 0.0
O1469 O 0.77536 0.52449 0.24127 0.0
H1470 H 0.76706 0.48403 0.25561 0.0
H1471 H 0.7829 0.50397 0.22562 0.0
N1472 N 0.7541 0.51519 0.22574 0.0
N1473 N 0.74707 0.53066 0.21324 0.0
C1474 C 0.74783 0.52601 0.22518 0.0
C1475 C 0.7575 0.51288 0.21373 0.0
C1476 C 0.75321 0.52247 0.20598 0.0
C1477 C 0.73229 0.49549 0.2381 0.0
O1478 O 0.7293 0.5057 0.23186 0.0
H1479 H 0.74401 0.53044 0.23345 0.0
H1480 H 0.76269 0.50481 0.21082 0.0
O1481 O 0.76024 0.51858 0.25423 0.0
H1482 H 0.79896 0.48622 0.23286 0.0
H1483 H 0.75434 0.52325 0.1958 0.0
Cu1484 Cu 0.51543 0.25664 0.76743 0.0
N1485 N 0.50611 0.25848 0.78212 0.0
N1486 N 0.49085 0.26527 0.79448 0.0
C1487 C 0.49492 0.26421 0.78248 0.0
C1488 C 0.49981 0.25983 0.80196 0.0
C1489 C 0.50925 0.2557 0.7943 0.0
O1490 O 0.5034 0.25329 0.75336 0.0
C1491 C 0.52617 0.28093 0.77211 0.0
O1492 O 0.5166 0.28261 0.77952 0.0
H1493 H 0.49004 0.26782 0.77407 0.0
H1494 H 0.51797 0.2514 0.79744 0.0
N1495 N 0.52639 0.24315 0.76856 0.0
N1496 N 0.54232 0.23087 0.76331 0.0
C1497 C 0.53602 0.24149 0.76074 0.0
C1498 C 0.52655 0.23326 0.77645 0.0
C1499 C 0.53638 0.22567 0.77324 0.0
C1500 C 0.4974 0.24298 0.75437 0.0
O1501 O 0.49979 0.23597 0.7644 0.0
H1502 H 0.53837 0.24807 0.75335 0.0
H1503 H 0.51989 0.23159 0.78386 0.0
O1504 O 0.52647 0.27113 0.76526 0.0
H1505 H 0.49983 0.25938 0.81227 0.0
H1506 H 0.53877 0.2169 0.77773 0.0
Cu1507 Cu 0.51166 0.765 0.76977 0.0
N1508 N 0.5231 0.76353 0.78371 0.0
N1509 N 0.53981 0.7567 0.79516 0.0
C1510 C 0.53295 0.75572 0.78412 0.0
C1511 C 0.53397 0.76549 0.80198 0.0
C1512 C 0.52367 0.76966 0.7949 0.0
O1513 O 0.52155 0.76547 0.75447 0.0
C1514 C 0.49408 0.75056 0.78121 0.0
O1515 O 0.49681 0.75898 0.79 0.0
H1516 H 0.53517 0.74965 0.77629 0.0
H1517 H 0.51706 0.77664 0.79774 0.0
N1518 N 0.5023 0.77964 0.76988 0.0
N1519 N 0.48723 0.793 0.76378 0.0
C1520 C 0.49155 0.78124 0.76295 0.0
C1521 C 0.50495 0.79076 0.77532 0.0
C1522 C 0.49562 0.79901 0.77163 0.0
C1523 C 0.53094 0.77299 0.7551 0.0
O1524 O 0.53295 0.77959 0.76554 0.0
H1525 H 0.48712 0.77391 0.75725 0.0
H1526 H 0.51328 0.79286 0.78117 0.0
O1527 O 0.49967 0.75119 0.77066 0.0
H1528 H 0.53684 0.76861 0.81145 0.0
H1529 H 0.49535 0.80879 0.77412 0.0
Cu1530 Cu 0.49513 0.74699 0.26963 0.0
N1531 N 0.48464 0.74814 0.28361 0.0
N1532 N 0.46931 0.75546 0.2956 0.0
C1533 C 0.47514 0.75628 0.28437 0.0
C1534 C 0.4754 0.74641 0.30216 0.0
C1535 C 0.48488 0.74195 0.29477 0.0
O1536 O 0.48408 0.74438 0.25461 0.0
C1537 C 0.51173 0.76418 0.28 0.0
O1538 O 0.50945 0.75702 0.28984 0.0
H1539 H 0.47258 0.7627 0.27678 0.0
H1540 H 0.49167 0.73495 0.29753 0.0
N1541 N 0.50628 0.73359 0.27051 0.0
N1542 N 0.5228 0.72212 0.26521 0.0
C1543 C 0.5166 0.73293 0.26342 0.0
C1544 C 0.50589 0.72279 0.27703 0.0
C1545 C 0.51611 0.71572 0.27383 0.0
C1546 C 0.47787 0.73413 0.25488 0.0
O1547 O 0.47945 0.72685 0.26486 0.0
H1548 H 0.51945 0.74028 0.25702 0.0
H1549 H 0.49852 0.72002 0.28334 0.0
O1550 O 0.50592 0.76185 0.26941 0.0
H1551 H 0.47342 0.74348 0.31177 0.0
H1552 H 0.51822 0.70644 0.27726 0.0
Cu1553 Cu 0.50315 0.24321 0.25047 0.0
N1554 N 0.49226 0.22934 0.25048 0.0
N1555 N 0.47636 0.21705 0.2566 0.0
C1556 C 0.48232 0.22819 0.25805 0.0
C1557 C 0.48284 0.21097 0.24768 0.0
C1558 C 0.49264 0.21855 0.24395 0.0
O1559 O 0.49246 0.25791 0.24973 0.0
C1560 C 0.52087 0.23175 0.26562 0.0
O1561 O 0.51845 0.22341 0.25668 0.0
H1562 H 0.47957 0.23544 0.26453 0.0
H1563 H 0.49975 0.21619 0.23724 0.0
N1564 N 0.51337 0.24386 0.23628 0.0
N1565 N 0.52886 0.25082 0.22406 0.0
C1566 C 0.52352 0.25143 0.23556 0.0
C1567 C 0.5122 0.2382 0.22485 0.0
C1568 C 0.52177 0.24245 0.2173 0.0
C1569 C 0.48578 0.25857 0.23942 0.0
O1570 O 0.48671 0.24964 0.23095 0.0
H1571 H 0.52682 0.25735 0.24335 0.0
H1572 H 0.50469 0.23179 0.22201 0.0
O1573 O 0.51479 0.24194 0.26522 0.0
H1574 H 0.4809 0.20156 0.24437 0.0
H1575 H 0.52309 0.23991 0.20746 0.0
C1576 C 0.20004 0.21193 0.14386 0.0
C1577 C 0.19672 0.1992 0.14407 0.0
C1578 C 0.20348 0.2177 0.13256 0.0
C1579 C 0.20154 0.21411 0.09733 0.0
H1580 H 0.22722 0.24015 0.09884 0.0
C1581 C 0.22326 0.23756 0.05283 0.0
C1582 C 0.22445 0.25063 0.0533 0.0
C1583 C 0.21946 0.23086 0.06352 0.0
C1584 C 0.21997 0.23295 0.09828 0.0
H1585 H 0.19451 0.18256 0.13242 0.0
H1586 H 0.20098 0.19254 0.11274 0.0
H1587 H 0.22198 0.22899 0.11818 0.0
H1588 H 0.22247 0.26689 0.06531 0.0
H1589 H 0.21588 0.25521 0.08393 0.0
H1590 H 0.19979 0.21802 0.07729 0.0
C1591 C 0.20066 0.19812 0.12132 0.0
C1592 C 0.21692 0.22657 0.10938 0.0
C1593 C 0.19711 0.19235 0.13265 0.0
C1594 C 0.22152 0.25686 0.06459 0.0
C1595 C 0.21788 0.25016 0.0753 0.0
C1596 C 0.20471 0.22042 0.08618 0.0
C1597 C 0.20386 0.21089 0.12113 0.0
C1598 C 0.20754 0.21718 0.10911 0.0
C1599 C 0.21696 0.23709 0.07493 0.0
C1600 C 0.21384 0.23002 0.08659 0.0
H1601 H 0.20007 0.21748 0.15249 0.0
H1602 H 0.20568 0.22758 0.13278 0.0
H1603 H 0.19417 0.20704 0.09676 0.0
H1604 H 0.22538 0.23253 0.04423 0.0
H1605 H 0.21886 0.22078 0.06299 0.0
C1606 C 0.81892 0.19261 0.11727 0.0
C1607 C 0.82946 0.19788 0.12381 0.0
C1608 C 0.81292 0.19901 0.10719 0.0
C1609 C 0.80863 0.2303 0.09318 0.0
H1610 H 0.80106 0.2122 0.06181 0.0
C1611 C 0.79321 0.25562 0.04667 0.0
C1612 C 0.78427 0.24971 0.03846 0.0
C1613 C 0.79844 0.24931 0.05721 0.0
C1614 C 0.80291 0.21739 0.07054 0.0
H1615 H 0.8417 0.21418 0.12517 0.0
H1616 H 0.8312 0.22538 0.10764 0.0
H1617 H 0.81025 0.20128 0.08016 0.0
H1618 H 0.7737 0.23254 0.03502 0.0
H1619 H 0.78255 0.22165 0.05354 0.0
H1620 H 0.80116 0.24637 0.08367 0.0
C1621 C 0.82759 0.21628 0.11028 0.0
C1622 C 0.80822 0.21111 0.08107 0.0
C1623 C 0.83366 0.20983 0.12026 0.0
C1624 C 0.78064 0.23735 0.04109 0.0
C1625 C 0.78578 0.23107 0.05169 0.0
C1626 C 0.80321 0.23656 0.08269 0.0
C1627 C 0.81724 0.21089 0.10352 0.0
C1628 C 0.8112 0.2175 0.09249 0.0
C1629 C 0.79478 0.23695 0.05991 0.0
C1630 C 0.80034 0.23022 0.07119 0.0
H1631 H 0.81551 0.18338 0.11971 0.0
H1632 H 0.8049 0.19465 0.10225 0.0
H1633 H 0.81068 0.23546 0.10189 0.0
H1634 H 0.79627 0.26511 0.0449 0.0
H1635 H 0.80549 0.25409 0.06315 0.0
C1636 C 0.82631 0.82548 0.10815 0.0
C1637 C 0.81933 0.83063 0.118 0.0
C1638 C 0.82041 0.8181 0.09865 0.0
C1639 C 0.79091 0.8001 0.09092 0.0
H1640 H 0.79935 0.80649 0.05581 0.0
C1641 C 0.75667 0.79026 0.04879 0.0
C1642 C 0.76117 0.78575 0.03724 0.0
C1643 C 0.76496 0.79333 0.05891 0.0
C1644 C 0.79705 0.8044 0.06557 0.0
H1645 H 0.80068 0.83168 0.12574 0.0
H1646 H 0.79034 0.81906 0.10909 0.0
H1647 H 0.81156 0.81663 0.07308 0.0
H1648 H 0.77792 0.78058 0.02735 0.0
H1649 H 0.7926 0.78615 0.04514 0.0
H1650 H 0.77611 0.78823 0.08338 0.0
C1651 C 0.80043 0.8206 0.10876 0.0
C1652 C 0.80404 0.81023 0.07549 0.0
C1653 C 0.80633 0.82799 0.11824 0.0
C1654 C 0.77419 0.784 0.03616 0.0
C1655 C 0.78257 0.78726 0.0463 0.0
C1656 C 0.78391 0.79432 0.08102 0.0
C1657 C 0.80736 0.81564 0.09877 0.0
C1658 C 0.80085 0.8084 0.08829 0.0
C1659 C 0.77802 0.79209 0.05774 0.0
C1660 C 0.78669 0.79664 0.06822 0.0
H1661 H 0.83632 0.82742 0.10757 0.0
H1662 H 0.82606 0.81435 0.09118 0.0
H1663 H 0.78837 0.79824 0.10066 0.0
H1664 H 0.74667 0.79167 0.04995 0.0
H1665 H 0.76113 0.79715 0.0675 0.0
C1666 C 0.17095 0.81777 0.10044 0.0
C1667 C 0.17523 0.82338 0.11193 0.0
C1668 C 0.17949 0.81379 0.09147 0.0
C1669 C 0.21274 0.80518 0.0874 0.0
H1670 H 0.205 0.81222 0.05175 0.0
C1671 C 0.23982 0.78319 0.0461 0.0
C1672 C 0.24244 0.79073 0.03552 0.0
C1673 C 0.23225 0.78753 0.05579 0.0
C1674 C 0.20737 0.81027 0.06167 0.0
H1675 H 0.19194 0.82902 0.12302 0.0
H1676 H 0.20686 0.82195 0.1074 0.0
H1677 H 0.1906 0.81893 0.06797 0.0
H1678 H 0.23925 0.80885 0.02696 0.0
H1679 H 0.22613 0.81648 0.04391 0.0
H1680 H 0.22956 0.79658 0.08107 0.0
C1681 C 0.19686 0.82058 0.10538 0.0
C1682 C 0.19903 0.81399 0.07096 0.0
C1683 C 0.1883 0.82461 0.11436 0.0
C1684 C 0.23749 0.80282 0.03499 0.0
C1685 C 0.22986 0.80715 0.04465 0.0
C1686 C 0.22106 0.8014 0.07809 0.0
C1687 C 0.19255 0.81526 0.09376 0.0
C1688 C 0.20158 0.81144 0.08393 0.0
C1689 C 0.22706 0.79952 0.05512 0.0
C1690 C 0.21845 0.80387 0.0651 0.0
H1691 H 0.16097 0.81643 0.09835 0.0
H1692 H 0.17585 0.8095 0.08274 0.0
H1693 H 0.21495 0.80301 0.09729 0.0
H1694 H 0.24361 0.77389 0.0469 0.0
H1695 H 0.23022 0.78137 0.06365 0.0
C1696 C 0.20216 0.7943 0.88075 0.0
C1697 C 0.19142 0.80184 0.88027 0.0
C1698 C 0.20584 0.78818 0.89198 0.0
C1699 C 0.20249 0.78907 0.92699 0.0
H1700 H 0.21901 0.75711 0.92497 0.0
C1701 C 0.22541 0.765 0.97141 0.0
C1702 C 0.23823 0.76272 0.96963 0.0
C1703 C 0.21737 0.7677 0.9609 0.0
C1704 C 0.21433 0.76599 0.9257 0.0
H1705 H 0.17605 0.80877 0.89127 0.0
H1706 H 0.18241 0.79795 0.91093 0.0
H1707 H 0.20921 0.76614 0.90583 0.0
H1708 H 0.25261 0.76079 0.95564 0.0
H1709 H 0.23858 0.76501 0.93733 0.0
H1710 H 0.20783 0.78892 0.94688 0.0
C1711 C 0.18808 0.7969 0.90262 0.0
C1712 C 0.20879 0.77123 0.91471 0.0
C1713 C 0.18443 0.8031 0.89135 0.0
C1714 C 0.24272 0.76241 0.95721 0.0
C1715 C 0.23468 0.76482 0.94674 0.0
C1716 C 0.20793 0.78375 0.93802 0.0
C1717 C 0.19885 0.78935 0.90308 0.0
C1718 C 0.20317 0.78304 0.91511 0.0
C1719 C 0.22202 0.76787 0.94848 0.0
C1720 C 0.21424 0.77233 0.9374 0.0
H1721 H 0.2079 0.79332 0.87247 0.0
H1722 H 0.21437 0.78274 0.89201 0.0
H1723 H 0.19833 0.7982 0.92768 0.0
H1724 H 0.2218 0.76547 0.98094 0.0
H1725 H 0.20764 0.77001 0.9625 0.0
C1726 C 0.20726 0.19618 0.90287 0.0
C1727 C 0.21589 0.19056 0.89481 0.0
C1728 C 0.211 0.20007 0.91516 0.0
C1729 C 0.23913 0.20993 0.93419 0.0
H1730 H 0.21666 0.20686 0.96245 0.0
C1731 C 0.25169 0.23122 0.98401 0.0
C1732 C 0.24189 0.23795 0.98938 0.0
C1733 C 0.24925 0.22347 0.97341 0.0
C1734 C 0.22304 0.20784 0.95465 0.0
H1735 H 0.23516 0.18421 0.89369 0.0
H1736 H 0.2417 0.19113 0.91509 0.0
H1737 H 0.21091 0.19707 0.94207 0.0
H1738 H 0.22178 0.24141 0.98813 0.0
H1739 H 0.21759 0.22808 0.96981 0.0
H1740 H 0.25108 0.22102 0.94665 0.0
C1741 C 0.23207 0.19264 0.9118 0.0
C1742 C 0.21973 0.20222 0.94296 0.0
C1743 C 0.22831 0.1887 0.89952 0.0
C1744 C 0.22958 0.2364 0.98424 0.0
C1745 C 0.22714 0.22865 0.97375 0.0
C1746 C 0.24242 0.21559 0.94588 0.0
C1747 C 0.22349 0.19849 0.91973 0.0
C1748 C 0.2276 0.20341 0.9325 0.0
C1749 C 0.23695 0.22221 0.96805 0.0
C1750 C 0.23428 0.21485 0.95618 0.0
H1751 H 0.19769 0.19798 0.89953 0.0
H1752 H 0.2042 0.2047 0.92093 0.0
H1753 H 0.24537 0.21112 0.9263 0.0
H1754 H 0.26128 0.23224 0.98774 0.0
H1755 H 0.25701 0.21855 0.96932 0.0
C1756 C 0.83071 0.18585 0.89329 0.0
C1757 C 0.84142 0.19052 0.88723 0.0
C1758 C 0.82481 0.19288 0.90255 0.0
C1759 C 0.83107 0.21871 0.9253 0.0
H1760 H 0.79471 0.21841 0.928 0.0
C1761 C 0.80617 0.25006 0.96113 0.0
C1762 C 0.79627 0.2447 0.96793 0.0
C1763 C 0.81129 0.24379 0.95087 0.0
C1764 C 0.80488 0.2185 0.92745 0.0
H1765 H 0.85418 0.20639 0.88608 0.0
H1766 H 0.84375 0.21877 0.90204 0.0
H1767 H 0.80427 0.20709 0.91068 0.0
H1768 H 0.78395 0.22849 0.96912 0.0
H1769 H 0.79287 0.21755 0.9512 0.0
H1770 H 0.83169 0.23007 0.94208 0.0
C1771 C 0.84001 0.20957 0.89975 0.0
C1772 C 0.81037 0.21201 0.91751 0.0
C1773 C 0.84591 0.20253 0.89048 0.0
C1774 C 0.79147 0.23297 0.96404 0.0
C1775 C 0.79659 0.22669 0.95375 0.0
C1776 C 0.82558 0.22521 0.93521 0.0
C1777 C 0.82946 0.20478 0.906 0.0
C1778 C 0.82354 0.212 0.91633 0.0
C1779 C 0.80664 0.23199 0.9471 0.0
C1780 C 0.81242 0.22516 0.93643 0.0
H1781 H 0.82688 0.17671 0.8909 0.0
H1782 H 0.81678 0.18884 0.90722 0.0
H1783 H 0.84124 0.21873 0.92484 0.0
H1784 H 0.80995 0.25918 0.96365 0.0
H1785 H 0.81886 0.24825 0.94582 0.0
C1786 C 0.81564 0.83761 0.89306 0.0
C1787 C 0.81437 0.8501 0.88915 0.0
C1788 C 0.80759 0.83245 0.902 0.0
C1789 C 0.7863 0.84164 0.92762 0.0
H1790 H 0.77568 0.80696 0.92577 0.0
C1791 C 0.75146 0.82007 0.96297 0.0
C1792 C 0.75469 0.80838 0.96816 0.0
C1793 C 0.75801 0.82507 0.95277 0.0
C1794 C 0.77863 0.81664 0.92646 0.0
H1795 H 0.80342 0.86684 0.8915 0.0
H1796 H 0.78915 0.85773 0.90673 0.0
H1797 H 0.7882 0.81583 0.90883 0.0
H1798 H 0.76746 0.79284 0.96643 0.0
H1799 H 0.77871 0.80149 0.94861 0.0
H1800 H 0.77671 0.84243 0.94523 0.0
C1801 C 0.79654 0.85198 0.90307 0.0
C1802 C 0.78584 0.82173 0.91676 0.0
C1803 C 0.80462 0.85717 0.89417 0.0
C1804 C 0.76452 0.80176 0.96266 0.0
C1805 C 0.77101 0.80673 0.95241 0.0
C1806 C 0.77904 0.83657 0.93726 0.0
C1807 C 0.79801 0.8396 0.90723 0.0
C1808 C 0.78986 0.83428 0.91725 0.0
C1809 C 0.76791 0.81849 0.94741 0.0
C1810 C 0.7752 0.82399 0.93685 0.0
H1811 H 0.82292 0.83182 0.88927 0.0
H1812 H 0.80911 0.82292 0.90504 0.0
H1813 H 0.7894 0.85127 0.92847 0.0
H1814 H 0.74383 0.82537 0.96675 0.0
H1815 H 0.75527 0.83408 0.94901 0.0
C1816 C 0.12552 0.2042 0.19753 0.0
C1817 C 0.12906 0.19373 0.20477 0.0
C1818 C 0.11468 0.21082 0.20032 0.0
C1819 C 0.09246 0.21585 0.22652 0.0
H1820 H 0.07307 0.23273 0.19992 0.0
C1821 C 0.0541 0.25102 0.23888 0.0
C1822 C 0.04315 0.25144 0.23103 0.0
C1823 C 0.06449 0.24411 0.23527 0.0
C1824 C 0.07826 0.22798 0.20748 0.0
H1825 H 0.1238 0.1817 0.22034 0.0
H1826 H 0.10461 0.19293 0.22496 0.0
H1827 H 0.09056 0.21965 0.19426 0.0
H1828 H 0.03446 0.24494 0.21326 0.0
H1829 H 0.0524 0.23259 0.20707 0.0
H1830 H 0.07985 0.22372 0.23969 0.0
C1831 C 0.11039 0.19632 0.21735 0.0
C1832 C 0.08846 0.22059 0.20424 0.0
C1833 C 0.12135 0.1898 0.21466 0.0
C1834 C 0.04285 0.24494 0.21941 0.0
C1835 C 0.05317 0.23787 0.21587 0.0
C1836 C 0.08218 0.22311 0.22974 0.0
C1837 C 0.107 0.20704 0.21035 0.0
C1838 C 0.09577 0.21449 0.21372 0.0
C1839 C 0.06412 0.23726 0.22381 0.0
C1840 C 0.07498 0.22937 0.22029 0.0
H1841 H 0.13139 0.20757 0.18997 0.0
H1842 H 0.11257 0.21913 0.19485 0.0
H1843 H 0.09792 0.21148 0.23414 0.0
H1844 H 0.05463 0.25607 0.24782 0.0
H1845 H 0.07282 0.24417 0.2415 0.0
C1846 C 0.81853 0.1265 0.19653 0.0
C1847 C 0.83063 0.1255 0.1916 0.0
C1848 C 0.81351 0.11688 0.20391 0.0
C1849 C 0.81771 0.08325 0.21149 0.0
H1850 H 0.79768 0.09088 0.24068 0.0
C1851 C 0.80377 0.04567 0.24796 0.0
C1852 C 0.79114 0.0455 0.25159 0.0
C1853 C 0.80855 0.05565 0.24094 0.0
C1854 C 0.80318 0.0886 0.2325 0.0
H1855 H 0.84709 0.11378 0.19088 0.0
H1856 H 0.83847 0.09715 0.20384 0.0
H1857 H 0.80596 0.10783 0.22774 0.0
H1858 H 0.77376 0.0559 0.25109 0.0
H1859 H 0.78209 0.07334 0.23883 0.0
H1860 H 0.81505 0.06404 0.21635 0.0
C1861 C 0.83267 0.10518 0.20175 0.0
C1862 C 0.8079 0.09832 0.22504 0.0
C1863 C 0.83764 0.11474 0.19432 0.0
C1864 C 0.78349 0.05569 0.24832 0.0
C1865 C 0.78829 0.06573 0.2414 0.0
C1866 C 0.81307 0.07356 0.21898 0.0
C1867 C 0.82052 0.10608 0.20661 0.0
C1868 C 0.81526 0.09577 0.21445 0.0
C1869 C 0.80083 0.06576 0.23749 0.0
C1870 C 0.80578 0.07612 0.22959 0.0
H1871 H 0.81287 0.13465 0.19452 0.0
H1872 H 0.80406 0.11784 0.20735 0.0
H1873 H 0.82311 0.08089 0.20326 0.0
H1874 H 0.80989 0.03793 0.25023 0.0
H1875 H 0.81829 0.05546 0.23819 0.0
C1876 C 0.89362 0.85163 0.19813 0.0
C1877 C 0.88469 0.84431 0.19117 0.0
C1878 C 0.90313 0.84605 0.20561 0.0
C1879 C 0.91219 0.81661 0.22162 0.0
H1880 H 0.94616 0.82992 0.21925 0.0
C1881 C 0.95567 0.79086 0.24286 0.0
C1882 C 0.96564 0.79803 0.24836 0.0
C1883 C 0.94559 0.79657 0.23632 0.0
C1884 C 0.93672 0.82618 0.22019 0.0
H1885 H 0.87877 0.8253 0.18684 0.0
H1886 H 0.89527 0.81559 0.20002 0.0
H1887 H 0.9289 0.83973 0.20732 0.0
H1888 H 0.97263 0.81695 0.25123 0.0
H1889 H 0.95495 0.82688 0.24019 0.0
H1890 H 0.91998 0.8031 0.23456 0.0
C1891 C 0.89484 0.82566 0.19973 0.0
C1892 C 0.92681 0.83181 0.21332 0.0
C1893 C 0.88536 0.83125 0.19218 0.0
C1894 C 0.96514 0.81109 0.24724 0.0
C1895 C 0.95503 0.8168 0.24074 0.0
C1896 C 0.92209 0.81102 0.22856 0.0
C1897 C 0.90394 0.833 0.2064 0.0
C1898 C 0.91442 0.82708 0.21392 0.0
C1899 C 0.94514 0.80962 0.23513 0.0
C1900 C 0.93451 0.8157 0.22792 0.0
H1901 H 0.89327 0.86171 0.1978 0.0
H1902 H 0.90984 0.85197 0.21081 0.0
H1903 H 0.90274 0.81283 0.22242 0.0
H1904 H 0.95557 0.78081 0.24363 0.0
H1905 H 0.93824 0.79071 0.23202 0.0
C1906 C 0.17482 0.88247 0.19128 0.0
C1907 C 0.16178 0.88092 0.1889 0.0
C1908 C 0.17948 0.89189 0.19946 0.0
C1909 C 0.17051 0.92214 0.21339 0.0
H1910 H 0.19915 0.9165 0.23645 0.0
C1911 C 0.18735 0.9588 0.25084 0.0
C1912 C 0.20044 0.96082 0.25233 0.0
C1913 C 0.18254 0.94881 0.24353 0.0
C1914 C 0.19121 0.91826 0.22998 0.0
H1915 H 0.14341 0.88815 0.19333 0.0
H1916 H 0.15149 0.90431 0.20779 0.0
H1917 H 0.19099 0.8995 0.22298 0.0
H1918 H 0.2187 0.95363 0.24753 0.0
H1919 H 0.21033 0.93636 0.23465 0.0
H1920 H 0.17074 0.9409 0.22037 0.0
C1921 C 0.15816 0.89834 0.20322 0.0
C1922 C 0.18654 0.90851 0.22225 0.0
C1923 C 0.15351 0.88894 0.19504 0.0
C1924 C 0.20858 0.95248 0.24646 0.0
C1925 C 0.20378 0.94247 0.23919 0.0
C1926 C 0.17516 0.93187 0.22114 0.0
C1927 C 0.1712 0.90001 0.20546 0.0
C1928 C 0.17613 0.91033 0.21383 0.0
C1929 C 0.1907 0.94054 0.23756 0.0
C1930 C 0.1856 0.93007 0.22951 0.0
H1931 H 0.18146 0.8764 0.18682 0.0
H1932 H 0.18958 0.89296 0.20088 0.0
H1933 H 0.16262 0.92395 0.20687 0.0
H1934 H 0.18081 0.96507 0.25514 0.0
H1935 H 0.17242 0.94752 0.24259 0.0
C1936 C 0.12232 0.82403 0.79779 0.0
C1937 C 0.12586 0.82197 0.81066 0.0
C1938 C 0.11009 0.82118 0.79321 0.0
C1939 C 0.07759 0.81477 0.80364 0.0
H1940 H 0.07415 0.79543 0.77245 0.0
C1941 C 0.03521 0.78271 0.79275 0.0
C1942 C 0.03052 0.78119 0.78016 0.0
C1943 C 0.04589 0.79005 0.79541 0.0
C1944 C 0.07489 0.80105 0.78103 0.0
H1945 H 0.11916 0.81539 0.82881 0.0
H1946 H 0.09786 0.81054 0.82087 0.0
H1947 H 0.09478 0.80382 0.77923 0.0
H1948 H 0.03314 0.7865 0.7605 0.0
H1949 H 0.05202 0.79942 0.76518 0.0
H1950 H 0.05779 0.81174 0.80562 0.0
C1951 C 0.10451 0.81449 0.81433 0.0
C1952 C 0.08673 0.80584 0.78494 0.0
C1953 C 0.11675 0.81729 0.8189 0.0
C1954 C 0.03653 0.78753 0.77029 0.0
C1955 C 0.04737 0.79485 0.77297 0.0
C1956 C 0.06577 0.81002 0.79972 0.0
C1957 C 0.10107 0.81627 0.80141 0.0
C1958 C 0.08828 0.81247 0.79647 0.0
C1959 C 0.05225 0.79606 0.78557 0.0
C1960 C 0.06434 0.8028 0.78856 0.0
H1961 H 0.12901 0.82784 0.79121 0.0
H1962 H 0.10769 0.82281 0.78324 0.0
H1963 H 0.07841 0.82006 0.81243 0.0
H1964 H 0.03078 0.77799 0.80059 0.0
H1965 H 0.04946 0.7906 0.80519 0.0
C1966 C 0.20012 0.11777 0.82379 0.0
C1967 C 0.20387 0.12878 0.81764 0.0
C1968 C 0.20262 0.1061 0.81851 0.0
C1969 C 0.21232 0.0907 0.78836 0.0
H1970 H 0.22194 0.06391 0.81133 0.0
C1971 C 0.23797 0.04578 0.77295 0.0
C1972 C 0.23454 0.0345 0.77882 0.0
C1973 C 0.23263 0.05705 0.77665 0.0
C1974 C 0.21911 0.07124 0.80478 0.0
H1975 H 0.21332 0.13615 0.80121 0.0
H1976 H 0.21794 0.11588 0.79217 0.0
H1977 H 0.21598 0.08393 0.82002 0.0
H1978 H 0.22218 0.02619 0.79264 0.0
H1979 H 0.21292 0.04579 0.79906 0.0
H1980 H 0.21592 0.07801 0.77312 0.0
C1981 C 0.21274 0.11619 0.80087 0.0
C1982 C 0.21565 0.08275 0.80977 0.0
C1983 C 0.21013 0.12785 0.80608 0.0
C1984 C 0.22512 0.03468 0.78795 0.0
C1985 C 0.21986 0.04594 0.79171 0.0
C1986 C 0.21591 0.07921 0.78337 0.0
C1987 C 0.20906 0.10513 0.80702 0.0
C1988 C 0.21226 0.09268 0.80164 0.0
C1989 C 0.2238 0.05729 0.78636 0.0
C1990 C 0.21939 0.06935 0.79153 0.0
H1991 H 0.19516 0.11819 0.83263 0.0
H1992 H 0.19942 0.09783 0.82342 0.0
H1993 H 0.20955 0.09802 0.78178 0.0
H1994 H 0.2452 0.046 0.7659 0.0
H1995 H 0.23589 0.06564 0.77237 0.0
C1996 C 0.91892 0.19373 0.82868 0.0
C1997 C 0.90995 0.18664 0.82155 0.0
C1998 C 0.92901 0.19956 0.82279 0.0
C1999 C 0.94018 0.21215 0.79276 0.0
H2000 H 0.97294 0.2088 0.8098 0.0
C2001 C 0.98529 0.23906 0.77663 0.0
C2002 C 0.99157 0.24531 0.78681 0.0
C2003 C 0.97591 0.23005 0.77903 0.0
C2004 C 0.96388 0.20983 0.8049 0.0
H2005 H 0.90442 0.18059 0.80241 0.0
H2006 H 0.92199 0.19112 0.79205 0.0
H2007 H 0.95494 0.19709 0.81754 0.0
H2008 H 0.99336 0.24665 0.80741 0.0
H2009 H 0.97732 0.23108 0.81156 0.0
H2010 H 0.94911 0.22534 0.78044 0.0
C2011 C 0.92118 0.19199 0.80227 0.0
C2012 C 0.95356 0.20313 0.80935 0.0
C2013 C 0.9111 0.18601 0.80822 0.0
C2014 C 0.98868 0.24203 0.79935 0.0
C2015 C 0.97952 0.23301 0.80173 0.0
C2016 C 0.95055 0.21895 0.78833 0.0
C2017 C 0.93038 0.19862 0.80955 0.0
C2018 C 0.94152 0.2045 0.8036 0.0
C2019 C 0.97287 0.22701 0.79165 0.0
C2020 C 0.96243 0.21817 0.79463 0.0
H2021 H 0.91819 0.19476 0.8389 0.0
H2022 H 0.93577 0.20486 0.82862 0.0
H2023 H 0.93101 0.21339 0.78813 0.0
H2024 H 0.98728 0.24146 0.76686 0.0
H2025 H 0.97096 0.22555 0.77106 0.0
C2026 C 0.83681 0.92015 0.80971 0.0
C2027 C 0.83019 0.90961 0.81405 0.0
C2028 C 0.83112 0.9284 0.80101 0.0
C2029 C 0.80362 0.93175 0.77828 0.0
H2030 H 0.80757 0.96699 0.7859 0.0
C2031 C 0.76634 0.96797 0.76517 0.0
C2032 C 0.76997 0.9801 0.76168 0.0
C2033 C 0.77535 0.95912 0.76853 0.0
C2034 C 0.80657 0.95721 0.78345 0.0
H2035 H 0.81245 0.89941 0.81247 0.0
H2036 H 0.8025 0.91381 0.79742 0.0
H2037 H 0.82018 0.95186 0.79785 0.0
H2038 H 0.78589 0.99238 0.75848 0.0
H2039 H 0.80183 0.97683 0.76461 0.0
H2040 H 0.78959 0.93711 0.76426 0.0
C2041 C 0.81218 0.91561 0.80055 0.0
C2042 C 0.81379 0.94851 0.79031 0.0
C2043 C 0.81788 0.90734 0.80921 0.0
C2044 C 0.78286 0.98306 0.76105 0.0
C2045 C 0.79195 0.97421 0.76465 0.0
C2046 C 0.79637 0.94044 0.77145 0.0
C2047 C 0.81866 0.92634 0.79645 0.0
C2048 C 0.81216 0.93564 0.78806 0.0
C2049 C 0.78825 0.96221 0.76867 0.0
C2050 C 0.79751 0.95325 0.7742 0.0
H2051 H 0.84639 0.92206 0.81309 0.0
H2052 H 0.83647 0.93645 0.79792 0.0
H2053 H 0.80232 0.92195 0.77608 0.0
H2054 H 0.75646 0.96543 0.76571 0.0
H2055 H 0.77216 0.95005 0.77171 0.0
C2056 C 0.20775 0.1169 0.20172 0.0
C2057 C 0.19543 0.12137 0.20303 0.0
C2058 C 0.21091 0.10483 0.20564 0.0
C2059 C 0.20025 0.08036 0.22773 0.0
H2060 H 0.22341 0.05914 0.21016 0.0
C2061 C 0.20702 0.03002 0.24333 0.0
C2062 C 0.21942 0.02576 0.24506 0.0
C2063 C 0.20453 0.04108 0.23683 0.0
C2064 C 0.21702 0.06502 0.21521 0.0
H2065 H 0.1767 0.11638 0.20914 0.0
H2066 H 0.18209 0.09529 0.21559 0.0
H2067 H 0.21796 0.07957 0.20122 0.0
H2068 H 0.23892 0.02945 0.24068 0.0
H2069 H 0.23456 0.04903 0.22926 0.0
H2070 H 0.19927 0.06593 0.24169 0.0
C2071 C 0.1894 0.10121 0.21177 0.0
C2072 C 0.21388 0.07671 0.2101 0.0
C2073 C 0.18625 0.11327 0.20789 0.0
C2074 C 0.22926 0.0325 0.23948 0.0
C2075 C 0.22676 0.04369 0.23295 0.0
C2076 C 0.20334 0.06872 0.23278 0.0
C2077 C 0.20182 0.09691 0.21096 0.0
C2078 C 0.20535 0.08448 0.21625 0.0
C2079 C 0.21438 0.04828 0.23192 0.0
C2080 C 0.21164 0.06084 0.22654 0.0
H2081 H 0.21502 0.1228 0.19782 0.0
H2082 H 0.22057 0.10186 0.2049 0.0
H2083 H 0.19395 0.0862 0.23293 0.0
H2084 H 0.19918 0.02496 0.24734 0.0
H2085 H 0.19486 0.04417 0.23592 0.0
C2086 C 0.20844 0.88836 0.83638 0.0
C2087 C 0.20063 0.8825 0.82701 0.0
C2088 C 0.21436 0.89981 0.83391 0.0
C2089 C 0.22438 0.9195 0.80697 0.0
H2090 H 0.22775 0.94554 0.83253 0.0
C2091 C 0.24147 0.96903 0.79456 0.0
C2092 C 0.25004 0.97504 0.80311 0.0
C2093 C 0.23557 0.95783 0.79787 0.0
C2094 C 0.22701 0.9383 0.82534 0.0
H2095 H 0.19293 0.88425 0.80769 0.0
H2096 H 0.20292 0.90428 0.80354 0.0
H2097 H 0.217 0.92597 0.83763 0.0
H2098 H 0.25905 0.97387 0.82192 0.0
H2099 H 0.24869 0.95431 0.8277 0.0
H2100 H 0.23432 0.9318 0.79466 0.0
C2101 C 0.20463 0.89995 0.81275 0.0
C2102 C 0.22085 0.92708 0.82826 0.0
C2103 C 0.19873 0.88852 0.8152 0.0
C2104 C 0.25243 0.96959 0.81514 0.0
C2105 C 0.24648 0.95837 0.81846 0.0
C2106 C 0.23051 0.9307 0.80405 0.0
C2107 C 0.21265 0.90568 0.822 0.0
C2108 C 0.21938 0.91757 0.81907 0.0
C2109 C 0.23803 0.95232 0.80983 0.0
C2110 C 0.23183 0.94028 0.81316 0.0
H2111 H 0.21002 0.88407 0.84563 0.0
H2112 H 0.22053 0.90391 0.84124 0.0
H2113 H 0.22369 0.91229 0.79975 0.0
H2114 H 0.23913 0.97304 0.78535 0.0
H2115 H 0.22892 0.95357 0.79108 0.0
C2116 C 0.14703 0.21362 0.81778 0.0
C2117 C 0.14879 0.2066 0.829 0.0
C2118 C 0.13571 0.21979 0.81522 0.0
C2119 C 0.10216 0.22105 0.82448 0.0
H2120 H 0.10356 0.25332 0.80789 0.0
C2121 C 0.05855 0.2529 0.81781 0.0
C2122 C 0.05671 0.2582 0.80564 0.0
C2123 C 0.06973 0.24668 0.82105 0.0
C2124 C 0.10301 0.24428 0.81245 0.0
H2125 H 0.13999 0.20055 0.84632 0.0
H2126 H 0.12027 0.21152 0.84199 0.0
H2127 H 0.12303 0.2423 0.81288 0.0
H2128 H 0.06533 0.2614 0.78747 0.0
H2129 H 0.08484 0.25062 0.79312 0.0
H2130 H 0.08209 0.2232 0.82417 0.0
C2131 C 0.12756 0.21207 0.83503 0.0
C2132 C 0.11417 0.23792 0.81528 0.0
C2133 C 0.13888 0.20579 0.83754 0.0
C2134 C 0.06639 0.25731 0.79687 0.0
C2135 C 0.07762 0.25123 0.80015 0.0
C2136 C 0.09099 0.22748 0.82175 0.0
C2137 C 0.12585 0.21923 0.82386 0.0
C2138 C 0.11391 0.22615 0.82122 0.0
C2139 C 0.0794 0.24578 0.81225 0.0
C2140 C 0.09128 0.23913 0.8156 0.0
H2141 H 0.15441 0.21425 0.8109 0.0
H2142 H 0.13467 0.22494 0.80638 0.0
H2143 H 0.10154 0.21195 0.8289 0.0
H2144 H 0.05123 0.25333 0.82474 0.0
H2145 H 0.07086 0.24266 0.83048 0.0
C2146 C 0.83304 0.11827 0.80973 0.0
C2147 C 0.83101 0.1243 0.82138 0.0
C2148 C 0.82474 0.10891 0.80521 0.0
C2149 C 0.7926 0.0956 0.80891 0.0
H2150 H 0.80719 0.06599 0.79454 0.0
C2151 C 0.76324 0.05068 0.79749 0.0
C2152 C 0.7658 0.04441 0.7861 0.0
C2153 C 0.77094 0.06061 0.80182 0.0
C2154 C 0.80293 0.07425 0.79839 0.0
H2155 H 0.81857 0.12519 0.83735 0.0
H2156 H 0.80411 0.10895 0.82945 0.0
H2157 H 0.82089 0.08315 0.80166 0.0
H2158 H 0.77869 0.04366 0.77047 0.0
H2159 H 0.79185 0.06102 0.77783 0.0
H2160 H 0.77462 0.08665 0.80564 0.0
C2161 C 0.81203 0.11157 0.82372 0.0
C2162 C 0.8108 0.08411 0.80246 0.0
C2163 C 0.82032 0.12091 0.82824 0.0
C2164 C 0.77627 0.04833 0.77918 0.0
C2165 C 0.78396 0.05822 0.7835 0.0
C2166 C 0.78471 0.08573 0.80482 0.0
C2167 C 0.81421 0.10534 0.81222 0.0
C2168 C 0.80575 0.09493 0.80775 0.0
C2169 C 0.78143 0.06448 0.79488 0.0
C2170 C 0.78978 0.07493 0.79947 0.0
H2171 H 0.84107 0.12076 0.80411 0.0
H2172 H 0.82659 0.10447 0.7962 0.0
H2173 H 0.78837 0.10385 0.81281 0.0
H2174 H 0.75521 0.04798 0.80302 0.0
H2175 H 0.76878 0.06515 0.81069 0.0
C2176 C 0.88887 0.83214 0.825 0.0
C2177 C 0.89145 0.84017 0.83538 0.0
C2178 C 0.89803 0.82392 0.82087 0.0
C2179 C 0.93249 0.81928 0.82185 0.0
H2180 H 0.92364 0.78558 0.81123 0.0
C2181 C 0.96713 0.78801 0.79572 0.0
C2182 C 0.96765 0.77535 0.79914 0.0
C2183 C 0.95782 0.7957 0.80043 0.0
C2184 C 0.92628 0.79493 0.81426 0.0
H2185 H 0.9056 0.84553 0.8498 0.0
H2186 H 0.92155 0.83127 0.84259 0.0
H2187 H 0.90735 0.79926 0.81905 0.0
H2188 H 0.95872 0.76086 0.81021 0.0
H2189 H 0.94255 0.77433 0.81859 0.0
H2190 H 0.95142 0.81494 0.81723 0.0
C2191 C 0.91252 0.83148 0.83749 0.0
C2192 C 0.91692 0.80282 0.8186 0.0
C2193 C 0.90337 0.83967 0.84161 0.0
C2194 C 0.95866 0.77058 0.80746 0.0
C2195 C 0.9493 0.77827 0.81215 0.0
C2196 C 0.94183 0.81142 0.81748 0.0
C2197 C 0.91 0.82355 0.82702 0.0
C2198 C 0.91992 0.81509 0.82244 0.0
C2199 C 0.94877 0.79093 0.80868 0.0
C2200 C 0.93884 0.79916 0.8136 0.0
H2201 H 0.87984 0.83238 0.81989 0.0
H2202 H 0.89584 0.81805 0.81267 0.0
H2203 H 0.93511 0.82872 0.8246 0.0
H2204 H 0.97398 0.79205 0.78946 0.0
H2205 H 0.95762 0.80536 0.79746 0.0
C2206 C 0.80634 0.91442 0.17346 0.0
C2207 C 0.81211 0.90459 0.18025 0.0
C2208 C 0.79924 0.92331 0.17974 0.0
C2209 C 0.78304 0.92917 0.21009 0.0
H2210 H 0.78817 0.96403 0.20166 0.0
C2211 C 0.77407 0.96861 0.24522 0.0
C2212 C 0.76882 0.97987 0.24088 0.0
C2213 C 0.77707 0.95924 0.23668 0.0
C2214 C 0.78643 0.95433 0.20397 0.0
H2215 H 0.81485 0.89645 0.19904 0.0
H2216 H 0.80253 0.91191 0.20998 0.0
H2217 H 0.79796 0.94794 0.18897 0.0
H2218 H 0.76233 0.99 0.22412 0.0
H2219 H 0.76779 0.97351 0.20899 0.0
H2220 H 0.77187 0.93558 0.22534 0.0
C2221 C 0.8033 0.91265 0.19974 0.0
C2222 C 0.79206 0.94509 0.19671 0.0
C2223 C 0.81039 0.90377 0.19346 0.0
C2224 C 0.76633 0.98141 0.22774 0.0
C2225 C 0.76953 0.97202 0.2191 0.0
C2226 C 0.77746 0.93839 0.21735 0.0
C2227 C 0.7977 0.9226 0.19299 0.0
C2228 C 0.79069 0.93239 0.19986 0.0
C2229 C 0.77502 0.96086 0.22351 0.0
C2230 C 0.77934 0.9511 0.21458 0.0
H2231 H 0.80729 0.91524 0.16325 0.0
H2232 H 0.79491 0.93072 0.1742 0.0
H2233 H 0.78152 0.91949 0.21262 0.0
H2234 H 0.77606 0.96708 0.25529 0.0
H2235 H 0.78143 0.95086 0.24041 0.0
C2236 C 0.10327 0.79757 0.17637 0.0
C2237 C 0.10034 0.80954 0.17179 0.0
C2238 C 0.09431 0.79045 0.18279 0.0
C2239 C 0.05995 0.78843 0.18948 0.0
H2240 H 0.07165 0.7722 0.22059 0.0
C2241 C 0.03948 0.77543 0.24098 0.0
C2242 C 0.02778 0.76982 0.23774 0.0
C2243 C 0.04843 0.7775 0.23178 0.0
C2244 C 0.06822 0.77662 0.21189 0.0
H2245 H 0.08563 0.8234 0.17043 0.0
H2246 H 0.07013 0.8111 0.18163 0.0
H2247 H 0.0869 0.78144 0.20644 0.0
H2248 H 0.01642 0.76162 0.22232 0.0
H2249 H 0.03219 0.76537 0.20601 0.0
H2250 H 0.04122 0.78418 0.19536 0.0
C2251 C 0.07924 0.80704 0.18003 0.0
C2252 C 0.07699 0.78183 0.2037 0.0
C2253 C 0.08817 0.81413 0.17361 0.0
C2254 C 0.02537 0.76594 0.22509 0.0
C2255 C 0.03436 0.76816 0.21577 0.0
C2256 C 0.05117 0.78322 0.1977 0.0
C2257 C 0.08221 0.79515 0.18481 0.0
C2258 C 0.07296 0.78812 0.19257 0.0
C2259 C 0.04595 0.77409 0.21901 0.0
C2260 C 0.0552 0.7776 0.2092 0.0
H2261 H 0.1125 0.79368 0.17499 0.0
H2262 H 0.09689 0.78127 0.1862 0.0
H2263 H 0.05651 0.793 0.18088 0.0
H2264 H 0.04168 0.77846 0.25065 0.0
H2265 H 0.05715 0.78225 0.23461 0.0
C2266 C 0.89372 0.19117 0.21474 0.0
C2267 C 0.89445 0.19204 0.20141 0.0
C2268 C 0.90349 0.19589 0.22273 0.0
C2269 C 0.93737 0.20293 0.22301 0.0
H2270 H 0.93104 0.22496 0.25134 0.0
C2271 C 0.97667 0.23302 0.24642 0.0
C2272 C 0.97643 0.23589 0.25949 0.0
C2273 C 0.96678 0.22638 0.24042 0.0
C2274 C 0.93299 0.21863 0.24363 0.0
H2275 H 0.90599 0.19848 0.18601 0.0
H2276 H 0.92304 0.20663 0.19992 0.0
H2277 H 0.91331 0.2161 0.23878 0.0
H2278 H 0.96571 0.23358 0.27659 0.0
H2279 H 0.94848 0.22169 0.26613 0.0
H2280 H 0.95697 0.2053 0.22781 0.0
C2281 C 0.91491 0.20234 0.20419 0.0
C2282 C 0.92281 0.2136 0.2364 0.0
C2283 C 0.9051 0.19779 0.19624 0.0
C2284 C 0.9662 0.23155 0.26651 0.0
C2285 C 0.95627 0.22482 0.26048 0.0
C2286 C 0.94751 0.20782 0.2303 0.0
C2287 C 0.91427 0.20136 0.21752 0.0
C2288 C 0.92492 0.20593 0.22585 0.0
C2289 C 0.95636 0.2223 0.24731 0.0
C2290 C 0.94548 0.21597 0.24053 0.0
H2291 H 0.88561 0.18682 0.21899 0.0
H2292 H 0.90276 0.19499 0.23296 0.0
H2293 H 0.93926 0.19684 0.21509 0.0
H2294 H 0.98437 0.23622 0.24067 0.0
H2295 H 0.96713 0.22484 0.23024 0.0
C2296 C 0.1946 0.70159 0.61949 0.0
C2297 C 0.18793 0.70961 0.62738 0.0
C2298 C 0.19833 0.70549 0.60745 0.0
C2299 C 0.2058 0.73379 0.58926 0.0
H2300 H 0.20566 0.71078 0.56076 0.0
C2301 C 0.22804 0.74649 0.5408 0.0
C2302 C 0.23608 0.73727 0.53629 0.0
C2303 C 0.21996 0.74382 0.55083 0.0
C2304 C 0.20578 0.71733 0.56863 0.0
H2305 H 0.17956 0.72793 0.62844 0.0
H2306 H 0.18622 0.73476 0.60748 0.0
H2307 H 0.19569 0.70466 0.58045 0.0
H2308 H 0.24157 0.71793 0.53842 0.0
H2309 H 0.22765 0.71336 0.55567 0.0
H2310 H 0.21625 0.74631 0.57753 0.0
C2311 C 0.18866 0.72549 0.61072 0.0
C2312 C 0.20008 0.71381 0.57992 0.0
C2313 C 0.18487 0.72156 0.62275 0.0
C2314 C 0.23555 0.72528 0.54168 0.0
C2315 C 0.22746 0.72261 0.55153 0.0
C2316 C 0.21154 0.73731 0.57794 0.0
C2317 C 0.19554 0.71753 0.60297 0.0
C2318 C 0.2003 0.72186 0.59049 0.0
C2319 C 0.21966 0.73186 0.55637 0.0
C2320 C 0.2119 0.72898 0.56761 0.0
H2321 H 0.19734 0.69242 0.62279 0.0
H2322 H 0.20379 0.69918 0.60183 0.0
H2323 H 0.20621 0.7402 0.59724 0.0
H2324 H 0.22826 0.75581 0.53686 0.0
H2325 H 0.21402 0.75114 0.5543 0.0
C2326 C 0.81892 0.71152 0.60785 0.0
C2327 C 0.83068 0.7061 0.60585 0.0
C2328 C 0.81276 0.71827 0.59812 0.0
C2329 C 0.81818 0.73366 0.56679 0.0
H2330 H 0.78201 0.72949 0.56205 0.0
C2331 C 0.79058 0.74481 0.51974 0.0
C2332 C 0.7785 0.74994 0.52054 0.0
C2333 C 0.79744 0.74141 0.53079 0.0
C2334 C 0.79209 0.73091 0.56335 0.0
H2335 H 0.84508 0.70332 0.59197 0.0
H2336 H 0.8343 0.71483 0.57498 0.0
H2337 H 0.79281 0.71956 0.5801 0.0
H2338 H 0.76447 0.75614 0.53366 0.0
H2339 H 0.77644 0.75019 0.55289 0.0
H2340 H 0.81744 0.74469 0.54974 0.0
C2341 C 0.82995 0.71422 0.58416 0.0
C2342 C 0.7983 0.72522 0.57373 0.0
C2343 C 0.83613 0.70757 0.5939 0.0
C2344 C 0.77373 0.75218 0.53267 0.0
C2345 C 0.78054 0.74869 0.54371 0.0
C2346 C 0.81197 0.73927 0.55635 0.0
C2347 C 0.81818 0.71966 0.58611 0.0
C2348 C 0.81146 0.7264 0.57552 0.0
C2349 C 0.79233 0.74298 0.54287 0.0
C2350 C 0.79887 0.73786 0.55445 0.0
H2351 H 0.81453 0.71065 0.61699 0.0
H2352 H 0.80379 0.72246 0.60004 0.0
H2353 H 0.82828 0.73499 0.56799 0.0
H2354 H 0.79455 0.74296 0.51056 0.0
H2355 H 0.80647 0.73698 0.52982 0.0
C2356 C 0.82301 0.32917 0.62874 0.0
C2357 C 0.83604 0.3317 0.62968 0.0
C2358 C 0.81804 0.32085 0.6195 0.0
C2359 C 0.82713 0.29541 0.59755 0.0
H2360 H 0.79659 0.30443 0.57867 0.0
C2361 C 0.81127 0.27103 0.55041 0.0
C2362 C 0.79831 0.26869 0.54816 0.0
C2363 C 0.81554 0.2781 0.56094 0.0
C2364 C 0.80504 0.30167 0.58395 0.0
H2365 H 0.85409 0.32707 0.62192 0.0
H2366 H 0.84546 0.31284 0.60575 0.0
H2367 H 0.80451 0.31771 0.59608 0.0
H2368 H 0.77975 0.27172 0.55559 0.0
H2369 H 0.7872 0.28406 0.57387 0.0
H2370 H 0.82773 0.27946 0.58532 0.0
C2371 C 0.83904 0.31719 0.61216 0.0
C2372 C 0.80958 0.30929 0.59397 0.0
C2373 C 0.84399 0.32549 0.62136 0.0
C2374 C 0.78977 0.2735 0.55684 0.0
C2375 C 0.79405 0.28059 0.56736 0.0
C2376 C 0.82259 0.28781 0.58753 0.0
C2377 C 0.82599 0.31482 0.61103 0.0
C2378 C 0.82076 0.30633 0.60083 0.0
C2379 C 0.80699 0.28304 0.56952 0.0
C2380 C 0.81155 0.29089 0.58052 0.0
H2381 H 0.8166 0.33383 0.63494 0.0
H2382 H 0.80796 0.31915 0.61901 0.0
H2383 H 0.83563 0.29271 0.60277 0.0
H2384 H 0.81813 0.26765 0.54388 0.0
H2385 H 0.82556 0.27995 0.56218 0.0
C2386 C 0.20618 0.34223 0.62744 0.0
C2387 C 0.19402 0.33708 0.62858 0.0
C2388 C 0.21445 0.33742 0.61862 0.0
C2389 C 0.2201 0.3097 0.59853 0.0
H2390 H 0.23902 0.33305 0.57813 0.0
C2391 C 0.24391 0.29473 0.5526 0.0
C2392 C 0.25603 0.29948 0.55029 0.0
C2393 C 0.23697 0.29932 0.56262 0.0
C2394 C 0.23393 0.3264 0.58386 0.0
H2395 H 0.18119 0.32255 0.62161 0.0
H2396 H 0.19549 0.31431 0.60609 0.0
H2397 H 0.22588 0.34083 0.59498 0.0
H2398 H 0.2703 0.31289 0.55674 0.0
H2399 H 0.25813 0.32097 0.57424 0.0
H2400 H 0.22801 0.29529 0.5873 0.0
C2401 C 0.1987 0.32201 0.61208 0.0
C2402 C 0.22641 0.33085 0.59353 0.0
C2403 C 0.19043 0.32682 0.62089 0.0
C2404 C 0.26096 0.3091 0.55816 0.0
C2405 C 0.25399 0.31372 0.5682 0.0
C2406 C 0.2276 0.30526 0.58886 0.0
C2407 C 0.21076 0.32733 0.61074 0.0
C2408 C 0.2193 0.32256 0.6009 0.0
C2409 C 0.24195 0.30881 0.5706 0.0
C2410 C 0.2345 0.31355 0.58131 0.0
H2411 H 0.20921 0.35022 0.63313 0.0
H2412 H 0.22372 0.34165 0.61794 0.0
H2413 H 0.21494 0.30304 0.60418 0.0
H2414 H 0.23967 0.28753 0.54659 0.0
H2415 H 0.22762 0.29552 0.56402 0.0
C2416 C 0.19479 0.28778 0.39776 0.0
C2417 C 0.19402 0.30063 0.39519 0.0
C2418 C 0.19864 0.28353 0.40985 0.0
C2419 C 0.20359 0.29359 0.44361 0.0
H2420 H 0.2287 0.26761 0.44482 0.0
C2421 C 0.23971 0.28827 0.48483 0.0
C2422 C 0.24366 0.27637 0.48869 0.0
C2423 C 0.23119 0.28971 0.47457 0.0
C2424 C 0.2215 0.27468 0.44469 0.0
H2425 H 0.19653 0.31907 0.40343 0.0
H2426 H 0.20328 0.31168 0.42448 0.0
H2427 H 0.21849 0.27315 0.42448 0.0
H2428 H 0.24143 0.25656 0.48512 0.0
H2429 H 0.22649 0.25908 0.46693 0.0
H2430 H 0.20697 0.29544 0.46376 0.0
C2431 C 0.20072 0.30486 0.4172 0.0
C2432 C 0.21565 0.27788 0.43302 0.0
C2433 C 0.19686 0.30911 0.40511 0.0
C2434 C 0.2385 0.26585 0.48237 0.0
C2435 C 0.23004 0.26729 0.47193 0.0
C2436 C 0.20945 0.29041 0.45526 0.0
C2437 C 0.20181 0.29202 0.41969 0.0
C2438 C 0.20686 0.2876 0.43229 0.0
C2439 C 0.22646 0.27927 0.46779 0.0
C2440 C 0.21872 0.28115 0.45589 0.0
H2441 H 0.19245 0.28099 0.39039 0.0
H2442 H 0.19919 0.27358 0.41149 0.0
H2443 H 0.19667 0.30093 0.44344 0.0
H2444 H 0.24348 0.29656 0.48954 0.0
H2445 H 0.22877 0.29906 0.47156 0.0
C2446 C 0.21237 0.6926 0.37701 0.0
C2447 C 0.20285 0.68335 0.37636 0.0
C2448 C 0.21787 0.69623 0.38874 0.0
C2449 C 0.21258 0.69622 0.42342 0.0
H2450 H 0.2485 0.70325 0.42583 0.0
C2451 C 0.23633 0.72131 0.4669 0.0
C2452 C 0.24833 0.71733 0.47117 0.0
C2453 C 0.23072 0.71655 0.45564 0.0
C2454 C 0.23848 0.70121 0.42537 0.0
H2455 H 0.19174 0.67063 0.38763 0.0
H2456 H 0.20136 0.67697 0.40812 0.0
H2457 H 0.23895 0.69591 0.40573 0.0
H2458 H 0.26375 0.70511 0.46687 0.0
H2459 H 0.25388 0.69666 0.44737 0.0
H2460 H 0.21215 0.70138 0.44312 0.0
C2461 C 0.20446 0.68152 0.39953 0.0
C2462 C 0.23297 0.69714 0.41379 0.0
C2463 C 0.19894 0.67788 0.38778 0.0
C2464 C 0.25448 0.70834 0.46395 0.0
C2465 C 0.24887 0.70359 0.45268 0.0
C2466 C 0.21809 0.70031 0.43501 0.0
C2467 C 0.21402 0.69073 0.40015 0.0
C2468 C 0.21993 0.69467 0.41263 0.0
C2469 C 0.23694 0.70768 0.44834 0.0
C2470 C 0.23111 0.70292 0.43612 0.0
H2471 H 0.21545 0.6972 0.36845 0.0
H2472 H 0.22503 0.70352 0.38886 0.0
H2473 H 0.2025 0.6945 0.42286 0.0
H2474 H 0.23122 0.72809 0.47227 0.0
H2475 H 0.22158 0.72002 0.45254 0.0
C2476 C 0.81443 0.68387 0.38711 0.0
C2477 C 0.82326 0.67462 0.39039 0.0
C2478 C 0.80686 0.68904 0.39638 0.0
C2479 C 0.79384 0.68233 0.42776 0.0
H2480 H 0.78884 0.71801 0.42953 0.0
C2481 C 0.76967 0.70532 0.47021 0.0
C2482 C 0.7621 0.71578 0.46782 0.0
C2483 C 0.77674 0.7002 0.46053 0.0
C2484 C 0.78995 0.708 0.42907 0.0
H2485 H 0.8313 0.66394 0.40617 0.0
H2486 H 0.81795 0.6728 0.42222 0.0
H2487 H 0.80195 0.70946 0.41307 0.0
H2488 H 0.7557 0.72878 0.45329 0.0
H2489 H 0.7678 0.71972 0.43631 0.0
H2490 H 0.78175 0.68079 0.44361 0.0
C2491 C 0.81679 0.67592 0.41244 0.0
C2492 C 0.79751 0.70312 0.41964 0.0
C2493 C 0.82442 0.67083 0.40321 0.0
C2494 C 0.76157 0.72083 0.45546 0.0
C2495 C 0.76856 0.71565 0.44575 0.0
C2496 C 0.78619 0.68719 0.43711 0.0
C2497 C 0.80787 0.68503 0.40912 0.0
C2498 C 0.79961 0.69023 0.41894 0.0
C2499 C 0.77635 0.70534 0.44817 0.0
C2500 C 0.78421 0.70011 0.43796 0.0
H2501 H 0.81313 0.68691 0.37732 0.0
H2502 H 0.79999 0.69597 0.39351 0.0
H2503 H 0.79512 0.67233 0.42734 0.0
H2504 H 0.77044 0.70133 0.47967 0.0
H2505 H 0.78278 0.6924 0.46284 0.0
C2506 C 0.82093 0.3211 0.39952 0.0
C2507 C 0.82085 0.3342 0.3993 0.0
C2508 C 0.81488 0.3145 0.40909 0.0
C2509 C 0.79121 0.31636 0.43412 0.0
H2510 H 0.8109 0.28965 0.44922 0.0
C2511 C 0.7769 0.2876 0.47928 0.0
C2512 C 0.77977 0.27485 0.47893 0.0
C2513 C 0.78083 0.2956 0.46951 0.0
C2514 C 0.80519 0.29698 0.44504 0.0
H2515 H 0.81391 0.3506 0.40881 0.0
H2516 H 0.80323 0.33901 0.42547 0.0
H2517 H 0.81955 0.30197 0.43212 0.0
H2518 H 0.7881 0.26034 0.46764 0.0
H2519 H 0.79457 0.27405 0.45069 0.0
H2520 H 0.77678 0.31119 0.4471 0.0
C2521 C 0.80797 0.33388 0.41818 0.0
C2522 C 0.81017 0.30405 0.43521 0.0
C2523 C 0.81408 0.34051 0.40861 0.0
C2524 C 0.78596 0.27016 0.46835 0.0
C2525 C 0.78975 0.27805 0.45863 0.0
C2526 C 0.78617 0.3092 0.44398 0.0
C2527 C 0.80855 0.3208 0.41868 0.0
C2528 C 0.80319 0.3137 0.42948 0.0
C2529 C 0.78761 0.29093 0.45924 0.0
C2530 C 0.79303 0.29927 0.4494 0.0
H2531 H 0.82581 0.31592 0.39236 0.0
H2532 H 0.81527 0.30441 0.40904 0.0
H2533 H 0.78561 0.32375 0.4299 0.0
H2534 H 0.77212 0.29145 0.48733 0.0
H2535 H 0.779 0.30548 0.47024 0.0
C2536 C 0.11906 0.71096 0.69868 0.0
C2537 C 0.1268 0.70124 0.70313 0.0
C2538 C 0.10747 0.71316 0.7042 0.0
C2539 C 0.09054 0.70761 0.73395 0.0
H2540 H 0.0614 0.71805 0.71362 0.0
C2541 C 0.04199 0.71602 0.75601 0.0
C2542 C 0.03566 0.72682 0.75193 0.0
C2543 C 0.05268 0.71199 0.74977 0.0
C2544 C 0.06948 0.71522 0.71945 0.0
H2545 H 0.12814 0.68587 0.71651 0.0
H2546 H 0.10793 0.68967 0.7261 0.0
H2547 H 0.08077 0.71267 0.70313 0.0
H2548 H 0.03542 0.74159 0.73779 0.0
H2549 H 0.05408 0.73471 0.72712 0.0
H2550 H 0.07928 0.71029 0.75028 0.0
C2551 C 0.11093 0.69576 0.71852 0.0
C2552 C 0.08059 0.71215 0.71343 0.0
C2553 C 0.12252 0.69358 0.71302 0.0
C2554 C 0.04015 0.73336 0.74134 0.0
C2555 C 0.05077 0.72931 0.73509 0.0
C2556 C 0.07942 0.71067 0.73997 0.0
C2557 C 0.10332 0.70567 0.71429 0.0
C2558 C 0.0913 0.70841 0.72061 0.0
C2559 C 0.05722 0.71862 0.73925 0.0
C2560 C 0.0688 0.71464 0.7328 0.0
H2561 H 0.12214 0.71712 0.69118 0.0
H2562 H 0.10193 0.72097 0.7008 0.0
H2563 H 0.09866 0.70495 0.73981 0.0
H2564 H 0.03882 0.71081 0.76416 0.0
H2565 H 0.05736 0.70365 0.75315 0.0
C2566 C 0.81656 0.63935 0.68063 0.0
C2567 C 0.82802 0.63629 0.67511 0.0
C2568 C 0.80983 0.63042 0.68752 0.0
C2569 C 0.80678 0.59612 0.69184 0.0
H2570 H 0.78936 0.60505 0.72238 0.0
C2571 C 0.7859 0.55903 0.72532 0.0
C2572 C 0.77389 0.56125 0.73006 0.0
C2573 C 0.79234 0.56833 0.71872 0.0
C2574 C 0.79407 0.60243 0.7138 0.0
H2575 H 0.84163 0.62158 0.67297 0.0
H2576 H 0.83003 0.60613 0.68503 0.0
H2577 H 0.80091 0.62105 0.71082 0.0
H2578 H 0.75937 0.57515 0.73173 0.0
H2579 H 0.77057 0.59134 0.72012 0.0
H2580 H 0.80004 0.57749 0.69488 0.0
C2581 C 0.82603 0.6153 0.68378 0.0
C2582 C 0.80069 0.61161 0.70715 0.0
C2583 C 0.83271 0.62418 0.67687 0.0
C2584 C 0.76853 0.57306 0.7281 0.0
C2585 C 0.77501 0.58239 0.72156 0.0
C2586 C 0.80023 0.58695 0.69851 0.0
C2587 C 0.81444 0.61824 0.68909 0.0
C2588 C 0.80718 0.60856 0.69611 0.0
C2589 C 0.78698 0.58013 0.71674 0.0
C2590 C 0.79383 0.58997 0.7096 0.0
H2591 H 0.81264 0.64856 0.67937 0.0
H2592 H 0.80088 0.633 0.69136 0.0
H2593 H 0.81143 0.59345 0.68324 0.0
H2594 H 0.79026 0.55003 0.72656 0.0
H2595 H 0.8016 0.5663 0.71525 0.0
C2596 C 0.90711 0.33389 0.69714 0.0
C2597 C 0.8979 0.34166 0.70214 0.0
C2598 C 0.91649 0.32872 0.7051 0.0
C2599 C 0.93336 0.33364 0.73601 0.0
H2600 H 0.94427 0.29967 0.73105 0.0
C2601 C 0.97104 0.31046 0.76927 0.0
C2602 C 0.97985 0.30277 0.76348 0.0
C2603 C 0.96062 0.31499 0.76226 0.0
C2604 C 0.94144 0.30922 0.73248 0.0
H2605 H 0.89131 0.35001 0.71948 0.0
H2606 H 0.90764 0.34089 0.73342 0.0
H2607 H 0.92678 0.30776 0.71803 0.0
H2608 H 0.98474 0.29417 0.74563 0.0
H2609 H 0.96671 0.3021 0.73343 0.0
H2610 H 0.94813 0.33517 0.75033 0.0
C2611 C 0.90763 0.33887 0.7233 0.0
C2612 C 0.93139 0.31385 0.72502 0.0
C2613 C 0.8982 0.34398 0.71534 0.0
C2614 C 0.97803 0.29984 0.75048 0.0
C2615 C 0.96765 0.30439 0.74347 0.0
C2616 C 0.94345 0.32903 0.74345 0.0
C2617 C 0.91695 0.33124 0.71827 0.0
C2618 C 0.92728 0.32615 0.72662 0.0
C2619 C 0.95877 0.31199 0.74927 0.0
C2620 C 0.9477 0.31679 0.74171 0.0
H2621 H 0.90709 0.33182 0.68703 0.0
H2622 H 0.92357 0.32298 0.70088 0.0
H2623 H 0.93054 0.34321 0.73738 0.0
H2624 H 0.97207 0.31279 0.77929 0.0
H2625 H 0.9539 0.32069 0.76708 0.0
C2626 C 0.19943 0.40453 0.69479 0.0
C2627 C 0.18942 0.40689 0.68603 0.0
C2628 C 0.20694 0.41434 0.69974 0.0
C2629 C 0.21623 0.44711 0.69332 0.0
H2630 H 0.22516 0.44808 0.72942 0.0
C2631 C 0.23374 0.4919 0.71919 0.0
C2632 C 0.24239 0.49089 0.72956 0.0
C2633 C 0.22891 0.48123 0.71301 0.0
C2634 C 0.22296 0.44787 0.71927 0.0
H2635 H 0.17929 0.42151 0.67591 0.0
H2636 H 0.19237 0.43852 0.68447 0.0
H2637 H 0.21338 0.43025 0.72063 0.0
H2638 H 0.25333 0.47784 0.74106 0.0
H2639 H 0.24507 0.45925 0.73012 0.0
H2640 H 0.22568 0.46479 0.69197 0.0
C2641 C 0.19458 0.42907 0.68734 0.0
C2642 C 0.21617 0.43764 0.71424 0.0
C2643 C 0.18706 0.4193 0.68244 0.0
C2644 C 0.24663 0.47897 0.73314 0.0
C2645 C 0.24181 0.4683 0.72694 0.0
C2646 C 0.22305 0.45733 0.69834 0.0
C2647 C 0.20464 0.42672 0.69601 0.0
C2648 C 0.21256 0.43722 0.70123 0.0
C2649 C 0.23264 0.46927 0.71702 0.0
C2650 C 0.22636 0.45792 0.71142 0.0
H2651 H 0.20163 0.39508 0.69765 0.0
H2652 H 0.21468 0.41219 0.70632 0.0
H2653 H 0.21381 0.44698 0.68321 0.0
H2654 H 0.23025 0.50091 0.71617 0.0
H2655 H 0.2218 0.48236 0.70547 0.0
C2656 C 0.12553 0.29327 0.31835 0.0
C2657 C 0.12778 0.30151 0.32864 0.0
C2658 C 0.1134 0.28865 0.31548 0.0
C2659 C 0.07988 0.29533 0.31907 0.0
H2660 H 0.0752 0.26045 0.31017 0.0
C2661 C 0.0306 0.2756 0.30507 0.0
C2662 C 0.02997 0.26778 0.2943 0.0
C2663 C 0.04222 0.2786 0.31106 0.0
C2664 C 0.07634 0.27023 0.31254 0.0
H2665 H 0.11887 0.31133 0.34396 0.0
H2666 H 0.09763 0.30344 0.33875 0.0
H2667 H 0.09609 0.26823 0.31682 0.0
H2668 H 0.04106 0.25645 0.28183 0.0
H2669 H 0.06124 0.2618 0.2921 0.0
H2670 H 0.06026 0.29747 0.31441 0.0
C2671 C 0.10532 0.30058 0.33292 0.0
C2672 C 0.08831 0.27469 0.31637 0.0
C2673 C 0.1175 0.30514 0.33587 0.0
C2674 C 0.04116 0.26247 0.29012 0.0
C2675 C 0.05278 0.26553 0.29606 0.0
C2676 C 0.06792 0.2909 0.31515 0.0
C2677 C 0.10315 0.29221 0.32274 0.0
C2678 C 0.09026 0.28732 0.31951 0.0
C2679 C 0.0535 0.27389 0.3064 0.0
C2680 C 0.06601 0.27832 0.31167 0.0
H2681 H 0.13313 0.29047 0.31238 0.0
H2682 H 0.11201 0.28242 0.30741 0.0
H2683 H 0.08109 0.30514 0.32131 0.0
H2684 H 0.02216 0.27979 0.3086 0.0
H2685 H 0.04237 0.28484 0.31918 0.0
C2686 C 0.18299 0.61054 0.29753 0.0
C2687 C 0.19067 0.61829 0.30544 0.0
C2688 C 0.18786 0.59972 0.29211 0.0
C2689 C 0.21809 0.58629 0.28306 0.0
H2690 H 0.20159 0.55395 0.28546 0.0
C2691 C 0.24564 0.54134 0.28196 0.0
C2692 C 0.24096 0.53091 0.27512 0.0
C2693 C 0.23836 0.55193 0.28329 0.0
C2694 C 0.20618 0.56295 0.28448 0.0
H2695 H 0.20952 0.62075 0.31374 0.0
H2696 H 0.21793 0.60197 0.30442 0.0
H2697 H 0.19079 0.57269 0.29262 0.0
H2698 H 0.22489 0.52348 0.26423 0.0
H2699 H 0.21189 0.54219 0.26676 0.0
H2700 H 0.23358 0.57664 0.27528 0.0
C2701 C 0.20816 0.60424 0.30237 0.0
C2702 C 0.20002 0.57367 0.28861 0.0
C2703 C 0.20328 0.61493 0.30785 0.0
C2704 C 0.22876 0.53139 0.26951 0.0
C2705 C 0.22132 0.54205 0.27101 0.0
C2706 C 0.22419 0.57565 0.27892 0.0
C2707 C 0.20057 0.59656 0.29434 0.0
C2708 C 0.20612 0.58539 0.28835 0.0
C2709 C 0.22611 0.55244 0.27791 0.0
C2710 C 0.21851 0.5638 0.27999 0.0
H2711 H 0.17322 0.61286 0.29552 0.0
H2712 H 0.18179 0.59398 0.28597 0.0
H2713 H 0.22291 0.59522 0.28245 0.0
H2714 H 0.25501 0.54136 0.28637 0.0
H2715 H 0.24228 0.55966 0.28883 0.0
C2716 C 0.89435 0.69446 0.32428 0.0
C2717 C 0.89023 0.68271 0.31978 0.0
C2718 C 0.90378 0.70108 0.31811 0.0
C2719 C 0.92084 0.70388 0.28795 0.0
H2720 H 0.94578 0.72057 0.30996 0.0
C2721 C 0.96547 0.73117 0.27017 0.0
C2722 C 0.96758 0.74277 0.27618 0.0
C2723 C 0.95612 0.72293 0.27451 0.0
C2724 C 0.93886 0.71601 0.30367 0.0
H2725 H 0.89265 0.66886 0.30503 0.0
H2726 H 0.90915 0.68047 0.29421 0.0
H2727 H 0.92919 0.70812 0.31933 0.0
H2728 H 0.96114 0.75496 0.29111 0.0
H2729 H 0.94509 0.74078 0.29852 0.0
H2730 H 0.93063 0.71195 0.27226 0.0
C2731 C 0.90499 0.68458 0.30249 0.0
C2732 C 0.92932 0.7089 0.30904 0.0
C2733 C 0.89552 0.67793 0.30869 0.0
C2734 C 0.95994 0.74607 0.28632 0.0
C2735 C 0.95073 0.73789 0.29064 0.0
C2736 C 0.93047 0.71102 0.28254 0.0
C2737 C 0.90939 0.69614 0.30727 0.0
C2738 C 0.92001 0.70297 0.30129 0.0
C2739 C 0.94883 0.72615 0.28497 0.0
C2740 C 0.93941 0.71739 0.29037 0.0
H2741 H 0.8903 0.69854 0.33264 0.0
H2742 H 0.90671 0.7101 0.32187 0.0
H2743 H 0.91381 0.69943 0.2817 0.0
H2744 H 0.97117 0.72837 0.26231 0.0
H2745 H 0.95483 0.71393 0.26994 0.0
C2746 C 0.83898 0.40816 0.31837 0.0
C2747 C 0.83085 0.40006 0.32481 0.0
C2748 C 0.83427 0.41637 0.30909 0.0
C2749 C 0.80646 0.4224 0.28775 0.0
H2750 H 0.82006 0.45612 0.28748 0.0
C2751 C 0.78253 0.46261 0.25984 0.0
C2752 C 0.79025 0.4714 0.2538 0.0
C2753 C 0.78778 0.45337 0.26768 0.0
C2754 C 0.81628 0.44669 0.2873 0.0
H2755 H 0.81136 0.39418 0.32646 0.0
H2756 H 0.80309 0.40858 0.3103 0.0
H2757 H 0.82851 0.44108 0.3028 0.0
H2758 H 0.80962 0.47718 0.25109 0.0
H2759 H 0.81883 0.46096 0.26467 0.0
H2760 H 0.79412 0.4281 0.27233 0.0
C2761 C 0.81316 0.40846 0.31231 0.0
C2762 C 0.82112 0.43806 0.29609 0.0
C2763 C 0.81789 0.40022 0.32159 0.0
C2764 C 0.8034 0.47053 0.25554 0.0
C2765 C 0.80867 0.46131 0.26343 0.0
C2766 C 0.8016 0.43105 0.27896 0.0
C2767 C 0.82129 0.41671 0.30602 0.0
C2768 C 0.81625 0.42581 0.29647 0.0
C2769 C 0.80091 0.4527 0.2697 0.0
C2770 C 0.80642 0.44332 0.27866 0.0
H2771 H 0.84905 0.40811 0.32043 0.0
H2772 H 0.84084 0.4224 0.30426 0.0
H2773 H 0.80262 0.413 0.28763 0.0
H2774 H 0.77238 0.4629 0.25857 0.0
H2775 H 0.78152 0.44696 0.27243 0.0
C2776 C 0.18352 0.63436 0.70613 0.0
C2777 C 0.19182 0.64016 0.69772 0.0
C2778 C 0.18653 0.62294 0.71181 0.0
C2779 C 0.20718 0.59552 0.70903 0.0
H2780 H 0.20118 0.59154 0.74508 0.0
C2781 C 0.22852 0.55512 0.7385 0.0
C2782 C 0.22104 0.54935 0.74769 0.0
C2783 C 0.22451 0.56594 0.73226 0.0
C2784 C 0.20277 0.59242 0.73497 0.0
H2785 H 0.20965 0.63828 0.68843 0.0
H2786 H 0.21499 0.61843 0.69846 0.0
H2787 H 0.1949 0.6107 0.73425 0.0
H2788 H 0.20346 0.55061 0.75754 0.0
H2789 H 0.19635 0.5694 0.7465 0.0
H2790 H 0.21509 0.57727 0.70976 0.0
C2791 C 0.2061 0.62268 0.7006 0.0
C2792 C 0.19917 0.60341 0.72876 0.0
C2793 C 0.20309 0.63412 0.69494 0.0
C2794 C 0.20943 0.55473 0.75047 0.0
C2795 C 0.20541 0.56558 0.74422 0.0
C2796 C 0.21076 0.58452 0.71524 0.0
C2797 C 0.19791 0.61701 0.70922 0.0
C2798 C 0.20139 0.60514 0.71572 0.0
C2799 C 0.21289 0.57131 0.73501 0.0
C2800 C 0.20868 0.58286 0.72831 0.0
H2801 H 0.17482 0.6388 0.7086 0.0
H2802 H 0.17995 0.61876 0.71829 0.0
H2803 H 0.20885 0.59645 0.69895 0.0
H2804 H 0.23743 0.5512 0.73594 0.0
H2805 H 0.2306 0.57017 0.72534 0.0
C2806 C 0.20065 0.3754 0.31709 0.0
C2807 C 0.19821 0.37283 0.32993 0.0
C2808 C 0.20638 0.38666 0.31361 0.0
C2809 C 0.21342 0.41892 0.32465 0.0
H2810 H 0.23928 0.41755 0.29943 0.0
C2811 C 0.24469 0.46181 0.31218 0.0
C2812 C 0.24723 0.46363 0.29922 0.0
C2813 C 0.23872 0.45085 0.31625 0.0
C2814 C 0.23199 0.41814 0.30638 0.0
H2815 H 0.1996 0.38031 0.34913 0.0
H2816 H 0.20973 0.39991 0.34308 0.0
H2817 H 0.22861 0.39844 0.30581 0.0
H2818 H 0.24563 0.45511 0.28047 0.0
H2819 H 0.23506 0.43625 0.28749 0.0
H2820 H 0.21681 0.43866 0.32518 0.0
C2821 C 0.20714 0.39322 0.33569 0.0
C2822 C 0.22585 0.40716 0.31004 0.0
C2823 C 0.20144 0.38193 0.33917 0.0
C2824 C 0.2437 0.45416 0.29048 0.0
C2825 C 0.23776 0.44323 0.29455 0.0
C2826 C 0.21956 0.42992 0.32097 0.0
C2827 C 0.20983 0.39566 0.32287 0.0
C2828 C 0.21644 0.4074 0.31916 0.0
C2829 C 0.23519 0.44141 0.30748 0.0
C2830 C 0.22887 0.42969 0.31172 0.0
H2831 H 0.19845 0.36858 0.30972 0.0
H2832 H 0.20813 0.38829 0.30364 0.0
H2833 H 0.20614 0.41947 0.33161 0.0
H2834 H 0.24718 0.46892 0.31916 0.0
H2835 H 0.237 0.44973 0.32631 0.0
C2836 C 0.12363 0.704 0.32495 0.0
C2837 C 0.12678 0.6933 0.31805 0.0
C2838 C 0.1122 0.71004 0.32248 0.0
C2839 C 0.08035 0.70598 0.30727 0.0
H2840 H 0.08134 0.74209 0.30563 0.0
C2841 C 0.03874 0.73473 0.28642 0.0
C2842 C 0.03594 0.74609 0.29237 0.0
C2843 C 0.0495 0.72806 0.2901 0.0
C2844 C 0.08083 0.73202 0.30622 0.0
H2845 H 0.1202 0.68045 0.30326 0.0
H2846 H 0.10024 0.69097 0.29896 0.0
H2847 H 0.1005 0.73078 0.31115 0.0
H2848 H 0.04237 0.75923 0.30695 0.0
H2849 H 0.06099 0.7475 0.31353 0.0
H2850 H 0.06068 0.70723 0.30227 0.0
C2851 C 0.10658 0.69463 0.30638 0.0
C2852 C 0.09184 0.72552 0.30939 0.0
C2853 C 0.11803 0.68858 0.30886 0.0
C2854 C 0.04414 0.7505 0.30221 0.0
C2855 C 0.05491 0.74383 0.30589 0.0
C2856 C 0.06933 0.71248 0.30412 0.0
C2857 C 0.1036 0.70554 0.31305 0.0
C2858 C 0.09176 0.71241 0.30993 0.0
C2859 C 0.05777 0.73254 0.29984 0.0
C2860 C 0.06943 0.72559 0.30351 0.0
H2861 H 0.13003 0.70776 0.33227 0.0
H2862 H 0.11011 0.71826 0.32798 0.0
H2863 H 0.0799 0.6959 0.30777 0.0
H2864 H 0.03259 0.73093 0.27893 0.0
H2865 H 0.05145 0.71948 0.28514 0.0
C2866 C 0.82226 0.61153 0.30588 0.0
C2867 C 0.81979 0.61472 0.31853 0.0
C2868 C 0.8147 0.60275 0.29932 0.0
C2869 C 0.79394 0.57576 0.30417 0.0
H2870 H 0.78485 0.58105 0.26852 0.0
C2871 C 0.76759 0.53835 0.27231 0.0
C2872 C 0.77297 0.53662 0.26037 0.0
C2873 C 0.77143 0.54846 0.2801 0.0
C2874 C 0.78733 0.57941 0.27847 0.0
H2875 H 0.80744 0.6112 0.33423 0.0
H2876 H 0.79421 0.59577 0.32273 0.0
H2877 H 0.79514 0.59779 0.2808 0.0
H2878 H 0.78654 0.54418 0.24727 0.0
H2879 H 0.79315 0.56151 0.26071 0.0
H2880 H 0.78647 0.5572 0.30168 0.0
C2881 C 0.802 0.60011 0.31791 0.0
C2882 C 0.79323 0.589 0.28549 0.0
C2883 C 0.80951 0.609 0.32445 0.0
C2884 C 0.78215 0.5452 0.25638 0.0
C2885 C 0.78589 0.55524 0.26407 0.0
C2886 C 0.78806 0.56611 0.2971 0.0
C2887 C 0.80453 0.59688 0.30528 0.0
C2888 C 0.7969 0.58718 0.29833 0.0
C2889 C 0.78058 0.55705 0.276 0.0
C2890 C 0.78502 0.56773 0.28407 0.0
H2891 H 0.83005 0.61584 0.30105 0.0
H2892 H 0.81698 0.60037 0.28964 0.0
H2893 H 0.7967 0.57407 0.31404 0.0
H2894 H 0.7605 0.5319 0.27565 0.0
H2895 H 0.76716 0.54962 0.28925 0.0
C2896 C 0.89927 0.34559 0.32353 0.0
C2897 C 0.89204 0.33855 0.33198 0.0
C2898 C 0.90832 0.33989 0.31618 0.0
C2899 C 0.92871 0.31248 0.31562 0.0
H2900 H 0.93297 0.32165 0.28026 0.0
C2901 C 0.96504 0.28808 0.28465 0.0
C2902 C 0.97195 0.29553 0.27623 0.0
C2903 C 0.95472 0.2929 0.29089 0.0
C2904 C 0.93201 0.31908 0.29016 0.0
H2905 H 0.88856 0.31995 0.33924 0.0
H2906 H 0.90439 0.30996 0.32636 0.0
H2907 H 0.91596 0.33078 0.29211 0.0
H2908 H 0.97306 0.3139 0.26765 0.0
H2909 H 0.95537 0.32238 0.27882 0.0
H2910 H 0.94488 0.301 0.31381 0.0
C2911 C 0.90308 0.31992 0.32548 0.0
C2912 C 0.92223 0.32429 0.29694 0.0
C2913 C 0.89394 0.32562 0.33277 0.0
C2914 C 0.96812 0.30789 0.27415 0.0
C2915 C 0.95783 0.31273 0.28045 0.0
C2916 C 0.93853 0.30733 0.30887 0.0
C2917 C 0.91043 0.32701 0.31716 0.0
C2918 C 0.9205 0.3211 0.30977 0.0
C2919 C 0.95104 0.30532 0.28898 0.0
C2920 C 0.94035 0.31059 0.29606 0.0
H2921 H 0.89794 0.35555 0.32261 0.0
H2922 H 0.91389 0.34564 0.30994 0.0
H2923 H 0.92775 0.30997 0.32554 0.0
H2924 H 0.96768 0.27856 0.28665 0.0
H2925 H 0.94963 0.28684 0.29724 0.0
C2926 C 0.82087 0.41465 0.68946 0.0
C2927 C 0.82724 0.40543 0.6966 0.0
C2928 C 0.81504 0.42457 0.69554 0.0
C2929 C 0.81654 0.44209 0.72589 0.0
H2930 H 0.78434 0.4553 0.71424 0.0
C2931 C 0.79079 0.47888 0.75496 0.0
C2932 C 0.78458 0.48856 0.74837 0.0
C2933 C 0.79563 0.46878 0.74837 0.0
C2934 C 0.79341 0.45183 0.71752 0.0
H2935 H 0.83187 0.39912 0.71581 0.0
H2936 H 0.82174 0.41637 0.72639 0.0
H2937 H 0.79313 0.43742 0.70333 0.0
H2938 H 0.77855 0.49513 0.72963 0.0
H2939 H 0.78718 0.47753 0.71809 0.0
H2940 H 0.81693 0.45648 0.74 0.0
C2941 C 0.82147 0.41608 0.71606 0.0
C2942 C 0.79844 0.44155 0.71128 0.0
C2943 C 0.82727 0.40617 0.70999 0.0
C2944 C 0.78328 0.48784 0.73501 0.0
C2945 C 0.78816 0.4777 0.7284 0.0
C2946 C 0.81155 0.45235 0.7321 0.0
C2947 C 0.81546 0.42552 0.70892 0.0
C2948 C 0.81004 0.4365 0.71544 0.0
C2949 C 0.79445 0.46806 0.735 0.0
C2950 C 0.79987 0.45732 0.72807 0.0
H2951 H 0.82079 0.41448 0.67913 0.0
H2952 H 0.81059 0.43173 0.68974 0.0
H2953 H 0.82562 0.43863 0.72918 0.0
H2954 H 0.7919 0.47906 0.76525 0.0
H2955 H 0.8002 0.46144 0.75382 0.0
C2956 C 0.11631 0.32341 0.6899 0.0
C2957 C 0.12233 0.33405 0.69528 0.0
C2958 C 0.10672 0.31717 0.69631 0.0
C2959 C 0.08293 0.32299 0.7202 0.0
H2960 H 0.08086 0.28704 0.72387 0.0
C2961 C 0.05175 0.30068 0.75723 0.0
C2962 C 0.04474 0.28979 0.75427 0.0
C2963 C 0.06067 0.30531 0.74896 0.0
C2964 C 0.08119 0.29708 0.72274 0.0
H2965 H 0.12333 0.34599 0.71198 0.0
H2966 H 0.10654 0.33526 0.72301 0.0
H2967 H 0.09784 0.29647 0.71164 0.0
H2968 H 0.0418 0.27511 0.74025 0.0
H2969 H 0.05753 0.28334 0.72559 0.0
H2970 H 0.0664 0.32372 0.73124 0.0
C2971 C 0.10911 0.33186 0.71373 0.0
C2972 C 0.09094 0.30247 0.71578 0.0
C2973 C 0.11874 0.33803 0.70739 0.0
C2974 C 0.04701 0.28355 0.74279 0.0
C2975 C 0.05605 0.28822 0.73443 0.0
C2976 C 0.0732 0.31763 0.72706 0.0
C2977 C 0.10285 0.32148 0.70819 0.0
C2978 C 0.09207 0.31552 0.71471 0.0
C2979 C 0.06289 0.29925 0.7374 0.0
C2980 C 0.07238 0.30463 0.72871 0.0
H2981 H 0.11871 0.32014 0.68053 0.0
H2982 H 0.10203 0.30923 0.69177 0.0
H2983 H 0.08334 0.33304 0.71928 0.0
H2984 H 0.05039 0.30573 0.76601 0.0
H2985 H 0.06595 0.31364 0.75173 0.0
C2986 C 0.89694 0.71682 0.67552 0.0
C2987 C 0.89727 0.70371 0.67603 0.0
C2988 C 0.90606 0.72406 0.68214 0.0
C2989 C 0.9382 0.72274 0.69664 0.0
H2990 H 0.92739 0.74983 0.71802 0.0
C2991 C 0.9574 0.74814 0.74459 0.0
C2992 C 0.96995 0.75097 0.74174 0.0
C2993 C 0.94863 0.74486 0.73494 0.0
C2994 C 0.93056 0.74237 0.71199 0.0
H2995 H 0.90739 0.688 0.6842 0.0
H2996 H 0.92336 0.70061 0.69554 0.0
H2997 H 0.91192 0.73872 0.70433 0.0
H2998 H 0.98311 0.75304 0.72651 0.0
H2999 H 0.96772 0.74701 0.70951 0.0
H3000 H 0.95676 0.72611 0.70463 0.0
C3001 C 0.91612 0.70528 0.68987 0.0
C3002 C 0.92172 0.73605 0.70412 0.0
C3003 C 0.90696 0.69805 0.68335 0.0
C3004 C 0.97347 0.75097 0.72894 0.0
C3005 C 0.9647 0.74745 0.71926 0.0
C3006 C 0.94706 0.72914 0.70443 0.0
C3007 C 0.91579 0.71836 0.68934 0.0
C3008 C 0.92539 0.72595 0.69661 0.0
C3009 C 0.95225 0.74414 0.72221 0.0
C3010 C 0.94328 0.73881 0.71243 0.0
H3011 H 0.88976 0.72152 0.66982 0.0
H3012 H 0.90561 0.73412 0.68149 0.0
H3013 H 0.94133 0.71509 0.69084 0.0
H3014 H 0.95443 0.74809 0.75437 0.0
H3015 H 0.93917 0.74225 0.73756 0.0
C3016 C 0.6962 0.22352 0.62532 0.0
C3017 C 0.69826 0.21087 0.62821 0.0
C3018 C 0.69911 0.22837 0.61336 0.0
C3019 C 0.7055 0.21927 0.58014 0.0
H3020 H 0.72633 0.24922 0.57978 0.0
C3021 C 0.73947 0.22966 0.5404 0.0
C3022 C 0.74203 0.24197 0.53663 0.0
C3023 C 0.73143 0.22716 0.55033 0.0
C3024 C 0.72028 0.24102 0.57964 0.0
H3025 H 0.70486 0.1934 0.62057 0.0
H3026 H 0.70969 0.20178 0.59973 0.0
H3027 H 0.71728 0.24226 0.59971 0.0
H3028 H 0.73775 0.26136 0.54001 0.0
H3029 H 0.72355 0.25698 0.5576 0.0
H3030 H 0.70874 0.21782 0.56018 0.0
C3031 C 0.70573 0.20794 0.6067 0.0
C3032 C 0.71512 0.237 0.59108 0.0
C3033 C 0.70293 0.20312 0.61867 0.0
C3034 C 0.73591 0.25177 0.5427 0.0
C3035 C 0.72788 0.24926 0.55281 0.0
C3036 C 0.71059 0.22331 0.56872 0.0
C3037 C 0.70402 0.22066 0.60395 0.0
C3038 C 0.708 0.22587 0.59153 0.0
C3039 C 0.72571 0.23691 0.55686 0.0
C3040 C 0.7184 0.234 0.5684 0.0
H3041 H 0.6924 0.22973 0.63232 0.0
H3042 H 0.69755 0.23817 0.61148 0.0
H3043 H 0.69984 0.2108 0.58012 0.0
H3044 H 0.74399 0.22188 0.53589 0.0
H3045 H 0.73016 0.21756 0.55327 0.0
C3046 C 0.31902 0.18221 0.61996 0.0
C3047 C 0.32593 0.18921 0.62919 0.0
C3048 C 0.31155 0.18814 0.61059 0.0
C3049 C 0.2969 0.21859 0.60229 0.0
H3050 H 0.29955 0.20719 0.5674 0.0
C3051 C 0.28924 0.25057 0.55928 0.0
C3052 C 0.28276 0.2461 0.54828 0.0
C3053 C 0.292 0.24266 0.5695 0.0
C3054 C 0.2985 0.21034 0.57711 0.0
H3055 H 0.33001 0.20794 0.63606 0.0
H3056 H 0.31727 0.21827 0.61963 0.0
H3057 H 0.30921 0.19515 0.5848 0.0
H3058 H 0.27389 0.22983 0.53945 0.0
H3059 H 0.27899 0.21579 0.5574 0.0
H3060 H 0.28666 0.23406 0.59453 0.0
C3061 C 0.31748 0.20818 0.61967 0.0
C3062 C 0.30404 0.20345 0.5871 0.0
C3063 C 0.32493 0.20226 0.62902 0.0
C3064 C 0.27888 0.23353 0.54782 0.0
C3065 C 0.28184 0.22551 0.55804 0.0
C3066 C 0.29143 0.22549 0.59231 0.0
C3067 C 0.31079 0.20122 0.61024 0.0
C3068 C 0.3036 0.20767 0.59979 0.0
C3069 C 0.28848 0.23002 0.56897 0.0
C3070 C 0.29246 0.22163 0.57959 0.0
H3071 H 0.31966 0.17214 0.61972 0.0
H3072 H 0.30644 0.18247 0.60356 0.0
H3073 H 0.29611 0.22196 0.61196 0.0
H3074 H 0.29231 0.26022 0.55998 0.0
H3075 H 0.29726 0.2464 0.57768 0.0
C3076 C 0.33249 0.81824 0.62607 0.0
C3077 C 0.32618 0.82932 0.62889 0.0
C3078 C 0.3279 0.81028 0.61638 0.0
C3079 C 0.29934 0.80256 0.59637 0.0
H3080 H 0.32345 0.78847 0.57359 0.0
C3081 C 0.28405 0.77857 0.54887 0.0
C3082 C 0.29054 0.76784 0.54522 0.0
C3083 C 0.28825 0.78564 0.55942 0.0
C3084 C 0.31659 0.79219 0.57995 0.0
H3085 H 0.30983 0.84046 0.62391 0.0
H3086 H 0.30194 0.82668 0.60689 0.0
H3087 H 0.33089 0.80144 0.59142 0.0
H3088 H 0.30647 0.75609 0.55005 0.0
H3089 H 0.31379 0.76841 0.56843 0.0
H3090 H 0.28503 0.79337 0.58483 0.0
C3091 C 0.31041 0.8241 0.61224 0.0
C3092 C 0.32086 0.79963 0.5902 0.0
C3093 C 0.31501 0.83208 0.62192 0.0
C3094 C 0.30133 0.76437 0.55245 0.0
C3095 C 0.30554 0.77145 0.563 0.0
C3096 C 0.29506 0.79512 0.58612 0.0
C3097 C 0.31686 0.81316 0.60924 0.0
C3098 C 0.31229 0.80496 0.59852 0.0
C3099 C 0.29906 0.78219 0.56662 0.0
C3100 C 0.30363 0.78987 0.57774 0.0
H3101 H 0.34119 0.81587 0.63112 0.0
H3102 H 0.33303 0.80186 0.61445 0.0
H3103 H 0.29248 0.80635 0.60269 0.0
H3104 H 0.27584 0.78169 0.54345 0.0
H3105 H 0.28315 0.79397 0.56177 0.0
C3106 C 0.68064 0.82071 0.61038 0.0
C3107 C 0.66785 0.82392 0.60907 0.0
C3108 C 0.68626 0.8134 0.60111 0.0
C3109 C 0.67828 0.7911 0.57504 0.0
H3110 H 0.71175 0.79919 0.56356 0.0
C3111 C 0.69854 0.76873 0.53013 0.0
C3112 C 0.7114 0.76569 0.53044 0.0
C3113 C 0.69343 0.77545 0.54012 0.0
C3114 C 0.70246 0.7967 0.56677 0.0
H3115 H 0.6511 0.82234 0.59672 0.0
H3116 H 0.66085 0.80963 0.58067 0.0
H3117 H 0.70262 0.8117 0.58026 0.0
H3118 H 0.72884 0.76701 0.54174 0.0
H3119 H 0.71992 0.77867 0.55914 0.0
H3120 H 0.67808 0.77613 0.56155 0.0
C3121 C 0.66648 0.81251 0.58898 0.0
C3122 C 0.69723 0.80388 0.57635 0.0
C3123 C 0.66089 0.81981 0.5982 0.0
C3124 C 0.71896 0.76937 0.54107 0.0
C3125 C 0.71384 0.77608 0.55106 0.0
C3126 C 0.68351 0.78392 0.56548 0.0
C3127 C 0.67921 0.80914 0.59035 0.0
C3128 C 0.68503 0.80123 0.58052 0.0
C3129 C 0.70103 0.77926 0.55068 0.0
C3130 C 0.69563 0.78668 0.56115 0.0
H3131 H 0.68624 0.82363 0.61868 0.0
H3132 H 0.69605 0.81089 0.60251 0.0
H3133 H 0.66895 0.78866 0.57819 0.0
H3134 H 0.69248 0.76621 0.52203 0.0
H3135 H 0.68356 0.7779 0.53941 0.0
C3136 C 0.70576 0.81258 0.37622 0.0
C3137 C 0.69258 0.81218 0.37445 0.0
C3138 C 0.71141 0.80965 0.38804 0.0
C3139 C 0.70453 0.80502 0.42244 0.0
H3140 H 0.73622 0.78745 0.42257 0.0
C3141 C 0.73047 0.79171 0.46974 0.0
C3142 C 0.7362 0.77997 0.47022 0.0
C3143 C 0.72605 0.79666 0.4581 0.0
C3144 C 0.72732 0.79225 0.42275 0.0
H3145 H 0.67498 0.80845 0.38367 0.0
H3146 H 0.68482 0.80288 0.40422 0.0
H3147 H 0.72628 0.79357 0.40244 0.0
H3148 H 0.74202 0.76434 0.45877 0.0
H3149 H 0.73405 0.77272 0.43866 0.0
H3150 H 0.70524 0.80307 0.44273 0.0
C3151 C 0.69083 0.80577 0.39659 0.0
C3152 C 0.72168 0.79596 0.41116 0.0
C3153 C 0.68516 0.80889 0.38479 0.0
C3154 C 0.73774 0.77346 0.45876 0.0
C3155 C 0.7332 0.77832 0.44716 0.0
C3156 C 0.71009 0.80117 0.43404 0.0
C3157 C 0.70405 0.80605 0.39837 0.0
C3158 C 0.71017 0.80236 0.41081 0.0
C3159 C 0.72713 0.78992 0.44667 0.0
C3160 C 0.72154 0.79465 0.43436 0.0
H3161 H 0.71171 0.81531 0.36848 0.0
H3162 H 0.72158 0.81029 0.38906 0.0
H3163 H 0.69578 0.81009 0.42263 0.0
H3164 H 0.72919 0.79699 0.47839 0.0
H3165 H 0.72169 0.80573 0.4581 0.0
C3166 C 0.71426 0.18614 0.38303 0.0
C3167 C 0.70273 0.19138 0.37895 0.0
C3168 C 0.71991 0.18943 0.39481 0.0
C3169 C 0.72046 0.21458 0.41894 0.0
H3170 H 0.73772 0.1902 0.44022 0.0
C3171 C 0.74084 0.22708 0.4691 0.0
C3172 C 0.75273 0.22231 0.47267 0.0
C3173 C 0.73443 0.22292 0.45801 0.0
C3174 C 0.73305 0.19716 0.43433 0.0
H3175 H 0.68805 0.2041 0.3842 0.0
H3176 H 0.69778 0.20967 0.40484 0.0
H3177 H 0.72697 0.18357 0.4204 0.0
H3178 H 0.76715 0.20935 0.46729 0.0
H3179 H 0.756 0.20212 0.44793 0.0
H3180 H 0.7266 0.22819 0.43278 0.0
C3181 C 0.70254 0.20312 0.39885 0.0
C3182 C 0.72688 0.19335 0.42296 0.0
C3183 C 0.69687 0.19981 0.38707 0.0
C3184 C 0.75796 0.21313 0.46493 0.0
C3185 C 0.75155 0.20898 0.45382 0.0
C3186 C 0.72664 0.21839 0.43029 0.0
C3187 C 0.71419 0.19806 0.40282 0.0
C3188 C 0.72052 0.20202 0.4151 0.0
C3189 C 0.73973 0.21388 0.45017 0.0
C3190 C 0.73304 0.20974 0.43814 0.0
H3191 H 0.71896 0.17951 0.37709 0.0
H3192 H 0.72893 0.18542 0.3975 0.0
H3193 H 0.71587 0.22156 0.41302 0.0
H3194 H 0.7364 0.23397 0.47494 0.0
H3195 H 0.72525 0.22673 0.45565 0.0
C3196 C 0.31987 0.18286 0.40667 0.0
C3197 C 0.33025 0.18572 0.39916 0.0
C3198 C 0.31614 0.19109 0.41612 0.0
C3199 C 0.319 0.22383 0.42726 0.0
H3200 H 0.30987 0.20945 0.45963 0.0
C3201 C 0.31034 0.25374 0.47231 0.0
C3202 C 0.30017 0.2501 0.47979 0.0
C3203 C 0.31414 0.24621 0.46225 0.0
C3204 C 0.31226 0.21363 0.45062 0.0
H3205 H 0.34475 0.19961 0.39565 0.0
H3206 H 0.33822 0.21398 0.41215 0.0
H3207 H 0.31598 0.19587 0.44238 0.0
H3208 H 0.28613 0.23553 0.48254 0.0
H3209 H 0.29254 0.22265 0.46495 0.0
H3210 H 0.31526 0.24162 0.43556 0.0
C3211 C 0.33288 0.20542 0.41062 0.0
C3212 C 0.31575 0.20583 0.44071 0.0
C3213 C 0.33662 0.19717 0.40115 0.0
C3214 C 0.29388 0.23876 0.47693 0.0
C3215 C 0.29768 0.23126 0.46691 0.0
C3216 C 0.31549 0.23166 0.4372 0.0
C3217 C 0.32269 0.20239 0.41833 0.0
C3218 C 0.31909 0.21081 0.42887 0.0
C3219 C 0.30789 0.23484 0.45947 0.0
C3220 C 0.31199 0.22664 0.44897 0.0
H3221 H 0.31461 0.17423 0.40524 0.0
H3222 H 0.30808 0.18858 0.42171 0.0
H3223 H 0.32141 0.22797 0.41823 0.0
H3224 H 0.31533 0.26244 0.47418 0.0
H3225 H 0.3221 0.24921 0.45677 0.0
C3226 C 0.30757 0.81867 0.39834 0.0
C3227 C 0.30834 0.83176 0.39808 0.0
C3228 C 0.30034 0.81254 0.40737 0.0
C3229 C 0.28751 0.81663 0.43926 0.0
H3230 H 0.2699 0.78574 0.43064 0.0
C3231 C 0.26439 0.78483 0.47737 0.0
C3232 C 0.26833 0.7724 0.47658 0.0
C3233 C 0.2667 0.79321 0.46739 0.0
C3234 C 0.27473 0.79438 0.4332 0.0
H3235 H 0.30196 0.84866 0.40705 0.0
H3236 H 0.28922 0.83791 0.42278 0.0
H3237 H 0.27884 0.79837 0.41378 0.0
H3238 H 0.27721 0.75887 0.46451 0.0
H3239 H 0.28105 0.77328 0.44724 0.0
H3240 H 0.28368 0.8124 0.45876 0.0
C3241 C 0.29428 0.83241 0.41602 0.0
C3242 C 0.2799 0.80159 0.42354 0.0
C3243 C 0.30148 0.83857 0.40692 0.0
C3244 C 0.27412 0.76841 0.46546 0.0
C3245 C 0.27624 0.77666 0.45549 0.0
C3246 C 0.2823 0.8094 0.44894 0.0
C3247 C 0.2937 0.81931 0.4164 0.0
C3248 C 0.2867 0.81261 0.42648 0.0
C3249 C 0.27274 0.7892 0.45637 0.0
C3250 C 0.27621 0.798 0.44605 0.0
H3251 H 0.31263 0.81315 0.3916 0.0
H3252 H 0.30026 0.80244 0.40747 0.0
H3253 H 0.29274 0.82503 0.44188 0.0
H3254 H 0.25995 0.78816 0.48585 0.0
H3255 H 0.26388 0.80283 0.46831 0.0
C3256 C 0.63919 0.19134 0.71736 0.0
C3257 C 0.64219 0.1972 0.70582 0.0
C3258 C 0.62796 0.19403 0.72336 0.0
C3259 C 0.59622 0.20726 0.71788 0.0
H3260 H 0.59811 0.21348 0.75431 0.0
C3261 C 0.55558 0.23013 0.74429 0.0
C3262 C 0.55305 0.22613 0.75674 0.0
C3263 C 0.56611 0.22584 0.73802 0.0
C3264 C 0.59734 0.21159 0.74417 0.0
H3265 H 0.63557 0.21039 0.69152 0.0
H3266 H 0.61593 0.21496 0.70193 0.0
H3267 H 0.61694 0.20724 0.74339 0.0
H3268 H 0.55971 0.21429 0.77224 0.0
H3269 H 0.57788 0.20656 0.76119 0.0
H3270 H 0.57663 0.2116 0.71864 0.0
C3271 C 0.62225 0.20821 0.70627 0.0
C3272 C 0.60817 0.20802 0.73791 0.0
C3273 C 0.63351 0.20557 0.70029 0.0
C3274 C 0.56127 0.21754 0.76266 0.0
C3275 C 0.5718 0.21321 0.75636 0.0
C3276 C 0.58538 0.21077 0.72416 0.0
C3277 C 0.61941 0.20259 0.71796 0.0
C3278 C 0.60776 0.20591 0.72467 0.0
C3279 C 0.5744 0.21735 0.74398 0.0
C3280 C 0.58582 0.21308 0.73737 0.0
H3281 H 0.64552 0.18465 0.72178 0.0
H3282 H 0.62596 0.18937 0.73224 0.0
H3283 H 0.59555 0.20553 0.70771 0.0
H3284 H 0.54941 0.23658 0.73931 0.0
H3285 H 0.56785 0.22936 0.72857 0.0
C3286 C 0.33984 0.1118 0.69723 0.0
C3287 C 0.34141 0.12432 0.70102 0.0
C3288 C 0.33488 0.10294 0.7055 0.0
C3289 C 0.31576 0.09937 0.73405 0.0
H3290 H 0.33067 0.06654 0.73539 0.0
C3291 C 0.2915 0.05682 0.75721 0.0
C3292 C 0.29907 0.04831 0.76407 0.0
C3293 C 0.29694 0.06663 0.75045 0.0
C3294 C 0.32647 0.07569 0.73524 0.0
H3295 H 0.33889 0.1373 0.71655 0.0
H3296 H 0.33013 0.12181 0.73099 0.0
H3297 H 0.33967 0.08261 0.72189 0.0
H3298 H 0.31836 0.04361 0.76933 0.0
H3299 H 0.32786 0.0608 0.75763 0.0
H3300 H 0.30257 0.09243 0.74746 0.0
C3301 C 0.33269 0.1189 0.72155 0.0
C3302 C 0.33154 0.08487 0.72738 0.0
C3303 C 0.33769 0.12778 0.71326 0.0
C3304 C 0.31224 0.05001 0.76421 0.0
C3305 C 0.31769 0.0598 0.7574 0.0
C3306 C 0.31065 0.09016 0.74189 0.0
C3307 C 0.33131 0.10635 0.71779 0.0
C3308 C 0.32619 0.09678 0.7266 0.0
C3309 C 0.31011 0.06817 0.75034 0.0
C3310 C 0.31589 0.07818 0.74251 0.0
H3311 H 0.34233 0.10884 0.68778 0.0
H3312 H 0.33371 0.09342 0.70219 0.0
H3313 H 0.31136 0.10842 0.73362 0.0
H3314 H 0.28133 0.05591 0.75704 0.0
H3315 H 0.29082 0.07283 0.74504 0.0
C3316 C 0.39675 0.84485 0.71117 0.0
C3317 C 0.39299 0.83954 0.69937 0.0
C3318 C 0.40666 0.83975 0.71852 0.0
C3319 C 0.43464 0.81975 0.7156 0.0
H3320 H 0.43359 0.81785 0.75245 0.0
C3321 C 0.47189 0.79284 0.74545 0.0
C3322 C 0.47645 0.7982 0.75696 0.0
C3323 C 0.4616 0.79794 0.73872 0.0
C3324 C 0.43409 0.81844 0.74218 0.0
H3325 H 0.39642 0.82437 0.68632 0.0
H3326 H 0.41361 0.81545 0.69913 0.0
H3327 H 0.41572 0.82644 0.74027 0.0
H3328 H 0.47355 0.81311 0.77047 0.0
H3329 H 0.45567 0.82212 0.75863 0.0
H3330 H 0.45297 0.81175 0.71747 0.0
C3331 C 0.40909 0.82373 0.70259 0.0
C3332 C 0.42384 0.82336 0.73519 0.0
C3333 C 0.39921 0.82884 0.69524 0.0
C3334 C 0.47037 0.80879 0.7616 0.0
C3335 C 0.46003 0.81388 0.75487 0.0
C3336 C 0.44486 0.81482 0.72258 0.0
C3337 C 0.41305 0.82919 0.71426 0.0
C3338 C 0.42396 0.82403 0.72179 0.0
C3339 C 0.45556 0.80855 0.74331 0.0
C3340 C 0.44471 0.81404 0.73595 0.0
H3341 H 0.39228 0.85319 0.71457 0.0
H3342 H 0.40953 0.84429 0.72738 0.0
H3343 H 0.43519 0.82035 0.70533 0.0
H3344 H 0.47638 0.78479 0.74147 0.0
H3345 H 0.45833 0.79349 0.72994 0.0
C3346 C 0.66497 0.90822 0.67709 0.0
C3347 C 0.66883 0.89581 0.67872 0.0
C3348 C 0.67041 0.91779 0.68455 0.0
C3349 C 0.68865 0.92389 0.7147 0.0
H3350 H 0.69536 0.95579 0.69875 0.0
C3351 C 0.70378 0.96786 0.74383 0.0
C3352 C 0.71295 0.9758 0.73864 0.0
C3353 C 0.6985 0.95797 0.73668 0.0
C3354 C 0.69366 0.94692 0.70335 0.0
H3355 H 0.6815 0.88377 0.6895 0.0
H3356 H 0.69107 0.9005 0.70248 0.0
H3357 H 0.68639 0.93874 0.686 0.0
H3358 H 0.72358 0.9795 0.7217 0.0
H3359 H 0.71465 0.96216 0.70942 0.0
H3360 H 0.69621 0.93203 0.732 0.0
C3361 C 0.6837 0.9028 0.69553 0.0
C3362 C 0.68835 0.93717 0.69606 0.0
C3363 C 0.67822 0.89321 0.68808 0.0
C3364 C 0.71668 0.97355 0.72611 0.0
C3365 C 0.71142 0.96366 0.71898 0.0
C3366 C 0.69398 0.93366 0.722 0.0
C3367 C 0.67988 0.91523 0.69383 0.0
C3368 C 0.68574 0.92553 0.70163 0.0
C3369 C 0.70224 0.95575 0.72414 0.0
C3370 C 0.69655 0.94531 0.71642 0.0
H3371 H 0.65758 0.91054 0.67017 0.0
H3372 H 0.66703 0.92719 0.68314 0.0
H3373 H 0.68666 0.9151 0.71934 0.0
H3374 H 0.70075 0.9692 0.75347 0.0
H3375 H 0.69137 0.95215 0.74093 0.0
C3376 C 0.60843 0.81531 0.3147 0.0
C3377 C 0.61773 0.81755 0.30572 0.0
C3378 C 0.59614 0.81187 0.31074 0.0
C3379 C 0.57851 0.79736 0.28353 0.0
H3380 H 0.54932 0.80787 0.30183 0.0
C3381 C 0.52846 0.77804 0.27069 0.0
C3382 C 0.52188 0.77375 0.28128 0.0
C3383 C 0.53931 0.78556 0.27244 0.0
C3384 C 0.55738 0.80483 0.29662 0.0
H3385 H 0.6212 0.81854 0.28548 0.0
H3386 H 0.5998 0.81259 0.27859 0.0
H3387 H 0.57003 0.81679 0.30741 0.0
H3388 H 0.52107 0.77457 0.30189 0.0
H3389 H 0.53978 0.78757 0.30491 0.0
H3390 H 0.56592 0.78517 0.27297 0.0
C3391 C 0.60206 0.81323 0.28871 0.0
C3392 C 0.56926 0.80992 0.29985 0.0
C3393 C 0.61433 0.81665 0.29267 0.0
C3394 C 0.52595 0.77768 0.29353 0.0
C3395 C 0.53666 0.78523 0.29526 0.0
C3396 C 0.56662 0.79227 0.2803 0.0
C3397 C 0.59284 0.81063 0.29769 0.0
C3398 C 0.58002 0.80607 0.29352 0.0
C3399 C 0.54367 0.78904 0.28479 0.0
C3400 C 0.55594 0.79573 0.28699 0.0
H3401 H 0.61075 0.81579 0.32482 0.0
H3402 H 0.58935 0.80978 0.31794 0.0
H3403 H 0.58659 0.79406 0.27854 0.0
H3404 H 0.52558 0.77513 0.26114 0.0
H3405 H 0.54443 0.78844 0.26416 0.0
C3406 C 0.68861 0.11799 0.31349 0.0
C3407 C 0.68897 0.12871 0.3058 0.0
C3408 C 0.69261 0.10651 0.30887 0.0
C3409 C 0.70003 0.08903 0.27947 0.0
H3410 H 0.72136 0.07018 0.30292 0.0
C3411 C 0.73055 0.04645 0.26491 0.0
C3412 C 0.73233 0.03709 0.27414 0.0
C3413 C 0.72368 0.05717 0.26776 0.0
C3414 C 0.71525 0.07518 0.29628 0.0
H3415 H 0.6936 0.13564 0.28707 0.0
H3416 H 0.70054 0.1156 0.27903 0.0
H3417 H 0.71239 0.08961 0.30987 0.0
H3418 H 0.72749 0.03104 0.29306 0.0
H3419 H 0.71517 0.04931 0.29782 0.0
H3420 H 0.70307 0.07452 0.26582 0.0
C3421 C 0.69704 0.11606 0.28859 0.0
C3422 C 0.7101 0.08637 0.30029 0.0
C3423 C 0.69305 0.12756 0.29322 0.0
C3424 C 0.72637 0.03818 0.28582 0.0
C3425 C 0.71941 0.04872 0.28859 0.0
C3426 C 0.70519 0.07775 0.27544 0.0
C3427 C 0.69708 0.10543 0.29644 0.0
C3428 C 0.70238 0.09343 0.29199 0.0
C3429 C 0.71842 0.05861 0.27984 0.0
C3430 C 0.7128 0.07064 0.28384 0.0
H3431 H 0.6853 0.11847 0.32313 0.0
H3432 H 0.69227 0.09846 0.31509 0.0
H3433 H 0.69407 0.09421 0.27285 0.0
H3434 H 0.73516 0.04588 0.25587 0.0
H3435 H 0.72311 0.0646 0.26079 0.0
C3436 C 0.39461 0.1837 0.32873 0.0
C3437 C 0.38706 0.1734 0.32496 0.0
C3438 C 0.40346 0.18875 0.32055 0.0
C3439 C 0.42227 0.18062 0.2928 0.0
H3440 H 0.42838 0.2163 0.29137 0.0
C3441 C 0.45788 0.20286 0.25849 0.0
C3442 C 0.46573 0.21243 0.26355 0.0
C3443 C 0.4477 0.19829 0.26533 0.0
C3444 C 0.42686 0.2063 0.29173 0.0
H3445 H 0.38281 0.16044 0.30949 0.0
H3446 H 0.39811 0.1694 0.29511 0.0
H3447 H 0.41152 0.2081 0.30434 0.0
H3448 H 0.46902 0.22454 0.27992 0.0
H3449 H 0.45132 0.21664 0.29176 0.0
H3450 H 0.43768 0.17882 0.28028 0.0
C3451 C 0.39728 0.17348 0.30448 0.0
C3452 C 0.41719 0.2016 0.29917 0.0
C3453 C 0.3884 0.16843 0.31268 0.0
C3454 C 0.46309 0.21734 0.27559 0.0
C3455 C 0.45291 0.21279 0.28241 0.0
C3456 C 0.43193 0.18532 0.28534 0.0
C3457 C 0.40499 0.18363 0.30836 0.0
C3458 C 0.41485 0.18869 0.2999 0.0
C3459 C 0.4451 0.20319 0.27738 0.0
C3460 C 0.43443 0.19822 0.28482 0.0
H3461 H 0.39372 0.18785 0.33807 0.0
H3462 H 0.40932 0.19649 0.3239 0.0
H3463 H 0.42085 0.17062 0.29327 0.0
H3464 H 0.45951 0.19896 0.24919 0.0
H3465 H 0.44177 0.191 0.26111 0.0
C3466 C 0.32493 0.90446 0.31914 0.0
C3467 C 0.31836 0.89436 0.32449 0.0
C3468 C 0.31869 0.91296 0.31111 0.0
C3469 C 0.28918 0.91733 0.29158 0.0
H3470 H 0.29541 0.95252 0.29797 0.0
C3471 C 0.25244 0.95469 0.28095 0.0
C3472 C 0.25613 0.96653 0.27662 0.0
C3473 C 0.26137 0.94566 0.28396 0.0
C3474 C 0.29374 0.94274 0.29586 0.0
H3475 H 0.30005 0.88527 0.32543 0.0
H3476 H 0.28919 0.90005 0.31147 0.0
H3477 H 0.30852 0.93704 0.30888 0.0
H3478 H 0.27209 0.9781 0.27163 0.0
H3479 H 0.28792 0.96222 0.27712 0.0
H3480 H 0.2741 0.92304 0.27893 0.0
C3481 C 0.29923 0.90131 0.31332 0.0
C3482 C 0.30124 0.93385 0.30213 0.0
C3483 C 0.30546 0.89282 0.32135 0.0
C3484 C 0.26899 0.96902 0.27489 0.0
C3485 C 0.27802 0.95998 0.27811 0.0
C3486 C 0.28168 0.92621 0.28534 0.0
C3487 C 0.30573 0.91157 0.30819 0.0
C3488 C 0.29882 0.92102 0.30034 0.0
C3489 C 0.27429 0.94826 0.28286 0.0
C3490 C 0.28364 0.93901 0.28768 0.0
H3491 H 0.33492 0.90581 0.32117 0.0
H3492 H 0.32403 0.92065 0.30719 0.0
H3493 H 0.28724 0.90754 0.28975 0.0
H3494 H 0.24258 0.95248 0.28232 0.0
H3495 H 0.25816 0.93682 0.28772 0.0
C3496 C 0.72013 0.13057 0.68661 0.0
C3497 C 0.70827 0.13541 0.68946 0.0
C3498 C 0.72366 0.11867 0.6908 0.0
C3499 C 0.71596 0.09576 0.71577 0.0
H3500 H 0.73501 0.07254 0.69585 0.0
C3501 C 0.72116 0.0454 0.73165 0.0
C3502 C 0.7333 0.0403 0.73206 0.0
C3503 C 0.71877 0.05655 0.72528 0.0
C3504 C 0.7298 0.07899 0.70155 0.0
H3505 H 0.69071 0.13124 0.69871 0.0
H3506 H 0.69667 0.11048 0.70561 0.0
H3507 H 0.72932 0.09289 0.68682 0.0
H3508 H 0.75232 0.04258 0.72546 0.0
H3509 H 0.74809 0.0623 0.71419 0.0
H3510 H 0.7163 0.08194 0.73043 0.0
C3511 C 0.70337 0.11597 0.70035 0.0
C3512 C 0.72653 0.09064 0.69639 0.0
C3513 C 0.69987 0.12784 0.69621 0.0
C3514 C 0.74288 0.04629 0.72531 0.0
C3515 C 0.74046 0.05756 0.71888 0.0
C3516 C 0.71916 0.08418 0.72087 0.0
C3517 C 0.71541 0.11132 0.69795 0.0
C3518 C 0.7194 0.09909 0.70339 0.0
C3519 C 0.72844 0.06297 0.71914 0.0
C3520 C 0.72593 0.07556 0.71377 0.0
H3521 H 0.72678 0.13605 0.68128 0.0
H3522 H 0.733 0.1154 0.68879 0.0
H3523 H 0.7108 0.10214 0.72159 0.0
H3524 H 0.7135 0.04094 0.73657 0.0
H3525 H 0.70934 0.0603 0.72539 0.0
C3526 C 0.69862 0.88812 0.32709 0.0
C3527 C 0.69049 0.88254 0.31782 0.0
C3528 C 0.70422 0.89975 0.32489 0.0
C3529 C 0.70168 0.92834 0.30572 0.0
H3530 H 0.73794 0.93063 0.31126 0.0
C3531 C 0.73094 0.96956 0.28653 0.0
C3532 C 0.74166 0.97377 0.29362 0.0
C3533 C 0.72431 0.95887 0.29017 0.0
C3534 C 0.72778 0.93027 0.30986 0.0
H3535 H 0.68164 0.88512 0.29906 0.0
H3536 H 0.69115 0.90557 0.29543 0.0
H3537 H 0.72679 0.91145 0.3166 0.0
H3538 H 0.75356 0.9699 0.31036 0.0
H3539 H 0.74174 0.95164 0.31693 0.0
H3540 H 0.70259 0.94719 0.29913 0.0
C3541 C 0.69319 0.90087 0.30438 0.0
C3542 C 0.72141 0.91924 0.3129 0.0
C3543 C 0.6877 0.88916 0.30651 0.0
C3544 C 0.74536 0.96708 0.30463 0.0
C3545 C 0.73865 0.95645 0.30834 0.0
C3546 C 0.70803 0.93944 0.30282 0.0
C3547 C 0.70169 0.90618 0.31345 0.0
C3548 C 0.70831 0.91812 0.31076 0.0
C3549 C 0.72808 0.95213 0.3011 0.0
C3550 C 0.7212 0.94052 0.30474 0.0
H3551 H 0.70078 0.88346 0.33603 0.0
H3552 H 0.71059 0.90371 0.33213 0.0
H3553 H 0.69155 0.92778 0.3041 0.0
H3554 H 0.72759 0.97446 0.27811 0.0
H3555 H 0.71634 0.95579 0.28423 0.0
C3556 C 0.62275 0.2126 0.32031 0.0
C3557 C 0.62597 0.20012 0.31796 0.0
C3558 C 0.61066 0.21695 0.31714 0.0
C3559 C 0.57786 0.20642 0.30973 0.0
H3560 H 0.57523 0.23715 0.29041 0.0
C3561 C 0.53526 0.21699 0.2769 0.0
C3562 C 0.53116 0.2293 0.27515 0.0
C3563 C 0.54591 0.21441 0.28452 0.0
C3564 C 0.57574 0.22869 0.29603 0.0
H3565 H 0.61878 0.18246 0.31049 0.0
H3566 H 0.59772 0.18999 0.30521 0.0
H3567 H 0.59572 0.23068 0.29917 0.0
H3568 H 0.53479 0.24855 0.28045 0.0
H3569 H 0.55356 0.24404 0.29392 0.0
H3570 H 0.55796 0.20427 0.30642 0.0
C3571 C 0.60454 0.19639 0.30959 0.0
C3572 C 0.58751 0.22496 0.30102 0.0
C3573 C 0.61664 0.19205 0.31266 0.0
C3574 C 0.5377 0.23897 0.28165 0.0
C3575 C 0.5485 0.23639 0.28926 0.0
C3576 C 0.56611 0.21017 0.30481 0.0
C3577 C 0.60143 0.20892 0.31167 0.0
C3578 C 0.58876 0.21361 0.30764 0.0
C3579 C 0.55284 0.22407 0.29062 0.0
C3580 C 0.56494 0.22117 0.29757 0.0
H3581 H 0.62959 0.21904 0.32459 0.0
H3582 H 0.60853 0.22662 0.31901 0.0
H3583 H 0.57845 0.19776 0.31501 0.0
H3584 H 0.53042 0.2093 0.27207 0.0
H3585 H 0.54902 0.20485 0.28515 0.0
C3586 C 0.31549 0.10554 0.32615 0.0
C3587 C 0.31347 0.11143 0.33787 0.0
C3588 C 0.30737 0.09605 0.32165 0.0
C3589 C 0.27558 0.08208 0.32523 0.0
H3590 H 0.29086 0.05296 0.31058 0.0
C3591 C 0.24706 0.03697 0.31219 0.0
C3592 C 0.25004 0.03092 0.3008 0.0
C3593 C 0.25449 0.04694 0.31689 0.0
C3594 C 0.28641 0.06108 0.3145 0.0
H3595 H 0.30116 0.11201 0.35396 0.0
H3596 H 0.28695 0.09548 0.34606 0.0
H3597 H 0.30418 0.07022 0.31816 0.0
H3598 H 0.26337 0.03067 0.28553 0.0
H3599 H 0.27603 0.04812 0.2935 0.0
H3600 H 0.25778 0.07291 0.32151 0.0
C3601 C 0.29477 0.0983 0.3403 0.0
C3602 C 0.29406 0.07098 0.31885 0.0
C3603 C 0.30292 0.10779 0.34482 0.0
C3604 C 0.26063 0.03514 0.29423 0.0
C3605 C 0.26803 0.04508 0.29891 0.0
C3606 C 0.2679 0.07216 0.32084 0.0
C3607 C 0.297 0.0922 0.32873 0.0
C3608 C 0.28875 0.08164 0.32421 0.0
C3609 C 0.26511 0.05109 0.31033 0.0
C3610 C 0.27322 0.06156 0.31535 0.0
H3611 H 0.32338 0.10826 0.32043 0.0
H3612 H 0.30922 0.09172 0.31258 0.0
H3613 H 0.27118 0.0902 0.3292 0.0
H3614 H 0.23893 0.03405 0.31746 0.0
H3615 H 0.25202 0.05129 0.32577 0.0
C3616 C 0.38986 0.83005 0.32827 0.0
C3617 C 0.38105 0.82538 0.33684 0.0
C3618 C 0.39899 0.82227 0.32333 0.0
C3619 C 0.40729 0.78893 0.31897 0.0
H3620 H 0.44099 0.80263 0.3155 0.0
C3621 C 0.45065 0.75843 0.30882 0.0
C3622 C 0.45912 0.76305 0.29987 0.0
C3623 C 0.44085 0.76585 0.31304 0.0
C3624 C 0.4316 0.79869 0.31629 0.0
H3625 H 0.3749 0.80885 0.34688 0.0
H3626 H 0.39091 0.79531 0.3384 0.0
H3627 H 0.42439 0.81582 0.32327 0.0
H3628 H 0.46395 0.77916 0.28846 0.0
H3629 H 0.44686 0.79204 0.29575 0.0
H3630 H 0.41464 0.77173 0.31215 0.0
C3631 C 0.39064 0.80493 0.3353 0.0
C3632 C 0.42205 0.80627 0.32072 0.0
C3633 C 0.38145 0.8127 0.34018 0.0
C3634 C 0.45754 0.77525 0.29525 0.0
C3635 C 0.44781 0.78269 0.29953 0.0
C3636 C 0.41688 0.78133 0.31461 0.0
C3637 C 0.39961 0.80964 0.3269 0.0
C3638 C 0.40975 0.80151 0.3221 0.0
C3639 C 0.43936 0.7781 0.3085 0.0
C3640 C 0.42914 0.78613 0.31319 0.0
H3641 H 0.38968 0.83973 0.32536 0.0
H3642 H 0.40555 0.82618 0.31668 0.0
H3643 H 0.39791 0.78498 0.31973 0.0
H3644 H 0.45153 0.74905 0.31249 0.0
H3645 H 0.43456 0.76207 0.32002 0.0
C3646 C 0.32857 0.90903 0.70649 0.0
C3647 C 0.3237 0.90423 0.69484 0.0
C3648 C 0.32269 0.9189 0.71251 0.0
C3649 C 0.293 0.93614 0.71479 0.0
H3650 H 0.31539 0.96204 0.72847 0.0
C3651 C 0.27566 0.9809 0.74094 0.0
C3652 C 0.28257 0.98382 0.75225 0.0
C3653 C 0.27989 0.97163 0.73266 0.0
C3654 C 0.30899 0.95487 0.72476 0.0
H3655 H 0.30851 0.90587 0.68063 0.0
H3656 H 0.29813 0.92308 0.69128 0.0
H3657 H 0.32404 0.94474 0.71675 0.0
H3658 H 0.29929 0.97918 0.76369 0.0
H3659 H 0.30648 0.96324 0.74948 0.0
H3660 H 0.27796 0.94626 0.7231 0.0
C3661 C 0.30654 0.91916 0.6957 0.0
C3662 C 0.31396 0.94493 0.71805 0.0
C3663 C 0.31248 0.90927 0.68963 0.0
C3664 C 0.29372 0.97728 0.75507 0.0
C3665 C 0.29793 0.96814 0.74684 0.0
C3666 C 0.288 0.94612 0.72157 0.0
C3667 C 0.31174 0.92424 0.70709 0.0
C3668 C 0.30609 0.93529 0.71324 0.0
C3669 C 0.29114 0.96522 0.7355 0.0
C3670 C 0.296 0.95544 0.72691 0.0
H3671 H 0.33701 0.9052 0.71096 0.0
H3672 H 0.32677 0.92239 0.72143 0.0
H3673 H 0.28669 0.92885 0.71119 0.0
H3674 H 0.26702 0.98574 0.73852 0.0
H3675 H 0.27445 0.96959 0.72398 0.0
C3676 C 0.60933 0.81839 0.68955 0.0
C3677 C 0.60573 0.82306 0.67749 0.0
C3678 C 0.60114 0.8107 0.69625 0.0
C3679 C 0.56729 0.8024 0.6983 0.0
H3680 H 0.58034 0.77652 0.7207 0.0
C3681 C 0.53521 0.77401 0.73168 0.0
C3682 C 0.53953 0.77474 0.74446 0.0
C3683 C 0.54317 0.77756 0.72185 0.0
C3684 C 0.57655 0.78366 0.71442 0.0
H3685 H 0.59088 0.82301 0.66281 0.0
H3686 H 0.57662 0.80945 0.67442 0.0
H3687 H 0.59453 0.78743 0.70653 0.0
H3688 H 0.55567 0.77898 0.75697 0.0
H3689 H 0.56954 0.78488 0.73992 0.0
H3690 H 0.54934 0.79872 0.70639 0.0
C3691 C 0.58567 0.81194 0.67884 0.0
C3692 C 0.58469 0.78999 0.70637 0.0
C3693 C 0.59384 0.81971 0.67218 0.0
C3694 C 0.55208 0.77838 0.74719 0.0
C3695 C 0.56006 0.78168 0.73743 0.0
C3696 C 0.55913 0.796 0.70628 0.0
C3697 C 0.58917 0.8074 0.69101 0.0
C3698 C 0.58025 0.79969 0.69847 0.0
C3699 C 0.55562 0.78161 0.72468 0.0
C3700 C 0.56375 0.7868 0.71468 0.0
H3701 H 0.61838 0.82092 0.69395 0.0
H3702 H 0.60408 0.8076 0.7057 0.0
H3703 H 0.56353 0.80989 0.69245 0.0
H3704 H 0.52555 0.77129 0.72934 0.0
H3705 H 0.53953 0.7774 0.71209 0.0
C3706 C 0.40584 0.20542 0.68923 0.0
C3707 C 0.40544 0.19233 0.68998 0.0
C3708 C 0.41598 0.21221 0.69479 0.0
C3709 C 0.44916 0.20809 0.70617 0.0
H3710 H 0.44427 0.23847 0.72534 0.0
C3711 C 0.48489 0.22585 0.74398 0.0
C3712 C 0.48785 0.23863 0.74471 0.0
C3713 C 0.47536 0.22145 0.73566 0.0
C3714 C 0.4458 0.23012 0.71982 0.0
H3715 H 0.41507 0.17616 0.69771 0.0
H3716 H 0.4326 0.1879 0.70743 0.0
H3717 H 0.42622 0.22832 0.71428 0.0
H3718 H 0.48319 0.25686 0.73717 0.0
H3719 H 0.46619 0.24911 0.7226 0.0
H3720 H 0.46862 0.20963 0.71203 0.0
C3721 C 0.4253 0.19296 0.70225 0.0
C3722 C 0.43547 0.22429 0.71351 0.0
C3723 C 0.41522 0.18621 0.6967 0.0
C3724 C 0.48115 0.24695 0.73675 0.0
C3725 C 0.47139 0.24253 0.7285 0.0
C3726 C 0.45943 0.21387 0.7125 0.0
C3727 C 0.42593 0.20603 0.70123 0.0
C3728 C 0.43698 0.21302 0.70688 0.0
C3729 C 0.4684 0.22971 0.72791 0.0
C3730 C 0.45782 0.22477 0.71967 0.0
H3731 H 0.39849 0.21041 0.68405 0.0
H3732 H 0.41618 0.22225 0.69378 0.0
H3733 H 0.45075 0.19962 0.70087 0.0
H3734 H 0.48989 0.21918 0.74996 0.0
H3735 H 0.47319 0.21155 0.73555 0.0
C3736 C 0.67691 0.72485 0.12774 0.0
C3737 C 0.67822 0.71185 0.12886 0.0
C3738 C 0.67925 0.73092 0.11625 0.0
C3739 C 0.68405 0.72527 0.08155 0.0
H3740 H 0.70041 0.75776 0.08357 0.0
C3741 C 0.70906 0.74896 0.0394 0.0
C3742 C 0.70658 0.76165 0.0373 0.0
C3743 C 0.70455 0.74286 0.05014 0.0
C3744 C 0.69573 0.74875 0.08286 0.0
H3745 H 0.68265 0.69506 0.11845 0.0
H3746 H 0.68733 0.70568 0.09869 0.0
H3747 H 0.69462 0.74716 0.10307 0.0
H3748 H 0.6974 0.77788 0.0448 0.0
H3749 H 0.68964 0.76726 0.0637 0.0
H3750 H 0.68567 0.72676 0.06128 0.0
C3751 C 0.68424 0.71119 0.10662 0.0
C3752 C 0.69234 0.74266 0.09404 0.0
C3753 C 0.68173 0.70509 0.11806 0.0
C3754 C 0.69937 0.76808 0.04611 0.0
C3755 C 0.69502 0.76203 0.05696 0.0
C3756 C 0.68761 0.73129 0.07037 0.0
C3757 C 0.68315 0.72422 0.10557 0.0
C3758 C 0.68646 0.73082 0.09357 0.0
C3759 C 0.69762 0.74937 0.05912 0.0
C3760 C 0.6935 0.74309 0.07092 0.0
H3761 H 0.67439 0.73045 0.13583 0.0
H3762 H 0.67806 0.74093 0.11579 0.0
H3763 H 0.67934 0.71628 0.08074 0.0
H3764 H 0.71452 0.74376 0.03271 0.0
H3765 H 0.70676 0.73312 0.0516 0.0
C3766 C 0.30601 0.67597 0.10993 0.0
C3767 C 0.31328 0.68299 0.11887 0.0
C3768 C 0.29886 0.68188 0.10029 0.0
C3769 C 0.28546 0.71254 0.09087 0.0
H3770 H 0.28765 0.69997 0.05636 0.0
C3771 C 0.27757 0.74349 0.04704 0.0
C3772 C 0.27124 0.73872 0.03609 0.0
C3773 C 0.28039 0.73583 0.05745 0.0
C3774 C 0.28673 0.70348 0.06596 0.0
H3775 H 0.31834 0.70177 0.12492 0.0
H3776 H 0.30607 0.71206 0.10806 0.0
H3777 H 0.29698 0.68819 0.07414 0.0
H3778 H 0.26268 0.72215 0.02756 0.0
H3779 H 0.26778 0.70857 0.04586 0.0
H3780 H 0.27558 0.72802 0.08267 0.0
C3781 C 0.30579 0.70197 0.10853 0.0
C3782 C 0.2921 0.69673 0.07617 0.0
C3783 C 0.31296 0.69607 0.11812 0.0
C3784 C 0.26755 0.72609 0.03588 0.0
C3785 C 0.27053 0.71832 0.04631 0.0
C3786 C 0.28014 0.71928 0.08069 0.0
C3787 C 0.29876 0.69496 0.09939 0.0
C3788 C 0.29181 0.70135 0.08872 0.0
C3789 C 0.27704 0.72312 0.05719 0.0
C3790 C 0.28099 0.715 0.06808 0.0
H3791 H 0.30613 0.66588 0.11015 0.0
H3792 H 0.29347 0.67619 0.09349 0.0
H3793 H 0.28481 0.71624 0.10043 0.0
H3794 H 0.2805 0.75319 0.04757 0.0
H3795 H 0.28556 0.73981 0.06557 0.0
C3796 C 0.32524 0.31032 0.12941 0.0
C3797 C 0.33326 0.3204 0.12648 0.0
C3798 C 0.32022 0.30254 0.11974 0.0
C3799 C 0.31243 0.30251 0.08528 0.0
H3800 H 0.30963 0.26667 0.0893 0.0
C3801 C 0.29181 0.27198 0.04447 0.0
C3802 C 0.2832 0.26257 0.04785 0.0
C3803 C 0.29939 0.278 0.05379 0.0
C3804 C 0.31025 0.27668 0.08805 0.0
H3805 H 0.34269 0.3298 0.11107 0.0
H3806 H 0.33382 0.31636 0.09427 0.0
H3807 H 0.31973 0.27924 0.10625 0.0
H3808 H 0.2763 0.25172 0.06367 0.0
H3809 H 0.2893 0.26234 0.07992 0.0
H3810 H 0.3027 0.30009 0.0673 0.0
C3811 C 0.33126 0.31459 0.10402 0.0
C3812 C 0.31605 0.28388 0.09778 0.0
C3813 C 0.33632 0.32232 0.11367 0.0
C3814 C 0.28284 0.2589 0.0607 0.0
C3815 C 0.29035 0.26499 0.07005 0.0
C3816 C 0.30658 0.29534 0.07561 0.0
C3817 C 0.32306 0.30468 0.10691 0.0
C3818 C 0.31717 0.29689 0.09651 0.0
C3819 C 0.29849 0.27485 0.06676 0.0
C3820 C 0.30536 0.28232 0.07686 0.0
H3821 H 0.32257 0.30863 0.13913 0.0
H3822 H 0.31383 0.29506 0.12227 0.0
H3823 H 0.31295 0.31253 0.08408 0.0
H3824 H 0.29241 0.27498 0.03465 0.0
H3825 H 0.30576 0.28534 0.05085 0.0
C3826 C 0.69621 0.32394 0.12188 0.0
C3827 C 0.6861 0.33184 0.1187 0.0
C3828 C 0.70209 0.31712 0.11241 0.0
C3829 C 0.69615 0.3044 0.08009 0.0
H3830 H 0.73249 0.30132 0.0795 0.0
C3831 C 0.71991 0.27069 0.04575 0.0
C3832 C 0.73044 0.27526 0.03932 0.0
C3833 C 0.71493 0.2774 0.05579 0.0
C3834 C 0.72233 0.30214 0.07951 0.0
H3835 H 0.67424 0.33869 0.10306 0.0
H3836 H 0.68457 0.32695 0.0866 0.0
H3837 H 0.72304 0.31367 0.09624 0.0
H3838 H 0.74401 0.29053 0.03861 0.0
H3839 H 0.73535 0.30217 0.05618 0.0
H3840 H 0.69539 0.29304 0.06332 0.0
C3841 C 0.68792 0.32597 0.09641 0.0
C3842 C 0.71692 0.30911 0.08917 0.0
C3843 C 0.68209 0.33282 0.10584 0.0
C3844 C 0.736 0.28663 0.04339 0.0
C3845 C 0.73103 0.29332 0.05348 0.0
C3846 C 0.70154 0.29739 0.07051 0.0
C3847 C 0.69792 0.31797 0.09958 0.0
C3848 C 0.70376 0.31038 0.08952 0.0
C3849 C 0.72036 0.28884 0.05972 0.0
C3850 C 0.7147 0.29619 0.07007 0.0
H3851 H 0.69957 0.32303 0.13169 0.0
H3852 H 0.70973 0.31098 0.11517 0.0
H3853 H 0.68598 0.30507 0.08017 0.0
H3854 H 0.71553 0.26187 0.0431 0.0
H3855 H 0.70684 0.27358 0.06054 0.0
C3856 C 0.69734 0.31345 0.88883 0.0
C3857 C 0.7027 0.32383 0.88273 0.0
C3858 C 0.70267 0.30887 0.90025 0.0
C3859 C 0.72405 0.31727 0.92761 0.0
H3860 H 0.72805 0.28152 0.93079 0.0
C3861 C 0.75473 0.29526 0.96812 0.0
C3862 C 0.75061 0.28394 0.97341 0.0
C3863 C 0.74853 0.30028 0.95735 0.0
C3864 C 0.72686 0.29151 0.93017 0.0
H3865 H 0.7179 0.33755 0.88405 0.0
H3866 H 0.72705 0.32966 0.90401 0.0
H3867 H 0.71767 0.29008 0.91174 0.0
H3868 H 0.73657 0.26912 0.97159 0.0
H3869 H 0.72563 0.27798 0.953 0.0
H3870 H 0.73319 0.31872 0.94605 0.0
C3871 C 0.71865 0.32512 0.9 0.0
C3872 C 0.7209 0.29642 0.91922 0.0
C3873 C 0.71336 0.32967 0.88854 0.0
C3874 C 0.74006 0.27782 0.96773 0.0
C3875 C 0.73382 0.28287 0.957 0.0
C3876 C 0.72995 0.31236 0.9386 0.0
C3877 C 0.71345 0.31458 0.90592 0.0
C3878 C 0.71947 0.30937 0.91777 0.0
C3879 C 0.73799 0.29415 0.95162 0.0
C3880 C 0.73149 0.29941 0.94001 0.0
H3881 H 0.68901 0.30884 0.88478 0.0
H3882 H 0.6983 0.30085 0.90467 0.0
H3883 H 0.72296 0.32727 0.92687 0.0
H3884 H 0.76286 0.3002 0.97221 0.0
H3885 H 0.75215 0.30888 0.95339 0.0
C3886 C 0.7244 0.69277 0.88975 0.0
C3887 C 0.712 0.69341 0.88462 0.0
C3888 C 0.72756 0.69802 0.90167 0.0
C3889 C 0.71348 0.70961 0.93134 0.0
H3890 H 0.74369 0.73025 0.93443 0.0
C3891 C 0.71922 0.74853 0.96842 0.0
C3892 C 0.73099 0.75074 0.97459 0.0
C3893 C 0.71788 0.73975 0.95866 0.0
C3894 C 0.73535 0.72434 0.93381 0.0
H3895 H 0.69322 0.70009 0.88813 0.0
H3896 H 0.69868 0.70912 0.90886 0.0
H3897 H 0.73944 0.71816 0.91499 0.0
H3898 H 0.75059 0.74529 0.97544 0.0
H3899 H 0.74825 0.72988 0.95815 0.0
H3900 H 0.7092 0.71606 0.94999 0.0
C3901 C 0.70595 0.70441 0.90376 0.0
C3902 C 0.73289 0.71741 0.92266 0.0
C3903 C 0.7028 0.6992 0.89185 0.0
C3904 C 0.7414 0.74377 0.97089 0.0
C3905 C 0.74007 0.73501 0.96095 0.0
C3906 C 0.71592 0.71653 0.94245 0.0
C3907 C 0.71839 0.70399 0.90879 0.0
C3908 C 0.72176 0.71021 0.92117 0.0
C3909 C 0.72828 0.73295 0.9547 0.0
C3910 C 0.72671 0.72423 0.9437 0.0
H3911 H 0.7317 0.68823 0.88453 0.0
H3912 H 0.7372 0.69739 0.90533 0.0
H3913 H 0.70497 0.70395 0.93064 0.0
H3914 H 0.71099 0.75369 0.97103 0.0
H3915 H 0.70871 0.73856 0.95394 0.0
C3916 C 0.34417 0.69726 0.89549 0.0
C3917 C 0.33661 0.69031 0.88674 0.0
C3918 C 0.33871 0.70455 0.90484 0.0
C3919 C 0.30923 0.7077 0.92239 0.0
H3920 H 0.32408 0.73943 0.93289 0.0
C3921 C 0.28598 0.73954 0.95916 0.0
C3922 C 0.29395 0.74525 0.96849 0.0
C3923 C 0.29099 0.73331 0.94879 0.0
C3924 C 0.31988 0.73053 0.93016 0.0
H3925 H 0.31732 0.68581 0.88086 0.0
H3926 H 0.30778 0.69873 0.897 0.0
H3927 H 0.33298 0.72797 0.91531 0.0
H3928 H 0.31349 0.74884 0.97411 0.0
H3929 H 0.32222 0.73801 0.95603 0.0
H3930 H 0.29616 0.71025 0.93726 0.0
C3931 C 0.31796 0.69839 0.89675 0.0
C3932 C 0.32498 0.72395 0.92006 0.0
C3933 C 0.32343 0.69109 0.88739 0.0
C3934 C 0.30706 0.74469 0.96707 0.0
C3935 C 0.31207 0.73847 0.95668 0.0
C3936 C 0.30411 0.71429 0.93246 0.0
C3937 C 0.32553 0.70511 0.90569 0.0
C3938 C 0.31977 0.7124 0.91609 0.0
C3939 C 0.30409 0.73264 0.94744 0.0
C3940 C 0.30941 0.72576 0.93653 0.0
H3941 H 0.35435 0.69704 0.89517 0.0
H3942 H 0.34486 0.70949 0.91161 0.0
H3943 H 0.30509 0.69875 0.91976 0.0
H3944 H 0.27584 0.73998 0.95975 0.0
H3945 H 0.28456 0.72912 0.94175 0.0
C3946 C 0.33116 0.32047 0.90373 0.0
C3947 C 0.32756 0.33177 0.89798 0.0
C3948 C 0.32356 0.31477 0.91273 0.0
C3949 C 0.29126 0.31516 0.92576 0.0
H3950 H 0.308 0.30013 0.95524 0.0
C3951 C 0.26634 0.30343 0.9727 0.0
C3952 C 0.26928 0.29201 0.97858 0.0
C3953 C 0.27281 0.30744 0.96202 0.0
C3954 C 0.30318 0.30416 0.94699 0.0
H3955 H 0.31319 0.34594 0.89716 0.0
H3956 H 0.30006 0.33619 0.91305 0.0
H3957 H 0.32054 0.30869 0.93824 0.0
H3958 H 0.28124 0.2758 0.97775 0.0
H3959 H 0.2925 0.2828 0.95911 0.0
H3960 H 0.2739 0.31093 0.93482 0.0
C3961 C 0.30858 0.33153 0.9104 0.0
C3962 C 0.31037 0.30904 0.93721 0.0
C3963 C 0.31612 0.33715 0.9013 0.0
C3964 C 0.27865 0.28457 0.97338 0.0
C3965 C 0.2852 0.28864 0.96278 0.0
C3966 C 0.28408 0.31038 0.93563 0.0
C3967 C 0.31224 0.32031 0.91631 0.0
C3968 C 0.30452 0.31466 0.92648 0.0
C3969 C 0.28244 0.30018 0.95707 0.0
C3970 C 0.28997 0.30487 0.94636 0.0
H3971 H 0.33986 0.31604 0.90123 0.0
H3972 H 0.32657 0.30602 0.91689 0.0
H3973 H 0.28641 0.31922 0.91756 0.0
H3974 H 0.25911 0.3093 0.97645 0.0
H3975 H 0.27053 0.31642 0.95786 0.0
C3976 C 0.62436 0.70474 0.21783 0.0
C3977 C 0.62521 0.69518 0.20871 0.0
C3978 C 0.61311 0.70679 0.22401 0.0
C3979 C 0.57878 0.7017 0.22093 0.0
H3980 H 0.57981 0.70918 0.25712 0.0
C3981 C 0.53658 0.72264 0.24662 0.0
C3982 C 0.53394 0.71815 0.25886 0.0
C3983 C 0.54745 0.71898 0.24052 0.0
C3984 C 0.57934 0.707 0.24704 0.0
H3985 H 0.61476 0.68026 0.19903 0.0
H3986 H 0.59505 0.68395 0.20974 0.0
H3987 H 0.59927 0.70424 0.24653 0.0
H3988 H 0.54068 0.70623 0.27422 0.0
H3989 H 0.55967 0.69978 0.26353 0.0
H3990 H 0.55884 0.70447 0.22144 0.0
C3991 C 0.60313 0.68989 0.21203 0.0
C3992 C 0.59051 0.7043 0.24094 0.0
C3993 C 0.61443 0.6878 0.20587 0.0
C3994 C 0.5424 0.70981 0.26479 0.0
C3995 C 0.55333 0.7062 0.2587 0.0
C3996 C 0.56762 0.70448 0.22702 0.0
C3997 C 0.60236 0.69939 0.22121 0.0
C3998 C 0.59038 0.70171 0.22779 0.0
C3999 C 0.556 0.71077 0.2465 0.0
C4000 C 0.56777 0.70725 0.24013 0.0
H4001 H 0.63236 0.7108 0.22007 0.0
H4002 H 0.61278 0.71433 0.23085 0.0
H4003 H 0.57836 0.69984 0.21077 0.0
H4004 H 0.53021 0.72894 0.2417 0.0
H4005 H 0.54927 0.72277 0.23118 0.0
C4006 C 0.33383 0.60214 0.18773 0.0
C4007 C 0.3293 0.6143 0.18924 0.0
C4008 C 0.32986 0.59245 0.1956 0.0
C4009 C 0.31503 0.58576 0.22645 0.0
H4010 H 0.30797 0.55353 0.21088 0.0
C4011 C 0.30374 0.54144 0.25609 0.0
C4012 C 0.29413 0.53347 0.25119 0.0
C4013 C 0.30825 0.55139 0.24879 0.0
C4014 C 0.30982 0.56248 0.21539 0.0
H4015 H 0.31706 0.62578 0.20035 0.0
H4016 H 0.31006 0.60883 0.21409 0.0
H4017 H 0.3151 0.57079 0.19779 0.0
H4018 H 0.28193 0.52967 0.23461 0.0
H4019 H 0.28958 0.54704 0.22206 0.0
H4020 H 0.30946 0.57747 0.24402 0.0
C4021 C 0.31683 0.60683 0.20688 0.0
C4022 C 0.31406 0.57236 0.20789 0.0
C4023 C 0.32082 0.61655 0.19899 0.0
C4024 C 0.28921 0.53567 0.23879 0.0
C4025 C 0.29373 0.54557 0.23151 0.0
C4026 C 0.31079 0.57585 0.23397 0.0
C4027 C 0.32123 0.59463 0.20522 0.0
C4028 C 0.31672 0.58414 0.21331 0.0
C4029 C 0.3033 0.55357 0.23639 0.0
C4030 C 0.30809 0.56409 0.22852 0.0
H4031 H 0.34058 0.60011 0.18051 0.0
H4032 H 0.33366 0.58324 0.19421 0.0
H4033 H 0.31709 0.59466 0.23097 0.0
H4034 H 0.30768 0.5401 0.26562 0.0
H4035 H 0.31571 0.55729 0.25282 0.0
C4036 C 0.40577 0.32187 0.19027 0.0
C4037 C 0.39689 0.32849 0.19717 0.0
C4038 C 0.41577 0.31584 0.19653 0.0
C4039 C 0.42671 0.30253 0.22721 0.0
H4040 H 0.45924 0.30473 0.2115 0.0
C4041 C 0.47134 0.27579 0.2462 0.0
C4042 C 0.47707 0.26896 0.23657 0.0
C4043 C 0.46214 0.2847 0.24302 0.0
C4044 C 0.45023 0.30403 0.21603 0.0
H4045 H 0.39147 0.33366 0.21619 0.0
H4046 H 0.40896 0.32295 0.22718 0.0
H4047 H 0.4417 0.31685 0.20286 0.0
H4048 H 0.47801 0.26645 0.21611 0.0
H4049 H 0.4623 0.28192 0.21064 0.0
H4050 H 0.43528 0.2894 0.24019 0.0
C4051 C 0.40812 0.32249 0.21687 0.0
C4052 C 0.44016 0.31095 0.21105 0.0
C4053 C 0.39809 0.32859 0.21058 0.0
C4054 C 0.47376 0.27152 0.22377 0.0
C4055 C 0.46479 0.28047 0.22062 0.0
C4056 C 0.43684 0.29558 0.23222 0.0
C4057 C 0.41719 0.3162 0.20989 0.0
C4058 C 0.42818 0.31 0.21631 0.0
C4059 C 0.45875 0.28708 0.23017 0.0
C4060 C 0.44861 0.29597 0.22642 0.0
H4061 H 0.40498 0.32129 0.17997 0.0
H4062 H 0.42238 0.31081 0.19086 0.0
H4063 H 0.4176 0.30159 0.23148 0.0
H4064 H 0.47366 0.27395 0.25615 0.0
H4065 H 0.45765 0.28968 0.25059 0.0
C4066 C 0.68732 0.39619 0.19971 0.0
C4067 C 0.67684 0.39809 0.19142 0.0
C4068 C 0.6927 0.40613 0.20672 0.0
C4069 C 0.68627 0.43841 0.2177 0.0
H4070 H 0.7227 0.4414 0.2201 0.0
C4071 C 0.71281 0.48459 0.22941 0.0
C4072 C 0.72426 0.48413 0.23651 0.0
C4073 C 0.7063 0.47361 0.22597 0.0
C4074 C 0.71251 0.44061 0.21973 0.0
H4075 H 0.66396 0.412 0.18387 0.0
H4076 H 0.67334 0.42927 0.19598 0.0
H4077 H 0.71294 0.42311 0.20997 0.0
H4078 H 0.73744 0.47174 0.24622 0.0
H4079 H 0.72602 0.45263 0.2403 0.0
H4080 H 0.68587 0.4561 0.22717 0.0
C4081 C 0.67725 0.42007 0.19732 0.0
C4082 C 0.7069 0.43011 0.2139 0.0
C4083 C 0.67187 0.41015 0.19034 0.0
C4084 C 0.72867 0.47246 0.24071 0.0
C4085 C 0.72218 0.46148 0.23723 0.0
C4086 C 0.69188 0.44894 0.22349 0.0
C4087 C 0.68775 0.41822 0.20559 0.0
C4088 C 0.69371 0.42895 0.21264 0.0
C4089 C 0.7111 0.46191 0.22953 0.0
C4090 C 0.70507 0.45024 0.22443 0.0
H4091 H 0.6913 0.387 0.20086 0.0
H4092 H 0.70069 0.40433 0.21311 0.0
H4093 H 0.67608 0.43773 0.21712 0.0
H4094 H 0.70912 0.4934 0.22602 0.0
H4095 H 0.69783 0.47429 0.21998 0.0
C4096 C 0.62247 0.33224 0.81472 0.0
C4097 C 0.63344 0.3277 0.80928 0.0
C4098 C 0.61052 0.32856 0.80992 0.0
C4099 C 0.59418 0.31424 0.78145 0.0
H4100 H 0.56794 0.30674 0.80522 0.0
C4101 C 0.5489 0.28578 0.76793 0.0
C4102 C 0.53763 0.28892 0.7738 0.0
C4103 C 0.56022 0.29198 0.77128 0.0
C4104 C 0.57508 0.30899 0.79842 0.0
H4105 H 0.64041 0.3155 0.79467 0.0
H4106 H 0.61967 0.30903 0.7864 0.0
H4107 H 0.58834 0.31451 0.81322 0.0
H4108 H 0.52934 0.3016 0.78719 0.0
H4109 H 0.54902 0.31247 0.79288 0.0
H4110 H 0.58096 0.30845 0.76668 0.0
C4111 C 0.62025 0.31567 0.79418 0.0
C4112 C 0.58681 0.31345 0.80302 0.0
C4113 C 0.63217 0.31936 0.79895 0.0
C4114 C 0.53784 0.29887 0.78254 0.0
C4115 C 0.54915 0.30505 0.78589 0.0
C4116 C 0.58246 0.30974 0.77685 0.0
C4117 C 0.60926 0.32022 0.79959 0.0
C4118 C 0.59656 0.31603 0.79461 0.0
C4119 C 0.56054 0.30145 0.78057 0.0
C4120 C 0.57279 0.30697 0.78529 0.0
H4121 H 0.62311 0.33879 0.82258 0.0
H4122 H 0.60228 0.33239 0.81423 0.0
H4123 H 0.60139 0.31634 0.77467 0.0
H4124 H 0.54911 0.27815 0.76119 0.0
H4125 H 0.56882 0.28892 0.76703 0.0
C4126 C 0.71441 0.62449 0.80107 0.0
C4127 C 0.70914 0.62543 0.81316 0.0
C4128 C 0.71955 0.61327 0.797 0.0
C4129 C 0.73306 0.58407 0.80991 0.0
H4130 H 0.73184 0.57387 0.77443 0.0
C4131 C 0.75844 0.53991 0.79422 0.0
C4132 C 0.76591 0.54132 0.78352 0.0
C4133 C 0.74939 0.5488 0.79701 0.0
C4134 C 0.73229 0.5766 0.78437 0.0
H4135 H 0.70468 0.6151 0.83022 0.0
H4136 H 0.71353 0.5955 0.82309 0.0
H4137 H 0.71997 0.59202 0.781 0.0
H4138 H 0.77 0.55318 0.7675 0.0
H4139 H 0.75406 0.56861 0.77213 0.0
H4140 H 0.74553 0.56883 0.81327 0.0
C4141 C 0.71393 0.60352 0.81684 0.0
C4142 C 0.72551 0.58704 0.78815 0.0
C4143 C 0.70883 0.61476 0.82093 0.0
C4144 C 0.76395 0.55158 0.77544 0.0
C4145 C 0.75489 0.56048 0.77821 0.0
C4146 C 0.73979 0.57364 0.80615 0.0
C4147 C 0.71954 0.60267 0.80489 0.0
C4148 C 0.72594 0.59101 0.80095 0.0
C4149 C 0.74776 0.5594 0.78925 0.0
C4150 C 0.73963 0.56984 0.79331 0.0
H4151 H 0.71499 0.63256 0.79491 0.0
H4152 H 0.72396 0.61307 0.78784 0.0
H4153 H 0.73384 0.58694 0.81981 0.0
H4154 H 0.75995 0.53216 0.80069 0.0
H4155 H 0.74396 0.54758 0.80549 0.0
C4156 C 0.41326 0.68904 0.82919 0.0
C4157 C 0.40281 0.68431 0.82209 0.0
C4158 C 0.42324 0.69487 0.82313 0.0
C4159 C 0.43216 0.71065 0.79342 0.0
H4160 H 0.46593 0.70455 0.80705 0.0
C4161 C 0.47735 0.7349 0.77415 0.0
C4162 C 0.48463 0.74075 0.78391 0.0
C4163 C 0.46764 0.7265 0.77717 0.0
C4164 C 0.45656 0.70631 0.8031 0.0
H4165 H 0.39459 0.68221 0.80301 0.0
H4166 H 0.41211 0.69245 0.79237 0.0
H4167 H 0.44814 0.693 0.81547 0.0
H4168 H 0.4878 0.74208 0.80439 0.0
H4169 H 0.47116 0.72739 0.8096 0.0
H4170 H 0.4407 0.72416 0.78119 0.0
C4171 C 0.4125 0.69168 0.80267 0.0
C4172 C 0.44636 0.69975 0.80797 0.0
C4173 C 0.40246 0.68583 0.80876 0.0
C4174 C 0.48233 0.73775 0.79666 0.0
C4175 C 0.47284 0.72927 0.79965 0.0
C4176 C 0.44243 0.71719 0.78849 0.0
C4177 C 0.42309 0.69613 0.80978 0.0
C4178 C 0.43399 0.70211 0.80348 0.0
C4179 C 0.46528 0.72366 0.78998 0.0
C4180 C 0.45468 0.71534 0.79356 0.0
H4181 H 0.41371 0.68826 0.83949 0.0
H4182 H 0.43107 0.69849 0.82895 0.0
H4183 H 0.42276 0.71271 0.78977 0.0
H4184 H 0.47889 0.73711 0.76424 0.0
H4185 H 0.46195 0.72228 0.76954 0.0
C4186 C 0.32681 0.41279 0.84318 0.0
C4187 C 0.32839 0.40126 0.83706 0.0
C4188 C 0.31871 0.42173 0.83794 0.0
C4189 C 0.3035 0.43225 0.80806 0.0
H4190 H 0.28004 0.44818 0.8303 0.0
C4191 C 0.26634 0.46683 0.78842 0.0
C4192 C 0.26387 0.47733 0.79589 0.0
C4193 C 0.2736 0.45707 0.7934 0.0
C4194 C 0.28663 0.44396 0.82397 0.0
H4195 H 0.32276 0.39026 0.82042 0.0
H4196 H 0.30885 0.40606 0.81111 0.0
H4197 H 0.29421 0.43232 0.83885 0.0
H4198 H 0.26706 0.48583 0.81446 0.0
H4199 H 0.27993 0.46898 0.8231 0.0
H4200 H 0.29621 0.44409 0.79325 0.0
C4201 C 0.31389 0.4081 0.82002 0.0
C4202 C 0.29472 0.43484 0.82888 0.0
C4203 C 0.3219 0.39907 0.82534 0.0
C4204 C 0.26865 0.47778 0.80853 0.0
C4205 C 0.27602 0.46808 0.81347 0.0
C4206 C 0.29549 0.44149 0.80317 0.0
C4207 C 0.31209 0.41946 0.82635 0.0
C4208 C 0.30329 0.42892 0.821 0.0
C4209 C 0.27869 0.45763 0.80595 0.0
C4210 C 0.28697 0.44751 0.81107 0.0
H4211 H 0.33187 0.41497 0.85205 0.0
H4212 H 0.31771 0.43049 0.84292 0.0
H4213 H 0.31009 0.42794 0.80179 0.0
H4214 H 0.26264 0.46616 0.77871 0.0
H4215 H 0.2752 0.44907 0.78739 0.0
C4216 C 0.70659 0.63278 0.18061 0.0
C4217 C 0.69575 0.63642 0.18696 0.0
C4218 C 0.71175 0.62099 0.18269 0.0
C4219 C 0.71343 0.59611 0.20668 0.0
H4220 H 0.72536 0.57576 0.17911 0.0
C4221 C 0.73026 0.54608 0.21573 0.0
C4222 C 0.74085 0.54197 0.2093 0.0
C4223 C 0.72452 0.55731 0.21241 0.0
C4224 C 0.72222 0.58138 0.18694 0.0
H4225 H 0.68179 0.63046 0.20037 0.0
H4226 H 0.69078 0.60987 0.20397 0.0
H4227 H 0.71574 0.59588 0.17436 0.0
H4228 H 0.75362 0.54634 0.19421 0.0
H4229 H 0.74373 0.56613 0.1885 0.0
H4230 H 0.72008 0.58184 0.21931 0.0
C4231 C 0.6953 0.61617 0.19742 0.0
C4232 C 0.71667 0.5929 0.18421 0.0
C4233 C 0.69008 0.62792 0.19527 0.0
C4234 C 0.74542 0.54923 0.19927 0.0
C4235 C 0.73973 0.56056 0.196 0.0
C4236 C 0.71904 0.58466 0.20942 0.0
C4237 C 0.70626 0.61261 0.19125 0.0
C4238 C 0.71215 0.60036 0.19405 0.0
C4239 C 0.72927 0.56481 0.20263 0.0
C4240 C 0.72345 0.5771 0.1996 0.0
H4241 H 0.71111 0.63909 0.17406 0.0
H4242 H 0.72024 0.61856 0.17784 0.0
H4243 H 0.71026 0.60174 0.2145 0.0
H4244 H 0.72636 0.54057 0.22332 0.0
H4245 H 0.7163 0.56009 0.21751 0.0
C4246 C 0.69116 0.40341 0.81276 0.0
C4247 C 0.70028 0.39534 0.81806 0.0
C4248 C 0.69444 0.41558 0.80919 0.0
C4249 C 0.71989 0.43977 0.81328 0.0
H4250 H 0.7054 0.45291 0.78173 0.0
C4251 C 0.74162 0.48152 0.78677 0.0
C4252 C 0.73341 0.49067 0.78189 0.0
C4253 C 0.73688 0.47045 0.79189 0.0
C4254 C 0.70942 0.44943 0.79064 0.0
H4255 H 0.71995 0.39402 0.82418 0.0
H4256 H 0.72574 0.41494 0.81756 0.0
H4257 H 0.6984 0.4326 0.78944 0.0
H4258 H 0.71379 0.49534 0.77853 0.0
H4259 H 0.70548 0.47589 0.7874 0.0
H4260 H 0.73118 0.45646 0.81422 0.0
C4261 C 0.71599 0.41198 0.8163 0.0
C4262 C 0.70538 0.43779 0.7951 0.0
C4263 C 0.7127 0.39987 0.81994 0.0
C4264 C 0.72034 0.4885 0.78228 0.0
C4265 C 0.71559 0.47733 0.78727 0.0
C4266 C 0.72399 0.45134 0.80875 0.0
C4267 C 0.70694 0.41999 0.81079 0.0
C4268 C 0.71066 0.43273 0.80642 0.0
C4269 C 0.72382 0.4682 0.79215 0.0
C4270 C 0.7189 0.45624 0.79732 0.0
H4271 H 0.68152 0.40024 0.81106 0.0
H4272 H 0.68717 0.42151 0.80515 0.0
H4273 H 0.72398 0.43634 0.82218 0.0
H4274 H 0.75173 0.48296 0.78675 0.0
H4275 H 0.74347 0.46355 0.79547 0.0
C4276 C 0.64138 0.71125 0.82786 0.0
C4277 C 0.64435 0.70007 0.82169 0.0
C4278 C 0.62976 0.71695 0.82549 0.0
C4279 C 0.59726 0.71135 0.81242 0.0
H4280 H 0.59735 0.74731 0.80852 0.0
C4281 C 0.55369 0.73841 0.79311 0.0
C4282 C 0.55114 0.74999 0.79871 0.0
C4283 C 0.5648 0.73206 0.79628 0.0
C4284 C 0.59711 0.73728 0.80974 0.0
H4285 H 0.63728 0.68602 0.80835 0.0
H4286 H 0.61698 0.69598 0.8042 0.0
H4287 H 0.61704 0.73664 0.8134 0.0
H4288 H 0.55839 0.7639 0.81214 0.0
H4289 H 0.57762 0.75276 0.81783 0.0
H4290 H 0.57731 0.71202 0.80869 0.0
C4291 C 0.62361 0.70028 0.81097 0.0
C4292 C 0.60842 0.73115 0.81255 0.0
C4293 C 0.63526 0.69456 0.81335 0.0
C4294 C 0.55995 0.75498 0.80769 0.0
C4295 C 0.57107 0.74864 0.81085 0.0
C4296 C 0.58593 0.71749 0.80961 0.0
C4297 C 0.62078 0.71164 0.8169 0.0
C4298 C 0.60866 0.71811 0.81394 0.0
C4299 C 0.57368 0.73713 0.80514 0.0
C4300 C 0.58571 0.73055 0.80824 0.0
H4301 H 0.64805 0.71562 0.83454 0.0
H4302 H 0.62781 0.72554 0.83045 0.0
H4303 H 0.59706 0.70132 0.81358 0.0
H4304 H 0.54708 0.73418 0.78628 0.0
H4305 H 0.56653 0.72327 0.7916 0.0
C4306 C 0.32555 0.61044 0.81992 0.0
C4307 C 0.32963 0.62149 0.81408 0.0
C4308 C 0.32016 0.60073 0.81264 0.0
C4309 C 0.30397 0.59332 0.78202 0.0
H4310 H 0.31483 0.55968 0.78968 0.0
C4311 C 0.28371 0.55062 0.75392 0.0
C4312 C 0.28041 0.54029 0.7614 0.0
C4313 C 0.291 0.56044 0.75921 0.0
C4314 C 0.31161 0.569 0.78746 0.0
H4315 H 0.33096 0.63114 0.796 0.0
H4316 H 0.32143 0.61415 0.78325 0.0
H4317 H 0.32446 0.5772 0.8013 0.0
H4318 H 0.28262 0.53197 0.78019 0.0
H4319 H 0.29507 0.549 0.78938 0.0
H4320 H 0.29087 0.5851 0.76842 0.0
C4321 C 0.32244 0.61302 0.79349 0.0
C4322 C 0.31714 0.57904 0.79413 0.0
C4323 C 0.32795 0.62271 0.80078 0.0
C4324 C 0.28497 0.53977 0.77412 0.0
C4325 C 0.29221 0.54955 0.77939 0.0
C4326 C 0.29836 0.58325 0.77539 0.0
C4327 C 0.31865 0.60185 0.79933 0.0
C4328 C 0.31325 0.5913 0.79164 0.0
C4329 C 0.29515 0.56012 0.77209 0.0
C4330 C 0.30197 0.57093 0.77818 0.0
H4331 H 0.32684 0.60913 0.83011 0.0
H4332 H 0.31718 0.59231 0.81744 0.0
H4333 H 0.30073 0.60266 0.77993 0.0
H4334 H 0.28036 0.55132 0.74409 0.0
H4335 H 0.29324 0.56836 0.75326 0.0
C4336 C 0.40313 0.33232 0.82277 0.0
C4337 C 0.3972 0.3289 0.83406 0.0
C4338 C 0.41274 0.32503 0.81798 0.0
C4339 C 0.42726 0.29362 0.82044 0.0
H4340 H 0.45617 0.31068 0.80659 0.0
C4341 C 0.47403 0.26867 0.80992 0.0
C4342 C 0.47989 0.27188 0.79853 0.0
C4343 C 0.46358 0.2753 0.81395 0.0
C4344 C 0.44811 0.30576 0.8103 0.0
H4345 H 0.39679 0.31512 0.84917 0.0
H4346 H 0.41358 0.30249 0.8409 0.0
H4347 H 0.43855 0.32276 0.81398 0.0
H4348 H 0.47939 0.28469 0.78252 0.0
H4349 H 0.46118 0.29612 0.78947 0.0
H4350 H 0.43696 0.27662 0.81691 0.0
C4351 C 0.41065 0.31066 0.83558 0.0
C4352 C 0.43797 0.31269 0.81452 0.0
C4353 C 0.401 0.31792 0.84033 0.0
C4354 C 0.47504 0.28185 0.79125 0.0
C4355 C 0.46467 0.28851 0.79531 0.0
C4356 C 0.43743 0.28669 0.81628 0.0
C4357 C 0.41673 0.31417 0.82439 0.0
C4358 C 0.4274 0.30672 0.81965 0.0
C4359 C 0.45884 0.28536 0.80673 0.0
C4360 C 0.44798 0.29268 0.81116 0.0
H4361 H 0.40032 0.34064 0.81763 0.0
H4362 H 0.41704 0.32791 0.80921 0.0
H4363 H 0.41921 0.28868 0.82416 0.0
H4364 H 0.47747 0.261 0.81569 0.0
H4365 H 0.45937 0.2727 0.82284 0.0
C4366 C 0.31758 0.38975 0.20774 0.0
C4367 C 0.31824 0.38869 0.19443 0.0
C4368 C 0.31002 0.39878 0.21318 0.0
C4369 C 0.29557 0.42928 0.20646 0.0
H4370 H 0.27767 0.42208 0.23727 0.0
C4371 C 0.26912 0.46752 0.2343 0.0
C4372 C 0.2723 0.46762 0.24741 0.0
C4373 C 0.27244 0.45736 0.22667 0.0
C4374 C 0.28261 0.42425 0.22866 0.0
H4375 H 0.3114 0.39635 0.1764 0.0
H4376 H 0.29811 0.41204 0.1859 0.0
H4377 H 0.28806 0.40528 0.22621 0.0
H4378 H 0.28085 0.45692 0.26289 0.0
H4379 H 0.28649 0.43942 0.24978 0.0
H4380 H 0.29041 0.44836 0.20916 0.0
C4381 C 0.30349 0.4059 0.19213 0.0
C4382 C 0.2886 0.41462 0.22234 0.0
C4383 C 0.31101 0.39681 0.18669 0.0
C4384 C 0.27833 0.45719 0.2528 0.0
C4385 C 0.28148 0.44707 0.24528 0.0
C4386 C 0.28958 0.43895 0.2128 0.0
C4387 C 0.30295 0.40705 0.20545 0.0
C4388 C 0.29543 0.41706 0.21135 0.0
C4389 C 0.27877 0.44706 0.2321 0.0
C4390 C 0.28332 0.4366 0.22418 0.0
H4391 H 0.32295 0.3836 0.21398 0.0
H4392 H 0.30996 0.39949 0.22347 0.0
H4393 H 0.30081 0.43151 0.19805 0.0
H4394 H 0.2645 0.47545 0.22989 0.0
H4395 H 0.27018 0.4576 0.21654 0.0
C4396 C 0.61619 0.30815 0.17647 0.0
C4397 C 0.61881 0.31996 0.18184 0.0
C4398 C 0.60706 0.30028 0.18162 0.0
C4399 C 0.57864 0.30132 0.20086 0.0
H4400 H 0.58303 0.26556 0.2034 0.0
C4401 C 0.54252 0.2697 0.2255 0.0
C4402 C 0.53939 0.25818 0.21973 0.0
C4403 C 0.55256 0.27694 0.2212 0.0
C4404 C 0.5816 0.27551 0.20262 0.0
H4405 H 0.61401 0.33264 0.19698 0.0
H4406 H 0.59824 0.31884 0.20609 0.0
H4407 H 0.6001 0.27865 0.19558 0.0
H4408 H 0.54458 0.24521 0.20499 0.0
H4409 H 0.56195 0.25798 0.19732 0.0
H4410 H 0.56014 0.29821 0.20779 0.0
C4411 C 0.60315 0.31572 0.1978 0.0
C4412 C 0.5914 0.28302 0.19816 0.0
C4413 C 0.6123 0.32357 0.19267 0.0
C4414 C 0.54663 0.25407 0.20958 0.0
C4415 C 0.55669 0.26133 0.20528 0.0
C4416 C 0.56886 0.29382 0.2053 0.0
C4417 C 0.6003 0.30404 0.19224 0.0
C4418 C 0.59003 0.29602 0.19723 0.0
C4419 C 0.55973 0.27289 0.211 0.0
C4420 C 0.57021 0.28082 0.20625 0.0
H4421 H 0.62113 0.30502 0.16821 0.0
H4422 H 0.60505 0.29139 0.17705 0.0
H4423 H 0.57717 0.31126 0.20003 0.0
H4424 H 0.53711 0.27327 0.23322 0.0
H4425 H 0.55472 0.28572 0.22594 0.0
C4426 C 0.39891 0.67914 0.19148 0.0
C4427 C 0.38995 0.6853 0.18367 0.0
C4428 C 0.40871 0.68577 0.19767 0.0
C4429 C 0.41889 0.717 0.20897 0.0
H4430 H 0.45174 0.70152 0.21031 0.0
C4431 C 0.4631 0.73861 0.23608 0.0
C4432 C 0.46902 0.73009 0.24443 0.0
C4433 C 0.45392 0.73444 0.22702 0.0
C4434 C 0.44263 0.70598 0.21001 0.0
H4435 H 0.38417 0.70338 0.1765 0.0
H4436 H 0.40133 0.71502 0.18744 0.0
H4437 H 0.4345 0.6918 0.19791 0.0
H4438 H 0.4703 0.71054 0.24955 0.0
H4439 H 0.45463 0.70336 0.23383 0.0
H4440 H 0.42709 0.73107 0.22136 0.0
C4441 C 0.40071 0.70502 0.18876 0.0
C4442 C 0.43273 0.70039 0.20295 0.0
C4443 C 0.39086 0.69835 0.18251 0.0
C4444 C 0.4659 0.71736 0.2433 0.0
C4445 C 0.45695 0.71322 0.23421 0.0
C4446 C 0.42886 0.72263 0.21606 0.0
C4447 C 0.40986 0.69877 0.19626 0.0
C4448 C 0.42064 0.70561 0.20264 0.0
C4449 C 0.45075 0.72168 0.22603 0.0
C4450 C 0.44074 0.71698 0.21694 0.0
H4451 H 0.39834 0.66914 0.19284 0.0
H4452 H 0.41539 0.68069 0.20364 0.0
H4453 H 0.40969 0.72126 0.20894 0.0
H4454 H 0.46527 0.74848 0.23679 0.0
H4455 H 0.44931 0.74117 0.22082 0.0
loop_
_geom_bond_atom_site_label_1
_geom_bond_atom_site_label_2
_geom_bond_distance
_geom_bond_site_symmetry_2
_ccdc_geom_bond_type
P0 O11 1.490 . S
P0 C14 1.812 . S
P0 C20 1.803 . S
P0 C26 1.819 . S
H1 C15 0.941 . S
H2 C16 0.939 . S
H3 C18 0.940 . S
H4 C19 0.940 . S
H5 C21 0.939 . S
H6 C22 0.942 . S
H7 C24 0.940 . S
H8 C25 0.939 . S
H9 C27 0.941 . S
H10 C31 0.939 . S
O11 P0 1.490 . S
H12 C28 0.939 . S
H13 C30 0.940 . S
C14 P0 1.812 . S
C14 C15 1.389 . S
C14 C19 1.391 . S
C15 H1 0.941 . S
C15 C14 1.389 . S
C15 C16 1.397 . S
C16 H2 0.939 . S
C16 C15 1.397 . S
C16 C17 1.378 . S
C17 C16 1.378 . S
C17 C18 1.378 . S
C18 H3 0.940 . S
C18 C17 1.378 . S
C18 C19 1.396 . S
C19 H4 0.940 . S
C19 C14 1.391 . S
C19 C18 1.396 . S
C20 P0 1.803 . S
C20 C21 1.378 . S
C20 C25 1.400 . S
C21 H5 0.939 . S
C21 C20 1.378 . S
C21 C22 1.361 . S
C22 H6 0.942 . S
C22 C21 1.361 . S
C22 C23 1.369 . S
C23 C22 1.369 . S
C23 C24 1.404 . S
C24 H7 0.940 . S
C24 C23 1.404 . S
C24 C25 1.389 . S
C25 H8 0.939 . S
C25 C20 1.400 . S
C25 C24 1.389 . S
C26 P0 1.819 . S
C26 C27 1.391 . S
C26 C31 1.391 . S
C27 H9 0.941 . S
C27 C26 1.391 . S
C27 C28 1.396 . S
C28 H12 0.939 . S
C28 C27 1.396 . S
C28 C29 1.397 . S
C29 C28 1.397 . S
C29 C30 1.385 . S
C30 H13 0.940 . S
C30 C29 1.385 . S
C30 C31 1.388 . S
C31 H10 0.939 . S
C31 C26 1.391 . S
C31 C30 1.388 . S
P32 O43 1.490 . S
P32 C46 1.812 . S
P32 C52 1.803 . S
P32 C58 1.819 . S
H33 C47 0.941 . S
H34 C48 0.939 . S
H35 C50 0.940 . S
H36 C51 0.940 . S
H37 C53 0.939 . S
H38 C54 0.942 . S
H39 C56 0.940 . S
H40 C57 0.939 . S
H41 C59 0.941 . S
H42 C63 0.939 . S
O43 P32 1.490 . S
H44 C60 0.939 . S
H45 C62 0.940 . S
C46 P32 1.812 . S
C46 C47 1.389 . S
C46 C51 1.391 . S
C47 H33 0.941 . S
C47 C46 1.389 . S
C47 C48 1.397 . S
C48 H34 0.939 . S
C48 C47 1.397 . S
C48 C49 1.378 . S
C49 C48 1.378 . S
C49 C50 1.378 . S
C50 H35 0.940 . S
C50 C49 1.378 . S
C50 C51 1.396 . S
C51 H36 0.940 . S
C51 C46 1.391 . S
C51 C50 1.396 . S
C52 P32 1.803 . S
C52 C53 1.378 . S
C52 C57 1.400 . S
C53 H37 0.939 . S
C53 C52 1.378 . S
C53 C54 1.361 . S
C54 H38 0.942 . S
C54 C53 1.361 . S
C54 C55 1.369 . S
C55 C54 1.369 . S
C55 C56 1.404 . S
C56 H39 0.940 . S
C56 C55 1.404 . S
C56 C57 1.389 . S
C57 H40 0.939 . S
C57 C52 1.400 . S
C57 C56 1.389 . S
C58 P32 1.819 . S
C58 C59 1.391 . S
C58 C63 1.391 . S
C59 H41 0.941 . S
C59 C58 1.391 . S
C59 C60 1.396 . S
C60 H44 0.939 . S
C60 C59 1.396 . S
C60 C61 1.397 . S
C61 C60 1.397 . S
C61 C62 1.385 . S
C62 H45 0.940 . S
C62 C61 1.385 . S
C62 C63 1.388 . S
C63 H42 0.939 . S
C63 C58 1.391 . S
C63 C62 1.388 . S
P64 O75 1.490 . S
P64 C78 1.812 . S
P64 C84 1.803 . S
P64 C90 1.819 . S
H65 C79 0.941 . S
H66 C80 0.939 . S
H67 C82 0.940 . S
H68 C83 0.940 . S
H69 C85 0.939 . S
H70 C86 0.942 . S
H71 C88 0.940 . S
H72 C89 0.939 . S
H73 C91 0.941 . S
H74 C95 0.939 . S
O75 P64 1.490 . S
H76 C92 0.939 . S
H77 C94 0.940 . S
C78 P64 1.812 . S
C78 C79 1.389 . S
C78 C83 1.391 . S
C79 H65 0.941 . S
C79 C78 1.389 . S
C79 C80 1.397 . S
C80 H66 0.939 . S
C80 C79 1.397 . S
C80 C81 1.378 . S
C81 C80 1.378 . S
C81 C82 1.378 . S
C82 H67 0.940 . S
C82 C81 1.378 . S
C82 C83 1.396 . S
C83 H68 0.940 . S
C83 C78 1.391 . S
C83 C82 1.396 . S
C84 P64 1.803 . S
C84 C85 1.378 . S
C84 C89 1.400 . S
C85 H69 0.939 . S
C85 C84 1.378 . S
C85 C86 1.361 . S
C86 H70 0.942 . S
C86 C85 1.361 . S
C86 C87 1.369 . S
C87 C86 1.369 . S
C87 C88 1.404 . S
C88 H71 0.940 . S
C88 C87 1.404 . S
C88 C89 1.389 . S
C89 H72 0.939 . S
C89 C84 1.400 . S
C89 C88 1.389 . S
C90 P64 1.819 . S
C90 C91 1.391 . S
C90 C95 1.391 . S
C91 H73 0.941 . S
C91 C90 1.391 . S
C91 C92 1.396 . S
C92 H76 0.939 . S
C92 C91 1.396 . S
C92 C93 1.397 . S
C93 C92 1.397 . S
C93 C94 1.385 . S
C94 H77 0.940 . S
C94 C93 1.385 . S
C94 C95 1.388 . S
C95 H74 0.939 . S
C95 C90 1.391 . S
C95 C94 1.388 . S
P96 O107 1.490 . S
P96 C110 1.812 . S
P96 C116 1.803 . S
P96 C122 1.819 . S
H97 C111 0.941 . S
H98 C112 0.939 . S
H99 C114 0.940 . S
H100 C115 0.940 . S
H101 C117 0.939 . S
H102 C118 0.942 . S
H103 C120 0.940 . S
H104 C121 0.939 . S
H105 C123 0.941 . S
H106 C127 0.939 . S
O107 P96 1.490 . S
H108 C124 0.939 . S
H109 C126 0.940 . S
C110 P96 1.812 . S
C110 C111 1.389 . S
C110 C115 1.391 . S
C111 H97 0.941 . S
C111 C110 1.389 . S
C111 C112 1.397 . S
C112 H98 0.939 . S
C112 C111 1.397 . S
C112 C113 1.378 . S
C113 C112 1.378 . S
C113 C114 1.378 . S
C114 H99 0.940 . S
C114 C113 1.378 . S
C114 C115 1.396 . S
C115 H100 0.940 . S
C115 C110 1.391 . S
C115 C114 1.396 . S
C116 P96 1.803 . S
C116 C117 1.378 . S
C116 C121 1.400 . S
C117 H101 0.939 . S
C117 C116 1.378 . S
C117 C118 1.361 . S
C118 H102 0.942 . S
C118 C117 1.361 . S
C118 C119 1.369 . S
C119 C118 1.369 . S
C119 C120 1.404 . S
C120 H103 0.940 . S
C120 C119 1.404 . S
C120 C121 1.389 . S
C121 H104 0.939 . S
C121 C116 1.400 . S
C121 C120 1.389 . S
C122 P96 1.819 . S
C122 C123 1.391 . S
C122 C127 1.391 . S
C123 H105 0.941 . S
C123 C122 1.391 . S
C123 C124 1.396 . S
C124 H108 0.939 . S
C124 C123 1.396 . S
C124 C125 1.397 . S
C125 C124 1.397 . S
C125 C126 1.385 . S
C126 H109 0.940 . S
C126 C125 1.385 . S
C126 C127 1.388 . S
C127 H106 0.939 . S
C127 C122 1.391 . S
C127 C126 1.388 . S
P128 O139 1.490 . S
P128 C142 1.812 . S
P128 C148 1.803 . S
P128 C154 1.819 . S
H129 C143 0.941 . S
H130 C144 0.939 . S
H131 C146 0.940 . S
H132 C147 0.940 . S
H133 C149 0.939 . S
H134 C150 0.942 . S
H135 C152 0.940 . S
H136 C153 0.939 . S
H137 C155 0.941 . S
H138 C159 0.939 . S
O139 P128 1.490 . S
H140 C156 0.939 . S
H141 C158 0.940 . S
C142 P128 1.812 . S
C142 C143 1.389 . S
C142 C147 1.391 . S
C143 H129 0.941 . S
C143 C142 1.389 . S
C143 C144 1.397 . S
C144 H130 0.939 . S
C144 C143 1.397 . S
C144 C145 1.378 . S
C145 C144 1.378 . S
C145 C146 1.378 . S
C146 H131 0.940 . S
C146 C145 1.378 . S
C146 C147 1.396 . S
C147 H132 0.940 . S
C147 C142 1.391 . S
C147 C146 1.396 . S
C148 P128 1.803 . S
C148 C149 1.378 . S
C148 C153 1.400 . S
C149 H133 0.939 . S
C149 C148 1.378 . S
C149 C150 1.361 . S
C150 H134 0.942 . S
C150 C149 1.361 . S
C150 C151 1.369 . S
C151 C150 1.369 . S
C151 C152 1.404 . S
C152 H135 0.940 . S
C152 C151 1.404 . S
C152 C153 1.389 . S
C153 H136 0.939 . S
C153 C148 1.400 . S
C153 C152 1.389 . S
C154 P128 1.819 . S
C154 C155 1.391 . S
C154 C159 1.391 . S
C155 H137 0.941 . S
C155 C154 1.391 . S
C155 C156 1.396 . S
C156 H140 0.939 . S
C156 C155 1.396 . S
C156 C157 1.397 . S
C157 C156 1.397 . S
C157 C158 1.385 . S
C158 H141 0.940 . S
C158 C157 1.385 . S
C158 C159 1.388 . S
C159 H138 0.939 . S
C159 C154 1.391 . S
C159 C158 1.388 . S
P160 O171 1.490 . S
P160 C174 1.812 . S
P160 C180 1.803 . S
P160 C186 1.819 . S
H161 C175 0.941 . S
H162 C176 0.939 . S
H163 C178 0.940 . S
H164 C179 0.940 . S
H165 C181 0.939 . S
H166 C182 0.942 . S
H167 C184 0.940 . S
H168 C185 0.939 . S
H169 C187 0.941 . S
H170 C191 0.939 . S
O171 P160 1.490 . S
H172 C188 0.939 . S
H173 C190 0.940 . S
C174 P160 1.812 . S
C174 C175 1.389 . S
C174 C179 1.391 . S
C175 H161 0.941 . S
C175 C174 1.389 . S
C175 C176 1.397 . S
C176 H162 0.939 . S
C176 C175 1.397 . S
C176 C177 1.378 . S
C177 C176 1.378 . S
C177 C178 1.378 . S
C178 H163 0.940 . S
C178 C177 1.378 . S
C178 C179 1.396 . S
C179 H164 0.940 . S
C179 C174 1.391 . S
C179 C178 1.396 . S
C180 P160 1.803 . S
C180 C181 1.378 . S
C180 C185 1.400 . S
C181 H165 0.939 . S
C181 C180 1.378 . S
C181 C182 1.361 . S
C182 H166 0.942 . S
C182 C181 1.361 . S
C182 C183 1.369 . S
C183 C182 1.369 . S
C183 C184 1.404 . S
C184 H167 0.940 . S
C184 C183 1.404 . S
C184 C185 1.389 . S
C185 H168 0.939 . S
C185 C180 1.400 . S
C185 C184 1.389 . S
C186 P160 1.819 . S
C186 C187 1.391 . S
C186 C191 1.391 . S
C187 H169 0.941 . S
C187 C186 1.391 . S
C187 C188 1.396 . S
C188 H172 0.939 . S
C188 C187 1.396 . S
C188 C189 1.397 . S
C189 C188 1.397 . S
C189 C190 1.385 . S
C190 H173 0.940 . S
C190 C189 1.385 . S
C190 C191 1.388 . S
C191 H170 0.939 . S
C191 C186 1.391 . S
C191 C190 1.388 . S
P192 O203 1.490 . S
P192 C206 1.812 . S
P192 C212 1.803 . S
P192 C218 1.819 . S
H193 C207 0.941 . S
H194 C208 0.939 . S
H195 C210 0.940 . S
H196 C211 0.940 . S
H197 C213 0.939 . S
H198 C214 0.942 . S
H199 C216 0.940 . S
H200 C217 0.939 . S
H201 C219 0.941 . S
H202 C223 0.939 . S
O203 P192 1.490 . S
H204 C220 0.939 . S
H205 C222 0.940 . S
C206 P192 1.812 . S
C206 C207 1.389 . S
C206 C211 1.391 . S
C207 H193 0.941 . S
C207 C206 1.389 . S
C207 C208 1.397 . S
C208 H194 0.939 . S
C208 C207 1.397 . S
C208 C209 1.378 . S
C209 C208 1.378 . S
C209 C210 1.378 . S
C210 H195 0.940 . S
C210 C209 1.378 . S
C210 C211 1.396 . S
C211 H196 0.940 . S
C211 C206 1.391 . S
C211 C210 1.396 . S
C212 P192 1.803 . S
C212 C213 1.378 . S
C212 C217 1.400 . S
C213 H197 0.939 . S
C213 C212 1.378 . S
C213 C214 1.361 . S
C214 H198 0.942 . S
C214 C213 1.361 . S
C214 C215 1.369 . S
C215 C214 1.369 . S
C215 C216 1.404 . S
C216 H199 0.940 . S
C216 C215 1.404 . S
C216 C217 1.389 . S
C217 H200 0.939 . S
C217 C212 1.400 . S
C217 C216 1.389 . S
C218 P192 1.819 . S
C218 C219 1.391 . S
C218 C223 1.391 . S
C219 H201 0.941 . S
C219 C218 1.391 . S
C219 C220 1.396 . S
C220 H204 0.939 . S
C220 C219 1.396 . S
C220 C221 1.397 . S
C221 C220 1.397 . S
C221 C222 1.385 . S
C222 H205 0.940 . S
C222 C221 1.385 . S
C222 C223 1.388 . S
C223 H202 0.939 . S
C223 C218 1.391 . S
C223 C222 1.388 . S
P224 O235 1.490 . S
P224 C238 1.812 . S
P224 C244 1.803 . S
P224 C250 1.819 . S
H225 C239 0.941 . S
H226 C240 0.939 . S
H227 C242 0.940 . S
H228 C243 0.940 . S
H229 C245 0.939 . S
H230 C246 0.942 . S
H231 C248 0.940 . S
H232 C249 0.939 . S
H233 C251 0.941 . S
H234 C255 0.939 . S
O235 P224 1.490 . S
H236 C252 0.939 . S
H237 C254 0.940 . S
C238 P224 1.812 . S
C238 C239 1.389 . S
C238 C243 1.391 . S
C239 H225 0.941 . S
C239 C238 1.389 . S
C239 C240 1.397 . S
C240 H226 0.939 . S
C240 C239 1.397 . S
C240 C241 1.378 . S
C241 C240 1.378 . S
C241 C242 1.378 . S
C242 H227 0.940 . S
C242 C241 1.378 . S
C242 C243 1.396 . S
C243 H228 0.940 . S
C243 C238 1.391 . S
C243 C242 1.396 . S
C244 P224 1.803 . S
C244 C245 1.378 . S
C244 C249 1.400 . S
C245 H229 0.939 . S
C245 C244 1.378 . S
C245 C246 1.361 . S
C246 H230 0.942 . S
C246 C245 1.361 . S
C246 C247 1.369 . S
C247 C246 1.369 . S
C247 C248 1.404 . S
C248 H231 0.940 . S
C248 C247 1.404 . S
C248 C249 1.389 . S
C249 H232 0.939 . S
C249 C244 1.400 . S
C249 C248 1.389 . S
C250 P224 1.819 . S
C250 C251 1.391 . S
C250 C255 1.391 . S
C251 H233 0.941 . S
C251 C250 1.391 . S
C251 C252 1.396 . S
C252 H236 0.939 . S
C252 C251 1.396 . S
C252 C253 1.397 . S
C253 C252 1.397 . S
C253 C254 1.385 . S
C254 H237 0.940 . S
C254 C253 1.385 . S
C254 C255 1.388 . S
C255 H234 0.939 . S
C255 C250 1.391 . S
C255 C254 1.388 . S
P256 O267 1.490 . S
P256 C270 1.812 . S
P256 C276 1.803 . S
P256 C282 1.819 . S
H257 C271 0.941 . S
H258 C272 0.939 . S
H259 C274 0.940 . S
H260 C275 0.940 . S
H261 C277 0.939 . S
H262 C278 0.942 . S
H263 C280 0.940 . S
H264 C281 0.939 . S
H265 C283 0.941 . S
H266 C287 0.939 . S
O267 P256 1.490 . S
H268 C284 0.939 . S
H269 C286 0.940 . S
C270 P256 1.812 . S
C270 C271 1.389 . S
C270 C275 1.391 . S
C271 H257 0.941 . S
C271 C270 1.389 . S
C271 C272 1.397 . S
C272 H258 0.939 . S
C272 C271 1.397 . S
C272 C273 1.378 . S
C273 C272 1.378 . S
C273 C274 1.378 . S
C274 H259 0.940 . S
C274 C273 1.378 . S
C274 C275 1.396 . S
C275 H260 0.940 . S
C275 C270 1.391 . S
C275 C274 1.396 . S
C276 P256 1.803 . S
C276 C277 1.378 . S
C276 C281 1.400 . S
C277 H261 0.939 . S
C277 C276 1.378 . S
C277 C278 1.361 . S
C278 H262 0.942 . S
C278 C277 1.361 . S
C278 C279 1.369 . S
C279 C278 1.369 . S
C279 C280 1.404 . S
C280 H263 0.940 . S
C280 C279 1.404 . S
C280 C281 1.389 . S
C281 H264 0.939 . S
C281 C276 1.400 . S
C281 C280 1.389 . S
C282 P256 1.819 . S
C282 C283 1.391 . S
C282 C287 1.391 . S
C283 H265 0.941 . S
C283 C282 1.391 . S
C283 C284 1.396 . S
C284 H268 0.939 . S
C284 C283 1.396 . S
C284 C285 1.397 . S
C285 C284 1.397 . S
C285 C286 1.385 . S
C286 H269 0.940 . S
C286 C285 1.385 . S
C286 C287 1.388 . S
C287 H266 0.939 . S
C287 C282 1.391 . S
C287 C286 1.388 . S
P288 O299 1.490 . S
P288 C302 1.812 . S
P288 C308 1.803 . S
P288 C314 1.819 . S
H289 C303 0.941 . S
H290 C304 0.939 . S
H291 C306 0.940 . S
H292 C307 0.940 . S
H293 C309 0.939 . S
H294 C310 0.942 . S
H295 C312 0.940 . S
H296 C313 0.939 . S
H297 C315 0.941 . S
H298 C319 0.939 . S
O299 P288 1.490 . S
H300 C316 0.939 . S
H301 C318 0.940 . S
C302 P288 1.812 . S
C302 C303 1.389 . S
C302 C307 1.391 . S
C303 H289 0.941 . S
C303 C302 1.389 . S
C303 C304 1.397 . S
C304 H290 0.939 . S
C304 C303 1.397 . S
C304 C305 1.378 . S
C305 C304 1.378 . S
C305 C306 1.378 . S
C306 H291 0.940 . S
C306 C305 1.378 . S
C306 C307 1.396 . S
C307 H292 0.940 . S
C307 C302 1.391 . S
C307 C306 1.396 . S
C308 P288 1.803 . S
C308 C309 1.378 . S
C308 C313 1.400 . S
C309 H293 0.939 . S
C309 C308 1.378 . S
C309 C310 1.361 . S
C310 H294 0.942 . S
C310 C309 1.361 . S
C310 C311 1.369 . S
C311 C310 1.369 . S
C311 C312 1.404 . S
C312 H295 0.940 . S
C312 C311 1.404 . S
C312 C313 1.389 . S
C313 H296 0.939 . S
C313 C308 1.400 . S
C313 C312 1.389 . S
C314 P288 1.819 . S
C314 C315 1.391 . S
C314 C319 1.391 . S
C315 H297 0.941 . S
C315 C314 1.391 . S
C315 C316 1.396 . S
C316 H300 0.939 . S
C316 C315 1.396 . S
C316 C317 1.397 . S
C317 C316 1.397 . S
C317 C318 1.385 . S
C318 H301 0.940 . S
C318 C317 1.385 . S
C318 C319 1.388 . S
C319 H298 0.939 . S
C319 C314 1.391 . S
C319 C318 1.388 . S
P320 O331 1.490 . S
P320 C334 1.812 . S
P320 C340 1.803 . S
P320 C346 1.819 . S
H321 C335 0.941 . S
H322 C336 0.939 . S
H323 C338 0.940 . S
H324 C339 0.940 . S
H325 C341 0.939 . S
H326 C342 0.942 . S
H327 C344 0.940 . S
H328 C345 0.939 . S
H329 C347 0.941 . S
H330 C351 0.939 . S
O331 P320 1.490 . S
H332 C348 0.939 . S
H333 C350 0.940 . S
C334 P320 1.812 . S
C334 C335 1.389 . S
C334 C339 1.391 . S
C335 H321 0.941 . S
C335 C334 1.389 . S
C335 C336 1.397 . S
C336 H322 0.939 . S
C336 C335 1.397 . S
C336 C337 1.378 . S
C337 C336 1.378 . S
C337 C338 1.378 . S
C338 H323 0.940 . S
C338 C337 1.378 . S
C338 C339 1.396 . S
C339 H324 0.940 . S
C339 C334 1.391 . S
C339 C338 1.396 . S
C340 P320 1.803 . S
C340 C341 1.378 . S
C340 C345 1.400 . S
C341 H325 0.939 . S
C341 C340 1.378 . S
C341 C342 1.361 . S
C342 H326 0.942 . S
C342 C341 1.361 . S
C342 C343 1.369 . S
C343 C342 1.369 . S
C343 C344 1.404 . S
C344 H327 0.940 . S
C344 C343 1.404 . S
C344 C345 1.389 . S
C345 H328 0.939 . S
C345 C340 1.400 . S
C345 C344 1.389 . S
C346 P320 1.819 . S
C346 C347 1.391 . S
C346 C351 1.391 . S
C347 H329 0.941 . S
C347 C346 1.391 . S
C347 C348 1.396 . S
C348 H332 0.939 . S
C348 C347 1.396 . S
C348 C349 1.397 . S
C349 C348 1.397 . S
C349 C350 1.385 . S
C350 H333 0.940 . S
C350 C349 1.385 . S
C350 C351 1.388 . S
C351 H330 0.939 . S
C351 C346 1.391 . S
C351 C350 1.388 . S
P352 O363 1.490 . S
P352 C366 1.812 . S
P352 C372 1.803 . S
P352 C378 1.819 . S
H353 C367 0.941 . S
H354 C368 0.939 . S
H355 C370 0.940 . S
H356 C371 0.940 . S
H357 C373 0.939 . S
H358 C374 0.942 . S
H359 C376 0.940 . S
H360 C377 0.939 . S
H361 C379 0.941 . S
H362 C383 0.939 . S
O363 P352 1.490 . S
H364 C380 0.939 . S
H365 C382 0.940 . S
C366 P352 1.812 . S
C366 C367 1.389 . S
C366 C371 1.391 . S
C367 H353 0.941 . S
C367 C366 1.389 . S
C367 C368 1.397 . S
C368 H354 0.939 . S
C368 C367 1.397 . S
C368 C369 1.378 . S
C369 C368 1.378 . S
C369 C370 1.378 . S
C370 H355 0.940 . S
C370 C369 1.378 . S
C370 C371 1.396 . S
C371 H356 0.940 . S
C371 C366 1.391 . S
C371 C370 1.396 . S
C372 P352 1.803 . S
C372 C373 1.378 . S
C372 C377 1.400 . S
C373 H357 0.939 . S
C373 C372 1.378 . S
C373 C374 1.361 . S
C374 H358 0.942 . S
C374 C373 1.361 . S
C374 C375 1.369 . S
C375 C374 1.369 . S
C375 C376 1.404 . S
C376 H359 0.940 . S
C376 C375 1.404 . S
C376 C377 1.389 . S
C377 H360 0.939 . S
C377 C372 1.400 . S
C377 C376 1.389 . S
C378 P352 1.819 . S
C378 C379 1.391 . S
C378 C383 1.391 . S
C379 H361 0.941 . S
C379 C378 1.391 . S
C379 C380 1.396 . S
C380 H364 0.939 . S
C380 C379 1.396 . S
C380 C381 1.397 . S
C381 C380 1.397 . S
C381 C382 1.385 . S
C382 H365 0.940 . S
C382 C381 1.385 . S
C382 C383 1.388 . S
C383 H362 0.939 . S
C383 C378 1.391 . S
C383 C382 1.388 . S
P384 O395 1.490 . S
P384 C398 1.812 . S
P384 C404 1.803 . S
P384 C410 1.819 . S
H385 C399 0.941 . S
H386 C400 0.939 . S
H387 C402 0.940 . S
H388 C403 0.940 . S
H389 C405 0.939 . S
H390 C406 0.942 . S
H391 C408 0.940 . S
H392 C409 0.939 . S
H393 C411 0.941 . S
H394 C415 0.939 . S
O395 P384 1.490 . S
H396 C412 0.939 . S
H397 C414 0.940 . S
C398 P384 1.812 . S
C398 C399 1.389 . S
C398 C403 1.391 . S
C399 H385 0.941 . S
C399 C398 1.389 . S
C399 C400 1.397 . S
C400 H386 0.939 . S
C400 C399 1.397 . S
C400 C401 1.378 . S
C401 C400 1.378 . S
C401 C402 1.378 . S
C402 H387 0.940 . S
C402 C401 1.378 . S
C402 C403 1.396 . S
C403 H388 0.940 . S
C403 C398 1.391 . S
C403 C402 1.396 . S
C404 P384 1.803 . S
C404 C405 1.378 . S
C404 C409 1.400 . S
C405 H389 0.939 . S
C405 C404 1.378 . S
C405 C406 1.361 . S
C406 H390 0.942 . S
C406 C405 1.361 . S
C406 C407 1.369 . S
C407 C406 1.369 . S
C407 C408 1.404 . S
C408 H391 0.940 . S
C408 C407 1.404 . S
C408 C409 1.389 . S
C409 H392 0.939 . S
C409 C404 1.400 . S
C409 C408 1.389 . S
C410 P384 1.819 . S
C410 C411 1.391 . S
C410 C415 1.391 . S
C411 H393 0.941 . S
C411 C410 1.391 . S
C411 C412 1.396 . S
C412 H396 0.939 . S
C412 C411 1.396 . S
C412 C413 1.397 . S
C413 C412 1.397 . S
C413 C414 1.385 . S
C414 H397 0.940 . S
C414 C413 1.385 . S
C414 C415 1.388 . S
C415 H394 0.939 . S
C415 C410 1.391 . S
C415 C414 1.388 . S
P416 O427 1.490 . S
P416 C430 1.812 . S
P416 C436 1.803 . S
P416 C442 1.819 . S
H417 C431 0.941 . S
H418 C432 0.939 . S
H419 C434 0.940 . S
H420 C435 0.940 . S
H421 C437 0.939 . S
H422 C438 0.942 . S
H423 C440 0.940 . S
H424 C441 0.939 . S
H425 C443 0.941 . S
H426 C447 0.939 . S
O427 P416 1.490 . S
H428 C444 0.939 . S
H429 C446 0.940 . S
C430 P416 1.812 . S
C430 C431 1.389 . S
C430 C435 1.391 . S
C431 H417 0.941 . S
C431 C430 1.389 . S
C431 C432 1.397 . S
C432 H418 0.939 . S
C432 C431 1.397 . S
C432 C433 1.378 . S
C433 C432 1.378 . S
C433 C434 1.378 . S
C434 H419 0.940 . S
C434 C433 1.378 . S
C434 C435 1.396 . S
C435 H420 0.940 . S
C435 C430 1.391 . S
C435 C434 1.396 . S
C436 P416 1.803 . S
C436 C437 1.378 . S
C436 C441 1.400 . S
C437 H421 0.939 . S
C437 C436 1.378 . S
C437 C438 1.361 . S
C438 H422 0.942 . S
C438 C437 1.361 . S
C438 C439 1.369 . S
C439 C438 1.369 . S
C439 C440 1.404 . S
C440 H423 0.940 . S
C440 C439 1.404 . S
C440 C441 1.389 . S
C441 H424 0.939 . S
C441 C436 1.400 . S
C441 C440 1.389 . S
C442 P416 1.819 . S
C442 C443 1.391 . S
C442 C447 1.391 . S
C443 H425 0.941 . S
C443 C442 1.391 . S
C443 C444 1.396 . S
C444 H428 0.939 . S
C444 C443 1.396 . S
C444 C445 1.397 . S
C445 C444 1.397 . S
C445 C446 1.385 . S
C446 H429 0.940 . S
C446 C445 1.385 . S
C446 C447 1.388 . S
C447 H426 0.939 . S
C447 C442 1.391 . S
C447 C446 1.388 . S
P448 O459 1.490 . S
P448 C462 1.812 . S
P448 C468 1.803 . S
P448 C474 1.819 . S
H449 C463 0.941 . S
H450 C464 0.939 . S
H451 C466 0.940 . S
H452 C467 0.940 . S
H453 C469 0.939 . S
H454 C470 0.942 . S
H455 C472 0.940 . S
H456 C473 0.939 . S
H457 C475 0.941 . S
H458 C479 0.939 . S
O459 P448 1.490 . S
H460 C476 0.939 . S
H461 C478 0.940 . S
C462 P448 1.812 . S
C462 C463 1.389 . S
C462 C467 1.391 . S
C463 H449 0.941 . S
C463 C462 1.389 . S
C463 C464 1.397 . S
C464 H450 0.939 . S
C464 C463 1.397 . S
C464 C465 1.378 . S
C465 C464 1.378 . S
C465 C466 1.378 . S
C466 H451 0.940 . S
C466 C465 1.378 . S
C466 C467 1.396 . S
C467 H452 0.940 . S
C467 C462 1.391 . S
C467 C466 1.396 . S
C468 P448 1.803 . S
C468 C469 1.378 . S
C468 C473 1.400 . S
C469 H453 0.939 . S
C469 C468 1.378 . S
C469 C470 1.361 . S
C470 H454 0.942 . S
C470 C469 1.361 . S
C470 C471 1.369 . S
C471 C470 1.369 . S
C471 C472 1.404 . S
C472 H455 0.940 . S
C472 C471 1.404 . S
C472 C473 1.389 . S
C473 H456 0.939 . S
C473 C468 1.400 . S
C473 C472 1.389 . S
C474 P448 1.819 . S
C474 C475 1.391 . S
C474 C479 1.391 . S
C475 H457 0.941 . S
C475 C474 1.391 . S
C475 C476 1.396 . S
C476 H460 0.939 . S
C476 C475 1.396 . S
C476 C477 1.397 . S
C477 C476 1.397 . S
C477 C478 1.385 . S
C478 H461 0.940 . S
C478 C477 1.385 . S
C478 C479 1.388 . S
C479 H458 0.939 . S
C479 C474 1.391 . S
C479 C478 1.388 . S
P480 O491 1.490 . S
P480 C494 1.812 . S
P480 C500 1.803 . S
P480 C506 1.819 . S
H481 C495 0.941 . S
H482 C496 0.939 . S
H483 C498 0.940 . S
H484 C499 0.940 . S
H485 C501 0.939 . S
H486 C502 0.942 . S
H487 C504 0.940 . S
H488 C505 0.939 . S
H489 C507 0.941 . S
H490 C511 0.939 . S
O491 P480 1.490 . S
H492 C508 0.939 . S
H493 C510 0.940 . S
C494 P480 1.812 . S
C494 C495 1.389 . S
C494 C499 1.391 . S
C495 H481 0.941 . S
C495 C494 1.389 . S
C495 C496 1.397 . S
C496 H482 0.939 . S
C496 C495 1.397 . S
C496 C497 1.378 . S
C497 C496 1.378 . S
C497 C498 1.378 . S
C498 H483 0.940 . S
C498 C497 1.378 . S
C498 C499 1.396 . S
C499 H484 0.940 . S
C499 C494 1.391 . S
C499 C498 1.396 . S
C500 P480 1.803 . S
C500 C501 1.378 . S
C500 C505 1.400 . S
C501 H485 0.939 . S
C501 C500 1.378 . S
C501 C502 1.361 . S
C502 H486 0.942 . S
C502 C501 1.361 . S
C502 C503 1.369 . S
C503 C502 1.369 . S
C503 C504 1.404 . S
C504 H487 0.940 . S
C504 C503 1.404 . S
C504 C505 1.389 . S
C505 H488 0.939 . S
C505 C500 1.400 . S
C505 C504 1.389 . S
C506 P480 1.819 . S
C506 C507 1.391 . S
C506 C511 1.391 . S
C507 H489 0.941 . S
C507 C506 1.391 . S
C507 C508 1.396 . S
C508 H492 0.939 . S
C508 C507 1.396 . S
C508 C509 1.397 . S
C509 C508 1.397 . S
C509 C510 1.385 . S
C510 H493 0.940 . S
C510 C509 1.385 . S
C510 C511 1.388 . S
C511 H490 0.939 . S
C511 C506 1.391 . S
C511 C510 1.388 . S
P512 O523 1.490 . S
P512 C526 1.812 . S
P512 C532 1.803 . S
P512 C538 1.819 . S
H513 C527 0.941 . S
H514 C528 0.939 . S
H515 C530 0.940 . S
H516 C531 0.940 . S
H517 C533 0.939 . S
H518 C534 0.942 . S
H519 C536 0.940 . S
H520 C537 0.939 . S
H521 C539 0.941 . S
H522 C543 0.939 . S
O523 P512 1.490 . S
H524 C540 0.939 . S
H525 C542 0.940 . S
C526 P512 1.812 . S
C526 C527 1.389 . S
C526 C531 1.391 . S
C527 H513 0.941 . S
C527 C526 1.389 . S
C527 C528 1.397 . S
C528 H514 0.939 . S
C528 C527 1.397 . S
C528 C529 1.378 . S
C529 C528 1.378 . S
C529 C530 1.378 . S
C530 H515 0.940 . S
C530 C529 1.378 . S
C530 C531 1.396 . S
C531 H516 0.940 . S
C531 C526 1.391 . S
C531 C530 1.396 . S
C532 P512 1.803 . S
C532 C533 1.378 . S
C532 C537 1.400 . S
C533 H517 0.939 . S
C533 C532 1.378 . S
C533 C534 1.361 . S
C534 H518 0.942 . S
C534 C533 1.361 . S
C534 C535 1.369 . S
C535 C534 1.369 . S
C535 C536 1.404 . S
C536 H519 0.940 . S
C536 C535 1.404 . S
C536 C537 1.389 . S
C537 H520 0.939 . S
C537 C532 1.400 . S
C537 C536 1.389 . S
C538 P512 1.819 . S
C538 C539 1.391 . S
C538 C543 1.391 . S
C539 H521 0.941 . S
C539 C538 1.391 . S
C539 C540 1.396 . S
C540 H524 0.939 . S
C540 C539 1.396 . S
C540 C541 1.397 . S
C541 C540 1.397 . S
C541 C542 1.385 . S
C542 H525 0.940 . S
C542 C541 1.385 . S
C542 C543 1.388 . S
C543 H522 0.939 . S
C543 C538 1.391 . S
C543 C542 1.388 . S
P544 O555 1.490 . S
P544 C558 1.812 . S
P544 C564 1.803 . S
P544 C570 1.819 . S
H545 C559 0.941 . S
H546 C560 0.939 . S
H547 C562 0.940 . S
H548 C563 0.940 . S
H549 C565 0.939 . S
H550 C566 0.942 . S
H551 C568 0.940 . S
H552 C569 0.939 . S
H553 C571 0.941 . S
H554 C575 0.939 . S
O555 P544 1.490 . S
H556 C572 0.939 . S
H557 C574 0.940 . S
C558 P544 1.812 . S
C558 C559 1.389 . S
C558 C563 1.391 . S
C559 H545 0.941 . S
C559 C558 1.389 . S
C559 C560 1.397 . S
C560 H546 0.939 . S
C560 C559 1.397 . S
C560 C561 1.378 . S
C561 C560 1.378 . S
C561 C562 1.378 . S
C562 H547 0.940 . S
C562 C561 1.378 . S
C562 C563 1.396 . S
C563 H548 0.940 . S
C563 C558 1.391 . S
C563 C562 1.396 . S
C564 P544 1.803 . S
C564 C565 1.378 . S
C564 C569 1.400 . S
C565 H549 0.939 . S
C565 C564 1.378 . S
C565 C566 1.361 . S
C566 H550 0.942 . S
C566 C565 1.361 . S
C566 C567 1.369 . S
C567 C566 1.369 . S
C567 C568 1.404 . S
C568 H551 0.940 . S
C568 C567 1.404 . S
C568 C569 1.389 . S
C569 H552 0.939 . S
C569 C564 1.400 . S
C569 C568 1.389 . S
C570 P544 1.819 . S
C570 C571 1.391 . S
C570 C575 1.391 . S
C571 H553 0.941 . S
C571 C570 1.391 . S
C571 C572 1.396 . S
C572 H556 0.939 . S
C572 C571 1.396 . S
C572 C573 1.397 . S
C573 C572 1.397 . S
C573 C574 1.385 . S
C574 H557 0.940 . S
C574 C573 1.385 . S
C574 C575 1.388 . S
C575 H554 0.939 . S
C575 C570 1.391 . S
C575 C574 1.388 . S
P576 O587 1.490 . S
P576 C590 1.812 . S
P576 C596 1.803 . S
P576 C602 1.819 . S
H577 C591 0.941 . S
H578 C592 0.939 . S
H579 C594 0.940 . S
H580 C595 0.940 . S
H581 C597 0.939 . S
H582 C598 0.942 . S
H583 C600 0.940 . S
H584 C601 0.939 . S
H585 C603 0.941 . S
H586 C607 0.939 . S
O587 P576 1.490 . S
H588 C604 0.939 . S
H589 C606 0.940 . S
C590 P576 1.812 . S
C590 C591 1.389 . S
C590 C595 1.391 . S
C591 H577 0.941 . S
C591 C590 1.389 . S
C591 C592 1.397 . S
C592 H578 0.939 . S
C592 C591 1.397 . S
C592 C593 1.378 . S
C593 C592 1.378 . S
C593 C594 1.378 . S
C594 H579 0.940 . S
C594 C593 1.378 . S
C594 C595 1.396 . S
C595 H580 0.940 . S
C595 C590 1.391 . S
C595 C594 1.396 . S
C596 P576 1.803 . S
C596 C597 1.378 . S
C596 C601 1.400 . S
C597 H581 0.939 . S
C597 C596 1.378 . S
C597 C598 1.361 . S
C598 H582 0.942 . S
C598 C597 1.361 . S
C598 C599 1.369 . S
C599 C598 1.369 . S
C599 C600 1.404 . S
C600 H583 0.940 . S
C600 C599 1.404 . S
C600 C601 1.389 . S
C601 H584 0.939 . S
C601 C596 1.400 . S
C601 C600 1.389 . S
C602 P576 1.819 . S
C602 C603 1.391 . S
C602 C607 1.391 . S
C603 H585 0.941 . S
C603 C602 1.391 . S
C603 C604 1.396 . S
C604 H588 0.939 . S
C604 C603 1.396 . S
C604 C605 1.397 . S
C605 C604 1.397 . S
C605 C606 1.385 . S
C606 H589 0.940 . S
C606 C605 1.385 . S
C606 C607 1.388 . S
C607 H586 0.939 . S
C607 C602 1.391 . S
C607 C606 1.388 . S
P608 O619 1.490 . S
P608 C622 1.812 . S
P608 C628 1.803 . S
P608 C634 1.819 . S
H609 C623 0.941 . S
H610 C624 0.939 . S
H611 C626 0.940 . S
H612 C627 0.940 . S
H613 C629 0.939 . S
H614 C630 0.942 . S
H615 C632 0.940 . S
H616 C633 0.939 . S
H617 C635 0.941 . S
H618 C639 0.939 . S
O619 P608 1.490 . S
H620 C636 0.939 . S
H621 C638 0.940 . S
C622 P608 1.812 . S
C622 C623 1.389 . S
C622 C627 1.391 . S
C623 H609 0.941 . S
C623 C622 1.389 . S
C623 C624 1.397 . S
C624 H610 0.939 . S
C624 C623 1.397 . S
C624 C625 1.378 . S
C625 C624 1.378 . S
C625 C626 1.378 . S
C626 H611 0.940 . S
C626 C625 1.378 . S
C626 C627 1.396 . S
C627 H612 0.940 . S
C627 C622 1.391 . S
C627 C626 1.396 . S
C628 P608 1.803 . S
C628 C629 1.378 . S
C628 C633 1.400 . S
C629 H613 0.939 . S
C629 C628 1.378 . S
C629 C630 1.361 . S
C630 H614 0.942 . S
C630 C629 1.361 . S
C630 C631 1.369 . S
C631 C630 1.369 . S
C631 C632 1.404 . S
C632 H615 0.940 . S
C632 C631 1.404 . S
C632 C633 1.389 . S
C633 H616 0.939 . S
C633 C628 1.400 . S
C633 C632 1.389 . S
C634 P608 1.819 . S
C634 C635 1.391 . S
C634 C639 1.391 . S
C635 H617 0.941 . S
C635 C634 1.391 . S
C635 C636 1.396 . S
C636 H620 0.939 . S
C636 C635 1.396 . S
C636 C637 1.397 . S
C637 C636 1.397 . S
C637 C638 1.385 . S
C638 H621 0.940 . S
C638 C637 1.385 . S
C638 C639 1.388 . S
C639 H618 0.939 . S
C639 C634 1.391 . S
C639 C638 1.388 . S
P640 O651 1.490 . S
P640 C654 1.812 . S
P640 C660 1.803 . S
P640 C666 1.819 . S
H641 C655 0.941 . S
H642 C656 0.939 . S
H643 C658 0.940 . S
H644 C659 0.940 . S
H645 C661 0.939 . S
H646 C662 0.942 . S
H647 C664 0.940 . S
H648 C665 0.939 . S
H649 C667 0.941 . S
H650 C671 0.939 . S
O651 P640 1.490 . S
H652 C668 0.939 . S
H653 C670 0.940 . S
C654 P640 1.812 . S
C654 C655 1.389 . S
C654 C659 1.391 . S
C655 H641 0.941 . S
C655 C654 1.389 . S
C655 C656 1.397 . S
C656 H642 0.939 . S
C656 C655 1.397 . S
C656 C657 1.378 . S
C657 C656 1.378 . S
C657 C658 1.378 . S
C658 H643 0.940 . S
C658 C657 1.378 . S
C658 C659 1.396 . S
C659 H644 0.940 . S
C659 C654 1.391 . S
C659 C658 1.396 . S
C660 P640 1.803 . S
C660 C661 1.378 . S
C660 C665 1.400 . S
C661 H645 0.939 . S
C661 C660 1.378 . S
C661 C662 1.361 . S
C662 H646 0.942 . S
C662 C661 1.361 . S
C662 C663 1.369 . S
C663 C662 1.369 . S
C663 C664 1.404 . S
C664 H647 0.940 . S
C664 C663 1.404 . S
C664 C665 1.389 . S
C665 H648 0.939 . S
C665 C660 1.400 . S
C665 C664 1.389 . S
C666 P640 1.819 . S
C666 C667 1.391 . S
C666 C671 1.391 . S
C667 H649 0.941 . S
C667 C666 1.391 . S
C667 C668 1.396 . S
C668 H652 0.939 . S
C668 C667 1.396 . S
C668 C669 1.397 . S
C669 C668 1.397 . S
C669 C670 1.385 . S
C670 H653 0.940 . S
C670 C669 1.385 . S
C670 C671 1.388 . S
C671 H650 0.939 . S
C671 C666 1.391 . S
C671 C670 1.388 . S
P672 O683 1.490 . S
P672 C686 1.812 . S
P672 C692 1.803 . S
P672 C698 1.819 . S
H673 C687 0.941 . S
H674 C688 0.939 . S
H675 C690 0.940 . S
H676 C691 0.940 . S
H677 C693 0.939 . S
H678 C694 0.942 . S
H679 C696 0.940 . S
H680 C697 0.939 . S
H681 C699 0.941 . S
H682 C703 0.939 . S
O683 P672 1.490 . S
H684 C700 0.939 . S
H685 C702 0.940 . S
C686 P672 1.812 . S
C686 C687 1.389 . S
C686 C691 1.391 . S
C687 H673 0.941 . S
C687 C686 1.389 . S
C687 C688 1.397 . S
C688 H674 0.939 . S
C688 C687 1.397 . S
C688 C689 1.378 . S
C689 C688 1.378 . S
C689 C690 1.378 . S
C690 H675 0.940 . S
C690 C689 1.378 . S
C690 C691 1.396 . S
C691 H676 0.940 . S
C691 C686 1.391 . S
C691 C690 1.396 . S
C692 P672 1.803 . S
C692 C693 1.378 . S
C692 C697 1.400 . S
C693 H677 0.939 . S
C693 C692 1.378 . S
C693 C694 1.361 . S
C694 H678 0.942 . S
C694 C693 1.361 . S
C694 C695 1.369 . S
C695 C694 1.369 . S
C695 C696 1.404 . S
C696 H679 0.940 . S
C696 C695 1.404 . S
C696 C697 1.389 . S
C697 H680 0.939 . S
C697 C692 1.400 . S
C697 C696 1.389 . S
C698 P672 1.819 . S
C698 C699 1.391 . S
C698 C703 1.391 . S
C699 H681 0.941 . S
C699 C698 1.391 . S
C699 C700 1.396 . S
C700 H684 0.939 . S
C700 C699 1.396 . S
C700 C701 1.397 . S
C701 C700 1.397 . S
C701 C702 1.385 . S
C702 H685 0.940 . S
C702 C701 1.385 . S
C702 C703 1.388 . S
C703 H682 0.939 . S
C703 C698 1.391 . S
C703 C702 1.388 . S
P704 O715 1.490 . S
P704 C718 1.812 . S
P704 C724 1.803 . S
P704 C730 1.819 . S
H705 C719 0.941 . S
H706 C720 0.939 . S
H707 C722 0.940 . S
H708 C723 0.940 . S
H709 C725 0.939 . S
H710 C726 0.942 . S
H711 C728 0.940 . S
H712 C729 0.939 . S
H713 C731 0.941 . S
H714 C735 0.939 . S
O715 P704 1.490 . S
H716 C732 0.939 . S
H717 C734 0.940 . S
C718 P704 1.812 . S
C718 C719 1.389 . S
C718 C723 1.391 . S
C719 H705 0.941 . S
C719 C718 1.389 . S
C719 C720 1.397 . S
C720 H706 0.939 . S
C720 C719 1.397 . S
C720 C721 1.378 . S
C721 C720 1.378 . S
C721 C722 1.378 . S
C722 H707 0.940 . S
C722 C721 1.378 . S
C722 C723 1.396 . S
C723 H708 0.940 . S
C723 C718 1.391 . S
C723 C722 1.396 . S
C724 P704 1.803 . S
C724 C725 1.378 . S
C724 C729 1.400 . S
C725 H709 0.939 . S
C725 C724 1.378 . S
C725 C726 1.361 . S
C726 H710 0.942 . S
C726 C725 1.361 . S
C726 C727 1.369 . S
C727 C726 1.369 . S
C727 C728 1.404 . S
C728 H711 0.940 . S
C728 C727 1.404 . S
C728 C729 1.389 . S
C729 H712 0.939 . S
C729 C724 1.400 . S
C729 C728 1.389 . S
C730 P704 1.819 . S
C730 C731 1.391 . S
C730 C735 1.391 . S
C731 H713 0.941 . S
C731 C730 1.391 . S
C731 C732 1.396 . S
C732 H716 0.939 . S
C732 C731 1.396 . S
C732 C733 1.397 . S
C733 C732 1.397 . S
C733 C734 1.385 . S
C734 H717 0.940 . S
C734 C733 1.385 . S
C734 C735 1.388 . S
C735 H714 0.939 . S
C735 C730 1.391 . S
C735 C734 1.388 . S
P736 O747 1.490 . S
P736 C750 1.812 . S
P736 C756 1.803 . S
P736 C762 1.819 . S
H737 C751 0.941 . S
H738 C752 0.939 . S
H739 C754 0.940 . S
H740 C755 0.940 . S
H741 C757 0.939 . S
H742 C758 0.942 . S
H743 C760 0.940 . S
H744 C761 0.939 . S
H745 C763 0.941 . S
H746 C767 0.939 . S
O747 P736 1.490 . S
H748 C764 0.939 . S
H749 C766 0.940 . S
C750 P736 1.812 . S
C750 C751 1.389 . S
C750 C755 1.391 . S
C751 H737 0.941 . S
C751 C750 1.389 . S
C751 C752 1.397 . S
C752 H738 0.939 . S
C752 C751 1.397 . S
C752 C753 1.378 . S
C753 C752 1.378 . S
C753 C754 1.378 . S
C754 H739 0.940 . S
C754 C753 1.378 . S
C754 C755 1.396 . S
C755 H740 0.940 . S
C755 C750 1.391 . S
C755 C754 1.396 . S
C756 P736 1.803 . S
C756 C757 1.378 . S
C756 C761 1.400 . S
C757 H741 0.939 . S
C757 C756 1.378 . S
C757 C758 1.361 . S
C758 H742 0.942 . S
C758 C757 1.361 . S
C758 C759 1.369 . S
C759 C758 1.369 . S
C759 C760 1.404 . S
C760 H743 0.940 . S
C760 C759 1.404 . S
C760 C761 1.389 . S
C761 H744 0.939 . S
C761 C756 1.400 . S
C761 C760 1.389 . S
C762 P736 1.819 . S
C762 C763 1.391 . S
C762 C767 1.391 . S
C763 H745 0.941 . S
C763 C762 1.391 . S
C763 C764 1.396 . S
C764 H748 0.939 . S
C764 C763 1.396 . S
C764 C765 1.397 . S
C765 C764 1.397 . S
C765 C766 1.385 . S
C766 H749 0.940 . S
C766 C765 1.385 . S
C766 C767 1.388 . S
C767 H746 0.939 . S
C767 C762 1.391 . S
C767 C766 1.388 . S
P768 O779 1.490 . S
P768 C782 1.812 . S
P768 C788 1.803 . S
P768 C794 1.819 . S
H769 C783 0.941 . S
H770 C784 0.939 . S
H771 C786 0.940 . S
H772 C787 0.940 . S
H773 C789 0.939 . S
H774 C790 0.942 . S
H775 C792 0.940 . S
H776 C793 0.939 . S
H777 C795 0.941 . S
H778 C799 0.939 . S
O779 P768 1.490 . S
H780 C796 0.939 . S
H781 C798 0.940 . S
C782 P768 1.812 . S
C782 C783 1.389 . S
C782 C787 1.391 . S
C783 H769 0.941 . S
C783 C782 1.389 . S
C783 C784 1.397 . S
C784 H770 0.939 . S
C784 C783 1.397 . S
C784 C785 1.378 . S
C785 C784 1.378 . S
C785 C786 1.378 . S
C786 H771 0.940 . S
C786 C785 1.378 . S
C786 C787 1.396 . S
C787 H772 0.940 . S
C787 C782 1.391 . S
C787 C786 1.396 . S
C788 P768 1.803 . S
C788 C789 1.378 . S
C788 C793 1.400 . S
C789 H773 0.939 . S
C789 C788 1.378 . S
C789 C790 1.361 . S
C790 H774 0.942 . S
C790 C789 1.361 . S
C790 C791 1.369 . S
C791 C790 1.369 . S
C791 C792 1.404 . S
C792 H775 0.940 . S
C792 C791 1.404 . S
C792 C793 1.389 . S
C793 H776 0.939 . S
C793 C788 1.400 . S
C793 C792 1.389 . S
C794 P768 1.819 . S
C794 C795 1.391 . S
C794 C799 1.391 . S
C795 H777 0.941 . S
C795 C794 1.391 . S
C795 C796 1.396 . S
C796 H780 0.939 . S
C796 C795 1.396 . S
C796 C797 1.397 . S
C797 C796 1.397 . S
C797 C798 1.385 . S
C798 H781 0.940 . S
C798 C797 1.385 . S
C798 C799 1.388 . S
C799 H778 0.939 . S
C799 C794 1.391 . S
C799 C798 1.388 . S
P800 O811 1.490 . S
P800 C814 1.812 . S
P800 C820 1.803 . S
P800 C826 1.819 . S
H801 C815 0.941 . S
H802 C816 0.939 . S
H803 C818 0.940 . S
H804 C819 0.940 . S
H805 C821 0.939 . S
H806 C822 0.942 . S
H807 C824 0.940 . S
H808 C825 0.939 . S
H809 C827 0.941 . S
H810 C831 0.939 . S
O811 P800 1.490 . S
H812 C828 0.939 . S
H813 C830 0.940 . S
C814 P800 1.812 . S
C814 C815 1.389 . S
C814 C819 1.391 . S
C815 H801 0.941 . S
C815 C814 1.389 . S
C815 C816 1.397 . S
C816 H802 0.939 . S
C816 C815 1.397 . S
C816 C817 1.378 . S
C817 C816 1.378 . S
C817 C818 1.378 . S
C818 H803 0.940 . S
C818 C817 1.378 . S
C818 C819 1.396 . S
C819 H804 0.940 . S
C819 C814 1.391 . S
C819 C818 1.396 . S
C820 P800 1.803 . S
C820 C821 1.378 . S
C820 C825 1.400 . S
C821 H805 0.939 . S
C821 C820 1.378 . S
C821 C822 1.361 . S
C822 H806 0.942 . S
C822 C821 1.361 . S
C822 C823 1.369 . S
C823 C822 1.369 . S
C823 C824 1.404 . S
C824 H807 0.940 . S
C824 C823 1.404 . S
C824 C825 1.389 . S
C825 H808 0.939 . S
C825 C820 1.400 . S
C825 C824 1.389 . S
C826 P800 1.819 . S
C826 C827 1.391 . S
C826 C831 1.391 . S
C827 H809 0.941 . S
C827 C826 1.391 . S
C827 C828 1.396 . S
C828 H812 0.939 . S
C828 C827 1.396 . S
C828 C829 1.397 . S
C829 C828 1.397 . S
C829 C830 1.385 . S
C830 H813 0.940 . S
C830 C829 1.385 . S
C830 C831 1.388 . S
C831 H810 0.939 . S
C831 C826 1.391 . S
C831 C830 1.388 . S
P832 O843 1.490 . S
P832 C846 1.812 . S
P832 C852 1.803 . S
P832 C858 1.819 . S
H833 C847 0.941 . S
H834 C848 0.939 . S
H835 C850 0.940 . S
H836 C851 0.940 . S
H837 C853 0.939 . S
H838 C854 0.942 . S
H839 C856 0.940 . S
H840 C857 0.939 . S
H841 C859 0.941 . S
H842 C863 0.939 . S
O843 P832 1.490 . S
H844 C860 0.939 . S
H845 C862 0.940 . S
C846 P832 1.812 . S
C846 C847 1.389 . S
C846 C851 1.391 . S
C847 H833 0.941 . S
C847 C846 1.389 . S
C847 C848 1.397 . S
C848 H834 0.939 . S
C848 C847 1.397 . S
C848 C849 1.378 . S
C849 C848 1.378 . S
C849 C850 1.378 . S
C850 H835 0.940 . S
C850 C849 1.378 . S
C850 C851 1.396 . S
C851 H836 0.940 . S
C851 C846 1.391 . S
C851 C850 1.396 . S
C852 P832 1.803 . S
C852 C853 1.378 . S
C852 C857 1.400 . S
C853 H837 0.939 . S
C853 C852 1.378 . S
C853 C854 1.361 . S
C854 H838 0.942 . S
C854 C853 1.361 . S
C854 C855 1.369 . S
C855 C854 1.369 . S
C855 C856 1.404 . S
C856 H839 0.940 . S
C856 C855 1.404 . S
C856 C857 1.389 . S
C857 H840 0.939 . S
C857 C852 1.400 . S
C857 C856 1.389 . S
C858 P832 1.819 . S
C858 C859 1.391 . S
C858 C863 1.391 . S
C859 H841 0.941 . S
C859 C858 1.391 . S
C859 C860 1.396 . S
C860 H844 0.939 . S
C860 C859 1.396 . S
C860 C861 1.397 . S
C861 C860 1.397 . S
C861 C862 1.385 . S
C862 H845 0.940 . S
C862 C861 1.385 . S
C862 C863 1.388 . S
C863 H842 0.939 . S
C863 C858 1.391 . S
C863 C862 1.388 . S
P864 O875 1.490 . S
P864 C878 1.812 . S
P864 C884 1.803 . S
P864 C890 1.819 . S
H865 C879 0.941 . S
H866 C880 0.939 . S
H867 C882 0.940 . S
H868 C883 0.940 . S
H869 C885 0.939 . S
H870 C886 0.942 . S
H871 C888 0.940 . S
H872 C889 0.939 . S
H873 C891 0.941 . S
H874 C895 0.939 . S
O875 P864 1.490 . S
H876 C892 0.939 . S
H877 C894 0.940 . S
C878 P864 1.812 . S
C878 C879 1.389 . S
C878 C883 1.391 . S
C879 H865 0.941 . S
C879 C878 1.389 . S
C879 C880 1.397 . S
C880 H866 0.939 . S
C880 C879 1.397 . S
C880 C881 1.378 . S
C881 C880 1.378 . S
C881 C882 1.378 . S
C882 H867 0.940 . S
C882 C881 1.378 . S
C882 C883 1.396 . S
C883 H868 0.940 . S
C883 C878 1.391 . S
C883 C882 1.396 . S
C884 P864 1.803 . S
C884 C885 1.378 . S
C884 C889 1.400 . S
C885 H869 0.939 . S
C885 C884 1.378 . S
C885 C886 1.361 . S
C886 H870 0.942 . S
C886 C885 1.361 . S
C886 C887 1.369 . S
C887 C886 1.369 . S
C887 C888 1.404 . S
C888 H871 0.940 . S
C888 C887 1.404 . S
C888 C889 1.389 . S
C889 H872 0.939 . S
C889 C884 1.400 . S
C889 C888 1.389 . S
C890 P864 1.819 . S
C890 C891 1.391 . S
C890 C895 1.391 . S
C891 H873 0.941 . S
C891 C890 1.391 . S
C891 C892 1.396 . S
C892 H876 0.939 . S
C892 C891 1.396 . S
C892 C893 1.397 . S
C893 C892 1.397 . S
C893 C894 1.385 . S
C894 H877 0.940 . S
C894 C893 1.385 . S
C894 C895 1.388 . S
C895 H874 0.939 . S
C895 C890 1.391 . S
C895 C894 1.388 . S
P896 O907 1.490 . S
P896 C910 1.812 . S
P896 C916 1.803 . S
P896 C922 1.819 . S
H897 C911 0.941 . S
H898 C912 0.939 . S
H899 C914 0.940 . S
H900 C915 0.940 . S
H901 C917 0.939 . S
H902 C918 0.942 . S
H903 C920 0.940 . S
H904 C921 0.939 . S
H905 C923 0.941 . S
H906 C927 0.939 . S
O907 P896 1.490 . S
H908 C924 0.939 . S
H909 C926 0.940 . S
C910 P896 1.812 . S
C910 C911 1.389 . S
C910 C915 1.391 . S
C911 H897 0.941 . S
C911 C910 1.389 . S
C911 C912 1.397 . S
C912 H898 0.939 . S
C912 C911 1.397 . S
C912 C913 1.378 . S
C913 C912 1.378 . S
C913 C914 1.378 . S
C914 H899 0.940 . S
C914 C913 1.378 . S
C914 C915 1.396 . S
C915 H900 0.940 . S
C915 C910 1.391 . S
C915 C914 1.396 . S
C916 P896 1.803 . S
C916 C917 1.378 . S
C916 C921 1.400 . S
C917 H901 0.939 . S
C917 C916 1.378 . S
C917 C918 1.361 . S
C918 H902 0.942 . S
C918 C917 1.361 . S
C918 C919 1.369 . S
C919 C918 1.369 . S
C919 C920 1.404 . S
C920 H903 0.940 . S
C920 C919 1.404 . S
C920 C921 1.389 . S
C921 H904 0.939 . S
C921 C916 1.400 . S
C921 C920 1.389 . S
C922 P896 1.819 . S
C922 C923 1.391 . S
C922 C927 1.391 . S
C923 H905 0.941 . S
C923 C922 1.391 . S
C923 C924 1.396 . S
C924 H908 0.939 . S
C924 C923 1.396 . S
C924 C925 1.397 . S
C925 C924 1.397 . S
C925 C926 1.385 . S
C926 H909 0.940 . S
C926 C925 1.385 . S
C926 C927 1.388 . S
C927 H906 0.939 . S
C927 C922 1.391 . S
C927 C926 1.388 . S
P928 O939 1.490 . S
P928 C942 1.812 . S
P928 C948 1.803 . S
P928 C954 1.819 . S
H929 C943 0.941 . S
H930 C944 0.939 . S
H931 C946 0.940 . S
H932 C947 0.940 . S
H933 C949 0.939 . S
H934 C950 0.942 . S
H935 C952 0.940 . S
H936 C953 0.939 . S
H937 C955 0.941 . S
H938 C959 0.939 . S
O939 P928 1.490 . S
H940 C956 0.939 . S
H941 C958 0.940 . S
C942 P928 1.812 . S
C942 C943 1.389 . S
C942 C947 1.391 . S
C943 H929 0.941 . S
C943 C942 1.389 . S
C943 C944 1.397 . S
C944 H930 0.939 . S
C944 C943 1.397 . S
C944 C945 1.378 . S
C945 C944 1.378 . S
C945 C946 1.378 . S
C946 H931 0.940 . S
C946 C945 1.378 . S
C946 C947 1.396 . S
C947 H932 0.940 . S
C947 C942 1.391 . S
C947 C946 1.396 . S
C948 P928 1.803 . S
C948 C949 1.378 . S
C948 C953 1.400 . S
C949 H933 0.939 . S
C949 C948 1.378 . S
C949 C950 1.361 . S
C950 H934 0.942 . S
C950 C949 1.361 . S
C950 C951 1.369 . S
C951 C950 1.369 . S
C951 C952 1.404 . S
C952 H935 0.940 . S
C952 C951 1.404 . S
C952 C953 1.389 . S
C953 H936 0.939 . S
C953 C948 1.400 . S
C953 C952 1.389 . S
C954 P928 1.819 . S
C954 C955 1.391 . S
C954 C959 1.391 . S
C955 H937 0.941 . S
C955 C954 1.391 . S
C955 C956 1.396 . S
C956 H940 0.939 . S
C956 C955 1.396 . S
C956 C957 1.397 . S
C957 C956 1.397 . S
C957 C958 1.385 . S
C958 H941 0.940 . S
C958 C957 1.385 . S
C958 C959 1.388 . S
C959 H938 0.939 . S
C959 C954 1.391 . S
C959 C958 1.388 . S
P960 O971 1.490 . S
P960 C974 1.812 . S
P960 C980 1.803 . S
P960 C986 1.819 . S
H961 C975 0.941 . S
H962 C976 0.939 . S
H963 C978 0.940 . S
H964 C979 0.940 . S
H965 C981 0.939 . S
H966 C982 0.942 . S
H967 C984 0.940 . S
H968 C985 0.939 . S
H969 C987 0.941 . S
H970 C991 0.939 . S
O971 P960 1.490 . S
H972 C988 0.939 . S
H973 C990 0.940 . S
C974 P960 1.812 . S
C974 C975 1.389 . S
C974 C979 1.391 . S
C975 H961 0.941 . S
C975 C974 1.389 . S
C975 C976 1.397 . S
C976 H962 0.939 . S
C976 C975 1.397 . S
C976 C977 1.378 . S
C977 C976 1.378 . S
C977 C978 1.378 . S
C978 H963 0.940 . S
C978 C977 1.378 . S
C978 C979 1.396 . S
C979 H964 0.940 . S
C979 C974 1.391 . S
C979 C978 1.396 . S
C980 P960 1.803 . S
C980 C981 1.378 . S
C980 C985 1.400 . S
C981 H965 0.939 . S
C981 C980 1.378 . S
C981 C982 1.361 . S
C982 H966 0.942 . S
C982 C981 1.361 . S
C982 C983 1.369 . S
C983 C982 1.369 . S
C983 C984 1.404 . S
C984 H967 0.940 . S
C984 C983 1.404 . S
C984 C985 1.389 . S
C985 H968 0.939 . S
C985 C980 1.400 . S
C985 C984 1.389 . S
C986 P960 1.819 . S
C986 C987 1.391 . S
C986 C991 1.391 . S
C987 H969 0.941 . S
C987 C986 1.391 . S
C987 C988 1.396 . S
C988 H972 0.939 . S
C988 C987 1.396 . S
C988 C989 1.397 . S
C989 C988 1.397 . S
C989 C990 1.385 . S
C990 H973 0.940 . S
C990 C989 1.385 . S
C990 C991 1.388 . S
C991 H970 0.939 . S
C991 C986 1.391 . S
C991 C990 1.388 . S
P992 O1003 1.490 . S
P992 C1006 1.812 . S
P992 C1012 1.803 . S
P992 C1018 1.819 . S
H993 C1007 0.941 . S
H994 C1008 0.939 . S
H995 C1010 0.940 . S
H996 C1011 0.940 . S
H997 C1013 0.939 . S
H998 C1014 0.942 . S
H999 C1016 0.940 . S
H1000 C1017 0.939 . S
H1001 C1019 0.941 . S
H1002 C1023 0.939 . S
O1003 P992 1.490 . S
H1004 C1020 0.939 . S
H1005 C1022 0.940 . S
C1006 P992 1.812 . S
C1006 C1007 1.389 . S
C1006 C1011 1.391 . S
C1007 H993 0.941 . S
C1007 C1006 1.389 . S
C1007 C1008 1.397 . S
C1008 H994 0.939 . S
C1008 C1007 1.397 . S
C1008 C1009 1.378 . S
C1009 C1008 1.378 . S
C1009 C1010 1.378 . S
C1010 H995 0.940 . S
C1010 C1009 1.378 . S
C1010 C1011 1.396 . S
C1011 H996 0.940 . S
C1011 C1006 1.391 . S
C1011 C1010 1.396 . S
C1012 P992 1.803 . S
C1012 C1013 1.378 . S
C1012 C1017 1.400 . S
C1013 H997 0.939 . S
C1013 C1012 1.378 . S
C1013 C1014 1.361 . S
C1014 H998 0.942 . S
C1014 C1013 1.361 . S
C1014 C1015 1.369 . S
C1015 C1014 1.369 . S
C1015 C1016 1.404 . S
C1016 H999 0.940 . S
C1016 C1015 1.404 . S
C1016 C1017 1.389 . S
C1017 H1000 0.939 . S
C1017 C1012 1.400 . S
C1017 C1016 1.389 . S
C1018 P992 1.819 . S
C1018 C1019 1.391 . S
C1018 C1023 1.391 . S
C1019 H1001 0.941 . S
C1019 C1018 1.391 . S
C1019 C1020 1.396 . S
C1020 H1004 0.939 . S
C1020 C1019 1.396 . S
C1020 C1021 1.397 . S
C1021 C1020 1.397 . S
C1021 C1022 1.385 . S
C1022 H1005 0.940 . S
C1022 C1021 1.385 . S
C1022 C1023 1.388 . S
C1023 H1002 0.939 . S
C1023 C1018 1.391 . S
C1023 C1022 1.388 . S
Cu1024 N1025 1.999 . S
Cu1024 O1030 1.974 . S
Cu1024 N1035 1.985 . S
Cu1024 O1044 1.959 . S
N1025 Cu1024 1.999 . S
N1025 C1027 1.263 1_554 S
N1025 C1029 1.389 . S
N1026 C1027 1.358 . S
N1026 C1028 1.400 . S
C1027 N1025 1.263 1_556 S
C1027 N1026 1.358 . S
C1027 H1033 0.930 . S
C1028 N1026 1.400 . S
C1028 C1029 1.351 1_556 S
C1028 H1045 0.930 . S
C1029 N1025 1.389 . S
C1029 C1028 1.351 1_554 S
C1029 H1034 0.930 . S
O1030 Cu1024 1.974 . S
O1030 C1040 1.282 1_554 S
C1031 O1032 1.261 . S
C1031 O1044 1.251 . S
O1032 C1031 1.261 . S
H1033 C1027 0.930 . S
H1034 C1029 0.930 . S
N1035 Cu1024 1.985 . S
N1035 C1037 1.335 . S
N1035 C1038 1.390 . S
N1036 C1037 1.345 . S
N1036 C1039 1.336 . S
C1037 N1035 1.335 . S
C1037 N1036 1.345 . S
C1037 H1042 0.930 . S
C1038 N1035 1.390 . S
C1038 C1039 1.346 . S
C1038 H1043 0.930 . S
C1039 N1036 1.336 . S
C1039 C1038 1.346 . S
C1039 H1046 0.929 . S
C1040 O1030 1.282 1_556 S
C1040 O1041 1.216 . S
O1041 C1040 1.216 . S
H1042 C1037 0.930 . S
H1043 C1038 0.930 . S
O1044 Cu1024 1.959 . S
O1044 C1031 1.251 . S
H1045 C1028 0.930 . S
H1046 C1039 0.929 . S
Cu1047 N1048 1.999 . S
Cu1047 O1053 1.974 . S
Cu1047 N1058 1.985 1_554 S
Cu1047 O1067 1.959 1_554 S
N1048 Cu1047 1.999 . S
N1048 C1050 1.263 . S
N1048 C1052 1.389 . S
N1049 C1050 1.358 . S
N1049 C1051 1.400 . S
C1050 N1048 1.263 . S
C1050 N1049 1.358 . S
C1050 H1056 0.930 . S
C1051 N1049 1.400 . S
C1051 C1052 1.351 . S
C1051 H1068 0.930 . S
C1052 N1048 1.389 . S
C1052 C1051 1.351 . S
C1052 H1057 0.930 . S
O1053 Cu1047 1.974 . S
O1053 C1063 1.282 . S
C1054 O1055 1.261 . S
C1054 O1067 1.251 . S
O1055 C1054 1.261 . S
H1056 C1050 0.930 . S
H1057 C1052 0.930 . S
N1058 Cu1047 1.985 1_556 S
N1058 C1060 1.335 . S
N1058 C1061 1.390 . S
N1059 C1060 1.345 . S
N1059 C1062 1.336 . S
C1060 N1058 1.335 . S
C1060 N1059 1.345 . S
C1060 H1065 0.930 . S
C1061 N1058 1.390 . S
C1061 C1062 1.346 . S
C1061 H1066 0.930 1_556 S
C1062 N1059 1.336 . S
C1062 C1061 1.346 . S
C1062 H1069 0.929 . S
C1063 O1053 1.282 . S
C1063 O1064 1.216 . S
O1064 C1063 1.216 . S
H1065 C1060 0.930 . S
H1066 C1061 0.930 1_554 S
O1067 Cu1047 1.959 1_556 S
O1067 C1054 1.251 . S
H1068 C1051 0.930 . S
H1069 C1062 0.929 . S
Cu1070 N1071 1.999 1_554 S
Cu1070 O1076 1.974 1_554 S
Cu1070 N1081 1.985 . S
Cu1070 O1090 1.959 . S
N1071 Cu1070 1.999 1_556 S
N1071 C1073 1.263 . S
N1071 C1075 1.389 . S
N1072 C1073 1.358 . S
N1072 C1074 1.400 . S
C1073 N1071 1.263 . S
C1073 N1072 1.358 . S
C1073 H1079 0.930 . S
C1074 N1072 1.400 . S
C1074 C1075 1.351 . S
C1074 H1091 0.930 . S
C1075 N1071 1.389 . S
C1075 C1074 1.351 . S
C1075 H1080 0.930 1_556 S
O1076 Cu1070 1.974 1_556 S
O1076 C1086 1.282 . S
C1077 O1078 1.261 . S
C1077 O1090 1.251 . S
O1078 C1077 1.261 . S
H1079 C1073 0.930 . S
H1080 C1075 0.930 1_554 S
N1081 Cu1070 1.985 . S
N1081 C1083 1.335 . S
N1081 C1084 1.390 . S
N1082 C1083 1.345 . S
N1082 C1085 1.336 . S
C1083 N1081 1.335 . S
C1083 N1082 1.345 . S
C1083 H1088 0.930 . S
C1084 N1081 1.390 . S
C1084 C1085 1.346 . S
C1084 H1089 0.930 . S
C1085 N1082 1.336 . S
C1085 C1084 1.346 . S
C1085 H1092 0.929 . S
C1086 O1076 1.282 . S
C1086 O1087 1.216 . S
O1087 C1086 1.216 . S
H1088 C1083 0.930 . S
H1089 C1084 0.930 . S
O1090 Cu1070 1.959 . S
O1090 C1077 1.251 . S
H1091 C1074 0.930 . S
H1092 C1085 0.929 . S
Cu1093 N1094 2.004 1_556 S
Cu1093 O1099 1.979 1_556 S
Cu1093 N1104 1.980 . S
Cu1093 O1113 1.953 . S
N1094 Cu1093 2.004 1_554 S
N1094 C1096 1.263 . S
N1094 C1098 1.389 . S
N1095 C1096 1.358 . S
N1095 C1097 1.400 . S
C1096 N1094 1.263 . S
C1096 N1095 1.358 . S
C1096 H1102 0.930 . S
C1097 N1095 1.400 . S
C1097 C1098 1.351 . S
C1097 H1114 0.930 . S
C1098 N1094 1.389 . S
C1098 C1097 1.351 . S
C1098 H1103 0.930 . S
O1099 Cu1093 1.979 1_554 S
O1099 C1109 1.282 . S
C1100 O1101 1.261 . S
C1100 O1113 1.251 . S
O1101 C1100 1.261 . S
H1102 C1096 0.930 . S
H1103 C1098 0.930 . S
N1104 Cu1093 1.980 . S
N1104 C1106 1.335 . S
N1104 C1107 1.390 . S
N1105 C1106 1.345 . S
N1105 C1108 1.336 . S
C1106 N1104 1.335 . S
C1106 N1105 1.345 . S
C1106 H1111 0.930 . S
C1107 N1104 1.390 . S
C1107 C1108 1.346 . S
C1107 H1112 0.927 . S
C1108 N1105 1.336 . S
C1108 C1107 1.346 . S
C1108 H1115 0.929 . S
C1109 O1099 1.282 . S
C1109 O1110 1.216 . S
O1110 C1109 1.216 . S
H1111 C1106 0.930 . S
H1112 C1107 0.927 . S
O1113 Cu1093 1.953 . S
O1113 C1100 1.251 . S
H1114 C1097 0.930 . S
H1115 C1108 0.929 . S
Cu1116 N1117 1.999 . S
Cu1116 O1122 1.974 . S
Cu1116 N1127 1.985 1_455 S
Cu1116 O1136 1.959 1_455 S
N1117 Cu1116 1.999 . S
N1117 C1119 1.263 . S
N1117 C1121 1.389 . S
N1118 C1119 1.358 . S
N1118 C1120 1.400 . S
C1119 N1117 1.263 . S
C1119 N1118 1.358 . S
C1119 H1125 0.930 . S
C1120 N1118 1.400 . S
C1120 C1121 1.351 . S
C1120 H1137 0.930 . S
C1121 N1117 1.389 . S
C1121 C1120 1.351 . S
C1121 H1126 0.930 . S
O1122 Cu1116 1.974 . S
O1122 C1132 1.282 . S
C1123 O1124 1.261 . S
C1123 O1136 1.251 . S
O1124 C1123 1.261 . S
H1125 C1119 0.930 . S
H1126 C1121 0.930 . S
N1127 Cu1116 1.985 1_655 S
N1127 C1129 1.335 . S
N1127 C1130 1.390 . S
N1128 C1129 1.345 . S
N1128 C1131 1.336 . S
C1129 N1127 1.335 . S
C1129 N1128 1.345 . S
C1129 H1134 0.930 . S
C1130 N1127 1.390 . S
C1130 C1131 1.346 . S
C1130 H1135 0.930 1_655 S
C1131 N1128 1.336 . S
C1131 C1130 1.346 . S
C1131 H1138 0.929 . S
C1132 O1122 1.282 . S
C1132 O1133 1.216 . S
O1133 C1132 1.216 . S
H1134 C1129 0.930 . S
H1135 C1130 0.930 1_455 S
O1136 Cu1116 1.959 1_655 S
O1136 C1123 1.251 . S
H1137 C1120 0.930 . S
H1138 C1131 0.929 . S
Cu1139 N1140 1.999 . S
Cu1139 O1145 1.974 . S
Cu1139 N1150 1.985 1_545 S
Cu1139 O1159 1.959 1_545 S
N1140 Cu1139 1.999 . S
N1140 C1142 1.263 . S
N1140 C1144 1.389 . S
N1141 C1142 1.358 . S
N1141 C1143 1.400 . S
C1142 N1140 1.263 . S
C1142 N1141 1.358 . S
C1142 H1148 0.930 . S
C1143 N1141 1.400 . S
C1143 C1144 1.351 . S
C1143 H1160 0.930 . S
C1144 N1140 1.389 . S
C1144 C1143 1.351 . S
C1144 H1149 0.930 . S
O1145 Cu1139 1.974 . S
O1145 C1155 1.282 . S
C1146 O1147 1.261 . S
C1146 O1159 1.251 . S
O1147 C1146 1.261 . S
H1148 C1142 0.930 . S
H1149 C1144 0.930 . S
N1150 Cu1139 1.985 1_565 S
N1150 C1152 1.335 . S
N1150 C1153 1.390 . S
N1151 C1152 1.345 . S
N1151 C1154 1.336 . S
C1152 N1150 1.335 . S
C1152 N1151 1.345 . S
C1152 H1157 0.930 . S
C1153 N1150 1.390 . S
C1153 C1154 1.346 . S
C1153 H1158 0.930 1_565 S
C1154 N1151 1.336 . S
C1154 C1153 1.346 . S
C1154 H1161 0.929 . S
C1155 O1145 1.282 . S
C1155 O1156 1.216 . S
O1156 C1155 1.216 . S
H1157 C1152 0.930 . S
H1158 C1153 0.930 1_545 S
O1159 Cu1139 1.959 1_565 S
O1159 C1146 1.251 . S
H1160 C1143 0.930 . S
H1161 C1154 0.929 . S
Cu1162 N1163 1.966 1_455 S
Cu1162 O1168 1.934 1_455 S
Cu1162 N1173 2.018 . S
Cu1162 O1182 1.999 . S
N1163 Cu1162 1.966 1_655 S
N1163 C1165 1.263 . S
N1163 C1167 1.389 . S
N1164 C1165 1.358 . S
N1164 C1166 1.400 . S
C1165 N1163 1.263 . S
C1165 N1164 1.358 . S
C1165 H1171 0.930 . S
C1166 N1164 1.400 . S
C1166 C1167 1.351 . S
C1166 H1183 0.930 . S
C1167 N1163 1.389 . S
C1167 C1166 1.351 . S
C1167 H1172 0.930 . S
O1168 Cu1162 1.934 1_655 S
O1168 C1178 1.282 . S
C1169 O1170 1.261 . S
C1169 O1182 1.251 . S
O1170 C1169 1.261 . S
H1171 C1165 0.930 . S
H1172 C1167 0.930 . S
N1173 Cu1162 2.018 . S
N1173 C1175 1.335 . S
N1173 C1176 1.390 . S
N1174 C1175 1.345 . S
N1174 C1177 1.336 . S
C1175 N1173 1.335 . S
C1175 N1174 1.345 . S
C1175 H1180 0.930 . S
C1176 N1173 1.390 . S
C1176 C1177 1.346 . S
C1176 H1181 0.930 . S
C1177 N1174 1.336 . S
C1177 C1176 1.346 . S
C1177 H1184 0.929 . S
C1178 O1168 1.282 . S
C1178 O1179 1.216 . S
O1179 C1178 1.216 . S
H1180 C1175 0.930 . S
H1181 C1176 0.930 . S
O1182 Cu1162 1.999 . S
O1182 C1169 1.251 . S
H1183 C1166 0.930 . S
H1184 C1177 0.929 . S
Cu1185 N1186 1.991 1_565 S
Cu1185 O1191 1.963 1_565 S
Cu1185 N1196 1.993 . S
Cu1185 O1205 1.970 . S
N1186 Cu1185 1.991 1_545 S
N1186 C1188 1.263 . S
N1186 C1190 1.389 . S
N1187 C1188 1.358 . S
N1187 C1189 1.400 . S
C1188 N1186 1.263 . S
C1188 N1187 1.358 . S
C1188 H1194 0.930 . S
C1189 N1187 1.400 . S
C1189 C1190 1.351 . S
C1189 H1206 0.930 . S
C1190 N1186 1.389 . S
C1190 C1189 1.351 . S
C1190 H1195 0.930 . S
O1191 Cu1185 1.963 1_545 S
O1191 C1201 1.282 . S
C1192 O1193 1.261 . S
C1192 O1205 1.251 . S
O1193 C1192 1.261 . S
H1194 C1188 0.930 . S
H1195 C1190 0.930 . S
N1196 Cu1185 1.993 . S
N1196 C1198 1.335 . S
N1196 C1199 1.390 . S
N1197 C1198 1.345 . S
N1197 C1200 1.336 . S
C1198 N1196 1.335 . S
C1198 N1197 1.345 . S
C1198 H1203 0.930 . S
C1199 N1196 1.390 . S
C1199 C1200 1.346 . S
C1199 H1204 0.930 . S
C1200 N1197 1.336 . S
C1200 C1199 1.346 . S
C1200 H1207 0.929 . S
C1201 O1191 1.282 . S
C1201 O1202 1.216 . S
O1202 C1201 1.216 . S
H1203 C1198 0.930 . S
H1204 C1199 0.930 . S
O1205 Cu1185 1.970 . S
O1205 C1192 1.251 . S
H1206 C1189 0.930 . S
H1207 C1200 0.929 . S
Cu1208 N1209 1.999 . S
Cu1208 O1214 1.974 . S
Cu1208 N1219 1.985 1_455 S
Cu1208 O1228 1.959 1_455 S
N1209 Cu1208 1.999 . S
N1209 C1211 1.263 . S
N1209 C1213 1.389 . S
N1210 C1211 1.358 . S
N1210 C1212 1.400 . S
C1211 N1209 1.263 . S
C1211 N1210 1.358 . S
C1211 H1217 0.930 . S
C1212 N1210 1.400 . S
C1212 C1213 1.351 . S
C1212 H1229 0.930 . S
C1213 N1209 1.389 . S
C1213 C1212 1.351 . S
C1213 H1218 0.930 . S
O1214 Cu1208 1.974 . S
O1214 C1224 1.282 . S
C1215 O1216 1.261 . S
C1215 O1228 1.251 . S
O1216 C1215 1.261 . S
H1217 C1211 0.930 . S
H1218 C1213 0.930 . S
N1219 Cu1208 1.985 1_655 S
N1219 C1221 1.335 . S
N1219 C1222 1.390 . S
N1220 C1221 1.345 . S
N1220 C1223 1.336 . S
C1221 N1219 1.335 . S
C1221 N1220 1.345 . S
C1221 H1226 0.930 . S
C1222 N1219 1.390 . S
C1222 C1223 1.346 . S
C1222 H1227 0.930 1_655 S
C1223 N1220 1.336 . S
C1223 C1222 1.346 . S
C1223 H1230 0.929 . S
C1224 O1214 1.282 . S
C1224 O1225 1.216 . S
O1225 C1224 1.216 . S
H1226 C1221 0.930 . S
H1227 C1222 0.930 1_455 S
O1228 Cu1208 1.959 1_655 S
O1228 C1215 1.251 . S
H1229 C1212 0.930 . S
H1230 C1223 0.929 . S
Cu1231 N1232 1.999 . S
Cu1231 O1237 1.974 . S
Cu1231 N1242 1.985 1_545 S
Cu1231 O1251 1.959 1_545 S
N1232 Cu1231 1.999 . S
N1232 C1234 1.263 . S
N1232 C1236 1.389 . S
N1233 C1234 1.358 . S
N1233 C1235 1.400 . S
C1234 N1232 1.263 . S
C1234 N1233 1.358 . S
C1234 H1240 0.930 . S
C1235 N1233 1.400 . S
C1235 C1236 1.351 . S
C1235 H1252 0.930 . S
C1236 N1232 1.389 . S
C1236 C1235 1.351 . S
C1236 H1241 0.930 . S
O1237 Cu1231 1.974 . S
O1237 C1247 1.282 . S
C1238 O1239 1.261 . S
C1238 O1251 1.251 . S
O1239 C1238 1.261 . S
H1240 C1234 0.930 . S
H1241 C1236 0.930 . S
N1242 Cu1231 1.985 1_565 S
N1242 C1244 1.335 . S
N1242 C1245 1.396 . S
N1243 C1244 1.345 . S
N1243 C1246 1.336 . S
C1244 N1242 1.335 . S
C1244 N1243 1.345 . S
C1244 H1249 0.930 . S
C1245 N1242 1.396 . S
C1245 C1246 1.374 . S
C1245 H1250 0.902 1_565 S
C1246 N1243 1.336 . S
C1246 C1245 1.374 . S
C1246 H1253 0.929 . S
C1247 O1237 1.282 . S
C1247 O1248 1.216 . S
O1248 C1247 1.216 . S
H1249 C1244 0.930 . S
H1250 C1245 0.902 1_545 S
O1251 Cu1231 1.959 1_565 S
O1251 C1238 1.251 . S
H1252 C1235 0.930 . S
H1253 C1246 0.929 . S
Cu1254 N1255 1.999 . S
Cu1254 O1260 1.974 . S
Cu1254 N1265 1.985 . S
Cu1254 O1274 1.959 . S
N1255 Cu1254 1.999 . S
N1255 C1257 1.263 1_455 S
N1255 C1259 1.389 . S
N1256 C1257 1.358 . S
N1256 C1258 1.400 . S
C1257 N1255 1.263 1_655 S
C1257 N1256 1.358 . S
C1257 H1263 0.930 . S
C1258 N1256 1.400 . S
C1258 C1259 1.351 1_655 S
C1258 H1275 0.930 . S
C1259 N1255 1.389 . S
C1259 C1258 1.351 1_455 S
C1259 H1264 0.930 . S
O1260 Cu1254 1.974 . S
O1260 C1270 1.282 1_455 S
C1261 O1262 1.261 . S
C1261 O1274 1.251 . S
O1262 C1261 1.261 . S
H1263 C1257 0.930 . S
H1264 C1259 0.930 . S
N1265 Cu1254 1.985 . S
N1265 C1267 1.335 . S
N1265 C1268 1.390 . S
N1266 C1267 1.345 . S
N1266 C1269 1.336 . S
C1267 N1265 1.335 . S
C1267 N1266 1.345 . S
C1267 H1272 0.930 . S
C1268 N1265 1.390 . S
C1268 C1269 1.346 . S
C1268 H1273 0.930 . S
C1269 N1266 1.336 . S
C1269 C1268 1.346 . S
C1269 H1276 0.929 . S
C1270 O1260 1.282 1_655 S
C1270 O1271 1.216 1_655 S
O1271 C1270 1.216 1_455 S
H1272 C1267 0.930 . S
H1273 C1268 0.930 . S
O1274 Cu1254 1.959 . S
O1274 C1261 1.251 . S
H1275 C1258 0.930 . S
H1276 C1269 0.929 . S
Cu1277 N1278 1.999 . S
Cu1277 O1283 1.974 . S
Cu1277 N1288 2.034 . S
Cu1277 O1297 1.959 1_545 S
N1278 Cu1277 1.999 . S
N1278 C1280 1.263 . S
N1278 C1282 1.389 . S
N1279 C1280 1.358 . S
N1279 C1281 1.400 . S
C1280 N1278 1.263 . S
C1280 N1279 1.358 . S
C1280 H1286 0.930 . S
C1281 N1279 1.400 . S
C1281 C1282 1.351 . S
C1281 H1298 0.930 . S
C1282 N1278 1.389 . S
C1282 C1281 1.351 . S
C1282 H1287 0.930 . S
O1283 Cu1277 1.974 . S
O1283 C1293 1.282 . S
C1284 O1285 1.251 1_565 S
C1284 O1297 1.251 . S
O1285 C1284 1.251 1_545 S
H1286 C1280 0.930 . S
H1287 C1282 0.930 . S
N1288 Cu1277 2.034 . S
N1288 C1290 1.258 1_545 S
N1288 C1291 1.410 . S
N1289 C1290 1.345 . S
N1289 C1292 1.336 . S
C1290 N1288 1.258 1_565 S
C1290 N1289 1.345 . S
C1290 H1295 0.930 . S
C1291 N1288 1.410 . S
C1291 C1292 1.346 1_545 S
C1291 H1296 0.930 . S
C1292 N1289 1.336 . S
C1292 C1291 1.346 1_565 S
C1292 H1299 0.929 . S
C1293 O1283 1.282 . S
C1293 O1294 1.216 . S
O1294 C1293 1.216 . S
H1295 C1290 0.930 . S
H1296 C1291 0.930 . S
O1297 Cu1277 1.959 1_565 S
O1297 C1284 1.251 . S
H1298 C1281 0.930 . S
H1299 C1292 0.929 . S
Cu1300 N1301 1.999 . S
Cu1300 O1306 1.974 . S
Cu1300 N1311 1.985 . S
Cu1300 O1320 1.959 . S
N1301 Cu1300 1.999 . S
N1301 C1303 1.263 . S
N1301 C1305 1.389 . S
N1302 C1303 1.358 . S
N1302 C1304 1.400 . S
C1303 N1301 1.263 . S
C1303 N1302 1.358 . S
C1303 H1309 0.930 . S
C1304 N1302 1.400 . S
C1304 C1305 1.351 . S
C1304 H1321 0.930 . S
C1305 N1301 1.389 . S
C1305 C1304 1.351 . S
C1305 H1310 0.930 . S
O1306 Cu1300 1.974 . S
O1306 C1316 1.282 . S
C1307 O1308 1.261 . S
C1307 O1320 1.251 . S
O1308 C1307 1.261 . S
H1309 C1303 0.930 . S
H1310 C1305 0.930 . S
N1311 Cu1300 1.985 . S
N1311 C1313 1.335 . S
N1311 C1314 1.390 . S
N1312 C1313 1.345 . S
N1312 C1315 1.336 . S
C1313 N1311 1.335 . S
C1313 N1312 1.345 . S
C1313 H1318 0.930 . S
C1314 N1311 1.390 . S
C1314 C1315 1.346 . S
C1314 H1319 0.930 . S
C1315 N1312 1.336 . S
C1315 C1314 1.346 . S
C1315 H1322 0.929 . S
C1316 O1306 1.282 . S
C1316 O1317 1.216 . S
O1317 C1316 1.216 . S
H1318 C1313 0.930 . S
H1319 C1314 0.930 . S
O1320 Cu1300 1.959 . S
O1320 C1307 1.251 . S
H1321 C1304 0.930 . S
H1322 C1315 0.929 . S
Cu1323 N1324 1.999 . S
Cu1323 O1329 1.974 . S
Cu1323 N1334 1.985 . S
Cu1323 O1343 1.959 . S
N1324 Cu1323 1.999 . S
N1324 C1326 1.263 . S
N1324 C1328 1.389 . S
N1325 C1326 1.358 . S
N1325 C1327 1.400 . S
C1326 N1324 1.263 . S
C1326 N1325 1.358 . S
C1326 H1332 0.930 . S
C1327 N1325 1.400 . S
C1327 C1328 1.351 . S
C1327 H1344 0.930 . S
C1328 N1324 1.389 . S
C1328 C1327 1.351 . S
C1328 H1333 0.930 . S
O1329 Cu1323 1.974 . S
O1329 C1339 1.282 . S
C1330 O1331 1.261 . S
C1330 O1343 1.251 . S
O1331 C1330 1.261 . S
H1332 C1326 0.930 . S
H1333 C1328 0.930 . S
N1334 Cu1323 1.985 . S
N1334 C1336 1.335 . S
N1334 C1337 1.390 . S
N1335 C1336 1.345 . S
N1335 C1338 1.336 . S
C1336 N1334 1.335 . S
C1336 N1335 1.345 . S
C1336 H1341 0.930 . S
C1337 N1334 1.390 . S
C1337 C1338 1.346 . S
C1337 H1342 0.930 . S
C1338 N1335 1.336 . S
C1338 C1337 1.346 . S
C1338 H1345 0.929 . S
C1339 O1329 1.282 . S
C1339 O1340 1.216 . S
O1340 C1339 1.216 . S
H1341 C1336 0.930 . S
H1342 C1337 0.930 . S
O1343 Cu1323 1.959 . S
O1343 C1330 1.251 . S
H1344 C1327 0.930 . S
H1345 C1338 0.929 . S
Cu1346 N1347 1.999 . S
Cu1346 O1352 1.974 . S
Cu1346 N1357 1.985 . S
Cu1346 O1366 1.959 . S
N1347 Cu1346 1.999 . S
N1347 C1349 1.263 . S
N1347 C1351 1.389 . S
N1348 C1349 1.358 . S
N1348 C1350 1.400 . S
C1349 N1347 1.263 . S
C1349 N1348 1.358 . S
C1349 H1355 0.930 . S
C1350 N1348 1.400 . S
C1350 C1351 1.351 . S
C1350 H1367 0.930 . S
C1351 N1347 1.389 . S
C1351 C1350 1.351 . S
C1351 H1356 0.930 . S
O1352 Cu1346 1.974 . S
O1352 C1362 1.282 . S
C1353 O1354 1.261 . S
C1353 O1366 1.251 . S
O1354 C1353 1.261 . S
H1355 C1349 0.930 . S
H1356 C1351 0.930 . S
N1357 Cu1346 1.985 . S
N1357 C1359 1.335 . S
N1357 C1360 1.390 . S
N1358 C1359 1.345 . S
N1358 C1361 1.336 . S
C1359 N1357 1.335 . S
C1359 N1358 1.345 . S
C1359 H1364 0.930 . S
C1360 N1357 1.390 . S
C1360 C1361 1.346 . S
C1360 H1365 0.930 . S
C1361 N1358 1.336 . S
C1361 C1360 1.346 . S
C1361 H1368 0.929 . S
C1362 O1352 1.282 . S
C1362 O1363 1.216 . S
O1363 C1362 1.216 . S
H1364 C1359 0.930 . S
H1365 C1360 0.930 . S
O1366 Cu1346 1.959 . S
O1366 C1353 1.251 . S
H1367 C1350 0.930 . S
H1368 C1361 0.929 . S
Cu1369 N1370 1.999 . S
Cu1369 O1375 1.974 . S
Cu1369 N1380 1.985 . S
Cu1369 O1389 1.959 . S
N1370 Cu1369 1.999 . S
N1370 C1372 1.263 . S
N1370 C1374 1.389 . S
N1371 C1372 1.358 . S
N1371 C1373 1.400 . S
C1372 N1370 1.263 . S
C1372 N1371 1.358 . S
C1372 H1378 0.930 . S
C1373 N1371 1.400 . S
C1373 C1374 1.351 . S
C1373 H1390 0.930 . S
C1374 N1370 1.389 . S
C1374 C1373 1.351 . S
C1374 H1379 0.930 . S
O1375 Cu1369 1.974 . S
O1375 C1385 1.282 . S
C1376 O1377 1.261 . S
C1376 O1389 1.251 . S
O1377 C1376 1.261 . S
H1378 C1372 0.930 . S
H1379 C1374 0.930 . S
N1380 Cu1369 1.985 . S
N1380 C1382 1.335 . S
N1380 C1383 1.390 . S
N1381 C1382 1.345 . S
N1381 C1384 1.336 . S
C1382 N1380 1.335 . S
C1382 N1381 1.345 . S
C1382 H1387 0.930 . S
C1383 N1380 1.390 . S
C1383 C1384 1.346 . S
C1383 H1388 0.930 . S
C1384 N1381 1.336 . S
C1384 C1383 1.346 . S
C1384 H1391 0.929 . S
C1385 O1375 1.282 . S
C1385 O1386 1.216 . S
O1386 C1385 1.216 . S
H1387 C1382 0.930 . S
H1388 C1383 0.930 . S
O1389 Cu1369 1.959 . S
O1389 C1376 1.251 . S
H1390 C1373 0.930 . S
H1391 C1384 0.929 . S
Cu1392 N1393 1.999 . S
Cu1392 O1398 1.974 . S
Cu1392 N1403 1.985 . S
Cu1392 O1412 1.959 . S
N1393 Cu1392 1.999 . S
N1393 C1395 1.263 . S
N1393 C1397 1.389 . S
N1394 C1395 1.358 . S
N1394 C1396 1.400 . S
C1395 N1393 1.263 . S
C1395 N1394 1.358 . S
C1395 H1401 0.930 . S
C1396 N1394 1.400 . S
C1396 C1397 1.351 . S
C1396 H1413 0.930 . S
C1397 N1393 1.389 . S
C1397 C1396 1.351 . S
C1397 H1402 0.930 . S
O1398 Cu1392 1.974 . S
O1398 C1408 1.282 . S
C1399 O1400 1.261 . S
C1399 O1412 1.251 . S
O1400 C1399 1.261 . S
H1401 C1395 0.930 . S
H1402 C1397 0.930 . S
N1403 Cu1392 1.985 . S
N1403 C1405 1.335 . S
N1403 C1406 1.390 . S
N1404 C1405 1.345 . S
N1404 C1407 1.336 . S
C1405 N1403 1.335 . S
C1405 N1404 1.345 . S
C1405 H1410 0.930 . S
C1406 N1403 1.390 . S
C1406 C1407 1.346 . S
C1406 H1411 0.930 . S
C1407 N1404 1.336 . S
C1407 C1406 1.346 . S
C1407 H1414 0.929 . S
C1408 O1398 1.282 . S
C1408 O1409 1.216 . S
O1409 C1408 1.216 . S
H1410 C1405 0.930 . S
H1411 C1406 0.930 . S
O1412 Cu1392 1.959 . S
O1412 C1399 1.251 . S
H1413 C1396 0.930 . S
H1414 C1407 0.929 . S
Cu1415 N1416 1.999 . S
Cu1415 O1421 1.974 . S
Cu1415 N1426 1.985 . S
Cu1415 O1435 1.959 . S
N1416 Cu1415 1.999 . S
N1416 C1418 1.263 . S
N1416 C1420 1.389 . S
N1417 C1418 1.358 . S
N1417 C1419 1.400 . S
C1418 N1416 1.263 . S
C1418 N1417 1.358 . S
C1418 H1424 0.930 . S
C1419 N1417 1.400 . S
C1419 C1420 1.351 . S
C1419 H1436 0.930 . S
C1420 N1416 1.389 . S
C1420 C1419 1.351 . S
C1420 H1425 0.930 . S
O1421 Cu1415 1.974 . S
O1421 C1431 1.282 . S
C1422 O1423 1.261 . S
C1422 O1435 1.251 . S
O1423 C1422 1.261 . S
H1424 C1418 0.930 . S
H1425 C1420 0.930 . S
N1426 Cu1415 1.985 . S
N1426 C1428 1.335 . S
N1426 C1429 1.390 . S
N1427 C1428 1.345 . S
N1427 C1430 1.336 . S
C1428 N1426 1.335 . S
C1428 N1427 1.345 . S
C1428 H1433 0.930 . S
C1429 N1426 1.390 . S
C1429 C1430 1.346 . S
C1429 H1434 0.930 . S
C1430 N1427 1.336 . S
C1430 C1429 1.346 . S
C1430 H1437 0.929 . S
C1431 O1421 1.282 . S
C1431 O1432 1.216 . S
O1432 C1431 1.216 . S
H1433 C1428 0.930 . S
H1434 C1429 0.930 . S
O1435 Cu1415 1.959 . S
O1435 C1422 1.251 . S
H1436 C1419 0.930 . S
H1437 C1430 0.929 . S
Cu1438 N1439 1.999 . S
Cu1438 O1444 1.974 . S
Cu1438 N1449 1.985 . S
Cu1438 O1458 1.959 . S
N1439 Cu1438 1.999 . S
N1439 C1441 1.263 . S
N1439 C1443 1.389 . S
N1440 C1441 1.358 . S
N1440 C1442 1.400 . S
C1441 N1439 1.263 . S
C1441 N1440 1.358 . S
C1441 H1447 0.930 . S
C1442 N1440 1.400 . S
C1442 C1443 1.351 . S
C1442 H1459 0.930 . S
C1443 N1439 1.389 . S
C1443 C1442 1.351 . S
C1443 H1448 0.930 . S
O1444 Cu1438 1.974 . S
O1444 C1454 1.282 . S
C1445 O1446 1.261 . S
C1445 O1458 1.251 . S
O1446 C1445 1.261 . S
H1447 C1441 0.930 . S
H1448 C1443 0.930 . S
N1449 Cu1438 1.985 . S
N1449 C1451 1.335 . S
N1449 C1452 1.390 . S
N1450 C1451 1.345 . S
N1450 C1453 1.336 . S
C1451 N1449 1.335 . S
C1451 N1450 1.345 . S
C1451 H1456 0.930 . S
C1452 N1449 1.390 . S
C1452 C1453 1.346 . S
C1452 H1457 0.930 . S
C1453 N1450 1.336 . S
C1453 C1452 1.346 . S
C1453 H1460 0.929 . S
C1454 O1444 1.282 . S
C1454 O1455 1.216 . S
O1455 C1454 1.216 . S
H1456 C1451 0.930 . S
H1457 C1452 0.930 . S
O1458 Cu1438 1.959 . S
O1458 C1445 1.251 . S
H1459 C1442 0.930 . S
H1460 C1453 0.929 . S
Cu1461 N1462 1.999 . S
Cu1461 O1467 1.974 . S
Cu1461 N1472 1.985 . S
Cu1461 O1481 1.959 . S
N1462 Cu1461 1.999 . S
N1462 C1464 1.263 . S
N1462 C1466 1.389 . S
N1463 C1464 1.358 . S
N1463 C1465 1.400 . S
C1464 N1462 1.263 . S
C1464 N1463 1.358 . S
C1464 H1470 0.930 . S
C1465 N1463 1.400 . S
C1465 C1466 1.351 . S
C1465 H1482 0.930 . S
C1466 N1462 1.389 . S
C1466 C1465 1.351 . S
C1466 H1471 0.930 . S
O1467 Cu1461 1.974 . S
O1467 C1477 1.282 . S
C1468 O1469 1.261 . S
C1468 O1481 1.251 . S
O1469 C1468 1.261 . S
H1470 C1464 0.930 . S
H1471 C1466 0.930 . S
N1472 Cu1461 1.985 . S
N1472 C1474 1.335 . S
N1472 C1475 1.390 . S
N1473 C1474 1.345 . S
N1473 C1476 1.336 . S
C1474 N1472 1.335 . S
C1474 N1473 1.345 . S
C1474 H1479 0.930 . S
C1475 N1472 1.390 . S
C1475 C1476 1.346 . S
C1475 H1480 0.930 . S
C1476 N1473 1.336 . S
C1476 C1475 1.346 . S
C1476 H1483 0.929 . S
C1477 O1467 1.282 . S
C1477 O1478 1.216 . S
O1478 C1477 1.216 . S
H1479 C1474 0.930 . S
H1480 C1475 0.930 . S
O1481 Cu1461 1.959 . S
O1481 C1468 1.251 . S
H1482 C1465 0.930 . S
H1483 C1476 0.929 . S
Cu1484 N1485 1.999 . S
Cu1484 O1490 1.974 . S
Cu1484 N1495 1.985 . S
Cu1484 O1504 1.959 . S
N1485 Cu1484 1.999 . S
N1485 C1487 1.263 . S
N1485 C1489 1.389 . S
N1486 C1487 1.358 . S
N1486 C1488 1.400 . S
C1487 N1485 1.263 . S
C1487 N1486 1.358 . S
C1487 H1493 0.930 . S
C1488 N1486 1.400 . S
C1488 C1489 1.351 . S
C1488 H1505 0.930 . S
C1489 N1485 1.389 . S
C1489 C1488 1.351 . S
C1489 H1494 0.930 . S
O1490 Cu1484 1.974 . S
O1490 C1500 1.282 . S
C1491 O1492 1.261 . S
C1491 O1504 1.251 . S
O1492 C1491 1.261 . S
H1493 C1487 0.930 . S
H1494 C1489 0.930 . S
N1495 Cu1484 1.985 . S
N1495 C1497 1.335 . S
N1495 C1498 1.390 . S
N1496 C1497 1.345 . S
N1496 C1499 1.336 . S
C1497 N1495 1.335 . S
C1497 N1496 1.345 . S
C1497 H1502 0.930 . S
C1498 N1495 1.390 . S
C1498 C1499 1.346 . S
C1498 H1503 0.930 . S
C1499 N1496 1.336 . S
C1499 C1498 1.346 . S
C1499 H1506 0.929 . S
C1500 O1490 1.282 . S
C1500 O1501 1.216 . S
O1501 C1500 1.216 . S
H1502 C1497 0.930 . S
H1503 C1498 0.930 . S
O1504 Cu1484 1.959 . S
O1504 C1491 1.251 . S
H1505 C1488 0.930 . S
H1506 C1499 0.929 . S
Cu1507 N1508 1.999 . S
Cu1507 O1513 1.974 . S
Cu1507 N1518 1.985 . S
Cu1507 O1527 1.959 . S
N1508 Cu1507 1.999 . S
N1508 C1510 1.263 . S
N1508 C1512 1.389 . S
N1509 C1510 1.358 . S
N1509 C1511 1.400 . S
C1510 N1508 1.263 . S
C1510 N1509 1.358 . S
C1510 H1516 0.930 . S
C1511 N1509 1.400 . S
C1511 C1512 1.351 . S
C1511 H1528 0.930 . S
C1512 N1508 1.389 . S
C1512 C1511 1.351 . S
C1512 H1517 0.930 . S
O1513 Cu1507 1.974 . S
O1513 C1523 1.282 . S
C1514 O1515 1.261 . S
C1514 O1527 1.251 . S
O1515 C1514 1.261 . S
H1516 C1510 0.930 . S
H1517 C1512 0.930 . S
N1518 Cu1507 1.985 . S
N1518 C1520 1.335 . S
N1518 C1521 1.390 . S
N1519 C1520 1.345 . S
N1519 C1522 1.336 . S
C1520 N1518 1.335 . S
C1520 N1519 1.345 . S
C1520 H1525 0.930 . S
C1521 N1518 1.390 . S
C1521 C1522 1.346 . S
C1521 H1526 0.930 . S
C1522 N1519 1.336 . S
C1522 C1521 1.346 . S
C1522 H1529 0.929 . S
C1523 O1513 1.282 . S
C1523 O1524 1.216 . S
O1524 C1523 1.216 . S
H1525 C1520 0.930 . S
H1526 C1521 0.930 . S
O1527 Cu1507 1.959 . S
O1527 C1514 1.251 . S
H1528 C1511 0.930 . S
H1529 C1522 0.929 . S
Cu1530 N1531 1.999 . S
Cu1530 O1536 1.974 . S
Cu1530 N1541 1.985 . S
Cu1530 O1550 1.959 . S
N1531 Cu1530 1.999 . S
N1531 C1533 1.263 . S
N1531 C1535 1.389 . S
N1532 C1533 1.358 . S
N1532 C1534 1.400 . S
C1533 N1531 1.263 . S
C1533 N1532 1.358 . S
C1533 H1539 0.930 . S
C1534 N1532 1.400 . S
C1534 C1535 1.351 . S
C1534 H1551 0.930 . S
C1535 N1531 1.389 . S
C1535 C1534 1.351 . S
C1535 H1540 0.930 . S
O1536 Cu1530 1.974 . S
O1536 C1546 1.282 . S
C1537 O1538 1.261 . S
C1537 O1550 1.251 . S
O1538 C1537 1.261 . S
H1539 C1533 0.930 . S
H1540 C1535 0.930 . S
N1541 Cu1530 1.985 . S
N1541 C1543 1.335 . S
N1541 C1544 1.390 . S
N1542 C1543 1.345 . S
N1542 C1545 1.336 . S
C1543 N1541 1.335 . S
C1543 N1542 1.345 . S
C1543 H1548 0.930 . S
C1544 N1541 1.390 . S
C1544 C1545 1.346 . S
C1544 H1549 0.930 . S
C1545 N1542 1.336 . S
C1545 C1544 1.346 . S
C1545 H1552 0.929 . S
C1546 O1536 1.282 . S
C1546 O1547 1.216 . S
O1547 C1546 1.216 . S
H1548 C1543 0.930 . S
H1549 C1544 0.930 . S
O1550 Cu1530 1.959 . S
O1550 C1537 1.251 . S
H1551 C1534 0.930 . S
H1552 C1545 0.929 . S
Cu1553 N1554 1.999 . S
Cu1553 O1559 1.974 . S
Cu1553 N1564 1.985 . S
Cu1553 O1573 1.959 . S
N1554 Cu1553 1.999 . S
N1554 C1556 1.263 . S
N1554 C1558 1.389 . S
N1555 C1556 1.358 . S
N1555 C1557 1.400 . S
C1556 N1554 1.263 . S
C1556 N1555 1.358 . S
C1556 H1562 0.930 . S
C1557 N1555 1.400 . S
C1557 C1558 1.351 . S
C1557 H1574 0.930 . S
C1558 N1554 1.389 . S
C1558 C1557 1.351 . S
C1558 H1563 0.930 . S
O1559 Cu1553 1.974 . S
O1559 C1569 1.282 . S
C1560 O1561 1.261 . S
C1560 O1573 1.251 . S
O1561 C1560 1.261 . S
H1562 C1556 0.930 . S
H1563 C1558 0.930 . S
N1564 Cu1553 1.985 . S
N1564 C1566 1.335 . S
N1564 C1567 1.390 . S
N1565 C1566 1.345 . S
N1565 C1568 1.336 . S
C1566 N1564 1.335 . S
C1566 N1565 1.345 . S
C1566 H1571 0.930 . S
C1567 N1564 1.390 . S
C1567 C1568 1.346 . S
C1567 H1572 0.930 . S
C1568 N1565 1.336 . S
C1568 C1567 1.346 . S
C1568 H1575 0.929 . S
C1569 O1559 1.282 . S
C1569 O1570 1.216 . S
O1570 C1569 1.216 . S
H1571 C1566 0.930 . S
H1572 C1567 0.930 . S
O1573 Cu1553 1.959 . S
O1573 C1560 1.251 . S
H1574 C1557 0.930 . S
H1575 C1568 0.929 . S
C1576 C1577 1.349 . S
C1576 C1578 1.327 . S
C1576 H1601 0.950 . S
C1577 C1576 1.349 . S
C1577 C1593 1.349 . S
C1578 C1576 1.327 . S
C1578 C1597 1.429 . S
C1578 H1602 0.950 . S
C1579 C1596 1.574 . S
C1579 C1598 1.368 . S
C1579 H1603 0.949 . S
H1580 C1584 0.949 . S
C1581 C1582 1.349 . S
C1581 C1583 1.327 . S
C1581 H1604 0.950 . S
C1582 C1581 1.349 . S
C1582 C1594 1.349 . S
C1583 C1581 1.327 . S
C1583 C1599 1.429 . S
C1583 H1605 0.950 . S
C1584 H1580 0.949 . S
C1584 C1592 1.574 . S
C1584 C1600 1.368 . S
H1585 C1593 0.950 . S
H1586 C1591 0.950 . S
H1587 C1592 0.949 . S
H1588 C1594 0.950 . S
H1589 C1595 0.950 . S
H1590 C1596 0.949 . S
C1591 H1586 0.950 . S
C1591 C1593 1.327 . S
C1591 C1597 1.429 . S
C1592 C1584 1.574 . S
C1592 H1587 0.949 . S
C1592 C1598 1.368 . S
C1593 C1577 1.349 . S
C1593 H1585 0.950 . S
C1593 C1591 1.327 . S
C1594 C1582 1.349 . S
C1594 H1588 0.950 . S
C1594 C1595 1.327 . S
C1595 H1589 0.950 . S
C1595 C1594 1.327 . S
C1595 C1599 1.429 . S
C1596 C1579 1.574 . S
C1596 H1590 0.949 . S
C1596 C1600 1.368 . S
C1597 C1578 1.429 . S
C1597 C1591 1.429 . S
C1597 C1598 1.523 . S
C1598 C1579 1.368 . S
C1598 C1592 1.368 . S
C1598 C1597 1.523 . S
C1599 C1583 1.429 . S
C1599 C1595 1.429 . S
C1599 C1600 1.523 . S
C1600 C1584 1.368 . S
C1600 C1596 1.368 . S
C1600 C1599 1.523 . S
H1601 C1576 0.950 . S
H1602 C1578 0.950 . S
H1603 C1579 0.949 . S
H1604 C1581 0.950 . S
H1605 C1583 0.950 . S
C1606 C1607 1.349 . S
C1606 C1608 1.327 . S
C1606 H1631 0.950 . S
C1607 C1606 1.349 . S
C1607 C1623 1.349 . S
C1608 C1606 1.327 . S
C1608 C1627 1.429 . S
C1608 H1632 0.950 . S
C1609 C1626 1.574 . S
C1609 C1628 1.368 . S
C1609 H1633 0.949 . S
H1610 C1614 0.949 . S
C1611 C1612 1.349 . S
C1611 C1613 1.327 . S
C1611 H1634 0.950 . S
C1612 C1611 1.349 . S
C1612 C1624 1.349 . S
C1613 C1611 1.327 . S
C1613 C1629 1.429 . S
C1613 H1635 0.950 . S
C1614 H1610 0.949 . S
C1614 C1622 1.574 . S
C1614 C1630 1.368 . S
H1615 C1623 0.950 . S
H1616 C1621 0.950 . S
H1617 C1622 0.949 . S
H1618 C1624 0.950 . S
H1619 C1625 0.950 . S
H1620 C1626 0.949 . S
C1621 H1616 0.950 . S
C1621 C1623 1.327 . S
C1621 C1627 1.429 . S
C1622 C1614 1.574 . S
C1622 H1617 0.949 . S
C1622 C1628 1.368 . S
C1623 C1607 1.349 . S
C1623 H1615 0.950 . S
C1623 C1621 1.327 . S
C1624 C1612 1.349 . S
C1624 H1618 0.950 . S
C1624 C1625 1.327 . S
C1625 H1619 0.950 . S
C1625 C1624 1.327 . S
C1625 C1629 1.429 . S
C1626 C1609 1.574 . S
C1626 H1620 0.949 . S
C1626 C1630 1.368 . S
C1627 C1608 1.429 . S
C1627 C1621 1.429 . S
C1627 C1628 1.523 . S
C1628 C1609 1.368 . S
C1628 C1622 1.368 . S
C1628 C1627 1.523 . S
C1629 C1613 1.429 . S
C1629 C1625 1.429 . S
C1629 C1630 1.523 . S
C1630 C1614 1.368 . S
C1630 C1626 1.368 . S
C1630 C1629 1.523 . S
H1631 C1606 0.950 . S
H1632 C1608 0.950 . S
H1633 C1609 0.949 . S
H1634 C1611 0.950 . S
H1635 C1613 0.950 . S
C1636 C1637 1.349 . S
C1636 C1638 1.327 . S
C1636 H1661 0.950 . S
C1637 C1636 1.349 . S
C1637 C1653 1.349 . S
C1638 C1636 1.327 . S
C1638 C1657 1.429 . S
C1638 H1662 0.950 . S
C1639 C1656 1.574 . S
C1639 C1658 1.368 . S
C1639 H1663 0.949 . S
H1640 C1644 0.949 . S
C1641 C1642 1.349 . S
C1641 C1643 1.327 . S
C1641 H1664 0.950 . S
C1642 C1641 1.349 . S
C1642 C1654 1.349 . S
C1643 C1641 1.327 . S
C1643 C1659 1.429 . S
C1643 H1665 0.950 . S
C1644 H1640 0.949 . S
C1644 C1652 1.574 . S
C1644 C1660 1.368 . S
H1645 C1653 0.950 . S
H1646 C1651 0.950 . S
H1647 C1652 0.949 . S
H1648 C1654 0.950 . S
H1649 C1655 0.950 . S
H1650 C1656 0.949 . S
C1651 H1646 0.950 . S
C1651 C1653 1.327 . S
C1651 C1657 1.429 . S
C1652 C1644 1.574 . S
C1652 H1647 0.949 . S
C1652 C1658 1.368 . S
C1653 C1637 1.349 . S
C1653 H1645 0.950 . S
C1653 C1651 1.327 . S
C1654 C1642 1.349 . S
C1654 H1648 0.950 . S
C1654 C1655 1.327 . S
C1655 H1649 0.950 . S
C1655 C1654 1.327 . S
C1655 C1659 1.429 . S
C1656 C1639 1.574 . S
C1656 H1650 0.949 . S
C1656 C1660 1.368 . S
C1657 C1638 1.429 . S
C1657 C1651 1.429 . S
C1657 C1658 1.523 . S
C1658 C1639 1.368 . S
C1658 C1652 1.368 . S
C1658 C1657 1.523 . S
C1659 C1643 1.429 . S
C1659 C1655 1.429 . S
C1659 C1660 1.523 . S
C1660 C1644 1.368 . S
C1660 C1656 1.368 . S
C1660 C1659 1.523 . S
H1661 C1636 0.950 . S
H1662 C1638 0.950 . S
H1663 C1639 0.949 . S
H1664 C1641 0.950 . S
H1665 C1643 0.950 . S
C1666 C1667 1.349 . S
C1666 C1668 1.327 . S
C1666 H1691 0.950 . S
C1667 C1666 1.349 . S
C1667 C1683 1.349 . S
C1668 C1666 1.327 . S
C1668 C1687 1.429 . S
C1668 H1692 0.950 . S
C1669 C1686 1.574 . S
C1669 C1688 1.368 . S
C1669 H1693 0.949 . S
H1670 C1674 0.949 . S
C1671 C1672 1.349 . S
C1671 C1673 1.327 . S
C1671 H1694 0.950 . S
C1672 C1671 1.349 . S
C1672 C1684 1.349 . S
C1673 C1671 1.327 . S
C1673 C1689 1.429 . S
C1673 H1695 0.950 . S
C1674 H1670 0.949 . S
C1674 C1682 1.574 . S
C1674 C1690 1.368 . S
H1675 C1683 0.950 . S
H1676 C1681 0.950 . S
H1677 C1682 0.949 . S
H1678 C1684 0.950 . S
H1679 C1685 0.950 . S
H1680 C1686 0.949 . S
C1681 H1676 0.950 . S
C1681 C1683 1.327 . S
C1681 C1687 1.429 . S
C1682 C1674 1.574 . S
C1682 H1677 0.949 . S
C1682 C1688 1.368 . S
C1683 C1667 1.349 . S
C1683 H1675 0.950 . S
C1683 C1681 1.327 . S
C1684 C1672 1.349 . S
C1684 H1678 0.950 . S
C1684 C1685 1.327 . S
C1685 H1679 0.950 . S
C1685 C1684 1.327 . S
C1685 C1689 1.429 . S
C1686 C1669 1.574 . S
C1686 H1680 0.949 . S
C1686 C1690 1.368 . S
C1687 C1668 1.429 . S
C1687 C1681 1.429 . S
C1687 C1688 1.523 . S
C1688 C1669 1.368 . S
C1688 C1682 1.368 . S
C1688 C1687 1.523 . S
C1689 C1673 1.429 . S
C1689 C1685 1.429 . S
C1689 C1690 1.523 . S
C1690 C1674 1.368 . S
C1690 C1686 1.368 . S
C1690 C1689 1.523 . S
H1691 C1666 0.950 . S
H1692 C1668 0.950 . S
H1693 C1669 0.949 . S
H1694 C1671 0.950 . S
H1695 C1673 0.950 . S
C1696 C1697 1.349 . S
C1696 C1698 1.327 . S
C1696 H1721 0.950 . S
C1697 C1696 1.349 . S
C1697 C1713 1.349 . S
C1698 C1696 1.327 . S
C1698 C1717 1.429 . S
C1698 H1722 0.950 . S
C1699 C1716 1.574 . S
C1699 C1718 1.368 . S
C1699 H1723 0.949 . S
H1700 C1704 0.949 . S
C1701 C1702 1.349 . S
C1701 C1703 1.327 . S
C1701 H1724 0.950 . S
C1702 C1701 1.349 . S
C1702 C1714 1.349 . S
C1703 C1701 1.327 . S
C1703 C1719 1.429 . S
C1703 H1725 0.950 . S
C1704 H1700 0.949 . S
C1704 C1712 1.574 . S
C1704 C1720 1.368 . S
H1705 C1713 0.950 . S
H1706 C1711 0.950 . S
H1707 C1712 0.949 . S
H1708 C1714 0.950 . S
H1709 C1715 0.950 . S
H1710 C1716 0.949 . S
C1711 H1706 0.950 . S
C1711 C1713 1.327 . S
C1711 C1717 1.429 . S
C1712 C1704 1.574 . S
C1712 H1707 0.949 . S
C1712 C1718 1.368 . S
C1713 C1697 1.349 . S
C1713 H1705 0.950 . S
C1713 C1711 1.327 . S
C1714 C1702 1.349 . S
C1714 H1708 0.950 . S
C1714 C1715 1.327 . S
C1715 H1709 0.950 . S
C1715 C1714 1.327 . S
C1715 C1719 1.429 . S
C1716 C1699 1.574 . S
C1716 H1710 0.949 . S
C1716 C1720 1.368 . S
C1717 C1698 1.429 . S
C1717 C1711 1.429 . S
C1717 C1718 1.523 . S
C1718 C1699 1.368 . S
C1718 C1712 1.368 . S
C1718 C1717 1.523 . S
C1719 C1703 1.429 . S
C1719 C1715 1.429 . S
C1719 C1720 1.523 . S
C1720 C1704 1.368 . S
C1720 C1716 1.368 . S
C1720 C1719 1.523 . S
H1721 C1696 0.950 . S
H1722 C1698 0.950 . S
H1723 C1699 0.949 . S
H1724 C1701 0.950 . S
H1725 C1703 0.950 . S
C1726 C1727 1.349 . S
C1726 C1728 1.327 . S
C1726 H1751 0.950 . S
C1727 C1726 1.349 . S
C1727 C1743 1.349 . S
C1728 C1726 1.327 . S
C1728 C1747 1.429 . S
C1728 H1752 0.950 . S
C1729 C1746 1.574 . S
C1729 C1748 1.368 . S
C1729 H1753 0.949 . S
H1730 C1734 0.949 . S
C1731 C1732 1.349 . S
C1731 C1733 1.327 . S
C1731 H1754 0.950 . S
C1732 C1731 1.349 . S
C1732 C1744 1.349 . S
C1733 C1731 1.327 . S
C1733 C1749 1.429 . S
C1733 H1755 0.950 . S
C1734 H1730 0.949 . S
C1734 C1742 1.574 . S
C1734 C1750 1.368 . S
H1735 C1743 0.950 . S
H1736 C1741 0.950 . S
H1737 C1742 0.949 . S
H1738 C1744 0.950 . S
H1739 C1745 0.950 . S
H1740 C1746 0.949 . S
C1741 H1736 0.950 . S
C1741 C1743 1.327 . S
C1741 C1747 1.429 . S
C1742 C1734 1.574 . S
C1742 H1737 0.949 . S
C1742 C1748 1.368 . S
C1743 C1727 1.349 . S
C1743 H1735 0.950 . S
C1743 C1741 1.327 . S
C1744 C1732 1.349 . S
C1744 H1738 0.950 . S
C1744 C1745 1.327 . S
C1745 H1739 0.950 . S
C1745 C1744 1.327 . S
C1745 C1749 1.429 . S
C1746 C1729 1.574 . S
C1746 H1740 0.949 . S
C1746 C1750 1.368 . S
C1747 C1728 1.429 . S
C1747 C1741 1.429 . S
C1747 C1748 1.523 . S
C1748 C1729 1.368 . S
C1748 C1742 1.368 . S
C1748 C1747 1.523 . S
C1749 C1733 1.429 . S
C1749 C1745 1.429 . S
C1749 C1750 1.523 . S
C1750 C1734 1.368 . S
C1750 C1746 1.368 . S
C1750 C1749 1.523 . S
H1751 C1726 0.950 . S
H1752 C1728 0.950 . S
H1753 C1729 0.949 . S
H1754 C1731 0.950 . S
H1755 C1733 0.950 . S
C1756 C1757 1.349 . S
C1756 C1758 1.327 . S
C1756 H1781 0.950 . S
C1757 C1756 1.349 . S
C1757 C1773 1.349 . S
C1758 C1756 1.327 . S
C1758 C1777 1.429 . S
C1758 H1782 0.950 . S
C1759 C1776 1.574 . S
C1759 C1778 1.368 . S
C1759 H1783 0.949 . S
H1760 C1764 0.949 . S
C1761 C1762 1.349 . S
C1761 C1763 1.327 . S
C1761 H1784 0.950 . S
C1762 C1761 1.349 . S
C1762 C1774 1.349 . S
C1763 C1761 1.327 . S
C1763 C1779 1.429 . S
C1763 H1785 0.950 . S
C1764 H1760 0.949 . S
C1764 C1772 1.574 . S
C1764 C1780 1.368 . S
H1765 C1773 0.950 . S
H1766 C1771 0.950 . S
H1767 C1772 0.949 . S
H1768 C1774 0.950 . S
H1769 C1775 0.950 . S
H1770 C1776 0.949 . S
C1771 H1766 0.950 . S
C1771 C1773 1.327 . S
C1771 C1777 1.429 . S
C1772 C1764 1.574 . S
C1772 H1767 0.949 . S
C1772 C1778 1.368 . S
C1773 C1757 1.349 . S
C1773 H1765 0.950 . S
C1773 C1771 1.327 . S
C1774 C1762 1.349 . S
C1774 H1768 0.950 . S
C1774 C1775 1.327 . S
C1775 H1769 0.950 . S
C1775 C1774 1.327 . S
C1775 C1779 1.429 . S
C1776 C1759 1.574 . S
C1776 H1770 0.949 . S
C1776 C1780 1.368 . S
C1777 C1758 1.429 . S
C1777 C1771 1.429 . S
C1777 C1778 1.523 . S
C1778 C1759 1.368 . S
C1778 C1772 1.368 . S
C1778 C1777 1.523 . S
C1779 C1763 1.429 . S
C1779 C1775 1.429 . S
C1779 C1780 1.523 . S
C1780 C1764 1.368 . S
C1780 C1776 1.368 . S
C1780 C1779 1.523 . S
H1781 C1756 0.950 . S
H1782 C1758 0.950 . S
H1783 C1759 0.949 . S
H1784 C1761 0.950 . S
H1785 C1763 0.950 . S
C1786 C1787 1.349 . S
C1786 C1788 1.327 . S
C1786 H1811 0.950 . S
C1787 C1786 1.349 . S
C1787 C1803 1.349 . S
C1788 C1786 1.327 . S
C1788 C1807 1.429 . S
C1788 H1812 0.950 . S
C1789 C1806 1.574 . S
C1789 C1808 1.368 . S
C1789 H1813 0.949 . S
H1790 C1794 0.949 . S
C1791 C1792 1.349 . S
C1791 C1793 1.327 . S
C1791 H1814 0.950 . S
C1792 C1791 1.349 . S
C1792 C1804 1.349 . S
C1793 C1791 1.327 . S
C1793 C1809 1.429 . S
C1793 H1815 0.950 . S
C1794 H1790 0.949 . S
C1794 C1802 1.574 . S
C1794 C1810 1.368 . S
H1795 C1803 0.950 . S
H1796 C1801 0.950 . S
H1797 C1802 0.949 . S
H1798 C1804 0.950 . S
H1799 C1805 0.950 . S
H1800 C1806 0.949 . S
C1801 H1796 0.950 . S
C1801 C1803 1.327 . S
C1801 C1807 1.429 . S
C1802 C1794 1.574 . S
C1802 H1797 0.949 . S
C1802 C1808 1.368 . S
C1803 C1787 1.349 . S
C1803 H1795 0.950 . S
C1803 C1801 1.327 . S
C1804 C1792 1.349 . S
C1804 H1798 0.950 . S
C1804 C1805 1.327 . S
C1805 H1799 0.950 . S
C1805 C1804 1.327 . S
C1805 C1809 1.429 . S
C1806 C1789 1.574 . S
C1806 H1800 0.949 . S
C1806 C1810 1.368 . S
C1807 C1788 1.429 . S
C1807 C1801 1.429 . S
C1807 C1808 1.523 . S
C1808 C1789 1.368 . S
C1808 C1802 1.368 . S
C1808 C1807 1.523 . S
C1809 C1793 1.429 . S
C1809 C1805 1.429 . S
C1809 C1810 1.523 . S
C1810 C1794 1.368 . S
C1810 C1806 1.368 . S
C1810 C1809 1.523 . S
H1811 C1786 0.950 . S
H1812 C1788 0.950 . S
H1813 C1789 0.949 . S
H1814 C1791 0.950 . S
H1815 C1793 0.950 . S
C1816 C1817 1.349 . S
C1816 C1818 1.327 . S
C1816 H1841 0.950 . S
C1817 C1816 1.349 . S
C1817 C1833 1.349 . S
C1818 C1816 1.327 . S
C1818 C1837 1.429 . S
C1818 H1842 0.950 . S
C1819 C1836 1.574 . S
C1819 C1838 1.368 . S
C1819 H1843 0.949 . S
H1820 C1824 0.949 . S
C1821 C1822 1.349 . S
C1821 C1823 1.327 . S
C1821 H1844 0.950 . S
C1822 C1821 1.349 . S
C1822 C1834 1.349 . S
C1823 C1821 1.327 . S
C1823 C1839 1.429 . S
C1823 H1845 0.950 . S
C1824 H1820 0.949 . S
C1824 C1832 1.574 . S
C1824 C1840 1.368 . S
H1825 C1833 0.950 . S
H1826 C1831 0.950 . S
H1827 C1832 0.949 . S
H1828 C1834 0.950 . S
H1829 C1835 0.950 . S
H1830 C1836 0.949 . S
C1831 H1826 0.950 . S
C1831 C1833 1.327 . S
C1831 C1837 1.429 . S
C1832 C1824 1.574 . S
C1832 H1827 0.949 . S
C1832 C1838 1.368 . S
C1833 C1817 1.349 . S
C1833 H1825 0.950 . S
C1833 C1831 1.327 . S
C1834 C1822 1.349 . S
C1834 H1828 0.950 . S
C1834 C1835 1.327 . S
C1835 H1829 0.950 . S
C1835 C1834 1.327 . S
C1835 C1839 1.429 . S
C1836 C1819 1.574 . S
C1836 H1830 0.949 . S
C1836 C1840 1.368 . S
C1837 C1818 1.429 . S
C1837 C1831 1.429 . S
C1837 C1838 1.523 . S
C1838 C1819 1.368 . S
C1838 C1832 1.368 . S
C1838 C1837 1.523 . S
C1839 C1823 1.429 . S
C1839 C1835 1.429 . S
C1839 C1840 1.523 . S
C1840 C1824 1.368 . S
C1840 C1836 1.368 . S
C1840 C1839 1.523 . S
H1841 C1816 0.950 . S
H1842 C1818 0.950 . S
H1843 C1819 0.949 . S
H1844 C1821 0.950 . S
H1845 C1823 0.950 . S
C1846 C1847 1.349 . S
C1846 C1848 1.327 . S
C1846 H1871 0.950 . S
C1847 C1846 1.349 . S
C1847 C1863 1.349 . S
C1848 C1846 1.327 . S
C1848 C1867 1.429 . S
C1848 H1872 0.950 . S
C1849 C1866 1.574 . S
C1849 C1868 1.368 . S
C1849 H1873 0.949 . S
H1850 C1854 0.949 . S
C1851 C1852 1.349 . S
C1851 C1853 1.327 . S
C1851 H1874 0.950 . S
C1852 C1851 1.349 . S
C1852 C1864 1.349 . S
C1853 C1851 1.327 . S
C1853 C1869 1.429 . S
C1853 H1875 0.950 . S
C1854 H1850 0.949 . S
C1854 C1862 1.574 . S
C1854 C1870 1.368 . S
H1855 C1863 0.950 . S
H1856 C1861 0.950 . S
H1857 C1862 0.949 . S
H1858 C1864 0.950 . S
H1859 C1865 0.950 . S
H1860 C1866 0.949 . S
C1861 H1856 0.950 . S
C1861 C1863 1.327 . S
C1861 C1867 1.429 . S
C1862 C1854 1.574 . S
C1862 H1857 0.949 . S
C1862 C1868 1.368 . S
C1863 C1847 1.349 . S
C1863 H1855 0.950 . S
C1863 C1861 1.327 . S
C1864 C1852 1.349 . S
C1864 H1858 0.950 . S
C1864 C1865 1.327 . S
C1865 H1859 0.950 . S
C1865 C1864 1.327 . S
C1865 C1869 1.429 . S
C1866 C1849 1.574 . S
C1866 H1860 0.949 . S
C1866 C1870 1.368 . S
C1867 C1848 1.429 . S
C1867 C1861 1.429 . S
C1867 C1868 1.523 . S
C1868 C1849 1.368 . S
C1868 C1862 1.368 . S
C1868 C1867 1.523 . S
C1869 C1853 1.429 . S
C1869 C1865 1.429 . S
C1869 C1870 1.523 . S
C1870 C1854 1.368 . S
C1870 C1866 1.368 . S
C1870 C1869 1.523 . S
H1871 C1846 0.950 . S
H1872 C1848 0.950 . S
H1873 C1849 0.949 . S
H1874 C1851 0.950 . S
H1875 C1853 0.950 . S
C1876 C1877 1.349 . S
C1876 C1878 1.327 . S
C1876 H1901 0.950 . S
C1877 C1876 1.349 . S
C1877 C1893 1.349 . S
C1878 C1876 1.327 . S
C1878 C1897 1.429 . S
C1878 H1902 0.950 . S
C1879 C1896 1.574 . S
C1879 C1898 1.368 . S
C1879 H1903 0.949 . S
H1880 C1884 0.949 . S
C1881 C1882 1.349 . S
C1881 C1883 1.327 . S
C1881 H1904 0.950 . S
C1882 C1881 1.349 . S
C1882 C1894 1.349 . S
C1883 C1881 1.327 . S
C1883 C1899 1.429 . S
C1883 H1905 0.950 . S
C1884 H1880 0.949 . S
C1884 C1892 1.574 . S
C1884 C1900 1.368 . S
H1885 C1893 0.950 . S
H1886 C1891 0.950 . S
H1887 C1892 0.949 . S
H1888 C1894 0.950 . S
H1889 C1895 0.950 . S
H1890 C1896 0.949 . S
C1891 H1886 0.950 . S
C1891 C1893 1.327 . S
C1891 C1897 1.429 . S
C1892 C1884 1.574 . S
C1892 H1887 0.949 . S
C1892 C1898 1.368 . S
C1893 C1877 1.349 . S
C1893 H1885 0.950 . S
C1893 C1891 1.327 . S
C1894 C1882 1.349 . S
C1894 H1888 0.950 . S
C1894 C1895 1.327 . S
C1895 H1889 0.950 . S
C1895 C1894 1.327 . S
C1895 C1899 1.429 . S
C1896 C1879 1.574 . S
C1896 H1890 0.949 . S
C1896 C1900 1.368 . S
C1897 C1878 1.429 . S
C1897 C1891 1.429 . S
C1897 C1898 1.523 . S
C1898 C1879 1.368 . S
C1898 C1892 1.368 . S
C1898 C1897 1.523 . S
C1899 C1883 1.429 . S
C1899 C1895 1.429 . S
C1899 C1900 1.523 . S
C1900 C1884 1.368 . S
C1900 C1896 1.368 . S
C1900 C1899 1.523 . S
H1901 C1876 0.950 . S
H1902 C1878 0.950 . S
H1903 C1879 0.949 . S
H1904 C1881 0.950 . S
H1905 C1883 0.950 . S
C1906 C1907 1.349 . S
C1906 C1908 1.327 . S
C1906 H1931 0.950 . S
C1907 C1906 1.349 . S
C1907 C1923 1.349 . S
C1908 C1906 1.327 . S
C1908 C1927 1.429 . S
C1908 H1932 0.950 . S
C1909 C1926 1.574 . S
C1909 C1928 1.368 . S
C1909 H1933 0.949 . S
H1910 C1914 0.949 . S
C1911 C1912 1.349 . S
C1911 C1913 1.327 . S
C1911 H1934 0.950 . S
C1912 C1911 1.349 . S
C1912 C1924 1.349 . S
C1913 C1911 1.327 . S
C1913 C1929 1.429 . S
C1913 H1935 0.950 . S
C1914 H1910 0.949 . S
C1914 C1922 1.574 . S
C1914 C1930 1.368 . S
H1915 C1923 0.950 . S
H1916 C1921 0.950 . S
H1917 C1922 0.949 . S
H1918 C1924 0.950 . S
H1919 C1925 0.950 . S
H1920 C1926 0.949 . S
C1921 H1916 0.950 . S
C1921 C1923 1.327 . S
C1921 C1927 1.429 . S
C1922 C1914 1.574 . S
C1922 H1917 0.949 . S
C1922 C1928 1.368 . S
C1923 C1907 1.349 . S
C1923 H1915 0.950 . S
C1923 C1921 1.327 . S
C1924 C1912 1.349 . S
C1924 H1918 0.950 . S
C1924 C1925 1.327 . S
C1925 H1919 0.950 . S
C1925 C1924 1.327 . S
C1925 C1929 1.429 . S
C1926 C1909 1.574 . S
C1926 H1920 0.949 . S
C1926 C1930 1.368 . S
C1927 C1908 1.429 . S
C1927 C1921 1.429 . S
C1927 C1928 1.523 . S
C1928 C1909 1.368 . S
C1928 C1922 1.368 . S
C1928 C1927 1.523 . S
C1929 C1913 1.429 . S
C1929 C1925 1.429 . S
C1929 C1930 1.523 . S
C1930 C1914 1.368 . S
C1930 C1926 1.368 . S
C1930 C1929 1.523 . S
H1931 C1906 0.950 . S
H1932 C1908 0.950 . S
H1933 C1909 0.949 . S
H1934 C1911 0.950 . S
H1935 C1913 0.950 . S
C1936 C1937 1.349 . S
C1936 C1938 1.327 . S
C1936 H1961 0.950 . S
C1937 C1936 1.349 . S
C1937 C1953 1.349 . S
C1938 C1936 1.327 . S
C1938 C1957 1.429 . S
C1938 H1962 0.950 . S
C1939 C1956 1.574 . S
C1939 C1958 1.368 . S
C1939 H1963 0.949 . S
H1940 C1944 0.949 . S
C1941 C1942 1.349 . S
C1941 C1943 1.327 . S
C1941 H1964 0.950 . S
C1942 C1941 1.349 . S
C1942 C1954 1.349 . S
C1943 C1941 1.327 . S
C1943 C1959 1.429 . S
C1943 H1965 0.950 . S
C1944 H1940 0.949 . S
C1944 C1952 1.574 . S
C1944 C1960 1.368 . S
H1945 C1953 0.950 . S
H1946 C1951 0.950 . S
H1947 C1952 0.949 . S
H1948 C1954 0.950 . S
H1949 C1955 0.950 . S
H1950 C1956 0.949 . S
C1951 H1946 0.950 . S
C1951 C1953 1.327 . S
C1951 C1957 1.429 . S
C1952 C1944 1.574 . S
C1952 H1947 0.949 . S
C1952 C1958 1.368 . S
C1953 C1937 1.349 . S
C1953 H1945 0.950 . S
C1953 C1951 1.327 . S
C1954 C1942 1.349 . S
C1954 H1948 0.950 . S
C1954 C1955 1.327 . S
C1955 H1949 0.950 . S
C1955 C1954 1.327 . S
C1955 C1959 1.429 . S
C1956 C1939 1.574 . S
C1956 H1950 0.949 . S
C1956 C1960 1.368 . S
C1957 C1938 1.429 . S
C1957 C1951 1.429 . S
C1957 C1958 1.523 . S
C1958 C1939 1.368 . S
C1958 C1952 1.368 . S
C1958 C1957 1.523 . S
C1959 C1943 1.429 . S
C1959 C1955 1.429 . S
C1959 C1960 1.523 . S
C1960 C1944 1.368 . S
C1960 C1956 1.368 . S
C1960 C1959 1.523 . S
H1961 C1936 0.950 . S
H1962 C1938 0.950 . S
H1963 C1939 0.949 . S
H1964 C1941 0.950 . S
H1965 C1943 0.950 . S
C1966 C1967 1.349 . S
C1966 C1968 1.327 . S
C1966 H1991 0.950 . S
C1967 C1966 1.349 . S
C1967 C1983 1.349 . S
C1968 C1966 1.327 . S
C1968 C1987 1.429 . S
C1968 H1992 0.950 . S
C1969 C1986 1.574 . S
C1969 C1988 1.368 . S
C1969 H1993 0.949 . S
H1970 C1974 0.949 . S
C1971 C1972 1.349 . S
C1971 C1973 1.327 . S
C1971 H1994 0.950 . S
C1972 C1971 1.349 . S
C1972 C1984 1.349 . S
C1973 C1971 1.327 . S
C1973 C1989 1.429 . S
C1973 H1995 0.950 . S
C1974 H1970 0.949 . S
C1974 C1982 1.574 . S
C1974 C1990 1.368 . S
H1975 C1983 0.950 . S
H1976 C1981 0.950 . S
H1977 C1982 0.949 . S
H1978 C1984 0.950 . S
H1979 C1985 0.950 . S
H1980 C1986 0.949 . S
C1981 H1976 0.950 . S
C1981 C1983 1.327 . S
C1981 C1987 1.429 . S
C1982 C1974 1.574 . S
C1982 H1977 0.949 . S
C1982 C1988 1.368 . S
C1983 C1967 1.349 . S
C1983 H1975 0.950 . S
C1983 C1981 1.327 . S
C1984 C1972 1.349 . S
C1984 H1978 0.950 . S
C1984 C1985 1.327 . S
C1985 H1979 0.950 . S
C1985 C1984 1.327 . S
C1985 C1989 1.429 . S
C1986 C1969 1.574 . S
C1986 H1980 0.949 . S
C1986 C1990 1.368 . S
C1987 C1968 1.429 . S
C1987 C1981 1.429 . S
C1987 C1988 1.523 . S
C1988 C1969 1.368 . S
C1988 C1982 1.368 . S
C1988 C1987 1.523 . S
C1989 C1973 1.429 . S
C1989 C1985 1.429 . S
C1989 C1990 1.523 . S
C1990 C1974 1.368 . S
C1990 C1986 1.368 . S
C1990 C1989 1.523 . S
H1991 C1966 0.950 . S
H1992 C1968 0.950 . S
H1993 C1969 0.949 . S
H1994 C1971 0.950 . S
H1995 C1973 0.950 . S
C1996 C1997 1.349 . S
C1996 C1998 1.327 . S
C1996 H2021 0.950 . S
C1997 C1996 1.349 . S
C1997 C2013 1.349 . S
C1998 C1996 1.327 . S
C1998 C2017 1.429 . S
C1998 H2022 0.950 . S
C1999 C2016 1.574 . S
C1999 C2018 1.368 . S
C1999 H2023 0.949 . S
H2000 C2004 0.949 . S
C2001 C2002 1.349 . S
C2001 C2003 1.327 . S
C2001 H2024 0.950 . S
C2002 C2001 1.349 . S
C2002 C2014 1.349 . S
C2003 C2001 1.327 . S
C2003 C2019 1.429 . S
C2003 H2025 0.950 . S
C2004 H2000 0.949 . S
C2004 C2012 1.574 . S
C2004 C2020 1.368 . S
H2005 C2013 0.950 . S
H2006 C2011 0.950 . S
H2007 C2012 0.949 . S
H2008 C2014 0.950 . S
H2009 C2015 0.950 . S
H2010 C2016 0.949 . S
C2011 H2006 0.950 . S
C2011 C2013 1.327 . S
C2011 C2017 1.429 . S
C2012 C2004 1.574 . S
C2012 H2007 0.949 . S
C2012 C2018 1.368 . S
C2013 C1997 1.349 . S
C2013 H2005 0.950 . S
C2013 C2011 1.327 . S
C2014 C2002 1.349 . S
C2014 H2008 0.950 . S
C2014 C2015 1.327 . S
C2015 H2009 0.950 . S
C2015 C2014 1.327 . S
C2015 C2019 1.429 . S
C2016 C1999 1.574 . S
C2016 H2010 0.949 . S
C2016 C2020 1.368 . S
C2017 C1998 1.429 . S
C2017 C2011 1.429 . S
C2017 C2018 1.523 . S
C2018 C1999 1.368 . S
C2018 C2012 1.368 . S
C2018 C2017 1.523 . S
C2019 C2003 1.429 . S
C2019 C2015 1.429 . S
C2019 C2020 1.523 . S
C2020 C2004 1.368 . S
C2020 C2016 1.368 . S
C2020 C2019 1.523 . S
H2021 C1996 0.950 . S
H2022 C1998 0.950 . S
H2023 C1999 0.949 . S
H2024 C2001 0.950 . S
H2025 C2003 0.950 . S
C2026 C2027 1.349 . S
C2026 C2028 1.327 . S
C2026 H2051 0.950 . S
C2027 C2026 1.349 . S
C2027 C2043 1.349 . S
C2028 C2026 1.327 . S
C2028 C2047 1.429 . S
C2028 H2052 0.950 . S
C2029 C2046 1.574 . S
C2029 C2048 1.368 . S
C2029 H2053 0.949 . S
H2030 C2034 0.949 . S
C2031 C2032 1.349 . S
C2031 C2033 1.327 . S
C2031 H2054 0.950 . S
C2032 C2031 1.349 . S
C2032 C2044 1.349 . S
C2033 C2031 1.327 . S
C2033 C2049 1.429 . S
C2033 H2055 0.950 . S
C2034 H2030 0.949 . S
C2034 C2042 1.574 . S
C2034 C2050 1.368 . S
H2035 C2043 0.950 . S
H2036 C2041 0.950 . S
H2037 C2042 0.949 . S
H2038 C2044 0.950 . S
H2039 C2045 0.950 . S
H2040 C2046 0.949 . S
C2041 H2036 0.950 . S
C2041 C2043 1.327 . S
C2041 C2047 1.429 . S
C2042 C2034 1.574 . S
C2042 H2037 0.949 . S
C2042 C2048 1.368 . S
C2043 C2027 1.349 . S
C2043 H2035 0.950 . S
C2043 C2041 1.327 . S
C2044 C2032 1.349 . S
C2044 H2038 0.950 . S
C2044 C2045 1.327 . S
C2045 H2039 0.950 . S
C2045 C2044 1.327 . S
C2045 C2049 1.429 . S
C2046 C2029 1.574 . S
C2046 H2040 0.949 . S
C2046 C2050 1.368 . S
C2047 C2028 1.429 . S
C2047 C2041 1.429 . S
C2047 C2048 1.523 . S
C2048 C2029 1.368 . S
C2048 C2042 1.368 . S
C2048 C2047 1.523 . S
C2049 C2033 1.429 . S
C2049 C2045 1.429 . S
C2049 C2050 1.523 . S
C2050 C2034 1.368 . S
C2050 C2046 1.368 . S
C2050 C2049 1.523 . S
H2051 C2026 0.950 . S
H2052 C2028 0.950 . S
H2053 C2029 0.949 . S
H2054 C2031 0.950 . S
H2055 C2033 0.950 . S
C2056 C2057 1.349 . S
C2056 C2058 1.327 . S
C2056 H2081 0.950 . S
C2057 C2056 1.349 . S
C2057 C2073 1.349 . S
C2058 C2056 1.327 . S
C2058 C2077 1.429 . S
C2058 H2082 0.950 . S
C2059 C2076 1.574 . S
C2059 C2078 1.368 . S
C2059 H2083 0.949 . S
H2060 C2064 0.949 . S
C2061 C2062 1.349 . S
C2061 C2063 1.327 . S
C2061 H2084 0.950 . S
C2062 C2061 1.349 . S
C2062 C2074 1.349 . S
C2063 C2061 1.327 . S
C2063 C2079 1.429 . S
C2063 H2085 0.950 . S
C2064 H2060 0.949 . S
C2064 C2072 1.574 . S
C2064 C2080 1.368 . S
H2065 C2073 0.950 . S
H2066 C2071 0.950 . S
H2067 C2072 0.949 . S
H2068 C2074 0.950 . S
H2069 C2075 0.950 . S
H2070 C2076 0.949 . S
C2071 H2066 0.950 . S
C2071 C2073 1.327 . S
C2071 C2077 1.429 . S
C2072 C2064 1.574 . S
C2072 H2067 0.949 . S
C2072 C2078 1.368 . S
C2073 C2057 1.349 . S
C2073 H2065 0.950 . S
C2073 C2071 1.327 . S
C2074 C2062 1.349 . S
C2074 H2068 0.950 . S
C2074 C2075 1.327 . S
C2075 H2069 0.950 . S
C2075 C2074 1.327 . S
C2075 C2079 1.429 . S
C2076 C2059 1.574 . S
C2076 H2070 0.949 . S
C2076 C2080 1.368 . S
C2077 C2058 1.429 . S
C2077 C2071 1.429 . S
C2077 C2078 1.523 . S
C2078 C2059 1.368 . S
C2078 C2072 1.368 . S
C2078 C2077 1.523 . S
C2079 C2063 1.429 . S
C2079 C2075 1.429 . S
C2079 C2080 1.523 . S
C2080 C2064 1.368 . S
C2080 C2076 1.368 . S
C2080 C2079 1.523 . S
H2081 C2056 0.950 . S
H2082 C2058 0.950 . S
H2083 C2059 0.949 . S
H2084 C2061 0.950 . S
H2085 C2063 0.950 . S
C2086 C2087 1.349 . S
C2086 C2088 1.327 . S
C2086 H2111 0.950 . S
C2087 C2086 1.349 . S
C2087 C2103 1.349 . S
C2088 C2086 1.327 . S
C2088 C2107 1.429 . S
C2088 H2112 0.950 . S
C2089 C2106 1.574 . S
C2089 C2108 1.368 . S
C2089 H2113 0.949 . S
H2090 C2094 0.949 . S
C2091 C2092 1.349 . S
C2091 C2093 1.327 . S
C2091 H2114 0.950 . S
C2092 C2091 1.349 . S
C2092 C2104 1.349 . S
C2093 C2091 1.327 . S
C2093 C2109 1.429 . S
C2093 H2115 0.950 . S
C2094 H2090 0.949 . S
C2094 C2102 1.574 . S
C2094 C2110 1.368 . S
H2095 C2103 0.950 . S
H2096 C2101 0.950 . S
H2097 C2102 0.949 . S
H2098 C2104 0.950 . S
H2099 C2105 0.950 . S
H2100 C2106 0.949 . S
C2101 H2096 0.950 . S
C2101 C2103 1.327 . S
C2101 C2107 1.429 . S
C2102 C2094 1.574 . S
C2102 H2097 0.949 . S
C2102 C2108 1.368 . S
C2103 C2087 1.349 . S
C2103 H2095 0.950 . S
C2103 C2101 1.327 . S
C2104 C2092 1.349 . S
C2104 H2098 0.950 . S
C2104 C2105 1.327 . S
C2105 H2099 0.950 . S
C2105 C2104 1.327 . S
C2105 C2109 1.429 . S
C2106 C2089 1.574 . S
C2106 H2100 0.949 . S
C2106 C2110 1.368 . S
C2107 C2088 1.429 . S
C2107 C2101 1.429 . S
C2107 C2108 1.523 . S
C2108 C2089 1.368 . S
C2108 C2102 1.368 . S
C2108 C2107 1.523 . S
C2109 C2093 1.429 . S
C2109 C2105 1.429 . S
C2109 C2110 1.523 . S
C2110 C2094 1.368 . S
C2110 C2106 1.368 . S
C2110 C2109 1.523 . S
H2111 C2086 0.950 . S
H2112 C2088 0.950 . S
H2113 C2089 0.949 . S
H2114 C2091 0.950 . S
H2115 C2093 0.950 . S
C2116 C2117 1.349 . S
C2116 C2118 1.327 . S
C2116 H2141 0.950 . S
C2117 C2116 1.349 . S
C2117 C2133 1.349 . S
C2118 C2116 1.327 . S
C2118 C2137 1.429 . S
C2118 H2142 0.950 . S
C2119 C2136 1.574 . S
C2119 C2138 1.368 . S
C2119 H2143 0.949 . S
H2120 C2124 0.949 . S
C2121 C2122 1.349 . S
C2121 C2123 1.327 . S
C2121 H2144 0.950 . S
C2122 C2121 1.349 . S
C2122 C2134 1.349 . S
C2123 C2121 1.327 . S
C2123 C2139 1.429 . S
C2123 H2145 0.950 . S
C2124 H2120 0.949 . S
C2124 C2132 1.574 . S
C2124 C2140 1.368 . S
H2125 C2133 0.950 . S
H2126 C2131 0.950 . S
H2127 C2132 0.949 . S
H2128 C2134 0.950 . S
H2129 C2135 0.950 . S
H2130 C2136 0.949 . S
C2131 H2126 0.950 . S
C2131 C2133 1.327 . S
C2131 C2137 1.429 . S
C2132 C2124 1.574 . S
C2132 H2127 0.949 . S
C2132 C2138 1.368 . S
C2133 C2117 1.349 . S
C2133 H2125 0.950 . S
C2133 C2131 1.327 . S
C2134 C2122 1.349 . S
C2134 H2128 0.950 . S
C2134 C2135 1.327 . S
C2135 H2129 0.950 . S
C2135 C2134 1.327 . S
C2135 C2139 1.429 . S
C2136 C2119 1.574 . S
C2136 H2130 0.949 . S
C2136 C2140 1.368 . S
C2137 C2118 1.429 . S
C2137 C2131 1.429 . S
C2137 C2138 1.523 . S
C2138 C2119 1.368 . S
C2138 C2132 1.368 . S
C2138 C2137 1.523 . S
C2139 C2123 1.429 . S
C2139 C2135 1.429 . S
C2139 C2140 1.523 . S
C2140 C2124 1.368 . S
C2140 C2136 1.368 . S
C2140 C2139 1.523 . S
H2141 C2116 0.950 . S
H2142 C2118 0.950 . S
H2143 C2119 0.949 . S
H2144 C2121 0.950 . S
H2145 C2123 0.950 . S
C2146 C2147 1.349 . S
C2146 C2148 1.327 . S
C2146 H2171 0.950 . S
C2147 C2146 1.349 . S
C2147 C2163 1.349 . S
C2148 C2146 1.327 . S
C2148 C2167 1.429 . S
C2148 H2172 0.950 . S
C2149 C2166 1.574 . S
C2149 C2168 1.368 . S
C2149 H2173 0.949 . S
H2150 C2154 0.949 . S
C2151 C2152 1.349 . S
C2151 C2153 1.327 . S
C2151 H2174 0.950 . S
C2152 C2151 1.349 . S
C2152 C2164 1.349 . S
C2153 C2151 1.327 . S
C2153 C2169 1.429 . S
C2153 H2175 0.950 . S
C2154 H2150 0.949 . S
C2154 C2162 1.574 . S
C2154 C2170 1.368 . S
H2155 C2163 0.950 . S
H2156 C2161 0.950 . S
H2157 C2162 0.949 . S
H2158 C2164 0.950 . S
H2159 C2165 0.950 . S
H2160 C2166 0.949 . S
C2161 H2156 0.950 . S
C2161 C2163 1.327 . S
C2161 C2167 1.429 . S
C2162 C2154 1.574 . S
C2162 H2157 0.949 . S
C2162 C2168 1.368 . S
C2163 C2147 1.349 . S
C2163 H2155 0.950 . S
C2163 C2161 1.327 . S
C2164 C2152 1.349 . S
C2164 H2158 0.950 . S
C2164 C2165 1.327 . S
C2165 H2159 0.950 . S
C2165 C2164 1.327 . S
C2165 C2169 1.429 . S
C2166 C2149 1.574 . S
C2166 H2160 0.949 . S
C2166 C2170 1.368 . S
C2167 C2148 1.429 . S
C2167 C2161 1.429 . S
C2167 C2168 1.523 . S
C2168 C2149 1.368 . S
C2168 C2162 1.368 . S
C2168 C2167 1.523 . S
C2169 C2153 1.429 . S
C2169 C2165 1.429 . S
C2169 C2170 1.523 . S
C2170 C2154 1.368 . S
C2170 C2166 1.368 . S
C2170 C2169 1.523 . S
H2171 C2146 0.950 . S
H2172 C2148 0.950 . S
H2173 C2149 0.949 . S
H2174 C2151 0.950 . S
H2175 C2153 0.950 . S
C2176 C2177 1.349 . S
C2176 C2178 1.327 . S
C2176 H2201 0.950 . S
C2177 C2176 1.349 . S
C2177 C2193 1.349 . S
C2178 C2176 1.327 . S
C2178 C2197 1.429 . S
C2178 H2202 0.950 . S
C2179 C2196 1.574 . S
C2179 C2198 1.368 . S
C2179 H2203 0.949 . S
H2180 C2184 0.949 . S
C2181 C2182 1.349 . S
C2181 C2183 1.327 . S
C2181 H2204 0.950 . S
C2182 C2181 1.349 . S
C2182 C2194 1.349 . S
C2183 C2181 1.327 . S
C2183 C2199 1.429 . S
C2183 H2205 0.950 . S
C2184 H2180 0.949 . S
C2184 C2192 1.574 . S
C2184 C2200 1.368 . S
H2185 C2193 0.950 . S
H2186 C2191 0.950 . S
H2187 C2192 0.949 . S
H2188 C2194 0.950 . S
H2189 C2195 0.950 . S
H2190 C2196 0.949 . S
C2191 H2186 0.950 . S
C2191 C2193 1.327 . S
C2191 C2197 1.429 . S
C2192 C2184 1.574 . S
C2192 H2187 0.949 . S
C2192 C2198 1.368 . S
C2193 C2177 1.349 . S
C2193 H2185 0.950 . S
C2193 C2191 1.327 . S
C2194 C2182 1.349 . S
C2194 H2188 0.950 . S
C2194 C2195 1.327 . S
C2195 H2189 0.950 . S
C2195 C2194 1.327 . S
C2195 C2199 1.429 . S
C2196 C2179 1.574 . S
C2196 H2190 0.949 . S
C2196 C2200 1.368 . S
C2197 C2178 1.429 . S
C2197 C2191 1.429 . S
C2197 C2198 1.523 . S
C2198 C2179 1.368 . S
C2198 C2192 1.368 . S
C2198 C2197 1.523 . S
C2199 C2183 1.429 . S
C2199 C2195 1.429 . S
C2199 C2200 1.523 . S
C2200 C2184 1.368 . S
C2200 C2196 1.368 . S
C2200 C2199 1.523 . S
H2201 C2176 0.950 . S
H2202 C2178 0.950 . S
H2203 C2179 0.949 . S
H2204 C2181 0.950 . S
H2205 C2183 0.950 . S
C2206 C2207 1.349 . S
C2206 C2208 1.327 . S
C2206 H2231 0.950 . S
C2207 C2206 1.349 . S
C2207 C2223 1.349 . S
C2208 C2206 1.327 . S
C2208 C2227 1.429 . S
C2208 H2232 0.950 . S
C2209 C2226 1.574 . S
C2209 C2228 1.368 . S
C2209 H2233 0.949 . S
H2210 C2214 0.949 . S
C2211 C2212 1.349 . S
C2211 C2213 1.327 . S
C2211 H2234 0.950 . S
C2212 C2211 1.349 . S
C2212 C2224 1.349 . S
C2213 C2211 1.327 . S
C2213 C2229 1.429 . S
C2213 H2235 0.950 . S
C2214 H2210 0.949 . S
C2214 C2222 1.574 . S
C2214 C2230 1.368 . S
H2215 C2223 0.950 . S
H2216 C2221 0.950 . S
H2217 C2222 0.949 . S
H2218 C2224 0.950 . S
H2219 C2225 0.950 . S
H2220 C2226 0.949 . S
C2221 H2216 0.950 . S
C2221 C2223 1.327 . S
C2221 C2227 1.429 . S
C2222 C2214 1.574 . S
C2222 H2217 0.949 . S
C2222 C2228 1.368 . S
C2223 C2207 1.349 . S
C2223 H2215 0.950 . S
C2223 C2221 1.327 . S
C2224 C2212 1.349 . S
C2224 H2218 0.950 . S
C2224 C2225 1.327 . S
C2225 H2219 0.950 . S
C2225 C2224 1.327 . S
C2225 C2229 1.429 . S
C2226 C2209 1.574 . S
C2226 H2220 0.949 . S
C2226 C2230 1.368 . S
C2227 C2208 1.429 . S
C2227 C2221 1.429 . S
C2227 C2228 1.523 . S
C2228 C2209 1.368 . S
C2228 C2222 1.368 . S
C2228 C2227 1.523 . S
C2229 C2213 1.429 . S
C2229 C2225 1.429 . S
C2229 C2230 1.523 . S
C2230 C2214 1.368 . S
C2230 C2226 1.368 . S
C2230 C2229 1.523 . S
H2231 C2206 0.950 . S
H2232 C2208 0.950 . S
H2233 C2209 0.949 . S
H2234 C2211 0.950 . S
H2235 C2213 0.950 . S
C2236 C2237 1.349 . S
C2236 C2238 1.327 . S
C2236 H2261 0.950 . S
C2237 C2236 1.349 . S
C2237 C2253 1.349 . S
C2238 C2236 1.327 . S
C2238 C2257 1.429 . S
C2238 H2262 0.950 . S
C2239 C2256 1.574 . S
C2239 C2258 1.368 . S
C2239 H2263 0.949 . S
H2240 C2244 0.949 . S
C2241 C2242 1.349 . S
C2241 C2243 1.327 . S
C2241 H2264 0.950 . S
C2242 C2241 1.349 . S
C2242 C2254 1.349 . S
C2243 C2241 1.327 . S
C2243 C2259 1.429 . S
C2243 H2265 0.950 . S
C2244 H2240 0.949 . S
C2244 C2252 1.574 . S
C2244 C2260 1.368 . S
H2245 C2253 0.950 . S
H2246 C2251 0.950 . S
H2247 C2252 0.949 . S
H2248 C2254 0.950 . S
H2249 C2255 0.950 . S
H2250 C2256 0.949 . S
C2251 H2246 0.950 . S
C2251 C2253 1.327 . S
C2251 C2257 1.429 . S
C2252 C2244 1.574 . S
C2252 H2247 0.949 . S
C2252 C2258 1.368 . S
C2253 C2237 1.349 . S
C2253 H2245 0.950 . S
C2253 C2251 1.327 . S
C2254 C2242 1.349 . S
C2254 H2248 0.950 . S
C2254 C2255 1.327 . S
C2255 H2249 0.950 . S
C2255 C2254 1.327 . S
C2255 C2259 1.429 . S
C2256 C2239 1.574 . S
C2256 H2250 0.949 . S
C2256 C2260 1.368 . S
C2257 C2238 1.429 . S
C2257 C2251 1.429 . S
C2257 C2258 1.523 . S
C2258 C2239 1.368 . S
C2258 C2252 1.368 . S
C2258 C2257 1.523 . S
C2259 C2243 1.429 . S
C2259 C2255 1.429 . S
C2259 C2260 1.523 . S
C2260 C2244 1.368 . S
C2260 C2256 1.368 . S
C2260 C2259 1.523 . S
H2261 C2236 0.950 . S
H2262 C2238 0.950 . S
H2263 C2239 0.949 . S
H2264 C2241 0.950 . S
H2265 C2243 0.950 . S
C2266 C2267 1.349 . S
C2266 C2268 1.327 . S
C2266 H2291 0.950 . S
C2267 C2266 1.349 . S
C2267 C2283 1.349 . S
C2268 C2266 1.327 . S
C2268 C2287 1.429 . S
C2268 H2292 0.950 . S
C2269 C2286 1.574 . S
C2269 C2288 1.368 . S
C2269 H2293 0.949 . S
H2270 C2274 0.949 . S
C2271 C2272 1.349 . S
C2271 C2273 1.327 . S
C2271 H2294 0.950 . S
C2272 C2271 1.349 . S
C2272 C2284 1.349 . S
C2273 C2271 1.327 . S
C2273 C2289 1.429 . S
C2273 H2295 0.950 . S
C2274 H2270 0.949 . S
C2274 C2282 1.574 . S
C2274 C2290 1.368 . S
H2275 C2283 0.950 . S
H2276 C2281 0.950 . S
H2277 C2282 0.949 . S
H2278 C2284 0.950 . S
H2279 C2285 0.950 . S
H2280 C2286 0.949 . S
C2281 H2276 0.950 . S
C2281 C2283 1.327 . S
C2281 C2287 1.429 . S
C2282 C2274 1.574 . S
C2282 H2277 0.949 . S
C2282 C2288 1.368 . S
C2283 C2267 1.349 . S
C2283 H2275 0.950 . S
C2283 C2281 1.327 . S
C2284 C2272 1.349 . S
C2284 H2278 0.950 . S
C2284 C2285 1.327 . S
C2285 H2279 0.950 . S
C2285 C2284 1.327 . S
C2285 C2289 1.429 . S
C2286 C2269 1.574 . S
C2286 H2280 0.949 . S
C2286 C2290 1.368 . S
C2287 C2268 1.429 . S
C2287 C2281 1.429 . S
C2287 C2288 1.523 . S
C2288 C2269 1.368 . S
C2288 C2282 1.368 . S
C2288 C2287 1.523 . S
C2289 C2273 1.429 . S
C2289 C2285 1.429 . S
C2289 C2290 1.523 . S
C2290 C2274 1.368 . S
C2290 C2286 1.368 . S
C2290 C2289 1.523 . S
H2291 C2266 0.950 . S
H2292 C2268 0.950 . S
H2293 C2269 0.949 . S
H2294 C2271 0.950 . S
H2295 C2273 0.950 . S
C2296 C2297 1.349 . S
C2296 C2298 1.327 . S
C2296 H2321 0.950 . S
C2297 C2296 1.349 . S
C2297 C2313 1.349 . S
C2298 C2296 1.327 . S
C2298 C2317 1.429 . S
C2298 H2322 0.950 . S
C2299 C2316 1.574 . S
C2299 C2318 1.368 . S
C2299 H2323 0.949 . S
H2300 C2304 0.949 . S
C2301 C2302 1.349 . S
C2301 C2303 1.327 . S
C2301 H2324 0.950 . S
C2302 C2301 1.349 . S
C2302 C2314 1.349 . S
C2303 C2301 1.327 . S
C2303 C2319 1.429 . S
C2303 H2325 0.950 . S
C2304 H2300 0.949 . S
C2304 C2312 1.574 . S
C2304 C2320 1.368 . S
H2305 C2313 0.950 . S
H2306 C2311 0.950 . S
H2307 C2312 0.949 . S
H2308 C2314 0.950 . S
H2309 C2315 0.950 . S
H2310 C2316 0.949 . S
C2311 H2306 0.950 . S
C2311 C2313 1.327 . S
C2311 C2317 1.429 . S
C2312 C2304 1.574 . S
C2312 H2307 0.949 . S
C2312 C2318 1.368 . S
C2313 C2297 1.349 . S
C2313 H2305 0.950 . S
C2313 C2311 1.327 . S
C2314 C2302 1.349 . S
C2314 H2308 0.950 . S
C2314 C2315 1.327 . S
C2315 H2309 0.950 . S
C2315 C2314 1.327 . S
C2315 C2319 1.429 . S
C2316 C2299 1.574 . S
C2316 H2310 0.949 . S
C2316 C2320 1.368 . S
C2317 C2298 1.429 . S
C2317 C2311 1.429 . S
C2317 C2318 1.523 . S
C2318 C2299 1.368 . S
C2318 C2312 1.368 . S
C2318 C2317 1.523 . S
C2319 C2303 1.429 . S
C2319 C2315 1.429 . S
C2319 C2320 1.523 . S
C2320 C2304 1.368 . S
C2320 C2316 1.368 . S
C2320 C2319 1.523 . S
H2321 C2296 0.950 . S
H2322 C2298 0.950 . S
H2323 C2299 0.949 . S
H2324 C2301 0.950 . S
H2325 C2303 0.950 . S
C2326 C2327 1.349 . S
C2326 C2328 1.327 . S
C2326 H2351 0.950 . S
C2327 C2326 1.349 . S
C2327 C2343 1.349 . S
C2328 C2326 1.327 . S
C2328 C2347 1.429 . S
C2328 H2352 0.950 . S
C2329 C2346 1.574 . S
C2329 C2348 1.368 . S
C2329 H2353 0.949 . S
H2330 C2334 0.949 . S
C2331 C2332 1.349 . S
C2331 C2333 1.327 . S
C2331 H2354 0.950 . S
C2332 C2331 1.349 . S
C2332 C2344 1.349 . S
C2333 C2331 1.327 . S
C2333 C2349 1.429 . S
C2333 H2355 0.950 . S
C2334 H2330 0.949 . S
C2334 C2342 1.574 . S
C2334 C2350 1.368 . S
H2335 C2343 0.950 . S
H2336 C2341 0.950 . S
H2337 C2342 0.949 . S
H2338 C2344 0.950 . S
H2339 C2345 0.950 . S
H2340 C2346 0.949 . S
C2341 H2336 0.950 . S
C2341 C2343 1.327 . S
C2341 C2347 1.429 . S
C2342 C2334 1.574 . S
C2342 H2337 0.949 . S
C2342 C2348 1.368 . S
C2343 C2327 1.349 . S
C2343 H2335 0.950 . S
C2343 C2341 1.327 . S
C2344 C2332 1.349 . S
C2344 H2338 0.950 . S
C2344 C2345 1.327 . S
C2345 H2339 0.950 . S
C2345 C2344 1.327 . S
C2345 C2349 1.429 . S
C2346 C2329 1.574 . S
C2346 H2340 0.949 . S
C2346 C2350 1.368 . S
C2347 C2328 1.429 . S
C2347 C2341 1.429 . S
C2347 C2348 1.523 . S
C2348 C2329 1.368 . S
C2348 C2342 1.368 . S
C2348 C2347 1.523 . S
C2349 C2333 1.429 . S
C2349 C2345 1.429 . S
C2349 C2350 1.523 . S
C2350 C2334 1.368 . S
C2350 C2346 1.368 . S
C2350 C2349 1.523 . S
H2351 C2326 0.950 . S
H2352 C2328 0.950 . S
H2353 C2329 0.949 . S
H2354 C2331 0.950 . S
H2355 C2333 0.950 . S
C2356 C2357 1.349 . S
C2356 C2358 1.327 . S
C2356 H2381 0.950 . S
C2357 C2356 1.349 . S
C2357 C2373 1.349 . S
C2358 C2356 1.327 . S
C2358 C2377 1.429 . S
C2358 H2382 0.950 . S
C2359 C2376 1.574 . S
C2359 C2378 1.368 . S
C2359 H2383 0.949 . S
H2360 C2364 0.949 . S
C2361 C2362 1.349 . S
C2361 C2363 1.327 . S
C2361 H2384 0.950 . S
C2362 C2361 1.349 . S
C2362 C2374 1.349 . S
C2363 C2361 1.327 . S
C2363 C2379 1.429 . S
C2363 H2385 0.950 . S
C2364 H2360 0.949 . S
C2364 C2372 1.574 . S
C2364 C2380 1.368 . S
H2365 C2373 0.950 . S
H2366 C2371 0.950 . S
H2367 C2372 0.949 . S
H2368 C2374 0.950 . S
H2369 C2375 0.950 . S
H2370 C2376 0.949 . S
C2371 H2366 0.950 . S
C2371 C2373 1.327 . S
C2371 C2377 1.429 . S
C2372 C2364 1.574 . S
C2372 H2367 0.949 . S
C2372 C2378 1.368 . S
C2373 C2357 1.349 . S
C2373 H2365 0.950 . S
C2373 C2371 1.327 . S
C2374 C2362 1.349 . S
C2374 H2368 0.950 . S
C2374 C2375 1.327 . S
C2375 H2369 0.950 . S
C2375 C2374 1.327 . S
C2375 C2379 1.429 . S
C2376 C2359 1.574 . S
C2376 H2370 0.949 . S
C2376 C2380 1.368 . S
C2377 C2358 1.429 . S
C2377 C2371 1.429 . S
C2377 C2378 1.523 . S
C2378 C2359 1.368 . S
C2378 C2372 1.368 . S
C2378 C2377 1.523 . S
C2379 C2363 1.429 . S
C2379 C2375 1.429 . S
C2379 C2380 1.523 . S
C2380 C2364 1.368 . S
C2380 C2376 1.368 . S
C2380 C2379 1.523 . S
H2381 C2356 0.950 . S
H2382 C2358 0.950 . S
H2383 C2359 0.949 . S
H2384 C2361 0.950 . S
H2385 C2363 0.950 . S
C2386 C2387 1.349 . S
C2386 C2388 1.327 . S
C2386 H2411 0.950 . S
C2387 C2386 1.349 . S
C2387 C2403 1.349 . S
C2388 C2386 1.327 . S
C2388 C2407 1.429 . S
C2388 H2412 0.950 . S
C2389 C2406 1.574 . S
C2389 C2408 1.368 . S
C2389 H2413 0.949 . S
H2390 C2394 0.949 . S
C2391 C2392 1.349 . S
C2391 C2393 1.327 . S
C2391 H2414 0.950 . S
C2392 C2391 1.349 . S
C2392 C2404 1.349 . S
C2393 C2391 1.327 . S
C2393 C2409 1.429 . S
C2393 H2415 0.950 . S
C2394 H2390 0.949 . S
C2394 C2402 1.574 . S
C2394 C2410 1.368 . S
H2395 C2403 0.950 . S
H2396 C2401 0.950 . S
H2397 C2402 0.949 . S
H2398 C2404 0.950 . S
H2399 C2405 0.950 . S
H2400 C2406 0.949 . S
C2401 H2396 0.950 . S
C2401 C2403 1.327 . S
C2401 C2407 1.429 . S
C2402 C2394 1.574 . S
C2402 H2397 0.949 . S
C2402 C2408 1.368 . S
C2403 C2387 1.349 . S
C2403 H2395 0.950 . S
C2403 C2401 1.327 . S
C2404 C2392 1.349 . S
C2404 H2398 0.950 . S
C2404 C2405 1.327 . S
C2405 H2399 0.950 . S
C2405 C2404 1.327 . S
C2405 C2409 1.429 . S
C2406 C2389 1.574 . S
C2406 H2400 0.949 . S
C2406 C2410 1.368 . S
C2407 C2388 1.429 . S
C2407 C2401 1.429 . S
C2407 C2408 1.523 . S
C2408 C2389 1.368 . S
C2408 C2402 1.368 . S
C2408 C2407 1.523 . S
C2409 C2393 1.429 . S
C2409 C2405 1.429 . S
C2409 C2410 1.523 . S
C2410 C2394 1.368 . S
C2410 C2406 1.368 . S
C2410 C2409 1.523 . S
H2411 C2386 0.950 . S
H2412 C2388 0.950 . S
H2413 C2389 0.949 . S
H2414 C2391 0.950 . S
H2415 C2393 0.950 . S
C2416 C2417 1.349 . S
C2416 C2418 1.327 . S
C2416 H2441 0.950 . S
C2417 C2416 1.349 . S
C2417 C2433 1.349 . S
C2418 C2416 1.327 . S
C2418 C2437 1.429 . S
C2418 H2442 0.950 . S
C2419 C2436 1.574 . S
C2419 C2438 1.368 . S
C2419 H2443 0.949 . S
H2420 C2424 0.949 . S
C2421 C2422 1.349 . S
C2421 C2423 1.327 . S
C2421 H2444 0.950 . S
C2422 C2421 1.349 . S
C2422 C2434 1.349 . S
C2423 C2421 1.327 . S
C2423 C2439 1.429 . S
C2423 H2445 0.950 . S
C2424 H2420 0.949 . S
C2424 C2432 1.574 . S
C2424 C2440 1.368 . S
H2425 C2433 0.950 . S
H2426 C2431 0.950 . S
H2427 C2432 0.949 . S
H2428 C2434 0.950 . S
H2429 C2435 0.950 . S
H2430 C2436 0.949 . S
C2431 H2426 0.950 . S
C2431 C2433 1.327 . S
C2431 C2437 1.429 . S
C2432 C2424 1.574 . S
C2432 H2427 0.949 . S
C2432 C2438 1.368 . S
C2433 C2417 1.349 . S
C2433 H2425 0.950 . S
C2433 C2431 1.327 . S
C2434 C2422 1.349 . S
C2434 H2428 0.950 . S
C2434 C2435 1.327 . S
C2435 H2429 0.950 . S
C2435 C2434 1.327 . S
C2435 C2439 1.429 . S
C2436 C2419 1.574 . S
C2436 H2430 0.949 . S
C2436 C2440 1.368 . S
C2437 C2418 1.429 . S
C2437 C2431 1.429 . S
C2437 C2438 1.523 . S
C2438 C2419 1.368 . S
C2438 C2432 1.368 . S
C2438 C2437 1.523 . S
C2439 C2423 1.429 . S
C2439 C2435 1.429 . S
C2439 C2440 1.523 . S
C2440 C2424 1.368 . S
C2440 C2436 1.368 . S
C2440 C2439 1.523 . S
H2441 C2416 0.950 . S
H2442 C2418 0.950 . S
H2443 C2419 0.949 . S
H2444 C2421 0.950 . S
H2445 C2423 0.950 . S
C2446 C2447 1.349 . S
C2446 C2448 1.327 . S
C2446 H2471 0.950 . S
C2447 C2446 1.349 . S
C2447 C2463 1.349 . S
C2448 C2446 1.327 . S
C2448 C2467 1.429 . S
C2448 H2472 0.950 . S
C2449 C2466 1.574 . S
C2449 C2468 1.368 . S
C2449 H2473 0.949 . S
H2450 C2454 0.949 . S
C2451 C2452 1.349 . S
C2451 C2453 1.327 . S
C2451 H2474 0.950 . S
C2452 C2451 1.349 . S
C2452 C2464 1.349 . S
C2453 C2451 1.327 . S
C2453 C2469 1.429 . S
C2453 H2475 0.950 . S
C2454 H2450 0.949 . S
C2454 C2462 1.574 . S
C2454 C2470 1.368 . S
H2455 C2463 0.950 . S
H2456 C2461 0.950 . S
H2457 C2462 0.949 . S
H2458 C2464 0.950 . S
H2459 C2465 0.950 . S
H2460 C2466 0.949 . S
C2461 H2456 0.950 . S
C2461 C2463 1.327 . S
C2461 C2467 1.429 . S
C2462 C2454 1.574 . S
C2462 H2457 0.949 . S
C2462 C2468 1.368 . S
C2463 C2447 1.349 . S
C2463 H2455 0.950 . S
C2463 C2461 1.327 . S
C2464 C2452 1.349 . S
C2464 H2458 0.950 . S
C2464 C2465 1.327 . S
C2465 H2459 0.950 . S
C2465 C2464 1.327 . S
C2465 C2469 1.429 . S
C2466 C2449 1.574 . S
C2466 H2460 0.949 . S
C2466 C2470 1.368 . S
C2467 C2448 1.429 . S
C2467 C2461 1.429 . S
C2467 C2468 1.523 . S
C2468 C2449 1.368 . S
C2468 C2462 1.368 . S
C2468 C2467 1.523 . S
C2469 C2453 1.429 . S
C2469 C2465 1.429 . S
C2469 C2470 1.523 . S
C2470 C2454 1.368 . S
C2470 C2466 1.368 . S
C2470 C2469 1.523 . S
H2471 C2446 0.950 . S
H2472 C2448 0.950 . S
H2473 C2449 0.949 . S
H2474 C2451 0.950 . S
H2475 C2453 0.950 . S
C2476 C2477 1.349 . S
C2476 C2478 1.327 . S
C2476 H2501 0.950 . S
C2477 C2476 1.349 . S
C2477 C2493 1.349 . S
C2478 C2476 1.327 . S
C2478 C2497 1.429 . S
C2478 H2502 0.950 . S
C2479 C2496 1.574 . S
C2479 C2498 1.368 . S
C2479 H2503 0.949 . S
H2480 C2484 0.949 . S
C2481 C2482 1.349 . S
C2481 C2483 1.327 . S
C2481 H2504 0.950 . S
C2482 C2481 1.349 . S
C2482 C2494 1.349 . S
C2483 C2481 1.327 . S
C2483 C2499 1.429 . S
C2483 H2505 0.950 . S
C2484 H2480 0.949 . S
C2484 C2492 1.574 . S
C2484 C2500 1.368 . S
H2485 C2493 0.950 . S
H2486 C2491 0.950 . S
H2487 C2492 0.949 . S
H2488 C2494 0.950 . S
H2489 C2495 0.950 . S
H2490 C2496 0.949 . S
C2491 H2486 0.950 . S
C2491 C2493 1.327 . S
C2491 C2497 1.429 . S
C2492 C2484 1.574 . S
C2492 H2487 0.949 . S
C2492 C2498 1.368 . S
C2493 C2477 1.349 . S
C2493 H2485 0.950 . S
C2493 C2491 1.327 . S
C2494 C2482 1.349 . S
C2494 H2488 0.950 . S
C2494 C2495 1.327 . S
C2495 H2489 0.950 . S
C2495 C2494 1.327 . S
C2495 C2499 1.429 . S
C2496 C2479 1.574 . S
C2496 H2490 0.949 . S
C2496 C2500 1.368 . S
C2497 C2478 1.429 . S
C2497 C2491 1.429 . S
C2497 C2498 1.523 . S
C2498 C2479 1.368 . S
C2498 C2492 1.368 . S
C2498 C2497 1.523 . S
C2499 C2483 1.429 . S
C2499 C2495 1.429 . S
C2499 C2500 1.523 . S
C2500 C2484 1.368 . S
C2500 C2496 1.368 . S
C2500 C2499 1.523 . S
H2501 C2476 0.950 . S
H2502 C2478 0.950 . S
H2503 C2479 0.949 . S
H2504 C2481 0.950 . S
H2505 C2483 0.950 . S
C2506 C2507 1.349 . S
C2506 C2508 1.327 . S
C2506 H2531 0.950 . S
C2507 C2506 1.349 . S
C2507 C2523 1.349 . S
C2508 C2506 1.327 . S
C2508 C2527 1.429 . S
C2508 H2532 0.950 . S
C2509 C2526 1.574 . S
C2509 C2528 1.368 . S
C2509 H2533 0.949 . S
H2510 C2514 0.949 . S
C2511 C2512 1.349 . S
C2511 C2513 1.327 . S
C2511 H2534 0.950 . S
C2512 C2511 1.349 . S
C2512 C2524 1.349 . S
C2513 C2511 1.327 . S
C2513 C2529 1.429 . S
C2513 H2535 0.950 . S
C2514 H2510 0.949 . S
C2514 C2522 1.574 . S
C2514 C2530 1.368 . S
H2515 C2523 0.950 . S
H2516 C2521 0.950 . S
H2517 C2522 0.949 . S
H2518 C2524 0.950 . S
H2519 C2525 0.950 . S
H2520 C2526 0.949 . S
C2521 H2516 0.950 . S
C2521 C2523 1.327 . S
C2521 C2527 1.429 . S
C2522 C2514 1.574 . S
C2522 H2517 0.949 . S
C2522 C2528 1.368 . S
C2523 C2507 1.349 . S
C2523 H2515 0.950 . S
C2523 C2521 1.327 . S
C2524 C2512 1.349 . S
C2524 H2518 0.950 . S
C2524 C2525 1.327 . S
C2525 H2519 0.950 . S
C2525 C2524 1.327 . S
C2525 C2529 1.429 . S
C2526 C2509 1.574 . S
C2526 H2520 0.949 . S
C2526 C2530 1.368 . S
C2527 C2508 1.429 . S
C2527 C2521 1.429 . S
C2527 C2528 1.523 . S
C2528 C2509 1.368 . S
C2528 C2522 1.368 . S
C2528 C2527 1.523 . S
C2529 C2513 1.429 . S
C2529 C2525 1.429 . S
C2529 C2530 1.523 . S
C2530 C2514 1.368 . S
C2530 C2526 1.368 . S
C2530 C2529 1.523 . S
H2531 C2506 0.950 . S
H2532 C2508 0.950 . S
H2533 C2509 0.949 . S
H2534 C2511 0.950 . S
H2535 C2513 0.950 . S
C2536 C2537 1.349 . S
C2536 C2538 1.327 . S
C2536 H2561 0.950 . S
C2537 C2536 1.349 . S
C2537 C2553 1.349 . S
C2538 C2536 1.327 . S
C2538 C2557 1.429 . S
C2538 H2562 0.950 . S
C2539 C2556 1.574 . S
C2539 C2558 1.368 . S
C2539 H2563 0.949 . S
H2540 C2544 0.949 . S
C2541 C2542 1.349 . S
C2541 C2543 1.327 . S
C2541 H2564 0.950 . S
C2542 C2541 1.349 . S
C2542 C2554 1.349 . S
C2543 C2541 1.327 . S
C2543 C2559 1.429 . S
C2543 H2565 0.950 . S
C2544 H2540 0.949 . S
C2544 C2552 1.574 . S
C2544 C2560 1.368 . S
H2545 C2553 0.950 . S
H2546 C2551 0.950 . S
H2547 C2552 0.949 . S
H2548 C2554 0.950 . S
H2549 C2555 0.950 . S
H2550 C2556 0.949 . S
C2551 H2546 0.950 . S
C2551 C2553 1.327 . S
C2551 C2557 1.429 . S
C2552 C2544 1.574 . S
C2552 H2547 0.949 . S
C2552 C2558 1.368 . S
C2553 C2537 1.349 . S
C2553 H2545 0.950 . S
C2553 C2551 1.327 . S
C2554 C2542 1.349 . S
C2554 H2548 0.950 . S
C2554 C2555 1.327 . S
C2555 H2549 0.950 . S
C2555 C2554 1.327 . S
C2555 C2559 1.429 . S
C2556 C2539 1.574 . S
C2556 H2550 0.949 . S
C2556 C2560 1.368 . S
C2557 C2538 1.429 . S
C2557 C2551 1.429 . S
C2557 C2558 1.523 . S
C2558 C2539 1.368 . S
C2558 C2552 1.368 . S
C2558 C2557 1.523 . S
C2559 C2543 1.429 . S
C2559 C2555 1.429 . S
C2559 C2560 1.523 . S
C2560 C2544 1.368 . S
C2560 C2556 1.368 . S
C2560 C2559 1.523 . S
H2561 C2536 0.950 . S
H2562 C2538 0.950 . S
H2563 C2539 0.949 . S
H2564 C2541 0.950 . S
H2565 C2543 0.950 . S
C2566 C2567 1.349 . S
C2566 C2568 1.327 . S
C2566 H2591 0.950 . S
C2567 C2566 1.349 . S
C2567 C2583 1.349 . S
C2568 C2566 1.327 . S
C2568 C2587 1.429 . S
C2568 H2592 0.950 . S
C2569 C2586 1.574 . S
C2569 C2588 1.368 . S
C2569 H2593 0.949 . S
H2570 C2574 0.949 . S
C2571 C2572 1.349 . S
C2571 C2573 1.327 . S
C2571 H2594 0.950 . S
C2572 C2571 1.349 . S
C2572 C2584 1.349 . S
C2573 C2571 1.327 . S
C2573 C2589 1.429 . S
C2573 H2595 0.950 . S
C2574 H2570 0.949 . S
C2574 C2582 1.574 . S
C2574 C2590 1.368 . S
H2575 C2583 0.950 . S
H2576 C2581 0.950 . S
H2577 C2582 0.949 . S
H2578 C2584 0.950 . S
H2579 C2585 0.950 . S
H2580 C2586 0.949 . S
C2581 H2576 0.950 . S
C2581 C2583 1.327 . S
C2581 C2587 1.429 . S
C2582 C2574 1.574 . S
C2582 H2577 0.949 . S
C2582 C2588 1.368 . S
C2583 C2567 1.349 . S
C2583 H2575 0.950 . S
C2583 C2581 1.327 . S
C2584 C2572 1.349 . S
C2584 H2578 0.950 . S
C2584 C2585 1.327 . S
C2585 H2579 0.950 . S
C2585 C2584 1.327 . S
C2585 C2589 1.429 . S
C2586 C2569 1.574 . S
C2586 H2580 0.949 . S
C2586 C2590 1.368 . S
C2587 C2568 1.429 . S
C2587 C2581 1.429 . S
C2587 C2588 1.523 . S
C2588 C2569 1.368 . S
C2588 C2582 1.368 . S
C2588 C2587 1.523 . S
C2589 C2573 1.429 . S
C2589 C2585 1.429 . S
C2589 C2590 1.523 . S
C2590 C2574 1.368 . S
C2590 C2586 1.368 . S
C2590 C2589 1.523 . S
H2591 C2566 0.950 . S
H2592 C2568 0.950 . S
H2593 C2569 0.949 . S
H2594 C2571 0.950 . S
H2595 C2573 0.950 . S
C2596 C2597 1.349 . S
C2596 C2598 1.327 . S
C2596 H2621 0.950 . S
C2597 C2596 1.349 . S
C2597 C2613 1.349 . S
C2598 C2596 1.327 . S
C2598 C2617 1.429 . S
C2598 H2622 0.950 . S
C2599 C2616 1.574 . S
C2599 C2618 1.368 . S
C2599 H2623 0.949 . S
H2600 C2604 0.949 . S
C2601 C2602 1.349 . S
C2601 C2603 1.327 . S
C2601 H2624 0.950 . S
C2602 C2601 1.349 . S
C2602 C2614 1.349 . S
C2603 C2601 1.327 . S
C2603 C2619 1.429 . S
C2603 H2625 0.950 . S
C2604 H2600 0.949 . S
C2604 C2612 1.574 . S
C2604 C2620 1.368 . S
H2605 C2613 0.950 . S
H2606 C2611 0.950 . S
H2607 C2612 0.949 . S
H2608 C2614 0.950 . S
H2609 C2615 0.950 . S
H2610 C2616 0.949 . S
C2611 H2606 0.950 . S
C2611 C2613 1.327 . S
C2611 C2617 1.429 . S
C2612 C2604 1.574 . S
C2612 H2607 0.949 . S
C2612 C2618 1.368 . S
C2613 C2597 1.349 . S
C2613 H2605 0.950 . S
C2613 C2611 1.327 . S
C2614 C2602 1.349 . S
C2614 H2608 0.950 . S
C2614 C2615 1.327 . S
C2615 H2609 0.950 . S
C2615 C2614 1.327 . S
C2615 C2619 1.429 . S
C2616 C2599 1.574 . S
C2616 H2610 0.949 . S
C2616 C2620 1.368 . S
C2617 C2598 1.429 . S
C2617 C2611 1.429 . S
C2617 C2618 1.523 . S
C2618 C2599 1.368 . S
C2618 C2612 1.368 . S
C2618 C2617 1.523 . S
C2619 C2603 1.429 . S
C2619 C2615 1.429 . S
C2619 C2620 1.523 . S
C2620 C2604 1.368 . S
C2620 C2616 1.368 . S
C2620 C2619 1.523 . S
H2621 C2596 0.950 . S
H2622 C2598 0.950 . S
H2623 C2599 0.949 . S
H2624 C2601 0.950 . S
H2625 C2603 0.950 . S
C2626 C2627 1.349 . S
C2626 C2628 1.327 . S
C2626 H2651 0.950 . S
C2627 C2626 1.349 . S
C2627 C2643 1.349 . S
C2628 C2626 1.327 . S
C2628 C2647 1.429 . S
C2628 H2652 0.950 . S
C2629 C2646 1.574 . S
C2629 C2648 1.368 . S
C2629 H2653 0.949 . S
H2630 C2634 0.949 . S
C2631 C2632 1.349 . S
C2631 C2633 1.327 . S
C2631 H2654 0.950 . S
C2632 C2631 1.349 . S
C2632 C2644 1.349 . S
C2633 C2631 1.327 . S
C2633 C2649 1.429 . S
C2633 H2655 0.950 . S
C2634 H2630 0.949 . S
C2634 C2642 1.574 . S
C2634 C2650 1.368 . S
H2635 C2643 0.950 . S
H2636 C2641 0.950 . S
H2637 C2642 0.949 . S
H2638 C2644 0.950 . S
H2639 C2645 0.950 . S
H2640 C2646 0.949 . S
C2641 H2636 0.950 . S
C2641 C2643 1.327 . S
C2641 C2647 1.429 . S
C2642 C2634 1.574 . S
C2642 H2637 0.949 . S
C2642 C2648 1.368 . S
C2643 C2627 1.349 . S
C2643 H2635 0.950 . S
C2643 C2641 1.327 . S
C2644 C2632 1.349 . S
C2644 H2638 0.950 . S
C2644 C2645 1.327 . S
C2645 H2639 0.950 . S
C2645 C2644 1.327 . S
C2645 C2649 1.429 . S
C2646 C2629 1.574 . S
C2646 H2640 0.949 . S
C2646 C2650 1.368 . S
C2647 C2628 1.429 . S
C2647 C2641 1.429 . S
C2647 C2648 1.523 . S
C2648 C2629 1.368 . S
C2648 C2642 1.368 . S
C2648 C2647 1.523 . S
C2649 C2633 1.429 . S
C2649 C2645 1.429 . S
C2649 C2650 1.523 . S
C2650 C2634 1.368 . S
C2650 C2646 1.368 . S
C2650 C2649 1.523 . S
H2651 C2626 0.950 . S
H2652 C2628 0.950 . S
H2653 C2629 0.949 . S
H2654 C2631 0.950 . S
H2655 C2633 0.950 . S
C2656 C2657 1.349 . S
C2656 C2658 1.327 . S
C2656 H2681 0.950 . S
C2657 C2656 1.349 . S
C2657 C2673 1.349 . S
C2658 C2656 1.327 . S
C2658 C2677 1.429 . S
C2658 H2682 0.950 . S
C2659 C2676 1.574 . S
C2659 C2678 1.368 . S
C2659 H2683 0.949 . S
H2660 C2664 0.949 . S
C2661 C2662 1.349 . S
C2661 C2663 1.327 . S
C2661 H2684 0.950 . S
C2662 C2661 1.349 . S
C2662 C2674 1.349 . S
C2663 C2661 1.327 . S
C2663 C2679 1.429 . S
C2663 H2685 0.950 . S
C2664 H2660 0.949 . S
C2664 C2672 1.574 . S
C2664 C2680 1.368 . S
H2665 C2673 0.950 . S
H2666 C2671 0.950 . S
H2667 C2672 0.949 . S
H2668 C2674 0.950 . S
H2669 C2675 0.950 . S
H2670 C2676 0.949 . S
C2671 H2666 0.950 . S
C2671 C2673 1.327 . S
C2671 C2677 1.429 . S
C2672 C2664 1.574 . S
C2672 H2667 0.949 . S
C2672 C2678 1.368 . S
C2673 C2657 1.349 . S
C2673 H2665 0.950 . S
C2673 C2671 1.327 . S
C2674 C2662 1.349 . S
C2674 H2668 0.950 . S
C2674 C2675 1.327 . S
C2675 H2669 0.950 . S
C2675 C2674 1.327 . S
C2675 C2679 1.429 . S
C2676 C2659 1.574 . S
C2676 H2670 0.949 . S
C2676 C2680 1.368 . S
C2677 C2658 1.429 . S
C2677 C2671 1.429 . S
C2677 C2678 1.523 . S
C2678 C2659 1.368 . S
C2678 C2672 1.368 . S
C2678 C2677 1.523 . S
C2679 C2663 1.429 . S
C2679 C2675 1.429 . S
C2679 C2680 1.523 . S
C2680 C2664 1.368 . S
C2680 C2676 1.368 . S
C2680 C2679 1.523 . S
H2681 C2656 0.950 . S
H2682 C2658 0.950 . S
H2683 C2659 0.949 . S
H2684 C2661 0.950 . S
H2685 C2663 0.950 . S
C2686 C2687 1.349 . S
C2686 C2688 1.327 . S
C2686 H2711 0.950 . S
C2687 C2686 1.349 . S
C2687 C2703 1.349 . S
C2688 C2686 1.327 . S
C2688 C2707 1.429 . S
C2688 H2712 0.950 . S
C2689 C2706 1.574 . S
C2689 C2708 1.368 . S
C2689 H2713 0.949 . S
H2690 C2694 0.949 . S
C2691 C2692 1.349 . S
C2691 C2693 1.327 . S
C2691 H2714 0.950 . S
C2692 C2691 1.349 . S
C2692 C2704 1.349 . S
C2693 C2691 1.327 . S
C2693 C2709 1.429 . S
C2693 H2715 0.950 . S
C2694 H2690 0.949 . S
C2694 C2702 1.574 . S
C2694 C2710 1.368 . S
H2695 C2703 0.950 . S
H2696 C2701 0.950 . S
H2697 C2702 0.949 . S
H2698 C2704 0.950 . S
H2699 C2705 0.950 . S
H2700 C2706 0.949 . S
C2701 H2696 0.950 . S
C2701 C2703 1.327 . S
C2701 C2707 1.429 . S
C2702 C2694 1.574 . S
C2702 H2697 0.949 . S
C2702 C2708 1.368 . S
C2703 C2687 1.349 . S
C2703 H2695 0.950 . S
C2703 C2701 1.327 . S
C2704 C2692 1.349 . S
C2704 H2698 0.950 . S
C2704 C2705 1.327 . S
C2705 H2699 0.950 . S
C2705 C2704 1.327 . S
C2705 C2709 1.429 . S
C2706 C2689 1.574 . S
C2706 H2700 0.949 . S
C2706 C2710 1.368 . S
C2707 C2688 1.429 . S
C2707 C2701 1.429 . S
C2707 C2708 1.523 . S
C2708 C2689 1.368 . S
C2708 C2702 1.368 . S
C2708 C2707 1.523 . S
C2709 C2693 1.429 . S
C2709 C2705 1.429 . S
C2709 C2710 1.523 . S
C2710 C2694 1.368 . S
C2710 C2706 1.368 . S
C2710 C2709 1.523 . S
H2711 C2686 0.950 . S
H2712 C2688 0.950 . S
H2713 C2689 0.949 . S
H2714 C2691 0.950 . S
H2715 C2693 0.950 . S
C2716 C2717 1.349 . S
C2716 C2718 1.327 . S
C2716 H2741 0.950 . S
C2717 C2716 1.349 . S
C2717 C2733 1.349 . S
C2718 C2716 1.327 . S
C2718 C2737 1.429 . S
C2718 H2742 0.950 . S
C2719 C2736 1.574 . S
C2719 C2738 1.368 . S
C2719 H2743 0.949 . S
H2720 C2724 0.949 . S
C2721 C2722 1.349 . S
C2721 C2723 1.327 . S
C2721 H2744 0.950 . S
C2722 C2721 1.349 . S
C2722 C2734 1.349 . S
C2723 C2721 1.327 . S
C2723 C2739 1.429 . S
C2723 H2745 0.950 . S
C2724 H2720 0.949 . S
C2724 C2732 1.574 . S
C2724 C2740 1.368 . S
H2725 C2733 0.950 . S
H2726 C2731 0.950 . S
H2727 C2732 0.949 . S
H2728 C2734 0.950 . S
H2729 C2735 0.950 . S
H2730 C2736 0.949 . S
C2731 H2726 0.950 . S
C2731 C2733 1.327 . S
C2731 C2737 1.429 . S
C2732 C2724 1.574 . S
C2732 H2727 0.949 . S
C2732 C2738 1.368 . S
C2733 C2717 1.349 . S
C2733 H2725 0.950 . S
C2733 C2731 1.327 . S
C2734 C2722 1.349 . S
C2734 H2728 0.950 . S
C2734 C2735 1.327 . S
C2735 H2729 0.950 . S
C2735 C2734 1.327 . S
C2735 C2739 1.429 . S
C2736 C2719 1.574 . S
C2736 H2730 0.949 . S
C2736 C2740 1.368 . S
C2737 C2718 1.429 . S
C2737 C2731 1.429 . S
C2737 C2738 1.523 . S
C2738 C2719 1.368 . S
C2738 C2732 1.368 . S
C2738 C2737 1.523 . S
C2739 C2723 1.429 . S
C2739 C2735 1.429 . S
C2739 C2740 1.523 . S
C2740 C2724 1.368 . S
C2740 C2736 1.368 . S
C2740 C2739 1.523 . S
H2741 C2716 0.950 . S
H2742 C2718 0.950 . S
H2743 C2719 0.949 . S
H2744 C2721 0.950 . S
H2745 C2723 0.950 . S
C2746 C2747 1.349 . S
C2746 C2748 1.327 . S
C2746 H2771 0.950 . S
C2747 C2746 1.349 . S
C2747 C2763 1.349 . S
C2748 C2746 1.327 . S
C2748 C2767 1.429 . S
C2748 H2772 0.950 . S
C2749 C2766 1.574 . S
C2749 C2768 1.368 . S
C2749 H2773 0.949 . S
H2750 C2754 0.949 . S
C2751 C2752 1.349 . S
C2751 C2753 1.327 . S
C2751 H2774 0.950 . S
C2752 C2751 1.349 . S
C2752 C2764 1.349 . S
C2753 C2751 1.327 . S
C2753 C2769 1.429 . S
C2753 H2775 0.950 . S
C2754 H2750 0.949 . S
C2754 C2762 1.574 . S
C2754 C2770 1.368 . S
H2755 C2763 0.950 . S
H2756 C2761 0.950 . S
H2757 C2762 0.949 . S
H2758 C2764 0.950 . S
H2759 C2765 0.950 . S
H2760 C2766 0.949 . S
C2761 H2756 0.950 . S
C2761 C2763 1.327 . S
C2761 C2767 1.429 . S
C2762 C2754 1.574 . S
C2762 H2757 0.949 . S
C2762 C2768 1.368 . S
C2763 C2747 1.349 . S
C2763 H2755 0.950 . S
C2763 C2761 1.327 . S
C2764 C2752 1.349 . S
C2764 H2758 0.950 . S
C2764 C2765 1.327 . S
C2765 H2759 0.950 . S
C2765 C2764 1.327 . S
C2765 C2769 1.429 . S
C2766 C2749 1.574 . S
C2766 H2760 0.949 . S
C2766 C2770 1.368 . S
C2767 C2748 1.429 . S
C2767 C2761 1.429 . S
C2767 C2768 1.523 . S
C2768 C2749 1.368 . S
C2768 C2762 1.368 . S
C2768 C2767 1.523 . S
C2769 C2753 1.429 . S
C2769 C2765 1.429 . S
C2769 C2770 1.523 . S
C2770 C2754 1.368 . S
C2770 C2766 1.368 . S
C2770 C2769 1.523 . S
H2771 C2746 0.950 . S
H2772 C2748 0.950 . S
H2773 C2749 0.949 . S
H2774 C2751 0.950 . S
H2775 C2753 0.950 . S
C2776 C2777 1.349 . S
C2776 C2778 1.327 . S
C2776 H2801 0.950 . S
C2777 C2776 1.349 . S
C2777 C2793 1.349 . S
C2778 C2776 1.327 . S
C2778 C2797 1.429 . S
C2778 H2802 0.950 . S
C2779 C2796 1.574 . S
C2779 C2798 1.368 . S
C2779 H2803 0.949 . S
H2780 C2784 0.949 . S
C2781 C2782 1.349 . S
C2781 C2783 1.327 . S
C2781 H2804 0.950 . S
C2782 C2781 1.349 . S
C2782 C2794 1.349 . S
C2783 C2781 1.327 . S
C2783 C2799 1.429 . S
C2783 H2805 0.950 . S
C2784 H2780 0.949 . S
C2784 C2792 1.574 . S
C2784 C2800 1.368 . S
H2785 C2793 0.950 . S
H2786 C2791 0.950 . S
H2787 C2792 0.949 . S
H2788 C2794 0.950 . S
H2789 C2795 0.950 . S
H2790 C2796 0.949 . S
C2791 H2786 0.950 . S
C2791 C2793 1.327 . S
C2791 C2797 1.429 . S
C2792 C2784 1.574 . S
C2792 H2787 0.949 . S
C2792 C2798 1.368 . S
C2793 C2777 1.349 . S
C2793 H2785 0.950 . S
C2793 C2791 1.327 . S
C2794 C2782 1.349 . S
C2794 H2788 0.950 . S
C2794 C2795 1.327 . S
C2795 H2789 0.950 . S
C2795 C2794 1.327 . S
C2795 C2799 1.429 . S
C2796 C2779 1.574 . S
C2796 H2790 0.949 . S
C2796 C2800 1.368 . S
C2797 C2778 1.429 . S
C2797 C2791 1.429 . S
C2797 C2798 1.523 . S
C2798 C2779 1.368 . S
C2798 C2792 1.368 . S
C2798 C2797 1.523 . S
C2799 C2783 1.429 . S
C2799 C2795 1.429 . S
C2799 C2800 1.523 . S
C2800 C2784 1.368 . S
C2800 C2796 1.368 . S
C2800 C2799 1.523 . S
H2801 C2776 0.950 . S
H2802 C2778 0.950 . S
H2803 C2779 0.949 . S
H2804 C2781 0.950 . S
H2805 C2783 0.950 . S
C2806 C2807 1.349 . S
C2806 C2808 1.327 . S
C2806 H2831 0.950 . S
C2807 C2806 1.349 . S
C2807 C2823 1.349 . S
C2808 C2806 1.327 . S
C2808 C2827 1.429 . S
C2808 H2832 0.950 . S
C2809 C2826 1.574 . S
C2809 C2828 1.368 . S
C2809 H2833 0.949 . S
H2810 C2814 0.949 . S
C2811 C2812 1.349 . S
C2811 C2813 1.327 . S
C2811 H2834 0.950 . S
C2812 C2811 1.349 . S
C2812 C2824 1.349 . S
C2813 C2811 1.327 . S
C2813 C2829 1.429 . S
C2813 H2835 0.950 . S
C2814 H2810 0.949 . S
C2814 C2822 1.574 . S
C2814 C2830 1.368 . S
H2815 C2823 0.950 . S
H2816 C2821 0.950 . S
H2817 C2822 0.949 . S
H2818 C2824 0.950 . S
H2819 C2825 0.950 . S
H2820 C2826 0.949 . S
C2821 H2816 0.950 . S
C2821 C2823 1.327 . S
C2821 C2827 1.429 . S
C2822 C2814 1.574 . S
C2822 H2817 0.949 . S
C2822 C2828 1.368 . S
C2823 C2807 1.349 . S
C2823 H2815 0.950 . S
C2823 C2821 1.327 . S
C2824 C2812 1.349 . S
C2824 H2818 0.950 . S
C2824 C2825 1.327 . S
C2825 H2819 0.950 . S
C2825 C2824 1.327 . S
C2825 C2829 1.429 . S
C2826 C2809 1.574 . S
C2826 H2820 0.949 . S
C2826 C2830 1.368 . S
C2827 C2808 1.429 . S
C2827 C2821 1.429 . S
C2827 C2828 1.523 . S
C2828 C2809 1.368 . S
C2828 C2822 1.368 . S
C2828 C2827 1.523 . S
C2829 C2813 1.429 . S
C2829 C2825 1.429 . S
C2829 C2830 1.523 . S
C2830 C2814 1.368 . S
C2830 C2826 1.368 . S
C2830 C2829 1.523 . S
H2831 C2806 0.950 . S
H2832 C2808 0.950 . S
H2833 C2809 0.949 . S
H2834 C2811 0.950 . S
H2835 C2813 0.950 . S
C2836 C2837 1.349 . S
C2836 C2838 1.327 . S
C2836 H2861 0.950 . S
C2837 C2836 1.349 . S
C2837 C2853 1.349 . S
C2838 C2836 1.327 . S
C2838 C2857 1.429 . S
C2838 H2862 0.950 . S
C2839 C2856 1.574 . S
C2839 C2858 1.368 . S
C2839 H2863 0.949 . S
H2840 C2844 0.949 . S
C2841 C2842 1.349 . S
C2841 C2843 1.327 . S
C2841 H2864 0.950 . S
C2842 C2841 1.349 . S
C2842 C2854 1.349 . S
C2843 C2841 1.327 . S
C2843 C2859 1.429 . S
C2843 H2865 0.950 . S
C2844 H2840 0.949 . S
C2844 C2852 1.574 . S
C2844 C2860 1.368 . S
H2845 C2853 0.950 . S
H2846 C2851 0.950 . S
H2847 C2852 0.949 . S
H2848 C2854 0.950 . S
H2849 C2855 0.950 . S
H2850 C2856 0.949 . S
C2851 H2846 0.950 . S
C2851 C2853 1.327 . S
C2851 C2857 1.429 . S
C2852 C2844 1.574 . S
C2852 H2847 0.949 . S
C2852 C2858 1.368 . S
C2853 C2837 1.349 . S
C2853 H2845 0.950 . S
C2853 C2851 1.327 . S
C2854 C2842 1.349 . S
C2854 H2848 0.950 . S
C2854 C2855 1.327 . S
C2855 H2849 0.950 . S
C2855 C2854 1.327 . S
C2855 C2859 1.429 . S
C2856 C2839 1.574 . S
C2856 H2850 0.949 . S
C2856 C2860 1.368 . S
C2857 C2838 1.429 . S
C2857 C2851 1.429 . S
C2857 C2858 1.523 . S
C2858 C2839 1.368 . S
C2858 C2852 1.368 . S
C2858 C2857 1.523 . S
C2859 C2843 1.429 . S
C2859 C2855 1.429 . S
C2859 C2860 1.523 . S
C2860 C2844 1.368 . S
C2860 C2856 1.368 . S
C2860 C2859 1.523 . S
H2861 C2836 0.950 . S
H2862 C2838 0.950 . S
H2863 C2839 0.949 . S
H2864 C2841 0.950 . S
H2865 C2843 0.950 . S
C2866 C2867 1.349 . S
C2866 C2868 1.327 . S
C2866 H2891 0.950 . S
C2867 C2866 1.349 . S
C2867 C2883 1.349 . S
C2868 C2866 1.327 . S
C2868 C2887 1.429 . S
C2868 H2892 0.950 . S
C2869 C2886 1.574 . S
C2869 C2888 1.368 . S
C2869 H2893 0.949 . S
H2870 C2874 0.949 . S
C2871 C2872 1.349 . S
C2871 C2873 1.327 . S
C2871 H2894 0.950 . S
C2872 C2871 1.349 . S
C2872 C2884 1.349 . S
C2873 C2871 1.327 . S
C2873 C2889 1.429 . S
C2873 H2895 0.950 . S
C2874 H2870 0.949 . S
C2874 C2882 1.574 . S
C2874 C2890 1.368 . S
H2875 C2883 0.950 . S
H2876 C2881 0.950 . S
H2877 C2882 0.949 . S
H2878 C2884 0.950 . S
H2879 C2885 0.950 . S
H2880 C2886 0.949 . S
C2881 H2876 0.950 . S
C2881 C2883 1.327 . S
C2881 C2887 1.429 . S
C2882 C2874 1.574 . S
C2882 H2877 0.949 . S
C2882 C2888 1.368 . S
C2883 C2867 1.349 . S
C2883 H2875 0.950 . S
C2883 C2881 1.327 . S
C2884 C2872 1.349 . S
C2884 H2878 0.950 . S
C2884 C2885 1.327 . S
C2885 H2879 0.950 . S
C2885 C2884 1.327 . S
C2885 C2889 1.429 . S
C2886 C2869 1.574 . S
C2886 H2880 0.949 . S
C2886 C2890 1.368 . S
C2887 C2868 1.429 . S
C2887 C2881 1.429 . S
C2887 C2888 1.523 . S
C2888 C2869 1.368 . S
C2888 C2882 1.368 . S
C2888 C2887 1.523 . S
C2889 C2873 1.429 . S
C2889 C2885 1.429 . S
C2889 C2890 1.523 . S
C2890 C2874 1.368 . S
C2890 C2886 1.368 . S
C2890 C2889 1.523 . S
H2891 C2866 0.950 . S
H2892 C2868 0.950 . S
H2893 C2869 0.949 . S
H2894 C2871 0.950 . S
H2895 C2873 0.950 . S
C2896 C2897 1.349 . S
C2896 C2898 1.327 . S
C2896 H2921 0.950 . S
C2897 C2896 1.349 . S
C2897 C2913 1.349 . S
C2898 C2896 1.327 . S
C2898 C2917 1.429 . S
C2898 H2922 0.950 . S
C2899 C2916 1.574 . S
C2899 C2918 1.368 . S
C2899 H2923 0.949 . S
H2900 C2904 0.949 . S
C2901 C2902 1.349 . S
C2901 C2903 1.327 . S
C2901 H2924 0.950 . S
C2902 C2901 1.349 . S
C2902 C2914 1.349 . S
C2903 C2901 1.327 . S
C2903 C2919 1.429 . S
C2903 H2925 0.950 . S
C2904 H2900 0.949 . S
C2904 C2912 1.574 . S
C2904 C2920 1.368 . S
H2905 C2913 0.950 . S
H2906 C2911 0.950 . S
H2907 C2912 0.949 . S
H2908 C2914 0.950 . S
H2909 C2915 0.950 . S
H2910 C2916 0.949 . S
C2911 H2906 0.950 . S
C2911 C2913 1.327 . S
C2911 C2917 1.429 . S
C2912 C2904 1.574 . S
C2912 H2907 0.949 . S
C2912 C2918 1.368 . S
C2913 C2897 1.349 . S
C2913 H2905 0.950 . S
C2913 C2911 1.327 . S
C2914 C2902 1.349 . S
C2914 H2908 0.950 . S
C2914 C2915 1.327 . S
C2915 H2909 0.950 . S
C2915 C2914 1.327 . S
C2915 C2919 1.429 . S
C2916 C2899 1.574 . S
C2916 H2910 0.949 . S
C2916 C2920 1.368 . S
C2917 C2898 1.429 . S
C2917 C2911 1.429 . S
C2917 C2918 1.523 . S
C2918 C2899 1.368 . S
C2918 C2912 1.368 . S
C2918 C2917 1.523 . S
C2919 C2903 1.429 . S
C2919 C2915 1.429 . S
C2919 C2920 1.523 . S
C2920 C2904 1.368 . S
C2920 C2916 1.368 . S
C2920 C2919 1.523 . S
H2921 C2896 0.950 . S
H2922 C2898 0.950 . S
H2923 C2899 0.949 . S
H2924 C2901 0.950 . S
H2925 C2903 0.950 . S
C2926 C2927 1.349 . S
C2926 C2928 1.327 . S
C2926 H2951 0.950 . S
C2927 C2926 1.349 . S
C2927 C2943 1.349 . S
C2928 C2926 1.327 . S
C2928 C2947 1.429 . S
C2928 H2952 0.950 . S
C2929 C2946 1.574 . S
C2929 C2948 1.368 . S
C2929 H2953 0.949 . S
H2930 C2934 0.949 . S
C2931 C2932 1.349 . S
C2931 C2933 1.327 . S
C2931 H2954 0.950 . S
C2932 C2931 1.349 . S
C2932 C2944 1.349 . S
C2933 C2931 1.327 . S
C2933 C2949 1.429 . S
C2933 H2955 0.950 . S
C2934 H2930 0.949 . S
C2934 C2942 1.574 . S
C2934 C2950 1.368 . S
H2935 C2943 0.950 . S
H2936 C2941 0.950 . S
H2937 C2942 0.949 . S
H2938 C2944 0.950 . S
H2939 C2945 0.950 . S
H2940 C2946 0.949 . S
C2941 H2936 0.950 . S
C2941 C2943 1.327 . S
C2941 C2947 1.429 . S
C2942 C2934 1.574 . S
C2942 H2937 0.949 . S
C2942 C2948 1.368 . S
C2943 C2927 1.349 . S
C2943 H2935 0.950 . S
C2943 C2941 1.327 . S
C2944 C2932 1.349 . S
C2944 H2938 0.950 . S
C2944 C2945 1.327 . S
C2945 H2939 0.950 . S
C2945 C2944 1.327 . S
C2945 C2949 1.429 . S
C2946 C2929 1.574 . S
C2946 H2940 0.949 . S
C2946 C2950 1.368 . S
C2947 C2928 1.429 . S
C2947 C2941 1.429 . S
C2947 C2948 1.523 . S
C2948 C2929 1.368 . S
C2948 C2942 1.368 . S
C2948 C2947 1.523 . S
C2949 C2933 1.429 . S
C2949 C2945 1.429 . S
C2949 C2950 1.523 . S
C2950 C2934 1.368 . S
C2950 C2946 1.368 . S
C2950 C2949 1.523 . S
H2951 C2926 0.950 . S
H2952 C2928 0.950 . S
H2953 C2929 0.949 . S
H2954 C2931 0.950 . S
H2955 C2933 0.950 . S
C2956 C2957 1.349 . S
C2956 C2958 1.327 . S
C2956 H2981 0.950 . S
C2957 C2956 1.349 . S
C2957 C2973 1.349 . S
C2958 C2956 1.327 . S
C2958 C2977 1.429 . S
C2958 H2982 0.950 . S
C2959 C2976 1.574 . S
C2959 C2978 1.368 . S
C2959 H2983 0.949 . S
H2960 C2964 0.949 . S
C2961 C2962 1.349 . S
C2961 C2963 1.327 . S
C2961 H2984 0.950 . S
C2962 C2961 1.349 . S
C2962 C2974 1.349 . S
C2963 C2961 1.327 . S
C2963 C2979 1.429 . S
C2963 H2985 0.950 . S
C2964 H2960 0.949 . S
C2964 C2972 1.574 . S
C2964 C2980 1.368 . S
H2965 C2973 0.950 . S
H2966 C2971 0.950 . S
H2967 C2972 0.949 . S
H2968 C2974 0.950 . S
H2969 C2975 0.950 . S
H2970 C2976 0.949 . S
C2971 H2966 0.950 . S
C2971 C2973 1.327 . S
C2971 C2977 1.429 . S
C2972 C2964 1.574 . S
C2972 H2967 0.949 . S
C2972 C2978 1.368 . S
C2973 C2957 1.349 . S
C2973 H2965 0.950 . S
C2973 C2971 1.327 . S
C2974 C2962 1.349 . S
C2974 H2968 0.950 . S
C2974 C2975 1.327 . S
C2975 H2969 0.950 . S
C2975 C2974 1.327 . S
C2975 C2979 1.429 . S
C2976 C2959 1.574 . S
C2976 H2970 0.949 . S
C2976 C2980 1.368 . S
C2977 C2958 1.429 . S
C2977 C2971 1.429 . S
C2977 C2978 1.523 . S
C2978 C2959 1.368 . S
C2978 C2972 1.368 . S
C2978 C2977 1.523 . S
C2979 C2963 1.429 . S
C2979 C2975 1.429 . S
C2979 C2980 1.523 . S
C2980 C2964 1.368 . S
C2980 C2976 1.368 . S
C2980 C2979 1.523 . S
H2981 C2956 0.950 . S
H2982 C2958 0.950 . S
H2983 C2959 0.949 . S
H2984 C2961 0.950 . S
H2985 C2963 0.950 . S
C2986 C2987 1.349 . S
C2986 C2988 1.327 . S
C2986 H3011 0.950 . S
C2987 C2986 1.349 . S
C2987 C3003 1.349 . S
C2988 C2986 1.327 . S
C2988 C3007 1.429 . S
C2988 H3012 0.950 . S
C2989 C3006 1.574 . S
C2989 C3008 1.368 . S
C2989 H3013 0.949 . S
H2990 C2994 0.949 . S
C2991 C2992 1.349 . S
C2991 C2993 1.327 . S
C2991 H3014 0.950 . S
C2992 C2991 1.349 . S
C2992 C3004 1.349 . S
C2993 C2991 1.327 . S
C2993 C3009 1.429 . S
C2993 H3015 0.950 . S
C2994 H2990 0.949 . S
C2994 C3002 1.574 . S
C2994 C3010 1.368 . S
H2995 C3003 0.950 . S
H2996 C3001 0.950 . S
H2997 C3002 0.949 . S
H2998 C3004 0.950 . S
H2999 C3005 0.950 . S
H3000 C3006 0.949 . S
C3001 H2996 0.950 . S
C3001 C3003 1.327 . S
C3001 C3007 1.429 . S
C3002 C2994 1.574 . S
C3002 H2997 0.949 . S
C3002 C3008 1.368 . S
C3003 C2987 1.349 . S
C3003 H2995 0.950 . S
C3003 C3001 1.327 . S
C3004 C2992 1.349 . S
C3004 H2998 0.950 . S
C3004 C3005 1.327 . S
C3005 H2999 0.950 . S
C3005 C3004 1.327 . S
C3005 C3009 1.429 . S
C3006 C2989 1.574 . S
C3006 H3000 0.949 . S
C3006 C3010 1.368 . S
C3007 C2988 1.429 . S
C3007 C3001 1.429 . S
C3007 C3008 1.523 . S
C3008 C2989 1.368 . S
C3008 C3002 1.368 . S
C3008 C3007 1.523 . S
C3009 C2993 1.429 . S
C3009 C3005 1.429 . S
C3009 C3010 1.523 . S
C3010 C2994 1.368 . S
C3010 C3006 1.368 . S
C3010 C3009 1.523 . S
H3011 C2986 0.950 . S
H3012 C2988 0.950 . S
H3013 C2989 0.949 . S
H3014 C2991 0.950 . S
H3015 C2993 0.950 . S
C3016 C3017 1.349 . S
C3016 C3018 1.327 . S
C3016 H3041 0.950 . S
C3017 C3016 1.349 . S
C3017 C3033 1.349 . S
C3018 C3016 1.327 . S
C3018 C3037 1.429 . S
C3018 H3042 0.950 . S
C3019 C3036 1.574 . S
C3019 C3038 1.368 . S
C3019 H3043 0.949 . S
H3020 C3024 0.949 . S
C3021 C3022 1.349 . S
C3021 C3023 1.327 . S
C3021 H3044 0.950 . S
C3022 C3021 1.349 . S
C3022 C3034 1.349 . S
C3023 C3021 1.327 . S
C3023 C3039 1.429 . S
C3023 H3045 0.950 . S
C3024 H3020 0.949 . S
C3024 C3032 1.574 . S
C3024 C3040 1.368 . S
H3025 C3033 0.950 . S
H3026 C3031 0.950 . S
H3027 C3032 0.949 . S
H3028 C3034 0.950 . S
H3029 C3035 0.950 . S
H3030 C3036 0.949 . S
C3031 H3026 0.950 . S
C3031 C3033 1.327 . S
C3031 C3037 1.429 . S
C3032 C3024 1.574 . S
C3032 H3027 0.949 . S
C3032 C3038 1.368 . S
C3033 C3017 1.349 . S
C3033 H3025 0.950 . S
C3033 C3031 1.327 . S
C3034 C3022 1.349 . S
C3034 H3028 0.950 . S
C3034 C3035 1.327 . S
C3035 H3029 0.950 . S
C3035 C3034 1.327 . S
C3035 C3039 1.429 . S
C3036 C3019 1.574 . S
C3036 H3030 0.949 . S
C3036 C3040 1.368 . S
C3037 C3018 1.429 . S
C3037 C3031 1.429 . S
C3037 C3038 1.523 . S
C3038 C3019 1.368 . S
C3038 C3032 1.368 . S
C3038 C3037 1.523 . S
C3039 C3023 1.429 . S
C3039 C3035 1.429 . S
C3039 C3040 1.523 . S
C3040 C3024 1.368 . S
C3040 C3036 1.368 . S
C3040 C3039 1.523 . S
H3041 C3016 0.950 . S
H3042 C3018 0.950 . S
H3043 C3019 0.949 . S
H3044 C3021 0.950 . S
H3045 C3023 0.950 . S
C3046 C3047 1.349 . S
C3046 C3048 1.327 . S
C3046 H3071 0.950 . S
C3047 C3046 1.349 . S
C3047 C3063 1.349 . S
C3048 C3046 1.327 . S
C3048 C3067 1.429 . S
C3048 H3072 0.950 . S
C3049 C3066 1.574 . S
C3049 C3068 1.368 . S
C3049 H3073 0.949 . S
H3050 C3054 0.949 . S
C3051 C3052 1.349 . S
C3051 C3053 1.327 . S
C3051 H3074 0.950 . S
C3052 C3051 1.349 . S
C3052 C3064 1.349 . S
C3053 C3051 1.327 . S
C3053 C3069 1.429 . S
C3053 H3075 0.950 . S
C3054 H3050 0.949 . S
C3054 C3062 1.574 . S
C3054 C3070 1.368 . S
H3055 C3063 0.950 . S
H3056 C3061 0.950 . S
H3057 C3062 0.949 . S
H3058 C3064 0.950 . S
H3059 C3065 0.950 . S
H3060 C3066 0.949 . S
C3061 H3056 0.950 . S
C3061 C3063 1.327 . S
C3061 C3067 1.429 . S
C3062 C3054 1.574 . S
C3062 H3057 0.949 . S
C3062 C3068 1.368 . S
C3063 C3047 1.349 . S
C3063 H3055 0.950 . S
C3063 C3061 1.327 . S
C3064 C3052 1.349 . S
C3064 H3058 0.950 . S
C3064 C3065 1.327 . S
C3065 H3059 0.950 . S
C3065 C3064 1.327 . S
C3065 C3069 1.429 . S
C3066 C3049 1.574 . S
C3066 H3060 0.949 . S
C3066 C3070 1.368 . S
C3067 C3048 1.429 . S
C3067 C3061 1.429 . S
C3067 C3068 1.523 . S
C3068 C3049 1.368 . S
C3068 C3062 1.368 . S
C3068 C3067 1.523 . S
C3069 C3053 1.429 . S
C3069 C3065 1.429 . S
C3069 C3070 1.523 . S
C3070 C3054 1.368 . S
C3070 C3066 1.368 . S
C3070 C3069 1.523 . S
H3071 C3046 0.950 . S
H3072 C3048 0.950 . S
H3073 C3049 0.949 . S
H3074 C3051 0.950 . S
H3075 C3053 0.950 . S
C3076 C3077 1.349 . S
C3076 C3078 1.327 . S
C3076 H3101 0.950 . S
C3077 C3076 1.349 . S
C3077 C3093 1.349 . S
C3078 C3076 1.327 . S
C3078 C3097 1.429 . S
C3078 H3102 0.950 . S
C3079 C3096 1.574 . S
C3079 C3098 1.368 . S
C3079 H3103 0.949 . S
H3080 C3084 0.949 . S
C3081 C3082 1.349 . S
C3081 C3083 1.327 . S
C3081 H3104 0.950 . S
C3082 C3081 1.349 . S
C3082 C3094 1.349 . S
C3083 C3081 1.327 . S
C3083 C3099 1.429 . S
C3083 H3105 0.950 . S
C3084 H3080 0.949 . S
C3084 C3092 1.574 . S
C3084 C3100 1.368 . S
H3085 C3093 0.950 . S
H3086 C3091 0.950 . S
H3087 C3092 0.949 . S
H3088 C3094 0.950 . S
H3089 C3095 0.950 . S
H3090 C3096 0.949 . S
C3091 H3086 0.950 . S
C3091 C3093 1.327 . S
C3091 C3097 1.429 . S
C3092 C3084 1.574 . S
C3092 H3087 0.949 . S
C3092 C3098 1.368 . S
C3093 C3077 1.349 . S
C3093 H3085 0.950 . S
C3093 C3091 1.327 . S
C3094 C3082 1.349 . S
C3094 H3088 0.950 . S
C3094 C3095 1.327 . S
C3095 H3089 0.950 . S
C3095 C3094 1.327 . S
C3095 C3099 1.429 . S
C3096 C3079 1.574 . S
C3096 H3090 0.949 . S
C3096 C3100 1.368 . S
C3097 C3078 1.429 . S
C3097 C3091 1.429 . S
C3097 C3098 1.523 . S
C3098 C3079 1.368 . S
C3098 C3092 1.368 . S
C3098 C3097 1.523 . S
C3099 C3083 1.429 . S
C3099 C3095 1.429 . S
C3099 C3100 1.523 . S
C3100 C3084 1.368 . S
C3100 C3096 1.368 . S
C3100 C3099 1.523 . S
H3101 C3076 0.950 . S
H3102 C3078 0.950 . S
H3103 C3079 0.949 . S
H3104 C3081 0.950 . S
H3105 C3083 0.950 . S
C3106 C3107 1.349 . S
C3106 C3108 1.327 . S
C3106 H3131 0.950 . S
C3107 C3106 1.349 . S
C3107 C3123 1.349 . S
C3108 C3106 1.327 . S
C3108 C3127 1.429 . S
C3108 H3132 0.950 . S
C3109 C3126 1.574 . S
C3109 C3128 1.368 . S
C3109 H3133 0.949 . S
H3110 C3114 0.949 . S
C3111 C3112 1.349 . S
C3111 C3113 1.327 . S
C3111 H3134 0.950 . S
C3112 C3111 1.349 . S
C3112 C3124 1.349 . S
C3113 C3111 1.327 . S
C3113 C3129 1.429 . S
C3113 H3135 0.950 . S
C3114 H3110 0.949 . S
C3114 C3122 1.574 . S
C3114 C3130 1.368 . S
H3115 C3123 0.950 . S
H3116 C3121 0.950 . S
H3117 C3122 0.949 . S
H3118 C3124 0.950 . S
H3119 C3125 0.950 . S
H3120 C3126 0.949 . S
C3121 H3116 0.950 . S
C3121 C3123 1.327 . S
C3121 C3127 1.429 . S
C3122 C3114 1.574 . S
C3122 H3117 0.949 . S
C3122 C3128 1.368 . S
C3123 C3107 1.349 . S
C3123 H3115 0.950 . S
C3123 C3121 1.327 . S
C3124 C3112 1.349 . S
C3124 H3118 0.950 . S
C3124 C3125 1.327 . S
C3125 H3119 0.950 . S
C3125 C3124 1.327 . S
C3125 C3129 1.429 . S
C3126 C3109 1.574 . S
C3126 H3120 0.949 . S
C3126 C3130 1.368 . S
C3127 C3108 1.429 . S
C3127 C3121 1.429 . S
C3127 C3128 1.523 . S
C3128 C3109 1.368 . S
C3128 C3122 1.368 . S
C3128 C3127 1.523 . S
C3129 C3113 1.429 . S
C3129 C3125 1.429 . S
C3129 C3130 1.523 . S
C3130 C3114 1.368 . S
C3130 C3126 1.368 . S
C3130 C3129 1.523 . S
H3131 C3106 0.950 . S
H3132 C3108 0.950 . S
H3133 C3109 0.949 . S
H3134 C3111 0.950 . S
H3135 C3113 0.950 . S
C3136 C3137 1.349 . S
C3136 C3138 1.327 . S
C3136 H3161 0.950 . S
C3137 C3136 1.349 . S
C3137 C3153 1.349 . S
C3138 C3136 1.327 . S
C3138 C3157 1.429 . S
C3138 H3162 0.950 . S
C3139 C3156 1.574 . S
C3139 C3158 1.368 . S
C3139 H3163 0.949 . S
H3140 C3144 0.949 . S
C3141 C3142 1.349 . S
C3141 C3143 1.327 . S
C3141 H3164 0.950 . S
C3142 C3141 1.349 . S
C3142 C3154 1.349 . S
C3143 C3141 1.327 . S
C3143 C3159 1.429 . S
C3143 H3165 0.950 . S
C3144 H3140 0.949 . S
C3144 C3152 1.574 . S
C3144 C3160 1.368 . S
H3145 C3153 0.950 . S
H3146 C3151 0.950 . S
H3147 C3152 0.949 . S
H3148 C3154 0.950 . S
H3149 C3155 0.950 . S
H3150 C3156 0.949 . S
C3151 H3146 0.950 . S
C3151 C3153 1.327 . S
C3151 C3157 1.429 . S
C3152 C3144 1.574 . S
C3152 H3147 0.949 . S
C3152 C3158 1.368 . S
C3153 C3137 1.349 . S
C3153 H3145 0.950 . S
C3153 C3151 1.327 . S
C3154 C3142 1.349 . S
C3154 H3148 0.950 . S
C3154 C3155 1.327 . S
C3155 H3149 0.950 . S
C3155 C3154 1.327 . S
C3155 C3159 1.429 . S
C3156 C3139 1.574 . S
C3156 H3150 0.949 . S
C3156 C3160 1.368 . S
C3157 C3138 1.429 . S
C3157 C3151 1.429 . S
C3157 C3158 1.523 . S
C3158 C3139 1.368 . S
C3158 C3152 1.368 . S
C3158 C3157 1.523 . S
C3159 C3143 1.429 . S
C3159 C3155 1.429 . S
C3159 C3160 1.523 . S
C3160 C3144 1.368 . S
C3160 C3156 1.368 . S
C3160 C3159 1.523 . S
H3161 C3136 0.950 . S
H3162 C3138 0.950 . S
H3163 C3139 0.949 . S
H3164 C3141 0.950 . S
H3165 C3143 0.950 . S
C3166 C3167 1.349 . S
C3166 C3168 1.327 . S
C3166 H3191 0.950 . S
C3167 C3166 1.349 . S
C3167 C3183 1.349 . S
C3168 C3166 1.327 . S
C3168 C3187 1.429 . S
C3168 H3192 0.950 . S
C3169 C3186 1.574 . S
C3169 C3188 1.368 . S
C3169 H3193 0.949 . S
H3170 C3174 0.949 . S
C3171 C3172 1.349 . S
C3171 C3173 1.327 . S
C3171 H3194 0.950 . S
C3172 C3171 1.349 . S
C3172 C3184 1.349 . S
C3173 C3171 1.327 . S
C3173 C3189 1.429 . S
C3173 H3195 0.950 . S
C3174 H3170 0.949 . S
C3174 C3182 1.574 . S
C3174 C3190 1.368 . S
H3175 C3183 0.950 . S
H3176 C3181 0.950 . S
H3177 C3182 0.949 . S
H3178 C3184 0.950 . S
H3179 C3185 0.950 . S
H3180 C3186 0.949 . S
C3181 H3176 0.950 . S
C3181 C3183 1.327 . S
C3181 C3187 1.429 . S
C3182 C3174 1.574 . S
C3182 H3177 0.949 . S
C3182 C3188 1.368 . S
C3183 C3167 1.349 . S
C3183 H3175 0.950 . S
C3183 C3181 1.327 . S
C3184 C3172 1.349 . S
C3184 H3178 0.950 . S
C3184 C3185 1.327 . S
C3185 H3179 0.950 . S
C3185 C3184 1.327 . S
C3185 C3189 1.429 . S
C3186 C3169 1.574 . S
C3186 H3180 0.949 . S
C3186 C3190 1.368 . S
C3187 C3168 1.429 . S
C3187 C3181 1.429 . S
C3187 C3188 1.523 . S
C3188 C3169 1.368 . S
C3188 C3182 1.368 . S
C3188 C3187 1.523 . S
C3189 C3173 1.429 . S
C3189 C3185 1.429 . S
C3189 C3190 1.523 . S
C3190 C3174 1.368 . S
C3190 C3186 1.368 . S
C3190 C3189 1.523 . S
H3191 C3166 0.950 . S
H3192 C3168 0.950 . S
H3193 C3169 0.949 . S
H3194 C3171 0.950 . S
H3195 C3173 0.950 . S
C3196 C3197 1.349 . S
C3196 C3198 1.327 . S
C3196 H3221 0.950 . S
C3197 C3196 1.349 . S
C3197 C3213 1.349 . S
C3198 C3196 1.327 . S
C3198 C3217 1.429 . S
C3198 H3222 0.950 . S
C3199 C3216 1.574 . S
C3199 C3218 1.368 . S
C3199 H3223 0.949 . S
H3200 C3204 0.949 . S
C3201 C3202 1.349 . S
C3201 C3203 1.327 . S
C3201 H3224 0.950 . S
C3202 C3201 1.349 . S
C3202 C3214 1.349 . S
C3203 C3201 1.327 . S
C3203 C3219 1.429 . S
C3203 H3225 0.950 . S
C3204 H3200 0.949 . S
C3204 C3212 1.574 . S
C3204 C3220 1.368 . S
H3205 C3213 0.950 . S
H3206 C3211 0.950 . S
H3207 C3212 0.949 . S
H3208 C3214 0.950 . S
H3209 C3215 0.950 . S
H3210 C3216 0.949 . S
C3211 H3206 0.950 . S
C3211 C3213 1.327 . S
C3211 C3217 1.429 . S
C3212 C3204 1.574 . S
C3212 H3207 0.949 . S
C3212 C3218 1.368 . S
C3213 C3197 1.349 . S
C3213 H3205 0.950 . S
C3213 C3211 1.327 . S
C3214 C3202 1.349 . S
C3214 H3208 0.950 . S
C3214 C3215 1.327 . S
C3215 H3209 0.950 . S
C3215 C3214 1.327 . S
C3215 C3219 1.429 . S
C3216 C3199 1.574 . S
C3216 H3210 0.949 . S
C3216 C3220 1.368 . S
C3217 C3198 1.429 . S
C3217 C3211 1.429 . S
C3217 C3218 1.523 . S
C3218 C3199 1.368 . S
C3218 C3212 1.368 . S
C3218 C3217 1.523 . S
C3219 C3203 1.429 . S
C3219 C3215 1.429 . S
C3219 C3220 1.523 . S
C3220 C3204 1.368 . S
C3220 C3216 1.368 . S
C3220 C3219 1.523 . S
H3221 C3196 0.950 . S
H3222 C3198 0.950 . S
H3223 C3199 0.949 . S
H3224 C3201 0.950 . S
H3225 C3203 0.950 . S
C3226 C3227 1.349 . S
C3226 C3228 1.327 . S
C3226 H3251 0.950 . S
C3227 C3226 1.349 . S
C3227 C3243 1.349 . S
C3228 C3226 1.327 . S
C3228 C3247 1.429 . S
C3228 H3252 0.950 . S
C3229 C3246 1.574 . S
C3229 C3248 1.368 . S
C3229 H3253 0.949 . S
H3230 C3234 0.949 . S
C3231 C3232 1.349 . S
C3231 C3233 1.327 . S
C3231 H3254 0.950 . S
C3232 C3231 1.349 . S
C3232 C3244 1.349 . S
C3233 C3231 1.327 . S
C3233 C3249 1.429 . S
C3233 H3255 0.950 . S
C3234 H3230 0.949 . S
C3234 C3242 1.574 . S
C3234 C3250 1.368 . S
H3235 C3243 0.950 . S
H3236 C3241 0.950 . S
H3237 C3242 0.949 . S
H3238 C3244 0.950 . S
H3239 C3245 0.950 . S
H3240 C3246 0.949 . S
C3241 H3236 0.950 . S
C3241 C3243 1.327 . S
C3241 C3247 1.429 . S
C3242 C3234 1.574 . S
C3242 H3237 0.949 . S
C3242 C3248 1.368 . S
C3243 C3227 1.349 . S
C3243 H3235 0.950 . S
C3243 C3241 1.327 . S
C3244 C3232 1.349 . S
C3244 H3238 0.950 . S
C3244 C3245 1.327 . S
C3245 H3239 0.950 . S
C3245 C3244 1.327 . S
C3245 C3249 1.429 . S
C3246 C3229 1.574 . S
C3246 H3240 0.949 . S
C3246 C3250 1.368 . S
C3247 C3228 1.429 . S
C3247 C3241 1.429 . S
C3247 C3248 1.523 . S
C3248 C3229 1.368 . S
C3248 C3242 1.368 . S
C3248 C3247 1.523 . S
C3249 C3233 1.429 . S
C3249 C3245 1.429 . S
C3249 C3250 1.523 . S
C3250 C3234 1.368 . S
C3250 C3246 1.368 . S
C3250 C3249 1.523 . S
H3251 C3226 0.950 . S
H3252 C3228 0.950 . S
H3253 C3229 0.949 . S
H3254 C3231 0.950 . S
H3255 C3233 0.950 . S
C3256 C3257 1.349 . S
C3256 C3258 1.327 . S
C3256 H3281 0.950 . S
C3257 C3256 1.349 . S
C3257 C3273 1.349 . S
C3258 C3256 1.327 . S
C3258 C3277 1.429 . S
C3258 H3282 0.950 . S
C3259 C3276 1.574 . S
C3259 C3278 1.368 . S
C3259 H3283 0.949 . S
H3260 C3264 0.949 . S
C3261 C3262 1.349 . S
C3261 C3263 1.327 . S
C3261 H3284 0.950 . S
C3262 C3261 1.349 . S
C3262 C3274 1.349 . S
C3263 C3261 1.327 . S
C3263 C3279 1.429 . S
C3263 H3285 0.950 . S
C3264 H3260 0.949 . S
C3264 C3272 1.574 . S
C3264 C3280 1.368 . S
H3265 C3273 0.950 . S
H3266 C3271 0.950 . S
H3267 C3272 0.949 . S
H3268 C3274 0.950 . S
H3269 C3275 0.950 . S
H3270 C3276 0.949 . S
C3271 H3266 0.950 . S
C3271 C3273 1.327 . S
C3271 C3277 1.429 . S
C3272 C3264 1.574 . S
C3272 H3267 0.949 . S
C3272 C3278 1.368 . S
C3273 C3257 1.349 . S
C3273 H3265 0.950 . S
C3273 C3271 1.327 . S
C3274 C3262 1.349 . S
C3274 H3268 0.950 . S
C3274 C3275 1.327 . S
C3275 H3269 0.950 . S
C3275 C3274 1.327 . S
C3275 C3279 1.429 . S
C3276 C3259 1.574 . S
C3276 H3270 0.949 . S
C3276 C3280 1.368 . S
C3277 C3258 1.429 . S
C3277 C3271 1.429 . S
C3277 C3278 1.523 . S
C3278 C3259 1.368 . S
C3278 C3272 1.368 . S
C3278 C3277 1.523 . S
C3279 C3263 1.429 . S
C3279 C3275 1.429 . S
C3279 C3280 1.523 . S
C3280 C3264 1.368 . S
C3280 C3276 1.368 . S
C3280 C3279 1.523 . S
H3281 C3256 0.950 . S
H3282 C3258 0.950 . S
H3283 C3259 0.949 . S
H3284 C3261 0.950 . S
H3285 C3263 0.950 . S
C3286 C3287 1.349 . S
C3286 C3288 1.327 . S
C3286 H3311 0.950 . S
C3287 C3286 1.349 . S
C3287 C3303 1.349 . S
C3288 C3286 1.327 . S
C3288 C3307 1.429 . S
C3288 H3312 0.950 . S
C3289 C3306 1.574 . S
C3289 C3308 1.368 . S
C3289 H3313 0.949 . S
H3290 C3294 0.949 . S
C3291 C3292 1.349 . S
C3291 C3293 1.327 . S
C3291 H3314 0.950 . S
C3292 C3291 1.349 . S
C3292 C3304 1.349 . S
C3293 C3291 1.327 . S
C3293 C3309 1.429 . S
C3293 H3315 0.950 . S
C3294 H3290 0.949 . S
C3294 C3302 1.574 . S
C3294 C3310 1.368 . S
H3295 C3303 0.950 . S
H3296 C3301 0.950 . S
H3297 C3302 0.949 . S
H3298 C3304 0.950 . S
H3299 C3305 0.950 . S
H3300 C3306 0.949 . S
C3301 H3296 0.950 . S
C3301 C3303 1.327 . S
C3301 C3307 1.429 . S
C3302 C3294 1.574 . S
C3302 H3297 0.949 . S
C3302 C3308 1.368 . S
C3303 C3287 1.349 . S
C3303 H3295 0.950 . S
C3303 C3301 1.327 . S
C3304 C3292 1.349 . S
C3304 H3298 0.950 . S
C3304 C3305 1.327 . S
C3305 H3299 0.950 . S
C3305 C3304 1.327 . S
C3305 C3309 1.429 . S
C3306 C3289 1.574 . S
C3306 H3300 0.949 . S
C3306 C3310 1.368 . S
C3307 C3288 1.429 . S
C3307 C3301 1.429 . S
C3307 C3308 1.523 . S
C3308 C3289 1.368 . S
C3308 C3302 1.368 . S
C3308 C3307 1.523 . S
C3309 C3293 1.429 . S
C3309 C3305 1.429 . S
C3309 C3310 1.523 . S
C3310 C3294 1.368 . S
C3310 C3306 1.368 . S
C3310 C3309 1.523 . S
H3311 C3286 0.950 . S
H3312 C3288 0.950 . S
H3313 C3289 0.949 . S
H3314 C3291 0.950 . S
H3315 C3293 0.950 . S
C3316 C3317 1.349 . S
C3316 C3318 1.327 . S
C3316 H3341 0.950 . S
C3317 C3316 1.349 . S
C3317 C3333 1.349 . S
C3318 C3316 1.327 . S
C3318 C3337 1.429 . S
C3318 H3342 0.950 . S
C3319 C3336 1.574 . S
C3319 C3338 1.368 . S
C3319 H3343 0.949 . S
H3320 C3324 0.949 . S
C3321 C3322 1.349 . S
C3321 C3323 1.327 . S
C3321 H3344 0.950 . S
C3322 C3321 1.349 . S
C3322 C3334 1.349 . S
C3323 C3321 1.327 . S
C3323 C3339 1.429 . S
C3323 H3345 0.950 . S
C3324 H3320 0.949 . S
C3324 C3332 1.574 . S
C3324 C3340 1.368 . S
H3325 C3333 0.950 . S
H3326 C3331 0.950 . S
H3327 C3332 0.949 . S
H3328 C3334 0.950 . S
H3329 C3335 0.950 . S
H3330 C3336 0.949 . S
C3331 H3326 0.950 . S
C3331 C3333 1.327 . S
C3331 C3337 1.429 . S
C3332 C3324 1.574 . S
C3332 H3327 0.949 . S
C3332 C3338 1.368 . S
C3333 C3317 1.349 . S
C3333 H3325 0.950 . S
C3333 C3331 1.327 . S
C3334 C3322 1.349 . S
C3334 H3328 0.950 . S
C3334 C3335 1.327 . S
C3335 H3329 0.950 . S
C3335 C3334 1.327 . S
C3335 C3339 1.429 . S
C3336 C3319 1.574 . S
C3336 H3330 0.949 . S
C3336 C3340 1.368 . S
C3337 C3318 1.429 . S
C3337 C3331 1.429 . S
C3337 C3338 1.523 . S
C3338 C3319 1.368 . S
C3338 C3332 1.368 . S
C3338 C3337 1.523 . S
C3339 C3323 1.429 . S
C3339 C3335 1.429 . S
C3339 C3340 1.523 . S
C3340 C3324 1.368 . S
C3340 C3336 1.368 . S
C3340 C3339 1.523 . S
H3341 C3316 0.950 . S
H3342 C3318 0.950 . S
H3343 C3319 0.949 . S
H3344 C3321 0.950 . S
H3345 C3323 0.950 . S
C3346 C3347 1.349 . S
C3346 C3348 1.327 . S
C3346 H3371 0.950 . S
C3347 C3346 1.349 . S
C3347 C3363 1.349 . S
C3348 C3346 1.327 . S
C3348 C3367 1.429 . S
C3348 H3372 0.950 . S
C3349 C3366 1.574 . S
C3349 C3368 1.368 . S
C3349 H3373 0.949 . S
H3350 C3354 0.949 . S
C3351 C3352 1.349 . S
C3351 C3353 1.327 . S
C3351 H3374 0.950 . S
C3352 C3351 1.349 . S
C3352 C3364 1.349 . S
C3353 C3351 1.327 . S
C3353 C3369 1.429 . S
C3353 H3375 0.950 . S
C3354 H3350 0.949 . S
C3354 C3362 1.574 . S
C3354 C3370 1.368 . S
H3355 C3363 0.950 . S
H3356 C3361 0.950 . S
H3357 C3362 0.949 . S
H3358 C3364 0.950 . S
H3359 C3365 0.950 . S
H3360 C3366 0.949 . S
C3361 H3356 0.950 . S
C3361 C3363 1.327 . S
C3361 C3367 1.429 . S
C3362 C3354 1.574 . S
C3362 H3357 0.949 . S
C3362 C3368 1.368 . S
C3363 C3347 1.349 . S
C3363 H3355 0.950 . S
C3363 C3361 1.327 . S
C3364 C3352 1.349 . S
C3364 H3358 0.950 . S
C3364 C3365 1.327 . S
C3365 H3359 0.950 . S
C3365 C3364 1.327 . S
C3365 C3369 1.429 . S
C3366 C3349 1.574 . S
C3366 H3360 0.949 . S
C3366 C3370 1.368 . S
C3367 C3348 1.429 . S
C3367 C3361 1.429 . S
C3367 C3368 1.523 . S
C3368 C3349 1.368 . S
C3368 C3362 1.368 . S
C3368 C3367 1.523 . S
C3369 C3353 1.429 . S
C3369 C3365 1.429 . S
C3369 C3370 1.523 . S
C3370 C3354 1.368 . S
C3370 C3366 1.368 . S
C3370 C3369 1.523 . S
H3371 C3346 0.950 . S
H3372 C3348 0.950 . S
H3373 C3349 0.949 . S
H3374 C3351 0.950 . S
H3375 C3353 0.950 . S
C3376 C3377 1.349 . S
C3376 C3378 1.327 . S
C3376 H3401 0.950 . S
C3377 C3376 1.349 . S
C3377 C3393 1.349 . S
C3378 C3376 1.327 . S
C3378 C3397 1.429 . S
C3378 H3402 0.950 . S
C3379 C3396 1.574 . S
C3379 C3398 1.368 . S
C3379 H3403 0.949 . S
H3380 C3384 0.949 . S
C3381 C3382 1.349 . S
C3381 C3383 1.327 . S
C3381 H3404 0.950 . S
C3382 C3381 1.349 . S
C3382 C3394 1.349 . S
C3383 C3381 1.327 . S
C3383 C3399 1.429 . S
C3383 H3405 0.950 . S
C3384 H3380 0.949 . S
C3384 C3392 1.574 . S
C3384 C3400 1.368 . S
H3385 C3393 0.950 . S
H3386 C3391 0.950 . S
H3387 C3392 0.949 . S
H3388 C3394 0.950 . S
H3389 C3395 0.950 . S
H3390 C3396 0.949 . S
C3391 H3386 0.950 . S
C3391 C3393 1.327 . S
C3391 C3397 1.429 . S
C3392 C3384 1.574 . S
C3392 H3387 0.949 . S
C3392 C3398 1.368 . S
C3393 C3377 1.349 . S
C3393 H3385 0.950 . S
C3393 C3391 1.327 . S
C3394 C3382 1.349 . S
C3394 H3388 0.950 . S
C3394 C3395 1.327 . S
C3395 H3389 0.950 . S
C3395 C3394 1.327 . S
C3395 C3399 1.429 . S
C3396 C3379 1.574 . S
C3396 H3390 0.949 . S
C3396 C3400 1.368 . S
C3397 C3378 1.429 . S
C3397 C3391 1.429 . S
C3397 C3398 1.523 . S
C3398 C3379 1.368 . S
C3398 C3392 1.368 . S
C3398 C3397 1.523 . S
C3399 C3383 1.429 . S
C3399 C3395 1.429 . S
C3399 C3400 1.523 . S
C3400 C3384 1.368 . S
C3400 C3396 1.368 . S
C3400 C3399 1.523 . S
H3401 C3376 0.950 . S
H3402 C3378 0.950 . S
H3403 C3379 0.949 . S
H3404 C3381 0.950 . S
H3405 C3383 0.950 . S
C3406 C3407 1.349 . S
C3406 C3408 1.327 . S
C3406 H3431 0.950 . S
C3407 C3406 1.349 . S
C3407 C3423 1.349 . S
C3408 C3406 1.327 . S
C3408 C3427 1.429 . S
C3408 H3432 0.950 . S
C3409 C3426 1.574 . S
C3409 C3428 1.368 . S
C3409 H3433 0.949 . S
H3410 C3414 0.949 . S
C3411 C3412 1.349 . S
C3411 C3413 1.327 . S
C3411 H3434 0.950 . S
C3412 C3411 1.349 . S
C3412 C3424 1.349 . S
C3413 C3411 1.327 . S
C3413 C3429 1.429 . S
C3413 H3435 0.950 . S
C3414 H3410 0.949 . S
C3414 C3422 1.574 . S
C3414 C3430 1.368 . S
H3415 C3423 0.950 . S
H3416 C3421 0.950 . S
H3417 C3422 0.949 . S
H3418 C3424 0.950 . S
H3419 C3425 0.950 . S
H3420 C3426 0.949 . S
C3421 H3416 0.950 . S
C3421 C3423 1.327 . S
C3421 C3427 1.429 . S
C3422 C3414 1.574 . S
C3422 H3417 0.949 . S
C3422 C3428 1.368 . S
C3423 C3407 1.349 . S
C3423 H3415 0.950 . S
C3423 C3421 1.327 . S
C3424 C3412 1.349 . S
C3424 H3418 0.950 . S
C3424 C3425 1.327 . S
C3425 H3419 0.950 . S
C3425 C3424 1.327 . S
C3425 C3429 1.429 . S
C3426 C3409 1.574 . S
C3426 H3420 0.949 . S
C3426 C3430 1.368 . S
C3427 C3408 1.429 . S
C3427 C3421 1.429 . S
C3427 C3428 1.523 . S
C3428 C3409 1.368 . S
C3428 C3422 1.368 . S
C3428 C3427 1.523 . S
C3429 C3413 1.429 . S
C3429 C3425 1.429 . S
C3429 C3430 1.523 . S
C3430 C3414 1.368 . S
C3430 C3426 1.368 . S
C3430 C3429 1.523 . S
H3431 C3406 0.950 . S
H3432 C3408 0.950 . S
H3433 C3409 0.949 . S
H3434 C3411 0.950 . S
H3435 C3413 0.950 . S
C3436 C3437 1.349 . S
C3436 C3438 1.327 . S
C3436 H3461 0.950 . S
C3437 C3436 1.349 . S
C3437 C3453 1.349 . S
C3438 C3436 1.327 . S
C3438 C3457 1.429 . S
C3438 H3462 0.950 . S
C3439 C3456 1.574 . S
C3439 C3458 1.368 . S
C3439 H3463 0.949 . S
H3440 C3444 0.949 . S
C3441 C3442 1.349 . S
C3441 C3443 1.327 . S
C3441 H3464 0.950 . S
C3442 C3441 1.349 . S
C3442 C3454 1.349 . S
C3443 C3441 1.327 . S
C3443 C3459 1.429 . S
C3443 H3465 0.950 . S
C3444 H3440 0.949 . S
C3444 C3452 1.574 . S
C3444 C3460 1.368 . S
H3445 C3453 0.950 . S
H3446 C3451 0.950 . S
H3447 C3452 0.949 . S
H3448 C3454 0.950 . S
H3449 C3455 0.950 . S
H3450 C3456 0.949 . S
C3451 H3446 0.950 . S
C3451 C3453 1.327 . S
C3451 C3457 1.429 . S
C3452 C3444 1.574 . S
C3452 H3447 0.949 . S
C3452 C3458 1.368 . S
C3453 C3437 1.349 . S
C3453 H3445 0.950 . S
C3453 C3451 1.327 . S
C3454 C3442 1.349 . S
C3454 H3448 0.950 . S
C3454 C3455 1.327 . S
C3455 H3449 0.950 . S
C3455 C3454 1.327 . S
C3455 C3459 1.429 . S
C3456 C3439 1.574 . S
C3456 H3450 0.949 . S
C3456 C3460 1.368 . S
C3457 C3438 1.429 . S
C3457 C3451 1.429 . S
C3457 C3458 1.523 . S
C3458 C3439 1.368 . S
C3458 C3452 1.368 . S
C3458 C3457 1.523 . S
C3459 C3443 1.429 . S
C3459 C3455 1.429 . S
C3459 C3460 1.523 . S
C3460 C3444 1.368 . S
C3460 C3456 1.368 . S
C3460 C3459 1.523 . S
H3461 C3436 0.950 . S
H3462 C3438 0.950 . S
H3463 C3439 0.949 . S
H3464 C3441 0.950 . S
H3465 C3443 0.950 . S
C3466 C3467 1.349 . S
C3466 C3468 1.327 . S
C3466 H3491 0.950 . S
C3467 C3466 1.349 . S
C3467 C3483 1.349 . S
C3468 C3466 1.327 . S
C3468 C3487 1.429 . S
C3468 H3492 0.950 . S
C3469 C3486 1.574 . S
C3469 C3488 1.368 . S
C3469 H3493 0.949 . S
H3470 C3474 0.949 . S
C3471 C3472 1.349 . S
C3471 C3473 1.327 . S
C3471 H3494 0.950 . S
C3472 C3471 1.349 . S
C3472 C3484 1.349 . S
C3473 C3471 1.327 . S
C3473 C3489 1.429 . S
C3473 H3495 0.950 . S
C3474 H3470 0.949 . S
C3474 C3482 1.574 . S
C3474 C3490 1.368 . S
H3475 C3483 0.950 . S
H3476 C3481 0.950 . S
H3477 C3482 0.949 . S
H3478 C3484 0.950 . S
H3479 C3485 0.950 . S
H3480 C3486 0.949 . S
C3481 H3476 0.950 . S
C3481 C3483 1.327 . S
C3481 C3487 1.429 . S
C3482 C3474 1.574 . S
C3482 H3477 0.949 . S
C3482 C3488 1.368 . S
C3483 C3467 1.349 . S
C3483 H3475 0.950 . S
C3483 C3481 1.327 . S
C3484 C3472 1.349 . S
C3484 H3478 0.950 . S
C3484 C3485 1.327 . S
C3485 H3479 0.950 . S
C3485 C3484 1.327 . S
C3485 C3489 1.429 . S
C3486 C3469 1.574 . S
C3486 H3480 0.949 . S
C3486 C3490 1.368 . S
C3487 C3468 1.429 . S
C3487 C3481 1.429 . S
C3487 C3488 1.523 . S
C3488 C3469 1.368 . S
C3488 C3482 1.368 . S
C3488 C3487 1.523 . S
C3489 C3473 1.429 . S
C3489 C3485 1.429 . S
C3489 C3490 1.523 . S
C3490 C3474 1.368 . S
C3490 C3486 1.368 . S
C3490 C3489 1.523 . S
H3491 C3466 0.950 . S
H3492 C3468 0.950 . S
H3493 C3469 0.949 . S
H3494 C3471 0.950 . S
H3495 C3473 0.950 . S
C3496 C3497 1.349 . S
C3496 C3498 1.327 . S
C3496 H3521 0.950 . S
C3497 C3496 1.349 . S
C3497 C3513 1.349 . S
C3498 C3496 1.327 . S
C3498 C3517 1.429 . S
C3498 H3522 0.950 . S
C3499 C3516 1.574 . S
C3499 C3518 1.368 . S
C3499 H3523 0.949 . S
H3500 C3504 0.949 . S
C3501 C3502 1.349 . S
C3501 C3503 1.327 . S
C3501 H3524 0.950 . S
C3502 C3501 1.349 . S
C3502 C3514 1.349 . S
C3503 C3501 1.327 . S
C3503 C3519 1.429 . S
C3503 H3525 0.950 . S
C3504 H3500 0.949 . S
C3504 C3512 1.574 . S
C3504 C3520 1.368 . S
H3505 C3513 0.950 . S
H3506 C3511 0.950 . S
H3507 C3512 0.949 . S
H3508 C3514 0.950 . S
H3509 C3515 0.950 . S
H3510 C3516 0.949 . S
C3511 H3506 0.950 . S
C3511 C3513 1.327 . S
C3511 C3517 1.429 . S
C3512 C3504 1.574 . S
C3512 H3507 0.949 . S
C3512 C3518 1.368 . S
C3513 C3497 1.349 . S
C3513 H3505 0.950 . S
C3513 C3511 1.327 . S
C3514 C3502 1.349 . S
C3514 H3508 0.950 . S
C3514 C3515 1.327 . S
C3515 H3509 0.950 . S
C3515 C3514 1.327 . S
C3515 C3519 1.429 . S
C3516 C3499 1.574 . S
C3516 H3510 0.949 . S
C3516 C3520 1.368 . S
C3517 C3498 1.429 . S
C3517 C3511 1.429 . S
C3517 C3518 1.523 . S
C3518 C3499 1.368 . S
C3518 C3512 1.368 . S
C3518 C3517 1.523 . S
C3519 C3503 1.429 . S
C3519 C3515 1.429 . S
C3519 C3520 1.523 . S
C3520 C3504 1.368 . S
C3520 C3516 1.368 . S
C3520 C3519 1.523 . S
H3521 C3496 0.950 . S
H3522 C3498 0.950 . S
H3523 C3499 0.949 . S
H3524 C3501 0.950 . S
H3525 C3503 0.950 . S
C3526 C3527 1.349 . S
C3526 C3528 1.327 . S
C3526 H3551 0.950 . S
C3527 C3526 1.349 . S
C3527 C3543 1.349 . S
C3528 C3526 1.327 . S
C3528 C3547 1.429 . S
C3528 H3552 0.950 . S
C3529 C3546 1.574 . S
C3529 C3548 1.368 . S
C3529 H3553 0.949 . S
H3530 C3534 0.949 . S
C3531 C3532 1.349 . S
C3531 C3533 1.327 . S
C3531 H3554 0.950 . S
C3532 C3531 1.349 . S
C3532 C3544 1.349 . S
C3533 C3531 1.327 . S
C3533 C3549 1.429 . S
C3533 H3555 0.950 . S
C3534 H3530 0.949 . S
C3534 C3542 1.574 . S
C3534 C3550 1.368 . S
H3535 C3543 0.950 . S
H3536 C3541 0.950 . S
H3537 C3542 0.949 . S
H3538 C3544 0.950 . S
H3539 C3545 0.950 . S
H3540 C3546 0.949 . S
C3541 H3536 0.950 . S
C3541 C3543 1.327 . S
C3541 C3547 1.429 . S
C3542 C3534 1.574 . S
C3542 H3537 0.949 . S
C3542 C3548 1.368 . S
C3543 C3527 1.349 . S
C3543 H3535 0.950 . S
C3543 C3541 1.327 . S
C3544 C3532 1.349 . S
C3544 H3538 0.950 . S
C3544 C3545 1.327 . S
C3545 H3539 0.950 . S
C3545 C3544 1.327 . S
C3545 C3549 1.429 . S
C3546 C3529 1.574 . S
C3546 H3540 0.949 . S
C3546 C3550 1.368 . S
C3547 C3528 1.429 . S
C3547 C3541 1.429 . S
C3547 C3548 1.523 . S
C3548 C3529 1.368 . S
C3548 C3542 1.368 . S
C3548 C3547 1.523 . S
C3549 C3533 1.429 . S
C3549 C3545 1.429 . S
C3549 C3550 1.523 . S
C3550 C3534 1.368 . S
C3550 C3546 1.368 . S
C3550 C3549 1.523 . S
H3551 C3526 0.950 . S
H3552 C3528 0.950 . S
H3553 C3529 0.949 . S
H3554 C3531 0.950 . S
H3555 C3533 0.950 . S
C3556 C3557 1.349 . S
C3556 C3558 1.327 . S
C3556 H3581 0.950 . S
C3557 C3556 1.349 . S
C3557 C3573 1.349 . S
C3558 C3556 1.327 . S
C3558 C3577 1.429 . S
C3558 H3582 0.950 . S
C3559 C3576 1.574 . S
C3559 C3578 1.368 . S
C3559 H3583 0.949 . S
H3560 C3564 0.949 . S
C3561 C3562 1.349 . S
C3561 C3563 1.327 . S
C3561 H3584 0.950 . S
C3562 C3561 1.349 . S
C3562 C3574 1.349 . S
C3563 C3561 1.327 . S
C3563 C3579 1.429 . S
C3563 H3585 0.950 . S
C3564 H3560 0.949 . S
C3564 C3572 1.574 . S
C3564 C3580 1.368 . S
H3565 C3573 0.950 . S
H3566 C3571 0.950 . S
H3567 C3572 0.949 . S
H3568 C3574 0.950 . S
H3569 C3575 0.950 . S
H3570 C3576 0.949 . S
C3571 H3566 0.950 . S
C3571 C3573 1.327 . S
C3571 C3577 1.429 . S
C3572 C3564 1.574 . S
C3572 H3567 0.949 . S
C3572 C3578 1.368 . S
C3573 C3557 1.349 . S
C3573 H3565 0.950 . S
C3573 C3571 1.327 . S
C3574 C3562 1.349 . S
C3574 H3568 0.950 . S
C3574 C3575 1.327 . S
C3575 H3569 0.950 . S
C3575 C3574 1.327 . S
C3575 C3579 1.429 . S
C3576 C3559 1.574 . S
C3576 H3570 0.949 . S
C3576 C3580 1.368 . S
C3577 C3558 1.429 . S
C3577 C3571 1.429 . S
C3577 C3578 1.523 . S
C3578 C3559 1.368 . S
C3578 C3572 1.368 . S
C3578 C3577 1.523 . S
C3579 C3563 1.429 . S
C3579 C3575 1.429 . S
C3579 C3580 1.523 . S
C3580 C3564 1.368 . S
C3580 C3576 1.368 . S
C3580 C3579 1.523 . S
H3581 C3556 0.950 . S
H3582 C3558 0.950 . S
H3583 C3559 0.949 . S
H3584 C3561 0.950 . S
H3585 C3563 0.950 . S
C3586 C3587 1.349 . S
C3586 C3588 1.327 . S
C3586 H3611 0.950 . S
C3587 C3586 1.349 . S
C3587 C3603 1.349 . S
C3588 C3586 1.327 . S
C3588 C3607 1.429 . S
C3588 H3612 0.950 . S
C3589 C3606 1.574 . S
C3589 C3608 1.368 . S
C3589 H3613 0.949 . S
H3590 C3594 0.949 . S
C3591 C3592 1.349 . S
C3591 C3593 1.327 . S
C3591 H3614 0.950 . S
C3592 C3591 1.349 . S
C3592 C3604 1.349 . S
C3593 C3591 1.327 . S
C3593 C3609 1.429 . S
C3593 H3615 0.950 . S
C3594 H3590 0.949 . S
C3594 C3602 1.574 . S
C3594 C3610 1.368 . S
H3595 C3603 0.950 . S
H3596 C3601 0.950 . S
H3597 C3602 0.949 . S
H3598 C3604 0.950 . S
H3599 C3605 0.950 . S
H3600 C3606 0.949 . S
C3601 H3596 0.950 . S
C3601 C3603 1.327 . S
C3601 C3607 1.429 . S
C3602 C3594 1.574 . S
C3602 H3597 0.949 . S
C3602 C3608 1.368 . S
C3603 C3587 1.349 . S
C3603 H3595 0.950 . S
C3603 C3601 1.327 . S
C3604 C3592 1.349 . S
C3604 H3598 0.950 . S
C3604 C3605 1.327 . S
C3605 H3599 0.950 . S
C3605 C3604 1.327 . S
C3605 C3609 1.429 . S
C3606 C3589 1.574 . S
C3606 H3600 0.949 . S
C3606 C3610 1.368 . S
C3607 C3588 1.429 . S
C3607 C3601 1.429 . S
C3607 C3608 1.523 . S
C3608 C3589 1.368 . S
C3608 C3602 1.368 . S
C3608 C3607 1.523 . S
C3609 C3593 1.429 . S
C3609 C3605 1.429 . S
C3609 C3610 1.523 . S
C3610 C3594 1.368 . S
C3610 C3606 1.368 . S
C3610 C3609 1.523 . S
H3611 C3586 0.950 . S
H3612 C3588 0.950 . S
H3613 C3589 0.949 . S
H3614 C3591 0.950 . S
H3615 C3593 0.950 . S
C3616 C3617 1.349 . S
C3616 C3618 1.327 . S
C3616 H3641 0.950 . S
C3617 C3616 1.349 . S
C3617 C3633 1.349 . S
C3618 C3616 1.327 . S
C3618 C3637 1.429 . S
C3618 H3642 0.950 . S
C3619 C3636 1.574 . S
C3619 C3638 1.368 . S
C3619 H3643 0.949 . S
H3620 C3624 0.949 . S
C3621 C3622 1.349 . S
C3621 C3623 1.327 . S
C3621 H3644 0.950 . S
C3622 C3621 1.349 . S
C3622 C3634 1.349 . S
C3623 C3621 1.327 . S
C3623 C3639 1.429 . S
C3623 H3645 0.950 . S
C3624 H3620 0.949 . S
C3624 C3632 1.574 . S
C3624 C3640 1.368 . S
H3625 C3633 0.950 . S
H3626 C3631 0.950 . S
H3627 C3632 0.949 . S
H3628 C3634 0.950 . S
H3629 C3635 0.950 . S
H3630 C3636 0.949 . S
C3631 H3626 0.950 . S
C3631 C3633 1.327 . S
C3631 C3637 1.429 . S
C3632 C3624 1.574 . S
C3632 H3627 0.949 . S
C3632 C3638 1.368 . S
C3633 C3617 1.349 . S
C3633 H3625 0.950 . S
C3633 C3631 1.327 . S
C3634 C3622 1.349 . S
C3634 H3628 0.950 . S
C3634 C3635 1.327 . S
C3635 H3629 0.950 . S
C3635 C3634 1.327 . S
C3635 C3639 1.429 . S
C3636 C3619 1.574 . S
C3636 H3630 0.949 . S
C3636 C3640 1.368 . S
C3637 C3618 1.429 . S
C3637 C3631 1.429 . S
C3637 C3638 1.523 . S
C3638 C3619 1.368 . S
C3638 C3632 1.368 . S
C3638 C3637 1.523 . S
C3639 C3623 1.429 . S
C3639 C3635 1.429 . S
C3639 C3640 1.523 . S
C3640 C3624 1.368 . S
C3640 C3636 1.368 . S
C3640 C3639 1.523 . S
H3641 C3616 0.950 . S
H3642 C3618 0.950 . S
H3643 C3619 0.949 . S
H3644 C3621 0.950 . S
H3645 C3623 0.950 . S
C3646 C3647 1.349 . S
C3646 C3648 1.327 . S
C3646 H3671 0.950 . S
C3647 C3646 1.349 . S
C3647 C3663 1.349 . S
C3648 C3646 1.327 . S
C3648 C3667 1.429 . S
C3648 H3672 0.950 . S
C3649 C3666 1.574 . S
C3649 C3668 1.368 . S
C3649 H3673 0.949 . S
H3650 C3654 0.949 . S
C3651 C3652 1.349 . S
C3651 C3653 1.327 . S
C3651 H3674 0.950 . S
C3652 C3651 1.349 . S
C3652 C3664 1.349 . S
C3653 C3651 1.327 . S
C3653 C3669 1.429 . S
C3653 H3675 0.950 . S
C3654 H3650 0.949 . S
C3654 C3662 1.574 . S
C3654 C3670 1.368 . S
H3655 C3663 0.950 . S
H3656 C3661 0.950 . S
H3657 C3662 0.949 . S
H3658 C3664 0.950 . S
H3659 C3665 0.950 . S
H3660 C3666 0.949 . S
C3661 H3656 0.950 . S
C3661 C3663 1.327 . S
C3661 C3667 1.429 . S
C3662 C3654 1.574 . S
C3662 H3657 0.949 . S
C3662 C3668 1.368 . S
C3663 C3647 1.349 . S
C3663 H3655 0.950 . S
C3663 C3661 1.327 . S
C3664 C3652 1.349 . S
C3664 H3658 0.950 . S
C3664 C3665 1.327 . S
C3665 H3659 0.950 . S
C3665 C3664 1.327 . S
C3665 C3669 1.429 . S
C3666 C3649 1.574 . S
C3666 H3660 0.949 . S
C3666 C3670 1.368 . S
C3667 C3648 1.429 . S
C3667 C3661 1.429 . S
C3667 C3668 1.523 . S
C3668 C3649 1.368 . S
C3668 C3662 1.368 . S
C3668 C3667 1.523 . S
C3669 C3653 1.429 . S
C3669 C3665 1.429 . S
C3669 C3670 1.523 . S
C3670 C3654 1.368 . S
C3670 C3666 1.368 . S
C3670 C3669 1.523 . S
H3671 C3646 0.950 . S
H3672 C3648 0.950 . S
H3673 C3649 0.949 . S
H3674 C3651 0.950 . S
H3675 C3653 0.950 . S
C3676 C3677 1.349 . S
C3676 C3678 1.327 . S
C3676 H3701 0.950 . S
C3677 C3676 1.349 . S
C3677 C3693 1.349 . S
C3678 C3676 1.327 . S
C3678 C3697 1.429 . S
C3678 H3702 0.950 . S
C3679 C3696 1.574 . S
C3679 C3698 1.368 . S
C3679 H3703 0.949 . S
H3680 C3684 0.949 . S
C3681 C3682 1.349 . S
C3681 C3683 1.327 . S
C3681 H3704 0.950 . S
C3682 C3681 1.349 . S
C3682 C3694 1.349 . S
C3683 C3681 1.327 . S
C3683 C3699 1.429 . S
C3683 H3705 0.950 . S
C3684 H3680 0.949 . S
C3684 C3692 1.574 . S
C3684 C3700 1.368 . S
H3685 C3693 0.950 . S
H3686 C3691 0.950 . S
H3687 C3692 0.949 . S
H3688 C3694 0.950 . S
H3689 C3695 0.950 . S
H3690 C3696 0.949 . S
C3691 H3686 0.950 . S
C3691 C3693 1.327 . S
C3691 C3697 1.429 . S
C3692 C3684 1.574 . S
C3692 H3687 0.949 . S
C3692 C3698 1.368 . S
C3693 C3677 1.349 . S
C3693 H3685 0.950 . S
C3693 C3691 1.327 . S
C3694 C3682 1.349 . S
C3694 H3688 0.950 . S
C3694 C3695 1.327 . S
C3695 H3689 0.950 . S
C3695 C3694 1.327 . S
C3695 C3699 1.429 . S
C3696 C3679 1.574 . S
C3696 H3690 0.949 . S
C3696 C3700 1.368 . S
C3697 C3678 1.429 . S
C3697 C3691 1.429 . S
C3697 C3698 1.523 . S
C3698 C3679 1.368 . S
C3698 C3692 1.368 . S
C3698 C3697 1.523 . S
C3699 C3683 1.429 . S
C3699 C3695 1.429 . S
C3699 C3700 1.523 . S
C3700 C3684 1.368 . S
C3700 C3696 1.368 . S
C3700 C3699 1.523 . S
H3701 C3676 0.950 . S
H3702 C3678 0.950 . S
H3703 C3679 0.949 . S
H3704 C3681 0.950 . S
H3705 C3683 0.950 . S
C3706 C3707 1.349 . S
C3706 C3708 1.327 . S
C3706 H3731 0.950 . S
C3707 C3706 1.349 . S
C3707 C3723 1.349 . S
C3708 C3706 1.327 . S
C3708 C3727 1.429 . S
C3708 H3732 0.950 . S
C3709 C3726 1.574 . S
C3709 C3728 1.368 . S
C3709 H3733 0.949 . S
H3710 C3714 0.949 . S
C3711 C3712 1.349 . S
C3711 C3713 1.327 . S
C3711 H3734 0.950 . S
C3712 C3711 1.349 . S
C3712 C3724 1.349 . S
C3713 C3711 1.327 . S
C3713 C3729 1.429 . S
C3713 H3735 0.950 . S
C3714 H3710 0.949 . S
C3714 C3722 1.574 . S
C3714 C3730 1.368 . S
H3715 C3723 0.950 . S
H3716 C3721 0.950 . S
H3717 C3722 0.949 . S
H3718 C3724 0.950 . S
H3719 C3725 0.950 . S
H3720 C3726 0.949 . S
C3721 H3716 0.950 . S
C3721 C3723 1.327 . S
C3721 C3727 1.429 . S
C3722 C3714 1.574 . S
C3722 H3717 0.949 . S
C3722 C3728 1.368 . S
C3723 C3707 1.349 . S
C3723 H3715 0.950 . S
C3723 C3721 1.327 . S
C3724 C3712 1.349 . S
C3724 H3718 0.950 . S
C3724 C3725 1.327 . S
C3725 H3719 0.950 . S
C3725 C3724 1.327 . S
C3725 C3729 1.429 . S
C3726 C3709 1.574 . S
C3726 H3720 0.949 . S
C3726 C3730 1.368 . S
C3727 C3708 1.429 . S
C3727 C3721 1.429 . S
C3727 C3728 1.523 . S
C3728 C3709 1.368 . S
C3728 C3722 1.368 . S
C3728 C3727 1.523 . S
C3729 C3713 1.429 . S
C3729 C3725 1.429 . S
C3729 C3730 1.523 . S
C3730 C3714 1.368 . S
C3730 C3726 1.368 . S
C3730 C3729 1.523 . S
H3731 C3706 0.950 . S
H3732 C3708 0.950 . S
H3733 C3709 0.949 . S
H3734 C3711 0.950 . S
H3735 C3713 0.950 . S
C3736 C3737 1.349 . S
C3736 C3738 1.327 . S
C3736 H3761 0.950 . S
C3737 C3736 1.349 . S
C3737 C3753 1.349 . S
C3738 C3736 1.327 . S
C3738 C3757 1.429 . S
C3738 H3762 0.950 . S
C3739 C3756 1.574 . S
C3739 C3758 1.368 . S
C3739 H3763 0.949 . S
H3740 C3744 0.949 . S
C3741 C3742 1.349 . S
C3741 C3743 1.327 . S
C3741 H3764 0.950 . S
C3742 C3741 1.349 . S
C3742 C3754 1.349 . S
C3743 C3741 1.327 . S
C3743 C3759 1.429 . S
C3743 H3765 0.950 . S
C3744 H3740 0.949 . S
C3744 C3752 1.574 . S
C3744 C3760 1.368 . S
H3745 C3753 0.950 . S
H3746 C3751 0.950 . S
H3747 C3752 0.949 . S
H3748 C3754 0.950 . S
H3749 C3755 0.950 . S
H3750 C3756 0.949 . S
C3751 H3746 0.950 . S
C3751 C3753 1.327 . S
C3751 C3757 1.429 . S
C3752 C3744 1.574 . S
C3752 H3747 0.949 . S
C3752 C3758 1.368 . S
C3753 C3737 1.349 . S
C3753 H3745 0.950 . S
C3753 C3751 1.327 . S
C3754 C3742 1.349 . S
C3754 H3748 0.950 . S
C3754 C3755 1.327 . S
C3755 H3749 0.950 . S
C3755 C3754 1.327 . S
C3755 C3759 1.429 . S
C3756 C3739 1.574 . S
C3756 H3750 0.949 . S
C3756 C3760 1.368 . S
C3757 C3738 1.429 . S
C3757 C3751 1.429 . S
C3757 C3758 1.523 . S
C3758 C3739 1.368 . S
C3758 C3752 1.368 . S
C3758 C3757 1.523 . S
C3759 C3743 1.429 . S
C3759 C3755 1.429 . S
C3759 C3760 1.523 . S
C3760 C3744 1.368 . S
C3760 C3756 1.368 . S
C3760 C3759 1.523 . S
H3761 C3736 0.950 . S
H3762 C3738 0.950 . S
H3763 C3739 0.949 . S
H3764 C3741 0.950 . S
H3765 C3743 0.950 . S
C3766 C3767 1.349 . S
C3766 C3768 1.327 . S
C3766 H3791 0.950 . S
C3767 C3766 1.349 . S
C3767 C3783 1.349 . S
C3768 C3766 1.327 . S
C3768 C3787 1.429 . S
C3768 H3792 0.950 . S
C3769 C3786 1.574 . S
C3769 C3788 1.368 . S
C3769 H3793 0.949 . S
H3770 C3774 0.949 . S
C3771 C3772 1.349 . S
C3771 C3773 1.327 . S
C3771 H3794 0.950 . S
C3772 C3771 1.349 . S
C3772 C3784 1.349 . S
C3773 C3771 1.327 . S
C3773 C3789 1.429 . S
C3773 H3795 0.950 . S
C3774 H3770 0.949 . S
C3774 C3782 1.574 . S
C3774 C3790 1.368 . S
H3775 C3783 0.950 . S
H3776 C3781 0.950 . S
H3777 C3782 0.949 . S
H3778 C3784 0.950 . S
H3779 C3785 0.950 . S
H3780 C3786 0.949 . S
C3781 H3776 0.950 . S
C3781 C3783 1.327 . S
C3781 C3787 1.429 . S
C3782 C3774 1.574 . S
C3782 H3777 0.949 . S
C3782 C3788 1.368 . S
C3783 C3767 1.349 . S
C3783 H3775 0.950 . S
C3783 C3781 1.327 . S
C3784 C3772 1.349 . S
C3784 H3778 0.950 . S
C3784 C3785 1.327 . S
C3785 H3779 0.950 . S
C3785 C3784 1.327 . S
C3785 C3789 1.429 . S
C3786 C3769 1.574 . S
C3786 H3780 0.949 . S
C3786 C3790 1.368 . S
C3787 C3768 1.429 . S
C3787 C3781 1.429 . S
C3787 C3788 1.523 . S
C3788 C3769 1.368 . S
C3788 C3782 1.368 . S
C3788 C3787 1.523 . S
C3789 C3773 1.429 . S
C3789 C3785 1.429 . S
C3789 C3790 1.523 . S
C3790 C3774 1.368 . S
C3790 C3786 1.368 . S
C3790 C3789 1.523 . S
H3791 C3766 0.950 . S
H3792 C3768 0.950 . S
H3793 C3769 0.949 . S
H3794 C3771 0.950 . S
H3795 C3773 0.950 . S
C3796 C3797 1.349 . S
C3796 C3798 1.327 . S
C3796 H3821 0.950 . S
C3797 C3796 1.349 . S
C3797 C3813 1.349 . S
C3798 C3796 1.327 . S
C3798 C3817 1.429 . S
C3798 H3822 0.950 . S
C3799 C3816 1.574 . S
C3799 C3818 1.368 . S
C3799 H3823 0.949 . S
H3800 C3804 0.949 . S
C3801 C3802 1.349 . S
C3801 C3803 1.327 . S
C3801 H3824 0.950 . S
C3802 C3801 1.349 . S
C3802 C3814 1.349 . S
C3803 C3801 1.327 . S
C3803 C3819 1.429 . S
C3803 H3825 0.950 . S
C3804 H3800 0.949 . S
C3804 C3812 1.574 . S
C3804 C3820 1.368 . S
H3805 C3813 0.950 . S
H3806 C3811 0.950 . S
H3807 C3812 0.949 . S
H3808 C3814 0.950 . S
H3809 C3815 0.950 . S
H3810 C3816 0.949 . S
C3811 H3806 0.950 . S
C3811 C3813 1.327 . S
C3811 C3817 1.429 . S
C3812 C3804 1.574 . S
C3812 H3807 0.949 . S
C3812 C3818 1.368 . S
C3813 C3797 1.349 . S
C3813 H3805 0.950 . S
C3813 C3811 1.327 . S
C3814 C3802 1.349 . S
C3814 H3808 0.950 . S
C3814 C3815 1.327 . S
C3815 H3809 0.950 . S
C3815 C3814 1.327 . S
C3815 C3819 1.429 . S
C3816 C3799 1.574 . S
C3816 H3810 0.949 . S
C3816 C3820 1.368 . S
C3817 C3798 1.429 . S
C3817 C3811 1.429 . S
C3817 C3818 1.523 . S
C3818 C3799 1.368 . S
C3818 C3812 1.368 . S
C3818 C3817 1.523 . S
C3819 C3803 1.429 . S
C3819 C3815 1.429 . S
C3819 C3820 1.523 . S
C3820 C3804 1.368 . S
C3820 C3816 1.368 . S
C3820 C3819 1.523 . S
H3821 C3796 0.950 . S
H3822 C3798 0.950 . S
H3823 C3799 0.949 . S
H3824 C3801 0.950 . S
H3825 C3803 0.950 . S
C3826 C3827 1.349 . S
C3826 C3828 1.327 . S
C3826 H3851 0.950 . S
C3827 C3826 1.349 . S
C3827 C3843 1.349 . S
C3828 C3826 1.327 . S
C3828 C3847 1.429 . S
C3828 H3852 0.950 . S
C3829 C3846 1.574 . S
C3829 C3848 1.368 . S
C3829 H3853 0.949 . S
H3830 C3834 0.949 . S
C3831 C3832 1.349 . S
C3831 C3833 1.327 . S
C3831 H3854 0.950 . S
C3832 C3831 1.349 . S
C3832 C3844 1.349 . S
C3833 C3831 1.327 . S
C3833 C3849 1.429 . S
C3833 H3855 0.950 . S
C3834 H3830 0.949 . S
C3834 C3842 1.574 . S
C3834 C3850 1.368 . S
H3835 C3843 0.950 . S
H3836 C3841 0.950 . S
H3837 C3842 0.949 . S
H3838 C3844 0.950 . S
H3839 C3845 0.950 . S
H3840 C3846 0.949 . S
C3841 H3836 0.950 . S
C3841 C3843 1.327 . S
C3841 C3847 1.429 . S
C3842 C3834 1.574 . S
C3842 H3837 0.949 . S
C3842 C3848 1.368 . S
C3843 C3827 1.349 . S
C3843 H3835 0.950 . S
C3843 C3841 1.327 . S
C3844 C3832 1.349 . S
C3844 H3838 0.950 . S
C3844 C3845 1.327 . S
C3845 H3839 0.950 . S
C3845 C3844 1.327 . S
C3845 C3849 1.429 . S
C3846 C3829 1.574 . S
C3846 H3840 0.949 . S
C3846 C3850 1.368 . S
C3847 C3828 1.429 . S
C3847 C3841 1.429 . S
C3847 C3848 1.523 . S
C3848 C3829 1.368 . S
C3848 C3842 1.368 . S
C3848 C3847 1.523 . S
C3849 C3833 1.429 . S
C3849 C3845 1.429 . S
C3849 C3850 1.523 . S
C3850 C3834 1.368 . S
C3850 C3846 1.368 . S
C3850 C3849 1.523 . S
H3851 C3826 0.950 . S
H3852 C3828 0.950 . S
H3853 C3829 0.949 . S
H3854 C3831 0.950 . S
H3855 C3833 0.950 . S
C3856 C3857 1.349 . S
C3856 C3858 1.327 . S
C3856 H3881 0.950 . S
C3857 C3856 1.349 . S
C3857 C3873 1.349 . S
C3858 C3856 1.327 . S
C3858 C3877 1.429 . S
C3858 H3882 0.950 . S
C3859 C3876 1.574 . S
C3859 C3878 1.368 . S
C3859 H3883 0.949 . S
H3860 C3864 0.949 . S
C3861 C3862 1.349 . S
C3861 C3863 1.327 . S
C3861 H3884 0.950 . S
C3862 C3861 1.349 . S
C3862 C3874 1.349 . S
C3863 C3861 1.327 . S
C3863 C3879 1.429 . S
C3863 H3885 0.950 . S
C3864 H3860 0.949 . S
C3864 C3872 1.574 . S
C3864 C3880 1.368 . S
H3865 C3873 0.950 . S
H3866 C3871 0.950 . S
H3867 C3872 0.949 . S
H3868 C3874 0.950 . S
H3869 C3875 0.950 . S
H3870 C3876 0.949 . S
C3871 H3866 0.950 . S
C3871 C3873 1.327 . S
C3871 C3877 1.429 . S
C3872 C3864 1.574 . S
C3872 H3867 0.949 . S
C3872 C3878 1.368 . S
C3873 C3857 1.349 . S
C3873 H3865 0.950 . S
C3873 C3871 1.327 . S
C3874 C3862 1.349 . S
C3874 H3868 0.950 . S
C3874 C3875 1.327 . S
C3875 H3869 0.950 . S
C3875 C3874 1.327 . S
C3875 C3879 1.429 . S
C3876 C3859 1.574 . S
C3876 H3870 0.949 . S
C3876 C3880 1.368 . S
C3877 C3858 1.429 . S
C3877 C3871 1.429 . S
C3877 C3878 1.523 . S
C3878 C3859 1.368 . S
C3878 C3872 1.368 . S
C3878 C3877 1.523 . S
C3879 C3863 1.429 . S
C3879 C3875 1.429 . S
C3879 C3880 1.523 . S
C3880 C3864 1.368 . S
C3880 C3876 1.368 . S
C3880 C3879 1.523 . S
H3881 C3856 0.950 . S
H3882 C3858 0.950 . S
H3883 C3859 0.949 . S
H3884 C3861 0.950 . S
H3885 C3863 0.950 . S
C3886 C3887 1.349 . S
C3886 C3888 1.327 . S
C3886 H3911 0.950 . S
C3887 C3886 1.349 . S
C3887 C3903 1.349 . S
C3888 C3886 1.327 . S
C3888 C3907 1.429 . S
C3888 H3912 0.950 . S
C3889 C3906 1.574 . S
C3889 C3908 1.368 . S
C3889 H3913 0.949 . S
H3890 C3894 0.949 . S
C3891 C3892 1.349 . S
C3891 C3893 1.327 . S
C3891 H3914 0.950 . S
C3892 C3891 1.349 . S
C3892 C3904 1.349 . S
C3893 C3891 1.327 . S
C3893 C3909 1.429 . S
C3893 H3915 0.950 . S
C3894 H3890 0.949 . S
C3894 C3902 1.574 . S
C3894 C3910 1.368 . S
H3895 C3903 0.950 . S
H3896 C3901 0.950 . S
H3897 C3902 0.949 . S
H3898 C3904 0.950 . S
H3899 C3905 0.950 . S
H3900 C3906 0.949 . S
C3901 H3896 0.950 . S
C3901 C3903 1.327 . S
C3901 C3907 1.429 . S
C3902 C3894 1.574 . S
C3902 H3897 0.949 . S
C3902 C3908 1.368 . S
C3903 C3887 1.349 . S
C3903 H3895 0.950 . S
C3903 C3901 1.327 . S
C3904 C3892 1.349 . S
C3904 H3898 0.950 . S
C3904 C3905 1.327 . S
C3905 H3899 0.950 . S
C3905 C3904 1.327 . S
C3905 C3909 1.429 . S
C3906 C3889 1.574 . S
C3906 H3900 0.949 . S
C3906 C3910 1.368 . S
C3907 C3888 1.429 . S
C3907 C3901 1.429 . S
C3907 C3908 1.523 . S
C3908 C3889 1.368 . S
C3908 C3902 1.368 . S
C3908 C3907 1.523 . S
C3909 C3893 1.429 . S
C3909 C3905 1.429 . S
C3909 C3910 1.523 . S
C3910 C3894 1.368 . S
C3910 C3906 1.368 . S
C3910 C3909 1.523 . S
H3911 C3886 0.950 . S
H3912 C3888 0.950 . S
H3913 C3889 0.949 . S
H3914 C3891 0.950 . S
H3915 C3893 0.950 . S
C3916 C3917 1.349 . S
C3916 C3918 1.327 . S
C3916 H3941 0.950 . S
C3917 C3916 1.349 . S
C3917 C3933 1.349 . S
C3918 C3916 1.327 . S
C3918 C3937 1.429 . S
C3918 H3942 0.950 . S
C3919 C3936 1.574 . S
C3919 C3938 1.368 . S
C3919 H3943 0.949 . S
H3920 C3924 0.949 . S
C3921 C3922 1.349 . S
C3921 C3923 1.327 . S
C3921 H3944 0.950 . S
C3922 C3921 1.349 . S
C3922 C3934 1.349 . S
C3923 C3921 1.327 . S
C3923 C3939 1.429 . S
C3923 H3945 0.950 . S
C3924 H3920 0.949 . S
C3924 C3932 1.574 . S
C3924 C3940 1.368 . S
H3925 C3933 0.950 . S
H3926 C3931 0.950 . S
H3927 C3932 0.949 . S
H3928 C3934 0.950 . S
H3929 C3935 0.950 . S
H3930 C3936 0.949 . S
C3931 H3926 0.950 . S
C3931 C3933 1.327 . S
C3931 C3937 1.429 . S
C3932 C3924 1.574 . S
C3932 H3927 0.949 . S
C3932 C3938 1.368 . S
C3933 C3917 1.349 . S
C3933 H3925 0.950 . S
C3933 C3931 1.327 . S
C3934 C3922 1.349 . S
C3934 H3928 0.950 . S
C3934 C3935 1.327 . S
C3935 H3929 0.950 . S
C3935 C3934 1.327 . S
C3935 C3939 1.429 . S
C3936 C3919 1.574 . S
C3936 H3930 0.949 . S
C3936 C3940 1.368 . S
C3937 C3918 1.429 . S
C3937 C3931 1.429 . S
C3937 C3938 1.523 . S
C3938 C3919 1.368 . S
C3938 C3932 1.368 . S
C3938 C3937 1.523 . S
C3939 C3923 1.429 . S
C3939 C3935 1.429 . S
C3939 C3940 1.523 . S
C3940 C3924 1.368 . S
C3940 C3936 1.368 . S
C3940 C3939 1.523 . S
H3941 C3916 0.950 . S
H3942 C3918 0.950 . S
H3943 C3919 0.949 . S
H3944 C3921 0.950 . S
H3945 C3923 0.950 . S
C3946 C3947 1.349 . S
C3946 C3948 1.327 . S
C3946 H3971 0.950 . S
C3947 C3946 1.349 . S
C3947 C3963 1.349 . S
C3948 C3946 1.327 . S
C3948 C3967 1.429 . S
C3948 H3972 0.950 . S
C3949 C3966 1.574 . S
C3949 C3968 1.368 . S
C3949 H3973 0.949 . S
H3950 C3954 0.949 . S
C3951 C3952 1.349 . S
C3951 C3953 1.327 . S
C3951 H3974 0.950 . S
C3952 C3951 1.349 . S
C3952 C3964 1.349 . S
C3953 C3951 1.327 . S
C3953 C3969 1.429 . S
C3953 H3975 0.950 . S
C3954 H3950 0.949 . S
C3954 C3962 1.574 . S
C3954 C3970 1.368 . S
H3955 C3963 0.950 . S
H3956 C3961 0.950 . S
H3957 C3962 0.949 . S
H3958 C3964 0.950 . S
H3959 C3965 0.950 . S
H3960 C3966 0.949 . S
C3961 H3956 0.950 . S
C3961 C3963 1.327 . S
C3961 C3967 1.429 . S
C3962 C3954 1.574 . S
C3962 H3957 0.949 . S
C3962 C3968 1.368 . S
C3963 C3947 1.349 . S
C3963 H3955 0.950 . S
C3963 C3961 1.327 . S
C3964 C3952 1.349 . S
C3964 H3958 0.950 . S
C3964 C3965 1.327 . S
C3965 H3959 0.950 . S
C3965 C3964 1.327 . S
C3965 C3969 1.429 . S
C3966 C3949 1.574 . S
C3966 H3960 0.949 . S
C3966 C3970 1.368 . S
C3967 C3948 1.429 . S
C3967 C3961 1.429 . S
C3967 C3968 1.523 . S
C3968 C3949 1.368 . S
C3968 C3962 1.368 . S
C3968 C3967 1.523 . S
C3969 C3953 1.429 . S
C3969 C3965 1.429 . S
C3969 C3970 1.523 . S
C3970 C3954 1.368 . S
C3970 C3966 1.368 . S
C3970 C3969 1.523 . S
H3971 C3946 0.950 . S
H3972 C3948 0.950 . S
H3973 C3949 0.949 . S
H3974 C3951 0.950 . S
H3975 C3953 0.950 . S
C3976 C3977 1.349 . S
C3976 C3978 1.327 . S
C3976 H4001 0.950 . S
C3977 C3976 1.349 . S
C3977 C3993 1.349 . S
C3978 C3976 1.327 . S
C3978 C3997 1.429 . S
C3978 H4002 0.950 . S
C3979 C3996 1.574 . S
C3979 C3998 1.368 . S
C3979 H4003 0.949 . S
H3980 C3984 0.949 . S
C3981 C3982 1.349 . S
C3981 C3983 1.327 . S
C3981 H4004 0.950 . S
C3982 C3981 1.349 . S
C3982 C3994 1.349 . S
C3983 C3981 1.327 . S
C3983 C3999 1.429 . S
C3983 H4005 0.950 . S
C3984 H3980 0.949 . S
C3984 C3992 1.574 . S
C3984 C4000 1.368 . S
H3985 C3993 0.950 . S
H3986 C3991 0.950 . S
H3987 C3992 0.949 . S
H3988 C3994 0.950 . S
H3989 C3995 0.950 . S
H3990 C3996 0.949 . S
C3991 H3986 0.950 . S
C3991 C3993 1.327 . S
C3991 C3997 1.429 . S
C3992 C3984 1.574 . S
C3992 H3987 0.949 . S
C3992 C3998 1.368 . S
C3993 C3977 1.349 . S
C3993 H3985 0.950 . S
C3993 C3991 1.327 . S
C3994 C3982 1.349 . S
C3994 H3988 0.950 . S
C3994 C3995 1.327 . S
C3995 H3989 0.950 . S
C3995 C3994 1.327 . S
C3995 C3999 1.429 . S
C3996 C3979 1.574 . S
C3996 H3990 0.949 . S
C3996 C4000 1.368 . S
C3997 C3978 1.429 . S
C3997 C3991 1.429 . S
C3997 C3998 1.523 . S
C3998 C3979 1.368 . S
C3998 C3992 1.368 . S
C3998 C3997 1.523 . S
C3999 C3983 1.429 . S
C3999 C3995 1.429 . S
C3999 C4000 1.523 . S
C4000 C3984 1.368 . S
C4000 C3996 1.368 . S
C4000 C3999 1.523 . S
H4001 C3976 0.950 . S
H4002 C3978 0.950 . S
H4003 C3979 0.949 . S
H4004 C3981 0.950 . S
H4005 C3983 0.950 . S
C4006 C4007 1.349 . S
C4006 C4008 1.327 . S
C4006 H4031 0.950 . S
C4007 C4006 1.349 . S
C4007 C4023 1.349 . S
C4008 C4006 1.327 . S
C4008 C4027 1.429 . S
C4008 H4032 0.950 . S
C4009 C4026 1.574 . S
C4009 C4028 1.368 . S
C4009 H4033 0.949 . S
H4010 C4014 0.949 . S
C4011 C4012 1.349 . S
C4011 C4013 1.327 . S
C4011 H4034 0.950 . S
C4012 C4011 1.349 . S
C4012 C4024 1.349 . S
C4013 C4011 1.327 . S
C4013 C4029 1.429 . S
C4013 H4035 0.950 . S
C4014 H4010 0.949 . S
C4014 C4022 1.574 . S
C4014 C4030 1.368 . S
H4015 C4023 0.950 . S
H4016 C4021 0.950 . S
H4017 C4022 0.949 . S
H4018 C4024 0.950 . S
H4019 C4025 0.950 . S
H4020 C4026 0.949 . S
C4021 H4016 0.950 . S
C4021 C4023 1.327 . S
C4021 C4027 1.429 . S
C4022 C4014 1.574 . S
C4022 H4017 0.949 . S
C4022 C4028 1.368 . S
C4023 C4007 1.349 . S
C4023 H4015 0.950 . S
C4023 C4021 1.327 . S
C4024 C4012 1.349 . S
C4024 H4018 0.950 . S
C4024 C4025 1.327 . S
C4025 H4019 0.950 . S
C4025 C4024 1.327 . S
C4025 C4029 1.429 . S
C4026 C4009 1.574 . S
C4026 H4020 0.949 . S
C4026 C4030 1.368 . S
C4027 C4008 1.429 . S
C4027 C4021 1.429 . S
C4027 C4028 1.523 . S
C4028 C4009 1.368 . S
C4028 C4022 1.368 . S
C4028 C4027 1.523 . S
C4029 C4013 1.429 . S
C4029 C4025 1.429 . S
C4029 C4030 1.523 . S
C4030 C4014 1.368 . S
C4030 C4026 1.368 . S
C4030 C4029 1.523 . S
H4031 C4006 0.950 . S
H4032 C4008 0.950 . S
H4033 C4009 0.949 . S
H4034 C4011 0.950 . S
H4035 C4013 0.950 . S
C4036 C4037 1.349 . S
C4036 C4038 1.327 . S
C4036 H4061 0.950 . S
C4037 C4036 1.349 . S
C4037 C4053 1.349 . S
C4038 C4036 1.327 . S
C4038 C4057 1.429 . S
C4038 H4062 0.950 . S
C4039 C4056 1.574 . S
C4039 C4058 1.368 . S
C4039 H4063 0.949 . S
H4040 C4044 0.949 . S
C4041 C4042 1.349 . S
C4041 C4043 1.327 . S
C4041 H4064 0.950 . S
C4042 C4041 1.349 . S
C4042 C4054 1.349 . S
C4043 C4041 1.327 . S
C4043 C4059 1.429 . S
C4043 H4065 0.950 . S
C4044 H4040 0.949 . S
C4044 C4052 1.574 . S
C4044 C4060 1.368 . S
H4045 C4053 0.950 . S
H4046 C4051 0.950 . S
H4047 C4052 0.949 . S
H4048 C4054 0.950 . S
H4049 C4055 0.950 . S
H4050 C4056 0.949 . S
C4051 H4046 0.950 . S
C4051 C4053 1.327 . S
C4051 C4057 1.429 . S
C4052 C4044 1.574 . S
C4052 H4047 0.949 . S
C4052 C4058 1.368 . S
C4053 C4037 1.349 . S
C4053 H4045 0.950 . S
C4053 C4051 1.327 . S
C4054 C4042 1.349 . S
C4054 H4048 0.950 . S
C4054 C4055 1.327 . S
C4055 H4049 0.950 . S
C4055 C4054 1.327 . S
C4055 C4059 1.429 . S
C4056 C4039 1.574 . S
C4056 H4050 0.949 . S
C4056 C4060 1.368 . S
C4057 C4038 1.429 . S
C4057 C4051 1.429 . S
C4057 C4058 1.523 . S
C4058 C4039 1.368 . S
C4058 C4052 1.368 . S
C4058 C4057 1.523 . S
C4059 C4043 1.429 . S
C4059 C4055 1.429 . S
C4059 C4060 1.523 . S
C4060 C4044 1.368 . S
C4060 C4056 1.368 . S
C4060 C4059 1.523 . S
H4061 C4036 0.950 . S
H4062 C4038 0.950 . S
H4063 C4039 0.949 . S
H4064 C4041 0.950 . S
H4065 C4043 0.950 . S
C4066 C4067 1.349 . S
C4066 C4068 1.327 . S
C4066 H4091 0.950 . S
C4067 C4066 1.349 . S
C4067 C4083 1.349 . S
C4068 C4066 1.327 . S
C4068 C4087 1.429 . S
C4068 H4092 0.950 . S
C4069 C4086 1.574 . S
C4069 C4088 1.368 . S
C4069 H4093 0.949 . S
H4070 C4074 0.949 . S
C4071 C4072 1.349 . S
C4071 C4073 1.327 . S
C4071 H4094 0.950 . S
C4072 C4071 1.349 . S
C4072 C4084 1.349 . S
C4073 C4071 1.327 . S
C4073 C4089 1.429 . S
C4073 H4095 0.950 . S
C4074 H4070 0.949 . S
C4074 C4082 1.574 . S
C4074 C4090 1.368 . S
H4075 C4083 0.950 . S
H4076 C4081 0.950 . S
H4077 C4082 0.949 . S
H4078 C4084 0.950 . S
H4079 C4085 0.950 . S
H4080 C4086 0.949 . S
C4081 H4076 0.950 . S
C4081 C4083 1.327 . S
C4081 C4087 1.429 . S
C4082 C4074 1.574 . S
C4082 H4077 0.949 . S
C4082 C4088 1.368 . S
C4083 C4067 1.349 . S
C4083 H4075 0.950 . S
C4083 C4081 1.327 . S
C4084 C4072 1.349 . S
C4084 H4078 0.950 . S
C4084 C4085 1.327 . S
C4085 H4079 0.950 . S
C4085 C4084 1.327 . S
C4085 C4089 1.429 . S
C4086 C4069 1.574 . S
C4086 H4080 0.949 . S
C4086 C4090 1.368 . S
C4087 C4068 1.429 . S
C4087 C4081 1.429 . S
C4087 C4088 1.523 . S
C4088 C4069 1.368 . S
C4088 C4082 1.368 . S
C4088 C4087 1.523 . S
C4089 C4073 1.429 . S
C4089 C4085 1.429 . S
C4089 C4090 1.523 . S
C4090 C4074 1.368 . S
C4090 C4086 1.368 . S
C4090 C4089 1.523 . S
H4091 C4066 0.950 . S
H4092 C4068 0.950 . S
H4093 C4069 0.949 . S
H4094 C4071 0.950 . S
H4095 C4073 0.950 . S
C4096 C4097 1.349 . S
C4096 C4098 1.327 . S
C4096 H4121 0.950 . S
C4097 C4096 1.349 . S
C4097 C4113 1.349 . S
C4098 C4096 1.327 . S
C4098 C4117 1.429 . S
C4098 H4122 0.950 . S
C4099 C4116 1.574 . S
C4099 C4118 1.368 . S
C4099 H4123 0.949 . S
H4100 C4104 0.949 . S
C4101 C4102 1.349 . S
C4101 C4103 1.327 . S
C4101 H4124 0.950 . S
C4102 C4101 1.349 . S
C4102 C4114 1.349 . S
C4103 C4101 1.327 . S
C4103 C4119 1.429 . S
C4103 H4125 0.950 . S
C4104 H4100 0.949 . S
C4104 C4112 1.574 . S
C4104 C4120 1.368 . S
H4105 C4113 0.950 . S
H4106 C4111 0.950 . S
H4107 C4112 0.949 . S
H4108 C4114 0.950 . S
H4109 C4115 0.950 . S
H4110 C4116 0.949 . S
C4111 H4106 0.950 . S
C4111 C4113 1.327 . S
C4111 C4117 1.429 . S
C4112 C4104 1.574 . S
C4112 H4107 0.949 . S
C4112 C4118 1.368 . S
C4113 C4097 1.349 . S
C4113 H4105 0.950 . S
C4113 C4111 1.327 . S
C4114 C4102 1.349 . S
C4114 H4108 0.950 . S
C4114 C4115 1.327 . S
C4115 H4109 0.950 . S
C4115 C4114 1.327 . S
C4115 C4119 1.429 . S
C4116 C4099 1.574 . S
C4116 H4110 0.949 . S
C4116 C4120 1.368 . S
C4117 C4098 1.429 . S
C4117 C4111 1.429 . S
C4117 C4118 1.523 . S
C4118 C4099 1.368 . S
C4118 C4112 1.368 . S
C4118 C4117 1.523 . S
C4119 C4103 1.429 . S
C4119 C4115 1.429 . S
C4119 C4120 1.523 . S
C4120 C4104 1.368 . S
C4120 C4116 1.368 . S
C4120 C4119 1.523 . S
H4121 C4096 0.950 . S
H4122 C4098 0.950 . S
H4123 C4099 0.949 . S
H4124 C4101 0.950 . S
H4125 C4103 0.950 . S
C4126 C4127 1.349 . S
C4126 C4128 1.327 . S
C4126 H4151 0.950 . S
C4127 C4126 1.349 . S
C4127 C4143 1.349 . S
C4128 C4126 1.327 . S
C4128 C4147 1.429 . S
C4128 H4152 0.950 . S
C4129 C4146 1.574 . S
C4129 C4148 1.368 . S
C4129 H4153 0.949 . S
H4130 C4134 0.949 . S
C4131 C4132 1.349 . S
C4131 C4133 1.327 . S
C4131 H4154 0.950 . S
C4132 C4131 1.349 . S
C4132 C4144 1.349 . S
C4133 C4131 1.327 . S
C4133 C4149 1.429 . S
C4133 H4155 0.950 . S
C4134 H4130 0.949 . S
C4134 C4142 1.574 . S
C4134 C4150 1.368 . S
H4135 C4143 0.950 . S
H4136 C4141 0.950 . S
H4137 C4142 0.949 . S
H4138 C4144 0.950 . S
H4139 C4145 0.950 . S
H4140 C4146 0.949 . S
C4141 H4136 0.950 . S
C4141 C4143 1.327 . S
C4141 C4147 1.429 . S
C4142 C4134 1.574 . S
C4142 H4137 0.949 . S
C4142 C4148 1.368 . S
C4143 C4127 1.349 . S
C4143 H4135 0.950 . S
C4143 C4141 1.327 . S
C4144 C4132 1.349 . S
C4144 H4138 0.950 . S
C4144 C4145 1.327 . S
C4145 H4139 0.950 . S
C4145 C4144 1.327 . S
C4145 C4149 1.429 . S
C4146 C4129 1.574 . S
C4146 H4140 0.949 . S
C4146 C4150 1.368 . S
C4147 C4128 1.429 . S
C4147 C4141 1.429 . S
C4147 C4148 1.523 . S
C4148 C4129 1.368 . S
C4148 C4142 1.368 . S
C4148 C4147 1.523 . S
C4149 C4133 1.429 . S
C4149 C4145 1.429 . S
C4149 C4150 1.523 . S
C4150 C4134 1.368 . S
C4150 C4146 1.368 . S
C4150 C4149 1.523 . S
H4151 C4126 0.950 . S
H4152 C4128 0.950 . S
H4153 C4129 0.949 . S
H4154 C4131 0.950 . S
H4155 C4133 0.950 . S
C4156 C4157 1.349 . S
C4156 C4158 1.327 . S
C4156 H4181 0.950 . S
C4157 C4156 1.349 . S
C4157 C4173 1.349 . S
C4158 C4156 1.327 . S
C4158 C4177 1.429 . S
C4158 H4182 0.950 . S
C4159 C4176 1.574 . S
C4159 C4178 1.368 . S
C4159 H4183 0.949 . S
H4160 C4164 0.949 . S
C4161 C4162 1.349 . S
C4161 C4163 1.327 . S
C4161 H4184 0.950 . S
C4162 C4161 1.349 . S
C4162 C4174 1.349 . S
C4163 C4161 1.327 . S
C4163 C4179 1.429 . S
C4163 H4185 0.950 . S
C4164 H4160 0.949 . S
C4164 C4172 1.574 . S
C4164 C4180 1.368 . S
H4165 C4173 0.950 . S
H4166 C4171 0.950 . S
H4167 C4172 0.949 . S
H4168 C4174 0.950 . S
H4169 C4175 0.950 . S
H4170 C4176 0.949 . S
C4171 H4166 0.950 . S
C4171 C4173 1.327 . S
C4171 C4177 1.429 . S
C4172 C4164 1.574 . S
C4172 H4167 0.949 . S
C4172 C4178 1.368 . S
C4173 C4157 1.349 . S
C4173 H4165 0.950 . S
C4173 C4171 1.327 . S
C4174 C4162 1.349 . S
C4174 H4168 0.950 . S
C4174 C4175 1.327 . S
C4175 H4169 0.950 . S
C4175 C4174 1.327 . S
C4175 C4179 1.429 . S
C4176 C4159 1.574 . S
C4176 H4170 0.949 . S
C4176 C4180 1.368 . S
C4177 C4158 1.429 . S
C4177 C4171 1.429 . S
C4177 C4178 1.523 . S
C4178 C4159 1.368 . S
C4178 C4172 1.368 . S
C4178 C4177 1.523 . S
C4179 C4163 1.429 . S
C4179 C4175 1.429 . S
C4179 C4180 1.523 . S
C4180 C4164 1.368 . S
C4180 C4176 1.368 . S
C4180 C4179 1.523 . S
H4181 C4156 0.950 . S
H4182 C4158 0.950 . S
H4183 C4159 0.949 . S
H4184 C4161 0.950 . S
H4185 C4163 0.950 . S
C4186 C4187 1.349 . S
C4186 C4188 1.327 . S
C4186 H4211 0.950 . S
C4187 C4186 1.349 . S
C4187 C4203 1.349 . S
C4188 C4186 1.327 . S
C4188 C4207 1.429 . S
C4188 H4212 0.950 . S
C4189 C4206 1.574 . S
C4189 C4208 1.368 . S
C4189 H4213 0.949 . S
H4190 C4194 0.949 . S
C4191 C4192 1.349 . S
C4191 C4193 1.327 . S
C4191 H4214 0.950 . S
C4192 C4191 1.349 . S
C4192 C4204 1.349 . S
C4193 C4191 1.327 . S
C4193 C4209 1.429 . S
C4193 H4215 0.950 . S
C4194 H4190 0.949 . S
C4194 C4202 1.574 . S
C4194 C4210 1.368 . S
H4195 C4203 0.950 . S
H4196 C4201 0.950 . S
H4197 C4202 0.949 . S
H4198 C4204 0.950 . S
H4199 C4205 0.950 . S
H4200 C4206 0.949 . S
C4201 H4196 0.950 . S
C4201 C4203 1.327 . S
C4201 C4207 1.429 . S
C4202 C4194 1.574 . S
C4202 H4197 0.949 . S
C4202 C4208 1.368 . S
C4203 C4187 1.349 . S
C4203 H4195 0.950 . S
C4203 C4201 1.327 . S
C4204 C4192 1.349 . S
C4204 H4198 0.950 . S
C4204 C4205 1.327 . S
C4205 H4199 0.950 . S
C4205 C4204 1.327 . S
C4205 C4209 1.429 . S
C4206 C4189 1.574 . S
C4206 H4200 0.949 . S
C4206 C4210 1.368 . S
C4207 C4188 1.429 . S
C4207 C4201 1.429 . S
C4207 C4208 1.523 . S
C4208 C4189 1.368 . S
C4208 C4202 1.368 . S
C4208 C4207 1.523 . S
C4209 C4193 1.429 . S
C4209 C4205 1.429 . S
C4209 C4210 1.523 . S
C4210 C4194 1.368 . S
C4210 C4206 1.368 . S
C4210 C4209 1.523 . S
H4211 C4186 0.950 . S
H4212 C4188 0.950 . S
H4213 C4189 0.949 . S
H4214 C4191 0.950 . S
H4215 C4193 0.950 . S
C4216 C4217 1.349 . S
C4216 C4218 1.327 . S
C4216 H4241 0.950 . S
C4217 C4216 1.349 . S
C4217 C4233 1.349 . S
C4218 C4216 1.327 . S
C4218 C4237 1.429 . S
C4218 H4242 0.950 . S
C4219 C4236 1.574 . S
C4219 C4238 1.368 . S
C4219 H4243 0.949 . S
H4220 C4224 0.949 . S
C4221 C4222 1.349 . S
C4221 C4223 1.327 . S
C4221 H4244 0.950 . S
C4222 C4221 1.349 . S
C4222 C4234 1.349 . S
C4223 C4221 1.327 . S
C4223 C4239 1.429 . S
C4223 H4245 0.950 . S
C4224 H4220 0.949 . S
C4224 C4232 1.574 . S
C4224 C4240 1.368 . S
H4225 C4233 0.950 . S
H4226 C4231 0.950 . S
H4227 C4232 0.949 . S
H4228 C4234 0.950 . S
H4229 C4235 0.950 . S
H4230 C4236 0.949 . S
C4231 H4226 0.950 . S
C4231 C4233 1.327 . S
C4231 C4237 1.429 . S
C4232 C4224 1.574 . S
C4232 H4227 0.949 . S
C4232 C4238 1.368 . S
C4233 C4217 1.349 . S
C4233 H4225 0.950 . S
C4233 C4231 1.327 . S
C4234 C4222 1.349 . S
C4234 H4228 0.950 . S
C4234 C4235 1.327 . S
C4235 H4229 0.950 . S
C4235 C4234 1.327 . S
C4235 C4239 1.429 . S
C4236 C4219 1.574 . S
C4236 H4230 0.949 . S
C4236 C4240 1.368 . S
C4237 C4218 1.429 . S
C4237 C4231 1.429 . S
C4237 C4238 1.523 . S
C4238 C4219 1.368 . S
C4238 C4232 1.368 . S
C4238 C4237 1.523 . S
C4239 C4223 1.429 . S
C4239 C4235 1.429 . S
C4239 C4240 1.523 . S
C4240 C4224 1.368 . S
C4240 C4236 1.368 . S
C4240 C4239 1.523 . S
H4241 C4216 0.950 . S
H4242 C4218 0.950 . S
H4243 C4219 0.949 . S
H4244 C4221 0.950 . S
H4245 C4223 0.950 . S
C4246 C4247 1.349 . S
C4246 C4248 1.327 . S
C4246 H4271 0.950 . S
C4247 C4246 1.349 . S
C4247 C4263 1.349 . S
C4248 C4246 1.327 . S
C4248 C4267 1.429 . S
C4248 H4272 0.950 . S
C4249 C4266 1.574 . S
C4249 C4268 1.368 . S
C4249 H4273 0.949 . S
H4250 C4254 0.949 . S
C4251 C4252 1.349 . S
C4251 C4253 1.327 . S
C4251 H4274 0.950 . S
C4252 C4251 1.349 . S
C4252 C4264 1.349 . S
C4253 C4251 1.327 . S
C4253 C4269 1.429 . S
C4253 H4275 0.950 . S
C4254 H4250 0.949 . S
C4254 C4262 1.574 . S
C4254 C4270 1.368 . S
H4255 C4263 0.950 . S
H4256 C4261 0.950 . S
H4257 C4262 0.949 . S
H4258 C4264 0.950 . S
H4259 C4265 0.950 . S
H4260 C4266 0.949 . S
C4261 H4256 0.950 . S
C4261 C4263 1.327 . S
C4261 C4267 1.429 . S
C4262 C4254 1.574 . S
C4262 H4257 0.949 . S
C4262 C4268 1.368 . S
C4263 C4247 1.349 . S
C4263 H4255 0.950 . S
C4263 C4261 1.327 . S
C4264 C4252 1.349 . S
C4264 H4258 0.950 . S
C4264 C4265 1.327 . S
C4265 H4259 0.950 . S
C4265 C4264 1.327 . S
C4265 C4269 1.429 . S
C4266 C4249 1.574 . S
C4266 H4260 0.949 . S
C4266 C4270 1.368 . S
C4267 C4248 1.429 . S
C4267 C4261 1.429 . S
C4267 C4268 1.523 . S
C4268 C4249 1.368 . S
C4268 C4262 1.368 . S
C4268 C4267 1.523 . S
C4269 C4253 1.429 . S
C4269 C4265 1.429 . S
C4269 C4270 1.523 . S
C4270 C4254 1.368 . S
C4270 C4266 1.368 . S
C4270 C4269 1.523 . S
H4271 C4246 0.950 . S
H4272 C4248 0.950 . S
H4273 C4249 0.949 . S
H4274 C4251 0.950 . S
H4275 C4253 0.950 . S
C4276 C4277 1.349 . S
C4276 C4278 1.327 . S
C4276 H4301 0.950 . S
C4277 C4276 1.349 . S
C4277 C4293 1.349 . S
C4278 C4276 1.327 . S
C4278 C4297 1.429 . S
C4278 H4302 0.950 . S
C4279 C4296 1.574 . S
C4279 C4298 1.368 . S
C4279 H4303 0.949 . S
H4280 C4284 0.949 . S
C4281 C4282 1.349 . S
C4281 C4283 1.327 . S
C4281 H4304 0.950 . S
C4282 C4281 1.349 . S
C4282 C4294 1.349 . S
C4283 C4281 1.327 . S
C4283 C4299 1.429 . S
C4283 H4305 0.950 . S
C4284 H4280 0.949 . S
C4284 C4292 1.574 . S
C4284 C4300 1.368 . S
H4285 C4293 0.950 . S
H4286 C4291 0.950 . S
H4287 C4292 0.949 . S
H4288 C4294 0.950 . S
H4289 C4295 0.950 . S
H4290 C4296 0.949 . S
C4291 H4286 0.950 . S
C4291 C4293 1.327 . S
C4291 C4297 1.429 . S
C4292 C4284 1.574 . S
C4292 H4287 0.949 . S
C4292 C4298 1.368 . S
C4293 C4277 1.349 . S
C4293 H4285 0.950 . S
C4293 C4291 1.327 . S
C4294 C4282 1.349 . S
C4294 H4288 0.950 . S
C4294 C4295 1.327 . S
C4295 H4289 0.950 . S
C4295 C4294 1.327 . S
C4295 C4299 1.429 . S
C4296 C4279 1.574 . S
C4296 H4290 0.949 . S
C4296 C4300 1.368 . S
C4297 C4278 1.429 . S
C4297 C4291 1.429 . S
C4297 C4298 1.523 . S
C4298 C4279 1.368 . S
C4298 C4292 1.368 . S
C4298 C4297 1.523 . S
C4299 C4283 1.429 . S
C4299 C4295 1.429 . S
C4299 C4300 1.523 . S
C4300 C4284 1.368 . S
C4300 C4296 1.368 . S
C4300 C4299 1.523 . S
H4301 C4276 0.950 . S
H4302 C4278 0.950 . S
H4303 C4279 0.949 . S
H4304 C4281 0.950 . S
H4305 C4283 0.950 . S
C4306 C4307 1.349 . S
C4306 C4308 1.327 . S
C4306 H4331 0.950 . S
C4307 C4306 1.349 . S
C4307 C4323 1.349 . S
C4308 C4306 1.327 . S
C4308 C4327 1.429 . S
C4308 H4332 0.950 . S
C4309 C4326 1.574 . S
C4309 C4328 1.368 . S
C4309 H4333 0.949 . S
H4310 C4314 0.949 . S
C4311 C4312 1.349 . S
C4311 C4313 1.327 . S
C4311 H4334 0.950 . S
C4312 C4311 1.349 . S
C4312 C4324 1.349 . S
C4313 C4311 1.327 . S
C4313 C4329 1.429 . S
C4313 H4335 0.950 . S
C4314 H4310 0.949 . S
C4314 C4322 1.574 . S
C4314 C4330 1.368 . S
H4315 C4323 0.950 . S
H4316 C4321 0.950 . S
H4317 C4322 0.949 . S
H4318 C4324 0.950 . S
H4319 C4325 0.950 . S
H4320 C4326 0.949 . S
C4321 H4316 0.950 . S
C4321 C4323 1.327 . S
C4321 C4327 1.429 . S
C4322 C4314 1.574 . S
C4322 H4317 0.949 . S
C4322 C4328 1.368 . S
C4323 C4307 1.349 . S
C4323 H4315 0.950 . S
C4323 C4321 1.327 . S
C4324 C4312 1.349 . S
C4324 H4318 0.950 . S
C4324 C4325 1.327 . S
C4325 H4319 0.950 . S
C4325 C4324 1.327 . S
C4325 C4329 1.429 . S
C4326 C4309 1.574 . S
C4326 H4320 0.949 . S
C4326 C4330 1.368 . S
C4327 C4308 1.429 . S
C4327 C4321 1.429 . S
C4327 C4328 1.523 . S
C4328 C4309 1.368 . S
C4328 C4322 1.368 . S
C4328 C4327 1.523 . S
C4329 C4313 1.429 . S
C4329 C4325 1.429 . S
C4329 C4330 1.523 . S
C4330 C4314 1.368 . S
C4330 C4326 1.368 . S
C4330 C4329 1.523 . S
H4331 C4306 0.950 . S
H4332 C4308 0.950 . S
H4333 C4309 0.949 . S
H4334 C4311 0.950 . S
H4335 C4313 0.950 . S
C4336 C4337 1.349 . S
C4336 C4338 1.327 . S
C4336 H4361 0.950 . S
C4337 C4336 1.349 . S
C4337 C4353 1.349 . S
C4338 C4336 1.327 . S
C4338 C4357 1.429 . S
C4338 H4362 0.950 . S
C4339 C4356 1.574 . S
C4339 C4358 1.368 . S
C4339 H4363 0.949 . S
H4340 C4344 0.949 . S
C4341 C4342 1.349 . S
C4341 C4343 1.327 . S
C4341 H4364 0.950 . S
C4342 C4341 1.349 . S
C4342 C4354 1.349 . S
C4343 C4341 1.327 . S
C4343 C4359 1.429 . S
C4343 H4365 0.950 . S
C4344 H4340 0.949 . S
C4344 C4352 1.574 . S
C4344 C4360 1.368 . S
H4345 C4353 0.950 . S
H4346 C4351 0.950 . S
H4347 C4352 0.949 . S
H4348 C4354 0.950 . S
H4349 C4355 0.950 . S
H4350 C4356 0.949 . S
C4351 H4346 0.950 . S
C4351 C4353 1.327 . S
C4351 C4357 1.429 . S
C4352 C4344 1.574 . S
C4352 H4347 0.949 . S
C4352 C4358 1.368 . S
C4353 C4337 1.349 . S
C4353 H4345 0.950 . S
C4353 C4351 1.327 . S
C4354 C4342 1.349 . S
C4354 H4348 0.950 . S
C4354 C4355 1.327 . S
C4355 H4349 0.950 . S
C4355 C4354 1.327 . S
C4355 C4359 1.429 . S
C4356 C4339 1.574 . S
C4356 H4350 0.949 . S
C4356 C4360 1.368 . S
C4357 C4338 1.429 . S
C4357 C4351 1.429 . S
C4357 C4358 1.523 . S
C4358 C4339 1.368 . S
C4358 C4352 1.368 . S
C4358 C4357 1.523 . S
C4359 C4343 1.429 . S
C4359 C4355 1.429 . S
C4359 C4360 1.523 . S
C4360 C4344 1.368 . S
C4360 C4356 1.368 . S
C4360 C4359 1.523 . S
H4361 C4336 0.950 . S
H4362 C4338 0.950 . S
H4363 C4339 0.949 . S
H4364 C4341 0.950 . S
H4365 C4343 0.950 . S
C4366 C4367 1.349 . S
C4366 C4368 1.327 . S
C4366 H4391 0.950 . S
C4367 C4366 1.349 . S
C4367 C4383 1.349 . S
C4368 C4366 1.327 . S
C4368 C4387 1.429 . S
C4368 H4392 0.950 . S
C4369 C4386 1.574 . S
C4369 C4388 1.368 . S
C4369 H4393 0.949 . S
H4370 C4374 0.949 . S
C4371 C4372 1.349 . S
C4371 C4373 1.327 . S
C4371 H4394 0.950 . S
C4372 C4371 1.349 . S
C4372 C4384 1.349 . S
C4373 C4371 1.327 . S
C4373 C4389 1.429 . S
C4373 H4395 0.950 . S
C4374 H4370 0.949 . S
C4374 C4382 1.574 . S
C4374 C4390 1.368 . S
H4375 C4383 0.950 . S
H4376 C4381 0.950 . S
H4377 C4382 0.949 . S
H4378 C4384 0.950 . S
H4379 C4385 0.950 . S
H4380 C4386 0.949 . S
C4381 H4376 0.950 . S
C4381 C4383 1.327 . S
C4381 C4387 1.429 . S
C4382 C4374 1.574 . S
C4382 H4377 0.949 . S
C4382 C4388 1.368 . S
C4383 C4367 1.349 . S
C4383 H4375 0.950 . S
C4383 C4381 1.327 . S
C4384 C4372 1.349 . S
C4384 H4378 0.950 . S
C4384 C4385 1.327 . S
C4385 H4379 0.950 . S
C4385 C4384 1.327 . S
C4385 C4389 1.429 . S
C4386 C4369 1.574 . S
C4386 H4380 0.949 . S
C4386 C4390 1.368 . S
C4387 C4368 1.429 . S
C4387 C4381 1.429 . S
C4387 C4388 1.523 . S
C4388 C4369 1.368 . S
C4388 C4382 1.368 . S
C4388 C4387 1.523 . S
C4389 C4373 1.429 . S
C4389 C4385 1.429 . S
C4389 C4390 1.523 . S
C4390 C4374 1.368 . S
C4390 C4386 1.368 . S
C4390 C4389 1.523 . S
H4391 C4366 0.950 . S
H4392 C4368 0.950 . S
H4393 C4369 0.949 . S
H4394 C4371 0.950 . S
H4395 C4373 0.950 . S
C4396 C4397 1.349 . S
C4396 C4398 1.327 . S
C4396 H4421 0.950 . S
C4397 C4396 1.349 . S
C4397 C4413 1.349 . S
C4398 C4396 1.327 . S
C4398 C4417 1.429 . S
C4398 H4422 0.950 . S
C4399 C4416 1.574 . S
C4399 C4418 1.368 . S
C4399 H4423 0.949 . S
H4400 C4404 0.949 . S
C4401 C4402 1.349 . S
C4401 C4403 1.327 . S
C4401 H4424 0.950 . S
C4402 C4401 1.349 . S
C4402 C4414 1.349 . S
C4403 C4401 1.327 . S
C4403 C4419 1.429 . S
C4403 H4425 0.950 . S
C4404 H4400 0.949 . S
C4404 C4412 1.574 . S
C4404 C4420 1.368 . S
H4405 C4413 0.950 . S
H4406 C4411 0.950 . S
H4407 C4412 0.949 . S
H4408 C4414 0.950 . S
H4409 C4415 0.950 . S
H4410 C4416 0.949 . S
C4411 H4406 0.950 . S
C4411 C4413 1.327 . S
C4411 C4417 1.429 . S
C4412 C4404 1.574 . S
C4412 H4407 0.949 . S
C4412 C4418 1.368 . S
C4413 C4397 1.349 . S
C4413 H4405 0.950 . S
C4413 C4411 1.327 . S
C4414 C4402 1.349 . S
C4414 H4408 0.950 . S
C4414 C4415 1.327 . S
C4415 H4409 0.950 . S
C4415 C4414 1.327 . S
C4415 C4419 1.429 . S
C4416 C4399 1.574 . S
C4416 H4410 0.949 . S
C4416 C4420 1.368 . S
C4417 C4398 1.429 . S
C4417 C4411 1.429 . S
C4417 C4418 1.523 . S
C4418 C4399 1.368 . S
C4418 C4412 1.368 . S
C4418 C4417 1.523 . S
C4419 C4403 1.429 . S
C4419 C4415 1.429 . S
C4419 C4420 1.523 . S
C4420 C4404 1.368 . S
C4420 C4416 1.368 . S
C4420 C4419 1.523 . S
H4421 C4396 0.950 . S
H4422 C4398 0.950 . S
H4423 C4399 0.949 . S
H4424 C4401 0.950 . S
H4425 C4403 0.950 . S
C4426 C4427 1.349 . S
C4426 C4428 1.327 . S
C4426 H4451 0.950 . S
C4427 C4426 1.349 . S
C4427 C4443 1.349 . S
C4428 C4426 1.327 . S
C4428 C4447 1.429 . S
C4428 H4452 0.950 . S
C4429 C4446 1.574 . S
C4429 C4448 1.368 . S
C4429 H4453 0.949 . S
H4430 C4434 0.949 . S
C4431 C4432 1.349 . S
C4431 C4433 1.327 . S
C4431 H4454 0.950 . S
C4432 C4431 1.349 . S
C4432 C4444 1.349 . S
C4433 C4431 1.327 . S
C4433 C4449 1.429 . S
C4433 H4455 0.950 . S
C4434 H4430 0.949 . S
C4434 C4442 1.574 . S
C4434 C4450 1.368 . S
H4435 C4443 0.950 . S
H4436 C4441 0.950 . S
H4437 C4442 0.949 . S
H4438 C4444 0.950 . S
H4439 C4445 0.950 . S
H4440 C4446 0.949 . S
C4441 H4436 0.950 . S
C4441 C4443 1.327 . S
C4441 C4447 1.429 . S
C4442 C4434 1.574 . S
C4442 H4437 0.949 . S
C4442 C4448 1.368 . S
C4443 C4427 1.349 . S
C4443 H4435 0.950 . S
C4443 C4441 1.327 . S
C4444 C4432 1.349 . S
C4444 H4438 0.950 . S
C4444 C4445 1.327 . S
C4445 H4439 0.950 . S
C4445 C4444 1.327 . S
C4445 C4449 1.429 . S
C4446 C4429 1.574 . S
C4446 H4440 0.949 . S
C4446 C4450 1.368 . S
C4447 C4428 1.429 . S
C4447 C4441 1.429 . S
C4447 C4448 1.523 . S
C4448 C4429 1.368 . S
C4448 C4442 1.368 . S
C4448 C4447 1.523 . S
C4449 C4433 1.429 . S
C4449 C4445 1.429 . S
C4449 C4450 1.523 . S
C4450 C4434 1.368 . S
C4450 C4446 1.368 . S
C4450 C4449 1.523 . S
H4451 C4426 0.950 . S
H4452 C4428 0.950 . S
H4453 C4429 0.949 . S
H4454 C4431 0.950 . S
H4455 C4433 0.950 . S
C1582 N1036 1.514 . S
C1577 C29 1.512 . S
C1612 C1063 1.601 . S
C1607 C61 1.580 . S
C1637 C93 1.515 . S
C1642 C1077 1.538 . S
C1672 N1095 1.436 . S
C1667 C119 1.454 . S
C1697 C157 1.573 . S
C1702 C1100 1.615 . S
C1727 C177 1.467 . S
C1732 C1040 1.489 . S
C1757 C221 1.417 . S
C1762 N1059 1.399 . S
C1792 N1072 1.484 . S
C1787 C253 1.501 . S
C1822 N1118 1.400 . S
C1817 C17 1.404 . S
C1847 C55 1.461 . S
C1852 N1141 1.451 . S
C1877 C87 1.516 . S
C1882 N1164 1.500 . S
C1912 N1197 1.425 . S
C1907 C113 1.442 . S
C1937 C145 1.478 . S
C1942 C1224 1.499 . S
C1972 C1247 1.530 . S
C1967 C183 1.505 . S
C1997 C215 1.466 . S
C2002 C1270 1.480 . S
C2032 C1284 1.393 . S
C2027 C247 1.379 . S
C2057 C23 1.371 . S
C2062 C1201 1.404 . S
C2087 C151 1.411 . S
C2092 N1243 1.410 . S
C2122 N1266 1.454 . S
C2117 C189 1.455 . S
C2147 C209 1.451 . S
C2152 N1279 1.428 . S
C2182 N1220 1.442 . S
C2177 C241 1.468 . S
C2212 C1146 1.647 . S
C2207 C81 1.630 . S
C2237 C125 1.509 . S
C2242 C1169 1.529 . S
C2272 C1123 1.586 . S
C2267 C49 1.566 . S
C2302 C1316 1.511 . S
C2297 C285 1.472 . S
C2327 C317 1.597 . S
C2332 C1330 1.623 . S
C2357 C349 1.509 . S
C2362 N1358 1.486 . S
C2392 N1371 1.430 . S
C2387 C375 1.446 . S
C2417 C413 1.579 . S
C2422 C1376 1.623 . S
C2447 C433 1.457 . S
C2452 N1312 1.444 . S
C2477 C477 1.507 . S
C2482 N1325 1.492 . S
C2507 C509 1.463 . S
C2512 C1362 1.475 . S
C2542 N1210 1.401 . S
C2537 C273 1.404 . S
C2567 C311 1.449 . S
C2572 N1394 1.428 . S
C2602 N1256 1.428 . S
C2597 C343 1.445 . S
C2627 C369 1.482 . S
C2632 C1431 1.495 . S
C2657 C401 1.503 . S
C2662 C1132 1.531 . S
C2692 C1445 1.567 . S
C2687 C439 1.531 . S
C2717 C471 1.512 . S
C2722 C1178 1.522 . S
C2752 N1463 1.361 . S
C2747 C503 1.377 . S
C2777 C279 1.401 . S
C2782 N1427 1.400 . S
C2812 N1440 1.443 . S
C2807 C407 1.442 . S
C2837 C445 1.448 . S
C2842 N1174 1.450 . S
C2872 C1468 1.444 . S
C2867 C465 1.428 . S
C2897 C497 1.441 . S
C2902 N1128 1.421 . S
C2927 C337 1.533 . S
C2932 C1399 1.549 . S
C2957 C381 1.555 . S
C2962 C1261 1.575 . S
C2987 C305 1.571 . S
C2992 C1215 1.591 . S
C3017 C541 1.537 . S
C3022 C1353 1.581 . S
C3052 C1385 1.553 . S
C3047 C573 1.532 . S
C3077 C605 1.476 . S
C3082 N1302 1.464 . S
C3107 C631 1.421 . S
C3112 N1335 1.402 . S
C3137 C669 1.587 . S
C3142 C1339 1.624 . S
C3167 C689 1.524 . S
C3172 N1348 1.519 . S
C3202 N1381 1.379 . S
C3197 C733 1.403 . S
C3227 C765 1.516 . S
C3232 C1307 1.538 . S
C3262 N1496 1.427 . S
C3257 C529 1.429 . S
C3287 C567 1.394 . S
C3292 N1233 1.381 . S
C3322 N1519 1.361 . S
C3317 C599 1.384 . S
C3347 C625 1.443 . S
C3352 N1289 1.432 . S
C3377 C657 1.485 . S
C3382 C1537 1.516 . S
C3407 C695 1.595 . S
C3412 C1155 1.625 . S
C3442 N1555 1.377 . S
C3437 C727 1.398 . S
C3467 C759 1.427 . S
C3472 C1192 1.441 . S
C3502 C1293 1.448 . S
C3497 C535 1.416 . S
C3532 N1151 1.449 . S
C3527 C663 1.455 . S
C3557 C701 1.549 . S
C3562 C1560 1.590 . S
C3587 C721 1.393 . S
C3592 N1187 1.365 . S
C3622 N1532 1.496 . S
C3617 C753 1.512 . S
C3652 C1238 1.542 . S
C3647 C593 1.525 . S
C3682 C1523 1.566 . S
C3677 C637 1.548 . S
C3712 C1500 1.550 . S
C3707 C561 1.531 . S
C3737 C797 1.424 . S
C3742 N1082 1.428 . S
C3767 C829 1.551 . S
C3772 C1109 1.569 . S
C3802 C1031 1.566 . S
C3797 C861 1.541 . S
C3832 N1049 1.375 . S
C3827 C887 1.393 . S
C3862 C1054 1.622 . S
C3857 C925 1.580 . S
C3892 C1086 1.488 . S
C3887 C945 1.463 . S
C3922 N1105 1.494 . S
C3917 C989 1.516 . S
C3947 C1021 1.525 . S
C3952 N1026 1.506 . S
C3977 C785 1.343 . S
C3982 N1542 1.339 . S
C4012 N1450 1.410 . S
C4007 C823 1.420 . S
C4042 C1569 1.555 . S
C4037 C855 1.539 . S
C4072 C1477 1.379 . S
C4067 C881 1.373 . S
C4097 C913 1.510 . S
C4102 C1491 1.541 . S
C4132 C1408 1.552 . S
C4127 C951 1.526 . S
C4162 C1514 1.626 . S
C4157 C983 1.608 . S
C4187 C1015 1.430 . S
C4192 N1417 1.407 . S
C4222 N1473 1.324 . S
C4217 C791 1.323 . S
C4252 N1404 1.418 . S
C4247 C919 1.419 . S
C4282 N1509 1.406 . S
C4277 C957 1.402 . S
C4307 C977 1.491 . S
C4312 C1422 1.506 . S
C4337 C1009 1.457 . S
C4342 N1486 1.433 . S
C4367 C849 1.624 . S
C4372 C1454 1.637 . S
C4397 C893 1.433 . S
C4402 N1565 1.416 . S
C4432 C1546 1.527 . S
C4427 C817 1.512 . S
