# Generated by pormake.
# Topology tsx, (6,3)-cn, num edge types: 1
# Building blocks:
#     Node 0, Type 0, BuildingBlock: LEVNOQ01_clean_sbu_1, # of connection points: 6
#     Node 1, Type 0, BuildingBlock: LEVNOQ01_clean_sbu_1, # of connection points: 6
#     Node 2, Type 1, BuildingBlock: MIDCAF_clean_linker_0, # of connection points: 3
#     Node 3, Type 1, BuildingBlock: MIDCAF_clean_linker_0, # of connection points: 3
#     Node 4, Type 1, BuildingBlock: MIDCAF_clean_linker_0, # of connection points: 3
#     Node 5, Type 1, BuildingBlock: MIDCAF_clean_linker_0, # of connection points: 3
#     Edge 6, Type (0, 1), BuildingBlock: MIFKUJ_clean_linker_0, # of connection points: 2
#     Edge 7, Type (0, 1), BuildingBlock: MIFKUJ_clean_linker_0, # of connection points: 2
#     Edge 8, Type (0, 1), BuildingBlock: MIFKUJ_clean_linker_0, # of connection points: 2
#     Edge 9, Type (0, 1), BuildingBlock: MIFKUJ_clean_linker_0, # of connection points: 2
#     Edge 10, Type (0, 1), BuildingBlock: MIFKUJ_clean_linker_0, # of connection points: 2
#     Edge 11, Type (0, 1), BuildingBlock: MIFKUJ_clean_linker_0, # of connection points: 2
#     Edge 12, Type (0, 1), BuildingBlock: MIFKUJ_clean_linker_0, # of connection points: 2
#     Edge 13, Type (0, 1), BuildingBlock: MIFKUJ_clean_linker_0, # of connection points: 2
#     Edge 14, Type (0, 1), BuildingBlock: MIFKUJ_clean_linker_0, # of connection points: 2
#     Edge 15, Type (0, 1), BuildingBlock: MIFKUJ_clean_linker_0, # of connection points: 2
#     Edge 16, Type (0, 1), BuildingBlock: MIFKUJ_clean_linker_0, # of connection points: 2
#     Edge 17, Type (0, 1), BuildingBlock: MIFKUJ_clean_linker_0, # of connection points: 2
# Relax obj value: 0.132
# Max RMSD: 0.159
# Mean RMSD: 0.121
data_MOF--net-tsx--node1-LEVNOQ01_clean_sbu_1--node2-MIDCAF_clean_linker_0--edge1-MIFKUJ_clean_linker_0
_symmetry_space_group_name_H-M    P1
_symmetry_Int_Tables_number       1
_symmetry_cell_setting            triclinic
loop_
_symmetry_equiv_pos_as_xyz
'x, y, z'
_cell_length_a     27.82766
_cell_length_b     33.72529
_cell_length_c     55.726554
_cell_angle_alpha  97.602826
_cell_angle_beta   89.967029
_cell_angle_gamma 90.825748
loop_
_atom_site_label
_atom_site_type_symbol
_atom_site_fract_x
_atom_site_fract_y
_atom_site_fract_z
_atom_type_partial_charge
O0 O 0.12823 0.04109 0.06207 0.0
Mg1 Mg 0.16536 0.04023 0.02903 0.0
O2 O 0.05661 0.02436 0.04588 0.0
Mg3 Mg 0.06132 0.02424 0.00408 0.0
O4 O 0.12446 0.06855 0.00678 0.0
O5 O 0.19689 0.09119 0.01928 0.0
O6 O 0.06697 0.02412 0.96253 0.0
O7 O 0.0203 0.08783 0.00894 0.0
Mg8 Mg 0.98282 0.02716 0.99445 0.0
O9 O 0.99787 0.97194 0.0016 0.0
O10 O 0.99389 0.04595 0.95998 0.0
O11 O 0.95567 0.06524 0.02397 0.0
O12 O 0.92802 0.98982 0.98629 0.0
C13 C 0.15375 0.95833 0.00166 0.0
C14 C 0.08413 0.03212 0.0643 0.0
C15 C 0.15813 0.09547 0.00726 0.0
C16 C 0.03383 0.03708 0.95013 0.0
C17 C 0.98055 0.09488 0.01989 0.0
C18 C 0.95373 0.96337 0.99461 0.0
O19 O 0.18393 0.98433 0.01102 0.0
O20 O 0.10938 0.96667 -0.00057 0.0
O21 O 0.61619 0.53704 0.56252 0.0
Mg22 Mg 0.65616 0.54155 0.53093 0.0
O23 O 0.5486 0.51628 0.54323 0.0
Mg24 Mg 0.55925 0.52068 0.50224 0.0
O25 O 0.61558 0.57146 0.50905 0.0
O26 O 0.68454 0.59581 0.52583 0.0
O27 O 0.57138 0.52925 0.46144 0.0
O28 O 0.50248 0.56979 0.50477 0.0
Mg29 Mg 0.48548 0.48895 0.46585 0.0
O30 O 0.50085 0.47048 0.49793 0.0
O31 O 0.53876 0.47751 0.4393 0.0
O32 O 0.45418 0.54654 0.47411 0.0
O33 O 0.44518 0.4409 0.47226 0.0
C34 C 0.6587 0.46237 0.50152 0.0
C35 C 0.57291 0.52481 0.56268 0.0
C36 C 0.64715 0.60023 0.51282 0.0
C37 C 0.56598 0.50789 0.44097 0.0
C38 C 0.4661 0.57347 0.49137 0.0
C39 C 0.46743 0.44351 0.49272 0.0
O40 O 0.68554 0.48939 0.51259 0.0
O41 O 0.61434 0.46864 0.49792 0.0
C42 C 0.91495 0.09539 0.44372 0.0
C43 C 0.92226 0.10695 0.46853 0.0
C44 C 0.96033 0.0908 0.48036 0.0
C45 C 0.99063 0.06293 0.46736 0.0
H46 H 0.07942 0.96498 0.47372 0.0
H47 H 0.13 0.91906 0.49274 0.0
H48 H 0.191 0.87569 0.42327 0.0
H49 H 0.14068 0.92091 0.40395 0.0
H50 H 0.10848 0.9571 0.35709 0.0
H51 H 0.1059 0.9532 0.31296 0.0
H52 H 0.97754 0.02401 0.31807 0.0
H53 H 0.98 0.02852 0.36205 0.0
H54 H 0.93899 0.06035 0.4115 0.0
H55 H 0.88622 0.1082 0.43425 0.0
H56 H 0.96668 0.09987 0.49949 0.0
H57 H 0.01994 0.05085 0.47678 0.0
N58 N 0.04574 -0.00017 0.43891 0.0
N59 N 0.07476 0.97183 0.40094 0.0
N60 N 0.01631 0.02129 0.40349 0.0
C61 C 0.07502 0.97369 0.42546 0.0
C62 C 0.04547 -0.00442 0.38983 0.0
C63 C 0.01628 0.02372 0.42798 0.0
C64 C 0.10605 0.94675 0.43728 0.0
C65 C 0.10367 0.94579 0.46245 0.0
C66 C 0.13241 0.91962 0.47338 0.0
C67 C 0.16412 0.89444 0.45933 0.0
C68 C 0.16679 0.8953 0.43432 0.0
C69 C 0.13793 0.92114 0.42335 0.0
C70 C 0.04441 -0.00693 0.36313 0.0
C71 C 0.07968 0.97183 0.34884 0.0
C72 C 0.07834 0.96964 0.32363 0.0
C73 C 0.04134 0.98808 0.3123 0.0
C74 C 0.00607 0.00916 0.32647 0.0
C75 C 0.00774 0.01188 0.35165 0.0
C76 C 0.98372 0.05178 0.44232 0.0
C77 C 0.94546 0.06826 0.43072 0.0
C78 C 0.86361 0.9714 0.57101 0.0
C79 C 0.87278 0.95606 0.54678 0.0
C80 C 0.90958 0.97376 0.53429 0.0
C81 C 0.9377 0.00521 0.54614 0.0
H82 H 0.045 0.09819 0.53882 0.0
H83 H 0.09861 0.14448 0.52077 0.0
H84 H 0.09729 0.22534 0.58762 0.0
H85 H 0.04473 0.17929 0.60576 0.0
H86 H 0.02962 0.13866 0.65546 0.0
H87 H 0.0388 0.13735 0.69889 0.0
H88 H 0.98102 0.01662 0.69071 0.0
H89 H 0.97016 0.0185 0.64773 0.0
H90 H 0.88415 0.01281 0.60165 0.0
H91 H 0.83459 0.95939 0.58096 0.0
H92 H 0.91758 0.96258 0.51562 0.0
H93 H 0.96659 0.01771 0.53633 0.0
N94 N 0.98593 0.07686 0.57283 0.0
N95 N 0.01716 0.10644 0.61027 0.0
N96 N 0.96524 0.05108 0.6086 0.0
C97 C 0.01368 0.10552 0.58586 0.0
C98 C 0.99332 0.07909 0.62174 0.0
C99 C 0.96111 0.04984 0.58425 0.0
C100 C 0.04117 0.13496 0.57379 0.0
C101 C 0.05562 0.12613 0.5495 0.0
C102 C 0.08623 0.15248 0.53919 0.0
C103 C 0.10177 0.18837 0.55284 0.0
C104 C 0.08531 0.19804 0.57665 0.0
C105 C 0.0556 0.17149 0.58708 0.0
C106 C -0.00111 0.07878 0.64813 0.0
C107 C 0.01871 0.11192 0.66298 0.0
C108 C 0.02423 0.11108 0.68787 0.0
C109 C 0.01046 0.07694 0.69837 0.0
C110 C 0.991 0.04377 0.6834 0.0
C111 C 0.98501 0.04477 0.65865 0.0
C112 C 0.92968 0.01908 0.57071 0.0
C113 C 0.8919 0.00224 0.58286 0.0
C114 C 0.4291 0.60627 0.94385 0.0
C115 C 0.4266 0.60924 0.96909 0.0
C116 C 0.45045 0.58133 0.98119 0.0
C117 C 0.47759 0.55115 0.96797 0.0
H118 H 0.56644 0.44793 0.97145 0.0
H119 H 0.62233 0.40417 0.98914 0.0
H120 H 0.69453 0.37938 0.92035 0.0
H121 H 0.63942 0.42239 0.90265 0.0
H122 H 0.58416 0.43747 0.85571 0.0
H123 H 0.58606 0.43757 0.81198 0.0
H124 H 0.49665 0.54208 0.8194 0.0
H125 H 0.49501 0.54247 0.86305 0.0
H126 H 0.45668 0.57537 0.91124 0.0
H127 H 0.41056 0.62744 0.93423 0.0
H128 H 0.44872 0.58328 0.00074 0.0
H129 H 0.49634 0.53021 0.97763 0.0
N130 N 0.53805 0.49239 0.93855 0.0
N131 N 0.56607 0.465 0.90021 0.0
N132 N 0.51076 0.5167 0.90351 0.0
C133 C 0.56617 0.46575 0.92464 0.0
C134 C 0.53843 0.4903 0.88951 0.0
C135 C 0.51014 0.51803 0.92797 0.0
C136 C 0.59853 0.43882 0.93567 0.0
C137 C 0.59422 0.4331 0.96014 0.0
C138 C 0.62597 0.40802 0.97023 0.0
C139 C 0.66285 0.38889 0.9561 0.0
C140 C 0.66679 0.3943 0.93168 0.0
C141 C 0.63492 0.4188 0.92155 0.0
C142 C 0.53935 0.48992 0.86293 0.0
C143 C 0.56488 0.46049 0.84806 0.0
C144 C 0.56581 0.46038 0.82299 0.0
C145 C 0.54151 0.48981 0.81233 0.0
C146 C 0.51613 0.51927 0.82717 0.0
C147 C 0.51497 0.51929 0.85218 0.0
C148 C 0.48059 0.54852 0.94255 0.0
C149 C 0.45556 0.57628 0.93073 0.0
C150 C 0.35719 0.47521 0.06734 0.0
C151 C 0.36863 0.46161 0.04318 0.0
C152 C 0.40806 0.47864 0.03234 0.0
C153 C 0.43563 0.50899 0.04559 0.0
H154 H 0.51812 0.61692 0.04011 0.0
H155 H 0.57814 0.65798 0.02194 0.0
H156 H 0.64118 0.6936 0.09231 0.0
H157 H 0.58171 0.65373 0.11061 0.0
H158 H 0.51027 0.64209 0.15756 0.0
H159 H 0.5206 0.6403 0.201 0.0
H160 H 0.47533 0.51633 0.19192 0.0
H161 H 0.46397 0.51807 0.14855 0.0
H162 H 0.37564 0.51427 0.09939 0.0
H163 H 0.32731 0.4621 0.07615 0.0
H164 H 0.41753 0.4684 0.01371 0.0
H165 H 0.4661 0.52152 0.03693 0.0
N166 N 0.48371 0.57777 0.07421 0.0
N167 N 0.51155 0.60609 0.11247 0.0
N168 N 0.45559 0.55331 0.10927 0.0
C169 C 0.51192 0.60505 0.08803 0.0
C170 C 0.48364 0.58035 0.12321 0.0
C171 C 0.45516 0.55202 0.0848 0.0
C172 C 0.54532 0.63171 0.0768 0.0
C173 C 0.54455 0.63376 0.05172 0.0
C174 C 0.57867 0.6572 0.04131 0.0
C175 C 0.61425 0.67827 0.05582 0.0
C176 C 0.61426 0.67709 0.08082 0.0
C177 C 0.58003 0.6543 0.09124 0.0
C178 C 0.48636 0.5802 0.14966 0.0
C179 C 0.50204 0.61456 0.16486 0.0
C180 C 0.50778 0.61364 0.18968 0.0
C181 C 0.49888 0.57816 0.19961 0.0
C182 C 0.48256 0.54397 0.18455 0.0
C183 C 0.47585 0.54508 0.15981 0.0
C184 C 0.42473 0.52195 0.07001 0.0
C185 C 0.38509 0.50487 0.08067 0.0
H186 H 0.1 0.15711 0.02262 0.0
H187 H 0.1215 0.22695 0.01929 0.0
H188 H 0.2303 0.18733 0.96682 0.0
H189 H 0.2091 0.11779 0.97023 0.0
H190 H 0.24184 0.2304 0.02728 0.0
H191 H 0.19882 0.23804 0.94053 0.0
H192 H 0.13933 0.23563 0.90759 0.0
H193 H 0.05175 0.31991 0.95194 0.0
H194 H 0.11093 0.32264 0.98517 0.0
H195 H 0.40213 0.39078 0.02081 0.0
H196 H 0.35411 0.33085 0.00618 0.0
H197 H 0.22395 0.39709 0.02233 0.0
H198 H 0.27183 0.45691 0.03704 0.0
H199 H 0.21643 0.34305 0.97994 0.0
H200 H 0.26381 0.34713 0.06257 0.0
H201 H 0.31946 0.3527 0.09727 0.0
H202 H 0.39131 0.2466 0.0657 0.0
H203 H 0.33673 0.24089 0.03049 0.0
C204 C 0.12614 0.16345 0.00916 0.0
C205 C 0.15284 0.13242 0.99654 0.0
C206 C 0.13862 0.20329 0.00739 0.0
C207 C 0.17741 0.21209 0.99278 0.0
C208 C 0.19981 0.18105 0.97788 0.0
C209 C 0.18756 0.14136 0.97976 0.0
C210 C 0.20288 0.25085 -0.002 0.0
C211 C 0.23672 0.25498 0.01682 0.0
C212 C 0.195 0.28295 0.98479 0.0
C213 C 0.15889 0.28025 0.96528 0.0
C214 C 0.16658 0.25565 0.94331 0.0
C215 C 0.13302 0.25437 0.92457 0.0
C216 C 0.09174 0.27764 0.92766 0.0
C217 C 0.08376 0.30197 0.94957 0.0
C218 C 0.1173 0.30344 0.96833 0.0
C219 C 0.3633 0.39271 0.02058 0.0
C220 C 0.34047 0.42816 0.03012 0.0
C221 C 0.33597 0.35854 0.01237 0.0
C222 C 0.28556 0.35958 0.01348 0.0
C223 C 0.26279 0.39576 0.02137 0.0
C224 C 0.29007 0.42976 0.02982 0.0
C225 C 0.25675 0.32223 0.00876 0.0
C226 C 0.22196 0.31846 0.99033 0.0
C227 C 0.26341 0.29045 0.0226 0.0
C228 C 0.29658 0.29392 0.04369 0.0
C229 C 0.29185 0.32527 0.06285 0.0
C230 C 0.32315 0.3284 0.08265 0.0
C231 C 0.35902 0.3001 0.08365 0.0
C232 C 0.36361 0.26857 0.06486 0.0
C233 C 0.33252 0.26539 0.04496 0.0
H234 H 0.38314 0.30253 0.09901 0.0
H235 H 0.0661 0.2771 0.91305 0.0
H236 H 0.2423 0.93833 0.98514 0.0
H237 H 0.27821 0.87255 0.98048 0.0
H238 H 0.14275 0.81992 -0.00166 0.0
H239 H 0.1062 0.88668 0.00327 0.0
H240 H 0.22083 0.79745 0.0254 0.0
H241 H 0.18289 0.79901 0.94206 0.0
H242 H 0.17772 0.82804 0.90381 0.0
H243 H 0.33144 0.84008 0.90201 0.0
H244 H 0.33755 0.81166 0.94042 0.0
H245 H 0.339 0.60528 0.9904 0.0
H246 H 0.28346 0.66145 -0.00092 0.0
H247 H 0.39608 0.74326 0.98314 0.0
H248 H 0.45119 0.68736 0.97446 0.0
H249 H 0.31587 0.74289 0.95352 0.0
H250 H 0.35405 0.75053 0.03822 0.0
H251 H 0.36207 0.72427 0.07723 0.0
H252 H 0.21092 0.69673 0.07691 0.0
H253 H 0.20212 0.72231 0.03767 0.0
C254 C 0.2198 0.9127 0.98764 0.0
C255 C 0.1715 0.91753 0.99457 0.0
C256 C 0.24037 0.87509 0.98492 0.0
C257 C 0.2131 0.84136 0.98897 0.0
C258 C 0.16428 0.84568 0.99509 0.0
C259 C 0.14339 0.88362 -0.00234 0.0
C260 C 0.2374 0.80247 0.98812 0.0
C261 C 0.24063 0.78477 0.00951 0.0
C262 C 0.26406 0.78667 0.96754 0.0
C263 C 0.26063 0.80328 0.9442 0.0
C264 C 0.21559 0.80803 0.93358 0.0
C265 C 0.2125 0.82436 0.91185 0.0
C266 C 0.25422 0.83592 0.90049 0.0
C267 C 0.29915 0.83108 0.91081 0.0
C268 C 0.30245 0.81477 0.93254 0.0
C269 C 0.35221 0.63552 0.98986 0.0
C270 C 0.39911 0.64237 0.98194 0.0
C271 C 0.32053 0.66746 0.99463 0.0
C272 C 0.33565 0.70634 0.99146 0.0
C273 C 0.38374 0.71342 0.98555 0.0
C274 C 0.41526 0.68165 0.98082 0.0
C275 C 0.30049 0.73867 0.991 0.0
C276 C 0.29525 0.75498 0.96928 0.0
C277 C 0.27233 0.75321 0.01128 0.0
C278 C 0.27754 0.73783 0.03485 0.0
C279 C 0.32261 0.73847 0.04633 0.0
C280 C 0.32728 0.72381 0.06852 0.0
C281 C 0.28706 0.70871 0.0795 0.0
C282 C 0.24206 0.70836 0.06835 0.0
C283 C 0.2372 0.72295 0.04614 0.0
H284 H 0.29075 0.69738 0.09669 0.0
H285 H 0.25174 0.8486 0.88369 0.0
H286 H 0.86612 0.93761 0.97778 0.0
H287 H 0.81799 0.88329 0.98984 0.0
H288 H 0.93647 0.84775 0.03158 0.0
H289 H 0.98551 0.90389 0.02019 0.0
H290 H 0.86957 0.78503 0.99449 0.0
H291 H 0.87338 0.88303 0.06577 0.0
H292 H 0.86952 0.95076 0.0885 0.0
H293 H 0.726 0.96326 0.06256 0.0
H294 H 0.7294 0.89595 0.0392 0.0
H295 H 0.70951 0.66466 0.05704 0.0
H296 H 0.77473 0.70736 0.04495 0.0
H297 H 0.67053 0.78626 0.02001 0.0
H298 H 0.60504 0.74309 0.03187 0.0
H299 H 0.73832 0.82482 0.0527 0.0
H300 H 0.73432 0.73368 0.9794 0.0
H301 H 0.7349 0.66823 0.95379 0.0
H302 H 0.8745 0.64478 0.98105 0.0
H303 H 0.87448 0.70994 0.00709 0.0
C304 C 0.88254 0.9182 0.98934 0.0
C305 C 0.92958 0.92543 -0.00168 0.0
C306 C 0.85477 0.88718 0.99621 0.0
C307 C 0.87355 0.86223 0.01185 0.0
C308 C 0.92151 0.86723 0.01962 0.0
C309 C 0.94944 0.89901 0.01301 0.0
C310 C 0.84128 0.83205 0.02024 0.0
C311 C 0.84167 0.7932 0.00776 0.0
C312 C 0.80384 0.84369 0.03673 0.0
C313 C 0.80193 0.88455 0.05045 0.0
C314 C 0.84127 0.90043 0.06459 0.0
C315 C 0.8391 0.93872 0.07767 0.0
C316 C 0.7976 0.96135 0.07691 0.0
C317 C 0.75818 0.94574 0.06308 0.0
C318 C 0.76022 0.90751 0.04991 0.0
C319 C 0.70074 0.69073 0.04852 0.0
C320 C 0.65265 0.70081 0.04527 0.0
C321 C 0.73785 0.71498 0.04164 0.0
C322 C 0.7273 0.74985 0.03165 0.0
C323 C 0.6792 0.75937 0.02772 0.0
C324 C 0.64199 0.73473 0.0343 0.0
C325 C 0.76649 0.77769 0.0269 0.0
C326 C 0.76691 0.81622 0.03989 0.0
C327 C 0.80435 0.7659 0.0107 0.0
C328 C 0.80412 0.72642 0.99543 0.0
C329 C 0.76489 0.71435 0.98016 0.0
C330 C 0.76518 0.67737 0.9655 0.0
C331 C 0.80464 0.6523 0.96586 0.0
C332 C 0.84392 0.66419 0.98084 0.0
C333 C 0.8438 0.70115 0.99554 0.0
H334 H 0.80483 0.6237 0.95446 0.0
H335 H 0.79594 0.99094 0.08711 0.0
H336 H 0.01053 0.16119 -0.00018 0.0
H337 H 0.95957 0.21698 0.99205 0.0
H338 H 0.84437 0.17045 0.03243 0.0
H339 H 0.89498 0.11567 0.04093 0.0
H340 H 0.82535 0.18182 0.98043 0.0
H341 H 0.88388 0.24805 0.05782 0.0
H342 H 0.9491 0.272 0.08626 0.0
H343 H 0.00517 0.34596 0.0354 0.0
H344 H 0.9405 0.32202 0.00652 0.0
H345 H 0.64405 0.32707 0.9819 0.0
H346 H 0.70243 0.28101 0.99567 0.0
H347 H 0.81818 0.34713 0.96704 0.0
H348 H 0.76009 0.39313 0.95333 0.0
H349 H 0.83983 0.32626 0.01178 0.0
H350 H 0.7812 0.26529 0.93533 0.0
H351 H 0.72071 0.24002 0.90458 0.0
H352 H 0.66991 0.15468 0.9498 0.0
H353 H 0.72957 0.17996 0.98108 0.0
C354 C 0.97498 0.16365 0.00775 0.0
C355 C 0.95662 0.13382 0.02078 0.0
C356 C 0.94581 0.19525 0.0031 0.0
C357 C 0.89811 0.19712 0.01133 0.0
C358 C 0.88096 0.16906 0.02572 0.0
C359 C 0.91013 0.13798 0.03068 0.0
C360 C 0.86486 0.22679 0.00382 0.0
C361 C 0.82801 0.21336 0.98746 0.0
C362 C 0.8696 0.26786 0.01247 0.0
C363 C 0.90767 0.28304 0.02998 0.0
C364 C 0.91029 0.26925 0.05267 0.0
C365 C 0.94711 0.28285 0.06887 0.0
C366 C 0.98132 0.31043 0.06262 0.0
C367 C 0.97865 0.32459 0.0402 0.0
C368 C 0.94189 0.31107 0.02393 0.0
C369 C 0.68202 0.33199 0.97891 0.0
C370 C 0.69775 0.36337 0.9665 0.0
C371 C 0.71521 0.30564 0.9866 0.0
C372 C 0.76448 0.31057 0.98213 0.0
C373 C 0.7803 0.34285 0.9706 0.0
C374 C 0.74717 0.36891 0.96271 0.0
C375 C 0.79946 0.28129 0.9887 0.0
C376 C 0.83689 0.29475 0.00475 0.0
C377 C 0.79558 0.24022 0.97945 0.0
C378 C 0.75949 0.22491 0.96072 0.0
C379 C 0.75679 0.24144 0.93886 0.0
C380 C 0.72271 0.22705 0.9213 0.0
C381 C 0.69137 0.19585 0.92527 0.0
C382 C 0.69414 0.17892 0.94679 0.0
C383 C 0.72809 0.19327 0.96444 0.0
H384 H 0.66504 0.18473 0.91164 0.0
H385 H 0.00986 0.32088 0.07517 0.0
H386 H 0.65299 0.62431 0.46785 0.0
H387 H 0.67209 0.69336 0.46101 0.0
H388 H 0.64881 0.73293 0.53708 0.0
H389 H 0.62713 0.66528 0.54326 0.0
H390 H 0.63658 0.79197 0.51696 0.0
H391 H 0.76128 0.69277 0.51172 0.0
H392 H 0.80177 0.63076 0.49464 0.0
H393 H 0.81363 0.67448 0.42587 0.0
H394 H 0.77272 0.73663 0.44256 0.0
H395 H 0.84434 0.89034 0.56703 0.0
H396 H 0.79117 0.83597 0.54978 0.0
H397 H 0.7853 0.88639 0.48272 0.0
H398 H 0.83742 0.94232 0.50021 0.0
H399 H 0.80372 0.79109 0.48585 0.0
H400 H 0.6957 0.90494 0.5085 0.0
H401 H 0.67041 0.96106 0.53861 0.0
H402 H 0.64299 0.8797 0.59031 0.0
H403 H 0.66886 0.82325 0.56067 0.0
C404 C 0.64931 0.64837 0.48265 0.0
C405 C 0.6389 0.63996 0.50608 0.0
C406 C 0.66091 0.68767 0.47887 0.0
C407 C 0.66376 0.71824 0.4987 0.0
C408 C 0.64732 0.71017 0.52142 0.0
C409 C 0.63485 0.67138 0.52502 0.0
C410 C 0.69117 0.75614 0.49745 0.0
C411 C 0.67279 0.79179 0.50972 0.0
C412 C 0.73888 0.75618 0.48835 0.0
C413 C 0.76334 0.71896 0.47824 0.0
C414 C 0.7723 0.689 0.49292 0.0
C415 C 0.79533 0.65388 0.48332 0.0
C416 C 0.81011 0.64862 0.45915 0.0
C417 C 0.80201 0.67855 0.44456 0.0
C418 C 0.77888 0.71371 0.45407 0.0
C419 C 0.83156 0.89019 0.54866 0.0
C420 C 0.84436 0.92114 0.53515 0.0
C421 C 0.80154 0.8589 0.5388 0.0
C422 C 0.78412 0.85761 0.51515 0.0
C423 C 0.79846 0.88718 0.50107 0.0
C424 C 0.8283 0.91892 0.51105 0.0
C425 C 0.74937 0.82582 0.50595 0.0
C426 C 0.76661 0.79154 0.49188 0.0
C427 C 0.70192 0.82607 0.51498 0.0
C428 C 0.68417 0.85988 0.53233 0.0
C429 C 0.68434 0.89905 0.52629 0.0
C430 C 0.66995 0.93092 0.5433 0.0
C431 C 0.65508 0.92395 0.56635 0.0
C432 C 0.65441 0.88507 0.57243 0.0
C433 C 0.66883 0.85312 0.55552 0.0
H434 H 0.64409 0.94867 0.5795 0.0
H435 H 0.82796 0.62142 0.45175 0.0
H436 H 0.61101 0.39002 0.49518 0.0
H437 H 0.64764 0.32356 0.49039 0.0
H438 H 0.78833 0.37866 0.48873 0.0
H439 H 0.75232 0.44454 0.49338 0.0
H440 H 0.77953 0.3136 0.4553 0.0
H441 H 0.74309 0.35165 0.54029 0.0
H442 H 0.69028 0.37008 0.57542 0.0
H443 H 0.61205 0.25915 0.55891 0.0
H444 H 0.66395 0.24034 0.52341 0.0
H445 H 0.94946 0.18222 0.48665 0.0
H446 H 0.89574 0.2394 0.49491 0.0
H447 H 0.7727 0.15961 0.48512 0.0
H448 H 0.82643 0.10246 0.47647 0.0
H449 H 0.76262 0.23053 0.52211 0.0
H450 H 0.80563 0.19063 0.43883 0.0
H451 H 0.86178 0.17253 0.40508 0.0
H452 H 0.92947 0.28852 0.41905 0.0
H453 H 0.8745 0.30695 0.45333 0.0
C454 C 0.64966 0.38777 0.49329 0.0
C455 C 0.67894 0.42235 0.49478 0.0
C456 C 0.67048 0.34992 0.49077 0.0
C457 C 0.72067 0.34638 0.48955 0.0
C458 C 0.74954 0.3808 0.48973 0.0
C459 C 0.72892 0.41842 0.49242 0.0
C460 C 0.74416 0.30729 0.489 0.0
C461 C 0.77587 0.29549 0.46993 0.0
C462 C 0.73851 0.2833 0.50786 0.0
C463 C 0.7069 0.29488 0.52898 0.0
C464 C 0.71425 0.33141 0.54397 0.0
C465 C 0.68457 0.34188 0.56399 0.0
C466 C 0.6477 0.31588 0.56934 0.0
C467 C 0.6405 0.27932 0.5547 0.0
C468 C 0.67002 0.26876 0.53462 0.0
C469 C 0.91102 0.17688 0.48731 0.0
C470 C 0.89173 0.13831 0.48097 0.0
C471 C 0.88045 0.20942 0.49187 0.0
C472 C 0.83045 0.20351 0.49025 0.0
C473 C 0.81122 0.16457 0.48642 0.0
C474 C 0.84178 0.13209 0.48153 0.0
C475 C 0.79898 0.23787 0.48887 0.0
C476 C 0.76569 0.24847 0.50738 0.0
C477 C 0.80327 0.261 0.46955 0.0
C478 C 0.83629 0.24999 0.44887 0.0
C479 C 0.83285 0.21211 0.43491 0.0
C480 C 0.86443 0.20181 0.41565 0.0
C481 C 0.89926 0.22932 0.40996 0.0
C482 C 0.90255 0.2672 0.42352 0.0
C483 C 0.87122 0.27757 0.44288 0.0
H484 H 0.92361 0.22132 0.39501 0.0
H485 H 0.62482 0.324 0.58487 0.0
H486 H 0.49087 0.3687 0.50125 0.0
H487 H 0.4351 0.32304 0.51844 0.0
H488 H 0.33912 0.42116 0.539 0.0
H489 H 0.39601 0.46678 0.52313 0.0
H490 H 0.32335 0.367 0.56718 0.0
H491 H 0.33709 0.36818 0.48113 0.0
H492 H 0.38116 0.36293 0.44244 0.0
H493 H 0.41795 0.24177 0.44949 0.0
H494 H 0.37459 0.24653 0.48842 0.0
H495 H 0.0989 0.26874 0.55131 0.0
H496 H 0.16645 0.31254 0.54336 0.0
H497 H 0.2568 0.20944 0.52736 0.0
H498 H 0.18886 0.1656 0.53442 0.0
H499 H 0.27775 0.26412 0.4985 0.0
H500 H 0.25085 0.266 0.58516 0.0
H501 H 0.20003 0.27674 0.62168 0.0
H502 H 0.17999 0.39912 0.6108 0.0
H503 H 0.23009 0.38893 0.57402 0.0
C504 C 0.45922 0.38068 0.51078 0.0
C505 C 0.44741 0.42094 0.51104 0.0
C506 C 0.42708 0.35463 0.5203 0.0
C507 C 0.38214 0.36848 0.52914 0.0
C508 C 0.37331 0.40969 0.53209 0.0
C509 C 0.4059 0.4358 0.52311 0.0
C510 C 0.34151 0.34018 0.53114 0.0
C511 C 0.31341 0.34448 0.55219 0.0
C512 C 0.32805 0.31113 0.51143 0.0
C513 C 0.35303 0.30782 0.48775 0.0
C514 C 0.3547 0.34046 0.47444 0.0
C515 C 0.37957 0.33759 0.45249 0.0
C516 C 0.40243 0.30207 0.44354 0.0
C517 C 0.40028 0.26928 0.45647 0.0
C518 C 0.37556 0.27204 0.47847 0.0
C519 C 0.13297 0.25553 0.54556 0.0
C520 C 0.13899 0.21397 0.54359 0.0
C521 C 0.17155 0.28049 0.54122 0.0
C522 C 0.21701 0.26429 0.53553 0.0
C523 C 0.22214 0.22258 0.53196 0.0
C524 C 0.18334 0.19756 0.53589 0.0
C525 C 0.25984 0.29064 0.53463 0.0
C526 C 0.28813 0.28615 0.51366 0.0
C527 C 0.27263 0.3202 0.55417 0.0
C528 C 0.24401 0.32663 0.57679 0.0
C529 C 0.23554 0.29517 0.59055 0.0
C530 C 0.20681 0.30115 0.61127 0.0
C531 C 0.18675 0.33857 0.61854 0.0
C532 C 0.19554 0.37015 0.60515 0.0
C533 C 0.22414 0.3643 0.58439 0.0
H534 H 0.16443 0.34312 0.63455 0.0
H535 H 0.42173 0.29991 0.42656 0.0
H536 H 0.49594 0.65129 0.50249 0.0
H537 H 0.44562 0.71078 0.50367 0.0
H538 H 0.31925 0.63468 0.4924 0.0
H539 H 0.36952 0.57568 0.48992 0.0
H540 H 0.32201 0.68329 0.4607 0.0
H541 H 0.34732 0.6978 0.54752 0.0
H542 H 0.39569 0.70572 0.58497 0.0
H543 H 0.45867 0.81418 0.5658 0.0
H544 H 0.41115 0.80663 0.52808 0.0
H545 H 0.13741 0.82255 0.4718 0.0
H546 H 0.19077 0.77127 0.48387 0.0
H547 H 0.31194 0.85236 0.48273 0.0
H548 H 0.25849 0.90352 0.47051 0.0
H549 H 0.31558 0.80513 0.52107 0.0
H550 H 0.2924 0.79116 0.43514 0.0
H551 H 0.24656 0.78419 0.39694 0.0
H552 H 0.18294 0.6744 0.41368 0.0
H553 H 0.22765 0.68116 0.45226 0.0
C554 C 0.45731 0.64756 0.50069 0.0
C555 C 0.43637 0.60921 0.49582 0.0
C556 C 0.4286 0.68144 0.50149 0.0
C557 C 0.37862 0.67717 0.49812 0.0
C558 C 0.35773 0.6387 0.49483 0.0
C559 C 0.38639 0.60505 0.49341 0.0
C560 C 0.34825 0.71191 0.49521 0.0
C561 C 0.32002 0.70956 0.47419 0.0
C562 C 0.34734 0.74702 0.51221 0.0
C563 C 0.37603 0.75141 0.53485 0.0
C564 C 0.3718 0.72314 0.55118 0.0
C565 C 0.399 0.72761 0.57248 0.0
C566 C 0.43033 0.76037 0.57773 0.0
C567 C 0.43445 0.78878 0.56171 0.0
C568 C 0.40736 0.78444 0.54038 0.0
C569 C 0.17526 0.82952 0.47473 0.0
C570 C 0.1943 0.86656 0.47037 0.0
C571 C 0.20561 0.80039 0.48153 0.0
C572 C 0.25522 0.8081 0.48397 0.0
C573 C 0.27373 0.84602 0.48098 0.0
C574 C 0.24341 0.87504 0.47399 0.0
C575 C 0.2882 0.77537 0.48717 0.0
C576 C 0.31735 0.77848 0.50788 0.0
C577 C 0.29028 0.74084 0.46986 0.0
C578 C 0.26291 0.73696 0.44676 0.0
C579 C 0.26819 0.76579 0.43083 0.0
C580 C 0.24248 0.76183 0.40908 0.0
C581 C 0.21174 0.72894 0.40292 0.0
C582 C 0.20666 0.69993 0.41851 0.0
C583 C 0.23215 0.70382 0.44033 0.0
H584 H 0.19196 0.72588 0.38605 0.0
H585 H 0.45133 0.76378 0.59424 0.0
H586 H 0.12363 0.06468 0.10694 0.0
H587 H 0.10335 0.0496 0.14725 0.0
H588 H 0.98461 0.97501 0.11795 0.0
H589 H 0.00477 0.99001 0.07705 0.0
H590 H 0.96966 0.02883 0.16564 0.0
H591 H 0.07264 0.92529 0.12751 0.0
H592 H 0.14279 0.90062 0.10319 0.0
H593 H 0.23751 0.9667 0.15517 0.0
H594 H 0.1679 -0.00784 0.17965 0.0
H595 H 0.96697 0.9626 0.28219 0.0
H596 H 0.96357 0.96162 0.23817 0.0
H597 H 0.10817 0.01014 0.23906 0.0
H598 H 0.11224 0.00928 0.28283 0.0
H599 H 0.09895 0.95642 0.20225 0.0
H600 H 0.00202 0.06865 0.23614 0.0
H601 H 0.93549 0.10067 0.26039 0.0
H602 H 0.8334 0.02566 0.21724 0.0
H603 H 0.89943 -0.00704 0.19287 0.0
C604 C 0.09276 0.04548 0.109 0.0
C605 C 0.06619 0.02806 0.08879 0.0
C606 C 0.08124 0.03695 0.13205 0.0
C607 C 0.0431 0.01072 0.13539 0.0
C608 C 0.01433 -0.00478 0.11558 0.0
C609 C 0.02584 0.00385 0.09232 0.0
C610 C 0.03644 -0.00217 0.15945 0.0
C611 C 0.99715 0.01211 0.17357 0.0
C612 C 0.073 0.97677 0.16975 0.0
C613 C 0.11502 0.96071 0.15537 0.0
C614 C 0.10842 0.93468 0.1337 0.0
C615 C 0.14809 0.92054 0.11989 0.0
C616 C 0.19457 0.93211 0.12762 0.0
C617 C 0.20149 0.95773 0.14922 0.0
C618 C 0.16194 0.97195 0.16309 0.0
C619 C -0.002 0.9728 0.27285 0.0
C620 C 0.03983 0.98609 0.28572 0.0
C621 C 0.99598 0.97243 0.24778 0.0
C622 C 0.03531 0.98642 0.23533 0.0
C623 C 0.07739 -0.0009 0.24824 0.0
C624 C 0.07974 -0.00131 0.2732 0.0
C625 C 0.0329 0.98866 0.20895 0.0
C626 C 0.07062 0.97226 0.19432 0.0
C627 C 0.99527 0.00836 0.19834 0.0
C628 C 0.95562 0.0281 0.21289 0.0
C629 C 0.96538 0.05885 0.23193 0.0
C630 C 0.92778 0.07714 0.24567 0.0
C631 C 0.88026 0.06512 0.2404 0.0
C632 C 0.87023 0.03489 0.22132 0.0
C633 C 0.90771 0.01649 0.20753 0.0
H634 H 0.85119 0.07931 0.25107 0.0
H635 H 0.22523 0.92119 0.11689 0.0
H636 H 0.108 0.07008 0.92688 0.0
H637 H 0.11184 0.0774 0.88344 0.0
H638 H 0.97646 0.01382 0.87182 0.0
H639 H 0.97161 0.008 0.91506 0.0
H640 H 0.05045 0.9899 0.83631 0.0
H641 H 0.96804 0.10231 0.87633 0.0
H642 H 0.95496 0.16183 0.90613 0.0
H643 H 0.07466 0.2215 0.87705 0.0
H644 H 0.08989 0.16156 0.8478 0.0
H645 H 0.9499 0.0428 0.72879 0.0
H646 H 0.96264 0.0361 0.77137 0.0
H647 H 0.09622 0.10229 0.77083 0.0
H648 H 0.08487 0.10788 0.72784 0.0
H649 H 0.03203 0.12536 0.81211 0.0
H650 H 0.10616 0.00876 0.76837 0.0
H651 H 0.10732 0.94918 0.73754 0.0
H652 H 0.98865 0.89781 0.77255 0.0
H653 H 0.98628 0.9574 0.80339 0.0
C654 C 0.07946 0.05744 0.9149 0.0
C655 C 0.03941 0.0387 0.92409 0.0
C656 C 0.08161 0.06164 0.89024 0.0
C657 C 0.04437 0.04613 0.87456 0.0
C658 C 0.00553 0.02586 0.88365 0.0
C659 C 0.0027 0.02274 0.90829 0.0
C660 C 0.04404 0.05276 0.84889 0.0
C661 C 0.04657 0.0195 0.83099 0.0
C662 C 0.03875 0.09141 0.84209 0.0
C663 C 0.03083 0.12705 0.86023 0.0
C664 C 0.99236 0.12772 0.87667 0.0
C665 C 0.98449 0.16158 0.89346 0.0
C666 C 0.01428 0.19529 0.8937 0.0
C667 C 0.05202 0.19519 0.87712 0.0
C668 C 0.06041 0.16121 0.86048 0.0
C669 C 0.98228 0.05563 0.73758 0.0
C670 C 0.01664 0.07547 0.72475 0.0
C671 C 0.9893 0.05198 0.76196 0.0
C672 C 0.03057 0.06836 0.77407 0.0
C673 C 0.06416 0.08944 0.7617 0.0
C674 C 0.05744 0.09275 0.73718 0.0
C675 C 0.0388 0.06256 0.79955 0.0
C676 C 0.03726 0.09592 0.81743 0.0
C677 C 0.04388 0.02389 0.80636 0.0
C678 C 0.04586 0.98768 0.7881 0.0
C679 C 0.08012 0.98488 0.76941 0.0
C680 C 0.08101 0.95109 0.75194 0.0
C681 C 0.04803 0.91976 0.75306 0.0
C682 C 0.01417 0.9221 0.7717 0.0
C683 C 0.01308 0.95586 0.7892 0.0
H684 H 0.04876 0.89363 0.73951 0.0
H685 H 0.00777 0.22156 0.90659 0.0
H686 H 0.53221 0.45801 0.57721 0.0
H687 H 0.51703 0.44758 0.6194 0.0
H688 H 0.5508 0.5721 0.64275 0.0
H689 H 0.56795 0.58188 0.60096 0.0
H690 H 0.60704 0.52525 0.66382 0.0
H691 H 0.43606 0.5299 0.64794 0.0
H692 H 0.3608 0.50839 0.62639 0.0
H693 H 0.37742 0.3896 0.64467 0.0
H694 H 0.45312 0.41028 0.66608 0.0
H695 H 0.55586 0.55382 0.78791 0.0
H696 H 0.55491 0.55457 0.74415 0.0
H697 H 0.52921 0.42698 0.73304 0.0
H698 H 0.52909 0.42615 0.77697 0.0
H699 H 0.47044 0.46648 0.70486 0.0
H700 H 0.63789 0.46164 0.72209 0.0
H701 H 0.71491 0.48088 0.74253 0.0
H702 H 0.7067 0.59785 0.72048 0.0
H703 H 0.62926 0.57954 0.7002 0.0
C704 C 0.53479 0.48325 0.59138 0.0
C705 C 0.55141 0.52063 0.58616 0.0
C706 C 0.52613 0.47735 0.6154 0.0
C707 C 0.53316 0.50905 0.6342 0.0
C708 C 0.54559 0.54719 0.62854 0.0
C709 C 0.55518 0.55283 0.60473 0.0
C710 C 0.53454 0.50189 0.65981 0.0
C711 C 0.57682 0.51299 0.67288 0.0
C712 C 0.49611 0.48391 0.67122 0.0
C713 C 0.45055 0.47154 0.65838 0.0
C714 C 0.42389 0.49911 0.64718 0.0
C715 C 0.3811 0.48708 0.63504 0.0
C716 C 0.36441 0.44762 0.63409 0.0
C717 C 0.39042 0.42014 0.64538 0.0
C718 C 0.43324 0.43201 0.65754 0.0
C719 C 0.54977 0.52596 0.77615 0.0
C720 C 0.54248 0.48993 0.7858 0.0
C721 C 0.5496 0.52637 0.75118 0.0
C722 C 0.54234 0.49076 0.73542 0.0
C723 C 0.53494 0.45472 0.74496 0.0
C724 C 0.53527 0.45426 0.76999 0.0
C725 C 0.54209 0.4916 0.70899 0.0
C726 C 0.5005 0.47883 0.69574 0.0
C727 C 0.58125 0.50794 0.69726 0.0
C728 C 0.62748 0.51931 0.70981 0.0
C729 C 0.65223 0.49161 0.72181 0.0
C730 C 0.69603 0.50232 0.73332 0.0
C731 C 0.71562 0.54059 0.73285 0.0
C732 C 0.69145 0.56823 0.72086 0.0
C733 C 0.64762 0.55769 0.70934 0.0
H734 H 0.74958 0.5488 0.74174 0.0
H735 H 0.33129 0.43836 0.62467 0.0
H736 H 0.59983 0.46917 0.39866 0.0
H737 H 0.59488 0.49262 0.35888 0.0
H738 H 0.54324 0.60643 0.39266 0.0
H739 H 0.55036 0.58386 0.43256 0.0
H740 H 0.48364 0.54297 0.35107 0.0
H741 H 0.61901 0.63166 0.37178 0.0
H742 H 0.70034 0.64768 0.38807 0.0
H743 H 0.75982 0.56014 0.33357 0.0
H744 H 0.67857 0.54303 0.31726 0.0
H745 H 0.46243 0.62568 0.23854 0.0
H746 H 0.4788 0.62208 0.28156 0.0
H747 H 0.57462 0.52385 0.26151 0.0
H748 H 0.55747 0.52673 0.2186 0.0
H749 H 0.61101 0.58862 0.2982 0.0
H750 H 0.47551 0.49868 0.27867 0.0
H751 H 0.3941 0.48048 0.26318 0.0
H752 H 0.33396 0.57023 0.3161 0.0
H753 H 0.41522 0.58942 0.33167 0.0
C754 C 0.58948 0.49974 0.39762 0.0
C755 C 0.57619 0.52494 0.41857 0.0
C756 C 0.58628 0.51297 0.37498 0.0
C757 C 0.56865 0.55114 0.37301 0.0
C758 C 0.55736 0.57702 0.39397 0.0
C759 C 0.5619 0.56423 0.41669 0.0
C760 C 0.55758 0.56193 0.34887 0.0
C761 C 0.51109 0.55386 0.33963 0.0
C762 C 0.59377 0.5753 0.33403 0.0
C763 C 0.64269 0.5857 0.34352 0.0
C764 C 0.64937 0.61548 0.36346 0.0
C765 C 0.69545 0.62484 0.37266 0.0
C766 C 0.73522 0.60484 0.36192 0.0
C767 C 0.72896 0.57554 0.3419 0.0
C768 C 0.6829 0.56601 0.33267 0.0
C769 C 0.48696 0.60341 0.24342 0.0
C770 C 0.50856 0.57632 0.22545 0.0
C771 C 0.49628 0.6014 0.26787 0.0
C772 C 0.52799 0.57279 0.27456 0.0
C773 C 0.55021 0.54621 0.2566 0.0
C774 C 0.54017 0.54768 0.23221 0.0
C775 C 0.537 0.56962 0.30032 0.0
C776 C 0.5832 0.57866 0.30978 0.0
C777 C 0.50037 0.55733 0.31543 0.0
C778 C 0.4515 0.54589 0.3061 0.0
C779 C 0.44499 0.51487 0.28682 0.0
C780 C 0.39886 0.50429 0.27807 0.0
C781 C 0.35889 0.52429 0.28858 0.0
C782 C 0.36497 0.55484 0.30793 0.0
C783 C 0.41106 0.56557 0.31673 0.0
H784 H 0.3232 0.51604 0.2818 0.0
H785 H 0.77088 0.61212 0.36906 0.0
loop_
_geom_bond_atom_site_label_1
_geom_bond_atom_site_label_2
_geom_bond_distance
_geom_bond_site_symmetry_2
_ccdc_geom_bond_type
O0 Mg1 1.990 . S
O0 C14 1.253 . S
Mg1 O0 1.990 . S
Mg1 O4 2.180 . S
Mg1 O5 2.117 . S
Mg1 O19 2.030 1_545 S
O2 Mg3 2.072 . S
O2 C14 1.260 . S
Mg3 O2 2.072 . S
Mg3 O4 2.099 . S
Mg3 O6 2.079 1_554 S
Mg3 O7 2.072 . S
Mg3 O9 2.099 1_444 S
Mg3 O20 2.078 1_544 S
O4 Mg1 2.180 . S
O4 Mg3 2.099 . S
O4 C15 1.279 . S
O5 Mg1 2.117 . S
O5 C15 1.250 . S
O6 Mg3 2.079 1_556 S
O6 C16 1.264 . S
O7 Mg3 2.072 . S
O7 C17 1.260 1_455 S
Mg8 O9 2.180 1_545 S
Mg8 O10 2.030 . S
Mg8 O11 1.990 . S
Mg8 O12 2.148 1_545 S
O9 Mg3 2.099 1_666 S
O9 Mg8 2.180 1_565 S
O9 C18 1.279 1_556 S
O10 Mg8 2.030 . S
O10 C16 1.248 1_655 S
O11 Mg8 1.990 . S
O11 C17 1.253 1_556 S
O12 Mg8 2.148 1_565 S
O12 C18 1.240 1_556 S
C13 O19 1.248 . S
C13 O20 1.246 1_554 S
C14 O0 1.253 . S
C14 O2 1.260 . S
C15 O4 1.279 . S
C15 O5 1.250 . S
C16 O6 1.264 . S
C16 O10 1.248 1_455 S
C17 O7 1.260 1_655 S
C17 O11 1.253 1_554 S
C18 O9 1.279 1_554 S
C18 O12 1.240 1_554 S
O19 Mg1 2.030 1_565 S
O19 C13 1.248 . S
O20 Mg3 2.078 1_566 S
O20 C13 1.246 1_556 S
O21 Mg22 1.990 . S
O21 C35 1.253 . S
Mg22 O21 1.990 . S
Mg22 O25 2.180 . S
Mg22 O26 2.117 . S
Mg22 O40 2.030 . S
O23 Mg24 2.072 . S
O23 C35 1.260 . S
Mg24 O23 2.072 . S
Mg24 O25 2.099 . S
Mg24 O27 2.079 . S
Mg24 O28 2.072 . S
Mg24 O30 2.099 . S
Mg24 O41 2.079 . S
O25 Mg22 2.180 . S
O25 Mg24 2.099 . S
O25 C36 1.279 . S
O26 Mg22 2.117 . S
O26 C36 1.250 . S
O27 Mg24 2.079 . S
O27 C37 1.264 . S
O28 Mg24 2.072 . S
O28 C38 1.260 . S
Mg29 O30 2.180 . S
Mg29 O31 2.030 . S
Mg29 O32 1.990 . S
Mg29 O33 2.117 . S
O30 Mg24 2.099 . S
O30 Mg29 2.180 . S
O30 C39 1.279 . S
O31 Mg29 2.030 . S
O31 C37 1.248 . S
O32 Mg29 1.990 . S
O32 C38 1.253 . S
O33 Mg29 2.117 . S
O33 C39 1.250 . S
C34 O40 1.248 . S
C34 O41 1.264 . S
C35 O21 1.253 . S
C35 O23 1.260 . S
C36 O25 1.279 . S
C36 O26 1.250 . S
C37 O27 1.264 . S
C37 O31 1.248 . S
C38 O28 1.260 . S
C38 O32 1.253 . S
C39 O30 1.279 . S
C39 O33 1.250 . S
O40 Mg22 2.030 . S
O40 C34 1.248 . S
O41 Mg24 2.079 . S
O41 C34 1.264 . S
C42 C43 1.384 . S
C42 H55 0.947 . S
C42 C77 1.382 . S
C43 C42 1.384 . S
C43 C44 1.378 . S
C44 C43 1.378 . S
C44 C45 1.378 . S
C44 H56 0.952 . S
C45 C44 1.378 . S
C45 H57 0.950 1_655 S
C45 C76 1.383 . S
H46 C65 0.947 . S
H47 C66 0.946 . S
H48 C68 0.953 . S
H49 C69 0.945 . S
H50 C71 0.952 . S
H51 C72 0.949 . S
H52 C74 0.950 . S
H53 C75 0.948 . S
H54 C77 0.951 . S
H55 C42 0.947 . S
H56 C44 0.952 . S
H57 C45 0.950 1_455 S
N58 C61 1.382 1_545 S
N58 C63 1.363 . S
N59 C61 1.371 . S
N59 C62 1.372 1_565 S
N60 C62 1.361 . S
N60 C63 1.377 . S
C61 N58 1.382 1_565 S
C61 N59 1.371 . S
C61 C64 1.480 . S
C62 N59 1.372 1_545 S
C62 N60 1.361 . S
C62 C70 1.457 . S
C63 N58 1.363 . S
C63 N60 1.377 . S
C63 C76 1.479 1_455 S
C64 C61 1.480 . S
C64 C65 1.383 . S
C64 C69 1.385 . S
C65 H46 0.947 . S
C65 C64 1.383 . S
C65 C66 1.388 . S
C66 H47 0.946 . S
C66 C65 1.388 . S
C66 C67 1.384 . S
C67 C66 1.384 . S
C67 C68 1.377 . S
C68 H48 0.953 . S
C68 C67 1.377 . S
C68 C69 1.369 . S
C69 H49 0.945 . S
C69 C64 1.385 . S
C69 C68 1.369 . S
C70 C62 1.457 . S
C70 C71 1.372 1_545 S
C70 C75 1.364 . S
C71 H50 0.952 . S
C71 C70 1.372 1_565 S
C71 C72 1.389 . S
C72 H51 0.949 . S
C72 C71 1.389 . S
C72 C73 1.387 1_565 S
C73 C72 1.387 1_545 S
C73 C74 1.371 . S
C74 H52 0.950 . S
C74 C73 1.371 . S
C74 C75 1.379 . S
C75 H53 0.948 . S
C75 C70 1.364 . S
C75 C74 1.379 . S
C76 C45 1.383 . S
C76 C63 1.479 1_655 S
C76 C77 1.398 . S
C77 C42 1.382 . S
C77 H54 0.951 . S
C77 C76 1.398 . S
C78 C79 1.384 . S
C78 H91 0.947 . S
C78 C113 1.382 . S
C79 C78 1.384 . S
C79 C80 1.378 . S
C80 C79 1.378 . S
C80 C81 1.378 1_565 S
C80 H92 0.952 . S
C81 C80 1.378 1_545 S
C81 H93 0.950 . S
C81 C112 1.383 . S
H82 C101 0.947 . S
H83 C102 0.946 . S
H84 C104 0.953 . S
H85 C105 0.945 . S
H86 C107 0.952 . S
H87 C108 0.949 . S
H88 C110 0.950 . S
H89 C111 0.948 . S
H90 C113 0.951 1_545 S
H91 C78 0.947 . S
H92 C80 0.952 . S
H93 C81 0.950 . S
N94 C97 1.382 . S
N94 C99 1.363 1_455 S
N95 C97 1.371 . S
N95 C98 1.372 . S
N96 C98 1.361 1_655 S
N96 C99 1.377 . S
C97 N94 1.382 . S
C97 N95 1.371 . S
C97 C100 1.480 . S
C98 N95 1.372 . S
C98 N96 1.361 1_455 S
C98 C106 1.457 . S
C99 N94 1.363 1_655 S
C99 N96 1.377 . S
C99 C112 1.479 . S
C100 C97 1.480 . S
C100 C101 1.383 . S
C100 C105 1.385 . S
C101 H82 0.947 . S
C101 C100 1.383 . S
C101 C102 1.388 . S
C102 H83 0.946 . S
C102 C101 1.388 . S
C102 C103 1.384 . S
C103 C102 1.384 . S
C103 C104 1.377 . S
C104 H84 0.953 . S
C104 C103 1.377 . S
C104 C105 1.369 . S
C105 H85 0.945 . S
C105 C100 1.385 . S
C105 C104 1.369 . S
C106 C98 1.457 . S
C106 C107 1.372 . S
C106 C111 1.364 1_455 S
C107 H86 0.952 . S
C107 C106 1.372 . S
C107 C108 1.389 . S
C108 H87 0.949 . S
C108 C107 1.389 . S
C108 C109 1.387 . S
C109 C108 1.387 . S
C109 C110 1.372 1_455 S
C110 H88 0.950 . S
C110 C109 1.372 1_655 S
C110 C111 1.379 . S
C111 H89 0.948 . S
C111 C106 1.364 1_655 S
C111 C110 1.379 . S
C112 C81 1.383 . S
C112 C99 1.479 . S
C112 C113 1.398 1_545 S
C113 C78 1.382 . S
C113 H90 0.951 1_565 S
C113 C112 1.398 1_565 S
C114 C115 1.384 . S
C114 H127 0.947 . S
C114 C149 1.382 . S
C115 C114 1.384 . S
C115 C116 1.378 . S
C116 C115 1.378 . S
C116 C117 1.378 . S
C116 H128 0.918 1_556 S
C117 C116 1.378 . S
C117 H129 0.950 . S
C117 C148 1.383 . S
H118 C137 0.947 . S
H119 C138 0.946 . S
H120 C140 0.953 . S
H121 C141 0.945 . S
H122 C143 0.952 . S
H123 C144 0.949 . S
H124 C146 0.950 . S
H125 C147 0.948 . S
H126 C149 0.951 . S
H127 C114 0.947 . S
H128 C116 0.918 1_554 S
H129 C117 0.950 . S
N130 C133 1.382 . S
N130 C135 1.363 . S
N131 C133 1.371 . S
N131 C134 1.372 . S
N132 C134 1.361 . S
N132 C135 1.377 . S
C133 N130 1.382 . S
C133 N131 1.371 . S
C133 C136 1.480 . S
C134 N131 1.372 . S
C134 N132 1.361 . S
C134 C142 1.457 . S
C135 N130 1.363 . S
C135 N132 1.377 . S
C135 C148 1.479 . S
C136 C133 1.480 . S
C136 C137 1.383 . S
C136 C141 1.385 . S
C137 H118 0.947 . S
C137 C136 1.383 . S
C137 C138 1.388 . S
C138 H119 0.946 . S
C138 C137 1.388 . S
C138 C139 1.384 . S
C139 C138 1.384 . S
C139 C140 1.377 . S
C140 H120 0.953 . S
C140 C139 1.377 . S
C140 C141 1.369 . S
C141 H121 0.945 . S
C141 C136 1.385 . S
C141 C140 1.369 . S
C142 C134 1.457 . S
C142 C143 1.372 . S
C142 C147 1.364 . S
C143 H122 0.952 . S
C143 C142 1.372 . S
C143 C144 1.389 . S
C144 H123 0.949 . S
C144 C143 1.389 . S
C144 C145 1.387 . S
C145 C144 1.387 . S
C145 C146 1.372 . S
C146 H124 0.950 . S
C146 C145 1.372 . S
C146 C147 1.379 . S
C147 H125 0.948 . S
C147 C142 1.364 . S
C147 C146 1.379 . S
C148 C117 1.383 . S
C148 C135 1.479 . S
C148 C149 1.398 . S
C149 C114 1.382 . S
C149 H126 0.951 . S
C149 C148 1.398 . S
C150 C151 1.384 . S
C150 H163 0.947 . S
C150 C185 1.382 . S
C151 C150 1.384 . S
C151 C152 1.378 . S
C152 C151 1.378 . S
C152 C153 1.378 . S
C152 H164 0.952 . S
C153 C152 1.378 . S
C153 H165 0.950 . S
C153 C184 1.383 . S
H154 C173 0.947 . S
H155 C174 0.946 . S
H156 C176 0.953 . S
H157 C177 0.945 . S
H158 C179 0.952 . S
H159 C180 0.949 . S
H160 C182 0.950 . S
H161 C183 0.948 . S
H162 C185 0.951 . S
H163 C150 0.947 . S
H164 C152 0.952 . S
H165 C153 0.950 . S
N166 C169 1.382 . S
N166 C171 1.363 . S
N167 C169 1.371 . S
N167 C170 1.372 . S
N168 C170 1.361 . S
N168 C171 1.377 . S
C169 N166 1.382 . S
C169 N167 1.371 . S
C169 C172 1.480 . S
C170 N167 1.372 . S
C170 N168 1.361 . S
C170 C178 1.457 . S
C171 N166 1.363 . S
C171 N168 1.377 . S
C171 C184 1.479 . S
C172 C169 1.480 . S
C172 C173 1.383 . S
C172 C177 1.385 . S
C173 H154 0.947 . S
C173 C172 1.383 . S
C173 C174 1.388 . S
C174 H155 0.946 . S
C174 C173 1.388 . S
C174 C175 1.384 . S
C175 C174 1.384 . S
C175 C176 1.377 . S
C176 H156 0.953 . S
C176 C175 1.377 . S
C176 C177 1.369 . S
C177 H157 0.945 . S
C177 C172 1.385 . S
C177 C176 1.369 . S
C178 C170 1.457 . S
C178 C179 1.372 . S
C178 C183 1.364 . S
C179 H158 0.952 . S
C179 C178 1.372 . S
C179 C180 1.389 . S
C180 H159 0.949 . S
C180 C179 1.389 . S
C180 C181 1.387 . S
C181 C180 1.387 . S
C181 C182 1.372 . S
C182 H160 0.950 . S
C182 C181 1.372 . S
C182 C183 1.379 . S
C183 H161 0.948 . S
C183 C178 1.364 . S
C183 C182 1.379 . S
C184 C153 1.383 . S
C184 C171 1.479 . S
C184 C185 1.398 . S
C185 C150 1.382 . S
C185 H162 0.951 . S
C185 C184 1.398 . S
H186 C204 0.951 . S
H187 C206 0.951 . S
H188 C208 0.950 . S
H189 C209 0.950 . S
H190 C211 0.950 . S
H191 C214 0.950 . S
H192 C215 0.950 . S
H193 C217 0.950 . S
H194 C218 0.950 . S
H195 C219 0.951 . S
H196 C221 0.951 . S
H197 C223 0.950 . S
H198 C224 0.950 . S
H199 C226 0.950 . S
H200 C229 0.950 . S
H201 C230 0.950 . S
H202 C232 0.950 . S
H203 C233 0.950 . S
C204 H186 0.951 . S
C204 C205 1.366 . S
C204 C206 1.388 . S
C205 C204 1.366 . S
C205 C209 1.385 . S
C206 H187 0.951 . S
C206 C204 1.388 . S
C206 C207 1.366 . S
C207 C206 1.366 . S
C207 C208 1.414 . S
C207 C210 1.499 . S
C208 H188 0.950 . S
C208 C207 1.414 . S
C208 C209 1.374 . S
C209 H189 0.950 . S
C209 C205 1.385 . S
C209 C208 1.374 . S
C210 C207 1.499 . S
C210 C211 1.373 . S
C210 C212 1.389 . S
C211 H190 0.950 . S
C211 C210 1.373 . S
C211 C227 1.377 . S
C212 C210 1.389 . S
C212 C213 1.524 1_554 S
C212 C226 1.377 . S
C213 C212 1.524 1_556 S
C213 C214 1.397 . S
C213 C218 1.363 . S
C214 H191 0.950 . S
C214 C213 1.397 . S
C214 C215 1.334 . S
C215 H192 0.950 . S
C215 C214 1.334 . S
C215 C216 1.287 . S
C216 C215 1.287 . S
C216 C217 1.524 . S
C216 H235 0.913 . S
C217 H193 0.950 . S
C217 C216 1.524 . S
C217 C218 1.415 . S
C218 H194 0.950 . S
C218 C213 1.363 . S
C218 C217 1.415 . S
C219 H195 0.951 . S
C219 C220 1.366 . S
C219 C221 1.388 . S
C220 C219 1.366 . S
C220 C224 1.385 . S
C221 H196 0.951 . S
C221 C219 1.388 . S
C221 C222 1.366 . S
C222 C221 1.366 . S
C222 C223 1.414 . S
C222 C225 1.499 . S
C223 H197 0.950 . S
C223 C222 1.414 . S
C223 C224 1.374 . S
C224 H198 0.950 . S
C224 C220 1.385 . S
C224 C223 1.374 . S
C225 C222 1.499 . S
C225 C226 1.373 . S
C225 C227 1.389 . S
C226 H199 0.950 . S
C226 C212 1.377 . S
C226 C225 1.373 . S
C227 C211 1.377 . S
C227 C225 1.389 . S
C227 C228 1.524 . S
C228 C227 1.524 . S
C228 C229 1.397 . S
C228 C233 1.363 . S
C229 H200 0.950 . S
C229 C228 1.397 . S
C229 C230 1.334 . S
C230 H201 0.950 . S
C230 C229 1.334 . S
C230 C231 1.287 . S
C231 C230 1.287 . S
C231 C232 1.524 . S
C231 H234 0.999 . S
C232 H202 0.950 . S
C232 C231 1.524 . S
C232 C233 1.415 . S
C233 H203 0.950 . S
C233 C228 1.363 . S
C233 C232 1.415 . S
H234 C231 0.999 . S
H235 C216 0.913 . S
H236 C254 0.951 . S
H237 C256 0.951 . S
H238 C258 0.950 . S
H239 C259 0.950 . S
H240 C261 0.950 . S
H241 C264 0.950 . S
H242 C265 0.950 . S
H243 C267 0.950 . S
H244 C268 0.950 . S
H245 C269 0.951 . S
H246 C271 0.951 . S
H247 C273 0.950 . S
H248 C274 0.950 . S
H249 C276 0.950 . S
H250 C279 0.950 . S
H251 C280 0.950 . S
H252 C282 0.950 . S
H253 C283 0.950 . S
C254 H236 0.951 . S
C254 C255 1.366 1_556 S
C254 C256 1.388 . S
C255 C254 1.366 1_554 S
C255 C259 1.385 . S
C256 H237 0.951 . S
C256 C254 1.388 . S
C256 C257 1.366 . S
C257 C256 1.366 . S
C257 C258 1.414 1_556 S
C257 C260 1.499 . S
C258 H238 0.950 . S
C258 C257 1.414 1_554 S
C258 C259 1.374 . S
C259 H239 0.950 . S
C259 C255 1.385 . S
C259 C258 1.374 . S
C260 C257 1.499 . S
C260 C261 1.373 1_556 S
C260 C262 1.389 . S
C261 H240 0.950 . S
C261 C260 1.373 1_554 S
C261 C277 1.377 . S
C262 C260 1.389 . S
C262 C263 1.524 . S
C262 C276 1.377 . S
C263 C262 1.524 . S
C263 C264 1.397 . S
C263 C268 1.363 . S
C264 H241 0.950 . S
C264 C263 1.397 . S
C264 C265 1.334 . S
C265 H242 0.950 . S
C265 C264 1.334 . S
C265 C266 1.287 . S
C266 C265 1.287 . S
C266 C267 1.524 . S
C266 H285 0.913 . S
C267 H243 0.950 . S
C267 C266 1.524 . S
C267 C268 1.415 . S
C268 H244 0.950 . S
C268 C263 1.363 . S
C268 C267 1.415 . S
C269 H245 0.951 . S
C269 C270 1.366 . S
C269 C271 1.388 . S
C270 C269 1.366 . S
C270 C274 1.385 . S
C271 H246 0.951 . S
C271 C269 1.388 . S
C271 C272 1.366 . S
C272 C271 1.366 . S
C272 C273 1.414 . S
C272 C275 1.499 . S
C273 H247 0.950 . S
C273 C272 1.414 . S
C273 C274 1.374 . S
C274 H248 0.950 . S
C274 C270 1.385 . S
C274 C273 1.374 . S
C275 C272 1.499 . S
C275 C276 1.373 . S
C275 C277 1.389 1_556 S
C276 H249 0.950 . S
C276 C262 1.377 . S
C276 C275 1.373 . S
C277 C261 1.377 . S
C277 C275 1.389 1_554 S
C277 C278 1.524 . S
C278 C277 1.524 . S
C278 C279 1.397 . S
C278 C283 1.363 . S
C279 H250 0.950 . S
C279 C278 1.397 . S
C279 C280 1.334 . S
C280 H251 0.950 . S
C280 C279 1.334 . S
C280 C281 1.287 . S
C281 C280 1.287 . S
C281 C282 1.524 . S
C281 H284 0.999 . S
C282 H252 0.950 . S
C282 C281 1.524 . S
C282 C283 1.415 . S
C283 H253 0.950 . S
C283 C278 1.363 . S
C283 C282 1.415 . S
H284 C281 0.999 . S
H285 C266 0.913 . S
H286 C304 0.951 . S
H287 C306 0.951 . S
H288 C308 0.950 . S
H289 C309 0.950 . S
H290 C311 0.950 . S
H291 C314 0.950 . S
H292 C315 0.950 . S
H293 C317 0.950 . S
H294 C318 0.950 . S
H295 C319 0.951 . S
H296 C321 0.951 . S
H297 C323 0.950 . S
H298 C324 0.950 . S
H299 C326 0.950 . S
H300 C329 0.950 . S
H301 C330 0.950 . S
H302 C332 0.950 . S
H303 C333 0.950 . S
C304 H286 0.951 . S
C304 C305 1.366 . S
C304 C306 1.388 . S
C305 C304 1.366 . S
C305 C309 1.385 . S
C306 H287 0.951 . S
C306 C304 1.388 . S
C306 C307 1.366 . S
C307 C306 1.366 . S
C307 C308 1.414 . S
C307 C310 1.499 . S
C308 H288 0.950 . S
C308 C307 1.414 . S
C308 C309 1.374 . S
C309 H289 0.950 . S
C309 C305 1.385 . S
C309 C308 1.374 . S
C310 C307 1.499 . S
C310 C311 1.373 . S
C310 C312 1.389 . S
C311 H290 0.950 . S
C311 C310 1.373 . S
C311 C327 1.377 . S
C312 C310 1.389 . S
C312 C313 1.524 . S
C312 C326 1.377 . S
C313 C312 1.524 . S
C313 C314 1.397 . S
C313 C318 1.363 . S
C314 H291 0.950 . S
C314 C313 1.397 . S
C314 C315 1.334 . S
C315 H292 0.950 . S
C315 C314 1.334 . S
C315 C316 1.287 . S
C316 C315 1.287 . S
C316 C317 1.524 . S
C316 H335 0.913 1_565 S
C317 H293 0.950 . S
C317 C316 1.524 . S
C317 C318 1.415 . S
C318 H294 0.950 . S
C318 C313 1.363 . S
C318 C317 1.415 . S
C319 H295 0.951 . S
C319 C320 1.366 . S
C319 C321 1.388 . S
C320 C319 1.366 . S
C320 C324 1.385 . S
C321 H296 0.951 . S
C321 C319 1.388 . S
C321 C322 1.366 . S
C322 C321 1.366 . S
C322 C323 1.414 . S
C322 C325 1.499 . S
C323 H297 0.950 . S
C323 C322 1.414 . S
C323 C324 1.374 . S
C324 H298 0.950 . S
C324 C320 1.385 . S
C324 C323 1.374 . S
C325 C322 1.499 . S
C325 C326 1.373 . S
C325 C327 1.389 . S
C326 H299 0.950 . S
C326 C312 1.377 . S
C326 C325 1.373 . S
C327 C311 1.377 . S
C327 C325 1.389 . S
C327 C328 1.524 . S
C328 C327 1.524 . S
C328 C329 1.397 1_554 S
C328 C333 1.363 . S
C329 H300 0.950 . S
C329 C328 1.397 1_556 S
C329 C330 1.334 . S
C330 H301 0.950 . S
C330 C329 1.334 . S
C330 C331 1.287 . S
C331 C330 1.287 . S
C331 C332 1.524 . S
C331 H334 0.999 . S
C332 H302 0.950 . S
C332 C331 1.524 . S
C332 C333 1.415 1_556 S
C333 H303 0.950 . S
C333 C328 1.363 . S
C333 C332 1.415 1_554 S
H334 C331 0.999 . S
H335 C316 0.913 1_545 S
H336 C354 0.951 1_455 S
H337 C356 0.951 . S
H338 C358 0.950 . S
H339 C359 0.950 . S
H340 C361 0.950 . S
H341 C364 0.950 . S
H342 C365 0.950 . S
H343 C367 0.950 . S
H344 C368 0.950 . S
H345 C369 0.951 . S
H346 C371 0.951 . S
H347 C373 0.950 . S
H348 C374 0.950 . S
H349 C376 0.950 1_554 S
H350 C379 0.950 . S
H351 C380 0.950 . S
H352 C382 0.950 . S
H353 C383 0.950 . S
C354 H336 0.951 1_655 S
C354 C355 1.366 1_556 S
C354 C356 1.388 . S
C355 C354 1.366 1_554 S
C355 C359 1.385 . S
C356 H337 0.951 . S
C356 C354 1.388 . S
C356 C357 1.366 . S
C357 C356 1.366 . S
C357 C358 1.414 1_556 S
C357 C360 1.499 . S
C358 H338 0.950 . S
C358 C357 1.414 1_554 S
C358 C359 1.374 . S
C359 H339 0.950 . S
C359 C355 1.385 . S
C359 C358 1.374 . S
C360 C357 1.499 . S
C360 C361 1.373 . S
C360 C362 1.389 1_556 S
C361 H340 0.950 . S
C361 C360 1.373 . S
C361 C377 1.377 . S
C362 C360 1.389 1_554 S
C362 C363 1.524 . S
C362 C376 1.377 1_554 S
C363 C362 1.524 . S
C363 C364 1.397 . S
C363 C368 1.363 . S
C364 H341 0.950 . S
C364 C363 1.397 . S
C364 C365 1.334 . S
C365 H342 0.950 . S
C365 C364 1.334 . S
C365 C366 1.287 . S
C366 C365 1.287 . S
C366 C367 1.524 . S
C366 H385 0.913 . S
C367 H343 0.950 . S
C367 C366 1.524 . S
C367 C368 1.415 . S
C368 H344 0.950 . S
C368 C363 1.363 . S
C368 C367 1.415 . S
C369 H345 0.951 . S
C369 C370 1.366 . S
C369 C371 1.388 . S
C370 C369 1.366 . S
C370 C374 1.385 . S
C371 H346 0.951 . S
C371 C369 1.388 . S
C371 C372 1.366 . S
C372 C371 1.366 . S
C372 C373 1.414 . S
C372 C375 1.499 . S
C373 H347 0.950 . S
C373 C372 1.414 . S
C373 C374 1.374 . S
C374 H348 0.950 . S
C374 C370 1.385 . S
C374 C373 1.374 . S
C375 C372 1.499 . S
C375 C376 1.373 . S
C375 C377 1.389 . S
C376 H349 0.950 1_556 S
C376 C362 1.377 1_556 S
C376 C375 1.373 . S
C377 C361 1.377 . S
C377 C375 1.389 . S
C377 C378 1.524 . S
C378 C377 1.524 . S
C378 C379 1.397 . S
C378 C383 1.363 . S
C379 H350 0.950 . S
C379 C378 1.397 . S
C379 C380 1.334 . S
C380 H351 0.950 . S
C380 C379 1.334 . S
C380 C381 1.287 . S
C381 C380 1.287 . S
C381 C382 1.524 . S
C381 H384 0.999 . S
C382 H352 0.950 . S
C382 C381 1.524 . S
C382 C383 1.415 . S
C383 H353 0.950 . S
C383 C378 1.363 . S
C383 C382 1.415 . S
H384 C381 0.999 . S
H385 C366 0.913 . S
H386 C404 0.951 . S
H387 C406 0.951 . S
H388 C408 0.950 . S
H389 C409 0.950 . S
H390 C411 0.950 . S
H391 C414 0.950 . S
H392 C415 0.950 . S
H393 C417 0.950 . S
H394 C418 0.950 . S
H395 C419 0.951 . S
H396 C421 0.951 . S
H397 C423 0.950 . S
H398 C424 0.950 . S
H399 C426 0.950 . S
H400 C429 0.950 . S
H401 C430 0.950 . S
H402 C432 0.950 . S
H403 C433 0.950 . S
C404 H386 0.951 . S
C404 C405 1.366 . S
C404 C406 1.388 . S
C405 C404 1.366 . S
C405 C409 1.385 . S
C406 H387 0.951 . S
C406 C404 1.388 . S
C406 C407 1.366 . S
C407 C406 1.366 . S
C407 C408 1.414 . S
C407 C410 1.499 . S
C408 H388 0.950 . S
C408 C407 1.414 . S
C408 C409 1.374 . S
C409 H389 0.950 . S
C409 C405 1.385 . S
C409 C408 1.374 . S
C410 C407 1.499 . S
C410 C411 1.373 . S
C410 C412 1.389 . S
C411 H390 0.950 . S
C411 C410 1.373 . S
C411 C427 1.377 . S
C412 C410 1.389 . S
C412 C413 1.524 . S
C412 C426 1.377 . S
C413 C412 1.524 . S
C413 C414 1.397 . S
C413 C418 1.363 . S
C414 H391 0.950 . S
C414 C413 1.397 . S
C414 C415 1.334 . S
C415 H392 0.950 . S
C415 C414 1.334 . S
C415 C416 1.287 . S
C416 C415 1.287 . S
C416 C417 1.524 . S
C416 H435 0.913 . S
C417 H393 0.950 . S
C417 C416 1.524 . S
C417 C418 1.415 . S
C418 H394 0.950 . S
C418 C413 1.363 . S
C418 C417 1.415 . S
C419 H395 0.951 . S
C419 C420 1.366 . S
C419 C421 1.388 . S
C420 C419 1.366 . S
C420 C424 1.385 . S
C421 H396 0.951 . S
C421 C419 1.388 . S
C421 C422 1.366 . S
C422 C421 1.366 . S
C422 C423 1.414 . S
C422 C425 1.499 . S
C423 H397 0.950 . S
C423 C422 1.414 . S
C423 C424 1.374 . S
C424 H398 0.950 . S
C424 C420 1.385 . S
C424 C423 1.374 . S
C425 C422 1.499 . S
C425 C426 1.373 . S
C425 C427 1.389 . S
C426 H399 0.950 . S
C426 C412 1.377 . S
C426 C425 1.373 . S
C427 C411 1.377 . S
C427 C425 1.389 . S
C427 C428 1.524 . S
C428 C427 1.524 . S
C428 C429 1.397 . S
C428 C433 1.363 . S
C429 H400 0.950 . S
C429 C428 1.397 . S
C429 C430 1.334 . S
C430 H401 0.950 . S
C430 C429 1.334 . S
C430 C431 1.287 . S
C431 C430 1.287 . S
C431 C432 1.524 . S
C431 H434 0.999 . S
C432 H402 0.950 . S
C432 C431 1.524 . S
C432 C433 1.415 . S
C433 H403 0.950 . S
C433 C428 1.363 . S
C433 C432 1.415 . S
H434 C431 0.999 . S
H435 C416 0.913 . S
H436 C454 0.951 . S
H437 C456 0.951 . S
H438 C458 0.950 . S
H439 C459 0.950 . S
H440 C461 0.950 . S
H441 C464 0.950 . S
H442 C465 0.950 . S
H443 C467 0.950 . S
H444 C468 0.950 . S
H445 C469 0.951 . S
H446 C471 0.951 . S
H447 C473 0.950 . S
H448 C474 0.950 . S
H449 C476 0.950 . S
H450 C479 0.950 . S
H451 C480 0.950 . S
H452 C482 0.950 . S
H453 C483 0.950 . S
C454 H436 0.951 . S
C454 C455 1.366 . S
C454 C456 1.388 . S
C455 C454 1.366 . S
C455 C459 1.385 . S
C456 H437 0.951 . S
C456 C454 1.388 . S
C456 C457 1.366 . S
C457 C456 1.366 . S
C457 C458 1.414 . S
C457 C460 1.499 . S
C458 H438 0.950 . S
C458 C457 1.414 . S
C458 C459 1.374 . S
C459 H439 0.950 . S
C459 C455 1.385 . S
C459 C458 1.374 . S
C460 C457 1.499 . S
C460 C461 1.373 . S
C460 C462 1.389 . S
C461 H440 0.950 . S
C461 C460 1.373 . S
C461 C477 1.377 . S
C462 C460 1.389 . S
C462 C463 1.524 . S
C462 C476 1.377 . S
C463 C462 1.524 . S
C463 C464 1.397 . S
C463 C468 1.363 . S
C464 H441 0.950 . S
C464 C463 1.397 . S
C464 C465 1.334 . S
C465 H442 0.950 . S
C465 C464 1.334 . S
C465 C466 1.287 . S
C466 C465 1.287 . S
C466 C467 1.524 . S
C466 H485 0.913 . S
C467 H443 0.950 . S
C467 C466 1.524 . S
C467 C468 1.415 . S
C468 H444 0.950 . S
C468 C463 1.363 . S
C468 C467 1.415 . S
C469 H445 0.951 . S
C469 C470 1.366 . S
C469 C471 1.388 . S
C470 C469 1.366 . S
C470 C474 1.385 . S
C471 H446 0.951 . S
C471 C469 1.388 . S
C471 C472 1.366 . S
C472 C471 1.366 . S
C472 C473 1.414 . S
C472 C475 1.499 . S
C473 H447 0.950 . S
C473 C472 1.414 . S
C473 C474 1.374 . S
C474 H448 0.950 . S
C474 C470 1.385 . S
C474 C473 1.374 . S
C475 C472 1.499 . S
C475 C476 1.373 . S
C475 C477 1.389 . S
C476 H449 0.950 . S
C476 C462 1.377 . S
C476 C475 1.373 . S
C477 C461 1.377 . S
C477 C475 1.389 . S
C477 C478 1.524 . S
C478 C477 1.524 . S
C478 C479 1.397 . S
C478 C483 1.363 . S
C479 H450 0.950 . S
C479 C478 1.397 . S
C479 C480 1.334 . S
C480 H451 0.950 . S
C480 C479 1.334 . S
C480 C481 1.287 . S
C481 C480 1.287 . S
C481 C482 1.524 . S
C481 H484 0.999 . S
C482 H452 0.950 . S
C482 C481 1.524 . S
C482 C483 1.415 . S
C483 H453 0.950 . S
C483 C478 1.363 . S
C483 C482 1.415 . S
H484 C481 0.999 . S
H485 C466 0.913 . S
H486 C504 0.951 . S
H487 C506 0.951 . S
H488 C508 0.950 . S
H489 C509 0.950 . S
H490 C511 0.950 . S
H491 C514 0.950 . S
H492 C515 0.950 . S
H493 C517 0.950 . S
H494 C518 0.950 . S
H495 C519 0.951 . S
H496 C521 0.951 . S
H497 C523 0.950 . S
H498 C524 0.950 . S
H499 C526 0.950 . S
H500 C529 0.950 . S
H501 C530 0.950 . S
H502 C532 0.950 . S
H503 C533 0.950 . S
C504 H486 0.951 . S
C504 C505 1.366 . S
C504 C506 1.388 . S
C505 C504 1.366 . S
C505 C509 1.385 . S
C506 H487 0.951 . S
C506 C504 1.388 . S
C506 C507 1.366 . S
C507 C506 1.366 . S
C507 C508 1.414 . S
C507 C510 1.499 . S
C508 H488 0.950 . S
C508 C507 1.414 . S
C508 C509 1.374 . S
C509 H489 0.950 . S
C509 C505 1.385 . S
C509 C508 1.374 . S
C510 C507 1.499 . S
C510 C511 1.373 . S
C510 C512 1.389 . S
C511 H490 0.950 . S
C511 C510 1.373 . S
C511 C527 1.377 . S
C512 C510 1.389 . S
C512 C513 1.524 . S
C512 C526 1.377 . S
C513 C512 1.524 . S
C513 C514 1.397 . S
C513 C518 1.363 . S
C514 H491 0.950 . S
C514 C513 1.397 . S
C514 C515 1.334 . S
C515 H492 0.950 . S
C515 C514 1.334 . S
C515 C516 1.287 . S
C516 C515 1.287 . S
C516 C517 1.524 . S
C516 H535 0.913 . S
C517 H493 0.950 . S
C517 C516 1.524 . S
C517 C518 1.415 . S
C518 H494 0.950 . S
C518 C513 1.363 . S
C518 C517 1.415 . S
C519 H495 0.951 . S
C519 C520 1.366 . S
C519 C521 1.388 . S
C520 C519 1.366 . S
C520 C524 1.385 . S
C521 H496 0.951 . S
C521 C519 1.388 . S
C521 C522 1.366 . S
C522 C521 1.366 . S
C522 C523 1.414 . S
C522 C525 1.499 . S
C523 H497 0.950 . S
C523 C522 1.414 . S
C523 C524 1.374 . S
C524 H498 0.950 . S
C524 C520 1.385 . S
C524 C523 1.374 . S
C525 C522 1.499 . S
C525 C526 1.373 . S
C525 C527 1.389 . S
C526 H499 0.950 . S
C526 C512 1.377 . S
C526 C525 1.373 . S
C527 C511 1.377 . S
C527 C525 1.389 . S
C527 C528 1.524 . S
C528 C527 1.524 . S
C528 C529 1.397 . S
C528 C533 1.363 . S
C529 H500 0.950 . S
C529 C528 1.397 . S
C529 C530 1.334 . S
C530 H501 0.950 . S
C530 C529 1.334 . S
C530 C531 1.287 . S
C531 C530 1.287 . S
C531 C532 1.524 . S
C531 H534 0.999 . S
C532 H502 0.950 . S
C532 C531 1.524 . S
C532 C533 1.415 . S
C533 H503 0.950 . S
C533 C528 1.363 . S
C533 C532 1.415 . S
H534 C531 0.999 . S
H535 C516 0.913 . S
H536 C554 0.951 . S
H537 C556 0.951 . S
H538 C558 0.950 . S
H539 C559 0.950 . S
H540 C561 0.950 . S
H541 C564 0.950 . S
H542 C565 0.950 . S
H543 C567 0.950 . S
H544 C568 0.950 . S
H545 C569 0.951 . S
H546 C571 0.951 . S
H547 C573 0.950 . S
H548 C574 0.950 . S
H549 C576 0.950 . S
H550 C579 0.950 . S
H551 C580 0.950 . S
H552 C582 0.950 . S
H553 C583 0.950 . S
C554 H536 0.951 . S
C554 C555 1.366 . S
C554 C556 1.388 . S
C555 C554 1.366 . S
C555 C559 1.385 . S
C556 H537 0.951 . S
C556 C554 1.388 . S
C556 C557 1.366 . S
C557 C556 1.366 . S
C557 C558 1.414 . S
C557 C560 1.499 . S
C558 H538 0.950 . S
C558 C557 1.414 . S
C558 C559 1.374 . S
C559 H539 0.950 . S
C559 C555 1.385 . S
C559 C558 1.374 . S
C560 C557 1.499 . S
C560 C561 1.373 . S
C560 C562 1.389 . S
C561 H540 0.950 . S
C561 C560 1.373 . S
C561 C577 1.377 . S
C562 C560 1.389 . S
C562 C563 1.524 . S
C562 C576 1.377 . S
C563 C562 1.524 . S
C563 C564 1.397 . S
C563 C568 1.363 . S
C564 H541 0.950 . S
C564 C563 1.397 . S
C564 C565 1.334 . S
C565 H542 0.950 . S
C565 C564 1.334 . S
C565 C566 1.287 . S
C566 C565 1.287 . S
C566 C567 1.524 . S
C566 H585 0.913 . S
C567 H543 0.950 . S
C567 C566 1.524 . S
C567 C568 1.415 . S
C568 H544 0.950 . S
C568 C563 1.363 . S
C568 C567 1.415 . S
C569 H545 0.951 . S
C569 C570 1.366 . S
C569 C571 1.388 . S
C570 C569 1.366 . S
C570 C574 1.385 . S
C571 H546 0.951 . S
C571 C569 1.388 . S
C571 C572 1.366 . S
C572 C571 1.366 . S
C572 C573 1.414 . S
C572 C575 1.499 . S
C573 H547 0.950 . S
C573 C572 1.414 . S
C573 C574 1.374 . S
C574 H548 0.950 . S
C574 C570 1.385 . S
C574 C573 1.374 . S
C575 C572 1.499 . S
C575 C576 1.373 . S
C575 C577 1.389 . S
C576 H549 0.950 . S
C576 C562 1.377 . S
C576 C575 1.373 . S
C577 C561 1.377 . S
C577 C575 1.389 . S
C577 C578 1.524 . S
C578 C577 1.524 . S
C578 C579 1.397 . S
C578 C583 1.363 . S
C579 H550 0.950 . S
C579 C578 1.397 . S
C579 C580 1.334 . S
C580 H551 0.950 . S
C580 C579 1.334 . S
C580 C581 1.287 . S
C581 C580 1.287 . S
C581 C582 1.524 . S
C581 H584 0.999 . S
C582 H552 0.950 . S
C582 C581 1.524 . S
C582 C583 1.415 . S
C583 H553 0.950 . S
C583 C578 1.363 . S
C583 C582 1.415 . S
H584 C581 0.999 . S
H585 C566 0.913 . S
H586 C604 0.951 . S
H587 C606 0.951 . S
H588 C608 0.950 1_655 S
H589 C609 0.945 1_665 S
H590 C611 0.950 1_655 S
H591 C614 0.950 . S
H592 C615 0.950 . S
H593 C617 0.950 . S
H594 C618 0.950 1_545 S
H595 C619 0.951 1_655 S
H596 C621 0.951 1_655 S
H597 C623 0.950 . S
H598 C624 0.950 . S
H599 C626 0.950 . S
H600 C629 0.950 1_455 S
H601 C630 0.950 . S
H602 C632 0.950 . S
H603 C633 0.950 . S
C604 H586 0.951 . S
C604 C605 1.366 . S
C604 C606 1.388 . S
C605 C604 1.366 . S
C605 C609 1.394 . S
C606 H587 0.951 . S
C606 C604 1.388 . S
C606 C607 1.366 . S
C607 C606 1.366 . S
C607 C608 1.414 1_545 S
C607 C610 1.499 . S
C608 H588 0.950 1_455 S
C608 C607 1.414 1_565 S
C608 C609 1.370 1_565 S
C609 H589 0.945 1_445 S
C609 C605 1.394 . S
C609 C608 1.370 1_545 S
C610 C607 1.499 . S
C610 C611 1.373 . S
C610 C612 1.389 1_545 S
C611 H590 0.950 1_455 S
C611 C610 1.373 . S
C611 C627 1.377 . S
C612 C610 1.389 1_565 S
C612 C613 1.524 . S
C612 C626 1.377 . S
C613 C612 1.524 . S
C613 C614 1.397 . S
C613 C618 1.363 . S
C614 H591 0.950 . S
C614 C613 1.397 . S
C614 C615 1.334 . S
C615 H592 0.950 . S
C615 C614 1.334 . S
C615 C616 1.287 . S
C616 C615 1.287 . S
C616 C617 1.524 . S
C616 H635 0.913 . S
C617 H593 0.950 . S
C617 C616 1.524 . S
C617 C618 1.415 . S
C618 H594 0.950 1_565 S
C618 C613 1.363 . S
C618 C617 1.415 . S
C619 H595 0.951 1_455 S
C619 C620 1.366 . S
C619 C621 1.388 . S
C620 C619 1.366 . S
C620 C624 1.385 1_565 S
C621 H596 0.951 1_455 S
C621 C619 1.388 . S
C621 C622 1.366 1_565 S
C622 C621 1.366 1_545 S
C622 C623 1.414 . S
C622 C625 1.499 . S
C623 H597 0.950 . S
C623 C622 1.414 . S
C623 C624 1.374 . S
C624 H598 0.950 . S
C624 C620 1.385 1_545 S
C624 C623 1.374 . S
C625 C622 1.499 . S
C625 C626 1.373 1_545 S
C625 C627 1.389 . S
C626 H599 0.950 . S
C626 C612 1.377 . S
C626 C625 1.373 1_565 S
C627 C611 1.377 . S
C627 C625 1.389 . S
C627 C628 1.524 1_455 S
C628 C627 1.524 1_655 S
C628 C629 1.397 . S
C628 C633 1.363 . S
C629 H600 0.950 1_655 S
C629 C628 1.397 . S
C629 C630 1.334 . S
C630 H601 0.950 . S
C630 C629 1.334 . S
C630 C631 1.287 . S
C631 C630 1.287 . S
C631 C632 1.524 . S
C631 H634 0.999 . S
C632 H602 0.950 . S
C632 C631 1.524 . S
C632 C633 1.415 . S
C633 H603 0.950 . S
C633 C628 1.363 . S
C633 C632 1.415 . S
H634 C631 0.999 . S
H635 C616 0.913 . S
H636 C654 0.951 . S
H637 C656 0.951 . S
H638 C658 0.950 1_655 S
H639 C659 0.950 1_655 S
H640 C661 0.971 . S
H641 C664 0.950 . S
H642 C665 0.950 . S
H643 C667 0.950 . S
H644 C668 0.950 . S
H645 C669 0.951 . S
H646 C671 0.951 . S
H647 C673 0.950 . S
H648 C674 0.950 . S
H649 C676 0.950 . S
H650 C679 0.950 1_545 S
H651 C680 0.950 . S
H652 C682 0.950 1_655 S
H653 C683 0.950 1_655 S
C654 H636 0.951 . S
C654 C655 1.366 . S
C654 C656 1.388 . S
C655 C654 1.366 . S
C655 C659 1.385 . S
C656 H637 0.951 . S
C656 C654 1.388 . S
C656 C657 1.366 . S
C657 C656 1.366 . S
C657 C658 1.414 . S
C657 C660 1.499 . S
C658 H638 0.950 1_455 S
C658 C657 1.414 . S
C658 C659 1.374 . S
C659 H639 0.950 1_455 S
C659 C655 1.385 . S
C659 C658 1.374 . S
C660 C657 1.499 . S
C660 C661 1.373 . S
C660 C662 1.389 . S
C661 H640 0.971 . S
C661 C660 1.373 . S
C661 C677 1.377 . S
C662 C660 1.389 . S
C662 C663 1.524 . S
C662 C676 1.377 . S
C663 C662 1.524 . S
C663 C664 1.397 1_455 S
C663 C668 1.363 . S
C664 H641 0.950 . S
C664 C663 1.397 1_655 S
C664 C665 1.334 . S
C665 H642 0.950 . S
C665 C664 1.334 . S
C665 C666 1.281 1_655 S
C666 C665 1.281 1_455 S
C666 C667 1.532 . S
C666 H685 0.912 1_455 S
C667 H643 0.950 . S
C667 C666 1.532 . S
C667 C668 1.415 . S
C668 H644 0.950 . S
C668 C663 1.363 . S
C668 C667 1.415 . S
C669 H645 0.951 . S
C669 C670 1.366 1_655 S
C669 C671 1.388 . S
C670 C669 1.366 1_455 S
C670 C674 1.385 . S
C671 H646 0.951 . S
C671 C669 1.388 . S
C671 C672 1.366 1_655 S
C672 C671 1.366 1_455 S
C672 C673 1.414 . S
C672 C675 1.499 . S
C673 H647 0.950 . S
C673 C672 1.414 . S
C673 C674 1.374 . S
C674 H648 0.950 . S
C674 C670 1.385 . S
C674 C673 1.374 . S
C675 C672 1.499 . S
C675 C676 1.373 . S
C675 C677 1.389 . S
C676 H649 0.950 . S
C676 C662 1.377 . S
C676 C675 1.373 . S
C677 C661 1.377 . S
C677 C675 1.389 . S
C677 C678 1.524 1_545 S
C678 C677 1.524 1_565 S
C678 C679 1.397 . S
C678 C683 1.363 . S
C679 H650 0.950 1_565 S
C679 C678 1.397 . S
C679 C680 1.334 . S
C680 H651 0.950 . S
C680 C679 1.334 . S
C680 C681 1.287 . S
C681 C680 1.287 . S
C681 C682 1.524 . S
C681 H684 0.999 . S
C682 H652 0.950 1_455 S
C682 C681 1.524 . S
C682 C683 1.415 . S
C683 H653 0.950 1_455 S
C683 C678 1.363 . S
C683 C682 1.415 . S
H684 C681 0.999 . S
H685 C666 0.912 1_655 S
H686 C704 0.951 . S
H687 C706 0.951 . S
H688 C708 0.950 . S
H689 C709 0.950 . S
H690 C711 0.950 . S
H691 C714 0.950 . S
H692 C715 0.950 . S
H693 C717 0.950 . S
H694 C718 0.950 . S
H695 C719 0.951 . S
H696 C721 0.951 . S
H697 C723 0.950 . S
H698 C724 0.950 . S
H699 C726 0.950 . S
H700 C729 0.950 . S
H701 C730 0.950 . S
H702 C732 0.950 . S
H703 C733 0.950 . S
C704 H686 0.951 . S
C704 C705 1.366 . S
C704 C706 1.388 . S
C705 C704 1.366 . S
C705 C709 1.385 . S
C706 H687 0.951 . S
C706 C704 1.388 . S
C706 C707 1.366 . S
C707 C706 1.366 . S
C707 C708 1.414 . S
C707 C710 1.499 . S
C708 H688 0.950 . S
C708 C707 1.414 . S
C708 C709 1.374 . S
C709 H689 0.950 . S
C709 C705 1.385 . S
C709 C708 1.374 . S
C710 C707 1.499 . S
C710 C711 1.373 . S
C710 C712 1.389 . S
C711 H690 0.950 . S
C711 C710 1.373 . S
C711 C727 1.377 . S
C712 C710 1.389 . S
C712 C713 1.524 . S
C712 C726 1.377 . S
C713 C712 1.524 . S
C713 C714 1.397 . S
C713 C718 1.363 . S
C714 H691 0.950 . S
C714 C713 1.397 . S
C714 C715 1.334 . S
C715 H692 0.950 . S
C715 C714 1.334 . S
C715 C716 1.287 . S
C716 C715 1.287 . S
C716 C717 1.524 . S
C716 H735 0.913 . S
C717 H693 0.950 . S
C717 C716 1.524 . S
C717 C718 1.415 . S
C718 H694 0.950 . S
C718 C713 1.363 . S
C718 C717 1.415 . S
C719 H695 0.951 . S
C719 C720 1.366 . S
C719 C721 1.388 . S
C720 C719 1.366 . S
C720 C724 1.385 . S
C721 H696 0.951 . S
C721 C719 1.388 . S
C721 C722 1.366 . S
C722 C721 1.366 . S
C722 C723 1.414 . S
C722 C725 1.499 . S
C723 H697 0.950 . S
C723 C722 1.414 . S
C723 C724 1.374 . S
C724 H698 0.950 . S
C724 C720 1.385 . S
C724 C723 1.374 . S
C725 C722 1.499 . S
C725 C726 1.373 . S
C725 C727 1.389 . S
C726 H699 0.950 . S
C726 C712 1.377 . S
C726 C725 1.373 . S
C727 C711 1.377 . S
C727 C725 1.389 . S
C727 C728 1.524 . S
C728 C727 1.524 . S
C728 C729 1.397 . S
C728 C733 1.363 . S
C729 H700 0.950 . S
C729 C728 1.397 . S
C729 C730 1.334 . S
C730 H701 0.950 . S
C730 C729 1.334 . S
C730 C731 1.287 . S
C731 C730 1.287 . S
C731 C732 1.524 . S
C731 H734 0.999 . S
C732 H702 0.950 . S
C732 C731 1.524 . S
C732 C733 1.415 . S
C733 H703 0.950 . S
C733 C728 1.363 . S
C733 C732 1.415 . S
H734 C731 0.999 . S
H735 C716 0.913 . S
H736 C754 0.951 . S
H737 C756 0.951 . S
H738 C758 0.950 . S
H739 C759 0.950 . S
H740 C761 0.950 . S
H741 C764 0.950 . S
H742 C765 0.950 . S
H743 C767 0.950 . S
H744 C768 0.950 . S
H745 C769 0.951 . S
H746 C771 0.951 . S
H747 C773 0.950 . S
H748 C774 0.950 . S
H749 C776 0.950 . S
H750 C779 0.950 . S
H751 C780 0.950 . S
H752 C782 0.950 . S
H753 C783 0.950 . S
C754 H736 0.951 . S
C754 C755 1.366 . S
C754 C756 1.388 . S
C755 C754 1.366 . S
C755 C759 1.385 . S
C756 H737 0.951 . S
C756 C754 1.388 . S
C756 C757 1.366 . S
C757 C756 1.366 . S
C757 C758 1.414 . S
C757 C760 1.499 . S
C758 H738 0.950 . S
C758 C757 1.414 . S
C758 C759 1.374 . S
C759 H739 0.950 . S
C759 C755 1.385 . S
C759 C758 1.374 . S
C760 C757 1.499 . S
C760 C761 1.373 . S
C760 C762 1.389 . S
C761 H740 0.950 . S
C761 C760 1.373 . S
C761 C777 1.377 . S
C762 C760 1.389 . S
C762 C763 1.524 . S
C762 C776 1.377 . S
C763 C762 1.524 . S
C763 C764 1.397 . S
C763 C768 1.363 . S
C764 H741 0.950 . S
C764 C763 1.397 . S
C764 C765 1.334 . S
C765 H742 0.950 . S
C765 C764 1.334 . S
C765 C766 1.287 . S
C766 C765 1.287 . S
C766 C767 1.524 . S
C766 H785 0.913 . S
C767 H743 0.950 . S
C767 C766 1.524 . S
C767 C768 1.415 . S
C768 H744 0.950 . S
C768 C763 1.363 . S
C768 C767 1.415 . S
C769 H745 0.951 . S
C769 C770 1.366 . S
C769 C771 1.388 . S
C770 C769 1.366 . S
C770 C774 1.385 . S
C771 H746 0.951 . S
C771 C769 1.388 . S
C771 C772 1.366 . S
C772 C771 1.366 . S
C772 C773 1.414 . S
C772 C775 1.499 . S
C773 H747 0.950 . S
C773 C772 1.414 . S
C773 C774 1.374 . S
C774 H748 0.950 . S
C774 C770 1.385 . S
C774 C773 1.374 . S
C775 C772 1.499 . S
C775 C776 1.373 . S
C775 C777 1.389 . S
C776 H749 0.950 . S
C776 C762 1.377 . S
C776 C775 1.373 . S
C777 C761 1.377 . S
C777 C775 1.389 . S
C777 C778 1.524 . S
C778 C777 1.524 . S
C778 C779 1.397 . S
C778 C783 1.363 . S
C779 H750 0.950 . S
C779 C778 1.397 . S
C779 C780 1.334 . S
C780 H751 0.950 . S
C780 C779 1.334 . S
C780 C781 1.287 . S
C781 C780 1.287 . S
C781 C782 1.524 . S
C781 H784 0.999 . S
C782 H752 0.950 . S
C782 C781 1.524 . S
C782 C783 1.415 . S
C783 H753 0.950 . S
C783 C778 1.363 . S
C783 C782 1.415 . S
H784 C781 0.999 . S
H785 C766 0.913 . S
C220 C151 1.395 . S
C205 C15 1.244 . S
C255 C13 1.462 . S
C270 C115 1.457 . S
C305 C18 1.268 . S
C320 C175 1.418 . S
C355 C17 1.273 . S
C370 C139 1.305 . S
C405 C36 1.246 . S
C420 C79 1.396 . S
C455 C34 1.463 . S
C470 C43 1.458 . S
C520 C103 1.419 . S
C505 C39 1.268 . S
C570 C67 1.305 . S
C555 C38 1.273 . S
C605 C14 1.515 . S
C620 C73 1.558 1_565 S
C655 C16 1.365 . S
C670 C109 1.402 . S
C720 C145 1.558 . S
C705 C35 1.515 . S
C755 C37 1.364 . S
C770 C181 1.402 . S
