# Generated by pormake.
# Topology ctn, (3,4)-cn, num edge types: 1
# Building blocks:
#     Node 0, Type 0, BuildingBlock: MIDCAF_clean_linker_0, # of connection points: 3
#     Node 1, Type 0, BuildingBlock: MIDCAF_clean_linker_0, # of connection points: 3
#     Node 2, Type 0, BuildingBlock: MIDCAF_clean_linker_0, # of connection points: 3
#     Node 3, Type 0, BuildingBlock: MIDCAF_clean_linker_0, # of connection points: 3
#     Node 4, Type 0, BuildingBlock: MIDCAF_clean_linker_0, # of connection points: 3
#     Node 5, Type 0, BuildingBlock: MIDCAF_clean_linker_0, # of connection points: 3
#     Node 6, Type 0, BuildingBlock: MIDCAF_clean_linker_0, # of connection points: 3
#     Node 7, Type 0, BuildingBlock: MIDCAF_clean_linker_0, # of connection points: 3
#     Node 8, Type 0, BuildingBlock: MIDCAF_clean_linker_0, # of connection points: 3
#     Node 9, Type 0, BuildingBlock: MIDCAF_clean_linker_0, # of connection points: 3
#     Node 10, Type 0, BuildingBlock: MIDCAF_clean_linker_0, # of connection points: 3
#     Node 11, Type 0, BuildingBlock: MIDCAF_clean_linker_0, # of connection points: 3
#     Node 12, Type 0, BuildingBlock: MIDCAF_clean_linker_0, # of connection points: 3
#     Node 13, Type 0, BuildingBlock: MIDCAF_clean_linker_0, # of connection points: 3
#     Node 14, Type 0, BuildingBlock: MIDCAF_clean_linker_0, # of connection points: 3
#     Node 15, Type 0, BuildingBlock: MIDCAF_clean_linker_0, # of connection points: 3
#     Node 16, Type 1, BuildingBlock: UXUYUI_clean_sbu_0, # of connection points: 4
#     Node 17, Type 1, BuildingBlock: UXUYUI_clean_sbu_0, # of connection points: 4
#     Node 18, Type 1, BuildingBlock: UXUYUI_clean_sbu_0, # of connection points: 4
#     Node 19, Type 1, BuildingBlock: UXUYUI_clean_sbu_0, # of connection points: 4
#     Node 20, Type 1, BuildingBlock: UXUYUI_clean_sbu_0, # of connection points: 4
#     Node 21, Type 1, BuildingBlock: UXUYUI_clean_sbu_0, # of connection points: 4
#     Node 22, Type 1, BuildingBlock: UXUYUI_clean_sbu_0, # of connection points: 4
#     Node 23, Type 1, BuildingBlock: UXUYUI_clean_sbu_0, # of connection points: 4
#     Node 24, Type 1, BuildingBlock: UXUYUI_clean_sbu_0, # of connection points: 4
#     Node 25, Type 1, BuildingBlock: UXUYUI_clean_sbu_0, # of connection points: 4
#     Node 26, Type 1, BuildingBlock: UXUYUI_clean_sbu_0, # of connection points: 4
#     Node 27, Type 1, BuildingBlock: UXUYUI_clean_sbu_0, # of connection points: 4
#     Edge 28, Type (0, 1), BuildingBlock: ZUJKAS_clean_linker_0, # of connection points: 2
#     Edge 29, Type (0, 1), BuildingBlock: ZUJKAS_clean_linker_0, # of connection points: 2
#     Edge 30, Type (0, 1), BuildingBlock: ZUJKAS_clean_linker_0, # of connection points: 2
#     Edge 31, Type (0, 1), BuildingBlock: ZUJKAS_clean_linker_0, # of connection points: 2
#     Edge 32, Type (0, 1), BuildingBlock: ZUJKAS_clean_linker_0, # of connection points: 2
#     Edge 33, Type (0, 1), BuildingBlock: ZUJKAS_clean_linker_0, # of connection points: 2
#     Edge 34, Type (0, 1), BuildingBlock: ZUJKAS_clean_linker_0, # of connection points: 2
#     Edge 35, Type (0, 1), BuildingBlock: ZUJKAS_clean_linker_0, # of connection points: 2
#     Edge 36, Type (0, 1), BuildingBlock: ZUJKAS_clean_linker_0, # of connection points: 2
#     Edge 37, Type (0, 1), BuildingBlock: ZUJKAS_clean_linker_0, # of connection points: 2
#     Edge 38, Type (0, 1), BuildingBlock: ZUJKAS_clean_linker_0, # of connection points: 2
#     Edge 39, Type (0, 1), BuildingBlock: ZUJKAS_clean_linker_0, # of connection points: 2
#     Edge 40, Type (0, 1), BuildingBlock: ZUJKAS_clean_linker_0, # of connection points: 2
#     Edge 41, Type (0, 1), BuildingBlock: ZUJKAS_clean_linker_0, # of connection points: 2
#     Edge 42, Type (0, 1), BuildingBlock: ZUJKAS_clean_linker_0, # of connection points: 2
#     Edge 43, Type (0, 1), BuildingBlock: ZUJKAS_clean_linker_0, # of connection points: 2
#     Edge 44, Type (0, 1), BuildingBlock: ZUJKAS_clean_linker_0, # of connection points: 2
#     Edge 45, Type (0, 1), BuildingBlock: ZUJKAS_clean_linker_0, # of connection points: 2
#     Edge 46, Type (0, 1), BuildingBlock: ZUJKAS_clean_linker_0, # of connection points: 2
#     Edge 47, Type (0, 1), BuildingBlock: ZUJKAS_clean_linker_0, # of connection points: 2
#     Edge 48, Type (0, 1), BuildingBlock: ZUJKAS_clean_linker_0, # of connection points: 2
#     Edge 49, Type (0, 1), BuildingBlock: ZUJKAS_clean_linker_0, # of connection points: 2
#     Edge 50, Type (0, 1), BuildingBlock: ZUJKAS_clean_linker_0, # of connection points: 2
#     Edge 51, Type (0, 1), BuildingBlock: ZUJKAS_clean_linker_0, # of connection points: 2
#     Edge 52, Type (0, 1), BuildingBlock: ZUJKAS_clean_linker_0, # of connection points: 2
#     Edge 53, Type (0, 1), BuildingBlock: ZUJKAS_clean_linker_0, # of connection points: 2
#     Edge 54, Type (0, 1), BuildingBlock: ZUJKAS_clean_linker_0, # of connection points: 2
#     Edge 55, Type (0, 1), BuildingBlock: ZUJKAS_clean_linker_0, # of connection points: 2
#     Edge 56, Type (0, 1), BuildingBlock: ZUJKAS_clean_linker_0, # of connection points: 2
#     Edge 57, Type (0, 1), BuildingBlock: ZUJKAS_clean_linker_0, # of connection points: 2
#     Edge 58, Type (0, 1), BuildingBlock: ZUJKAS_clean_linker_0, # of connection points: 2
#     Edge 59, Type (0, 1), BuildingBlock: ZUJKAS_clean_linker_0, # of connection points: 2
#     Edge 60, Type (0, 1), BuildingBlock: ZUJKAS_clean_linker_0, # of connection points: 2
#     Edge 61, Type (0, 1), BuildingBlock: ZUJKAS_clean_linker_0, # of connection points: 2
#     Edge 62, Type (0, 1), BuildingBlock: ZUJKAS_clean_linker_0, # of connection points: 2
#     Edge 63, Type (0, 1), BuildingBlock: ZUJKAS_clean_linker_0, # of connection points: 2
#     Edge 64, Type (0, 1), BuildingBlock: ZUJKAS_clean_linker_0, # of connection points: 2
#     Edge 65, Type (0, 1), BuildingBlock: ZUJKAS_clean_linker_0, # of connection points: 2
#     Edge 66, Type (0, 1), BuildingBlock: ZUJKAS_clean_linker_0, # of connection points: 2
#     Edge 67, Type (0, 1), BuildingBlock: ZUJKAS_clean_linker_0, # of connection points: 2
#     Edge 68, Type (0, 1), BuildingBlock: ZUJKAS_clean_linker_0, # of connection points: 2
#     Edge 69, Type (0, 1), BuildingBlock: ZUJKAS_clean_linker_0, # of connection points: 2
#     Edge 70, Type (0, 1), BuildingBlock: ZUJKAS_clean_linker_0, # of connection points: 2
#     Edge 71, Type (0, 1), BuildingBlock: ZUJKAS_clean_linker_0, # of connection points: 2
#     Edge 72, Type (0, 1), BuildingBlock: ZUJKAS_clean_linker_0, # of connection points: 2
#     Edge 73, Type (0, 1), BuildingBlock: ZUJKAS_clean_linker_0, # of connection points: 2
#     Edge 74, Type (0, 1), BuildingBlock: ZUJKAS_clean_linker_0, # of connection points: 2
#     Edge 75, Type (0, 1), BuildingBlock: ZUJKAS_clean_linker_0, # of connection points: 2
# Relax obj value: 0.000
# Max RMSD: 0.004
# Mean RMSD: 0.003
data_MOF--net-ctn--node1-UXUYUI_clean_sbu_0--node2-MIDCAF_clean_linker_0--edge1-ZUJKAS_clean_linker_0
_symmetry_space_group_name_H-M    P1
_symmetry_Int_Tables_number       1
_symmetry_cell_setting            triclinic
loop_
_symmetry_equiv_pos_as_xyz
'x, y, z'
_cell_length_a     97.260018
_cell_length_b     97.261112
_cell_length_c     97.244075
_cell_angle_alpha  90.03593
_cell_angle_beta   90.031327
_cell_angle_gamma 90.081532
loop_
_atom_site_label
_atom_site_type_symbol
_atom_site_fract_x
_atom_site_fract_y
_atom_site_fract_z
_atom_type_partial_charge
C0 C 0.99815 0.03782 0.07196 0.0
C1 C 1.00026 0.02674 0.08098 0.0
C2 C 0.01124 0.0177 0.07843 0.0
C3 C 0.01993 0.01973 0.06716 0.0
H4 H 0.05156 0.00168 0.04548 0.0
H5 H 0.07091 0.98633 0.04162 0.0
H6 H 0.08711 0.01435 0.01119 0.0
H7 H 0.06758 0.0295 0.01472 0.0
H8 H 0.04482 0.05083 0.00143 0.0
H9 H 0.0412 0.0705 0.98642 0.0
H10 H 0.01467 0.08887 0.01698 0.0
H11 H 0.01787 0.06897 0.03174 0.0
H12 H 0.00485 0.04851 0.05397 0.0
H13 H 0.98968 0.04487 0.07351 0.0
H14 H 0.01326 0.00916 0.08527 0.0
H15 H 0.02831 0.01259 0.06558 0.0
N16 N 0.03769 0.0243 0.04373 0.0
N17 N 0.04424 0.03736 0.02455 0.0
N18 N 0.02528 0.04407 0.03781 0.0
C19 C 0.0463 0.02636 0.03291 0.0
C20 C 0.03375 0.04626 0.02692 0.0
C21 C 0.02715 0.0331 0.04625 0.0
C22 C 0.05798 0.01687 0.03042 0.0
C23 C 0.05922 0.00457 0.03793 0.0
C24 C 0.07038 0.99578 0.03577 0.0
C25 C 0.08062 0.9991 0.02612 0.0
C26 C 0.07933 0.01135 0.01856 0.0
C27 C 0.06813 0.0201 0.02065 0.0
C28 C 0.03163 0.05829 0.0178 0.0
C29 C 0.0382 0.05906 0.00495 0.0
C30 C 0.03619 0.0704 0.99636 0.0
C31 C 0.02765 0.08133 1.00046 0.0
C32 C 0.02112 0.08056 0.01334 0.0
C33 C 0.02302 0.06915 0.02187 0.0
C34 C 0.01785 0.03085 0.05816 0.0
C35 C 0.00683 0.03986 0.06069 0.0
C36 C 0.26243 0.67233 0.23309 0.0
C37 C 0.25064 0.67041 0.22494 0.0
C38 C 0.24767 0.68005 0.21461 0.0
C39 C 0.25632 0.69133 0.21242 0.0
H40 H 0.26391 0.72242 0.18503 0.0
H41 H 0.26012 0.73753 0.16544 0.0
H42 H 0.29419 0.76296 0.17839 0.0
H43 H 0.2979 0.74802 0.19811 0.0
H44 H 0.31644 0.73858 0.22268 0.0
H45 H 0.33587 0.74258 0.23796 0.0
H46 H 0.32349 0.70794 0.26283 0.0
H47 H 0.30392 0.70401 0.24771 0.0
H48 H 0.28004 0.68478 0.23744 0.0
H49 H 0.26492 0.66517 0.24123 0.0
H50 H 0.23874 0.67878 0.20807 0.0
H51 H 0.25372 0.69851 0.20432 0.0
N52 N 0.27517 0.7138 0.20739 0.0
N53 N 0.29438 0.72695 0.21374 0.0
N54 N 0.28818 0.70761 0.22672 0.0
C55 C 0.28363 0.7247 0.20509 0.0
C56 C 0.29673 0.71846 0.22458 0.0
C57 C 0.27737 0.7052 0.21818 0.0
C58 C 0.28123 0.73396 0.19319 0.0
C59 C 0.2706 0.73124 0.18375 0.0
C60 C 0.26846 0.73986 0.17245 0.0
C61 C 0.27686 0.75143 0.17034 0.0
C62 C 0.28743 0.75421 0.17981 0.0
C63 C 0.2896 0.74558 0.19109 0.0
C64 C 0.30857 0.72095 0.23393 0.0
C65 C 0.31781 0.73181 0.23141 0.0
C66 C 0.32902 0.73407 0.24013 0.0
C67 C 0.33124 0.72558 0.2516 0.0
C68 C 0.32198 0.71477 0.25417 0.0
C69 C 0.31079 0.71248 0.24543 0.0
C70 C 0.26813 0.69327 0.22056 0.0
C71 C 0.27106 0.68364 0.23095 0.0
C72 C 0.98172 0.42159 0.01271 0.0
C73 C 0.9743 0.42039 1.00037 0.0
C74 C 0.96502 0.43085 0.99676 0.0
C75 C 0.96308 0.44218 0.00539 0.0
H76 H 0.93711 0.47477 0.01199 0.0
H77 H 0.91756 0.48996 0.00841 0.0
H78 H 0.92775 0.51192 0.04566 0.0
H79 H 0.94719 0.49664 0.04942 0.0
H80 H 0.97261 0.48767 0.06697 0.0
H81 H 0.98763 0.491 0.08671 0.0
H82 H 0.01285 0.45703 0.07324 0.0
H83 H 0.99768 0.45347 0.05367 0.0
H84 H 0.98575 0.43353 0.03074 0.0
H85 H 0.98905 0.41377 0.01569 0.0
H86 H 0.95906 0.43015 0.98737 0.0
H87 H 0.95577 0.44999 0.00233 0.0
N88 N 0.95771 0.46415 0.02482 0.0
N89 N 0.96399 0.47685 0.04434 0.0
N90 N 0.97668 0.45736 0.03804 0.0
C91 C 0.95548 0.47495 0.03341 0.0
C92 C 0.97464 0.46813 0.04672 0.0
C93 C 0.96827 0.4553 0.02706 0.0
C94 C 0.94375 0.48442 0.03102 0.0
C95 C 0.93522 0.48283 0.01943 0.0
C96 C 0.92404 0.4916 0.01732 0.0
C97 C 0.92108 0.50214 0.02676 0.0
C98 C 0.92964 0.50379 0.03829 0.0
C99 C 0.94085 0.49506 0.04039 0.0
C100 C 0.98388 0.47028 0.05869 0.0
C101 C 0.98135 0.4809 0.06819 0.0
C102 C 0.99002 0.48286 0.07949 0.0
C103 C 0.00146 0.47429 0.08158 0.0
C104 C 0.00402 0.4637 0.07207 0.0
C105 C 0.99534 0.46171 0.06078 0.0
C106 C 0.97047 0.44338 0.01778 0.0
C107 C 0.97987 0.43298 0.02129 0.0
C108 C 0.73316 0.76121 0.17281 0.0
C109 C 0.72474 0.74962 0.17081 0.0
C110 C 0.71428 0.74689 0.18041 0.0
C111 C 0.71224 0.75557 0.19168 0.0
H112 H 0.68631 0.7622 0.22416 0.0
H113 H 0.66674 0.75865 0.23936 0.0
H114 H 0.67826 0.7947 0.26265 0.0
H115 H 0.6977 0.79844 0.24736 0.0
H116 H 0.72294 0.81608 0.23831 0.0
H117 H 0.73789 0.83587 0.24166 0.0
H118 H 0.76265 0.82307 0.20709 0.0
H119 H 0.74755 0.80341 0.20352 0.0
H120 H 0.73779 0.77876 0.18522 0.0
H121 H 0.7412 0.76374 0.16552 0.0
H122 H 0.70774 0.73794 0.17929 0.0
H123 H 0.70408 0.75312 0.19885 0.0
N124 N 0.70766 0.77439 0.21427 0.0
N125 N 0.71398 0.79384 0.22704 0.0
N126 N 0.72681 0.78747 0.20767 0.0
C127 C 0.7054 0.78298 0.22506 0.0
C128 C 0.72473 0.79616 0.21841 0.0
C129 C 0.71834 0.77655 0.20552 0.0
C130 C 0.69361 0.78064 0.23448 0.0
C131 C 0.68471 0.76939 0.23252 0.0
C132 C 0.67351 0.76729 0.24129 0.0
C133 C 0.67093 0.77639 0.25222 0.0
C134 C 0.67986 0.78759 0.25422 0.0
C135 C 0.69106 0.78969 0.24547 0.0
C136 C 0.73398 0.80812 0.22062 0.0
C137 C 0.73156 0.81744 0.23141 0.0
C138 C 0.7402 0.82878 0.23339 0.0
C139 C 0.75147 0.83107 0.22465 0.0
C140 C 0.75394 0.82172 0.2139 0.0
C141 C 0.74531 0.81039 0.21191 0.0
C142 C 0.72062 0.76721 0.19366 0.0
C143 C 0.73114 0.76989 0.1841 0.0
C144 C 0.03869 0.92961 0.50291 0.0
C145 C 0.02694 0.92129 0.50154 0.0
C146 C 0.0173 0.92448 0.49126 0.0
C147 C 0.01941 0.93567 0.48248 0.0
H148 H 0.00355 0.95447 0.44833 0.0
H149 H 0.98842 0.95801 0.4287 0.0
H150 H 0.01365 0.99204 0.41535 0.0
H151 H 0.02895 0.98843 0.43483 0.0
H152 H 0.05377 0.99807 0.45298 0.0
H153 H 0.07343 0.01315 0.45651 0.0
H154 H 0.0868 0.9879 0.4905 0.0
H155 H 0.06699 0.97295 0.48721 0.0
H156 H 0.04997 0.94699 0.49556 0.0
H157 H 0.04624 0.92752 0.51084 0.0
H158 H 0.00821 0.91819 0.48984 0.0
H159 H 0.01179 0.93775 0.47464 0.0
N160 N 0.02482 0.95811 0.46372 0.0
N161 N 0.03794 0.97721 0.45703 0.0
N162 N 0.04446 0.96428 0.4763 0.0
C163 C 0.02696 0.9688 0.45497 0.0
C164 C 0.04674 0.97504 0.46768 0.0
C165 C 0.03352 0.95577 0.47441 0.0
C166 C 0.01753 0.97114 0.44319 0.0
C167 C 0.0059 0.96273 0.44124 0.0
C168 C 0.99716 0.9648 0.43002 0.0
C169 C 0.99984 0.97529 0.42045 0.0
C170 C 0.0114 0.98375 0.42243 0.0
C171 C 0.02013 0.98171 0.43367 0.0
C172 C 0.05874 0.98425 0.46981 0.0
C173 C 0.06087 0.9957 0.46123 0.0
C174 C 0.07221 0.00434 0.46319 0.0
C175 C 0.08171 0.00174 0.47377 0.0
C176 C 0.07958 0.99031 0.48236 0.0
C177 C 0.06824 0.98168 0.48041 0.0
C178 C 0.03119 0.94398 0.48382 0.0
C179 C 0.04078 0.94083 0.49418 0.0
C180 C 0.23318 0.73939 0.82977 0.0
C181 C 0.22527 0.75135 0.83156 0.0
C182 C 0.21525 0.75458 0.82165 0.0
C183 C 0.21311 0.74601 0.8103 0.0
H184 H 0.18753 0.74028 0.77722 0.0
H185 H 0.16772 0.74394 0.76233 0.0
H186 H 0.17634 0.70582 0.74127 0.0
H187 H 0.19606 0.70201 0.75622 0.0
H188 H 0.22243 0.68515 0.76384 0.0
H189 H 0.23735 0.66541 0.76025 0.0
H190 H 0.26283 0.67846 0.79424 0.0
H191 H 0.24779 0.69805 0.79807 0.0
H192 H 0.2373 0.72167 0.81745 0.0
H193 H 0.24086 0.73647 0.83729 0.0
H194 H 0.20912 0.76382 0.82259 0.0
H195 H 0.20528 0.74884 0.8029 0.0
N196 N 0.20778 0.727 0.788 0.0
N197 N 0.21382 0.70754 0.77512 0.0
N198 N 0.22691 0.71382 0.79437 0.0
C199 C 0.20533 0.71843 0.77722 0.0
C200 C 0.22465 0.70517 0.78362 0.0
C201 C 0.21853 0.72476 0.79664 0.0
C202 C 0.19342 0.72083 0.76797 0.0
C203 C 0.18524 0.73266 0.76942 0.0
C204 C 0.17391 0.73481 0.76083 0.0
C205 C 0.17045 0.72516 0.75064 0.0
C206 C 0.17864 0.71337 0.74914 0.0
C207 C 0.19001 0.71124 0.75768 0.0
C208 C 0.23385 0.69322 0.78128 0.0
C209 C 0.23121 0.68385 0.77057 0.0
C210 C 0.23982 0.67254 0.76845 0.0
C211 C 0.25129 0.67034 0.77696 0.0
C212 C 0.25397 0.67974 0.78762 0.0
C213 C 0.24537 0.69103 0.78976 0.0
C214 C 0.22097 0.73401 0.80855 0.0
C215 C 0.23108 0.73084 0.8184 0.0
C216 C 0.9843 0.57802 0.4914 0.0
C217 C 0.97583 0.58 0.50295 0.0
C218 C 0.96527 0.57045 0.50553 0.0
C219 C 0.96316 0.55928 0.49673 0.0
H220 H 0.93529 0.52884 0.48796 0.0
H221 H 0.91548 0.5139 0.49119 0.0
H222 H 0.92977 0.48772 0.45827 0.0
H223 H 0.9494 0.50282 0.45478 0.0
H224 H 0.97247 0.51426 0.43494 0.0
H225 H 0.98753 0.5108 0.41525 0.0
H226 H 0.0146 0.54268 0.43026 0.0
H227 H 0.99966 0.5461 0.45007 0.0
H228 H 0.98889 0.56572 0.47377 0.0
H229 H 0.99242 0.58526 0.489 0.0
H230 H 0.95868 0.57154 0.51444 0.0
H231 H 0.9549 0.55217 0.49906 0.0
N232 N 0.95831 0.53702 0.47762 0.0
N233 N 0.9646 0.52427 0.45816 0.0
N234 N 0.97775 0.54337 0.46484 0.0
C235 C 0.95595 0.52633 0.46893 0.0
C236 C 0.97553 0.53273 0.45604 0.0
C237 C 0.96919 0.54559 0.47566 0.0
C238 C 0.94398 0.51709 0.47108 0.0
C239 C 0.93425 0.5199 0.4814 0.0
C240 C 0.9229 0.51128 0.48331 0.0
C241 C 0.92101 0.49959 0.47499 0.0
C242 C 0.93078 0.49674 0.46473 0.0
C243 C 0.9421 0.50538 0.46278 0.0
C244 C 0.98481 0.53048 0.44413 0.0
C245 C 0.98165 0.52053 0.43411 0.0
C246 C 0.99023 0.51859 0.42275 0.0
C247 C 0.00223 0.52649 0.42118 0.0
C248 C 0.00549 0.53634 0.43125 0.0
C249 C 0.99687 0.53835 0.44257 0.0
C250 C 0.97158 0.55734 0.48513 0.0
C251 C 0.98221 0.56683 0.48261 0.0
C252 C 0.82772 0.76663 0.75924 0.0
C253 C 0.83192 0.77696 0.75002 0.0
C254 C 0.82447 0.78935 0.74966 0.0
C255 C 0.81314 0.79134 0.75826 0.0
H256 H 0.77878 0.81556 0.76277 0.0
H257 H 0.76345 0.83497 0.75909 0.0
H258 H 0.74027 0.82357 0.79522 0.0
H259 H 0.75538 0.80398 0.79878 0.0
H260 H 0.76311 0.77746 0.8151 0.0
H261 H 0.75953 0.76232 0.8347 0.0
H262 H 0.79545 0.73891 0.82322 0.0
H263 H 0.79922 0.75415 0.80374 0.0
H264 H 0.81353 0.76046 0.77486 0.0
H265 H 0.83305 0.75687 0.75966 0.0
H266 H 0.82752 0.79763 0.74287 0.0
H267 H 0.80772 0.80105 0.75773 0.0
N268 N 0.78855 0.79411 0.77483 0.0
N269 N 0.77543 0.78744 0.79392 0.0
N270 N 0.7947 0.77452 0.78744 0.0
C271 C 0.77766 0.79627 0.78332 0.0
C272 C 0.78389 0.77654 0.79606 0.0
C273 C 0.79711 0.78326 0.77681 0.0
C274 C 0.76835 0.80815 0.78108 0.0
C275 C 0.77042 0.81715 0.76995 0.0
C276 C 0.76166 0.82835 0.76787 0.0
C277 C 0.75063 0.83084 0.77686 0.0
C278 C 0.74855 0.82185 0.78798 0.0
C279 C 0.75729 0.81064 0.79007 0.0
C280 C 0.78149 0.76709 0.80781 0.0
C281 C 0.77026 0.76908 0.81671 0.0
C282 C 0.76815 0.76035 0.82792 0.0
C283 C 0.77721 0.74941 0.83054 0.0
C284 C 0.78837 0.74735 0.8216 0.0
C285 C 0.79048 0.75606 0.81037 0.0
C286 C 0.80902 0.78105 0.76754 0.0
C287 C 0.81646 0.76867 0.76792 0.0
C288 C 0.32846 0.26795 0.26018 0.0
C289 C 0.33127 0.27726 0.24948 0.0
C290 C 0.32253 0.28862 0.24769 0.0
C291 C 0.3113 0.29066 0.25641 0.0
H292 H 0.27745 0.3151 0.26179 0.0
H293 H 0.26231 0.33471 0.25832 0.0
H294 H 0.24043 0.32449 0.29557 0.0
H295 H 0.25565 0.30497 0.29921 0.0
H296 H 0.26267 0.27759 0.31478 0.0
H297 H 0.25906 0.26229 0.33423 0.0
H298 H 0.29624 0.24035 0.32391 0.0
H299 H 0.29974 0.25543 0.30428 0.0
H300 H 0.31541 0.2626 0.27703 0.0
H301 H 0.33486 0.25898 0.26173 0.0
H302 H 0.32449 0.29609 0.23967 0.0
H303 H 0.30486 0.29959 0.25475 0.0
N304 N 0.28798 0.29438 0.27448 0.0
N305 N 0.27517 0.28792 0.29384 0.0
N306 N 0.29449 0.27509 0.28736 0.0
C307 C 0.27719 0.29659 0.28307 0.0
C308 C 0.28376 0.27714 0.29606 0.0
C309 C 0.29669 0.28365 0.27654 0.0
C310 C 0.26782 0.30842 0.2808 0.0
C311 C 0.26942 0.31699 0.26926 0.0
C312 C 0.26069 0.32821 0.26721 0.0
C313 C 0.25018 0.33117 0.27667 0.0
C314 C 0.24854 0.32258 0.28818 0.0
C315 C 0.25723 0.31133 0.29021 0.0
C316 C 0.28151 0.26778 0.30791 0.0
C317 C 0.27009 0.26951 0.31662 0.0
C318 C 0.26805 0.26077 0.32784 0.0
C319 C 0.27737 0.25009 0.33066 0.0
C320 C 0.28876 0.24834 0.32194 0.0
C321 C 0.2908 0.25707 0.3107 0.0
C322 C 0.30852 0.2814 0.26716 0.0
C323 C 0.31724 0.27 0.26892 0.0
C324 C 0.48439 0.92404 0.51002 0.0
C325 C 0.47504 0.9213 0.49933 0.0
C326 C 0.46371 0.93008 0.49759 0.0
C327 C 0.46173 0.94129 0.50636 0.0
H328 H 0.43609 0.97376 0.51321 0.0
H329 H 0.41646 0.98888 0.50988 0.0
H330 H 0.42846 0.01242 0.54561 0.0
H331 H 0.44826 0.99748 0.54885 0.0
H332 H 0.47372 0.98829 0.56631 0.0
H333 H 0.48896 0.9916 0.5859 0.0
H334 H 0.51401 0.95763 0.57216 0.0
H335 H 0.49865 0.95409 0.55272 0.0
H336 H 0.48979 0.93695 0.52699 0.0
H337 H 0.49315 0.91739 0.51174 0.0
H338 H 0.45641 0.92836 0.48935 0.0
H339 H 0.45286 0.94781 0.50469 0.0
N340 N 0.45796 0.96437 0.52472 0.0
N341 N 0.46454 0.97715 0.54408 0.0
N342 N 0.47749 0.958 0.53731 0.0
C343 C 0.45575 0.97509 0.5334 0.0
C344 C 0.47544 0.96866 0.54611 0.0
C345 C 0.4688 0.95577 0.52659 0.0
C346 C 0.4438 0.98436 0.53132 0.0
C347 C 0.43459 0.98216 0.52037 0.0
C348 C 0.42327 0.99079 0.51849 0.0
C349 C 0.42087 0.00184 0.52749 0.0
C350 C 0.4301 0.00409 0.53839 0.0
C351 C 0.44142 0.99546 0.54029 0.0
C352 C 0.4849 0.9709 0.5579 0.0
C353 C 0.48248 0.98152 0.56743 0.0
C354 C 0.49127 0.98347 0.57864 0.0
C355 C 0.50271 0.97487 0.58062 0.0
C356 C 0.50518 0.96432 0.57106 0.0
C357 C 0.4964 0.96235 0.55985 0.0
C358 C 0.47103 0.94399 0.51713 0.0
C359 C 0.48241 0.93523 0.51882 0.0
C360 C 0.23231 0.26206 0.67188 0.0
C361 C 0.22416 0.25024 0.67007 0.0
C362 C 0.2139 0.24732 0.67983 0.0
C363 C 0.21183 0.256 0.6911 0.0
H364 H 0.1864 0.26198 0.7241 0.0
H365 H 0.16712 0.25808 0.73957 0.0
H366 H 0.17785 0.2948 0.7622 0.0
H367 H 0.1973 0.29858 0.74696 0.0
H368 H 0.22564 0.31325 0.74057 0.0
H369 H 0.24079 0.3328 0.74433 0.0
H370 H 0.2586 0.32677 0.70408 0.0
H371 H 0.24375 0.30694 0.70046 0.0
H372 H 0.23671 0.27976 0.68415 0.0
H373 H 0.24017 0.26473 0.66446 0.0
H374 H 0.20756 0.2382 0.67886 0.0
H375 H 0.20385 0.25337 0.69841 0.0
N376 N 0.20724 0.2747 0.71376 0.0
N377 N 0.21366 0.294 0.72672 0.0
N378 N 0.22618 0.28803 0.70701 0.0
C379 C 0.2051 0.28313 0.7247 0.0
C380 C 0.22422 0.29653 0.71793 0.0
C381 C 0.21775 0.27707 0.70486 0.0
C382 C 0.19345 0.28061 0.73424 0.0
C383 C 0.1847 0.26923 0.73239 0.0
C384 C 0.17358 0.26702 0.74122 0.0
C385 C 0.17091 0.27614 0.75212 0.0
C386 C 0.1797 0.28747 0.75402 0.0
C387 C 0.19083 0.28968 0.74521 0.0
C388 C 0.23345 0.30848 0.7202 0.0
C389 C 0.23279 0.31607 0.7325 0.0
C390 C 0.24143 0.32735 0.73464 0.0
C391 C 0.25091 0.33141 0.7245 0.0
C392 C 0.25158 0.32383 0.7122 0.0
C393 C 0.24299 0.31248 0.7101 0.0
C394 C 0.21998 0.26783 0.69291 0.0
C395 C 0.23026 0.27073 0.68316 0.0
C396 C 0.76085 0.17211 0.73386 0.0
C397 C 0.7493 0.17008 0.72541 0.0
C398 C 0.74665 0.17956 0.71484 0.0
C399 C 0.75541 0.19077 0.71271 0.0
H400 H 0.76141 0.22398 0.6875 0.0
H401 H 0.75769 0.2393 0.66808 0.0
H402 H 0.79568 0.2604 0.6774 0.0
H403 H 0.79929 0.24532 0.69701 0.0
H404 H 0.81615 0.23721 0.72315 0.0
H405 H 0.83584 0.24065 0.73821 0.0
H406 H 0.82277 0.20633 0.76318 0.0
H407 H 0.80322 0.20265 0.74799 0.0
H408 H 0.77839 0.18455 0.73849 0.0
H409 H 0.76308 0.16509 0.74221 0.0
H410 H 0.73792 0.1782 0.70805 0.0
H411 H 0.75308 0.19781 0.7044 0.0
N412 N 0.77431 0.21329 0.70803 0.0
N413 N 0.79386 0.22598 0.71424 0.0
N414 N 0.78736 0.20673 0.7272 0.0
C415 C 0.78298 0.22401 0.70569 0.0
C416 C 0.79612 0.21741 0.72504 0.0
C417 C 0.77643 0.20459 0.71875 0.0
C418 C 0.78066 0.23338 0.69386 0.0
C419 C 0.76898 0.23189 0.68544 0.0
C420 C 0.76687 0.24063 0.67424 0.0
C421 C 0.77639 0.25108 0.67115 0.0
C422 C 0.78804 0.2526 0.67959 0.0
C423 C 0.79014 0.24387 0.69081 0.0
C424 C 0.80806 0.21963 0.73431 0.0
C425 C 0.81744 0.23037 0.73184 0.0
C426 C 0.82871 0.23241 0.74054 0.0
C427 C 0.83089 0.22377 0.75191 0.0
C428 C 0.82151 0.21306 0.7544 0.0
C429 C 0.81024 0.211 0.74571 0.0
C430 C 0.76701 0.19279 0.72112 0.0
C431 C 0.76959 0.18334 0.73177 0.0
C432 C 0.49765 0.53648 0.57047 0.0
C433 C 0.50115 0.52708 0.58086 0.0
C434 C 0.51338 0.51952 0.57959 0.0
C435 C 0.52196 0.52134 0.56821 0.0
H436 H 0.55374 0.50303 0.54721 0.0
H437 H 0.57324 0.4878 0.54368 0.0
H438 H 0.58762 0.51378 0.51065 0.0
H439 H 0.56795 0.52885 0.51392 0.0
H440 H 0.54912 0.55294 0.50343 0.0
H441 H 0.5454 0.57235 0.4881 0.0
H442 H 0.51046 0.58491 0.51244 0.0
H443 H 0.51396 0.56536 0.52764 0.0
H444 H 0.50329 0.54579 0.55137 0.0
H445 H 0.48834 0.54254 0.57122 0.0
H446 H 0.51628 0.51209 0.58737 0.0
H447 H 0.53131 0.51535 0.56761 0.0
N448 N 0.53869 0.52452 0.54382 0.0
N449 N 0.54503 0.53719 0.52432 0.0
N450 N 0.52564 0.54362 0.53711 0.0
C451 C 0.54734 0.52652 0.53303 0.0
C452 C 0.5342 0.54579 0.52628 0.0
C453 C 0.52781 0.53301 0.54593 0.0
C454 C 0.55923 0.51721 0.53086 0.0
C455 C 0.56104 0.50552 0.53918 0.0
C456 C 0.57228 0.49681 0.53721 0.0
C457 C 0.58203 0.49957 0.5269 0.0
C458 C 0.58022 0.51123 0.51856 0.0
C459 C 0.56895 0.51993 0.52049 0.0
C460 C 0.53186 0.55754 0.51682 0.0
C461 C 0.54062 0.5598 0.50553 0.0
C462 C 0.53854 0.571 0.49676 0.0
C463 C 0.52766 0.58021 0.49905 0.0
C464 C 0.51884 0.57791 0.51028 0.0
C465 C 0.52091 0.56672 0.51905 0.0
C466 C 0.51855 0.53086 0.55787 0.0
C467 C 0.50627 0.53839 0.55913 0.0
C468 C 0.53701 0.43058 0.00347 0.0
C469 C 0.52708 0.42058 1.00026 0.0
C470 C 0.51924 0.42213 0.98822 0.0
C471 C 0.52127 0.43343 0.97959 0.0
H472 H 0.50314 0.45478 0.94788 0.0
H473 H 0.48797 0.45843 0.92829 0.0
H474 H 0.51452 0.49092 0.91374 0.0
H475 H 0.52982 0.48724 0.93324 0.0
H476 H 0.55358 0.49795 0.95248 0.0
H477 H 0.57302 0.51325 0.95631 0.0
H478 H 0.58588 0.48839 0.99078 0.0
H479 H 0.5663 0.47322 0.98718 0.0
H480 H 0.5469 0.44932 0.99758 0.0
H481 H 0.54331 0.4296 0.01261 0.0
H482 H 0.5114 0.41466 0.98554 0.0
H483 H 0.51502 0.43428 0.97041 0.0
N484 N 0.52502 0.45758 0.96264 0.0
N485 N 0.53788 0.47698 0.95634 0.0
N486 N 0.54426 0.46406 0.97565 0.0
C487 C 0.52709 0.46838 0.95402 0.0
C488 C 0.54651 0.47491 0.96713 0.0
C489 C 0.53355 0.45534 0.97348 0.0
C490 C 0.51775 0.47069 0.94217 0.0
C491 C 0.50578 0.46271 0.94053 0.0
C492 C 0.49702 0.46485 0.92933 0.0
C493 C 0.50005 0.47496 0.91947 0.0
C494 C 0.51199 0.48295 0.92109 0.0
C495 C 0.52071 0.48088 0.93233 0.0
C496 C 0.55833 0.4843 0.96951 0.0
C497 C 0.56052 0.49572 0.9609 0.0
C498 C 0.57173 0.50448 0.96304 0.0
C499 C 0.58104 0.50204 0.97383 0.0
C500 C 0.57882 0.49067 0.98248 0.0
C501 C 0.56761 0.48192 0.98035 0.0
C502 C 0.53127 0.44342 0.98274 0.0
C503 C 0.53911 0.44185 0.9948 0.0
C504 C 0.73254 0.23972 0.32944 0.0
C505 C 0.72464 0.25173 0.33098 0.0
C506 C 0.71475 0.25485 0.32091 0.0
C507 C 0.71273 0.24615 0.30964 0.0
H508 H 0.68528 0.23793 0.2787 0.0
H509 H 0.66582 0.24159 0.26339 0.0
H510 H 0.67963 0.20817 0.23763 0.0
H511 H 0.69922 0.20456 0.25281 0.0
H512 H 0.72379 0.18614 0.26256 0.0
H513 H 0.73882 0.16645 0.25912 0.0
H514 H 0.76238 0.17813 0.29494 0.0
H515 H 0.74723 0.19769 0.29859 0.0
H516 H 0.73679 0.22186 0.31736 0.0
H517 H 0.74011 0.23688 0.33709 0.0
H518 H 0.70863 0.26412 0.32165 0.0
H519 H 0.70502 0.24892 0.3021 0.0
N520 N 0.70778 0.22704 0.28738 0.0
N521 N 0.71426 0.20778 0.27443 0.0
N522 N 0.72692 0.214 0.29399 0.0
C523 C 0.70562 0.21856 0.27648 0.0
C524 C 0.72494 0.20542 0.28313 0.0
C525 C 0.71841 0.22485 0.29618 0.0
C526 C 0.69386 0.22093 0.26704 0.0
C527 C 0.68423 0.23136 0.26977 0.0
C528 C 0.67301 0.23342 0.26103 0.0
C529 C 0.67117 0.22515 0.24932 0.0
C530 C 0.68084 0.21481 0.2465 0.0
C531 C 0.69203 0.2127 0.25527 0.0
C532 C 0.73425 0.19353 0.28088 0.0
C533 C 0.73217 0.18455 0.26972 0.0
C534 C 0.74084 0.17328 0.26769 0.0
C535 C 0.7518 0.17071 0.27676 0.0
C536 C 0.75392 0.17971 0.28787 0.0
C537 C 0.74526 0.19099 0.28991 0.0
C538 C 0.72061 0.23413 0.30811 0.0
C539 C 0.73057 0.23105 0.31814 0.0
C540 C 0.48419 0.07822 0.99181 0.0
C541 C 0.47579 0.0802 0.00341 0.0
C542 C 0.46528 0.07062 0.00609 0.0
C543 C 0.46315 0.05942 0.99734 0.0
H544 H 0.43749 0.02659 0.99103 0.0
H545 H 0.41754 0.01179 0.99431 0.0
H546 H 0.42669 0.99082 0.95625 0.0
H547 H 0.44655 0.00569 0.95281 0.0
H548 H 0.47309 0.01327 0.93638 0.0
H549 H 0.48817 0.00969 0.91674 0.0
H550 H 0.51318 0.04411 0.92958 0.0
H551 H 0.49827 0.04761 0.94938 0.0
H552 H 0.48868 0.0659 0.97417 0.0
H553 H 0.49226 0.08549 0.98933 0.0
H554 H 0.45876 0.07171 0.01505 0.0
H555 H 0.45494 0.05228 0.99974 0.0
N556 N 0.45816 0.03719 0.97821 0.0
N557 N 0.46424 0.02455 0.95861 0.0
N558 N 0.47748 0.04358 0.96529 0.0
C559 C 0.45568 0.02656 0.96947 0.0
C560 C 0.47518 0.03299 0.95645 0.0
C561 C 0.46902 0.04575 0.9762 0.0
C562 C 0.44366 0.01738 0.97163 0.0
C563 C 0.43529 0.01883 0.98334 0.0
C564 C 0.42387 0.01029 0.98527 0.0
C565 C 0.42052 1.00015 0.97553 0.0
C566 C 0.42891 0.99866 0.96386 0.0
C567 C 0.44035 0.00715 0.96194 0.0
C568 C 0.48442 0.03074 0.94451 0.0
C569 C 0.48181 0.02008 0.93507 0.0
C570 C 0.49041 0.01806 0.92374 0.0
C571 C 0.50186 0.02663 0.92158 0.0
C572 C 0.50453 0.03723 0.93104 0.0
C573 C 0.49591 0.03928 0.94236 0.0
C574 C 0.47148 0.05749 0.98567 0.0
C575 C 0.48207 0.067 0.98306 0.0
Li576 Li 0.26344 0.88459 0.99845 0.0
Li577 Li 0.25268 0.86677 0.01315 0.0
Li578 Li 0.24994 0.86694 0.98835 0.0
Li579 Li 0.23835 0.88494 0.0022 0.0
C580 C 0.27277 0.85355 0.99259 0.0
N581 N 0.28308 0.83087 0.97894 0.0
C582 C 0.27189 0.84051 0.99856 0.0
C583 C 0.27901 0.85507 0.97973 0.0
C584 C 0.27714 0.82917 0.99148 0.0
C585 C 0.28412 0.84348 0.97297 0.0
C586 C 0.25765 0.89242 0.028 0.0
C587 C 0.25323 0.90253 0.05023 0.0
N588 N 0.267 0.90338 0.05253 0.0
C589 C 0.27176 0.89347 0.03056 0.0
C590 C 0.2483 0.89706 0.03788 0.0
C591 C 0.27628 0.899 0.04303 0.0
C592 C 0.27763 0.91005 0.99875 0.0
N593 N 0.27906 0.89632 0.99654 0.0
C594 C 0.3029 0.8992 0.99139 0.0
C595 C 0.29139 0.89078 0.99304 0.0
C596 C 0.30173 0.91347 0.99338 0.0
C597 C 0.28886 0.91887 0.99715 0.0
H598 H 0.26771 0.91415 0.00166 0.0
H599 H 0.29229 0.87981 0.99159 0.0
C600 C 0.24676 0.8438 0.03032 0.0
N601 N 0.25474 0.85524 0.02907 0.0
C602 C 0.24806 0.83524 0.04177 0.0
C603 C 0.26613 0.85004 0.05025 0.0
C604 C 0.26448 0.8583 0.03863 0.0
C605 C 0.2578 0.83836 0.05199 0.0
H606 H 0.23945 0.84121 0.02237 0.0
H607 H 0.27116 0.86702 0.03716 0.0
C608 C 0.25332 0.89778 0.97719 0.0
N609 N 0.26372 0.9201 0.963 0.0
C610 C 0.24745 0.91078 0.97886 0.0
C611 C 0.26439 0.8961 0.96817 0.0
C612 C 0.25287 0.92194 0.97162 0.0
C613 C 0.26954 0.90752 0.96114 0.0
C614 C 0.22417 0.86144 0.01046 0.0
C615 C 0.2141 0.85239 0.00563 0.0
C616 C 0.22272 0.86745 0.02343 0.0
C617 C 0.20271 0.84949 0.01389 0.0
C618 C 0.21119 0.86429 0.03139 0.0
N619 N 0.2015 0.85545 0.02649 0.0
C620 C 0.24505 0.84166 0.97484 0.0
C621 C 0.24828 0.86066 0.95995 0.0
C622 C 0.2435 0.83281 0.96363 0.0
N623 N 0.24753 0.85526 0.9728 0.0
C624 C 0.24672 0.85221 0.94844 0.0
C625 C 0.24434 0.83806 0.95018 0.0
H626 H 0.24439 0.83767 0.9852 0.0
H627 H 0.25003 0.87154 0.95861 0.0
C628 C 0.22382 0.90855 0.01073 0.0
N629 N 0.22253 0.89617 0.00436 0.0
C630 C 0.21236 0.91702 0.01244 0.0
C631 C 0.19846 0.8998 0.00107 0.0
C632 C 0.21021 0.89173 0.99946 0.0
C633 C 0.19946 0.91264 0.00761 0.0
H634 H 0.23378 0.91187 0.01441 0.0
H635 H 0.20952 0.88192 0.99427 0.0
O636 O 0.26744 0.86473 0.99924 0.0
O637 O 0.25299 0.88729 0.01574 0.0
O638 O 0.24832 0.88677 0.98439 0.0
O639 O 0.2353 0.86447 0.00242 0.0
H640 H 0.26712 0.83913 0.0085 0.0
H641 H 0.27974 0.86507 0.97493 0.0
H642 H 0.27647 0.81901 0.99595 0.0
H643 H 0.28887 0.84449 0.96297 0.0
H644 H 0.24611 0.90613 0.05797 0.0
H645 H 0.27916 0.88983 0.02312 0.0
H646 H 0.23735 0.8965 0.03605 0.0
H647 H 0.28717 0.89979 0.04518 0.0
H648 H 0.31266 0.89455 0.98874 0.0
H649 H 0.28742 0.9298 0.99867 0.0
H650 H 0.24142 0.82634 0.04266 0.0
H651 H 0.27403 0.85264 0.05766 0.0
H652 H 0.23884 0.91226 0.98572 0.0
H653 H 0.2691 0.88614 0.96679 0.0
H654 H 0.24846 0.93206 0.97287 0.0
H655 H 0.27818 0.90639 0.95423 0.0
H656 H 0.21508 0.84767 0.99559 0.0
H657 H 0.23044 0.87442 0.02733 0.0
H658 H 0.19483 0.8425 0.01028 0.0
H659 H 0.20994 0.86886 0.04145 0.0
H660 H 0.24182 0.82196 0.96548 0.0
H661 H 0.24717 0.85678 0.9383 0.0
H662 H 0.21356 0.92681 0.01762 0.0
H663 H 0.18873 0.89614 0.99704 0.0
Li664 Li 0.11755 0.50232 0.26407 0.0
Li665 Li 0.13473 0.48791 0.25244 0.0
Li666 Li 0.13474 0.51361 0.24898 0.0
Li667 Li 0.11737 0.49869 0.23835 0.0
C668 C 0.14255 0.50741 0.27856 0.0
N669 N 0.15193 0.51674 0.30374 0.0
C670 C 0.14881 0.49833 0.28777 0.0
C671 C 0.14129 0.52128 0.28208 0.0
C672 C 0.15342 0.50322 0.30047 0.0
C673 C 0.14604 0.52579 0.29487 0.0
C674 C 0.11311 0.47151 0.25647 0.0
C675 C 0.11432 0.44764 0.24984 0.0
N676 N 0.111 0.44391 0.2629 0.0
C677 C 0.10959 0.46745 0.2698 0.0
C678 C 0.11537 0.46154 0.24637 0.0
C679 C 0.10862 0.45345 0.27286 0.0
C680 C 0.09347 0.50965 0.27825 0.0
N681 N 0.1063 0.50441 0.28 0.0
C682 C 0.10253 0.50216 0.30419 0.0
C683 C 0.11087 0.50052 0.29263 0.0
C684 C 0.08927 0.50772 0.30275 0.0
C685 C 0.08476 0.51144 0.28952 0.0
H686 H 0.08999 0.51243 0.26805 0.0
H687 H 0.12093 0.49601 0.29374 0.0
C688 C 0.15487 0.46846 0.24445 0.0
N689 N 0.1461 0.4721 0.25469 0.0
C690 C 0.16321 0.45686 0.24584 0.0
C691 C 0.15341 0.45304 0.26835 0.0
C692 C 0.14531 0.46473 0.26654 0.0
C693 C 0.16254 0.44895 0.25792 0.0
H694 H 0.15546 0.47461 0.23522 0.0
H695 H 0.13833 0.4679 0.27457 0.0
C696 C 0.10998 0.52919 0.24981 0.0
N697 N 0.1009 0.55606 0.25144 0.0
C698 C 0.10474 0.53576 0.23815 0.0
C699 C 0.11033 0.53621 0.26235 0.0
C700 C 0.10028 0.54937 0.23916 0.0
C701 C 0.10576 0.5498 0.26295 0.0
C702 C 0.13885 0.49748 0.22135 0.0
C703 C 0.1429 0.50879 0.21348 0.0
C704 C 0.13592 0.48499 0.21486 0.0
C705 C 0.14375 0.50748 0.19919 0.0
C706 C 0.13686 0.48409 0.20056 0.0
N707 N 0.14071 0.49526 0.19308 0.0
C708 C 0.15834 0.53004 0.25314 0.0
C709 C 0.14188 0.53987 0.23814 0.0
C710 C 0.16689 0.5415 0.25169 0.0
N711 N 0.14602 0.52951 0.24656 0.0
C712 C 0.15012 0.5515 0.23634 0.0
C713 C 0.16281 0.55246 0.24321 0.0
H714 H 0.16153 0.52155 0.25956 0.0
H715 H 0.1323 0.53901 0.23261 0.0
C716 C 0.09659 0.48605 0.22237 0.0
N717 N 0.10578 0.49658 0.22264 0.0
C718 C 0.08803 0.48417 0.21098 0.0
C719 C 0.0985 0.50406 0.20038 0.0
C720 C 0.10681 0.50558 0.212 0.0
C721 C 0.08894 0.49323 0.19975 0.0
H722 H 0.09583 0.47915 0.23104 0.0
H723 H 0.11415 0.51392 0.21249 0.0
O724 O 0.13794 0.50275 0.2661 0.0
O725 O 0.11428 0.48517 0.25333 0.0
O726 O 0.11436 0.51583 0.24899 0.0
O727 O 0.1378 0.49863 0.23534 0.0
H728 H 0.15004 0.48759 0.28518 0.0
H729 H 0.13689 0.52855 0.27494 0.0
H730 H 0.15819 0.49628 0.30773 0.0
H731 H 0.1451 0.5365 0.29772 0.0
H732 H 0.11614 0.43981 0.24214 0.0
H733 H 0.10773 0.47501 0.27772 0.0
H734 H 0.11799 0.46449 0.23598 0.0
H735 H 0.10599 0.45016 0.28315 0.0
H736 H 0.10649 0.49922 0.31417 0.0
H737 H 0.07454 0.51551 0.28785 0.0
H738 H 0.17025 0.45425 0.23763 0.0
H739 H 0.15243 0.44719 0.27777 0.0
H740 H 0.10421 0.53046 0.2284 0.0
H741 H 0.1139 0.53118 0.27158 0.0
H742 H 0.09632 0.55461 0.23019 0.0
H743 H 0.10601 0.55535 0.27259 0.0
H744 H 0.14532 0.51851 0.21832 0.0
H745 H 0.13286 0.47611 0.2208 0.0
H746 H 0.1468 0.51617 0.19297 0.0
H747 H 0.13452 0.47451 0.1954 0.0
H748 H 0.17652 0.54181 0.25727 0.0
H749 H 0.14669 0.55953 0.22944 0.0
H750 H 0.08066 0.47582 0.21106 0.0
H751 H 0.09968 0.5112 0.19193 0.0
Li752 Li 0.73825 0.61728 0.99868 0.0
Li753 Li 0.74921 0.6345 0.01359 0.0
Li754 Li 0.75275 0.63445 0.98779 0.0
Li755 Li 0.76403 0.61719 0.00238 0.0
C756 C 0.72179 0.63951 0.997 0.0
N757 N 0.69375 0.6429 0.99397 0.0
C758 C 0.71379 0.64377 0.00814 0.0
C759 C 0.71556 0.63719 0.98426 0.0
C760 C 0.69962 0.64538 0.00642 0.0
C761 C 0.70136 0.63889 0.98294 0.0
C762 C 0.74876 0.61044 0.02944 0.0
C763 C 0.76035 0.60775 0.05121 0.0
N764 N 0.74848 0.60302 0.05688 0.0
C765 C 0.73672 0.60536 0.03544 0.0
C766 C 0.76072 0.61149 0.03735 0.0
C767 C 0.73676 0.60175 0.04934 0.0
C768 C 0.72217 0.59636 0.98638 0.0
N769 N 0.72231 0.60601 0.99648 0.0
C770 C 0.69958 0.59966 0.0034 0.0
C771 C 0.71137 0.60772 0.00501 0.0
C772 C 0.69908 0.58967 0.99296 0.0
C773 C 0.71061 0.58805 0.98441 0.0
H774 H 0.73108 0.59503 0.97988 0.0
H775 H 0.71177 0.61535 0.01307 0.0
C776 C 0.75454 0.6574 0.03075 0.0
N777 N 0.74692 0.64573 0.02955 0.0
C778 C 0.75315 0.66583 0.0423 0.0
C779 C 0.73583 0.65029 0.05101 0.0
C780 C 0.73759 0.64214 0.03932 0.0
C781 C 0.7437 0.6623 0.05264 0.0
H782 H 0.76165 0.66022 0.02269 0.0
H783 H 0.73136 0.63305 0.03797 0.0
C784 C 0.7557 0.6122 0.97145 0.0
N785 N 0.76065 0.60875 0.94368 0.0
C786 C 0.76862 0.60788 0.9669 0.0
C787 C 0.74524 0.61454 0.96189 0.0
C788 C 0.77094 0.60625 0.95282 0.0
C789 C 0.74796 0.61281 0.94789 0.0
C790 C 0.77945 0.64126 0.00635 0.0
C791 C 0.7885 0.64635 0.99641 0.0
C792 C 0.7838 0.64023 0.02001 0.0
C793 C 0.80187 0.64998 1.00024 0.0
C794 C 0.79724 0.64397 0.02344 0.0
N795 N 0.80594 0.6487 0.01356 0.0
C796 C 0.74548 0.65548 0.96905 0.0
C797 C 0.76626 0.64399 0.96371 0.0
C798 C 0.74685 0.66384 0.95745 0.0
N799 N 0.75507 0.64574 0.9719 0.0
C800 C 0.76803 0.65209 0.952 0.0
C801 C 0.75825 0.6622 0.94873 0.0
H802 H 0.73679 0.65684 0.97584 0.0
H803 H 0.77383 0.63629 0.96627 0.0
C804 C 0.77892 0.59424 0.01216 0.0
N805 N 0.77997 0.60594 0.00458 0.0
C806 C 0.79037 0.58581 0.0141 0.0
C807 C 0.8037 0.60138 1.00005 0.0
C808 C 0.792 0.60953 0.99844 0.0
C809 C 0.80299 0.58936 0.00803 0.0
H810 H 0.76915 0.59141 0.01666 0.0
H811 H 0.7925 0.61864 0.99213 0.0
O812 O 0.73567 0.63773 0.99854 0.0
O813 O 0.74888 0.61411 0.01585 0.0
O814 O 0.75329 0.61399 0.98521 0.0
O815 O 0.76634 0.63759 0.00275 0.0
H816 H 0.71845 0.64577 0.01803 0.0
H817 H 0.7216 0.63411 0.97548 0.0
H818 H 0.6933 0.64858 0.01498 0.0
H819 H 0.69639 0.63704 0.97316 0.0
H820 H 0.76953 0.60855 0.05745 0.0
H821 H 0.72742 0.6043 0.02945 0.0
H822 H 0.77023 0.61496 0.03281 0.0
H823 H 0.72749 0.59791 0.05413 0.0
H824 H 0.6909 0.60136 0.01016 0.0
H825 H 0.71078 0.58032 0.97639 0.0
H826 H 0.75924 0.67514 0.04301 0.0
H827 H 0.72844 0.64716 0.05873 0.0
H828 H 0.7768 0.60587 0.97415 0.0
H829 H 0.73513 0.61766 0.96522 0.0
H830 H 0.78092 0.603 0.94915 0.0
H831 H 0.73997 0.61468 0.94038 0.0
H832 H 0.78528 0.64741 0.98583 0.0
H833 H 0.77684 0.63675 0.02791 0.0
H834 H 0.80901 0.65382 0.99263 0.0
H835 H 0.80075 0.64317 0.03397 0.0
H836 H 0.73918 0.67165 0.95548 0.0
H837 H 0.77691 0.65036 0.94552 0.0
H838 H 0.7893 0.5765 0.02011 0.0
H839 H 0.81322 0.60453 0.99521 0.0
Li840 Li 0.86722 0.01394 0.25221 0.0
Li841 Li 0.88446 0.99921 0.26337 0.0
Li842 Li 0.88428 0.00294 0.23758 0.0
Li843 Li 0.86704 0.98814 0.24861 0.0
C844 C 0.88987 0.03008 0.25497 0.0
N845 N 0.89418 0.05778 0.2597 0.0
C846 C 0.8942 0.03463 0.2679 0.0
C847 C 0.88796 0.0396 0.24438 0.0
C848 C 0.89627 0.04868 0.27011 0.0
C849 C 0.89012 0.05356 0.247 0.0
C850 C 0.86069 0.99576 0.27905 0.0
C851 C 0.85867 0.97927 0.29747 0.0
N852 N 0.85394 0.98936 0.30591 0.0
C853 C 0.85562 0.00592 0.28786 0.0
C854 C 0.86207 0.98229 0.28384 0.0
C855 C 0.85234 0.0025 0.30142 0.0
C856 C 0.84595 0.03248 0.24522 0.0
N857 N 0.85602 0.02988 0.25455 0.0
C858 C 0.85001 0.05002 0.26731 0.0
C859 C 0.8581 0.03832 0.26551 0.0
C860 C 0.83957 0.05304 0.25777 0.0
C861 C 0.83759 0.04406 0.24661 0.0
H862 H 0.84431 0.02548 0.23673 0.0
H863 H 0.86602 0.03593 0.27293 0.0
C864 C 0.9074 0.98916 0.27802 0.0
N865 N 0.89583 0.99688 0.27922 0.0
C866 C 0.91597 0.9871 0.28937 0.0
C867 C 0.9007 0.00124 0.30293 0.0
C868 C 0.89246 0.00303 0.29132 0.0
C869 C 0.91263 0.99315 0.30207 0.0
H870 H 0.91 0.98458 0.26823 0.0
H871 H 0.88348 0.00951 0.29192 0.0
C872 C 0.86173 0.00517 0.22133 0.0
N873 N 0.85765 0.00908 0.19348 0.0
C874 C 0.85711 0.99432 0.2131 0.0
C875 C 0.86406 0.01806 0.21544 0.0
C876 C 0.85516 0.99649 0.19903 0.0
C877 C 0.862 0.01982 0.20133 0.0
C878 C 0.89069 0.97209 0.2476 0.0
C879 C 0.89525 0.96628 0.23527 0.0
C880 C 0.88974 0.96389 0.25936 0.0
C881 C 0.89845 0.95229 0.23483 0.0
C882 C 0.89305 0.94995 0.25852 0.0
N883 N 0.89727 0.94447 0.24637 0.0
C884 C 0.90567 0.01473 0.22182 0.0
C885 C 0.89336 0.99705 0.21041 0.0
C886 C 0.91404 0.01665 0.21032 0.0
N887 N 0.89551 0.00512 0.22163 0.0
C888 C 0.90147 0.99863 0.19868 0.0
C889 C 0.91199 0.00855 0.19851 0.0
H890 H 0.90734 0.02085 0.23095 0.0
H891 H 0.88536 0.98934 0.21057 0.0
C892 C 0.84455 0.97064 0.25458 0.0
N893 N 0.85574 0.97222 0.24636 0.0
C894 C 0.83611 0.95908 0.25323 0.0
C895 C 0.85066 0.95114 0.23473 0.0
C896 C 0.85883 0.96283 0.23647 0.0
C897 C 0.83914 0.94913 0.2432 0.0
H898 H 0.8421 0.97841 0.26213 0.0
H899 H 0.86755 0.96448 0.2298 0.0
O900 O 0.88768 0.01637 0.25266 0.0
O901 O 0.86406 0.99897 0.26577 0.0
O902 O 0.86383 0.00319 0.23511 0.0
O903 O 0.88743 0.98577 0.24819 0.0
H904 H 0.89589 0.02742 0.27617 0.0
H905 H 0.88487 0.03626 0.23425 0.0
H906 H 0.89953 0.05235 0.2801 0.0
H907 H 0.88859 0.06104 0.23891 0.0
H908 H 0.85974 0.96889 0.30131 0.0
H909 H 0.8543 0.01636 0.28431 0.0
H910 H 0.86557 0.97422 0.27708 0.0
H911 H 0.84851 0.01029 0.30837 0.0
H912 H 0.85199 0.05669 0.276 0.0
H913 H 0.82952 0.04583 0.23915 0.0
H914 H 0.92501 0.98073 0.28824 0.0
H915 H 0.8979 0.00634 0.31243 0.0
H916 H 0.85509 0.98432 0.21749 0.0
H917 H 0.86738 0.02662 0.22168 0.0
H918 H 0.85167 0.98816 0.19252 0.0
H919 H 0.86384 0.02973 0.19663 0.0
H920 H 0.89623 0.97248 0.22611 0.0
H921 H 0.88665 0.96827 0.26908 0.0
H922 H 0.90189 0.94764 0.22533 0.0
H923 H 0.8923 0.94349 0.26754 0.0
H924 H 0.92218 0.02425 0.21076 0.0
H925 H 0.89943 0.99223 0.18979 0.0
H926 H 0.82719 0.95807 0.25981 0.0
H927 H 0.8534 0.94372 0.22689 0.0
Li928 Li 0.24935 0.13472 0.51329 0.0
Li929 Li 0.23867 0.11742 0.4983 0.0
Li930 Li 0.26438 0.11748 0.50212 0.0
Li931 Li 0.253 0.13469 0.48755 0.0
C932 C 0.24958 0.11035 0.52903 0.0
N933 N 0.25034 0.10217 0.55624 0.0
C934 C 0.23777 0.10512 0.53534 0.0
C935 C 0.26184 0.11115 0.5365 0.0
C936 C 0.23834 0.10112 0.54913 0.0
C937 C 0.262 0.10703 0.55025 0.0
C938 C 0.22191 0.13918 0.4968 0.0
C939 C 0.20134 0.13773 0.48301 0.0
N940 N 0.19373 0.14162 0.49408 0.0
C941 C 0.21391 0.1433 0.508 0.0
C942 C 0.2156 0.1365 0.48417 0.0
C943 C 0.19968 0.14443 0.50643 0.0
C944 C 0.25396 0.15804 0.53001 0.0
N945 N 0.2469 0.14599 0.52918 0.0
C946 C 0.23608 0.15038 0.55081 0.0
C947 C 0.23798 0.14212 0.53922 0.0
C948 C 0.24339 0.16278 0.55206 0.0
C949 C 0.25243 0.16659 0.54146 0.0
H950 H 0.26073 0.16107 0.52173 0.0
H951 H 0.23216 0.13273 0.53815 0.0
C952 C 0.22262 0.09669 0.48564 0.0
N953 N 0.22286 0.10599 0.49607 0.0
C954 C 0.21113 0.08829 0.48364 0.0
C955 C 0.20036 0.09911 0.50324 0.0
C956 C 0.21208 0.10726 0.50488 0.0
C957 C 0.19976 0.08946 0.49249 0.0
H958 H 0.2314 0.09573 0.4789 0.0
H959 H 0.21255 0.11466 0.51315 0.0
C960 C 0.27934 0.14204 0.50666 0.0
N961 N 0.3052 0.15052 0.51492 0.0
C962 C 0.28854 0.14758 0.4971 0.0
C963 C 0.28322 0.14107 0.52046 0.0
C964 C 0.30159 0.15174 0.50146 0.0
C965 C 0.29635 0.14534 0.52443 0.0
C966 C 0.25669 0.11282 0.47119 0.0
C967 C 0.26987 0.10893 0.46701 0.0
C968 C 0.24652 0.11517 0.46131 0.0
C969 C 0.27272 0.10769 0.45299 0.0
C970 C 0.24978 0.11385 0.44738 0.0
N971 N 0.26271 0.11018 0.44354 0.0
C972 C 0.27881 0.09394 0.51091 0.0
C973 C 0.29268 0.11032 0.49938 0.0
C974 C 0.29015 0.08537 0.51289 0.0
N975 N 0.28029 0.10622 0.5044 0.0
C976 C 0.3043 0.10208 0.50113 0.0
C977 C 0.30314 0.08943 0.50801 0.0
H978 H 0.2688 0.09081 0.51459 0.0
H979 H 0.29354 0.11987 0.49381 0.0
C980 C 0.24533 0.15537 0.46862 0.0
N981 N 0.25529 0.14609 0.47174 0.0
C982 C 0.24663 0.16379 0.45705 0.0
C983 C 0.26847 0.15301 0.45217 0.0
C984 C 0.26677 0.14486 0.46386 0.0
C985 C 0.25831 0.16264 0.44863 0.0
H986 H 0.23638 0.15627 0.47512 0.0
H987 H 0.27464 0.13755 0.46666 0.0
O988 O 0.24918 0.11434 0.51553 0.0
O989 O 0.23585 0.13785 0.4982 0.0
O990 O 0.26653 0.13788 0.50253 0.0
O991 O 0.25375 0.11424 0.48488 0.0
H992 H 0.22824 0.10424 0.5297 0.0
H993 H 0.27118 0.11473 0.53169 0.0
H994 H 0.22924 0.09717 0.55416 0.0
H995 H 0.27142 0.10764 0.55615 0.0
H996 H 0.19631 0.13559 0.47331 0.0
H997 H 0.21862 0.14554 0.51782 0.0
H998 H 0.22164 0.13345 0.47536 0.0
H999 H 0.19335 0.14753 0.51504 0.0
H1000 H 0.22902 0.14703 0.55875 0.0
H1001 H 0.25808 0.17618 0.54188 0.0
H1002 H 0.21123 0.08084 0.47536 0.0
H1003 H 0.19181 0.10049 0.51023 0.0
H1004 H 0.28568 0.1486 0.48641 0.0
H1005 H 0.27611 0.13724 0.52808 0.0
H1006 H 0.30884 0.15594 0.49415 0.0
H1007 H 0.29948 0.14461 0.53508 0.0
H1008 H 0.27783 0.10695 0.4745 0.0
H1009 H 0.23623 0.11804 0.46435 0.0
H1010 H 0.2829 0.10477 0.44961 0.0
H1011 H 0.24203 0.11574 0.43963 0.0
H1012 H 0.28878 0.07575 0.51832 0.0
H1013 H 0.31404 0.10548 0.49693 0.0
H1014 H 0.23851 0.171 0.45465 0.0
H1015 H 0.27773 0.15193 0.44609 0.0
Li1016 Li 0.38434 0.49914 0.76279 0.0
Li1017 Li 0.36721 0.51409 0.75188 0.0
Li1018 Li 0.3671 0.48831 0.74824 0.0
Li1019 Li 0.38452 0.50289 0.73704 0.0
C1020 C 0.36204 0.49702 0.77916 0.0
N1021 N 0.35847 0.49301 0.80706 0.0
C1022 C 0.35775 0.50788 0.78753 0.0
C1023 C 0.3643 0.48407 0.78494 0.0
C1024 C 0.35605 0.50566 0.80162 0.0
C1025 C 0.36251 0.48226 0.79907 0.0
C1026 C 0.39124 0.5299 0.75235 0.0
C1027 C 0.39441 0.55151 0.74061 0.0
N1028 N 0.39867 0.55734 0.75259 0.0
C1029 C 0.39584 0.53605 0.76451 0.0
C1030 C 0.39068 0.53764 0.74026 0.0
C1031 C 0.39947 0.54995 0.76444 0.0
C1032 C 0.40564 0.48707 0.77837 0.0
N1033 N 0.39568 0.49686 0.77864 0.0
C1034 C 0.40203 0.5033 0.80152 0.0
C1035 C 0.39384 0.50502 0.78985 0.0
C1036 C 0.41236 0.49321 0.80157 0.0
C1037 C 0.41414 0.48506 0.78977 0.0
H1038 H 0.40702 0.48084 0.76928 0.0
H1039 H 0.38605 0.51292 0.78971 0.0
C1040 C 0.34461 0.53145 0.74624 0.0
N1041 N 0.35603 0.53003 0.75419 0.0
C1042 C 0.3362 0.54299 0.74765 0.0
C1043 C 0.35121 0.55124 0.76567 0.0
C1044 C 0.35936 0.53956 0.76387 0.0
C1045 C 0.33946 0.55309 0.75746 0.0
H1046 H 0.34197 0.52355 0.73887 0.0
H1047 H 0.36824 0.53802 0.77035 0.0
C1048 C 0.38957 0.47205 0.74501 0.0
N1049 N 0.39362 0.44447 0.73948 0.0
C1050 C 0.39381 0.46784 0.73194 0.0
C1051 C 0.3876 0.46224 0.75533 0.0
C1052 C 0.39576 0.45385 0.72933 0.0
C1053 C 0.38963 0.44835 0.75231 0.0
C1054 C 0.36029 0.50671 0.72161 0.0
C1055 C 0.35472 0.4967 0.7129 0.0
C1056 C 0.3617 0.52021 0.71691 0.0
C1057 C 0.35092 0.50032 0.69953 0.0
C1058 C 0.35777 0.52343 0.70348 0.0
N1059 N 0.35253 0.5135 0.69513 0.0
C1060 C 0.34539 0.47028 0.75514 0.0
C1061 C 0.35759 0.46395 0.73504 0.0
C1062 C 0.33677 0.45887 0.75378 0.0
N1063 N 0.35562 0.47255 0.74589 0.0
C1064 C 0.34928 0.45236 0.73334 0.0
C1065 C 0.33867 0.44967 0.74278 0.0
H1066 H 0.34385 0.47741 0.76352 0.0
H1067 H 0.36559 0.46612 0.72766 0.0
C1068 C 0.40827 0.51163 0.72301 0.0
N1069 N 0.39601 0.50514 0.72128 0.0
C1070 C 0.41711 0.51354 0.71185 0.0
C1071 C 0.40063 0.50186 0.69736 0.0
C1072 C 0.39215 0.50013 0.70881 0.0
C1073 C 0.41331 0.50867 0.69877 0.0
H1074 H 0.41123 0.51527 0.7331 0.0
H1075 H 0.38257 0.49463 0.70774 0.0
O1076 O 0.3639 0.49905 0.76536 0.0
O1077 O 0.38761 0.5163 0.75225 0.0
O1078 O 0.38753 0.4857 0.74772 0.0
O1079 O 0.36414 0.5033 0.73472 0.0
H1080 H 0.35581 0.51793 0.78322 0.0
H1081 H 0.36741 0.47552 0.77858 0.0
H1082 H 0.35282 0.51399 0.80824 0.0
H1083 H 0.36431 0.47231 0.80369 0.0
H1084 H 0.39397 0.55763 0.73133 0.0
H1085 H 0.39651 0.53018 0.77392 0.0
H1086 H 0.38753 0.53297 0.73069 0.0
H1087 H 0.40294 0.55487 0.7738 0.0
H1088 H 0.40046 0.50995 0.81032 0.0
H1089 H 0.42192 0.47712 0.78941 0.0
H1090 H 0.32709 0.54386 0.74129 0.0
H1091 H 0.35413 0.55877 0.77334 0.0
H1092 H 0.39551 0.47528 0.72386 0.0
H1093 H 0.38454 0.46532 0.76555 0.0
H1094 H 0.39895 0.45045 0.71924 0.0
H1095 H 0.38807 0.44065 0.76018 0.0
H1096 H 0.35342 0.48624 0.7164 0.0
H1097 H 0.36563 0.52816 0.72361 0.0
H1098 H 0.34668 0.49266 0.69266 0.0
H1099 H 0.35884 0.53384 0.69971 0.0
H1100 H 0.32856 0.4574 0.76115 0.0
H1101 H 0.35125 0.44553 0.72477 0.0
H1102 H 0.4269 0.51859 0.71352 0.0
H1103 H 0.3972 0.49799 0.68749 0.0
Li1104 Li 0.7644 0.38357 0.49979 0.0
Li1105 Li 0.75267 0.3664 0.51416 0.0
Li1106 Li 0.74915 0.36652 0.48846 0.0
Li1107 Li 0.73876 0.38388 0.50345 0.0
C1108 C 0.7786 0.35825 0.49467 0.0
N1109 N 0.8035 0.34818 0.4854 0.0
C1110 C 0.78771 0.35195 0.50382 0.0
C1111 C 0.78207 0.35921 0.48076 0.0
C1112 C 0.80027 0.34698 0.49895 0.0
C1113 C 0.79472 0.35411 0.47628 0.0
C1114 C 0.75716 0.38788 0.5306 0.0
C1115 C 0.75098 0.38646 0.55458 0.0
N1116 N 0.76413 0.38972 0.55809 0.0
C1117 C 0.77058 0.39132 0.53445 0.0
C1118 C 0.74724 0.38554 0.54074 0.0
C1119 C 0.77391 0.39216 0.5484 0.0
C1120 C 0.77842 0.40789 0.49311 0.0
N1121 N 0.78035 0.39483 0.49767 0.0
C1122 C 0.80463 0.39844 0.49897 0.0
C1123 C 0.79311 0.39006 0.50077 0.0
C1124 C 0.80298 0.41193 0.49409 0.0
C1125 C 0.78965 0.41666 0.49122 0.0
H1126 H 0.76814 0.41147 0.49085 0.0
H1127 H 0.79438 0.37981 0.50481 0.0
C1128 C 0.74443 0.34619 0.53342 0.0
N1129 N 0.75479 0.35491 0.52992 0.0
C1130 C 0.74564 0.33779 0.545 0.0
C1131 C 0.76819 0.34742 0.54912 0.0
C1132 C 0.76657 0.35558 0.53742 0.0
C1133 C 0.75763 0.33838 0.55306 0.0
H1134 H 0.73522 0.34574 0.52722 0.0
H1135 H 0.77472 0.36247 0.53433 0.0
C1136 C 0.75063 0.3914 0.47301 0.0
N1137 N 0.75324 0.40078 0.44631 0.0
C1138 C 0.73933 0.3971 0.4662 0.0
C1139 C 0.76332 0.39073 0.46631 0.0
C1140 C 0.74084 0.4017 0.45268 0.0
C1141 C 0.76442 0.39546 0.4528 0.0
C1142 C 0.72152 0.36274 0.50456 0.0
C1143 C 0.71356 0.359 0.49319 0.0
C1144 C 0.7151 0.36569 0.51708 0.0
C1145 C 0.69926 0.3585 0.49447 0.0
C1146 C 0.70078 0.36509 0.51794 0.0
N1147 N 0.69322 0.36155 0.50671 0.0
C1148 C 0.75276 0.3428 0.47213 0.0
C1149 C 0.73843 0.35971 0.46207 0.0
C1150 C 0.75119 0.3343 0.46066 0.0
N1151 N 0.74657 0.35532 0.47254 0.0
C1152 C 0.7365 0.35151 0.45043 0.0
C1153 C 0.74298 0.33864 0.4496 0.0
H1154 H 0.75891 0.3394 0.48075 0.0
H1155 H 0.73328 0.36951 0.4628 0.0
C1156 C 0.7226 0.40433 0.51638 0.0
N1157 N 0.72314 0.39554 0.50554 0.0
C1158 C 0.71121 0.41287 0.51821 0.0
C1159 C 0.70118 0.4032 0.49762 0.0
C1160 C 0.71278 0.39489 0.49617 0.0
C1161 C 0.70027 0.41236 0.50876 0.0
H1162 H 0.73105 0.40478 0.52359 0.0
H1163 H 0.71348 0.38784 0.48761 0.0
O1164 O 0.76626 0.36318 0.4993 0.0
O1165 O 0.75375 0.38683 0.51699 0.0
O1166 O 0.74932 0.38688 0.48629 0.0
O1167 O 0.73552 0.36348 0.50345 0.0
H1168 H 0.78515 0.35094 0.51459 0.0
H1169 H 0.77501 0.36364 0.47344 0.0
H1170 H 0.80745 0.34217 0.50595 0.0
H1171 H 0.79753 0.35481 0.46554 0.0
H1172 H 0.74344 0.38458 0.56253 0.0
H1173 H 0.77837 0.39322 0.52675 0.0
H1174 H 0.7368 0.38295 0.53795 0.0
H1175 H 0.78427 0.39474 0.55152 0.0
H1176 H 0.81471 0.39448 0.50156 0.0
H1177 H 0.78792 0.42696 0.48737 0.0
H1178 H 0.73721 0.33103 0.54772 0.0
H1179 H 0.77768 0.34806 0.55491 0.0
H1180 H 0.72948 0.39789 0.47127 0.0
H1181 H 0.77229 0.38679 0.47152 0.0
H1182 H 0.73214 0.40603 0.44726 0.0
H1183 H 0.77418 0.39497 0.44749 0.0
H1184 H 0.71835 0.3566 0.48346 0.0
H1185 H 0.72111 0.36852 0.52599 0.0
H1186 H 0.69296 0.3557 0.48573 0.0
H1187 H 0.69568 0.36745 0.52753 0.0
H1188 H 0.75616 0.32434 0.46056 0.0
H1189 H 0.7301 0.35527 0.44213 0.0
H1190 H 0.71107 0.41993 0.52683 0.0
H1191 H 0.69294 0.40232 0.49017 0.0
Li1192 Li 0.6342 0.98692 0.75304 0.0
Li1193 Li 0.61695 0.00135 0.76455 0.0
Li1194 Li 0.61699 0.99796 0.73875 0.0
Li1195 Li 0.63424 0.01275 0.74981 0.0
C1196 C 0.61199 0.97056 0.75609 0.0
N1197 N 0.60862 0.9428 0.76116 0.0
C1198 C 0.60783 0.96604 0.76908 0.0
C1199 C 0.61423 0.96097 0.74562 0.0
C1200 C 0.60623 0.95196 0.77146 0.0
C1201 C 0.61254 0.94698 0.7484 0.0
C1202 C 0.64116 0.00512 0.77992 0.0
C1203 C 0.64397 0.02191 0.79798 0.0
N1204 N 0.64886 0.01193 0.80644 0.0
C1205 C 0.6464 0.99506 0.78874 0.0
C1206 C 0.64009 0.01869 0.78452 0.0
C1207 C 0.65017 0.99869 0.80213 0.0
C1208 C 0.65534 0.96851 0.74542 0.0
N1209 N 0.64558 0.97106 0.75508 0.0
C1210 C 0.65214 0.95098 0.76764 0.0
C1211 C 0.64392 0.96264 0.76611 0.0
C1212 C 0.66227 0.94803 0.75778 0.0
C1213 C 0.66384 0.95699 0.74656 0.0
H1214 H 0.65658 0.97544 0.73683 0.0
H1215 H 0.63627 0.96502 0.7738 0.0
C1216 C 0.59374 0.01061 0.77928 0.0
N1217 N 0.60566 0.00343 0.7805 0.0
C1218 C 0.58522 0.01251 0.79068 0.0
C1219 C 0.60122 0.99931 0.80433 0.0
C1220 C 0.60942 0.99766 0.79266 0.0
C1221 C 0.58895 0.00687 0.80345 0.0
H1222 H 0.59085 0.01489 0.76944 0.0
H1223 H 0.61867 0.99158 0.79328 0.0
C1224 C 0.63908 0.99644 0.72217 0.0
N1225 N 0.64221 0.9936 0.69407 0.0
C1226 C 0.64333 0.00762 0.71421 0.0
C1227 C 0.63663 0.98375 0.71586 0.0
C1228 C 0.64481 0.00599 0.70001 0.0
C1229 C 0.6382 0.98254 0.70163 0.0
C1230 C 0.61022 0.0286 0.74977 0.0
C1231 C 0.60524 0.0349 0.73785 0.0
C1232 C 0.61118 0.0362 0.76193 0.0
C1233 C 0.60165 0.04879 0.73821 0.0
C1234 C 0.60747 0.05007 0.76188 0.0
N1235 N 0.60285 0.05604 0.75012 0.0
C1236 C 0.59606 0.98581 0.72257 0.0
C1237 C 0.60727 0.00469 0.71203 0.0
C1238 C 0.58768 0.98402 0.71104 0.0
N1239 N 0.60567 0.99597 0.72283 0.0
C1240 C 0.59915 0.00326 0.70027 0.0
C1241 C 0.58918 0.9928 0.69966 0.0
H1242 H 0.59483 0.97915 0.73137 0.0
H1243 H 0.61489 0.01278 0.71253 0.0
C1244 C 0.65715 0.02982 0.75533 0.0
N1245 N 0.64548 0.02872 0.7477 0.0
C1246 C 0.6656 0.04137 0.75408 0.0
C1247 C 0.65009 0.05031 0.73686 0.0
C1248 C 0.64193 0.0386 0.73848 0.0
C1249 C 0.6621 0.05184 0.74476 0.0
H1250 H 0.65991 0.02169 0.76238 0.0
H1251 H 0.63288 0.03729 0.73217 0.0
O1252 O 0.61374 0.9843 0.75362 0.0
O1253 O 0.63735 0.00171 0.7668 0.0
O1254 O 0.63743 0.99788 0.73608 0.0
O1255 O 0.61385 0.015 0.74957 0.0
H1256 H 0.60592 0.9733 0.77727 0.0
H1257 H 0.61725 0.96428 0.73547 0.0
H1258 H 0.6031 0.94832 0.78149 0.0
H1259 H 0.61432 0.93945 0.74042 0.0
H1260 H 0.64314 0.03237 0.80167 0.0
H1261 H 0.64749 0.98455 0.78533 0.0
H1262 H 0.63648 0.02668 0.77774 0.0
H1263 H 0.65414 0.99098 0.80909 0.0
H1264 H 0.65073 0.94449 0.77657 0.0
H1265 H 0.67145 0.95506 0.73867 0.0
H1266 H 0.5759 0.01848 0.78954 0.0
H1267 H 0.60435 0.99451 0.81387 0.0
H1268 H 0.64542 0.01747 0.71893 0.0
H1269 H 0.63354 0.97495 0.72187 0.0
H1270 H 0.64801 0.01459 0.69372 0.0
H1271 H 0.63625 0.9728 0.69661 0.0
H1272 H 0.60424 0.02915 0.72839 0.0
H1273 H 0.61457 0.03142 0.77135 0.0
H1274 H 0.5979 0.05382 0.72902 0.0
H1275 H 0.60821 0.05608 0.77122 0.0
H1276 H 0.57998 0.97597 0.71113 0.0
H1277 H 0.60077 0.01018 0.69171 0.0
H1278 H 0.67471 0.04213 0.76044 0.0
H1279 H 0.64715 0.05794 0.72932 0.0
Li1280 Li 0.01375 0.25232 0.86724 0.0
Li1281 Li 0.99913 0.26366 0.88446 0.0
Li1282 Li 0.00279 0.23785 0.88449 0.0
Li1283 Li 0.988 0.24876 0.86714 0.0
C1284 C 0.02995 0.25544 0.88969 0.0
N1285 N 0.05763 0.26056 0.89361 0.0
C1286 C 0.03446 0.26866 0.89312 0.0
C1287 C 0.03949 0.24478 0.88848 0.0
C1288 C 0.0485 0.27105 0.895 0.0
C1289 C 0.05345 0.24759 0.89043 0.0
C1290 C 0.99508 0.27895 0.86041 0.0
C1291 C 0.97797 0.29679 0.85865 0.0
N1292 N 0.98756 0.30536 0.85313 0.0
C1293 C 0.00473 0.28787 0.85458 0.0
C1294 C 0.98157 0.28339 0.86234 0.0
C1295 C 0.00074 0.3012 0.85102 0.0
C1296 C 0.03253 0.24484 0.84635 0.0
N1297 N 0.02965 0.25457 0.85596 0.0
C1298 C 0.0495 0.26754 0.8494 0.0
C1299 C 0.03777 0.26586 0.85751 0.0
C1300 C 0.05281 0.25759 0.83947 0.0
C1301 C 0.04412 0.24613 0.83797 0.0
H1302 H 0.0258 0.23608 0.84513 0.0
H1303 H 0.03509 0.27363 0.86498 0.0
C1304 C 0.99008 0.27792 0.90797 0.0
N1305 N 0.99685 0.27949 0.89584 0.0
C1306 C 0.98812 0.28915 0.9167 0.0
C1307 C 1.0003 0.30341 0.90041 0.0
C1308 C 0.00208 0.29189 0.89204 0.0
C1309 C 0.99321 0.30216 0.91295 0.0
H1310 H 0.98626 0.26789 0.91089 0.0
H1311 H 0.00777 0.29283 0.88256 0.0
C1312 C 0.00506 0.22147 0.86187 0.0
N1313 N 0.00917 0.19368 0.85761 0.0
C1314 C 0.99445 0.2133 0.85664 0.0
C1315 C 0.01782 0.21554 0.86475 0.0
C1316 C 0.99671 0.19926 0.8546 0.0
C1317 C 0.01968 0.20147 0.86259 0.0
C1318 C 0.97209 0.24772 0.89111 0.0
C1319 C 0.96646 0.23517 0.89529 0.0
C1320 C 0.96385 0.25948 0.89094 0.0
C1321 C 0.95257 0.23453 0.89889 0.0
C1322 C 0.95001 0.25842 0.89463 0.0
N1323 N 0.9447 0.24606 0.89847 0.0
C1324 C 0.0138 0.22291 0.90676 0.0
C1325 C 0.99764 0.21043 0.89344 0.0
C1326 C 0.01572 0.21163 0.91543 0.0
N1327 N 0.00495 0.22209 0.89597 0.0
C1328 C 0.99937 0.19884 0.90172 0.0
C1329 C 0.00851 0.19937 0.91289 0.0
H1330 H 0.01936 0.23236 0.90866 0.0
H1331 H 0.99039 0.21013 0.88502 0.0
C1332 C 0.97051 0.25447 0.84458 0.0
N1333 N 0.97209 0.24636 0.85585 0.0
C1334 C 0.959 0.25295 0.83611 0.0
C1335 C 0.95114 0.23451 0.85078 0.0
C1336 C 0.96277 0.23641 0.85898 0.0
C1337 C 0.94911 0.24287 0.83918 0.0
H1338 H 0.97824 0.26204 0.84207 0.0
H1339 H 0.96446 0.22981 0.86773 0.0
O1340 O 0.01625 0.25293 0.88769 0.0
O1341 O 0.99885 0.2659 0.86406 0.0
O1342 O 0.00299 0.23521 0.86406 0.0
O1343 O 0.98568 0.24852 0.88753 0.0
H1344 H 0.02721 0.277 0.89421 0.0
H1345 H 0.03617 0.23445 0.8861 0.0
H1346 H 0.05214 0.28125 0.89756 0.0
H1347 H 0.06095 0.23945 0.88945 0.0
H1348 H 0.96755 0.30037 0.86013 0.0
H1349 H 0.0152 0.28457 0.85286 0.0
H1350 H 0.9739 0.27653 0.86651 0.0
H1351 H 0.00812 0.30824 0.84658 0.0
H1352 H 0.05576 0.27666 0.85073 0.0
H1353 H 0.04632 0.23817 0.83051 0.0
H1354 H 0.98284 0.2876 0.92638 0.0
H1355 H 0.00434 0.31322 0.89702 0.0
H1356 H 0.98456 0.21773 0.85421 0.0
H1357 H 0.0262 0.22174 0.86861 0.0
H1358 H 0.98856 0.1928 0.85063 0.0
H1359 H 0.02948 0.19674 0.86485 0.0
H1360 H 0.97271 0.226 0.89564 0.0
H1361 H 0.96811 0.26934 0.88814 0.0
H1362 H 0.94805 0.22485 0.90203 0.0
H1363 H 0.94351 0.26743 0.8945 0.0
H1364 H 0.02289 0.21242 0.92392 0.0
H1365 H 0.99346 0.18965 0.89956 0.0
H1366 H 0.95799 0.25944 0.82712 0.0
H1367 H 0.94377 0.22662 0.85355 0.0
Li1368 Li 0.51389 0.75239 0.36756 0.0
Li1369 Li 0.49939 0.7636 0.38493 0.0
Li1370 Li 0.50297 0.7378 0.38467 0.0
Li1371 Li 0.48808 0.74892 0.36756 0.0
C1372 C 0.5303 0.75498 0.38985 0.0
N1373 N 0.55815 0.75946 0.39341 0.0
C1374 C 0.53508 0.76782 0.39425 0.0
C1375 C 0.53968 0.74437 0.38749 0.0
C1376 C 0.5492 0.76989 0.39593 0.0
C1377 C 0.55371 0.74685 0.38927 0.0
C1378 C 0.49555 0.77925 0.36116 0.0
C1379 C 0.47871 0.7973 0.35896 0.0
N1380 N 0.48868 0.80596 0.35434 0.0
C1381 C 0.50559 0.78827 0.35621 0.0
C1382 C 0.48197 0.78375 0.36239 0.0
C1383 C 0.50193 0.80175 0.35289 0.0
C1384 C 0.53237 0.74524 0.34628 0.0
N1385 N 0.52974 0.75471 0.35622 0.0
C1386 C 0.54972 0.76757 0.34988 0.0
C1387 C 0.53808 0.76578 0.35808 0.0
C1388 C 0.55276 0.75792 0.33956 0.0
C1389 C 0.54389 0.74662 0.33782 0.0
H1390 H 0.52546 0.73665 0.34483 0.0
H1391 H 0.53569 0.77327 0.36593 0.0
C1392 C 0.48941 0.77855 0.40779 0.0
N1393 N 0.49728 0.7795 0.39627 0.0
C1394 C 0.48754 0.78999 0.41626 0.0
C1395 C 0.50223 0.8031 0.40111 0.0
C1396 C 0.50377 0.79142 0.39291 0.0
C1397 C 0.49398 0.8025 0.41295 0.0
H1398 H 0.48463 0.76887 0.41044 0.0
H1399 H 0.51028 0.79183 0.38393 0.0
C1400 C 0.50455 0.72151 0.36215 0.0
N1401 N 0.50753 0.69353 0.35819 0.0
C1402 C 0.49338 0.71358 0.35778 0.0
C1403 C 0.5173 0.71524 0.36428 0.0
C1404 C 0.49508 0.69944 0.35589 0.0
C1405 C 0.51858 0.70108 0.36229 0.0
C1406 C 0.47224 0.74805 0.39152 0.0
C1407 C 0.46643 0.73584 0.3964 0.0
C1408 C 0.46413 0.75985 0.39054 0.0
C1409 C 0.4525 0.73556 0.3999 0.0
C1410 C 0.45024 0.75917 0.39414 0.0
N1411 N 0.44475 0.74713 0.39868 0.0
C1412 C 0.5151 0.72181 0.40569 0.0
C1413 C 0.49686 0.71073 0.3939 0.0
C1414 C 0.5171 0.71023 0.41394 0.0
N1415 N 0.50518 0.72181 0.39584 0.0
C1416 C 0.49851 0.69893 0.4019 0.0
C1417 C 0.50876 0.69856 0.41209 0.0
H1418 H 0.52142 0.73083 0.4072 0.0
H1419 H 0.48893 0.71103 0.38613 0.0
C1420 C 0.47094 0.75461 0.34479 0.0
N1421 N 0.47209 0.7468 0.35631 0.0
C1422 C 0.4594 0.75338 0.33631 0.0
C1423 C 0.4506 0.73583 0.35152 0.0
C1424 C 0.46229 0.73742 0.35971 0.0
C1425 C 0.44901 0.7439 0.33964 0.0
H1426 H 0.479 0.7618 0.34215 0.0
H1427 H 0.46364 0.73099 0.36864 0.0
O1428 O 0.51651 0.7528 0.388 0.0
O1429 O 0.49899 0.76602 0.36455 0.0
O1430 O 0.50304 0.73535 0.3642 0.0
O1431 O 0.48586 0.74847 0.38797 0.0
H1432 H 0.52798 0.7761 0.39628 0.0
H1433 H 0.53616 0.73432 0.38432 0.0
H1434 H 0.55303 0.7798 0.39924 0.0
H1435 H 0.56108 0.73875 0.3874 0.0
H1436 H 0.46824 0.80091 0.35991 0.0
H1437 H 0.51611 0.78494 0.355 0.0
H1438 H 0.47399 0.77681 0.36579 0.0
H1439 H 0.50962 0.80887 0.34915 0.0
H1440 H 0.55632 0.77636 0.35168 0.0
H1441 H 0.54569 0.73906 0.32985 0.0
H1442 H 0.4813 0.789 0.42543 0.0
H1443 H 0.50735 0.81254 0.39813 0.0
H1444 H 0.48349 0.71826 0.35592 0.0
H1445 H 0.5261 0.72124 0.36743 0.0
H1446 H 0.48649 0.69317 0.35259 0.0
H1447 H 0.52837 0.69609 0.36399 0.0
H1448 H 0.47257 0.72665 0.39742 0.0
H1449 H 0.46852 0.76948 0.38721 0.0
H1450 H 0.44785 0.72615 0.40358 0.0
H1451 H 0.44384 0.76822 0.39338 0.0
H1452 H 0.52496 0.71052 0.42183 0.0
H1453 H 0.49193 0.69014 0.40001 0.0
H1454 H 0.45859 0.75988 0.32731 0.0
H1455 H 0.44302 0.72816 0.35433 0.0
Li1456 Li 0.00289 0.76408 0.61649 0.0
Li1457 Li 0.98869 0.75273 0.63398 0.0
Li1458 Li 0.01446 0.74947 0.63389 0.0
Li1459 Li 0.99946 0.73835 0.6168 0.0
C1460 C 0.00773 0.77924 0.64106 0.0
N1461 N 0.01626 0.80492 0.64983 0.0
C1462 C 0.99817 0.7887 0.64611 0.0
C1463 C 0.02167 0.78276 0.64074 0.0
C1464 C 0.00267 0.80166 0.65041 0.0
C1465 C 0.02577 0.79581 0.64515 0.0
C1466 C 0.972 0.75551 0.61226 0.0
C1467 C 0.9485 0.74779 0.61415 0.0
N1468 N 0.94411 0.76037 0.6099 0.0
C1469 C 0.96727 0.76832 0.60779 0.0
C1470 C 0.96256 0.74512 0.61535 0.0
C1471 C 0.95313 0.77058 0.6067 0.0
C1472 C 0.01142 0.77866 0.59286 0.0
N1473 N 0.00472 0.77993 0.60506 0.0
C1474 C 1.00049 0.80375 0.60073 0.0
C1475 C 0.99913 0.79211 0.60901 0.0
C1476 C 0.00763 0.80283 0.5882 0.0
C1477 C 0.01309 0.79005 0.58428 0.0
H1478 H 0.01546 0.76878 0.58977 0.0
H1479 H 0.99346 0.79277 0.61853 0.0
C1480 C 0.97012 0.74542 0.65518 0.0
N1481 N 0.973 0.75508 0.64551 0.0
C1482 C 0.95866 0.74688 0.66371 0.0
C1483 C 0.95335 0.76822 0.65217 0.0
C1484 C 0.96497 0.7664 0.64396 0.0
C1485 C 0.95004 0.7584 0.66225 0.0
H1486 H 0.97678 0.73661 0.65634 0.0
H1487 H 0.96756 0.77401 0.6363 0.0
C1488 C 0.02976 0.75008 0.60884 0.0
N1489 N 0.05648 0.75209 0.59935 0.0
C1490 C 0.03609 0.73877 0.60265 0.0
C1491 C 0.03696 0.76248 0.61 0.0
C1492 C 0.04962 0.73996 0.59798 0.0
C1493 C 0.05046 0.76328 0.60519 0.0
C1494 C 0.99897 0.72181 0.63878 0.0
C1495 C 0.01078 0.71445 0.64232 0.0
C1496 C 0.98655 0.71484 0.63683 0.0
C1497 C 0.01001 0.70017 0.64364 0.0
C1498 C 0.98621 0.70054 0.63822 0.0
N1499 N 0.99785 0.69357 0.64156 0.0
C1500 C 0.02995 0.75292 0.65807 0.0
C1501 C 0.04156 0.74041 0.64069 0.0
C1502 C 0.04122 0.75162 0.66689 0.0
N1503 N 0.03036 0.74744 0.64522 0.0
C1504 C 0.05308 0.73893 0.64913 0.0
C1505 C 0.053 0.74457 0.66243 0.0
H1506 H 0.02085 0.75832 0.66147 0.0
H1507 H 0.04149 0.73573 0.63064 0.0
C1508 C 0.98674 0.72165 0.59662 0.0
N1509 N 0.99744 0.72237 0.60559 0.0
C1510 C 0.98497 0.71005 0.58833 0.0
C1511 C 0.00532 0.70017 0.59858 0.0
C1512 C 0.00672 0.71199 0.60662 0.0
C1513 C 0.99431 0.69907 0.58926 0.0
H1514 H 0.97963 0.73014 0.59581 0.0
H1515 H 0.01523 0.71287 0.61371 0.0
O1516 O 0.00348 0.76649 0.63684 0.0
O1517 O 0.98581 0.75316 0.61354 0.0
O1518 O 0.01653 0.74905 0.61351 0.0
O1519 O 0.99957 0.73579 0.63729 0.0
H1520 H 0.98738 0.78611 0.64661 0.0
H1521 H 0.02927 0.77545 0.6373 0.0
H1522 H 0.99536 0.80911 0.65423 0.0
H1523 H 0.03652 0.79866 0.64492 0.0
H1524 H 0.94108 0.73988 0.6166 0.0
H1525 H 0.97443 0.77644 0.60525 0.0
H1526 H 0.96604 0.73513 0.61871 0.0
H1527 H 0.94932 0.78047 0.60333 0.0
H1528 H 0.99613 0.81339 0.60417 0.0
H1529 H 0.01843 0.78882 0.57459 0.0
H1530 H 0.9567 0.73917 0.67149 0.0
H1531 H 0.94695 0.77717 0.65052 0.0
H1532 H 0.03065 0.72914 0.60152 0.0
H1533 H 0.03211 0.77145 0.61437 0.0
H1534 H 0.05467 0.73126 0.59325 0.0
H1535 H 0.05615 0.77281 0.60604 0.0
H1536 H 0.02046 0.71969 0.64394 0.0
H1537 H 0.97729 0.72038 0.63423 0.0
H1538 H 0.01909 0.69433 0.64629 0.0
H1539 H 0.97668 0.695 0.63666 0.0
H1540 H 0.04076 0.75617 0.67705 0.0
H1541 H 0.06184 0.73318 0.64539 0.0
H1542 H 0.97648 0.70979 0.58112 0.0
H1543 H 0.0127 0.69193 0.59976 0.0
Li1544 Li 0.50262 0.26444 0.11689 0.0
Li1545 Li 0.48825 0.25298 0.13425 0.0
Li1546 Li 0.51399 0.24962 0.13422 0.0
Li1547 Li 0.49908 0.23873 0.11704 0.0
C1548 C 0.50736 0.27933 0.14179 0.0
N1549 N 0.51592 0.30483 0.15103 0.0
C1550 C 0.49795 0.28838 0.1478 0.0
C1551 C 0.52116 0.28318 0.14072 0.0
C1552 C 0.50246 0.30125 0.15233 0.0
C1553 C 0.52528 0.29613 0.14539 0.0
C1554 C 0.47182 0.2567 0.11251 0.0
C1555 C 0.44795 0.25009 0.1138 0.0
N1556 N 0.44424 0.26307 0.11015 0.0
C1557 C 0.46778 0.26994 0.10865 0.0
C1558 C 0.46184 0.24666 0.11498 0.0
C1559 C 0.45379 0.27296 0.10755 0.0
C1560 C 0.51012 0.27852 0.09272 0.0
N1561 N 0.50468 0.28029 0.10548 0.0
C1562 C 0.50227 0.30443 0.10156 0.0
C1563 C 0.50061 0.29289 0.10993 0.0
C1564 C 0.50804 0.30298 0.08839 0.0
C1565 C 0.51193 0.28978 0.08398 0.0
H1566 H 0.51305 0.26835 0.08934 0.0
H1567 H 0.49594 0.29401 0.11992 0.0
C1568 C 0.46924 0.24519 0.15486 0.0
N1569 N 0.47246 0.25523 0.14569 0.0
C1570 C 0.45767 0.24648 0.16327 0.0
C1571 C 0.45299 0.26847 0.1527 0.0
C1572 C 0.46468 0.26678 0.14456 0.0
C1573 C 0.44935 0.25823 0.16222 0.0
H1574 H 0.47566 0.23617 0.15567 0.0
H1575 H 0.46757 0.27471 0.13733 0.0
C1576 C 0.52958 0.25039 0.10958 0.0
N1577 N 0.55654 0.25236 0.10079 0.0
C1578 C 0.53633 0.23884 0.10434 0.0
C1579 C 0.53646 0.263 0.11008 0.0
C1580 C 0.54999 0.24003 0.10003 0.0
C1581 C 0.5501 0.26378 0.10566 0.0
C1582 C 0.49784 0.22201 0.13871 0.0
C1583 C 0.50914 0.21413 0.14274 0.0
C1584 C 0.48528 0.21556 0.13597 0.0
C1585 C 0.50775 0.19986 0.14373 0.0
C1586 C 0.48431 0.20127 0.13706 0.0
N1587 N 0.49547 0.19378 0.14087 0.0
C1588 C 0.53058 0.25421 0.15763 0.0
C1589 C 0.54019 0.2388 0.14141 0.0
C1590 C 0.54208 0.25286 0.16613 0.0
N1591 N 0.52993 0.24737 0.14545 0.0
C1592 C 0.55186 0.23709 0.14961 0.0
C1593 C 0.55295 0.24422 0.16214 0.0
H1594 H 0.52216 0.26074 0.16076 0.0
H1595 H 0.53922 0.23308 0.13195 0.0
C1596 C 0.48634 0.22208 0.0968 0.0
N1597 N 0.49705 0.2228 0.10576 0.0
C1598 C 0.48451 0.21042 0.08859 0.0
C1599 C 0.50483 0.20053 0.0989 0.0
C1600 C 0.50629 0.21239 0.10686 0.0
C1601 C 0.49381 0.19941 0.0896 0.0
H1602 H 0.47924 0.23057 0.09599 0.0
H1603 H 0.51475 0.21324 0.11402 0.0
O1604 O 0.50307 0.2667 0.13726 0.0
O1605 O 0.48548 0.2536 0.11379 0.0
O1606 O 0.51619 0.24938 0.11384 0.0
O1607 O 0.49905 0.23598 0.1375 0.0
H1608 H 0.48726 0.28554 0.14889 0.0
H1609 H 0.52867 0.27617 0.13652 0.0
H1610 H 0.49527 0.30839 0.15691 0.0
H1611 H 0.53594 0.29923 0.14459 0.0
H1612 H 0.44011 0.24244 0.11578 0.0
H1613 H 0.47536 0.27782 0.10661 0.0
H1614 H 0.46478 0.23634 0.11786 0.0
H1615 H 0.45051 0.28318 0.10465 0.0
H1616 H 0.49919 0.31439 0.10545 0.0
H1617 H 0.51617 0.28811 0.07383 0.0
H1618 H 0.45519 0.2383 0.1704 0.0
H1619 H 0.44699 0.27778 0.1517 0.0
H1620 H 0.53113 0.22904 0.10368 0.0
H1621 H 0.5313 0.27214 0.11366 0.0
H1622 H 0.55536 0.23114 0.09607 0.0
H1623 H 0.55555 0.27347 0.10604 0.0
H1624 H 0.5189 0.21895 0.145 0.0
H1625 H 0.4764 0.22152 0.13296 0.0
H1626 H 0.51644 0.19362 0.14675 0.0
H1627 H 0.47468 0.19614 0.13487 0.0
H1628 H 0.5425 0.25863 0.17564 0.0
H1629 H 0.55981 0.23006 0.14627 0.0
H1630 H 0.47601 0.21013 0.08141 0.0
H1631 H 0.51216 0.19226 0.10015 0.0
H1632 H 0.24963 0.75866 0.84382 0.0
H1633 H 0.25295 0.77307 0.86419 0.0
H1634 H 0.20915 0.77904 0.8672 0.0
H1635 H 0.20567 0.76441 0.84702 0.0
H1636 H 0.22566 0.80373 0.86921 0.0
H1637 H 0.24301 0.76227 0.90451 0.0
H1638 H 0.25187 0.76324 0.88831 0.0
H1639 H 0.23395 0.75877 0.88866 0.0
C1640 C 0.24068 0.76289 0.8489 0.0
C1641 C 0.22737 0.76032 0.8438 0.0
C1642 C 0.24261 0.77115 0.86051 0.0
C1643 C 0.23128 0.77698 0.86726 0.0
C1644 C 0.21801 0.7746 0.86213 0.0
H1645 H 0.22642 0.81645 0.94708 0.0
H1646 H 0.22344 0.80164 0.92695 0.0
C1647 C 0.21606 0.76631 0.85055 0.0
C1648 C 0.23327 0.78573 0.87956 0.0
H1649 H 0.24425 0.7851 0.91292 0.0
C1650 C 0.22972 0.79968 0.87877 0.0
C1651 C 0.23844 0.78034 0.89204 0.0
C1652 C 0.24195 0.76531 0.89355 0.0
C1653 C 0.23139 0.80846 0.89012 0.0
C1654 C 0.23682 0.80314 0.9025 0.0
C1655 C 0.24019 0.78915 0.90336 0.0
C1656 C 0.23891 0.81193 0.91475 0.0
C1657 C 0.22717 0.82333 0.88884 0.0
C1658 C 0.24876 0.82247 0.9146 0.0
C1659 C 0.25061 0.83087 0.92612 0.0
C1660 C 0.24262 0.82889 0.93803 0.0
C1661 C 0.23287 0.81818 0.93817 0.0
C1662 C 0.23108 0.80975 0.92665 0.0
H1663 H 0.22062 0.82513 0.87965 0.0
H1664 H 0.22148 0.82671 0.89815 0.0
H1665 H 0.23651 0.82983 0.8879 0.0
H1666 H 0.25506 0.82416 0.90557 0.0
H1667 H 0.25839 0.83883 0.92574 0.0
H1668 H 0.03033 0.5251 0.42051 0.0
H1669 H 0.04511 0.52199 0.40038 0.0
H1670 H 0.0093 0.52042 0.37424 0.0
H1671 H 0.99447 0.52342 0.39433 0.0
H1672 H 0.02764 0.50013 0.36821 0.0
H1673 H 0.05436 0.55045 0.37132 0.0
H1674 H 0.0556 0.5405 0.3868 0.0
H1675 H 0.0391 0.54663 0.38116 0.0
C1676 C 0.02562 0.52422 0.41046 0.0
C1677 C 0.01124 0.52456 0.409 0.0
C1678 C 0.03407 0.52247 0.39896 0.0
C1679 C 0.02832 0.5212 0.38578 0.0
C1680 C 0.01396 0.52141 0.38431 0.0
H1681 H 0.07188 0.52918 0.30828 0.0
H1682 H 0.05677 0.53205 0.32816 0.0
C1683 C 0.0055 0.52308 0.3958 0.0
C1684 C 0.03721 0.51939 0.37353 0.0
H1685 H 0.06331 0.53427 0.35534 0.0
C1686 C 0.03541 0.50761 0.36536 0.0
C1687 C 0.04722 0.52926 0.36973 0.0
C1688 C 0.04912 0.54249 0.37762 0.0
C1689 C 0.04346 0.50534 0.3536 0.0
C1690 C 0.0538 0.51497 0.35008 0.0
C1691 C 0.05548 0.52684 0.35814 0.0
C1692 C 0.06285 0.51304 0.33796 0.0
C1693 C 0.04063 0.49278 0.34492 0.0
C1694 C 0.07138 0.50146 0.33693 0.0
C1695 C 0.07991 0.4997 0.3255 0.0
C1696 C 0.08019 0.50957 0.31492 0.0
C1697 C 0.07175 0.52126 0.3161 0.0
C1698 C 0.06319 0.52297 0.32751 0.0
H1699 H 0.03014 0.48864 0.34676 0.0
H1700 H 0.04173 0.49512 0.3338 0.0
H1701 H 0.04812 0.48461 0.34761 0.0
H1702 H 0.0715 0.49379 0.345 0.0
H1703 H 0.08617 0.49052 0.32489 0.0
H1704 H 0.75301 0.73864 0.84014 0.0
H1705 H 0.7496 0.72401 0.86034 0.0
H1706 H 0.79322 0.72461 0.86821 0.0
H1707 H 0.7967 0.73952 0.84827 0.0
H1708 H 0.76116 0.69782 0.8658 0.0
H1709 H 0.77633 0.73633 0.9052 0.0
H1710 H 0.77217 0.74101 0.88772 0.0
H1711 H 0.78871 0.73383 0.89173 0.0
C1712 C 0.76186 0.73578 0.84626 0.0
C1713 C 0.77512 0.74031 0.84263 0.0
C1714 C 0.7599 0.72735 0.85774 0.0
C1715 C 0.77113 0.72339 0.86587 0.0
C1716 C 0.78439 0.72774 0.8622 0.0
H1717 H 0.78201 0.67373 0.9389 0.0
H1718 H 0.78488 0.68811 0.9185 0.0
C1719 C 0.78637 0.73614 0.85071 0.0
C1720 C 0.76902 0.71451 0.87806 0.0
H1721 H 0.77299 0.71344 0.91293 0.0
C1722 C 0.76367 0.70124 0.87612 0.0
C1723 C 0.77233 0.71902 0.89149 0.0
C1724 C 0.77759 0.73336 0.89424 0.0
C1725 C 0.76183 0.69222 0.88724 0.0
C1726 C 0.76518 0.69672 0.90068 0.0
C1727 C 0.77046 0.71002 0.90262 0.0
C1728 C 0.76336 0.68777 0.91288 0.0
C1729 C 0.75665 0.67786 0.88447 0.0
C1730 C 0.75028 0.6829 0.91656 0.0
C1731 C 0.74861 0.67458 0.92816 0.0
C1732 C 0.76 0.67103 0.93636 0.0
C1733 C 0.77306 0.67606 0.9327 0.0
C1734 C 0.77471 0.68436 0.9211 0.0
H1735 H 0.758 0.6749 0.87351 0.0
H1736 H 0.76205 0.67023 0.89102 0.0
H1737 H 0.74551 0.67735 0.88688 0.0
H1738 H 0.74133 0.68562 0.91052 0.0
H1739 H 0.73843 0.67081 0.93062 0.0
H1740 H 0.00728 0.98055 0.39383 0.0
H1741 H 0.9922 0.98386 0.37396 0.0
H1742 H 0.9567 0.97749 0.39972 0.0
H1743 H 0.97168 0.97451 0.41973 0.0
H1744 H 0.97268 0.96501 0.36322 0.0
H1745 H 0.9482 0.01388 0.37975 0.0
H1746 H 0.96384 0.00746 0.38743 0.0
H1747 H 0.94751 1.00022 0.39216 0.0
C1748 C 0.99626 0.98003 0.39531 0.0
C1749 C 0.99068 0.97733 0.40838 0.0
C1750 C 0.98767 0.98184 0.38393 0.0
C1751 C 0.97334 0.98109 0.38541 0.0
C1752 C 0.96772 0.97832 0.39841 0.0
H1753 H 0.90474 0.98851 0.3287 0.0
H1754 H 0.91951 0.98531 0.34882 0.0
C1755 C 0.97631 0.97648 0.40979 0.0
C1756 C 0.96431 0.98285 0.37327 0.0
H1757 H 0.93907 0.00319 0.35984 0.0
C1758 C 0.96536 0.97338 0.36243 0.0
C1759 C 0.95475 0.99376 0.37234 0.0
C1760 C 0.95354 0.0045 0.38347 0.0
C1761 C 0.95696 0.9744 0.35074 0.0
C1762 C 0.94745 0.98535 0.34976 0.0
C1763 C 0.94637 0.9948 0.36063 0.0
C1764 C 0.93856 0.98724 0.33752 0.0
C1765 C 0.95813 0.96359 0.33967 0.0
C1766 C 0.94438 0.98956 0.32452 0.0
C1767 C 0.93598 0.99143 0.31301 0.0
C1768 C 0.92158 0.99112 0.3143 0.0
C1769 C 0.91578 0.98893 0.32737 0.0
C1770 C 0.9242 0.98704 0.33887 0.0
H1771 H 0.96309 0.95407 0.34357 0.0
H1772 H 0.94787 0.96089 0.33544 0.0
H1773 H 0.96454 0.96764 0.33114 0.0
H1774 H 0.95544 0.99008 0.32331 0.0
H1775 H 0.94077 0.99334 0.30315 0.0
H1776 H 0.20458 0.23758 0.6542 0.0
H1777 H 0.20814 0.22235 0.63452 0.0
H1778 H 0.25202 0.22734 0.63856 0.0
H1779 H 0.24859 0.24216 0.65857 0.0
H1780 H 0.22094 0.22807 0.60984 0.0
H1781 H 0.24782 0.18571 0.63697 0.0
H1782 H 0.23862 0.19906 0.64599 0.0
H1783 H 0.25559 0.20229 0.6394 0.0
C1784 C 0.215 0.23528 0.65105 0.0
C1785 C 0.2263 0.24104 0.65803 0.0
C1786 C 0.21701 0.22664 0.63973 0.0
C1787 C 0.23034 0.22354 0.6352 0.0
C1788 C 0.24164 0.22938 0.64204 0.0
H1789 H 0.26315 0.17648 0.56675 0.0
H1790 H 0.25989 0.1915 0.58672 0.0
C1791 C 0.23965 0.23799 0.65338 0.0
C1792 C 0.23239 0.21452 0.62308 0.0
H1793 H 0.24736 0.18455 0.61257 0.0
C1794 C 0.22666 0.21852 0.61045 0.0
C1795 C 0.23987 0.20208 0.6239 0.0
C1796 C 0.24573 0.19693 0.63731 0.0
C1797 C 0.22839 0.21052 0.59856 0.0
C1798 C 0.23589 0.19811 0.59938 0.0
C1799 C 0.24164 0.1941 0.61199 0.0
C1800 C 0.23779 0.18907 0.58727 0.0
C1801 C 0.22239 0.21552 0.58515 0.0
C1802 C 0.22645 0.18263 0.58109 0.0
C1803 C 0.22826 0.17408 0.56968 0.0
C1804 C 0.24147 0.17179 0.56426 0.0
C1805 C 0.25283 0.17818 0.57057 0.0
C1806 C 0.251 0.18669 0.58201 0.0
H1807 H 0.21979 0.22664 0.58556 0.0
H1808 H 0.22967 0.21377 0.57654 0.0
H1809 H 0.21282 0.20972 0.58292 0.0
H1810 H 0.21619 0.18418 0.58512 0.0
H1811 H 0.2193 0.16939 0.565 0.0
H1812 H 0.47315 0.52446 0.58139 0.0
H1813 H 0.45835 0.52151 0.60153 0.0
H1814 H 0.49397 0.52274 0.62796 0.0
H1815 H 0.50883 0.52551 0.60785 0.0
H1816 H 0.47672 0.50209 0.6349 0.0
H1817 H 0.44732 0.55054 0.62916 0.0
H1818 H 0.44661 0.53981 0.61416 0.0
H1819 H 0.46278 0.54708 0.61952 0.0
C1820 C 0.4778 0.52422 0.59151 0.0
C1821 C 0.49214 0.52527 0.59305 0.0
C1822 C 0.46934 0.52257 0.60301 0.0
C1823 C 0.47503 0.52216 0.61627 0.0
C1824 C 0.48935 0.52308 0.61782 0.0
H1825 H 0.42921 0.53111 0.69245 0.0
H1826 H 0.44461 0.53406 0.67283 0.0
C1827 C 0.49783 0.52462 0.60633 0.0
C1828 C 0.46611 0.52044 0.62853 0.0
H1829 H 0.43887 0.53451 0.64561 0.0
C1830 C 0.46848 0.50921 0.63728 0.0
C1831 C 0.45549 0.52985 0.63173 0.0
C1832 C 0.45296 0.54257 0.62323 0.0
C1833 C 0.46039 0.50701 0.64902 0.0
C1834 C 0.44942 0.5161 0.65192 0.0
C1835 C 0.44719 0.52746 0.6433 0.0
C1836 C 0.44022 0.51413 0.66393 0.0
C1837 C 0.46386 0.4951 0.65835 0.0
C1838 C 0.43254 0.502 0.66539 0.0
C1839 C 0.42387 0.50019 0.67671 0.0
C1840 C 0.42256 0.51057 0.68672 0.0
C1841 C 0.43013 0.5228 0.6851 0.0
C1842 C 0.43886 0.52456 0.67382 0.0
H1843 H 0.47467 0.4917 0.65696 0.0
H1844 H 0.46228 0.49785 0.66932 0.0
H1845 H 0.45706 0.48627 0.65585 0.0
H1846 H 0.43319 0.49393 0.65774 0.0
H1847 H 0.4183 0.49059 0.67767 0.0
H1848 H 0.76681 0.2442 0.64554 0.0
H1849 H 0.7634 0.25936 0.62577 0.0
H1850 H 0.77779 0.29387 0.64964 0.0
H1851 H 0.78103 0.27884 0.66955 0.0
H1852 H 0.74668 0.28359 0.62403 0.0
H1853 H 0.80199 0.29457 0.61461 0.0
H1854 H 0.79625 0.28036 0.6251 0.0
H1855 H 0.79618 0.29753 0.6319 0.0
C1856 C 0.76914 0.25503 0.64664 0.0
C1857 C 0.77424 0.26029 0.65913 0.0
C1858 C 0.76726 0.26366 0.63531 0.0
C1859 C 0.77053 0.27768 0.6362 0.0
C1860 C 0.77547 0.28301 0.64867 0.0
H1861 H 0.76818 0.34551 0.57817 0.0
H1862 H 0.77087 0.33087 0.59846 0.0
C1863 C 0.77733 0.2744 0.66002 0.0
C1864 C 0.76859 0.28675 0.62413 0.0
H1865 H 0.7859 0.30703 0.6013 0.0
C1866 C 0.75524 0.2887 0.61902 0.0
C1867 C 0.77979 0.29341 0.61768 0.0
C1868 C 0.79439 0.29132 0.62249 0.0
C1869 C 0.75276 0.29731 0.6077 0.0
C1870 C 0.76398 0.3039 0.60117 0.0
C1871 C 0.77732 0.30197 0.60633 0.0
C1872 C 0.76213 0.31276 0.58891 0.0
C1873 C 0.73813 0.2995 0.60304 0.0
C1874 C 0.75647 0.30739 0.57676 0.0
C1875 C 0.75492 0.31572 0.56515 0.0
C1876 C 0.75915 0.32955 0.56543 0.0
C1877 C 0.76494 0.33486 0.57759 0.0
C1878 C 0.76643 0.32654 0.5892 0.0
H1879 H 0.73064 0.29693 0.61128 0.0
H1880 H 0.73643 0.31031 0.59979 0.0
H1881 H 0.73596 0.29271 0.59412 0.0
H1882 H 0.7534 0.2967 0.57619 0.0
H1883 H 0.75066 0.31126 0.55588 0.0
H1884 H 0.51201 0.99912 0.59165 0.0
H1885 H 0.52698 0.00224 0.61166 0.0
H1886 H 0.52929 0.95828 0.61683 0.0
H1887 H 0.51422 0.95505 0.59696 0.0
H1888 H 0.52249 0.99311 0.63892 0.0
H1889 H 0.56986 0.9704 0.61662 0.0
H1890 H 0.5554 0.97558 0.60619 0.0
H1891 H 0.55488 0.95963 0.61549 0.0
C1892 C 0.51564 0.99011 0.59708 0.0
C1893 C 0.51195 0.97683 0.59266 0.0
C1894 C 0.52425 0.99192 0.60846 0.0
C1895 C 0.52939 0.98049 0.61559 0.0
C1896 C 0.52567 0.96723 0.61129 0.0
H1897 H 0.58099 0.96881 0.6873 0.0
H1898 H 0.56617 0.96609 0.66715 0.0
C1899 C 0.51706 0.96541 0.59991 0.0
C1900 C 0.53834 0.98245 0.62777 0.0
H1901 H 0.57032 0.97552 0.64048 0.0
C1902 C 0.53297 0.98934 0.63926 0.0
C1903 C 0.55199 0.97748 0.62816 0.0
C1904 C 0.55845 0.97046 0.61593 0.0
C1905 C 0.54081 0.99114 0.65126 0.0
C1906 C 0.55447 0.98616 0.65165 0.0
C1907 C 0.55984 0.97931 0.64015 0.0
C1908 C 0.56335 0.98791 0.66393 0.0
C1909 C 0.53428 0.99806 0.66351 0.0
C1910 C 0.56679 0.00108 0.66872 0.0
C1911 C 0.57516 0.00268 0.6803 0.0
C1912 C 0.58034 0.99112 0.68727 0.0
C1913 C 0.577 0.97793 0.68233 0.0
C1914 C 0.56862 0.97635 0.67075 0.0
H1915 H 0.52288 0.99796 0.66283 0.0
H1916 H 0.53741 0.99298 0.67324 0.0
H1917 H 0.53769 0.00894 0.66394 0.0
H1918 H 0.56304 0.01015 0.66346 0.0
H1919 H 0.57743 0.01298 0.68388 0.0
H1920 H 0.84762 0.20418 0.76325 0.0
H1921 H 0.86735 0.20768 0.77847 0.0
H1922 H 0.86156 0.25157 0.77613 0.0
H1923 H 0.84153 0.24816 0.7613 0.0
H1924 H 0.89149 0.2221 0.77309 0.0
H1925 H 0.86376 0.24477 0.81753 0.0
H1926 H 0.85501 0.23589 0.80376 0.0
H1927 H 0.86068 0.25334 0.80148 0.0
C1928 C 0.85041 0.21458 0.76614 0.0
C1929 C 0.84294 0.22589 0.76111 0.0
C1930 C 0.86175 0.21656 0.77475 0.0
C1931 C 0.8658 0.22987 0.77858 0.0
C1932 C 0.85845 0.24119 0.77351 0.0
H1933 H 0.93297 0.26275 0.82752 0.0
H1934 H 0.91299 0.25954 0.81252 0.0
C1935 C 0.84711 0.23923 0.76489 0.0
C1936 C 0.87794 0.2319 0.78758 0.0
H1937 H 0.88815 0.24527 0.81843 0.0
C1938 C 0.89076 0.2271 0.78304 0.0
C1939 C 0.87694 0.23847 0.80053 0.0
C1940 C 0.86335 0.24331 0.8062 0.0
C1941 C 0.90267 0.22888 0.791 0.0
C1942 C 0.90167 0.23544 0.80395 0.0
C1943 C 0.88887 0.24027 0.80849 0.0
C1944 C 0.9138 0.23732 0.81297 0.0
C1945 C 0.91626 0.22396 0.78539 0.0
C1946 C 0.92077 0.22588 0.81831 0.0
C1947 C 0.93221 0.22768 0.82683 0.0
C1948 C 0.93687 0.24096 0.83022 0.0
C1949 C 0.92976 0.25239 0.82495 0.0
C1950 C 0.9183 0.25058 0.81645 0.0
H1951 H 0.91584 0.2223 0.77409 0.0
H1952 H 0.92458 0.23145 0.7877 0.0
H1953 H 0.91897 0.21404 0.79031 0.0
H1954 H 0.91733 0.21556 0.81591 0.0
H1955 H 0.93751 0.21866 0.83062 0.0
H1956 H 0.49906 0.9121 0.48787 0.0
H1957 H 0.50229 0.89214 0.47286 0.0
H1958 H 0.45889 0.8833 0.47504 0.0
H1959 H 0.45557 0.9032 0.49006 0.0
H1960 H 0.49659 0.86467 0.4782 0.0
H1961 H 0.46611 0.88329 0.43371 0.0
H1962 H 0.47159 0.8945 0.44747 0.0
H1963 H 0.4569 0.88348 0.4497 0.0
C1964 C 0.49021 0.90588 0.48519 0.0
C1965 C 0.47704 0.90928 0.49011 0.0
C1966 C 0.49207 0.89452 0.47657 0.0
C1967 C 0.4808 0.88638 0.47266 0.0
C1968 C 0.46767 0.88965 0.47765 0.0
H1969 H 0.47031 0.81174 0.42503 0.0
H1970 H 0.46742 0.83195 0.43977 0.0
C1971 C 0.46579 0.90102 0.48624 0.0
C1972 C 0.48285 0.87421 0.4637 0.0
H1973 H 0.47318 0.85992 0.43309 0.0
C1974 C 0.49154 0.86366 0.46829 0.0
C1975 C 0.47624 0.87293 0.4508 0.0
C1976 C 0.46728 0.8842 0.44504 0.0
C1977 C 0.49359 0.85171 0.46045 0.0
C1978 C 0.48691 0.85039 0.4476 0.0
C1979 C 0.47825 0.86096 0.44298 0.0
C1980 C 0.48877 0.83812 0.43877 0.0
C1981 C 0.50263 0.84046 0.46611 0.0
C1982 C 0.50171 0.83499 0.43324 0.0
C1983 C 0.50341 0.82343 0.42486 0.0
C1984 C 0.49218 0.81481 0.42183 0.0
C1985 C 0.4792 0.81805 0.42732 0.0
C1986 C 0.47751 0.82964 0.43567 0.0
H1987 H 0.50432 0.84161 0.47736 0.0
H1988 H 0.49807 0.83018 0.46411 0.0
H1989 H 0.5128 0.84088 0.46096 0.0
H1990 H 0.51049 0.84152 0.43535 0.0
H1991 H 0.51355 0.82117 0.42088 0.0
H1992 H 0.1449 0.26785 0.7451 0.0
H1993 H 0.12516 0.26451 0.76031 0.0
H1994 H 0.14994 0.27621 0.79519 0.0
H1995 H 0.1698 0.27941 0.78009 0.0
H1996 H 0.12272 0.24679 0.78347 0.0
H1997 H 0.11618 0.30173 0.79774 0.0
H1998 H 0.12638 0.29634 0.7832 0.0
H1999 H 0.13316 0.29496 0.80033 0.0
C2000 C 0.1462 0.2696 0.75602 0.0
C2001 C 0.15893 0.27395 0.76137 0.0
C2002 C 0.13488 0.26776 0.76468 0.0
C2003 C 0.13605 0.27031 0.77883 0.0
C2004 C 0.14876 0.27447 0.78425 0.0
H2005 H 0.07849 0.26634 0.84707 0.0
H2006 H 0.09879 0.26905 0.83244 0.0
C2007 C 0.16009 0.2763 0.7756 0.0
C2008 C 0.12399 0.26843 0.78794 0.0
H2009 H 0.10224 0.28559 0.80948 0.0
C2010 C 0.1182 0.25527 0.78914 0.0
C2011 C 0.11817 0.27952 0.79533 0.0
C2012 C 0.12369 0.29397 0.79404 0.0
C2013 C 0.10684 0.25284 0.7977 0.0
C2014 C 0.10095 0.26394 0.80503 0.0
C2015 C 0.10678 0.2771 0.80386 0.0
C2016 C 0.08866 0.26217 0.81386 0.0
C2017 C 0.10141 0.23836 0.79904 0.0
C2018 C 0.07618 0.25758 0.80821 0.0
C2019 C 0.06457 0.25605 0.81653 0.0
C2020 C 0.06517 0.2592 0.83064 0.0
C2021 C 0.07765 0.26395 0.83622 0.0
C2022 C 0.08927 0.26544 0.8279 0.0
H2023 H 0.1092 0.23063 0.79589 0.0
H2024 H 0.09819 0.23615 0.80977 0.0
H2025 H 0.09231 0.23711 0.79226 0.0
H2026 H 0.07539 0.25533 0.79733 0.0
H2027 H 0.05505 0.25262 0.81186 0.0
H2028 H 0.54726 0.59723 0.48809 0.0
H2029 H 0.54378 0.61714 0.47314 0.0
H2030 H 0.49997 0.61044 0.4743 0.0
H2031 H 0.50334 0.59042 0.48914 0.0
H2032 H 0.53073 0.61832 0.4471 0.0
H2033 H 0.5042 0.65101 0.48569 0.0
H2034 H 0.51381 0.63585 0.49038 0.0
H2035 H 0.49681 0.63424 0.4833 0.0
C2036 C 0.53689 0.59991 0.48509 0.0
C2037 C 0.52557 0.59225 0.48986 0.0
C2038 C 0.53492 0.61134 0.4766 0.0
C2039 C 0.52161 0.61537 0.47279 0.0
C2040 C 0.5103 0.60766 0.47737 0.0
H2041 H 0.48889 0.682 0.4233 0.0
H2042 H 0.49211 0.6615 0.43748 0.0
C2043 C 0.51226 0.59623 0.48586 0.0
C2044 C 0.51959 0.62753 0.46385 0.0
H2045 H 0.50505 0.65945 0.46286 0.0
C2046 C 0.52516 0.62734 0.45054 0.0
C2047 C 0.51229 0.63925 0.46838 0.0
C2048 C 0.50652 0.64022 0.48275 0.0
C2049 C 0.52344 0.63849 0.44154 0.0
C2050 C 0.51618 0.65024 0.44609 0.0
C2051 C 0.51059 0.65042 0.4594 0.0
C2052 C 0.51433 0.66251 0.43725 0.0
C2053 C 0.52915 0.63747 0.42715 0.0
C2054 C 0.52576 0.66995 0.43252 0.0
C2055 C 0.52396 0.68161 0.42432 0.0
C2056 C 0.51069 0.68612 0.42077 0.0
C2057 C 0.49926 0.6787 0.42564 0.0
C2058 C 0.50107 0.66703 0.43383 0.0
H2059 H 0.53107 0.62662 0.42413 0.0
H2060 H 0.52204 0.64217 0.41957 0.0
H2061 H 0.53909 0.64307 0.42667 0.0
H2062 H 0.53608 0.66679 0.43525 0.0
H2063 H 0.53299 0.68702 0.42066 0.0
H2064 H 0.85617 0.76384 0.75605 0.0
H2065 H 0.87596 0.7604 0.74103 0.0
H2066 H 0.85533 0.78242 0.70856 0.0
H2067 H 0.83516 0.78525 0.72324 0.0
H2068 H 0.86753 0.75962 0.69897 0.0
H2069 H 0.90451 0.78877 0.73114 0.0
H2070 H 0.89636 0.77497 0.74028 0.0
H2071 H 0.88621 0.78917 0.73416 0.0
C2072 C 0.85575 0.76783 0.74567 0.0
C2073 C 0.84405 0.77489 0.7409 0.0
C2074 C 0.86718 0.76603 0.73715 0.0
C2075 C 0.86726 0.77141 0.72377 0.0
C2076 C 0.85555 0.77829 0.7189 0.0
H2077 H 0.93996 0.78235 0.67324 0.0
H2078 H 0.91957 0.78536 0.68753 0.0
C2079 C 0.84407 0.78001 0.72737 0.0
C2080 C 0.87943 0.76968 0.71473 0.0
H2081 H 0.91395 0.7758 0.71267 0.0
C2082 C 0.87768 0.7632 0.70193 0.0
C2083 C 0.89262 0.77454 0.71852 0.0
C2084 C 0.89504 0.78237 0.73171 0.0
C2085 C 0.88877 0.76131 0.6929 0.0
C2086 C 0.90207 0.76568 0.69693 0.0
C2087 C 0.90379 0.77231 0.70965 0.0
C2088 C 0.91431 0.76374 0.68802 0.0
C2089 C 0.88606 0.75492 0.67901 0.0
C2090 C 0.91822 0.75057 0.68362 0.0
C2091 C 0.92976 0.74883 0.67523 0.0
C2092 C 0.93776 0.76021 0.67122 0.0
C2093 C 0.93392 0.77337 0.67586 0.0
C2094 C 0.92232 0.77511 0.68416 0.0
H2095 H 0.87509 0.75592 0.67598 0.0
H2096 H 0.89253 0.75973 0.67092 0.0
H2097 H 0.88853 0.74379 0.67945 0.0
H2098 H 0.91239 0.7416 0.68673 0.0
H2099 H 0.93231 0.73856 0.67178 0.0
H2100 H 0.00311 0.91308 0.51409 0.0
H2101 H 0.99967 0.89322 0.52917 0.0
H2102 H 0.04242 0.88239 0.52467 0.0
H2103 H 0.04594 0.90223 0.50963 0.0
H2104 H 0.00352 0.86565 0.52369 0.0
H2105 H 0.03766 0.88248 0.56621 0.0
H2106 H 0.03209 0.89398 0.55276 0.0
H2107 H 0.04599 0.88217 0.54975 0.0
C2108 C 0.01177 0.90645 0.51629 0.0
C2109 C 0.02482 0.90928 0.51073 0.0
C2110 C 0.0098 0.89514 0.52494 0.0
C2111 C 0.02084 0.88647 0.52823 0.0
C2112 C 0.03384 0.88915 0.52256 0.0
H2113 H 0.03068 0.81098 0.57428 0.0
H2114 H 0.03346 0.83117 0.55952 0.0
C2115 C 0.03583 0.90049 0.51395 0.0
C2116 C 0.01869 0.87439 0.53728 0.0
H2117 H 0.02959 0.85939 0.56709 0.0
C2118 C 0.00915 0.86432 0.53323 0.0
C2119 C 0.02604 0.87268 0.54972 0.0
C2120 C 0.03592 0.88346 0.55496 0.0
C2121 C 0.00699 0.85244 0.54113 0.0
C2122 C 0.01445 0.85068 0.55348 0.0
C2123 C 0.02393 0.86076 0.55758 0.0
C2124 C 0.01262 0.83839 0.56229 0.0
C2125 C 0.99698 0.84171 0.53605 0.0
C2126 C 1.00001 0.83585 0.56882 0.0
C2127 C 0.99837 0.82431 0.57722 0.0
C2128 C 0.00934 0.81511 0.57927 0.0
C2129 C 0.02198 0.81775 0.57276 0.0
C2130 C 0.02362 0.82932 0.5644 0.0
H2131 H 0.99446 0.84311 0.525 0.0
H2132 H 0.00118 0.8312 0.53755 0.0
H2133 H 0.98728 0.84249 0.54201 0.0
H2134 H 0.99146 0.84284 0.56747 0.0
H2135 H 0.98848 0.82251 0.58201 0.0
H2136 H 0.16234 0.74893 0.73796 0.0
H2137 H 0.14225 0.75241 0.72321 0.0
H2138 H 0.13094 0.70983 0.72832 0.0
H2139 H 0.15105 0.70625 0.743 0.0
H2140 H 0.12948 0.71798 0.70158 0.0
H2141 H 0.10232 0.75534 0.73498 0.0
H2142 H 0.11953 0.76047 0.73072 0.0
H2143 H 0.11674 0.74531 0.74093 0.0
C2144 C 0.1555 0.74034 0.73605 0.0
C2145 C 0.15826 0.72732 0.74168 0.0
C2146 C 0.14401 0.74236 0.72764 0.0
C2147 C 0.13497 0.73144 0.72485 0.0
C2148 C 0.13776 0.71841 0.73038 0.0
H2149 H 0.05307 0.73782 0.68973 0.0
H2150 H 0.07301 0.73453 0.70474 0.0
C2151 C 0.14928 0.71637 0.73872 0.0
C2152 C 0.12279 0.73348 0.7159 0.0
H2153 H 0.09332 0.75222 0.71244 0.0
C2154 C 0.12155 0.72544 0.70397 0.0
C2155 C 0.11235 0.74308 0.71914 0.0
C2156 C 0.11269 0.75145 0.7322 0.0
C2157 C 0.11025 0.72685 0.69509 0.0
C2158 C 0.10007 0.7368 0.69806 0.0
C2159 C 0.10121 0.74471 0.7101 0.0
C2160 C 0.08804 0.73901 0.68895 0.0
C2161 C 0.10921 0.71747 0.68276 0.0
C2162 C 0.08986 0.74284 0.67515 0.0
C2163 C 0.07849 0.74468 0.66655 0.0
C2164 C 0.06507 0.7429 0.67164 0.0
C2165 C 0.06327 0.73936 0.68554 0.0
C2166 C 0.07465 0.73744 0.69411 0.0
H2167 H 0.11556 0.70808 0.68407 0.0
H2168 H 0.0984 0.71432 0.68086 0.0
H2169 H 0.113 0.72299 0.67352 0.0
H2170 H 0.10008 0.74447 0.67104 0.0
H2171 H 0.08019 0.74763 0.65595 0.0
H2172 H 1.00021 0.5911 0.51185 0.0
H2173 H 0.00352 0.61109 0.52679 0.0
H2174 H 0.9596 0.61605 0.52997 0.0
H2175 H 0.95616 0.59623 0.51487 0.0
H2176 H 0.99379 0.63849 0.52242 0.0
H2177 H 0.97288 0.6156 0.57039 0.0
H2178 H 0.97798 0.60531 0.5558 0.0
H2179 H 0.96183 0.61424 0.55563 0.0
C2180 C 0.99124 0.59648 0.51566 0.0
C2181 C 0.97791 0.59202 0.51219 0.0
C2182 C 0.99316 0.60786 0.52425 0.0
C2183 C 0.98181 0.61492 0.52963 0.0
C2184 C 0.9685 0.61056 0.52615 0.0
H2185 H 0.9704 0.68585 0.58224 0.0
H2186 H 0.96767 0.66569 0.56745 0.0
C2187 C 0.96656 0.59922 0.51754 0.0
C2188 C 0.98387 0.62708 0.53857 0.0
H2189 H 0.97777 0.63949 0.57084 0.0
C2190 C 0.99036 0.63871 0.53303 0.0
C2191 C 0.97934 0.62731 0.55238 0.0
C2192 C 0.97272 0.61492 0.55898 0.0
C2193 C 0.99219 0.65071 0.54086 0.0
C2194 C 0.98766 0.65095 0.55469 0.0
C2195 C 0.98122 0.63928 0.56024 0.0
C2196 C 0.98942 0.66324 0.56356 0.0
C2197 C 0.9986 0.66314 0.53412 0.0
C2198 C 0.00258 0.66846 0.56641 0.0
C2199 C 0.00417 0.68008 0.57473 0.0
C2200 C 0.99264 0.68663 0.58049 0.0
C2201 C 0.97949 0.68122 0.57779 0.0
C2202 C 0.97791 0.66963 0.56942 0.0
H2203 H 0.99802 0.66253 0.52272 0.0
H2204 H 0.9935 0.67276 0.53754 0.0
H2205 H 0.00962 0.66373 0.53704 0.0
H2206 H 0.01163 0.66353 0.56222 0.0
H2207 H 0.01444 0.68402 0.5765 0.0
H2208 H 0.76105 0.84175 0.24893 0.0
H2209 H 0.77567 0.86199 0.25219 0.0
H2210 H 0.77754 0.86777 0.20827 0.0
H2211 H 0.76255 0.84785 0.20492 0.0
H2212 H 0.80221 0.86675 0.24246 0.0
H2213 H 0.76576 0.90562 0.22213 0.0
H2214 H 0.7605 0.88839 0.22661 0.0
H2215 H 0.76904 0.89163 0.21054 0.0
C2216 C 0.76442 0.84743 0.23997 0.0
C2217 C 0.76056 0.84322 0.22666 0.0
C2218 C 0.77285 0.85894 0.24185 0.0
C2219 C 0.77752 0.8665 0.23049 0.0
C2220 C 0.77385 0.86223 0.2172 0.0
H2221 H 0.83033 0.93737 0.21917 0.0
H2222 H 0.81573 0.91705 0.21637 0.0
C2223 C 0.76541 0.85074 0.2153 0.0
C2224 C 0.78645 0.8787 0.23253 0.0
H2225 H 0.78858 0.91321 0.22646 0.0
C2226 C 0.79921 0.87693 0.23904 0.0
C2227 C 0.7825 0.89195 0.22805 0.0
C2228 C 0.76865 0.89459 0.22155 0.0
C2229 C 0.80826 0.88803 0.24094 0.0
C2230 C 0.80434 0.90126 0.23638 0.0
C2231 C 0.79156 0.90304 0.22991 0.0
C2232 C 0.81336 0.91342 0.23818 0.0
C2233 C 0.82207 0.88547 0.24753 0.0
C2234 C 0.81675 0.91817 0.25138 0.0
C2235 C 0.82513 0.92974 0.25302 0.0
C2236 C 0.83024 0.93681 0.24148 0.0
C2237 C 0.82674 0.93205 0.22827 0.0
C2238 C 0.81833 0.9205 0.22664 0.0
H2239 H 0.8248 0.87438 0.24746 0.0
H2240 H 0.83028 0.89132 0.24218 0.0
H2241 H 0.82176 0.88896 0.25839 0.0
H2242 H 0.81284 0.91297 0.26042 0.0
H2243 H 0.82771 0.93309 0.26333 0.0
H2244 H 0.76236 0.16091 0.25254 0.0
H2245 H 0.77707 0.14078 0.24918 0.0
H2246 H 0.77696 0.13333 0.29289 0.0
H2247 H 0.76193 0.15318 0.29631 0.0
H2248 H 0.8033 0.13565 0.26034 0.0
H2249 H 0.7655 0.09607 0.27666 0.0
H2250 H 0.76057 0.11347 0.27247 0.0
H2251 H 0.76812 0.10966 0.28891 0.0
C2252 C 0.76533 0.15489 0.26143 0.0
C2253 C 0.76091 0.15861 0.27469 0.0
C2254 C 0.7738 0.14345 0.25949 0.0
C2255 C 0.77793 0.13546 0.27076 0.0
C2256 C 0.77369 0.13922 0.28403 0.0
H2257 H 0.82869 0.0632 0.28168 0.0
H2258 H 0.81419 0.08352 0.28459 0.0
C2259 C 0.76523 0.15066 0.28597 0.0
C2260 C 0.7869 0.12333 0.26867 0.0
H2261 H 0.78842 0.08855 0.27312 0.0
C2262 C 0.80004 0.12534 0.26306 0.0
C2263 C 0.7826 0.10991 0.27225 0.0
C2264 C 0.76839 0.10707 0.2778 0.0
C2265 C 0.80913 0.11429 0.2612 0.0
C2266 C 0.80485 0.10086 0.26482 0.0
C2267 C 0.79168 0.09886 0.27038 0.0
C2268 C 0.81387 0.08874 0.26297 0.0
C2269 C 0.82335 0.11713 0.25568 0.0
C2270 C 0.8184 0.08487 0.24983 0.0
C2271 C 0.82678 0.07333 0.24814 0.0
C2272 C 0.83072 0.06536 0.25956 0.0
C2273 C 0.82605 0.06922 0.2727 0.0
C2274 C 0.81768 0.08077 0.27437 0.0
H2275 H 0.82622 0.12814 0.25678 0.0
H2276 H 0.83116 0.11078 0.26105 0.0
H2277 H 0.82365 0.11451 0.24458 0.0
H2278 H 0.81538 0.09073 0.24086 0.0
H2279 H 0.83027 0.07071 0.23789 0.0
H2280 H 0.41186 0.98759 0.9992 0.0
H2281 H 0.39159 0.97296 0.00234 0.0
H2282 H 0.38134 0.97773 0.95947 0.0
H2283 H 0.40143 0.99258 0.95629 0.0
H2284 H 0.35888 0.98167 0.97821 0.0
H2285 H 0.38725 0.93301 0.98776 0.0
H2286 H 0.39237 0.94739 0.99822 0.0
H2287 H 0.39522 0.94788 0.97998 0.0
C2288 C 0.40525 0.98559 0.99046 0.0
C2289 C 0.40828 0.99121 0.97748 0.0
C2290 C 0.39375 0.97713 0.99225 0.0
C2291 C 0.38508 0.97414 0.9811 0.0
C2292 C 0.38797 0.97985 0.96818 0.0
H2293 H 0.32182 0.91182 0.9737 0.0
H2294 H 0.34189 0.92671 0.97086 0.0
C2295 C 0.39949 0.98825 0.96636 0.0
C2296 C 0.37288 0.96521 0.98293 0.0
H2297 H 0.36309 0.93241 0.99076 0.0
C2298 C 0.35978 0.9709 0.98095 0.0
C2299 C 0.37413 0.95114 0.98637 0.0
C2300 C 0.38799 0.94441 0.98811 0.0
C2301 C 0.34784 0.9629 0.98249 0.0
C2302 C 0.34909 0.9489 0.98619 0.0
C2303 C 0.36219 0.94318 0.98801 0.0
C2304 C 0.33689 0.93996 0.98801 0.0
C2305 C 0.33401 0.96942 0.97992 0.0
C2306 C 0.32752 0.94241 0.99868 0.0
C2307 C 0.31609 0.93385 1.00042 0.0
C2308 C 0.31384 0.92265 0.99152 0.0
C2309 C 0.32332 0.92023 0.98085 0.0
C2310 C 0.33476 0.92877 0.97916 0.0
H2311 H 0.33495 0.97933 0.97432 0.0
H2312 H 0.32728 0.96241 0.9739 0.0
H2313 H 0.32891 0.97145 0.98992 0.0
H2314 H 0.32913 0.95086 0.00576 0.0
H2315 H 0.30915 0.93587 0.00888 0.0
H2316 H 0.23818 0.33988 0.25274 0.0
H2317 H 0.2234 0.35998 0.24936 0.0
H2318 H 0.22646 0.36957 0.29255 0.0
H2319 H 0.24147 0.34969 0.29597 0.0
H2320 H 0.19776 0.36593 0.26268 0.0
H2321 H 0.23743 0.40578 0.27303 0.0
H2322 H 0.24174 0.38814 0.26915 0.0
H2323 H 0.23585 0.39275 0.28604 0.0
C2324 C 0.23582 0.34635 0.26149 0.0
C2325 C 0.24105 0.34323 0.27461 0.0
C2326 C 0.22731 0.35777 0.25955 0.0
C2327 C 0.22399 0.36634 0.27067 0.0
C2328 C 0.22907 0.36319 0.2838 0.0
H2329 H 0.17598 0.44048 0.28119 0.0
H2330 H 0.19036 0.4201 0.2841 0.0
C2331 C 0.23753 0.35176 0.28576 0.0
C2332 C 0.21504 0.37846 0.26858 0.0
H2333 H 0.21445 0.41349 0.27075 0.0
C2334 C 0.2014 0.37634 0.26437 0.0
C2335 C 0.21984 0.392 0.27084 0.0
C2336 C 0.23454 0.39488 0.2749 0.0
C2337 C 0.19232 0.38742 0.26263 0.0
C2338 C 0.19712 0.40098 0.26489 0.0
C2339 C 0.21079 0.40308 0.26904 0.0
C2340 C 0.18813 0.41315 0.26308 0.0
C2341 C 0.17758 0.38448 0.25874 0.0
C2342 C 0.18219 0.41607 0.25025 0.0
C2343 C 0.17385 0.42765 0.24858 0.0
C2344 C 0.17137 0.4366 0.25968 0.0
C2345 C 0.17747 0.43369 0.27248 0.0
C2346 C 0.18578 0.4221 0.27414 0.0
H2347 H 0.17467 0.37367 0.26103 0.0
H2348 H 0.17042 0.39143 0.26428 0.0
H2349 H 0.17625 0.38616 0.24754 0.0
H2350 H 0.18409 0.40945 0.2415 0.0
H2351 H 0.16924 0.42951 0.23862 0.0
H2352 H 0.09818 0.01332 0.45405 0.0
H2353 H 0.11811 0.02832 0.45746 0.0
H2354 H 0.11269 0.02577 0.50138 0.0
H2355 H 0.09264 0.01091 0.4981 0.0
H2356 H 0.11933 0.05403 0.47144 0.0
H2357 H 0.15329 0.01496 0.49554 0.0
H2358 H 0.13793 0.01041 0.48614 0.0
H2359 H 0.13669 0.01681 0.50343 0.0
C2360 C 0.10116 0.01603 0.46444 0.0
C2361 C 0.09383 0.01087 0.47581 0.0
C2362 C 0.11259 0.02454 0.46636 0.0
C2363 C 0.11698 0.02799 0.47967 0.0
C2364 C 0.10963 0.023 0.49103 0.0
H2365 H 0.18411 0.077 0.51234 0.0
H2366 H 0.1637 0.06263 0.50913 0.0
C2367 C 0.09819 0.01449 0.48913 0.0
C2368 C 0.12911 0.03701 0.48164 0.0
H2369 H 0.16146 0.03791 0.49525 0.0
C2370 C 0.12857 0.05052 0.4766 0.0
C2371 C 0.1411 0.03238 0.48841 0.0
C2372 C 0.1424 0.01782 0.4936 0.0
C2373 C 0.13967 0.05961 0.47835 0.0
C2374 C 0.1517 0.05496 0.48507 0.0
C2375 C 0.15222 0.04145 0.49012 0.0
C2376 C 0.16391 0.06392 0.48693 0.0
C2377 C 0.13827 0.0742 0.47326 0.0
C2378 C 0.17087 0.06931 0.4755 0.0
C2379 C 0.18246 0.07763 0.47729 0.0
C2380 C 0.1874 0.08064 0.49057 0.0
C2381 C 0.18046 0.07509 0.50199 0.0
C2382 C 0.16886 0.06679 0.50018 0.0
H2383 H 0.12733 0.07713 0.47185 0.0
H2384 H 0.14314 0.08157 0.48051 0.0
H2385 H 0.14349 0.07516 0.46316 0.0
H2386 H 0.16739 0.067 0.46517 0.0
H2387 H 0.18748 0.08181 0.46828 0.0
H2388 H 0.75667 0.1435 0.73094 0.0
H2389 H 0.74153 0.12368 0.73431 0.0
H2390 H 0.70609 0.14955 0.72816 0.0
H2391 H 0.72115 0.16944 0.72478 0.0
H2392 H 0.72112 0.11962 0.75385 0.0
H2393 H 0.69929 0.11819 0.7011 0.0
H2394 H 0.71437 0.12813 0.70541 0.0
H2395 H 0.69754 0.13448 0.7096 0.0
C2396 C 0.74565 0.14499 0.73037 0.0
C2397 C 0.74011 0.15804 0.72753 0.0
C2398 C 0.73702 0.13364 0.73225 0.0
C2399 C 0.7227 0.1351 0.73127 0.0
C2400 C 0.71712 0.14814 0.72863 0.0
H2401 H 0.6541 0.07862 0.74116 0.0
H2402 H 0.66879 0.09885 0.73819 0.0
C2403 C 0.72574 0.15949 0.72671 0.0
C2404 C 0.71362 0.12301 0.7333 0.0
H2405 H 0.68918 0.10327 0.71754 0.0
C2406 C 0.71417 0.116 0.7459 0.0
C2407 C 0.70456 0.11834 0.7229 0.0
C2408 C 0.70395 0.12508 0.70894 0.0
C2409 C 0.70577 0.10454 0.74846 0.0
C2410 C 0.69672 0.09988 0.73807 0.0
C2411 C 0.69612 0.10691 0.72549 0.0
C2412 C 0.68788 0.08761 0.73999 0.0
C2413 C 0.70646 0.09766 0.76234 0.0
C2414 C 0.69377 0.07458 0.74182 0.0
C2415 C 0.68542 0.06299 0.74341 0.0
C2416 C 0.671 0.0642 0.74316 0.0
C2417 C 0.66515 0.07729 0.74125 0.0
C2418 C 0.67352 0.08887 0.73963 0.0
H2419 H 0.71134 0.10439 0.77019 0.0
H2420 H 0.69603 0.09475 0.76597 0.0
H2421 H 0.71268 0.08814 0.7615 0.0
H2422 H 0.70484 0.07336 0.74184 0.0
H2423 H 0.69027 0.05305 0.7446 0.0
H2424 H 0.41971 0.02989 0.52988 0.0
H2425 H 0.39963 0.04476 0.52694 0.0
H2426 H 0.37468 0.00935 0.51733 0.0
H2427 H 0.39458 0.99437 0.52064 0.0
H2428 H 0.38308 0.04802 0.50341 0.0
H2429 H 0.35271 0.02867 0.54771 0.0
H2430 H 0.37085 0.02526 0.54578 0.0
H2431 H 0.35846 0.01553 0.53608 0.0
C2432 C 0.40991 0.02525 0.52731 0.0
C2433 C 0.40873 0.01093 0.52556 0.0
C2434 C 0.39848 0.03377 0.52555 0.0
C2435 C 0.38564 0.02813 0.52211 0.0
C2436 C 0.38445 0.01388 0.52022 0.0
H2437 H 0.30467 0.0614 0.50555 0.0
H2438 H 0.32484 0.04676 0.50883 0.0
C2439 C 0.39587 0.00535 0.52196 0.0
C2440 C 0.37356 0.0372 0.52021 0.0
H2441 H 0.3413 0.04379 0.53235 0.0
C2442 C 0.37397 0.04716 0.50978 0.0
C2443 C 0.36168 0.03602 0.52852 0.0
C2444 C 0.36089 0.02588 0.54024 0.0
C2445 C 0.3627 0.05581 0.50725 0.0
C2446 C 0.35081 0.05461 0.51555 0.0
C2447 C 0.35042 0.04467 0.526 0.0
C2448 C 0.33865 0.06356 0.51355 0.0
C2449 C 0.36349 0.06594 0.49553 0.0
C2450 C 0.33971 0.07784 0.5153 0.0
C2451 C 0.32819 0.08624 0.51349 0.0
C2452 C 0.31537 0.08049 0.50998 0.0
C2453 C 0.31434 0.06615 0.50838 0.0
C2454 C 0.32587 0.05777 0.51019 0.0
H2455 H 0.37171 0.06319 0.48809 0.0
H2456 H 0.35354 0.0665 0.48994 0.0
H2457 H 0.36583 0.0763 0.49968 0.0
H2458 H 0.34941 0.08249 0.51821 0.0
H2459 H 0.32929 0.09721 0.51504 0.0
H2460 H 0.59365 0.49115 0.50262 0.0
H2461 H 0.61361 0.47619 0.49947 0.0
H2462 H 0.6176 0.4721 0.54343 0.0
H2463 H 0.59782 0.48723 0.54671 0.0
H2464 H 0.64091 0.48019 0.51009 0.0
H2465 H 0.61692 0.43194 0.52914 0.0
H2466 H 0.60694 0.44672 0.52403 0.0
H2467 H 0.61541 0.44649 0.54044 0.0
C2468 C 0.59882 0.48715 0.51163 0.0
C2469 C 0.59408 0.49037 0.52492 0.0
C2470 C 0.61017 0.47855 0.5098 0.0
C2471 C 0.61694 0.47291 0.52121 0.0
C2472 C 0.61233 0.47614 0.53449 0.0
H2473 H 0.68695 0.41908 0.53267 0.0
H2474 H 0.66703 0.43415 0.53548 0.0
C2475 C 0.60101 0.48477 0.53633 0.0
C2476 C 0.62905 0.4639 0.51925 0.0
H2477 H 0.64087 0.43133 0.52472 0.0
C2478 C 0.6409 0.46949 0.51321 0.0
C2479 C 0.62899 0.44997 0.5234 0.0
C2480 C 0.61636 0.44335 0.52951 0.0
C2481 C 0.65283 0.46157 0.51146 0.0
C2482 C 0.65278 0.44761 0.51558 0.0
C2483 C 0.64089 0.44203 0.52158 0.0
C2484 C 0.66495 0.43863 0.51379 0.0
C2485 C 0.66549 0.46831 0.50553 0.0
C2486 C 0.6703 0.43604 0.50065 0.0
C2487 C 0.68176 0.42754 0.49901 0.0
C2488 C 0.68804 0.42137 0.51049 0.0
C2489 C 0.68252 0.42385 0.52363 0.0
C2490 C 0.67108 0.43237 0.52525 0.0
H2491 H 0.66504 0.4797 0.50642 0.0
H2492 H 0.67495 0.46463 0.51076 0.0
H2493 H 0.66629 0.46569 0.49445 0.0
H2494 H 0.66557 0.44054 0.49163 0.0
H2495 H 0.68579 0.42595 0.48876 0.0
H2496 H 0.70496 0.2651 0.34605 0.0
H2497 H 0.70832 0.28031 0.36579 0.0
H2498 H 0.75211 0.27381 0.3635 0.0
H2499 H 0.74891 0.25907 0.34339 0.0
H2500 H 0.71966 0.27444 0.39087 0.0
H2501 H 0.74972 0.31542 0.36493 0.0
H2502 H 0.74048 0.30235 0.35552 0.0
H2503 H 0.75697 0.29857 0.36299 0.0
C2504 C 0.71533 0.26708 0.34959 0.0
C2505 C 0.72667 0.26092 0.34306 0.0
C2506 C 0.71722 0.2757 0.36094 0.0
C2507 C 0.73048 0.27837 0.36598 0.0
C2508 C 0.74181 0.27213 0.35961 0.0
H2509 H 0.76251 0.32368 0.43597 0.0
H2510 H 0.75931 0.30883 0.41586 0.0
C2511 C 0.73994 0.26355 0.34822 0.0
C2512 C 0.73239 0.28737 0.37816 0.0
H2513 H 0.74837 0.31662 0.38932 0.0
C2514 C 0.72588 0.2837 0.39051 0.0
C2515 C 0.74051 0.29944 0.37767 0.0
C2516 C 0.74722 0.30428 0.36454 0.0
C2517 C 0.72745 0.29167 0.40245 0.0
C2518 C 0.73562 0.30369 0.40197 0.0
C2519 C 0.74214 0.30736 0.38964 0.0
C2520 C 0.73747 0.31264 0.41415 0.0
C2521 C 0.72056 0.28705 0.41556 0.0
C2522 C 0.72627 0.31978 0.41974 0.0
C2523 C 0.72805 0.32825 0.43122 0.0
C2524 C 0.74109 0.32972 0.43732 0.0
C2525 C 0.75231 0.32261 0.43162 0.0
C2526 C 0.75052 0.3142 0.4201 0.0
H2527 H 0.71726 0.27612 0.41502 0.0
H2528 H 0.72756 0.28836 0.4245 0.0
H2529 H 0.7113 0.29345 0.41739 0.0
H2530 H 0.71615 0.31885 0.41518 0.0
H2531 H 0.71919 0.3335 0.43543 0.0
H2532 H 0.53 0.02772 0.92059 0.0
H2533 H 0.54483 0.02464 0.90049 0.0
H2534 H 0.50915 0.01736 0.87516 0.0
H2535 H 0.49423 0.0208 0.8951 0.0
H2536 H 0.54697 0.00137 0.88315 0.0
H2537 H 0.53007 0.04762 0.85431 0.0
H2538 H 0.52656 0.04528 0.87238 0.0
H2539 H 0.51635 0.03649 0.85971 0.0
C2540 C 0.52529 0.02562 0.91071 0.0
C2541 C 0.51092 0.02457 0.90944 0.0
C2542 C 0.53379 0.02378 0.89926 0.0
C2543 C 0.52807 0.02096 0.88631 0.0
C2544 C 0.51375 0.01976 0.88502 0.0
H2545 H 0.56083 0.00579 0.80484 0.0
H2546 H 0.54629 0.00903 0.82511 0.0
C2547 C 0.50525 0.02157 0.89646 0.0
C2548 C 0.5371 0.01902 0.8742 0.0
H2549 H 0.54449 0.03197 0.84242 0.0
C2550 C 0.5465 0.00809 0.87426 0.0
C2551 C 0.53642 0.02781 0.86263 0.0
C2552 C 0.5269 0.04004 0.86224 0.0
C2553 C 0.55506 0.00553 0.86293 0.0
C2554 C 0.55436 0.01429 0.85134 0.0
C2555 C 0.54498 0.02525 0.8513 0.0
C2556 C 0.56325 0.01228 0.83914 0.0
C2557 C 0.56455 0.99327 0.86331 0.0
C2558 C 0.57761 0.01322 0.84028 0.0
C2559 C 0.58594 0.01143 0.82872 0.0
C2560 C 0.58008 0.00877 0.81575 0.0
C2561 C 0.56568 0.00797 0.81463 0.0
C2562 C 0.55735 0.00975 0.82621 0.0
H2563 H 0.56135 0.98569 0.87124 0.0
H2564 H 0.56488 0.98804 0.85317 0.0
H2565 H 0.5751 0.99678 0.86586 0.0
H2566 H 0.58236 0.01548 0.8501 0.0
H2567 H 0.59698 0.01236 0.82989 0.0
H2568 H 0.26869 0.25709 0.35654 0.0
H2569 H 0.26531 0.2419 0.3763 0.0
H2570 H 0.27798 0.20715 0.35188 0.0
H2571 H 0.28121 0.22221 0.332 0.0
H2572 H 0.24787 0.21837 0.37839 0.0
H2573 H 0.3029 0.20523 0.38625 0.0
H2574 H 0.29747 0.21966 0.37592 0.0
H2575 H 0.29654 0.20251 0.36911 0.0
C2576 C 0.27066 0.2462 0.35533 0.0
C2577 C 0.27527 0.24088 0.34269 0.0
C2578 C 0.26879 0.23756 0.36665 0.0
C2579 C 0.27158 0.22345 0.3656 0.0
C2580 C 0.27604 0.21806 0.35298 0.0
H2581 H 0.26776 0.15525 0.42316 0.0
H2582 H 0.27058 0.16993 0.40291 0.0
C2583 C 0.27789 0.22669 0.34164 0.0
C2584 C 0.26961 0.21436 0.37765 0.0
H2585 H 0.28668 0.19321 0.39985 0.0
C2586 C 0.25635 0.2129 0.38312 0.0
C2587 C 0.2807 0.2072 0.38375 0.0
C2588 C 0.29524 0.20877 0.37856 0.0
C2589 C 0.25382 0.2043 0.39444 0.0
C2590 C 0.26493 0.19721 0.40061 0.0
C2591 C 0.27819 0.19865 0.39509 0.0
C2592 C 0.26304 0.18834 0.41286 0.0
C2593 C 0.23925 0.20267 0.39951 0.0
C2594 C 0.25803 0.19386 0.42521 0.0
C2595 C 0.25642 0.18551 0.43679 0.0
C2596 C 0.25993 0.17149 0.43628 0.0
C2597 C 0.26509 0.16603 0.42392 0.0
C2598 C 0.26665 0.17439 0.41233 0.0
H2599 H 0.23164 0.20563 0.39152 0.0
H2600 H 0.23718 0.1919 0.4027 0.0
H2601 H 0.23766 0.20944 0.40856 0.0
H2602 H 0.25552 0.20468 0.42595 0.0
H2603 H 0.25267 0.19009 0.44622 0.0
H2604 H 0.50735 0.47867 0.89257 0.0
H2605 H 0.49213 0.48204 0.87278 0.0
H2606 H 0.45678 0.47914 0.89935 0.0
H2607 H 0.47192 0.47595 0.91924 0.0
H2608 H 0.47036 0.46342 0.86383 0.0
H2609 H 0.45125 0.51558 0.87732 0.0
H2610 H 0.46677 0.50846 0.88462 0.0
H2611 H 0.45026 0.50285 0.8907 0.0
C2612 C 0.49634 0.4789 0.89422 0.0
C2613 C 0.49083 0.47709 0.90747 0.0
C2614 C 0.48767 0.48075 0.88291 0.0
C2615 C 0.47336 0.48098 0.88465 0.0
C2616 C 0.46781 0.47916 0.89784 0.0
H2617 H 0.40469 0.49267 0.82864 0.0
H2618 H 0.41945 0.48934 0.84877 0.0
C2619 C 0.47647 0.47723 0.90915 0.0
C2620 C 0.46424 0.48277 0.8726 0.0
H2621 H 0.44104 0.50473 0.8581 0.0
C2622 C 0.46396 0.47245 0.86253 0.0
C2623 C 0.45587 0.49454 0.87103 0.0
C2624 C 0.45606 0.50607 0.88141 0.0
C2625 C 0.45539 0.4735 0.85096 0.0
C2626 C 0.44714 0.48536 0.84927 0.0
C2627 C 0.44738 0.49565 0.8594 0.0
C2628 C 0.43824 0.48733 0.83704 0.0
C2629 C 0.45503 0.46174 0.84083 0.0
C2630 C 0.44393 0.4875 0.82378 0.0
C2631 C 0.43552 0.48935 0.81227 0.0
C2632 C 0.42128 0.49126 0.81381 0.0
C2633 C 0.41564 0.49132 0.82712 0.0
C2634 C 0.42404 0.48937 0.83862 0.0
H2635 H 0.4587 0.45201 0.84555 0.0
H2636 H 0.44448 0.46007 0.83679 0.0
H2637 H 0.46189 0.46416 0.83204 0.0
H2638 H 0.4549 0.48633 0.82232 0.0
H2639 H 0.44021 0.48952 0.80217 0.0
H2640 H 0.74907 0.74091 0.15959 0.0
H2641 H 0.75235 0.72634 0.13934 0.0
H2642 H 0.7084 0.72266 0.1347 0.0
H2643 H 0.70502 0.73762 0.15461 0.0
H2644 H 0.74372 0.69951 0.13485 0.0
H2645 H 0.72058 0.73479 0.09648 0.0
H2646 H 0.72526 0.74032 0.11358 0.0
H2647 H 0.70953 0.73099 0.11076 0.0
C2648 C 0.7401 0.73715 0.15416 0.0
C2649 C 0.72678 0.74051 0.15868 0.0
C2650 C 0.742 0.72875 0.14264 0.0
C2651 C 0.73063 0.7236 0.13539 0.0
C2652 C 0.71732 0.72674 0.13999 0.0
H2653 H 0.71966 0.66983 0.06516 0.0
H2654 H 0.71678 0.68438 0.0855 0.0
C2655 C 0.71541 0.73516 0.15148 0.0
C2656 C 0.73269 0.71472 0.12316 0.0
H2657 H 0.72567 0.71215 0.08884 0.0
C2658 C 0.73985 0.7023 0.12477 0.0
C2659 C 0.72762 0.7184 0.11003 0.0
C2660 C 0.72043 0.73191 0.10753 0.0
C2661 C 0.74184 0.69332 0.11364 0.0
C2662 C 0.73669 0.69696 0.10054 0.0
C2663 C 0.72957 0.70939 0.09892 0.0
C2664 C 0.73854 0.68799 0.08837 0.0
C2665 C 0.74917 0.67987 0.11604 0.0
C2666 C 0.75173 0.68531 0.08318 0.0
C2667 C 0.75342 0.67698 0.07159 0.0
C2668 C 0.74193 0.67118 0.06496 0.0
C2669 C 0.72872 0.67397 0.07015 0.0
C2670 C 0.72705 0.68234 0.08171 0.0
H2671 H 0.74963 0.67719 0.12713 0.0
H2672 H 0.744 0.67136 0.11041 0.0
H2673 H 0.75986 0.68069 0.11215 0.0
H2674 H 0.76072 0.68975 0.08806 0.0
H2675 H 0.76373 0.67496 0.0679 0.0
H2676 H 0.9899 0.04631 0.09838 0.0
H2677 H 0.97478 0.04287 0.11819 0.0
H2678 H 0.97479 0.99916 0.11076 0.0
H2679 H 0.9898 0.0025 0.09085 0.0
H2680 H 0.94841 0.03056 0.11888 0.0
H2681 H 0.98581 0.00234 0.15152 0.0
H2682 H 0.99095 0.01206 0.13657 0.0
H2683 H 0.98337 0.99531 0.13461 0.0
C2684 C 0.98662 0.03596 0.1009 0.0
C2685 C 0.9911 0.02467 0.09305 0.0
C2686 C 0.97804 0.03402 0.11226 0.0
C2687 C 0.97384 0.02075 0.11605 0.0
C2688 C 0.97816 0.00946 0.10818 0.0
H2689 H 0.92267 0.98857 0.18177 0.0
H2690 H 0.93713 0.99162 0.16142 0.0
C2691 C 0.98674 0.01139 0.09681 0.0
C2692 C 0.96471 0.01878 0.12808 0.0
H2693 H 0.96294 0.00377 0.15976 0.0
C2694 C 0.95158 0.02475 0.12784 0.0
C2695 C 0.96889 0.01115 0.13973 0.0
C2696 C 0.98306 0.00493 0.14074 0.0
C2697 C 0.94243 0.02313 0.13888 0.0
C2698 C 0.94663 0.01556 0.15057 0.0
C2699 C 0.95975 0.00955 0.15078 0.0
C2700 C 0.93762 0.01381 0.16274 0.0
C2701 C 0.92824 0.02929 0.13781 0.0
C2702 C 0.9332 0.02528 0.17029 0.0
C2703 C 0.92485 0.02359 0.18186 0.0
C2704 C 0.92082 0.01037 0.18616 0.0
C2705 C 0.92538 0.9989 0.17862 0.0
C2706 C 0.93373 1.00061 0.16705 0.0
H2707 H 0.92537 0.03145 0.12696 0.0
H2708 H 0.92038 0.02235 0.14235 0.0
H2709 H 0.92801 0.03916 0.14354 0.0
H2710 H 0.9363 0.03555 0.1673 0.0
H2711 H 0.92144 0.03265 0.18736 0.0
H2712 H 0.27133 0.74385 0.14379 0.0
H2713 H 0.26797 0.75883 0.12386 0.0
H2714 H 0.27405 0.79447 0.14956 0.0
H2715 H 0.2774 0.77957 0.16955 0.0
H2716 H 0.24844 0.77931 0.11963 0.0
H2717 H 0.30129 0.80091 0.11826 0.0
H2718 H 0.2969 0.7859 0.12824 0.0
H2719 H 0.29278 0.80278 0.13453 0.0
C2720 C 0.27187 0.75488 0.14522 0.0
C2721 C 0.27469 0.76052 0.15824 0.0
C2722 C 0.27001 0.76341 0.13381 0.0
C2723 C 0.27098 0.77774 0.13519 0.0
C2724 C 0.27358 0.78343 0.14821 0.0
H2725 H 0.2621 0.84625 0.07869 0.0
H2726 H 0.26496 0.83149 0.09886 0.0
C2727 C 0.27549 0.7749 0.15961 0.0
C2728 C 0.26903 0.78674 0.12304 0.0
H2729 H 0.28493 0.81102 0.10327 0.0
C2730 C 0.25643 0.78621 0.11601 0.0
C2731 C 0.27947 0.79573 0.11837 0.0
C2732 C 0.29342 0.79631 0.12515 0.0
C2733 C 0.25391 0.79459 0.10453 0.0
C2734 C 0.26436 0.80358 0.09986 0.0
C2735 C 0.27694 0.80413 0.10691 0.0
C2736 C 0.26247 0.81245 0.08762 0.0
C2737 C 0.24001 0.79396 0.09767 0.0
C2738 C 0.26029 0.80662 0.0746 0.0
C2739 C 0.25872 0.81501 0.06305 0.0
C2740 C 0.25939 0.82941 0.06428 0.0
C2741 C 0.26167 0.83521 0.07735 0.0
C2742 C 0.26324 0.8268 0.0889 0.0
H2743 H 0.23212 0.78927 0.10448 0.0
H2744 H 0.23649 0.80438 0.09463 0.0
H2745 H 0.24075 0.78757 0.08824 0.0
H2746 H 0.25998 0.79556 0.07335 0.0
H2747 H 0.25723 0.81021 0.05311 0.0
H2748 H 0.01054 0.49862 0.0926 0.0
H2749 H 0.02554 0.50189 0.11256 0.0
H2750 H 0.02827 0.45797 0.11776 0.0
H2751 H 0.01312 0.45458 0.09797 0.0
H2752 H 0.02128 0.49244 0.14002 0.0
H2753 H 0.0688 0.47077 0.11697 0.0
H2754 H 0.05419 0.47593 0.10674 0.0
H2755 H 0.05391 0.45987 0.11585 0.0
C2756 C 0.01425 0.48965 0.09804 0.0
C2757 C 0.01066 0.47633 0.09364 0.0
C2758 C 0.02288 0.49155 0.10939 0.0
C2759 C 0.02816 0.48017 0.1165 0.0
C2760 C 0.02453 0.46688 0.11223 0.0
H2761 H 0.08132 0.46916 0.18718 0.0
H2762 H 0.06621 0.46623 0.16728 0.0
C2763 C 0.01589 0.46496 0.1009 0.0
C2764 C 0.03721 0.48222 0.12859 0.0
H2765 H 0.06951 0.47592 0.14079 0.0
C2766 C 0.03185 0.4889 0.14019 0.0
C2767 C 0.05097 0.47754 0.12875 0.0
C2768 C 0.05739 0.47073 0.11639 0.0
C2769 C 0.0398 0.49079 0.1521 0.0
C2770 C 0.05358 0.48612 0.15227 0.0
C2771 C 0.05895 0.47947 0.14064 0.0
C2772 C 0.0626 0.48799 0.16443 0.0
C2773 C 0.03327 0.49744 0.1645 0.0
C2774 C 0.0657 0.5012 0.16935 0.0
C2775 C 0.07422 0.50291 0.18081 0.0
C2776 C 0.07992 0.49143 0.18751 0.0
C2777 C 0.07693 0.47821 0.18242 0.0
C2778 C 0.06838 0.47652 0.17098 0.0
H2779 H 0.02187 0.49699 0.16401 0.0
H2780 H 0.03672 0.49242 0.17416 0.0
H2781 H 0.03634 0.50843 0.16491 0.0
H2782 H 0.06158 0.51021 0.16429 0.0
H2783 H 0.07621 0.51323 0.1845 0.0
H2784 H 0.33192 0.7246 0.27975 0.0
H2785 H 0.35175 0.72825 0.29483 0.0
H2786 H 0.37746 0.73536 0.25943 0.0
H2787 H 0.35772 0.73171 0.24428 0.0
H2788 H 0.37629 0.71387 0.29576 0.0
H2789 H 0.38571 0.76876 0.28341 0.0
H2790 H 0.36997 0.76004 0.27883 0.0
H2791 H 0.38519 0.75776 0.26859 0.0
C2792 C 0.3418 0.7269 0.27517 0.0
C2793 C 0.34323 0.72792 0.26081 0.0
C2794 C 0.3531 0.72905 0.28381 0.0
C2795 C 0.36602 0.7323 0.27826 0.0
C2796 C 0.36751 0.7332 0.26394 0.0
H2797 H 0.44783 0.74416 0.31147 0.0
H2798 H 0.42754 0.74137 0.29685 0.0
C2799 C 0.35622 0.7311 0.2553 0.0
C2800 C 0.37803 0.73431 0.28745 0.0
H2801 H 0.40292 0.75741 0.29655 0.0
C2802 C 0.38206 0.72341 0.29601 0.0
C2803 C 0.38555 0.74678 0.28773 0.0
C2804 C 0.38133 0.75906 0.27925 0.0
C2805 C 0.39359 0.72454 0.30463 0.0
C2806 C 0.40115 0.73697 0.30484 0.0
C2807 C 0.3971 0.74789 0.29633 0.0
C2808 C 0.41335 0.73882 0.31377 0.0
C2809 C 0.39777 0.71233 0.31323 0.0
C2810 C 0.41204 0.73851 0.32813 0.0
C2811 C 0.4236 0.7402 0.33653 0.0
C2812 C 0.43668 0.74229 0.33071 0.0
C2813 C 0.4379 0.74274 0.3163 0.0
C2814 C 0.42634 0.74108 0.30792 0.0
H2815 H 0.3929 0.70266 0.30954 0.0
H2816 H 0.40911 0.711 0.31314 0.0
H2817 H 0.39451 0.71404 0.32403 0.0
H2818 H 0.40206 0.73706 0.33285 0.0
H2819 H 0.42224 0.74005 0.34758 0.0
H2820 H 0.97727 0.41986 0.9724 0.0
H2821 H 0.98031 0.39971 0.95762 0.0
H2822 H 0.9784 0.37328 0.99317 0.0
H2823 H 0.97555 0.39339 0.00802 0.0
H2824 H 0.99924 0.36622 0.9763 0.0
H2825 H 0.95134 0.37223 0.94599 0.0
H2826 H 0.96218 0.38717 0.94548 0.0
H2827 H 0.95461 0.38187 0.96151 0.0
C2828 C 0.97738 0.40974 0.97704 0.0
C2829 C 0.97612 0.4082 0.99136 0.0
C2830 C 0.97907 0.39823 0.96858 0.0
C2831 C 0.97933 0.38496 0.97426 0.0
C2832 C 0.97819 0.38341 0.98856 0.0
H2833 H 0.97053 0.30877 0.92834 0.0
H2834 H 0.96749 0.32849 0.9436 0.0
C2835 C 0.97661 0.39491 0.99704 0.0
C2836 C 0.98112 0.3727 0.96535 0.0
H2837 H 0.96738 0.35567 0.93785 0.0
C2838 C 0.99224 0.36388 0.96792 0.0
C2839 C 0.97187 0.36954 0.95455 0.0
C2840 C 0.95925 0.37812 0.95178 0.0
C2841 C 0.99449 0.35211 0.95988 0.0
C2842 C 0.98556 0.34925 0.94874 0.0
C2843 C 0.97431 0.35795 0.94629 0.0
C2844 C 0.98758 0.3372 0.93959 0.0
C2845 C 0.00626 0.3427 0.96358 0.0
C2846 C 0.99983 0.33559 0.93216 0.0
C2847 C 0.00169 0.32422 0.92357 0.0
C2848 C 0.99125 0.31429 0.92209 0.0
C2849 C 0.97889 0.31606 0.92941 0.0
C2850 C 0.97708 0.3274 0.93806 0.0
H2851 H 0.00949 0.34409 0.97445 0.0
H2852 H 0.00345 0.33175 0.96196 0.0
H2853 H 0.01522 0.34513 0.95695 0.0
H2854 H 0.00796 0.34317 0.93295 0.0
H2855 H 0.01138 0.32314 0.91821 0.0
H2856 H 0.65321 0.79584 0.26217 0.0
H2857 H 0.63345 0.79236 0.27735 0.0
H2858 H 0.64134 0.74875 0.27784 0.0
H2859 H 0.66136 0.75217 0.26298 0.0
H2860 H 0.61003 0.77598 0.27239 0.0
H2861 H 0.63835 0.7586 0.31885 0.0
H2862 H 0.64674 0.76713 0.30465 0.0
H2863 H 0.64226 0.74924 0.3034 0.0
C2864 C 0.65086 0.78552 0.26566 0.0
C2865 C 0.65891 0.77428 0.26142 0.0
C2866 C 0.63951 0.78355 0.27425 0.0
C2867 C 0.63605 0.77033 0.27885 0.0
C2868 C 0.64398 0.75907 0.27459 0.0
H2869 H 0.57064 0.73811 0.33053 0.0
H2870 H 0.59055 0.74107 0.31543 0.0
C2871 C 0.65532 0.76103 0.26597 0.0
C2872 C 0.6239 0.7683 0.28783 0.0
H2873 H 0.61405 0.75709 0.3196 0.0
C2874 C 0.6109 0.7719 0.28273 0.0
C2875 C 0.62509 0.76292 0.30129 0.0
C2876 C 0.63886 0.75935 0.30746 0.0
C2877 C 0.59899 0.77009 0.29068 0.0
C2878 C 0.60017 0.76479 0.30418 0.0
C2879 C 0.61318 0.76114 0.30925 0.0
C2880 C 0.58804 0.76306 0.31324 0.0
C2881 C 0.58522 0.77362 0.28446 0.0
C2882 C 0.58014 0.77446 0.31714 0.0
C2883 C 0.5687 0.7728 0.32567 0.0
C2884 C 0.565 0.7597 0.33057 0.0
C2885 C 0.57307 0.74831 0.32677 0.0
C2886 C 0.5845 0.74999 0.31822 0.0
H2887 H 0.5857 0.77399 0.27305 0.0
H2888 H 0.57725 0.76603 0.28754 0.0
H2889 H 0.58197 0.7839 0.28817 0.0
H2890 H 0.58284 0.78468 0.31361 0.0
H2891 H 0.56266 0.78177 0.3283 0.0
H2892 H 0.0466 0.09402 0.98377 0.0
H2893 H 0.04313 0.11384 0.96882 0.0
H2894 H 0.00092 0.11657 0.98207 0.0
H2895 H 0.00403 0.09623 0.99641 0.0
H2896 H 0.00279 0.11986 0.95501 0.0
H2897 H 0.04127 0.15341 0.98036 0.0
H2898 H 0.04857 0.1376 0.97433 0.0
H2899 H 0.03576 0.13729 0.98769 0.0
C2900 C 0.03652 0.09871 0.98341 0.0
C2901 C 0.02561 0.09351 0.99139 0.0
C2902 C 0.03462 0.1102 0.975 0.0
C2903 C 0.02185 0.1169 0.97455 0.0
C2904 C 0.0109 0.11166 0.98235 0.0
H2905 H 0.0087 0.19869 0.94097 0.0
H2906 H 0.01148 0.17859 0.95585 0.0
C2907 C 0.01275 0.10008 0.99066 0.0
C2908 C 0.0198 0.12919 0.96573 0.0
H2909 H 0.03232 0.1613 0.95896 0.0
C2910 C 0.00921 0.12895 0.95592 0.0
C2911 C 0.02802 0.14114 0.96707 0.0
C2912 C 0.03894 0.14246 0.97803 0.0
C2913 C 0.00673 0.14024 0.94728 0.0
C2914 C 0.01535 0.15195 0.9482 0.0
C2915 C 0.02581 0.15226 0.95815 0.0
C2916 C 0.01358 0.16408 0.93909 0.0
C2917 C 0.99469 0.1396 0.93749 0.0
C2918 C 0.01402 0.16264 0.92472 0.0
C2919 C 0.01229 0.17409 0.91622 0.0
C2920 C 0.01038 0.18723 0.92192 0.0
C2921 C 0.01024 0.1887 0.9363 0.0
C2922 C 0.01179 0.17722 0.9448 0.0
H2923 H 0.98685 0.13204 0.94096 0.0
H2924 H 0.98969 0.14979 0.93641 0.0
H2925 H 0.99837 0.13629 0.92722 0.0
H2926 H 0.0158 0.15269 0.92008 0.0
H2927 H 0.01267 0.17271 0.90517 0.0
H2928 H 0.35715 0.26865 0.25653 0.0
H2929 H 0.37693 0.26528 0.24137 0.0
H2930 H 0.35254 0.27783 0.20655 0.0
H2931 H 0.33264 0.28105 0.22158 0.0
H2932 H 0.379 0.24777 0.21784 0.0
H2933 H 0.38692 0.30281 0.20463 0.0
H2934 H 0.3766 0.29738 0.21908 0.0
H2935 H 0.36978 0.29642 0.20193 0.0
C2936 C 0.35594 0.27059 0.24563 0.0
C2937 C 0.3433 0.27517 0.24028 0.0
C2938 C 0.36728 0.26873 0.237 0.0
C2939 C 0.36623 0.27149 0.22289 0.0
C2940 C 0.35362 0.27591 0.21747 0.0
H2941 H 0.42395 0.26781 0.15481 0.0
H2942 H 0.40368 0.27061 0.16945 0.0
C2943 C 0.34227 0.27776 0.22608 0.0
C2944 C 0.37829 0.26952 0.21381 0.0
H2945 H 0.40055 0.28658 0.19269 0.0
C2946 C 0.38375 0.25625 0.21237 0.0
C2947 C 0.38441 0.2806 0.20665 0.0
C2948 C 0.37923 0.29514 0.20819 0.0
C2949 C 0.39508 0.25372 0.20379 0.0
C2950 C 0.40128 0.26483 0.19671 0.0
C2951 C 0.39578 0.27809 0.19812 0.0
C2952 C 0.41354 0.26294 0.18786 0.0
C2953 C 0.40013 0.23914 0.20217 0.0
C2954 C 0.42586 0.25786 0.19339 0.0
C2955 C 0.43745 0.25625 0.18505 0.0
C2956 C 0.43699 0.25984 0.17105 0.0
C2957 C 0.42467 0.26507 0.16558 0.0
C2958 C 0.41307 0.26662 0.17391 0.0
H2959 H 0.3921 0.23155 0.20509 0.0
H2960 H 0.40337 0.23708 0.19142 0.0
H2961 H 0.40913 0.23753 0.20899 0.0
H2962 H 0.42657 0.25529 0.2042 0.0
H2963 H 0.44685 0.25244 0.18964 0.0
H2964 H 0.52386 0.39364 0.99283 0.0
H2965 H 0.52037 0.37382 0.00791 0.0
H2966 H 0.52197 0.40043 0.04338 0.0
H2967 H 0.52558 0.42029 0.02835 0.0
H2968 H 0.53747 0.37742 0.04682 0.0
H2969 H 0.4855 0.36321 0.02812 0.0
H2970 H 0.49809 0.36407 0.01466 0.0
H2971 H 0.49353 0.37941 0.02394 0.0
C2972 C 0.52332 0.39528 0.00384 0.0
C2973 C 0.52492 0.40854 0.0094 0.0
C2974 C 0.5213 0.38395 0.01244 0.0
C2975 C 0.52066 0.38567 0.02676 0.0
C2976 C 0.52238 0.39887 0.03235 0.0
H2977 H 0.49069 0.32493 0.08497 0.0
H2978 H 0.4941 0.34516 0.07048 0.0
C2979 C 0.52449 0.4102 0.02376 0.0
C2980 C 0.51854 0.37367 0.03593 0.0
H2981 H 0.49663 0.34707 0.04274 0.0
C2982 C 0.52851 0.37081 0.04597 0.0
C2983 C 0.50676 0.36517 0.03494 0.0
C2984 C 0.49528 0.36818 0.02493 0.0
C2985 C 0.52714 0.35956 0.0549 0.0
C2986 C 0.51562 0.35075 0.05355 0.0
C2987 C 0.50554 0.35374 0.04366 0.0
C2988 C 0.51372 0.33848 0.06242 0.0
C2989 C 0.53791 0.35737 0.06586 0.0
C2990 C 0.52354 0.32793 0.06259 0.0
C2991 C 0.52172 0.31642 0.071 0.0
C2992 C 0.50994 0.31516 0.07931 0.0
C2993 C 0.5 0.32566 0.07892 0.0
C2994 C 0.50188 0.33719 0.07055 0.0
H2995 H 0.54375 0.36696 0.06802 0.0
H2996 H 0.5332 0.35369 0.07558 0.0
H2997 H 0.54534 0.34949 0.06228 0.0
H2998 H 0.53262 0.32857 0.05618 0.0
H2999 H 0.52963 0.3086 0.07111 0.0
H3000 H 0.64444 0.22981 0.25672 0.0
H3001 H 0.6246 0.23307 0.2416 0.0
H3002 H 0.65079 0.22857 0.20611 0.0
H3003 H 0.67068 0.22527 0.22117 0.0
H3004 H 0.61997 0.25293 0.22193 0.0
H3005 H 0.62028 0.20101 0.19819 0.0
H3006 H 0.63012 0.20511 0.2134 0.0
H3007 H 0.63631 0.21006 0.19669 0.0
C3008 C 0.64599 0.22958 0.2457 0.0
C3009 C 0.65913 0.22722 0.24014 0.0
C3010 C 0.63463 0.23138 0.23708 0.0
C3011 C 0.63618 0.23083 0.22274 0.0
C3012 C 0.6493 0.22869 0.21715 0.0
H3013 H 0.57993 0.2421 0.15422 0.0
H3014 H 0.60012 0.23908 0.16893 0.0
C3015 C 0.66066 0.22682 0.22576 0.0
C3016 C 0.62408 0.2328 0.21367 0.0
H3017 H 0.60499 0.21736 0.1885 0.0
C3018 C 0.61666 0.24513 0.21466 0.0
C3019 C 0.61979 0.22261 0.20419 0.0
C3020 C 0.62695 0.2089 0.20311 0.0
C3021 C 0.60517 0.24763 0.20629 0.0
C3022 C 0.60091 0.23746 0.19681 0.0
C3023 C 0.60833 0.22515 0.19577 0.0
C3024 C 0.58865 0.23933 0.18797 0.0
C3025 C 0.5978 0.26122 0.20749 0.0
C3026 C 0.57551 0.2403 0.19382 0.0
C3027 C 0.56394 0.2419 0.18545 0.0
C3028 C 0.56528 0.24254 0.17106 0.0
C3029 C 0.57849 0.24148 0.16525 0.0
C3030 C 0.59005 0.23984 0.17363 0.0
H3031 H 0.60417 0.26906 0.21285 0.0
H3032 H 0.59496 0.26522 0.19718 0.0
H3033 H 0.5882 0.25976 0.21347 0.0
H3034 H 0.5742 0.23965 0.20486 0.0
H3035 H 0.55391 0.2424 0.19027 0.0
H3036 H 0.45612 0.09638 0.01542 0.0
H3037 H 0.45958 0.11637 0.03031 0.0
H3038 H 0.5035 0.11152 0.02691 0.0
H3039 H 0.50016 0.09139 0.01218 0.0
H3040 H 0.47428 0.1179 0.05581 0.0
H3041 H 0.49662 0.15201 0.01575 0.0
H3042 H 0.48728 0.1365 0.01159 0.0
H3043 H 0.50474 0.13552 0.01752 0.0
C3044 C 0.46652 0.09947 0.01793 0.0
C3045 C 0.47787 0.09229 0.01256 0.0
C3046 C 0.46847 0.11095 0.02638 0.0
C3047 C 0.48178 0.11552 0.02954 0.0
C3048 C 0.49313 0.10831 0.02436 0.0
H3049 H 0.51382 0.1843 0.07675 0.0
H3050 H 0.5109 0.16359 0.06278 0.0
C3051 C 0.49121 0.09682 0.01593 0.0
C3052 C 0.48376 0.12775 0.03841 0.0
H3053 H 0.49653 0.16047 0.03856 0.0
C3054 C 0.47911 0.12723 0.05205 0.0
C3055 C 0.49011 0.13987 0.03346 0.0
C3056 C 0.49489 0.14112 0.01875 0.0
C3057 C 0.48081 0.13847 0.06097 0.0
C3058 C 0.48705 0.15064 0.05599 0.0
C3059 C 0.49175 0.15113 0.04235 0.0
C3060 C 0.48875 0.16303 0.06473 0.0
C3061 C 0.47615 0.1371 0.07571 0.0
C3062 C 0.47725 0.16966 0.07036 0.0
C3063 C 0.47889 0.18143 0.07847 0.0
C3064 C 0.49206 0.18687 0.081 0.0
C3065 C 0.50355 0.18027 0.07521 0.0
C3066 C 0.5019 0.16848 0.06713 0.0
H3067 H 0.47521 0.12615 0.07883 0.0
H3068 H 0.48341 0.14233 0.08282 0.0
H3069 H 0.4659 0.14195 0.07686 0.0
H3070 H 0.46699 0.16579 0.06841 0.0
H3071 H 0.46983 0.18618 0.08285 0.0
H3072 H 0.27796 0.33451 0.71703 0.0
H3073 H 0.29268 0.3546 0.72036 0.0
H3074 H 0.25948 0.37567 0.74081 0.0
H3075 H 0.24446 0.3559 0.73691 0.0
H3076 H 0.27219 0.39208 0.72251 0.0
H3077 H 0.3111 0.36681 0.75554 0.0
H3078 H 0.30877 0.35828 0.73933 0.0
H3079 H 0.29481 0.35888 0.75147 0.0
C3080 C 0.27373 0.34345 0.72213 0.0
C3081 C 0.26001 0.34354 0.72674 0.0
C3082 C 0.28224 0.35486 0.72421 0.0
C3083 C 0.27727 0.36654 0.73108 0.0
C3084 C 0.26357 0.36672 0.73559 0.0
H3085 H 0.32811 0.43295 0.76291 0.0
H3086 H 0.31276 0.41325 0.76012 0.0
C3087 C 0.25503 0.35535 0.73345 0.0
C3088 C 0.28622 0.37873 0.73322 0.0
H3089 H 0.31677 0.3891 0.7471 0.0
C3090 C 0.28191 0.39145 0.72794 0.0
C3091 C 0.2988 0.37793 0.74049 0.0
C3092 C 0.30359 0.36478 0.74716 0.0
C3093 C 0.28993 0.40335 0.72954 0.0
C3094 C 0.30279 0.40243 0.7363 0.0
C3095 C 0.30699 0.38976 0.74178 0.0
C3096 C 0.31199 0.41451 0.73791 0.0
C3097 C 0.28442 0.41682 0.72419 0.0
C3098 C 0.31679 0.42169 0.72636 0.0
C3099 C 0.32539 0.43311 0.72792 0.0
C3100 C 0.32956 0.43746 0.74109 0.0
C3101 C 0.32492 0.43007 0.75264 0.0
C3102 C 0.31624 0.41872 0.75106 0.0
H3103 H 0.27305 0.41655 0.72307 0.0
H3104 H 0.28721 0.42547 0.73112 0.0
H3105 H 0.28888 0.41889 0.7139 0.0
H3106 H 0.3139 0.41846 0.71609 0.0
H3107 H 0.32864 0.4386 0.7188 0.0
H3108 H 0.26033 0.65958 0.75252 0.0
H3109 H 0.27502 0.63947 0.74905 0.0
H3110 H 0.27795 0.63395 0.79294 0.0
H3111 H 0.2629 0.65373 0.79651 0.0
H3112 H 0.30178 0.63506 0.75816 0.0
H3113 H 0.26626 0.59589 0.77963 0.0
H3114 H 0.26071 0.61303 0.77519 0.0
H3115 H 0.26967 0.60998 0.79107 0.0
C3116 C 0.26395 0.65398 0.76144 0.0
C3117 C 0.26037 0.65823 0.7748 0.0
C3118 C 0.27242 0.64255 0.75943 0.0
C3119 C 0.2774 0.6351 0.77073 0.0
C3120 C 0.274 0.6394 0.78407 0.0
H3121 H 0.33124 0.56509 0.78155 0.0
H3122 H 0.31653 0.58528 0.78446 0.0
C3123 C 0.26553 0.65081 0.78609 0.0
C3124 C 0.2864 0.623 0.76856 0.0
H3125 H 0.28908 0.58858 0.77493 0.0
C3126 C 0.29898 0.62488 0.76174 0.0
C3127 C 0.28271 0.60974 0.77326 0.0
C3128 C 0.26905 0.60697 0.78008 0.0
C3129 C 0.30811 0.61388 0.75975 0.0
C3130 C 0.30446 0.60065 0.76454 0.0
C3131 C 0.29186 0.59876 0.77131 0.0
C3132 C 0.31358 0.58861 0.76267 0.0
C3133 C 0.32173 0.61657 0.75282 0.0
C3134 C 0.31668 0.58374 0.74945 0.0
C3135 C 0.32511 0.57224 0.74775 0.0
C3136 C 0.33057 0.56537 0.75925 0.0
C3137 C 0.32737 0.57026 0.77248 0.0
C3138 C 0.31891 0.58174 0.77417 0.0
H3139 H 0.32433 0.6277 0.75269 0.0
H3140 H 0.33014 0.61091 0.75805 0.0
H3141 H 0.32121 0.61293 0.74201 0.0
H3142 H 0.31249 0.58878 0.74045 0.0
H3143 H 0.32745 0.56879 0.73742 0.0
H3144 H 0.90921 0.49139 0.49927 0.0
H3145 H 0.88913 0.47659 0.5024 0.0
H3146 H 0.88552 0.47193 0.45845 0.0
H3147 H 0.90523 0.48719 0.45518 0.0
H3148 H 0.86079 0.47712 0.47064 0.0
H3149 H 0.8878 0.43508 0.49806 0.0
H3150 H 0.88991 0.4516 0.50602 0.0
H3151 H 0.89685 0.44861 0.48915 0.0
C3152 C 0.90409 0.48731 0.49025 0.0
C3153 C 0.90889 0.49045 0.47697 0.0
C3154 C 0.89271 0.47871 0.49208 0.0
C3155 C 0.88598 0.47295 0.48067 0.0
C3156 C 0.89064 0.47616 0.4674 0.0
H3157 H 0.82766 0.40528 0.48241 0.0
H3158 H 0.8476 0.42025 0.47891 0.0
C3159 C 0.90198 0.4848 0.46556 0.0
C3160 C 0.8739 0.46383 0.48253 0.0
H3161 H 0.86338 0.43389 0.49756 0.0
C3162 C 0.86136 0.46764 0.47649 0.0
C3163 C 0.87471 0.45138 0.49 0.0
C3164 C 0.88806 0.44633 0.49607 0.0
C3165 C 0.84955 0.45943 0.47787 0.0
C3166 C 0.85024 0.44723 0.48576 0.0
C3167 C 0.86283 0.44332 0.49164 0.0
C3168 C 0.83809 0.43825 0.48788 0.0
C3169 C 0.83653 0.46379 0.47064 0.0
C3170 C 0.82618 0.44335 0.49423 0.0
C3171 C 0.81476 0.43484 0.49619 0.0
C3172 C 0.8151 0.421 0.49201 0.0
C3173 C 0.82712 0.41586 0.48584 0.0
C3174 C 0.8385 0.42441 0.4838 0.0
H3175 H 0.8387 0.47102 0.46207 0.0
H3176 H 0.83091 0.45476 0.46646 0.0
H3177 H 0.82972 0.46911 0.47808 0.0
H3178 H 0.82575 0.4539 0.49778 0.0
H3179 H 0.80573 0.43902 0.50119 0.0
H3180 H 0.75764 0.85702 0.76913 0.0
H3181 H 0.74235 0.87667 0.76567 0.0
H3182 H 0.70743 0.85147 0.77626 0.0
H3183 H 0.72261 0.83172 0.77959 0.0
H3184 H 0.71966 0.87909 0.74742 0.0
H3185 H 0.70388 0.88496 0.80201 0.0
H3186 H 0.71862 0.87491 0.7969 0.0
H3187 H 0.70158 0.86801 0.79501 0.0
C3188 C 0.7467 0.85562 0.77063 0.0
C3189 C 0.74136 0.8428 0.77469 0.0
C3190 C 0.73799 0.86688 0.76871 0.0
C3191 C 0.72379 0.86557 0.7709 0.0
C3192 C 0.71839 0.85277 0.7748 0.0
H3193 H 0.65488 0.92207 0.76582 0.0
H3194 H 0.66977 0.90199 0.76856 0.0
C3195 C 0.72709 0.8415 0.77671 0.0
C3196 C 0.71462 0.87755 0.76891 0.0
H3197 H 0.69232 0.89882 0.78569 0.0
C3198 C 0.71371 0.88345 0.75578 0.0
C3199 C 0.70686 0.88316 0.77985 0.0
C3200 C 0.70782 0.87754 0.79427 0.0
C3201 C 0.70505 0.89471 0.75323 0.0
C3202 C 0.69733 0.90037 0.76418 0.0
C3203 C 0.69823 0.89444 0.77731 0.0
C3204 C 0.68834 0.91252 0.76229 0.0
C3205 C 0.70404 0.90025 0.73877 0.0
C3206 C 0.69387 0.92514 0.758 0.0
C3207 C 0.6854 0.93664 0.75644 0.0
C3208 C 0.67125 0.93576 0.75928 0.0
C3209 C 0.66576 0.92312 0.76368 0.0
C3210 C 0.67424 0.91162 0.76519 0.0
H3211 H 0.70753 0.89259 0.73105 0.0
H3212 H 0.69333 0.90331 0.73629 0.0
H3213 H 0.7107 0.90948 0.73783 0.0
H3214 H 0.70479 0.92616 0.75603 0.0
H3215 H 0.68999 0.94628 0.75328 0.0
H3216 H 0.59783 0.51346 0.95431 0.0
H3217 H 0.61767 0.52853 0.95792 0.0
H3218 H 0.6114 0.52651 0.00176 0.0
H3219 H 0.59145 0.51156 0.99826 0.0
H3220 H 0.6187 0.55437 0.97149 0.0
H3221 H 0.65206 0.51564 0.99694 0.0
H3222 H 0.63685 0.51097 0.98735 0.0
H3223 H 0.63533 0.51769 0.00449 0.0
C3224 C 0.6006 0.5163 0.96472 0.0
C3225 C 0.59307 0.51126 0.976 0.0
C3226 C 0.61198 0.52486 0.96676 0.0
C3227 C 0.61611 0.52847 0.9801 0.0
C3228 C 0.60855 0.52361 0.99138 0.0
H3229 H 0.68293 0.57796 0.01288 0.0
H3230 H 0.66245 0.56368 0.00972 0.0
C3231 C 0.59716 0.51505 0.98936 0.0
C3232 C 0.62821 0.53751 0.98219 0.0
H3233 H 0.66032 0.53854 0.99636 0.0
C3234 C 0.62782 0.55092 0.97688 0.0
C3235 C 0.64006 0.53296 0.98927 0.0
C3236 C 0.64122 0.51849 0.99475 0.0
C3237 C 0.63893 0.55999 0.97864 0.0
C3238 C 0.65082 0.55542 0.98566 0.0
C3239 C 0.65118 0.54202 0.991 0.0
C3240 C 0.66306 0.56434 0.98749 0.0
C3241 C 0.63771 0.57447 0.97323 0.0
C3242 C 0.67027 0.56934 0.97604 0.0
C3243 C 0.68192 0.5776 0.97781 0.0
C3244 C 0.68665 0.58093 0.99108 0.0
C3245 C 0.67945 0.57579 0.00253 0.0
C3246 C 0.6678 0.56754 0.00074 0.0
H3247 H 0.62681 0.57744 0.97154 0.0
H3248 H 0.64248 0.58197 0.98041 0.0
H3249 H 0.64312 0.5752 0.96321 0.0
H3250 H 0.66695 0.56678 0.96572 0.0
H3251 H 0.68714 0.58147 0.96877 0.0
H3252 H 0.2225 0.66983 0.22533 0.0
H3253 H 0.20753 0.64989 0.22889 0.0
H3254 H 0.24313 0.62383 0.23296 0.0
H3255 H 0.25816 0.6437 0.22946 0.0
H3256 H 0.20542 0.62617 0.21369 0.0
H3257 H 0.22122 0.61403 0.26713 0.0
H3258 H 0.22552 0.63009 0.25888 0.0
H3259 H 0.23533 0.61485 0.25527 0.0
C3260 C 0.22714 0.65984 0.22696 0.0
C3261 C 0.24152 0.65835 0.22718 0.0
C3262 C 0.21857 0.64848 0.22904 0.0
C3263 C 0.22421 0.63542 0.23143 0.0
C3264 C 0.23856 0.63387 0.2315 0.0
H3265 H 0.19091 0.55331 0.24091 0.0
H3266 H 0.20556 0.57357 0.23806 0.0
C3267 C 0.24713 0.64523 0.22948 0.0
C3268 C 0.21507 0.62336 0.23342 0.0
H3269 H 0.2073 0.5974 0.25576 0.0
C3270 C 0.20576 0.61993 0.22292 0.0
C3271 C 0.21555 0.61523 0.24548 0.0
C3272 C 0.22484 0.61879 0.2574 0.0
C3273 C 0.19709 0.60843 0.22405 0.0
C3274 C 0.19766 0.60025 0.23605 0.0
C3275 C 0.20694 0.60369 0.24656 0.0
C3276 C 0.18872 0.58806 0.23787 0.0
C3277 C 0.1876 0.60494 0.21227 0.0
C3278 C 0.17442 0.58954 0.23889 0.0
C3279 C 0.16601 0.57801 0.24065 0.0
C3280 C 0.17176 0.56475 0.24144 0.0
C3281 C 0.18614 0.56335 0.24052 0.0
C3282 C 0.19453 0.5749 0.23881 0.0
H3283 H 0.19054 0.61037 0.20267 0.0
H3284 H 0.18757 0.59369 0.21027 0.0
H3285 H 0.17696 0.60803 0.21498 0.0
H3286 H 0.16976 0.59964 0.23845 0.0
H3287 H 0.15502 0.5795 0.24157 0.0
H3288 H 0.90258 0.51099 0.04601 0.0
H3289 H 0.88263 0.52588 0.0425 0.0
H3290 H 0.89237 0.5289 0.99935 0.0
H3291 H 0.91235 0.51402 0.00277 0.0
H3292 H 0.8815 0.55259 0.03262 0.0
H3293 H 0.85209 0.51718 0.99877 0.0
H3294 H 0.86674 0.51162 0.00871 0.0
H3295 H 0.8692 0.52082 0.99287 0.0
C3296 C 0.90052 0.51488 0.03579 0.0
C3297 C 0.90902 0.51128 0.02466 0.0
C3298 C 0.88909 0.52334 0.03379 0.0
C3299 C 0.88589 0.52831 0.02063 0.0
C3300 C 0.89446 0.52491 0.00953 0.0
H3301 H 0.82203 0.58189 0.98869 0.0
H3302 H 0.8424 0.56748 0.9919 0.0
C3303 C 0.90588 0.51641 0.01151 0.0
C3304 C 0.87374 0.53728 0.0186 0.0
H3305 H 0.84325 0.53976 0.00134 0.0
C3306 C 0.87311 0.54977 0.02582 0.0
C3307 C 0.86282 0.53357 0.00972 0.0
C3308 C 0.86264 0.52002 0.00216 0.0
C3309 C 0.86192 0.55874 0.02426 0.0
C3310 C 0.85101 0.55503 0.01538 0.0
C3311 C 0.85166 0.54257 0.00812 0.0
C3312 C 0.83877 0.56389 0.01355 0.0
C3313 C 0.86199 0.57224 0.03192 0.0
C3314 C 0.82993 0.56653 0.02463 0.0
C3315 C 0.81832 0.57479 0.02285 0.0
C3316 C 0.81531 0.58054 0.00992 0.0
C3317 C 0.82416 0.57779 0.99882 0.0
C3318 C 0.83575 0.56949 1.00061 0.0
H3319 H 0.87245 0.57501 0.03559 0.0
H3320 H 0.85807 0.58068 0.02531 0.0
H3321 H 0.85516 0.57141 0.04102 0.0
H3322 H 0.83197 0.56213 0.03466 0.0
H3323 H 0.81177 0.57678 0.03162 0.0
H3324 H 0.09506 0.98477 0.04566 0.0
H3325 H 0.11496 0.96988 0.04225 0.0
H3326 H 0.11388 0.97817 0.99871 0.0
H3327 H 0.09354 0.99255 0.00191 0.0
H3328 H 0.11797 0.95115 0.00394 0.0
H3329 H 0.15393 0.98254 0.03517 0.0
H3330 H 0.1389 0.9773 0.04451 0.0
H3331 H 0.13721 0.98869 0.03003 0.0
C3332 C 0.09894 0.98332 0.03532 0.0
C3333 C 0.0927 0.98993 0.02406 0.0
C3334 C 0.11045 0.97494 0.03343 0.0
C3335 C 0.11609 0.97314 0.02027 0.0
C3336 C 0.10978 0.97952 0.00898 0.0
H3337 H 0.19734 0.94029 0.00307 0.0
H3338 H 0.17697 0.9548 0.00573 0.0
C3339 C 0.09821 0.98784 0.01085 0.0
C3340 C 0.12845 0.96445 0.01823 0.0
H3341 H 0.16187 0.96048 0.02822 0.0
C3342 C 0.12759 0.95321 0.0092 0.0
C3343 C 0.14106 0.96728 0.02494 0.0
C3344 C 0.14291 0.97968 0.0341 0.0
C3345 C 0.13893 0.9446 0.00686 0.0
C3346 C 0.15137 0.94711 0.014 0.0
C3347 C 0.15229 0.95847 0.02286 0.0
C3348 C 0.16364 0.93821 0.01229 0.0
C3349 C 0.13753 0.93308 0.99654 0.0
C3350 C 0.16296 0.92409 0.01524 0.0
C3351 C 0.17457 0.91578 0.01366 0.0
C3352 C 0.18713 0.92146 0.0093 0.0
C3353 C 0.18783 0.93564 0.00655 0.0
C3354 C 0.1762 0.94392 0.00803 0.0
H3355 H 0.12899 0.935 0.9892 0.0
H3356 H 0.14718 0.93167 0.99061 0.0
H3357 H 0.13525 0.92336 0.00206 0.0
H3358 H 0.15349 0.91952 0.01891 0.0
H3359 H 0.17378 0.90494 0.01607 0.0
loop_
_geom_bond_atom_site_label_1
_geom_bond_atom_site_label_2
_geom_bond_distance
_geom_bond_site_symmetry_2
_ccdc_geom_bond_type
C0 C1 1.384 . S
C0 H13 0.947 . S
C0 C35 1.382 1_655 S
C1 C0 1.384 . S
C1 C2 1.378 1_655 S
C2 C1 1.378 1_455 S
C2 C3 1.378 . S
C2 H14 0.952 . S
C3 C2 1.378 . S
C3 H15 0.950 . S
C3 C34 1.383 . S
H4 C23 0.947 . S
H5 C24 0.946 . S
H6 C26 0.953 . S
H7 C27 0.945 . S
H8 C29 0.952 . S
H9 C30 0.949 . S
H10 C32 0.950 . S
H11 C33 0.948 . S
H12 C35 0.951 . S
H13 C0 0.947 . S
H14 C2 0.952 . S
H15 C3 0.950 . S
N16 C19 1.382 . S
N16 C21 1.363 . S
N17 C19 1.371 . S
N17 C20 1.372 . S
N18 C20 1.361 . S
N18 C21 1.377 . S
C19 N16 1.382 . S
C19 N17 1.371 . S
C19 C22 1.480 . S
C20 N17 1.372 . S
C20 N18 1.361 . S
C20 C28 1.457 . S
C21 N16 1.363 . S
C21 N18 1.377 . S
C21 C34 1.479 . S
C22 C19 1.480 . S
C22 C23 1.383 . S
C22 C27 1.385 . S
C23 H4 0.947 . S
C23 C22 1.383 . S
C23 C24 1.388 1_545 S
C24 H5 0.946 . S
C24 C23 1.388 1_565 S
C24 C25 1.384 . S
C25 C24 1.384 . S
C25 C26 1.377 1_565 S
C26 H6 0.953 . S
C26 C25 1.377 1_545 S
C26 C27 1.369 . S
C27 H7 0.945 . S
C27 C22 1.385 . S
C27 C26 1.369 . S
C28 C20 1.457 . S
C28 C29 1.372 . S
C28 C33 1.364 . S
C29 H8 0.952 . S
C29 C28 1.372 . S
C29 C30 1.389 1_554 S
C30 H9 0.949 . S
C30 C29 1.389 1_556 S
C30 C31 1.387 . S
C31 C30 1.387 . S
C31 C32 1.372 1_556 S
C32 H10 0.950 . S
C32 C31 1.372 1_554 S
C32 C33 1.379 . S
C33 H11 0.948 . S
C33 C28 1.364 . S
C33 C32 1.379 . S
C34 C3 1.383 . S
C34 C21 1.479 . S
C34 C35 1.398 . S
C35 C0 1.382 1_455 S
C35 H12 0.951 . S
C35 C34 1.398 . S
C36 C37 1.384 . S
C36 H49 0.947 . S
C36 C71 1.382 . S
C37 C36 1.384 . S
C37 C38 1.378 . S
C38 C37 1.378 . S
C38 C39 1.378 . S
C38 H50 0.952 . S
C39 C38 1.378 . S
C39 H51 0.950 . S
C39 C70 1.383 . S
H40 C59 0.947 . S
H41 C60 0.946 . S
H42 C62 0.953 . S
H43 C63 0.945 . S
H44 C65 0.952 . S
H45 C66 0.949 . S
H46 C68 0.950 . S
H47 C69 0.948 . S
H48 C71 0.951 . S
H49 C36 0.947 . S
H50 C38 0.952 . S
H51 C39 0.950 . S
N52 C55 1.382 . S
N52 C57 1.363 . S
N53 C55 1.371 . S
N53 C56 1.372 . S
N54 C56 1.361 . S
N54 C57 1.377 . S
C55 N52 1.382 . S
C55 N53 1.371 . S
C55 C58 1.480 . S
C56 N53 1.372 . S
C56 N54 1.361 . S
C56 C64 1.457 . S
C57 N52 1.363 . S
C57 N54 1.377 . S
C57 C70 1.479 . S
C58 C55 1.480 . S
C58 C59 1.383 . S
C58 C63 1.385 . S
C59 H40 0.947 . S
C59 C58 1.383 . S
C59 C60 1.388 . S
C60 H41 0.946 . S
C60 C59 1.388 . S
C60 C61 1.384 . S
C61 C60 1.384 . S
C61 C62 1.377 . S
C62 H42 0.953 . S
C62 C61 1.377 . S
C62 C63 1.369 . S
C63 H43 0.945 . S
C63 C58 1.385 . S
C63 C62 1.369 . S
C64 C56 1.457 . S
C64 C65 1.372 . S
C64 C69 1.364 . S
C65 H44 0.952 . S
C65 C64 1.372 . S
C65 C66 1.389 . S
C66 H45 0.949 . S
C66 C65 1.389 . S
C66 C67 1.387 . S
C67 C66 1.387 . S
C67 C68 1.372 . S
C68 H46 0.950 . S
C68 C67 1.372 . S
C68 C69 1.379 . S
C69 H47 0.948 . S
C69 C64 1.364 . S
C69 C68 1.379 . S
C70 C39 1.383 . S
C70 C57 1.479 . S
C70 C71 1.398 . S
C71 C36 1.382 . S
C71 H48 0.951 . S
C71 C70 1.398 . S
C72 C73 1.384 1_554 S
C72 H85 0.947 . S
C72 C107 1.382 . S
C73 C72 1.384 1_556 S
C73 C74 1.378 . S
C74 C73 1.378 . S
C74 C75 1.378 1_556 S
C74 H86 0.952 . S
C75 C74 1.378 1_554 S
C75 H87 0.950 1_554 S
C75 C106 1.383 . S
H76 C95 0.947 . S
H77 C96 0.946 . S
H78 C98 0.953 . S
H79 C99 0.945 . S
H80 C101 0.952 . S
H81 C102 0.949 . S
H82 C104 0.950 . S
H83 C105 0.941 1_455 S
H84 C107 0.951 . S
H85 C72 0.947 . S
H86 C74 0.952 . S
H87 C75 0.950 1_556 S
N88 C91 1.382 . S
N88 C93 1.363 . S
N89 C91 1.371 . S
N89 C92 1.372 . S
N90 C92 1.361 . S
N90 C93 1.377 . S
C91 N88 1.382 . S
C91 N89 1.371 . S
C91 C94 1.480 . S
C92 N89 1.372 . S
C92 N90 1.361 . S
C92 C100 1.457 . S
C93 N88 1.363 . S
C93 N90 1.377 . S
C93 C106 1.479 . S
C94 C91 1.480 . S
C94 C95 1.383 . S
C94 C99 1.385 . S
C95 H76 0.947 . S
C95 C94 1.383 . S
C95 C96 1.388 . S
C96 H77 0.946 . S
C96 C95 1.388 . S
C96 C97 1.384 . S
C97 C96 1.384 . S
C97 C98 1.377 . S
C98 H78 0.953 . S
C98 C97 1.377 . S
C98 C99 1.369 . S
C99 H79 0.945 . S
C99 C94 1.385 . S
C99 C98 1.369 . S
C100 C92 1.457 . S
C100 C101 1.372 . S
C100 C105 1.392 . S
C101 H80 0.952 . S
C101 C100 1.372 . S
C101 C102 1.389 . S
C102 H81 0.949 . S
C102 C101 1.389 . S
C102 C103 1.387 1_655 S
C103 C102 1.387 1_455 S
C103 C104 1.372 . S
C104 H82 0.950 . S
C104 C103 1.372 . S
C104 C105 1.359 1_455 S
C105 H83 0.941 1_655 S
C105 C100 1.392 . S
C105 C104 1.359 1_655 S
C106 C75 1.383 . S
C106 C93 1.479 . S
C106 C107 1.398 . S
C107 C72 1.382 . S
C107 H84 0.951 . S
C107 C106 1.398 . S
C108 C109 1.384 . S
C108 H121 0.947 . S
C108 C143 1.382 . S
C109 C108 1.384 . S
C109 C110 1.378 . S
C110 C109 1.378 . S
C110 C111 1.378 . S
C110 H122 0.952 . S
C111 C110 1.378 . S
C111 H123 0.950 . S
C111 C142 1.383 . S
H112 C131 0.947 . S
H113 C132 0.946 . S
H114 C134 0.953 . S
H115 C135 0.945 . S
H116 C137 0.952 . S
H117 C138 0.949 . S
H118 C140 0.950 . S
H119 C141 0.948 . S
H120 C143 0.951 . S
H121 C108 0.947 . S
H122 C110 0.952 . S
H123 C111 0.950 . S
N124 C127 1.382 . S
N124 C129 1.363 . S
N125 C127 1.371 . S
N125 C128 1.372 . S
N126 C128 1.361 . S
N126 C129 1.377 . S
C127 N124 1.382 . S
C127 N125 1.371 . S
C127 C130 1.480 . S
C128 N125 1.372 . S
C128 N126 1.361 . S
C128 C136 1.457 . S
C129 N124 1.363 . S
C129 N126 1.377 . S
C129 C142 1.479 . S
C130 C127 1.480 . S
C130 C131 1.383 . S
C130 C135 1.385 . S
C131 H112 0.947 . S
C131 C130 1.383 . S
C131 C132 1.388 . S
C132 H113 0.946 . S
C132 C131 1.388 . S
C132 C133 1.384 . S
C133 C132 1.384 . S
C133 C134 1.377 . S
C134 H114 0.953 . S
C134 C133 1.377 . S
C134 C135 1.369 . S
C135 H115 0.945 . S
C135 C130 1.385 . S
C135 C134 1.369 . S
C136 C128 1.457 . S
C136 C137 1.372 . S
C136 C141 1.364 . S
C137 H116 0.952 . S
C137 C136 1.372 . S
C137 C138 1.389 . S
C138 H117 0.949 . S
C138 C137 1.389 . S
C138 C139 1.387 . S
C139 C138 1.387 . S
C139 C140 1.372 . S
C140 H118 0.950 . S
C140 C139 1.372 . S
C140 C141 1.379 . S
C141 H119 0.948 . S
C141 C136 1.364 . S
C141 C140 1.379 . S
C142 C111 1.383 . S
C142 C129 1.479 . S
C142 C143 1.398 . S
C143 C108 1.382 . S
C143 H120 0.951 . S
C143 C142 1.398 . S
C144 C145 1.384 . S
C144 H157 0.947 . S
C144 C179 1.382 . S
C145 C144 1.384 . S
C145 C146 1.378 . S
C146 C145 1.378 . S
C146 C147 1.378 . S
C146 H158 0.952 . S
C147 C146 1.378 . S
C147 H159 0.950 . S
C147 C178 1.383 . S
H148 C167 0.947 . S
H149 C168 0.946 . S
H150 C170 0.953 . S
H151 C171 0.945 . S
H152 C173 0.967 . S
H153 C174 0.949 . S
H154 C176 0.950 . S
H155 C177 0.948 . S
H156 C179 0.951 . S
H157 C144 0.947 . S
H158 C146 0.952 . S
H159 C147 0.950 . S
N160 C163 1.382 . S
N160 C165 1.363 . S
N161 C163 1.371 . S
N161 C164 1.372 . S
N162 C164 1.361 . S
N162 C165 1.377 . S
C163 N160 1.382 . S
C163 N161 1.371 . S
C163 C166 1.480 . S
C164 N161 1.372 . S
C164 N162 1.361 . S
C164 C172 1.457 . S
C165 N160 1.363 . S
C165 N162 1.377 . S
C165 C178 1.479 . S
C166 C163 1.480 . S
C166 C167 1.383 . S
C166 C171 1.385 . S
C167 H148 0.947 . S
C167 C166 1.383 . S
C167 C168 1.388 1_455 S
C168 H149 0.946 . S
C168 C167 1.388 1_655 S
C168 C169 1.384 . S
C169 C168 1.384 . S
C169 C170 1.377 1_655 S
C170 H150 0.953 . S
C170 C169 1.377 1_455 S
C170 C171 1.369 . S
C171 H151 0.945 . S
C171 C166 1.385 . S
C171 C170 1.369 . S
C172 C164 1.457 . S
C172 C173 1.372 . S
C172 C177 1.364 . S
C173 H152 0.967 . S
C173 C172 1.372 . S
C173 C174 1.389 1_565 S
C174 H153 0.949 . S
C174 C173 1.389 1_545 S
C174 C175 1.387 . S
C175 C174 1.387 . S
C175 C176 1.372 1_545 S
C176 H154 0.950 . S
C176 C175 1.372 1_565 S
C176 C177 1.379 . S
C177 H155 0.948 . S
C177 C172 1.364 . S
C177 C176 1.379 . S
C178 C147 1.383 . S
C178 C165 1.479 . S
C178 C179 1.398 . S
C179 C144 1.382 . S
C179 H156 0.951 . S
C179 C178 1.398 . S
C180 C181 1.384 . S
C180 H193 0.947 . S
C180 C215 1.382 . S
C181 C180 1.384 . S
C181 C182 1.378 . S
C182 C181 1.378 . S
C182 C183 1.378 . S
C182 H194 0.952 . S
C183 C182 1.378 . S
C183 H195 0.950 . S
C183 C214 1.383 . S
H184 C203 0.947 . S
H185 C204 0.946 . S
H186 C206 0.953 . S
H187 C207 0.945 . S
H188 C209 0.952 . S
H189 C210 0.949 . S
H190 C212 0.950 . S
H191 C213 0.948 . S
H192 C215 0.951 . S
H193 C180 0.947 . S
H194 C182 0.952 . S
H195 C183 0.950 . S
N196 C199 1.382 . S
N196 C201 1.363 . S
N197 C199 1.371 . S
N197 C200 1.372 . S
N198 C200 1.361 . S
N198 C201 1.377 . S
C199 N196 1.382 . S
C199 N197 1.371 . S
C199 C202 1.480 . S
C200 N197 1.372 . S
C200 N198 1.361 . S
C200 C208 1.457 . S
C201 N196 1.363 . S
C201 N198 1.377 . S
C201 C214 1.479 . S
C202 C199 1.480 . S
C202 C203 1.383 . S
C202 C207 1.385 . S
C203 H184 0.947 . S
C203 C202 1.383 . S
C203 C204 1.388 . S
C204 H185 0.946 . S
C204 C203 1.388 . S
C204 C205 1.384 . S
C205 C204 1.384 . S
C205 C206 1.377 . S
C206 H186 0.953 . S
C206 C205 1.377 . S
C206 C207 1.369 . S
C207 H187 0.945 . S
C207 C202 1.385 . S
C207 C206 1.369 . S
C208 C200 1.457 . S
C208 C209 1.372 . S
C208 C213 1.364 . S
C209 H188 0.952 . S
C209 C208 1.372 . S
C209 C210 1.389 . S
C210 H189 0.949 . S
C210 C209 1.389 . S
C210 C211 1.387 . S
C211 C210 1.387 . S
C211 C212 1.372 . S
C212 H190 0.950 . S
C212 C211 1.372 . S
C212 C213 1.379 . S
C213 H191 0.948 . S
C213 C208 1.364 . S
C213 C212 1.379 . S
C214 C183 1.383 . S
C214 C201 1.479 . S
C214 C215 1.398 . S
C215 C180 1.382 . S
C215 H192 0.951 . S
C215 C214 1.398 . S
C216 C217 1.384 . S
C216 H229 0.947 . S
C216 C251 1.382 . S
C217 C216 1.384 . S
C217 C218 1.378 . S
C218 C217 1.378 . S
C218 C219 1.378 . S
C218 H230 0.952 . S
C219 C218 1.378 . S
C219 H231 0.950 . S
C219 C250 1.383 . S
H220 C239 0.947 . S
H221 C240 0.946 . S
H222 C242 0.953 . S
H223 C243 0.945 . S
H224 C245 0.952 . S
H225 C246 0.949 . S
H226 C248 0.950 . S
H227 C249 0.950 . S
H228 C251 0.951 . S
H229 C216 0.947 . S
H230 C218 0.952 . S
H231 C219 0.950 . S
N232 C235 1.382 . S
N232 C237 1.363 . S
N233 C235 1.371 . S
N233 C236 1.372 . S
N234 C236 1.361 . S
N234 C237 1.377 . S
C235 N232 1.382 . S
C235 N233 1.371 . S
C235 C238 1.480 . S
C236 N233 1.372 . S
C236 N234 1.361 . S
C236 C244 1.457 . S
C237 N232 1.363 . S
C237 N234 1.377 . S
C237 C250 1.479 . S
C238 C235 1.480 . S
C238 C239 1.383 . S
C238 C243 1.385 . S
C239 H220 0.947 . S
C239 C238 1.383 . S
C239 C240 1.388 . S
C240 H221 0.946 . S
C240 C239 1.388 . S
C240 C241 1.384 . S
C241 C240 1.384 . S
C241 C242 1.377 . S
C242 H222 0.953 . S
C242 C241 1.377 . S
C242 C243 1.369 . S
C243 H223 0.945 . S
C243 C238 1.385 . S
C243 C242 1.369 . S
C244 C236 1.457 . S
C244 C245 1.372 . S
C244 C249 1.354 1_655 S
C245 H224 0.952 . S
C245 C244 1.372 . S
C245 C246 1.389 . S
C246 H225 0.949 . S
C246 C245 1.389 . S
C246 C247 1.387 1_655 S
C247 C246 1.387 1_455 S
C247 C248 1.372 . S
C248 H226 0.950 . S
C248 C247 1.372 . S
C248 C249 1.386 . S
C249 H227 0.950 . S
C249 C244 1.354 1_455 S
C249 C248 1.386 . S
C250 C219 1.383 . S
C250 C237 1.479 . S
C250 C251 1.398 . S
C251 C216 1.382 . S
C251 H228 0.951 . S
C251 C250 1.398 . S
C252 C253 1.384 . S
C252 H265 0.947 . S
C252 C287 1.382 . S
C253 C252 1.384 . S
C253 C254 1.378 . S
C254 C253 1.378 . S
C254 C255 1.378 . S
C254 H266 0.952 . S
C255 C254 1.378 . S
C255 H267 0.950 . S
C255 C286 1.383 . S
H256 C275 0.947 . S
H257 C276 0.946 . S
H258 C278 0.953 . S
H259 C279 0.945 . S
H260 C281 0.952 . S
H261 C282 0.949 . S
H262 C284 0.950 . S
H263 C285 0.948 . S
H264 C287 0.951 . S
H265 C252 0.947 . S
H266 C254 0.952 . S
H267 C255 0.950 . S
N268 C271 1.382 . S
N268 C273 1.363 . S
N269 C271 1.371 . S
N269 C272 1.372 . S
N270 C272 1.361 . S
N270 C273 1.377 . S
C271 N268 1.382 . S
C271 N269 1.371 . S
C271 C274 1.480 . S
C272 N269 1.372 . S
C272 N270 1.361 . S
C272 C280 1.457 . S
C273 N268 1.363 . S
C273 N270 1.377 . S
C273 C286 1.479 . S
C274 C271 1.480 . S
C274 C275 1.383 . S
C274 C279 1.385 . S
C275 H256 0.947 . S
C275 C274 1.383 . S
C275 C276 1.388 . S
C276 H257 0.946 . S
C276 C275 1.388 . S
C276 C277 1.384 . S
C277 C276 1.384 . S
C277 C278 1.377 . S
C278 H258 0.953 . S
C278 C277 1.377 . S
C278 C279 1.369 . S
C279 H259 0.945 . S
C279 C274 1.385 . S
C279 C278 1.369 . S
C280 C272 1.457 . S
C280 C281 1.372 . S
C280 C285 1.364 . S
C281 H260 0.952 . S
C281 C280 1.372 . S
C281 C282 1.389 . S
C282 H261 0.949 . S
C282 C281 1.389 . S
C282 C283 1.387 . S
C283 C282 1.387 . S
C283 C284 1.372 . S
C284 H262 0.950 . S
C284 C283 1.372 . S
C284 C285 1.379 . S
C285 H263 0.948 . S
C285 C280 1.364 . S
C285 C284 1.379 . S
C286 C255 1.383 . S
C286 C273 1.479 . S
C286 C287 1.398 . S
C287 C252 1.382 . S
C287 H264 0.951 . S
C287 C286 1.398 . S
C288 C289 1.384 . S
C288 H301 0.947 . S
C288 C323 1.382 . S
C289 C288 1.384 . S
C289 C290 1.378 . S
C290 C289 1.378 . S
C290 C291 1.378 . S
C290 H302 0.952 . S
C291 C290 1.378 . S
C291 H303 0.950 . S
C291 C322 1.383 . S
H292 C311 0.947 . S
H293 C312 0.946 . S
H294 C314 0.953 . S
H295 C315 0.945 . S
H296 C317 0.952 . S
H297 C318 0.949 . S
H298 C320 0.950 . S
H299 C321 0.948 . S
H300 C323 0.951 . S
H301 C288 0.947 . S
H302 C290 0.952 . S
H303 C291 0.950 . S
N304 C307 1.382 . S
N304 C309 1.363 . S
N305 C307 1.371 . S
N305 C308 1.372 . S
N306 C308 1.361 . S
N306 C309 1.377 . S
C307 N304 1.382 . S
C307 N305 1.371 . S
C307 C310 1.480 . S
C308 N305 1.372 . S
C308 N306 1.361 . S
C308 C316 1.457 . S
C309 N304 1.363 . S
C309 N306 1.377 . S
C309 C322 1.479 . S
C310 C307 1.480 . S
C310 C311 1.383 . S
C310 C315 1.385 . S
C311 H292 0.947 . S
C311 C310 1.383 . S
C311 C312 1.388 . S
C312 H293 0.946 . S
C312 C311 1.388 . S
C312 C313 1.384 . S
C313 C312 1.384 . S
C313 C314 1.377 . S
C314 H294 0.953 . S
C314 C313 1.377 . S
C314 C315 1.369 . S
C315 H295 0.945 . S
C315 C310 1.385 . S
C315 C314 1.369 . S
C316 C308 1.457 . S
C316 C317 1.372 . S
C316 C321 1.364 . S
C317 H296 0.952 . S
C317 C316 1.372 . S
C317 C318 1.389 . S
C318 H297 0.949 . S
C318 C317 1.389 . S
C318 C319 1.387 . S
C319 C318 1.387 . S
C319 C320 1.372 . S
C320 H298 0.950 . S
C320 C319 1.372 . S
C320 C321 1.379 . S
C321 H299 0.948 . S
C321 C316 1.364 . S
C321 C320 1.379 . S
C322 C291 1.383 . S
C322 C309 1.479 . S
C322 C323 1.398 . S
C323 C288 1.382 . S
C323 H300 0.951 . S
C323 C322 1.398 . S
C324 C325 1.384 . S
C324 H337 0.947 . S
C324 C359 1.382 . S
C325 C324 1.384 . S
C325 C326 1.378 . S
C326 C325 1.378 . S
C326 C327 1.378 . S
C326 H338 0.952 . S
C327 C326 1.378 . S
C327 H339 0.950 . S
C327 C358 1.383 . S
H328 C347 0.947 . S
H329 C348 0.946 . S
H330 C350 0.953 . S
H331 C351 0.947 1_545 S
H332 C353 0.952 . S
H333 C354 0.949 . S
H334 C356 0.950 . S
H335 C357 0.948 . S
H336 C359 0.951 . S
H337 C324 0.947 . S
H338 C326 0.952 . S
H339 C327 0.950 . S
N340 C343 1.382 . S
N340 C345 1.363 . S
N341 C343 1.371 . S
N341 C344 1.372 . S
N342 C344 1.361 . S
N342 C345 1.377 . S
C343 N340 1.382 . S
C343 N341 1.371 . S
C343 C346 1.480 . S
C344 N341 1.372 . S
C344 N342 1.361 . S
C344 C352 1.457 . S
C345 N340 1.363 . S
C345 N342 1.377 . S
C345 C358 1.479 . S
C346 C343 1.480 . S
C346 C347 1.383 . S
C346 C351 1.379 . S
C347 H328 0.947 . S
C347 C346 1.383 . S
C347 C348 1.388 . S
C348 H329 0.946 . S
C348 C347 1.388 . S
C348 C349 1.384 1_565 S
C349 C348 1.384 1_545 S
C349 C350 1.377 . S
C350 H330 0.953 . S
C350 C349 1.377 . S
C350 C351 1.373 1_545 S
C351 H331 0.947 1_565 S
C351 C346 1.379 . S
C351 C350 1.373 1_565 S
C352 C344 1.457 . S
C352 C353 1.372 . S
C352 C357 1.364 . S
C353 H332 0.952 . S
C353 C352 1.372 . S
C353 C354 1.389 . S
C354 H333 0.949 . S
C354 C353 1.389 . S
C354 C355 1.387 . S
C355 C354 1.387 . S
C355 C356 1.372 . S
C356 H334 0.950 . S
C356 C355 1.372 . S
C356 C357 1.379 . S
C357 H335 0.948 . S
C357 C352 1.364 . S
C357 C356 1.379 . S
C358 C327 1.383 . S
C358 C345 1.479 . S
C358 C359 1.398 . S
C359 C324 1.382 . S
C359 H336 0.951 . S
C359 C358 1.398 . S
C360 C361 1.384 . S
C360 H373 0.947 . S
C360 C395 1.382 . S
C361 C360 1.384 . S
C361 C362 1.378 . S
C362 C361 1.378 . S
C362 C363 1.378 . S
C362 H374 0.952 . S
C363 C362 1.378 . S
C363 H375 0.950 . S
C363 C394 1.383 . S
H364 C383 0.947 . S
H365 C384 0.946 . S
H366 C386 0.953 . S
H367 C387 0.945 . S
H368 C389 0.952 . S
H369 C390 0.949 . S
H370 C392 0.950 . S
H371 C393 0.948 . S
H372 C395 0.951 . S
H373 C360 0.947 . S
H374 C362 0.952 . S
H375 C363 0.950 . S
N376 C379 1.382 . S
N376 C381 1.363 . S
N377 C379 1.371 . S
N377 C380 1.372 . S
N378 C380 1.361 . S
N378 C381 1.377 . S
C379 N376 1.382 . S
C379 N377 1.371 . S
C379 C382 1.480 . S
C380 N377 1.372 . S
C380 N378 1.361 . S
C380 C388 1.457 . S
C381 N376 1.363 . S
C381 N378 1.377 . S
C381 C394 1.479 . S
C382 C379 1.480 . S
C382 C383 1.383 . S
C382 C387 1.385 . S
C383 H364 0.947 . S
C383 C382 1.383 . S
C383 C384 1.388 . S
C384 H365 0.946 . S
C384 C383 1.388 . S
C384 C385 1.384 . S
C385 C384 1.384 . S
C385 C386 1.377 . S
C386 H366 0.953 . S
C386 C385 1.377 . S
C386 C387 1.369 . S
C387 H367 0.945 . S
C387 C382 1.385 . S
C387 C386 1.369 . S
C388 C380 1.457 . S
C388 C389 1.372 . S
C388 C393 1.364 . S
C389 H368 0.952 . S
C389 C388 1.372 . S
C389 C390 1.389 . S
C390 H369 0.949 . S
C390 C389 1.389 . S
C390 C391 1.387 . S
C391 C390 1.387 . S
C391 C392 1.372 . S
C392 H370 0.950 . S
C392 C391 1.372 . S
C392 C393 1.379 . S
C393 H371 0.948 . S
C393 C388 1.364 . S
C393 C392 1.379 . S
C394 C363 1.383 . S
C394 C381 1.479 . S
C394 C395 1.398 . S
C395 C360 1.382 . S
C395 H372 0.951 . S
C395 C394 1.398 . S
C396 C397 1.384 . S
C396 H409 0.947 . S
C396 C431 1.382 . S
C397 C396 1.384 . S
C397 C398 1.378 . S
C398 C397 1.378 . S
C398 C399 1.378 . S
C398 H410 0.952 . S
C399 C398 1.378 . S
C399 H411 0.950 . S
C399 C430 1.383 . S
H400 C419 0.947 . S
H401 C420 0.946 . S
H402 C422 0.953 . S
H403 C423 0.945 . S
H404 C425 0.952 . S
H405 C426 0.949 . S
H406 C428 0.950 . S
H407 C429 0.948 . S
H408 C431 0.951 . S
H409 C396 0.947 . S
H410 C398 0.952 . S
H411 C399 0.950 . S
N412 C415 1.382 . S
N412 C417 1.363 . S
N413 C415 1.371 . S
N413 C416 1.372 . S
N414 C416 1.361 . S
N414 C417 1.377 . S
C415 N412 1.382 . S
C415 N413 1.371 . S
C415 C418 1.480 . S
C416 N413 1.372 . S
C416 N414 1.361 . S
C416 C424 1.457 . S
C417 N412 1.363 . S
C417 N414 1.377 . S
C417 C430 1.479 . S
C418 C415 1.480 . S
C418 C419 1.383 . S
C418 C423 1.385 . S
C419 H400 0.947 . S
C419 C418 1.383 . S
C419 C420 1.388 . S
C420 H401 0.946 . S
C420 C419 1.388 . S
C420 C421 1.384 . S
C421 C420 1.384 . S
C421 C422 1.377 . S
C422 H402 0.953 . S
C422 C421 1.377 . S
C422 C423 1.369 . S
C423 H403 0.945 . S
C423 C418 1.385 . S
C423 C422 1.369 . S
C424 C416 1.457 . S
C424 C425 1.372 . S
C424 C429 1.364 . S
C425 H404 0.952 . S
C425 C424 1.372 . S
C425 C426 1.389 . S
C426 H405 0.949 . S
C426 C425 1.389 . S
C426 C427 1.387 . S
C427 C426 1.387 . S
C427 C428 1.372 . S
C428 H406 0.950 . S
C428 C427 1.372 . S
C428 C429 1.379 . S
C429 H407 0.948 . S
C429 C424 1.364 . S
C429 C428 1.379 . S
C430 C399 1.383 . S
C430 C417 1.479 . S
C430 C431 1.398 . S
C431 C396 1.382 . S
C431 H408 0.951 . S
C431 C430 1.398 . S
C432 C433 1.384 . S
C432 H445 0.947 . S
C432 C467 1.382 . S
C433 C432 1.384 . S
C433 C434 1.378 . S
C434 C433 1.378 . S
C434 C435 1.378 . S
C434 H446 0.952 . S
C435 C434 1.378 . S
C435 H447 0.950 . S
C435 C466 1.383 . S
H436 C455 0.947 . S
H437 C456 0.946 . S
H438 C458 0.953 . S
H439 C459 0.945 . S
H440 C461 0.952 . S
H441 C462 0.949 . S
H442 C464 0.950 . S
H443 C465 0.948 . S
H444 C467 0.951 . S
H445 C432 0.947 . S
H446 C434 0.952 . S
H447 C435 0.950 . S
N448 C451 1.382 . S
N448 C453 1.363 . S
N449 C451 1.371 . S
N449 C452 1.372 . S
N450 C452 1.361 . S
N450 C453 1.377 . S
C451 N448 1.382 . S
C451 N449 1.371 . S
C451 C454 1.480 . S
C452 N449 1.372 . S
C452 N450 1.361 . S
C452 C460 1.457 . S
C453 N448 1.363 . S
C453 N450 1.377 . S
C453 C466 1.479 . S
C454 C451 1.480 . S
C454 C455 1.383 . S
C454 C459 1.385 . S
C455 H436 0.947 . S
C455 C454 1.383 . S
C455 C456 1.388 . S
C456 H437 0.946 . S
C456 C455 1.388 . S
C456 C457 1.384 . S
C457 C456 1.384 . S
C457 C458 1.377 . S
C458 H438 0.953 . S
C458 C457 1.377 . S
C458 C459 1.369 . S
C459 H439 0.945 . S
C459 C454 1.385 . S
C459 C458 1.369 . S
C460 C452 1.457 . S
C460 C461 1.372 . S
C460 C465 1.364 . S
C461 H440 0.952 . S
C461 C460 1.372 . S
C461 C462 1.389 . S
C462 H441 0.949 . S
C462 C461 1.389 . S
C462 C463 1.387 . S
C463 C462 1.387 . S
C463 C464 1.372 . S
C464 H442 0.950 . S
C464 C463 1.372 . S
C464 C465 1.379 . S
C465 H443 0.948 . S
C465 C460 1.364 . S
C465 C464 1.379 . S
C466 C435 1.383 . S
C466 C453 1.479 . S
C466 C467 1.398 . S
C467 C432 1.382 . S
C467 H444 0.951 . S
C467 C466 1.398 . S
C468 C469 1.384 . S
C468 H481 0.947 . S
C468 C503 1.382 1_554 S
C469 C468 1.384 . S
C469 C470 1.378 1_554 S
C470 C469 1.378 1_556 S
C470 C471 1.378 . S
C470 H482 0.952 . S
C471 C470 1.378 . S
C471 H483 0.950 . S
C471 C502 1.383 . S
H472 C491 0.947 . S
H473 C492 0.946 . S
H474 C494 0.953 . S
H475 C495 0.945 . S
H476 C497 0.952 . S
H477 C498 0.949 . S
H478 C500 0.950 . S
H479 C501 0.948 . S
H480 C503 0.951 . S
H481 C468 0.947 . S
H482 C470 0.952 . S
H483 C471 0.950 . S
N484 C487 1.382 . S
N484 C489 1.363 . S
N485 C487 1.371 . S
N485 C488 1.372 . S
N486 C488 1.361 . S
N486 C489 1.377 . S
C487 N484 1.382 . S
C487 N485 1.371 . S
C487 C490 1.480 . S
C488 N485 1.372 . S
C488 N486 1.361 . S
C488 C496 1.457 . S
C489 N484 1.363 . S
C489 N486 1.377 . S
C489 C502 1.479 . S
C490 C487 1.480 . S
C490 C491 1.383 . S
C490 C495 1.385 . S
C491 H472 0.947 . S
C491 C490 1.383 . S
C491 C492 1.388 . S
C492 H473 0.946 . S
C492 C491 1.388 . S
C492 C493 1.384 . S
C493 C492 1.384 . S
C493 C494 1.377 . S
C494 H474 0.953 . S
C494 C493 1.377 . S
C494 C495 1.369 . S
C495 H475 0.945 . S
C495 C490 1.385 . S
C495 C494 1.369 . S
C496 C488 1.457 . S
C496 C497 1.372 . S
C496 C501 1.364 . S
C497 H476 0.952 . S
C497 C496 1.372 . S
C497 C498 1.389 . S
C498 H477 0.949 . S
C498 C497 1.389 . S
C498 C499 1.387 . S
C499 C498 1.387 . S
C499 C500 1.372 . S
C500 H478 0.950 . S
C500 C499 1.372 . S
C500 C501 1.379 . S
C501 H479 0.948 . S
C501 C496 1.364 . S
C501 C500 1.379 . S
C502 C471 1.383 . S
C502 C489 1.479 . S
C502 C503 1.398 . S
C503 C468 1.382 1_556 S
C503 H480 0.951 . S
C503 C502 1.398 . S
C504 C505 1.384 . S
C504 H517 0.947 . S
C504 C539 1.382 . S
C505 C504 1.384 . S
C505 C506 1.378 . S
C506 C505 1.378 . S
C506 C507 1.378 . S
C506 H518 0.952 . S
C507 C506 1.378 . S
C507 H519 0.950 . S
C507 C538 1.383 . S
H508 C527 0.947 . S
H509 C528 0.946 . S
H510 C530 0.953 . S
H511 C531 0.945 . S
H512 C533 0.952 . S
H513 C534 0.949 . S
H514 C536 0.950 . S
H515 C537 0.948 . S
H516 C539 0.951 . S
H517 C504 0.947 . S
H518 C506 0.952 . S
H519 C507 0.950 . S
N520 C523 1.382 . S
N520 C525 1.363 . S
N521 C523 1.371 . S
N521 C524 1.372 . S
N522 C524 1.361 . S
N522 C525 1.377 . S
C523 N520 1.382 . S
C523 N521 1.371 . S
C523 C526 1.480 . S
C524 N521 1.372 . S
C524 N522 1.361 . S
C524 C532 1.457 . S
C525 N520 1.363 . S
C525 N522 1.377 . S
C525 C538 1.479 . S
C526 C523 1.480 . S
C526 C527 1.383 . S
C526 C531 1.385 . S
C527 H508 0.947 . S
C527 C526 1.383 . S
C527 C528 1.388 . S
C528 H509 0.946 . S
C528 C527 1.388 . S
C528 C529 1.384 . S
C529 C528 1.384 . S
C529 C530 1.377 . S
C530 H510 0.953 . S
C530 C529 1.377 . S
C530 C531 1.369 . S
C531 H511 0.945 . S
C531 C526 1.385 . S
C531 C530 1.369 . S
C532 C524 1.457 . S
C532 C533 1.372 . S
C532 C537 1.364 . S
C533 H512 0.952 . S
C533 C532 1.372 . S
C533 C534 1.389 . S
C534 H513 0.949 . S
C534 C533 1.389 . S
C534 C535 1.387 . S
C535 C534 1.387 . S
C535 C536 1.372 . S
C536 H514 0.950 . S
C536 C535 1.372 . S
C536 C537 1.379 . S
C537 H515 0.948 . S
C537 C532 1.364 . S
C537 C536 1.379 . S
C538 C507 1.383 . S
C538 C525 1.479 . S
C538 C539 1.398 . S
C539 C504 1.382 . S
C539 H516 0.951 . S
C539 C538 1.398 . S
C540 C541 1.384 1_556 S
C540 H553 0.947 . S
C540 C575 1.382 . S
C541 C540 1.384 1_554 S
C541 C542 1.378 . S
C542 C541 1.378 . S
C542 C543 1.378 . S
C542 H554 0.952 . S
C543 C542 1.378 . S
C543 H555 0.950 . S
C543 C574 1.383 1_554 S
H544 C563 0.947 . S
H545 C564 0.946 . S
H546 C566 0.953 . S
H547 C567 0.946 1_565 S
H548 C569 0.952 . S
H549 C570 0.949 . S
H550 C572 0.950 . S
H551 C573 0.948 . S
H552 C575 0.951 . S
H553 C540 0.947 . S
H554 C542 0.952 . S
H555 C543 0.950 . S
N556 C559 1.382 . S
N556 C561 1.363 . S
N557 C559 1.371 . S
N557 C560 1.372 . S
N558 C560 1.361 . S
N558 C561 1.377 . S
C559 N556 1.382 . S
C559 N557 1.371 . S
C559 C562 1.480 . S
C560 N557 1.372 . S
C560 N558 1.361 . S
C560 C568 1.457 . S
C561 N556 1.363 . S
C561 N558 1.377 . S
C561 C574 1.479 . S
C562 C559 1.480 . S
C562 C563 1.383 . S
C562 C567 1.381 . S
C563 H544 0.947 . S
C563 C562 1.383 . S
C563 C564 1.388 . S
C564 H545 0.946 . S
C564 C563 1.388 . S
C564 C565 1.384 1_545 S
C565 C564 1.384 1_565 S
C565 C566 1.377 . S
C566 H546 0.953 . S
C566 C565 1.377 . S
C566 C567 1.372 1_565 S
C567 H547 0.946 1_545 S
C567 C562 1.381 . S
C567 C566 1.372 1_545 S
C568 C560 1.457 . S
C568 C569 1.372 . S
C568 C573 1.364 . S
C569 H548 0.952 . S
C569 C568 1.372 . S
C569 C570 1.389 . S
C570 H549 0.949 . S
C570 C569 1.389 . S
C570 C571 1.387 . S
C571 C570 1.387 . S
C571 C572 1.372 . S
C572 H550 0.950 . S
C572 C571 1.372 . S
C572 C573 1.379 . S
C573 H551 0.948 . S
C573 C568 1.364 . S
C573 C572 1.379 . S
C574 C543 1.383 1_556 S
C574 C561 1.479 . S
C574 C575 1.398 . S
C575 C540 1.382 . S
C575 H552 0.951 . S
C575 C574 1.398 . S
Li576 N593 1.990 . S
Li576 O636 1.956 . S
Li576 O637 1.970 1_556 S
Li576 O638 1.961 . S
Li577 N601 1.990 . S
Li577 O636 1.970 1_554 S
Li577 O637 1.956 . S
Li577 O639 1.961 . S
Li578 N623 1.990 . S
Li578 O636 1.961 . S
Li578 O638 1.956 . S
Li578 O639 1.970 1_556 S
Li579 N629 1.990 . S
Li579 O637 1.961 . S
Li579 O638 1.970 1_554 S
Li579 O639 1.956 . S
C580 C582 1.348 1_556 S
C580 C583 1.356 . S
C580 O636 1.325 . S
N581 C584 1.314 1_556 S
N581 C585 1.279 . S
C582 C580 1.348 1_554 S
C582 C584 1.353 . S
C582 H640 0.929 . S
C583 C580 1.356 . S
C583 C585 1.358 . S
C583 H641 0.930 . S
C584 N581 1.314 1_554 S
C584 C582 1.353 . S
C584 H642 0.930 . S
C585 N581 1.279 . S
C585 C583 1.358 . S
C585 H643 0.930 . S
C586 C589 1.348 . S
C586 C590 1.356 . S
C586 O637 1.325 . S
C587 N588 1.279 . S
C587 C590 1.358 . S
C587 H644 0.930 . S
N588 C587 1.279 . S
N588 C591 1.314 . S
C589 C586 1.348 . S
C589 C591 1.353 . S
C589 H645 0.929 . S
C590 C586 1.356 . S
C590 C587 1.358 . S
C590 H646 0.930 . S
C591 N588 1.314 . S
C591 C589 1.353 . S
C591 H647 0.930 . S
C592 N593 1.314 . S
C592 C597 1.353 . S
C592 H598 0.930 . S
N593 Li576 1.990 . S
N593 C592 1.314 . S
N593 C595 1.279 . S
C594 C595 1.358 . S
C594 C596 1.356 . S
C594 H648 0.930 . S
C595 N593 1.279 . S
C595 C594 1.358 . S
C595 H599 0.930 . S
C596 C594 1.356 . S
C596 C597 1.348 . S
C597 C592 1.353 . S
C597 C596 1.348 . S
C597 H649 0.929 . S
H598 C592 0.930 . S
H599 C595 0.930 . S
C600 N601 1.314 . S
C600 C602 1.353 . S
C600 H606 0.930 . S
N601 Li577 1.990 . S
N601 C600 1.314 . S
N601 C604 1.279 . S
C602 C600 1.353 . S
C602 C605 1.348 . S
C602 H650 0.929 . S
C603 C604 1.358 . S
C603 C605 1.356 . S
C603 H651 0.930 . S
C604 N601 1.279 . S
C604 C603 1.358 . S
C604 H607 0.930 . S
C605 C602 1.348 . S
C605 C603 1.356 . S
H606 C600 0.930 . S
H607 C604 0.930 . S
C608 C610 1.348 . S
C608 C611 1.356 . S
C608 O638 1.325 . S
N609 C612 1.314 . S
N609 C613 1.279 . S
C610 C608 1.348 . S
C610 C612 1.353 . S
C610 H652 0.929 . S
C611 C608 1.356 . S
C611 C613 1.358 . S
C611 H653 0.930 . S
C612 N609 1.314 . S
C612 C610 1.353 . S
C612 H654 0.930 . S
C613 N609 1.279 . S
C613 C611 1.358 . S
C613 H655 0.930 . S
C614 C615 1.348 1_554 S
C614 C616 1.356 . S
C614 O639 1.325 . S
C615 C614 1.348 1_556 S
C615 C617 1.353 . S
C615 H656 0.929 . S
C616 C614 1.356 . S
C616 C618 1.358 . S
C616 H657 0.930 . S
C617 C615 1.353 . S
C617 N619 1.314 1_556 S
C617 H658 0.930 . S
C618 C616 1.358 . S
C618 N619 1.279 . S
C618 H659 0.930 . S
N619 C617 1.314 1_554 S
N619 C618 1.279 . S
C620 C622 1.353 . S
C620 N623 1.314 . S
C620 H626 0.930 . S
C621 N623 1.279 . S
C621 C624 1.358 . S
C621 H627 0.930 . S
C622 C620 1.353 . S
C622 C625 1.348 . S
C622 H660 0.929 . S
N623 Li578 1.990 . S
N623 C620 1.314 . S
N623 C621 1.279 . S
C624 C621 1.358 . S
C624 C625 1.356 . S
C624 H661 0.930 . S
C625 C622 1.348 . S
C625 C624 1.356 . S
H626 C620 0.930 . S
H627 C621 0.930 . S
C628 N629 1.314 . S
C628 C630 1.353 . S
C628 H634 0.930 . S
N629 Li579 1.990 . S
N629 C628 1.314 . S
N629 C632 1.279 . S
C630 C628 1.353 . S
C630 C633 1.348 . S
C630 H662 0.929 . S
C631 C632 1.358 . S
C631 C633 1.356 . S
C631 H663 0.930 . S
C632 N629 1.279 . S
C632 C631 1.358 . S
C632 H635 0.930 . S
C633 C630 1.348 . S
C633 C631 1.356 . S
H634 C628 0.930 . S
H635 C632 0.930 . S
O636 Li576 1.956 . S
O636 Li577 1.970 1_556 S
O636 Li578 1.961 . S
O636 C580 1.325 . S
O637 Li576 1.970 1_554 S
O637 Li577 1.956 . S
O637 Li579 1.961 . S
O637 C586 1.325 . S
O638 Li576 1.961 . S
O638 Li578 1.956 . S
O638 Li579 1.970 1_556 S
O638 C608 1.325 . S
O639 Li577 1.961 . S
O639 Li578 1.970 1_554 S
O639 Li579 1.956 . S
O639 C614 1.325 . S
H640 C582 0.929 . S
H641 C583 0.930 . S
H642 C584 0.930 . S
H643 C585 0.930 . S
H644 C587 0.930 . S
H645 C589 0.929 . S
H646 C590 0.930 . S
H647 C591 0.930 . S
H648 C594 0.930 . S
H649 C597 0.929 . S
H650 C602 0.929 . S
H651 C603 0.930 . S
H652 C610 0.929 . S
H653 C611 0.930 . S
H654 C612 0.930 . S
H655 C613 0.930 . S
H656 C615 0.929 . S
H657 C616 0.930 . S
H658 C617 0.930 . S
H659 C618 0.930 . S
H660 C622 0.929 . S
H661 C624 0.930 . S
H662 C630 0.929 . S
H663 C631 0.930 . S
Li664 N681 1.990 . S
Li664 O724 1.956 . S
Li664 O725 1.970 . S
Li664 O726 1.961 . S
Li665 N689 1.990 . S
Li665 O724 1.970 . S
Li665 O725 1.956 . S
Li665 O727 1.961 . S
Li666 N711 1.990 . S
Li666 O724 1.961 . S
Li666 O726 1.956 . S
Li666 O727 1.970 . S
Li667 N717 1.990 . S
Li667 O725 1.961 . S
Li667 O726 1.970 . S
Li667 O727 1.956 . S
C668 C670 1.348 . S
C668 C671 1.356 . S
C668 O724 1.325 . S
N669 C672 1.314 . S
N669 C673 1.279 . S
C670 C668 1.348 . S
C670 C672 1.353 . S
C670 H728 0.929 . S
C671 C668 1.356 . S
C671 C673 1.358 . S
C671 H729 0.930 . S
C672 N669 1.314 . S
C672 C670 1.353 . S
C672 H730 0.930 . S
C673 N669 1.279 . S
C673 C671 1.358 . S
C673 H731 0.930 . S
C674 C677 1.348 . S
C674 C678 1.356 . S
C674 O725 1.325 . S
C675 N676 1.279 . S
C675 C678 1.358 . S
C675 H732 0.930 . S
N676 C675 1.279 . S
N676 C679 1.314 . S
C677 C674 1.348 . S
C677 C679 1.353 . S
C677 H733 0.929 . S
C678 C674 1.356 . S
C678 C675 1.358 . S
C678 H734 0.930 . S
C679 N676 1.314 . S
C679 C677 1.353 . S
C679 H735 0.930 . S
C680 N681 1.314 . S
C680 C685 1.353 . S
C680 H686 0.930 . S
N681 Li664 1.990 . S
N681 C680 1.314 . S
N681 C683 1.279 . S
C682 C683 1.358 . S
C682 C684 1.356 . S
C682 H736 0.930 . S
C683 N681 1.279 . S
C683 C682 1.358 . S
C683 H687 0.930 . S
C684 C682 1.356 . S
C684 C685 1.348 . S
C685 C680 1.353 . S
C685 C684 1.348 . S
C685 H737 0.929 . S
H686 C680 0.930 . S
H687 C683 0.930 . S
C688 N689 1.314 . S
C688 C690 1.353 . S
C688 H694 0.930 . S
N689 Li665 1.990 . S
N689 C688 1.314 . S
N689 C692 1.279 . S
C690 C688 1.353 . S
C690 C693 1.348 . S
C690 H738 0.929 . S
C691 C692 1.358 . S
C691 C693 1.356 . S
C691 H739 0.930 . S
C692 N689 1.279 . S
C692 C691 1.358 . S
C692 H695 0.930 . S
C693 C690 1.348 . S
C693 C691 1.356 . S
H694 C688 0.930 . S
H695 C692 0.930 . S
C696 C698 1.348 . S
C696 C699 1.356 . S
C696 O726 1.325 . S
N697 C700 1.314 . S
N697 C701 1.279 . S
C698 C696 1.348 . S
C698 C700 1.353 . S
C698 H740 0.929 . S
C699 C696 1.356 . S
C699 C701 1.358 . S
C699 H741 0.930 . S
C700 N697 1.314 . S
C700 C698 1.353 . S
C700 H742 0.930 . S
C701 N697 1.279 . S
C701 C699 1.358 . S
C701 H743 0.930 . S
C702 C703 1.348 . S
C702 C704 1.356 . S
C702 O727 1.325 . S
C703 C702 1.348 . S
C703 C705 1.353 . S
C703 H744 0.929 . S
C704 C702 1.356 . S
C704 C706 1.358 . S
C704 H745 0.930 . S
C705 C703 1.353 . S
C705 N707 1.314 . S
C705 H746 0.930 . S
C706 C704 1.358 . S
C706 N707 1.279 . S
C706 H747 0.930 . S
N707 C705 1.314 . S
N707 C706 1.279 . S
C708 C710 1.353 . S
C708 N711 1.314 . S
C708 H714 0.930 . S
C709 N711 1.279 . S
C709 C712 1.358 . S
C709 H715 0.930 . S
C710 C708 1.353 . S
C710 C713 1.348 . S
C710 H748 0.929 . S
N711 Li666 1.990 . S
N711 C708 1.314 . S
N711 C709 1.279 . S
C712 C709 1.358 . S
C712 C713 1.356 . S
C712 H749 0.930 . S
C713 C710 1.348 . S
C713 C712 1.356 . S
H714 C708 0.930 . S
H715 C709 0.930 . S
C716 N717 1.314 . S
C716 C718 1.353 . S
C716 H722 0.930 . S
N717 Li667 1.990 . S
N717 C716 1.314 . S
N717 C720 1.279 . S
C718 C716 1.353 . S
C718 C721 1.348 . S
C718 H750 0.929 . S
C719 C720 1.358 . S
C719 C721 1.356 . S
C719 H751 0.930 . S
C720 N717 1.279 . S
C720 C719 1.358 . S
C720 H723 0.930 . S
C721 C718 1.348 . S
C721 C719 1.356 . S
H722 C716 0.930 . S
H723 C720 0.930 . S
O724 Li664 1.956 . S
O724 Li665 1.970 . S
O724 Li666 1.961 . S
O724 C668 1.325 . S
O725 Li664 1.970 . S
O725 Li665 1.956 . S
O725 Li667 1.961 . S
O725 C674 1.325 . S
O726 Li664 1.961 . S
O726 Li666 1.956 . S
O726 Li667 1.970 . S
O726 C696 1.325 . S
O727 Li665 1.961 . S
O727 Li666 1.970 . S
O727 Li667 1.956 . S
O727 C702 1.325 . S
H728 C670 0.929 . S
H729 C671 0.930 . S
H730 C672 0.930 . S
H731 C673 0.930 . S
H732 C675 0.930 . S
H733 C677 0.929 . S
H734 C678 0.930 . S
H735 C679 0.930 . S
H736 C682 0.930 . S
H737 C685 0.929 . S
H738 C690 0.929 . S
H739 C691 0.930 . S
H740 C698 0.929 . S
H741 C699 0.930 . S
H742 C700 0.930 . S
H743 C701 0.930 . S
H744 C703 0.929 . S
H745 C704 0.930 . S
H746 C705 0.930 . S
H747 C706 0.930 . S
H748 C710 0.929 . S
H749 C712 0.930 . S
H750 C718 0.929 . S
H751 C719 0.930 . S
Li752 N769 1.990 . S
Li752 O812 1.956 . S
Li752 O813 1.970 1_556 S
Li752 O814 1.961 . S
Li753 N777 1.990 . S
Li753 O812 1.970 1_554 S
Li753 O813 1.956 . S
Li753 O815 1.961 . S
Li754 N799 1.990 . S
Li754 O812 1.961 . S
Li754 O814 1.956 . S
Li754 O815 1.970 1_556 S
Li755 N805 1.990 . S
Li755 O813 1.961 . S
Li755 O814 1.970 1_554 S
Li755 O815 1.956 . S
C756 C758 1.348 1_556 S
C756 C759 1.356 . S
C756 O812 1.325 . S
N757 C760 1.314 1_556 S
N757 C761 1.279 . S
C758 C756 1.348 1_554 S
C758 C760 1.353 . S
C758 H816 0.929 . S
C759 C756 1.356 . S
C759 C761 1.358 . S
C759 H817 0.930 . S
C760 N757 1.314 1_554 S
C760 C758 1.353 . S
C760 H818 0.930 . S
C761 N757 1.279 . S
C761 C759 1.358 . S
C761 H819 0.930 . S
C762 C765 1.348 . S
C762 C766 1.356 . S
C762 O813 1.325 . S
C763 N764 1.279 . S
C763 C766 1.358 . S
C763 H820 0.930 . S
N764 C763 1.279 . S
N764 C767 1.314 . S
C765 C762 1.348 . S
C765 C767 1.353 . S
C765 H821 0.929 . S
C766 C762 1.356 . S
C766 C763 1.358 . S
C766 H822 0.930 . S
C767 N764 1.314 . S
C767 C765 1.353 . S
C767 H823 0.930 . S
C768 N769 1.314 . S
C768 C773 1.353 . S
C768 H774 0.930 . S
N769 Li752 1.990 . S
N769 C768 1.314 . S
N769 C771 1.279 . S
C770 C771 1.358 . S
C770 C772 1.356 . S
C770 H824 0.930 . S
C771 N769 1.279 . S
C771 C770 1.358 . S
C771 H775 0.930 . S
C772 C770 1.356 . S
C772 C773 1.348 . S
C773 C768 1.353 . S
C773 C772 1.348 . S
C773 H825 0.929 . S
H774 C768 0.930 . S
H775 C771 0.930 . S
C776 N777 1.314 . S
C776 C778 1.353 . S
C776 H782 0.930 . S
N777 Li753 1.990 . S
N777 C776 1.314 . S
N777 C780 1.279 . S
C778 C776 1.353 . S
C778 C781 1.348 . S
C778 H826 0.929 . S
C779 C780 1.358 . S
C779 C781 1.356 . S
C779 H827 0.930 . S
C780 N777 1.279 . S
C780 C779 1.358 . S
C780 H783 0.930 . S
C781 C778 1.348 . S
C781 C779 1.356 . S
H782 C776 0.930 . S
H783 C780 0.930 . S
C784 C786 1.348 . S
C784 C787 1.356 . S
C784 O814 1.325 . S
N785 C788 1.314 . S
N785 C789 1.279 . S
C786 C784 1.348 . S
C786 C788 1.353 . S
C786 H828 0.929 . S
C787 C784 1.356 . S
C787 C789 1.358 . S
C787 H829 0.930 . S
C788 N785 1.314 . S
C788 C786 1.353 . S
C788 H830 0.930 . S
C789 N785 1.279 . S
C789 C787 1.358 . S
C789 H831 0.930 . S
C790 C791 1.348 1_554 S
C790 C792 1.356 . S
C790 O815 1.325 . S
C791 C790 1.348 1_556 S
C791 C793 1.353 . S
C791 H832 0.929 . S
C792 C790 1.356 . S
C792 C794 1.358 . S
C792 H833 0.930 . S
C793 C791 1.353 . S
C793 N795 1.314 1_556 S
C793 H834 0.930 . S
C794 C792 1.358 . S
C794 N795 1.279 . S
C794 H835 0.930 . S
N795 C793 1.314 1_554 S
N795 C794 1.279 . S
C796 C798 1.353 . S
C796 N799 1.314 . S
C796 H802 0.930 . S
C797 N799 1.279 . S
C797 C800 1.358 . S
C797 H803 0.930 . S
C798 C796 1.353 . S
C798 C801 1.348 . S
C798 H836 0.929 . S
N799 Li754 1.990 . S
N799 C796 1.314 . S
N799 C797 1.279 . S
C800 C797 1.358 . S
C800 C801 1.356 . S
C800 H837 0.930 . S
C801 C798 1.348 . S
C801 C800 1.356 . S
H802 C796 0.930 . S
H803 C797 0.930 . S
C804 N805 1.314 . S
C804 C806 1.353 . S
C804 H810 0.930 . S
N805 Li755 1.990 . S
N805 C804 1.314 . S
N805 C808 1.279 . S
C806 C804 1.353 . S
C806 C809 1.348 . S
C806 H838 0.929 . S
C807 C808 1.358 . S
C807 C809 1.356 . S
C807 H839 0.930 . S
C808 N805 1.279 . S
C808 C807 1.358 . S
C808 H811 0.930 . S
C809 C806 1.348 . S
C809 C807 1.356 . S
H810 C804 0.930 . S
H811 C808 0.930 . S
O812 Li752 1.956 . S
O812 Li753 1.970 1_556 S
O812 Li754 1.961 . S
O812 C756 1.325 . S
O813 Li752 1.970 1_554 S
O813 Li753 1.956 . S
O813 Li755 1.961 . S
O813 C762 1.325 . S
O814 Li752 1.961 . S
O814 Li754 1.956 . S
O814 Li755 1.970 1_556 S
O814 C784 1.325 . S
O815 Li753 1.961 . S
O815 Li754 1.970 1_554 S
O815 Li755 1.956 . S
O815 C790 1.325 . S
H816 C758 0.929 . S
H817 C759 0.930 . S
H818 C760 0.930 . S
H819 C761 0.930 . S
H820 C763 0.930 . S
H821 C765 0.929 . S
H822 C766 0.930 . S
H823 C767 0.930 . S
H824 C770 0.930 . S
H825 C773 0.929 . S
H826 C778 0.929 . S
H827 C779 0.930 . S
H828 C786 0.929 . S
H829 C787 0.930 . S
H830 C788 0.930 . S
H831 C789 0.930 . S
H832 C791 0.929 . S
H833 C792 0.930 . S
H834 C793 0.930 . S
H835 C794 0.930 . S
H836 C798 0.929 . S
H837 C800 0.930 . S
H838 C806 0.929 . S
H839 C807 0.930 . S
Li840 N857 1.990 . S
Li840 O900 1.956 . S
Li840 O901 1.970 1_545 S
Li840 O902 1.961 . S
Li841 N865 1.990 . S
Li841 O900 1.970 1_565 S
Li841 O901 1.956 . S
Li841 O903 1.961 . S
Li842 N887 1.990 . S
Li842 O900 1.961 . S
Li842 O902 1.956 . S
Li842 O903 1.970 1_545 S
Li843 N893 1.990 . S
Li843 O901 1.961 . S
Li843 O902 1.970 1_565 S
Li843 O903 1.956 . S
C844 C846 1.348 . S
C844 C847 1.356 . S
C844 O900 1.325 . S
N845 C848 1.314 . S
N845 C849 1.279 . S
C846 C844 1.348 . S
C846 C848 1.353 . S
C846 H904 0.929 . S
C847 C844 1.356 . S
C847 C849 1.358 . S
C847 H905 0.930 . S
C848 N845 1.314 . S
C848 C846 1.353 . S
C848 H906 0.930 . S
C849 N845 1.279 . S
C849 C847 1.358 . S
C849 H907 0.930 . S
C850 C853 1.348 1_565 S
C850 C854 1.356 . S
C850 O901 1.325 . S
C851 N852 1.279 . S
C851 C854 1.358 . S
C851 H908 0.930 . S
N852 C851 1.279 . S
N852 C855 1.314 1_565 S
C853 C850 1.348 1_545 S
C853 C855 1.353 . S
C853 H909 0.929 . S
C854 C850 1.356 . S
C854 C851 1.358 . S
C854 H910 0.930 . S
C855 N852 1.314 1_545 S
C855 C853 1.353 . S
C855 H911 0.930 . S
C856 N857 1.314 . S
C856 C861 1.353 . S
C856 H862 0.930 . S
N857 Li840 1.990 . S
N857 C856 1.314 . S
N857 C859 1.279 . S
C858 C859 1.358 . S
C858 C860 1.356 . S
C858 H912 0.930 . S
C859 N857 1.279 . S
C859 C858 1.358 . S
C859 H863 0.930 . S
C860 C858 1.356 . S
C860 C861 1.348 . S
C861 C856 1.353 . S
C861 C860 1.348 . S
C861 H913 0.929 . S
H862 C856 0.930 . S
H863 C859 0.930 . S
C864 N865 1.314 . S
C864 C866 1.353 . S
C864 H870 0.930 . S
N865 Li841 1.990 . S
N865 C864 1.314 . S
N865 C868 1.279 . S
C866 C864 1.353 . S
C866 C869 1.348 . S
C866 H914 0.929 . S
C867 C868 1.358 . S
C867 C869 1.356 . S
C867 H915 0.930 . S
C868 N865 1.279 . S
C868 C867 1.358 . S
C868 H871 0.930 . S
C869 C866 1.348 . S
C869 C867 1.356 . S
H870 C864 0.930 . S
H871 C868 0.930 . S
C872 C874 1.348 1_545 S
C872 C875 1.356 . S
C872 O902 1.325 . S
N873 C876 1.314 1_545 S
N873 C877 1.279 . S
C874 C872 1.348 1_565 S
C874 C876 1.353 . S
C874 H916 0.929 . S
C875 C872 1.356 . S
C875 C877 1.358 . S
C875 H917 0.930 . S
C876 N873 1.314 1_565 S
C876 C874 1.353 . S
C876 H918 0.930 . S
C877 N873 1.279 . S
C877 C875 1.358 . S
C877 H919 0.930 . S
C878 C879 1.348 . S
C878 C880 1.356 . S
C878 O903 1.325 . S
C879 C878 1.348 . S
C879 C881 1.353 . S
C879 H920 0.929 . S
C880 C878 1.356 . S
C880 C882 1.358 . S
C880 H921 0.930 . S
C881 C879 1.353 . S
C881 N883 1.314 . S
C881 H922 0.930 . S
C882 C880 1.358 . S
C882 N883 1.279 . S
C882 H923 0.930 . S
N883 C881 1.314 . S
N883 C882 1.279 . S
C884 C886 1.353 . S
C884 N887 1.314 . S
C884 H890 0.930 . S
C885 N887 1.279 . S
C885 C888 1.358 . S
C885 H891 0.930 . S
C886 C884 1.353 . S
C886 C889 1.348 . S
C886 H924 0.929 . S
N887 Li842 1.990 . S
N887 C884 1.314 . S
N887 C885 1.279 . S
C888 C885 1.358 . S
C888 C889 1.356 . S
C888 H925 0.930 . S
C889 C886 1.348 . S
C889 C888 1.356 . S
H890 C884 0.930 . S
H891 C885 0.930 . S
C892 N893 1.314 . S
C892 C894 1.353 . S
C892 H898 0.930 . S
N893 Li843 1.990 . S
N893 C892 1.314 . S
N893 C896 1.279 . S
C894 C892 1.353 . S
C894 C897 1.348 . S
C894 H926 0.929 . S
C895 C896 1.358 . S
C895 C897 1.356 . S
C895 H927 0.930 . S
C896 N893 1.279 . S
C896 C895 1.358 . S
C896 H899 0.930 . S
C897 C894 1.348 . S
C897 C895 1.356 . S
H898 C892 0.930 . S
H899 C896 0.930 . S
O900 Li840 1.956 . S
O900 Li841 1.970 1_545 S
O900 Li842 1.961 . S
O900 C844 1.325 . S
O901 Li840 1.970 1_565 S
O901 Li841 1.956 . S
O901 Li843 1.961 . S
O901 C850 1.325 . S
O902 Li840 1.961 . S
O902 Li842 1.956 . S
O902 Li843 1.970 1_545 S
O902 C872 1.325 . S
O903 Li841 1.961 . S
O903 Li842 1.970 1_565 S
O903 Li843 1.956 . S
O903 C878 1.325 . S
H904 C846 0.929 . S
H905 C847 0.930 . S
H906 C848 0.930 . S
H907 C849 0.930 . S
H908 C851 0.930 . S
H909 C853 0.929 . S
H910 C854 0.930 . S
H911 C855 0.930 . S
H912 C858 0.930 . S
H913 C861 0.929 . S
H914 C866 0.929 . S
H915 C867 0.930 . S
H916 C874 0.929 . S
H917 C875 0.930 . S
H918 C876 0.930 . S
H919 C877 0.930 . S
H920 C879 0.929 . S
H921 C880 0.930 . S
H922 C881 0.930 . S
H923 C882 0.930 . S
H924 C886 0.929 . S
H925 C888 0.930 . S
H926 C894 0.929 . S
H927 C895 0.930 . S
Li928 N945 1.990 . S
Li928 O988 1.956 . S
Li928 O989 1.970 . S
Li928 O990 1.961 . S
Li929 N953 1.990 . S
Li929 O988 1.970 . S
Li929 O989 1.956 . S
Li929 O991 1.961 . S
Li930 N975 1.990 . S
Li930 O988 1.961 . S
Li930 O990 1.956 . S
Li930 O991 1.970 . S
Li931 N981 1.990 . S
Li931 O989 1.961 . S
Li931 O990 1.970 . S
Li931 O991 1.956 . S
C932 C934 1.348 . S
C932 C935 1.356 . S
C932 O988 1.325 . S
N933 C936 1.314 . S
N933 C937 1.279 . S
C934 C932 1.348 . S
C934 C936 1.353 . S
C934 H992 0.929 . S
C935 C932 1.356 . S
C935 C937 1.358 . S
C935 H993 0.930 . S
C936 N933 1.314 . S
C936 C934 1.353 . S
C936 H994 0.930 . S
C937 N933 1.279 . S
C937 C935 1.358 . S
C937 H995 0.930 . S
C938 C941 1.348 . S
C938 C942 1.356 . S
C938 O989 1.325 . S
C939 N940 1.279 . S
C939 C942 1.358 . S
C939 H996 0.930 . S
N940 C939 1.279 . S
N940 C943 1.314 . S
C941 C938 1.348 . S
C941 C943 1.353 . S
C941 H997 0.929 . S
C942 C938 1.356 . S
C942 C939 1.358 . S
C942 H998 0.930 . S
C943 N940 1.314 . S
C943 C941 1.353 . S
C943 H999 0.930 . S
C944 N945 1.314 . S
C944 C949 1.353 . S
C944 H950 0.930 . S
N945 Li928 1.990 . S
N945 C944 1.314 . S
N945 C947 1.279 . S
C946 C947 1.358 . S
C946 C948 1.356 . S
C946 H1000 0.930 . S
C947 N945 1.279 . S
C947 C946 1.358 . S
C947 H951 0.930 . S
C948 C946 1.356 . S
C948 C949 1.348 . S
C949 C944 1.353 . S
C949 C948 1.348 . S
C949 H1001 0.929 . S
H950 C944 0.930 . S
H951 C947 0.930 . S
C952 N953 1.314 . S
C952 C954 1.353 . S
C952 H958 0.930 . S
N953 Li929 1.990 . S
N953 C952 1.314 . S
N953 C956 1.279 . S
C954 C952 1.353 . S
C954 C957 1.348 . S
C954 H1002 0.929 . S
C955 C956 1.358 . S
C955 C957 1.356 . S
C955 H1003 0.930 . S
C956 N953 1.279 . S
C956 C955 1.358 . S
C956 H959 0.930 . S
C957 C954 1.348 . S
C957 C955 1.356 . S
H958 C952 0.930 . S
H959 C956 0.930 . S
C960 C962 1.348 . S
C960 C963 1.356 . S
C960 O990 1.325 . S
N961 C964 1.314 . S
N961 C965 1.279 . S
C962 C960 1.348 . S
C962 C964 1.353 . S
C962 H1004 0.929 . S
C963 C960 1.356 . S
C963 C965 1.358 . S
C963 H1005 0.930 . S
C964 N961 1.314 . S
C964 C962 1.353 . S
C964 H1006 0.930 . S
C965 N961 1.279 . S
C965 C963 1.358 . S
C965 H1007 0.930 . S
C966 C967 1.348 . S
C966 C968 1.356 . S
C966 O991 1.325 . S
C967 C966 1.348 . S
C967 C969 1.353 . S
C967 H1008 0.929 . S
C968 C966 1.356 . S
C968 C970 1.358 . S
C968 H1009 0.930 . S
C969 C967 1.353 . S
C969 N971 1.314 . S
C969 H1010 0.930 . S
C970 C968 1.358 . S
C970 N971 1.279 . S
C970 H1011 0.930 . S
N971 C969 1.314 . S
N971 C970 1.279 . S
C972 C974 1.353 . S
C972 N975 1.314 . S
C972 H978 0.930 . S
C973 N975 1.279 . S
C973 C976 1.358 . S
C973 H979 0.930 . S
C974 C972 1.353 . S
C974 C977 1.348 . S
C974 H1012 0.929 . S
N975 Li930 1.990 . S
N975 C972 1.314 . S
N975 C973 1.279 . S
C976 C973 1.358 . S
C976 C977 1.356 . S
C976 H1013 0.930 . S
C977 C974 1.348 . S
C977 C976 1.356 . S
H978 C972 0.930 . S
H979 C973 0.930 . S
C980 N981 1.314 . S
C980 C982 1.353 . S
C980 H986 0.930 . S
N981 Li931 1.990 . S
N981 C980 1.314 . S
N981 C984 1.279 . S
C982 C980 1.353 . S
C982 C985 1.348 . S
C982 H1014 0.929 . S
C983 C984 1.358 . S
C983 C985 1.356 . S
C983 H1015 0.930 . S
C984 N981 1.279 . S
C984 C983 1.358 . S
C984 H987 0.930 . S
C985 C982 1.348 . S
C985 C983 1.356 . S
H986 C980 0.930 . S
H987 C984 0.930 . S
O988 Li928 1.956 . S
O988 Li929 1.970 . S
O988 Li930 1.961 . S
O988 C932 1.325 . S
O989 Li928 1.970 . S
O989 Li929 1.956 . S
O989 Li931 1.961 . S
O989 C938 1.325 . S
O990 Li928 1.961 . S
O990 Li930 1.956 . S
O990 Li931 1.970 . S
O990 C960 1.325 . S
O991 Li929 1.961 . S
O991 Li930 1.970 . S
O991 Li931 1.956 . S
O991 C966 1.325 . S
H992 C934 0.929 . S
H993 C935 0.930 . S
H994 C936 0.930 . S
H995 C937 0.930 . S
H996 C939 0.930 . S
H997 C941 0.929 . S
H998 C942 0.930 . S
H999 C943 0.930 . S
H1000 C946 0.930 . S
H1001 C949 0.929 . S
H1002 C954 0.929 . S
H1003 C955 0.930 . S
H1004 C962 0.929 . S
H1005 C963 0.930 . S
H1006 C964 0.930 . S
H1007 C965 0.930 . S
H1008 C967 0.929 . S
H1009 C968 0.930 . S
H1010 C969 0.930 . S
H1011 C970 0.930 . S
H1012 C974 0.929 . S
H1013 C976 0.930 . S
H1014 C982 0.929 . S
H1015 C983 0.930 . S
Li1016 N1033 1.990 . S
Li1016 O1076 1.956 . S
Li1016 O1077 1.970 . S
Li1016 O1078 1.961 . S
Li1017 N1041 1.990 . S
Li1017 O1076 1.970 . S
Li1017 O1077 1.956 . S
Li1017 O1079 1.961 . S
Li1018 N1063 1.990 . S
Li1018 O1076 1.961 . S
Li1018 O1078 1.956 . S
Li1018 O1079 1.970 . S
Li1019 N1069 1.990 . S
Li1019 O1077 1.961 . S
Li1019 O1078 1.970 . S
Li1019 O1079 1.956 . S
C1020 C1022 1.348 . S
C1020 C1023 1.356 . S
C1020 O1076 1.325 . S
N1021 C1024 1.314 . S
N1021 C1025 1.279 . S
C1022 C1020 1.348 . S
C1022 C1024 1.353 . S
C1022 H1080 0.929 . S
C1023 C1020 1.356 . S
C1023 C1025 1.358 . S
C1023 H1081 0.930 . S
C1024 N1021 1.314 . S
C1024 C1022 1.353 . S
C1024 H1082 0.930 . S
C1025 N1021 1.279 . S
C1025 C1023 1.358 . S
C1025 H1083 0.930 . S
C1026 C1029 1.348 . S
C1026 C1030 1.356 . S
C1026 O1077 1.325 . S
C1027 N1028 1.279 . S
C1027 C1030 1.358 . S
C1027 H1084 0.930 . S
N1028 C1027 1.279 . S
N1028 C1031 1.314 . S
C1029 C1026 1.348 . S
C1029 C1031 1.353 . S
C1029 H1085 0.929 . S
C1030 C1026 1.356 . S
C1030 C1027 1.358 . S
C1030 H1086 0.930 . S
C1031 N1028 1.314 . S
C1031 C1029 1.353 . S
C1031 H1087 0.930 . S
C1032 N1033 1.314 . S
C1032 C1037 1.353 . S
C1032 H1038 0.930 . S
N1033 Li1016 1.990 . S
N1033 C1032 1.314 . S
N1033 C1035 1.279 . S
C1034 C1035 1.358 . S
C1034 C1036 1.356 . S
C1034 H1088 0.930 . S
C1035 N1033 1.279 . S
C1035 C1034 1.358 . S
C1035 H1039 0.930 . S
C1036 C1034 1.356 . S
C1036 C1037 1.348 . S
C1037 C1032 1.353 . S
C1037 C1036 1.348 . S
C1037 H1089 0.929 . S
H1038 C1032 0.930 . S
H1039 C1035 0.930 . S
C1040 N1041 1.314 . S
C1040 C1042 1.353 . S
C1040 H1046 0.930 . S
N1041 Li1017 1.990 . S
N1041 C1040 1.314 . S
N1041 C1044 1.279 . S
C1042 C1040 1.353 . S
C1042 C1045 1.348 . S
C1042 H1090 0.929 . S
C1043 C1044 1.358 . S
C1043 C1045 1.356 . S
C1043 H1091 0.930 . S
C1044 N1041 1.279 . S
C1044 C1043 1.358 . S
C1044 H1047 0.930 . S
C1045 C1042 1.348 . S
C1045 C1043 1.356 . S
H1046 C1040 0.930 . S
H1047 C1044 0.930 . S
C1048 C1050 1.348 . S
C1048 C1051 1.356 . S
C1048 O1078 1.325 . S
N1049 C1052 1.314 . S
N1049 C1053 1.279 . S
C1050 C1048 1.348 . S
C1050 C1052 1.353 . S
C1050 H1092 0.929 . S
C1051 C1048 1.356 . S
C1051 C1053 1.358 . S
C1051 H1093 0.930 . S
C1052 N1049 1.314 . S
C1052 C1050 1.353 . S
C1052 H1094 0.930 . S
C1053 N1049 1.279 . S
C1053 C1051 1.358 . S
C1053 H1095 0.930 . S
C1054 C1055 1.348 . S
C1054 C1056 1.356 . S
C1054 O1079 1.325 . S
C1055 C1054 1.348 . S
C1055 C1057 1.353 . S
C1055 H1096 0.929 . S
C1056 C1054 1.356 . S
C1056 C1058 1.358 . S
C1056 H1097 0.930 . S
C1057 C1055 1.353 . S
C1057 N1059 1.314 . S
C1057 H1098 0.930 . S
C1058 C1056 1.358 . S
C1058 N1059 1.279 . S
C1058 H1099 0.930 . S
N1059 C1057 1.314 . S
N1059 C1058 1.279 . S
C1060 C1062 1.353 . S
C1060 N1063 1.314 . S
C1060 H1066 0.930 . S
C1061 N1063 1.279 . S
C1061 C1064 1.358 . S
C1061 H1067 0.930 . S
C1062 C1060 1.353 . S
C1062 C1065 1.348 . S
C1062 H1100 0.929 . S
N1063 Li1018 1.990 . S
N1063 C1060 1.314 . S
N1063 C1061 1.279 . S
C1064 C1061 1.358 . S
C1064 C1065 1.356 . S
C1064 H1101 0.930 . S
C1065 C1062 1.348 . S
C1065 C1064 1.356 . S
H1066 C1060 0.930 . S
H1067 C1061 0.930 . S
C1068 N1069 1.314 . S
C1068 C1070 1.353 . S
C1068 H1074 0.930 . S
N1069 Li1019 1.990 . S
N1069 C1068 1.314 . S
N1069 C1072 1.279 . S
C1070 C1068 1.353 . S
C1070 C1073 1.348 . S
C1070 H1102 0.929 . S
C1071 C1072 1.358 . S
C1071 C1073 1.356 . S
C1071 H1103 0.930 . S
C1072 N1069 1.279 . S
C1072 C1071 1.358 . S
C1072 H1075 0.930 . S
C1073 C1070 1.348 . S
C1073 C1071 1.356 . S
H1074 C1068 0.930 . S
H1075 C1072 0.930 . S
O1076 Li1016 1.956 . S
O1076 Li1017 1.970 . S
O1076 Li1018 1.961 . S
O1076 C1020 1.325 . S
O1077 Li1016 1.970 . S
O1077 Li1017 1.956 . S
O1077 Li1019 1.961 . S
O1077 C1026 1.325 . S
O1078 Li1016 1.961 . S
O1078 Li1018 1.956 . S
O1078 Li1019 1.970 . S
O1078 C1048 1.325 . S
O1079 Li1017 1.961 . S
O1079 Li1018 1.970 . S
O1079 Li1019 1.956 . S
O1079 C1054 1.325 . S
H1080 C1022 0.929 . S
H1081 C1023 0.930 . S
H1082 C1024 0.930 . S
H1083 C1025 0.930 . S
H1084 C1027 0.930 . S
H1085 C1029 0.929 . S
H1086 C1030 0.930 . S
H1087 C1031 0.930 . S
H1088 C1034 0.930 . S
H1089 C1037 0.929 . S
H1090 C1042 0.929 . S
H1091 C1043 0.930 . S
H1092 C1050 0.929 . S
H1093 C1051 0.930 . S
H1094 C1052 0.930 . S
H1095 C1053 0.930 . S
H1096 C1055 0.929 . S
H1097 C1056 0.930 . S
H1098 C1057 0.930 . S
H1099 C1058 0.930 . S
H1100 C1062 0.929 . S
H1101 C1064 0.930 . S
H1102 C1070 0.929 . S
H1103 C1071 0.930 . S
Li1104 N1121 1.990 . S
Li1104 O1164 1.956 . S
Li1104 O1165 1.970 . S
Li1104 O1166 1.961 . S
Li1105 N1129 1.990 . S
Li1105 O1164 1.970 . S
Li1105 O1165 1.956 . S
Li1105 O1167 1.961 . S
Li1106 N1151 1.990 . S
Li1106 O1164 1.961 . S
Li1106 O1166 1.956 . S
Li1106 O1167 1.970 . S
Li1107 N1157 1.990 . S
Li1107 O1165 1.961 . S
Li1107 O1166 1.970 . S
Li1107 O1167 1.956 . S
C1108 C1110 1.348 . S
C1108 C1111 1.356 . S
C1108 O1164 1.325 . S
N1109 C1112 1.314 . S
N1109 C1113 1.279 . S
C1110 C1108 1.348 . S
C1110 C1112 1.353 . S
C1110 H1168 0.929 . S
C1111 C1108 1.356 . S
C1111 C1113 1.358 . S
C1111 H1169 0.930 . S
C1112 N1109 1.314 . S
C1112 C1110 1.353 . S
C1112 H1170 0.930 . S
C1113 N1109 1.279 . S
C1113 C1111 1.358 . S
C1113 H1171 0.930 . S
C1114 C1117 1.348 . S
C1114 C1118 1.356 . S
C1114 O1165 1.325 . S
C1115 N1116 1.279 . S
C1115 C1118 1.358 . S
C1115 H1172 0.930 . S
N1116 C1115 1.279 . S
N1116 C1119 1.314 . S
C1117 C1114 1.348 . S
C1117 C1119 1.353 . S
C1117 H1173 0.929 . S
C1118 C1114 1.356 . S
C1118 C1115 1.358 . S
C1118 H1174 0.930 . S
C1119 N1116 1.314 . S
C1119 C1117 1.353 . S
C1119 H1175 0.930 . S
C1120 N1121 1.314 . S
C1120 C1125 1.353 . S
C1120 H1126 0.930 . S
N1121 Li1104 1.990 . S
N1121 C1120 1.314 . S
N1121 C1123 1.279 . S
C1122 C1123 1.358 . S
C1122 C1124 1.356 . S
C1122 H1176 0.930 . S
C1123 N1121 1.279 . S
C1123 C1122 1.358 . S
C1123 H1127 0.930 . S
C1124 C1122 1.356 . S
C1124 C1125 1.348 . S
C1125 C1120 1.353 . S
C1125 C1124 1.348 . S
C1125 H1177 0.929 . S
H1126 C1120 0.930 . S
H1127 C1123 0.930 . S
C1128 N1129 1.314 . S
C1128 C1130 1.353 . S
C1128 H1134 0.930 . S
N1129 Li1105 1.990 . S
N1129 C1128 1.314 . S
N1129 C1132 1.279 . S
C1130 C1128 1.353 . S
C1130 C1133 1.348 . S
C1130 H1178 0.929 . S
C1131 C1132 1.358 . S
C1131 C1133 1.356 . S
C1131 H1179 0.930 . S
C1132 N1129 1.279 . S
C1132 C1131 1.358 . S
C1132 H1135 0.930 . S
C1133 C1130 1.348 . S
C1133 C1131 1.356 . S
H1134 C1128 0.930 . S
H1135 C1132 0.930 . S
C1136 C1138 1.348 . S
C1136 C1139 1.356 . S
C1136 O1166 1.325 . S
N1137 C1140 1.314 . S
N1137 C1141 1.279 . S
C1138 C1136 1.348 . S
C1138 C1140 1.353 . S
C1138 H1180 0.929 . S
C1139 C1136 1.356 . S
C1139 C1141 1.358 . S
C1139 H1181 0.930 . S
C1140 N1137 1.314 . S
C1140 C1138 1.353 . S
C1140 H1182 0.930 . S
C1141 N1137 1.279 . S
C1141 C1139 1.358 . S
C1141 H1183 0.930 . S
C1142 C1143 1.348 . S
C1142 C1144 1.356 . S
C1142 O1167 1.325 . S
C1143 C1142 1.348 . S
C1143 C1145 1.353 . S
C1143 H1184 0.929 . S
C1144 C1142 1.356 . S
C1144 C1146 1.358 . S
C1144 H1185 0.930 . S
C1145 C1143 1.353 . S
C1145 N1147 1.314 . S
C1145 H1186 0.930 . S
C1146 C1144 1.358 . S
C1146 N1147 1.279 . S
C1146 H1187 0.930 . S
N1147 C1145 1.314 . S
N1147 C1146 1.279 . S
C1148 C1150 1.353 . S
C1148 N1151 1.314 . S
C1148 H1154 0.930 . S
C1149 N1151 1.279 . S
C1149 C1152 1.358 . S
C1149 H1155 0.930 . S
C1150 C1148 1.353 . S
C1150 C1153 1.348 . S
C1150 H1188 0.929 . S
N1151 Li1106 1.990 . S
N1151 C1148 1.314 . S
N1151 C1149 1.279 . S
C1152 C1149 1.358 . S
C1152 C1153 1.356 . S
C1152 H1189 0.930 . S
C1153 C1150 1.348 . S
C1153 C1152 1.356 . S
H1154 C1148 0.930 . S
H1155 C1149 0.930 . S
C1156 N1157 1.314 . S
C1156 C1158 1.353 . S
C1156 H1162 0.930 . S
N1157 Li1107 1.990 . S
N1157 C1156 1.314 . S
N1157 C1160 1.279 . S
C1158 C1156 1.353 . S
C1158 C1161 1.348 . S
C1158 H1190 0.929 . S
C1159 C1160 1.358 . S
C1159 C1161 1.356 . S
C1159 H1191 0.930 . S
C1160 N1157 1.279 . S
C1160 C1159 1.358 . S
C1160 H1163 0.930 . S
C1161 C1158 1.348 . S
C1161 C1159 1.356 . S
H1162 C1156 0.930 . S
H1163 C1160 0.930 . S
O1164 Li1104 1.956 . S
O1164 Li1105 1.970 . S
O1164 Li1106 1.961 . S
O1164 C1108 1.325 . S
O1165 Li1104 1.970 . S
O1165 Li1105 1.956 . S
O1165 Li1107 1.961 . S
O1165 C1114 1.325 . S
O1166 Li1104 1.961 . S
O1166 Li1106 1.956 . S
O1166 Li1107 1.970 . S
O1166 C1136 1.325 . S
O1167 Li1105 1.961 . S
O1167 Li1106 1.970 . S
O1167 Li1107 1.956 . S
O1167 C1142 1.325 . S
H1168 C1110 0.929 . S
H1169 C1111 0.930 . S
H1170 C1112 0.930 . S
H1171 C1113 0.930 . S
H1172 C1115 0.930 . S
H1173 C1117 0.929 . S
H1174 C1118 0.930 . S
H1175 C1119 0.930 . S
H1176 C1122 0.930 . S
H1177 C1125 0.929 . S
H1178 C1130 0.929 . S
H1179 C1131 0.930 . S
H1180 C1138 0.929 . S
H1181 C1139 0.930 . S
H1182 C1140 0.930 . S
H1183 C1141 0.930 . S
H1184 C1143 0.929 . S
H1185 C1144 0.930 . S
H1186 C1145 0.930 . S
H1187 C1146 0.930 . S
H1188 C1150 0.929 . S
H1189 C1152 0.930 . S
H1190 C1158 0.929 . S
H1191 C1159 0.930 . S
Li1192 N1209 1.990 . S
Li1192 O1252 1.956 . S
Li1192 O1253 1.970 1_565 S
Li1192 O1254 1.961 . S
Li1193 N1217 1.990 . S
Li1193 O1252 1.970 1_545 S
Li1193 O1253 1.956 . S
Li1193 O1255 1.961 . S
Li1194 N1239 1.990 . S
Li1194 O1252 1.961 . S
Li1194 O1254 1.956 . S
Li1194 O1255 1.970 1_565 S
Li1195 N1245 1.990 . S
Li1195 O1253 1.961 . S
Li1195 O1254 1.970 1_545 S
Li1195 O1255 1.956 . S
C1196 C1198 1.348 . S
C1196 C1199 1.356 . S
C1196 O1252 1.325 . S
N1197 C1200 1.314 . S
N1197 C1201 1.279 . S
C1198 C1196 1.348 . S
C1198 C1200 1.353 . S
C1198 H1256 0.929 . S
C1199 C1196 1.356 . S
C1199 C1201 1.358 . S
C1199 H1257 0.930 . S
C1200 N1197 1.314 . S
C1200 C1198 1.353 . S
C1200 H1258 0.930 . S
C1201 N1197 1.279 . S
C1201 C1199 1.358 . S
C1201 H1259 0.930 . S
C1202 C1205 1.348 1_545 S
C1202 C1206 1.356 . S
C1202 O1253 1.325 . S
C1203 N1204 1.279 . S
C1203 C1206 1.358 . S
C1203 H1260 0.930 . S
N1204 C1203 1.279 . S
N1204 C1207 1.314 1_545 S
C1205 C1202 1.348 1_565 S
C1205 C1207 1.353 . S
C1205 H1261 0.929 . S
C1206 C1202 1.356 . S
C1206 C1203 1.358 . S
C1206 H1262 0.930 . S
C1207 N1204 1.314 1_565 S
C1207 C1205 1.353 . S
C1207 H1263 0.930 . S
C1208 N1209 1.314 . S
C1208 C1213 1.353 . S
C1208 H1214 0.930 . S
N1209 Li1192 1.990 . S
N1209 C1208 1.314 . S
N1209 C1211 1.279 . S
C1210 C1211 1.358 . S
C1210 C1212 1.356 . S
C1210 H1264 0.930 . S
C1211 N1209 1.279 . S
C1211 C1210 1.358 . S
C1211 H1215 0.930 . S
C1212 C1210 1.356 . S
C1212 C1213 1.348 . S
C1213 C1208 1.353 . S
C1213 C1212 1.348 . S
C1213 H1265 0.929 . S
H1214 C1208 0.930 . S
H1215 C1211 0.930 . S
C1216 N1217 1.314 . S
C1216 C1218 1.353 . S
C1216 H1222 0.930 . S
N1217 Li1193 1.990 . S
N1217 C1216 1.314 . S
N1217 C1220 1.279 . S
C1218 C1216 1.353 . S
C1218 C1221 1.348 . S
C1218 H1266 0.929 . S
C1219 C1220 1.358 . S
C1219 C1221 1.356 . S
C1219 H1267 0.930 . S
C1220 N1217 1.279 . S
C1220 C1219 1.358 . S
C1220 H1223 0.930 . S
C1221 C1218 1.348 . S
C1221 C1219 1.356 . S
H1222 C1216 0.930 . S
H1223 C1220 0.930 . S
C1224 C1226 1.348 1_565 S
C1224 C1227 1.356 . S
C1224 O1254 1.325 . S
N1225 C1228 1.314 1_565 S
N1225 C1229 1.279 . S
C1226 C1224 1.348 1_545 S
C1226 C1228 1.353 . S
C1226 H1268 0.929 . S
C1227 C1224 1.356 . S
C1227 C1229 1.358 . S
C1227 H1269 0.930 . S
C1228 N1225 1.314 1_545 S
C1228 C1226 1.353 . S
C1228 H1270 0.930 . S
C1229 N1225 1.279 . S
C1229 C1227 1.358 . S
C1229 H1271 0.930 . S
C1230 C1231 1.348 . S
C1230 C1232 1.356 . S
C1230 O1255 1.325 . S
C1231 C1230 1.348 . S
C1231 C1233 1.353 . S
C1231 H1272 0.929 . S
C1232 C1230 1.356 . S
C1232 C1234 1.358 . S
C1232 H1273 0.930 . S
C1233 C1231 1.353 . S
C1233 N1235 1.314 . S
C1233 H1274 0.930 . S
C1234 C1232 1.358 . S
C1234 N1235 1.279 . S
C1234 H1275 0.930 . S
N1235 C1233 1.314 . S
N1235 C1234 1.279 . S
C1236 C1238 1.353 . S
C1236 N1239 1.314 . S
C1236 H1242 0.930 . S
C1237 N1239 1.279 . S
C1237 C1240 1.358 . S
C1237 H1243 0.930 . S
C1238 C1236 1.353 . S
C1238 C1241 1.348 . S
C1238 H1276 0.929 . S
N1239 Li1194 1.990 . S
N1239 C1236 1.314 . S
N1239 C1237 1.279 . S
C1240 C1237 1.358 . S
C1240 C1241 1.356 . S
C1240 H1277 0.930 . S
C1241 C1238 1.348 . S
C1241 C1240 1.356 . S
H1242 C1236 0.930 . S
H1243 C1237 0.930 . S
C1244 N1245 1.314 . S
C1244 C1246 1.353 . S
C1244 H1250 0.930 . S
N1245 Li1195 1.990 . S
N1245 C1244 1.314 . S
N1245 C1248 1.279 . S
C1246 C1244 1.353 . S
C1246 C1249 1.348 . S
C1246 H1278 0.929 . S
C1247 C1248 1.358 . S
C1247 C1249 1.356 . S
C1247 H1279 0.930 . S
C1248 N1245 1.279 . S
C1248 C1247 1.358 . S
C1248 H1251 0.930 . S
C1249 C1246 1.348 . S
C1249 C1247 1.356 . S
H1250 C1244 0.930 . S
H1251 C1248 0.930 . S
O1252 Li1192 1.956 . S
O1252 Li1193 1.970 1_565 S
O1252 Li1194 1.961 . S
O1252 C1196 1.325 . S
O1253 Li1192 1.970 1_545 S
O1253 Li1193 1.956 . S
O1253 Li1195 1.961 . S
O1253 C1202 1.325 . S
O1254 Li1192 1.961 . S
O1254 Li1194 1.956 . S
O1254 Li1195 1.970 1_565 S
O1254 C1224 1.325 . S
O1255 Li1193 1.961 . S
O1255 Li1194 1.970 1_545 S
O1255 Li1195 1.956 . S
O1255 C1230 1.325 . S
H1256 C1198 0.929 . S
H1257 C1199 0.930 . S
H1258 C1200 0.930 . S
H1259 C1201 0.930 . S
H1260 C1203 0.930 . S
H1261 C1205 0.929 . S
H1262 C1206 0.930 . S
H1263 C1207 0.930 . S
H1264 C1210 0.930 . S
H1265 C1213 0.929 . S
H1266 C1218 0.929 . S
H1267 C1219 0.930 . S
H1268 C1226 0.929 . S
H1269 C1227 0.930 . S
H1270 C1228 0.930 . S
H1271 C1229 0.930 . S
H1272 C1231 0.929 . S
H1273 C1232 0.930 . S
H1274 C1233 0.930 . S
H1275 C1234 0.930 . S
H1276 C1238 0.929 . S
H1277 C1240 0.930 . S
H1278 C1246 0.929 . S
H1279 C1247 0.930 . S
Li1280 N1297 1.990 . S
Li1280 O1340 1.956 . S
Li1280 O1341 1.970 1_455 S
Li1280 O1342 1.961 . S
Li1281 N1305 1.990 . S
Li1281 O1340 1.970 1_655 S
Li1281 O1341 1.956 . S
Li1281 O1343 1.961 . S
Li1282 N1327 1.990 . S
Li1282 O1340 1.961 . S
Li1282 O1342 1.956 . S
Li1282 O1343 1.970 1_455 S
Li1283 N1333 1.990 . S
Li1283 O1341 1.961 . S
Li1283 O1342 1.970 1_655 S
Li1283 O1343 1.956 . S
C1284 C1286 1.348 . S
C1284 C1287 1.356 . S
C1284 O1340 1.325 . S
N1285 C1288 1.314 . S
N1285 C1289 1.279 . S
C1286 C1284 1.348 . S
C1286 C1288 1.353 . S
C1286 H1344 0.929 . S
C1287 C1284 1.356 . S
C1287 C1289 1.358 . S
C1287 H1345 0.930 . S
C1288 N1285 1.314 . S
C1288 C1286 1.353 . S
C1288 H1346 0.930 . S
C1289 N1285 1.279 . S
C1289 C1287 1.358 . S
C1289 H1347 0.930 . S
C1290 C1293 1.348 1_655 S
C1290 C1294 1.356 . S
C1290 O1341 1.325 . S
C1291 N1292 1.279 . S
C1291 C1294 1.358 . S
C1291 H1348 0.930 . S
N1292 C1291 1.279 . S
N1292 C1295 1.314 1_655 S
C1293 C1290 1.348 1_455 S
C1293 C1295 1.353 . S
C1293 H1349 0.929 . S
C1294 C1290 1.356 . S
C1294 C1291 1.358 . S
C1294 H1350 0.930 . S
C1295 N1292 1.314 1_455 S
C1295 C1293 1.353 . S
C1295 H1351 0.930 . S
C1296 N1297 1.314 . S
C1296 C1301 1.353 . S
C1296 H1302 0.930 . S
N1297 Li1280 1.990 . S
N1297 C1296 1.314 . S
N1297 C1299 1.279 . S
C1298 C1299 1.358 . S
C1298 C1300 1.356 . S
C1298 H1352 0.930 . S
C1299 N1297 1.279 . S
C1299 C1298 1.358 . S
C1299 H1303 0.930 . S
C1300 C1298 1.356 . S
C1300 C1301 1.348 . S
C1301 C1296 1.353 . S
C1301 C1300 1.348 . S
C1301 H1353 0.929 . S
H1302 C1296 0.930 . S
H1303 C1299 0.930 . S
C1304 N1305 1.314 . S
C1304 C1306 1.353 . S
C1304 H1310 0.930 . S
N1305 Li1281 1.990 . S
N1305 C1304 1.314 . S
N1305 C1308 1.279 . S
C1306 C1304 1.353 . S
C1306 C1309 1.348 . S
C1306 H1354 0.929 . S
C1307 C1308 1.358 . S
C1307 C1309 1.356 . S
C1307 H1355 0.930 . S
C1308 N1305 1.279 . S
C1308 C1307 1.358 . S
C1308 H1311 0.930 . S
C1309 C1306 1.348 . S
C1309 C1307 1.356 . S
H1310 C1304 0.930 . S
H1311 C1308 0.930 . S
C1312 C1314 1.348 1_455 S
C1312 C1315 1.356 . S
C1312 O1342 1.325 . S
N1313 C1316 1.314 1_455 S
N1313 C1317 1.279 . S
C1314 C1312 1.348 1_655 S
C1314 C1316 1.353 . S
C1314 H1356 0.929 . S
C1315 C1312 1.356 . S
C1315 C1317 1.358 . S
C1315 H1357 0.930 . S
C1316 N1313 1.314 1_655 S
C1316 C1314 1.353 . S
C1316 H1358 0.930 . S
C1317 N1313 1.279 . S
C1317 C1315 1.358 . S
C1317 H1359 0.930 . S
C1318 C1319 1.348 . S
C1318 C1320 1.356 . S
C1318 O1343 1.325 . S
C1319 C1318 1.348 . S
C1319 C1321 1.353 . S
C1319 H1360 0.929 . S
C1320 C1318 1.356 . S
C1320 C1322 1.358 . S
C1320 H1361 0.930 . S
C1321 C1319 1.353 . S
C1321 N1323 1.314 . S
C1321 H1362 0.930 . S
C1322 C1320 1.358 . S
C1322 N1323 1.279 . S
C1322 H1363 0.930 . S
N1323 C1321 1.314 . S
N1323 C1322 1.279 . S
C1324 C1326 1.353 . S
C1324 N1327 1.314 . S
C1324 H1330 0.930 . S
C1325 N1327 1.279 . S
C1325 C1328 1.358 . S
C1325 H1331 0.930 . S
C1326 C1324 1.353 . S
C1326 C1329 1.348 . S
C1326 H1364 0.929 . S
N1327 Li1282 1.990 . S
N1327 C1324 1.314 . S
N1327 C1325 1.279 . S
C1328 C1325 1.358 . S
C1328 C1329 1.356 . S
C1328 H1365 0.930 . S
C1329 C1326 1.348 . S
C1329 C1328 1.356 . S
H1330 C1324 0.930 . S
H1331 C1325 0.930 . S
C1332 N1333 1.314 . S
C1332 C1334 1.353 . S
C1332 H1338 0.930 . S
N1333 Li1283 1.990 . S
N1333 C1332 1.314 . S
N1333 C1336 1.279 . S
C1334 C1332 1.353 . S
C1334 C1337 1.348 . S
C1334 H1366 0.929 . S
C1335 C1336 1.358 . S
C1335 C1337 1.356 . S
C1335 H1367 0.930 . S
C1336 N1333 1.279 . S
C1336 C1335 1.358 . S
C1336 H1339 0.930 . S
C1337 C1334 1.348 . S
C1337 C1335 1.356 . S
H1338 C1332 0.930 . S
H1339 C1336 0.930 . S
O1340 Li1280 1.956 . S
O1340 Li1281 1.970 1_455 S
O1340 Li1282 1.961 . S
O1340 C1284 1.325 . S
O1341 Li1280 1.970 1_655 S
O1341 Li1281 1.956 . S
O1341 Li1283 1.961 . S
O1341 C1290 1.325 . S
O1342 Li1280 1.961 . S
O1342 Li1282 1.956 . S
O1342 Li1283 1.970 1_455 S
O1342 C1312 1.325 . S
O1343 Li1281 1.961 . S
O1343 Li1282 1.970 1_655 S
O1343 Li1283 1.956 . S
O1343 C1318 1.325 . S
H1344 C1286 0.929 . S
H1345 C1287 0.930 . S
H1346 C1288 0.930 . S
H1347 C1289 0.930 . S
H1348 C1291 0.930 . S
H1349 C1293 0.929 . S
H1350 C1294 0.930 . S
H1351 C1295 0.930 . S
H1352 C1298 0.930 . S
H1353 C1301 0.929 . S
H1354 C1306 0.929 . S
H1355 C1307 0.930 . S
H1356 C1314 0.929 . S
H1357 C1315 0.930 . S
H1358 C1316 0.930 . S
H1359 C1317 0.930 . S
H1360 C1319 0.929 . S
H1361 C1320 0.930 . S
H1362 C1321 0.930 . S
H1363 C1322 0.930 . S
H1364 C1326 0.929 . S
H1365 C1328 0.930 . S
H1366 C1334 0.929 . S
H1367 C1335 0.930 . S
Li1368 N1385 1.990 . S
Li1368 O1428 1.956 . S
Li1368 O1429 1.970 . S
Li1368 O1430 1.961 . S
Li1369 N1393 1.990 . S
Li1369 O1428 1.970 . S
Li1369 O1429 1.956 . S
Li1369 O1431 1.961 . S
Li1370 N1415 1.990 . S
Li1370 O1428 1.961 . S
Li1370 O1430 1.956 . S
Li1370 O1431 1.970 . S
Li1371 N1421 1.990 . S
Li1371 O1429 1.961 . S
Li1371 O1430 1.970 . S
Li1371 O1431 1.956 . S
C1372 C1374 1.348 . S
C1372 C1375 1.356 . S
C1372 O1428 1.325 . S
N1373 C1376 1.314 . S
N1373 C1377 1.279 . S
C1374 C1372 1.348 . S
C1374 C1376 1.353 . S
C1374 H1432 0.929 . S
C1375 C1372 1.356 . S
C1375 C1377 1.358 . S
C1375 H1433 0.930 . S
C1376 N1373 1.314 . S
C1376 C1374 1.353 . S
C1376 H1434 0.930 . S
C1377 N1373 1.279 . S
C1377 C1375 1.358 . S
C1377 H1435 0.930 . S
C1378 C1381 1.348 . S
C1378 C1382 1.356 . S
C1378 O1429 1.325 . S
C1379 N1380 1.279 . S
C1379 C1382 1.358 . S
C1379 H1436 0.930 . S
N1380 C1379 1.279 . S
N1380 C1383 1.314 . S
C1381 C1378 1.348 . S
C1381 C1383 1.353 . S
C1381 H1437 0.929 . S
C1382 C1378 1.356 . S
C1382 C1379 1.358 . S
C1382 H1438 0.930 . S
C1383 N1380 1.314 . S
C1383 C1381 1.353 . S
C1383 H1439 0.930 . S
C1384 N1385 1.314 . S
C1384 C1389 1.353 . S
C1384 H1390 0.930 . S
N1385 Li1368 1.990 . S
N1385 C1384 1.314 . S
N1385 C1387 1.279 . S
C1386 C1387 1.358 . S
C1386 C1388 1.356 . S
C1386 H1440 0.930 . S
C1387 N1385 1.279 . S
C1387 C1386 1.358 . S
C1387 H1391 0.930 . S
C1388 C1386 1.356 . S
C1388 C1389 1.348 . S
C1389 C1384 1.353 . S
C1389 C1388 1.348 . S
C1389 H1441 0.929 . S
H1390 C1384 0.930 . S
H1391 C1387 0.930 . S
C1392 N1393 1.314 . S
C1392 C1394 1.353 . S
C1392 H1398 0.930 . S
N1393 Li1369 1.990 . S
N1393 C1392 1.314 . S
N1393 C1396 1.279 . S
C1394 C1392 1.353 . S
C1394 C1397 1.348 . S
C1394 H1442 0.929 . S
C1395 C1396 1.358 . S
C1395 C1397 1.356 . S
C1395 H1443 0.930 . S
C1396 N1393 1.279 . S
C1396 C1395 1.358 . S
C1396 H1399 0.930 . S
C1397 C1394 1.348 . S
C1397 C1395 1.356 . S
H1398 C1392 0.930 . S
H1399 C1396 0.930 . S
C1400 C1402 1.348 . S
C1400 C1403 1.356 . S
C1400 O1430 1.325 . S
N1401 C1404 1.314 . S
N1401 C1405 1.279 . S
C1402 C1400 1.348 . S
C1402 C1404 1.353 . S
C1402 H1444 0.929 . S
C1403 C1400 1.356 . S
C1403 C1405 1.358 . S
C1403 H1445 0.930 . S
C1404 N1401 1.314 . S
C1404 C1402 1.353 . S
C1404 H1446 0.930 . S
C1405 N1401 1.279 . S
C1405 C1403 1.358 . S
C1405 H1447 0.930 . S
C1406 C1407 1.348 . S
C1406 C1408 1.356 . S
C1406 O1431 1.325 . S
C1407 C1406 1.348 . S
C1407 C1409 1.353 . S
C1407 H1448 0.929 . S
C1408 C1406 1.356 . S
C1408 C1410 1.358 . S
C1408 H1449 0.930 . S
C1409 C1407 1.353 . S
C1409 N1411 1.314 . S
C1409 H1450 0.930 . S
C1410 C1408 1.358 . S
C1410 N1411 1.279 . S
C1410 H1451 0.930 . S
N1411 C1409 1.314 . S
N1411 C1410 1.279 . S
C1412 C1414 1.353 . S
C1412 N1415 1.314 . S
C1412 H1418 0.930 . S
C1413 N1415 1.279 . S
C1413 C1416 1.358 . S
C1413 H1419 0.930 . S
C1414 C1412 1.353 . S
C1414 C1417 1.348 . S
C1414 H1452 0.929 . S
N1415 Li1370 1.990 . S
N1415 C1412 1.314 . S
N1415 C1413 1.279 . S
C1416 C1413 1.358 . S
C1416 C1417 1.356 . S
C1416 H1453 0.930 . S
C1417 C1414 1.348 . S
C1417 C1416 1.356 . S
H1418 C1412 0.930 . S
H1419 C1413 0.930 . S
C1420 N1421 1.314 . S
C1420 C1422 1.353 . S
C1420 H1426 0.930 . S
N1421 Li1371 1.990 . S
N1421 C1420 1.314 . S
N1421 C1424 1.279 . S
C1422 C1420 1.353 . S
C1422 C1425 1.348 . S
C1422 H1454 0.929 . S
C1423 C1424 1.358 . S
C1423 C1425 1.356 . S
C1423 H1455 0.930 . S
C1424 N1421 1.279 . S
C1424 C1423 1.358 . S
C1424 H1427 0.930 . S
C1425 C1422 1.348 . S
C1425 C1423 1.356 . S
H1426 C1420 0.930 . S
H1427 C1424 0.930 . S
O1428 Li1368 1.956 . S
O1428 Li1369 1.970 . S
O1428 Li1370 1.961 . S
O1428 C1372 1.325 . S
O1429 Li1368 1.970 . S
O1429 Li1369 1.956 . S
O1429 Li1371 1.961 . S
O1429 C1378 1.325 . S
O1430 Li1368 1.961 . S
O1430 Li1370 1.956 . S
O1430 Li1371 1.970 . S
O1430 C1400 1.325 . S
O1431 Li1369 1.961 . S
O1431 Li1370 1.970 . S
O1431 Li1371 1.956 . S
O1431 C1406 1.325 . S
H1432 C1374 0.929 . S
H1433 C1375 0.930 . S
H1434 C1376 0.930 . S
H1435 C1377 0.930 . S
H1436 C1379 0.930 . S
H1437 C1381 0.929 . S
H1438 C1382 0.930 . S
H1439 C1383 0.930 . S
H1440 C1386 0.930 . S
H1441 C1389 0.929 . S
H1442 C1394 0.929 . S
H1443 C1395 0.930 . S
H1444 C1402 0.929 . S
H1445 C1403 0.930 . S
H1446 C1404 0.930 . S
H1447 C1405 0.930 . S
H1448 C1407 0.929 . S
H1449 C1408 0.930 . S
H1450 C1409 0.930 . S
H1451 C1410 0.930 . S
H1452 C1414 0.929 . S
H1453 C1416 0.930 . S
H1454 C1422 0.929 . S
H1455 C1423 0.930 . S
Li1456 N1473 1.990 . S
Li1456 O1516 1.956 . S
Li1456 O1517 1.970 1_455 S
Li1456 O1518 1.961 . S
Li1457 N1481 1.990 . S
Li1457 O1516 1.970 1_655 S
Li1457 O1517 1.956 . S
Li1457 O1519 1.961 . S
Li1458 N1503 1.990 . S
Li1458 O1516 1.961 . S
Li1458 O1518 1.956 . S
Li1458 O1519 1.970 1_455 S
Li1459 N1509 1.990 . S
Li1459 O1517 1.961 . S
Li1459 O1518 1.970 1_655 S
Li1459 O1519 1.956 . S
C1460 C1462 1.348 1_455 S
C1460 C1463 1.356 . S
C1460 O1516 1.325 . S
N1461 C1464 1.314 1_455 S
N1461 C1465 1.279 . S
C1462 C1460 1.348 1_655 S
C1462 C1464 1.353 . S
C1462 H1520 0.929 . S
C1463 C1460 1.356 . S
C1463 C1465 1.358 . S
C1463 H1521 0.930 . S
C1464 N1461 1.314 1_655 S
C1464 C1462 1.353 . S
C1464 H1522 0.930 . S
C1465 N1461 1.279 . S
C1465 C1463 1.358 . S
C1465 H1523 0.930 . S
C1466 C1469 1.348 . S
C1466 C1470 1.356 . S
C1466 O1517 1.325 . S
C1467 N1468 1.279 . S
C1467 C1470 1.358 . S
C1467 H1524 0.930 . S
N1468 C1467 1.279 . S
N1468 C1471 1.314 . S
C1469 C1466 1.348 . S
C1469 C1471 1.353 . S
C1469 H1525 0.929 . S
C1470 C1466 1.356 . S
C1470 C1467 1.358 . S
C1470 H1526 0.930 . S
C1471 N1468 1.314 . S
C1471 C1469 1.353 . S
C1471 H1527 0.930 . S
C1472 N1473 1.314 . S
C1472 C1477 1.353 . S
C1472 H1478 0.930 . S
N1473 Li1456 1.990 . S
N1473 C1472 1.314 . S
N1473 C1475 1.279 . S
C1474 C1475 1.358 . S
C1474 C1476 1.356 . S
C1474 H1528 0.930 . S
C1475 N1473 1.279 . S
C1475 C1474 1.358 . S
C1475 H1479 0.930 . S
C1476 C1474 1.356 . S
C1476 C1477 1.348 . S
C1477 C1472 1.353 . S
C1477 C1476 1.348 . S
C1477 H1529 0.929 . S
H1478 C1472 0.930 . S
H1479 C1475 0.930 . S
C1480 N1481 1.314 . S
C1480 C1482 1.353 . S
C1480 H1486 0.930 . S
N1481 Li1457 1.990 . S
N1481 C1480 1.314 . S
N1481 C1484 1.279 . S
C1482 C1480 1.353 . S
C1482 C1485 1.348 . S
C1482 H1530 0.929 . S
C1483 C1484 1.358 . S
C1483 C1485 1.356 . S
C1483 H1531 0.930 . S
C1484 N1481 1.279 . S
C1484 C1483 1.358 . S
C1484 H1487 0.930 . S
C1485 C1482 1.348 . S
C1485 C1483 1.356 . S
H1486 C1480 0.930 . S
H1487 C1484 0.930 . S
C1488 C1490 1.348 . S
C1488 C1491 1.356 . S
C1488 O1518 1.325 . S
N1489 C1492 1.314 . S
N1489 C1493 1.279 . S
C1490 C1488 1.348 . S
C1490 C1492 1.353 . S
C1490 H1532 0.929 . S
C1491 C1488 1.356 . S
C1491 C1493 1.358 . S
C1491 H1533 0.930 . S
C1492 N1489 1.314 . S
C1492 C1490 1.353 . S
C1492 H1534 0.930 . S
C1493 N1489 1.279 . S
C1493 C1491 1.358 . S
C1493 H1535 0.930 . S
C1494 C1495 1.348 1_655 S
C1494 C1496 1.356 . S
C1494 O1519 1.325 . S
C1495 C1494 1.348 1_455 S
C1495 C1497 1.353 . S
C1495 H1536 0.929 . S
C1496 C1494 1.356 . S
C1496 C1498 1.358 . S
C1496 H1537 0.930 . S
C1497 C1495 1.353 . S
C1497 N1499 1.314 1_455 S
C1497 H1538 0.930 . S
C1498 C1496 1.358 . S
C1498 N1499 1.279 . S
C1498 H1539 0.930 . S
N1499 C1497 1.314 1_655 S
N1499 C1498 1.279 . S
C1500 C1502 1.353 . S
C1500 N1503 1.314 . S
C1500 H1506 0.930 . S
C1501 N1503 1.279 . S
C1501 C1504 1.358 . S
C1501 H1507 0.930 . S
C1502 C1500 1.353 . S
C1502 C1505 1.348 . S
C1502 H1540 0.929 . S
N1503 Li1458 1.990 . S
N1503 C1500 1.314 . S
N1503 C1501 1.279 . S
C1504 C1501 1.358 . S
C1504 C1505 1.356 . S
C1504 H1541 0.930 . S
C1505 C1502 1.348 . S
C1505 C1504 1.356 . S
H1506 C1500 0.930 . S
H1507 C1501 0.930 . S
C1508 N1509 1.314 . S
C1508 C1510 1.353 . S
C1508 H1514 0.930 . S
N1509 Li1459 1.990 . S
N1509 C1508 1.314 . S
N1509 C1512 1.279 . S
C1510 C1508 1.353 . S
C1510 C1513 1.348 . S
C1510 H1542 0.929 . S
C1511 C1512 1.358 . S
C1511 C1513 1.356 . S
C1511 H1543 0.930 . S
C1512 N1509 1.279 . S
C1512 C1511 1.358 . S
C1512 H1515 0.930 . S
C1513 C1510 1.348 . S
C1513 C1511 1.356 . S
H1514 C1508 0.930 . S
H1515 C1512 0.930 . S
O1516 Li1456 1.956 . S
O1516 Li1457 1.970 1_455 S
O1516 Li1458 1.961 . S
O1516 C1460 1.325 . S
O1517 Li1456 1.970 1_655 S
O1517 Li1457 1.956 . S
O1517 Li1459 1.961 . S
O1517 C1466 1.325 . S
O1518 Li1456 1.961 . S
O1518 Li1458 1.956 . S
O1518 Li1459 1.970 1_455 S
O1518 C1488 1.325 . S
O1519 Li1457 1.961 . S
O1519 Li1458 1.970 1_655 S
O1519 Li1459 1.956 . S
O1519 C1494 1.325 . S
H1520 C1462 0.929 . S
H1521 C1463 0.930 . S
H1522 C1464 0.930 . S
H1523 C1465 0.930 . S
H1524 C1467 0.930 . S
H1525 C1469 0.929 . S
H1526 C1470 0.930 . S
H1527 C1471 0.930 . S
H1528 C1474 0.930 . S
H1529 C1477 0.929 . S
H1530 C1482 0.929 . S
H1531 C1483 0.930 . S
H1532 C1490 0.929 . S
H1533 C1491 0.930 . S
H1534 C1492 0.930 . S
H1535 C1493 0.930 . S
H1536 C1495 0.929 . S
H1537 C1496 0.930 . S
H1538 C1497 0.930 . S
H1539 C1498 0.930 . S
H1540 C1502 0.929 . S
H1541 C1504 0.930 . S
H1542 C1510 0.929 . S
H1543 C1511 0.930 . S
Li1544 N1561 1.990 . S
Li1544 O1604 1.956 . S
Li1544 O1605 1.970 . S
Li1544 O1606 1.961 . S
Li1545 N1569 1.990 . S
Li1545 O1604 1.970 . S
Li1545 O1605 1.956 . S
Li1545 O1607 1.961 . S
Li1546 N1591 1.990 . S
Li1546 O1604 1.961 . S
Li1546 O1606 1.956 . S
Li1546 O1607 1.970 . S
Li1547 N1597 1.990 . S
Li1547 O1605 1.961 . S
Li1547 O1606 1.970 . S
Li1547 O1607 1.956 . S
C1548 C1550 1.348 . S
C1548 C1551 1.356 . S
C1548 O1604 1.325 . S
N1549 C1552 1.314 . S
N1549 C1553 1.279 . S
C1550 C1548 1.348 . S
C1550 C1552 1.353 . S
C1550 H1608 0.929 . S
C1551 C1548 1.356 . S
C1551 C1553 1.358 . S
C1551 H1609 0.930 . S
C1552 N1549 1.314 . S
C1552 C1550 1.353 . S
C1552 H1610 0.930 . S
C1553 N1549 1.279 . S
C1553 C1551 1.358 . S
C1553 H1611 0.930 . S
C1554 C1557 1.348 . S
C1554 C1558 1.356 . S
C1554 O1605 1.325 . S
C1555 N1556 1.279 . S
C1555 C1558 1.358 . S
C1555 H1612 0.930 . S
N1556 C1555 1.279 . S
N1556 C1559 1.314 . S
C1557 C1554 1.348 . S
C1557 C1559 1.353 . S
C1557 H1613 0.929 . S
C1558 C1554 1.356 . S
C1558 C1555 1.358 . S
C1558 H1614 0.930 . S
C1559 N1556 1.314 . S
C1559 C1557 1.353 . S
C1559 H1615 0.930 . S
C1560 N1561 1.314 . S
C1560 C1565 1.353 . S
C1560 H1566 0.930 . S
N1561 Li1544 1.990 . S
N1561 C1560 1.314 . S
N1561 C1563 1.279 . S
C1562 C1563 1.358 . S
C1562 C1564 1.356 . S
C1562 H1616 0.930 . S
C1563 N1561 1.279 . S
C1563 C1562 1.358 . S
C1563 H1567 0.930 . S
C1564 C1562 1.356 . S
C1564 C1565 1.348 . S
C1565 C1560 1.353 . S
C1565 C1564 1.348 . S
C1565 H1617 0.929 . S
H1566 C1560 0.930 . S
H1567 C1563 0.930 . S
C1568 N1569 1.314 . S
C1568 C1570 1.353 . S
C1568 H1574 0.930 . S
N1569 Li1545 1.990 . S
N1569 C1568 1.314 . S
N1569 C1572 1.279 . S
C1570 C1568 1.353 . S
C1570 C1573 1.348 . S
C1570 H1618 0.929 . S
C1571 C1572 1.358 . S
C1571 C1573 1.356 . S
C1571 H1619 0.930 . S
C1572 N1569 1.279 . S
C1572 C1571 1.358 . S
C1572 H1575 0.930 . S
C1573 C1570 1.348 . S
C1573 C1571 1.356 . S
H1574 C1568 0.930 . S
H1575 C1572 0.930 . S
C1576 C1578 1.348 . S
C1576 C1579 1.356 . S
C1576 O1606 1.325 . S
N1577 C1580 1.314 . S
N1577 C1581 1.279 . S
C1578 C1576 1.348 . S
C1578 C1580 1.353 . S
C1578 H1620 0.929 . S
C1579 C1576 1.356 . S
C1579 C1581 1.358 . S
C1579 H1621 0.930 . S
C1580 N1577 1.314 . S
C1580 C1578 1.353 . S
C1580 H1622 0.930 . S
C1581 N1577 1.279 . S
C1581 C1579 1.358 . S
C1581 H1623 0.930 . S
C1582 C1583 1.348 . S
C1582 C1584 1.356 . S
C1582 O1607 1.325 . S
C1583 C1582 1.348 . S
C1583 C1585 1.353 . S
C1583 H1624 0.929 . S
C1584 C1582 1.356 . S
C1584 C1586 1.358 . S
C1584 H1625 0.930 . S
C1585 C1583 1.353 . S
C1585 N1587 1.314 . S
C1585 H1626 0.930 . S
C1586 C1584 1.358 . S
C1586 N1587 1.279 . S
C1586 H1627 0.930 . S
N1587 C1585 1.314 . S
N1587 C1586 1.279 . S
C1588 C1590 1.353 . S
C1588 N1591 1.314 . S
C1588 H1594 0.930 . S
C1589 N1591 1.279 . S
C1589 C1592 1.358 . S
C1589 H1595 0.930 . S
C1590 C1588 1.353 . S
C1590 C1593 1.348 . S
C1590 H1628 0.929 . S
N1591 Li1546 1.990 . S
N1591 C1588 1.314 . S
N1591 C1589 1.279 . S
C1592 C1589 1.358 . S
C1592 C1593 1.356 . S
C1592 H1629 0.930 . S
C1593 C1590 1.348 . S
C1593 C1592 1.356 . S
H1594 C1588 0.930 . S
H1595 C1589 0.930 . S
C1596 N1597 1.314 . S
C1596 C1598 1.353 . S
C1596 H1602 0.930 . S
N1597 Li1547 1.990 . S
N1597 C1596 1.314 . S
N1597 C1600 1.279 . S
C1598 C1596 1.353 . S
C1598 C1601 1.348 . S
C1598 H1630 0.929 . S
C1599 C1600 1.358 . S
C1599 C1601 1.356 . S
C1599 H1631 0.930 . S
C1600 N1597 1.279 . S
C1600 C1599 1.358 . S
C1600 H1603 0.930 . S
C1601 C1598 1.348 . S
C1601 C1599 1.356 . S
H1602 C1596 0.930 . S
H1603 C1600 0.930 . S
O1604 Li1544 1.956 . S
O1604 Li1545 1.970 . S
O1604 Li1546 1.961 . S
O1604 C1548 1.325 . S
O1605 Li1544 1.970 . S
O1605 Li1545 1.956 . S
O1605 Li1547 1.961 . S
O1605 C1554 1.325 . S
O1606 Li1544 1.961 . S
O1606 Li1546 1.956 . S
O1606 Li1547 1.970 . S
O1606 C1576 1.325 . S
O1607 Li1545 1.961 . S
O1607 Li1546 1.970 . S
O1607 Li1547 1.956 . S
O1607 C1582 1.325 . S
H1608 C1550 0.929 . S
H1609 C1551 0.930 . S
H1610 C1552 0.930 . S
H1611 C1553 0.930 . S
H1612 C1555 0.930 . S
H1613 C1557 0.929 . S
H1614 C1558 0.930 . S
H1615 C1559 0.930 . S
H1616 C1562 0.930 . S
H1617 C1565 0.929 . S
H1618 C1570 0.929 . S
H1619 C1571 0.930 . S
H1620 C1578 0.929 . S
H1621 C1579 0.930 . S
H1622 C1580 0.930 . S
H1623 C1581 0.930 . S
H1624 C1583 0.929 . S
H1625 C1584 0.930 . S
H1626 C1585 0.930 . S
H1627 C1586 0.930 . S
H1628 C1590 0.929 . S
H1629 C1592 0.930 . S
H1630 C1598 0.929 . S
H1631 C1599 0.930 . S
H1632 C1640 0.929 . S
H1633 C1642 0.930 . S
H1634 C1644 0.930 . S
H1635 C1647 0.929 . S
H1636 C1650 0.930 . S
H1637 C1652 0.960 . S
H1638 C1652 0.960 . S
H1639 C1652 0.960 . S
C1640 H1632 0.929 . S
C1640 C1641 1.377 . S
C1640 C1642 1.384 . S
C1641 C1640 1.377 . S
C1641 C1647 1.390 . S
C1642 H1633 0.930 . S
C1642 C1640 1.384 . S
C1642 C1643 1.372 . S
C1643 C1642 1.372 . S
C1643 C1644 1.400 . S
C1643 C1648 1.490 . S
C1644 H1634 0.930 . S
C1644 C1643 1.400 . S
C1644 C1647 1.386 . S
H1645 C1661 0.930 . S
H1646 C1662 0.931 . S
C1647 H1635 0.929 . S
C1647 C1641 1.390 . S
C1647 C1644 1.386 . S
C1648 C1643 1.490 . S
C1648 C1650 1.395 . S
C1648 C1651 1.403 . S
H1649 C1655 0.930 . S
C1650 H1636 0.930 . S
C1650 C1648 1.395 . S
C1650 C1653 1.403 . S
C1651 C1648 1.403 . S
C1651 C1652 1.524 . S
C1651 C1655 1.400 . S
C1652 H1637 0.960 . S
C1652 H1638 0.960 . S
C1652 H1639 0.960 . S
C1652 C1651 1.524 . S
C1653 C1650 1.403 . S
C1653 C1654 1.392 . S
C1653 C1657 1.495 . S
C1654 C1653 1.392 . S
C1654 C1655 1.385 . S
C1654 C1656 1.478 . S
C1655 H1649 0.930 . S
C1655 C1651 1.400 . S
C1655 C1654 1.385 . S
C1656 C1654 1.478 . S
C1656 C1658 1.381 . S
C1656 C1662 1.383 . S
C1657 C1653 1.495 . S
C1657 H1663 0.959 . S
C1657 H1664 0.961 . S
C1657 H1665 0.960 . S
C1658 C1656 1.381 . S
C1658 C1659 1.394 . S
C1658 H1666 0.930 . S
C1659 C1658 1.394 . S
C1659 C1660 1.383 . S
C1659 H1667 0.929 . S
C1660 C1659 1.383 . S
C1660 C1661 1.377 . S
C1661 H1645 0.930 . S
C1661 C1660 1.377 . S
C1661 C1662 1.379 . S
C1662 H1646 0.931 . S
C1662 C1656 1.383 . S
C1662 C1661 1.379 . S
H1663 C1657 0.959 . S
H1664 C1657 0.961 . S
H1665 C1657 0.960 . S
H1666 C1658 0.930 . S
H1667 C1659 0.929 . S
H1668 C1676 0.929 . S
H1669 C1678 0.930 . S
H1670 C1680 0.930 . S
H1671 C1683 0.929 . S
H1672 C1686 0.930 . S
H1673 C1688 0.960 . S
H1674 C1688 0.960 . S
H1675 C1688 0.960 . S
C1676 H1668 0.929 . S
C1676 C1677 1.377 . S
C1676 C1678 1.384 . S
C1677 C1676 1.377 . S
C1677 C1683 1.390 . S
C1678 H1669 0.930 . S
C1678 C1676 1.384 . S
C1678 C1679 1.372 . S
C1679 C1678 1.372 . S
C1679 C1680 1.400 . S
C1679 C1684 1.490 . S
C1680 H1670 0.930 . S
C1680 C1679 1.400 . S
C1680 C1683 1.386 . S
H1681 C1697 0.930 . S
H1682 C1698 0.931 . S
C1683 H1671 0.929 . S
C1683 C1677 1.390 . S
C1683 C1680 1.386 . S
C1684 C1679 1.490 . S
C1684 C1686 1.395 . S
C1684 C1687 1.403 . S
H1685 C1691 0.930 . S
C1686 H1672 0.930 . S
C1686 C1684 1.395 . S
C1686 C1689 1.403 . S
C1687 C1684 1.403 . S
C1687 C1688 1.524 . S
C1687 C1691 1.400 . S
C1688 H1673 0.960 . S
C1688 H1674 0.960 . S
C1688 H1675 0.960 . S
C1688 C1687 1.524 . S
C1689 C1686 1.403 . S
C1689 C1690 1.392 . S
C1689 C1693 1.495 . S
C1690 C1689 1.392 . S
C1690 C1691 1.385 . S
C1690 C1692 1.478 . S
C1691 H1685 0.930 . S
C1691 C1687 1.400 . S
C1691 C1690 1.385 . S
C1692 C1690 1.478 . S
C1692 C1694 1.381 . S
C1692 C1698 1.383 . S
C1693 C1689 1.495 . S
C1693 H1699 0.959 . S
C1693 H1700 0.961 . S
C1693 H1701 0.960 . S
C1694 C1692 1.381 . S
C1694 C1695 1.394 . S
C1694 H1702 0.930 . S
C1695 C1694 1.394 . S
C1695 C1696 1.383 . S
C1695 H1703 0.929 . S
C1696 C1695 1.383 . S
C1696 C1697 1.377 . S
C1697 H1681 0.930 . S
C1697 C1696 1.377 . S
C1697 C1698 1.379 . S
C1698 H1682 0.931 . S
C1698 C1692 1.383 . S
C1698 C1697 1.379 . S
H1699 C1693 0.959 . S
H1700 C1693 0.961 . S
H1701 C1693 0.960 . S
H1702 C1694 0.930 . S
H1703 C1695 0.929 . S
H1704 C1712 0.929 . S
H1705 C1714 0.930 . S
H1706 C1716 0.930 . S
H1707 C1719 0.929 . S
H1708 C1722 0.930 . S
H1709 C1724 0.960 . S
H1710 C1724 0.960 . S
H1711 C1724 0.960 . S
C1712 H1704 0.929 . S
C1712 C1713 1.377 . S
C1712 C1714 1.384 . S
C1713 C1712 1.377 . S
C1713 C1719 1.390 . S
C1714 H1705 0.930 . S
C1714 C1712 1.384 . S
C1714 C1715 1.372 . S
C1715 C1714 1.372 . S
C1715 C1716 1.400 . S
C1715 C1720 1.490 . S
C1716 H1706 0.930 . S
C1716 C1715 1.400 . S
C1716 C1719 1.386 . S
H1717 C1733 0.930 . S
H1718 C1734 0.931 . S
C1719 H1707 0.929 . S
C1719 C1713 1.390 . S
C1719 C1716 1.386 . S
C1720 C1715 1.490 . S
C1720 C1722 1.395 . S
C1720 C1723 1.403 . S
H1721 C1727 0.930 . S
C1722 H1708 0.930 . S
C1722 C1720 1.395 . S
C1722 C1725 1.403 . S
C1723 C1720 1.403 . S
C1723 C1724 1.524 . S
C1723 C1727 1.400 . S
C1724 H1709 0.960 . S
C1724 H1710 0.960 . S
C1724 H1711 0.960 . S
C1724 C1723 1.524 . S
C1725 C1722 1.403 . S
C1725 C1726 1.392 . S
C1725 C1729 1.495 . S
C1726 C1725 1.392 . S
C1726 C1727 1.385 . S
C1726 C1728 1.478 . S
C1727 H1721 0.930 . S
C1727 C1723 1.400 . S
C1727 C1726 1.385 . S
C1728 C1726 1.478 . S
C1728 C1730 1.381 . S
C1728 C1734 1.383 . S
C1729 C1725 1.495 . S
C1729 H1735 0.959 . S
C1729 H1736 0.961 . S
C1729 H1737 0.960 . S
C1730 C1728 1.381 . S
C1730 C1731 1.394 . S
C1730 H1738 0.930 . S
C1731 C1730 1.394 . S
C1731 C1732 1.383 . S
C1731 H1739 0.929 . S
C1732 C1731 1.383 . S
C1732 C1733 1.377 . S
C1733 H1717 0.930 . S
C1733 C1732 1.377 . S
C1733 C1734 1.379 . S
C1734 H1718 0.931 . S
C1734 C1728 1.383 . S
C1734 C1733 1.379 . S
H1735 C1729 0.959 . S
H1736 C1729 0.961 . S
H1737 C1729 0.960 . S
H1738 C1730 0.930 . S
H1739 C1731 0.929 . S
H1740 C1748 0.929 1_455 S
H1741 C1750 0.930 . S
H1742 C1752 0.930 . S
H1743 C1755 0.929 . S
H1744 C1758 0.930 . S
H1745 C1760 0.960 . S
H1746 C1760 0.960 . S
H1747 C1760 0.960 . S
C1748 H1740 0.929 1_655 S
C1748 C1749 1.377 . S
C1748 C1750 1.384 . S
C1749 C1748 1.377 . S
C1749 C1755 1.390 . S
C1750 H1741 0.930 . S
C1750 C1748 1.384 . S
C1750 C1751 1.372 . S
C1751 C1750 1.372 . S
C1751 C1752 1.400 . S
C1751 C1756 1.490 . S
C1752 H1742 0.930 . S
C1752 C1751 1.400 . S
C1752 C1755 1.386 . S
H1753 C1769 0.930 . S
H1754 C1770 0.931 . S
C1755 H1743 0.929 . S
C1755 C1749 1.390 . S
C1755 C1752 1.386 . S
C1756 C1751 1.490 . S
C1756 C1758 1.395 . S
C1756 C1759 1.403 . S
H1757 C1763 0.930 1_545 S
C1758 H1744 0.930 . S
C1758 C1756 1.395 . S
C1758 C1761 1.403 . S
C1759 C1756 1.403 . S
C1759 C1760 1.524 1_565 S
C1759 C1763 1.400 . S
C1760 H1745 0.960 . S
C1760 H1746 0.960 . S
C1760 H1747 0.960 . S
C1760 C1759 1.524 1_545 S
C1761 C1758 1.403 . S
C1761 C1762 1.392 . S
C1761 C1765 1.495 . S
C1762 C1761 1.392 . S
C1762 C1763 1.385 . S
C1762 C1764 1.478 . S
C1763 H1757 0.930 1_565 S
C1763 C1759 1.400 . S
C1763 C1762 1.385 . S
C1764 C1762 1.478 . S
C1764 C1766 1.381 . S
C1764 C1770 1.383 . S
C1765 C1761 1.495 . S
C1765 H1771 0.959 . S
C1765 H1772 0.961 . S
C1765 H1773 0.960 . S
C1766 C1764 1.381 . S
C1766 C1767 1.394 . S
C1766 H1774 0.930 . S
C1767 C1766 1.394 . S
C1767 C1768 1.383 . S
C1767 H1775 0.929 . S
C1768 C1767 1.383 . S
C1768 C1769 1.377 . S
C1769 H1753 0.930 . S
C1769 C1768 1.377 . S
C1769 C1770 1.379 . S
C1770 H1754 0.931 . S
C1770 C1764 1.383 . S
C1770 C1769 1.379 . S
H1771 C1765 0.959 . S
H1772 C1765 0.961 . S
H1773 C1765 0.960 . S
H1774 C1766 0.930 . S
H1775 C1767 0.929 . S
H1776 C1784 0.929 . S
H1777 C1786 0.930 . S
H1778 C1788 0.930 . S
H1779 C1791 0.929 . S
H1780 C1794 0.930 . S
H1781 C1796 0.960 . S
H1782 C1796 0.960 . S
H1783 C1796 0.960 . S
C1784 H1776 0.929 . S
C1784 C1785 1.377 . S
C1784 C1786 1.384 . S
C1785 C1784 1.377 . S
C1785 C1791 1.390 . S
C1786 H1777 0.930 . S
C1786 C1784 1.384 . S
C1786 C1787 1.372 . S
C1787 C1786 1.372 . S
C1787 C1788 1.400 . S
C1787 C1792 1.490 . S
C1788 H1778 0.930 . S
C1788 C1787 1.400 . S
C1788 C1791 1.386 . S
H1789 C1805 0.930 . S
H1790 C1806 0.931 . S
C1791 H1779 0.929 . S
C1791 C1785 1.390 . S
C1791 C1788 1.386 . S
C1792 C1787 1.490 . S
C1792 C1794 1.395 . S
C1792 C1795 1.403 . S
H1793 C1799 0.930 . S
C1794 H1780 0.930 . S
C1794 C1792 1.395 . S
C1794 C1797 1.403 . S
C1795 C1792 1.403 . S
C1795 C1796 1.524 . S
C1795 C1799 1.400 . S
C1796 H1781 0.960 . S
C1796 H1782 0.960 . S
C1796 H1783 0.960 . S
C1796 C1795 1.524 . S
C1797 C1794 1.403 . S
C1797 C1798 1.392 . S
C1797 C1801 1.495 . S
C1798 C1797 1.392 . S
C1798 C1799 1.385 . S
C1798 C1800 1.478 . S
C1799 H1793 0.930 . S
C1799 C1795 1.400 . S
C1799 C1798 1.385 . S
C1800 C1798 1.478 . S
C1800 C1802 1.381 . S
C1800 C1806 1.383 . S
C1801 C1797 1.495 . S
C1801 H1807 0.959 . S
C1801 H1808 0.961 . S
C1801 H1809 0.960 . S
C1802 C1800 1.381 . S
C1802 C1803 1.394 . S
C1802 H1810 0.930 . S
C1803 C1802 1.394 . S
C1803 C1804 1.383 . S
C1803 H1811 0.929 . S
C1804 C1803 1.383 . S
C1804 C1805 1.377 . S
C1805 H1789 0.930 . S
C1805 C1804 1.377 . S
C1805 C1806 1.379 . S
C1806 H1790 0.931 . S
C1806 C1800 1.383 . S
C1806 C1805 1.379 . S
H1807 C1801 0.959 . S
H1808 C1801 0.961 . S
H1809 C1801 0.960 . S
H1810 C1802 0.930 . S
H1811 C1803 0.929 . S
H1812 C1820 0.929 . S
H1813 C1822 0.930 . S
H1814 C1824 0.930 . S
H1815 C1827 0.929 . S
H1816 C1830 0.930 . S
H1817 C1832 0.960 . S
H1818 C1832 0.960 . S
H1819 C1832 0.960 . S
C1820 H1812 0.929 . S
C1820 C1821 1.377 . S
C1820 C1822 1.384 . S
C1821 C1820 1.377 . S
C1821 C1827 1.390 . S
C1822 H1813 0.930 . S
C1822 C1820 1.384 . S
C1822 C1823 1.372 . S
C1823 C1822 1.372 . S
C1823 C1824 1.400 . S
C1823 C1828 1.490 . S
C1824 H1814 0.930 . S
C1824 C1823 1.400 . S
C1824 C1827 1.386 . S
H1825 C1841 0.930 . S
H1826 C1842 0.931 . S
C1827 H1815 0.929 . S
C1827 C1821 1.390 . S
C1827 C1824 1.386 . S
C1828 C1823 1.490 . S
C1828 C1830 1.395 . S
C1828 C1831 1.403 . S
H1829 C1835 0.930 . S
C1830 H1816 0.930 . S
C1830 C1828 1.395 . S
C1830 C1833 1.403 . S
C1831 C1828 1.403 . S
C1831 C1832 1.524 . S
C1831 C1835 1.400 . S
C1832 H1817 0.960 . S
C1832 H1818 0.960 . S
C1832 H1819 0.960 . S
C1832 C1831 1.524 . S
C1833 C1830 1.403 . S
C1833 C1834 1.392 . S
C1833 C1837 1.495 . S
C1834 C1833 1.392 . S
C1834 C1835 1.385 . S
C1834 C1836 1.478 . S
C1835 H1829 0.930 . S
C1835 C1831 1.400 . S
C1835 C1834 1.385 . S
C1836 C1834 1.478 . S
C1836 C1838 1.381 . S
C1836 C1842 1.383 . S
C1837 C1833 1.495 . S
C1837 H1843 0.959 . S
C1837 H1844 0.961 . S
C1837 H1845 0.960 . S
C1838 C1836 1.381 . S
C1838 C1839 1.394 . S
C1838 H1846 0.930 . S
C1839 C1838 1.394 . S
C1839 C1840 1.383 . S
C1839 H1847 0.929 . S
C1840 C1839 1.383 . S
C1840 C1841 1.377 . S
C1841 H1825 0.930 . S
C1841 C1840 1.377 . S
C1841 C1842 1.379 . S
C1842 H1826 0.931 . S
C1842 C1836 1.383 . S
C1842 C1841 1.379 . S
H1843 C1837 0.959 . S
H1844 C1837 0.961 . S
H1845 C1837 0.960 . S
H1846 C1838 0.930 . S
H1847 C1839 0.929 . S
H1848 C1856 0.929 . S
H1849 C1858 0.930 . S
H1850 C1860 0.930 . S
H1851 C1863 0.929 . S
H1852 C1866 0.930 . S
H1853 C1868 0.960 . S
H1854 C1868 0.960 . S
H1855 C1868 0.960 . S
C1856 H1848 0.929 . S
C1856 C1857 1.377 . S
C1856 C1858 1.384 . S
C1857 C1856 1.377 . S
C1857 C1863 1.390 . S
C1858 H1849 0.930 . S
C1858 C1856 1.384 . S
C1858 C1859 1.372 . S
C1859 C1858 1.372 . S
C1859 C1860 1.400 . S
C1859 C1864 1.490 . S
C1860 H1850 0.930 . S
C1860 C1859 1.400 . S
C1860 C1863 1.386 . S
H1861 C1877 0.930 . S
H1862 C1878 0.931 . S
C1863 H1851 0.929 . S
C1863 C1857 1.390 . S
C1863 C1860 1.386 . S
C1864 C1859 1.490 . S
C1864 C1866 1.395 . S
C1864 C1867 1.403 . S
H1865 C1871 0.930 . S
C1866 H1852 0.930 . S
C1866 C1864 1.395 . S
C1866 C1869 1.403 . S
C1867 C1864 1.403 . S
C1867 C1868 1.524 . S
C1867 C1871 1.400 . S
C1868 H1853 0.960 . S
C1868 H1854 0.960 . S
C1868 H1855 0.960 . S
C1868 C1867 1.524 . S
C1869 C1866 1.403 . S
C1869 C1870 1.392 . S
C1869 C1873 1.495 . S
C1870 C1869 1.392 . S
C1870 C1871 1.385 . S
C1870 C1872 1.478 . S
C1871 H1865 0.930 . S
C1871 C1867 1.400 . S
C1871 C1870 1.385 . S
C1872 C1870 1.478 . S
C1872 C1874 1.381 . S
C1872 C1878 1.383 . S
C1873 C1869 1.495 . S
C1873 H1879 0.959 . S
C1873 H1880 0.961 . S
C1873 H1881 0.960 . S
C1874 C1872 1.381 . S
C1874 C1875 1.394 . S
C1874 H1882 0.930 . S
C1875 C1874 1.394 . S
C1875 C1876 1.383 . S
C1875 H1883 0.929 . S
C1876 C1875 1.383 . S
C1876 C1877 1.377 . S
C1877 H1861 0.930 . S
C1877 C1876 1.377 . S
C1877 C1878 1.379 . S
C1878 H1862 0.931 . S
C1878 C1872 1.383 . S
C1878 C1877 1.379 . S
H1879 C1873 0.959 . S
H1880 C1873 0.961 . S
H1881 C1873 0.960 . S
H1882 C1874 0.930 . S
H1883 C1875 0.929 . S
H1884 C1892 0.962 . S
H1885 C1894 0.930 1_545 S
H1886 C1896 0.930 . S
H1887 C1899 0.929 . S
H1888 C1902 0.930 . S
H1889 C1904 0.960 . S
H1890 C1904 0.960 . S
H1891 C1904 0.960 . S
C1892 H1884 0.962 . S
C1892 C1893 1.377 . S
C1892 C1894 1.384 . S
C1893 C1892 1.377 . S
C1893 C1899 1.390 . S
C1894 H1885 0.930 1_565 S
C1894 C1892 1.384 . S
C1894 C1895 1.372 . S
C1895 C1894 1.372 . S
C1895 C1896 1.400 . S
C1895 C1900 1.490 . S
C1896 H1886 0.930 . S
C1896 C1895 1.400 . S
C1896 C1899 1.386 . S
H1897 C1913 0.930 . S
H1898 C1914 0.931 . S
C1899 H1887 0.929 . S
C1899 C1893 1.390 . S
C1899 C1896 1.386 . S
C1900 C1895 1.490 . S
C1900 C1902 1.395 . S
C1900 C1903 1.403 . S
H1901 C1907 0.930 . S
C1902 H1888 0.930 . S
C1902 C1900 1.395 . S
C1902 C1905 1.403 . S
C1903 C1900 1.403 . S
C1903 C1904 1.524 . S
C1903 C1907 1.400 . S
C1904 H1889 0.960 . S
C1904 H1890 0.960 . S
C1904 H1891 0.960 . S
C1904 C1903 1.524 . S
C1905 C1902 1.403 . S
C1905 C1906 1.392 . S
C1905 C1909 1.495 . S
C1906 C1905 1.392 . S
C1906 C1907 1.385 . S
C1906 C1908 1.478 . S
C1907 H1901 0.930 . S
C1907 C1903 1.400 . S
C1907 C1906 1.385 . S
C1908 C1906 1.478 . S
C1908 C1910 1.381 1_565 S
C1908 C1914 1.383 . S
C1909 C1905 1.495 . S
C1909 H1915 0.959 . S
C1909 H1916 0.961 . S
C1909 H1917 0.960 1_565 S
C1910 C1908 1.381 1_545 S
C1910 C1911 1.394 . S
C1910 H1918 0.930 . S
C1911 C1910 1.394 . S
C1911 C1912 1.383 1_545 S
C1911 H1919 0.929 . S
C1912 C1911 1.383 1_565 S
C1912 C1913 1.377 . S
C1913 H1897 0.930 . S
C1913 C1912 1.377 . S
C1913 C1914 1.379 . S
C1914 H1898 0.931 . S
C1914 C1908 1.383 . S
C1914 C1913 1.379 . S
H1915 C1909 0.959 . S
H1916 C1909 0.961 . S
H1917 C1909 0.960 1_545 S
H1918 C1910 0.930 . S
H1919 C1911 0.929 . S
H1920 C1928 0.929 . S
H1921 C1930 0.930 . S
H1922 C1932 0.930 . S
H1923 C1935 0.929 . S
H1924 C1938 0.930 . S
H1925 C1940 0.960 . S
H1926 C1940 0.960 . S
H1927 C1940 0.960 . S
C1928 H1920 0.929 . S
C1928 C1929 1.377 . S
C1928 C1930 1.384 . S
C1929 C1928 1.377 . S
C1929 C1935 1.390 . S
C1930 H1921 0.930 . S
C1930 C1928 1.384 . S
C1930 C1931 1.372 . S
C1931 C1930 1.372 . S
C1931 C1932 1.400 . S
C1931 C1936 1.490 . S
C1932 H1922 0.930 . S
C1932 C1931 1.400 . S
C1932 C1935 1.386 . S
H1933 C1949 0.930 . S
H1934 C1950 0.931 . S
C1935 H1923 0.929 . S
C1935 C1929 1.390 . S
C1935 C1932 1.386 . S
C1936 C1931 1.490 . S
C1936 C1938 1.395 . S
C1936 C1939 1.403 . S
H1937 C1943 0.930 . S
C1938 H1924 0.930 . S
C1938 C1936 1.395 . S
C1938 C1941 1.403 . S
C1939 C1936 1.403 . S
C1939 C1940 1.524 . S
C1939 C1943 1.400 . S
C1940 H1925 0.960 . S
C1940 H1926 0.960 . S
C1940 H1927 0.960 . S
C1940 C1939 1.524 . S
C1941 C1938 1.403 . S
C1941 C1942 1.392 . S
C1941 C1945 1.495 . S
C1942 C1941 1.392 . S
C1942 C1943 1.385 . S
C1942 C1944 1.478 . S
C1943 H1937 0.930 . S
C1943 C1939 1.400 . S
C1943 C1942 1.385 . S
C1944 C1942 1.478 . S
C1944 C1946 1.381 . S
C1944 C1950 1.383 . S
C1945 C1941 1.495 . S
C1945 H1951 0.959 . S
C1945 H1952 0.961 . S
C1945 H1953 0.960 . S
C1946 C1944 1.381 . S
C1946 C1947 1.394 . S
C1946 H1954 0.930 . S
C1947 C1946 1.394 . S
C1947 C1948 1.383 . S
C1947 H1955 0.929 . S
C1948 C1947 1.383 . S
C1948 C1949 1.377 . S
C1949 H1933 0.930 . S
C1949 C1948 1.377 . S
C1949 C1950 1.379 . S
C1950 H1934 0.931 . S
C1950 C1944 1.383 . S
C1950 C1949 1.379 . S
H1951 C1945 0.959 . S
H1952 C1945 0.961 . S
H1953 C1945 0.960 . S
H1954 C1946 0.930 . S
H1955 C1947 0.929 . S
H1956 C1964 0.929 . S
H1957 C1966 0.930 . S
H1958 C1968 0.930 . S
H1959 C1971 0.929 . S
H1960 C1974 0.930 . S
H1961 C1976 0.960 . S
H1962 C1976 0.960 . S
H1963 C1976 0.960 . S
C1964 H1956 0.929 . S
C1964 C1965 1.377 . S
C1964 C1966 1.384 . S
C1965 C1964 1.377 . S
C1965 C1971 1.390 . S
C1966 H1957 0.930 . S
C1966 C1964 1.384 . S
C1966 C1967 1.372 . S
C1967 C1966 1.372 . S
C1967 C1968 1.400 . S
C1967 C1972 1.490 . S
C1968 H1958 0.930 . S
C1968 C1967 1.400 . S
C1968 C1971 1.386 . S
H1969 C1985 0.930 . S
H1970 C1986 0.931 . S
C1971 H1959 0.929 . S
C1971 C1965 1.390 . S
C1971 C1968 1.386 . S
C1972 C1967 1.490 . S
C1972 C1974 1.395 . S
C1972 C1975 1.403 . S
H1973 C1979 0.930 . S
C1974 H1960 0.930 . S
C1974 C1972 1.395 . S
C1974 C1977 1.403 . S
C1975 C1972 1.403 . S
C1975 C1976 1.524 . S
C1975 C1979 1.400 . S
C1976 H1961 0.960 . S
C1976 H1962 0.960 . S
C1976 H1963 0.960 . S
C1976 C1975 1.524 . S
C1977 C1974 1.403 . S
C1977 C1978 1.392 . S
C1977 C1981 1.495 . S
C1978 C1977 1.392 . S
C1978 C1979 1.385 . S
C1978 C1980 1.478 . S
C1979 H1973 0.930 . S
C1979 C1975 1.400 . S
C1979 C1978 1.385 . S
C1980 C1978 1.478 . S
C1980 C1982 1.381 . S
C1980 C1986 1.383 . S
C1981 C1977 1.495 . S
C1981 H1987 0.959 . S
C1981 H1988 0.961 . S
C1981 H1989 0.960 . S
C1982 C1980 1.381 . S
C1982 C1983 1.394 . S
C1982 H1990 0.930 . S
C1983 C1982 1.394 . S
C1983 C1984 1.383 . S
C1983 H1991 0.929 . S
C1984 C1983 1.383 . S
C1984 C1985 1.377 . S
C1985 H1969 0.930 . S
C1985 C1984 1.377 . S
C1985 C1986 1.379 . S
C1986 H1970 0.931 . S
C1986 C1980 1.383 . S
C1986 C1985 1.379 . S
H1987 C1981 0.959 . S
H1988 C1981 0.961 . S
H1989 C1981 0.960 . S
H1990 C1982 0.930 . S
H1991 C1983 0.929 . S
H1992 C2000 0.929 . S
H1993 C2002 0.930 . S
H1994 C2004 0.930 . S
H1995 C2007 0.929 . S
H1996 C2010 0.930 . S
H1997 C2012 0.960 . S
H1998 C2012 0.960 . S
H1999 C2012 0.960 . S
C2000 H1992 0.929 . S
C2000 C2001 1.377 . S
C2000 C2002 1.384 . S
C2001 C2000 1.377 . S
C2001 C2007 1.390 . S
C2002 H1993 0.930 . S
C2002 C2000 1.384 . S
C2002 C2003 1.372 . S
C2003 C2002 1.372 . S
C2003 C2004 1.400 . S
C2003 C2008 1.490 . S
C2004 H1994 0.930 . S
C2004 C2003 1.400 . S
C2004 C2007 1.386 . S
H2005 C2021 0.930 . S
H2006 C2022 0.931 . S
C2007 H1995 0.929 . S
C2007 C2001 1.390 . S
C2007 C2004 1.386 . S
C2008 C2003 1.490 . S
C2008 C2010 1.395 . S
C2008 C2011 1.403 . S
H2009 C2015 0.930 . S
C2010 H1996 0.930 . S
C2010 C2008 1.395 . S
C2010 C2013 1.403 . S
C2011 C2008 1.403 . S
C2011 C2012 1.524 . S
C2011 C2015 1.400 . S
C2012 H1997 0.960 . S
C2012 H1998 0.960 . S
C2012 H1999 0.960 . S
C2012 C2011 1.524 . S
C2013 C2010 1.403 . S
C2013 C2014 1.392 . S
C2013 C2017 1.495 . S
C2014 C2013 1.392 . S
C2014 C2015 1.385 . S
C2014 C2016 1.478 . S
C2015 H2009 0.930 . S
C2015 C2011 1.400 . S
C2015 C2014 1.385 . S
C2016 C2014 1.478 . S
C2016 C2018 1.381 . S
C2016 C2022 1.383 . S
C2017 C2013 1.495 . S
C2017 H2023 0.959 . S
C2017 H2024 0.961 . S
C2017 H2025 0.960 . S
C2018 C2016 1.381 . S
C2018 C2019 1.394 . S
C2018 H2026 0.930 . S
C2019 C2018 1.394 . S
C2019 C2020 1.383 . S
C2019 H2027 0.929 . S
C2020 C2019 1.383 . S
C2020 C2021 1.377 . S
C2021 H2005 0.930 . S
C2021 C2020 1.377 . S
C2021 C2022 1.379 . S
C2022 H2006 0.931 . S
C2022 C2016 1.383 . S
C2022 C2021 1.379 . S
H2023 C2017 0.959 . S
H2024 C2017 0.961 . S
H2025 C2017 0.960 . S
H2026 C2018 0.930 . S
H2027 C2019 0.929 . S
H2028 C2036 0.929 . S
H2029 C2038 0.930 . S
H2030 C2040 0.930 . S
H2031 C2043 0.929 . S
H2032 C2046 0.930 . S
H2033 C2048 0.960 . S
H2034 C2048 0.960 . S
H2035 C2048 0.960 . S
C2036 H2028 0.929 . S
C2036 C2037 1.377 . S
C2036 C2038 1.384 . S
C2037 C2036 1.377 . S
C2037 C2043 1.390 . S
C2038 H2029 0.930 . S
C2038 C2036 1.384 . S
C2038 C2039 1.372 . S
C2039 C2038 1.372 . S
C2039 C2040 1.400 . S
C2039 C2044 1.490 . S
C2040 H2030 0.930 . S
C2040 C2039 1.400 . S
C2040 C2043 1.386 . S
H2041 C2057 0.930 . S
H2042 C2058 0.931 . S
C2043 H2031 0.929 . S
C2043 C2037 1.390 . S
C2043 C2040 1.386 . S
C2044 C2039 1.490 . S
C2044 C2046 1.395 . S
C2044 C2047 1.403 . S
H2045 C2051 0.930 . S
C2046 H2032 0.930 . S
C2046 C2044 1.395 . S
C2046 C2049 1.403 . S
C2047 C2044 1.403 . S
C2047 C2048 1.524 . S
C2047 C2051 1.400 . S
C2048 H2033 0.960 . S
C2048 H2034 0.960 . S
C2048 H2035 0.960 . S
C2048 C2047 1.524 . S
C2049 C2046 1.403 . S
C2049 C2050 1.392 . S
C2049 C2053 1.495 . S
C2050 C2049 1.392 . S
C2050 C2051 1.385 . S
C2050 C2052 1.478 . S
C2051 H2045 0.930 . S
C2051 C2047 1.400 . S
C2051 C2050 1.385 . S
C2052 C2050 1.478 . S
C2052 C2054 1.381 . S
C2052 C2058 1.383 . S
C2053 C2049 1.495 . S
C2053 H2059 0.959 . S
C2053 H2060 0.961 . S
C2053 H2061 0.960 . S
C2054 C2052 1.381 . S
C2054 C2055 1.394 . S
C2054 H2062 0.930 . S
C2055 C2054 1.394 . S
C2055 C2056 1.383 . S
C2055 H2063 0.929 . S
C2056 C2055 1.383 . S
C2056 C2057 1.377 . S
C2057 H2041 0.930 . S
C2057 C2056 1.377 . S
C2057 C2058 1.379 . S
C2058 H2042 0.931 . S
C2058 C2052 1.383 . S
C2058 C2057 1.379 . S
H2059 C2053 0.959 . S
H2060 C2053 0.961 . S
H2061 C2053 0.960 . S
H2062 C2054 0.930 . S
H2063 C2055 0.929 . S
H2064 C2072 0.929 . S
H2065 C2074 0.930 . S
H2066 C2076 0.930 . S
H2067 C2079 0.929 . S
H2068 C2082 0.930 . S
H2069 C2084 0.960 . S
H2070 C2084 0.960 . S
H2071 C2084 0.960 . S
C2072 H2064 0.929 . S
C2072 C2073 1.377 . S
C2072 C2074 1.384 . S
C2073 C2072 1.377 . S
C2073 C2079 1.390 . S
C2074 H2065 0.930 . S
C2074 C2072 1.384 . S
C2074 C2075 1.372 . S
C2075 C2074 1.372 . S
C2075 C2076 1.400 . S
C2075 C2080 1.490 . S
C2076 H2066 0.930 . S
C2076 C2075 1.400 . S
C2076 C2079 1.386 . S
H2077 C2093 0.930 . S
H2078 C2094 0.931 . S
C2079 H2067 0.929 . S
C2079 C2073 1.390 . S
C2079 C2076 1.386 . S
C2080 C2075 1.490 . S
C2080 C2082 1.395 . S
C2080 C2083 1.403 . S
H2081 C2087 0.930 . S
C2082 H2068 0.930 . S
C2082 C2080 1.395 . S
C2082 C2085 1.403 . S
C2083 C2080 1.403 . S
C2083 C2084 1.524 . S
C2083 C2087 1.400 . S
C2084 H2069 0.960 . S
C2084 H2070 0.960 . S
C2084 H2071 0.960 . S
C2084 C2083 1.524 . S
C2085 C2082 1.403 . S
C2085 C2086 1.392 . S
C2085 C2089 1.495 . S
C2086 C2085 1.392 . S
C2086 C2087 1.385 . S
C2086 C2088 1.478 . S
C2087 H2081 0.930 . S
C2087 C2083 1.400 . S
C2087 C2086 1.385 . S
C2088 C2086 1.478 . S
C2088 C2090 1.381 . S
C2088 C2094 1.383 . S
C2089 C2085 1.495 . S
C2089 H2095 0.959 . S
C2089 H2096 0.961 . S
C2089 H2097 0.960 . S
C2090 C2088 1.381 . S
C2090 C2091 1.394 . S
C2090 H2098 0.930 . S
C2091 C2090 1.394 . S
C2091 C2092 1.383 . S
C2091 H2099 0.929 . S
C2092 C2091 1.383 . S
C2092 C2093 1.377 . S
C2093 H2077 0.930 . S
C2093 C2092 1.377 . S
C2093 C2094 1.379 . S
C2094 H2078 0.931 . S
C2094 C2088 1.383 . S
C2094 C2093 1.379 . S
H2095 C2089 0.959 . S
H2096 C2089 0.961 . S
H2097 C2089 0.960 . S
H2098 C2090 0.930 . S
H2099 C2091 0.929 . S
H2100 C2108 0.929 . S
H2101 C2110 0.930 . S
H2102 C2112 0.930 . S
H2103 C2115 0.929 . S
H2104 C2118 0.930 1_655 S
H2105 C2120 0.960 . S
H2106 C2120 0.960 . S
H2107 C2120 0.960 . S
C2108 H2100 0.929 . S
C2108 C2109 1.377 . S
C2108 C2110 1.384 . S
C2109 C2108 1.377 . S
C2109 C2115 1.390 . S
C2110 H2101 0.930 . S
C2110 C2108 1.384 . S
C2110 C2111 1.372 . S
C2111 C2110 1.372 . S
C2111 C2112 1.400 . S
C2111 C2116 1.490 . S
C2112 H2102 0.930 . S
C2112 C2111 1.400 . S
C2112 C2115 1.386 . S
H2113 C2129 0.930 . S
H2114 C2130 0.931 . S
C2115 H2103 0.929 . S
C2115 C2109 1.390 . S
C2115 C2112 1.386 . S
C2116 C2111 1.490 . S
C2116 C2118 1.395 . S
C2116 C2119 1.403 . S
H2117 C2123 0.930 . S
C2118 H2104 0.930 1_455 S
C2118 C2116 1.395 . S
C2118 C2121 1.403 . S
C2119 C2116 1.403 . S
C2119 C2120 1.524 . S
C2119 C2123 1.400 . S
C2120 H2105 0.960 . S
C2120 H2106 0.960 . S
C2120 H2107 0.960 . S
C2120 C2119 1.524 . S
C2121 C2118 1.403 . S
C2121 C2122 1.392 . S
C2121 C2125 1.495 1_455 S
C2122 C2121 1.392 . S
C2122 C2123 1.385 . S
C2122 C2124 1.478 . S
C2123 H2117 0.930 . S
C2123 C2119 1.400 . S
C2123 C2122 1.385 . S
C2124 C2122 1.478 . S
C2124 C2126 1.381 . S
C2124 C2130 1.383 . S
C2125 C2121 1.495 1_655 S
C2125 H2131 0.959 . S
C2125 H2132 0.961 . S
C2125 H2133 0.960 . S
C2126 C2124 1.381 . S
C2126 C2127 1.399 . S
C2126 H2134 0.930 1_455 S
C2127 C2126 1.399 . S
C2127 C2128 1.431 . S
C2127 H2135 0.883 1_455 S
C2128 C2127 1.431 . S
C2128 C2129 1.377 . S
C2129 H2113 0.930 . S
C2129 C2128 1.377 . S
C2129 C2130 1.379 . S
C2130 H2114 0.931 . S
C2130 C2124 1.383 . S
C2130 C2129 1.379 . S
H2131 C2125 0.959 . S
H2132 C2125 0.961 . S
H2133 C2125 0.960 . S
H2134 C2126 0.930 1_655 S
H2135 C2127 0.883 1_655 S
H2136 C2144 0.929 . S
H2137 C2146 0.930 . S
H2138 C2148 0.930 . S
H2139 C2151 0.929 . S
H2140 C2154 0.930 . S
H2141 C2156 0.960 . S
H2142 C2156 0.960 . S
H2143 C2156 0.960 . S
C2144 H2136 0.929 . S
C2144 C2145 1.377 . S
C2144 C2146 1.384 . S
C2145 C2144 1.377 . S
C2145 C2151 1.390 . S
C2146 H2137 0.930 . S
C2146 C2144 1.384 . S
C2146 C2147 1.372 . S
C2147 C2146 1.372 . S
C2147 C2148 1.400 . S
C2147 C2152 1.490 . S
C2148 H2138 0.930 . S
C2148 C2147 1.400 . S
C2148 C2151 1.386 . S
H2149 C2165 0.930 . S
H2150 C2166 0.931 . S
C2151 H2139 0.929 . S
C2151 C2145 1.390 . S
C2151 C2148 1.386 . S
C2152 C2147 1.490 . S
C2152 C2154 1.395 . S
C2152 C2155 1.403 . S
H2153 C2159 0.930 . S
C2154 H2140 0.930 . S
C2154 C2152 1.395 . S
C2154 C2157 1.403 . S
C2155 C2152 1.403 . S
C2155 C2156 1.524 . S
C2155 C2159 1.400 . S
C2156 H2141 0.960 . S
C2156 H2142 0.960 . S
C2156 H2143 0.960 . S
C2156 C2155 1.524 . S
C2157 C2154 1.403 . S
C2157 C2158 1.392 . S
C2157 C2161 1.495 . S
C2158 C2157 1.392 . S
C2158 C2159 1.385 . S
C2158 C2160 1.478 . S
C2159 H2153 0.930 . S
C2159 C2155 1.400 . S
C2159 C2158 1.385 . S
C2160 C2158 1.478 . S
C2160 C2162 1.381 . S
C2160 C2166 1.383 . S
C2161 C2157 1.495 . S
C2161 H2167 0.959 . S
C2161 H2168 0.961 . S
C2161 H2169 0.960 . S
C2162 C2160 1.381 . S
C2162 C2163 1.394 . S
C2162 H2170 0.930 . S
C2163 C2162 1.394 . S
C2163 C2164 1.383 . S
C2163 H2171 0.929 . S
C2164 C2163 1.383 . S
C2164 C2165 1.377 . S
C2165 H2149 0.930 . S
C2165 C2164 1.377 . S
C2165 C2166 1.379 . S
C2166 H2150 0.931 . S
C2166 C2160 1.383 . S
C2166 C2165 1.379 . S
H2167 C2161 0.959 . S
H2168 C2161 0.961 . S
H2169 C2161 0.960 . S
H2170 C2162 0.930 . S
H2171 C2163 0.929 . S
H2172 C2180 0.978 . S
H2173 C2182 0.930 1_455 S
H2174 C2184 0.930 . S
H2175 C2187 0.929 . S
H2176 C2190 0.930 1_455 S
H2177 C2192 0.960 . S
H2178 C2192 0.960 . S
H2179 C2192 0.960 . S
C2180 H2172 0.978 . S
C2180 C2181 1.377 . S
C2180 C2182 1.384 . S
C2181 C2180 1.377 . S
C2181 C2187 1.390 . S
C2182 H2173 0.930 1_655 S
C2182 C2180 1.384 . S
C2182 C2183 1.372 . S
C2183 C2182 1.372 . S
C2183 C2184 1.400 . S
C2183 C2188 1.490 . S
C2184 H2174 0.930 . S
C2184 C2183 1.400 . S
C2184 C2187 1.386 . S
H2185 C2201 0.930 . S
H2186 C2202 0.931 . S
C2187 H2175 0.929 . S
C2187 C2181 1.390 . S
C2187 C2184 1.386 . S
C2188 C2183 1.490 . S
C2188 C2190 1.395 . S
C2188 C2191 1.403 . S
H2189 C2195 0.930 . S
C2190 H2176 0.930 1_655 S
C2190 C2188 1.395 . S
C2190 C2193 1.403 . S
C2191 C2188 1.403 . S
C2191 C2192 1.524 . S
C2191 C2195 1.400 . S
C2192 H2177 0.960 . S
C2192 H2178 0.960 . S
C2192 H2179 0.960 . S
C2192 C2191 1.524 . S
C2193 C2190 1.403 . S
C2193 C2194 1.392 . S
C2193 C2197 1.495 1_655 S
C2194 C2193 1.392 . S
C2194 C2195 1.385 . S
C2194 C2196 1.478 . S
C2195 H2189 0.930 . S
C2195 C2191 1.400 . S
C2195 C2194 1.385 . S
C2196 C2194 1.478 . S
C2196 C2198 1.381 1_655 S
C2196 C2202 1.383 . S
C2197 C2193 1.495 1_455 S
C2197 H2203 0.959 . S
C2197 H2204 0.961 . S
C2197 H2205 0.960 . S
C2198 C2196 1.381 1_455 S
C2198 C2199 1.394 . S
C2198 H2206 0.930 . S
C2199 C2198 1.394 . S
C2199 C2200 1.383 1_455 S
C2199 H2207 0.929 . S
C2200 C2199 1.383 1_655 S
C2200 C2201 1.377 . S
C2201 H2185 0.930 . S
C2201 C2200 1.377 . S
C2201 C2202 1.379 . S
C2202 H2186 0.931 . S
C2202 C2196 1.383 . S
C2202 C2201 1.379 . S
H2203 C2197 0.959 . S
H2204 C2197 0.961 . S
H2205 C2197 0.960 . S
H2206 C2198 0.930 . S
H2207 C2199 0.929 . S
H2208 C2216 0.929 . S
H2209 C2218 0.930 . S
H2210 C2220 0.930 . S
H2211 C2223 0.929 . S
H2212 C2226 0.930 . S
H2213 C2228 0.960 . S
H2214 C2228 0.960 . S
H2215 C2228 0.960 . S
C2216 H2208 0.929 . S
C2216 C2217 1.377 . S
C2216 C2218 1.384 . S
C2217 C2216 1.377 . S
C2217 C2223 1.390 . S
C2218 H2209 0.930 . S
C2218 C2216 1.384 . S
C2218 C2219 1.372 . S
C2219 C2218 1.372 . S
C2219 C2220 1.400 . S
C2219 C2224 1.490 . S
C2220 H2210 0.930 . S
C2220 C2219 1.400 . S
C2220 C2223 1.386 . S
H2221 C2237 0.930 . S
H2222 C2238 0.931 . S
C2223 H2211 0.929 . S
C2223 C2217 1.390 . S
C2223 C2220 1.386 . S
C2224 C2219 1.490 . S
C2224 C2226 1.395 . S
C2224 C2227 1.403 . S
H2225 C2231 0.930 . S
C2226 H2212 0.930 . S
C2226 C2224 1.395 . S
C2226 C2229 1.403 . S
C2227 C2224 1.403 . S
C2227 C2228 1.524 . S
C2227 C2231 1.400 . S
C2228 H2213 0.960 . S
C2228 H2214 0.960 . S
C2228 H2215 0.960 . S
C2228 C2227 1.524 . S
C2229 C2226 1.403 . S
C2229 C2230 1.392 . S
C2229 C2233 1.495 . S
C2230 C2229 1.392 . S
C2230 C2231 1.385 . S
C2230 C2232 1.478 . S
C2231 H2225 0.930 . S
C2231 C2227 1.400 . S
C2231 C2230 1.385 . S
C2232 C2230 1.478 . S
C2232 C2234 1.381 . S
C2232 C2238 1.383 . S
C2233 C2229 1.495 . S
C2233 H2239 0.959 . S
C2233 H2240 0.961 . S
C2233 H2241 0.960 . S
C2234 C2232 1.381 . S
C2234 C2235 1.394 . S
C2234 H2242 0.930 . S
C2235 C2234 1.394 . S
C2235 C2236 1.383 . S
C2235 H2243 0.929 . S
C2236 C2235 1.383 . S
C2236 C2237 1.377 . S
C2237 H2221 0.930 . S
C2237 C2236 1.377 . S
C2237 C2238 1.379 . S
C2238 H2222 0.931 . S
C2238 C2232 1.383 . S
C2238 C2237 1.379 . S
H2239 C2233 0.959 . S
H2240 C2233 0.961 . S
H2241 C2233 0.960 . S
H2242 C2234 0.930 . S
H2243 C2235 0.929 . S
H2244 C2252 0.929 . S
H2245 C2254 0.930 . S
H2246 C2256 0.930 . S
H2247 C2259 0.929 . S
H2248 C2262 0.930 . S
H2249 C2264 0.960 . S
H2250 C2264 0.960 . S
H2251 C2264 0.960 . S
C2252 H2244 0.929 . S
C2252 C2253 1.377 . S
C2252 C2254 1.384 . S
C2253 C2252 1.377 . S
C2253 C2259 1.390 . S
C2254 H2245 0.930 . S
C2254 C2252 1.384 . S
C2254 C2255 1.372 . S
C2255 C2254 1.372 . S
C2255 C2256 1.400 . S
C2255 C2260 1.490 . S
C2256 H2246 0.930 . S
C2256 C2255 1.400 . S
C2256 C2259 1.386 . S
H2257 C2273 0.930 . S
H2258 C2274 0.931 . S
C2259 H2247 0.929 . S
C2259 C2253 1.390 . S
C2259 C2256 1.386 . S
C2260 C2255 1.490 . S
C2260 C2262 1.395 . S
C2260 C2263 1.403 . S
H2261 C2267 0.930 . S
C2262 H2248 0.930 . S
C2262 C2260 1.395 . S
C2262 C2265 1.403 . S
C2263 C2260 1.403 . S
C2263 C2264 1.524 . S
C2263 C2267 1.400 . S
C2264 H2249 0.960 . S
C2264 H2250 0.960 . S
C2264 H2251 0.960 . S
C2264 C2263 1.524 . S
C2265 C2262 1.403 . S
C2265 C2266 1.392 . S
C2265 C2269 1.495 . S
C2266 C2265 1.392 . S
C2266 C2267 1.385 . S
C2266 C2268 1.478 . S
C2267 H2261 0.930 . S
C2267 C2263 1.400 . S
C2267 C2266 1.385 . S
C2268 C2266 1.478 . S
C2268 C2270 1.381 . S
C2268 C2274 1.383 . S
C2269 C2265 1.495 . S
C2269 H2275 0.959 . S
C2269 H2276 0.961 . S
C2269 H2277 0.960 . S
C2270 C2268 1.381 . S
C2270 C2271 1.394 . S
C2270 H2278 0.930 . S
C2271 C2270 1.394 . S
C2271 C2272 1.383 . S
C2271 H2279 0.929 . S
C2272 C2271 1.383 . S
C2272 C2273 1.377 . S
C2273 H2257 0.930 . S
C2273 C2272 1.377 . S
C2273 C2274 1.379 . S
C2274 H2258 0.931 . S
C2274 C2268 1.383 . S
C2274 C2273 1.379 . S
H2275 C2269 0.959 . S
H2276 C2269 0.961 . S
H2277 C2269 0.960 . S
H2278 C2270 0.930 . S
H2279 C2271 0.929 . S
H2280 C2288 0.929 . S
H2281 C2290 0.930 . S
H2282 C2292 0.930 . S
H2283 C2295 0.929 . S
H2284 C2298 0.930 . S
H2285 C2300 0.960 . S
H2286 C2300 0.960 . S
H2287 C2300 0.960 . S
C2288 H2280 0.929 . S
C2288 C2289 1.377 . S
C2288 C2290 1.384 . S
C2289 C2288 1.377 . S
C2289 C2295 1.390 . S
C2290 H2281 0.930 . S
C2290 C2288 1.384 . S
C2290 C2291 1.372 . S
C2291 C2290 1.372 . S
C2291 C2292 1.400 . S
C2291 C2296 1.490 . S
C2292 H2282 0.930 . S
C2292 C2291 1.400 . S
C2292 C2295 1.386 . S
H2293 C2309 0.930 . S
H2294 C2310 0.931 . S
C2295 H2283 0.929 . S
C2295 C2289 1.390 . S
C2295 C2292 1.386 . S
C2296 C2291 1.490 . S
C2296 C2298 1.395 . S
C2296 C2299 1.403 . S
H2297 C2303 0.930 . S
C2298 H2284 0.930 . S
C2298 C2296 1.395 . S
C2298 C2301 1.403 . S
C2299 C2296 1.403 . S
C2299 C2300 1.524 . S
C2299 C2303 1.400 . S
C2300 H2285 0.960 . S
C2300 H2286 0.960 . S
C2300 H2287 0.960 . S
C2300 C2299 1.524 . S
C2301 C2298 1.403 . S
C2301 C2302 1.392 . S
C2301 C2305 1.495 . S
C2302 C2301 1.392 . S
C2302 C2303 1.385 . S
C2302 C2304 1.478 . S
C2303 H2297 0.930 . S
C2303 C2299 1.400 . S
C2303 C2302 1.385 . S
C2304 C2302 1.478 . S
C2304 C2306 1.381 . S
C2304 C2310 1.383 . S
C2305 C2301 1.495 . S
C2305 H2311 0.959 . S
C2305 H2312 0.961 . S
C2305 H2313 0.960 . S
C2306 C2304 1.381 . S
C2306 C2307 1.392 1_556 S
C2306 H2314 0.930 1_556 S
C2307 C2306 1.392 1_554 S
C2307 C2308 1.368 1_554 S
C2307 H2315 0.948 . S
C2308 C2307 1.368 1_556 S
C2308 C2309 1.377 . S
C2309 H2293 0.930 . S
C2309 C2308 1.377 . S
C2309 C2310 1.379 . S
C2310 H2294 0.931 . S
C2310 C2304 1.383 . S
C2310 C2309 1.379 . S
H2311 C2305 0.959 . S
H2312 C2305 0.961 . S
H2313 C2305 0.960 . S
H2314 C2306 0.930 1_554 S
H2315 C2307 0.948 . S
H2316 C2324 0.929 . S
H2317 C2326 0.930 . S
H2318 C2328 0.930 . S
H2319 C2331 0.929 . S
H2320 C2334 0.930 . S
H2321 C2336 0.960 . S
H2322 C2336 0.960 . S
H2323 C2336 0.960 . S
C2324 H2316 0.929 . S
C2324 C2325 1.377 . S
C2324 C2326 1.384 . S
C2325 C2324 1.377 . S
C2325 C2331 1.390 . S
C2326 H2317 0.930 . S
C2326 C2324 1.384 . S
C2326 C2327 1.372 . S
C2327 C2326 1.372 . S
C2327 C2328 1.400 . S
C2327 C2332 1.490 . S
C2328 H2318 0.930 . S
C2328 C2327 1.400 . S
C2328 C2331 1.386 . S
H2329 C2345 0.930 . S
H2330 C2346 0.931 . S
C2331 H2319 0.929 . S
C2331 C2325 1.390 . S
C2331 C2328 1.386 . S
C2332 C2327 1.490 . S
C2332 C2334 1.395 . S
C2332 C2335 1.403 . S
H2333 C2339 0.930 . S
C2334 H2320 0.930 . S
C2334 C2332 1.395 . S
C2334 C2337 1.403 . S
C2335 C2332 1.403 . S
C2335 C2336 1.524 . S
C2335 C2339 1.400 . S
C2336 H2321 0.960 . S
C2336 H2322 0.960 . S
C2336 H2323 0.960 . S
C2336 C2335 1.524 . S
C2337 C2334 1.403 . S
C2337 C2338 1.392 . S
C2337 C2341 1.495 . S
C2338 C2337 1.392 . S
C2338 C2339 1.385 . S
C2338 C2340 1.478 . S
C2339 H2333 0.930 . S
C2339 C2335 1.400 . S
C2339 C2338 1.385 . S
C2340 C2338 1.478 . S
C2340 C2342 1.381 . S
C2340 C2346 1.383 . S
C2341 C2337 1.495 . S
C2341 H2347 0.959 . S
C2341 H2348 0.961 . S
C2341 H2349 0.960 . S
C2342 C2340 1.381 . S
C2342 C2343 1.394 . S
C2342 H2350 0.930 . S
C2343 C2342 1.394 . S
C2343 C2344 1.383 . S
C2343 H2351 0.929 . S
C2344 C2343 1.383 . S
C2344 C2345 1.377 . S
C2345 H2329 0.930 . S
C2345 C2344 1.377 . S
C2345 C2346 1.379 . S
C2346 H2330 0.931 . S
C2346 C2340 1.383 . S
C2346 C2345 1.379 . S
H2347 C2341 0.959 . S
H2348 C2341 0.961 . S
H2349 C2341 0.960 . S
H2350 C2342 0.930 . S
H2351 C2343 0.929 . S
H2352 C2360 0.929 . S
H2353 C2362 0.930 . S
H2354 C2364 0.930 . S
H2355 C2367 0.929 . S
H2356 C2370 0.930 . S
H2357 C2372 0.960 . S
H2358 C2372 0.960 . S
H2359 C2372 0.960 . S
C2360 H2352 0.929 . S
C2360 C2361 1.377 . S
C2360 C2362 1.384 . S
C2361 C2360 1.377 . S
C2361 C2367 1.390 . S
C2362 H2353 0.930 . S
C2362 C2360 1.384 . S
C2362 C2363 1.372 . S
C2363 C2362 1.372 . S
C2363 C2364 1.400 . S
C2363 C2368 1.490 . S
C2364 H2354 0.930 . S
C2364 C2363 1.400 . S
C2364 C2367 1.386 . S
H2365 C2381 0.930 . S
H2366 C2382 0.931 . S
C2367 H2355 0.929 . S
C2367 C2361 1.390 . S
C2367 C2364 1.386 . S
C2368 C2363 1.490 . S
C2368 C2370 1.395 . S
C2368 C2371 1.403 . S
H2369 C2375 0.930 . S
C2370 H2356 0.930 . S
C2370 C2368 1.395 . S
C2370 C2373 1.403 . S
C2371 C2368 1.403 . S
C2371 C2372 1.524 . S
C2371 C2375 1.400 . S
C2372 H2357 0.960 . S
C2372 H2358 0.960 . S
C2372 H2359 0.960 . S
C2372 C2371 1.524 . S
C2373 C2370 1.403 . S
C2373 C2374 1.392 . S
C2373 C2377 1.495 . S
C2374 C2373 1.392 . S
C2374 C2375 1.385 . S
C2374 C2376 1.478 . S
C2375 H2369 0.930 . S
C2375 C2371 1.400 . S
C2375 C2374 1.385 . S
C2376 C2374 1.478 . S
C2376 C2378 1.381 . S
C2376 C2382 1.383 . S
C2377 C2373 1.495 . S
C2377 H2383 0.959 . S
C2377 H2384 0.961 . S
C2377 H2385 0.960 . S
C2378 C2376 1.381 . S
C2378 C2379 1.394 . S
C2378 H2386 0.930 . S
C2379 C2378 1.394 . S
C2379 C2380 1.383 . S
C2379 H2387 0.929 . S
C2380 C2379 1.383 . S
C2380 C2381 1.377 . S
C2381 H2365 0.930 . S
C2381 C2380 1.377 . S
C2381 C2382 1.379 . S
C2382 H2366 0.931 . S
C2382 C2376 1.383 . S
C2382 C2381 1.379 . S
H2383 C2377 0.959 . S
H2384 C2377 0.961 . S
H2385 C2377 0.960 . S
H2386 C2378 0.930 . S
H2387 C2379 0.929 . S
H2388 C2396 0.929 . S
H2389 C2398 0.930 . S
H2390 C2400 0.930 . S
H2391 C2403 0.929 . S
H2392 C2406 0.930 . S
H2393 C2408 0.960 . S
H2394 C2408 0.960 . S
H2395 C2408 0.960 . S
C2396 H2388 0.929 . S
C2396 C2397 1.377 . S
C2396 C2398 1.384 . S
C2397 C2396 1.377 . S
C2397 C2403 1.390 . S
C2398 H2389 0.930 . S
C2398 C2396 1.384 . S
C2398 C2399 1.372 . S
C2399 C2398 1.372 . S
C2399 C2400 1.400 . S
C2399 C2404 1.490 . S
C2400 H2390 0.930 . S
C2400 C2399 1.400 . S
C2400 C2403 1.386 . S
H2401 C2417 0.930 . S
H2402 C2418 0.931 . S
C2403 H2391 0.929 . S
C2403 C2397 1.390 . S
C2403 C2400 1.386 . S
C2404 C2399 1.490 . S
C2404 C2406 1.395 . S
C2404 C2407 1.403 . S
H2405 C2411 0.930 . S
C2406 H2392 0.930 . S
C2406 C2404 1.395 . S
C2406 C2409 1.403 . S
C2407 C2404 1.403 . S
C2407 C2408 1.524 . S
C2407 C2411 1.400 . S
C2408 H2393 0.960 . S
C2408 H2394 0.960 . S
C2408 H2395 0.960 . S
C2408 C2407 1.524 . S
C2409 C2406 1.403 . S
C2409 C2410 1.392 . S
C2409 C2413 1.495 . S
C2410 C2409 1.392 . S
C2410 C2411 1.385 . S
C2410 C2412 1.478 . S
C2411 H2405 0.930 . S
C2411 C2407 1.400 . S
C2411 C2410 1.385 . S
C2412 C2410 1.478 . S
C2412 C2414 1.381 . S
C2412 C2418 1.383 . S
C2413 C2409 1.495 . S
C2413 H2419 0.959 . S
C2413 H2420 0.961 . S
C2413 H2421 0.960 . S
C2414 C2412 1.381 . S
C2414 C2415 1.394 . S
C2414 H2422 0.930 . S
C2415 C2414 1.394 . S
C2415 C2416 1.383 . S
C2415 H2423 0.929 . S
C2416 C2415 1.383 . S
C2416 C2417 1.377 . S
C2417 H2401 0.930 . S
C2417 C2416 1.377 . S
C2417 C2418 1.379 . S
C2418 H2402 0.931 . S
C2418 C2412 1.383 . S
C2418 C2417 1.379 . S
H2419 C2413 0.959 . S
H2420 C2413 0.961 . S
H2421 C2413 0.960 . S
H2422 C2414 0.930 . S
H2423 C2415 0.929 . S
H2424 C2432 0.929 . S
H2425 C2434 0.930 . S
H2426 C2436 0.930 . S
H2427 C2439 0.929 . S
H2428 C2442 0.930 . S
H2429 C2444 0.960 . S
H2430 C2444 0.960 . S
H2431 C2444 0.960 . S
C2432 H2424 0.929 . S
C2432 C2433 1.377 . S
C2432 C2434 1.384 . S
C2433 C2432 1.377 . S
C2433 C2439 1.390 . S
C2434 H2425 0.930 . S
C2434 C2432 1.384 . S
C2434 C2435 1.372 . S
C2435 C2434 1.372 . S
C2435 C2436 1.400 . S
C2435 C2440 1.490 . S
C2436 H2426 0.930 . S
C2436 C2435 1.400 . S
C2436 C2439 1.386 . S
H2437 C2453 0.930 . S
H2438 C2454 0.931 . S
C2439 H2427 0.929 . S
C2439 C2433 1.390 . S
C2439 C2436 1.386 . S
C2440 C2435 1.490 . S
C2440 C2442 1.395 . S
C2440 C2443 1.403 . S
H2441 C2447 0.930 . S
C2442 H2428 0.930 . S
C2442 C2440 1.395 . S
C2442 C2445 1.403 . S
C2443 C2440 1.403 . S
C2443 C2444 1.524 . S
C2443 C2447 1.400 . S
C2444 H2429 0.960 . S
C2444 H2430 0.960 . S
C2444 H2431 0.960 . S
C2444 C2443 1.524 . S
C2445 C2442 1.403 . S
C2445 C2446 1.392 . S
C2445 C2449 1.495 . S
C2446 C2445 1.392 . S
C2446 C2447 1.385 . S
C2446 C2448 1.478 . S
C2447 H2441 0.930 . S
C2447 C2443 1.400 . S
C2447 C2446 1.385 . S
C2448 C2446 1.478 . S
C2448 C2450 1.381 . S
C2448 C2454 1.383 . S
C2449 C2445 1.495 . S
C2449 H2455 0.959 . S
C2449 H2456 0.961 . S
C2449 H2457 0.960 . S
C2450 C2448 1.381 . S
C2450 C2451 1.394 . S
C2450 H2458 0.930 . S
C2451 C2450 1.394 . S
C2451 C2452 1.383 . S
C2451 H2459 0.929 . S
C2452 C2451 1.383 . S
C2452 C2453 1.377 . S
C2453 H2437 0.930 . S
C2453 C2452 1.377 . S
C2453 C2454 1.379 . S
C2454 H2438 0.931 . S
C2454 C2448 1.383 . S
C2454 C2453 1.379 . S
H2455 C2449 0.959 . S
H2456 C2449 0.961 . S
H2457 C2449 0.960 . S
H2458 C2450 0.930 . S
H2459 C2451 0.929 . S
H2460 C2468 0.929 . S
H2461 C2470 0.930 . S
H2462 C2472 0.930 . S
H2463 C2475 0.929 . S
H2464 C2478 0.930 . S
H2465 C2480 0.960 . S
H2466 C2480 0.960 . S
H2467 C2480 0.960 . S
C2468 H2460 0.929 . S
C2468 C2469 1.377 . S
C2468 C2470 1.384 . S
C2469 C2468 1.377 . S
C2469 C2475 1.390 . S
C2470 H2461 0.930 . S
C2470 C2468 1.384 . S
C2470 C2471 1.372 . S
C2471 C2470 1.372 . S
C2471 C2472 1.400 . S
C2471 C2476 1.490 . S
C2472 H2462 0.930 . S
C2472 C2471 1.400 . S
C2472 C2475 1.386 . S
H2473 C2489 0.930 . S
H2474 C2490 0.931 . S
C2475 H2463 0.929 . S
C2475 C2469 1.390 . S
C2475 C2472 1.386 . S
C2476 C2471 1.490 . S
C2476 C2478 1.395 . S
C2476 C2479 1.403 . S
H2477 C2483 0.930 . S
C2478 H2464 0.930 . S
C2478 C2476 1.395 . S
C2478 C2481 1.403 . S
C2479 C2476 1.403 . S
C2479 C2480 1.524 . S
C2479 C2483 1.400 . S
C2480 H2465 0.960 . S
C2480 H2466 0.960 . S
C2480 H2467 0.960 . S
C2480 C2479 1.524 . S
C2481 C2478 1.403 . S
C2481 C2482 1.392 . S
C2481 C2485 1.495 . S
C2482 C2481 1.392 . S
C2482 C2483 1.385 . S
C2482 C2484 1.478 . S
C2483 H2477 0.930 . S
C2483 C2479 1.400 . S
C2483 C2482 1.385 . S
C2484 C2482 1.478 . S
C2484 C2486 1.381 . S
C2484 C2490 1.383 . S
C2485 C2481 1.495 . S
C2485 H2491 0.959 . S
C2485 H2492 0.961 . S
C2485 H2493 0.960 . S
C2486 C2484 1.381 . S
C2486 C2487 1.394 . S
C2486 H2494 0.930 . S
C2487 C2486 1.394 . S
C2487 C2488 1.383 . S
C2487 H2495 0.929 . S
C2488 C2487 1.383 . S
C2488 C2489 1.377 . S
C2489 H2473 0.930 . S
C2489 C2488 1.377 . S
C2489 C2490 1.379 . S
C2490 H2474 0.931 . S
C2490 C2484 1.383 . S
C2490 C2489 1.379 . S
H2491 C2485 0.959 . S
H2492 C2485 0.961 . S
H2493 C2485 0.960 . S
H2494 C2486 0.930 . S
H2495 C2487 0.929 . S
H2496 C2504 0.929 . S
H2497 C2506 0.930 . S
H2498 C2508 0.930 . S
H2499 C2511 0.929 . S
H2500 C2514 0.930 . S
H2501 C2516 0.960 . S
H2502 C2516 0.960 . S
H2503 C2516 0.960 . S
C2504 H2496 0.929 . S
C2504 C2505 1.377 . S
C2504 C2506 1.384 . S
C2505 C2504 1.377 . S
C2505 C2511 1.390 . S
C2506 H2497 0.930 . S
C2506 C2504 1.384 . S
C2506 C2507 1.372 . S
C2507 C2506 1.372 . S
C2507 C2508 1.400 . S
C2507 C2512 1.490 . S
C2508 H2498 0.930 . S
C2508 C2507 1.400 . S
C2508 C2511 1.386 . S
H2509 C2525 0.930 . S
H2510 C2526 0.931 . S
C2511 H2499 0.929 . S
C2511 C2505 1.390 . S
C2511 C2508 1.386 . S
C2512 C2507 1.490 . S
C2512 C2514 1.395 . S
C2512 C2515 1.403 . S
H2513 C2519 0.930 . S
C2514 H2500 0.930 . S
C2514 C2512 1.395 . S
C2514 C2517 1.403 . S
C2515 C2512 1.403 . S
C2515 C2516 1.524 . S
C2515 C2519 1.400 . S
C2516 H2501 0.960 . S
C2516 H2502 0.960 . S
C2516 H2503 0.960 . S
C2516 C2515 1.524 . S
C2517 C2514 1.403 . S
C2517 C2518 1.392 . S
C2517 C2521 1.495 . S
C2518 C2517 1.392 . S
C2518 C2519 1.385 . S
C2518 C2520 1.478 . S
C2519 H2513 0.930 . S
C2519 C2515 1.400 . S
C2519 C2518 1.385 . S
C2520 C2518 1.478 . S
C2520 C2522 1.381 . S
C2520 C2526 1.383 . S
C2521 C2517 1.495 . S
C2521 H2527 0.959 . S
C2521 H2528 0.961 . S
C2521 H2529 0.960 . S
C2522 C2520 1.381 . S
C2522 C2523 1.394 . S
C2522 H2530 0.930 . S
C2523 C2522 1.394 . S
C2523 C2524 1.383 . S
C2523 H2531 0.929 . S
C2524 C2523 1.383 . S
C2524 C2525 1.377 . S
C2525 H2509 0.930 . S
C2525 C2524 1.377 . S
C2525 C2526 1.379 . S
C2526 H2510 0.931 . S
C2526 C2520 1.383 . S
C2526 C2525 1.379 . S
H2527 C2521 0.959 . S
H2528 C2521 0.961 . S
H2529 C2521 0.960 . S
H2530 C2522 0.930 . S
H2531 C2523 0.929 . S
H2532 C2540 0.929 . S
H2533 C2542 0.930 . S
H2534 C2544 0.930 . S
H2535 C2547 0.929 . S
H2536 C2550 0.930 1_565 S
H2537 C2552 0.960 . S
H2538 C2552 0.960 . S
H2539 C2552 0.960 . S
C2540 H2532 0.929 . S
C2540 C2541 1.377 . S
C2540 C2542 1.384 . S
C2541 C2540 1.377 . S
C2541 C2547 1.390 . S
C2542 H2533 0.930 . S
C2542 C2540 1.384 . S
C2542 C2543 1.372 . S
C2543 C2542 1.372 . S
C2543 C2544 1.400 . S
C2543 C2548 1.490 . S
C2544 H2534 0.930 . S
C2544 C2543 1.400 . S
C2544 C2547 1.386 . S
H2545 C2561 0.930 . S
H2546 C2562 0.931 . S
C2547 H2535 0.929 . S
C2547 C2541 1.390 . S
C2547 C2544 1.386 . S
C2548 C2543 1.490 . S
C2548 C2550 1.395 . S
C2548 C2551 1.403 . S
H2549 C2555 0.930 . S
C2550 H2536 0.930 1_545 S
C2550 C2548 1.395 . S
C2550 C2553 1.403 . S
C2551 C2548 1.403 . S
C2551 C2552 1.524 . S
C2551 C2555 1.400 . S
C2552 H2537 0.960 . S
C2552 H2538 0.960 . S
C2552 H2539 0.960 . S
C2552 C2551 1.524 . S
C2553 C2550 1.403 . S
C2553 C2554 1.392 . S
C2553 C2557 1.495 1_545 S
C2554 C2553 1.392 . S
C2554 C2555 1.385 . S
C2554 C2556 1.478 . S
C2555 H2549 0.930 . S
C2555 C2551 1.400 . S
C2555 C2554 1.385 . S
C2556 C2554 1.478 . S
C2556 C2558 1.381 . S
C2556 C2562 1.383 . S
C2557 C2553 1.495 1_565 S
C2557 H2563 0.959 . S
C2557 H2564 0.961 . S
C2557 H2565 0.960 . S
C2558 C2556 1.381 . S
C2558 C2559 1.394 . S
C2558 H2566 0.930 . S
C2559 C2558 1.394 . S
C2559 C2560 1.383 . S
C2559 H2567 0.929 . S
C2560 C2559 1.383 . S
C2560 C2561 1.377 . S
C2561 H2545 0.930 . S
C2561 C2560 1.377 . S
C2561 C2562 1.379 . S
C2562 H2546 0.931 . S
C2562 C2556 1.383 . S
C2562 C2561 1.379 . S
H2563 C2557 0.959 . S
H2564 C2557 0.961 . S
H2565 C2557 0.960 . S
H2566 C2558 0.930 . S
H2567 C2559 0.929 . S
H2568 C2576 0.929 . S
H2569 C2578 0.930 . S
H2570 C2580 0.930 . S
H2571 C2583 0.929 . S
H2572 C2586 0.930 . S
H2573 C2588 0.960 . S
H2574 C2588 0.960 . S
H2575 C2588 0.960 . S
C2576 H2568 0.929 . S
C2576 C2577 1.377 . S
C2576 C2578 1.384 . S
C2577 C2576 1.377 . S
C2577 C2583 1.390 . S
C2578 H2569 0.930 . S
C2578 C2576 1.384 . S
C2578 C2579 1.372 . S
C2579 C2578 1.372 . S
C2579 C2580 1.400 . S
C2579 C2584 1.490 . S
C2580 H2570 0.930 . S
C2580 C2579 1.400 . S
C2580 C2583 1.386 . S
H2581 C2597 0.930 . S
H2582 C2598 0.931 . S
C2583 H2571 0.929 . S
C2583 C2577 1.390 . S
C2583 C2580 1.386 . S
C2584 C2579 1.490 . S
C2584 C2586 1.395 . S
C2584 C2587 1.403 . S
H2585 C2591 0.930 . S
C2586 H2572 0.930 . S
C2586 C2584 1.395 . S
C2586 C2589 1.403 . S
C2587 C2584 1.403 . S
C2587 C2588 1.524 . S
C2587 C2591 1.400 . S
C2588 H2573 0.960 . S
C2588 H2574 0.960 . S
C2588 H2575 0.960 . S
C2588 C2587 1.524 . S
C2589 C2586 1.403 . S
C2589 C2590 1.392 . S
C2589 C2593 1.495 . S
C2590 C2589 1.392 . S
C2590 C2591 1.385 . S
C2590 C2592 1.478 . S
C2591 H2585 0.930 . S
C2591 C2587 1.400 . S
C2591 C2590 1.385 . S
C2592 C2590 1.478 . S
C2592 C2594 1.381 . S
C2592 C2598 1.383 . S
C2593 C2589 1.495 . S
C2593 H2599 0.959 . S
C2593 H2600 0.961 . S
C2593 H2601 0.960 . S
C2594 C2592 1.381 . S
C2594 C2595 1.394 . S
C2594 H2602 0.930 . S
C2595 C2594 1.394 . S
C2595 C2596 1.383 . S
C2595 H2603 0.929 . S
C2596 C2595 1.383 . S
C2596 C2597 1.377 . S
C2597 H2581 0.930 . S
C2597 C2596 1.377 . S
C2597 C2598 1.379 . S
C2598 H2582 0.931 . S
C2598 C2592 1.383 . S
C2598 C2597 1.379 . S
H2599 C2593 0.959 . S
H2600 C2593 0.961 . S
H2601 C2593 0.960 . S
H2602 C2594 0.930 . S
H2603 C2595 0.929 . S
H2604 C2612 0.929 . S
H2605 C2614 0.930 . S
H2606 C2616 0.930 . S
H2607 C2619 0.929 . S
H2608 C2622 0.930 . S
H2609 C2624 0.960 . S
H2610 C2624 0.960 . S
H2611 C2624 0.960 . S
C2612 H2604 0.929 . S
C2612 C2613 1.377 . S
C2612 C2614 1.384 . S
C2613 C2612 1.377 . S
C2613 C2619 1.390 . S
C2614 H2605 0.930 . S
C2614 C2612 1.384 . S
C2614 C2615 1.372 . S
C2615 C2614 1.372 . S
C2615 C2616 1.400 . S
C2615 C2620 1.490 . S
C2616 H2606 0.930 . S
C2616 C2615 1.400 . S
C2616 C2619 1.386 . S
H2617 C2633 0.930 . S
H2618 C2634 0.931 . S
C2619 H2607 0.929 . S
C2619 C2613 1.390 . S
C2619 C2616 1.386 . S
C2620 C2615 1.490 . S
C2620 C2622 1.395 . S
C2620 C2623 1.403 . S
H2621 C2627 0.930 . S
C2622 H2608 0.930 . S
C2622 C2620 1.395 . S
C2622 C2625 1.403 . S
C2623 C2620 1.403 . S
C2623 C2624 1.524 . S
C2623 C2627 1.400 . S
C2624 H2609 0.960 . S
C2624 H2610 0.960 . S
C2624 H2611 0.960 . S
C2624 C2623 1.524 . S
C2625 C2622 1.403 . S
C2625 C2626 1.392 . S
C2625 C2629 1.495 . S
C2626 C2625 1.392 . S
C2626 C2627 1.385 . S
C2626 C2628 1.478 . S
C2627 H2621 0.930 . S
C2627 C2623 1.400 . S
C2627 C2626 1.385 . S
C2628 C2626 1.478 . S
C2628 C2630 1.381 . S
C2628 C2634 1.383 . S
C2629 C2625 1.495 . S
C2629 H2635 0.959 . S
C2629 H2636 0.961 . S
C2629 H2637 0.960 . S
C2630 C2628 1.381 . S
C2630 C2631 1.394 . S
C2630 H2638 0.930 . S
C2631 C2630 1.394 . S
C2631 C2632 1.383 . S
C2631 H2639 0.929 . S
C2632 C2631 1.383 . S
C2632 C2633 1.377 . S
C2633 H2617 0.930 . S
C2633 C2632 1.377 . S
C2633 C2634 1.379 . S
C2634 H2618 0.931 . S
C2634 C2628 1.383 . S
C2634 C2633 1.379 . S
H2635 C2629 0.959 . S
H2636 C2629 0.961 . S
H2637 C2629 0.960 . S
H2638 C2630 0.930 . S
H2639 C2631 0.929 . S
H2640 C2648 0.929 . S
H2641 C2650 0.930 . S
H2642 C2652 0.930 . S
H2643 C2655 0.929 . S
H2644 C2658 0.930 . S
H2645 C2660 0.960 . S
H2646 C2660 0.960 . S
H2647 C2660 0.960 . S
C2648 H2640 0.929 . S
C2648 C2649 1.377 . S
C2648 C2650 1.384 . S
C2649 C2648 1.377 . S
C2649 C2655 1.390 . S
C2650 H2641 0.930 . S
C2650 C2648 1.384 . S
C2650 C2651 1.372 . S
C2651 C2650 1.372 . S
C2651 C2652 1.400 . S
C2651 C2656 1.490 . S
C2652 H2642 0.930 . S
C2652 C2651 1.400 . S
C2652 C2655 1.386 . S
H2653 C2669 0.930 . S
H2654 C2670 0.931 . S
C2655 H2643 0.929 . S
C2655 C2649 1.390 . S
C2655 C2652 1.386 . S
C2656 C2651 1.490 . S
C2656 C2658 1.395 . S
C2656 C2659 1.403 . S
H2657 C2663 0.930 . S
C2658 H2644 0.930 . S
C2658 C2656 1.395 . S
C2658 C2661 1.403 . S
C2659 C2656 1.403 . S
C2659 C2660 1.524 . S
C2659 C2663 1.400 . S
C2660 H2645 0.960 . S
C2660 H2646 0.960 . S
C2660 H2647 0.960 . S
C2660 C2659 1.524 . S
C2661 C2658 1.403 . S
C2661 C2662 1.392 . S
C2661 C2665 1.495 . S
C2662 C2661 1.392 . S
C2662 C2663 1.385 . S
C2662 C2664 1.478 . S
C2663 H2657 0.930 . S
C2663 C2659 1.400 . S
C2663 C2662 1.385 . S
C2664 C2662 1.478 . S
C2664 C2666 1.381 . S
C2664 C2670 1.383 . S
C2665 C2661 1.495 . S
C2665 H2671 0.959 . S
C2665 H2672 0.961 . S
C2665 H2673 0.960 . S
C2666 C2664 1.381 . S
C2666 C2667 1.394 . S
C2666 H2674 0.930 . S
C2667 C2666 1.394 . S
C2667 C2668 1.383 . S
C2667 H2675 0.929 . S
C2668 C2667 1.383 . S
C2668 C2669 1.377 . S
C2669 H2653 0.930 . S
C2669 C2668 1.377 . S
C2669 C2670 1.379 . S
C2670 H2654 0.931 . S
C2670 C2664 1.383 . S
C2670 C2669 1.379 . S
H2671 C2665 0.959 . S
H2672 C2665 0.961 . S
H2673 C2665 0.960 . S
H2674 C2666 0.930 . S
H2675 C2667 0.929 . S
H2676 C2684 0.929 . S
H2677 C2686 0.930 . S
H2678 C2688 0.930 1_565 S
H2679 C2691 0.974 . S
H2680 C2694 0.930 . S
H2681 C2696 0.960 . S
H2682 C2696 0.960 . S
H2683 C2696 0.960 . S
C2684 H2676 0.929 . S
C2684 C2685 1.377 . S
C2684 C2686 1.384 . S
C2685 C2684 1.377 . S
C2685 C2691 1.390 . S
C2686 H2677 0.930 . S
C2686 C2684 1.384 . S
C2686 C2687 1.372 . S
C2687 C2686 1.372 . S
C2687 C2688 1.400 . S
C2687 C2692 1.490 . S
C2688 H2678 0.930 1_545 S
C2688 C2687 1.400 . S
C2688 C2691 1.386 . S
H2689 C2705 0.930 . S
H2690 C2706 0.892 1_565 S
C2691 H2679 0.974 . S
C2691 C2685 1.390 . S
C2691 C2688 1.386 . S
C2692 C2687 1.490 . S
C2692 C2694 1.395 . S
C2692 C2695 1.403 . S
H2693 C2699 0.930 . S
C2694 H2680 0.930 . S
C2694 C2692 1.395 . S
C2694 C2697 1.403 . S
C2695 C2692 1.403 . S
C2695 C2696 1.524 . S
C2695 C2699 1.400 . S
C2696 H2681 0.960 . S
C2696 H2682 0.960 . S
C2696 H2683 0.960 . S
C2696 C2695 1.524 . S
C2697 C2694 1.403 . S
C2697 C2698 1.392 . S
C2697 C2701 1.495 . S
C2698 C2697 1.392 . S
C2698 C2699 1.385 . S
C2698 C2700 1.478 . S
C2699 H2693 0.930 . S
C2699 C2695 1.400 . S
C2699 C2698 1.385 . S
C2700 C2698 1.478 . S
C2700 C2702 1.381 . S
C2700 C2706 1.427 . S
C2701 C2697 1.495 . S
C2701 H2707 0.959 . S
C2701 H2708 0.961 . S
C2701 H2709 0.960 . S
C2702 C2700 1.381 . S
C2702 C2703 1.394 . S
C2702 H2710 0.930 . S
C2703 C2702 1.394 . S
C2703 C2704 1.383 . S
C2703 H2711 0.929 . S
C2704 C2703 1.383 . S
C2704 C2705 1.377 1_545 S
C2705 H2689 0.930 . S
C2705 C2704 1.377 1_565 S
C2705 C2706 1.374 1_565 S
C2706 H2690 0.892 1_545 S
C2706 C2700 1.427 . S
C2706 C2705 1.374 1_545 S
H2707 C2701 0.959 . S
H2708 C2701 0.961 . S
H2709 C2701 0.960 . S
H2710 C2702 0.930 . S
H2711 C2703 0.929 . S
H2712 C2720 0.929 . S
H2713 C2722 0.930 . S
H2714 C2724 0.930 . S
H2715 C2727 0.929 . S
H2716 C2730 0.930 . S
H2717 C2732 0.960 . S
H2718 C2732 0.960 . S
H2719 C2732 0.960 . S
C2720 H2712 0.929 . S
C2720 C2721 1.377 . S
C2720 C2722 1.384 . S
C2721 C2720 1.377 . S
C2721 C2727 1.390 . S
C2722 H2713 0.930 . S
C2722 C2720 1.384 . S
C2722 C2723 1.372 . S
C2723 C2722 1.372 . S
C2723 C2724 1.400 . S
C2723 C2728 1.490 . S
C2724 H2714 0.930 . S
C2724 C2723 1.400 . S
C2724 C2727 1.386 . S
H2725 C2741 0.930 . S
H2726 C2742 0.931 . S
C2727 H2715 0.929 . S
C2727 C2721 1.390 . S
C2727 C2724 1.386 . S
C2728 C2723 1.490 . S
C2728 C2730 1.395 . S
C2728 C2731 1.403 . S
H2729 C2735 0.930 . S
C2730 H2716 0.930 . S
C2730 C2728 1.395 . S
C2730 C2733 1.403 . S
C2731 C2728 1.403 . S
C2731 C2732 1.524 . S
C2731 C2735 1.400 . S
C2732 H2717 0.960 . S
C2732 H2718 0.960 . S
C2732 H2719 0.960 . S
C2732 C2731 1.524 . S
C2733 C2730 1.403 . S
C2733 C2734 1.392 . S
C2733 C2737 1.495 . S
C2734 C2733 1.392 . S
C2734 C2735 1.385 . S
C2734 C2736 1.478 . S
C2735 H2729 0.930 . S
C2735 C2731 1.400 . S
C2735 C2734 1.385 . S
C2736 C2734 1.478 . S
C2736 C2738 1.381 . S
C2736 C2742 1.383 . S
C2737 C2733 1.495 . S
C2737 H2743 0.959 . S
C2737 H2744 0.961 . S
C2737 H2745 0.960 . S
C2738 C2736 1.381 . S
C2738 C2739 1.394 . S
C2738 H2746 0.930 . S
C2739 C2738 1.394 . S
C2739 C2740 1.383 . S
C2739 H2747 0.929 . S
C2740 C2739 1.383 . S
C2740 C2741 1.377 . S
C2741 H2725 0.930 . S
C2741 C2740 1.377 . S
C2741 C2742 1.379 . S
C2742 H2726 0.931 . S
C2742 C2736 1.383 . S
C2742 C2741 1.379 . S
H2743 C2737 0.959 . S
H2744 C2737 0.961 . S
H2745 C2737 0.960 . S
H2746 C2738 0.930 . S
H2747 C2739 0.929 . S
H2748 C2756 0.929 . S
H2749 C2758 0.930 . S
H2750 C2760 0.930 . S
H2751 C2763 0.929 . S
H2752 C2766 0.930 . S
H2753 C2768 0.960 . S
H2754 C2768 0.960 . S
H2755 C2768 0.960 . S
C2756 H2748 0.929 . S
C2756 C2757 1.377 . S
C2756 C2758 1.384 . S
C2757 C2756 1.377 . S
C2757 C2763 1.390 . S
C2758 H2749 0.930 . S
C2758 C2756 1.384 . S
C2758 C2759 1.372 . S
C2759 C2758 1.372 . S
C2759 C2760 1.400 . S
C2759 C2764 1.490 . S
C2760 H2750 0.930 . S
C2760 C2759 1.400 . S
C2760 C2763 1.386 . S
H2761 C2777 0.930 . S
H2762 C2778 0.931 . S
C2763 H2751 0.929 . S
C2763 C2757 1.390 . S
C2763 C2760 1.386 . S
C2764 C2759 1.490 . S
C2764 C2766 1.395 . S
C2764 C2767 1.403 . S
H2765 C2771 0.930 . S
C2766 H2752 0.930 . S
C2766 C2764 1.395 . S
C2766 C2769 1.403 . S
C2767 C2764 1.403 . S
C2767 C2768 1.524 . S
C2767 C2771 1.400 . S
C2768 H2753 0.960 . S
C2768 H2754 0.960 . S
C2768 H2755 0.960 . S
C2768 C2767 1.524 . S
C2769 C2766 1.403 . S
C2769 C2770 1.392 . S
C2769 C2773 1.495 . S
C2770 C2769 1.392 . S
C2770 C2771 1.385 . S
C2770 C2772 1.478 . S
C2771 H2765 0.930 . S
C2771 C2767 1.400 . S
C2771 C2770 1.385 . S
C2772 C2770 1.478 . S
C2772 C2774 1.381 . S
C2772 C2778 1.383 . S
C2773 C2769 1.495 . S
C2773 H2779 0.959 . S
C2773 H2780 0.961 . S
C2773 H2781 0.960 . S
C2774 C2772 1.381 . S
C2774 C2775 1.394 . S
C2774 H2782 0.930 . S
C2775 C2774 1.394 . S
C2775 C2776 1.383 . S
C2775 H2783 0.929 . S
C2776 C2775 1.383 . S
C2776 C2777 1.377 . S
C2777 H2761 0.930 . S
C2777 C2776 1.377 . S
C2777 C2778 1.379 . S
C2778 H2762 0.931 . S
C2778 C2772 1.383 . S
C2778 C2777 1.379 . S
H2779 C2773 0.959 . S
H2780 C2773 0.961 . S
H2781 C2773 0.960 . S
H2782 C2774 0.930 . S
H2783 C2775 0.929 . S
H2784 C2792 0.929 . S
H2785 C2794 0.930 . S
H2786 C2796 0.930 . S
H2787 C2799 0.929 . S
H2788 C2802 0.930 . S
H2789 C2804 0.960 . S
H2790 C2804 0.960 . S
H2791 C2804 0.960 . S
C2792 H2784 0.929 . S
C2792 C2793 1.377 . S
C2792 C2794 1.384 . S
C2793 C2792 1.377 . S
C2793 C2799 1.390 . S
C2794 H2785 0.930 . S
C2794 C2792 1.384 . S
C2794 C2795 1.372 . S
C2795 C2794 1.372 . S
C2795 C2796 1.400 . S
C2795 C2800 1.490 . S
C2796 H2786 0.930 . S
C2796 C2795 1.400 . S
C2796 C2799 1.386 . S
H2797 C2813 0.930 . S
H2798 C2814 0.931 . S
C2799 H2787 0.929 . S
C2799 C2793 1.390 . S
C2799 C2796 1.386 . S
C2800 C2795 1.490 . S
C2800 C2802 1.395 . S
C2800 C2803 1.403 . S
H2801 C2807 0.930 . S
C2802 H2788 0.930 . S
C2802 C2800 1.395 . S
C2802 C2805 1.403 . S
C2803 C2800 1.403 . S
C2803 C2804 1.524 . S
C2803 C2807 1.400 . S
C2804 H2789 0.960 . S
C2804 H2790 0.960 . S
C2804 H2791 0.960 . S
C2804 C2803 1.524 . S
C2805 C2802 1.403 . S
C2805 C2806 1.392 . S
C2805 C2809 1.495 . S
C2806 C2805 1.392 . S
C2806 C2807 1.385 . S
C2806 C2808 1.478 . S
C2807 H2801 0.930 . S
C2807 C2803 1.400 . S
C2807 C2806 1.385 . S
C2808 C2806 1.478 . S
C2808 C2810 1.381 . S
C2808 C2814 1.383 . S
C2809 C2805 1.495 . S
C2809 H2815 0.959 . S
C2809 H2816 0.961 . S
C2809 H2817 0.960 . S
C2810 C2808 1.381 . S
C2810 C2811 1.394 . S
C2810 H2818 0.930 . S
C2811 C2810 1.394 . S
C2811 C2812 1.383 . S
C2811 H2819 0.929 . S
C2812 C2811 1.383 . S
C2812 C2813 1.377 . S
C2813 H2797 0.930 . S
C2813 C2812 1.377 . S
C2813 C2814 1.379 . S
C2814 H2798 0.931 . S
C2814 C2808 1.383 . S
C2814 C2813 1.379 . S
H2815 C2809 0.959 . S
H2816 C2809 0.961 . S
H2817 C2809 0.960 . S
H2818 C2810 0.930 . S
H2819 C2811 0.929 . S
H2820 C2828 0.929 . S
H2821 C2830 0.930 . S
H2822 C2832 0.930 . S
H2823 C2835 0.929 1_554 S
H2824 C2838 0.930 1_455 S
H2825 C2840 0.960 . S
H2826 C2840 0.960 . S
H2827 C2840 0.960 . S
C2828 H2820 0.929 . S
C2828 C2829 1.377 . S
C2828 C2830 1.384 . S
C2829 C2828 1.377 . S
C2829 C2835 1.390 . S
C2830 H2821 0.930 . S
C2830 C2828 1.384 . S
C2830 C2831 1.372 . S
C2831 C2830 1.372 . S
C2831 C2832 1.400 . S
C2831 C2836 1.490 . S
C2832 H2822 0.930 . S
C2832 C2831 1.400 . S
C2832 C2835 1.386 . S
H2833 C2849 0.930 . S
H2834 C2850 0.931 . S
C2835 H2823 0.929 1_556 S
C2835 C2829 1.390 . S
C2835 C2832 1.386 . S
C2836 C2831 1.490 . S
C2836 C2838 1.395 . S
C2836 C2839 1.403 . S
H2837 C2843 0.930 . S
C2838 H2824 0.930 1_655 S
C2838 C2836 1.395 . S
C2838 C2841 1.398 1_655 S
C2839 C2836 1.403 . S
C2839 C2840 1.524 . S
C2839 C2843 1.400 . S
C2840 H2825 0.960 . S
C2840 H2826 0.960 . S
C2840 H2827 0.960 . S
C2840 C2839 1.524 . S
C2841 C2838 1.398 1_455 S
C2841 C2842 1.369 1_455 S
C2841 C2845 1.523 . S
C2842 C2841 1.369 1_655 S
C2842 C2843 1.385 . S
C2842 C2844 1.478 . S
C2843 H2837 0.930 . S
C2843 C2839 1.400 . S
C2843 C2842 1.385 . S
C2844 C2842 1.478 . S
C2844 C2846 1.381 . S
C2844 C2850 1.383 . S
C2845 C2841 1.523 . S
C2845 H2851 0.959 . S
C2845 H2852 0.961 . S
C2845 H2853 0.960 . S
C2846 C2844 1.381 . S
C2846 C2847 1.394 . S
C2846 H2854 0.930 . S
C2847 C2846 1.394 . S
C2847 C2848 1.383 . S
C2847 H2855 0.929 . S
C2848 C2847 1.383 . S
C2848 C2849 1.377 . S
C2849 H2833 0.930 . S
C2849 C2848 1.377 . S
C2849 C2850 1.379 . S
C2850 H2834 0.931 . S
C2850 C2844 1.383 . S
C2850 C2849 1.379 . S
H2851 C2845 0.959 . S
H2852 C2845 0.961 . S
H2853 C2845 0.960 . S
H2854 C2846 0.930 . S
H2855 C2847 0.929 . S
H2856 C2864 0.929 . S
H2857 C2866 0.930 . S
H2858 C2868 0.930 . S
H2859 C2871 0.929 . S
H2860 C2874 0.930 . S
H2861 C2876 0.960 . S
H2862 C2876 0.960 . S
H2863 C2876 0.960 . S
C2864 H2856 0.929 . S
C2864 C2865 1.377 . S
C2864 C2866 1.384 . S
C2865 C2864 1.377 . S
C2865 C2871 1.390 . S
C2866 H2857 0.930 . S
C2866 C2864 1.384 . S
C2866 C2867 1.372 . S
C2867 C2866 1.372 . S
C2867 C2868 1.400 . S
C2867 C2872 1.490 . S
C2868 H2858 0.930 . S
C2868 C2867 1.400 . S
C2868 C2871 1.386 . S
H2869 C2885 0.930 . S
H2870 C2886 0.931 . S
C2871 H2859 0.929 . S
C2871 C2865 1.390 . S
C2871 C2868 1.386 . S
C2872 C2867 1.490 . S
C2872 C2874 1.395 . S
C2872 C2875 1.403 . S
H2873 C2879 0.930 . S
C2874 H2860 0.930 . S
C2874 C2872 1.395 . S
C2874 C2877 1.403 . S
C2875 C2872 1.403 . S
C2875 C2876 1.524 . S
C2875 C2879 1.400 . S
C2876 H2861 0.960 . S
C2876 H2862 0.960 . S
C2876 H2863 0.960 . S
C2876 C2875 1.524 . S
C2877 C2874 1.403 . S
C2877 C2878 1.392 . S
C2877 C2881 1.495 . S
C2878 C2877 1.392 . S
C2878 C2879 1.385 . S
C2878 C2880 1.478 . S
C2879 H2873 0.930 . S
C2879 C2875 1.400 . S
C2879 C2878 1.385 . S
C2880 C2878 1.478 . S
C2880 C2882 1.381 . S
C2880 C2886 1.383 . S
C2881 C2877 1.495 . S
C2881 H2887 0.959 . S
C2881 H2888 0.961 . S
C2881 H2889 0.960 . S
C2882 C2880 1.381 . S
C2882 C2883 1.394 . S
C2882 H2890 0.930 . S
C2883 C2882 1.394 . S
C2883 C2884 1.383 . S
C2883 H2891 0.929 . S
C2884 C2883 1.383 . S
C2884 C2885 1.377 . S
C2885 H2869 0.930 . S
C2885 C2884 1.377 . S
C2885 C2886 1.379 . S
C2886 H2870 0.931 . S
C2886 C2880 1.383 . S
C2886 C2885 1.379 . S
H2887 C2881 0.959 . S
H2888 C2881 0.961 . S
H2889 C2881 0.960 . S
H2890 C2882 0.930 . S
H2891 C2883 0.929 . S
H2892 C2900 0.929 . S
H2893 C2902 0.930 . S
H2894 C2904 0.930 . S
H2895 C2907 0.929 . S
H2896 C2910 0.930 . S
H2897 C2912 0.960 . S
H2898 C2912 0.960 . S
H2899 C2912 0.960 . S
C2900 H2892 0.929 . S
C2900 C2901 1.377 . S
C2900 C2902 1.384 . S
C2901 C2900 1.377 . S
C2901 C2907 1.390 . S
C2902 H2893 0.930 . S
C2902 C2900 1.384 . S
C2902 C2903 1.372 . S
C2903 C2902 1.372 . S
C2903 C2904 1.400 . S
C2903 C2908 1.490 . S
C2904 H2894 0.930 . S
C2904 C2903 1.400 . S
C2904 C2907 1.386 . S
H2905 C2921 0.918 1_655 S
H2906 C2922 0.931 1_655 S
C2907 H2895 0.929 . S
C2907 C2901 1.390 . S
C2907 C2904 1.386 . S
C2908 C2903 1.490 . S
C2908 C2910 1.395 . S
C2908 C2911 1.403 . S
H2909 C2915 0.930 . S
C2910 H2896 0.930 . S
C2910 C2908 1.395 . S
C2910 C2913 1.403 . S
C2911 C2908 1.403 . S
C2911 C2912 1.524 . S
C2911 C2915 1.400 . S
C2912 H2897 0.960 . S
C2912 H2898 0.960 . S
C2912 H2899 0.960 . S
C2912 C2911 1.524 . S
C2913 C2910 1.403 . S
C2913 C2914 1.392 . S
C2913 C2917 1.495 . S
C2914 C2913 1.392 . S
C2914 C2915 1.385 . S
C2914 C2916 1.478 . S
C2915 H2909 0.930 . S
C2915 C2911 1.400 . S
C2915 C2914 1.385 . S
C2916 C2914 1.478 . S
C2916 C2918 1.381 . S
C2916 C2922 1.383 . S
C2917 C2913 1.495 . S
C2917 H2923 0.959 . S
C2917 H2924 0.961 1_455 S
C2917 H2925 0.960 . S
C2918 C2916 1.381 . S
C2918 C2919 1.394 . S
C2918 H2926 0.930 . S
C2919 C2918 1.394 . S
C2919 C2920 1.383 . S
C2919 H2927 0.929 . S
C2920 C2919 1.383 . S
C2920 C2921 1.387 . S
C2921 H2905 0.918 1_455 S
C2921 C2920 1.387 . S
C2921 C2922 1.381 . S
C2922 H2906 0.931 1_455 S
C2922 C2916 1.383 . S
C2922 C2921 1.381 . S
H2923 C2917 0.959 . S
H2924 C2917 0.961 1_655 S
H2925 C2917 0.960 . S
H2926 C2918 0.930 . S
H2927 C2919 0.929 . S
H2928 C2936 0.929 . S
H2929 C2938 0.930 . S
H2930 C2940 0.930 . S
H2931 C2943 0.929 . S
H2932 C2946 0.930 . S
H2933 C2948 0.960 . S
H2934 C2948 0.960 . S
H2935 C2948 0.960 . S
C2936 H2928 0.929 . S
C2936 C2937 1.377 . S
C2936 C2938 1.384 . S
C2937 C2936 1.377 . S
C2937 C2943 1.390 . S
C2938 H2929 0.930 . S
C2938 C2936 1.384 . S
C2938 C2939 1.372 . S
C2939 C2938 1.372 . S
C2939 C2940 1.400 . S
C2939 C2944 1.490 . S
C2940 H2930 0.930 . S
C2940 C2939 1.400 . S
C2940 C2943 1.386 . S
H2941 C2957 0.930 . S
H2942 C2958 0.931 . S
C2943 H2931 0.929 . S
C2943 C2937 1.390 . S
C2943 C2940 1.386 . S
C2944 C2939 1.490 . S
C2944 C2946 1.395 . S
C2944 C2947 1.403 . S
H2945 C2951 0.930 . S
C2946 H2932 0.930 . S
C2946 C2944 1.395 . S
C2946 C2949 1.403 . S
C2947 C2944 1.403 . S
C2947 C2948 1.524 . S
C2947 C2951 1.400 . S
C2948 H2933 0.960 . S
C2948 H2934 0.960 . S
C2948 H2935 0.960 . S
C2948 C2947 1.524 . S
C2949 C2946 1.403 . S
C2949 C2950 1.392 . S
C2949 C2953 1.495 . S
C2950 C2949 1.392 . S
C2950 C2951 1.385 . S
C2950 C2952 1.478 . S
C2951 H2945 0.930 . S
C2951 C2947 1.400 . S
C2951 C2950 1.385 . S
C2952 C2950 1.478 . S
C2952 C2954 1.381 . S
C2952 C2958 1.383 . S
C2953 C2949 1.495 . S
C2953 H2959 0.959 . S
C2953 H2960 0.961 . S
C2953 H2961 0.960 . S
C2954 C2952 1.381 . S
C2954 C2955 1.394 . S
C2954 H2962 0.930 . S
C2955 C2954 1.394 . S
C2955 C2956 1.383 . S
C2955 H2963 0.929 . S
C2956 C2955 1.383 . S
C2956 C2957 1.377 . S
C2957 H2941 0.930 . S
C2957 C2956 1.377 . S
C2957 C2958 1.379 . S
C2958 H2942 0.931 . S
C2958 C2952 1.383 . S
C2958 C2957 1.379 . S
H2959 C2953 0.959 . S
H2960 C2953 0.961 . S
H2961 C2953 0.960 . S
H2962 C2954 0.930 . S
H2963 C2955 0.929 . S
H2964 C2972 0.929 1_556 S
H2965 C2974 0.930 . S
H2966 C2976 0.930 . S
H2967 C2979 0.929 . S
H2968 C2982 0.930 . S
H2969 C2984 0.960 . S
H2970 C2984 0.960 . S
H2971 C2984 0.960 . S
C2972 H2964 0.929 1_554 S
C2972 C2973 1.377 . S
C2972 C2974 1.384 . S
C2973 C2972 1.377 . S
C2973 C2979 1.390 . S
C2974 H2965 0.930 . S
C2974 C2972 1.384 . S
C2974 C2975 1.372 . S
C2975 C2974 1.372 . S
C2975 C2976 1.400 . S
C2975 C2980 1.490 . S
C2976 H2966 0.930 . S
C2976 C2975 1.400 . S
C2976 C2979 1.386 . S
H2977 C2993 0.930 . S
H2978 C2994 0.931 . S
C2979 H2967 0.929 . S
C2979 C2973 1.390 . S
C2979 C2976 1.386 . S
C2980 C2975 1.490 . S
C2980 C2982 1.395 . S
C2980 C2983 1.403 . S
H2981 C2987 0.930 . S
C2982 H2968 0.930 . S
C2982 C2980 1.395 . S
C2982 C2985 1.403 . S
C2983 C2980 1.403 . S
C2983 C2984 1.524 . S
C2983 C2987 1.400 . S
C2984 H2969 0.960 . S
C2984 H2970 0.960 . S
C2984 H2971 0.960 . S
C2984 C2983 1.524 . S
C2985 C2982 1.403 . S
C2985 C2986 1.392 . S
C2985 C2989 1.495 . S
C2986 C2985 1.392 . S
C2986 C2987 1.385 . S
C2986 C2988 1.478 . S
C2987 H2981 0.930 . S
C2987 C2983 1.400 . S
C2987 C2986 1.385 . S
C2988 C2986 1.478 . S
C2988 C2990 1.381 . S
C2988 C2994 1.383 . S
C2989 C2985 1.495 . S
C2989 H2995 0.959 . S
C2989 H2996 0.961 . S
C2989 H2997 0.960 . S
C2990 C2988 1.381 . S
C2990 C2991 1.394 . S
C2990 H2998 0.930 . S
C2991 C2990 1.394 . S
C2991 C2992 1.383 . S
C2991 H2999 0.929 . S
C2992 C2991 1.383 . S
C2992 C2993 1.377 . S
C2993 H2977 0.930 . S
C2993 C2992 1.377 . S
C2993 C2994 1.379 . S
C2994 H2978 0.931 . S
C2994 C2988 1.383 . S
C2994 C2993 1.379 . S
H2995 C2989 0.959 . S
H2996 C2989 0.961 . S
H2997 C2989 0.960 . S
H2998 C2990 0.930 . S
H2999 C2991 0.929 . S
H3000 C3008 0.929 . S
H3001 C3010 0.930 . S
H3002 C3012 0.930 . S
H3003 C3015 0.929 . S
H3004 C3018 0.930 . S
H3005 C3020 0.960 . S
H3006 C3020 0.960 . S
H3007 C3020 0.960 . S
C3008 H3000 0.929 . S
C3008 C3009 1.377 . S
C3008 C3010 1.384 . S
C3009 C3008 1.377 . S
C3009 C3015 1.390 . S
C3010 H3001 0.930 . S
C3010 C3008 1.384 . S
C3010 C3011 1.372 . S
C3011 C3010 1.372 . S
C3011 C3012 1.400 . S
C3011 C3016 1.490 . S
C3012 H3002 0.930 . S
C3012 C3011 1.400 . S
C3012 C3015 1.386 . S
H3013 C3029 0.930 . S
H3014 C3030 0.931 . S
C3015 H3003 0.929 . S
C3015 C3009 1.390 . S
C3015 C3012 1.386 . S
C3016 C3011 1.490 . S
C3016 C3018 1.395 . S
C3016 C3019 1.403 . S
H3017 C3023 0.930 . S
C3018 H3004 0.930 . S
C3018 C3016 1.395 . S
C3018 C3021 1.403 . S
C3019 C3016 1.403 . S
C3019 C3020 1.524 . S
C3019 C3023 1.400 . S
C3020 H3005 0.960 . S
C3020 H3006 0.960 . S
C3020 H3007 0.960 . S
C3020 C3019 1.524 . S
C3021 C3018 1.403 . S
C3021 C3022 1.392 . S
C3021 C3025 1.495 . S
C3022 C3021 1.392 . S
C3022 C3023 1.385 . S
C3022 C3024 1.478 . S
C3023 H3017 0.930 . S
C3023 C3019 1.400 . S
C3023 C3022 1.385 . S
C3024 C3022 1.478 . S
C3024 C3026 1.381 . S
C3024 C3030 1.383 . S
C3025 C3021 1.495 . S
C3025 H3031 0.959 . S
C3025 H3032 0.961 . S
C3025 H3033 0.960 . S
C3026 C3024 1.381 . S
C3026 C3027 1.394 . S
C3026 H3034 0.930 . S
C3027 C3026 1.394 . S
C3027 C3028 1.383 . S
C3027 H3035 0.929 . S
C3028 C3027 1.383 . S
C3028 C3029 1.377 . S
C3029 H3013 0.930 . S
C3029 C3028 1.377 . S
C3029 C3030 1.379 . S
C3030 H3014 0.931 . S
C3030 C3024 1.383 . S
C3030 C3029 1.379 . S
H3031 C3025 0.959 . S
H3032 C3025 0.961 . S
H3033 C3025 0.960 . S
H3034 C3026 0.930 . S
H3035 C3027 0.929 . S
H3036 C3044 0.929 . S
H3037 C3046 0.930 . S
H3038 C3048 0.930 . S
H3039 C3051 0.929 . S
H3040 C3054 0.930 . S
H3041 C3056 0.960 . S
H3042 C3056 0.960 . S
H3043 C3056 0.960 . S
C3044 H3036 0.929 . S
C3044 C3045 1.377 . S
C3044 C3046 1.384 . S
C3045 C3044 1.377 . S
C3045 C3051 1.390 . S
C3046 H3037 0.930 . S
C3046 C3044 1.384 . S
C3046 C3047 1.372 . S
C3047 C3046 1.372 . S
C3047 C3048 1.400 . S
C3047 C3052 1.490 . S
C3048 H3038 0.930 . S
C3048 C3047 1.400 . S
C3048 C3051 1.386 . S
H3049 C3065 0.930 . S
H3050 C3066 0.931 . S
C3051 H3039 0.929 . S
C3051 C3045 1.390 . S
C3051 C3048 1.386 . S
C3052 C3047 1.490 . S
C3052 C3054 1.395 . S
C3052 C3055 1.403 . S
H3053 C3059 0.930 . S
C3054 H3040 0.930 . S
C3054 C3052 1.395 . S
C3054 C3057 1.403 . S
C3055 C3052 1.403 . S
C3055 C3056 1.524 . S
C3055 C3059 1.400 . S
C3056 H3041 0.960 . S
C3056 H3042 0.960 . S
C3056 H3043 0.960 . S
C3056 C3055 1.524 . S
C3057 C3054 1.403 . S
C3057 C3058 1.392 . S
C3057 C3061 1.495 . S
C3058 C3057 1.392 . S
C3058 C3059 1.385 . S
C3058 C3060 1.478 . S
C3059 H3053 0.930 . S
C3059 C3055 1.400 . S
C3059 C3058 1.385 . S
C3060 C3058 1.478 . S
C3060 C3062 1.381 . S
C3060 C3066 1.383 . S
C3061 C3057 1.495 . S
C3061 H3067 0.959 . S
C3061 H3068 0.961 . S
C3061 H3069 0.960 . S
C3062 C3060 1.381 . S
C3062 C3063 1.394 . S
C3062 H3070 0.930 . S
C3063 C3062 1.394 . S
C3063 C3064 1.383 . S
C3063 H3071 0.929 . S
C3064 C3063 1.383 . S
C3064 C3065 1.377 . S
C3065 H3049 0.930 . S
C3065 C3064 1.377 . S
C3065 C3066 1.379 . S
C3066 H3050 0.931 . S
C3066 C3060 1.383 . S
C3066 C3065 1.379 . S
H3067 C3061 0.959 . S
H3068 C3061 0.961 . S
H3069 C3061 0.960 . S
H3070 C3062 0.930 . S
H3071 C3063 0.929 . S
H3072 C3080 0.929 . S
H3073 C3082 0.930 . S
H3074 C3084 0.930 . S
H3075 C3087 0.929 . S
H3076 C3090 0.930 . S
H3077 C3092 0.960 . S
H3078 C3092 0.960 . S
H3079 C3092 0.960 . S
C3080 H3072 0.929 . S
C3080 C3081 1.377 . S
C3080 C3082 1.384 . S
C3081 C3080 1.377 . S
C3081 C3087 1.390 . S
C3082 H3073 0.930 . S
C3082 C3080 1.384 . S
C3082 C3083 1.372 . S
C3083 C3082 1.372 . S
C3083 C3084 1.400 . S
C3083 C3088 1.490 . S
C3084 H3074 0.930 . S
C3084 C3083 1.400 . S
C3084 C3087 1.386 . S
H3085 C3101 0.930 . S
H3086 C3102 0.931 . S
C3087 H3075 0.929 . S
C3087 C3081 1.390 . S
C3087 C3084 1.386 . S
C3088 C3083 1.490 . S
C3088 C3090 1.395 . S
C3088 C3091 1.403 . S
H3089 C3095 0.930 . S
C3090 H3076 0.930 . S
C3090 C3088 1.395 . S
C3090 C3093 1.403 . S
C3091 C3088 1.403 . S
C3091 C3092 1.524 . S
C3091 C3095 1.400 . S
C3092 H3077 0.960 . S
C3092 H3078 0.960 . S
C3092 H3079 0.960 . S
C3092 C3091 1.524 . S
C3093 C3090 1.403 . S
C3093 C3094 1.392 . S
C3093 C3097 1.495 . S
C3094 C3093 1.392 . S
C3094 C3095 1.385 . S
C3094 C3096 1.478 . S
C3095 H3089 0.930 . S
C3095 C3091 1.400 . S
C3095 C3094 1.385 . S
C3096 C3094 1.478 . S
C3096 C3098 1.381 . S
C3096 C3102 1.383 . S
C3097 C3093 1.495 . S
C3097 H3103 0.959 . S
C3097 H3104 0.961 . S
C3097 H3105 0.960 . S
C3098 C3096 1.381 . S
C3098 C3099 1.394 . S
C3098 H3106 0.930 . S
C3099 C3098 1.394 . S
C3099 C3100 1.383 . S
C3099 H3107 0.929 . S
C3100 C3099 1.383 . S
C3100 C3101 1.377 . S
C3101 H3085 0.930 . S
C3101 C3100 1.377 . S
C3101 C3102 1.379 . S
C3102 H3086 0.931 . S
C3102 C3096 1.383 . S
C3102 C3101 1.379 . S
H3103 C3097 0.959 . S
H3104 C3097 0.961 . S
H3105 C3097 0.960 . S
H3106 C3098 0.930 . S
H3107 C3099 0.929 . S
H3108 C3116 0.929 . S
H3109 C3118 0.930 . S
H3110 C3120 0.930 . S
H3111 C3123 0.929 . S
H3112 C3126 0.930 . S
H3113 C3128 0.960 . S
H3114 C3128 0.960 . S
H3115 C3128 0.960 . S
C3116 H3108 0.929 . S
C3116 C3117 1.377 . S
C3116 C3118 1.384 . S
C3117 C3116 1.377 . S
C3117 C3123 1.390 . S
C3118 H3109 0.930 . S
C3118 C3116 1.384 . S
C3118 C3119 1.372 . S
C3119 C3118 1.372 . S
C3119 C3120 1.400 . S
C3119 C3124 1.490 . S
C3120 H3110 0.930 . S
C3120 C3119 1.400 . S
C3120 C3123 1.386 . S
H3121 C3137 0.930 . S
H3122 C3138 0.931 . S
C3123 H3111 0.929 . S
C3123 C3117 1.390 . S
C3123 C3120 1.386 . S
C3124 C3119 1.490 . S
C3124 C3126 1.395 . S
C3124 C3127 1.403 . S
H3125 C3131 0.930 . S
C3126 H3112 0.930 . S
C3126 C3124 1.395 . S
C3126 C3129 1.403 . S
C3127 C3124 1.403 . S
C3127 C3128 1.524 . S
C3127 C3131 1.400 . S
C3128 H3113 0.960 . S
C3128 H3114 0.960 . S
C3128 H3115 0.960 . S
C3128 C3127 1.524 . S
C3129 C3126 1.403 . S
C3129 C3130 1.392 . S
C3129 C3133 1.495 . S
C3130 C3129 1.392 . S
C3130 C3131 1.385 . S
C3130 C3132 1.478 . S
C3131 H3125 0.930 . S
C3131 C3127 1.400 . S
C3131 C3130 1.385 . S
C3132 C3130 1.478 . S
C3132 C3134 1.381 . S
C3132 C3138 1.383 . S
C3133 C3129 1.495 . S
C3133 H3139 0.959 . S
C3133 H3140 0.961 . S
C3133 H3141 0.960 . S
C3134 C3132 1.381 . S
C3134 C3135 1.394 . S
C3134 H3142 0.930 . S
C3135 C3134 1.394 . S
C3135 C3136 1.383 . S
C3135 H3143 0.929 . S
C3136 C3135 1.383 . S
C3136 C3137 1.377 . S
C3137 H3121 0.930 . S
C3137 C3136 1.377 . S
C3137 C3138 1.379 . S
C3138 H3122 0.931 . S
C3138 C3132 1.383 . S
C3138 C3137 1.379 . S
H3139 C3133 0.959 . S
H3140 C3133 0.961 . S
H3141 C3133 0.960 . S
H3142 C3134 0.930 . S
H3143 C3135 0.929 . S
H3144 C3152 0.929 . S
H3145 C3154 0.930 . S
H3146 C3156 0.930 . S
H3147 C3159 0.929 . S
H3148 C3162 0.930 . S
H3149 C3164 0.960 . S
H3150 C3164 0.960 . S
H3151 C3164 0.960 . S
C3152 H3144 0.929 . S
C3152 C3153 1.377 . S
C3152 C3154 1.384 . S
C3153 C3152 1.377 . S
C3153 C3159 1.390 . S
C3154 H3145 0.930 . S
C3154 C3152 1.384 . S
C3154 C3155 1.372 . S
C3155 C3154 1.372 . S
C3155 C3156 1.400 . S
C3155 C3160 1.490 . S
C3156 H3146 0.930 . S
C3156 C3155 1.400 . S
C3156 C3159 1.386 . S
H3157 C3173 0.930 . S
H3158 C3174 0.931 . S
C3159 H3147 0.929 . S
C3159 C3153 1.390 . S
C3159 C3156 1.386 . S
C3160 C3155 1.490 . S
C3160 C3162 1.395 . S
C3160 C3163 1.403 . S
H3161 C3167 0.930 . S
C3162 H3148 0.930 . S
C3162 C3160 1.395 . S
C3162 C3165 1.403 . S
C3163 C3160 1.403 . S
C3163 C3164 1.524 . S
C3163 C3167 1.400 . S
C3164 H3149 0.960 . S
C3164 H3150 0.960 . S
C3164 H3151 0.960 . S
C3164 C3163 1.524 . S
C3165 C3162 1.403 . S
C3165 C3166 1.392 . S
C3165 C3169 1.495 . S
C3166 C3165 1.392 . S
C3166 C3167 1.385 . S
C3166 C3168 1.478 . S
C3167 H3161 0.930 . S
C3167 C3163 1.400 . S
C3167 C3166 1.385 . S
C3168 C3166 1.478 . S
C3168 C3170 1.381 . S
C3168 C3174 1.383 . S
C3169 C3165 1.495 . S
C3169 H3175 0.959 . S
C3169 H3176 0.961 . S
C3169 H3177 0.960 . S
C3170 C3168 1.381 . S
C3170 C3171 1.394 . S
C3170 H3178 0.930 . S
C3171 C3170 1.394 . S
C3171 C3172 1.383 . S
C3171 H3179 0.929 . S
C3172 C3171 1.383 . S
C3172 C3173 1.377 . S
C3173 H3157 0.930 . S
C3173 C3172 1.377 . S
C3173 C3174 1.379 . S
C3174 H3158 0.931 . S
C3174 C3168 1.383 . S
C3174 C3173 1.379 . S
H3175 C3169 0.959 . S
H3176 C3169 0.961 . S
H3177 C3169 0.960 . S
H3178 C3170 0.930 . S
H3179 C3171 0.929 . S
H3180 C3188 0.929 . S
H3181 C3190 0.930 . S
H3182 C3192 0.930 . S
H3183 C3195 0.929 . S
H3184 C3198 0.930 . S
H3185 C3200 0.960 . S
H3186 C3200 0.960 . S
H3187 C3200 0.960 . S
C3188 H3180 0.929 . S
C3188 C3189 1.377 . S
C3188 C3190 1.384 . S
C3189 C3188 1.377 . S
C3189 C3195 1.390 . S
C3190 H3181 0.930 . S
C3190 C3188 1.384 . S
C3190 C3191 1.372 . S
C3191 C3190 1.372 . S
C3191 C3192 1.400 . S
C3191 C3196 1.490 . S
C3192 H3182 0.930 . S
C3192 C3191 1.400 . S
C3192 C3195 1.386 . S
H3193 C3209 0.930 . S
H3194 C3210 0.931 . S
C3195 H3183 0.929 . S
C3195 C3189 1.390 . S
C3195 C3192 1.386 . S
C3196 C3191 1.490 . S
C3196 C3198 1.395 . S
C3196 C3199 1.403 . S
H3197 C3203 0.930 . S
C3198 H3184 0.930 . S
C3198 C3196 1.395 . S
C3198 C3201 1.403 . S
C3199 C3196 1.403 . S
C3199 C3200 1.524 . S
C3199 C3203 1.400 . S
C3200 H3185 0.960 . S
C3200 H3186 0.960 . S
C3200 H3187 0.960 . S
C3200 C3199 1.524 . S
C3201 C3198 1.403 . S
C3201 C3202 1.392 . S
C3201 C3205 1.495 . S
C3202 C3201 1.392 . S
C3202 C3203 1.385 . S
C3202 C3204 1.478 . S
C3203 H3197 0.930 . S
C3203 C3199 1.400 . S
C3203 C3202 1.385 . S
C3204 C3202 1.478 . S
C3204 C3206 1.381 . S
C3204 C3210 1.383 . S
C3205 C3201 1.495 . S
C3205 H3211 0.959 . S
C3205 H3212 0.961 . S
C3205 H3213 0.960 . S
C3206 C3204 1.381 . S
C3206 C3207 1.394 . S
C3206 H3214 0.930 . S
C3207 C3206 1.394 . S
C3207 C3208 1.383 . S
C3207 H3215 0.929 . S
C3208 C3207 1.383 . S
C3208 C3209 1.377 . S
C3209 H3193 0.930 . S
C3209 C3208 1.377 . S
C3209 C3210 1.379 . S
C3210 H3194 0.931 . S
C3210 C3204 1.383 . S
C3210 C3209 1.379 . S
H3211 C3205 0.959 . S
H3212 C3205 0.961 . S
H3213 C3205 0.960 . S
H3214 C3206 0.930 . S
H3215 C3207 0.929 . S
H3216 C3224 0.929 . S
H3217 C3226 0.930 . S
H3218 C3228 0.866 1_554 S
H3219 C3231 0.993 . S
H3220 C3234 0.930 . S
H3221 C3236 0.960 . S
H3222 C3236 0.960 . S
H3223 C3236 0.960 . S
C3224 H3216 0.929 . S
C3224 C3225 1.377 . S
C3224 C3226 1.384 . S
C3225 C3224 1.377 . S
C3225 C3231 1.390 . S
C3226 H3217 0.930 . S
C3226 C3224 1.384 . S
C3226 C3227 1.372 . S
C3227 C3226 1.372 . S
C3227 C3228 1.400 . S
C3227 C3232 1.490 . S
C3228 H3218 0.866 1_556 S
C3228 C3227 1.400 . S
C3228 C3231 1.386 . S
H3229 C3245 0.930 . S
H3230 C3246 0.929 1_554 S
C3231 H3219 0.993 . S
C3231 C3225 1.390 . S
C3231 C3228 1.386 . S
C3232 C3227 1.490 . S
C3232 C3234 1.395 . S
C3232 C3235 1.403 . S
H3233 C3239 0.930 . S
C3234 H3220 0.930 . S
C3234 C3232 1.395 . S
C3234 C3237 1.403 . S
C3235 C3232 1.403 . S
C3235 C3236 1.524 . S
C3235 C3239 1.400 . S
C3236 H3221 0.960 . S
C3236 H3222 0.960 . S
C3236 H3223 0.960 . S
C3236 C3235 1.524 . S
C3237 C3234 1.403 . S
C3237 C3238 1.392 . S
C3237 C3241 1.495 . S
C3238 C3237 1.392 . S
C3238 C3239 1.385 . S
C3238 C3240 1.478 . S
C3239 H3233 0.930 . S
C3239 C3235 1.400 . S
C3239 C3238 1.385 . S
C3240 C3238 1.478 . S
C3240 C3242 1.381 . S
C3240 C3246 1.385 . S
C3241 C3237 1.495 . S
C3241 H3247 0.959 . S
C3241 H3248 0.961 . S
C3241 H3249 0.960 . S
C3242 C3240 1.381 . S
C3242 C3243 1.394 . S
C3242 H3250 0.930 . S
C3243 C3242 1.394 . S
C3243 C3244 1.383 . S
C3243 H3251 0.929 . S
C3244 C3243 1.383 . S
C3244 C3245 1.377 1_556 S
C3245 H3229 0.930 . S
C3245 C3244 1.377 1_554 S
C3245 C3246 1.379 1_554 S
C3246 H3230 0.929 1_556 S
C3246 C3240 1.385 . S
C3246 C3245 1.379 1_556 S
H3247 C3241 0.959 . S
H3248 C3241 0.961 . S
H3249 C3241 0.960 . S
H3250 C3242 0.930 . S
H3251 C3243 0.929 . S
H3252 C3260 0.929 . S
H3253 C3262 0.930 . S
H3254 C3264 0.930 . S
H3255 C3267 0.929 . S
H3256 C3270 0.930 . S
H3257 C3272 0.960 . S
H3258 C3272 0.960 . S
H3259 C3272 0.960 . S
C3260 H3252 0.929 . S
C3260 C3261 1.377 . S
C3260 C3262 1.384 . S
C3261 C3260 1.377 . S
C3261 C3267 1.390 . S
C3262 H3253 0.930 . S
C3262 C3260 1.384 . S
C3262 C3263 1.372 . S
C3263 C3262 1.372 . S
C3263 C3264 1.400 . S
C3263 C3268 1.490 . S
C3264 H3254 0.930 . S
C3264 C3263 1.400 . S
C3264 C3267 1.386 . S
H3265 C3281 0.930 . S
H3266 C3282 0.931 . S
C3267 H3255 0.929 . S
C3267 C3261 1.390 . S
C3267 C3264 1.386 . S
C3268 C3263 1.490 . S
C3268 C3270 1.395 . S
C3268 C3271 1.403 . S
H3269 C3275 0.930 . S
C3270 H3256 0.930 . S
C3270 C3268 1.395 . S
C3270 C3273 1.403 . S
C3271 C3268 1.403 . S
C3271 C3272 1.524 . S
C3271 C3275 1.400 . S
C3272 H3257 0.960 . S
C3272 H3258 0.960 . S
C3272 H3259 0.960 . S
C3272 C3271 1.524 . S
C3273 C3270 1.403 . S
C3273 C3274 1.392 . S
C3273 C3277 1.495 . S
C3274 C3273 1.392 . S
C3274 C3275 1.385 . S
C3274 C3276 1.478 . S
C3275 H3269 0.930 . S
C3275 C3271 1.400 . S
C3275 C3274 1.385 . S
C3276 C3274 1.478 . S
C3276 C3278 1.381 . S
C3276 C3282 1.383 . S
C3277 C3273 1.495 . S
C3277 H3283 0.959 . S
C3277 H3284 0.961 . S
C3277 H3285 0.960 . S
C3278 C3276 1.381 . S
C3278 C3279 1.394 . S
C3278 H3286 0.930 . S
C3279 C3278 1.394 . S
C3279 C3280 1.383 . S
C3279 H3287 0.929 . S
C3280 C3279 1.383 . S
C3280 C3281 1.377 . S
C3281 H3265 0.930 . S
C3281 C3280 1.377 . S
C3281 C3282 1.379 . S
C3282 H3266 0.931 . S
C3282 C3276 1.383 . S
C3282 C3281 1.379 . S
H3283 C3277 0.959 . S
H3284 C3277 0.961 . S
H3285 C3277 0.960 . S
H3286 C3278 0.930 . S
H3287 C3279 0.929 . S
H3288 C3296 0.929 . S
H3289 C3298 0.930 . S
H3290 C3300 0.930 . S
H3291 C3303 0.929 . S
H3292 C3306 0.930 . S
H3293 C3308 0.960 . S
H3294 C3308 0.958 1_554 S
H3295 C3308 0.960 . S
C3296 H3288 0.929 . S
C3296 C3297 1.377 . S
C3296 C3298 1.384 . S
C3297 C3296 1.377 . S
C3297 C3303 1.390 . S
C3298 H3289 0.930 . S
C3298 C3296 1.384 . S
C3298 C3299 1.372 . S
C3299 C3298 1.372 . S
C3299 C3300 1.400 . S
C3299 C3304 1.490 . S
C3300 H3290 0.930 . S
C3300 C3299 1.400 . S
C3300 C3303 1.386 . S
H3301 C3317 0.930 1_556 S
H3302 C3318 0.931 1_556 S
C3303 H3291 0.929 . S
C3303 C3297 1.390 . S
C3303 C3300 1.386 . S
C3304 C3299 1.490 . S
C3304 C3306 1.395 . S
C3304 C3307 1.403 . S
H3305 C3311 0.886 1_556 S
C3306 H3292 0.930 . S
C3306 C3304 1.395 . S
C3306 C3309 1.403 . S
C3307 C3304 1.403 . S
C3307 C3308 1.524 1_554 S
C3307 C3311 1.400 . S
C3308 H3293 0.960 . S
C3308 H3294 0.958 1_556 S
C3308 H3295 0.960 . S
C3308 C3307 1.524 1_556 S
C3309 C3306 1.403 . S
C3309 C3310 1.392 . S
C3309 C3313 1.495 . S
C3310 C3309 1.392 . S
C3310 C3311 1.385 . S
C3310 C3312 1.478 . S
C3311 H3305 0.886 1_554 S
C3311 C3307 1.400 . S
C3311 C3310 1.385 . S
C3312 C3310 1.478 . S
C3312 C3314 1.381 . S
C3312 C3318 1.383 . S
C3313 C3309 1.495 . S
C3313 H3319 0.959 . S
C3313 H3320 0.961 . S
C3313 H3321 0.960 . S
C3314 C3312 1.381 . S
C3314 C3315 1.394 . S
C3314 H3322 0.930 . S
C3315 C3314 1.394 . S
C3315 C3316 1.383 . S
C3315 H3323 0.929 . S
C3316 C3315 1.383 . S
C3316 C3317 1.377 . S
C3317 H3301 0.930 1_554 S
C3317 C3316 1.377 . S
C3317 C3318 1.379 . S
C3318 H3302 0.931 1_554 S
C3318 C3312 1.383 . S
C3318 C3317 1.379 . S
H3319 C3313 0.959 . S
H3320 C3313 0.961 . S
H3321 C3313 0.960 . S
H3322 C3314 0.930 . S
H3323 C3315 0.929 . S
H3324 C3332 0.929 . S
H3325 C3334 0.930 . S
H3326 C3336 0.930 . S
H3327 C3339 0.929 . S
H3328 C3342 0.930 . S
H3329 C3344 0.960 . S
H3330 C3344 0.960 . S
H3331 C3344 0.960 . S
C3332 H3324 0.929 . S
C3332 C3333 1.377 . S
C3332 C3334 1.384 . S
C3333 C3332 1.377 . S
C3333 C3339 1.390 . S
C3334 H3325 0.930 . S
C3334 C3332 1.384 . S
C3334 C3335 1.372 . S
C3335 C3334 1.372 . S
C3335 C3336 1.400 . S
C3335 C3340 1.490 . S
C3336 H3326 0.930 . S
C3336 C3335 1.400 . S
C3336 C3339 1.386 . S
H3337 C3353 0.974 . S
H3338 C3354 0.890 1_556 S
C3339 H3327 0.929 . S
C3339 C3333 1.390 . S
C3339 C3336 1.386 . S
C3340 C3335 1.490 . S
C3340 C3342 1.395 . S
C3340 C3343 1.403 . S
H3341 C3347 0.930 . S
C3342 H3328 0.930 . S
C3342 C3340 1.395 . S
C3342 C3345 1.403 . S
C3343 C3340 1.403 . S
C3343 C3344 1.524 . S
C3343 C3347 1.400 . S
C3344 H3329 0.960 . S
C3344 H3330 0.960 . S
C3344 H3331 0.960 . S
C3344 C3343 1.524 . S
C3345 C3342 1.403 . S
C3345 C3346 1.392 . S
C3345 C3349 1.495 . S
C3346 C3345 1.392 . S
C3346 C3347 1.385 . S
C3346 C3348 1.478 . S
C3347 H3341 0.930 . S
C3347 C3343 1.400 . S
C3347 C3346 1.385 . S
C3348 C3346 1.478 . S
C3348 C3350 1.381 . S
C3348 C3354 1.430 . S
C3349 C3345 1.495 . S
C3349 H3355 0.959 . S
C3349 H3356 0.961 . S
C3349 H3357 0.960 . S
C3350 C3348 1.381 . S
C3350 C3351 1.394 . S
C3350 H3358 0.930 . S
C3351 C3350 1.394 . S
C3351 C3352 1.383 . S
C3351 H3359 0.929 . S
C3352 C3351 1.383 . S
C3352 C3353 1.339 1_554 S
C3353 H3337 0.974 . S
C3353 C3352 1.339 1_556 S
C3353 C3354 1.373 1_556 S
C3354 H3338 0.890 1_554 S
C3354 C3348 1.430 . S
C3354 C3353 1.373 1_554 S
H3355 C3349 0.959 . S
H3356 C3349 0.961 . S
H3357 C3349 0.960 . S
H3358 C3350 0.930 . S
H3359 C3351 0.929 . S
C1660 C625 1.492 . S
C1641 C181 1.491 . S
C1696 C684 1.517 . S
C1677 C247 1.519 . S
C1713 C283 1.508 . S
C1732 C801 1.518 . S
C1768 C869 1.518 . S
C1749 C169 1.509 . S
C1804 C948 1.511 . S
C1785 C361 1.504 . S
C1840 C1073 1.518 . S
C1821 C433 1.514 . S
C1857 C421 1.494 . S
C1876 C1133 1.502 . S
C1912 C1241 1.534 . S
C1893 C355 1.536 . S
C1929 C427 1.515 . S
C1948 C1337 1.524 . S
C1984 C1397 1.523 . S
C1965 C325 1.523 . S
C2001 C385 1.497 . S
C2020 C1300 1.504 . S
C2056 C1417 1.521 . S
C2037 C463 1.514 . S
C2073 C253 1.514 . S
C2092 C1485 1.516 . S
C2109 C145 1.519 . S
C2128 C1476 1.523 . S
C2145 C205 1.479 . S
C2164 C1505 1.482 . S
C2181 C217 1.510 . S
C2200 C1513 1.509 . S
C2217 C139 1.512 . S
C2236 C897 1.515 . S
C2253 C535 1.499 . S
C2272 C860 1.502 . S
C2308 C596 1.498 . S
C2289 C565 1.498 . S
C2344 C693 1.503 . S
C2325 C313 1.499 . S
C2361 C175 1.526 . S
C2380 C957 1.533 . S
C2416 C1249 1.500 . S
C2397 C397 1.488 . S
C2452 C977 1.515 . S
C2433 C349 1.520 . S
C2488 C1161 1.531 . S
C2469 C457 1.523 . S
C2524 C1153 1.497 . S
C2505 C505 1.490 . S
C2541 C571 1.519 . S
C2560 C1221 1.515 . S
C2577 C319 1.506 . S
C2596 C985 1.512 . S
C2632 C1036 1.517 . S
C2613 C493 1.508 . S
C2649 C109 1.505 . S
C2668 C781 1.499 . S
C2704 C889 1.515 . S
C2685 C1 1.511 . S
C2740 C605 1.503 . S
C2721 C61 1.494 . S
C2776 C721 1.533 . S
C2757 C103 1.534 . S
C2793 C67 1.518 . S
C2812 C1425 1.522 . S
C2829 C73 1.522 . S
C2848 C1309 1.521 . S
C2865 C133 1.498 . S
C2884 C1388 1.508 . S
C2901 C31 1.515 . S
C2920 C1329 1.521 . S
C2956 C1573 1.520 . S
C2937 C289 1.513 . S
C2992 C1564 1.521 . S
C2973 C469 1.515 . S
C3028 C1593 1.483 . S
C3009 C529 1.475 . S
C3045 C541 1.510 . S
C3064 C1601 1.505 . S
C3081 C391 1.513 . S
C3100 C1065 1.520 . S
C3136 C1045 1.503 . S
C3117 C211 1.500 . S
C3172 C1124 1.498 . S
C3153 C241 1.498 . S
C3208 C1212 1.504 . S
C3189 C277 1.503 . S
C3225 C499 1.526 . S
C3244 C772 1.533 . S
C3280 C713 1.501 . S
C3261 C37 1.499 . S
C3297 C97 1.521 . S
C3316 C809 1.514 . S
C3352 C633 1.526 . S
C3333 C25 1.519 . S
