# Generated by pormake.
# Topology sqc, (4,8)-cn, num edge types: 1
# Building blocks:
#     Node 0, Type 0, BuildingBlock: AZAVOO_clean_linker_0, # of connection points: 4
#     Node 1, Type 0, BuildingBlock: AZAVOO_clean_linker_0, # of connection points: 4
#     Node 2, Type 0, BuildingBlock: AZAVOO_clean_linker_0, # of connection points: 4
#     Node 3, Type 0, BuildingBlock: AZAVOO_clean_linker_0, # of connection points: 4
#     Node 4, Type 0, BuildingBlock: AZAVOO_clean_linker_0, # of connection points: 4
#     Node 5, Type 0, BuildingBlock: AZAVOO_clean_linker_0, # of connection points: 4
#     Node 6, Type 0, BuildingBlock: AZAVOO_clean_linker_0, # of connection points: 4
#     Node 7, Type 0, BuildingBlock: AZAVOO_clean_linker_0, # of connection points: 4
#     Node 8, Type 1, BuildingBlock: VETTIZ_charged_sbu_0, # of connection points: 8
#     Node 9, Type 1, BuildingBlock: VETTIZ_charged_sbu_0, # of connection points: 8
#     Node 10, Type 1, BuildingBlock: VETTIZ_charged_sbu_0, # of connection points: 8
#     Node 11, Type 1, BuildingBlock: VETTIZ_charged_sbu_0, # of connection points: 8
#     Edge 12, Type (0, 1), BuildingBlock: XIVTED_clean_linker_0, # of connection points: 2
#     Edge 13, Type (0, 1), BuildingBlock: XIVTED_clean_linker_0, # of connection points: 2
#     Edge 14, Type (0, 1), BuildingBlock: XIVTED_clean_linker_0, # of connection points: 2
#     Edge 15, Type (0, 1), BuildingBlock: XIVTED_clean_linker_0, # of connection points: 2
#     Edge 16, Type (0, 1), BuildingBlock: XIVTED_clean_linker_0, # of connection points: 2
#     Edge 17, Type (0, 1), BuildingBlock: XIVTED_clean_linker_0, # of connection points: 2
#     Edge 18, Type (0, 1), BuildingBlock: XIVTED_clean_linker_0, # of connection points: 2
#     Edge 19, Type (0, 1), BuildingBlock: XIVTED_clean_linker_0, # of connection points: 2
#     Edge 20, Type (0, 1), BuildingBlock: XIVTED_clean_linker_0, # of connection points: 2
#     Edge 21, Type (0, 1), BuildingBlock: XIVTED_clean_linker_0, # of connection points: 2
#     Edge 22, Type (0, 1), BuildingBlock: XIVTED_clean_linker_0, # of connection points: 2
#     Edge 23, Type (0, 1), BuildingBlock: XIVTED_clean_linker_0, # of connection points: 2
#     Edge 24, Type (0, 1), BuildingBlock: XIVTED_clean_linker_0, # of connection points: 2
#     Edge 25, Type (0, 1), BuildingBlock: XIVTED_clean_linker_0, # of connection points: 2
#     Edge 26, Type (0, 1), BuildingBlock: XIVTED_clean_linker_0, # of connection points: 2
#     Edge 27, Type (0, 1), BuildingBlock: XIVTED_clean_linker_0, # of connection points: 2
#     Edge 28, Type (0, 1), BuildingBlock: XIVTED_clean_linker_0, # of connection points: 2
#     Edge 29, Type (0, 1), BuildingBlock: XIVTED_clean_linker_0, # of connection points: 2
#     Edge 30, Type (0, 1), BuildingBlock: XIVTED_clean_linker_0, # of connection points: 2
#     Edge 31, Type (0, 1), BuildingBlock: XIVTED_clean_linker_0, # of connection points: 2
#     Edge 32, Type (0, 1), BuildingBlock: XIVTED_clean_linker_0, # of connection points: 2
#     Edge 33, Type (0, 1), BuildingBlock: XIVTED_clean_linker_0, # of connection points: 2
#     Edge 34, Type (0, 1), BuildingBlock: XIVTED_clean_linker_0, # of connection points: 2
#     Edge 35, Type (0, 1), BuildingBlock: XIVTED_clean_linker_0, # of connection points: 2
#     Edge 36, Type (0, 1), BuildingBlock: XIVTED_clean_linker_0, # of connection points: 2
#     Edge 37, Type (0, 1), BuildingBlock: XIVTED_clean_linker_0, # of connection points: 2
#     Edge 38, Type (0, 1), BuildingBlock: XIVTED_clean_linker_0, # of connection points: 2
#     Edge 39, Type (0, 1), BuildingBlock: XIVTED_clean_linker_0, # of connection points: 2
#     Edge 40, Type (0, 1), BuildingBlock: XIVTED_clean_linker_0, # of connection points: 2
#     Edge 41, Type (0, 1), BuildingBlock: XIVTED_clean_linker_0, # of connection points: 2
#     Edge 42, Type (0, 1), BuildingBlock: XIVTED_clean_linker_0, # of connection points: 2
#     Edge 43, Type (0, 1), BuildingBlock: XIVTED_clean_linker_0, # of connection points: 2
# Relax obj value: 0.166
# Max RMSD: 0.286
# Mean RMSD: 0.234
data_MOF--net-sqc--node1-VETTIZ_charged_sbu_0--node2-AZAVOO_clean_linker_0--edge1-XIVTED_clean_linker_0
_symmetry_space_group_name_H-M    P1
_symmetry_Int_Tables_number       1
_symmetry_cell_setting            triclinic
loop_
_symmetry_equiv_pos_as_xyz
'x, y, z'
_cell_length_a     26.594312
_cell_length_b     26.615941
_cell_length_c     90.272194
_cell_angle_alpha  90.696421
_cell_angle_beta   90.190598
_cell_angle_gamma 90.463057
loop_
_atom_site_label
_atom_site_type_symbol
_atom_site_fract_x
_atom_site_fract_y
_atom_site_fract_z
_atom_type_partial_charge
H0 H 0.0348 0.22813 0.60948 0.0
H1 H 0.7229 0.86013 0.51113 0.0
H2 H 0.09285 0.14114 0.53783 0.0
H3 H 0.1722 0.16614 0.54966 0.0
H4 H 0.21645 0.01032 0.55106 0.0
H5 H 0.1362 0.98565 0.53971 0.0
H6 H 0.98116 0.14525 0.5512 0.0
H7 H 0.9951 0.19188 0.5744 0.0
H8 H 0.08479 0.06951 0.59079 0.0
H9 H 0.07001 0.02301 0.56762 0.0
H10 H 0.88034 0.08435 0.53487 0.0
H11 H 0.80847 0.09282 0.55111 0.0
H12 H 0.88993 0.01514 0.5855 0.0
H13 H 0.95865 0.001 0.56832 0.0
H14 H 0.89578 0.04176 0.50518 0.0
H15 H 0.81684 0.00292 0.49684 0.0
H16 H 0.83125 0.89058 0.53077 0.0
H17 H 0.91071 0.92933 0.53884 0.0
H18 H 0.99523 0.03687 0.48837 0.0
H19 H 0.94613 0.99868 0.46824 0.0
H20 H 0.9281 0.86413 0.49429 0.0
H21 H 0.98088 0.90098 0.51344 0.0
H22 H 0.10249 0.09546 0.50695 0.0
H23 H 0.17387 0.08771 0.48995 0.0
H24 H 0.15951 0.92618 0.49112 0.0
H25 H 0.08976 0.93392 0.50865 0.0
O26 O 0.02959 0.20891 0.60043 0.0
O27 O 0.0754 0.14499 0.60835 0.0
O28 O 0.74855 0.93487 0.49697 0.0
O29 O 0.75322 0.87711 0.51451 0.0
C30 C 0.0569 0.04553 0.53359 0.0
C31 C 0.01636 0.05296 0.54354 0.0
C32 C 0.96777 0.03448 0.53993 0.0
C33 C 0.95997 0.00833 0.5264 0.0
C34 C 1.00052 1.0006 0.51648 0.0
C35 C 0.04879 0.02024 0.51987 0.0
C36 C 0.10848 0.06154 0.5381 0.0
C37 C 0.12009 0.11254 0.54047 0.0
C38 C 0.16563 0.12674 0.54714 0.0
C39 C 0.20046 0.09015 0.55146 0.0
C40 C 0.19006 0.03935 0.5481 0.0
C41 C 0.14445 0.02519 0.5415 0.0
C42 C 0.02467 0.08085 0.55772 0.0
C43 C 0.00365 0.12853 0.55984 0.0
C44 C 0.01176 0.15511 0.57309 0.0
C45 C 0.04113 0.13446 0.58445 0.0
C46 C 0.06204 0.08654 0.58227 0.0
C47 C 0.05376 0.05994 0.56904 0.0
C48 C 0.92492 0.04195 0.55033 0.0
C49 C 0.88221 0.06834 0.54583 0.0
C50 C 0.84127 0.07391 0.55533 0.0
C51 C 0.84277 0.05521 0.56988 0.0
C52 C 0.8862 0.02931 0.57438 0.0
C53 C 0.9263 0.02199 0.56464 0.0
C54 C 0.9091 0.98817 0.52255 0.0
C55 C 0.88164 0.00896 0.51086 0.0
C56 C 0.83659 0.98667 0.50611 0.0
C57 C 0.8179 0.9434 0.51308 0.0
C58 C 0.84468 0.92372 0.52513 0.0
C59 C 0.8899 0.94594 0.52982 0.0
C60 C 0.99044 0.97213 0.5025 0.0
C61 C 0.98297 0.99812 0.4893 0.0
C62 C 0.95377 0.97648 0.47795 0.0
C63 C 0.93061 0.9291 0.47985 0.0
C64 C 0.94453 0.90068 0.49226 0.0
C65 C 0.97496 0.92177 0.50335 0.0
C66 C 0.0907 0.01526 0.50906 0.0
C67 C 0.1149 0.05836 0.50361 0.0
C68 C 0.15554 0.05397 0.4939 0.0
C69 C 0.17188 0.0064 0.4892 0.0
C70 C 0.14718 0.96331 0.49446 0.0
C71 C 0.1073 0.96768 0.50443 0.0
C72 C 0.04985 0.16292 0.59848 0.0
C73 C 0.77109 0.91843 0.50768 0.0
H74 H 0.43214 0.60892 0.70241 0.0
H75 H 0.35692 0.08734 0.79434 0.0
H76 H 0.24916 0.65572 0.76308 0.0
H77 H 0.25976 0.57151 0.75296 0.0
H78 H 0.37268 0.5423 0.78631 0.0
H79 H 0.36303 0.62817 0.79596 0.0
H80 H 0.30662 0.72551 0.74314 0.0
H81 H 0.34906 0.68097 0.72291 0.0
H82 H 0.46561 0.63563 0.75337 0.0
H83 H 0.42302 0.68069 0.77345 0.0
H84 H 0.28643 0.83897 0.75281 0.0
H85 H 0.32226 0.88852 0.73287 0.0
H86 H 0.47168 0.84413 0.74625 0.0
H87 H 0.43515 0.79595 0.76662 0.0
H88 H 0.23367 0.87215 0.7807 0.0
H89 H 0.23347 0.96387 0.78293 0.0
H90 H 0.39211 0.96244 0.79363 0.0
H91 H 0.39154 0.87063 0.79159 0.0
H92 H 0.18936 0.79981 0.80117 0.0
H93 H 0.15548 0.86751 0.81675 0.0
H94 H 0.30443 0.89605 0.83444 0.0
H95 H 0.33707 0.82759 0.81928 0.0
H96 H 0.20734 0.66295 0.79352 0.0
H97 H 0.18704 0.59619 0.81061 0.0
H98 H 0.29722 0.65637 0.84165 0.0
H99 H 0.32053 0.7201 0.82369 0.0
O100 O 0.41624 0.62673 0.71052 0.0
O101 O 0.47498 0.60426 0.72667 0.0
O102 O 0.27428 0.04971 0.78798 0.0
O103 O 0.35595 0.05109 0.79335 0.0
C104 C 0.30967 0.70329 0.78285 0.0
C105 C 0.33527 0.73195 0.77215 0.0
C106 C 0.3357 0.78464 0.77321 0.0
C107 C 0.31211 0.80901 0.78523 0.0
C108 C 0.28877 0.78055 0.79651 0.0
C109 C 0.28731 0.72734 0.79529 0.0
C110 C 0.30548 0.64815 0.7802 0.0
C111 C 0.27495 0.63053 0.76852 0.0
C112 C 0.28112 0.58213 0.76275 0.0
C113 C 0.31773 0.55004 0.76863 0.0
C114 C 0.34496 0.56632 0.78127 0.0
C115 C 0.339 0.61511 0.78698 0.0
C116 C 0.36181 0.70632 0.75973 0.0
C117 C 0.34151 0.70623 0.74538 0.0
C118 C 0.36574 0.68062 0.73387 0.0
C119 C 0.41068 0.65464 0.73653 0.0
C120 C 0.43104 0.65518 0.75094 0.0
C121 C 0.40682 0.68088 0.76242 0.0
C122 C 0.35827 0.8144 0.76118 0.0
C123 C 0.32689 0.84015 0.75145 0.0
C124 C 0.34745 0.86778 0.73994 0.0
C125 C 0.39984 0.86983 0.73788 0.0
C126 C 0.43123 0.84347 0.7476 0.0
C127 C 0.41053 0.81595 0.75919 0.0
C128 C 0.31252 0.86483 0.7861 0.0
C129 C 0.26827 0.89175 0.78358 0.0
C130 C 0.26831 0.94411 0.78482 0.0
C131 C 0.31279 0.9705 0.78849 0.0
C132 C 0.35721 0.94331 0.79082 0.0
C133 C 0.35705 0.89092 0.78962 0.0
C134 C 0.26565 0.8083 0.80917 0.0
C135 C 0.21411 0.81923 0.80892 0.0
C136 C 0.19507 0.85879 0.81761 0.0
C137 C 0.22725 0.88814 0.82672 0.0
C138 C 0.27818 0.87433 0.82772 0.0
C139 C 0.29702 0.83477 0.81912 0.0
C140 C 0.26591 0.69601 0.80724 0.0
C141 C 0.22669 0.66199 0.80409 0.0
C142 C 0.21491 0.62386 0.814 0.0
C143 C 0.24101 0.61986 0.82755 0.0
C144 C 0.27738 0.65689 0.83117 0.0
C145 C 0.29007 0.69421 0.82104 0.0
C146 C 0.43605 0.62701 0.72432 0.0
C147 C 0.31297 0.02612 0.78991 0.0
H148 H 0.49526 0.92087 0.12768 0.0
H149 H 0.85299 0.25609 0.0239 0.0
H150 H 0.45811 0.02685 0.04233 0.0
H151 H 0.378 0.99268 0.05086 0.0
H152 H 0.37488 0.1058 0.08568 0.0
H153 H 0.4528 0.14178 0.07627 0.0
H154 H 0.53838 0.9948 0.06826 0.0
H155 H 0.51979 0.94998 0.09115 0.0
H156 H 0.52644 0.09068 0.1156 0.0
H157 H 0.54454 0.135 0.09259 0.0
H158 H 0.66494 0.02903 0.05846 0.0
H159 H 0.73469 0.00576 0.07468 0.0
H160 H 0.70499 0.13492 0.10265 0.0
H161 H 0.63569 0.15861 0.0861 0.0
H162 H 0.68122 0.07436 0.03174 0.0
H163 H 0.76239 0.10256 0.02205 0.0
H164 H 0.74312 0.24622 0.04413 0.0
H165 H 0.66202 0.21743 0.05375 0.0
H166 H 0.58471 0.07426 0.01335 0.0
H167 H 0.64013 0.08823 0.99234 0.0
H168 H 0.65862 0.24354 0.00589 0.0
H169 H 0.60113 0.22962 0.02656 0.0
H170 H 0.49138 0.06728 0.01746 0.0
H171 H 0.41994 0.08318 0.00119 0.0
H172 H 0.3929 0.2233 0.02453 0.0
H173 H 0.46353 0.20576 0.0411 0.0
O174 O 0.50286 0.9393 0.11878 0.0
O175 O 0.50714 0.01254 0.13086 0.0
O176 O 0.83158 0.16785 0.01761 0.0
O177 O 0.82239 0.24305 0.02823 0.0
C178 C 0.51349 0.10343 0.0547 0.0
C179 C 0.5532 0.09489 0.06484 0.0
C180 C 0.60302 0.10855 0.06122 0.0
C181 C 0.61349 0.12976 0.04734 0.0
C182 C 0.57442 0.13668 0.03689 0.0
C183 C 0.52425 0.12458 0.04071 0.0
C184 C 0.46134 0.08711 0.05859 0.0
C185 C 0.4392 0.04525 0.05149 0.0
C186 C 0.39369 0.02515 0.05659 0.0
C187 C 0.36969 0.04582 0.06915 0.0
C188 C 0.39132 0.08898 0.07588 0.0
C189 C 0.43631 0.10956 0.07058 0.0
C190 C 0.54311 0.068 0.07883 0.0
C191 C 0.53594 0.01578 0.07859 0.0
C192 C 0.52529 0.99032 0.09167 0.0
C193 C 0.5217 0.01674 0.10522 0.0
C194 C 0.52905 0.06918 0.10537 0.0
C195 C 0.5396 0.09457 0.09227 0.0
C196 C 0.6452 0.09528 0.07118 0.0
C197 C 0.67377 0.05248 0.06803 0.0
C198 C 0.71369 0.03945 0.07724 0.0
C199 C 0.72537 0.0687 0.08988 0.0
C200 C 0.69665 0.11166 0.09301 0.0
C201 C 0.65711 0.12512 0.08363 0.0
C202 C 0.66593 0.14385 0.04346 0.0
C203 C 0.6951 0.11154 0.0347 0.0
C204 C 0.74128 0.12786 0.02911 0.0
C205 C 0.75907 0.17682 0.03223 0.0
C206 C 0.73048 0.20837 0.04148 0.0
C207 C 0.68435 0.19193 0.04709 0.0
C208 C 0.58871 0.15082 0.02154 0.0
C209 C 0.59829 0.11201 0.01131 0.0
C210 C 0.63112 0.11982 -0.00051 0.0
C211 C 0.65529 0.16656 0.9977 0.0
C212 C 0.64095 0.20699 0.00694 0.0
C213 C 0.60765 0.19921 0.01873 0.0
C214 C 0.48276 0.13557 0.03034 0.0
C215 C 0.47024 0.10157 0.01895 0.0
C216 C 0.42944 0.1109 0.00964 0.0
C217 C 0.40061 0.15471 0.01149 0.0
C218 C 0.41365 0.18884 0.02292 0.0
C219 C 0.45427 0.17918 0.0323 0.0
C220 C 0.51016 0.9896 0.11908 0.0
C221 C 0.80661 0.19538 0.0256 0.0
H222 H 0.07986 0.24058 0.21021 0.0
H223 H 0.31608 0.61334 0.3217 0.0
H224 H 0.14081 0.19062 0.28966 0.0
H225 H 0.13526 0.11072 0.27603 0.0
H226 H 0.29756 0.10685 0.27343 0.0
H227 H 0.30229 0.1879 0.28639 0.0
H228 H 0.11738 0.29914 0.27191 0.0
H229 H 0.08751 0.27971 0.24683 0.0
H230 H 0.23395 0.221 0.2357 0.0
H231 H 0.26403 0.24272 0.26062 0.0
H232 H 0.1351 0.39719 0.28255 0.0
H233 H 0.12499 0.46197 0.26368 0.0
H234 H 0.27288 0.42831 0.24677 0.0
H235 H 0.28303 0.36457 0.2659 0.0
H236 H 0.16077 0.41861 0.30974 0.0
H237 H 0.17351 0.50708 0.31666 0.0
H238 H 0.33318 0.49134 0.30914 0.0
H239 H 0.31971 0.4032 0.30203 0.0
H240 H 0.17848 0.34432 0.33321 0.0
H241 H 0.19967 0.40445 0.35302 0.0
H242 H 0.35749 0.38253 0.3443 0.0
H243 H 0.33605 0.32358 0.32423 0.0
H244 H 0.18617 0.20144 0.32627 0.0
H245 H 0.21695 0.13022 0.34083 0.0
H246 H 0.36826 0.16217 0.32632 0.0
H247 H 0.33741 0.23324 0.31202 0.0
O248 O 0.09266 0.2484 0.22002 0.0
O249 O 0.1674 0.21518 0.2152 0.0
O250 O 0.22707 0.58596 0.32141 0.0
O251 O 0.30978 0.57888 0.31862 0.0
C252 C 0.22425 0.24841 0.29353 0.0
C253 C 0.21109 0.28591 0.2832 0.0
C254 C 0.21643 0.33714 0.28706 0.0
C255 C 0.23181 0.35082 0.30149 0.0
C256 C 0.24286 0.31334 0.31203 0.0
C257 C 0.24108 0.26204 0.30792 0.0
C258 C 0.22182 0.19502 0.28886 0.0
C259 C 0.17505 0.17178 0.28641 0.0
C260 C 0.17207 0.12606 0.2787 0.0
C261 C 0.21602 0.10282 0.27346 0.0
C262 C 0.26303 0.12432 0.27708 0.0
C263 C 0.26589 0.17022 0.28466 0.0
C264 C 0.19275 0.27195 0.26812 0.0
C265 C 0.143 0.2822 0.26402 0.0
C266 C 0.126 0.27096 0.2497 0.0
C267 C 0.15825 0.24853 0.23928 0.0
C268 C 0.20806 0.23806 0.24347 0.0
C269 C 0.22525 0.25009 0.25773 0.0
C270 C 0.20986 0.37638 0.27562 0.0
C271 C 0.16534 0.40408 0.2748 0.0
C272 C 0.1595 0.4407 0.26395 0.0
C273 C 0.19807 0.45025 0.25368 0.0
C274 C 0.2427 0.42239 0.2546 0.0
C275 C 0.24846 0.38576 0.26545 0.0
C276 C 0.2393 0.40473 0.30535 0.0
C277 C 0.19836 0.43455 0.30947 0.0
C278 C 0.20578 0.48498 0.31343 0.0
C279 C 0.2544 0.50631 0.31344 0.0
C280 C 0.29528 0.47617 0.30924 0.0
C281 C 0.28772 0.42586 0.30518 0.0
C282 C 0.25575 0.32968 0.3273 0.0
C283 C 0.21765 0.35039 0.33612 0.0
C284 C 0.22973 0.38502 0.34732 0.0
C285 C 0.28011 0.39836 0.35002 0.0
C286 C 0.31837 0.37252 0.34249 0.0
C287 C 0.30622 0.33851 0.33109 0.0
C288 C 0.25959 0.22276 0.31816 0.0
C289 C 0.22605 0.19357 0.32649 0.0
C290 C 0.24368 0.15297 0.33479 0.0
C291 C 0.29501 0.14039 0.33465 0.0
C292 C 0.32849 0.1706 0.32656 0.0
C293 C 0.31099 0.21145 0.31848 0.0
C294 C 0.13993 0.23629 0.2241 0.0
C295 C 0.2627 0.55947 0.31803 0.0
H296 H 0.03331 0.14231 0.22257 0.0
H297 H 0.91005 0.61109 0.32432 0.0
H298 H 0.8349 0.19089 0.28128 0.0
H299 H 0.84424 0.11632 0.26571 0.0
H300 H 0.98072 0.07946 0.28913 0.0
H301 H 0.97039 0.15431 0.30495 0.0
H302 H 0.90216 0.25479 0.26273 0.0
H303 H 0.94686 0.21198 0.2426 0.0
H304 H 0.0733 0.18909 0.27184 0.0
H305 H 0.02855 0.23254 0.29183 0.0
H306 H 0.87006 0.35885 0.27368 0.0
H307 H 0.89456 0.41824 0.25467 0.0
H308 H 0.04828 0.41396 0.27025 0.0
H309 H 0.02305 0.35413 0.28954 0.0
H310 H 0.81542 0.39086 0.30105 0.0
H311 H 0.80479 0.48085 0.30571 0.0
H312 H 0.9585 0.49109 0.32133 0.0
H313 H 0.96834 0.4008 0.31683 0.0
H314 H 0.77004 0.29703 0.31431 0.0
H315 H 0.71214 0.34546 0.32973 0.0
H316 H 0.83687 0.3978 0.35668 0.0
H317 H 0.8946 0.34836 0.34132 0.0
H318 H 0.78841 0.19847 0.30428 0.0
H319 H 0.74291 0.13562 0.31866 0.0
H320 H 0.84925 0.15561 0.35457 0.0
H321 H 0.89552 0.21782 0.33989 0.0
O322 O 0.0172 0.1612 0.23044 0.0
O323 O 0.08044 0.1491 0.24614 0.0
O324 O 0.83442 0.56806 0.31429 0.0
O325 O 0.91329 0.57547 0.32234 0.0
C326 C 0.90426 0.23049 0.29993 0.0
C327 C 0.9321 0.2652 0.29146 0.0
C328 C 0.92786 0.317 0.29435 0.0
C329 C 0.89838 0.33435 0.30631 0.0
C330 C 0.87198 0.29969 0.31523 0.0
C331 C 0.87464 0.24769 0.31192 0.0
C332 C 0.90136 0.17762 0.29448 0.0
C333 C 0.86523 0.16524 0.28365 0.0
C334 C 0.871 0.12279 0.27462 0.0
C335 C 0.9135 0.09219 0.27608 0.0
C336 C 0.94782 0.1026 0.28765 0.0
C337 C 0.94159 0.14486 0.29685 0.0
C338 C 0.96222 0.24683 0.27869 0.0
C339 C 0.93998 0.24148 0.26465 0.0
C340 C 0.96543 0.21664 0.25323 0.0
C341 C 0.0135 0.19667 0.25569 0.0
C342 C 0.03629 0.20381 0.26964 0.0
C343 C 0.01098 0.22894 0.28102 0.0
C344 C 0.94472 0.35278 0.283 0.0
C345 C 0.90907 0.3707 0.27298 0.0
C346 C 0.92325 0.40415 0.26204 0.0
C347 C 0.97347 0.42031 0.2609 0.0
C348 C 0.00938 0.4021 0.27093 0.0
C349 C 0.99511 0.36813 0.2819 0.0
C350 C 0.89244 0.38928 0.30879 0.0
C351 C 0.84663 0.41257 0.30557 0.0
C352 C 0.84072 0.46399 0.30819 0.0
C353 C 0.88077 0.49316 0.31395 0.0
C354 C 0.92687 0.46973 0.31694 0.0
C355 C 0.93265 0.41821 0.31436 0.0
C356 C 0.83659 0.31901 0.32669 0.0
C357 C 0.78469 0.31736 0.32388 0.0
C358 C 0.75172 0.34556 0.3326 0.0
C359 C 0.77002 0.37597 0.34431 0.0
C360 C 0.82157 0.37453 0.3478 0.0
C361 C 0.85461 0.34634 0.33904 0.0
C362 C 0.84599 0.21145 0.32089 0.0
C363 C 0.8023 0.18875 0.31515 0.0
C364 C 0.77623 0.15325 0.3234 0.0
C365 C 0.793 0.14058 0.33763 0.0
C366 C 0.83564 0.16488 0.34362 0.0
C367 C 0.86213 0.20002 0.33526 0.0
C368 C 0.03927 0.16766 0.24384 0.0
C369 C 0.87456 0.54777 0.31684 0.0
H370 H 0.64327 0.9358 0.70578 0.0
H371 H 0.75227 0.46562 0.81073 0.0
H372 H 0.82959 0.90028 0.77331 0.0
H373 H 0.81737 0.98159 0.76164 0.0
H374 H 0.66539 0.9854 0.77848 0.0
H375 H 0.67916 0.90542 0.79072 0.0
H376 H 0.77456 0.84105 0.74925 0.0
H377 H 0.73224 0.88125 0.72844 0.0
H378 H 0.5901 0.86716 0.75123 0.0
H379 H 0.63312 0.82768 0.77205 0.0
H380 H 0.77876 0.71214 0.75331 0.0
H381 H 0.73924 0.6569 0.73482 0.0
H382 H 0.5957 0.67608 0.75656 0.0
H383 H 0.63656 0.72938 0.77544 0.0
H384 H 0.83141 0.67357 0.77708 0.0
H385 H 0.8406 0.58366 0.78174 0.0
H386 H 0.70684 0.58685 0.80885 0.0
H387 H 0.69811 0.67672 0.80404 0.0
H388 H 0.88357 0.74061 0.79775 0.0
H389 H 0.92068 0.67147 0.81134 0.0
H390 H 0.79179 0.66917 0.84038 0.0
H391 H 0.75425 0.7372 0.82626 0.0
H392 H 0.8698 0.87597 0.7985 0.0
H393 H 0.89057 0.94545 0.81559 0.0
H394 H 0.75452 0.91517 0.84011 0.0
H395 H 0.73456 0.84566 0.82308 0.0
O396 O 0.65917 0.91923 0.71403 0.0
O397 O 0.58667 0.90831 0.72581 0.0
O398 O 0.81603 0.50059 0.7938 0.0
O399 O 0.74858 0.50072 0.80829 0.0
C400 C 0.75704 0.84194 0.78552 0.0
C401 C 0.73315 0.80983 0.77506 0.0
C402 C 0.73488 0.7575 0.77678 0.0
C403 C 0.76168 0.7368 0.78867 0.0
C404 C 0.78604 0.76855 0.7992 0.0
C405 C 0.78266 0.82138 0.79781 0.0
C406 C 0.75541 0.89702 0.78295 0.0
C407 C 0.79457 0.91992 0.77509 0.0
C408 C 0.78706 0.96597 0.76816 0.0
C409 C 0.73992 0.98968 0.76877 0.0
C410 C 0.70227 0.96864 0.77778 0.0
C411 C 0.71008 0.92287 0.78487 0.0
C412 C 0.70681 0.8313 0.76208 0.0
C413 C 0.73425 0.84644 0.74966 0.0
C414 C 0.70999 0.86947 0.73782 0.0
C415 C 0.65778 0.87744 0.73817 0.0
C416 C 0.63034 0.86155 0.7506 0.0
C417 C 0.65472 0.83877 0.76246 0.0
C418 C 0.71045 0.72428 0.76567 0.0
C419 C 0.73884 0.70414 0.75406 0.0
C420 C 0.71598 0.67319 0.74342 0.0
C421 C 0.66413 0.66238 0.74413 0.0
C422 C 0.63574 0.68324 0.75576 0.0
C423 C 0.65886 0.71378 0.76651 0.0
C424 C 0.76411 0.68142 0.79022 0.0
C425 C 0.80379 0.65454 0.78385 0.0
C426 C 0.80906 0.6033 0.78659 0.0
C427 C 0.77459 0.57812 0.79574 0.0
C428 C 0.73411 0.60509 0.80179 0.0
C429 C 0.72886 0.65631 0.79901 0.0
C430 C 0.81626 0.74438 0.81103 0.0
C431 C 0.86446 0.72683 0.80749 0.0
C432 C 0.88541 0.68668 0.81522 0.0
C433 C 0.85878 0.6635 0.82678 0.0
C434 C 0.81284 0.6849 0.83128 0.0
C435 C 0.79177 0.72481 0.82346 0.0
C436 C 0.80094 0.85566 0.80966 0.0
C437 C 0.84521 0.88371 0.80778 0.0
C438 C 0.85659 0.92375 0.81743 0.0
C439 C 0.82382 0.93627 0.8291 0.0
C440 C 0.78071 0.90637 0.83132 0.0
C441 C 0.76935 0.8665 0.82165 0.0
C442 C 0.63222 0.90252 0.72566 0.0
C443 C 0.78109 0.52415 0.79916 0.0
H444 H 0.41532 0.28091 0.97033 0.0
H445 H 0.86294 0.47816 0.07116 0.0
H446 H 0.44356 0.53026 0.02494 0.0
H447 H 0.36932 0.51825 0.00949 0.0
H448 H 0.33895 0.37701 0.03091 0.0
H449 H 0.41329 0.3901 0.04669 0.0
H450 H 0.48531 0.45041 0.00703 0.0
H451 H 0.45419 0.39024 0.9884 0.0
H452 H 0.49148 0.26806 0.01747 0.0
H453 H 0.51961 0.32871 0.03637 0.0
H454 H 0.59742 0.46702 0.01098 0.0
H455 H 0.65998 0.4332 0.99415 0.0
H456 H 0.69134 0.3142 0.02502 0.0
H457 H 0.62815 0.34931 0.04203 0.0
H458 H 0.64905 0.54213 0.03769 0.0
H459 H 0.73838 0.55811 0.04258 0.0
H460 H 0.74331 0.42602 0.06997 0.0
H461 H 0.65376 0.41089 0.06511 0.0
H462 H 0.57068 0.59812 0.05462 0.0
H463 H 0.63399 0.6478 0.06816 0.0
H464 H 0.65755 0.52262 0.09745 0.0
H465 H 0.59272 0.47506 0.08437 0.0
H466 H 0.44911 0.57713 0.04722 0.0
H467 H 0.37779 0.61089 0.06073 0.0
H468 H 0.40744 0.50798 0.09646 0.0
H469 H 0.47559 0.47123 0.08201 0.0
O470 O 0.42801 0.30412 0.97782 0.0
O471 O 0.4564 0.24266 0.99199 0.0
O472 O 0.82308 0.5401 0.05479 0.0
O473 O 0.82782 0.47226 0.06885 0.0
C474 C 0.48638 0.46133 0.04252 0.0
C475 C 0.52089 0.43047 0.03482 0.0
C476 C 0.57258 0.43452 0.0379 0.0
C477 C 0.59012 0.46817 0.04892 0.0
C478 C 0.55575 0.49727 0.05727 0.0
C479 C 0.50362 0.49391 0.05407 0.0
C480 C 0.43339 0.4617 0.03723 0.0
C481 C 0.41921 0.49831 0.027 0.0
C482 C 0.377 0.49095 0.01799 0.0
C483 C 0.34851 0.44638 0.01885 0.0
C484 C 0.3605 0.41149 0.02988 0.0
C485 C 0.40247 0.41925 0.03906 0.0
C486 C 0.50337 0.39403 0.02322 0.0
C487 C 0.48571 0.4107 0.00949 0.0
C488 C 0.46833 0.37621 0.99881 0.0
C489 C 0.46971 0.32432 0.00153 0.0
C490 C 0.48909 0.30773 0.01512 0.0
C491 C 0.5054 0.3423 0.02591 0.0
C492 C 0.60873 0.41075 0.02768 0.0
C493 C 0.61737 0.4333 0.01402 0.0
C494 C 0.65276 0.41351 0.00436 0.0
C495 C 0.68028 0.37065 0.00819 0.0
C496 C 0.67074 0.34731 0.02181 0.0
C497 C 0.63492 0.36724 0.03151 0.0
C498 C 0.64511 0.47546 0.05108 0.0
C499 C 0.66963 0.51657 0.04467 0.0
C500 C 0.72059 0.52563 0.0475 0.0
C501 C 0.74796 0.49341 0.05672 0.0
C502 C 0.72335 0.45161 0.06286 0.0
C503 C 0.67231 0.44273 0.06006 0.0
C504 C 0.57676 0.53299 0.06854 0.0
C505 C 0.58763 0.58262 0.06447 0.0
C506 C 0.62492 0.61048 0.07202 0.0
C507 C 0.65222 0.58909 0.08375 0.0
C508 C 0.63752 0.54101 0.08862 0.0
C509 C 0.5999 0.51359 0.0812 0.0
C510 C 0.46666 0.52082 0.06344 0.0
C511 C 0.43979 0.56157 0.05789 0.0
C512 C 0.39932 0.58137 0.06581 0.0
C513 C 0.38584 0.56191 0.07972 0.0
C514 C 0.41524 0.52305 0.08562 0.0
C515 C 0.4549 0.50245 0.07749 0.0
C516 C 0.45108 0.28777 0.9902 0.0
C517 C 0.80185 0.50347 0.06001 0.0
H518 H 0.97861 0.35684 0.61656 0.0
H519 H 0.34563 0.63836 0.51215 0.0
H520 H 0.95161 0.41951 0.53446 0.0
H521 H 0.87413 0.3856 0.54493 0.0
H522 H 0.83289 0.53463 0.55976 0.0
H523 H 0.91016 0.56852 0.54871 0.0
H524 H 0.04537 0.41242 0.55725 0.0
H525 H 0.02374 0.37556 0.58114 0.0
H526 H 0.95891 0.51681 0.59514 0.0
H527 H 0.98117 0.55326 0.57124 0.0
H528 H 0.15 0.4477 0.5439 0.0
H529 H 0.21904 0.43706 0.56151 0.0
H530 H 0.16481 0.56319 0.5873 0.0
H531 H 0.09574 0.57359 0.56952 0.0
H532 H 0.15244 0.47697 0.51395 0.0
H533 H 0.23757 0.49784 0.50573 0.0
H534 H 0.229 0.64038 0.52907 0.0
H535 H 0.1436 0.61916 0.53708 0.0
H536 H 0.05977 0.47711 0.49646 0.0
H537 H 0.11324 0.4899 0.47475 0.0
H538 H 0.12972 0.64674 0.48674 0.0
H539 H 0.077 0.63346 0.50851 0.0
H540 H 0.93324 0.46975 0.5086 0.0
H541 H 0.86371 0.49334 0.49223 0.0
H542 H 0.90653 0.64954 0.49718 0.0
H543 H 0.97493 0.62586 0.51382 0.0
O544 O 0.98716 0.37228 0.60724 0.0
O545 O 0.95437 0.44572 0.61392 0.0
O546 O 0.31424 0.55561 0.50333 0.0
O547 O 0.3124 0.62876 0.51548 0.0
C548 C 0.988 0.51383 0.5373 0.0
C549 C 0.02676 0.50702 0.5479 0.0
C550 C 0.0771 0.51875 0.54434 0.0
C551 C 0.08884 0.53562 0.53002 0.0
C552 C 0.05021 0.54225 0.51941 0.0
C553 C 0.99952 0.53296 0.52315 0.0
C554 C 0.93641 0.49637 0.54086 0.0
C555 C 0.92504 0.44504 0.53954 0.0
C556 C 0.88096 0.42574 0.54563 0.0
C557 C 0.84775 0.45731 0.55339 0.0
C558 C 0.85751 0.50939 0.55377 0.0
C559 C 0.90163 0.52881 0.54752 0.0
C560 C 0.01476 0.48541 0.56256 0.0
C561 C 0.02673 0.43535 0.56554 0.0
C562 C 0.01421 0.41439 0.57917 0.0
C563 C 0.9895 0.44321 0.59004 0.0
C564 C 0.97787 0.49356 0.58701 0.0
C565 C 0.99048 0.51447 0.57338 0.0
C566 C 0.118 0.51156 0.55539 0.0
C567 C 0.15321 0.47319 0.55331 0.0
C568 C 0.19278 0.46738 0.56334 0.0
C569 C 0.19775 0.49959 0.57575 0.0
C570 C 0.16195 0.53765 0.5779 0.0
C571 C 0.1225 0.54365 0.56777 0.0
C572 C 0.1419 0.54669 0.52604 0.0
C573 C 0.16912 0.51259 0.51731 0.0
C574 C 0.2177 0.52463 0.51263 0.0
C575 C 0.24 0.57093 0.51668 0.0
C576 C 0.2129 0.6045 0.52571 0.0
C577 C 0.16424 0.59243 0.53036 0.0
C578 C 0.06468 0.55436 0.50403 0.0
C579 C 0.07294 0.5147 0.49398 0.0
C580 C 0.10389 0.5219 0.48171 0.0
C581 C 0.12602 0.56911 0.47921 0.0
C582 C 0.11289 0.61003 0.48836 0.0
C583 C 0.08256 0.60263 0.50076 0.0
C584 C 0.95881 0.54611 0.51258 0.0
C585 C 0.92736 0.50905 0.50624 0.0
C586 C 0.88782 0.52257 0.49686 0.0
C587 C 0.87967 0.57331 0.49344 0.0
C588 C 0.91216 0.61013 0.49948 0.0
C589 C 0.95114 0.59666 0.50902 0.0
C590 C 0.97588 0.42069 0.60446 0.0
C591 C 0.29112 0.58442 0.51142 0.0
Fe592 Fe 0.05842 0.78965 0.18048 0.0
O593 O 0.09257 0.82411 0.16386 0.0
Fe594 Fe 0.93653 0.77253 0.16914 0.0
Fe595 Fe 0.16554 0.81631 0.16134 0.0
O596 O 0.00831 0.76824 0.16534 0.0
O597 O 0.00821 0.76724 0.16397 0.0
O598 O 0.09182 0.82436 0.16238 0.0
Fe599 Fe 0.04271 0.79989 0.14684 0.0
C600 C 0.14791 0.85231 0.19264 0.0
O601 O 0.09644 0.7254 0.17597 0.0
O602 O 0.17312 0.757 0.17638 0.0
O603 O 0.98454 0.76879 0.13309 0.0
O604 O 0.93012 0.73111 0.1498 0.0
O605 O 0.95207 0.71392 0.18326 0.0
O606 O 0.01857 0.74877 0.19615 0.0
O607 O 0.16215 0.76535 0.14421 0.0
O608 O 0.08342 0.73518 0.14282 0.0
C609 C 0.98457 0.71414 0.19405 0.0
O610 O 1.00107 0.86452 0.14945 0.0
O611 O 0.92546 0.83479 0.15631 0.0
O612 O 0.11437 0.81739 0.19476 0.0
O613 O 0.16737 0.86264 0.17984 0.0
C614 C 0.14252 0.72101 0.17896 0.0
C615 C 0.1302 0.73252 0.13992 0.0
C616 C 0.12757 0.86786 0.13324 0.0
O617 O 0.15569 0.86976 0.1451 0.0
O618 O 0.08798 0.83876 0.13124 0.0
C619 C 0.94695 0.73886 0.1365 0.0
O620 O 0.94396 0.8194 0.18769 0.0
O621 O 0.01971 0.85363 0.18536 0.0
C622 C 0.9536 0.86911 0.15097 0.0
C623 C 0.97619 0.85347 0.19104 0.0
Fe624 Fe 0.49915 0.77806 0.44549 0.0
O625 O 0.49246 0.77652 0.4239 0.0
Fe626 Fe 0.52388 0.83356 0.41098 0.0
Fe627 Fe 0.51525 0.71762 0.41194 0.0
O628 O 0.49133 0.78153 0.4237 0.0
O629 O 0.54674 0.7743 0.39897 0.0
O630 O 0.54761 0.76923 0.39914 0.0
Fe631 Fe 0.53923 0.76886 0.3774 0.0
C632 C 0.58193 0.70473 0.43806 0.0
O633 O 0.4409 0.72737 0.44357 0.0
O634 O 0.47443 0.67136 0.42655 0.0
O635 O 0.48926 0.82736 0.37598 0.0
O636 O 0.45886 0.8417 0.39857 0.0
O637 O 0.49411 0.88876 0.42536 0.0
O638 O 0.4579 0.84302 0.44429 0.0
O639 O 0.45025 0.7211 0.39993 0.0
O640 O 0.48033 0.71734 0.37709 0.0
C641 C 0.46428 0.88365 0.43671 0.0
O642 O 0.59374 0.8244 0.37831 0.0
O643 O 0.56319 0.87947 0.39611 0.0
O644 O 0.54511 0.71597 0.44638 0.0
O645 O 0.58053 0.71238 0.42421 0.0
C646 C 0.44083 0.68499 0.43628 0.0
C647 C 0.44645 0.70701 0.38653 0.0
C648 C 0.57563 0.66549 0.38645 0.0
O649 O 0.54498 0.66176 0.39767 0.0
O650 O 0.58436 0.70653 0.37918 0.0
C651 C 0.4575 0.84797 0.38459 0.0
O652 O 0.58926 0.83011 0.42301 0.0
O653 O 0.56284 0.82292 0.4464 0.0
C654 C 0.59294 0.86778 0.38513 0.0
C655 C 0.59699 0.8319 0.4369 0.0
Fe656 Fe 0.52435 0.26723 0.67994 0.0
O657 O 0.5706 0.26846 0.66269 0.0
Fe658 Fe 0.40664 0.25138 0.66225 0.0
Fe659 Fe 0.64068 0.28636 0.66238 0.0
O660 O 0.4765 0.2719 0.66301 0.0
O661 O 0.47892 0.25525 0.66065 0.0
O662 O 0.56777 0.2864 0.66084 0.0
Fe663 Fe 0.52264 0.27277 0.64349 0.0
C664 C 0.58557 0.36736 0.6812 0.0
O665 O 0.57843 0.25402 0.69558 0.0
O666 O 0.6468 0.24256 0.68132 0.0
O667 O 0.47226 0.24727 0.62764 0.0
O668 O 0.41094 0.2135 0.64202 0.0
O669 O 0.4226 0.18573 0.67352 0.0
O670 O 0.50675 0.19068 0.67908 0.0
O671 O 0.64458 0.22304 0.64897 0.0
O672 O 0.56324 0.20501 0.64171 0.0
C673 C 0.46446 0.16653 0.67806 0.0
O674 O 0.48072 0.34022 0.64352 0.0
O675 O 0.40052 0.31757 0.65068 0.0
O676 O 0.54292 0.34357 0.68185 0.0
O677 O 0.62661 0.3492 0.67561 0.0
C678 C 0.6229 0.23755 0.69356 0.0
C679 C 0.61095 0.19508 0.64245 0.0
C680 C 0.61508 0.32419 0.63053 0.0
O681 O 0.63679 0.32841 0.64326 0.0
O682 O 0.57309 0.30093 0.62818 0.0
C683 C 0.43301 0.21959 0.6295 0.0
O684 O 0.40096 0.29015 0.68249 0.0
O685 O 0.47083 0.27512 0.69596 0.0
C686 C 0.43264 0.34828 0.64481 0.0
C687 C 0.42624 0.29223 0.69466 0.0
Fe688 Fe 0.04193 0.28336 0.93004 0.0
O689 O 0.06561 0.23675 0.91427 0.0
Fe690 Fe 0.02785 0.39677 0.91354 0.0
Fe691 Fe 0.05174 0.16451 0.91565 0.0
O692 O 0.01723 0.32426 0.91331 0.0
O693 O 0.01609 0.32368 0.91182 0.0
O694 O 0.06569 0.23668 0.91278 0.0
Fe695 Fe 0.04176 0.27815 0.89571 0.0
C696 C 0.10419 0.19861 0.94391 0.0
O697 O 0.97346 0.24912 0.93045 0.0
O698 O 0.99744 0.17034 0.93244 0.0
O699 O 0.01271 0.3307 0.88029 0.0
O700 O 0.98137 0.39523 0.89512 0.0
O701 O 0.97325 0.39299 0.92969 0.0
O702 O 0.01161 0.33583 0.94472 0.0
O703 O 0.99503 0.1621 0.90039 0.0
O704 O 0.97328 0.24078 0.89469 0.0
C705 C 0.97627 0.36767 0.94188 0.0
O706 O 0.10996 0.31605 0.89503 0.0
O707 O 0.08603 0.39603 0.89879 0.0
O708 O 0.07297 0.23546 0.94591 0.0
O709 O 0.10503 0.17017 0.93214 0.0
C710 C 0.96499 0.20473 0.93455 0.0
C711 C 0.96492 0.19352 0.89479 0.0
C712 C 0.0978 0.18082 0.88478 0.0
O713 O 0.09976 0.16009 0.89777 0.0
O714 O 0.07285 0.22167 0.88152 0.0
C715 C 0.98659 0.37176 0.88249 0.0
O716 O 0.07985 0.39664 0.93091 0.0
O717 O 0.10985 0.31952 0.92999 0.0
C718 C 0.11717 0.36343 0.89411 0.0
C719 C 0.11356 0.36488 0.93429 0.0
H720 H 0.17611 0.95303 0.46329 0.0
H721 H 0.47 0.9485 0.4602 0.0
H722 H 0.26589 0.04799 0.49215 0.0
H723 H 0.37701 0.90451 0.42309 0.0
H724 H 0.39789 0.99179 0.47127 0.0
H725 H 0.24991 0.93889 0.44772 0.0
C726 C 0.2114 0.97118 0.46625 0.0
C727 C 0.21518 0.00135 0.47904 0.0
C728 C 0.39369 0.97431 0.46044 0.0
C729 C 0.2999 0.98512 0.46141 0.0
C730 C 0.43497 0.95014 0.45407 0.0
C731 C 0.42953 0.92423 0.44055 0.0
C732 C 0.34648 0.97087 0.45343 0.0
C733 C 0.38298 0.92556 0.43328 0.0
C734 C 0.25342 0.96345 0.45733 0.0
C735 C 0.26157 0.02445 0.48235 0.0
N736 N 0.34295 0.9476 0.43994 0.0
N737 N 0.30243 0.01517 0.47373 0.0
H738 H 0.48292 0.9312 0.73965 0.0
H739 H 0.39226 0.0943 0.67295 0.0
H740 H 0.36513 0.88266 0.70957 0.0
H741 H 0.53451 0.1196 0.69519 0.0
H742 H 0.38609 0.01231 0.68462 0.0
H743 H 0.5082 0.99496 0.72195 0.0
C744 C 0.46303 0.93319 0.72918 0.0
C745 C 0.42114 0.90225 0.72622 0.0
C746 C 0.41904 0.03547 0.68676 0.0
C747 C 0.44912 0.97594 0.70608 0.0
C748 C 0.42245 0.08241 0.68015 0.0
C749 C 0.46347 0.11425 0.68331 0.0
C750 C 0.45649 0.02067 0.69677 0.0
C751 C 0.5019 0.09653 0.69255 0.0
C752 C 0.47734 0.96982 0.7191 0.0
C753 C 0.39669 0.90677 0.7125 0.0
N754 N 0.49703 0.05126 0.69916 0.0
N755 N 0.41046 0.94359 0.70304 0.0
H756 H 0.3922 0.13406 0.98175 0.0
H757 H 0.1193 0.24849 0.9706 0.0
H758 H 0.30952 0.1978 0.01845 0.0
H759 H 0.18179 0.13208 0.94257 0.0
H760 H 0.19164 0.24026 0.98733 0.0
H761 H 0.31868 0.1445 0.96598 0.0
C762 C 0.35855 0.14998 0.98655 0.0
C763 C 0.35698 0.16423 0.00156 0.0
C764 C 0.189 0.21631 0.97757 0.0
C765 C 0.27275 0.1773 0.98338 0.0
C766 C 0.14771 0.22081 0.96804 0.0
C767 C 0.14419 0.19086 0.95513 0.0
C768 C 0.22722 0.18213 0.97405 0.0
C769 C 0.18254 0.156 0.95235 0.0
C770 C 0.31662 0.15614 0.97749 0.0
C771 C 0.31267 0.1864 0.00695 0.0
N772 N 0.2225 0.15293 0.96165 0.0
N773 N 0.27223 0.1922 0.99787 0.0
H774 H 0.27154 0.08743 0.24845 0.0
H775 H 0.10763 0.85198 0.22055 0.0
H776 H 0.15161 0.02136 0.27401 0.0
H777 H 0.22293 0.92366 0.1944 0.0
H778 H 0.12884 0.90796 0.24123 0.0
H779 H 0.26035 0.02161 0.22976 0.0
C780 C 0.24344 0.05852 0.25029 0.0
C781 C 0.21255 0.05989 0.26287 0.0
C782 C 0.14978 0.91115 0.23102 0.0
C783 C 0.19868 0.98493 0.24125 0.0
C784 C 0.13782 0.87907 0.21918 0.0
C785 C 0.16339 0.88319 0.20564 0.0
C786 C 0.18767 0.9476 0.22935 0.0
C787 C 0.20197 0.91924 0.20457 0.0
C788 C 0.23675 0.02116 0.23951 0.0
C789 C 0.17594 0.02205 0.26442 0.0
N790 N 0.21275 0.95018 0.21624 0.0
N791 N 0.16984 0.98624 0.25369 0.0
H792 H 0.26392 0.17215 0.54901 0.0
H793 H 0.38078 0.13148 0.62911 0.0
H794 H 0.23649 0.04119 0.57564 0.0
H795 H 0.4313 0.25018 0.6005 0.0
H796 H 0.33234 0.09522 0.60866 0.0
H797 H 0.32921 0.19935 0.56668 0.0
C798 C 0.27195 0.14887 0.55847 0.0
C799 C 0.24448 0.10439 0.56085 0.0
C800 C 0.35439 0.12888 0.60674 0.0
C801 C 0.319 0.13527 0.58108 0.0
C802 C 0.38203 0.14965 0.61844 0.0
C803 C 0.40972 0.19414 0.61652 0.0
C804 C 0.35357 0.15315 0.59302 0.0
C805 C 0.41043 0.21579 0.60242 0.0
C806 C 0.30938 0.16429 0.56851 0.0
C807 C 0.25693 0.07543 0.57322 0.0
N808 N 0.38205 0.1955 0.59123 0.0
N809 N 0.2928 0.09163 0.58291 0.0
H810 H 0.25546 0.92561 0.85408 0.0
H811 H 0.06299 0.15377 0.85696 0.0
H812 H 0.15749 0.95741 0.81718 0.0
H813 H 0.18931 0.13775 0.8865 0.0
H814 H 0.09625 0.08466 0.8415 0.0
H815 H 0.22946 0.00359 0.86596 0.0
C816 C 0.22862 0.94899 0.8484 0.0
C817 C 0.20891 0.93451 0.83452 0.0
C818 C 0.11719 0.09709 0.8512 0.0
C819 C 0.17815 0.02454 0.84831 0.0
C820 C 0.09858 0.13699 0.85989 0.0
C821 C 0.12351 0.15155 0.87301 0.0
C822 C 0.16066 0.07158 0.85579 0.0
C823 C 0.16885 0.12766 0.87649 0.0
C824 C 0.21367 0.99373 0.85523 0.0
C825 C 0.17326 0.96636 0.82796 0.0
N826 N 0.18551 0.08863 0.86808 0.0
N827 N 0.15892 0.00971 0.83493 0.0
H828 H 0.34562 0.94461 0.0697 0.0
H829 H 0.14796 0.96794 0.13354 0.0
H830 H 0.28983 0.08923 0.08405 0.0
H831 H 0.15352 0.83627 0.10541 0.0
H832 H 0.19887 0.01374 0.11551 0.0
H833 H 0.27582 0.90419 0.08244 0.0
C834 C 0.31843 0.96818 0.07526 0.0
C835 C 0.32441 0.0208 0.07579 0.0
C836 C 0.188 0.97521 0.11308 0.0
C837 C 0.24465 0.97396 0.09086 0.0
C838 C 0.15873 0.94919 0.12332 0.0
C839 C 0.1461 0.89852 0.12084 0.0
C840 C 0.20624 0.94987 0.10049 0.0
C841 C 0.16183 0.87555 0.1076 0.0
C842 C 0.27855 0.94482 0.08263 0.0
C843 C 0.28799 0.04863 0.08357 0.0
N844 N 0.19197 0.90109 0.09804 0.0
N845 N 0.25024 0.0249 0.09095 0.0
H846 H 0.35559 0.06766 0.32319 0.0
H847 H 0.40217 0.92234 0.39855 0.0
H848 H 0.27666 0.10837 0.36315 0.0
H849 H 0.43562 0.86081 0.35531 0.0
H850 H 0.35698 0.99135 0.38665 0.0
H851 H 0.38823 0.99355 0.33551 0.0
C852 C 0.34523 0.06102 0.3346 0.0
C853 C 0.31361 0.09448 0.34217 0.0
C854 C 0.37363 0.96226 0.37981 0.0
C855 C 0.35099 0.00924 0.35645 0.0
C856 C 0.3991 0.9226 0.38661 0.0
C857 C 0.42288 0.88549 0.37798 0.0
C858 C 0.37251 0.96518 0.36427 0.0
C859 C 0.41834 0.88855 0.36249 0.0
C860 C 0.3636 0.01845 0.34161 0.0
C861 C 0.30086 0.08348 0.3569 0.0
N862 N 0.39432 0.9278 0.35618 0.0
N863 N 0.32 0.04207 0.36362 0.0
H864 H 0.81249 0.99824 0.59395 0.0
H865 H 0.57993 0.16968 0.61466 0.0
H866 H 0.77454 0.13314 0.57016 0.0
H867 H 0.68852 0.13114 0.64817 0.0
H868 H 0.62983 0.12379 0.59624 0.0
H869 H 0.74739 0.0188 0.61207 0.0
C870 C 0.79079 0.03196 0.59239 0.0
C871 C 0.80015 0.06417 0.58039 0.0
C872 C 0.64164 0.12405 0.60774 0.0
C873 C 0.72348 0.08565 0.60071 0.0
C874 C 0.61303 0.14968 0.61828 0.0
C875 C 0.63041 0.15435 0.63292 0.0
C876 C 0.68711 0.10209 0.61199 0.0
C877 C 0.67409 0.1285 0.63696 0.0
C878 C 0.75317 0.04309 0.60268 0.0
C879 C 0.76887 0.10629 0.57889 0.0
N880 N 0.70136 0.10376 0.62649 0.0
N881 N 0.73203 0.11567 0.58889 0.0
H882 H 0.76025 0.14241 0.36643 0.0
H883 H 0.65712 0.8602 0.36166 0.0
H884 H 0.76746 0.04761 0.32742 0.0
H885 H 0.60758 0.96484 0.39549 0.0
H886 H 0.70942 0.9257 0.35125 0.0
H887 H 0.71493 0.07492 0.37932 0.0
C888 C 0.75249 0.10729 0.36065 0.0
C889 C 0.76708 0.10046 0.34584 0.0
C890 C 0.68718 0.93439 0.36096 0.0
C891 C 0.71608 0.02369 0.36041 0.0
C892 C 0.65724 0.8969 0.36698 0.0
C893 C 0.62722 0.90703 0.37941 0.0
C894 C 0.68748 0.98257 0.3674 0.0
C895 C 0.62967 0.9554 0.38582 0.0
C896 C 0.72657 0.06905 0.36795 0.0
C897 C 0.75619 0.05452 0.33877 0.0
N898 N 0.65918 0.99156 0.37969 0.0
N899 N 0.7314 0.01789 0.34612 0.0
H900 H 0.82054 0.0388 0.08272 0.0
H901 H 0.86584 0.91168 0.15998 0.0
H902 H 0.72226 0.06158 0.12006 0.0
H903 H 0.98296 0.9256 0.1273 0.0
H904 H 0.81566 0.97226 0.14638 0.0
H905 H 0.88311 0.00235 0.09928 0.0
C906 C 0.81242 0.03657 0.09444 0.0
C907 C 0.76601 0.05272 0.10002 0.0
C908 C 0.8527 0.96286 0.14231 0.0
C909 C 0.83719 0.01085 0.11901 0.0
C910 C 0.88137 0.92827 0.15007 0.0
C911 C 0.92838 0.91325 0.14466 0.0
C912 C 0.87068 0.98181 0.12886 0.0
C913 C 0.94686 0.93614 0.13184 0.0
C914 C 0.84822 0.01605 0.1039 0.0
C915 C 0.7576 0.04961 0.11532 0.0
N916 N 0.91751 0.96856 0.12419 0.0
N917 N 0.79251 0.02831 0.12425 0.0
H918 H 0.85761 0.02941 0.82078 0.0
H919 H 0.89838 0.12305 0.90383 0.0
H920 H 0.81178 0.94576 0.85917 0.0
H921 H 0.94016 0.21105 0.86601 0.0
H922 H 0.85148 0.06563 0.88754 0.0
H923 H 0.87659 0.10179 0.83684 0.0
C924 C 0.85161 0.02622 0.83259 0.0
C925 C 0.83377 0.98113 0.83866 0.0
C926 C 0.86975 0.09813 0.88278 0.0
C927 C 0.8546 0.06421 0.85709 0.0
C928 C 0.89599 0.13121 0.89211 0.0
C929 C 0.92298 0.17166 0.8862 0.0
C930 C 0.87156 0.10494 0.86738 0.0
C931 C 0.91937 0.18044 0.87096 0.0
C932 C 0.86191 0.06777 0.84174 0.0
C933 C 0.82542 0.97968 0.85399 0.0
N934 N 0.89508 0.14661 0.862 0.0
N935 N 0.83636 0.02039 0.86267 0.0
H936 H 0.86158 0.989 0.46581 0.0
H937 H 0.64783 0.78975 0.45983 0.0
H938 H 0.8968 0.83261 0.47287 0.0
H939 H 0.66228 0.90123 0.42579 0.0
H940 H 0.73367 0.8103 0.46827 0.0
H941 H 0.78356 0.96307 0.45381 0.0
C942 C 0.85395 0.94919 0.46459 0.0
C943 C 0.88665 0.9131 0.47049 0.0
C944 C 0.71794 0.83002 0.45892 0.0
C945 C 0.79531 0.88369 0.45734 0.0
C946 C 0.66903 0.81874 0.45422 0.0
C947 C 0.6481 0.84422 0.4422 0.0
C948 C 0.74526 0.86803 0.45183 0.0
C949 C 0.67721 0.88091 0.43513 0.0
C950 C 0.80885 0.93458 0.45785 0.0
C951 C 0.87273 0.86211 0.46888 0.0
N952 N 0.72415 0.89236 0.4402 0.0
N953 N 0.8277 0.84898 0.46271 0.0
H954 H 0.00328 0.07285 0.26247 0.0
H955 H 0.88767 0.86671 0.20617 0.0
H956 H 0.84809 0.02434 0.26309 0.0
H957 H 0.04031 0.92269 0.20389 0.0
H958 H 0.87289 0.92266 0.22736 0.0
H959 H 0.01857 0.01502 0.24176 0.0
C960 C 0.97258 0.04942 0.25841 0.0
C961 C 0.92433 0.05334 0.26458 0.0
C962 C 0.90957 0.9228 0.22219 0.0
C963 C 0.94135 0.98764 0.24063 0.0
C964 C 0.918 0.89094 0.21005 0.0
C965 C 0.96529 0.8899 0.20318 0.0
C966 C 0.94873 0.95379 0.2276 0.0
C967 C 0.00317 0.92218 0.20876 0.0
C968 C 0.98122 0.01677 0.24647 0.0
C969 C 0.88578 0.02279 0.25862 0.0
N970 N 0.9941 0.9526 0.22065 0.0
N971 N 0.8951 0.99133 0.24699 0.0
H972 H 0.68144 0.24642 0.98 0.0
H973 H 0.93458 0.11916 0.94936 0.0
H974 H 0.72989 0.09822 0.9923 0.0
H975 H 0.8873 0.26956 0.93897 0.0
H976 H 0.85808 0.10869 0.96424 0.0
H977 H 0.75553 0.254 0.96416 0.0
C978 C 0.70751 0.21544 0.97936 0.0
C979 C 0.69887 0.1714 0.98741 0.0
C980 C 0.86452 0.1439 0.95865 0.0
C981 C 0.78419 0.1799 0.96928 0.0
C982 C 0.90812 0.1498 0.95011 0.0
C983 C 0.91772 0.19531 0.94291 0.0
C984 C 0.83023 0.18377 0.95997 0.0
C985 C 0.88193 0.2338 0.94435 0.0
C986 C 0.74984 0.21974 0.97029 0.0
C987 C 0.73414 0.13243 0.98606 0.0
N988 N 0.84011 0.22719 0.9527 0.0
N989 N 0.77514 0.13762 0.97721 0.0
H990 H 0.67984 0.07209 0.77428 0.0
H991 H 0.70894 0.18122 0.69235 0.0
H992 H 0.7722 0.00465 0.7403 0.0
H993 H 0.58972 0.22474 0.72212 0.0
H994 H 0.74177 0.12571 0.71136 0.0
H995 H 0.65506 0.13685 0.75672 0.0
C996 C 0.6952 0.07094 0.76319 0.0
C997 C 0.7283 0.0326 0.75884 0.0
C998 C 0.70861 0.14768 0.71377 0.0
C999 C 0.70038 0.10714 0.73871 0.0
C1000 C 0.68992 0.17964 0.70293 0.0
C1001 C 0.64623 0.20767 0.70555 0.0
C1002 C 0.68375 0.14377 0.72742 0.0
C1003 C 0.62331 0.20374 0.71952 0.0
C1004 C 0.68111 0.10807 0.75318 0.0
C1005 C 0.7474 0.03375 0.74433 0.0
N1006 N 0.64222 0.17228 0.72989 0.0
N1007 N 0.73307 0.07019 0.73482 0.0
H1008 H 0.77489 0.34109 0.01632 0.0
H1009 H 0.88183 0.40326 0.93681 0.0
H1010 H 0.68097 0.36433 0.97795 0.0
H1011 H 0.97279 0.33286 0.97031 0.0
H1012 H 0.80844 0.39305 0.95258 0.0
H1013 H 0.84813 0.33572 9e-05 0.0
C1014 C 0.76945 0.34385 0.00446 0.0
C1015 C 0.72198 0.35449 0.99849 0.0
C1016 C 0.8445 0.3799 0.95649 0.0
C1017 C 0.80555 0.35019 0.98001 0.0
C1018 C 0.8866 0.38646 0.94758 0.0
C1019 C 0.93364 0.36922 0.95227 0.0
C1020 C 0.8495 0.35649 0.97026 0.0
C1021 C 0.93727 0.34689 0.96627 0.0
C1022 C 0.81135 0.34133 0.99522 0.0
C1023 C 0.71718 0.35777 0.98305 0.0
N1024 N 0.89571 0.34127 0.9748 0.0
N1025 N 0.75861 0.3567 0.97437 0.0
H1026 H 0.9456 0.42108 0.23183 0.0
H1027 H 0.04508 0.7005 0.21834 0.0
H1028 H 0.03062 0.50576 0.26452 0.0
H1029 H 0.92878 0.62719 0.19219 0.0
H1030 H 0.05142 0.62534 0.23342 0.0
H1031 H 0.95298 0.4914 0.21486 0.0
C1032 C 0.96633 0.45436 0.23535 0.0
C1033 C 0.98667 0.45813 0.24968 0.0
C1034 C 0.02438 0.62592 0.22442 0.0
C1035 C 0.99501 0.5387 0.23039 0.0
C1036 C 0.02046 0.66889 0.21583 0.0
C1037 C 0.98582 0.67053 0.20404 0.0
C1038 C 0.99365 0.58418 0.22118 0.0
C1039 C 0.95559 0.62801 0.20124 0.0
C1040 C 0.9704 0.49448 0.22569 0.0
C1041 C 0.01418 0.50151 0.25359 0.0
N1042 N 0.96024 0.5866 0.20975 0.0
N1043 N 0.01703 0.54052 0.24404 0.0
H1044 H 0.78215 0.54085 0.49528 0.0
H1045 H 0.67972 0.70649 0.42834 0.0
H1046 H 0.87839 0.64002 0.47046 0.0
H1047 H 0.58574 0.65045 0.46343 0.0
H1048 H 0.75349 0.6716 0.44095 0.0
H1049 H 0.71007 0.56938 0.48081 0.0
C1050 C 0.78818 0.56821 0.48667 0.0
C1051 C 0.8363 0.58818 0.48409 0.0
C1052 C 0.71662 0.66677 0.44581 0.0
C1053 C 0.75395 0.62113 0.46752 0.0
C1054 C 0.67456 0.68634 0.43858 0.0
C1055 C 0.62658 0.68131 0.44485 0.0
C1056 C 0.7104 0.64124 0.45923 0.0
C1057 C 0.62206 0.65539 0.45824 0.0
C1058 C 0.747 0.58475 0.47849 0.0
C1059 C 0.84182 0.62403 0.4729 0.0
N1060 N 0.66334 0.63621 0.46494 0.0
N1061 N 0.80115 0.63934 0.465 0.0
H1062 H 0.5917 0.5904 0.74894 0.0
H1063 H 0.65393 0.44212 0.67575 0.0
H1064 H 0.68331 0.65402 0.71435 0.0
H1065 H 0.52319 0.40769 0.70214 0.0
H1066 H 0.66336 0.52167 0.68925 0.0
H1067 H 0.56277 0.52554 0.73157 0.0
C1068 C 0.60506 0.59139 0.73763 0.0
C1069 C 0.64079 0.62724 0.73319 0.0
C1070 C 0.63216 0.49705 0.69193 0.0
C1071 C 0.60859 0.55236 0.71336 0.0
C1072 C 0.62694 0.45152 0.68429 0.0
C1073 C 0.58815 0.41799 0.68797 0.0
C1074 C 0.59894 0.50862 0.70351 0.0
C1075 C 0.55382 0.43235 0.69899 0.0
C1076 C 0.58865 0.55414 0.72773 0.0
C1077 C 0.65695 0.62623 0.71839 0.0
N1078 N 0.56053 0.47628 0.70656 0.0
N1079 N 0.64136 0.58887 0.70907 0.0
H1080 H 0.72186 0.65043 0.06977 0.0
H1081 H 0.91511 0.64254 0.13681 0.0
H1082 H 0.68882 0.58552 0.11234 0.0
H1083 H 0.90848 0.77599 0.11032 0.0
H1084 H 0.84536 0.60649 0.12255 0.0
H1085 H 0.79995 0.68596 0.08022 0.0
C1086 C 0.73038 0.64399 0.08132 0.0
C1087 C 0.69813 0.61449 0.09013 0.0
C1088 C 0.85971 0.64327 0.11965 0.0
C1089 C 0.78879 0.65339 0.10184 0.0
C1090 C 0.89991 0.66366 0.12766 0.0
C1091 C 0.91751 0.71243 0.12478 0.0
C1092 C 0.83675 0.67157 0.10857 0.0
C1093 C 0.89629 0.73812 0.1128 0.0
C1094 C 0.77533 0.66396 0.08719 0.0
C1095 C 0.71247 0.60677 0.10493 0.0
N1096 N 0.85641 0.71759 0.1052 0.0
N1097 N 0.75674 0.62558 0.11022 0.0
H1098 H 0.76164 0.40049 0.37404 0.0
H1099 H 0.60302 0.64546 0.35809 0.0
H1100 H 0.70363 0.43822 0.33093 0.0
H1101 H 0.60524 0.58115 0.40173 0.0
H1102 H 0.64655 0.57211 0.34847 0.0
H1103 H 0.71068 0.46821 0.385 0.0
C1104 C 0.73792 0.42269 0.36691 0.0
C1105 C 0.73668 0.41351 0.35155 0.0
C1106 C 0.6374 0.57374 0.36014 0.0
C1107 C 0.67911 0.49105 0.36395 0.0
C1108 C 0.61276 0.61584 0.36568 0.0
C1109 C 0.60065 0.6196 0.38077 0.0
C1110 C 0.65099 0.53507 0.36975 0.0
C1111 C 0.61378 0.57965 0.39002 0.0
C1112 C 0.70877 0.46109 0.37318 0.0
C1113 C 0.70526 0.44336 0.34284 0.0
N1114 N 0.6388 0.53914 0.38439 0.0
N1115 N 0.67821 0.48095 0.34913 0.0
H1116 H 0.74978 0.4891 0.55762 0.0
H1117 H 0.71489 0.31599 0.62737 0.0
H1118 H 0.85513 0.37548 0.57091 0.0
H1119 H 0.58374 0.372 0.60489 0.0
H1120 H 0.76727 0.34584 0.60738 0.0
H1121 H 0.6882 0.45431 0.57521 0.0
C1122 C 0.75974 0.45664 0.56409 0.0
C1123 C 0.80762 0.43502 0.56273 0.0
C1124 C 0.72706 0.3516 0.6067 0.0
C1125 C 0.73799 0.39571 0.5828 0.0
C1126 C 0.69709 0.33489 0.61819 0.0
C1127 C 0.64495 0.34201 0.61785 0.0
C1128 C 0.70517 0.37647 0.59473 0.0
C1129 C 0.62388 0.36593 0.60554 0.0
C1130 C 0.72456 0.43672 0.57403 0.0
C1131 C 0.81854 0.39296 0.57135 0.0
N1132 N 0.65427 0.383 0.59447 0.0
N1133 N 0.78428 0.37512 0.58106 0.0
H1134 H 0.8022 0.58244 0.83584 0.0
H1135 H 0.03759 0.41491 0.85978 0.0
H1136 H 0.95642 0.63266 0.83211 0.0
H1137 H 0.88883 0.3955 0.8776 0.0
H1138 H 0.00607 0.48309 0.84419 0.0
H1139 H 0.8316 0.504 0.84647 0.0
C1140 C 0.84223 0.57743 0.83737 0.0
C1141 C 0.87669 0.61518 0.83329 0.0
C1142 C 0.98006 0.46301 0.85123 0.0
C1143 C 0.91072 0.52391 0.84503 0.0
C1144 C 0.99784 0.42352 0.85991 0.0
C1145 C 0.96549 0.39898 0.86976 0.0
C1146 C 0.92951 0.47775 0.85237 0.0
C1147 C 0.91472 0.41294 0.86995 0.0
C1148 C 0.85898 0.5322 0.8433 0.0
C1149 C 0.92825 0.605 0.83504 0.0
N1150 N 0.89835 0.45148 0.86146 0.0
N1151 N 0.94363 0.56053 0.8408 0.0
H1152 H 0.3217 0.51101 0.09855 0.0
H1153 H 0.13843 0.74308 0.11048 0.0
H1154 H 0.34636 0.6576 0.07958 0.0
H1155 H 0.16914 0.64044 0.14582 0.0
H1156 H 0.19559 0.69575 0.09439 0.0
H1157 H 0.24963 0.54469 0.11206 0.0
C1158 C 0.31242 0.5502 0.0972 0.0
C1159 C 0.34099 0.58141 0.08788 0.0
C1160 C 0.18869 0.68274 0.10553 0.0
C1161 C 0.25677 0.61915 0.10284 0.0
C1162 C 0.15563 0.70922 0.11461 0.0
C1163 C 0.1487 0.69492 0.12934 0.0
C1164 C 0.21483 0.64168 0.11125 0.0
C1165 C 0.17293 0.6518 0.1344 0.0
C1166 C 0.27082 0.56908 0.10482 0.0
C1167 C 0.3255 0.63151 0.08634 0.0
N1168 N 0.20538 0.62671 0.12537 0.0
N1169 N 0.28447 0.64867 0.09369 0.0
H1170 H 0.3082 0.57274 0.84618 0.0
H1171 H 0.19613 0.42391 0.9017 0.0
H1172 H 0.15318 0.56558 0.83154 0.0
H1173 H 0.12194 0.35237 0.86449 0.0
H1174 H 0.23804 0.48193 0.88467 0.0
H1175 H 0.29199 0.50094 0.86218 0.0
C1176 C 0.27072 0.55666 0.84633 0.0
C1177 C 0.23191 0.57615 0.83747 0.0
C1178 C 0.21423 0.45218 0.88019 0.0
C1179 C 0.21428 0.49239 0.85529 0.0
C1180 C 0.19076 0.4189 0.88987 0.0
C1181 C 0.15656 0.38286 0.88439 0.0
C1182 C 0.20168 0.45029 0.86508 0.0
C1183 C 0.14906 0.37898 0.86905 0.0
C1184 C 0.26187 0.51527 0.85537 0.0
C1185 C 0.1847 0.55194 0.83788 0.0
N1186 N 0.17022 0.41341 0.85994 0.0
N1187 N 0.17737 0.51125 0.84656 0.0
H1188 H 0.29682 0.47846 0.57012 0.0
H1189 H 0.35158 0.40339 0.65333 0.0
H1190 H 0.19336 0.50371 0.60611 0.0
H1191 H 0.46089 0.38894 0.6184 0.0
H1192 H 0.29954 0.45426 0.63712 0.0
H1193 H 0.36211 0.45745 0.5881 0.0
C1194 C 0.28791 0.47988 0.58181 0.0
C1195 C 0.23926 0.49217 0.58659 0.0
C1196 C 0.3354 0.44101 0.63306 0.0
C1197 C 0.31404 0.46844 0.60728 0.0
C1198 C 0.36533 0.41227 0.64237 0.0
C1199 C 0.4104 0.39159 0.63716 0.0
C1200 C 0.35015 0.44838 0.61832 0.0
C1201 C 0.42645 0.40425 0.62288 0.0
C1202 C 0.32535 0.46825 0.59208 0.0
C1203 C 0.23025 0.49449 0.6019 0.0
N1204 N 0.39579 0.4309 0.61382 0.0
N1205 N 0.26704 0.48209 0.61166 0.0
H1206 H 0.24247 0.4909 0.34502 0.0
H1207 H 0.40807 0.63614 0.40483 0.0
H1208 H 0.347 0.41264 0.37292 0.0
H1209 H 0.4013 0.68727 0.35969 0.0
H1210 H 0.35807 0.56218 0.39772 0.0
H1211 H 0.27432 0.57122 0.35502 0.0
C1212 C 0.27129 0.49068 0.35351 0.0
C1213 C 0.29243 0.44533 0.35814 0.0
C1214 C 0.36676 0.59021 0.38948 0.0
C1215 C 0.32783 0.53637 0.36976 0.0
C1216 C 0.39481 0.63262 0.39352 0.0
C1217 C 0.40877 0.6679 0.38281 0.0
C1218 C 0.35164 0.58369 0.37473 0.0
C1219 C 0.39138 0.66084 0.36825 0.0
C1220 C 0.28944 0.53634 0.35912 0.0
C1221 C 0.32987 0.44691 0.36909 0.0
N1222 N 0.3636 0.61936 0.3646 0.0
N1223 N 0.34642 0.49189 0.37459 0.0
H1224 H 0.278 0.50841 0.00656 0.0
H1225 H 0.18523 0.3039 0.94634 0.0
H1226 H 0.33424 0.35691 0.00406 0.0
H1227 H 0.12822 0.45525 0.94878 0.0
H1228 H 0.24085 0.32307 0.96722 0.0
H1229 H 0.22257 0.48963 0.9855 0.0
C1230 C 0.27842 0.47109 0.00165 0.0
C1231 C 0.31065 0.43414 0.00716 0.0
C1232 C 0.21641 0.35222 0.96314 0.0
C1233 C 0.24751 0.41242 0.98294 0.0
C1234 C 0.18471 0.34138 0.95115 0.0
C1235 C 0.15174 0.37799 0.94576 0.0
C1236 C 0.2154 0.4001 0.96985 0.0
C1237 C 0.1529 0.42581 0.95252 0.0
C1238 C 0.2468 0.46039 0.98961 0.0
C1239 C 0.30941 0.38633 0.00038 0.0
N1240 N 0.18402 0.4354 0.96423 0.0
N1241 N 0.27856 0.37694 0.98861 0.0
H1242 H 0.4115 0.50952 0.76485 0.0
H1243 H 0.33049 0.32937 0.69837 0.0
H1244 H 0.25557 0.48363 0.75331 0.0
H1245 H 0.47491 0.32103 0.72021 0.0
H1246 H 0.30136 0.38511 0.71832 0.0
H1247 H 0.43482 0.43956 0.74877 0.0
C1248 C 0.38191 0.48855 0.75923 0.0
C1249 C 0.33135 0.50293 0.76049 0.0
C1250 C 0.33919 0.37045 0.71881 0.0
C1251 C 0.3583 0.4233 0.74155 0.0
C1252 C 0.35588 0.33865 0.70742 0.0
C1253 C 0.40537 0.32055 0.70751 0.0
C1254 C 0.37242 0.38487 0.73026 0.0
C1255 C 0.43648 0.33394 0.71958 0.0
C1256 C 0.3954 0.44872 0.7499 0.0
C1257 C 0.2951 0.47471 0.75252 0.0
N1258 N 0.41971 0.3657 0.73033 0.0
N1259 N 0.30932 0.43672 0.74326 0.0
H1260 H 0.20885 0.51 0.47708 0.0
H1261 H 0.35058 0.70307 0.42431 0.0
H1262 H 0.14063 0.64106 0.45818 0.0
H1263 H 0.42798 0.59946 0.4525 0.0
H1264 H 0.2703 0.66471 0.43126 0.0
H1265 H 0.28559 0.52739 0.46306 0.0
C1266 C 0.2096 0.54168 0.46966 0.0
C1267 C 0.16846 0.57426 0.46877 0.0
C1268 C 0.3048 0.64963 0.43573 0.0
C1269 C 0.25606 0.5945 0.45285 0.0
C1270 C 0.35049 0.67127 0.4317 0.0
C1271 C 0.39544 0.65409 0.43787 0.0
C1272 C 0.30414 0.611 0.44617 0.0
C1273 C 0.39383 0.61328 0.44748 0.0
C1274 C 0.2535 0.55176 0.46177 0.0
C1275 C 0.17166 0.61523 0.45922 0.0
N1276 N 0.34865 0.59337 0.45151 0.0
N1277 N 0.21485 0.62436 0.45169 0.0
H1278 H 0.11418 0.46842 0.23689 0.0
H1279 H 0.23023 0.70591 0.19484 0.0
H1280 H 0.26701 0.51962 0.24371 0.0
H1281 H 0.08707 0.63658 0.18417 0.0
H1282 H 0.24596 0.63836 0.21257 0.0
H1283 H 0.10393 0.53158 0.21778 0.0
C1284 C 0.14555 0.49311 0.23443 0.0
C1285 C 0.19152 0.48867 0.24197 0.0
C1286 C 0.21136 0.63782 0.20621 0.0
C1287 C 0.18018 0.56112 0.2199 0.0
C1288 C 0.20253 0.67619 0.19603 0.0
C1289 C 0.15718 0.67721 0.18802 0.0
C1290 C 0.17448 0.60045 0.20844 0.0
C1291 C 0.12248 0.63776 0.19012 0.0
C1292 C 0.13981 0.529 0.22341 0.0
C1293 C 0.23107 0.52132 0.23809 0.0
N1294 N 0.13167 0.60144 0.20017 0.0
N1295 N 0.22444 0.55629 0.22738 0.0
loop_
_geom_bond_atom_site_label_1
_geom_bond_atom_site_label_2
_geom_bond_distance
_geom_bond_site_symmetry_2
_ccdc_geom_bond_type
H0 O26 0.856 . S
H1 O29 0.854 . S
H2 C37 0.930 . S
H3 C38 0.930 . S
H4 C40 0.930 1_565 S
H5 C41 0.930 1_565 S
H6 C43 0.931 . S
H7 C44 0.930 . S
H8 C46 0.930 . S
H9 C47 0.929 . S
H10 C49 0.930 . S
H11 C50 0.931 . S
H12 C52 0.930 . S
H13 C53 0.929 1_565 S
H14 C55 0.931 . S
H15 C56 0.930 . S
H16 C58 0.930 . S
H17 C59 0.932 . S
H18 C61 0.930 1_445 S
H19 C62 0.929 . S
H20 C64 0.931 . S
H21 C65 0.930 . S
H22 C67 0.929 . S
H23 C68 0.931 1_545 S
H24 C70 0.930 . S
H25 C71 0.929 . S
O26 H0 0.856 . S
O26 C72 1.300 . S
O27 C72 1.209 . S
O28 C73 1.199 . S
O29 H1 0.854 . S
O29 C73 1.297 . S
C30 C31 1.404 . S
C30 C35 1.397 . S
C30 C36 1.492 . S
C31 C30 1.404 . S
C31 C32 1.396 1_455 S
C31 C42 1.492 . S
C32 C31 1.396 1_655 S
C32 C33 1.397 . S
C32 C48 1.509 . S
C33 C32 1.397 . S
C33 C34 1.412 1_545 S
C33 C54 1.484 1_545 S
C34 C33 1.412 1_565 S
C34 C35 1.388 1_665 S
C34 C60 1.490 . S
C35 C30 1.397 . S
C35 C34 1.388 1_445 S
C35 C66 1.519 1_545 S
C36 C30 1.492 . S
C36 C37 1.363 . S
C36 C41 1.390 . S
C37 H2 0.930 . S
C37 C36 1.363 . S
C37 C38 1.372 . S
C38 H3 0.930 . S
C38 C37 1.372 . S
C38 C39 1.383 . S
C39 C38 1.383 . S
C39 C40 1.395 . S
C40 H4 0.930 1_545 S
C40 C39 1.395 . S
C40 C41 1.362 . S
C41 H5 0.930 1_545 S
C41 C36 1.390 . S
C41 C40 1.362 . S
C42 C31 1.492 . S
C42 C43 1.377 . S
C42 C47 1.397 . S
C43 H6 0.931 . S
C43 C42 1.377 . S
C43 C44 1.376 . S
C44 H7 0.930 . S
C44 C43 1.376 . S
C44 C45 1.376 . S
C45 C44 1.376 . S
C45 C46 1.378 . S
C45 C72 1.486 . S
C46 H8 0.930 . S
C46 C45 1.378 . S
C46 C47 1.376 . S
C47 H9 0.929 . S
C47 C42 1.397 . S
C47 C46 1.376 . S
C48 C32 1.509 . S
C48 C49 1.391 . S
C48 C53 1.386 . S
C49 H10 0.930 . S
C49 C48 1.391 . S
C49 C50 1.375 . S
C50 H11 0.931 . S
C50 C49 1.375 . S
C50 C51 1.375 . S
C51 C50 1.375 . S
C51 C52 1.361 . S
C52 H12 0.930 . S
C52 C51 1.361 . S
C52 C53 1.399 . S
C53 H13 0.929 1_545 S
C53 C48 1.386 . S
C53 C52 1.399 . S
C54 C33 1.484 1_565 S
C54 C55 1.391 1_565 S
C54 C59 1.365 . S
C55 H14 0.931 . S
C55 C54 1.391 1_545 S
C55 C56 1.372 . S
C56 H15 0.930 . S
C56 C55 1.372 . S
C56 C57 1.397 1_545 S
C57 C56 1.397 1_565 S
C57 C58 1.390 . S
C57 C73 1.476 . S
C58 H16 0.930 . S
C58 C57 1.390 . S
C58 C59 1.366 . S
C59 H17 0.932 . S
C59 C54 1.365 . S
C59 C58 1.366 . S
C60 C34 1.490 . S
C60 C61 1.380 . S
C60 C65 1.386 . S
C61 H18 0.930 1_665 S
C61 C60 1.380 . S
C61 C62 1.381 . S
C62 H19 0.929 . S
C62 C61 1.381 . S
C62 C63 1.371 . S
C63 C62 1.371 . S
C63 C64 1.380 . S
C64 H20 0.931 . S
C64 C63 1.380 . S
C64 C65 1.387 . S
C65 H21 0.930 . S
C65 C60 1.386 . S
C65 C64 1.387 . S
C66 C35 1.519 1_565 S
C66 C67 1.377 1_565 S
C66 C71 1.361 . S
C67 H22 0.929 . S
C67 C66 1.377 1_545 S
C67 C68 1.386 1_545 S
C68 H23 0.931 1_565 S
C68 C67 1.386 1_565 S
C68 C69 1.363 . S
C69 C68 1.363 . S
C69 C70 1.385 . S
C70 H24 0.930 . S
C70 C69 1.385 . S
C70 C71 1.396 . S
C71 H25 0.929 . S
C71 C66 1.361 . S
C71 C70 1.396 . S
C72 O26 1.300 . S
C72 O27 1.209 . S
C72 C45 1.486 . S
C73 O28 1.199 . S
C73 O29 1.297 . S
C73 C57 1.476 . S
H74 O100 0.856 . S
H75 O103 0.854 . S
H76 C111 0.930 . S
H77 C112 0.930 . S
H78 C114 0.930 . S
H79 C115 0.930 . S
H80 C117 0.931 . S
H81 C118 0.930 . S
H82 C120 0.930 . S
H83 C121 0.929 . S
H84 C123 0.930 . S
H85 C124 0.931 . S
H86 C126 0.930 . S
H87 C127 0.929 . S
H88 C129 0.931 . S
H89 C130 0.929 . S
H90 C132 0.930 1_545 S
H91 C133 0.932 . S
H92 C135 0.930 . S
H93 C136 0.929 . S
H94 C138 0.931 . S
H95 C139 0.930 . S
H96 C141 0.929 . S
H97 C142 0.931 . S
H98 C144 0.930 . S
H99 C145 0.929 . S
O100 H74 0.856 . S
O100 C146 1.300 . S
O101 C146 1.209 . S
O102 C147 1.199 . S
O103 H75 0.854 . S
O103 C147 1.297 . S
C104 C105 1.404 . S
C104 C109 1.397 . S
C104 C110 1.492 . S
C105 C104 1.404 . S
C105 C106 1.396 . S
C105 C116 1.492 . S
C106 C105 1.396 . S
C106 C107 1.397 . S
C106 C122 1.509 . S
C107 C106 1.397 . S
C107 C108 1.412 . S
C107 C128 1.485 . S
C108 C107 1.412 . S
C108 C109 1.388 . S
C108 C134 1.490 . S
C109 C104 1.397 . S
C109 C108 1.388 . S
C109 C140 1.519 . S
C110 C104 1.492 . S
C110 C111 1.363 . S
C110 C115 1.390 . S
C111 H76 0.930 . S
C111 C110 1.363 . S
C111 C112 1.372 . S
C112 H77 0.930 . S
C112 C111 1.372 . S
C112 C113 1.383 . S
C113 C112 1.383 . S
C113 C114 1.395 . S
C114 H78 0.930 . S
C114 C113 1.395 . S
C114 C115 1.362 . S
C115 H79 0.930 . S
C115 C110 1.390 . S
C115 C114 1.362 . S
C116 C105 1.492 . S
C116 C117 1.377 . S
C116 C121 1.397 . S
C117 H80 0.931 . S
C117 C116 1.377 . S
C117 C118 1.376 . S
C118 H81 0.930 . S
C118 C117 1.376 . S
C118 C119 1.376 . S
C119 C118 1.376 . S
C119 C120 1.378 . S
C119 C146 1.486 . S
C120 H82 0.930 . S
C120 C119 1.378 . S
C120 C121 1.376 . S
C121 H83 0.929 . S
C121 C116 1.397 . S
C121 C120 1.376 . S
C122 C106 1.509 . S
C122 C123 1.391 . S
C122 C127 1.386 . S
C123 H84 0.930 . S
C123 C122 1.391 . S
C123 C124 1.375 . S
C124 H85 0.931 . S
C124 C123 1.375 . S
C124 C125 1.375 . S
C125 C124 1.375 . S
C125 C126 1.361 . S
C126 H86 0.930 . S
C126 C125 1.361 . S
C126 C127 1.399 . S
C127 H87 0.929 . S
C127 C122 1.386 . S
C127 C126 1.399 . S
C128 C107 1.485 . S
C128 C129 1.394 . S
C128 C133 1.360 . S
C129 H88 0.931 . S
C129 C128 1.394 . S
C129 C130 1.372 . S
C130 H89 0.929 . S
C130 C129 1.372 . S
C130 C131 1.397 1_565 S
C131 C130 1.397 1_545 S
C131 C132 1.390 1_545 S
C131 C147 1.476 . S
C132 H90 0.930 1_565 S
C132 C131 1.390 1_565 S
C132 C133 1.366 . S
C133 H91 0.932 . S
C133 C128 1.360 . S
C133 C132 1.366 . S
C134 C108 1.490 . S
C134 C135 1.380 . S
C134 C139 1.386 . S
C135 H92 0.930 . S
C135 C134 1.380 . S
C135 C136 1.381 . S
C136 H93 0.929 . S
C136 C135 1.381 . S
C136 C137 1.371 . S
C137 C136 1.371 . S
C137 C138 1.380 . S
C138 H94 0.931 . S
C138 C137 1.380 . S
C138 C139 1.387 . S
C139 H95 0.930 . S
C139 C134 1.386 . S
C139 C138 1.387 . S
C140 C109 1.519 . S
C140 C141 1.377 . S
C140 C145 1.361 . S
C141 H96 0.929 . S
C141 C140 1.377 . S
C141 C142 1.386 . S
C142 H97 0.931 . S
C142 C141 1.386 . S
C142 C143 1.363 . S
C143 C142 1.363 . S
C143 C144 1.385 . S
C144 H98 0.930 . S
C144 C143 1.385 . S
C144 C145 1.396 . S
C145 H99 0.929 . S
C145 C140 1.361 . S
C145 C144 1.396 . S
C146 O100 1.300 . S
C146 O101 1.209 . S
C146 C119 1.486 . S
C147 O102 1.199 . S
C147 O103 1.297 . S
C147 C131 1.476 . S
H148 O174 0.856 . S
H149 O177 0.854 . S
H150 C185 0.930 . S
H151 C186 0.930 . S
H152 C188 0.930 . S
H153 C189 0.930 . S
H154 C191 0.931 . S
H155 C192 0.930 . S
H156 C194 0.930 1_545 S
H157 C195 0.929 . S
H158 C197 0.930 . S
H159 C198 0.931 . S
H160 C200 0.930 . S
H161 C201 0.929 . S
H162 C203 0.931 . S
H163 C204 0.930 . S
H164 C206 0.930 . S
H165 C207 0.932 . S
H166 C209 0.930 . S
H167 C210 0.929 . S
H168 C212 0.931 . S
H169 C213 0.930 . S
H170 C215 0.929 . S
H171 C216 0.931 . S
H172 C218 0.930 . S
H173 C219 0.929 . S
O174 H148 0.856 . S
O174 C220 1.300 . S
O175 C220 1.209 . S
O176 C221 1.199 . S
O177 H149 0.854 . S
O177 C221 1.297 . S
C178 C179 1.404 . S
C178 C183 1.397 . S
C178 C184 1.492 . S
C179 C178 1.404 . S
C179 C180 1.396 . S
C179 C190 1.492 1_545 S
C180 C179 1.396 . S
C180 C181 1.397 . S
C180 C196 1.509 . S
C181 C180 1.397 . S
C181 C182 1.412 . S
C181 C202 1.485 . S
C182 C181 1.412 . S
C182 C183 1.388 . S
C182 C208 1.490 . S
C183 C178 1.397 . S
C183 C182 1.388 . S
C183 C214 1.519 . S
C184 C178 1.492 . S
C184 C185 1.363 1_545 S
C184 C189 1.390 . S
C185 H150 0.930 . S
C185 C184 1.363 1_565 S
C185 C186 1.372 . S
C186 H151 0.930 . S
C186 C185 1.372 . S
C186 C187 1.383 . S
C187 C186 1.383 . S
C187 C188 1.395 1_565 S
C188 H152 0.930 . S
C188 C187 1.395 1_545 S
C188 C189 1.362 . S
C189 H153 0.930 . S
C189 C184 1.390 . S
C189 C188 1.362 . S
C190 C179 1.492 1_565 S
C190 C191 1.377 . S
C190 C195 1.397 1_565 S
C191 H154 0.931 . S
C191 C190 1.377 . S
C191 C192 1.376 . S
C192 H155 0.930 . S
C192 C191 1.376 . S
C192 C193 1.376 . S
C193 C192 1.376 . S
C193 C194 1.378 . S
C193 C220 1.486 . S
C194 H156 0.930 1_565 S
C194 C193 1.378 . S
C194 C195 1.376 1_565 S
C195 H157 0.929 . S
C195 C190 1.397 1_545 S
C195 C194 1.376 1_545 S
C196 C180 1.509 . S
C196 C197 1.391 1_545 S
C196 C201 1.386 . S
C197 H158 0.930 . S
C197 C196 1.391 1_565 S
C197 C198 1.375 . S
C198 H159 0.931 . S
C198 C197 1.375 . S
C198 C199 1.375 . S
C199 C198 1.375 . S
C199 C200 1.361 1_565 S
C200 H160 0.930 . S
C200 C199 1.361 1_545 S
C200 C201 1.399 . S
C201 H161 0.929 . S
C201 C196 1.386 . S
C201 C200 1.399 . S
C202 C181 1.485 . S
C202 C203 1.394 . S
C202 C207 1.360 . S
C203 H162 0.931 . S
C203 C202 1.394 . S
C203 C204 1.372 . S
C204 H163 0.930 . S
C204 C203 1.372 . S
C204 C205 1.397 . S
C205 C204 1.397 . S
C205 C206 1.390 . S
C205 C221 1.476 . S
C206 H164 0.930 . S
C206 C205 1.390 . S
C206 C207 1.366 . S
C207 H165 0.932 . S
C207 C202 1.360 . S
C207 C206 1.366 . S
C208 C182 1.490 . S
C208 C209 1.380 . S
C208 C213 1.386 . S
C209 H166 0.930 . S
C209 C208 1.380 . S
C209 C210 1.381 1_554 S
C210 H167 0.929 . S
C210 C209 1.381 1_556 S
C210 C211 1.371 . S
C211 C210 1.371 . S
C211 C212 1.380 1_556 S
C212 H168 0.931 . S
C212 C211 1.380 1_554 S
C212 C213 1.387 . S
C213 H169 0.930 . S
C213 C208 1.386 . S
C213 C212 1.387 . S
C214 C183 1.519 . S
C214 C215 1.377 . S
C214 C219 1.361 . S
C215 H170 0.929 . S
C215 C214 1.377 . S
C215 C216 1.386 . S
C216 H171 0.931 . S
C216 C215 1.386 . S
C216 C217 1.363 . S
C217 C216 1.363 . S
C217 C218 1.385 . S
C218 H172 0.930 . S
C218 C217 1.385 . S
C218 C219 1.396 . S
C219 H173 0.929 . S
C219 C214 1.361 . S
C219 C218 1.396 . S
C220 O174 1.300 . S
C220 O175 1.209 . S
C220 C193 1.486 . S
C221 O176 1.199 . S
C221 O177 1.297 . S
C221 C205 1.476 . S
H222 O248 0.856 . S
H223 O251 0.854 . S
H224 C259 0.930 . S
H225 C260 0.930 . S
H226 C262 0.930 . S
H227 C263 0.930 . S
H228 C265 0.931 . S
H229 C266 0.930 . S
H230 C268 0.930 . S
H231 C269 0.929 . S
H232 C271 0.930 . S
H233 C272 0.931 . S
H234 C274 0.930 . S
H235 C275 0.929 . S
H236 C277 0.931 . S
H237 C278 0.930 . S
H238 C280 0.930 . S
H239 C281 0.932 . S
H240 C283 0.930 . S
H241 C284 0.929 . S
H242 C286 0.931 . S
H243 C287 0.930 . S
H244 C289 0.929 . S
H245 C290 0.931 . S
H246 C292 0.930 . S
H247 C293 0.929 . S
O248 H222 0.856 . S
O248 C294 1.300 . S
O249 C294 1.209 . S
O250 C295 1.199 . S
O251 H223 0.854 . S
O251 C295 1.297 . S
C252 C253 1.404 . S
C252 C257 1.397 . S
C252 C258 1.492 . S
C253 C252 1.404 . S
C253 C254 1.396 . S
C253 C264 1.492 . S
C254 C253 1.396 . S
C254 C255 1.397 . S
C254 C270 1.509 . S
C255 C254 1.397 . S
C255 C256 1.412 . S
C255 C276 1.485 . S
C256 C255 1.412 . S
C256 C257 1.388 . S
C256 C282 1.490 . S
C257 C252 1.397 . S
C257 C256 1.388 . S
C257 C288 1.519 . S
C258 C252 1.492 . S
C258 C259 1.363 . S
C258 C263 1.390 . S
C259 H224 0.930 . S
C259 C258 1.363 . S
C259 C260 1.372 . S
C260 H225 0.930 . S
C260 C259 1.372 . S
C260 C261 1.383 . S
C261 C260 1.383 . S
C261 C262 1.395 . S
C262 H226 0.930 . S
C262 C261 1.395 . S
C262 C263 1.362 . S
C263 H227 0.930 . S
C263 C258 1.390 . S
C263 C262 1.362 . S
C264 C253 1.492 . S
C264 C265 1.377 . S
C264 C269 1.397 . S
C265 H228 0.931 . S
C265 C264 1.377 . S
C265 C266 1.376 . S
C266 H229 0.930 . S
C266 C265 1.376 . S
C266 C267 1.376 . S
C267 C266 1.376 . S
C267 C268 1.378 . S
C267 C294 1.486 . S
C268 H230 0.930 . S
C268 C267 1.378 . S
C268 C269 1.376 . S
C269 H231 0.929 . S
C269 C264 1.397 . S
C269 C268 1.376 . S
C270 C254 1.509 . S
C270 C271 1.391 . S
C270 C275 1.386 . S
C271 H232 0.930 . S
C271 C270 1.391 . S
C271 C272 1.375 . S
C272 H233 0.931 . S
C272 C271 1.375 . S
C272 C273 1.375 . S
C273 C272 1.375 . S
C273 C274 1.361 . S
C274 H234 0.930 . S
C274 C273 1.361 . S
C274 C275 1.399 . S
C275 H235 0.929 . S
C275 C270 1.386 . S
C275 C274 1.399 . S
C276 C255 1.485 . S
C276 C277 1.394 . S
C276 C281 1.360 . S
C277 H236 0.931 . S
C277 C276 1.394 . S
C277 C278 1.372 . S
C278 H237 0.930 . S
C278 C277 1.372 . S
C278 C279 1.397 . S
C279 C278 1.397 . S
C279 C280 1.390 . S
C279 C295 1.476 . S
C280 H238 0.930 . S
C280 C279 1.390 . S
C280 C281 1.366 . S
C281 H239 0.932 . S
C281 C276 1.360 . S
C281 C280 1.366 . S
C282 C256 1.490 . S
C282 C283 1.380 . S
C282 C287 1.386 . S
C283 H240 0.930 . S
C283 C282 1.380 . S
C283 C284 1.381 . S
C284 H241 0.929 . S
C284 C283 1.381 . S
C284 C285 1.371 . S
C285 C284 1.371 . S
C285 C286 1.380 . S
C286 H242 0.931 . S
C286 C285 1.380 . S
C286 C287 1.387 . S
C287 H243 0.930 . S
C287 C282 1.386 . S
C287 C286 1.387 . S
C288 C257 1.519 . S
C288 C289 1.377 . S
C288 C293 1.361 . S
C289 H244 0.929 . S
C289 C288 1.377 . S
C289 C290 1.386 . S
C290 H245 0.931 . S
C290 C289 1.386 . S
C290 C291 1.363 . S
C291 C290 1.363 . S
C291 C292 1.385 . S
C292 H246 0.930 . S
C292 C291 1.385 . S
C292 C293 1.396 . S
C293 H247 0.929 . S
C293 C288 1.361 . S
C293 C292 1.396 . S
C294 O248 1.300 . S
C294 O249 1.209 . S
C294 C267 1.486 . S
C295 O250 1.199 . S
C295 O251 1.297 . S
C295 C279 1.476 . S
H296 O322 0.856 . S
H297 O325 0.854 . S
H298 C333 0.930 . S
H299 C334 0.930 . S
H300 C336 0.930 . S
H301 C337 0.930 . S
H302 C339 0.931 . S
H303 C340 0.930 . S
H304 C342 0.930 . S
H305 C343 0.929 . S
H306 C345 0.930 . S
H307 C346 0.931 . S
H308 C348 0.930 . S
H309 C349 0.929 . S
H310 C351 0.931 . S
H311 C352 0.930 . S
H312 C354 0.930 . S
H313 C355 0.932 . S
H314 C357 0.930 . S
H315 C358 0.929 . S
H316 C360 0.931 . S
H317 C361 0.930 . S
H318 C363 0.929 . S
H319 C364 0.931 . S
H320 C366 0.930 . S
H321 C367 0.929 . S
O322 H296 0.856 . S
O322 C368 1.300 . S
O323 C368 1.209 . S
O324 C369 1.199 . S
O325 H297 0.854 . S
O325 C369 1.297 . S
C326 C327 1.404 . S
C326 C331 1.397 . S
C326 C332 1.492 . S
C327 C326 1.404 . S
C327 C328 1.396 . S
C327 C338 1.492 . S
C328 C327 1.396 . S
C328 C329 1.397 . S
C328 C344 1.509 . S
C329 C328 1.397 . S
C329 C330 1.412 . S
C329 C350 1.485 . S
C330 C329 1.412 . S
C330 C331 1.388 . S
C330 C356 1.490 . S
C331 C326 1.397 . S
C331 C330 1.388 . S
C331 C362 1.519 . S
C332 C326 1.492 . S
C332 C333 1.363 . S
C332 C337 1.390 . S
C333 H298 0.930 . S
C333 C332 1.363 . S
C333 C334 1.372 . S
C334 H299 0.930 . S
C334 C333 1.372 . S
C334 C335 1.383 . S
C335 C334 1.383 . S
C335 C336 1.395 . S
C336 H300 0.930 . S
C336 C335 1.395 . S
C336 C337 1.362 . S
C337 H301 0.930 . S
C337 C332 1.390 . S
C337 C336 1.362 . S
C338 C327 1.492 . S
C338 C339 1.377 . S
C338 C343 1.397 . S
C339 H302 0.931 . S
C339 C338 1.377 . S
C339 C340 1.376 . S
C340 H303 0.930 . S
C340 C339 1.376 . S
C340 C341 1.376 . S
C341 C340 1.376 . S
C341 C342 1.378 . S
C341 C368 1.486 . S
C342 H304 0.930 . S
C342 C341 1.378 . S
C342 C343 1.376 . S
C343 H305 0.929 . S
C343 C338 1.397 . S
C343 C342 1.376 . S
C344 C328 1.509 . S
C344 C345 1.391 . S
C344 C349 1.386 . S
C345 H306 0.930 . S
C345 C344 1.391 . S
C345 C346 1.375 . S
C346 H307 0.931 . S
C346 C345 1.375 . S
C346 C347 1.375 . S
C347 C346 1.375 . S
C347 C348 1.361 . S
C348 H308 0.930 . S
C348 C347 1.361 . S
C348 C349 1.399 . S
C349 H309 0.929 . S
C349 C344 1.386 . S
C349 C348 1.399 . S
C350 C329 1.485 . S
C350 C351 1.394 . S
C350 C355 1.360 . S
C351 H310 0.931 . S
C351 C350 1.394 . S
C351 C352 1.372 . S
C352 H311 0.930 . S
C352 C351 1.372 . S
C352 C353 1.397 . S
C353 C352 1.397 . S
C353 C354 1.390 . S
C353 C369 1.476 . S
C354 H312 0.930 . S
C354 C353 1.390 . S
C354 C355 1.366 . S
C355 H313 0.932 . S
C355 C350 1.360 . S
C355 C354 1.366 . S
C356 C330 1.490 . S
C356 C357 1.380 . S
C356 C361 1.386 . S
C357 H314 0.930 . S
C357 C356 1.380 . S
C357 C358 1.381 . S
C358 H315 0.929 . S
C358 C357 1.381 . S
C358 C359 1.371 . S
C359 C358 1.371 . S
C359 C360 1.380 . S
C360 H316 0.931 . S
C360 C359 1.380 . S
C360 C361 1.387 . S
C361 H317 0.930 . S
C361 C356 1.386 . S
C361 C360 1.387 . S
C362 C331 1.519 . S
C362 C363 1.377 . S
C362 C367 1.361 . S
C363 H318 0.929 . S
C363 C362 1.377 . S
C363 C364 1.386 . S
C364 H319 0.931 . S
C364 C363 1.386 . S
C364 C365 1.363 . S
C365 C364 1.363 . S
C365 C366 1.385 . S
C366 H320 0.930 . S
C366 C365 1.385 . S
C366 C367 1.396 . S
C367 H321 0.929 . S
C367 C362 1.361 . S
C367 C366 1.396 . S
C368 O322 1.300 . S
C368 O323 1.209 . S
C368 C341 1.486 . S
C369 O324 1.199 . S
C369 O325 1.297 . S
C369 C353 1.476 . S
H370 O396 0.856 . S
H371 O399 0.854 . S
H372 C407 0.930 . S
H373 C408 0.930 . S
H374 C410 0.930 . S
H375 C411 0.930 . S
H376 C413 0.931 . S
H377 C414 0.930 . S
H378 C416 0.930 . S
H379 C417 0.929 . S
H380 C419 0.930 . S
H381 C420 0.931 . S
H382 C422 0.930 . S
H383 C423 0.929 . S
H384 C425 0.931 . S
H385 C426 0.930 . S
H386 C428 0.930 . S
H387 C429 0.932 . S
H388 C431 0.930 . S
H389 C432 0.929 . S
H390 C434 0.931 . S
H391 C435 0.930 . S
H392 C437 0.929 . S
H393 C438 0.931 . S
H394 C440 0.930 . S
H395 C441 0.929 . S
O396 H370 0.856 . S
O396 C442 1.300 . S
O397 C442 1.209 . S
O398 C443 1.199 . S
O399 H371 0.854 . S
O399 C443 1.297 . S
C400 C401 1.404 . S
C400 C405 1.397 . S
C400 C406 1.492 . S
C401 C400 1.404 . S
C401 C402 1.396 . S
C401 C412 1.492 . S
C402 C401 1.396 . S
C402 C403 1.397 . S
C402 C418 1.509 . S
C403 C402 1.397 . S
C403 C404 1.412 . S
C403 C424 1.485 . S
C404 C403 1.412 . S
C404 C405 1.388 . S
C404 C430 1.490 . S
C405 C400 1.397 . S
C405 C404 1.388 . S
C405 C436 1.519 . S
C406 C400 1.492 . S
C406 C407 1.363 . S
C406 C411 1.390 . S
C407 H372 0.930 . S
C407 C406 1.363 . S
C407 C408 1.372 . S
C408 H373 0.930 . S
C408 C407 1.372 . S
C408 C409 1.383 . S
C409 C408 1.383 . S
C409 C410 1.395 . S
C410 H374 0.930 . S
C410 C409 1.395 . S
C410 C411 1.362 . S
C411 H375 0.930 . S
C411 C406 1.390 . S
C411 C410 1.362 . S
C412 C401 1.492 . S
C412 C413 1.377 . S
C412 C417 1.397 . S
C413 H376 0.931 . S
C413 C412 1.377 . S
C413 C414 1.376 . S
C414 H377 0.930 . S
C414 C413 1.376 . S
C414 C415 1.376 . S
C415 C414 1.376 . S
C415 C416 1.378 . S
C415 C442 1.486 . S
C416 H378 0.930 . S
C416 C415 1.378 . S
C416 C417 1.376 . S
C417 H379 0.929 . S
C417 C412 1.397 . S
C417 C416 1.376 . S
C418 C402 1.509 . S
C418 C419 1.391 . S
C418 C423 1.386 . S
C419 H380 0.930 . S
C419 C418 1.391 . S
C419 C420 1.375 . S
C420 H381 0.931 . S
C420 C419 1.375 . S
C420 C421 1.375 . S
C421 C420 1.375 . S
C421 C422 1.361 . S
C422 H382 0.930 . S
C422 C421 1.361 . S
C422 C423 1.399 . S
C423 H383 0.929 . S
C423 C418 1.386 . S
C423 C422 1.399 . S
C424 C403 1.485 . S
C424 C425 1.394 . S
C424 C429 1.360 . S
C425 H384 0.931 . S
C425 C424 1.394 . S
C425 C426 1.372 . S
C426 H385 0.930 . S
C426 C425 1.372 . S
C426 C427 1.397 . S
C427 C426 1.397 . S
C427 C428 1.390 . S
C427 C443 1.476 . S
C428 H386 0.930 . S
C428 C427 1.390 . S
C428 C429 1.366 . S
C429 H387 0.932 . S
C429 C424 1.360 . S
C429 C428 1.366 . S
C430 C404 1.490 . S
C430 C431 1.380 . S
C430 C435 1.386 . S
C431 H388 0.930 . S
C431 C430 1.380 . S
C431 C432 1.381 . S
C432 H389 0.929 . S
C432 C431 1.381 . S
C432 C433 1.371 . S
C433 C432 1.371 . S
C433 C434 1.380 . S
C434 H390 0.931 . S
C434 C433 1.380 . S
C434 C435 1.387 . S
C435 H391 0.930 . S
C435 C430 1.386 . S
C435 C434 1.387 . S
C436 C405 1.519 . S
C436 C437 1.377 . S
C436 C441 1.361 . S
C437 H392 0.929 . S
C437 C436 1.377 . S
C437 C438 1.386 . S
C438 H393 0.931 . S
C438 C437 1.386 . S
C438 C439 1.363 . S
C439 C438 1.363 . S
C439 C440 1.385 . S
C440 H394 0.930 . S
C440 C439 1.385 . S
C440 C441 1.396 . S
C441 H395 0.929 . S
C441 C436 1.361 . S
C441 C440 1.396 . S
C442 O396 1.300 . S
C442 O397 1.209 . S
C442 C415 1.486 . S
C443 O398 1.199 . S
C443 O399 1.297 . S
C443 C427 1.476 . S
H444 O470 0.856 . S
H445 O473 0.854 . S
H446 C481 0.930 . S
H447 C482 0.968 . S
H448 C484 0.930 . S
H449 C485 0.930 . S
H450 C487 0.931 . S
H451 C488 0.930 . S
H452 C490 0.930 . S
H453 C491 0.929 . S
H454 C493 0.930 . S
H455 C494 0.931 . S
H456 C496 0.930 . S
H457 C497 0.929 . S
H458 C499 0.931 . S
H459 C500 0.930 . S
H460 C502 0.930 . S
H461 C503 0.932 . S
H462 C505 0.930 . S
H463 C506 0.929 . S
H464 C508 0.931 . S
H465 C509 0.930 . S
H466 C511 0.929 . S
H467 C512 0.931 . S
H468 C514 0.930 . S
H469 C515 0.929 . S
O470 H444 0.856 . S
O470 C516 1.300 . S
O471 C516 1.209 . S
O472 C517 1.199 . S
O473 H445 0.854 . S
O473 C517 1.297 . S
C474 C475 1.404 . S
C474 C479 1.397 . S
C474 C480 1.492 . S
C475 C474 1.404 . S
C475 C476 1.396 . S
C475 C486 1.492 . S
C476 C475 1.396 . S
C476 C477 1.397 . S
C476 C492 1.509 . S
C477 C476 1.397 . S
C477 C478 1.412 . S
C477 C498 1.485 . S
C478 C477 1.412 . S
C478 C479 1.388 . S
C478 C504 1.490 . S
C479 C474 1.397 . S
C479 C478 1.388 . S
C479 C510 1.519 . S
C480 C474 1.492 . S
C480 C481 1.363 . S
C480 C485 1.390 . S
C481 H446 0.930 . S
C481 C480 1.363 . S
C481 C482 1.372 . S
C482 H447 0.968 . S
C482 C481 1.372 . S
C482 C483 1.383 . S
C483 C482 1.383 . S
C483 C484 1.395 . S
C484 H448 0.930 . S
C484 C483 1.395 . S
C484 C485 1.362 . S
C485 H449 0.930 . S
C485 C480 1.390 . S
C485 C484 1.362 . S
C486 C475 1.492 . S
C486 C487 1.377 1_554 S
C486 C491 1.397 . S
C487 H450 0.931 . S
C487 C486 1.377 1_556 S
C487 C488 1.376 . S
C488 H451 0.930 . S
C488 C487 1.376 . S
C488 C489 1.376 . S
C489 C488 1.376 . S
C489 C490 1.378 . S
C489 C516 1.486 . S
C490 H452 0.930 . S
C490 C489 1.378 . S
C490 C491 1.376 1_556 S
C491 H453 0.929 . S
C491 C486 1.397 . S
C491 C490 1.376 1_554 S
C492 C476 1.509 . S
C492 C493 1.391 . S
C492 C497 1.386 . S
C493 H454 0.930 . S
C493 C492 1.391 . S
C493 C494 1.375 1_554 S
C494 H455 0.931 . S
C494 C493 1.375 1_556 S
C494 C495 1.375 . S
C495 C494 1.375 . S
C495 C496 1.361 1_556 S
C496 H456 0.930 . S
C496 C495 1.361 1_554 S
C496 C497 1.399 . S
C497 H457 0.929 . S
C497 C492 1.386 . S
C497 C496 1.399 . S
C498 C477 1.485 . S
C498 C499 1.394 . S
C498 C503 1.360 . S
C499 H458 0.931 . S
C499 C498 1.394 . S
C499 C500 1.372 . S
C500 H459 0.930 . S
C500 C499 1.372 . S
C500 C501 1.397 . S
C501 C500 1.397 . S
C501 C502 1.390 . S
C501 C517 1.476 . S
C502 H460 0.930 . S
C502 C501 1.390 . S
C502 C503 1.366 . S
C503 H461 0.932 . S
C503 C498 1.360 . S
C503 C502 1.366 . S
C504 C478 1.490 . S
C504 C505 1.380 . S
C504 C509 1.386 . S
C505 H462 0.930 . S
C505 C504 1.380 . S
C505 C506 1.381 . S
C506 H463 0.929 . S
C506 C505 1.381 . S
C506 C507 1.371 . S
C507 C506 1.371 . S
C507 C508 1.380 . S
C508 H464 0.931 . S
C508 C507 1.380 . S
C508 C509 1.387 . S
C509 H465 0.930 . S
C509 C504 1.386 . S
C509 C508 1.387 . S
C510 C479 1.519 . S
C510 C511 1.377 . S
C510 C515 1.361 . S
C511 H466 0.929 . S
C511 C510 1.377 . S
C511 C512 1.386 . S
C512 H467 0.931 . S
C512 C511 1.386 . S
C512 C513 1.363 . S
C513 C512 1.363 . S
C513 C514 1.385 . S
C514 H468 0.930 . S
C514 C513 1.385 . S
C514 C515 1.396 . S
C515 H469 0.929 . S
C515 C510 1.361 . S
C515 C514 1.396 . S
C516 O470 1.300 . S
C516 O471 1.209 . S
C516 C489 1.486 . S
C517 O472 1.199 . S
C517 O473 1.297 . S
C517 C501 1.476 . S
H518 O544 0.859 . S
H519 O547 0.854 . S
H520 C555 0.930 . S
H521 C556 0.930 . S
H522 C558 0.930 . S
H523 C559 0.930 . S
H524 C561 0.931 . S
H525 C562 0.930 . S
H526 C564 0.930 . S
H527 C565 0.929 . S
H528 C567 0.930 . S
H529 C568 0.931 . S
H530 C570 0.930 . S
H531 C571 0.929 . S
H532 C573 0.931 . S
H533 C574 0.930 . S
H534 C576 0.930 . S
H535 C577 0.932 . S
H536 C579 0.930 . S
H537 C580 0.929 . S
H538 C582 0.931 . S
H539 C583 0.930 . S
H540 C585 0.929 . S
H541 C586 0.931 . S
H542 C588 0.930 . S
H543 C589 0.929 1_455 S
O544 H518 0.859 . S
O544 C590 1.300 1_455 S
O545 C590 1.209 . S
O546 C591 1.199 . S
O547 H519 0.854 . S
O547 C591 1.297 . S
C548 C549 1.404 . S
C548 C553 1.397 . S
C548 C554 1.492 1_455 S
C549 C548 1.404 . S
C549 C550 1.396 . S
C549 C560 1.492 . S
C550 C549 1.396 . S
C550 C551 1.397 . S
C550 C566 1.509 . S
C551 C550 1.397 . S
C551 C552 1.412 . S
C551 C572 1.485 . S
C552 C551 1.412 . S
C552 C553 1.388 . S
C552 C578 1.490 . S
C553 C548 1.397 . S
C553 C552 1.388 . S
C553 C584 1.519 1_455 S
C554 C548 1.492 1_655 S
C554 C555 1.363 . S
C554 C559 1.390 . S
C555 H520 0.930 . S
C555 C554 1.363 . S
C555 C556 1.372 . S
C556 H521 0.930 . S
C556 C555 1.372 . S
C556 C557 1.383 . S
C557 C556 1.383 . S
C557 C558 1.395 . S
C558 H522 0.930 . S
C558 C557 1.395 . S
C558 C559 1.362 . S
C559 H523 0.930 . S
C559 C554 1.390 . S
C559 C558 1.362 . S
C560 C549 1.492 . S
C560 C561 1.377 . S
C560 C565 1.397 . S
C561 H524 0.931 . S
C561 C560 1.377 . S
C561 C562 1.376 . S
C562 H525 0.930 . S
C562 C561 1.376 . S
C562 C563 1.376 . S
C563 C562 1.376 . S
C563 C564 1.378 1_455 S
C563 C590 1.486 1_455 S
C564 H526 0.930 . S
C564 C563 1.378 1_655 S
C564 C565 1.376 1_655 S
C565 H527 0.929 . S
C565 C560 1.397 . S
C565 C564 1.376 1_455 S
C566 C550 1.509 . S
C566 C567 1.391 . S
C566 C571 1.386 . S
C567 H528 0.930 . S
C567 C566 1.391 . S
C567 C568 1.375 . S
C568 H529 0.931 . S
C568 C567 1.375 . S
C568 C569 1.375 . S
C569 C568 1.375 . S
C569 C570 1.361 . S
C570 H530 0.930 . S
C570 C569 1.361 . S
C570 C571 1.399 . S
C571 H531 0.929 . S
C571 C566 1.386 . S
C571 C570 1.399 . S
C572 C551 1.485 . S
C572 C573 1.394 . S
C572 C577 1.360 . S
C573 H532 0.931 . S
C573 C572 1.394 . S
C573 C574 1.372 . S
C574 H533 0.930 . S
C574 C573 1.372 . S
C574 C575 1.397 . S
C575 C574 1.397 . S
C575 C576 1.390 . S
C575 C591 1.476 . S
C576 H534 0.930 . S
C576 C575 1.390 . S
C576 C577 1.366 . S
C577 H535 0.932 . S
C577 C572 1.360 . S
C577 C576 1.366 . S
C578 C552 1.490 . S
C578 C579 1.380 . S
C578 C583 1.386 . S
C579 H536 0.930 . S
C579 C578 1.380 . S
C579 C580 1.381 . S
C580 H537 0.929 . S
C580 C579 1.381 . S
C580 C581 1.371 . S
C581 C580 1.371 . S
C581 C582 1.380 . S
C582 H538 0.931 . S
C582 C581 1.380 . S
C582 C583 1.387 . S
C583 H539 0.930 . S
C583 C578 1.386 . S
C583 C582 1.387 . S
C584 C553 1.519 1_655 S
C584 C585 1.377 . S
C584 C589 1.361 . S
C585 H540 0.929 . S
C585 C584 1.377 . S
C585 C586 1.386 . S
C586 H541 0.931 . S
C586 C585 1.386 . S
C586 C587 1.363 . S
C587 C586 1.363 . S
C587 C588 1.385 . S
C588 H542 0.930 . S
C588 C587 1.385 . S
C588 C589 1.396 . S
C589 H543 0.929 1_655 S
C589 C584 1.361 . S
C589 C588 1.396 . S
C590 O544 1.300 1_655 S
C590 O545 1.209 . S
C590 C563 1.486 1_655 S
C591 O546 1.199 . S
C591 O547 1.297 . S
C591 C575 1.476 . S
Fe592 O593 1.886 . S
Fe592 O596 1.715 1_455 S
Fe592 O601 2.077 . S
Fe592 O606 1.935 1_455 S
Fe592 O612 2.077 . S
Fe592 O621 1.935 1_455 S
O593 Fe592 1.886 . S
O593 Fe595 1.715 . S
Fe594 O596 1.886 . S
Fe594 O597 1.715 . S
Fe594 O604 1.935 . S
Fe594 O605 2.077 . S
Fe594 O611 1.935 . S
Fe594 O620 2.077 . S
Fe595 O593 1.715 . S
Fe595 O598 1.886 . S
Fe595 O602 1.935 . S
Fe595 O607 2.077 . S
Fe595 O613 1.935 . S
Fe595 O617 2.077 . S
O596 Fe592 1.715 1_655 S
O596 Fe594 1.886 . S
O597 Fe594 1.715 . S
O597 Fe599 1.886 1_655 S
O598 Fe595 1.886 . S
O598 Fe599 1.715 . S
Fe599 O597 1.886 1_455 S
Fe599 O598 1.715 . S
Fe599 O603 2.077 1_455 S
Fe599 O608 1.935 . S
Fe599 O610 2.077 1_455 S
Fe599 O618 1.935 . S
C600 O612 1.381 . S
C600 O613 1.421 . S
O601 Fe592 2.077 . S
O601 C614 1.381 . S
O602 Fe595 1.935 . S
O602 C614 1.421 . S
O603 Fe599 2.077 1_655 S
O603 C619 1.381 . S
O604 Fe594 1.935 . S
O604 C619 1.421 . S
O605 Fe594 2.077 . S
O605 C609 1.381 . S
O606 Fe592 1.935 1_655 S
O606 C609 1.421 . S
O607 Fe595 2.077 . S
O607 C615 1.381 . S
O608 Fe599 1.935 . S
O608 C615 1.421 . S
C609 O605 1.381 . S
C609 O606 1.421 . S
O610 Fe599 2.077 1_655 S
O610 C622 1.381 . S
O611 Fe594 1.935 . S
O611 C622 1.421 . S
O612 Fe592 2.077 . S
O612 C600 1.381 . S
O613 Fe595 1.935 . S
O613 C600 1.421 . S
C614 O601 1.381 . S
C614 O602 1.421 . S
C615 O607 1.381 . S
C615 O608 1.421 . S
C616 O617 1.381 . S
C616 O618 1.421 . S
O617 Fe595 2.077 . S
O617 C616 1.381 . S
O618 Fe599 1.935 . S
O618 C616 1.421 . S
C619 O603 1.381 . S
C619 O604 1.421 . S
O620 Fe594 2.077 . S
O620 C623 1.381 . S
O621 Fe592 1.935 1_655 S
O621 C623 1.421 . S
C622 O610 1.381 . S
C622 O611 1.421 . S
C623 O620 1.381 . S
C623 O621 1.421 . S
Fe624 O625 1.886 . S
Fe624 O628 1.715 . S
Fe624 O633 2.077 . S
Fe624 O638 1.935 . S
Fe624 O644 2.077 . S
Fe624 O653 1.935 . S
O625 Fe624 1.886 . S
O625 Fe627 1.715 . S
Fe626 O628 1.886 . S
Fe626 O629 1.715 . S
Fe626 O636 1.935 . S
Fe626 O637 2.077 . S
Fe626 O643 1.935 . S
Fe626 O652 2.077 . S
Fe627 O625 1.715 . S
Fe627 O630 1.886 . S
Fe627 O634 1.935 . S
Fe627 O639 2.077 . S
Fe627 O645 1.935 . S
Fe627 O649 2.077 . S
O628 Fe624 1.715 . S
O628 Fe626 1.886 . S
O629 Fe626 1.715 . S
O629 Fe631 1.886 . S
O630 Fe627 1.886 . S
O630 Fe631 1.715 . S
Fe631 O629 1.886 . S
Fe631 O630 1.715 . S
Fe631 O635 2.077 . S
Fe631 O640 1.935 . S
Fe631 O642 2.077 . S
Fe631 O650 1.935 . S
C632 O644 1.381 . S
C632 O645 1.421 . S
O633 Fe624 2.077 . S
O633 C646 1.381 . S
O634 Fe627 1.935 . S
O634 C646 1.421 . S
O635 Fe631 2.077 . S
O635 C651 1.381 . S
O636 Fe626 1.935 . S
O636 C651 1.421 . S
O637 Fe626 2.077 . S
O637 C641 1.381 . S
O638 Fe624 1.935 . S
O638 C641 1.421 . S
O639 Fe627 2.077 . S
O639 C647 1.381 . S
O640 Fe631 1.935 . S
O640 C647 1.421 . S
C641 O637 1.381 . S
C641 O638 1.421 . S
O642 Fe631 2.077 . S
O642 C654 1.381 . S
O643 Fe626 1.935 . S
O643 C654 1.421 . S
O644 Fe624 2.077 . S
O644 C632 1.381 . S
O645 Fe627 1.935 . S
O645 C632 1.421 . S
C646 O633 1.381 . S
C646 O634 1.421 . S
C647 O639 1.381 . S
C647 O640 1.421 . S
C648 O649 1.381 . S
C648 O650 1.421 . S
O649 Fe627 2.077 . S
O649 C648 1.381 . S
O650 Fe631 1.935 . S
O650 C648 1.421 . S
C651 O635 1.381 . S
C651 O636 1.421 . S
O652 Fe626 2.077 . S
O652 C655 1.381 . S
O653 Fe624 1.935 . S
O653 C655 1.421 . S
C654 O642 1.381 . S
C654 O643 1.421 . S
C655 O652 1.381 . S
C655 O653 1.421 . S
Fe656 O657 1.886 . S
Fe656 O660 1.715 . S
Fe656 O665 2.077 . S
Fe656 O670 1.935 . S
Fe656 O676 2.077 . S
Fe656 O685 1.935 . S
O657 Fe656 1.886 . S
O657 Fe659 1.715 . S
Fe658 O660 1.886 . S
Fe658 O661 1.715 . S
Fe658 O668 1.935 . S
Fe658 O669 2.077 . S
Fe658 O675 1.935 . S
Fe658 O684 2.077 . S
Fe659 O657 1.715 . S
Fe659 O662 1.886 . S
Fe659 O666 1.935 . S
Fe659 O671 2.077 . S
Fe659 O677 1.935 . S
Fe659 O681 2.077 . S
O660 Fe656 1.715 . S
O660 Fe658 1.886 . S
O661 Fe658 1.715 . S
O661 Fe663 1.886 . S
O662 Fe659 1.886 . S
O662 Fe663 1.715 . S
Fe663 O661 1.886 . S
Fe663 O662 1.715 . S
Fe663 O667 2.077 . S
Fe663 O672 1.935 . S
Fe663 O674 2.077 . S
Fe663 O682 1.935 . S
C664 O676 1.381 . S
C664 O677 1.421 . S
O665 Fe656 2.077 . S
O665 C678 1.381 . S
O666 Fe659 1.935 . S
O666 C678 1.421 . S
O667 Fe663 2.077 . S
O667 C683 1.381 . S
O668 Fe658 1.935 . S
O668 C683 1.421 . S
O669 Fe658 2.077 . S
O669 C673 1.381 . S
O670 Fe656 1.935 . S
O670 C673 1.421 . S
O671 Fe659 2.077 . S
O671 C679 1.381 . S
O672 Fe663 1.935 . S
O672 C679 1.421 . S
C673 O669 1.381 . S
C673 O670 1.421 . S
O674 Fe663 2.077 . S
O674 C686 1.381 . S
O675 Fe658 1.935 . S
O675 C686 1.421 . S
O676 Fe656 2.077 . S
O676 C664 1.381 . S
O677 Fe659 1.935 . S
O677 C664 1.421 . S
C678 O665 1.381 . S
C678 O666 1.421 . S
C679 O671 1.381 . S
C679 O672 1.421 . S
C680 O681 1.381 . S
C680 O682 1.421 . S
O681 Fe659 2.077 . S
O681 C680 1.381 . S
O682 Fe663 1.935 . S
O682 C680 1.421 . S
C683 O667 1.381 . S
C683 O668 1.421 . S
O684 Fe658 2.077 . S
O684 C687 1.381 . S
O685 Fe656 1.935 . S
O685 C687 1.421 . S
C686 O674 1.381 . S
C686 O675 1.421 . S
C687 O684 1.381 . S
C687 O685 1.421 . S
Fe688 O689 1.886 . S
Fe688 O692 1.715 . S
Fe688 O697 2.077 1_455 S
Fe688 O702 1.935 1_455 S
Fe688 O708 2.077 . S
Fe688 O717 1.935 . S
O689 Fe688 1.886 . S
O689 Fe691 1.715 . S
Fe690 O692 1.886 . S
Fe690 O693 1.715 . S
Fe690 O700 1.935 1_455 S
Fe690 O701 2.077 1_455 S
Fe690 O707 1.935 . S
Fe690 O716 2.077 . S
Fe691 O689 1.715 . S
Fe691 O694 1.886 . S
Fe691 O698 1.935 1_455 S
Fe691 O703 2.077 1_455 S
Fe691 O709 1.935 . S
Fe691 O713 2.077 . S
O692 Fe688 1.715 . S
O692 Fe690 1.886 . S
O693 Fe690 1.715 . S
O693 Fe695 1.886 . S
O694 Fe691 1.886 . S
O694 Fe695 1.715 . S
Fe695 O693 1.886 . S
Fe695 O694 1.715 . S
Fe695 O699 2.077 1_455 S
Fe695 O704 1.935 1_455 S
Fe695 O706 2.077 . S
Fe695 O714 1.935 . S
C696 O708 1.381 . S
C696 O709 1.421 . S
O697 Fe688 2.077 1_655 S
O697 C710 1.381 . S
O698 Fe691 1.935 1_655 S
O698 C710 1.421 . S
O699 Fe695 2.077 1_655 S
O699 C715 1.381 . S
O700 Fe690 1.935 1_655 S
O700 C715 1.421 . S
O701 Fe690 2.077 1_655 S
O701 C705 1.381 . S
O702 Fe688 1.935 1_655 S
O702 C705 1.421 . S
O703 Fe691 2.077 1_655 S
O703 C711 1.381 . S
O704 Fe695 1.935 1_655 S
O704 C711 1.421 . S
C705 O701 1.381 . S
C705 O702 1.421 . S
O706 Fe695 2.077 . S
O706 C718 1.381 . S
O707 Fe690 1.935 . S
O707 C718 1.421 . S
O708 Fe688 2.077 . S
O708 C696 1.381 . S
O709 Fe691 1.935 . S
O709 C696 1.421 . S
C710 O697 1.381 . S
C710 O698 1.421 . S
C711 O703 1.381 . S
C711 O704 1.421 . S
C712 O713 1.381 . S
C712 O714 1.421 . S
O713 Fe691 2.077 . S
O713 C712 1.381 . S
O714 Fe695 1.935 . S
O714 C712 1.421 . S
C715 O699 1.381 . S
C715 O700 1.421 . S
O716 Fe690 2.077 . S
O716 C719 1.381 . S
O717 Fe688 1.935 . S
O717 C719 1.421 . S
C718 O706 1.381 . S
C718 O707 1.421 . S
C719 O716 1.381 . S
C719 O717 1.421 . S
H720 C726 0.930 . S
H721 C730 0.930 . S
H722 C735 0.929 . S
H723 C733 0.929 . S
H724 C728 0.929 . S
H725 C734 0.929 . S
C726 H720 0.930 . S
C726 C727 1.367 . S
C726 C734 1.378 . S
C727 C726 1.367 . S
C727 C735 1.433 . S
C728 H724 0.929 . S
C728 C730 1.378 . S
C728 C732 1.350 . S
C729 C732 1.463 . S
C729 C734 1.350 . S
C729 N737 1.427 . S
C730 H721 0.930 . S
C730 C728 1.378 . S
C730 C731 1.367 . S
C731 C730 1.367 . S
C731 C733 1.433 . S
C732 C728 1.350 . S
C732 C729 1.463 . S
C732 N736 1.427 . S
C733 H723 0.929 . S
C733 C731 1.433 . S
C733 N736 1.384 . S
C734 H725 0.929 . S
C734 C726 1.378 . S
C734 C729 1.350 . S
C735 H722 0.929 . S
C735 C727 1.433 . S
C735 N737 1.384 . S
N736 C732 1.427 . S
N736 C733 1.384 . S
N737 C729 1.427 . S
N737 C735 1.384 . S
H738 C744 0.930 . S
H739 C748 0.930 . S
H740 C753 0.929 . S
H741 C751 0.929 . S
H742 C746 0.929 . S
H743 C752 0.929 . S
C744 H738 0.930 . S
C744 C745 1.367 1_545 S
C744 C752 1.378 . S
C745 C744 1.367 1_565 S
C745 C753 1.433 . S
C746 H742 0.929 . S
C746 C748 1.378 . S
C746 C750 1.350 . S
C747 C750 1.463 . S
C747 C752 1.350 . S
C747 N755 1.427 . S
C748 H739 0.930 . S
C748 C746 1.378 . S
C748 C749 1.367 . S
C749 C748 1.367 . S
C749 C751 1.433 . S
C750 C746 1.350 . S
C750 C747 1.463 . S
C750 N754 1.427 . S
C751 H741 0.929 . S
C751 C749 1.433 . S
C751 N754 1.384 . S
C752 H743 0.929 . S
C752 C744 1.378 . S
C752 C747 1.350 . S
C753 H740 0.929 . S
C753 C745 1.433 . S
C753 N755 1.384 1_565 S
N754 C750 1.427 . S
N754 C751 1.384 . S
N755 C747 1.427 . S
N755 C753 1.384 1_545 S
H756 C762 0.930 . S
H757 C766 0.930 . S
H758 C771 0.929 . S
H759 C769 0.929 . S
H760 C764 0.929 . S
H761 C770 0.929 . S
C762 H756 0.930 . S
C762 C763 1.367 1_556 S
C762 C770 1.378 . S
C763 C762 1.367 1_554 S
C763 C771 1.433 . S
C764 H760 0.929 . S
C764 C766 1.378 . S
C764 C768 1.350 . S
C765 C768 1.463 . S
C765 C770 1.350 . S
C765 N773 1.427 . S
C766 H757 0.930 . S
C766 C764 1.378 . S
C766 C767 1.367 . S
C767 C766 1.367 . S
C767 C769 1.433 . S
C768 C764 1.350 . S
C768 C765 1.463 . S
C768 N772 1.427 . S
C769 H759 0.929 . S
C769 C767 1.433 . S
C769 N772 1.384 . S
C770 H761 0.929 . S
C770 C762 1.378 . S
C770 C765 1.350 . S
C771 H758 0.929 . S
C771 C763 1.433 . S
C771 N773 1.384 1_554 S
N772 C768 1.427 . S
N772 C769 1.384 . S
N773 C765 1.427 . S
N773 C771 1.384 1_556 S
H774 C780 0.930 . S
H775 C784 0.930 . S
H776 C789 0.929 . S
H777 C787 0.929 . S
H778 C782 0.929 . S
H779 C788 0.929 . S
C780 H774 0.930 . S
C780 C781 1.367 . S
C780 C788 1.378 . S
C781 C780 1.367 . S
C781 C789 1.433 . S
C782 H778 0.929 . S
C782 C784 1.378 . S
C782 C786 1.350 . S
C783 C786 1.463 . S
C783 C788 1.350 1_565 S
C783 N791 1.427 . S
C784 H775 0.930 . S
C784 C782 1.378 . S
C784 C785 1.367 . S
C785 C784 1.367 . S
C785 C787 1.433 . S
C786 C782 1.350 . S
C786 C783 1.463 . S
C786 N790 1.427 . S
C787 H777 0.929 . S
C787 C785 1.433 . S
C787 N790 1.384 . S
C788 H779 0.929 . S
C788 C780 1.378 . S
C788 C783 1.350 1_545 S
C789 H776 0.929 . S
C789 C781 1.433 . S
C789 N791 1.384 1_545 S
N790 C786 1.427 . S
N790 C787 1.384 . S
N791 C783 1.427 . S
N791 C789 1.384 1_565 S
H792 C798 0.930 . S
H793 C802 0.930 . S
H794 C807 0.929 . S
H795 C805 0.929 . S
H796 C800 0.929 . S
H797 C806 0.929 . S
C798 H792 0.930 . S
C798 C799 1.367 . S
C798 C806 1.378 . S
C799 C798 1.367 . S
C799 C807 1.433 . S
C800 H796 0.929 . S
C800 C802 1.378 . S
C800 C804 1.350 . S
C801 C804 1.463 . S
C801 C806 1.350 . S
C801 N809 1.427 . S
C802 H793 0.930 . S
C802 C800 1.378 . S
C802 C803 1.367 . S
C803 C802 1.367 . S
C803 C805 1.433 . S
C804 C800 1.350 . S
C804 C801 1.463 . S
C804 N808 1.427 . S
C805 H795 0.929 . S
C805 C803 1.433 . S
C805 N808 1.384 . S
C806 H797 0.929 . S
C806 C798 1.378 . S
C806 C801 1.350 . S
C807 H794 0.929 . S
C807 C799 1.433 . S
C807 N809 1.384 . S
N808 C804 1.427 . S
N808 C805 1.384 . S
N809 C801 1.427 . S
N809 C807 1.384 . S
H810 C816 0.930 . S
H811 C820 0.930 . S
H812 C825 0.929 . S
H813 C823 0.929 . S
H814 C818 0.929 . S
H815 C824 0.929 . S
C816 H810 0.930 . S
C816 C817 1.367 . S
C816 C824 1.378 . S
C817 C816 1.367 . S
C817 C825 1.433 . S
C818 H814 0.929 . S
C818 C820 1.378 . S
C818 C822 1.350 . S
C819 C822 1.463 . S
C819 C824 1.350 1_545 S
C819 N827 1.427 1_545 S
C820 H811 0.930 . S
C820 C818 1.378 . S
C820 C821 1.367 . S
C821 C820 1.367 . S
C821 C823 1.433 . S
C822 C818 1.350 . S
C822 C819 1.463 . S
C822 N826 1.427 . S
C823 H813 0.929 . S
C823 C821 1.433 . S
C823 N826 1.384 . S
C824 H815 0.929 . S
C824 C816 1.378 . S
C824 C819 1.350 1_565 S
C825 H812 0.929 . S
C825 C817 1.433 . S
C825 N827 1.384 . S
N826 C822 1.427 . S
N826 C823 1.384 . S
N827 C819 1.427 1_565 S
N827 C825 1.384 . S
H828 C834 0.930 . S
H829 C838 0.930 . S
H830 C843 0.929 . S
H831 C841 0.929 . S
H832 C836 0.929 . S
H833 C842 0.929 . S
C834 H828 0.930 . S
C834 C835 1.367 . S
C834 C842 1.378 . S
C835 C834 1.367 . S
C835 C843 1.433 1_565 S
C836 H832 0.929 . S
C836 C838 1.378 . S
C836 C840 1.350 . S
C837 C840 1.463 . S
C837 C842 1.350 . S
C837 N845 1.427 . S
C838 H829 0.930 . S
C838 C836 1.378 . S
C838 C839 1.367 . S
C839 C838 1.367 . S
C839 C841 1.433 . S
C840 C836 1.350 . S
C840 C837 1.463 . S
C840 N844 1.427 . S
C841 H831 0.929 . S
C841 C839 1.433 . S
C841 N844 1.384 . S
C842 H833 0.929 . S
C842 C834 1.378 . S
C842 C837 1.350 . S
C843 H830 0.929 . S
C843 C835 1.433 1_545 S
C843 N845 1.384 1_545 S
N844 C840 1.427 . S
N844 C841 1.384 . S
N845 C837 1.427 . S
N845 C843 1.384 1_565 S
H846 C852 0.930 . S
H847 C856 0.930 . S
H848 C861 0.929 . S
H849 C859 0.929 . S
H850 C854 0.929 . S
H851 C860 0.929 . S
C852 H846 0.930 . S
C852 C853 1.367 . S
C852 C860 1.378 . S
C853 C852 1.367 . S
C853 C861 1.433 . S
C854 H850 0.929 . S
C854 C856 1.378 . S
C854 C858 1.350 . S
C855 C858 1.463 1_545 S
C855 C860 1.350 . S
C855 N863 1.427 . S
C856 H847 0.930 . S
C856 C854 1.378 . S
C856 C857 1.367 . S
C857 C856 1.367 . S
C857 C859 1.433 . S
C858 C854 1.350 . S
C858 C855 1.463 1_565 S
C858 N862 1.427 . S
C859 H849 0.929 . S
C859 C857 1.433 . S
C859 N862 1.384 . S
C860 H851 0.929 . S
C860 C852 1.378 . S
C860 C855 1.350 . S
C861 H848 0.929 . S
C861 C853 1.433 . S
C861 N863 1.384 . S
N862 C858 1.427 . S
N862 C859 1.384 . S
N863 C855 1.427 . S
N863 C861 1.384 . S
H864 C870 0.930 . S
H865 C874 0.930 . S
H866 C879 0.929 . S
H867 C877 0.929 . S
H868 C872 0.929 . S
H869 C878 0.929 . S
C870 H864 0.930 . S
C870 C871 1.367 . S
C870 C878 1.378 . S
C871 C870 1.367 . S
C871 C879 1.433 . S
C872 H868 0.929 . S
C872 C874 1.378 . S
C872 C876 1.350 . S
C873 C876 1.463 . S
C873 C878 1.350 . S
C873 N881 1.427 . S
C874 H865 0.930 . S
C874 C872 1.378 . S
C874 C875 1.367 . S
C875 C874 1.367 . S
C875 C877 1.433 . S
C876 C872 1.350 . S
C876 C873 1.463 . S
C876 N880 1.427 . S
C877 H867 0.929 . S
C877 C875 1.433 . S
C877 N880 1.384 . S
C878 H869 0.929 . S
C878 C870 1.378 . S
C878 C873 1.350 . S
C879 H866 0.929 . S
C879 C871 1.433 . S
C879 N881 1.384 . S
N880 C876 1.427 . S
N880 C877 1.384 . S
N881 C873 1.427 . S
N881 C879 1.384 . S
H882 C888 0.930 . S
H883 C892 0.930 . S
H884 C897 0.929 . S
H885 C895 0.929 . S
H886 C890 0.929 . S
H887 C896 0.929 . S
C888 H882 0.930 . S
C888 C889 1.367 . S
C888 C896 1.378 . S
C889 C888 1.367 . S
C889 C897 1.433 . S
C890 H886 0.929 . S
C890 C892 1.378 . S
C890 C894 1.350 . S
C891 C894 1.463 1_545 S
C891 C896 1.350 . S
C891 N899 1.427 . S
C892 H883 0.930 . S
C892 C890 1.378 . S
C892 C893 1.367 . S
C893 C892 1.367 . S
C893 C895 1.433 . S
C894 C890 1.350 . S
C894 C891 1.463 1_565 S
C894 N898 1.427 . S
C895 H885 0.929 . S
C895 C893 1.433 . S
C895 N898 1.384 . S
C896 H887 0.929 . S
C896 C888 1.378 . S
C896 C891 1.350 . S
C897 H884 0.929 . S
C897 C889 1.433 . S
C897 N899 1.384 . S
N898 C894 1.427 . S
N898 C895 1.384 . S
N899 C891 1.427 . S
N899 C897 1.384 . S
H900 C906 0.930 . S
H901 C910 0.930 . S
H902 C915 0.929 . S
H903 C913 0.929 . S
H904 C908 0.929 . S
H905 C914 0.929 . S
C906 H900 0.930 . S
C906 C907 1.367 . S
C906 C914 1.378 . S
C907 C906 1.367 . S
C907 C915 1.433 . S
C908 H904 0.929 . S
C908 C910 1.378 . S
C908 C912 1.350 . S
C909 C912 1.463 . S
C909 C914 1.350 . S
C909 N917 1.427 . S
C910 H901 0.930 . S
C910 C908 1.378 . S
C910 C911 1.367 . S
C911 C910 1.367 . S
C911 C913 1.433 . S
C912 C908 1.350 . S
C912 C909 1.463 . S
C912 N916 1.427 . S
C913 H903 0.929 . S
C913 C911 1.433 . S
C913 N916 1.384 . S
C914 H905 0.929 . S
C914 C906 1.378 . S
C914 C909 1.350 . S
C915 H902 0.929 . S
C915 C907 1.433 . S
C915 N917 1.384 . S
N916 C912 1.427 . S
N916 C913 1.384 . S
N917 C909 1.427 . S
N917 C915 1.384 . S
H918 C924 0.930 1_545 S
H919 C928 0.930 . S
H920 C933 0.929 . S
H921 C931 0.929 . S
H922 C926 0.929 . S
H923 C932 0.929 . S
C924 H918 0.930 1_565 S
C924 C925 1.367 . S
C924 C932 1.378 1_565 S
C925 C924 1.367 . S
C925 C933 1.433 . S
C926 H922 0.929 . S
C926 C928 1.378 . S
C926 C930 1.350 . S
C927 C930 1.463 . S
C927 C932 1.350 . S
C927 N935 1.427 1_545 S
C928 H919 0.930 . S
C928 C926 1.378 . S
C928 C929 1.367 . S
C929 C928 1.367 . S
C929 C931 1.433 . S
C930 C926 1.350 . S
C930 C927 1.463 . S
C930 N934 1.427 . S
C931 H921 0.929 . S
C931 C929 1.433 . S
C931 N934 1.384 . S
C932 H923 0.929 . S
C932 C924 1.378 1_545 S
C932 C927 1.350 . S
C933 H920 0.929 . S
C933 C925 1.433 . S
C933 N935 1.384 . S
N934 C930 1.427 . S
N934 C931 1.384 . S
N935 C927 1.427 1_565 S
N935 C933 1.384 . S
H936 C942 0.930 . S
H937 C946 0.930 . S
H938 C951 0.929 . S
H939 C949 0.929 . S
H940 C944 0.929 . S
H941 C950 0.929 . S
C942 H936 0.930 . S
C942 C943 1.367 . S
C942 C950 1.378 . S
C943 C942 1.367 . S
C943 C951 1.433 . S
C944 H940 0.929 . S
C944 C946 1.378 . S
C944 C948 1.350 . S
C945 C948 1.463 . S
C945 C950 1.350 . S
C945 N953 1.427 . S
C946 H937 0.930 . S
C946 C944 1.378 . S
C946 C947 1.367 . S
C947 C946 1.367 . S
C947 C949 1.433 . S
C948 C944 1.350 . S
C948 C945 1.463 . S
C948 N952 1.427 . S
C949 H939 0.929 . S
C949 C947 1.433 . S
C949 N952 1.384 . S
C950 H941 0.929 . S
C950 C942 1.378 . S
C950 C945 1.350 . S
C951 H938 0.929 . S
C951 C943 1.433 . S
C951 N953 1.384 . S
N952 C948 1.427 . S
N952 C949 1.384 . S
N953 C945 1.427 . S
N953 C951 1.384 . S
H954 C960 0.930 . S
H955 C964 0.930 . S
H956 C969 0.929 . S
H957 C967 0.929 . S
H958 C962 0.929 . S
H959 C968 0.929 . S
C960 H954 0.930 . S
C960 C961 1.367 . S
C960 C968 1.378 . S
C961 C960 1.367 . S
C961 C969 1.433 . S
C962 H958 0.929 . S
C962 C964 1.378 . S
C962 C966 1.350 . S
C963 C966 1.463 . S
C963 C968 1.350 1_565 S
C963 N971 1.427 . S
C964 H955 0.930 . S
C964 C962 1.378 . S
C964 C965 1.367 . S
C965 C964 1.367 . S
C965 C967 1.433 . S
C966 C962 1.350 . S
C966 C963 1.463 . S
C966 N970 1.427 . S
C967 H957 0.929 . S
C967 C965 1.433 . S
C967 N970 1.384 . S
C968 H959 0.929 . S
C968 C960 1.378 . S
C968 C963 1.350 1_545 S
C969 H956 0.929 . S
C969 C961 1.433 . S
C969 N971 1.384 1_545 S
N970 C966 1.427 . S
N970 C967 1.384 . S
N971 C963 1.427 . S
N971 C969 1.384 1_565 S
H972 C978 0.930 . S
H973 C982 0.930 . S
H974 C987 0.929 . S
H975 C985 0.929 . S
H976 C980 0.929 . S
H977 C986 0.929 . S
C978 H972 0.930 . S
C978 C979 1.367 . S
C978 C986 1.378 . S
C979 C978 1.367 . S
C979 C987 1.433 . S
C980 H976 0.929 . S
C980 C982 1.378 . S
C980 C984 1.350 . S
C981 C984 1.463 . S
C981 C986 1.350 . S
C981 N989 1.427 . S
C982 H973 0.930 . S
C982 C980 1.378 . S
C982 C983 1.367 . S
C983 C982 1.367 . S
C983 C985 1.433 . S
C984 C980 1.350 . S
C984 C981 1.463 . S
C984 N988 1.427 . S
C985 H975 0.929 . S
C985 C983 1.433 . S
C985 N988 1.384 . S
C986 H977 0.929 . S
C986 C978 1.378 . S
C986 C981 1.350 . S
C987 H974 0.929 . S
C987 C979 1.433 . S
C987 N989 1.384 . S
N988 C984 1.427 . S
N988 C985 1.384 . S
N989 C981 1.427 . S
N989 C987 1.384 . S
H990 C996 0.930 . S
H991 C1000 0.930 . S
H992 C1005 0.929 . S
H993 C1003 0.929 . S
H994 C998 0.929 . S
H995 C1004 0.929 . S
C996 H990 0.930 . S
C996 C997 1.367 . S
C996 C1004 1.378 . S
C997 C996 1.367 . S
C997 C1005 1.433 1_545 S
C998 H994 0.929 . S
C998 C1000 1.378 . S
C998 C1002 1.350 . S
C999 C1002 1.463 . S
C999 C1004 1.350 . S
C999 N1007 1.427 . S
C1000 H991 0.930 . S
C1000 C998 1.378 . S
C1000 C1001 1.367 . S
C1001 C1000 1.367 . S
C1001 C1003 1.433 . S
C1002 C998 1.350 . S
C1002 C999 1.463 . S
C1002 N1006 1.427 . S
C1003 H993 0.929 . S
C1003 C1001 1.433 . S
C1003 N1006 1.384 . S
C1004 H995 0.929 . S
C1004 C996 1.378 . S
C1004 C999 1.350 . S
C1005 H992 0.929 . S
C1005 C997 1.433 1_565 S
C1005 N1007 1.384 1_565 S
N1006 C1002 1.427 . S
N1006 C1003 1.384 . S
N1007 C999 1.427 . S
N1007 C1005 1.384 1_545 S
H1008 C1014 0.950 . S
H1009 C1018 0.930 . S
H1010 C1023 0.929 . S
H1011 C1021 0.929 . S
H1012 C1016 0.929 . S
H1013 C1022 0.929 . S
C1014 H1008 0.950 . S
C1014 C1015 1.367 . S
C1014 C1022 1.378 . S
C1015 C1014 1.367 . S
C1015 C1023 1.433 . S
C1016 H1012 0.929 . S
C1016 C1018 1.378 . S
C1016 C1020 1.350 . S
C1017 C1020 1.463 . S
C1017 C1022 1.350 . S
C1017 N1025 1.427 . S
C1018 H1009 0.930 . S
C1018 C1016 1.378 . S
C1018 C1019 1.367 . S
C1019 C1018 1.367 . S
C1019 C1021 1.433 . S
C1020 C1016 1.350 . S
C1020 C1017 1.463 . S
C1020 N1024 1.427 . S
C1021 H1011 0.929 . S
C1021 C1019 1.433 . S
C1021 N1024 1.384 . S
C1022 H1013 0.929 . S
C1022 C1014 1.378 . S
C1022 C1017 1.350 . S
C1023 H1010 0.929 . S
C1023 C1015 1.433 . S
C1023 N1025 1.384 . S
N1024 C1020 1.427 . S
N1024 C1021 1.384 . S
N1025 C1017 1.427 . S
N1025 C1023 1.384 . S
H1026 C1032 0.930 . S
H1027 C1036 0.930 . S
H1028 C1041 0.929 . S
H1029 C1039 0.929 . S
H1030 C1034 0.929 . S
H1031 C1040 0.929 . S
C1032 H1026 0.930 . S
C1032 C1033 1.367 . S
C1032 C1040 1.378 . S
C1033 C1032 1.367 . S
C1033 C1041 1.433 . S
C1034 H1030 0.929 . S
C1034 C1036 1.378 . S
C1034 C1038 1.350 . S
C1035 C1038 1.463 . S
C1035 C1040 1.350 . S
C1035 N1043 1.427 . S
C1036 H1027 0.930 . S
C1036 C1034 1.378 . S
C1036 C1037 1.367 . S
C1037 C1036 1.367 . S
C1037 C1039 1.433 . S
C1038 C1034 1.350 . S
C1038 C1035 1.463 . S
C1038 N1042 1.427 . S
C1039 H1029 0.929 . S
C1039 C1037 1.433 . S
C1039 N1042 1.384 . S
C1040 H1031 0.929 . S
C1040 C1032 1.378 . S
C1040 C1035 1.350 . S
C1041 H1028 0.929 . S
C1041 C1033 1.433 . S
C1041 N1043 1.384 . S
N1042 C1038 1.427 . S
N1042 C1039 1.384 . S
N1043 C1035 1.427 . S
N1043 C1041 1.384 . S
H1044 C1050 0.930 . S
H1045 C1054 0.930 . S
H1046 C1059 0.929 . S
H1047 C1057 0.929 . S
H1048 C1052 0.929 . S
H1049 C1058 0.929 . S
C1050 H1044 0.930 . S
C1050 C1051 1.367 . S
C1050 C1058 1.378 . S
C1051 C1050 1.367 . S
C1051 C1059 1.433 . S
C1052 H1048 0.929 . S
C1052 C1054 1.378 . S
C1052 C1056 1.350 . S
C1053 C1056 1.463 . S
C1053 C1058 1.350 . S
C1053 N1061 1.427 . S
C1054 H1045 0.930 . S
C1054 C1052 1.378 . S
C1054 C1055 1.367 . S
C1055 C1054 1.367 . S
C1055 C1057 1.433 . S
C1056 C1052 1.350 . S
C1056 C1053 1.463 . S
C1056 N1060 1.427 . S
C1057 H1047 0.929 . S
C1057 C1055 1.433 . S
C1057 N1060 1.384 . S
C1058 H1049 0.929 . S
C1058 C1050 1.378 . S
C1058 C1053 1.350 . S
C1059 H1046 0.929 . S
C1059 C1051 1.433 . S
C1059 N1061 1.384 . S
N1060 C1056 1.427 . S
N1060 C1057 1.384 . S
N1061 C1053 1.427 . S
N1061 C1059 1.384 . S
H1062 C1068 0.930 . S
H1063 C1072 0.930 . S
H1064 C1077 0.929 . S
H1065 C1075 0.929 . S
H1066 C1070 0.929 . S
H1067 C1076 0.929 . S
C1068 H1062 0.930 . S
C1068 C1069 1.367 . S
C1068 C1076 1.378 . S
C1069 C1068 1.367 . S
C1069 C1077 1.433 . S
C1070 H1066 0.929 . S
C1070 C1072 1.378 . S
C1070 C1074 1.350 . S
C1071 C1074 1.463 . S
C1071 C1076 1.350 . S
C1071 N1079 1.427 . S
C1072 H1063 0.930 . S
C1072 C1070 1.378 . S
C1072 C1073 1.367 . S
C1073 C1072 1.367 . S
C1073 C1075 1.433 . S
C1074 C1070 1.350 . S
C1074 C1071 1.463 . S
C1074 N1078 1.427 . S
C1075 H1065 0.929 . S
C1075 C1073 1.433 . S
C1075 N1078 1.384 . S
C1076 H1067 0.929 . S
C1076 C1068 1.378 . S
C1076 C1071 1.350 . S
C1077 H1064 0.929 . S
C1077 C1069 1.433 . S
C1077 N1079 1.384 . S
N1078 C1074 1.427 . S
N1078 C1075 1.384 . S
N1079 C1071 1.427 . S
N1079 C1077 1.384 . S
H1080 C1086 0.930 . S
H1081 C1090 0.930 . S
H1082 C1095 0.929 . S
H1083 C1093 0.929 . S
H1084 C1088 0.929 . S
H1085 C1094 0.929 . S
C1086 H1080 0.930 . S
C1086 C1087 1.367 . S
C1086 C1094 1.378 . S
C1087 C1086 1.367 . S
C1087 C1095 1.433 . S
C1088 H1084 0.929 . S
C1088 C1090 1.378 . S
C1088 C1092 1.350 . S
C1089 C1092 1.463 . S
C1089 C1094 1.350 . S
C1089 N1097 1.427 . S
C1090 H1081 0.930 . S
C1090 C1088 1.378 . S
C1090 C1091 1.367 . S
C1091 C1090 1.367 . S
C1091 C1093 1.433 . S
C1092 C1088 1.350 . S
C1092 C1089 1.463 . S
C1092 N1096 1.427 . S
C1093 H1083 0.929 . S
C1093 C1091 1.433 . S
C1093 N1096 1.384 . S
C1094 H1085 0.929 . S
C1094 C1086 1.378 . S
C1094 C1089 1.350 . S
C1095 H1082 0.929 . S
C1095 C1087 1.433 . S
C1095 N1097 1.384 . S
N1096 C1092 1.427 . S
N1096 C1093 1.384 . S
N1097 C1089 1.427 . S
N1097 C1095 1.384 . S
H1098 C1104 0.930 . S
H1099 C1108 0.930 . S
H1100 C1113 0.929 . S
H1101 C1111 0.929 . S
H1102 C1106 0.929 . S
H1103 C1112 0.929 . S
C1104 H1098 0.930 . S
C1104 C1105 1.367 . S
C1104 C1112 1.378 . S
C1105 C1104 1.367 . S
C1105 C1113 1.433 . S
C1106 H1102 0.929 . S
C1106 C1108 1.378 . S
C1106 C1110 1.350 . S
C1107 C1110 1.463 . S
C1107 C1112 1.350 . S
C1107 N1115 1.427 . S
C1108 H1099 0.930 . S
C1108 C1106 1.378 . S
C1108 C1109 1.367 . S
C1109 C1108 1.367 . S
C1109 C1111 1.433 . S
C1110 C1106 1.350 . S
C1110 C1107 1.463 . S
C1110 N1114 1.427 . S
C1111 H1101 0.929 . S
C1111 C1109 1.433 . S
C1111 N1114 1.384 . S
C1112 H1103 0.929 . S
C1112 C1104 1.378 . S
C1112 C1107 1.350 . S
C1113 H1100 0.929 . S
C1113 C1105 1.433 . S
C1113 N1115 1.384 . S
N1114 C1110 1.427 . S
N1114 C1111 1.384 . S
N1115 C1107 1.427 . S
N1115 C1113 1.384 . S
H1116 C1122 0.930 . S
H1117 C1126 0.930 . S
H1118 C1131 0.929 . S
H1119 C1129 0.929 . S
H1120 C1124 0.929 . S
H1121 C1130 0.929 . S
C1122 H1116 0.930 . S
C1122 C1123 1.367 . S
C1122 C1130 1.378 . S
C1123 C1122 1.367 . S
C1123 C1131 1.433 . S
C1124 H1120 0.929 . S
C1124 C1126 1.378 . S
C1124 C1128 1.350 . S
C1125 C1128 1.463 . S
C1125 C1130 1.350 . S
C1125 N1133 1.427 . S
C1126 H1117 0.930 . S
C1126 C1124 1.378 . S
C1126 C1127 1.367 . S
C1127 C1126 1.367 . S
C1127 C1129 1.433 . S
C1128 C1124 1.350 . S
C1128 C1125 1.463 . S
C1128 N1132 1.427 . S
C1129 H1119 0.929 . S
C1129 C1127 1.433 . S
C1129 N1132 1.384 . S
C1130 H1121 0.929 . S
C1130 C1122 1.378 . S
C1130 C1125 1.350 . S
C1131 H1118 0.929 . S
C1131 C1123 1.433 . S
C1131 N1133 1.384 . S
N1132 C1128 1.427 . S
N1132 C1129 1.384 . S
N1133 C1125 1.427 . S
N1133 C1131 1.384 . S
H1134 C1140 0.930 . S
H1135 C1144 0.930 1_455 S
H1136 C1149 0.929 1_455 S
H1137 C1147 0.929 . S
H1138 C1142 0.929 1_455 S
H1139 C1148 0.929 . S
C1140 H1134 0.930 . S
C1140 C1141 1.367 . S
C1140 C1148 1.378 . S
C1141 C1140 1.367 . S
C1141 C1149 1.433 . S
C1142 H1138 0.929 1_655 S
C1142 C1144 1.378 . S
C1142 C1146 1.350 . S
C1143 C1146 1.463 . S
C1143 C1148 1.350 . S
C1143 N1151 1.427 . S
C1144 H1135 0.930 1_655 S
C1144 C1142 1.378 . S
C1144 C1145 1.367 . S
C1145 C1144 1.367 . S
C1145 C1147 1.433 . S
C1146 C1142 1.350 . S
C1146 C1143 1.463 . S
C1146 N1150 1.427 . S
C1147 H1137 0.929 . S
C1147 C1145 1.433 . S
C1147 N1150 1.384 . S
C1148 H1139 0.929 . S
C1148 C1140 1.378 . S
C1148 C1143 1.350 . S
C1149 H1136 0.929 1_655 S
C1149 C1141 1.433 . S
C1149 N1151 1.384 . S
N1150 C1146 1.427 . S
N1150 C1147 1.384 . S
N1151 C1143 1.427 . S
N1151 C1149 1.384 . S
H1152 C1158 0.930 . S
H1153 C1162 0.930 . S
H1154 C1167 0.929 . S
H1155 C1165 0.929 . S
H1156 C1160 0.929 . S
H1157 C1166 0.929 . S
C1158 H1152 0.930 . S
C1158 C1159 1.367 . S
C1158 C1166 1.378 . S
C1159 C1158 1.367 . S
C1159 C1167 1.433 . S
C1160 H1156 0.929 . S
C1160 C1162 1.378 . S
C1160 C1164 1.350 . S
C1161 C1164 1.463 . S
C1161 C1166 1.350 . S
C1161 N1169 1.427 . S
C1162 H1153 0.930 . S
C1162 C1160 1.378 . S
C1162 C1163 1.367 . S
C1163 C1162 1.367 . S
C1163 C1165 1.433 . S
C1164 C1160 1.350 . S
C1164 C1161 1.463 . S
C1164 N1168 1.427 . S
C1165 H1155 0.929 . S
C1165 C1163 1.433 . S
C1165 N1168 1.384 . S
C1166 H1157 0.929 . S
C1166 C1158 1.378 . S
C1166 C1161 1.350 . S
C1167 H1154 0.929 . S
C1167 C1159 1.433 . S
C1167 N1169 1.384 . S
N1168 C1164 1.427 . S
N1168 C1165 1.384 . S
N1169 C1161 1.427 . S
N1169 C1167 1.384 . S
H1170 C1176 0.930 . S
H1171 C1180 0.930 . S
H1172 C1185 0.929 . S
H1173 C1183 0.929 . S
H1174 C1178 0.929 . S
H1175 C1184 0.929 . S
C1176 H1170 0.930 . S
C1176 C1177 1.367 . S
C1176 C1184 1.378 . S
C1177 C1176 1.367 . S
C1177 C1185 1.433 . S
C1178 H1174 0.929 . S
C1178 C1180 1.378 . S
C1178 C1182 1.350 . S
C1179 C1182 1.463 . S
C1179 C1184 1.350 . S
C1179 N1187 1.427 . S
C1180 H1171 0.930 . S
C1180 C1178 1.378 . S
C1180 C1181 1.367 . S
C1181 C1180 1.367 . S
C1181 C1183 1.433 . S
C1182 C1178 1.350 . S
C1182 C1179 1.463 . S
C1182 N1186 1.427 . S
C1183 H1173 0.929 . S
C1183 C1181 1.433 . S
C1183 N1186 1.384 . S
C1184 H1175 0.929 . S
C1184 C1176 1.378 . S
C1184 C1179 1.350 . S
C1185 H1172 0.929 . S
C1185 C1177 1.433 . S
C1185 N1187 1.384 . S
N1186 C1182 1.427 . S
N1186 C1183 1.384 . S
N1187 C1179 1.427 . S
N1187 C1185 1.384 . S
H1188 C1194 0.930 . S
H1189 C1198 0.930 . S
H1190 C1203 0.929 . S
H1191 C1201 0.929 . S
H1192 C1196 0.929 . S
H1193 C1202 0.929 . S
C1194 H1188 0.930 . S
C1194 C1195 1.367 . S
C1194 C1202 1.378 . S
C1195 C1194 1.367 . S
C1195 C1203 1.433 . S
C1196 H1192 0.929 . S
C1196 C1198 1.378 . S
C1196 C1200 1.350 . S
C1197 C1200 1.463 . S
C1197 C1202 1.350 . S
C1197 N1205 1.427 . S
C1198 H1189 0.930 . S
C1198 C1196 1.378 . S
C1198 C1199 1.367 . S
C1199 C1198 1.367 . S
C1199 C1201 1.433 . S
C1200 C1196 1.350 . S
C1200 C1197 1.463 . S
C1200 N1204 1.427 . S
C1201 H1191 0.929 . S
C1201 C1199 1.433 . S
C1201 N1204 1.384 . S
C1202 H1193 0.929 . S
C1202 C1194 1.378 . S
C1202 C1197 1.350 . S
C1203 H1190 0.929 . S
C1203 C1195 1.433 . S
C1203 N1205 1.384 . S
N1204 C1200 1.427 . S
N1204 C1201 1.384 . S
N1205 C1197 1.427 . S
N1205 C1203 1.384 . S
H1206 C1212 0.930 . S
H1207 C1216 0.930 . S
H1208 C1221 0.929 . S
H1209 C1219 0.929 . S
H1210 C1214 0.929 . S
H1211 C1220 0.929 . S
C1212 H1206 0.930 . S
C1212 C1213 1.367 . S
C1212 C1220 1.378 . S
C1213 C1212 1.367 . S
C1213 C1221 1.433 . S
C1214 H1210 0.929 . S
C1214 C1216 1.378 . S
C1214 C1218 1.350 . S
C1215 C1218 1.463 . S
C1215 C1220 1.350 . S
C1215 N1223 1.427 . S
C1216 H1207 0.930 . S
C1216 C1214 1.378 . S
C1216 C1217 1.367 . S
C1217 C1216 1.367 . S
C1217 C1219 1.433 . S
C1218 C1214 1.350 . S
C1218 C1215 1.463 . S
C1218 N1222 1.427 . S
C1219 H1209 0.929 . S
C1219 C1217 1.433 . S
C1219 N1222 1.384 . S
C1220 H1211 0.929 . S
C1220 C1212 1.378 . S
C1220 C1215 1.350 . S
C1221 H1208 0.929 . S
C1221 C1213 1.433 . S
C1221 N1223 1.384 . S
N1222 C1218 1.427 . S
N1222 C1219 1.384 . S
N1223 C1215 1.427 . S
N1223 C1221 1.384 . S
H1224 C1230 0.930 . S
H1225 C1234 0.930 . S
H1226 C1239 0.929 . S
H1227 C1237 0.929 . S
H1228 C1232 0.929 . S
H1229 C1238 0.929 1_554 S
C1230 H1224 0.930 . S
C1230 C1231 1.367 . S
C1230 C1238 1.378 1_554 S
C1231 C1230 1.367 . S
C1231 C1239 1.433 1_554 S
C1232 H1228 0.929 . S
C1232 C1234 1.378 . S
C1232 C1236 1.350 . S
C1233 C1236 1.463 . S
C1233 C1238 1.350 . S
C1233 N1241 1.427 . S
C1234 H1225 0.930 . S
C1234 C1232 1.378 . S
C1234 C1235 1.367 . S
C1235 C1234 1.367 . S
C1235 C1237 1.433 . S
C1236 C1232 1.350 . S
C1236 C1233 1.463 . S
C1236 N1240 1.427 . S
C1237 H1227 0.929 . S
C1237 C1235 1.433 . S
C1237 N1240 1.384 . S
C1238 H1229 0.929 1_556 S
C1238 C1230 1.378 1_556 S
C1238 C1233 1.350 . S
C1239 H1226 0.929 . S
C1239 C1231 1.433 1_556 S
C1239 N1241 1.384 . S
N1240 C1236 1.427 . S
N1240 C1237 1.384 . S
N1241 C1233 1.427 . S
N1241 C1239 1.384 . S
H1242 C1248 0.930 . S
H1243 C1252 0.930 . S
H1244 C1257 0.929 . S
H1245 C1255 0.929 . S
H1246 C1250 0.929 . S
H1247 C1256 0.929 . S
C1248 H1242 0.930 . S
C1248 C1249 1.367 . S
C1248 C1256 1.378 . S
C1249 C1248 1.367 . S
C1249 C1257 1.433 . S
C1250 H1246 0.929 . S
C1250 C1252 1.378 . S
C1250 C1254 1.350 . S
C1251 C1254 1.463 . S
C1251 C1256 1.350 . S
C1251 N1259 1.427 . S
C1252 H1243 0.930 . S
C1252 C1250 1.378 . S
C1252 C1253 1.367 . S
C1253 C1252 1.367 . S
C1253 C1255 1.433 . S
C1254 C1250 1.350 . S
C1254 C1251 1.463 . S
C1254 N1258 1.427 . S
C1255 H1245 0.929 . S
C1255 C1253 1.433 . S
C1255 N1258 1.384 . S
C1256 H1247 0.929 . S
C1256 C1248 1.378 . S
C1256 C1251 1.350 . S
C1257 H1244 0.929 . S
C1257 C1249 1.433 . S
C1257 N1259 1.384 . S
N1258 C1254 1.427 . S
N1258 C1255 1.384 . S
N1259 C1251 1.427 . S
N1259 C1257 1.384 . S
H1260 C1266 0.930 . S
H1261 C1270 0.930 . S
H1262 C1275 0.929 . S
H1263 C1273 0.929 . S
H1264 C1268 0.929 . S
H1265 C1274 0.929 . S
C1266 H1260 0.930 . S
C1266 C1267 1.367 . S
C1266 C1274 1.378 . S
C1267 C1266 1.367 . S
C1267 C1275 1.433 . S
C1268 H1264 0.929 . S
C1268 C1270 1.378 . S
C1268 C1272 1.350 . S
C1269 C1272 1.463 . S
C1269 C1274 1.350 . S
C1269 N1277 1.427 . S
C1270 H1261 0.930 . S
C1270 C1268 1.378 . S
C1270 C1271 1.367 . S
C1271 C1270 1.367 . S
C1271 C1273 1.433 . S
C1272 C1268 1.350 . S
C1272 C1269 1.463 . S
C1272 N1276 1.427 . S
C1273 H1263 0.929 . S
C1273 C1271 1.433 . S
C1273 N1276 1.384 . S
C1274 H1265 0.929 . S
C1274 C1266 1.378 . S
C1274 C1269 1.350 . S
C1275 H1262 0.929 . S
C1275 C1267 1.433 . S
C1275 N1277 1.384 . S
N1276 C1272 1.427 . S
N1276 C1273 1.384 . S
N1277 C1269 1.427 . S
N1277 C1275 1.384 . S
H1278 C1284 0.930 . S
H1279 C1288 0.930 . S
H1280 C1293 0.929 . S
H1281 C1291 0.929 . S
H1282 C1286 0.929 . S
H1283 C1292 0.929 . S
C1284 H1278 0.930 . S
C1284 C1285 1.367 . S
C1284 C1292 1.378 . S
C1285 C1284 1.367 . S
C1285 C1293 1.433 . S
C1286 H1282 0.929 . S
C1286 C1288 1.378 . S
C1286 C1290 1.350 . S
C1287 C1290 1.463 . S
C1287 C1292 1.350 . S
C1287 N1295 1.427 . S
C1288 H1279 0.930 . S
C1288 C1286 1.378 . S
C1288 C1289 1.367 . S
C1289 C1288 1.367 . S
C1289 C1291 1.433 . S
C1290 C1286 1.350 . S
C1290 C1287 1.463 . S
C1290 N1294 1.427 . S
C1291 H1281 0.929 . S
C1291 C1289 1.433 . S
C1291 N1294 1.384 . S
C1292 H1283 0.929 . S
C1292 C1284 1.378 . S
C1292 C1287 1.350 . S
C1293 H1280 0.929 . S
C1293 C1285 1.433 . S
C1293 N1295 1.384 . S
N1294 C1290 1.427 . S
N1294 C1291 1.384 . S
N1295 C1287 1.427 . S
N1295 C1293 1.384 . S
C731 C641 1.926 . S
C727 C69 1.956 . S
C745 C125 0.735 . S
C749 C673 0.746 . S
C763 C217 1.943 . S
C767 C696 1.948 . S
C785 C600 1.545 . S
C781 C261 1.486 . S
C803 C683 1.640 . S
C799 C39 1.672 . S
C821 C712 1.740 . S
C817 C137 1.822 . S
C839 C616 1.677 . S
C835 C187 1.714 . S
C857 C651 1.934 . S
C853 C291 2.133 . S
C871 C51 0.704 . S
C875 C679 0.693 . S
C889 C365 2.031 . S
C893 C654 1.837 . S
C907 C199 0.747 . S
C911 C622 0.754 . S
C929 C711 1.610 . S
C925 C439 1.790 . S
C947 C655 1.833 . S
C943 C63 1.709 . S
C961 C335 1.480 . S
C965 C623 1.522 . S
C979 C211 1.687 . S
C983 C710 1.821 . S
C1001 C678 1.809 . S
C997 C409 1.754 1_545 S
C1015 C495 0.752 . S
C1019 C705 0.756 . S
C1033 C347 0.892 . S
C1037 C609 0.877 . S
C1051 C587 1.898 . S
C1055 C632 1.902 . S
C1069 C421 0.723 . S
C1073 C664 0.729 . S
C1091 C619 1.631 . S
C1087 C507 1.723 . S
C1105 C359 1.548 . S
C1109 C648 1.477 . S
C1123 C557 1.694 . S
C1127 C680 1.636 . S
C1145 C715 1.657 . S
C1141 C433 1.765 . S
C1159 C513 1.882 . S
C1163 C615 1.722 . S
C1177 C143 1.820 . S
C1181 C718 1.631 . S
C1195 C569 0.717 . S
C1199 C686 0.727 . S
C1217 C647 1.401 . S
C1213 C285 1.462 . S
C1235 C719 1.634 . S
C1231 C483 1.601 . S
C1253 C687 1.788 . S
C1249 C113 1.744 . S
C1271 C646 1.814 . S
C1267 C581 1.671 . S
C1289 C614 0.989 . S
C1285 C273 0.998 . S
