# Generated by pormake.
# Topology pyr, (3,6)-cn, num edge types: 1
# Building blocks:
#     Node 0, Type 0, BuildingBlock: BETDAH_clean_linker_0, # of connection points: 3
#     Node 1, Type 0, BuildingBlock: BETDAH_clean_linker_0, # of connection points: 3
#     Node 2, Type 0, BuildingBlock: BETDAH_clean_linker_0, # of connection points: 3
#     Node 3, Type 0, BuildingBlock: BETDAH_clean_linker_0, # of connection points: 3
#     Node 4, Type 0, BuildingBlock: BETDAH_clean_linker_0, # of connection points: 3
#     Node 5, Type 0, BuildingBlock: BETDAH_clean_linker_0, # of connection points: 3
#     Node 6, Type 0, BuildingBlock: BETDAH_clean_linker_0, # of connection points: 3
#     Node 7, Type 0, BuildingBlock: BETDAH_clean_linker_0, # of connection points: 3
#     Node 8, Type 1, BuildingBlock: BETFEN_clean_sbu_0, # of connection points: 6
#     Node 9, Type 1, BuildingBlock: BETFEN_clean_sbu_0, # of connection points: 6
#     Node 10, Type 1, BuildingBlock: BETFEN_clean_sbu_0, # of connection points: 6
#     Node 11, Type 1, BuildingBlock: BETFEN_clean_sbu_0, # of connection points: 6
#     Edge 12, Type (0, 1), BuildingBlock: MIFKUJ_clean_linker_0, # of connection points: 2
#     Edge 13, Type (0, 1), BuildingBlock: MIFKUJ_clean_linker_0, # of connection points: 2
#     Edge 14, Type (0, 1), BuildingBlock: MIFKUJ_clean_linker_0, # of connection points: 2
#     Edge 15, Type (0, 1), BuildingBlock: MIFKUJ_clean_linker_0, # of connection points: 2
#     Edge 16, Type (0, 1), BuildingBlock: MIFKUJ_clean_linker_0, # of connection points: 2
#     Edge 17, Type (0, 1), BuildingBlock: MIFKUJ_clean_linker_0, # of connection points: 2
#     Edge 18, Type (0, 1), BuildingBlock: MIFKUJ_clean_linker_0, # of connection points: 2
#     Edge 19, Type (0, 1), BuildingBlock: MIFKUJ_clean_linker_0, # of connection points: 2
#     Edge 20, Type (0, 1), BuildingBlock: MIFKUJ_clean_linker_0, # of connection points: 2
#     Edge 21, Type (0, 1), BuildingBlock: MIFKUJ_clean_linker_0, # of connection points: 2
#     Edge 22, Type (0, 1), BuildingBlock: MIFKUJ_clean_linker_0, # of connection points: 2
#     Edge 23, Type (0, 1), BuildingBlock: MIFKUJ_clean_linker_0, # of connection points: 2
#     Edge 24, Type (0, 1), BuildingBlock: MIFKUJ_clean_linker_0, # of connection points: 2
#     Edge 25, Type (0, 1), BuildingBlock: MIFKUJ_clean_linker_0, # of connection points: 2
#     Edge 26, Type (0, 1), BuildingBlock: MIFKUJ_clean_linker_0, # of connection points: 2
#     Edge 27, Type (0, 1), BuildingBlock: MIFKUJ_clean_linker_0, # of connection points: 2
#     Edge 28, Type (0, 1), BuildingBlock: MIFKUJ_clean_linker_0, # of connection points: 2
#     Edge 29, Type (0, 1), BuildingBlock: MIFKUJ_clean_linker_0, # of connection points: 2
#     Edge 30, Type (0, 1), BuildingBlock: MIFKUJ_clean_linker_0, # of connection points: 2
#     Edge 31, Type (0, 1), BuildingBlock: MIFKUJ_clean_linker_0, # of connection points: 2
#     Edge 32, Type (0, 1), BuildingBlock: MIFKUJ_clean_linker_0, # of connection points: 2
#     Edge 33, Type (0, 1), BuildingBlock: MIFKUJ_clean_linker_0, # of connection points: 2
#     Edge 34, Type (0, 1), BuildingBlock: MIFKUJ_clean_linker_0, # of connection points: 2
#     Edge 35, Type (0, 1), BuildingBlock: MIFKUJ_clean_linker_0, # of connection points: 2
# Relax obj value: 0.127
# Max RMSD: 0.272
# Mean RMSD: 0.129
data_MOF--net-pyr--node1-BETFEN_clean_sbu_0--node2-BETDAH_clean_linker_0--edge1-MIFKUJ_clean_linker_0
_symmetry_space_group_name_H-M    P1
_symmetry_Int_Tables_number       1
_symmetry_cell_setting            triclinic
loop_
_symmetry_equiv_pos_as_xyz
'x, y, z'
_cell_length_a     46.242623
_cell_length_b     51.411985
_cell_length_c     50.889273
_cell_angle_alpha  91.2697
_cell_angle_beta   100.34051
_cell_angle_gamma 113.26946
loop_
_atom_site_label
_atom_site_type_symbol
_atom_site_fract_x
_atom_site_fract_y
_atom_site_fract_z
_atom_type_partial_charge
H0 H 0.36367 0.29444 0.29196 0.0
H1 H 0.4182 0.36475 0.25231 0.0
H2 H 0.35381 0.37398 0.29952 0.0
C3 C 0.37085 0.31653 0.28801 0.0
C4 C 0.35674 0.33302 0.29853 0.0
C5 C 0.39274 0.32765 0.27117 0.0
C6 C 0.40128 0.35591 0.26531 0.0
C7 C 0.3871 0.37253 0.27526 0.0
C8 C 0.36456 0.361 0.29167 0.0
N9 N 0.39565 0.40072 0.26826 0.0
C10 C 0.37265 0.41137 0.25975 0.0
H11 H 0.35365 0.84034 0.74758 0.0
H12 H 0.29223 0.88501 0.72862 0.0
H13 H 0.30049 0.83141 0.66697 0.0
C14 C 0.33686 0.84536 0.73311 0.0
C15 C 0.32863 0.83335 0.70634 0.0
C16 C 0.32401 0.86408 0.74138 0.0
C17 C 0.30233 0.87069 0.72243 0.0
C18 C 0.2936 0.85855 0.69559 0.0
C19 C 0.30686 0.84009 0.68781 0.0
N20 N 0.27185 0.86437 0.67561 0.0
C21 C 0.25606 0.88178 0.67955 0.0
H22 H 0.67042 0.33268 0.8821 0.0
H23 H 0.65181 0.37975 0.81727 0.0
H24 H 0.57893 0.29874 0.82707 0.0
C25 C 0.65458 0.33416 0.86423 0.0
C26 C 0.62359 0.31262 0.85622 0.0
C27 C 0.66481 0.3584 0.85035 0.0
C28 C 0.64389 0.36096 0.82787 0.0
C29 C 0.6129 0.33917 0.81924 0.0
C30 C 0.60289 0.31533 0.83365 0.0
N31 N 0.591 0.34046 0.79638 0.0
C32 C 0.59803 0.36171 0.77912 0.0
H33 H 0.84528 0.72806 0.38635 0.0
H34 H 0.90786 0.72687 0.33327 0.0
H35 H 0.834 0.6486 0.34762 0.0
C36 C 0.85198 0.71637 0.3723 0.0
C37 C 0.83579 0.6866 0.36808 0.0
C38 C 0.87798 0.73125 0.36004 0.0
C39 C 0.88755 0.7158 0.34248 0.0
C40 C 0.87129 0.68581 0.33771 0.0
C41 C 0.84598 0.67161 0.35095 0.0
N42 N 0.88119 0.66854 0.32214 0.0
C43 C 0.89484 0.67456 0.29935 0.0
H44 H 0.74284 0.74815 0.80427 0.0
H45 H 0.65584 0.7045 0.83311 0.0
H46 H 0.66033 0.76743 0.77798 0.0
C47 C 0.71817 0.74457 0.80455 0.0
C48 C 0.70365 0.76004 0.78895 0.0
C49 C 0.70123 0.72464 0.82067 0.0
C50 C 0.66923 0.71988 0.82081 0.0
C51 C 0.65459 0.73539 0.80562 0.0
C52 C 0.67178 0.75547 0.78971 0.0
N53 N 0.62262 0.73074 0.80682 0.0
C54 C 0.61467 0.75317 0.81302 0.0
H55 H 0.77753 0.19397 0.35084 0.0
H56 H 0.82433 0.25784 0.41816 0.0
H57 H 0.75235 0.26597 0.35674 0.0
C58 C 0.78049 0.2137 0.36139 0.0
C59 C 0.76238 0.22884 0.35038 0.0
C60 C 0.80302 0.22409 0.38568 0.0
C61 C 0.807 0.24961 0.39936 0.0
C62 C 0.78815 0.26428 0.38952 0.0
C63 C 0.76589 0.25394 0.36494 0.0
N64 N 0.79305 0.28976 0.4046 0.0
C65 C 0.77137 0.30256 0.40213 0.0
H66 H 0.37329 0.75501 0.20459 0.0
H67 H 0.37035 0.7123 0.27649 0.0
H68 H 0.42706 0.80235 0.28073 0.0
C69 C 0.38093 0.75562 0.2261 0.0
C70 C 0.40182 0.78163 0.24098 0.0
C71 C 0.3694 0.73048 0.23867 0.0
C72 C 0.3793 0.73151 0.26661 0.0
C73 C 0.40034 0.75751 0.28176 0.0
C74 C 0.41123 0.78237 0.26887 0.0
N75 N 0.41047 0.75966 0.31004 0.0
C76 C 0.41107 0.73703 0.32422 0.0
H77 H 0.19079 0.36852 0.68977 0.0
H78 H 0.21918 0.44859 0.73664 0.0
H79 H 0.13987 0.37453 0.75108 0.0
C80 C 0.18757 0.38141 0.7052 0.0
C81 C 0.1628 0.36837 0.71921 0.0
C82 C 0.20828 0.41039 0.71105 0.0
C83 C 0.20388 0.42613 0.73187 0.0
C84 C 0.1796 0.41362 0.7466 0.0
C85 C 0.1588 0.3845 0.74013 0.0
N86 N 0.17779 0.43167 0.76751 0.0
C87 C 0.15599 0.426 0.78472 0.0
Pr88 Pr 0.99549 0.03282 0.54845 0.0
Pr89 Pr 0.05572 0.06706 0.53304 0.0
C90 C 0.94257 0.99245 0.56079 0.0
C91 C 0.92915 0.97409 0.58126 0.0
C92 C 0.9316 0.98538 0.60737 0.0
C93 C 0.91543 0.96781 0.62533 0.0
C94 C 0.8965 0.93868 0.61749 0.0
C95 C 0.89517 0.92733 0.59168 0.0
C96 C 0.91127 0.94488 0.57376 0.0
C97 C 0.02525 0.08791 0.57574 0.0
C98 C 0.06262 0.02853 0.58042 0.0
C99 C 0.10745 0.10753 0.5191 0.0
C100 C 0.11852 0.12383 0.49657 0.0
C101 C 0.13023 0.1128 0.47738 0.0
C102 C 0.14378 0.12943 0.45782 0.0
C103 C 0.14608 0.15749 0.45707 0.0
C104 C 0.13349 0.16822 0.47574 0.0
C105 C 0.11998 0.15161 0.49535 0.0
C106 C 0.02527 0.01224 0.50494 0.0
C107 C 0.98902 0.07251 0.50213 0.0
O108 O 0.96208 0.98647 0.54855 0.0
O109 O 0.9503 0.01973 0.56516 0.0
O110 O 0.03963 0.07201 0.57246 0.0
O111 O 0.99489 0.0755 0.56499 0.0
O112 O 0.07802 0.05322 0.57189 0.0
O113 O 0.03123 0.01476 0.57203 0.0
O114 O 0.08729 0.11328 0.53063 0.0
O115 O 0.10173 0.08048 0.51733 0.0
O116 O 1.01126 0.02826 0.5089 0.0
O117 O 0.05577 0.02456 0.51522 0.0
O118 O 0.97343 0.04758 0.51012 0.0
O119 O 0.02041 0.08591 0.51041 0.0
H120 H 0.94524 0.00788 0.61367 0.0
H121 H 0.91678 0.97727 0.64498 0.0
H122 H 0.8813 0.9049 0.58518 0.0
H123 H 0.90905 0.93572 0.55373 0.0
H124 H 0.12966 0.09156 0.47781 0.0
H125 H 0.15293 0.12044 0.44351 0.0
H126 H 0.13525 0.18987 0.47589 0.0
H127 H 0.11153 0.16085 0.51005 0.0
Pr128 Pr 0.49311 0.04699 0.06024 0.0
Pr129 Pr 0.55798 0.04726 0.04463 0.0
C130 C 0.44628 0.03941 0.08727 0.0
C131 C 0.43828 0.0599 0.10171 0.0
C132 C 0.44403 0.08673 0.09262 0.0
C133 C 0.4392 0.10723 0.10745 0.0
C134 C 0.42877 0.10143 0.1318 0.0
C135 C 0.42292 0.0745 0.14086 0.0
C136 C 0.42762 0.05386 0.12588 0.0
C137 C 0.51911 0.09293 0.03065 0.0
C138 C 0.5665 0.09098 0.09536 0.0
C139 C 0.60384 0.0451 0.0199 0.0
C140 C 0.60445 0.02592 0.99821 0.0
C141 C 0.62536 0.01212 1.00323 0.0
C142 C 0.6238 0.99133 0.98424 0.0
C143 C 0.60138 0.98408 0.95977 0.0
C144 C 0.58121 0.99862 0.95429 0.0
C145 C 0.58265 0.01932 0.97339 0.0
C146 C 0.53147 0.01021 0.08152 0.0
C147 C 0.48554 0.0094 1.00425 0.0
O148 O 0.47344 0.03787 0.09818 0.0
O149 O 0.44179 0.03939 0.06104 0.0
O150 O 0.5301 0.07483 0.03773 0.0
O151 O 0.4925 0.08734 0.03898 0.0
O152 O 0.58052 0.08687 0.07616 0.0
O153 O 0.53558 0.07614 0.09521 0.0
O154 O 0.58863 0.06152 0.01332 0.0
O155 O 0.59859 0.03389 0.04231 0.0
O156 O 0.51594 0.01485 0.06051 0.0
O157 O 0.56227 0.02417 0.08364 0.0
O158 O 0.47024 0.01367 0.02241 0.0
O159 O 0.51731 0.02062 1.00775 0.0
H160 H 0.45294 0.09212 0.07432 0.0
H161 H 0.44449 0.12793 0.10019 0.0
H162 H 0.41475 0.06941 0.1595 0.0
H163 H 0.4235 0.0334 0.13337 0.0
H164 H 0.64234 0.01686 0.02221 0.0
H165 H 0.63989 0.98068 0.98882 0.0
H166 H 0.56358 0.99328 0.93565 0.0
H167 H 0.56616 0.02957 0.96901 0.0
Pr168 Pr 0.53526 0.57872 0.55593 0.0
Pr169 Pr 0.51664 0.51808 0.52927 0.0
C170 C 0.53383 0.62879 0.57068 0.0
C171 C 0.51471 0.64018 0.58409 0.0
C172 C 0.51842 0.64275 0.61219 0.0
C173 C 0.501 0.65465 0.6244 0.0
C174 C 0.47949 0.66418 0.60877 0.0
C175 C 0.47559 0.6613 0.58068 0.0
C176 C 0.49309 0.64958 0.56851 0.0
C177 C 0.56188 0.54634 0.5863 0.0
C178 C 0.46741 0.52457 0.56535 0.0
C179 C 0.51661 0.46841 0.51121 0.0
C180 C 0.53753 0.4586 0.49861 0.0
C181 C 0.52715 0.44613 0.47191 0.0
C182 C 0.54631 0.43622 0.45987 0.0
C183 C 0.57623 0.43837 0.47435 0.0
C184 C 0.5867 0.45106 0.50104 0.0
C185 C 0.56761 0.46109 0.51303 0.0
C186 C 0.49036 0.55103 0.49941 0.0
C187 C 0.58478 0.57172 0.52082 0.0
O188 O 0.51972 0.61456 0.54702 0.0
O189 O 0.55201 0.61813 0.58531 0.0
O190 O 0.53344 0.53744 0.57297 0.0
O191 O 0.5776 0.57357 0.58549 0.0
O192 O 0.47561 0.50603 0.55366 0.0
O193 O 0.48443 0.55241 0.56662 0.0
O194 O 0.52703 0.47913 0.5364 0.0
O195 O 0.50192 0.48193 0.49659 0.0
O196 O 0.51888 0.55938 0.5123 0.0
O197 O 0.47407 0.52404 0.50072 0.0
O198 O 0.57445 0.59006 0.52985 0.0
O199 O 0.56952 0.54399 0.52202 0.0
H200 H 0.53495 0.63581 0.6248 0.0
H201 H 0.50438 0.65643 0.64608 0.0
H202 H 0.45967 0.66888 0.56809 0.0
H203 H 0.48999 0.64822 0.54683 0.0
H204 H 0.50408 0.44392 0.46033 0.0
H205 H 0.53766 0.42688 0.43919 0.0
H206 H 0.60933 0.45265 0.51296 0.0
H207 H 0.57636 0.47051 0.53368 0.0
Pr208 Pr 0.02468 0.57789 0.02222 0.0
Pr209 Pr 0.02228 0.53024 0.05558 0.0
C210 C 1.01459 0.61773 0.99293 0.0
C211 C 0.98859 0.62722 0.98503 0.0
C212 C 0.9906 0.64582 0.96511 0.0
C213 C 0.96473 0.65296 0.95551 0.0
C214 C 0.93639 0.64154 0.96568 0.0
C215 C 0.93491 0.62356 0.98631 0.0
C216 C 0.96077 0.61633 0.99581 0.0
C217 C 0.08441 0.58551 0.05324 0.0
C218 C 0.99994 0.57664 0.08016 0.0
C219 C 0.0345 0.49178 0.0856 0.0
C220 C 0.06337 0.48731 0.09709 0.0
C221 C 0.06099 0.4655 0.11363 0.0
C222 C 0.08858 0.46193 0.12576 0.0
C223 C 0.11904 0.48015 0.12152 0.0
C224 C 0.12125 0.50204 0.10485 0.0
C225 C 0.09359 0.50558 0.09272 0.0
C226 C 0.96241 0.52146 0.02394 0.0
C227 C 0.04681 0.5315 0.99739 0.0
O228 O 1.00878 0.59223 0.98269 0.0
O229 O 0.02885 0.62299 0.01826 0.0
O230 O 0.05823 0.57651 0.06105 0.0
O231 O 0.08087 0.59263 0.02896 0.0
O232 O 1.01398 0.5592 0.08688 0.0
O233 O 0.99622 0.58334 0.05515 0.0
O234 O 0.03307 0.51465 0.09575 0.0
O235 O 0.02538 0.48752 0.05947 0.0
O236 O 0.9888 0.5312 0.01645 0.0
O237 O 0.96595 0.51402 0.04809 0.0
O238 O 0.03303 0.54915 0.99074 0.0
O239 O 0.0506 0.52483 0.02243 0.0
H240 H 1.01192 0.65434 0.95655 0.0
H241 H 0.9668 0.6672 0.93991 0.0
H242 H 0.91332 0.61421 0.99438 0.0
H243 H 0.95877 0.60169 0.01107 0.0
H244 H 0.03785 0.45144 0.11742 0.0
H245 H 0.08607 0.44518 0.13885 0.0
H246 H 0.14426 0.51627 0.10098 0.0
H247 H 0.09578 0.52267 0.08006 0.0
H248 H 0.36206 0.3008 0.33931 0.0
H249 H 0.32061 0.27352 0.36344 0.0
H250 H 0.25695 0.30881 0.32188 0.0
H251 H 0.29835 0.33596 0.29702 0.0
H252 H 0.25719 0.30368 0.37974 0.0
H253 H 0.24311 0.24781 0.29822 0.0
H254 H 0.26126 0.2269 0.26385 0.0
H255 H 0.29422 0.18066 0.32252 0.0
H256 H 0.27678 0.20169 0.35739 0.0
H257 H 0.12908 0.19492 0.42704 0.0
H258 H 0.1595 0.22686 0.3973 0.0
H259 H 0.23294 0.19427 0.41506 0.0
H260 H 0.20273 0.16237 0.44452 0.0
H261 H 0.22006 0.19892 0.36315 0.0
H262 H 0.24104 0.25874 0.4453 0.0
H263 H 0.22579 0.28078 0.48101 0.0
H264 H 0.18163 0.31989 0.42236 0.0
H265 H 0.19629 0.29776 0.38625 0.0
C266 C 0.33931 0.30292 0.33536 0.0
C267 C 0.33326 0.32016 0.31594 0.0
C268 C 0.31573 0.2874 0.34924 0.0
C269 C 0.28563 0.28886 0.3441 0.0
C270 C 0.28006 0.3074 0.32601 0.0
C271 C 0.30373 0.32292 0.31192 0.0
C272 C 0.25968 0.26943 0.35651 0.0
C273 C 0.24847 0.28076 0.37576 0.0
C274 C 0.24875 0.23957 0.35147 0.0
C275 C 0.25882 0.2265 0.33047 0.0
C276 C 0.25444 0.23334 0.30385 0.0
C277 C 0.26458 0.22145 0.28427 0.0
C278 C 0.27894 0.2025 0.29101 0.0
C279 C 0.28311 0.19535 0.31733 0.0
C280 C 0.27306 0.20723 0.33701 0.0
C281 C 0.15173 0.19462 0.42457 0.0
C282 C 0.16347 0.17608 0.43808 0.0
C283 C 0.16908 0.21287 0.4076 0.0
C284 C 0.19865 0.21313 0.40412 0.0
C285 C 0.21012 0.19435 0.41731 0.0
C286 C 0.19275 0.17604 0.43409 0.0
C287 C 0.21818 0.23308 0.38711 0.0
C288 C 0.22821 0.22181 0.36687 0.0
C289 C 0.22811 0.26296 0.39138 0.0
C290 C 0.21941 0.27633 0.41307 0.0
C291 C 0.22786 0.27186 0.44001 0.0
C292 C 0.21936 0.2844 0.46032 0.0
C293 C 0.20266 0.30165 0.45395 0.0
C294 C 0.19451 0.30647 0.42726 0.0
C295 C 0.20291 0.29395 0.40687 0.0
H296 H 0.1961 0.31135 0.4697 0.0
H297 H 0.28678 0.19332 0.27582 0.0
H298 H 0.33028 0.83797 0.78696 0.0
H299 H 0.35345 0.8603 0.83303 0.0
H300 H 0.36474 0.94207 0.80607 0.0
H301 H 0.34171 0.91983 0.75981 0.0
H302 H 0.41287 0.89914 0.85223 0.0
H303 H 0.35987 0.98365 0.85728 0.0
H304 H 0.31022 0.98979 0.83841 0.0
H305 H 0.25664 0.89914 0.82842 0.0
H306 H 0.30585 0.89247 0.84756 0.0
H307 H 0.50682 0.00628 0.95813 0.0
H308 H 0.47581 0.97956 0.91513 0.0
H309 H 0.39047 0.94622 0.94863 0.0
H310 H 0.42133 0.9738 0.99175 0.0
H311 H 0.37616 0.96108 0.90098 0.0
H312 H 0.4338 0.90559 0.93676 0.0
H313 H 0.48163 0.89706 0.95654 0.0
H314 H 0.52202 0.92431 0.88718 0.0
H315 H 0.47465 0.93341 0.86714 0.0
C316 C 0.33755 0.8607 0.79085 0.0
C317 C 0.33437 0.87717 0.76969 0.0
C318 C 0.35076 0.87342 0.81719 0.0
C319 C 0.36087 0.90285 0.82303 0.0
C320 C 0.35678 0.91926 0.8021 0.0
C321 C 0.34352 0.90652 0.77568 0.0
C322 C 0.37721 0.91649 0.85076 0.0
C323 C 0.40479 0.91263 0.86293 0.0
C324 C 0.36647 0.9338 0.86485 0.0
C325 C 0.33663 0.93758 0.85362 0.0
C326 C 0.33747 0.96503 0.85115 0.0
C327 C 0.3094 0.9686 0.84039 0.0
C328 C 0.28032 0.94486 0.83214 0.0
C329 C 0.27921 0.9175 0.83472 0.0
C330 C 0.30719 0.91382 0.84548 0.0
C331 C 0.48152 0.99311 0.95651 0.0
C332 C 0.46663 0.99205 0.9785 0.0
C333 C 0.46379 0.97774 0.93184 0.0
C334 C 0.43086 0.96046 0.92868 0.0
C335 C 0.41586 0.95936 0.95058 0.0
C336 C 0.43355 0.97506 0.97524 0.0
C337 C 0.41209 0.94402 0.90237 0.0
C338 C 0.38415 0.94746 0.89038 0.0
C339 C 0.42226 0.92598 0.88857 0.0
C340 C 0.45073 0.92035 0.90052 0.0
C341 C 0.45297 0.90994 0.9258 0.0
C342 C 0.48 0.90499 0.93705 0.0
C343 C 0.50487 0.91019 0.92315 0.0
C344 C 0.50276 0.92033 0.89794 0.0
C345 C 0.4758 0.92535 0.88661 0.0
H346 H 0.52568 0.90624 0.93186 0.0
H347 H 0.25862 0.94767 0.8238 0.0
H348 H 0.64917 0.41146 0.77867 0.0
H349 H 0.65336 0.44543 0.74468 0.0
H350 H 0.55805 0.3906 0.70142 0.0
H351 H 0.5542 0.35668 0.73506 0.0
H352 H 0.59859 0.41072 0.66749 0.0
H353 H 0.5726 0.4507 0.74395 0.0
H354 H 0.58354 0.46942 0.79143 0.0
H355 H 0.67486 0.53282 0.7832 0.0
H356 H 0.66445 0.5144 0.73574 0.0
H357 H 0.52926 0.4907 0.59243 0.0
H358 H 0.54599 0.46194 0.62397 0.0
H359 H 0.63693 0.53314 0.65284 0.0
H360 H 0.61997 0.56236 0.62123 0.0
H361 H 0.61156 0.50883 0.69378 0.0
H362 H 0.6339 0.47569 0.61581 0.0
H363 H 0.62466 0.45817 0.56827 0.0
H364 H 0.54445 0.383 0.57858 0.0
H365 H 0.5529 0.40023 0.62612 0.0
C366 C 0.62929 0.40678 0.76179 0.0
C367 C 0.60134 0.38172 0.75928 0.0
C368 C 0.63163 0.42614 0.74246 0.0
C369 C 0.6059 0.42066 0.72057 0.0
C370 C 0.57822 0.39526 0.71804 0.0
C371 C 0.57595 0.37598 0.73727 0.0
C372 C 0.60699 0.44145 0.70053 0.0
C373 C 0.60132 0.43215 0.67319 0.0
C374 C 0.61192 0.46981 0.70801 0.0
C375 C 0.6179 0.48102 0.73643 0.0
C376 C 0.59506 0.46856 0.75234 0.0
C377 C 0.60113 0.47915 0.77922 0.0
C378 C 0.62989 0.50228 0.79035 0.0
C379 C 0.65257 0.51494 0.77459 0.0
C380 C 0.64658 0.50446 0.74769 0.0
C381 C 0.55298 0.5002 0.60525 0.0
C382 C 0.57335 0.52877 0.60436 0.0
C383 C 0.5626 0.48366 0.62321 0.0
C384 C 0.59292 0.49522 0.64055 0.0
C385 C 0.6135 0.52374 0.63956 0.0
C386 C 0.60384 0.54037 0.62149 0.0
C387 C 0.60187 0.47773 0.66064 0.0
C388 C 0.60947 0.48763 0.68799 0.0
C389 C 0.59908 0.45001 0.65315 0.0
C390 C 0.59397 0.43935 0.62457 0.0
C391 C 0.61416 0.4555 0.60792 0.0
C392 C 0.60908 0.44561 0.58097 0.0
C393 C 0.58397 0.4195 0.5704 0.0
C394 C 0.56391 0.40322 0.58679 0.0
C395 C 0.56888 0.41301 0.61377 0.0
H396 H 0.58007 0.41188 0.54952 0.0
H397 H 0.63458 0.51042 0.81118 0.0
H398 H 0.95653 0.68948 0.29303 0.0
H399 H 0.97378 0.67618 0.2537 0.0
H400 H 0.87492 0.6372 0.21129 0.0
H401 H 0.85783 0.65039 0.25063 0.0
H402 H 0.9024 0.60187 0.2061 0.0
H403 H 0.93021 0.70011 0.19393 0.0
H404 H 0.95603 0.75194 0.20677 0.0
H405 H 0.04907 0.7491 0.22063 0.0
H406 H 0.02376 0.69717 0.2082 0.0
H407 H 0.97622 0.61843 0.07678 0.0
H408 H 0.95787 0.63802 0.11178 0.0
H409 H 0.97907 0.58195 0.16625 0.0
H410 H 0.99739 0.56241 0.13162 0.0
H411 H 0.98763 0.66618 0.16235 0.0
H412 H 0.92298 0.5602 0.20559 0.0
H413 H 0.89422 0.50896 0.19018 0.0
H414 H 0.86934 0.52855 0.1099 0.0
H415 H 0.89754 0.57987 0.1249 0.0
C416 C 0.93863 0.67876 0.27503 0.0
C417 C 0.90588 0.67147 0.27471 0.0
C418 C 0.94847 0.67103 0.25251 0.0
C419 C 0.92575 0.65567 0.22919 0.0
C420 C 0.89305 0.64898 0.22884 0.0
C421 C 0.88328 0.65679 0.25128 0.0
C422 C 0.93571 0.64524 0.20583 0.0
C423 C 0.92108 0.61605 0.19664 0.0
C424 C 0.95976 0.6635 0.1929 0.0
C425 C 0.97506 0.69471 0.20038 0.0
C426 C 0.95616 0.7105 0.19992 0.0
C427 C 0.97071 0.7399 0.20709 0.0
C428 C 1.00417 0.75379 0.21458 0.0
C429 C 0.02315 0.73831 0.21485 0.0
C430 C 1.00872 0.70889 0.20772 0.0
C431 C 0.97693 0.61021 0.09619 0.0
C432 C 0.98826 0.58867 0.10117 0.0
C433 C 0.96655 0.62157 0.1163 0.0
C434 C 0.96678 0.61144 0.1418 0.0
C435 C 0.97823 0.59004 0.14679 0.0
C436 C 0.98882 0.57887 0.12685 0.0
C437 C 0.95478 0.6228 0.16312 0.0
C438 C 0.96901 0.65208 0.17191 0.0
C439 C 0.93007 0.60469 0.1755 0.0
C440 C 0.91265 0.57387 0.16635 0.0
C441 C 0.91126 0.55356 0.18468 0.0
C442 C 0.89507 0.52451 0.17601 0.0
C443 C 0.88005 0.51551 0.14906 0.0
C444 C 0.88108 0.53555 0.13075 0.0
C445 C 0.8972 0.56462 0.13932 0.0
H446 H 0.86756 0.49301 0.14239 0.0
H447 H 1.01538 0.77655 0.22011 0.0
H448 H 0.41992 0.29326 0.29469 0.0
H449 H 0.43046 0.2563 0.27193 0.0
H450 H 0.39983 0.28128 0.19513 0.0
H451 H 0.38965 0.31845 0.21777 0.0
H452 H 0.36681 0.22224 0.20288 0.0
H453 H 0.47407 0.29463 0.21221 0.0
H454 H 0.52553 0.33139 0.23684 0.0
H455 H 0.54221 0.26918 0.28495 0.0
H456 H 0.49056 0.23209 0.26086 0.0
H457 H 0.40099 0.13731 0.11354 0.0
H458 H 0.39786 0.17642 0.1392 0.0
H459 H 0.44412 0.15525 0.21188 0.0
H460 H 0.44827 0.11648 0.18607 0.0
H461 H 0.46981 0.2117 0.20851 0.0
H462 H 0.3645 0.13937 0.20048 0.0
H463 H 0.31266 0.10168 0.17774 0.0
H464 H 0.29134 0.16222 0.13011 0.0
H465 H 0.3433 0.20024 0.15231 0.0
C466 C 0.41612 0.29119 0.27297 0.0
C467 C 0.40405 0.30864 0.25792 0.0
C468 C 0.42217 0.27018 0.26004 0.0
C469 C 0.41585 0.26613 0.23191 0.0
C470 C 0.40488 0.28419 0.21688 0.0
C471 C 0.3993 0.30548 0.2298 0.0
C472 C 0.41795 0.24153 0.21815 0.0
C473 C 0.38937 0.22008 0.20375 0.0
C474 C 0.44725 0.23834 0.22033 0.0
C475 C 0.47824 0.26064 0.23494 0.0
C476 C 0.48852 0.28883 0.22824 0.0
C477 C 0.51777 0.30972 0.24206 0.0
C478 C 0.53708 0.30264 0.26251 0.0
C479 C 0.5272 0.27464 0.26914 0.0
C480 C 0.49794 0.25367 0.25539 0.0
C481 C 0.41055 0.14099 0.13498 0.0
C482 C 0.42487 0.12383 0.1478 0.0
C483 C 0.40852 0.16321 0.14966 0.0
C484 C 0.42049 0.16858 0.17749 0.0
C485 C 0.43466 0.1514 0.19042 0.0
C486 C 0.43672 0.12911 0.17571 0.0
C487 C 0.41866 0.19253 0.19282 0.0
C488 C 0.44722 0.21379 0.20765 0.0
C489 C 0.38924 0.19542 0.19136 0.0
C490 C 0.35796 0.17261 0.1779 0.0
C491 C 0.34889 0.14461 0.185 0.0
C492 C 0.31946 0.12319 0.17223 0.0
C493 C 0.29876 0.12953 0.15244 0.0
C494 C 0.30742 0.15733 0.14542 0.0
C495 C 0.33685 0.17884 0.15811 0.0
H496 H 0.27597 0.11292 0.1426 0.0
H497 H 0.55973 0.31884 0.27317 0.0
H498 H 0.19337 0.86261 0.68154 0.0
H499 H 0.15879 0.88863 0.67175 0.0
H500 H 0.24116 0.96385 0.66369 0.0
H501 H 0.27575 0.93781 0.67377 0.0
H502 H 0.19959 0.9772 0.6881 0.0
H503 H 0.19353 0.92032 0.60906 0.0
H504 H 0.18436 0.87605 0.58251 0.0
H505 H 0.08719 0.8385 0.59427 0.0
H506 H 0.09594 0.88245 0.62123 0.0
H507 H 0.12763 0.04997 0.5997 0.0
H508 H 0.1587 0.02571 0.62354 0.0
H509 H 0.07102 0.95249 0.6242 0.0
H510 H 0.0397 0.97647 0.59988 0.0
H511 H 0.11278 0.93683 0.60678 0.0
H512 H 0.11746 0.99599 0.68239 0.0
H513 H 0.1269 0.04077 0.70817 0.0
H514 H 0.22635 0.07462 0.70251 0.0
H515 H 0.21742 0.03019 0.67636 0.0
C516 C 0.2041 0.8849 0.67832 0.0
C517 C 0.23705 0.8984 0.67849 0.0
C518 C 0.18436 0.89968 0.67258 0.0
C519 C 0.19731 0.92809 0.66662 0.0
C520 C 0.23065 0.94198 0.66823 0.0
C521 C 0.25037 0.92716 0.67399 0.0
C522 C 0.17587 0.94258 0.65666 0.0
C523 C 0.18073 0.96851 0.67023 0.0
C524 C 0.15082 0.93095 0.63364 0.0
C525 C 0.14551 0.90453 0.61742 0.0
C526 C 0.1703 0.90253 0.60618 0.0
C527 C 0.16516 0.87752 0.59102 0.0
C528 C 0.13524 0.85444 0.58677 0.0
C529 C 0.11037 0.85637 0.59762 0.0
C530 C 0.1154 0.88132 0.61283 0.0
C531 C 0.11485 0.02887 0.60524 0.0
C532 C 0.08112 0.01516 0.59778 0.0
C533 C 0.1327 0.01505 0.61903 0.0
C534 C 0.11724 0.9873 0.62589 0.0
C535 C 0.08351 0.97389 0.61915 0.0
C536 C 0.06561 0.98768 0.60531 0.0
C537 C 0.13641 0.97158 0.63817 0.0
C538 C 0.13127 0.94542 0.6249 0.0
C539 C 0.16119 0.98307 0.66142 0.0
C540 C 0.1667 0.00982 0.67721 0.0
C541 C 0.14129 0.01306 0.68646 0.0
C542 C 0.14656 0.03837 0.70117 0.0
C543 C 0.17719 0.06055 0.70693 0.0
C544 C 0.20263 0.05743 0.69802 0.0
C545 C 0.19749 0.03217 0.68328 0.0
H546 H 0.18122 0.08013 0.71832 0.0
H547 H 0.13131 0.8351 0.57502 0.0
H548 H 0.72214 0.35381 0.86053 0.0
H549 H 0.773 0.38865 0.88695 0.0
H550 H 0.73023 0.44911 0.89154 0.0
H551 H 0.67931 0.41433 0.86449 0.0
H552 H 0.79493 0.4755 0.88959 0.0
H553 H 0.72855 0.40822 0.94012 0.0
H554 H 0.69474 0.36008 0.94972 0.0
H555 H 0.77569 0.33737 0.95906 0.0
H556 H 0.80984 0.38524 0.94898 0.0
H557 H 0.90294 0.50212 0.03621 0.0
H558 H 0.85087 0.48226 1.00479 0.0
H559 H 0.89955 0.49801 0.93813 0.0
H560 H 0.95134 0.51908 0.9694 0.0
H561 H 0.82735 0.43711 0.97314 0.0
H562 H 0.85479 0.50172 0.88204 0.0
H563 H 0.88615 0.55092 0.87325 0.0
H564 H 0.87781 0.58256 0.94906 0.0
H565 H 0.84664 0.5336 0.9584 0.0
C566 C 0.72391 0.37482 0.86657 0.0
C567 C 0.69688 0.38139 0.86079 0.0
C568 C 0.75288 0.39466 0.88168 0.0
C569 C 0.7551 0.42119 0.89169 0.0
C570 C 0.72893 0.42869 0.88407 0.0
C571 C 0.69993 0.40888 0.86864 0.0
C572 C 0.78328 0.43939 0.91253 0.0
C573 C 0.80208 0.46723 0.90791 0.0
C574 C 0.79193 0.42883 0.93679 0.0
C575 C 0.7717 0.40026 0.94361 0.0
C576 C 0.7391 0.39292 0.94409 0.0
C577 C 0.71987 0.36568 0.94961 0.0
C578 C 0.73304 0.34567 0.95496 0.0
C579 C 0.76551 0.35289 0.95489 0.0
C580 C 0.78483 0.38008 0.94929 0.0
C581 C 0.90239 0.50177 0.01483 0.0
C582 C 0.93107 0.51193 1.0052 0.0
C583 C 0.87268 0.49041 0.99688 0.0
C584 C 0.87114 0.48875 0.96901 0.0
C585 C 0.8999 0.4996 0.95945 0.0
C586 C 0.92956 0.51143 0.97737 0.0
C587 C 0.83982 0.47326 0.95009 0.0
C588 C 0.82026 0.44572 0.95504 0.0
C589 C 0.83014 0.48442 0.92651 0.0
C590 C 0.84858 0.51398 0.92098 0.0
C591 C 0.8596 0.5192 0.8968 0.0
C592 C 0.87746 0.54703 0.89178 0.0
C593 C 0.8842 0.56984 0.91068 0.0
C594 C 0.87292 0.56489 0.93458 0.0
C595 C 0.85523 0.53708 0.93978 0.0
H596 H 0.89812 0.59131 0.90675 0.0
H597 H 0.71811 0.32457 0.95919 0.0
H598 H 0.78733 0.70189 0.37627 0.0
H599 H 0.7465 0.67984 0.40277 0.0
H600 H 0.7824 0.61496 0.41923 0.0
H601 H 0.82352 0.63702 0.39262 0.0
H602 H 0.71722 0.59198 0.41053 0.0
H603 H 0.80215 0.67042 0.46608 0.0
H604 H 0.84185 0.72009 0.47765 0.0
H605 H 0.76553 0.74885 0.46944 0.0
H606 H 0.72535 0.69937 0.45736 0.0
H607 H 0.62496 0.54595 0.51266 0.0
H608 H 0.66966 0.56315 0.48899 0.0
H609 H 0.651 0.63778 0.47301 0.0
H610 H 0.60776 0.62149 0.49797 0.0
H611 H 0.71142 0.65364 0.48401 0.0
H612 H 0.62655 0.57361 0.42462 0.0
H613 H 0.58813 0.52325 0.4152 0.0
H614 H 0.66606 0.49673 0.43312 0.0
H615 H 0.70493 0.54694 0.44283 0.0
C616 C 0.78665 0.68294 0.38552 0.0
C617 C 0.80909 0.67149 0.38247 0.0
C618 C 0.76318 0.67029 0.4007 0.0
C619 C 0.76158 0.64595 0.41352 0.0
C620 C 0.78309 0.63374 0.40966 0.0
C621 C 0.80659 0.64638 0.39435 0.0
C622 C 0.73821 0.63407 0.43161 0.0
C623 C 0.7162 0.6054 0.42678 0.0
C624 C 0.73666 0.65141 0.45291 0.0
C625 C 0.76073 0.68118 0.46059 0.0
C626 C 0.79382 0.68735 0.46658 0.0
C627 C 0.81642 0.71547 0.47324 0.0
C628 C 0.80622 0.73762 0.47423 0.0
C629 C 0.7734 0.73167 0.46864 0.0
C630 C 0.7507 0.70359 0.4619 0.0
C631 C 0.63055 0.56611 0.50423 0.0
C632 C 0.61272 0.58232 0.50725 0.0
C633 C 0.65601 0.57586 0.49043 0.0
C634 C 0.66354 0.60159 0.47848 0.0
C635 C 0.64592 0.61789 0.48189 0.0
C636 C 0.62106 0.60851 0.49621 0.0
C637 C 0.68951 0.61176 0.46239 0.0
C638 C 0.71229 0.64016 0.46773 0.0
C639 C 0.69183 0.59408 0.44171 0.0
C640 C 0.6686 0.564 0.43462 0.0
C641 C 0.63547 0.55702 0.42652 0.0
C642 C 0.61363 0.52852 0.42116 0.0
C643 C 0.62464 0.5068 0.42363 0.0
C644 C 0.65756 0.51357 0.43123 0.0
C645 C 0.67952 0.54204 0.4366 0.0
H646 H 0.60768 0.48475 0.41964 0.0
H647 H 0.82375 0.75938 0.47937 0.0
H648 H 0.38063 0.46571 0.25443 0.0
H649 H 0.34047 0.48169 0.23047 0.0
H650 H 0.27075 0.39447 0.21426 0.0
H651 H 0.311 0.37861 0.23804 0.0
H652 H 0.27404 0.42288 0.16926 0.0
H653 H 0.26458 0.43995 0.26141 0.0
H654 H 0.2861 0.46106 0.30853 0.0
H655 H 0.32203 0.54474 0.28234 0.0
H656 H 0.30118 0.52401 0.23505 0.0
H657 H 0.12554 0.43 0.12772 0.0
H658 H 0.17234 0.42294 0.15074 0.0
H659 H 0.22609 0.5139 0.16681 0.0
H660 H 0.17857 0.52114 0.14481 0.0
H661 H 0.23671 0.48948 0.20991 0.0
H662 H 0.24061 0.47432 0.11875 0.0
H663 H 0.22067 0.45497 0.07114 0.0
H664 H 0.19878 0.37028 0.09355 0.0
H665 H 0.21815 0.38907 0.14135 0.0
C666 C 0.35654 0.45013 0.24602 0.0
C667 C 0.3485 0.42108 0.24805 0.0
C668 C 0.33369 0.45921 0.2324 0.0
C669 C 0.30259 0.43926 0.2207 0.0
C670 C 0.2946 0.41019 0.22312 0.0
C671 C 0.31742 0.40116 0.23677 0.0
C672 C 0.27859 0.44841 0.20511 0.0
C673 C 0.26557 0.43719 0.17818 0.0
C674 C 0.26873 0.46811 0.21642 0.0
C675 C 0.2814 0.48047 0.24478 0.0
C676 C 0.27724 0.46283 0.26574 0.0
C677 C 0.28931 0.47472 0.29245 0.0
C678 C 0.30543 0.50422 0.29843 0.0
C679 C 0.30953 0.5219 0.27769 0.0
C680 C 0.29756 0.5101 0.25095 0.0
C681 C 0.14721 0.44854 0.13628 0.0
C682 C 0.14825 0.47612 0.13446 0.0
C683 C 0.17414 0.44448 0.14914 0.0
C684 C 0.20296 0.46789 0.16009 0.0
C685 C 0.20419 0.49552 0.15831 0.0
C686 C 0.1771 0.49962 0.14555 0.0
C687 C 0.23121 0.46314 0.17421 0.0
C688 C 0.24524 0.47533 0.20081 0.0
C689 C 0.24233 0.44458 0.16245 0.0
C690 C 0.23065 0.43312 0.13369 0.0
C691 C 0.23133 0.45155 0.11356 0.0
C692 C 0.22016 0.44068 0.08652 0.0
C693 C 0.20842 0.41141 0.07933 0.0
C694 C 0.20787 0.39295 0.09916 0.0
C695 C 0.21899 0.40371 0.12623 0.0
H696 H 0.19979 0.40304 0.05839 0.0
H697 H 0.31474 0.51338 0.31912 0.0
H698 H 0.65622 0.28057 0.87574 0.0
H699 H 0.64012 0.24256 0.90519 0.0
H700 H 0.55074 0.25141 0.90265 0.0
H701 H 0.56683 0.28962 0.87337 0.0
H702 H 0.58244 0.25097 0.95446 0.0
H703 H 0.55058 0.19573 0.86841 0.0
H704 H 0.55897 0.18065 0.8251 0.0
H705 H 0.63181 0.1556 0.86646 0.0
H706 H 0.62417 0.17092 0.91004 0.0
H707 H 0.49275 0.12871 1.01049 0.0
H708 H 0.5131 0.16564 0.98108 0.0
H709 H 0.59567 0.14571 0.98259 0.0
H710 H 0.57495 0.1082 0.01187 0.0
H711 H 0.57137 0.15252 0.93249 0.0
H712 H 0.60282 0.20552 0.01823 0.0
H713 H 0.59606 0.22094 0.06209 0.0
H714 H 0.52698 0.2512 0.02253 0.0
H715 H 0.53296 0.23558 0.9784 0.0
C716 C 0.63307 0.2743 0.88137 0.0
C717 C 0.61274 0.28803 0.87223 0.0
C718 C 0.62385 0.25252 0.89807 0.0
C719 C 0.5942 0.24412 0.90601 0.0
C720 C 0.57372 0.25758 0.89671 0.0
C721 C 0.5828 0.27921 0.87982 0.0
C722 C 0.58495 0.22193 0.92472 0.0
C723 C 0.57961 0.22934 0.94955 0.0
C724 C 0.58248 0.19404 0.91866 0.0
C725 C 0.58704 0.18476 0.89248 0.0
C726 C 0.56859 0.18725 0.86827 0.0
C727 C 0.57317 0.1786 0.84367 0.0
C728 C 0.59597 0.16725 0.84302 0.0
C729 C 0.61419 0.16444 0.86699 0.0
C730 C 0.60973 0.17308 0.89164 0.0
C731 C 0.5153 0.13224 1.00464 0.0
C732 C 0.53231 0.11562 0.01344 0.0
C733 C 0.52698 0.15344 0.98791 0.0
C734 C 0.55614 0.15873 0.97989 0.0
C735 C 0.57315 0.14203 0.98856 0.0
C736 C 0.56136 0.12068 1.00529 0.0
C737 C 0.56833 0.18142 0.96212 0.0
C738 C 0.57434 0.17417 0.93751 0.0
C739 C 0.57174 0.20958 0.96847 0.0
C740 C 0.56815 0.21915 0.99499 0.0
C741 C 0.586 0.21526 0.01887 0.0
C742 C 0.58234 0.22407 0.04379 0.0
C743 C 0.56105 0.23698 0.0451 0.0
C744 C 0.54344 0.24118 0.02149 0.0
C745 C 0.54699 0.23237 0.99651 0.0
H746 H 0.55825 0.24379 0.06441 0.0
H747 H 0.59948 0.16057 0.82396 0.0
H748 H 0.94258 0.76173 0.37999 0.0
H749 H 0.9689 0.81086 0.40166 0.0
H750 H 0.8792 0.82024 0.3808 0.0
H751 H 0.85302 0.77138 0.35908 0.0
H752 H 0.92879 0.86945 0.37657 0.0
H753 H 0.90215 0.80378 0.44242 0.0
H754 H 0.90141 0.76248 0.46644 0.0
H755 H 1.00442 0.80136 0.49008 0.0
H756 H 1.00578 0.84276 0.46585 0.0
H757 H 0.96308 0.98498 0.47599 0.0
H758 H 0.93894 0.93866 0.44866 0.0
H759 H 0.02881 0.92954 0.46941 0.0
H760 H 0.05287 0.97558 0.49665 0.0
H761 H 0.97922 0.88046 0.4731 0.0
H762 H 1.00428 0.94764 0.40742 0.0
H763 H 1.00274 0.98863 0.38388 0.0
H764 H 0.89988 0.94657 0.3607 0.0
H765 H 0.90077 0.90546 0.38443 0.0
C766 C 0.92875 0.77456 0.37935 0.0
C767 C 0.89571 0.76262 0.36779 0.0
C768 C 0.9437 0.80257 0.39203 0.0
C769 C 0.92596 0.81927 0.39335 0.0
C770 C 0.89348 0.80794 0.38023 0.0
C771 C 0.87851 0.77995 0.36777 0.0
C772 C 0.94049 0.84768 0.40977 0.0
C773 C 0.93958 0.87177 0.39772 0.0
C774 C 0.95479 0.851 0.43741 0.0
C775 C 0.9541 0.82621 0.45206 0.0
C776 C 0.92467 0.80342 0.45255 0.0
C777 C 0.92413 0.78001 0.46623 0.0
C778 C 0.95287 0.77925 0.47971 0.0
C779 C 0.98219 0.80195 0.47958 0.0
C780 C 0.98286 0.8254 0.46589 0.0
C781 C 0.97767 0.9731 0.47467 0.0
C782 C 1.00997 0.98409 0.48841 0.0
C783 C 0.96389 0.94663 0.45895 0.0
C784 C 0.98208 0.93053 0.45666 0.0
C785 C 1.01419 0.9414 0.47072 0.0
C786 C 0.02798 0.96785 0.48626 0.0
C787 C 0.96783 0.90234 0.43985 0.0
C788 C 0.96864 0.87821 0.4519 0.0
C789 C 0.95316 0.89898 0.41229 0.0
C790 C 0.95258 0.9236 0.39793 0.0
C791 C 0.98131 0.94722 0.39749 0.0
C792 C 0.98056 0.97046 0.38408 0.0
C793 C 0.95122 0.97023 0.37087 0.0
C794 C 0.92258 0.94673 0.37098 0.0
C795 C 0.9232 0.92345 0.38438 0.0
H796 H 0.95068 0.98824 0.3605 0.0
H797 H 0.95241 0.76111 0.4903 0.0
H798 H 0.29979 0.78482 0.67096 0.0
H799 H 0.32443 0.75448 0.65606 0.0
H800 H 0.41485 0.80756 0.708 0.0
H801 H 0.39088 0.83882 0.72188 0.0
H802 H 0.42502 0.79592 0.66145 0.0
H803 H 0.36505 0.74041 0.72305 0.0
H804 H 0.3171 0.71574 0.74219 0.0
H805 H 0.26958 0.66144 0.66843 0.0
H806 H 0.3171 0.68606 0.64871 0.0
H807 H 0.50362 0.70395 0.65249 0.0
H808 H 0.47662 0.7302 0.67115 0.0
H809 H 0.3898 0.68334 0.61236 0.0
H810 H 0.41651 0.65662 0.59385 0.0
H811 H 0.37773 0.69103 0.6629 0.0
H812 H 0.43832 0.74796 0.60156 0.0
H813 H 0.48711 0.77244 0.58344 0.0
H814 H 0.53441 0.82413 0.65863 0.0
H815 H 0.48602 0.79965 0.67733 0.0
C816 C 0.32499 0.7902 0.67906 0.0
C817 C 0.34329 0.81429 0.69771 0.0
C818 C 0.33896 0.77259 0.67077 0.0
C819 C 0.37142 0.77844 0.68119 0.0
C820 C 0.38973 0.80248 0.69975 0.0
C821 C 0.37587 0.82021 0.70789 0.0
C822 C 0.38664 0.76011 0.67215 0.0
C823 C 0.41488 0.77304 0.66219 0.0
C824 C 0.37312 0.73014 0.67251 0.0
C825 C 0.34452 0.71528 0.68432 0.0
C826 C 0.34428 0.72336 0.71084 0.0
C827 C 0.3172 0.70936 0.7218 0.0
C828 C 0.29028 0.68709 0.70651 0.0
C829 C 0.29043 0.67873 0.68024 0.0
C830 C 0.31744 0.69268 0.66917 0.0
C831 C 0.47861 0.69885 0.64383 0.0
C832 C 0.46226 0.67832 0.62158 0.0
C833 C 0.46329 0.71403 0.65439 0.0
C834 C 0.43134 0.70899 0.64291 0.0
C835 C 0.4145 0.68765 0.62145 0.0
C836 C 0.42986 0.67255 0.61078 0.0
C837 C 0.41606 0.72694 0.65242 0.0
C838 C 0.38782 0.71394 0.66234 0.0
C839 C 0.42965 0.75688 0.65221 0.0
C840 C 0.45866 0.77178 0.64092 0.0
C841 C 0.45921 0.7644 0.61429 0.0
C842 C 0.48677 0.7783 0.60391 0.0
C843 C 0.51387 0.79978 0.61989 0.0
C844 C 0.51342 0.80746 0.64628 0.0
C845 C 0.48592 0.79359 0.65678 0.0
H846 H 0.53519 0.81051 0.61182 0.0
H847 H 0.26934 0.67627 0.71504 0.0
H848 H 0.76486 0.80087 0.803 0.0
H849 H 0.79664 0.83235 0.77387 0.0
H850 H 0.71581 0.79715 0.70713 0.0
H851 H 0.6839 0.76539 0.73621 0.0
H852 H 0.77284 0.79902 0.695 0.0
H853 H 0.73554 0.86204 0.73497 0.0
H854 H 0.72616 0.88705 0.77229 0.0
H855 H 0.82791 0.92833 0.80343 0.0
H856 H 0.83789 0.90321 0.76649 0.0
H857 H 0.83472 0.89861 0.60406 0.0
H858 H 0.80212 0.869 0.63359 0.0
H859 H 0.88081 0.90813 0.70144 0.0
H860 H 0.91379 0.93784 0.67189 0.0
H861 H 0.82471 0.9043 0.71315 0.0
H862 H 0.86256 0.84144 0.67425 0.0
H863 H 0.87284 0.81604 0.63777 0.0
H864 H 0.77139 0.77402 0.60559 0.0
H865 H 0.7605 0.7995 0.64168 0.0
C866 C 0.75383 0.79995 0.78214 0.0
C867 C 0.72194 0.78067 0.77182 0.0
C868 C 0.77194 0.81803 0.76557 0.0
C869 C 0.75852 0.81714 0.73838 0.0
C870 C 0.72656 0.79816 0.72808 0.0
C871 C 0.70832 0.78022 0.74472 0.0
C872 C 0.77832 0.83532 0.72054 0.0
C873 C 0.78378 0.82207 0.69868 0.0
C874 C 0.79335 0.8653 0.72591 0.0
C875 C 0.78744 0.88053 0.7481 0.0
C876 C 0.75591 0.87626 0.7499 0.0
C877 C 0.75049 0.89049 0.77096 0.0
C878 C 0.77642 0.90921 0.79026 0.0
C879 C 0.80784 0.91379 0.78848 0.0
C880 C 0.8134 0.89958 0.76747 0.0
C881 C 0.8453 0.90068 0.6252 0.0
C882 C 0.87698 0.92044 0.63558 0.0
C883 C 0.82657 0.88378 0.64207 0.0
C884 C 0.83915 0.88612 0.66967 0.0
C885 C 0.87064 0.90599 0.68019 0.0
C886 C 0.88943 0.92296 0.6633 0.0
C887 C 0.81918 0.86802 0.68751 0.0
C888 C 0.81374 0.88126 0.7094 0.0
C889 C 0.8043 0.83799 0.68227 0.0
C890 C 0.81074 0.82261 0.66053 0.0
C891 C 0.84245 0.82697 0.65927 0.0
C892 C 0.84839 0.81253 0.63868 0.0
C893 C 0.82279 0.79349 0.61933 0.0
C894 C 0.79119 0.78881 0.62057 0.0
C895 C 0.78512 0.80323 0.6411 0.0
H896 H 0.82743 0.78231 0.60342 0.0
H897 H 0.77217 0.92022 0.80655 0.0
H898 H 0.77382 0.20604 0.30631 0.0
H899 H 0.73885 0.18865 0.26225 0.0
H900 H 0.66835 0.21323 0.28775 0.0
H901 H 0.70267 0.22938 0.33267 0.0
H902 H 0.63967 0.16252 0.26049 0.0
H903 H 0.71619 0.25194 0.24466 0.0
H904 H 0.77007 0.28962 0.24616 0.0
H905 H 0.79326 0.23301 0.1991 0.0
H906 H 0.73967 0.19484 0.19762 0.0
H907 H 0.54751 0.12156 0.12779 0.0
H908 H 0.57959 0.15289 0.16877 0.0
H909 H 0.66185 0.13714 0.15758 0.0
H910 H 0.6304 0.10723 0.11586 0.0
H911 H 0.68142 0.18967 0.17739 0.0
H912 H 0.60587 0.09893 0.19788 0.0
H913 H 0.55075 0.06275 0.19414 0.0
H914 H 0.52525 0.12331 0.23294 0.0
H915 H 0.58 0.16026 0.23591 0.0
C916 C 0.75073 0.20749 0.30277 0.0
C917 C 0.74104 0.21897 0.32322 0.0
C918 C 0.73092 0.19791 0.27734 0.0
C919 C 0.70116 0.20007 0.27145 0.0
C920 C 0.69131 0.21151 0.29175 0.0
C921 C 0.71107 0.22093 0.31737 0.0
C922 C 0.68009 0.1894 0.24433 0.0
C923 C 0.64862 0.16888 0.24232 0.0
C924 C 0.69176 0.19746 0.22054 0.0
C925 C 0.72394 0.22046 0.22117 0.0
C926 C 0.73284 0.24746 0.23476 0.0
C927 C 0.76333 0.26892 0.23559 0.0
C928 C 0.78509 0.2637 0.22277 0.0
C929 C 0.77638 0.23703 0.20903 0.0
C930 C 0.74593 0.21548 0.20815 0.0
C931 C 0.57257 0.12511 0.13395 0.0
C932 C 0.5864 0.11175 0.11882 0.0
C933 C 0.59086 0.14294 0.15741 0.0
C934 C 0.62298 0.14684 0.16672 0.0
C935 C 0.63713 0.13444 0.15094 0.0
C936 C 0.6191 0.11725 0.12712 0.0
C937 C 0.6414 0.16218 0.1936 0.0
C938 C 0.67236 0.1836 0.19557 0.0
C939 C 0.62923 0.15502 0.21735 0.0
C940 C 0.59692 0.13241 0.21689 0.0
C941 C 0.58849 0.10455 0.20557 0.0
C942 C 0.55727 0.08392 0.20352 0.0
C943 C 0.53449 0.09068 0.21338 0.0
C944 C 0.54291 0.11811 0.22531 0.0
C945 C 0.574 0.13893 0.22709 0.0
H946 H 0.51031 0.0747 0.21179 0.0
H947 H 0.80869 0.28034 0.22345 0.0
H948 H 0.46698 0.74049 0.353 0.0
H949 H 0.47591 0.70582 0.38194 0.0
H950 H 0.37445 0.65173 0.3616 0.0
H951 H 0.36552 0.68686 0.33271 0.0
H952 H 0.39929 0.65596 0.41577 0.0
H953 H 0.42538 0.63427 0.3337 0.0
H954 H 0.45154 0.64455 0.29473 0.0
H955 H 0.54445 0.67588 0.34736 0.0
H956 H 0.51885 0.66617 0.3867 0.0
H957 H 0.42921 0.53828 0.47152 0.0
H958 H 0.41123 0.5678 0.44102 0.0
H959 H 0.50775 0.63321 0.45717 0.0
H960 H 0.52572 0.60408 0.48769 0.0
H961 H 0.48016 0.61869 0.40246 0.0
H962 H 0.45403 0.64313 0.48445 0.0
H963 H 0.42805 0.63272 0.52351 0.0
H964 H 0.33514 0.59557 0.47093 0.0
H965 H 0.36059 0.60535 0.43149 0.0
C966 C 0.44667 0.72113 0.3547 0.0
C967 C 0.41568 0.71602 0.3407 0.0
C968 C 0.45174 0.70134 0.37115 0.0
C969 C 0.42589 0.67601 0.37368 0.0
C970 C 0.39472 0.67109 0.35987 0.0
C971 C 0.38965 0.69099 0.34335 0.0
C972 C 0.43184 0.65486 0.39072 0.0
C973 C 0.41651 0.64736 0.41258 0.0
C974 C 0.45467 0.64398 0.38679 0.0
C975 C 0.47018 0.64968 0.36316 0.0
C976 C 0.45139 0.64354 0.33698 0.0
C977 C 0.46612 0.64923 0.31482 0.0
C978 C 0.49964 0.66091 0.31857 0.0
C979 C 0.51849 0.66685 0.34449 0.0
C980 C 0.50388 0.66122 0.36673 0.0
C981 C 0.44648 0.55902 0.46862 0.0
C982 C 0.47884 0.56888 0.48186 0.0
C983 C 0.4362 0.57585 0.45129 0.0
C984 C 0.4582 0.60265 0.44687 0.0
C985 C 0.49044 0.61255 0.46026 0.0
C986 C 0.50063 0.59592 0.47774 0.0
C987 C 0.4481 0.62025 0.42773 0.0
C988 C 0.46266 0.62702 0.40546 0.0
C989 C 0.42457 0.63036 0.4313 0.0
C990 C 0.40923 0.62466 0.455 0.0
C991 C 0.42807 0.6325 0.4812 0.0
C992 C 0.41345 0.62676 0.50342 0.0
C993 C 0.37998 0.61341 0.49971 0.0
C994 C 0.36106 0.60586 0.47377 0.0
C995 C 0.37557 0.6115 0.45147 0.0
H996 H 0.36871 0.60899 0.51695 0.0
H997 H 0.51099 0.6653 0.30139 0.0
H998 H 0.11188 0.44877 0.7801 0.0
H999 H 0.0918 0.46383 0.81656 0.0
H1000 H 0.14447 0.42907 0.87325 0.0
H1001 H 0.16436 0.41381 0.8366 0.0
H1002 H 0.0866 0.41991 0.88606 0.0
H1003 H 0.17436 0.50029 0.86611 0.0
H1004 H 0.20437 0.53437 0.83724 0.0
H1005 H 0.12624 0.56025 0.81626 0.0
H1006 H 0.09556 0.52602 0.84474 0.0
H1007 H 0.08065 0.49725 1.00297 0.0
H1008 H 0.09803 0.47697 0.96787 0.0
H1009 H 0.05467 0.51647 0.90847 0.0
H1010 H 0.03806 0.53728 0.9434 0.0
H1011 H 0.10917 0.52258 0.89795 0.0
H1012 H 0.02081 0.44188 0.91719 0.0
H1013 H 0.99042 0.40769 0.9458 0.0
H1014 H 0.0688 0.38231 0.96791 0.0
H1015 H 0.09982 0.41663 0.93967 0.0
C1016 C 0.11847 0.44368 0.80024 0.0
C1017 C 0.13927 0.42971 0.80542 0.0
C1018 C 0.10728 0.45259 0.82119 0.0
C1019 C 0.11691 0.44807 0.84797 0.0
C1020 C 0.13659 0.43291 0.85292 0.0
C1021 C 0.14785 0.42404 0.83191 0.0
C1022 C 0.1078 0.46037 0.87076 0.0
C1023 C 0.0919 0.44242 0.88882 0.0
C1024 C 0.11411 0.48971 0.8744 0.0
C1025 C 0.13255 0.51039 0.85735 0.0
C1026 C 0.16348 0.5131 0.85518 0.0
C1027 C 0.18063 0.53247 0.83891 0.0
C1028 C 0.16719 0.54941 0.82487 0.0
C1029 C 0.1366 0.54708 0.82712 0.0
C1030 C 0.11934 0.52771 0.84334 0.0
C1031 C 0.0748 0.50164 0.98244 0.0
C1032 C 0.05784 0.51899 0.97621 0.0
C1033 C 0.08462 0.48983 0.96223 0.0
C1034 C 0.07741 0.4947 0.93514 0.0
C1035 C 0.06069 0.51221 0.92903 0.0
C1036 C 0.05109 0.52413 0.94917 0.0
C1037 C 0.08749 0.48208 0.91315 0.0
C1038 C 0.10375 0.50003 0.89524 0.0
C1039 C 0.08139 0.45274 0.90964 0.0
C1040 C 0.06276 0.43203 0.92654 0.0
C1041 C 0.03165 0.42915 0.9283 0.0
C1042 C 1.0143 0.40973 0.94443 0.0
C1043 C 0.02771 0.39289 0.95872 0.0
C1044 C 0.05846 0.3954 0.95686 0.0
C1045 C 0.07593 0.41481 0.94078 0.0
H1046 H 1.01424 0.37787 0.9712 0.0
H1047 H 0.18051 0.5644 0.81228 0.0
H1048 H 0.59732 0.75784 0.85959 0.0
H1049 H 0.58877 0.79789 0.87823 0.0
H1050 H 0.60796 0.84012 0.80692 0.0
H1051 H 0.61722 0.8 0.78853 0.0
H1052 H 0.64009 0.87595 0.85032 0.0
H1053 H 0.5312 0.81202 0.81975 0.0
H1054 H 0.48339 0.76657 0.81316 0.0
H1055 H 0.4886 0.76842 0.89832 0.0
H1056 H 0.53672 0.81369 0.90547 0.0
H1057 H 0.59812 0.98369 0.90548 0.0
H1058 H 0.59467 0.94487 0.87431 0.0
H1059 H 0.59369 0.89281 0.93972 0.0
H1060 H 0.59735 0.93142 0.97086 0.0
H1061 H 0.54699 0.86423 0.89182 0.0
H1062 H 0.66082 0.9246 0.92134 0.0
H1063 H 0.70848 0.97014 0.92737 0.0
H1064 H 0.69227 0.97492 0.84218 0.0
H1065 H 0.64419 0.92957 0.8357 0.0
C1066 C 0.5993 0.77557 0.84785 0.0
C1067 C 0.60761 0.77604 0.8227 0.0
C1068 C 0.59426 0.79834 0.85838 0.0
C1069 C 0.59717 0.82183 0.84378 0.0
C1070 C 0.60536 0.82214 0.81844 0.0
C1071 C 0.61053 0.79931 0.80793 0.0
C1072 C 0.59363 0.84665 0.85595 0.0
C1073 C 0.61935 0.87348 0.85881 0.0
C1074 C 0.56675 0.84344 0.86731 0.0
C1075 C 0.53773 0.8162 0.86315 0.0
C1076 C 0.5223 0.80265 0.83709 0.0
C1077 C 0.49511 0.77693 0.83325 0.0
C1078 C 0.483 0.7646 0.85531 0.0
C1079 C 0.49801 0.778 0.88125 0.0
C1080 C 0.52522 0.80372 0.88521 0.0
C1081 C 0.59699 0.96388 0.9131 0.0
C1082 C 0.59831 0.9606 0.94059 0.0
C1083 C 0.59508 0.94182 0.89534 0.0
C1084 C 0.59403 0.91609 0.9048 0.0
C1085 C 0.59448 0.91253 0.93208 0.0
C1086 C 0.59685 0.93466 0.94985 0.0
C1087 C 0.59372 0.89306 0.88666 0.0
C1088 C 0.56732 0.86666 0.88276 0.0
C1089 C 0.61983 0.89669 0.87418 0.0
C1090 C 0.64868 0.92392 0.87808 0.0
C1091 C 0.66723 0.93551 0.90393 0.0
C1092 C 0.69436 0.96125 0.90742 0.0
C1093 C 0.70333 0.97547 0.88518 0.0
C1094 C 0.68524 0.96392 0.85939 0.0
C1095 C 0.65806 0.9382 0.8558 0.0
H1096 H 0.72436 0.99538 0.88792 0.0
H1097 H 0.46194 0.74468 0.85229 0.0
H1098 H 0.86832 0.24477 0.40096 0.0
H1099 H 0.90086 0.21883 0.41904 0.0
H1100 H 0.81452 0.14254 0.41378 0.0
H1101 H 0.78192 0.16826 0.39515 0.0
H1102 H 0.86268 0.15882 0.4656 0.0
H1103 H 0.85256 0.1433 0.36946 0.0
H1104 H 0.85703 0.15901 0.32438 0.0
H1105 H 0.9585 0.20756 0.3519 0.0
H1106 H 0.95452 0.19248 0.39729 0.0
H1107 H 0.92375 0.05428 0.48741 0.0
H1108 H 0.89368 0.08066 0.46617 0.0
H1109 H 0.98239 0.14988 0.4598 0.0
H1110 H 1.01283 0.12362 0.48111 0.0
H1111 H 0.93493 0.13919 0.41437 0.0
H1112 H 0.94833 0.15674 0.50852 0.0
H1113 H 0.94748 0.14526 0.55523 0.0
H1114 H 0.84502 0.09849 0.53421 0.0
H1115 H 0.84532 0.10936 0.48724 0.0
C1116 C 0.85635 0.22247 0.4037 0.0
C1117 C 0.82266 0.20845 0.39666 0.0
C1118 C 0.87491 0.2077 0.41394 0.0
C1119 C 0.86005 0.1788 0.41769 0.0
C1120 C 0.82639 0.16484 0.41101 0.0
C1121 C 0.80785 0.17947 0.40029 0.0
C1122 C 0.87966 0.16312 0.42855 0.0
C1123 C 0.87813 0.15413 0.45428 0.0
C1124 C 0.90073 0.15808 0.41415 0.0
C1125 C 0.90317 0.16702 0.38684 0.0
C1126 C 0.87577 0.15755 0.36597 0.0
C1127 C 0.87822 0.16629 0.34035 0.0
C1128 C 0.90801 0.18434 0.3353 0.0
C1129 C 0.93543 0.19362 0.35585 0.0
C1130 C 0.93309 0.18496 0.38152 0.0
C1131 C 0.93694 0.07494 0.48118 0.0
C1132 C 0.97075 0.08689 0.48612 0.0
C1133 C 0.91968 0.09006 0.46916 0.0
C1134 C 0.93583 0.1174 0.46177 0.0
C1135 C 0.96948 0.12885 0.46544 0.0
C1136 C 0.98682 0.1138 0.47764 0.0
C1137 C 0.91752 0.13436 0.45126 0.0
C1138 C 0.91942 0.14375 0.42569 0.0
C1139 C 0.89727 0.14031 0.46605 0.0
C1140 C 0.89689 0.13361 0.49427 0.0
C1141 C 0.92565 0.14377 0.51378 0.0
C1142 C 0.92526 0.13743 0.54033 0.0
C1143 C 0.89622 0.12109 0.54767 0.0
C1144 C 0.8675 0.11111 0.52848 0.0
C1145 C 0.86776 0.11738 0.50189 0.0
H1146 H 0.89596 0.11623 0.56823 0.0
H1147 H 0.90987 0.19108 0.31544 0.0
H1148 H 0.31262 0.69319 0.24984 0.0
H1149 H 0.26786 0.65681 0.21803 0.0
H1150 H 0.32678 0.67233 0.1585 0.0
H1151 H 0.37164 0.70833 0.19024 0.0
H1152 H 0.27306 0.68443 0.14453 0.0
H1153 H 0.29851 0.60834 0.17919 0.0
H1154 H 0.30923 0.57801 0.21312 0.0
H1155 H 0.2155 0.55587 0.23071 0.0
H1156 H 0.20437 0.58642 0.19728 0.0
H1157 H 0.14358 0.60471 0.04022 0.0
H1158 H 0.1957 0.61908 0.07106 0.0
H1159 H 0.14758 0.59531 0.13755 0.0
H1160 H 0.09553 0.57997 0.1067 0.0
H1161 H 0.19876 0.58392 0.14595 0.0
H1162 H 0.17639 0.66455 0.12066 0.0
H1163 H 0.16293 0.69607 0.08951 0.0
H1164 H 0.24826 0.71185 0.05867 0.0
H1165 H 0.26199 0.68008 0.08941 0.0
C1166 C 0.31641 0.68804 0.23034 0.0
C1167 C 0.34542 0.70394 0.22233 0.0
C1168 C 0.29082 0.66722 0.21219 0.0
C1169 C 0.29398 0.662 0.18587 0.0
C1170 C 0.32385 0.67607 0.1787 0.0
C1171 C 0.34938 0.69675 0.19679 0.0
C1172 C 0.26504 0.64647 0.16461 0.0
C1173 C 0.25721 0.66223 0.14451 0.0
C1174 C 0.24373 0.61789 0.16529 0.0
C1175 C 0.25075 0.6 0.18589 0.0
C1176 C 0.28033 0.59733 0.19053 0.0
C1177 C 0.28644 0.57999 0.20963 0.0
C1178 C 0.2631 0.56512 0.22413 0.0
C1179 C 0.23358 0.56746 0.21951 0.0
C1180 C 0.22736 0.58477 0.20048 0.0
C1181 C 0.14419 0.60227 0.06138 0.0
C1182 C 0.11566 0.59182 0.0712 0.0
C1183 C 0.17393 0.61048 0.07898 0.0
C1184 C 0.17559 0.60889 0.10672 0.0
C1185 C 0.14695 0.59689 0.11628 0.0
C1186 C 0.11723 0.58835 0.09866 0.0
C1187 C 0.2069 0.62197 0.12603 0.0
C1188 C 0.215 0.60594 0.14579 0.0
C1189 C 0.22822 0.65062 0.12563 0.0
C1190 C 0.21999 0.66966 0.10707 0.0
C1191 C 0.19214 0.67456 0.10707 0.0
C1192 C 0.18448 0.69249 0.08952 0.0
C1193 C 0.20467 0.70587 0.07205 0.0
C1194 C 0.2326 0.7014 0.07216 0.0
C1195 C 0.24033 0.68344 0.08964 0.0
H1196 H 0.19872 0.71976 0.05849 0.0
H1197 H 0.26784 0.55179 0.23894 0.0
H1198 H 0.20718 0.39845 0.65754 0.0
H1199 H 0.25036 0.41848 0.63292 0.0
H1200 H 0.31145 0.4743 0.70327 0.0
H1201 H 0.26899 0.45343 0.72868 0.0
H1202 H 0.31108 0.50119 0.65295 0.0
H1203 H 0.32409 0.41908 0.68936 0.0
H1204 H 0.30562 0.36825 0.69659 0.0
H1205 H 0.28364 0.34544 0.61145 0.0
H1206 H 0.30146 0.3961 0.60369 0.0
H1207 H 0.45915 0.55016 0.60932 0.0
H1208 H 0.41536 0.53187 0.63357 0.0
H1209 H 0.36799 0.45738 0.5759 0.0
H1210 H 0.41315 0.47481 0.55279 0.0
H1211 H 0.35992 0.43999 0.61978 0.0
H1212 H 0.34386 0.51789 0.58059 0.0
H1213 H 0.35861 0.56734 0.56942 0.0
H1214 H 0.38022 0.59679 0.65314 0.0
H1215 H 0.366 0.54754 0.66485 0.0
C1216 C 0.22986 0.41468 0.66809 0.0
C1217 C 0.23435 0.42393 0.69544 0.0
C1218 C 0.25451 0.42633 0.65378 0.0
C1219 C 0.28426 0.44784 0.66622 0.0
C1220 C 0.28867 0.45779 0.69319 0.0
C1221 C 0.26417 0.44586 0.70768 0.0
C1222 C 0.31098 0.45933 0.65124 0.0
C1223 C 0.32208 0.48796 0.64593 0.0
C1224 C 0.32454 0.44183 0.6412 0.0
C1225 C 0.31385 0.41138 0.64594 0.0
C1226 C 0.31504 0.40322 0.67217 0.0
C1227 C 0.30473 0.37444 0.67637 0.0
C1228 C 0.29344 0.35365 0.65449 0.0
C1229 C 0.29238 0.36158 0.62837 0.0
C1230 C 0.30259 0.39031 0.62407 0.0
C1231 C 0.43929 0.52995 0.60171 0.0
C1232 C 0.43958 0.51403 0.579 0.0
C1233 C 0.41398 0.51953 0.61552 0.0
C1234 C 0.38757 0.49339 0.60642 0.0
C1235 C 0.38784 0.47758 0.58355 0.0
C1236 C 0.41365 0.48761 0.5702 0.0
C1237 C 0.36032 0.48211 0.62116 0.0
C1238 C 0.34903 0.45343 0.62655 0.0
C1239 C 0.34596 0.49941 0.63058 0.0
C1240 C 0.35413 0.52903 0.62361 0.0
C1241 C 0.35192 0.53492 0.59663 0.0
C1242 C 0.36018 0.56292 0.5902 0.0
C1243 C 0.37042 0.58519 0.61056 0.0
C1244 C 0.37231 0.57951 0.63739 0.0
C1245 C 0.36412 0.55156 0.64394 0.0
H1246 H 0.37681 0.60685 0.60555 0.0
H1247 H 0.28566 0.3314 0.65774 0.0
H1248 H 0.73584 0.69641 0.80628 0.0
H1249 H 0.7679 0.67647 0.83587 0.0
H1250 H 0.73641 0.70006 0.90395 0.0
H1251 H 0.70418 0.72007 0.8743 0.0
H1252 H 0.80215 0.71873 0.91216 0.0
H1253 H 0.71147 0.63222 0.88562 0.0
H1254 H 0.66611 0.59446 0.85502 0.0
H1255 H 0.73197 0.57694 0.81546 0.0
H1256 H 0.77781 0.61495 0.84557 0.0
H1257 H 0.89525 0.65342 0.99177 0.0
H1258 H 0.8482 0.66245 0.97154 0.0
H1259 H 0.86626 0.65119 0.89274 0.0
H1260 H 0.9132 0.64241 0.91266 0.0
H1261 H 0.80052 0.62246 0.8967 0.0
H1262 H 0.88993 0.71539 0.91995 0.0
H1263 H 0.93432 0.75325 0.95134 0.0
H1264 H 0.86808 0.75751 0.99884 0.0
H1265 H 0.82334 0.71935 0.9679 0.0
C1266 C 0.73546 0.697 0.8275 0.0
C1267 C 0.71764 0.70978 0.83806 0.0
C1268 C 0.75359 0.68548 0.84435 0.0
C1269 C 0.75436 0.68667 0.87207 0.0
C1270 C 0.73599 0.69884 0.8826 0.0
C1271 C 0.71752 0.7101 0.86566 0.0
C1272 C 0.77645 0.67721 0.89003 0.0
C1273 C 0.80133 0.69745 0.90926 0.0
C1274 C 0.7755 0.64955 0.88603 0.0
C1275 C 0.74811 0.62664 0.86775 0.0
C1276 C 0.71632 0.62051 0.87025 0.0
C1277 C 0.69051 0.59902 0.85302 0.0
C1278 C 0.69616 0.58337 0.83328 0.0
C1279 C 0.72765 0.58911 0.83076 0.0
C1280 C 0.75357 0.61062 0.84793 0.0
C1281 C 0.88904 0.6527 0.97013 0.0
C1282 C 0.90798 0.64724 0.95381 0.0
C1283 C 0.86224 0.65789 0.95864 0.0
C1284 C 0.85381 0.65741 0.93067 0.0
C1285 C 0.87232 0.65151 0.91436 0.0
C1286 C 0.8993 0.64674 0.92581 0.0
C1287 C 0.82656 0.66422 0.91819 0.0
C1288 C 0.80082 0.6435 0.89998 0.0
C1289 C 0.82653 0.69136 0.92328 0.0
C1290 C 0.85339 0.71428 0.94184 0.0
C1291 C 0.88489 0.72421 0.93724 0.0
C1292 C 0.9101 0.74576 0.95491 0.0
C1293 C 0.90405 0.75771 0.97713 0.0
C1294 C 0.87275 0.74818 0.98167 0.0
C1295 C 0.84746 0.72661 0.96407 0.0
H1296 H 0.92359 0.7744 0.99078 0.0
H1297 H 0.67611 0.56677 0.81998 0.0
H1298 H 0.36728 0.80026 0.20247 0.0
H1299 H 0.38763 0.84142 0.17734 0.0
H1300 H 0.48368 0.86332 0.22292 0.0
H1301 H 0.46339 0.82221 0.24827 0.0
H1302 H 0.47132 0.9101 0.21575 0.0
H1303 H 0.45905 0.82802 0.15971 0.0
H1304 H 0.42904 0.77986 0.13581 0.0
H1305 H 0.36165 0.80766 0.08896 0.0
H1306 H 0.39102 0.85591 0.11287 0.0
H1307 H 0.56172 0.99746 0.12728 0.0
H1308 H 0.53754 0.96149 0.15664 0.0
H1309 H 0.44361 0.9411 0.10741 0.0
H1310 H 0.46777 0.9769 0.07784 0.0
H1311 H 0.4528 0.89404 0.11654 0.0
H1312 H 0.4643 0.97562 0.17092 0.0
H1313 H 0.49017 0.02285 0.19685 0.0
H1314 H 0.55653 0.99636 0.24707 0.0
H1315 H 0.53112 0.94894 0.22129 0.0
C1316 C 0.39274 0.81385 0.20713 0.0
C1317 C 0.4138 0.80783 0.22716 0.0
C1318 C 0.40433 0.83736 0.19276 0.0
C1319 C 0.43727 0.85517 0.19791 0.0
C1320 C 0.45818 0.84983 0.21856 0.0
C1321 C 0.44656 0.82637 0.23306 0.0
C1322 C 0.45006 0.87888 0.18129 0.0
C1323 C 0.46767 0.90658 0.19409 0.0
C1324 C 0.44443 0.87438 0.15294 0.0
C1325 C 0.42707 0.8455 0.13825 0.0
C1326 C 0.43773 0.82382 0.14442 0.0
C1327 C 0.42084 0.79651 0.13086 0.0
C1328 C 0.39341 0.79068 0.11092 0.0
C1329 C 0.38288 0.81219 0.10443 0.0
C1330 C 0.39965 0.83953 0.11796 0.0
C1331 C 0.53589 0.98546 0.12287 0.0
C1332 C 0.51663 0.98984 0.10022 0.0
C1333 C 0.52206 0.96503 0.13975 0.0
C1334 C 0.48871 0.94867 0.13435 0.0
C1335 C 0.46939 0.95343 0.11198 0.0
C1336 C 0.4832 0.9739 0.09512 0.0
C1337 C 0.47431 0.92539 0.15101 0.0
C1338 C 0.45644 0.89768 0.1382 0.0
C1339 C 0.4796 0.92992 0.17933 0.0
C1340 C 0.49598 0.95882 0.19401 0.0
C1341 C 0.48467 0.97997 0.18727 0.0
C1342 C 0.49916 0.00674 0.20204 0.0
C1343 C 0.52498 0.01261 0.22363 0.0
C1344 C 0.53651 0.99177 0.23037 0.0
C1345 C 0.52204 0.96493 0.21571 0.0
H1346 H 0.53602 0.03326 0.23519 0.0
H1347 H 0.38035 0.76952 0.10046 0.0
H1348 H 0.16939 0.32202 0.73983 0.0
H1349 H 0.14377 0.27276 0.7185 0.0
H1350 H 0.08557 0.29718 0.6564 0.0
H1351 H 0.11099 0.34628 0.67793 0.0
H1352 H 0.05146 0.24379 0.66926 0.0
H1353 H 0.15601 0.29469 0.6478 0.0
H1354 H 0.21464 0.32296 0.65994 0.0
H1355 H 0.22676 0.25472 0.70098 0.0
H1356 H 0.16815 0.22623 0.68944 0.0
H1357 H 1.00678 0.13157 0.56806 0.0
H1358 H 0.02907 0.17821 0.59381 0.0
H1359 H 0.09816 0.15511 0.64543 0.0
H1360 H 0.07729 0.10905 0.61808 0.0
H1361 H 0.12646 0.20706 0.64046 0.0
H1362 H 0.02304 0.15552 0.66226 0.0
H1363 H 0.96443 0.12693 0.65162 0.0
H1364 H 0.94989 0.19503 0.61213 0.0
H1365 H 1.00843 0.22395 0.62235 0.0
C1366 C 0.15027 0.31656 0.7222 0.0
C1367 C 0.14167 0.3378 0.71084 0.0
C1368 C 0.13592 0.28849 0.70978 0.0
C1369 C 0.113 0.28118 0.68551 0.0
C1370 C 0.10311 0.30212 0.67505 0.0
C1371 C 0.11747 0.33016 0.68746 0.0
C1372 C 0.10109 0.25251 0.66996 0.0
C1373 C 0.06785 0.23585 0.66282 0.0
C1374 C 0.12235 0.24169 0.66188 0.0
C1375 C 0.15768 0.25844 0.66798 0.0
C1376 C 0.17118 0.28576 0.65949 0.0
C1377 C 0.2044 0.30183 0.66628 0.0
C1378 C 0.22438 0.29067 0.68131 0.0
C1379 C 0.21123 0.26335 0.68939 0.0
C1380 C 0.17803 0.24723 0.68272 0.0
C1381 C 0.02685 0.13651 0.58484 0.0
C1382 C 0.04009 0.11654 0.5912 0.0
C1383 C 0.03943 0.16317 0.59983 0.0
C1384 C 0.06471 0.1702 0.62242 0.0
C1385 C 0.07851 0.15041 0.62835 0.0
C1386 C 0.06655 0.12399 0.61275 0.0
C1387 C 0.07663 0.19805 0.6397 0.0
C1388 C 0.10993 0.21471 0.64708 0.0
C1389 C 0.0554 0.20875 0.64824 0.0
C1390 C 0.02012 0.19181 0.64293 0.0
C1391 C 1.00733 0.16438 0.6513 0.0
C1392 C 0.97413 0.14812 0.64532 0.0
C1393 C 0.95346 0.15914 0.63116 0.0
C1394 C 0.96593 0.18653 0.6231 0.0
C1395 C 0.99911 0.20289 0.62903 0.0
H1396 H 0.92778 0.14647 0.62645 0.0
H1397 H 0.25004 0.30318 0.68674 0.0
H1398 H 0.70732 0.28447 0.38235 0.0
H1399 H 0.67325 0.30929 0.39025 0.0
H1400 H 0.75705 0.37961 0.43478 0.0
H1401 H 0.79082 0.35473 0.42703 0.0
H1402 H 0.70977 0.36238 0.46234 0.0
H1403 H 0.7195 0.38555 0.37255 0.0
H1404 H 0.71583 0.37581 0.32414 0.0
H1405 H 0.61409 0.32673 0.31348 0.0
H1406 H 0.61722 0.33585 0.36194 0.0
H1407 H 0.6418 0.46096 0.47944 0.0
H1408 H 0.67424 0.43896 0.46298 0.0
H1409 H 0.58796 0.36723 0.42462 0.0
H1410 H 0.55531 0.38869 0.44153 0.0
H1411 H 0.63513 0.38467 0.39296 0.0
H1412 H 0.62525 0.36039 0.48223 0.0
H1413 H 0.62808 0.37035 0.53045 0.0
H1414 H 0.7296 0.42077 0.54187 0.0
H1415 H 0.72727 0.41155 0.49356 0.0
C1416 C 0.71833 0.30542 0.39344 0.0
C1417 C 0.75149 0.31793 0.40402 0.0
C1418 C 0.69896 0.3196 0.39791 0.0
C1419 C 0.71262 0.3464 0.41304 0.0
C1420 C 0.74598 0.35899 0.42308 0.0
C1421 C 0.76524 0.34487 0.41857 0.0
C1422 C 0.69215 0.36067 0.41987 0.0
C1423 C 0.69382 0.36761 0.44711 0.0
C1424 C 0.67059 0.36676 0.40006 0.0
C1425 C 0.66867 0.36111 0.37094 0.0
C1426 C 0.69639 0.37245 0.35994 0.0
C1427 C 0.6944 0.36709 0.33248 0.0
C1428 C 0.66476 0.35059 0.31576 0.0
C1429 C 0.63704 0.33946 0.32646 0.0
C1430 C 0.63891 0.34473 0.35393 0.0
C1431 C 0.62968 0.44048 0.46755 0.0
C1432 C 0.59592 0.42644 0.46213 0.0
C1433 C 0.64826 0.42803 0.45801 0.0
C1434 C 0.63349 0.40133 0.44282 0.0
C1435 C 0.59982 0.38787 0.43627 0.0
C1436 C 0.5812 0.40023 0.44592 0.0
C1437 C 0.65321 0.38664 0.43533 0.0
C1438 C 0.65122 0.37949 0.40808 0.0
C1439 C 0.67444 0.38021 0.45509 0.0
C1440 C 0.67602 0.38553 0.48422 0.0
C1441 C 0.64814 0.3738 0.49498 0.0
C1442 C 0.64965 0.37929 0.52233 0.0
C1443 C 0.67899 0.39625 0.5392 0.0
C1444 C 0.70689 0.40768 0.52876 0.0
C1445 C 0.70548 0.40233 0.50139 0.0
H1446 H 0.68011 0.40047 0.56038 0.0
H1447 H 0.66327 0.34648 0.2945 0.0
loop_
_geom_bond_atom_site_label_1
_geom_bond_atom_site_label_2
_geom_bond_distance
_geom_bond_site_symmetry_2
_ccdc_geom_bond_type
H0 C3 0.929 . S
H1 C6 0.929 . S
H2 C8 0.930 . S
C3 H0 0.929 . S
C3 C4 1.398 . S
C3 C5 1.396 . S
C4 C3 1.398 . S
C4 C8 1.407 . S
C5 C3 1.396 . S
C5 C6 1.394 . S
C6 H1 0.929 . S
C6 C5 1.394 . S
C6 C7 1.382 . S
C7 C6 1.382 . S
C7 C8 1.392 . S
C7 N9 1.420 . S
C8 H2 0.930 . S
C8 C4 1.407 . S
C8 C7 1.392 . S
N9 C7 1.420 . S
N9 C10 1.244 . S
C10 N9 1.244 . S
H11 C14 0.929 . S
H12 C17 0.929 . S
H13 C19 0.930 . S
C14 H11 0.929 . S
C14 C15 1.398 . S
C14 C16 1.396 . S
C15 C14 1.398 . S
C15 C19 1.407 . S
C16 C14 1.396 . S
C16 C17 1.394 . S
C17 H12 0.929 . S
C17 C16 1.394 . S
C17 C18 1.382 . S
C18 C17 1.382 . S
C18 C19 1.392 . S
C18 N20 1.420 . S
C19 H13 0.930 . S
C19 C15 1.407 . S
C19 C18 1.392 . S
N20 C18 1.420 . S
N20 C21 1.244 . S
C21 N20 1.244 . S
H22 C25 0.929 . S
H23 C28 0.929 . S
H24 C30 0.930 . S
C25 H22 0.929 . S
C25 C26 1.398 . S
C25 C27 1.396 . S
C26 C25 1.398 . S
C26 C30 1.407 . S
C27 C25 1.396 . S
C27 C28 1.394 . S
C28 H23 0.929 . S
C28 C27 1.394 . S
C28 C29 1.382 . S
C29 C28 1.382 . S
C29 C30 1.392 . S
C29 N31 1.420 . S
C30 H24 0.930 . S
C30 C26 1.407 . S
C30 C29 1.392 . S
N31 C29 1.420 . S
N31 C32 1.244 . S
C32 N31 1.244 . S
H33 C36 0.929 . S
H34 C39 0.929 . S
H35 C41 0.930 . S
C36 H33 0.929 . S
C36 C37 1.398 . S
C36 C38 1.396 . S
C37 C36 1.398 . S
C37 C41 1.407 . S
C38 C36 1.396 . S
C38 C39 1.394 . S
C39 H34 0.929 . S
C39 C38 1.394 . S
C39 C40 1.382 . S
C40 C39 1.382 . S
C40 C41 1.392 . S
C40 N42 1.420 . S
C41 H35 0.930 . S
C41 C37 1.407 . S
C41 C40 1.392 . S
N42 C40 1.420 . S
N42 C43 1.244 . S
C43 N42 1.244 . S
H44 C47 0.929 . S
H45 C50 0.929 . S
H46 C52 0.930 . S
C47 H44 0.929 . S
C47 C48 1.398 . S
C47 C49 1.396 . S
C48 C47 1.398 . S
C48 C52 1.407 . S
C49 C47 1.396 . S
C49 C50 1.394 . S
C50 H45 0.929 . S
C50 C49 1.394 . S
C50 C51 1.382 . S
C51 C50 1.382 . S
C51 C52 1.392 . S
C51 N53 1.420 . S
C52 H46 0.930 . S
C52 C48 1.407 . S
C52 C51 1.392 . S
N53 C51 1.420 . S
N53 C54 1.244 . S
C54 N53 1.244 . S
H55 C58 0.929 . S
H56 C61 0.929 . S
H57 C63 0.930 . S
C58 H55 0.929 . S
C58 C59 1.398 . S
C58 C60 1.396 . S
C59 C58 1.398 . S
C59 C63 1.407 . S
C60 C58 1.396 . S
C60 C61 1.394 . S
C61 H56 0.929 . S
C61 C60 1.394 . S
C61 C62 1.382 . S
C62 C61 1.382 . S
C62 C63 1.392 . S
C62 N64 1.420 . S
C63 H57 0.930 . S
C63 C59 1.407 . S
C63 C62 1.392 . S
N64 C62 1.420 . S
N64 C65 1.244 . S
C65 N64 1.244 . S
H66 C69 0.929 . S
H67 C72 0.929 . S
H68 C74 0.930 . S
C69 H66 0.929 . S
C69 C70 1.398 . S
C69 C71 1.396 . S
C70 C69 1.398 . S
C70 C74 1.407 . S
C71 C69 1.396 . S
C71 C72 1.394 . S
C72 H67 0.929 . S
C72 C71 1.394 . S
C72 C73 1.382 . S
C73 C72 1.382 . S
C73 C74 1.392 . S
C73 N75 1.420 . S
C74 H68 0.930 . S
C74 C70 1.407 . S
C74 C73 1.392 . S
N75 C73 1.420 . S
N75 C76 1.244 . S
C76 N75 1.244 . S
H77 C80 0.929 . S
H78 C83 0.929 . S
H79 C85 0.930 . S
C80 H77 0.929 . S
C80 C81 1.398 . S
C80 C82 1.396 . S
C81 C80 1.398 . S
C81 C85 1.407 . S
C82 C80 1.396 . S
C82 C83 1.394 . S
C83 H78 0.929 . S
C83 C82 1.394 . S
C83 C84 1.382 . S
C84 C83 1.382 . S
C84 C85 1.392 . S
C84 N86 1.420 . S
C85 H79 0.930 . S
C85 C81 1.407 . S
C85 C84 1.392 . S
N86 C84 1.420 . S
N86 C87 1.244 . S
C87 N86 1.244 . S
Pr88 C90 2.880 1_545 S
Pr88 O108 2.562 1_545 S
Pr88 O109 2.490 . S
Pr88 O110 2.695 1_655 S
Pr88 O111 2.512 1_655 S
Pr88 O113 2.437 1_655 S
Pr88 O116 2.436 1_545 S
Pr88 O118 2.438 . S
Pr89 C99 2.880 . S
Pr89 O110 2.436 . S
Pr89 O112 2.438 . S
Pr89 O114 2.562 . S
Pr89 O115 2.490 . S
Pr89 O116 2.695 1_445 S
Pr89 O117 2.512 1_545 S
Pr89 O119 2.437 1_455 S
C90 Pr88 2.880 1_565 S
C90 C91 1.491 . S
C90 O108 1.254 . S
C90 O109 1.225 1_565 S
C91 C90 1.491 . S
C91 C92 1.392 . S
C91 C96 1.356 . S
C92 C91 1.392 . S
C92 C93 1.368 . S
C92 H120 0.929 . S
C93 C92 1.368 . S
C93 C94 1.386 . S
C93 H121 0.929 . S
C94 C93 1.386 . S
C94 C95 1.373 . S
C95 C94 1.373 . S
C95 C96 1.409 . S
C95 H122 0.931 . S
C96 C91 1.356 . S
C96 C95 1.409 . S
C96 H123 0.930 . S
C97 O110 1.270 . S
C97 O111 1.248 . S
C98 O112 1.262 1_565 S
C98 O113 1.262 1_565 S
C99 Pr89 2.880 . S
C99 C100 1.491 . S
C99 O114 1.254 . S
C99 O115 1.225 . S
C100 C99 1.491 . S
C100 C101 1.392 . S
C100 C105 1.356 . S
C101 C100 1.392 . S
C101 C102 1.368 . S
C101 H124 0.929 . S
C102 C101 1.368 . S
C102 C103 1.386 . S
C102 H125 0.929 . S
C103 C102 1.386 . S
C103 C104 1.373 . S
C104 C103 1.373 . S
C104 C105 1.409 . S
C104 H126 0.931 . S
C105 C100 1.356 . S
C105 C104 1.409 . S
C105 H127 0.930 . S
C106 O116 1.270 . S
C106 O117 1.248 1_655 S
C107 O118 1.267 . S
C107 O119 1.278 . S
O108 Pr88 2.562 1_565 S
O108 C90 1.254 . S
O109 Pr88 2.490 . S
O109 C90 1.225 1_545 S
O110 Pr88 2.695 1_455 S
O110 Pr89 2.436 . S
O110 C97 1.270 . S
O111 Pr88 2.512 1_455 S
O111 C97 1.248 . S
O112 Pr89 2.438 . S
O112 C98 1.262 1_545 S
O113 Pr88 2.437 1_455 S
O113 C98 1.262 1_545 S
O114 Pr89 2.562 . S
O114 C99 1.254 . S
O115 Pr89 2.490 . S
O115 C99 1.225 . S
O116 Pr88 2.436 1_565 S
O116 Pr89 2.695 1_665 S
O116 C106 1.270 . S
O117 Pr89 2.512 1_565 S
O117 C106 1.248 1_455 S
O118 Pr88 2.438 . S
O118 C107 1.267 . S
O119 Pr89 2.437 1_655 S
O119 C107 1.278 . S
H120 C92 0.929 . S
H121 C93 0.929 . S
H122 C95 0.931 . S
H123 C96 0.930 . S
H124 C101 0.929 . S
H125 C102 0.929 . S
H126 C104 0.931 . S
H127 C105 0.930 . S
Pr128 C130 2.880 . S
Pr128 O148 2.562 . S
Pr128 O149 2.490 . S
Pr128 O150 2.695 . S
Pr128 O151 2.512 . S
Pr128 O153 2.437 . S
Pr128 O156 2.436 . S
Pr128 O158 2.438 . S
Pr129 C139 2.880 1_545 S
Pr129 O150 2.436 . S
Pr129 O152 2.438 . S
Pr129 O154 2.562 . S
Pr129 O155 2.490 1_545 S
Pr129 O156 2.695 . S
Pr129 O157 2.512 1_545 S
Pr129 O159 2.437 1_545 S
C130 Pr128 2.880 . S
C130 C131 1.491 . S
C130 O148 1.254 . S
C130 O149 1.225 . S
C131 C130 1.491 . S
C131 C132 1.392 . S
C131 C136 1.356 . S
C132 C131 1.392 . S
C132 C133 1.368 . S
C132 H160 0.929 . S
C133 C132 1.368 . S
C133 C134 1.386 . S
C133 H161 0.929 . S
C134 C133 1.386 . S
C134 C135 1.373 . S
C135 C134 1.373 . S
C135 C136 1.409 . S
C135 H162 0.931 . S
C136 C131 1.356 . S
C136 C135 1.409 . S
C136 H163 0.930 . S
C137 O150 1.270 . S
C137 O151 1.248 . S
C138 O152 1.267 . S
C138 O153 1.278 . S
C139 Pr129 2.880 1_565 S
C139 C140 1.491 1_554 S
C139 O154 1.254 1_565 S
C139 O155 1.225 . S
C140 C139 1.491 1_556 S
C140 C141 1.392 1_556 S
C140 C145 1.356 . S
C141 C140 1.392 1_554 S
C141 C142 1.368 1_554 S
C141 H164 0.929 . S
C142 C141 1.368 1_556 S
C142 C143 1.386 . S
C142 H165 0.929 . S
C143 C142 1.386 . S
C143 C144 1.373 . S
C144 C143 1.373 . S
C144 C145 1.409 . S
C144 H166 0.931 . S
C145 C140 1.356 . S
C145 C144 1.409 . S
C145 H167 0.930 . S
C146 O156 1.270 1_565 S
C146 O157 1.248 . S
C147 O158 1.267 1_565 S
C147 O159 1.278 . S
O148 Pr128 2.562 . S
O148 C130 1.254 . S
O149 Pr128 2.490 . S
O149 C130 1.225 . S
O150 Pr128 2.695 . S
O150 Pr129 2.436 . S
O150 C137 1.270 . S
O151 Pr128 2.512 . S
O151 C137 1.248 . S
O152 Pr129 2.438 . S
O152 C138 1.267 . S
O153 Pr128 2.437 . S
O153 C138 1.278 . S
O154 Pr129 2.562 . S
O154 C139 1.254 1_545 S
O155 Pr129 2.490 1_565 S
O155 C139 1.225 . S
O156 Pr128 2.436 . S
O156 Pr129 2.695 . S
O156 C146 1.270 1_545 S
O157 Pr129 2.512 1_565 S
O157 C146 1.248 . S
O158 Pr128 2.438 . S
O158 C147 1.267 1_545 S
O159 Pr129 2.437 1_565 S
O159 C147 1.278 . S
H160 C132 0.929 . S
H161 C133 0.929 . S
H162 C135 0.931 . S
H163 C136 0.930 . S
H164 C141 0.929 . S
H165 C142 0.929 . S
H166 C144 0.931 . S
H167 C145 0.930 . S
Pr168 C170 2.880 . S
Pr168 O188 2.562 . S
Pr168 O189 2.490 . S
Pr168 O190 2.695 . S
Pr168 O191 2.512 . S
Pr168 O193 2.437 . S
Pr168 O196 2.436 . S
Pr168 O198 2.438 . S
Pr169 C179 2.880 . S
Pr169 O190 2.436 . S
Pr169 O192 2.438 . S
Pr169 O194 2.562 . S
Pr169 O195 2.490 . S
Pr169 O196 2.695 . S
Pr169 O197 2.512 . S
Pr169 O199 2.437 . S
C170 Pr168 2.880 . S
C170 C171 1.491 . S
C170 O188 1.254 . S
C170 O189 1.225 . S
C171 C170 1.491 . S
C171 C172 1.392 . S
C171 C176 1.356 . S
C172 C171 1.392 . S
C172 C173 1.368 . S
C172 H200 0.929 . S
C173 C172 1.368 . S
C173 C174 1.386 . S
C173 H201 0.929 . S
C174 C173 1.386 . S
C174 C175 1.373 . S
C175 C174 1.373 . S
C175 C176 1.409 . S
C175 H202 0.931 . S
C176 C171 1.356 . S
C176 C175 1.409 . S
C176 H203 0.930 . S
C177 O190 1.270 . S
C177 O191 1.248 . S
C178 O192 1.267 . S
C178 O193 1.278 . S
C179 Pr169 2.880 . S
C179 C180 1.491 . S
C179 O194 1.254 . S
C179 O195 1.225 . S
C180 C179 1.491 . S
C180 C181 1.392 . S
C180 C185 1.356 . S
C181 C180 1.392 . S
C181 C182 1.368 . S
C181 H204 0.929 . S
C182 C181 1.368 . S
C182 C183 1.386 . S
C182 H205 0.929 . S
C183 C182 1.386 . S
C183 C184 1.373 . S
C184 C183 1.373 . S
C184 C185 1.409 . S
C184 H206 0.931 . S
C185 C180 1.356 . S
C185 C184 1.409 . S
C185 H207 0.930 . S
C186 O196 1.270 . S
C186 O197 1.248 . S
C187 O198 1.267 . S
C187 O199 1.278 . S
O188 Pr168 2.562 . S
O188 C170 1.254 . S
O189 Pr168 2.490 . S
O189 C170 1.225 . S
O190 Pr168 2.695 . S
O190 Pr169 2.436 . S
O190 C177 1.270 . S
O191 Pr168 2.512 . S
O191 C177 1.248 . S
O192 Pr169 2.438 . S
O192 C178 1.267 . S
O193 Pr168 2.437 . S
O193 C178 1.278 . S
O194 Pr169 2.562 . S
O194 C179 1.254 . S
O195 Pr169 2.490 . S
O195 C179 1.225 . S
O196 Pr168 2.436 . S
O196 Pr169 2.695 . S
O196 C186 1.270 . S
O197 Pr169 2.512 . S
O197 C186 1.248 . S
O198 Pr168 2.438 . S
O198 C187 1.267 . S
O199 Pr169 2.437 . S
O199 C187 1.278 . S
H200 C172 0.929 . S
H201 C173 0.929 . S
H202 C175 0.931 . S
H203 C176 0.930 . S
H204 C181 0.929 . S
H205 C182 0.929 . S
H206 C184 0.931 . S
H207 C185 0.930 . S
Pr208 C210 2.880 1_455 S
Pr208 O228 2.562 1_455 S
Pr208 O229 2.490 . S
Pr208 O230 2.695 1_556 S
Pr208 O231 2.512 1_556 S
Pr208 O233 2.437 1_556 S
Pr208 O236 2.436 1_455 S
Pr208 O238 2.438 . S
Pr209 C219 2.880 . S
Pr209 O230 2.436 . S
Pr209 O232 2.438 1_455 S
Pr209 O234 2.562 . S
Pr209 O235 2.490 . S
Pr209 O236 2.695 1_454 S
Pr209 O237 2.514 1_454 S
Pr209 O239 2.437 1_554 S
C210 Pr208 2.880 1_655 S
C210 C211 1.491 . S
C210 O228 1.254 . S
C210 O229 1.225 1_655 S
C211 C210 1.491 . S
C211 C212 1.392 . S
C211 C216 1.356 . S
C212 C211 1.392 . S
C212 C213 1.368 . S
C212 H240 0.929 1_655 S
C213 C212 1.368 . S
C213 C214 1.386 . S
C213 H241 0.929 . S
C214 C213 1.386 . S
C214 C215 1.373 . S
C215 C214 1.373 . S
C215 C216 1.409 . S
C215 H242 0.931 . S
C216 C211 1.356 . S
C216 C215 1.409 . S
C216 H243 0.930 . S
C217 O230 1.270 . S
C217 O231 1.248 . S
C218 O232 1.267 . S
C218 O233 1.278 1_655 S
C219 Pr209 2.880 . S
C219 C220 1.491 . S
C219 O234 1.254 . S
C219 O235 1.225 . S
C220 C219 1.491 . S
C220 C221 1.392 . S
C220 C225 1.356 . S
C221 C220 1.392 . S
C221 C222 1.368 . S
C221 H244 0.929 . S
C222 C221 1.368 . S
C222 C223 1.386 . S
C222 H245 0.929 . S
C223 C222 1.386 . S
C223 C224 1.373 . S
C224 C223 1.373 . S
C224 C225 1.409 . S
C224 H246 0.931 . S
C225 C220 1.356 . S
C225 C224 1.409 . S
C225 H247 0.930 . S
C226 O236 1.270 . S
C226 O237 1.247 . S
C227 O238 1.267 . S
C227 O239 1.278 . S
O228 Pr208 2.562 1_655 S
O228 C210 1.254 . S
O229 Pr208 2.490 . S
O229 C210 1.225 1_455 S
O230 Pr208 2.695 1_554 S
O230 Pr209 2.436 . S
O230 C217 1.270 . S
O231 Pr208 2.512 1_554 S
O231 C217 1.248 . S
O232 Pr209 2.438 1_655 S
O232 C218 1.267 . S
O233 Pr208 2.437 1_554 S
O233 C218 1.278 1_455 S
O234 Pr209 2.562 . S
O234 C219 1.254 . S
O235 Pr209 2.490 . S
O235 C219 1.225 . S
O236 Pr208 2.436 1_655 S
O236 Pr209 2.695 1_656 S
O236 C226 1.270 . S
O237 Pr209 2.514 1_656 S
O237 C226 1.247 . S
O238 Pr208 2.438 . S
O238 C227 1.267 . S
O239 Pr209 2.437 1_556 S
O239 C227 1.278 . S
H240 C212 0.929 1_455 S
H241 C213 0.929 . S
H242 C215 0.931 . S
H243 C216 0.930 . S
H244 C221 0.929 . S
H245 C222 0.929 . S
H246 C224 0.931 . S
H247 C225 0.930 . S
H248 C266 0.951 . S
H249 C268 0.951 . S
H250 C270 0.950 . S
H251 C271 0.950 . S
H252 C273 0.950 . S
H253 C276 0.950 . S
H254 C277 0.950 . S
H255 C279 0.950 . S
H256 C280 0.950 . S
H257 C281 0.951 . S
H258 C283 0.951 . S
H259 C285 0.950 . S
H260 C286 0.950 . S
H261 C288 0.950 . S
H262 C291 0.950 . S
H263 C292 0.950 . S
H264 C294 0.950 . S
H265 C295 0.950 . S
C266 H248 0.951 . S
C266 C267 1.366 . S
C266 C268 1.388 . S
C267 C266 1.366 . S
C267 C271 1.385 . S
C268 H249 0.951 . S
C268 C266 1.388 . S
C268 C269 1.366 . S
C269 C268 1.366 . S
C269 C270 1.414 . S
C269 C272 1.499 . S
C270 H250 0.950 . S
C270 C269 1.414 . S
C270 C271 1.374 . S
C271 H251 0.950 . S
C271 C267 1.385 . S
C271 C270 1.374 . S
C272 C269 1.499 . S
C272 C273 1.373 . S
C272 C274 1.389 . S
C273 H252 0.950 . S
C273 C272 1.373 . S
C273 C289 1.377 . S
C274 C272 1.389 . S
C274 C275 1.524 . S
C274 C288 1.377 . S
C275 C274 1.524 . S
C275 C276 1.397 . S
C275 C280 1.363 . S
C276 H253 0.950 . S
C276 C275 1.397 . S
C276 C277 1.334 . S
C277 H254 0.950 . S
C277 C276 1.334 . S
C277 C278 1.287 . S
C278 C277 1.287 . S
C278 C279 1.524 . S
C278 H297 0.913 . S
C279 H255 0.950 . S
C279 C278 1.524 . S
C279 C280 1.415 . S
C280 H256 0.950 . S
C280 C275 1.363 . S
C280 C279 1.415 . S
C281 H257 0.951 . S
C281 C282 1.366 . S
C281 C283 1.388 . S
C282 C281 1.366 . S
C282 C286 1.385 . S
C283 H258 0.951 . S
C283 C281 1.388 . S
C283 C284 1.366 . S
C284 C283 1.366 . S
C284 C285 1.414 . S
C284 C287 1.499 . S
C285 H259 0.950 . S
C285 C284 1.414 . S
C285 C286 1.374 . S
C286 H260 0.950 . S
C286 C282 1.385 . S
C286 C285 1.374 . S
C287 C284 1.499 . S
C287 C288 1.373 . S
C287 C289 1.389 . S
C288 H261 0.950 . S
C288 C274 1.377 . S
C288 C287 1.373 . S
C289 C273 1.377 . S
C289 C287 1.389 . S
C289 C290 1.524 . S
C290 C289 1.524 . S
C290 C291 1.397 . S
C290 C295 1.363 . S
C291 H262 0.950 . S
C291 C290 1.397 . S
C291 C292 1.334 . S
C292 H263 0.950 . S
C292 C291 1.334 . S
C292 C293 1.287 . S
C293 C292 1.287 . S
C293 C294 1.524 . S
C293 H296 0.999 . S
C294 H264 0.950 . S
C294 C293 1.524 . S
C294 C295 1.415 . S
C295 H265 0.950 . S
C295 C290 1.363 . S
C295 C294 1.415 . S
H296 C293 0.999 . S
H297 C278 0.913 . S
H298 C316 0.951 . S
H299 C318 0.951 . S
H300 C320 0.950 . S
H301 C321 0.950 . S
H302 C323 0.950 . S
H303 C326 0.950 . S
H304 C327 0.950 . S
H305 C329 0.950 . S
H306 C330 0.950 . S
H307 C331 0.951 . S
H308 C333 0.951 . S
H309 C335 0.950 . S
H310 C336 0.950 . S
H311 C338 0.950 . S
H312 C341 0.950 . S
H313 C342 0.950 . S
H314 C344 0.950 . S
H315 C345 0.950 . S
C316 H298 0.951 . S
C316 C317 1.366 . S
C316 C318 1.388 . S
C317 C316 1.366 . S
C317 C321 1.385 . S
C318 H299 0.951 . S
C318 C316 1.388 . S
C318 C319 1.366 . S
C319 C318 1.366 . S
C319 C320 1.414 . S
C319 C322 1.499 . S
C320 H300 0.950 . S
C320 C319 1.414 . S
C320 C321 1.374 . S
C321 H301 0.950 . S
C321 C317 1.385 . S
C321 C320 1.374 . S
C322 C319 1.499 . S
C322 C323 1.373 . S
C322 C324 1.389 . S
C323 H302 0.950 . S
C323 C322 1.373 . S
C323 C339 1.377 . S
C324 C322 1.389 . S
C324 C325 1.524 . S
C324 C338 1.377 . S
C325 C324 1.524 . S
C325 C326 1.397 . S
C325 C330 1.363 . S
C326 H303 0.950 . S
C326 C325 1.397 . S
C326 C327 1.334 . S
C327 H304 0.950 . S
C327 C326 1.334 . S
C327 C328 1.287 . S
C328 C327 1.287 . S
C328 C329 1.524 . S
C328 H347 0.913 . S
C329 H305 0.950 . S
C329 C328 1.524 . S
C329 C330 1.415 . S
C330 H306 0.950 . S
C330 C325 1.363 . S
C330 C329 1.415 . S
C331 H307 0.951 . S
C331 C332 1.366 . S
C331 C333 1.388 . S
C332 C331 1.366 . S
C332 C336 1.385 . S
C333 H308 0.951 . S
C333 C331 1.388 . S
C333 C334 1.366 . S
C334 C333 1.366 . S
C334 C335 1.414 . S
C334 C337 1.499 . S
C335 H309 0.950 . S
C335 C334 1.414 . S
C335 C336 1.374 . S
C336 H310 0.950 . S
C336 C332 1.385 . S
C336 C335 1.374 . S
C337 C334 1.499 . S
C337 C338 1.373 . S
C337 C339 1.389 . S
C338 H311 0.950 . S
C338 C324 1.377 . S
C338 C337 1.373 . S
C339 C323 1.377 . S
C339 C337 1.389 . S
C339 C340 1.524 . S
C340 C339 1.524 . S
C340 C341 1.397 . S
C340 C345 1.363 . S
C341 H312 0.950 . S
C341 C340 1.397 . S
C341 C342 1.334 . S
C342 H313 0.950 . S
C342 C341 1.334 . S
C342 C343 1.287 . S
C343 C342 1.287 . S
C343 C344 1.524 . S
C343 H346 0.999 . S
C344 H314 0.950 . S
C344 C343 1.524 . S
C344 C345 1.415 . S
C345 H315 0.950 . S
C345 C340 1.363 . S
C345 C344 1.415 . S
H346 C343 0.999 . S
H347 C328 0.913 . S
H348 C366 0.951 . S
H349 C368 0.951 . S
H350 C370 0.950 . S
H351 C371 0.950 . S
H352 C373 0.950 . S
H353 C376 0.950 . S
H354 C377 0.950 . S
H355 C379 0.950 . S
H356 C380 0.950 . S
H357 C381 0.951 . S
H358 C383 0.951 . S
H359 C385 0.950 . S
H360 C386 0.950 . S
H361 C388 0.950 . S
H362 C391 0.950 . S
H363 C392 0.950 . S
H364 C394 0.950 . S
H365 C395 0.950 . S
C366 H348 0.951 . S
C366 C367 1.366 . S
C366 C368 1.388 . S
C367 C366 1.366 . S
C367 C371 1.385 . S
C368 H349 0.951 . S
C368 C366 1.388 . S
C368 C369 1.366 . S
C369 C368 1.366 . S
C369 C370 1.414 . S
C369 C372 1.499 . S
C370 H350 0.950 . S
C370 C369 1.414 . S
C370 C371 1.374 . S
C371 H351 0.950 . S
C371 C367 1.385 . S
C371 C370 1.374 . S
C372 C369 1.499 . S
C372 C373 1.373 . S
C372 C374 1.389 . S
C373 H352 0.950 . S
C373 C372 1.373 . S
C373 C389 1.377 . S
C374 C372 1.389 . S
C374 C375 1.524 . S
C374 C388 1.377 . S
C375 C374 1.524 . S
C375 C376 1.397 . S
C375 C380 1.363 . S
C376 H353 0.950 . S
C376 C375 1.397 . S
C376 C377 1.334 . S
C377 H354 0.950 . S
C377 C376 1.334 . S
C377 C378 1.287 . S
C378 C377 1.287 . S
C378 C379 1.524 . S
C378 H397 0.913 . S
C379 H355 0.950 . S
C379 C378 1.524 . S
C379 C380 1.415 . S
C380 H356 0.950 . S
C380 C375 1.363 . S
C380 C379 1.415 . S
C381 H357 0.951 . S
C381 C382 1.366 . S
C381 C383 1.388 . S
C382 C381 1.366 . S
C382 C386 1.385 . S
C383 H358 0.951 . S
C383 C381 1.388 . S
C383 C384 1.366 . S
C384 C383 1.366 . S
C384 C385 1.414 . S
C384 C387 1.499 . S
C385 H359 0.950 . S
C385 C384 1.414 . S
C385 C386 1.374 . S
C386 H360 0.950 . S
C386 C382 1.385 . S
C386 C385 1.374 . S
C387 C384 1.499 . S
C387 C388 1.373 . S
C387 C389 1.389 . S
C388 H361 0.950 . S
C388 C374 1.377 . S
C388 C387 1.373 . S
C389 C373 1.377 . S
C389 C387 1.389 . S
C389 C390 1.524 . S
C390 C389 1.524 . S
C390 C391 1.397 . S
C390 C395 1.363 . S
C391 H362 0.950 . S
C391 C390 1.397 . S
C391 C392 1.334 . S
C392 H363 0.950 . S
C392 C391 1.334 . S
C392 C393 1.287 . S
C393 C392 1.287 . S
C393 C394 1.524 . S
C393 H396 0.999 . S
C394 H364 0.950 . S
C394 C393 1.524 . S
C394 C395 1.415 . S
C395 H365 0.950 . S
C395 C390 1.363 . S
C395 C394 1.415 . S
H396 C393 0.999 . S
H397 C378 0.913 . S
H398 C416 0.951 . S
H399 C418 0.951 . S
H400 C420 0.950 . S
H401 C421 0.950 . S
H402 C423 0.950 . S
H403 C426 0.950 . S
H404 C427 0.950 . S
H405 C429 0.950 . S
H406 C430 0.950 . S
H407 C431 0.951 . S
H408 C433 0.951 . S
H409 C435 0.950 . S
H410 C436 0.950 . S
H411 C438 0.950 . S
H412 C441 0.950 . S
H413 C442 0.950 . S
H414 C444 0.950 . S
H415 C445 0.950 . S
C416 H398 0.951 . S
C416 C417 1.366 . S
C416 C418 1.388 . S
C417 C416 1.366 . S
C417 C421 1.385 . S
C418 H399 0.951 . S
C418 C416 1.388 . S
C418 C419 1.366 . S
C419 C418 1.366 . S
C419 C420 1.414 . S
C419 C422 1.499 . S
C420 H400 0.950 . S
C420 C419 1.414 . S
C420 C421 1.374 . S
C421 H401 0.950 . S
C421 C417 1.385 . S
C421 C420 1.374 . S
C422 C419 1.499 . S
C422 C423 1.373 . S
C422 C424 1.389 . S
C423 H402 0.950 . S
C423 C422 1.373 . S
C423 C439 1.377 . S
C424 C422 1.389 . S
C424 C425 1.524 . S
C424 C438 1.377 . S
C425 C424 1.524 . S
C425 C426 1.397 . S
C425 C430 1.363 . S
C426 H403 0.950 . S
C426 C425 1.397 . S
C426 C427 1.334 . S
C427 H404 0.950 . S
C427 C426 1.334 . S
C427 C428 1.287 . S
C428 C427 1.287 . S
C428 C429 1.524 . S
C428 H447 0.913 . S
C429 H405 0.950 . S
C429 C428 1.524 . S
C429 C430 1.415 . S
C430 H406 0.950 . S
C430 C425 1.363 . S
C430 C429 1.415 . S
C431 H407 0.951 . S
C431 C432 1.366 . S
C431 C433 1.388 . S
C432 C431 1.366 . S
C432 C436 1.385 . S
C433 H408 0.951 . S
C433 C431 1.388 . S
C433 C434 1.366 . S
C434 C433 1.366 . S
C434 C435 1.414 . S
C434 C437 1.499 . S
C435 H409 0.950 . S
C435 C434 1.414 . S
C435 C436 1.374 . S
C436 H410 0.950 . S
C436 C432 1.385 . S
C436 C435 1.374 . S
C437 C434 1.499 . S
C437 C438 1.373 . S
C437 C439 1.389 . S
C438 H411 0.950 . S
C438 C424 1.377 . S
C438 C437 1.373 . S
C439 C423 1.377 . S
C439 C437 1.389 . S
C439 C440 1.524 . S
C440 C439 1.524 . S
C440 C441 1.397 . S
C440 C445 1.363 . S
C441 H412 0.950 . S
C441 C440 1.397 . S
C441 C442 1.334 . S
C442 H413 0.950 . S
C442 C441 1.334 . S
C442 C443 1.287 . S
C443 C442 1.287 . S
C443 C444 1.524 . S
C443 H446 0.999 . S
C444 H414 0.950 . S
C444 C443 1.524 . S
C444 C445 1.415 . S
C445 H415 0.950 . S
C445 C440 1.363 . S
C445 C444 1.415 . S
H446 C443 0.999 . S
H447 C428 0.913 . S
H448 C466 0.951 . S
H449 C468 0.951 . S
H450 C470 0.950 . S
H451 C471 0.950 . S
H452 C473 0.950 . S
H453 C476 0.950 . S
H454 C477 0.950 . S
H455 C479 0.950 . S
H456 C480 0.950 . S
H457 C481 0.951 . S
H458 C483 0.951 . S
H459 C485 0.950 . S
H460 C486 0.950 . S
H461 C488 0.950 . S
H462 C491 0.950 . S
H463 C492 0.950 . S
H464 C494 0.950 . S
H465 C495 0.950 . S
C466 H448 0.951 . S
C466 C467 1.366 . S
C466 C468 1.388 . S
C467 C466 1.366 . S
C467 C471 1.385 . S
C468 H449 0.951 . S
C468 C466 1.388 . S
C468 C469 1.366 . S
C469 C468 1.366 . S
C469 C470 1.414 . S
C469 C472 1.499 . S
C470 H450 0.950 . S
C470 C469 1.414 . S
C470 C471 1.374 . S
C471 H451 0.950 . S
C471 C467 1.385 . S
C471 C470 1.374 . S
C472 C469 1.499 . S
C472 C473 1.373 . S
C472 C474 1.389 . S
C473 H452 0.950 . S
C473 C472 1.373 . S
C473 C489 1.377 . S
C474 C472 1.389 . S
C474 C475 1.524 . S
C474 C488 1.377 . S
C475 C474 1.524 . S
C475 C476 1.397 . S
C475 C480 1.363 . S
C476 H453 0.950 . S
C476 C475 1.397 . S
C476 C477 1.334 . S
C477 H454 0.950 . S
C477 C476 1.334 . S
C477 C478 1.287 . S
C478 C477 1.287 . S
C478 C479 1.524 . S
C478 H497 0.913 . S
C479 H455 0.950 . S
C479 C478 1.524 . S
C479 C480 1.415 . S
C480 H456 0.950 . S
C480 C475 1.363 . S
C480 C479 1.415 . S
C481 H457 0.951 . S
C481 C482 1.366 . S
C481 C483 1.388 . S
C482 C481 1.366 . S
C482 C486 1.385 . S
C483 H458 0.951 . S
C483 C481 1.388 . S
C483 C484 1.366 . S
C484 C483 1.366 . S
C484 C485 1.414 . S
C484 C487 1.499 . S
C485 H459 0.950 . S
C485 C484 1.414 . S
C485 C486 1.374 . S
C486 H460 0.950 . S
C486 C482 1.385 . S
C486 C485 1.374 . S
C487 C484 1.499 . S
C487 C488 1.373 . S
C487 C489 1.389 . S
C488 H461 0.950 . S
C488 C474 1.377 . S
C488 C487 1.373 . S
C489 C473 1.377 . S
C489 C487 1.389 . S
C489 C490 1.524 . S
C490 C489 1.524 . S
C490 C491 1.397 . S
C490 C495 1.363 . S
C491 H462 0.950 . S
C491 C490 1.397 . S
C491 C492 1.334 . S
C492 H463 0.950 . S
C492 C491 1.334 . S
C492 C493 1.287 . S
C493 C492 1.287 . S
C493 C494 1.524 . S
C493 H496 0.999 . S
C494 H464 0.950 . S
C494 C493 1.524 . S
C494 C495 1.415 . S
C495 H465 0.950 . S
C495 C490 1.363 . S
C495 C494 1.415 . S
H496 C493 0.999 . S
H497 C478 0.913 . S
H498 C516 0.951 . S
H499 C518 0.951 . S
H500 C520 0.950 . S
H501 C521 0.950 . S
H502 C523 0.950 . S
H503 C526 0.950 . S
H504 C527 0.950 . S
H505 C529 0.950 . S
H506 C530 0.950 . S
H507 C531 0.951 1_545 S
H508 C533 0.951 . S
H509 C535 0.950 . S
H510 C536 0.950 . S
H511 C538 0.950 . S
H512 C541 0.950 . S
H513 C542 0.950 . S
H514 C544 0.950 . S
H515 C545 0.950 . S
C516 H498 0.951 . S
C516 C517 1.366 . S
C516 C518 1.388 . S
C517 C516 1.366 . S
C517 C521 1.385 . S
C518 H499 0.951 . S
C518 C516 1.388 . S
C518 C519 1.366 . S
C519 C518 1.366 . S
C519 C520 1.414 . S
C519 C522 1.499 . S
C520 H500 0.950 . S
C520 C519 1.414 . S
C520 C521 1.374 . S
C521 H501 0.950 . S
C521 C517 1.385 . S
C521 C520 1.374 . S
C522 C519 1.499 . S
C522 C523 1.373 . S
C522 C524 1.389 . S
C523 H502 0.950 . S
C523 C522 1.373 . S
C523 C539 1.377 . S
C524 C522 1.389 . S
C524 C525 1.524 . S
C524 C538 1.377 . S
C525 C524 1.524 . S
C525 C526 1.397 . S
C525 C530 1.363 . S
C526 H503 0.950 . S
C526 C525 1.397 . S
C526 C527 1.334 . S
C527 H504 0.950 . S
C527 C526 1.334 . S
C527 C528 1.287 . S
C528 C527 1.287 . S
C528 C529 1.524 . S
C528 H547 0.913 . S
C529 H505 0.950 . S
C529 C528 1.524 . S
C529 C530 1.415 . S
C530 H506 0.950 . S
C530 C525 1.363 . S
C530 C529 1.415 . S
C531 H507 0.951 1_565 S
C531 C532 1.366 . S
C531 C533 1.388 . S
C532 C531 1.366 . S
C532 C536 1.385 . S
C533 H508 0.951 . S
C533 C531 1.388 . S
C533 C534 1.366 . S
C534 C533 1.366 . S
C534 C535 1.414 . S
C534 C537 1.499 . S
C535 H509 0.950 . S
C535 C534 1.414 . S
C535 C536 1.374 . S
C536 H510 0.950 . S
C536 C532 1.385 . S
C536 C535 1.374 . S
C537 C534 1.499 . S
C537 C538 1.373 . S
C537 C539 1.389 . S
C538 H511 0.950 . S
C538 C524 1.377 . S
C538 C537 1.373 . S
C539 C523 1.377 . S
C539 C537 1.389 . S
C539 C540 1.524 . S
C540 C539 1.524 . S
C540 C541 1.397 . S
C540 C545 1.363 . S
C541 H512 0.950 . S
C541 C540 1.397 . S
C541 C542 1.334 . S
C542 H513 0.950 . S
C542 C541 1.334 . S
C542 C543 1.287 . S
C543 C542 1.287 . S
C543 C544 1.524 . S
C543 H546 0.999 . S
C544 H514 0.950 . S
C544 C543 1.524 . S
C544 C545 1.415 . S
C545 H515 0.950 . S
C545 C540 1.363 . S
C545 C544 1.415 . S
H546 C543 0.999 . S
H547 C528 0.913 . S
H548 C566 0.951 . S
H549 C568 0.951 . S
H550 C570 0.950 . S
H551 C571 0.950 . S
H552 C573 0.950 . S
H553 C576 0.950 . S
H554 C577 0.950 . S
H555 C579 0.950 . S
H556 C580 0.950 . S
H557 C581 0.951 . S
H558 C583 0.951 . S
H559 C585 0.950 . S
H560 C586 0.950 . S
H561 C588 0.950 . S
H562 C591 0.950 . S
H563 C592 0.950 . S
H564 C594 0.950 . S
H565 C595 0.950 . S
C566 H548 0.951 . S
C566 C567 1.366 . S
C566 C568 1.388 . S
C567 C566 1.366 . S
C567 C571 1.385 . S
C568 H549 0.951 . S
C568 C566 1.388 . S
C568 C569 1.366 . S
C569 C568 1.366 . S
C569 C570 1.414 . S
C569 C572 1.499 . S
C570 H550 0.950 . S
C570 C569 1.414 . S
C570 C571 1.374 . S
C571 H551 0.950 . S
C571 C567 1.385 . S
C571 C570 1.374 . S
C572 C569 1.499 . S
C572 C573 1.373 . S
C572 C574 1.389 . S
C573 H552 0.950 . S
C573 C572 1.373 . S
C573 C589 1.377 . S
C574 C572 1.389 . S
C574 C575 1.524 . S
C574 C588 1.377 . S
C575 C574 1.524 . S
C575 C576 1.397 . S
C575 C580 1.363 . S
C576 H553 0.950 . S
C576 C575 1.397 . S
C576 C577 1.334 . S
C577 H554 0.950 . S
C577 C576 1.334 . S
C577 C578 1.287 . S
C578 C577 1.287 . S
C578 C579 1.524 . S
C578 H597 0.913 . S
C579 H555 0.950 . S
C579 C578 1.524 . S
C579 C580 1.415 . S
C580 H556 0.950 . S
C580 C575 1.363 . S
C580 C579 1.415 . S
C581 H557 0.951 . S
C581 C582 1.366 . S
C581 C583 1.388 . S
C582 C581 1.366 . S
C582 C586 1.385 . S
C583 H558 0.951 . S
C583 C581 1.388 . S
C583 C584 1.366 . S
C584 C583 1.366 . S
C584 C585 1.414 . S
C584 C587 1.499 . S
C585 H559 0.950 . S
C585 C584 1.414 . S
C585 C586 1.374 . S
C586 H560 0.950 . S
C586 C582 1.385 . S
C586 C585 1.374 . S
C587 C584 1.499 . S
C587 C588 1.373 . S
C587 C589 1.389 . S
C588 H561 0.950 . S
C588 C574 1.377 . S
C588 C587 1.373 . S
C589 C573 1.377 . S
C589 C587 1.389 . S
C589 C590 1.524 . S
C590 C589 1.524 . S
C590 C591 1.397 . S
C590 C595 1.363 . S
C591 H562 0.950 . S
C591 C590 1.397 . S
C591 C592 1.334 . S
C592 H563 0.950 . S
C592 C591 1.334 . S
C592 C593 1.287 . S
C593 C592 1.287 . S
C593 C594 1.524 . S
C593 H596 0.999 . S
C594 H564 0.950 . S
C594 C593 1.524 . S
C594 C595 1.415 . S
C595 H565 0.950 . S
C595 C590 1.363 . S
C595 C594 1.415 . S
H596 C593 0.999 . S
H597 C578 0.913 . S
H598 C616 0.951 . S
H599 C618 0.951 . S
H600 C620 0.950 . S
H601 C621 0.950 . S
H602 C623 0.950 . S
H603 C626 0.950 . S
H604 C627 0.950 . S
H605 C629 0.950 . S
H606 C630 0.950 . S
H607 C631 0.951 . S
H608 C633 0.951 . S
H609 C635 0.950 . S
H610 C636 0.950 . S
H611 C638 0.950 . S
H612 C641 0.950 . S
H613 C642 0.950 . S
H614 C644 0.950 . S
H615 C645 0.950 . S
C616 H598 0.951 . S
C616 C617 1.366 . S
C616 C618 1.388 . S
C617 C616 1.366 . S
C617 C621 1.385 . S
C618 H599 0.951 . S
C618 C616 1.388 . S
C618 C619 1.366 . S
C619 C618 1.366 . S
C619 C620 1.414 . S
C619 C622 1.499 . S
C620 H600 0.950 . S
C620 C619 1.414 . S
C620 C621 1.374 . S
C621 H601 0.950 . S
C621 C617 1.385 . S
C621 C620 1.374 . S
C622 C619 1.499 . S
C622 C623 1.373 . S
C622 C624 1.389 . S
C623 H602 0.950 . S
C623 C622 1.373 . S
C623 C639 1.377 . S
C624 C622 1.389 . S
C624 C625 1.524 . S
C624 C638 1.377 . S
C625 C624 1.524 . S
C625 C626 1.397 . S
C625 C630 1.363 . S
C626 H603 0.950 . S
C626 C625 1.397 . S
C626 C627 1.334 . S
C627 H604 0.950 . S
C627 C626 1.334 . S
C627 C628 1.287 . S
C628 C627 1.287 . S
C628 C629 1.524 . S
C628 H647 0.913 . S
C629 H605 0.950 . S
C629 C628 1.524 . S
C629 C630 1.415 . S
C630 H606 0.950 . S
C630 C625 1.363 . S
C630 C629 1.415 . S
C631 H607 0.951 . S
C631 C632 1.366 . S
C631 C633 1.388 . S
C632 C631 1.366 . S
C632 C636 1.385 . S
C633 H608 0.951 . S
C633 C631 1.388 . S
C633 C634 1.366 . S
C634 C633 1.366 . S
C634 C635 1.414 . S
C634 C637 1.499 . S
C635 H609 0.950 . S
C635 C634 1.414 . S
C635 C636 1.374 . S
C636 H610 0.950 . S
C636 C632 1.385 . S
C636 C635 1.374 . S
C637 C634 1.499 . S
C637 C638 1.373 . S
C637 C639 1.389 . S
C638 H611 0.950 . S
C638 C624 1.377 . S
C638 C637 1.373 . S
C639 C623 1.377 . S
C639 C637 1.389 . S
C639 C640 1.524 . S
C640 C639 1.524 . S
C640 C641 1.397 . S
C640 C645 1.363 . S
C641 H612 0.950 . S
C641 C640 1.397 . S
C641 C642 1.334 . S
C642 H613 0.950 . S
C642 C641 1.334 . S
C642 C643 1.287 . S
C643 C642 1.287 . S
C643 C644 1.524 . S
C643 H646 0.999 . S
C644 H614 0.950 . S
C644 C643 1.524 . S
C644 C645 1.415 . S
C645 H615 0.950 . S
C645 C640 1.363 . S
C645 C644 1.415 . S
H646 C643 0.999 . S
H647 C628 0.913 . S
H648 C666 0.951 . S
H649 C668 0.951 . S
H650 C670 0.950 . S
H651 C671 0.950 . S
H652 C673 0.950 . S
H653 C676 0.950 . S
H654 C677 0.950 . S
H655 C679 0.950 . S
H656 C680 0.950 . S
H657 C681 0.951 . S
H658 C683 0.951 . S
H659 C685 0.950 . S
H660 C686 0.950 . S
H661 C688 0.950 . S
H662 C691 0.950 . S
H663 C692 0.950 . S
H664 C694 0.950 . S
H665 C695 0.950 . S
C666 H648 0.951 . S
C666 C667 1.366 . S
C666 C668 1.388 . S
C667 C666 1.366 . S
C667 C671 1.385 . S
C668 H649 0.951 . S
C668 C666 1.388 . S
C668 C669 1.366 . S
C669 C668 1.366 . S
C669 C670 1.414 . S
C669 C672 1.499 . S
C670 H650 0.950 . S
C670 C669 1.414 . S
C670 C671 1.374 . S
C671 H651 0.950 . S
C671 C667 1.385 . S
C671 C670 1.374 . S
C672 C669 1.499 . S
C672 C673 1.373 . S
C672 C674 1.389 . S
C673 H652 0.950 . S
C673 C672 1.373 . S
C673 C689 1.377 . S
C674 C672 1.389 . S
C674 C675 1.524 . S
C674 C688 1.377 . S
C675 C674 1.524 . S
C675 C676 1.397 . S
C675 C680 1.363 . S
C676 H653 0.950 . S
C676 C675 1.397 . S
C676 C677 1.334 . S
C677 H654 0.950 . S
C677 C676 1.334 . S
C677 C678 1.287 . S
C678 C677 1.287 . S
C678 C679 1.524 . S
C678 H697 0.913 . S
C679 H655 0.950 . S
C679 C678 1.524 . S
C679 C680 1.415 . S
C680 H656 0.950 . S
C680 C675 1.363 . S
C680 C679 1.415 . S
C681 H657 0.951 . S
C681 C682 1.366 . S
C681 C683 1.388 . S
C682 C681 1.366 . S
C682 C686 1.385 . S
C683 H658 0.951 . S
C683 C681 1.388 . S
C683 C684 1.366 . S
C684 C683 1.366 . S
C684 C685 1.414 . S
C684 C687 1.499 . S
C685 H659 0.950 . S
C685 C684 1.414 . S
C685 C686 1.374 . S
C686 H660 0.950 . S
C686 C682 1.385 . S
C686 C685 1.374 . S
C687 C684 1.499 . S
C687 C688 1.373 . S
C687 C689 1.389 . S
C688 H661 0.950 . S
C688 C674 1.377 . S
C688 C687 1.373 . S
C689 C673 1.377 . S
C689 C687 1.389 . S
C689 C690 1.524 . S
C690 C689 1.524 . S
C690 C691 1.397 . S
C690 C695 1.363 . S
C691 H662 0.950 . S
C691 C690 1.397 . S
C691 C692 1.334 . S
C692 H663 0.950 . S
C692 C691 1.334 . S
C692 C693 1.287 . S
C693 C692 1.287 . S
C693 C694 1.524 . S
C693 H696 0.999 . S
C694 H664 0.950 . S
C694 C693 1.524 . S
C694 C695 1.415 . S
C695 H665 0.950 . S
C695 C690 1.363 . S
C695 C694 1.415 . S
H696 C693 0.999 . S
H697 C678 0.913 . S
H698 C716 0.951 . S
H699 C718 0.951 . S
H700 C720 0.950 . S
H701 C721 0.950 . S
H702 C723 0.950 . S
H703 C726 0.950 . S
H704 C727 0.950 . S
H705 C729 0.950 . S
H706 C730 0.950 . S
H707 C731 0.951 1_554 S
H708 C733 0.951 . S
H709 C735 0.950 . S
H710 C736 0.950 . S
H711 C738 0.950 . S
H712 C741 0.950 . S
H713 C742 0.950 . S
H714 C744 0.950 . S
H715 C745 0.950 . S
C716 H698 0.951 . S
C716 C717 1.366 . S
C716 C718 1.388 . S
C717 C716 1.366 . S
C717 C721 1.385 . S
C718 H699 0.951 . S
C718 C716 1.388 . S
C718 C719 1.366 . S
C719 C718 1.366 . S
C719 C720 1.414 . S
C719 C722 1.499 . S
C720 H700 0.950 . S
C720 C719 1.414 . S
C720 C721 1.374 . S
C721 H701 0.950 . S
C721 C717 1.385 . S
C721 C720 1.374 . S
C722 C719 1.499 . S
C722 C723 1.373 . S
C722 C724 1.389 . S
C723 H702 0.950 . S
C723 C722 1.373 . S
C723 C739 1.377 . S
C724 C722 1.389 . S
C724 C725 1.524 . S
C724 C738 1.377 . S
C725 C724 1.524 . S
C725 C726 1.397 . S
C725 C730 1.363 . S
C726 H703 0.950 . S
C726 C725 1.397 . S
C726 C727 1.334 . S
C727 H704 0.950 . S
C727 C726 1.334 . S
C727 C728 1.287 . S
C728 C727 1.287 . S
C728 C729 1.524 . S
C728 H747 0.913 . S
C729 H705 0.950 . S
C729 C728 1.524 . S
C729 C730 1.415 . S
C730 H706 0.950 . S
C730 C725 1.363 . S
C730 C729 1.415 . S
C731 H707 0.951 1_556 S
C731 C732 1.366 . S
C731 C733 1.388 . S
C732 C731 1.366 . S
C732 C736 1.385 . S
C733 H708 0.951 . S
C733 C731 1.388 . S
C733 C734 1.366 . S
C734 C733 1.366 . S
C734 C735 1.414 . S
C734 C737 1.499 . S
C735 H709 0.950 . S
C735 C734 1.414 . S
C735 C736 1.374 . S
C736 H710 0.950 . S
C736 C732 1.385 . S
C736 C735 1.374 . S
C737 C734 1.499 . S
C737 C738 1.373 . S
C737 C739 1.389 . S
C738 H711 0.950 . S
C738 C724 1.377 . S
C738 C737 1.373 . S
C739 C723 1.377 . S
C739 C737 1.389 . S
C739 C740 1.524 . S
C740 C739 1.524 . S
C740 C741 1.397 . S
C740 C745 1.363 . S
C741 H712 0.950 . S
C741 C740 1.397 . S
C741 C742 1.334 1_556 S
C742 H713 0.950 . S
C742 C741 1.334 1_554 S
C742 C743 1.287 . S
C743 C742 1.287 . S
C743 C744 1.524 . S
C743 H746 0.999 . S
C744 H714 0.950 . S
C744 C743 1.524 . S
C744 C745 1.415 1_554 S
C745 H715 0.950 . S
C745 C740 1.363 . S
C745 C744 1.415 1_556 S
H746 C743 0.999 . S
H747 C728 0.913 . S
H748 C766 0.951 . S
H749 C768 0.951 . S
H750 C770 0.950 . S
H751 C771 0.950 . S
H752 C773 0.950 . S
H753 C776 0.950 . S
H754 C777 0.950 . S
H755 C779 0.950 . S
H756 C780 0.950 . S
H757 C781 0.951 . S
H758 C783 0.951 . S
H759 C785 0.950 . S
H760 C786 0.950 . S
H761 C788 0.950 . S
H762 C791 0.950 . S
H763 C792 0.950 . S
H764 C794 0.950 . S
H765 C795 0.950 . S
C766 H748 0.951 . S
C766 C767 1.366 . S
C766 C768 1.388 . S
C767 C766 1.366 . S
C767 C771 1.385 . S
C768 H749 0.951 . S
C768 C766 1.388 . S
C768 C769 1.366 . S
C769 C768 1.366 . S
C769 C770 1.414 . S
C769 C772 1.499 . S
C770 H750 0.950 . S
C770 C769 1.414 . S
C770 C771 1.374 . S
C771 H751 0.950 . S
C771 C767 1.385 . S
C771 C770 1.374 . S
C772 C769 1.499 . S
C772 C773 1.373 . S
C772 C774 1.389 . S
C773 H752 0.950 . S
C773 C772 1.373 . S
C773 C789 1.377 . S
C774 C772 1.389 . S
C774 C775 1.524 . S
C774 C788 1.377 . S
C775 C774 1.524 . S
C775 C776 1.397 . S
C775 C780 1.363 . S
C776 H753 0.950 . S
C776 C775 1.397 . S
C776 C777 1.334 . S
C777 H754 0.950 . S
C777 C776 1.334 . S
C777 C778 1.287 . S
C778 C777 1.287 . S
C778 C779 1.524 . S
C778 H797 0.913 . S
C779 H755 0.950 . S
C779 C778 1.524 . S
C779 C780 1.415 . S
C780 H756 0.950 . S
C780 C775 1.363 . S
C780 C779 1.415 . S
C781 H757 0.951 . S
C781 C782 1.366 . S
C781 C783 1.388 . S
C782 C781 1.366 . S
C782 C786 1.385 . S
C783 H758 0.951 . S
C783 C781 1.388 . S
C783 C784 1.366 . S
C784 C783 1.366 . S
C784 C785 1.414 . S
C784 C787 1.499 . S
C785 H759 0.950 . S
C785 C784 1.414 . S
C785 C786 1.374 . S
C786 H760 0.950 . S
C786 C782 1.385 . S
C786 C785 1.374 . S
C787 C784 1.499 . S
C787 C788 1.373 . S
C787 C789 1.389 . S
C788 H761 0.950 . S
C788 C774 1.377 . S
C788 C787 1.373 . S
C789 C773 1.377 . S
C789 C787 1.389 . S
C789 C790 1.524 . S
C790 C789 1.524 . S
C790 C791 1.397 . S
C790 C795 1.363 . S
C791 H762 0.950 . S
C791 C790 1.397 . S
C791 C792 1.334 . S
C792 H763 0.950 . S
C792 C791 1.334 . S
C792 C793 1.287 . S
C793 C792 1.287 . S
C793 C794 1.524 . S
C793 H796 0.999 . S
C794 H764 0.950 . S
C794 C793 1.524 . S
C794 C795 1.415 . S
C795 H765 0.950 . S
C795 C790 1.363 . S
C795 C794 1.415 . S
H796 C793 0.999 . S
H797 C778 0.913 . S
H798 C816 0.951 . S
H799 C818 0.951 . S
H800 C820 0.950 . S
H801 C821 0.950 . S
H802 C823 0.950 . S
H803 C826 0.950 . S
H804 C827 0.950 . S
H805 C829 0.950 . S
H806 C830 0.950 . S
H807 C831 0.951 . S
H808 C833 0.951 . S
H809 C835 0.950 . S
H810 C836 0.950 . S
H811 C838 0.950 . S
H812 C841 0.950 . S
H813 C842 0.950 . S
H814 C844 0.950 . S
H815 C845 0.950 . S
C816 H798 0.951 . S
C816 C817 1.366 . S
C816 C818 1.388 . S
C817 C816 1.366 . S
C817 C821 1.385 . S
C818 H799 0.951 . S
C818 C816 1.388 . S
C818 C819 1.366 . S
C819 C818 1.366 . S
C819 C820 1.414 . S
C819 C822 1.499 . S
C820 H800 0.950 . S
C820 C819 1.414 . S
C820 C821 1.374 . S
C821 H801 0.950 . S
C821 C817 1.385 . S
C821 C820 1.374 . S
C822 C819 1.499 . S
C822 C823 1.373 . S
C822 C824 1.389 . S
C823 H802 0.950 . S
C823 C822 1.373 . S
C823 C839 1.377 . S
C824 C822 1.389 . S
C824 C825 1.524 . S
C824 C838 1.377 . S
C825 C824 1.524 . S
C825 C826 1.397 . S
C825 C830 1.363 . S
C826 H803 0.950 . S
C826 C825 1.397 . S
C826 C827 1.334 . S
C827 H804 0.950 . S
C827 C826 1.334 . S
C827 C828 1.287 . S
C828 C827 1.287 . S
C828 C829 1.524 . S
C828 H847 0.913 . S
C829 H805 0.950 . S
C829 C828 1.524 . S
C829 C830 1.415 . S
C830 H806 0.950 . S
C830 C825 1.363 . S
C830 C829 1.415 . S
C831 H807 0.951 . S
C831 C832 1.366 . S
C831 C833 1.388 . S
C832 C831 1.366 . S
C832 C836 1.385 . S
C833 H808 0.951 . S
C833 C831 1.388 . S
C833 C834 1.366 . S
C834 C833 1.366 . S
C834 C835 1.414 . S
C834 C837 1.499 . S
C835 H809 0.950 . S
C835 C834 1.414 . S
C835 C836 1.374 . S
C836 H810 0.950 . S
C836 C832 1.385 . S
C836 C835 1.374 . S
C837 C834 1.499 . S
C837 C838 1.373 . S
C837 C839 1.389 . S
C838 H811 0.950 . S
C838 C824 1.377 . S
C838 C837 1.373 . S
C839 C823 1.377 . S
C839 C837 1.389 . S
C839 C840 1.524 . S
C840 C839 1.524 . S
C840 C841 1.397 . S
C840 C845 1.363 . S
C841 H812 0.950 . S
C841 C840 1.397 . S
C841 C842 1.334 . S
C842 H813 0.950 . S
C842 C841 1.334 . S
C842 C843 1.287 . S
C843 C842 1.287 . S
C843 C844 1.524 . S
C843 H846 0.999 . S
C844 H814 0.950 . S
C844 C843 1.524 . S
C844 C845 1.415 . S
C845 H815 0.950 . S
C845 C840 1.363 . S
C845 C844 1.415 . S
H846 C843 0.999 . S
H847 C828 0.913 . S
H848 C866 0.951 . S
H849 C868 0.951 . S
H850 C870 0.950 . S
H851 C871 0.950 . S
H852 C873 0.950 . S
H853 C876 0.950 . S
H854 C877 0.950 . S
H855 C879 0.950 . S
H856 C880 0.950 . S
H857 C881 0.951 . S
H858 C883 0.951 . S
H859 C885 0.950 . S
H860 C886 0.950 . S
H861 C888 0.950 . S
H862 C891 0.950 . S
H863 C892 0.950 . S
H864 C894 0.950 . S
H865 C895 0.950 . S
C866 H848 0.951 . S
C866 C867 1.366 . S
C866 C868 1.388 . S
C867 C866 1.366 . S
C867 C871 1.385 . S
C868 H849 0.951 . S
C868 C866 1.388 . S
C868 C869 1.366 . S
C869 C868 1.366 . S
C869 C870 1.414 . S
C869 C872 1.499 . S
C870 H850 0.950 . S
C870 C869 1.414 . S
C870 C871 1.374 . S
C871 H851 0.950 . S
C871 C867 1.385 . S
C871 C870 1.374 . S
C872 C869 1.499 . S
C872 C873 1.373 . S
C872 C874 1.389 . S
C873 H852 0.950 . S
C873 C872 1.373 . S
C873 C889 1.377 . S
C874 C872 1.389 . S
C874 C875 1.524 . S
C874 C888 1.377 . S
C875 C874 1.524 . S
C875 C876 1.397 . S
C875 C880 1.363 . S
C876 H853 0.950 . S
C876 C875 1.397 . S
C876 C877 1.334 . S
C877 H854 0.950 . S
C877 C876 1.334 . S
C877 C878 1.287 . S
C878 C877 1.287 . S
C878 C879 1.524 . S
C878 H897 0.913 . S
C879 H855 0.950 . S
C879 C878 1.524 . S
C879 C880 1.415 . S
C880 H856 0.950 . S
C880 C875 1.363 . S
C880 C879 1.415 . S
C881 H857 0.951 . S
C881 C882 1.366 . S
C881 C883 1.388 . S
C882 C881 1.366 . S
C882 C886 1.385 . S
C883 H858 0.951 . S
C883 C881 1.388 . S
C883 C884 1.366 . S
C884 C883 1.366 . S
C884 C885 1.414 . S
C884 C887 1.499 . S
C885 H859 0.950 . S
C885 C884 1.414 . S
C885 C886 1.374 . S
C886 H860 0.950 . S
C886 C882 1.385 . S
C886 C885 1.374 . S
C887 C884 1.499 . S
C887 C888 1.373 . S
C887 C889 1.389 . S
C888 H861 0.950 . S
C888 C874 1.377 . S
C888 C887 1.373 . S
C889 C873 1.377 . S
C889 C887 1.389 . S
C889 C890 1.524 . S
C890 C889 1.524 . S
C890 C891 1.397 . S
C890 C895 1.363 . S
C891 H862 0.950 . S
C891 C890 1.397 . S
C891 C892 1.334 . S
C892 H863 0.950 . S
C892 C891 1.334 . S
C892 C893 1.287 . S
C893 C892 1.287 . S
C893 C894 1.524 . S
C893 H896 0.999 . S
C894 H864 0.950 . S
C894 C893 1.524 . S
C894 C895 1.415 . S
C895 H865 0.950 . S
C895 C890 1.363 . S
C895 C894 1.415 . S
H896 C893 0.999 . S
H897 C878 0.913 . S
H898 C916 0.951 . S
H899 C918 0.951 . S
H900 C920 0.950 . S
H901 C921 0.950 . S
H902 C923 0.950 . S
H903 C926 0.950 . S
H904 C927 0.950 . S
H905 C929 0.950 . S
H906 C930 0.950 . S
H907 C931 0.951 . S
H908 C933 0.951 . S
H909 C935 0.950 . S
H910 C936 0.950 . S
H911 C938 0.950 . S
H912 C941 0.950 . S
H913 C942 0.950 . S
H914 C944 0.950 . S
H915 C945 0.950 . S
C916 H898 0.951 . S
C916 C917 1.366 . S
C916 C918 1.388 . S
C917 C916 1.366 . S
C917 C921 1.385 . S
C918 H899 0.951 . S
C918 C916 1.388 . S
C918 C919 1.366 . S
C919 C918 1.366 . S
C919 C920 1.414 . S
C919 C922 1.499 . S
C920 H900 0.950 . S
C920 C919 1.414 . S
C920 C921 1.374 . S
C921 H901 0.950 . S
C921 C917 1.385 . S
C921 C920 1.374 . S
C922 C919 1.499 . S
C922 C923 1.373 . S
C922 C924 1.389 . S
C923 H902 0.950 . S
C923 C922 1.373 . S
C923 C939 1.377 . S
C924 C922 1.389 . S
C924 C925 1.524 . S
C924 C938 1.377 . S
C925 C924 1.524 . S
C925 C926 1.397 . S
C925 C930 1.363 . S
C926 H903 0.950 . S
C926 C925 1.397 . S
C926 C927 1.334 . S
C927 H904 0.950 . S
C927 C926 1.334 . S
C927 C928 1.287 . S
C928 C927 1.287 . S
C928 C929 1.524 . S
C928 H947 0.913 . S
C929 H905 0.950 . S
C929 C928 1.524 . S
C929 C930 1.415 . S
C930 H906 0.950 . S
C930 C925 1.363 . S
C930 C929 1.415 . S
C931 H907 0.951 . S
C931 C932 1.366 . S
C931 C933 1.388 . S
C932 C931 1.366 . S
C932 C936 1.385 . S
C933 H908 0.951 . S
C933 C931 1.388 . S
C933 C934 1.366 . S
C934 C933 1.366 . S
C934 C935 1.414 . S
C934 C937 1.499 . S
C935 H909 0.950 . S
C935 C934 1.414 . S
C935 C936 1.374 . S
C936 H910 0.950 . S
C936 C932 1.385 . S
C936 C935 1.374 . S
C937 C934 1.499 . S
C937 C938 1.373 . S
C937 C939 1.389 . S
C938 H911 0.950 . S
C938 C924 1.377 . S
C938 C937 1.373 . S
C939 C923 1.377 . S
C939 C937 1.389 . S
C939 C940 1.524 . S
C940 C939 1.524 . S
C940 C941 1.397 . S
C940 C945 1.363 . S
C941 H912 0.950 . S
C941 C940 1.397 . S
C941 C942 1.334 . S
C942 H913 0.950 . S
C942 C941 1.334 . S
C942 C943 1.287 . S
C943 C942 1.287 . S
C943 C944 1.524 . S
C943 H946 0.999 . S
C944 H914 0.950 . S
C944 C943 1.524 . S
C944 C945 1.415 . S
C945 H915 0.950 . S
C945 C940 1.363 . S
C945 C944 1.415 . S
H946 C943 0.999 . S
H947 C928 0.913 . S
H948 C966 0.951 . S
H949 C968 0.951 . S
H950 C970 0.950 . S
H951 C971 0.950 . S
H952 C973 0.950 . S
H953 C976 0.950 . S
H954 C977 0.950 . S
H955 C979 0.950 . S
H956 C980 0.950 . S
H957 C981 0.951 . S
H958 C983 0.951 . S
H959 C985 0.950 . S
H960 C986 0.950 . S
H961 C988 0.950 . S
H962 C991 0.950 . S
H963 C992 0.950 . S
H964 C994 0.950 . S
H965 C995 0.950 . S
C966 H948 0.951 . S
C966 C967 1.366 . S
C966 C968 1.388 . S
C967 C966 1.366 . S
C967 C971 1.385 . S
C968 H949 0.951 . S
C968 C966 1.388 . S
C968 C969 1.366 . S
C969 C968 1.366 . S
C969 C970 1.414 . S
C969 C972 1.499 . S
C970 H950 0.950 . S
C970 C969 1.414 . S
C970 C971 1.374 . S
C971 H951 0.950 . S
C971 C967 1.385 . S
C971 C970 1.374 . S
C972 C969 1.499 . S
C972 C973 1.373 . S
C972 C974 1.389 . S
C973 H952 0.950 . S
C973 C972 1.373 . S
C973 C989 1.377 . S
C974 C972 1.389 . S
C974 C975 1.524 . S
C974 C988 1.377 . S
C975 C974 1.524 . S
C975 C976 1.397 . S
C975 C980 1.363 . S
C976 H953 0.950 . S
C976 C975 1.397 . S
C976 C977 1.334 . S
C977 H954 0.950 . S
C977 C976 1.334 . S
C977 C978 1.287 . S
C978 C977 1.287 . S
C978 C979 1.524 . S
C978 H997 0.913 . S
C979 H955 0.950 . S
C979 C978 1.524 . S
C979 C980 1.415 . S
C980 H956 0.950 . S
C980 C975 1.363 . S
C980 C979 1.415 . S
C981 H957 0.951 . S
C981 C982 1.366 . S
C981 C983 1.388 . S
C982 C981 1.366 . S
C982 C986 1.385 . S
C983 H958 0.951 . S
C983 C981 1.388 . S
C983 C984 1.366 . S
C984 C983 1.366 . S
C984 C985 1.414 . S
C984 C987 1.499 . S
C985 H959 0.950 . S
C985 C984 1.414 . S
C985 C986 1.374 . S
C986 H960 0.950 . S
C986 C982 1.385 . S
C986 C985 1.374 . S
C987 C984 1.499 . S
C987 C988 1.373 . S
C987 C989 1.389 . S
C988 H961 0.950 . S
C988 C974 1.377 . S
C988 C987 1.373 . S
C989 C973 1.377 . S
C989 C987 1.389 . S
C989 C990 1.524 . S
C990 C989 1.524 . S
C990 C991 1.397 . S
C990 C995 1.363 . S
C991 H962 0.950 . S
C991 C990 1.397 . S
C991 C992 1.334 . S
C992 H963 0.950 . S
C992 C991 1.334 . S
C992 C993 1.287 . S
C993 C992 1.287 . S
C993 C994 1.524 . S
C993 H996 0.999 . S
C994 H964 0.950 . S
C994 C993 1.524 . S
C994 C995 1.415 . S
C995 H965 0.950 . S
C995 C990 1.363 . S
C995 C994 1.415 . S
H996 C993 0.999 . S
H997 C978 0.913 . S
H998 C1016 0.951 . S
H999 C1018 0.951 . S
H1000 C1020 0.950 . S
H1001 C1021 0.950 . S
H1002 C1023 0.950 . S
H1003 C1026 0.950 . S
H1004 C1027 0.950 . S
H1005 C1029 0.950 . S
H1006 C1030 0.950 . S
H1007 C1031 0.951 . S
H1008 C1033 0.951 . S
H1009 C1035 0.950 . S
H1010 C1036 0.950 . S
H1011 C1038 0.950 . S
H1012 C1041 0.950 . S
H1013 C1042 0.950 . S
H1014 C1044 0.950 . S
H1015 C1045 0.950 . S
C1016 H998 0.951 . S
C1016 C1017 1.366 . S
C1016 C1018 1.388 . S
C1017 C1016 1.366 . S
C1017 C1021 1.385 . S
C1018 H999 0.951 . S
C1018 C1016 1.388 . S
C1018 C1019 1.366 . S
C1019 C1018 1.366 . S
C1019 C1020 1.414 . S
C1019 C1022 1.499 . S
C1020 H1000 0.950 . S
C1020 C1019 1.414 . S
C1020 C1021 1.374 . S
C1021 H1001 0.950 . S
C1021 C1017 1.385 . S
C1021 C1020 1.374 . S
C1022 C1019 1.499 . S
C1022 C1023 1.373 . S
C1022 C1024 1.389 . S
C1023 H1002 0.950 . S
C1023 C1022 1.373 . S
C1023 C1039 1.377 . S
C1024 C1022 1.389 . S
C1024 C1025 1.524 . S
C1024 C1038 1.377 . S
C1025 C1024 1.524 . S
C1025 C1026 1.397 . S
C1025 C1030 1.363 . S
C1026 H1003 0.950 . S
C1026 C1025 1.397 . S
C1026 C1027 1.334 . S
C1027 H1004 0.950 . S
C1027 C1026 1.334 . S
C1027 C1028 1.287 . S
C1028 C1027 1.287 . S
C1028 C1029 1.524 . S
C1028 H1047 0.913 . S
C1029 H1005 0.950 . S
C1029 C1028 1.524 . S
C1029 C1030 1.415 . S
C1030 H1006 0.950 . S
C1030 C1025 1.363 . S
C1030 C1029 1.415 . S
C1031 H1007 0.951 . S
C1031 C1032 1.366 . S
C1031 C1033 1.388 . S
C1032 C1031 1.366 . S
C1032 C1036 1.385 . S
C1033 H1008 0.951 . S
C1033 C1031 1.388 . S
C1033 C1034 1.366 . S
C1034 C1033 1.366 . S
C1034 C1035 1.414 . S
C1034 C1037 1.499 . S
C1035 H1009 0.950 . S
C1035 C1034 1.414 . S
C1035 C1036 1.374 . S
C1036 H1010 0.950 . S
C1036 C1032 1.385 . S
C1036 C1035 1.374 . S
C1037 C1034 1.499 . S
C1037 C1038 1.373 . S
C1037 C1039 1.389 . S
C1038 H1011 0.950 . S
C1038 C1024 1.377 . S
C1038 C1037 1.373 . S
C1039 C1023 1.377 . S
C1039 C1037 1.389 . S
C1039 C1040 1.524 . S
C1040 C1039 1.524 . S
C1040 C1041 1.397 . S
C1040 C1045 1.363 . S
C1041 H1012 0.950 . S
C1041 C1040 1.397 . S
C1041 C1042 1.334 . S
C1042 H1013 0.950 . S
C1042 C1041 1.334 . S
C1042 C1043 1.287 . S
C1043 C1042 1.287 . S
C1043 C1044 1.524 . S
C1043 H1046 0.999 . S
C1044 H1014 0.950 . S
C1044 C1043 1.524 . S
C1044 C1045 1.415 . S
C1045 H1015 0.950 . S
C1045 C1040 1.363 . S
C1045 C1044 1.415 . S
H1046 C1043 0.999 . S
H1047 C1028 0.913 . S
H1048 C1066 0.951 . S
H1049 C1068 0.951 . S
H1050 C1070 0.950 . S
H1051 C1071 0.950 . S
H1052 C1073 0.950 . S
H1053 C1076 0.950 . S
H1054 C1077 0.950 . S
H1055 C1079 0.950 . S
H1056 C1080 0.950 . S
H1057 C1081 0.951 . S
H1058 C1083 0.951 . S
H1059 C1085 0.950 . S
H1060 C1086 0.950 . S
H1061 C1088 0.950 . S
H1062 C1091 0.950 . S
H1063 C1092 0.950 . S
H1064 C1094 0.950 . S
H1065 C1095 0.950 . S
C1066 H1048 0.951 . S
C1066 C1067 1.366 . S
C1066 C1068 1.388 . S
C1067 C1066 1.366 . S
C1067 C1071 1.385 . S
C1068 H1049 0.951 . S
C1068 C1066 1.388 . S
C1068 C1069 1.366 . S
C1069 C1068 1.366 . S
C1069 C1070 1.414 . S
C1069 C1072 1.499 . S
C1070 H1050 0.950 . S
C1070 C1069 1.414 . S
C1070 C1071 1.374 . S
C1071 H1051 0.950 . S
C1071 C1067 1.385 . S
C1071 C1070 1.374 . S
C1072 C1069 1.499 . S
C1072 C1073 1.373 . S
C1072 C1074 1.389 . S
C1073 H1052 0.950 . S
C1073 C1072 1.373 . S
C1073 C1089 1.377 . S
C1074 C1072 1.389 . S
C1074 C1075 1.524 . S
C1074 C1088 1.377 . S
C1075 C1074 1.524 . S
C1075 C1076 1.397 . S
C1075 C1080 1.363 . S
C1076 H1053 0.950 . S
C1076 C1075 1.397 . S
C1076 C1077 1.334 . S
C1077 H1054 0.950 . S
C1077 C1076 1.334 . S
C1077 C1078 1.287 . S
C1078 C1077 1.287 . S
C1078 C1079 1.524 . S
C1078 H1097 0.913 . S
C1079 H1055 0.950 . S
C1079 C1078 1.524 . S
C1079 C1080 1.415 . S
C1080 H1056 0.950 . S
C1080 C1075 1.363 . S
C1080 C1079 1.415 . S
C1081 H1057 0.951 . S
C1081 C1082 1.366 . S
C1081 C1083 1.388 . S
C1082 C1081 1.366 . S
C1082 C1086 1.385 . S
C1083 H1058 0.951 . S
C1083 C1081 1.388 . S
C1083 C1084 1.366 . S
C1084 C1083 1.366 . S
C1084 C1085 1.414 . S
C1084 C1087 1.499 . S
C1085 H1059 0.950 . S
C1085 C1084 1.414 . S
C1085 C1086 1.374 . S
C1086 H1060 0.950 . S
C1086 C1082 1.385 . S
C1086 C1085 1.374 . S
C1087 C1084 1.499 . S
C1087 C1088 1.373 . S
C1087 C1089 1.389 . S
C1088 H1061 0.950 . S
C1088 C1074 1.377 . S
C1088 C1087 1.373 . S
C1089 C1073 1.377 . S
C1089 C1087 1.389 . S
C1089 C1090 1.524 . S
C1090 C1089 1.524 . S
C1090 C1091 1.397 . S
C1090 C1095 1.363 . S
C1091 H1062 0.950 . S
C1091 C1090 1.397 . S
C1091 C1092 1.334 . S
C1092 H1063 0.950 . S
C1092 C1091 1.334 . S
C1092 C1093 1.287 . S
C1093 C1092 1.287 . S
C1093 C1094 1.524 . S
C1093 H1096 0.999 . S
C1094 H1064 0.950 . S
C1094 C1093 1.524 . S
C1094 C1095 1.415 . S
C1095 H1065 0.950 . S
C1095 C1090 1.363 . S
C1095 C1094 1.415 . S
H1096 C1093 0.999 . S
H1097 C1078 0.913 . S
H1098 C1116 0.951 . S
H1099 C1118 0.951 . S
H1100 C1120 0.950 . S
H1101 C1121 0.950 . S
H1102 C1123 0.950 . S
H1103 C1126 0.950 . S
H1104 C1127 0.950 . S
H1105 C1129 0.950 . S
H1106 C1130 0.950 . S
H1107 C1131 0.951 . S
H1108 C1133 0.951 . S
H1109 C1135 0.950 . S
H1110 C1136 0.950 . S
H1111 C1138 0.950 . S
H1112 C1141 0.950 . S
H1113 C1142 0.950 . S
H1114 C1144 0.950 . S
H1115 C1145 0.950 . S
C1116 H1098 0.951 . S
C1116 C1117 1.366 . S
C1116 C1118 1.388 . S
C1117 C1116 1.366 . S
C1117 C1121 1.385 . S
C1118 H1099 0.951 . S
C1118 C1116 1.388 . S
C1118 C1119 1.366 . S
C1119 C1118 1.366 . S
C1119 C1120 1.414 . S
C1119 C1122 1.499 . S
C1120 H1100 0.950 . S
C1120 C1119 1.414 . S
C1120 C1121 1.374 . S
C1121 H1101 0.950 . S
C1121 C1117 1.385 . S
C1121 C1120 1.374 . S
C1122 C1119 1.499 . S
C1122 C1123 1.373 . S
C1122 C1124 1.389 . S
C1123 H1102 0.950 . S
C1123 C1122 1.373 . S
C1123 C1139 1.377 . S
C1124 C1122 1.389 . S
C1124 C1125 1.524 . S
C1124 C1138 1.377 . S
C1125 C1124 1.524 . S
C1125 C1126 1.397 . S
C1125 C1130 1.363 . S
C1126 H1103 0.950 . S
C1126 C1125 1.397 . S
C1126 C1127 1.334 . S
C1127 H1104 0.950 . S
C1127 C1126 1.334 . S
C1127 C1128 1.287 . S
C1128 C1127 1.287 . S
C1128 C1129 1.524 . S
C1128 H1147 0.913 . S
C1129 H1105 0.950 . S
C1129 C1128 1.524 . S
C1129 C1130 1.415 . S
C1130 H1106 0.950 . S
C1130 C1125 1.363 . S
C1130 C1129 1.415 . S
C1131 H1107 0.951 . S
C1131 C1132 1.366 . S
C1131 C1133 1.388 . S
C1132 C1131 1.366 . S
C1132 C1136 1.385 . S
C1133 H1108 0.951 . S
C1133 C1131 1.388 . S
C1133 C1134 1.366 . S
C1134 C1133 1.366 . S
C1134 C1135 1.414 . S
C1134 C1137 1.499 . S
C1135 H1109 0.950 . S
C1135 C1134 1.414 . S
C1135 C1136 1.374 . S
C1136 H1110 0.950 . S
C1136 C1132 1.385 . S
C1136 C1135 1.374 . S
C1137 C1134 1.499 . S
C1137 C1138 1.373 . S
C1137 C1139 1.389 . S
C1138 H1111 0.950 . S
C1138 C1124 1.377 . S
C1138 C1137 1.373 . S
C1139 C1123 1.377 . S
C1139 C1137 1.389 . S
C1139 C1140 1.524 . S
C1140 C1139 1.524 . S
C1140 C1141 1.397 . S
C1140 C1145 1.363 . S
C1141 H1112 0.950 . S
C1141 C1140 1.397 . S
C1141 C1142 1.334 . S
C1142 H1113 0.950 . S
C1142 C1141 1.334 . S
C1142 C1143 1.287 . S
C1143 C1142 1.287 . S
C1143 C1144 1.524 . S
C1143 H1146 0.999 . S
C1144 H1114 0.950 . S
C1144 C1143 1.524 . S
C1144 C1145 1.415 . S
C1145 H1115 0.950 . S
C1145 C1140 1.363 . S
C1145 C1144 1.415 . S
H1146 C1143 0.999 . S
H1147 C1128 0.913 . S
H1148 C1166 0.951 . S
H1149 C1168 0.951 . S
H1150 C1170 0.950 . S
H1151 C1171 0.950 . S
H1152 C1173 0.950 . S
H1153 C1176 0.950 . S
H1154 C1177 0.950 . S
H1155 C1179 0.950 . S
H1156 C1180 0.950 . S
H1157 C1181 0.951 . S
H1158 C1183 0.951 . S
H1159 C1185 0.950 . S
H1160 C1186 0.950 . S
H1161 C1188 0.950 . S
H1162 C1191 0.950 . S
H1163 C1192 0.950 . S
H1164 C1194 0.950 . S
H1165 C1195 0.950 . S
C1166 H1148 0.951 . S
C1166 C1167 1.366 . S
C1166 C1168 1.388 . S
C1167 C1166 1.366 . S
C1167 C1171 1.385 . S
C1168 H1149 0.951 . S
C1168 C1166 1.388 . S
C1168 C1169 1.366 . S
C1169 C1168 1.366 . S
C1169 C1170 1.414 . S
C1169 C1172 1.499 . S
C1170 H1150 0.950 . S
C1170 C1169 1.414 . S
C1170 C1171 1.374 . S
C1171 H1151 0.950 . S
C1171 C1167 1.385 . S
C1171 C1170 1.374 . S
C1172 C1169 1.499 . S
C1172 C1173 1.373 . S
C1172 C1174 1.389 . S
C1173 H1152 0.950 . S
C1173 C1172 1.373 . S
C1173 C1189 1.377 . S
C1174 C1172 1.389 . S
C1174 C1175 1.524 . S
C1174 C1188 1.377 . S
C1175 C1174 1.524 . S
C1175 C1176 1.397 . S
C1175 C1180 1.363 . S
C1176 H1153 0.950 . S
C1176 C1175 1.397 . S
C1176 C1177 1.334 . S
C1177 H1154 0.950 . S
C1177 C1176 1.334 . S
C1177 C1178 1.287 . S
C1178 C1177 1.287 . S
C1178 C1179 1.524 . S
C1178 H1197 0.913 . S
C1179 H1155 0.950 . S
C1179 C1178 1.524 . S
C1179 C1180 1.415 . S
C1180 H1156 0.950 . S
C1180 C1175 1.363 . S
C1180 C1179 1.415 . S
C1181 H1157 0.951 . S
C1181 C1182 1.366 . S
C1181 C1183 1.388 . S
C1182 C1181 1.366 . S
C1182 C1186 1.385 . S
C1183 H1158 0.951 . S
C1183 C1181 1.388 . S
C1183 C1184 1.366 . S
C1184 C1183 1.366 . S
C1184 C1185 1.414 . S
C1184 C1187 1.499 . S
C1185 H1159 0.950 . S
C1185 C1184 1.414 . S
C1185 C1186 1.374 . S
C1186 H1160 0.950 . S
C1186 C1182 1.385 . S
C1186 C1185 1.374 . S
C1187 C1184 1.499 . S
C1187 C1188 1.373 . S
C1187 C1189 1.389 . S
C1188 H1161 0.950 . S
C1188 C1174 1.377 . S
C1188 C1187 1.373 . S
C1189 C1173 1.377 . S
C1189 C1187 1.389 . S
C1189 C1190 1.524 . S
C1190 C1189 1.524 . S
C1190 C1191 1.397 . S
C1190 C1195 1.363 . S
C1191 H1162 0.950 . S
C1191 C1190 1.397 . S
C1191 C1192 1.334 . S
C1192 H1163 0.950 . S
C1192 C1191 1.334 . S
C1192 C1193 1.287 . S
C1193 C1192 1.287 . S
C1193 C1194 1.524 . S
C1193 H1196 0.999 . S
C1194 H1164 0.950 . S
C1194 C1193 1.524 . S
C1194 C1195 1.415 . S
C1195 H1165 0.950 . S
C1195 C1190 1.363 . S
C1195 C1194 1.415 . S
H1196 C1193 0.999 . S
H1197 C1178 0.913 . S
H1198 C1216 0.951 . S
H1199 C1218 0.951 . S
H1200 C1220 0.950 . S
H1201 C1221 0.950 . S
H1202 C1223 0.950 . S
H1203 C1226 0.950 . S
H1204 C1227 0.950 . S
H1205 C1229 0.950 . S
H1206 C1230 0.950 . S
H1207 C1231 0.951 . S
H1208 C1233 0.951 . S
H1209 C1235 0.950 . S
H1210 C1236 0.950 . S
H1211 C1238 0.950 . S
H1212 C1241 0.950 . S
H1213 C1242 0.950 . S
H1214 C1244 0.950 . S
H1215 C1245 0.950 . S
C1216 H1198 0.951 . S
C1216 C1217 1.366 . S
C1216 C1218 1.388 . S
C1217 C1216 1.366 . S
C1217 C1221 1.385 . S
C1218 H1199 0.951 . S
C1218 C1216 1.388 . S
C1218 C1219 1.366 . S
C1219 C1218 1.366 . S
C1219 C1220 1.414 . S
C1219 C1222 1.499 . S
C1220 H1200 0.950 . S
C1220 C1219 1.414 . S
C1220 C1221 1.374 . S
C1221 H1201 0.950 . S
C1221 C1217 1.385 . S
C1221 C1220 1.374 . S
C1222 C1219 1.499 . S
C1222 C1223 1.373 . S
C1222 C1224 1.389 . S
C1223 H1202 0.950 . S
C1223 C1222 1.373 . S
C1223 C1239 1.377 . S
C1224 C1222 1.389 . S
C1224 C1225 1.524 . S
C1224 C1238 1.377 . S
C1225 C1224 1.524 . S
C1225 C1226 1.397 . S
C1225 C1230 1.363 . S
C1226 H1203 0.950 . S
C1226 C1225 1.397 . S
C1226 C1227 1.334 . S
C1227 H1204 0.950 . S
C1227 C1226 1.334 . S
C1227 C1228 1.287 . S
C1228 C1227 1.287 . S
C1228 C1229 1.524 . S
C1228 H1247 0.913 . S
C1229 H1205 0.950 . S
C1229 C1228 1.524 . S
C1229 C1230 1.415 . S
C1230 H1206 0.950 . S
C1230 C1225 1.363 . S
C1230 C1229 1.415 . S
C1231 H1207 0.951 . S
C1231 C1232 1.366 . S
C1231 C1233 1.388 . S
C1232 C1231 1.366 . S
C1232 C1236 1.385 . S
C1233 H1208 0.951 . S
C1233 C1231 1.388 . S
C1233 C1234 1.366 . S
C1234 C1233 1.366 . S
C1234 C1235 1.414 . S
C1234 C1237 1.499 . S
C1235 H1209 0.950 . S
C1235 C1234 1.414 . S
C1235 C1236 1.374 . S
C1236 H1210 0.950 . S
C1236 C1232 1.385 . S
C1236 C1235 1.374 . S
C1237 C1234 1.499 . S
C1237 C1238 1.373 . S
C1237 C1239 1.389 . S
C1238 H1211 0.950 . S
C1238 C1224 1.377 . S
C1238 C1237 1.373 . S
C1239 C1223 1.377 . S
C1239 C1237 1.389 . S
C1239 C1240 1.524 . S
C1240 C1239 1.524 . S
C1240 C1241 1.397 . S
C1240 C1245 1.363 . S
C1241 H1212 0.950 . S
C1241 C1240 1.397 . S
C1241 C1242 1.334 . S
C1242 H1213 0.950 . S
C1242 C1241 1.334 . S
C1242 C1243 1.287 . S
C1243 C1242 1.287 . S
C1243 C1244 1.524 . S
C1243 H1246 0.999 . S
C1244 H1214 0.950 . S
C1244 C1243 1.524 . S
C1244 C1245 1.415 . S
C1245 H1215 0.950 . S
C1245 C1240 1.363 . S
C1245 C1244 1.415 . S
H1246 C1243 0.999 . S
H1247 C1228 0.913 . S
H1248 C1266 0.951 . S
H1249 C1268 0.951 . S
H1250 C1270 0.950 . S
H1251 C1271 0.950 . S
H1252 C1273 0.950 . S
H1253 C1276 0.950 . S
H1254 C1277 0.950 . S
H1255 C1279 0.950 . S
H1256 C1280 0.950 . S
H1257 C1281 0.951 . S
H1258 C1283 0.951 . S
H1259 C1285 0.950 . S
H1260 C1286 0.950 . S
H1261 C1288 0.950 . S
H1262 C1291 0.950 . S
H1263 C1292 0.950 . S
H1264 C1294 0.950 . S
H1265 C1295 0.950 . S
C1266 H1248 0.951 . S
C1266 C1267 1.366 . S
C1266 C1268 1.388 . S
C1267 C1266 1.366 . S
C1267 C1271 1.385 . S
C1268 H1249 0.951 . S
C1268 C1266 1.388 . S
C1268 C1269 1.366 . S
C1269 C1268 1.366 . S
C1269 C1270 1.414 . S
C1269 C1272 1.499 . S
C1270 H1250 0.950 . S
C1270 C1269 1.414 . S
C1270 C1271 1.374 . S
C1271 H1251 0.950 . S
C1271 C1267 1.385 . S
C1271 C1270 1.374 . S
C1272 C1269 1.499 . S
C1272 C1273 1.373 . S
C1272 C1274 1.389 . S
C1273 H1252 0.950 . S
C1273 C1272 1.373 . S
C1273 C1289 1.377 . S
C1274 C1272 1.389 . S
C1274 C1275 1.524 . S
C1274 C1288 1.377 . S
C1275 C1274 1.524 . S
C1275 C1276 1.397 . S
C1275 C1280 1.363 . S
C1276 H1253 0.950 . S
C1276 C1275 1.397 . S
C1276 C1277 1.334 . S
C1277 H1254 0.950 . S
C1277 C1276 1.334 . S
C1277 C1278 1.287 . S
C1278 C1277 1.287 . S
C1278 C1279 1.524 . S
C1278 H1297 0.913 . S
C1279 H1255 0.950 . S
C1279 C1278 1.524 . S
C1279 C1280 1.415 . S
C1280 H1256 0.950 . S
C1280 C1275 1.363 . S
C1280 C1279 1.415 . S
C1281 H1257 0.951 . S
C1281 C1282 1.366 . S
C1281 C1283 1.388 . S
C1282 C1281 1.366 . S
C1282 C1286 1.385 . S
C1283 H1258 0.951 . S
C1283 C1281 1.388 . S
C1283 C1284 1.366 . S
C1284 C1283 1.366 . S
C1284 C1285 1.414 . S
C1284 C1287 1.499 . S
C1285 H1259 0.950 . S
C1285 C1284 1.414 . S
C1285 C1286 1.374 . S
C1286 H1260 0.950 . S
C1286 C1282 1.385 . S
C1286 C1285 1.374 . S
C1287 C1284 1.499 . S
C1287 C1288 1.373 . S
C1287 C1289 1.389 . S
C1288 H1261 0.950 . S
C1288 C1274 1.377 . S
C1288 C1287 1.373 . S
C1289 C1273 1.377 . S
C1289 C1287 1.389 . S
C1289 C1290 1.524 . S
C1290 C1289 1.524 . S
C1290 C1291 1.397 . S
C1290 C1295 1.363 . S
C1291 H1262 0.950 . S
C1291 C1290 1.397 . S
C1291 C1292 1.334 . S
C1292 H1263 0.950 . S
C1292 C1291 1.334 . S
C1292 C1293 1.287 . S
C1293 C1292 1.287 . S
C1293 C1294 1.524 . S
C1293 H1296 0.999 . S
C1294 H1264 0.950 . S
C1294 C1293 1.524 . S
C1294 C1295 1.415 . S
C1295 H1265 0.950 . S
C1295 C1290 1.363 . S
C1295 C1294 1.415 . S
H1296 C1293 0.999 . S
H1297 C1278 0.913 . S
H1298 C1316 0.951 . S
H1299 C1318 0.951 . S
H1300 C1320 0.950 . S
H1301 C1321 0.950 . S
H1302 C1323 0.950 . S
H1303 C1326 0.950 . S
H1304 C1327 0.950 . S
H1305 C1329 0.950 . S
H1306 C1330 0.950 . S
H1307 C1331 0.951 . S
H1308 C1333 0.951 . S
H1309 C1335 0.950 . S
H1310 C1336 0.950 . S
H1311 C1338 0.950 . S
H1312 C1341 0.950 . S
H1313 C1342 0.950 1_545 S
H1314 C1344 0.950 . S
H1315 C1345 0.950 . S
C1316 H1298 0.951 . S
C1316 C1317 1.366 . S
C1316 C1318 1.388 . S
C1317 C1316 1.366 . S
C1317 C1321 1.385 . S
C1318 H1299 0.951 . S
C1318 C1316 1.388 . S
C1318 C1319 1.366 . S
C1319 C1318 1.366 . S
C1319 C1320 1.414 . S
C1319 C1322 1.499 . S
C1320 H1300 0.950 . S
C1320 C1319 1.414 . S
C1320 C1321 1.374 . S
C1321 H1301 0.950 . S
C1321 C1317 1.385 . S
C1321 C1320 1.374 . S
C1322 C1319 1.499 . S
C1322 C1323 1.373 . S
C1322 C1324 1.389 . S
C1323 H1302 0.950 . S
C1323 C1322 1.373 . S
C1323 C1339 1.377 . S
C1324 C1322 1.389 . S
C1324 C1325 1.524 . S
C1324 C1338 1.377 . S
C1325 C1324 1.524 . S
C1325 C1326 1.397 . S
C1325 C1330 1.363 . S
C1326 H1303 0.950 . S
C1326 C1325 1.397 . S
C1326 C1327 1.334 . S
C1327 H1304 0.950 . S
C1327 C1326 1.334 . S
C1327 C1328 1.287 . S
C1328 C1327 1.287 . S
C1328 C1329 1.524 . S
C1328 H1347 0.913 . S
C1329 H1305 0.950 . S
C1329 C1328 1.524 . S
C1329 C1330 1.415 . S
C1330 H1306 0.950 . S
C1330 C1325 1.363 . S
C1330 C1329 1.415 . S
C1331 H1307 0.951 . S
C1331 C1332 1.366 . S
C1331 C1333 1.388 . S
C1332 C1331 1.366 . S
C1332 C1336 1.385 . S
C1333 H1308 0.951 . S
C1333 C1331 1.388 . S
C1333 C1334 1.366 . S
C1334 C1333 1.366 . S
C1334 C1335 1.414 . S
C1334 C1337 1.499 . S
C1335 H1309 0.950 . S
C1335 C1334 1.414 . S
C1335 C1336 1.374 . S
C1336 H1310 0.950 . S
C1336 C1332 1.385 . S
C1336 C1335 1.374 . S
C1337 C1334 1.499 . S
C1337 C1338 1.373 . S
C1337 C1339 1.389 . S
C1338 H1311 0.950 . S
C1338 C1324 1.377 . S
C1338 C1337 1.373 . S
C1339 C1323 1.377 . S
C1339 C1337 1.389 . S
C1339 C1340 1.524 . S
C1340 C1339 1.524 . S
C1340 C1341 1.397 . S
C1340 C1345 1.363 . S
C1341 H1312 0.950 . S
C1341 C1340 1.397 . S
C1341 C1342 1.334 . S
C1342 H1313 0.950 1_565 S
C1342 C1341 1.334 . S
C1342 C1343 1.287 . S
C1343 C1342 1.287 . S
C1343 C1344 1.524 . S
C1343 H1346 0.999 1_565 S
C1344 H1314 0.950 . S
C1344 C1343 1.524 . S
C1344 C1345 1.415 . S
C1345 H1315 0.950 . S
C1345 C1340 1.363 . S
C1345 C1344 1.415 . S
H1346 C1343 0.999 1_545 S
H1347 C1328 0.913 . S
H1348 C1366 0.951 . S
H1349 C1368 0.951 . S
H1350 C1370 0.950 . S
H1351 C1371 0.950 . S
H1352 C1373 0.950 . S
H1353 C1376 0.950 . S
H1354 C1377 0.950 . S
H1355 C1379 0.950 . S
H1356 C1380 0.950 . S
H1357 C1381 0.951 . S
H1358 C1383 0.951 . S
H1359 C1385 0.950 . S
H1360 C1386 0.950 . S
H1361 C1388 0.950 . S
H1362 C1391 0.950 . S
H1363 C1392 0.950 1_655 S
H1364 C1394 0.950 . S
H1365 C1395 0.950 . S
C1366 H1348 0.951 . S
C1366 C1367 1.366 . S
C1366 C1368 1.388 . S
C1367 C1366 1.366 . S
C1367 C1371 1.385 . S
C1368 H1349 0.951 . S
C1368 C1366 1.388 . S
C1368 C1369 1.366 . S
C1369 C1368 1.366 . S
C1369 C1370 1.414 . S
C1369 C1372 1.499 . S
C1370 H1350 0.950 . S
C1370 C1369 1.414 . S
C1370 C1371 1.374 . S
C1371 H1351 0.950 . S
C1371 C1367 1.385 . S
C1371 C1370 1.374 . S
C1372 C1369 1.499 . S
C1372 C1373 1.373 . S
C1372 C1374 1.389 . S
C1373 H1352 0.950 . S
C1373 C1372 1.373 . S
C1373 C1389 1.377 . S
C1374 C1372 1.389 . S
C1374 C1375 1.524 . S
C1374 C1388 1.377 . S
C1375 C1374 1.524 . S
C1375 C1376 1.397 . S
C1375 C1380 1.363 . S
C1376 H1353 0.950 . S
C1376 C1375 1.397 . S
C1376 C1377 1.334 . S
C1377 H1354 0.950 . S
C1377 C1376 1.334 . S
C1377 C1378 1.287 . S
C1378 C1377 1.287 . S
C1378 C1379 1.524 . S
C1378 H1397 0.913 . S
C1379 H1355 0.950 . S
C1379 C1378 1.524 . S
C1379 C1380 1.415 . S
C1380 H1356 0.950 . S
C1380 C1375 1.363 . S
C1380 C1379 1.415 . S
C1381 H1357 0.951 . S
C1381 C1382 1.366 . S
C1381 C1383 1.388 . S
C1382 C1381 1.366 . S
C1382 C1386 1.385 . S
C1383 H1358 0.951 . S
C1383 C1381 1.388 . S
C1383 C1384 1.366 . S
C1384 C1383 1.366 . S
C1384 C1385 1.414 . S
C1384 C1387 1.499 . S
C1385 H1359 0.950 . S
C1385 C1384 1.414 . S
C1385 C1386 1.374 . S
C1386 H1360 0.950 . S
C1386 C1382 1.385 . S
C1386 C1385 1.374 . S
C1387 C1384 1.499 . S
C1387 C1388 1.373 . S
C1387 C1389 1.389 . S
C1388 H1361 0.950 . S
C1388 C1374 1.377 . S
C1388 C1387 1.373 . S
C1389 C1373 1.377 . S
C1389 C1387 1.389 . S
C1389 C1390 1.524 . S
C1390 C1389 1.524 . S
C1390 C1391 1.397 . S
C1390 C1395 1.363 . S
C1391 H1362 0.950 . S
C1391 C1390 1.397 . S
C1391 C1392 1.334 . S
C1392 H1363 0.950 1_455 S
C1392 C1391 1.334 . S
C1392 C1393 1.287 . S
C1393 C1392 1.287 . S
C1393 C1394 1.524 . S
C1393 H1396 0.999 1_455 S
C1394 H1364 0.950 . S
C1394 C1393 1.524 . S
C1394 C1395 1.415 . S
C1395 H1365 0.950 . S
C1395 C1390 1.363 . S
C1395 C1394 1.415 . S
H1396 C1393 0.999 1_655 S
H1397 C1378 0.913 . S
H1398 C1416 0.951 . S
H1399 C1418 0.951 . S
H1400 C1420 0.950 . S
H1401 C1421 0.950 . S
H1402 C1423 0.950 . S
H1403 C1426 0.950 . S
H1404 C1427 0.950 . S
H1405 C1429 0.950 . S
H1406 C1430 0.950 . S
H1407 C1431 0.951 . S
H1408 C1433 0.951 . S
H1409 C1435 0.950 . S
H1410 C1436 0.950 . S
H1411 C1438 0.950 . S
H1412 C1441 0.950 . S
H1413 C1442 0.950 . S
H1414 C1444 0.950 . S
H1415 C1445 0.950 . S
C1416 H1398 0.951 . S
C1416 C1417 1.366 . S
C1416 C1418 1.388 . S
C1417 C1416 1.366 . S
C1417 C1421 1.385 . S
C1418 H1399 0.951 . S
C1418 C1416 1.388 . S
C1418 C1419 1.366 . S
C1419 C1418 1.366 . S
C1419 C1420 1.414 . S
C1419 C1422 1.499 . S
C1420 H1400 0.950 . S
C1420 C1419 1.414 . S
C1420 C1421 1.374 . S
C1421 H1401 0.950 . S
C1421 C1417 1.385 . S
C1421 C1420 1.374 . S
C1422 C1419 1.499 . S
C1422 C1423 1.373 . S
C1422 C1424 1.389 . S
C1423 H1402 0.950 . S
C1423 C1422 1.373 . S
C1423 C1439 1.377 . S
C1424 C1422 1.389 . S
C1424 C1425 1.524 . S
C1424 C1438 1.377 . S
C1425 C1424 1.524 . S
C1425 C1426 1.397 . S
C1425 C1430 1.363 . S
C1426 H1403 0.950 . S
C1426 C1425 1.397 . S
C1426 C1427 1.334 . S
C1427 H1404 0.950 . S
C1427 C1426 1.334 . S
C1427 C1428 1.287 . S
C1428 C1427 1.287 . S
C1428 C1429 1.524 . S
C1428 H1447 0.913 . S
C1429 H1405 0.950 . S
C1429 C1428 1.524 . S
C1429 C1430 1.415 . S
C1430 H1406 0.950 . S
C1430 C1425 1.363 . S
C1430 C1429 1.415 . S
C1431 H1407 0.951 . S
C1431 C1432 1.366 . S
C1431 C1433 1.388 . S
C1432 C1431 1.366 . S
C1432 C1436 1.385 . S
C1433 H1408 0.951 . S
C1433 C1431 1.388 . S
C1433 C1434 1.366 . S
C1434 C1433 1.366 . S
C1434 C1435 1.414 . S
C1434 C1437 1.499 . S
C1435 H1409 0.950 . S
C1435 C1434 1.414 . S
C1435 C1436 1.374 . S
C1436 H1410 0.950 . S
C1436 C1432 1.385 . S
C1436 C1435 1.374 . S
C1437 C1434 1.499 . S
C1437 C1438 1.373 . S
C1437 C1439 1.389 . S
C1438 H1411 0.950 . S
C1438 C1424 1.377 . S
C1438 C1437 1.373 . S
C1439 C1423 1.377 . S
C1439 C1437 1.389 . S
C1439 C1440 1.524 . S
C1440 C1439 1.524 . S
C1440 C1441 1.397 . S
C1440 C1445 1.363 . S
C1441 H1412 0.950 . S
C1441 C1440 1.397 . S
C1441 C1442 1.334 . S
C1442 H1413 0.950 . S
C1442 C1441 1.334 . S
C1442 C1443 1.287 . S
C1443 C1442 1.287 . S
C1443 C1444 1.524 . S
C1443 H1446 0.999 . S
C1444 H1414 0.950 . S
C1444 C1443 1.524 . S
C1444 C1445 1.415 . S
C1445 H1415 0.950 . S
C1445 C1440 1.363 . S
C1445 C1444 1.415 . S
H1446 C1443 0.999 . S
H1447 C1428 0.913 . S
C267 C4 0.984 . S
C282 C103 0.992 . S
C317 C16 1.772 . S
C332 C147 1.793 1_556 S
C382 C177 1.633 . S
C367 C32 1.590 . S
C417 C43 2.632 . S
C432 C218 2.613 . S
C482 C134 1.244 . S
C467 C5 1.225 . S
C532 C98 2.212 . S
C517 C21 2.161 . S
C582 C226 1.026 . S
C567 C27 1.048 . S
C632 C187 2.060 . S
C617 C37 2.109 . S
C667 C10 0.703 . S
C682 C223 0.702 . S
C732 C137 2.187 1_556 S
C717 C26 2.249 . S
C767 C38 1.765 . S
C782 C106 1.745 . S
C817 C15 2.183 . S
C832 C174 2.182 . S
C882 C94 1.240 . S
C867 C48 1.233 . S
C917 C59 1.377 . S
C932 C138 1.368 . S
C967 C76 1.820 . S
C982 C186 1.809 . S
C1017 C87 2.382 . S
C1032 C227 2.340 . S
C1067 C54 0.561 . S
C1082 C143 0.551 . S
C1132 C107 3.039 . S
C1117 C60 3.018 . S
C1182 C217 0.974 . S
C1167 C71 0.951 . S
C1232 C178 1.824 . S
C1217 C82 1.841 . S
C1267 C49 1.113 . S
C1282 C214 1.133 . S
C1332 C146 1.425 . S
C1317 C70 1.455 . S
C1382 C97 2.190 . S
C1367 C81 2.248 . S
C1417 C65 1.867 . S
C1432 C183 1.866 . S
