# Generated by pormake.
# Topology anh, (6,3)-cn, num edge types: 1
# Building blocks:
#     Node 0, Type 0, BuildingBlock: BETDIP_clean_sbu_0, # of connection points: 6
#     Node 1, Type 0, BuildingBlock: BETDIP_clean_sbu_0, # of connection points: 6
#     Node 2, Type 0, BuildingBlock: BETDIP_clean_sbu_0, # of connection points: 6
#     Node 3, Type 1, BuildingBlock: VETTIZ_charged_linker_0, # of connection points: 3
#     Node 4, Type 1, BuildingBlock: VETTIZ_charged_linker_0, # of connection points: 3
#     Node 5, Type 1, BuildingBlock: VETTIZ_charged_linker_0, # of connection points: 3
#     Node 6, Type 1, BuildingBlock: VETTIZ_charged_linker_0, # of connection points: 3
#     Node 7, Type 1, BuildingBlock: VETTIZ_charged_linker_0, # of connection points: 3
#     Node 8, Type 1, BuildingBlock: VETTIZ_charged_linker_0, # of connection points: 3
#     Edge 9, Type (0, 1), BuildingBlock: KIFKEQ_clean_linker_1, # of connection points: 2
#     Edge 10, Type (0, 1), BuildingBlock: KIFKEQ_clean_linker_1, # of connection points: 2
#     Edge 11, Type (0, 1), BuildingBlock: KIFKEQ_clean_linker_1, # of connection points: 2
#     Edge 12, Type (0, 1), BuildingBlock: KIFKEQ_clean_linker_1, # of connection points: 2
#     Edge 13, Type (0, 1), BuildingBlock: KIFKEQ_clean_linker_1, # of connection points: 2
#     Edge 14, Type (0, 1), BuildingBlock: KIFKEQ_clean_linker_1, # of connection points: 2
#     Edge 15, Type (0, 1), BuildingBlock: KIFKEQ_clean_linker_1, # of connection points: 2
#     Edge 16, Type (0, 1), BuildingBlock: KIFKEQ_clean_linker_1, # of connection points: 2
#     Edge 17, Type (0, 1), BuildingBlock: KIFKEQ_clean_linker_1, # of connection points: 2
#     Edge 18, Type (0, 1), BuildingBlock: KIFKEQ_clean_linker_1, # of connection points: 2
#     Edge 19, Type (0, 1), BuildingBlock: KIFKEQ_clean_linker_1, # of connection points: 2
#     Edge 20, Type (0, 1), BuildingBlock: KIFKEQ_clean_linker_1, # of connection points: 2
#     Edge 21, Type (0, 1), BuildingBlock: KIFKEQ_clean_linker_1, # of connection points: 2
#     Edge 22, Type (0, 1), BuildingBlock: KIFKEQ_clean_linker_1, # of connection points: 2
#     Edge 23, Type (0, 1), BuildingBlock: KIFKEQ_clean_linker_1, # of connection points: 2
#     Edge 24, Type (0, 1), BuildingBlock: KIFKEQ_clean_linker_1, # of connection points: 2
#     Edge 25, Type (0, 1), BuildingBlock: KIFKEQ_clean_linker_1, # of connection points: 2
#     Edge 26, Type (0, 1), BuildingBlock: KIFKEQ_clean_linker_1, # of connection points: 2
# Relax obj value: 0.244
# Max RMSD: 0.185
# Mean RMSD: 0.158
data_MOF--net-anh--node1-BETDIP_clean_sbu_0--node2-VETTIZ_charged_linker_0--edge1-KIFKEQ_clean_linker_1
_symmetry_space_group_name_H-M    P1
_symmetry_Int_Tables_number       1
_symmetry_cell_setting            triclinic
loop_
_symmetry_equiv_pos_as_xyz
'x, y, z'
_cell_length_a     38.130586
_cell_length_b     38.048188
_cell_length_c     67.385965
_cell_angle_alpha  90.166795
_cell_angle_beta   90.171601
_cell_angle_gamma 120.12491
loop_
_atom_site_label
_atom_site_type_symbol
_atom_site_fract_x
_atom_site_fract_y
_atom_site_fract_z
_atom_type_partial_charge
Tb0 Tb 0.10711 0.59776 0.17056 0.0
Tb1 Tb 0.06632 0.51258 0.16471 0.0
C2 C 0.15558 0.66694 0.18406 0.0
C3 C 0.19921 0.69287 0.18078 0.0
C4 C 0.2233 0.72247 0.1948 0.0
C5 C 0.26487 0.74715 0.1916 0.0
C6 C 0.28289 0.74248 0.17433 0.0
C7 C 0.25867 0.71228 0.16047 0.0
C8 C 0.21717 0.68759 0.1637 0.0
C9 C 0.09068 0.57729 0.13331 0.0
C10 C 0.16321 0.55356 0.16275 0.0
C11 C 1.01452 0.44271 0.1536 0.0
C12 C 0.97032 0.4246 0.15621 0.0
C13 C 0.94504 0.41706 0.13961 0.0
C14 C 0.90559 0.41017 0.142 0.0
C15 C 0.89112 0.41115 0.16103 0.0
C16 C 0.91551 0.41609 0.17763 0.0
C17 C 0.95458 0.42268 0.17528 0.0
C18 C 0.08129 0.53421 0.20271 0.0
C19 C 1.01075 0.55778 0.16636 0.0
O20 O 0.14494 0.63348 0.19391 0.0
O21 O 0.13276 0.66075 0.16844 0.0
O22 O 0.10313 0.56116 0.14568 0.0
O23 O 0.09038 0.60811 0.14126 0.0
O24 O 0.16132 0.58698 0.16761 0.0
O25 O 0.12789 0.51942 0.15946 0.0
O26 O 1.03091 0.47371 0.14156 0.0
O27 O 1.036 0.44971 0.16983 0.0
O28 O 0.06852 0.5493 0.18982 0.0
O29 O 0.08503 0.50555 0.19445 0.0
O30 O 1.0137 0.52506 0.16168 0.0
O31 O 1.04464 0.59057 0.17283 0.0
H32 H 0.20992 0.72675 0.20809 0.0
H33 H 0.28272 0.77061 0.20241 0.0
H34 H 0.27179 0.70784 0.14714 0.0
H35 H 0.19902 0.66457 0.15277 0.0
H36 H 0.95658 0.41884 0.12475 0.0
H37 H 0.88722 0.40614 0.12897 0.0
H38 H 0.90469 0.41584 0.19251 0.0
H39 H 0.97312 0.42851 0.18844 0.0
Tb40 Tb 0.61002 1.04259 0.50481 0.0
Tb41 Tb 0.56582 0.08363 0.49821 0.0
C42 C 0.63112 0.99497 0.5186 0.0
C43 C 0.61143 0.95038 0.51751 0.0
C44 C 0.57121 0.92531 0.52381 0.0
C45 C 0.55167 0.88336 0.52073 0.0
C46 C 0.5719 0.86579 0.51122 0.0
C47 C 0.61227 0.89086 0.50519 0.0
C48 C 0.63185 0.93273 0.50834 0.0
C49 C 0.60383 0.05625 0.46735 0.0
C50 C 0.50949 0.98659 0.4973 0.0
C51 C 0.5479 0.1345 0.48588 0.0
C52 C 0.5743 0.17907 0.48705 0.0
C53 C 0.58921 0.20187 0.46958 0.0
C54 C 0.6214 0.24204 0.47042 0.0
C55 C 0.63927 0.25986 0.48875 0.0
C56 C 0.62285 0.23769 0.50623 0.0
C57 C 0.59083 0.19779 0.50541 0.0
C58 C 0.57213 0.06985 0.53633 0.0
C59 C 0.66667 0.13884 0.49963 0.0
O60 O 0.6129 1.00999 0.52919 0.0
O61 O 0.64399 1.01353 0.50163 0.0
O62 O 0.57635 0.04474 0.48014 0.0
O63 O 0.63576 0.05791 0.47506 0.0
O64 O 0.54423 0.98868 0.50343 0.0
O65 O 0.51151 1.02169 0.49257 0.0
O66 O 0.56146 0.11642 0.47427 0.0
O67 O 0.53466 0.11541 0.50275 0.0
O68 O 0.60007 0.08198 0.52353 0.0
O69 O 0.54006 0.06662 0.52792 0.0
O70 O 0.63106 0.13578 0.49487 0.0
O71 O 0.66557 0.10525 0.50635 0.0
H72 H 0.55455 0.93807 0.53082 0.0
H73 H 0.5206 0.86472 0.52558 0.0
H74 H 0.62895 0.87803 0.49825 0.0
H75 H 0.66279 0.95147 0.50332 0.0
H76 H 0.57736 0.18795 0.45523 0.0
H77 H 0.63336 0.25853 0.45672 0.0
H78 H 0.63524 0.25098 0.52062 0.0
H79 H 0.58042 0.18113 0.51918 0.0
Tb80 Tb 0.5589 0.54771 0.83928 0.0
Tb81 Tb 0.6441 0.59203 0.83269 0.0
C82 C 0.49102 0.52867 0.85314 0.0
C83 C 0.46816 0.54987 0.85058 0.0
C84 C 0.4427 0.54918 0.86564 0.0
C85 C 0.4228 0.57134 0.86357 0.0
C86 C 0.4283 0.59469 0.84644 0.0
C87 C 0.45422 0.59559 0.83148 0.0
C88 C 0.47401 0.5734 0.83354 0.0
C89 C 0.5779 0.55176 0.80191 0.0
C90 C 0.60351 0.64825 0.83125 0.0
C91 C 0.71364 0.6116 0.82076 0.0
C92 C 0.73235 0.58598 0.82055 0.0
C93 C 0.7551 0.58628 0.80418 0.0
C94 C 0.76805 0.55784 0.80281 0.0
C95 C 0.75796 0.52847 0.8177 0.0
C96 C 0.73559 0.52868 0.83416 0.0
C97 C 0.72293 0.55711 0.83557 0.0
C98 C 0.62387 0.58642 0.87074 0.0
C99 C 0.59804 0.49098 0.83428 0.0
O100 O 0.5247 0.54885 0.86335 0.0
O101 O 0.49574 0.51227 0.83702 0.0
O102 O 0.5944 0.58016 0.81442 0.0
O103 O 0.54747 0.52035 0.80983 0.0
O104 O 0.57067 0.61338 0.83706 0.0
O105 O 0.63687 0.64646 0.82711 0.0
O106 O 0.68245 0.59915 0.80888 0.0
O107 O 0.7067 0.62158 0.83829 0.0
O108 O 0.60839 0.55819 0.85795 0.0
O109 O 0.65214 0.61882 0.86235 0.0
O110 O 0.63016 0.52642 0.82883 0.0
O111 O 0.56619 0.49247 0.84157 0.0
H112 H 0.43822 0.53153 0.87895 0.0
H113 H 0.40234 0.56941 0.87519 0.0
H114 H 0.45921 0.61345 0.8182 0.0
H115 H 0.49407 0.57479 0.82183 0.0
H116 H 0.76196 0.60782 0.79227 0.0
H117 H 0.78523 0.5583 0.78995 0.0
H118 H 0.728 0.50695 0.84604 0.0
H119 H 0.70485 0.55579 0.84822 0.0
C120 C 0.61642 0.2443 0.20448 0.0
C121 C 0.63187 0.28033 0.21569 0.0
C122 C 0.62378 0.27746 0.23624 0.0
C123 C 0.59306 0.2042 0.23448 0.0
C124 C 0.59747 0.20686 0.21411 0.0
C125 C 0.58391 0.16637 0.20448 0.0
H126 H 0.5164 0.96616 0.21401 0.0
C127 C 0.57811 0.16148 0.24009 0.0
C128 C 0.57244 0.13922 0.22251 0.0
H129 H 0.53507 1.03367 0.15978 0.0
H130 H 0.55886 0.09565 0.17878 0.0
H131 H 0.59927 1.03514 0.23655 0.0
H132 H 0.47408 1.00323 0.23644 0.0
H133 H 0.49108 1.01677 0.261 0.0
H134 H 0.49177 0.97413 0.2496 0.0
H135 H 0.56052 0.99079 0.24873 0.0
H136 H 0.5872 1.03937 0.26119 0.0
C137 C 0.62046 0.16848 0.19332 0.0
C138 C 0.54666 0.15582 0.19115 0.0
C139 C 0.5739 0.12285 0.31273 0.0
C140 C 0.56543 0.08626 0.32193 0.0
C141 C 0.55174 0.05096 0.31025 0.0
C142 C 0.54794 0.05225 0.28968 0.0
C143 C 0.55815 0.08929 0.28058 0.0
C144 C 0.57019 0.12368 0.29205 0.0
C145 C 0.58028 0.16038 0.27959 0.0
C146 C 0.57266 0.14226 0.2588 0.0
C147 C 0.56008 0.10073 0.25956 0.0
C148 C 0.6255 0.19227 0.28315 0.0
C149 C 0.55045 0.17532 0.28494 0.0
C150 C 0.52684 0.99447 0.20615 0.0
C151 C 0.52434 0.99515 0.18535 0.0
C152 C 0.53686 1.03246 0.17579 0.0
C153 C 0.55029 0.06828 0.18686 0.0
C154 C 0.55098 0.06669 0.20772 0.0
C155 C 0.53981 1.03026 0.21696 0.0
C156 C 0.54083 1.03373 0.23918 0.0
C157 C 0.55372 0.07818 0.2418 0.0
C158 C 0.55987 0.09734 0.22338 0.0
C159 C 0.57334 1.02405 0.247 0.0
C160 C 0.49739 1.00539 0.24713 0.0
H161 H 0.60065 0.23937 0.26147 0.0
H162 H 0.62217 0.24501 0.18872 0.0
H163 H 0.52861 0.16895 0.19728 0.0
H164 H 0.52502 0.1228 0.19025 0.0
H165 H 0.55611 0.16802 0.17594 0.0
H166 H 0.64905 0.18683 0.20188 0.0
H167 H 0.62441 0.18281 0.17854 0.0
H168 H 0.618 0.13854 0.19131 0.0
H169 H 0.5846 0.15048 0.32134 0.0
H170 H 0.54428 1.02228 0.31706 0.0
H171 H 0.5378 1.02439 0.28166 0.0
H172 H 0.64422 0.17738 0.2836 0.0
H173 H 0.62971 0.20837 0.2975 0.0
H174 H 0.63872 0.21503 0.27127 0.0
H175 H 0.52009 0.14934 0.28877 0.0
H176 H 0.54475 0.19047 0.2724 0.0
H177 H 0.56156 0.19627 0.29791 0.0
H178 H 0.63451 0.30465 0.24521 0.0
C179 C 0.60439 0.23955 0.24569 0.0
C180 C 0.58925 0.60716 0.5281 0.0
C181 C 0.56214 0.61854 0.53585 0.0
C182 C 0.55456 0.61493 0.55644 0.0
C183 C 0.60446 0.59426 0.56135 0.0
C184 C 0.61039 0.59571 0.5411 0.0
C185 C 0.64311 0.58653 0.53551 0.0
H186 H 0.77433 0.52628 0.56357 0.0
C187 C 0.63397 0.58528 0.57084 0.0
C188 C 0.65688 0.58095 0.55584 0.0
H189 H 0.73558 0.53637 0.50437 0.0
H190 H 0.70096 0.56877 0.5175 0.0
H191 H 0.78487 0.61539 0.58158 0.0
H192 H 0.69031 0.48947 0.58177 0.0
H193 H 0.69326 0.50983 0.60556 0.0
H194 H 0.7362 0.5079 0.59599 0.0
H195 H 0.78784 0.57817 0.59669 0.0
H196 H 0.76205 0.60433 0.60511 0.0
C197 C 0.67715 0.62401 0.52468 0.0
C198 C 0.62325 0.54668 0.5231 0.0
C199 C 0.63544 0.57468 0.64561 0.0
C200 C 0.65893 0.56677 0.65896 0.0
C201 C 0.69109 0.56232 0.65162 0.0
C202 C 0.69883 0.5645 0.63116 0.0
C203 C 0.67408 0.5711 0.61795 0.0
C204 C 0.64346 0.57668 0.62533 0.0
C205 C 0.62078 0.58446 0.60935 0.0
C206 C 0.64223 0.58181 0.59103 0.0
C207 C 0.67334 0.57384 0.59607 0.0
C208 C 0.62738 0.62779 0.61251 0.0
C209 C 0.57583 0.5499 0.60995 0.0
C210 C 0.75888 0.53595 0.55337 0.0
C211 C 0.7572 0.52756 0.53288 0.0
C212 C 0.73779 0.54213 0.52019 0.0
C213 C 0.7167 0.56028 0.5279 0.0
C214 C 0.71433 0.56348 0.54852 0.0
C215 C 0.73644 0.55294 0.56092 0.0
C216 C 0.72817 0.55625 0.5825 0.0
C217 C 0.69609 0.56863 0.58087 0.0
C218 C 0.68822 0.57278 0.56091 0.0
C219 C 0.76772 0.59006 0.59215 0.0
C220 C 0.71132 0.51386 0.59214 0.0
H221 H 0.56916 0.60186 0.58473 0.0
H222 H 0.5955 0.60913 0.51235 0.0
H223 H 0.59099 0.52645 0.52732 0.0
H224 H 0.63759 0.52803 0.5256 0.0
H225 H 0.62382 0.55307 0.507 0.0
H226 H 0.68156 0.65271 0.5314 0.0
H227 H 0.66957 0.62396 0.50874 0.0
H228 H 0.70707 0.62618 0.52587 0.0
H229 H 0.61114 0.57921 0.65083 0.0
H230 H 0.70961 0.55622 0.66166 0.0
H231 H 0.72332 0.56031 0.62638 0.0
H232 H 0.65761 0.64842 0.61927 0.0
H233 H 0.60409 0.62731 0.62255 0.0
H234 H 0.62744 0.64274 0.59847 0.0
H235 H 0.57355 0.52038 0.61374 0.0
H236 H 0.56021 0.54446 0.59548 0.0
H237 H 0.5586 0.55621 0.62129 0.0
H238 H 0.53439 0.62403 0.56296 0.0
C239 C 0.57543 0.60274 0.56918 0.0
C240 C 0.14935 0.55811 0.86151 0.0
C241 C 0.18656 0.58814 0.86958 0.0
C242 C 0.18899 0.59651 0.89012 0.0
C243 C 0.11919 0.54343 0.89424 0.0
C244 C 0.1164 0.53584 0.87408 0.0
C245 C 0.07595 0.5005 0.8681 0.0
H246 H 0.88095 0.40205 0.88704 0.0
C247 C 0.08011 0.51416 0.90321 0.0
C248 C 1.05466 0.48868 0.88808 0.0
H249 H 0.94119 0.39445 0.83405 0.0
H250 H 1.00462 0.42519 0.85186 0.0
H251 H 0.93013 0.36743 0.9137 0.0
H252 H 0.9427 0.48529 0.90629 0.0
H253 H 0.94303 0.47359 0.93181 0.0
H254 H 0.8997 0.44152 0.91684 0.0
H255 H 0.90598 0.38551 0.93025 0.0
H256 H 0.957 0.39573 0.93477 0.0
C257 C 0.08236 0.46644 0.85922 0.0
C258 C 1.0558 0.5165 0.85353 0.0
C259 C 1.05898 0.5228 0.97678 0.0
C260 C 1.02567 0.50124 0.98937 0.0
C261 C 0.9885 0.47096 0.98123 0.0
C262 C 0.98461 0.46264 0.96075 0.0
C263 C 1.0183 0.48466 0.94839 0.0
C264 C 1.05472 0.51393 0.95651 0.0
C265 C 0.08763 0.53359 0.94133 0.0
C266 C 0.06539 0.51018 0.92284 0.0
C267 C 1.02469 0.48204 0.92697 0.0
C268 C 0.12243 0.52563 0.94709 0.0
C269 C 0.10025 0.57917 0.94011 0.0
C270 C 0.90728 0.40608 0.87912 0.0
C271 C 0.90626 0.3992 0.8584 0.0
C272 C 0.94136 0.40272 0.84944 0.0
C273 C 0.97827 0.42059 0.85972 0.0
C274 C 0.97976 0.43391 0.87923 0.0
C275 C 0.94434 0.42268 0.88931 0.0
C276 C 0.95211 0.43348 0.91108 0.0
C277 C 0.99823 0.45797 0.91144 0.0
C278 C 1.0139 0.45938 0.89246 0.0
C279 C 0.93535 0.39365 0.92317 0.0
C280 C 0.93333 0.45984 0.91692 0.0
H281 H 0.15972 0.58169 0.91797 0.0
H282 H 0.14628 0.55085 0.84583 0.0
H283 H 1.05305 0.54155 0.8605 0.0
H284 H 1.02522 0.49307 0.84878 0.0
H285 H 0.07421 0.52848 0.83986 0.0
H286 H 0.11303 0.47123 0.86264 0.0
H287 H 0.07891 0.4648 0.84281 0.0
H288 H 1.06102 0.43626 0.86557 0.0
H289 H 0.08812 0.54575 0.98263 0.0
H290 H 0.96237 0.45413 0.99067 0.0
H291 H 0.95559 0.43971 0.95524 0.0
H292 H 0.11011 0.49469 0.95344 0.0
H293 H 0.14281 0.54787 0.9584 0.0
H294 H 0.14071 0.52634 0.93425 0.0
H295 H 0.07432 0.5838 0.94358 0.0
H296 H 0.10975 0.59187 0.92508 0.0
H297 H 0.12497 0.59773 0.95082 0.0
H298 H 0.21736 0.61869 0.89695 0.0
C299 C 0.15555 0.57445 0.90244 0.0
C300 C 0.97977 0.4531 0.48161 0.0
C301 C 0.94487 0.42016 0.47102 0.0
C302 C 0.94711 0.42376 0.45021 0.0
C303 C 1.01308 0.48787 0.45043 0.0
C304 C 1.01359 0.48709 0.47091 0.0
C305 C 1.0536 0.52641 0.4781 0.0
H306 H 0.23258 0.70899 0.44417 0.0
C307 C 1.05063 0.52521 0.44269 0.0
C308 C 0.07596 0.54964 0.45868 0.0
H309 H 0.2097 0.68034 0.50617 0.0
H310 H 0.14579 0.61628 0.4974 0.0
H311 H 0.21242 0.62279 0.4319 0.0
H312 H 0.14455 0.68466 0.43144 0.0
H313 H 0.13264 0.65778 0.40896 0.0
H314 H 0.18456 0.69569 0.41424 0.0
H315 H 0.2198 0.65955 0.41337 0.0
H316 H 0.18353 0.60616 0.41009 0.0
C317 C 0.08025 0.51407 0.48985 0.0
C318 C 1.04264 0.55297 0.49086 0.0
C319 C 0.06398 0.53848 0.36679 0.0
C320 C 0.0942 0.56672 0.35396 0.0
C321 C 0.12834 0.6003 0.36264 0.0
C322 C 0.13254 0.60557 0.38336 0.0
C323 C 0.10253 0.57683 0.39606 0.0
C324 C 0.06903 0.544 0.38762 0.0
C325 C 1.04061 0.51614 0.40328 0.0
C326 C 1.06246 0.53736 0.42258 0.0
C327 C 0.09866 0.57316 0.41828 0.0
C328 C 1.03792 0.47424 0.4007 0.0
C329 C 0.9998 0.51558 0.40084 0.0
C330 C 0.21438 0.69014 0.4563 0.0
C331 C 0.22808 0.70243 0.47605 0.0
C332 C 0.20168 0.67366 0.49065 0.0
C333 C 0.16412 0.63613 0.4856 0.0
C334 C 0.15136 0.62514 0.4655 0.0
C335 C 0.17777 0.65293 0.45159 0.0
C336 C 0.16372 0.63855 0.4309 0.0
C337 C 0.12431 0.59863 0.43392 0.0
C338 C 0.11472 0.58848 0.45436 0.0
C339 C 0.19646 0.63161 0.42087 0.0
C340 C 0.15618 0.67075 0.42067 0.0
H341 H 0.97726 0.45459 0.42443 0.0
H342 H 0.98038 0.45286 0.49766 0.0
H343 H 1.0231 0.56152 0.4823 0.0
H344 H 0.07041 0.58128 0.49556 0.0
H345 H 1.02593 0.53633 0.50435 0.0
H346 H 0.0878 0.4946 0.48057 0.0
H347 H 0.06421 0.49676 0.50333 0.0
H348 H 0.10903 0.54133 0.49452 0.0
H349 H 1.03741 0.51208 0.36079 0.0
H350 H 0.15192 0.62295 0.35333 0.0
H351 H 0.1593 0.63213 0.3886 0.0
H352 H 0.06675 0.47775 0.39482 0.0
H353 H 1.01336 0.45445 0.39016 0.0
H354 H 1.03344 0.458 0.41488 0.0
H355 H 1.00455 0.54482 0.39476 0.0
H356 H 0.98428 0.51236 0.41514 0.0
H357 H 0.97895 0.49103 0.39055 0.0
H358 H 0.92289 0.40066 0.44118 0.0
C359 C 0.97973 0.45604 0.44023 0.0
C360 C 0.59859 0.95964 0.81463 0.0
C361 C 0.59998 0.92677 0.80372 0.0
C362 C 0.59999 0.93046 0.78292 0.0
C363 C 0.59832 0.99464 0.78376 0.0
C364 C 0.59812 0.99366 0.80425 0.0
C365 C 0.59769 1.03284 0.81183 0.0
H366 H 0.60094 0.21631 0.77951 0.0
C367 C 0.59806 1.03224 0.77638 0.0
C368 C 0.59792 0.05645 0.79264 0.0
H369 H 0.59471 0.18573 0.84128 0.0
H370 H 0.59472 0.12204 0.83204 0.0
H371 H 0.66515 0.19295 0.76706 0.0
H372 H 0.53542 0.13136 0.76639 0.0
H373 H 0.54794 0.11571 0.74443 0.0
H374 H 0.5655 0.16899 0.74836 0.0
H375 H 0.63684 0.20411 0.74941 0.0
H376 H 0.65111 0.16629 0.74451 0.0
C377 C 0.63563 0.0592 0.82446 0.0
C378 C 0.55906 1.0202 0.82385 0.0
C379 C 0.59559 0.04773 0.70053 0.0
C380 C 0.59482 0.07731 0.68812 0.0
C381 C 0.59674 0.11159 0.69734 0.0
C382 C 0.59842 0.11602 0.71808 0.0
C383 C 0.59813 0.0859 0.73035 0.0
C384 C 0.59707 0.05266 0.72146 0.0
C385 C 0.59737 1.02397 0.7368 0.0
C386 C 0.59809 0.04501 0.75639 0.0
C387 C 0.59857 0.08139 0.7525 0.0
C388 C 0.63688 1.02227 0.73382 0.0
C389 C 0.55743 0.98269 0.73424 0.0
C390 C 0.60025 0.19717 0.79152 0.0
C391 C 0.59861 0.20883 0.81133 0.0
C392 C 0.59621 0.17961 0.82571 0.0
C393 C 0.59633 0.14226 0.82039 0.0
C394 C 0.59829 0.13192 0.80021 0.0
C395 C 0.59979 0.16019 0.78654 0.0
C396 C 0.59979 0.14667 0.76575 0.0
C397 C 0.59881 0.10646 0.7684 0.0
C398 C 0.59818 0.09556 0.78874 0.0
C399 C 0.64001 0.17911 0.75599 0.0
C400 C 0.56045 0.14058 0.75553 0.0
H401 H 0.59897 0.96137 0.75742 0.0
H402 H 0.59867 0.95931 0.83068 0.0
H403 H 0.53171 1.00088 0.81466 0.0
H404 H 0.55768 0.04733 0.82881 0.0
H405 H 0.55822 1.00261 0.83716 0.0
H406 H 0.66348 0.06799 0.81571 0.0
H407 H 0.63615 1.04231 0.83779 0.0
H408 H 0.63629 0.08738 0.82943 0.0
H409 H 0.59417 1.02088 0.69416 0.0
H410 H 0.59721 0.13549 0.68845 0.0
H411 H 0.59976 0.14305 0.72367 0.0
H412 H 0.66145 0.051 0.72738 0.0
H413 H 0.63186 0.99715 0.72363 0.0
H414 H 0.64988 1.01915 0.74797 0.0
H415 H 0.5321 0.98727 0.72936 0.0
H416 H 0.54661 0.96561 0.74826 0.0
H417 H 0.56075 0.96328 0.72293 0.0
H418 H 0.6005 0.90739 0.77365 0.0
C419 C 0.59905 0.96278 0.77325 0.0
C420 C 0.69604 0.55631 0.14936 0.0
C421 C 0.72897 0.55473 0.13875 0.0
C422 C 0.72523 0.55388 0.11793 0.0
C423 C 0.66154 0.55629 0.11817 0.0
C424 C 0.66216 0.55663 0.13866 0.0
C425 C 0.62261 0.55665 0.1458 0.0
H426 H 0.44783 0.56888 0.11149 0.0
C427 C 0.62476 0.55766 0.11042 0.0
C428 C 0.60006 0.55767 0.12635 0.0
H429 H 0.46222 0.54685 0.17267 0.0
H430 H 0.52665 0.54801 0.16436 0.0
H431 H 0.53942 0.63267 0.10203 0.0
H432 H 0.46527 0.5034 0.0962 0.0
H433 H 0.4956 0.51857 0.07501 0.0
H434 H 0.46155 0.53775 0.07934 0.0
H435 H 0.50085 0.60879 0.08333 0.0
H436 H 0.55238 0.62065 0.07908 0.0
C437 C 0.63431 0.59441 0.15859 0.0
C438 C 0.59573 0.5177 0.1575 0.0
C439 C 0.61409 0.56325 0.03462 0.0
C440 C 0.58771 0.56826 0.02169 0.0
C441 C 0.55598 0.572 0.03025 0.0
C442 C 0.55051 0.57063 0.05095 0.0
C443 C 0.57705 0.56556 0.06373 0.0
C444 C 0.60838 0.5624 0.0554 0.0
C445 C 0.63481 0.55922 0.0711 0.0
C446 C 0.61378 0.55988 0.09032 0.0
C447 C 0.57962 0.56322 0.08595 0.0
C448 C 0.67774 0.59736 0.06922 0.0
C449 C 0.63296 0.51783 0.06805 0.0
C450 C 0.4643 0.56479 0.12352 0.0
C451 C 0.44807 0.55848 0.14294 0.0
C452 C 0.47227 0.55205 0.15741 0.0
C453 C 0.51013 0.55281 0.15263 0.0
C454 C 0.52534 0.55913 0.13286 0.0
C455 C 0.50089 0.56419 0.11897 0.0
C456 C 0.51649 0.56681 0.09841 0.0
C457 C 0.55415 0.56314 0.10151 0.0
C458 C 0.56218 0.5595 0.12192 0.0
C459 C 0.52765 0.60919 0.09009 0.0
C460 C 0.48316 0.53009 0.08645 0.0
H461 H 0.69441 0.55384 0.09219 0.0
H462 H 0.6962 0.5565 0.16541 0.0
H463 H 0.58758 0.49047 0.14818 0.0
H464 H 0.56727 0.51648 0.16219 0.0
H465 H 0.61187 0.51628 0.17096 0.0
H466 H 0.65399 0.62248 0.15007 0.0
H467 H 0.65111 0.59438 0.17209 0.0
H468 H 0.60679 0.5952 0.16328 0.0
H469 H 0.63928 0.56096 0.02874 0.0
H470 H 0.53487 0.57556 0.02086 0.0
H471 H 0.52556 0.57358 0.05613 0.0
H472 H 0.67633 0.62357 0.06283 0.0
H473 H 0.69752 0.5913 0.05944 0.0
H474 H 0.69294 0.60881 0.08374 0.0
H475 H 0.60283 0.49437 0.06218 0.0
H476 H 0.6364 0.50476 0.08207 0.0
H477 H 0.65623 0.52051 0.05733 0.0
H478 H 0.74814 0.55285 0.10888 0.0
C479 C 0.69308 0.55466 0.10799 0.0
H480 H 0.18207 0.49006 0.16347 0.0
H481 H 0.24345 0.6196 0.15642 0.0
H482 H 0.24701 0.49142 0.15999 0.0
H483 H 0.30822 0.62088 0.15221 0.0
H484 H 0.41781 0.60692 0.12675 0.0
H485 H 0.35377 0.60624 0.1317 0.0
H486 H 0.31581 0.50825 0.17312 0.0
H487 H 0.38081 0.50982 0.16861 0.0
C488 C 0.20913 0.51917 0.1611 0.0
C489 C 0.20539 0.55467 0.16036 0.0
C490 C 0.24737 0.52 0.15913 0.0
C491 C 0.28513 0.55628 0.15565 0.0
C492 C 0.28127 0.59175 0.15468 0.0
C493 C 0.24318 0.59105 0.15721 0.0
C494 C 0.39631 0.58506 0.13709 0.0
C495 C 0.40678 0.55854 0.14716 0.0
C496 C 0.35861 0.58478 0.14005 0.0
C497 C 0.32728 0.5571 0.15292 0.0
C498 C 0.33753 0.53029 0.16293 0.0
C499 C 0.37588 0.53137 0.16039 0.0
H500 H 0.74849 0.16307 0.5104 0.0
H501 H 0.68189 0.21263 0.48223 0.0
H502 H 0.81183 0.22767 0.50566 0.0
H503 H 0.7444 0.27677 0.47733 0.0
H504 H 0.86378 0.39398 0.46221 0.0
H505 H 0.80169 0.33102 0.46889 0.0
H506 H 0.86868 0.29091 0.50466 0.0
H507 H 0.93162 0.35494 0.49754 0.0
C508 C 0.74677 0.18755 0.5032 0.0
C509 C 0.70801 0.18066 0.49695 0.0
C510 C 0.78413 0.22578 0.50041 0.0
C511 C 0.78606 0.26041 0.49098 0.0
C512 C 0.747 0.25301 0.48467 0.0
C513 C 0.70979 0.21503 0.48761 0.0
C514 C 0.86583 0.37236 0.47186 0.0
C515 C 0.90472 0.3821 0.4794 0.0
C516 C 0.82899 0.33481 0.47577 0.0
C517 C 0.8273 0.30281 0.4875 0.0
C518 C 0.86628 0.31281 0.49544 0.0
C519 C 0.90343 0.35083 0.49154 0.0
H520 H 0.66405 0.72555 0.81779 0.0
H521 H 0.5412 0.66788 0.83842 0.0
H522 H 0.66403 0.78917 0.81342 0.0
H523 H 0.54066 0.73174 0.83382 0.0
H524 H 0.55014 0.86151 0.83076 0.0
H525 H 0.55024 0.7978 0.83759 0.0
H526 H 0.65432 0.83789 0.79993 0.0
H527 H 0.65426 0.90066 0.79355 0.0
C528 C 0.63657 0.72586 0.82143 0.0
C529 C 0.60267 0.68945 0.82856 0.0
C530 C 0.63638 0.76343 0.81874 0.0
C531 C 0.60223 0.76823 0.82297 0.0
C532 C 0.56827 0.73169 0.83026 0.0
C533 C 0.56846 0.69393 0.8329 0.0
C534 C 0.57388 0.85755 0.82428 0.0
C535 C 0.6028 0.88879 0.81174 0.0
C536 C 0.57364 0.81975 0.828 0.0
C537 C 0.60235 0.81009 0.81955 0.0
C538 C 0.63147 0.84189 0.80735 0.0
C539 C 0.6315 0.87916 0.80357 0.0
H540 H 0.98719 0.61609 0.17688 0.0
H541 H 0.93596 0.49833 0.1497 0.0
H542 H 0.92259 0.61478 0.17238 0.0
H543 H 0.87162 0.49643 0.14522 0.0
H544 H 0.75496 0.49973 0.12952 0.0
H545 H 0.81797 0.50057 0.13602 0.0
H546 H 0.8588 0.60755 0.17235 0.0
H547 H 0.79479 0.60655 0.16542 0.0
C548 C 0.96234 0.58949 0.16996 0.0
C549 C 0.96883 0.55721 0.1639 0.0
C550 C 0.92409 0.58859 0.16733 0.0
C551 C 0.88894 0.55542 0.15826 0.0
C552 C 0.89588 0.52329 0.15218 0.0
C553 C 0.93393 0.52415 0.15492 0.0
C554 C 0.77672 0.52334 0.13928 0.0
C555 C 0.76712 0.55247 0.14704 0.0
C556 C 0.81428 0.52401 0.14308 0.0
C557 C 0.84652 0.55429 0.15491 0.0
C558 C 0.83672 0.58327 0.16305 0.0
C559 C 0.79868 0.58243 0.15926 0.0
H560 H 0.43536 0.96824 0.47883 0.0
H561 H 0.48667 0.90623 0.50994 0.0
H562 H 0.37156 0.90393 0.47463 0.0
H563 H 0.42254 0.84154 0.50595 0.0
H564 H 0.2878 0.72697 0.50726 0.0
H565 H 0.35213 0.79116 0.51239 0.0
H566 H 0.32849 0.84018 0.45995 0.0
H567 H 0.26492 0.77672 0.4549 0.0
C568 C 0.43357 0.94109 0.48491 0.0
C569 C 0.46824 0.9445 0.49483 0.0
C570 C 0.39604 0.90309 0.48235 0.0
C571 C 0.38955 0.86512 0.48976 0.0
C572 C 0.42419 0.86864 0.49989 0.0
C573 C 0.46203 0.90665 0.50218 0.0
C574 C 0.29577 0.75123 0.49673 0.0
C575 C 0.26899 0.74431 0.48043 0.0
C576 C 0.3338 0.78893 0.49964 0.0
C577 C 0.34786 0.82321 0.48674 0.0
C578 C 0.32064 0.81632 0.47069 0.0
C579 C 0.28319 0.7786 0.46761 0.0
H580 H 0.54502 0.41133 0.84934 0.0
H581 H 0.65108 0.47294 0.81296 0.0
H582 H 0.54544 0.34731 0.84495 0.0
H583 H 0.6511 0.40916 0.80813 0.0
H584 H 0.63398 0.28316 0.79009 0.0
H585 H 0.63314 0.34593 0.79546 0.0
H586 H 0.56456 0.29684 0.84892 0.0
H587 H 0.56511 0.23312 0.84334 0.0
C588 C 0.56872 0.4118 0.84034 0.0
C589 C 0.59808 0.44937 0.8317 0.0
C590 C 0.56911 0.37415 0.8378 0.0
C591 C 0.59843 0.37063 0.82606 0.0
C592 C 0.62748 0.4083 0.81729 0.0
C593 C 0.62757 0.44602 0.82017 0.0
C594 C 0.61823 0.28479 0.80307 0.0
C595 C 0.59933 0.25051 0.81599 0.0
C596 C 0.61811 0.32222 0.80636 0.0
C597 C 0.5987 0.32899 0.8228 0.0
C598 C 0.57985 0.29479 0.83585 0.0
C599 C 0.58043 0.25731 0.83268 0.0
H600 H 0.57218 0.82355 0.47839 0.0
H601 H 0.52757 0.80756 0.53843 0.0
H602 H 0.55321 0.75199 0.477 0.0
H603 H 0.50906 0.73658 0.53717 0.0
H604 H 0.60396 0.67408 0.5071 0.0
H605 H 0.58997 0.72501 0.4946 0.0
H606 H 0.47425 0.66689 0.52438 0.0
H607 H 0.4881 0.61479 0.53683 0.0
C608 C 0.55754 0.80449 0.49112 0.0
C609 C 0.55226 0.82123 0.50869 0.0
C610 C 0.54649 0.76355 0.49029 0.0
C611 C 0.53028 0.73879 0.50707 0.0
C612 C 0.52116 0.75464 0.5239 0.0
C613 C 0.53203 0.7955 0.52469 0.0
C614 C 0.57462 0.67075 0.51027 0.0
C615 C 0.54761 0.64088 0.52343 0.0
C616 C 0.56653 0.70018 0.50303 0.0
C617 C 0.53136 0.70053 0.50887 0.0
C618 C 0.50202 0.66783 0.51999 0.0
C619 C 0.51004 0.63813 0.52718 0.0
H620 H 0.71511 0.44728 0.82606 0.0
H621 H 0.83309 0.54286 0.80776 0.0
H622 H 0.74139 0.40087 0.82933 0.0
H623 H 0.8599 0.4976 0.81176 0.0
H624 H 0.91004 0.42313 0.8194 0.0
H625 H 0.86509 0.44097 0.80325 0.0
H626 H 0.78301 0.39387 0.85288 0.0
H627 H 0.82567 0.37128 0.86821 0.0
C628 C 0.74651 0.45812 0.82244 0.0
C629 C 0.77213 0.49872 0.81676 0.0
C630 C 0.76163 0.43161 0.82439 0.0
C631 C 0.80287 0.44539 0.82099 0.0
C632 C 0.82779 0.48541 0.81416 0.0
C633 C 0.81253 0.51166 0.81197 0.0
C634 C 0.88162 0.41441 0.82667 0.0
C635 C 0.87289 0.3973 0.84584 0.0
C636 C 0.85598 0.42552 0.81739 0.0
C637 C 0.82157 0.42097 0.8272 0.0
C638 C 0.80975 0.39872 0.84498 0.0
C639 C 0.83484 0.38642 0.85403 0.0
H640 H 0.31723 0.78095 0.13955 0.0
H641 H 0.34639 0.76827 0.20013 0.0
H642 H 0.38631 0.83707 0.13485 0.0
H643 H 0.41473 0.82494 0.1957 0.0
H644 H 0.53265 0.92804 0.18918 0.0
H645 H 0.48122 0.85866 0.18023 0.0
H646 H 0.41414 0.90498 0.1487 0.0
H647 H 0.46531 0.97374 0.15748 0.0
C648 C 0.33871 0.78945 0.15169 0.0
C649 C 0.32631 0.77087 0.17035 0.0
C650 C 0.37819 0.82167 0.14901 0.0
C651 C 0.40587 0.83579 0.16494 0.0
C652 C 0.39437 0.81471 0.18304 0.0
C653 C 0.35498 0.7826 0.18571 0.0
C654 C 0.50759 0.92331 0.17973 0.0
C655 C 0.50239 0.95612 0.17444 0.0
C656 C 0.47817 0.88366 0.17463 0.0
C657 C 0.44311 0.87629 0.16423 0.0
C658 C 0.44077 0.9095 0.15671 0.0
C659 C 0.47021 0.94911 0.16176 0.0
H660 H 0.65133 0.32767 0.46899 0.0
H661 H 0.70737 0.28605 0.51145 0.0
H662 H 0.70181 0.3978 0.47676 0.0
H663 H 0.75833 0.35621 0.51899 0.0
H664 H 0.78452 0.52101 0.49571 0.0
H665 H 0.77252 0.4574 0.48067 0.0
H666 H 0.73988 0.39973 0.53802 0.0
H667 H 0.74955 0.46139 0.55276 0.0
C668 C 0.6753 0.33348 0.47944 0.0
C669 C 0.67476 0.3015 0.49002 0.0
C670 C 0.70451 0.37369 0.48379 0.0
C671 C 0.73367 0.3825 0.49874 0.0
C672 C 0.73582 0.35032 0.50765 0.0
C673 C 0.70646 0.31021 0.50343 0.0
C674 C 0.77563 0.49498 0.5052 0.0
C675 C 0.76644 0.49619 0.52535 0.0
C676 C 0.76907 0.45867 0.49657 0.0
C677 C 0.75433 0.42337 0.50807 0.0
C678 C 0.75127 0.42635 0.52869 0.0
C679 C 0.75703 0.46222 0.53723 0.0
H680 H 0.4132 0.63871 0.87365 0.0
H681 H 0.38906 0.5966 0.81284 0.0
H682 H 0.35929 0.65497 0.87189 0.0
H683 H 0.33608 0.6144 0.81082 0.0
H684 H 0.2059 0.55069 0.84057 0.0
H685 H 0.27236 0.57159 0.82797 0.0
H686 H 0.32059 0.68621 0.85908 0.0
H687 H 0.2528 0.66561 0.87142 0.0
C688 C 0.3972 0.63417 0.85971 0.0
C689 C 0.4043 0.61509 0.84363 0.0
C690 C 0.36674 0.64415 0.85857 0.0
C691 C 0.34286 0.63513 0.84131 0.0
C692 C 0.35362 0.62107 0.8244 0.0
C693 C 0.38403 0.61095 0.82556 0.0
C694 C 0.22997 0.5812 0.84402 0.0
C695 C 0.22407 0.60599 0.85751 0.0
C696 C 0.26842 0.59332 0.83669 0.0
C697 C 0.30194 0.63027 0.84286 0.0
C698 C 0.29535 0.65723 0.85438 0.0
C699 C 0.25662 0.64525 0.86157 0.0
H700 H 0.87306 0.45825 0.18452 0.0
H701 H 0.81875 0.35594 0.1442 0.0
H702 H 0.80589 0.4439 0.19477 0.0
H703 H 0.75158 0.34093 0.15474 0.0
H704 H 0.70161 0.33925 0.23297 0.0
H705 H 0.76238 0.38649 0.21576 0.0
H706 H 0.69623 0.35597 0.1603 0.0
H707 H 0.63424 0.30883 0.17779 0.0
C708 C 0.84667 0.43311 0.17759 0.0
C709 C 0.85097 0.40748 0.16396 0.0
C710 C 0.80828 0.42507 0.18338 0.0
C711 C 0.77344 0.39087 0.17586 0.0
C712 C 0.77777 0.3677 0.16074 0.0
C713 C 0.81626 0.37604 0.1548 0.0
C714 C 0.69915 0.34395 0.21731 0.0
C715 C 0.66318 0.31912 0.20669 0.0
C716 C 0.73435 0.37121 0.20734 0.0
C717 C 0.73437 0.3741 0.18655 0.0
C718 C 0.69726 0.35359 0.17628 0.0
C719 C 0.66183 0.32656 0.18631 0.0
H720 H 0.09443 0.51665 0.11315 0.0
H721 H 1.05931 0.60777 0.10704 0.0
H722 H 0.07475 0.49596 0.07852 0.0
H723 H 1.03936 0.58701 0.07273 0.0
H724 H 1.00116 0.4478 0.02037 0.0
H725 H 1.01428 0.46421 0.05581 0.0
H726 H 0.07539 0.5922 0.04193 0.0
H727 H 1.06152 0.57584 0.00682 0.0
C728 C 0.08232 0.53204 0.10442 0.0
C729 C 0.07865 0.56396 0.11265 0.0
C730 C 0.07082 0.52006 0.08469 0.0
C731 C 1.05567 0.53999 0.07291 0.0
C732 C 1.05147 0.57147 0.08134 0.0
C733 C 1.06284 0.58332 0.10099 0.0
C734 C 1.01682 0.47937 0.025 0.0
C735 C 1.03042 0.51057 0.01088 0.0
C736 C 1.02471 0.48875 0.04521 0.0
C737 C 1.04596 0.52947 0.05162 0.0
C738 C 1.05863 0.56053 0.03749 0.0
C739 C 1.05096 0.55119 0.01737 0.0
H740 H 0.66069 0.08031 0.43846 0.0
H741 H 0.53647 0.04829 0.44893 0.0
H742 H 0.65282 0.09094 0.40337 0.0
H743 H 0.52852 0.05887 0.41381 0.0
H744 H 0.54315 0.11846 0.35251 0.0
H745 H 0.55376 0.11409 0.38812 0.0
H746 H 0.61383 0.04605 0.37518 0.0
H747 H 0.60391 0.05101 0.33981 0.0
C748 C 0.63175 0.07562 0.43323 0.0
C749 C 0.59915 0.06337 0.44632 0.0
C750 C 0.62721 0.08162 0.41318 0.0
C751 C 0.59003 0.07566 0.40587 0.0
C752 C 0.55764 0.06411 0.41907 0.0
C753 C 0.56212 0.05786 0.43912 0.0
C754 C 0.55889 0.1029 0.35734 0.0
C755 C 0.57248 0.08484 0.34345 0.0
C756 C 0.56469 0.10014 0.37767 0.0
C757 C 0.58461 0.07972 0.38439 0.0
C758 C 0.59873 0.0623 0.37044 0.0
C759 C 0.59267 0.06477 0.35021 0.0
H760 H 0.63622 0.61764 0.78211 0.0
H761 H 0.5502 0.48953 0.77553 0.0
H762 H 0.65807 0.61986 0.7478 0.0
H763 H 0.57223 0.49153 0.74142 0.0
H764 H 0.58419 0.5243 0.67549 0.0
H765 H 0.56631 0.52064 0.71032 0.0
H766 H 0.69306 0.59476 0.72581 0.0
H767 H 0.71094 0.59941 0.69063 0.0
C768 C 0.62222 0.58996 0.77334 0.0
C769 C 0.59143 0.55347 0.78135 0.0
C770 C 0.63487 0.59115 0.75378 0.0
C771 C 0.6168 0.55587 0.74191 0.0
C772 C 0.58634 0.51931 0.7501 0.0
C773 C 0.57376 0.51815 0.76962 0.0
C774 C 0.60826 0.5399 0.68632 0.0
C775 C 0.64893 0.56242 0.68035 0.0
C776 C 0.59805 0.53746 0.7063 0.0
C777 C 0.62828 0.55744 0.7208 0.0
C778 C 0.6691 0.57939 0.71491 0.0
C779 C 0.67936 0.58171 0.69485 0.0
H780 H 0.64032 0.08672 0.55866 0.0
H781 H 0.51352 0.04852 0.56415 0.0
H782 H 0.64609 0.08633 0.59505 0.0
H783 H 0.51889 0.04743 0.60007 0.0
H784 H 0.54961 0.09593 0.66312 0.0
H785 H 0.54611 0.09348 0.62715 0.0
H786 H 0.62729 0.04538 0.62568 0.0
H787 H 0.63176 0.04904 0.66209 0.0
C788 C 0.61365 0.07801 0.56759 0.0
C789 C 0.57654 0.06805 0.55839 0.0
C790 C 0.61685 0.07756 0.5885 0.0
C791 C 0.58308 0.0673 0.60078 0.0
C792 C 0.54589 0.05641 0.59137 0.0
C793 C 0.54272 0.0568 0.57063 0.0
C794 C 0.56703 0.08502 0.65524 0.0
C795 C 0.59122 0.07297 0.66577 0.0
C796 C 0.56464 0.08316 0.63444 0.0
C797 C 0.58628 0.06909 0.6232 0.0
C798 C 0.61039 0.05674 0.63367 0.0
C799 C 0.61261 0.0584 0.65463 0.0
H800 H 0.65129 0.64706 0.89832 0.0
H801 H 0.58109 0.51657 0.89305 0.0
H802 H 0.64252 0.64196 0.93426 0.0
H803 H 0.57248 0.5113 0.9293 0.0
H804 H 0.60556 0.52072 0.99731 0.0
H805 H 0.61282 0.52359 0.96107 0.0
H806 H 0.58917 0.62315 0.95939 0.0
H807 H 0.5821 0.62039 0.99542 0.0
C808 C 0.63385 0.61718 0.90484 0.0
C809 C 0.61689 0.58225 0.89271 0.0
C810 C 0.62867 0.61425 0.92553 0.0
C811 C 0.60675 0.57621 0.93488 0.0
C812 C 0.58984 0.54112 0.92273 0.0
C813 C 0.59454 0.54412 0.90191 0.0
C814 C 0.60212 0.54337 0.98922 0.0
C815 C 0.59318 0.57029 -0.00054 0.0
C816 C 0.60589 0.54476 0.96837 0.0
C817 C 0.60159 0.5736 0.95713 0.0
C818 C 0.59301 0.60069 0.96743 0.0
C819 C 0.58864 0.5989 0.98817 0.0
H820 H 1.05116 0.57434 0.22515 0.0
H821 H 0.11552 0.50851 0.23026 0.0
H822 H 1.0529 0.58177 0.26153 0.0
H823 H 0.11769 0.51621 0.26628 0.0
H824 H 0.15362 0.57657 0.32792 0.0
H825 H 0.15029 0.57036 0.29182 0.0
H826 H 1.02477 0.53897 0.29295 0.0
H827 H 1.02812 0.54518 0.32932 0.0
C828 C 0.06585 0.56166 0.234 0.0
C829 C 0.08325 0.54086 0.22472 0.0
C830 C 0.06662 0.56565 0.25488 0.0
C831 C 0.08549 0.54964 0.26699 0.0
C832 C 0.10322 0.52931 0.25757 0.0
C833 C 0.10186 0.52477 0.23684 0.0
C834 C 0.12525 0.56843 0.32054 0.0
C835 C 0.09116 0.56144 0.33171 0.0
C836 C 0.12327 0.56462 0.29976 0.0
C837 C 0.08727 0.55419 0.28929 0.0
C838 C 1.05313 0.54738 0.30041 0.0
C839 C 1.05494 0.55056 0.32131 0.0
loop_
_geom_bond_atom_site_label_1
_geom_bond_atom_site_label_2
_geom_bond_distance
_geom_bond_site_symmetry_2
_ccdc_geom_bond_type
Tb0 C2 2.809 . S
Tb0 O20 2.484 . S
Tb0 O21 2.440 . S
Tb0 O22 2.658 . S
Tb0 O23 2.409 . S
Tb0 O24 2.378 . S
Tb0 O28 2.325 . S
Tb0 O31 2.341 1_455 S
Tb1 C11 2.809 . S
Tb1 O22 2.325 1_655 S
Tb1 O25 2.341 1_655 S
Tb1 O26 2.484 . S
Tb1 O27 2.440 . S
Tb1 O28 2.658 1_655 S
Tb1 O29 2.409 1_655 S
Tb1 O30 2.378 . S
C2 Tb0 2.809 . S
C2 C3 1.514 . S
C2 O20 1.248 . S
C2 O21 1.266 . S
C3 C2 1.514 . S
C3 C4 1.359 . S
C3 C8 1.348 . S
C4 C3 1.359 . S
C4 C5 1.380 . S
C4 H32 0.929 . S
C5 C4 1.380 . S
C5 C6 1.347 . S
C5 H33 0.931 . S
C6 C5 1.347 . S
C6 C7 1.369 . S
C7 C6 1.369 . S
C7 C8 1.408 . S
C7 H34 0.930 . S
C8 C3 1.348 . S
C8 C7 1.408 . S
C8 H35 0.930 . S
C9 O22 1.281 . S
C9 O23 1.254 . S
C10 O24 1.236 . S
C10 O25 1.266 . S
C11 Tb1 2.809 . S
C11 C12 1.514 . S
C11 O26 1.248 . S
C11 O27 1.266 . S
C12 C11 1.514 . S
C12 C13 1.359 . S
C12 C17 1.348 . S
C13 C12 1.359 . S
C13 C14 1.380 . S
C13 H36 0.929 . S
C14 C13 1.380 . S
C14 C15 1.347 . S
C14 H37 0.931 . S
C15 C14 1.347 . S
C15 C16 1.369 . S
C16 C15 1.369 . S
C16 C17 1.408 . S
C16 H38 0.930 . S
C17 C12 1.348 . S
C17 C16 1.408 . S
C17 H39 0.930 . S
C18 O28 1.281 . S
C18 O29 1.254 . S
C19 O30 1.236 . S
C19 O31 1.266 . S
O20 Tb0 2.484 . S
O20 C2 1.248 . S
O21 Tb0 2.440 . S
O21 C2 1.266 . S
O22 Tb0 2.658 . S
O22 Tb1 2.325 1_455 S
O22 C9 1.281 . S
O23 Tb0 2.409 . S
O23 C9 1.254 . S
O24 Tb0 2.378 . S
O24 C10 1.236 . S
O25 Tb1 2.341 1_455 S
O25 C10 1.266 . S
O26 Tb1 2.484 . S
O26 C11 1.248 . S
O27 Tb1 2.440 . S
O27 C11 1.266 . S
O28 Tb0 2.325 . S
O28 Tb1 2.658 1_455 S
O28 C18 1.281 . S
O29 Tb1 2.409 1_455 S
O29 C18 1.254 . S
O30 Tb1 2.378 . S
O30 C19 1.236 . S
O31 Tb0 2.341 1_655 S
O31 C19 1.266 . S
H32 C4 0.929 . S
H33 C5 0.931 . S
H34 C7 0.930 . S
H35 C8 0.930 . S
H36 C13 0.929 . S
H37 C14 0.931 . S
H38 C16 0.930 . S
H39 C17 0.930 . S
Tb40 C42 2.781 1_545 S
Tb40 O60 2.461 1_545 S
Tb40 O61 2.413 1_545 S
Tb40 O62 2.682 . S
Tb40 O63 2.414 . S
Tb40 O64 2.375 1_545 S
Tb40 O68 2.339 . S
Tb40 O71 2.365 . S
Tb41 C51 2.809 . S
Tb41 O62 2.325 . S
Tb41 O65 2.341 1_545 S
Tb41 O66 2.484 . S
Tb41 O67 2.440 . S
Tb41 O68 2.658 . S
Tb41 O69 2.409 . S
Tb41 O70 2.378 . S
C42 Tb40 2.781 1_565 S
C42 C43 1.514 . S
C42 O60 1.248 . S
C42 O61 1.266 . S
C43 C42 1.514 . S
C43 C44 1.359 . S
C43 C48 1.348 . S
C44 C43 1.359 . S
C44 C45 1.380 . S
C44 H72 0.929 . S
C45 C44 1.380 . S
C45 C46 1.347 . S
C45 H73 0.931 . S
C46 C45 1.347 . S
C46 C47 1.369 . S
C47 C46 1.369 . S
C47 C48 1.408 . S
C47 H74 0.930 . S
C48 C43 1.348 . S
C48 C47 1.408 . S
C48 H75 0.930 . S
C49 O62 1.281 . S
C49 O63 1.254 . S
C50 O64 1.236 . S
C50 O65 1.266 . S
C51 Tb41 2.809 . S
C51 C52 1.514 . S
C51 O66 1.248 . S
C51 O67 1.266 . S
C52 C51 1.514 . S
C52 C53 1.359 . S
C52 C57 1.348 . S
C53 C52 1.359 . S
C53 C54 1.380 . S
C53 H76 0.929 . S
C54 C53 1.380 . S
C54 C55 1.347 . S
C54 H77 0.931 . S
C55 C54 1.347 . S
C55 C56 1.369 . S
C56 C55 1.369 . S
C56 C57 1.408 . S
C56 H78 0.930 . S
C57 C52 1.348 . S
C57 C56 1.408 . S
C57 H79 0.930 . S
C58 O68 1.281 . S
C58 O69 1.254 . S
C59 O70 1.236 . S
C59 O71 1.266 . S
O60 Tb40 2.461 1_565 S
O60 C42 1.248 . S
O61 Tb40 2.413 1_565 S
O61 C42 1.266 . S
O62 Tb40 2.682 . S
O62 Tb41 2.325 . S
O62 C49 1.281 . S
O63 Tb40 2.414 . S
O63 C49 1.254 . S
O64 Tb40 2.375 1_565 S
O64 C50 1.236 . S
O65 Tb41 2.341 1_565 S
O65 C50 1.266 . S
O66 Tb41 2.484 . S
O66 C51 1.248 . S
O67 Tb41 2.440 . S
O67 C51 1.266 . S
O68 Tb40 2.339 . S
O68 Tb41 2.658 . S
O68 C58 1.281 . S
O69 Tb41 2.409 . S
O69 C58 1.254 . S
O70 Tb41 2.378 . S
O70 C59 1.236 . S
O71 Tb40 2.365 . S
O71 C59 1.266 . S
H72 C44 0.929 . S
H73 C45 0.931 . S
H74 C47 0.930 . S
H75 C48 0.930 . S
H76 C53 0.929 . S
H77 C54 0.931 . S
H78 C56 0.930 . S
H79 C57 0.930 . S
Tb80 C82 2.809 . S
Tb80 O100 2.484 . S
Tb80 O101 2.440 . S
Tb80 O102 2.658 . S
Tb80 O103 2.409 . S
Tb80 O104 2.378 . S
Tb80 O108 2.325 . S
Tb80 O111 2.341 . S
Tb81 C91 2.809 . S
Tb81 O102 2.325 . S
Tb81 O105 2.341 . S
Tb81 O106 2.484 . S
Tb81 O107 2.440 . S
Tb81 O108 2.658 . S
Tb81 O109 2.409 . S
Tb81 O110 2.378 . S
C82 Tb80 2.809 . S
C82 C83 1.514 . S
C82 O100 1.248 . S
C82 O101 1.266 . S
C83 C82 1.514 . S
C83 C84 1.359 . S
C83 C88 1.348 . S
C84 C83 1.359 . S
C84 C85 1.380 . S
C84 H112 0.929 . S
C85 C84 1.380 . S
C85 C86 1.347 . S
C85 H113 0.931 . S
C86 C85 1.347 . S
C86 C87 1.369 . S
C87 C86 1.369 . S
C87 C88 1.408 . S
C87 H114 0.930 . S
C88 C83 1.348 . S
C88 C87 1.408 . S
C88 H115 0.930 . S
C89 O102 1.281 . S
C89 O103 1.254 . S
C90 O104 1.236 . S
C90 O105 1.266 . S
C91 Tb81 2.809 . S
C91 C92 1.514 . S
C91 O106 1.248 . S
C91 O107 1.266 . S
C92 C91 1.514 . S
C92 C93 1.359 . S
C92 C97 1.348 . S
C93 C92 1.359 . S
C93 C94 1.380 . S
C93 H116 0.929 . S
C94 C93 1.380 . S
C94 C95 1.347 . S
C94 H117 0.931 . S
C95 C94 1.347 . S
C95 C96 1.369 . S
C96 C95 1.369 . S
C96 C97 1.408 . S
C96 H118 0.930 . S
C97 C92 1.348 . S
C97 C96 1.408 . S
C97 H119 0.930 . S
C98 O108 1.281 . S
C98 O109 1.254 . S
C99 O110 1.236 . S
C99 O111 1.266 . S
O100 Tb80 2.484 . S
O100 C82 1.248 . S
O101 Tb80 2.440 . S
O101 C82 1.266 . S
O102 Tb80 2.658 . S
O102 Tb81 2.325 . S
O102 C89 1.281 . S
O103 Tb80 2.409 . S
O103 C89 1.254 . S
O104 Tb80 2.378 . S
O104 C90 1.236 . S
O105 Tb81 2.341 . S
O105 C90 1.266 . S
O106 Tb81 2.484 . S
O106 C91 1.248 . S
O107 Tb81 2.440 . S
O107 C91 1.266 . S
O108 Tb80 2.325 . S
O108 Tb81 2.658 . S
O108 C98 1.281 . S
O109 Tb81 2.409 . S
O109 C98 1.254 . S
O110 Tb81 2.378 . S
O110 C99 1.236 . S
O111 Tb80 2.341 . S
O111 C99 1.266 . S
H112 C84 0.929 . S
H113 C85 0.931 . S
H114 C87 0.930 . S
H115 C88 0.930 . S
H116 C93 0.929 . S
H117 C94 0.931 . S
H118 C96 0.930 . S
H119 C97 0.930 . S
C120 C121 1.391 . S
C120 C124 1.391 . S
C120 H162 0.948 . S
C121 C120 1.391 . S
C121 C122 1.391 . S
C122 C121 1.391 . S
C122 H178 0.947 . S
C122 C179 1.392 . S
C123 C124 1.391 . S
C123 C127 1.397 . S
C123 C179 1.419 . S
C124 C120 1.391 . S
C124 C123 1.391 . S
C124 C125 1.399 . S
C125 C124 1.399 . S
C125 C128 1.396 . S
C125 C137 1.453 . S
C125 C138 1.684 . S
H126 C150 0.948 . S
C127 C123 1.397 . S
C127 C128 1.394 . S
C127 C146 1.723 . S
C128 C125 1.396 . S
C128 C127 1.394 . S
C128 C158 1.723 . S
H129 C152 0.947 . S
H130 C153 0.948 1_545 S
H131 C159 0.982 . S
H132 C160 0.979 . S
H133 C160 0.980 . S
H134 C160 0.983 . S
H135 C159 0.979 . S
H136 C159 0.977 . S
C137 C125 1.453 . S
C137 H166 0.982 . S
C137 H167 0.979 . S
C137 H168 0.977 . S
C138 C125 1.684 . S
C138 H163 0.979 . S
C138 H164 0.980 . S
C138 H165 0.983 . S
C139 C140 1.391 . S
C139 C144 1.391 . S
C139 H169 0.948 . S
C140 C139 1.391 . S
C140 C141 1.391 . S
C141 C140 1.391 . S
C141 C142 1.392 . S
C141 H170 0.947 1_545 S
C142 C141 1.392 . S
C142 C143 1.419 . S
C142 H171 0.948 1_545 S
C143 C142 1.419 . S
C143 C144 1.391 . S
C143 C147 1.397 . S
C144 C139 1.391 . S
C144 C143 1.391 . S
C144 C145 1.399 . S
C145 C144 1.399 . S
C145 C146 1.396 . S
C145 C148 1.453 . S
C145 C149 1.684 . S
C146 C127 1.723 . S
C146 C145 1.396 . S
C146 C147 1.394 . S
C147 C143 1.397 . S
C147 C146 1.394 . S
C147 C157 1.723 . S
C148 C145 1.453 . S
C148 H172 0.982 . S
C148 H173 0.979 . S
C148 H174 0.977 . S
C149 C145 1.684 . S
C149 H175 0.979 . S
C149 H176 0.980 . S
C149 H177 0.983 . S
C150 H126 0.948 . S
C150 C151 1.391 . S
C150 C155 1.391 . S
C151 C150 1.391 . S
C151 C152 1.391 . S
C152 H129 0.947 . S
C152 C151 1.391 . S
C152 C153 1.392 . S
C153 H130 0.948 1_565 S
C153 C152 1.392 . S
C153 C154 1.419 . S
C154 C153 1.419 . S
C154 C155 1.391 . S
C154 C158 1.397 1_565 S
C155 C150 1.391 . S
C155 C154 1.391 . S
C155 C156 1.399 . S
C156 C155 1.399 . S
C156 C157 1.396 1_565 S
C156 C159 1.453 . S
C156 C160 1.684 . S
C157 C147 1.723 . S
C157 C156 1.396 1_545 S
C157 C158 1.394 . S
C158 C128 1.723 . S
C158 C154 1.397 1_545 S
C158 C157 1.394 . S
C159 H131 0.982 . S
C159 H135 0.979 . S
C159 H136 0.977 . S
C159 C156 1.453 . S
C160 H132 0.979 . S
C160 H133 0.980 . S
C160 H134 0.983 . S
C160 C156 1.684 . S
H161 C179 0.948 . S
H162 C120 0.948 . S
H163 C138 0.979 . S
H164 C138 0.980 . S
H165 C138 0.983 . S
H166 C137 0.982 . S
H167 C137 0.979 . S
H168 C137 0.977 . S
H169 C139 0.948 . S
H170 C141 0.947 1_565 S
H171 C142 0.948 1_565 S
H172 C148 0.982 . S
H173 C148 0.979 . S
H174 C148 0.977 . S
H175 C149 0.979 . S
H176 C149 0.980 . S
H177 C149 0.983 . S
H178 C122 0.947 . S
C179 C122 1.392 . S
C179 C123 1.419 . S
C179 H161 0.948 . S
C180 C181 1.391 . S
C180 C184 1.391 . S
C180 H222 0.948 . S
C181 C180 1.391 . S
C181 C182 1.391 . S
C182 C181 1.391 . S
C182 H238 0.947 . S
C182 C239 1.392 . S
C183 C184 1.391 . S
C183 C187 1.397 . S
C183 C239 1.419 . S
C184 C180 1.391 . S
C184 C183 1.391 . S
C184 C185 1.399 . S
C185 C184 1.399 . S
C185 C188 1.396 . S
C185 C197 1.453 . S
C185 C198 1.684 . S
H186 C210 0.948 . S
C187 C183 1.397 . S
C187 C188 1.394 . S
C187 C206 1.723 . S
C188 C185 1.396 . S
C188 C187 1.394 . S
C188 C218 1.723 . S
H189 C212 0.947 . S
H190 C213 0.948 . S
H191 C219 0.982 . S
H192 C220 0.979 . S
H193 C220 0.980 . S
H194 C220 0.983 . S
H195 C219 0.979 . S
H196 C219 0.977 . S
C197 C185 1.453 . S
C197 H226 0.982 . S
C197 H227 0.979 . S
C197 H228 0.977 . S
C198 C185 1.684 . S
C198 H223 0.979 . S
C198 H224 0.980 . S
C198 H225 0.983 . S
C199 C200 1.391 . S
C199 C204 1.391 . S
C199 H229 0.948 . S
C200 C199 1.391 . S
C200 C201 1.391 . S
C201 C200 1.391 . S
C201 C202 1.392 . S
C201 H230 0.947 . S
C202 C201 1.392 . S
C202 C203 1.419 . S
C202 H231 0.948 . S
C203 C202 1.419 . S
C203 C204 1.391 . S
C203 C207 1.397 . S
C204 C199 1.391 . S
C204 C203 1.391 . S
C204 C205 1.399 . S
C205 C204 1.399 . S
C205 C206 1.396 . S
C205 C208 1.453 . S
C205 C209 1.684 . S
C206 C187 1.723 . S
C206 C205 1.396 . S
C206 C207 1.394 . S
C207 C203 1.397 . S
C207 C206 1.394 . S
C207 C217 1.723 . S
C208 C205 1.453 . S
C208 H232 0.982 . S
C208 H233 0.979 . S
C208 H234 0.977 . S
C209 C205 1.684 . S
C209 H235 0.979 . S
C209 H236 0.980 . S
C209 H237 0.983 . S
C210 H186 0.948 . S
C210 C211 1.391 . S
C210 C215 1.391 . S
C211 C210 1.391 . S
C211 C212 1.391 . S
C212 H189 0.947 . S
C212 C211 1.391 . S
C212 C213 1.392 . S
C213 H190 0.948 . S
C213 C212 1.392 . S
C213 C214 1.419 . S
C214 C213 1.419 . S
C214 C215 1.391 . S
C214 C218 1.397 . S
C215 C210 1.391 . S
C215 C214 1.391 . S
C215 C216 1.399 . S
C216 C215 1.399 . S
C216 C217 1.396 . S
C216 C219 1.453 . S
C216 C220 1.684 . S
C217 C207 1.723 . S
C217 C216 1.396 . S
C217 C218 1.394 . S
C218 C188 1.723 . S
C218 C214 1.397 . S
C218 C217 1.394 . S
C219 H191 0.982 . S
C219 H195 0.979 . S
C219 H196 0.977 . S
C219 C216 1.453 . S
C220 H192 0.979 . S
C220 H193 0.980 . S
C220 H194 0.983 . S
C220 C216 1.684 . S
H221 C239 0.948 . S
H222 C180 0.948 . S
H223 C198 0.979 . S
H224 C198 0.980 . S
H225 C198 0.983 . S
H226 C197 0.982 . S
H227 C197 0.979 . S
H228 C197 0.977 . S
H229 C199 0.948 . S
H230 C201 0.947 . S
H231 C202 0.948 . S
H232 C208 0.982 . S
H233 C208 0.979 . S
H234 C208 0.977 . S
H235 C209 0.979 . S
H236 C209 0.980 . S
H237 C209 0.983 . S
H238 C182 0.947 . S
C239 C182 1.392 . S
C239 C183 1.419 . S
C239 H221 0.948 . S
C240 C241 1.391 . S
C240 C244 1.391 . S
C240 H282 0.948 . S
C241 C240 1.391 . S
C241 C242 1.391 . S
C242 C241 1.391 . S
C242 H298 0.947 . S
C242 C299 1.392 . S
C243 C244 1.391 . S
C243 C247 1.397 . S
C243 C299 1.419 . S
C244 C240 1.391 . S
C244 C243 1.391 . S
C244 C245 1.399 . S
C245 C244 1.399 . S
C245 C248 1.396 . S
C245 C257 1.453 . S
C245 C258 1.684 . S
H246 C270 0.948 . S
C247 C243 1.397 . S
C247 C248 1.394 . S
C247 C266 1.723 . S
C248 C245 1.396 . S
C248 C247 1.394 . S
C248 C278 1.723 1_455 S
H249 C272 0.947 . S
H250 C273 0.948 . S
H251 C279 0.982 . S
H252 C280 0.979 . S
H253 C280 0.980 . S
H254 C280 0.983 . S
H255 C279 0.979 . S
H256 C279 0.977 . S
C257 C245 1.453 . S
C257 H286 0.977 . S
C257 H287 0.979 . S
C257 H288 0.977 1_455 S
C258 C245 1.684 . S
C258 H283 0.979 . S
C258 H284 0.980 . S
C258 H285 0.983 . S
C259 C260 1.391 . S
C259 C264 1.391 . S
C259 H289 0.948 . S
C260 C259 1.391 . S
C260 C261 1.391 1_455 S
C261 C260 1.391 1_655 S
C261 C262 1.392 . S
C261 H290 0.947 . S
C262 C261 1.392 . S
C262 C263 1.419 . S
C262 H291 0.948 . S
C263 C262 1.419 . S
C263 C264 1.391 1_655 S
C263 C267 1.402 . S
C264 C259 1.391 . S
C264 C263 1.391 1_455 S
C264 C265 1.399 . S
C265 C264 1.399 . S
C265 C266 1.396 . S
C265 C268 1.453 . S
C265 C269 1.684 . S
C266 C247 1.723 . S
C266 C265 1.396 . S
C266 C267 1.359 1_455 S
C267 C263 1.402 . S
C267 C266 1.359 1_655 S
C267 C277 1.751 . S
C268 C265 1.453 . S
C268 H292 0.982 . S
C268 H293 0.979 . S
C268 H294 0.977 . S
C269 C265 1.684 . S
C269 H295 0.979 . S
C269 H296 0.980 . S
C269 H297 0.983 . S
C270 H246 0.948 . S
C270 C271 1.391 . S
C270 C275 1.391 . S
C271 C270 1.391 . S
C271 C272 1.391 . S
C272 H249 0.947 . S
C272 C271 1.391 . S
C272 C273 1.392 . S
C273 H250 0.948 . S
C273 C272 1.392 . S
C273 C274 1.419 . S
C274 C273 1.419 . S
C274 C275 1.391 . S
C274 C278 1.397 . S
C275 C270 1.391 . S
C275 C274 1.391 . S
C275 C276 1.399 . S
C276 C275 1.399 . S
C276 C277 1.396 . S
C276 C279 1.453 . S
C276 C280 1.684 . S
C277 C267 1.751 . S
C277 C276 1.396 . S
C277 C278 1.394 . S
C278 C248 1.723 1_655 S
C278 C274 1.397 . S
C278 C277 1.394 . S
C279 H251 0.982 . S
C279 H255 0.979 . S
C279 H256 0.977 . S
C279 C276 1.453 . S
C280 H252 0.979 . S
C280 H253 0.980 . S
C280 H254 0.983 . S
C280 C276 1.684 . S
H281 C299 0.948 . S
H282 C240 0.948 . S
H283 C258 0.979 . S
H284 C258 0.980 . S
H285 C258 0.983 . S
H286 C257 0.977 . S
H287 C257 0.979 . S
H288 C257 0.977 1_655 S
H289 C259 0.948 . S
H290 C261 0.947 . S
H291 C262 0.948 . S
H292 C268 0.982 . S
H293 C268 0.979 . S
H294 C268 0.977 . S
H295 C269 0.979 . S
H296 C269 0.980 . S
H297 C269 0.983 . S
H298 C242 0.947 . S
C299 C242 1.392 . S
C299 C243 1.419 . S
C299 H281 0.948 . S
C300 C301 1.391 . S
C300 C304 1.391 . S
C300 H342 0.948 . S
C301 C300 1.391 . S
C301 C302 1.391 . S
C302 C301 1.391 . S
C302 H358 0.947 . S
C302 C359 1.392 . S
C303 C304 1.391 . S
C303 C307 1.397 1_655 S
C303 C359 1.419 . S
C304 C300 1.391 . S
C304 C303 1.391 . S
C304 C305 1.399 1_655 S
C305 C304 1.399 1_455 S
C305 C308 1.396 . S
C305 C317 1.453 . S
C305 C318 1.684 . S
H306 C330 0.948 . S
C307 C303 1.397 1_455 S
C307 C308 1.394 . S
C307 C326 1.723 . S
C308 C305 1.396 . S
C308 C307 1.394 . S
C308 C338 1.723 . S
H309 C332 0.947 . S
H310 C333 0.948 . S
H311 C339 0.982 . S
H312 C340 0.979 . S
H313 C340 0.980 . S
H314 C340 0.983 . S
H315 C339 0.979 . S
H316 C339 0.977 . S
C317 C305 1.453 . S
C317 H346 0.982 . S
C317 H347 0.979 . S
C317 H348 0.977 . S
C318 C305 1.684 . S
C318 H343 0.972 1_455 S
C318 H344 0.980 . S
C318 H345 0.983 . S
C319 C320 1.391 . S
C319 C324 1.391 . S
C319 H349 0.948 1_455 S
C320 C319 1.391 . S
C320 C321 1.391 . S
C321 C320 1.391 . S
C321 C322 1.392 . S
C321 H350 0.947 . S
C322 C321 1.392 . S
C322 C323 1.419 . S
C322 H351 0.948 . S
C323 C322 1.419 . S
C323 C324 1.391 . S
C323 C327 1.397 . S
C324 C319 1.391 . S
C324 C323 1.391 . S
C324 C325 1.399 1_455 S
C325 C324 1.399 1_655 S
C325 C326 1.396 1_655 S
C325 C328 1.453 . S
C325 C329 1.684 . S
C326 C307 1.723 . S
C326 C325 1.396 1_455 S
C326 C327 1.394 . S
C327 C323 1.397 . S
C327 C326 1.394 . S
C327 C337 1.723 . S
C328 C325 1.453 . S
C328 H352 0.982 1_655 S
C328 H353 0.979 . S
C328 H354 0.977 . S
C329 C325 1.684 . S
C329 H355 0.979 . S
C329 H356 0.980 . S
C329 H357 0.983 . S
C330 H306 0.948 . S
C330 C331 1.391 . S
C330 C335 1.391 . S
C331 C330 1.391 . S
C331 C332 1.391 . S
C332 H309 0.947 . S
C332 C331 1.391 . S
C332 C333 1.392 . S
C333 H310 0.948 . S
C333 C332 1.392 . S
C333 C334 1.419 . S
C334 C333 1.419 . S
C334 C335 1.391 . S
C334 C338 1.397 . S
C335 C330 1.391 . S
C335 C334 1.391 . S
C335 C336 1.399 . S
C336 C335 1.399 . S
C336 C337 1.396 . S
C336 C339 1.453 . S
C336 C340 1.684 . S
C337 C327 1.723 . S
C337 C336 1.396 . S
C337 C338 1.394 . S
C338 C308 1.723 . S
C338 C334 1.397 . S
C338 C337 1.394 . S
C339 H311 0.982 . S
C339 H315 0.979 . S
C339 H316 0.977 . S
C339 C336 1.453 . S
C340 H312 0.979 . S
C340 H313 0.980 . S
C340 H314 0.983 . S
C340 C336 1.684 . S
H341 C359 0.948 . S
H342 C300 0.948 . S
H343 C318 0.972 1_655 S
H344 C318 0.980 . S
H345 C318 0.983 . S
H346 C317 0.982 . S
H347 C317 0.979 . S
H348 C317 0.977 . S
H349 C319 0.948 1_655 S
H350 C321 0.947 . S
H351 C322 0.948 . S
H352 C328 0.982 1_455 S
H353 C328 0.979 . S
H354 C328 0.977 . S
H355 C329 0.979 . S
H356 C329 0.980 . S
H357 C329 0.983 . S
H358 C302 0.947 . S
C359 C302 1.392 . S
C359 C303 1.419 . S
C359 H341 0.948 . S
C360 C361 1.391 . S
C360 C364 1.391 . S
C360 H402 0.948 . S
C361 C360 1.391 . S
C361 C362 1.391 . S
C362 C361 1.391 . S
C362 H418 0.947 . S
C362 C419 1.392 . S
C363 C364 1.391 . S
C363 C367 1.397 . S
C363 C419 1.419 . S
C364 C360 1.391 . S
C364 C363 1.391 . S
C364 C365 1.399 . S
C365 C364 1.399 . S
C365 C368 1.396 . S
C365 C377 1.453 . S
C365 C378 1.684 . S
H366 C390 0.948 . S
C367 C363 1.397 . S
C367 C368 1.394 . S
C367 C386 1.723 . S
C368 C365 1.396 . S
C368 C367 1.394 . S
C368 C398 1.723 1_565 S
H369 C392 0.947 . S
H370 C393 0.948 . S
H371 C399 0.982 . S
H372 C400 0.979 . S
H373 C400 0.980 . S
H374 C400 0.983 . S
H375 C399 0.979 . S
H376 C399 0.977 . S
C377 C365 1.453 . S
C377 H406 0.982 1_565 S
C377 H407 0.979 . S
C377 H408 0.977 1_565 S
C378 C365 1.684 . S
C378 H403 0.979 . S
C378 H404 0.980 . S
C378 H405 0.983 . S
C379 C380 1.391 1_565 S
C379 C384 1.391 . S
C379 H409 0.948 . S
C380 C379 1.391 1_545 S
C380 C381 1.391 . S
C381 C380 1.391 . S
C381 C382 1.392 . S
C381 H410 0.947 . S
C382 C381 1.392 . S
C382 C383 1.419 . S
C382 H411 0.948 . S
C383 C382 1.419 . S
C383 C384 1.391 1_545 S
C383 C387 1.397 . S
C384 C379 1.391 . S
C384 C383 1.391 1_565 S
C384 C385 1.399 . S
C385 C384 1.399 . S
C385 C386 1.396 . S
C385 C388 1.453 . S
C385 C389 1.684 . S
C386 C367 1.723 . S
C386 C385 1.396 . S
C386 C387 1.394 1_565 S
C387 C383 1.397 . S
C387 C386 1.394 1_545 S
C387 C397 1.723 . S
C388 C385 1.453 . S
C388 H412 0.982 . S
C388 H413 0.979 . S
C388 H414 0.977 . S
C389 C385 1.684 . S
C389 H415 0.979 . S
C389 H416 0.980 . S
C389 H417 0.983 . S
C390 H366 0.948 . S
C390 C391 1.391 . S
C390 C395 1.391 . S
C391 C390 1.391 . S
C391 C392 1.391 . S
C392 H369 0.947 . S
C392 C391 1.391 . S
C392 C393 1.392 . S
C393 H370 0.948 . S
C393 C392 1.392 . S
C393 C394 1.419 . S
C394 C393 1.419 . S
C394 C395 1.391 . S
C394 C398 1.397 . S
C395 C390 1.391 . S
C395 C394 1.391 . S
C395 C396 1.399 . S
C396 C395 1.399 . S
C396 C397 1.396 . S
C396 C399 1.453 . S
C396 C400 1.684 . S
C397 C387 1.723 . S
C397 C396 1.396 . S
C397 C398 1.394 . S
C398 C368 1.723 1_545 S
C398 C394 1.397 . S
C398 C397 1.394 . S
C399 H371 0.982 . S
C399 H375 0.979 . S
C399 H376 0.977 . S
C399 C396 1.453 . S
C400 H372 0.979 . S
C400 H373 0.980 . S
C400 H374 0.983 . S
C400 C396 1.684 . S
H401 C419 0.948 . S
H402 C360 0.948 . S
H403 C378 0.979 . S
H404 C378 0.980 . S
H405 C378 0.983 . S
H406 C377 0.982 1_545 S
H407 C377 0.979 . S
H408 C377 0.977 1_545 S
H409 C379 0.948 . S
H410 C381 0.947 . S
H411 C382 0.948 . S
H412 C388 0.982 . S
H413 C388 0.979 . S
H414 C388 0.977 . S
H415 C389 0.979 . S
H416 C389 0.980 . S
H417 C389 0.983 . S
H418 C362 0.947 . S
C419 C362 1.392 . S
C419 C363 1.419 . S
C419 H401 0.948 . S
C420 C421 1.391 . S
C420 C424 1.391 . S
C420 H462 0.948 . S
C421 C420 1.391 . S
C421 C422 1.391 . S
C422 C421 1.391 . S
C422 H478 0.947 . S
C422 C479 1.392 . S
C423 C424 1.391 . S
C423 C427 1.397 . S
C423 C479 1.419 . S
C424 C420 1.391 . S
C424 C423 1.391 . S
C424 C425 1.399 . S
C425 C424 1.399 . S
C425 C428 1.396 . S
C425 C437 1.453 . S
C425 C438 1.684 . S
H426 C450 0.948 . S
C427 C423 1.397 . S
C427 C428 1.394 . S
C427 C446 1.723 . S
C428 C425 1.396 . S
C428 C427 1.394 . S
C428 C458 1.723 . S
H429 C452 0.947 . S
H430 C453 0.948 . S
H431 C459 0.982 . S
H432 C460 0.979 . S
H433 C460 0.980 . S
H434 C460 0.983 . S
H435 C459 0.979 . S
H436 C459 0.977 . S
C437 C425 1.453 . S
C437 H466 0.982 . S
C437 H467 0.979 . S
C437 H468 0.977 . S
C438 C425 1.684 . S
C438 H463 0.979 . S
C438 H464 0.980 . S
C438 H465 0.983 . S
C439 C440 1.391 . S
C439 C444 1.391 . S
C439 H469 0.948 . S
C440 C439 1.391 . S
C440 C441 1.391 . S
C441 C440 1.391 . S
C441 C442 1.392 . S
C441 H470 0.947 . S
C442 C441 1.392 . S
C442 C443 1.419 . S
C442 H471 0.948 . S
C443 C442 1.419 . S
C443 C444 1.391 . S
C443 C447 1.397 . S
C444 C439 1.391 . S
C444 C443 1.391 . S
C444 C445 1.399 . S
C445 C444 1.399 . S
C445 C446 1.396 . S
C445 C448 1.453 . S
C445 C449 1.684 . S
C446 C427 1.723 . S
C446 C445 1.396 . S
C446 C447 1.394 . S
C447 C443 1.397 . S
C447 C446 1.394 . S
C447 C457 1.723 . S
C448 C445 1.453 . S
C448 H472 0.982 . S
C448 H473 0.979 . S
C448 H474 0.977 . S
C449 C445 1.684 . S
C449 H475 0.979 . S
C449 H476 0.980 . S
C449 H477 0.983 . S
C450 H426 0.948 . S
C450 C451 1.391 . S
C450 C455 1.391 . S
C451 C450 1.391 . S
C451 C452 1.391 . S
C452 H429 0.947 . S
C452 C451 1.391 . S
C452 C453 1.392 . S
C453 H430 0.948 . S
C453 C452 1.392 . S
C453 C454 1.419 . S
C454 C453 1.419 . S
C454 C455 1.391 . S
C454 C458 1.397 . S
C455 C450 1.391 . S
C455 C454 1.391 . S
C455 C456 1.399 . S
C456 C455 1.399 . S
C456 C457 1.396 . S
C456 C459 1.453 . S
C456 C460 1.684 . S
C457 C447 1.723 . S
C457 C456 1.396 . S
C457 C458 1.394 . S
C458 C428 1.723 . S
C458 C454 1.397 . S
C458 C457 1.394 . S
C459 H431 0.982 . S
C459 H435 0.979 . S
C459 H436 0.977 . S
C459 C456 1.453 . S
C460 H432 0.979 . S
C460 H433 0.980 . S
C460 H434 0.983 . S
C460 C456 1.684 . S
H461 C479 0.948 . S
H462 C420 0.948 . S
H463 C438 0.979 . S
H464 C438 0.980 . S
H465 C438 0.983 . S
H466 C437 0.982 . S
H467 C437 0.979 . S
H468 C437 0.977 . S
H469 C439 0.948 . S
H470 C441 0.947 . S
H471 C442 0.948 . S
H472 C448 0.982 . S
H473 C448 0.979 . S
H474 C448 0.977 . S
H475 C449 0.979 . S
H476 C449 0.980 . S
H477 C449 0.983 . S
H478 C422 0.947 . S
C479 C422 1.392 . S
C479 C423 1.419 . S
C479 H461 0.948 . S
H480 C488 0.950 . S
H481 C493 0.950 . S
H482 C490 0.950 . S
H483 C492 0.950 . S
H484 C494 0.950 . S
H485 C496 0.950 . S
H486 C498 0.950 . S
H487 C499 0.950 . S
C488 H480 0.950 . S
C488 C489 1.386 . S
C488 C490 1.391 . S
C489 C488 1.386 . S
C489 C493 1.393 . S
C490 H482 0.950 . S
C490 C488 1.391 . S
C490 C491 1.400 . S
C491 C490 1.400 . S
C491 C492 1.398 . S
C491 C497 1.491 . S
C492 H483 0.950 . S
C492 C491 1.398 . S
C492 C493 1.391 . S
C493 H481 0.950 . S
C493 C489 1.393 . S
C493 C492 1.391 . S
C494 H484 0.950 . S
C494 C495 1.386 . S
C494 C496 1.391 . S
C495 C494 1.386 . S
C495 C499 1.393 . S
C496 H485 0.950 . S
C496 C494 1.391 . S
C496 C497 1.400 . S
C497 C491 1.491 . S
C497 C496 1.400 . S
C497 C498 1.398 . S
C498 H486 0.950 . S
C498 C497 1.398 . S
C498 C499 1.391 . S
C499 H487 0.950 . S
C499 C495 1.393 . S
C499 C498 1.391 . S
H500 C508 0.950 . S
H501 C513 0.950 . S
H502 C510 0.950 . S
H503 C512 0.950 . S
H504 C514 0.950 . S
H505 C516 0.950 . S
H506 C518 0.950 . S
H507 C519 0.950 . S
C508 H500 0.950 . S
C508 C509 1.386 . S
C508 C510 1.391 . S
C509 C508 1.386 . S
C509 C513 1.393 . S
C510 H502 0.950 . S
C510 C508 1.391 . S
C510 C511 1.400 . S
C511 C510 1.400 . S
C511 C512 1.398 . S
C511 C517 1.491 . S
C512 H503 0.950 . S
C512 C511 1.398 . S
C512 C513 1.391 . S
C513 H501 0.950 . S
C513 C509 1.393 . S
C513 C512 1.391 . S
C514 H504 0.950 . S
C514 C515 1.386 . S
C514 C516 1.391 . S
C515 C514 1.386 . S
C515 C519 1.393 . S
C516 H505 0.950 . S
C516 C514 1.391 . S
C516 C517 1.400 . S
C517 C511 1.491 . S
C517 C516 1.400 . S
C517 C518 1.398 . S
C518 H506 0.950 . S
C518 C517 1.398 . S
C518 C519 1.391 . S
C519 H507 0.950 . S
C519 C515 1.393 . S
C519 C518 1.391 . S
H520 C528 0.950 . S
H521 C533 0.950 . S
H522 C530 0.950 . S
H523 C532 0.950 . S
H524 C534 0.950 . S
H525 C536 0.950 . S
H526 C538 0.950 . S
H527 C539 0.950 . S
C528 H520 0.950 . S
C528 C529 1.386 . S
C528 C530 1.391 . S
C529 C528 1.386 . S
C529 C533 1.393 . S
C530 H522 0.950 . S
C530 C528 1.391 . S
C530 C531 1.400 . S
C531 C530 1.400 . S
C531 C532 1.398 . S
C531 C537 1.491 . S
C532 H523 0.950 . S
C532 C531 1.398 . S
C532 C533 1.391 . S
C533 H521 0.950 . S
C533 C529 1.393 . S
C533 C532 1.391 . S
C534 H524 0.950 . S
C534 C535 1.386 . S
C534 C536 1.391 . S
C535 C534 1.386 . S
C535 C539 1.393 . S
C536 H525 0.950 . S
C536 C534 1.391 . S
C536 C537 1.400 . S
C537 C531 1.491 . S
C537 C536 1.400 . S
C537 C538 1.398 . S
C538 H526 0.950 . S
C538 C537 1.398 . S
C538 C539 1.391 . S
C539 H527 0.950 . S
C539 C535 1.393 . S
C539 C538 1.391 . S
H540 C548 0.950 . S
H541 C553 0.950 . S
H542 C550 0.950 . S
H543 C552 0.950 . S
H544 C554 0.950 . S
H545 C556 0.950 . S
H546 C558 0.950 . S
H547 C559 0.950 . S
C548 H540 0.950 . S
C548 C549 1.386 . S
C548 C550 1.391 . S
C549 C548 1.386 . S
C549 C553 1.393 . S
C550 H542 0.950 . S
C550 C548 1.391 . S
C550 C551 1.400 . S
C551 C550 1.400 . S
C551 C552 1.398 . S
C551 C557 1.491 . S
C552 H543 0.950 . S
C552 C551 1.398 . S
C552 C553 1.391 . S
C553 H541 0.950 . S
C553 C549 1.393 . S
C553 C552 1.391 . S
C554 H544 0.950 . S
C554 C555 1.386 . S
C554 C556 1.391 . S
C555 C554 1.386 . S
C555 C559 1.393 . S
C556 H545 0.950 . S
C556 C554 1.391 . S
C556 C557 1.400 . S
C557 C551 1.491 . S
C557 C556 1.400 . S
C557 C558 1.398 . S
C558 H546 0.950 . S
C558 C557 1.398 . S
C558 C559 1.391 . S
C559 H547 0.950 . S
C559 C555 1.393 . S
C559 C558 1.391 . S
H560 C568 0.950 . S
H561 C573 0.950 . S
H562 C570 0.950 . S
H563 C572 0.950 . S
H564 C574 0.950 . S
H565 C576 0.950 . S
H566 C578 0.950 . S
H567 C579 0.950 . S
C568 H560 0.950 . S
C568 C569 1.386 . S
C568 C570 1.391 . S
C569 C568 1.386 . S
C569 C573 1.393 . S
C570 H562 0.950 . S
C570 C568 1.391 . S
C570 C571 1.400 . S
C571 C570 1.400 . S
C571 C572 1.398 . S
C571 C577 1.491 . S
C572 H563 0.950 . S
C572 C571 1.398 . S
C572 C573 1.391 . S
C573 H561 0.950 . S
C573 C569 1.393 . S
C573 C572 1.391 . S
C574 H564 0.950 . S
C574 C575 1.386 . S
C574 C576 1.391 . S
C575 C574 1.386 . S
C575 C579 1.393 . S
C576 H565 0.950 . S
C576 C574 1.391 . S
C576 C577 1.400 . S
C577 C571 1.491 . S
C577 C576 1.400 . S
C577 C578 1.398 . S
C578 H566 0.950 . S
C578 C577 1.398 . S
C578 C579 1.391 . S
C579 H567 0.950 . S
C579 C575 1.393 . S
C579 C578 1.391 . S
H580 C588 0.950 . S
H581 C593 0.950 . S
H582 C590 0.950 . S
H583 C592 0.950 . S
H584 C594 0.950 . S
H585 C596 0.950 . S
H586 C598 0.950 . S
H587 C599 0.950 . S
C588 H580 0.950 . S
C588 C589 1.386 . S
C588 C590 1.391 . S
C589 C588 1.386 . S
C589 C593 1.393 . S
C590 H582 0.950 . S
C590 C588 1.391 . S
C590 C591 1.400 . S
C591 C590 1.400 . S
C591 C592 1.398 . S
C591 C597 1.491 . S
C592 H583 0.950 . S
C592 C591 1.398 . S
C592 C593 1.391 . S
C593 H581 0.950 . S
C593 C589 1.393 . S
C593 C592 1.391 . S
C594 H584 0.950 . S
C594 C595 1.386 . S
C594 C596 1.391 . S
C595 C594 1.386 . S
C595 C599 1.393 . S
C596 H585 0.950 . S
C596 C594 1.391 . S
C596 C597 1.400 . S
C597 C591 1.491 . S
C597 C596 1.400 . S
C597 C598 1.398 . S
C598 H586 0.950 . S
C598 C597 1.398 . S
C598 C599 1.391 . S
C599 H587 0.950 . S
C599 C595 1.393 . S
C599 C598 1.391 . S
H600 C608 0.950 . S
H601 C613 0.950 . S
H602 C610 0.950 . S
H603 C612 0.950 . S
H604 C614 0.950 . S
H605 C616 0.950 . S
H606 C618 0.950 . S
H607 C619 0.950 . S
C608 H600 0.950 . S
C608 C609 1.386 . S
C608 C610 1.391 . S
C609 C608 1.386 . S
C609 C613 1.393 . S
C610 H602 0.950 . S
C610 C608 1.391 . S
C610 C611 1.400 . S
C611 C610 1.400 . S
C611 C612 1.398 . S
C611 C617 1.491 . S
C612 H603 0.950 . S
C612 C611 1.398 . S
C612 C613 1.391 . S
C613 H601 0.950 . S
C613 C609 1.393 . S
C613 C612 1.391 . S
C614 H604 0.950 . S
C614 C615 1.386 . S
C614 C616 1.391 . S
C615 C614 1.386 . S
C615 C619 1.393 . S
C616 H605 0.950 . S
C616 C614 1.391 . S
C616 C617 1.400 . S
C617 C611 1.491 . S
C617 C616 1.400 . S
C617 C618 1.398 . S
C618 H606 0.950 . S
C618 C617 1.398 . S
C618 C619 1.391 . S
C619 H607 0.950 . S
C619 C615 1.393 . S
C619 C618 1.391 . S
H620 C628 0.950 . S
H621 C633 0.950 . S
H622 C630 0.950 . S
H623 C632 0.950 . S
H624 C634 0.950 . S
H625 C636 0.950 . S
H626 C638 0.950 . S
H627 C639 0.950 . S
C628 H620 0.950 . S
C628 C629 1.386 . S
C628 C630 1.391 . S
C629 C628 1.386 . S
C629 C633 1.393 . S
C630 H622 0.950 . S
C630 C628 1.391 . S
C630 C631 1.400 . S
C631 C630 1.400 . S
C631 C632 1.398 . S
C631 C637 1.491 . S
C632 H623 0.950 . S
C632 C631 1.398 . S
C632 C633 1.391 . S
C633 H621 0.950 . S
C633 C629 1.393 . S
C633 C632 1.391 . S
C634 H624 0.950 . S
C634 C635 1.386 . S
C634 C636 1.391 . S
C635 C634 1.386 . S
C635 C639 1.393 . S
C636 H625 0.950 . S
C636 C634 1.391 . S
C636 C637 1.400 . S
C637 C631 1.491 . S
C637 C636 1.400 . S
C637 C638 1.398 . S
C638 H626 0.950 . S
C638 C637 1.398 . S
C638 C639 1.391 . S
C639 H627 0.950 . S
C639 C635 1.393 . S
C639 C638 1.391 . S
H640 C648 0.950 . S
H641 C653 0.950 . S
H642 C650 0.950 . S
H643 C652 0.950 . S
H644 C654 0.950 . S
H645 C656 0.950 . S
H646 C658 0.950 . S
H647 C659 0.950 . S
C648 H640 0.950 . S
C648 C649 1.386 . S
C648 C650 1.391 . S
C649 C648 1.386 . S
C649 C653 1.393 . S
C650 H642 0.950 . S
C650 C648 1.391 . S
C650 C651 1.400 . S
C651 C650 1.400 . S
C651 C652 1.398 . S
C651 C657 1.491 . S
C652 H643 0.950 . S
C652 C651 1.398 . S
C652 C653 1.391 . S
C653 H641 0.950 . S
C653 C649 1.393 . S
C653 C652 1.391 . S
C654 H644 0.950 . S
C654 C655 1.386 . S
C654 C656 1.391 . S
C655 C654 1.386 . S
C655 C659 1.393 . S
C656 H645 0.950 . S
C656 C654 1.391 . S
C656 C657 1.400 . S
C657 C651 1.491 . S
C657 C656 1.400 . S
C657 C658 1.398 . S
C658 H646 0.950 . S
C658 C657 1.398 . S
C658 C659 1.391 . S
C659 H647 0.950 . S
C659 C655 1.393 . S
C659 C658 1.391 . S
H660 C668 0.950 . S
H661 C673 0.950 . S
H662 C670 0.950 . S
H663 C672 0.950 . S
H664 C674 0.950 . S
H665 C676 0.950 . S
H666 C678 0.950 . S
H667 C679 0.950 . S
C668 H660 0.950 . S
C668 C669 1.386 . S
C668 C670 1.391 . S
C669 C668 1.386 . S
C669 C673 1.393 . S
C670 H662 0.950 . S
C670 C668 1.391 . S
C670 C671 1.400 . S
C671 C670 1.400 . S
C671 C672 1.398 . S
C671 C677 1.491 . S
C672 H663 0.950 . S
C672 C671 1.398 . S
C672 C673 1.391 . S
C673 H661 0.950 . S
C673 C669 1.393 . S
C673 C672 1.391 . S
C674 H664 0.950 . S
C674 C675 1.386 . S
C674 C676 1.391 . S
C675 C674 1.386 . S
C675 C679 1.393 . S
C676 H665 0.950 . S
C676 C674 1.391 . S
C676 C677 1.400 . S
C677 C671 1.491 . S
C677 C676 1.400 . S
C677 C678 1.398 . S
C678 H666 0.950 . S
C678 C677 1.398 . S
C678 C679 1.391 . S
C679 H667 0.950 . S
C679 C675 1.393 . S
C679 C678 1.391 . S
H680 C688 0.950 . S
H681 C693 0.950 . S
H682 C690 0.950 . S
H683 C692 0.950 . S
H684 C694 0.950 . S
H685 C696 0.950 . S
H686 C698 0.950 . S
H687 C699 0.950 . S
C688 H680 0.950 . S
C688 C689 1.386 . S
C688 C690 1.391 . S
C689 C688 1.386 . S
C689 C693 1.393 . S
C690 H682 0.950 . S
C690 C688 1.391 . S
C690 C691 1.400 . S
C691 C690 1.400 . S
C691 C692 1.398 . S
C691 C697 1.491 . S
C692 H683 0.950 . S
C692 C691 1.398 . S
C692 C693 1.391 . S
C693 H681 0.950 . S
C693 C689 1.393 . S
C693 C692 1.391 . S
C694 H684 0.950 . S
C694 C695 1.386 . S
C694 C696 1.391 . S
C695 C694 1.386 . S
C695 C699 1.393 . S
C696 H685 0.950 . S
C696 C694 1.391 . S
C696 C697 1.400 . S
C697 C691 1.491 . S
C697 C696 1.400 . S
C697 C698 1.398 . S
C698 H686 0.950 . S
C698 C697 1.398 . S
C698 C699 1.391 . S
C699 H687 0.950 . S
C699 C695 1.393 . S
C699 C698 1.391 . S
H700 C708 0.950 . S
H701 C713 0.950 . S
H702 C710 0.950 . S
H703 C712 0.950 . S
H704 C714 0.950 . S
H705 C716 0.950 . S
H706 C718 0.950 . S
H707 C719 0.950 . S
C708 H700 0.950 . S
C708 C709 1.386 . S
C708 C710 1.391 . S
C709 C708 1.386 . S
C709 C713 1.393 . S
C710 H702 0.950 . S
C710 C708 1.391 . S
C710 C711 1.400 . S
C711 C710 1.400 . S
C711 C712 1.398 . S
C711 C717 1.491 . S
C712 H703 0.950 . S
C712 C711 1.398 . S
C712 C713 1.391 . S
C713 H701 0.950 . S
C713 C709 1.393 . S
C713 C712 1.391 . S
C714 H704 0.950 . S
C714 C715 1.386 . S
C714 C716 1.391 . S
C715 C714 1.386 . S
C715 C719 1.393 . S
C716 H705 0.950 . S
C716 C714 1.391 . S
C716 C717 1.400 . S
C717 C711 1.491 . S
C717 C716 1.400 . S
C717 C718 1.398 . S
C718 H706 0.950 . S
C718 C717 1.398 . S
C718 C719 1.391 . S
C719 H707 0.950 . S
C719 C715 1.393 . S
C719 C718 1.391 . S
H720 C728 0.950 . S
H721 C733 0.950 . S
H722 C730 0.950 . S
H723 C732 0.950 . S
H724 C734 0.950 . S
H725 C736 0.950 . S
H726 C738 0.950 . S
H727 C739 0.950 . S
C728 H720 0.950 . S
C728 C729 1.386 . S
C728 C730 1.391 . S
C729 C728 1.386 . S
C729 C733 1.393 1_455 S
C730 H722 0.950 . S
C730 C728 1.391 . S
C730 C731 1.400 . S
C731 C730 1.400 . S
C731 C732 1.398 1_455 S
C731 C737 1.491 . S
C732 H723 0.950 . S
C732 C731 1.398 1_655 S
C732 C733 1.391 . S
C733 H721 0.950 . S
C733 C729 1.393 1_655 S
C733 C732 1.391 . S
C734 H724 0.950 . S
C734 C735 1.386 1_655 S
C734 C736 1.391 . S
C735 C734 1.386 1_455 S
C735 C739 1.393 . S
C736 H725 0.950 . S
C736 C734 1.391 . S
C736 C737 1.400 1_655 S
C737 C731 1.491 . S
C737 C736 1.400 1_455 S
C737 C738 1.398 . S
C738 H726 0.950 . S
C738 C737 1.398 . S
C738 C739 1.391 . S
C739 H727 0.950 . S
C739 C735 1.393 . S
C739 C738 1.391 . S
H740 C748 0.950 . S
H741 C753 0.950 . S
H742 C750 0.950 . S
H743 C752 0.950 . S
H744 C754 0.950 . S
H745 C756 0.950 . S
H746 C758 0.950 . S
H747 C759 0.950 . S
C748 H740 0.950 . S
C748 C749 1.386 . S
C748 C750 1.391 . S
C749 C748 1.386 . S
C749 C753 1.393 . S
C750 H742 0.950 . S
C750 C748 1.391 . S
C750 C751 1.400 . S
C751 C750 1.400 . S
C751 C752 1.398 . S
C751 C757 1.491 . S
C752 H743 0.950 . S
C752 C751 1.398 . S
C752 C753 1.391 . S
C753 H741 0.950 . S
C753 C749 1.393 . S
C753 C752 1.391 . S
C754 H744 0.950 . S
C754 C755 1.386 . S
C754 C756 1.391 . S
C755 C754 1.386 . S
C755 C759 1.393 . S
C756 H745 0.950 . S
C756 C754 1.391 . S
C756 C757 1.400 . S
C757 C751 1.491 . S
C757 C756 1.400 . S
C757 C758 1.398 . S
C758 H746 0.950 . S
C758 C757 1.398 . S
C758 C759 1.391 . S
C759 H747 0.950 . S
C759 C755 1.393 . S
C759 C758 1.391 . S
H760 C768 0.950 . S
H761 C773 0.950 . S
H762 C770 0.950 . S
H763 C772 0.950 . S
H764 C774 0.950 . S
H765 C776 0.950 . S
H766 C778 0.950 . S
H767 C779 0.950 . S
C768 H760 0.950 . S
C768 C769 1.386 . S
C768 C770 1.391 . S
C769 C768 1.386 . S
C769 C773 1.393 . S
C770 H762 0.950 . S
C770 C768 1.391 . S
C770 C771 1.400 . S
C771 C770 1.400 . S
C771 C772 1.398 . S
C771 C777 1.491 . S
C772 H763 0.950 . S
C772 C771 1.398 . S
C772 C773 1.391 . S
C773 H761 0.950 . S
C773 C769 1.393 . S
C773 C772 1.391 . S
C774 H764 0.950 . S
C774 C775 1.386 . S
C774 C776 1.391 . S
C775 C774 1.386 . S
C775 C779 1.393 . S
C776 H765 0.950 . S
C776 C774 1.391 . S
C776 C777 1.400 . S
C777 C771 1.491 . S
C777 C776 1.400 . S
C777 C778 1.398 . S
C778 H766 0.950 . S
C778 C777 1.398 . S
C778 C779 1.391 . S
C779 H767 0.950 . S
C779 C775 1.393 . S
C779 C778 1.391 . S
H780 C788 0.950 . S
H781 C793 0.950 . S
H782 C790 0.950 . S
H783 C792 0.950 . S
H784 C794 0.950 1_565 S
H785 C796 0.950 . S
H786 C798 0.950 . S
H787 C799 0.950 . S
C788 H780 0.950 . S
C788 C789 1.386 . S
C788 C790 1.391 . S
C789 C788 1.386 . S
C789 C793 1.393 . S
C790 H782 0.950 . S
C790 C788 1.391 . S
C790 C791 1.400 . S
C791 C790 1.400 . S
C791 C792 1.398 . S
C791 C797 1.491 . S
C792 H783 0.950 . S
C792 C791 1.398 . S
C792 C793 1.391 . S
C793 H781 0.950 . S
C793 C789 1.393 . S
C793 C792 1.391 . S
C794 H784 0.950 1_545 S
C794 C795 1.386 . S
C794 C796 1.391 . S
C795 C794 1.386 . S
C795 C799 1.393 . S
C796 H785 0.950 . S
C796 C794 1.391 . S
C796 C797 1.400 . S
C797 C791 1.491 . S
C797 C796 1.400 . S
C797 C798 1.398 . S
C798 H786 0.950 . S
C798 C797 1.398 . S
C798 C799 1.391 . S
C799 H787 0.950 . S
C799 C795 1.393 . S
C799 C798 1.391 . S
H800 C808 0.950 . S
H801 C813 0.950 . S
H802 C810 0.950 . S
H803 C812 0.950 . S
H804 C814 0.950 . S
H805 C816 0.950 . S
H806 C818 0.950 . S
H807 C819 0.950 . S
C808 H800 0.950 . S
C808 C809 1.386 . S
C808 C810 1.391 . S
C809 C808 1.386 . S
C809 C813 1.393 . S
C810 H802 0.950 . S
C810 C808 1.391 . S
C810 C811 1.400 . S
C811 C810 1.400 . S
C811 C812 1.398 . S
C811 C817 1.491 . S
C812 H803 0.950 . S
C812 C811 1.398 . S
C812 C813 1.391 . S
C813 H801 0.950 . S
C813 C809 1.393 . S
C813 C812 1.391 . S
C814 H804 0.950 . S
C814 C815 1.397 . S
C814 C816 1.391 . S
C815 C814 1.397 . S
C815 C819 1.407 . S
C816 H805 0.950 . S
C816 C814 1.391 . S
C816 C817 1.400 . S
C817 C811 1.491 . S
C817 C816 1.400 . S
C817 C818 1.398 . S
C818 H806 0.950 . S
C818 C817 1.398 . S
C818 C819 1.391 . S
C819 H807 0.950 . S
C819 C815 1.407 . S
C819 C818 1.391 . S
H820 C828 0.950 . S
H821 C833 0.950 . S
H822 C830 0.934 1_655 S
H823 C832 0.950 . S
H824 C834 0.950 . S
H825 C836 0.950 . S
H826 C838 0.950 1_655 S
H827 C839 0.950 1_655 S
C828 H820 0.950 . S
C828 C829 1.386 1_655 S
C828 C830 1.390 1_655 S
C829 C828 1.386 1_455 S
C829 C833 1.393 . S
C830 H822 0.934 1_455 S
C830 C828 1.390 1_455 S
C830 C831 1.417 . S
C831 C830 1.417 . S
C831 C832 1.398 . S
C831 C837 1.491 . S
C832 H823 0.950 . S
C832 C831 1.398 . S
C832 C833 1.391 . S
C833 H821 0.950 . S
C833 C829 1.393 . S
C833 C832 1.391 . S
C834 H824 0.950 . S
C834 C835 1.386 . S
C834 C836 1.391 . S
C835 C834 1.386 . S
C835 C839 1.393 . S
C836 H825 0.950 . S
C836 C834 1.391 . S
C836 C837 1.400 . S
C837 C831 1.491 . S
C837 C836 1.400 . S
C837 C838 1.398 . S
C838 H826 0.950 1_455 S
C838 C837 1.398 . S
C838 C839 1.391 . S
C839 H827 0.950 1_455 S
C839 C835 1.393 . S
C839 C838 1.391 . S
C489 C10 3.009 . S
C495 C451 3.024 . S
C509 C59 3.095 . S
C515 C301 2.932 . S
C529 C90 3.010 . S
C535 C361 2.866 . S
C549 C19 3.093 . S
C555 C421 2.928 . S
C575 C331 3.024 . S
C569 C50 3.009 . S
C595 C391 3.090 . S
C589 C99 3.093 . S
C609 C46 0.418 . S
C615 C181 0.478 . S
C629 C95 0.429 . S
C635 C271 0.343 . S
C649 C6 0.431 . S
C655 C151 0.378 . S
C675 C211 0.316 . S
C669 C55 0.361 . S
C695 C241 0.498 . S
C689 C86 0.465 . S
C709 C15 0.432 . S
C715 C121 0.367 . S
C735 C260 1.041 1_554 S
C729 C9 1.067 . S
C749 C49 1.048 . S
C755 C140 1.071 . S
C769 C89 1.063 . S
C775 C200 1.052 . S
C795 C380 1.771 . S
C789 C58 1.704 . S
C815 C440 1.749 1_556 S
C809 C98 1.724 . S
C829 C18 1.699 . S
C835 C320 1.759 . S
