# Generated by pormake.
# Topology anh, (6,3)-cn, num edge types: 1
# Building blocks:
#     Node 0, Type 0, BuildingBlock: BETDAH_clean_sbu_0, # of connection points: 6
#     Node 1, Type 0, BuildingBlock: BETDAH_clean_sbu_0, # of connection points: 6
#     Node 2, Type 0, BuildingBlock: BETDAH_clean_sbu_0, # of connection points: 6
#     Node 3, Type 1, BuildingBlock: QEWDON_clean_linker_0, # of connection points: 3
#     Node 4, Type 1, BuildingBlock: QEWDON_clean_linker_0, # of connection points: 3
#     Node 5, Type 1, BuildingBlock: QEWDON_clean_linker_0, # of connection points: 3
#     Node 6, Type 1, BuildingBlock: QEWDON_clean_linker_0, # of connection points: 3
#     Node 7, Type 1, BuildingBlock: QEWDON_clean_linker_0, # of connection points: 3
#     Node 8, Type 1, BuildingBlock: QEWDON_clean_linker_0, # of connection points: 3
#     Edge 9, Type (0, 1), BuildingBlock: CIFDUS_clean_linker_0, # of connection points: 2
#     Edge 10, Type (0, 1), BuildingBlock: CIFDUS_clean_linker_0, # of connection points: 2
#     Edge 11, Type (0, 1), BuildingBlock: CIFDUS_clean_linker_0, # of connection points: 2
#     Edge 12, Type (0, 1), BuildingBlock: CIFDUS_clean_linker_0, # of connection points: 2
#     Edge 13, Type (0, 1), BuildingBlock: CIFDUS_clean_linker_0, # of connection points: 2
#     Edge 14, Type (0, 1), BuildingBlock: CIFDUS_clean_linker_0, # of connection points: 2
#     Edge 15, Type (0, 1), BuildingBlock: CIFDUS_clean_linker_0, # of connection points: 2
#     Edge 16, Type (0, 1), BuildingBlock: CIFDUS_clean_linker_0, # of connection points: 2
#     Edge 17, Type (0, 1), BuildingBlock: CIFDUS_clean_linker_0, # of connection points: 2
#     Edge 18, Type (0, 1), BuildingBlock: CIFDUS_clean_linker_0, # of connection points: 2
#     Edge 19, Type (0, 1), BuildingBlock: CIFDUS_clean_linker_0, # of connection points: 2
#     Edge 20, Type (0, 1), BuildingBlock: CIFDUS_clean_linker_0, # of connection points: 2
#     Edge 21, Type (0, 1), BuildingBlock: CIFDUS_clean_linker_0, # of connection points: 2
#     Edge 22, Type (0, 1), BuildingBlock: CIFDUS_clean_linker_0, # of connection points: 2
#     Edge 23, Type (0, 1), BuildingBlock: CIFDUS_clean_linker_0, # of connection points: 2
#     Edge 24, Type (0, 1), BuildingBlock: CIFDUS_clean_linker_0, # of connection points: 2
#     Edge 25, Type (0, 1), BuildingBlock: CIFDUS_clean_linker_0, # of connection points: 2
#     Edge 26, Type (0, 1), BuildingBlock: CIFDUS_clean_linker_0, # of connection points: 2
# Relax obj value: 0.155
# Max RMSD: 0.187
# Mean RMSD: 0.127
data_MOF--net-anh--node1-BETDAH_clean_sbu_0--node2-QEWDON_clean_linker_0--edge1-CIFDUS_clean_linker_0
_symmetry_space_group_name_H-M    P1
_symmetry_Int_Tables_number       1
_symmetry_cell_setting            triclinic
loop_
_symmetry_equiv_pos_as_xyz
'x, y, z'
_cell_length_a     29.853052
_cell_length_b     35.740097
_cell_length_c     42.291278
_cell_angle_alpha  96.251431
_cell_angle_beta   92.425198
_cell_angle_gamma 130.76817
loop_
_atom_site_label
_atom_site_type_symbol
_atom_site_fract_x
_atom_site_fract_y
_atom_site_fract_z
_atom_type_partial_charge
Ho0 Ho 0.12794 0.53124 0.14582 0.0
Ho1 Ho 1.05538 0.55777 0.16129 0.0
C2 C 0.19218 0.65088 0.16271 0.0
C3 C 0.20854 0.5326 0.12522 0.0
C4 C 0.27275 0.57097 0.13717 0.0
C5 C 0.31459 0.5757 0.11985 0.0
C6 C 0.37549 0.61175 0.13235 0.0
C7 C 0.39504 0.64335 0.16231 0.0
C8 C 0.35297 0.63953 0.17898 0.0
C9 C 0.29235 0.60374 0.16645 0.0
C10 C 0.12183 0.5439 0.20929 0.0
C11 C 0.9905 0.43852 0.14624 0.0
C12 C 0.97642 0.55594 0.18491 0.0
C13 C 0.91086 0.51774 0.17618 0.0
C14 C 0.87424 0.4929 0.19949 0.0
C15 C 0.81193 0.45657 0.19101 0.0
C16 C 0.78512 0.44504 0.15911 0.0
C17 C 0.82275 0.46795 0.13561 0.0
C18 C 0.88457 0.50345 0.14399 0.0
C19 C 1.06553 0.55041 0.09823 0.0
O20 O 0.19358 0.61705 0.14768 0.0
O21 O 0.14399 0.63599 0.17502 0.0
O22 O 0.17589 0.50516 0.14615 0.0
O23 O 0.1862 0.54854 0.11027 0.0
O24 O 0.12339 0.51088 0.19517 0.0
O25 O 0.12776 0.5702 0.18966 0.0
O26 O 0.98957 0.47352 0.1587 0.0
O27 O 1.03885 0.45103 0.13532 0.0
O28 O 1.0064 0.58289 0.16307 0.0
O29 O 1.00064 0.54072 0.19876 0.0
O30 O 1.06348 0.58247 0.11378 0.0
O31 O 1.05726 0.52091 0.11618 0.0
H32 H 0.30015 0.55097 0.09712 0.0
H33 H 0.40701 0.61347 0.11923 0.0
H34 H 0.36687 0.66348 0.20201 0.0
H35 H 0.26052 0.60092 0.17999 0.0
H36 H 0.89379 0.50215 0.22432 0.0
H37 H 0.78487 0.43909 0.20971 0.0
H38 H 0.80498 0.46129 0.11083 0.0
H39 H 0.9116 0.52066 0.1252 0.0
Ho40 Ho 0.68886 0.06327 0.47997 0.0
Ho41 Ho 0.61978 0.09298 0.46171 0.0
C42 C 0.54398 0.97594 0.45953 0.0
C43 C 0.72955 0.0258 0.50479 0.0
C44 C 0.70976 0.97534 0.5031 0.0
C45 C 0.65487 0.93555 0.51213 0.0
C46 C 0.63667 0.88783 0.50938 0.0
C47 C 0.67267 0.87894 0.49725 0.0
C48 C 0.72769 0.91885 0.48855 0.0
C49 C 0.74616 0.9666 0.49163 0.0
C50 C 0.67923 0.06834 0.41693 0.0
C51 C 0.76605 0.18022 0.4807 0.0
C52 C 0.57691 0.12949 0.43808 0.0
C53 C 0.58535 0.1749 0.44697 0.0
C54 C 0.57363 0.19309 0.42326 0.0
C55 C 0.57688 0.23382 0.43173 0.0
C56 C 0.59152 0.25688 0.46417 0.0
C57 C 0.60526 0.23947 0.48773 0.0
C58 C 0.60246 0.19901 0.47919 0.0
C59 C 0.62989 0.08844 0.52471 0.0
O60 O 0.59219 0.98996 0.47702 0.0
O61 O 0.54716 1.00897 0.44562 0.0
O62 O 0.74447 0.04439 0.47836 0.0
O63 O 0.69887 0.03462 0.51961 0.0
O64 O 0.72641 0.0812 0.43329 0.0
O65 O 0.63831 0.0504 0.43408 0.0
O66 O 0.71666 0.167 0.46527 0.0
O67 O 0.76419 0.14687 0.49316 0.0
O68 O 0.5513 0.09754 0.45781 0.0
O69 O 0.62219 0.13605 0.42827 0.0
O70 O 0.58254 0.07511 0.50837 0.0
O71 O 0.67082 0.10663 0.5076 0.0
H72 H 0.62567 0.94104 0.52095 0.0
H73 H 0.5938 0.85759 0.51598 0.0
H74 H 0.75653 0.91312 0.47942 0.0
H75 H 0.78876 0.9967 0.48468 0.0
H76 H 0.56083 0.17518 0.39824 0.0
H77 H 0.56716 0.24682 0.41288 0.0
H78 H 0.61605 0.25582 0.51295 0.0
H79 H 0.61204 0.18566 0.49786 0.0
Ho80 Ho 0.65331 0.59786 0.83861 0.0
Ho81 Ho 0.5671 0.48991 0.83787 0.0
C82 C 0.50711 0.5419 0.83985 0.0
C83 C 0.70621 0.6852 0.8236 0.0
C84 C 0.6915 0.7173 0.82319 0.0
C85 C 0.72069 0.75579 0.80498 0.0
C86 C 0.70663 0.78625 0.80429 0.0
C87 C 0.66308 0.77869 0.82184 0.0
C88 C 0.63355 0.73961 0.8398 0.0
C89 C 0.64768 0.70932 0.8405 0.0
C90 C 0.63916 0.57429 0.89756 0.0
C91 C 0.71532 0.54785 0.84071 0.0
C92 C 0.51502 0.40008 0.84683 0.0
C93 C 0.52561 0.36663 0.83443 0.0
C94 C 0.51081 0.32842 0.85058 0.0
C95 C 0.52059 0.29657 0.8383 0.0
C96 C 0.54485 0.30228 0.80954 0.0
C97 C 0.5607 0.34129 0.79385 0.0
C98 C 0.55155 0.37332 0.80627 0.0
C99 C 0.58404 0.51501 0.77896 0.0
O100 O 0.56209 0.58088 0.83411 0.0
O101 O 0.49859 0.5015 0.84554 0.0
O102 O 0.71673 0.67884 0.85196 0.0
O103 O 0.67227 0.64333 0.80258 0.0
O104 O 0.68999 0.61164 0.88983 0.0
O105 O 0.59761 0.55313 0.8743 0.0
O106 O 0.65877 0.50603 0.84223 0.0
O107 O 0.72413 0.58909 0.83758 0.0
O108 O 0.49322 0.40986 0.82504 0.0
O109 O 0.5585 0.44027 0.86759 0.0
O110 O 0.53233 0.47886 0.78634 0.0
O111 O 0.6241 0.5345 0.80268 0.0
H112 H 0.75452 0.76241 0.79138 0.0
H113 H 0.73054 0.8162 0.79043 0.0
H114 H 0.59903 0.73211 0.85314 0.0
H115 H 0.62438 0.67967 0.8546 0.0
H116 H 0.49128 0.32298 0.8725 0.0
H117 H 0.50779 0.2667 0.85082 0.0
H118 H 0.58024 0.34705 0.77191 0.0
H119 H 0.56432 0.40314 0.79369 0.0
H120 H 0.63881 0.08135 0.21737 0.0
C121 C 0.60286 0.04186 0.20763 0.0
C122 C 0.57042 1.00866 0.22912 0.0
C123 C 0.58662 0.02471 0.17399 0.0
H124 H 0.49674 0.93259 0.23393 0.0
C125 C 0.52131 0.95785 0.21713 0.0
C126 C 0.50373 0.93882 0.18405 0.0
C127 C 0.5377 0.97218 0.16262 0.0
C128 C 0.61631 0.06192 0.15101 0.0
H129 H 0.5246 0.95708 0.13712 0.0
C130 C 0.67575 0.11014 0.15864 0.0
C131 C 0.6992 0.14528 0.13728 0.0
C132 C 0.58253 0.05029 0.12141 0.0
H133 H 0.5366 0.01559 0.11471 0.0
C134 C 0.60622 0.08389 0.10009 0.0
H135 H 0.70329 0.12088 0.18113 0.0
C136 C 0.66359 0.13071 0.10787 0.0
H137 H 0.68018 0.15594 0.09072 0.0
H138 H 0.5793 0.07387 0.07749 0.0
H139 H 0.55042 0.54733 0.5784 0.0
C140 C 0.56482 0.52776 0.56912 0.0
C141 C 0.58121 0.50954 0.59034 0.0
C142 C 0.56506 0.51933 0.5359 0.0
H143 H 0.60862 0.46725 0.59437 0.0
C144 C 0.59832 0.48303 0.57816 0.0
C145 C 0.59774 0.47346 0.54498 0.0
C146 C 0.58182 0.49233 0.52412 0.0
C147 C 0.54511 0.53643 0.51317 0.0
H148 H 0.58224 0.48576 0.49854 0.0
C149 C 0.56542 0.58522 0.51954 0.0
C150 C 0.5481 0.6017 0.4972 0.0
C151 C 0.50606 0.50391 0.48457 0.0
H152 H 0.48894 0.46591 0.47926 0.0
C153 C 0.48819 0.51988 0.46261 0.0
H154 H 0.59625 0.61088 0.54127 0.0
C155 C 0.50921 0.56849 0.46875 0.0
H156 H 0.49465 0.58002 0.45134 0.0
H157 H 0.45801 0.49451 0.44071 0.0
H158 H 0.12525 0.54937 0.90377 0.0
C159 C 0.09033 0.54601 0.89093 0.0
C160 C 1.05573 0.55156 0.90911 0.0
C161 C 0.08271 0.53877 0.85706 0.0
H162 H 0.98523 0.55347 0.90911 0.0
C163 C 1.01093 0.54958 0.89403 0.0
C164 C 0.99645 0.54091 0.86056 0.0
C165 C 1.03315 0.53498 0.842 0.0
C166 C 0.12924 0.53876 0.83902 0.0
H167 H 1.02314 0.52794 0.81611 0.0
C168 C 0.17382 0.53531 0.85223 0.0
C169 C 0.21793 0.5398 0.83342 0.0
C170 C 0.13139 0.5456 0.8069 0.0
H171 H 0.10212 0.54941 0.79508 0.0
C172 C 0.17193 0.54919 0.78897 0.0
H173 H 0.17485 0.52978 0.87678 0.0
C174 C 0.21363 0.54659 0.80169 0.0
H175 H 0.2426 0.54911 0.78573 0.0
H176 H 0.17122 0.55446 0.76428 0.0
H177 H 0.12677 0.53464 0.41469 0.0
C178 C 0.16179 0.5745 0.42355 0.0
C179 C 0.19085 0.60629 0.40101 0.0
C180 C 0.17818 0.59344 0.45687 0.0
H181 H 0.26211 0.68171 0.39407 0.0
C182 C 0.23829 0.65797 0.41168 0.0
C183 C 0.25743 0.67893 0.44458 0.0
C184 C 0.2265 0.64641 0.46704 0.0
C185 C 0.1471 0.55745 0.48056 0.0
H186 H 0.24011 0.66293 0.4923 0.0
C187 C 0.08857 0.50842 0.47223 0.0
C188 C 1.06288 0.47423 0.49424 0.0
C189 C 0.1777 0.5711 0.51172 0.0
H190 H 0.22275 0.60659 0.51927 0.0
C191 C 0.15164 0.53864 0.53377 0.0
H192 H 1.0631 0.49622 0.4487 0.0
C193 C 0.09518 0.49099 0.52526 0.0
H194 H 0.07676 0.46713 0.54325 0.0
H195 H 0.17596 0.55028 0.55766 0.0
H196 H 0.57495 0.99734 0.71415 0.0
C197 C 0.58266 0.02984 0.72626 0.0
C198 C 0.59772 0.06715 0.70894 0.0
C199 C 0.57442 0.03307 0.75861 0.0
H200 H 0.61562 0.13625 0.71048 0.0
C201 C 0.60507 0.10812 0.72419 0.0
C202 C 0.59549 0.11143 0.75627 0.0
C203 C 0.58128 0.07414 0.7734 0.0
C204 C 0.55295 0.99139 0.77617 0.0
H205 H 0.57305 0.0759 0.79799 0.0
C206 C 0.57909 0.96974 0.77558 0.0
C207 C 0.55866 0.9309 0.79299 0.0
C208 C 0.50534 0.97292 0.79373 0.0
H209 H 0.48355 0.98804 0.79413 0.0
C210 C 0.48454 0.93417 0.81056 0.0
H211 H 0.61618 0.98401 0.76239 0.0
C212 C 0.5109 0.91333 0.81027 0.0
H213 H 0.49325 0.88284 0.8233 0.0
H214 H 0.44762 0.92009 0.82382 0.0
H215 H 0.69192 0.65129 0.10248 0.0
C216 C 0.67281 0.6158 0.10958 0.0
C217 C 0.64641 0.57339 0.08599 0.0
C218 C 0.67646 0.61336 0.14222 0.0
H219 H 0.59922 0.49488 0.07662 0.0
C220 C 0.62035 0.52724 0.0953 0.0
C221 C 0.62602 0.52417 0.12808 0.0
C222 C 0.6541 0.56806 0.15129 0.0
C223 C 0.70225 0.65811 0.16677 0.0
H224 H 0.66056 0.56825 0.17665 0.0
C225 C 0.6811 0.68305 0.16438 0.0
C226 C 0.69968 0.72254 0.18861 0.0
C227 C 0.74462 0.67438 0.19331 0.0
H228 H 0.76186 0.65578 0.19563 0.0
C229 C 0.7646 0.71471 0.2172 0.0
H230 H 0.64654 0.6692 0.14461 0.0
C231 C 0.7415 0.73827 0.21519 0.0
H232 H 0.75515 0.76783 0.23455 0.0
H233 H 0.79685 0.72683 0.23774 0.0
H234 H 0.49519 0.70739 0.13552 0.0
H235 H 0.43545 0.6509 0.2235 0.0
H236 H 0.53586 0.6865 0.24449 0.0
H237 H 0.63169 0.71406 0.23186 0.0
H238 H 0.68876 0.76421 0.14218 0.0
H239 H 0.59971 0.75272 0.12825 0.0
C240 C 0.50474 0.70406 0.15959 0.0
C241 C 0.45799 0.67567 0.17764 0.0
C242 C 0.5622 0.72344 0.17114 0.0
C243 C 0.47078 0.67239 0.20907 0.0
C244 C 0.52813 0.69249 0.22103 0.0
C245 C 0.62604 0.72498 0.2101 0.0
C246 C 0.66581 0.73924 0.18783 0.0
C247 C 0.57318 0.71551 0.20152 0.0
C248 C 0.65826 0.75302 0.15956 0.0
C249 C 0.60692 0.74565 0.15139 0.0
H250 H 0.79368 0.26258 0.45782 0.0
H251 H 0.87301 0.21843 0.51255 0.0
H252 H 0.96988 0.30285 0.51963 0.0
H253 H 1.03328 0.38957 0.51121 0.0
H254 H 0.95734 0.43748 0.45813 0.0
H255 H 0.85941 0.35168 0.44887 0.0
C256 C 0.83211 0.2714 0.47134 0.0
C257 C 0.82506 0.23337 0.4847 0.0
C258 C 0.88894 0.32096 0.47546 0.0
C259 C 0.87606 0.24616 0.50198 0.0
C260 C 0.93198 0.29475 0.50605 0.0
C261 C 0.9954 0.3817 0.49779 0.0
C262 C 1.00336 0.42084 0.48578 0.0
C263 C 0.93903 0.3325 0.49305 0.0
C264 C 0.95337 0.40865 0.46763 0.0
C265 C 0.89698 0.35943 0.46255 0.0
H266 H 0.64998 0.81377 0.77095 0.0
H267 H 0.64418 0.81791 0.87301 0.0
H268 H 0.61495 0.86761 0.87325 0.0
H269 H 0.58733 0.90717 0.84441 0.0
H270 H 0.5914 0.90284 0.74233 0.0
H271 H 0.62701 0.85753 0.74239 0.0
C272 C 0.64305 0.82608 0.79331 0.0
C273 C 0.64862 0.8115 0.82185 0.0
C274 C 0.62622 0.85486 0.79332 0.0
C275 C 0.63903 0.82759 0.85056 0.0
C276 C 0.62267 0.85633 0.85078 0.0
C277 C 0.5959 0.89626 0.82213 0.0
C278 C 0.58605 0.90793 0.79334 0.0
C279 C 0.61534 0.86958 0.82226 0.0
C280 C 0.59882 0.89456 0.76485 0.0
C281 C 0.61874 0.86829 0.76484 0.0
H282 H 0.71206 0.44194 0.19854 0.0
H283 H 0.70837 0.38639 0.10168 0.0
H284 H 0.63812 0.3946 0.08147 0.0
H285 H 0.61359 0.44761 0.09074 0.0
H286 H 0.60517 0.4931 0.18779 0.0
H287 H 0.64352 0.45661 0.20845 0.0
C288 C 0.69396 0.42899 0.17318 0.0
C289 C 0.7205 0.4189 0.15116 0.0
C290 C 0.65342 0.4337 0.16167 0.0
C291 C 0.69261 0.39873 0.11885 0.0
C292 C 0.65231 0.40336 0.1072 0.0
C293 C 0.61759 0.44857 0.11638 0.0
C294 C 0.6142 0.47952 0.13791 0.0
C295 C 0.63802 0.42615 0.12819 0.0
C296 C 0.61458 0.47509 0.17068 0.0
C297 C 0.6356 0.45337 0.18265 0.0
H298 H 0.51234 0.89933 0.49106 0.0
H299 H 0.44374 0.93073 0.41645 0.0
H300 H 0.34935 0.84392 0.40687 0.0
H301 H 0.28614 0.75803 0.4183 0.0
H302 H 0.35265 0.72512 0.49281 0.0
H303 H 0.44647 0.81306 0.50416 0.0
C304 C 0.47679 0.88725 0.47269 0.0
C305 C 0.48601 0.92215 0.4544 0.0
C306 C 0.42158 0.83672 0.4674 0.0
C307 C 0.43868 0.90532 0.43095 0.0
C308 C 0.38432 0.8554 0.42542 0.0
C309 C 0.32099 0.76994 0.43713 0.0
C310 C 0.31177 0.73427 0.45452 0.0
C311 C 0.37525 0.82065 0.44333 0.0
C312 C 0.35763 0.75128 0.47917 0.0
C313 C 0.41177 0.8017 0.48547 0.0
H314 H 0.59516 0.2705 0.83897 0.0
H315 H 0.50952 0.25427 0.74741 0.0
H316 H 0.51942 0.19542 0.72277 0.0
H317 H 0.54933 0.14661 0.72745 0.0
H318 H 0.63831 0.16429 0.81829 0.0
H319 H 0.62949 0.22393 0.84303 0.0
C320 C 0.57856 0.25389 0.81366 0.0
C321 C 0.55159 0.26668 0.79505 0.0
C322 C 0.58485 0.22027 0.79952 0.0
C323 C 0.53088 0.24535 0.76219 0.0
C324 C 0.53635 0.21157 0.7481 0.0
C325 C 0.56795 0.16417 0.75251 0.0
C326 C 0.59453 0.15083 0.77089 0.0
C327 C 0.56317 0.19871 0.76652 0.0
C328 C 0.61701 0.1733 0.80358 0.0
C329 C 0.61216 0.20758 0.81775 0.0
H330 H 0.62826 0.81525 0.54031 0.0
H331 H 0.67163 0.8285 0.44387 0.0
H332 H 0.63774 0.7443 0.43556 0.0
H333 H 0.595 0.66669 0.45544 0.0
H334 H 0.55309 0.65316 0.55211 0.0
H335 H 0.58761 0.73781 0.56078 0.0
C336 C 0.63 0.79949 0.51748 0.0
C337 C 0.65227 0.82791 0.49271 0.0
C338 C 0.61093 0.75118 0.51297 0.0
C339 C 0.65507 0.80744 0.46336 0.0
C340 C 0.63554 0.75928 0.45856 0.0
C341 C 0.59321 0.68224 0.47836 0.0
C342 C 0.57117 0.65368 0.50302 0.0
C343 C 0.61329 0.7308 0.48315 0.0
C344 C 0.57014 0.67458 0.53282 0.0
C345 C 0.58957 0.72282 0.53771 0.0
H346 H 0.73558 0.47938 0.81693 0.0
H347 H 0.82814 0.62531 0.87431 0.0
H348 H 0.91802 0.63681 0.88396 0.0
H349 H 0.97425 0.60664 0.87828 0.0
H350 H 0.88803 0.46473 0.81754 0.0
H351 H 0.79655 0.45196 0.80734 0.0
C352 C 0.77511 0.51396 0.83163 0.0
C353 C 0.77164 0.5512 0.84505 0.0
C354 C 0.83016 0.52169 0.8365 0.0
C355 C 0.82622 0.59534 0.86341 0.0
C356 C 0.87893 0.60215 0.86906 0.0
C357 C 0.93623 0.57301 0.86214 0.0
C358 C 0.94174 0.53733 0.84848 0.0
C359 C 0.88223 0.56589 0.85591 0.0
C360 C 0.88892 0.4942 0.82819 0.0
C361 C 0.83513 0.4865 0.82258 0.0
H362 H 0.298 0.70137 0.1363 0.0
H363 H 0.20831 0.72599 0.20127 0.0
H364 H 0.29397 0.81559 0.21184 0.0
H365 H 0.39536 0.88768 0.2043 0.0
H366 H 0.48752 0.86673 0.13939 0.0
H367 H 0.40024 0.77604 0.12678 0.0
C368 C 0.29715 0.72635 0.1527 0.0
C369 C 0.24606 0.70617 0.16796 0.0
C370 C 0.34718 0.77894 0.15863 0.0
C371 C 0.24629 0.73968 0.18903 0.0
C372 C 0.29555 0.79131 0.19518 0.0
C373 C 0.39645 0.86338 0.18726 0.0
C374 C 0.44846 0.88432 0.17301 0.0
C375 C 0.34629 0.81139 0.18031 0.0
C376 C 0.44826 0.85202 0.15063 0.0
C377 C 0.39836 0.79996 0.14362 0.0
H378 H 0.66614 0.34117 0.51085 0.0
H379 H 0.50996 0.26182 0.43906 0.0
H380 H 0.50106 0.32369 0.45626 0.0
H381 H 0.53315 0.39693 0.49385 0.0
H382 H 0.68644 0.47483 0.56724 0.0
H383 H 0.70005 0.41624 0.54772 0.0
C384 C 0.63002 0.33727 0.49902 0.0
C385 C 0.58887 0.29673 0.47363 0.0
C386 C 0.62425 0.37247 0.50952 0.0
C387 C 0.54295 0.29293 0.45828 0.0
C388 C 0.53742 0.32809 0.4683 0.0
C389 C 0.57017 0.40164 0.50525 0.0
C390 C 0.60882 0.44025 0.5319 0.0
C391 C 0.57735 0.36763 0.49411 0.0
C392 C 0.65583 0.44519 0.54681 0.0
C393 C 0.6637 0.41179 0.53562 0.0
H394 H 0.38793 0.48335 0.86207 0.0
H395 H 0.50757 0.61074 0.81575 0.0
H396 H 0.43614 0.62256 0.81182 0.0
H397 H 0.33765 0.59793 0.81948 0.0
H398 H 0.21597 0.47321 0.86698 0.0
H399 H 0.28815 0.461 0.8726 0.0
C400 C 0.39906 0.5139 0.85101 0.0
C401 C 0.45626 0.54575 0.83899 0.0
C402 C 0.3561 0.52169 0.84909 0.0
C403 C 0.46633 0.58486 0.82534 0.0
C404 C 0.42446 0.59192 0.82301 0.0
C405 C 0.32602 0.56796 0.83148 0.0
C406 C 0.26845 0.537 0.84287 0.0
C407 C 0.36886 0.56079 0.8346 0.0
C408 C 0.25816 0.49899 0.8582 0.0
C409 C 0.30022 0.49152 0.86112 0.0
H410 H 0.97111 0.35244 0.15435 0.0
H411 H 0.87947 0.40429 0.1316 0.0
H412 H 0.78328 0.32048 0.12921 0.0
H413 H 0.7237 0.23206 0.13296 0.0
H414 H 0.81081 0.1771 0.15692 0.0
H415 H 0.90918 0.26182 0.16029 0.0
C416 C 0.93003 0.34512 0.14852 0.0
C417 C 0.93304 0.38499 0.14274 0.0
C418 C 0.87367 0.29617 0.14791 0.0
C419 C 0.87902 0.37473 0.13597 0.0
C420 C 0.82367 0.32663 0.13471 0.0
C421 C 0.76419 0.23855 0.13916 0.0
C422 C 0.75947 0.19788 0.1446 0.0
C423 C 0.82031 0.28711 0.1407 0.0
C424 C 0.81272 0.2075 0.15291 0.0
C425 C 0.86911 0.25599 0.15447 0.0
H426 H 0.08063 0.61114 0.05881 0.0
H427 H 1.05534 0.47785 0.05902 0.0
H428 H 1.05452 0.46817 0.00055 0.0
H429 H 1.05574 0.49568 0.94871 0.0
H430 H 0.0793 0.62841 0.94978 0.0
H431 H 0.08655 0.64052 0.0083 0.0
C432 C 0.07511 0.58001 0.0461 0.0
C433 C 1.0675 0.545 0.06316 0.0
C434 C 0.07443 0.57467 0.01263 0.0
C435 C 1.06091 0.50514 0.04638 0.0
C436 C 1.06048 0.49964 0.01296 0.0
C437 C 1.06334 0.52759 0.96191 0.0
C438 C 1.06675 0.56103 0.94494 0.0
C439 C 1.06655 0.53391 -0.00427 0.0
C440 C 0.07611 0.60202 0.96228 0.0
C441 C 0.08019 0.60892 -0.00427 0.0
H442 H 0.58062 0.03727 0.37954 0.0
H443 H 0.76009 0.096 0.37591 0.0
H444 H 0.74474 0.08794 0.3174 0.0
H445 H 0.67718 0.05777 0.26667 0.0
H446 H 0.49699 0.99689 0.27072 0.0
H447 H 0.51578 0.01275 0.32949 0.0
C448 C 0.61646 0.04859 0.36593 0.0
C449 C 0.67114 0.06665 0.38191 0.0
C450 C 0.60714 0.04349 0.33231 0.0
C451 C 0.7174 0.0816 0.36407 0.0
C452 C 0.70866 0.07703 0.33062 0.0
C453 C 0.64261 0.04902 0.28054 0.0
C454 C 0.5858 0.02612 0.2645 0.0
C455 C 0.65336 0.05722 0.31439 0.0
C456 C 0.541 0.01437 0.28264 0.0
C457 C 0.55165 0.02325 0.3162 0.0
H458 H 0.50506 0.48937 0.72842 0.0
H459 H 0.68874 0.5591 0.75539 0.0
H460 H 0.7052 0.56572 0.69929 0.0
H461 H 0.66522 0.54676 0.64199 0.0
H462 H 0.48284 0.48059 0.61557 0.0
H463 H 0.46799 0.47796 0.67201 0.0
C464 C 0.54874 0.50631 0.72196 0.0
C465 C 0.5954 0.52312 0.74576 0.0
C466 C 0.55802 0.5106 0.6898 0.0
C467 C 0.6521 0.5457 0.73734 0.0
C468 C 0.66147 0.54938 0.7053 0.0
C469 C 0.62252 0.53229 0.64876 0.0
C470 C 0.57509 0.51371 0.62481 0.0
C471 C 0.61449 0.53123 0.68125 0.0
C472 C 0.52003 0.49537 0.63371 0.0
C473 C 0.51144 0.49358 0.6659 0.0
H474 H 0.54366 0.02266 0.5578 0.0
H475 H 0.7311 0.15403 0.56904 0.0
H476 H 0.73898 0.15824 0.62756 0.0
H477 H 0.69004 0.1273 0.67585 0.0
H478 H 0.50429 0.99234 0.66363 0.0
H479 H 0.49807 0.9862 0.60516 0.0
C480 C 0.58627 0.05194 0.57313 0.0
C481 C 0.63652 0.08843 0.55943 0.0
C482 C 0.59062 0.05335 0.6065 0.0
C483 C 0.69182 0.1257 0.57925 0.0
C484 C 0.69624 0.12816 0.61264 0.0
C485 C 0.64863 0.09622 0.66022 0.0
C486 C 0.59763 0.06032 0.67379 0.0
C487 C 0.64567 0.09262 0.62659 0.0
C488 C 0.54411 0.0201 0.65354 0.0
C489 C 0.54047 0.01679 0.62019 0.0
H490 H 0.72191 0.62919 0.95056 0.0
H491 H 0.5355 0.49947 0.91871 0.0
H492 H 0.52061 0.48689 0.97446 0.0
H493 H 0.56107 0.51432 0.03259 0.0
H494 H 0.74773 0.64512 0.06317 0.0
H495 H 0.76192 0.65607 0.00762 0.0
C496 C 0.67803 0.5981 0.95581 0.0
C497 C 0.62986 0.56537 0.93075 0.0
C498 C 0.6698 0.59157 0.98771 0.0
C499 C 0.57322 0.52522 0.93778 0.0
C500 C 0.56472 0.51807 0.96959 0.0
C501 C 0.60473 0.54507 0.02696 0.0
C502 C 0.65308 0.5792 0.05193 0.0
C503 C 0.61269 0.55122 -0.00519 0.0
C504 C 0.70953 0.61896 0.0444 0.0
C505 C 0.71784 0.62507 0.01264 0.0
H506 H 0.12917 0.50092 0.25623 0.0
H507 H 0.1311 0.61934 0.24094 0.0
H508 H 0.15066 0.64804 0.2989 0.0
H509 H 0.17128 0.64176 0.35388 0.0
H510 H 0.1704 0.52414 0.36972 0.0
H511 H 0.1457 0.49248 0.31175 0.0
C512 C 0.1335 0.53277 0.26567 0.0
C513 C 0.1292 0.55823 0.2444 0.0
C514 C 0.14501 0.54925 0.29911 0.0
C515 C 0.1346 0.59931 0.25686 0.0
C516 C 0.14583 0.61579 0.28999 0.0
C517 C 0.16575 0.60924 0.34459 0.0
C518 C 0.17294 0.58549 0.366 0.0
C519 C 0.15191 0.59148 0.31131 0.0
C520 C 0.1647 0.54288 0.35372 0.0
C521 C 0.15089 0.52493 0.32058 0.0
loop_
_geom_bond_atom_site_label_1
_geom_bond_atom_site_label_2
_geom_bond_distance
_geom_bond_site_symmetry_2
_ccdc_geom_bond_type
Ho0 C3 2.811 . S
Ho0 O20 2.322 . S
Ho0 O22 2.378 . S
Ho0 O23 2.524 . S
Ho0 O24 2.381 . S
Ho0 O25 2.669 . S
Ho0 O27 2.346 1_455 S
Ho0 O31 2.305 . S
Ho1 C12 2.811 1_455 S
Ho1 O21 2.346 . S
Ho1 O25 2.305 . S
Ho1 O26 2.322 1_455 S
Ho1 O28 2.378 1_455 S
Ho1 O29 2.524 1_455 S
Ho1 O30 2.381 . S
Ho1 O31 2.669 . S
C2 O20 1.259 . S
C2 O21 1.268 . S
C3 Ho0 2.811 . S
C3 C4 1.488 . S
C3 O22 1.215 . S
C3 O23 1.289 . S
C4 C3 1.488 . S
C4 C5 1.348 . S
C4 C9 1.413 . S
C5 C4 1.348 . S
C5 C6 1.442 . S
C5 H32 0.930 . S
C6 C5 1.442 . S
C6 C7 1.381 . S
C6 H33 0.931 . S
C7 C6 1.381 . S
C7 C8 1.321 . S
C8 C7 1.321 . S
C8 C9 1.403 . S
C8 H34 0.934 . S
C9 C4 1.413 . S
C9 C8 1.403 . S
C9 H35 0.930 . S
C10 O24 1.275 . S
C10 O25 1.256 . S
C11 O26 1.259 . S
C11 O27 1.268 . S
C12 Ho1 2.811 1_655 S
C12 C13 1.488 . S
C12 O28 1.215 . S
C12 O29 1.289 . S
C13 C12 1.488 . S
C13 C14 1.348 . S
C13 C18 1.413 . S
C14 C13 1.348 . S
C14 C15 1.442 . S
C14 H36 0.930 . S
C15 C14 1.442 . S
C15 C16 1.381 . S
C15 H37 0.931 . S
C16 C15 1.381 . S
C16 C17 1.321 . S
C17 C16 1.321 . S
C17 C18 1.403 . S
C17 H38 0.934 . S
C18 C13 1.413 . S
C18 C17 1.403 . S
C18 H39 0.930 . S
C19 O30 1.275 . S
C19 O31 1.256 . S
O20 Ho0 2.322 . S
O20 C2 1.259 . S
O21 Ho1 2.346 . S
O21 C2 1.268 . S
O22 Ho0 2.378 . S
O22 C3 1.215 . S
O23 Ho0 2.524 . S
O23 C3 1.289 . S
O24 Ho0 2.381 . S
O24 C10 1.275 . S
O25 Ho0 2.669 . S
O25 Ho1 2.305 . S
O25 C10 1.256 . S
O26 Ho1 2.322 1_655 S
O26 C11 1.259 . S
O27 Ho0 2.346 1_655 S
O27 C11 1.268 . S
O28 Ho1 2.378 1_655 S
O28 C12 1.215 . S
O29 Ho1 2.524 1_655 S
O29 C12 1.289 . S
O30 Ho1 2.381 . S
O30 C19 1.275 . S
O31 Ho0 2.305 . S
O31 Ho1 2.669 . S
O31 C19 1.256 . S
H32 C5 0.930 . S
H33 C6 0.931 . S
H34 C8 0.934 . S
H35 C9 0.930 . S
H36 C14 0.930 . S
H37 C15 0.931 . S
H38 C17 0.934 . S
H39 C18 0.930 . S
Ho40 C43 2.811 1_545 S
Ho40 O60 2.322 1_545 S
Ho40 O62 2.378 1_545 S
Ho40 O63 2.524 1_545 S
Ho40 O64 2.381 . S
Ho40 O65 2.669 . S
Ho40 O67 2.346 . S
Ho40 O71 2.305 . S
Ho41 C52 2.811 . S
Ho41 O61 2.346 1_545 S
Ho41 O65 2.305 . S
Ho41 O66 2.322 . S
Ho41 O68 2.378 . S
Ho41 O69 2.524 . S
Ho41 O70 2.381 . S
Ho41 O71 2.669 . S
C42 O60 1.259 . S
C42 O61 1.268 . S
C43 Ho40 2.811 1_565 S
C43 C44 1.488 . S
C43 O62 1.215 . S
C43 O63 1.289 . S
C44 C43 1.488 . S
C44 C45 1.348 . S
C44 C49 1.413 . S
C45 C44 1.348 . S
C45 C46 1.442 . S
C45 H72 0.930 . S
C46 C45 1.442 . S
C46 C47 1.381 . S
C46 H73 0.931 . S
C47 C46 1.381 . S
C47 C48 1.321 . S
C48 C47 1.321 . S
C48 C49 1.403 . S
C48 H74 0.934 . S
C49 C44 1.413 . S
C49 C48 1.403 . S
C49 H75 0.930 . S
C50 O64 1.275 . S
C50 O65 1.256 . S
C51 O66 1.259 . S
C51 O67 1.268 . S
C52 Ho41 2.811 . S
C52 C53 1.488 . S
C52 O68 1.215 . S
C52 O69 1.289 . S
C53 C52 1.488 . S
C53 C54 1.348 . S
C53 C58 1.413 . S
C54 C53 1.348 . S
C54 C55 1.442 . S
C54 H76 0.930 . S
C55 C54 1.442 . S
C55 C56 1.381 . S
C55 H77 0.931 . S
C56 C55 1.381 . S
C56 C57 1.321 . S
C57 C56 1.321 . S
C57 C58 1.403 . S
C57 H78 0.934 . S
C58 C53 1.413 . S
C58 C57 1.403 . S
C58 H79 0.930 . S
C59 O70 1.275 . S
C59 O71 1.256 . S
O60 Ho40 2.322 1_565 S
O60 C42 1.259 . S
O61 Ho41 2.346 1_565 S
O61 C42 1.268 . S
O62 Ho40 2.378 1_565 S
O62 C43 1.215 . S
O63 Ho40 2.524 1_565 S
O63 C43 1.289 . S
O64 Ho40 2.381 . S
O64 C50 1.275 . S
O65 Ho40 2.669 . S
O65 Ho41 2.305 . S
O65 C50 1.256 . S
O66 Ho41 2.322 . S
O66 C51 1.259 . S
O67 Ho40 2.346 . S
O67 C51 1.268 . S
O68 Ho41 2.378 . S
O68 C52 1.215 . S
O69 Ho41 2.524 . S
O69 C52 1.289 . S
O70 Ho41 2.381 . S
O70 C59 1.275 . S
O71 Ho40 2.305 . S
O71 Ho41 2.669 . S
O71 C59 1.256 . S
H72 C45 0.930 . S
H73 C46 0.931 . S
H74 C48 0.934 . S
H75 C49 0.930 . S
H76 C54 0.930 . S
H77 C55 0.931 . S
H78 C57 0.934 . S
H79 C58 0.930 . S
Ho80 C83 2.811 . S
Ho80 O100 2.322 . S
Ho80 O102 2.378 . S
Ho80 O103 2.524 . S
Ho80 O104 2.381 . S
Ho80 O105 2.669 . S
Ho80 O107 2.346 . S
Ho80 O111 2.305 . S
Ho81 C92 2.811 . S
Ho81 O101 2.346 . S
Ho81 O105 2.305 . S
Ho81 O106 2.322 . S
Ho81 O108 2.378 . S
Ho81 O109 2.524 . S
Ho81 O110 2.381 . S
Ho81 O111 2.669 . S
C82 O100 1.259 . S
C82 O101 1.268 . S
C83 Ho80 2.811 . S
C83 C84 1.488 . S
C83 O102 1.215 . S
C83 O103 1.289 . S
C84 C83 1.488 . S
C84 C85 1.348 . S
C84 C89 1.413 . S
C85 C84 1.348 . S
C85 C86 1.442 . S
C85 H112 0.930 . S
C86 C85 1.442 . S
C86 C87 1.381 . S
C86 H113 0.931 . S
C87 C86 1.381 . S
C87 C88 1.321 . S
C88 C87 1.321 . S
C88 C89 1.403 . S
C88 H114 0.934 . S
C89 C84 1.413 . S
C89 C88 1.403 . S
C89 H115 0.930 . S
C90 O104 1.275 . S
C90 O105 1.256 . S
C91 O106 1.259 . S
C91 O107 1.268 . S
C92 Ho81 2.811 . S
C92 C93 1.488 . S
C92 O108 1.215 . S
C92 O109 1.289 . S
C93 C92 1.488 . S
C93 C94 1.348 . S
C93 C98 1.413 . S
C94 C93 1.348 . S
C94 C95 1.442 . S
C94 H116 0.930 . S
C95 C94 1.442 . S
C95 C96 1.381 . S
C95 H117 0.931 . S
C96 C95 1.381 . S
C96 C97 1.321 . S
C97 C96 1.321 . S
C97 C98 1.403 . S
C97 H118 0.934 . S
C98 C93 1.413 . S
C98 C97 1.403 . S
C98 H119 0.930 . S
C99 O110 1.275 . S
C99 O111 1.256 . S
O100 Ho80 2.322 . S
O100 C82 1.259 . S
O101 Ho81 2.346 . S
O101 C82 1.268 . S
O102 Ho80 2.378 . S
O102 C83 1.215 . S
O103 Ho80 2.524 . S
O103 C83 1.289 . S
O104 Ho80 2.381 . S
O104 C90 1.275 . S
O105 Ho80 2.669 . S
O105 Ho81 2.305 . S
O105 C90 1.256 . S
O106 Ho81 2.322 . S
O106 C91 1.259 . S
O107 Ho80 2.346 . S
O107 C91 1.268 . S
O108 Ho81 2.378 . S
O108 C92 1.215 . S
O109 Ho81 2.524 . S
O109 C92 1.289 . S
O110 Ho81 2.381 . S
O110 C99 1.275 . S
O111 Ho80 2.305 . S
O111 Ho81 2.669 . S
O111 C99 1.256 . S
H112 C85 0.930 . S
H113 C86 0.931 . S
H114 C88 0.934 . S
H115 C89 0.930 . S
H116 C94 0.930 . S
H117 C95 0.931 . S
H118 C97 0.934 . S
H119 C98 0.930 . S
H120 C121 0.949 . S
C121 H120 0.949 . S
C121 C122 1.395 . S
C121 C123 1.391 . S
C122 C121 1.395 . S
C122 C125 1.390 1_545 S
C123 C121 1.391 . S
C123 C127 1.387 . S
C123 C128 1.491 . S
H124 C125 0.950 . S
C125 C122 1.390 1_565 S
C125 H124 0.950 . S
C125 C126 1.378 . S
C126 C125 1.378 . S
C126 C127 1.409 1_565 S
C127 C123 1.387 . S
C127 C126 1.409 1_545 S
C127 H129 0.951 1_545 S
C128 C123 1.491 . S
C128 C130 1.382 . S
C128 C132 1.404 . S
H129 C127 0.951 1_565 S
C130 C128 1.382 . S
C130 C131 1.390 . S
C130 H135 0.949 . S
C131 C130 1.390 . S
C131 C136 1.399 . S
C132 C128 1.404 . S
C132 H133 0.950 . S
C132 C134 1.375 . S
H133 C132 0.950 . S
C134 C132 1.375 . S
C134 C136 1.382 . S
C134 H138 0.950 . S
H135 C130 0.949 . S
C136 C131 1.399 . S
C136 C134 1.382 . S
C136 H137 0.952 . S
H137 C136 0.952 . S
H138 C134 0.950 . S
H139 C140 0.949 . S
C140 H139 0.949 . S
C140 C141 1.395 . S
C140 C142 1.391 . S
C141 C140 1.395 . S
C141 C144 1.390 . S
C142 C140 1.391 . S
C142 C146 1.387 . S
C142 C147 1.491 . S
H143 C144 0.950 . S
C144 C141 1.390 . S
C144 H143 0.950 . S
C144 C145 1.378 . S
C145 C144 1.378 . S
C145 C146 1.409 . S
C146 C142 1.387 . S
C146 C145 1.409 . S
C146 H148 0.951 . S
C147 C142 1.491 . S
C147 C149 1.382 . S
C147 C151 1.404 . S
H148 C146 0.951 . S
C149 C147 1.382 . S
C149 C150 1.390 . S
C149 H154 0.949 . S
C150 C149 1.390 . S
C150 C155 1.399 . S
C151 C147 1.404 . S
C151 H152 0.950 . S
C151 C153 1.375 . S
H152 C151 0.950 . S
C153 C151 1.375 . S
C153 C155 1.382 . S
C153 H157 0.950 . S
H154 C149 0.949 . S
C155 C150 1.399 . S
C155 C153 1.382 . S
C155 H156 0.952 . S
H156 C155 0.952 . S
H157 C153 0.950 . S
H158 C159 0.949 . S
C159 H158 0.949 . S
C159 C160 1.395 . S
C159 C161 1.391 . S
C160 C159 1.395 . S
C160 C163 1.390 . S
C161 C159 1.391 . S
C161 C165 1.387 . S
C161 C166 1.491 . S
H162 C163 0.950 1_655 S
C163 C160 1.390 . S
C163 H162 0.950 1_455 S
C163 C164 1.378 . S
C164 C163 1.378 . S
C164 C165 1.409 . S
C165 C161 1.387 . S
C165 C164 1.409 . S
C165 H167 0.951 . S
C166 C161 1.491 . S
C166 C168 1.382 . S
C166 C170 1.404 . S
H167 C165 0.951 . S
C168 C166 1.382 . S
C168 C169 1.390 . S
C168 H173 0.949 . S
C169 C168 1.390 . S
C169 C174 1.399 . S
C170 C166 1.404 . S
C170 H171 0.950 . S
C170 C172 1.375 . S
H171 C170 0.950 . S
C172 C170 1.375 . S
C172 C174 1.382 . S
C172 H176 0.950 . S
H173 C168 0.949 . S
C174 C169 1.399 . S
C174 C172 1.382 . S
C174 H175 0.952 . S
H175 C174 0.952 . S
H176 C172 0.950 . S
H177 C178 0.954 . S
C178 H177 0.954 . S
C178 C179 1.388 1_655 S
C178 C180 1.393 1_655 S
C179 C178 1.388 1_455 S
C179 C182 1.390 . S
C180 C178 1.393 1_455 S
C180 C184 1.387 . S
C180 C185 1.491 1_455 S
H181 C182 0.950 . S
C182 C179 1.390 . S
C182 H181 0.950 . S
C182 C183 1.378 . S
C183 C182 1.378 . S
C183 C184 1.409 . S
C184 C180 1.387 . S
C184 C183 1.409 . S
C184 H186 0.951 . S
C185 C180 1.491 1_655 S
C185 C187 1.382 . S
C185 C189 1.404 . S
H186 C184 0.951 . S
C187 C185 1.382 . S
C187 C188 1.390 . S
C187 H192 0.949 . S
C188 C187 1.390 . S
C188 C193 1.399 . S
C189 C185 1.404 . S
C189 H190 0.950 . S
C189 C191 1.375 . S
H190 C189 0.950 . S
C191 C189 1.375 . S
C191 C193 1.382 . S
C191 H195 0.950 . S
H192 C187 0.949 . S
C193 C188 1.399 . S
C193 C191 1.382 . S
C193 H194 0.952 . S
H194 C193 0.952 . S
H195 C191 0.950 . S
H196 C197 0.949 1_565 S
C197 H196 0.949 1_545 S
C197 C198 1.395 . S
C197 C199 1.391 . S
C198 C197 1.395 . S
C198 C201 1.390 . S
C199 C197 1.391 . S
C199 C203 1.387 . S
C199 C204 1.491 1_545 S
H200 C201 0.950 . S
C201 C198 1.390 . S
C201 H200 0.950 . S
C201 C202 1.378 . S
C202 C201 1.378 . S
C202 C203 1.409 . S
C203 C199 1.387 . S
C203 C202 1.409 . S
C203 H205 0.951 . S
C204 C199 1.491 1_565 S
C204 C206 1.382 . S
C204 C208 1.404 . S
H205 C203 0.951 . S
C206 C204 1.382 . S
C206 C207 1.390 . S
C206 H211 0.949 . S
C207 C206 1.390 . S
C207 C212 1.399 . S
C208 C204 1.404 . S
C208 H209 0.950 . S
C208 C210 1.375 . S
H209 C208 0.950 . S
C210 C208 1.375 . S
C210 C212 1.382 . S
C210 H214 0.950 . S
H211 C206 0.949 . S
C212 C207 1.399 . S
C212 C210 1.382 . S
C212 H213 0.952 . S
H213 C212 0.952 . S
H214 C210 0.950 . S
H215 C216 0.949 . S
C216 H215 0.949 . S
C216 C217 1.395 . S
C216 C218 1.391 . S
C217 C216 1.395 . S
C217 C220 1.390 . S
C218 C216 1.391 . S
C218 C222 1.387 . S
C218 C223 1.491 . S
H219 C220 0.950 . S
C220 C217 1.390 . S
C220 H219 0.950 . S
C220 C221 1.378 . S
C221 C220 1.378 . S
C221 C222 1.409 . S
C222 C218 1.387 . S
C222 C221 1.409 . S
C222 H224 0.951 . S
C223 C218 1.491 . S
C223 C225 1.382 . S
C223 C227 1.404 . S
H224 C222 0.951 . S
C225 C223 1.382 . S
C225 C226 1.390 . S
C225 H230 0.949 . S
C226 C225 1.390 . S
C226 C231 1.399 . S
C227 C223 1.404 . S
C227 H228 0.950 . S
C227 C229 1.375 . S
H228 C227 0.950 . S
C229 C227 1.375 . S
C229 C231 1.382 . S
C229 H233 0.950 . S
H230 C225 0.949 . S
C231 C226 1.399 . S
C231 C229 1.382 . S
C231 H232 0.952 . S
H232 C231 0.952 . S
H233 C229 0.950 . S
H234 C240 0.930 . S
H235 C243 0.930 . S
H236 C244 0.930 . S
H237 C245 0.930 . S
H238 C248 0.930 . S
H239 C249 0.930 . S
C240 H234 0.930 . S
C240 C241 1.355 . S
C240 C242 1.415 . S
C241 C240 1.355 . S
C241 C243 1.419 . S
C242 C240 1.415 . S
C242 C247 1.425 . S
C242 C249 1.409 . S
C243 H235 0.930 . S
C243 C241 1.419 . S
C243 C244 1.362 . S
C244 H236 0.930 . S
C244 C243 1.362 . S
C244 C247 1.409 . S
C245 H237 0.930 . S
C245 C246 1.355 . S
C245 C247 1.415 . S
C246 C245 1.355 . S
C246 C248 1.419 . S
C247 C242 1.425 . S
C247 C244 1.409 . S
C247 C245 1.415 . S
C248 H238 0.930 . S
C248 C246 1.419 . S
C248 C249 1.362 . S
C249 H239 0.930 . S
C249 C242 1.409 . S
C249 C248 1.362 . S
H250 C256 0.930 . S
H251 C259 0.930 . S
H252 C260 0.930 . S
H253 C261 0.930 . S
H254 C264 0.930 . S
H255 C265 0.930 . S
C256 H250 0.930 . S
C256 C257 1.355 . S
C256 C258 1.415 . S
C257 C256 1.355 . S
C257 C259 1.419 . S
C258 C256 1.415 . S
C258 C263 1.425 . S
C258 C265 1.409 . S
C259 H251 0.930 . S
C259 C257 1.419 . S
C259 C260 1.362 . S
C260 H252 0.930 . S
C260 C259 1.362 . S
C260 C263 1.409 . S
C261 H253 0.930 . S
C261 C262 1.355 . S
C261 C263 1.415 . S
C262 C261 1.355 . S
C262 C264 1.419 . S
C263 C258 1.425 . S
C263 C260 1.409 . S
C263 C261 1.415 . S
C264 H254 0.930 . S
C264 C262 1.419 . S
C264 C265 1.362 . S
C265 H255 0.930 . S
C265 C258 1.409 . S
C265 C264 1.362 . S
H266 C272 0.930 . S
H267 C275 0.930 . S
H268 C276 0.930 . S
H269 C277 0.930 . S
H270 C280 0.930 . S
H271 C281 0.930 . S
C272 H266 0.930 . S
C272 C273 1.355 . S
C272 C274 1.415 . S
C273 C272 1.355 . S
C273 C275 1.419 . S
C274 C272 1.415 . S
C274 C279 1.425 . S
C274 C281 1.409 . S
C275 H267 0.930 . S
C275 C273 1.419 . S
C275 C276 1.362 . S
C276 H268 0.930 . S
C276 C275 1.362 . S
C276 C279 1.409 . S
C277 H269 0.930 . S
C277 C278 1.355 . S
C277 C279 1.415 . S
C278 C277 1.355 . S
C278 C280 1.419 . S
C279 C274 1.425 . S
C279 C276 1.409 . S
C279 C277 1.415 . S
C280 H270 0.930 . S
C280 C278 1.419 . S
C280 C281 1.362 . S
C281 H271 0.930 . S
C281 C274 1.409 . S
C281 C280 1.362 . S
H282 C288 0.930 . S
H283 C291 0.930 . S
H284 C292 0.930 . S
H285 C293 0.930 . S
H286 C296 0.930 . S
H287 C297 0.930 . S
C288 H282 0.930 . S
C288 C289 1.355 . S
C288 C290 1.415 . S
C289 C288 1.355 . S
C289 C291 1.419 . S
C290 C288 1.415 . S
C290 C295 1.425 . S
C290 C297 1.409 . S
C291 H283 0.930 . S
C291 C289 1.419 . S
C291 C292 1.362 . S
C292 H284 0.930 . S
C292 C291 1.362 . S
C292 C295 1.409 . S
C293 H285 0.930 . S
C293 C294 1.355 . S
C293 C295 1.415 . S
C294 C293 1.355 . S
C294 C296 1.419 . S
C295 C290 1.425 . S
C295 C292 1.409 . S
C295 C293 1.415 . S
C296 H286 0.930 . S
C296 C294 1.419 . S
C296 C297 1.362 . S
C297 H287 0.930 . S
C297 C290 1.409 . S
C297 C296 1.362 . S
H298 C304 0.930 . S
H299 C307 0.930 . S
H300 C308 0.930 . S
H301 C309 0.930 . S
H302 C312 0.930 . S
H303 C313 0.930 . S
C304 H298 0.930 . S
C304 C305 1.355 . S
C304 C306 1.415 . S
C305 C304 1.355 . S
C305 C307 1.419 . S
C306 C304 1.415 . S
C306 C311 1.425 . S
C306 C313 1.409 . S
C307 H299 0.930 . S
C307 C305 1.419 . S
C307 C308 1.362 . S
C308 H300 0.930 . S
C308 C307 1.362 . S
C308 C311 1.409 . S
C309 H301 0.930 . S
C309 C310 1.355 . S
C309 C311 1.415 . S
C310 C309 1.355 . S
C310 C312 1.419 . S
C311 C306 1.425 . S
C311 C308 1.409 . S
C311 C309 1.415 . S
C312 H302 0.930 . S
C312 C310 1.419 . S
C312 C313 1.362 . S
C313 H303 0.930 . S
C313 C306 1.409 . S
C313 C312 1.362 . S
H314 C320 0.930 . S
H315 C323 0.930 . S
H316 C324 0.930 . S
H317 C325 0.930 . S
H318 C328 0.930 . S
H319 C329 0.930 . S
C320 H314 0.930 . S
C320 C321 1.355 . S
C320 C322 1.415 . S
C321 C320 1.355 . S
C321 C323 1.419 . S
C322 C320 1.415 . S
C322 C327 1.425 . S
C322 C329 1.409 . S
C323 H315 0.930 . S
C323 C321 1.419 . S
C323 C324 1.362 . S
C324 H316 0.930 . S
C324 C323 1.362 . S
C324 C327 1.409 . S
C325 H317 0.930 . S
C325 C326 1.355 . S
C325 C327 1.415 . S
C326 C325 1.355 . S
C326 C328 1.419 . S
C327 C322 1.425 . S
C327 C324 1.409 . S
C327 C325 1.415 . S
C328 H318 0.930 . S
C328 C326 1.419 . S
C328 C329 1.362 . S
C329 H319 0.930 . S
C329 C322 1.409 . S
C329 C328 1.362 . S
H330 C336 0.930 . S
H331 C339 0.930 . S
H332 C340 0.930 . S
H333 C341 0.930 . S
H334 C344 0.930 . S
H335 C345 0.930 . S
C336 H330 0.930 . S
C336 C337 1.355 . S
C336 C338 1.415 . S
C337 C336 1.355 . S
C337 C339 1.419 . S
C338 C336 1.415 . S
C338 C343 1.425 . S
C338 C345 1.409 . S
C339 H331 0.930 . S
C339 C337 1.419 . S
C339 C340 1.362 . S
C340 H332 0.930 . S
C340 C339 1.362 . S
C340 C343 1.409 . S
C341 H333 0.930 . S
C341 C342 1.355 . S
C341 C343 1.415 . S
C342 C341 1.355 . S
C342 C344 1.419 . S
C343 C338 1.425 . S
C343 C340 1.409 . S
C343 C341 1.415 . S
C344 H334 0.930 . S
C344 C342 1.419 . S
C344 C345 1.362 . S
C345 H335 0.930 . S
C345 C338 1.409 . S
C345 C344 1.362 . S
H346 C352 0.930 . S
H347 C355 0.930 . S
H348 C356 0.930 . S
H349 C357 0.930 . S
H350 C360 0.930 . S
H351 C361 0.930 . S
C352 H346 0.930 . S
C352 C353 1.355 . S
C352 C354 1.415 . S
C353 C352 1.355 . S
C353 C355 1.419 . S
C354 C352 1.415 . S
C354 C359 1.425 . S
C354 C361 1.409 . S
C355 H347 0.930 . S
C355 C353 1.419 . S
C355 C356 1.362 . S
C356 H348 0.930 . S
C356 C355 1.362 . S
C356 C359 1.409 . S
C357 H349 0.930 . S
C357 C358 1.355 . S
C357 C359 1.415 . S
C358 C357 1.355 . S
C358 C360 1.419 . S
C359 C354 1.425 . S
C359 C356 1.409 . S
C359 C357 1.415 . S
C360 H350 0.930 . S
C360 C358 1.419 . S
C360 C361 1.362 . S
C361 H351 0.930 . S
C361 C354 1.409 . S
C361 C360 1.362 . S
H362 C368 0.930 . S
H363 C371 0.930 . S
H364 C372 0.930 . S
H365 C373 0.930 . S
H366 C376 0.930 . S
H367 C377 0.930 . S
C368 H362 0.930 . S
C368 C369 1.355 . S
C368 C370 1.415 . S
C369 C368 1.355 . S
C369 C371 1.419 . S
C370 C368 1.415 . S
C370 C375 1.425 . S
C370 C377 1.409 . S
C371 H363 0.930 . S
C371 C369 1.419 . S
C371 C372 1.362 . S
C372 H364 0.930 . S
C372 C371 1.362 . S
C372 C375 1.409 . S
C373 H365 0.930 . S
C373 C374 1.355 . S
C373 C375 1.415 . S
C374 C373 1.355 . S
C374 C376 1.419 . S
C375 C370 1.425 . S
C375 C372 1.409 . S
C375 C373 1.415 . S
C376 H366 0.930 . S
C376 C374 1.419 . S
C376 C377 1.362 . S
C377 H367 0.930 . S
C377 C370 1.409 . S
C377 C376 1.362 . S
H378 C384 0.930 . S
H379 C387 0.930 . S
H380 C388 0.930 . S
H381 C389 0.930 . S
H382 C392 0.930 . S
H383 C393 0.930 . S
C384 H378 0.930 . S
C384 C385 1.355 . S
C384 C386 1.415 . S
C385 C384 1.355 . S
C385 C387 1.419 . S
C386 C384 1.415 . S
C386 C391 1.425 . S
C386 C393 1.409 . S
C387 H379 0.930 . S
C387 C385 1.419 . S
C387 C388 1.362 . S
C388 H380 0.930 . S
C388 C387 1.362 . S
C388 C391 1.409 . S
C389 H381 0.930 . S
C389 C390 1.355 . S
C389 C391 1.415 . S
C390 C389 1.355 . S
C390 C392 1.419 . S
C391 C386 1.425 . S
C391 C388 1.409 . S
C391 C389 1.415 . S
C392 H382 0.930 . S
C392 C390 1.419 . S
C392 C393 1.362 . S
C393 H383 0.930 . S
C393 C386 1.409 . S
C393 C392 1.362 . S
H394 C400 0.930 . S
H395 C403 0.930 . S
H396 C404 0.930 . S
H397 C405 0.930 . S
H398 C408 0.930 . S
H399 C409 0.930 . S
C400 H394 0.930 . S
C400 C401 1.355 . S
C400 C402 1.415 . S
C401 C400 1.355 . S
C401 C403 1.419 . S
C402 C400 1.415 . S
C402 C407 1.425 . S
C402 C409 1.409 . S
C403 H395 0.930 . S
C403 C401 1.419 . S
C403 C404 1.362 . S
C404 H396 0.930 . S
C404 C403 1.362 . S
C404 C407 1.409 . S
C405 H397 0.930 . S
C405 C406 1.355 . S
C405 C407 1.415 . S
C406 C405 1.355 . S
C406 C408 1.419 . S
C407 C402 1.425 . S
C407 C404 1.409 . S
C407 C405 1.415 . S
C408 H398 0.930 . S
C408 C406 1.419 . S
C408 C409 1.362 . S
C409 H399 0.930 . S
C409 C402 1.409 . S
C409 C408 1.362 . S
H410 C416 0.930 . S
H411 C419 0.930 . S
H412 C420 0.930 . S
H413 C421 0.930 . S
H414 C424 0.930 . S
H415 C425 0.930 . S
C416 H410 0.930 . S
C416 C417 1.355 . S
C416 C418 1.415 . S
C417 C416 1.355 . S
C417 C419 1.419 . S
C418 C416 1.415 . S
C418 C423 1.425 . S
C418 C425 1.409 . S
C419 H411 0.930 . S
C419 C417 1.419 . S
C419 C420 1.362 . S
C420 H412 0.930 . S
C420 C419 1.362 . S
C420 C423 1.409 . S
C421 H413 0.930 . S
C421 C422 1.355 . S
C421 C423 1.415 . S
C422 C421 1.355 . S
C422 C424 1.419 . S
C423 C418 1.425 . S
C423 C420 1.409 . S
C423 C421 1.415 . S
C424 H414 0.930 . S
C424 C422 1.419 . S
C424 C425 1.362 . S
C425 H415 0.930 . S
C425 C418 1.409 . S
C425 C424 1.362 . S
H426 C432 0.930 . S
H427 C435 0.930 . S
H428 C436 0.930 . S
H429 C437 0.930 1_655 S
H430 C440 0.930 . S
H431 C441 0.930 . S
C432 H426 0.930 . S
C432 C433 1.355 . S
C432 C434 1.415 . S
C433 C432 1.355 . S
C433 C435 1.419 1_455 S
C434 C432 1.415 . S
C434 C439 1.425 . S
C434 C441 1.409 . S
C435 H427 0.930 . S
C435 C433 1.419 1_655 S
C435 C436 1.362 . S
C436 H428 0.930 . S
C436 C435 1.362 . S
C436 C439 1.409 1_655 S
C437 H429 0.930 1_455 S
C437 C438 1.355 . S
C437 C439 1.415 1_556 S
C438 C437 1.355 . S
C438 C440 1.419 . S
C439 C434 1.425 . S
C439 C436 1.409 1_455 S
C439 C437 1.415 1_554 S
C440 H430 0.930 . S
C440 C438 1.419 . S
C440 C441 1.362 1_556 S
C441 H431 0.930 . S
C441 C434 1.409 . S
C441 C440 1.362 1_554 S
H442 C448 0.930 1_565 S
H443 C451 0.930 . S
H444 C452 0.930 . S
H445 C453 0.930 . S
H446 C456 0.930 . S
H447 C457 0.930 . S
C448 H442 0.930 1_545 S
C448 C449 1.355 . S
C448 C450 1.415 . S
C449 C448 1.355 . S
C449 C451 1.419 . S
C450 C448 1.415 . S
C450 C455 1.425 . S
C450 C457 1.409 1_545 S
C451 H443 0.930 . S
C451 C449 1.419 . S
C451 C452 1.362 . S
C452 H444 0.930 . S
C452 C451 1.362 . S
C452 C455 1.409 . S
C453 H445 0.930 . S
C453 C454 1.355 . S
C453 C455 1.415 . S
C454 C453 1.355 . S
C454 C456 1.419 1_545 S
C455 C450 1.425 . S
C455 C452 1.409 . S
C455 C453 1.415 . S
C456 H446 0.930 . S
C456 C454 1.419 1_565 S
C456 C457 1.362 . S
C457 H447 0.930 . S
C457 C450 1.409 1_565 S
C457 C456 1.362 . S
H458 C464 0.930 . S
H459 C467 0.930 . S
H460 C468 0.930 . S
H461 C469 0.930 . S
H462 C472 0.930 . S
H463 C473 0.930 . S
C464 H458 0.930 . S
C464 C465 1.355 . S
C464 C466 1.415 . S
C465 C464 1.355 . S
C465 C467 1.419 . S
C466 C464 1.415 . S
C466 C471 1.425 . S
C466 C473 1.409 . S
C467 H459 0.930 . S
C467 C465 1.419 . S
C467 C468 1.362 . S
C468 H460 0.930 . S
C468 C467 1.362 . S
C468 C471 1.409 . S
C469 H461 0.930 . S
C469 C470 1.355 . S
C469 C471 1.415 . S
C470 C469 1.355 . S
C470 C472 1.419 . S
C471 C466 1.425 . S
C471 C468 1.409 . S
C471 C469 1.415 . S
C472 H462 0.930 . S
C472 C470 1.419 . S
C472 C473 1.362 . S
C473 H463 0.930 . S
C473 C466 1.409 . S
C473 C472 1.362 . S
H474 C480 0.930 1_565 S
H475 C483 0.930 . S
H476 C484 0.930 . S
H477 C485 0.930 . S
H478 C488 0.930 . S
H479 C489 0.930 . S
C480 H474 0.930 1_545 S
C480 C481 1.355 . S
C480 C482 1.415 . S
C481 C480 1.355 . S
C481 C483 1.419 . S
C482 C480 1.415 . S
C482 C487 1.425 . S
C482 C489 1.409 1_545 S
C483 H475 0.930 . S
C483 C481 1.419 . S
C483 C484 1.362 . S
C484 H476 0.930 . S
C484 C483 1.362 . S
C484 C487 1.409 . S
C485 H477 0.930 . S
C485 C486 1.355 . S
C485 C487 1.415 . S
C486 C485 1.355 . S
C486 C488 1.419 1_545 S
C487 C482 1.425 . S
C487 C484 1.409 . S
C487 C485 1.415 . S
C488 H478 0.930 . S
C488 C486 1.419 1_565 S
C488 C489 1.362 . S
C489 H479 0.930 . S
C489 C482 1.409 1_565 S
C489 C488 1.362 . S
H490 C496 0.930 . S
H491 C499 0.930 . S
H492 C500 0.930 . S
H493 C501 0.930 . S
H494 C504 0.930 . S
H495 C505 0.930 . S
C496 H490 0.930 . S
C496 C497 1.355 . S
C496 C498 1.415 . S
C497 C496 1.355 . S
C497 C499 1.419 . S
C498 C496 1.415 . S
C498 C503 1.425 . S
C498 C505 1.409 . S
C499 H491 0.930 . S
C499 C497 1.419 . S
C499 C500 1.362 . S
C500 H492 0.930 . S
C500 C499 1.362 . S
C500 C503 1.409 . S
C501 H493 0.930 . S
C501 C502 1.355 . S
C501 C503 1.415 1_554 S
C502 C501 1.355 . S
C502 C504 1.419 . S
C503 C498 1.425 . S
C503 C500 1.409 . S
C503 C501 1.415 1_556 S
C504 H494 0.930 . S
C504 C502 1.419 . S
C504 C505 1.362 1_554 S
C505 H495 0.930 . S
C505 C498 1.409 . S
C505 C504 1.362 1_556 S
H506 C512 0.930 . S
H507 C515 0.930 . S
H508 C516 0.930 . S
H509 C517 0.930 . S
H510 C520 0.930 . S
H511 C521 0.930 . S
C512 H506 0.930 . S
C512 C513 1.355 . S
C512 C514 1.415 . S
C513 C512 1.355 . S
C513 C515 1.419 . S
C514 C512 1.415 . S
C514 C519 1.425 . S
C514 C521 1.409 . S
C515 H507 0.930 . S
C515 C513 1.419 . S
C515 C516 1.362 . S
C516 H508 0.930 . S
C516 C515 1.362 . S
C516 C519 1.409 . S
C517 H509 0.930 . S
C517 C518 1.355 . S
C517 C519 1.415 . S
C518 C517 1.355 . S
C518 C520 1.419 . S
C519 C514 1.425 . S
C519 C516 1.409 . S
C519 C517 1.415 . S
C520 H510 0.930 . S
C520 C518 1.419 . S
C520 C521 1.362 . S
C521 H511 0.930 . S
C521 C514 1.409 . S
C521 C520 1.362 . S
C241 C7 0.813 . S
C246 C226 0.740 . S
C257 C51 1.999 . S
C262 C188 1.916 . S
C273 C87 1.322 . S
C278 C207 1.236 . S
C289 C16 0.337 . S
C294 C221 0.255 . S
C310 C183 1.863 . S
C305 C42 1.907 . S
C326 C202 1.161 . S
C321 C96 1.150 . S
C337 C47 1.357 . S
C342 C150 1.275 . S
C353 C91 3.080 . S
C358 C164 3.051 1_655 S
C369 C2 1.915 . S
C374 C126 1.932 . S
C390 C145 1.129 . S
C385 C56 1.129 . S
C406 C169 3.066 . S
C401 C82 3.119 . S
C417 C11 2.018 . S
C422 C131 1.986 . S
C438 C160 1.737 . S
C433 C19 1.688 . S
C449 C50 1.425 . S
C454 C122 1.497 . S
C465 C99 1.570 . S
C470 C141 1.535 . S
C486 C198 1.561 . S
C481 C59 1.543 . S
C502 C217 1.366 . S
C497 C90 1.342 . S
C513 C10 1.468 . S
C518 C179 1.475 . S
