# Generated by pormake.
# Topology zzz, (3,6)-cn, num edge types: 1
# Building blocks:
#     Node 0, Type 0, BuildingBlock: BETDAH_clean_linker_0, # of connection points: 3
#     Node 1, Type 0, BuildingBlock: BETDAH_clean_linker_0, # of connection points: 3
#     Node 2, Type 0, BuildingBlock: BETDAH_clean_linker_0, # of connection points: 3
#     Node 3, Type 0, BuildingBlock: BETDAH_clean_linker_0, # of connection points: 3
#     Node 4, Type 0, BuildingBlock: BETDAH_clean_linker_0, # of connection points: 3
#     Node 5, Type 0, BuildingBlock: BETDAH_clean_linker_0, # of connection points: 3
#     Node 6, Type 0, BuildingBlock: BETDAH_clean_linker_0, # of connection points: 3
#     Node 7, Type 0, BuildingBlock: BETDAH_clean_linker_0, # of connection points: 3
#     Node 8, Type 1, BuildingBlock: PAMTUU_clean_sbu_0, # of connection points: 6
#     Node 9, Type 1, BuildingBlock: PAMTUU_clean_sbu_0, # of connection points: 6
#     Node 10, Type 1, BuildingBlock: PAMTUU_clean_sbu_0, # of connection points: 6
#     Node 11, Type 1, BuildingBlock: PAMTUU_clean_sbu_0, # of connection points: 6
#     Edge 12, Type (0, 1), BuildingBlock: OJICUG_clean_linker_0, # of connection points: 2
#     Edge 13, Type (0, 1), BuildingBlock: OJICUG_clean_linker_0, # of connection points: 2
#     Edge 14, Type (0, 1), BuildingBlock: OJICUG_clean_linker_0, # of connection points: 2
#     Edge 15, Type (0, 1), BuildingBlock: OJICUG_clean_linker_0, # of connection points: 2
#     Edge 16, Type (0, 1), BuildingBlock: OJICUG_clean_linker_0, # of connection points: 2
#     Edge 17, Type (0, 1), BuildingBlock: OJICUG_clean_linker_0, # of connection points: 2
#     Edge 18, Type (0, 1), BuildingBlock: OJICUG_clean_linker_0, # of connection points: 2
#     Edge 19, Type (0, 1), BuildingBlock: OJICUG_clean_linker_0, # of connection points: 2
#     Edge 20, Type (0, 1), BuildingBlock: OJICUG_clean_linker_0, # of connection points: 2
#     Edge 21, Type (0, 1), BuildingBlock: OJICUG_clean_linker_0, # of connection points: 2
#     Edge 22, Type (0, 1), BuildingBlock: OJICUG_clean_linker_0, # of connection points: 2
#     Edge 23, Type (0, 1), BuildingBlock: OJICUG_clean_linker_0, # of connection points: 2
#     Edge 24, Type (0, 1), BuildingBlock: OJICUG_clean_linker_0, # of connection points: 2
#     Edge 25, Type (0, 1), BuildingBlock: OJICUG_clean_linker_0, # of connection points: 2
#     Edge 26, Type (0, 1), BuildingBlock: OJICUG_clean_linker_0, # of connection points: 2
#     Edge 27, Type (0, 1), BuildingBlock: OJICUG_clean_linker_0, # of connection points: 2
#     Edge 28, Type (0, 1), BuildingBlock: OJICUG_clean_linker_0, # of connection points: 2
#     Edge 29, Type (0, 1), BuildingBlock: OJICUG_clean_linker_0, # of connection points: 2
#     Edge 30, Type (0, 1), BuildingBlock: OJICUG_clean_linker_0, # of connection points: 2
#     Edge 31, Type (0, 1), BuildingBlock: OJICUG_clean_linker_0, # of connection points: 2
#     Edge 32, Type (0, 1), BuildingBlock: OJICUG_clean_linker_0, # of connection points: 2
#     Edge 33, Type (0, 1), BuildingBlock: OJICUG_clean_linker_0, # of connection points: 2
#     Edge 34, Type (0, 1), BuildingBlock: OJICUG_clean_linker_0, # of connection points: 2
#     Edge 35, Type (0, 1), BuildingBlock: OJICUG_clean_linker_0, # of connection points: 2
# Relax obj value: 0.281
# Max RMSD: 0.253
# Mean RMSD: 0.116
data_MOF--net-zzz--node1-PAMTUU_clean_sbu_0--node2-BETDAH_clean_linker_0--edge1-OJICUG_clean_linker_0
_symmetry_space_group_name_H-M    P1
_symmetry_Int_Tables_number       1
_symmetry_cell_setting            triclinic
loop_
_symmetry_equiv_pos_as_xyz
'x, y, z'
_cell_length_a     36.414871
_cell_length_b     40.094809
_cell_length_c     12.039817
_cell_angle_alpha  103.66925
_cell_angle_beta   89.978988
_cell_angle_gamma 89.531911
loop_
_atom_site_label
_atom_site_type_symbol
_atom_site_fract_x
_atom_site_fract_y
_atom_site_fract_z
_atom_type_partial_charge
H0 H 0.84906 0.58438 0.5531 0.0
H1 H 0.7392 0.57199 0.41787 0.0
H2 H 0.78538 0.49825 0.58882 0.0
C3 C 0.82304 0.57114 0.54234 0.0
C4 C 0.82051 0.54138 0.58362 0.0
C5 C 0.79483 0.58136 0.47634 0.0
C6 C 0.76133 0.56373 0.4654 0.0
C7 C 0.75775 0.53315 0.50153 0.0
C8 C 0.78744 0.52219 0.56253 0.0
N9 N 0.72596 0.512 0.46929 0.0
C10 C 0.69905 0.51631 0.38877 0.0
H11 H 0.04899 0.83397 0.52243 0.0
H12 H 1.01931 0.73697 0.30552 0.0
H13 H 0.95306 0.78279 0.60072 0.0
C14 C 1.03202 0.8112 0.50528 0.0
C15 C 1.00127 0.81079 0.57401 0.0
C16 C 0.03845 0.78503 0.40733 0.0
C17 C 1.01478 0.75682 0.38268 0.0
C18 C 0.98434 0.75538 0.45434 0.0
C19 C 0.97735 0.78287 0.54879 0.0
N20 N 0.95937 0.72758 0.43013 0.0
C21 C 0.96603 0.6978 0.3463 0.0
H22 H 0.71674 0.95573 0.41473 0.0
H23 H 0.82825 0.96847 0.32123 0.0
H24 H 0.7883 0.01942 0.65715 0.0
C25 C 0.74409 0.96508 0.43906 0.0
C26 C 0.74901 0.98573 0.54973 0.0
C27 C 0.77203 0.95978 0.35546 0.0
C28 C 0.80684 0.97318 0.38561 0.0
C29 C 0.81304 0.99578 0.4917 0.0
C30 C 0.78389 1.00199 0.57479 0.0
N31 N 0.84745 0.01367 0.51173 0.0
C32 C 0.87495 0.01278 0.42749 0.0
H33 H 0.5393 0.68924 0.26007 0.0
H34 H 0.53398 0.75977 0.03978 0.0
H35 H 0.60424 0.77987 0.33697 0.0
C36 C 0.54611 0.71378 0.24212 0.0
C37 C 0.57226 0.73375 0.31044 0.0
C38 C 0.53264 0.72203 0.1431 0.0
C39 C 0.54328 0.75344 0.1178 0.0
C40 C 0.56797 0.77547 0.19158 0.0
C41 C 0.58328 0.76457 0.28519 0.0
N42 N 0.58194 0.80646 0.1689 0.0
C43 C 0.56544 0.82924 0.1113 0.0
H44 H 0.2259 0.4347 0.18921 0.0
H45 H 0.32502 0.46527 0.3707 0.0
H46 H 0.26777 0.53626 0.2121 0.0
C47 C 0.24589 0.45443 0.21967 0.0
C48 C 0.24121 0.4867 0.19381 0.0
C49 C 0.27248 0.44892 0.29875 0.0
C50 C 0.30262 0.47099 0.31898 0.0
C51 C 0.30144 0.50273 0.28919 0.0
C52 C 0.27007 0.51092 0.22844 0.0
N53 N 0.32964 0.52756 0.32967 0.0
C54 C 0.35791 0.52392 0.40681 0.0
H55 H 1.03408 0.18217 0.30274 0.0
H56 H 0.04779 0.28647 0.4886 0.0
H57 H 0.1149 0.24431 0.19116 0.0
C58 C 0.04718 0.20693 0.31234 0.0
C59 C 0.07541 0.21017 0.23753 0.0
C60 C 0.03681 0.23434 0.40214 0.0
C61 C 0.05512 0.26568 0.41679 0.0
C62 C 0.08302 0.26966 0.33918 0.0
C63 C 0.0932 0.24162 0.24997 0.0
N64 N 0.10156 0.30125 0.34932 0.0
C65 C 0.09192 0.33109 0.4292 0.0
H66 H 0.34785 0.94767 0.17375 0.0
H67 H 0.24847 0.96617 0.37206 0.0
H68 H 0.29059 0.04381 0.21188 0.0
C69 C 0.32399 0.96372 0.20316 0.0
C70 C 0.32225 0.99629 0.17981 0.0
C71 C 0.29803 0.95307 0.27403 0.0
C72 C 0.26808 0.97448 0.31674 0.0
C73 C 0.26462 0.00719 0.29455 0.0
C74 C 0.2923 0.01826 0.22693 0.0
N75 N 0.23466 0.0296 0.34302 0.0
C76 C 0.20694 0.02258 0.41671 0.0
H77 H 0.54451 0.33484 0.51381 0.0
H78 H 0.52934 0.26905 0.74489 0.0
H79 H 0.48308 0.24237 0.40632 0.0
C80 C 0.53584 0.31042 0.52896 0.0
C81 C 0.51435 0.28907 0.44649 0.0
C82 C 0.5404 0.30453 0.63786 0.0
C83 C 0.52727 0.27346 0.65977 0.0
C84 C 0.50855 0.24957 0.57272 0.0
C85 C 0.50062 0.25866 0.46872 0.0
N86 N 0.49128 0.21964 0.59288 0.0
C87 C 0.50638 0.19474 0.64433 0.0
Tb88 Tb 1.00687 0.02579 0.83233 0.0
Tb89 Tb 0.06922 0.99648 0.98101 0.0
C90 C 0.98711 0.01175 0.07469 0.0
C91 C 0.96396 0.08717 0.69732 0.0
C92 C 0.9718 0.15246 0.65126 0.0
C93 C 0.93711 0.13672 0.64362 0.0
C94 C 0.93322 0.10427 0.66691 0.0
C95 C 0.99833 0.103 0.70663 0.0
C96 C 1.00225 0.13517 0.68376 0.0
C97 C 0.96068 0.054 0.72757 0.0
O98 O 1.03022 0.06999 0.94868 0.0
O99 O 0.08546 0.04938 0.99784 0.0
O100 O 0.09379 0.99239 0.81126 0.0
O101 O 0.05912 0.03166 0.74636 0.0
O102 O 0.09526 0.99365 0.13481 0.0
O103 O 0.11312 0.96197 0.97331 0.0
O104 O 1.03112 0.95483 0.921 0.0
O105 O 1.00701 0.97063 0.76503 0.0
O106 O 0.97625 0.01026 0.96914 0.0
O107 O 1.0225 0.01259 0.09988 0.0
C108 C 0.06373 0.07485 0.98872 0.0
O109 O 0.98376 0.03021 0.67641 0.0
O110 O 0.95944 0.05619 0.8371 0.0
C111 C 0.08903 0.01254 0.74039 0.0
C112 C 0.11082 0.93582 0.12476 0.0
C113 C 0.10124 0.87078 0.17061 0.0
C114 C 0.13675 0.88379 0.16416 0.0
C115 C 0.1415 0.91606 0.1404 0.0
C116 C 0.07547 0.92313 0.13311 0.0
C117 C 0.07072 0.89101 0.1558 0.0
C118 C 0.11511 0.96718 0.08384 0.0
C119 C 1.01336 0.94748 0.8238 0.0
H120 H 0.91315 0.14931 0.61855 0.0
H121 H 0.90637 0.09254 0.66094 0.0
H122 H 1.02234 0.09031 0.73103 0.0
H123 H 1.02957 0.14583 0.68748 0.0
H124 H 0.16073 0.86889 0.17624 0.0
H125 H 0.16901 0.9253 0.13217 0.0
H126 H 0.05144 0.93785 0.12012 0.0
H127 H 0.04297 0.88228 0.16366 0.0
Tb128 Tb 0.5196 0.98622 0.74691 0.0
Tb129 Tb 0.54763 0.03234 0.9815 0.0
C130 C 0.54132 0.9522 0.94207 0.0
C131 C 0.46988 0.92413 0.52217 0.0
C132 C 0.40275 0.89215 0.45161 0.0
C133 C 0.42882 0.89733 0.37054 0.0
C134 C 0.46202 0.91335 0.40585 0.0
C135 C 0.44655 0.91494 0.60256 0.0
C136 C 0.41336 0.89855 0.56723 0.0
C137 C 0.49948 0.94866 0.55855 0.0
O138 O 0.46783 0.99808 0.8456 0.0
O139 O 0.48959 0.02623 0.0225 0.0
O140 O 0.51905 0.06844 0.90277 0.0
O141 O 0.52954 0.03817 0.7205 0.0
O142 O 0.55549 0.03841 0.15791 0.0
O143 O 0.5758 0.07604 0.0717 0.0
O144 O 0.59466 0.03003 0.86339 0.0
O145 O 0.57987 0.98008 0.73882 0.0
O146 O 0.51571 0.95331 0.86682 0.0
O147 O 0.56298 0.97875 0.97559 0.0
C148 C 0.46225 0.01264 0.95524 0.0
O149 O 0.48891 0.98052 0.59648 0.0
O150 O 0.52456 0.93978 0.62322 0.0
C151 C 0.5222 0.06756 0.79378 0.0
C152 C 0.61805 0.04995 0.17333 0.0
C153 C 0.67575 1.00153 0.13609 0.0
C154 C 0.67271 0.02521 0.06766 0.0
C155 C 0.64439 0.04948 0.08694 0.0
C156 C 0.62352 0.02869 0.24911 0.0
C157 C 0.65198 1.00461 0.23038 0.0
C158 C 0.58041 0.0616 0.15726 0.0
C159 C 0.6044 1.00354 0.78138 0.0
H160 H 0.42216 0.89286 0.28066 0.0
H161 H 0.48009 0.91991 0.34279 0.0
H162 H 0.45267 0.9227 0.69305 0.0
H163 H 0.39451 0.89409 0.63168 0.0
H164 H 0.69141 0.02421 0.99694 0.0
H165 H 0.64141 0.0658 0.02748 0.0
H166 H 0.6038 0.0285 0.31643 0.0
H167 H 0.65495 0.98797 0.28889 0.0
Tb168 Tb 0.49957 0.50835 0.98032 0.0
Tb169 Tb 0.56136 0.52064 0.79628 0.0
C170 C 0.47473 0.517 0.73662 0.0
C171 C 0.46335 0.45482 0.15283 0.0
C172 C 0.4742 0.39026 0.20787 0.0
C173 C 0.44504 0.41248 0.25717 0.0
C174 C 0.43933 0.44416 0.22833 0.0
C175 C 0.49243 0.43308 0.10485 0.0
C176 C 0.49717 0.401 0.12902 0.0
C177 C 0.45847 0.48767 0.11859 0.0
O178 O 0.51041 0.46018 0.85804 0.0
O179 O 0.56945 0.46699 0.80598 0.0
O180 O 0.58908 0.53214 0.96344 0.0
O181 O 0.55348 0.49971 0.05189 0.0
O182 O 0.58147 0.51369 0.62779 0.0
O183 O 0.61014 0.54526 0.76977 0.0
O184 O 0.53196 0.56905 0.84791 0.0
O185 O 0.50366 0.56449 0.01503 0.0
O186 O 0.46625 0.52225 0.8461 0.0
O187 O 0.50905 0.51064 0.70071 0.0
C188 C 0.54264 0.44704 0.82393 0.0
O189 O 0.48445 0.51009 0.15077 0.0
O190 O 0.4507 0.48434 0.01098 0.0
C191 C 0.584 0.51662 0.04702 0.0
C192 C 0.60598 0.56654 0.60592 0.0
C193 C 0.60492 0.62931 0.53607 0.0
C194 C 0.63833 0.612 0.5439 0.0
C195 C 0.63883 0.58102 0.57916 0.0
C196 C 0.57261 0.58328 0.59561 0.0
C197 C 0.57207 0.61417 0.56081 0.0
C198 C 0.60674 0.53691 0.65925 0.0
C199 C 0.51472 0.58288 0.94358 0.0
H200 H 0.42694 0.40596 0.31991 0.0
H201 H 0.41644 0.46035 0.26576 0.0
H202 H 0.51158 0.44086 0.04745 0.0
H203 H 0.5192 0.38487 0.08534 0.0
H204 H 0.66416 0.6228 0.52566 0.0
H205 H 0.66495 0.56887 0.58858 0.0
H206 H 0.5469 0.57287 0.61705 0.0
H207 H 0.54572 0.62612 0.553 0.0
Tb208 Tb 0.04912 0.53466 0.80265 0.0
Tb209 Tb 1.01132 0.49473 0.97086 0.0
C210 C 1.01163 0.57531 0.02391 0.0
C211 C 0.1215 0.53857 0.62315 0.0
C212 C 0.17427 0.48511 0.56669 0.0
C213 C 0.17317 0.50669 0.67703 0.0
C214 C 0.14726 0.53322 0.70461 0.0
C215 C 0.12399 0.51836 0.51132 0.0
C216 C 0.14987 0.49187 0.48372 0.0
C217 C 0.08639 0.556 0.66217 0.0
O218 O 0.09096 0.53322 0.93501 0.0
O219 O 0.07027 0.48684 0.99621 0.0
O220 O 1.02031 0.4561 0.81344 0.0
O221 O 0.06949 0.48227 0.75642 0.0
O222 O 1.00447 0.48834 0.13809 0.0
O223 O 0.97322 0.45833 0.99837 0.0
O224 O 0.96541 0.51765 0.89519 0.0
O225 O 0.99377 0.52151 0.73029 0.0
O226 O 1.01758 0.57481 0.91617 0.0
O227 O 1.01675 0.54783 0.06309 0.0
C228 C 0.09669 0.50872 0.98967 0.0
O229 O 0.0579 0.53645 0.63197 0.0
O230 O 0.08458 0.57249 0.76966 0.0
C231 C 0.04952 0.45498 0.74952 0.0
C232 C 0.94036 0.49114 0.15592 0.0
C233 C 0.88889 0.54596 0.21055 0.0
C234 C 0.88541 0.52 0.10973 0.0
C235 C 0.91053 0.49289 0.08328 0.0
C236 C 0.94232 0.51538 0.26091 0.0
C237 C 0.91704 0.54245 0.28771 0.0
C238 C 0.97385 0.472 0.10809 0.0
C239 C 0.96332 0.52045 0.78874 0.0
H240 H 0.19154 0.50255 0.74325 0.0
H241 H 0.14597 0.54814 0.79196 0.0
H242 H 0.10418 0.52143 0.44723 0.0
H243 H 0.15033 0.47647 0.39721 0.0
H244 H 0.86402 0.52082 0.04838 0.0
H245 H 0.90794 0.47471 1.00139 0.0
H246 H 0.96487 0.51476 0.31911 0.0
H247 H 0.91989 0.56052 0.3695 0.0
C248 C 0.14389 0.03794 0.49865 0.0
C249 C 0.17673 0.01887 0.49507 0.0
H250 H 0.09084 0.05105 0.57683 0.0
C251 C 0.18017 0.99717 0.57083 0.0
H252 H 0.1403 0.05498 0.44172 0.0
C253 C 0.15173 0.99483 0.64865 0.0
C254 C 0.11884 0.01418 0.65363 0.0
H255 H 0.20506 0.98218 0.57077 0.0
H256 H 0.15578 0.97799 0.70597 0.0
C257 C 0.11544 0.03566 0.57651 0.0
C258 C 0.5217 0.13239 0.60463 0.0
C259 C 0.51406 0.16354 0.68393 0.0
H260 H 0.53016 0.07785 0.57599 0.0
C261 C 0.5095 0.16304 0.79925 0.0
H262 H 0.52474 0.13191 0.51473 0.0
C263 C 0.5123 0.13203 0.83452 0.0
C264 C 0.51948 0.10057 0.75519 0.0
H265 H 0.50298 0.18653 0.86199 0.0
H266 H 0.50838 0.13274 0.92421 0.0
C267 C 0.52447 0.10132 0.63972 0.0
C268 C 0.42462 0.52074 0.45737 0.0
C269 C 0.38736 0.52154 0.4891 0.0
H270 H 0.48107 0.51833 0.50829 0.0
C271 C 0.37901 0.52073 0.60252 0.0
H272 H 0.43208 0.52168 0.37108 0.0
C273 C 0.40714 0.5193 0.6822 0.0
C274 C 0.44461 0.51831 0.65083 0.0
H275 H 0.35063 0.52139 0.63003 0.0
H276 H 0.3994 0.51885 0.76868 0.0
C277 C 0.45278 0.51889 0.53655 0.0
C278 C 0.0459 0.36548 0.5577 0.0
C279 C 0.08142 0.36188 0.51152 0.0
H280 H 1.00795 0.39787 0.67095 0.0
C281 C 0.10666 0.38845 0.54489 0.0
H282 H 1.02599 0.3452 0.53209 0.0
C283 C 0.09632 0.41875 0.62278 0.0
C284 C 0.06067 0.42258 0.6696 0.0
H285 H 0.13429 0.3858 0.51049 0.0
H286 H 0.11628 0.43906 0.64661 0.0
C287 C 0.03564 0.39555 0.63697 0.0
C288 C 0.94103 0.01477 0.36675 0.0
C289 C 0.90338 0.01241 0.33916 0.0
H290 H 0.99669 0.01637 0.30716 0.0
C291 C 0.89359 0.00988 0.22447 0.0
H292 H 0.94962 0.01685 0.45421 0.0
C293 C 0.92055 0.00968 0.1398 0.0
C294 C 0.95841 0.01197 0.1666 0.0
H295 H 0.86493 0.00809 0.19995 0.0
H296 H 0.91157 0.00769 0.05277 0.0
C297 C 0.9681 0.0145 0.28197 0.0
C298 C 0.58024 0.88889 0.1056 0.0
C299 C 0.55803 0.85989 0.06829 0.0
H300 H 0.59261 0.94038 0.09597 0.0
C301 C 0.52993 0.86133 0.98967 0.0
H302 H 0.60218 0.8885 0.16611 0.0
C303 C 0.52434 0.89125 0.949 0.0
C304 C 0.54677 0.92039 0.98594 0.0
H305 H 0.51242 0.83936 0.95933 0.0
H306 H 0.50249 0.89147 0.88816 0.0
C307 C 0.57474 0.91869 0.06518 0.0
C308 C 0.67576 0.53279 0.21182 0.0
C309 C 0.6698 0.51779 0.3048 0.0
H310 H 0.65395 0.54437 0.05871 0.0
C311 C 0.63529 0.50306 0.31354 0.0
H312 H 0.70201 0.54434 0.20228 0.0
C313 C 0.60768 0.50286 0.23093 0.0
C314 C 0.61355 0.5175 0.13659 0.0
H315 H 0.62968 0.49134 0.38408 0.0
H316 H 0.58165 0.49103 0.24103 0.0
C317 C 0.64808 0.53273 0.12921 0.0
C318 C 0.98596 0.66846 0.15182 0.0
C319 C 0.97555 0.66698 0.26263 0.0
H320 H 1.00565 0.64038 0.98811 0.0
C321 C 0.97627 0.6356 0.2941 0.0
H322 H 0.98565 0.69269 0.12672 0.0
C323 C 0.98785 0.60588 0.21594 0.0
C324 C 0.99892 0.60708 0.1048 0.0
H325 H 0.96835 0.63411 0.37958 0.0
H326 H 0.98827 0.58199 0.24314 0.0
C327 C 0.99746 0.63863 0.07302 0.0
C328 C 0.97809 0.20909 0.44569 0.0
C329 C 1.01014 0.22727 0.48598 0.0
H330 H 0.94069 0.1704 0.46687 0.0
C331 C 1.02191 0.22859 0.59773 0.0
H332 H 0.9683 0.20808 0.35997 0.0
C333 C 1.00574 0.20728 0.66016 0.0
C334 C 0.97803 0.18418 0.61061 0.0
H335 H 0.04639 0.24263 0.63108 0.0
H336 H 1.01759 0.20622 0.74178 0.0
C337 C 0.96226 0.18745 0.50721 0.0
C338 C 0.3114 0.93053 0.44387 0.0
C339 C 0.30794 0.92393 0.32459 0.0
H340 H 0.34482 0.92405 0.58142 0.0
C341 C 0.32548 0.89473 0.25727 0.0
H342 H 0.29746 0.95226 0.49876 0.0
C343 C 0.35273 0.87789 0.3055 0.0
C344 C 0.36313 0.89102 0.42003 0.0
H345 H 0.32215 0.88823 0.16527 0.0
H346 H 0.36948 0.85862 0.24918 0.0
C347 C 0.33891 0.91405 0.49167 0.0
C348 C 0.57972 0.35567 0.71469 0.0
C349 C 0.54866 0.33602 0.72781 0.0
H350 H 0.60217 0.40615 0.73222 0.0
C351 C 0.51874 0.35296 0.79062 0.0
H352 H 0.60296 0.34343 0.66463 0.0
C353 C 0.51764 0.38882 0.82482 0.0
C354 C 0.54693 0.40885 0.80052 0.0
H355 H 0.49413 0.33887 0.80029 0.0
H356 H 0.49258 0.40081 0.8639 0.0
C357 C 0.57886 0.39173 0.75064 0.0
C358 C 0.26861 0.44931 0.50342 0.0
C359 C 0.26094 0.43123 0.39036 0.0
H360 H 0.24561 0.48543 0.64589 0.0
C361 C 0.22711 0.41398 0.37555 0.0
H362 H 0.29592 0.45862 0.5282 0.0
C363 C 0.19735 0.42928 0.44271 0.0
C364 C 0.20326 0.45828 0.53291 0.0
H365 H 0.22141 0.39516 0.29696 0.0
H366 H 0.16983 0.42131 0.41523 0.0
C367 C 0.23944 0.46499 0.57208 0.0
C368 C 0.09778 0.80856 0.35802 0.0
C369 C 0.0643 0.79237 0.32141 0.0
H370 H 0.13584 0.84711 0.33855 0.0
C371 C 0.05039 0.7941 0.21421 0.0
H372 H 0.10937 0.80714 0.43968 0.0
C373 C 0.06572 0.8168 0.15569 0.0
C374 C 0.09501 0.83799 0.204 0.0
H375 H 1.02484 0.78167 0.18313 0.0
H376 H 0.05215 0.82049 0.07935 0.0
C377 C 0.11291 0.83154 0.30012 0.0
C378 C 0.72963 0.93089 0.20158 0.0
C379 C 0.76143 0.9505 0.23277 0.0
H380 H 0.67416 0.93362 0.14569 0.0
C381 C 0.77031 0.97467 0.16917 0.0
H382 H 0.72331 0.9101 0.24168 0.0
C383 C 0.74222 0.9885 0.11526 0.0
C384 C 0.70636 0.97652 0.12056 0.0
H385 H 0.7959 0.98858 0.1826 0.0
H386 H 0.74748 0.01205 0.08897 0.0
C387 C 0.70131 0.94463 0.14778 0.0
C388 C 0.53512 0.67677 0.96296 0.0
C389 C 0.51506 0.69294 0.06064 0.0
H390 H 0.55092 0.62926 0.84994 0.0
C391 C 0.48829 0.67358 0.10209 0.0
H392 H 0.55609 0.69072 0.92927 0.0
C393 C 0.48658 0.63784 0.06062 0.0
C394 C 0.51036 0.621 0.97314 0.0
H395 H 0.47239 0.68534 0.17746 0.0
H396 H 0.46837 0.62327 0.10201 0.0
C397 C 0.53269 0.6412 0.91934 0.0
C398 C 0.79579 0.58447 0.27666 0.0
C399 C 0.80473 0.6012 0.38966 0.0
H400 H 0.81664 0.54853 0.13193 0.0
C401 C 0.83862 0.61825 0.40303 0.0
H402 H 0.76814 0.57577 0.25395 0.0
C403 C 0.86765 0.60323 0.33171 0.0
C404 C 0.8608 0.57395 0.24298 0.0
H405 H 0.84516 0.63608 0.48307 0.0
H406 H 0.89537 0.61147 0.3556 0.0
C407 C 0.82416 0.56837 0.20568 0.0
C408 C 0.10588 0.15347 0.17911 0.0
C409 C 0.08488 0.17945 0.14852 0.0
H410 H 0.11579 0.09933 0.1513 0.0
C411 C 0.06251 0.17128 0.05152 0.0
H412 H 0.12265 0.15927 0.25548 0.0
C413 C 0.05785 0.1371 0.99389 0.0
C414 C 0.07567 0.11064 0.03212 0.0
H415 H 0.04556 0.19086 0.02805 0.0
H416 H 0.03822 0.13131 0.92464 0.0
C417 C 0.10152 0.11918 0.12057 0.0
C418 C 0.38122 0.02933 0.17005 0.0
C419 C 0.35423 1.00641 0.11415 0.0
H420 H 0.43587 0.04921 0.16568 0.0
C421 C 0.36237 0.98733 1.0023 0.0
H422 H 0.37662 0.04371 0.25716 0.0
C423 C 0.39642 0.99047 0.94919 0.0
C424 C 0.42414 0.01227 0.00684 0.0
H425 H 0.34283 0.96874 0.95736 0.0
H426 H 0.40158 0.97454 0.8645 0.0
C427 C 0.41556 0.03211 0.11763 0.0
C428 C 0.46492 0.3138 0.34562 0.0
C429 C 0.50179 0.30365 0.35031 0.0
H430 H 0.42684 0.34819 0.29425 0.0
C431 C 0.52811 0.3177 0.28986 0.0
H432 H 0.44405 0.30363 0.39233 0.0
C433 C 0.51884 0.34459 0.23949 0.0
C434 C 0.48253 0.35751 0.2442 0.0
H435 H 0.55681 0.31062 0.29314 0.0
H436 H 0.54114 0.35675 0.20538 0.0
C437 C 0.45533 0.34023 0.29219 0.0
C438 C 0.19981 0.51874 0.07547 0.0
C439 C 0.20428 0.49454 0.14301 0.0
H440 H 0.16317 0.54264 0.97566 0.0
C441 C 0.17215 0.47687 0.16226 0.0
H442 H 0.22314 0.53327 0.05802 0.0
C443 C 0.13809 0.48175 0.11348 0.0
C444 C 0.13374 0.50506 0.04388 0.0
H445 H 0.17271 0.45886 0.21608 0.0
H446 H 0.11493 0.467 0.1311 0.0
C447 C 0.16515 0.52397 0.02714 0.0
C448 C 1.01332 0.85065 0.76081 0.0
C449 C 0.99284 0.84264 0.65961 0.0
H450 H 0.03558 0.89039 0.89347 0.0
C451 C 0.97427 0.86894 0.62318 0.0
H452 H 1.02855 0.83077 0.78861 0.0
C453 C 0.97907 0.90317 0.68084 0.0
C454 C 1.00232 0.91153 0.77633 0.0
H455 H 0.95904 0.86327 0.5437 0.0
H456 H 0.96641 0.9231 0.64642 0.0
C457 C 1.01774 0.88486 0.81954 0.0
C458 C 0.69221 0.96267 0.62849 0.0
C459 C 0.71552 0.99082 0.62914 0.0
H460 H 0.64007 0.94451 0.67189 0.0
C461 C 0.70289 0.02339 0.69067 0.0
H462 H 0.70066 0.937 0.58428 0.0
C463 C 0.6676 0.02763 0.74365 0.0
C464 C 0.64353 0.99955 0.73536 0.0
H465 H 0.71944 0.04586 0.69319 0.0
H466 H 0.65858 0.05318 0.78708 0.0
C467 C 0.65702 0.96697 0.67884 0.0
C468 C 0.57069 0.71516 0.4927 0.0
C469 C 0.59051 0.71785 0.39525 0.0
H470 H 0.56026 0.68554 0.61562 0.0
C471 C 0.61958 0.69467 0.35739 0.0
H472 H 0.54762 0.73221 0.52201 0.0
C473 C 0.6261 0.66713 0.40826 0.0
C474 C 0.60369 0.66231 0.49838 0.0
H475 H 0.63454 0.69557 0.28036 0.0
H476 H 0.64656 0.64808 0.37037 0.0
C477 C 0.57738 0.68784 0.54425 0.0
C478 C 0.88723 0.52236 0.5671 0.0
C479 C 0.85509 0.52982 0.63454 0.0
H480 H 0.94574 0.5138 0.56056 0.0
C481 C 0.85885 0.53299 0.75296 0.0
H482 H 0.8856 0.52025 0.47596 0.0
C483 C 0.89364 0.52954 0.80203 0.0
C484 C 0.92595 0.52292 0.73493 0.0
H485 H 0.83519 0.53978 0.80847 0.0
H486 H 0.89548 0.53342 0.89359 0.0
C487 C 0.92193 0.519 0.61607 0.0
loop_
_geom_bond_atom_site_label_1
_geom_bond_atom_site_label_2
_geom_bond_distance
_geom_bond_site_symmetry_2
_ccdc_geom_bond_type
H0 C3 0.929 . S
H1 C6 0.929 . S
H2 C8 0.930 . S
C3 H0 0.929 . S
C3 C4 1.398 . S
C3 C5 1.396 . S
C4 C3 1.398 . S
C4 C8 1.407 . S
C5 C3 1.396 . S
C5 C6 1.394 . S
C6 H1 0.929 . S
C6 C5 1.394 . S
C6 C7 1.382 . S
C7 C6 1.382 . S
C7 C8 1.392 . S
C7 N9 1.420 . S
C8 H2 0.930 . S
C8 C4 1.407 . S
C8 C7 1.392 . S
N9 C7 1.420 . S
N9 C10 1.244 . S
C10 N9 1.244 . S
H11 C14 0.929 . S
H12 C17 0.929 . S
H13 C19 0.930 . S
C14 H11 0.929 . S
C14 C15 1.395 1_655 S
C14 C16 1.394 1_655 S
C15 C14 1.395 1_455 S
C15 C19 1.414 . S
C16 C14 1.394 1_455 S
C16 C17 1.397 . S
C17 H12 0.929 . S
C17 C16 1.397 . S
C17 C18 1.382 . S
C18 C17 1.382 . S
C18 C19 1.392 . S
C18 N20 1.420 . S
C19 H13 0.930 . S
C19 C15 1.414 . S
C19 C18 1.392 . S
N20 C18 1.420 . S
N20 C21 1.232 1_455 S
C21 N20 1.232 1_655 S
H22 C25 0.929 . S
H23 C28 0.929 . S
H24 C30 0.930 . S
C25 H22 0.929 . S
C25 C26 1.403 1_565 S
C25 C27 1.390 1_565 S
C26 C25 1.403 1_545 S
C26 C30 1.415 . S
C27 C25 1.390 1_545 S
C27 C28 1.398 . S
C28 H23 0.929 . S
C28 C27 1.398 . S
C28 C29 1.382 . S
C29 C28 1.382 . S
C29 C30 1.392 . S
C29 N31 1.420 . S
C30 H24 0.930 . S
C30 C26 1.415 . S
C30 C29 1.392 . S
N31 C29 1.420 . S
N31 C32 1.238 1_545 S
C32 N31 1.238 1_565 S
H33 C36 0.929 . S
H34 C39 0.929 . S
H35 C41 0.930 . S
C36 H33 0.929 . S
C36 C37 1.398 . S
C36 C38 1.396 1_554 S
C37 C36 1.398 . S
C37 C41 1.407 . S
C38 C36 1.396 1_556 S
C38 C39 1.394 . S
C39 H34 0.929 . S
C39 C38 1.394 . S
C39 C40 1.382 1_556 S
C40 C39 1.382 1_554 S
C40 C41 1.392 . S
C40 N42 1.420 . S
C41 H35 0.930 . S
C41 C37 1.407 . S
C41 C40 1.392 . S
N42 C40 1.420 . S
N42 C43 1.244 1_554 S
C43 N42 1.244 1_556 S
H44 C47 0.929 . S
H45 C50 0.929 . S
H46 C52 0.932 . S
C47 H44 0.929 . S
C47 C48 1.398 . S
C47 C49 1.396 . S
C48 C47 1.398 . S
C48 C52 1.407 . S
C49 C47 1.396 . S
C49 C50 1.394 . S
C50 H45 0.929 . S
C50 C49 1.394 . S
C50 C51 1.382 . S
C51 C50 1.382 . S
C51 C52 1.392 . S
C51 N53 1.420 . S
C52 H46 0.932 . S
C52 C48 1.407 . S
C52 C51 1.392 . S
N53 C51 1.420 . S
N53 C54 1.244 . S
C54 N53 1.244 . S
H55 C58 0.929 . S
H56 C61 0.929 . S
H57 C63 0.930 . S
C58 H55 0.929 . S
C58 C59 1.398 1_655 S
C58 C60 1.394 1_655 S
C59 C58 1.398 1_455 S
C59 C63 1.407 . S
C60 C58 1.394 1_455 S
C60 C61 1.399 . S
C61 H56 0.929 . S
C61 C60 1.399 . S
C61 C62 1.382 . S
C62 C61 1.382 . S
C62 C63 1.392 . S
C62 N64 1.420 . S
C63 H57 0.930 . S
C63 C59 1.407 . S
C63 C62 1.392 . S
N64 C62 1.420 . S
N64 C65 1.235 1_455 S
C65 N64 1.235 1_655 S
H66 C69 0.929 . S
H67 C72 0.929 . S
H68 C74 0.930 . S
C69 H66 0.929 . S
C69 C70 1.398 1_565 S
C69 C71 1.400 1_565 S
C70 C69 1.398 1_545 S
C70 C74 1.407 . S
C71 C69 1.400 1_545 S
C71 C72 1.398 . S
C72 H67 0.929 . S
C72 C71 1.398 . S
C72 C73 1.382 . S
C73 C72 1.382 . S
C73 C74 1.392 . S
C73 N75 1.420 . S
C74 H68 0.930 . S
C74 C70 1.407 . S
C74 C73 1.392 . S
N75 C73 1.420 . S
N75 C76 1.231 1_545 S
C76 N75 1.231 1_565 S
H77 C80 0.929 . S
H78 C83 0.929 . S
H79 C85 0.930 . S
C80 H77 0.929 . S
C80 C81 1.398 . S
C80 C82 1.396 . S
C81 C80 1.398 . S
C81 C85 1.407 . S
C82 C80 1.396 . S
C82 C83 1.394 . S
C83 H78 0.929 . S
C83 C82 1.394 . S
C83 C84 1.382 . S
C84 C83 1.382 . S
C84 C85 1.392 . S
C84 N86 1.420 . S
C85 H79 0.930 . S
C85 C81 1.407 . S
C85 C84 1.392 . S
N86 C84 1.420 . S
N86 C87 1.244 . S
C87 N86 1.244 . S
Tb88 C97 2.764 . S
Tb88 O98 2.325 . S
Tb88 O101 2.303 1_655 S
Tb88 O105 2.322 1_545 S
Tb88 O106 2.349 . S
Tb88 O109 2.415 . S
Tb88 O110 2.399 . S
Tb89 O99 2.322 1_566 S
Tb89 O100 2.349 . S
Tb89 O102 2.415 1_556 S
Tb89 O103 2.399 1_556 S
Tb89 O104 2.325 . S
Tb89 O107 2.303 1_455 S
Tb89 C118 2.764 1_556 S
C90 O106 1.261 . S
C90 O107 1.257 1_545 S
C91 C94 1.358 . S
C91 C95 1.332 . S
C91 C97 1.504 . S
C92 C93 1.373 . S
C92 C96 1.308 . S
C93 C92 1.373 . S
C93 C94 1.429 . S
C93 H120 0.932 . S
C94 C91 1.358 . S
C94 C93 1.429 . S
C94 H121 0.930 . S
C95 C91 1.332 . S
C95 C96 1.394 . S
C95 H122 0.932 1_655 S
C96 C92 1.308 . S
C96 C95 1.394 . S
C96 H123 0.929 . S
C97 Tb88 2.764 . S
C97 C91 1.504 . S
C97 O109 1.239 . S
C97 O110 1.263 . S
O98 Tb88 2.325 . S
O98 C108 1.236 1_655 S
O99 Tb89 2.322 1_544 S
O99 C108 1.257 1_554 S
O100 Tb89 2.349 . S
O100 C111 1.261 . S
O101 Tb88 2.303 1_455 S
O101 C111 1.257 1_545 S
O102 Tb89 2.415 1_554 S
O102 C118 1.239 . S
O103 Tb89 2.399 1_554 S
O103 C118 1.263 . S
O104 Tb89 2.325 . S
O104 C119 1.236 1_455 S
O105 Tb88 2.322 1_565 S
O105 C119 1.257 . S
O106 Tb88 2.349 . S
O106 C90 1.261 . S
O107 Tb89 2.303 1_655 S
O107 C90 1.257 1_565 S
C108 O98 1.236 1_455 S
C108 O99 1.257 1_556 S
O109 Tb88 2.415 . S
O109 C97 1.239 . S
O110 Tb88 2.399 . S
O110 C97 1.263 . S
C111 O100 1.261 . S
C111 O101 1.257 1_565 S
C112 C115 1.358 . S
C112 C116 1.332 . S
C112 C118 1.504 . S
C113 C114 1.373 . S
C113 C117 1.308 . S
C114 C113 1.373 . S
C114 C115 1.429 . S
C114 H124 0.932 . S
C115 C112 1.358 . S
C115 C114 1.429 . S
C115 H125 0.930 . S
C116 C112 1.332 . S
C116 C117 1.394 . S
C116 H126 0.932 1_455 S
C117 C113 1.308 . S
C117 C116 1.394 . S
C117 H127 0.929 . S
C118 Tb89 2.764 1_554 S
C118 O102 1.239 . S
C118 O103 1.263 . S
C118 C112 1.504 . S
C119 O104 1.236 1_655 S
C119 O105 1.257 . S
H120 C93 0.932 . S
H121 C94 0.930 . S
H122 C95 0.932 1_455 S
H123 C96 0.929 . S
H124 C114 0.932 . S
H125 C115 0.930 . S
H126 C116 0.932 1_655 S
H127 C117 0.929 . S
Tb128 C137 2.764 . S
Tb128 O138 2.325 . S
Tb128 O141 2.303 1_565 S
Tb128 O145 2.322 . S
Tb128 O146 2.349 . S
Tb128 O149 2.415 1_565 S
Tb128 O150 2.399 . S
Tb129 O139 2.322 . S
Tb129 O140 2.349 1_554 S
Tb129 O142 2.415 1_545 S
Tb129 O143 2.399 . S
Tb129 O144 2.325 1_554 S
Tb129 O147 2.303 1_544 S
Tb129 C158 2.764 . S
C130 O146 1.261 . S
C130 O147 1.257 . S
C131 C134 1.358 . S
C131 C135 1.332 1_565 S
C131 C137 1.504 . S
C132 C133 1.373 . S
C132 C136 1.308 1_565 S
C133 C132 1.373 . S
C133 C134 1.429 . S
C133 H160 0.932 . S
C134 C131 1.358 . S
C134 C133 1.429 . S
C134 H161 0.930 . S
C135 C131 1.332 1_545 S
C135 C136 1.394 . S
C135 H162 0.932 . S
C136 C132 1.308 1_545 S
C136 C135 1.394 . S
C136 H163 0.929 . S
C137 Tb128 2.764 . S
C137 C131 1.504 . S
C137 O149 1.239 1_565 S
C137 O150 1.263 . S
O138 Tb128 2.325 . S
O138 C148 1.236 1_565 S
O139 Tb129 2.322 . S
O139 C148 1.257 1_554 S
O140 Tb129 2.349 1_556 S
O140 C151 1.261 . S
O141 Tb128 2.303 1_545 S
O141 C151 1.257 . S
O142 Tb129 2.415 1_565 S
O142 C158 1.239 1_565 S
O143 Tb129 2.399 . S
O143 C158 1.263 . S
O144 Tb129 2.325 1_556 S
O144 C159 1.236 1_545 S
O145 Tb128 2.322 . S
O145 C159 1.257 . S
O146 Tb128 2.349 . S
O146 C130 1.261 . S
O147 Tb129 2.303 1_566 S
O147 C130 1.257 . S
C148 O138 1.236 1_545 S
C148 O139 1.257 1_556 S
O149 Tb128 2.415 1_545 S
O149 C137 1.239 1_545 S
O150 Tb128 2.399 . S
O150 C137 1.263 . S
C151 O140 1.261 . S
C151 O141 1.257 . S
C152 C155 1.358 . S
C152 C156 1.332 1_545 S
C152 C158 1.504 . S
C153 C154 1.373 . S
C153 C157 1.308 1_545 S
C154 C153 1.373 . S
C154 C155 1.429 . S
C154 H164 0.932 . S
C155 C152 1.358 . S
C155 C154 1.429 . S
C155 H165 0.930 . S
C156 C152 1.332 1_565 S
C156 C157 1.394 . S
C156 H166 0.932 . S
C157 C153 1.308 1_565 S
C157 C156 1.394 . S
C157 H167 0.929 . S
C158 Tb129 2.764 . S
C158 O142 1.239 1_545 S
C158 O143 1.263 . S
C158 C152 1.504 . S
C159 O144 1.236 1_565 S
C159 O145 1.257 . S
H160 C133 0.932 . S
H161 C134 0.930 . S
H162 C135 0.932 . S
H163 C136 0.929 . S
H164 C154 0.932 . S
H165 C155 0.930 . S
H166 C156 0.932 . S
H167 C157 0.929 . S
Tb168 C177 2.764 . S
Tb168 O178 2.325 1_554 S
Tb168 O181 2.303 1_554 S
Tb168 O185 2.322 1_554 S
Tb168 O186 2.349 1_554 S
Tb168 O189 2.415 . S
Tb168 O190 2.399 . S
Tb169 O179 2.322 . S
Tb169 O180 2.349 . S
Tb169 O182 2.415 . S
Tb169 O183 2.399 . S
Tb169 O184 2.325 . S
Tb169 O187 2.303 . S
Tb169 C198 2.764 . S
C170 O186 1.261 . S
C170 O187 1.257 . S
C171 C174 1.358 . S
C171 C175 1.332 . S
C171 C177 1.504 . S
C172 C173 1.373 . S
C172 C176 1.308 . S
C173 C172 1.373 . S
C173 C174 1.429 . S
C173 H200 0.932 . S
C174 C171 1.358 . S
C174 C173 1.429 . S
C174 H201 0.930 . S
C175 C171 1.332 . S
C175 C176 1.394 . S
C175 H202 0.932 . S
C176 C172 1.308 . S
C176 C175 1.394 . S
C176 H203 0.929 . S
C177 Tb168 2.764 . S
C177 C171 1.504 . S
C177 O189 1.239 . S
C177 O190 1.263 . S
O178 Tb168 2.325 1_556 S
O178 C188 1.236 . S
O179 Tb169 2.322 . S
O179 C188 1.257 . S
O180 Tb169 2.349 . S
O180 C191 1.261 . S
O181 Tb168 2.303 1_556 S
O181 C191 1.257 . S
O182 Tb169 2.415 . S
O182 C198 1.239 . S
O183 Tb169 2.399 . S
O183 C198 1.263 . S
O184 Tb169 2.325 . S
O184 C199 1.236 . S
O185 Tb168 2.322 1_556 S
O185 C199 1.257 . S
O186 Tb168 2.349 1_556 S
O186 C170 1.261 . S
O187 Tb169 2.303 . S
O187 C170 1.257 . S
C188 O178 1.236 . S
C188 O179 1.257 . S
O189 Tb168 2.415 . S
O189 C177 1.239 . S
O190 Tb168 2.399 . S
O190 C177 1.263 . S
C191 O180 1.261 . S
C191 O181 1.257 . S
C192 C195 1.358 . S
C192 C196 1.332 . S
C192 C198 1.504 . S
C193 C194 1.373 . S
C193 C197 1.308 . S
C194 C193 1.373 . S
C194 C195 1.429 . S
C194 H204 0.932 . S
C195 C192 1.358 . S
C195 C194 1.429 . S
C195 H205 0.930 . S
C196 C192 1.332 . S
C196 C197 1.394 . S
C196 H206 0.932 . S
C197 C193 1.308 . S
C197 C196 1.394 . S
C197 H207 0.929 . S
C198 Tb169 2.764 . S
C198 O182 1.239 . S
C198 O183 1.263 . S
C198 C192 1.504 . S
C199 O184 1.236 . S
C199 O185 1.257 . S
H200 C173 0.932 . S
H201 C174 0.930 . S
H202 C175 0.932 . S
H203 C176 0.929 . S
H204 C194 0.932 . S
H205 C195 0.930 . S
H206 C196 0.932 . S
H207 C197 0.929 . S
Tb208 C217 2.764 . S
Tb208 O218 2.325 . S
Tb208 O221 2.303 . S
Tb208 O225 2.322 1_455 S
Tb208 O226 2.349 . S
Tb208 O229 2.415 . S
Tb208 O230 2.399 . S
Tb209 O219 2.322 1_655 S
Tb209 O220 2.349 . S
Tb209 O222 2.415 1_556 S
Tb209 O223 2.399 1_556 S
Tb209 O224 2.325 . S
Tb209 O227 2.303 . S
Tb209 C238 2.764 1_556 S
C210 O226 1.261 . S
C210 O227 1.257 1_455 S
C211 C214 1.358 . S
C211 C215 1.332 . S
C211 C217 1.504 . S
C212 C213 1.373 . S
C212 C216 1.308 . S
C213 C212 1.373 . S
C213 C214 1.429 . S
C213 H240 0.932 . S
C214 C211 1.358 . S
C214 C213 1.429 . S
C214 H241 0.930 . S
C215 C211 1.332 . S
C215 C216 1.394 . S
C215 H242 0.932 . S
C216 C212 1.308 . S
C216 C215 1.394 . S
C216 H243 0.929 . S
C217 Tb208 2.764 . S
C217 C211 1.504 . S
C217 O229 1.239 . S
C217 O230 1.263 . S
O218 Tb208 2.325 . S
O218 C228 1.236 . S
O219 Tb209 2.322 1_455 S
O219 C228 1.257 . S
O220 Tb209 2.349 . S
O220 C231 1.261 . S
O221 Tb208 2.303 . S
O221 C231 1.257 1_455 S
O222 Tb209 2.415 1_554 S
O222 C238 1.239 . S
O223 Tb209 2.399 1_554 S
O223 C238 1.263 . S
O224 Tb209 2.325 . S
O224 C239 1.236 . S
O225 Tb208 2.322 1_655 S
O225 C239 1.257 . S
O226 Tb208 2.349 . S
O226 C210 1.261 . S
O227 Tb209 2.303 . S
O227 C210 1.257 1_655 S
C228 O218 1.236 . S
C228 O219 1.257 . S
O229 Tb208 2.415 . S
O229 C217 1.239 . S
O230 Tb208 2.399 . S
O230 C217 1.263 . S
C231 O220 1.261 . S
C231 O221 1.257 1_655 S
C232 C235 1.358 . S
C232 C236 1.332 . S
C232 C238 1.504 . S
C233 C234 1.373 . S
C233 C237 1.308 . S
C234 C233 1.373 . S
C234 C235 1.429 . S
C234 H244 0.932 . S
C235 C232 1.358 . S
C235 C234 1.429 . S
C235 H245 0.930 . S
C236 C232 1.332 . S
C236 C237 1.394 . S
C236 H246 0.932 . S
C237 C233 1.308 . S
C237 C236 1.394 . S
C237 H247 0.929 . S
C238 Tb209 2.764 1_554 S
C238 O222 1.239 . S
C238 O223 1.263 . S
C238 C232 1.504 . S
C239 O224 1.236 . S
C239 O225 1.257 . S
H240 C213 0.932 . S
H241 C214 0.930 . S
H242 C215 0.932 . S
H243 C216 0.929 . S
H244 C234 0.932 . S
H245 C235 0.930 . S
H246 C236 0.932 . S
H247 C237 0.929 . S
C248 C249 1.408 . S
C248 H252 0.950 . S
C248 C257 1.390 . S
C249 C248 1.408 . S
C249 C251 1.361 1_545 S
H250 C257 0.950 . S
C251 C249 1.361 1_565 S
C251 C253 1.390 . S
C251 H255 0.950 . S
H252 C248 0.950 . S
C253 C251 1.390 . S
C253 C254 1.387 1_565 S
C253 H256 0.950 . S
C254 C253 1.387 1_545 S
C254 C257 1.387 . S
H255 C251 0.950 . S
H256 C253 0.950 . S
C257 C248 1.390 . S
C257 H250 0.950 . S
C257 C254 1.387 . S
C258 C259 1.387 . S
C258 H262 0.950 . S
C258 C267 1.390 . S
C259 C258 1.387 . S
C259 C261 1.387 . S
H260 C267 0.950 . S
C261 C259 1.387 . S
C261 C263 1.390 . S
C261 H265 0.950 . S
H262 C258 0.950 . S
C263 C261 1.390 . S
C263 C264 1.387 . S
C263 H266 0.950 1_556 S
C264 C263 1.387 . S
C264 C267 1.387 . S
H265 C261 0.950 . S
H266 C263 0.950 1_554 S
C267 C258 1.390 . S
C267 H260 0.950 . S
C267 C264 1.387 . S
C268 C269 1.387 . S
C268 H272 0.950 . S
C268 C277 1.390 . S
C269 C268 1.387 . S
C269 C271 1.387 . S
H270 C277 0.950 . S
C271 C269 1.387 . S
C271 C273 1.390 . S
C271 H275 0.950 . S
H272 C268 0.950 . S
C273 C271 1.390 . S
C273 C274 1.387 . S
C273 H276 0.950 . S
C274 C273 1.387 . S
C274 C277 1.387 . S
H275 C271 0.950 . S
H276 C273 0.950 . S
C277 C268 1.390 . S
C277 H270 0.950 . S
C277 C274 1.387 . S
C278 C279 1.382 1_655 S
C278 H282 0.950 . S
C278 C287 1.390 . S
C279 C278 1.382 1_455 S
C279 C281 1.393 . S
H280 C287 0.950 . S
C281 C279 1.393 . S
C281 C283 1.390 . S
C281 H285 0.950 . S
H282 C278 0.950 . S
C283 C281 1.390 . S
C283 C284 1.416 . S
C283 H286 0.950 . S
C284 C283 1.416 . S
C284 C287 1.359 1_455 S
H285 C281 0.950 . S
H286 C283 0.950 . S
C287 C278 1.390 . S
C287 H280 0.950 . S
C287 C284 1.359 1_655 S
C288 C289 1.371 1_545 S
C288 H292 0.950 . S
C288 C297 1.390 . S
C289 C288 1.371 1_565 S
C289 C291 1.400 . S
H290 C297 0.950 . S
C291 C289 1.400 . S
C291 C293 1.390 . S
C291 H295 0.950 . S
H292 C288 0.950 . S
C293 C291 1.390 . S
C293 C294 1.387 . S
C293 H296 0.950 . S
C294 C293 1.387 . S
C294 C297 1.387 1_565 S
H295 C291 0.950 . S
H296 C293 0.950 . S
C297 C288 1.390 . S
C297 H290 0.950 . S
C297 C294 1.387 1_545 S
C298 C299 1.387 1_554 S
C298 H302 0.950 . S
C298 C307 1.390 . S
C299 C298 1.387 1_556 S
C299 C301 1.387 . S
H300 C307 0.950 . S
C301 C299 1.387 . S
C301 C303 1.390 . S
C301 H305 0.950 . S
H302 C298 0.950 . S
C303 C301 1.390 . S
C303 C304 1.387 . S
C303 H306 0.950 . S
C304 C303 1.387 . S
C304 C307 1.387 1_556 S
H305 C301 0.950 . S
H306 C303 0.950 . S
C307 C298 1.390 . S
C307 H300 0.950 . S
C307 C304 1.387 1_554 S
C308 C309 1.387 . S
C308 H312 0.950 . S
C308 C317 1.390 . S
C309 C308 1.387 . S
C309 C311 1.387 . S
H310 C317 0.950 . S
C311 C309 1.387 . S
C311 C313 1.390 . S
C311 H315 0.950 . S
H312 C308 0.950 . S
C313 C311 1.390 . S
C313 C314 1.387 . S
C313 H316 0.950 . S
C314 C313 1.387 . S
C314 C317 1.387 . S
H315 C311 0.950 . S
H316 C313 0.950 . S
C317 C308 1.390 . S
C317 H310 0.950 . S
C317 C314 1.387 . S
C318 C319 1.381 1_455 S
C318 H322 0.950 . S
C318 C327 1.390 . S
C319 C318 1.381 1_655 S
C319 C321 1.394 . S
H320 C327 0.950 . S
C321 C319 1.394 . S
C321 C323 1.390 . S
C321 H325 0.950 . S
H322 C318 0.950 . S
C323 C321 1.390 . S
C323 C324 1.415 . S
C323 H326 0.950 . S
C324 C323 1.415 . S
C324 C327 1.360 1_655 S
H325 C321 0.950 . S
H326 C323 0.950 . S
C327 C318 1.390 . S
C327 H320 0.950 . S
C327 C324 1.360 1_455 S
C328 C329 1.387 . S
C328 H332 0.950 . S
C328 C337 1.390 . S
C329 C328 1.387 . S
C329 C331 1.387 . S
H330 C337 0.950 . S
C331 C329 1.387 . S
C331 C333 1.390 . S
C331 H335 0.950 . S
H332 C328 0.950 . S
C333 C331 1.390 . S
C333 C334 1.387 . S
C333 H336 0.950 . S
C334 C333 1.387 . S
C334 C337 1.387 . S
H335 C331 0.950 . S
H336 C333 0.950 . S
C337 C328 1.390 . S
C337 H330 0.950 . S
C337 C334 1.387 . S
C338 C339 1.387 . S
C338 H342 0.950 . S
C338 C347 1.390 1_545 S
C339 C338 1.387 . S
C339 C341 1.387 1_545 S
H340 C347 0.950 . S
C341 C339 1.387 1_565 S
C341 C343 1.390 . S
C341 H345 0.950 . S
H342 C338 0.950 . S
C343 C341 1.390 . S
C343 C344 1.387 . S
C343 H346 0.950 . S
C344 C343 1.387 . S
C344 C347 1.387 . S
H345 C341 0.950 . S
H346 C343 0.950 . S
C347 C338 1.390 1_565 S
C347 H340 0.950 . S
C347 C344 1.387 . S
C348 C349 1.387 . S
C348 H352 0.950 . S
C348 C357 1.390 . S
C349 C348 1.387 . S
C349 C351 1.387 . S
H350 C357 0.950 . S
C351 C349 1.387 . S
C351 C353 1.390 . S
C351 H355 0.950 1_556 S
H352 C348 0.950 . S
C353 C351 1.390 . S
C353 C354 1.387 . S
C353 H356 0.950 1_556 S
C354 C353 1.387 . S
C354 C357 1.387 . S
H355 C351 0.950 1_554 S
H356 C353 0.950 1_554 S
C357 C348 1.390 . S
C357 H350 0.950 . S
C357 C354 1.387 . S
C358 C359 1.387 . S
C358 H362 0.950 . S
C358 C367 1.390 . S
C359 C358 1.387 . S
C359 C361 1.387 . S
H360 C367 0.950 . S
C361 C359 1.387 . S
C361 C363 1.390 . S
C361 H365 0.950 . S
H362 C358 0.950 . S
C363 C361 1.390 . S
C363 C364 1.387 . S
C363 H366 0.950 . S
C364 C363 1.387 . S
C364 C367 1.387 . S
H365 C361 0.950 . S
H366 C363 0.950 . S
C367 C358 1.390 . S
C367 H360 0.950 . S
C367 C364 1.387 . S
C368 C369 1.387 . S
C368 H372 0.950 . S
C368 C377 1.390 . S
C369 C368 1.387 . S
C369 C371 1.387 . S
H370 C377 0.950 . S
C371 C369 1.387 . S
C371 C373 1.390 . S
C371 H375 0.950 . S
H372 C368 0.950 . S
C373 C371 1.390 . S
C373 C374 1.387 . S
C373 H376 0.950 . S
C374 C373 1.387 . S
C374 C377 1.387 . S
H375 C371 0.950 . S
H376 C373 0.950 . S
C377 C368 1.390 . S
C377 H370 0.950 . S
C377 C374 1.387 . S
C378 C379 1.387 . S
C378 H382 0.950 . S
C378 C387 1.403 . S
C379 C378 1.387 . S
C379 C381 1.387 1_565 S
H380 C387 0.958 . S
C381 C379 1.387 1_545 S
C381 C383 1.390 . S
C381 H385 0.950 . S
H382 C378 0.950 . S
C383 C381 1.390 . S
C383 C384 1.387 . S
C383 H386 0.950 . S
C384 C383 1.387 . S
C384 C387 1.367 1_545 S
H385 C381 0.950 . S
H386 C383 0.950 . S
C387 C378 1.403 . S
C387 H380 0.958 . S
C387 C384 1.367 1_565 S
C388 C389 1.387 . S
C388 H392 0.950 . S
C388 C397 1.390 . S
C389 C388 1.387 . S
C389 C391 1.387 . S
H390 C397 0.950 . S
C391 C389 1.387 . S
C391 C393 1.390 1_556 S
C391 H395 0.950 1_556 S
H392 C388 0.950 . S
C393 C391 1.390 1_554 S
C393 C394 1.387 1_554 S
C393 H396 0.950 . S
C394 C393 1.387 1_556 S
C394 C397 1.387 . S
H395 C391 0.950 1_554 S
H396 C393 0.950 . S
C397 C388 1.390 . S
C397 H390 0.950 . S
C397 C394 1.387 . S
C398 C399 1.387 . S
C398 H402 0.950 . S
C398 C407 1.390 . S
C399 C398 1.387 . S
C399 C401 1.387 . S
H400 C407 0.950 . S
C401 C399 1.387 . S
C401 C403 1.390 . S
C401 H405 0.950 . S
H402 C398 0.950 . S
C403 C401 1.390 . S
C403 C404 1.387 . S
C403 H406 0.950 . S
C404 C403 1.387 . S
C404 C407 1.387 . S
H405 C401 0.950 . S
H406 C403 0.950 . S
C407 C398 1.390 . S
C407 H400 0.950 . S
C407 C404 1.387 . S
C408 C409 1.387 1_556 S
C408 H412 0.950 . S
C408 C417 1.390 . S
C409 C408 1.387 1_554 S
C409 C411 1.387 1_455 S
H410 C417 0.950 . S
C411 C409 1.387 1_655 S
C411 C413 1.389 1_655 S
C411 H415 0.950 . S
H412 C408 0.950 . S
C413 C411 1.389 1_455 S
C413 C414 1.392 . S
C413 H416 0.947 1_455 S
C414 C413 1.392 . S
C414 C417 1.387 1_554 S
H415 C411 0.950 . S
H416 C413 0.947 1_655 S
C417 C408 1.390 . S
C417 H410 0.950 . S
C417 C414 1.387 1_556 S
C418 C419 1.387 . S
C418 H422 0.950 . S
C418 C427 1.390 . S
C419 C418 1.387 . S
C419 C421 1.387 1_544 S
H420 C427 0.950 . S
C421 C419 1.387 1_566 S
C421 C423 1.390 . S
C421 H425 0.950 . S
H422 C418 0.950 . S
C423 C421 1.390 . S
C423 C424 1.387 1_565 S
C423 H426 0.950 . S
C424 C423 1.387 1_545 S
C424 C427 1.387 1_556 S
H425 C421 0.950 . S
H426 C423 0.950 . S
C427 C418 1.390 . S
C427 H420 0.950 . S
C427 C424 1.387 1_554 S
C428 C429 1.387 . S
C428 H432 0.950 . S
C428 C437 1.390 . S
C429 C428 1.387 . S
C429 C431 1.387 . S
H430 C437 0.950 . S
C431 C429 1.387 . S
C431 C433 1.390 . S
C431 H435 0.950 . S
H432 C428 0.950 . S
C433 C431 1.390 . S
C433 C434 1.387 . S
C433 H436 0.950 . S
C434 C433 1.387 . S
C434 C437 1.387 . S
H435 C431 0.950 . S
H436 C433 0.950 . S
C437 C428 1.390 . S
C437 H430 0.950 . S
C437 C434 1.387 . S
C438 C439 1.387 . S
C438 H442 0.950 . S
C438 C447 1.390 . S
C439 C438 1.387 . S
C439 C441 1.387 1_556 S
H440 C447 0.950 . S
C441 C439 1.387 1_554 S
C441 C443 1.390 . S
C441 H445 0.950 . S
H442 C438 0.950 . S
C443 C441 1.390 . S
C443 C444 1.387 1_554 S
C443 H446 0.950 . S
C444 C443 1.387 1_556 S
C444 C447 1.387 . S
H445 C441 0.950 . S
H446 C443 0.950 . S
C447 C438 1.390 . S
C447 H440 0.950 . S
C447 C444 1.387 . S
C448 C449 1.387 1_455 S
C448 H452 0.950 . S
C448 C457 1.390 . S
C449 C448 1.387 1_655 S
C449 C451 1.387 . S
H450 C457 0.950 . S
C451 C449 1.387 . S
C451 C453 1.390 . S
C451 H455 0.950 . S
H452 C448 0.950 . S
C453 C451 1.390 . S
C453 C454 1.387 . S
C453 H456 0.950 . S
C454 C453 1.387 . S
C454 C457 1.387 1_655 S
H455 C451 0.950 . S
H456 C453 0.950 . S
C457 C448 1.390 . S
C457 H450 0.950 . S
C457 C454 1.387 1_455 S
C458 C459 1.387 . S
C458 H462 0.950 . S
C458 C467 1.390 . S
C459 C458 1.387 . S
C459 C461 1.387 1_565 S
H460 C467 0.950 . S
C461 C459 1.387 1_545 S
C461 C463 1.390 . S
C461 H465 0.950 . S
H462 C458 0.950 . S
C463 C461 1.390 . S
C463 C464 1.387 1_545 S
C463 H466 0.950 . S
C464 C463 1.387 1_565 S
C464 C467 1.387 . S
H465 C461 0.950 . S
H466 C463 0.950 . S
C467 C458 1.390 . S
C467 H460 0.950 . S
C467 C464 1.387 . S
C468 C469 1.387 . S
C468 H472 0.950 . S
C468 C477 1.390 . S
C469 C468 1.387 . S
C469 C471 1.387 . S
H470 C477 0.950 . S
C471 C469 1.387 . S
C471 C473 1.390 . S
C471 H475 0.950 . S
H472 C468 0.950 . S
C473 C471 1.390 . S
C473 C474 1.387 . S
C473 H476 0.950 . S
C474 C473 1.387 . S
C474 C477 1.387 . S
H475 C471 0.950 . S
H476 C473 0.950 . S
C477 C468 1.390 . S
C477 H470 0.950 . S
C477 C474 1.387 . S
C478 C479 1.387 . S
C478 H482 0.950 . S
C478 C487 1.390 . S
C479 C478 1.387 . S
C479 C481 1.387 . S
H480 C487 0.950 . S
C481 C479 1.387 . S
C481 C483 1.390 . S
C481 H485 0.950 . S
H482 C478 0.950 . S
C483 C481 1.390 . S
C483 C484 1.387 . S
C483 H486 0.950 . S
C484 C483 1.387 . S
C484 C487 1.387 . S
H485 C481 0.950 . S
H486 C483 0.950 . S
C487 C478 1.390 . S
C487 H480 0.950 . S
C487 C484 1.387 . S
C249 C76 2.024 1_545 S
C254 C111 2.274 1_545 S
C264 C151 1.812 . S
C259 C87 1.803 . S
C274 C170 2.286 . S
C269 C54 2.032 . S
C284 C231 1.571 1_455 S
C279 C65 1.407 1_455 S
C294 C90 2.275 1_564 S
C289 C32 2.015 . S
C299 C43 1.813 . S
C304 C130 1.816 . S
C309 C10 2.042 . S
C314 C191 2.286 1_554 S
C319 C21 1.402 . S
C324 C210 1.570 1_654 S
C334 C92 1.149 . S
C329 C60 1.211 1_655 S
C344 C132 0.591 . S
C339 C71 0.577 . S
C354 C188 1.366 . S
C349 C82 1.186 . S
C359 C49 0.713 . S
C364 C212 0.711 . S
C369 C16 1.216 . S
C374 C113 1.160 . S
C384 C153 0.599 . S
C379 C27 0.598 1_565 S
C394 C199 1.365 . S
C389 C38 1.172 . S
C399 C5 0.718 . S
C404 C233 0.723 . S
C409 C59 1.634 . S
C414 C108 1.860 1_554 S
C419 C70 2.316 . S
C424 C148 2.591 . S
C434 C172 1.643 . S
C429 C81 1.667 . S
C444 C228 2.582 . S
C439 C48 2.313 1_556 S
C449 C15 1.639 1_655 S
C454 C119 1.866 . S
C464 C159 2.591 . S
C459 C26 2.310 1_565 S
C474 C193 1.640 . S
C469 C37 1.683 . S
C479 C4 2.310 . S
C484 C239 2.586 . S
