# Generated by pormake.
# Topology zzz, (3,6)-cn, num edge types: 1
# Building blocks:
#     Node 0, Type 0, BuildingBlock: KAKCAD_clean_linker_0, # of connection points: 3
#     Node 1, Type 0, BuildingBlock: KAKCAD_clean_linker_0, # of connection points: 3
#     Node 2, Type 0, BuildingBlock: KAKCAD_clean_linker_0, # of connection points: 3
#     Node 3, Type 0, BuildingBlock: KAKCAD_clean_linker_0, # of connection points: 3
#     Node 4, Type 0, BuildingBlock: KAKCAD_clean_linker_0, # of connection points: 3
#     Node 5, Type 0, BuildingBlock: KAKCAD_clean_linker_0, # of connection points: 3
#     Node 6, Type 0, BuildingBlock: KAKCAD_clean_linker_0, # of connection points: 3
#     Node 7, Type 0, BuildingBlock: KAKCAD_clean_linker_0, # of connection points: 3
#     Node 8, Type 1, BuildingBlock: KUMBOL_clean_sbu_1, # of connection points: 6
#     Node 9, Type 1, BuildingBlock: KUMBOL_clean_sbu_1, # of connection points: 6
#     Node 10, Type 1, BuildingBlock: KUMBOL_clean_sbu_1, # of connection points: 6
#     Node 11, Type 1, BuildingBlock: KUMBOL_clean_sbu_1, # of connection points: 6
#     Edge 12, Type (0, 1), BuildingBlock: XIVTED_clean_linker_0, # of connection points: 2
#     Edge 13, Type (0, 1), BuildingBlock: XIVTED_clean_linker_0, # of connection points: 2
#     Edge 14, Type (0, 1), BuildingBlock: XIVTED_clean_linker_0, # of connection points: 2
#     Edge 15, Type (0, 1), BuildingBlock: XIVTED_clean_linker_0, # of connection points: 2
#     Edge 16, Type (0, 1), BuildingBlock: XIVTED_clean_linker_0, # of connection points: 2
#     Edge 17, Type (0, 1), BuildingBlock: XIVTED_clean_linker_0, # of connection points: 2
#     Edge 18, Type (0, 1), BuildingBlock: XIVTED_clean_linker_0, # of connection points: 2
#     Edge 19, Type (0, 1), BuildingBlock: XIVTED_clean_linker_0, # of connection points: 2
#     Edge 20, Type (0, 1), BuildingBlock: XIVTED_clean_linker_0, # of connection points: 2
#     Edge 21, Type (0, 1), BuildingBlock: XIVTED_clean_linker_0, # of connection points: 2
#     Edge 22, Type (0, 1), BuildingBlock: XIVTED_clean_linker_0, # of connection points: 2
#     Edge 23, Type (0, 1), BuildingBlock: XIVTED_clean_linker_0, # of connection points: 2
#     Edge 24, Type (0, 1), BuildingBlock: XIVTED_clean_linker_0, # of connection points: 2
#     Edge 25, Type (0, 1), BuildingBlock: XIVTED_clean_linker_0, # of connection points: 2
#     Edge 26, Type (0, 1), BuildingBlock: XIVTED_clean_linker_0, # of connection points: 2
#     Edge 27, Type (0, 1), BuildingBlock: XIVTED_clean_linker_0, # of connection points: 2
#     Edge 28, Type (0, 1), BuildingBlock: XIVTED_clean_linker_0, # of connection points: 2
#     Edge 29, Type (0, 1), BuildingBlock: XIVTED_clean_linker_0, # of connection points: 2
#     Edge 30, Type (0, 1), BuildingBlock: XIVTED_clean_linker_0, # of connection points: 2
#     Edge 31, Type (0, 1), BuildingBlock: XIVTED_clean_linker_0, # of connection points: 2
#     Edge 32, Type (0, 1), BuildingBlock: XIVTED_clean_linker_0, # of connection points: 2
#     Edge 33, Type (0, 1), BuildingBlock: XIVTED_clean_linker_0, # of connection points: 2
#     Edge 34, Type (0, 1), BuildingBlock: XIVTED_clean_linker_0, # of connection points: 2
#     Edge 35, Type (0, 1), BuildingBlock: XIVTED_clean_linker_0, # of connection points: 2
# Relax obj value: 0.310
# Max RMSD: 0.208
# Mean RMSD: 0.181
data_MOF--net-zzz--node1-KUMBOL_clean_sbu_1--node2-KAKCAD_clean_linker_0--edge1-XIVTED_clean_linker_0
_symmetry_space_group_name_H-M    P1
_symmetry_Int_Tables_number       1
_symmetry_cell_setting            triclinic
loop_
_symmetry_equiv_pos_as_xyz
'x, y, z'
_cell_length_a     57.017253
_cell_length_b     57.116181
_cell_length_c     21.089539
_cell_angle_alpha  89.925614
_cell_angle_beta   89.881157
_cell_angle_gamma 90.463599
loop_
_atom_site_label
_atom_site_type_symbol
_atom_site_fract_x
_atom_site_fract_y
_atom_site_fract_z
_atom_type_partial_charge
C0 C 0.79025 0.59062 0.9851 0.0
C1 C 0.81356 0.58295 0.98437 0.0
C2 C 0.77634 0.58722 0.0391 0.0
C3 C 0.78536 0.57552 0.09252 0.0
C4 C 0.80913 0.56914 0.09251 0.0
C5 C 0.82308 0.57304 0.03939 0.0
C6 C 0.76976 0.56743 0.14489 0.0
C7 C 0.74702 0.55944 0.13184 0.0
C8 C 0.73325 0.54859 0.17865 0.0
C9 C 0.7427 0.54497 0.23987 0.0
C10 C 0.76554 0.55336 0.25396 0.0
C11 C 0.77843 0.56505 0.2066 0.0
C12 C 0.77789 0.54895 0.31499 0.0
C13 C 0.78882 0.5679 0.34605 0.0
C14 C 0.78433 0.52607 0.33214 0.0
C15 C 0.80269 0.52236 0.37545 0.0
C16 C 0.8149 0.54147 0.40193 0.0
C17 C 0.70946 0.54085 0.15901 0.0
C18 C 0.69057 0.55633 0.16484 0.0
C19 C 0.70735 0.52188 0.11712 0.0
C20 C 0.68744 0.51925 0.07894 0.0
C21 C 0.66897 0.53551 0.08166 0.0
C22 C 0.67051 0.55364 0.12688 0.0
C23 C 0.80724 0.56421 0.38852 0.0
H24 H 0.78254 0.59827 0.94307 0.0
H25 H 0.75826 0.59286 0.03787 0.0
H26 H 0.81672 0.55961 0.13171 0.0
H27 H 0.84085 0.56645 0.03972 0.0
H28 H 0.74011 0.56078 0.08413 0.0
H29 H 0.79593 0.57143 0.21739 0.0
H30 H 0.73254 0.53578 0.27568 0.0
H31 H 0.78446 0.58571 0.33319 0.0
H32 H 0.77662 0.51116 0.30801 0.0
H33 H 0.80846 0.50466 0.38464 0.0
H34 H 0.69204 0.57149 0.19546 0.0
H35 H 0.72198 0.51016 0.11016 0.0
H36 H 0.81645 0.57922 0.40805 0.0
H37 H 0.65659 0.56631 0.13147 0.0
H38 H 0.68734 0.50526 0.04437 0.0
C39 C 0.95686 0.80217 0.9682 0.0
C40 C 0.96872 0.82375 0.96831 0.0
C41 C 0.95623 0.78843 0.02303 0.0
C42 C 0.96806 0.79578 0.07821 0.0
C43 C 0.97895 0.81796 0.07861 0.0
C44 C 0.97906 0.83188 0.02445 0.0
C45 C 0.97099 0.77974 0.13311 0.0
C46 C 0.97416 0.75574 0.12348 0.0
C47 C 0.97915 0.74064 0.17406 0.0
C48 C 0.98198 0.74996 0.23576 0.0
C49 C 0.97835 0.77415 0.24618 0.0
C50 C 0.9725 0.78857 0.19481 0.0
C51 C 0.98094 0.78578 0.30885 0.0
C52 C 0.96212 0.79892 0.33238 0.0
C53 C 1.00321 0.78908 0.33584 0.0
C54 C 1.00683 0.80633 0.38245 0.0
C55 C 0.98828 0.82081 0.40264 0.0
C56 C 0.98107 0.71538 0.15854 0.0
C57 C 0.96146 0.7039 0.13251 0.0
C58 C 1.00311 0.70481 0.15318 0.0
C59 C 1.00565 0.68387 0.11893 0.0
C60 C 0.98622 0.6732 0.08879 0.0
C61 C 0.96396 0.68315 0.0981 0.0
C62 C 0.96572 0.81622 0.37822 0.0
H63 H 0.94882 0.79561 0.92517 0.0
H64 H 0.94716 0.77171 0.02141 0.0
H65 H 0.98867 0.82412 0.11943 0.0
H66 H 0.98872 0.8483 0.02523 0.0
H67 H 0.97345 0.74863 0.07587 0.0
H68 H 0.96962 0.80706 0.20308 0.0
H69 H 0.98635 0.73857 0.27501 0.0
H70 H 0.94485 0.79705 0.31152 0.0
H71 H 0.01812 0.77951 0.31774 0.0
H72 H 0.02438 0.80886 0.40078 0.0
H73 H 0.94434 0.71198 0.13469 0.0
H74 H 0.01859 0.71355 0.17158 0.0
H75 H 0.95094 0.82699 0.39112 0.0
H76 H 0.94857 0.67587 0.07527 0.0
H77 H 0.02303 0.67659 0.11402 0.0
C78 C 0.71514 0.94536 0.0488 0.0
C79 C 0.71003 0.96312 1.00472 0.0
C80 C 0.73307 0.94849 0.09292 0.0
C81 C 0.74661 0.96905 0.0922 0.0
C82 C 0.74342 0.98553 0.04388 0.0
C83 C 0.72518 0.98269 1.00064 0.0
C84 C 0.76157 0.97498 0.14651 0.0
C85 C 0.78545 0.97902 0.13831 0.0
C86 C 0.79958 0.98598 0.18942 0.0
C87 C 0.7891 0.9899 0.24963 0.0
C88 C 0.76472 0.98563 0.25804 0.0
C89 C 0.75137 0.97809 0.20602 0.0
C90 C 0.75183 0.98857 0.3191 0.0
C91 C 0.73876 0.96944 0.34269 0.0
C92 C 0.74714 0.011 0.34334 0.0
C93 C 0.72857 0.01435 0.3866 0.0
C94 C 0.71422 0.99538 0.40552 0.0
C95 C 0.82508 0.98837 0.17598 0.0
C96 C 0.83702 0.96878 0.15232 0.0
C97 C 0.83549 0.01056 0.16895 0.0
C98 C 0.85655 0.01323 0.13476 0.0
C99 C 0.86747 0.99379 0.10599 0.0
C100 C 0.8578 0.97143 0.11761 0.0
C101 C 0.72013 0.97281 0.38488 0.0
H102 H 0.70424 0.92979 0.05216 0.0
H103 H 0.73555 0.93548 0.12968 0.0
H104 H 0.75376 1.00154 0.04286 0.0
H105 H 0.72177 0.99687 0.96793 0.0
H106 H 0.79314 0.97663 0.09166 0.0
H107 H 0.73262 0.97527 0.21143 0.0
H108 H 0.79976 0.99552 0.28933 0.0
H109 H 0.74173 0.95201 0.32427 0.0
H110 H 0.75652 0.02612 0.325 0.0
H111 H 0.72436 0.03197 0.40149 0.0
H112 H 0.82913 0.9515 0.15598 0.0
H113 H 0.82647 0.026 0.18566 0.0
H114 H 0.70952 0.95784 0.39884 0.0
H115 H 0.86523 0.95596 0.09614 0.0
H116 H 0.86365 0.03072 0.12855 0.0
C117 C 0.51856 0.73081 0.37561 0.0
C118 C 0.53782 0.71747 0.39594 0.0
C119 C 0.52185 0.74985 0.33375 0.0
C120 C 0.54449 0.75595 0.31229 0.0
C121 C 0.56375 0.74379 0.33725 0.0
C122 C 0.56047 0.72473 0.37805 0.0
C123 C 0.54809 0.77026 0.25374 0.0
C124 C 0.54102 0.7939 0.24706 0.0
C125 C 0.54575 0.80601 0.18963 0.0
C126 C 0.55691 0.79433 0.13985 0.0
C127 C 0.56263 0.77069 0.1446 0.0
C128 C 0.55855 0.75896 0.20186 0.0
C129 C 0.56979 0.75748 0.08741 0.0
C130 C 0.55808 0.76139 0.02989 0.0
C131 C 0.58612 0.73923 0.09115 0.0
C132 C 0.58925 0.72407 0.03989 0.0
C133 C 0.57611 0.72695 0.98412 0.0
C134 C 0.53811 0.83023 0.1754 0.0
C135 C 0.51747 0.83319 0.14009 0.0
C136 C 0.55489 0.84841 0.17529 0.0
C137 C 0.55193 0.86828 0.13688 0.0
C138 C 0.53228 0.8702 0.09695 0.0
C139 C 0.5146 0.8529 0.10124 0.0
C140 C 0.56124 0.74636 0.97887 0.0
H141 H 0.50089 0.72553 0.38845 0.0
H142 H 0.50665 0.75859 0.3145 0.0
H143 H 0.58138 0.74796 0.32131 0.0
H144 H 0.57564 0.71491 0.39323 0.0
H145 H 0.5322 0.8027 0.28569 0.0
H146 H 0.56249 0.74045 0.20533 0.0
H147 H 0.56026 0.8036 0.09573 0.0
H148 H 0.54509 0.77503 0.02556 0.0
H149 H 0.59568 0.73604 0.13459 0.0
H150 H 0.60103 0.70941 0.04506 0.0
H151 H 0.50459 0.81917 0.13768 0.0
H152 H 0.57132 0.84623 0.20026 0.0
H153 H 0.55045 0.74892 0.93727 0.0
H154 H 0.49912 0.85393 0.07173 0.0
H155 H 0.56596 0.88115 0.13452 0.0
C156 C 0.24311 0.44949 0.30224 0.0
C157 C 0.22225 0.43791 0.28492 0.0
C158 C 0.26061 0.45346 0.25735 0.0
C159 C 0.25764 0.44563 0.19467 0.0
C160 C 0.23908 0.43004 0.18139 0.0
C161 C 0.22142 0.42622 0.22634 0.0
C162 C 0.26988 0.45838 0.14264 0.0
C163 C 0.29265 0.46702 0.15122 0.0
C164 C 0.30174 0.48482 0.11231 0.0
C165 C 0.28818 0.49332 0.06109 0.0
C166 C 0.26581 0.48334 0.04889 0.0
C167 C 0.25695 0.46616 0.09034 0.0
C168 C 0.25007 0.49084 0.99632 0.0
C169 C 0.24048 0.51341 0.99469 0.0
C170 C 0.24041 0.47359 0.95646 0.0
C171 C 0.22074 0.47822 0.91914 0.0
C172 C 0.21011 0.5004 0.91973 0.0
C173 C 0.32441 0.49524 0.1326 0.0
C174 C 0.32427 0.51227 0.18053 0.0
C175 C 0.34528 0.48315 0.12062 0.0
C176 C 0.36523 0.48704 0.15815 0.0
C177 C 0.36465 0.50284 0.2095 0.0
C178 C 0.3441 0.51602 0.21854 0.0
C179 C 0.22077 0.51817 0.95667 0.0
H180 H 0.24458 0.45855 0.34716 0.0
H181 H 0.27474 0.46533 0.26997 0.0
H182 H 0.23681 0.42295 0.13417 0.0
H183 H 0.20584 0.41656 0.21243 0.0
H184 H 0.30287 0.46102 0.19133 0.0
H185 H 0.23904 0.4601 0.08403 0.0
H186 H 0.29489 0.50735 0.03143 0.0
H187 H 0.24727 0.52696 0.02569 0.0
H188 H 0.24719 0.45592 0.95743 0.0
H189 H 0.21315 0.46382 0.89271 0.0
H190 H 0.30816 0.52123 0.19226 0.0
H191 H 0.34565 0.46944 0.08518 0.0
H192 H 0.21353 0.53562 0.95778 0.0
H193 H 0.34262 0.52811 0.25779 0.0
H194 H 0.38077 0.47689 0.14848 0.0
C195 C 0.08835 0.25769 0.30351 0.0
C196 C 0.09633 0.23532 0.28694 0.0
C197 C 0.08436 0.27428 0.25637 0.0
C198 C 0.08934 0.26901 0.19248 0.0
C199 C 0.10296 0.24913 0.17956 0.0
C200 C 0.10609 0.23213 0.22633 0.0
C201 C 0.07533 0.28019 0.14112 0.0
C202 C 0.06641 0.30277 0.14872 0.0
C203 C 0.04743 0.31056 0.11242 0.0
C204 C 0.03831 0.29618 0.06359 0.0
C205 C 0.04874 0.27427 0.0511 0.0
C206 C 0.06678 0.26646 0.09088 0.0
C207 C 0.04091 0.25799 0.99987 0.0
C208 C 0.01813 0.24844 0.99897 0.0
C209 C 0.05793 0.24827 0.95969 0.0
C210 C 0.05291 0.22855 0.92284 0.0
C211 C 0.03051 0.21796 0.92414 0.0
C212 C 0.03628 0.33252 0.13384 0.0
C213 C 0.01875 0.3312 0.18057 0.0
C214 C 0.04796 0.35395 0.12408 0.0
C215 C 0.04322 0.37329 0.16281 0.0
C216 C 0.02702 0.37151 0.21325 0.0
C217 C 0.0142 0.35042 0.2199 0.0
C218 C 0.01296 0.22868 0.96138 0.0
H219 H 0.08175 0.26105 0.35082 0.0
H220 H 0.07452 0.28963 0.26957 0.0
H221 H 0.10853 0.2452 0.13166 0.0
H222 H 0.11312 0.21537 0.21221 0.0
H223 H 0.07304 0.31386 0.18642 0.0
H224 H 0.07294 0.24871 0.08479 0.0
H225 H 0.02347 0.30195 0.03583 0.0
H226 H 1.00472 0.25534 0.03005 0.0
H227 H 0.07572 0.2551 0.95983 0.0
H228 H 0.06714 0.22092 0.89615 0.0
H229 H 0.01006 0.31465 0.19051 0.0
H230 H 0.06198 0.35523 0.08946 0.0
H231 H 0.99537 0.22145 0.96299 0.0
H232 H 1.0018 0.34805 0.25834 0.0
H233 H 0.05308 0.3893 0.15488 0.0
C234 C 0.26867 0.10317 0.31148 0.0
C235 C 0.29275 0.10797 0.3046 0.0
C236 C 0.25577 0.09447 0.26049 0.0
C237 C 0.26625 0.09184 0.20016 0.0
C238 C 0.28835 0.1026 0.19079 0.0
C239 C 0.30173 0.10994 0.24257 0.0
C240 C 0.25644 0.07475 0.15241 0.0
C241 C 0.23373 0.06537 0.15921 0.0
C242 C 0.22669 0.04504 0.12702 0.0
C243 C 0.24175 0.03512 0.08107 0.0
C244 C 0.26366 0.04591 0.06796 0.0
C245 C 0.27097 0.06492 0.10553 0.0
C246 C 0.28002 0.03819 0.01659 0.0
C247 C 0.28929 0.01547 0.0145 0.0
C248 C 0.28959 0.05524 0.97574 0.0
C249 C 0.30882 0.05033 0.93695 0.0
C250 C 0.31905 0.02796 0.93646 0.0
C251 C 0.20449 0.03389 0.14931 0.0
C252 C 0.20557 0.0166 0.19664 0.0
C253 C 0.18315 0.04552 0.13981 0.0
C254 C 0.16379 0.04108 0.1794 0.0
C255 C 0.16542 0.02513 0.23015 0.0
C256 C 0.18629 0.01229 0.23664 0.0
C257 C 0.30855 0.01039 0.97477 0.0
H258 H 0.26038 0.10343 0.35767 0.0
H259 H 0.23842 0.08798 0.27134 0.0
H260 H 0.29646 0.10357 0.14452 0.0
H261 H 0.31983 0.1147 0.23371 0.0
H262 H 0.2215 0.07288 0.1925 0.0
H263 H 0.28873 0.07117 0.09895 0.0
H264 H 0.23636 0.01958 0.0554 0.0
H265 H 0.28247 1.00199 0.04583 0.0
H266 H 0.28294 0.07296 0.97637 0.0
H267 H 0.31629 0.06463 0.90977 0.0
H268 H 0.22197 1.00785 0.20628 0.0
H269 H 0.18205 0.05945 0.10505 0.0
H270 H 0.31547 0.99281 0.97527 0.0
H271 H 0.18812 0.99965 0.27459 0.0
H272 H 0.14816 0.05146 0.1731 0.0
C273 C 0.47265 0.3148 0.93682 0.0
C274 C 0.4954 0.32319 0.92307 0.0
C275 C 0.46908 0.29658 0.98032 0.0
C276 C 0.48807 0.28618 1.01177 0.0
C277 C 0.51091 0.29335 0.99527 0.0
C278 C 0.51454 0.31162 0.95138 0.0
C279 C 0.4836 0.27258 0.07106 0.0
C280 C 0.49216 0.2497 0.08194 0.0
C281 C 0.48773 0.23854 0.14078 0.0
C282 C 0.47592 0.25068 0.18867 0.0
C283 C 0.46765 0.2734 0.17888 0.0
C284 C 0.47104 0.28386 0.11937 0.0
C285 C 0.45755 0.28693 0.23258 0.0
C286 C 0.44475 0.27572 0.28136 0.0
C287 C 0.46272 0.31093 0.23859 0.0
C288 C 0.45645 0.32306 0.29312 0.0
C289 C 0.44527 0.31143 0.34364 0.0
C290 C 0.49465 0.21417 0.15594 0.0
C291 C 0.4772 0.19668 0.15659 0.0
C292 C 0.51573 0.21004 0.18834 0.0
C293 C 0.51871 0.18943 0.22381 0.0
C294 C 0.5005 0.17267 0.22835 0.0
C295 C 0.48009 0.17618 0.1922 0.0
C296 C 0.43898 0.28779 0.33685 0.0
H297 H 0.45737 0.32321 0.91707 0.0
H298 H 0.45126 0.29163 0.99268 0.0
H299 H 0.52587 0.28595 0.01942 0.0
H300 H 0.53236 0.31716 0.9413 0.0
H301 H 0.50176 0.24066 0.04512 0.0
H302 H 0.46445 0.30133 0.11089 0.0
H303 H 0.47379 0.24238 0.23462 0.0
H304 H 0.43994 0.25739 0.2778 0.0
H305 H 0.47295 0.32018 0.20311 0.0
H306 H 0.46198 0.34117 0.29761 0.0
H307 H 0.46053 0.1997 0.13353 0.0
H308 H 0.52914 0.22357 0.19037 0.0
H309 H 0.43039 0.27848 0.3753 0.0
H310 H 0.46583 0.16355 0.19371 0.0
H311 H 0.5346 0.18744 0.25128 0.0
C312 C 0.05473 0.04304 0.83633 0.0
C313 C 0.03627 0.02609 0.92907 0.0
C314 C 0.04114 0.02568 0.86354 0.0
C315 C 0.04359 0.04543 0.96538 0.0
C316 C 0.06375 0.06154 0.8733 0.0
C317 C 0.05733 0.06317 0.93748 0.0
N318 N 0.06106 0.04048 0.77495 0.0
C319 C 0.07802 0.05445 0.74869 0.0
C320 C 0.07988 0.07708 0.84538 0.0
C321 C 0.08744 0.0732 0.78318 0.0
Gd322 Gd 0.98616 0.02903 0.61113 0.0
Gd323 Gd 0.04221 0.01082 0.71725 0.0
N324 N 0.03508 1.00704 0.82722 0.0
C325 C 0.02551 1.00645 0.95664 0.0
C326 C 0.02698 0.98691 0.8551 0.0
C327 C 0.02143 0.98652 0.91977 0.0
H328 H 0.02408 0.97134 0.82694 0.0
H329 H 0.01409 0.97085 0.94113 0.0
H330 H 0.99299 1.00322 0.47044 0.0
H331 H 0.08354 0.05158 0.70024 0.0
H332 H 0.97175 0.97491 0.40241 0.0
H333 H 0.02143 1.00605 1.00683 0.0
H334 H 0.03969 0.04628 0.01563 0.0
H335 H 0.94592 0.05236 0.70726 0.0
H336 H 0.08724 0.09155 0.87212 0.0
H337 H 0.10037 0.0847 0.76168 0.0
H338 H 0.89802 0.96327 0.50959 0.0
H339 H 0.06376 0.07745 0.96657 0.0
H340 H 0.8822 0.01264 0.68856 0.0
H341 H 0.90504 0.04419 0.74089 0.0
N342 N 0.94652 0.02476 0.63985 0.0
C343 C 0.93391 1.00828 0.60843 0.0
C344 C 0.93617 0.03828 0.68509 0.0
C345 C 0.90019 0.01596 0.67432 0.0
C346 C 0.91301 0.03381 0.70389 0.0
C347 C 0.91044 1.00327 0.62487 0.0
H348 H 0.87983 0.98213 0.60231 0.0
N349 N 0.9661 1.00431 0.54031 0.0
C350 C 0.94406 0.99772 0.55658 0.0
C351 C 0.94153 0.97307 0.46388 0.0
C352 C 0.93116 0.98178 0.51922 0.0
C353 C 0.97577 0.99708 0.48439 0.0
C354 C 0.96381 0.98106 0.44588 0.0
O355 O 0.03502 0.04898 0.69298 0.0
O356 O 0.99517 0.05141 0.69684 0.0
O357 O 1.00309 0.05918 0.5681 0.0
O358 O 0.96565 0.05316 0.55547 0.0
O359 O 1.0058 0.99662 0.74471 0.0
O360 O 0.98211 0.02701 0.71696 0.0
O361 O 0.99513 0.99085 0.60143 0.0
O362 O 0.0249 0.97935 0.67067 0.0
O363 O 0.07251 0.99311 0.75731 0.0
O364 O 0.06854 0.99554 0.6562 0.0
O365 O 0.01932 0.0173 0.56086 0.0
O366 O 0.04597 0.03274 0.62893 0.0
C367 C 0.01599 0.06029 0.70934 0.0
C368 C 0.98693 1.00932 0.75407 0.0
C369 C 0.98701 0.06956 0.4699 0.0
C370 C 1.00632 0.09198 0.38696 0.0
C371 C 0.97701 0.06272 0.35955 0.0
C372 C 0.97394 0.05743 0.42379 0.0
C373 C 0.99298 0.08015 0.34106 0.0
C374 C 1.00332 0.08655 0.45107 0.0
C375 C 0.98411 0.06514 0.53791 0.0
C376 C 0.90817 0.9757 0.53722 0.0
C377 C 0.89781 0.98644 0.59002 0.0
H378 H 0.93223 0.96076 0.43385 0.0
C379 C 0.009 0.97509 0.6266 0.0
C380 C 0.04073 0.02463 0.57263 0.0
C381 C 0.08299 0.96058 0.69454 0.0
C382 C 0.06555 0.92144 0.70012 0.0
C383 C 0.10068 0.92859 0.63687 0.0
C384 C 0.10047 0.9522 0.65397 0.0
C385 C 0.08319 0.91334 0.65897 0.0
C386 C 0.06604 0.94507 0.71879 0.0
C387 C 0.07989 0.98588 0.70234 0.0
H388 H 0.9668 0.05351 0.32415 0.0
H389 H 0.96128 0.04407 0.43722 0.0
H390 H 0.99486 0.08447 0.29127 0.0
H391 H 0.01321 0.09613 0.48667 0.0
H392 H 0.11402 0.92224 0.60475 0.0
H393 H 0.11342 0.96405 0.63385 0.0
H394 H 0.08323 0.89541 0.64245 0.0
H395 H 0.05277 0.95175 0.7506 0.0
C396 C 0.53042 0.94513 0.54469 0.0
C397 C 0.5196 0.91241 0.61189 0.0
C398 C 0.51797 0.93625 0.59541 0.0
C399 C 0.53519 0.89799 0.57847 0.0
C400 C 0.54508 0.93053 0.50858 0.0
C401 C 0.54794 0.90705 0.52688 0.0
N402 N 0.52662 0.96763 0.52762 0.0
C403 C 0.53546 0.97622 0.47205 0.0
C404 C 0.55562 0.93975 0.45385 0.0
C405 C 0.55047 0.96261 0.43496 0.0
Gd406 Gd 0.5221 0.04622 0.69958 0.0
Gd407 Gd 0.50342 0.99025 0.59588 0.0
N408 N 0.50284 0.95061 0.62547 0.0
C409 C 0.50486 0.90367 0.65972 0.0
C410 C 0.48739 0.94193 0.66932 0.0
C411 C 0.48841 0.91843 0.68785 0.0
H412 H 0.47467 0.95333 0.6911 0.0
H413 H 0.47653 0.91173 0.72375 0.0
H414 H 0.58149 0.04674 0.71389 0.0
H415 H 0.53119 0.99375 0.45681 0.0
H416 H 0.61536 0.06566 0.66066 0.0
H417 H 0.50554 0.88544 0.67385 0.0
H418 H 0.53693 0.87967 0.59082 0.0
H419 H 0.47863 0.08424 0.69312 0.0
H420 H 0.56705 0.92915 0.42477 0.0
H421 H 0.55794 0.9697 0.39173 0.0
H422 H 0.5806 0.12541 0.5319 0.0
H423 H 0.55933 0.89558 0.50019 0.0
H424 H 0.4992 0.14074 0.57027 0.0
H425 H 0.46934 0.12158 0.63877 0.0
N426 N 0.51303 0.08254 0.6549 0.0
C427 C 0.53003 0.09339 0.62073 0.0
C428 C 0.49171 0.09274 0.66367 0.0
C429 C 0.50332 0.12449 0.59417 0.0
C430 C 0.48643 0.11377 0.63294 0.0
C431 C 0.52559 0.11451 0.58851 0.0
H432 H 0.54062 0.14138 0.52781 0.0
N433 N 0.55611 0.06538 0.66032 0.0
C434 C 0.55235 0.0843 0.62281 0.0
C435 C 0.59395 0.08862 0.60439 0.0
C436 C 0.57108 0.09624 0.59297 0.0
C437 C 0.57846 0.0599 0.67798 0.0
C438 C 0.59769 0.07081 0.64863 0.0
O439 O 0.51619 0.98003 0.693 0.0
O440 O 0.53023 0.01205 0.75101 0.0
O441 O 0.53293 0.07197 0.76948 0.0
O442 O 0.50515 0.04749 0.79168 0.0
O443 O 0.48338 0.99768 0.68721 0.0
O444 O 0.48386 0.03747 0.68487 0.0
O445 O 0.49835 0.04818 0.61366 0.0
O446 O 0.51483 0.02321 0.54388 0.0
O447 O 0.47013 1.00629 0.57212 0.0
O448 O 0.48039 0.97279 0.52893 0.0
O449 O 0.55131 0.02114 0.66882 0.0
O450 O 0.53772 1.0082 0.57273 0.0
C451 C 0.52588 0.98939 0.74381 0.0
C452 C 0.47408 0.01777 0.70336 0.0
C453 C 0.53095 0.05717 0.87282 0.0
C454 C 0.56027 0.03402 0.9275 0.0
C455 C 0.53133 0.05592 0.98754 0.0
C456 C 0.5214 0.06393 0.93112 0.0
C457 C 0.55056 0.04089 0.98589 0.0
C458 C 0.55057 0.04259 0.8712 0.0
C459 C 0.51937 0.06341 0.81353 0.0
C460 C 0.5665 0.11623 0.55619 0.0
C461 C 0.54375 0.12538 0.55403 0.0
H462 H 0.60886 0.09727 0.58235 0.0
C463 C 0.50619 0.04386 0.55651 0.0
C464 C 0.55516 0.01311 0.61109 0.0
C465 C 0.44263 0.98841 0.49861 0.0
C466 C 0.40619 1.00695 0.46831 0.0
C467 C 0.41399 0.96696 0.43609 0.0
C468 C 0.43564 0.96794 0.46673 0.0
C469 C 0.3992 0.98631 0.43719 0.0
C470 C 0.42796 1.00796 0.49858 0.0
C471 C 0.46469 0.98913 0.53398 0.0
H472 H 0.52393 0.0611 0.03264 0.0
H473 H 0.50612 0.07505 0.93291 0.0
H474 H 0.55789 0.03476 0.03019 0.0
H475 H 0.55763 0.0371 0.82588 0.0
H476 H 0.4086 0.95113 0.4118 0.0
H477 H 0.44672 0.95263 0.46621 0.0
H478 H 0.38244 0.98528 0.41321 0.0
H479 H 0.4332 0.02385 0.52311 0.0
C480 C 0.46595 0.48788 0.78175 0.0
C481 C 0.48436 0.48599 0.88505 0.0
C482 C 0.48254 0.49621 0.82437 0.0
C483 C 0.47009 0.46666 0.90088 0.0
C484 C 0.45081 0.46925 0.79845 0.0
C485 C 0.45331 0.45836 0.85776 0.0
N486 N 0.46443 0.49825 0.72395 0.0
C487 C 0.44682 0.49248 0.6829 0.0
C488 C 0.43348 0.4623 0.75521 0.0
C489 C 0.43128 0.47418 0.69754 0.0
Gd490 Gd 0.54285 0.50631 0.59056 0.0
Gd491 Gd 0.49113 0.52862 0.70308 0.0
N492 N 0.49587 0.51514 0.8079 0.0
C493 C 0.49986 0.49602 0.92882 0.0
C494 C 0.50927 0.52624 0.85246 0.0
C495 C 0.51201 0.51652 0.91284 0.0
H496 H 0.51762 0.54283 0.8422 0.0
H497 H 0.52318 0.52506 0.94735 0.0
H498 H 0.52347 0.5148 0.44478 0.0
H499 H 0.44519 0.50172 0.63837 0.0
H500 H 0.53281 0.53957 0.35126 0.0
H501 H 0.50181 0.48868 0.97589 0.0
H502 H 0.47144 0.45843 0.94703 0.0
H503 H 0.59119 0.50872 0.68324 0.0
H504 H 0.42149 0.44805 0.76631 0.0
H505 H 0.41767 0.46923 0.66436 0.0
H506 H 0.60017 0.58454 0.41698 0.0
H507 H 0.44206 0.44379 0.87118 0.0
H508 H 0.63524 0.56435 0.61599 0.0
H509 H 0.62635 0.53355 0.6953 0.0
N510 N 0.57846 0.52717 0.60271 0.0
C511 C 0.5839 0.54284 0.55639 0.0
C512 C 0.59406 0.52294 0.65037 0.0
C513 C 0.61933 0.55397 0.61162 0.0
C514 C 0.61436 0.53665 0.65654 0.0
C515 C 0.60437 0.55679 0.55969 0.0
H516 H 0.62527 0.58336 0.51185 0.0
N517 N 0.55092 0.52915 0.50083 0.0
C518 C 0.56987 0.54358 0.50318 0.0
C519 C 0.56202 0.5569 0.39663 0.0
C520 C 0.57576 0.55816 0.45155 0.0
C521 C 0.53804 0.52701 0.44664 0.0
C522 C 0.54328 0.54098 0.39384 0.0
O523 O 0.4945 0.48995 0.67607 0.0
O524 O 0.53383 0.48533 0.6776 0.0
O525 O 0.53828 0.47775 0.52487 0.0
O526 O 0.57189 0.48279 0.57019 0.0
O527 O 0.52808 0.53964 0.7326 0.0
O528 O 0.54935 0.5083 0.69682 0.0
O529 O 0.52645 0.54158 0.56995 0.0
O530 O 0.51723 0.55612 0.66802 0.0
O531 O 0.47099 0.54942 0.76929 0.0
O532 O 0.46249 0.55015 0.66968 0.0
O533 O 0.50554 0.49856 0.55645 0.0
O534 O 0.48296 0.52816 0.59885 0.0
C535 C 0.51283 0.47715 0.68942 0.0
C536 C 0.54652 0.52594 0.73617 0.0
C537 C 0.55768 0.44393 0.55972 0.0
C538 C 0.53449 0.40874 0.58395 0.0
C539 C 0.57723 0.40717 0.57953 0.0
C540 C 0.57832 0.43092 0.56391 0.0
C541 C 0.55553 0.39601 0.58819 0.0
C542 C 0.53607 0.43302 0.57356 0.0
C543 C 0.55844 0.46854 0.53848 0.0
C544 C 0.59547 0.57298 0.45583 0.0
C545 C 0.60973 0.57233 0.5099 0.0
H546 H 0.56601 0.56776 0.3558 0.0
C547 C 0.52295 0.5594 0.60811 0.0
C548 C 0.48707 0.51239 0.55498 0.0
C549 C 0.45903 0.58517 0.72549 0.0
C550 C 0.47997 0.62193 0.74282 0.0
C551 C 0.43958 0.62199 0.70572 0.0
C552 C 0.4391 0.59754 0.70676 0.0
C553 C 0.45984 0.63418 0.72385 0.0
C554 C 0.47946 0.59738 0.74246 0.0
C555 C 0.45893 0.55955 0.72487 0.0
H556 H 0.59322 0.39714 0.58224 0.0
H557 H 0.5952 0.43904 0.55437 0.0
H558 H 0.55541 0.37725 0.59516 0.0
H559 H 0.52029 0.44341 0.57357 0.0
H560 H 0.42414 0.63153 0.69141 0.0
H561 H 0.42328 0.58829 0.69275 0.0
H562 H 0.45954 0.65313 0.72439 0.0
H563 H 0.49501 0.58767 0.75528 0.0
C564 C 0.04239 0.47114 0.79371 0.0
C565 C 0.04346 0.48932 0.89739 0.0
C566 C 0.03355 0.48727 0.83643 0.0
C567 C 0.06299 0.47569 0.91348 0.0
C568 C 0.06125 0.45663 0.8106 0.0
C569 C 0.07181 0.45933 0.87026 0.0
N570 N 0.03231 0.46943 0.73562 0.0
C571 C 0.03865 0.45219 0.69434 0.0
C572 C 0.06875 0.43971 0.76718 0.0
C573 C 0.05718 0.43727 0.70914 0.0
Gd574 Gd 0.02442 0.54659 0.60237 0.0
Gd575 Gd 1.00155 0.49516 0.71441 0.0
N576 N 0.01446 0.49999 0.81965 0.0
C577 C 0.03297 0.50442 0.94107 0.0
C578 C 1.00298 0.51304 0.86395 0.0
C579 C 0.01237 0.51598 0.92463 0.0
H580 H 0.98634 0.52094 0.85318 0.0
H581 H 1.00351 0.52686 0.959 0.0
H582 H 0.01631 0.52661 0.4565 0.0
H583 H 0.02965 0.45033 0.64955 0.0
H584 H 0.99106 0.53485 0.36362 0.0
H585 H 0.04007 0.50653 0.98835 0.0
H586 H 0.07099 0.47722 0.95986 0.0
H587 H 0.02351 0.59602 0.69081 0.0
H588 H 0.08318 0.4282 0.77841 0.0
H589 H 0.06255 0.42395 0.6758 0.0
H590 H 0.9458 0.60138 0.42855 0.0
H591 H 0.08654 0.44857 0.88384 0.0
H592 H 0.9675 0.63866 0.62359 0.0
H593 H 0.99897 0.6311 0.70144 0.0
N594 N 1.00428 0.58224 0.61276 0.0
C595 C 0.98827 0.58693 0.56696 0.0
C596 C 0.00904 0.59842 0.65866 0.0
C597 C 0.97776 0.62284 0.61989 0.0
C598 C 0.99548 0.61862 0.66397 0.0
C599 C 0.97444 0.60727 0.56945 0.0
H600 H 0.9476 0.62731 0.52165 0.0
N601 N 1.0016 0.55366 0.51252 0.0
C602 C 0.98716 0.57238 0.51465 0.0
C603 C 0.97349 0.56368 0.40887 0.0
C604 C 0.97236 0.57768 0.4633 0.0
C605 C 1.00386 0.54076 0.45846 0.0
C606 C 0.98964 0.54541 0.40601 0.0
O607 O 0.04022 0.50014 0.688 0.0
O608 O 0.04503 0.53945 0.69119 0.0
O609 O 0.05685 0.53939 0.55553 0.0
O610 O 0.04543 0.57588 0.56386 0.0
O611 O 0.99036 0.53192 0.74381 0.0
O612 O 0.0214 0.5543 0.70756 0.0
O613 O 0.9897 0.52882 0.58069 0.0
O614 O 0.97435 0.52085 0.6785 0.0
O615 O 0.98023 0.47483 0.78004 0.0
O616 O 0.98042 0.466 0.68064 0.0
O617 O 0.03144 0.50961 0.56664 0.0
O618 O 1.00258 0.48588 0.61068 0.0
C619 C 0.05266 0.51852 0.70484 0.0
C620 C 1.00388 0.55074 0.74728 0.0
C621 C 0.0828 0.56823 0.51011 0.0
C622 C 0.1186 0.55606 0.45736 0.0
C623 C 0.10726 0.59692 0.45592 0.0
C624 C 0.08723 0.59146 0.49171 0.0
C625 C 0.12279 0.57924 0.438 0.0
C626 C 0.09878 0.55079 0.49366 0.0
C627 C 0.06127 0.56135 0.5437 0.0
C628 C 0.95756 0.59716 0.46715 0.0
C629 C 0.95856 0.61191 0.52022 0.0
H630 H 0.96246 0.56722 0.36827 0.0
C631 C 0.97153 0.52621 0.61837 0.0
C632 C 0.01816 0.49056 0.56627 0.0
C633 C 0.94499 0.4617 0.73474 0.0
C634 C 0.9079 0.4824 0.74313 0.0
C635 C 0.90839 0.44038 0.72355 0.0
C636 C 0.93288 0.44063 0.72469 0.0
C637 C 0.89591 0.46107 0.73313 0.0
C638 C 0.93252 0.4825 0.74253 0.0
C639 C 0.97064 0.4623 0.73544 0.0
H640 H 0.11055 0.61481 0.44121 0.0
H641 H 0.07511 0.60525 0.50402 0.0
H642 H 0.13797 0.58359 0.40922 0.0
H643 H 0.09538 0.53272 0.50698 0.0
H644 H 0.89903 0.42405 0.71613 0.0
H645 H 0.94235 0.42446 0.71778 0.0
H646 H 0.87695 0.46017 0.73437 0.0
H647 H 0.94216 0.49874 0.74865 0.0
H648 H 0.11733 0.02502 0.21331 0.0
H649 H 0.08808 0.03211 0.58474 0.0
H650 H 0.16999 0.02238 0.35965 0.0
H651 H 0.03518 0.01713 0.44421 0.0
H652 H 0.11798 0.03136 0.50171 0.0
H653 H 0.08681 0.02479 0.2956 0.0
C654 C 0.12251 0.02431 0.26263 0.0
C655 C 0.14638 0.02355 0.27923 0.0
C656 C 0.09985 0.02818 0.48892 0.0
C657 C 0.11139 0.02345 0.37399 0.0
C658 C 0.08269 0.02866 0.53642 0.0
C659 C 0.05898 0.02452 0.52178 0.0
C660 C 0.09338 0.02388 0.4257 0.0
C661 C 0.05321 0.02024 0.45798 0.0
C662 C 0.10504 0.0241 0.30962 0.0
C663 C 0.15191 0.02257 0.3442 0.0
N664 N 0.07024 0.02013 0.41237 0.0
N665 N 0.13463 0.02268 0.38893 0.0
H666 H 0.53821 0.14434 0.25668 0.0
H667 H 0.4716 0.07582 0.53761 0.0
H668 H 0.46589 0.15597 0.30735 0.0
H669 H 0.53784 0.05323 0.46163 0.0
H670 H 0.47041 0.10693 0.45761 0.0
H671 H 0.53976 0.11272 0.3356 0.0
C672 C 0.52265 0.14025 0.2842 0.0
C673 C 0.50181 0.15278 0.27462 0.0
C674 C 0.48519 0.09514 0.45809 0.0
C675 C 0.50352 0.11659 0.36544 0.0
C676 C 0.48589 0.07744 0.50394 0.0
C677 C 0.50486 0.06202 0.5063 0.0
C678 C 0.5037 0.09762 0.41435 0.0
C679 C 0.52282 0.06472 0.46115 0.0
C680 C 0.52353 0.12212 0.3291 0.0
C681 C 0.48221 0.14658 0.31189 0.0
N682 N 0.5219 0.08228 0.41733 0.0
N683 N 0.48358 0.12907 0.35556 0.0
H684 H 0.3943 0.46764 0.24946 0.0
H685 H 0.45362 0.54418 0.52284 0.0
H686 H 0.38043 0.54112 0.27813 0.0
H687 H 0.4816 0.47755 0.46466 0.0
H688 H 0.42522 0.54199 0.43717 0.0
H689 H 0.42504 0.46986 0.3298 0.0
C690 C 0.39782 0.48436 0.27172 0.0
C691 C 0.38452 0.50426 0.25616 0.0
C692 C 0.43759 0.52785 0.4428 0.0
C693 C 0.41956 0.50663 0.35027 0.0
C694 C 0.45384 0.52901 0.49207 0.0
C695 C 0.47012 0.51096 0.50137 0.0
C696 C 0.43725 0.50839 0.40226 0.0
C697 C 0.46946 0.49189 0.45934 0.0
C698 C 0.41534 0.48551 0.31817 0.0
C699 C 0.38977 0.52517 0.28862 0.0
N700 N 0.4532 0.49103 0.41187 0.0
N701 N 0.40669 0.52574 0.3341 0.0
H702 H 0.98792 0.38505 0.2817 0.0
H703 H 0.05253 0.48779 0.47427 0.0
H704 H 0.06142 0.40178 0.2571 0.0
H705 H 0.98745 0.45547 0.53415 0.0
H706 H 0.05449 0.45985 0.38601 0.0
H707 H 0.98588 0.41419 0.36606 0.0
C708 C 1.00366 0.39477 0.29371 0.0
C709 C 0.0249 0.39068 0.26162 0.0
C710 C 0.03981 0.45891 0.41858 0.0
C711 C 0.02248 0.42464 0.3582 0.0
C712 C 0.03865 0.47489 0.46892 0.0
C713 C 0.01986 0.47397 0.51208 0.0
C714 C 0.02189 0.4421 0.41073 0.0
C715 C 1.00238 0.45682 0.50253 0.0
C716 C 1.00243 0.41153 0.34192 0.0
C717 C 0.04451 0.40441 0.27915 0.0
N718 N 1.00378 0.44168 0.45295 0.0
N719 N 0.04281 0.4207 0.32604 0.0
H720 H 0.87601 0.03068 0.02427 0.0
H721 H 0.97785 0.96914 0.82488 0.0
H722 H 0.90423 0.96363 0.07887 0.0
H723 H 0.9614 0.0426 0.81373 0.0
H724 H 0.95035 0.96538 0.91494 0.0
H725 H 0.90639 0.03419 0.94382 0.0
C726 C 0.88874 0.0168 0.02041 0.0
C727 C 0.88732 0.99684 0.05947 0.0
C728 C 0.95291 0.98231 0.89275 0.0
C729 C 0.92213 1.00051 0.9646 0.0
C730 C 0.96866 0.98447 0.84158 0.0
C731 C 0.97188 1.00618 0.81131 0.0
C732 C 0.94013 1.00195 0.91312 0.0
C733 C 0.95927 0.02541 0.83463 0.0
C734 C 0.90605 0.01874 0.97364 0.0
C735 C 0.90418 0.97922 0.04974 0.0
N736 N 0.94394 0.0228 0.88349 0.0
N737 N 0.92071 0.98139 1.00317 0.0
H738 H 0.52026 0.86451 0.97237 0.0
H739 H 0.52792 0.999 0.872 0.0
H740 H 0.54315 0.91745 0.10466 0.0
H741 H 0.533 0.94212 0.73871 0.0
H742 H 0.53049 0.97063 0.95939 0.0
H743 H 0.52053 0.89382 0.88795 0.0
C744 C 0.52508 0.88238 0.98393 0.0
C745 C 0.53147 0.88851 0.04611 0.0
C746 C 0.53133 0.96445 0.91094 0.0
C747 C 0.53206 0.92231 0.94881 0.0
C748 C 0.53013 0.98068 0.86098 0.0
C749 C 0.53036 0.97306 0.79764 0.0
C750 C 0.53244 0.94037 0.89753 0.0
C751 C 0.53243 0.94889 0.78655 0.0
C752 C 0.52547 0.89908 0.93543 0.0
C753 C 0.53809 0.91192 0.05754 0.0
N754 N 0.53316 0.93348 0.83574 0.0
N755 N 0.53805 0.928 1.00953 0.0
H756 H 0.64831 0.49627 0.02893 0.0
H757 H 0.55804 0.56533 0.80574 0.0
H758 H 0.64405 0.57174 0.02634 0.0
H759 H 0.57285 0.49165 0.79036 0.0
H760 H 0.58666 0.56818 0.89282 0.0
H761 H 0.61825 0.49446 0.9474 0.0
C762 C 0.64115 0.51253 1.01141 0.0
C763 C 0.64909 0.5342 0.035 0.0
C764 C 0.58361 0.5514 0.87032 0.0
C765 C 0.61386 0.53215 0.94132 0.0
C766 C 0.56723 0.54976 0.82078 0.0
C767 C 0.56314 0.52826 0.79031 0.0
C768 C 0.59584 0.53134 0.88989 0.0
C769 C 0.57556 0.50865 0.81184 0.0
C770 C 0.62378 0.51144 0.96482 0.0
C771 C 0.63845 0.55455 1.01073 0.0
N772 N 0.59126 0.51067 0.86002 0.0
N773 N 0.62148 0.55303 0.96531 0.0
H774 H 0.9559 0.63609 0.0646 0.0
H775 H 0.0373 0.57999 0.79567 0.0
H776 H 0.02316 0.66453 1.00771 0.0
H777 H 0.96492 0.55955 0.82196 0.0
H778 H 0.0333 0.60855 0.8804 0.0
H779 H 0.95979 0.60581 0.98343 0.0
C780 C 0.97153 0.63604 0.03536 0.0
C781 C 0.98921 0.65314 0.04357 0.0
C782 C 0.01824 0.59787 0.86785 0.0
C783 C 0.99385 0.61803 0.95065 0.0
C784 C 0.02047 0.58154 0.81916 0.0
C785 C 1.00132 0.56745 0.80097 0.0
C786 C 0.99673 0.60017 0.89958 0.0
C787 C 0.98014 0.57003 0.8343 0.0
C788 C 0.97373 0.61862 0.98905 0.0
C789 C 0.00919 0.65166 1.00451 0.0
N790 N 0.97839 0.5861 0.88195 0.0
N791 N 0.01091 0.63452 0.95998 0.0
H792 H 0.11755 0.19254 0.30814 0.0
H793 H 0.99402 0.13186 0.32731 0.0
H794 H 0.05333 0.23039 0.34131 0.0
H795 H 0.05304 0.09697 0.41174 0.0
H796 H 0.01814 0.16717 0.31451 0.0
H797 H 0.09672 0.15601 0.3358 0.0
C798 C 0.09937 0.1933 0.32289 0.0
C799 C 0.08722 0.21461 0.32192 0.0
C800 C 0.02586 0.15172 0.33545 0.0
C801 C 0.06344 0.1732 0.35149 0.0
C802 C 0.01224 0.13158 0.34179 0.0
C803 C 0.02177 0.11166 0.36991 0.0
C804 C 0.0492 0.15174 0.35659 0.0
C805 C 0.04529 0.11213 0.38939 0.0
C806 C 0.08754 0.17251 0.33835 0.0
C807 C 0.06364 0.21457 0.34169 0.0
N808 N 0.05838 0.13194 0.38208 0.0
N809 N 0.05244 0.19415 0.35431 0.0
H810 H 0.33826 0.12508 0.32325 0.0
H811 H 0.36105 1.00854 0.50857 0.0
H812 H 0.28503 0.08176 0.41279 0.0
H813 H 0.41651 0.05167 0.43116 0.0
H814 H 0.33407 0.04118 0.49789 0.0
H815 H 0.36783 0.10536 0.38683 0.0
C816 C 0.33256 0.11187 0.35685 0.0
C817 C 0.30901 0.10429 0.35922 0.0
C818 C 0.3522 0.04375 0.48399 0.0
C819 C 0.34282 0.08206 0.43321 0.0
C820 C 0.3675 0.02504 0.48973 0.0
C821 C 0.39071 0.0274 0.46918 0.0
C822 C 0.36005 0.06474 0.45579 0.0
C823 C 0.39853 0.04921 0.44655 0.0
C824 C 0.34954 0.10071 0.39354 0.0
C825 C 0.3028 0.08809 0.40695 0.0
N826 N 0.38306 0.06696 0.43903 0.0
N827 N 0.31964 0.07715 0.44065 0.0
H828 H 0.46164 0.29541 0.45669 0.0
H829 H 0.49448 0.42303 0.52105 0.0
H830 H 0.42775 0.35466 0.37081 0.0
H831 H 0.52036 0.3661 0.6365 0.0
H832 H 0.46138 0.39942 0.49215 0.0
H833 H 0.47377 0.32022 0.54508 0.0
C834 C 0.45586 0.31342 0.45788 0.0
C835 C 0.44424 0.32324 0.40579 0.0
C836 C 0.47403 0.39211 0.52474 0.0
C837 C 0.45859 0.35182 0.50552 0.0
C838 C 0.49317 0.40582 0.54219 0.0
C839 C 0.51124 0.39646 0.57978 0.0
C840 C 0.47317 0.36848 0.54261 0.0
C841 C 0.50777 0.37379 0.60452 0.0
C842 C 0.46294 0.32766 0.50819 0.0
C843 C 0.4372 0.34662 0.40955 0.0
N844 N 0.48957 0.3603 0.5838 0.0
N845 N 0.445 0.36029 0.45774 0.0
H846 H 0.18131 0.45081 0.22924 0.0
H847 H 0.1394 0.52292 0.5308 0.0
H848 H 0.21349 0.44262 0.41311 0.0
H849 H 0.1299 0.54431 0.33646 0.0
H850 H 0.15937 0.48753 0.49384 0.0
H851 H 0.15277 0.47696 0.2757 0.0
C852 C 0.18187 0.45367 0.27997 0.0
C853 C 0.20027 0.44489 0.31709 0.0
C854 C 0.15296 0.50002 0.45944 0.0
C855 C 0.16804 0.47562 0.36981 0.0
C856 C 0.14183 0.52023 0.48037 0.0
C857 C 0.13346 0.5366 0.43638 0.0
C858 C 0.15531 0.49608 0.39416 0.0
C859 C 0.13659 0.53229 0.37168 0.0
C860 C 0.16577 0.46903 0.30616 0.0
C861 C 0.19995 0.44946 0.38252 0.0
N862 N 0.14722 0.51236 0.35244 0.0
N863 N 0.18441 0.46501 0.4067 0.0
H864 H 0.98922 0.80599 0.86305 0.0
H865 H 0.01938 0.93243 0.72567 0.0
H866 H 0.96135 0.86982 0.94063 0.0
H867 H 0.06741 0.87418 0.72538 0.0
H868 H 0.98957 0.90721 0.77313 0.0
H869 H 1.00834 0.82879 0.77888 0.0
C870 C 0.98639 0.82471 0.86081 0.0
C871 C 0.97392 0.83619 0.90875 0.0
C872 C 1.00655 0.89997 0.76158 0.0
C873 C 0.99581 0.86216 0.81381 0.0
C874 C 0.02376 0.91437 0.73508 0.0
C875 C 0.04633 0.90566 0.72247 0.0
C876 C 0.01178 0.87659 0.77499 0.0
C877 C 0.0504 0.88181 0.73393 0.0
C878 C 0.99746 0.83768 0.8133 0.0
C879 C 0.971 0.86047 0.90452 0.0
N880 N 0.03335 0.86816 0.76012 0.0
N881 N 0.98217 0.87276 0.85821 0.0
H882 H 0.69875 0.98074 0.88659 0.0
H883 H 0.56636 0.99416 0.99711 0.0
H884 H 0.6679 0.94778 0.05183 0.0
H885 H 0.59904 0.03606 0.85059 0.0
H886 H 0.60057 0.96879 0.99771 0.0
H887 H 0.65953 0.99231 0.85265 0.0
C888 C 0.68377 0.97546 0.91501 0.0
C889 C 0.6868 0.96382 0.97313 0.0
C890 C 0.60017 0.9834 0.96495 0.0
C891 C 0.64201 0.97685 0.93437 0.0
C892 C 0.58075 0.99799 0.96503 0.0
C893 C 0.58014 0.01755 0.92492 0.0
C894 C 0.6193 0.98862 0.92514 0.0
C895 C 0.59891 0.02128 0.88279 0.0
C896 C 0.66139 0.98204 0.89551 0.0
C897 C 0.66665 0.9568 1.00686 0.0
N898 N 0.61793 1.00717 0.88473 0.0
N899 N 0.64519 0.96382 0.98759 0.0
H900 H 0.5743 0.67982 1.00622 0.0
H901 H 0.49958 0.66276 0.69746 0.0
H902 H 0.57247 0.73057 0.85442 0.0
H903 H 0.50854 0.60975 0.84144 0.0
H904 H 0.5322 0.68484 0.74346 0.0
H905 H 0.55826 0.65053 0.93489 0.0
C906 C 0.57131 0.68466 0.95725 0.0
C907 C 0.57412 0.70791 0.93677 0.0
C908 C 0.52728 0.66817 0.76431 0.0
C909 C 0.55478 0.6746 0.85545 0.0
C910 C 0.50848 0.6557 0.73849 0.0
C911 C 0.50107 0.63453 0.76609 0.0
C912 C 0.53847 0.65961 0.8188 0.0
C913 C 0.51363 0.62593 0.81828 0.0
C914 C 0.56184 0.66792 0.91657 0.0
C915 C 0.56982 0.71303 0.87272 0.0
N916 N 0.53147 0.63866 0.84343 0.0
N917 N 0.55975 0.69667 0.83471 0.0
H918 H 0.85908 0.59565 0.96098 0.0
H919 H 0.86513 0.49717 0.69757 0.0
H920 H 0.79834 0.56409 0.87332 0.0
H921 H 0.92125 0.51766 0.82396 0.0
H922 H 0.8426 0.53086 0.73416 0.0
H923 H 0.88383 0.57807 0.87952 0.0
C924 C 0.8509 0.58573 0.92312 0.0
C925 C 0.82678 0.58081 0.92451 0.0
C926 C 0.86006 0.52814 0.75273 0.0
C927 C 0.85487 0.5602 0.83266 0.0
C928 C 0.87281 0.50874 0.7326 0.0
C929 C 0.895 0.50419 0.75847 0.0
C930 C 0.86958 0.54306 0.79899 0.0
C931 C 0.90434 0.52034 0.80208 0.0
C932 C 0.865 0.57557 0.87694 0.0
C933 C 0.81693 0.5681 0.87416 0.0
N934 N 0.89149 0.53885 0.82137 0.0
N935 N 0.83111 0.55764 0.83109 0.0
H936 H 1.00098 0.18104 0.95728 0.0
H937 H 0.0508 0.09326 0.69556 0.0
H938 H 0.05047 0.20222 0.81229 0.0
H939 H 0.98521 0.0807 0.79213 0.0
H940 H 0.05361 0.13164 0.74698 0.0
H941 H 0.99677 0.14311 0.9046 0.0
C942 C 0.0108 0.17799 0.91414 0.0
C943 C 0.02625 0.1952 0.88986 0.0
C944 C 0.03857 0.12052 0.75691 0.0
C945 C 0.02195 0.15114 0.83024 0.0
C946 C 0.03707 0.09851 0.72798 0.0
C947 C 0.01784 0.08367 0.73992 0.0
C948 C 0.02078 0.12777 0.79861 0.0
C949 C 1.00032 0.09161 0.78146 0.0
C950 C 1.0085 0.15614 0.88437 0.0
C951 C 0.03876 0.1896 0.83421 0.0
N952 N 1.00227 0.11302 0.8096 0.0
N953 N 0.03649 0.16813 0.80684 0.0
H954 H 0.35577 0.99749 0.96156 0.0
H955 H 0.44227 0.05341 0.70527 0.0
H956 H 0.33347 0.0488 0.82395 0.0
H957 H 0.45285 0.98343 0.77615 0.0
H958 H 0.40427 0.05435 0.75921 0.0
H959 H 0.39278 0.99364 0.9034 0.0
C960 C 0.35835 1.0078 0.91901 0.0
C961 C 0.34115 0.02374 0.89866 0.0
C962 C 0.41486 0.03875 0.76287 0.0
C963 C 0.38419 0.01984 0.83282 0.0
C964 C 0.43665 0.03823 0.7323 0.0
C965 C 0.45085 0.01828 0.736 0.0
C966 C 0.40722 0.01937 0.79873 0.0
C967 C 0.44246 0.99912 0.77168 0.0
C968 C 0.37968 1.00567 0.88606 0.0
C969 C 0.34615 0.03678 0.84331 0.0
N970 N 0.42132 1.00021 0.8021 0.0
N971 N 0.36716 0.03474 0.81308 0.0
H972 H 0.46946 0.33841 0.82005 0.0
H973 H 0.54387 0.45674 0.7698 0.0
H974 H 0.5289 0.35812 0.93542 0.0
H975 H 0.47668 0.44483 0.6819 0.0
H976 H 0.54033 0.41894 0.82343 0.0
H977 H 0.47341 0.37543 0.76246 0.0
C978 C 0.48336 0.35041 0.83352 0.0
C979 C 0.49881 0.34487 0.88333 0.0
C980 C 0.52628 0.42455 0.79263 0.0
C981 C 0.50357 0.38747 0.81629 0.0
C982 C 0.52832 0.44615 0.7618 0.0
C983 C 0.51039 0.45413 0.72193 0.0
C984 C 0.50627 0.41051 0.78312 0.0
C985 C 0.4907 0.43957 0.71321 0.0
C986 C 0.48562 0.37159 0.80027 0.0
C987 C 0.51674 0.36118 0.89707 0.0
N988 N 0.48916 0.41846 0.74348 0.0
N989 N 0.51856 0.38163 0.86396 0.0
H990 H 0.19452 0.47995 0.80819 0.0
H991 H 0.07247 0.54778 0.7922 0.0
H992 H 0.17311 0.52949 0.95133 0.0
H993 H 0.08532 0.48379 0.69046 0.0
H994 H 0.11071 0.54398 0.8442 0.0
H995 H 0.15626 0.48371 0.7581 0.0
C996 C 0.18188 0.49159 0.82952 0.0
C997 C 0.18737 0.50424 0.88498 0.0
C998 C 0.10516 0.53071 0.81068 0.0
C999 C 0.14325 0.50905 0.82589 0.0
C1000 C 0.08338 0.53293 0.78078 0.0
C1001 C 0.07566 0.51601 0.73713 0.0
C1002 C 0.11963 0.51166 0.79602 0.0
C1003 C 0.09048 0.49709 0.72428 0.0
C1004 C 0.15996 0.49378 0.80043 0.0
C1005 C 0.17013 0.51954 0.90845 0.0
N1006 N 0.11177 0.49548 0.75328 0.0
N1007 N 0.14897 0.52152 0.87885 0.0
H1008 H 0.95833 0.84065 0.49069 0.0
H1009 H 0.0442 0.94566 0.59129 0.0
H1010 H 0.02776 0.84929 0.41105 0.0
H1011 H 0.96892 0.95029 0.6013 0.0
H1012 H 0.04023 0.90661 0.54329 0.0
H1013 H 0.96371 0.87721 0.54865 0.0
C1014 C 0.97474 0.85009 0.48515 0.0
C1015 C 0.99247 0.84169 0.4447 0.0
C1016 C 0.02459 0.9161 0.55643 0.0
C1017 C 0.99893 0.8836 0.51318 0.0
C1018 C 0.02686 0.93822 0.58448 0.0
C1019 C 1.00688 0.95097 0.60137 0.0
C1020 C 1.00214 0.90662 0.54542 0.0
C1021 C 0.98477 0.94093 0.58945 0.0
C1022 C 0.97781 0.87099 0.51874 0.0
C1023 C 0.0136 0.85465 0.4418 0.0
N1024 N 0.98299 0.91933 0.56252 0.0
N1025 N 0.0162 0.8749 0.47536 0.0
H1026 H 0.70617 0.0178 0.51992 0.0
H1027 H 0.56762 0.01417 0.48647 0.0
H1028 H 0.67065 0.98149 0.36856 0.0
H1029 H 0.5983 0.00999 0.67291 0.0
H1030 H 0.60631 0.00996 0.43969 0.0
H1031 H 0.66799 0.02272 0.57418 0.0
C1032 C 0.69038 0.01093 0.49815 0.0
C1033 C 0.6916 0.99908 0.43985 0.0
C1034 C 0.60464 0.00998 0.49086 0.0
C1035 C 0.64807 1.005 0.50076 0.0
C1036 C 0.58244 0.0122 0.51788 0.0
C1037 C 0.57941 0.01203 0.58406 0.0
C1038 C 0.62441 1.00814 0.52987 0.0
C1039 C 0.59969 0.01031 0.62175 0.0
C1040 C 0.66868 0.01362 0.52921 0.0
C1041 C 0.67058 0.99053 0.41367 0.0
N1042 N 0.62137 1.00853 0.59416 0.0
N1043 N 0.64977 0.99383 0.44389 0.0
H1044 H 0.55331 0.67498 0.35738 0.0
H1045 H 0.52469 0.60236 0.66968 0.0
H1046 H 0.51519 0.70773 0.5095 0.0
H1047 H 0.52278 0.57177 0.4831 0.0
H1048 H 0.52724 0.64151 0.61997 0.0
H1049 H 0.549 0.63716 0.41106 0.0
C1050 C 0.54406 0.67419 0.40229 0.0
C1051 C 0.53459 0.69454 0.42902 0.0
C1052 C 0.52614 0.62611 0.59034 0.0
C1053 C 0.52985 0.65122 0.49134 0.0
C1054 C 0.5247 0.60378 0.61852 0.0
C1055 C 0.52388 0.58354 0.58062 0.0
C1056 C 0.52709 0.62816 0.52395 0.0
C1057 C 0.52415 0.5866 0.51446 0.0
C1058 C 0.54154 0.6526 0.43278 0.0
C1059 C 0.52266 0.69244 0.48722 0.0
N1060 N 0.52598 0.60832 0.48842 0.0
N1061 N 0.52081 0.67119 0.51686 0.0
H1062 H 0.85838 0.55082 0.35643 0.0
H1063 H 0.92877 0.53269 0.67809 0.0
H1064 H 0.82282 0.52512 0.52323 0.0
H1065 H 0.95955 0.52178 0.49384 0.0
H1066 H 0.88993 0.53565 0.62725 0.0
H1067 H 0.89605 0.54655 0.41093 0.0
C1068 C 0.85858 0.54421 0.40462 0.0
C1069 C 0.83756 0.53817 0.43536 0.0
C1070 C 0.90526 0.53246 0.59832 0.0
C1071 C 0.88056 0.53358 0.4985 0.0
C1072 C 0.9274 0.53076 0.6272 0.0
C1073 C 0.94759 0.52727 0.59017 0.0
C1074 C 0.90339 0.53091 0.53199 0.0
C1075 C 0.94472 0.52519 0.52425 0.0
C1076 C 0.88004 0.54175 0.43565 0.0
C1077 C 0.83872 0.52982 0.49793 0.0
N1078 N 0.92319 0.52723 0.49737 0.0
N1079 N 0.85988 0.52791 0.52775 0.0
loop_
_geom_bond_atom_site_label_1
_geom_bond_atom_site_label_2
_geom_bond_distance
_geom_bond_site_symmetry_2
_ccdc_geom_bond_type
C0 C1 1.386 . S
C0 C2 1.397 . S
C0 H24 0.931 . S
C1 C0 1.386 . S
C1 C5 1.397 . S
C2 C0 1.397 . S
C2 C3 1.384 . S
C2 H25 0.930 . S
C3 C2 1.384 . S
C3 C4 1.377 . S
C3 C6 1.481 . S
C4 C3 1.377 . S
C4 C5 1.389 . S
C4 H26 0.929 . S
C5 C1 1.397 . S
C5 C4 1.389 . S
C5 H27 0.931 . S
C6 C3 1.481 . S
C6 C7 1.387 . S
C6 C11 1.390 . S
C7 C6 1.387 . S
C7 C8 1.401 . S
C7 H28 0.930 . S
C8 C7 1.401 . S
C8 C9 1.376 . S
C8 C17 1.511 . S
C9 C8 1.376 . S
C9 C10 1.392 . S
C9 H30 0.931 . S
C10 C9 1.392 . S
C10 C11 1.361 . S
C10 C12 1.500 . S
C11 C6 1.390 . S
C11 C10 1.361 . S
C11 H29 0.931 . S
C12 C10 1.500 . S
C12 C13 1.371 . S
C12 C14 1.365 . S
C13 C12 1.371 . S
C13 C23 1.386 . S
C13 H31 0.931 . S
C14 C12 1.365 . S
C14 C15 1.409 . S
C14 H32 0.929 . S
C15 C14 1.409 . S
C15 C16 1.380 . S
C15 H33 0.930 . S
C16 C15 1.380 . S
C16 C23 1.357 . S
C17 C8 1.511 . S
C17 C18 1.341 . S
C17 C19 1.371 . S
C18 C17 1.341 . S
C18 C22 1.394 . S
C18 H34 0.930 . S
C19 C17 1.371 . S
C19 C20 1.392 . S
C19 H35 0.931 . S
C20 C19 1.392 . S
C20 C21 1.331 . S
C20 H38 0.932 . S
C21 C20 1.331 . S
C21 C22 1.336 . S
C22 C18 1.394 . S
C22 C21 1.336 . S
C22 H37 0.929 . S
C23 C13 1.386 . S
C23 C16 1.357 . S
C23 H36 0.928 . S
H24 C0 0.931 . S
H25 C2 0.930 . S
H26 C4 0.929 . S
H27 C5 0.931 . S
H28 C7 0.930 . S
H29 C11 0.931 . S
H30 C9 0.931 . S
H31 C13 0.931 . S
H32 C14 0.929 . S
H33 C15 0.930 . S
H34 C18 0.930 . S
H35 C19 0.931 . S
H36 C23 0.928 . S
H37 C22 0.929 . S
H38 C20 0.932 . S
C39 C40 1.386 . S
C39 C41 1.397 . S
C39 H63 0.931 . S
C40 C39 1.386 . S
C40 C44 1.397 . S
C41 C39 1.397 . S
C41 C42 1.384 . S
C41 H64 0.930 . S
C42 C41 1.384 . S
C42 C43 1.377 . S
C42 C45 1.481 . S
C43 C42 1.377 . S
C43 C44 1.389 . S
C43 H65 0.929 . S
C44 C40 1.397 . S
C44 C43 1.389 . S
C44 H66 0.931 . S
C45 C42 1.481 . S
C45 C46 1.387 . S
C45 C50 1.390 . S
C46 C45 1.387 . S
C46 C47 1.401 . S
C46 H67 0.930 . S
C47 C46 1.401 . S
C47 C48 1.376 . S
C47 C56 1.511 . S
C48 C47 1.376 . S
C48 C49 1.392 . S
C48 H69 0.931 . S
C49 C48 1.392 . S
C49 C50 1.361 . S
C49 C51 1.500 . S
C50 C45 1.390 . S
C50 C49 1.361 . S
C50 H68 0.931 . S
C51 C49 1.500 . S
C51 C52 1.371 . S
C51 C53 1.365 . S
C52 C51 1.371 . S
C52 C62 1.386 . S
C52 H70 0.931 . S
C53 C51 1.365 . S
C53 C54 1.409 . S
C53 H71 0.929 . S
C54 C53 1.409 . S
C54 C55 1.380 . S
C54 H72 0.930 . S
C55 C54 1.380 . S
C55 C62 1.357 . S
C56 C47 1.511 . S
C56 C57 1.341 . S
C56 C58 1.371 . S
C57 C56 1.341 . S
C57 C61 1.394 . S
C57 H73 0.930 . S
C58 C56 1.371 . S
C58 C59 1.392 . S
C58 H74 0.931 . S
C59 C58 1.392 . S
C59 C60 1.331 . S
C59 H77 0.932 . S
C60 C59 1.331 . S
C60 C61 1.336 . S
C61 C57 1.394 . S
C61 C60 1.336 . S
C61 H76 0.929 . S
C62 C52 1.386 . S
C62 C55 1.357 . S
C62 H75 0.928 . S
H63 C39 0.931 . S
H64 C41 0.930 . S
H65 C43 0.929 . S
H66 C44 0.931 . S
H67 C46 0.930 . S
H68 C50 0.931 . S
H69 C48 0.931 . S
H70 C52 0.931 . S
H71 C53 0.929 . S
H72 C54 0.930 . S
H73 C57 0.930 . S
H74 C58 0.931 . S
H75 C62 0.928 . S
H76 C61 0.929 . S
H77 C59 0.932 . S
C78 C79 1.386 . S
C78 C80 1.397 . S
C78 H102 0.931 . S
C79 C78 1.386 . S
C79 C83 1.397 . S
C80 C78 1.397 . S
C80 C81 1.384 . S
C80 H103 0.930 . S
C81 C80 1.384 . S
C81 C82 1.377 . S
C81 C84 1.481 . S
C82 C81 1.377 . S
C82 C83 1.389 . S
C82 H104 0.929 . S
C83 C79 1.397 . S
C83 C82 1.389 . S
C83 H105 0.931 . S
C84 C81 1.481 . S
C84 C85 1.387 . S
C84 C89 1.390 . S
C85 C84 1.387 . S
C85 C86 1.401 . S
C85 H106 0.930 . S
C86 C85 1.401 . S
C86 C87 1.376 . S
C86 C95 1.511 . S
C87 C86 1.376 . S
C87 C88 1.392 . S
C87 H108 0.931 . S
C88 C87 1.392 . S
C88 C89 1.361 . S
C88 C90 1.500 . S
C89 C84 1.390 . S
C89 C88 1.361 . S
C89 H107 0.931 . S
C90 C88 1.500 . S
C90 C91 1.371 . S
C90 C92 1.365 . S
C91 C90 1.371 . S
C91 C101 1.386 . S
C91 H109 0.931 . S
C92 C90 1.365 . S
C92 C93 1.409 . S
C92 H110 0.929 . S
C93 C92 1.409 . S
C93 C94 1.380 . S
C93 H111 0.930 . S
C94 C93 1.380 . S
C94 C101 1.357 . S
C95 C86 1.511 . S
C95 C96 1.341 . S
C95 C97 1.371 . S
C96 C95 1.341 . S
C96 C100 1.394 . S
C96 H112 0.930 . S
C97 C95 1.371 . S
C97 C98 1.392 . S
C97 H113 0.931 . S
C98 C97 1.392 . S
C98 C99 1.331 . S
C98 H116 0.932 . S
C99 C98 1.331 . S
C99 C100 1.336 . S
C100 C96 1.394 . S
C100 C99 1.336 . S
C100 H115 0.929 . S
C101 C91 1.386 . S
C101 C94 1.357 . S
C101 H114 0.928 . S
H102 C78 0.931 . S
H103 C80 0.930 . S
H104 C82 0.929 . S
H105 C83 0.931 . S
H106 C85 0.930 . S
H107 C89 0.931 . S
H108 C87 0.931 . S
H109 C91 0.931 . S
H110 C92 0.929 . S
H111 C93 0.930 . S
H112 C96 0.930 . S
H113 C97 0.931 . S
H114 C101 0.928 . S
H115 C100 0.929 . S
H116 C98 0.932 . S
C117 C118 1.386 . S
C117 C119 1.397 . S
C117 H141 0.931 . S
C118 C117 1.386 . S
C118 C122 1.397 . S
C119 C117 1.397 . S
C119 C120 1.384 . S
C119 H142 0.930 . S
C120 C119 1.384 . S
C120 C121 1.377 . S
C120 C123 1.481 . S
C121 C120 1.377 . S
C121 C122 1.389 . S
C121 H143 0.929 . S
C122 C118 1.397 . S
C122 C121 1.389 . S
C122 H144 0.931 . S
C123 C120 1.481 . S
C123 C124 1.387 . S
C123 C128 1.390 . S
C124 C123 1.387 . S
C124 C125 1.401 . S
C124 H145 0.930 . S
C125 C124 1.401 . S
C125 C126 1.376 . S
C125 C134 1.511 . S
C126 C125 1.376 . S
C126 C127 1.392 . S
C126 H147 0.931 . S
C127 C126 1.392 . S
C127 C128 1.361 . S
C127 C129 1.500 . S
C128 C123 1.390 . S
C128 C127 1.361 . S
C128 H146 0.931 . S
C129 C127 1.500 . S
C129 C130 1.371 . S
C129 C131 1.365 . S
C130 C129 1.371 . S
C130 C140 1.386 . S
C130 H148 0.931 . S
C131 C129 1.365 . S
C131 C132 1.409 . S
C131 H149 0.929 . S
C132 C131 1.409 . S
C132 C133 1.380 . S
C132 H150 0.930 . S
C133 C132 1.380 . S
C133 C140 1.357 . S
C134 C125 1.511 . S
C134 C135 1.341 . S
C134 C136 1.371 . S
C135 C134 1.341 . S
C135 C139 1.394 . S
C135 H151 0.930 . S
C136 C134 1.371 . S
C136 C137 1.392 . S
C136 H152 0.931 . S
C137 C136 1.392 . S
C137 C138 1.331 . S
C137 H155 0.932 . S
C138 C137 1.331 . S
C138 C139 1.336 . S
C139 C135 1.394 . S
C139 C138 1.336 . S
C139 H154 0.929 . S
C140 C130 1.386 . S
C140 C133 1.357 . S
C140 H153 0.928 . S
H141 C117 0.931 . S
H142 C119 0.930 . S
H143 C121 0.929 . S
H144 C122 0.931 . S
H145 C124 0.930 . S
H146 C128 0.931 . S
H147 C126 0.931 . S
H148 C130 0.931 . S
H149 C131 0.929 . S
H150 C132 0.930 . S
H151 C135 0.930 . S
H152 C136 0.931 . S
H153 C140 0.928 . S
H154 C139 0.929 . S
H155 C137 0.932 . S
C156 C157 1.386 . S
C156 C158 1.397 . S
C156 H180 0.931 . S
C157 C156 1.386 . S
C157 C161 1.397 . S
C158 C156 1.397 . S
C158 C159 1.384 . S
C158 H181 0.930 . S
C159 C158 1.384 . S
C159 C160 1.377 . S
C159 C162 1.481 . S
C160 C159 1.377 . S
C160 C161 1.389 . S
C160 H182 0.929 . S
C161 C157 1.397 . S
C161 C160 1.389 . S
C161 H183 0.931 . S
C162 C159 1.481 . S
C162 C163 1.387 . S
C162 C167 1.390 . S
C163 C162 1.387 . S
C163 C164 1.401 . S
C163 H184 0.930 . S
C164 C163 1.401 . S
C164 C165 1.376 1_554 S
C164 C173 1.511 . S
C165 C164 1.376 1_556 S
C165 C166 1.392 . S
C165 H186 0.931 . S
C166 C165 1.392 . S
C166 C167 1.361 1_556 S
C166 C168 1.500 . S
C167 C162 1.390 . S
C167 C166 1.361 1_554 S
C167 H185 0.931 . S
C168 C166 1.500 . S
C168 C169 1.371 . S
C168 C170 1.365 . S
C169 C168 1.371 . S
C169 C179 1.386 . S
C169 H187 0.931 . S
C170 C168 1.365 . S
C170 C171 1.409 . S
C170 H188 0.929 . S
C171 C170 1.409 . S
C171 C172 1.380 . S
C171 H189 0.930 . S
C172 C171 1.380 . S
C172 C179 1.357 . S
C173 C164 1.511 . S
C173 C174 1.341 . S
C173 C175 1.371 . S
C174 C173 1.341 . S
C174 C178 1.394 . S
C174 H190 0.930 . S
C175 C173 1.371 . S
C175 C176 1.392 . S
C175 H191 0.931 1_554 S
C176 C175 1.392 . S
C176 C177 1.331 . S
C176 H194 0.932 . S
C177 C176 1.331 . S
C177 C178 1.336 . S
C178 C174 1.394 . S
C178 C177 1.336 . S
C178 H193 0.929 . S
C179 C169 1.386 . S
C179 C172 1.357 . S
C179 H192 0.928 . S
H180 C156 0.931 . S
H181 C158 0.930 . S
H182 C160 0.929 . S
H183 C161 0.931 . S
H184 C163 0.930 . S
H185 C167 0.931 . S
H186 C165 0.931 . S
H187 C169 0.931 . S
H188 C170 0.929 . S
H189 C171 0.930 . S
H190 C174 0.930 . S
H191 C175 0.931 1_556 S
H192 C179 0.928 . S
H193 C178 0.929 . S
H194 C176 0.932 . S
C195 C196 1.386 . S
C195 C197 1.397 . S
C195 H219 0.931 . S
C196 C195 1.386 . S
C196 C200 1.397 . S
C197 C195 1.397 . S
C197 C198 1.384 . S
C197 H220 0.930 . S
C198 C197 1.384 . S
C198 C199 1.377 . S
C198 C201 1.481 . S
C199 C198 1.377 . S
C199 C200 1.389 . S
C199 H221 0.929 . S
C200 C196 1.397 . S
C200 C199 1.389 . S
C200 H222 0.931 . S
C201 C198 1.481 . S
C201 C202 1.387 . S
C201 C206 1.390 . S
C202 C201 1.387 . S
C202 C203 1.401 . S
C202 H223 0.930 . S
C203 C202 1.401 . S
C203 C204 1.376 1_554 S
C203 C212 1.511 . S
C204 C203 1.376 1_556 S
C204 C205 1.392 . S
C204 H225 0.931 . S
C205 C204 1.392 . S
C205 C206 1.361 1_556 S
C205 C207 1.500 . S
C206 C201 1.390 . S
C206 C205 1.361 1_554 S
C206 H224 0.931 . S
C207 C205 1.500 . S
C207 C208 1.371 . S
C207 C209 1.365 . S
C208 C207 1.371 . S
C208 C218 1.386 . S
C208 H226 0.931 . S
C209 C207 1.365 . S
C209 C210 1.409 . S
C209 H227 0.929 . S
C210 C209 1.409 . S
C210 C211 1.380 . S
C210 H228 0.930 . S
C211 C210 1.380 . S
C211 C218 1.357 . S
C212 C203 1.511 . S
C212 C213 1.341 . S
C212 C214 1.371 . S
C213 C212 1.341 . S
C213 C217 1.394 . S
C213 H229 0.930 . S
C214 C212 1.371 . S
C214 C215 1.392 . S
C214 H230 0.931 1_554 S
C215 C214 1.392 . S
C215 C216 1.331 . S
C215 H233 0.932 . S
C216 C215 1.331 . S
C216 C217 1.336 . S
C217 C213 1.394 . S
C217 C216 1.336 . S
C217 H232 0.929 . S
C218 C208 1.386 . S
C218 C211 1.357 . S
C218 H231 0.928 . S
H219 C195 0.931 . S
H220 C197 0.930 . S
H221 C199 0.929 . S
H222 C200 0.931 . S
H223 C202 0.930 . S
H224 C206 0.931 . S
H225 C204 0.931 . S
H226 C208 0.931 . S
H227 C209 0.929 . S
H228 C210 0.930 . S
H229 C213 0.930 . S
H230 C214 0.931 1_556 S
H231 C218 0.928 . S
H232 C217 0.929 . S
H233 C215 0.932 . S
C234 C235 1.386 . S
C234 C236 1.397 . S
C234 H258 0.931 . S
C235 C234 1.386 . S
C235 C239 1.397 . S
C236 C234 1.397 . S
C236 C237 1.384 . S
C236 H259 0.930 . S
C237 C236 1.384 . S
C237 C238 1.377 . S
C237 C240 1.481 . S
C238 C237 1.377 . S
C238 C239 1.389 . S
C238 H260 0.929 . S
C239 C235 1.397 . S
C239 C238 1.389 . S
C239 H261 0.931 . S
C240 C237 1.481 . S
C240 C241 1.387 . S
C240 C245 1.390 . S
C241 C240 1.387 . S
C241 C242 1.401 . S
C241 H262 0.930 . S
C242 C241 1.401 . S
C242 C243 1.376 1_554 S
C242 C251 1.511 . S
C243 C242 1.376 1_556 S
C243 C244 1.392 . S
C243 H264 0.931 . S
C244 C243 1.392 . S
C244 C245 1.361 1_556 S
C244 C246 1.500 . S
C245 C240 1.390 . S
C245 C244 1.361 1_554 S
C245 H263 0.931 . S
C246 C244 1.500 . S
C246 C247 1.371 . S
C246 C248 1.365 . S
C247 C246 1.371 . S
C247 C257 1.386 . S
C247 H265 0.931 . S
C248 C246 1.365 . S
C248 C249 1.409 . S
C248 H266 0.929 . S
C249 C248 1.409 . S
C249 C250 1.380 . S
C249 H267 0.930 . S
C250 C249 1.380 . S
C250 C257 1.357 . S
C251 C242 1.511 . S
C251 C252 1.341 . S
C251 C253 1.371 . S
C252 C251 1.341 . S
C252 C256 1.394 . S
C252 H268 0.930 . S
C253 C251 1.371 . S
C253 C254 1.392 . S
C253 H269 0.931 1_554 S
C254 C253 1.392 . S
C254 C255 1.331 . S
C254 H272 0.932 . S
C255 C254 1.331 . S
C255 C256 1.336 . S
C256 C252 1.394 . S
C256 C255 1.336 . S
C256 H271 0.929 . S
C257 C247 1.386 . S
C257 C250 1.357 . S
C257 H270 0.928 . S
H258 C234 0.931 . S
H259 C236 0.930 . S
H260 C238 0.929 . S
H261 C239 0.931 . S
H262 C241 0.930 . S
H263 C245 0.931 . S
H264 C243 0.931 . S
H265 C247 0.931 . S
H266 C248 0.929 . S
H267 C249 0.930 . S
H268 C252 0.930 . S
H269 C253 0.931 1_556 S
H270 C257 0.928 . S
H271 C256 0.929 . S
H272 C254 0.932 . S
C273 C274 1.386 . S
C273 C275 1.397 . S
C273 H297 0.931 . S
C274 C273 1.386 . S
C274 C278 1.397 . S
C275 C273 1.397 . S
C275 C276 1.384 . S
C275 H298 0.930 . S
C276 C275 1.384 . S
C276 C277 1.377 . S
C276 C279 1.481 . S
C277 C276 1.377 . S
C277 C278 1.389 . S
C277 H299 0.929 . S
C278 C274 1.397 . S
C278 C277 1.389 . S
C278 H300 0.931 . S
C279 C276 1.481 . S
C279 C280 1.387 . S
C279 C284 1.390 1_556 S
C280 C279 1.387 . S
C280 C281 1.401 1_556 S
C280 H301 0.930 . S
C281 C280 1.401 1_554 S
C281 C282 1.376 . S
C281 C290 1.511 . S
C282 C281 1.376 . S
C282 C283 1.392 . S
C282 H303 0.931 . S
C283 C282 1.392 . S
C283 C284 1.361 . S
C283 C285 1.500 . S
C284 C279 1.390 1_554 S
C284 C283 1.361 . S
C284 H302 0.931 . S
C285 C283 1.500 . S
C285 C286 1.371 . S
C285 C287 1.365 . S
C286 C285 1.371 . S
C286 C296 1.386 . S
C286 H304 0.931 . S
C287 C285 1.365 . S
C287 C288 1.409 . S
C287 H305 0.929 . S
C288 C287 1.409 . S
C288 C289 1.380 . S
C288 H306 0.930 . S
C289 C288 1.380 . S
C289 C296 1.357 . S
C290 C281 1.511 . S
C290 C291 1.341 . S
C290 C292 1.371 . S
C291 C290 1.341 . S
C291 C295 1.394 . S
C291 H307 0.930 1_554 S
C292 C290 1.371 . S
C292 C293 1.392 . S
C292 H308 0.931 . S
C293 C292 1.392 . S
C293 C294 1.331 . S
C293 H311 0.932 . S
C294 C293 1.331 . S
C294 C295 1.336 . S
C295 C291 1.394 . S
C295 C294 1.336 . S
C295 H310 0.929 . S
C296 C286 1.386 . S
C296 C289 1.357 . S
C296 H309 0.928 . S
H297 C273 0.931 . S
H298 C275 0.930 . S
H299 C277 0.929 . S
H300 C278 0.931 . S
H301 C280 0.930 . S
H302 C284 0.931 . S
H303 C282 0.931 . S
H304 C286 0.931 . S
H305 C287 0.929 . S
H306 C288 0.930 . S
H307 C291 0.930 1_556 S
H308 C292 0.931 . S
H309 C296 0.928 . S
H310 C295 0.929 . S
H311 C293 0.932 . S
C312 C314 1.422 . S
C312 C316 1.415 . S
C312 N318 1.369 . S
C313 C314 1.421 . S
C313 C315 1.417 . S
C313 C325 1.422 . S
C314 C312 1.422 . S
C314 C313 1.421 . S
C314 N324 1.359 . S
C315 C313 1.417 . S
C315 C317 1.329 . S
C315 H334 0.930 . S
C316 C312 1.415 . S
C316 C317 1.437 . S
C316 C320 1.413 . S
C317 C315 1.329 . S
C317 C316 1.437 . S
C317 H339 0.929 . S
N318 C312 1.369 . S
N318 C319 1.339 . S
N318 Gd323 2.622 1_545 S
C319 N318 1.339 . S
C319 C321 1.383 . S
C319 H331 0.923 1_545 S
C320 C316 1.413 . S
C320 C321 1.348 . S
C320 H336 0.931 . S
C321 C319 1.383 . S
C321 C320 1.348 . S
C321 H337 0.930 . S
Gd322 N342 2.622 . S
Gd322 N349 2.570 . S
Gd322 O356 2.353 1_655 S
Gd322 O357 2.468 . S
Gd322 O358 2.427 . S
Gd322 O360 2.388 . S
Gd322 O361 2.386 1_545 S
Gd322 O365 2.307 1_655 S
Gd322 C375 2.805 . S
Gd323 N318 2.622 1_565 S
Gd323 N324 2.570 1_565 S
Gd323 O355 2.386 1_565 S
Gd323 O359 2.307 1_465 S
Gd323 O362 2.353 . S
Gd323 O363 2.468 . S
Gd323 O364 2.427 . S
Gd323 O366 2.388 . S
Gd323 C387 2.805 . S
N324 C314 1.359 . S
N324 Gd323 2.570 1_545 S
N324 C326 1.343 . S
C325 C313 1.422 . S
C325 C327 1.321 . S
C325 H333 0.931 . S
C326 N324 1.343 . S
C326 C327 1.390 . S
C326 H328 0.899 1_455 S
C327 C325 1.321 . S
C327 C326 1.390 . S
C327 H329 0.930 . S
H328 C326 0.899 1_655 S
H329 C327 0.930 . S
H330 C353 0.931 1_455 S
H331 C319 0.923 1_565 S
H332 C354 0.930 1_455 S
H333 C325 0.931 . S
H334 C315 0.930 . S
H335 C344 0.929 . S
H336 C320 0.931 . S
H337 C321 0.930 . S
H338 C376 0.930 . S
H339 C317 0.929 . S
H340 C345 0.944 . S
H341 C346 0.930 . S
N342 Gd322 2.622 . S
N342 C343 1.369 . S
N342 C344 1.338 . S
C343 N342 1.369 . S
C343 C347 1.415 1_545 S
C343 C350 1.422 . S
C344 H335 0.929 . S
C344 N342 1.338 . S
C344 C346 1.378 . S
C345 H340 0.944 . S
C345 C346 1.332 1_565 S
C345 C347 1.416 . S
C346 H341 0.930 . S
C346 C344 1.378 . S
C346 C345 1.332 1_545 S
C347 C343 1.415 1_565 S
C347 C345 1.416 . S
C347 C377 1.437 . S
H348 C377 0.929 . S
N349 Gd322 2.570 . S
N349 C350 1.359 . S
N349 C353 1.343 . S
C350 C343 1.422 . S
C350 N349 1.359 . S
C350 C352 1.421 1_545 S
C351 C352 1.422 . S
C351 C354 1.321 . S
C351 H378 0.931 . S
C352 C350 1.421 1_565 S
C352 C351 1.422 . S
C352 C376 1.417 . S
C353 H330 0.931 1_655 S
C353 N349 1.343 . S
C353 C354 1.390 1_545 S
C354 H332 0.930 1_655 S
C354 C351 1.321 . S
C354 C353 1.390 1_565 S
O355 Gd323 2.386 1_545 S
O355 C367 1.265 . S
O356 Gd322 2.353 1_455 S
O356 C367 1.242 . S
O357 Gd322 2.468 . S
O357 C375 1.263 . S
O358 Gd322 2.427 . S
O358 C375 1.252 . S
O359 Gd323 2.307 1_645 S
O359 C368 1.261 . S
O360 Gd322 2.388 . S
O360 C368 1.252 . S
O361 Gd322 2.386 1_565 S
O361 C379 1.265 . S
O362 Gd323 2.353 . S
O362 C379 1.242 1_455 S
O363 Gd323 2.468 . S
O363 C387 1.263 . S
O364 Gd323 2.427 . S
O364 C387 1.252 . S
O365 Gd322 2.307 1_455 S
O365 C380 1.261 . S
O366 Gd323 2.388 . S
O366 C380 1.252 1_565 S
C367 O355 1.265 . S
C367 O356 1.242 . S
C368 O359 1.261 . S
C368 O360 1.252 . S
C369 C372 1.394 . S
C369 C374 1.370 . S
C369 C375 1.500 . S
C370 C373 1.383 . S
C370 C374 1.395 . S
C371 C372 1.396 . S
C371 C373 1.365 . S
C371 H388 0.929 . S
C372 C369 1.394 . S
C372 C371 1.396 . S
C372 H389 0.930 . S
C373 C370 1.383 . S
C373 C371 1.365 . S
C373 H390 0.931 . S
C374 C369 1.370 . S
C374 C370 1.395 . S
C374 H391 0.930 1_655 S
C375 Gd322 2.805 . S
C375 O357 1.263 . S
C375 O358 1.252 . S
C375 C369 1.500 . S
C376 H338 0.930 . S
C376 C352 1.417 . S
C376 C377 1.329 . S
C377 C347 1.437 . S
C377 H348 0.929 . S
C377 C376 1.329 . S
H378 C351 0.931 . S
C379 O361 1.265 . S
C379 O362 1.242 1_655 S
C380 O365 1.261 . S
C380 O366 1.252 1_545 S
C381 C384 1.394 . S
C381 C386 1.370 . S
C381 C387 1.500 . S
C382 C385 1.383 . S
C382 C386 1.395 . S
C383 C384 1.396 . S
C383 C385 1.365 . S
C383 H392 0.929 . S
C384 C381 1.394 . S
C384 C383 1.396 . S
C384 H393 0.930 . S
C385 C382 1.383 . S
C385 C383 1.365 . S
C385 H394 0.931 . S
C386 C381 1.370 . S
C386 C382 1.395 . S
C386 H395 0.930 . S
C387 Gd323 2.805 . S
C387 O363 1.263 . S
C387 O364 1.252 . S
C387 C381 1.500 . S
H388 C371 0.929 . S
H389 C372 0.930 . S
H390 C373 0.931 . S
H391 C374 0.930 1_455 S
H392 C383 0.929 . S
H393 C384 0.930 . S
H394 C385 0.931 . S
H395 C386 0.930 . S
C396 C398 1.422 . S
C396 C400 1.415 . S
C396 N402 1.369 . S
C397 C398 1.421 . S
C397 C399 1.417 . S
C397 C409 1.422 . S
C398 C396 1.422 . S
C398 C397 1.421 . S
C398 N408 1.359 . S
C399 C397 1.417 . S
C399 C401 1.329 . S
C399 H418 0.930 . S
C400 C396 1.415 . S
C400 C401 1.437 . S
C400 C404 1.413 . S
C401 C399 1.329 . S
C401 C400 1.437 . S
C401 H423 0.929 . S
N402 C396 1.369 . S
N402 C403 1.338 . S
N402 Gd407 2.622 . S
C403 N402 1.338 . S
C403 C405 1.378 . S
C403 H415 0.929 . S
C404 C400 1.413 . S
C404 C405 1.348 . S
C404 H420 0.931 . S
C405 C403 1.378 . S
C405 C404 1.348 . S
C405 H421 0.930 . S
Gd406 N426 2.622 . S
Gd406 N433 2.570 . S
Gd406 O440 2.353 1_545 S
Gd406 O441 2.468 . S
Gd406 O442 2.427 . S
Gd406 O444 2.388 . S
Gd406 O445 2.386 . S
Gd406 O449 2.307 . S
Gd406 C459 2.805 . S
Gd407 N402 2.622 . S
Gd407 N408 2.570 . S
Gd407 O439 2.386 . S
Gd407 O443 2.307 1_565 S
Gd407 O446 2.353 1_565 S
Gd407 O447 2.468 . S
Gd407 O448 2.427 . S
Gd407 O450 2.388 . S
Gd407 C471 2.805 . S
N408 C398 1.359 . S
N408 Gd407 2.570 . S
N408 C410 1.343 . S
C409 C397 1.422 . S
C409 C411 1.321 . S
C409 H417 0.931 . S
C410 N408 1.343 . S
C410 C411 1.390 . S
C410 H412 0.931 . S
C411 C409 1.321 . S
C411 C410 1.390 . S
C411 H413 0.930 . S
H412 C410 0.931 . S
H413 C411 0.930 . S
H414 C437 0.931 . S
H415 C403 0.929 . S
H416 C438 0.930 . S
H417 C409 0.931 . S
H418 C399 0.930 . S
H419 C428 0.929 . S
H420 C404 0.931 . S
H421 C405 0.930 . S
H422 C460 0.930 . S
H423 C401 0.929 . S
H424 C429 0.931 . S
H425 C430 0.930 . S
N426 Gd406 2.622 . S
N426 C427 1.369 . S
N426 C428 1.338 . S
C427 N426 1.369 . S
C427 C431 1.415 . S
C427 C434 1.422 . S
C428 H419 0.929 . S
C428 N426 1.338 . S
C428 C430 1.378 . S
C429 H424 0.931 . S
C429 C430 1.348 . S
C429 C431 1.413 . S
C430 H425 0.930 . S
C430 C428 1.378 . S
C430 C429 1.348 . S
C431 C427 1.415 . S
C431 C429 1.413 . S
C431 C461 1.437 . S
H432 C461 0.929 . S
N433 Gd406 2.570 . S
N433 C434 1.359 . S
N433 C437 1.343 . S
C434 C427 1.422 . S
C434 N433 1.359 . S
C434 C436 1.421 . S
C435 C436 1.422 . S
C435 C438 1.321 . S
C435 H462 0.931 . S
C436 C434 1.421 . S
C436 C435 1.422 . S
C436 C460 1.417 . S
C437 H414 0.931 . S
C437 N433 1.343 . S
C437 C438 1.390 . S
C438 H416 0.930 . S
C438 C435 1.321 . S
C438 C437 1.390 . S
O439 Gd407 2.386 . S
O439 C451 1.265 . S
O440 Gd406 2.353 1_565 S
O440 C451 1.242 . S
O441 Gd406 2.468 . S
O441 C459 1.263 . S
O442 Gd406 2.427 . S
O442 C459 1.252 . S
O443 Gd407 2.307 1_545 S
O443 C452 1.261 . S
O444 Gd406 2.388 . S
O444 C452 1.252 . S
O445 Gd406 2.386 . S
O445 C463 1.265 . S
O446 Gd407 2.353 1_545 S
O446 C463 1.242 . S
O447 Gd407 2.468 . S
O447 C471 1.263 . S
O448 Gd407 2.427 . S
O448 C471 1.252 . S
O449 Gd406 2.307 . S
O449 C464 1.256 1_545 S
O450 Gd407 2.388 . S
O450 C464 1.255 . S
C451 O439 1.265 . S
C451 O440 1.242 . S
C452 O443 1.261 . S
C452 O444 1.252 . S
C453 C456 1.394 . S
C453 C458 1.370 . S
C453 C459 1.500 . S
C454 C457 1.383 . S
C454 C458 1.395 . S
C455 C456 1.396 . S
C455 C457 1.365 . S
C455 H472 0.929 . S
C456 C453 1.394 . S
C456 C455 1.396 . S
C456 H473 0.930 . S
C457 C454 1.383 . S
C457 C455 1.365 . S
C457 H474 0.931 . S
C458 C453 1.370 . S
C458 C454 1.395 . S
C458 H475 0.930 . S
C459 Gd406 2.805 . S
C459 O441 1.263 . S
C459 O442 1.252 . S
C459 C453 1.500 . S
C460 H422 0.930 . S
C460 C436 1.417 . S
C460 C461 1.329 . S
C461 C431 1.437 . S
C461 H432 0.929 . S
C461 C460 1.329 . S
H462 C435 0.931 . S
C463 O445 1.265 . S
C463 O446 1.242 . S
C464 O449 1.256 1_565 S
C464 O450 1.255 . S
C465 C468 1.394 . S
C465 C470 1.370 1_565 S
C465 C471 1.500 . S
C466 C469 1.383 1_545 S
C466 C470 1.395 . S
C467 C468 1.396 . S
C467 C469 1.365 . S
C467 H476 0.929 . S
C468 C465 1.394 . S
C468 C467 1.396 . S
C468 H477 0.930 . S
C469 C466 1.383 1_565 S
C469 C467 1.365 . S
C469 H478 0.931 . S
C470 C465 1.370 1_545 S
C470 C466 1.395 . S
C470 H479 0.930 . S
C471 Gd407 2.805 . S
C471 O447 1.263 . S
C471 O448 1.252 . S
C471 C465 1.500 . S
H472 C455 0.929 . S
H473 C456 0.930 . S
H474 C457 0.931 . S
H475 C458 0.930 . S
H476 C467 0.929 . S
H477 C468 0.930 . S
H478 C469 0.931 . S
H479 C470 0.930 . S
C480 C482 1.422 . S
C480 C484 1.415 . S
C480 N486 1.369 . S
C481 C482 1.421 . S
C481 C483 1.417 . S
C481 C493 1.422 . S
C482 C480 1.422 . S
C482 C481 1.421 . S
C482 N492 1.359 . S
C483 C481 1.417 . S
C483 C485 1.329 . S
C483 H502 0.930 . S
C484 C480 1.415 . S
C484 C485 1.437 . S
C484 C488 1.413 . S
C485 C483 1.329 . S
C485 C484 1.437 . S
C485 H507 0.929 . S
N486 C480 1.369 . S
N486 C487 1.338 . S
N486 Gd491 2.622 . S
C487 N486 1.338 . S
C487 C489 1.378 . S
C487 H499 0.929 . S
C488 C484 1.413 . S
C488 C489 1.348 . S
C488 H504 0.931 . S
C489 C487 1.378 . S
C489 C488 1.348 . S
C489 H505 0.930 . S
Gd490 N510 2.622 . S
Gd490 N517 2.570 . S
Gd490 O524 2.353 . S
Gd490 O525 2.468 . S
Gd490 O526 2.427 . S
Gd490 O528 2.388 . S
Gd490 O529 2.386 . S
Gd490 O533 2.307 . S
Gd490 C543 2.805 . S
Gd491 N486 2.622 . S
Gd491 N492 2.570 . S
Gd491 O523 2.386 . S
Gd491 O527 2.307 . S
Gd491 O530 2.353 . S
Gd491 O531 2.468 . S
Gd491 O532 2.427 . S
Gd491 O534 2.388 . S
Gd491 C555 2.805 . S
N492 C482 1.359 . S
N492 Gd491 2.570 . S
N492 C494 1.343 . S
C493 C481 1.422 . S
C493 C495 1.321 . S
C493 H501 0.931 . S
C494 N492 1.343 . S
C494 C495 1.390 . S
C494 H496 0.931 . S
C495 C493 1.321 . S
C495 C494 1.390 . S
C495 H497 0.930 . S
H496 C494 0.931 . S
H497 C495 0.930 . S
H498 C521 0.931 . S
H499 C487 0.929 . S
H500 C522 0.930 . S
H501 C493 0.931 . S
H502 C483 0.930 . S
H503 C512 0.929 . S
H504 C488 0.931 . S
H505 C489 0.930 . S
H506 C544 0.930 . S
H507 C485 0.929 . S
H508 C513 0.931 . S
H509 C514 0.930 . S
N510 Gd490 2.622 . S
N510 C511 1.369 . S
N510 C512 1.338 . S
C511 N510 1.369 . S
C511 C515 1.415 . S
C511 C518 1.422 . S
C512 H503 0.929 . S
C512 N510 1.338 . S
C512 C514 1.378 . S
C513 H508 0.931 . S
C513 C514 1.348 . S
C513 C515 1.413 . S
C514 H509 0.930 . S
C514 C512 1.378 . S
C514 C513 1.348 . S
C515 C511 1.415 . S
C515 C513 1.413 . S
C515 C545 1.437 . S
H516 C545 0.929 . S
N517 Gd490 2.570 . S
N517 C518 1.359 . S
N517 C521 1.343 . S
C518 C511 1.422 . S
C518 N517 1.359 . S
C518 C520 1.421 . S
C519 C520 1.422 . S
C519 C522 1.321 . S
C519 H546 0.931 . S
C520 C518 1.421 . S
C520 C519 1.422 . S
C520 C544 1.417 . S
C521 H498 0.931 . S
C521 N517 1.343 . S
C521 C522 1.390 . S
C522 H500 0.930 . S
C522 C519 1.321 . S
C522 C521 1.390 . S
O523 Gd491 2.386 . S
O523 C535 1.265 . S
O524 Gd490 2.353 . S
O524 C535 1.242 . S
O525 Gd490 2.468 . S
O525 C543 1.263 . S
O526 Gd490 2.427 . S
O526 C543 1.252 . S
O527 Gd491 2.307 . S
O527 C536 1.261 . S
O528 Gd490 2.388 . S
O528 C536 1.252 . S
O529 Gd490 2.386 . S
O529 C547 1.265 . S
O530 Gd491 2.353 . S
O530 C547 1.242 . S
O531 Gd491 2.468 . S
O531 C555 1.263 . S
O532 Gd491 2.427 . S
O532 C555 1.252 . S
O533 Gd490 2.307 . S
O533 C548 1.261 . S
O534 Gd491 2.388 . S
O534 C548 1.252 . S
C535 O523 1.265 . S
C535 O524 1.242 . S
C536 O527 1.261 . S
C536 O528 1.252 . S
C537 C540 1.394 . S
C537 C542 1.370 . S
C537 C543 1.500 . S
C538 C541 1.383 . S
C538 C542 1.395 . S
C539 C540 1.396 . S
C539 C541 1.365 . S
C539 H556 0.929 . S
C540 C537 1.394 . S
C540 C539 1.396 . S
C540 H557 0.930 . S
C541 C538 1.383 . S
C541 C539 1.365 . S
C541 H558 0.931 . S
C542 C537 1.370 . S
C542 C538 1.395 . S
C542 H559 0.930 . S
C543 Gd490 2.805 . S
C543 O525 1.263 . S
C543 O526 1.252 . S
C543 C537 1.500 . S
C544 H506 0.930 . S
C544 C520 1.417 . S
C544 C545 1.329 . S
C545 C515 1.437 . S
C545 H516 0.929 . S
C545 C544 1.329 . S
H546 C519 0.931 . S
C547 O529 1.265 . S
C547 O530 1.242 . S
C548 O533 1.261 . S
C548 O534 1.252 . S
C549 C552 1.394 . S
C549 C554 1.370 . S
C549 C555 1.500 . S
C550 C553 1.383 . S
C550 C554 1.395 . S
C551 C552 1.396 . S
C551 C553 1.365 . S
C551 H560 0.929 . S
C552 C549 1.394 . S
C552 C551 1.396 . S
C552 H561 0.930 . S
C553 C550 1.383 . S
C553 C551 1.365 . S
C553 H562 0.931 . S
C554 C549 1.370 . S
C554 C550 1.395 . S
C554 H563 0.930 . S
C555 Gd491 2.805 . S
C555 O531 1.263 . S
C555 O532 1.252 . S
C555 C549 1.500 . S
H556 C539 0.929 . S
H557 C540 0.930 . S
H558 C541 0.931 . S
H559 C542 0.930 . S
H560 C551 0.929 . S
H561 C552 0.930 . S
H562 C553 0.931 . S
H563 C554 0.930 . S
C564 C566 1.422 . S
C564 C568 1.415 . S
C564 N570 1.369 1_455 S
C565 C566 1.421 . S
C565 C567 1.417 . S
C565 C577 1.422 . S
C566 C564 1.422 . S
C566 C565 1.421 . S
C566 N576 1.359 . S
C567 C565 1.417 . S
C567 C569 1.329 . S
C567 H586 0.930 . S
C568 C564 1.415 . S
C568 C569 1.437 . S
C568 C572 1.413 . S
C569 C567 1.329 . S
C569 C568 1.437 . S
C569 H591 0.929 . S
N570 C564 1.369 1_655 S
N570 C571 1.338 . S
N570 Gd575 2.622 . S
C571 N570 1.338 . S
C571 C573 1.378 1_655 S
C571 H583 0.929 . S
C572 C568 1.413 . S
C572 C573 1.348 . S
C572 H588 0.931 . S
C573 C571 1.378 1_455 S
C573 C572 1.348 . S
C573 H589 0.929 1_455 S
Gd574 N594 2.622 . S
Gd574 N601 2.570 . S
Gd574 O608 2.353 . S
Gd574 O609 2.468 . S
Gd574 O610 2.427 . S
Gd574 O612 2.388 . S
Gd574 O613 2.386 1_455 S
Gd574 O617 2.307 . S
Gd574 C627 2.805 . S
Gd575 N570 2.622 . S
Gd575 N576 2.570 1_655 S
Gd575 O607 2.386 1_655 S
Gd575 O611 2.317 . S
Gd575 O614 2.353 . S
Gd575 O615 2.468 . S
Gd575 O616 2.427 . S
Gd575 O618 2.388 . S
Gd575 C639 2.805 . S
N576 C566 1.359 . S
N576 Gd575 2.570 1_455 S
N576 C578 1.343 . S
C577 C565 1.422 . S
C577 C579 1.321 . S
C577 H585 0.931 . S
C578 N576 1.343 . S
C578 C579 1.390 . S
C578 H580 0.931 1_455 S
C579 C577 1.321 . S
C579 C578 1.390 . S
C579 H581 0.930 . S
H580 C578 0.931 1_655 S
H581 C579 0.930 . S
H582 C605 0.931 . S
H583 C571 0.929 . S
H584 C606 0.930 . S
H585 C577 0.931 . S
H586 C567 0.930 . S
H587 C596 0.929 . S
H588 C572 0.931 . S
H589 C573 0.929 1_655 S
H590 C628 0.930 . S
H591 C569 0.929 . S
H592 C597 0.931 . S
H593 C598 0.930 . S
N594 Gd574 2.622 . S
N594 C595 1.369 . S
N594 C596 1.338 . S
C595 N594 1.369 . S
C595 C599 1.415 1_455 S
C595 C602 1.426 . S
C596 H587 0.929 . S
C596 N594 1.338 . S
C596 C598 1.378 . S
C597 H592 0.931 . S
C597 C598 1.348 1_655 S
C597 C599 1.413 . S
C598 H593 0.930 . S
C598 C596 1.378 . S
C598 C597 1.348 1_455 S
C599 C595 1.415 1_655 S
C599 C597 1.413 . S
C599 C629 1.437 . S
H600 C629 0.929 . S
N601 Gd574 2.570 . S
N601 C602 1.371 . S
N601 C605 1.343 . S
C602 C595 1.426 . S
C602 N601 1.371 . S
C602 C604 1.406 1_455 S
C603 C604 1.422 . S
C603 C606 1.321 . S
C603 H630 0.931 . S
C604 C602 1.406 1_655 S
C604 C603 1.422 . S
C604 C628 1.417 . S
C605 H582 0.931 . S
C605 N601 1.343 . S
C605 C606 1.390 1_455 S
C606 H584 0.930 . S
C606 C603 1.321 . S
C606 C605 1.390 1_655 S
O607 Gd575 2.386 1_455 S
O607 C619 1.265 . S
O608 Gd574 2.353 . S
O608 C619 1.242 . S
O609 Gd574 2.468 . S
O609 C627 1.263 . S
O610 Gd574 2.427 . S
O610 C627 1.252 . S
O611 Gd575 2.317 . S
O611 C620 1.254 1_655 S
O612 Gd574 2.388 . S
O612 C620 1.252 . S
O613 Gd574 2.386 1_655 S
O613 C631 1.265 . S
O614 Gd575 2.353 . S
O614 C631 1.242 . S
O615 Gd575 2.468 . S
O615 C639 1.263 . S
O616 Gd575 2.427 . S
O616 C639 1.252 . S
O617 Gd574 2.307 . S
O617 C632 1.261 . S
O618 Gd575 2.388 . S
O618 C632 1.252 1_655 S
C619 O607 1.265 . S
C619 O608 1.242 . S
C620 O611 1.254 1_455 S
C620 O612 1.252 . S
C621 C624 1.394 . S
C621 C626 1.370 . S
C621 C627 1.500 . S
C622 C625 1.383 . S
C622 C626 1.395 . S
C623 C624 1.396 . S
C623 C625 1.365 . S
C623 H640 0.929 . S
C624 C621 1.394 . S
C624 C623 1.396 . S
C624 H641 0.930 . S
C625 C622 1.383 . S
C625 C623 1.365 . S
C625 H642 0.931 . S
C626 C621 1.370 . S
C626 C622 1.395 . S
C626 H643 0.930 . S
C627 Gd574 2.805 . S
C627 O609 1.263 . S
C627 O610 1.252 . S
C627 C621 1.500 . S
C628 H590 0.930 . S
C628 C604 1.417 . S
C628 C629 1.329 . S
C629 C599 1.437 . S
C629 H600 0.929 . S
C629 C628 1.329 . S
H630 C603 0.931 . S
C631 O613 1.265 . S
C631 O614 1.242 . S
C632 O617 1.261 . S
C632 O618 1.252 1_455 S
C633 C636 1.394 . S
C633 C638 1.370 . S
C633 C639 1.500 . S
C634 C637 1.383 . S
C634 C638 1.395 . S
C635 C636 1.396 . S
C635 C637 1.365 . S
C635 H644 0.929 . S
C636 C633 1.394 . S
C636 C635 1.396 . S
C636 H645 0.930 . S
C637 C634 1.383 . S
C637 C635 1.365 . S
C637 H646 0.931 . S
C638 C633 1.370 . S
C638 C634 1.395 . S
C638 H647 0.930 . S
C639 Gd575 2.805 . S
C639 O615 1.263 . S
C639 O616 1.252 . S
C639 C633 1.500 . S
H640 C623 0.929 . S
H641 C624 0.930 . S
H642 C625 0.931 . S
H643 C626 0.930 . S
H644 C635 0.929 . S
H645 C636 0.930 . S
H646 C637 0.931 . S
H647 C638 0.930 . S
H648 C654 0.930 . S
H649 C658 0.930 . S
H650 C663 0.929 . S
H651 C661 0.929 . S
H652 C656 0.929 . S
H653 C662 0.929 . S
C654 H648 0.930 . S
C654 C655 1.367 . S
C654 C662 1.378 . S
C655 C654 1.367 . S
C655 C663 1.433 . S
C656 H652 0.929 . S
C656 C658 1.378 . S
C656 C660 1.350 . S
C657 C660 1.463 . S
C657 C662 1.350 . S
C657 N665 1.427 . S
C658 H649 0.930 . S
C658 C656 1.378 . S
C658 C659 1.367 . S
C659 C658 1.367 . S
C659 C661 1.433 . S
C660 C656 1.350 . S
C660 C657 1.463 . S
C660 N664 1.427 . S
C661 H651 0.929 . S
C661 C659 1.433 . S
C661 N664 1.384 . S
C662 H653 0.929 . S
C662 C654 1.378 . S
C662 C657 1.350 . S
C663 H650 0.929 . S
C663 C655 1.433 . S
C663 N665 1.384 . S
N664 C660 1.427 . S
N664 C661 1.384 . S
N665 C657 1.427 . S
N665 C663 1.384 . S
H666 C672 0.930 . S
H667 C676 0.930 . S
H668 C681 0.929 . S
H669 C679 0.929 . S
H670 C674 0.929 . S
H671 C680 0.929 . S
C672 H666 0.930 . S
C672 C673 1.367 . S
C672 C680 1.378 . S
C673 C672 1.367 . S
C673 C681 1.433 . S
C674 H670 0.929 . S
C674 C676 1.378 . S
C674 C678 1.350 . S
C675 C678 1.463 . S
C675 C680 1.350 . S
C675 N683 1.427 . S
C676 H667 0.930 . S
C676 C674 1.378 . S
C676 C677 1.367 . S
C677 C676 1.367 . S
C677 C679 1.433 . S
C678 C674 1.350 . S
C678 C675 1.463 . S
C678 N682 1.427 . S
C679 H669 0.929 . S
C679 C677 1.433 . S
C679 N682 1.384 . S
C680 H671 0.929 . S
C680 C672 1.378 . S
C680 C675 1.350 . S
C681 H668 0.929 . S
C681 C673 1.433 . S
C681 N683 1.384 . S
N682 C678 1.427 . S
N682 C679 1.384 . S
N683 C675 1.427 . S
N683 C681 1.384 . S
H684 C690 0.930 . S
H685 C694 0.930 . S
H686 C699 0.929 . S
H687 C697 0.929 . S
H688 C692 0.929 . S
H689 C698 0.929 . S
C690 H684 0.930 . S
C690 C691 1.367 . S
C690 C698 1.378 . S
C691 C690 1.367 . S
C691 C699 1.433 . S
C692 H688 0.929 . S
C692 C694 1.378 . S
C692 C696 1.350 . S
C693 C696 1.463 . S
C693 C698 1.350 . S
C693 N701 1.427 . S
C694 H685 0.930 . S
C694 C692 1.378 . S
C694 C695 1.367 . S
C695 C694 1.367 . S
C695 C697 1.433 . S
C696 C692 1.350 . S
C696 C693 1.463 . S
C696 N700 1.427 . S
C697 H687 0.929 . S
C697 C695 1.433 . S
C697 N700 1.384 . S
C698 H689 0.929 . S
C698 C690 1.378 . S
C698 C693 1.350 . S
C699 H686 0.929 . S
C699 C691 1.433 . S
C699 N701 1.384 . S
N700 C696 1.427 . S
N700 C697 1.384 . S
N701 C693 1.427 . S
N701 C699 1.384 . S
H702 C708 0.930 . S
H703 C712 0.930 . S
H704 C717 0.929 . S
H705 C715 0.929 1_655 S
H706 C710 0.929 . S
H707 C716 0.929 . S
C708 H702 0.930 . S
C708 C709 1.367 . S
C708 C716 1.378 . S
C709 C708 1.367 . S
C709 C717 1.433 . S
C710 H706 0.929 . S
C710 C712 1.378 . S
C710 C714 1.350 . S
C711 C714 1.463 . S
C711 C716 1.350 . S
C711 N719 1.427 . S
C712 H703 0.930 . S
C712 C710 1.378 . S
C712 C713 1.367 . S
C713 C712 1.367 . S
C713 C715 1.433 . S
C714 C710 1.350 . S
C714 C711 1.463 . S
C714 N718 1.427 . S
C715 H705 0.929 1_455 S
C715 C713 1.433 . S
C715 N718 1.384 . S
C716 H707 0.929 . S
C716 C708 1.378 . S
C716 C711 1.350 . S
C717 H704 0.929 . S
C717 C709 1.433 . S
C717 N719 1.384 . S
N718 C714 1.427 . S
N718 C715 1.384 . S
N719 C711 1.427 . S
N719 C717 1.384 . S
H720 C726 0.930 . S
H721 C730 0.930 . S
H722 C735 0.929 . S
H723 C733 0.929 . S
H724 C728 0.929 . S
H725 C734 0.929 . S
C726 H720 0.930 . S
C726 C727 1.367 . S
C726 C734 1.378 1_554 S
C727 C726 1.367 . S
C727 C735 1.433 . S
C728 H724 0.929 . S
C728 C730 1.378 . S
C728 C732 1.350 . S
C729 C732 1.463 . S
C729 C734 1.350 . S
C729 N737 1.427 1_556 S
C730 H721 0.930 . S
C730 C728 1.378 . S
C730 C731 1.367 . S
C731 C730 1.367 . S
C731 C733 1.433 . S
C732 C728 1.350 . S
C732 C729 1.463 . S
C732 N736 1.427 . S
C733 H723 0.929 . S
C733 C731 1.433 . S
C733 N736 1.384 . S
C734 H725 0.929 . S
C734 C726 1.378 1_556 S
C734 C729 1.350 . S
C735 H722 0.929 . S
C735 C727 1.433 . S
C735 N737 1.384 . S
N736 C732 1.427 . S
N736 C733 1.384 . S
N737 C729 1.427 1_554 S
N737 C735 1.384 . S
H738 C744 0.930 . S
H739 C748 0.930 . S
H740 C753 0.929 . S
H741 C751 0.929 . S
H742 C746 0.929 . S
H743 C752 0.929 1_556 S
C744 H738 0.930 . S
C744 C745 1.367 . S
C744 C752 1.378 . S
C745 C744 1.367 . S
C745 C753 1.433 . S
C746 H742 0.929 . S
C746 C748 1.378 . S
C746 C750 1.350 . S
C747 C750 1.463 . S
C747 C752 1.350 1_556 S
C747 N755 1.427 1_556 S
C748 H739 0.930 . S
C748 C746 1.378 . S
C748 C749 1.367 . S
C749 C748 1.367 . S
C749 C751 1.433 . S
C750 C746 1.350 . S
C750 C747 1.463 . S
C750 N754 1.427 . S
C751 H741 0.929 . S
C751 C749 1.433 . S
C751 N754 1.384 . S
C752 H743 0.929 1_554 S
C752 C744 1.378 . S
C752 C747 1.350 1_554 S
C753 H740 0.929 . S
C753 C745 1.433 . S
C753 N755 1.384 . S
N754 C750 1.427 . S
N754 C751 1.384 . S
N755 C747 1.427 1_554 S
N755 C753 1.384 . S
H756 C762 0.930 . S
H757 C766 0.930 . S
H758 C771 0.929 . S
H759 C769 0.929 . S
H760 C764 0.929 . S
H761 C770 0.929 . S
C762 H756 0.930 . S
C762 C763 1.367 . S
C762 C770 1.378 . S
C763 C762 1.367 . S
C763 C771 1.433 . S
C764 H760 0.929 . S
C764 C766 1.378 . S
C764 C768 1.350 . S
C765 C768 1.463 . S
C765 C770 1.350 1_556 S
C765 N773 1.427 . S
C766 H757 0.930 . S
C766 C764 1.378 . S
C766 C767 1.367 . S
C767 C766 1.367 . S
C767 C769 1.433 . S
C768 C764 1.350 . S
C768 C765 1.463 . S
C768 N772 1.427 . S
C769 H759 0.929 . S
C769 C767 1.433 . S
C769 N772 1.384 . S
C770 H761 0.929 . S
C770 C762 1.378 . S
C770 C765 1.350 1_554 S
C771 H758 0.929 . S
C771 C763 1.433 . S
C771 N773 1.384 1_554 S
N772 C768 1.427 . S
N772 C769 1.384 . S
N773 C765 1.427 . S
N773 C771 1.384 1_556 S
H774 C780 0.930 . S
H775 C784 0.930 . S
H776 C789 0.929 1_455 S
H777 C787 0.929 . S
H778 C782 0.929 . S
H779 C788 0.929 1_556 S
C780 H774 0.930 . S
C780 C781 1.367 . S
C780 C788 1.378 . S
C781 C780 1.367 . S
C781 C789 1.433 . S
C782 H778 0.929 . S
C782 C784 1.378 . S
C782 C786 1.350 1_455 S
C783 C786 1.463 . S
C783 C788 1.350 1_556 S
C783 N791 1.460 1_556 S
C784 H775 0.930 . S
C784 C782 1.378 . S
C784 C785 1.367 1_455 S
C785 C784 1.367 1_655 S
C785 C787 1.433 . S
C786 C782 1.350 1_655 S
C786 C783 1.463 . S
C786 N790 1.427 . S
C787 H777 0.929 . S
C787 C785 1.433 . S
C787 N790 1.384 . S
C788 H779 0.929 1_554 S
C788 C780 1.378 . S
C788 C783 1.350 1_554 S
C789 H776 0.929 1_655 S
C789 C781 1.433 . S
C789 N791 1.391 . S
N790 C786 1.427 . S
N790 C787 1.384 . S
N791 C783 1.460 1_554 S
N791 C789 1.391 . S
H792 C798 0.930 . S
H793 C802 0.930 . S
H794 C807 0.929 . S
H795 C805 0.929 . S
H796 C800 0.929 . S
H797 C806 0.929 . S
C798 H792 0.930 . S
C798 C799 1.367 . S
C798 C806 1.378 . S
C799 C798 1.367 . S
C799 C807 1.433 . S
C800 H796 0.929 . S
C800 C802 1.378 . S
C800 C804 1.350 1_655 S
C801 C804 1.463 . S
C801 C806 1.350 . S
C801 N809 1.427 . S
C802 H793 0.930 . S
C802 C800 1.378 . S
C802 C803 1.367 . S
C803 C802 1.367 . S
C803 C805 1.433 1_655 S
C804 C800 1.350 1_455 S
C804 C801 1.463 . S
C804 N808 1.427 . S
C805 H795 0.929 . S
C805 C803 1.433 1_455 S
C805 N808 1.384 . S
C806 H797 0.929 . S
C806 C798 1.378 . S
C806 C801 1.350 . S
C807 H794 0.929 . S
C807 C799 1.433 . S
C807 N809 1.384 . S
N808 C804 1.427 . S
N808 C805 1.384 . S
N809 C801 1.427 . S
N809 C807 1.384 . S
H810 C816 0.930 . S
H811 C820 0.930 . S
H812 C825 0.929 . S
H813 C823 0.929 . S
H814 C818 0.932 . S
H815 C824 0.929 . S
C816 H810 0.930 . S
C816 C817 1.367 . S
C816 C824 1.378 . S
C817 C816 1.367 . S
C817 C825 1.433 . S
C818 H814 0.932 . S
C818 C820 1.380 . S
C818 C822 1.345 1_565 S
C819 C822 1.463 . S
C819 C824 1.350 . S
C819 N827 1.427 . S
C820 H811 0.930 . S
C820 C818 1.380 . S
C820 C821 1.367 1_565 S
C821 C820 1.367 1_545 S
C821 C823 1.433 . S
C822 C818 1.345 1_545 S
C822 C819 1.463 . S
C822 N826 1.427 . S
C823 H813 0.929 . S
C823 C821 1.433 . S
C823 N826 1.384 . S
C824 H815 0.929 . S
C824 C816 1.378 . S
C824 C819 1.350 . S
C825 H812 0.929 . S
C825 C817 1.433 . S
C825 N827 1.384 . S
N826 C822 1.427 . S
N826 C823 1.384 . S
N827 C819 1.427 . S
N827 C825 1.384 . S
H828 C834 0.930 . S
H829 C838 0.930 . S
H830 C843 0.929 . S
H831 C841 0.929 . S
H832 C836 0.929 . S
H833 C842 0.929 . S
C834 H828 0.930 . S
C834 C835 1.367 . S
C834 C842 1.378 . S
C835 C834 1.367 . S
C835 C843 1.433 . S
C836 H832 0.929 . S
C836 C838 1.378 . S
C836 C840 1.350 . S
C837 C840 1.463 . S
C837 C842 1.350 . S
C837 N845 1.427 . S
C838 H829 0.930 . S
C838 C836 1.378 . S
C838 C839 1.367 . S
C839 C838 1.367 . S
C839 C841 1.433 . S
C840 C836 1.350 . S
C840 C837 1.463 . S
C840 N844 1.427 . S
C841 H831 0.929 . S
C841 C839 1.433 . S
C841 N844 1.384 . S
C842 H833 0.929 . S
C842 C834 1.378 . S
C842 C837 1.350 . S
C843 H830 0.929 . S
C843 C835 1.433 . S
C843 N845 1.384 . S
N844 C840 1.427 . S
N844 C841 1.384 . S
N845 C837 1.427 . S
N845 C843 1.384 . S
H846 C852 0.930 . S
H847 C856 0.930 . S
H848 C861 0.929 . S
H849 C859 0.929 . S
H850 C854 0.929 . S
H851 C860 0.929 . S
C852 H846 0.930 . S
C852 C853 1.367 . S
C852 C860 1.378 . S
C853 C852 1.367 . S
C853 C861 1.433 . S
C854 H850 0.929 . S
C854 C856 1.378 . S
C854 C858 1.350 . S
C855 C858 1.463 . S
C855 C860 1.350 . S
C855 N863 1.427 . S
C856 H847 0.930 . S
C856 C854 1.378 . S
C856 C857 1.367 . S
C857 C856 1.367 . S
C857 C859 1.433 . S
C858 C854 1.350 . S
C858 C855 1.463 . S
C858 N862 1.427 . S
C859 H849 0.929 . S
C859 C857 1.433 . S
C859 N862 1.384 . S
C860 H851 0.929 . S
C860 C852 1.378 . S
C860 C855 1.350 . S
C861 H848 0.929 . S
C861 C853 1.433 . S
C861 N863 1.384 . S
N862 C858 1.427 . S
N862 C859 1.384 . S
N863 C855 1.427 . S
N863 C861 1.384 . S
H864 C870 0.930 . S
H865 C874 0.930 . S
H866 C879 0.929 . S
H867 C877 0.929 . S
H868 C872 0.929 . S
H869 C878 0.929 1_455 S
C870 H864 0.930 . S
C870 C871 1.367 . S
C870 C878 1.378 . S
C871 C870 1.367 . S
C871 C879 1.433 1_554 S
C872 H868 0.929 . S
C872 C874 1.378 . S
C872 C876 1.350 . S
C873 C876 1.463 . S
C873 C878 1.350 1_556 S
C873 N881 1.427 . S
C874 H865 0.930 . S
C874 C872 1.378 . S
C874 C875 1.367 1_655 S
C875 C874 1.367 1_455 S
C875 C877 1.433 . S
C876 C872 1.350 . S
C876 C873 1.463 . S
C876 N880 1.427 1_655 S
C877 H867 0.929 . S
C877 C875 1.433 . S
C877 N880 1.384 . S
C878 H869 0.929 1_655 S
C878 C870 1.378 . S
C878 C873 1.350 1_554 S
C879 H866 0.929 . S
C879 C871 1.433 1_556 S
C879 N881 1.384 . S
N880 C876 1.427 1_455 S
N880 C877 1.384 . S
N881 C873 1.427 . S
N881 C879 1.384 . S
H882 C888 0.924 1_545 S
H883 C892 0.930 . S
H884 C897 0.929 . S
H885 C895 0.929 . S
H886 C890 0.929 . S
H887 C896 0.950 . S
C888 H882 0.924 1_565 S
C888 C889 1.367 . S
C888 C896 1.369 1_564 S
C889 C888 1.367 . S
C889 C897 1.433 . S
C890 H886 0.929 . S
C890 C892 1.378 . S
C890 C894 1.350 . S
C891 C894 1.463 . S
C891 C896 1.337 1_565 S
C891 N899 1.427 . S
C892 H883 0.930 . S
C892 C890 1.378 . S
C892 C893 1.367 1_565 S
C893 C892 1.367 1_545 S
C893 C895 1.433 . S
C894 C890 1.350 . S
C894 C891 1.463 . S
C894 N898 1.427 1_565 S
C895 H885 0.929 . S
C895 C893 1.433 . S
C895 N898 1.384 . S
C896 H887 0.950 . S
C896 C888 1.369 1_546 S
C896 C891 1.337 1_545 S
C897 H884 0.929 . S
C897 C889 1.433 . S
C897 N899 1.384 1_554 S
N898 C894 1.427 1_545 S
N898 C895 1.384 . S
N899 C891 1.427 . S
N899 C897 1.384 1_556 S
H900 C906 0.930 . S
H901 C910 0.930 . S
H902 C915 0.929 . S
H903 C913 0.929 . S
H904 C908 0.929 . S
H905 C914 0.929 . S
C906 H900 0.930 . S
C906 C907 1.367 . S
C906 C914 1.378 . S
C907 C906 1.367 . S
C907 C915 1.433 1_554 S
C908 H904 0.929 . S
C908 C910 1.378 . S
C908 C912 1.350 . S
C909 C912 1.463 . S
C909 C914 1.350 1_556 S
C909 N917 1.427 . S
C910 H901 0.930 . S
C910 C908 1.378 . S
C910 C911 1.367 . S
C911 C910 1.367 . S
C911 C913 1.433 . S
C912 C908 1.350 . S
C912 C909 1.463 . S
C912 N916 1.427 . S
C913 H903 0.929 . S
C913 C911 1.433 . S
C913 N916 1.384 . S
C914 H905 0.929 . S
C914 C906 1.378 . S
C914 C909 1.350 1_554 S
C915 H902 0.929 . S
C915 C907 1.433 1_556 S
C915 N917 1.384 . S
N916 C912 1.427 . S
N916 C913 1.384 . S
N917 C909 1.427 . S
N917 C915 1.384 . S
H918 C924 0.930 . S
H919 C928 0.930 . S
H920 C933 0.929 . S
H921 C931 0.929 . S
H922 C926 0.929 . S
H923 C932 0.929 . S
C924 H918 0.930 . S
C924 C925 1.367 . S
C924 C932 1.378 . S
C925 C924 1.367 . S
C925 C933 1.433 1_554 S
C926 H922 0.929 . S
C926 C928 1.378 . S
C926 C930 1.350 . S
C927 C930 1.463 . S
C927 C932 1.350 1_556 S
C927 N935 1.427 . S
C928 H919 0.930 . S
C928 C926 1.378 . S
C928 C929 1.367 . S
C929 C928 1.367 . S
C929 C931 1.433 . S
C930 C926 1.350 . S
C930 C927 1.463 . S
C930 N934 1.427 . S
C931 H921 0.929 . S
C931 C929 1.433 . S
C931 N934 1.384 . S
C932 H923 0.929 . S
C932 C924 1.378 . S
C932 C927 1.350 1_554 S
C933 H920 0.929 . S
C933 C925 1.433 1_556 S
C933 N935 1.384 . S
N934 C930 1.427 . S
N934 C931 1.384 . S
N935 C927 1.427 . S
N935 C933 1.384 . S
H936 C942 0.930 . S
H937 C946 0.930 . S
H938 C951 0.929 . S
H939 C949 0.929 . S
H940 C944 0.929 . S
H941 C950 0.929 . S
C942 H936 0.930 . S
C942 C943 1.367 . S
C942 C950 1.378 . S
C943 C942 1.367 . S
C943 C951 1.433 . S
C944 H940 0.929 . S
C944 C946 1.378 . S
C944 C948 1.350 . S
C945 C948 1.463 . S
C945 C950 1.350 . S
C945 N953 1.427 . S
C946 H937 0.930 . S
C946 C944 1.378 . S
C946 C947 1.367 . S
C947 C946 1.367 . S
C947 C949 1.433 . S
C948 C944 1.350 . S
C948 C945 1.463 . S
C948 N952 1.427 . S
C949 H939 0.929 . S
C949 C947 1.433 . S
C949 N952 1.384 . S
C950 H941 0.929 . S
C950 C942 1.378 . S
C950 C945 1.350 . S
C951 H938 0.929 . S
C951 C943 1.433 . S
C951 N953 1.384 . S
N952 C948 1.427 . S
N952 C949 1.384 . S
N953 C945 1.427 . S
N953 C951 1.384 . S
H954 C960 0.930 . S
H955 C964 0.930 . S
H956 C969 0.929 . S
H957 C967 0.929 1_565 S
H958 C962 0.929 . S
H959 C968 0.929 . S
C960 H954 0.930 . S
C960 C961 1.367 . S
C960 C968 1.378 . S
C961 C960 1.367 . S
C961 C969 1.433 . S
C962 H958 0.929 . S
C962 C964 1.378 . S
C962 C966 1.350 . S
C963 C966 1.463 . S
C963 C968 1.350 . S
C963 N971 1.427 . S
C964 H955 0.930 . S
C964 C962 1.378 . S
C964 C965 1.367 . S
C965 C964 1.367 . S
C965 C967 1.433 . S
C966 C962 1.350 . S
C966 C963 1.463 . S
C966 N970 1.427 . S
C967 H957 0.929 1_545 S
C967 C965 1.433 . S
C967 N970 1.384 . S
C968 H959 0.929 . S
C968 C960 1.378 . S
C968 C963 1.350 . S
C969 H956 0.929 . S
C969 C961 1.433 . S
C969 N971 1.384 . S
N970 C966 1.427 . S
N970 C967 1.384 . S
N971 C963 1.427 . S
N971 C969 1.384 . S
H972 C978 0.930 . S
H973 C982 0.930 . S
H974 C987 0.929 . S
H975 C985 0.929 . S
H976 C980 0.929 . S
H977 C986 0.929 . S
C978 H972 0.930 . S
C978 C979 1.367 . S
C978 C986 1.378 . S
C979 C978 1.367 . S
C979 C987 1.433 . S
C980 H976 0.929 . S
C980 C982 1.378 . S
C980 C984 1.350 . S
C981 C984 1.463 . S
C981 C986 1.350 . S
C981 N989 1.427 . S
C982 H973 0.930 . S
C982 C980 1.378 . S
C982 C983 1.367 . S
C983 C982 1.367 . S
C983 C985 1.433 . S
C984 C980 1.350 . S
C984 C981 1.463 . S
C984 N988 1.427 . S
C985 H975 0.929 . S
C985 C983 1.433 . S
C985 N988 1.384 . S
C986 H977 0.929 . S
C986 C978 1.378 . S
C986 C981 1.350 . S
C987 H974 0.929 . S
C987 C979 1.433 . S
C987 N989 1.384 . S
N988 C984 1.427 . S
N988 C985 1.384 . S
N989 C981 1.427 . S
N989 C987 1.384 . S
H990 C996 0.930 . S
H991 C1000 0.930 . S
H992 C1005 0.929 . S
H993 C1003 0.929 . S
H994 C998 0.929 . S
H995 C1004 0.929 . S
C996 H990 0.930 . S
C996 C997 1.367 . S
C996 C1004 1.378 . S
C997 C996 1.367 . S
C997 C1005 1.433 . S
C998 H994 0.929 . S
C998 C1000 1.378 . S
C998 C1002 1.350 . S
C999 C1002 1.463 . S
C999 C1004 1.350 . S
C999 N1007 1.427 . S
C1000 H991 0.930 . S
C1000 C998 1.378 . S
C1000 C1001 1.367 . S
C1001 C1000 1.367 . S
C1001 C1003 1.433 . S
C1002 C998 1.350 . S
C1002 C999 1.463 . S
C1002 N1006 1.427 . S
C1003 H993 0.929 . S
C1003 C1001 1.433 . S
C1003 N1006 1.384 . S
C1004 H995 0.929 . S
C1004 C996 1.378 . S
C1004 C999 1.350 . S
C1005 H992 0.929 . S
C1005 C997 1.433 . S
C1005 N1007 1.384 . S
N1006 C1002 1.427 . S
N1006 C1003 1.384 . S
N1007 C999 1.427 . S
N1007 C1005 1.384 . S
H1008 C1014 0.930 . S
H1009 C1018 0.930 1_455 S
H1010 C1023 0.929 . S
H1011 C1021 0.929 . S
H1012 C1016 0.929 1_455 S
H1013 C1022 0.929 . S
C1014 H1008 0.930 . S
C1014 C1015 1.367 . S
C1014 C1022 1.378 . S
C1015 C1014 1.367 . S
C1015 C1023 1.433 . S
C1016 H1012 0.929 1_655 S
C1016 C1018 1.378 . S
C1016 C1020 1.350 . S
C1017 C1020 1.463 . S
C1017 C1022 1.350 . S
C1017 N1025 1.427 . S
C1018 H1009 0.930 1_655 S
C1018 C1016 1.378 . S
C1018 C1019 1.367 . S
C1019 C1018 1.367 . S
C1019 C1021 1.433 . S
C1020 C1016 1.350 . S
C1020 C1017 1.463 . S
C1020 N1024 1.427 . S
C1021 H1011 0.929 . S
C1021 C1019 1.433 . S
C1021 N1024 1.384 . S
C1022 H1013 0.929 . S
C1022 C1014 1.378 . S
C1022 C1017 1.350 . S
C1023 H1010 0.929 . S
C1023 C1015 1.433 . S
C1023 N1025 1.384 . S
N1024 C1020 1.427 . S
N1024 C1021 1.384 . S
N1025 C1017 1.427 . S
N1025 C1023 1.384 . S
H1026 C1032 0.930 . S
H1027 C1036 0.930 . S
H1028 C1041 0.929 . S
H1029 C1039 0.929 . S
H1030 C1034 0.929 . S
H1031 C1040 0.925 1_545 S
C1032 H1026 0.930 . S
C1032 C1033 1.367 . S
C1032 C1040 1.378 . S
C1033 C1032 1.367 . S
C1033 C1041 1.433 . S
C1034 H1030 0.929 . S
C1034 C1036 1.378 . S
C1034 C1038 1.350 . S
C1035 C1038 1.463 . S
C1035 C1040 1.350 . S
C1035 N1043 1.427 . S
C1036 H1027 0.930 . S
C1036 C1034 1.378 . S
C1036 C1037 1.367 . S
C1037 C1036 1.367 . S
C1037 C1039 1.433 1_565 S
C1038 C1034 1.350 . S
C1038 C1035 1.463 . S
C1038 N1042 1.427 . S
C1039 H1029 0.929 . S
C1039 C1037 1.433 1_545 S
C1039 N1042 1.384 1_545 S
C1040 H1031 0.925 1_565 S
C1040 C1032 1.378 . S
C1040 C1035 1.350 . S
C1041 H1028 0.929 . S
C1041 C1033 1.433 . S
C1041 N1043 1.384 . S
N1042 C1038 1.427 . S
N1042 C1039 1.384 1_565 S
N1043 C1035 1.427 . S
N1043 C1041 1.384 . S
H1044 C1050 0.930 . S
H1045 C1054 0.930 . S
H1046 C1059 0.929 . S
H1047 C1057 0.929 . S
H1048 C1052 0.929 . S
H1049 C1058 0.929 . S
C1050 H1044 0.930 . S
C1050 C1051 1.367 . S
C1050 C1058 1.378 . S
C1051 C1050 1.367 . S
C1051 C1059 1.433 . S
C1052 H1048 0.929 . S
C1052 C1054 1.378 . S
C1052 C1056 1.350 . S
C1053 C1056 1.463 . S
C1053 C1058 1.350 . S
C1053 N1061 1.427 . S
C1054 H1045 0.930 . S
C1054 C1052 1.378 . S
C1054 C1055 1.367 . S
C1055 C1054 1.367 . S
C1055 C1057 1.433 . S
C1056 C1052 1.350 . S
C1056 C1053 1.463 . S
C1056 N1060 1.427 . S
C1057 H1047 0.929 . S
C1057 C1055 1.433 . S
C1057 N1060 1.384 . S
C1058 H1049 0.929 . S
C1058 C1050 1.378 . S
C1058 C1053 1.350 . S
C1059 H1046 0.929 . S
C1059 C1051 1.433 . S
C1059 N1061 1.384 . S
N1060 C1056 1.427 . S
N1060 C1057 1.384 . S
N1061 C1053 1.427 . S
N1061 C1059 1.384 . S
H1062 C1068 0.930 . S
H1063 C1072 0.930 . S
H1064 C1077 0.929 . S
H1065 C1075 0.929 . S
H1066 C1070 0.929 . S
H1067 C1076 0.929 . S
C1068 H1062 0.930 . S
C1068 C1069 1.367 . S
C1068 C1076 1.378 . S
C1069 C1068 1.367 . S
C1069 C1077 1.433 . S
C1070 H1066 0.929 . S
C1070 C1072 1.378 . S
C1070 C1074 1.350 . S
C1071 C1074 1.463 . S
C1071 C1076 1.350 . S
C1071 N1079 1.427 . S
C1072 H1063 0.930 . S
C1072 C1070 1.378 . S
C1072 C1073 1.367 . S
C1073 C1072 1.367 . S
C1073 C1075 1.433 . S
C1074 C1070 1.350 . S
C1074 C1071 1.463 . S
C1074 N1078 1.427 . S
C1075 H1065 0.929 . S
C1075 C1073 1.433 . S
C1075 N1078 1.384 . S
C1076 H1067 0.929 . S
C1076 C1068 1.378 . S
C1076 C1071 1.350 . S
C1077 H1064 0.929 . S
C1077 C1069 1.433 . S
C1077 N1079 1.384 . S
N1078 C1074 1.427 . S
N1078 C1075 1.384 . S
N1079 C1071 1.427 . S
N1079 C1077 1.384 . S
C655 C255 2.292 . S
C659 C380 2.448 . S
C677 C463 2.466 . S
C673 C294 2.291 . S
C695 C548 2.442 . S
C691 C177 2.287 . S
C713 C632 2.430 . S
C709 C216 2.274 . S
C731 C368 2.441 1_565 S
C727 C99 2.287 . S
C745 C138 2.276 . S
C749 C451 2.463 . S
C763 C21 2.294 . S
C767 C536 2.446 . S
C781 C60 2.280 . S
C785 C620 2.425 1_655 S
C803 C370 0.474 . S
C799 C196 0.493 . S
C821 C466 0.542 . S
C817 C235 0.481 . S
C839 C538 0.508 . S
C835 C289 0.504 . S
C853 C157 0.457 . S
C857 C622 0.486 . S
C871 C40 0.458 . S
C875 C382 0.510 . S
C893 C454 0.532 . S
C889 C79 0.440 . S
C911 C550 0.513 . S
C907 C133 0.471 . S
C925 C1 0.448 . S
C929 C634 0.489 . S
C943 C211 2.609 . S
C947 C367 2.917 . S
C961 C250 2.600 . S
C965 C452 2.959 . S
C983 C535 2.949 . S
C979 C274 2.651 . S
C1001 C619 2.943 . S
C997 C172 2.639 . S
C1015 C55 2.620 . S
C1019 C379 2.923 . S
C1037 C464 2.960 . S
C1033 C94 2.607 . S
C1055 C547 2.943 . S
C1051 C118 2.635 . S
C1069 C16 2.627 . S
C1073 C631 2.939 . S
