# Generated by pormake.
# Topology anh, (6,3)-cn, num edge types: 1
# Building blocks:
#     Node 0, Type 0, BuildingBlock: CUKXOW_clean_sbu_0, # of connection points: 6
#     Node 1, Type 0, BuildingBlock: CUKXOW_clean_sbu_0, # of connection points: 6
#     Node 2, Type 0, BuildingBlock: CUKXOW_clean_sbu_0, # of connection points: 6
#     Node 3, Type 1, BuildingBlock: QEWDON_clean_linker_0, # of connection points: 3
#     Node 4, Type 1, BuildingBlock: QEWDON_clean_linker_0, # of connection points: 3
#     Node 5, Type 1, BuildingBlock: QEWDON_clean_linker_0, # of connection points: 3
#     Node 6, Type 1, BuildingBlock: QEWDON_clean_linker_0, # of connection points: 3
#     Node 7, Type 1, BuildingBlock: QEWDON_clean_linker_0, # of connection points: 3
#     Node 8, Type 1, BuildingBlock: QEWDON_clean_linker_0, # of connection points: 3
#     Edge 9, Type (0, 1), BuildingBlock: EZIPEK_clean_linker_0, # of connection points: 2
#     Edge 10, Type (0, 1), BuildingBlock: EZIPEK_clean_linker_0, # of connection points: 2
#     Edge 11, Type (0, 1), BuildingBlock: EZIPEK_clean_linker_0, # of connection points: 2
#     Edge 12, Type (0, 1), BuildingBlock: EZIPEK_clean_linker_0, # of connection points: 2
#     Edge 13, Type (0, 1), BuildingBlock: EZIPEK_clean_linker_0, # of connection points: 2
#     Edge 14, Type (0, 1), BuildingBlock: EZIPEK_clean_linker_0, # of connection points: 2
#     Edge 15, Type (0, 1), BuildingBlock: EZIPEK_clean_linker_0, # of connection points: 2
#     Edge 16, Type (0, 1), BuildingBlock: EZIPEK_clean_linker_0, # of connection points: 2
#     Edge 17, Type (0, 1), BuildingBlock: EZIPEK_clean_linker_0, # of connection points: 2
#     Edge 18, Type (0, 1), BuildingBlock: EZIPEK_clean_linker_0, # of connection points: 2
#     Edge 19, Type (0, 1), BuildingBlock: EZIPEK_clean_linker_0, # of connection points: 2
#     Edge 20, Type (0, 1), BuildingBlock: EZIPEK_clean_linker_0, # of connection points: 2
#     Edge 21, Type (0, 1), BuildingBlock: EZIPEK_clean_linker_0, # of connection points: 2
#     Edge 22, Type (0, 1), BuildingBlock: EZIPEK_clean_linker_0, # of connection points: 2
#     Edge 23, Type (0, 1), BuildingBlock: EZIPEK_clean_linker_0, # of connection points: 2
#     Edge 24, Type (0, 1), BuildingBlock: EZIPEK_clean_linker_0, # of connection points: 2
#     Edge 25, Type (0, 1), BuildingBlock: EZIPEK_clean_linker_0, # of connection points: 2
#     Edge 26, Type (0, 1), BuildingBlock: EZIPEK_clean_linker_0, # of connection points: 2
# Relax obj value: 0.067
# Max RMSD: 0.141
# Mean RMSD: 0.104
data_MOF--net-anh--node1-CUKXOW_clean_sbu_0--node2-QEWDON_clean_linker_0--edge1-EZIPEK_clean_linker_0
_symmetry_space_group_name_H-M    P1
_symmetry_Int_Tables_number       1
_symmetry_cell_setting            triclinic
loop_
_symmetry_equiv_pos_as_xyz
'x, y, z'
_cell_length_a     23.271956
_cell_length_b     22.161284
_cell_length_c     34.51
_cell_angle_alpha  99.936806
_cell_angle_beta   94.374399
_cell_angle_gamma 113.85288
loop_
_atom_site_label
_atom_site_type_symbol
_atom_site_fract_x
_atom_site_fract_y
_atom_site_fract_z
_atom_type_partial_charge
Tb0 Tb 0.07731 0.63834 0.16149 0.0
C1 C 0.04599 0.57531 0.23618 0.0
Tb2 Tb 1.00634 0.48235 0.14731 0.0
O3 O 0.99559 0.66508 0.16173 0.0
O4 O 0.97994 0.56573 0.15334 0.0
O5 O 0.07244 0.63056 0.22239 0.0
C6 C 0.90724 0.36254 0.1399 0.0
O7 O 1.01668 0.51398 0.21236 0.0
C8 C 0.13326 0.51848 0.14958 0.0
C9 C 0.04034 0.54801 0.07405 0.0
O10 O 0.96016 0.38518 0.16447 0.0
O11 O 0.91143 0.40626 0.11842 0.0
O12 O 0.08913 0.45647 0.14195 0.0
O13 O 0.10222 0.55488 0.15409 0.0
O14 O 1.00164 0.494 0.08581 0.0
O15 O 0.07963 0.60507 0.09913 0.0
C16 C 0.17738 0.75681 0.17238 0.0
O17 O 0.12762 0.73527 0.14507 0.0
O18 O 0.16988 0.71258 0.19398 0.0
C19 C 0.95024 0.60392 0.15504 0.0
Tb20 Tb 0.52792 0.02155 0.49275 0.0
C21 C 0.58304 0.05724 0.41483 0.0
Tb22 Tb 0.66577 0.10717 0.4998 0.0
O23 O 0.50665 0.10713 0.51665 0.0
O24 O 0.58227 0.12302 0.48569 0.0
O25 O 0.53635 0.01386 0.42937 0.0
C26 C 0.77985 0.21354 0.51375 0.0
O27 O 0.63418 0.10585 0.43838 0.0
C28 C 0.63618 0.97507 0.48828 0.0
C29 C 0.60837 0.07785 0.57786 0.0
O30 O 0.75807 0.16419 0.48248 0.0
O31 O 0.73807 0.20166 0.53735 0.0
O32 O 0.68651 0.01909 0.47855 0.0
O33 O 0.61084 1.008 0.50805 0.0
O34 O 0.65431 0.12088 0.56277 0.0
O35 O 0.55881 0.02652 0.55467 0.0
C36 C 0.41545 0.91555 0.482 0.0
O37 O 0.42945 0.9756 0.50284 0.0
O38 O 0.46406 0.91559 0.46595 0.0
C39 C 0.55489 0.15312 0.50647 0.0
Tb40 Tb 0.50329 0.5196 0.81831 0.0
C41 C 0.57169 0.56697 0.90677 0.0
Tb42 Tb 0.64413 0.59436 0.83397 0.0
O43 O 0.50844 0.43517 0.83968 0.0
O44 O 0.57987 0.49108 0.81114 0.0
O45 O 0.51821 0.55265 0.88303 0.0
C46 C 0.76519 0.62029 0.83871 0.0
O47 O 0.62635 0.57984 0.89342 0.0
C48 C 0.59973 0.6865 0.83866 0.0
C49 C 0.57431 0.55282 0.74567 0.0
O50 O 0.72573 0.57986 0.85729 0.0
O51 O 0.73696 0.64623 0.81766 0.0
O52 O 0.65949 0.69969 0.84584 0.0
O53 O 0.56734 0.62299 0.83156 0.0
O54 O 0.62843 0.57105 0.7695 0.0
O55 O 0.51943 0.53679 0.75904 0.0
C56 C 0.37867 0.4695 0.79788 0.0
O57 O 0.41438 0.44543 0.78022 0.0
O58 O 0.413 0.52207 0.82611 0.0
C59 C 0.56335 0.44408 0.82996 0.0
H60 H 0.59438 0.12083 0.23324 0.0
C61 C 0.54892 0.07788 0.22173 0.0
C62 C 0.51748 0.03775 0.24763 0.0
C63 C 0.52004 0.06449 0.18181 0.0
H64 H 0.43208 0.95492 0.25424 0.0
C65 C 0.4571 0.98476 0.23393 0.0
C66 C 0.42789 0.97107 0.19462 0.0
C67 C 0.45969 1.00978 0.16837 0.0
C68 C 0.55042 0.11015 0.15504 0.0
H69 H 0.43655 0.99791 0.13782 0.0
C70 C 0.61698 0.13939 0.15653 0.0
C71 C 0.64543 0.18641 0.13328 0.0
C72 C 0.51287 0.12719 0.12887 0.0
H73 H 0.46172 0.10694 0.12745 0.0
C74 C 0.54101 0.17241 0.10502 0.0
H75 H 0.64696 0.12694 0.17625 0.0
C76 C 0.60697 0.20229 0.10735 0.0
H77 H 0.62818 0.2386 0.08937 0.0
H78 H 0.51164 0.18536 0.08522 0.0
H79 H 0.57384 0.60226 0.56218 0.0
C80 C 0.57196 0.55311 0.54952 0.0
C81 C 0.57135 0.5099 0.57503 0.0
C82 C 0.5657 0.53136 0.50792 0.0
H83 H 0.56587 0.41189 0.57891 0.0
C84 C 0.56677 0.44526 0.55911 0.0
C85 C 0.56511 0.42332 0.51844 0.0
C86 C 0.56406 0.46635 0.49265 0.0
C87 C 0.55348 0.57323 0.48091 0.0
H88 H 0.56128 0.44887 0.46097 0.0
C89 C 0.58068 0.64555 0.49125 0.0
C90 C 0.56164 0.68265 0.46733 0.0
C91 C 0.50853 0.53984 0.44582 0.0
H92 H 0.48541 0.48512 0.43717 0.0
C93 C 0.49013 0.57613 0.42224 0.0
H94 H 0.61601 0.67295 0.51778 0.0
C95 C 0.51579 0.64653 0.43301 0.0
H96 H 0.49995 0.67315 0.41425 0.0
H97 H 0.45484 0.54933 0.39564 0.0
H98 H 0.1495 0.59969 0.90951 0.0
C99 C 0.10816 0.60365 0.89562 0.0
C100 C 0.05435 0.58979 0.91438 0.0
C101 C 0.10858 0.62358 0.85901 0.0
H102 H 0.95974 0.58487 0.91065 0.0
C103 C 1.00142 0.59496 0.89614 0.0
C104 C 1.0028 0.6159 0.86023 0.0
C105 C 0.05603 0.62995 0.84143 0.0
C106 C 0.16174 0.63237 0.83746 0.0
H107 H 0.05613 0.64486 0.81309 0.0
C108 C 0.17117 0.57543 0.82193 0.0
C109 C 0.22628 0.58282 0.80611 0.0
C110 C 0.20355 0.69645 0.83308 0.0
H111 H 0.19569 0.74073 0.84444 0.0
C112 C 0.2568 0.70351 0.81485 0.0
H113 H 0.13799 0.52581 0.82485 0.0
C114 C 0.26885 0.64703 0.80198 0.0
H115 H 0.31187 0.65354 0.78964 0.0
H116 H 0.28968 0.75295 0.81179 0.0
H117 H 0.99917 0.561 0.42605 0.0
C118 C 0.04968 0.59159 0.43617 0.0
C119 C 0.09031 0.61318 0.40828 0.0
C120 C 0.07404 0.61153 0.47734 0.0
H121 H 0.18719 0.67249 0.40122 0.0
C122 C 0.1552 0.65458 0.4222 0.0
C123 C 0.17785 0.68103 0.46278 0.0
C124 C 0.13814 0.65776 0.49047 0.0
C125 C 0.03238 0.58611 0.50678 0.0
H126 H 0.15677 0.67734 0.52202 0.0
C127 C 0.99214 0.51678 0.50063 0.0
C128 C 0.95509 0.49208 0.52942 0.0
C129 C 0.03423 0.63044 0.54187 0.0
H130 H 0.06424 0.68421 0.54717 0.0
C131 C 0.99695 0.6058 0.57037 0.0
H132 H 0.99036 0.48179 0.47388 0.0
C133 C 0.95762 0.53682 0.5643 0.0
H134 H 0.92886 0.51831 0.58659 0.0
H135 H 0.99859 0.64026 0.59724 0.0
H136 H 0.62206 0.03333 0.76368 0.0
C137 C 0.61816 0.08013 0.77457 0.0
C138 C 0.62055 0.12229 0.74817 0.0
C139 C 0.61029 0.09826 0.81444 0.0
H140 H 0.61882 0.21583 0.74079 0.0
C141 C 0.61763 0.18391 0.76159 0.0
C142 C 0.608 0.20241 0.80045 0.0
C143 C 0.60398 0.15946 0.82684 0.0
C144 C 0.61041 0.05447 0.84309 0.0
H145 H 0.5948 0.17337 0.85659 0.0
C146 C 0.58755 0.98326 0.83028 0.0
C147 C 0.59625 0.94414 0.85652 0.0
C148 C 0.63786 0.08456 0.88336 0.0
H149 H 0.65702 0.1388 0.89441 0.0
C150 C 0.64359 0.04548 0.90977 0.0
H151 H 0.56544 0.95824 0.79967 0.0
C152 C 0.62381 0.97604 0.89641 0.0
H153 H 0.63116 0.94723 0.91711 0.0
H154 H 0.66534 0.06953 0.94054 0.0
H155 H 0.51224 0.55411 0.08327 0.0
C156 C 0.55688 0.55799 0.09758 0.0
C157 C 0.6039 0.562 0.07376 0.0
C158 C 0.56647 0.55802 0.13833 0.0
H159 H 0.69728 0.5671 0.07017 0.0
C160 C 0.66212 0.56416 0.08956 0.0
C161 C 0.6768 0.56475 0.12986 0.0
C162 C 0.62843 0.56224 0.15442 0.0
C163 C 0.51083 0.55176 0.16232 0.0
H164 H 0.64025 0.56504 0.18573 0.0
C165 C 0.45322 0.55873 0.14836 0.0
C166 C 0.40164 0.54839 0.17125 0.0
C167 C 0.51374 0.53528 0.19978 0.0
H168 H 0.5536 0.52755 0.21212 0.0
C169 C 0.46461 0.52642 0.22222 0.0
H170 H 0.44759 0.57219 0.12019 0.0
C171 C 0.4098 0.53257 0.20829 0.0
H172 H 0.37279 0.52415 0.22669 0.0
H173 H 0.46876 0.51358 0.25087 0.0
C174 C 0.22596 0.4984 0.12173 0.0
C175 C 0.20558 0.53737 0.15039 0.0
C176 C 0.31966 0.59844 0.18316 0.0
C177 C 0.33743 0.5517 0.15876 0.0
N178 N 0.30214 0.45155 0.10633 0.0
N179 N 0.23574 0.62022 0.21216 0.0
C180 C 0.28911 0.50063 0.12821 0.0
C181 C 0.25352 0.58695 0.18179 0.0
N182 N 0.1853 0.4602 0.08724 0.0
N183 N 0.36656 0.65474 0.20781 0.0
H184 H 0.18849 0.61155 0.21305 0.0
H185 H 0.26681 0.65158 0.23805 0.0
H186 H 0.41463 0.66484 0.20916 0.0
H187 H 0.35841 0.69438 0.22344 0.0
H188 H 0.1986 0.43592 0.06337 0.0
H189 H 0.14049 0.45927 0.08075 0.0
H190 H 0.2673 0.40817 0.08724 0.0
H191 H 0.3471 0.4517 0.10942 0.0
C192 C 0.80799 0.32484 0.49537 0.0
C193 C 0.8273 0.28253 0.51444 0.0
C194 C 0.93314 0.37546 0.53878 0.0
C195 C 0.91207 0.41916 0.5227 0.0
N196 N 0.82947 0.43878 0.48819 0.0
N197 N 0.90479 0.26687 0.55679 0.0
C198 C 0.84957 0.39464 0.5014 0.0
C199 C 0.88907 0.30756 0.53672 0.0
N200 N 0.74982 0.29813 0.4715 0.0
N201 N 0.99559 0.39878 0.55537 0.0
H202 H 0.8743 0.21619 0.55465 0.0
H203 H 0.94627 0.28394 0.57727 0.0
H204 H 0.02881 0.44856 0.55794 0.0
H205 H 1.01578 0.36803 0.56404 0.0
H206 H 0.73536 0.32401 0.45337 0.0
H207 H 0.71657 0.24811 0.46776 0.0
H208 H 0.78265 0.42626 0.47626 0.0
H209 H 0.85911 0.48994 0.4912 0.0
C210 C 0.61094 0.78322 0.80815 0.0
C211 C 0.57852 0.73967 0.83265 0.0
C212 C 0.53831 0.82141 0.86046 0.0
C213 C 0.58169 0.87076 0.84251 0.0
N214 N 0.66428 0.89857 0.80113 0.0
N215 N 0.50354 0.71307 0.87841 0.0
C216 C 0.61832 0.8513 0.81604 0.0
C217 C 0.53921 0.75706 0.85722 0.0
N218 N 0.63498 0.7591 0.77733 0.0
N219 N 0.49665 0.83514 0.88193 0.0
H220 H 0.50224 0.66503 0.87633 0.0
H221 H 0.47502 0.72482 0.89752 0.0
H222 H 0.49159 0.88037 0.88508 0.0
H223 H 0.49159 0.88037 0.88508 0.0
H224 H 0.65397 0.78613 0.75597 0.0
H225 H 0.62922 0.709 0.77072 0.0
H226 H 0.69719 0.88824 0.78568 0.0
H227 H 0.67372 0.94963 0.80698 0.0
C228 C 0.85912 0.63749 0.13634 0.0
C229 C 0.87792 0.58872 0.14897 0.0
C230 C 0.762 0.52208 0.15212 0.0
C231 C 0.74602 0.57521 0.14401 0.0
N232 N 0.7867 0.69154 0.13933 0.0
N233 N 0.8439 0.48772 0.17512 0.0
C234 C 0.79721 0.63538 0.14001 0.0
C235 C 0.82823 0.53178 0.1586 0.0
N236 N 0.89836 0.68372 0.11756 0.0
N237 N 0.7138 0.46133 0.15256 0.0
H238 H 0.89054 0.49314 0.18056 0.0
H239 H 0.81153 0.44926 0.18638 0.0
H240 H 0.66621 0.45353 0.14921 0.0
H241 H 0.72074 0.41803 0.1537 0.0
H242 H 0.88465 0.71598 0.10459 0.0
H243 H 0.94041 0.68348 0.10954 0.0
H244 H 0.82327 0.7389 0.14036 0.0
H245 H 0.74266 0.69229 0.14228 0.0
C246 C 0.2965 0.86033 0.47092 0.0
C247 C 0.35492 0.85568 0.47954 0.0
C248 C 0.29702 0.73598 0.481 0.0
C249 C 0.23902 0.7421 0.4747 0.0
N250 N 0.18344 0.81317 0.47295 0.0
N251 N 0.41112 0.79406 0.50238 0.0
C252 C 0.23886 0.80549 0.47292 0.0
C253 C 0.35544 0.79486 0.48728 0.0
N254 N 0.29557 0.91523 0.45834 0.0
N255 N 0.29621 0.67378 0.48017 0.0
H256 H 0.45459 0.83671 0.50908 0.0
H257 H 0.41324 0.75291 0.51204 0.0
H258 H 0.25412 0.63027 0.47751 0.0
H259 H 0.33677 0.66474 0.47975 0.0
H260 H 0.25379 0.9178 0.44751 0.0
H261 H 0.33647 0.9554 0.45466 0.0
H262 H 0.18167 0.85993 0.47581 0.0
H263 H 0.13993 0.77388 0.47394 0.0
C264 C 0.5386 0.32818 0.79112 0.0
C265 C 0.57926 0.38519 0.82139 0.0
C266 C 0.64093 0.32313 0.83834 0.0
C267 C 0.59592 0.26398 0.81102 0.0
N268 N 0.49354 0.20647 0.76846 0.0
N269 N 0.66223 0.43317 0.87877 0.0
C270 C 0.54221 0.26547 0.7895 0.0
C271 C 0.6286 0.3817 0.84646 0.0
N272 N 0.49722 0.33414 0.76335 0.0
N273 N 0.69631 0.32424 0.85552 0.0
H274 H 0.65406 0.47636 0.88566 0.0
H275 H 0.69431 0.43047 0.90042 0.0
H276 H 0.70678 0.28229 0.85049 0.0
H277 H 0.73386 0.3682 0.87221 0.0
H278 H 0.47101 0.29589 0.73832 0.0
H279 H 0.49391 0.3796 0.76303 0.0
H280 H 0.45056 0.20384 0.75527 0.0
H281 H 0.49335 0.15917 0.76787 0.0
C282 C 0.60162 0.86848 0.51704 0.0
C283 C 0.62103 0.90091 0.48493 0.0
C284 C 0.61873 0.79423 0.4475 0.0
C285 C 0.58877 0.75919 0.47644 0.0
N286 N 0.54252 0.7631 0.53657 0.0
N287 N 0.63597 0.88811 0.41597 0.0
C288 C 0.57774 0.79638 0.51069 0.0
C289 C 0.62667 0.86204 0.44924 0.0
N290 N 0.60921 0.90636 0.55429 0.0
N291 N 0.6405 0.76292 0.41843 0.0
H292 H 0.63832 0.93572 0.41504 0.0
H293 H 0.63404 0.85956 0.38813 0.0
H294 H 0.63709 0.71411 0.41686 0.0
H295 H 0.66791 0.78797 0.39875 0.0
H296 H 0.6007 0.88565 0.57933 0.0
H297 H 0.632 0.95895 0.56115 0.0
H298 H 0.52728 0.78705 0.55955 0.0
H299 H 0.52365 0.7107 0.53297 0.0
C300 C 0.83417 0.56607 0.81621 0.0
C301 C 0.82851 0.62476 0.83539 0.0
C302 C 0.94328 0.68524 0.85532 0.0
C303 C 0.94716 0.62289 0.84305 0.0
N304 N 0.9002 0.50507 0.80972 0.0
N305 N 0.87492 0.74157 0.87084 0.0
C306 C 0.89388 0.56381 0.82205 0.0
C307 C 0.88245 0.68546 0.85347 0.0
N308 N 0.78251 0.5132 0.79234 0.0
N309 N 0.9977 0.74332 0.86951 0.0
H310 H 0.83078 0.74353 0.86921 0.0
H311 H 0.91157 0.78525 0.88837 0.0
H312 H 0.04289 0.74395 0.87167 0.0
H313 H 0.99882 0.79143 0.87617 0.0
H314 H 0.78464 0.4711 0.77491 0.0
H315 H 0.73804 0.51396 0.78727 0.0
H316 H 0.86196 0.45807 0.79876 0.0
H317 H 0.94435 0.50305 0.81187 0.0
C318 C 0.24811 0.88057 0.18256 0.0
C319 C 0.2394 0.81244 0.17209 0.0
C320 C 0.35348 0.84862 0.1712 0.0
C321 C 0.36251 0.91687 0.18195 0.0
N322 N 0.31911 0.99949 0.19097 0.0
N323 N 0.27916 0.73113 0.14616 0.0
C324 C 0.30983 0.93336 0.18518 0.0
C325 C 0.29078 0.79629 0.1633 0.0
N326 N 0.19809 0.89458 0.19191 0.0
N327 N 0.40507 0.83388 0.16974 0.0
H328 H 0.23346 0.69175 0.13886 0.0
H329 H 0.31368 0.71699 0.13568 0.0
H330 H 0.45159 0.87102 0.17326 0.0
H331 H 0.40231 0.78526 0.16727 0.0
H332 H 0.20247 0.94284 0.20417 0.0
H333 H 0.15208 0.85699 0.18947 0.0
H334 H 0.28227 0.01466 0.1897 0.0
H335 H 0.36396 0.03953 0.19425 0.0
C336 C 0.61448 0.28151 0.52275 0.0
C337 C 0.55849 0.22241 0.50456 0.0
C338 C 0.50723 0.2964 0.4895 0.0
C339 C 0.56513 0.35475 0.50517 0.0
N340 N 0.67781 0.40135 0.52794 0.0
N341 N 0.45294 0.17445 0.46556 0.0
C342 C 0.62015 0.34641 0.51836 0.0
C343 C 0.50536 0.23013 0.48623 0.0
N344 N 0.65968 0.27663 0.54789 0.0
N345 N 0.45302 0.30421 0.47971 0.0
H346 H 0.44778 0.12509 0.46357 0.0
H347 H 0.41639 0.17723 0.44766 0.0
H348 H 0.45302 0.35143 0.48035 0.0
H349 H 0.40765 0.26449 0.47327 0.0
H350 H 0.69931 0.31833 0.5647 0.0
H351 H 0.65256 0.23145 0.55606 0.0
H352 H 0.72054 0.39783 0.5349 0.0
H353 H 0.68326 0.4494 0.52501 0.0
C354 C 0.27828 0.44541 0.81893 0.0
C355 C 0.31052 0.44756 0.7863 0.0
C356 C 0.25384 0.50469 0.75797 0.0
C357 C 0.24219 0.52446 0.79689 0.0
N358 N 0.24477 0.51276 0.86596 0.0
N359 N 0.31677 0.46014 0.71917 0.0
C360 C 0.25228 0.49265 0.82767 0.0
C361 C 0.29217 0.46871 0.75322 0.0
N362 N 0.28096 0.40506 0.844 0.0
N363 N 0.22975 0.52185 0.72647 0.0
H364 H 0.34366 0.43212 0.7158 0.0
H365 H 0.31161 0.48129 0.69518 0.0
H366 H 0.20089 0.54764 0.7297 0.0
H367 H 0.23382 0.50571 0.69706 0.0
H368 H 0.25563 0.39855 0.86777 0.0
H369 H 0.3043 0.37371 0.83804 0.0
H370 H 0.25739 0.49455 0.88956 0.0
H371 H 0.23201 0.55213 0.87535 0.0
C372 C 0.81076 0.25803 0.10493 0.0
C373 C 0.84666 0.30445 0.14103 0.0
C374 C 0.75182 0.26934 0.17311 0.0
C375 C 0.71586 0.22221 0.13725 0.0
N376 N 0.71404 0.15919 0.0725 0.0
N377 N 0.85586 0.33611 0.21273 0.0
C378 C 0.74638 0.2125 0.1042 0.0
C379 C 0.81885 0.30383 0.17626 0.0
N380 N 0.83804 0.25822 0.07123 0.0
N381 N 0.72185 0.28477 0.20332 0.0
H382 H 0.90527 0.35973 0.21683 0.0
H383 H 0.83799 0.33203 0.23941 0.0
H384 H 0.67263 0.26226 0.20212 0.0
H385 H 0.74532 0.32473 0.228 0.0
H386 H 0.81244 0.23183 0.04291 0.0
H387 H 0.88638 0.28716 0.07153 0.0
H388 H 0.73519 0.14575 0.04901 0.0
H389 H 0.66715 0.12451 0.07147 0.0
C390 C 0.04553 0.50345 0.00199 0.0
C391 C 0.03626 0.55066 0.03137 0.0
C392 C 0.05026 0.62635 0.98571 0.0
C393 C 0.05421 0.57735 0.95516 0.0
N394 N 0.04534 0.46444 0.93168 0.0
N395 N 1.00864 0.64508 0.04611 0.0
C396 C 0.049 0.51435 0.9625 0.0
C397 C 0.03221 0.60851 0.02161 0.0
N398 N 0.05282 0.44964 0.01187 0.0
N399 N 0.06497 0.69055 0.98073 0.0
H400 H 0.99115 0.63071 0.07159 0.0
H401 H 0.99942 0.68428 0.03865 0.0
H402 H 0.08025 0.70635 0.95505 0.0
H403 H 0.06845 0.7298 0.00369 0.0
H404 H 0.06745 0.41841 -0.00693 0.0
H405 H 0.04751 0.43823 0.03977 0.0
H406 H 0.03465 0.41509 0.93434 0.0
H407 H 0.04853 0.47112 0.9026 0.0
C408 C 0.60698 0.03858 0.34505 0.0
C409 C 0.57256 0.0597 0.37233 0.0
C410 C 0.51718 0.08518 0.31848 0.0
C411 C 0.54385 0.05385 0.29053 0.0
N412 N 0.61167 0.99748 0.27598 0.0
N413 N 0.49587 0.10472 0.38594 0.0
C414 C 0.5887 0.03029 0.30347 0.0
C415 C 0.52809 0.08376 0.35928 0.0
N416 N 0.65748 0.02728 0.35892 0.0
N417 N 0.4823 0.11724 0.30588 0.0
H418 H 0.50638 0.1093 0.41642 0.0
H419 H 0.4571 0.11465 0.3779 0.0
H420 H 0.47382 0.11939 0.27612 0.0
H421 H 0.46641 0.14667 0.32503 0.0
H422 H 0.68815 0.01785 0.34089 0.0
H423 H 0.67231 0.03344 0.38918 0.0
H424 H 0.63848 0.97195 0.28329 0.0
H425 H 0.60065 0.99226 0.24536 0.0
C426 C 0.61578 0.52049 0.68394 0.0
C427 C 0.57536 0.54662 0.70216 0.0
C428 C 0.53035 0.5491 0.63622 0.0
C429 C 0.57633 0.53093 0.61905 0.0
N430 N 0.67596 0.52169 0.62995 0.0
N431 N 0.50777 0.60476 0.69584 0.0
C432 C 0.62366 0.52447 0.64414 0.0
C433 C 0.53669 0.56683 0.67843 0.0
N434 N 0.64304 0.48722 0.70317 0.0
N435 N 0.47891 0.54616 0.61275 0.0
H436 H 0.51452 0.62275 0.72658 0.0
H437 H 0.48339 0.62502 0.67948 0.0
H438 H 0.47044 0.53032 0.5818 0.0
H439 H 0.44136 0.55288 0.62444 0.0
H440 H 0.66893 0.46324 0.68938 0.0
H441 H 0.63275 0.47537 0.73051 0.0
H442 H 0.7139 0.52194 0.64824 0.0
H443 H 0.6844 0.52685 0.60116 0.0
C444 C 0.66836 0.0936 0.6458 0.0
C445 C 0.61222 0.08546 0.62165 0.0
C446 C 0.55837 0.08014 0.67996 0.0
C447 C 0.61695 0.09939 0.70478 0.0
N448 N 0.72963 0.1303 0.7124 0.0
N449 N 0.5077 0.08502 0.61784 0.0
C450 C 0.6726 0.10752 0.68803 0.0
C451 C 0.55801 0.08196 0.63921 0.0
N452 N 0.71645 0.08542 0.62856 0.0
N453 N 0.50302 0.06047 0.6955 0.0
H454 H 0.50682 0.09098 0.58859 0.0
H455 H 0.47004 0.08957 0.63056 0.0
H456 H 0.50165 0.05798 0.72536 0.0
H457 H 0.45819 0.03991 0.67798 0.0
H458 H 0.75559 0.08439 0.64471 0.0
H459 H 0.71444 0.073 0.5978 0.0
H460 H 0.77304 0.14478 0.70199 0.0
H461 H 0.73381 0.1387 0.74339 0.0
C462 C 0.61166 0.62849 0.97846 0.0
C463 C 0.57157 0.56819 0.95 0.0
C464 C 0.55311 0.50411 0.00275 0.0
C465 C 0.5919 0.56449 0.03124 0.0
N466 N 0.64907 0.686 0.04827 0.0
N467 N 0.49186 0.4523 0.93658 0.0
C468 C 0.61857 0.62734 0.01968 0.0
C469 C 0.53824 0.50721 0.96263 0.0
N470 N 0.6433 0.68681 0.96595 0.0
N471 N 0.53261 0.44327 0.01371 0.0
H472 H 0.47884 0.45196 0.90708 0.0
H473 H 0.46151 0.40917 0.94518 0.0
H474 H 0.54196 0.43891 0.0429 0.0
H475 H 0.51097 0.39672 -0.00656 0.0
H476 H 0.67951 0.7302 0.98409 0.0
H477 H 0.63484 0.69118 0.93665 0.0
H478 H 0.66399 0.73407 0.0424 0.0
H479 H 0.65552 0.6869 0.07865 0.0
C480 C 1.0112 0.53205 0.29886 0.0
C481 C 0.05101 0.58375 0.28066 0.0
C482 C 0.09004 0.65781 0.34681 0.0
C483 C 0.06638 0.60194 0.36498 0.0
N484 N 1.00998 0.48004 0.35505 0.0
N485 N 0.14756 0.68999 0.29405 0.0
C486 C 0.02819 0.537 0.34021 0.0
C487 C 0.09575 0.64559 0.30633 0.0
N488 N 0.95578 0.48086 0.27815 0.0
N489 N 0.10965 0.72239 0.3683 0.0
H490 H 0.16321 0.67767 0.26766 0.0
H491 H 0.18123 0.734 0.31345 0.0
H492 H 0.1031 0.73271 0.39788 0.0
H493 H 0.12535 0.76396 0.35505 0.0
H494 H 0.92476 0.44483 0.29162 0.0
H495 H 0.93612 0.48069 0.24998 0.0
H496 H 0.98597 0.43168 0.33672 0.0
H497 H 0.02431 0.48074 0.38453 0.0
loop_
_geom_bond_atom_site_label_1
_geom_bond_atom_site_label_2
_geom_bond_distance
_geom_bond_site_symmetry_2
_ccdc_geom_bond_type
Tb0 O3 2.453 1_455 S
Tb0 O4 2.596 1_455 S
Tb0 O5 2.374 . S
Tb0 O13 2.343 . S
Tb0 O15 2.353 . S
Tb0 O17 2.427 . S
Tb0 O18 2.513 . S
C1 O5 1.251 . S
C1 O7 1.263 . S
Tb2 O4 2.343 1_455 S
Tb2 O7 2.353 . S
Tb2 O10 2.427 1_455 S
Tb2 O11 2.513 1_455 S
Tb2 O12 2.453 . S
Tb2 O13 2.596 . S
Tb2 O14 2.374 . S
O3 Tb0 2.453 1_655 S
O3 C19 1.245 . S
O4 Tb0 2.596 1_655 S
O4 Tb2 2.343 1_655 S
O4 C19 1.259 . S
O5 Tb0 2.374 . S
O5 C1 1.251 . S
C6 O10 1.275 . S
C6 O11 1.246 . S
O7 C1 1.263 . S
O7 Tb2 2.353 . S
C8 O12 1.245 . S
C8 O13 1.259 . S
C9 O14 1.250 . S
C9 O15 1.263 . S
O10 Tb2 2.427 1_655 S
O10 C6 1.275 . S
O11 Tb2 2.513 1_655 S
O11 C6 1.246 . S
O12 Tb2 2.453 . S
O12 C8 1.245 . S
O13 Tb0 2.343 . S
O13 Tb2 2.596 . S
O13 C8 1.259 . S
O14 Tb2 2.374 . S
O14 C9 1.250 . S
O15 Tb0 2.353 . S
O15 C9 1.263 . S
C16 O17 1.275 . S
C16 O18 1.246 . S
O17 Tb0 2.427 . S
O17 C16 1.275 . S
O18 Tb0 2.513 . S
O18 C16 1.246 . S
C19 O3 1.245 . S
C19 O4 1.259 . S
Tb20 O23 2.453 . S
Tb20 O24 2.596 . S
Tb20 O25 2.374 . S
Tb20 O33 2.343 1_545 S
Tb20 O35 2.353 . S
Tb20 O37 2.427 1_545 S
Tb20 O38 2.513 1_545 S
C21 O25 1.251 . S
C21 O27 1.263 . S
Tb22 O24 2.343 . S
Tb22 O27 2.353 . S
Tb22 O30 2.427 . S
Tb22 O31 2.513 . S
Tb22 O32 2.453 1_545 S
Tb22 O33 2.596 1_545 S
Tb22 O34 2.374 . S
O23 Tb20 2.453 . S
O23 C39 1.245 . S
O24 Tb20 2.596 . S
O24 Tb22 2.343 . S
O24 C39 1.259 . S
O25 Tb20 2.374 . S
O25 C21 1.251 . S
C26 O30 1.275 . S
C26 O31 1.246 . S
O27 C21 1.263 . S
O27 Tb22 2.353 . S
C28 O32 1.245 . S
C28 O33 1.259 . S
C29 O34 1.250 . S
C29 O35 1.263 . S
O30 Tb22 2.427 . S
O30 C26 1.275 . S
O31 Tb22 2.513 . S
O31 C26 1.246 . S
O32 Tb22 2.453 1_565 S
O32 C28 1.245 . S
O33 Tb20 2.343 1_565 S
O33 Tb22 2.596 1_565 S
O33 C28 1.259 . S
O34 Tb22 2.374 . S
O34 C29 1.250 . S
O35 Tb20 2.353 . S
O35 C29 1.263 . S
C36 O37 1.275 . S
C36 O38 1.246 . S
O37 Tb20 2.427 1_565 S
O37 C36 1.275 . S
O38 Tb20 2.513 1_565 S
O38 C36 1.246 . S
C39 O23 1.245 . S
C39 O24 1.259 . S
Tb40 O43 2.453 . S
Tb40 O44 2.596 . S
Tb40 O45 2.374 . S
Tb40 O53 2.343 . S
Tb40 O55 2.353 . S
Tb40 O57 2.427 . S
Tb40 O58 2.513 . S
C41 O45 1.251 . S
C41 O47 1.263 . S
Tb42 O44 2.343 . S
Tb42 O47 2.353 . S
Tb42 O50 2.427 . S
Tb42 O51 2.513 . S
Tb42 O52 2.453 . S
Tb42 O53 2.596 . S
Tb42 O54 2.374 . S
O43 Tb40 2.453 . S
O43 C59 1.245 . S
O44 Tb40 2.596 . S
O44 Tb42 2.343 . S
O44 C59 1.259 . S
O45 Tb40 2.374 . S
O45 C41 1.251 . S
C46 O50 1.275 . S
C46 O51 1.246 . S
O47 C41 1.263 . S
O47 Tb42 2.353 . S
C48 O52 1.245 . S
C48 O53 1.259 . S
C49 O54 1.250 . S
C49 O55 1.263 . S
O50 Tb42 2.427 . S
O50 C46 1.275 . S
O51 Tb42 2.513 . S
O51 C46 1.246 . S
O52 Tb42 2.453 . S
O52 C48 1.245 . S
O53 Tb40 2.343 . S
O53 Tb42 2.596 . S
O53 C48 1.259 . S
O54 Tb42 2.374 . S
O54 C49 1.250 . S
O55 Tb40 2.353 . S
O55 C49 1.263 . S
C56 O57 1.275 . S
C56 O58 1.246 . S
O57 Tb40 2.427 . S
O57 C56 1.275 . S
O58 Tb40 2.513 . S
O58 C56 1.246 . S
C59 O43 1.245 . S
C59 O44 1.259 . S
H60 C61 0.949 . S
C61 H60 0.949 . S
C61 C62 1.395 . S
C61 C63 1.391 . S
C62 C61 1.395 . S
C62 C65 1.390 1_545 S
C63 C61 1.391 . S
C63 C67 1.387 . S
C63 C68 1.491 . S
H64 C65 0.950 . S
C65 C62 1.390 1_565 S
C65 H64 0.950 . S
C65 C66 1.378 . S
C66 C65 1.378 . S
C66 C67 1.409 1_565 S
C67 C63 1.387 . S
C67 C66 1.409 1_545 S
C67 H69 0.951 . S
C68 C63 1.491 . S
C68 C70 1.382 . S
C68 C72 1.404 . S
H69 C67 0.951 . S
C70 C68 1.382 . S
C70 C71 1.390 . S
C70 H75 0.949 . S
C71 C70 1.390 . S
C71 C76 1.399 . S
C72 C68 1.404 . S
C72 H73 0.950 . S
C72 C74 1.375 . S
H73 C72 0.950 . S
C74 C72 1.375 . S
C74 C76 1.382 . S
C74 H78 0.950 . S
H75 C70 0.949 . S
C76 C71 1.399 . S
C76 C74 1.382 . S
C76 H77 0.952 . S
H77 C76 0.952 . S
H78 C74 0.950 . S
H79 C80 0.949 . S
C80 H79 0.949 . S
C80 C81 1.395 . S
C80 C82 1.391 . S
C81 C80 1.395 . S
C81 C84 1.390 . S
C82 C80 1.391 . S
C82 C86 1.387 . S
C82 C87 1.491 . S
H83 C84 0.950 . S
C84 C81 1.390 . S
C84 H83 0.950 . S
C84 C85 1.378 . S
C85 C84 1.378 . S
C85 C86 1.409 . S
C86 C82 1.387 . S
C86 C85 1.409 . S
C86 H88 0.951 . S
C87 C82 1.491 . S
C87 C89 1.382 . S
C87 C91 1.404 . S
H88 C86 0.951 . S
C89 C87 1.382 . S
C89 C90 1.390 . S
C89 H94 0.949 . S
C90 C89 1.390 . S
C90 C95 1.399 . S
C91 C87 1.404 . S
C91 H92 0.950 . S
C91 C93 1.375 . S
H92 C91 0.950 . S
C93 C91 1.375 . S
C93 C95 1.382 . S
C93 H97 0.950 . S
H94 C89 0.949 . S
C95 C90 1.399 . S
C95 C93 1.382 . S
C95 H96 0.952 . S
H96 C95 0.952 . S
H97 C93 0.950 . S
H98 C99 0.949 . S
C99 H98 0.949 . S
C99 C100 1.395 . S
C99 C101 1.391 . S
C100 C99 1.395 . S
C100 C103 1.390 1_455 S
C101 C99 1.391 . S
C101 C105 1.387 . S
C101 C106 1.491 . S
H102 C103 0.950 . S
C103 C100 1.390 1_655 S
C103 H102 0.950 . S
C103 C104 1.378 . S
C104 C103 1.378 . S
C104 C105 1.409 1_655 S
C105 C101 1.387 . S
C105 C104 1.409 1_455 S
C105 H107 0.951 . S
C106 C101 1.491 . S
C106 C108 1.382 . S
C106 C110 1.404 . S
H107 C105 0.951 . S
C108 C106 1.382 . S
C108 C109 1.390 . S
C108 H113 0.949 . S
C109 C108 1.390 . S
C109 C114 1.399 . S
C110 C106 1.404 . S
C110 H111 0.950 . S
C110 C112 1.375 . S
H111 C110 0.950 . S
C112 C110 1.375 . S
C112 C114 1.382 . S
C112 H116 0.950 . S
H113 C108 0.949 . S
C114 C109 1.399 . S
C114 C112 1.382 . S
C114 H115 0.952 . S
H115 C114 0.952 . S
H116 C112 0.950 . S
H117 C118 0.949 . S
C118 H117 0.949 . S
C118 C119 1.395 1_655 S
C118 C120 1.391 1_655 S
C119 C118 1.395 1_455 S
C119 C122 1.390 . S
C120 C118 1.391 1_455 S
C120 C124 1.387 . S
C120 C125 1.491 1_455 S
H121 C122 0.950 . S
C122 C119 1.390 . S
C122 H121 0.950 . S
C122 C123 1.378 . S
C123 C122 1.378 . S
C123 C124 1.409 . S
C124 C120 1.387 . S
C124 C123 1.409 . S
C124 H126 0.951 . S
C125 C120 1.491 1_655 S
C125 C127 1.382 . S
C125 C129 1.404 . S
H126 C124 0.951 . S
C127 C125 1.382 . S
C127 C128 1.390 . S
C127 H132 0.949 . S
C128 C127 1.390 . S
C128 C133 1.399 . S
C129 C125 1.404 . S
C129 H130 0.950 . S
C129 C131 1.375 . S
H130 C129 0.950 . S
C131 C129 1.375 . S
C131 C133 1.382 . S
C131 H135 0.950 . S
H132 C127 0.949 . S
C133 C128 1.399 . S
C133 C131 1.382 . S
C133 H134 0.952 . S
H134 C133 0.952 . S
H135 C131 0.950 . S
H136 C137 0.949 1_565 S
C137 H136 0.949 1_545 S
C137 C138 1.395 . S
C137 C139 1.391 . S
C138 C137 1.395 . S
C138 C141 1.390 . S
C139 C137 1.391 . S
C139 C143 1.387 . S
C139 C144 1.491 1_545 S
H140 C141 0.950 . S
C141 C138 1.390 . S
C141 H140 0.950 . S
C141 C142 1.378 . S
C142 C141 1.378 . S
C142 C143 1.409 . S
C143 C139 1.387 . S
C143 C142 1.409 . S
C143 H145 0.951 . S
C144 C139 1.491 1_565 S
C144 C146 1.382 . S
C144 C148 1.404 . S
H145 C143 0.951 . S
C146 C144 1.382 . S
C146 C147 1.390 . S
C146 H151 0.949 . S
C147 C146 1.390 . S
C147 C152 1.399 . S
C148 C144 1.404 . S
C148 H149 0.950 1_565 S
C148 C150 1.375 . S
H149 C148 0.950 1_545 S
C150 C148 1.375 . S
C150 C152 1.382 . S
C150 H154 0.950 . S
H151 C146 0.949 . S
C152 C147 1.399 . S
C152 C150 1.382 . S
C152 H153 0.952 . S
H153 C152 0.952 . S
H154 C150 0.950 . S
H155 C156 0.949 . S
C156 H155 0.949 . S
C156 C157 1.395 . S
C156 C158 1.391 . S
C157 C156 1.395 . S
C157 C160 1.390 . S
C158 C156 1.391 . S
C158 C162 1.387 . S
C158 C163 1.491 . S
H159 C160 0.950 . S
C160 C157 1.390 . S
C160 H159 0.950 . S
C160 C161 1.378 . S
C161 C160 1.378 . S
C161 C162 1.409 . S
C162 C158 1.387 . S
C162 C161 1.409 . S
C162 H164 0.951 . S
C163 C158 1.491 . S
C163 C165 1.382 . S
C163 C167 1.404 . S
H164 C162 0.951 . S
C165 C163 1.382 . S
C165 C166 1.390 . S
C165 H170 0.949 . S
C166 C165 1.390 . S
C166 C171 1.399 . S
C167 C163 1.404 . S
C167 H168 0.950 . S
C167 C169 1.375 . S
H168 C167 0.950 . S
C169 C167 1.375 . S
C169 C171 1.382 . S
C169 H173 0.950 . S
H170 C165 0.949 . S
C171 C166 1.399 . S
C171 C169 1.382 . S
C171 H172 0.952 . S
H172 C171 0.952 . S
H173 C169 0.950 . S
C174 C175 1.363 . S
C174 C180 1.379 . S
C174 N182 1.356 . S
C175 C174 1.363 . S
C175 C181 1.363 . S
C176 C177 1.363 . S
C176 C181 1.379 . S
C176 N183 1.356 . S
C177 C176 1.363 . S
C177 C180 1.363 . S
N178 C180 1.356 . S
N178 H190 0.984 . S
N178 H191 0.985 . S
N179 C181 1.356 . S
N179 H184 0.984 . S
N179 H185 0.985 . S
C180 C174 1.379 . S
C180 C177 1.363 . S
C180 N178 1.356 . S
C181 C175 1.363 . S
C181 C176 1.379 . S
C181 N179 1.356 . S
N182 C174 1.356 . S
N182 H188 0.984 . S
N182 H189 0.984 . S
N183 C176 1.356 . S
N183 H186 0.984 . S
N183 H187 0.985 . S
H184 N179 0.984 . S
H185 N179 0.985 . S
H186 N183 0.984 . S
H187 N183 0.985 . S
H188 N182 0.984 . S
H189 N182 0.984 . S
H190 N178 0.984 . S
H191 N178 0.985 . S
C192 C193 1.363 . S
C192 C198 1.379 . S
C192 N200 1.356 . S
C193 C192 1.363 . S
C193 C199 1.363 . S
C194 C195 1.363 . S
C194 C199 1.379 . S
C194 N201 1.356 . S
C195 C194 1.363 . S
C195 C198 1.363 . S
N196 C198 1.356 . S
N196 H208 0.984 . S
N196 H209 0.985 . S
N197 C199 1.356 . S
N197 H202 0.984 . S
N197 H203 0.985 . S
C198 C192 1.379 . S
C198 C195 1.363 . S
C198 N196 1.356 . S
C199 C193 1.363 . S
C199 C194 1.379 . S
C199 N197 1.356 . S
N200 C192 1.356 . S
N200 H206 0.984 . S
N200 H207 0.984 . S
N201 C194 1.356 . S
N201 H204 0.984 . S
N201 H205 0.985 . S
H202 N197 0.984 . S
H203 N197 0.985 . S
H204 N201 0.984 . S
H205 N201 0.985 . S
H206 N200 0.984 . S
H207 N200 0.984 . S
H208 N196 0.984 . S
H209 N196 0.985 . S
C210 C211 1.363 . S
C210 C216 1.379 . S
C210 N218 1.356 . S
C211 C210 1.363 . S
C211 C217 1.363 . S
C212 C213 1.363 . S
C212 C217 1.379 . S
C212 N219 1.356 . S
C213 C212 1.363 . S
C213 C216 1.363 . S
N214 C216 1.356 . S
N214 H226 0.984 . S
N214 H227 0.985 . S
N215 C217 1.356 . S
N215 H220 0.984 . S
N215 H221 0.985 . S
C216 C210 1.379 . S
C216 C213 1.363 . S
C216 N214 1.356 . S
C217 C211 1.363 . S
C217 C212 1.379 . S
C217 N215 1.356 . S
N218 C210 1.356 . S
N218 H224 0.984 . S
N218 H225 0.984 . S
N219 C212 1.356 . S
N219 H222 0.984 . S
N219 H223 0.985 . S
H220 N215 0.984 . S
H221 N215 0.985 . S
H222 N219 0.984 . S
H223 N219 0.985 . S
H224 N218 0.984 . S
H225 N218 0.984 . S
H226 N214 0.984 . S
H227 N214 0.985 . S
C228 C229 1.363 . S
C228 C234 1.379 . S
C228 N236 1.356 . S
C229 C228 1.363 . S
C229 C235 1.363 . S
C230 C231 1.363 . S
C230 C235 1.379 . S
C230 N237 1.356 . S
C231 C230 1.363 . S
C231 C234 1.363 . S
N232 C234 1.356 . S
N232 H244 0.984 . S
N232 H245 0.985 . S
N233 C235 1.356 . S
N233 H238 0.984 . S
N233 H239 0.985 . S
C234 C228 1.379 . S
C234 C231 1.363 . S
C234 N232 1.356 . S
C235 C229 1.363 . S
C235 C230 1.379 . S
C235 N233 1.356 . S
N236 C228 1.356 . S
N236 H242 0.984 . S
N236 H243 0.984 . S
N237 C230 1.356 . S
N237 H240 0.984 . S
N237 H241 0.985 . S
H238 N233 0.984 . S
H239 N233 0.985 . S
H240 N237 0.984 . S
H241 N237 0.985 . S
H242 N236 0.984 . S
H243 N236 0.984 . S
H244 N232 0.984 . S
H245 N232 0.985 . S
C246 C247 1.363 . S
C246 C252 1.379 . S
C246 N254 1.356 . S
C247 C246 1.363 . S
C247 C253 1.363 . S
C248 C249 1.363 . S
C248 C253 1.379 . S
C248 N255 1.356 . S
C249 C248 1.363 . S
C249 C252 1.363 . S
N250 C252 1.356 . S
N250 H262 0.984 . S
N250 H263 0.985 . S
N251 C253 1.356 . S
N251 H256 0.984 . S
N251 H257 0.985 . S
C252 C246 1.379 . S
C252 C249 1.363 . S
C252 N250 1.356 . S
C253 C247 1.363 . S
C253 C248 1.379 . S
C253 N251 1.356 . S
N254 C246 1.356 . S
N254 H260 0.984 . S
N254 H261 0.984 . S
N255 C248 1.356 . S
N255 H258 0.984 . S
N255 H259 0.985 . S
H256 N251 0.984 . S
H257 N251 0.985 . S
H258 N255 0.984 . S
H259 N255 0.985 . S
H260 N254 0.984 . S
H261 N254 0.984 . S
H262 N250 0.984 . S
H263 N250 0.985 . S
C264 C265 1.363 . S
C264 C270 1.379 . S
C264 N272 1.356 . S
C265 C264 1.363 . S
C265 C271 1.363 . S
C266 C267 1.363 . S
C266 C271 1.379 . S
C266 N273 1.356 . S
C267 C266 1.363 . S
C267 C270 1.363 . S
N268 C270 1.356 . S
N268 H280 0.984 . S
N268 H281 0.985 . S
N269 C271 1.356 . S
N269 H274 0.984 . S
N269 H275 0.985 . S
C270 C264 1.379 . S
C270 C267 1.363 . S
C270 N268 1.356 . S
C271 C265 1.363 . S
C271 C266 1.379 . S
C271 N269 1.356 . S
N272 C264 1.356 . S
N272 H278 0.984 . S
N272 H279 0.984 . S
N273 C266 1.356 . S
N273 H276 0.984 . S
N273 H277 0.985 . S
H274 N269 0.984 . S
H275 N269 0.985 . S
H276 N273 0.984 . S
H277 N273 0.985 . S
H278 N272 0.984 . S
H279 N272 0.984 . S
H280 N268 0.984 . S
H281 N268 0.985 . S
C282 C283 1.363 . S
C282 C288 1.379 . S
C282 N290 1.356 . S
C283 C282 1.363 . S
C283 C289 1.363 . S
C284 C285 1.363 . S
C284 C289 1.379 . S
C284 N291 1.356 . S
C285 C284 1.363 . S
C285 C288 1.363 . S
N286 C288 1.356 . S
N286 H298 0.984 . S
N286 H299 0.985 . S
N287 C289 1.356 . S
N287 H292 0.984 . S
N287 H293 0.985 . S
C288 C282 1.379 . S
C288 C285 1.363 . S
C288 N286 1.356 . S
C289 C283 1.363 . S
C289 C284 1.379 . S
C289 N287 1.356 . S
N290 C282 1.356 . S
N290 H296 0.984 . S
N290 H297 0.984 . S
N291 C284 1.356 . S
N291 H294 0.984 . S
N291 H295 0.985 . S
H292 N287 0.984 . S
H293 N287 0.985 . S
H294 N291 0.984 . S
H295 N291 0.985 . S
H296 N290 0.984 . S
H297 N290 0.984 . S
H298 N286 0.984 . S
H299 N286 0.985 . S
C300 C301 1.363 . S
C300 C306 1.379 . S
C300 N308 1.356 . S
C301 C300 1.363 . S
C301 C307 1.363 . S
C302 C303 1.363 . S
C302 C307 1.379 . S
C302 N309 1.356 . S
C303 C302 1.363 . S
C303 C306 1.363 . S
N304 C306 1.356 . S
N304 H316 0.984 . S
N304 H317 0.985 . S
N305 C307 1.356 . S
N305 H310 0.984 . S
N305 H311 0.985 . S
C306 C300 1.379 . S
C306 C303 1.363 . S
C306 N304 1.356 . S
C307 C301 1.363 . S
C307 C302 1.379 . S
C307 N305 1.356 . S
N308 C300 1.356 . S
N308 H314 0.984 . S
N308 H315 0.984 . S
N309 C302 1.356 . S
N309 H312 0.984 1_655 S
N309 H313 0.985 . S
H310 N305 0.984 . S
H311 N305 0.985 . S
H312 N309 0.984 1_455 S
H313 N309 0.985 . S
H314 N308 0.984 . S
H315 N308 0.984 . S
H316 N304 0.984 . S
H317 N304 0.985 . S
C318 C319 1.363 . S
C318 C324 1.379 . S
C318 N326 1.356 . S
C319 C318 1.363 . S
C319 C325 1.363 . S
C320 C321 1.363 . S
C320 C325 1.379 . S
C320 N327 1.356 . S
C321 C320 1.363 . S
C321 C324 1.363 . S
N322 C324 1.356 . S
N322 H334 0.984 1_565 S
N322 H335 0.985 1_565 S
N323 C325 1.356 . S
N323 H328 0.984 . S
N323 H329 0.985 . S
C324 C318 1.379 . S
C324 C321 1.363 . S
C324 N322 1.356 . S
C325 C319 1.363 . S
C325 C320 1.379 . S
C325 N323 1.356 . S
N326 C318 1.356 . S
N326 H332 0.984 . S
N326 H333 0.984 . S
N327 C320 1.356 . S
N327 H330 0.984 . S
N327 H331 0.985 . S
H328 N323 0.984 . S
H329 N323 0.985 . S
H330 N327 0.984 . S
H331 N327 0.985 . S
H332 N326 0.984 . S
H333 N326 0.984 . S
H334 N322 0.984 1_545 S
H335 N322 0.985 1_545 S
C336 C337 1.363 . S
C336 C342 1.379 . S
C336 N344 1.356 . S
C337 C336 1.363 . S
C337 C343 1.363 . S
C338 C339 1.363 . S
C338 C343 1.379 . S
C338 N345 1.356 . S
C339 C338 1.363 . S
C339 C342 1.363 . S
N340 C342 1.356 . S
N340 H352 0.984 . S
N340 H353 0.985 . S
N341 C343 1.356 . S
N341 H346 0.984 . S
N341 H347 0.985 . S
C342 C336 1.379 . S
C342 C339 1.363 . S
C342 N340 1.356 . S
C343 C337 1.363 . S
C343 C338 1.379 . S
C343 N341 1.356 . S
N344 C336 1.356 . S
N344 H350 0.984 . S
N344 H351 0.984 . S
N345 C338 1.356 . S
N345 H348 0.984 . S
N345 H349 0.985 . S
H346 N341 0.984 . S
H347 N341 0.985 . S
H348 N345 0.984 . S
H349 N345 0.985 . S
H350 N344 0.984 . S
H351 N344 0.984 . S
H352 N340 0.984 . S
H353 N340 0.985 . S
C354 C355 1.363 . S
C354 C360 1.379 . S
C354 N362 1.356 . S
C355 C354 1.363 . S
C355 C361 1.363 . S
C356 C357 1.363 . S
C356 C361 1.379 . S
C356 N363 1.356 . S
C357 C356 1.363 . S
C357 C360 1.363 . S
N358 C360 1.356 . S
N358 H370 0.984 . S
N358 H371 0.985 . S
N359 C361 1.356 . S
N359 H364 0.984 . S
N359 H365 0.985 . S
C360 C354 1.379 . S
C360 C357 1.363 . S
C360 N358 1.356 . S
C361 C355 1.363 . S
C361 C356 1.379 . S
C361 N359 1.356 . S
N362 C354 1.356 . S
N362 H368 0.984 . S
N362 H369 0.984 . S
N363 C356 1.356 . S
N363 H366 0.984 . S
N363 H367 0.985 . S
H364 N359 0.984 . S
H365 N359 0.985 . S
H366 N363 0.984 . S
H367 N363 0.985 . S
H368 N362 0.984 . S
H369 N362 0.984 . S
H370 N358 0.984 . S
H371 N358 0.985 . S
C372 C373 1.363 . S
C372 C378 1.379 . S
C372 N380 1.356 . S
C373 C372 1.363 . S
C373 C379 1.363 . S
C374 C375 1.363 . S
C374 C379 1.379 . S
C374 N381 1.356 . S
C375 C374 1.363 . S
C375 C378 1.363 . S
N376 C378 1.356 . S
N376 H388 0.984 . S
N376 H389 0.985 . S
N377 C379 1.356 . S
N377 H382 0.984 . S
N377 H383 0.985 . S
C378 C372 1.379 . S
C378 C375 1.363 . S
C378 N376 1.356 . S
C379 C373 1.363 . S
C379 C374 1.379 . S
C379 N377 1.356 . S
N380 C372 1.356 . S
N380 H386 0.984 . S
N380 H387 0.984 . S
N381 C374 1.356 . S
N381 H384 0.984 . S
N381 H385 0.985 . S
H382 N377 0.984 . S
H383 N377 0.985 . S
H384 N381 0.984 . S
H385 N381 0.985 . S
H386 N380 0.984 . S
H387 N380 0.984 . S
H388 N376 0.984 . S
H389 N376 0.985 . S
C390 C391 1.363 . S
C390 C396 1.379 1_554 S
C390 N398 1.356 . S
C391 C390 1.363 . S
C391 C397 1.363 . S
C392 C393 1.363 . S
C392 C397 1.379 1_556 S
C392 N399 1.356 . S
C393 C392 1.363 . S
C393 C396 1.363 . S
N394 C396 1.356 . S
N394 H406 0.984 . S
N394 H407 0.985 . S
N395 C397 1.356 . S
N395 H400 0.984 . S
N395 H401 0.985 . S
C396 C390 1.379 1_556 S
C396 C393 1.363 . S
C396 N394 1.356 . S
C397 C391 1.363 . S
C397 C392 1.379 1_554 S
C397 N395 1.356 . S
N398 C390 1.356 . S
N398 H404 0.984 . S
N398 H405 0.984 . S
N399 C392 1.356 . S
N399 H402 0.984 . S
N399 H403 0.985 . S
H400 N395 0.984 . S
H401 N395 0.985 . S
H402 N399 0.984 . S
H403 N399 0.985 . S
H404 N398 0.984 . S
H405 N398 0.984 . S
H406 N394 0.984 . S
H407 N394 0.985 . S
C408 C409 1.363 . S
C408 C414 1.379 . S
C408 N416 1.356 1_545 S
C409 C408 1.363 . S
C409 C415 1.363 . S
C410 C411 1.363 . S
C410 C415 1.379 . S
C410 N417 1.356 . S
C411 C410 1.363 . S
C411 C414 1.363 . S
N412 C414 1.356 1_565 S
N412 H424 0.984 . S
N412 H425 0.985 . S
N413 C415 1.356 . S
N413 H418 0.984 . S
N413 H419 0.985 . S
C414 C408 1.379 . S
C414 C411 1.363 . S
C414 N412 1.356 1_545 S
C415 C409 1.363 . S
C415 C410 1.379 . S
C415 N413 1.356 . S
N416 C408 1.356 1_565 S
N416 H422 0.984 . S
N416 H423 0.984 . S
N417 C410 1.356 . S
N417 H420 0.984 . S
N417 H421 0.985 . S
H418 N413 0.984 . S
H419 N413 0.985 . S
H420 N417 0.984 . S
H421 N417 0.985 . S
H422 N416 0.984 . S
H423 N416 0.984 . S
H424 N412 0.984 . S
H425 N412 0.985 . S
C426 C427 1.363 . S
C426 C432 1.379 . S
C426 N434 1.356 . S
C427 C426 1.363 . S
C427 C433 1.363 . S
C428 C429 1.363 . S
C428 C433 1.379 . S
C428 N435 1.356 . S
C429 C428 1.363 . S
C429 C432 1.363 . S
N430 C432 1.356 . S
N430 H442 0.984 . S
N430 H443 0.985 . S
N431 C433 1.356 . S
N431 H436 0.984 . S
N431 H437 0.985 . S
C432 C426 1.379 . S
C432 C429 1.363 . S
C432 N430 1.356 . S
C433 C427 1.363 . S
C433 C428 1.379 . S
C433 N431 1.356 . S
N434 C426 1.356 . S
N434 H440 0.984 . S
N434 H441 0.984 . S
N435 C428 1.356 . S
N435 H438 0.984 . S
N435 H439 0.985 . S
H436 N431 0.984 . S
H437 N431 0.985 . S
H438 N435 0.984 . S
H439 N435 0.985 . S
H440 N434 0.984 . S
H441 N434 0.984 . S
H442 N430 0.984 . S
H443 N430 0.985 . S
C444 C445 1.363 . S
C444 C450 1.379 . S
C444 N452 1.356 1_545 S
C445 C444 1.363 . S
C445 C451 1.363 . S
C446 C447 1.363 . S
C446 C451 1.379 . S
C446 N453 1.356 . S
C447 C446 1.363 . S
C447 C450 1.363 . S
N448 C450 1.356 1_565 S
N448 H460 0.984 . S
N448 H461 0.985 . S
N449 C451 1.356 . S
N449 H454 0.984 . S
N449 H455 0.985 . S
C450 C444 1.379 . S
C450 C447 1.363 . S
C450 N448 1.356 1_545 S
C451 C445 1.363 . S
C451 C446 1.379 . S
C451 N449 1.356 . S
N452 C444 1.356 1_565 S
N452 H458 0.984 . S
N452 H459 0.984 1_565 S
N453 C446 1.356 . S
N453 H456 0.984 . S
N453 H457 0.985 . S
H454 N449 0.984 . S
H455 N449 0.985 . S
H456 N453 0.984 . S
H457 N453 0.985 . S
H458 N452 0.984 . S
H459 N452 0.984 1_545 S
H460 N448 0.984 . S
H461 N448 0.985 . S
C462 C463 1.363 . S
C462 C468 1.379 1_556 S
C462 N470 1.356 . S
C463 C462 1.363 . S
C463 C469 1.363 . S
C464 C465 1.363 . S
C464 C469 1.379 1_554 S
C464 N471 1.356 . S
C465 C464 1.363 . S
C465 C468 1.363 . S
N466 C468 1.356 . S
N466 H478 0.984 . S
N466 H479 0.985 . S
N467 C469 1.356 . S
N467 H472 0.984 . S
N467 H473 0.985 . S
C468 C462 1.379 1_554 S
C468 C465 1.363 . S
C468 N466 1.356 . S
C469 C463 1.363 . S
C469 C464 1.379 1_556 S
C469 N467 1.356 . S
N470 C462 1.356 . S
N470 H476 0.984 . S
N470 H477 0.984 . S
N471 C464 1.356 . S
N471 H474 0.984 . S
N471 H475 0.985 . S
H472 N467 0.984 . S
H473 N467 0.985 . S
H474 N471 0.984 . S
H475 N471 0.985 . S
H476 N470 0.984 . S
H477 N470 0.984 . S
H478 N466 0.984 . S
H479 N466 0.985 . S
C480 C481 1.363 1_655 S
C480 C486 1.379 . S
C480 N488 1.356 . S
C481 C480 1.363 1_455 S
C481 C487 1.363 . S
C482 C483 1.363 . S
C482 C487 1.379 . S
C482 N489 1.356 . S
C483 C482 1.363 . S
C483 C486 1.363 1_455 S
N484 C486 1.356 . S
N484 H496 0.984 . S
N484 H497 0.985 . S
N485 C487 1.356 . S
N485 H490 0.984 . S
N485 H491 0.985 . S
C486 C480 1.379 . S
C486 C483 1.363 1_655 S
C486 N484 1.356 . S
C487 C481 1.363 . S
C487 C482 1.379 . S
C487 N485 1.356 . S
N488 C480 1.356 . S
N488 H494 0.984 . S
N488 H495 0.984 . S
N489 C482 1.356 . S
N489 H492 0.984 . S
N489 H493 0.985 . S
H490 N485 0.984 . S
H491 N485 0.985 . S
H492 N489 0.984 . S
H493 N489 0.985 . S
H494 N488 0.984 . S
H495 N488 0.984 . S
H496 N484 0.984 . S
H497 N484 0.985 . S
C175 C8 2.049 . S
C177 C166 2.090 . S
C193 C26 1.449 . S
C195 C128 1.417 . S
C211 C48 1.600 . S
C213 C147 1.632 . S
C229 C19 1.799 . S
C231 C161 1.812 . S
C249 C123 1.358 . S
C247 C36 1.359 . S
C267 C142 1.577 . S
C265 C59 1.525 . S
C283 C28 1.611 . S
C285 C90 1.635 . S
C301 C46 1.092 . S
C303 C104 1.098 . S
C319 C16 1.372 . S
C321 C66 1.353 . S
C339 C85 1.561 . S
C337 C39 1.537 . S
C357 C109 1.124 . S
C355 C56 1.140 . S
C373 C6 1.472 . S
C375 C71 1.436 . S
C393 C100 1.494 . S
C391 C9 1.487 . S
C409 C21 1.555 . S
C411 C62 1.567 . S
C427 C49 1.549 . S
C429 C81 1.532 . S
C447 C138 1.523 . S
C445 C29 1.539 . S
C465 C157 1.636 . S
C463 C41 1.601 . S
C481 C1 1.527 . S
C483 C119 1.535 . S
