# Generated by pormake.
# Topology anh, (6,3)-cn, num edge types: 1
# Building blocks:
#     Node 0, Type 0, BuildingBlock: CUWYAW_clean_sbu_0, # of connection points: 6
#     Node 1, Type 0, BuildingBlock: CUWYAW_clean_sbu_0, # of connection points: 6
#     Node 2, Type 0, BuildingBlock: CUWYAW_clean_sbu_0, # of connection points: 6
#     Node 3, Type 1, BuildingBlock: BETDAH_clean_linker_0, # of connection points: 3
#     Node 4, Type 1, BuildingBlock: BETDAH_clean_linker_0, # of connection points: 3
#     Node 5, Type 1, BuildingBlock: BETDAH_clean_linker_0, # of connection points: 3
#     Node 6, Type 1, BuildingBlock: BETDAH_clean_linker_0, # of connection points: 3
#     Node 7, Type 1, BuildingBlock: BETDAH_clean_linker_0, # of connection points: 3
#     Node 8, Type 1, BuildingBlock: BETDAH_clean_linker_0, # of connection points: 3
#     Edge 9, Type (0, 1), BuildingBlock: XUDNAN_clean_linker_2, # of connection points: 2
#     Edge 10, Type (0, 1), BuildingBlock: XUDNAN_clean_linker_2, # of connection points: 2
#     Edge 11, Type (0, 1), BuildingBlock: XUDNAN_clean_linker_2, # of connection points: 2
#     Edge 12, Type (0, 1), BuildingBlock: XUDNAN_clean_linker_2, # of connection points: 2
#     Edge 13, Type (0, 1), BuildingBlock: XUDNAN_clean_linker_2, # of connection points: 2
#     Edge 14, Type (0, 1), BuildingBlock: XUDNAN_clean_linker_2, # of connection points: 2
#     Edge 15, Type (0, 1), BuildingBlock: XUDNAN_clean_linker_2, # of connection points: 2
#     Edge 16, Type (0, 1), BuildingBlock: XUDNAN_clean_linker_2, # of connection points: 2
#     Edge 17, Type (0, 1), BuildingBlock: XUDNAN_clean_linker_2, # of connection points: 2
#     Edge 18, Type (0, 1), BuildingBlock: XUDNAN_clean_linker_2, # of connection points: 2
#     Edge 19, Type (0, 1), BuildingBlock: XUDNAN_clean_linker_2, # of connection points: 2
#     Edge 20, Type (0, 1), BuildingBlock: XUDNAN_clean_linker_2, # of connection points: 2
#     Edge 21, Type (0, 1), BuildingBlock: XUDNAN_clean_linker_2, # of connection points: 2
#     Edge 22, Type (0, 1), BuildingBlock: XUDNAN_clean_linker_2, # of connection points: 2
#     Edge 23, Type (0, 1), BuildingBlock: XUDNAN_clean_linker_2, # of connection points: 2
#     Edge 24, Type (0, 1), BuildingBlock: XUDNAN_clean_linker_2, # of connection points: 2
#     Edge 25, Type (0, 1), BuildingBlock: XUDNAN_clean_linker_2, # of connection points: 2
#     Edge 26, Type (0, 1), BuildingBlock: XUDNAN_clean_linker_2, # of connection points: 2
# Relax obj value: 0.252
# Max RMSD: 0.149
# Mean RMSD: 0.114
data_MOF--net-anh--node1-CUWYAW_clean_sbu_0--node2-BETDAH_clean_linker_0--edge1-XUDNAN_clean_linker_2
_symmetry_space_group_name_H-M    P1
_symmetry_Int_Tables_number       1
_symmetry_cell_setting            triclinic
loop_
_symmetry_equiv_pos_as_xyz
'x, y, z'
_cell_length_a     30.580226
_cell_length_b     30.732392
_cell_length_c     50.008468
_cell_angle_alpha  93.45041
_cell_angle_beta   90.77576
_cell_angle_gamma 119.71107
loop_
_atom_site_label
_atom_site_type_symbol
_atom_site_fract_x
_atom_site_fract_y
_atom_site_fract_z
_atom_type_partial_charge
C0 C 1.00229 0.46429 0.16802 0.0
Eu1 Eu 1.05759 0.56039 0.16326 0.0
C2 C 0.99892 0.41643 0.15799 0.0
C3 C 1.01924 0.39384 0.17375 0.0
C4 C 1.00955 0.34518 0.1666 0.0
C5 C 0.97903 0.31786 0.14359 0.0
C6 C 0.9615 0.3417 0.12685 0.0
C7 C 0.97116 0.39044 0.13403 0.0
C8 C 1.09977 0.62834 0.20649 0.0
C9 C 0.98551 0.61199 0.15289 0.0
C10 C 0.16191 0.75656 0.14188 0.0
Eu11 Eu 1.10415 0.66109 0.14734 0.0
C12 C 0.2156 0.78978 0.13793 0.0
C13 C 0.23037 0.82854 0.12072 0.0
C14 C 0.28144 0.86054 0.11681 0.0
C15 C 0.31848 0.85425 0.13016 0.0
C16 C 0.30318 0.81452 0.14698 0.0
C17 C 0.25227 0.78245 0.15068 0.0
C18 C 1.06117 0.58954 0.10592 0.0
C19 C 0.17355 0.60645 0.14786 0.0
O20 O 1.0403 0.49438 0.18458 0.0
O21 O 0.99128 0.48842 0.15095 0.0
O22 O 1.10426 0.58897 0.20192 0.0
O23 O 1.07402 0.63153 0.18728 0.0
O24 O 0.98818 0.57105 0.15717 0.0
O25 O 1.0273 0.65497 0.15061 0.0
O26 O 0.15022 0.73756 0.1652 0.0
O27 O 0.13664 0.7237 0.12189 0.0
O28 O 1.05861 0.63045 0.1074 0.0
O29 O 1.08763 0.58958 0.12522 0.0
O30 O 0.17421 0.65006 0.15074 0.0
O31 O 0.12953 0.56439 0.14799 0.0
H32 H 1.0405 0.41271 0.1924 0.0
H33 H 1.02295 0.32775 0.18023 0.0
H34 H 0.9381 0.3217 0.10892 0.0
H35 H 0.95489 0.40675 0.12142 0.0
H36 H 0.20239 0.83424 0.11044 0.0
H37 H 0.29191 0.89043 0.10357 0.0
H38 H 0.33051 0.80907 0.15809 0.0
H39 H 0.24169 0.75245 0.16388 0.0
C40 C 0.53186 0.21051 0.48521 0.0
Eu41 Eu 0.58615 0.16774 0.49014 0.0
C42 C 0.54888 0.26419 0.49012 0.0
C43 C 0.59202 0.29405 0.50693 0.0
C44 C 0.61564 0.34609 0.50767 0.0
C45 C 0.59674 0.36947 0.49156 0.0
C46 C 0.55202 0.33979 0.47573 0.0
C47 C 0.52841 0.28724 0.47483 0.0
C48 C 0.62703 0.16531 0.53887 0.0
C49 C 0.70606 0.24277 0.48669 0.0
C50 C 0.69741 1.07406 0.491 0.0
Eu51 Eu 0.64622 0.12006 0.48652 0.0
C52 C 0.71121 1.03578 0.49673 0.0
C53 C 0.70446 0.99875 0.47659 0.0
C54 C 0.72889 0.97091 0.47913 0.0
C55 C 0.7606 0.97966 0.50181 0.0
C56 C 0.76437 1.01411 0.52278 0.0
C57 C 0.74003 1.04202 0.52022 0.0
C58 C 0.63729 0.15476 0.43955 0.0
C59 C 0.52259 1.04538 0.48333 0.0
O60 O 0.55295 0.20037 0.46506 0.0
O61 O 0.53139 0.18699 0.50629 0.0
O62 O 0.62758 0.20468 0.53059 0.0
O63 O 0.60636 0.12964 0.52089 0.0
O64 O 0.66067 0.23572 0.48075 0.0
O65 O 0.70997 0.20383 0.49402 0.0
O66 O 0.69683 0.10466 0.51027 0.0
O67 O 0.66833 1.06728 0.4699 0.0
O68 O 0.67883 0.15987 0.44957 0.0
O69 O 0.60162 0.13108 0.4547 0.0
O70 O 0.56719 1.04779 0.48173 0.0
O71 O 0.52044 0.08718 0.48756 0.0
H72 H 0.60897 0.2772 0.5186 0.0
H73 H 0.64955 0.36816 0.52042 0.0
H74 H 0.53675 0.35716 0.46323 0.0
H75 H 0.49564 0.26472 0.46139 0.0
H76 H 0.68276 0.99329 0.45815 0.0
H77 H 0.72462 0.944 0.46284 0.0
H78 H 0.78879 1.02197 0.54044 0.0
H79 H 0.74646 1.07072 0.53593 0.0
C80 C 0.84578 0.75125 0.83461 0.0
Eu81 Eu 0.74847 0.69522 0.83084 0.0
C82 C 0.88307 0.73397 0.83209 0.0
C83 C 0.90024 0.72163 0.85505 0.0
C84 C 0.92088 0.69012 0.85267 0.0
C85 C 0.9251 0.67064 0.82726 0.0
C86 C 0.9135 0.68775 0.80428 0.0
C87 C 0.89323 0.71967 0.80668 0.0
C88 C 0.68845 0.65987 0.873 0.0
C89 C 0.70829 0.57532 0.81943 0.0
C90 C 0.54723 0.56646 0.80958 0.0
Eu91 Eu 0.6424 0.63431 0.81376 0.0
C92 C 0.49579 0.55524 0.81466 0.0
C93 C 0.45587 0.51345 0.80044 0.0
C94 C 0.4062 0.49838 0.80638 0.0
C95 C 0.39562 0.52495 0.82668 0.0
C96 C 0.43575 0.56805 0.8403 0.0
C97 C 0.48566 0.58305 0.83438 0.0
C98 C 0.70528 0.66641 0.77288 0.0
C99 C 0.68417 0.75361 0.81818 0.0
O100 O 0.81879 0.74555 0.81277 0.0
O101 O 0.8182 0.7374 0.85558 0.0
O102 O 0.73105 0.66098 0.87046 0.0
O103 O 0.67872 0.67783 0.85298 0.0
O104 O 0.74873 0.62069 0.82336 0.0
O105 O 0.66317 0.57136 0.81654 0.0
O106 O 0.5769 0.57374 0.83051 0.0
O107 O 0.5703 0.5964 0.79077 0.0
O108 O 0.66181 0.66419 0.77231 0.0
O109 O 0.71159 0.64946 0.79383 0.0
O110 O 0.64298 0.70887 0.81824 0.0
O111 O 0.72927 0.7573 0.82113 0.0
H112 H 0.89373 0.73268 0.87492 0.0
H113 H 0.92946 0.67772 0.87083 0.0
H114 H 0.91747 0.67424 0.78445 0.0
H115 H 0.882 0.72992 0.78857 0.0
H116 H 0.46316 0.49167 0.78513 0.0
H117 H 0.37604 0.46552 0.79529 0.0
H118 H 0.42864 0.58904 0.85614 0.0
H119 H 0.51622 0.61544 0.84557 0.0
H120 H 0.60651 1.06235 0.23716 0.0
H121 H 0.72359 1.04706 0.27626 0.0
H122 H 0.67983 0.99347 0.19347 0.0
C123 C 0.63448 1.05046 0.23622 0.0
C124 C 0.63957 1.02716 0.21237 0.0
C125 C 0.66458 1.05765 0.25919 0.0
C126 C 0.69984 1.04106 0.25856 0.0
C127 C 0.70583 1.01846 0.23479 0.0
C128 C 0.67553 1.01142 0.21177 0.0
N129 N 0.74395 1.00501 0.23387 0.0
C130 C 0.77615 1.01874 0.21283 0.0
H131 H 0.79901 0.6691 0.5918 0.0
H132 H 0.95223 0.78673 0.60967 0.0
H133 H 0.90037 0.72825 0.52809 0.0
C134 C 0.83611 0.69493 0.58516 0.0
C135 C 0.84535 0.69441 0.55784 0.0
C136 C 0.87449 0.72756 0.60406 0.0
C137 C 0.92279 0.75992 0.5954 0.0
C138 C 0.93199 0.76064 0.56799 0.0
C139 C 0.8934 0.7272 0.5493 0.0
N140 N 0.97649 0.8007 0.55892 0.0
C141 C 0.9709 0.83536 0.54498 0.0
H142 H 0.92462 0.42552 0.92221 0.0
H143 H 0.98616 0.33179 0.94329 0.0
H144 H 0.97323 0.35757 0.86113 0.0
C145 C 0.93932 0.40076 0.91673 0.0
C146 C 0.9471 0.39384 0.88963 0.0
C147 C 0.95456 0.38005 0.93668 0.0
C148 C 0.97218 0.34697 0.92859 0.0
C149 C 0.97768 0.33785 0.90138 0.0
C150 C 0.96535 0.36159 0.88192 0.0
N151 N 1.00396 0.31217 0.89425 0.0
C152 C 1.0495 0.33805 0.88214 0.0
H153 H 0.20751 0.74109 0.40191 0.0
H154 H 1.06758 0.60521 0.41185 0.0
H155 H 0.16921 0.68563 0.48035 0.0
C156 C 0.1826 0.71312 0.41492 0.0
C157 C 0.19528 0.71972 0.44269 0.0
C158 C 0.13665 0.6725 0.40375 0.0
C159 C 1.10261 0.6364 0.4205 0.0
C160 C 1.11419 0.64007 0.4482 0.0
C161 C 0.16041 0.68225 0.45902 0.0
N162 N 1.0814 0.60264 0.46579 0.0
C163 C 1.03232 0.56019 0.46073 0.0
H164 H 0.67796 0.25424 0.73665 0.0
H165 H 0.68677 0.11928 0.74445 0.0
H166 H 0.71844 0.22342 0.81306 0.0
C167 C 0.68493 0.23016 0.74883 0.0
C168 C 0.6989 0.24537 0.77626 0.0
C169 C 0.68091 0.18523 0.73677 0.0
C170 C 0.6889 0.15337 0.7532 0.0
C171 C 0.70168 0.16615 0.78082 0.0
C172 C 0.7076 0.21281 0.79195 0.0
N173 N 0.71071 0.13452 0.79784 0.0
C174 C 0.70101 0.08439 0.79265 0.0
H175 H 0.70033 0.63643 0.06717 0.0
H176 H 0.55867 0.635 0.07392 0.0
H177 H 0.63428 0.62251 0.1437 0.0
C178 C 0.67014 0.63405 0.07916 0.0
C179 C 0.67257 0.62816 0.10679 0.0
C180 C 0.62924 0.6361 0.06675 0.0
C181 C 0.59039 0.63379 0.08293 0.0
C182 C 0.59211 0.62963 0.1108 0.0
C183 C 0.63309 0.62626 0.12234 0.0
N184 N 0.55456 0.62965 0.12806 0.0
C185 C 0.50763 0.62625 0.12149 0.0
H186 H 0.27749 0.68122 0.15312 0.0
H187 H 0.17729 0.52367 0.12821 0.0
H188 H 0.25025 0.51417 0.11706 0.0
H189 H 0.37139 0.70488 0.10268 0.0
H190 H 0.42495 0.745 0.12517 0.0
H191 H 0.3649 0.74091 0.13057 0.0
H192 H 0.36735 0.71616 0.17873 0.0
H193 H 0.42738 0.72021 0.17347 0.0
H194 H 0.37553 0.66304 0.18401 0.0
H195 H 0.33403 0.51994 0.10817 0.0
H196 H 0.4227 0.53987 0.10531 0.0
H197 H 0.47316 0.69251 0.1371 0.0
C198 C 0.27088 0.64475 0.14526 0.0
C199 C 0.22057 0.60317 0.14162 0.0
C200 C 0.21457 0.55626 0.13141 0.0
C201 C 0.25615 0.55041 0.12484 0.0
C202 C 0.30476 0.59162 0.12863 0.0
C203 C 0.31261 0.63793 0.13883 0.0
C204 C 0.36945 0.6754 0.14175 0.0
C205 C 0.3835 0.71915 0.12398 0.0
C206 C 0.38589 0.69484 0.17125 0.0
C207 C 0.39196 0.64283 0.13168 0.0
C208 C 0.35361 0.59472 0.12399 0.0
C209 C 0.36425 0.55755 0.11412 0.0
C210 C 0.41496 0.56927 0.11242 0.0
C211 C 0.45533 0.61779 0.12055 0.0
C212 C 0.44337 0.65516 0.13027 0.0
H213 H 0.81169 0.27617 0.48856 0.0
H214 H 0.70531 0.32869 0.47612 0.0
H215 H 0.77502 0.41187 0.46735 0.0
H216 H 0.91209 0.3951 0.522 0.0
H217 H 0.96273 0.39036 0.50666 0.0
H218 H 0.90457 0.33422 0.51229 0.0
H219 H 0.89561 0.30498 0.46198 0.0
H220 H 0.95357 0.36118 0.45617 0.0
H221 H 0.89649 0.34559 0.43718 0.0
H222 H 0.85705 0.49141 0.4588 0.0
H223 H 0.9441 0.56018 0.45343 0.0
H224 H 1.00137 0.46102 0.47163 0.0
C225 C 0.80301 0.3052 0.48419 0.0
C226 C 0.75178 0.29452 0.48312 0.0
C227 C 0.74326 0.33452 0.47712 0.0
C228 C 0.78303 0.38252 0.47203 0.0
C229 C 0.83253 0.39156 0.47291 0.0
C230 C 0.84288 0.35416 0.47902 0.0
C231 C 0.9 0.37464 0.47872 0.0
C232 C 0.92109 0.3735 0.50658 0.0
C233 C 0.91212 0.34481 0.45723 0.0
C234 C 0.91985 0.42894 0.47142 0.0
C235 C 0.87999 0.43767 0.46809 0.0
C236 C 0.88834 0.48471 0.46135 0.0
C237 C 0.93819 0.52377 0.45817 0.0
C238 C 0.98014 0.51653 0.46165 0.0
C239 C 0.9704 0.46802 0.4684 0.0
H240 H 0.75834 0.8572 0.81913 0.0
H241 H 0.5973 0.75576 0.80647 0.0
H242 H 0.58541 0.82717 0.79742 0.0
H243 H 0.74819 0.96087 0.85271 0.0
H244 H 0.80229 1.00943 0.8377 0.0
H245 H 0.79894 0.95036 0.84294 0.0
H246 H 0.81195 0.93898 0.79259 0.0
H247 H 0.81508 0.9979 0.78718 0.0
H248 H 0.76991 0.9413 0.76783 0.0
H249 H 0.58985 0.91074 0.78898 0.0
H250 H 0.61039 0.99867 0.78442 0.0
H251 H 0.76787 1.04957 0.80324 0.0
C252 C 0.7205 0.8499 0.81453 0.0
C253 C 0.67877 0.79965 0.81364 0.0
C254 C 0.63017 0.79296 0.80747 0.0
C255 C 0.62292 0.83369 0.80217 0.0
C256 C 0.66447 0.88224 0.80308 0.0
C257 C 0.7124 0.8907 0.8093 0.0
C258 C 0.75036 0.94711 0.80938 0.0
C259 C 0.7765 0.96819 0.83735 0.0
C260 C 0.78913 0.95689 0.78797 0.0
C261 C 0.71641 0.96885 0.80222 0.0
C262 C 0.66695 0.9305 0.79853 0.0
C263 C 0.62855 0.94084 0.79183 0.0
C264 C 0.64059 0.99116 0.78914 0.0
C265 C 0.69073 1.03156 0.79308 0.0
C266 C 0.72914 1.0198 0.7997 0.0
H267 H 0.95752 0.67136 0.12476 0.0
H268 H 0.89644 0.54473 0.17405 0.0
H269 H 0.81241 0.53762 0.16943 0.0
H270 H 0.88118 0.72602 0.14772 0.0
H271 H 0.87219 0.74265 0.11496 0.0
H272 H 0.92815 0.73967 0.12323 0.0
H273 H 0.90867 0.67657 0.0821 0.0
H274 H 0.85272 0.67942 0.07367 0.0
H275 H 0.84831 0.6197 0.07837 0.0
H276 H 0.73324 0.54517 0.15985 0.0
H277 H 0.6665 0.56124 0.14302 0.0
H278 H 0.77614 0.67949 0.09731 0.0
C279 C 0.9266 0.64241 0.13483 0.0
C280 C 0.93447 0.60896 0.15017 0.0
C281 C 0.89217 0.57105 0.16236 0.0
C282 C 0.844 0.56678 0.15986 0.0
C283 C 0.83755 0.60014 0.14464 0.0
C284 C 0.87769 0.63689 0.13203 0.0
C285 C 0.85992 0.66624 0.11565 0.0
C286 C 0.88698 0.72195 0.12601 0.0
C287 C 0.86789 0.66011 0.08567 0.0
C288 C 0.80376 0.64056 0.12109 0.0
C289 C 0.79178 0.6029 0.13815 0.0
C290 C 0.74249 0.57453 0.14641 0.0
C291 C 0.7046 0.58423 0.13684 0.0
C292 C 0.71514 0.62168 0.1187 0.0
C293 C 0.766 0.65026 0.11094 0.0
H294 H 0.48349 0.9602 0.4456 0.0
H295 H 0.44743 1.01777 0.51812 0.0
H296 H 0.36394 0.94093 0.51692 0.0
H297 H 0.35867 0.90638 0.41354 0.0
H298 H 0.35843 0.85215 0.39749 0.0
H299 H 0.41723 0.90963 0.40495 0.0
H300 H 0.45069 0.86188 0.43172 0.0
H301 H 0.39196 0.80422 0.42432 0.0
H302 H 0.41504 0.82579 0.45863 0.0
H303 H 0.28214 0.85648 0.50795 0.0
H304 H 0.20832 0.77664 0.49021 0.0
H305 H 0.29196 0.77292 0.42155 0.0
C306 C 0.45836 0.9562 0.46148 0.0
C307 C 0.47323 0.99546 0.48238 0.0
C308 C 0.43789 0.98869 0.50212 0.0
C309 C 0.39002 0.94484 0.50159 0.0
C310 C 0.37634 0.90723 0.48081 0.0
C311 C 0.40929 0.91259 0.46091 0.0
C312 C 0.38346 0.86756 0.43996 0.0
C313 C 0.37921 0.88498 0.41234 0.0
C314 C 0.412 0.83812 0.43857 0.0
C315 C 0.33122 0.83627 0.45119 0.0
C316 C 0.32831 0.85969 0.47498 0.0
C317 C 0.2843 0.83804 0.4893 0.0
C318 C 0.24225 0.79203 0.47907 0.0
C319 C 0.24308 0.76718 0.45434 0.0
C320 C 0.28899 0.79026 0.4404 0.0
H321 H 0.64401 0.48012 0.7931 0.0
H322 H 0.78696 0.56434 0.83859 0.0
H323 H 0.79824 0.48988 0.83447 0.0
H324 H 0.60434 0.35772 0.81804 0.0
H325 H 0.5782 0.32322 0.78601 0.0
H326 H 0.57994 0.38214 0.79364 0.0
H327 H 0.62881 0.41654 0.751 0.0
H328 H 0.62709 0.35768 0.74322 0.0
H329 H 0.68662 0.41552 0.74614 0.0
H330 H 0.79248 0.40268 0.82639 0.0
H331 H 0.77584 0.31756 0.81074 0.0
H332 H 0.63981 0.29052 0.76742 0.0
C333 C 0.67755 0.48289 0.80241 0.0
C334 C 0.7142 0.52876 0.81664 0.0
C335 C 0.75794 0.53022 0.82783 0.0
C336 C 0.76469 0.48775 0.82558 0.0
C337 C 0.72794 0.44331 0.81156 0.0
C338 C 0.68551 0.4409 0.79979 0.0
C339 C 0.65306 0.38946 0.78453 0.0
C340 C 0.60078 0.36149 0.79625 0.0
C341 C 0.64864 0.39515 0.75444 0.0
C342 C 0.68343 0.36315 0.78967 0.0
C343 C 0.7262 0.39466 0.80564 0.0
C344 C 0.75932 0.37818 0.81363 0.0
C345 C 0.74924 0.32919 0.80478 0.0
C346 C 0.7065 0.29627 0.78765 0.0
C347 C 0.67317 0.31418 0.78025 0.0
H348 H 0.78204 0.93977 0.54436 0.0
H349 H 0.81448 0.9695 0.46108 0.0
H350 H 0.87481 0.9383 0.4632 0.0
H351 H 0.90748 0.97901 0.56765 0.0
H352 H 0.88924 0.93068 0.59072 0.0
H353 H 0.84694 0.95332 0.58237 0.0
H354 H 0.77689 0.86253 0.56712 0.0
H355 H 0.81877 0.83959 0.5758 0.0
H356 H 0.79 0.82586 0.54241 0.0
H357 H 0.93308 0.905 0.4748 0.0
H358 H 0.98061 0.86751 0.4947 0.0
H359 H 0.91137 0.86251 0.57026 0.0
C360 C 0.80172 0.93959 0.52655 0.0
C361 C 0.7934 0.95686 0.50254 0.0
C362 C 0.81963 0.95565 0.47958 0.0
C363 C 0.85433 0.93845 0.48065 0.0
C364 C 0.86233 0.92258 0.50481 0.0
C365 C 0.83641 0.92256 0.52726 0.0
C366 C 0.85169 0.90345 0.55076 0.0
C367 C 0.87524 0.94405 0.57425 0.0
C368 C 0.80666 0.85498 0.55953 0.0
C369 C 0.89057 0.89318 0.53809 0.0
C370 C 0.89628 0.90437 0.51157 0.0
C371 C 0.92922 0.89645 0.49561 0.0
C372 C 0.95625 0.8756 0.50701 0.0
C373 C 0.9501 0.8636 0.53399 0.0
C374 C 0.91736 0.87279 0.54971 0.0
H375 H 0.99414 0.65918 0.85668 0.0
H376 H 0.87447 0.58383 0.79469 0.0
H377 H 0.87694 0.50543 0.79857 0.0
H378 H 1.061 0.5852 0.84191 0.0
H379 H 1.07319 0.5847 0.87723 0.0
H380 H 1.07097 0.63741 0.86469 0.0
H381 H 1.00289 0.62591 0.89832 0.0
H382 H 1.00437 0.573 0.91069 0.0
H383 H 0.94563 0.56607 0.89798 0.0
H384 H 0.88216 0.43175 0.81486 0.0
H385 H 0.88893 0.37081 0.84277 0.0
H386 H 1.00239 0.49452 0.89482 0.0
C387 C 0.96972 0.62664 0.84327 0.0
C388 C 0.93461 0.62776 0.8252 0.0
C389 C 0.90264 0.58423 0.80822 0.0
C390 C 0.90362 0.5394 0.81036 0.0
C391 C 0.93707 0.5389 0.82938 0.0
C392 C 0.96995 0.58168 0.84534 0.0
C393 C 0.99712 0.5701 0.86677 0.0
C394 C 1.05395 0.59588 0.86237 0.0
C395 C 0.98684 0.58461 0.89509 0.0
C396 C 0.9725 0.51385 0.86133 0.0
C397 C 0.93884 0.49641 0.83932 0.0
C398 C 0.90891 0.44505 0.8319 0.0
C399 C 0.91287 0.41077 0.84777 0.0
C400 C 0.94591 0.42839 0.87084 0.0
C401 C 0.97682 0.4804 0.8772 0.0
H402 H 0.39734 0.8359 0.12944 0.0
H403 H 0.36247 0.95656 0.12945 0.0
H404 H 0.45207 1.01837 0.13863 0.0
H405 H 0.46624 0.87699 0.18514 0.0
H406 H 0.51274 0.85921 0.17685 0.0
H407 H 0.45153 0.82621 0.16016 0.0
H408 H 0.49179 0.84651 0.11407 0.0
H409 H 0.55365 0.87966 0.13071 0.0
H410 H 0.53479 0.91079 0.10757 0.0
H411 H 0.53734 1.06421 0.15987 0.0
H412 H 0.60965 0.08938 0.19168 0.0
H413 H 0.58869 0.93909 0.18142 0.0
C414 C 0.40887 0.87544 0.13048 0.0
C415 C 0.37285 0.89129 0.1288 0.0
C416 C 0.38933 0.94335 0.13019 0.0
C417 C 0.44035 0.97888 0.13544 0.0
C418 C 0.47444 0.9618 0.13909 0.0
C419 C 0.45943 0.91117 0.13635 0.0
C420 C 0.50046 0.90155 0.14657 0.0
C421 C 0.4816 0.86384 0.16848 0.0
C422 C 0.52142 0.88358 0.12334 0.0
C423 C 0.53891 0.95395 0.15784 0.0
C424 C 0.52417 0.98852 0.15231 0.0
C425 C 0.55002 1.03785 0.1637 0.0
C426 C 0.59071 1.05169 0.18195 0.0
C427 C 0.6046 1.01608 0.18894 0.0
C428 C 0.57966 0.96734 0.17587 0.0
H429 H 0.69669 0.42763 0.4847 0.0
H430 H 0.56111 0.43509 0.49905 0.0
H431 H 0.61256 0.52736 0.50806 0.0
H432 H 0.76567 0.50373 0.53656 0.0
H433 H 0.82544 0.53462 0.52104 0.0
H434 H 0.77808 0.47287 0.50829 0.0
H435 H 0.78067 0.50418 0.46093 0.0
H436 H 0.82936 0.56595 0.4737 0.0
H437 H 0.77282 0.55787 0.45712 0.0
H438 H 0.67813 0.61248 0.52608 0.0
H439 H 0.75214 0.68391 0.55046 0.0
H440 H 0.8458 0.62212 0.52412 0.0
C441 C 0.67784 0.44911 0.4888 0.0
C442 C 0.62517 0.4247 0.49122 0.0
C443 C 0.60144 0.45343 0.49682 0.0
C444 C 0.6304 0.50577 0.50192 0.0
C445 C 0.68273 0.52855 0.50081 0.0
C446 C 0.70619 0.50115 0.49391 0.0
C447 C 0.76294 0.53282 0.49787 0.0
C448 C 0.78421 0.50963 0.51709 0.0
C449 C 0.78793 0.5407 0.47079 0.0
C450 C 0.76763 0.5812 0.51021 0.0
C451 C 0.72107 0.57848 0.51103 0.0
C452 C 0.71493 0.61577 0.52477 0.0
C453 C 0.757 0.65602 0.53864 0.0
C454 C 0.80442 0.65847 0.5387 0.0
C455 C 0.81014 0.62163 0.52357 0.0
H456 H 0.32535 0.42814 0.83445 0.0
H457 H 0.34742 0.57909 0.83651 0.0
H458 H 0.2592 0.54656 0.84927 0.0
H459 H 0.19676 0.36304 0.80693 0.0
H460 H 0.17789 0.31032 0.82699 0.0
H461 H 0.24216 0.34545 0.81736 0.0
H462 H 0.27357 0.36149 0.86729 0.0
H463 H 0.20946 0.32634 0.87708 0.0
H464 H 0.24954 0.38998 0.89102 0.0
H465 H 0.16898 0.49741 0.86219 0.0
H466 H 1.08433 0.4357 0.87638 0.0
H467 H 0.12196 0.31733 0.86598 0.0
C468 C 0.31144 0.45428 0.83725 0.0
C469 C 0.34296 0.50607 0.8343 0.0
C470 C 0.32383 0.5393 0.83877 0.0
C471 C 0.2738 0.52113 0.84585 0.0
C472 C 0.24367 0.46975 0.84845 0.0
C473 C 0.26186 0.43685 0.84441 0.0
C474 C 0.22243 0.38364 0.84933 0.0
C475 C 0.20902 0.34856 0.82361 0.0
C476 C 0.23979 0.36425 0.87256 0.0
C477 C 0.17911 0.39166 0.85692 0.0
C478 C 0.19201 0.44156 0.85612 0.0
C479 C 0.15842 0.45828 0.86278 0.0
C480 C 1.11061 0.42313 0.87073 0.0
C481 C 1.09727 0.37228 0.87195 0.0
C482 C 0.13158 0.35616 0.86486 0.0
H483 H 0.88174 0.24666 0.13146 0.0
H484 H 1.02882 0.26502 0.15043 0.0
H485 H 0.98894 0.1755 0.15914 0.0
H486 H 0.82613 0.18626 0.18131 0.0
H487 H 0.76503 0.14263 0.16568 0.0
H488 H 0.80416 0.20068 0.15126 0.0
H489 H 0.79995 0.15294 0.10599 0.0
H490 H 0.75977 0.09419 0.12021 0.0
H491 H 0.81692 0.10447 0.10501 0.0
H492 H 0.93439 0.09592 0.17932 0.0
H493 H 0.87024 1.0332 0.20702 0.0
H494 H 0.75812 1.06448 0.1742 0.0
C495 C 0.90577 0.23111 0.13577 0.0
C496 C 0.95831 0.26269 0.14022 0.0
C497 C 0.98842 0.24143 0.14695 0.0
C498 C 0.96606 0.19048 0.15176 0.0
C499 C 0.91363 0.16112 0.14929 0.0
C500 C 0.88386 0.18045 0.14079 0.0
C501 C 0.82858 0.14466 0.14456 0.0
C502 C 0.80469 0.17009 0.16174 0.0
C503 C 0.79961 0.12275 0.11732 0.0
C504 C 0.83239 0.10485 0.15912 0.0
C505 C 0.8815 0.11391 0.16081 0.0
C506 C 0.89553 0.08713 0.17719 0.0
C507 C 0.85903 1.05166 0.19288 0.0
C508 C 0.80949 1.04367 0.19199 0.0
C509 C 0.79556 1.06898 0.17427 0.0
H510 H 1.03253 0.59523 0.05478 0.0
H511 H 1.0421 0.4936 0.10791 0.0
H512 H 1.00532 0.4252 0.07178 0.0
H513 H 0.91847 0.50456 0.01471 0.0
H514 H 0.94361 0.53195 0.98371 0.0
H515 H 0.96329 0.57075 0.01485 0.0
H516 H 1.05681 0.59973 0.00586 0.0
H517 H 1.03731 0.56148 0.97465 0.0
H518 H 1.07564 0.55319 -0.00073 0.0
H519 H 0.96906 0.3683 0.02926 0.0
H520 H 0.94801 0.33101 0.98256 0.0
H521 H 0.97524 0.47452 0.9564 0.0
C522 C 1.02587 0.55827 0.05887 0.0
C523 C 1.03856 0.54906 0.08426 0.0
C524 C 1.03127 0.50089 0.08873 0.0
C525 C 1.01042 0.46183 0.06834 0.0
C526 C 0.99825 0.472 0.04343 0.0
C527 C 1.00665 0.51932 0.03847 0.0
C528 C 0.99644 0.52215 0.00915 0.0
C529 C 0.95285 0.53299 0.0054 0.0
C530 C 1.0444 0.56144 -0.00351 0.0
C531 C 0.9814 0.46924 -0.00159 0.0
C532 C 0.98143 0.44049 0.01853 0.0
C533 C 0.96917 0.39056 0.01327 0.0
C534 C 0.95764 0.36982 0.98658 0.0
C535 C 0.95976 0.39939 0.96538 0.0
C536 C 0.97144 0.44972 0.97176 0.0
H537 H 0.57243 0.07856 0.40385 0.0
H538 H 0.69435 0.23271 0.41072 0.0
H539 H 0.70579 0.22792 0.3621 0.0
H540 H 0.62981 1.03367 0.36528 0.0
H541 H 0.57688 0.98839 0.3438 0.0
H542 H 0.56662 1.00705 0.37678 0.0
H543 H 0.50608 1.03433 0.35708 0.0
H544 H 0.51484 1.0144 0.3239 0.0
H545 H 0.52665 0.07759 0.33111 0.0
H546 H 0.71766 0.20128 0.31658 0.0
H547 H 0.72384 0.15607 0.27538 0.0
H548 H 0.59549 1.01832 0.29737 0.0
C549 C 0.59923 0.11206 0.39466 0.0
C550 C 0.63163 0.15647 0.41059 0.0
C551 C 0.66845 0.19891 0.39849 0.0
C552 C 0.67529 0.19641 0.37095 0.0
C553 C 0.64498 0.15108 0.35591 0.0
C554 C 0.60695 0.10982 0.36717 0.0
C555 C 0.58499 1.06355 0.34757 0.0
C556 C 0.58992 1.02069 0.35906 0.0
C557 C 0.52986 1.04647 0.33943 0.0
C558 C 0.61874 0.08448 0.32433 0.0
C559 C 0.65244 0.13527 0.32936 0.0
C560 C 0.69062 0.16187 0.31206 0.0
C561 C 0.69422 0.13598 0.28893 0.0
C562 C 0.66007 0.08416 0.28351 0.0
C563 C 0.6216 1.05819 0.30119 0.0
H564 H 0.69463 0.69563 0.72351 0.0
H565 H 0.79421 0.66706 0.7727 0.0
H566 H 0.85369 0.6894 0.7364 0.0
H567 H 0.70993 0.63953 0.66348 0.0
H568 H 0.70726 0.6834 0.6421 0.0
H569 H 0.67548 0.67108 0.67309 0.0
H570 H 0.72463 0.76628 0.68803 0.0
H571 H 0.75675 0.77885 0.65707 0.0
H572 H 0.79256 0.79971 0.68871 0.0
H573 H 0.90026 0.71048 0.69407 0.0
H574 H 0.92656 0.72138 0.64717 0.0
H575 H 0.79534 0.73296 0.62498 0.0
C576 C 0.72932 0.69485 0.7267 0.0
C577 C 0.74046 0.68068 0.75103 0.0
C578 C 0.78559 0.6789 0.75436 0.0
C579 C 0.81961 0.69152 0.73388 0.0
C580 C 0.80769 0.70544 0.71009 0.0
C581 C 0.76346 0.70677 0.70628 0.0
C582 C 0.75765 0.71872 0.67799 0.0
C583 C 0.70976 0.67561 0.66331 0.0
C584 C 0.75793 0.76888 0.67796 0.0
C585 C 0.8049 0.7228 0.6664 0.0
C586 C 0.83374 0.71594 0.68535 0.0
C587 C 0.87823 0.7163 0.67906 0.0
C588 C 0.89299 0.7227 0.65249 0.0
C589 C 0.86288 0.72786 0.63263 0.0
C590 C 0.81892 0.72894 0.63985 0.0
H591 H 0.67279 0.23829 0.5809 0.0
H592 H 0.59655 0.07704 0.56208 0.0
H593 H 0.60203 1.06449 0.61011 0.0
H594 H 0.75972 0.24117 0.63311 0.0
H595 H 0.75834 0.29061 0.65372 0.0
H596 H 0.74878 0.28682 0.61784 0.0
H597 H 0.66392 0.28495 0.62394 0.0
H598 H 0.67304 0.28831 0.65983 0.0
H599 H 0.61653 0.23759 0.6431 0.0
H600 H 0.61073 1.06929 0.66096 0.0
H601 H 0.62821 0.09085 0.70956 0.0
H602 H 0.70596 0.24954 0.69534 0.0
C603 C 0.65757 0.20038 0.5869 0.0
C604 C 0.63398 0.1586 0.56765 0.0
C605 C 0.61477 0.10963 0.57635 0.0
C606 C 0.61759 0.10212 0.60367 0.0
C607 C 0.64043 0.14397 0.62218 0.0
C608 C 0.66079 0.19221 0.61412 0.0
C609 C 0.68404 0.2307 0.63809 0.0
C610 C 0.74111 0.26431 0.63553 0.0
C611 C 0.65781 0.26224 0.64143 0.0
C612 C 0.67288 0.19661 0.66088 0.0
C613 C 0.64742 0.14672 0.65128 0.0
C614 C 0.63145 0.10832 0.66861 0.0
C615 C 0.64203 0.1211 0.69637 0.0
C616 C 0.66911 0.17209 0.70691 0.0
C617 C 0.68466 0.21012 0.68853 0.0
H618 H 0.70034 0.61304 0.91468 0.0
H619 H 0.62754 0.69661 0.8921 0.0
H620 H 0.60087 0.69695 0.9388 0.0
H621 H 0.60576 0.53543 0.96163 0.0
H622 H 0.65275 0.53631 0.98416 0.0
H623 H 0.66265 0.54026 0.94874 0.0
H624 H 0.74761 0.62269 0.95887 0.0
H625 H 0.73773 0.61934 -0.00575 0.0
H626 H 0.74868 0.67465 0.97825 0.0
H627 H 0.59003 0.69493 -0.01003 0.0
H628 H 0.5904 0.68571 0.03863 0.0
H629 H 0.66511 0.59769 0.02632 0.0
C630 C 0.67804 0.63074 0.91943 0.0
C631 C 0.66602 0.65484 0.89971 0.0
C632 C 0.63691 0.67764 0.90678 0.0
C633 C 0.62182 0.67817 0.93332 0.0
C634 C 0.63546 0.65505 0.95247 0.0
C635 C 0.66223 0.63102 0.94562 0.0
C636 C 0.67303 0.6096 0.96979 0.0
C637 C 0.64698 0.55198 0.96584 0.0
C638 C 0.73015 0.63298 0.97562 0.0
C639 C 0.64926 0.62625 -0.00844 0.0
C640 C 0.62782 0.65249 0.98129 0.0
C641 C 0.60597 0.67363 -0.00197 0.0
C642 C 0.60608 0.66784 0.0258 0.0
C643 C 0.62762 0.64076 0.03688 0.0
C644 C 0.64891 0.61934 0.01909 0.0
H645 H 0.1685 0.64198 0.24594 0.0
H646 H 1.03578 0.65523 0.2314 0.0
H647 H 1.03136 0.66971 0.28043 0.0
H648 H 0.13084 0.57614 0.30319 0.0
H649 H 0.19189 0.6077 0.32067 0.0
H650 H 0.18729 0.60297 0.28458 0.0
H651 H 0.24152 0.69969 0.28433 0.0
H652 H 0.24708 0.70472 0.32045 0.0
H653 H 0.22303 0.73912 0.30338 0.0
H654 H 1.03573 0.6715 0.33192 0.0
H655 H 1.05548 0.67307 0.3804 0.0
H656 H 0.1887 0.66443 0.36105 0.0
C657 C 0.13935 0.64939 0.25305 0.0
C658 C 1.10273 0.64797 0.23481 0.0
C659 C 1.06471 0.65703 0.24491 0.0
C660 C 1.0617 0.66481 0.27278 0.0
C661 C 1.09751 0.66431 0.29029 0.0
C662 C 0.13638 0.65807 0.2807 0.0
C663 C 0.16976 0.65835 0.30358 0.0
C664 C 0.16993 0.60831 0.30295 0.0
C665 C 0.22354 0.70314 0.30289 0.0
C666 C 0.14309 0.66454 0.32764 0.0
C667 C 1.10119 0.66746 0.31961 0.0
C668 C 1.06895 0.67014 0.33833 0.0
C669 C 1.08022 0.67066 0.36582 0.0
C670 C 0.12372 0.66918 0.37448 0.0
C671 C 0.15548 0.66615 0.35502 0.0
loop_
_geom_bond_atom_site_label_1
_geom_bond_atom_site_label_2
_geom_bond_distance
_geom_bond_site_symmetry_2
_ccdc_geom_bond_type
C0 Eu1 2.835 . S
C0 C2 1.500 . S
C0 O20 1.257 . S
C0 O21 1.260 . S
Eu1 C0 2.835 . S
Eu1 O20 2.473 . S
Eu1 O21 2.480 . S
Eu1 O22 2.430 1_655 S
Eu1 O23 2.670 1_655 S
Eu1 O24 2.394 . S
Eu1 O29 2.355 1_655 S
Eu1 O31 2.374 1_655 S
C2 C0 1.500 . S
C2 C3 1.377 . S
C2 C7 1.377 . S
C3 C2 1.377 . S
C3 C4 1.395 . S
C3 H32 0.931 . S
C4 C3 1.395 . S
C4 C5 1.383 . S
C4 H33 0.931 . S
C5 C4 1.383 . S
C5 C6 1.394 . S
C6 C5 1.394 . S
C6 C7 1.378 . S
C6 H34 0.931 . S
C7 C2 1.377 . S
C7 C6 1.378 . S
C7 H35 0.931 . S
C8 O22 1.259 . S
C8 O23 1.270 . S
C9 O24 1.251 . S
C9 O25 1.251 . S
C10 Eu11 2.835 . S
C10 C12 1.500 . S
C10 O26 1.257 . S
C10 O27 1.260 . S
Eu11 C10 2.835 . S
Eu11 O23 2.355 . S
Eu11 O25 2.374 1_455 S
Eu11 O26 2.473 . S
Eu11 O27 2.480 . S
Eu11 O28 2.430 . S
Eu11 O29 2.670 . S
Eu11 O30 2.394 . S
C12 C10 1.500 . S
C12 C13 1.377 . S
C12 C17 1.377 . S
C13 C12 1.377 . S
C13 C14 1.395 . S
C13 H36 0.931 . S
C14 C13 1.395 . S
C14 C15 1.383 . S
C14 H37 0.931 . S
C15 C14 1.383 . S
C15 C16 1.394 . S
C16 C15 1.394 . S
C16 C17 1.378 . S
C16 H38 0.931 . S
C17 C12 1.377 . S
C17 C16 1.378 . S
C17 H39 0.931 . S
C18 O28 1.259 . S
C18 O29 1.270 . S
C19 O30 1.251 . S
C19 O31 1.251 . S
O20 C0 1.257 . S
O20 Eu1 2.473 . S
O21 C0 1.260 . S
O21 Eu1 2.480 . S
O22 Eu1 2.430 1_455 S
O22 C8 1.259 . S
O23 Eu1 2.670 1_455 S
O23 C8 1.270 . S
O23 Eu11 2.355 . S
O24 Eu1 2.394 . S
O24 C9 1.251 . S
O25 C9 1.251 . S
O25 Eu11 2.374 1_655 S
O26 C10 1.257 . S
O26 Eu11 2.473 . S
O27 C10 1.260 . S
O27 Eu11 2.480 . S
O28 Eu11 2.430 . S
O28 C18 1.259 . S
O29 Eu1 2.355 1_455 S
O29 Eu11 2.670 . S
O29 C18 1.270 . S
O30 Eu11 2.394 . S
O30 C19 1.251 . S
O31 Eu1 2.374 1_455 S
O31 C19 1.251 . S
H32 C3 0.931 . S
H33 C4 0.931 . S
H34 C6 0.931 . S
H35 C7 0.931 . S
H36 C13 0.931 . S
H37 C14 0.931 . S
H38 C16 0.931 . S
H39 C17 0.931 . S
C40 Eu41 2.835 . S
C40 C42 1.500 . S
C40 O60 1.257 . S
C40 O61 1.260 . S
Eu41 C40 2.835 . S
Eu41 O60 2.473 . S
Eu41 O61 2.480 . S
Eu41 O62 2.430 . S
Eu41 O63 2.670 . S
Eu41 O64 2.394 . S
Eu41 O69 2.355 . S
Eu41 O71 2.374 . S
C42 C40 1.500 . S
C42 C43 1.377 . S
C42 C47 1.377 . S
C43 C42 1.377 . S
C43 C44 1.395 . S
C43 H72 0.931 . S
C44 C43 1.395 . S
C44 C45 1.383 . S
C44 H73 0.931 . S
C45 C44 1.383 . S
C45 C46 1.394 . S
C46 C45 1.394 . S
C46 C47 1.378 . S
C46 H74 0.931 . S
C47 C42 1.377 . S
C47 C46 1.378 . S
C47 H75 0.931 . S
C48 O62 1.259 . S
C48 O63 1.270 . S
C49 O64 1.251 . S
C49 O65 1.251 . S
C50 Eu51 2.835 1_565 S
C50 C52 1.500 . S
C50 O66 1.257 . S
C50 O67 1.260 . S
Eu51 C50 2.835 1_545 S
Eu51 O63 2.355 . S
Eu51 O65 2.374 . S
Eu51 O66 2.473 1_545 S
Eu51 O67 2.480 1_545 S
Eu51 O68 2.430 . S
Eu51 O69 2.670 . S
Eu51 O70 2.394 1_545 S
C52 C50 1.500 . S
C52 C53 1.377 . S
C52 C57 1.377 . S
C53 C52 1.377 . S
C53 C54 1.395 . S
C53 H76 0.931 . S
C54 C53 1.395 . S
C54 C55 1.383 . S
C54 H77 0.931 . S
C55 C54 1.383 . S
C55 C56 1.394 . S
C56 C55 1.394 . S
C56 C57 1.378 . S
C56 H78 0.931 . S
C57 C52 1.377 . S
C57 C56 1.378 . S
C57 H79 0.931 . S
C58 O68 1.259 . S
C58 O69 1.270 . S
C59 O70 1.251 . S
C59 O71 1.251 1_565 S
O60 C40 1.257 . S
O60 Eu41 2.473 . S
O61 C40 1.260 . S
O61 Eu41 2.480 . S
O62 Eu41 2.430 . S
O62 C48 1.259 . S
O63 Eu41 2.670 . S
O63 C48 1.270 . S
O63 Eu51 2.355 . S
O64 Eu41 2.394 . S
O64 C49 1.251 . S
O65 C49 1.251 . S
O65 Eu51 2.374 . S
O66 C50 1.257 . S
O66 Eu51 2.473 1_565 S
O67 C50 1.260 . S
O67 Eu51 2.480 1_565 S
O68 Eu51 2.430 . S
O68 C58 1.259 . S
O69 Eu41 2.355 . S
O69 Eu51 2.670 . S
O69 C58 1.270 . S
O70 Eu51 2.394 1_565 S
O70 C59 1.251 . S
O71 Eu41 2.374 . S
O71 C59 1.251 1_545 S
H72 C43 0.931 . S
H73 C44 0.931 . S
H74 C46 0.931 . S
H75 C47 0.931 . S
H76 C53 0.931 . S
H77 C54 0.931 . S
H78 C56 0.931 . S
H79 C57 0.931 . S
C80 Eu81 2.835 . S
C80 C82 1.500 . S
C80 O100 1.257 . S
C80 O101 1.260 . S
Eu81 C80 2.835 . S
Eu81 O100 2.473 . S
Eu81 O101 2.480 . S
Eu81 O102 2.430 . S
Eu81 O103 2.670 . S
Eu81 O104 2.394 . S
Eu81 O109 2.355 . S
Eu81 O111 2.374 . S
C82 C80 1.500 . S
C82 C83 1.377 . S
C82 C87 1.377 . S
C83 C82 1.377 . S
C83 C84 1.395 . S
C83 H112 0.931 . S
C84 C83 1.395 . S
C84 C85 1.383 . S
C84 H113 0.931 . S
C85 C84 1.383 . S
C85 C86 1.394 . S
C86 C85 1.394 . S
C86 C87 1.378 . S
C86 H114 0.931 . S
C87 C82 1.377 . S
C87 C86 1.378 . S
C87 H115 0.931 . S
C88 O102 1.259 . S
C88 O103 1.270 . S
C89 O104 1.251 . S
C89 O105 1.251 . S
C90 Eu91 2.835 . S
C90 C92 1.500 . S
C90 O106 1.257 . S
C90 O107 1.260 . S
Eu91 C90 2.835 . S
Eu91 O103 2.355 . S
Eu91 O105 2.374 . S
Eu91 O106 2.473 . S
Eu91 O107 2.480 . S
Eu91 O108 2.430 . S
Eu91 O109 2.670 . S
Eu91 O110 2.394 . S
C92 C90 1.500 . S
C92 C93 1.377 . S
C92 C97 1.377 . S
C93 C92 1.377 . S
C93 C94 1.395 . S
C93 H116 0.931 . S
C94 C93 1.395 . S
C94 C95 1.383 . S
C94 H117 0.931 . S
C95 C94 1.383 . S
C95 C96 1.394 . S
C96 C95 1.394 . S
C96 C97 1.378 . S
C96 H118 0.931 . S
C97 C92 1.377 . S
C97 C96 1.378 . S
C97 H119 0.931 . S
C98 O108 1.259 . S
C98 O109 1.270 . S
C99 O110 1.251 . S
C99 O111 1.251 . S
O100 C80 1.257 . S
O100 Eu81 2.473 . S
O101 C80 1.260 . S
O101 Eu81 2.480 . S
O102 Eu81 2.430 . S
O102 C88 1.259 . S
O103 Eu81 2.670 . S
O103 C88 1.270 . S
O103 Eu91 2.355 . S
O104 Eu81 2.394 . S
O104 C89 1.251 . S
O105 C89 1.251 . S
O105 Eu91 2.374 . S
O106 C90 1.257 . S
O106 Eu91 2.473 . S
O107 C90 1.260 . S
O107 Eu91 2.480 . S
O108 Eu91 2.430 . S
O108 C98 1.259 . S
O109 Eu81 2.355 . S
O109 Eu91 2.670 . S
O109 C98 1.270 . S
O110 Eu91 2.394 . S
O110 C99 1.251 . S
O111 Eu81 2.374 . S
O111 C99 1.251 . S
H112 C83 0.931 . S
H113 C84 0.931 . S
H114 C86 0.931 . S
H115 C87 0.931 . S
H116 C93 0.931 . S
H117 C94 0.931 . S
H118 C96 0.931 . S
H119 C97 0.931 . S
H120 C123 0.929 . S
H121 C126 0.929 . S
H122 C128 0.930 . S
C123 H120 0.929 . S
C123 C124 1.398 . S
C123 C125 1.396 . S
C124 C123 1.398 . S
C124 C128 1.407 . S
C125 C123 1.396 . S
C125 C126 1.394 . S
C126 H121 0.929 . S
C126 C125 1.394 . S
C126 C127 1.382 . S
C127 C126 1.382 . S
C127 C128 1.392 . S
C127 N129 1.420 . S
C128 H122 0.930 . S
C128 C124 1.407 . S
C128 C127 1.392 . S
N129 C127 1.420 . S
N129 C130 1.244 . S
C130 N129 1.244 . S
H131 C134 0.929 . S
H132 C137 0.929 . S
H133 C139 0.930 . S
C134 H131 0.929 . S
C134 C135 1.398 . S
C134 C136 1.396 . S
C135 C134 1.398 . S
C135 C139 1.407 . S
C136 C134 1.396 . S
C136 C137 1.394 . S
C137 H132 0.929 . S
C137 C136 1.394 . S
C137 C138 1.382 . S
C138 C137 1.382 . S
C138 C139 1.392 . S
C138 N140 1.420 . S
C139 H133 0.930 . S
C139 C135 1.407 . S
C139 C138 1.392 . S
N140 C138 1.420 . S
N140 C141 1.244 . S
C141 N140 1.244 . S
H142 C145 0.929 . S
H143 C148 0.929 . S
H144 C150 0.930 . S
C145 H142 0.929 . S
C145 C146 1.398 . S
C145 C147 1.396 1_655 S
C146 C145 1.398 . S
C146 C150 1.407 . S
C147 C145 1.396 1_455 S
C147 C148 1.394 . S
C148 H143 0.929 . S
C148 C147 1.394 . S
C148 C149 1.382 . S
C149 C148 1.382 . S
C149 C150 1.392 1_455 S
C149 N151 1.420 . S
C150 H144 0.930 . S
C150 C146 1.407 . S
C150 C149 1.392 1_655 S
N151 C149 1.420 . S
N151 C152 1.244 . S
C152 N151 1.244 . S
H153 C156 0.929 . S
H154 C159 0.929 1_655 S
H155 C161 0.930 . S
C156 H153 0.929 . S
C156 C157 1.398 . S
C156 C158 1.396 . S
C157 C156 1.398 . S
C157 C161 1.407 . S
C158 C156 1.396 . S
C158 C159 1.394 . S
C159 H154 0.929 1_455 S
C159 C158 1.394 . S
C159 C160 1.382 . S
C160 C159 1.382 . S
C160 C161 1.392 . S
C160 N162 1.420 1_455 S
C161 H155 0.930 . S
C161 C157 1.407 . S
C161 C160 1.392 . S
N162 C160 1.420 1_655 S
N162 C163 1.244 . S
C163 N162 1.244 . S
H164 C167 0.929 . S
H165 C170 0.929 1_565 S
H166 C172 0.930 . S
C167 H164 0.929 . S
C167 C168 1.398 . S
C167 C169 1.396 . S
C168 C167 1.398 . S
C168 C172 1.407 . S
C169 C167 1.396 . S
C169 C170 1.394 . S
C170 H165 0.929 1_545 S
C170 C169 1.394 . S
C170 C171 1.382 . S
C171 C170 1.382 . S
C171 C172 1.392 . S
C171 N173 1.420 1_545 S
C172 H166 0.930 . S
C172 C168 1.407 . S
C172 C171 1.392 . S
N173 C171 1.420 1_565 S
N173 C174 1.244 . S
C174 N173 1.244 . S
H175 C178 0.929 . S
H176 C181 0.929 . S
H177 C183 0.930 . S
C178 H175 0.929 . S
C178 C179 1.398 . S
C178 C180 1.396 . S
C179 C178 1.398 . S
C179 C183 1.407 . S
C180 C178 1.396 . S
C180 C181 1.394 . S
C181 H176 0.929 . S
C181 C180 1.394 . S
C181 C182 1.382 . S
C182 C181 1.382 . S
C182 C183 1.392 . S
C182 N184 1.420 . S
C183 H177 0.930 . S
C183 C179 1.407 . S
C183 C182 1.392 . S
N184 C182 1.420 . S
N184 C185 1.244 . S
C185 N184 1.244 . S
H186 C198 0.930 . S
H187 C200 0.930 . S
H188 C201 0.930 . S
H189 C205 0.959 . S
H190 C205 0.959 . S
H191 C205 0.961 . S
H192 C206 0.960 . S
H193 C206 0.961 . S
H194 C206 0.959 . S
H195 C209 0.929 . S
H196 C210 0.931 . S
H197 C212 0.930 . S
C198 H186 0.930 . S
C198 C199 1.399 . S
C198 C203 1.399 . S
C199 C198 1.399 . S
C199 C200 1.376 . S
C200 H187 0.930 . S
C200 C199 1.376 . S
C200 C201 1.388 . S
C201 H188 0.930 . S
C201 C200 1.388 . S
C201 C202 1.390 . S
C202 C201 1.390 . S
C202 C203 1.394 . S
C202 C208 1.465 . S
C203 C198 1.399 . S
C203 C202 1.394 . S
C203 C204 1.516 . S
C204 C203 1.516 . S
C204 C205 1.502 . S
C204 C206 1.561 . S
C204 C207 1.526 . S
C205 H189 0.959 . S
C205 H190 0.959 . S
C205 H191 0.961 . S
C205 C204 1.502 . S
C206 H192 0.960 . S
C206 H193 0.961 . S
C206 H194 0.959 . S
C206 C204 1.561 . S
C207 C204 1.526 . S
C207 C208 1.396 . S
C207 C212 1.390 . S
C208 C202 1.465 . S
C208 C207 1.396 . S
C208 C209 1.399 . S
C209 H195 0.929 . S
C209 C208 1.399 . S
C209 C210 1.385 . S
C210 H196 0.931 . S
C210 C209 1.385 . S
C210 C211 1.389 . S
C211 C210 1.389 . S
C211 C212 1.387 . S
C212 H197 0.930 . S
C212 C207 1.390 . S
C212 C211 1.387 . S
H213 C225 0.930 . S
H214 C227 0.930 . S
H215 C228 0.930 . S
H216 C232 0.959 . S
H217 C232 0.959 . S
H218 C232 0.961 . S
H219 C233 0.960 . S
H220 C233 0.961 . S
H221 C233 0.959 . S
H222 C236 0.929 . S
H223 C237 0.931 . S
H224 C239 0.930 . S
C225 H213 0.930 . S
C225 C226 1.399 . S
C225 C230 1.399 . S
C226 C225 1.399 . S
C226 C227 1.376 . S
C227 H214 0.930 . S
C227 C226 1.376 . S
C227 C228 1.388 . S
C228 H215 0.930 . S
C228 C227 1.388 . S
C228 C229 1.390 . S
C229 C228 1.390 . S
C229 C230 1.394 . S
C229 C235 1.465 . S
C230 C225 1.399 . S
C230 C229 1.394 . S
C230 C231 1.516 . S
C231 C230 1.516 . S
C231 C232 1.502 . S
C231 C233 1.561 . S
C231 C234 1.526 . S
C232 H216 0.959 . S
C232 H217 0.959 . S
C232 H218 0.961 . S
C232 C231 1.502 . S
C233 H219 0.960 . S
C233 H220 0.961 . S
C233 H221 0.959 . S
C233 C231 1.561 . S
C234 C231 1.526 . S
C234 C235 1.396 . S
C234 C239 1.390 . S
C235 C229 1.465 . S
C235 C234 1.396 . S
C235 C236 1.399 . S
C236 H222 0.929 . S
C236 C235 1.399 . S
C236 C237 1.385 . S
C237 H223 0.931 . S
C237 C236 1.385 . S
C237 C238 1.389 . S
C238 C237 1.389 . S
C238 C239 1.387 . S
C239 H224 0.930 . S
C239 C234 1.390 . S
C239 C238 1.387 . S
H240 C252 0.930 . S
H241 C254 0.930 . S
H242 C255 0.930 . S
H243 C259 0.959 . S
H244 C259 0.959 . S
H245 C259 0.961 . S
H246 C260 0.960 . S
H247 C260 0.961 . S
H248 C260 0.959 . S
H249 C263 0.929 . S
H250 C264 0.931 . S
H251 C266 0.930 . S
C252 H240 0.930 . S
C252 C253 1.399 . S
C252 C257 1.399 . S
C253 C252 1.399 . S
C253 C254 1.376 . S
C254 H241 0.930 . S
C254 C253 1.376 . S
C254 C255 1.388 . S
C255 H242 0.930 . S
C255 C254 1.388 . S
C255 C256 1.390 . S
C256 C255 1.390 . S
C256 C257 1.394 . S
C256 C262 1.465 . S
C257 C252 1.399 . S
C257 C256 1.394 . S
C257 C258 1.516 . S
C258 C257 1.516 . S
C258 C259 1.502 . S
C258 C260 1.561 . S
C258 C261 1.526 . S
C259 H243 0.959 . S
C259 H244 0.959 . S
C259 H245 0.961 . S
C259 C258 1.502 . S
C260 H246 0.960 . S
C260 H247 0.961 . S
C260 H248 0.959 . S
C260 C258 1.561 . S
C261 C258 1.526 . S
C261 C262 1.396 . S
C261 C266 1.390 . S
C262 C256 1.465 . S
C262 C261 1.396 . S
C262 C263 1.399 . S
C263 H249 0.929 . S
C263 C262 1.399 . S
C263 C264 1.385 . S
C264 H250 0.931 . S
C264 C263 1.385 . S
C264 C265 1.389 . S
C265 C264 1.389 . S
C265 C266 1.387 . S
C266 H251 0.930 . S
C266 C261 1.390 . S
C266 C265 1.387 . S
H267 C279 0.930 . S
H268 C281 0.930 . S
H269 C282 0.930 . S
H270 C286 0.959 . S
H271 C286 0.959 . S
H272 C286 0.961 . S
H273 C287 0.960 . S
H274 C287 0.961 . S
H275 C287 0.959 . S
H276 C290 0.929 . S
H277 C291 0.931 . S
H278 C293 0.930 . S
C279 H267 0.930 . S
C279 C280 1.399 . S
C279 C284 1.399 . S
C280 C279 1.399 . S
C280 C281 1.376 . S
C281 H268 0.930 . S
C281 C280 1.376 . S
C281 C282 1.388 . S
C282 H269 0.930 . S
C282 C281 1.388 . S
C282 C283 1.390 . S
C283 C282 1.390 . S
C283 C284 1.394 . S
C283 C289 1.465 . S
C284 C279 1.399 . S
C284 C283 1.394 . S
C284 C285 1.516 . S
C285 C284 1.516 . S
C285 C286 1.502 . S
C285 C287 1.561 . S
C285 C288 1.526 . S
C286 H270 0.959 . S
C286 H271 0.959 . S
C286 H272 0.961 . S
C286 C285 1.502 . S
C287 H273 0.960 . S
C287 H274 0.961 . S
C287 H275 0.959 . S
C287 C285 1.561 . S
C288 C285 1.526 . S
C288 C289 1.396 . S
C288 C293 1.390 . S
C289 C283 1.465 . S
C289 C288 1.396 . S
C289 C290 1.399 . S
C290 H276 0.929 . S
C290 C289 1.399 . S
C290 C291 1.385 . S
C291 H277 0.931 . S
C291 C290 1.385 . S
C291 C292 1.389 . S
C292 C291 1.389 . S
C292 C293 1.387 . S
C293 H278 0.930 . S
C293 C288 1.390 . S
C293 C292 1.387 . S
H294 C306 0.930 . S
H295 C308 0.930 . S
H296 C309 0.930 . S
H297 C313 0.959 . S
H298 C313 0.959 . S
H299 C313 0.961 . S
H300 C314 0.960 . S
H301 C314 0.961 . S
H302 C314 0.959 . S
H303 C317 0.929 . S
H304 C318 0.931 . S
H305 C320 0.930 . S
C306 H294 0.930 . S
C306 C307 1.399 . S
C306 C311 1.399 . S
C307 C306 1.399 . S
C307 C308 1.376 . S
C308 H295 0.930 . S
C308 C307 1.376 . S
C308 C309 1.388 . S
C309 H296 0.930 . S
C309 C308 1.388 . S
C309 C310 1.390 . S
C310 C309 1.390 . S
C310 C311 1.394 . S
C310 C316 1.465 . S
C311 C306 1.399 . S
C311 C310 1.394 . S
C311 C312 1.516 . S
C312 C311 1.516 . S
C312 C313 1.502 . S
C312 C314 1.561 . S
C312 C315 1.526 . S
C313 H297 0.959 . S
C313 H298 0.959 . S
C313 H299 0.961 . S
C313 C312 1.502 . S
C314 H300 0.960 . S
C314 H301 0.961 . S
C314 H302 0.959 . S
C314 C312 1.561 . S
C315 C312 1.526 . S
C315 C316 1.396 . S
C315 C320 1.390 . S
C316 C310 1.465 . S
C316 C315 1.396 . S
C316 C317 1.399 . S
C317 H303 0.929 . S
C317 C316 1.399 . S
C317 C318 1.385 . S
C318 H304 0.931 . S
C318 C317 1.385 . S
C318 C319 1.389 . S
C319 C318 1.389 . S
C319 C320 1.387 . S
C320 H305 0.930 . S
C320 C315 1.390 . S
C320 C319 1.387 . S
H321 C333 0.930 . S
H322 C335 0.930 . S
H323 C336 0.930 . S
H324 C340 0.959 . S
H325 C340 0.959 . S
H326 C340 0.961 . S
H327 C341 0.960 . S
H328 C341 0.961 . S
H329 C341 0.959 . S
H330 C344 0.929 . S
H331 C345 0.931 . S
H332 C347 0.930 . S
C333 H321 0.930 . S
C333 C334 1.399 . S
C333 C338 1.399 . S
C334 C333 1.399 . S
C334 C335 1.376 . S
C335 H322 0.930 . S
C335 C334 1.376 . S
C335 C336 1.388 . S
C336 H323 0.930 . S
C336 C335 1.388 . S
C336 C337 1.390 . S
C337 C336 1.390 . S
C337 C338 1.394 . S
C337 C343 1.465 . S
C338 C333 1.399 . S
C338 C337 1.394 . S
C338 C339 1.516 . S
C339 C338 1.516 . S
C339 C340 1.502 . S
C339 C341 1.561 . S
C339 C342 1.526 . S
C340 H324 0.959 . S
C340 H325 0.959 . S
C340 H326 0.961 . S
C340 C339 1.502 . S
C341 H327 0.960 . S
C341 H328 0.961 . S
C341 H329 0.959 . S
C341 C339 1.561 . S
C342 C339 1.526 . S
C342 C343 1.396 . S
C342 C347 1.390 . S
C343 C337 1.465 . S
C343 C342 1.396 . S
C343 C344 1.399 . S
C344 H330 0.929 . S
C344 C343 1.399 . S
C344 C345 1.385 . S
C345 H331 0.931 . S
C345 C344 1.385 . S
C345 C346 1.389 . S
C346 C345 1.389 . S
C346 C347 1.387 . S
C347 H332 0.930 . S
C347 C342 1.390 . S
C347 C346 1.387 . S
H348 C360 0.930 . S
H349 C362 0.930 . S
H350 C363 0.930 . S
H351 C367 0.959 . S
H352 C367 0.959 . S
H353 C367 0.961 . S
H354 C368 0.960 . S
H355 C368 0.961 . S
H356 C368 0.959 . S
H357 C371 0.929 . S
H358 C372 0.931 . S
H359 C374 0.930 . S
C360 H348 0.930 . S
C360 C361 1.399 . S
C360 C365 1.399 . S
C361 C360 1.399 . S
C361 C362 1.376 . S
C362 H349 0.930 . S
C362 C361 1.376 . S
C362 C363 1.388 . S
C363 H350 0.930 . S
C363 C362 1.388 . S
C363 C364 1.390 . S
C364 C363 1.390 . S
C364 C365 1.394 . S
C364 C370 1.465 . S
C365 C360 1.399 . S
C365 C364 1.394 . S
C365 C366 1.516 . S
C366 C365 1.516 . S
C366 C367 1.502 . S
C366 C368 1.561 . S
C366 C369 1.526 . S
C367 H351 0.959 . S
C367 H352 0.959 . S
C367 H353 0.961 . S
C367 C366 1.502 . S
C368 H354 0.960 . S
C368 H355 0.961 . S
C368 H356 0.959 . S
C368 C366 1.561 . S
C369 C366 1.526 . S
C369 C370 1.396 . S
C369 C374 1.390 . S
C370 C364 1.465 . S
C370 C369 1.396 . S
C370 C371 1.399 . S
C371 H357 0.929 . S
C371 C370 1.399 . S
C371 C372 1.385 . S
C372 H358 0.931 . S
C372 C371 1.385 . S
C372 C373 1.389 . S
C373 C372 1.389 . S
C373 C374 1.387 . S
C374 H359 0.930 . S
C374 C369 1.390 . S
C374 C373 1.387 . S
H375 C387 0.930 . S
H376 C389 0.930 . S
H377 C390 0.930 . S
H378 C394 0.959 . S
H379 C394 0.959 . S
H380 C394 0.961 . S
H381 C395 0.960 . S
H382 C395 0.961 . S
H383 C395 0.959 . S
H384 C398 0.929 . S
H385 C399 0.931 . S
H386 C401 0.930 . S
C387 H375 0.930 . S
C387 C388 1.399 . S
C387 C392 1.399 . S
C388 C387 1.399 . S
C388 C389 1.376 . S
C389 H376 0.930 . S
C389 C388 1.376 . S
C389 C390 1.388 . S
C390 H377 0.930 . S
C390 C389 1.388 . S
C390 C391 1.390 . S
C391 C390 1.390 . S
C391 C392 1.394 . S
C391 C397 1.465 . S
C392 C387 1.399 . S
C392 C391 1.394 . S
C392 C393 1.516 . S
C393 C392 1.516 . S
C393 C394 1.502 . S
C393 C395 1.561 . S
C393 C396 1.526 . S
C394 H378 0.959 . S
C394 H379 0.959 . S
C394 H380 0.961 . S
C394 C393 1.502 . S
C395 H381 0.960 . S
C395 H382 0.961 . S
C395 H383 0.959 . S
C395 C393 1.561 . S
C396 C393 1.526 . S
C396 C397 1.396 . S
C396 C401 1.390 . S
C397 C391 1.465 . S
C397 C396 1.396 . S
C397 C398 1.399 . S
C398 H384 0.929 . S
C398 C397 1.399 . S
C398 C399 1.385 . S
C399 H385 0.931 . S
C399 C398 1.385 . S
C399 C400 1.389 . S
C400 C399 1.389 . S
C400 C401 1.387 . S
C401 H386 0.930 . S
C401 C396 1.390 . S
C401 C400 1.387 . S
H402 C414 0.930 . S
H403 C416 0.930 . S
H404 C417 0.930 . S
H405 C421 0.959 . S
H406 C421 0.959 . S
H407 C421 0.961 . S
H408 C422 0.960 . S
H409 C422 0.961 . S
H410 C422 0.959 . S
H411 C425 0.929 . S
H412 C426 0.931 . S
H413 C428 0.930 1_545 S
C414 H402 0.930 . S
C414 C415 1.399 . S
C414 C419 1.399 . S
C415 C414 1.399 . S
C415 C416 1.376 . S
C416 H403 0.930 . S
C416 C415 1.376 . S
C416 C417 1.388 . S
C417 H404 0.930 . S
C417 C416 1.388 . S
C417 C418 1.390 . S
C418 C417 1.390 . S
C418 C419 1.394 . S
C418 C424 1.465 . S
C419 C414 1.399 . S
C419 C418 1.394 . S
C419 C420 1.516 . S
C420 C419 1.516 . S
C420 C421 1.502 . S
C420 C422 1.561 . S
C420 C423 1.526 . S
C421 H405 0.959 . S
C421 H406 0.959 . S
C421 H407 0.961 . S
C421 C420 1.502 . S
C422 H408 0.960 . S
C422 H409 0.961 . S
C422 H410 0.959 . S
C422 C420 1.561 . S
C423 C420 1.526 . S
C423 C424 1.396 . S
C423 C428 1.390 . S
C424 C418 1.465 . S
C424 C423 1.396 . S
C424 C425 1.399 . S
C425 H411 0.929 . S
C425 C424 1.399 . S
C425 C426 1.385 1_565 S
C426 H412 0.931 . S
C426 C425 1.385 1_545 S
C426 C427 1.389 . S
C427 C426 1.389 . S
C427 C428 1.387 1_545 S
C428 H413 0.930 1_565 S
C428 C423 1.390 . S
C428 C427 1.387 1_565 S
H429 C441 0.930 . S
H430 C443 0.930 . S
H431 C444 0.930 . S
H432 C448 0.959 . S
H433 C448 0.959 . S
H434 C448 0.961 . S
H435 C449 0.960 . S
H436 C449 0.961 . S
H437 C449 0.959 . S
H438 C452 0.929 . S
H439 C453 0.931 . S
H440 C455 0.930 . S
C441 H429 0.930 . S
C441 C442 1.399 . S
C441 C446 1.399 . S
C442 C441 1.399 . S
C442 C443 1.376 . S
C443 H430 0.930 . S
C443 C442 1.376 . S
C443 C444 1.388 . S
C444 H431 0.930 . S
C444 C443 1.388 . S
C444 C445 1.390 . S
C445 C444 1.390 . S
C445 C446 1.394 . S
C445 C451 1.465 . S
C446 C441 1.399 . S
C446 C445 1.394 . S
C446 C447 1.516 . S
C447 C446 1.516 . S
C447 C448 1.502 . S
C447 C449 1.561 . S
C447 C450 1.526 . S
C448 H432 0.959 . S
C448 H433 0.959 . S
C448 H434 0.961 . S
C448 C447 1.502 . S
C449 H435 0.960 . S
C449 H436 0.961 . S
C449 H437 0.959 . S
C449 C447 1.561 . S
C450 C447 1.526 . S
C450 C451 1.396 . S
C450 C455 1.390 . S
C451 C445 1.465 . S
C451 C450 1.396 . S
C451 C452 1.399 . S
C452 H438 0.929 . S
C452 C451 1.399 . S
C452 C453 1.385 . S
C453 H439 0.931 . S
C453 C452 1.385 . S
C453 C454 1.389 . S
C454 C453 1.389 . S
C454 C455 1.387 . S
C455 H440 0.930 . S
C455 C450 1.390 . S
C455 C454 1.387 . S
H456 C468 0.930 . S
H457 C470 0.930 . S
H458 C471 0.930 . S
H459 C475 0.959 . S
H460 C475 0.959 . S
H461 C475 0.961 . S
H462 C476 0.960 . S
H463 C476 0.961 . S
H464 C476 0.959 . S
H465 C479 0.929 . S
H466 C480 0.931 . S
H467 C482 0.930 . S
C468 H456 0.930 . S
C468 C469 1.399 . S
C468 C473 1.399 . S
C469 C468 1.399 . S
C469 C470 1.376 . S
C470 H457 0.930 . S
C470 C469 1.376 . S
C470 C471 1.388 . S
C471 H458 0.930 . S
C471 C470 1.388 . S
C471 C472 1.390 . S
C472 C471 1.390 . S
C472 C473 1.394 . S
C472 C478 1.465 . S
C473 C468 1.399 . S
C473 C472 1.394 . S
C473 C474 1.516 . S
C474 C473 1.516 . S
C474 C475 1.502 . S
C474 C476 1.561 . S
C474 C477 1.526 . S
C475 H459 0.959 . S
C475 H460 0.959 . S
C475 H461 0.961 . S
C475 C474 1.502 . S
C476 H462 0.960 . S
C476 H463 0.961 . S
C476 H464 0.959 . S
C476 C474 1.561 . S
C477 C474 1.526 . S
C477 C478 1.396 . S
C477 C482 1.390 . S
C478 C472 1.465 . S
C478 C477 1.396 . S
C478 C479 1.399 . S
C479 H465 0.929 . S
C479 C478 1.399 . S
C479 C480 1.385 . S
C480 H466 0.931 . S
C480 C479 1.385 . S
C480 C481 1.389 . S
C481 C480 1.389 . S
C481 C482 1.387 . S
C482 H467 0.930 . S
C482 C477 1.390 . S
C482 C481 1.387 . S
H483 C495 0.930 . S
H484 C497 0.930 . S
H485 C498 0.930 . S
H486 C502 0.959 . S
H487 C502 0.959 . S
H488 C502 0.961 . S
H489 C503 0.960 . S
H490 C503 0.961 . S
H491 C503 0.959 . S
H492 C506 0.929 . S
H493 C507 0.931 . S
H494 C509 0.930 . S
C495 H483 0.930 . S
C495 C496 1.399 . S
C495 C500 1.399 . S
C496 C495 1.399 . S
C496 C497 1.376 . S
C497 H484 0.930 . S
C497 C496 1.376 . S
C497 C498 1.388 . S
C498 H485 0.930 . S
C498 C497 1.388 . S
C498 C499 1.390 . S
C499 C498 1.390 . S
C499 C500 1.394 . S
C499 C505 1.465 . S
C500 C495 1.399 . S
C500 C499 1.394 . S
C500 C501 1.516 . S
C501 C500 1.516 . S
C501 C502 1.502 . S
C501 C503 1.561 . S
C501 C504 1.526 . S
C502 H486 0.959 . S
C502 H487 0.959 . S
C502 H488 0.961 . S
C502 C501 1.502 . S
C503 H489 0.960 . S
C503 H490 0.961 . S
C503 H491 0.959 . S
C503 C501 1.561 . S
C504 C501 1.526 . S
C504 C505 1.396 . S
C504 C509 1.390 . S
C505 C499 1.465 . S
C505 C504 1.396 . S
C505 C506 1.399 . S
C506 H492 0.929 . S
C506 C505 1.399 . S
C506 C507 1.385 . S
C507 H493 0.931 . S
C507 C506 1.385 . S
C507 C508 1.389 . S
C508 C507 1.389 . S
C508 C509 1.387 . S
C509 H494 0.930 . S
C509 C504 1.390 . S
C509 C508 1.387 . S
H510 C522 0.930 . S
H511 C524 0.930 . S
H512 C525 0.930 . S
H513 C529 0.959 . S
H514 C529 0.959 1_556 S
H515 C529 0.961 . S
H516 C530 0.960 . S
H517 C530 0.961 1_556 S
H518 C530 0.959 . S
H519 C533 0.929 1_554 S
H520 C534 0.931 . S
H521 C536 0.930 . S
C522 H510 0.930 . S
C522 C523 1.399 . S
C522 C527 1.399 . S
C523 C522 1.399 . S
C523 C524 1.376 . S
C524 H511 0.930 . S
C524 C523 1.376 . S
C524 C525 1.388 . S
C525 H512 0.930 . S
C525 C524 1.388 . S
C525 C526 1.390 . S
C526 C525 1.390 . S
C526 C527 1.394 . S
C526 C532 1.465 . S
C527 C522 1.399 . S
C527 C526 1.394 . S
C527 C528 1.516 . S
C528 C527 1.516 . S
C528 C529 1.502 1_455 S
C528 C530 1.561 . S
C528 C531 1.526 1_554 S
C529 H513 0.959 . S
C529 H514 0.959 1_554 S
C529 H515 0.961 . S
C529 C528 1.502 1_655 S
C530 H516 0.960 . S
C530 H517 0.961 1_554 S
C530 H518 0.959 . S
C530 C528 1.561 . S
C531 C528 1.526 1_556 S
C531 C532 1.396 1_556 S
C531 C536 1.390 . S
C532 C526 1.465 . S
C532 C531 1.396 1_554 S
C532 C533 1.399 1_554 S
C533 H519 0.929 1_556 S
C533 C532 1.399 1_556 S
C533 C534 1.385 . S
C534 H520 0.931 . S
C534 C533 1.385 . S
C534 C535 1.389 . S
C535 C534 1.389 . S
C535 C536 1.387 . S
C536 H521 0.930 . S
C536 C531 1.390 . S
C536 C535 1.387 . S
H537 C549 0.930 1_565 S
H538 C551 0.930 . S
H539 C552 0.930 . S
H540 C556 0.959 1_545 S
H541 C556 0.959 . S
H542 C556 0.961 . S
H543 C557 0.960 . S
H544 C557 0.961 . S
H545 C557 0.959 . S
H546 C560 0.929 . S
H547 C561 0.931 . S
H548 C563 0.930 . S
C549 H537 0.930 1_545 S
C549 C550 1.399 . S
C549 C554 1.399 . S
C550 C549 1.399 . S
C550 C551 1.376 . S
C551 H538 0.930 . S
C551 C550 1.376 . S
C551 C552 1.388 . S
C552 H539 0.930 . S
C552 C551 1.388 . S
C552 C553 1.390 . S
C553 C552 1.390 . S
C553 C554 1.394 . S
C553 C559 1.465 . S
C554 C549 1.399 . S
C554 C553 1.394 . S
C554 C555 1.516 . S
C555 C554 1.516 . S
C555 C556 1.502 1_545 S
C555 C557 1.561 1_545 S
C555 C558 1.526 . S
C556 H540 0.959 1_565 S
C556 H541 0.959 . S
C556 H542 0.961 . S
C556 C555 1.502 1_565 S
C557 H543 0.960 . S
C557 H544 0.961 . S
C557 H545 0.959 . S
C557 C555 1.561 1_565 S
C558 C555 1.526 . S
C558 C559 1.396 . S
C558 C563 1.390 . S
C559 C553 1.465 . S
C559 C558 1.396 . S
C559 C560 1.399 . S
C560 H546 0.929 . S
C560 C559 1.399 . S
C560 C561 1.385 . S
C561 H547 0.931 . S
C561 C560 1.385 . S
C561 C562 1.389 . S
C562 C561 1.389 . S
C562 C563 1.387 . S
C563 H548 0.930 . S
C563 C558 1.390 . S
C563 C562 1.387 . S
H564 C576 0.930 . S
H565 C578 0.930 . S
H566 C579 0.930 . S
H567 C583 0.959 . S
H568 C583 0.959 . S
H569 C583 0.961 . S
H570 C584 0.960 . S
H571 C584 0.961 . S
H572 C584 0.959 . S
H573 C587 0.929 . S
H574 C588 0.931 . S
H575 C590 0.930 . S
C576 H564 0.930 . S
C576 C577 1.399 . S
C576 C581 1.399 . S
C577 C576 1.399 . S
C577 C578 1.376 . S
C578 H565 0.930 . S
C578 C577 1.376 . S
C578 C579 1.388 . S
C579 H566 0.930 . S
C579 C578 1.388 . S
C579 C580 1.390 . S
C580 C579 1.390 . S
C580 C581 1.394 . S
C580 C586 1.465 . S
C581 C576 1.399 . S
C581 C580 1.394 . S
C581 C582 1.516 . S
C582 C581 1.516 . S
C582 C583 1.502 . S
C582 C584 1.561 . S
C582 C585 1.526 . S
C583 H567 0.959 . S
C583 H568 0.959 . S
C583 H569 0.961 . S
C583 C582 1.502 . S
C584 H570 0.960 . S
C584 H571 0.961 . S
C584 H572 0.959 . S
C584 C582 1.561 . S
C585 C582 1.526 . S
C585 C586 1.396 . S
C585 C590 1.390 . S
C586 C580 1.465 . S
C586 C585 1.396 . S
C586 C587 1.399 . S
C587 H573 0.929 . S
C587 C586 1.399 . S
C587 C588 1.385 . S
C588 H574 0.931 . S
C588 C587 1.385 . S
C588 C589 1.389 . S
C589 C588 1.389 . S
C589 C590 1.387 . S
C590 H575 0.930 . S
C590 C585 1.390 . S
C590 C589 1.387 . S
H591 C603 0.930 . S
H592 C605 0.930 1_565 S
H593 C606 0.930 . S
H594 C610 0.959 . S
H595 C610 0.959 . S
H596 C610 0.961 . S
H597 C611 0.960 . S
H598 C611 0.961 . S
H599 C611 0.959 . S
H600 C614 0.929 . S
H601 C615 0.931 . S
H602 C617 0.930 . S
C603 H591 0.930 . S
C603 C604 1.399 . S
C603 C608 1.399 . S
C604 C603 1.399 . S
C604 C605 1.376 . S
C605 H592 0.930 1_545 S
C605 C604 1.376 . S
C605 C606 1.388 1_545 S
C606 H593 0.930 . S
C606 C605 1.388 1_565 S
C606 C607 1.390 1_565 S
C607 C606 1.390 1_545 S
C607 C608 1.394 . S
C607 C613 1.465 . S
C608 C603 1.399 . S
C608 C607 1.394 . S
C608 C609 1.516 . S
C609 C608 1.516 . S
C609 C610 1.502 . S
C609 C611 1.561 . S
C609 C612 1.526 . S
C610 H594 0.959 . S
C610 H595 0.959 . S
C610 H596 0.961 . S
C610 C609 1.502 . S
C611 H597 0.960 . S
C611 H598 0.961 . S
C611 H599 0.959 . S
C611 C609 1.561 . S
C612 C609 1.526 . S
C612 C613 1.396 . S
C612 C617 1.390 . S
C613 C607 1.465 . S
C613 C612 1.396 . S
C613 C614 1.399 1_545 S
C614 H600 0.929 . S
C614 C613 1.399 1_565 S
C614 C615 1.385 . S
C615 H601 0.931 . S
C615 C614 1.385 . S
C615 C616 1.389 1_565 S
C616 C615 1.389 1_545 S
C616 C617 1.387 . S
C617 H602 0.930 . S
C617 C612 1.390 . S
C617 C616 1.387 . S
H618 C630 0.930 . S
H619 C632 0.930 . S
H620 C633 0.930 . S
H621 C637 0.959 . S
H622 C637 0.959 . S
H623 C637 0.961 . S
H624 C638 0.960 . S
H625 C638 0.961 1_554 S
H626 C638 0.959 . S
H627 C641 0.929 . S
H628 C642 0.931 . S
H629 C644 0.930 . S
C630 H618 0.930 . S
C630 C631 1.399 . S
C630 C635 1.399 . S
C631 C630 1.399 . S
C631 C632 1.376 . S
C632 H619 0.930 . S
C632 C631 1.376 . S
C632 C633 1.388 . S
C633 H620 0.930 . S
C633 C632 1.388 . S
C633 C634 1.390 . S
C634 C633 1.390 . S
C634 C635 1.394 . S
C634 C640 1.465 1_556 S
C635 C630 1.399 . S
C635 C634 1.394 . S
C635 C636 1.516 . S
C636 C635 1.516 . S
C636 C637 1.502 . S
C636 C638 1.561 . S
C636 C639 1.526 1_556 S
C637 H621 0.959 . S
C637 H622 0.959 . S
C637 H623 0.961 . S
C637 C636 1.502 . S
C638 H624 0.960 . S
C638 H625 0.961 1_556 S
C638 H626 0.959 . S
C638 C636 1.561 . S
C639 C636 1.526 1_554 S
C639 C640 1.396 . S
C639 C644 1.390 . S
C640 C634 1.465 1_554 S
C640 C639 1.396 . S
C640 C641 1.399 . S
C641 H627 0.929 . S
C641 C640 1.399 . S
C641 C642 1.385 . S
C642 H628 0.931 . S
C642 C641 1.385 . S
C642 C643 1.389 . S
C643 C642 1.389 . S
C643 C644 1.387 . S
C644 H629 0.930 . S
C644 C639 1.390 . S
C644 C643 1.387 . S
H645 C657 0.930 . S
H646 C659 0.930 . S
H647 C660 0.930 . S
H648 C664 0.959 . S
H649 C664 0.959 . S
H650 C664 0.961 . S
H651 C665 0.960 . S
H652 C665 0.961 . S
H653 C665 0.959 . S
H654 C668 0.929 . S
H655 C669 0.931 . S
H656 C671 0.930 . S
C657 H645 0.930 . S
C657 C658 1.399 . S
C657 C662 1.399 . S
C658 C657 1.399 . S
C658 C659 1.376 1_455 S
C659 H646 0.930 . S
C659 C658 1.376 1_655 S
C659 C660 1.388 . S
C660 H647 0.930 . S
C660 C659 1.388 . S
C660 C661 1.390 1_655 S
C661 C660 1.390 1_455 S
C661 C662 1.394 . S
C661 C667 1.465 . S
C662 C657 1.399 . S
C662 C661 1.394 . S
C662 C663 1.516 . S
C663 C662 1.516 . S
C663 C664 1.502 . S
C663 C665 1.561 . S
C663 C666 1.526 . S
C664 H648 0.959 . S
C664 H649 0.959 . S
C664 H650 0.961 . S
C664 C663 1.502 . S
C665 H651 0.960 . S
C665 H652 0.961 . S
C665 H653 0.959 . S
C665 C663 1.561 . S
C666 C663 1.526 . S
C666 C667 1.396 . S
C666 C671 1.390 . S
C667 C661 1.465 . S
C667 C666 1.396 . S
C667 C668 1.399 1_455 S
C668 H654 0.929 . S
C668 C667 1.399 1_655 S
C668 C669 1.385 . S
C669 H655 0.931 . S
C669 C668 1.385 . S
C669 C670 1.389 1_655 S
C670 C669 1.389 1_455 S
C670 C671 1.387 . S
C671 H656 0.930 . S
C671 C666 1.390 . S
C671 C670 1.387 . S
C199 C19 3.040 . S
C211 C185 3.005 . S
C226 C49 3.131 . S
C238 C163 3.053 . S
C253 C99 3.036 . S
C265 C174 2.992 . S
C280 C9 2.986 . S
C292 C179 2.932 . S
C319 C157 2.899 . S
C307 C59 2.922 . S
C346 C168 2.960 . S
C334 C89 2.987 . S
C361 C55 0.494 . S
C373 C141 0.624 . S
C388 C85 0.332 . S
C400 C146 0.302 . S
C415 C15 0.151 . S
C427 C124 0.207 . S
C454 C135 0.186 . S
C442 C45 0.445 . S
C481 C152 0.380 . S
C469 C95 0.405 . S
C496 C5 0.583 . S
C508 C130 0.418 . S
C535 C147 1.286 . S
C523 C18 1.269 . S
C550 C58 1.201 . S
C562 C125 1.213 . S
C577 C98 1.234 . S
C589 C136 1.218 . S
C616 C169 1.735 . S
C604 C48 1.664 . S
C643 C180 1.752 . S
C631 C88 1.652 . S
C658 C8 1.673 . S
C670 C158 1.813 . S
