# Generated by pormake.
# Topology pyr, (3,6)-cn, num edge types: 1
# Building blocks:
#     Node 0, Type 0, BuildingBlock: MIDCAF_clean_linker_0, # of connection points: 3
#     Node 1, Type 0, BuildingBlock: MIDCAF_clean_linker_0, # of connection points: 3
#     Node 2, Type 0, BuildingBlock: MIDCAF_clean_linker_0, # of connection points: 3
#     Node 3, Type 0, BuildingBlock: MIDCAF_clean_linker_0, # of connection points: 3
#     Node 4, Type 0, BuildingBlock: MIDCAF_clean_linker_0, # of connection points: 3
#     Node 5, Type 0, BuildingBlock: MIDCAF_clean_linker_0, # of connection points: 3
#     Node 6, Type 0, BuildingBlock: MIDCAF_clean_linker_0, # of connection points: 3
#     Node 7, Type 0, BuildingBlock: MIDCAF_clean_linker_0, # of connection points: 3
#     Node 8, Type 1, BuildingBlock: BETFAJ_clean_sbu_0, # of connection points: 6
#     Node 9, Type 1, BuildingBlock: BETFAJ_clean_sbu_0, # of connection points: 6
#     Node 10, Type 1, BuildingBlock: BETFAJ_clean_sbu_0, # of connection points: 6
#     Node 11, Type 1, BuildingBlock: BETFAJ_clean_sbu_0, # of connection points: 6
#     Edge 12, Type (0, 1), BuildingBlock: XIVTED_clean_linker_0, # of connection points: 2
#     Edge 13, Type (0, 1), BuildingBlock: XIVTED_clean_linker_0, # of connection points: 2
#     Edge 14, Type (0, 1), BuildingBlock: XIVTED_clean_linker_0, # of connection points: 2
#     Edge 15, Type (0, 1), BuildingBlock: XIVTED_clean_linker_0, # of connection points: 2
#     Edge 16, Type (0, 1), BuildingBlock: XIVTED_clean_linker_0, # of connection points: 2
#     Edge 17, Type (0, 1), BuildingBlock: XIVTED_clean_linker_0, # of connection points: 2
#     Edge 18, Type (0, 1), BuildingBlock: XIVTED_clean_linker_0, # of connection points: 2
#     Edge 19, Type (0, 1), BuildingBlock: XIVTED_clean_linker_0, # of connection points: 2
#     Edge 20, Type (0, 1), BuildingBlock: XIVTED_clean_linker_0, # of connection points: 2
#     Edge 21, Type (0, 1), BuildingBlock: XIVTED_clean_linker_0, # of connection points: 2
#     Edge 22, Type (0, 1), BuildingBlock: XIVTED_clean_linker_0, # of connection points: 2
#     Edge 23, Type (0, 1), BuildingBlock: XIVTED_clean_linker_0, # of connection points: 2
#     Edge 24, Type (0, 1), BuildingBlock: XIVTED_clean_linker_0, # of connection points: 2
#     Edge 25, Type (0, 1), BuildingBlock: XIVTED_clean_linker_0, # of connection points: 2
#     Edge 26, Type (0, 1), BuildingBlock: XIVTED_clean_linker_0, # of connection points: 2
#     Edge 27, Type (0, 1), BuildingBlock: XIVTED_clean_linker_0, # of connection points: 2
#     Edge 28, Type (0, 1), BuildingBlock: XIVTED_clean_linker_0, # of connection points: 2
#     Edge 29, Type (0, 1), BuildingBlock: XIVTED_clean_linker_0, # of connection points: 2
#     Edge 30, Type (0, 1), BuildingBlock: XIVTED_clean_linker_0, # of connection points: 2
#     Edge 31, Type (0, 1), BuildingBlock: XIVTED_clean_linker_0, # of connection points: 2
#     Edge 32, Type (0, 1), BuildingBlock: XIVTED_clean_linker_0, # of connection points: 2
#     Edge 33, Type (0, 1), BuildingBlock: XIVTED_clean_linker_0, # of connection points: 2
#     Edge 34, Type (0, 1), BuildingBlock: XIVTED_clean_linker_0, # of connection points: 2
#     Edge 35, Type (0, 1), BuildingBlock: XIVTED_clean_linker_0, # of connection points: 2
# Relax obj value: 0.096
# Max RMSD: 0.122
# Mean RMSD: 0.058
data_MOF--net-pyr--node1-BETFAJ_clean_sbu_0--node2-MIDCAF_clean_linker_0--edge1-XIVTED_clean_linker_0
_symmetry_space_group_name_H-M    P1
_symmetry_Int_Tables_number       1
_symmetry_cell_setting            triclinic
loop_
_symmetry_equiv_pos_as_xyz
'x, y, z'
_cell_length_a     48.095184
_cell_length_b     48.578009
_cell_length_c     42.971975
_cell_angle_alpha  89.708726
_cell_angle_beta   87.774969
_cell_angle_gamma 101.57101
loop_
_atom_site_label
_atom_site_type_symbol
_atom_site_fract_x
_atom_site_fract_y
_atom_site_fract_z
_atom_type_partial_charge
C0 C 0.25487 0.28729 0.33074 0.0
C1 C 0.26326 0.26747 0.3504 0.0
C2 C 0.29072 0.26185 0.34587 0.0
C3 C 0.3081 0.27347 0.32037 0.0
H4 H 0.35535 0.24021 0.25831 0.0
H5 H 0.38041 0.2051 0.23804 0.0
H6 H 0.39317 0.24807 0.14891 0.0
H7 H 0.36781 0.28361 0.16911 0.0
H8 H 0.30829 0.31529 0.15633 0.0
H9 H 0.27952 0.34027 0.12505 0.0
H10 H 0.26697 0.3916 0.20412 0.0
H11 H 0.29565 0.36693 0.23511 0.0
H12 H 0.26441 0.31299 0.28978 0.0
H13 H 0.23388 0.29211 0.33327 0.0
H14 H 0.29825 0.24735 0.36111 0.0
H15 H 0.32839 0.26734 0.31644 0.0
N16 N 0.33152 0.28199 0.25731 0.0
N17 N 0.33353 0.30368 0.2081 0.0
N18 N 0.30576 0.31716 0.24923 0.0
C19 C 0.3418 0.28466 0.22732 0.0
C20 C 0.31578 0.3203 0.21918 0.0
C21 C 0.31352 0.29811 0.26847 0.0
C22 C 0.35929 0.26476 0.21528 0.0
C23 C 0.36357 0.24248 0.23441 0.0
C24 C 0.37784 0.22217 0.22279 0.0
C25 C 0.38847 0.22369 0.19184 0.0
C26 C 0.38521 0.24645 0.17292 0.0
C27 C 0.37062 0.26673 0.18448 0.0
C28 C 0.30396 0.33895 0.19827 0.0
C29 C 0.30005 0.33245 0.16671 0.0
C30 C 0.28339 0.34659 0.14889 0.0
C31 C 0.27073 0.36771 0.16221 0.0
C32 C 0.27654 0.37559 0.19306 0.0
C33 C 0.29285 0.3613 0.2109 0.0
C34 C 0.29857 0.29128 0.29914 0.0
C35 C 0.27241 0.29922 0.30553 0.0
C36 C 0.18502 0.8942 0.62274 0.0
C37 C 0.17801 0.89937 0.59218 0.0
C38 C 0.19391 0.89109 0.56709 0.0
C39 C 0.21763 0.87953 0.57249 0.0
H40 H 0.27044 0.82182 0.5421 0.0
H41 H 0.29173 0.78952 0.51017 0.0
H42 H 0.37028 0.81444 0.55757 0.0
H43 H 0.3493 0.84673 0.5891 0.0
H44 H 0.34624 0.86982 0.65958 0.0
H45 H 0.36785 0.88641 0.70842 0.0
H46 H 0.28985 0.91071 0.73957 0.0
H47 H 0.2685 0.89478 0.69115 0.0
H48 H 0.21452 0.88042 0.652 0.0
H49 H 0.17317 0.90052 0.64248 0.0
H50 H 0.18868 0.89465 0.5433 0.0
H51 H 0.23032 0.87457 0.55271 0.0
N52 N 0.26753 0.85677 0.58679 0.0
N53 N 0.30619 0.8596 0.61924 0.0
N54 N 0.26621 0.87685 0.63608 0.0
C55 C 0.29379 0.85179 0.59184 0.0
C56 C 0.29243 0.87217 0.64149 0.0
C57 C 0.25364 0.86929 0.60891 0.0
C58 C 0.308 0.83633 0.56868 0.0
C59 C 0.29248 0.82092 0.54516 0.0
C60 C 0.30464 0.80243 0.52682 0.0
C61 C 0.33256 0.79926 0.5315 0.0
C62 C 0.34879 0.81655 0.55311 0.0
C63 C 0.33662 0.83483 0.57155 0.0
C64 C 0.30568 0.88113 0.67128 0.0
C65 C 0.33371 0.87869 0.67689 0.0
C66 C 0.34608 0.88808 0.70487 0.0
C67 C 0.33064 0.90015 0.72765 0.0
C68 C 0.30252 0.90209 0.7222 0.0
C69 C 0.29021 0.89276 0.69441 0.0
C70 C 0.22595 0.87644 0.60307 0.0
C71 C 0.20885 0.88293 0.62814 0.0
C72 C 0.62029 0.28114 0.94558 0.0
C73 C 0.60399 0.26135 0.92642 0.0
C74 C 0.60156 0.26851 0.89503 0.0
C75 C 0.61478 0.29514 0.88322 0.0
H76 H 0.60743 0.35689 0.81498 0.0
H77 H 0.58721 0.37923 0.77277 0.0
H78 H 0.64212 0.45847 0.79231 0.0
H79 H 0.66236 0.43627 0.8346 0.0
H80 H 0.71742 0.43402 0.87714 0.0
H81 H 0.76112 0.45691 0.9012 0.0
H82 H 0.75051 0.38921 0.96889 0.0
H83 H 0.7074 0.36611 0.94464 0.0
H84 H 0.64645 0.32213 0.94912 0.0
H85 H 0.62262 0.27616 0.96983 0.0
H86 H 0.58899 0.2537 0.87978 0.0
H87 H 0.61233 0.30013 0.85901 0.0
N88 N 0.63558 0.35509 0.8654 0.0
N89 N 0.67202 0.39511 0.86899 0.0
N90 N 0.66913 0.35735 0.90399 0.0
C91 C 0.64847 0.38122 0.85479 0.0
C92 C 0.6826 0.38325 0.89354 0.0
C93 C 0.64572 0.34307 0.89012 0.0
C94 C 0.63659 0.3947 0.82839 0.0
C95 C 0.61529 0.37908 0.81032 0.0
C96 C 0.60376 0.39186 0.78593 0.0
C97 C 0.61296 0.4207 0.7791 0.0
C98 C 0.63429 0.43631 0.7971 0.0
C99 C 0.64604 0.42347 0.82128 0.0
C100 C 0.70878 0.39805 0.90873 0.0
C101 C 0.72435 0.42401 0.89719 0.0
C102 C 0.7494 0.43726 0.91112 0.0
C103 C 0.75958 0.42489 0.93695 0.0
C104 C 0.74374 0.39916 0.94871 0.0
C105 C 0.71878 0.38595 0.93482 0.0
C106 C 0.63128 0.31489 0.90238 0.0
C107 C 0.63401 0.30744 0.93365 0.0
C108 C 0.75001 0.6673 0.44925 0.0
C109 C 0.73172 0.6445 0.43603 0.0
C110 C 0.74071 0.63326 0.40813 0.0
C111 C 0.76698 0.64515 0.39339 0.0
H112 H 0.83646 0.62788 0.33678 0.0
H113 H 0.85735 0.60421 0.29513 0.0
H114 H 0.91003 0.6834 0.26489 0.0
H115 H 0.88987 0.70693 0.30762 0.0
H116 H 0.89918 0.75779 0.3635 0.0
H117 H 0.92123 0.80349 0.38462 0.0
H118 H 0.85204 0.79653 0.45312 0.0
H119 H 0.83036 0.75142 0.4327 0.0
H120 H 0.78924 0.69696 0.4454 0.0
H121 H 0.74423 0.67607 0.47111 0.0
H122 H 0.72714 0.6158 0.3972 0.0
H123 H 0.77302 0.6364 0.37162 0.0
N124 N 0.82375 0.6703 0.36615 0.0
N125 N 0.86125 0.70975 0.36098 0.0
N126 N 0.82491 0.70855 0.39921 0.0
C127 C 0.84849 0.68361 0.35148 0.0
C128 C 0.84949 0.72235 0.38499 0.0
C129 C 0.81183 0.68268 0.39007 0.0
C130 C 0.8614 0.6694 0.32565 0.0
C131 C 0.85249 0.64033 0.32127 0.0
C132 C 0.8644 0.62671 0.2971 0.0
C133 C 0.88536 0.64177 0.27624 0.0
C134 C 0.89428 0.6709 0.28063 0.0
C135 C 0.88257 0.6845 0.3051 0.0
C136 C 0.86304 0.75063 0.39644 0.0
C137 C 0.88868 0.76606 0.38303 0.0
C138 C 0.90127 0.79231 0.39503 0.0
C139 C 0.88857 0.80354 0.42081 0.0
C140 C 0.86274 0.78832 0.43369 0.0
C141 C 0.85019 0.76235 0.42174 0.0
C142 C 0.78474 0.66859 0.40619 0.0
C143 C 0.77602 0.67923 0.43451 0.0
C144 C 0.59829 0.83153 0.89474 0.0
C145 C 0.6019 0.83811 0.92629 0.0
C146 C 0.61823 0.82332 0.944 0.0
C147 C 0.63155 0.8031 0.93011 0.0
H148 H 0.69343 0.75114 0.94308 0.0
H149 H 0.7267 0.7262 0.96682 0.0
H150 H 0.72416 0.6731 0.88609 0.0
H151 H 0.6921 0.69892 0.86197 0.0
H152 H 0.71522 0.75318 0.80411 0.0
H153 H 0.74322 0.778 0.76081 0.0
H154 H 0.68239 0.8319 0.75281 0.0
H155 H 0.65466 0.80758 0.79697 0.0
H156 H 0.60937 0.80776 0.85615 0.0
H157 H 0.58599 0.84268 0.88045 0.0
H158 H 0.62112 0.82777 0.96847 0.0
H159 H 0.64473 0.79272 0.94411 0.0
N160 N 0.65812 0.76082 0.89829 0.0
N161 N 0.6821 0.7506 0.85248 0.0
N162 N 0.65331 0.78398 0.85129 0.0
C163 C 0.67554 0.74583 0.88331 0.0
C164 C 0.67121 0.7697 0.83628 0.0
C165 C 0.64645 0.77956 0.88212 0.0
C166 C 0.6905 0.72719 0.90053 0.0
C167 C 0.69956 0.73374 0.93077 0.0
C168 C 0.71864 0.71939 0.94437 0.0
C169 C 0.72867 0.69797 0.92811 0.0
C170 C 0.71767 0.69005 0.8989 0.0
C171 C 0.69906 0.70467 0.88516 0.0
C172 C 0.68314 0.77896 0.80474 0.0
C173 C 0.70731 0.76982 0.79269 0.0
C174 C 0.72336 0.78401 0.76759 0.0
C175 C 0.71546 0.80746 0.75383 0.0
C176 C 0.68949 0.81442 0.7635 0.0
C177 C 0.67351 0.80036 0.78876 0.0
C178 C 0.6291 0.79761 0.89815 0.0
C179 C 0.61184 0.81162 0.8808 0.0
C180 C 0.70243 0.20838 0.36482 0.0
C181 C 0.67635 0.21583 0.35889 0.0
C182 C 0.66159 0.22667 0.38326 0.0
C183 C 0.67234 0.22928 0.4131 0.0
H184 H 0.64561 0.22482 0.50997 0.0
H185 H 0.61884 0.24774 0.54715 0.0
H186 H 0.69563 0.28028 0.59514 0.0
H187 H 0.72258 0.25682 0.55776 0.0
H188 H 0.76016 0.19728 0.54183 0.0
H189 H 0.79772 0.17137 0.55021 0.0
H190 H 0.82006 0.17647 0.45177 0.0
H191 H 0.7826 0.20248 0.44316 0.0
H192 H 0.73308 0.20454 0.39827 0.0
H193 H 0.71414 0.19951 0.34674 0.0
H194 H 0.64161 0.23291 0.37936 0.0
H195 H 0.66021 0.23731 0.43146 0.0
N196 N 0.69341 0.23009 0.47537 0.0
N197 N 0.72746 0.22178 0.51001 0.0
N198 N 0.73327 0.21359 0.45666 0.0
C199 C 0.70274 0.23011 0.50481 0.0
C200 C 0.74278 0.21337 0.48596 0.0
C201 C 0.70867 0.22201 0.45112 0.0
C202 C 0.68619 0.2396 0.53066 0.0
C203 C 0.65667 0.23627 0.52891 0.0
C204 C 0.64127 0.24907 0.55053 0.0
C205 C 0.65519 0.26587 0.57404 0.0
C206 C 0.68443 0.26743 0.57724 0.0
C207 C 0.69981 0.25411 0.55584 0.0
C208 C 0.76812 0.20159 0.49176 0.0
C209 C 0.77335 0.19334 0.52201 0.0
C210 C 0.79473 0.17837 0.52682 0.0
C211 C 0.81143 0.17167 0.50156 0.0
C212 C 0.80745 0.18143 0.47162 0.0
C213 C 0.7859 0.19617 0.46672 0.0
C214 C 0.69807 0.2211 0.41917 0.0
C215 C 0.71319 0.21105 0.39454 0.0
C216 C 0.25191 0.63529 0.1982 0.0
C217 C 0.24156 0.64807 0.17278 0.0
C218 C 0.25735 0.67395 0.16138 0.0
C219 C 0.28237 0.68696 0.17529 0.0
H220 H 0.35485 0.75101 0.16215 0.0
H221 H 0.37918 0.79694 0.1418 0.0
H222 H 0.41123 0.81921 0.23257 0.0
H223 H 0.38739 0.77282 0.253 0.0
H224 H 0.37803 0.71657 0.3069 0.0
H225 H 0.39719 0.69469 0.34995 0.0
H226 H 0.37372 0.61378 0.30599 0.0
H227 H 0.35262 0.63568 0.26446 0.0
H228 H 0.28402 0.63805 0.23197 0.0
H229 H 0.24025 0.61549 0.20783 0.0
H230 H 0.25045 0.68422 0.1415 0.0
H231 H 0.29367 0.70697 0.16581 0.0
N232 N 0.33173 0.71544 0.20671 0.0
N233 N 0.36461 0.7178 0.24603 0.0
N234 N 0.32899 0.67723 0.24109 0.0
C235 C 0.35473 0.72986 0.22118 0.0
C236 C 0.35202 0.69137 0.25594 0.0
C237 C 0.3185 0.68927 0.21659 0.0
C238 C 0.36919 0.75816 0.20924 0.0
C239 C 0.36702 0.76566 0.17787 0.0
C240 C 0.38104 0.79194 0.16614 0.0
C241 C 0.39708 0.81165 0.18559 0.0
C242 C 0.39888 0.80446 0.21709 0.0
C243 C 0.38537 0.77786 0.22871 0.0
C244 C 0.36371 0.67788 0.28228 0.0
C245 C 0.37686 0.69407 0.30663 0.0
C246 C 0.38815 0.68139 0.33128 0.0
C247 C 0.38743 0.65218 0.33192 0.0
C248 C 0.37434 0.63612 0.30722 0.0
C249 C 0.36233 0.64873 0.28305 0.0
C250 C 0.29249 0.6745 0.20107 0.0
C251 C 0.27702 0.64833 0.21217 0.0
C252 C 0.12044 0.29189 0.66856 0.0
C253 C 0.10369 0.27078 0.68766 0.0
C254 C 0.09853 0.27713 0.71911 0.0
C255 C 0.11036 0.30354 0.73114 0.0
H256 H 0.09149 0.37468 0.78768 0.0
H257 H 0.07092 0.3989 0.82951 0.0
H258 H 0.15105 0.45716 0.83647 0.0
H259 H 0.17127 0.4336 0.79417 0.0
H260 H 0.21516 0.44095 0.73423 0.0
H261 H 0.26198 0.46185 0.71117 0.0
H262 H 0.26067 0.38768 0.65589 0.0
H263 H 0.21424 0.36674 0.67882 0.0
H264 H 0.1458 0.3334 0.66529 0.0
H265 H 0.12424 0.28843 0.64404 0.0
H266 H 0.086 0.2615 0.73475 0.0
H267 H 0.1065 0.30756 0.75554 0.0
N268 N 0.1315 0.36331 0.74958 0.0
N269 N 0.17107 0.40077 0.74735 0.0
N270 N 0.16826 0.36406 0.71183 0.0
C271 C 0.1455 0.38829 0.76084 0.0
C272 C 0.18263 0.38876 0.72288 0.0
C273 C 0.14281 0.35116 0.72494 0.0
C274 C 0.13305 0.40219 0.7873 0.0
C275 C 0.10476 0.39262 0.79817 0.0
C276 C 0.09297 0.40648 0.82234 0.0
C277 C 0.1092 0.43018 0.83643 0.0
C278 C 0.13763 0.4394 0.82586 0.0
C279 C 0.14933 0.42569 0.80161 0.0
C280 C 0.21084 0.40206 0.70854 0.0
C281 C 0.22482 0.42909 0.71714 0.0
C282 C 0.25161 0.44116 0.70381 0.0
C283 C 0.26513 0.42636 0.68184 0.0
C284 C 0.25104 0.39949 0.67308 0.0
C285 C 0.22426 0.38754 0.68615 0.0
C286 C 0.12802 0.32402 0.71217 0.0
C287 C 0.13266 0.31794 0.6807 0.0
Sm288 Sm 0.00589 0.04985 0.5273 0.0
Sm289 Sm 0.97936 1.02327 0.58808 0.0
C290 C 0.02255 0.07363 0.47255 0.0
C291 C 0.04825 0.09421 0.46292 0.0
C292 C 0.04749 0.11379 0.43907 0.0
C293 C 0.07183 0.13394 0.43077 0.0
C294 C 0.09726 0.13465 0.44618 0.0
C295 C 0.09779 0.1151 0.47021 0.0
C296 C 0.0735 0.09517 0.47859 0.0
C297 C 0.04176 1.02566 0.56178 0.0
C298 C 0.01998 0.0866 0.58906 0.0
C299 C 0.96222 0.99989 0.64296 0.0
C300 C 0.93782 0.97782 0.65259 0.0
C301 C 0.92616 0.97731 0.68299 0.0
C302 C 0.90102 0.95837 0.69128 0.0
C303 C 0.88717 0.93965 0.66924 0.0
C304 C 0.89937 0.93977 0.63899 0.0
C305 C 0.92441 0.95882 0.63068 0.0
C306 C 0.94358 0.04652 0.55262 0.0
C307 C 0.96694 0.98589 0.52662 0.0
O308 O 0.00479 0.08294 0.49165 0.0
O309 O 0.02658 0.04873 0.48049 0.0
O310 O 0.01599 1.01549 0.55793 0.0
O311 O 0.04977 0.04898 0.54619 0.0
O312 O 0.01849 0.08785 0.55854 0.0
O313 O 0.0097 0.06319 0.60506 0.0
O314 O 0.9819 0.99203 0.62522 0.0
O315 O 0.95572 1.02331 0.63343 0.0
O316 O 0.96907 0.05726 0.55722 0.0
O317 O 0.93559 1.02309 0.56806 0.0
O318 O 0.96948 0.98484 0.55702 0.0
O319 O 0.97541 1.0097 0.51066 0.0
H320 H 0.0281 0.11352 0.42695 0.0
H321 H 0.0709 0.14864 0.412 0.0
H322 H 0.11694 0.11539 0.48277 0.0
H323 H 0.07446 0.08054 0.49741 0.0
H324 H 0.93612 0.992 0.70009 0.0
H325 H 0.89228 0.95851 0.71488 0.0
H326 H 0.88905 0.92583 0.62144 0.0
H327 H 0.93288 0.95921 0.60692 0.0
Sm328 Sm 0.53041 0.04614 0.06708 0.0
Sm329 Sm 0.47216 1.02663 1.0455 0.0
C330 C 0.57896 0.07603 0.08566 0.0
C331 C 0.5873 0.09543 0.11129 0.0
C332 C 0.60862 0.11943 0.10605 0.0
C333 C 0.61678 0.13801 0.13028 0.0
C334 C 0.60382 0.13277 0.16025 0.0
C335 C 0.58207 0.10887 0.16517 0.0
C336 C 0.57376 0.09048 0.14088 0.0
C337 C 0.50114 0.99791 0.09692 0.0
C338 C 0.47766 0.07213 0.09823 0.0
C339 C 0.4232 0.99841 1.02582 0.0
C340 C 0.41427 0.98455 0.99665 0.0
C341 C 0.38553 0.97899 0.98962 0.0
C342 C 0.37718 0.96803 0.96068 0.0
C343 C 0.3975 0.96242 0.93844 0.0
C344 C 0.42623 0.96736 0.94595 0.0
C345 C 0.43456 0.97851 0.97477 0.0
C346 C 0.5016 0.0747 1.01556 0.0
C347 C 0.52494 0.99939 1.01541 0.0
O348 O 0.56408 0.08491 0.06436 0.0
O349 O 0.56964 0.04963 0.09338 0.0
O350 O 0.49091 1.0193 0.09113 0.0
O351 O 0.52769 1.00185 0.0879 0.0
O352 O 0.50493 0.07694 0.08997 0.0
O353 O 0.46031 0.04955 0.08868 0.0
O354 O 0.44032 0.98689 1.04214 0.0
O355 O 0.43082 1.02574 1.02396 0.0
O356 O 0.51168 0.05322 1.02134 0.0
O357 O 0.47512 0.0709 1.02463 0.0
O358 O 0.49739 0.99587 1.022 0.0
O359 O 0.54286 1.02102 1.02614 0.0
H360 H 0.61901 0.12376 0.08321 0.0
H361 H 0.63325 0.15644 0.12553 0.0
H362 H 0.57189 0.1039 0.18799 0.0
H363 H 0.55696 0.07224 0.14535 0.0
H364 H 0.36965 0.98368 1.00623 0.0
H365 H 0.35486 0.96418 0.95558 0.0
H366 H 0.44236 0.96358 0.92913 0.0
H367 H 0.45691 0.98309 0.97967 0.0
Sm368 Sm 0.5023 0.50877 0.53393 0.0
Sm369 Sm 0.49064 0.55741 0.57879 0.0
C370 C 0.51936 0.47237 0.4968 0.0
C371 C 0.52763 0.44628 0.50687 0.0
C372 C 0.55469 0.44161 0.49829 0.0
C373 C 0.56588 0.42135 0.51406 0.0
C374 C 0.55013 0.40544 0.53862 0.0
C375 C 0.52239 0.40898 0.5459 0.0
C376 C 0.51128 0.42927 0.53025 0.0
C377 C 0.45557 0.49555 0.57389 0.0
C378 C 0.52432 0.51017 0.60551 0.0
C379 C 0.46313 0.5883 0.61359 0.0
C380 C 0.44259 0.60474 0.60347 0.0
C381 C 0.42483 0.59513 0.57889 0.0
C382 C 0.41054 0.61331 0.5638 0.0
C383 C 0.41414 0.64146 0.57279 0.0
C384 C 0.43067 0.65064 0.59845 0.0
C385 C 0.44478 0.63238 0.6137 0.0
C386 C 0.54398 0.57299 0.54965 0.0
C387 C 0.47339 0.55921 0.50508 0.0
O388 O 0.53647 0.49526 0.50554 0.0
O389 O 0.49241 0.47344 0.50093 0.0
O390 O 0.46341 0.51854 0.55914 0.0
O391 O 0.4721 0.47824 0.56692 0.0
O392 O 0.52807 0.50216 0.57648 0.0
O393 O 0.50847 0.52882 0.61278 0.0
O394 O 0.45528 0.56088 0.61247 0.0
O395 O 0.48895 0.59754 0.60225 0.0
O396 O 0.52622 0.55046 0.54675 0.0
O397 O 0.53373 0.58861 0.56969 0.0
O398 O 0.47236 0.57001 0.53323 0.0
O399 O 0.48458 0.53685 0.49926 0.0
H400 H 0.5678 0.45472 0.48066 0.0
H401 H 0.58714 0.41863 0.50757 0.0
H402 H 0.50982 0.39706 0.56474 0.0
H403 H 0.4905 0.43268 0.53779 0.0
H404 H 0.4233 0.57408 0.57006 0.0
H405 H 0.39803 0.60579 0.54401 0.0
H406 H 0.4334 0.67221 0.60607 0.0
H407 H 0.4587 0.64028 0.63228 0.0
Sm408 Sm 0.00262 0.50898 0.06851 0.0
Sm409 Sm -0.00342 0.56638 1.04464 0.0
C410 C 0.02058 0.4621 0.08059 0.0
C411 C 0.0478 0.45388 0.08655 0.0
C412 C 0.05514 0.43128 0.07027 0.0
C413 C 0.08103 0.42333 0.07494 0.0
C414 C 0.10011 0.43772 0.09622 0.0
C415 C 0.09273 0.46055 0.11238 0.0
C416 C 0.06689 0.46863 0.10749 0.0
C417 C 0.97395 0.53828 0.10888 0.0
C418 C 0.05496 0.5641 0.07763 0.0
C419 C 0.978 0.61306 1.0333 0.0
C420 C 0.95184 0.62008 1.02182 0.0
C421 C 0.94287 0.64409 1.03286 0.0
C422 C 0.91743 0.65048 1.02325 0.0
C423 C 0.90054 0.63296 1.00234 0.0
C424 C 0.90962 0.60885 0.99134 0.0
C425 C 0.93499 0.6024 1.0011 0.0
C426 C 0.02527 0.53731 1.00402 0.0
C427 C 0.94439 0.51087 1.03459 0.0
O428 O 0.01791 0.47109 0.05236 0.0
O429 O 0.01001 0.47652 0.10207 0.0
O430 O -0.0038 0.5484 0.09285 0.0
O431 O 0.9664 0.51133 0.10483 0.0
O432 O 0.04762 0.53651 0.0745 0.0
O433 O 0.03738 0.58074 0.07089 0.0
O434 O 0.97547 0.60073 0.06067 0.0
O435 O -0.0062 0.60213 1.0133 0.0
O436 O 0.00316 0.52703 1.02022 0.0
O437 O 0.03233 0.56434 1.00773 0.0
O438 O 0.95223 0.53857 1.03587 0.0
O439 O 0.96125 0.4942 1.04346 0.0
H440 H 0.04085 0.41983 0.05374 0.0
H441 H 0.08616 0.40603 0.06161 0.0
H442 H 0.10668 0.47194 0.1292 0.0
H443 H 0.06187 0.48636 0.12014 0.0
H444 H 0.95551 0.65785 1.04904 0.0
H445 H 0.91117 0.66934 1.03187 0.0
H446 H 0.8969 0.59477 0.97552 0.0
H447 H 0.94135 0.58353 0.99264 0.0
H448 H 0.21989 0.2831 0.38578 0.0
H449 H 0.151 0.12501 0.43749 0.0
H450 H 0.25766 0.21149 0.36446 0.0
H451 H 0.10303 0.19102 0.43377 0.0
H452 H 0.19378 0.15874 0.42066 0.0
H453 H 0.18049 0.25166 0.41352 0.0
C454 C 0.22013 0.26089 0.38717 0.0
C455 C 0.24209 0.24999 0.37233 0.0
C456 C 0.17393 0.16589 0.42369 0.0
C457 C 0.19723 0.21404 0.40435 0.0
C458 C 0.14954 0.14669 0.4334 0.0
C459 C 0.12341 0.15522 0.43684 0.0
C460 C 0.17227 0.1939 0.41749 0.0
C461 C 0.12269 0.18351 0.43095 0.0
C462 C 0.19765 0.24299 0.40305 0.0
C463 C 0.24151 0.22107 0.37566 0.0
N464 N 0.14678 0.20187 0.42148 0.0
N465 N 0.21934 0.20413 0.39107 0.0
H466 H 0.32629 0.94883 0.75705 0.0
H467 H 0.41448 0.92092 0.9039 0.0
H468 H 0.36428 0.87593 0.76527 0.0
H469 H 0.36153 0.98279 0.90114 0.0
H470 H 0.40065 0.90664 0.85112 0.0
H471 H 0.34384 0.96439 0.80772 0.0
C472 C 0.33833 0.93607 0.76957 0.0
C473 C 0.34349 0.91084 0.75713 0.0
C474 C 0.39205 0.9233 0.86213 0.0
C475 C 0.36387 0.92867 0.81514 0.0
C476 C 0.39998 0.93149 0.89215 0.0
C477 C 0.38896 0.95293 0.90693 0.0
C478 C 0.37323 0.93687 0.84676 0.0
C479 C 0.37016 0.96586 0.89079 0.0
C480 C 0.3484 0.945 0.79847 0.0
C481 C 0.35986 0.89555 0.774 0.0
N482 N 0.36294 0.95767 0.86158 0.0
N483 N 0.36935 0.90462 0.8023 0.0
H484 H 0.59697 0.47199 0.77932 0.0
H485 H 0.54978 0.46438 0.60206 0.0
H486 H 0.59977 0.40086 0.72046 0.0
H487 H 0.53001 0.52604 0.6668 0.0
H488 H 0.57146 0.44285 0.64389 0.0
H489 H 0.57593 0.49406 0.73725 0.0
C490 C 0.59333 0.46106 0.7575 0.0
C491 C 0.60021 0.43446 0.75353 0.0
C492 C 0.5624 0.4611 0.64897 0.0
C493 C 0.57595 0.45969 0.7051 0.0
C494 C 0.55007 0.47353 0.62502 0.0
C495 C 0.538 0.49719 0.63079 0.0
C496 C 0.56299 0.47247 0.679 0.0
C497 C 0.53895 0.50785 0.66117 0.0
C498 C 0.58112 0.47361 0.73353 0.0
C499 C 0.59458 0.42121 0.72477 0.0
N500 N 0.55128 0.4955 0.68404 0.0
N501 N 0.58293 0.43397 0.7017 0.0
H502 H 0.85901 0.59688 0.24177 0.0
H503 H -0.00602 0.59167 0.12889 0.0
H504 H 0.94023 0.65283 0.25076 0.0
H505 H 0.92353 0.52159 0.14205 0.0
H506 H 0.97224 0.61751 0.16873 0.0
H507 H 0.88011 0.57205 0.20084 0.0
C508 C 0.88131 0.60394 0.2354 0.0
C509 C 0.89781 0.62702 0.25022 0.0
C510 C 0.96153 0.59649 0.1629 0.0
C511 C 0.92197 0.59883 0.20246 0.0
C512 C 0.97387 0.58176 0.1401 0.0
C513 C 0.96058 0.55439 0.13227 0.0
C514 C 0.93549 0.58392 0.17773 0.0
C515 C 0.93455 0.54259 0.14751 0.0
C516 C 0.89329 0.58977 0.2118 0.0
C517 C 0.92644 0.63546 0.23998 0.0
N518 N 0.92282 0.55744 0.16944 0.0
N519 N 0.93755 0.62142 0.21679 0.0
H520 H 0.36924 0.16708 0.19817 0.0
H521 H 0.50434 0.12603 0.11023 0.0
H522 H 0.43838 0.2286 0.15709 0.0
H523 H 0.42442 0.06773 0.1255 0.0
H524 H 0.48328 0.16296 0.13424 0.0
H525 H 0.39185 0.12964 0.178 0.0
C526 C 0.38928 0.17268 0.18501 0.0
C527 C 0.402 0.20097 0.17931 0.0
C528 C 0.47042 0.14204 0.13246 0.0
C529 C 0.42799 0.15824 0.15621 0.0
C530 C 0.48246 0.12087 0.11896 0.0
C531 C 0.46607 0.09372 0.11575 0.0
C532 C 0.44188 0.13598 0.14313 0.0
C533 C 0.4378 0.08836 0.12737 0.0
C534 C 0.40209 0.15132 0.1734 0.0
C535 C 0.42778 0.20705 0.16181 0.0
N536 N 0.42659 0.10931 0.14053 0.0
N537 N 0.44001 0.18584 0.15098 0.0
H538 H 0.18352 0.9447 0.55361 0.0
H539 H 0.02931 0.97447 0.59088 0.0
H540 H 0.1246 0.89382 0.61939 0.0
H541 H 0.09933 0.03714 0.55332 0.0
H542 H 0.06218 0.94283 0.59918 0.0
H543 H 0.15042 0.97636 0.54883 0.0
C544 C 0.16337 0.93997 0.56666 0.0
C545 C 0.15662 0.91658 0.58676 0.0
C546 C 0.07034 0.96363 0.58945 0.0
C547 C 0.11899 0.95296 0.58193 0.0
C548 C 0.05167 0.98167 0.5848 0.0
C549 C 0.06171 1.00829 0.57122 0.0
C550 C 0.09904 0.97225 0.58001 0.0
C551 C 0.09078 1.01671 0.56375 0.0
C552 C 0.14469 0.95824 0.56427 0.0
C553 C 0.13052 0.91171 0.60367 0.0
N554 N 0.10842 0.99858 0.5679 0.0
N555 N 0.11253 0.92977 0.60082 0.0
H556 H 0.78062 0.48125 0.94693 0.0
H557 H 0.92145 0.45501 1.02676 0.0
H558 H 0.80081 0.39942 0.95997 0.0
H559 H 0.90365 0.53766 1.01223 0.0
H560 H 0.87671 0.43453 1.00337 0.0
H561 H 0.82507 0.50247 0.97103 0.0
C562 C 0.7944 0.46771 0.95468 0.0
C563 C 0.78673 0.4384 0.9514 0.0
C564 C 0.88251 0.45715 1.00532 0.0
C565 C 0.8377 0.46266 0.97942 0.0
C566 C 0.90813 0.46891 1.01877 0.0
C567 C 0.91652 0.49819 1.02152 0.0
C568 C 0.86493 0.47468 0.9944 0.0
C569 C 0.89819 0.515 1.01063 0.0
C570 C 0.81974 0.47987 0.96864 0.0
C571 C 0.80542 0.42202 0.96238 0.0
N572 N 0.87334 0.50303 0.99753 0.0
N573 N 0.82991 0.43434 0.97581 0.0
H574 H 0.6953 0.67422 0.46423 0.0
H575 H 0.57218 0.54181 0.5106 0.0
H576 H 0.70263 0.58933 0.442 0.0
H577 H 0.57834 0.62448 0.54901 0.0
H578 H 0.6176 0.5584 0.4815 0.0
H579 H 0.64992 0.65611 0.49121 0.0
C580 C 0.6875 0.6517 0.46518 0.0
C581 C 0.70319 0.6333 0.45115 0.0
C582 C 0.60896 0.57284 0.49634 0.0
C583 C 0.65054 0.6123 0.4818 0.0
C584 C 0.58304 0.56339 0.51286 0.0
C585 C 0.57147 0.58179 0.53217 0.0
C586 C 0.62314 0.60096 0.49899 0.0
C587 C 0.58649 0.60955 0.53443 0.0
C588 C 0.66142 0.64136 0.48052 0.0
C589 C 0.69132 0.60435 0.45239 0.0
N590 N 0.61141 0.61828 0.51799 0.0
N591 N 0.66574 0.59472 0.46754 0.0
H592 H 0.22754 0.33903 0.12836 0.0
H593 H 0.15247 0.47051 0.10743 0.0
H594 H 0.26372 0.42247 0.15924 0.0
H595 H 0.10991 0.38394 0.09817 0.0
H596 H 0.19613 0.45458 0.11892 0.0
H597 H 0.18767 0.35681 0.10817 0.0
C598 C 0.22741 0.36123 0.13032 0.0
C599 C 0.24896 0.37927 0.14565 0.0
C600 C 0.17724 0.43913 0.1142 0.0
C601 C 0.20303 0.39967 0.12309 0.0
C602 C 0.15221 0.44818 0.10784 0.0
C603 C 0.12728 0.42857 0.10195 0.0
C604 C 0.17746 0.41027 0.1145 0.0
C605 C 0.12857 0.39992 0.10214 0.0
C606 C 0.20447 0.37131 0.11908 0.0
C607 C 0.24739 0.40776 0.14792 0.0
N608 N 0.15316 0.39167 0.10838 0.0
N609 N 0.22472 0.41706 0.13694 0.0
H610 H 0.56865 0.2511 0.97824 0.0
H611 H 0.55254 0.08455 0.98164 0.0
H612 H 0.6057 0.20857 0.90455 0.0
H613 H 0.4876 0.12607 1.01914 0.0
H614 H 0.57806 0.12991 0.95924 0.0
H615 H 0.54441 0.2054 0.99995 0.0
C616 C 0.57174 0.2321 0.96671 0.0
C617 C 0.58913 0.23361 0.93951 0.0
C618 C 0.5582 0.12896 0.97235 0.0
C619 C 0.56178 0.18122 0.96446 0.0
C620 C 0.54372 0.10319 0.98519 0.0
C621 C 0.51785 0.10156 1.00207 0.0
C622 C 0.54703 0.15331 0.97715 0.0
C623 C 0.50736 0.12633 1.00607 0.0
C624 C 0.55784 0.20606 0.97902 0.0
C625 C 0.5923 0.20831 0.92542 0.0
N626 N 0.52205 0.15116 0.99393 0.0
N627 N 0.57894 0.18312 0.93818 0.0
H628 H 0.91452 0.85342 0.39157 0.0
H629 H 0.94391 0.93466 0.55285 0.0
H630 H 0.89347 0.8155 0.48266 0.0
H631 H 0.963 0.97645 0.4634 0.0
H632 H 0.92621 0.89082 0.52664 0.0
H633 H 0.93393 0.8983 0.41642 0.0
C634 C 0.91417 0.85446 0.41674 0.0
C635 C 0.90209 0.83066 0.43502 0.0
C636 C 0.93421 0.90952 0.51262 0.0
C637 C 0.92404 0.88194 0.46358 0.0
C638 C 0.94434 0.9347 0.52763 0.0
C639 C 0.95503 0.95944 0.51037 0.0
C640 C 0.9347 0.90877 0.47993 0.0
C641 C 0.95491 0.95796 0.47769 0.0
C642 C 0.92507 0.88012 0.43091 0.0
C643 C 0.90206 0.83333 0.46756 0.0
N644 N 0.94497 0.93304 0.46352 0.0
N645 N 0.91276 0.8584 0.4807 0.0
H646 H 0.3859 0.79744 0.50746 0.0
H647 H 0.35999 0.63552 0.55245 0.0
H648 H 0.30345 0.74512 0.52796 0.0
H649 H 0.44107 0.69291 0.55088 0.0
H650 H 0.33956 0.67152 0.52659 0.0
H651 H 0.4063 0.75528 0.5047 0.0
C652 C 0.37197 0.77703 0.51049 0.0
C653 C 0.34313 0.77481 0.5189 0.0
C654 C 0.36192 0.67605 0.53148 0.0
C655 C 0.36628 0.7267 0.51622 0.0
C656 C 0.37353 0.65558 0.54626 0.0
C657 C 0.402 0.66166 0.55453 0.0
C658 C 0.37901 0.70263 0.52489 0.0
C659 C 0.41878 0.68778 0.54575 0.0
C660 C 0.38362 0.753 0.509 0.0
C661 C 0.32588 0.74786 0.5218 0.0
N662 N 0.40695 0.70744 0.53173 0.0
N663 N 0.33785 0.72484 0.52125 0.0
H664 H 0.7528 0.7949 0.70817 0.0
H665 H 0.84182 0.95258 0.70198 0.0
H666 H 0.72653 0.86482 0.75426 0.0
H667 H 0.86959 0.88401 0.65488 0.0
H668 H 0.79705 0.92116 0.71687 0.0
H669 H 0.79289 0.8277 0.68323 0.0
C670 C 0.75519 0.81715 0.7127 0.0
C671 C 0.73633 0.82703 0.73359 0.0
C672 C 0.81283 0.91294 0.70315 0.0
C673 C 0.78219 0.86461 0.70526 0.0
C674 C 0.83851 0.93085 0.69488 0.0
C675 C 0.8596 0.9208 0.67753 0.0
C676 C 0.80819 0.88466 0.69422 0.0
C677 C 0.85388 0.8926 0.66827 0.0
C678 C 0.77807 0.83585 0.69845 0.0
C679 C 0.74026 0.85614 0.73818 0.0
N680 N 0.82879 0.87543 0.67697 0.0
N681 N 0.76289 0.8738 0.72445 0.0
H682 H 0.62071 0.19534 0.34583 0.0
H683 H 0.65843 0.15866 0.17207 0.0
H684 H 0.70366 0.22364 0.30129 0.0
H685 H 0.57213 0.14888 0.20899 0.0
H686 H 0.67497 0.18495 0.21815 0.0
H687 H 0.60187 0.18081 0.29528 0.0
C688 C 0.63488 0.199 0.32537 0.0
C689 C 0.66392 0.21043 0.3279 0.0
C690 C 0.65237 0.17733 0.21603 0.0
C691 C 0.64257 0.19325 0.27003 0.0
C692 C 0.64286 0.16241 0.18958 0.0
C693 C 0.61382 0.15123 0.18669 0.0
C694 C 0.63277 0.18085 0.24 0.0
C695 C 0.59477 0.15649 0.21051 0.0
C696 C 0.62412 0.19054 0.2965 0.0
C697 C 0.68128 0.21431 0.30056 0.0
N698 N 0.60461 0.17063 0.23632 0.0
N699 N 0.67041 0.20542 0.27283 0.0
H700 H 0.43196 0.67569 0.36903 0.0
H701 H 0.4517 0.53513 0.45118 0.0
H702 H 0.37308 0.59729 0.35497 0.0
H703 H 0.4666 0.61378 0.50001 0.0
H704 H 0.43039 0.55757 0.40934 0.0
H705 H 0.45202 0.65343 0.41135 0.0
C706 C 0.42292 0.65395 0.37472 0.0
C707 C 0.40039 0.63866 0.35792 0.0
C708 C 0.43838 0.56985 0.42923 0.0
C709 C 0.42458 0.61269 0.40601 0.0
C710 C 0.45068 0.55714 0.45302 0.0
C711 C 0.46101 0.57258 0.47916 0.0
C712 C 0.43706 0.59842 0.43114 0.0
C713 C 0.45889 0.60102 0.48035 0.0
C714 C 0.43469 0.64122 0.39888 0.0
C715 C 0.39067 0.61012 0.36637 0.0
N716 N 0.44744 0.61309 0.45657 0.0
N717 N 0.40294 0.59808 0.38953 0.0
H718 H 0.07046 0.40836 0.88379 0.0
H719 H 0.07009 0.55729 0.96346 0.0
H720 H 0.11899 0.48712 0.84709 0.0
H721 H 0.01022 0.48148 0.98989 0.0
H722 H 0.0907 0.53119 0.92306 0.0
H723 H 0.05022 0.43404 0.92477 0.0
C724 C 0.07679 0.43103 0.88416 0.0
C725 C 0.09659 0.44547 0.86176 0.0
C726 C 0.07309 0.52022 0.93772 0.0
C727 C 0.07371 0.47506 0.90917 0.0
C728 C 0.06135 0.53512 0.96082 0.0
C729 C 0.03843 0.52153 0.98008 0.0
C730 C 0.06194 0.49144 0.93388 0.0
C731 C 0.02796 0.49275 0.97564 0.0
C732 C 0.06532 0.44568 0.90774 0.0
C733 C 0.10424 0.4749 0.864 0.0
N734 N 0.03979 0.47866 0.95305 0.0
N735 N 0.09285 0.48864 0.88721 0.0
H736 H 0.6286 0.88032 0.96293 0.0
H737 H 0.49488 0.95365 0.98582 0.0
H738 H 0.54879 0.84966 0.92014 0.0
H739 H 0.58029 0.99383 1.00746 0.0
H740 H 0.51332 0.91436 0.96357 0.0
H741 H 0.61007 0.92047 0.98269 0.0
C742 C 0.60705 0.88189 0.95799 0.0
C743 C 0.59017 0.86158 0.93996 0.0
C744 C 0.52803 0.9319 0.97296 0.0
C745 C 0.56893 0.90767 0.96217 0.0
C746 C 0.51754 0.9544 0.9856 0.0
C747 C 0.53605 0.97712 0.99856 0.0
C748 C 0.55721 0.93194 0.97362 0.0
C749 C 0.56521 0.97683 0.99768 0.0
C750 C 0.59659 0.90497 0.96899 0.0
C751 C 0.56257 0.86494 0.9338 0.0
N752 N 0.57484 0.95449 0.98569 0.0
N753 N 0.55277 0.88751 0.94497 0.0
H754 H 0.86653 0.17796 0.47932 0.0
H755 H 0.88586 1.03166 0.55267 0.0
H756 H 0.80116 0.12199 0.53341 0.0
H757 H 0.95643 0.09748 0.52312 0.0
H758 H 0.85314 0.0611 0.53654 0.0
H759 H 0.89869 0.14539 0.48696 0.0
C760 C 0.859 0.1588 0.49274 0.0
C761 C 0.83137 0.15272 0.50611 0.0
C762 C 0.87579 0.069 0.53338 0.0
C763 C 0.86764 0.11547 0.51459 0.0
C764 C 0.89442 0.05218 0.54244 0.0
C765 C 0.92377 0.06238 0.5395 0.0
C766 C 0.88669 0.09606 0.5212 0.0
C767 C 0.93387 0.08901 0.52596 0.0
C768 C 0.87729 0.14029 0.49711 0.0
C769 C 0.82251 0.12765 0.52324 0.0
N770 N 0.91531 0.10507 0.51746 0.0
N771 N 0.84061 0.10992 0.52699 0.0
H772 H 0.22031 0.59194 0.16173 0.0
H773 H 0.07771 0.61974 0.08716 0.0
H774 H 0.20013 0.67405 0.15123 0.0
H775 H 0.09645 0.53697 0.09729 0.0
H776 H 0.12295 0.63977 0.10982 0.0
H777 H 0.17545 0.57124 0.13812 0.0
C778 C 0.20646 0.60564 0.15462 0.0
C779 C 0.21424 0.63488 0.15848 0.0
C780 C 0.11725 0.61722 0.10705 0.0
C781 C 0.16277 0.61123 0.13107 0.0
C782 C 0.09134 0.60572 0.09402 0.0
C783 C 0.08309 0.57655 0.09024 0.0
C784 C 0.13523 0.59952 0.11652 0.0
C785 C 0.10183 0.55956 0.09969 0.0
C786 C 0.18088 0.59379 0.14094 0.0
C787 C 0.19542 0.6515 0.14835 0.0
N788 N 0.12693 0.57127 0.11242 0.0
N789 N 0.17069 0.63947 0.13521 0.0
H790 H 0.28614 0.4803 0.66019 0.0
H791 H 0.43809 0.44767 0.60812 0.0
H792 H 0.30995 0.40006 0.67267 0.0
H793 H 0.41181 0.52408 0.58199 0.0
H794 H 0.39267 0.43209 0.63646 0.0
H795 H 0.33337 0.49885 0.6361 0.0
C796 C 0.30135 0.46665 0.65808 0.0
C797 C 0.29398 0.4385 0.66827 0.0
C798 C 0.39679 0.45235 0.62469 0.0
C799 C 0.34798 0.45956 0.64071 0.0
C800 C 0.42278 0.46128 0.60852 0.0
C801 C 0.42872 0.48723 0.59268 0.0
C802 C 0.37644 0.46944 0.62508 0.0
C803 C 0.40813 0.50402 0.59408 0.0
C804 C 0.32823 0.47721 0.64418 0.0
C805 C 0.31449 0.42173 0.66472 0.0
N806 N 0.38282 0.49481 0.60991 0.0
N807 N 0.34045 0.4325 0.65127 0.0
H808 H 0.73878 0.68539 0.98896 0.0
H809 H 0.8812 0.63066 0.94318 0.0
H810 H 0.77287 0.68288 0.89474 0.0
H811 H 0.85907 0.65155 1.03718 0.0
H812 H 0.83796 0.64398 0.92566 0.0
H813 H 0.77956 0.66788 1.00767 0.0
C814 C 0.75471 0.68113 0.97218 0.0
C815 C 0.75219 0.6856 0.94016 0.0
C816 C 0.84251 0.6456 0.95014 0.0
C817 C 0.79874 0.66524 0.96144 0.0
C818 C 0.86711 0.63783 0.96018 0.0
C819 C 0.87381 0.64009 0.99167 0.0
C820 C 0.82431 0.65558 0.97175 0.0
C821 C 0.8549 0.64983 1.01262 0.0
C822 C 0.77793 0.67104 0.98289 0.0
C823 C 0.77342 0.67928 0.91956 0.0
N824 N 0.831 0.65722 1.00229 0.0
N825 N 0.79571 0.66948 0.93055 0.0
H826 H 0.43349 0.82162 0.1346 0.0
H827 H 0.44995 0.98813 0.13022 0.0
H828 H 0.39528 0.86452 0.20707 0.0
H829 H 0.51543 0.94655 0.09426 0.0
H830 H 0.4242 0.94289 0.15259 0.0
H831 H 0.45838 0.86721 0.11318 0.0
C832 C 0.43029 0.84068 0.14593 0.0
C833 C 0.41237 0.83931 0.17269 0.0
C834 C 0.44424 0.94379 0.13984 0.0
C835 C 0.44047 0.89157 0.14805 0.0
C836 C 0.45886 0.9695 0.12702 0.0
C837 C 0.48493 0.97108 0.11055 0.0
C838 C 0.45547 0.91943 0.13545 0.0
C839 C 0.49551 0.94632 0.107 0.0
C840 C 0.44456 0.86665 0.13378 0.0
C841 C 0.40908 0.86468 0.18653 0.0
N842 N 0.48067 0.92152 0.11911 0.0
N843 N 0.42281 0.8898 0.17392 0.0
H844 H 0.12803 0.24225 0.64224 0.0
H845 H 0.01053 0.101 0.64977 0.0
H846 H 0.05331 0.23355 0.70357 0.0
H847 H 0.05954 0.13099 0.56578 0.0
H848 H 0.03122 0.14518 0.67533 0.0
H849 H 0.1082 0.1972 0.61936 0.0
C850 C 0.10736 0.23113 0.65085 0.0
C851 C 0.09221 0.24233 0.67469 0.0
C852 C 0.03744 0.14196 0.65134 0.0
C853 C 0.06984 0.18979 0.64902 0.0
C854 C 0.02581 0.11674 0.63681 0.0
C855 C 0.03328 0.11235 0.60557 0.0
C856 C 0.05714 0.16261 0.63471 0.0
C857 C 0.05304 0.13355 0.58982 0.0
C858 C 0.09618 0.2052 0.63784 0.0
C859 C 0.06599 0.22596 0.68547 0.0
N860 N 0.06439 0.15764 0.6046 0.0
N861 N 0.05566 0.20054 0.67259 0.0
H862 H 0.60162 0.25611 0.60187 0.0
H863 H 0.52578 0.35207 0.55823 0.0
H864 H 0.67459 0.32198 0.58083 0.0
H865 H 0.60332 0.41435 0.56157 0.0
H866 H 0.54875 0.31848 0.58369 0.0
H867 H 0.5724 0.29145 0.60809 0.0
C868 C 0.61158 0.27812 0.59931 0.0
C869 C 0.64031 0.2861 0.58975 0.0
C870 C 0.56076 0.33958 0.57979 0.0
C871 C 0.60684 0.32657 0.59488 0.0
C872 C 0.54756 0.35879 0.56494 0.0
C873 C 0.56291 0.38576 0.55707 0.0
C874 C 0.5896 0.34746 0.58682 0.0
C875 C 0.591 0.39343 0.56633 0.0
C876 C 0.59478 0.29835 0.60228 0.0
C877 C 0.65239 0.31484 0.58765 0.0
N878 N 0.60355 0.37425 0.58028 0.0
N879 N 0.63543 0.334 0.58929 0.0
loop_
_geom_bond_atom_site_label_1
_geom_bond_atom_site_label_2
_geom_bond_distance
_geom_bond_site_symmetry_2
_ccdc_geom_bond_type
C0 C1 1.384 . S
C0 H13 0.947 . S
C0 C35 1.382 . S
C1 C0 1.384 . S
C1 C2 1.378 . S
C2 C1 1.378 . S
C2 C3 1.378 . S
C2 H14 0.952 . S
C3 C2 1.378 . S
C3 H15 0.950 . S
C3 C34 1.383 . S
H4 C23 0.947 . S
H5 C24 0.946 . S
H6 C26 0.953 . S
H7 C27 0.945 . S
H8 C29 0.952 . S
H9 C30 0.949 . S
H10 C32 0.950 . S
H11 C33 0.948 . S
H12 C35 0.951 . S
H13 C0 0.947 . S
H14 C2 0.952 . S
H15 C3 0.950 . S
N16 C19 1.382 . S
N16 C21 1.363 . S
N17 C19 1.371 . S
N17 C20 1.372 . S
N18 C20 1.361 . S
N18 C21 1.377 . S
C19 N16 1.382 . S
C19 N17 1.371 . S
C19 C22 1.480 . S
C20 N17 1.372 . S
C20 N18 1.361 . S
C20 C28 1.457 . S
C21 N16 1.363 . S
C21 N18 1.377 . S
C21 C34 1.479 . S
C22 C19 1.480 . S
C22 C23 1.383 . S
C22 C27 1.385 . S
C23 H4 0.947 . S
C23 C22 1.383 . S
C23 C24 1.388 . S
C24 H5 0.946 . S
C24 C23 1.388 . S
C24 C25 1.384 . S
C25 C24 1.384 . S
C25 C26 1.377 . S
C26 H6 0.953 . S
C26 C25 1.377 . S
C26 C27 1.369 . S
C27 H7 0.945 . S
C27 C22 1.385 . S
C27 C26 1.369 . S
C28 C20 1.457 . S
C28 C29 1.372 . S
C28 C33 1.364 . S
C29 H8 0.952 . S
C29 C28 1.372 . S
C29 C30 1.389 . S
C30 H9 0.949 . S
C30 C29 1.389 . S
C30 C31 1.387 . S
C31 C30 1.387 . S
C31 C32 1.372 . S
C32 H10 0.950 . S
C32 C31 1.372 . S
C32 C33 1.379 . S
C33 H11 0.948 . S
C33 C28 1.364 . S
C33 C32 1.379 . S
C34 C3 1.383 . S
C34 C21 1.479 . S
C34 C35 1.398 . S
C35 C0 1.382 . S
C35 H12 0.951 . S
C35 C34 1.398 . S
C36 C37 1.384 . S
C36 H49 0.947 . S
C36 C71 1.382 . S
C37 C36 1.384 . S
C37 C38 1.378 . S
C38 C37 1.378 . S
C38 C39 1.378 . S
C38 H50 0.952 . S
C39 C38 1.378 . S
C39 H51 0.950 . S
C39 C70 1.383 . S
H40 C59 0.947 . S
H41 C60 0.946 . S
H42 C62 0.953 . S
H43 C63 0.945 . S
H44 C65 0.952 . S
H45 C66 0.949 . S
H46 C68 0.950 . S
H47 C69 0.948 . S
H48 C71 0.951 . S
H49 C36 0.947 . S
H50 C38 0.952 . S
H51 C39 0.950 . S
N52 C55 1.382 . S
N52 C57 1.363 . S
N53 C55 1.371 . S
N53 C56 1.372 . S
N54 C56 1.361 . S
N54 C57 1.377 . S
C55 N52 1.382 . S
C55 N53 1.371 . S
C55 C58 1.480 . S
C56 N53 1.372 . S
C56 N54 1.361 . S
C56 C64 1.457 . S
C57 N52 1.363 . S
C57 N54 1.377 . S
C57 C70 1.479 . S
C58 C55 1.480 . S
C58 C59 1.383 . S
C58 C63 1.385 . S
C59 H40 0.947 . S
C59 C58 1.383 . S
C59 C60 1.388 . S
C60 H41 0.946 . S
C60 C59 1.388 . S
C60 C61 1.384 . S
C61 C60 1.384 . S
C61 C62 1.377 . S
C62 H42 0.953 . S
C62 C61 1.377 . S
C62 C63 1.369 . S
C63 H43 0.945 . S
C63 C58 1.385 . S
C63 C62 1.369 . S
C64 C56 1.457 . S
C64 C65 1.372 . S
C64 C69 1.364 . S
C65 H44 0.952 . S
C65 C64 1.372 . S
C65 C66 1.389 . S
C66 H45 0.949 . S
C66 C65 1.389 . S
C66 C67 1.387 . S
C67 C66 1.387 . S
C67 C68 1.372 . S
C68 H46 0.950 . S
C68 C67 1.372 . S
C68 C69 1.379 . S
C69 H47 0.948 . S
C69 C64 1.364 . S
C69 C68 1.379 . S
C70 C39 1.383 . S
C70 C57 1.479 . S
C70 C71 1.398 . S
C71 C36 1.382 . S
C71 H48 0.951 . S
C71 C70 1.398 . S
C72 C73 1.384 . S
C72 H85 0.947 . S
C72 C107 1.382 . S
C73 C72 1.384 . S
C73 C74 1.378 . S
C74 C73 1.378 . S
C74 C75 1.378 . S
C74 H86 0.952 . S
C75 C74 1.378 . S
C75 H87 0.950 . S
C75 C106 1.383 . S
H76 C95 0.947 . S
H77 C96 0.946 . S
H78 C98 0.953 . S
H79 C99 0.945 . S
H80 C101 0.952 . S
H81 C102 0.949 . S
H82 C104 0.950 . S
H83 C105 0.948 . S
H84 C107 0.951 . S
H85 C72 0.947 . S
H86 C74 0.952 . S
H87 C75 0.950 . S
N88 C91 1.382 . S
N88 C93 1.363 . S
N89 C91 1.371 . S
N89 C92 1.372 . S
N90 C92 1.361 . S
N90 C93 1.377 . S
C91 N88 1.382 . S
C91 N89 1.371 . S
C91 C94 1.480 . S
C92 N89 1.372 . S
C92 N90 1.361 . S
C92 C100 1.457 . S
C93 N88 1.363 . S
C93 N90 1.377 . S
C93 C106 1.479 . S
C94 C91 1.480 . S
C94 C95 1.383 . S
C94 C99 1.385 . S
C95 H76 0.947 . S
C95 C94 1.383 . S
C95 C96 1.388 . S
C96 H77 0.946 . S
C96 C95 1.388 . S
C96 C97 1.384 . S
C97 C96 1.384 . S
C97 C98 1.377 . S
C98 H78 0.953 . S
C98 C97 1.377 . S
C98 C99 1.369 . S
C99 H79 0.945 . S
C99 C94 1.385 . S
C99 C98 1.369 . S
C100 C92 1.457 . S
C100 C101 1.372 . S
C100 C105 1.364 . S
C101 H80 0.952 . S
C101 C100 1.372 . S
C101 C102 1.389 . S
C102 H81 0.949 . S
C102 C101 1.389 . S
C102 C103 1.387 . S
C103 C102 1.387 . S
C103 C104 1.372 . S
C104 H82 0.950 . S
C104 C103 1.372 . S
C104 C105 1.379 . S
C105 H83 0.948 . S
C105 C100 1.364 . S
C105 C104 1.379 . S
C106 C75 1.383 . S
C106 C93 1.479 . S
C106 C107 1.398 . S
C107 C72 1.382 . S
C107 H84 0.951 . S
C107 C106 1.398 . S
C108 C109 1.384 . S
C108 H121 0.947 . S
C108 C143 1.382 . S
C109 C108 1.384 . S
C109 C110 1.378 . S
C110 C109 1.378 . S
C110 C111 1.378 . S
C110 H122 0.952 . S
C111 C110 1.378 . S
C111 H123 0.950 . S
C111 C142 1.383 . S
H112 C131 0.947 . S
H113 C132 0.946 . S
H114 C134 0.953 . S
H115 C135 0.945 . S
H116 C137 0.952 . S
H117 C138 0.949 . S
H118 C140 0.950 . S
H119 C141 0.948 . S
H120 C143 0.951 . S
H121 C108 0.947 . S
H122 C110 0.952 . S
H123 C111 0.950 . S
N124 C127 1.382 . S
N124 C129 1.363 . S
N125 C127 1.371 . S
N125 C128 1.372 . S
N126 C128 1.361 . S
N126 C129 1.377 . S
C127 N124 1.382 . S
C127 N125 1.371 . S
C127 C130 1.480 . S
C128 N125 1.372 . S
C128 N126 1.361 . S
C128 C136 1.457 . S
C129 N124 1.363 . S
C129 N126 1.377 . S
C129 C142 1.479 . S
C130 C127 1.480 . S
C130 C131 1.383 . S
C130 C135 1.385 . S
C131 H112 0.947 . S
C131 C130 1.383 . S
C131 C132 1.388 . S
C132 H113 0.946 . S
C132 C131 1.388 . S
C132 C133 1.384 . S
C133 C132 1.384 . S
C133 C134 1.377 . S
C134 H114 0.953 . S
C134 C133 1.377 . S
C134 C135 1.369 . S
C135 H115 0.945 . S
C135 C130 1.385 . S
C135 C134 1.369 . S
C136 C128 1.457 . S
C136 C137 1.372 . S
C136 C141 1.364 . S
C137 H116 0.952 . S
C137 C136 1.372 . S
C137 C138 1.389 . S
C138 H117 0.949 . S
C138 C137 1.389 . S
C138 C139 1.387 . S
C139 C138 1.387 . S
C139 C140 1.372 . S
C140 H118 0.950 . S
C140 C139 1.372 . S
C140 C141 1.379 . S
C141 H119 0.948 . S
C141 C136 1.364 . S
C141 C140 1.379 . S
C142 C111 1.383 . S
C142 C129 1.479 . S
C142 C143 1.398 . S
C143 C108 1.382 . S
C143 H120 0.951 . S
C143 C142 1.398 . S
C144 C145 1.384 . S
C144 H157 0.947 . S
C144 C179 1.382 . S
C145 C144 1.384 . S
C145 C146 1.378 . S
C146 C145 1.378 . S
C146 C147 1.378 . S
C146 H158 0.952 . S
C147 C146 1.378 . S
C147 H159 0.950 . S
C147 C178 1.383 . S
H148 C167 0.947 . S
H149 C168 0.946 . S
H150 C170 0.953 . S
H151 C171 0.945 . S
H152 C173 0.952 . S
H153 C174 0.949 . S
H154 C176 0.950 . S
H155 C177 0.948 . S
H156 C179 0.951 . S
H157 C144 0.947 . S
H158 C146 0.952 . S
H159 C147 0.950 . S
N160 C163 1.382 . S
N160 C165 1.363 . S
N161 C163 1.371 . S
N161 C164 1.372 . S
N162 C164 1.361 . S
N162 C165 1.377 . S
C163 N160 1.382 . S
C163 N161 1.371 . S
C163 C166 1.480 . S
C164 N161 1.372 . S
C164 N162 1.361 . S
C164 C172 1.457 . S
C165 N160 1.363 . S
C165 N162 1.377 . S
C165 C178 1.479 . S
C166 C163 1.480 . S
C166 C167 1.383 . S
C166 C171 1.385 . S
C167 H148 0.947 . S
C167 C166 1.383 . S
C167 C168 1.388 . S
C168 H149 0.946 . S
C168 C167 1.388 . S
C168 C169 1.384 . S
C169 C168 1.384 . S
C169 C170 1.377 . S
C170 H150 0.953 . S
C170 C169 1.377 . S
C170 C171 1.369 . S
C171 H151 0.945 . S
C171 C166 1.385 . S
C171 C170 1.369 . S
C172 C164 1.457 . S
C172 C173 1.372 . S
C172 C177 1.364 . S
C173 H152 0.952 . S
C173 C172 1.372 . S
C173 C174 1.389 . S
C174 H153 0.949 . S
C174 C173 1.389 . S
C174 C175 1.387 . S
C175 C174 1.387 . S
C175 C176 1.372 . S
C176 H154 0.950 . S
C176 C175 1.372 . S
C176 C177 1.379 . S
C177 H155 0.948 . S
C177 C172 1.364 . S
C177 C176 1.379 . S
C178 C147 1.383 . S
C178 C165 1.479 . S
C178 C179 1.398 . S
C179 C144 1.382 . S
C179 H156 0.951 . S
C179 C178 1.398 . S
C180 C181 1.384 . S
C180 H193 0.947 . S
C180 C215 1.382 . S
C181 C180 1.384 . S
C181 C182 1.378 . S
C182 C181 1.378 . S
C182 C183 1.378 . S
C182 H194 0.952 . S
C183 C182 1.378 . S
C183 H195 0.950 . S
C183 C214 1.383 . S
H184 C203 0.947 . S
H185 C204 0.946 . S
H186 C206 0.953 . S
H187 C207 0.945 . S
H188 C209 0.952 . S
H189 C210 0.949 . S
H190 C212 0.950 . S
H191 C213 0.948 . S
H192 C215 0.951 . S
H193 C180 0.947 . S
H194 C182 0.952 . S
H195 C183 0.950 . S
N196 C199 1.382 . S
N196 C201 1.363 . S
N197 C199 1.371 . S
N197 C200 1.372 . S
N198 C200 1.361 . S
N198 C201 1.377 . S
C199 N196 1.382 . S
C199 N197 1.371 . S
C199 C202 1.480 . S
C200 N197 1.372 . S
C200 N198 1.361 . S
C200 C208 1.457 . S
C201 N196 1.363 . S
C201 N198 1.377 . S
C201 C214 1.479 . S
C202 C199 1.480 . S
C202 C203 1.383 . S
C202 C207 1.385 . S
C203 H184 0.947 . S
C203 C202 1.383 . S
C203 C204 1.388 . S
C204 H185 0.946 . S
C204 C203 1.388 . S
C204 C205 1.384 . S
C205 C204 1.384 . S
C205 C206 1.377 . S
C206 H186 0.953 . S
C206 C205 1.377 . S
C206 C207 1.369 . S
C207 H187 0.945 . S
C207 C202 1.385 . S
C207 C206 1.369 . S
C208 C200 1.457 . S
C208 C209 1.372 . S
C208 C213 1.364 . S
C209 H188 0.952 . S
C209 C208 1.372 . S
C209 C210 1.389 . S
C210 H189 0.949 . S
C210 C209 1.389 . S
C210 C211 1.387 . S
C211 C210 1.387 . S
C211 C212 1.372 . S
C212 H190 0.950 . S
C212 C211 1.372 . S
C212 C213 1.379 . S
C213 H191 0.948 . S
C213 C208 1.364 . S
C213 C212 1.379 . S
C214 C183 1.383 . S
C214 C201 1.479 . S
C214 C215 1.398 . S
C215 C180 1.382 . S
C215 H192 0.951 . S
C215 C214 1.398 . S
C216 C217 1.384 . S
C216 H229 0.947 . S
C216 C251 1.382 . S
C217 C216 1.384 . S
C217 C218 1.378 . S
C218 C217 1.378 . S
C218 C219 1.378 . S
C218 H230 0.952 . S
C219 C218 1.378 . S
C219 H231 0.950 . S
C219 C250 1.383 . S
H220 C239 0.947 . S
H221 C240 0.946 . S
H222 C242 0.953 . S
H223 C243 0.945 . S
H224 C245 0.952 . S
H225 C246 0.949 . S
H226 C248 0.950 . S
H227 C249 0.948 . S
H228 C251 0.951 . S
H229 C216 0.947 . S
H230 C218 0.952 . S
H231 C219 0.950 . S
N232 C235 1.382 . S
N232 C237 1.363 . S
N233 C235 1.371 . S
N233 C236 1.372 . S
N234 C236 1.361 . S
N234 C237 1.377 . S
C235 N232 1.382 . S
C235 N233 1.371 . S
C235 C238 1.480 . S
C236 N233 1.372 . S
C236 N234 1.361 . S
C236 C244 1.457 . S
C237 N232 1.363 . S
C237 N234 1.377 . S
C237 C250 1.479 . S
C238 C235 1.480 . S
C238 C239 1.383 . S
C238 C243 1.385 . S
C239 H220 0.947 . S
C239 C238 1.383 . S
C239 C240 1.388 . S
C240 H221 0.946 . S
C240 C239 1.388 . S
C240 C241 1.384 . S
C241 C240 1.384 . S
C241 C242 1.377 . S
C242 H222 0.953 . S
C242 C241 1.377 . S
C242 C243 1.369 . S
C243 H223 0.945 . S
C243 C238 1.385 . S
C243 C242 1.369 . S
C244 C236 1.457 . S
C244 C245 1.372 . S
C244 C249 1.364 . S
C245 H224 0.952 . S
C245 C244 1.372 . S
C245 C246 1.389 . S
C246 H225 0.949 . S
C246 C245 1.389 . S
C246 C247 1.387 . S
C247 C246 1.387 . S
C247 C248 1.372 . S
C248 H226 0.950 . S
C248 C247 1.372 . S
C248 C249 1.379 . S
C249 H227 0.948 . S
C249 C244 1.364 . S
C249 C248 1.379 . S
C250 C219 1.383 . S
C250 C237 1.479 . S
C250 C251 1.398 . S
C251 C216 1.382 . S
C251 H228 0.951 . S
C251 C250 1.398 . S
C252 C253 1.384 . S
C252 H265 0.947 . S
C252 C287 1.382 . S
C253 C252 1.384 . S
C253 C254 1.378 . S
C254 C253 1.378 . S
C254 C255 1.378 . S
C254 H266 0.952 . S
C255 C254 1.378 . S
C255 H267 0.950 . S
C255 C286 1.383 . S
H256 C275 0.947 . S
H257 C276 0.946 . S
H258 C278 0.953 . S
H259 C279 0.945 . S
H260 C281 0.952 . S
H261 C282 0.949 . S
H262 C284 0.950 . S
H263 C285 0.948 . S
H264 C287 0.951 . S
H265 C252 0.947 . S
H266 C254 0.952 . S
H267 C255 0.950 . S
N268 C271 1.382 . S
N268 C273 1.363 . S
N269 C271 1.371 . S
N269 C272 1.372 . S
N270 C272 1.361 . S
N270 C273 1.377 . S
C271 N268 1.382 . S
C271 N269 1.371 . S
C271 C274 1.480 . S
C272 N269 1.372 . S
C272 N270 1.361 . S
C272 C280 1.457 . S
C273 N268 1.363 . S
C273 N270 1.377 . S
C273 C286 1.479 . S
C274 C271 1.480 . S
C274 C275 1.383 . S
C274 C279 1.385 . S
C275 H256 0.947 . S
C275 C274 1.383 . S
C275 C276 1.388 . S
C276 H257 0.946 . S
C276 C275 1.388 . S
C276 C277 1.384 . S
C277 C276 1.384 . S
C277 C278 1.377 . S
C278 H258 0.953 . S
C278 C277 1.377 . S
C278 C279 1.369 . S
C279 H259 0.945 . S
C279 C274 1.385 . S
C279 C278 1.369 . S
C280 C272 1.457 . S
C280 C281 1.372 . S
C280 C285 1.364 . S
C281 H260 0.952 . S
C281 C280 1.372 . S
C281 C282 1.389 . S
C282 H261 0.949 . S
C282 C281 1.389 . S
C282 C283 1.387 . S
C283 C282 1.387 . S
C283 C284 1.372 . S
C284 H262 0.950 . S
C284 C283 1.372 . S
C284 C285 1.379 . S
C285 H263 0.948 . S
C285 C280 1.364 . S
C285 C284 1.379 . S
C286 C255 1.383 . S
C286 C273 1.479 . S
C286 C287 1.398 . S
C287 C252 1.382 . S
C287 H264 0.951 . S
C287 C286 1.398 . S
Sm288 C290 2.846 . S
Sm288 O308 2.543 . S
Sm288 O309 2.450 . S
Sm288 O310 2.681 1_545 S
Sm288 O311 2.464 1_545 S
Sm288 O312 2.396 . S
Sm288 O316 2.386 1_455 S
Sm288 O319 2.408 1_445 S
Sm289 C299 2.846 . S
Sm289 O310 2.386 1_655 S
Sm289 O313 2.408 1_665 S
Sm289 O314 2.543 . S
Sm289 O315 2.450 . S
Sm289 O316 2.681 1_565 S
Sm289 O317 2.464 1_565 S
Sm289 O318 2.396 . S
C290 Sm288 2.846 . S
C290 C291 1.506 . S
C290 O308 1.261 . S
C290 O309 1.242 . S
C291 C290 1.506 . S
C291 C292 1.358 . S
C291 C296 1.382 . S
C292 C291 1.358 . S
C292 C293 1.385 . S
C292 H320 0.930 . S
C293 C292 1.385 . S
C293 C294 1.395 . S
C293 H321 0.929 . S
C294 C293 1.395 . S
C294 C295 1.335 . S
C295 C294 1.335 . S
C295 C296 1.398 . S
C295 H322 0.930 . S
C296 C291 1.382 . S
C296 C295 1.398 . S
C296 H323 0.929 . S
C297 O310 1.271 . S
C297 O311 1.251 . S
C298 O312 1.252 . S
C298 O313 1.272 . S
C299 Sm289 2.846 . S
C299 C300 1.506 . S
C299 O314 1.261 . S
C299 O315 1.242 . S
C300 C299 1.506 . S
C300 C301 1.358 . S
C300 C305 1.382 . S
C301 C300 1.358 . S
C301 C302 1.385 . S
C301 H324 0.930 . S
C302 C301 1.385 . S
C302 C303 1.395 . S
C302 H325 0.929 . S
C303 C302 1.395 . S
C303 C304 1.335 . S
C304 C303 1.335 . S
C304 C305 1.398 . S
C304 H326 0.930 . S
C305 C300 1.382 . S
C305 C304 1.398 . S
C305 H327 0.929 . S
C306 O316 1.271 . S
C306 O317 1.251 . S
C307 O318 1.252 . S
C307 O319 1.272 . S
O308 Sm288 2.543 . S
O308 C290 1.261 . S
O309 Sm288 2.450 . S
O309 C290 1.242 . S
O310 Sm288 2.681 1_565 S
O310 Sm289 2.386 1_455 S
O310 C297 1.271 . S
O311 Sm288 2.464 1_565 S
O311 C297 1.251 . S
O312 Sm288 2.396 . S
O312 C298 1.252 . S
O313 Sm289 2.408 1_445 S
O313 C298 1.272 . S
O314 Sm289 2.543 . S
O314 C299 1.261 . S
O315 Sm289 2.450 . S
O315 C299 1.242 . S
O316 Sm288 2.386 1_655 S
O316 Sm289 2.681 1_545 S
O316 C306 1.271 . S
O317 Sm289 2.464 1_545 S
O317 C306 1.251 . S
O318 Sm289 2.396 . S
O318 C307 1.252 . S
O319 Sm288 2.408 1_665 S
O319 C307 1.272 . S
H320 C292 0.930 . S
H321 C293 0.929 . S
H322 C295 0.930 . S
H323 C296 0.929 . S
H324 C301 0.930 . S
H325 C302 0.929 . S
H326 C304 0.930 . S
H327 C305 0.929 . S
Sm328 C330 2.832 1_565 S
Sm328 O348 2.518 1_565 S
Sm328 O349 2.448 1_565 S
Sm328 O350 2.692 . S
Sm328 O351 2.485 . S
Sm328 O352 2.381 1_565 S
Sm328 O356 2.366 1_564 S
Sm328 O359 2.424 1_554 S
Sm329 C339 2.846 1_545 S
Sm329 O350 2.386 1_546 S
Sm329 O353 2.408 1_556 S
Sm329 O354 2.543 1_545 S
Sm329 O355 2.450 1_545 S
Sm329 O356 2.681 . S
Sm329 O357 2.464 . S
Sm329 O358 2.396 1_545 S
C330 Sm328 2.832 1_545 S
C330 C331 1.506 . S
C330 O348 1.261 . S
C330 O349 1.242 . S
C331 C330 1.506 . S
C331 C332 1.358 . S
C331 C336 1.382 . S
C332 C331 1.358 . S
C332 C333 1.385 . S
C332 H360 0.930 . S
C333 C332 1.385 . S
C333 C334 1.395 . S
C333 H361 0.929 . S
C334 C333 1.395 . S
C334 C335 1.335 . S
C335 C334 1.335 . S
C335 C336 1.398 . S
C335 H362 0.930 . S
C336 C331 1.382 . S
C336 C335 1.398 . S
C336 H363 0.929 . S
C337 O350 1.271 . S
C337 O351 1.251 . S
C338 O352 1.252 . S
C338 O353 1.272 . S
C339 Sm329 2.846 1_565 S
C339 C340 1.506 . S
C339 O354 1.261 . S
C339 O355 1.242 . S
C340 C339 1.506 . S
C340 C341 1.358 . S
C340 C345 1.382 . S
C341 C340 1.358 . S
C341 C342 1.385 . S
C341 H364 0.930 . S
C342 C341 1.385 . S
C342 C343 1.395 . S
C342 H365 0.929 . S
C343 C342 1.395 . S
C343 C344 1.335 . S
C344 C343 1.335 . S
C344 C345 1.398 . S
C344 H366 0.930 . S
C345 C340 1.382 . S
C345 C344 1.398 . S
C345 H367 0.929 . S
C346 O356 1.271 . S
C346 O357 1.251 . S
C347 O358 1.252 . S
C347 O359 1.272 . S
O348 Sm328 2.518 1_545 S
O348 C330 1.261 . S
O349 Sm328 2.448 1_545 S
O349 C330 1.242 . S
O350 Sm328 2.692 . S
O350 Sm329 2.386 1_564 S
O350 C337 1.271 . S
O351 Sm328 2.485 . S
O351 C337 1.251 . S
O352 Sm328 2.381 1_545 S
O352 C338 1.252 . S
O353 Sm329 2.408 1_554 S
O353 C338 1.272 . S
O354 Sm329 2.543 1_565 S
O354 C339 1.261 . S
O355 Sm329 2.450 1_565 S
O355 C339 1.242 . S
O356 Sm328 2.366 1_546 S
O356 Sm329 2.681 . S
O356 C346 1.271 . S
O357 Sm329 2.464 . S
O357 C346 1.251 . S
O358 Sm329 2.396 1_565 S
O358 C347 1.252 . S
O359 Sm328 2.424 1_556 S
O359 C347 1.272 . S
H360 C332 0.930 . S
H361 C333 0.929 . S
H362 C335 0.930 . S
H363 C336 0.929 . S
H364 C341 0.930 . S
H365 C342 0.929 . S
H366 C344 0.930 . S
H367 C345 0.929 . S
Sm368 C370 2.846 . S
Sm368 O388 2.543 . S
Sm368 O389 2.450 . S
Sm368 O390 2.681 . S
Sm368 O391 2.464 . S
Sm368 O392 2.396 . S
Sm368 O396 2.386 . S
Sm368 O399 2.408 . S
Sm369 C379 2.846 . S
Sm369 O390 2.386 . S
Sm369 O393 2.408 . S
Sm369 O394 2.543 . S
Sm369 O395 2.450 . S
Sm369 O396 2.681 . S
Sm369 O397 2.464 . S
Sm369 O398 2.396 . S
C370 Sm368 2.846 . S
C370 C371 1.506 . S
C370 O388 1.261 . S
C370 O389 1.242 . S
C371 C370 1.506 . S
C371 C372 1.358 . S
C371 C376 1.382 . S
C372 C371 1.358 . S
C372 C373 1.385 . S
C372 H400 0.930 . S
C373 C372 1.385 . S
C373 C374 1.395 . S
C373 H401 0.929 . S
C374 C373 1.395 . S
C374 C375 1.335 . S
C375 C374 1.335 . S
C375 C376 1.398 . S
C375 H402 0.930 . S
C376 C371 1.382 . S
C376 C375 1.398 . S
C376 H403 0.929 . S
C377 O390 1.271 . S
C377 O391 1.251 . S
C378 O392 1.252 . S
C378 O393 1.272 . S
C379 Sm369 2.846 . S
C379 C380 1.506 . S
C379 O394 1.261 . S
C379 O395 1.242 . S
C380 C379 1.506 . S
C380 C381 1.358 . S
C380 C385 1.382 . S
C381 C380 1.358 . S
C381 C382 1.385 . S
C381 H404 0.930 . S
C382 C381 1.385 . S
C382 C383 1.395 . S
C382 H405 0.929 . S
C383 C382 1.395 . S
C383 C384 1.335 . S
C384 C383 1.335 . S
C384 C385 1.398 . S
C384 H406 0.930 . S
C385 C380 1.382 . S
C385 C384 1.398 . S
C385 H407 0.929 . S
C386 O396 1.271 . S
C386 O397 1.251 . S
C387 O398 1.252 . S
C387 O399 1.272 . S
O388 Sm368 2.543 . S
O388 C370 1.261 . S
O389 Sm368 2.450 . S
O389 C370 1.242 . S
O390 Sm368 2.681 . S
O390 Sm369 2.386 . S
O390 C377 1.271 . S
O391 Sm368 2.464 . S
O391 C377 1.251 . S
O392 Sm368 2.396 . S
O392 C378 1.252 . S
O393 Sm369 2.408 . S
O393 C378 1.272 . S
O394 Sm369 2.543 . S
O394 C379 1.261 . S
O395 Sm369 2.450 . S
O395 C379 1.242 . S
O396 Sm368 2.386 . S
O396 Sm369 2.681 . S
O396 C386 1.271 . S
O397 Sm369 2.464 . S
O397 C386 1.251 . S
O398 Sm369 2.396 . S
O398 C387 1.252 . S
O399 Sm368 2.408 . S
O399 C387 1.272 . S
H400 C372 0.930 . S
H401 C373 0.929 . S
H402 C375 0.930 . S
H403 C376 0.929 . S
H404 C381 0.930 . S
H405 C382 0.929 . S
H406 C384 0.930 . S
H407 C385 0.929 . S
Sm408 C410 2.846 . S
Sm408 O428 2.543 . S
Sm408 O429 2.450 . S
Sm408 O430 2.681 1_455 S
Sm408 O431 2.464 1_455 S
Sm408 O432 2.396 . S
Sm408 O436 2.386 1_554 S
Sm408 O439 2.408 1_454 S
Sm409 C419 2.846 . S
Sm409 O430 2.386 1_556 S
Sm409 O433 2.408 1_656 S
Sm409 O434 2.543 . S
Sm409 O435 2.450 . S
Sm409 O436 2.681 1_655 S
Sm409 O437 2.463 1_655 S
Sm409 O438 2.396 . S
C410 Sm408 2.846 . S
C410 C411 1.506 . S
C410 O428 1.261 . S
C410 O429 1.242 . S
C411 C410 1.506 . S
C411 C412 1.358 . S
C411 C416 1.382 . S
C412 C411 1.358 . S
C412 C413 1.385 . S
C412 H440 0.930 . S
C413 C412 1.385 . S
C413 C414 1.395 . S
C413 H441 0.929 . S
C414 C413 1.395 . S
C414 C415 1.335 . S
C415 C414 1.335 . S
C415 C416 1.398 . S
C415 H442 0.930 . S
C416 C411 1.382 . S
C416 C415 1.398 . S
C416 H443 0.929 . S
C417 O430 1.271 . S
C417 O431 1.251 . S
C418 O432 1.252 . S
C418 O433 1.272 . S
C419 Sm409 2.846 . S
C419 C420 1.506 . S
C419 O434 1.261 . S
C419 O435 1.242 . S
C420 C419 1.506 . S
C420 C421 1.358 . S
C420 C425 1.382 . S
C421 C420 1.358 . S
C421 C422 1.385 . S
C421 H444 0.930 . S
C422 C421 1.385 . S
C422 C423 1.395 . S
C422 H445 0.929 . S
C423 C422 1.395 . S
C423 C424 1.335 . S
C424 C423 1.335 . S
C424 C425 1.398 . S
C424 H446 0.930 . S
C425 C420 1.382 . S
C425 C424 1.398 . S
C425 H447 0.929 . S
C426 O436 1.271 . S
C426 O437 1.251 . S
C427 O438 1.252 . S
C427 O439 1.272 . S
O428 Sm408 2.543 . S
O428 C410 1.261 . S
O429 Sm408 2.450 . S
O429 C410 1.242 . S
O430 Sm408 2.681 1_655 S
O430 Sm409 2.386 1_554 S
O430 C417 1.271 . S
O431 Sm408 2.464 1_655 S
O431 C417 1.251 . S
O432 Sm408 2.396 . S
O432 C418 1.252 . S
O433 Sm409 2.408 1_454 S
O433 C418 1.272 . S
O434 Sm409 2.543 . S
O434 C419 1.261 . S
O435 Sm409 2.450 . S
O435 C419 1.242 . S
O436 Sm408 2.386 1_556 S
O436 Sm409 2.681 1_455 S
O436 C426 1.271 . S
O437 Sm409 2.463 1_455 S
O437 C426 1.251 . S
O438 Sm409 2.396 . S
O438 C427 1.252 . S
O439 Sm408 2.408 1_656 S
O439 C427 1.272 . S
H440 C412 0.930 . S
H441 C413 0.929 . S
H442 C415 0.930 . S
H443 C416 0.929 . S
H444 C421 0.930 . S
H445 C422 0.929 . S
H446 C424 0.930 . S
H447 C425 0.929 . S
H448 C454 0.930 . S
H449 C458 0.930 . S
H450 C463 0.929 . S
H451 C461 0.929 . S
H452 C456 0.929 . S
H453 C462 0.929 . S
C454 H448 0.930 . S
C454 C455 1.367 . S
C454 C462 1.378 . S
C455 C454 1.367 . S
C455 C463 1.433 . S
C456 H452 0.929 . S
C456 C458 1.378 . S
C456 C460 1.350 . S
C457 C460 1.463 . S
C457 C462 1.350 . S
C457 N465 1.427 . S
C458 H449 0.930 . S
C458 C456 1.378 . S
C458 C459 1.367 . S
C459 C458 1.367 . S
C459 C461 1.433 . S
C460 C456 1.350 . S
C460 C457 1.463 . S
C460 N464 1.427 . S
C461 H451 0.929 . S
C461 C459 1.433 . S
C461 N464 1.384 . S
C462 H453 0.929 . S
C462 C454 1.378 . S
C462 C457 1.350 . S
C463 H450 0.929 . S
C463 C455 1.433 . S
C463 N465 1.384 . S
N464 C460 1.427 . S
N464 C461 1.384 . S
N465 C457 1.427 . S
N465 C463 1.384 . S
H466 C472 0.930 . S
H467 C476 0.930 . S
H468 C481 0.929 . S
H469 C479 0.929 . S
H470 C474 0.929 . S
H471 C480 0.929 . S
C472 H466 0.930 . S
C472 C473 1.367 . S
C472 C480 1.378 . S
C473 C472 1.367 . S
C473 C481 1.433 . S
C474 H470 0.929 . S
C474 C476 1.378 . S
C474 C478 1.350 . S
C475 C478 1.463 . S
C475 C480 1.350 . S
C475 N483 1.427 . S
C476 H467 0.930 . S
C476 C474 1.378 . S
C476 C477 1.367 . S
C477 C476 1.367 . S
C477 C479 1.433 . S
C478 C474 1.350 . S
C478 C475 1.463 . S
C478 N482 1.427 . S
C479 H469 0.929 . S
C479 C477 1.433 . S
C479 N482 1.384 . S
C480 H471 0.929 . S
C480 C472 1.378 . S
C480 C475 1.350 . S
C481 H468 0.929 . S
C481 C473 1.433 . S
C481 N483 1.384 . S
N482 C478 1.427 . S
N482 C479 1.384 . S
N483 C475 1.427 . S
N483 C481 1.384 . S
H484 C490 0.930 . S
H485 C494 0.930 . S
H486 C499 0.929 . S
H487 C497 0.929 . S
H488 C492 0.929 . S
H489 C498 0.929 . S
C490 H484 0.930 . S
C490 C491 1.367 . S
C490 C498 1.378 . S
C491 C490 1.367 . S
C491 C499 1.433 . S
C492 H488 0.929 . S
C492 C494 1.378 . S
C492 C496 1.350 . S
C493 C496 1.463 . S
C493 C498 1.350 . S
C493 N501 1.427 . S
C494 H485 0.930 . S
C494 C492 1.378 . S
C494 C495 1.367 . S
C495 C494 1.367 . S
C495 C497 1.433 . S
C496 C492 1.350 . S
C496 C493 1.463 . S
C496 N500 1.427 . S
C497 H487 0.929 . S
C497 C495 1.433 . S
C497 N500 1.384 . S
C498 H489 0.929 . S
C498 C490 1.378 . S
C498 C493 1.350 . S
C499 H486 0.929 . S
C499 C491 1.433 . S
C499 N501 1.384 . S
N500 C496 1.427 . S
N500 C497 1.384 . S
N501 C493 1.427 . S
N501 C499 1.384 . S
H502 C508 0.930 . S
H503 C512 0.930 . S
H504 C517 0.929 . S
H505 C515 0.929 . S
H506 C510 0.929 . S
H507 C516 0.929 . S
C508 H502 0.930 . S
C508 C509 1.367 . S
C508 C516 1.378 . S
C509 C508 1.367 . S
C509 C517 1.433 . S
C510 H506 0.929 . S
C510 C512 1.378 . S
C510 C514 1.350 . S
C511 C514 1.463 . S
C511 C516 1.350 . S
C511 N519 1.427 . S
C512 H503 0.930 . S
C512 C510 1.378 . S
C512 C513 1.367 . S
C513 C512 1.367 . S
C513 C515 1.433 . S
C514 C510 1.350 . S
C514 C511 1.463 . S
C514 N518 1.427 . S
C515 H505 0.929 . S
C515 C513 1.433 . S
C515 N518 1.384 . S
C516 H507 0.929 . S
C516 C508 1.378 . S
C516 C511 1.350 . S
C517 H504 0.929 . S
C517 C509 1.433 . S
C517 N519 1.384 . S
N518 C514 1.427 . S
N518 C515 1.384 . S
N519 C511 1.427 . S
N519 C517 1.384 . S
H520 C526 0.930 . S
H521 C530 0.930 . S
H522 C535 0.929 . S
H523 C533 0.929 . S
H524 C528 0.929 . S
H525 C534 0.929 . S
C526 H520 0.930 . S
C526 C527 1.367 . S
C526 C534 1.378 . S
C527 C526 1.367 . S
C527 C535 1.433 . S
C528 H524 0.929 . S
C528 C530 1.378 . S
C528 C532 1.350 . S
C529 C532 1.463 . S
C529 C534 1.350 . S
C529 N537 1.427 . S
C530 H521 0.930 . S
C530 C528 1.378 . S
C530 C531 1.367 . S
C531 C530 1.367 . S
C531 C533 1.433 . S
C532 C528 1.350 . S
C532 C529 1.463 . S
C532 N536 1.427 . S
C533 H523 0.929 . S
C533 C531 1.433 . S
C533 N536 1.384 . S
C534 H525 0.929 . S
C534 C526 1.378 . S
C534 C529 1.350 . S
C535 H522 0.929 . S
C535 C527 1.433 . S
C535 N537 1.384 . S
N536 C532 1.427 . S
N536 C533 1.384 . S
N537 C529 1.427 . S
N537 C535 1.384 . S
H538 C544 0.930 . S
H539 C548 0.930 . S
H540 C553 0.929 . S
H541 C551 0.929 . S
H542 C546 0.929 . S
H543 C552 0.929 . S
C544 H538 0.930 . S
C544 C545 1.367 . S
C544 C552 1.378 . S
C545 C544 1.367 . S
C545 C553 1.433 . S
C546 H542 0.929 . S
C546 C548 1.378 . S
C546 C550 1.350 . S
C547 C550 1.463 . S
C547 C552 1.350 . S
C547 N555 1.427 . S
C548 H539 0.930 . S
C548 C546 1.378 . S
C548 C549 1.367 . S
C549 C548 1.367 . S
C549 C551 1.433 . S
C550 C546 1.350 . S
C550 C547 1.463 . S
C550 N554 1.427 . S
C551 H541 0.929 . S
C551 C549 1.433 . S
C551 N554 1.384 . S
C552 H543 0.929 . S
C552 C544 1.378 . S
C552 C547 1.350 . S
C553 H540 0.929 . S
C553 C545 1.433 . S
C553 N555 1.384 . S
N554 C550 1.427 . S
N554 C551 1.384 . S
N555 C547 1.427 . S
N555 C553 1.384 . S
H556 C562 0.930 . S
H557 C566 0.930 . S
H558 C571 0.929 . S
H559 C569 0.929 . S
H560 C564 0.929 . S
H561 C570 0.929 . S
C562 H556 0.930 . S
C562 C563 1.367 . S
C562 C570 1.378 . S
C563 C562 1.367 . S
C563 C571 1.433 . S
C564 H560 0.929 . S
C564 C566 1.378 . S
C564 C568 1.350 . S
C565 C568 1.463 . S
C565 C570 1.350 . S
C565 N573 1.427 . S
C566 H557 0.930 . S
C566 C564 1.378 . S
C566 C567 1.367 . S
C567 C566 1.367 . S
C567 C569 1.433 . S
C568 C564 1.350 . S
C568 C565 1.463 . S
C568 N572 1.427 . S
C569 H559 0.929 . S
C569 C567 1.433 . S
C569 N572 1.384 . S
C570 H561 0.929 . S
C570 C562 1.378 . S
C570 C565 1.350 . S
C571 H558 0.929 . S
C571 C563 1.433 . S
C571 N573 1.384 . S
N572 C568 1.427 . S
N572 C569 1.384 . S
N573 C565 1.427 . S
N573 C571 1.384 . S
H574 C580 0.930 . S
H575 C584 0.930 . S
H576 C589 0.929 . S
H577 C587 0.929 . S
H578 C582 0.929 . S
H579 C588 0.929 . S
C580 H574 0.930 . S
C580 C581 1.367 . S
C580 C588 1.378 . S
C581 C580 1.367 . S
C581 C589 1.433 . S
C582 H578 0.929 . S
C582 C584 1.378 . S
C582 C586 1.350 . S
C583 C586 1.463 . S
C583 C588 1.350 . S
C583 N591 1.427 . S
C584 H575 0.930 . S
C584 C582 1.378 . S
C584 C585 1.367 . S
C585 C584 1.367 . S
C585 C587 1.433 . S
C586 C582 1.350 . S
C586 C583 1.463 . S
C586 N590 1.427 . S
C587 H577 0.929 . S
C587 C585 1.433 . S
C587 N590 1.384 . S
C588 H579 0.929 . S
C588 C580 1.378 . S
C588 C583 1.350 . S
C589 H576 0.929 . S
C589 C581 1.433 . S
C589 N591 1.384 . S
N590 C586 1.427 . S
N590 C587 1.384 . S
N591 C583 1.427 . S
N591 C589 1.384 . S
H592 C598 0.930 . S
H593 C602 0.930 . S
H594 C607 0.929 . S
H595 C605 0.929 . S
H596 C600 0.929 . S
H597 C606 0.929 . S
C598 H592 0.930 . S
C598 C599 1.367 . S
C598 C606 1.378 . S
C599 C598 1.367 . S
C599 C607 1.433 . S
C600 H596 0.929 . S
C600 C602 1.378 . S
C600 C604 1.350 . S
C601 C604 1.463 . S
C601 C606 1.350 . S
C601 N609 1.427 . S
C602 H593 0.930 . S
C602 C600 1.378 . S
C602 C603 1.367 . S
C603 C602 1.367 . S
C603 C605 1.433 . S
C604 C600 1.350 . S
C604 C601 1.463 . S
C604 N608 1.427 . S
C605 H595 0.929 . S
C605 C603 1.433 . S
C605 N608 1.384 . S
C606 H597 0.929 . S
C606 C598 1.378 . S
C606 C601 1.350 . S
C607 H594 0.929 . S
C607 C599 1.433 . S
C607 N609 1.384 . S
N608 C604 1.427 . S
N608 C605 1.384 . S
N609 C601 1.427 . S
N609 C607 1.384 . S
H610 C616 0.930 . S
H611 C620 0.930 . S
H612 C625 0.929 . S
H613 C623 0.929 . S
H614 C618 0.929 . S
H615 C624 0.929 . S
C616 H610 0.930 . S
C616 C617 1.367 . S
C616 C624 1.378 . S
C617 C616 1.367 . S
C617 C625 1.433 . S
C618 H614 0.929 . S
C618 C620 1.378 . S
C618 C622 1.350 . S
C619 C622 1.463 . S
C619 C624 1.350 . S
C619 N627 1.427 . S
C620 H611 0.930 . S
C620 C618 1.378 . S
C620 C621 1.367 . S
C621 C620 1.367 . S
C621 C623 1.433 . S
C622 C618 1.350 . S
C622 C619 1.463 . S
C622 N626 1.427 . S
C623 H613 0.929 . S
C623 C621 1.433 . S
C623 N626 1.384 . S
C624 H615 0.929 . S
C624 C616 1.378 . S
C624 C619 1.350 . S
C625 H612 0.929 . S
C625 C617 1.433 . S
C625 N627 1.384 . S
N626 C622 1.427 . S
N626 C623 1.384 . S
N627 C619 1.427 . S
N627 C625 1.384 . S
H628 C634 0.930 . S
H629 C638 0.930 . S
H630 C643 0.929 . S
H631 C641 0.929 . S
H632 C636 0.929 . S
H633 C642 0.929 . S
C634 H628 0.930 . S
C634 C635 1.367 . S
C634 C642 1.378 . S
C635 C634 1.367 . S
C635 C643 1.433 . S
C636 H632 0.929 . S
C636 C638 1.378 . S
C636 C640 1.350 . S
C637 C640 1.463 . S
C637 C642 1.350 . S
C637 N645 1.427 . S
C638 H629 0.930 . S
C638 C636 1.378 . S
C638 C639 1.367 . S
C639 C638 1.367 . S
C639 C641 1.433 . S
C640 C636 1.350 . S
C640 C637 1.463 . S
C640 N644 1.427 . S
C641 H631 0.929 . S
C641 C639 1.433 . S
C641 N644 1.384 . S
C642 H633 0.929 . S
C642 C634 1.378 . S
C642 C637 1.350 . S
C643 H630 0.929 . S
C643 C635 1.433 . S
C643 N645 1.384 . S
N644 C640 1.427 . S
N644 C641 1.384 . S
N645 C637 1.427 . S
N645 C643 1.384 . S
H646 C652 0.930 . S
H647 C656 0.930 . S
H648 C661 0.929 . S
H649 C659 0.929 . S
H650 C654 0.929 . S
H651 C660 0.929 . S
C652 H646 0.930 . S
C652 C653 1.367 . S
C652 C660 1.378 . S
C653 C652 1.367 . S
C653 C661 1.433 . S
C654 H650 0.929 . S
C654 C656 1.378 . S
C654 C658 1.350 . S
C655 C658 1.463 . S
C655 C660 1.350 . S
C655 N663 1.427 . S
C656 H647 0.930 . S
C656 C654 1.378 . S
C656 C657 1.367 . S
C657 C656 1.367 . S
C657 C659 1.433 . S
C658 C654 1.350 . S
C658 C655 1.463 . S
C658 N662 1.427 . S
C659 H649 0.929 . S
C659 C657 1.433 . S
C659 N662 1.384 . S
C660 H651 0.929 . S
C660 C652 1.378 . S
C660 C655 1.350 . S
C661 H648 0.929 . S
C661 C653 1.433 . S
C661 N663 1.384 . S
N662 C658 1.427 . S
N662 C659 1.384 . S
N663 C655 1.427 . S
N663 C661 1.384 . S
H664 C670 0.930 . S
H665 C674 0.930 . S
H666 C679 0.929 . S
H667 C677 0.929 . S
H668 C672 0.929 . S
H669 C678 0.929 . S
C670 H664 0.930 . S
C670 C671 1.367 . S
C670 C678 1.378 . S
C671 C670 1.367 . S
C671 C679 1.433 . S
C672 H668 0.929 . S
C672 C674 1.378 . S
C672 C676 1.350 . S
C673 C676 1.463 . S
C673 C678 1.350 . S
C673 N681 1.427 . S
C674 H665 0.930 . S
C674 C672 1.378 . S
C674 C675 1.367 . S
C675 C674 1.367 . S
C675 C677 1.433 . S
C676 C672 1.350 . S
C676 C673 1.463 . S
C676 N680 1.427 . S
C677 H667 0.929 . S
C677 C675 1.433 . S
C677 N680 1.384 . S
C678 H669 0.929 . S
C678 C670 1.378 . S
C678 C673 1.350 . S
C679 H666 0.929 . S
C679 C671 1.433 . S
C679 N681 1.384 . S
N680 C676 1.427 . S
N680 C677 1.384 . S
N681 C673 1.427 . S
N681 C679 1.384 . S
H682 C688 0.930 . S
H683 C692 0.930 . S
H684 C697 0.929 . S
H685 C695 0.929 . S
H686 C690 0.929 . S
H687 C696 0.929 . S
C688 H682 0.930 . S
C688 C689 1.367 . S
C688 C696 1.378 . S
C689 C688 1.367 . S
C689 C697 1.433 . S
C690 H686 0.929 . S
C690 C692 1.378 . S
C690 C694 1.350 . S
C691 C694 1.463 . S
C691 C696 1.350 . S
C691 N699 1.427 . S
C692 H683 0.930 . S
C692 C690 1.378 . S
C692 C693 1.367 . S
C693 C692 1.367 . S
C693 C695 1.433 . S
C694 C690 1.350 . S
C694 C691 1.463 . S
C694 N698 1.427 . S
C695 H685 0.929 . S
C695 C693 1.433 . S
C695 N698 1.384 . S
C696 H687 0.929 . S
C696 C688 1.378 . S
C696 C691 1.350 . S
C697 H684 0.929 . S
C697 C689 1.433 . S
C697 N699 1.384 . S
N698 C694 1.427 . S
N698 C695 1.384 . S
N699 C691 1.427 . S
N699 C697 1.384 . S
H700 C706 0.930 . S
H701 C710 0.930 . S
H702 C715 0.929 . S
H703 C713 0.929 . S
H704 C708 0.929 . S
H705 C714 0.929 . S
C706 H700 0.930 . S
C706 C707 1.367 . S
C706 C714 1.378 . S
C707 C706 1.367 . S
C707 C715 1.433 . S
C708 H704 0.929 . S
C708 C710 1.378 . S
C708 C712 1.350 . S
C709 C712 1.463 . S
C709 C714 1.350 . S
C709 N717 1.427 . S
C710 H701 0.930 . S
C710 C708 1.378 . S
C710 C711 1.367 . S
C711 C710 1.367 . S
C711 C713 1.433 . S
C712 C708 1.350 . S
C712 C709 1.463 . S
C712 N716 1.427 . S
C713 H703 0.929 . S
C713 C711 1.433 . S
C713 N716 1.384 . S
C714 H705 0.929 . S
C714 C706 1.378 . S
C714 C709 1.350 . S
C715 H702 0.929 . S
C715 C707 1.433 . S
C715 N717 1.384 . S
N716 C712 1.427 . S
N716 C713 1.384 . S
N717 C709 1.427 . S
N717 C715 1.384 . S
H718 C724 0.930 . S
H719 C728 0.930 . S
H720 C733 0.929 . S
H721 C731 0.929 . S
H722 C726 0.929 . S
H723 C732 0.929 . S
C724 H718 0.930 . S
C724 C725 1.367 . S
C724 C732 1.378 . S
C725 C724 1.367 . S
C725 C733 1.433 . S
C726 H722 0.929 . S
C726 C728 1.378 . S
C726 C730 1.350 . S
C727 C730 1.463 . S
C727 C732 1.350 . S
C727 N735 1.427 . S
C728 H719 0.930 . S
C728 C726 1.378 . S
C728 C729 1.367 . S
C729 C728 1.367 . S
C729 C731 1.433 . S
C730 C726 1.350 . S
C730 C727 1.463 . S
C730 N734 1.427 . S
C731 H721 0.929 . S
C731 C729 1.433 . S
C731 N734 1.384 . S
C732 H723 0.929 . S
C732 C724 1.378 . S
C732 C727 1.350 . S
C733 H720 0.929 . S
C733 C725 1.433 . S
C733 N735 1.384 . S
N734 C730 1.427 . S
N734 C731 1.384 . S
N735 C727 1.427 . S
N735 C733 1.384 . S
H736 C742 0.930 . S
H737 C746 0.930 . S
H738 C751 0.929 . S
H739 C749 0.929 . S
H740 C744 0.929 . S
H741 C750 0.929 . S
C742 H736 0.930 . S
C742 C743 1.367 . S
C742 C750 1.378 . S
C743 C742 1.367 . S
C743 C751 1.433 . S
C744 H740 0.929 . S
C744 C746 1.378 . S
C744 C748 1.350 . S
C745 C748 1.463 . S
C745 C750 1.350 . S
C745 N753 1.427 . S
C746 H737 0.930 . S
C746 C744 1.378 . S
C746 C747 1.367 . S
C747 C746 1.367 . S
C747 C749 1.433 . S
C748 C744 1.350 . S
C748 C745 1.463 . S
C748 N752 1.427 . S
C749 H739 0.929 . S
C749 C747 1.433 . S
C749 N752 1.384 . S
C750 H741 0.929 . S
C750 C742 1.378 . S
C750 C745 1.350 . S
C751 H738 0.929 . S
C751 C743 1.433 . S
C751 N753 1.384 . S
N752 C748 1.427 . S
N752 C749 1.384 . S
N753 C745 1.427 . S
N753 C751 1.384 . S
H754 C760 0.930 . S
H755 C764 0.930 . S
H756 C769 0.929 . S
H757 C767 0.929 . S
H758 C762 0.929 . S
H759 C768 0.929 . S
C760 H754 0.930 . S
C760 C761 1.367 . S
C760 C768 1.378 . S
C761 C760 1.367 . S
C761 C769 1.433 . S
C762 H758 0.929 . S
C762 C764 1.378 . S
C762 C766 1.350 . S
C763 C766 1.463 . S
C763 C768 1.350 . S
C763 N771 1.427 . S
C764 H755 0.930 . S
C764 C762 1.378 . S
C764 C765 1.367 . S
C765 C764 1.367 . S
C765 C767 1.433 . S
C766 C762 1.350 . S
C766 C763 1.463 . S
C766 N770 1.427 . S
C767 H757 0.929 . S
C767 C765 1.433 . S
C767 N770 1.384 . S
C768 H759 0.929 . S
C768 C760 1.378 . S
C768 C763 1.350 . S
C769 H756 0.929 . S
C769 C761 1.433 . S
C769 N771 1.384 . S
N770 C766 1.427 . S
N770 C767 1.384 . S
N771 C763 1.427 . S
N771 C769 1.384 . S
H772 C778 0.930 . S
H773 C782 0.930 . S
H774 C787 0.929 . S
H775 C785 0.929 . S
H776 C780 0.929 . S
H777 C786 0.929 . S
C778 H772 0.930 . S
C778 C779 1.367 . S
C778 C786 1.378 . S
C779 C778 1.367 . S
C779 C787 1.433 . S
C780 H776 0.929 . S
C780 C782 1.378 . S
C780 C784 1.350 . S
C781 C784 1.463 . S
C781 C786 1.350 . S
C781 N789 1.427 . S
C782 H773 0.930 . S
C782 C780 1.378 . S
C782 C783 1.367 . S
C783 C782 1.367 . S
C783 C785 1.433 . S
C784 C780 1.350 . S
C784 C781 1.463 . S
C784 N788 1.427 . S
C785 H775 0.929 . S
C785 C783 1.433 . S
C785 N788 1.384 . S
C786 H777 0.929 . S
C786 C778 1.378 . S
C786 C781 1.350 . S
C787 H774 0.929 . S
C787 C779 1.433 . S
C787 N789 1.384 . S
N788 C784 1.427 . S
N788 C785 1.384 . S
N789 C781 1.427 . S
N789 C787 1.384 . S
H790 C796 0.930 . S
H791 C800 0.930 . S
H792 C805 0.929 . S
H793 C803 0.929 . S
H794 C798 0.929 . S
H795 C804 0.929 . S
C796 H790 0.930 . S
C796 C797 1.367 . S
C796 C804 1.378 . S
C797 C796 1.367 . S
C797 C805 1.433 . S
C798 H794 0.929 . S
C798 C800 1.378 . S
C798 C802 1.350 . S
C799 C802 1.463 . S
C799 C804 1.350 . S
C799 N807 1.427 . S
C800 H791 0.930 . S
C800 C798 1.378 . S
C800 C801 1.367 . S
C801 C800 1.367 . S
C801 C803 1.433 . S
C802 C798 1.350 . S
C802 C799 1.463 . S
C802 N806 1.427 . S
C803 H793 0.929 . S
C803 C801 1.433 . S
C803 N806 1.384 . S
C804 H795 0.929 . S
C804 C796 1.378 . S
C804 C799 1.350 . S
C805 H792 0.929 . S
C805 C797 1.433 . S
C805 N807 1.384 . S
N806 C802 1.427 . S
N806 C803 1.384 . S
N807 C799 1.427 . S
N807 C805 1.384 . S
H808 C814 0.930 . S
H809 C818 0.930 . S
H810 C823 0.929 . S
H811 C821 0.929 . S
H812 C816 0.929 . S
H813 C822 0.929 . S
C814 H808 0.930 . S
C814 C815 1.367 . S
C814 C822 1.378 . S
C815 C814 1.367 . S
C815 C823 1.433 . S
C816 H812 0.929 . S
C816 C818 1.378 . S
C816 C820 1.350 . S
C817 C820 1.463 . S
C817 C822 1.350 . S
C817 N825 1.427 . S
C818 H809 0.930 . S
C818 C816 1.378 . S
C818 C819 1.367 . S
C819 C818 1.367 . S
C819 C821 1.433 . S
C820 C816 1.350 . S
C820 C817 1.463 . S
C820 N824 1.427 . S
C821 H811 0.929 . S
C821 C819 1.433 . S
C821 N824 1.384 . S
C822 H813 0.929 . S
C822 C814 1.378 . S
C822 C817 1.350 . S
C823 H810 0.929 . S
C823 C815 1.433 . S
C823 N825 1.384 . S
N824 C820 1.427 . S
N824 C821 1.384 . S
N825 C817 1.427 . S
N825 C823 1.384 . S
H826 C832 0.930 . S
H827 C836 0.930 . S
H828 C841 0.929 . S
H829 C839 0.929 . S
H830 C834 0.929 . S
H831 C840 0.929 . S
C832 H826 0.930 . S
C832 C833 1.367 . S
C832 C840 1.378 . S
C833 C832 1.367 . S
C833 C841 1.433 . S
C834 H830 0.929 . S
C834 C836 1.378 . S
C834 C838 1.350 . S
C835 C838 1.463 . S
C835 C840 1.350 . S
C835 N843 1.427 . S
C836 H827 0.930 . S
C836 C834 1.378 . S
C836 C837 1.367 . S
C837 C836 1.367 . S
C837 C839 1.433 . S
C838 C834 1.350 . S
C838 C835 1.463 . S
C838 N842 1.427 . S
C839 H829 0.929 . S
C839 C837 1.433 . S
C839 N842 1.384 . S
C840 H831 0.929 . S
C840 C832 1.378 . S
C840 C835 1.350 . S
C841 H828 0.929 . S
C841 C833 1.433 . S
C841 N843 1.384 . S
N842 C838 1.427 . S
N842 C839 1.384 . S
N843 C835 1.427 . S
N843 C841 1.384 . S
H844 C850 0.930 . S
H845 C854 0.930 . S
H846 C859 0.929 . S
H847 C857 0.929 . S
H848 C852 0.929 . S
H849 C858 0.929 . S
C850 H844 0.930 . S
C850 C851 1.367 . S
C850 C858 1.378 . S
C851 C850 1.367 . S
C851 C859 1.433 . S
C852 H848 0.929 . S
C852 C854 1.378 . S
C852 C856 1.350 . S
C853 C856 1.463 . S
C853 C858 1.350 . S
C853 N861 1.427 . S
C854 H845 0.930 . S
C854 C852 1.378 . S
C854 C855 1.367 . S
C855 C854 1.367 . S
C855 C857 1.433 . S
C856 C852 1.350 . S
C856 C853 1.463 . S
C856 N860 1.427 . S
C857 H847 0.929 . S
C857 C855 1.433 . S
C857 N860 1.384 . S
C858 H849 0.929 . S
C858 C850 1.378 . S
C858 C853 1.350 . S
C859 H846 0.929 . S
C859 C851 1.433 . S
C859 N861 1.384 . S
N860 C856 1.427 . S
N860 C857 1.384 . S
N861 C853 1.427 . S
N861 C859 1.384 . S
H862 C868 0.930 . S
H863 C872 0.930 . S
H864 C877 0.929 . S
H865 C875 0.929 . S
H866 C870 0.929 . S
H867 C876 0.929 . S
C868 H862 0.930 . S
C868 C869 1.367 . S
C868 C876 1.378 . S
C869 C868 1.367 . S
C869 C877 1.433 . S
C870 H866 0.929 . S
C870 C872 1.378 . S
C870 C874 1.350 . S
C871 C874 1.463 . S
C871 C876 1.350 . S
C871 N879 1.427 . S
C872 H863 0.930 . S
C872 C870 1.378 . S
C872 C873 1.367 . S
C873 C872 1.367 . S
C873 C875 1.433 . S
C874 C870 1.350 . S
C874 C871 1.463 . S
C874 N878 1.427 . S
C875 H865 0.929 . S
C875 C873 1.433 . S
C875 N878 1.384 . S
C876 H867 0.929 . S
C876 C868 1.378 . S
C876 C871 1.350 . S
C877 H864 0.929 . S
C877 C869 1.433 . S
C877 N879 1.384 . S
N878 C874 1.427 . S
N878 C875 1.384 . S
N879 C871 1.427 . S
N879 C877 1.384 . S
C455 C1 1.262 . S
C459 C294 1.278 . S
C473 C67 0.984 . S
C477 C343 0.983 . S
C495 C378 2.460 . S
C491 C97 2.493 . S
C509 C133 2.407 . S
C513 C417 2.346 . S
C531 C338 2.496 . S
C527 C25 2.414 . S
C549 C297 0.857 . S
C545 C37 0.867 . S
C567 C427 1.898 . S
C563 C103 1.951 . S
C585 C386 1.612 . S
C581 C109 1.640 . S
C599 C31 1.688 . S
C603 C414 1.741 . S
C621 C346 2.310 . S
C617 C73 2.397 . S
C635 C139 2.363 . S
C639 C307 2.354 . S
C653 C61 0.840 . S
C657 C383 0.840 . S
C675 C303 1.282 . S
C671 C175 1.221 . S
C689 C181 0.957 . S
C693 C334 0.959 . S
C707 C247 2.519 . S
C711 C387 2.483 . S
C725 C277 2.394 . S
C729 C426 2.330 . S
C743 C145 2.320 . S
C747 C347 2.485 . S
C765 C306 0.832 . S
C761 C211 0.851 . S
C783 C418 1.886 . S
C779 C217 1.925 . S
C801 C377 1.623 . S
C797 C283 1.656 . S
C815 C169 1.625 . S
C819 C423 1.736 . S
C837 C337 2.315 . S
C833 C241 2.399 . S
C855 C298 2.338 . S
C851 C253 2.350 . S
C869 C205 0.859 . S
C873 C374 0.854 . S
