# Generated by pormake.
# Topology ssa, (4,4)-cn, num edge types: 1
# Building blocks:
#     Node 0, Type 0, BuildingBlock: KOZSID_clean_sbu_0, # of connection points: 4
#     Node 1, Type 0, BuildingBlock: KOZSID_clean_sbu_0, # of connection points: 4
#     Node 2, Type 0, BuildingBlock: KOZSID_clean_sbu_0, # of connection points: 4
#     Node 3, Type 0, BuildingBlock: KOZSID_clean_sbu_0, # of connection points: 4
#     Node 4, Type 0, BuildingBlock: KOZSID_clean_sbu_0, # of connection points: 4
#     Node 5, Type 0, BuildingBlock: KOZSID_clean_sbu_0, # of connection points: 4
#     Node 6, Type 1, BuildingBlock: NAWXER_clean_linker_0, # of connection points: 4
#     Node 7, Type 1, BuildingBlock: NAWXER_clean_linker_0, # of connection points: 4
#     Node 8, Type 1, BuildingBlock: NAWXER_clean_linker_0, # of connection points: 4
#     Node 9, Type 1, BuildingBlock: NAWXER_clean_linker_0, # of connection points: 4
#     Node 10, Type 1, BuildingBlock: NAWXER_clean_linker_0, # of connection points: 4
#     Node 11, Type 1, BuildingBlock: NAWXER_clean_linker_0, # of connection points: 4
#     Edge 12, Type (0, 1), BuildingBlock: CIFDUS_clean_linker_0, # of connection points: 2
#     Edge 13, Type (0, 1), BuildingBlock: CIFDUS_clean_linker_0, # of connection points: 2
#     Edge 14, Type (0, 1), BuildingBlock: CIFDUS_clean_linker_0, # of connection points: 2
#     Edge 15, Type (0, 1), BuildingBlock: CIFDUS_clean_linker_0, # of connection points: 2
#     Edge 16, Type (0, 1), BuildingBlock: CIFDUS_clean_linker_0, # of connection points: 2
#     Edge 17, Type (0, 1), BuildingBlock: CIFDUS_clean_linker_0, # of connection points: 2
#     Edge 18, Type (0, 1), BuildingBlock: CIFDUS_clean_linker_0, # of connection points: 2
#     Edge 19, Type (0, 1), BuildingBlock: CIFDUS_clean_linker_0, # of connection points: 2
#     Edge 20, Type (0, 1), BuildingBlock: CIFDUS_clean_linker_0, # of connection points: 2
#     Edge 21, Type (0, 1), BuildingBlock: CIFDUS_clean_linker_0, # of connection points: 2
#     Edge 22, Type (0, 1), BuildingBlock: CIFDUS_clean_linker_0, # of connection points: 2
#     Edge 23, Type (0, 1), BuildingBlock: CIFDUS_clean_linker_0, # of connection points: 2
#     Edge 24, Type (0, 1), BuildingBlock: CIFDUS_clean_linker_0, # of connection points: 2
#     Edge 25, Type (0, 1), BuildingBlock: CIFDUS_clean_linker_0, # of connection points: 2
#     Edge 26, Type (0, 1), BuildingBlock: CIFDUS_clean_linker_0, # of connection points: 2
#     Edge 27, Type (0, 1), BuildingBlock: CIFDUS_clean_linker_0, # of connection points: 2
#     Edge 28, Type (0, 1), BuildingBlock: CIFDUS_clean_linker_0, # of connection points: 2
#     Edge 29, Type (0, 1), BuildingBlock: CIFDUS_clean_linker_0, # of connection points: 2
#     Edge 30, Type (0, 1), BuildingBlock: CIFDUS_clean_linker_0, # of connection points: 2
#     Edge 31, Type (0, 1), BuildingBlock: CIFDUS_clean_linker_0, # of connection points: 2
#     Edge 32, Type (0, 1), BuildingBlock: CIFDUS_clean_linker_0, # of connection points: 2
#     Edge 33, Type (0, 1), BuildingBlock: CIFDUS_clean_linker_0, # of connection points: 2
#     Edge 34, Type (0, 1), BuildingBlock: CIFDUS_clean_linker_0, # of connection points: 2
#     Edge 35, Type (0, 1), BuildingBlock: CIFDUS_clean_linker_0, # of connection points: 2
# Relax obj value: 0.007
# Max RMSD: 0.023
# Mean RMSD: 0.013
data_MOF--net-ssa--node1-KOZSID_clean_sbu_0--node2-NAWXER_clean_linker_0--edge1-CIFDUS_clean_linker_0
_symmetry_space_group_name_H-M    P1
_symmetry_Int_Tables_number       1
_symmetry_cell_setting            triclinic
loop_
_symmetry_equiv_pos_as_xyz
'x, y, z'
_cell_length_a     56.940253
_cell_length_b     58.409914
_cell_length_c     40.577598
_cell_angle_alpha  87.388703
_cell_angle_beta   89.850007
_cell_angle_gamma 122.47591
loop_
_atom_site_label
_atom_site_type_symbol
_atom_site_fract_x
_atom_site_fract_y
_atom_site_fract_z
_atom_type_partial_charge
C0 C 0.95635 0.51603 0.99939 0.0
C1 C 0.93139 0.51008 0.01375 0.0
C2 C 0.92609 0.4929 0.04065 0.0
C3 C 0.94812 0.48952 0.04131 0.0
N4 N 0.96741 0.50384 0.01674 0.0
Co5 Co 0.0026 0.50463 0.0082 0.0
N6 N 0.9934 0.47721 0.04562 0.0
C7 C 0.96981 0.46398 0.06478 0.0
C8 C 0.96956 0.44644 0.0886 0.0
C9 C 0.99469 0.44897 0.08484 0.0
C10 C 0.00895 0.46815 0.059 0.0
N11 N 0.03815 0.50589 1.00028 0.0
C12 C 0.04998 0.49501 0.01882 0.0
C13 C 0.07623 0.50316 0.00618 0.0
C14 C 0.08114 0.51972 0.97883 0.0
C15 C 0.05793 0.52103 0.97646 0.0
N16 N 0.01148 0.53164 0.97028 0.0
C17 C 0.03415 0.54336 0.94965 0.0
C18 C 0.03365 0.55948 0.92446 0.0
C19 C 0.00894 0.55763 0.92883 0.0
C20 C 0.9958 0.54052 0.95675 0.0
N21 N 0.02243 0.53445 0.03891 0.0
C22 C 0.05219 0.57483 0.0846 0.0
C23 C 0.06311 0.57737 0.05273 0.0
C24 C 0.04793 0.55724 0.03042 0.0
C25 C 0.02574 0.55202 0.09272 0.0
C26 C 0.01145 0.53227 0.06983 0.0
N27 N 0.98264 0.47472 0.97748 0.0
C28 C 0.98051 0.4548 0.92559 0.0
C29 C 0.95238 0.43456 0.93156 0.0
C30 C 0.94002 0.4345 0.96142 0.0
C31 C 0.95543 0.45428 0.98388 0.0
C32 C 0.99506 0.47454 0.94857 0.0
H33 H 0.94458 0.45281 0.00601 0.0
H34 H 0.01623 0.48961 0.94218 0.0
H35 H 0.05744 0.56033 0.00661 0.0
H36 H 0.99168 0.51524 0.07793 0.0
C37 C 0.94982 0.47085 0.06235 0.0
C38 C 0.96778 0.53198 0.96824 0.0
C39 C 0.03783 0.47834 0.04952 0.0
C40 C 0.05495 0.53781 0.95363 0.0
H41 H 0.91798 0.51678 0.00504 0.0
H42 H 0.90781 0.48317 0.05696 0.0
H43 H 0.95355 0.43419 0.10741 0.0
H44 H 0.0021 0.43859 0.10011 0.0
H45 H 0.0909 0.49853 0.01609 0.0
H46 H 0.09991 0.53044 0.96332 0.0
H47 H 0.04902 0.57057 0.90465 0.0
H48 H 1.00121 0.5672 0.91266 0.0
H49 H 0.08358 0.59449 0.04512 0.0
H50 H 0.01593 0.54927 0.11672 0.0
H51 H 0.9914 0.45556 0.90324 0.0
H52 H 0.91824 0.41968 0.96734 0.0
C53 C 0.54021 0.00724 0.56869 0.0
C54 C 0.54187 0.99522 0.59814 0.0
C55 C 0.51722 0.9708 0.60266 0.0
C56 C 0.50206 0.96923 0.57571 0.0
N57 N 0.5158 0.99091 0.55385 0.0
Co58 Co 0.50135 0.99749 0.51181 0.0
N59 N 0.46378 0.96337 0.52056 0.0
C60 C 0.45533 0.94588 0.54744 0.0
C61 C 0.42869 0.92375 0.54575 0.0
C62 C 0.41979 0.92697 0.51571 0.0
C63 C 0.44168 0.95092 0.50073 0.0
N64 N 0.48691 0.00388 0.46958 0.0
C65 C 0.46267 0.98732 0.45448 0.0
C66 C 0.46167 0.99866 0.4241 0.0
C67 C 0.4863 0.02305 0.41961 0.0
C68 C 0.50093 0.02516 0.44729 0.0
N69 N 0.5389 0.03178 0.5033 0.0
C70 C 0.54702 0.04954 0.47675 0.0
C71 C 0.57306 0.07236 0.47899 0.0
C72 C 0.58196 0.06935 0.50907 0.0
C73 C 0.56081 0.04459 0.52346 0.0
N74 N 0.5134 0.97645 0.48767 0.0
C75 C 0.52331 0.94317 0.44958 0.0
C76 C 0.5329 0.96987 0.43857 0.0
C77 C 0.5277 0.98605 0.45787 0.0
C78 C 0.51013 0.93396 0.48066 0.0
C79 C 0.50573 0.95087 0.49927 0.0
N80 N 0.48921 0.01843 0.53598 0.0
C81 C 0.48924 0.05949 0.54196 0.0
C82 C 0.47736 0.05059 0.57382 0.0
C83 C 0.47039 0.02481 0.58572 0.0
C84 C 0.4764 0.00924 0.56659 0.0
C85 C 0.49482 0.04316 0.52357 0.0
H86 H 0.47094 0.99004 0.57744 0.0
H87 H 0.50426 0.05125 0.49969 0.0
H88 H 0.53479 0.00595 0.44778 0.0
H89 H 0.49542 0.94248 0.5226 0.0
C90 C 0.47396 0.94921 0.57199 0.0
C91 C 0.56144 0.03499 0.55717 0.0
C92 C 0.44121 0.95992 0.46679 0.0
C93 C 0.52866 0.04558 0.45168 0.0
H94 H 0.55876 0.00372 0.61519 0.0
H95 H 0.51065 0.95649 0.6238 0.0
H96 H 0.41756 0.90666 0.56354 0.0
H97 H 0.39987 0.91282 0.5054 0.0
H98 H 0.44534 0.98984 0.40639 0.0
H99 H 0.49324 0.03699 0.39806 0.0
H100 H 0.58373 0.08976 0.46156 0.0
H101 H 0.6014 0.08434 0.51952 0.0
H102 H 0.54341 0.97789 0.41466 0.0
H103 H 0.50295 0.9136 0.4905 0.0
H104 H 0.49504 0.07934 0.53158 0.0
H105 H 0.46049 0.01666 0.6099 0.0
C106 C 0.55181 0.53827 0.94692 0.0
C107 C 0.5578 0.55487 0.91852 0.0
C108 C 0.53489 0.55619 0.91304 0.0
C109 C 0.51642 0.5406 0.93846 0.0
N110 N 0.52638 0.52984 0.96018 0.0
Co111 Co 0.50652 0.50591 1.00067 0.0
N112 N 0.47108 0.50362 0.98936 0.0
C113 C 0.46636 0.5141 0.96162 0.0
C114 C 0.43993 0.50908 0.96061 0.0
C115 C 0.42708 0.49475 0.98955 0.0
C116 C 0.44658 0.49203 0.00672 0.0
N117 N 0.48709 0.48318 0.04217 0.0
C118 C 0.46153 0.47463 0.05528 0.0
C119 C 0.45719 0.46151 0.08621 0.0
C120 C 0.48085 0.46191 0.09294 0.0
C121 C 0.4983 0.47537 0.06603 0.0
N122 N 0.54157 0.50696 0.01089 0.0
C123 C 0.5456 0.49457 0.03723 0.0
C124 C 0.57041 0.49606 0.03584 0.0
C125 C 0.58276 0.50964 0.00643 0.0
C126 C 0.5648 0.51596 0.99165 0.0
N127 N 0.51867 0.53879 0.02568 0.0
C128 C 0.52852 0.58098 0.06585 0.0
C129 C 0.53818 0.56411 0.07452 0.0
C130 C 0.53307 0.54327 0.05421 0.0
C131 C 0.51543 0.57748 0.03583 0.0
C132 C 0.51103 0.55665 0.01614 0.0
N133 N 0.49429 0.47301 0.97578 0.0
C134 C 0.48517 0.42767 0.97322 0.0
C135 C 0.48209 0.42816 0.93903 0.0
C136 C 0.48414 0.4512 0.9239 0.0
C137 C 0.48973 0.47297 0.94263 0.0
C138 C 0.49147 0.45017 0.99088 0.0
H139 H 0.49084 0.48978 0.92953 0.0
H140 H 0.49437 0.44872 0.01666 0.0
H141 H 0.54031 0.53063 0.06257 0.0
H142 H 0.50078 0.55506 0.99368 0.0
C143 C 0.48823 0.53178 0.93947 0.0
C144 C 0.56975 0.52903 0.95855 0.0
C145 C 0.44129 0.47951 0.04007 0.0
C146 C 0.52514 0.48068 0.06218 0.0
H147 H 0.57627 0.56397 0.90259 0.0
H148 H 0.53146 0.56593 0.89192 0.0
H149 H 0.43143 0.51609 0.94178 0.0
H150 H 0.40604 0.48781 0.9976 0.0
H151 H 0.43903 0.45295 0.10254 0.0
H152 H 0.48499 0.45371 0.11503 0.0
H153 H 0.57814 0.48742 0.05354 0.0
H154 H 0.60236 0.51358 0.99672 0.0
H155 H 0.54865 0.56626 0.0975 0.0
H156 H 0.50825 0.59057 0.02772 0.0
H157 H 0.48299 0.4101 0.98652 0.0
H158 H 0.48222 0.45297 0.89752 0.0
C159 C 0.94866 0.44706 0.51058 0.0
C160 C 0.9241 0.42622 0.49796 0.0
C161 C 0.92577 0.43164 0.46445 0.0
C162 C 0.95095 0.45559 0.45851 0.0
N163 N 0.96497 0.46558 0.4862 0.0
Co164 Co 1.00123 0.50026 0.48893 0.0
N165 N 0.99628 0.51471 0.44613 0.0
C166 C 0.98078 0.49886 0.42188 0.0
C167 C 0.98684 0.51269 0.3918 0.0
C168 C 0.00741 0.53887 0.39754 0.0
C169 C 0.01181 0.54007 0.43138 0.0
N170 N 0.03787 0.53465 0.49164 0.0
C171 C 0.04934 0.55799 0.47234 0.0
C172 C 0.07822 0.57283 0.47494 0.0
C173 C 0.08446 0.55952 0.49849 0.0
C174 C 0.05944 0.53658 0.50785 0.0
N175 N 0.00609 0.48558 0.53138 0.0
C176 C 0.03052 0.49368 0.54539 0.0
C177 C 0.02744 0.47936 0.57461 0.0
C178 C 0.99926 0.46104 0.57899 0.0
C179 C 0.98673 0.46527 0.55208 0.0
N180 N 0.01943 0.48492 0.46538 0.0
C181 C 0.04514 0.46351 0.43046 0.0
C182 C 0.02643 0.44835 0.45686 0.0
C183 C 0.01353 0.45934 0.4738 0.0
C184 C 0.05095 0.48954 0.42221 0.0
C185 C 0.03818 0.4999 0.44004 0.0
N186 N 0.98293 0.51521 0.51245 0.0
C187 C 0.97716 0.53253 0.56249 0.0
C188 C 0.95004 0.52449 0.55401 0.0
C189 C 0.94071 0.51393 0.52307 0.0
C190 C 0.95762 0.5098 0.50247 0.0
C191 C 0.99331 0.52768 0.54131 0.0
H192 H 0.9495 0.50059 0.47936 0.0
H193 H 0.01348 0.53244 0.54917 0.0
H194 H 0.99877 0.44714 0.49367 0.0
H195 H 0.04365 0.52016 0.43305 0.0
C196 C 0.9601 0.4714 0.42875 0.0
C197 C 0.95701 0.44796 0.54507 0.0
C198 C 0.03382 0.56421 0.44799 0.0
C199 C 0.05508 0.51684 0.53241 0.0
H200 H 0.90676 0.40886 0.51133 0.0
H201 H 0.91 0.42007 0.4468 0.0
H202 H 0.97812 0.50456 0.36831 0.0
H203 H 0.01902 0.5545 0.37827 0.0
H204 H 0.09362 0.59056 0.46013 0.0
H205 H 0.1049 0.56545 0.50693 0.0
H206 H 0.0436 0.48227 0.59113 0.0
H207 H 0.98916 0.44594 0.59925 0.0
H208 H 0.02155 0.42812 0.464 0.0
H209 H 0.06569 0.50207 0.40231 0.0
H210 H 0.98516 0.54088 0.58615 0.0
H211 H 0.92004 0.50793 0.51539 0.0
C212 C 0.46106 0.98831 0.05818 0.0
C213 C 0.46137 0.00088 0.08658 0.0
C214 C 0.48618 0.02523 0.0859 0.0
C215 C 0.49962 0.02615 0.05736 0.0
N216 N 0.48483 0.00392 0.03954 0.0
Co217 Co 0.49706 0.99649 0.99704 0.0
N218 N 0.53431 0.03158 0.99736 0.0
C219 C 0.5438 0.05002 0.02084 0.0
C220 C 0.57004 0.07226 0.01406 0.0
C221 C 0.57772 0.06796 0.98426 0.0
C222 C 0.55554 0.04328 0.97453 0.0
N223 N 0.50917 0.98923 0.95432 0.0
C224 C 0.53272 0.00514 0.93542 0.0
C225 C 0.53236 0.9929 0.90674 0.0
C226 C 0.50758 0.96849 0.90734 0.0
C227 C 0.49426 0.96724 0.93618 0.0
N228 N 0.45991 0.96123 0.99697 0.0
C229 C 0.45069 0.94249 0.97386 0.0
C230 C 0.42457 0.92011 0.98081 0.0
C231 C 0.41668 0.92462 0.01033 0.0
C232 C 0.43861 0.94957 0.01978 0.0
N233 N 0.48193 0.01541 0.9717 0.0
C234 C 0.46695 0.04521 0.92999 0.0
C235 C 0.45758 0.0182 0.92449 0.0
C236 C 0.46527 0.00383 0.94541 0.0
C237 C 0.48261 0.05647 0.95793 0.0
C238 C 0.48949 0.04123 0.97847 0.0
N239 N 0.5124 0.97767 0.02214 0.0
C240 C 0.51733 0.93922 0.03035 0.0
C241 C 0.53338 0.95026 0.05805 0.0
C242 C 0.53886 0.9754 0.06733 0.0
C243 C 0.52816 0.98856 0.04929 0.0
C244 C 0.50732 0.95319 0.01285 0.0
H245 H 0.53285 0.00746 0.05788 0.0
H246 H 0.49531 0.94361 0.99205 0.0
H247 H 0.45797 0.98361 0.93931 0.0
H248 H 0.50162 0.05105 0.99917 0.0
C249 C 0.52683 0.04672 0.04785 0.0
C250 C 0.43829 0.96105 0.05085 0.0
C251 C 0.5553 0.03238 0.94285 0.0
C252 C 0.46735 0.94624 0.94622 0.0
H253 H 0.44561 0.99303 0.10619 0.0
H254 H 0.49384 0.04014 0.10449 0.0
H255 H 0.58188 0.08984 0.02863 0.0
H256 H 0.59722 0.08169 0.97087 0.0
H257 H 0.54813 0.00103 0.88709 0.0
H258 H 0.49991 0.95369 0.88861 0.0
H259 H 0.41281 0.90247 0.96632 0.0
H260 H 0.3971 0.91097 0.02357 0.0
H261 H 0.44465 0.00817 0.90382 0.0
H262 H 0.49047 0.07731 0.96345 0.0
H263 H 0.51197 0.91957 0.0224 0.0
H264 H 0.55147 0.98503 0.08835 0.0
C265 C 0.52196 0.56422 0.48977 0.0
C266 C 0.51821 0.58324 0.50403 0.0
C267 C 0.50112 0.57041 0.53122 0.0
C268 C 0.49565 0.54449 0.53217 0.0
N269 N 0.5084 0.54006 0.50738 0.0
Co270 Co 0.50703 0.50566 0.50023 0.0
N271 N 0.47922 0.48594 0.53767 0.0
C272 C 0.46654 0.49549 0.55558 0.0
C273 C 0.44794 0.47701 0.57921 0.0
C274 C 0.44911 0.45444 0.57653 0.0
C275 C 0.46866 0.46063 0.55153 0.0
N276 N 0.50691 0.47166 0.49446 0.0
C277 C 0.49536 0.44846 0.51404 0.0
C278 C 0.50297 0.43104 0.50321 0.0
C279 C 0.51999 0.4437 0.47595 0.0
C280 C 0.52205 0.46812 0.47189 0.0
N281 N 0.53355 0.52498 0.46141 0.0
C282 C 0.54355 0.51431 0.44092 0.0
C283 C 0.5594 0.53157 0.41479 0.0
C284 C 0.55913 0.55452 0.41842 0.0
C285 C 0.54328 0.54999 0.44689 0.0
N286 N 0.53834 0.51753 0.53069 0.0
C287 C 0.58172 0.53146 0.57452 0.0
C288 C 0.58494 0.52839 0.54126 0.0
C289 C 0.56307 0.52122 0.52 0.0
C290 C 0.5567 0.52795 0.58549 0.0
C291 C 0.53557 0.52143 0.56322 0.0
N292 N 0.47578 0.49382 0.46969 0.0
C293 C 0.45275 0.47259 0.41977 0.0
C294 C 0.43381 0.48059 0.42365 0.0
C295 C 0.43584 0.49471 0.45151 0.0
C296 C 0.45665 0.5009 0.47409 0.0
C297 C 0.47336 0.47934 0.44286 0.0
H298 H 0.45708 0.51183 0.49464 0.0
H299 H 0.48727 0.47286 0.4382 0.0
H300 H 0.56661 0.51841 0.49514 0.0
H301 H 0.51711 0.51942 0.573 0.0
C302 C 0.47574 0.523 0.55305 0.0
C303 C 0.53713 0.56957 0.45847 0.0
C304 C 0.47831 0.44282 0.54392 0.0
C305 C 0.53816 0.48823 0.44735 0.0
H306 H 0.52628 0.60398 0.49508 0.0
H307 H 0.49271 0.57865 0.5475 0.0
H308 H 0.43607 0.48008 0.59739 0.0
H309 H 0.43781 0.43593 0.59214 0.0
H310 H 0.49742 0.41148 0.51415 0.0
H311 H 0.53017 0.43625 0.4613 0.0
H312 H 0.56964 0.52779 0.39522 0.0
H313 H 0.56916 0.57237 0.40166 0.0
H314 H 0.60399 0.53075 0.53185 0.0
H315 H 0.55352 0.53038 0.61111 0.0
H316 H 0.45175 0.46114 0.39897 0.0
H317 H 0.42189 0.50164 0.45559 0.0
C318 C 0.3236 0.48672 0.17802 0.0
C319 C 0.32005 0.47084 0.15116 0.0
C320 C 0.30069 0.48145 0.19739 0.0
C321 C 0.27373 0.4598 0.19081 0.0
C322 C 0.29297 0.4494 0.14437 0.0
C323 C 0.27009 0.44403 0.16391 0.0
C324 C 0.24909 0.4547 0.21022 0.0
C325 C 0.30165 0.44281 0.28464 0.0
C326 C 0.30859 0.45884 0.31214 0.0
C327 C 0.2822 0.44139 0.26236 0.0
C328 C 0.26992 0.45651 0.2668 0.0
C329 C 0.29631 0.47392 0.31646 0.0
C330 C 0.27722 0.47276 0.29407 0.0
C331 C 0.24789 0.45423 0.24512 0.0
C332 C 0.13093 0.42819 0.27445 0.0
C333 C 0.13724 0.44403 0.30198 0.0
C334 C 0.15225 0.4296 0.25543 0.0
C335 C 0.18033 0.44759 0.26294 0.0
C336 C 0.16518 0.46128 0.31016 0.0
C337 C 0.18648 0.46309 0.29081 0.0
C338 C 0.20356 0.44962 0.24338 0.0
C339 C 0.16055 0.47339 0.16878 0.0
C340 C 0.14403 0.45224 0.1478 0.0
C341 C 0.18006 0.47252 0.18873 0.0
C342 C 0.18384 0.45074 0.18781 0.0
C343 C 0.14793 0.43038 0.14716 0.0
C344 C 0.16792 0.42985 0.16661 0.0
C345 C 0.20472 0.45003 0.20857 0.0
H346 H 0.34412 0.50327 0.18417 0.0
H347 H 0.30407 0.49456 0.21727 0.0
H348 H 0.28934 0.43707 0.12355 0.0
H349 H 0.24946 0.42754 0.15794 0.0
H350 H 0.31063 0.43078 0.28096 0.0
H351 H 0.27634 0.42802 0.24217 0.0
H352 H 0.3015 0.48667 0.33722 0.0
H353 H 0.268 0.48454 0.2982 0.0
H354 H 0.10949 0.41448 0.26791 0.0
H355 H 0.14666 0.41635 0.23518 0.0
H356 H 0.1706 0.47387 0.33112 0.0
H357 H 0.20787 0.47691 0.29747 0.0
H358 H 0.15884 0.49094 0.16949 0.0
H359 H 0.19248 0.48905 0.20463 0.0
H360 H 0.1354 0.41345 0.1319 0.0
H361 H 0.17057 0.41286 0.1656 0.0
N362 N 0.22731 0.45238 0.19337 0.0
N363 N 0.22522 0.45179 0.26009 0.0
C364 C 0.85267 0.30543 0.79716 0.0
C365 C 0.84243 0.3131 0.82311 0.0
C366 C 0.83431 0.28575 0.77594 0.0
C367 C 0.80536 0.27397 0.77961 0.0
C368 C 0.81358 0.30133 0.8269 0.0
C369 C 0.79528 0.28207 0.80533 0.0
C370 C 0.7852 0.25153 0.75908 0.0
C371 C 0.834 0.31966 0.68057 0.0
C372 C 0.85283 0.31639 0.66192 0.0
C373 C 0.81406 0.29858 0.70199 0.0
C374 C 0.8122 0.27364 0.70488 0.0
C375 C 0.85133 0.2915 0.66586 0.0
C376 C 0.83092 0.27023 0.68665 0.0
C377 C 0.78946 0.25052 0.72497 0.0
C378 C 0.68077 0.16138 0.67936 0.0
C379 C 0.68737 0.14441 0.6636 0.0
C380 C 0.69987 0.18145 0.69963 0.0
C381 C 0.72613 0.1853 0.70422 0.0
C382 C 0.7137 0.14823 0.66878 0.0
C383 C 0.733 0.16871 0.68848 0.0
C384 C 0.74678 0.20727 0.72443 0.0
C385 C 0.68381 0.13967 0.79481 0.0
C386 C 0.66963 0.14723 0.81572 0.0
C387 C 0.70727 0.15941 0.77595 0.0
C388 C 0.71685 0.1871 0.77735 0.0
C389 C 0.67952 0.17498 0.81734 0.0
C390 C 0.7029 0.19466 0.79847 0.0
C391 C 0.74207 0.2085 0.75828 0.0
H392 H 0.87482 0.3139 0.79409 0.0
H393 H 0.84283 0.27913 0.75751 0.0
H394 H 0.80516 0.30696 0.84668 0.0
H395 H 0.77312 0.27324 0.80905 0.0
H396 H 0.83395 0.33815 0.67792 0.0
H397 H 0.79946 0.30143 0.7155 0.0
H398 H 0.86578 0.28827 0.65273 0.0
H399 H 0.82979 0.25109 0.68857 0.0
H400 H 0.6611 0.15967 0.67554 0.0
H401 H 0.69435 0.19435 0.71122 0.0
H402 H 0.71949 0.13534 0.65777 0.0
H403 H 0.75319 0.1714 0.69176 0.0
H404 H 0.67674 0.11849 0.79292 0.0
H405 H 0.71813 0.15302 0.7607 0.0
H406 H 0.66948 0.18159 0.83366 0.0
H407 H 0.71007 0.21588 0.80033 0.0
N408 N 0.7615 0.23054 0.77423 0.0
N409 N 0.77025 0.22832 0.70905 0.0
C410 C 0.58025 0.70827 0.21361 0.0
C411 C 0.56366 0.69988 0.18562 0.0
C412 C 0.58158 0.72815 0.23297 0.0
C413 C 0.56587 0.73962 0.22516 0.0
C414 C 0.54881 0.7122 0.17725 0.0
C415 C 0.54988 0.73176 0.19679 0.0
C416 C 0.56635 0.76038 0.24547 0.0
C417 C 0.53189 0.68541 0.31279 0.0
C418 C 0.54747 0.68844 0.34096 0.0
C419 C 0.53747 0.70809 0.29303 0.0
C420 C 0.55918 0.73427 0.30052 0.0
C421 C 0.56889 0.71475 0.34871 0.0
C422 C 0.5746 0.73742 0.32874 0.0
C423 C 0.56457 0.7585 0.2804 0.0
C424 C 0.54048 0.84247 0.31343 0.0
C425 C 0.56044 0.85736 0.33694 0.0
C426 C 0.54247 0.82391 0.29503 0.0
C427 C 0.56449 0.81995 0.29973 0.0
C428 C 0.58229 0.85311 0.34185 0.0
C429 C 0.58413 0.83435 0.3236 0.0
C430 C 0.56682 0.80052 0.28009 0.0
C431 C 0.58338 0.87127 0.21317 0.0
C432 C 0.56559 0.86394 0.1864 0.0
C433 C 0.58498 0.85147 0.23191 0.0
C434 C 0.56809 0.82391 0.22482 0.0
C435 C 0.54967 0.83659 0.17848 0.0
C436 C 0.55088 0.81679 0.19752 0.0
C437 C 0.56804 0.80215 0.24522 0.0
H438 H 0.59196 0.69925 0.22086 0.0
H439 H 0.59486 0.73447 0.25406 0.0
H440 H 0.53643 0.70687 0.15541 0.0
H441 H 0.53791 0.74058 0.18985 0.0
H442 H 0.51538 0.66548 0.30593 0.0
H443 H 0.5246 0.70514 0.27204 0.0
H444 H 0.58094 0.7179 0.37055 0.0
H445 H 0.59108 0.75747 0.33536 0.0
H446 H 0.52348 0.8454 0.30904 0.0
H447 H 0.52685 0.81268 0.27706 0.0
H448 H 0.59773 0.86402 0.36011 0.0
H449 H 0.60111 0.83135 0.32778 0.0
H450 H 0.59615 0.89231 0.21944 0.0
H451 H 0.5993 0.85773 0.25197 0.0
H452 H 0.53567 0.8304 0.15806 0.0
H453 H 0.53783 0.79575 0.19132 0.0
N454 N 0.56776 0.78202 0.22939 0.0
N455 N 0.56525 0.77884 0.29631 0.0
C456 C 0.86856 0.5619 0.71475 0.0
C457 C 0.85981 0.54565 0.68725 0.0
C458 C 0.84911 0.56147 0.7364 0.0
C459 C 0.82036 0.54416 0.73174 0.0
C460 C 0.83102 0.52897 0.68216 0.0
C461 C 0.81163 0.52817 0.70414 0.0
C462 C 0.79919 0.54369 0.75394 0.0
C463 C 0.84526 0.51874 0.82111 0.0
C464 C 0.85767 0.53468 0.84838 0.0
C465 C 0.82726 0.52236 0.80146 0.0
C466 C 0.82183 0.54255 0.80796 0.0
C467 C 0.852 0.55473 0.855 0.0
C468 C 0.83427 0.55857 0.83504 0.0
C469 C 0.80124 0.5453 0.78873 0.0
C470 C 0.69199 0.52411 0.83662 0.0
C471 C 0.69914 0.54731 0.85387 0.0
C472 C 0.71158 0.52389 0.81599 0.0
C473 C 0.73885 0.54669 0.81244 0.0
C474 C 0.72654 0.57023 0.84984 0.0
C475 C 0.74625 0.56978 0.82966 0.0
C476 C 0.75981 0.5462 0.79143 0.0
C477 C 0.70587 0.55892 0.72048 0.0
C478 C 0.68767 0.53482 0.70489 0.0
C479 C 0.72823 0.56154 0.73803 0.0
C480 C 0.73296 0.54027 0.73966 0.0
C481 C 0.69229 0.51348 0.7069 0.0
C482 C 0.71496 0.51633 0.72382 0.0
C483 C 0.75689 0.54297 0.75725 0.0
H484 H 0.89046 0.57493 0.71974 0.0
H485 H 0.85666 0.57489 0.75663 0.0
H486 H 0.82332 0.51673 0.66087 0.0
H487 H 0.78965 0.515 0.69946 0.0
H488 H 0.84929 0.50329 0.81496 0.0
H489 H 0.8172 0.50896 0.78154 0.0
H490 H 0.86066 0.56703 0.87612 0.0
H491 H 0.83002 0.57393 0.84101 0.0
H492 H 0.67141 0.50583 0.8395 0.0
H493 H 0.70557 0.50571 0.80323 0.0
H494 H 0.73283 0.58868 0.86209 0.0
H495 H 0.76721 0.5876 0.82718 0.0
H496 H 0.70267 0.57563 0.71919 0.0
H497 H 0.74205 0.58024 0.74994 0.0
H498 H 0.67865 0.49482 0.69482 0.0
H499 H 0.71836 0.49975 0.72477 0.0
N500 N 0.77673 0.54207 0.73977 0.0
N501 N 0.78172 0.54704 0.80595 0.0
C502 C 0.16115 0.69464 0.22145 0.0
C503 C 0.1495 0.70137 0.19507 0.0
C504 C 0.17923 0.71438 0.24279 0.0
C505 C 0.18616 0.7413 0.23812 0.0
C506 C 0.15572 0.72819 0.19139 0.0
C507 C 0.1741 0.74797 0.21242 0.0
C508 C 0.20866 0.76316 0.2569 0.0
C509 C 0.13807 0.7157 0.33379 0.0
C510 C 0.14443 0.70333 0.35988 0.0
C511 C 0.15886 0.73426 0.3108 0.0
C512 C 0.18639 0.74087 0.31353 0.0
C513 C 0.172 0.70972 0.36193 0.0
C514 C 0.19271 0.72844 0.33931 0.0
C515 C 0.20934 0.76232 0.29169 0.0
C516 C 0.30938 0.87204 0.31949 0.0
C517 C 0.3194 0.86441 0.34677 0.0
C518 C 0.28865 0.85232 0.30021 0.0
C519 C 0.27765 0.82458 0.3077 0.0
C520 C 0.30834 0.83663 0.35415 0.0
C521 C 0.28759 0.81695 0.33494 0.0
C522 C 0.25455 0.80329 0.28881 0.0
C523 C 0.3275 0.84658 0.21626 0.0
C524 C 0.32331 0.85782 0.18716 0.0
C525 C 0.30525 0.82949 0.23829 0.0
C526 C 0.27833 0.82364 0.23212 0.0
C527 C 0.29633 0.8519 0.18103 0.0
C528 C 0.27411 0.83494 0.2032 0.0
C529 C 0.25411 0.80385 0.25393 0.0
H530 H 0.15733 0.67441 0.22485 0.0
H531 H 0.18883 0.70888 0.26193 0.0
H532 H 0.14675 0.7341 0.1719 0.0
H533 H 0.17931 0.76867 0.20824 0.0
H534 H 0.11721 0.71154 0.33148 0.0
H535 H 0.15358 0.74404 0.29152 0.0
H536 H 0.17769 0.70012 0.38094 0.0
H537 H 0.21379 0.73321 0.34194 0.0
H538 H 0.31755 0.89327 0.31306 0.0
H539 H 0.28089 0.85876 0.27983 0.0
H540 H 0.31524 0.83002 0.37528 0.0
H541 H 0.27922 0.79568 0.34145 0.0
H542 H 0.34799 0.85081 0.22197 0.0
H543 H 0.30905 0.82035 0.25974 0.0
H544 H 0.29217 0.85975 0.15863 0.0
H545 H 0.25349 0.83039 0.19754 0.0
N546 N 0.23105 0.78388 0.23945 0.0
N547 N 0.23225 0.78243 0.30619 0.0
C548 C 0.43112 0.14449 0.79797 0.0
C549 C 0.44962 0.15368 0.82411 0.0
C550 C 0.43018 0.16309 0.77592 0.0
C551 C 0.44829 0.19121 0.77911 0.0
C552 C 0.46748 0.18173 0.82748 0.0
C553 C 0.46685 0.20028 0.80519 0.0
C554 C 0.44678 0.21145 0.75729 0.0
C555 C 0.46965 0.1681 0.68784 0.0
C556 C 0.4498 0.1536 0.66404 0.0
C557 C 0.46728 0.18588 0.70737 0.0
C558 C 0.44488 0.18941 0.70372 0.0
C559 C 0.42744 0.15727 0.66037 0.0
C560 C 0.42513 0.17515 0.67987 0.0
C561 C 0.44323 0.20954 0.72278 0.0
C562 C 0.46782 0.31777 0.67553 0.0
C563 C 0.44521 0.31179 0.65557 0.0
C564 C 0.46656 0.29783 0.69714 0.0
C565 C 0.44281 0.2714 0.69904 0.0
C566 C 0.42127 0.28525 0.65793 0.0
C567 C 0.42025 0.26517 0.6792 0.0
C568 C 0.44241 0.24999 0.72022 0.0
C569 C 0.42955 0.3 0.79178 0.0
C570 C 0.45335 0.31617 0.81027 0.0
C571 C 0.42759 0.27965 0.77285 0.0
C572 C 0.44921 0.27484 0.77239 0.0
C573 C 0.47521 0.31156 0.80896 0.0
C574 C 0.47296 0.29087 0.79061 0.0
C575 C 0.44669 0.25228 0.75437 0.0
H576 H 0.41689 0.12293 0.79513 0.0
H577 H 0.41487 0.15542 0.7569 0.0
H578 H 0.48208 0.18933 0.84728 0.0
H579 H 0.48089 0.22181 0.80842 0.0
H580 H 0.48747 0.16624 0.69084 0.0
H581 H 0.48331 0.19734 0.72482 0.0
H582 H 0.41164 0.14626 0.64251 0.0
H583 H 0.40786 0.1778 0.67638 0.0
H584 H 0.48689 0.33767 0.6739 0.0
H585 H 0.48447 0.30287 0.71174 0.0
H586 H 0.40329 0.27993 0.64338 0.0
H587 H 0.40179 0.24481 0.68027 0.0
H588 H 0.41209 0.30256 0.7925 0.0
H589 H 0.4089 0.26719 0.75928 0.0
H590 H 0.49417 0.32395 0.82206 0.0
H591 H 0.4899 0.28748 0.79044 0.0
N592 N 0.44862 0.23293 0.77159 0.0
N593 N 0.44089 0.22876 0.70565 0.0
H594 H 0.06302 0.45053 0.03939 0.0
H595 H 0.05148 0.4958 0.11151 0.0
H596 H 0.0817 0.49015 0.14934 0.0
H597 H 0.11256 0.47369 0.16092 0.0
H598 H 0.1286 0.43327 0.08567 0.0
H599 H 0.09535 0.43544 0.0503 0.0
C600 C 0.06733 0.45925 0.06335 0.0
C601 C 0.05543 0.47383 0.07263 0.0
C602 C 0.0855 0.45676 0.0844 0.0
C603 C 0.06061 0.48462 0.10391 0.0
C604 C 0.07792 0.48146 0.12542 0.0
C605 C 0.1092 0.46566 0.13664 0.0
C606 C 0.12328 0.45328 0.12629 0.0
C607 C 0.09079 0.46789 0.11574 0.0
C608 C 0.11784 0.44244 0.09488 0.0
C609 C 0.09895 0.44388 0.07436 0.0
H610 H 0.61798 0.06042 0.55507 0.0
H611 H 0.54969 0.0516 0.61271 0.0
H612 H 0.58232 0.08333 0.65193 0.0
H613 H 0.63023 0.1142 0.66896 0.0
H614 H 0.69881 0.127 0.60741 0.0
H615 H 0.66618 0.09299 0.57089 0.0
C616 C 0.61038 0.06571 0.5761 0.0
C617 C 0.58162 0.05406 0.58092 0.0
C618 C 0.6293 0.08458 0.59789 0.0
C619 C 0.57183 0.06051 0.60855 0.0
C620 C 0.59045 0.07866 0.63086 0.0
C621 C 0.6382 0.10996 0.64735 0.0
C622 C 0.66718 0.12332 0.64133 0.0
C623 C 0.61927 0.09103 0.6256 0.0
C624 C 0.67677 0.1168 0.6134 0.0
C625 C 0.65807 0.09747 0.59217 0.0
H626 H 0.57423 0.61827 0.09839 0.0
H627 H 0.48763 0.58888 0.08415 0.0
H628 H 0.49065 0.62234 0.12071 0.0
H629 H 0.51774 0.65993 0.15637 0.0
H630 H 0.60506 0.69133 0.16875 0.0
H631 H 0.6017 0.65663 0.13408 0.0
C632 C 0.55604 0.61917 0.10348 0.0
C633 C 0.5308 0.60127 0.08847 0.0
C634 C 0.55799 0.63867 0.12434 0.0
C635 C 0.5074 0.60271 0.09507 0.0
C636 C 0.50906 0.62173 0.11609 0.0
C637 C 0.53619 0.65948 0.15122 0.0
C638 C 0.56164 0.6784 0.16512 0.0
C639 C 0.53428 0.63992 0.13067 0.0
C640 C 0.58509 0.6769 0.15876 0.0
C641 C 0.58325 0.65717 0.1387 0.0
H642 H 0.95787 0.56659 0.58963 0.0
H643 H 0.89865 0.48216 0.57321 0.0
H644 H 0.86609 0.48094 0.61362 0.0
H645 H 0.8545 0.5036 0.6537 0.0
H646 H 0.91194 0.58907 0.66747 0.0
H647 H 0.94531 0.5899 0.62886 0.0
C648 C 0.93782 0.54799 0.59499 0.0
C649 C 0.93056 0.52455 0.57834 0.0
C650 C 0.91896 0.54752 0.61799 0.0
C651 C 0.90452 0.50055 0.58539 0.0
C652 C 0.88596 0.4998 0.60861 0.0
C653 C 0.87409 0.52259 0.648 0.0
C654 C 0.88045 0.54621 0.66373 0.0
C655 C 0.8929 0.52318 0.62497 0.0
C656 C 0.90644 0.57037 0.65638 0.0
C657 C 0.92553 0.57097 0.63398 0.0
H658 H 0.42799 0.91669 0.08778 0.0
H659 H 0.39691 0.96869 0.06851 0.0
H660 H 0.35873 0.94167 0.10937 0.0
H661 H 0.33451 0.90338 0.15073 0.0
H662 H 0.36487 0.85035 0.16837 0.0
H663 H 0.40318 0.8778 0.12845 0.0
C664 C 0.41276 0.92196 0.09265 0.0
C665 C 0.41511 0.94456 0.07551 0.0
C666 C 0.39089 0.90627 0.11597 0.0
C667 C 0.3954 0.95137 0.0817 0.0
C668 C 0.37365 0.93595 0.10497 0.0
C669 C 0.34934 0.89765 0.14567 0.0
C670 C 0.34676 0.87483 0.16279 0.0
C671 C 0.37118 0.91334 0.12227 0.0
C672 C 0.36651 0.86804 0.15612 0.0
C673 C 0.38836 0.88362 0.13306 0.0
H674 H 0.44753 0.38814 0.53777 0.0
H675 H 0.49819 0.44941 0.60557 0.0
H676 H 0.49087 0.41422 0.64711 0.0
H677 H 0.47094 0.36627 0.66345 0.0
H678 H 0.42384 0.30507 0.59361 0.0
H679 H 0.42844 0.33988 0.55382 0.0
C680 C 0.45705 0.39363 0.56161 0.0
C681 C 0.47359 0.42114 0.56869 0.0
C682 C 0.45325 0.37335 0.585 0.0
C683 C 0.48552 0.42825 0.59973 0.0
C684 C 0.48134 0.40819 0.62337 0.0
C685 C 0.46193 0.36047 0.63942 0.0
C686 C 0.44709 0.33295 0.63172 0.0
C687 C 0.46545 0.38069 0.61616 0.0
C688 C 0.43498 0.32595 0.60062 0.0
C689 C 0.43783 0.3459 0.57763 0.0
H690 H 0.56967 0.95247 0.41659 0.0
H691 H 0.48252 0.89202 0.43551 0.0
H692 H 0.48619 0.86033 0.40198 0.0
H693 H 0.51426 0.84944 0.36811 0.0
H694 H 0.60168 0.90918 0.34992 0.0
H695 H 0.59793 0.94144 0.38243 0.0
C696 C 0.55152 0.9324 0.41313 0.0
C697 C 0.5259 0.92452 0.42852 0.0
C698 C 0.55385 0.91414 0.39412 0.0
C699 C 0.50253 0.8984 0.42416 0.0
C700 C 0.50459 0.88032 0.40493 0.0
C701 C 0.53243 0.86961 0.37105 0.0
C702 C 0.55818 0.87695 0.35658 0.0
C703 C 0.53015 0.88791 0.38993 0.0
C704 C 0.58167 0.90299 0.36105 0.0
C705 C 0.57951 0.92147 0.3795 0.0
H706 H 0.62622 0.55784 0.9636 0.0
H707 H 0.56021 0.50367 0.90126 0.0
H708 H 0.59428 0.50548 0.86245 0.0
H709 H 0.64272 0.52203 0.84678 0.0
H710 H 0.70842 0.57268 0.91221 0.0
H711 H 0.67471 0.57287 0.949 0.0
C712 C 0.61941 0.54626 0.94165 0.0
C713 C 0.59085 0.53039 0.93536 0.0
C714 C 0.63905 0.54687 0.91994 0.0
C715 C 0.58215 0.51589 0.90656 0.0
C716 C 0.6016 0.5169 0.88446 0.0
C717 C 0.64976 0.53283 0.86927 0.0
C718 C 0.67832 0.54741 0.87637 0.0
C719 C 0.63011 0.53218 0.89102 0.0
C720 C 0.68681 0.56173 0.90547 0.0
C721 C 0.66746 0.56166 0.92681 0.0
H722 H 0.0744 0.61429 0.47305 0.0
H723 H 0.01252 0.58476 0.39959 0.0
H724 H 0.04147 0.62588 0.36474 0.0
H725 H 0.08907 0.66552 0.35015 0.0
H726 H 0.15016 0.6965 0.42609 0.0
H727 H 0.11778 0.65877 0.46394 0.0
C728 C 0.06803 0.61584 0.44841 0.0
C729 C 0.04466 0.59326 0.43494 0.0
C730 C 0.08496 0.63991 0.42881 0.0
C731 C 0.03336 0.59904 0.40724 0.0
C732 C 0.04955 0.62315 0.38772 0.0
C733 C 0.09524 0.66448 0.37514 0.0
C734 C 0.12264 0.68333 0.38458 0.0
C735 C 0.07646 0.64275 0.39708 0.0
C736 C 0.12975 0.68167 0.41747 0.0
C737 C 0.11111 0.66023 0.43937 0.0
H738 H 0.45639 0.08442 0.94313 0.0
H739 H 0.46574 0.04375 0.86259 0.0
H740 H 0.45916 0.07229 0.82302 0.0
H741 H 0.45344 0.11065 0.8109 0.0
H742 H 0.44741 0.15333 0.89113 0.0
H743 H 0.4506 0.12257 0.93112 0.0
C744 C 0.45721 0.08188 0.91694 0.0
C745 C 0.46154 0.06185 0.90604 0.0
C746 C 0.45423 0.09891 0.89416 0.0
C747 C 0.46195 0.0586 0.8719 0.0
C748 C 0.45846 0.07512 0.84913 0.0
C749 C 0.45256 0.11298 0.83716 0.0
C750 C 0.45025 0.13418 0.84813 0.0
C751 C 0.45487 0.09552 0.85996 0.0
C752 C 0.44943 0.13726 0.88217 0.0
C753 C 0.45118 0.11966 0.905 0.0
H754 H 0.38006 0.46598 0.43422 0.0
H755 H 0.43984 0.48259 0.35633 0.0
H756 H 0.40578 0.47538 0.315 0.0
H757 H 0.35976 0.46695 0.30081 0.0
H758 H 0.30111 0.45265 0.37889 0.0
H759 H 0.33409 0.45681 0.42023 0.0
C760 C 0.38576 0.46822 0.40822 0.0
C761 C 0.41257 0.47492 0.39852 0.0
C762 C 0.36628 0.46462 0.38454 0.0
C763 C 0.41928 0.47712 0.36463 0.0
C764 C 0.39987 0.47321 0.34091 0.0
C765 C 0.35416 0.46445 0.32689 0.0
C766 C 0.32814 0.45964 0.33682 0.0
C767 C 0.3734 0.46724 0.35056 0.0
C768 C 0.32117 0.45668 0.37068 0.0
C769 C 0.33998 0.45898 0.39431 0.0
H770 H 0.90983 0.38146 0.94296 0.0
H771 H 0.95717 0.44151 0.86377 0.0
H772 H 0.92867 0.40881 0.82337 0.0
H773 H 0.88852 0.36371 0.81034 0.0
H774 H 0.83899 0.30549 0.88985 0.0
H775 H 0.86963 0.33716 0.93025 0.0
C776 C 0.91382 0.38766 0.91693 0.0
C777 C 0.93575 0.41414 0.90671 0.0
C778 C 0.89672 0.36907 0.89377 0.0
C779 C 0.94084 0.42125 0.87263 0.0
C780 C 0.92433 0.40261 0.84939 0.0
C781 C 0.88462 0.35801 0.83653 0.0
C782 C 0.86156 0.33239 0.84719 0.0
C783 C 0.90202 0.37655 0.85966 0.0
C784 C 0.8565 0.32522 0.88115 0.0
C785 C 0.87405 0.34327 0.90421 0.0
H786 H 0.92188 0.49496 0.93729 0.0
H787 H 0.97351 0.58064 0.95212 0.0
H788 H 0.94435 0.58926 0.91582 0.0
H789 H 0.9046 0.57228 0.87927 0.0
H790 H 0.85128 0.48595 0.86742 0.0
H791 H 0.88087 0.47777 0.90266 0.0
C792 C 0.92658 0.51546 0.93253 0.0
C793 C 0.94982 0.53722 0.94685 0.0
C794 C 0.90958 0.52014 0.91202 0.0
C795 C 0.9558 0.56371 0.94092 0.0
C796 C 0.93915 0.56858 0.92026 0.0
C797 C 0.8992 0.55163 0.88466 0.0
C798 C 0.87576 0.52984 0.87033 0.0
C799 C 0.91601 0.54694 0.9056 0.0
C800 C 0.86947 0.50325 0.87737 0.0
C801 C 0.88626 0.49847 0.89782 0.0
H802 H 0.3972 0.95917 0.43975 0.0
H803 H 0.43967 0.91647 0.44345 0.0
H804 H 0.40599 0.88316 0.40628 0.0
H805 H 0.36449 0.86636 0.37275 0.0
H806 H 0.32194 0.90917 0.36898 0.0
H807 H 0.35589 0.94261 0.40547 0.0
C808 C 0.39901 0.94259 0.43216 0.0
C809 C 0.42076 0.94015 0.44396 0.0
C810 C 0.37971 0.92372 0.41066 0.0
C811 C 0.423 0.91859 0.43444 0.0
C812 C 0.40382 0.89965 0.41323 0.0
C813 C 0.36256 0.88293 0.38006 0.0
C814 C 0.34067 0.88521 0.36813 0.0
C815 C 0.38207 0.902 0.40121 0.0
C816 C 0.33875 0.90708 0.37744 0.0
C817 C 0.35805 0.92612 0.39851 0.0
H818 H 0.45242 0.40944 0.88263 0.0
H819 H 0.50246 0.39533 0.95033 0.0
H820 H 0.49631 0.35866 0.91789 0.0
H821 H 0.47791 0.33129 0.86983 0.0
H822 H 0.43302 0.34907 0.79824 0.0
H823 H 0.43613 0.38361 0.83278 0.0
C824 C 0.46236 0.39869 0.89019 0.0
C825 C 0.47778 0.40531 0.91922 0.0
C826 C 0.4597 0.37819 0.87069 0.0
C827 C 0.48989 0.3905 0.9287 0.0
C828 C 0.48667 0.36962 0.90991 0.0
C829 C 0.46917 0.34296 0.86134 0.0
C830 C 0.45529 0.33742 0.83126 0.0
C831 C 0.47181 0.36344 0.88076 0.0
C832 C 0.44346 0.35242 0.82142 0.0
C833 C 0.44541 0.3724 0.84107 0.0
H834 H 0.04585 0.45962 0.36452 0.0
H835 H 0.07708 0.44507 0.4544 0.0
H836 H 0.10749 0.43594 0.42235 0.0
H837 H 0.12838 0.43664 0.36854 0.0
H838 H 0.09646 0.45071 0.27884 0.0
H839 H 0.06295 0.45535 0.31092 0.0
C840 C 0.05902 0.45399 0.37699 0.0
C841 C 0.05947 0.45314 0.41163 0.0
C842 C 0.07645 0.44897 0.35843 0.0
C843 C 0.07636 0.44567 0.42771 0.0
C844 C 0.09388 0.4407 0.4094 0.0
C845 C 0.11385 0.44046 0.35613 0.0
C846 C 0.11496 0.44358 0.32146 0.0
C847 C 0.09462 0.44301 0.37475 0.0
C848 C 0.09588 0.44816 0.30551 0.0
C849 C 0.07684 0.45094 0.32383 0.0
H850 H 0.55999 0.07361 0.90443 0.0
H851 H 0.60032 0.03023 0.92604 0.0
H852 H 0.63903 0.06137 0.88749 0.0
H853 H 0.66229 0.10234 0.8499 0.0
H854 H 0.62143 0.14543 0.82801 0.0
H855 H 0.58213 0.1132 0.86454 0.0
C856 C 0.57721 0.07096 0.90029 0.0
C857 C 0.57754 0.04982 0.91766 0.0
C858 C 0.59931 0.08899 0.87835 0.0
C859 C 0.59981 0.0464 0.91259 0.0
C860 C 0.62188 0.06421 0.89071 0.0
C861 C 0.64461 0.10445 0.8527 0.0
C862 C 0.64497 0.12644 0.83637 0.0
C863 C 0.62199 0.08576 0.8737 0.0
C864 C 0.62197 0.12901 0.8407 0.0
C865 C 0.5994 0.1105 0.86146 0.0
H866 H 0.50094 0.57884 0.42762 0.0
H867 H 0.58847 0.61426 0.44236 0.0
H868 H 0.59959 0.65424 0.4069 0.0
H869 H 0.58416 0.67867 0.37143 0.0
H870 H 0.4962 0.64387 0.35896 0.0
H871 H 0.48545 0.60393 0.39346 0.0
C872 C 0.5224 0.59541 0.42296 0.0
C873 C 0.54394 0.59378 0.4371 0.0
C874 C 0.5285 0.61828 0.40292 0.0
C875 C 0.5717 0.61522 0.43131 0.0
C876 C 0.57798 0.63798 0.41116 0.0
C877 C 0.56263 0.6625 0.37653 0.0
C878 C 0.54106 0.66429 0.36241 0.0
C879 C 0.55654 0.63972 0.39682 0.0
C880 C 0.51327 0.64289 0.36895 0.0
C881 C 0.50706 0.62009 0.3889 0.0
H882 H 0.45875 0.0837 0.55578 0.0
H883 H 0.48666 0.05738 0.63963 0.0
H884 H 0.47972 0.08605 0.6749 0.0
H885 H 0.46612 0.11884 0.68206 0.0
H886 H 0.44023 0.14695 0.59796 0.0
H887 H 0.44585 0.11726 0.56282 0.0
C888 C 0.46352 0.0844 0.58171 0.0
C889 C 0.47306 0.06825 0.595 0.0
C890 C 0.45975 0.10119 0.6019 0.0
C891 C 0.47881 0.06919 0.62879 0.0
C892 C 0.47503 0.08573 0.64899 0.0
C893 C 0.46194 0.11869 0.65598 0.0
C894 C 0.45277 0.13515 0.64275 0.0
C895 C 0.46556 0.10184 0.63581 0.0
C896 C 0.44695 0.13425 0.60898 0.0
C897 C 0.45035 0.11741 0.58878 0.0
H898 H 0.43105 0.5154 0.06544 0.0
H899 H 0.39557 0.42971 0.0575 0.0
H900 H 0.35478 0.41929 0.09119 0.0
H901 H 0.32999 0.43473 0.124 0.0
H902 H 0.36503 0.52074 0.13049 0.0
H903 H 0.40536 0.53089 0.09674 0.0
C904 C 0.41423 0.4945 0.07105 0.0
C905 C 0.41611 0.47328 0.05934 0.0
C906 C 0.39096 0.48876 0.09036 0.0
C907 C 0.39438 0.44625 0.06652 0.0
C908 C 0.37117 0.44035 0.08574 0.0
C909 C 0.34626 0.45571 0.11774 0.0
C910 C 0.34442 0.4769 0.13003 0.0
C911 C 0.3693 0.46145 0.09794 0.0
C912 C 0.36603 0.50397 0.12197 0.0
C913 C 0.38905 0.50984 0.10242 0.0
H914 H 0.93428 0.39362 0.5441 0.0
H915 H 0.93836 0.455 0.60314 0.0
H916 H 0.90769 0.41998 0.64565 0.0
H917 H 0.87944 0.37186 0.66535 0.0
H918 H 0.87171 0.31041 0.60257 0.0
H919 H 0.90424 0.34551 0.56242 0.0
C920 C 0.92799 0.3992 0.56605 0.0
C921 C 0.93783 0.42662 0.57028 0.0
C922 C 0.90993 0.37898 0.5898 0.0
C923 C 0.93053 0.43386 0.59928 0.0
C924 C 0.91308 0.41389 0.6235 0.0
C925 C 0.88447 0.36599 0.64274 0.0
C926 C 0.87307 0.33825 0.63748 0.0
C927 C 0.90248 0.38632 0.6189 0.0
C928 C 0.88052 0.33141 0.60807 0.0
C929 C 0.89897 0.35152 0.58475 0.0
H930 H 0.53742 0.94697 0.12497 0.0
H931 H 0.55238 0.91958 0.03477 0.0
H932 H 0.56468 0.8913 0.06655 0.0
H933 H 0.56883 0.87246 0.11996 0.0
H934 H 0.5557 0.90099 0.21005 0.0
H935 H 0.54589 0.93141 0.17825 0.0
C936 C 0.5439 0.93528 0.11216 0.0
C937 C 0.54352 0.93517 0.07746 0.0
C938 C 0.55133 0.91929 0.13057 0.0
C939 C 0.55174 0.91957 0.06145 0.0
C940 C 0.55899 0.90351 0.07958 0.0
C941 C 0.564 0.88551 0.13254 0.0
C942 C 0.56275 0.88442 0.16719 0.0
C943 C 0.55838 0.90285 0.11414 0.0
C944 C 0.55687 0.90162 0.18334 0.0
C945 C 0.5511 0.91886 0.16519 0.0
H946 H 0.57757 0.50279 0.63092 0.0
H947 H 0.63601 0.57319 0.56925 0.0
H948 H 0.6738 0.5817 0.60572 0.0
H949 H 0.69056 0.56768 0.65369 0.0
H950 H 0.63274 0.49531 0.71287 0.0
H951 H 0.59427 0.48894 0.67909 0.0
C952 C 0.59855 0.52014 0.6258 0.0
C953 C 0.60411 0.53744 0.59767 0.0
C954 C 0.62022 0.52443 0.64634 0.0
C955 C 0.63138 0.55963 0.59082 0.0
C956 C 0.65292 0.56448 0.61163 0.0
C957 C 0.66945 0.55073 0.65931 0.0
C958 C 0.66432 0.53204 0.68569 0.0
C959 C 0.64765 0.54684 0.63924 0.0
C960 C 0.63704 0.50988 0.69258 0.0
C961 C 0.61511 0.50627 0.67331 0.0
H962 H 0.08688 0.63002 0.07417 0.0
H963 H 0.05412 0.566 0.15123 0.0
H964 H 0.0799 0.59933 0.19207 0.0
H965 H 0.11216 0.64657 0.20608 0.0
H966 H 0.14807 0.71008 0.12826 0.0
H967 H 0.12057 0.67704 0.08787 0.0
C968 C 0.08557 0.62324 0.09981 0.0
C969 C 0.06832 0.59541 0.10942 0.0
C970 C 0.10095 0.64249 0.12323 0.0
C971 C 0.06668 0.58725 0.143 0.0
C972 C 0.08163 0.60632 0.16644 0.0
C973 C 0.11425 0.65324 0.18027 0.0
C974 C 0.13216 0.68098 0.17053 0.0
C975 C 0.09888 0.63399 0.15685 0.0
C976 C 0.13408 0.68907 0.13687 0.0
C977 C 0.11853 0.6701 0.11356 0.0
loop_
_geom_bond_atom_site_label_1
_geom_bond_atom_site_label_2
_geom_bond_distance
_geom_bond_site_symmetry_2
_ccdc_geom_bond_type
C0 C1 1.443 . S
C0 N4 1.376 1_556 S
C0 C38 1.389 . S
C1 C0 1.443 . S
C1 C2 1.340 1_556 S
C1 H41 0.951 . S
C2 C1 1.340 1_554 S
C2 C3 1.439 . S
C2 H42 0.950 . S
C3 C2 1.439 . S
C3 N4 1.374 . S
C3 C37 1.395 . S
N4 C0 1.376 1_554 S
N4 C3 1.374 . S
N4 Co5 1.990 1_655 S
Co5 N4 1.990 1_455 S
Co5 N6 2.019 1_455 S
Co5 N11 2.027 1_554 S
Co5 N16 1.971 1_554 S
Co5 N21 2.299 . S
Co5 N27 2.266 1_454 S
N6 Co5 2.019 1_655 S
N6 C7 1.376 . S
N6 C10 1.383 1_655 S
C7 N6 1.376 . S
C7 C8 1.446 . S
C7 C37 1.391 . S
C8 C7 1.446 . S
C8 C9 1.339 1_655 S
C8 H43 0.949 . S
C9 C8 1.339 1_455 S
C9 C10 1.439 . S
C9 H44 0.950 . S
C10 N6 1.383 1_455 S
C10 C9 1.439 . S
C10 C39 1.392 . S
N11 Co5 2.027 1_556 S
N11 C12 1.376 1_556 S
N11 C15 1.374 . S
C12 N11 1.376 1_554 S
C12 C13 1.443 . S
C12 C39 1.389 . S
C13 C12 1.443 . S
C13 C14 1.340 1_554 S
C13 H45 0.951 . S
C14 C13 1.340 1_556 S
C14 C15 1.439 . S
C14 H46 0.950 . S
C15 N11 1.374 . S
C15 C14 1.439 . S
C15 C40 1.395 . S
N16 Co5 1.971 1_556 S
N16 C17 1.376 . S
N16 C20 1.383 1_455 S
C17 N16 1.376 . S
C17 C18 1.446 . S
C17 C40 1.391 . S
C18 C17 1.446 . S
C18 C19 1.339 1_455 S
C18 H47 0.949 . S
C19 C18 1.339 1_655 S
C19 C20 1.439 . S
C19 H48 0.950 . S
C20 N16 1.383 1_655 S
C20 C19 1.439 . S
C20 C38 1.392 . S
N21 Co5 2.299 . S
N21 C24 1.332 . S
N21 C26 1.332 . S
C22 C23 1.386 . S
C22 C25 1.388 . S
C23 C22 1.386 . S
C23 C24 1.382 . S
C23 H49 0.950 . S
C24 N21 1.332 . S
C24 C23 1.382 . S
C24 H35 0.952 1_554 S
C25 C22 1.388 . S
C25 C26 1.382 . S
C25 H50 0.950 . S
C26 N21 1.332 . S
C26 C25 1.382 . S
C26 H36 0.948 . S
N27 Co5 2.266 1_656 S
N27 C31 1.332 . S
N27 C32 1.332 . S
C28 C29 1.388 . S
C28 C32 1.382 . S
C28 H51 0.950 . S
C29 C28 1.388 . S
C29 C30 1.386 . S
C30 C29 1.386 . S
C30 C31 1.382 . S
C30 H52 0.950 . S
C31 N27 1.332 . S
C31 C30 1.382 . S
C31 H33 0.952 1_556 S
C32 N27 1.332 . S
C32 C28 1.382 . S
C32 H34 0.948 . S
H33 C31 0.952 1_554 S
H34 C32 0.948 . S
H35 C24 0.952 1_556 S
H36 C26 0.948 . S
C37 C3 1.395 . S
C37 C7 1.391 . S
C38 C0 1.389 . S
C38 C20 1.392 . S
C39 C10 1.392 . S
C39 C12 1.389 . S
C40 C15 1.395 . S
C40 C17 1.391 . S
H41 C1 0.951 . S
H42 C2 0.950 . S
H43 C8 0.949 . S
H44 C9 0.950 . S
H45 C13 0.951 . S
H46 C14 0.950 . S
H47 C18 0.949 . S
H48 C19 0.950 . S
H49 C23 0.950 . S
H50 C25 0.950 . S
H51 C28 0.950 . S
H52 C30 0.950 . S
C53 C54 1.443 . S
C53 N57 1.376 1_545 S
C53 C91 1.389 . S
C54 C53 1.443 . S
C54 C55 1.340 1_545 S
C54 H94 0.951 . S
C55 C54 1.340 1_565 S
C55 C56 1.439 . S
C55 H95 0.950 . S
C56 C55 1.439 . S
C56 N57 1.374 . S
C56 C90 1.395 . S
N57 C53 1.376 1_565 S
N57 C56 1.374 . S
N57 Co58 2.008 1_565 S
Co58 N57 2.008 1_545 S
Co58 N59 1.995 1_545 S
Co58 N64 2.008 . S
Co58 N69 1.995 . S
Co58 N74 2.282 1_545 S
Co58 N80 2.282 . S
N59 Co58 1.995 1_565 S
N59 C60 1.376 . S
N59 C63 1.383 . S
C60 N59 1.376 . S
C60 C61 1.446 . S
C60 C90 1.391 . S
C61 C60 1.446 . S
C61 C62 1.339 . S
C61 H96 0.949 . S
C62 C61 1.339 . S
C62 C63 1.439 . S
C62 H97 0.950 . S
C63 N59 1.383 . S
C63 C62 1.439 . S
C63 C92 1.392 . S
N64 Co58 2.008 . S
N64 C65 1.376 1_545 S
N64 C68 1.374 . S
C65 N64 1.376 1_565 S
C65 C66 1.443 . S
C65 C92 1.389 . S
C66 C65 1.443 . S
C66 C67 1.340 1_565 S
C66 H98 0.951 . S
C67 C66 1.340 1_545 S
C67 C68 1.439 . S
C67 H99 0.950 . S
C68 N64 1.374 . S
C68 C67 1.439 . S
C68 C93 1.395 . S
N69 Co58 1.995 . S
N69 C70 1.376 . S
N69 C73 1.383 . S
C70 N69 1.376 . S
C70 C71 1.446 . S
C70 C93 1.391 . S
C71 C70 1.446 . S
C71 C72 1.339 . S
C71 H100 0.949 . S
C72 C71 1.339 . S
C72 C73 1.439 . S
C72 H101 0.950 . S
C73 N69 1.383 . S
C73 C72 1.439 . S
C73 C91 1.392 . S
N74 Co58 2.282 1_565 S
N74 C77 1.332 . S
N74 C79 1.332 . S
C75 C76 1.386 . S
C75 C78 1.388 . S
C76 C75 1.386 . S
C76 C77 1.382 . S
C76 H102 0.950 . S
C77 N74 1.332 . S
C77 C76 1.382 . S
C77 H88 0.952 1_565 S
C78 C75 1.388 . S
C78 C79 1.382 . S
C78 H103 0.950 . S
C79 N74 1.332 . S
C79 C78 1.382 . S
C79 H89 0.948 . S
N80 Co58 2.282 . S
N80 C84 1.332 . S
N80 C85 1.332 . S
C81 C82 1.388 . S
C81 C85 1.382 . S
C81 H104 0.950 . S
C82 C81 1.388 . S
C82 C83 1.386 . S
C83 C82 1.386 . S
C83 C84 1.382 . S
C83 H105 0.950 . S
C84 N80 1.332 . S
C84 C83 1.382 . S
C84 H86 0.952 1_545 S
C85 N80 1.332 . S
C85 C81 1.382 . S
C85 H87 0.948 . S
H86 C84 0.952 1_565 S
H87 C85 0.948 . S
H88 C77 0.952 1_545 S
H89 C79 0.948 . S
C90 C56 1.395 . S
C90 C60 1.391 . S
C91 C53 1.389 . S
C91 C73 1.392 . S
C92 C63 1.392 . S
C92 C65 1.389 . S
C93 C68 1.395 . S
C93 C70 1.391 . S
H94 C54 0.951 . S
H95 C55 0.950 . S
H96 C61 0.949 . S
H97 C62 0.950 . S
H98 C66 0.951 . S
H99 C67 0.950 . S
H100 C71 0.949 . S
H101 C72 0.950 . S
H102 C76 0.950 . S
H103 C78 0.950 . S
H104 C81 0.950 . S
H105 C83 0.950 . S
C106 C107 1.443 . S
C106 N110 1.376 . S
C106 C144 1.389 . S
C107 C106 1.443 . S
C107 C108 1.340 . S
C107 H147 0.951 . S
C108 C107 1.340 . S
C108 C109 1.439 . S
C108 H148 0.950 . S
C109 C108 1.439 . S
C109 N110 1.374 . S
C109 C143 1.395 . S
N110 C106 1.376 . S
N110 C109 1.374 . S
N110 Co111 1.987 1_556 S
Co111 N110 1.987 1_554 S
Co111 N112 1.990 1_554 S
Co111 N117 2.029 . S
Co111 N122 2.000 . S
Co111 N127 2.295 . S
Co111 N133 2.270 1_554 S
N112 Co111 1.990 1_556 S
N112 C113 1.376 . S
N112 C116 1.383 1_556 S
C113 N112 1.376 . S
C113 C114 1.446 . S
C113 C143 1.391 . S
C114 C113 1.446 . S
C114 C115 1.339 . S
C114 H149 0.949 . S
C115 C114 1.339 . S
C115 C116 1.439 1_556 S
C115 H150 0.950 1_556 S
C116 N112 1.383 1_554 S
C116 C115 1.439 1_554 S
C116 C145 1.392 . S
N117 Co111 2.029 . S
N117 C118 1.376 . S
N117 C121 1.374 . S
C118 N117 1.376 . S
C118 C119 1.443 . S
C118 C145 1.389 . S
C119 C118 1.443 . S
C119 C120 1.340 . S
C119 H151 0.951 . S
C120 C119 1.340 . S
C120 C121 1.439 . S
C120 H152 0.950 . S
C121 N117 1.374 . S
C121 C120 1.439 . S
C121 C146 1.395 . S
N122 Co111 2.000 . S
N122 C123 1.376 . S
N122 C126 1.383 1_554 S
C123 N122 1.376 . S
C123 C124 1.446 . S
C123 C146 1.391 . S
C124 C123 1.446 . S
C124 C125 1.339 . S
C124 H153 0.949 . S
C125 C124 1.339 . S
C125 C126 1.439 1_554 S
C125 H154 0.950 1_554 S
C126 N122 1.383 1_556 S
C126 C125 1.439 1_556 S
C126 C144 1.392 . S
N127 Co111 2.295 . S
N127 C130 1.332 . S
N127 C132 1.332 . S
C128 C129 1.386 . S
C128 C131 1.388 . S
C129 C128 1.386 . S
C129 C130 1.382 . S
C129 H155 0.950 . S
C130 N127 1.332 . S
C130 C129 1.382 . S
C130 H141 0.952 . S
C131 C128 1.388 . S
C131 C132 1.382 . S
C131 H156 0.950 . S
C132 N127 1.332 . S
C132 C131 1.382 . S
C132 H142 0.948 . S
N133 Co111 2.270 1_556 S
N133 C137 1.332 . S
N133 C138 1.332 . S
C134 C135 1.388 . S
C134 C138 1.382 . S
C134 H157 0.950 . S
C135 C134 1.388 . S
C135 C136 1.386 . S
C136 C135 1.386 . S
C136 C137 1.382 . S
C136 H158 0.950 . S
C137 N133 1.332 . S
C137 C136 1.382 . S
C137 H139 0.952 . S
C138 N133 1.332 . S
C138 C134 1.382 . S
C138 H140 0.976 . S
H139 C137 0.952 . S
H140 C138 0.976 . S
H141 C130 0.952 . S
H142 C132 0.948 . S
C143 C109 1.395 . S
C143 C113 1.391 . S
C144 C106 1.389 . S
C144 C126 1.392 . S
C145 C116 1.392 . S
C145 C118 1.389 . S
C146 C121 1.395 . S
C146 C123 1.391 . S
H147 C107 0.951 . S
H148 C108 0.950 . S
H149 C114 0.949 . S
H150 C115 0.950 1_554 S
H151 C119 0.951 . S
H152 C120 0.950 . S
H153 C124 0.949 . S
H154 C125 0.950 1_556 S
H155 C129 0.950 . S
H156 C131 0.950 . S
H157 C134 0.950 . S
H158 C136 0.950 . S
C159 C160 1.443 . S
C159 N163 1.376 . S
C159 C197 1.389 . S
C160 C159 1.443 . S
C160 C161 1.340 . S
C160 H200 0.951 . S
C161 C160 1.340 . S
C161 C162 1.439 . S
C161 H201 0.950 . S
C162 C161 1.439 . S
C162 N163 1.374 . S
C162 C196 1.395 . S
N163 C159 1.376 . S
N163 C162 1.374 . S
N163 Co164 1.995 1_655 S
Co164 N163 1.995 1_455 S
Co164 N165 1.986 1_455 S
Co164 N170 2.022 . S
Co164 N175 2.004 . S
Co164 N180 2.299 . S
Co164 N186 2.266 1_455 S
N165 Co164 1.986 1_655 S
N165 C166 1.376 . S
N165 C169 1.383 1_655 S
C166 N165 1.376 . S
C166 C167 1.446 . S
C166 C196 1.391 . S
C167 C166 1.446 . S
C167 C168 1.339 1_655 S
C167 H202 0.949 . S
C168 C167 1.339 1_455 S
C168 C169 1.439 . S
C168 H203 0.950 . S
C169 N165 1.383 1_455 S
C169 C168 1.439 . S
C169 C198 1.392 . S
N170 Co164 2.022 . S
N170 C171 1.376 . S
N170 C174 1.374 . S
C171 N170 1.376 . S
C171 C172 1.443 . S
C171 C198 1.389 . S
C172 C171 1.443 . S
C172 C173 1.340 . S
C172 H204 0.951 . S
C173 C172 1.340 . S
C173 C174 1.439 . S
C173 H205 0.950 . S
C174 N170 1.374 . S
C174 C173 1.439 . S
C174 C199 1.395 . S
N175 Co164 2.004 . S
N175 C176 1.376 . S
N175 C179 1.383 1_455 S
C176 N175 1.376 . S
C176 C177 1.446 . S
C176 C199 1.391 . S
C177 C176 1.446 . S
C177 C178 1.339 1_455 S
C177 H206 0.949 . S
C178 C177 1.339 1_655 S
C178 C179 1.439 . S
C178 H207 0.950 . S
C179 N175 1.383 1_655 S
C179 C178 1.439 . S
C179 C197 1.392 . S
N180 Co164 2.299 . S
N180 C183 1.332 . S
N180 C185 1.332 . S
C181 C182 1.386 . S
C181 C184 1.388 . S
C182 C181 1.386 . S
C182 C183 1.382 . S
C182 H208 0.950 . S
C183 N180 1.332 . S
C183 C182 1.382 . S
C183 H194 0.952 . S
C184 C181 1.388 . S
C184 C185 1.382 . S
C184 H209 0.950 . S
C185 N180 1.332 . S
C185 C184 1.382 . S
C185 H195 0.948 . S
N186 Co164 2.266 1_655 S
N186 C190 1.332 . S
N186 C191 1.332 . S
C187 C188 1.388 . S
C187 C191 1.382 . S
C187 H210 0.950 . S
C188 C187 1.388 . S
C188 C189 1.386 . S
C189 C188 1.386 . S
C189 C190 1.382 . S
C189 H211 0.950 . S
C190 N186 1.332 . S
C190 C189 1.382 . S
C190 H192 0.952 . S
C191 N186 1.332 . S
C191 C187 1.382 . S
C191 H193 0.948 . S
H192 C190 0.952 . S
H193 C191 0.948 . S
H194 C183 0.952 . S
H195 C185 0.948 . S
C196 C162 1.395 . S
C196 C166 1.391 . S
C197 C159 1.389 . S
C197 C179 1.392 . S
C198 C169 1.392 . S
C198 C171 1.389 . S
C199 C174 1.395 . S
C199 C176 1.391 . S
H200 C160 0.951 . S
H201 C161 0.950 . S
H202 C167 0.949 . S
H203 C168 0.950 . S
H204 C172 0.951 . S
H205 C173 0.950 . S
H206 C177 0.949 . S
H207 C178 0.950 . S
H208 C182 0.950 . S
H209 C184 0.950 . S
H210 C187 0.950 . S
H211 C189 0.950 . S
C212 C213 1.443 . S
C212 N216 1.376 1_565 S
C212 C250 1.389 . S
C213 C212 1.443 . S
C213 C214 1.340 1_565 S
C213 H253 0.951 . S
C214 C213 1.340 1_545 S
C214 C215 1.439 . S
C214 H254 0.950 . S
C215 C214 1.439 . S
C215 N216 1.374 . S
C215 C249 1.395 . S
N216 C212 1.376 1_545 S
N216 C215 1.374 . S
N216 Co217 2.031 . S
Co217 N216 2.031 . S
Co217 N218 1.998 . S
Co217 N223 1.986 1_544 S
Co217 N228 1.991 1_544 S
Co217 N233 2.272 1_554 S
Co217 N239 2.294 1_545 S
N218 Co217 1.998 . S
N218 C219 1.376 . S
N218 C222 1.383 1_554 S
C219 N218 1.376 . S
C219 C220 1.446 . S
C219 C249 1.391 . S
C220 C219 1.446 . S
C220 C221 1.339 1_554 S
C220 H255 0.949 . S
C221 C220 1.339 1_556 S
C221 C222 1.439 . S
C221 H256 0.950 . S
C222 N218 1.383 1_556 S
C222 C221 1.439 . S
C222 C251 1.392 . S
N223 Co217 1.986 1_566 S
N223 C224 1.376 1_565 S
N223 C227 1.374 . S
C224 N223 1.376 1_545 S
C224 C225 1.443 . S
C224 C251 1.389 . S
C225 C224 1.443 . S
C225 C226 1.340 1_545 S
C225 H257 0.951 . S
C226 C225 1.340 1_565 S
C226 C227 1.439 . S
C226 H258 0.950 . S
C227 N223 1.374 . S
C227 C226 1.439 . S
C227 C252 1.395 . S
N228 Co217 1.991 1_566 S
N228 C229 1.376 . S
N228 C232 1.383 1_556 S
C229 N228 1.376 . S
C229 C230 1.446 . S
C229 C252 1.391 . S
C230 C229 1.446 . S
C230 C231 1.339 1_556 S
C230 H259 0.949 . S
C231 C230 1.339 1_554 S
C231 C232 1.439 . S
C231 H260 0.950 . S
C232 N228 1.383 1_554 S
C232 C231 1.439 . S
C232 C250 1.392 . S
N233 Co217 2.272 1_556 S
N233 C236 1.332 . S
N233 C238 1.332 . S
C234 C235 1.386 . S
C234 C237 1.388 . S
C235 C234 1.386 . S
C235 C236 1.382 . S
C235 H261 0.950 . S
C236 N233 1.332 . S
C236 C235 1.382 . S
C236 H247 0.952 1_545 S
C237 C234 1.388 . S
C237 C238 1.382 . S
C237 H262 0.950 . S
C238 N233 1.332 . S
C238 C237 1.382 . S
C238 H248 0.948 . S
N239 Co217 2.294 1_565 S
N239 C243 1.332 . S
N239 C244 1.332 . S
C240 C241 1.388 . S
C240 C244 1.382 . S
C240 H263 0.950 . S
C241 C240 1.388 . S
C241 C242 1.386 . S
C242 C241 1.386 . S
C242 C243 1.382 . S
C242 H264 0.950 . S
C243 N239 1.332 . S
C243 C242 1.382 . S
C243 H245 0.952 1_565 S
C244 N239 1.332 . S
C244 C240 1.382 . S
C244 H246 0.948 . S
H245 C243 0.952 1_545 S
H246 C244 0.948 . S
H247 C236 0.952 1_565 S
H248 C238 0.948 . S
C249 C215 1.395 . S
C249 C219 1.391 . S
C250 C212 1.389 . S
C250 C232 1.392 . S
C251 C222 1.392 . S
C251 C224 1.389 . S
C252 C227 1.395 . S
C252 C229 1.391 . S
H253 C213 0.951 . S
H254 C214 0.950 . S
H255 C220 0.949 . S
H256 C221 0.950 . S
H257 C225 0.951 . S
H258 C226 0.950 . S
H259 C230 0.949 . S
H260 C231 0.950 . S
H261 C235 0.950 . S
H262 C237 0.950 . S
H263 C240 0.950 . S
H264 C242 0.950 . S
C265 C266 1.443 . S
C265 N269 1.376 . S
C265 C303 1.389 . S
C266 C265 1.443 . S
C266 C267 1.340 . S
C266 H306 0.951 . S
C267 C266 1.340 . S
C267 C268 1.439 . S
C267 H307 0.950 . S
C268 C267 1.439 . S
C268 N269 1.374 . S
C268 C302 1.395 . S
N269 C265 1.376 . S
N269 C268 1.374 . S
N269 Co270 2.008 . S
Co270 N269 2.008 . S
Co270 N271 1.995 . S
Co270 N276 2.008 . S
Co270 N281 1.995 . S
Co270 N286 2.282 . S
Co270 N292 2.282 . S
N271 Co270 1.995 . S
N271 C272 1.376 . S
N271 C275 1.383 . S
C272 N271 1.376 . S
C272 C273 1.446 . S
C272 C302 1.391 . S
C273 C272 1.446 . S
C273 C274 1.339 . S
C273 H308 0.949 . S
C274 C273 1.339 . S
C274 C275 1.439 . S
C274 H309 0.950 . S
C275 N271 1.383 . S
C275 C274 1.439 . S
C275 C304 1.392 . S
N276 Co270 2.008 . S
N276 C277 1.376 . S
N276 C280 1.374 . S
C277 N276 1.376 . S
C277 C278 1.443 . S
C277 C304 1.389 . S
C278 C277 1.443 . S
C278 C279 1.340 . S
C278 H310 0.951 . S
C279 C278 1.340 . S
C279 C280 1.439 . S
C279 H311 0.950 . S
C280 N276 1.374 . S
C280 C279 1.439 . S
C280 C305 1.395 . S
N281 Co270 1.995 . S
N281 C282 1.376 . S
N281 C285 1.383 . S
C282 N281 1.376 . S
C282 C283 1.446 . S
C282 C305 1.391 . S
C283 C282 1.446 . S
C283 C284 1.339 . S
C283 H312 0.949 . S
C284 C283 1.339 . S
C284 C285 1.439 . S
C284 H313 0.950 . S
C285 N281 1.383 . S
C285 C284 1.439 . S
C285 C303 1.392 . S
N286 Co270 2.282 . S
N286 C289 1.332 . S
N286 C291 1.332 . S
C287 C288 1.386 . S
C287 C290 1.388 . S
C288 C287 1.386 . S
C288 C289 1.382 . S
C288 H314 0.950 . S
C289 N286 1.332 . S
C289 C288 1.382 . S
C289 H300 0.952 . S
C290 C287 1.388 . S
C290 C291 1.382 . S
C290 H315 0.950 . S
C291 N286 1.332 . S
C291 C290 1.382 . S
C291 H301 0.948 . S
N292 Co270 2.282 . S
N292 C296 1.332 . S
N292 C297 1.332 . S
C293 C294 1.388 . S
C293 C297 1.382 . S
C293 H316 0.950 . S
C294 C293 1.388 . S
C294 C295 1.386 . S
C295 C294 1.386 . S
C295 C296 1.382 . S
C295 H317 0.950 . S
C296 N292 1.332 . S
C296 C295 1.382 . S
C296 H298 0.952 . S
C297 N292 1.332 . S
C297 C293 1.382 . S
C297 H299 0.948 . S
H298 C296 0.952 . S
H299 C297 0.948 . S
H300 C289 0.952 . S
H301 C291 0.948 . S
C302 C268 1.395 . S
C302 C272 1.391 . S
C303 C265 1.389 . S
C303 C285 1.392 . S
C304 C275 1.392 . S
C304 C277 1.389 . S
C305 C280 1.395 . S
C305 C282 1.391 . S
H306 C266 0.951 . S
H307 C267 0.950 . S
H308 C273 0.949 . S
H309 C274 0.950 . S
H310 C278 0.951 . S
H311 C279 0.950 . S
H312 C283 0.949 . S
H313 C284 0.950 . S
H314 C288 0.950 . S
H315 C290 0.950 . S
H316 C293 0.950 . S
H317 C295 0.950 . S
C318 C319 1.384 . S
C318 C320 1.384 . S
C318 H346 0.931 . S
C319 C318 1.384 . S
C319 C322 1.382 . S
C320 C318 1.384 . S
C320 C321 1.381 . S
C320 H347 0.930 . S
C321 C320 1.381 . S
C321 C323 1.381 . S
C321 C324 1.487 . S
C322 C319 1.382 . S
C322 C323 1.387 . S
C322 H348 0.930 . S
C323 C321 1.381 . S
C323 C322 1.387 . S
C323 H349 0.931 . S
C324 C321 1.487 . S
C324 C331 1.399 . S
C324 N362 1.343 . S
C325 C326 1.384 . S
C325 C327 1.384 . S
C325 H350 0.931 . S
C326 C325 1.384 . S
C326 C329 1.382 . S
C327 C325 1.384 . S
C327 C328 1.381 . S
C327 H351 0.930 . S
C328 C327 1.381 . S
C328 C330 1.381 . S
C328 C331 1.487 . S
C329 C326 1.382 . S
C329 C330 1.387 . S
C329 H352 0.930 . S
C330 C328 1.381 . S
C330 C329 1.387 . S
C330 H353 0.931 . S
C331 C324 1.399 . S
C331 C328 1.487 . S
C331 N363 1.343 . S
C332 C333 1.384 . S
C332 C334 1.384 . S
C332 H354 0.931 . S
C333 C332 1.384 . S
C333 C336 1.382 . S
C334 C332 1.384 . S
C334 C335 1.381 . S
C334 H355 0.930 . S
C335 C334 1.381 . S
C335 C337 1.381 . S
C335 C338 1.487 . S
C336 C333 1.382 . S
C336 C337 1.387 . S
C336 H356 0.930 . S
C337 C335 1.381 . S
C337 C336 1.387 . S
C337 H357 0.931 . S
C338 C335 1.487 . S
C338 C345 1.399 . S
C338 N363 1.343 . S
C339 C340 1.384 . S
C339 C341 1.384 . S
C339 H358 0.931 . S
C340 C339 1.384 . S
C340 C343 1.382 . S
C341 C339 1.384 . S
C341 C342 1.381 . S
C341 H359 0.930 . S
C342 C341 1.381 . S
C342 C344 1.381 . S
C342 C345 1.487 . S
C343 C340 1.382 . S
C343 C344 1.387 . S
C343 H360 0.930 . S
C344 C342 1.381 . S
C344 C343 1.387 . S
C344 H361 0.931 . S
C345 C338 1.399 . S
C345 C342 1.487 . S
C345 N362 1.343 . S
H346 C318 0.931 . S
H347 C320 0.930 . S
H348 C322 0.930 . S
H349 C323 0.931 . S
H350 C325 0.931 . S
H351 C327 0.930 . S
H352 C329 0.930 . S
H353 C330 0.931 . S
H354 C332 0.931 . S
H355 C334 0.930 . S
H356 C336 0.930 . S
H357 C337 0.931 . S
H358 C339 0.931 . S
H359 C341 0.930 . S
H360 C343 0.930 . S
H361 C344 0.931 . S
N362 C324 1.343 . S
N362 C345 1.343 . S
N363 C331 1.343 . S
N363 C338 1.343 . S
C364 C365 1.384 . S
C364 C366 1.384 . S
C364 H392 0.931 . S
C365 C364 1.384 . S
C365 C368 1.382 . S
C366 C364 1.384 . S
C366 C367 1.381 . S
C366 H393 0.930 . S
C367 C366 1.381 . S
C367 C369 1.381 . S
C367 C370 1.487 . S
C368 C365 1.382 . S
C368 C369 1.387 . S
C368 H394 0.930 . S
C369 C367 1.381 . S
C369 C368 1.387 . S
C369 H395 0.931 . S
C370 C367 1.487 . S
C370 C377 1.399 . S
C370 N408 1.343 . S
C371 C372 1.384 . S
C371 C373 1.384 . S
C371 H396 0.931 . S
C372 C371 1.384 . S
C372 C375 1.382 . S
C373 C371 1.384 . S
C373 C374 1.381 . S
C373 H397 0.930 . S
C374 C373 1.381 . S
C374 C376 1.381 . S
C374 C377 1.487 . S
C375 C372 1.382 . S
C375 C376 1.387 . S
C375 H398 0.930 . S
C376 C374 1.381 . S
C376 C375 1.387 . S
C376 H399 0.931 . S
C377 C370 1.399 . S
C377 C374 1.487 . S
C377 N409 1.343 . S
C378 C379 1.384 . S
C378 C380 1.384 . S
C378 H400 0.931 . S
C379 C378 1.384 . S
C379 C382 1.382 . S
C380 C378 1.384 . S
C380 C381 1.381 . S
C380 H401 0.930 . S
C381 C380 1.381 . S
C381 C383 1.381 . S
C381 C384 1.487 . S
C382 C379 1.382 . S
C382 C383 1.387 . S
C382 H402 0.930 . S
C383 C381 1.381 . S
C383 C382 1.387 . S
C383 H403 0.931 . S
C384 C381 1.487 . S
C384 C391 1.399 . S
C384 N409 1.343 . S
C385 C386 1.384 . S
C385 C387 1.384 . S
C385 H404 0.931 . S
C386 C385 1.384 . S
C386 C389 1.382 . S
C387 C385 1.384 . S
C387 C388 1.381 . S
C387 H405 0.930 . S
C388 C387 1.381 . S
C388 C390 1.381 . S
C388 C391 1.487 . S
C389 C386 1.382 . S
C389 C390 1.387 . S
C389 H406 0.930 . S
C390 C388 1.381 . S
C390 C389 1.387 . S
C390 H407 0.931 . S
C391 C384 1.399 . S
C391 C388 1.487 . S
C391 N408 1.343 . S
H392 C364 0.931 . S
H393 C366 0.930 . S
H394 C368 0.930 . S
H395 C369 0.931 . S
H396 C371 0.931 . S
H397 C373 0.930 . S
H398 C375 0.930 . S
H399 C376 0.931 . S
H400 C378 0.931 . S
H401 C380 0.930 . S
H402 C382 0.930 . S
H403 C383 0.931 . S
H404 C385 0.931 . S
H405 C387 0.930 . S
H406 C389 0.930 . S
H407 C390 0.931 . S
N408 C370 1.343 . S
N408 C391 1.343 . S
N409 C377 1.343 . S
N409 C384 1.343 . S
C410 C411 1.384 . S
C410 C412 1.384 . S
C410 H438 0.931 . S
C411 C410 1.384 . S
C411 C414 1.382 . S
C412 C410 1.384 . S
C412 C413 1.381 . S
C412 H439 0.930 . S
C413 C412 1.381 . S
C413 C415 1.381 . S
C413 C416 1.487 . S
C414 C411 1.382 . S
C414 C415 1.387 . S
C414 H440 0.930 . S
C415 C413 1.381 . S
C415 C414 1.387 . S
C415 H441 0.931 . S
C416 C413 1.487 . S
C416 C423 1.399 . S
C416 N454 1.343 . S
C417 C418 1.384 . S
C417 C419 1.384 . S
C417 H442 0.931 . S
C418 C417 1.384 . S
C418 C421 1.382 . S
C419 C417 1.384 . S
C419 C420 1.381 . S
C419 H443 0.930 . S
C420 C419 1.381 . S
C420 C422 1.381 . S
C420 C423 1.487 . S
C421 C418 1.382 . S
C421 C422 1.387 . S
C421 H444 0.930 . S
C422 C420 1.381 . S
C422 C421 1.387 . S
C422 H445 0.931 . S
C423 C416 1.399 . S
C423 C420 1.487 . S
C423 N455 1.343 . S
C424 C425 1.384 . S
C424 C426 1.384 . S
C424 H446 0.931 . S
C425 C424 1.384 . S
C425 C428 1.382 . S
C426 C424 1.384 . S
C426 C427 1.381 . S
C426 H447 0.930 . S
C427 C426 1.381 . S
C427 C429 1.381 . S
C427 C430 1.487 . S
C428 C425 1.382 . S
C428 C429 1.387 . S
C428 H448 0.930 . S
C429 C427 1.381 . S
C429 C428 1.387 . S
C429 H449 0.931 . S
C430 C427 1.487 . S
C430 C437 1.399 . S
C430 N455 1.343 . S
C431 C432 1.384 . S
C431 C433 1.384 . S
C431 H450 0.931 . S
C432 C431 1.384 . S
C432 C435 1.382 . S
C433 C431 1.384 . S
C433 C434 1.381 . S
C433 H451 0.930 . S
C434 C433 1.381 . S
C434 C436 1.381 . S
C434 C437 1.487 . S
C435 C432 1.382 . S
C435 C436 1.387 . S
C435 H452 0.930 . S
C436 C434 1.381 . S
C436 C435 1.387 . S
C436 H453 0.931 . S
C437 C430 1.399 . S
C437 C434 1.487 . S
C437 N454 1.343 . S
H438 C410 0.931 . S
H439 C412 0.930 . S
H440 C414 0.930 . S
H441 C415 0.931 . S
H442 C417 0.931 . S
H443 C419 0.930 . S
H444 C421 0.930 . S
H445 C422 0.931 . S
H446 C424 0.931 . S
H447 C426 0.930 . S
H448 C428 0.930 . S
H449 C429 0.931 . S
H450 C431 0.931 . S
H451 C433 0.930 . S
H452 C435 0.930 . S
H453 C436 0.931 . S
N454 C416 1.343 . S
N454 C437 1.343 . S
N455 C423 1.343 . S
N455 C430 1.343 . S
C456 C457 1.384 . S
C456 C458 1.384 . S
C456 H484 0.931 . S
C457 C456 1.384 . S
C457 C460 1.382 . S
C458 C456 1.384 . S
C458 C459 1.381 . S
C458 H485 0.930 . S
C459 C458 1.381 . S
C459 C461 1.381 . S
C459 C462 1.487 . S
C460 C457 1.382 . S
C460 C461 1.387 . S
C460 H486 0.930 . S
C461 C459 1.381 . S
C461 C460 1.387 . S
C461 H487 0.931 . S
C462 C459 1.487 . S
C462 C469 1.399 . S
C462 N500 1.343 . S
C463 C464 1.384 . S
C463 C465 1.384 . S
C463 H488 0.931 . S
C464 C463 1.384 . S
C464 C467 1.382 . S
C465 C463 1.384 . S
C465 C466 1.381 . S
C465 H489 0.930 . S
C466 C465 1.381 . S
C466 C468 1.381 . S
C466 C469 1.487 . S
C467 C464 1.382 . S
C467 C468 1.387 . S
C467 H490 0.930 . S
C468 C466 1.381 . S
C468 C467 1.387 . S
C468 H491 0.931 . S
C469 C462 1.399 . S
C469 C466 1.487 . S
C469 N501 1.343 . S
C470 C471 1.384 . S
C470 C472 1.384 . S
C470 H492 0.931 . S
C471 C470 1.384 . S
C471 C474 1.382 . S
C472 C470 1.384 . S
C472 C473 1.381 . S
C472 H493 0.930 . S
C473 C472 1.381 . S
C473 C475 1.381 . S
C473 C476 1.487 . S
C474 C471 1.382 . S
C474 C475 1.387 . S
C474 H494 0.930 . S
C475 C473 1.381 . S
C475 C474 1.387 . S
C475 H495 0.931 . S
C476 C473 1.487 . S
C476 C483 1.399 . S
C476 N501 1.343 . S
C477 C478 1.384 . S
C477 C479 1.384 . S
C477 H496 0.931 . S
C478 C477 1.384 . S
C478 C481 1.382 . S
C479 C477 1.384 . S
C479 C480 1.381 . S
C479 H497 0.930 . S
C480 C479 1.381 . S
C480 C482 1.381 . S
C480 C483 1.487 . S
C481 C478 1.382 . S
C481 C482 1.387 . S
C481 H498 0.930 . S
C482 C480 1.381 . S
C482 C481 1.387 . S
C482 H499 0.931 . S
C483 C476 1.399 . S
C483 C480 1.487 . S
C483 N500 1.343 . S
H484 C456 0.931 . S
H485 C458 0.930 . S
H486 C460 0.930 . S
H487 C461 0.931 . S
H488 C463 0.931 . S
H489 C465 0.930 . S
H490 C467 0.930 . S
H491 C468 0.931 . S
H492 C470 0.931 . S
H493 C472 0.930 . S
H494 C474 0.930 . S
H495 C475 0.931 . S
H496 C477 0.931 . S
H497 C479 0.930 . S
H498 C481 0.930 . S
H499 C482 0.931 . S
N500 C462 1.343 . S
N500 C483 1.343 . S
N501 C469 1.343 . S
N501 C476 1.343 . S
C502 C503 1.384 . S
C502 C504 1.384 . S
C502 H530 0.931 . S
C503 C502 1.384 . S
C503 C506 1.382 . S
C504 C502 1.384 . S
C504 C505 1.381 . S
C504 H531 0.930 . S
C505 C504 1.381 . S
C505 C507 1.381 . S
C505 C508 1.487 . S
C506 C503 1.382 . S
C506 C507 1.387 . S
C506 H532 0.930 . S
C507 C505 1.381 . S
C507 C506 1.387 . S
C507 H533 0.931 . S
C508 C505 1.487 . S
C508 C515 1.399 . S
C508 N546 1.343 . S
C509 C510 1.384 . S
C509 C511 1.384 . S
C509 H534 0.931 . S
C510 C509 1.384 . S
C510 C513 1.382 . S
C511 C509 1.384 . S
C511 C512 1.381 . S
C511 H535 0.930 . S
C512 C511 1.381 . S
C512 C514 1.381 . S
C512 C515 1.487 . S
C513 C510 1.382 . S
C513 C514 1.387 . S
C513 H536 0.930 . S
C514 C512 1.381 . S
C514 C513 1.387 . S
C514 H537 0.931 . S
C515 C508 1.399 . S
C515 C512 1.487 . S
C515 N547 1.343 . S
C516 C517 1.384 . S
C516 C518 1.384 . S
C516 H538 0.931 . S
C517 C516 1.384 . S
C517 C520 1.382 . S
C518 C516 1.384 . S
C518 C519 1.381 . S
C518 H539 0.930 . S
C519 C518 1.381 . S
C519 C521 1.381 . S
C519 C522 1.487 . S
C520 C517 1.382 . S
C520 C521 1.387 . S
C520 H540 0.930 . S
C521 C519 1.381 . S
C521 C520 1.387 . S
C521 H541 0.931 . S
C522 C519 1.487 . S
C522 C529 1.399 . S
C522 N547 1.343 . S
C523 C524 1.384 . S
C523 C525 1.384 . S
C523 H542 0.931 . S
C524 C523 1.384 . S
C524 C527 1.382 . S
C525 C523 1.384 . S
C525 C526 1.381 . S
C525 H543 0.930 . S
C526 C525 1.381 . S
C526 C528 1.381 . S
C526 C529 1.487 . S
C527 C524 1.382 . S
C527 C528 1.387 . S
C527 H544 0.930 . S
C528 C526 1.381 . S
C528 C527 1.387 . S
C528 H545 0.931 . S
C529 C522 1.399 . S
C529 C526 1.487 . S
C529 N546 1.343 . S
H530 C502 0.931 . S
H531 C504 0.930 . S
H532 C506 0.930 . S
H533 C507 0.931 . S
H534 C509 0.931 . S
H535 C511 0.930 . S
H536 C513 0.930 . S
H537 C514 0.931 . S
H538 C516 0.931 . S
H539 C518 0.930 . S
H540 C520 0.930 . S
H541 C521 0.931 . S
H542 C523 0.931 . S
H543 C525 0.930 . S
H544 C527 0.930 . S
H545 C528 0.931 . S
N546 C508 1.343 . S
N546 C529 1.343 . S
N547 C515 1.343 . S
N547 C522 1.343 . S
C548 C549 1.384 . S
C548 C550 1.384 . S
C548 H576 0.931 . S
C549 C548 1.384 . S
C549 C552 1.382 . S
C550 C548 1.384 . S
C550 C551 1.381 . S
C550 H577 0.930 . S
C551 C550 1.381 . S
C551 C553 1.381 . S
C551 C554 1.487 . S
C552 C549 1.382 . S
C552 C553 1.387 . S
C552 H578 0.930 . S
C553 C551 1.381 . S
C553 C552 1.387 . S
C553 H579 0.931 . S
C554 C551 1.487 . S
C554 C561 1.399 . S
C554 N592 1.343 . S
C555 C556 1.384 . S
C555 C557 1.384 . S
C555 H580 0.931 . S
C556 C555 1.384 . S
C556 C559 1.382 . S
C557 C555 1.384 . S
C557 C558 1.381 . S
C557 H581 0.930 . S
C558 C557 1.381 . S
C558 C560 1.381 . S
C558 C561 1.487 . S
C559 C556 1.382 . S
C559 C560 1.387 . S
C559 H582 0.930 . S
C560 C558 1.381 . S
C560 C559 1.387 . S
C560 H583 0.931 . S
C561 C554 1.399 . S
C561 C558 1.487 . S
C561 N593 1.343 . S
C562 C563 1.384 . S
C562 C564 1.384 . S
C562 H584 0.931 . S
C563 C562 1.384 . S
C563 C566 1.382 . S
C564 C562 1.384 . S
C564 C565 1.381 . S
C564 H585 0.930 . S
C565 C564 1.381 . S
C565 C567 1.381 . S
C565 C568 1.487 . S
C566 C563 1.382 . S
C566 C567 1.387 . S
C566 H586 0.930 . S
C567 C565 1.381 . S
C567 C566 1.387 . S
C567 H587 0.931 . S
C568 C565 1.487 . S
C568 C575 1.399 . S
C568 N593 1.343 . S
C569 C570 1.384 . S
C569 C571 1.384 . S
C569 H588 0.931 . S
C570 C569 1.384 . S
C570 C573 1.382 . S
C571 C569 1.384 . S
C571 C572 1.381 . S
C571 H589 0.930 . S
C572 C571 1.381 . S
C572 C574 1.381 . S
C572 C575 1.487 . S
C573 C570 1.382 . S
C573 C574 1.387 . S
C573 H590 0.930 . S
C574 C572 1.381 . S
C574 C573 1.387 . S
C574 H591 0.931 . S
C575 C568 1.399 . S
C575 C572 1.487 . S
C575 N592 1.343 . S
H576 C548 0.931 . S
H577 C550 0.930 . S
H578 C552 0.930 . S
H579 C553 0.931 . S
H580 C555 0.931 . S
H581 C557 0.930 . S
H582 C559 0.930 . S
H583 C560 0.931 . S
H584 C562 0.931 . S
H585 C564 0.930 . S
H586 C566 0.930 . S
H587 C567 0.931 . S
H588 C569 0.931 . S
H589 C571 0.930 . S
H590 C573 0.930 . S
H591 C574 0.931 . S
N592 C554 1.343 . S
N592 C575 1.343 . S
N593 C561 1.343 . S
N593 C568 1.343 . S
H594 C600 0.930 . S
H595 C603 0.930 . S
H596 C604 0.930 . S
H597 C605 0.930 . S
H598 C608 0.930 . S
H599 C609 0.930 . S
C600 H594 0.930 . S
C600 C601 1.355 . S
C600 C602 1.415 . S
C601 C600 1.355 . S
C601 C603 1.419 . S
C602 C600 1.415 . S
C602 C607 1.425 . S
C602 C609 1.409 . S
C603 H595 0.930 . S
C603 C601 1.419 . S
C603 C604 1.362 . S
C604 H596 0.930 . S
C604 C603 1.362 . S
C604 C607 1.409 . S
C605 H597 0.930 . S
C605 C606 1.355 . S
C605 C607 1.415 . S
C606 C605 1.355 . S
C606 C608 1.419 . S
C607 C602 1.425 . S
C607 C604 1.409 . S
C607 C605 1.415 . S
C608 H598 0.930 . S
C608 C606 1.419 . S
C608 C609 1.362 . S
C609 H599 0.930 . S
C609 C602 1.409 . S
C609 C608 1.362 . S
H610 C616 0.930 . S
H611 C619 0.930 . S
H612 C620 0.930 . S
H613 C621 0.930 . S
H614 C624 0.930 . S
H615 C625 0.930 . S
C616 H610 0.930 . S
C616 C617 1.355 . S
C616 C618 1.415 . S
C617 C616 1.355 . S
C617 C619 1.419 . S
C618 C616 1.415 . S
C618 C623 1.425 . S
C618 C625 1.409 . S
C619 H611 0.930 . S
C619 C617 1.419 . S
C619 C620 1.362 . S
C620 H612 0.930 . S
C620 C619 1.362 . S
C620 C623 1.409 . S
C621 H613 0.930 . S
C621 C622 1.355 . S
C621 C623 1.415 . S
C622 C621 1.355 . S
C622 C624 1.419 . S
C623 C618 1.425 . S
C623 C620 1.409 . S
C623 C621 1.415 . S
C624 H614 0.930 . S
C624 C622 1.419 . S
C624 C625 1.362 . S
C625 H615 0.930 . S
C625 C618 1.409 . S
C625 C624 1.362 . S
H626 C632 0.930 . S
H627 C635 0.930 . S
H628 C636 0.930 . S
H629 C637 0.930 . S
H630 C640 0.930 . S
H631 C641 0.930 . S
C632 H626 0.930 . S
C632 C633 1.355 . S
C632 C634 1.415 . S
C633 C632 1.355 . S
C633 C635 1.419 . S
C634 C632 1.415 . S
C634 C639 1.425 . S
C634 C641 1.409 . S
C635 H627 0.930 . S
C635 C633 1.419 . S
C635 C636 1.362 . S
C636 H628 0.930 . S
C636 C635 1.362 . S
C636 C639 1.409 . S
C637 H629 0.930 . S
C637 C638 1.355 . S
C637 C639 1.415 . S
C638 C637 1.355 . S
C638 C640 1.419 . S
C639 C634 1.425 . S
C639 C636 1.409 . S
C639 C637 1.415 . S
C640 H630 0.930 . S
C640 C638 1.419 . S
C640 C641 1.362 . S
C641 H631 0.930 . S
C641 C634 1.409 . S
C641 C640 1.362 . S
H642 C648 0.930 . S
H643 C651 0.930 . S
H644 C652 0.930 . S
H645 C653 0.930 . S
H646 C656 0.930 . S
H647 C657 0.930 . S
C648 H642 0.930 . S
C648 C649 1.355 . S
C648 C650 1.415 . S
C649 C648 1.355 . S
C649 C651 1.419 . S
C650 C648 1.415 . S
C650 C655 1.425 . S
C650 C657 1.409 . S
C651 H643 0.930 . S
C651 C649 1.419 . S
C651 C652 1.362 . S
C652 H644 0.930 . S
C652 C651 1.362 . S
C652 C655 1.409 . S
C653 H645 0.930 . S
C653 C654 1.355 . S
C653 C655 1.415 . S
C654 C653 1.355 . S
C654 C656 1.419 . S
C655 C650 1.425 . S
C655 C652 1.409 . S
C655 C653 1.415 . S
C656 H646 0.930 . S
C656 C654 1.419 . S
C656 C657 1.362 . S
C657 H647 0.930 . S
C657 C650 1.409 . S
C657 C656 1.362 . S
H658 C664 0.930 . S
H659 C667 0.930 . S
H660 C668 0.930 . S
H661 C669 0.930 . S
H662 C672 0.930 . S
H663 C673 0.930 . S
C664 H658 0.930 . S
C664 C665 1.355 . S
C664 C666 1.415 . S
C665 C664 1.355 . S
C665 C667 1.419 . S
C666 C664 1.415 . S
C666 C671 1.425 . S
C666 C673 1.409 . S
C667 H659 0.930 . S
C667 C665 1.419 . S
C667 C668 1.362 . S
C668 H660 0.930 . S
C668 C667 1.362 . S
C668 C671 1.409 . S
C669 H661 0.930 . S
C669 C670 1.355 . S
C669 C671 1.415 . S
C670 C669 1.355 . S
C670 C672 1.419 . S
C671 C666 1.425 . S
C671 C668 1.409 . S
C671 C669 1.415 . S
C672 H662 0.930 . S
C672 C670 1.419 . S
C672 C673 1.362 . S
C673 H663 0.930 . S
C673 C666 1.409 . S
C673 C672 1.362 . S
H674 C680 0.930 . S
H675 C683 0.930 . S
H676 C684 0.930 . S
H677 C685 0.930 . S
H678 C688 0.930 . S
H679 C689 0.930 . S
C680 H674 0.930 . S
C680 C681 1.355 . S
C680 C682 1.415 . S
C681 C680 1.355 . S
C681 C683 1.419 . S
C682 C680 1.415 . S
C682 C687 1.425 . S
C682 C689 1.409 . S
C683 H675 0.930 . S
C683 C681 1.419 . S
C683 C684 1.362 . S
C684 H676 0.930 . S
C684 C683 1.362 . S
C684 C687 1.409 . S
C685 H677 0.930 . S
C685 C686 1.355 . S
C685 C687 1.415 . S
C686 C685 1.355 . S
C686 C688 1.419 . S
C687 C682 1.425 . S
C687 C684 1.409 . S
C687 C685 1.415 . S
C688 H678 0.930 . S
C688 C686 1.419 . S
C688 C689 1.362 . S
C689 H679 0.930 . S
C689 C682 1.409 . S
C689 C688 1.362 . S
H690 C696 0.930 . S
H691 C699 0.930 . S
H692 C700 0.930 . S
H693 C701 0.930 . S
H694 C704 0.930 . S
H695 C705 0.930 . S
C696 H690 0.930 . S
C696 C697 1.355 . S
C696 C698 1.415 . S
C697 C696 1.355 . S
C697 C699 1.419 . S
C698 C696 1.415 . S
C698 C703 1.425 . S
C698 C705 1.409 . S
C699 H691 0.930 . S
C699 C697 1.419 . S
C699 C700 1.362 . S
C700 H692 0.930 . S
C700 C699 1.362 . S
C700 C703 1.409 . S
C701 H693 0.930 . S
C701 C702 1.355 . S
C701 C703 1.415 . S
C702 C701 1.355 . S
C702 C704 1.419 . S
C703 C698 1.425 . S
C703 C700 1.409 . S
C703 C701 1.415 . S
C704 H694 0.930 . S
C704 C702 1.419 . S
C704 C705 1.362 . S
C705 H695 0.930 . S
C705 C698 1.409 . S
C705 C704 1.362 . S
H706 C712 0.930 . S
H707 C715 0.930 . S
H708 C716 0.930 . S
H709 C717 0.930 . S
H710 C720 0.930 . S
H711 C721 0.930 . S
C712 H706 0.930 . S
C712 C713 1.355 . S
C712 C714 1.415 . S
C713 C712 1.355 . S
C713 C715 1.419 . S
C714 C712 1.415 . S
C714 C719 1.425 . S
C714 C721 1.409 . S
C715 H707 0.930 . S
C715 C713 1.419 . S
C715 C716 1.362 . S
C716 H708 0.930 . S
C716 C715 1.362 . S
C716 C719 1.409 . S
C717 H709 0.930 . S
C717 C718 1.355 . S
C717 C719 1.415 . S
C718 C717 1.355 . S
C718 C720 1.419 . S
C719 C714 1.425 . S
C719 C716 1.409 . S
C719 C717 1.415 . S
C720 H710 0.930 . S
C720 C718 1.419 . S
C720 C721 1.362 . S
C721 H711 0.930 . S
C721 C714 1.409 . S
C721 C720 1.362 . S
H722 C728 0.930 . S
H723 C731 0.930 . S
H724 C732 0.930 . S
H725 C733 0.930 . S
H726 C736 0.930 . S
H727 C737 0.930 . S
C728 H722 0.930 . S
C728 C729 1.355 . S
C728 C730 1.415 . S
C729 C728 1.355 . S
C729 C731 1.419 . S
C730 C728 1.415 . S
C730 C735 1.425 . S
C730 C737 1.409 . S
C731 H723 0.930 . S
C731 C729 1.419 . S
C731 C732 1.362 . S
C732 H724 0.930 . S
C732 C731 1.362 . S
C732 C735 1.409 . S
C733 H725 0.930 . S
C733 C734 1.355 . S
C733 C735 1.415 . S
C734 C733 1.355 . S
C734 C736 1.419 . S
C735 C730 1.425 . S
C735 C732 1.409 . S
C735 C733 1.415 . S
C736 H726 0.930 . S
C736 C734 1.419 . S
C736 C737 1.362 . S
C737 H727 0.930 . S
C737 C730 1.409 . S
C737 C736 1.362 . S
H738 C744 0.930 . S
H739 C747 0.930 . S
H740 C748 0.930 . S
H741 C749 0.930 . S
H742 C752 0.930 . S
H743 C753 0.930 . S
C744 H738 0.930 . S
C744 C745 1.355 . S
C744 C746 1.415 . S
C745 C744 1.355 . S
C745 C747 1.419 . S
C746 C744 1.415 . S
C746 C751 1.425 . S
C746 C753 1.409 . S
C747 H739 0.930 . S
C747 C745 1.419 . S
C747 C748 1.362 . S
C748 H740 0.930 . S
C748 C747 1.362 . S
C748 C751 1.409 . S
C749 H741 0.930 . S
C749 C750 1.355 . S
C749 C751 1.415 . S
C750 C749 1.355 . S
C750 C752 1.419 . S
C751 C746 1.425 . S
C751 C748 1.409 . S
C751 C749 1.415 . S
C752 H742 0.930 . S
C752 C750 1.419 . S
C752 C753 1.362 . S
C753 H743 0.930 . S
C753 C746 1.409 . S
C753 C752 1.362 . S
H754 C760 0.930 . S
H755 C763 0.930 . S
H756 C764 0.930 . S
H757 C765 0.930 . S
H758 C768 0.930 . S
H759 C769 0.930 . S
C760 H754 0.930 . S
C760 C761 1.355 . S
C760 C762 1.415 . S
C761 C760 1.355 . S
C761 C763 1.419 . S
C762 C760 1.415 . S
C762 C767 1.425 . S
C762 C769 1.409 . S
C763 H755 0.930 . S
C763 C761 1.419 . S
C763 C764 1.362 . S
C764 H756 0.930 . S
C764 C763 1.362 . S
C764 C767 1.409 . S
C765 H757 0.930 . S
C765 C766 1.355 . S
C765 C767 1.415 . S
C766 C765 1.355 . S
C766 C768 1.419 . S
C767 C762 1.425 . S
C767 C764 1.409 . S
C767 C765 1.415 . S
C768 H758 0.930 . S
C768 C766 1.419 . S
C768 C769 1.362 . S
C769 H759 0.930 . S
C769 C762 1.409 . S
C769 C768 1.362 . S
H770 C776 0.930 . S
H771 C779 0.930 . S
H772 C780 0.930 . S
H773 C781 0.930 . S
H774 C784 0.930 . S
H775 C785 0.930 . S
C776 H770 0.930 . S
C776 C777 1.355 . S
C776 C778 1.415 . S
C777 C776 1.355 . S
C777 C779 1.419 . S
C778 C776 1.415 . S
C778 C783 1.425 . S
C778 C785 1.409 . S
C779 H771 0.930 . S
C779 C777 1.419 . S
C779 C780 1.362 . S
C780 H772 0.930 . S
C780 C779 1.362 . S
C780 C783 1.409 . S
C781 H773 0.930 . S
C781 C782 1.355 . S
C781 C783 1.415 . S
C782 C781 1.355 . S
C782 C784 1.419 . S
C783 C778 1.425 . S
C783 C780 1.409 . S
C783 C781 1.415 . S
C784 H774 0.930 . S
C784 C782 1.419 . S
C784 C785 1.362 . S
C785 H775 0.930 . S
C785 C778 1.409 . S
C785 C784 1.362 . S
H786 C792 0.930 . S
H787 C795 0.930 . S
H788 C796 0.930 . S
H789 C797 0.930 . S
H790 C800 0.930 . S
H791 C801 0.930 . S
C792 H786 0.930 . S
C792 C793 1.355 . S
C792 C794 1.415 . S
C793 C792 1.355 . S
C793 C795 1.419 . S
C794 C792 1.415 . S
C794 C799 1.425 . S
C794 C801 1.409 . S
C795 H787 0.930 . S
C795 C793 1.419 . S
C795 C796 1.362 . S
C796 H788 0.930 . S
C796 C795 1.362 . S
C796 C799 1.409 . S
C797 H789 0.930 . S
C797 C798 1.355 . S
C797 C799 1.415 . S
C798 C797 1.355 . S
C798 C800 1.419 . S
C799 C794 1.425 . S
C799 C796 1.409 . S
C799 C797 1.415 . S
C800 H790 0.930 . S
C800 C798 1.419 . S
C800 C801 1.362 . S
C801 H791 0.930 . S
C801 C794 1.409 . S
C801 C800 1.362 . S
H802 C808 0.930 . S
H803 C811 0.930 . S
H804 C812 0.930 . S
H805 C813 0.930 . S
H806 C816 0.930 . S
H807 C817 0.930 . S
C808 H802 0.930 . S
C808 C809 1.355 . S
C808 C810 1.415 . S
C809 C808 1.355 . S
C809 C811 1.419 . S
C810 C808 1.415 . S
C810 C815 1.425 . S
C810 C817 1.409 . S
C811 H803 0.930 . S
C811 C809 1.419 . S
C811 C812 1.362 . S
C812 H804 0.930 . S
C812 C811 1.362 . S
C812 C815 1.409 . S
C813 H805 0.930 . S
C813 C814 1.355 . S
C813 C815 1.415 . S
C814 C813 1.355 . S
C814 C816 1.419 . S
C815 C810 1.425 . S
C815 C812 1.409 . S
C815 C813 1.415 . S
C816 H806 0.930 . S
C816 C814 1.419 . S
C816 C817 1.362 . S
C817 H807 0.930 . S
C817 C810 1.409 . S
C817 C816 1.362 . S
H818 C824 0.930 . S
H819 C827 0.930 . S
H820 C828 0.930 . S
H821 C829 0.930 . S
H822 C832 0.930 . S
H823 C833 0.930 . S
C824 H818 0.930 . S
C824 C825 1.355 . S
C824 C826 1.415 . S
C825 C824 1.355 . S
C825 C827 1.419 . S
C826 C824 1.415 . S
C826 C831 1.425 . S
C826 C833 1.409 . S
C827 H819 0.930 . S
C827 C825 1.419 . S
C827 C828 1.362 . S
C828 H820 0.930 . S
C828 C827 1.362 . S
C828 C831 1.409 . S
C829 H821 0.930 . S
C829 C830 1.355 . S
C829 C831 1.415 . S
C830 C829 1.355 . S
C830 C832 1.419 . S
C831 C826 1.425 . S
C831 C828 1.409 . S
C831 C829 1.415 . S
C832 H822 0.930 . S
C832 C830 1.419 . S
C832 C833 1.362 . S
C833 H823 0.930 . S
C833 C826 1.409 . S
C833 C832 1.362 . S
H834 C840 0.930 . S
H835 C843 0.930 . S
H836 C844 0.930 . S
H837 C845 0.930 . S
H838 C848 0.930 . S
H839 C849 0.930 . S
C840 H834 0.930 . S
C840 C841 1.355 . S
C840 C842 1.415 . S
C841 C840 1.355 . S
C841 C843 1.419 . S
C842 C840 1.415 . S
C842 C847 1.425 . S
C842 C849 1.409 . S
C843 H835 0.930 . S
C843 C841 1.419 . S
C843 C844 1.362 . S
C844 H836 0.930 . S
C844 C843 1.362 . S
C844 C847 1.409 . S
C845 H837 0.930 . S
C845 C846 1.355 . S
C845 C847 1.415 . S
C846 C845 1.355 . S
C846 C848 1.419 . S
C847 C842 1.425 . S
C847 C844 1.409 . S
C847 C845 1.415 . S
C848 H838 0.930 . S
C848 C846 1.419 . S
C848 C849 1.362 . S
C849 H839 0.930 . S
C849 C842 1.409 . S
C849 C848 1.362 . S
H850 C856 0.930 . S
H851 C859 0.930 . S
H852 C860 0.930 . S
H853 C861 0.930 . S
H854 C864 0.930 . S
H855 C865 0.930 . S
C856 H850 0.930 . S
C856 C857 1.355 . S
C856 C858 1.415 . S
C857 C856 1.355 . S
C857 C859 1.419 . S
C858 C856 1.415 . S
C858 C863 1.425 . S
C858 C865 1.409 . S
C859 H851 0.930 . S
C859 C857 1.419 . S
C859 C860 1.362 . S
C860 H852 0.930 . S
C860 C859 1.362 . S
C860 C863 1.409 . S
C861 H853 0.930 . S
C861 C862 1.355 . S
C861 C863 1.415 . S
C862 C861 1.355 . S
C862 C864 1.419 . S
C863 C858 1.425 . S
C863 C860 1.409 . S
C863 C861 1.415 . S
C864 H854 0.930 . S
C864 C862 1.419 . S
C864 C865 1.362 . S
C865 H855 0.930 . S
C865 C858 1.409 . S
C865 C864 1.362 . S
H866 C872 0.930 . S
H867 C875 0.930 . S
H868 C876 0.930 . S
H869 C877 0.930 . S
H870 C880 0.930 . S
H871 C881 0.930 . S
C872 H866 0.930 . S
C872 C873 1.355 . S
C872 C874 1.415 . S
C873 C872 1.355 . S
C873 C875 1.419 . S
C874 C872 1.415 . S
C874 C879 1.425 . S
C874 C881 1.409 . S
C875 H867 0.930 . S
C875 C873 1.419 . S
C875 C876 1.362 . S
C876 H868 0.930 . S
C876 C875 1.362 . S
C876 C879 1.409 . S
C877 H869 0.930 . S
C877 C878 1.355 . S
C877 C879 1.415 . S
C878 C877 1.355 . S
C878 C880 1.419 . S
C879 C874 1.425 . S
C879 C876 1.409 . S
C879 C877 1.415 . S
C880 H870 0.930 . S
C880 C878 1.419 . S
C880 C881 1.362 . S
C881 H871 0.930 . S
C881 C874 1.409 . S
C881 C880 1.362 . S
H882 C888 0.930 . S
H883 C891 0.930 . S
H884 C892 0.930 . S
H885 C893 0.930 . S
H886 C896 0.930 . S
H887 C897 0.930 . S
C888 H882 0.930 . S
C888 C889 1.355 . S
C888 C890 1.415 . S
C889 C888 1.355 . S
C889 C891 1.419 . S
C890 C888 1.415 . S
C890 C895 1.425 . S
C890 C897 1.409 . S
C891 H883 0.930 . S
C891 C889 1.419 . S
C891 C892 1.362 . S
C892 H884 0.930 . S
C892 C891 1.362 . S
C892 C895 1.409 . S
C893 H885 0.930 . S
C893 C894 1.355 . S
C893 C895 1.415 . S
C894 C893 1.355 . S
C894 C896 1.419 . S
C895 C890 1.425 . S
C895 C892 1.409 . S
C895 C893 1.415 . S
C896 H886 0.930 . S
C896 C894 1.419 . S
C896 C897 1.362 . S
C897 H887 0.930 . S
C897 C890 1.409 . S
C897 C896 1.362 . S
H898 C904 0.930 . S
H899 C907 0.930 . S
H900 C908 0.930 . S
H901 C909 0.930 . S
H902 C912 0.930 . S
H903 C913 0.930 . S
C904 H898 0.930 . S
C904 C905 1.355 . S
C904 C906 1.415 . S
C905 C904 1.355 . S
C905 C907 1.419 . S
C906 C904 1.415 . S
C906 C911 1.425 . S
C906 C913 1.409 . S
C907 H899 0.930 . S
C907 C905 1.419 . S
C907 C908 1.362 . S
C908 H900 0.930 . S
C908 C907 1.362 . S
C908 C911 1.409 . S
C909 H901 0.930 . S
C909 C910 1.355 . S
C909 C911 1.415 . S
C910 C909 1.355 . S
C910 C912 1.419 . S
C911 C906 1.425 . S
C911 C908 1.409 . S
C911 C909 1.415 . S
C912 H902 0.930 . S
C912 C910 1.419 . S
C912 C913 1.362 . S
C913 H903 0.930 . S
C913 C906 1.409 . S
C913 C912 1.362 . S
H914 C920 0.930 . S
H915 C923 0.930 . S
H916 C924 0.930 . S
H917 C925 0.930 . S
H918 C928 0.930 . S
H919 C929 0.930 . S
C920 H914 0.930 . S
C920 C921 1.355 . S
C920 C922 1.415 . S
C921 C920 1.355 . S
C921 C923 1.419 . S
C922 C920 1.415 . S
C922 C927 1.425 . S
C922 C929 1.409 . S
C923 H915 0.930 . S
C923 C921 1.419 . S
C923 C924 1.362 . S
C924 H916 0.930 . S
C924 C923 1.362 . S
C924 C927 1.409 . S
C925 H917 0.930 . S
C925 C926 1.355 . S
C925 C927 1.415 . S
C926 C925 1.355 . S
C926 C928 1.419 . S
C927 C922 1.425 . S
C927 C924 1.409 . S
C927 C925 1.415 . S
C928 H918 0.930 . S
C928 C926 1.419 . S
C928 C929 1.362 . S
C929 H919 0.930 . S
C929 C922 1.409 . S
C929 C928 1.362 . S
H930 C936 0.930 . S
H931 C939 0.930 . S
H932 C940 0.930 . S
H933 C941 0.930 . S
H934 C944 0.930 . S
H935 C945 0.930 . S
C936 H930 0.930 . S
C936 C937 1.355 . S
C936 C938 1.415 . S
C937 C936 1.355 . S
C937 C939 1.419 . S
C938 C936 1.415 . S
C938 C943 1.425 . S
C938 C945 1.409 . S
C939 H931 0.930 . S
C939 C937 1.419 . S
C939 C940 1.362 . S
C940 H932 0.930 . S
C940 C939 1.362 . S
C940 C943 1.409 . S
C941 H933 0.930 . S
C941 C942 1.355 . S
C941 C943 1.415 . S
C942 C941 1.355 . S
C942 C944 1.419 . S
C943 C938 1.425 . S
C943 C940 1.409 . S
C943 C941 1.415 . S
C944 H934 0.930 . S
C944 C942 1.419 . S
C944 C945 1.362 . S
C945 H935 0.930 . S
C945 C938 1.409 . S
C945 C944 1.362 . S
H946 C952 0.930 . S
H947 C955 0.930 . S
H948 C956 0.930 . S
H949 C957 0.930 . S
H950 C960 0.930 . S
H951 C961 0.930 . S
C952 H946 0.930 . S
C952 C953 1.355 . S
C952 C954 1.415 . S
C953 C952 1.355 . S
C953 C955 1.419 . S
C954 C952 1.415 . S
C954 C959 1.425 . S
C954 C961 1.409 . S
C955 H947 0.930 . S
C955 C953 1.419 . S
C955 C956 1.362 . S
C956 H948 0.930 . S
C956 C955 1.362 . S
C956 C959 1.409 . S
C957 H949 0.930 . S
C957 C958 1.355 . S
C957 C959 1.415 . S
C958 C957 1.355 . S
C958 C960 1.419 . S
C959 C954 1.425 . S
C959 C956 1.409 . S
C959 C957 1.415 . S
C960 H950 0.930 . S
C960 C958 1.419 . S
C960 C961 1.362 . S
C961 H951 0.930 . S
C961 C954 1.409 . S
C961 C960 1.362 . S
H962 C968 0.930 . S
H963 C971 0.930 . S
H964 C972 0.930 . S
H965 C973 0.930 . S
H966 C976 0.930 . S
H967 C977 0.930 . S
C968 H962 0.930 . S
C968 C969 1.355 . S
C968 C970 1.415 . S
C969 C968 1.355 . S
C969 C971 1.419 . S
C970 C968 1.415 . S
C970 C975 1.425 . S
C970 C977 1.409 . S
C971 H963 0.930 . S
C971 C969 1.419 . S
C971 C972 1.362 . S
C972 H964 0.930 . S
C972 C971 1.362 . S
C972 C975 1.409 . S
C973 H965 0.930 . S
C973 C974 1.355 . S
C973 C975 1.415 . S
C974 C973 1.355 . S
C974 C976 1.419 . S
C975 C970 1.425 . S
C975 C972 1.409 . S
C975 C973 1.415 . S
C976 H966 0.930 . S
C976 C974 1.419 . S
C976 C977 1.362 . S
C977 H967 0.930 . S
C977 C970 1.409 . S
C977 C976 1.362 . S
C601 C39 1.781 . S
C606 C340 1.761 . S
C617 C91 1.744 . S
C622 C379 1.736 . S
C638 C411 1.607 . S
C633 C128 1.627 . S
C654 C457 1.565 . S
C649 C188 1.578 . S
C670 C524 1.636 . S
C665 C250 1.654 . S
C686 C563 1.730 . S
C681 C304 1.755 . S
C697 C75 1.676 . S
C702 C425 1.662 . S
C713 C144 1.773 . S
C718 C471 1.759 . S
C734 C510 1.664 . S
C729 C198 1.703 . S
C750 C549 1.548 . S
C745 C234 1.583 . S
C761 C294 1.544 . S
C766 C326 1.515 . S
C782 C365 1.561 . S
C777 C29 1.578 . S
C798 C464 1.756 . S
C793 C38 1.778 . S
C809 C92 1.753 . S
C814 C517 1.736 . S
C830 C570 1.578 . S
C825 C135 1.614 . S
C841 C181 1.567 . S
C846 C333 1.539 . S
C857 C251 1.654 . S
C862 C386 1.615 . S
C873 C303 1.750 . S
C878 C418 1.721 . S
C889 C82 1.673 . S
C894 C556 1.657 . S
C910 C319 1.753 . S
C905 C145 1.769 . S
C921 C197 1.724 . S
C926 C372 1.715 . S
C937 C241 1.569 . S
C942 C432 1.516 . S
C953 C287 1.537 . S
C958 C478 1.496 . S
C969 C22 1.584 . S
C974 C503 1.582 . S
