# Generated by pormake.
# Topology pyr, (3,6)-cn, num edge types: 1
# Building blocks:
#     Node 0, Type 0, BuildingBlock: PAMTOO_clean_linker_0, # of connection points: 3
#     Node 1, Type 0, BuildingBlock: PAMTOO_clean_linker_0, # of connection points: 3
#     Node 2, Type 0, BuildingBlock: PAMTOO_clean_linker_0, # of connection points: 3
#     Node 3, Type 0, BuildingBlock: PAMTOO_clean_linker_0, # of connection points: 3
#     Node 4, Type 0, BuildingBlock: PAMTOO_clean_linker_0, # of connection points: 3
#     Node 5, Type 0, BuildingBlock: PAMTOO_clean_linker_0, # of connection points: 3
#     Node 6, Type 0, BuildingBlock: PAMTOO_clean_linker_0, # of connection points: 3
#     Node 7, Type 0, BuildingBlock: PAMTOO_clean_linker_0, # of connection points: 3
#     Node 8, Type 1, BuildingBlock: BETDAH_clean_sbu_0, # of connection points: 6
#     Node 9, Type 1, BuildingBlock: BETDAH_clean_sbu_0, # of connection points: 6
#     Node 10, Type 1, BuildingBlock: BETDAH_clean_sbu_0, # of connection points: 6
#     Node 11, Type 1, BuildingBlock: BETDAH_clean_sbu_0, # of connection points: 6
#     Edge 12, Type (0, 1), BuildingBlock: AJUNOK_clean_linker_0, # of connection points: 2
#     Edge 13, Type (0, 1), BuildingBlock: AJUNOK_clean_linker_0, # of connection points: 2
#     Edge 14, Type (0, 1), BuildingBlock: AJUNOK_clean_linker_0, # of connection points: 2
#     Edge 15, Type (0, 1), BuildingBlock: AJUNOK_clean_linker_0, # of connection points: 2
#     Edge 16, Type (0, 1), BuildingBlock: AJUNOK_clean_linker_0, # of connection points: 2
#     Edge 17, Type (0, 1), BuildingBlock: AJUNOK_clean_linker_0, # of connection points: 2
#     Edge 18, Type (0, 1), BuildingBlock: AJUNOK_clean_linker_0, # of connection points: 2
#     Edge 19, Type (0, 1), BuildingBlock: AJUNOK_clean_linker_0, # of connection points: 2
#     Edge 20, Type (0, 1), BuildingBlock: AJUNOK_clean_linker_0, # of connection points: 2
#     Edge 21, Type (0, 1), BuildingBlock: AJUNOK_clean_linker_0, # of connection points: 2
#     Edge 22, Type (0, 1), BuildingBlock: AJUNOK_clean_linker_0, # of connection points: 2
#     Edge 23, Type (0, 1), BuildingBlock: AJUNOK_clean_linker_0, # of connection points: 2
#     Edge 24, Type (0, 1), BuildingBlock: AJUNOK_clean_linker_0, # of connection points: 2
#     Edge 25, Type (0, 1), BuildingBlock: AJUNOK_clean_linker_0, # of connection points: 2
#     Edge 26, Type (0, 1), BuildingBlock: AJUNOK_clean_linker_0, # of connection points: 2
#     Edge 27, Type (0, 1), BuildingBlock: AJUNOK_clean_linker_0, # of connection points: 2
#     Edge 28, Type (0, 1), BuildingBlock: AJUNOK_clean_linker_0, # of connection points: 2
#     Edge 29, Type (0, 1), BuildingBlock: AJUNOK_clean_linker_0, # of connection points: 2
#     Edge 30, Type (0, 1), BuildingBlock: AJUNOK_clean_linker_0, # of connection points: 2
#     Edge 31, Type (0, 1), BuildingBlock: AJUNOK_clean_linker_0, # of connection points: 2
#     Edge 32, Type (0, 1), BuildingBlock: AJUNOK_clean_linker_0, # of connection points: 2
#     Edge 33, Type (0, 1), BuildingBlock: AJUNOK_clean_linker_0, # of connection points: 2
#     Edge 34, Type (0, 1), BuildingBlock: AJUNOK_clean_linker_0, # of connection points: 2
#     Edge 35, Type (0, 1), BuildingBlock: AJUNOK_clean_linker_0, # of connection points: 2
# Relax obj value: 0.255
# Max RMSD: 0.242
# Mean RMSD: 0.154
data_MOF--net-pyr--node1-BETDAH_clean_sbu_0--node2-PAMTOO_clean_linker_0--edge1-AJUNOK_clean_linker_0
_symmetry_space_group_name_H-M    P1
_symmetry_Int_Tables_number       1
_symmetry_cell_setting            triclinic
loop_
_symmetry_equiv_pos_as_xyz
'x, y, z'
_cell_length_a     27.633341
_cell_length_b     29.692949
_cell_length_c     26.046284
_cell_angle_alpha  92.093992
_cell_angle_beta   88.872645
_cell_angle_gamma 108.66117
loop_
_atom_site_label
_atom_site_type_symbol
_atom_site_fract_x
_atom_site_fract_y
_atom_site_fract_z
_atom_type_partial_charge
H0 H 0.3942 0.44696 0.30282 0.0
H1 H 0.44734 0.33226 0.34299 0.0
H2 H 0.4667 0.38058 0.18927 0.0
H3 H 0.52979 0.31362 0.30708 0.0
C4 C 0.52787 0.31679 0.26482 0.0
O5 O 0.48086 0.31963 0.252 0.0
H6 H 0.55825 0.34966 0.25299 0.0
C7 C 0.41649 0.42367 0.29305 0.0
C8 C 0.43061 0.41852 0.2416 0.0
C9 C 0.42109 0.39209 0.32989 0.0
C10 C 0.44625 0.35912 0.31636 0.0
C11 C 0.46472 0.35656 0.26634 0.0
C12 C 0.45716 0.38634 0.229 0.0
H13 H 0.27719 0.94647 0.74572 0.0
H14 H 0.20267 0.86995 0.60992 0.0
H15 H 0.27111 0.80183 0.71643 0.0
H16 H 0.26361 0.81959 0.56087 0.0
C17 C 0.2568 0.78883 0.58629 0.0
O18 O 0.22601 0.79321 0.6273 0.0
H19 H 0.23583 0.75689 0.56266 0.0
C20 C 0.26423 0.91438 0.72174 0.0
C21 C 0.27504 0.87393 0.73691 0.0
C22 C 0.23676 0.91349 0.67678 0.0
C23 C 0.22362 0.87193 0.64509 0.0
C24 C 0.23748 0.83239 0.6586 0.0
C25 C 0.26225 0.83304 0.7051 0.0
H26 H 0.77257 0.36756 1.00341 0.0
H27 H 0.66686 0.35639 0.87995 0.0
H28 H 0.79607 0.48261 0.90013 0.0
H29 H 0.69511 0.49649 0.88529 0.0
C30 C 0.68294 0.4727 0.85072 0.0
O31 O 0.71352 0.44332 0.84584 0.0
H32 H 0.64286 0.45017 0.85774 0.0
C33 C 0.76099 0.38196 0.96992 0.0
C34 C 0.79104 0.42744 0.95415 0.0
C35 C 0.71626 0.35483 0.94371 0.0
C36 C 0.70018 0.3762 0.90189 0.0
C37 C 0.72818 0.423 0.88694 0.0
C38 C 0.77367 0.44775 0.91297 0.0
H39 H 0.90803 0.81827 0.50465 0.0
H40 H 0.89833 0.69757 0.40314 0.0
H41 H 0.0298 0.82378 0.39693 0.0
H42 H 0.99401 0.77058 0.29019 0.0
C43 C 0.9783 0.7339 0.30462 0.0
O44 O 0.98742 0.73572 0.35741 0.0
H45 H 0.93639 0.72155 0.29802 0.0
C46 C 0.92382 0.80164 0.47378 0.0
C47 C 0.97174 0.82713 0.45292 0.0
C48 C 0.89648 0.7549 0.45645 0.0
C49 C 0.91786 0.73383 0.41608 0.0
C50 C 0.96562 0.75849 0.39359 0.0
C51 C 0.99248 0.80515 0.41267 0.0
H52 H 0.67586 0.87904 0.8833 0.0
H53 H 0.64053 0.82131 1.03322 0.0
H54 H 0.75488 0.78865 0.94098 0.0
H55 H 0.68232 0.70758 0.99804 0.0
C56 C 0.70791 0.72948 1.02848 0.0
O57 O 0.70728 0.77584 1.02871 0.0
H58 H 0.69272 0.71403 1.06595 0.0
C59 C 0.67863 0.85375 0.91124 0.0
C60 C 0.71704 0.83242 0.90527 0.0
C61 C 0.65277 0.85199 0.95818 0.0
C62 C 0.65822 0.82108 0.99574 0.0
C63 C 0.69358 0.79638 0.98835 0.0
C64 C 0.72334 0.80284 0.94348 0.0
H65 H 0.85806 0.15945 0.48729 0.0
H66 H 0.7609 0.24179 0.53446 0.0
H67 H 0.83572 0.18653 0.64776 0.0
H68 H 0.84453 0.29358 0.64167 0.0
C69 C 0.80314 0.28332 0.65198 0.0
O70 O 0.77673 0.23818 0.63315 0.0
H71 H 0.80133 0.28344 0.6946 0.0
C72 C 0.84056 0.17542 0.51737 0.0
C73 C 0.85013 0.16943 0.56876 0.0
C74 C 0.80844 0.20138 0.50442 0.0
C75 C 0.78553 0.22133 0.54376 0.0
C76 C 0.79579 0.21621 0.59536 0.0
C77 C 0.82742 0.18971 0.60782 0.0
H78 H 0.38788 0.81753 0.16971 0.0
H79 H 0.38188 0.70324 0.26921 0.0
H80 H 0.50505 0.83542 0.28319 0.0
H81 H 0.5381 0.75522 0.31029 0.0
C82 C 0.50092 0.72821 0.31964 0.0
O83 O 0.46349 0.75045 0.32308 0.0
H84 H 0.49183 0.70188 0.28689 0.0
C85 C 0.40465 0.80358 0.20009 0.0
C86 C 0.45083 0.83241 0.22283 0.0
C87 C 0.3797 0.75673 0.21569 0.0
C88 C 0.40092 0.73886 0.25619 0.0
C89 C 0.4457 0.76724 0.28133 0.0
C90 C 0.47034 0.81389 0.26434 0.0
H91 H 0.15279 0.37516 0.852 0.0
H92 H 0.25909 0.51295 0.814 0.0
H93 H 0.25426 0.39167 0.7203 0.0
H94 H 0.35404 0.44572 0.75064 0.0
C95 C 0.35182 0.48246 0.74999 0.0
O96 O 0.30252 0.48056 0.73782 0.0
H97 H 0.36018 0.49831 0.78945 0.0
C98 C 0.18171 0.39755 0.82723 0.0
C99 C 0.20038 0.37599 0.78419 0.0
C100 C 0.20227 0.44778 0.83929 0.0
C101 C 0.24235 0.47498 0.80728 0.0
C102 C 0.2616 0.45427 0.76578 0.0
C103 C 0.2396 0.4059 0.7538 0.0
Ho104 Ho 0.11563 0.12205 0.58258 0.0
Ho105 Ho 0.07601 1.06594 0.67611 0.0
C106 C 0.13361 0.18013 0.69231 0.0
C107 C 0.13951 0.18522 0.51301 0.0
C108 C 0.18506 0.22655 0.50427 0.0
C109 C 0.17975 0.27148 0.49854 0.0
C110 C 0.2221 0.31018 0.4859 0.0
C111 C 0.27028 0.30432 0.4782 0.0
C112 C 0.27601 0.25997 0.48738 0.0
C113 C 0.23387 0.22153 0.50066 0.0
C114 C 0.17812 1.07604 0.61742 0.0
C115 C 0.06064 1.01084 0.56625 0.0
C116 C 0.05286 1.01765 0.75815 0.0
C117 C 1.00263 0.98527 0.7727 0.0
C118 C 0.99788 0.94451 0.80049 0.0
C119 C 0.94932 0.91404 0.81352 0.0
C120 C 0.90537 0.92398 0.79821 0.0
C121 C 0.91051 0.96364 0.76847 0.0
C122 C 0.95859 0.99417 0.75628 0.0
C123 C 1.00245 0.08397 0.6209 0.0
O124 O 0.14851 0.1799 0.64362 0.0
O125 O 0.10434 0.14054 0.71358 0.0
O126 O 0.14517 0.14335 0.50686 0.0
O127 O 0.11209 0.18834 0.55345 0.0
O128 O 0.17343 0.08388 0.56955 0.0
O129 O 0.15287 0.09669 0.64462 0.0
O130 O 0.07387 1.00911 0.61459 0.0
O131 O 0.06331 1.0525 0.5472 0.0
O132 O 0.05587 1.06243 0.75666 0.0
O133 O 0.07389 1.00359 0.71798 0.0
O134 O 0.99549 1.04565 0.64584 0.0
O135 O 0.04664 0.11141 0.62955 0.0
H136 H 0.14254 0.27626 0.50203 0.0
H137 H 0.21664 0.34401 0.47915 0.0
H138 H 0.31224 0.25387 0.48066 0.0
H139 H 0.23929 0.18743 0.50584 0.0
H140 H 0.03154 0.93685 0.81288 0.0
H141 H 0.94616 0.88404 0.8373 0.0
H142 H 0.87718 0.97208 0.75638 0.0
H143 H 0.96116 1.02541 0.73495 0.0
Ho144 Ho 0.63425 0.10036 0.10713 0.0
Ho145 Ho 0.53878 0.0837 1.05531 0.0
C146 C 0.56342 0.15516 0.15552 0.0
C147 C 0.72686 0.12338 0.14 0.0
C148 C 0.7501 0.15096 0.18618 0.0
C149 C 0.73112 0.18626 0.20735 0.0
C150 C 0.74475 0.20484 0.25692 0.0
C151 C 0.77751 0.18835 0.2859 0.0
C152 C 0.79935 0.15562 0.26324 0.0
C153 C 0.78553 0.13688 0.21373 0.0
C154 C 0.55716 1.02548 0.14618 0.0
C155 C 0.61136 1.02785 1.01147 0.0
C156 C 0.44447 1.05706 1.02719 0.0
C157 C 0.41254 1.01422 0.99996 0.0
C158 C 0.36545 1.01327 0.98046 0.0
C159 C 0.3394 0.97681 0.94611 0.0
C160 C 0.36031 0.94094 0.93078 0.0
C161 C 0.40602 0.94046 0.95289 0.0
C162 C 0.43188 0.97683 0.98744 0.0
C163 C 0.61463 0.15909 1.01572 0.0
O164 O 0.61058 0.1544 0.15246 0.0
O165 O 0.5275 0.12708 0.12545 0.0
O166 O 0.69211 0.08289 0.14927 0.0
O167 O 0.71275 0.14664 0.10473 0.0
O168 O 0.58984 1.05809 0.17373 0.0
O169 O 0.56667 1.03511 0.09947 0.0
O170 O 0.56313 1.02482 1.01834 0.0
O171 O 0.64701 1.06353 1.03351 0.0
O172 O 0.48204 0.08376 0.99971 0.0
O173 O 0.45857 1.05128 1.07343 0.0
O174 O 0.57997 0.12762 0.98905 0.0
O175 O 0.60629 0.14938 1.06271 0.0
H176 H 0.70377 0.19775 0.18672 0.0
H177 H 0.72798 0.2305 0.27343 0.0
H178 H 0.82456 0.14224 0.28501 0.0
H179 H 0.8002 0.10942 0.19817 0.0
H180 H 0.3503 1.04212 0.98942 0.0
H181 H 0.30481 0.97863 0.92873 0.0
H182 H 0.42299 0.91338 0.94142 0.0
H183 H 0.4683 0.97716 1.00209 0.0
Ho184 Ho 0.6097 0.57305 0.55225 0.0
Ho185 Ho 0.61315 0.65788 0.6176 0.0
C186 C 0.65059 0.57913 0.67176 0.0
C187 C 0.63832 0.50783 0.50483 0.0
C188 C 0.66509 0.47605 0.52338 0.0
C189 C 0.70062 0.49139 0.5634 0.0
C190 C 0.72301 0.46022 0.58393 0.0
C191 C 0.71107 0.41355 0.56409 0.0
C192 C 0.6769 0.39844 0.52302 0.0
C193 C 0.65365 0.42947 0.50303 0.0
C194 C 0.52127 0.56439 0.60538 0.0
C195 C 0.56361 0.64488 0.50076 0.0
C196 C 0.58458 0.72312 0.66556 0.0
C197 C 0.5371 0.73473 0.65945 0.0
C198 C 0.49569 0.70203 0.6338 0.0
C199 C 0.45096 0.71287 0.62591 0.0
C200 C 0.44633 0.75653 0.64388 0.0
C201 C 0.4875 0.78889 0.67065 0.0
C202 C 0.5327 0.77814 0.67812 0.0
C203 C 0.7033 0.66679 0.56847 0.0
O204 O 0.64534 0.55797 0.62552 0.0
O205 O 0.63894 0.6189 0.67954 0.0
O206 O 0.59195 0.50037 0.52265 0.0
O207 O 0.66504 0.553 0.50511 0.0
O208 O 0.52292 0.54698 0.559 0.0
O209 O 0.56641 0.58328 0.62081 0.0
O210 O 0.56559 0.6639 0.54801 0.0
O211 O 0.58304 0.61024 0.49082 0.0
O212 O 0.61586 0.73169 0.6262 0.0
O213 O 0.57838 0.68136 0.68393 0.0
O214 O 0.69898 0.68272 0.61492 0.0
O215 O 0.65897 0.64851 0.5497 0.0
H216 H 0.71085 0.52736 0.57925 0.0
H217 H 0.74962 0.4725 0.61537 0.0
H218 H 0.66741 0.36241 0.50728 0.0
H219 H 0.62635 0.417 0.4722 0.0
H220 H 0.49801 0.66806 0.61954 0.0
H221 H 0.4202 0.68727 0.60493 0.0
H222 H 0.48472 0.82237 0.68599 0.0
H223 H 0.56413 0.80366 0.69833 0.0
Ho224 Ho 0.09236 0.54238 0.11078 0.0
Ho225 Ho 0.08973 0.62674 1.04574 0.0
C226 C 0.18773 0.64192 0.11497 0.0
C227 C 0.11728 0.46936 0.13576 0.0
C228 C 0.16679 0.46095 0.13621 0.0
C229 C 0.20921 0.49124 0.11032 0.0
C230 C 0.25753 0.48629 0.11542 0.0
C231 C 0.26387 0.45087 0.14623 0.0
C232 C 0.22097 0.4194 0.17032 0.0
C233 C 0.17278 0.42455 0.16551 0.0
C234 C 0.05239 0.60105 0.17054 0.0
C235 C 0.9884 0.5307 1.05144 0.0
C236 C 0.06023 0.69161 1.00498 0.0
C237 C 1.00962 0.69837 1.00585 0.0
C238 C 0.97142 0.67239 1.0396 0.0
C239 C 0.92291 0.67757 1.03997 0.0
C240 C 0.91197 0.70956 1.00735 0.0
C241 C 0.9503 0.73589 0.9738 0.0
C242 C 0.99874 0.73008 0.97284 0.0
C243 C 0.13704 0.56655 0.99968 0.0
O244 O 0.17332 0.59477 0.11608 0.0
O245 O 0.15833 0.66382 0.09441 0.0
O246 O 0.11236 0.50158 0.16912 0.0
O247 O 0.10003 0.4737 0.09048 0.0
O248 O 0.05612 0.56085 0.18486 0.0
O249 O 0.06778 0.60548 0.12423 0.0
O250 O 1.00842 0.57608 1.03976 0.0
O251 O 1.01377 0.50866 0.07833 0.0
O252 O 0.06299 0.65376 0.97946 0.0
O253 O 0.08309 0.69742 1.04938 0.0
O254 O 0.15208 0.61251 0.99489 0.0
O255 O 0.09722 0.55587 1.02753 0.0
H256 H 0.20517 0.51938 0.08718 0.0
H257 H 0.29003 0.51049 0.0961 0.0
H258 H 0.22513 0.392 0.19457 0.0
H259 H 0.1405 0.401 0.18582 0.0
H260 H 0.97915 0.64825 1.06598 0.0
H261 H 0.89419 0.65727 1.06652 0.0
H262 H 0.94263 0.76072 0.94822 0.0
H263 H 1.02767 0.7504 0.94651 0.0
C264 C 0.3345 0.37778 0.36754 0.0
C265 C 0.38644 0.38344 0.37525 0.0
C266 C 0.29755 0.3566 0.40409 0.0
C267 C 0.31091 0.33993 0.44974 0.0
H268 H 0.32136 0.3856 0.33103 0.0
H269 H 0.25784 0.34918 0.39401 0.0
S270 S 0.44252 0.35666 0.49381 0.0
N271 N 0.45033 0.37854 0.43568 0.0
N272 N 0.38028 0.33833 0.505 0.0
C273 C 0.3631 0.35004 0.46052 0.0
C274 C 0.40098 0.37181 0.42309 0.0
C275 C 0.3501 0.89431 0.79395 0.0
C276 C 0.29706 0.87524 0.78793 0.0
C277 C 0.37096 0.9112 0.8422 0.0
C278 C 0.3392 0.90999 0.88546 0.0
H279 H 0.37514 0.89982 0.7606 0.0
H280 H 0.41173 0.92922 0.84462 0.0
S281 S 0.19839 0.8565 0.89024 0.0
N282 N 0.21369 0.85063 0.82929 0.0
N283 N 0.25286 0.88233 0.92029 0.0
C284 C 0.28649 0.8869 0.88052 0.0
C285 C 0.26538 0.86954 0.83153 0.0
C286 C 0.6721 0.48109 0.75369 0.0
C287 C 0.68341 0.5026 0.8031 0.0
C288 C 0.66371 0.50646 0.71143 0.0
C289 C 0.66516 0.55459 0.71641 0.0
H290 H 0.66797 0.44377 0.748 0.0
H291 H 0.65403 0.48738 0.67488 0.0
S292 S 0.69496 0.62848 0.83714 0.0
N293 N 0.69713 0.57602 0.85372 0.0
N294 N 0.68104 0.62296 0.77539 0.0
C295 C 0.67758 0.5768 0.7654 0.0
C296 C 0.68658 0.5511 0.80824 0.0
C297 C 1.02123 0.71265 0.22274 0.0
C298 C 1.00125 0.70038 0.27276 0.0
C299 C 0.03732 0.68086 0.18978 0.0
C300 C 0.0339 0.63481 0.20485 0.0
H301 H 1.02389 0.74718 0.20852 0.0
H302 H 0.05248 0.69254 0.15216 0.0
S303 S 0.98143 0.58329 0.33028 0.0
N304 N 0.97683 0.63741 0.33407 0.0
N305 N 1.00726 0.57837 0.27349 0.0
C306 C 1.01347 0.62192 0.25455 0.0
C307 C 0.99698 0.65423 0.28791 0.0
C308 C 0.58458 0.27594 0.22016 0.0
C309 C 0.53579 0.27342 0.23874 0.0
C310 C 0.59323 0.23684 0.19483 0.0
C311 C 0.55335 0.1937 0.18689 0.0
H312 H 0.61621 0.30867 0.22455 0.0
H313 H 0.63128 0.24109 0.17996 0.0
S314 S 0.4201 0.16653 0.23424 0.0
N315 N 0.44824 0.22251 0.25273 0.0
N316 N 0.46429 0.14943 0.20325 0.0
C317 C 0.50481 0.18998 0.20702 0.0
C318 C 0.49616 0.22963 0.23369 0.0
C319 C 0.22526 0.96941 0.61154 0.0
C320 C 0.22243 0.95594 0.66305 0.0
C321 C 0.21227 1.00915 0.59751 0.0
C322 C 0.19655 1.03747 0.63443 0.0
H323 H 0.23779 0.94926 0.58164 0.0
H324 H 0.21394 1.01729 0.55718 0.0
S325 S 0.18472 1.01955 0.77476 0.0
N326 N 0.20174 0.97445 0.75122 0.0
N327 N 0.18202 1.05146 0.72496 0.0
C328 C 0.19519 1.02563 0.6862 0.0
C329 C 0.20689 0.98431 0.70046 0.0
C330 C 0.85534 0.50224 0.99251 0.0
C331 C 0.84112 0.45307 0.98026 0.0
C332 C 0.90223 0.52674 1.0165 0.0
C333 C 0.93698 0.50321 1.02994 0.0
H334 H 0.82995 0.52207 0.98367 0.0
H335 H 0.9113 0.56457 1.0245 0.0
S336 S 0.92048 0.37551 1.00288 0.0
N337 N 0.86791 0.38256 0.98074 0.0
N338 N 0.9545 0.42802 1.02702 0.0
C339 C 0.92331 0.45411 1.01794 0.0
C340 C 0.87595 0.42929 0.99288 0.0
C341 C 0.8441 0.72986 0.5374 0.0
C342 C 0.84711 0.72813 0.48325 0.0
C343 C 0.79802 0.70866 0.56404 0.0
C344 C 0.75224 0.68455 0.53811 0.0
H345 H 0.87778 0.74825 0.55966 0.0
H346 H 0.79821 0.71201 0.60559 0.0
S347 S 0.73877 0.66799 0.39649 0.0
N348 N 0.79969 0.69887 0.40464 0.0
N349 N 0.71334 0.6589 0.45468 0.0
C350 C 0.75475 0.68117 0.48401 0.0
C351 C 0.80196 0.70285 0.45671 0.0
C352 C 0.36854 0.39845 0.17023 0.0
C353 C 0.40208 0.43391 0.20181 0.0
C354 C 0.32568 0.40556 0.14857 0.0
C355 C 0.31527 0.44849 0.15726 0.0
H356 H 0.37213 0.36318 0.16672 0.0
H357 H 0.29854 0.37612 0.12805 0.0
S358 S 0.39569 0.5551 0.22964 0.0
N359 N 0.42614 0.51578 0.23408 0.0
N360 N 0.34465 0.52865 0.1946 0.0
C361 C 0.35123 0.48585 0.18412 0.0
C362 C 0.39508 0.47875 0.20587 0.0
C363 C 0.71684 0.27535 0.97798 0.0
C364 C 0.68866 0.30413 0.96027 0.0
C365 C 0.69291 0.2292 0.99646 0.0
C366 C 0.63948 0.20872 0.99723 0.0
H367 H 0.75818 0.28843 0.97743 0.0
H368 H 0.71656 0.2091 1.00959 0.0
S369 S 0.54679 0.26738 0.95716 0.0
N370 N 0.60302 0.30759 0.94706 0.0
N371 N 0.55874 0.22063 0.97931 0.0
C372 C 0.61062 0.23635 0.97931 0.0
C373 C 0.63489 0.2838 0.96135 0.0
C374 C 0.98687 0.91608 0.46545 0.0
C375 C 1.0002 0.87539 0.47667 0.0
C376 C 1.0078 0.96004 0.49298 0.0
C377 C 0.04202 0.96509 0.53405 0.0
H378 H 0.95903 0.91361 0.43589 0.0
H379 H 0.99551 0.9898 0.48322 0.0
S380 S 0.09035 0.86964 0.57796 0.0
N381 N 0.05114 0.84372 0.53072 0.0
N382 N 0.08947 0.92499 0.58275 0.0
C383 C 0.05619 0.92471 0.54493 0.0
C384 C 0.03555 0.88036 0.51635 0.0
C385 C 0.30538 0.74025 0.62605 0.0
C386 C 0.30611 0.78305 0.60434 0.0
C387 C 0.35074 0.73268 0.64038 0.0
C388 C 0.39862 0.7677 0.63359 0.0
H389 H 0.26947 0.71207 0.63109 0.0
H390 H 0.34833 0.69882 0.65627 0.0
S391 S 0.42057 0.88731 0.58123 0.0
N392 N 0.35797 0.86211 0.57963 0.0
N393 N 0.44348 0.84761 0.60523 0.0
C394 C 0.3996 0.81141 0.61361 0.0
C395 C 0.35329 0.81915 0.59929 0.0
C396 C 0.78135 0.90321 0.86988 0.0
C397 C 0.7602 0.85335 0.8698 0.0
C398 C 0.82748 0.9252 0.84525 0.0
C399 C 0.85475 0.89838 0.81977 0.0
H400 H 0.76374 0.9257 0.89166 0.0
H401 H 0.84304 0.96365 0.84818 0.0
S402 S 0.8145 0.76705 0.80454 0.0
N403 N 0.76841 0.77768 0.83929 0.0
N404 N 0.85645 0.81962 0.79295 0.0
C405 C 0.83366 0.8486 0.81777 0.0
C406 C 0.78605 0.82596 0.84274 0.0
C407 C 0.84133 0.21937 0.41509 0.0
C408 C 0.79953 0.20682 0.44948 0.0
C409 C 0.83399 0.21605 0.36194 0.0
C410 C 0.78462 0.20058 0.34135 0.0
H411 H 0.88004 0.22987 0.4294 0.0
H412 H 0.86712 0.22385 0.33674 0.0
S413 S 0.66255 0.16666 0.41477 0.0
N414 N 0.70716 0.18081 0.45924 0.0
N415 N 0.69327 0.1751 0.35912 0.0
C416 C 0.74251 0.19078 0.37524 0.0
C417 C 0.75 0.19388 0.42943 0.0
C418 C 0.5249 0.73126 0.4152 0.0
C419 C 0.50779 0.70423 0.36945 0.0
C420 C 0.54053 0.71147 0.45825 0.0
C421 C 0.54081 0.66388 0.45732 0.0
H422 H 0.52811 0.7686 0.41703 0.0
H423 H 0.55469 0.73435 0.49168 0.0
S424 S 0.49512 0.57634 0.34895 0.0
N425 N 0.48863 0.62589 0.328 0.0
N426 N 0.51837 0.58941 0.4075 0.0
C427 C 0.52184 0.63605 0.41257 0.0
C428 C 0.50536 0.65596 0.36918 0.0
C429 C 0.21928 0.5139 0.90972 0.0
C430 C 0.18428 0.47356 0.88463 0.0
C431 C 0.20383 0.54282 0.9468 0.0
C432 C 0.15261 0.53252 0.96289 0.0
H433 H 0.25957 0.52403 0.90033 0.0
H434 H 0.23256 0.57381 0.96304 0.0
S435 S 0.04477 0.43023 0.91371 0.0
N436 N 0.09475 0.42499 0.88121 0.0
N437 N 0.06673 0.47736 0.95259 0.0
C438 C 0.11731 0.49113 0.9406 0.0
C439 C 0.1328 0.46222 0.90153 0.0
C440 C 0.59526 0.90293 0.95728 0.0
C441 C 0.63985 0.89513 0.97392 0.0
C442 C 0.58703 0.94681 0.96769 0.0
C443 C 0.62383 0.98466 0.99369 0.0
H444 H 0.56673 0.87506 0.93624 0.0
H445 H 0.55139 0.95094 0.95574 0.0
S446 S 0.74885 0.98204 1.0415 0.0
N447 N 0.72197 0.92859 1.01537 0.0
N448 N 0.70762 1.01098 1.03399 0.0
C449 C 0.6693 0.97728 1.00894 0.0
C450 C 0.67698 0.93254 0.99932 0.0
C451 C 0.93659 0.16132 0.56006 0.0
C452 C 0.88702 0.14495 0.58093 0.0
C453 C 0.97312 0.14004 0.57196 0.0
C454 C 0.96117 0.1013 0.60455 0.0
H455 H 0.94755 0.19156 0.5353 0.0
H456 H 1.01123 0.15446 0.55607 0.0
S457 S 0.83566 1.04333 0.66658 0.0
N458 N 0.82693 0.08679 0.634 0.0
N459 N 0.89566 1.04606 0.65599 0.0
C460 C 0.91119 0.08349 0.62435 0.0
C461 C 0.87411 0.10566 0.61277 0.0
C462 C 0.28877 0.74338 0.18688 0.0
C463 C 0.33116 0.72688 0.18961 0.0
C464 C 0.24312 0.71615 0.16218 0.0
C465 C 0.23763 0.67109 0.13895 0.0
H466 H 0.2907 0.77751 0.20451 0.0
H467 H 0.2115 0.73027 0.16207 0.0
S468 S 0.34004 0.61534 0.12785 0.0
N469 N 0.36624 0.66474 0.16218 0.0
N470 N 0.28102 0.61377 0.11606 0.0
C471 C 0.28031 0.65489 0.14011 0.0
C472 C 0.32677 0.68265 0.16526 0.0
C473 C 0.38717 0.49952 0.65848 0.0
C474 C 0.39222 0.51004 0.71177 0.0
C475 C 0.42819 0.5186 0.62388 0.0
C476 C 0.47623 0.54842 0.64124 0.0
H477 H 0.3518 0.47503 0.64364 0.0
H478 H 0.42269 0.5086 0.58349 0.0
S479 S 0.50964 0.58652 0.77712 0.0
N480 N 0.44931 0.5527 0.77981 0.0
N481 N 0.52574 0.58749 0.71577 0.0
C482 C 0.48128 0.55977 0.69432 0.0
C483 C 0.43963 0.54075 0.72926 0.0
C484 C 0.76784 0.68266 1.00732 0.0
C485 C 0.76181 0.72688 1.02102 0.0
C486 C 0.81646 0.67739 1.00219 0.0
C487 C 0.86103 0.71633 1.00995 0.0
H488 H 0.73453 0.65166 1.00109 0.0
H489 H 0.81923 0.64255 0.9922 0.0
S490 S 0.86752 0.83945 1.04843 0.0
N491 N 0.80582 0.8102 1.04464 0.0
N492 N 0.89668 0.80021 1.03288 0.0
C493 C 0.8559 0.76075 1.02346 0.0
C494 C 0.80648 0.76605 1.02978 0.0
C495 C 0.49861 0.92127 0.23649 0.0
C496 C 0.47825 0.88155 0.20276 0.0
C497 C 0.52323 0.96745 0.21809 0.0
C498 C 0.52878 0.97637 0.16503 0.0
H499 H 0.49498 0.91681 0.27761 0.0
H500 H 0.53809 0.99647 0.24583 0.0
S501 S 0.48587 0.88454 1.06009 0.0
N502 N 0.46849 0.85455 0.11314 0.0
N503 N 0.51312 0.94044 0.07912 0.0
C504 C 0.509 0.93692 0.13095 0.0
C505 C 0.48429 0.88997 0.14959 0.0
C506 C 0.21695 0.30093 0.74833 0.0
C507 C 0.18177 0.32285 0.76909 0.0
C508 C 0.20126 0.25486 0.72498 0.0
C509 C 0.14958 0.22679 0.72286 0.0
H510 H 0.2575 0.32013 0.74867 0.0
H511 H 0.23007 0.24126 0.70787 0.0
S512 S 0.04119 0.26374 0.77419 0.0
N513 N 0.09181 0.31044 0.78688 0.0
N514 N 0.06294 0.22318 0.74599 0.0
C515 C 0.11397 0.24657 0.74604 0.0
C516 C 0.12982 0.29435 0.76861 0.0
C517 C 0.79384 0.3356 0.58136 0.0
C518 C 0.78033 0.31854 0.63107 0.0
C519 C 0.77066 0.36586 0.55946 0.0
C520 C 0.73396 0.38061 0.58701 0.0
H521 H 0.82227 0.32516 0.55914 0.0
H522 H 0.78184 0.3782 0.52102 0.0
S523 S 0.68559 0.34665 0.71836 0.0
N524 N 0.7275 0.31832 0.70688 0.0
N525 N 0.6853 0.37672 0.66628 0.0
C526 C 0.72053 0.3644 0.63685 0.0
C527 C 0.74337 0.33291 0.65877 0.0
loop_
_geom_bond_atom_site_label_1
_geom_bond_atom_site_label_2
_geom_bond_distance
_geom_bond_site_symmetry_2
_ccdc_geom_bond_type
H0 C7 0.929 . S
H1 C10 0.930 . S
H2 C12 0.929 . S
H3 C4 0.969 . S
C4 H3 0.969 . S
C4 O5 1.550 . S
C4 H6 0.973 . S
O5 C4 1.550 . S
O5 C11 1.412 . S
H6 C4 0.973 . S
C7 H0 0.929 . S
C7 C8 1.400 . S
C7 C9 1.364 . S
C8 C7 1.400 . S
C8 C12 1.377 . S
C9 C7 1.364 . S
C9 C10 1.374 . S
C10 H1 0.930 . S
C10 C9 1.374 . S
C10 C11 1.383 . S
C11 O5 1.412 . S
C11 C10 1.383 . S
C11 C12 1.394 . S
C12 H2 0.929 . S
C12 C8 1.377 . S
C12 C11 1.394 . S
H13 C20 0.929 . S
H14 C23 0.930 . S
H15 C25 0.929 . S
H16 C17 0.969 . S
C17 H16 0.969 . S
C17 O18 1.550 . S
C17 H19 0.973 . S
O18 C17 1.550 . S
O18 C24 1.412 . S
H19 C17 0.973 . S
C20 H13 0.929 . S
C20 C21 1.400 . S
C20 C22 1.364 . S
C21 C20 1.400 . S
C21 C25 1.377 . S
C22 C20 1.364 . S
C22 C23 1.374 . S
C23 H14 0.930 . S
C23 C22 1.374 . S
C23 C24 1.383 . S
C24 O18 1.412 . S
C24 C23 1.383 . S
C24 C25 1.394 . S
C25 H15 0.929 . S
C25 C21 1.377 . S
C25 C24 1.394 . S
H26 C33 0.929 . S
H27 C36 0.930 . S
H28 C38 0.929 . S
H29 C30 0.969 . S
C30 H29 0.969 . S
C30 O31 1.550 . S
C30 H32 0.973 . S
O31 C30 1.550 . S
O31 C37 1.412 . S
H32 C30 0.973 . S
C33 H26 0.929 . S
C33 C34 1.400 . S
C33 C35 1.364 . S
C34 C33 1.400 . S
C34 C38 1.377 . S
C35 C33 1.364 . S
C35 C36 1.374 . S
C36 H27 0.930 . S
C36 C35 1.374 . S
C36 C37 1.383 . S
C37 O31 1.412 . S
C37 C36 1.383 . S
C37 C38 1.394 . S
C38 H28 0.929 . S
C38 C34 1.377 . S
C38 C37 1.394 . S
H39 C46 0.929 . S
H40 C49 0.930 . S
H41 C51 0.929 . S
H42 C43 0.969 . S
C43 H42 0.969 . S
C43 O44 1.550 . S
C43 H45 0.973 . S
O44 C43 1.550 . S
O44 C50 1.412 . S
H45 C43 0.973 . S
C46 H39 0.929 . S
C46 C47 1.400 . S
C46 C48 1.364 . S
C47 C46 1.400 . S
C47 C51 1.377 . S
C48 C46 1.364 . S
C48 C49 1.374 . S
C49 H40 0.930 . S
C49 C48 1.374 . S
C49 C50 1.383 . S
C50 O44 1.412 . S
C50 C49 1.383 . S
C50 C51 1.394 . S
C51 H41 0.929 . S
C51 C47 1.377 . S
C51 C50 1.394 . S
H52 C59 0.929 . S
H53 C62 0.930 . S
H54 C64 0.929 . S
H55 C56 0.969 . S
C56 H55 0.969 . S
C56 O57 1.550 . S
C56 H58 0.973 . S
O57 C56 1.550 . S
O57 C63 1.412 . S
H58 C56 0.973 . S
C59 H52 0.929 . S
C59 C60 1.400 . S
C59 C61 1.364 . S
C60 C59 1.400 . S
C60 C64 1.377 . S
C61 C59 1.364 . S
C61 C62 1.374 . S
C62 H53 0.930 . S
C62 C61 1.374 . S
C62 C63 1.383 . S
C63 O57 1.412 . S
C63 C62 1.383 . S
C63 C64 1.394 . S
C64 H54 0.929 . S
C64 C60 1.377 . S
C64 C63 1.394 . S
H65 C72 0.929 . S
H66 C75 0.930 . S
H67 C77 0.929 . S
H68 C69 0.969 . S
C69 H68 0.969 . S
C69 O70 1.550 . S
C69 H71 0.973 . S
O70 C69 1.550 . S
O70 C76 1.412 . S
H71 C69 0.973 . S
C72 H65 0.929 . S
C72 C73 1.400 . S
C72 C74 1.364 . S
C73 C72 1.400 . S
C73 C77 1.377 . S
C74 C72 1.364 . S
C74 C75 1.374 . S
C75 H66 0.930 . S
C75 C74 1.374 . S
C75 C76 1.383 . S
C76 O70 1.412 . S
C76 C75 1.383 . S
C76 C77 1.394 . S
C77 H67 0.929 . S
C77 C73 1.377 . S
C77 C76 1.394 . S
H78 C85 0.929 . S
H79 C88 0.930 . S
H80 C90 0.929 . S
H81 C82 0.969 . S
C82 H81 0.969 . S
C82 O83 1.550 . S
C82 H84 0.973 . S
O83 C82 1.550 . S
O83 C89 1.412 . S
H84 C82 0.973 . S
C85 H78 0.929 . S
C85 C86 1.400 . S
C85 C87 1.364 . S
C86 C85 1.400 . S
C86 C90 1.377 . S
C87 C85 1.364 . S
C87 C88 1.374 . S
C88 H79 0.930 . S
C88 C87 1.374 . S
C88 C89 1.383 . S
C89 O83 1.412 . S
C89 C88 1.383 . S
C89 C90 1.394 . S
C90 H80 0.929 . S
C90 C86 1.377 . S
C90 C89 1.394 . S
H91 C98 0.929 . S
H92 C101 0.930 . S
H93 C103 0.929 . S
H94 C95 0.969 . S
C95 H94 0.969 . S
C95 O96 1.550 . S
C95 H97 0.973 . S
O96 C95 1.550 . S
O96 C102 1.412 . S
H97 C95 0.973 . S
C98 H91 0.929 . S
C98 C99 1.400 . S
C98 C100 1.364 . S
C99 C98 1.400 . S
C99 C103 1.377 . S
C100 C98 1.364 . S
C100 C101 1.374 . S
C101 H92 0.930 . S
C101 C100 1.374 . S
C101 C102 1.383 . S
C102 O96 1.412 . S
C102 C101 1.383 . S
C102 C103 1.394 . S
C103 H93 0.929 . S
C103 C99 1.377 . S
C103 C102 1.394 . S
Ho104 C107 2.811 . S
Ho104 O124 2.322 . S
Ho104 O126 2.378 . S
Ho104 O127 2.524 . S
Ho104 O128 2.397 . S
Ho104 O129 2.669 1_545 S
Ho104 O131 2.346 1_545 S
Ho104 O135 2.305 . S
Ho105 C116 2.811 1_545 S
Ho105 O125 2.346 1_655 S
Ho105 O129 2.305 1_645 S
Ho105 O130 2.322 1_545 S
Ho105 O132 2.378 1_545 S
Ho105 O133 2.524 1_545 S
Ho105 O134 2.381 . S
Ho105 O135 2.669 1_655 S
C106 O124 1.259 . S
C106 O125 1.268 . S
C107 Ho104 2.811 . S
C107 C108 1.488 . S
C107 O126 1.215 . S
C107 O127 1.289 . S
C108 C107 1.488 . S
C108 C109 1.348 . S
C108 C113 1.413 . S
C109 C108 1.348 . S
C109 C110 1.442 . S
C109 H136 0.930 . S
C110 C109 1.442 . S
C110 C111 1.381 . S
C110 H137 0.931 . S
C111 C110 1.381 . S
C111 C112 1.321 . S
C112 C111 1.321 . S
C112 C113 1.403 . S
C112 H138 0.934 . S
C113 C108 1.413 . S
C113 C112 1.403 . S
C113 H139 0.930 . S
C114 O128 1.270 1_565 S
C114 O129 1.256 . S
C115 O130 1.259 . S
C115 O131 1.268 1_655 S
C116 Ho105 2.811 1_565 S
C116 C117 1.488 . S
C116 O132 1.215 . S
C116 O133 1.289 . S
C117 C116 1.488 . S
C117 C118 1.348 . S
C117 C122 1.413 . S
C118 C117 1.348 . S
C118 C119 1.442 . S
C118 H140 0.930 . S
C119 C118 1.442 . S
C119 C120 1.381 . S
C119 H141 0.931 . S
C120 C119 1.381 . S
C120 C121 1.321 . S
C121 C120 1.321 . S
C121 C122 1.403 . S
C121 H142 0.934 . S
C122 C117 1.413 . S
C122 C121 1.403 . S
C122 H143 0.930 . S
C123 O134 1.275 . S
C123 O135 1.256 1_655 S
O124 Ho104 2.322 . S
O124 C106 1.259 . S
O125 Ho105 2.346 1_455 S
O125 C106 1.268 . S
O126 Ho104 2.378 . S
O126 C107 1.215 . S
O127 Ho104 2.524 . S
O127 C107 1.289 . S
O128 Ho104 2.397 . S
O128 C114 1.270 1_545 S
O129 Ho104 2.669 1_565 S
O129 Ho105 2.305 1_465 S
O129 C114 1.256 . S
O130 Ho105 2.322 1_565 S
O130 C115 1.259 . S
O131 Ho104 2.346 1_565 S
O131 C115 1.268 1_455 S
O132 Ho105 2.378 1_565 S
O132 C116 1.215 . S
O133 Ho105 2.524 1_565 S
O133 C116 1.289 . S
O134 Ho105 2.381 . S
O134 C123 1.275 . S
O135 Ho104 2.305 . S
O135 Ho105 2.669 1_455 S
O135 C123 1.256 1_455 S
H136 C109 0.930 . S
H137 C110 0.931 . S
H138 C112 0.934 . S
H139 C113 0.930 . S
H140 C118 0.930 . S
H141 C119 0.931 . S
H142 C121 0.934 . S
H143 C122 0.930 . S
Ho144 C147 2.811 . S
Ho144 O164 2.322 . S
Ho144 O166 2.378 . S
Ho144 O167 2.524 . S
Ho144 O168 2.381 1_545 S
Ho144 O169 2.669 1_545 S
Ho144 O171 2.346 1_544 S
Ho144 O175 2.305 1_554 S
Ho145 C156 2.811 1_545 S
Ho145 O165 2.346 1_556 S
Ho145 O169 2.305 1_546 S
Ho145 O170 2.322 1_545 S
Ho145 O172 2.378 1_545 S
Ho145 O173 2.524 1_545 S
Ho145 O174 2.381 . S
Ho145 O175 2.669 . S
C146 O164 1.259 . S
C146 O165 1.268 . S
C147 Ho144 2.811 . S
C147 C148 1.488 . S
C147 O166 1.215 . S
C147 O167 1.289 . S
C148 C147 1.488 . S
C148 C149 1.348 . S
C148 C153 1.413 . S
C149 C148 1.348 . S
C149 C150 1.442 . S
C149 H176 0.930 . S
C150 C149 1.442 . S
C150 C151 1.381 . S
C150 H177 0.931 . S
C151 C150 1.381 . S
C151 C152 1.321 . S
C152 C151 1.321 . S
C152 C153 1.403 . S
C152 H178 0.934 . S
C153 C148 1.413 . S
C153 C152 1.403 . S
C153 H179 0.930 . S
C154 O168 1.275 . S
C154 O169 1.256 . S
C155 O170 1.259 . S
C155 O171 1.268 . S
C156 Ho145 2.811 1_565 S
C156 C157 1.488 . S
C156 O172 1.215 . S
C156 O173 1.289 . S
C157 C156 1.488 . S
C157 C158 1.348 . S
C157 C162 1.413 . S
C158 C157 1.348 . S
C158 C159 1.442 . S
C158 H180 0.930 . S
C159 C158 1.442 . S
C159 C160 1.381 . S
C159 H181 0.931 . S
C160 C159 1.381 . S
C160 C161 1.321 . S
C161 C160 1.321 . S
C161 C162 1.403 . S
C161 H182 0.934 . S
C162 C157 1.413 . S
C162 C161 1.403 . S
C162 H183 0.930 . S
C163 O174 1.275 . S
C163 O175 1.256 . S
O164 Ho144 2.322 . S
O164 C146 1.259 . S
O165 Ho145 2.346 1_554 S
O165 C146 1.268 . S
O166 Ho144 2.378 . S
O166 C147 1.215 . S
O167 Ho144 2.524 . S
O167 C147 1.289 . S
O168 Ho144 2.381 1_565 S
O168 C154 1.275 . S
O169 Ho144 2.669 1_565 S
O169 Ho145 2.305 1_564 S
O169 C154 1.256 . S
O170 Ho145 2.322 1_565 S
O170 C155 1.259 . S
O171 Ho144 2.346 1_566 S
O171 C155 1.268 . S
O172 Ho145 2.378 1_565 S
O172 C156 1.215 . S
O173 Ho145 2.524 1_565 S
O173 C156 1.289 . S
O174 Ho145 2.381 . S
O174 C163 1.275 . S
O175 Ho144 2.305 1_556 S
O175 Ho145 2.669 . S
O175 C163 1.256 . S
H176 C149 0.930 . S
H177 C150 0.931 . S
H178 C152 0.934 . S
H179 C153 0.930 . S
H180 C158 0.930 . S
H181 C159 0.931 . S
H182 C161 0.934 . S
H183 C162 0.930 . S
Ho184 C187 2.811 . S
Ho184 O204 2.322 . S
Ho184 O206 2.378 . S
Ho184 O207 2.524 . S
Ho184 O208 2.381 . S
Ho184 O209 2.669 . S
Ho184 O211 2.346 . S
Ho184 O215 2.305 . S
Ho185 C196 2.811 . S
Ho185 O205 2.346 . S
Ho185 O209 2.305 . S
Ho185 O210 2.322 . S
Ho185 O212 2.378 . S
Ho185 O213 2.524 . S
Ho185 O214 2.381 . S
Ho185 O215 2.669 . S
C186 O204 1.259 . S
C186 O205 1.268 . S
C187 Ho184 2.811 . S
C187 C188 1.488 . S
C187 O206 1.215 . S
C187 O207 1.289 . S
C188 C187 1.488 . S
C188 C189 1.348 . S
C188 C193 1.413 . S
C189 C188 1.348 . S
C189 C190 1.442 . S
C189 H216 0.930 . S
C190 C189 1.442 . S
C190 C191 1.381 . S
C190 H217 0.931 . S
C191 C190 1.381 . S
C191 C192 1.321 . S
C192 C191 1.321 . S
C192 C193 1.403 . S
C192 H218 0.934 . S
C193 C188 1.413 . S
C193 C192 1.403 . S
C193 H219 0.930 . S
C194 O208 1.275 . S
C194 O209 1.256 . S
C195 O210 1.259 . S
C195 O211 1.268 . S
C196 Ho185 2.811 . S
C196 C197 1.488 . S
C196 O212 1.215 . S
C196 O213 1.289 . S
C197 C196 1.488 . S
C197 C198 1.348 . S
C197 C202 1.413 . S
C198 C197 1.348 . S
C198 C199 1.442 . S
C198 H220 0.930 . S
C199 C198 1.442 . S
C199 C200 1.381 . S
C199 H221 0.931 . S
C200 C199 1.381 . S
C200 C201 1.321 . S
C201 C200 1.321 . S
C201 C202 1.403 . S
C201 H222 0.934 . S
C202 C197 1.413 . S
C202 C201 1.403 . S
C202 H223 0.930 . S
C203 O214 1.275 . S
C203 O215 1.256 . S
O204 Ho184 2.322 . S
O204 C186 1.259 . S
O205 Ho185 2.346 . S
O205 C186 1.268 . S
O206 Ho184 2.378 . S
O206 C187 1.215 . S
O207 Ho184 2.524 . S
O207 C187 1.289 . S
O208 Ho184 2.381 . S
O208 C194 1.275 . S
O209 Ho184 2.669 . S
O209 Ho185 2.305 . S
O209 C194 1.256 . S
O210 Ho185 2.322 . S
O210 C195 1.259 . S
O211 Ho184 2.346 . S
O211 C195 1.268 . S
O212 Ho185 2.378 . S
O212 C196 1.215 . S
O213 Ho185 2.524 . S
O213 C196 1.289 . S
O214 Ho185 2.381 . S
O214 C203 1.275 . S
O215 Ho184 2.305 . S
O215 Ho185 2.669 . S
O215 C203 1.256 . S
H216 C189 0.930 . S
H217 C190 0.931 . S
H218 C192 0.934 . S
H219 C193 0.930 . S
H220 C198 0.930 . S
H221 C199 0.931 . S
H222 C201 0.934 . S
H223 C202 0.930 . S
Ho224 C227 2.811 . S
Ho224 O244 2.322 . S
Ho224 O246 2.378 . S
Ho224 O247 2.524 . S
Ho224 O248 2.381 . S
Ho224 O249 2.669 . S
Ho224 O251 2.346 1_455 S
Ho224 O255 2.305 . S
Ho225 C236 2.811 1_454 S
Ho225 O245 2.346 . S
Ho225 O249 2.305 . S
Ho225 O250 2.322 1_454 S
Ho225 O252 2.378 1_454 S
Ho225 O253 2.524 1_455 S
Ho225 O254 2.381 1_554 S
Ho225 O255 2.669 . S
C226 O244 1.259 . S
C226 O245 1.268 . S
C227 Ho224 2.811 . S
C227 C228 1.488 . S
C227 O246 1.215 . S
C227 O247 1.289 . S
C228 C227 1.488 . S
C228 C229 1.348 . S
C228 C233 1.413 . S
C229 C228 1.348 . S
C229 C230 1.442 . S
C229 H256 0.930 . S
C230 C229 1.442 . S
C230 C231 1.381 . S
C230 H257 0.931 . S
C231 C230 1.381 . S
C231 C232 1.321 . S
C232 C231 1.321 . S
C232 C233 1.403 . S
C232 H258 0.934 . S
C233 C228 1.413 . S
C233 C232 1.403 . S
C233 H259 0.930 . S
C234 O248 1.275 . S
C234 O249 1.256 . S
C235 O250 1.259 1_554 S
C235 O251 1.268 . S
C236 Ho225 2.811 1_656 S
C236 C237 1.488 . S
C236 O252 1.215 . S
C236 O253 1.289 1_556 S
C237 C236 1.488 . S
C237 C238 1.348 . S
C237 C242 1.413 . S
C238 C237 1.348 . S
C238 C239 1.442 . S
C238 H260 0.930 1_556 S
C239 C238 1.442 . S
C239 C240 1.381 . S
C239 H261 0.931 . S
C240 C239 1.381 . S
C240 C241 1.321 . S
C241 C240 1.321 . S
C241 C242 1.403 . S
C241 H262 0.934 . S
C242 C237 1.413 . S
C242 C241 1.403 . S
C242 H263 0.930 . S
C243 O254 1.275 . S
C243 O255 1.256 1_556 S
O244 Ho224 2.322 . S
O244 C226 1.259 . S
O245 Ho225 2.346 . S
O245 C226 1.268 . S
O246 Ho224 2.378 . S
O246 C227 1.215 . S
O247 Ho224 2.524 . S
O247 C227 1.289 . S
O248 Ho224 2.381 . S
O248 C234 1.275 . S
O249 Ho224 2.669 . S
O249 Ho225 2.305 . S
O249 C234 1.256 . S
O250 Ho225 2.322 1_656 S
O250 C235 1.259 1_556 S
O251 Ho224 2.346 1_655 S
O251 C235 1.268 . S
O252 Ho225 2.378 1_656 S
O252 C236 1.215 . S
O253 Ho225 2.524 1_655 S
O253 C236 1.289 1_554 S
O254 Ho225 2.381 1_556 S
O254 C243 1.275 . S
O255 Ho224 2.305 . S
O255 Ho225 2.669 . S
O255 C243 1.256 1_554 S
H256 C229 0.930 . S
H257 C230 0.931 . S
H258 C232 0.934 . S
H259 C233 0.930 . S
H260 C238 0.930 1_554 S
H261 C239 0.931 . S
H262 C241 0.934 . S
H263 C242 0.930 . S
C264 C265 1.369 . S
C264 C266 1.419 . S
C264 H268 0.930 . S
C265 C264 1.369 . S
C265 C274 1.429 . S
C266 C264 1.419 . S
C266 C267 1.363 . S
C266 H269 0.929 . S
C267 C266 1.363 . S
C267 C273 1.428 . S
H268 C264 0.930 . S
H269 C266 0.929 . S
S270 N271 1.613 . S
S270 N272 1.610 . S
N271 S270 1.613 . S
N271 C274 1.350 . S
N272 S270 1.610 . S
N272 C273 1.351 . S
C273 C267 1.428 . S
C273 N272 1.351 . S
C273 C274 1.434 . S
C274 C265 1.429 . S
C274 N271 1.350 . S
C274 C273 1.434 . S
C275 C276 1.369 . S
C275 C277 1.419 . S
C275 H279 0.930 . S
C276 C275 1.369 . S
C276 C285 1.429 . S
C277 C275 1.419 . S
C277 C278 1.363 . S
C277 H280 0.929 . S
C278 C277 1.363 . S
C278 C284 1.428 . S
H279 C275 0.930 . S
H280 C277 0.929 . S
S281 N282 1.613 . S
S281 N283 1.610 . S
N282 S281 1.613 . S
N282 C285 1.350 . S
N283 S281 1.610 . S
N283 C284 1.351 . S
C284 C278 1.428 . S
C284 N283 1.351 . S
C284 C285 1.434 . S
C285 C276 1.429 . S
C285 N282 1.350 . S
C285 C284 1.434 . S
C286 C287 1.369 . S
C286 C288 1.419 . S
C286 H290 0.930 . S
C287 C286 1.369 . S
C287 C296 1.429 . S
C288 C286 1.419 . S
C288 C289 1.363 . S
C288 H291 0.929 . S
C289 C288 1.363 . S
C289 C295 1.428 . S
H290 C286 0.930 . S
H291 C288 0.929 . S
S292 N293 1.613 . S
S292 N294 1.610 . S
N293 S292 1.613 . S
N293 C296 1.350 . S
N294 S292 1.610 . S
N294 C295 1.351 . S
C295 C289 1.428 . S
C295 N294 1.351 . S
C295 C296 1.434 . S
C296 C287 1.429 . S
C296 N293 1.350 . S
C296 C295 1.434 . S
C297 C298 1.369 . S
C297 C299 1.419 . S
C297 H301 0.930 . S
C298 C297 1.369 . S
C298 C307 1.429 . S
C299 C297 1.419 . S
C299 C300 1.363 . S
C299 H302 0.929 1_655 S
C300 C299 1.363 . S
C300 C306 1.428 . S
H301 C297 0.930 . S
H302 C299 0.929 1_455 S
S303 N304 1.613 . S
S303 N305 1.610 . S
N304 S303 1.613 . S
N304 C307 1.350 . S
N305 S303 1.610 . S
N305 C306 1.351 . S
C306 C300 1.428 . S
C306 N305 1.351 . S
C306 C307 1.434 . S
C307 C298 1.429 . S
C307 N304 1.350 . S
C307 C306 1.434 . S
C308 C309 1.369 . S
C308 C310 1.419 . S
C308 H312 0.930 . S
C309 C308 1.369 . S
C309 C318 1.429 . S
C310 C308 1.419 . S
C310 C311 1.363 . S
C310 H313 0.929 . S
C311 C310 1.363 . S
C311 C317 1.428 . S
H312 C308 0.930 . S
H313 C310 0.929 . S
S314 N315 1.613 . S
S314 N316 1.610 . S
N315 S314 1.613 . S
N315 C318 1.350 . S
N316 S314 1.610 . S
N316 C317 1.351 . S
C317 C311 1.428 . S
C317 N316 1.351 . S
C317 C318 1.434 . S
C318 C309 1.429 . S
C318 N315 1.350 . S
C318 C317 1.434 . S
C319 C320 1.369 . S
C319 C321 1.419 . S
C319 H323 0.930 . S
C320 C319 1.369 . S
C320 C329 1.429 . S
C321 C319 1.419 . S
C321 C322 1.363 . S
C321 H324 0.929 . S
C322 C321 1.363 . S
C322 C328 1.428 . S
H323 C319 0.930 . S
H324 C321 0.929 . S
S325 N326 1.613 . S
S325 N327 1.610 . S
N326 S325 1.613 . S
N326 C329 1.350 . S
N327 S325 1.610 . S
N327 C328 1.351 . S
C328 C322 1.428 . S
C328 N327 1.351 . S
C328 C329 1.434 . S
C329 C320 1.429 . S
C329 N326 1.350 . S
C329 C328 1.434 . S
C330 C331 1.369 . S
C330 C332 1.419 . S
C330 H334 0.930 . S
C331 C330 1.369 . S
C331 C340 1.429 . S
C332 C330 1.419 . S
C332 C333 1.363 . S
C332 H335 0.929 . S
C333 C332 1.363 . S
C333 C339 1.428 . S
H334 C330 0.930 . S
H335 C332 0.929 . S
S336 N337 1.613 . S
S336 N338 1.610 . S
N337 S336 1.613 . S
N337 C340 1.350 . S
N338 S336 1.610 . S
N338 C339 1.351 . S
C339 C333 1.428 . S
C339 N338 1.351 . S
C339 C340 1.434 . S
C340 C331 1.429 . S
C340 N337 1.350 . S
C340 C339 1.434 . S
C341 C342 1.369 . S
C341 C343 1.419 . S
C341 H345 0.930 . S
C342 C341 1.369 . S
C342 C351 1.429 . S
C343 C341 1.419 . S
C343 C344 1.363 . S
C343 H346 0.929 . S
C344 C343 1.363 . S
C344 C350 1.428 . S
H345 C341 0.930 . S
H346 C343 0.929 . S
S347 N348 1.613 . S
S347 N349 1.610 . S
N348 S347 1.613 . S
N348 C351 1.350 . S
N349 S347 1.610 . S
N349 C350 1.351 . S
C350 C344 1.428 . S
C350 N349 1.351 . S
C350 C351 1.434 . S
C351 C342 1.429 . S
C351 N348 1.350 . S
C351 C350 1.434 . S
C352 C353 1.369 . S
C352 C354 1.419 . S
C352 H356 0.930 . S
C353 C352 1.369 . S
C353 C362 1.429 . S
C354 C352 1.419 . S
C354 C355 1.363 . S
C354 H357 0.929 . S
C355 C354 1.363 . S
C355 C361 1.428 . S
H356 C352 0.930 . S
H357 C354 0.929 . S
S358 N359 1.613 . S
S358 N360 1.610 . S
N359 S358 1.613 . S
N359 C362 1.350 . S
N360 S358 1.610 . S
N360 C361 1.351 . S
C361 C355 1.428 . S
C361 N360 1.351 . S
C361 C362 1.434 . S
C362 C353 1.429 . S
C362 N359 1.350 . S
C362 C361 1.434 . S
C363 C364 1.369 . S
C363 C365 1.419 . S
C363 H367 0.930 . S
C364 C363 1.369 . S
C364 C373 1.429 . S
C365 C363 1.419 . S
C365 C366 1.363 . S
C365 H368 0.929 . S
C366 C365 1.363 . S
C366 C372 1.428 . S
H367 C363 0.930 . S
H368 C365 0.929 . S
S369 N370 1.613 . S
S369 N371 1.610 . S
N370 S369 1.613 . S
N370 C373 1.350 . S
N371 S369 1.610 . S
N371 C372 1.351 . S
C372 C366 1.428 . S
C372 N371 1.351 . S
C372 C373 1.434 . S
C373 C364 1.429 . S
C373 N370 1.350 . S
C373 C372 1.434 . S
C374 C375 1.369 . S
C374 C376 1.419 . S
C374 H378 0.930 . S
C375 C374 1.369 . S
C375 C384 1.429 . S
C376 C374 1.419 . S
C376 C377 1.363 . S
C376 H379 0.929 . S
C377 C376 1.363 . S
C377 C383 1.428 . S
H378 C374 0.930 . S
H379 C376 0.929 . S
S380 N381 1.613 . S
S380 N382 1.610 . S
N381 S380 1.613 . S
N381 C384 1.350 1_455 S
N382 S380 1.610 . S
N382 C383 1.351 1_455 S
C383 C377 1.428 . S
C383 N382 1.351 1_655 S
C383 C384 1.434 . S
C384 C375 1.429 . S
C384 N381 1.350 1_655 S
C384 C383 1.434 . S
C385 C386 1.369 . S
C385 C387 1.419 . S
C385 H389 0.930 . S
C386 C385 1.369 . S
C386 C395 1.429 . S
C387 C385 1.419 . S
C387 C388 1.363 . S
C387 H390 0.929 . S
C388 C387 1.363 . S
C388 C394 1.428 . S
H389 C385 0.930 . S
H390 C387 0.929 . S
S391 N392 1.613 . S
S391 N393 1.610 . S
N392 S391 1.613 . S
N392 C395 1.350 . S
N393 S391 1.610 . S
N393 C394 1.351 . S
C394 C388 1.428 . S
C394 N393 1.351 . S
C394 C395 1.434 . S
C395 C386 1.429 . S
C395 N392 1.350 . S
C395 C394 1.434 . S
C396 C397 1.369 . S
C396 C398 1.419 . S
C396 H400 0.930 . S
C397 C396 1.369 . S
C397 C406 1.429 . S
C398 C396 1.419 . S
C398 C399 1.363 . S
C398 H401 0.929 . S
C399 C398 1.363 . S
C399 C405 1.428 . S
H400 C396 0.930 . S
H401 C398 0.929 . S
S402 N403 1.613 . S
S402 N404 1.610 . S
N403 S402 1.613 . S
N403 C406 1.350 . S
N404 S402 1.610 . S
N404 C405 1.351 . S
C405 C399 1.428 . S
C405 N404 1.351 . S
C405 C406 1.434 . S
C406 C397 1.429 . S
C406 N403 1.350 . S
C406 C405 1.434 . S
C407 C408 1.369 . S
C407 C409 1.419 . S
C407 H411 0.930 . S
C408 C407 1.369 . S
C408 C417 1.429 . S
C409 C407 1.419 . S
C409 C410 1.363 . S
C409 H412 0.929 . S
C410 C409 1.363 . S
C410 C416 1.428 . S
H411 C407 0.930 . S
H412 C409 0.929 . S
S413 N414 1.613 . S
S413 N415 1.610 . S
N414 S413 1.613 . S
N414 C417 1.350 . S
N415 S413 1.610 . S
N415 C416 1.351 . S
C416 C410 1.428 . S
C416 N415 1.351 . S
C416 C417 1.434 . S
C417 C408 1.429 . S
C417 N414 1.350 . S
C417 C416 1.434 . S
C418 C419 1.369 . S
C418 C420 1.419 . S
C418 H422 0.930 . S
C419 C418 1.369 . S
C419 C428 1.429 . S
C420 C418 1.419 . S
C420 C421 1.363 . S
C420 H423 0.929 . S
C421 C420 1.363 . S
C421 C427 1.428 . S
H422 C418 0.930 . S
H423 C420 0.929 . S
S424 N425 1.613 . S
S424 N426 1.610 . S
N425 S424 1.613 . S
N425 C428 1.350 . S
N426 S424 1.610 . S
N426 C427 1.351 . S
C427 C421 1.428 . S
C427 N426 1.351 . S
C427 C428 1.434 . S
C428 C419 1.429 . S
C428 N425 1.350 . S
C428 C427 1.434 . S
C429 C430 1.369 . S
C429 C431 1.419 . S
C429 H433 0.930 . S
C430 C429 1.369 . S
C430 C439 1.429 . S
C431 C429 1.419 . S
C431 C432 1.363 . S
C431 H434 0.929 . S
C432 C431 1.363 . S
C432 C438 1.428 . S
H433 C429 0.930 . S
H434 C431 0.929 . S
S435 N436 1.613 . S
S435 N437 1.610 . S
N436 S435 1.613 . S
N436 C439 1.350 . S
N437 S435 1.610 . S
N437 C438 1.351 . S
C438 C432 1.428 . S
C438 N437 1.351 . S
C438 C439 1.434 . S
C439 C430 1.429 . S
C439 N436 1.350 . S
C439 C438 1.434 . S
C440 C441 1.369 . S
C440 C442 1.419 . S
C440 H444 0.930 . S
C441 C440 1.369 . S
C441 C450 1.429 . S
C442 C440 1.419 . S
C442 C443 1.363 . S
C442 H445 0.929 . S
C443 C442 1.363 . S
C443 C449 1.428 . S
H444 C440 0.930 . S
H445 C442 0.929 . S
S446 N447 1.613 . S
S446 N448 1.610 . S
N447 S446 1.613 . S
N447 C450 1.350 . S
N448 S446 1.610 . S
N448 C449 1.351 . S
C449 C443 1.428 . S
C449 N448 1.351 . S
C449 C450 1.434 . S
C450 C441 1.429 . S
C450 N447 1.350 . S
C450 C449 1.434 . S
C451 C452 1.369 . S
C451 C453 1.419 . S
C451 H455 0.930 . S
C452 C451 1.369 . S
C452 C461 1.429 . S
C453 C451 1.419 . S
C453 C454 1.363 . S
C453 H456 0.929 . S
C454 C453 1.363 . S
C454 C460 1.428 . S
H455 C451 0.930 . S
H456 C453 0.929 . S
S457 N458 1.613 . S
S457 N459 1.610 . S
N458 S457 1.613 . S
N458 C461 1.350 . S
N459 S457 1.610 . S
N459 C460 1.351 . S
C460 C454 1.428 . S
C460 N459 1.351 . S
C460 C461 1.434 . S
C461 C452 1.429 . S
C461 N458 1.350 . S
C461 C460 1.434 . S
C462 C463 1.369 . S
C462 C464 1.419 . S
C462 H466 0.930 . S
C463 C462 1.369 . S
C463 C472 1.429 . S
C464 C462 1.419 . S
C464 C465 1.363 . S
C464 H467 0.929 . S
C465 C464 1.363 . S
C465 C471 1.428 . S
H466 C462 0.930 . S
H467 C464 0.929 . S
S468 N469 1.613 . S
S468 N470 1.610 . S
N469 S468 1.613 . S
N469 C472 1.350 . S
N470 S468 1.610 . S
N470 C471 1.351 . S
C471 C465 1.428 . S
C471 N470 1.351 . S
C471 C472 1.434 . S
C472 C463 1.429 . S
C472 N469 1.350 . S
C472 C471 1.434 . S
C473 C474 1.369 . S
C473 C475 1.419 . S
C473 H477 0.930 . S
C474 C473 1.369 . S
C474 C483 1.429 . S
C475 C473 1.419 . S
C475 C476 1.363 . S
C475 H478 0.929 . S
C476 C475 1.363 . S
C476 C482 1.428 . S
H477 C473 0.930 . S
H478 C475 0.929 . S
S479 N480 1.613 . S
S479 N481 1.610 . S
N480 S479 1.613 . S
N480 C483 1.350 . S
N481 S479 1.610 . S
N481 C482 1.351 . S
C482 C476 1.428 . S
C482 N481 1.351 . S
C482 C483 1.434 . S
C483 C474 1.429 . S
C483 N480 1.350 . S
C483 C482 1.434 . S
C484 C485 1.369 . S
C484 C486 1.419 . S
C484 H488 0.930 . S
C485 C484 1.369 . S
C485 C494 1.429 . S
C486 C484 1.419 . S
C486 C487 1.363 . S
C486 H489 0.929 . S
C487 C486 1.363 . S
C487 C493 1.428 . S
H488 C484 0.930 . S
H489 C486 0.929 . S
S490 N491 1.613 . S
S490 N492 1.610 . S
N491 S490 1.613 . S
N491 C494 1.350 . S
N492 S490 1.610 . S
N492 C493 1.351 . S
C493 C487 1.428 . S
C493 N492 1.351 . S
C493 C494 1.434 . S
C494 C485 1.429 . S
C494 N491 1.350 . S
C494 C493 1.434 . S
C495 C496 1.369 . S
C495 C497 1.419 . S
C495 H499 0.930 . S
C496 C495 1.369 . S
C496 C505 1.429 . S
C497 C495 1.419 . S
C497 C498 1.363 . S
C497 H500 0.929 . S
C498 C497 1.363 . S
C498 C504 1.428 . S
H499 C495 0.930 . S
H500 C497 0.929 . S
S501 N502 1.613 . S
S501 N503 1.610 . S
N502 S501 1.613 . S
N502 C505 1.350 . S
N503 S501 1.610 . S
N503 C504 1.351 . S
C504 C498 1.428 . S
C504 N503 1.351 . S
C504 C505 1.434 . S
C505 C496 1.429 . S
C505 N502 1.350 . S
C505 C504 1.434 . S
C506 C507 1.369 . S
C506 C508 1.419 . S
C506 H510 0.930 . S
C507 C506 1.369 . S
C507 C516 1.429 . S
C508 C506 1.419 . S
C508 C509 1.363 . S
C508 H511 0.929 . S
C509 C508 1.363 . S
C509 C515 1.428 . S
H510 C506 0.930 . S
H511 C508 0.929 . S
S512 N513 1.613 1_655 S
S512 N514 1.610 1_655 S
N513 S512 1.613 1_455 S
N513 C516 1.350 . S
N514 S512 1.610 1_455 S
N514 C515 1.351 . S
C515 C509 1.428 . S
C515 N514 1.351 . S
C515 C516 1.434 . S
C516 C507 1.429 . S
C516 N513 1.350 . S
C516 C515 1.434 . S
C517 C518 1.369 . S
C517 C519 1.419 . S
C517 H521 0.930 . S
C518 C517 1.369 . S
C518 C527 1.429 . S
C519 C517 1.419 . S
C519 C520 1.363 . S
C519 H522 0.929 . S
C520 C519 1.363 . S
C520 C526 1.428 . S
H521 C517 0.930 . S
H522 C519 0.929 . S
S523 N524 1.613 . S
S523 N525 1.610 . S
N524 S523 1.613 . S
N524 C527 1.350 . S
N525 S523 1.610 . S
N525 C526 1.351 . S
C526 C520 1.428 . S
C526 N525 1.351 . S
C526 C527 1.434 . S
C527 C518 1.429 . S
C527 N524 1.350 . S
C527 C526 1.434 . S
C265 C9 1.423 . S
C267 C111 1.465 . S
C276 C21 1.259 . S
C278 C160 1.290 . S
C289 C186 2.287 . S
C287 C30 2.340 . S
C298 C43 2.262 . S
C300 C234 2.367 1_655 S
C311 C146 2.157 . S
C309 C4 1.766 . S
C322 C114 1.414 . S
C320 C22 1.442 . S
C333 C235 1.696 1_556 S
C331 C34 1.765 . S
C344 C203 1.698 . S
C342 C48 1.715 . S
C353 C8 1.557 . S
C355 C231 1.631 . S
C366 C163 2.308 . S
C364 C35 2.392 . S
C375 C47 2.588 . S
C377 C115 2.583 . S
C386 C17 1.194 . S
C388 C200 1.207 . S
C399 C120 1.082 . S
C397 C60 1.062 . S
C408 C74 1.216 . S
C410 C151 1.188 . S
C419 C82 2.037 . S
C421 C195 2.090 . S
C430 C100 2.823 . S
C432 C243 2.760 . S
C441 C61 2.289 . S
C443 C155 2.460 . S
C454 C123 0.640 . S
C452 C73 0.644 . S
C465 C226 2.160 . S
C463 C87 2.230 . S
C476 C194 1.517 . S
C474 C95 1.504 . S
C485 C56 1.517 . S
C487 C240 1.501 . S
C498 C154 2.493 . S
C496 C86 2.552 . S
C509 C106 2.454 . S
C507 C99 2.460 . S
C518 C69 0.889 . S
C520 C191 0.990 . S
