# Generated by pormake.
# Topology ptr, (4,4)-cn, num edge types: 1
# Building blocks:
#     Node 0, Type 0, BuildingBlock: AZAVOO_clean_sbu_0, # of connection points: 4
#     Node 1, Type 0, BuildingBlock: AZAVOO_clean_sbu_0, # of connection points: 4
#     Node 2, Type 0, BuildingBlock: AZAVOO_clean_sbu_0, # of connection points: 4
#     Node 3, Type 0, BuildingBlock: AZAVOO_clean_sbu_0, # of connection points: 4
#     Node 4, Type 0, BuildingBlock: AZAVOO_clean_sbu_0, # of connection points: 4
#     Node 5, Type 0, BuildingBlock: AZAVOO_clean_sbu_0, # of connection points: 4
#     Node 6, Type 0, BuildingBlock: AZAVOO_clean_sbu_0, # of connection points: 4
#     Node 7, Type 0, BuildingBlock: AZAVOO_clean_sbu_0, # of connection points: 4
#     Node 8, Type 0, BuildingBlock: AZAVOO_clean_sbu_0, # of connection points: 4
#     Node 9, Type 0, BuildingBlock: AZAVOO_clean_sbu_0, # of connection points: 4
#     Node 10, Type 0, BuildingBlock: AZAVOO_clean_sbu_0, # of connection points: 4
#     Node 11, Type 0, BuildingBlock: AZAVOO_clean_sbu_0, # of connection points: 4
#     Node 12, Type 0, BuildingBlock: AZAVOO_clean_sbu_0, # of connection points: 4
#     Node 13, Type 0, BuildingBlock: AZAVOO_clean_sbu_0, # of connection points: 4
#     Node 14, Type 0, BuildingBlock: AZAVOO_clean_sbu_0, # of connection points: 4
#     Node 15, Type 0, BuildingBlock: AZAVOO_clean_sbu_0, # of connection points: 4
#     Node 16, Type 0, BuildingBlock: AZAVOO_clean_sbu_0, # of connection points: 4
#     Node 17, Type 0, BuildingBlock: AZAVOO_clean_sbu_0, # of connection points: 4
#     Node 18, Type 1, BuildingBlock: KUFVIS_clean_linker_0, # of connection points: 4
#     Node 19, Type 1, BuildingBlock: KUFVIS_clean_linker_0, # of connection points: 4
#     Node 20, Type 1, BuildingBlock: KUFVIS_clean_linker_0, # of connection points: 4
#     Node 21, Type 1, BuildingBlock: KUFVIS_clean_linker_0, # of connection points: 4
#     Node 22, Type 1, BuildingBlock: KUFVIS_clean_linker_0, # of connection points: 4
#     Node 23, Type 1, BuildingBlock: KUFVIS_clean_linker_0, # of connection points: 4
#     Node 24, Type 1, BuildingBlock: KUFVIS_clean_linker_0, # of connection points: 4
#     Node 25, Type 1, BuildingBlock: KUFVIS_clean_linker_0, # of connection points: 4
#     Node 26, Type 1, BuildingBlock: KUFVIS_clean_linker_0, # of connection points: 4
#     Node 27, Type 1, BuildingBlock: KUFVIS_clean_linker_0, # of connection points: 4
#     Node 28, Type 1, BuildingBlock: KUFVIS_clean_linker_0, # of connection points: 4
#     Node 29, Type 1, BuildingBlock: KUFVIS_clean_linker_0, # of connection points: 4
#     Node 30, Type 1, BuildingBlock: KUFVIS_clean_linker_0, # of connection points: 4
#     Node 31, Type 1, BuildingBlock: KUFVIS_clean_linker_0, # of connection points: 4
#     Node 32, Type 1, BuildingBlock: KUFVIS_clean_linker_0, # of connection points: 4
#     Node 33, Type 1, BuildingBlock: KUFVIS_clean_linker_0, # of connection points: 4
#     Node 34, Type 1, BuildingBlock: KUFVIS_clean_linker_0, # of connection points: 4
#     Node 35, Type 1, BuildingBlock: KUFVIS_clean_linker_0, # of connection points: 4
#     Edge 36, Type (0, 1), BuildingBlock: TEMPAE_clean_linker_10, # of connection points: 2
#     Edge 37, Type (0, 1), BuildingBlock: TEMPAE_clean_linker_10, # of connection points: 2
#     Edge 38, Type (0, 1), BuildingBlock: TEMPAE_clean_linker_10, # of connection points: 2
#     Edge 39, Type (0, 1), BuildingBlock: TEMPAE_clean_linker_10, # of connection points: 2
#     Edge 40, Type (0, 1), BuildingBlock: TEMPAE_clean_linker_10, # of connection points: 2
#     Edge 41, Type (0, 1), BuildingBlock: TEMPAE_clean_linker_10, # of connection points: 2
#     Edge 42, Type (0, 1), BuildingBlock: TEMPAE_clean_linker_10, # of connection points: 2
#     Edge 43, Type (0, 1), BuildingBlock: TEMPAE_clean_linker_10, # of connection points: 2
#     Edge 44, Type (0, 1), BuildingBlock: TEMPAE_clean_linker_10, # of connection points: 2
#     Edge 45, Type (0, 1), BuildingBlock: TEMPAE_clean_linker_10, # of connection points: 2
#     Edge 46, Type (0, 1), BuildingBlock: TEMPAE_clean_linker_10, # of connection points: 2
#     Edge 47, Type (0, 1), BuildingBlock: TEMPAE_clean_linker_10, # of connection points: 2
#     Edge 48, Type (0, 1), BuildingBlock: TEMPAE_clean_linker_10, # of connection points: 2
#     Edge 49, Type (0, 1), BuildingBlock: TEMPAE_clean_linker_10, # of connection points: 2
#     Edge 50, Type (0, 1), BuildingBlock: TEMPAE_clean_linker_10, # of connection points: 2
#     Edge 51, Type (0, 1), BuildingBlock: TEMPAE_clean_linker_10, # of connection points: 2
#     Edge 52, Type (0, 1), BuildingBlock: TEMPAE_clean_linker_10, # of connection points: 2
#     Edge 53, Type (0, 1), BuildingBlock: TEMPAE_clean_linker_10, # of connection points: 2
#     Edge 54, Type (0, 1), BuildingBlock: TEMPAE_clean_linker_10, # of connection points: 2
#     Edge 55, Type (0, 1), BuildingBlock: TEMPAE_clean_linker_10, # of connection points: 2
#     Edge 56, Type (0, 1), BuildingBlock: TEMPAE_clean_linker_10, # of connection points: 2
#     Edge 57, Type (0, 1), BuildingBlock: TEMPAE_clean_linker_10, # of connection points: 2
#     Edge 58, Type (0, 1), BuildingBlock: TEMPAE_clean_linker_10, # of connection points: 2
#     Edge 59, Type (0, 1), BuildingBlock: TEMPAE_clean_linker_10, # of connection points: 2
#     Edge 60, Type (0, 1), BuildingBlock: TEMPAE_clean_linker_10, # of connection points: 2
#     Edge 61, Type (0, 1), BuildingBlock: TEMPAE_clean_linker_10, # of connection points: 2
#     Edge 62, Type (0, 1), BuildingBlock: TEMPAE_clean_linker_10, # of connection points: 2
#     Edge 63, Type (0, 1), BuildingBlock: TEMPAE_clean_linker_10, # of connection points: 2
#     Edge 64, Type (0, 1), BuildingBlock: TEMPAE_clean_linker_10, # of connection points: 2
#     Edge 65, Type (0, 1), BuildingBlock: TEMPAE_clean_linker_10, # of connection points: 2
#     Edge 66, Type (0, 1), BuildingBlock: TEMPAE_clean_linker_10, # of connection points: 2
#     Edge 67, Type (0, 1), BuildingBlock: TEMPAE_clean_linker_10, # of connection points: 2
#     Edge 68, Type (0, 1), BuildingBlock: TEMPAE_clean_linker_10, # of connection points: 2
#     Edge 69, Type (0, 1), BuildingBlock: TEMPAE_clean_linker_10, # of connection points: 2
#     Edge 70, Type (0, 1), BuildingBlock: TEMPAE_clean_linker_10, # of connection points: 2
#     Edge 71, Type (0, 1), BuildingBlock: TEMPAE_clean_linker_10, # of connection points: 2
#     Edge 72, Type (0, 1), BuildingBlock: TEMPAE_clean_linker_10, # of connection points: 2
#     Edge 73, Type (0, 1), BuildingBlock: TEMPAE_clean_linker_10, # of connection points: 2
#     Edge 74, Type (0, 1), BuildingBlock: TEMPAE_clean_linker_10, # of connection points: 2
#     Edge 75, Type (0, 1), BuildingBlock: TEMPAE_clean_linker_10, # of connection points: 2
#     Edge 76, Type (0, 1), BuildingBlock: TEMPAE_clean_linker_10, # of connection points: 2
#     Edge 77, Type (0, 1), BuildingBlock: TEMPAE_clean_linker_10, # of connection points: 2
#     Edge 78, Type (0, 1), BuildingBlock: TEMPAE_clean_linker_10, # of connection points: 2
#     Edge 79, Type (0, 1), BuildingBlock: TEMPAE_clean_linker_10, # of connection points: 2
#     Edge 80, Type (0, 1), BuildingBlock: TEMPAE_clean_linker_10, # of connection points: 2
#     Edge 81, Type (0, 1), BuildingBlock: TEMPAE_clean_linker_10, # of connection points: 2
#     Edge 82, Type (0, 1), BuildingBlock: TEMPAE_clean_linker_10, # of connection points: 2
#     Edge 83, Type (0, 1), BuildingBlock: TEMPAE_clean_linker_10, # of connection points: 2
#     Edge 84, Type (0, 1), BuildingBlock: TEMPAE_clean_linker_10, # of connection points: 2
#     Edge 85, Type (0, 1), BuildingBlock: TEMPAE_clean_linker_10, # of connection points: 2
#     Edge 86, Type (0, 1), BuildingBlock: TEMPAE_clean_linker_10, # of connection points: 2
#     Edge 87, Type (0, 1), BuildingBlock: TEMPAE_clean_linker_10, # of connection points: 2
#     Edge 88, Type (0, 1), BuildingBlock: TEMPAE_clean_linker_10, # of connection points: 2
#     Edge 89, Type (0, 1), BuildingBlock: TEMPAE_clean_linker_10, # of connection points: 2
#     Edge 90, Type (0, 1), BuildingBlock: TEMPAE_clean_linker_10, # of connection points: 2
#     Edge 91, Type (0, 1), BuildingBlock: TEMPAE_clean_linker_10, # of connection points: 2
#     Edge 92, Type (0, 1), BuildingBlock: TEMPAE_clean_linker_10, # of connection points: 2
#     Edge 93, Type (0, 1), BuildingBlock: TEMPAE_clean_linker_10, # of connection points: 2
#     Edge 94, Type (0, 1), BuildingBlock: TEMPAE_clean_linker_10, # of connection points: 2
#     Edge 95, Type (0, 1), BuildingBlock: TEMPAE_clean_linker_10, # of connection points: 2
#     Edge 96, Type (0, 1), BuildingBlock: TEMPAE_clean_linker_10, # of connection points: 2
#     Edge 97, Type (0, 1), BuildingBlock: TEMPAE_clean_linker_10, # of connection points: 2
#     Edge 98, Type (0, 1), BuildingBlock: TEMPAE_clean_linker_10, # of connection points: 2
#     Edge 99, Type (0, 1), BuildingBlock: TEMPAE_clean_linker_10, # of connection points: 2
#     Edge 100, Type (0, 1), BuildingBlock: TEMPAE_clean_linker_10, # of connection points: 2
#     Edge 101, Type (0, 1), BuildingBlock: TEMPAE_clean_linker_10, # of connection points: 2
#     Edge 102, Type (0, 1), BuildingBlock: TEMPAE_clean_linker_10, # of connection points: 2
#     Edge 103, Type (0, 1), BuildingBlock: TEMPAE_clean_linker_10, # of connection points: 2
#     Edge 104, Type (0, 1), BuildingBlock: TEMPAE_clean_linker_10, # of connection points: 2
#     Edge 105, Type (0, 1), BuildingBlock: TEMPAE_clean_linker_10, # of connection points: 2
#     Edge 106, Type (0, 1), BuildingBlock: TEMPAE_clean_linker_10, # of connection points: 2
#     Edge 107, Type (0, 1), BuildingBlock: TEMPAE_clean_linker_10, # of connection points: 2
# Relax obj value: 0.078
# Max RMSD: 0.240
# Mean RMSD: 0.132
data_MOF--net-ptr--node1-AZAVOO_clean_sbu_0--node2-KUFVIS_clean_linker_0--edge1-TEMPAE_clean_linker_10
_symmetry_space_group_name_H-M    P1
_symmetry_Int_Tables_number       1
_symmetry_cell_setting            triclinic
loop_
_symmetry_equiv_pos_as_xyz
'x, y, z'
_cell_length_a     80.853252
_cell_length_b     79.739101
_cell_length_c     46.862924
_cell_angle_alpha  91.174247
_cell_angle_beta   91.387368
_cell_angle_gamma 119.97871
loop_
_atom_site_label
_atom_site_type_symbol
_atom_site_fract_x
_atom_site_fract_y
_atom_site_fract_z
_atom_type_partial_charge
Mg0 Mg 0.01633 0.35755 0.97666 0.0
O1 O 0.01337 0.3732 0.01644 0.0
O2 O 0.98776 0.3766 0.00831 0.0
Mg3 Mg 0.97442 0.36334 0.96443 0.0
C4 C 1.00199 0.37911 0.02398 0.0
C5 C 0.05366 0.3568 0.9867 0.0
O6 O 0.05517 0.3637 0.96108 0.0
O7 O 0.99085 0.32803 0.98807 0.0
O8 O 0.96633 0.33309 0.97959 0.0
O9 O 0.03392 0.3867 0.9589 0.0
O10 O 1.00258 0.36866 0.95161 0.0
C11 C 0.97294 0.32224 0.98732 0.0
C12 C 0.01805 0.38494 0.94886 0.0
O13 O 0.03856 0.35229 0.00015 0.0
Mg14 Mg 0.64105 0.6527 0.02742 0.0
O15 O 0.61979 0.63833 0.98853 0.0
O16 O 0.59308 0.63791 0.00133 0.0
Mg17 Mg 0.59627 0.65032 0.04679 0.0
C18 C 0.60247 0.63412 0.98326 0.0
C19 C 0.68037 0.65878 0.0206 0.0
O20 O 0.67733 0.65775 0.0481 0.0
O21 O 0.64568 0.68264 0.01674 0.0
O22 O 0.61936 0.68076 0.03434 0.0
O23 O 0.63093 0.62384 0.04633 0.0
O24 O 0.61796 0.64208 0.05408 0.0
C25 C 0.63569 0.69038 0.02337 0.0
C26 C 0.61764 0.62597 0.05768 0.0
O27 O 0.66724 0.6574 0.00344 0.0
Mg28 Mg 0.36741 0.99479 0.9793 0.0
O29 O 0.38888 0.00422 0.01786 0.0
O30 O 0.41618 0.02904 0.00335 0.0
Mg31 Mg 0.41294 0.0347 0.95654 0.0
C32 C 0.40637 0.01738 0.02253 0.0
C33 C 0.32618 0.96642 0.99115 0.0
O34 O 0.32659 0.96754 0.96321 0.0
O35 O 0.36452 0.02167 0.98637 0.0
O36 O 0.39137 0.04441 0.96756 0.0
O37 O 0.37619 0.97378 0.96331 0.0
O38 O 0.39003 0.00456 0.95231 0.0
C39 C 0.37522 0.03897 0.97854 0.0
C40 C 0.38968 0.98827 0.9507 0.0
O41 O 0.34162 0.97662 0.0059 0.0
Mg42 Mg 0.99796 0.6471 0.04959 0.0
O43 O 0.00672 0.63414 0.01186 0.0
O44 O 0.03059 0.63023 0.02921 0.0
Mg45 Mg 0.03783 0.64104 0.07548 0.0
C46 C 0.01908 0.62869 0.00885 0.0
C47 C 0.96312 0.65002 0.03408 0.0
O48 O 0.96117 0.64383 0.06023 0.0
O49 O 0.02455 0.6772 0.0446 0.0
O50 O 0.04778 0.67189 0.06075 0.0
O51 O 0.97809 0.61705 0.06301 0.0
O52 O 0.00821 0.6345 0.07843 0.0
C53 C 0.04219 0.68297 0.05033 0.0
C54 C 0.99244 0.61816 0.07755 0.0
O55 O 0.97822 0.65352 0.02132 0.0
Mg56 Mg 0.37389 0.35665 0.9851 0.0
O57 O 0.39562 0.37263 0.02288 0.0
O58 O 0.42293 0.37428 0.01026 0.0
Mg59 Mg 0.41923 0.35974 0.96667 0.0
C60 C 0.41326 0.37794 0.02789 0.0
C61 C 0.33571 0.35371 0.9952 0.0
O62 O 0.33851 0.35688 0.96786 0.0
O63 O 0.37039 0.32769 -0.00193 0.0
O64 O 0.39797 0.33039 0.98476 0.0
O65 O 0.38324 0.38468 0.96442 0.0
O66 O 0.39658 0.36656 0.95796 0.0
C67 C 0.38154 0.32077 0.99541 0.0
C68 C 0.39667 0.3825 0.95367 0.0
O69 O 0.34835 0.3525 0.01034 0.0
Mg70 Mg 0.64357 0.00583 0.02383 0.0
O71 O 0.62825 0.00842 0.98359 0.0
O72 O 0.59967 0.98128 0.97963 0.0
Mg73 Mg 0.59553 0.96315 0.01866 0.0
C74 C 0.61213 0.99764 0.97054 0.0
C75 C 0.68682 0.03685 0.02664 0.0
O76 O 0.68453 0.03127 0.05314 0.0
O77 O 0.64759 0.98202 0.00329 0.0
O78 O 0.61845 0.95601 0.00481 0.0
O79 O 0.63242 0.02151 0.04949 0.0
O80 O 0.61724 0.9897 0.04202 0.0
C81 C 0.63617 0.96382 -0.00037 0.0
C82 C 0.61732 0.00479 0.05254 0.0
O83 O 0.67249 0.02917 0.00908 0.0
Mg84 Mg 0.68698 0.69972 0.30666 0.0
O85 O 0.67681 0.71162 0.34372 0.0
O86 O 0.65096 0.71191 0.32596 0.0
Mg87 Mg 0.6449 0.70148 0.27927 0.0
C88 C 0.66302 0.71506 0.34642 0.0
C89 C 0.72261 0.69815 0.32203 0.0
O90 O 0.72437 0.70394 0.29565 0.0
O91 O 0.66201 0.66891 0.31296 0.0
O92 O 0.63803 0.67113 0.29205 0.0
O93 O 0.70543 0.72986 0.29156 0.0
O94 O 0.67514 0.71079 0.27812 0.0
C95 C 0.64457 0.66128 0.30408 0.0
C96 C 0.69029 0.72755 0.27796 0.0
O97 O 0.70764 0.69487 0.33494 0.0
Mg98 Mg 0.31862 0.98082 0.38362 0.0
O99 O 0.29659 0.96675 0.34596 0.0
O100 O 0.26873 0.96163 0.36227 0.0
Mg101 Mg 0.27272 0.97206 0.40912 0.0
C102 C 0.27868 0.96049 0.34234 0.0
C103 C 0.3575 0.9885 0.36967 0.0
O104 O 0.35549 0.985 0.39703 0.0
O105 O 0.31979 0.00996 0.37762 0.0
O106 O 0.29247 0.00385 0.3973 0.0
O107 O 0.31127 0.95136 0.39707 0.0
O108 O 0.29692 0.96702 0.41244 0.0
C109 C 0.30822 0.01543 0.38594 0.0
C110 C 0.29781 0.95133 0.41149 0.0
O111 O 0.34389 0.98858 0.35557 0.0
Mg112 Mg 0.02453 0.31389 0.28788 0.0
O113 O 0.04575 0.32164 0.32627 0.0
O114 O 0.07409 0.34512 0.31253 0.0
Mg115 Mg 0.07119 0.35211 0.26619 0.0
C116 C 0.06355 0.33355 0.33128 0.0
C117 C 0.99748 0.28619 0.33517 0.0
O118 O 0.01276 0.28573 0.34411 0.0
O119 O 0.02361 0.34182 0.29633 0.0
O120 O 0.05149 0.36388 0.27911 0.0
O121 O 0.03227 0.29211 0.27205 0.0
O122 O 0.04673 0.32277 0.26023 0.0
C123 C 0.03547 0.3592 0.29 0.0
C124 C 0.04587 0.30622 0.25895 0.0
O125 O 0.99848 0.29659 0.31439 0.0
Mg126 Mg 0.67161 0.98123 0.36809 0.0
O127 O 0.68023 0.96911 0.32922 0.0
O128 O 0.70608 0.96796 0.3447 0.0
Mg129 Mg 0.71343 0.97771 0.39166 0.0
C130 C 0.69364 0.96526 0.32509 0.0
C131 C 0.64189 0.9933 0.35725 0.0
O132 O 0.64575 0.99579 0.38493 0.0
O133 O 0.697 0.01188 0.36222 0.0
O134 O 0.72081 0.00868 0.38148 0.0
O135 O 0.65278 0.95107 0.38309 0.0
O136 O 0.68343 0.96916 0.39499 0.0
C137 C 0.71445 0.01906 0.37076 0.0
C138 C 0.66794 0.95272 0.39576 0.0
O139 O 0.65099 0.98747 0.34196 0.0
Mg140 Mg 0.03117 0.69504 0.29671 0.0
O141 O 0.05251 0.7101 0.33517 0.0
O142 O 0.0816 0.71944 0.31917 0.0
Mg143 Mg 0.07895 0.7095 0.27268 0.0
C144 C 0.07069 0.7185 0.33907 0.0
C145 C 0.98976 0.6777 0.31066 0.0
O146 O 0.98985 0.67725 0.28262 0.0
O147 O 0.03345 0.66783 0.30097 0.0
O148 O 0.06295 0.67764 0.28628 0.0
O149 O 0.03539 0.72358 0.28491 0.0
O150 O 0.05259 0.71107 0.26881 0.0
C151 C 0.04712 0.66468 0.29587 0.0
C152 C 0.04972 0.72558 0.27059 0.0
O153 O 0.00549 0.68381 0.32474 0.0
Mg154 Mg 0.31872 0.35866 0.38786 0.0
O155 O 0.29987 0.3546 0.34731 0.0
O156 O 0.26967 0.33403 0.35858 0.0
Mg157 Mg 0.26948 0.3225 0.40254 0.0
C158 C 0.28189 0.34539 0.34127 0.0
C159 C 0.34937 0.38708 0.34487 0.0
O160 O 0.33488 0.38787 0.33306 0.0
O161 O 0.31735 0.32987 0.37803 0.0
O162 O 0.28693 0.30854 0.3869 0.0
O163 O 0.31283 0.38142 0.40432 0.0
O164 O 0.29542 0.35023 0.41305 0.0
C165 C 0.30349 0.31249 0.37905 0.0
C166 C 0.29786 0.36746 0.41532 0.0
O167 O 0.34665 0.37595 0.36539 0.0
Mg168 Mg 0.33803 0.02127 0.63588 0.0
O169 O 0.33786 0.03753 0.67711 0.0
O170 O 0.31065 0.03863 0.67517 0.0
Mg171 Mg 0.29445 0.02502 0.63305 0.0
C172 C 0.32635 0.04236 0.68777 0.0
C173 C 0.37502 0.01832 0.63828 0.0
O174 O 0.3739 0.02179 0.61122 0.0
O175 O 0.31449 0.992 0.65127 0.0
O176 O 0.28862 0.9953 0.64721 0.0
O177 O 0.35334 0.04952 0.61452 0.0
O178 O 0.32186 0.03148 0.61539 0.0
C179 C 0.29653 0.98533 0.65326 0.0
C180 C 0.33666 0.04749 0.60898 0.0
O181 O 0.36206 0.01693 0.65461 0.0
Mg182 Mg 0.97819 0.31448 0.71363 0.0
O183 O 0.955 0.30111 0.67749 0.0
O184 O 0.92789 0.29637 0.69635 0.0
Mg185 Mg 0.93353 0.30628 0.74349 0.0
C186 C 0.9371 0.29526 0.6753 0.0
C187 C 0.01634 0.322 0.69633 0.0
O188 O 0.01481 0.3177 0.72342 0.0
O189 O 0.97946 0.34362 0.70938 0.0
O190 O 0.95307 0.33809 0.73158 0.0
O191 O 0.97091 0.2848 0.72557 0.0
O192 O 0.95741 0.30066 0.74358 0.0
C193 C 0.96841 0.34936 0.71904 0.0
C194 C 0.95801 0.28483 0.74132 0.0
O195 O 1.00253 0.32254 0.6836 0.0
Mg196 Mg 0.69656 0.65335 0.64022 0.0
O197 O 0.71673 0.65864 0.67936 0.0
O198 O 0.74581 0.6818 0.66774 0.0
Mg199 Mg 0.74432 0.69173 0.62309 0.0
C200 C 0.7346 0.66963 0.68529 0.0
C201 C 0.65572 0.62309 0.64954 0.0
O202 O 0.65768 0.62255 0.62183 0.0
O203 O 0.69614 0.68125 0.65039 0.0
O204 O 0.72548 0.70396 0.63882 0.0
O205 O 0.70373 0.63179 0.62249 0.0
O206 O 0.71927 0.66302 0.6135 0.0
C207 C 0.70894 0.69897 0.64795 0.0
C208 C 0.71779 0.64622 0.61061 0.0
O209 O 0.67003 0.63516 0.66518 0.0
Mg210 Mg 0.32115 0.30859 0.70398 0.0
O211 O 0.33217 0.29691 0.66783 0.0
O212 O 0.35649 0.29472 0.6876 0.0
Mg213 Mg 0.36129 0.30479 0.73456 0.0
C214 C 0.34538 0.29252 0.66622 0.0
C215 C 0.28615 0.31028 0.6855 0.0
O216 O 0.28344 0.30363 0.71142 0.0
O217 O 0.34697 0.33952 0.7004 0.0
O218 O 0.36968 0.33577 0.72246 0.0
O219 O 0.30183 0.27797 0.71655 0.0
O220 O 0.33117 0.29655 0.73428 0.0
C221 C 0.3641 0.34643 0.71044 0.0
C222 C 0.31596 0.27978 0.73248 0.0
O223 O 0.30174 0.31428 0.67388 0.0
Mg224 Mg 0.69838 0.01735 0.6455 0.0
O225 O 0.71464 0.0331 0.68767 0.0
O226 O 0.74336 0.03529 0.68573 0.0
Mg227 Mg 0.7467 0.02448 0.64183 0.0
C228 C 0.73116 0.03807 0.69867 0.0
C229 C 0.66619 0.02094 0.67756 0.0
O230 O 0.68083 0.03749 0.68692 0.0
O231 O 0.69523 0.98854 0.65949 0.0
O232 O 0.72415 0.99301 0.65027 0.0
O233 O 0.70825 0.04579 0.62564 0.0
O234 O 0.72444 0.03022 0.62558 0.0
C235 C 0.70687 0.9822 0.65725 0.0
C236 C 0.72363 0.04548 0.61954 0.0
O237 O 0.66904 0.00954 0.66181 0.0
Mg238 Mg 0.98026 0.68384 0.71533 0.0
O239 O 0.95971 0.67794 0.67655 0.0
O240 O 0.93048 0.65586 0.68931 0.0
Mg241 Mg 0.93226 0.64703 0.73464 0.0
C242 C 0.94175 0.66727 0.67108 0.0
C243 C 0.02246 0.70811 0.70195 0.0
O244 O 0.02295 0.70565 0.72954 0.0
O245 O 0.97954 0.65519 0.70672 0.0
O246 O 0.95003 0.63352 0.71929 0.0
O247 O 0.97389 0.70634 0.73208 0.0
O248 O 0.95803 0.67543 0.74275 0.0
C249 C 0.96632 0.63772 0.7099 0.0
C250 C 0.95991 0.69242 0.74491 0.0
O251 O 0.00633 0.70038 0.68853 0.0
H252 H 0.24974 0.35649 0.13303 0.0
H253 H 0.20171 0.33768 0.07391 0.0
H254 H 0.19493 0.34047 0.16494 0.0
H255 H 0.16663 0.31414 0.15199 0.0
H256 H 0.12059 0.31473 0.10574 0.0
H257 H 0.17724 0.34662 0.07506 0.0
C258 C 0.2348 0.35202 0.12889 0.0
C259 C 0.22307 0.3488 0.15186 0.0
C260 C 0.22723 0.3481 0.10079 0.0
C261 C 0.2076 0.34122 0.09564 0.0
C262 C 0.1956 0.33851 0.11864 0.0
C263 C 0.20366 0.34243 0.14676 0.0
C264 C 0.17465 0.33103 0.11379 0.0
C265 C 0.16165 0.31886 0.13387 0.0
C266 C 0.14219 0.31307 0.13133 0.0
C267 C 0.13548 0.31851 0.10748 0.0
C268 C 0.1479 0.33027 0.087 0.0
C269 C 0.16756 0.33678 0.09029 0.0
H270 H 0.6783 0.90848 0.1224 0.0
H271 H 0.66995 0.85841 0.07432 0.0
H272 H 0.69477 0.87049 0.16049 0.0
H273 H 0.67983 0.8383 0.16071 0.0
H274 H 0.68767 0.79703 0.11214 0.0
H275 H 0.68683 0.84343 0.06923 0.0
C276 C 0.67966 0.89564 0.12085 0.0
C277 C 0.68677 0.8905 0.14451 0.0
C278 C 0.67376 0.88424 0.09548 0.0
C279 C 0.67526 0.86746 0.09365 0.0
C280 C 0.68274 0.86205 0.11703 0.0
C281 C 0.68859 0.87391 0.14236 0.0
C282 C 0.68399 0.84388 0.11541 0.0
C283 C 0.68261 0.83365 0.14043 0.0
C284 C 0.68394 0.81677 0.13933 0.0
C285 C 0.68668 0.8101 0.11307 0.0
C286 C 0.6872 0.81929 0.08775 0.0
C287 C 0.68603 0.83627 0.08894 0.0
H288 H 0.23509 0.90834 0.13391 0.0
H289 H 0.18864 0.86349 0.08303 0.0
H290 H 0.18629 0.8649 0.17527 0.0
H291 H 0.15566 0.85376 0.16524 0.0
H292 H 0.11352 0.79978 0.12588 0.0
H293 H 0.16843 0.83074 0.08949 0.0
C294 C 0.22099 0.89551 0.13261 0.0
C295 C 0.21132 0.88794 0.15761 0.0
C296 C 0.21303 0.88655 0.10594 0.0
C297 C 0.19486 0.86986 0.10395 0.0
C298 C 0.18463 0.86196 0.12885 0.0
C299 C 0.19341 0.87091 0.15569 0.0
C300 C 0.16467 0.84493 0.12706 0.0
C301 C 0.15164 0.84292 0.14818 0.0
C302 C 0.1333 0.82662 0.14802 0.0
C303 C 0.12748 0.81277 0.12569 0.0
C304 C 0.13995 0.8142 0.1046 0.0
C305 C 0.15861 0.83022 0.10521 0.0
H306 H 0.33517 0.10032 0.88404 0.0
H307 H 0.32858 0.14321 0.93073 0.0
H308 H 0.33959 0.14914 0.84059 0.0
H309 H 0.31753 0.16002 0.8437 0.0
H310 H 0.32965 0.21362 0.88493 0.0
H311 H 0.34708 0.1773 0.92667 0.0
C312 C 0.33488 0.11377 0.88434 0.0
C313 C 0.33784 0.12387 0.85918 0.0
C314 C 0.33181 0.12074 0.91015 0.0
C315 C 0.33115 0.13799 0.91075 0.0
C316 C 0.33335 0.14812 0.88543 0.0
C317 C 0.337 0.14105 0.85985 0.0
C318 C 0.33201 0.1661 0.88556 0.0
C319 C 0.3235 0.17013 0.86191 0.0
C320 C 0.32247 0.18718 0.86178 0.0
C321 C 0.33006 0.20023 0.88525 0.0
C322 C 0.33908 0.19687 0.90847 0.0
C323 C 0.33977 0.17966 0.90887 0.0
H324 H 0.77847 0.10025 0.89981 0.0
H325 H 0.82659 0.14659 0.94532 0.0
H326 H 0.82052 0.14755 0.85342 0.0
H327 H 0.85198 0.16036 0.85591 0.0
H328 H 0.89593 0.21351 0.89499 0.0
H329 H 0.84526 0.17896 0.94049 0.0
C330 C 0.79163 0.11405 0.89933 0.0
C331 C 0.79834 0.12273 0.87325 0.0
C332 C 0.80141 0.12293 0.92517 0.0
C333 C 0.81891 0.14034 0.92514 0.0
C334 C 0.82657 0.14914 0.89913 0.0
C335 C 0.81568 0.14045 0.87341 0.0
C336 C 0.84597 0.16699 0.8985 0.0
C337 C 0.85708 0.17053 0.87405 0.0
C338 C 0.87502 0.18727 0.8727 0.0
C339 C 0.88223 0.20029 0.89616 0.0
C340 C 0.87168 0.19735 0.92054 0.0
C341 C 0.85354 0.18072 0.92184 0.0
H342 H 0.76875 0.65991 0.89757 0.0
H343 H 0.81813 0.67371 0.9509 0.0
H344 H 0.81994 0.6693 0.85886 0.0
H345 H 0.84951 0.69396 0.86866 0.0
H346 H 0.8956 0.69023 0.90896 0.0
H347 H 0.84095 0.66307 0.94685 0.0
C348 C 0.78343 0.66304 0.89963 0.0
C349 C 0.79356 0.66481 0.87511 0.0
C350 C 0.7921 0.66595 0.92682 0.0
C351 C 0.81132 0.67067 0.92977 0.0
C352 C 0.82173 0.67195 0.90528 0.0
C353 C 0.81241 0.66851 0.87803 0.0
C354 C 0.84247 0.6778 0.90756 0.0
C355 C 0.85476 0.68887 0.88597 0.0
C356 C 0.87382 0.69319 0.88602 0.0
C357 C 0.88105 0.68751 0.90897 0.0
C358 C 0.86946 0.67706 0.93111 0.0
C359 C 0.85006 0.6719 0.93027 0.0
H360 H 0.90583 0.66775 0.45551 0.0
H361 H 0.85791 0.65979 0.40335 0.0
H362 H 0.85808 0.6666 0.49519 0.0
H363 H 0.82723 0.64307 0.48587 0.0
H364 H 0.78405 0.65178 0.44581 0.0
H365 H 0.83852 0.67464 0.40797 0.0
C366 C 0.89181 0.66644 0.45384 0.0
C367 C 0.88284 0.66715 0.47857 0.0
C368 C 0.883 0.66406 0.42686 0.0
C369 C 0.86485 0.66227 0.42432 0.0
C370 C 0.85546 0.66286 0.44898 0.0
C371 C 0.86489 0.66583 0.47597 0.0
C372 C 0.83547 0.65929 0.4471 0.0
C373 C 0.82277 0.64897 0.46866 0.0
C374 C 0.8043 0.64635 0.46857 0.0
C375 C 0.79811 0.65319 0.4458 0.0
C376 C 0.8102 0.66304 0.42379 0.0
C377 C 0.829 0.66636 0.42454 0.0
H378 H 0.33311 0.23636 0.46883 0.0
H379 H 0.31792 0.18452 0.41915 0.0
H380 H 0.34451 0.19386 0.5038 0.0
H381 H 0.32277 0.16158 0.50416 0.0
H382 H 0.32554 0.11647 0.4575 0.0
H383 H 0.33498 0.16712 0.41406 0.0
C384 C 0.33307 0.22277 0.46645 0.0
C385 C 0.33972 0.21643 0.48917 0.0
C386 C 0.3252 0.2114 0.44131 0.0
C387 C 0.32454 0.1935 0.43832 0.0
C388 C 0.33133 0.18677 0.46095 0.0
C389 C 0.33907 0.19856 0.48621 0.0
C390 C 0.32928 0.16705 0.45932 0.0
C391 C 0.32511 0.15609 0.48424 0.0
C392 C 0.32362 0.13782 0.48361 0.0
C393 C 0.32618 0.1304 0.45797 0.0
C394 C 0.33014 0.1407 0.43296 0.0
C395 C 0.33161 0.15904 0.43342 0.0
H396 H 0.89587 0.241 0.47395 0.0
H397 H 0.85904 0.19004 0.42199 0.0
H398 H 0.84427 0.19653 0.50794 0.0
H399 H 0.83551 0.16416 0.50584 0.0
H400 H 0.78631 0.12029 0.45855 0.0
H401 H 0.82507 0.1723 0.41745 0.0
C402 C 0.88258 0.22737 0.47088 0.0
C403 C 0.87043 0.22008 0.49369 0.0
C404 C 0.8785 0.21683 0.44483 0.0
C405 C 0.86194 0.19846 0.44179 0.0
C406 C 0.84944 0.1908 0.46454 0.0
C407 C 0.85378 0.20193 0.49032 0.0
C408 C 0.83228 0.17097 0.46213 0.0
C409 C 0.82682 0.15921 0.4862 0.0
C410 C 0.81034 0.14087 0.48499 0.0
C411 C 0.79931 0.1343 0.45953 0.0
C412 C 0.80459 0.14535 0.43515 0.0
C413 C 0.82118 0.16368 0.43629 0.0
H414 H 0.01116 0.43736 0.21967 0.0
H415 H 0.00706 0.48087 0.269 0.0
H416 H 0.01682 0.48742 0.1785 0.0
H417 H 0.99308 0.49679 0.18479 0.0
H418 H 0.00739 0.55147 0.22462 0.0
H419 H 0.0278 0.51663 0.26337 0.0
C420 C 0.01166 0.4512 0.22071 0.0
C421 C 0.0147 0.46167 0.19595 0.0
C422 C 0.00913 0.45805 0.24699 0.0
C423 C 0.00926 0.47571 0.24867 0.0
C424 C 0.01146 0.4862 0.22373 0.0
C425 C 0.01446 0.47916 0.19755 0.0
C426 C 0.01008 0.50414 0.22454 0.0
C427 C 0.99999 0.50738 0.20227 0.0
C428 C 0.99875 0.5243 0.20247 0.0
C429 C 0.00767 0.538 0.22491 0.0
C430 C 0.01826 0.53546 0.24662 0.0
C431 C 0.01929 0.5184 0.24678 0.0
H432 H 0.45499 0.43912 0.22814 0.0
H433 H 0.49338 0.49125 0.27654 0.0
H434 H 0.50469 0.48295 0.18916 0.0
H435 H 0.51333 0.51533 0.1905 0.0
H436 H 0.56564 0.55879 0.23184 0.0
H437 H 0.52776 0.50875 0.27759 0.0
C438 C 0.46826 0.45288 0.22983 0.0
C439 C 0.4793 0.45972 0.20584 0.0
C440 C 0.47338 0.46392 0.2555 0.0
C441 C 0.48979 0.48243 0.25701 0.0
C442 C 0.50126 0.4896 0.23303 0.0
C443 C 0.49593 0.47793 0.20765 0.0
C444 C 0.51854 0.50933 0.23375 0.0
C445 C 0.52304 0.5205 0.20908 0.0
C446 C 0.53995 0.53841 0.20824 0.0
C447 C 0.55227 0.5452 0.23242 0.0
C448 C 0.54786 0.53485 0.25748 0.0
C449 C 0.53091 0.51691 0.25831 0.0
H450 H 0.44896 0.01217 0.23021 0.0
H451 H 0.48556 0.99673 0.27623 0.0
H452 H 0.49599 0.01355 0.18829 0.0
H453 H 0.50443 0.99127 0.18682 0.0
H454 H 0.55406 0.99445 0.22696 0.0
H455 H 0.51797 0.00751 0.27679 0.0
C456 C 0.46154 0.01061 0.2308 0.0
C457 C 0.47163 0.01298 0.20602 0.0
C458 C 0.46684 0.00528 0.25616 0.0
C459 C 0.48222 1.00173 0.2568 0.0
C460 C 0.49291 0.00438 0.23219 0.0
C461 C 0.48768 0.01058 0.20719 0.0
C462 C 0.50916 1.00033 0.23177 0.0
C463 C 0.51355 0.99439 0.20578 0.0
C464 C 0.52985 0.9926 0.20366 0.0
C465 C 0.54119 0.99543 0.22827 0.0
C466 C 0.53666 1.00021 0.25463 0.0
C467 C 0.5208 0.00294 0.25648 0.0
H468 H 0.57281 0.01499 0.77881 0.0
H469 H 0.5229 1.00072 0.72709 0.0
H470 H 0.52839 0.02219 0.81455 0.0
H471 H 0.49762 1.00006 0.81348 0.0
H472 H 0.4496 0.99473 0.76484 0.0
H473 H 0.50261 0.0137 0.72406 0.0
C474 C 0.5592 0.01452 0.77653 0.0
C475 C 0.55179 0.0193 0.79994 0.0
C476 C 0.54908 0.00825 0.75029 0.0
C477 C 0.53091 0.00639 0.74719 0.0
C478 C 0.52288 0.01089 0.7706 0.0
C479 C 0.53384 0.01795 0.7966 0.0
C480 C 0.50268 0.00694 0.76882 0.0
C481 C 0.49155 1.0013 0.79338 0.0
C482 C 0.47264 0.99758 0.79244 0.0
C483 C 0.46439 0.99818 0.76617 0.0
C484 C 0.47508 0.00402 0.74166 0.0
C485 C 0.4943 0.00866 0.74298 0.0
H486 H 0.99856 0.56792 0.81116 0.0
H487 H 0.98881 0.51744 0.76292 0.0
H488 H 0.02033 0.53322 0.8447 0.0
H489 H 0.01034 0.50285 0.8473 0.0
H490 H 0.01292 0.4593 0.79673 0.0
H491 H 1.00319 0.50084 0.75475 0.0
C492 C 1.00045 0.55542 0.80889 0.0
C493 C 0.00974 0.55146 0.83088 0.0
C494 C 0.99311 0.54333 0.78434 0.0
C495 C 0.99521 0.52692 0.78163 0.0
C496 C 0.00484 0.5226 0.80346 0.0
C497 C 0.01229 0.53538 0.82787 0.0
C498 C 0.00693 0.50484 0.80128 0.0
C499 C 0.01019 0.49695 0.82628 0.0
C500 C 0.01325 0.48115 0.82453 0.0
C501 C 0.01179 0.4723 0.79792 0.0
C502 C 0.00792 0.47915 0.77294 0.0
C503 C 0.00568 0.49551 0.77448 0.0
H504 H 0.55675 0.57185 0.78177 0.0
H505 H 0.51813 0.51827 0.73702 0.0
H506 H 0.50881 0.52813 0.82474 0.0
H507 H 0.5013 0.4959 0.82417 0.0
H508 H 0.44996 0.44923 0.78511 0.0
H509 H 0.48348 0.50012 0.73793 0.0
C510 C 0.54367 0.55791 0.78138 0.0
C511 C 0.53344 0.55144 0.80627 0.0
C512 C 0.53809 0.54617 0.7564 0.0
C513 C 0.52194 0.52755 0.75611 0.0
C514 C 0.51114 0.52078 0.78072 0.0
C515 C 0.51699 0.53298 0.80566 0.0
C516 C 0.49441 0.5007 0.78114 0.0
C517 C 0.49127 0.48993 0.80599 0.0
C518 C 0.47539 0.47132 0.80747 0.0
C519 C 0.4626 0.46342 0.78391 0.0
C520 C 0.46545 0.47353 0.75884 0.0
C521 C 0.48145 0.49219 0.75725 0.0
H522 H 0.67462 0.76885 0.54582 0.0
H523 H 0.68411 0.81814 0.59744 0.0
H524 H 0.65767 0.80772 0.51246 0.0
H525 H 0.67487 0.84044 0.51357 0.0
H526 H 0.66489 0.87969 0.56373 0.0
H527 H 0.66548 0.83227 0.60411 0.0
C528 C 0.67327 0.78165 0.54865 0.0
C529 C 0.6656 0.78718 0.52622 0.0
C530 C 0.67997 0.7927 0.57428 0.0
C531 C 0.67847 0.80943 0.57783 0.0
C532 C 0.67058 0.81528 0.55548 0.0
C533 C 0.66407 0.80384 0.5298 0.0
C534 C 0.66956 0.8335 0.55826 0.0
C535 C 0.67154 0.8445 0.5339 0.0
C536 C 0.66992 0.8612 0.53575 0.0
C537 C 0.66627 0.86687 0.56216 0.0
C538 C 0.66505 0.85681 0.58688 0.0
C539 C 0.66671 0.84011 0.58495 0.0
H540 H 0.11124 0.76329 0.55144 0.0
H541 H 0.15703 0.8076 0.60376 0.0
H542 H 0.15812 0.81003 0.51147 0.0
H543 H 0.18906 0.82473 0.51896 0.0
H544 H 0.22884 0.87735 0.56417 0.0
H545 H 0.17565 0.83973 0.60152 0.0
C546 C 0.12506 0.77647 0.5532 0.0
C547 C 0.1342 0.7854 0.52843 0.0
C548 C 0.13306 0.78466 0.58023 0.0
C549 C 0.15079 0.80188 0.58262 0.0
C550 C 0.16045 0.81125 0.55794 0.0
C551 C 0.15159 0.80299 0.53088 0.0
C552 C 0.1797 0.8294 0.56019 0.0
C553 C 0.19254 0.83424 0.53765 0.0
C554 C 0.21017 0.85155 0.53888 0.0
C555 C 0.21542 0.8637 0.56327 0.0
C556 C 0.20317 0.85936 0.58585 0.0
C557 C 0.18527 0.84234 0.58436 0.0
H558 H 0.0982 0.32773 0.54407 0.0
H559 H 0.1463 0.34057 0.59983 0.0
H560 H 0.1512 0.34013 0.50813 0.0
H561 H 0.18036 0.36562 0.52194 0.0
H562 H 0.22562 0.36124 0.56401 0.0
H563 H 0.16901 0.32948 0.59487 0.0
C564 C 0.11295 0.33117 0.54688 0.0
C565 C 0.12393 0.33411 0.52294 0.0
C566 C 0.12085 0.33322 0.57448 0.0
C567 C 0.1401 0.3383 0.57836 0.0
C568 C 0.15134 0.3408 0.55451 0.0
C569 C 0.1429 0.3383 0.52681 0.0
C570 C 0.17204 0.34697 0.55821 0.0
C571 C 0.18513 0.35979 0.53885 0.0
C572 C 0.20442 0.36489 0.54061 0.0
C573 C 0.21088 0.35797 0.56296 0.0
C574 C 0.19833 0.34548 0.5827 0.0
C575 C 0.17882 0.33974 0.58018 0.0
C576 C 0.02341 0.40943 0.05195 0.0
C577 C 0.00659 0.39139 0.05002 0.0
C578 C 0.02673 0.42275 0.07448 0.0
C579 C 0.01313 0.41758 0.09593 0.0
C580 C 0.99644 0.39903 0.09451 0.0
C581 C 0.99318 0.3863 0.07118 0.0
C582 C 0.04435 0.4426 0.07472 0.0
C583 C 0.98189 0.39274 0.11742 0.0
C584 C 0.02714 0.44314 0.16884 0.0
C585 C 0.01722 0.45344 0.16864 0.0
C586 C 0.0264 0.43183 0.14506 0.0
C587 C 0.0162 0.43147 0.11991 0.0
C588 C 0.00764 0.44323 0.11862 0.0
C589 C 0.00803 0.45389 0.14314 0.0
C590 C 0.03545 0.41928 0.14756 0.0
C591 C 0.99721 0.44375 0.0918 0.0
H592 H 0.03352 0.41344 0.03507 0.0
H593 H 0.98009 0.37239 0.06935 0.0
H594 H 0.04007 0.45379 0.07322 0.0
H595 H 0.05276 0.44555 0.0951 0.0
H596 H 0.05369 0.44419 0.05676 0.0
H597 H 0.97035 0.37741 0.11407 0.0
H598 H 0.98898 0.39446 0.13872 0.0
H599 H 0.97532 0.40205 0.11771 0.0
H600 H 0.03483 0.4432 0.18816 0.0
H601 H 1.00033 0.46178 0.14268 0.0
H602 H 0.04509 0.42176 0.12973 0.0
H603 H 0.02413 0.40379 0.14606 0.0
H604 H 0.04373 0.42203 0.16808 0.0
H605 H 0.0059 0.44565 0.07288 0.0
H606 H 0.9938 0.45562 0.09291 0.0
H607 H 0.98365 0.42979 0.08851 0.0
C608 C 0.60805 0.59977 0.09211 0.0
C609 C 0.603 0.61068 0.07473 0.0
C610 C 0.59511 0.58674 0.11112 0.0
C611 C 0.57647 0.58414 0.11204 0.0
C612 C 0.5709 0.59421 0.09312 0.0
C613 C 0.58437 0.60765 0.07499 0.0
C614 C 0.60177 0.57661 0.13134 0.0
C615 C 0.55095 0.59126 0.0927 0.0
C616 C 0.54367 0.54096 0.15511 0.0
C617 C 0.54565 0.54993 0.18205 0.0
C618 C 0.5524 0.55203 0.13132 0.0
C619 C 0.5637 0.57244 0.13483 0.0
C620 C 0.56459 0.58159 0.16147 0.0
C621 C 0.55523 0.57023 0.18455 0.0
C622 C 0.55052 0.54181 0.10296 0.0
C623 C 0.57666 0.60329 0.16631 0.0
H624 H 0.62248 0.60215 0.09191 0.0
H625 H 0.58034 0.61581 0.06109 0.0
H626 H 0.60146 0.58129 0.1537 0.0
H627 H 0.59202 0.56071 0.12945 0.0
H628 H 0.61651 0.57974 0.12725 0.0
H629 H 0.54805 0.59782 0.07392 0.0
H630 H 0.5402 0.57558 0.09242 0.0
H631 H 0.54901 0.59799 0.11235 0.0
H632 H 0.53625 0.52529 0.15291 0.0
H633 H 0.5563 0.57729 0.20508 0.0
H634 H 0.56386 0.54149 0.09922 0.0
H635 H 0.5484 0.54964 0.08523 0.0
H636 H 0.53843 0.52664 0.10227 0.0
H637 H 0.59196 0.60778 0.16432 0.0
H638 H 0.57483 0.6082 0.18776 0.0
H639 H 0.57301 0.61087 0.1499 0.0
C640 C 0.40631 0.00567 0.07194 0.0
C641 C 0.41609 0.01859 0.05044 0.0
C642 C 0.41583 0.0059 0.09755 0.0
C643 C 0.4356 0.01933 0.10175 0.0
C644 C 0.44545 0.03271 0.08049 0.0
C645 C 0.43559 0.03221 0.05515 0.0
C646 C 0.40481 0.99147 0.11987 0.0
C647 C 0.46654 0.04724 0.08418 0.0
C648 C 0.45676 0.02879 0.17761 0.0
C649 C 0.46431 0.01632 0.17855 0.0
C650 C 0.44764 0.03016 0.15264 0.0
C651 C 0.44613 0.01889 0.12795 0.0
C652 C 0.45434 0.00682 0.12842 0.0
C653 C 0.46329 0.00565 0.15372 0.0
C654 C 0.43916 0.04328 0.1529 0.0
C655 C 0.45314 0.99467 0.10246 0.0
H656 H 0.39126 0.99514 0.0686 0.0
H657 H 0.44334 0.04231 0.03877 0.0
H658 H 0.41067 0.98164 0.12294 0.0
H659 H 0.40644 0.99912 0.14069 0.0
H660 H 0.38934 0.98257 0.1139 0.0
H661 H 0.4719 0.05725 0.0662 0.0
H662 H 0.46948 0.05593 0.10437 0.0
H663 H 0.47475 0.03953 0.08565 0.0
H664 H 0.45772 0.03726 0.19661 0.0
H665 H 0.46884 0.99578 0.15435 0.0
H666 H 0.42344 0.03451 0.14915 0.0
H667 H 0.44485 0.05358 0.13537 0.0
H668 H 0.44221 0.05166 0.17347 0.0
H669 H 0.43797 0.98394 0.09692 0.0
H670 H 0.46105 0.98677 0.10592 0.0
H671 H 0.459 0.00395 0.08383 0.0
C672 C 0.39777 0.9704 0.9149 0.0
C673 C 0.4038 0.98623 0.9341 0.0
C674 C 0.41013 0.97027 0.89449 0.0
C675 C 0.42904 0.98613 0.89396 0.0
C676 C 0.4357 1.00114 0.91531 0.0
C677 C 0.42287 1.00118 0.93486 0.0
C678 C 0.40234 0.95418 0.87179 0.0
C679 C 0.45593 0.01796 0.91611 0.0
C680 C 0.46314 0.98378 0.84139 0.0
C681 C 0.46173 0.99445 0.81891 0.0
C682 C 0.45282 0.98111 0.86628 0.0
C683 C 0.44049 0.98887 0.86835 0.0
C684 C 0.43902 0.9996 0.84575 0.0
C685 C 0.4499 0.00256 0.8217 0.0
C686 C 0.45513 0.97006 0.89034 0.0
C687 C 0.42592 0.00802 0.8469 0.0
H688 H 0.38297 0.95886 0.91437 0.0
H689 H 0.4276 0.01322 0.95017 0.0
H690 H 0.40008 0.95973 0.8514 0.0
H691 H 0.41263 0.9491 0.86798 0.0
H692 H 0.38849 0.94163 0.8776 0.0
H693 H 0.45987 0.02621 0.93693 0.0
H694 H 0.4662 0.01287 0.91216 0.0
H695 H 0.4574 0.028 0.89903 0.0
H696 H 0.47216 0.97738 0.83949 0.0
H697 H 0.44918 0.01143 0.80504 0.0
H698 H 0.44132 0.95675 0.89372 0.0
H699 H 0.4593 0.97898 0.91053 0.0
H700 H 0.46606 0.96586 0.88607 0.0
H701 H 0.41114 0.99648 0.85098 0.0
H702 H 0.42562 0.01502 0.82678 0.0
H703 H 0.43065 0.019 0.86472 0.0
C704 C 1.00429 0.39778 0.91345 0.0
C705 C 0.01745 0.40131 0.93593 0.0
C706 C 1.00436 0.41315 0.89934 0.0
C707 C 0.01746 0.43248 0.90871 0.0
C708 C 0.03 0.43607 0.9326 0.0
C709 C 0.03012 0.4204 0.9456 0.0
C710 C 0.99108 0.40868 0.87349 0.0
C711 C 0.04363 0.45642 0.9439 0.0
C712 C 0.03114 0.4672 0.84868 0.0
C713 C 0.01728 0.47285 0.85007 0.0
C714 C 0.03211 0.45494 0.86871 0.0
C715 C 0.01933 0.4487 0.89135 0.0
C716 C 0.00675 0.45609 0.8947 0.0
C717 C 0.00571 0.46796 0.87377 0.0
C718 C 0.0456 0.44728 0.86405 0.0
C719 C 0.99346 0.45037 0.91923 0.0
H720 H 0.99448 0.38299 0.90605 0.0
H721 H 0.04008 0.42308 0.96337 0.0
H722 H 0.9822 0.41555 0.87629 0.0
H723 H 0.99957 0.41477 0.85428 0.0
H724 H 0.98145 0.39286 0.86945 0.0
H725 H 0.04994 0.45657 0.9653 0.0
H726 H 0.05543 0.4638 0.92903 0.0
H727 H 0.03624 0.46495 0.94536 0.0
H728 H 0.04041 0.47134 0.83069 0.0
H729 H 0.99504 0.47236 0.87503 0.0
H730 H 0.03723 0.43155 0.85832 0.0
H731 H 0.05414 0.44903 0.8839 0.0
H732 H 0.05556 0.45469 0.84669 0.0
H733 H 0.98128 0.43549 0.91497 0.0
H734 H 0.98767 0.4603 0.92219 0.0
H735 H 1.0009 0.45031 0.93941 0.0
C736 C 0.60146 0.61814 0.9358 0.0
C737 C 0.59222 0.62319 0.95638 0.0
C738 C 0.59137 0.60664 0.91137 0.0
C739 C 0.57157 0.59995 0.90749 0.0
C740 C 0.56224 0.60523 0.92794 0.0
C741 C 0.57266 0.6168 0.95201 0.0
C742 C 0.60185 0.60145 0.88987 0.0
C743 C 0.54115 0.59837 0.92464 0.0
C744 C 0.54908 0.58375 0.8326 0.0
C745 C 0.54111 0.56357 0.83315 0.0
C746 C 0.55885 0.59574 0.85669 0.0
C747 C 0.56055 0.58735 0.88212 0.0
C748 C 0.55187 0.56693 0.88321 0.0
C749 C 0.54229 0.55529 0.85869 0.0
C750 C 0.5678 0.61742 0.85468 0.0
C751 C 0.5532 0.55742 0.91002 0.0
H752 H 0.61653 0.62296 0.93891 0.0
H753 H 0.56529 0.62053 0.96771 0.0
H754 H 0.59556 0.5855 0.88825 0.0
H755 H 0.60022 0.60622 0.86842 0.0
H756 H 0.61733 0.60817 0.89563 0.0
H757 H 0.53609 0.604 0.94223 0.0
H758 H 0.538 0.60302 0.90406 0.0
H759 H 0.53283 0.5823 0.92422 0.0
H760 H 0.54802 0.59024 0.81304 0.0
H761 H 0.53638 0.53975 0.85922 0.0
H762 H 0.58352 0.62443 0.85823 0.0
H763 H 0.56246 0.62322 0.8716 0.0
H764 H 0.56475 0.62161 0.83359 0.0
H765 H 0.56836 0.562 0.91525 0.0
H766 H 0.54491 0.54136 0.90781 0.0
H767 H 0.54785 0.56213 0.92832 0.0
C768 C 0.00456 0.61235 0.96104 0.0
C769 C 0.01966 0.61926 0.98154 0.0
C770 C 1.00433 0.60182 0.93645 0.0
C771 C 0.01961 0.59825 0.93218 0.0
C772 C 0.03516 0.6057 0.95233 0.0
C773 C 0.03497 0.61605 0.97674 0.0
C774 C 0.98749 0.59411 0.91537 0.0
C775 C 0.05181 0.60239 0.94839 0.0
C776 C 0.00875 0.55482 0.88382 0.0
C777 C 0.01528 0.56355 0.85769 0.0
C778 C 0.01053 0.56601 0.90847 0.0
C779 C 0.01914 0.58639 0.9069 0.0
C780 C 0.0267 0.59535 0.88091 0.0
C781 C 0.02465 0.58381 0.8566 0.0
C782 C 1.00236 0.55593 0.93584 0.0
C783 C 0.03622 0.61704 0.87846 0.0
H784 H 0.99265 0.61469 0.96458 0.0
H785 H 0.04681 0.62144 0.99231 0.0
H786 H 0.99248 0.59933 0.89375 0.0
H787 H 0.98013 0.57805 0.91398 0.0
H788 H 0.977 0.59856 0.9214 0.0
H789 H 0.06319 0.60988 0.9654 0.0
H790 H 0.04678 0.58665 0.94854 0.0
H791 H 0.05811 0.60757 0.92738 0.0
H792 H 1.00131 0.53915 0.88463 0.0
H793 H 0.02979 0.59058 0.83641 0.0
H794 H 0.99027 0.55802 0.9417 0.0
H795 H 0.0133 0.56236 0.95358 0.0
H796 H 0.99713 0.54014 0.93395 0.0
H797 H 0.02558 0.62177 0.88154 0.0
H798 H 0.0426 0.62183 0.85734 0.0
H799 H 0.04761 0.62449 0.89541 0.0
C800 C 0.4306 0.402 0.93987 0.0
C801 C 0.41162 0.39786 0.93726 0.0
C802 C 0.44464 0.41581 0.92282 0.0
C803 C 0.43932 0.4251 0.90214 0.0
C804 C 0.42023 0.42134 0.9001 0.0
C805 C 0.40668 0.40798 0.91807 0.0
C806 C 0.46498 0.42001 0.92635 0.0
C807 C 0.41387 0.43067 0.87793 0.0
C808 C 0.47157 0.469 0.86041 0.0
C809 C 0.47095 0.46018 0.83391 0.0
C810 C 0.46285 0.45773 0.884 0.0
C811 C 0.45297 0.43727 0.88062 0.0
C812 C 0.45387 0.42842 0.85468 0.0
C813 C 0.46318 0.44003 0.83183 0.0
C814 C 0.46285 0.46769 0.91173 0.0
C815 C 0.44337 0.40666 0.85001 0.0
H816 H 0.43449 0.3945 0.95526 0.0
H817 H 0.39197 0.40474 0.91616 0.0
H818 H 0.46842 0.4135 0.90794 0.0
H819 H 0.47509 0.43586 0.92672 0.0
H820 H 0.46735 0.41404 0.94625 0.0
H821 H 0.39862 0.42649 0.87962 0.0
H822 H 0.4227 0.44667 0.8802 0.0
H823 H 0.41591 0.42634 0.85622 0.0
H824 H 0.47766 0.48458 0.86223 0.0
H825 H 0.46316 0.4332 0.81156 0.0
H826 H 0.46464 0.46022 0.93027 0.0
H827 H 0.44896 0.46719 0.91349 0.0
H828 H 0.47439 0.48312 0.91295 0.0
H829 H 0.44673 0.39974 0.86777 0.0
H830 H 0.44696 0.40212 0.82958 0.0
H831 H 0.42774 0.40107 0.84958 0.0
C832 C 0.60786 0.02303 0.9472 0.0
C833 C 0.6067 0.00491 0.94552 0.0
C834 C 0.59987 0.02885 0.92527 0.0
C835 C 0.5911 0.01644 0.90084 0.0
C836 C 0.5908 0.99854 0.89854 0.0
C837 C 0.59827 0.99282 0.9212 0.0
C838 C 0.59992 0.04772 0.92893 0.0
C839 C 0.58216 0.98516 0.87243 0.0
C840 C 0.55193 0.01449 0.85267 0.0
C841 C 0.56204 0.02328 0.82831 0.0
C842 C 0.5615 0.01379 0.87763 0.0
C843 C 0.58156 0.0216 0.87792 0.0
C844 C 0.59198 0.032 0.85438 0.0
C845 C 0.58212 0.03307 0.83011 0.0
C846 C 0.54994 0.00326 0.90279 0.0
C847 C 0.61334 0.04036 0.85361 0.0
H848 H 0.61409 0.03219 0.96636 0.0
H849 H 0.59736 0.97878 0.92008 0.0
H850 H 0.60518 0.05642 0.90963 0.0
H851 H 0.58508 0.04465 0.93171 0.0
H852 H 0.6089 0.05653 0.94778 0.0
H853 H 0.58458 0.97263 0.87296 0.0
H854 H 0.56653 0.97956 0.87092 0.0
H855 H 0.58831 0.99319 0.8528 0.0
H856 H 0.53645 0.00692 0.85167 0.0
H857 H 0.59011 0.04045 0.81171 0.0
H858 H 0.5571 0.01132 0.92311 0.0
H859 H 0.54873 0.98879 0.90361 0.0
H860 H 0.53529 1.00119 0.9013 0.0
H861 H 0.62053 0.04838 0.87392 0.0
H862 H 0.61961 0.05026 0.83567 0.0
H863 H 0.61646 0.02837 0.85099 0.0
C864 C 0.60476 0.0158 0.09202 0.0
C865 C 0.60121 0.00296 0.06885 0.0
C866 C 0.59024 0.01272 0.11053 0.0
C867 C 0.57162 0.99671 0.10517 0.0
C868 C 0.56764 0.98451 0.08058 0.0
C869 C 0.5826 0.98761 0.0629 0.0
C870 C 0.59514 0.02594 0.13674 0.0
C871 C 0.54781 0.96776 0.07359 0.0
C872 C 0.54544 0.97872 0.17328 0.0
C873 C 0.5364 0.98977 0.17555 0.0
C874 C 0.55601 0.97985 0.14945 0.0
C875 C 0.55703 0.99187 0.12695 0.0
C876 C 0.54615 1.00129 0.12762 0.0
C877 C 0.53611 1.00033 0.15211 0.0
C878 C 0.56745 0.96959 0.14963 0.0
C879 C 0.54632 0.01364 0.10352 0.0
H880 H 0.61917 0.02765 0.09663 0.0
H881 H 0.57976 0.97791 0.04462 0.0
H882 H 0.58549 0.03206 0.13763 0.0
H883 H 0.59304 0.01753 0.15624 0.0
H884 H 0.61014 0.0381 0.13724 0.0
H885 H 0.5464 0.96188 0.0514 0.0
H886 H 0.54454 0.95595 0.08846 0.0
H887 H 0.53697 0.97226 0.07632 0.0
H888 H 0.54523 0.97007 0.19098 0.0
H889 H 0.52914 0.0089 0.15358 0.0
H890 H 0.58291 0.98046 0.15183 0.0
H891 H 0.56507 0.96128 0.12922 0.0
H892 H 0.56377 0.9595 0.16747 0.0
H893 H 0.55982 0.02777 0.10499 0.0
H894 H 0.5342 0.01646 0.1044 0.0
H895 H 0.54564 0.00661 0.0825 0.0
C896 C 0.00485 0.60354 0.11247 0.0
C897 C 0.99104 0.60109 0.09163 0.0
C898 C 1.00335 0.5877 0.1271 0.0
C899 C 0.98778 0.56887 0.12042 0.0
C900 C 0.97408 0.5662 0.09878 0.0
C901 C 0.97578 0.58239 0.08479 0.0
C902 C 0.01817 0.59124 0.15031 0.0
C903 C 0.95748 0.54633 0.0908 0.0
C904 C 0.998 0.53133 0.15103 0.0
C905 C 0.99043 0.52954 0.1781 0.0
C906 C 0.9956 0.54265 0.13053 0.0
C907 C 0.98553 0.55239 0.13753 0.0
C908 C 0.97604 0.54873 0.16361 0.0
C909 C 0.97852 0.53723 0.18352 0.0
C910 C 0.00555 0.5458 0.10268 0.0
C911 C 0.96512 0.55875 0.17199 0.0
H912 H 0.01662 0.61794 0.11793 0.0
H913 H 0.96512 0.5804 0.06853 0.0
H914 H 0.01124 0.58681 0.17112 0.0
H915 H 0.0249 0.58234 0.14575 0.0
H916 H 0.02959 0.60669 0.15246 0.0
H917 H 0.94908 0.54647 0.07178 0.0
H918 H 0.96267 0.53606 0.08634 0.0
H919 H 0.94784 0.54073 0.10894 0.0
H920 H 0.00727 0.52544 0.14682 0.0
H921 H 0.97257 0.53572 0.20444 0.0
H922 H 0.01895 0.56004 0.1039 0.0
H923 H 0.99649 0.54602 0.0847 0.0
H924 H 0.00927 0.53439 0.09799 0.0
H925 H 0.97539 0.57417 0.17785 0.0
H926 H 0.95611 0.55202 0.19055 0.0
H927 H 0.95586 0.55843 0.1539 0.0
C928 C 0.44304 0.3966 0.0586 0.0
C929 C 0.42335 0.38954 0.05428 0.0
C930 C 0.45317 0.40827 0.08268 0.0
C931 C 0.4434 0.41295 0.1031 0.0
C932 C 0.42353 0.40578 0.09911 0.0
C933 C 0.41372 0.39417 0.0747 0.0
C934 C 0.47436 0.41566 0.08619 0.0
C935 C 0.41264 0.41043 0.1206 0.0
C936 C 0.4648 0.42803 0.17844 0.0
C937 C 0.47239 0.44816 0.17857 0.0
C938 C 0.45556 0.41643 0.15389 0.0
C939 C 0.45398 0.42519 0.12881 0.0
C940 C 0.46232 0.44559 0.12843 0.0
C941 C 0.47143 0.45685 0.15337 0.0
C942 C 0.44698 0.39474 0.15505 0.0
C943 C 0.46105 0.45544 0.10197 0.0
H944 H 0.45069 0.39319 0.04298 0.0
H945 H 0.39854 0.38882 0.07157 0.0
H946 H 0.48232 0.43173 0.08748 0.0
H947 H 0.47751 0.41066 0.10645 0.0
H948 H 0.47984 0.41072 0.06829 0.0
H949 H 0.39722 0.40369 0.11441 0.0
H950 H 0.41402 0.40527 0.14186 0.0
H951 H 0.4188 0.42635 0.1229 0.0
H952 H 0.46571 0.4213 0.19783 0.0
H953 H 0.47709 0.47238 0.15349 0.0
H954 H 0.45266 0.38944 0.13793 0.0
H955 H 0.43127 0.38749 0.15125 0.0
H956 H 0.45 0.39028 0.17595 0.0
H957 H 0.46669 0.45119 0.08354 0.0
H958 H 0.46911 0.47149 0.10476 0.0
H959 H 0.44587 0.45071 0.09654 0.0
C960 C 0.64609 0.72759 0.37655 0.0
C961 C 0.6614 0.72415 0.3734 0.0
C962 C 0.64494 0.73747 0.40085 0.0
C963 C 0.65945 0.74408 0.42262 0.0
C964 C 0.67473 0.74032 0.41995 0.0
C965 C 0.67553 0.73039 0.39538 0.0
C966 C 0.62838 0.74111 0.40299 0.0
C967 C 0.69044 0.7471 0.44286 0.0
C968 C 0.66892 0.78592 0.47347 0.0
C969 C 0.66094 0.77621 0.49847 0.0
C970 C 0.66796 0.77559 0.44826 0.0
C971 C 0.65877 0.7551 0.44813 0.0
C972 C 0.64972 0.7452 0.47285 0.0
C973 C 0.65091 0.75589 0.49772 0.0
C974 C 0.67767 0.78665 0.42224 0.0
C975 C 0.63959 0.72337 0.47348 0.0
H976 H 0.63503 0.72281 0.35979 0.0
H977 H 0.68742 0.72784 0.39319 0.0
H978 H 0.6208 0.73517 0.42295 0.0
H979 H 0.63375 0.75693 0.40398 0.0
H980 H 0.61796 0.7345 0.38458 0.0
H981 H 0.70112 0.7427 0.43782 0.0
H982 H 0.6979 0.76312 0.4455 0.0
H983 H 0.68425 0.7411 0.46364 0.0
H984 H 0.67685 0.80163 0.47407 0.0
H985 H 0.6446 0.74836 0.51701 0.0
H986 H 0.6677 0.78093 0.40325 0.0
H987 H 0.69002 0.7847 0.41769 0.0
H988 H 0.68288 0.8024 0.42512 0.0
H989 H 0.63199 0.71786 0.4936 0.0
H990 H 0.65013 0.71842 0.47138 0.0
H991 H 0.62912 0.71679 0.45519 0.0
C992 C 0.27266 0.9351 0.4471 0.0
C993 C 0.28366 0.93372 0.42554 0.0
C994 C 0.26012 0.91878 0.46204 0.0
C995 C 0.25825 0.90053 0.45486 0.0
C996 C 0.26874 0.89889 0.43232 0.0
C997 C 0.2815 0.91557 0.41812 0.0
C998 C 0.24935 0.92121 0.48619 0.0
C999 C 0.2668 0.87963 0.42366 0.0
C1000 C 0.2423 0.86804 0.51778 0.0
C1001 C 0.22237 0.85876 0.5138 0.0
C1002 C 0.25434 0.88062 0.49753 0.0
C1003 C 0.24623 0.88364 0.47244 0.0
C1004 C 0.22625 0.87247 0.46673 0.0
C1005 C 0.21449 0.86019 0.48761 0.0
C1006 C 0.27556 0.89219 0.50453 0.0
C1007 C 0.2171 0.87487 0.43985 0.0
H1008 H 0.27431 0.9491 0.45294 0.0
H1009 H 0.28985 0.91439 0.40125 0.0
H1010 H 0.23376 0.91136 0.48245 0.0
H1011 H 0.25355 0.91724 0.50657 0.0
H1012 H 0.25212 0.93629 0.48867 0.0
H1013 H 0.27431 0.88042 0.40375 0.0
H1014 H 0.27286 0.87478 0.44096 0.0
H1015 H 0.2515 0.86845 0.4204 0.0
H1016 H 0.24842 0.86672 0.53788 0.0
H1017 H 0.19909 0.85305 0.48441 0.0
H1018 H 0.27964 0.90739 0.51019 0.0
H1019 H 0.28378 0.89245 0.48578 0.0
H1020 H 0.27982 0.88629 0.52277 0.0
H1021 H 0.21652 0.88845 0.44188 0.0
H1022 H 0.20229 0.86261 0.43591 0.0
H1023 H 0.22562 0.876 0.42103 0.0
C1024 C 0.06218 0.31948 0.37923 0.0
C1025 C 0.07252 0.33355 0.35933 0.0
C1026 C 0.07073 0.31906 0.40546 0.0
C1027 C 0.09005 0.33312 0.41206 0.0
C1028 C 0.10057 0.34736 0.39213 0.0
C1029 C 0.09171 0.34738 0.36602 0.0
C1030 C 0.05905 0.30363 0.42617 0.0
C1031 C 0.12115 0.36271 0.39851 0.0
C1032 C 0.10599 0.34429 0.49027 0.0
C1033 C 0.11573 0.33402 0.4942 0.0
C1034 C 0.09765 0.34416 0.46365 0.0
C1035 C 0.09903 0.33344 0.44031 0.0
C1036 C 0.10901 0.32318 0.44402 0.0
C1037 C 0.11734 0.32367 0.47095 0.0
C1038 C 0.08735 0.35549 0.46053 0.0
C1039 C 0.1107 0.31154 0.41963 0.0
H1040 H 0.0474 0.30869 0.37429 0.0
H1041 H 0.09987 0.35833 0.35086 0.0
H1042 H 0.06623 0.29529 0.4316 0.0
H1043 H 0.05795 0.31048 0.44634 0.0
H1044 H 0.04438 0.2934 0.41746 0.0
H1045 H 0.12746 0.37252 0.3805 0.0
H1046 H 0.12217 0.37154 0.41778 0.0
H1047 H 0.12986 0.35581 0.4032 0.0
H1048 H 0.105 0.35259 0.5081 0.0
H1049 H 0.12479 0.31566 0.47397 0.0
H1050 H 0.07222 0.3456 0.4536 0.0
H1051 H 0.09393 0.3663 0.44379 0.0
H1052 H 0.0877 0.36319 0.48076 0.0
H1053 H 0.09626 0.30022 0.41162 0.0
H1054 H 0.11899 0.30444 0.42598 0.0
H1055 H 0.11778 0.32106 0.40162 0.0
C1056 C 0.07089 0.31699 0.223 0.0
C1057 C 0.06035 0.30381 0.24371 0.0
C1058 C 0.08441 0.31495 0.20758 0.0
C1059 C 0.08781 0.29953 0.2134 0.0
C1060 C 0.07748 0.28634 0.23468 0.0
C1061 C 0.06366 0.2885 0.24942 0.0
C1062 C 0.0949 0.32921 0.18475 0.0
C1063 C 0.08105 0.27003 0.24187 0.0
C1064 C 0.10986 0.29056 0.14946 0.0
C1065 C 0.1292 0.30419 0.15526 0.0
C1066 C 0.09611 0.28719 0.16962 0.0
C1067 C 0.10196 0.29737 0.1964 0.0
C1068 C 0.12168 0.3089 0.20382 0.0
C1069 C 0.13512 0.3123 0.18304 0.0
C1070 C 0.07525 0.27472 0.16077 0.0
C1071 C 0.12854 0.31953 0.23247 0.0
H1072 H 0.06828 0.32876 0.2184 0.0
H1073 H 0.05561 0.27836 0.26559 0.0
H1074 H 0.1105 0.33696 0.18985 0.0
H1075 H 0.09244 0.3214 0.16381 0.0
H1076 H 0.09028 0.34013 0.18254 0.0
H1077 H 0.07232 0.26145 0.2597 0.0
H1078 H 0.0777 0.26018 0.22287 0.0
H1079 H 0.09637 0.27592 0.24785 0.0
H1080 H 0.10528 0.28386 0.12822 0.0
H1081 H 0.15004 0.32278 0.18783 0.0
H1082 H 0.06939 0.2842 0.15485 0.0
H1083 H 0.06688 0.26582 0.17857 0.0
H1084 H 0.07314 0.26496 0.14207 0.0
H1085 H 0.12727 0.33276 0.2323 0.0
H1086 H 0.14374 0.32402 0.23736 0.0
H1087 H 0.11972 0.31043 0.24981 0.0
C1088 C 0.67496 0.74722 0.26714 0.0
C1089 C 0.6901 0.74367 0.26359 0.0
C1090 C 0.67367 0.76134 0.25142 0.0
C1091 C 0.68745 0.77152 0.23091 0.0
C1092 C 0.70319 0.76848 0.22814 0.0
C1093 C 0.7045 0.75479 0.24495 0.0
C1094 C 0.65714 0.76474 0.25589 0.0
C1095 C 0.71794 0.77867 0.20604 0.0
C1096 C 0.67189 0.78514 0.16276 0.0
C1097 C 0.68216 0.80546 0.16506 0.0
C1098 C 0.67306 0.77395 0.18444 0.0
C1099 C 0.68412 0.78325 0.20971 0.0
C1100 C 0.69304 0.80366 0.21337 0.0
C1101 C 0.69216 0.8146 0.1908 0.0
C1102 C 0.66343 0.75224 0.17944 0.0
C1103 C 0.70428 0.81401 0.24051 0.0
H1104 H 0.66405 0.73885 0.28207 0.0
H1105 H 0.71619 0.75197 0.24231 0.0
H1106 H 0.66209 0.78048 0.25658 0.0
H1107 H 0.64654 0.75798 0.23777 0.0
H1108 H 0.64983 0.75844 0.27595 0.0
H1109 H 0.72985 0.77554 0.20774 0.0
H1110 H 0.71106 0.77397 0.18434 0.0
H1111 H 0.72395 0.79456 0.20827 0.0
H1112 H 0.66359 0.77795 0.14329 0.0
H1113 H 0.70002 0.83028 0.19281 0.0
H1114 H 0.65359 0.74472 0.1968 0.0
H1115 H 0.67435 0.74768 0.17967 0.0
H1116 H 0.65517 0.74729 0.15871 0.0
H1117 H 0.69647 0.80629 0.25951 0.0
H1118 H 0.70725 0.8292 0.24212 0.0
H1119 H 0.71813 0.81427 0.24104 0.0
C1120 C 0.27854 0.94691 0.2934 0.0
C1121 C 0.26875 0.9505 0.31483 0.0
C1122 C 0.26896 0.93647 0.26804 0.0
C1123 C 0.24913 0.92949 0.26394 0.0
C1124 C 0.23921 0.93323 0.28531 0.0
C1125 C 0.24911 0.94367 0.31044 0.0
C1126 C 0.28004 0.93282 0.24567 0.0
C1127 C 0.21808 0.92613 0.28166 0.0
C1128 C 0.22836 0.91847 0.18788 0.0
C1129 C 0.22005 0.89825 0.18546 0.0
C1130 C 0.23774 0.92877 0.21332 0.0
C1131 C 0.23883 0.91862 0.23704 0.0
C1132 C 0.23015 0.89816 0.23496 0.0
C1133 C 0.22081 0.8882 0.20918 0.0
C1134 C 0.24665 0.95055 0.21472 0.0
C1135 C 0.23102 0.88684 0.25982 0.0
H1136 H 0.29367 0.95204 0.29654 0.0
H1137 H 0.24135 0.94632 0.32679 0.0
H1138 H 0.27377 0.917 0.24153 0.0
H1139 H 0.27904 0.93911 0.22525 0.0
H1140 H 0.29537 0.93913 0.25216 0.0
H1141 H 0.21245 0.93024 0.30031 0.0
H1142 H 0.21526 0.93219 0.26226 0.0
H1143 H 0.21003 0.91013 0.27863 0.0
H1144 H 0.22755 0.92628 0.16973 0.0
H1145 H 0.21454 0.8726 0.20734 0.0
H1146 H 0.26225 0.95743 0.21937 0.0
H1147 H 0.2406 0.95502 0.23235 0.0
H1148 H 0.2443 0.95622 0.19448 0.0
H1149 H 0.24613 0.89152 0.26566 0.0
H1150 H 0.22322 0.87098 0.25496 0.0
H1151 H 0.2248 0.88983 0.27878 0.0
C1152 C 0.70925 0.95236 0.29272 0.0
C1153 C 0.69422 0.95601 0.2975 0.0
C1154 C 0.70937 0.94215 0.26806 0.0
C1155 C 0.6941 0.93539 0.24751 0.0
C1156 C 0.6791 0.93941 0.25177 0.0
C1157 C 0.67934 0.94968 0.2767 0.0
C1158 C 0.72567 0.93825 0.26427 0.0
C1159 C 0.6626 0.93251 0.23024 0.0
C1160 C 0.70064 0.92233 0.17179 0.0
C1161 C 0.69096 0.90201 0.17181 0.0
C1162 C 0.70209 0.93339 0.1964 0.0
C1163 C 0.6937 0.92391 0.22172 0.0
C1164 C 0.68462 0.90344 0.22224 0.0
C1165 C 0.68338 0.89273 0.19727 0.0
C1166 C 0.71206 0.95518 0.19502 0.0
C1167 C 0.67561 0.89281 0.24889 0.0
H1168 H 0.72089 0.9572 0.30853 0.0
H1169 H 0.66764 0.95237 0.28014 0.0
H1170 H 0.72015 0.92241 0.26356 0.0
H1171 H 0.73246 0.94384 0.24368 0.0
H1172 H 0.73678 0.94503 0.2818 0.0
H1173 H 0.65232 0.93724 0.23631 0.0
H1174 H 0.66799 0.93808 0.20892 0.0
H1175 H 0.65486 0.91646 0.22815 0.0
H1176 H 0.70671 0.92958 0.15223 0.0
H1177 H 0.67571 0.87704 0.19734 0.0
H1178 H 0.7234 0.96203 0.21217 0.0
H1179 H 0.70169 0.96019 0.19863 0.0
H1180 H 0.7186 0.96036 0.17411 0.0
H1181 H 0.68622 0.8985 0.26712 0.0
H1182 H 0.66992 0.87696 0.2462 0.0
H1183 H 0.66372 0.89526 0.25456 0.0
C1184 C 0.06322 0.76128 0.26669 0.0
C1185 C 0.06268 0.74413 0.25759 0.0
C1186 C 0.07499 0.77886 0.25366 0.0
C1187 C 0.08604 0.77909 0.23059 0.0
C1188 C 0.08568 0.76181 0.22157 0.0
C1189 C 0.07417 0.7446 0.23542 0.0
C1190 C 0.07532 0.79703 0.26423 0.0
C1191 C 0.09709 0.76137 0.19676 0.0
C1192 C 0.10141 0.81263 0.16944 0.0
C1193 C 0.12132 0.82156 0.17334 0.0
C1194 C 0.08934 0.80013 0.18973 0.0
C1195 C 0.09748 0.79698 0.21469 0.0
C1196 C 0.11738 0.80847 0.22078 0.0
C1197 C 0.12915 0.82063 0.19987 0.0
C1198 C 0.06818 0.78832 0.18243 0.0
C1199 C 0.12653 0.80607 0.24766 0.0
H1200 H 0.05445 0.76098 0.28402 0.0
H1201 H 0.07373 0.73135 0.2283 0.0
H1202 H 0.09024 0.80918 0.26713 0.0
H1203 H 0.068 0.80136 0.24816 0.0
H1204 H 0.06808 0.79498 0.28477 0.0
H1205 H 0.09518 0.74674 0.19244 0.0
H1206 H 0.0927 0.76595 0.17714 0.0
H1207 H 0.11252 0.77171 0.20114 0.0
H1208 H 0.09534 0.81365 0.1491 0.0
H1209 H 0.14454 0.82762 0.20311 0.0
H1210 H 0.05971 0.7866 0.20151 0.0
H1211 H 0.06466 0.77363 0.17457 0.0
H1212 H 0.06376 0.79499 0.16549 0.0
H1213 H 0.11754 0.80394 0.26627 0.0
H1214 H 0.14095 0.81881 0.25232 0.0
H1215 H 0.12805 0.79306 0.24499 0.0
C1216 C 0.25764 0.34923 0.31315 0.0
C1217 C 0.27456 0.3484 0.31388 0.0
C1218 C 0.24965 0.35102 0.28733 0.0
C1219 C 0.25849 0.35137 0.26149 0.0
C1220 C 0.27579 0.35088 0.26213 0.0
C1221 C 0.28382 0.34973 0.28846 0.0
C1222 C 0.23154 0.35211 0.28767 0.0
C1223 C 0.28538 0.35076 0.23495 0.0
C1224 C 0.22588 0.3327 0.19487 0.0
C1225 C 0.23087 0.34987 0.18103 0.0
C1226 C 0.2349 0.333 0.22096 0.0
C1227 C 0.24892 0.35098 0.23376 0.0
C1228 C 0.2536 0.36844 0.22016 0.0
C1229 C 0.24471 0.36764 0.19363 0.0
C1230 C 0.22976 0.31405 0.23446 0.0
C1231 C 0.26806 0.38789 0.23353 0.0
H1232 H 0.25062 0.34848 0.33291 0.0
H1233 H 0.29688 0.34903 0.28907 0.0
H1234 H 0.23325 0.36463 0.27547 0.0
H1235 H 0.21959 0.33884 0.27713 0.0
H1236 H 0.22752 0.35354 0.30971 0.0
H1237 H 0.2991 0.35104 0.23916 0.0
H1238 H 0.27573 0.33755 0.2217 0.0
H1239 H 0.28818 0.36342 0.22221 0.0
H1240 H 0.21538 0.31897 0.1847 0.0
H1241 H 0.24863 0.38087 0.1826 0.0
H1242 H 0.22408 0.31361 0.2559 0.0
H1243 H 0.24274 0.31277 0.23743 0.0
H1244 H 0.21892 0.30132 0.22137 0.0
H1245 H 0.26396 0.38942 0.25545 0.0
H1246 H 0.26937 0.40011 0.22091 0.0
H1247 H 0.28227 0.389 0.23542 0.0
C1248 C 0.28234 0.38743 0.424 0.0
C1249 C 0.28372 0.37094 0.42945 0.0
C1250 C 0.26903 0.39081 0.43797 0.0
C1251 C 0.2574 0.37769 0.45848 0.0
C1252 C 0.25876 0.36098 0.46388 0.0
C1253 C 0.27173 0.35771 0.44902 0.0
C1254 C 0.26774 0.40853 0.43111 0.0
C1255 C 0.24679 0.34668 0.48584 0.0
C1256 C 0.23686 0.38742 0.52312 0.0
C1257 C 0.21736 0.37461 0.517 0.0
C1258 C 0.2504 0.39071 0.50267 0.0
C1259 C 0.24414 0.38129 0.47541 0.0
C1260 C 0.22441 0.37119 0.46769 0.0
C1261 C 0.21116 0.36777 0.48874 0.0
C1262 C 0.27133 0.40193 0.51162 0.0
C1263 C 0.21724 0.36181 0.43832 0.0
H1264 H 0.29154 0.39763 0.40868 0.0
H1265 H 0.27284 0.345 0.45335 0.0
H1266 H 0.25277 0.4055 0.43141 0.0
H1267 H 0.27626 0.42022 0.44739 0.0
H1268 H 0.27349 0.414 0.40987 0.0
H1269 H 0.24994 0.33469 0.48785 0.0
H1270 H 0.24941 0.35419 0.50707 0.0
H1271 H 0.23139 0.34031 0.47995 0.0
H1272 H 0.24165 0.39327 0.54475 0.0
H1273 H 0.19609 0.35807 0.48366 0.0
H1274 H 0.2799 0.41135 0.49439 0.0
H1275 H 0.27646 0.39161 0.51585 0.0
H1276 H 0.27395 0.41104 0.53132 0.0
H1277 H 0.22661 0.37123 0.42166 0.0
H1278 H 0.20238 0.35861 0.43362 0.0
H1279 H 0.21735 0.34795 0.43706 0.0
C1280 C 0.65237 0.92494 0.42779 0.0
C1281 C 0.66758 0.9364 0.41052 0.0
C1282 C 0.65302 0.91111 0.44512 0.0
C1283 C 0.66899 0.90829 0.44439 0.0
C1284 C 0.6837 0.91886 0.42532 0.0
C1285 C 0.68297 0.93305 0.40894 0.0
C1286 C 0.63722 0.90045 0.46557 0.0
C1287 C 0.7006 0.91579 0.42309 0.0
C1288 C 0.68167 0.89342 0.51404 0.0
C1289 C 0.67207 0.87315 0.51058 0.0
C1290 C 0.68113 0.90499 0.49241 0.0
C1291 C 0.67136 0.89619 0.46608 0.0
C1292 C 0.66295 0.87588 0.46151 0.0
C1293 C 0.66322 0.86454 0.48396 0.0
C1294 C 0.69019 0.92657 0.49836 0.0
C1295 C 0.653 0.86605 0.43338 0.0
H1296 H 0.64048 0.92758 0.42897 0.0
H1297 H 0.69453 0.94162 0.39505 0.0
H1298 H 0.63151 0.88461 0.46318 0.0
H1299 H 0.64302 0.90495 0.48786 0.0
H1300 H 0.62526 0.90337 0.46224 0.0
H1301 H 0.70907 0.92272 0.40414 0.0
H1302 H 0.7101 0.92207 0.44249 0.0
H1303 H 0.69579 0.90009 0.4218 0.0
H1304 H 0.68909 0.90026 0.53422 0.0
H1305 H 0.65582 0.8489 0.48104 0.0
H1306 H 0.67909 0.93086 0.49682 0.0
H1307 H 0.70085 0.93463 0.48218 0.0
H1308 H 0.69739 0.93113 0.51989 0.0
H1309 H 0.63926 0.86595 0.43116 0.0
H1310 H 0.64996 0.85085 0.43167 0.0
H1311 H 0.6618 0.8741 0.4153 0.0
C1312 C 0.06882 0.72958 0.38892 0.0
C1313 C 0.07971 0.72812 0.36715 0.0
C1314 C 0.0775 0.73927 0.41513 0.0
C1315 C 0.09751 0.74764 0.41968 0.0
C1316 C 0.10855 0.74617 0.39787 0.0
C1317 C 0.09954 0.73646 0.37192 0.0
C1318 C 0.06529 0.74055 0.43796 0.0
C1319 C 0.12991 0.7548 0.40197 0.0
C1320 C 0.12358 0.78675 0.47813 0.0
C1321 C 0.12536 0.77605 0.50015 0.0
C1322 C 0.1144 0.77767 0.45184 0.0
C1323 C 0.10692 0.75747 0.44754 0.0
C1324 C 0.10885 0.74667 0.46963 0.0
C1325 C 0.11805 0.75609 0.49563 0.0
C1326 C 0.11259 0.78964 0.42874 0.0
C1327 C 0.10124 0.72515 0.46578 0.0
H1328 H 0.05352 0.72327 0.38544 0.0
H1329 H 0.10813 0.73544 0.35532 0.0
H1330 H 0.06647 0.73347 0.45742 0.0
H1331 H 0.07045 0.75596 0.44403 0.0
H1332 H 0.04998 0.73358 0.43091 0.0
H1333 H 0.13647 0.75259 0.38274 0.0
H1334 H 0.13678 0.77057 0.40705 0.0
H1335 H 0.13313 0.74817 0.4203 0.0
H1336 H 0.12904 0.80214 0.48166 0.0
H1337 H 0.11961 0.74782 0.5125 0.0
H1338 H 0.0973 0.78391 0.42267 0.0
H1339 H 0.11968 0.78862 0.40934 0.0
H1340 H 0.11905 0.80515 0.43554 0.0
H1341 H 0.08567 0.71755 0.46044 0.0
H1342 H 0.10371 0.71883 0.48522 0.0
H1343 H 0.1082 0.72228 0.4477 0.0
C1344 C 0.3489 0.07212 0.71629 0.0
C1345 C 0.33187 0.05426 0.71435 0.0
C1346 C 0.3526 0.08535 0.73917 0.0
C1347 C 0.33916 0.08024 0.76084 0.0
C1348 C 0.32245 0.06172 0.75966 0.0
C1349 C 0.31884 0.0491 0.7361 0.0
C1350 C 0.37028 0.10513 0.73925 0.0
C1351 C 0.30807 0.05547 0.78281 0.0
C1352 C 0.35168 0.1061 0.83346 0.0
C1353 C 0.34119 0.1158 0.83239 0.0
C1354 C 0.35186 0.09508 0.80991 0.0
C1355 C 0.34194 0.09438 0.78425 0.0
C1356 C 0.33289 0.10563 0.78213 0.0
C1357 C 0.3324 0.11602 0.80635 0.0
C1358 C 0.36147 0.0831 0.81323 0.0
C1359 C 0.32272 0.10577 0.75477 0.0
H1360 H 0.35875 0.07619 0.69905 0.0
H1361 H 0.30563 0.03529 0.73436 0.0
H1362 H 0.36605 0.1162 0.73558 0.0
H1363 H 0.37808 0.10877 0.76028 0.0
H1364 H 0.38015 0.10616 0.7224 0.0
H1365 H 0.29677 0.04001 0.77996 0.0
H1366 H 0.31533 0.05768 0.80409 0.0
H1367 H 0.30114 0.06447 0.78272 0.0
H1368 H 0.35912 0.10639 0.85319 0.0
H1369 H 0.32428 0.12347 0.80519 0.0
H1370 H 0.3709 0.08525 0.79523 0.0
H1371 H 0.35042 0.06751 0.81278 0.0
H1372 H 0.37006 0.08667 0.8336 0.0
H1373 H 0.33175 0.1078 0.73625 0.0
H1374 H 0.31895 0.1174 0.75527 0.0
H1375 H 0.30937 0.09163 0.7513 0.0
C1376 C 0.94101 0.2489 0.7463 0.0
C1377 C 0.9441 0.26715 0.75543 0.0
C1378 C 0.92849 0.23212 0.76051 0.0
C1379 C 0.9193 0.23377 0.78482 0.0
C1380 C 0.9221 0.25215 0.79374 0.0
C1381 C 0.9343 0.26857 0.77872 0.0
C1382 C 0.92549 0.21274 0.74996 0.0
C1383 C 0.91274 0.2546 0.8198 0.0
C1384 C 0.87669 0.1947 0.82108 0.0
C1385 C 0.88563 0.19303 0.84599 0.0
C1386 C 0.8876 0.20642 0.79909 0.0
C1387 C 0.90779 0.21677 0.80245 0.0
C1388 C 0.91677 0.21319 0.82596 0.0
C1389 C 0.90553 0.20117 0.84732 0.0
C1390 C 0.87749 0.20933 0.77383 0.0
C1391 C 0.93824 0.22386 0.83042 0.0
H1392 H 0.94843 0.24772 0.72808 0.0
H1393 H 0.93668 0.28265 0.78586 0.0
H1394 H 0.93252 0.20758 0.76522 0.0
H1395 H 0.91004 0.20178 0.7487 0.0
H1396 H 0.93147 0.21354 0.72861 0.0
H1397 H 0.91619 0.26982 0.8236 0.0
H1398 H 0.897 0.24526 0.81737 0.0
H1399 H 0.91751 0.24998 0.83899 0.0
H1400 H 0.86129 0.18838 0.81993 0.0
H1401 H 0.91242 0.19962 0.86644 0.0
H1402 H 0.88499 0.21033 0.75387 0.0
H1403 H 0.87743 0.22312 0.77714 0.0
H1404 H 0.86244 0.19737 0.7711 0.0
H1405 H 0.94524 0.22395 0.81032 0.0
H1406 H 0.94297 0.21735 0.8472 0.0
H1407 H 0.94327 0.23915 0.83704 0.0
C1408 C 0.76227 0.68082 0.7203 0.0
C1409 C 0.74292 0.66799 0.71297 0.0
C1410 C 0.77058 0.67946 0.7461 0.0
C1411 C 0.75931 0.66488 0.76513 0.0
C1412 C 0.73983 0.65173 0.75783 0.0
C1413 C 0.73184 0.65346 0.73185 0.0
C1414 C 0.79137 0.69386 0.75322 0.0
C1415 C 0.72738 0.63599 0.77762 0.0
C1416 C 0.78563 0.65369 0.82341 0.0
C1417 C 0.78477 0.66445 0.84675 0.0
C1418 C 0.77711 0.65339 0.79673 0.0
C1419 C 0.76769 0.66423 0.7934 0.0
C1420 C 0.76686 0.67515 0.81691 0.0
C1421 C 0.77541 0.67514 0.84323 0.0
C1422 C 0.77824 0.64155 0.7721 0.0
C1423 C 0.75716 0.68709 0.81419 0.0
H1424 H 0.77101 0.69209 0.70592 0.0
H1425 H 0.71692 0.64341 0.72635 0.0
H1426 H 0.79262 0.7026 0.77273 0.0
H1427 H 0.79931 0.68614 0.75782 0.0
H1428 H 0.79835 0.70387 0.73563 0.0
H1429 H 0.71277 0.62635 0.76822 0.0
H1430 H 0.73398 0.62707 0.78285 0.0
H1431 H 0.72621 0.64259 0.798 0.0
H1432 H 0.79277 0.64535 0.82611 0.0
H1433 H 0.77502 0.68378 0.86109 0.0
H1434 H 0.78602 0.65116 0.75452 0.0
H1435 H 0.76365 0.63102 0.76352 0.0
H1436 H 0.78561 0.63351 0.77838 0.0
H1437 H 0.76438 0.69832 0.79819 0.0
H1438 H 0.75736 0.69438 0.83476 0.0
H1439 H 0.74209 0.67776 0.80648 0.0
C1440 C 0.74284 0.65754 0.57466 0.0
C1441 C 0.73171 0.64363 0.59415 0.0
C1442 C 0.75504 0.65478 0.55702 0.0
C1443 C 0.75648 0.63787 0.55938 0.0
C1444 C 0.74591 0.62414 0.5799 0.0
C1445 C 0.7334 0.62705 0.59683 0.0
C1446 C 0.76592 0.66972 0.53517 0.0
C1447 C 0.74748 0.60621 0.58352 0.0
C1448 C 0.77225 0.62751 0.48972 0.0
C1449 C 0.79216 0.63886 0.49367 0.0
C1450 C 0.76021 0.62538 0.51201 0.0
C1451 C 0.76833 0.63443 0.53902 0.0
C1452 C 0.78834 0.64357 0.54414 0.0
C1453 C 0.80008 0.64585 0.52128 0.0
C1454 C 0.73893 0.61543 0.50563 0.0
C1455 C 0.7975 0.65279 0.57295 0.0
H1456 H 0.74151 0.67033 0.57246 0.0
H1457 H 0.72489 0.61633 0.61208 0.0
H1458 H 0.78149 0.6755 0.53854 0.0
H1459 H 0.76179 0.66289 0.51335 0.0
H1460 H 0.76319 0.68206 0.53619 0.0
H1461 H 0.74091 0.59877 0.60341 0.0
H1462 H 0.74011 0.59592 0.56512 0.0
H1463 H 0.76266 0.6099 0.58396 0.0
H1464 H 0.76607 0.62159 0.46857 0.0
H1465 H 0.81546 0.65455 0.52463 0.0
H1466 H 0.73455 0.62655 0.50382 0.0
H1467 H 0.73094 0.60593 0.52315 0.0
H1468 H 0.73471 0.60662 0.48531 0.0
H1469 H 0.79814 0.66698 0.57545 0.0
H1470 H 0.81229 0.65531 0.57526 0.0
H1471 H 0.78897 0.64362 0.59045 0.0
C1472 C 0.34616 0.07341 0.57404 0.0
C1473 C 0.33467 0.06318 0.59642 0.0
C1474 C 0.34317 0.08701 0.55977 0.0
C1475 C 0.32874 0.09086 0.5688 0.0
C1476 C 0.31794 0.08144 0.59263 0.0
C1477 C 0.32084 0.06745 0.60593 0.0
C1478 C 0.35479 0.0965 0.5341 0.0
C1479 C 0.30291 0.08565 0.60348 0.0
C1480 C 0.33296 0.13518 0.53391 0.0
C1481 C 0.32089 0.12658 0.50962 0.0
C1482 C 0.33443 0.12368 0.55504 0.0
C1483 C 0.32385 0.10324 0.55133 0.0
C1484 C 0.31031 0.0946 0.52824 0.0
C1485 C 0.30878 0.10642 0.50794 0.0
C1486 C 0.3485 0.13341 0.57996 0.0
C1487 C 0.29885 0.07288 0.52323 0.0
H1488 H 0.35687 0.07008 0.5668 0.0
H1489 H 0.31231 0.05989 0.62377 0.0
H1490 H 0.34521 0.09222 0.5147 0.0
H1491 H 0.36194 0.11249 0.53685 0.0
H1492 H 0.36586 0.09239 0.53046 0.0
H1493 H 0.29783 0.07933 0.62459 0.0
H1494 H 0.30859 0.10151 0.60536 0.0
H1495 H 0.29048 0.0795 0.58807 0.0
H1496 H 0.34232 0.15076 0.53535 0.0
H1497 H 0.29916 0.09978 0.4894 0.0
H1498 H 0.36172 0.13291 0.57599 0.0
H1499 H 0.34259 0.12577 0.59995 0.0
H1500 H 0.35242 0.14883 0.58309 0.0
H1501 H 0.30856 0.06745 0.51707 0.0
H1502 H 0.28763 0.0685 0.50599 0.0
H1503 H 0.29195 0.06569 0.54303 0.0
C1504 C 0.93522 0.28163 0.62585 0.0
C1505 C 0.92632 0.28566 0.64815 0.0
C1506 C 0.92479 0.27116 0.60103 0.0
C1507 C 0.90498 0.26463 0.59835 0.0
C1508 C 0.89599 0.26906 0.6204 0.0
C1509 C 0.90674 0.27949 0.64504 0.0
C1510 C 0.9349 0.26674 0.57791 0.0
C1511 C 0.87493 0.26247 0.6182 0.0
C1512 C 0.88368 0.25108 0.52273 0.0
C1513 C 0.87631 0.23098 0.52159 0.0
C1514 C 0.89234 0.26215 0.54796 0.0
C1515 C 0.8937 0.25288 0.5726 0.0
C1516 C 0.88536 0.23245 0.572 0.0
C1517 C 0.87672 0.22173 0.54647 0.0
C1518 C 0.90084 0.28386 0.54783 0.0
C1519 C 0.8865 0.22203 0.59787 0.0
H1520 H 0.9503 0.28628 0.62799 0.0
H1521 H 0.89969 0.28256 0.66206 0.0
H1522 H 0.92849 0.25082 0.57483 0.0
H1523 H 0.93304 0.27234 0.55731 0.0
H1524 H 0.95043 0.27319 0.58301 0.0
H1525 H 0.87026 0.26779 0.63668 0.0
H1526 H 0.87154 0.26764 0.5983 0.0
H1527 H 0.86647 0.24641 0.61704 0.0
H1528 H 0.88322 0.25824 0.50354 0.0
H1529 H 0.8712 0.20622 0.54559 0.0
H1530 H 0.91664 0.29103 0.55006 0.0
H1531 H 0.89593 0.28895 0.56625 0.0
H1532 H 0.897 0.28859 0.52784 0.0
H1533 H 0.90161 0.2262 0.60267 0.0
H1534 H 0.87797 0.20603 0.59462 0.0
H1535 H 0.88134 0.22633 0.61684 0.0
C1536 C 0.36162 0.27842 0.63754 0.0
C1537 C 0.34708 0.28314 0.63955 0.0
C1538 C 0.3625 0.26797 0.6137 0.0
C1539 C 0.34851 0.26206 0.59124 0.0
C1540 C 0.3341 0.2672 0.59271 0.0
C1541 C 0.33357 0.27768 0.61681 0.0
C1542 C 0.37815 0.26289 0.61286 0.0
C1543 C 0.31897 0.26123 0.56907 0.0
C1544 C 0.35657 0.24801 0.51714 0.0
C1545 C 0.34515 0.22775 0.51676 0.0
C1546 C 0.35844 0.25935 0.54162 0.0
C1547 C 0.34867 0.2502 0.56636 0.0
C1548 C 0.33811 0.2297 0.56669 0.0
C1549 C 0.33649 0.2187 0.54186 0.0
C1550 C 0.37002 0.28114 0.54048 0.0
C1551 C 0.3276 0.21939 0.59271 0.0
H1552 H 0.3722 0.28258 0.65488 0.0
H1553 H 0.32227 0.2812 0.61809 0.0
H1554 H 0.37179 0.24692 0.61264 0.0
H1555 H 0.38611 0.26804 0.59299 0.0
H1556 H 0.38843 0.26929 0.63147 0.0
H1557 H 0.30906 0.2668 0.57308 0.0
H1558 H 0.32578 0.26666 0.54842 0.0
H1559 H 0.31052 0.2452 0.5668 0.0
H1560 H 0.36339 0.25505 0.4978 0.0
H1561 H 0.32749 0.20308 0.54159 0.0
H1562 H 0.38019 0.28733 0.55919 0.0
H1563 H 0.36035 0.28725 0.54138 0.0
H1564 H 0.37818 0.28592 0.52067 0.0
H1565 H 0.33733 0.22479 0.61197 0.0
H1566 H 0.3214 0.20345 0.59037 0.0
H1567 H 0.31584 0.22246 0.5964 0.0
C1568 C 0.73522 0.07278 0.58669 0.0
C1569 C 0.73937 0.06186 0.60551 0.0
C1570 C 0.74952 0.08701 0.57056 0.0
C1571 C 0.76855 0.09077 0.574 0.0
C1572 C 0.77305 0.08065 0.59437 0.0
C1573 C 0.75831 0.06605 0.6096 0.0
C1574 C 0.74404 0.09722 0.54869 0.0
C1575 C 0.79326 0.08475 0.59936 0.0
C1576 C 0.79563 0.10839 0.50649 0.0
C1577 C 0.80373 0.12852 0.51022 0.0
C1578 C 0.78504 0.09591 0.52785 0.0
C1579 C 0.78307 0.10378 0.55402 0.0
C1580 C 0.79299 0.12413 0.55913 0.0
C1581 C 0.80308 0.13632 0.53699 0.0
C1582 C 0.77458 0.07432 0.52134 0.0
C1583 C 0.79181 0.13304 0.58716 0.0
H1584 H 0.72057 0.06954 0.58351 0.0
H1585 H 0.76161 0.0579 0.6246 0.0
H1586 H 0.7529 0.11314 0.55222 0.0
H1587 H 0.74678 0.09362 0.52695 0.0
H1588 H 0.72874 0.09309 0.54939 0.0
H1589 H 0.79486 0.07801 0.61898 0.0
H1590 H 0.79744 0.07896 0.58091 0.0
H1591 H 0.80335 0.1006 0.6012 0.0
H1592 H 0.79658 0.10231 0.4861 0.0
H1593 H 0.80938 0.15186 0.5401 0.0
H1594 H 0.75895 0.06879 0.51999 0.0
H1595 H 0.77734 0.06669 0.53869 0.0
H1596 H 0.77877 0.07053 0.50084 0.0
H1597 H 0.77781 0.13241 0.58793 0.0
H1598 H 0.80327 0.14845 0.58992 0.0
H1599 H 0.79285 0.1249 0.60538 0.0
C1600 C 0.94503 0.68118 0.62251 0.0
C1601 C 0.93351 0.66824 0.64292 0.0
C1602 C 0.93721 0.68211 0.59587 0.0
C1603 C 0.91744 0.66978 0.58949 0.0
C1604 C 0.90572 0.65682 0.61005 0.0
C1605 C 0.91388 0.65622 0.63647 0.0
C1606 C 0.95014 0.69611 0.57443 0.0
C1607 C 0.88459 0.64337 0.604 0.0
C1608 C 0.89252 0.68077 0.52893 0.0
C1609 C 0.89187 0.66819 0.50701 0.0
C1610 C 0.9011 0.6817 0.55582 0.0
C1611 C 0.90908 0.6697 0.56085 0.0
C1612 C 0.90848 0.65702 0.53877 0.0
C1613 C 0.89987 0.65641 0.51217 0.0
C1614 C 0.90151 0.69542 0.57887 0.0
C1615 C 0.91667 0.64387 0.54335 0.0
H1616 H 0.96018 0.69058 0.62728 0.0
H1617 H 0.9048 0.64618 0.65204 0.0
H1618 H 0.95031 0.688 0.55502 0.0
H1619 H 0.94461 0.70572 0.56771 0.0
H1620 H 0.96504 0.70524 0.58308 0.0
H1621 H 0.87735 0.63458 0.62261 0.0
H1622 H 0.87761 0.65182 0.59807 0.0
H1623 H 0.88238 0.6334 0.58559 0.0
H1624 H 0.8865 0.69001 0.52496 0.0
H1625 H 0.89912 0.64642 0.49545 0.0
H1626 H 0.91646 0.70542 0.5866 0.0
H1627 H 0.89354 0.68713 0.5974 0.0
H1628 H 0.89514 0.70415 0.57131 0.0
H1629 H 0.93194 0.65253 0.55045 0.0
H1630 H 0.91554 0.63526 0.5237 0.0
H1631 H 0.90905 0.63372 0.56048 0.0
C1632 C 0.94435 0.71191 0.75749 0.0
C1633 C 0.94643 0.69567 0.76152 0.0
C1634 C 0.93187 0.71513 0.77411 0.0
C1635 C 0.9218 0.70212 0.79572 0.0
C1636 C 0.92382 0.68565 0.79965 0.0
C1637 C 0.93591 0.68252 0.78227 0.0
C1638 C 0.92972 0.73256 0.76881 0.0
C1639 C 0.91355 0.6715 0.82271 0.0
C1640 C 0.90544 0.7134 0.8641 0.0
C1641 C 0.88563 0.70101 0.86059 0.0
C1642 C 0.91759 0.71566 0.84187 0.0
C1643 C 0.90963 0.70569 0.81532 0.0
C1644 C 0.88956 0.69558 0.8104 0.0
C1645 C 0.87774 0.69317 0.83323 0.0
C1646 C 0.9389 0.72666 0.84804 0.0
C1647 C 0.88053 0.68541 0.78202 0.0
H1648 H 0.9524 0.72204 0.74131 0.0
H1649 H 0.93755 0.67 0.78555 0.0
H1650 H 0.91446 0.72858 0.76888 0.0
H1651 H 0.93739 0.7437 0.78616 0.0
H1652 H 0.93566 0.73912 0.74814 0.0
H1653 H 0.91694 0.65961 0.82317 0.0
H1654 H 0.91754 0.67919 0.84394 0.0
H1655 H 0.89787 0.66498 0.81931 0.0
H1656 H 0.91158 0.71999 0.88499 0.0
H1657 H 0.86244 0.6837 0.83015 0.0
H1658 H 0.94652 0.73562 0.82984 0.0
H1659 H 0.94398 0.71619 0.85124 0.0
H1660 H 0.94284 0.7362 0.86759 0.0
H1661 H 0.88874 0.69431 0.76408 0.0
H1662 H 0.8655 0.68216 0.77952 0.0
H1663 H 0.88056 0.67152 0.78053 0.0
C1664 C 0.30075 0.24404 0.73974 0.0
C1665 C 0.31507 0.26309 0.74716 0.0
C1666 C 0.29961 0.22824 0.75425 0.0
C1667 C 0.31287 0.23164 0.77702 0.0
C1668 C 0.32751 0.25084 0.78427 0.0
C1669 C 0.3285 0.26628 0.76914 0.0
C1670 C 0.28404 0.20796 0.74558 0.0
C1671 C 0.34185 0.25518 0.80862 0.0
C1672 C 0.30271 0.2 0.84047 0.0
C1673 C 0.31532 0.19295 0.83657 0.0
C1674 C 0.30045 0.2113 0.81993 0.0
C1675 C 0.31097 0.21552 0.79478 0.0
C1676 C 0.32206 0.20664 0.78934 0.0
C1677 C 0.32416 0.19545 0.81042 0.0
C1678 C 0.2884 0.22037 0.82663 0.0
C1679 C 0.33319 0.21045 0.76255 0.0
H1680 H 0.29042 0.24147 0.72259 0.0
H1681 H 0.33954 0.28096 0.77507 0.0
H1682 H 0.29022 0.19845 0.74203 0.0
H1683 H 0.27387 0.20179 0.76302 0.0
H1684 H 0.27596 0.20761 0.72584 0.0
H1685 H 0.35259 0.27085 0.81109 0.0
H1686 H 0.33433 0.2504 0.82893 0.0
H1687 H 0.34947 0.24702 0.80512 0.0
H1688 H 0.29579 0.19795 0.86067 0.0
H1689 H 0.33398 0.19009 0.8074 0.0
H1690 H 0.27933 0.21928 0.80776 0.0
H1691 H 0.2979 0.23599 0.83225 0.0
H1692 H 0.27906 0.21348 0.84482 0.0
H1693 H 0.32454 0.21019 0.74362 0.0
H1694 H 0.33788 0.19968 0.75885 0.0
H1695 H 0.34609 0.22508 0.76451 0.0
C1696 C 0.73751 0.06719 0.72785 0.0
C1697 C 0.73763 0.0497 0.72563 0.0
C1698 C 0.74678 0.08026 0.75117 0.0
C1699 C 0.75577 0.07536 0.77316 0.0
C1700 C 0.75502 0.05722 0.77161 0.0
C1701 C 0.74633 0.04479 0.74751 0.0
C1702 C 0.74783 0.09971 0.75148 0.0
C1703 C 0.7638 0.05112 0.7951 0.0
C1704 C 0.7967 0.11299 0.82121 0.0
C1705 C 0.78729 0.1127 0.84615 0.0
C1706 C 0.78647 0.1017 0.79674 0.0
C1707 C 0.76642 0.08932 0.79747 0.0
C1708 C 0.75675 0.08947 0.82212 0.0
C1709 C 0.76722 0.10147 0.84582 0.0
C1710 C 0.79724 0.10249 0.77046 0.0
C1711 C 0.73545 0.07623 0.82404 0.0
H1712 H 0.73111 0.07111 0.71053 0.0
H1713 H 0.7465 0.03131 0.74558 0.0
H1714 H 0.74266 0.10235 0.77184 0.0
H1715 H 0.76294 0.11134 0.74999 0.0
H1716 H 0.73931 0.1009 0.7335 0.0
H1717 H 0.76048 0.03589 0.79185 0.0
H1718 H 0.77954 0.06068 0.796 0.0
H1719 H 0.75853 0.05264 0.8161 0.0
H1720 H 0.81215 0.12148 0.82106 0.0
H1721 H 0.75963 0.10159 0.86448 0.0
H1722 H 0.79009 0.10425 0.75117 0.0
H1723 H 0.79728 0.08868 0.76743 0.0
H1724 H 0.81228 0.11456 0.77201 0.0
H1725 H 0.7277 0.07846 0.80603 0.0
H1726 H 0.72999 0.07853 0.8444 0.0
H1727 H 0.73203 0.06091 0.82236 0.0
C1728 C 0.08563 0.35906 0.98357 0.0
C1729 C 0.06938 0.35438 -0.00072 0.0
C1730 C 0.10058 0.35666 0.99479 0.0
C1731 C 0.09931 0.34943 0.02244 0.0
C1732 C 0.08306 0.34489 0.03857 0.0
C1733 C 0.0683 0.3474 0.0268 0.0
C1734 C 0.1176 0.36163 0.97689 0.0
C1735 C 0.08117 0.33717 0.06819 0.0
C1736 C 0.12528 0.32309 0.04569 0.0
C1737 C 0.13967 0.33691 0.06435 0.0
C1738 C 0.11277 0.32738 0.03047 0.0
C1739 C 0.11457 0.3459 0.03427 0.0
C1740 C 0.12999 0.36036 0.0515 0.0
C1741 C 0.14239 0.35568 0.06637 0.0
C1742 C 0.09671 0.31159 0.0121 0.0
C1743 C 0.13248 0.38029 0.05606 0.0
H1744 H 0.08667 0.3645 0.9623 0.0
H1745 H 0.05586 0.3438 0.03914 0.0
H1746 H 0.13097 0.3723 0.9887 0.0
H1747 H 0.11863 0.34846 0.97257 0.0
H1748 H 0.11674 0.36772 0.95617 0.0
H1749 H 0.06792 0.33485 0.07826 0.0
H1750 H 0.08104 0.32319 0.06723 0.0
H1751 H 0.09364 0.3474 0.08209 0.0
H1752 H 0.12301 0.30848 0.04455 0.0
H1753 H 0.15325 0.36622 0.08129 0.0
H1754 H 0.09566 0.31712 0.991 0.0
H1755 H 0.08295 0.30674 0.02254 0.0
H1756 H 0.09863 0.29884 0.00869 0.0
H1757 H 0.13134 0.38625 0.0354 0.0
H1758 H 0.14645 0.39055 0.06687 0.0
H1759 H 0.12093 0.37933 0.06946 0.0
C1760 C 0.64223 0.72141 0.04624 0.0
C1761 C 0.64434 0.71164 0.02272 0.0
C1762 C 0.65156 0.74165 0.04816 0.0
C1763 C 0.66267 0.75254 0.02529 0.0
C1764 C 0.66418 0.7427 0.00079 0.0
C1765 C 0.65538 0.72232 0.00013 0.0
C1766 C 0.65004 0.75133 0.07531 0.0
C1767 C 0.67529 0.75343 0.97545 0.0
C1768 C 0.66981 0.80166 0.04265 0.0
C1769 C 0.68624 0.80889 0.06058 0.0
C1770 C 0.66342 0.78439 0.02626 0.0
C1771 C 0.67343 0.77409 0.02879 0.0
C1772 C 0.69177 0.78329 0.04258 0.0
C1773 C 0.69814 0.80086 0.05796 0.0
C1774 C 0.64462 0.77583 0.0096 0.0
C1775 C 0.70329 0.7732 0.04501 0.0
H1776 H 0.6339 0.71318 0.0639 0.0
H1777 H 0.65701 0.71476 0.98188 0.0
H1778 H 0.6645 0.76153 0.0847 0.0
H1779 H 0.64292 0.75982 0.07052 0.0
H1780 H 0.64177 0.74074 0.09166 0.0
H1781 H 0.66808 0.74514 0.95526 0.0
H1782 H 0.67706 0.76812 0.97434 0.0
H1783 H 0.68965 0.75482 0.97682 0.0
H1784 H 0.66072 0.80802 0.04409 0.0
H1785 H 0.71112 0.80677 0.07129 0.0
H1786 H 0.633 0.7655 0.02298 0.0
H1787 H 0.64479 0.76776 0.9901 0.0
H1788 H 0.64132 0.78724 0.00335 0.0
H1789 H 0.69637 0.76114 0.05989 0.0
H1790 H 0.71815 0.78319 0.0532 0.0
H1791 H 0.70379 0.76692 0.02396 0.0
C1792 C 0.30763 0.95113 0.03447 0.0
C1793 C 0.30802 0.95337 0.00487 0.0
C1794 C 0.29048 0.93883 0.04761 0.0
C1795 C 0.27329 0.92859 0.03076 0.0
C1796 C 0.27359 0.9307 0.00086 0.0
C1797 C 0.29096 0.94304 0.98826 0.0
C1798 C 0.29075 0.93692 0.0796 0.0
C1799 C 0.25554 0.9201 0.98225 0.0
C1800 C 0.23375 0.88619 0.06793 0.0
C1801 C 0.22448 0.89507 0.08072 0.0
C1802 C 0.24902 0.89658 0.04999 0.0
C1803 C 0.25497 0.91622 0.04481 0.0
C1804 C 0.24456 0.92466 0.05588 0.0
C1805 C 0.22949 0.914 0.07389 0.0
C1806 C 0.25973 0.88706 0.03856 0.0
C1807 C 0.25027 0.94545 0.0506 0.0
H1808 H 0.32074 0.959 0.04743 0.0
H1809 H 0.29111 0.94467 0.96535 0.0
H1810 H 0.28157 0.94195 0.08943 0.0
H1811 H 0.28482 0.92149 0.08478 0.0
H1812 H 0.30538 0.94544 0.08951 0.0
H1813 H 0.25828 0.92288 0.95923 0.0
H1814 H 0.24865 0.90427 0.98521 0.0
H1815 H 0.24521 0.92465 0.98866 0.0
H1816 H 0.23001 0.87164 0.07367 0.0
H1817 H 0.22238 0.92085 0.08414 0.0
H1818 H 0.27378 0.89322 0.05021 0.0
H1819 H 0.26252 0.88997 0.01562 0.0
H1820 H 0.2518 0.87113 0.04114 0.0
H1821 H 0.26388 0.95525 0.06262 0.0
H1822 H 0.23927 0.94898 0.05748 0.0
H1823 H 0.25272 0.94848 0.02762 0.0
C1824 C 0.35545 0.05223 -0.00066 0.0
C1825 C 0.36779 0.05256 0.97853 0.0
C1826 C 0.34738 0.0643 -0.00241 0.0
C1827 C 0.35128 0.07637 0.97397 0.0
C1828 C 0.36399 0.07689 0.95322 0.0
C1829 C 0.37231 0.06526 0.95608 0.0
C1830 C 0.33482 0.06419 0.02096 0.0
C1831 C 0.36821 0.08908 0.92714 0.0
C1832 C 0.3191 0.09003 0.93554 0.0
C1833 C 0.33103 0.11021 0.93618 0.0
C1834 C 0.32408 0.0784 0.95138 0.0
C1835 C 0.34107 0.08731 0.9688 0.0
C1836 C 0.35089 0.10767 0.97376 0.0
C1837 C 0.3459 0.11901 0.957 0.0
C1838 C 0.31297 0.05676 0.94554 0.0
C1839 C 0.36833 0.11762 0.99363 0.0
H1840 H 0.35214 0.04257 0.01692 0.0
H1841 H 0.38171 0.06544 0.93983 0.0
H1842 H 0.34239 0.07817 0.03337 0.0
H1843 H 0.32137 0.06281 0.01193 0.0
H1844 H 0.33122 0.05227 0.03583 0.0
H1845 H 0.378 0.08736 0.91268 0.0
H1846 H 0.35474 0.085 0.91484 0.0
H1847 H 0.37486 0.10461 0.9337 0.0
H1848 H 0.30738 0.08328 0.91973 0.0
H1849 H 0.35499 0.13463 0.95784 0.0
H1850 H 0.31158 0.04883 0.96531 0.0
H1851 H 0.32073 0.05271 0.93014 0.0
H1852 H 0.29845 0.05191 0.93617 0.0
H1853 H 0.36669 0.10879 0.01247 0.0
H1854 H 0.37107 0.13215 0.00102 0.0
H1855 H 0.381 0.11956 0.98222 0.0
C1856 C 0.96 0.2875 0.97394 0.0
C1857 C 0.95887 0.30157 0.99074 0.0
C1858 C 0.94406 0.26883 0.96962 0.0
C1859 C 0.92683 0.26397 0.98328 0.0
C1860 C 0.92644 0.27749 0.00293 0.0
C1861 C 0.94232 0.29631 0.00587 0.0
C1862 C 0.9451 0.25504 0.94812 0.0
C1863 C 0.90878 0.27261 0.01911 0.0
C1864 C 0.88368 0.23145 0.93538 0.0
C1865 C 0.88002 0.21303 0.94293 0.0
C1866 C 0.89807 0.2482 0.94972 0.0
C1867 C 0.90867 0.24647 0.97286 0.0
C1868 C 0.90334 0.22783 0.98284 0.0
C1869 C 0.88922 0.21124 0.96741 0.0
C1870 C 0.90328 0.26767 0.93798 0.0
C1871 C 0.91357 0.22532 0.00828 0.0
H1872 H 0.97271 0.29163 0.96198 0.0
H1873 H 0.94145 0.30721 0.01895 0.0
H1874 H 0.93987 0.24063 0.9573 0.0
H1875 H 0.93572 0.25304 0.92913 0.0
H1876 H 0.95986 0.26042 0.94096 0.0
H1877 H 0.91221 0.28239 0.03828 0.0
H1878 H 0.89846 0.27426 0.00509 0.0
H1879 H 0.90167 0.25739 0.02587 0.0
H1880 H 0.87665 0.23278 0.91625 0.0
H1881 H 0.88653 0.197 0.97311 0.0
H1882 H 0.91768 0.27422 0.92894 0.0
H1883 H 0.90388 0.2777 0.95522 0.0
H1884 H 0.89295 0.26655 0.92092 0.0
H1885 H 0.92693 0.22604 0.00142 0.0
H1886 H 0.90464 0.21105 0.01792 0.0
H1887 H 0.91748 0.23698 0.02484 0.0
C1888 C 0.71229 0.66158 0.02994 0.0
C1889 C 0.69851 0.66089 0.01031 0.0
C1890 C 0.72932 0.66296 0.02078 0.0
C1891 C 0.73272 0.66369 0.99126 0.0
C1892 C 0.71902 0.66328 0.97134 0.0
C1893 C 0.70207 0.66187 0.9811 0.0
C1894 C 0.74353 0.66332 0.04265 0.0
C1895 C 0.72216 0.6641 0.93964 0.0
C1896 C 0.78185 0.68263 0.9612 0.0
C1897 C 0.78066 0.66539 0.95119 0.0
C1898 C 0.76682 0.68231 0.97608 0.0
C1899 C 0.75029 0.66431 0.98092 0.0
C1900 C 0.74984 0.64684 0.97299 0.0
C1901 C 0.76502 0.64761 0.95805 0.0
C1902 C 0.76793 0.70125 0.9843 0.0
C1903 C 0.73262 0.62734 0.97801 0.0
H1904 H 0.70971 0.66086 0.05259 0.0
H1905 H 0.69155 0.66138 0.9658 0.0
H1906 H 0.74526 0.6505 0.03906 0.0
H1907 H 0.75774 0.67637 0.04028 0.0
H1908 H 0.73907 0.66332 0.06488 0.0
H1909 H 0.71038 0.66416 0.92701 0.0
H1910 H 0.73578 0.67731 0.93502 0.0
H1911 H 0.72334 0.65143 0.93232 0.0
H1912 H 0.79376 0.69636 0.95525 0.0
H1913 H 0.76399 0.63431 0.94972 0.0
H1914 H 0.76312 0.70097 0.00634 0.0
H1915 H 0.75826 0.70355 0.96974 0.0
H1916 H 0.78264 0.71375 0.98289 0.0
H1917 H 0.72794 0.62673 0.0002 0.0
H1918 H 0.73554 0.61529 0.9741 0.0
H1919 H 0.72059 0.62506 0.96344 0.0
C1920 C 0.9316 0.64881 0.03564 0.0
C1921 C 0.94786 0.65276 0.02041 0.0
C1922 C 0.91702 0.65146 0.02361 0.0
C1923 C 0.91864 0.65822 0.99559 0.0
C1924 C 0.93489 0.66205 0.97993 0.0
C1925 C 0.94931 0.65928 0.99253 0.0
C1926 C 0.89998 0.64725 0.04105 0.0
C1927 C 0.93715 0.66926 0.94995 0.0
C1928 C 0.87543 0.65195 0.95172 0.0
C1929 C 0.87823 0.67075 0.95339 0.0
C1930 C 0.888 0.64737 0.96637 0.0
C1931 C 0.9037 0.662 0.98297 0.0
C1932 C 0.90577 0.68067 0.98615 0.0
C1933 C 0.89307 0.68483 0.97118 0.0
C1934 C 0.88522 0.62728 0.96248 0.0
C1935 C 0.92214 0.69663 0.00383 0.0
H1936 H 0.93025 0.64372 0.05719 0.0
H1937 H 0.96176 0.66232 0.98057 0.0
H1938 H 0.89928 0.66068 0.04448 0.0
H1939 H 0.88658 0.63657 0.02933 0.0
H1940 H 0.90057 0.64149 0.0622 0.0
H1941 H 0.95032 0.67103 0.94033 0.0
H1942 H 0.92463 0.65901 0.93613 0.0
H1943 H 0.93766 0.68343 0.95009 0.0
H1944 H 0.86426 0.64121 0.93737 0.0
H1945 H 0.89545 0.69948 0.97193 0.0
H1946 H 0.88605 0.62147 0.98344 0.0
H1947 H 0.89683 0.62791 0.94957 0.0
H1948 H 0.87129 0.61707 0.95152 0.0
H1949 H 0.92305 0.69154 0.02536 0.0
H1950 H 0.9207 0.70973 0.00631 0.0
H1951 H 0.9358 0.70078 0.99348 0.0
C1952 C 0.3868 0.29319 0.0058 0.0
C1953 C 0.37413 0.29994 -0.00052 0.0
C1954 C 0.38134 0.27368 0.00051 0.0
C1955 C 0.36316 0.261 0.98752 0.0
C1956 C 0.34953 0.26717 0.98481 0.0
C1957 C 0.35514 0.28659 0.9912 0.0
C1958 C 0.39577 0.26725 0.00569 0.0
C1959 C 0.32987 0.25405 0.97142 0.0
C1960 C 0.36083 0.23131 0.92244 0.0
C1961 C 0.34869 0.21241 0.9309 0.0
C1962 C 0.36649 0.24718 0.9413 0.0
C1963 C 0.36032 0.24404 0.96974 0.0
C1964 C 0.34975 0.22485 0.97929 0.0
C1965 C 0.34383 0.20915 0.95955 0.0
C1966 C 0.37781 0.26732 0.92997 0.0
C1967 C 0.34362 0.22078 0.00969 0.0
H1968 H 0.40139 0.30342 0.0129 0.0
H1969 H 0.34524 0.29171 0.98658 0.0
H1970 H 0.38868 0.25197 0.01221 0.0
H1971 H 0.40321 0.26821 0.98568 0.0
H1972 H 0.4067 0.27658 0.02242 0.0
H1973 H 0.32025 0.26012 0.97419 0.0
H1974 H 0.33106 0.25203 0.94819 0.0
H1975 H 0.32325 0.23958 0.98084 0.0
H1976 H 0.36489 0.23374 0.90036 0.0
H1977 H 0.33455 0.19448 0.96615 0.0
H1978 H 0.39126 0.27598 0.94292 0.0
H1979 H 0.36943 0.27486 0.93148 0.0
H1980 H 0.38151 0.26713 0.90733 0.0
H1981 H 0.35368 0.23262 0.0248 0.0
H1982 H 0.3425 0.20695 0.01626 0.0
H1983 H 0.32928 0.21929 0.01135 0.0
C1984 C 0.72193 0.05957 0.03621 0.0
C1985 C 0.70594 0.05144 0.01712 0.0
C1986 C 0.74021 0.07291 0.02708 0.0
C1987 C 0.74254 0.07818 -0.0018 0.0
C1988 C 0.7264 0.07026 0.97897 0.0
C1989 C 0.70834 0.05702 0.98867 0.0
C1990 C 0.75706 0.08107 0.04817 0.0
C1991 C 0.72825 0.07551 0.94794 0.0
C1992 C 0.78337 0.12253 0.96738 0.0
C1993 C 0.79195 0.114 0.95172 0.0
C1994 C 0.76829 0.11139 0.98523 0.0
C1995 C 0.7618 0.09135 0.98729 0.0
C1996 C 0.77201 0.08333 0.97416 0.0
C1997 C 0.78697 0.09478 0.9564 0.0
C1998 C 0.75796 0.12056 -0.00087 0.0
C1999 C 0.76576 0.06212 0.97606 0.0
H2000 H 0.72021 0.05537 0.05827 0.0
H2001 H 0.69609 0.05087 0.97378 0.0
H2002 H 0.76713 0.07615 0.04182 0.0
H2003 H 0.76497 0.09713 0.04806 0.0
H2004 H 0.75269 0.07653 0.07027 0.0
H2005 H 0.71424 0.06845 0.93597 0.0
H2006 H 0.7349 0.09143 0.94628 0.0
H2007 H 0.73771 0.07109 0.93746 0.0
H2008 H 0.78713 0.13736 0.96347 0.0
H2009 H 0.79358 0.08821 0.94408 0.0
H2010 H 0.75382 0.11527 0.02097 0.0
H2011 H 0.74465 0.11652 0.9864 0.0
H2012 H 0.76682 0.13662 0.00036 0.0
H2013 H 0.76202 0.05725 -0.00183 0.0
H2014 H 0.77703 0.05899 0.96916 0.0
H2015 H 0.75281 0.05345 0.96204 0.0
C2016 C 0.63221 0.9312 0.98827 0.0
C2017 C 0.64423 0.95084 0.99616 0.0
C2018 C 0.63746 0.91737 0.99508 0.0
C2019 C 0.65473 0.92334 0.01096 0.0
C2020 C 0.66807 0.94338 0.01501 0.0
C2021 C 0.66273 0.95694 0.00717 0.0
C2022 C 0.62354 0.89623 0.98834 0.0
C2023 C 0.68686 0.95044 0.03128 0.0
C2024 C 0.65286 0.89656 0.07723 0.0
C2025 C 0.66577 0.89019 0.07145 0.0
C2026 C 0.64836 0.90644 0.05701 0.0
C2027 C 0.65648 0.90947 0.0298 0.0
C2028 C 0.66788 0.9012 0.02272 0.0
C2029 C 0.6726 0.8918 0.04383 0.0
C2030 C 0.63604 0.91488 0.06569 0.0
C2031 C 0.67608 0.90318 0.99361 0.0
H2032 H 0.61808 0.92641 0.97896 0.0
H2033 H 0.67226 0.97213 0.01287 0.0
H2034 H 0.63119 0.88824 0.98362 0.0
H2035 H 0.61469 0.88969 0.00707 0.0
H2036 H 0.61381 0.89431 0.96985 0.0
H2037 H 0.69655 0.96629 0.02953 0.0
H2038 H 0.68418 0.94729 0.05421 0.0
H2039 H 0.69421 0.94279 0.02331 0.0
H2040 H 0.64709 0.89478 0.09833 0.0
H2041 H 0.68245 0.88671 0.03915 0.0
H2042 H 0.62346 0.90956 0.05073 0.0
H2043 H 0.64431 0.93091 0.06476 0.0
H2044 H 0.63084 0.91109 0.08766 0.0
H2045 H 0.66719 0.9049 0.9768 0.0
H2046 H 0.67744 0.89035 0.98782 0.0
H2047 H 0.69062 0.91609 0.99398 0.0
C2048 C 0.05514 0.71795 0.06253 0.0
C2049 C 0.0568 0.70353 0.04757 0.0
C2050 C 0.07078 0.73689 0.06588 0.0
C2051 C 0.08826 0.74165 0.05308 0.0
C2052 C 0.08939 0.72748 0.03587 0.0
C2053 C 0.07378 0.70845 0.0339 0.0
C2054 C 0.06903 0.75137 0.085 0.0
C2055 C 0.10741 0.73209 0.02088 0.0
C2056 C 0.12314 0.79582 0.05956 0.0
C2057 C 0.13319 0.79707 0.08502 0.0
C2058 C 0.10968 0.77767 0.04703 0.0
C2059 C 0.1058 0.76052 0.06096 0.0
C2060 C 0.11723 0.7618 0.08523 0.0
C2061 C 0.13099 0.78006 0.09667 0.0
C2062 C 0.09845 0.77695 0.02042 0.0
C2063 C 0.11348 0.74403 0.10118 0.0
H2064 H 0.04208 0.71405 0.07343 0.0
H2065 H 0.07505 0.69725 0.02234 0.0
H2066 H 0.0788 0.75515 0.1041 0.0
H2067 H 0.07334 0.76494 0.07368 0.0
H2068 H 0.05426 0.7457 0.09228 0.0
H2069 H 0.10476 0.72096 0.00397 0.0
H2070 H 0.11361 0.74646 0.01111 0.0
H2071 H 0.1182 0.73269 0.03657 0.0
H2072 H 0.12459 0.80896 0.05082 0.0
H2073 H 0.1385 0.78107 0.11671 0.0
H2074 H 0.08434 0.77479 0.02635 0.0
H2075 H 0.09588 0.76464 0.00588 0.0
H2076 H 0.10595 0.79061 0.00875 0.0
H2077 H 0.09947 0.73797 0.11137 0.0
H2078 H 0.12467 0.74732 0.11808 0.0
H2079 H 0.11272 0.73265 0.08632 0.0
C2080 C 0.31458 0.34775 0.03665 0.0
C2081 C 0.31836 0.35211 0.00788 0.0
C2082 C 0.2984 0.3467 0.04885 0.0
C2083 C 0.28575 0.35022 0.03193 0.0
C2084 C 0.28935 0.35439 0.0028 0.0
C2085 C 0.30556 0.35524 0.99112 0.0
C2086 C 0.29499 0.34212 0.08 0.0
C2087 C 0.27628 0.35834 0.98413 0.0
C2088 C 0.23692 0.33292 0.06256 0.0
C2089 C 0.24004 0.34962 0.07775 0.0
C2090 C 0.25139 0.33308 0.04633 0.0
C2091 C 0.26927 0.35039 0.04521 0.0
C2092 C 0.2719 0.36761 0.05884 0.0
C2093 C 0.25728 0.36698 0.0751 0.0
C2094 C 0.24802 0.31442 0.03209 0.0
C2095 C 0.29061 0.38644 0.05784 0.0
H2096 H 0.32433 0.34524 0.04971 0.0
H2097 H 0.30834 0.35862 0.96885 0.0
H2098 H 0.29556 0.35455 0.09199 0.0
H2099 H 0.28053 0.32944 0.08237 0.0
H2100 H 0.30571 0.33895 0.08989 0.0
H2101 H 0.28061 0.36054 0.96158 0.0
H2102 H 0.26138 0.34613 0.98465 0.0
H2103 H 0.27631 0.37149 0.99245 0.0
H2104 H 0.22368 0.31943 0.06501 0.0
H2105 H 0.25968 0.37986 0.08702 0.0
H2106 H 0.25671 0.30925 0.04353 0.0
H2107 H 0.2526 0.31679 0.00971 0.0
H2108 H 0.23276 0.30287 0.03213 0.0
H2109 H 0.30186 0.38529 0.07019 0.0
H2110 H 0.28964 0.39888 0.06692 0.0
H2111 H 0.29522 0.38949 0.03553 0.0
C2112 C 0.75365 0.69839 0.32029 0.0
C2113 C 0.73757 0.69495 0.33557 0.0
C2114 C 0.76764 0.69473 0.33202 0.0
C2115 C 0.76555 0.68745 0.35976 0.0
C2116 C 0.74956 0.6843 0.37556 0.0
C2117 C 0.73575 0.68808 0.36327 0.0
C2118 C 0.78444 0.69827 0.31449 0.0
C2119 C 0.74684 0.6766 0.40528 0.0
C2120 C 0.78769 0.6575 0.38313 0.0
C2121 C 0.8027 0.67064 0.40158 0.0
C2122 C 0.77613 0.6631 0.36808 0.0
C2123 C 0.77957 0.68227 0.37189 0.0
C2124 C 0.79553 0.69593 0.38909 0.0
C2125 C 0.80693 0.68992 0.40379 0.0
C2126 C 0.75942 0.64812 0.34974 0.0
C2127 C 0.79972 0.7165 0.39366 0.0
H2128 H 0.75526 0.70376 0.29888 0.0
H2129 H 0.72343 0.68542 0.37526 0.0
H2130 H 0.79803 0.70799 0.32659 0.0
H2131 H 0.78411 0.68437 0.3101 0.0
H2132 H 0.78446 0.70483 0.2938 0.0
H2133 H 0.73406 0.67564 0.41515 0.0
H2134 H 0.74527 0.66195 0.40453 0.0
H2135 H 0.75961 0.68606 0.41922 0.0
H2136 H 0.78423 0.64249 0.38195 0.0
H2137 H 0.81827 0.69993 0.41863 0.0
H2138 H 0.75911 0.65388 0.32851 0.0
H2139 H 0.74588 0.64459 0.35999 0.0
H2140 H 0.75992 0.63453 0.34661 0.0
H2141 H 0.79936 0.72285 0.37297 0.0
H2142 H 0.81386 0.72587 0.40467 0.0
H2143 H 0.78855 0.71659 0.40685 0.0
C2144 C 0.32262 0.04717 0.3611 0.0
C2145 C 0.31362 0.03609 0.38469 0.0
C2146 C 0.32728 0.06674 0.36017 0.0
C2147 C 0.32338 0.07547 0.38376 0.0
C2148 C 0.31463 0.06432 0.40782 0.0
C2149 C 0.3096 0.04476 0.40773 0.0
C2150 C 0.33598 0.07789 0.3338 0.0
C2151 C 0.31086 0.07309 0.43404 0.0
C2152 C 0.34819 0.12788 0.40827 0.0
C2153 C 0.33265 0.1311 0.40743 0.0
C2154 C 0.34627 0.11045 0.39724 0.0
C2155 C 0.32856 0.09629 0.38429 0.0
C2156 C 0.3142 0.10117 0.3787 0.0
C2157 C 0.31634 0.11852 0.39063 0.0
C2158 C 0.36207 0.10607 0.40369 0.0
C2159 C 0.29543 0.08689 0.36386 0.0
H2160 H 0.3256 0.04043 0.34316 0.0
H2161 H 0.30286 0.03628 0.42614 0.0
H2162 H 0.32561 0.08112 0.32288 0.0
H2163 H 0.34894 0.09198 0.33956 0.0
H2164 H 0.33984 0.06968 0.31852 0.0
H2165 H 0.30401 0.06243 0.45093 0.0
H2166 H 0.32452 0.08526 0.44311 0.0
H2167 H 0.30145 0.07902 0.42827 0.0
H2168 H 0.36078 0.13756 0.42142 0.0
H2169 H 0.30426 0.12091 0.39001 0.0
H2170 H 0.36349 0.09755 0.38591 0.0
H2171 H 0.35864 0.09732 0.42306 0.0
H2172 H 0.37602 0.11955 0.40784 0.0
H2173 H 0.29761 0.07879 0.3462 0.0
H2174 H 0.28789 0.09423 0.35517 0.0
H2175 H 0.2861 0.07623 0.37938 0.0
C2176 C 0.97825 0.26894 0.37682 0.0
C2177 C 0.97895 0.27418 0.34837 0.0
C2178 C 0.96068 0.25825 0.38985 0.0
C2179 C 0.94343 0.25224 0.37375 0.0
C2180 C 0.94407 0.25684 0.34466 0.0
C2181 C 0.96183 0.268 0.33242 0.0
C2182 C 0.96059 0.25398 0.42111 0.0
C2183 C 0.926 0.25025 0.32661 0.0
C2184 C 0.899 0.21357 0.40821 0.0
C2185 C 0.89263 0.22493 0.4221 0.0
C2186 C 0.91496 0.22211 0.39097 0.0
C2187 C 0.92487 0.24245 0.38804 0.0
C2188 C 0.91777 0.25376 0.40058 0.0
C2189 C 0.90159 0.24481 0.41709 0.0
C2190 C 0.9218 0.20952 0.3772 0.0
C2191 C 0.92795 0.2755 0.39813 0.0
H2192 H 0.99147 0.27373 0.38917 0.0
H2193 H 0.96233 0.2718 0.31025 0.0
H2194 H 0.95387 0.26094 0.43326 0.0
H2195 H 0.95195 0.23816 0.42405 0.0
H2196 H 0.97521 0.25928 0.43042 0.0
H2197 H 0.92893 0.25344 0.30373 0.0
H2198 H 0.91628 0.23444 0.3284 0.0
H2199 H 0.91833 0.25761 0.33446 0.0
H2200 H 0.89218 0.19822 0.41204 0.0
H2201 H 0.89646 0.25358 0.42731 0.0
H2202 H 0.93517 0.21212 0.38839 0.0
H2203 H 0.9251 0.21323 0.35456 0.0
H2204 H 0.91107 0.19386 0.37803 0.0
H2205 H 0.94233 0.28207 0.40887 0.0
H2206 H 0.92002 0.28204 0.40798 0.0
H2207 H 0.93003 0.27939 0.3754 0.0
C2208 C 0.02023 0.37545 0.31642 0.0
C2209 C 0.03001 0.37427 0.29284 0.0
C2210 C 0.01515 0.38995 0.31865 0.0
C2211 C 0.01915 0.40286 0.29609 0.0
C2212 C 0.02889 0.40149 0.27214 0.0
C2213 C 0.0345 0.3875 0.27115 0.0
C2214 C 0.0053 0.39109 0.34493 0.0
C2215 C 0.0329 0.41441 0.24699 0.0
C2216 C 0.99223 0.42688 0.27065 0.0
C2217 C 0.00712 0.4462 0.27189 0.0
C2218 C 0.99487 0.41228 0.28226 0.0
C2219 C 0.01262 0.41735 0.29601 0.0
C2220 C 0.02603 0.43715 0.30224 0.0
C2221 C 0.02324 0.45146 0.2897 0.0
C2222 C 0.97995 0.39141 0.2757 0.0
C2223 C 0.04455 0.44314 0.31858 0.0
H2224 H 0.01683 0.36526 0.3333 0.0
H2225 H 0.04188 0.38645 0.25277 0.0
H2226 H 0.00828 0.40605 0.34976 0.0
H2227 H 0.98964 0.38156 0.34148 0.0
H2228 H 0.00978 0.38593 0.36383 0.0
H2229 H 0.04033 0.41122 0.22989 0.0
H2230 H 0.01929 0.41249 0.23768 0.0
H2231 H 0.04191 0.42984 0.25405 0.0
H2232 H 0.97969 0.42288 0.25698 0.0
H2233 H 0.03473 0.46642 0.29087 0.0
H2234 H 0.97794 0.38253 0.29457 0.0
H2235 H 0.98477 0.38553 0.25812 0.0
H2236 H 0.96596 0.38985 0.26897 0.0
H2237 H 0.04228 0.43317 0.33616 0.0
H2238 H 0.05102 0.45819 0.32762 0.0
H2239 H 0.05484 0.44248 0.30398 0.0
C2240 C 0.61768 0.63058 0.28354 0.0
C2241 C 0.63154 0.64014 0.30556 0.0
C2242 C 0.60485 0.61066 0.2838 0.0
C2243 C 0.60552 0.59991 0.3071 0.0
C2244 C 0.6195 0.60944 0.32952 0.0
C2245 C 0.63253 0.62949 0.32835 0.0
C2246 C 0.59077 0.60113 0.25871 0.0
C2247 C 0.62041 0.59867 0.35505 0.0
C2248 C 0.5575 0.55515 0.3019 0.0
C2249 C 0.56135 0.54421 0.28223 0.0
C2250 C 0.57249 0.57238 0.31458 0.0
C2251 C 0.59151 0.57871 0.30689 0.0
C2252 C 0.59551 0.56585 0.29126 0.0
C2253 C 0.58029 0.54858 0.27926 0.0
C2254 C 0.56768 0.58522 0.33233 0.0
C2255 C 0.61556 0.57171 0.28306 0.0
H2256 H 0.61705 0.6387 0.26567 0.0
H2257 H 0.64317 0.6369 0.34551 0.0
H2258 H 0.59328 0.59009 0.24808 0.0
H2259 H 0.57592 0.59366 0.26609 0.0
H2260 H 0.59199 0.61166 0.24256 0.0
H2261 H 0.63422 0.60696 0.3674 0.0
H2262 H 0.60874 0.59621 0.36937 0.0
H2263 H 0.61833 0.58427 0.34855 0.0
H2264 H 0.54285 0.55175 0.30431 0.0
H2265 H 0.58324 0.54004 0.26408 0.0
H2266 H 0.56714 0.5961 0.31851 0.0
H2267 H 0.57875 0.59315 0.34955 0.0
H2268 H 0.55354 0.57673 0.34201 0.0
H2269 H 0.61931 0.58117 0.26445 0.0
H2270 H 0.61686 0.55889 0.27698 0.0
H2271 H 0.62607 0.58001 0.30077 0.0
C2272 C 0.38987 0.99164 0.37223 0.0
C2273 C 0.37494 0.99132 0.35577 0.0
C2274 C 0.40629 0.99369 0.35951 0.0
C2275 C 0.40782 0.99542 0.32961 0.0
C2276 C 0.39285 0.99517 0.31286 0.0
C2277 C 0.3766 0.99316 0.32615 0.0
C2278 C 0.42198 0.99401 0.37807 0.0
C2279 C 0.39398 0.99698 0.28085 0.0
C2280 C 0.45522 0.01879 0.29347 0.0
C2281 C 0.45508 0.00262 0.28103 0.0
C2282 C 0.44049 0.01662 0.31094 0.0
C2283 C 0.42517 0.9978 0.31568 0.0
C2284 C 0.4257 0.98137 0.30473 0.0
C2285 C 0.44072 0.984 0.28746 0.0
C2286 C 0.4406 0.0345 0.32246 0.0
C2287 C 0.40967 0.96108 0.30935 0.0
H2288 H 0.38873 0.99024 0.39515 0.0
H2289 H 0.36513 0.99287 0.31329 0.0
H2290 H 0.42447 0.98209 0.37114 0.0
H2291 H 0.43555 0.00781 0.37566 0.0
H2292 H 0.41857 0.99247 0.40102 0.0
H2293 H 0.38106 0.99632 0.27088 0.0
H2294 H 0.40667 0.0109 0.27561 0.0
H2295 H 0.39574 0.98518 0.27115 0.0
H2296 H 0.46623 0.03318 0.28801 0.0
H2297 H 0.44048 0.97154 0.27728 0.0
H2298 H 0.43729 0.03315 0.34542 0.0
H2299 H 0.42937 0.03613 0.31091 0.0
H2300 H 0.45458 0.04785 0.31991 0.0
H2301 H 0.40608 0.95921 0.33219 0.0
H2302 H 0.41332 0.94994 0.30247 0.0
H2303 H 0.39668 0.95848 0.29696 0.0
C2304 C 0.62072 0.99186 0.31591 0.0
C2305 C 0.62649 0.99629 0.34484 0.0
C2306 C 0.60553 0.9938 0.30452 0.0
C2307 C 0.59587 1.00038 0.32245 0.0
C2308 C 0.60182 0.00516 0.35154 0.0
C2309 C 0.61701 0.00304 0.36238 0.0
C2310 C 0.59963 0.98857 0.27332 0.0
C2311 C 0.592 0.01231 0.37131 0.0
C2312 C 0.56757 0.01913 0.28177 0.0
C2313 C 0.54943 0.00253 0.27931 0.0
C2314 C 0.5826 0.01909 0.29741 0.0
C2315 C 0.57939 1.00195 0.31063 0.0
C2316 C 0.56068 0.98565 0.31003 0.0
C2317 C 0.54592 0.98613 0.29428 0.0
C2318 C 0.60224 0.03685 0.29771 0.0
C2319 C 0.55659 0.96713 0.32393 0.0
H2320 H 0.62792 0.98663 0.3022 0.0
H2321 H 0.62135 0.00656 0.38477 0.0
H2322 H 0.58456 0.97666 0.2712 0.0
H2323 H 0.60049 1.00118 0.26238 0.0
H2324 H 0.60872 0.98392 0.26216 0.0
H2325 H 0.59868 0.01593 0.39321 0.0
H2326 H 0.59242 0.02537 0.36272 0.0
H2327 H 0.57673 1.00107 0.37263 0.0
H2328 H 0.57037 0.03163 0.26955 0.0
H2329 H 0.53201 0.97314 0.29172 0.0
H2330 H 0.61151 0.03403 0.28366 0.0
H2331 H 0.60895 0.04024 0.31955 0.0
H2332 H 0.60181 0.04972 0.29002 0.0
H2333 H 0.56328 0.96014 0.31174 0.0
H2334 H 0.54102 0.95671 0.32462 0.0
H2335 H 0.56288 0.97019 0.34603 0.0
C2336 C 0.05728 0.64153 0.31274 0.0
C2337 C 0.04394 0.64489 0.29813 0.0
C2338 C 0.05531 0.62297 0.31224 0.0
C2339 C 0.04028 0.6078 0.29542 0.0
C2340 C 0.02655 0.61113 0.28117 0.0
C2341 C 0.02834 0.62955 0.28326 0.0
C2342 C 0.06974 0.61988 0.32881 0.0
C2343 C 0.01061 0.59561 0.26223 0.0
C2344 C 0.04446 0.56885 0.25512 0.0
C2345 C 0.02953 0.55222 0.26649 0.0
C2346 C 0.04951 0.58733 0.26615 0.0
C2347 C 0.03981 0.5891 0.28977 0.0
C2348 C 0.02684 0.57226 0.30398 0.0
C2349 C 0.02153 0.55389 0.2918 0.0
C2350 C 0.06324 0.60478 0.24999 0.0
C2351 C 0.01705 0.57357 0.33021 0.0
H2352 H 0.06931 0.65345 0.32436 0.0
H2353 H 0.01816 0.63227 0.27177 0.0
H2354 H 0.06296 0.60521 0.33769 0.0
H2355 H 0.08099 0.62122 0.31442 0.0
H2356 H 0.07678 0.63085 0.34661 0.0
H2357 H 1.00114 0.60057 0.25271 0.0
H2358 H 0.01672 0.59117 0.24463 0.0
H2359 H 1.00177 0.58259 0.27461 0.0
H2360 H 0.05044 0.56748 0.23532 0.0
H2361 H 0.00987 0.54102 0.30046 0.0
H2362 H 0.07375 0.61644 0.26485 0.0
H2363 H 0.05516 0.61058 0.23837 0.0
H2364 H 0.07113 0.60116 0.23422 0.0
H2365 H 0.02704 0.58612 0.34435 0.0
H2366 H 0.01133 0.56013 0.34247 0.0
H2367 H 0.00493 0.57566 0.32373 0.0
C2368 C 0.38436 0.40725 0.35613 0.0
C2369 C 0.369 0.40018 0.33603 0.0
C2370 C 0.40313 0.41987 0.34824 0.0
C2371 C 0.40664 0.42497 0.31939 0.0
C2372 C 0.39113 0.41794 0.29906 0.0
C2373 C 0.37244 0.40588 0.30776 0.0
C2374 C 0.4192 0.42757 0.37066 0.0
C2375 C 0.39433 0.42268 0.26792 0.0
C2376 C 0.45177 0.46619 0.29068 0.0
C2377 C 0.46016 0.45599 0.27925 0.0
C2378 C 0.43505 0.45659 0.3062 0.0
C2379 C 0.42654 0.43636 0.30974 0.0
C2380 C 0.43605 0.4265 0.30059 0.0
C2381 C 0.45292 0.43654 0.28584 0.0
C2382 C 0.4257 0.46774 0.31664 0.0
C2383 C 0.42746 0.40493 0.30369 0.0
H2384 H 0.38166 0.40311 0.37816 0.0
H2385 H 0.36055 0.40042 0.29226 0.0
H2386 H 0.42867 0.42153 0.36644 0.0
H2387 H 0.42805 0.44356 0.36978 0.0
H2388 H 0.41387 0.42381 0.39257 0.0
H2389 H 0.38074 0.41613 0.25489 0.0
H2390 H 0.40189 0.4386 0.26564 0.0
H2391 H 0.40353 0.41732 0.25911 0.0
H2392 H 0.45734 0.48124 0.28562 0.0
H2393 H 0.45959 0.42873 0.27723 0.0
H2394 H 0.42006 0.46322 0.3382 0.0
H2395 H 0.41345 0.46466 0.30196 0.0
H2396 H 0.4358 0.48362 0.31745 0.0
H2397 H 0.42296 0.40084 0.32582 0.0
H2398 H 0.43757 0.39988 0.29812 0.0
H2399 H 0.41451 0.39713 0.28935 0.0
C2400 C 0.32329 0.29749 0.38971 0.0
C2401 C 0.30729 0.2963 0.37555 0.0
C2402 C 0.32493 0.28092 0.3929 0.0
C2403 C 0.31059 0.2629 0.38054 0.0
C2404 C 0.29553 0.26215 0.36344 0.0
C2405 C 0.29374 0.27877 0.36183 0.0
C2406 C 0.34103 0.28241 0.41187 0.0
C2407 C 0.28061 0.2436 0.34839 0.0
C2408 C 0.32512 0.22526 0.39389 0.0
C2409 C 0.31653 0.21842 0.41994 0.0
C2410 C 0.3215 0.23817 0.37852 0.0
C2411 C 0.30964 0.24476 0.39021 0.0
C2412 C 0.29938 0.23613 0.41488 0.0
C2413 C 0.3027 0.22278 0.42909 0.0
C2414 C 0.33165 0.24599 0.35122 0.0
C2415 C 0.28666 0.24268 0.42835 0.0
H2416 H 0.33371 0.31102 0.40044 0.0
H2417 H 0.28144 0.2779 0.35059 0.0
H2418 H 0.3351 0.27378 0.43111 0.0
H2419 H 0.34887 0.27638 0.40051 0.0
H2420 H 0.35138 0.2976 0.41895 0.0
H2421 H 0.27438 0.24663 0.32913 0.0
H2422 H 0.28665 0.23435 0.3419 0.0
H2423 H 0.26882 0.23531 0.36293 0.0
H2424 H 0.33576 0.22181 0.38673 0.0
H2425 H 0.29599 0.21731 0.44919 0.0
H2426 H 0.34515 0.25978 0.35602 0.0
H2427 H 0.32276 0.24896 0.33602 0.0
H2428 H 0.33531 0.23569 0.34079 0.0
H2429 H 0.29541 0.25803 0.43606 0.0
H2430 H 0.27903 0.23383 0.44671 0.0
H2431 H 0.2759 0.24185 0.41244 0.0
C2432 C 0.74055 0.04889 0.39471 0.0
C2433 C 0.72746 0.0403 0.37151 0.0
C2434 C 0.75277 0.06895 0.3972 0.0
C2435 C 0.75239 0.08086 0.37543 0.0
C2436 C 0.73941 0.07228 0.35158 0.0
C2437 C 0.72686 0.05205 0.3501 0.0
C2438 C 0.76578 0.07738 0.42366 0.0
C2439 C 0.73904 0.08433 0.32745 0.0
C2440 C 0.77298 0.13022 0.41008 0.0
C2441 C 0.79248 0.13626 0.40895 0.0
C2442 C 0.75922 0.11314 0.39553 0.0
C2443 C 0.76527 0.10226 0.37903 0.0
C2444 C 0.78492 0.11044 0.37347 0.0
C2445 C 0.79841 0.12735 0.38883 0.0
C2446 C 0.73846 0.10523 0.40186 0.0
C2447 C 0.7919 0.09982 0.3548 0.0
H2448 H 0.74087 0.0399 0.41151 0.0
H2449 H 0.71683 0.04539 0.33202 0.0
H2450 H 0.78092 0.08551 0.41766 0.0
H2451 H 0.7626 0.08769 0.43514 0.0
H2452 H 0.76414 0.06608 0.43866 0.0
H2453 H 0.72616 0.07614 0.31305 0.0
H2454 H 0.73951 0.0977 0.33568 0.0
H2455 H 0.75189 0.08885 0.31469 0.0
H2456 H 0.76841 0.1372 0.4256 0.0
H2457 H 0.81349 0.13205 0.38783 0.0
H2458 H 0.73449 0.09452 0.41886 0.0
H2459 H 0.72907 0.0977 0.38275 0.0
H2460 H 0.73572 0.11687 0.40946 0.0
H2461 H 0.79279 0.08863 0.36735 0.0
H2462 H 0.80632 0.10983 0.34697 0.0
H2463 H 0.78186 0.09241 0.33623 0.0
C2464 C 0.95471 0.66612 0.30928 0.0
C2465 C 0.97198 0.67306 0.3252 0.0
C2466 C 0.93803 0.66309 0.32232 0.0
C2467 C 0.93867 0.66718 0.35196 0.0
C2468 C 0.95594 0.67378 0.36826 0.0
C2469 C 0.97237 0.67659 0.3547 0.0
C2470 C 0.91983 0.65585 0.30434 0.0
C2471 C 0.95718 0.67829 0.39997 0.0
C2472 C 0.90437 0.67985 0.38697 0.0
C2473 C 0.89323 0.66309 0.40191 0.0
C2474 C 0.91851 0.68098 0.36902 0.0
C2475 C 0.92145 0.66493 0.36611 0.0
C2476 C 0.90916 0.64746 0.3795 0.0
C2477 C 0.89525 0.64681 0.39746 0.0
C2478 C 0.9313 0.69985 0.35509 0.0
C2479 C 0.91167 0.62998 0.3767 0.0
H2480 H 0.95425 0.6633 0.28647 0.0
H2481 H 0.98564 0.68197 0.36714 0.0
H2482 H 0.90813 0.64261 0.31342 0.0
H2483 H 0.91537 0.66694 0.30455 0.0
H2484 H 0.92149 0.6525 0.28182 0.0
H2485 H 0.9716 0.68303 0.40963 0.0
H2486 H 0.95369 0.68992 0.40398 0.0
H2487 H 0.94656 0.66531 0.41102 0.0
H2488 H 0.90295 0.69251 0.39095 0.0
H2489 H 0.88675 0.63397 0.40947 0.0
H2490 H 0.93291 0.69725 0.33225 0.0
H2491 H 0.94575 0.70687 0.3657 0.0
H2492 H 0.92573 0.71005 0.35659 0.0
H2493 H 0.91348 0.62708 0.35408 0.0
H2494 H 0.89934 0.6168 0.38491 0.0
H2495 H 0.92478 0.63282 0.38899 0.0
C2496 C 0.40506 0.01705 0.63105 0.0
C2497 C 0.39134 0.01644 0.64952 0.0
C2498 C 0.42066 0.01543 0.64139 0.0
C2499 C 0.42266 0.01322 0.67092 0.0
C2500 C 0.4089 0.01265 0.68969 0.0
C2501 C 0.39342 0.01422 0.67877 0.0
C2502 C 0.43495 0.01601 0.62071 0.0
C2503 C 0.41052 0.01034 0.72138 0.0
C2504 C 0.44982 0.99041 0.70307 0.0
C2505 C 0.46575 0.00662 0.71599 0.0
C2506 C 0.4364 0.99245 0.68619 0.0
C2507 C 0.43889 0.01116 0.68252 0.0
C2508 C 0.45586 0.02767 0.69343 0.0
C2509 C 0.46913 0.02518 0.71007 0.0
C2510 C 0.41868 0.97447 0.67467 0.0
C2511 C 0.45913 0.04786 0.68994 0.0
H2512 H 0.4036 0.01876 0.6084 0.0
H2513 H 0.38296 0.01377 0.69323 0.0
H2514 H 0.44947 0.02801 0.62702 0.0
H2515 H 0.43542 0.00235 0.62139 0.0
H2516 H 0.43147 0.01799 0.5984 0.0
H2517 H 0.39881 0.01045 0.73314 0.0
H2518 H 0.4102 0.9965 0.72522 0.0
H2519 H 0.42438 0.02222 0.7304 0.0
H2520 H 0.44709 0.97605 0.70809 0.0
H2521 H 0.48125 0.03768 0.72057 0.0
H2522 H 0.41522 0.97629 0.6523 0.0
H2523 H 0.40637 0.97193 0.6876 0.0
H2524 H 0.42028 0.96144 0.67543 0.0
H2525 H 0.45564 0.04982 0.66767 0.0
H2526 H 0.47413 0.05912 0.69563 0.0
H2527 H 0.44956 0.05017 0.70405 0.0
C2528 C 0.9802 0.38023 0.69291 0.0
C2529 C 0.97426 0.37006 0.71814 0.0
C2530 C 0.98561 0.39999 0.69243 0.0
C2531 C 0.98601 0.4099 0.71814 0.0
C2532 C 0.98022 0.39958 0.74372 0.0
C2533 C 0.97402 0.37974 0.7432 0.0
C2534 C 0.99108 0.41007 0.66446 0.0
C2535 C 0.98102 0.40957 0.77195 0.0
C2536 C 0.01835 0.46216 0.73956 0.0
C2537 C 0.00464 0.46732 0.7464 0.0
C2538 C 0.01284 0.44402 0.72661 0.0
C2539 C 0.99328 0.43118 0.71951 0.0
C2540 C 0.98016 0.43802 0.72114 0.0
C2541 C 0.98595 0.45603 0.73501 0.0
C2542 C 0.02743 0.43756 0.72474 0.0
C2543 C 0.95947 0.42529 0.71174 0.0
H2544 H 0.98027 0.37267 0.67346 0.0
H2545 H 0.96956 0.37186 0.76274 0.0
H2546 H 0.98849 0.42247 0.6638 0.0
H2547 H 0.00648 0.41558 0.66139 0.0
H2548 H 0.98299 0.39982 0.64625 0.0
H2549 H 0.9769 0.39962 0.79002 0.0
H2550 H 0.99569 0.42185 0.77664 0.0
H2551 H 0.97127 0.41558 0.77086 0.0
H2552 H 0.03288 0.47106 0.74811 0.0
H2553 H 0.97534 0.46006 0.73997 0.0
H2554 H 0.02585 0.42994 0.70394 0.0
H2555 H 0.0251 0.42723 0.74182 0.0
H2556 H 0.04228 0.44994 0.72738 0.0
H2557 H 0.95814 0.41667 0.69202 0.0
H2558 H 0.95242 0.43397 0.70779 0.0
H2559 H 0.95179 0.41502 0.72872 0.0
C2560 C 0.63521 0.60954 0.69163 0.0
C2561 C 0.63714 0.6099 0.66199 0.0
C2562 C 0.61759 0.59728 0.70358 0.0
C2563 C 0.60148 0.58515 0.68542 0.0
C2564 C 0.60337 0.58528 0.6555 0.0
C2565 C 0.62119 0.59764 0.64414 0.0
C2566 C 0.61615 0.59749 0.73565 0.0
C2567 C 0.5865 0.57263 0.63551 0.0
C2568 C 0.56123 0.54453 0.72412 0.0
C2569 C 0.55068 0.55333 0.73198 0.0
C2570 C 0.57722 0.55421 0.70721 0.0
C2571 C 0.58257 0.57301 0.69798 0.0
C2572 C 0.57089 0.58114 0.70381 0.0
C2573 C 0.55512 0.57122 0.72091 0.0
C2574 C 0.58928 0.54504 0.70136 0.0
C2575 C 0.57593 0.60101 0.69406 0.0
H2576 H 0.64747 0.61889 0.70556 0.0
H2577 H 0.62254 0.59781 0.62118 0.0
H2578 H 0.60594 0.60233 0.74157 0.0
H2579 H 0.61054 0.58266 0.74351 0.0
H2580 H 0.63015 0.60725 0.7468 0.0
H2581 H 0.59052 0.57383 0.61283 0.0
H2582 H 0.58001 0.55725 0.64131 0.0
H2583 H 0.57535 0.57677 0.6376 0.0
H2584 H 0.5579 0.53079 0.73304 0.0
H2585 H 0.54694 0.578 0.7272 0.0
H2586 H 0.60268 0.55256 0.71478 0.0
H2587 H 0.59334 0.54658 0.67872 0.0
H2588 H 0.58176 0.52942 0.70622 0.0
H2589 H 0.58872 0.61215 0.70654 0.0
H2590 H 0.56409 0.60408 0.69698 0.0
H2591 H 0.57954 0.60249 0.67122 0.0
C2592 C 0.68654 0.71104 0.63794 0.0
C2593 C 0.70366 0.71414 0.65093 0.0
C2594 C 0.68351 0.72662 0.63307 0.0
C2595 C 0.69765 0.74561 0.64248 0.0
C2596 C 0.71379 0.74834 0.65892 0.0
C2597 C 0.7169 0.73264 0.66226 0.0
C2598 C 0.66618 0.72298 0.6151 0.0
C2599 C 0.72852 0.76806 0.67108 0.0
C2600 C 0.70257 0.78151 0.58766 0.0
C2601 C 0.68892 0.7863 0.59623 0.0
C2602 C 0.70662 0.76933 0.60373 0.0
C2603 C 0.6974 0.76246 0.62975 0.0
C2604 C 0.68569 0.76953 0.64048 0.0
C2605 C 0.6813 0.78119 0.62329 0.0
C2606 C 0.71914 0.76219 0.59117 0.0
C2607 C 0.67659 0.76362 0.66897 0.0
H2608 H 0.67633 0.69674 0.62912 0.0
H2609 H 0.73005 0.735 0.67268 0.0
H2610 H 0.65852 0.72946 0.62581 0.0
H2611 H 0.67078 0.72996 0.59428 0.0
H2612 H 0.65603 0.70728 0.61092 0.0
H2613 H 0.73638 0.76684 0.68995 0.0
H2614 H 0.73907 0.77606 0.65473 0.0
H2615 H 0.7218 0.77672 0.6774 0.0
H2616 H 0.70873 0.78582 0.56692 0.0
H2617 H 0.67087 0.78505 0.63012 0.0
H2618 H 0.71054 0.74634 0.58647 0.0
H2619 H 0.73082 0.76476 0.60664 0.0
H2620 H 0.72562 0.76941 0.5711 0.0
H2621 H 0.66268 0.74999 0.66606 0.0
H2622 H 0.67381 0.77485 0.67832 0.0
H2623 H 0.68573 0.76108 0.68429 0.0
C2624 C 0.28568 0.95097 0.64055 0.0
C2625 C 0.28371 0.96449 0.65743 0.0
C2626 C 0.27051 0.93185 0.63667 0.0
C2627 C 0.25328 0.92601 0.65094 0.0
C2628 C 0.25223 0.939 0.67085 0.0
C2629 C 0.2673 0.95828 0.67333 0.0
C2630 C 0.27223 0.91862 0.6149 0.0
C2631 C 0.23462 0.93307 0.68775 0.0
C2632 C 0.21128 0.89209 0.60255 0.0
C2633 C 0.20935 0.87419 0.6092 0.0
C2634 C 0.2245 0.90908 0.61772 0.0
C2635 C 0.23563 0.90799 0.64068 0.0
C2636 C 0.23174 0.88961 0.64995 0.0
C2637 C 0.21882 0.87284 0.63371 0.0
C2638 C 0.22816 0.9283 0.60682 0.0
C2639 C 0.24247 0.88771 0.67527 0.0
H2640 H 0.2983 0.95582 0.62808 0.0
H2641 H 0.26582 0.96874 0.68655 0.0
H2642 H 0.26812 0.90443 0.62412 0.0
H2643 H 0.26232 0.91588 0.5963 0.0
H2644 H 0.28695 0.92489 0.60711 0.0
H2645 H 0.238 0.94237 0.70746 0.0
H2646 H 0.2239 0.93462 0.67461 0.0
H2647 H 0.22805 0.91771 0.69374 0.0
H2648 H 0.20406 0.89306 0.58337 0.0
H2649 H 0.21743 0.85899 0.6387 0.0
H2650 H 0.24251 0.93596 0.5976 0.0
H2651 H 0.22804 0.93765 0.62453 0.0
H2652 H 0.21739 0.92657 0.59009 0.0
H2653 H 0.25623 0.8894 0.66834 0.0
H2654 H 0.23422 0.87324 0.68463 0.0
H2655 H 0.24569 0.89907 0.69205 0.0
C2656 C 0.04728 0.32214 0.69501 0.0
C2657 C 0.03341 0.32508 0.68105 0.0
C2658 C 0.06307 0.32393 0.68065 0.0
C2659 C 0.06513 0.32891 0.65166 0.0
C2660 C 0.05148 0.33243 0.63764 0.0
C2661 C 0.03573 0.3304 0.65248 0.0
C2662 C 0.07724 0.31994 0.69624 0.0
C2663 C 0.05329 0.33791 0.60675 0.0
C2664 C 0.11238 0.34751 0.61538 0.0
C2665 C 0.10877 0.33118 0.59873 0.0
C2666 C 0.09858 0.34684 0.63371 0.0
C2667 C 0.08091 0.32936 0.63541 0.0
C2668 C 0.07779 0.31252 0.61996 0.0
C2669 C 0.09173 0.31368 0.60161 0.0
C2670 C 0.1024 0.3651 0.64978 0.0
C2671 C 0.0593 0.29353 0.62152 0.0
H2672 H 0.04563 0.31804 0.71712 0.0
H2673 H 0.02514 0.33278 0.6416 0.0
H2674 H 0.07689 0.30702 0.68624 0.0
H2675 H 0.09195 0.33231 0.69452 0.0
H2676 H 0.07418 0.3173 0.71921 0.0
H2677 H 0.0421 0.34123 0.59945 0.0
H2678 H 0.06752 0.35075 0.6036 0.0
H2679 H 0.05216 0.32586 0.593 0.0
H2680 H 0.12547 0.3611 0.6127 0.0
H2681 H 0.08896 0.30113 0.58846 0.0
H2682 H 0.09901 0.36221 0.67257 0.0
H2683 H 0.093 0.37025 0.6407 0.0
H2684 H 0.11749 0.37686 0.64853 0.0
H2685 H 0.05584 0.28981 0.64411 0.0
H2686 H 0.05988 0.28142 0.61035 0.0
H2687 H 0.04745 0.29489 0.61159 0.0
C2688 C 0.25464 0.30915 0.6852 0.0
C2689 C 0.2714 0.31348 0.67111 0.0
C2690 C 0.24076 0.31272 0.67279 0.0
C2691 C 0.24362 0.3208 0.64553 0.0
C2692 C 0.26029 0.32483 0.63088 0.0
C2693 C 0.27399 0.32114 0.64385 0.0
C2694 C 0.22324 0.30826 0.68915 0.0
C2695 C 0.26383 0.33339 0.6017 0.0
C2696 C 0.20264 0.31858 0.60041 0.0
C2697 C 0.20623 0.33761 0.60396 0.0
C2698 C 0.21422 0.3126 0.6147 0.0
C2699 C 0.22969 0.326 0.63294 0.0
C2700 C 0.23253 0.34485 0.63794 0.0
C2701 C 0.22084 0.35045 0.62326 0.0
C2702 C 0.21067 0.29236 0.60882 0.0
C2703 C 0.24867 0.35953 0.65744 0.0
H2704 H 0.25241 0.30317 0.70624 0.0
H2705 H 0.28684 0.32447 0.63276 0.0
H2706 H 0.22311 0.32186 0.69409 0.0
H2707 H 0.21011 0.29869 0.67596 0.0
H2708 H 0.22267 0.30112 0.7095 0.0
H2709 H 0.27704 0.33487 0.59259 0.0
H2710 H 0.25155 0.32419 0.58679 0.0
H2711 H 0.26514 0.34792 0.60308 0.0
H2712 H 0.19163 0.30881 0.58497 0.0
H2713 H 0.22379 0.36527 0.62559 0.0
H2714 H 0.2105 0.28536 0.62911 0.0
H2715 H 0.22247 0.29308 0.59629 0.0
H2716 H 0.19696 0.28312 0.59663 0.0
H2717 H 0.24847 0.35327 0.67844 0.0
H2718 H 0.24791 0.37295 0.66098 0.0
H2719 H 0.26255 0.3635 0.64798 0.0
C2720 C 0.70335 0.9525 0.63413 0.0
C2721 C 0.69941 0.96113 0.65724 0.0
C2722 C 0.69518 0.93238 0.63129 0.0
C2723 C 0.68342 0.92051 0.65294 0.0
C2724 C 0.6801 0.92926 0.67715 0.0
C2725 C 0.68773 0.9495 0.67862 0.0
C2726 C 0.69857 0.92388 0.60438 0.0
C2727 C 0.66827 0.91751 0.7013 0.0
C2728 C 0.65128 0.8726 0.61642 0.0
C2729 C 0.66424 0.86582 0.61441 0.0
C2730 C 0.65604 0.88941 0.63285 0.0
C2731 C 0.67382 0.89907 0.64826 0.0
C2732 C 0.68471 0.88971 0.65126 0.0
C2733 C 0.67997 0.87325 0.6338 0.0
C2734 C 0.64356 0.89842 0.62988 0.0
C2735 C 0.70282 0.89864 0.6697 0.0
H2736 H 0.71219 0.9615 0.61741 0.0
H2737 H 0.68471 0.95622 0.69656 0.0
H2738 H 0.70636 0.91614 0.60977 0.0
H2739 H 0.68472 0.91323 0.59366 0.0
H2740 H 0.70702 0.9351 0.58889 0.0
H2741 H 0.6747 0.92528 0.72212 0.0
H2742 H 0.6538 0.91577 0.69911 0.0
H2743 H 0.66686 0.90295 0.70177 0.0
H2744 H 0.63882 0.86649 0.60192 0.0
H2745 H 0.68984 0.86779 0.63282 0.0
H2746 H 0.65059 0.9112 0.61628 0.0
H2747 H 0.64161 0.9035 0.65106 0.0
H2748 H 0.62927 0.88811 0.62 0.0
H2749 H 0.71476 0.90979 0.65763 0.0
H2750 H 0.70661 0.88758 0.67598 0.0
H2751 H 0.70133 0.90582 0.68923 0.0
C2752 C 0.05819 0.72762 0.70175 0.0
C2753 C 0.04042 0.72008 0.68707 0.0
C2754 C 0.07533 0.73907 0.68798 0.0
C2755 C 0.07466 0.74313 0.65888 0.0
C2756 C 0.05676 0.73567 0.64399 0.0
C2757 C 0.03987 0.7242 0.65824 0.0
C2758 C 0.09414 0.74667 0.70446 0.0
C2759 C 0.05544 0.73973 0.61292 0.0
C2760 C 0.11524 0.7851 0.62258 0.0
C2761 C 0.12187 0.77529 0.60543 0.0
C2762 C 0.10058 0.77498 0.64158 0.0
C2763 C 0.09257 0.75468 0.64346 0.0
C2764 C 0.1004 0.74507 0.62791 0.0
C2765 C 0.11491 0.7555 0.60894 0.0
C2766 C 0.09264 0.78575 0.65783 0.0
C2767 C 0.09249 0.72351 0.6296 0.0
H2768 H 0.05876 0.72451 0.72405 0.0
H2769 H 0.02621 0.7185 0.64676 0.0
H2770 H 0.1027 0.74095 0.69443 0.0
H2771 H 0.10255 0.76269 0.70376 0.0
H2772 H 0.0922 0.74255 0.72715 0.0
H2773 H 0.04042 0.73327 0.60465 0.0
H2774 H 0.06284 0.75559 0.61002 0.0
H2775 H 0.06273 0.73381 0.5998 0.0
H2776 H 0.12052 0.80038 0.6196 0.0
H2777 H 0.12009 0.74796 0.5956 0.0
H2778 H 0.09072 0.78162 0.68048 0.0
H2779 H 0.07837 0.7818 0.6484 0.0
H2780 H 0.10202 0.80171 0.6571 0.0
H2781 H 0.09084 0.7192 0.65217 0.0
H2782 H 0.10175 0.71876 0.61923 0.0
H2783 H 0.0781 0.71567 0.6188 0.0
C2784 C 0.98752 0.62435 0.72059 0.0
C2785 C 0.97077 0.62196 0.70728 0.0
C2786 C 0.98976 0.6083 0.72561 0.0
C2787 C 0.9752 0.58954 0.71597 0.0
C2788 C 0.95939 0.58747 0.69934 0.0
C2789 C 0.95707 0.60366 0.69589 0.0
C2790 C 0.00674 0.61124 0.74386 0.0
C2791 C 0.94419 0.56802 0.68699 0.0
C2792 C 0.99082 0.55351 0.73491 0.0
C2793 C 0.98341 0.5487 0.76215 0.0
C2794 C 0.98637 0.56506 0.71758 0.0
C2795 C 0.97485 0.57233 0.72836 0.0
C2796 C 0.96561 0.56552 0.75439 0.0
C2797 C 0.96972 0.55345 0.77064 0.0
C2798 C 0.99538 0.57082 0.68901 0.0
C2799 C 0.95319 0.5728 0.76689 0.0
H2800 H 0.99807 0.6385 0.72949 0.0
H2801 H 0.94418 0.60185 0.68526 0.0
H2802 H 1.00178 0.60406 0.76446 0.0
H2803 H 0.01419 0.60454 0.73312 0.0
H2804 H 0.01718 0.62682 0.74848 0.0
H2805 H 0.93722 0.5697 0.66739 0.0
H2806 H 0.95021 0.55855 0.68172 0.0
H2807 H 0.93299 0.56066 0.70276 0.0
H2808 H 1.00127 0.54967 0.72815 0.0
H2809 H 0.96376 0.54939 0.79155 0.0
H2810 H 0.00911 0.58467 0.69163 0.0
H2811 H 0.986 0.57293 0.67358 0.0
H2812 H 0.99844 0.55972 0.67996 0.0
H2813 H 0.96196 0.5886 0.77197 0.0
H2814 H 0.94646 0.56542 0.78673 0.0
H2815 H 0.94172 0.57058 0.75124 0.0
C2816 C 0.37745 0.37921 0.68844 0.0
C2817 C 0.37792 0.36756 0.71014 0.0
C2818 C 0.39115 0.39916 0.68832 0.0
C2819 C 0.40532 0.40763 0.71075 0.0
C2820 C 0.40552 0.39591 0.73296 0.0
C2821 C 0.39202 0.3761 0.73216 0.0
C2822 C 0.39072 0.41101 0.66394 0.0
C2823 C 0.41993 0.4043 0.75786 0.0
C2824 C 0.45418 0.452 0.71545 0.0
C2825 C 0.45104 0.46339 0.73529 0.0
C2826 C 0.43877 0.43474 0.70348 0.0
C2827 C 0.41997 0.42872 0.71205 0.0
C2828 C 0.41662 0.44174 0.72855 0.0
C2829 C 0.43224 0.45904 0.7398 0.0
C2830 C 0.44295 0.42169 0.68504 0.0
C2831 C 0.39689 0.43614 0.73813 0.0
H2832 H 0.36667 0.37266 0.67126 0.0
H2833 H 0.39234 0.36727 0.74921 0.0
H2834 H 0.39183 0.42471 0.67203 0.0
H2835 H 0.40322 0.41496 0.65061 0.0
H2836 H 0.37751 0.40297 0.65016 0.0
H2837 H 0.41791 0.39326 0.77361 0.0
H2838 H 0.43465 0.41072 0.75007 0.0
H2839 H 0.41878 0.41605 0.76905 0.0
H2840 H 0.46869 0.45525 0.71205 0.0
H2841 H 0.42982 0.46778 0.75533 0.0
H2842 H 0.43159 0.41401 0.66811 0.0
H2843 H 0.44342 0.41061 0.69844 0.0
H2844 H 0.45695 0.42996 0.6749 0.0
H2845 H 0.38592 0.42814 0.72084 0.0
H2846 H 0.39599 0.44904 0.74516 0.0
H2847 H 0.39345 0.42646 0.75644 0.0
C2848 C 0.6431 0.02482 0.70743 0.0
C2849 C 0.64648 0.01623 0.68362 0.0
C2850 C 0.62457 0.02092 0.71314 0.0
C2851 C 0.60908 0.00849 0.69414 0.0
C2852 C 0.61243 0.99991 0.66988 0.0
C2853 C 0.63107 0.0037 0.66509 0.0
C2854 C 0.62158 0.03004 0.73965 0.0
C2855 C 0.59638 0.98695 0.64886 0.0
C2856 C 0.56261 0.98872 0.73158 0.0
C2857 C 0.55825 0.00344 0.72717 0.0
C2858 C 0.57821 0.98905 0.71862 0.0
C2859 C 0.58945 0.00432 0.70049 0.0
C2860 C 0.58344 0.01764 0.69295 0.0
C2861 C 0.56792 0.01713 0.70663 0.0
C2862 C 0.58405 0.97457 0.72739 0.0
C2863 C 0.59468 0.03377 0.67303 0.0
H2864 H 0.65494 0.03446 0.72184 0.0
H2865 H 0.63366 0.9972 0.64644 0.0
H2866 H 0.61566 0.03944 0.73361 0.0
H2867 H 0.61106 0.01862 0.75319 0.0
H2868 H 0.63504 0.03893 0.75259 0.0
H2869 H 0.60136 0.98143 0.63101 0.0
H2870 H 0.58507 0.97442 0.65984 0.0
H2871 H 0.58973 0.99504 0.63985 0.0
H2872 H 0.55519 0.97825 0.74773 0.0
H2873 H 0.56466 0.02862 0.70346 0.0
H2874 H 0.59619 0.98163 0.74331 0.0
H2875 H 0.58889 0.96952 0.70888 0.0
H2876 H 0.57217 0.96179 0.73719 0.0
H2877 H 0.60757 0.0454 0.6847 0.0
H2878 H 0.58614 0.04016 0.66471 0.0
H2879 H 0.59953 0.02851 0.65474 0.0
loop_
_geom_bond_atom_site_label_1
_geom_bond_atom_site_label_2
_geom_bond_distance
_geom_bond_site_symmetry_2
_ccdc_geom_bond_type
Mg0 O1 2.028 1_556 S
Mg0 O7 1.986 1_455 S
Mg0 O9 2.114 . S
Mg0 O10 2.251 1_455 S
Mg0 O13 2.010 1_556 S
O1 Mg0 2.028 1_554 S
O1 C4 1.250 1_455 S
O2 Mg3 2.028 1_554 S
O2 C4 1.248 . S
Mg3 O2 2.028 1_556 S
Mg3 O8 2.032 . S
Mg3 O10 2.079 . S
C4 O1 1.250 1_655 S
C4 O2 1.248 . S
C5 O6 1.264 1_554 S
C5 O13 1.249 . S
O6 C5 1.264 1_556 S
O7 Mg0 1.986 1_655 S
O7 C11 1.246 . S
O8 Mg3 2.032 . S
O8 C11 1.259 . S
O9 Mg0 2.114 . S
O9 C12 1.252 . S
O10 Mg0 2.251 1_655 S
O10 Mg3 2.079 . S
O10 C12 1.273 1_655 S
C11 O7 1.246 . S
C11 O8 1.259 . S
C12 O9 1.252 . S
C12 O10 1.273 1_455 S
O13 Mg0 2.010 1_554 S
O13 C5 1.249 . S
Mg14 O15 2.028 1_554 S
Mg14 O21 1.986 . S
Mg14 O23 2.114 . S
Mg14 O24 2.251 . S
Mg14 O27 2.010 . S
O15 Mg14 2.028 1_556 S
O15 C18 1.250 . S
O16 Mg17 2.028 1_556 S
O16 C18 1.248 . S
Mg17 O16 2.028 1_554 S
Mg17 O22 2.032 . S
Mg17 O24 2.079 . S
C18 O15 1.250 . S
C18 O16 1.248 . S
C19 O20 1.264 . S
C19 O27 1.249 . S
O20 C19 1.264 . S
O21 Mg14 1.986 . S
O21 C25 1.246 . S
O22 Mg17 2.032 . S
O22 C25 1.259 . S
O23 Mg14 2.114 . S
O23 C26 1.252 . S
O24 Mg14 2.251 . S
O24 Mg17 2.079 . S
O24 C26 1.273 . S
C25 O21 1.246 . S
C25 O22 1.259 . S
C26 O23 1.252 . S
C26 O24 1.273 . S
O27 Mg14 2.010 . S
O27 C19 1.249 . S
Mg28 O29 2.023 1_556 S
Mg28 O35 1.986 1_565 S
Mg28 O37 2.114 . S
Mg28 O38 2.251 1_565 S
Mg28 O41 2.010 1_556 S
O29 Mg28 2.023 1_554 S
O29 C32 1.244 1_565 S
O30 Mg31 2.028 1_554 S
O30 C32 1.248 . S
Mg31 O30 2.028 1_556 S
Mg31 O36 2.032 . S
Mg31 O38 2.079 . S
C32 O29 1.244 1_545 S
C32 O30 1.248 . S
C33 O34 1.264 1_554 S
C33 O41 1.249 . S
O34 C33 1.264 1_556 S
O35 Mg28 1.986 1_545 S
O35 C39 1.246 . S
O36 Mg31 2.032 . S
O36 C39 1.259 . S
O37 Mg28 2.114 . S
O37 C40 1.252 . S
O38 Mg28 2.251 1_545 S
O38 Mg31 2.079 . S
O38 C40 1.273 1_545 S
C39 O35 1.246 . S
C39 O36 1.259 . S
C40 O37 1.252 . S
C40 O38 1.273 1_565 S
O41 Mg28 2.010 1_554 S
O41 C33 1.249 . S
Mg42 O43 2.028 1_554 S
Mg42 O49 1.986 1_655 S
Mg42 O51 2.114 . S
Mg42 O52 2.251 1_655 S
Mg42 O55 2.010 . S
O43 Mg42 2.028 1_556 S
O43 C46 1.250 1_655 S
O44 Mg45 2.028 1_556 S
O44 C46 1.248 . S
Mg45 O44 2.028 1_554 S
Mg45 O50 2.032 . S
Mg45 O52 2.079 . S
C46 O43 1.250 1_455 S
C46 O44 1.248 . S
C47 O48 1.264 . S
C47 O55 1.249 . S
O48 C47 1.264 . S
O49 Mg42 1.986 1_455 S
O49 C53 1.246 . S
O50 Mg45 2.032 . S
O50 C53 1.259 . S
O51 Mg42 2.114 . S
O51 C54 1.252 . S
O52 Mg42 2.251 1_455 S
O52 Mg45 2.079 . S
O52 C54 1.273 1_455 S
C53 O49 1.246 . S
C53 O50 1.259 . S
C54 O51 1.252 . S
C54 O52 1.273 1_655 S
O55 Mg42 2.010 . S
O55 C47 1.249 . S
Mg56 O57 2.028 1_556 S
Mg56 O63 1.986 . S
Mg56 O65 2.114 . S
Mg56 O66 2.251 . S
Mg56 O69 2.010 1_556 S
O57 Mg56 2.028 1_554 S
O57 C60 1.250 . S
O58 Mg59 2.028 1_554 S
O58 C60 1.248 . S
Mg59 O58 2.028 1_556 S
Mg59 O64 2.032 . S
Mg59 O66 2.079 . S
C60 O57 1.250 . S
C60 O58 1.248 . S
C61 O62 1.264 . S
C61 O69 1.249 . S
O62 C61 1.264 . S
O63 Mg56 1.986 . S
O63 C67 1.246 . S
O64 Mg59 2.032 . S
O64 C67 1.259 . S
O65 Mg56 2.114 . S
O65 C68 1.252 . S
O66 Mg56 2.251 . S
O66 Mg59 2.079 . S
O66 C68 1.273 . S
C67 O63 1.246 . S
C67 O64 1.259 . S
C68 O65 1.252 . S
C68 O66 1.273 . S
O69 Mg56 2.010 1_554 S
O69 C61 1.249 . S
Mg70 O71 2.028 1_554 S
Mg70 O77 1.986 1_545 S
Mg70 O79 2.114 . S
Mg70 O80 2.251 1_545 S
Mg70 O83 2.010 . S
O71 Mg70 2.028 1_556 S
O71 C74 1.250 1_545 S
O72 Mg73 2.028 1_556 S
O72 C74 1.248 . S
Mg73 O72 2.028 1_554 S
Mg73 O78 2.032 . S
Mg73 O80 2.079 . S
C74 O71 1.250 1_565 S
C74 O72 1.248 . S
C75 O76 1.264 . S
C75 O83 1.249 . S
O76 C75 1.264 . S
O77 Mg70 1.986 1_565 S
O77 C81 1.246 . S
O78 Mg73 2.032 . S
O78 C81 1.259 . S
O79 Mg70 2.114 . S
O79 C82 1.252 . S
O80 Mg70 2.251 1_565 S
O80 Mg73 2.079 . S
O80 C82 1.273 1_565 S
C81 O77 1.246 . S
C81 O78 1.259 . S
C82 O79 1.252 . S
C82 O80 1.273 1_545 S
O83 Mg70 2.010 . S
O83 C75 1.249 . S
Mg84 O85 2.028 . S
Mg84 O91 1.986 . S
Mg84 O93 2.114 . S
Mg84 O94 2.251 . S
Mg84 O97 2.010 . S
O85 Mg84 2.028 . S
O85 C88 1.250 . S
O86 Mg87 2.028 . S
O86 C88 1.248 . S
Mg87 O86 2.028 . S
Mg87 O92 2.032 . S
Mg87 O94 2.079 . S
C88 O85 1.250 . S
C88 O86 1.248 . S
C89 O90 1.264 . S
C89 O97 1.249 . S
O90 C89 1.264 . S
O91 Mg84 1.986 . S
O91 C95 1.246 . S
O92 Mg87 2.032 . S
O92 C95 1.259 . S
O93 Mg84 2.114 . S
O93 C96 1.252 . S
O94 Mg84 2.251 . S
O94 Mg87 2.079 . S
O94 C96 1.273 . S
C95 O91 1.246 . S
C95 O92 1.259 . S
C96 O93 1.252 . S
C96 O94 1.273 . S
O97 Mg84 2.010 . S
O97 C89 1.249 . S
Mg98 O99 2.028 . S
Mg98 O105 1.986 1_565 S
Mg98 O107 2.114 . S
Mg98 O108 2.251 . S
Mg98 O111 2.010 . S
O99 Mg98 2.028 . S
O99 C102 1.250 . S
O100 Mg101 2.028 . S
O100 C102 1.248 . S
Mg101 O100 2.028 . S
Mg101 O106 2.032 1_565 S
Mg101 O108 2.079 . S
C102 O99 1.250 . S
C102 O100 1.248 . S
C103 O104 1.264 . S
C103 O111 1.249 . S
O104 C103 1.264 . S
O105 Mg98 1.986 1_545 S
O105 C109 1.246 . S
O106 Mg101 2.032 1_545 S
O106 C109 1.259 . S
O107 Mg98 2.114 . S
O107 C110 1.252 . S
O108 Mg98 2.251 . S
O108 Mg101 2.079 . S
O108 C110 1.273 . S
C109 O105 1.246 . S
C109 O106 1.259 . S
C110 O107 1.252 . S
C110 O108 1.273 . S
O111 Mg98 2.010 . S
O111 C103 1.249 . S
Mg112 O113 2.028 . S
Mg112 O119 1.986 . S
Mg112 O121 2.114 . S
Mg112 O122 2.251 . S
Mg112 O125 2.010 1_455 S
O113 Mg112 2.028 . S
O113 C116 1.250 . S
O114 Mg115 2.028 . S
O114 C116 1.248 . S
Mg115 O114 2.028 . S
Mg115 O120 2.032 . S
Mg115 O122 2.079 . S
C116 O113 1.250 . S
C116 O114 1.248 . S
C117 O118 1.264 . S
C117 O125 1.249 . S
O118 C117 1.264 . S
O119 Mg112 1.986 . S
O119 C123 1.246 . S
O120 Mg115 2.032 . S
O120 C123 1.259 . S
O121 Mg112 2.114 . S
O121 C124 1.252 . S
O122 Mg112 2.251 . S
O122 Mg115 2.079 . S
O122 C124 1.273 . S
C123 O119 1.246 . S
C123 O120 1.259 . S
C124 O121 1.252 . S
C124 O122 1.273 . S
O125 Mg112 2.010 1_655 S
O125 C117 1.249 . S
Mg126 O127 2.028 . S
Mg126 O133 1.986 1_565 S
Mg126 O135 2.114 . S
Mg126 O136 2.251 . S
Mg126 O139 2.010 . S
O127 Mg126 2.028 . S
O127 C130 1.250 . S
O128 Mg129 2.028 . S
O128 C130 1.248 . S
Mg129 O128 2.028 . S
Mg129 O134 2.032 1_565 S
Mg129 O136 2.079 . S
C130 O127 1.250 . S
C130 O128 1.248 . S
C131 O132 1.264 . S
C131 O139 1.249 . S
O132 C131 1.264 . S
O133 Mg126 1.986 1_545 S
O133 C137 1.246 . S
O134 Mg129 2.032 1_545 S
O134 C137 1.259 . S
O135 Mg126 2.114 . S
O135 C138 1.252 . S
O136 Mg126 2.251 . S
O136 Mg129 2.079 . S
O136 C138 1.273 . S
C137 O133 1.246 . S
C137 O134 1.259 . S
C138 O135 1.252 . S
C138 O136 1.273 . S
O139 Mg126 2.010 . S
O139 C131 1.249 . S
Mg140 O141 2.028 . S
Mg140 O147 1.986 . S
Mg140 O149 2.114 . S
Mg140 O150 2.251 . S
Mg140 O153 2.010 1_455 S
O141 Mg140 2.028 . S
O141 C144 1.250 . S
O142 Mg143 2.028 . S
O142 C144 1.248 . S
Mg143 O142 2.028 . S
Mg143 O148 2.032 . S
Mg143 O150 2.079 . S
C144 O141 1.250 . S
C144 O142 1.248 . S
C145 O146 1.264 . S
C145 O153 1.249 . S
O146 C145 1.264 . S
O147 Mg140 1.986 . S
O147 C151 1.246 . S
O148 Mg143 2.032 . S
O148 C151 1.259 . S
O149 Mg140 2.114 . S
O149 C152 1.252 . S
O150 Mg140 2.251 . S
O150 Mg143 2.079 . S
O150 C152 1.273 . S
C151 O147 1.246 . S
C151 O148 1.259 . S
C152 O149 1.252 . S
C152 O150 1.273 . S
O153 Mg140 2.010 1_655 S
O153 C145 1.249 . S
Mg154 O155 2.028 . S
Mg154 O161 1.986 . S
Mg154 O163 2.114 . S
Mg154 O164 2.251 . S
Mg154 O167 2.010 . S
O155 Mg154 2.028 . S
O155 C158 1.250 . S
O156 Mg157 2.028 . S
O156 C158 1.248 . S
Mg157 O156 2.028 . S
Mg157 O162 2.032 . S
Mg157 O164 2.079 . S
C158 O155 1.250 . S
C158 O156 1.248 . S
C159 O160 1.264 . S
C159 O167 1.249 . S
O160 C159 1.264 . S
O161 Mg154 1.986 . S
O161 C165 1.246 . S
O162 Mg157 2.032 . S
O162 C165 1.259 . S
O163 Mg154 2.114 . S
O163 C166 1.252 . S
O164 Mg154 2.251 . S
O164 Mg157 2.079 . S
O164 C166 1.273 . S
C165 O161 1.246 . S
C165 O162 1.259 . S
C166 O163 1.252 . S
C166 O164 1.273 . S
O167 Mg154 2.010 . S
O167 C159 1.249 . S
Mg168 O169 2.028 . S
Mg168 O175 1.986 1_545 S
Mg168 O177 2.114 . S
Mg168 O178 2.251 . S
Mg168 O181 2.010 . S
O169 Mg168 2.028 . S
O169 C172 1.250 . S
O170 Mg171 2.028 . S
O170 C172 1.248 . S
Mg171 O170 2.028 . S
Mg171 O176 2.032 1_545 S
Mg171 O178 2.079 . S
C172 O169 1.250 . S
C172 O170 1.248 . S
C173 O174 1.264 . S
C173 O181 1.249 . S
O174 C173 1.264 . S
O175 Mg168 1.986 1_565 S
O175 C179 1.246 . S
O176 Mg171 2.032 1_565 S
O176 C179 1.259 . S
O177 Mg168 2.114 . S
O177 C180 1.252 . S
O178 Mg168 2.251 . S
O178 Mg171 2.079 . S
O178 C180 1.273 . S
C179 O175 1.246 . S
C179 O176 1.259 . S
C180 O177 1.252 . S
C180 O178 1.273 . S
O181 Mg168 2.010 . S
O181 C173 1.249 . S
Mg182 O183 2.028 . S
Mg182 O189 1.986 . S
Mg182 O191 2.114 . S
Mg182 O192 2.251 . S
Mg182 O195 2.010 1_655 S
O183 Mg182 2.028 . S
O183 C186 1.250 . S
O184 Mg185 2.028 . S
O184 C186 1.248 . S
Mg185 O184 2.028 . S
Mg185 O190 2.032 . S
Mg185 O192 2.079 . S
C186 O183 1.250 . S
C186 O184 1.248 . S
C187 O188 1.264 . S
C187 O195 1.249 . S
O188 C187 1.264 . S
O189 Mg182 1.986 . S
O189 C193 1.246 . S
O190 Mg185 2.032 . S
O190 C193 1.259 . S
O191 Mg182 2.114 . S
O191 C194 1.252 . S
O192 Mg182 2.251 . S
O192 Mg185 2.079 . S
O192 C194 1.273 . S
C193 O189 1.246 . S
C193 O190 1.259 . S
C194 O191 1.252 . S
C194 O192 1.273 . S
O195 Mg182 2.010 1_455 S
O195 C187 1.249 . S
Mg196 O197 2.028 . S
Mg196 O203 1.986 . S
Mg196 O205 2.114 . S
Mg196 O206 2.251 . S
Mg196 O209 2.010 . S
O197 Mg196 2.028 . S
O197 C200 1.250 . S
O198 Mg199 2.028 . S
O198 C200 1.248 . S
Mg199 O198 2.028 . S
Mg199 O204 2.032 . S
Mg199 O206 2.079 . S
C200 O197 1.250 . S
C200 O198 1.248 . S
C201 O202 1.264 . S
C201 O209 1.249 . S
O202 C201 1.264 . S
O203 Mg196 1.986 . S
O203 C207 1.246 . S
O204 Mg199 2.032 . S
O204 C207 1.259 . S
O205 Mg196 2.114 . S
O205 C208 1.252 . S
O206 Mg196 2.251 . S
O206 Mg199 2.079 . S
O206 C208 1.273 . S
C207 O203 1.246 . S
C207 O204 1.259 . S
C208 O205 1.252 . S
C208 O206 1.273 . S
O209 Mg196 2.010 . S
O209 C201 1.249 . S
Mg210 O211 2.028 . S
Mg210 O217 1.986 . S
Mg210 O219 2.114 . S
Mg210 O220 2.251 . S
Mg210 O223 2.010 . S
O211 Mg210 2.028 . S
O211 C214 1.250 . S
O212 Mg213 2.028 . S
O212 C214 1.248 . S
Mg213 O212 2.028 . S
Mg213 O218 2.032 . S
Mg213 O220 2.079 . S
C214 O211 1.250 . S
C214 O212 1.248 . S
C215 O216 1.264 . S
C215 O223 1.249 . S
O216 C215 1.264 . S
O217 Mg210 1.986 . S
O217 C221 1.246 . S
O218 Mg213 2.032 . S
O218 C221 1.259 . S
O219 Mg210 2.114 . S
O219 C222 1.252 . S
O220 Mg210 2.251 . S
O220 Mg213 2.079 . S
O220 C222 1.273 . S
C221 O217 1.246 . S
C221 O218 1.259 . S
C222 O219 1.252 . S
C222 O220 1.273 . S
O223 Mg210 2.010 . S
O223 C215 1.249 . S
Mg224 O225 2.028 . S
Mg224 O231 1.986 1_545 S
Mg224 O233 2.114 . S
Mg224 O234 2.251 . S
Mg224 O237 2.010 . S
O225 Mg224 2.028 . S
O225 C228 1.250 . S
O226 Mg227 2.028 . S
O226 C228 1.248 . S
Mg227 O226 2.028 . S
Mg227 O232 2.032 1_545 S
Mg227 O234 2.079 . S
C228 O225 1.250 . S
C228 O226 1.248 . S
C229 O230 1.264 . S
C229 O237 1.249 . S
O230 C229 1.264 . S
O231 Mg224 1.986 1_565 S
O231 C235 1.246 . S
O232 Mg227 2.032 1_565 S
O232 C235 1.259 . S
O233 Mg224 2.114 . S
O233 C236 1.252 . S
O234 Mg224 2.251 . S
O234 Mg227 2.079 . S
O234 C236 1.273 . S
C235 O231 1.246 . S
C235 O232 1.259 . S
C236 O233 1.252 . S
C236 O234 1.273 . S
O237 Mg224 2.010 . S
O237 C229 1.249 . S
Mg238 O239 2.028 . S
Mg238 O245 1.986 . S
Mg238 O247 2.114 . S
Mg238 O248 2.251 . S
Mg238 O251 2.010 1_655 S
O239 Mg238 2.028 . S
O239 C242 1.250 . S
O240 Mg241 2.028 . S
O240 C242 1.248 . S
Mg241 O240 2.028 . S
Mg241 O246 2.032 . S
Mg241 O248 2.079 . S
C242 O239 1.250 . S
C242 O240 1.248 . S
C243 O244 1.264 . S
C243 O251 1.249 . S
O244 C243 1.264 . S
O245 Mg238 1.986 . S
O245 C249 1.246 . S
O246 Mg241 2.032 . S
O246 C249 1.259 . S
O247 Mg238 2.114 . S
O247 C250 1.252 . S
O248 Mg238 2.251 . S
O248 Mg241 2.079 . S
O248 C250 1.273 . S
C249 O245 1.246 . S
C249 O246 1.259 . S
C250 O247 1.252 . S
C250 O248 1.273 . S
O251 Mg238 2.010 1_455 S
O251 C243 1.249 . S
H252 C258 0.930 . S
H253 C261 0.931 . S
H254 C263 0.931 . S
H255 C265 0.930 . S
H256 C267 0.930 . S
H257 C269 0.931 . S
C258 H252 0.930 . S
C258 C259 1.380 . S
C258 C260 1.394 . S
C259 C258 1.380 . S
C259 C263 1.382 . S
C260 C258 1.394 . S
C260 C261 1.400 . S
C261 H253 0.931 . S
C261 C260 1.400 . S
C261 C262 1.375 . S
C262 C261 1.375 . S
C262 C263 1.415 . S
C262 C264 1.501 . S
C263 H254 0.931 . S
C263 C259 1.382 . S
C263 C262 1.415 . S
C264 C262 1.501 . S
C264 C265 1.384 . S
C264 C269 1.408 . S
C265 H255 0.930 . S
C265 C264 1.384 . S
C265 C266 1.389 . S
C266 C265 1.389 . S
C266 C267 1.405 . S
C267 H256 0.930 . S
C267 C266 1.405 . S
C267 C268 1.364 . S
C268 C267 1.364 . S
C268 C269 1.400 . S
C269 H257 0.931 . S
C269 C264 1.408 . S
C269 C268 1.400 . S
H270 C276 0.930 . S
H271 C279 0.931 . S
H272 C281 0.931 . S
H273 C283 0.930 . S
H274 C285 0.930 . S
H275 C287 0.931 . S
C276 H270 0.930 . S
C276 C277 1.380 . S
C276 C278 1.394 . S
C277 C276 1.380 . S
C277 C281 1.382 . S
C278 C276 1.394 . S
C278 C279 1.400 . S
C279 H271 0.931 . S
C279 C278 1.400 . S
C279 C280 1.375 . S
C280 C279 1.375 . S
C280 C281 1.415 . S
C280 C282 1.501 . S
C281 H272 0.931 . S
C281 C277 1.382 . S
C281 C280 1.415 . S
C282 C280 1.501 . S
C282 C283 1.384 . S
C282 C287 1.408 . S
C283 H273 0.930 . S
C283 C282 1.384 . S
C283 C284 1.389 . S
C284 C283 1.389 . S
C284 C285 1.405 . S
C285 H274 0.930 . S
C285 C284 1.405 . S
C285 C286 1.364 . S
C286 C285 1.364 . S
C286 C287 1.400 . S
C287 H275 0.931 . S
C287 C282 1.408 . S
C287 C286 1.400 . S
H288 C294 0.930 . S
H289 C297 0.931 . S
H290 C299 0.931 . S
H291 C301 0.930 . S
H292 C303 0.930 . S
H293 C305 0.931 . S
C294 H288 0.930 . S
C294 C295 1.380 . S
C294 C296 1.394 . S
C295 C294 1.380 . S
C295 C299 1.382 . S
C296 C294 1.394 . S
C296 C297 1.400 . S
C297 H289 0.931 . S
C297 C296 1.400 . S
C297 C298 1.375 . S
C298 C297 1.375 . S
C298 C299 1.415 . S
C298 C300 1.501 . S
C299 H290 0.931 . S
C299 C295 1.382 . S
C299 C298 1.415 . S
C300 C298 1.501 . S
C300 C301 1.384 . S
C300 C305 1.408 . S
C301 H291 0.930 . S
C301 C300 1.384 . S
C301 C302 1.389 . S
C302 C301 1.389 . S
C302 C303 1.405 . S
C303 H292 0.930 . S
C303 C302 1.405 . S
C303 C304 1.364 . S
C304 C303 1.364 . S
C304 C305 1.400 . S
C305 H293 0.931 . S
C305 C300 1.408 . S
C305 C304 1.400 . S
H306 C312 0.930 . S
H307 C315 0.931 . S
H308 C317 0.931 . S
H309 C319 0.930 . S
H310 C321 0.930 . S
H311 C323 0.931 . S
C312 H306 0.930 . S
C312 C313 1.380 . S
C312 C314 1.394 . S
C313 C312 1.380 . S
C313 C317 1.382 . S
C314 C312 1.394 . S
C314 C315 1.400 . S
C315 H307 0.931 . S
C315 C314 1.400 . S
C315 C316 1.375 . S
C316 C315 1.375 . S
C316 C317 1.415 . S
C316 C318 1.501 . S
C317 H308 0.931 . S
C317 C313 1.382 . S
C317 C316 1.415 . S
C318 C316 1.501 . S
C318 C319 1.384 . S
C318 C323 1.408 . S
C319 H309 0.930 . S
C319 C318 1.384 . S
C319 C320 1.389 . S
C320 C319 1.389 . S
C320 C321 1.405 . S
C321 H310 0.930 . S
C321 C320 1.405 . S
C321 C322 1.364 . S
C322 C321 1.364 . S
C322 C323 1.400 . S
C323 H311 0.931 . S
C323 C318 1.408 . S
C323 C322 1.400 . S
H324 C330 0.930 . S
H325 C333 0.931 . S
H326 C335 0.931 . S
H327 C337 0.930 . S
H328 C339 0.930 . S
H329 C341 0.931 . S
C330 H324 0.930 . S
C330 C331 1.380 . S
C330 C332 1.394 . S
C331 C330 1.380 . S
C331 C335 1.382 . S
C332 C330 1.394 . S
C332 C333 1.400 . S
C333 H325 0.931 . S
C333 C332 1.400 . S
C333 C334 1.375 . S
C334 C333 1.375 . S
C334 C335 1.415 . S
C334 C336 1.501 . S
C335 H326 0.931 . S
C335 C331 1.382 . S
C335 C334 1.415 . S
C336 C334 1.501 . S
C336 C337 1.384 . S
C336 C341 1.408 . S
C337 H327 0.930 . S
C337 C336 1.384 . S
C337 C338 1.389 . S
C338 C337 1.389 . S
C338 C339 1.405 . S
C339 H328 0.930 . S
C339 C338 1.405 . S
C339 C340 1.364 . S
C340 C339 1.364 . S
C340 C341 1.400 . S
C341 H329 0.931 . S
C341 C336 1.408 . S
C341 C340 1.400 . S
H342 C348 0.930 . S
H343 C351 0.931 . S
H344 C353 0.931 . S
H345 C355 0.930 . S
H346 C357 0.930 . S
H347 C359 0.931 . S
C348 H342 0.930 . S
C348 C349 1.380 . S
C348 C350 1.394 . S
C349 C348 1.380 . S
C349 C353 1.382 . S
C350 C348 1.394 . S
C350 C351 1.400 . S
C351 H343 0.931 . S
C351 C350 1.400 . S
C351 C352 1.375 . S
C352 C351 1.375 . S
C352 C353 1.415 . S
C352 C354 1.501 . S
C353 H344 0.931 . S
C353 C349 1.382 . S
C353 C352 1.415 . S
C354 C352 1.501 . S
C354 C355 1.384 . S
C354 C359 1.408 . S
C355 H345 0.930 . S
C355 C354 1.384 . S
C355 C356 1.389 . S
C356 C355 1.389 . S
C356 C357 1.405 . S
C357 H346 0.930 . S
C357 C356 1.405 . S
C357 C358 1.364 . S
C358 C357 1.364 . S
C358 C359 1.400 . S
C359 H347 0.931 . S
C359 C354 1.408 . S
C359 C358 1.400 . S
H360 C366 0.930 . S
H361 C369 0.931 . S
H362 C371 0.931 . S
H363 C373 0.930 . S
H364 C375 0.930 . S
H365 C377 0.931 . S
C366 H360 0.930 . S
C366 C367 1.380 . S
C366 C368 1.394 . S
C367 C366 1.380 . S
C367 C371 1.382 . S
C368 C366 1.394 . S
C368 C369 1.400 . S
C369 H361 0.931 . S
C369 C368 1.400 . S
C369 C370 1.375 . S
C370 C369 1.375 . S
C370 C371 1.415 . S
C370 C372 1.501 . S
C371 H362 0.931 . S
C371 C367 1.382 . S
C371 C370 1.415 . S
C372 C370 1.501 . S
C372 C373 1.384 . S
C372 C377 1.408 . S
C373 H363 0.930 . S
C373 C372 1.384 . S
C373 C374 1.389 . S
C374 C373 1.389 . S
C374 C375 1.405 . S
C375 H364 0.930 . S
C375 C374 1.405 . S
C375 C376 1.364 . S
C376 C375 1.364 . S
C376 C377 1.400 . S
C377 H365 0.931 . S
C377 C372 1.408 . S
C377 C376 1.400 . S
H378 C384 0.930 . S
H379 C387 0.931 . S
H380 C389 0.931 . S
H381 C391 0.930 . S
H382 C393 0.930 . S
H383 C395 0.931 . S
C384 H378 0.930 . S
C384 C385 1.380 . S
C384 C386 1.394 . S
C385 C384 1.380 . S
C385 C389 1.382 . S
C386 C384 1.394 . S
C386 C387 1.400 . S
C387 H379 0.931 . S
C387 C386 1.400 . S
C387 C388 1.375 . S
C388 C387 1.375 . S
C388 C389 1.415 . S
C388 C390 1.501 . S
C389 H380 0.931 . S
C389 C385 1.382 . S
C389 C388 1.415 . S
C390 C388 1.501 . S
C390 C391 1.384 . S
C390 C395 1.408 . S
C391 H381 0.930 . S
C391 C390 1.384 . S
C391 C392 1.389 . S
C392 C391 1.389 . S
C392 C393 1.405 . S
C393 H382 0.930 . S
C393 C392 1.405 . S
C393 C394 1.364 . S
C394 C393 1.364 . S
C394 C395 1.400 . S
C395 H383 0.931 . S
C395 C390 1.408 . S
C395 C394 1.400 . S
H396 C402 0.930 . S
H397 C405 0.931 . S
H398 C407 0.931 . S
H399 C409 0.930 . S
H400 C411 0.930 . S
H401 C413 0.931 . S
C402 H396 0.930 . S
C402 C403 1.380 . S
C402 C404 1.394 . S
C403 C402 1.380 . S
C403 C407 1.382 . S
C404 C402 1.394 . S
C404 C405 1.400 . S
C405 H397 0.931 . S
C405 C404 1.400 . S
C405 C406 1.375 . S
C406 C405 1.375 . S
C406 C407 1.415 . S
C406 C408 1.501 . S
C407 H398 0.931 . S
C407 C403 1.382 . S
C407 C406 1.415 . S
C408 C406 1.501 . S
C408 C409 1.384 . S
C408 C413 1.408 . S
C409 H399 0.930 . S
C409 C408 1.384 . S
C409 C410 1.389 . S
C410 C409 1.389 . S
C410 C411 1.405 . S
C411 H400 0.930 . S
C411 C410 1.405 . S
C411 C412 1.364 . S
C412 C411 1.364 . S
C412 C413 1.400 . S
C413 H401 0.931 . S
C413 C408 1.408 . S
C413 C412 1.400 . S
H414 C420 0.925 . S
H415 C423 0.931 . S
H416 C425 0.931 . S
H417 C427 0.930 . S
H418 C429 0.930 . S
H419 C431 0.941 . S
C420 H414 0.925 . S
C420 C421 1.384 . S
C420 C422 1.395 1_655 S
C421 C420 1.384 . S
C421 C425 1.382 . S
C422 C420 1.395 1_455 S
C422 C423 1.400 . S
C423 H415 0.931 . S
C423 C422 1.400 . S
C423 C424 1.375 . S
C424 C423 1.375 . S
C424 C425 1.415 1_455 S
C424 C426 1.501 . S
C425 H416 0.931 . S
C425 C421 1.382 . S
C425 C424 1.415 1_655 S
C426 C424 1.501 . S
C426 C427 1.384 . S
C426 C431 1.421 . S
C427 H417 0.930 . S
C427 C426 1.384 . S
C427 C428 1.389 . S
C428 C427 1.389 . S
C428 C429 1.405 . S
C429 H418 0.930 . S
C429 C428 1.405 . S
C429 C430 1.360 . S
C430 C429 1.360 . S
C430 C431 1.391 . S
C431 H419 0.941 . S
C431 C426 1.421 . S
C431 C430 1.391 . S
H432 C438 0.930 . S
H433 C441 0.931 . S
H434 C443 0.931 . S
H435 C445 0.930 . S
H436 C447 0.930 . S
H437 C449 0.931 . S
C438 H432 0.930 . S
C438 C439 1.380 . S
C438 C440 1.394 . S
C439 C438 1.380 . S
C439 C443 1.382 . S
C440 C438 1.394 . S
C440 C441 1.400 . S
C441 H433 0.931 . S
C441 C440 1.400 . S
C441 C442 1.375 . S
C442 C441 1.375 . S
C442 C443 1.415 . S
C442 C444 1.501 . S
C443 H434 0.931 . S
C443 C439 1.382 . S
C443 C442 1.415 . S
C444 C442 1.501 . S
C444 C445 1.384 . S
C444 C449 1.408 . S
C445 H435 0.930 . S
C445 C444 1.384 . S
C445 C446 1.389 . S
C446 C445 1.389 . S
C446 C447 1.405 . S
C447 H436 0.930 . S
C447 C446 1.405 . S
C447 C448 1.364 . S
C448 C447 1.364 . S
C448 C449 1.400 . S
C449 H437 0.931 . S
C449 C444 1.408 . S
C449 C448 1.400 . S
H450 C456 0.939 . S
H451 C459 0.931 . S
H452 C461 0.931 . S
H453 C463 0.930 . S
H454 C465 0.930 . S
H455 C467 0.921 . S
C456 H450 0.939 . S
C456 C457 1.378 . S
C456 C458 1.387 1_545 S
C457 C456 1.378 . S
C457 C461 1.382 . S
C458 C456 1.387 1_565 S
C458 C459 1.400 . S
C459 H451 0.931 . S
C459 C458 1.400 . S
C459 C460 1.375 . S
C460 C459 1.375 . S
C460 C461 1.415 1_565 S
C460 C462 1.501 . S
C461 H452 0.931 . S
C461 C457 1.382 . S
C461 C460 1.415 1_545 S
C462 C460 1.501 . S
C462 C463 1.384 . S
C462 C467 1.396 . S
C463 H453 0.930 . S
C463 C462 1.384 . S
C463 C464 1.389 . S
C464 C463 1.389 . S
C464 C465 1.405 . S
C465 H454 0.930 . S
C465 C464 1.405 . S
C465 C466 1.375 . S
C466 C465 1.375 . S
C466 C467 1.408 . S
C467 H455 0.921 . S
C467 C462 1.396 . S
C467 C466 1.408 . S
H468 C474 0.910 . S
H469 C477 0.931 . S
H470 C479 0.926 . S
H471 C481 0.930 . S
H472 C483 0.930 . S
H473 C485 0.931 . S
C474 H468 0.910 . S
C474 C475 1.385 . S
C474 C476 1.415 1_545 S
C475 C474 1.385 . S
C475 C479 1.403 1_545 S
C476 C474 1.415 1_565 S
C476 C477 1.384 . S
C477 H469 0.931 . S
C477 C476 1.384 . S
C477 C478 1.375 . S
C478 C477 1.375 . S
C478 C479 1.411 . S
C478 C480 1.501 . S
C479 H470 0.926 . S
C479 C475 1.403 1_565 S
C479 C478 1.411 . S
C480 C478 1.501 . S
C480 C481 1.384 . S
C480 C485 1.408 1_565 S
C481 H471 0.930 . S
C481 C480 1.384 . S
C481 C482 1.389 . S
C482 C481 1.389 . S
C482 C483 1.405 . S
C483 H472 0.930 . S
C483 C482 1.405 . S
C483 C484 1.364 1_565 S
C484 C483 1.364 1_545 S
C484 C485 1.400 . S
C485 H473 0.931 . S
C485 C480 1.408 1_545 S
C485 C484 1.400 . S
H486 C492 0.962 . S
H487 C495 0.931 . S
H488 C497 0.934 . S
H489 C499 0.930 . S
H490 C501 0.930 . S
H491 C503 0.931 . S
C492 H486 0.962 . S
C492 C493 1.372 . S
C492 C494 1.371 1_655 S
C493 C492 1.372 . S
C493 C497 1.359 1_655 S
C494 C492 1.371 1_455 S
C494 C495 1.414 . S
C495 H487 0.931 . S
C495 C494 1.414 . S
C495 C496 1.375 . S
C496 C495 1.375 . S
C496 C497 1.422 . S
C496 C498 1.501 . S
C497 H488 0.934 . S
C497 C493 1.359 1_455 S
C497 C496 1.422 . S
C498 C496 1.501 . S
C498 C499 1.384 . S
C498 C503 1.408 1_455 S
C499 H489 0.930 . S
C499 C498 1.384 . S
C499 C500 1.389 . S
C500 C499 1.389 . S
C500 C501 1.405 . S
C501 H490 0.930 . S
C501 C500 1.405 . S
C501 C502 1.364 1_455 S
C502 C501 1.364 1_655 S
C502 C503 1.400 . S
C503 H491 0.931 . S
C503 C498 1.408 1_655 S
C503 C502 1.400 . S
H504 C510 0.930 . S
H505 C513 0.931 . S
H506 C515 0.931 . S
H507 C517 0.930 . S
H508 C519 0.930 . S
H509 C521 0.931 . S
C510 H504 0.930 . S
C510 C511 1.380 . S
C510 C512 1.394 . S
C511 C510 1.380 . S
C511 C515 1.382 . S
C512 C510 1.394 . S
C512 C513 1.400 . S
C513 H505 0.931 . S
C513 C512 1.400 . S
C513 C514 1.375 . S
C514 C513 1.375 . S
C514 C515 1.415 . S
C514 C516 1.501 . S
C515 H506 0.931 . S
C515 C511 1.382 . S
C515 C514 1.415 . S
C516 C514 1.501 . S
C516 C517 1.384 . S
C516 C521 1.408 . S
C517 H507 0.930 . S
C517 C516 1.384 . S
C517 C518 1.389 . S
C518 C517 1.389 . S
C518 C519 1.405 . S
C519 H508 0.930 . S
C519 C518 1.405 . S
C519 C520 1.364 . S
C520 C519 1.364 . S
C520 C521 1.400 . S
C521 H509 0.931 . S
C521 C516 1.408 . S
C521 C520 1.400 . S
H522 C528 0.930 . S
H523 C531 0.931 . S
H524 C533 0.931 . S
H525 C535 0.930 . S
H526 C537 0.930 . S
H527 C539 0.931 . S
C528 H522 0.930 . S
C528 C529 1.380 . S
C528 C530 1.394 . S
C529 C528 1.380 . S
C529 C533 1.382 . S
C530 C528 1.394 . S
C530 C531 1.400 . S
C531 H523 0.931 . S
C531 C530 1.400 . S
C531 C532 1.375 . S
C532 C531 1.375 . S
C532 C533 1.415 . S
C532 C534 1.501 . S
C533 H524 0.931 . S
C533 C529 1.382 . S
C533 C532 1.415 . S
C534 C532 1.501 . S
C534 C535 1.384 . S
C534 C539 1.408 . S
C535 H525 0.930 . S
C535 C534 1.384 . S
C535 C536 1.389 . S
C536 C535 1.389 . S
C536 C537 1.405 . S
C537 H526 0.930 . S
C537 C536 1.405 . S
C537 C538 1.364 . S
C538 C537 1.364 . S
C538 C539 1.400 . S
C539 H527 0.931 . S
C539 C534 1.408 . S
C539 C538 1.400 . S
H540 C546 0.930 . S
H541 C549 0.931 . S
H542 C551 0.931 . S
H543 C553 0.930 . S
H544 C555 0.930 . S
H545 C557 0.931 . S
C546 H540 0.930 . S
C546 C547 1.380 . S
C546 C548 1.394 . S
C547 C546 1.380 . S
C547 C551 1.382 . S
C548 C546 1.394 . S
C548 C549 1.400 . S
C549 H541 0.931 . S
C549 C548 1.400 . S
C549 C550 1.375 . S
C550 C549 1.375 . S
C550 C551 1.415 . S
C550 C552 1.501 . S
C551 H542 0.931 . S
C551 C547 1.382 . S
C551 C550 1.415 . S
C552 C550 1.501 . S
C552 C553 1.384 . S
C552 C557 1.408 . S
C553 H543 0.930 . S
C553 C552 1.384 . S
C553 C554 1.389 . S
C554 C553 1.389 . S
C554 C555 1.405 . S
C555 H544 0.930 . S
C555 C554 1.405 . S
C555 C556 1.364 . S
C556 C555 1.364 . S
C556 C557 1.400 . S
C557 H545 0.931 . S
C557 C552 1.408 . S
C557 C556 1.400 . S
H558 C564 0.930 . S
H559 C567 0.931 . S
H560 C569 0.931 . S
H561 C571 0.930 . S
H562 C573 0.930 . S
H563 C575 0.931 . S
C564 H558 0.930 . S
C564 C565 1.380 . S
C564 C566 1.394 . S
C565 C564 1.380 . S
C565 C569 1.382 . S
C566 C564 1.394 . S
C566 C567 1.400 . S
C567 H559 0.931 . S
C567 C566 1.400 . S
C567 C568 1.375 . S
C568 C567 1.375 . S
C568 C569 1.415 . S
C568 C570 1.501 . S
C569 H560 0.931 . S
C569 C565 1.382 . S
C569 C568 1.415 . S
C570 C568 1.501 . S
C570 C571 1.384 . S
C570 C575 1.408 . S
C571 H561 0.930 . S
C571 C570 1.384 . S
C571 C572 1.389 . S
C572 C571 1.389 . S
C572 C573 1.405 . S
C573 H562 0.930 . S
C573 C572 1.405 . S
C573 C574 1.364 . S
C574 C573 1.364 . S
C574 C575 1.400 . S
C575 H563 0.931 . S
C575 C570 1.408 . S
C575 C574 1.400 . S
C576 C577 1.391 1_455 S
C576 C578 1.394 . S
C576 H592 0.931 . S
C577 C576 1.391 1_655 S
C577 C581 1.376 . S
C578 C576 1.394 . S
C578 C579 1.369 1_455 S
C578 C582 1.531 . S
C579 C578 1.369 1_655 S
C579 C580 1.410 . S
C579 C587 1.503 . S
C580 C579 1.410 . S
C580 C581 1.392 . S
C580 C583 1.511 . S
C581 C577 1.376 . S
C581 C580 1.392 . S
C581 H593 0.929 . S
C582 C578 1.531 . S
C582 H594 0.960 . S
C582 H595 0.962 . S
C582 H596 0.960 . S
C583 C580 1.511 . S
C583 H597 0.961 . S
C583 H598 0.961 . S
C583 H599 0.961 . S
C584 C585 1.353 1_455 S
C584 C586 1.374 . S
C584 H600 0.939 . S
C585 C584 1.353 1_655 S
C585 C589 1.408 . S
C586 C584 1.374 . S
C586 C587 1.372 1_455 S
C586 C590 1.522 . S
C587 C579 1.503 . S
C587 C586 1.372 1_655 S
C587 C588 1.403 . S
C588 C587 1.403 . S
C588 C589 1.404 . S
C588 C591 1.539 . S
C589 C585 1.408 . S
C589 C588 1.404 . S
C589 H601 0.930 . S
C590 C586 1.522 . S
C590 H602 0.956 . S
C590 H603 0.961 1_455 S
C590 H604 0.961 . S
C591 C588 1.539 . S
C591 H605 0.958 . S
C591 H606 0.961 . S
C591 H607 0.960 . S
H592 C576 0.931 . S
H593 C581 0.929 . S
H594 C582 0.960 . S
H595 C582 0.962 . S
H596 C582 0.960 . S
H597 C583 0.961 . S
H598 C583 0.961 . S
H599 C583 0.961 . S
H600 C584 0.939 . S
H601 C589 0.930 . S
H602 C590 0.956 . S
H603 C590 0.961 1_655 S
H604 C590 0.961 . S
H605 C591 0.958 . S
H606 C591 0.961 . S
H607 C591 0.960 . S
C608 C609 1.391 . S
C608 C610 1.394 . S
C608 H624 0.931 . S
C609 C608 1.391 . S
C609 C613 1.376 . S
C610 C608 1.394 . S
C610 C611 1.369 . S
C610 C614 1.531 . S
C611 C610 1.369 . S
C611 C612 1.410 . S
C611 C619 1.503 . S
C612 C611 1.410 . S
C612 C613 1.392 . S
C612 C615 1.511 . S
C613 C609 1.376 . S
C613 C612 1.392 . S
C613 H625 0.929 . S
C614 C610 1.531 . S
C614 H626 0.960 . S
C614 H627 0.962 . S
C614 H628 0.960 . S
C615 C612 1.511 . S
C615 H629 0.961 . S
C615 H630 0.961 . S
C615 H631 0.961 . S
C616 C617 1.370 . S
C616 C618 1.363 . S
C616 H632 0.931 . S
C617 C616 1.370 . S
C617 C621 1.408 . S
C618 C616 1.363 . S
C618 C619 1.370 . S
C618 C622 1.524 . S
C619 C611 1.503 . S
C619 C618 1.370 . S
C619 C620 1.403 . S
C620 C619 1.403 . S
C620 C621 1.404 . S
C620 C623 1.539 . S
C621 C617 1.408 . S
C621 C620 1.404 . S
C621 H633 0.930 . S
C622 C618 1.524 . S
C622 H634 0.956 . S
C622 H635 0.961 . S
C622 H636 0.961 . S
C623 C620 1.539 . S
C623 H637 0.958 . S
C623 H638 0.961 . S
C623 H639 0.960 . S
H624 C608 0.931 . S
H625 C613 0.929 . S
H626 C614 0.960 . S
H627 C614 0.962 . S
H628 C614 0.960 . S
H629 C615 0.961 . S
H630 C615 0.961 . S
H631 C615 0.961 . S
H632 C616 0.931 . S
H633 C621 0.930 . S
H634 C622 0.956 . S
H635 C622 0.961 . S
H636 C622 0.961 . S
H637 C623 0.958 . S
H638 C623 0.961 . S
H639 C623 0.960 . S
C640 C641 1.391 1_565 S
C640 C642 1.394 . S
C640 H656 0.931 . S
C641 C640 1.391 1_545 S
C641 C645 1.376 . S
C642 C640 1.394 . S
C642 C643 1.369 1_565 S
C642 C646 1.531 . S
C643 C642 1.369 1_545 S
C643 C644 1.410 . S
C643 C651 1.503 . S
C644 C643 1.410 . S
C644 C645 1.392 . S
C644 C647 1.511 . S
C645 C641 1.376 . S
C645 C644 1.392 . S
C645 H657 0.929 . S
C646 C642 1.531 . S
C646 H658 0.960 . S
C646 H659 0.962 . S
C646 H660 0.960 . S
C647 C644 1.511 . S
C647 H661 0.961 . S
C647 H662 0.961 . S
C647 H663 0.961 . S
C648 C649 1.370 . S
C648 C650 1.363 . S
C648 H664 0.931 . S
C649 C648 1.370 . S
C649 C653 1.408 1_545 S
C650 C648 1.363 . S
C650 C651 1.370 . S
C650 C654 1.524 . S
C651 C643 1.503 . S
C651 C650 1.370 . S
C651 C652 1.403 1_545 S
C652 C651 1.403 1_565 S
C652 C653 1.404 . S
C652 C655 1.539 . S
C653 C649 1.408 1_565 S
C653 C652 1.404 . S
C653 H665 0.930 . S
C654 C650 1.524 . S
C654 H666 0.956 . S
C654 H667 0.961 . S
C654 H668 0.961 . S
C655 C652 1.539 . S
C655 H669 0.958 . S
C655 H670 0.961 . S
C655 H671 0.960 . S
H656 C640 0.931 . S
H657 C645 0.929 . S
H658 C646 0.960 . S
H659 C646 0.962 . S
H660 C646 0.960 . S
H661 C647 0.961 . S
H662 C647 0.961 . S
H663 C647 0.961 . S
H664 C648 0.931 . S
H665 C653 0.930 . S
H666 C654 0.956 . S
H667 C654 0.961 . S
H668 C654 0.961 . S
H669 C655 0.958 . S
H670 C655 0.961 . S
H671 C655 0.960 . S
C672 C673 1.391 . S
C672 C674 1.394 . S
C672 H688 0.931 . S
C673 C672 1.391 . S
C673 C677 1.376 1_565 S
C674 C672 1.394 . S
C674 C675 1.369 . S
C674 C678 1.531 . S
C675 C674 1.369 . S
C675 C676 1.410 1_565 S
C675 C683 1.503 . S
C676 C675 1.410 1_545 S
C676 C677 1.392 . S
C676 C679 1.511 . S
C677 C673 1.376 1_545 S
C677 C676 1.392 . S
C677 H689 0.929 . S
C678 C674 1.531 . S
C678 H690 0.960 . S
C678 H691 0.962 . S
C678 H692 0.960 . S
C679 C676 1.511 . S
C679 H693 0.961 . S
C679 H694 0.961 . S
C679 H695 0.961 . S
C680 C681 1.370 . S
C680 C682 1.363 . S
C680 H696 0.931 . S
C681 C680 1.370 . S
C681 C685 1.408 1_565 S
C682 C680 1.363 . S
C682 C683 1.370 . S
C682 C686 1.524 . S
C683 C675 1.503 . S
C683 C682 1.370 . S
C683 C684 1.403 1_565 S
C684 C683 1.403 1_545 S
C684 C685 1.404 . S
C684 C687 1.539 . S
C685 C681 1.408 1_545 S
C685 C684 1.404 . S
C685 H697 0.930 . S
C686 C682 1.524 . S
C686 H698 0.956 . S
C686 H699 0.961 . S
C686 H700 0.961 . S
C687 C684 1.539 . S
C687 H701 0.969 . S
C687 H702 0.961 . S
C687 H703 0.960 . S
H688 C672 0.931 . S
H689 C677 0.929 . S
H690 C678 0.960 . S
H691 C678 0.962 . S
H692 C678 0.960 . S
H693 C679 0.961 . S
H694 C679 0.961 . S
H695 C679 0.961 . S
H696 C680 0.931 . S
H697 C685 0.930 . S
H698 C686 0.956 . S
H699 C686 0.961 . S
H700 C686 0.961 . S
H701 C687 0.969 . S
H702 C687 0.961 . S
H703 C687 0.960 . S
C704 C705 1.391 . S
C704 C706 1.394 . S
C704 H720 0.931 . S
C705 C704 1.391 . S
C705 C709 1.376 . S
C706 C704 1.394 . S
C706 C707 1.369 . S
C706 C710 1.531 1_455 S
C707 C706 1.369 . S
C707 C708 1.410 . S
C707 C715 1.503 . S
C708 C707 1.410 . S
C708 C709 1.392 . S
C708 C711 1.511 . S
C709 C705 1.376 . S
C709 C708 1.392 . S
C709 H721 0.929 . S
C710 C706 1.531 1_655 S
C710 H722 0.960 . S
C710 H723 0.962 1_655 S
C710 H724 0.960 . S
C711 C708 1.511 . S
C711 H725 0.961 . S
C711 H726 0.961 . S
C711 H727 0.952 1_455 S
C712 C713 1.370 . S
C712 C714 1.363 . S
C712 H728 0.931 . S
C713 C712 1.370 . S
C713 C717 1.408 1_455 S
C714 C712 1.363 . S
C714 C715 1.370 . S
C714 C718 1.524 . S
C715 C707 1.503 . S
C715 C714 1.370 . S
C715 C716 1.403 1_455 S
C716 C715 1.403 1_655 S
C716 C717 1.404 . S
C716 C719 1.539 . S
C717 C713 1.408 1_655 S
C717 C716 1.404 . S
C717 H729 0.930 . S
C718 C714 1.524 . S
C718 H730 0.956 . S
C718 H731 0.961 . S
C718 H732 0.961 . S
C719 C716 1.539 . S
C719 H733 0.958 . S
C719 H734 0.961 . S
C719 H735 0.960 . S
H720 C704 0.931 . S
H721 C709 0.929 . S
H722 C710 0.960 . S
H723 C710 0.962 1_455 S
H724 C710 0.960 . S
H725 C711 0.961 . S
H726 C711 0.961 . S
H727 C711 0.952 1_655 S
H728 C712 0.931 . S
H729 C717 0.930 . S
H730 C718 0.956 . S
H731 C718 0.961 . S
H732 C718 0.961 . S
H733 C719 0.958 . S
H734 C719 0.961 . S
H735 C719 0.960 . S
C736 C737 1.391 . S
C736 C738 1.394 . S
C736 H752 0.931 . S
C737 C736 1.391 . S
C737 C741 1.376 . S
C738 C736 1.394 . S
C738 C739 1.369 . S
C738 C742 1.531 . S
C739 C738 1.369 . S
C739 C740 1.410 . S
C739 C747 1.503 . S
C740 C739 1.410 . S
C740 C741 1.392 . S
C740 C743 1.511 . S
C741 C737 1.376 . S
C741 C740 1.392 . S
C741 H753 0.929 . S
C742 C738 1.531 . S
C742 H754 0.960 . S
C742 H755 0.962 . S
C742 H756 0.960 . S
C743 C740 1.511 . S
C743 H757 0.961 . S
C743 H758 0.961 . S
C743 H759 0.961 . S
C744 C745 1.370 . S
C744 C746 1.363 . S
C744 H760 0.931 . S
C745 C744 1.370 . S
C745 C749 1.408 . S
C746 C744 1.363 . S
C746 C747 1.370 . S
C746 C750 1.524 . S
C747 C739 1.503 . S
C747 C746 1.370 . S
C747 C748 1.403 . S
C748 C747 1.403 . S
C748 C749 1.404 . S
C748 C751 1.539 . S
C749 C745 1.408 . S
C749 C748 1.404 . S
C749 H761 0.930 . S
C750 C746 1.524 . S
C750 H762 0.956 . S
C750 H763 0.961 . S
C750 H764 0.961 . S
C751 C748 1.539 . S
C751 H765 0.958 . S
C751 H766 0.961 . S
C751 H767 0.960 . S
H752 C736 0.931 . S
H753 C741 0.929 . S
H754 C742 0.960 . S
H755 C742 0.962 . S
H756 C742 0.960 . S
H757 C743 0.961 . S
H758 C743 0.961 . S
H759 C743 0.961 . S
H760 C744 0.931 . S
H761 C749 0.930 . S
H762 C750 0.956 . S
H763 C750 0.961 . S
H764 C750 0.961 . S
H765 C751 0.958 . S
H766 C751 0.961 . S
H767 C751 0.960 . S
C768 C769 1.391 . S
C768 C770 1.394 . S
C768 H784 0.931 . S
C769 C768 1.391 . S
C769 C773 1.376 1_455 S
C770 C768 1.394 . S
C770 C771 1.369 . S
C770 C774 1.531 . S
C771 C770 1.369 . S
C771 C772 1.410 1_455 S
C771 C779 1.503 . S
C772 C771 1.410 1_655 S
C772 C773 1.392 . S
C772 C775 1.511 . S
C773 C769 1.376 1_655 S
C773 C772 1.392 . S
C773 H785 0.929 . S
C774 C770 1.531 . S
C774 H786 0.960 . S
C774 H787 0.962 . S
C774 H788 0.960 . S
C775 C772 1.511 . S
C775 H789 0.961 . S
C775 H790 0.961 . S
C775 H791 0.961 . S
C776 C777 1.343 1_655 S
C776 C778 1.363 . S
C776 H792 0.931 . S
C777 C776 1.343 1_455 S
C777 C781 1.425 . S
C778 C776 1.363 . S
C778 C779 1.370 1_655 S
C778 C782 1.524 . S
C779 C771 1.503 . S
C779 C778 1.370 1_455 S
C779 C780 1.403 . S
C780 C779 1.403 . S
C780 C781 1.404 . S
C780 C783 1.539 . S
C781 C777 1.425 . S
C781 C780 1.404 . S
C781 H793 0.930 . S
C782 C778 1.524 . S
C782 H794 0.956 1_655 S
C782 H795 0.961 . S
C782 H796 0.961 . S
C783 C780 1.539 . S
C783 H797 0.958 . S
C783 H798 0.961 . S
C783 H799 0.960 . S
H784 C768 0.931 . S
H785 C773 0.929 . S
H786 C774 0.960 . S
H787 C774 0.962 . S
H788 C774 0.960 . S
H789 C775 0.961 . S
H790 C775 0.961 . S
H791 C775 0.961 . S
H792 C776 0.931 . S
H793 C781 0.930 . S
H794 C782 0.956 1_455 S
H795 C782 0.961 . S
H796 C782 0.961 . S
H797 C783 0.958 . S
H798 C783 0.961 . S
H799 C783 0.960 . S
C800 C801 1.391 . S
C800 C802 1.394 . S
C800 H816 0.931 . S
C801 C800 1.391 . S
C801 C805 1.376 . S
C802 C800 1.394 . S
C802 C803 1.369 . S
C802 C806 1.531 . S
C803 C802 1.369 . S
C803 C804 1.410 . S
C803 C811 1.503 . S
C804 C803 1.410 . S
C804 C805 1.392 . S
C804 C807 1.511 . S
C805 C801 1.376 . S
C805 C804 1.392 . S
C805 H817 0.929 . S
C806 C802 1.531 . S
C806 H818 0.960 . S
C806 H819 0.962 . S
C806 H820 0.960 . S
C807 C804 1.511 . S
C807 H821 0.961 . S
C807 H822 0.961 . S
C807 H823 0.961 . S
C808 C809 1.370 . S
C808 C810 1.363 . S
C808 H824 0.931 . S
C809 C808 1.370 . S
C809 C813 1.408 . S
C810 C808 1.363 . S
C810 C811 1.370 . S
C810 C814 1.524 . S
C811 C803 1.503 . S
C811 C810 1.370 . S
C811 C812 1.403 . S
C812 C811 1.403 . S
C812 C813 1.404 . S
C812 C815 1.539 . S
C813 C809 1.408 . S
C813 C812 1.404 . S
C813 H825 0.930 . S
C814 C810 1.524 . S
C814 H826 0.956 . S
C814 H827 0.961 . S
C814 H828 0.961 . S
C815 C812 1.539 . S
C815 H829 0.958 . S
C815 H830 0.961 . S
C815 H831 0.960 . S
H816 C800 0.931 . S
H817 C805 0.929 . S
H818 C806 0.960 . S
H819 C806 0.962 . S
H820 C806 0.960 . S
H821 C807 0.961 . S
H822 C807 0.961 . S
H823 C807 0.961 . S
H824 C808 0.931 . S
H825 C813 0.930 . S
H826 C814 0.956 . S
H827 C814 0.961 . S
H828 C814 0.961 . S
H829 C815 0.958 . S
H830 C815 0.961 . S
H831 C815 0.960 . S
C832 C833 1.391 1_545 S
C832 C834 1.394 . S
C832 H848 0.931 . S
C833 C832 1.391 1_565 S
C833 C837 1.376 . S
C834 C832 1.394 . S
C834 C835 1.370 . S
C834 C838 1.531 . S
C835 C834 1.370 . S
C835 C836 1.407 1_545 S
C835 C843 1.498 . S
C836 C835 1.407 1_565 S
C836 C837 1.392 . S
C836 C839 1.511 . S
C837 C833 1.376 . S
C837 C836 1.392 . S
C837 H849 0.929 . S
C838 C834 1.531 . S
C838 H850 0.960 . S
C838 H851 0.962 . S
C838 H852 0.960 . S
C839 C836 1.511 . S
C839 H853 0.961 . S
C839 H854 0.961 . S
C839 H855 0.961 . S
C840 C841 1.358 1_565 S
C840 C842 1.363 . S
C840 H856 0.931 . S
C841 C840 1.358 1_545 S
C841 C845 1.410 . S
C842 C840 1.363 . S
C842 C843 1.370 1_565 S
C842 C846 1.524 . S
C843 C835 1.498 . S
C843 C842 1.370 1_545 S
C843 C844 1.410 . S
C844 C843 1.410 . S
C844 C845 1.404 . S
C844 C847 1.539 . S
C845 C841 1.410 . S
C845 C844 1.404 . S
C845 H857 0.930 . S
C846 C842 1.524 . S
C846 H858 0.956 . S
C846 H859 0.961 . S
C846 H860 0.961 . S
C847 C844 1.539 . S
C847 H861 0.958 . S
C847 H862 0.961 . S
C847 H863 0.960 . S
H848 C832 0.931 . S
H849 C837 0.929 . S
H850 C838 0.960 . S
H851 C838 0.962 . S
H852 C838 0.960 . S
H853 C839 0.961 . S
H854 C839 0.961 . S
H855 C839 0.961 . S
H856 C840 0.931 . S
H857 C845 0.930 . S
H858 C846 0.956 . S
H859 C846 0.961 . S
H860 C846 0.961 . S
H861 C847 0.958 . S
H862 C847 0.961 . S
H863 C847 0.960 . S
C864 C865 1.391 . S
C864 C866 1.394 . S
C864 H880 0.931 . S
C865 C864 1.391 . S
C865 C869 1.376 . S
C866 C864 1.394 . S
C866 C867 1.369 . S
C866 C870 1.531 . S
C867 C866 1.369 . S
C867 C868 1.410 . S
C867 C875 1.503 . S
C868 C867 1.410 . S
C868 C869 1.392 . S
C868 C871 1.511 . S
C869 C865 1.376 . S
C869 C868 1.392 . S
C869 H881 0.929 . S
C870 C866 1.531 . S
C870 H882 0.960 . S
C870 H883 0.962 . S
C870 H884 0.960 . S
C871 C868 1.511 . S
C871 H885 0.961 . S
C871 H886 0.972 . S
C871 H887 0.961 . S
C872 C873 1.370 1_565 S
C872 C874 1.363 . S
C872 H888 0.931 . S
C873 C872 1.370 1_545 S
C873 C877 1.408 . S
C874 C872 1.363 . S
C874 C875 1.370 1_565 S
C874 C878 1.524 . S
C875 C867 1.503 . S
C875 C874 1.370 1_545 S
C875 C876 1.403 . S
C876 C875 1.403 . S
C876 C877 1.404 . S
C876 C879 1.539 . S
C877 C873 1.408 . S
C877 C876 1.404 . S
C877 H889 0.930 . S
C878 C874 1.524 . S
C878 H890 0.956 . S
C878 H891 0.961 . S
C878 H892 0.961 . S
C879 C876 1.539 . S
C879 H893 0.958 . S
C879 H894 0.961 . S
C879 H895 0.960 . S
H880 C864 0.931 . S
H881 C869 0.929 . S
H882 C870 0.960 . S
H883 C870 0.962 . S
H884 C870 0.960 . S
H885 C871 0.961 . S
H886 C871 0.972 . S
H887 C871 0.961 . S
H888 C872 0.931 . S
H889 C877 0.930 . S
H890 C878 0.956 . S
H891 C878 0.961 . S
H892 C878 0.961 . S
H893 C879 0.958 . S
H894 C879 0.961 . S
H895 C879 0.960 . S
C896 C897 1.391 1_455 S
C896 C898 1.394 . S
C896 H912 0.931 . S
C897 C896 1.391 1_655 S
C897 C901 1.376 . S
C898 C896 1.394 . S
C898 C899 1.369 1_455 S
C898 C902 1.531 . S
C899 C898 1.369 1_655 S
C899 C900 1.410 . S
C899 C907 1.503 . S
C900 C899 1.410 . S
C900 C901 1.392 . S
C900 C903 1.511 . S
C901 C897 1.376 . S
C901 C900 1.392 . S
C901 H913 0.929 . S
C902 C898 1.531 . S
C902 H914 0.960 . S
C902 H915 0.962 . S
C902 H916 0.960 . S
C903 C900 1.511 . S
C903 H917 0.961 . S
C903 H918 0.961 . S
C903 H919 0.961 . S
C904 C905 1.343 1_455 S
C904 C906 1.363 . S
C904 H920 0.931 . S
C905 C904 1.343 1_655 S
C905 C909 1.470 . S
C906 C904 1.363 . S
C906 C907 1.370 1_455 S
C906 C910 1.524 . S
C907 C899 1.503 . S
C907 C906 1.370 1_655 S
C907 C908 1.403 . S
C908 C907 1.403 . S
C908 C909 1.404 . S
C908 C911 1.539 . S
C909 C905 1.470 . S
C909 C908 1.404 . S
C909 H921 0.930 . S
C910 C906 1.524 . S
C910 H922 0.956 . S
C910 H923 0.961 . S
C910 H924 0.961 . S
C911 C908 1.539 . S
C911 H925 0.958 . S
C911 H926 0.961 . S
C911 H927 0.960 . S
H912 C896 0.931 . S
H913 C901 0.929 . S
H914 C902 0.960 . S
H915 C902 0.962 . S
H916 C902 0.960 . S
H917 C903 0.961 . S
H918 C903 0.961 . S
H919 C903 0.961 . S
H920 C904 0.931 . S
H921 C909 0.930 . S
H922 C910 0.956 . S
H923 C910 0.961 . S
H924 C910 0.961 . S
H925 C911 0.958 . S
H926 C911 0.961 . S
H927 C911 0.960 . S
C928 C929 1.391 . S
C928 C930 1.394 . S
C928 H944 0.931 . S
C929 C928 1.391 . S
C929 C933 1.376 . S
C930 C928 1.394 . S
C930 C931 1.369 . S
C930 C934 1.531 . S
C931 C930 1.369 . S
C931 C932 1.410 . S
C931 C939 1.503 . S
C932 C931 1.410 . S
C932 C933 1.392 . S
C932 C935 1.511 . S
C933 C929 1.376 . S
C933 C932 1.392 . S
C933 H945 0.929 . S
C934 C930 1.531 . S
C934 H946 0.960 . S
C934 H947 0.962 . S
C934 H948 0.960 . S
C935 C932 1.511 . S
C935 H949 0.961 . S
C935 H950 0.961 . S
C935 H951 0.961 . S
C936 C937 1.370 . S
C936 C938 1.363 . S
C936 H952 0.931 . S
C937 C936 1.370 . S
C937 C941 1.408 . S
C938 C936 1.363 . S
C938 C939 1.370 . S
C938 C942 1.524 . S
C939 C931 1.503 . S
C939 C938 1.370 . S
C939 C940 1.403 . S
C940 C939 1.403 . S
C940 C941 1.404 . S
C940 C943 1.539 . S
C941 C937 1.408 . S
C941 C940 1.404 . S
C941 H953 0.930 . S
C942 C938 1.524 . S
C942 H954 0.956 . S
C942 H955 0.961 . S
C942 H956 0.961 . S
C943 C940 1.539 . S
C943 H957 0.958 . S
C943 H958 0.961 . S
C943 H959 0.960 . S
H944 C928 0.931 . S
H945 C933 0.929 . S
H946 C934 0.960 . S
H947 C934 0.962 . S
H948 C934 0.960 . S
H949 C935 0.961 . S
H950 C935 0.961 . S
H951 C935 0.961 . S
H952 C936 0.931 . S
H953 C941 0.930 . S
H954 C942 0.956 . S
H955 C942 0.961 . S
H956 C942 0.961 . S
H957 C943 0.958 . S
H958 C943 0.961 . S
H959 C943 0.960 . S
C960 C961 1.391 . S
C960 C962 1.394 . S
C960 H976 0.931 . S
C961 C960 1.391 . S
C961 C965 1.376 . S
C962 C960 1.394 . S
C962 C963 1.369 . S
C962 C966 1.531 . S
C963 C962 1.369 . S
C963 C964 1.410 . S
C963 C971 1.503 . S
C964 C963 1.410 . S
C964 C965 1.392 . S
C964 C967 1.511 . S
C965 C961 1.376 . S
C965 C964 1.392 . S
C965 H977 0.929 . S
C966 C962 1.531 . S
C966 H978 0.960 . S
C966 H979 0.962 . S
C966 H980 0.960 . S
C967 C964 1.511 . S
C967 H981 0.961 . S
C967 H982 0.961 . S
C967 H983 0.961 . S
C968 C969 1.370 . S
C968 C970 1.363 . S
C968 H984 0.931 . S
C969 C968 1.370 . S
C969 C973 1.408 . S
C970 C968 1.363 . S
C970 C971 1.370 . S
C970 C974 1.524 . S
C971 C963 1.503 . S
C971 C970 1.370 . S
C971 C972 1.403 . S
C972 C971 1.403 . S
C972 C973 1.404 . S
C972 C975 1.539 . S
C973 C969 1.408 . S
C973 C972 1.404 . S
C973 H985 0.930 . S
C974 C970 1.524 . S
C974 H986 0.956 . S
C974 H987 0.961 . S
C974 H988 0.961 . S
C975 C972 1.539 . S
C975 H989 0.958 . S
C975 H990 0.961 . S
C975 H991 0.960 . S
H976 C960 0.931 . S
H977 C965 0.929 . S
H978 C966 0.960 . S
H979 C966 0.962 . S
H980 C966 0.960 . S
H981 C967 0.961 . S
H982 C967 0.961 . S
H983 C967 0.961 . S
H984 C968 0.931 . S
H985 C973 0.930 . S
H986 C974 0.956 . S
H987 C974 0.961 . S
H988 C974 0.961 . S
H989 C975 0.958 . S
H990 C975 0.961 . S
H991 C975 0.960 . S
C992 C993 1.391 . S
C992 C994 1.394 . S
C992 H1008 0.931 . S
C993 C992 1.391 . S
C993 C997 1.376 . S
C994 C992 1.394 . S
C994 C995 1.369 . S
C994 C998 1.531 . S
C995 C994 1.369 . S
C995 C996 1.410 . S
C995 C1003 1.503 . S
C996 C995 1.410 . S
C996 C997 1.392 . S
C996 C999 1.511 . S
C997 C993 1.376 . S
C997 C996 1.392 . S
C997 H1009 0.929 . S
C998 C994 1.531 . S
C998 H1010 0.960 . S
C998 H1011 0.962 . S
C998 H1012 0.960 . S
C999 C996 1.511 . S
C999 H1013 0.961 . S
C999 H1014 0.961 . S
C999 H1015 0.961 . S
C1000 C1001 1.370 . S
C1000 C1002 1.363 . S
C1000 H1016 0.931 . S
C1001 C1000 1.370 . S
C1001 C1005 1.408 . S
C1002 C1000 1.363 . S
C1002 C1003 1.370 . S
C1002 C1006 1.524 . S
C1003 C995 1.503 . S
C1003 C1002 1.370 . S
C1003 C1004 1.403 . S
C1004 C1003 1.403 . S
C1004 C1005 1.404 . S
C1004 C1007 1.539 . S
C1005 C1001 1.408 . S
C1005 C1004 1.404 . S
C1005 H1017 0.930 . S
C1006 C1002 1.524 . S
C1006 H1018 0.956 . S
C1006 H1019 0.961 . S
C1006 H1020 0.961 . S
C1007 C1004 1.539 . S
C1007 H1021 0.958 . S
C1007 H1022 0.961 . S
C1007 H1023 0.960 . S
H1008 C992 0.931 . S
H1009 C997 0.929 . S
H1010 C998 0.960 . S
H1011 C998 0.962 . S
H1012 C998 0.960 . S
H1013 C999 0.961 . S
H1014 C999 0.961 . S
H1015 C999 0.961 . S
H1016 C1000 0.931 . S
H1017 C1005 0.930 . S
H1018 C1006 0.956 . S
H1019 C1006 0.961 . S
H1020 C1006 0.961 . S
H1021 C1007 0.958 . S
H1022 C1007 0.961 . S
H1023 C1007 0.960 . S
C1024 C1025 1.391 . S
C1024 C1026 1.394 . S
C1024 H1040 0.931 . S
C1025 C1024 1.391 . S
C1025 C1029 1.376 . S
C1026 C1024 1.394 . S
C1026 C1027 1.369 . S
C1026 C1030 1.531 . S
C1027 C1026 1.369 . S
C1027 C1028 1.410 . S
C1027 C1035 1.503 . S
C1028 C1027 1.410 . S
C1028 C1029 1.392 . S
C1028 C1031 1.511 . S
C1029 C1025 1.376 . S
C1029 C1028 1.392 . S
C1029 H1041 0.929 . S
C1030 C1026 1.531 . S
C1030 H1042 0.960 . S
C1030 H1043 0.962 . S
C1030 H1044 0.960 . S
C1031 C1028 1.511 . S
C1031 H1045 0.961 . S
C1031 H1046 0.961 . S
C1031 H1047 0.961 . S
C1032 C1033 1.370 . S
C1032 C1034 1.363 . S
C1032 H1048 0.931 . S
C1033 C1032 1.370 . S
C1033 C1037 1.408 . S
C1034 C1032 1.363 . S
C1034 C1035 1.370 . S
C1034 C1038 1.524 . S
C1035 C1027 1.503 . S
C1035 C1034 1.370 . S
C1035 C1036 1.403 . S
C1036 C1035 1.403 . S
C1036 C1037 1.404 . S
C1036 C1039 1.539 . S
C1037 C1033 1.408 . S
C1037 C1036 1.404 . S
C1037 H1049 0.930 . S
C1038 C1034 1.524 . S
C1038 H1050 0.956 . S
C1038 H1051 0.961 . S
C1038 H1052 0.961 . S
C1039 C1036 1.539 . S
C1039 H1053 0.958 . S
C1039 H1054 0.961 . S
C1039 H1055 0.960 . S
H1040 C1024 0.931 . S
H1041 C1029 0.929 . S
H1042 C1030 0.960 . S
H1043 C1030 0.962 . S
H1044 C1030 0.960 . S
H1045 C1031 0.961 . S
H1046 C1031 0.961 . S
H1047 C1031 0.961 . S
H1048 C1032 0.931 . S
H1049 C1037 0.930 . S
H1050 C1038 0.956 . S
H1051 C1038 0.961 . S
H1052 C1038 0.961 . S
H1053 C1039 0.958 . S
H1054 C1039 0.961 . S
H1055 C1039 0.960 . S
C1056 C1057 1.391 . S
C1056 C1058 1.394 . S
C1056 H1072 0.931 . S
C1057 C1056 1.391 . S
C1057 C1061 1.376 . S
C1058 C1056 1.394 . S
C1058 C1059 1.369 . S
C1058 C1062 1.531 . S
C1059 C1058 1.369 . S
C1059 C1060 1.410 . S
C1059 C1067 1.503 . S
C1060 C1059 1.410 . S
C1060 C1061 1.392 . S
C1060 C1063 1.511 . S
C1061 C1057 1.376 . S
C1061 C1060 1.392 . S
C1061 H1073 0.929 . S
C1062 C1058 1.531 . S
C1062 H1074 0.960 . S
C1062 H1075 0.962 . S
C1062 H1076 0.960 . S
C1063 C1060 1.511 . S
C1063 H1077 0.961 . S
C1063 H1078 0.961 . S
C1063 H1079 0.961 . S
C1064 C1065 1.370 . S
C1064 C1066 1.363 . S
C1064 H1080 0.931 . S
C1065 C1064 1.370 . S
C1065 C1069 1.408 . S
C1066 C1064 1.363 . S
C1066 C1067 1.370 . S
C1066 C1070 1.524 . S
C1067 C1059 1.503 . S
C1067 C1066 1.370 . S
C1067 C1068 1.403 . S
C1068 C1067 1.403 . S
C1068 C1069 1.404 . S
C1068 C1071 1.539 . S
C1069 C1065 1.408 . S
C1069 C1068 1.404 . S
C1069 H1081 0.930 . S
C1070 C1066 1.524 . S
C1070 H1082 0.956 . S
C1070 H1083 0.961 . S
C1070 H1084 0.961 . S
C1071 C1068 1.539 . S
C1071 H1085 0.958 . S
C1071 H1086 0.961 . S
C1071 H1087 0.960 . S
H1072 C1056 0.931 . S
H1073 C1061 0.929 . S
H1074 C1062 0.960 . S
H1075 C1062 0.962 . S
H1076 C1062 0.960 . S
H1077 C1063 0.961 . S
H1078 C1063 0.961 . S
H1079 C1063 0.961 . S
H1080 C1064 0.931 . S
H1081 C1069 0.930 . S
H1082 C1070 0.956 . S
H1083 C1070 0.961 . S
H1084 C1070 0.961 . S
H1085 C1071 0.958 . S
H1086 C1071 0.961 . S
H1087 C1071 0.960 . S
C1088 C1089 1.391 . S
C1088 C1090 1.394 . S
C1088 H1104 0.931 . S
C1089 C1088 1.391 . S
C1089 C1093 1.376 . S
C1090 C1088 1.394 . S
C1090 C1091 1.369 . S
C1090 C1094 1.531 . S
C1091 C1090 1.369 . S
C1091 C1092 1.410 . S
C1091 C1099 1.503 . S
C1092 C1091 1.410 . S
C1092 C1093 1.392 . S
C1092 C1095 1.511 . S
C1093 C1089 1.376 . S
C1093 C1092 1.392 . S
C1093 H1105 0.929 . S
C1094 C1090 1.531 . S
C1094 H1106 0.960 . S
C1094 H1107 0.962 . S
C1094 H1108 0.960 . S
C1095 C1092 1.511 . S
C1095 H1109 0.961 . S
C1095 H1110 0.961 . S
C1095 H1111 0.961 . S
C1096 C1097 1.370 . S
C1096 C1098 1.363 . S
C1096 H1112 0.931 . S
C1097 C1096 1.370 . S
C1097 C1101 1.408 . S
C1098 C1096 1.363 . S
C1098 C1099 1.370 . S
C1098 C1102 1.524 . S
C1099 C1091 1.503 . S
C1099 C1098 1.370 . S
C1099 C1100 1.403 . S
C1100 C1099 1.403 . S
C1100 C1101 1.404 . S
C1100 C1103 1.539 . S
C1101 C1097 1.408 . S
C1101 C1100 1.404 . S
C1101 H1113 0.930 . S
C1102 C1098 1.524 . S
C1102 H1114 0.956 . S
C1102 H1115 0.961 . S
C1102 H1116 0.961 . S
C1103 C1100 1.539 . S
C1103 H1117 0.958 . S
C1103 H1118 0.961 . S
C1103 H1119 0.960 . S
H1104 C1088 0.931 . S
H1105 C1093 0.929 . S
H1106 C1094 0.960 . S
H1107 C1094 0.962 . S
H1108 C1094 0.960 . S
H1109 C1095 0.961 . S
H1110 C1095 0.961 . S
H1111 C1095 0.961 . S
H1112 C1096 0.931 . S
H1113 C1101 0.930 . S
H1114 C1102 0.956 . S
H1115 C1102 0.961 . S
H1116 C1102 0.961 . S
H1117 C1103 0.958 . S
H1118 C1103 0.961 . S
H1119 C1103 0.960 . S
C1120 C1121 1.391 . S
C1120 C1122 1.394 . S
C1120 H1136 0.931 . S
C1121 C1120 1.391 . S
C1121 C1125 1.376 . S
C1122 C1120 1.394 . S
C1122 C1123 1.369 . S
C1122 C1126 1.531 . S
C1123 C1122 1.369 . S
C1123 C1124 1.410 . S
C1123 C1131 1.503 . S
C1124 C1123 1.410 . S
C1124 C1125 1.392 . S
C1124 C1127 1.511 . S
C1125 C1121 1.376 . S
C1125 C1124 1.392 . S
C1125 H1137 0.929 . S
C1126 C1122 1.531 . S
C1126 H1138 0.960 . S
C1126 H1139 0.962 . S
C1126 H1140 0.960 . S
C1127 C1124 1.511 . S
C1127 H1141 0.961 . S
C1127 H1142 0.961 . S
C1127 H1143 0.961 . S
C1128 C1129 1.370 . S
C1128 C1130 1.363 . S
C1128 H1144 0.931 . S
C1129 C1128 1.370 . S
C1129 C1133 1.408 . S
C1130 C1128 1.363 . S
C1130 C1131 1.370 . S
C1130 C1134 1.524 . S
C1131 C1123 1.503 . S
C1131 C1130 1.370 . S
C1131 C1132 1.403 . S
C1132 C1131 1.403 . S
C1132 C1133 1.404 . S
C1132 C1135 1.539 . S
C1133 C1129 1.408 . S
C1133 C1132 1.404 . S
C1133 H1145 0.930 . S
C1134 C1130 1.524 . S
C1134 H1146 0.956 . S
C1134 H1147 0.961 . S
C1134 H1148 0.961 . S
C1135 C1132 1.539 . S
C1135 H1149 0.958 . S
C1135 H1150 0.961 . S
C1135 H1151 0.960 . S
H1136 C1120 0.931 . S
H1137 C1125 0.929 . S
H1138 C1126 0.960 . S
H1139 C1126 0.962 . S
H1140 C1126 0.960 . S
H1141 C1127 0.961 . S
H1142 C1127 0.961 . S
H1143 C1127 0.961 . S
H1144 C1128 0.931 . S
H1145 C1133 0.930 . S
H1146 C1134 0.956 . S
H1147 C1134 0.961 . S
H1148 C1134 0.961 . S
H1149 C1135 0.958 . S
H1150 C1135 0.961 . S
H1151 C1135 0.960 . S
C1152 C1153 1.391 . S
C1152 C1154 1.394 . S
C1152 H1168 0.931 . S
C1153 C1152 1.391 . S
C1153 C1157 1.376 . S
C1154 C1152 1.394 . S
C1154 C1155 1.369 . S
C1154 C1158 1.531 . S
C1155 C1154 1.369 . S
C1155 C1156 1.410 . S
C1155 C1163 1.503 . S
C1156 C1155 1.410 . S
C1156 C1157 1.392 . S
C1156 C1159 1.511 . S
C1157 C1153 1.376 . S
C1157 C1156 1.392 . S
C1157 H1169 0.929 . S
C1158 C1154 1.531 . S
C1158 H1170 0.960 . S
C1158 H1171 0.962 . S
C1158 H1172 0.960 . S
C1159 C1156 1.511 . S
C1159 H1173 0.961 . S
C1159 H1174 0.961 . S
C1159 H1175 0.961 . S
C1160 C1161 1.370 . S
C1160 C1162 1.363 . S
C1160 H1176 0.931 . S
C1161 C1160 1.370 . S
C1161 C1165 1.408 . S
C1162 C1160 1.363 . S
C1162 C1163 1.370 . S
C1162 C1166 1.524 . S
C1163 C1155 1.503 . S
C1163 C1162 1.370 . S
C1163 C1164 1.403 . S
C1164 C1163 1.403 . S
C1164 C1165 1.404 . S
C1164 C1167 1.539 . S
C1165 C1161 1.408 . S
C1165 C1164 1.404 . S
C1165 H1177 0.930 . S
C1166 C1162 1.524 . S
C1166 H1178 0.956 . S
C1166 H1179 0.961 . S
C1166 H1180 0.961 . S
C1167 C1164 1.539 . S
C1167 H1181 0.958 . S
C1167 H1182 0.961 . S
C1167 H1183 0.960 . S
H1168 C1152 0.931 . S
H1169 C1157 0.929 . S
H1170 C1158 0.960 . S
H1171 C1158 0.962 . S
H1172 C1158 0.960 . S
H1173 C1159 0.961 . S
H1174 C1159 0.961 . S
H1175 C1159 0.961 . S
H1176 C1160 0.931 . S
H1177 C1165 0.930 . S
H1178 C1166 0.956 . S
H1179 C1166 0.961 . S
H1180 C1166 0.961 . S
H1181 C1167 0.958 . S
H1182 C1167 0.961 . S
H1183 C1167 0.960 . S
C1184 C1185 1.391 . S
C1184 C1186 1.394 . S
C1184 H1200 0.931 . S
C1185 C1184 1.391 . S
C1185 C1189 1.376 . S
C1186 C1184 1.394 . S
C1186 C1187 1.369 . S
C1186 C1190 1.531 . S
C1187 C1186 1.369 . S
C1187 C1188 1.410 . S
C1187 C1195 1.503 . S
C1188 C1187 1.410 . S
C1188 C1189 1.392 . S
C1188 C1191 1.511 . S
C1189 C1185 1.376 . S
C1189 C1188 1.392 . S
C1189 H1201 0.929 . S
C1190 C1186 1.531 . S
C1190 H1202 0.960 . S
C1190 H1203 0.962 . S
C1190 H1204 0.960 . S
C1191 C1188 1.511 . S
C1191 H1205 0.961 . S
C1191 H1206 0.961 . S
C1191 H1207 0.961 . S
C1192 C1193 1.370 . S
C1192 C1194 1.363 . S
C1192 H1208 0.931 . S
C1193 C1192 1.370 . S
C1193 C1197 1.408 . S
C1194 C1192 1.363 . S
C1194 C1195 1.370 . S
C1194 C1198 1.524 . S
C1195 C1187 1.503 . S
C1195 C1194 1.370 . S
C1195 C1196 1.403 . S
C1196 C1195 1.403 . S
C1196 C1197 1.404 . S
C1196 C1199 1.539 . S
C1197 C1193 1.408 . S
C1197 C1196 1.404 . S
C1197 H1209 0.930 . S
C1198 C1194 1.524 . S
C1198 H1210 0.956 . S
C1198 H1211 0.961 . S
C1198 H1212 0.961 . S
C1199 C1196 1.539 . S
C1199 H1213 0.958 . S
C1199 H1214 0.961 . S
C1199 H1215 0.960 . S
H1200 C1184 0.931 . S
H1201 C1189 0.929 . S
H1202 C1190 0.960 . S
H1203 C1190 0.962 . S
H1204 C1190 0.960 . S
H1205 C1191 0.961 . S
H1206 C1191 0.961 . S
H1207 C1191 0.961 . S
H1208 C1192 0.931 . S
H1209 C1197 0.930 . S
H1210 C1198 0.956 . S
H1211 C1198 0.961 . S
H1212 C1198 0.961 . S
H1213 C1199 0.958 . S
H1214 C1199 0.961 . S
H1215 C1199 0.960 . S
C1216 C1217 1.391 . S
C1216 C1218 1.394 . S
C1216 H1232 0.931 . S
C1217 C1216 1.391 . S
C1217 C1221 1.376 . S
C1218 C1216 1.394 . S
C1218 C1219 1.369 . S
C1218 C1222 1.531 . S
C1219 C1218 1.369 . S
C1219 C1220 1.410 . S
C1219 C1227 1.503 . S
C1220 C1219 1.410 . S
C1220 C1221 1.392 . S
C1220 C1223 1.511 . S
C1221 C1217 1.376 . S
C1221 C1220 1.392 . S
C1221 H1233 0.929 . S
C1222 C1218 1.531 . S
C1222 H1234 0.960 . S
C1222 H1235 0.962 . S
C1222 H1236 0.960 . S
C1223 C1220 1.511 . S
C1223 H1237 0.961 . S
C1223 H1238 0.961 . S
C1223 H1239 0.961 . S
C1224 C1225 1.370 . S
C1224 C1226 1.363 . S
C1224 H1240 0.931 . S
C1225 C1224 1.370 . S
C1225 C1229 1.408 . S
C1226 C1224 1.363 . S
C1226 C1227 1.370 . S
C1226 C1230 1.524 . S
C1227 C1219 1.503 . S
C1227 C1226 1.370 . S
C1227 C1228 1.403 . S
C1228 C1227 1.403 . S
C1228 C1229 1.404 . S
C1228 C1231 1.539 . S
C1229 C1225 1.408 . S
C1229 C1228 1.404 . S
C1229 H1241 0.930 . S
C1230 C1226 1.524 . S
C1230 H1242 0.956 . S
C1230 H1243 0.961 . S
C1230 H1244 0.961 . S
C1231 C1228 1.539 . S
C1231 H1245 0.958 . S
C1231 H1246 0.961 . S
C1231 H1247 0.960 . S
H1232 C1216 0.931 . S
H1233 C1221 0.929 . S
H1234 C1222 0.960 . S
H1235 C1222 0.962 . S
H1236 C1222 0.960 . S
H1237 C1223 0.961 . S
H1238 C1223 0.961 . S
H1239 C1223 0.961 . S
H1240 C1224 0.931 . S
H1241 C1229 0.930 . S
H1242 C1230 0.956 . S
H1243 C1230 0.961 . S
H1244 C1230 0.961 . S
H1245 C1231 0.958 . S
H1246 C1231 0.961 . S
H1247 C1231 0.960 . S
C1248 C1249 1.391 . S
C1248 C1250 1.394 . S
C1248 H1264 0.931 . S
C1249 C1248 1.391 . S
C1249 C1253 1.376 . S
C1250 C1248 1.394 . S
C1250 C1251 1.369 . S
C1250 C1254 1.531 . S
C1251 C1250 1.369 . S
C1251 C1252 1.410 . S
C1251 C1259 1.503 . S
C1252 C1251 1.410 . S
C1252 C1253 1.392 . S
C1252 C1255 1.511 . S
C1253 C1249 1.376 . S
C1253 C1252 1.392 . S
C1253 H1265 0.929 . S
C1254 C1250 1.531 . S
C1254 H1266 0.960 . S
C1254 H1267 0.962 . S
C1254 H1268 0.960 . S
C1255 C1252 1.511 . S
C1255 H1269 0.961 . S
C1255 H1270 0.961 . S
C1255 H1271 0.961 . S
C1256 C1257 1.370 . S
C1256 C1258 1.363 . S
C1256 H1272 0.931 . S
C1257 C1256 1.370 . S
C1257 C1261 1.408 . S
C1258 C1256 1.363 . S
C1258 C1259 1.370 . S
C1258 C1262 1.524 . S
C1259 C1251 1.503 . S
C1259 C1258 1.370 . S
C1259 C1260 1.403 . S
C1260 C1259 1.403 . S
C1260 C1261 1.404 . S
C1260 C1263 1.539 . S
C1261 C1257 1.408 . S
C1261 C1260 1.404 . S
C1261 H1273 0.930 . S
C1262 C1258 1.524 . S
C1262 H1274 0.956 . S
C1262 H1275 0.961 . S
C1262 H1276 0.961 . S
C1263 C1260 1.539 . S
C1263 H1277 0.958 . S
C1263 H1278 0.961 . S
C1263 H1279 0.960 . S
H1264 C1248 0.931 . S
H1265 C1253 0.929 . S
H1266 C1254 0.960 . S
H1267 C1254 0.962 . S
H1268 C1254 0.960 . S
H1269 C1255 0.961 . S
H1270 C1255 0.961 . S
H1271 C1255 0.961 . S
H1272 C1256 0.931 . S
H1273 C1261 0.930 . S
H1274 C1262 0.956 . S
H1275 C1262 0.961 . S
H1276 C1262 0.961 . S
H1277 C1263 0.958 . S
H1278 C1263 0.961 . S
H1279 C1263 0.960 . S
C1280 C1281 1.391 . S
C1280 C1282 1.394 . S
C1280 H1296 0.931 . S
C1281 C1280 1.391 . S
C1281 C1285 1.376 . S
C1282 C1280 1.394 . S
C1282 C1283 1.369 . S
C1282 C1286 1.531 . S
C1283 C1282 1.369 . S
C1283 C1284 1.410 . S
C1283 C1291 1.503 . S
C1284 C1283 1.410 . S
C1284 C1285 1.392 . S
C1284 C1287 1.511 . S
C1285 C1281 1.376 . S
C1285 C1284 1.392 . S
C1285 H1297 0.929 . S
C1286 C1282 1.531 . S
C1286 H1298 0.960 . S
C1286 H1299 0.962 . S
C1286 H1300 0.960 . S
C1287 C1284 1.511 . S
C1287 H1301 0.961 . S
C1287 H1302 0.961 . S
C1287 H1303 0.961 . S
C1288 C1289 1.370 . S
C1288 C1290 1.363 . S
C1288 H1304 0.931 . S
C1289 C1288 1.370 . S
C1289 C1293 1.408 . S
C1290 C1288 1.363 . S
C1290 C1291 1.370 . S
C1290 C1294 1.524 . S
C1291 C1283 1.503 . S
C1291 C1290 1.370 . S
C1291 C1292 1.403 . S
C1292 C1291 1.403 . S
C1292 C1293 1.404 . S
C1292 C1295 1.539 . S
C1293 C1289 1.408 . S
C1293 C1292 1.404 . S
C1293 H1305 0.930 . S
C1294 C1290 1.524 . S
C1294 H1306 0.956 . S
C1294 H1307 0.961 . S
C1294 H1308 0.961 . S
C1295 C1292 1.539 . S
C1295 H1309 0.958 . S
C1295 H1310 0.961 . S
C1295 H1311 0.960 . S
H1296 C1280 0.931 . S
H1297 C1285 0.929 . S
H1298 C1286 0.960 . S
H1299 C1286 0.962 . S
H1300 C1286 0.960 . S
H1301 C1287 0.961 . S
H1302 C1287 0.961 . S
H1303 C1287 0.961 . S
H1304 C1288 0.931 . S
H1305 C1293 0.930 . S
H1306 C1294 0.956 . S
H1307 C1294 0.961 . S
H1308 C1294 0.961 . S
H1309 C1295 0.958 . S
H1310 C1295 0.961 . S
H1311 C1295 0.960 . S
C1312 C1313 1.391 . S
C1312 C1314 1.394 . S
C1312 H1328 0.931 . S
C1313 C1312 1.391 . S
C1313 C1317 1.376 . S
C1314 C1312 1.394 . S
C1314 C1315 1.369 . S
C1314 C1318 1.531 . S
C1315 C1314 1.369 . S
C1315 C1316 1.410 . S
C1315 C1323 1.503 . S
C1316 C1315 1.410 . S
C1316 C1317 1.392 . S
C1316 C1319 1.511 . S
C1317 C1313 1.376 . S
C1317 C1316 1.392 . S
C1317 H1329 0.929 . S
C1318 C1314 1.531 . S
C1318 H1330 0.960 . S
C1318 H1331 0.962 . S
C1318 H1332 0.960 . S
C1319 C1316 1.511 . S
C1319 H1333 0.961 . S
C1319 H1334 0.961 . S
C1319 H1335 0.961 . S
C1320 C1321 1.370 . S
C1320 C1322 1.363 . S
C1320 H1336 0.931 . S
C1321 C1320 1.370 . S
C1321 C1325 1.408 . S
C1322 C1320 1.363 . S
C1322 C1323 1.370 . S
C1322 C1326 1.524 . S
C1323 C1315 1.503 . S
C1323 C1322 1.370 . S
C1323 C1324 1.403 . S
C1324 C1323 1.403 . S
C1324 C1325 1.404 . S
C1324 C1327 1.539 . S
C1325 C1321 1.408 . S
C1325 C1324 1.404 . S
C1325 H1337 0.930 . S
C1326 C1322 1.524 . S
C1326 H1338 0.956 . S
C1326 H1339 0.961 . S
C1326 H1340 0.961 . S
C1327 C1324 1.539 . S
C1327 H1341 0.958 . S
C1327 H1342 0.961 . S
C1327 H1343 0.960 . S
H1328 C1312 0.931 . S
H1329 C1317 0.929 . S
H1330 C1318 0.960 . S
H1331 C1318 0.962 . S
H1332 C1318 0.960 . S
H1333 C1319 0.961 . S
H1334 C1319 0.961 . S
H1335 C1319 0.961 . S
H1336 C1320 0.931 . S
H1337 C1325 0.930 . S
H1338 C1326 0.956 . S
H1339 C1326 0.961 . S
H1340 C1326 0.961 . S
H1341 C1327 0.958 . S
H1342 C1327 0.961 . S
H1343 C1327 0.960 . S
C1344 C1345 1.391 . S
C1344 C1346 1.394 . S
C1344 H1360 0.931 . S
C1345 C1344 1.391 . S
C1345 C1349 1.376 . S
C1346 C1344 1.394 . S
C1346 C1347 1.369 . S
C1346 C1350 1.531 . S
C1347 C1346 1.369 . S
C1347 C1348 1.410 . S
C1347 C1355 1.503 . S
C1348 C1347 1.410 . S
C1348 C1349 1.392 . S
C1348 C1351 1.511 . S
C1349 C1345 1.376 . S
C1349 C1348 1.392 . S
C1349 H1361 0.929 . S
C1350 C1346 1.531 . S
C1350 H1362 0.960 . S
C1350 H1363 0.962 . S
C1350 H1364 0.960 . S
C1351 C1348 1.511 . S
C1351 H1365 0.961 . S
C1351 H1366 0.961 . S
C1351 H1367 0.961 . S
C1352 C1353 1.370 . S
C1352 C1354 1.363 . S
C1352 H1368 0.931 . S
C1353 C1352 1.370 . S
C1353 C1357 1.408 . S
C1354 C1352 1.363 . S
C1354 C1355 1.370 . S
C1354 C1358 1.524 . S
C1355 C1347 1.503 . S
C1355 C1354 1.370 . S
C1355 C1356 1.403 . S
C1356 C1355 1.403 . S
C1356 C1357 1.404 . S
C1356 C1359 1.539 . S
C1357 C1353 1.408 . S
C1357 C1356 1.404 . S
C1357 H1369 0.930 . S
C1358 C1354 1.524 . S
C1358 H1370 0.956 . S
C1358 H1371 0.961 . S
C1358 H1372 0.961 . S
C1359 C1356 1.539 . S
C1359 H1373 0.958 . S
C1359 H1374 0.961 . S
C1359 H1375 0.960 . S
H1360 C1344 0.931 . S
H1361 C1349 0.929 . S
H1362 C1350 0.960 . S
H1363 C1350 0.962 . S
H1364 C1350 0.960 . S
H1365 C1351 0.961 . S
H1366 C1351 0.961 . S
H1367 C1351 0.961 . S
H1368 C1352 0.931 . S
H1369 C1357 0.930 . S
H1370 C1358 0.956 . S
H1371 C1358 0.961 . S
H1372 C1358 0.961 . S
H1373 C1359 0.958 . S
H1374 C1359 0.961 . S
H1375 C1359 0.960 . S
C1376 C1377 1.391 . S
C1376 C1378 1.394 . S
C1376 H1392 0.931 . S
C1377 C1376 1.391 . S
C1377 C1381 1.376 . S
C1378 C1376 1.394 . S
C1378 C1379 1.369 . S
C1378 C1382 1.531 . S
C1379 C1378 1.369 . S
C1379 C1380 1.410 . S
C1379 C1387 1.503 . S
C1380 C1379 1.410 . S
C1380 C1381 1.392 . S
C1380 C1383 1.511 . S
C1381 C1377 1.376 . S
C1381 C1380 1.392 . S
C1381 H1393 0.929 . S
C1382 C1378 1.531 . S
C1382 H1394 0.960 . S
C1382 H1395 0.962 . S
C1382 H1396 0.960 . S
C1383 C1380 1.511 . S
C1383 H1397 0.961 . S
C1383 H1398 0.961 . S
C1383 H1399 0.961 . S
C1384 C1385 1.370 . S
C1384 C1386 1.363 . S
C1384 H1400 0.931 . S
C1385 C1384 1.370 . S
C1385 C1389 1.408 . S
C1386 C1384 1.363 . S
C1386 C1387 1.370 . S
C1386 C1390 1.524 . S
C1387 C1379 1.503 . S
C1387 C1386 1.370 . S
C1387 C1388 1.403 . S
C1388 C1387 1.403 . S
C1388 C1389 1.404 . S
C1388 C1391 1.539 . S
C1389 C1385 1.408 . S
C1389 C1388 1.404 . S
C1389 H1401 0.930 . S
C1390 C1386 1.524 . S
C1390 H1402 0.956 . S
C1390 H1403 0.961 . S
C1390 H1404 0.961 . S
C1391 C1388 1.539 . S
C1391 H1405 0.958 . S
C1391 H1406 0.961 . S
C1391 H1407 0.960 . S
H1392 C1376 0.931 . S
H1393 C1381 0.929 . S
H1394 C1382 0.960 . S
H1395 C1382 0.962 . S
H1396 C1382 0.960 . S
H1397 C1383 0.961 . S
H1398 C1383 0.961 . S
H1399 C1383 0.961 . S
H1400 C1384 0.931 . S
H1401 C1389 0.930 . S
H1402 C1390 0.956 . S
H1403 C1390 0.961 . S
H1404 C1390 0.961 . S
H1405 C1391 0.958 . S
H1406 C1391 0.961 . S
H1407 C1391 0.960 . S
C1408 C1409 1.391 . S
C1408 C1410 1.394 . S
C1408 H1424 0.931 . S
C1409 C1408 1.391 . S
C1409 C1413 1.376 . S
C1410 C1408 1.394 . S
C1410 C1411 1.369 . S
C1410 C1414 1.531 . S
C1411 C1410 1.369 . S
C1411 C1412 1.410 . S
C1411 C1419 1.503 . S
C1412 C1411 1.410 . S
C1412 C1413 1.392 . S
C1412 C1415 1.511 . S
C1413 C1409 1.376 . S
C1413 C1412 1.392 . S
C1413 H1425 0.929 . S
C1414 C1410 1.531 . S
C1414 H1426 0.960 . S
C1414 H1427 0.962 . S
C1414 H1428 0.960 . S
C1415 C1412 1.511 . S
C1415 H1429 0.961 . S
C1415 H1430 0.961 . S
C1415 H1431 0.961 . S
C1416 C1417 1.370 . S
C1416 C1418 1.363 . S
C1416 H1432 0.931 . S
C1417 C1416 1.370 . S
C1417 C1421 1.408 . S
C1418 C1416 1.363 . S
C1418 C1419 1.370 . S
C1418 C1422 1.524 . S
C1419 C1411 1.503 . S
C1419 C1418 1.370 . S
C1419 C1420 1.403 . S
C1420 C1419 1.403 . S
C1420 C1421 1.404 . S
C1420 C1423 1.539 . S
C1421 C1417 1.408 . S
C1421 C1420 1.404 . S
C1421 H1433 0.930 . S
C1422 C1418 1.524 . S
C1422 H1434 0.956 . S
C1422 H1435 0.961 . S
C1422 H1436 0.961 . S
C1423 C1420 1.539 . S
C1423 H1437 0.958 . S
C1423 H1438 0.961 . S
C1423 H1439 0.960 . S
H1424 C1408 0.931 . S
H1425 C1413 0.929 . S
H1426 C1414 0.960 . S
H1427 C1414 0.962 . S
H1428 C1414 0.960 . S
H1429 C1415 0.961 . S
H1430 C1415 0.961 . S
H1431 C1415 0.961 . S
H1432 C1416 0.931 . S
H1433 C1421 0.930 . S
H1434 C1422 0.956 . S
H1435 C1422 0.961 . S
H1436 C1422 0.961 . S
H1437 C1423 0.958 . S
H1438 C1423 0.961 . S
H1439 C1423 0.960 . S
C1440 C1441 1.391 . S
C1440 C1442 1.394 . S
C1440 H1456 0.931 . S
C1441 C1440 1.391 . S
C1441 C1445 1.376 . S
C1442 C1440 1.394 . S
C1442 C1443 1.369 . S
C1442 C1446 1.531 . S
C1443 C1442 1.369 . S
C1443 C1444 1.410 . S
C1443 C1451 1.503 . S
C1444 C1443 1.410 . S
C1444 C1445 1.392 . S
C1444 C1447 1.511 . S
C1445 C1441 1.376 . S
C1445 C1444 1.392 . S
C1445 H1457 0.929 . S
C1446 C1442 1.531 . S
C1446 H1458 0.960 . S
C1446 H1459 0.962 . S
C1446 H1460 0.960 . S
C1447 C1444 1.511 . S
C1447 H1461 0.961 . S
C1447 H1462 0.961 . S
C1447 H1463 0.961 . S
C1448 C1449 1.370 . S
C1448 C1450 1.363 . S
C1448 H1464 0.931 . S
C1449 C1448 1.370 . S
C1449 C1453 1.408 . S
C1450 C1448 1.363 . S
C1450 C1451 1.370 . S
C1450 C1454 1.524 . S
C1451 C1443 1.503 . S
C1451 C1450 1.370 . S
C1451 C1452 1.403 . S
C1452 C1451 1.403 . S
C1452 C1453 1.404 . S
C1452 C1455 1.539 . S
C1453 C1449 1.408 . S
C1453 C1452 1.404 . S
C1453 H1465 0.930 . S
C1454 C1450 1.524 . S
C1454 H1466 0.956 . S
C1454 H1467 0.961 . S
C1454 H1468 0.961 . S
C1455 C1452 1.539 . S
C1455 H1469 0.958 . S
C1455 H1470 0.961 . S
C1455 H1471 0.960 . S
H1456 C1440 0.931 . S
H1457 C1445 0.929 . S
H1458 C1446 0.960 . S
H1459 C1446 0.962 . S
H1460 C1446 0.960 . S
H1461 C1447 0.961 . S
H1462 C1447 0.961 . S
H1463 C1447 0.961 . S
H1464 C1448 0.931 . S
H1465 C1453 0.930 . S
H1466 C1454 0.956 . S
H1467 C1454 0.961 . S
H1468 C1454 0.961 . S
H1469 C1455 0.958 . S
H1470 C1455 0.961 . S
H1471 C1455 0.960 . S
C1472 C1473 1.391 . S
C1472 C1474 1.394 . S
C1472 H1488 0.931 . S
C1473 C1472 1.391 . S
C1473 C1477 1.376 . S
C1474 C1472 1.394 . S
C1474 C1475 1.369 . S
C1474 C1478 1.531 . S
C1475 C1474 1.369 . S
C1475 C1476 1.410 . S
C1475 C1483 1.503 . S
C1476 C1475 1.410 . S
C1476 C1477 1.392 . S
C1476 C1479 1.511 . S
C1477 C1473 1.376 . S
C1477 C1476 1.392 . S
C1477 H1489 0.929 . S
C1478 C1474 1.531 . S
C1478 H1490 0.960 . S
C1478 H1491 0.962 . S
C1478 H1492 0.960 . S
C1479 C1476 1.511 . S
C1479 H1493 0.961 . S
C1479 H1494 0.961 . S
C1479 H1495 0.961 . S
C1480 C1481 1.370 . S
C1480 C1482 1.363 . S
C1480 H1496 0.931 . S
C1481 C1480 1.370 . S
C1481 C1485 1.408 . S
C1482 C1480 1.363 . S
C1482 C1483 1.370 . S
C1482 C1486 1.524 . S
C1483 C1475 1.503 . S
C1483 C1482 1.370 . S
C1483 C1484 1.403 . S
C1484 C1483 1.403 . S
C1484 C1485 1.404 . S
C1484 C1487 1.539 . S
C1485 C1481 1.408 . S
C1485 C1484 1.404 . S
C1485 H1497 0.930 . S
C1486 C1482 1.524 . S
C1486 H1498 0.956 . S
C1486 H1499 0.961 . S
C1486 H1500 0.961 . S
C1487 C1484 1.539 . S
C1487 H1501 0.958 . S
C1487 H1502 0.961 . S
C1487 H1503 0.960 . S
H1488 C1472 0.931 . S
H1489 C1477 0.929 . S
H1490 C1478 0.960 . S
H1491 C1478 0.962 . S
H1492 C1478 0.960 . S
H1493 C1479 0.961 . S
H1494 C1479 0.961 . S
H1495 C1479 0.961 . S
H1496 C1480 0.931 . S
H1497 C1485 0.930 . S
H1498 C1486 0.956 . S
H1499 C1486 0.961 . S
H1500 C1486 0.961 . S
H1501 C1487 0.958 . S
H1502 C1487 0.961 . S
H1503 C1487 0.960 . S
C1504 C1505 1.391 . S
C1504 C1506 1.394 . S
C1504 H1520 0.931 . S
C1505 C1504 1.391 . S
C1505 C1509 1.376 . S
C1506 C1504 1.394 . S
C1506 C1507 1.369 . S
C1506 C1510 1.531 . S
C1507 C1506 1.369 . S
C1507 C1508 1.410 . S
C1507 C1515 1.503 . S
C1508 C1507 1.410 . S
C1508 C1509 1.392 . S
C1508 C1511 1.511 . S
C1509 C1505 1.376 . S
C1509 C1508 1.392 . S
C1509 H1521 0.929 . S
C1510 C1506 1.531 . S
C1510 H1522 0.960 . S
C1510 H1523 0.962 . S
C1510 H1524 0.960 . S
C1511 C1508 1.511 . S
C1511 H1525 0.961 . S
C1511 H1526 0.961 . S
C1511 H1527 0.961 . S
C1512 C1513 1.370 . S
C1512 C1514 1.363 . S
C1512 H1528 0.931 . S
C1513 C1512 1.370 . S
C1513 C1517 1.408 . S
C1514 C1512 1.363 . S
C1514 C1515 1.370 . S
C1514 C1518 1.524 . S
C1515 C1507 1.503 . S
C1515 C1514 1.370 . S
C1515 C1516 1.403 . S
C1516 C1515 1.403 . S
C1516 C1517 1.404 . S
C1516 C1519 1.539 . S
C1517 C1513 1.408 . S
C1517 C1516 1.404 . S
C1517 H1529 0.930 . S
C1518 C1514 1.524 . S
C1518 H1530 0.956 . S
C1518 H1531 0.961 . S
C1518 H1532 0.961 . S
C1519 C1516 1.539 . S
C1519 H1533 0.958 . S
C1519 H1534 0.961 . S
C1519 H1535 0.960 . S
H1520 C1504 0.931 . S
H1521 C1509 0.929 . S
H1522 C1510 0.960 . S
H1523 C1510 0.962 . S
H1524 C1510 0.960 . S
H1525 C1511 0.961 . S
H1526 C1511 0.961 . S
H1527 C1511 0.961 . S
H1528 C1512 0.931 . S
H1529 C1517 0.930 . S
H1530 C1518 0.956 . S
H1531 C1518 0.961 . S
H1532 C1518 0.961 . S
H1533 C1519 0.958 . S
H1534 C1519 0.961 . S
H1535 C1519 0.960 . S
C1536 C1537 1.391 . S
C1536 C1538 1.394 . S
C1536 H1552 0.931 . S
C1537 C1536 1.391 . S
C1537 C1541 1.376 . S
C1538 C1536 1.394 . S
C1538 C1539 1.369 . S
C1538 C1542 1.531 . S
C1539 C1538 1.369 . S
C1539 C1540 1.410 . S
C1539 C1547 1.503 . S
C1540 C1539 1.410 . S
C1540 C1541 1.392 . S
C1540 C1543 1.511 . S
C1541 C1537 1.376 . S
C1541 C1540 1.392 . S
C1541 H1553 0.929 . S
C1542 C1538 1.531 . S
C1542 H1554 0.960 . S
C1542 H1555 0.962 . S
C1542 H1556 0.960 . S
C1543 C1540 1.511 . S
C1543 H1557 0.961 . S
C1543 H1558 0.961 . S
C1543 H1559 0.961 . S
C1544 C1545 1.370 . S
C1544 C1546 1.363 . S
C1544 H1560 0.931 . S
C1545 C1544 1.370 . S
C1545 C1549 1.408 . S
C1546 C1544 1.363 . S
C1546 C1547 1.370 . S
C1546 C1550 1.524 . S
C1547 C1539 1.503 . S
C1547 C1546 1.370 . S
C1547 C1548 1.403 . S
C1548 C1547 1.403 . S
C1548 C1549 1.404 . S
C1548 C1551 1.539 . S
C1549 C1545 1.408 . S
C1549 C1548 1.404 . S
C1549 H1561 0.930 . S
C1550 C1546 1.524 . S
C1550 H1562 0.956 . S
C1550 H1563 0.961 . S
C1550 H1564 0.961 . S
C1551 C1548 1.539 . S
C1551 H1565 0.958 . S
C1551 H1566 0.961 . S
C1551 H1567 0.960 . S
H1552 C1536 0.931 . S
H1553 C1541 0.929 . S
H1554 C1542 0.960 . S
H1555 C1542 0.962 . S
H1556 C1542 0.960 . S
H1557 C1543 0.961 . S
H1558 C1543 0.961 . S
H1559 C1543 0.961 . S
H1560 C1544 0.931 . S
H1561 C1549 0.930 . S
H1562 C1550 0.956 . S
H1563 C1550 0.961 . S
H1564 C1550 0.961 . S
H1565 C1551 0.958 . S
H1566 C1551 0.961 . S
H1567 C1551 0.960 . S
C1568 C1569 1.391 . S
C1568 C1570 1.394 . S
C1568 H1584 0.931 . S
C1569 C1568 1.391 . S
C1569 C1573 1.376 . S
C1570 C1568 1.394 . S
C1570 C1571 1.369 . S
C1570 C1574 1.531 . S
C1571 C1570 1.369 . S
C1571 C1572 1.410 . S
C1571 C1579 1.503 . S
C1572 C1571 1.410 . S
C1572 C1573 1.392 . S
C1572 C1575 1.511 . S
C1573 C1569 1.376 . S
C1573 C1572 1.392 . S
C1573 H1585 0.929 . S
C1574 C1570 1.531 . S
C1574 H1586 0.960 . S
C1574 H1587 0.962 . S
C1574 H1588 0.960 . S
C1575 C1572 1.511 . S
C1575 H1589 0.961 . S
C1575 H1590 0.961 . S
C1575 H1591 0.961 . S
C1576 C1577 1.370 . S
C1576 C1578 1.363 . S
C1576 H1592 0.931 . S
C1577 C1576 1.370 . S
C1577 C1581 1.408 . S
C1578 C1576 1.363 . S
C1578 C1579 1.370 . S
C1578 C1582 1.524 . S
C1579 C1571 1.503 . S
C1579 C1578 1.370 . S
C1579 C1580 1.403 . S
C1580 C1579 1.403 . S
C1580 C1581 1.404 . S
C1580 C1583 1.539 . S
C1581 C1577 1.408 . S
C1581 C1580 1.404 . S
C1581 H1593 0.930 . S
C1582 C1578 1.524 . S
C1582 H1594 0.956 . S
C1582 H1595 0.961 . S
C1582 H1596 0.961 . S
C1583 C1580 1.539 . S
C1583 H1597 0.958 . S
C1583 H1598 0.961 . S
C1583 H1599 0.960 . S
H1584 C1568 0.931 . S
H1585 C1573 0.929 . S
H1586 C1574 0.960 . S
H1587 C1574 0.962 . S
H1588 C1574 0.960 . S
H1589 C1575 0.961 . S
H1590 C1575 0.961 . S
H1591 C1575 0.961 . S
H1592 C1576 0.931 . S
H1593 C1581 0.930 . S
H1594 C1582 0.956 . S
H1595 C1582 0.961 . S
H1596 C1582 0.961 . S
H1597 C1583 0.958 . S
H1598 C1583 0.961 . S
H1599 C1583 0.960 . S
C1600 C1601 1.391 . S
C1600 C1602 1.394 . S
C1600 H1616 0.931 . S
C1601 C1600 1.391 . S
C1601 C1605 1.376 . S
C1602 C1600 1.394 . S
C1602 C1603 1.369 . S
C1602 C1606 1.531 . S
C1603 C1602 1.369 . S
C1603 C1604 1.410 . S
C1603 C1611 1.503 . S
C1604 C1603 1.410 . S
C1604 C1605 1.392 . S
C1604 C1607 1.511 . S
C1605 C1601 1.376 . S
C1605 C1604 1.392 . S
C1605 H1617 0.929 . S
C1606 C1602 1.531 . S
C1606 H1618 0.960 . S
C1606 H1619 0.962 . S
C1606 H1620 0.960 . S
C1607 C1604 1.511 . S
C1607 H1621 0.961 . S
C1607 H1622 0.961 . S
C1607 H1623 0.961 . S
C1608 C1609 1.370 . S
C1608 C1610 1.363 . S
C1608 H1624 0.931 . S
C1609 C1608 1.370 . S
C1609 C1613 1.408 . S
C1610 C1608 1.363 . S
C1610 C1611 1.370 . S
C1610 C1614 1.524 . S
C1611 C1603 1.503 . S
C1611 C1610 1.370 . S
C1611 C1612 1.403 . S
C1612 C1611 1.403 . S
C1612 C1613 1.404 . S
C1612 C1615 1.539 . S
C1613 C1609 1.408 . S
C1613 C1612 1.404 . S
C1613 H1625 0.930 . S
C1614 C1610 1.524 . S
C1614 H1626 0.956 . S
C1614 H1627 0.961 . S
C1614 H1628 0.961 . S
C1615 C1612 1.539 . S
C1615 H1629 0.958 . S
C1615 H1630 0.961 . S
C1615 H1631 0.960 . S
H1616 C1600 0.931 . S
H1617 C1605 0.929 . S
H1618 C1606 0.960 . S
H1619 C1606 0.962 . S
H1620 C1606 0.960 . S
H1621 C1607 0.961 . S
H1622 C1607 0.961 . S
H1623 C1607 0.961 . S
H1624 C1608 0.931 . S
H1625 C1613 0.930 . S
H1626 C1614 0.956 . S
H1627 C1614 0.961 . S
H1628 C1614 0.961 . S
H1629 C1615 0.958 . S
H1630 C1615 0.961 . S
H1631 C1615 0.960 . S
C1632 C1633 1.391 . S
C1632 C1634 1.394 . S
C1632 H1648 0.931 . S
C1633 C1632 1.391 . S
C1633 C1637 1.376 . S
C1634 C1632 1.394 . S
C1634 C1635 1.369 . S
C1634 C1638 1.531 . S
C1635 C1634 1.369 . S
C1635 C1636 1.410 . S
C1635 C1643 1.503 . S
C1636 C1635 1.410 . S
C1636 C1637 1.392 . S
C1636 C1639 1.511 . S
C1637 C1633 1.376 . S
C1637 C1636 1.392 . S
C1637 H1649 0.929 . S
C1638 C1634 1.531 . S
C1638 H1650 0.960 . S
C1638 H1651 0.962 . S
C1638 H1652 0.960 . S
C1639 C1636 1.511 . S
C1639 H1653 0.961 . S
C1639 H1654 0.961 . S
C1639 H1655 0.961 . S
C1640 C1641 1.370 . S
C1640 C1642 1.363 . S
C1640 H1656 0.931 . S
C1641 C1640 1.370 . S
C1641 C1645 1.408 . S
C1642 C1640 1.363 . S
C1642 C1643 1.370 . S
C1642 C1646 1.524 . S
C1643 C1635 1.503 . S
C1643 C1642 1.370 . S
C1643 C1644 1.403 . S
C1644 C1643 1.403 . S
C1644 C1645 1.404 . S
C1644 C1647 1.539 . S
C1645 C1641 1.408 . S
C1645 C1644 1.404 . S
C1645 H1657 0.930 . S
C1646 C1642 1.524 . S
C1646 H1658 0.956 . S
C1646 H1659 0.961 . S
C1646 H1660 0.961 . S
C1647 C1644 1.539 . S
C1647 H1661 0.958 . S
C1647 H1662 0.961 . S
C1647 H1663 0.960 . S
H1648 C1632 0.931 . S
H1649 C1637 0.929 . S
H1650 C1638 0.960 . S
H1651 C1638 0.962 . S
H1652 C1638 0.960 . S
H1653 C1639 0.961 . S
H1654 C1639 0.961 . S
H1655 C1639 0.961 . S
H1656 C1640 0.931 . S
H1657 C1645 0.930 . S
H1658 C1646 0.956 . S
H1659 C1646 0.961 . S
H1660 C1646 0.961 . S
H1661 C1647 0.958 . S
H1662 C1647 0.961 . S
H1663 C1647 0.960 . S
C1664 C1665 1.391 . S
C1664 C1666 1.394 . S
C1664 H1680 0.931 . S
C1665 C1664 1.391 . S
C1665 C1669 1.376 . S
C1666 C1664 1.394 . S
C1666 C1667 1.369 . S
C1666 C1670 1.531 . S
C1667 C1666 1.369 . S
C1667 C1668 1.410 . S
C1667 C1675 1.503 . S
C1668 C1667 1.410 . S
C1668 C1669 1.392 . S
C1668 C1671 1.511 . S
C1669 C1665 1.376 . S
C1669 C1668 1.392 . S
C1669 H1681 0.929 . S
C1670 C1666 1.531 . S
C1670 H1682 0.960 . S
C1670 H1683 0.962 . S
C1670 H1684 0.960 . S
C1671 C1668 1.511 . S
C1671 H1685 0.961 . S
C1671 H1686 0.961 . S
C1671 H1687 0.961 . S
C1672 C1673 1.370 . S
C1672 C1674 1.363 . S
C1672 H1688 0.931 . S
C1673 C1672 1.370 . S
C1673 C1677 1.408 . S
C1674 C1672 1.363 . S
C1674 C1675 1.370 . S
C1674 C1678 1.524 . S
C1675 C1667 1.503 . S
C1675 C1674 1.370 . S
C1675 C1676 1.403 . S
C1676 C1675 1.403 . S
C1676 C1677 1.404 . S
C1676 C1679 1.539 . S
C1677 C1673 1.408 . S
C1677 C1676 1.404 . S
C1677 H1689 0.930 . S
C1678 C1674 1.524 . S
C1678 H1690 0.956 . S
C1678 H1691 0.961 . S
C1678 H1692 0.961 . S
C1679 C1676 1.539 . S
C1679 H1693 0.958 . S
C1679 H1694 0.961 . S
C1679 H1695 0.960 . S
H1680 C1664 0.931 . S
H1681 C1669 0.929 . S
H1682 C1670 0.960 . S
H1683 C1670 0.962 . S
H1684 C1670 0.960 . S
H1685 C1671 0.961 . S
H1686 C1671 0.961 . S
H1687 C1671 0.961 . S
H1688 C1672 0.931 . S
H1689 C1677 0.930 . S
H1690 C1678 0.956 . S
H1691 C1678 0.961 . S
H1692 C1678 0.961 . S
H1693 C1679 0.958 . S
H1694 C1679 0.961 . S
H1695 C1679 0.960 . S
C1696 C1697 1.391 . S
C1696 C1698 1.394 . S
C1696 H1712 0.931 . S
C1697 C1696 1.391 . S
C1697 C1701 1.376 . S
C1698 C1696 1.394 . S
C1698 C1699 1.369 . S
C1698 C1702 1.531 . S
C1699 C1698 1.369 . S
C1699 C1700 1.410 . S
C1699 C1707 1.503 . S
C1700 C1699 1.410 . S
C1700 C1701 1.392 . S
C1700 C1703 1.511 . S
C1701 C1697 1.376 . S
C1701 C1700 1.392 . S
C1701 H1713 0.929 . S
C1702 C1698 1.531 . S
C1702 H1714 0.960 . S
C1702 H1715 0.962 . S
C1702 H1716 0.960 . S
C1703 C1700 1.511 . S
C1703 H1717 0.961 . S
C1703 H1718 0.961 . S
C1703 H1719 0.961 . S
C1704 C1705 1.370 . S
C1704 C1706 1.363 . S
C1704 H1720 0.931 . S
C1705 C1704 1.370 . S
C1705 C1709 1.408 . S
C1706 C1704 1.363 . S
C1706 C1707 1.370 . S
C1706 C1710 1.524 . S
C1707 C1699 1.503 . S
C1707 C1706 1.370 . S
C1707 C1708 1.403 . S
C1708 C1707 1.403 . S
C1708 C1709 1.404 . S
C1708 C1711 1.539 . S
C1709 C1705 1.408 . S
C1709 C1708 1.404 . S
C1709 H1721 0.930 . S
C1710 C1706 1.524 . S
C1710 H1722 0.956 . S
C1710 H1723 0.961 . S
C1710 H1724 0.961 . S
C1711 C1708 1.539 . S
C1711 H1725 0.958 . S
C1711 H1726 0.961 . S
C1711 H1727 0.960 . S
H1712 C1696 0.931 . S
H1713 C1701 0.929 . S
H1714 C1702 0.960 . S
H1715 C1702 0.962 . S
H1716 C1702 0.960 . S
H1717 C1703 0.961 . S
H1718 C1703 0.961 . S
H1719 C1703 0.961 . S
H1720 C1704 0.931 . S
H1721 C1709 0.930 . S
H1722 C1710 0.956 . S
H1723 C1710 0.961 . S
H1724 C1710 0.961 . S
H1725 C1711 0.958 . S
H1726 C1711 0.961 . S
H1727 C1711 0.960 . S
C1728 C1729 1.391 . S
C1728 C1730 1.394 . S
C1728 H1744 0.931 . S
C1729 C1728 1.391 . S
C1729 C1733 1.376 . S
C1730 C1728 1.394 . S
C1730 C1731 1.369 . S
C1730 C1734 1.531 . S
C1731 C1730 1.369 . S
C1731 C1732 1.410 . S
C1731 C1739 1.503 . S
C1732 C1731 1.410 . S
C1732 C1733 1.392 . S
C1732 C1735 1.511 . S
C1733 C1729 1.376 . S
C1733 C1732 1.392 . S
C1733 H1745 0.929 . S
C1734 C1730 1.531 . S
C1734 H1746 0.960 . S
C1734 H1747 0.962 . S
C1734 H1748 0.960 . S
C1735 C1732 1.511 . S
C1735 H1749 0.961 . S
C1735 H1750 0.961 . S
C1735 H1751 0.961 . S
C1736 C1737 1.370 . S
C1736 C1738 1.363 . S
C1736 H1752 0.931 . S
C1737 C1736 1.370 . S
C1737 C1741 1.408 . S
C1738 C1736 1.363 . S
C1738 C1739 1.370 . S
C1738 C1742 1.524 . S
C1739 C1731 1.503 . S
C1739 C1738 1.370 . S
C1739 C1740 1.403 . S
C1740 C1739 1.403 . S
C1740 C1741 1.404 . S
C1740 C1743 1.539 . S
C1741 C1737 1.408 . S
C1741 C1740 1.404 . S
C1741 H1753 0.930 . S
C1742 C1738 1.524 . S
C1742 H1754 0.956 . S
C1742 H1755 0.961 . S
C1742 H1756 0.961 . S
C1743 C1740 1.539 . S
C1743 H1757 0.958 . S
C1743 H1758 0.961 . S
C1743 H1759 0.960 . S
H1744 C1728 0.931 . S
H1745 C1733 0.929 . S
H1746 C1734 0.960 . S
H1747 C1734 0.962 . S
H1748 C1734 0.960 . S
H1749 C1735 0.961 . S
H1750 C1735 0.961 . S
H1751 C1735 0.961 . S
H1752 C1736 0.931 . S
H1753 C1741 0.930 . S
H1754 C1742 0.956 . S
H1755 C1742 0.961 . S
H1756 C1742 0.961 . S
H1757 C1743 0.958 . S
H1758 C1743 0.961 . S
H1759 C1743 0.960 . S
C1760 C1761 1.391 . S
C1760 C1762 1.394 . S
C1760 H1776 0.931 . S
C1761 C1760 1.391 . S
C1761 C1765 1.376 . S
C1762 C1760 1.394 . S
C1762 C1763 1.369 . S
C1762 C1766 1.531 . S
C1763 C1762 1.369 . S
C1763 C1764 1.410 . S
C1763 C1771 1.503 . S
C1764 C1763 1.410 . S
C1764 C1765 1.392 . S
C1764 C1767 1.511 . S
C1765 C1761 1.376 . S
C1765 C1764 1.392 . S
C1765 H1777 0.929 . S
C1766 C1762 1.531 . S
C1766 H1778 0.960 . S
C1766 H1779 0.962 . S
C1766 H1780 0.960 . S
C1767 C1764 1.511 . S
C1767 H1781 0.961 . S
C1767 H1782 0.961 . S
C1767 H1783 0.961 . S
C1768 C1769 1.370 . S
C1768 C1770 1.363 . S
C1768 H1784 0.931 . S
C1769 C1768 1.370 . S
C1769 C1773 1.408 . S
C1770 C1768 1.363 . S
C1770 C1771 1.370 . S
C1770 C1774 1.524 . S
C1771 C1763 1.503 . S
C1771 C1770 1.370 . S
C1771 C1772 1.403 . S
C1772 C1771 1.403 . S
C1772 C1773 1.404 . S
C1772 C1775 1.539 . S
C1773 C1769 1.408 . S
C1773 C1772 1.404 . S
C1773 H1785 0.930 . S
C1774 C1770 1.524 . S
C1774 H1786 0.956 . S
C1774 H1787 0.961 . S
C1774 H1788 0.961 . S
C1775 C1772 1.539 . S
C1775 H1789 0.958 . S
C1775 H1790 0.961 . S
C1775 H1791 0.960 . S
H1776 C1760 0.931 . S
H1777 C1765 0.929 . S
H1778 C1766 0.960 . S
H1779 C1766 0.962 . S
H1780 C1766 0.960 . S
H1781 C1767 0.961 . S
H1782 C1767 0.961 . S
H1783 C1767 0.961 . S
H1784 C1768 0.931 . S
H1785 C1773 0.930 . S
H1786 C1774 0.956 . S
H1787 C1774 0.961 . S
H1788 C1774 0.961 . S
H1789 C1775 0.958 . S
H1790 C1775 0.961 . S
H1791 C1775 0.960 . S
C1792 C1793 1.391 . S
C1792 C1794 1.394 . S
C1792 H1808 0.931 . S
C1793 C1792 1.391 . S
C1793 C1797 1.376 . S
C1794 C1792 1.394 . S
C1794 C1795 1.369 . S
C1794 C1798 1.531 . S
C1795 C1794 1.369 . S
C1795 C1796 1.410 . S
C1795 C1803 1.503 . S
C1796 C1795 1.410 . S
C1796 C1797 1.392 . S
C1796 C1799 1.511 . S
C1797 C1793 1.376 . S
C1797 C1796 1.392 . S
C1797 H1809 0.929 1_554 S
C1798 C1794 1.531 . S
C1798 H1810 0.960 . S
C1798 H1811 0.962 . S
C1798 H1812 0.960 . S
C1799 C1796 1.511 . S
C1799 H1813 0.961 1_554 S
C1799 H1814 0.961 . S
C1799 H1815 0.961 . S
C1800 C1801 1.370 . S
C1800 C1802 1.363 . S
C1800 H1816 0.931 . S
C1801 C1800 1.370 . S
C1801 C1805 1.408 . S
C1802 C1800 1.363 . S
C1802 C1803 1.370 . S
C1802 C1806 1.524 . S
C1803 C1795 1.503 . S
C1803 C1802 1.370 . S
C1803 C1804 1.403 . S
C1804 C1803 1.403 . S
C1804 C1805 1.404 . S
C1804 C1807 1.539 . S
C1805 C1801 1.408 . S
C1805 C1804 1.404 . S
C1805 H1817 0.930 . S
C1806 C1802 1.524 . S
C1806 H1818 0.956 . S
C1806 H1819 0.961 . S
C1806 H1820 0.961 . S
C1807 C1804 1.539 . S
C1807 H1821 0.958 . S
C1807 H1822 0.961 . S
C1807 H1823 0.960 . S
H1808 C1792 0.931 . S
H1809 C1797 0.929 1_556 S
H1810 C1798 0.960 . S
H1811 C1798 0.962 . S
H1812 C1798 0.960 . S
H1813 C1799 0.961 1_556 S
H1814 C1799 0.961 . S
H1815 C1799 0.961 . S
H1816 C1800 0.931 . S
H1817 C1805 0.930 . S
H1818 C1806 0.956 . S
H1819 C1806 0.961 . S
H1820 C1806 0.961 . S
H1821 C1807 0.958 . S
H1822 C1807 0.961 . S
H1823 C1807 0.960 . S
C1824 C1825 1.391 1_554 S
C1824 C1826 1.394 1_554 S
C1824 H1840 0.931 . S
C1825 C1824 1.391 1_556 S
C1825 C1829 1.376 . S
C1826 C1824 1.394 1_556 S
C1826 C1827 1.369 . S
C1826 C1830 1.531 1_556 S
C1827 C1826 1.369 . S
C1827 C1828 1.410 . S
C1827 C1835 1.503 . S
C1828 C1827 1.410 . S
C1828 C1829 1.392 . S
C1828 C1831 1.511 . S
C1829 C1825 1.376 . S
C1829 C1828 1.392 . S
C1829 H1841 0.929 . S
C1830 C1826 1.531 1_554 S
C1830 H1842 0.960 . S
C1830 H1843 0.962 . S
C1830 H1844 0.960 . S
C1831 C1828 1.511 . S
C1831 H1845 0.961 . S
C1831 H1846 0.961 . S
C1831 H1847 0.961 . S
C1832 C1833 1.370 . S
C1832 C1834 1.363 . S
C1832 H1848 0.931 . S
C1833 C1832 1.370 . S
C1833 C1837 1.408 . S
C1834 C1832 1.363 . S
C1834 C1835 1.370 . S
C1834 C1838 1.524 . S
C1835 C1827 1.503 . S
C1835 C1834 1.370 . S
C1835 C1836 1.403 . S
C1836 C1835 1.403 . S
C1836 C1837 1.404 . S
C1836 C1839 1.539 . S
C1837 C1833 1.408 . S
C1837 C1836 1.404 . S
C1837 H1849 0.930 . S
C1838 C1834 1.524 . S
C1838 H1850 0.956 . S
C1838 H1851 0.961 . S
C1838 H1852 0.961 . S
C1839 C1836 1.539 . S
C1839 H1853 0.958 . S
C1839 H1854 0.961 . S
C1839 H1855 0.960 . S
H1840 C1824 0.931 . S
H1841 C1829 0.929 . S
H1842 C1830 0.960 . S
H1843 C1830 0.962 . S
H1844 C1830 0.960 . S
H1845 C1831 0.961 . S
H1846 C1831 0.961 . S
H1847 C1831 0.961 . S
H1848 C1832 0.931 . S
H1849 C1837 0.930 . S
H1850 C1838 0.956 . S
H1851 C1838 0.961 . S
H1852 C1838 0.961 . S
H1853 C1839 0.958 . S
H1854 C1839 0.961 . S
H1855 C1839 0.960 . S
C1856 C1857 1.391 . S
C1856 C1858 1.394 . S
C1856 H1872 0.931 . S
C1857 C1856 1.391 . S
C1857 C1861 1.376 . S
C1858 C1856 1.394 . S
C1858 C1859 1.369 . S
C1858 C1862 1.531 . S
C1859 C1858 1.369 . S
C1859 C1860 1.410 . S
C1859 C1867 1.503 . S
C1860 C1859 1.410 . S
C1860 C1861 1.392 . S
C1860 C1863 1.511 . S
C1861 C1857 1.376 . S
C1861 C1860 1.392 . S
C1861 H1873 0.929 . S
C1862 C1858 1.531 . S
C1862 H1874 0.960 . S
C1862 H1875 0.962 . S
C1862 H1876 0.960 . S
C1863 C1860 1.511 . S
C1863 H1877 0.961 . S
C1863 H1878 0.961 . S
C1863 H1879 0.961 . S
C1864 C1865 1.370 . S
C1864 C1866 1.363 . S
C1864 H1880 0.931 . S
C1865 C1864 1.370 . S
C1865 C1869 1.408 . S
C1866 C1864 1.363 . S
C1866 C1867 1.370 . S
C1866 C1870 1.524 . S
C1867 C1859 1.503 . S
C1867 C1866 1.370 . S
C1867 C1868 1.403 . S
C1868 C1867 1.403 . S
C1868 C1869 1.404 . S
C1868 C1871 1.539 1_556 S
C1869 C1865 1.408 . S
C1869 C1868 1.404 . S
C1869 H1881 0.930 . S
C1870 C1866 1.524 . S
C1870 H1882 0.956 . S
C1870 H1883 0.961 . S
C1870 H1884 0.961 . S
C1871 C1868 1.539 1_554 S
C1871 H1885 0.958 . S
C1871 H1886 0.961 . S
C1871 H1887 0.960 . S
H1872 C1856 0.931 . S
H1873 C1861 0.929 . S
H1874 C1862 0.960 . S
H1875 C1862 0.962 . S
H1876 C1862 0.960 . S
H1877 C1863 0.961 . S
H1878 C1863 0.961 . S
H1879 C1863 0.961 . S
H1880 C1864 0.931 . S
H1881 C1869 0.930 . S
H1882 C1870 0.956 . S
H1883 C1870 0.961 . S
H1884 C1870 0.961 . S
H1885 C1871 0.958 . S
H1886 C1871 0.961 . S
H1887 C1871 0.960 . S
C1888 C1889 1.391 . S
C1888 C1890 1.394 . S
C1888 H1904 0.931 1_556 S
C1889 C1888 1.391 . S
C1889 C1893 1.376 . S
C1890 C1888 1.394 . S
C1890 C1891 1.369 . S
C1890 C1894 1.531 . S
C1891 C1890 1.369 . S
C1891 C1892 1.410 . S
C1891 C1899 1.503 . S
C1892 C1891 1.410 . S
C1892 C1893 1.392 . S
C1892 C1895 1.511 . S
C1893 C1889 1.376 . S
C1893 C1892 1.392 . S
C1893 H1905 0.929 . S
C1894 C1890 1.531 . S
C1894 H1906 0.960 . S
C1894 H1907 0.962 1_556 S
C1894 H1908 0.960 . S
C1895 C1892 1.511 . S
C1895 H1909 0.961 . S
C1895 H1910 0.961 . S
C1895 H1911 0.961 . S
C1896 C1897 1.370 . S
C1896 C1898 1.363 . S
C1896 H1912 0.931 . S
C1897 C1896 1.370 . S
C1897 C1901 1.408 . S
C1898 C1896 1.363 . S
C1898 C1899 1.370 . S
C1898 C1902 1.524 . S
C1899 C1891 1.503 . S
C1899 C1898 1.370 . S
C1899 C1900 1.403 . S
C1900 C1899 1.403 . S
C1900 C1901 1.404 . S
C1900 C1903 1.539 . S
C1901 C1897 1.408 . S
C1901 C1900 1.404 . S
C1901 H1913 0.930 . S
C1902 C1898 1.524 . S
C1902 H1914 0.941 1_556 S
C1902 H1915 0.961 . S
C1902 H1916 0.961 . S
C1903 C1900 1.539 . S
C1903 H1917 0.958 . S
C1903 H1918 0.961 . S
C1903 H1919 0.960 . S
H1904 C1888 0.931 1_554 S
H1905 C1893 0.929 . S
H1906 C1894 0.960 . S
H1907 C1894 0.962 1_554 S
H1908 C1894 0.960 . S
H1909 C1895 0.961 . S
H1910 C1895 0.961 . S
H1911 C1895 0.961 . S
H1912 C1896 0.931 . S
H1913 C1901 0.930 . S
H1914 C1902 0.941 1_554 S
H1915 C1902 0.961 . S
H1916 C1902 0.961 . S
H1917 C1903 0.958 . S
H1918 C1903 0.961 . S
H1919 C1903 0.960 . S
C1920 C1921 1.391 1_554 S
C1920 C1922 1.394 1_554 S
C1920 H1936 0.931 . S
C1921 C1920 1.391 1_556 S
C1921 C1925 1.376 . S
C1922 C1920 1.394 1_556 S
C1922 C1923 1.369 . S
C1922 C1926 1.531 1_556 S
C1923 C1922 1.369 . S
C1923 C1924 1.410 . S
C1923 C1931 1.503 . S
C1924 C1923 1.410 . S
C1924 C1925 1.392 . S
C1924 C1927 1.511 . S
C1925 C1921 1.376 . S
C1925 C1924 1.392 . S
C1925 H1937 0.929 . S
C1926 C1922 1.531 1_554 S
C1926 H1938 0.960 . S
C1926 H1939 0.959 1_554 S
C1926 H1940 0.960 . S
C1927 C1924 1.511 . S
C1927 H1941 0.961 . S
C1927 H1942 0.961 . S
C1927 H1943 0.961 . S
C1928 C1929 1.370 . S
C1928 C1930 1.363 . S
C1928 H1944 0.931 . S
C1929 C1928 1.370 . S
C1929 C1933 1.408 . S
C1930 C1928 1.363 . S
C1930 C1931 1.370 . S
C1930 C1934 1.524 . S
C1931 C1923 1.503 . S
C1931 C1930 1.370 . S
C1931 C1932 1.403 . S
C1932 C1931 1.403 . S
C1932 C1933 1.404 . S
C1932 C1935 1.539 . S
C1933 C1929 1.408 . S
C1933 C1932 1.404 . S
C1933 H1945 0.930 . S
C1934 C1930 1.524 . S
C1934 H1946 0.956 . S
C1934 H1947 0.961 . S
C1934 H1948 0.961 . S
C1935 C1932 1.539 . S
C1935 H1949 0.958 1_556 S
C1935 H1950 0.961 . S
C1935 H1951 0.960 . S
H1936 C1920 0.931 . S
H1937 C1925 0.929 . S
H1938 C1926 0.960 . S
H1939 C1926 0.959 1_556 S
H1940 C1926 0.960 . S
H1941 C1927 0.961 . S
H1942 C1927 0.961 . S
H1943 C1927 0.961 . S
H1944 C1928 0.931 . S
H1945 C1933 0.930 . S
H1946 C1934 0.956 . S
H1947 C1934 0.961 . S
H1948 C1934 0.961 . S
H1949 C1935 0.958 1_554 S
H1950 C1935 0.961 . S
H1951 C1935 0.960 . S
C1952 C1953 1.391 . S
C1952 C1954 1.394 . S
C1952 H1968 0.931 1_556 S
C1953 C1952 1.391 . S
C1953 C1957 1.376 . S
C1954 C1952 1.394 . S
C1954 C1955 1.369 . S
C1954 C1958 1.531 1_556 S
C1955 C1954 1.369 . S
C1955 C1956 1.410 . S
C1955 C1963 1.503 . S
C1956 C1955 1.410 . S
C1956 C1957 1.392 . S
C1956 C1959 1.511 . S
C1957 C1953 1.376 . S
C1957 C1956 1.392 . S
C1957 H1969 0.929 . S
C1958 C1954 1.531 1_554 S
C1958 H1970 0.960 . S
C1958 H1971 0.962 1_554 S
C1958 H1972 0.960 . S
C1959 C1956 1.511 . S
C1959 H1973 0.961 . S
C1959 H1974 0.961 . S
C1959 H1975 0.961 . S
C1960 C1961 1.370 . S
C1960 C1962 1.363 . S
C1960 H1976 0.931 . S
C1961 C1960 1.370 . S
C1961 C1965 1.408 . S
C1962 C1960 1.363 . S
C1962 C1963 1.370 . S
C1962 C1966 1.524 . S
C1963 C1955 1.503 . S
C1963 C1962 1.370 . S
C1963 C1964 1.403 . S
C1964 C1963 1.403 . S
C1964 C1965 1.404 . S
C1964 C1967 1.539 . S
C1965 C1961 1.408 . S
C1965 C1964 1.404 . S
C1965 H1977 0.930 . S
C1966 C1962 1.524 . S
C1966 H1978 0.956 . S
C1966 H1979 0.961 . S
C1966 H1980 0.961 . S
C1967 C1964 1.539 . S
C1967 H1981 0.958 1_556 S
C1967 H1982 0.961 . S
C1967 H1983 0.960 . S
H1968 C1952 0.931 1_554 S
H1969 C1957 0.929 . S
H1970 C1958 0.960 . S
H1971 C1958 0.962 1_556 S
H1972 C1958 0.960 . S
H1973 C1959 0.961 . S
H1974 C1959 0.961 . S
H1975 C1959 0.961 . S
H1976 C1960 0.931 . S
H1977 C1965 0.930 . S
H1978 C1966 0.956 . S
H1979 C1966 0.961 . S
H1980 C1966 0.961 . S
H1981 C1967 0.958 1_554 S
H1982 C1967 0.961 . S
H1983 C1967 0.960 . S
C1984 C1985 1.391 1_554 S
C1984 C1986 1.394 1_554 S
C1984 H2000 0.931 . S
C1985 C1984 1.391 1_556 S
C1985 C1989 1.376 . S
C1986 C1984 1.394 1_556 S
C1986 C1987 1.369 . S
C1986 C1990 1.531 1_556 S
C1987 C1986 1.369 . S
C1987 C1988 1.410 . S
C1987 C1995 1.503 . S
C1988 C1987 1.410 . S
C1988 C1989 1.392 . S
C1988 C1991 1.511 . S
C1989 C1985 1.376 . S
C1989 C1988 1.392 . S
C1989 H2001 0.929 . S
C1990 C1986 1.531 1_554 S
C1990 H2002 0.960 . S
C1990 H2003 0.962 . S
C1990 H2004 0.960 . S
C1991 C1988 1.511 . S
C1991 H2005 0.961 . S
C1991 H2006 0.961 . S
C1991 H2007 0.961 . S
C1992 C1993 1.370 . S
C1992 C1994 1.363 . S
C1992 H2008 0.931 . S
C1993 C1992 1.370 . S
C1993 C1997 1.408 . S
C1994 C1992 1.363 . S
C1994 C1995 1.370 . S
C1994 C1998 1.524 . S
C1995 C1987 1.503 . S
C1995 C1994 1.370 . S
C1995 C1996 1.403 . S
C1996 C1995 1.403 . S
C1996 C1997 1.404 . S
C1996 C1999 1.539 . S
C1997 C1993 1.408 . S
C1997 C1996 1.404 . S
C1997 H2009 0.930 . S
C1998 C1994 1.524 . S
C1998 H2010 0.956 . S
C1998 H2011 0.961 . S
C1998 H2012 0.961 . S
C1999 C1996 1.539 . S
C1999 H2013 0.958 . S
C1999 H2014 0.961 . S
C1999 H2015 0.960 . S
H2000 C1984 0.931 . S
H2001 C1989 0.929 . S
H2002 C1990 0.960 . S
H2003 C1990 0.962 . S
H2004 C1990 0.960 . S
H2005 C1991 0.961 . S
H2006 C1991 0.961 . S
H2007 C1991 0.961 . S
H2008 C1992 0.931 . S
H2009 C1997 0.930 . S
H2010 C1998 0.956 . S
H2011 C1998 0.961 . S
H2012 C1998 0.961 . S
H2013 C1999 0.958 . S
H2014 C1999 0.961 . S
H2015 C1999 0.960 . S
C2016 C2017 1.391 . S
C2016 C2018 1.394 . S
C2016 H2032 0.931 . S
C2017 C2016 1.391 . S
C2017 C2021 1.376 . S
C2018 C2016 1.394 . S
C2018 C2019 1.369 . S
C2018 C2022 1.531 . S
C2019 C2018 1.369 . S
C2019 C2020 1.410 . S
C2019 C2027 1.503 . S
C2020 C2019 1.410 . S
C2020 C2021 1.392 . S
C2020 C2023 1.511 . S
C2021 C2017 1.376 . S
C2021 C2020 1.392 . S
C2021 H2033 0.929 . S
C2022 C2018 1.531 . S
C2022 H2034 0.960 . S
C2022 H2035 0.962 . S
C2022 H2036 0.960 . S
C2023 C2020 1.511 . S
C2023 H2037 0.961 . S
C2023 H2038 0.961 . S
C2023 H2039 0.961 . S
C2024 C2025 1.370 . S
C2024 C2026 1.363 . S
C2024 H2040 0.931 . S
C2025 C2024 1.370 . S
C2025 C2029 1.408 . S
C2026 C2024 1.363 . S
C2026 C2027 1.370 . S
C2026 C2030 1.524 . S
C2027 C2019 1.503 . S
C2027 C2026 1.370 . S
C2027 C2028 1.403 . S
C2028 C2027 1.403 . S
C2028 C2029 1.404 . S
C2028 C2031 1.539 . S
C2029 C2025 1.408 . S
C2029 C2028 1.404 . S
C2029 H2041 0.930 . S
C2030 C2026 1.524 . S
C2030 H2042 0.956 . S
C2030 H2043 0.961 . S
C2030 H2044 0.961 . S
C2031 C2028 1.539 . S
C2031 H2045 0.958 . S
C2031 H2046 0.961 . S
C2031 H2047 0.960 . S
H2032 C2016 0.931 . S
H2033 C2021 0.929 . S
H2034 C2022 0.960 . S
H2035 C2022 0.962 . S
H2036 C2022 0.960 . S
H2037 C2023 0.961 . S
H2038 C2023 0.961 . S
H2039 C2023 0.961 . S
H2040 C2024 0.931 . S
H2041 C2029 0.930 . S
H2042 C2030 0.956 . S
H2043 C2030 0.961 . S
H2044 C2030 0.961 . S
H2045 C2031 0.958 . S
H2046 C2031 0.961 . S
H2047 C2031 0.960 . S
C2048 C2049 1.391 . S
C2048 C2050 1.394 . S
C2048 H2064 0.931 . S
C2049 C2048 1.391 . S
C2049 C2053 1.376 . S
C2050 C2048 1.394 . S
C2050 C2051 1.369 . S
C2050 C2054 1.531 . S
C2051 C2050 1.369 . S
C2051 C2052 1.410 . S
C2051 C2059 1.503 . S
C2052 C2051 1.410 . S
C2052 C2053 1.392 . S
C2052 C2055 1.511 . S
C2053 C2049 1.376 . S
C2053 C2052 1.392 . S
C2053 H2065 0.929 . S
C2054 C2050 1.531 . S
C2054 H2066 0.960 . S
C2054 H2067 0.962 . S
C2054 H2068 0.960 . S
C2055 C2052 1.511 . S
C2055 H2069 0.961 . S
C2055 H2070 0.961 . S
C2055 H2071 0.961 . S
C2056 C2057 1.370 . S
C2056 C2058 1.363 . S
C2056 H2072 0.931 . S
C2057 C2056 1.370 . S
C2057 C2061 1.408 . S
C2058 C2056 1.363 . S
C2058 C2059 1.370 . S
C2058 C2062 1.524 . S
C2059 C2051 1.503 . S
C2059 C2058 1.370 . S
C2059 C2060 1.403 . S
C2060 C2059 1.403 . S
C2060 C2061 1.404 . S
C2060 C2063 1.539 . S
C2061 C2057 1.408 . S
C2061 C2060 1.404 . S
C2061 H2073 0.930 . S
C2062 C2058 1.524 . S
C2062 H2074 0.956 . S
C2062 H2075 0.961 . S
C2062 H2076 0.961 . S
C2063 C2060 1.539 . S
C2063 H2077 0.958 . S
C2063 H2078 0.961 . S
C2063 H2079 0.960 . S
H2064 C2048 0.931 . S
H2065 C2053 0.929 . S
H2066 C2054 0.960 . S
H2067 C2054 0.962 . S
H2068 C2054 0.960 . S
H2069 C2055 0.961 . S
H2070 C2055 0.961 . S
H2071 C2055 0.961 . S
H2072 C2056 0.931 . S
H2073 C2061 0.930 . S
H2074 C2062 0.956 . S
H2075 C2062 0.961 . S
H2076 C2062 0.961 . S
H2077 C2063 0.958 . S
H2078 C2063 0.961 . S
H2079 C2063 0.960 . S
C2080 C2081 1.391 . S
C2080 C2082 1.394 . S
C2080 H2096 0.931 . S
C2081 C2080 1.391 . S
C2081 C2085 1.376 . S
C2082 C2080 1.394 . S
C2082 C2083 1.369 . S
C2082 C2086 1.531 . S
C2083 C2082 1.369 . S
C2083 C2084 1.410 . S
C2083 C2091 1.503 . S
C2084 C2083 1.410 . S
C2084 C2085 1.392 . S
C2084 C2087 1.511 . S
C2085 C2081 1.376 . S
C2085 C2084 1.392 . S
C2085 H2097 0.929 . S
C2086 C2082 1.531 . S
C2086 H2098 0.960 . S
C2086 H2099 0.962 . S
C2086 H2100 0.960 . S
C2087 C2084 1.511 . S
C2087 H2101 0.953 1_554 S
C2087 H2102 0.961 . S
C2087 H2103 0.961 . S
C2088 C2089 1.370 . S
C2088 C2090 1.363 . S
C2088 H2104 0.931 . S
C2089 C2088 1.370 . S
C2089 C2093 1.408 . S
C2090 C2088 1.363 . S
C2090 C2091 1.370 . S
C2090 C2094 1.524 . S
C2091 C2083 1.503 . S
C2091 C2090 1.370 . S
C2091 C2092 1.403 . S
C2092 C2091 1.403 . S
C2092 C2093 1.404 . S
C2092 C2095 1.539 . S
C2093 C2089 1.408 . S
C2093 C2092 1.404 . S
C2093 H2105 0.930 . S
C2094 C2090 1.524 . S
C2094 H2106 0.956 . S
C2094 H2107 0.961 . S
C2094 H2108 0.961 . S
C2095 C2092 1.539 . S
C2095 H2109 0.958 . S
C2095 H2110 0.961 . S
C2095 H2111 0.960 . S
H2096 C2080 0.931 . S
H2097 C2085 0.929 . S
H2098 C2086 0.960 . S
H2099 C2086 0.962 . S
H2100 C2086 0.960 . S
H2101 C2087 0.953 1_556 S
H2102 C2087 0.961 . S
H2103 C2087 0.961 . S
H2104 C2088 0.931 . S
H2105 C2093 0.930 . S
H2106 C2094 0.956 . S
H2107 C2094 0.961 . S
H2108 C2094 0.961 . S
H2109 C2095 0.958 . S
H2110 C2095 0.961 . S
H2111 C2095 0.960 . S
C2112 C2113 1.391 . S
C2112 C2114 1.394 . S
C2112 H2128 0.931 . S
C2113 C2112 1.391 . S
C2113 C2117 1.376 . S
C2114 C2112 1.394 . S
C2114 C2115 1.369 . S
C2114 C2118 1.531 . S
C2115 C2114 1.369 . S
C2115 C2116 1.410 . S
C2115 C2123 1.503 . S
C2116 C2115 1.410 . S
C2116 C2117 1.392 . S
C2116 C2119 1.511 . S
C2117 C2113 1.376 . S
C2117 C2116 1.392 . S
C2117 H2129 0.929 . S
C2118 C2114 1.531 . S
C2118 H2130 0.960 . S
C2118 H2131 0.962 . S
C2118 H2132 0.960 . S
C2119 C2116 1.511 . S
C2119 H2133 0.961 . S
C2119 H2134 0.961 . S
C2119 H2135 0.961 . S
C2120 C2121 1.370 . S
C2120 C2122 1.363 . S
C2120 H2136 0.931 . S
C2121 C2120 1.370 . S
C2121 C2125 1.408 . S
C2122 C2120 1.363 . S
C2122 C2123 1.370 . S
C2122 C2126 1.524 . S
C2123 C2115 1.503 . S
C2123 C2122 1.370 . S
C2123 C2124 1.403 . S
C2124 C2123 1.403 . S
C2124 C2125 1.404 . S
C2124 C2127 1.539 . S
C2125 C2121 1.408 . S
C2125 C2124 1.404 . S
C2125 H2137 0.930 . S
C2126 C2122 1.524 . S
C2126 H2138 0.956 . S
C2126 H2139 0.961 . S
C2126 H2140 0.961 . S
C2127 C2124 1.539 . S
C2127 H2141 0.958 . S
C2127 H2142 0.961 . S
C2127 H2143 0.960 . S
H2128 C2112 0.931 . S
H2129 C2117 0.929 . S
H2130 C2118 0.960 . S
H2131 C2118 0.962 . S
H2132 C2118 0.960 . S
H2133 C2119 0.961 . S
H2134 C2119 0.961 . S
H2135 C2119 0.961 . S
H2136 C2120 0.931 . S
H2137 C2125 0.930 . S
H2138 C2126 0.956 . S
H2139 C2126 0.961 . S
H2140 C2126 0.961 . S
H2141 C2127 0.958 . S
H2142 C2127 0.961 . S
H2143 C2127 0.960 . S
C2144 C2145 1.391 . S
C2144 C2146 1.394 . S
C2144 H2160 0.931 . S
C2145 C2144 1.391 . S
C2145 C2149 1.376 . S
C2146 C2144 1.394 . S
C2146 C2147 1.369 . S
C2146 C2150 1.531 . S
C2147 C2146 1.369 . S
C2147 C2148 1.410 . S
C2147 C2155 1.503 . S
C2148 C2147 1.410 . S
C2148 C2149 1.392 . S
C2148 C2151 1.511 . S
C2149 C2145 1.376 . S
C2149 C2148 1.392 . S
C2149 H2161 0.929 . S
C2150 C2146 1.531 . S
C2150 H2162 0.960 . S
C2150 H2163 0.962 . S
C2150 H2164 0.960 . S
C2151 C2148 1.511 . S
C2151 H2165 0.961 . S
C2151 H2166 0.961 . S
C2151 H2167 0.961 . S
C2152 C2153 1.370 . S
C2152 C2154 1.363 . S
C2152 H2168 0.931 . S
C2153 C2152 1.370 . S
C2153 C2157 1.408 . S
C2154 C2152 1.363 . S
C2154 C2155 1.370 . S
C2154 C2158 1.524 . S
C2155 C2147 1.503 . S
C2155 C2154 1.370 . S
C2155 C2156 1.403 . S
C2156 C2155 1.403 . S
C2156 C2157 1.404 . S
C2156 C2159 1.539 . S
C2157 C2153 1.408 . S
C2157 C2156 1.404 . S
C2157 H2169 0.930 . S
C2158 C2154 1.524 . S
C2158 H2170 0.956 . S
C2158 H2171 0.961 . S
C2158 H2172 0.961 . S
C2159 C2156 1.539 . S
C2159 H2173 0.958 . S
C2159 H2174 0.961 . S
C2159 H2175 0.960 . S
H2160 C2144 0.931 . S
H2161 C2149 0.929 . S
H2162 C2150 0.960 . S
H2163 C2150 0.962 . S
H2164 C2150 0.960 . S
H2165 C2151 0.961 . S
H2166 C2151 0.961 . S
H2167 C2151 0.961 . S
H2168 C2152 0.931 . S
H2169 C2157 0.930 . S
H2170 C2158 0.956 . S
H2171 C2158 0.961 . S
H2172 C2158 0.961 . S
H2173 C2159 0.958 . S
H2174 C2159 0.961 . S
H2175 C2159 0.960 . S
C2176 C2177 1.391 . S
C2176 C2178 1.394 . S
C2176 H2192 0.931 . S
C2177 C2176 1.391 . S
C2177 C2181 1.376 . S
C2178 C2176 1.394 . S
C2178 C2179 1.369 . S
C2178 C2182 1.531 . S
C2179 C2178 1.369 . S
C2179 C2180 1.410 . S
C2179 C2187 1.503 . S
C2180 C2179 1.410 . S
C2180 C2181 1.392 . S
C2180 C2183 1.511 . S
C2181 C2177 1.376 . S
C2181 C2180 1.392 . S
C2181 H2193 0.929 . S
C2182 C2178 1.531 . S
C2182 H2194 0.960 . S
C2182 H2195 0.962 . S
C2182 H2196 0.960 . S
C2183 C2180 1.511 . S
C2183 H2197 0.961 . S
C2183 H2198 0.961 . S
C2183 H2199 0.961 . S
C2184 C2185 1.370 . S
C2184 C2186 1.363 . S
C2184 H2200 0.931 . S
C2185 C2184 1.370 . S
C2185 C2189 1.408 . S
C2186 C2184 1.363 . S
C2186 C2187 1.370 . S
C2186 C2190 1.524 . S
C2187 C2179 1.503 . S
C2187 C2186 1.370 . S
C2187 C2188 1.403 . S
C2188 C2187 1.403 . S
C2188 C2189 1.404 . S
C2188 C2191 1.539 . S
C2189 C2185 1.408 . S
C2189 C2188 1.404 . S
C2189 H2201 0.930 . S
C2190 C2186 1.524 . S
C2190 H2202 0.956 . S
C2190 H2203 0.961 . S
C2190 H2204 0.961 . S
C2191 C2188 1.539 . S
C2191 H2205 0.958 . S
C2191 H2206 0.961 . S
C2191 H2207 0.960 . S
H2192 C2176 0.931 . S
H2193 C2181 0.929 . S
H2194 C2182 0.960 . S
H2195 C2182 0.962 . S
H2196 C2182 0.960 . S
H2197 C2183 0.961 . S
H2198 C2183 0.961 . S
H2199 C2183 0.961 . S
H2200 C2184 0.931 . S
H2201 C2189 0.930 . S
H2202 C2190 0.956 . S
H2203 C2190 0.961 . S
H2204 C2190 0.961 . S
H2205 C2191 0.958 . S
H2206 C2191 0.961 . S
H2207 C2191 0.960 . S
C2208 C2209 1.391 . S
C2208 C2210 1.394 . S
C2208 H2224 0.931 1_455 S
C2209 C2208 1.391 . S
C2209 C2213 1.376 . S
C2210 C2208 1.394 . S
C2210 C2211 1.369 . S
C2210 C2214 1.531 1_455 S
C2211 C2210 1.369 . S
C2211 C2212 1.410 . S
C2211 C2219 1.503 . S
C2212 C2211 1.410 . S
C2212 C2213 1.392 . S
C2212 C2215 1.511 . S
C2213 C2209 1.376 . S
C2213 C2212 1.392 . S
C2213 H2225 0.929 . S
C2214 C2210 1.531 1_655 S
C2214 H2226 0.960 . S
C2214 H2227 0.962 . S
C2214 H2228 0.960 . S
C2215 C2212 1.511 . S
C2215 H2229 0.961 . S
C2215 H2230 0.961 . S
C2215 H2231 0.961 . S
C2216 C2217 1.370 1_655 S
C2216 C2218 1.405 . S
C2216 H2232 0.931 . S
C2217 C2216 1.370 1_455 S
C2217 C2221 1.408 . S
C2218 C2216 1.405 . S
C2218 C2219 1.327 1_655 S
C2218 C2222 1.530 . S
C2219 C2211 1.503 . S
C2219 C2218 1.327 1_455 S
C2219 C2220 1.403 . S
C2220 C2219 1.403 . S
C2220 C2221 1.404 . S
C2220 C2223 1.539 . S
C2221 C2217 1.408 . S
C2221 C2220 1.404 . S
C2221 H2233 0.930 . S
C2222 C2218 1.530 . S
C2222 H2234 0.956 . S
C2222 H2235 0.961 . S
C2222 H2236 0.961 . S
C2223 C2220 1.539 . S
C2223 H2237 0.958 . S
C2223 H2238 0.961 . S
C2223 H2239 0.960 . S
H2224 C2208 0.931 1_655 S
H2225 C2213 0.929 . S
H2226 C2214 0.960 . S
H2227 C2214 0.962 . S
H2228 C2214 0.960 . S
H2229 C2215 0.961 . S
H2230 C2215 0.961 . S
H2231 C2215 0.961 . S
H2232 C2216 0.931 . S
H2233 C2221 0.930 . S
H2234 C2222 0.956 . S
H2235 C2222 0.961 . S
H2236 C2222 0.961 . S
H2237 C2223 0.958 . S
H2238 C2223 0.961 . S
H2239 C2223 0.960 . S
C2240 C2241 1.391 . S
C2240 C2242 1.394 . S
C2240 H2256 0.931 . S
C2241 C2240 1.391 . S
C2241 C2245 1.376 . S
C2242 C2240 1.394 . S
C2242 C2243 1.369 . S
C2242 C2246 1.531 . S
C2243 C2242 1.369 . S
C2243 C2244 1.410 . S
C2243 C2251 1.503 . S
C2244 C2243 1.410 . S
C2244 C2245 1.392 . S
C2244 C2247 1.511 . S
C2245 C2241 1.376 . S
C2245 C2244 1.392 . S
C2245 H2257 0.929 . S
C2246 C2242 1.531 . S
C2246 H2258 0.960 . S
C2246 H2259 0.962 . S
C2246 H2260 0.960 . S
C2247 C2244 1.511 . S
C2247 H2261 0.961 . S
C2247 H2262 0.961 . S
C2247 H2263 0.961 . S
C2248 C2249 1.370 . S
C2248 C2250 1.363 . S
C2248 H2264 0.931 . S
C2249 C2248 1.370 . S
C2249 C2253 1.408 . S
C2250 C2248 1.363 . S
C2250 C2251 1.370 . S
C2250 C2254 1.524 . S
C2251 C2243 1.503 . S
C2251 C2250 1.370 . S
C2251 C2252 1.403 . S
C2252 C2251 1.403 . S
C2252 C2253 1.404 . S
C2252 C2255 1.539 . S
C2253 C2249 1.408 . S
C2253 C2252 1.404 . S
C2253 H2265 0.930 . S
C2254 C2250 1.524 . S
C2254 H2266 0.956 . S
C2254 H2267 0.961 . S
C2254 H2268 0.961 . S
C2255 C2252 1.539 . S
C2255 H2269 0.958 . S
C2255 H2270 0.961 . S
C2255 H2271 0.960 . S
H2256 C2240 0.931 . S
H2257 C2245 0.929 . S
H2258 C2246 0.960 . S
H2259 C2246 0.962 . S
H2260 C2246 0.960 . S
H2261 C2247 0.961 . S
H2262 C2247 0.961 . S
H2263 C2247 0.961 . S
H2264 C2248 0.931 . S
H2265 C2253 0.930 . S
H2266 C2254 0.956 . S
H2267 C2254 0.961 . S
H2268 C2254 0.961 . S
H2269 C2255 0.958 . S
H2270 C2255 0.961 . S
H2271 C2255 0.960 . S
C2272 C2273 1.391 . S
C2272 C2274 1.394 . S
C2272 H2288 0.931 . S
C2273 C2272 1.391 . S
C2273 C2277 1.376 . S
C2274 C2272 1.394 . S
C2274 C2275 1.369 . S
C2274 C2278 1.531 . S
C2275 C2274 1.369 . S
C2275 C2276 1.410 . S
C2275 C2283 1.503 . S
C2276 C2275 1.410 . S
C2276 C2277 1.392 . S
C2276 C2279 1.511 . S
C2277 C2273 1.376 . S
C2277 C2276 1.392 . S
C2277 H2289 0.929 . S
C2278 C2274 1.531 . S
C2278 H2290 0.960 . S
C2278 H2291 0.962 . S
C2278 H2292 0.960 . S
C2279 C2276 1.511 . S
C2279 H2293 0.961 1_565 S
C2279 H2294 0.961 1_565 S
C2279 H2295 0.961 . S
C2280 C2281 1.370 1_545 S
C2280 C2282 1.363 . S
C2280 H2296 0.931 . S
C2281 C2280 1.370 1_565 S
C2281 C2285 1.408 . S
C2282 C2280 1.363 . S
C2282 C2283 1.370 1_545 S
C2282 C2286 1.524 . S
C2283 C2275 1.503 . S
C2283 C2282 1.370 1_565 S
C2283 C2284 1.403 . S
C2284 C2283 1.403 . S
C2284 C2285 1.404 . S
C2284 C2287 1.539 . S
C2285 C2281 1.408 . S
C2285 C2284 1.404 . S
C2285 H2297 0.930 . S
C2286 C2282 1.524 . S
C2286 H2298 0.956 . S
C2286 H2299 0.961 . S
C2286 H2300 0.961 . S
C2287 C2284 1.539 . S
C2287 H2301 0.958 . S
C2287 H2302 0.961 . S
C2287 H2303 0.960 . S
H2288 C2272 0.931 . S
H2289 C2277 0.929 . S
H2290 C2278 0.960 . S
H2291 C2278 0.962 . S
H2292 C2278 0.960 . S
H2293 C2279 0.961 1_545 S
H2294 C2279 0.961 1_545 S
H2295 C2279 0.961 . S
H2296 C2280 0.931 . S
H2297 C2285 0.930 . S
H2298 C2286 0.956 . S
H2299 C2286 0.961 . S
H2300 C2286 0.961 . S
H2301 C2287 0.958 . S
H2302 C2287 0.961 . S
H2303 C2287 0.960 . S
C2304 C2305 1.391 . S
C2304 C2306 1.394 . S
C2304 H2320 0.931 . S
C2305 C2304 1.391 . S
C2305 C2309 1.376 . S
C2306 C2304 1.394 . S
C2306 C2307 1.369 . S
C2306 C2310 1.531 . S
C2307 C2306 1.369 . S
C2307 C2308 1.410 . S
C2307 C2315 1.503 . S
C2308 C2307 1.410 . S
C2308 C2309 1.392 . S
C2308 C2311 1.511 . S
C2309 C2305 1.376 . S
C2309 C2308 1.392 . S
C2309 H2321 0.929 . S
C2310 C2306 1.531 . S
C2310 H2322 0.960 . S
C2310 H2323 0.962 . S
C2310 H2324 0.960 . S
C2311 C2308 1.511 . S
C2311 H2325 0.961 1_565 S
C2311 H2326 0.961 1_565 S
C2311 H2327 0.961 . S
C2312 C2313 1.370 1_545 S
C2312 C2314 1.363 . S
C2312 H2328 0.931 . S
C2313 C2312 1.370 1_565 S
C2313 C2317 1.408 . S
C2314 C2312 1.363 . S
C2314 C2315 1.370 1_545 S
C2314 C2318 1.524 . S
C2315 C2307 1.503 . S
C2315 C2314 1.370 1_565 S
C2315 C2316 1.403 . S
C2316 C2315 1.403 . S
C2316 C2317 1.404 . S
C2316 C2319 1.539 . S
C2317 C2313 1.408 . S
C2317 C2316 1.404 . S
C2317 H2329 0.930 . S
C2318 C2314 1.524 . S
C2318 H2330 0.956 . S
C2318 H2331 0.961 . S
C2318 H2332 0.961 . S
C2319 C2316 1.539 . S
C2319 H2333 0.958 . S
C2319 H2334 0.961 . S
C2319 H2335 0.960 . S
H2320 C2304 0.931 . S
H2321 C2309 0.929 . S
H2322 C2310 0.960 . S
H2323 C2310 0.962 . S
H2324 C2310 0.960 . S
H2325 C2311 0.961 1_545 S
H2326 C2311 0.961 1_545 S
H2327 C2311 0.961 . S
H2328 C2312 0.931 . S
H2329 C2317 0.930 . S
H2330 C2318 0.956 . S
H2331 C2318 0.961 . S
H2332 C2318 0.961 . S
H2333 C2319 0.958 . S
H2334 C2319 0.961 . S
H2335 C2319 0.960 . S
C2336 C2337 1.391 . S
C2336 C2338 1.394 . S
C2336 H2352 0.931 . S
C2337 C2336 1.391 . S
C2337 C2341 1.364 1_455 S
C2338 C2336 1.394 . S
C2338 C2339 1.369 . S
C2338 C2342 1.531 . S
C2339 C2338 1.369 . S
C2339 C2340 1.410 1_455 S
C2339 C2347 1.503 . S
C2340 C2339 1.410 1_655 S
C2340 C2341 1.387 . S
C2340 C2343 1.511 . S
C2341 C2337 1.364 1_655 S
C2341 C2340 1.387 . S
C2341 H2353 0.947 . S
C2342 C2338 1.531 . S
C2342 H2354 0.960 . S
C2342 H2355 0.962 . S
C2342 H2356 0.960 . S
C2343 C2340 1.511 . S
C2343 H2357 0.961 . S
C2343 H2358 0.961 . S
C2343 H2359 0.961 . S
C2344 C2345 1.363 . S
C2344 C2346 1.363 . S
C2344 H2360 0.931 . S
C2345 C2344 1.363 . S
C2345 C2349 1.405 1_455 S
C2346 C2344 1.363 . S
C2346 C2347 1.370 . S
C2346 C2350 1.524 . S
C2347 C2339 1.503 . S
C2347 C2346 1.370 . S
C2347 C2348 1.403 . S
C2348 C2347 1.403 . S
C2348 C2349 1.404 1_455 S
C2348 C2351 1.539 . S
C2349 C2345 1.405 1_655 S
C2349 C2348 1.404 1_655 S
C2349 H2361 0.930 . S
C2350 C2346 1.524 . S
C2350 H2362 0.956 . S
C2350 H2363 0.961 . S
C2350 H2364 0.961 . S
C2351 C2348 1.539 . S
C2351 H2365 0.958 . S
C2351 H2366 0.961 1_455 S
C2351 H2367 0.960 1_455 S
H2352 C2336 0.931 . S
H2353 C2341 0.947 . S
H2354 C2342 0.960 . S
H2355 C2342 0.962 . S
H2356 C2342 0.960 . S
H2357 C2343 0.961 . S
H2358 C2343 0.961 . S
H2359 C2343 0.961 . S
H2360 C2344 0.931 . S
H2361 C2349 0.930 . S
H2362 C2350 0.956 . S
H2363 C2350 0.961 . S
H2364 C2350 0.961 . S
H2365 C2351 0.958 . S
H2366 C2351 0.961 1_655 S
H2367 C2351 0.960 1_655 S
C2368 C2369 1.391 . S
C2368 C2370 1.394 . S
C2368 H2384 0.931 . S
C2369 C2368 1.391 . S
C2369 C2373 1.376 . S
C2370 C2368 1.394 . S
C2370 C2371 1.369 . S
C2370 C2374 1.531 . S
C2371 C2370 1.369 . S
C2371 C2372 1.410 . S
C2371 C2379 1.503 . S
C2372 C2371 1.410 . S
C2372 C2373 1.392 . S
C2372 C2375 1.511 . S
C2373 C2369 1.376 . S
C2373 C2372 1.392 . S
C2373 H2385 0.929 . S
C2374 C2370 1.531 . S
C2374 H2386 0.960 . S
C2374 H2387 0.962 . S
C2374 H2388 0.960 . S
C2375 C2372 1.511 . S
C2375 H2389 0.961 . S
C2375 H2390 0.961 . S
C2375 H2391 0.961 . S
C2376 C2377 1.370 . S
C2376 C2378 1.363 . S
C2376 H2392 0.931 . S
C2377 C2376 1.370 . S
C2377 C2381 1.408 . S
C2378 C2376 1.363 . S
C2378 C2379 1.370 . S
C2378 C2382 1.524 . S
C2379 C2371 1.503 . S
C2379 C2378 1.370 . S
C2379 C2380 1.403 . S
C2380 C2379 1.403 . S
C2380 C2381 1.404 . S
C2380 C2383 1.539 . S
C2381 C2377 1.408 . S
C2381 C2380 1.404 . S
C2381 H2393 0.930 . S
C2382 C2378 1.524 . S
C2382 H2394 0.956 . S
C2382 H2395 0.961 . S
C2382 H2396 0.961 . S
C2383 C2380 1.539 . S
C2383 H2397 0.958 . S
C2383 H2398 0.961 . S
C2383 H2399 0.960 . S
H2384 C2368 0.931 . S
H2385 C2373 0.929 . S
H2386 C2374 0.960 . S
H2387 C2374 0.962 . S
H2388 C2374 0.960 . S
H2389 C2375 0.961 . S
H2390 C2375 0.961 . S
H2391 C2375 0.961 . S
H2392 C2376 0.931 . S
H2393 C2381 0.930 . S
H2394 C2382 0.956 . S
H2395 C2382 0.961 . S
H2396 C2382 0.961 . S
H2397 C2383 0.958 . S
H2398 C2383 0.961 . S
H2399 C2383 0.960 . S
C2400 C2401 1.391 . S
C2400 C2402 1.394 . S
C2400 H2416 0.931 . S
C2401 C2400 1.391 . S
C2401 C2405 1.376 . S
C2402 C2400 1.394 . S
C2402 C2403 1.369 . S
C2402 C2406 1.531 . S
C2403 C2402 1.369 . S
C2403 C2404 1.410 . S
C2403 C2411 1.503 . S
C2404 C2403 1.410 . S
C2404 C2405 1.392 . S
C2404 C2407 1.511 . S
C2405 C2401 1.376 . S
C2405 C2404 1.392 . S
C2405 H2417 0.929 . S
C2406 C2402 1.531 . S
C2406 H2418 0.960 . S
C2406 H2419 0.962 . S
C2406 H2420 0.960 . S
C2407 C2404 1.511 . S
C2407 H2421 0.961 . S
C2407 H2422 0.961 . S
C2407 H2423 0.961 . S
C2408 C2409 1.370 . S
C2408 C2410 1.363 . S
C2408 H2424 0.931 . S
C2409 C2408 1.370 . S
C2409 C2413 1.408 . S
C2410 C2408 1.363 . S
C2410 C2411 1.370 . S
C2410 C2414 1.524 . S
C2411 C2403 1.503 . S
C2411 C2410 1.370 . S
C2411 C2412 1.403 . S
C2412 C2411 1.403 . S
C2412 C2413 1.404 . S
C2412 C2415 1.539 . S
C2413 C2409 1.408 . S
C2413 C2412 1.404 . S
C2413 H2425 0.930 . S
C2414 C2410 1.524 . S
C2414 H2426 0.956 . S
C2414 H2427 0.961 . S
C2414 H2428 0.961 . S
C2415 C2412 1.539 . S
C2415 H2429 0.958 . S
C2415 H2430 0.961 . S
C2415 H2431 0.960 . S
H2416 C2400 0.931 . S
H2417 C2405 0.929 . S
H2418 C2406 0.960 . S
H2419 C2406 0.962 . S
H2420 C2406 0.960 . S
H2421 C2407 0.961 . S
H2422 C2407 0.961 . S
H2423 C2407 0.961 . S
H2424 C2408 0.931 . S
H2425 C2413 0.930 . S
H2426 C2414 0.956 . S
H2427 C2414 0.961 . S
H2428 C2414 0.961 . S
H2429 C2415 0.958 . S
H2430 C2415 0.961 . S
H2431 C2415 0.960 . S
C2432 C2433 1.391 . S
C2432 C2434 1.394 . S
C2432 H2448 0.931 . S
C2433 C2432 1.391 . S
C2433 C2437 1.376 . S
C2434 C2432 1.394 . S
C2434 C2435 1.369 . S
C2434 C2438 1.531 . S
C2435 C2434 1.369 . S
C2435 C2436 1.410 . S
C2435 C2443 1.503 . S
C2436 C2435 1.410 . S
C2436 C2437 1.392 . S
C2436 C2439 1.511 . S
C2437 C2433 1.376 . S
C2437 C2436 1.392 . S
C2437 H2449 0.929 . S
C2438 C2434 1.531 . S
C2438 H2450 0.960 . S
C2438 H2451 0.962 . S
C2438 H2452 0.960 . S
C2439 C2436 1.511 . S
C2439 H2453 0.961 . S
C2439 H2454 0.961 . S
C2439 H2455 0.961 . S
C2440 C2441 1.370 . S
C2440 C2442 1.363 . S
C2440 H2456 0.931 . S
C2441 C2440 1.370 . S
C2441 C2445 1.408 . S
C2442 C2440 1.363 . S
C2442 C2443 1.370 . S
C2442 C2446 1.524 . S
C2443 C2435 1.503 . S
C2443 C2442 1.370 . S
C2443 C2444 1.403 . S
C2444 C2443 1.403 . S
C2444 C2445 1.404 . S
C2444 C2447 1.539 . S
C2445 C2441 1.408 . S
C2445 C2444 1.404 . S
C2445 H2457 0.930 . S
C2446 C2442 1.524 . S
C2446 H2458 0.956 . S
C2446 H2459 0.961 . S
C2446 H2460 0.961 . S
C2447 C2444 1.539 . S
C2447 H2461 0.958 . S
C2447 H2462 0.961 . S
C2447 H2463 0.960 . S
H2448 C2432 0.931 . S
H2449 C2437 0.929 . S
H2450 C2438 0.960 . S
H2451 C2438 0.962 . S
H2452 C2438 0.960 . S
H2453 C2439 0.961 . S
H2454 C2439 0.961 . S
H2455 C2439 0.961 . S
H2456 C2440 0.931 . S
H2457 C2445 0.930 . S
H2458 C2446 0.956 . S
H2459 C2446 0.961 . S
H2460 C2446 0.961 . S
H2461 C2447 0.958 . S
H2462 C2447 0.961 . S
H2463 C2447 0.960 . S
C2464 C2465 1.391 . S
C2464 C2466 1.394 . S
C2464 H2480 0.931 . S
C2465 C2464 1.391 . S
C2465 C2469 1.376 . S
C2466 C2464 1.394 . S
C2466 C2467 1.369 . S
C2466 C2470 1.531 . S
C2467 C2466 1.369 . S
C2467 C2468 1.410 . S
C2467 C2475 1.503 . S
C2468 C2467 1.410 . S
C2468 C2469 1.392 . S
C2468 C2471 1.511 . S
C2469 C2465 1.376 . S
C2469 C2468 1.392 . S
C2469 H2481 0.929 . S
C2470 C2466 1.531 . S
C2470 H2482 0.960 . S
C2470 H2483 0.962 . S
C2470 H2484 0.960 . S
C2471 C2468 1.511 . S
C2471 H2485 0.961 . S
C2471 H2486 0.961 . S
C2471 H2487 0.961 . S
C2472 C2473 1.370 . S
C2472 C2474 1.363 . S
C2472 H2488 0.931 . S
C2473 C2472 1.370 . S
C2473 C2477 1.408 . S
C2474 C2472 1.363 . S
C2474 C2475 1.370 . S
C2474 C2478 1.524 . S
C2475 C2467 1.503 . S
C2475 C2474 1.370 . S
C2475 C2476 1.403 . S
C2476 C2475 1.403 . S
C2476 C2477 1.404 . S
C2476 C2479 1.539 . S
C2477 C2473 1.408 . S
C2477 C2476 1.404 . S
C2477 H2489 0.930 . S
C2478 C2474 1.524 . S
C2478 H2490 0.956 . S
C2478 H2491 0.961 . S
C2478 H2492 0.961 . S
C2479 C2476 1.539 . S
C2479 H2493 0.958 . S
C2479 H2494 0.961 . S
C2479 H2495 0.960 . S
H2480 C2464 0.931 . S
H2481 C2469 0.929 . S
H2482 C2470 0.960 . S
H2483 C2470 0.962 . S
H2484 C2470 0.960 . S
H2485 C2471 0.961 . S
H2486 C2471 0.961 . S
H2487 C2471 0.961 . S
H2488 C2472 0.931 . S
H2489 C2477 0.930 . S
H2490 C2478 0.956 . S
H2491 C2478 0.961 . S
H2492 C2478 0.961 . S
H2493 C2479 0.958 . S
H2494 C2479 0.961 . S
H2495 C2479 0.960 . S
C2496 C2497 1.391 . S
C2496 C2498 1.394 . S
C2496 H2512 0.931 1_545 S
C2497 C2496 1.391 . S
C2497 C2501 1.376 . S
C2498 C2496 1.394 . S
C2498 C2499 1.369 . S
C2498 C2502 1.531 1_545 S
C2499 C2498 1.369 . S
C2499 C2500 1.410 . S
C2499 C2507 1.503 . S
C2500 C2499 1.410 . S
C2500 C2501 1.392 . S
C2500 C2503 1.511 . S
C2501 C2497 1.376 . S
C2501 C2500 1.392 . S
C2501 H2513 0.929 . S
C2502 C2498 1.531 1_565 S
C2502 H2514 0.960 . S
C2502 H2515 0.962 . S
C2502 H2516 0.960 . S
C2503 C2500 1.511 . S
C2503 H2517 0.961 . S
C2503 H2518 0.961 . S
C2503 H2519 0.961 . S
C2504 C2505 1.370 1_565 S
C2504 C2506 1.363 1_565 S
C2504 H2520 0.931 . S
C2505 C2504 1.370 1_545 S
C2505 C2509 1.408 . S
C2506 C2504 1.363 1_545 S
C2506 C2507 1.370 . S
C2506 C2510 1.524 1_545 S
C2507 C2499 1.503 . S
C2507 C2506 1.370 . S
C2507 C2508 1.403 . S
C2508 C2507 1.403 . S
C2508 C2509 1.404 . S
C2508 C2511 1.539 . S
C2509 C2505 1.408 . S
C2509 C2508 1.404 . S
C2509 H2521 0.930 . S
C2510 C2506 1.524 1_565 S
C2510 H2522 0.956 . S
C2510 H2523 0.961 1_565 S
C2510 H2524 0.961 . S
C2511 C2508 1.539 . S
C2511 H2525 0.958 . S
C2511 H2526 0.961 . S
C2511 H2527 0.960 . S
H2512 C2496 0.931 1_565 S
H2513 C2501 0.929 . S
H2514 C2502 0.960 . S
H2515 C2502 0.962 . S
H2516 C2502 0.960 . S
H2517 C2503 0.961 . S
H2518 C2503 0.961 . S
H2519 C2503 0.961 . S
H2520 C2504 0.931 . S
H2521 C2509 0.930 . S
H2522 C2510 0.956 . S
H2523 C2510 0.961 1_545 S
H2524 C2510 0.961 . S
H2525 C2511 0.958 . S
H2526 C2511 0.961 . S
H2527 C2511 0.960 . S
C2528 C2529 1.391 . S
C2528 C2530 1.394 . S
C2528 H2544 0.931 1_655 S
C2529 C2528 1.391 . S
C2529 C2533 1.376 . S
C2530 C2528 1.394 . S
C2530 C2531 1.369 . S
C2530 C2534 1.531 1_655 S
C2531 C2530 1.369 . S
C2531 C2532 1.410 . S
C2531 C2539 1.503 . S
C2532 C2531 1.410 . S
C2532 C2533 1.392 . S
C2532 C2535 1.511 . S
C2533 C2529 1.376 . S
C2533 C2532 1.392 . S
C2533 H2545 0.929 . S
C2534 C2530 1.531 1_455 S
C2534 H2546 0.960 . S
C2534 H2547 0.962 . S
C2534 H2548 0.960 . S
C2535 C2532 1.511 . S
C2535 H2549 0.961 . S
C2535 H2550 0.961 . S
C2535 H2551 0.961 . S
C2536 C2537 1.370 1_455 S
C2536 C2538 1.365 . S
C2536 H2552 0.931 . S
C2537 C2536 1.370 1_655 S
C2537 C2541 1.408 . S
C2538 C2536 1.365 . S
C2538 C2539 1.372 1_455 S
C2538 C2542 1.521 . S
C2539 C2531 1.503 . S
C2539 C2538 1.372 1_655 S
C2539 C2540 1.403 . S
C2540 C2539 1.403 . S
C2540 C2541 1.404 . S
C2540 C2543 1.539 . S
C2541 C2537 1.408 . S
C2541 C2540 1.404 . S
C2541 H2553 0.930 . S
C2542 C2538 1.521 . S
C2542 H2554 0.956 . S
C2542 H2555 0.974 . S
C2542 H2556 0.961 . S
C2543 C2540 1.539 . S
C2543 H2557 0.958 . S
C2543 H2558 0.961 . S
C2543 H2559 0.960 . S
H2544 C2528 0.931 1_455 S
H2545 C2533 0.929 . S
H2546 C2534 0.960 . S
H2547 C2534 0.962 . S
H2548 C2534 0.960 . S
H2549 C2535 0.961 . S
H2550 C2535 0.961 . S
H2551 C2535 0.961 . S
H2552 C2536 0.931 . S
H2553 C2541 0.930 . S
H2554 C2542 0.956 . S
H2555 C2542 0.974 . S
H2556 C2542 0.961 . S
H2557 C2543 0.958 . S
H2558 C2543 0.961 . S
H2559 C2543 0.960 . S
C2560 C2561 1.391 . S
C2560 C2562 1.394 . S
C2560 H2576 0.931 . S
C2561 C2560 1.391 . S
C2561 C2565 1.376 . S
C2562 C2560 1.394 . S
C2562 C2563 1.369 . S
C2562 C2566 1.531 . S
C2563 C2562 1.369 . S
C2563 C2564 1.410 . S
C2563 C2571 1.503 . S
C2564 C2563 1.410 . S
C2564 C2565 1.392 . S
C2564 C2567 1.511 . S
C2565 C2561 1.376 . S
C2565 C2564 1.392 . S
C2565 H2577 0.929 . S
C2566 C2562 1.531 . S
C2566 H2578 0.960 . S
C2566 H2579 0.962 . S
C2566 H2580 0.960 . S
C2567 C2564 1.511 . S
C2567 H2581 0.961 . S
C2567 H2582 0.961 . S
C2567 H2583 0.961 . S
C2568 C2569 1.370 . S
C2568 C2570 1.363 . S
C2568 H2584 0.931 . S
C2569 C2568 1.370 . S
C2569 C2573 1.408 . S
C2570 C2568 1.363 . S
C2570 C2571 1.370 . S
C2570 C2574 1.524 . S
C2571 C2563 1.503 . S
C2571 C2570 1.370 . S
C2571 C2572 1.403 . S
C2572 C2571 1.403 . S
C2572 C2573 1.404 . S
C2572 C2575 1.539 . S
C2573 C2569 1.408 . S
C2573 C2572 1.404 . S
C2573 H2585 0.930 . S
C2574 C2570 1.524 . S
C2574 H2586 0.956 . S
C2574 H2587 0.961 . S
C2574 H2588 0.961 . S
C2575 C2572 1.539 . S
C2575 H2589 0.958 . S
C2575 H2590 0.961 . S
C2575 H2591 0.960 . S
H2576 C2560 0.931 . S
H2577 C2565 0.929 . S
H2578 C2566 0.960 . S
H2579 C2566 0.962 . S
H2580 C2566 0.960 . S
H2581 C2567 0.961 . S
H2582 C2567 0.961 . S
H2583 C2567 0.961 . S
H2584 C2568 0.931 . S
H2585 C2573 0.930 . S
H2586 C2574 0.956 . S
H2587 C2574 0.961 . S
H2588 C2574 0.961 . S
H2589 C2575 0.958 . S
H2590 C2575 0.961 . S
H2591 C2575 0.960 . S
C2592 C2593 1.391 . S
C2592 C2594 1.394 . S
C2592 H2608 0.931 . S
C2593 C2592 1.391 . S
C2593 C2597 1.376 . S
C2594 C2592 1.394 . S
C2594 C2595 1.369 . S
C2594 C2598 1.531 . S
C2595 C2594 1.369 . S
C2595 C2596 1.410 . S
C2595 C2603 1.503 . S
C2596 C2595 1.410 . S
C2596 C2597 1.392 . S
C2596 C2599 1.511 . S
C2597 C2593 1.376 . S
C2597 C2596 1.392 . S
C2597 H2609 0.929 . S
C2598 C2594 1.531 . S
C2598 H2610 0.960 . S
C2598 H2611 0.962 . S
C2598 H2612 0.960 . S
C2599 C2596 1.511 . S
C2599 H2613 0.961 . S
C2599 H2614 0.961 . S
C2599 H2615 0.961 . S
C2600 C2601 1.370 . S
C2600 C2602 1.363 . S
C2600 H2616 0.931 . S
C2601 C2600 1.370 . S
C2601 C2605 1.408 . S
C2602 C2600 1.363 . S
C2602 C2603 1.370 . S
C2602 C2606 1.524 . S
C2603 C2595 1.503 . S
C2603 C2602 1.370 . S
C2603 C2604 1.403 . S
C2604 C2603 1.403 . S
C2604 C2605 1.404 . S
C2604 C2607 1.539 . S
C2605 C2601 1.408 . S
C2605 C2604 1.404 . S
C2605 H2617 0.930 . S
C2606 C2602 1.524 . S
C2606 H2618 0.956 . S
C2606 H2619 0.961 . S
C2606 H2620 0.961 . S
C2607 C2604 1.539 . S
C2607 H2621 0.958 . S
C2607 H2622 0.961 . S
C2607 H2623 0.960 . S
H2608 C2592 0.931 . S
H2609 C2597 0.929 . S
H2610 C2598 0.960 . S
H2611 C2598 0.962 . S
H2612 C2598 0.960 . S
H2613 C2599 0.961 . S
H2614 C2599 0.961 . S
H2615 C2599 0.961 . S
H2616 C2600 0.931 . S
H2617 C2605 0.930 . S
H2618 C2606 0.956 . S
H2619 C2606 0.961 . S
H2620 C2606 0.961 . S
H2621 C2607 0.958 . S
H2622 C2607 0.961 . S
H2623 C2607 0.960 . S
C2624 C2625 1.391 . S
C2624 C2626 1.394 . S
C2624 H2640 0.931 . S
C2625 C2624 1.391 . S
C2625 C2629 1.376 . S
C2626 C2624 1.394 . S
C2626 C2627 1.369 . S
C2626 C2630 1.531 . S
C2627 C2626 1.369 . S
C2627 C2628 1.410 . S
C2627 C2635 1.503 . S
C2628 C2627 1.410 . S
C2628 C2629 1.392 . S
C2628 C2631 1.511 . S
C2629 C2625 1.376 . S
C2629 C2628 1.392 . S
C2629 H2641 0.929 . S
C2630 C2626 1.531 . S
C2630 H2642 0.960 . S
C2630 H2643 0.962 . S
C2630 H2644 0.960 . S
C2631 C2628 1.511 . S
C2631 H2645 0.961 . S
C2631 H2646 0.961 . S
C2631 H2647 0.961 . S
C2632 C2633 1.370 . S
C2632 C2634 1.363 . S
C2632 H2648 0.931 . S
C2633 C2632 1.370 . S
C2633 C2637 1.408 . S
C2634 C2632 1.363 . S
C2634 C2635 1.370 . S
C2634 C2638 1.524 . S
C2635 C2627 1.503 . S
C2635 C2634 1.370 . S
C2635 C2636 1.403 . S
C2636 C2635 1.403 . S
C2636 C2637 1.404 . S
C2636 C2639 1.539 . S
C2637 C2633 1.408 . S
C2637 C2636 1.404 . S
C2637 H2649 0.930 . S
C2638 C2634 1.524 . S
C2638 H2650 0.956 . S
C2638 H2651 0.961 . S
C2638 H2652 0.961 . S
C2639 C2636 1.539 . S
C2639 H2653 0.958 . S
C2639 H2654 0.961 . S
C2639 H2655 0.960 . S
H2640 C2624 0.931 . S
H2641 C2629 0.929 . S
H2642 C2630 0.960 . S
H2643 C2630 0.962 . S
H2644 C2630 0.960 . S
H2645 C2631 0.961 . S
H2646 C2631 0.961 . S
H2647 C2631 0.961 . S
H2648 C2632 0.931 . S
H2649 C2637 0.930 . S
H2650 C2638 0.956 . S
H2651 C2638 0.961 . S
H2652 C2638 0.961 . S
H2653 C2639 0.958 . S
H2654 C2639 0.961 . S
H2655 C2639 0.960 . S
C2656 C2657 1.391 . S
C2656 C2658 1.394 . S
C2656 H2672 0.931 . S
C2657 C2656 1.391 . S
C2657 C2661 1.376 . S
C2658 C2656 1.394 . S
C2658 C2659 1.369 . S
C2658 C2662 1.531 . S
C2659 C2658 1.369 . S
C2659 C2660 1.410 . S
C2659 C2667 1.503 . S
C2660 C2659 1.410 . S
C2660 C2661 1.392 . S
C2660 C2663 1.511 . S
C2661 C2657 1.376 . S
C2661 C2660 1.392 . S
C2661 H2673 0.929 . S
C2662 C2658 1.531 . S
C2662 H2674 0.960 . S
C2662 H2675 0.962 . S
C2662 H2676 0.960 . S
C2663 C2660 1.511 . S
C2663 H2677 0.961 . S
C2663 H2678 0.961 . S
C2663 H2679 0.961 . S
C2664 C2665 1.370 . S
C2664 C2666 1.363 . S
C2664 H2680 0.931 . S
C2665 C2664 1.370 . S
C2665 C2669 1.408 . S
C2666 C2664 1.363 . S
C2666 C2667 1.370 . S
C2666 C2670 1.524 . S
C2667 C2659 1.503 . S
C2667 C2666 1.370 . S
C2667 C2668 1.403 . S
C2668 C2667 1.403 . S
C2668 C2669 1.404 . S
C2668 C2671 1.539 . S
C2669 C2665 1.408 . S
C2669 C2668 1.404 . S
C2669 H2681 0.930 . S
C2670 C2666 1.524 . S
C2670 H2682 0.956 . S
C2670 H2683 0.961 . S
C2670 H2684 0.961 . S
C2671 C2668 1.539 . S
C2671 H2685 0.958 . S
C2671 H2686 0.961 . S
C2671 H2687 0.960 . S
H2672 C2656 0.931 . S
H2673 C2661 0.929 . S
H2674 C2662 0.960 . S
H2675 C2662 0.962 . S
H2676 C2662 0.960 . S
H2677 C2663 0.961 . S
H2678 C2663 0.961 . S
H2679 C2663 0.961 . S
H2680 C2664 0.931 . S
H2681 C2669 0.930 . S
H2682 C2670 0.956 . S
H2683 C2670 0.961 . S
H2684 C2670 0.961 . S
H2685 C2671 0.958 . S
H2686 C2671 0.961 . S
H2687 C2671 0.960 . S
C2688 C2689 1.391 . S
C2688 C2690 1.394 . S
C2688 H2704 0.931 . S
C2689 C2688 1.391 . S
C2689 C2693 1.376 . S
C2690 C2688 1.394 . S
C2690 C2691 1.369 . S
C2690 C2694 1.531 . S
C2691 C2690 1.369 . S
C2691 C2692 1.410 . S
C2691 C2699 1.503 . S
C2692 C2691 1.410 . S
C2692 C2693 1.392 . S
C2692 C2695 1.511 . S
C2693 C2689 1.376 . S
C2693 C2692 1.392 . S
C2693 H2705 0.929 . S
C2694 C2690 1.531 . S
C2694 H2706 0.960 . S
C2694 H2707 0.962 . S
C2694 H2708 0.960 . S
C2695 C2692 1.511 . S
C2695 H2709 0.961 . S
C2695 H2710 0.961 . S
C2695 H2711 0.961 . S
C2696 C2697 1.370 . S
C2696 C2698 1.363 . S
C2696 H2712 0.931 . S
C2697 C2696 1.370 . S
C2697 C2701 1.408 . S
C2698 C2696 1.363 . S
C2698 C2699 1.370 . S
C2698 C2702 1.524 . S
C2699 C2691 1.503 . S
C2699 C2698 1.370 . S
C2699 C2700 1.403 . S
C2700 C2699 1.403 . S
C2700 C2701 1.404 . S
C2700 C2703 1.539 . S
C2701 C2697 1.408 . S
C2701 C2700 1.404 . S
C2701 H2713 0.930 . S
C2702 C2698 1.524 . S
C2702 H2714 0.956 . S
C2702 H2715 0.961 . S
C2702 H2716 0.961 . S
C2703 C2700 1.539 . S
C2703 H2717 0.958 . S
C2703 H2718 0.961 . S
C2703 H2719 0.960 . S
H2704 C2688 0.931 . S
H2705 C2693 0.929 . S
H2706 C2694 0.960 . S
H2707 C2694 0.962 . S
H2708 C2694 0.960 . S
H2709 C2695 0.961 . S
H2710 C2695 0.961 . S
H2711 C2695 0.961 . S
H2712 C2696 0.931 . S
H2713 C2701 0.930 . S
H2714 C2702 0.956 . S
H2715 C2702 0.961 . S
H2716 C2702 0.961 . S
H2717 C2703 0.958 . S
H2718 C2703 0.961 . S
H2719 C2703 0.960 . S
C2720 C2721 1.391 . S
C2720 C2722 1.394 . S
C2720 H2736 0.931 . S
C2721 C2720 1.391 . S
C2721 C2725 1.376 . S
C2722 C2720 1.394 . S
C2722 C2723 1.369 . S
C2722 C2726 1.531 . S
C2723 C2722 1.369 . S
C2723 C2724 1.410 . S
C2723 C2731 1.503 . S
C2724 C2723 1.410 . S
C2724 C2725 1.392 . S
C2724 C2727 1.511 . S
C2725 C2721 1.376 . S
C2725 C2724 1.392 . S
C2725 H2737 0.929 . S
C2726 C2722 1.531 . S
C2726 H2738 0.960 . S
C2726 H2739 0.962 . S
C2726 H2740 0.960 . S
C2727 C2724 1.511 . S
C2727 H2741 0.961 . S
C2727 H2742 0.961 . S
C2727 H2743 0.961 . S
C2728 C2729 1.370 . S
C2728 C2730 1.363 . S
C2728 H2744 0.931 . S
C2729 C2728 1.370 . S
C2729 C2733 1.408 . S
C2730 C2728 1.363 . S
C2730 C2731 1.370 . S
C2730 C2734 1.524 . S
C2731 C2723 1.503 . S
C2731 C2730 1.370 . S
C2731 C2732 1.403 . S
C2732 C2731 1.403 . S
C2732 C2733 1.404 . S
C2732 C2735 1.539 . S
C2733 C2729 1.408 . S
C2733 C2732 1.404 . S
C2733 H2745 0.930 . S
C2734 C2730 1.524 . S
C2734 H2746 0.956 . S
C2734 H2747 0.961 . S
C2734 H2748 0.961 . S
C2735 C2732 1.539 . S
C2735 H2749 0.958 . S
C2735 H2750 0.961 . S
C2735 H2751 0.960 . S
H2736 C2720 0.931 . S
H2737 C2725 0.929 . S
H2738 C2726 0.960 . S
H2739 C2726 0.962 . S
H2740 C2726 0.960 . S
H2741 C2727 0.961 . S
H2742 C2727 0.961 . S
H2743 C2727 0.961 . S
H2744 C2728 0.931 . S
H2745 C2733 0.930 . S
H2746 C2734 0.956 . S
H2747 C2734 0.961 . S
H2748 C2734 0.961 . S
H2749 C2735 0.958 . S
H2750 C2735 0.961 . S
H2751 C2735 0.960 . S
C2752 C2753 1.391 . S
C2752 C2754 1.394 . S
C2752 H2768 0.931 . S
C2753 C2752 1.391 . S
C2753 C2757 1.376 . S
C2754 C2752 1.394 . S
C2754 C2755 1.369 . S
C2754 C2758 1.531 . S
C2755 C2754 1.369 . S
C2755 C2756 1.410 . S
C2755 C2763 1.503 . S
C2756 C2755 1.410 . S
C2756 C2757 1.392 . S
C2756 C2759 1.511 . S
C2757 C2753 1.376 . S
C2757 C2756 1.392 . S
C2757 H2769 0.929 . S
C2758 C2754 1.531 . S
C2758 H2770 0.960 . S
C2758 H2771 0.962 . S
C2758 H2772 0.960 . S
C2759 C2756 1.511 . S
C2759 H2773 0.961 . S
C2759 H2774 0.961 . S
C2759 H2775 0.961 . S
C2760 C2761 1.370 . S
C2760 C2762 1.363 . S
C2760 H2776 0.931 . S
C2761 C2760 1.370 . S
C2761 C2765 1.408 . S
C2762 C2760 1.363 . S
C2762 C2763 1.370 . S
C2762 C2766 1.524 . S
C2763 C2755 1.503 . S
C2763 C2762 1.370 . S
C2763 C2764 1.403 . S
C2764 C2763 1.403 . S
C2764 C2765 1.404 . S
C2764 C2767 1.539 . S
C2765 C2761 1.408 . S
C2765 C2764 1.404 . S
C2765 H2777 0.930 . S
C2766 C2762 1.524 . S
C2766 H2778 0.956 . S
C2766 H2779 0.961 . S
C2766 H2780 0.961 . S
C2767 C2764 1.539 . S
C2767 H2781 0.958 . S
C2767 H2782 0.961 . S
C2767 H2783 0.960 . S
H2768 C2752 0.931 . S
H2769 C2757 0.929 . S
H2770 C2758 0.960 . S
H2771 C2758 0.962 . S
H2772 C2758 0.960 . S
H2773 C2759 0.961 . S
H2774 C2759 0.961 . S
H2775 C2759 0.961 . S
H2776 C2760 0.931 . S
H2777 C2765 0.930 . S
H2778 C2766 0.956 . S
H2779 C2766 0.961 . S
H2780 C2766 0.961 . S
H2781 C2767 0.958 . S
H2782 C2767 0.961 . S
H2783 C2767 0.960 . S
C2784 C2785 1.391 1_455 S
C2784 C2786 1.394 . S
C2784 H2800 0.931 . S
C2785 C2784 1.391 1_655 S
C2785 C2789 1.376 . S
C2786 C2784 1.394 . S
C2786 C2787 1.369 1_455 S
C2786 C2790 1.531 . S
C2787 C2786 1.369 1_655 S
C2787 C2788 1.410 . S
C2787 C2795 1.503 . S
C2788 C2787 1.410 . S
C2788 C2789 1.392 . S
C2788 C2791 1.511 . S
C2789 C2785 1.376 . S
C2789 C2788 1.392 . S
C2789 H2801 0.929 . S
C2790 C2786 1.531 . S
C2790 H2802 0.960 . S
C2790 H2803 0.962 . S
C2790 H2804 0.960 . S
C2791 C2788 1.511 . S
C2791 H2805 0.961 . S
C2791 H2806 0.961 . S
C2791 H2807 0.961 . S
C2792 C2793 1.370 1_455 S
C2792 C2794 1.346 1_455 S
C2792 H2808 0.931 . S
C2793 C2792 1.370 1_655 S
C2793 C2797 1.408 . S
C2794 C2792 1.346 1_655 S
C2794 C2795 1.390 . S
C2794 C2798 1.522 1_655 S
C2795 C2787 1.503 . S
C2795 C2794 1.390 . S
C2795 C2796 1.403 . S
C2796 C2795 1.403 . S
C2796 C2797 1.404 . S
C2796 C2799 1.539 . S
C2797 C2793 1.408 . S
C2797 C2796 1.404 . S
C2797 H2809 0.930 . S
C2798 C2794 1.522 1_455 S
C2798 H2810 0.956 . S
C2798 H2811 0.961 1_455 S
C2798 H2812 0.961 . S
C2799 C2796 1.539 . S
C2799 H2813 0.958 . S
C2799 H2814 0.961 . S
C2799 H2815 0.960 . S
H2800 C2784 0.931 . S
H2801 C2789 0.929 . S
H2802 C2790 0.960 . S
H2803 C2790 0.962 . S
H2804 C2790 0.960 . S
H2805 C2791 0.961 . S
H2806 C2791 0.961 . S
H2807 C2791 0.961 . S
H2808 C2792 0.931 . S
H2809 C2797 0.930 . S
H2810 C2798 0.956 . S
H2811 C2798 0.961 1_655 S
H2812 C2798 0.961 . S
H2813 C2799 0.958 . S
H2814 C2799 0.961 . S
H2815 C2799 0.960 . S
C2816 C2817 1.391 . S
C2816 C2818 1.394 . S
C2816 H2832 0.931 . S
C2817 C2816 1.391 . S
C2817 C2821 1.376 . S
C2818 C2816 1.394 . S
C2818 C2819 1.369 . S
C2818 C2822 1.531 . S
C2819 C2818 1.369 . S
C2819 C2820 1.410 . S
C2819 C2827 1.503 . S
C2820 C2819 1.410 . S
C2820 C2821 1.392 . S
C2820 C2823 1.511 . S
C2821 C2817 1.376 . S
C2821 C2820 1.392 . S
C2821 H2833 0.929 . S
C2822 C2818 1.531 . S
C2822 H2834 0.960 . S
C2822 H2835 0.962 . S
C2822 H2836 0.960 . S
C2823 C2820 1.511 . S
C2823 H2837 0.961 . S
C2823 H2838 0.961 . S
C2823 H2839 0.961 . S
C2824 C2825 1.370 . S
C2824 C2826 1.363 . S
C2824 H2840 0.931 . S
C2825 C2824 1.370 . S
C2825 C2829 1.408 . S
C2826 C2824 1.363 . S
C2826 C2827 1.370 . S
C2826 C2830 1.524 . S
C2827 C2819 1.503 . S
C2827 C2826 1.370 . S
C2827 C2828 1.403 . S
C2828 C2827 1.403 . S
C2828 C2829 1.404 . S
C2828 C2831 1.539 . S
C2829 C2825 1.408 . S
C2829 C2828 1.404 . S
C2829 H2841 0.930 . S
C2830 C2826 1.524 . S
C2830 H2842 0.956 . S
C2830 H2843 0.961 . S
C2830 H2844 0.961 . S
C2831 C2828 1.539 . S
C2831 H2845 0.958 . S
C2831 H2846 0.961 . S
C2831 H2847 0.960 . S
H2832 C2816 0.931 . S
H2833 C2821 0.929 . S
H2834 C2822 0.960 . S
H2835 C2822 0.962 . S
H2836 C2822 0.960 . S
H2837 C2823 0.961 . S
H2838 C2823 0.961 . S
H2839 C2823 0.961 . S
H2840 C2824 0.931 . S
H2841 C2829 0.930 . S
H2842 C2830 0.956 . S
H2843 C2830 0.961 . S
H2844 C2830 0.961 . S
H2845 C2831 0.958 . S
H2846 C2831 0.961 . S
H2847 C2831 0.960 . S
C2848 C2849 1.391 . S
C2848 C2850 1.394 . S
C2848 H2864 0.931 . S
C2849 C2848 1.391 . S
C2849 C2853 1.376 . S
C2850 C2848 1.394 . S
C2850 C2851 1.369 . S
C2850 C2854 1.531 . S
C2851 C2850 1.369 . S
C2851 C2852 1.410 . S
C2851 C2859 1.503 . S
C2852 C2851 1.410 . S
C2852 C2853 1.392 . S
C2852 C2855 1.511 1_545 S
C2853 C2849 1.376 . S
C2853 C2852 1.392 . S
C2853 H2865 0.929 1_545 S
C2854 C2850 1.531 . S
C2854 H2866 0.960 . S
C2854 H2867 0.962 . S
C2854 H2868 0.960 . S
C2855 C2852 1.511 1_565 S
C2855 H2869 0.961 . S
C2855 H2870 0.961 . S
C2855 H2871 0.961 . S
C2856 C2857 1.370 1_565 S
C2856 C2858 1.363 . S
C2856 H2872 0.931 . S
C2857 C2856 1.370 1_545 S
C2857 C2861 1.408 . S
C2858 C2856 1.363 . S
C2858 C2859 1.370 1_565 S
C2858 C2862 1.524 . S
C2859 C2851 1.503 . S
C2859 C2858 1.370 1_545 S
C2859 C2860 1.403 . S
C2860 C2859 1.403 . S
C2860 C2861 1.404 . S
C2860 C2863 1.539 . S
C2861 C2857 1.408 . S
C2861 C2860 1.404 . S
C2861 H2873 0.930 . S
C2862 C2858 1.524 . S
C2862 H2874 0.956 . S
C2862 H2875 0.961 . S
C2862 H2876 0.961 . S
C2863 C2860 1.539 . S
C2863 H2877 0.958 . S
C2863 H2878 0.961 . S
C2863 H2879 0.960 . S
H2864 C2848 0.931 . S
H2865 C2853 0.929 1_565 S
H2866 C2854 0.960 . S
H2867 C2854 0.962 . S
H2868 C2854 0.960 . S
H2869 C2855 0.961 . S
H2870 C2855 0.961 . S
H2871 C2855 0.961 . S
H2872 C2856 0.931 . S
H2873 C2861 0.930 . S
H2874 C2862 0.956 . S
H2875 C2862 0.961 . S
H2876 C2862 0.961 . S
H2877 C2863 0.958 . S
H2878 C2863 0.961 . S
H2879 C2863 0.960 . S
C577 C4 1.502 . S
C585 C421 1.572 . S
C609 C26 1.569 . S
C617 C446 1.537 . S
C649 C457 1.519 . S
C641 C32 1.460 . S
C673 C40 1.509 . S
C681 C482 1.480 . S
C705 C12 1.527 . S
C713 C500 1.534 . S
C737 C18 1.493 . S
C745 C511 1.543 . S
C769 C46 1.494 . S
C777 C493 1.578 1_455 S
C809 C518 1.517 . S
C801 C68 1.554 . S
C841 C475 1.512 . S
C833 C74 1.520 . S
C865 C82 1.509 . S
C873 C464 1.489 1_545 S
C905 C428 1.505 1_655 S
C897 C54 1.563 . S
C929 C60 1.463 . S
C937 C439 1.536 . S
C961 C88 1.601 . S
C969 C529 1.594 . S
C993 C110 1.592 . S
C1001 C554 1.560 . S
C1033 C565 1.557 . S
C1025 C116 1.569 . S
C1057 C124 1.517 . S
C1065 C266 1.502 . S
C1089 C96 1.566 . S
C1097 C284 1.551 . S
C1121 C102 1.535 . S
C1129 C295 1.541 . S
C1153 C130 1.531 . S
C1161 C277 1.568 . S
C1185 C152 1.560 . S
C1193 C302 1.556 . S
C1225 C259 1.550 . S
C1217 C158 1.536 . S
C1257 C572 1.517 . S
C1249 C166 1.510 . S
C1289 C536 1.531 . S
C1281 C138 1.538 . S
C1321 C547 1.557 . S
C1313 C144 1.511 . S
C1345 C172 1.529 . S
C1353 C313 1.594 . S
C1377 C194 1.596 . S
C1385 C338 1.576 . S
C1409 C200 1.518 . S
C1417 C349 1.577 . S
C1441 C208 1.532 . S
C1449 C374 1.517 . S
C1481 C392 1.536 . S
C1473 C180 1.567 . S
C1513 C403 1.561 . S
C1505 C186 1.529 . S
C1545 C385 1.604 . S
C1537 C214 1.538 . S
C1577 C410 1.555 . S
C1569 C236 1.555 . S
C1601 C242 1.533 . S
C1609 C367 1.538 . S
C1641 C356 1.491 . S
C1633 C250 1.484 . S
C1665 C222 1.558 . S
C1673 C320 1.525 . S
C1705 C331 1.533 . S
C1697 C228 1.538 . S
C1737 C268 1.309 . S
C1729 C5 1.253 . S
C1761 C25 1.317 . S
C1769 C286 1.244 . S
C1801 C296 1.328 . S
C1793 C33 1.177 . S
C1833 C314 1.244 . S
C1825 C39 1.272 . S
C1865 C340 1.294 . S
C1857 C11 1.344 . S
C1897 C350 1.264 . S
C1889 C19 1.205 1_556 S
C1921 C47 1.170 1_556 S
C1929 C358 1.366 . S
C1953 C67 1.370 . S
C1961 C322 1.283 . S
C1985 C75 1.190 1_556 S
C1993 C332 1.348 . S
C2017 C81 1.355 . S
C2025 C278 1.298 . S
C2057 C304 1.254 . S
C2049 C53 1.339 . S
C2081 C61 1.213 . S
C2089 C260 1.296 . S
C2121 C376 1.291 . S
C2113 C89 1.232 . S
C2145 C109 1.348 . S
C2153 C394 1.285 . S
C2177 C117 1.219 . S
C2185 C404 1.308 . S
C2217 C422 1.232 . S
C2209 C123 1.254 . S
C2241 C95 1.334 . S
C2249 C448 1.265 . S
C2273 C103 1.170 . S
C2281 C458 1.238 . S
C2305 C131 1.147 . S
C2313 C466 1.267 . S
C2337 C151 1.325 . S
C2345 C430 1.270 . S
C2377 C440 1.301 . S
C2369 C159 1.216 . S
C2401 C165 1.325 . S
C2409 C386 1.257 . S
C2433 C137 1.380 . S
C2441 C412 1.293 . S
C2473 C368 1.336 . S
C2465 C145 1.176 . S
C2505 C484 1.274 . S
C2497 C173 1.099 . S
C2529 C193 1.272 . S
C2537 C502 1.240 . S
C2561 C201 1.136 . S
C2569 C512 1.285 . S
C2601 C530 1.258 . S
C2593 C207 1.302 . S
C2633 C556 1.326 . S
C2625 C179 1.375 . S
C2657 C187 1.226 . S
C2665 C566 1.306 . S
C2689 C215 1.156 . S
C2697 C574 1.338 . S
C2721 C235 1.404 . S
C2729 C538 1.326 . S
C2761 C548 1.333 . S
C2753 C243 1.209 . S
C2793 C494 1.191 1_655 S
C2785 C249 1.245 . S
C2825 C520 1.291 . S
C2817 C221 1.374 . S
C2849 C229 1.107 . S
C2857 C476 1.285 1_545 S
