# Generated by pormake.
# Topology pyr, (3,6)-cn, num edge types: 1
# Building blocks:
#     Node 0, Type 0, BuildingBlock: MIDCAF_clean_linker_0, # of connection points: 3
#     Node 1, Type 0, BuildingBlock: MIDCAF_clean_linker_0, # of connection points: 3
#     Node 2, Type 0, BuildingBlock: MIDCAF_clean_linker_0, # of connection points: 3
#     Node 3, Type 0, BuildingBlock: MIDCAF_clean_linker_0, # of connection points: 3
#     Node 4, Type 0, BuildingBlock: MIDCAF_clean_linker_0, # of connection points: 3
#     Node 5, Type 0, BuildingBlock: MIDCAF_clean_linker_0, # of connection points: 3
#     Node 6, Type 0, BuildingBlock: MIDCAF_clean_linker_0, # of connection points: 3
#     Node 7, Type 0, BuildingBlock: MIDCAF_clean_linker_0, # of connection points: 3
#     Node 8, Type 1, BuildingBlock: MIFKUJ_clean_sbu_0, # of connection points: 6
#     Node 9, Type 1, BuildingBlock: MIFKUJ_clean_sbu_0, # of connection points: 6
#     Node 10, Type 1, BuildingBlock: MIFKUJ_clean_sbu_0, # of connection points: 6
#     Node 11, Type 1, BuildingBlock: MIFKUJ_clean_sbu_0, # of connection points: 6
#     Edge 12, Type (0, 1), BuildingBlock: XIVTED_clean_linker_0, # of connection points: 2
#     Edge 13, Type (0, 1), BuildingBlock: XIVTED_clean_linker_0, # of connection points: 2
#     Edge 14, Type (0, 1), BuildingBlock: XIVTED_clean_linker_0, # of connection points: 2
#     Edge 15, Type (0, 1), BuildingBlock: XIVTED_clean_linker_0, # of connection points: 2
#     Edge 16, Type (0, 1), BuildingBlock: XIVTED_clean_linker_0, # of connection points: 2
#     Edge 17, Type (0, 1), BuildingBlock: XIVTED_clean_linker_0, # of connection points: 2
#     Edge 18, Type (0, 1), BuildingBlock: XIVTED_clean_linker_0, # of connection points: 2
#     Edge 19, Type (0, 1), BuildingBlock: XIVTED_clean_linker_0, # of connection points: 2
#     Edge 20, Type (0, 1), BuildingBlock: XIVTED_clean_linker_0, # of connection points: 2
#     Edge 21, Type (0, 1), BuildingBlock: XIVTED_clean_linker_0, # of connection points: 2
#     Edge 22, Type (0, 1), BuildingBlock: XIVTED_clean_linker_0, # of connection points: 2
#     Edge 23, Type (0, 1), BuildingBlock: XIVTED_clean_linker_0, # of connection points: 2
#     Edge 24, Type (0, 1), BuildingBlock: XIVTED_clean_linker_0, # of connection points: 2
#     Edge 25, Type (0, 1), BuildingBlock: XIVTED_clean_linker_0, # of connection points: 2
#     Edge 26, Type (0, 1), BuildingBlock: XIVTED_clean_linker_0, # of connection points: 2
#     Edge 27, Type (0, 1), BuildingBlock: XIVTED_clean_linker_0, # of connection points: 2
#     Edge 28, Type (0, 1), BuildingBlock: XIVTED_clean_linker_0, # of connection points: 2
#     Edge 29, Type (0, 1), BuildingBlock: XIVTED_clean_linker_0, # of connection points: 2
#     Edge 30, Type (0, 1), BuildingBlock: XIVTED_clean_linker_0, # of connection points: 2
#     Edge 31, Type (0, 1), BuildingBlock: XIVTED_clean_linker_0, # of connection points: 2
#     Edge 32, Type (0, 1), BuildingBlock: XIVTED_clean_linker_0, # of connection points: 2
#     Edge 33, Type (0, 1), BuildingBlock: XIVTED_clean_linker_0, # of connection points: 2
#     Edge 34, Type (0, 1), BuildingBlock: XIVTED_clean_linker_0, # of connection points: 2
#     Edge 35, Type (0, 1), BuildingBlock: XIVTED_clean_linker_0, # of connection points: 2
# Relax obj value: 0.027
# Max RMSD: 0.080
# Mean RMSD: 0.047
data_MOF--net-pyr--node1-MIFKUJ_clean_sbu_0--node2-MIDCAF_clean_linker_0--edge1-XIVTED_clean_linker_0
_symmetry_space_group_name_H-M    P1
_symmetry_Int_Tables_number       1
_symmetry_cell_setting            triclinic
loop_
_symmetry_equiv_pos_as_xyz
'x, y, z'
_cell_length_a     47.979369
_cell_length_b     43.20168
_cell_length_c     46.525724
_cell_angle_alpha  86.396805
_cell_angle_beta   88.641971
_cell_angle_gamma 96.233028
loop_
_atom_site_label
_atom_site_type_symbol
_atom_site_fract_x
_atom_site_fract_y
_atom_site_fract_z
_atom_type_partial_charge
C0 C 0.17145 0.17757 0.31717 0.0
C1 C 0.17318 0.14589 0.32508 0.0
C2 C 0.19068 0.12932 0.30854 0.0
C3 C 0.20462 0.14354 0.28362 0.0
H4 H 0.27688 0.14738 0.22677 0.0
H5 H 0.31152 0.12185 0.20076 0.0
H6 H 0.28855 0.16738 0.12077 0.0
H7 H 0.2545 0.19364 0.1468 0.0
H8 H 0.21579 0.24996 0.1509 0.0
H9 H 0.18577 0.2819 0.12333 0.0
H10 H 0.12356 0.26845 0.19301 0.0
H11 H 0.15387 0.23746 0.22094 0.0
H12 H 0.18221 0.21565 0.28588 0.0
H13 H 0.15884 0.19132 0.32986 0.0
H14 H 0.1924 0.10485 0.31385 0.0
H15 H 0.21681 0.12971 0.27055 0.0
N16 N 0.2327 0.17611 0.23195 0.0
N17 N 0.22606 0.20806 0.19057 0.0
N18 N 0.19719 0.20932 0.23166 0.0
C19 C 0.24041 0.18642 0.20441 0.0
C20 C 0.20444 0.21965 0.20408 0.0
C21 C 0.21125 0.18768 0.24577 0.0
C22 C 0.26275 0.17245 0.18889 0.0
C23 C 0.27931 0.15214 0.20366 0.0
C24 C 0.29908 0.13733 0.18872 0.0
C25 C 0.30265 0.14233 0.15864 0.0
C26 C 0.28657 0.16324 0.14397 0.0
C27 C 0.26692 0.1782 0.15893 0.0
C28 C 0.18724 0.24101 0.18812 0.0
C29 C 0.19581 0.25402 0.16045 0.0
C30 C 0.17848 0.27214 0.14454 0.0
C31 C 0.1521 0.2775 0.15582 0.0
C32 C 0.14385 0.2651 0.18375 0.0
C33 C 0.16125 0.24719 0.19975 0.0
C34 C 0.201 0.17446 0.27459 0.0
C35 C 0.18499 0.19161 0.29206 0.0
C36 C 0.23789 0.88528 0.6722 0.0
C37 C 0.2263 0.87253 0.6475 0.0
C38 C 0.23966 0.84945 0.63441 0.0
C39 C 0.26429 0.8397 0.64543 0.0
H40 H 0.3227 0.77994 0.63087 0.0
H41 H 0.34755 0.74379 0.60478 0.0
H42 H 0.42009 0.76392 0.65659 0.0
H43 H 0.39494 0.79931 0.68334 0.0
H44 H 0.38058 0.8223 0.74576 0.0
H45 H 0.39993 0.83982 0.79037 0.0
H46 H 0.34032 0.90768 0.79337 0.0
H47 H 0.3208 0.89027 0.74825 0.0
H48 H 0.27109 0.88606 0.70215 0.0
H49 H 0.22826 0.90335 0.68262 0.0
H50 H 0.23102 0.83875 0.61566 0.0
H51 H 0.27399 0.82194 0.63464 0.0
N52 N 0.31691 0.82307 0.66608 0.0
N53 N 0.35157 0.82446 0.70064 0.0
N54 N 0.31327 0.85327 0.70592 0.0
C55 C 0.34138 0.81389 0.67571 0.0
C56 C 0.33768 0.84408 0.71592 0.0
C57 C 0.30273 0.84278 0.68099 0.0
C58 C 0.35675 0.79247 0.6593 0.0
C59 C 0.34397 0.77674 0.63668 0.0
C60 C 0.35831 0.75612 0.62157 0.0
C61 C 0.38586 0.75093 0.62854 0.0
C62 C 0.39875 0.76696 0.65094 0.0
C63 C 0.38433 0.78739 0.66621 0.0
C64 C 0.3491 0.85487 0.74333 0.0
C65 C 0.37147 0.84095 0.7558 0.0
C66 C 0.38247 0.85082 0.78156 0.0
C67 C 0.37151 0.87496 0.79546 0.0
C68 C 0.34923 0.88908 0.78304 0.0
C69 C 0.338 0.879 0.75728 0.0
C70 C 0.27616 0.85273 0.6699 0.0
C71 C 0.26255 0.87547 0.6833 0.0
C72 C 0.63944 0.2629 0.89169 0.0
C73 C 0.61491 0.24856 0.88003 0.0
C74 C 0.60424 0.2629 0.8553 0.0
C75 C 0.61808 0.29058 0.84223 0.0
H76 H 0.60784 0.3739 0.78872 0.0
H77 H 0.58805 0.39666 0.74542 0.0
H78 H 0.67144 0.4255 0.71012 0.0
H79 H 0.69146 0.40344 0.75394 0.0
H80 H 0.74137 0.40856 0.80705 0.0
H81 H 0.78576 0.42916 0.82656 0.0
H82 H 0.75981 0.38411 0.91001 0.0
H83 H 0.71621 0.36239 0.8901 0.0
H84 H 0.67223 0.30069 0.88816 0.0
H85 H 0.64797 0.25279 0.91101 0.0
H86 H 0.58555 0.25234 0.84558 0.0
H87 H 0.60946 0.30067 0.82296 0.0
N88 N 0.64829 0.3469 0.81494 0.0
N89 N 0.68809 0.3839 0.8108 0.0
N90 N 0.68332 0.34534 0.84901 0.0
C91 C 0.66293 0.37223 0.80075 0.0
C92 C 0.69828 0.37068 0.83516 0.0
C93 C 0.65842 0.33315 0.83896 0.0
C94 C 0.65122 0.38687 0.77472 0.0
C95 C 0.622 0.38522 0.77181 0.0
C96 C 0.61064 0.39836 0.74712 0.0
C97 C 0.62825 0.41279 0.72452 0.0
C98 C 0.65746 0.41442 0.72729 0.0
C99 C 0.66887 0.40194 0.75235 0.0
C100 C 0.72522 0.38376 0.84695 0.0
C101 C 0.74519 0.40305 0.82955 0.0
C102 C 0.77064 0.41502 0.84086 0.0
C103 C 0.77659 0.40844 0.87 0.0
C104 C 0.75642 0.38927 0.88737 0.0
C105 C 0.73122 0.37693 0.87596 0.0
C106 C 0.64293 0.30461 0.85359 0.0
C107 C 0.65328 0.29054 0.87864 0.0
C108 C 0.76051 0.62887 0.37775 0.0
C109 C 0.74537 0.60325 0.3659 0.0
C110 C 0.75743 0.59004 0.34237 0.0
C111 C 0.78383 0.60228 0.33082 0.0
H112 H 0.84051 0.59275 0.26534 0.0
H113 H 0.86055 0.57036 0.22394 0.0
H114 H 0.93338 0.6385 0.22449 0.0
H115 H 0.91313 0.6614 0.2655 0.0
H116 H 0.90088 0.72743 0.30151 0.0
H117 H 0.92187 0.77543 0.32154 0.0
H118 H 0.88455 0.74374 0.40496 0.0
H119 H 0.86304 0.69622 0.38496 0.0
H120 H 0.79774 0.66103 0.37583 0.0
H121 H 0.75175 0.63989 0.39564 0.0
H122 H 0.74657 0.57 0.33296 0.0
H123 H 0.79235 0.59151 0.31265 0.0
N124 N 0.83787 0.62972 0.30643 0.0
N125 N 0.87654 0.6681 0.30574 0.0
N126 N 0.84072 0.66685 0.34115 0.0
C127 C 0.86288 0.64265 0.29429 0.0
C128 C 0.86562 0.68021 0.32926 0.0
C129 C 0.8266 0.64172 0.32983 0.0
C130 C 0.87512 0.629 0.26889 0.0
C131 C 0.86079 0.60306 0.25668 0.0
C132 C 0.87239 0.59003 0.23297 0.0
C133 C 0.89863 0.60254 0.22081 0.0
C134 C 0.91296 0.62848 0.233 0.0
C135 C 0.90137 0.64154 0.2567 0.0
C136 C 0.88019 0.70812 0.34163 0.0
C137 C 0.89739 0.73059 0.32418 0.0
C138 C 0.90931 0.75807 0.33558 0.0
C139 C 0.90485 0.76319 0.36478 0.0
C140 C 0.8885 0.74024 0.38243 0.0
C141 C 0.87606 0.71316 0.37092 0.0
C142 C 0.79887 0.62807 0.34252 0.0
C143 C 0.78689 0.64111 0.36623 0.0
C144 C 0.71853 0.86458 0.82492 0.0
C145 C 0.70791 0.85195 0.85208 0.0
C146 C 0.7197 0.82637 0.8651 0.0
C147 C 0.74198 0.81412 0.85153 0.0
H148 H 0.80238 0.75276 0.8655 0.0
H149 H 0.83139 0.71964 0.89322 0.0
H150 H 0.89774 0.73945 0.82805 0.0
H151 H 0.86856 0.77162 0.79996 0.0
H152 H 0.85568 0.80284 0.74131 0.0
H153 H 0.87579 0.82771 0.69633 0.0
H154 H 0.80811 0.88594 0.69074 0.0
H155 H 0.78813 0.86149 0.7364 0.0
H156 H 0.74855 0.86299 0.79062 0.0
H157 H 0.71027 0.88459 0.81445 0.0
H158 H 0.71174 0.81577 0.88581 0.0
H159 H 0.75074 0.79461 0.86232 0.0
N160 N 0.7924 0.79505 0.82575 0.0
N161 N 0.82444 0.79684 0.78675 0.0
N162 N 0.78645 0.82646 0.78381 0.0
C163 C 0.81592 0.78565 0.81379 0.0
C164 C 0.80981 0.81712 0.77155 0.0
C165 C 0.77753 0.81546 0.81086 0.0
C166 C 0.83308 0.76485 0.83047 0.0
C167 C 0.82312 0.74996 0.85704 0.0
C168 C 0.83984 0.73113 0.87303 0.0
C169 C 0.86696 0.72695 0.86292 0.0
C170 C 0.87682 0.74175 0.8363 0.0
C171 C 0.86007 0.76035 0.82023 0.0
C172 C 0.82039 0.83033 0.74271 0.0
C173 C 0.84486 0.82075 0.73049 0.0
C174 C 0.85631 0.83486 0.70448 0.0
C175 C 0.84358 0.85885 0.68995 0.0
C176 C 0.8186 0.86778 0.70162 0.0
C177 C 0.80709 0.85364 0.72772 0.0
C178 C 0.75288 0.82712 0.82458 0.0
C179 C 0.74065 0.85225 0.8113 0.0
C180 C 0.65473 0.11035 0.22686 0.0
C181 C 0.63092 0.12276 0.21601 0.0
C182 C 0.61885 0.14521 0.23132 0.0
C183 C 0.63028 0.15507 0.25691 0.0
H184 H 0.60931 0.19767 0.33004 0.0
H185 H 0.58547 0.23376 0.35738 0.0
H186 H 0.65939 0.25219 0.40761 0.0
H187 H 0.68284 0.21539 0.38103 0.0
H188 H 0.72099 0.15413 0.38399 0.0
H189 H 0.76482 0.13776 0.40104 0.0
H190 H 0.78744 0.1161 0.31462 0.0
H191 H 0.74284 0.13122 0.29782 0.0
H192 H 0.68471 0.11037 0.26021 0.0
H193 H 0.66458 0.09315 0.21541 0.0
H194 H 0.60024 0.15487 0.22373 0.0
H195 H 0.6203 0.17235 0.2681 0.0
N196 N 0.65227 0.17235 0.31122 0.0
N197 N 0.6875 0.1729 0.3452 0.0
N198 N 0.69078 0.14422 0.30431 0.0
C199 C 0.66286 0.18228 0.33625 0.0
C200 C 0.70157 0.15389 0.3294 0.0
C201 C 0.66606 0.15332 0.29512 0.0
C202 C 0.64803 0.20364 0.35328 0.0
C203 C 0.62045 0.20932 0.347 0.0
C204 C 0.6068 0.23015 0.3626 0.0
C205 C 0.62049 0.24597 0.38469 0.0
C206 C 0.64799 0.24004 0.39111 0.0
C207 C 0.66154 0.21904 0.37569 0.0
C208 C 0.72841 0.14397 0.33954 0.0
C209 C 0.73531 0.1459 0.36859 0.0
C210 C 0.76061 0.1367 0.37835 0.0
C211 C 0.77988 0.12577 0.35922 0.0
C212 C 0.77298 0.12395 0.33009 0.0
C213 C 0.74744 0.13276 0.3204 0.0
C214 C 0.65416 0.14279 0.26782 0.0
C215 C 0.66632 0.12036 0.25245 0.0
C216 C 0.24257 0.58184 0.16985 0.0
C217 C 0.23651 0.5883 0.1407 0.0
C218 C 0.25653 0.6076 0.12327 0.0
C219 C 0.28151 0.6205 0.13468 0.0
H220 H 0.32934 0.71025 0.13533 0.0
H221 H 0.35247 0.75825 0.11173 0.0
H222 H 0.43052 0.7395 0.1504 0.0
H223 H 0.40688 0.69221 0.17517 0.0
H224 H 0.39825 0.65051 0.23502 0.0
H225 H 0.41864 0.62964 0.27819 0.0
H226 H 0.34893 0.55739 0.28956 0.0
H227 H 0.32848 0.57804 0.24569 0.0
H228 H 0.2717 0.58917 0.20371 0.0
H229 H 0.2276 0.56752 0.18417 0.0
H230 H 0.25312 0.61259 0.10061 0.0
H231 H 0.29631 0.6353 0.12052 0.0
N232 N 0.32753 0.65482 0.16194 0.0
N233 N 0.3626 0.65557 0.19606 0.0
N234 N 0.32476 0.61605 0.19995 0.0
C235 C 0.35184 0.66848 0.17202 0.0
C236 C 0.34926 0.62943 0.21025 0.0
C237 C 0.31388 0.6286 0.17563 0.0
C238 C 0.36625 0.69737 0.15715 0.0
C239 C 0.35145 0.71634 0.13877 0.0
C240 C 0.36483 0.74386 0.12506 0.0
C241 C 0.39352 0.7529 0.12894 0.0
C242 C 0.40834 0.73372 0.14722 0.0
C243 C 0.39482 0.70643 0.16131 0.0
C244 C 0.36156 0.61609 0.23675 0.0
C245 C 0.3871 0.63017 0.24659 0.0
C246 C 0.3988 0.61829 0.27157 0.0
C247 C 0.38535 0.59197 0.28757 0.0
C248 C 0.35996 0.57758 0.27766 0.0
C249 C 0.34816 0.58953 0.25255 0.0
C250 C 0.28749 0.61411 0.16376 0.0
C251 C 0.26785 0.59439 0.18117 0.0
C252 C 0.13927 0.25482 0.62999 0.0
C253 C 0.11636 0.23575 0.64322 0.0
C254 C 0.1042 0.24512 0.66865 0.0
C255 C 0.1154 0.27242 0.68102 0.0
H256 H 0.10238 0.33606 0.74442 0.0
H257 H 0.08087 0.3579 0.78542 0.0
H258 H 0.1525 0.42738 0.78787 0.0
H259 H 0.17375 0.4061 0.74661 0.0
H260 H 0.22346 0.40948 0.70011 0.0
H261 H 0.26885 0.43268 0.67975 0.0
H262 H 0.26626 0.36227 0.61764 0.0
H263 H 0.22085 0.3395 0.63743 0.0
H264 H 0.16828 0.29561 0.6314 0.0
H265 H 0.14874 0.24879 0.61003 0.0
H266 H 0.08656 0.2309 0.67941 0.0
H267 H 0.10598 0.27866 0.70093 0.0
N268 N 0.14022 0.33066 0.70471 0.0
N269 N 0.17831 0.36973 0.70564 0.0
N270 N 0.17747 0.33285 0.67088 0.0
C271 C 0.15308 0.35619 0.71683 0.0
C272 C 0.19066 0.35816 0.68265 0.0
C273 C 0.15234 0.31891 0.68161 0.0
C274 C 0.13986 0.36925 0.74203 0.0
C275 C 0.11358 0.35602 0.75364 0.0
C276 C 0.10127 0.36846 0.77731 0.0
C277 C 0.1149 0.39447 0.79002 0.0
C278 C 0.14116 0.40767 0.77842 0.0
C279 C 0.15346 0.39526 0.75478 0.0
C280 C 0.21834 0.3726 0.67046 0.0
C281 C 0.23252 0.39897 0.68208 0.0
C282 C 0.25865 0.41218 0.67049 0.0
C283 C 0.27124 0.39938 0.647 0.0
C284 C 0.25704 0.37306 0.63542 0.0
C285 C 0.23098 0.35986 0.64696 0.0
C286 C 0.13895 0.29089 0.66816 0.0
C287 C 0.15042 0.28188 0.64227 0.0
Zn288 Zn 0.02779 0.9888 0.52007 0.0
Zn289 Zn 0.97904 0.01476 0.48761 0.0
C290 C 0.05734 0.04176 0.54127 0.0
O291 O 0.07689 0.02925 0.52718 0.0
C292 C 0.95258 0.96134 0.46184 0.0
O293 O 0.93052 0.97506 0.46894 0.0
O294 O 0.05671 0.96301 0.53644 0.0
O295 O 0.99034 0.96404 0.52974 0.0
O296 O 0.96722 0.00521 0.52911 0.0
C297 C 0.05731 0.95748 0.56355 0.0
O298 O 0.0381 0.96754 0.58011 0.0
O299 O 0.03226 0.02865 0.54143 0.0
C300 C 0.94937 0.04221 0.44207 0.0
O301 O 0.9677 0.02936 0.42659 0.0
O302 O 0.95021 0.03952 0.46939 0.0
O303 O 0.01568 0.04055 0.47822 0.0
O304 O 0.03977 0.00018 0.47865 0.0
O305 O 0.97686 0.97365 0.46799 0.0
C306 C 0.96971 0.97744 0.53843 0.0
C307 C 0.03657 0.02778 0.46934 0.0
Zn308 Zn 0.52604 0.98119 0.99165 0.0
Zn309 Zn 0.48338 0.01742 0.01449 0.0
C310 C 0.48795 0.94389 0.95924 0.0
O311 O 0.4998 0.92226 0.9741 0.0
C312 C 0.51936 0.05544 0.04777 0.0
O313 O 0.50747 0.07646 0.03216 0.0
O314 O 0.55776 0.95883 0.97762 0.0
O315 O 0.54012 0.02687 0.98757 0.0
O316 O 0.49836 0.03936 0.97669 0.0
C317 C 0.56412 0.96352 0.95092 0.0
O318 O 0.55066 0.98302 0.93517 0.0
O319 O 0.49555 0.97241 0.96308 0.0
C320 C 0.43998 0.02872 0.05239 0.0
O321 O 0.44967 0.00481 0.06614 0.0
O322 O 0.45087 0.03876 0.02796 0.0
O323 O 0.47015 0.97133 0.01779 0.0
O324 O 0.51194 0.96049 0.03027 0.0
O325 O 0.51266 0.02673 0.04403 0.0
C326 C 0.5249 0.0454 0.97481 0.0
C327 C 0.48549 0.95358 0.0314 0.0
Zn328 Zn 0.5182 0.47503 0.48937 0.0
Zn329 Zn 0.49682 0.52969 0.52165 0.0
C330 C 0.55776 0.50748 0.44843 0.0
O331 O 0.54055 0.49262 0.43109 0.0
C332 C 0.45716 0.49741 0.56178 0.0
O333 O 0.47449 0.51244 0.57891 0.0
O334 O 0.52472 0.43463 0.4726 0.0
O335 O 0.5201 0.46682 0.5326 0.0
O336 O 0.53064 0.51602 0.54169 0.0
C337 C 0.5458 0.42162 0.48123 0.0
O338 O 0.56156 0.43464 0.50085 0.0
O339 O 0.55208 0.50475 0.47539 0.0
C340 C 0.46927 0.58381 0.52692 0.0
O341 O 0.4558 0.5719 0.50522 0.0
O342 O 0.48906 0.57004 0.53771 0.0
O343 O 0.49751 0.53778 0.47839 0.0
O344 O 0.4834 0.48906 0.47095 0.0
O345 O 0.46272 0.49988 0.53479 0.0
C346 C 0.53186 0.48721 0.54825 0.0
C347 C 0.48383 0.51793 0.46361 0.0
Zn348 Zn 0.99866 0.52458 0.98785 0.0
Zn349 Zn 0.01457 0.46886 0.02512 0.0
C350 C 0.95785 0.49909 0.9516 0.0
O351 O 0.97551 0.51662 0.93379 0.0
C352 C 0.05509 0.49417 0.06187 0.0
O353 O 0.03719 0.47677 0.07953 0.0
O354 O 0.99234 0.56596 0.96831 0.0
O355 O 0.99966 0.53222 0.03033 0.0
O356 O 0.9814 0.48496 0.04477 0.0
C357 C 0.97264 0.57931 0.97922 0.0
O358 O 0.9598 0.56683 0.00311 0.0
O359 O 0.96345 0.49688 0.97824 0.0
C360 C 0.03986 0.41352 0.03458 0.0
O361 O 0.05234 0.42473 0.0101 0.0
O362 O 0.02056 0.42766 0.04521 0.0
O363 O 0.01426 0.46116 0.98254 0.0
O364 O 0.03164 0.5087 0.96778 0.0
O365 O 0.04976 0.49641 0.03516 0.0
C366 C 0.98472 0.514 0.0485 0.0
C367 C 0.02869 0.47963 0.96413 0.0
H368 H 0.18481 0.09915 0.36482 0.0
H369 H 0.03195 0.08347 0.44002 0.0
H370 H 0.11906 0.15482 0.33879 0.0
H371 H 0.08856 0.01295 0.45262 0.0
H372 H 0.06628 0.11317 0.4068 0.0
H373 H 0.15225 0.07033 0.40095 0.0
C374 C 0.16363 0.10541 0.36672 0.0
C375 C 0.15476 0.12958 0.34873 0.0
C376 C 0.07123 0.09119 0.41679 0.0
C377 C 0.1176 0.09692 0.39012 0.0
C378 C 0.05164 0.07421 0.43581 0.0
C379 C 0.05735 0.0456 0.44902 0.0
C380 C 0.09687 0.07964 0.41097 0.0
C381 C 0.08324 0.03481 0.44273 0.0
C382 C 0.14511 0.089 0.38738 0.0
C383 C 0.12714 0.13688 0.35247 0.0
N384 N 0.10212 0.05188 0.42413 0.0
N385 N 0.1096 0.12062 0.37267 0.0
H386 H 0.3858 0.83886 0.8419 0.0
H387 H 0.46307 0.98215 0.92063 0.0
H388 H 0.38552 0.93495 0.81054 0.0
H389 H 0.46503 0.88528 0.94875 0.0
H390 H 0.43075 0.96608 0.88301 0.0
H391 H 0.41075 0.85616 0.88408 0.0
C392 C 0.39093 0.86365 0.84398 0.0
C393 C 0.3839 0.88549 0.82254 0.0
C394 C 0.43813 0.94838 0.89755 0.0
C395 C 0.41249 0.90555 0.87082 0.0
C396 C 0.45656 0.95754 0.91902 0.0
C397 C 0.46698 0.93499 0.93766 0.0
C398 C 0.43007 0.91649 0.89476 0.0
C399 C 0.45776 0.90345 0.93469 0.0
C400 C 0.4051 0.87354 0.86812 0.0
C401 C 0.39052 0.91734 0.82661 0.0
N402 N 0.43998 0.89515 0.91356 0.0
N403 N 0.40472 0.92643 0.85016 0.0
H404 H 0.6381 0.39838 0.66914 0.0
H405 H 0.54379 0.51995 0.59582 0.0
H406 H 0.59019 0.45537 0.7197 0.0
H407 H 0.55383 0.43201 0.55987 0.0
H408 H 0.56836 0.50291 0.6387 0.0
H409 H 0.61519 0.41712 0.62566 0.0
C410 C 0.62297 0.41509 0.67097 0.0
C411 C 0.61593 0.42537 0.69792 0.0
C412 C 0.56519 0.48744 0.62134 0.0
C413 C 0.58997 0.447 0.64854 0.0
C414 C 0.55129 0.49715 0.59686 0.0
C415 C 0.54677 0.47736 0.57422 0.0
C416 C 0.57521 0.45806 0.62289 0.0
C417 C 0.55681 0.44799 0.57681 0.0
C418 C 0.60981 0.42558 0.64628 0.0
C419 C 0.59605 0.44682 0.69927 0.0
N420 N 0.57076 0.43932 0.6006 0.0
N421 N 0.58386 0.4571 0.67488 0.0
H422 H 0.89764 0.5405 0.20983 0.0
H423 H 0.98663 0.57512 0.06114 0.0
H424 H 0.92782 0.63293 0.17384 0.0
H425 H 0.95353 0.48236 0.09384 0.0
H426 H 0.96562 0.59631 0.10275 0.0
H427 H 0.918 0.51853 0.16801 0.0
C428 C 0.90839 0.55623 0.1931 0.0
C429 C 0.91098 0.5887 0.19549 0.0
C430 C 0.9629 0.57131 0.10089 0.0
C431 C 0.93467 0.56356 0.14757 0.0
C432 C 0.97494 0.55914 0.07708 0.0
C433 C 0.97188 0.52684 0.0739 0.0
C434 C 0.94765 0.55113 0.12191 0.0
C435 C 0.95643 0.50739 0.09535 0.0
C436 C 0.92016 0.54362 0.16927 0.0
C437 C 0.9256 0.60778 0.17325 0.0
N438 N 0.94492 0.51984 0.11844 0.0
N439 N 0.93684 0.59495 0.15031 0.0
H440 H 0.31257 0.08132 0.16813 0.0
H441 H 0.4216 0.08463 0.03496 0.0
H442 H 0.33752 0.16379 0.11223 0.0
H443 H 0.40895 0.00973 0.10149 0.0
H444 H 0.38741 0.1122 0.06012 0.0
H445 H 0.34494 0.05319 0.14143 0.0
C446 C 0.32501 0.09363 0.15039 0.0
C447 C 0.32241 0.12508 0.14256 0.0
C448 C 0.39209 0.0897 0.06914 0.0
C449 C 0.35918 0.09273 0.1115 0.0
C450 C 0.41149 0.07389 0.05474 0.0
C451 C 0.41818 0.04488 0.06621 0.0
C452 C 0.37918 0.07629 0.09507 0.0
C453 C 0.40452 0.0321 0.09193 0.0
C454 C 0.34336 0.07746 0.13502 0.0
C455 C 0.33861 0.13951 0.11888 0.0
N456 N 0.38569 0.04789 0.1055 0.0
N457 N 0.35631 0.12322 0.10419 0.0
H458 H 0.21544 0.88385 0.59052 0.0
H459 H 0.0661 0.94377 0.62071 0.0
H460 H 0.17886 0.88671 0.67586 0.0
H461 H 0.10191 0.93685 0.53563 0.0
H462 H 0.10651 0.92167 0.64144 0.0
H463 H 0.17337 0.90212 0.57017 0.0
C464 C 0.19846 0.88808 0.605 0.0
C465 C 0.20069 0.88364 0.63498 0.0
C466 C 0.10545 0.92486 0.61824 0.0
C467 C 0.15247 0.90503 0.61175 0.0
C468 C 0.08236 0.93744 0.60637 0.0
C469 C 0.08065 0.94227 0.57638 0.0
C470 C 0.12702 0.91713 0.59998 0.0
C471 C 0.10235 0.93361 0.55887 0.0
C472 C 0.17447 0.89868 0.59335 0.0
C473 C 0.1782 0.89013 0.65265 0.0
N474 N 0.12466 0.92159 0.57094 0.0
N475 N 0.15503 0.90052 0.64077 0.0
H476 H 0.80694 0.46553 0.85623 0.0
H477 H 0.92027 0.45226 0.97783 0.0
H478 H 0.80789 0.38198 0.91223 0.0
H479 H 0.93457 0.51276 0.90027 0.0
H480 H 0.87593 0.42951 0.95835 0.0
H481 H 0.85091 0.48661 0.87626 0.0
C482 C 0.81639 0.45141 0.87253 0.0
C483 C 0.8035 0.42171 0.8823 0.0
C484 C 0.8889 0.44771 0.94565 0.0
C485 C 0.85378 0.44635 0.90601 0.0
C486 C 0.91412 0.46073 0.95677 0.0
C487 C 0.93119 0.48437 0.94062 0.0
C488 C 0.88056 0.45886 0.9185 0.0
C489 C 0.92221 0.49447 0.91344 0.0
C490 C 0.84148 0.46363 0.88412 0.0
C491 C 0.81664 0.40512 0.9042 0.0
N492 N 0.89749 0.48183 0.90335 0.0
N493 N 0.84098 0.41769 0.91537 0.0
H494 H 0.69881 0.58242 0.33645 0.0
H495 H 0.60128 0.53561 0.47828 0.0
H496 H 0.72715 0.59527 0.4227 0.0
H497 H 0.57532 0.51831 0.39201 0.0
H498 H 0.64653 0.56047 0.45837 0.0
H499 H 0.65272 0.56114 0.35647 0.0
C500 C 0.69543 0.58062 0.35962 0.0
C501 C 0.71705 0.59056 0.37788 0.0
C502 C 0.63087 0.55135 0.4438 0.0
C503 C 0.66399 0.5665 0.40102 0.0
C504 C 0.60499 0.53724 0.45515 0.0
C505 C 0.58447 0.52472 0.43681 0.0
C506 C 0.63629 0.55301 0.41388 0.0
C507 C 0.5905 0.52749 0.40701 0.0
C508 C 0.669 0.56865 0.37105 0.0
C509 C 0.71111 0.58822 0.40774 0.0
N510 N 0.61584 0.54121 0.39652 0.0
N511 N 0.68521 0.57637 0.41836 0.0
H512 H 0.1173 0.31946 0.17382 0.0
H513 H 0.07482 0.37284 0.01577 0.0
H514 H 0.14315 0.27613 0.09787 0.0
H515 H 0.0325 0.39787 0.09243 0.0
H516 H 0.09985 0.33695 0.0454 0.0
H517 H 0.08621 0.34855 0.14446 0.0
C518 C 0.11631 0.31585 0.15103 0.0
C519 C 0.13303 0.29538 0.13831 0.0
C520 C 0.08483 0.34999 0.05572 0.0
C521 C 0.0977 0.32897 0.10452 0.0
C522 C 0.07052 0.37046 0.03881 0.0
C523 C 0.05167 0.38845 0.05169 0.0
C524 C 0.08057 0.34785 0.08577 0.0
C525 C 0.04683 0.38439 0.08162 0.0
C526 C 0.09857 0.33253 0.13427 0.0
C527 C 0.13112 0.29209 0.10855 0.0
N528 N 0.06148 0.36479 0.09772 0.0
N529 N 0.11391 0.30883 0.09266 0.0
H530 H 0.55839 0.23011 0.88807 0.0
H531 H 0.58081 0.06418 0.96565 0.0
H532 H 0.63947 0.19819 0.90213 0.0
H533 H 0.4991 0.09349 0.94942 0.0
H534 H 0.60243 0.11318 0.94205 0.0
H535 H 0.53608 0.18027 0.90992 0.0
C536 C 0.57151 0.2126 0.89562 0.0
C537 C 0.60089 0.21846 0.89332 0.0
C538 C 0.57977 0.10892 0.94356 0.0
C539 C 0.57546 0.16142 0.91859 0.0
C540 C 0.56738 0.08089 0.95706 0.0
C541 C 0.53806 0.07468 0.95958 0.0
C542 C 0.56279 0.13108 0.93249 0.0
C543 C 0.52178 0.09726 0.94796 0.0
C544 C 0.55875 0.18419 0.90821 0.0
C545 C 0.61679 0.19499 0.90384 0.0
N546 N 0.53436 0.12449 0.93498 0.0
N547 N 0.60388 0.16758 0.91599 0.0
H548 H 0.89797 0.82205 0.34361 0.0
H549 H 0.98508 0.91264 0.46251 0.0
H550 H 0.93582 0.77224 0.41294 0.0
H551 H 0.91139 0.94515 0.42485 0.0
H552 H 0.97619 0.86426 0.43714 0.0
H553 H 0.91222 0.87121 0.36566 0.0
C554 C 0.90966 0.82156 0.36324 0.0
C555 C 0.91569 0.79313 0.37656 0.0
C556 C 0.96213 0.88215 0.43442 0.0
C557 C 0.93214 0.8491 0.40171 0.0
C558 C 0.96723 0.9097 0.44872 0.0
C559 C 0.94882 0.93274 0.44586 0.0
C560 C 0.93894 0.87817 0.4166 0.0
C561 C 0.92594 0.92781 0.42784 0.0
C562 C 0.9176 0.84951 0.37588 0.0
C563 C 0.93064 0.79371 0.40215 0.0
N564 N 0.92173 0.90117 0.41377 0.0
N565 N 0.93846 0.8213 0.4139 0.0
H566 H 0.42097 0.70979 0.65049 0.0
H567 H 0.43246 0.62277 0.50551 0.0
H568 H 0.38488 0.74048 0.57089 0.0
H569 H 0.48435 0.60711 0.57842 0.0
H570 H 0.41427 0.66556 0.52929 0.0
H571 H 0.44402 0.67171 0.6247 0.0
C572 C 0.41811 0.70881 0.62754 0.0
C573 C 0.40083 0.72839 0.6129 0.0
C574 C 0.4298 0.65293 0.53999 0.0
C575 C 0.42682 0.68434 0.58334 0.0
C576 C 0.44017 0.62846 0.52645 0.0
C577 C 0.45986 0.61127 0.54007 0.0
C578 C 0.43895 0.66004 0.56749 0.0
C579 C 0.46919 0.61976 0.56714 0.0
C580 C 0.4312 0.68692 0.61285 0.0
C581 C 0.39756 0.72554 0.58322 0.0
N582 N 0.45846 0.64338 0.58008 0.0
N583 N 0.41029 0.70381 0.56947 0.0
H584 H 0.87013 0.83435 0.64522 0.0
H585 H 0.9271 0.00049 0.56782 0.0
H586 H 0.84904 0.92173 0.67521 0.0
H587 H 0.96335 0.91514 0.55433 0.0
H588 H 0.8926 0.9713 0.60178 0.0
H589 H 0.89832 0.86311 0.60586 0.0
C590 C 0.8713 0.85958 0.64345 0.0
C591 C 0.8575 0.87566 0.66379 0.0
C592 C 0.90807 0.95901 0.59128 0.0
C593 C 0.88957 0.9087 0.61867 0.0
C594 C 0.92774 0.97562 0.57191 0.0
C595 C 0.94828 0.96026 0.55844 0.0
C596 C 0.90883 0.92681 0.59695 0.0
C597 C 0.94808 0.928 0.56444 0.0
C598 C 0.88735 0.87597 0.62094 0.0
C599 C 0.85921 0.90834 0.65998 0.0
N600 N 0.92869 0.91236 0.58327 0.0
N601 N 0.87517 0.92381 0.63799 0.0
H602 H 0.6213 0.063 0.19886 0.0
H603 H 0.53932 0.1148 0.05916 0.0
H604 H 0.61171 0.15854 0.1718 0.0
H605 H 0.54455 0.01851 0.08732 0.0
H606 H 0.56962 0.13104 0.09797 0.0
H607 H 0.59723 0.04609 0.15576 0.0
C608 C 0.61441 0.08043 0.18369 0.0
C609 C 0.61828 0.1122 0.18904 0.0
C610 C 0.56428 0.10634 0.09564 0.0
C611 C 0.59057 0.09305 0.1399 0.0
C612 C 0.54694 0.09703 0.07345 0.0
C613 C 0.53918 0.06524 0.07014 0.0
C614 C 0.57392 0.08372 0.1148 0.0
C615 C 0.5499 0.04328 0.08919 0.0
C616 C 0.60055 0.07076 0.15919 0.0
C617 C 0.60873 0.13377 0.16879 0.0
N618 N 0.5666 0.05294 0.11084 0.0
N619 N 0.59523 0.12379 0.14521 0.0
H620 H 0.38867 0.53091 0.30706 0.0
H621 H 0.47867 0.57797 0.44384 0.0
H622 H 0.41082 0.62565 0.32957 0.0
H623 H 0.45406 0.48239 0.42518 0.0
H624 H 0.45354 0.59544 0.40201 0.0
H625 H 0.41154 0.51226 0.35039 0.0
C626 C 0.39812 0.54779 0.32119 0.0
C627 C 0.39796 0.57994 0.31446 0.0
C628 C 0.45357 0.57063 0.40702 0.0
C629 C 0.42446 0.55875 0.36396 0.0
C630 C 0.46799 0.5606 0.43095 0.0
C631 C 0.46855 0.52862 0.4381 0.0
C632 C 0.43958 0.54859 0.38989 0.0
C633 C 0.45422 0.50728 0.42052 0.0
C634 C 0.41133 0.53713 0.34584 0.0
C635 C 0.41084 0.60069 0.33349 0.0
N636 N 0.44036 0.51764 0.39721 0.0
N637 N 0.42358 0.58976 0.35723 0.0
H638 H 0.11468 0.45617 0.80159 0.0
H639 H 0.02717 0.41863 0.95095 0.0
H640 H 0.0855 0.36301 0.83643 0.0
H641 H 0.05887 0.51194 0.91853 0.0
H642 H 0.04779 0.39813 0.90869 0.0
H643 H 0.09402 0.47717 0.84373 0.0
C644 C 0.10406 0.44008 0.81813 0.0
C645 C 0.10193 0.40769 0.81536 0.0
C646 C 0.05027 0.4231 0.91076 0.0
C647 C 0.07789 0.43173 0.86369 0.0
C648 C 0.03846 0.43487 0.93494 0.0
C649 C 0.04127 0.46713 0.9384 0.0
C650 C 0.06502 0.44365 0.88968 0.0
C651 C 0.05619 0.48693 0.91685 0.0
C652 C 0.09212 0.45214 0.84215 0.0
C653 C 0.08742 0.38812 0.83735 0.0
N654 N 0.06748 0.47488 0.89343 0.0
N655 N 0.07603 0.40043 0.86053 0.0
H656 H 0.66195 0.87517 0.82853 0.0
H657 H 0.6003 0.92644 0.97722 0.0
H658 H 0.70212 0.86123 0.90971 0.0
H659 H 0.57578 0.96099 0.89352 0.0
H660 H 0.63453 0.89746 0.95363 0.0
H661 H 0.62666 0.90159 0.85291 0.0
C662 C 0.66341 0.8777 0.85147 0.0
C663 C 0.68522 0.86615 0.86702 0.0
C664 C 0.62165 0.91144 0.94049 0.0
C665 C 0.64459 0.89605 0.89515 0.0
C666 C 0.60213 0.92795 0.95392 0.0
C667 C 0.58524 0.94624 0.93731 0.0
C668 C 0.62406 0.913 0.91027 0.0
C669 C 0.58845 0.94732 0.90719 0.0
C670 C 0.64318 0.8927 0.86539 0.0
C671 C 0.68557 0.86947 0.89687 0.0
N672 N 0.60741 0.93087 0.89465 0.0
N673 N 0.6656 0.88419 0.90996 0.0
H674 H 0.81332 0.15157 0.40068 0.0
H675 H 0.93138 0.03646 0.38718 0.0
H676 H 0.8082 0.07765 0.34197 0.0
H677 H 0.91533 0.0817 0.46508 0.0
H678 H 0.8915 0.05881 0.36535 0.0
H679 H 0.85592 0.13312 0.41978 0.0
C680 C 0.82101 0.13142 0.39182 0.0
C681 C 0.80682 0.11597 0.36982 0.0
C682 C 0.89683 0.06391 0.38717 0.0
C683 C 0.85608 0.09532 0.39119 0.0
C684 C 0.91964 0.05133 0.39959 0.0
C685 C 0.92656 0.05716 0.42803 0.0
C686 C 0.88116 0.08282 0.40315 0.0
C687 C 0.91057 0.07647 0.44316 0.0
C688 C 0.84545 0.12105 0.40266 0.0
C689 C 0.81845 0.09055 0.35868 0.0
N690 N 0.88861 0.08867 0.43051 0.0
N691 N 0.84238 0.08101 0.36951 0.0
H692 H 0.20516 0.61497 0.09871 0.0
H693 H 0.07792 0.48016 0.11337 0.0
H694 H 0.2059 0.53128 0.15456 0.0
H695 H 0.09289 0.54115 0.0362 0.0
H696 H 0.12188 0.50316 0.13212 0.0
H697 H 0.16159 0.59237 0.07855 0.0
C698 C 0.19641 0.59178 0.10667 0.0
C699 C 0.20955 0.57507 0.12847 0.0
C700 C 0.1156 0.51152 0.11107 0.0
C701 C 0.15905 0.54948 0.1058 0.0
C702 C 0.0904 0.49853 0.10037 0.0
C703 C 0.08166 0.50876 0.07313 0.0
C704 C 0.13216 0.53533 0.09468 0.0
C705 C 0.09887 0.53252 0.05726 0.0
C706 C 0.17139 0.57901 0.09518 0.0
C707 C 0.19652 0.54542 0.13824 0.0
N708 N 0.12326 0.54517 0.06835 0.0
N709 N 0.17201 0.53369 0.12695 0.0
H710 H 0.31747 0.42268 0.67577 0.0
H711 H 0.41334 0.46881 0.5326 0.0
H712 H 0.28872 0.4075 0.59004 0.0
H713 H 0.44014 0.4873 0.61836 0.0
H714 H 0.36834 0.44396 0.5532 0.0
H715 H 0.36307 0.44493 0.65507 0.0
C716 C 0.32065 0.42419 0.65258 0.0
C717 C 0.29911 0.41321 0.63467 0.0
C718 C 0.38412 0.45336 0.5675 0.0
C719 C 0.35157 0.43836 0.61075 0.0
C720 C 0.40986 0.46746 0.55575 0.0
C721 C 0.43055 0.48027 0.57375 0.0
C722 C 0.37903 0.45203 0.59747 0.0
C723 C 0.42482 0.47786 0.60361 0.0
C724 C 0.3468 0.43671 0.64076 0.0
C725 C 0.30475 0.41529 0.60476 0.0
N726 N 0.39963 0.46415 0.61449 0.0
N727 N 0.33036 0.42764 0.59377 0.0
H728 H 0.90271 0.68688 0.8433 0.0
H729 H 0.9367 0.61813 0.99954 0.0
H730 H 0.8724 0.72226 0.92161 0.0
H731 H 0.98221 0.59955 0.92249 0.0
H732 H 0.91314 0.65667 0.97149 0.0
H733 H 0.93193 0.65467 0.87187 0.0
C734 C 0.90235 0.68812 0.86648 0.0
C735 C 0.88496 0.70732 0.88004 0.0
C736 C 0.92851 0.64443 0.96076 0.0
C737 C 0.91813 0.67007 0.91292 0.0
C738 C 0.94197 0.62244 0.97676 0.0
C739 C 0.96132 0.60552 0.96328 0.0
C740 C 0.93415 0.64925 0.93098 0.0
C741 C 0.96745 0.6121 0.93375 0.0
C742 C 0.91901 0.66963 0.88278 0.0
C743 C 0.88506 0.70744 0.91022 0.0
N744 N 0.95364 0.63322 0.9185 0.0
N745 N 0.90126 0.68899 0.92564 0.0
H746 H 0.38388 0.77897 0.07504 0.0
H747 H 0.50795 0.91732 0.07348 0.0
H748 H 0.436 0.79391 0.1485 0.0
H749 H 0.43415 0.92234 0.02288 0.0
H750 H 0.48612 0.86802 0.09737 0.0
H751 H 0.40632 0.82774 0.05171 0.0
C752 C 0.39987 0.79249 0.08644 0.0
C753 C 0.40778 0.78219 0.11403 0.0
C754 C 0.47475 0.88002 0.08107 0.0
C755 C 0.43415 0.83783 0.08685 0.0
C756 C 0.4872 0.90804 0.06739 0.0
C757 C 0.47278 0.92398 0.04627 0.0
C758 C 0.44797 0.86763 0.07313 0.0
C759 C 0.44592 0.91095 0.03921 0.0
C760 C 0.41279 0.82029 0.07296 0.0
C761 C 0.42935 0.80051 0.12714 0.0
N762 N 0.43447 0.88344 0.05247 0.0
N763 N 0.44182 0.82738 0.11341 0.0
H764 H 0.06173 0.20973 0.63707 0.0
H765 H 0.1097 0.07105 0.54774 0.0
H766 H 0.14768 0.19343 0.62082 0.0
H767 H 0.0229 0.0768 0.57115 0.0
H768 H 0.1231 0.1169 0.57395 0.0
H769 H 0.04621 0.16178 0.61341 0.0
C770 C 0.07732 0.19601 0.62875 0.0
C771 C 0.10608 0.2059 0.63062 0.0
C772 C 0.10108 0.10823 0.57348 0.0
C773 C 0.0885 0.15129 0.60337 0.0
C774 C 0.09337 0.08198 0.55839 0.0
C775 C 0.06508 0.06998 0.55718 0.0
C776 C 0.08043 0.12296 0.58751 0.0
C777 C 0.04495 0.08526 0.57152 0.0
C778 C 0.06845 0.16874 0.61513 0.0
C779 C 0.12532 0.18722 0.61932 0.0
N780 N 0.05301 0.11104 0.58607 0.0
N781 N 0.11619 0.16103 0.60614 0.0
H782 H 0.62328 0.25711 0.44212 0.0
H783 H 0.52587 0.39606 0.43228 0.0
H784 H 0.58588 0.28803 0.36332 0.0
H785 H 0.58358 0.38287 0.50064 0.0
H786 H 0.54152 0.35097 0.40973 0.0
H787 H 0.60288 0.29793 0.46676 0.0
C788 C 0.61082 0.27246 0.42995 0.0
C789 C 0.60656 0.26924 0.40047 0.0
C790 C 0.55063 0.3579 0.42973 0.0
C791 C 0.58272 0.31569 0.42877 0.0
C792 C 0.54165 0.38353 0.44266 0.0
C793 C 0.55358 0.39332 0.46827 0.0
C794 C 0.57146 0.3418 0.44268 0.0
C795 C 0.57398 0.37626 0.48078 0.0
C796 C 0.59907 0.29566 0.4441 0.0
C797 C 0.58956 0.28937 0.38609 0.0
N798 N 0.58229 0.35134 0.46784 0.0
N799 N 0.57835 0.31179 0.40036 0.0
loop_
_geom_bond_atom_site_label_1
_geom_bond_atom_site_label_2
_geom_bond_distance
_geom_bond_site_symmetry_2
_ccdc_geom_bond_type
C0 C1 1.384 . S
C0 H13 0.947 . S
C0 C35 1.382 . S
C1 C0 1.384 . S
C1 C2 1.378 . S
C2 C1 1.378 . S
C2 C3 1.378 . S
C2 H14 0.952 . S
C3 C2 1.378 . S
C3 H15 0.950 . S
C3 C34 1.383 . S
H4 C23 0.947 . S
H5 C24 0.946 . S
H6 C26 0.953 . S
H7 C27 0.945 . S
H8 C29 0.952 . S
H9 C30 0.949 . S
H10 C32 0.950 . S
H11 C33 0.948 . S
H12 C35 0.951 . S
H13 C0 0.947 . S
H14 C2 0.952 . S
H15 C3 0.950 . S
N16 C19 1.382 . S
N16 C21 1.363 . S
N17 C19 1.371 . S
N17 C20 1.372 . S
N18 C20 1.361 . S
N18 C21 1.377 . S
C19 N16 1.382 . S
C19 N17 1.371 . S
C19 C22 1.480 . S
C20 N17 1.372 . S
C20 N18 1.361 . S
C20 C28 1.457 . S
C21 N16 1.363 . S
C21 N18 1.377 . S
C21 C34 1.479 . S
C22 C19 1.480 . S
C22 C23 1.383 . S
C22 C27 1.385 . S
C23 H4 0.947 . S
C23 C22 1.383 . S
C23 C24 1.388 . S
C24 H5 0.946 . S
C24 C23 1.388 . S
C24 C25 1.384 . S
C25 C24 1.384 . S
C25 C26 1.377 . S
C26 H6 0.953 . S
C26 C25 1.377 . S
C26 C27 1.369 . S
C27 H7 0.945 . S
C27 C22 1.385 . S
C27 C26 1.369 . S
C28 C20 1.457 . S
C28 C29 1.372 . S
C28 C33 1.364 . S
C29 H8 0.952 . S
C29 C28 1.372 . S
C29 C30 1.389 . S
C30 H9 0.949 . S
C30 C29 1.389 . S
C30 C31 1.387 . S
C31 C30 1.387 . S
C31 C32 1.372 . S
C32 H10 0.950 . S
C32 C31 1.372 . S
C32 C33 1.379 . S
C33 H11 0.948 . S
C33 C28 1.364 . S
C33 C32 1.379 . S
C34 C3 1.383 . S
C34 C21 1.479 . S
C34 C35 1.398 . S
C35 C0 1.382 . S
C35 H12 0.951 . S
C35 C34 1.398 . S
C36 C37 1.384 . S
C36 H49 0.947 . S
C36 C71 1.382 . S
C37 C36 1.384 . S
C37 C38 1.378 . S
C38 C37 1.378 . S
C38 C39 1.378 . S
C38 H50 0.952 . S
C39 C38 1.378 . S
C39 H51 0.950 . S
C39 C70 1.383 . S
H40 C59 0.947 . S
H41 C60 0.946 . S
H42 C62 0.953 . S
H43 C63 0.945 . S
H44 C65 0.952 . S
H45 C66 0.949 . S
H46 C68 0.950 . S
H47 C69 0.948 . S
H48 C71 0.951 . S
H49 C36 0.947 . S
H50 C38 0.952 . S
H51 C39 0.950 . S
N52 C55 1.382 . S
N52 C57 1.363 . S
N53 C55 1.371 . S
N53 C56 1.372 . S
N54 C56 1.361 . S
N54 C57 1.377 . S
C55 N52 1.382 . S
C55 N53 1.371 . S
C55 C58 1.480 . S
C56 N53 1.372 . S
C56 N54 1.361 . S
C56 C64 1.457 . S
C57 N52 1.363 . S
C57 N54 1.377 . S
C57 C70 1.479 . S
C58 C55 1.480 . S
C58 C59 1.383 . S
C58 C63 1.385 . S
C59 H40 0.947 . S
C59 C58 1.383 . S
C59 C60 1.388 . S
C60 H41 0.946 . S
C60 C59 1.388 . S
C60 C61 1.384 . S
C61 C60 1.384 . S
C61 C62 1.377 . S
C62 H42 0.953 . S
C62 C61 1.377 . S
C62 C63 1.369 . S
C63 H43 0.945 . S
C63 C58 1.385 . S
C63 C62 1.369 . S
C64 C56 1.457 . S
C64 C65 1.372 . S
C64 C69 1.364 . S
C65 H44 0.952 . S
C65 C64 1.372 . S
C65 C66 1.389 . S
C66 H45 0.949 . S
C66 C65 1.389 . S
C66 C67 1.387 . S
C67 C66 1.387 . S
C67 C68 1.372 . S
C68 H46 0.950 . S
C68 C67 1.372 . S
C68 C69 1.379 . S
C69 H47 0.948 . S
C69 C64 1.364 . S
C69 C68 1.379 . S
C70 C39 1.383 . S
C70 C57 1.479 . S
C70 C71 1.398 . S
C71 C36 1.382 . S
C71 H48 0.951 . S
C71 C70 1.398 . S
C72 C73 1.384 . S
C72 H85 0.947 . S
C72 C107 1.382 . S
C73 C72 1.384 . S
C73 C74 1.378 . S
C74 C73 1.378 . S
C74 C75 1.378 . S
C74 H86 0.952 . S
C75 C74 1.378 . S
C75 H87 0.950 . S
C75 C106 1.383 . S
H76 C95 0.947 . S
H77 C96 0.946 . S
H78 C98 0.953 . S
H79 C99 0.945 . S
H80 C101 0.952 . S
H81 C102 0.949 . S
H82 C104 0.950 . S
H83 C105 0.948 . S
H84 C107 0.951 . S
H85 C72 0.947 . S
H86 C74 0.952 . S
H87 C75 0.950 . S
N88 C91 1.382 . S
N88 C93 1.363 . S
N89 C91 1.371 . S
N89 C92 1.372 . S
N90 C92 1.361 . S
N90 C93 1.377 . S
C91 N88 1.382 . S
C91 N89 1.371 . S
C91 C94 1.480 . S
C92 N89 1.372 . S
C92 N90 1.361 . S
C92 C100 1.457 . S
C93 N88 1.363 . S
C93 N90 1.377 . S
C93 C106 1.479 . S
C94 C91 1.480 . S
C94 C95 1.383 . S
C94 C99 1.385 . S
C95 H76 0.947 . S
C95 C94 1.383 . S
C95 C96 1.388 . S
C96 H77 0.946 . S
C96 C95 1.388 . S
C96 C97 1.384 . S
C97 C96 1.384 . S
C97 C98 1.377 . S
C98 H78 0.953 . S
C98 C97 1.377 . S
C98 C99 1.369 . S
C99 H79 0.945 . S
C99 C94 1.385 . S
C99 C98 1.369 . S
C100 C92 1.457 . S
C100 C101 1.372 . S
C100 C105 1.364 . S
C101 H80 0.952 . S
C101 C100 1.372 . S
C101 C102 1.389 . S
C102 H81 0.949 . S
C102 C101 1.389 . S
C102 C103 1.387 . S
C103 C102 1.387 . S
C103 C104 1.372 . S
C104 H82 0.950 . S
C104 C103 1.372 . S
C104 C105 1.379 . S
C105 H83 0.948 . S
C105 C100 1.364 . S
C105 C104 1.379 . S
C106 C75 1.383 . S
C106 C93 1.479 . S
C106 C107 1.398 . S
C107 C72 1.382 . S
C107 H84 0.951 . S
C107 C106 1.398 . S
C108 C109 1.384 . S
C108 H121 0.947 . S
C108 C143 1.382 . S
C109 C108 1.384 . S
C109 C110 1.378 . S
C110 C109 1.378 . S
C110 C111 1.378 . S
C110 H122 0.952 . S
C111 C110 1.378 . S
C111 H123 0.950 . S
C111 C142 1.383 . S
H112 C131 0.947 . S
H113 C132 0.946 . S
H114 C134 0.953 . S
H115 C135 0.945 . S
H116 C137 0.952 . S
H117 C138 0.949 . S
H118 C140 0.950 . S
H119 C141 0.948 . S
H120 C143 0.951 . S
H121 C108 0.947 . S
H122 C110 0.952 . S
H123 C111 0.950 . S
N124 C127 1.382 . S
N124 C129 1.363 . S
N125 C127 1.371 . S
N125 C128 1.372 . S
N126 C128 1.361 . S
N126 C129 1.377 . S
C127 N124 1.382 . S
C127 N125 1.371 . S
C127 C130 1.480 . S
C128 N125 1.372 . S
C128 N126 1.361 . S
C128 C136 1.457 . S
C129 N124 1.363 . S
C129 N126 1.377 . S
C129 C142 1.479 . S
C130 C127 1.480 . S
C130 C131 1.383 . S
C130 C135 1.385 . S
C131 H112 0.947 . S
C131 C130 1.383 . S
C131 C132 1.388 . S
C132 H113 0.946 . S
C132 C131 1.388 . S
C132 C133 1.384 . S
C133 C132 1.384 . S
C133 C134 1.377 . S
C134 H114 0.953 . S
C134 C133 1.377 . S
C134 C135 1.369 . S
C135 H115 0.945 . S
C135 C130 1.385 . S
C135 C134 1.369 . S
C136 C128 1.457 . S
C136 C137 1.372 . S
C136 C141 1.364 . S
C137 H116 0.952 . S
C137 C136 1.372 . S
C137 C138 1.389 . S
C138 H117 0.949 . S
C138 C137 1.389 . S
C138 C139 1.387 . S
C139 C138 1.387 . S
C139 C140 1.372 . S
C140 H118 0.950 . S
C140 C139 1.372 . S
C140 C141 1.379 . S
C141 H119 0.948 . S
C141 C136 1.364 . S
C141 C140 1.379 . S
C142 C111 1.383 . S
C142 C129 1.479 . S
C142 C143 1.398 . S
C143 C108 1.382 . S
C143 H120 0.951 . S
C143 C142 1.398 . S
C144 C145 1.384 . S
C144 H157 0.947 . S
C144 C179 1.382 . S
C145 C144 1.384 . S
C145 C146 1.378 . S
C146 C145 1.378 . S
C146 C147 1.378 . S
C146 H158 0.952 . S
C147 C146 1.378 . S
C147 H159 0.950 . S
C147 C178 1.383 . S
H148 C167 0.947 . S
H149 C168 0.946 . S
H150 C170 0.953 . S
H151 C171 0.945 . S
H152 C173 0.952 . S
H153 C174 0.949 . S
H154 C176 0.950 . S
H155 C177 0.948 . S
H156 C179 0.951 . S
H157 C144 0.947 . S
H158 C146 0.952 . S
H159 C147 0.950 . S
N160 C163 1.382 . S
N160 C165 1.363 . S
N161 C163 1.371 . S
N161 C164 1.372 . S
N162 C164 1.361 . S
N162 C165 1.377 . S
C163 N160 1.382 . S
C163 N161 1.371 . S
C163 C166 1.480 . S
C164 N161 1.372 . S
C164 N162 1.361 . S
C164 C172 1.457 . S
C165 N160 1.363 . S
C165 N162 1.377 . S
C165 C178 1.479 . S
C166 C163 1.480 . S
C166 C167 1.383 . S
C166 C171 1.385 . S
C167 H148 0.947 . S
C167 C166 1.383 . S
C167 C168 1.388 . S
C168 H149 0.946 . S
C168 C167 1.388 . S
C168 C169 1.384 . S
C169 C168 1.384 . S
C169 C170 1.377 . S
C170 H150 0.953 . S
C170 C169 1.377 . S
C170 C171 1.369 . S
C171 H151 0.945 . S
C171 C166 1.385 . S
C171 C170 1.369 . S
C172 C164 1.457 . S
C172 C173 1.372 . S
C172 C177 1.364 . S
C173 H152 0.952 . S
C173 C172 1.372 . S
C173 C174 1.389 . S
C174 H153 0.949 . S
C174 C173 1.389 . S
C174 C175 1.387 . S
C175 C174 1.387 . S
C175 C176 1.372 . S
C176 H154 0.950 . S
C176 C175 1.372 . S
C176 C177 1.379 . S
C177 H155 0.948 . S
C177 C172 1.364 . S
C177 C176 1.379 . S
C178 C147 1.383 . S
C178 C165 1.479 . S
C178 C179 1.398 . S
C179 C144 1.382 . S
C179 H156 0.951 . S
C179 C178 1.398 . S
C180 C181 1.384 . S
C180 H193 0.947 . S
C180 C215 1.382 . S
C181 C180 1.384 . S
C181 C182 1.378 . S
C182 C181 1.378 . S
C182 C183 1.378 . S
C182 H194 0.952 . S
C183 C182 1.378 . S
C183 H195 0.950 . S
C183 C214 1.383 . S
H184 C203 0.947 . S
H185 C204 0.946 . S
H186 C206 0.953 . S
H187 C207 0.945 . S
H188 C209 0.952 . S
H189 C210 0.949 . S
H190 C212 0.950 . S
H191 C213 0.948 . S
H192 C215 0.951 . S
H193 C180 0.947 . S
H194 C182 0.952 . S
H195 C183 0.950 . S
N196 C199 1.382 . S
N196 C201 1.363 . S
N197 C199 1.371 . S
N197 C200 1.372 . S
N198 C200 1.361 . S
N198 C201 1.377 . S
C199 N196 1.382 . S
C199 N197 1.371 . S
C199 C202 1.480 . S
C200 N197 1.372 . S
C200 N198 1.361 . S
C200 C208 1.457 . S
C201 N196 1.363 . S
C201 N198 1.377 . S
C201 C214 1.479 . S
C202 C199 1.480 . S
C202 C203 1.383 . S
C202 C207 1.385 . S
C203 H184 0.947 . S
C203 C202 1.383 . S
C203 C204 1.388 . S
C204 H185 0.946 . S
C204 C203 1.388 . S
C204 C205 1.384 . S
C205 C204 1.384 . S
C205 C206 1.377 . S
C206 H186 0.953 . S
C206 C205 1.377 . S
C206 C207 1.369 . S
C207 H187 0.945 . S
C207 C202 1.385 . S
C207 C206 1.369 . S
C208 C200 1.457 . S
C208 C209 1.372 . S
C208 C213 1.364 . S
C209 H188 0.952 . S
C209 C208 1.372 . S
C209 C210 1.389 . S
C210 H189 0.949 . S
C210 C209 1.389 . S
C210 C211 1.387 . S
C211 C210 1.387 . S
C211 C212 1.372 . S
C212 H190 0.950 . S
C212 C211 1.372 . S
C212 C213 1.379 . S
C213 H191 0.948 . S
C213 C208 1.364 . S
C213 C212 1.379 . S
C214 C183 1.383 . S
C214 C201 1.479 . S
C214 C215 1.398 . S
C215 C180 1.382 . S
C215 H192 0.951 . S
C215 C214 1.398 . S
C216 C217 1.384 . S
C216 H229 0.947 . S
C216 C251 1.382 . S
C217 C216 1.384 . S
C217 C218 1.378 . S
C218 C217 1.378 . S
C218 C219 1.378 . S
C218 H230 0.952 . S
C219 C218 1.378 . S
C219 H231 0.950 . S
C219 C250 1.383 . S
H220 C239 0.947 . S
H221 C240 0.946 . S
H222 C242 0.953 . S
H223 C243 0.945 . S
H224 C245 0.952 . S
H225 C246 0.949 . S
H226 C248 0.950 . S
H227 C249 0.948 . S
H228 C251 0.951 . S
H229 C216 0.947 . S
H230 C218 0.952 . S
H231 C219 0.950 . S
N232 C235 1.382 . S
N232 C237 1.363 . S
N233 C235 1.371 . S
N233 C236 1.372 . S
N234 C236 1.361 . S
N234 C237 1.377 . S
C235 N232 1.382 . S
C235 N233 1.371 . S
C235 C238 1.480 . S
C236 N233 1.372 . S
C236 N234 1.361 . S
C236 C244 1.457 . S
C237 N232 1.363 . S
C237 N234 1.377 . S
C237 C250 1.479 . S
C238 C235 1.480 . S
C238 C239 1.383 . S
C238 C243 1.385 . S
C239 H220 0.947 . S
C239 C238 1.383 . S
C239 C240 1.388 . S
C240 H221 0.946 . S
C240 C239 1.388 . S
C240 C241 1.384 . S
C241 C240 1.384 . S
C241 C242 1.377 . S
C242 H222 0.953 . S
C242 C241 1.377 . S
C242 C243 1.369 . S
C243 H223 0.945 . S
C243 C238 1.385 . S
C243 C242 1.369 . S
C244 C236 1.457 . S
C244 C245 1.372 . S
C244 C249 1.364 . S
C245 H224 0.952 . S
C245 C244 1.372 . S
C245 C246 1.389 . S
C246 H225 0.949 . S
C246 C245 1.389 . S
C246 C247 1.387 . S
C247 C246 1.387 . S
C247 C248 1.372 . S
C248 H226 0.950 . S
C248 C247 1.372 . S
C248 C249 1.379 . S
C249 H227 0.948 . S
C249 C244 1.364 . S
C249 C248 1.379 . S
C250 C219 1.383 . S
C250 C237 1.479 . S
C250 C251 1.398 . S
C251 C216 1.382 . S
C251 H228 0.951 . S
C251 C250 1.398 . S
C252 C253 1.384 . S
C252 H265 0.947 . S
C252 C287 1.382 . S
C253 C252 1.384 . S
C253 C254 1.378 . S
C254 C253 1.378 . S
C254 C255 1.378 . S
C254 H266 0.952 . S
C255 C254 1.378 . S
C255 H267 0.950 . S
C255 C286 1.383 . S
H256 C275 0.947 . S
H257 C276 0.946 . S
H258 C278 0.953 . S
H259 C279 0.945 . S
H260 C281 0.952 . S
H261 C282 0.949 . S
H262 C284 0.950 . S
H263 C285 0.948 . S
H264 C287 0.951 . S
H265 C252 0.947 . S
H266 C254 0.952 . S
H267 C255 0.950 . S
N268 C271 1.382 . S
N268 C273 1.363 . S
N269 C271 1.371 . S
N269 C272 1.372 . S
N270 C272 1.361 . S
N270 C273 1.377 . S
C271 N268 1.382 . S
C271 N269 1.371 . S
C271 C274 1.480 . S
C272 N269 1.372 . S
C272 N270 1.361 . S
C272 C280 1.457 . S
C273 N268 1.363 . S
C273 N270 1.377 . S
C273 C286 1.479 . S
C274 C271 1.480 . S
C274 C275 1.383 . S
C274 C279 1.385 . S
C275 H256 0.947 . S
C275 C274 1.383 . S
C275 C276 1.388 . S
C276 H257 0.946 . S
C276 C275 1.388 . S
C276 C277 1.384 . S
C277 C276 1.384 . S
C277 C278 1.377 . S
C278 H258 0.953 . S
C278 C277 1.377 . S
C278 C279 1.369 . S
C279 H259 0.945 . S
C279 C274 1.385 . S
C279 C278 1.369 . S
C280 C272 1.457 . S
C280 C281 1.372 . S
C280 C285 1.364 . S
C281 H260 0.952 . S
C281 C280 1.372 . S
C281 C282 1.389 . S
C282 H261 0.949 . S
C282 C281 1.389 . S
C282 C283 1.387 . S
C283 C282 1.387 . S
C283 C284 1.372 . S
C284 H262 0.950 . S
C284 C283 1.372 . S
C284 C285 1.379 . S
C285 H263 0.948 . S
C285 C280 1.364 . S
C285 C284 1.379 . S
C286 C255 1.383 . S
C286 C273 1.479 . S
C286 C287 1.398 . S
C287 C252 1.382 . S
C287 H264 0.951 . S
C287 C286 1.398 . S
Zn288 O294 1.969 1_545 S
Zn288 O295 1.965 1_545 S
Zn288 O299 2.024 . S
Zn288 O304 1.969 . S
Zn289 O296 1.969 . S
Zn289 O302 1.969 1_565 S
Zn289 O303 1.947 1_665 S
Zn289 O305 2.024 . S
C290 O291 1.229 . S
C290 O299 1.058 . S
O291 C290 1.229 . S
C292 O293 1.229 . S
C292 O305 1.058 . S
O293 C292 1.229 . S
O294 Zn288 1.969 1_565 S
O294 C297 1.267 . S
O295 Zn288 1.965 1_565 S
O295 C306 1.260 1_455 S
O296 Zn289 1.969 . S
O296 C306 1.258 . S
C297 O294 1.267 . S
C297 O298 1.228 . S
O298 C297 1.228 . S
O299 Zn288 2.024 . S
O299 C290 1.058 . S
C300 O301 1.228 . S
C300 O302 1.267 . S
O301 C300 1.228 . S
O302 Zn289 1.969 1_545 S
O302 C300 1.267 . S
O303 Zn289 1.947 1_445 S
O303 C307 1.283 . S
O304 Zn288 1.969 . S
O304 C307 1.258 . S
O305 Zn289 2.024 . S
O305 C292 1.058 . S
C306 O295 1.260 1_655 S
C306 O296 1.258 . S
C307 O303 1.283 . S
C307 O304 1.258 . S
Zn308 O314 1.969 . S
Zn308 O315 1.965 1_565 S
Zn308 O319 2.024 . S
Zn308 O324 1.969 1_556 S
Zn309 O316 1.969 . S
Zn309 O322 1.969 . S
Zn309 O323 1.965 1_545 S
Zn309 O325 2.024 . S
C310 O311 1.229 . S
C310 O319 1.058 . S
O311 C310 1.229 . S
C312 O313 1.229 . S
C312 O325 1.058 . S
O313 C312 1.229 . S
O314 Zn308 1.969 . S
O314 C317 1.267 . S
O315 Zn308 1.965 1_545 S
O315 C326 1.260 . S
O316 Zn309 1.969 . S
O316 C326 1.258 1_554 S
C317 O314 1.267 . S
C317 O318 1.228 . S
O318 C317 1.228 . S
O319 Zn308 2.024 . S
O319 C310 1.058 . S
C320 O321 1.228 . S
C320 O322 1.267 . S
O321 C320 1.228 . S
O322 Zn309 1.969 . S
O322 C320 1.267 . S
O323 Zn309 1.965 1_565 S
O323 C327 1.260 . S
O324 Zn308 1.969 1_554 S
O324 C327 1.258 . S
O325 Zn309 2.024 . S
O325 C312 1.058 . S
C326 O315 1.260 . S
C326 O316 1.258 1_556 S
C327 O323 1.260 . S
C327 O324 1.258 . S
Zn328 O334 1.969 . S
Zn328 O335 1.965 . S
Zn328 O339 2.024 . S
Zn328 O344 1.969 . S
Zn329 O336 1.969 . S
Zn329 O342 1.969 . S
Zn329 O343 1.965 . S
Zn329 O345 2.024 . S
C330 O331 1.229 . S
C330 O339 1.058 . S
O331 C330 1.229 . S
C332 O333 1.229 . S
C332 O345 1.058 . S
O333 C332 1.229 . S
O334 Zn328 1.969 . S
O334 C337 1.267 . S
O335 Zn328 1.965 . S
O335 C346 1.260 . S
O336 Zn329 1.969 . S
O336 C346 1.258 . S
C337 O334 1.267 . S
C337 O338 1.228 . S
O338 C337 1.228 . S
O339 Zn328 2.024 . S
O339 C330 1.058 . S
C340 O341 1.228 . S
C340 O342 1.267 . S
O341 C340 1.228 . S
O342 Zn329 1.969 . S
O342 C340 1.267 . S
O343 Zn329 1.965 . S
O343 C347 1.260 . S
O344 Zn328 1.969 . S
O344 C347 1.258 . S
O345 Zn329 2.024 . S
O345 C332 1.058 . S
C346 O335 1.260 . S
C346 O336 1.258 . S
C347 O343 1.260 . S
C347 O344 1.258 . S
Zn348 O354 1.969 . S
Zn348 O355 1.965 1_556 S
Zn348 O359 2.024 . S
Zn348 O364 1.969 1_655 S
Zn349 O356 1.969 . S
Zn349 O362 1.969 . S
Zn349 O363 1.965 1_554 S
Zn349 O365 2.024 . S
C350 O351 1.229 . S
C350 O359 1.058 . S
O351 C350 1.229 . S
C352 O353 1.229 . S
C352 O365 1.058 . S
O353 C352 1.229 . S
O354 Zn348 1.969 . S
O354 C357 1.267 . S
O355 Zn348 1.965 1_554 S
O355 C366 1.260 . S
O356 Zn349 1.969 . S
O356 C366 1.258 1_455 S
C357 O354 1.267 . S
C357 O358 1.228 . S
O358 C357 1.228 . S
O359 Zn348 2.024 . S
O359 C350 1.058 . S
C360 O361 1.228 . S
C360 O362 1.267 . S
O361 C360 1.228 . S
O362 Zn349 1.969 . S
O362 C360 1.267 . S
O363 Zn349 1.965 1_556 S
O363 C367 1.260 . S
O364 Zn348 1.969 1_455 S
O364 C367 1.258 . S
O365 Zn349 2.024 . S
O365 C352 1.058 . S
C366 O355 1.260 . S
C366 O356 1.258 1_655 S
C367 O363 1.260 . S
C367 O364 1.258 . S
H368 C374 0.930 . S
H369 C378 0.930 . S
H370 C383 0.929 . S
H371 C381 0.929 . S
H372 C376 0.929 . S
H373 C382 0.929 . S
C374 H368 0.930 . S
C374 C375 1.367 . S
C374 C382 1.378 . S
C375 C374 1.367 . S
C375 C383 1.433 . S
C376 H372 0.929 . S
C376 C378 1.378 . S
C376 C380 1.350 . S
C377 C380 1.463 . S
C377 C382 1.350 . S
C377 N385 1.427 . S
C378 H369 0.930 . S
C378 C376 1.378 . S
C378 C379 1.367 . S
C379 C378 1.367 . S
C379 C381 1.433 . S
C380 C376 1.350 . S
C380 C377 1.463 . S
C380 N384 1.427 . S
C381 H371 0.929 . S
C381 C379 1.433 . S
C381 N384 1.384 . S
C382 H373 0.929 . S
C382 C374 1.378 . S
C382 C377 1.350 . S
C383 H370 0.929 . S
C383 C375 1.433 . S
C383 N385 1.384 . S
N384 C380 1.427 . S
N384 C381 1.384 . S
N385 C377 1.427 . S
N385 C383 1.384 . S
H386 C392 0.930 . S
H387 C396 0.930 . S
H388 C401 0.929 . S
H389 C399 0.929 . S
H390 C394 0.929 . S
H391 C400 0.929 . S
C392 H386 0.930 . S
C392 C393 1.367 . S
C392 C400 1.378 . S
C393 C392 1.367 . S
C393 C401 1.433 . S
C394 H390 0.929 . S
C394 C396 1.378 . S
C394 C398 1.350 . S
C395 C398 1.463 . S
C395 C400 1.350 . S
C395 N403 1.427 . S
C396 H387 0.930 . S
C396 C394 1.378 . S
C396 C397 1.367 . S
C397 C396 1.367 . S
C397 C399 1.433 . S
C398 C394 1.350 . S
C398 C395 1.463 . S
C398 N402 1.427 . S
C399 H389 0.929 . S
C399 C397 1.433 . S
C399 N402 1.384 . S
C400 H391 0.929 . S
C400 C392 1.378 . S
C400 C395 1.350 . S
C401 H388 0.929 . S
C401 C393 1.433 . S
C401 N403 1.384 . S
N402 C398 1.427 . S
N402 C399 1.384 . S
N403 C395 1.427 . S
N403 C401 1.384 . S
H404 C410 0.930 . S
H405 C414 0.930 . S
H406 C419 0.929 . S
H407 C417 0.929 . S
H408 C412 0.929 . S
H409 C418 0.929 . S
C410 H404 0.930 . S
C410 C411 1.367 . S
C410 C418 1.378 . S
C411 C410 1.367 . S
C411 C419 1.433 . S
C412 H408 0.929 . S
C412 C414 1.378 . S
C412 C416 1.350 . S
C413 C416 1.463 . S
C413 C418 1.350 . S
C413 N421 1.427 . S
C414 H405 0.930 . S
C414 C412 1.378 . S
C414 C415 1.367 . S
C415 C414 1.367 . S
C415 C417 1.433 . S
C416 C412 1.350 . S
C416 C413 1.463 . S
C416 N420 1.427 . S
C417 H407 0.929 . S
C417 C415 1.433 . S
C417 N420 1.384 . S
C418 H409 0.929 . S
C418 C410 1.378 . S
C418 C413 1.350 . S
C419 H406 0.929 . S
C419 C411 1.433 . S
C419 N421 1.384 . S
N420 C416 1.427 . S
N420 C417 1.384 . S
N421 C413 1.427 . S
N421 C419 1.384 . S
H422 C428 0.930 . S
H423 C432 0.930 . S
H424 C437 0.929 . S
H425 C435 0.929 . S
H426 C430 0.929 . S
H427 C436 0.929 . S
C428 H422 0.930 . S
C428 C429 1.367 . S
C428 C436 1.378 . S
C429 C428 1.367 . S
C429 C437 1.433 . S
C430 H426 0.929 . S
C430 C432 1.378 . S
C430 C434 1.350 . S
C431 C434 1.463 . S
C431 C436 1.350 . S
C431 N439 1.427 . S
C432 H423 0.930 . S
C432 C430 1.378 . S
C432 C433 1.367 . S
C433 C432 1.367 . S
C433 C435 1.433 . S
C434 C430 1.350 . S
C434 C431 1.463 . S
C434 N438 1.427 . S
C435 H425 0.929 . S
C435 C433 1.433 . S
C435 N438 1.384 . S
C436 H427 0.929 . S
C436 C428 1.378 . S
C436 C431 1.350 . S
C437 H424 0.929 . S
C437 C429 1.433 . S
C437 N439 1.384 . S
N438 C434 1.427 . S
N438 C435 1.384 . S
N439 C431 1.427 . S
N439 C437 1.384 . S
H440 C446 0.930 . S
H441 C450 0.930 . S
H442 C455 0.929 . S
H443 C453 0.929 . S
H444 C448 0.929 . S
H445 C454 0.929 . S
C446 H440 0.930 . S
C446 C447 1.367 . S
C446 C454 1.378 . S
C447 C446 1.367 . S
C447 C455 1.433 . S
C448 H444 0.929 . S
C448 C450 1.378 . S
C448 C452 1.350 . S
C449 C452 1.463 . S
C449 C454 1.350 . S
C449 N457 1.427 . S
C450 H441 0.930 . S
C450 C448 1.378 . S
C450 C451 1.367 . S
C451 C450 1.367 . S
C451 C453 1.433 . S
C452 C448 1.350 . S
C452 C449 1.463 . S
C452 N456 1.427 . S
C453 H443 0.929 . S
C453 C451 1.433 . S
C453 N456 1.384 . S
C454 H445 0.929 . S
C454 C446 1.378 . S
C454 C449 1.350 . S
C455 H442 0.929 . S
C455 C447 1.433 . S
C455 N457 1.384 . S
N456 C452 1.427 . S
N456 C453 1.384 . S
N457 C449 1.427 . S
N457 C455 1.384 . S
H458 C464 0.930 . S
H459 C468 0.930 . S
H460 C473 0.929 . S
H461 C471 0.929 . S
H462 C466 0.929 . S
H463 C472 0.929 . S
C464 H458 0.930 . S
C464 C465 1.367 . S
C464 C472 1.378 . S
C465 C464 1.367 . S
C465 C473 1.433 . S
C466 H462 0.929 . S
C466 C468 1.378 . S
C466 C470 1.350 . S
C467 C470 1.463 . S
C467 C472 1.350 . S
C467 N475 1.427 . S
C468 H459 0.930 . S
C468 C466 1.378 . S
C468 C469 1.367 . S
C469 C468 1.367 . S
C469 C471 1.433 . S
C470 C466 1.350 . S
C470 C467 1.463 . S
C470 N474 1.427 . S
C471 H461 0.929 . S
C471 C469 1.433 . S
C471 N474 1.384 . S
C472 H463 0.929 . S
C472 C464 1.378 . S
C472 C467 1.350 . S
C473 H460 0.929 . S
C473 C465 1.433 . S
C473 N475 1.384 . S
N474 C470 1.427 . S
N474 C471 1.384 . S
N475 C467 1.427 . S
N475 C473 1.384 . S
H476 C482 0.930 . S
H477 C486 0.930 . S
H478 C491 0.929 . S
H479 C489 0.929 . S
H480 C484 0.929 . S
H481 C490 0.929 . S
C482 H476 0.930 . S
C482 C483 1.367 . S
C482 C490 1.378 . S
C483 C482 1.367 . S
C483 C491 1.433 . S
C484 H480 0.929 . S
C484 C486 1.378 . S
C484 C488 1.350 . S
C485 C488 1.463 . S
C485 C490 1.350 . S
C485 N493 1.427 . S
C486 H477 0.930 . S
C486 C484 1.378 . S
C486 C487 1.367 . S
C487 C486 1.367 . S
C487 C489 1.433 . S
C488 C484 1.350 . S
C488 C485 1.463 . S
C488 N492 1.427 . S
C489 H479 0.929 . S
C489 C487 1.433 . S
C489 N492 1.384 . S
C490 H481 0.929 . S
C490 C482 1.378 . S
C490 C485 1.350 . S
C491 H478 0.929 . S
C491 C483 1.433 . S
C491 N493 1.384 . S
N492 C488 1.427 . S
N492 C489 1.384 . S
N493 C485 1.427 . S
N493 C491 1.384 . S
H494 C500 0.930 . S
H495 C504 0.930 . S
H496 C509 0.929 . S
H497 C507 0.929 . S
H498 C502 0.929 . S
H499 C508 0.929 . S
C500 H494 0.930 . S
C500 C501 1.367 . S
C500 C508 1.378 . S
C501 C500 1.367 . S
C501 C509 1.433 . S
C502 H498 0.929 . S
C502 C504 1.378 . S
C502 C506 1.350 . S
C503 C506 1.463 . S
C503 C508 1.350 . S
C503 N511 1.427 . S
C504 H495 0.930 . S
C504 C502 1.378 . S
C504 C505 1.367 . S
C505 C504 1.367 . S
C505 C507 1.433 . S
C506 C502 1.350 . S
C506 C503 1.463 . S
C506 N510 1.427 . S
C507 H497 0.929 . S
C507 C505 1.433 . S
C507 N510 1.384 . S
C508 H499 0.929 . S
C508 C500 1.378 . S
C508 C503 1.350 . S
C509 H496 0.929 . S
C509 C501 1.433 . S
C509 N511 1.384 . S
N510 C506 1.427 . S
N510 C507 1.384 . S
N511 C503 1.427 . S
N511 C509 1.384 . S
H512 C518 0.930 . S
H513 C522 0.930 . S
H514 C527 0.929 . S
H515 C525 0.929 . S
H516 C520 0.929 . S
H517 C526 0.929 . S
C518 H512 0.930 . S
C518 C519 1.367 . S
C518 C526 1.378 . S
C519 C518 1.367 . S
C519 C527 1.433 . S
C520 H516 0.929 . S
C520 C522 1.378 . S
C520 C524 1.350 . S
C521 C524 1.463 . S
C521 C526 1.350 . S
C521 N529 1.427 . S
C522 H513 0.930 . S
C522 C520 1.378 . S
C522 C523 1.367 . S
C523 C522 1.367 . S
C523 C525 1.433 . S
C524 C520 1.350 . S
C524 C521 1.463 . S
C524 N528 1.427 . S
C525 H515 0.929 . S
C525 C523 1.433 . S
C525 N528 1.384 . S
C526 H517 0.929 . S
C526 C518 1.378 . S
C526 C521 1.350 . S
C527 H514 0.929 . S
C527 C519 1.433 . S
C527 N529 1.384 . S
N528 C524 1.427 . S
N528 C525 1.384 . S
N529 C521 1.427 . S
N529 C527 1.384 . S
H530 C536 0.930 . S
H531 C540 0.930 . S
H532 C545 0.929 . S
H533 C543 0.929 . S
H534 C538 0.929 . S
H535 C544 0.929 . S
C536 H530 0.930 . S
C536 C537 1.367 . S
C536 C544 1.378 . S
C537 C536 1.367 . S
C537 C545 1.433 . S
C538 H534 0.929 . S
C538 C540 1.378 . S
C538 C542 1.350 . S
C539 C542 1.463 . S
C539 C544 1.350 . S
C539 N547 1.427 . S
C540 H531 0.930 . S
C540 C538 1.378 . S
C540 C541 1.367 . S
C541 C540 1.367 . S
C541 C543 1.433 . S
C542 C538 1.350 . S
C542 C539 1.463 . S
C542 N546 1.427 . S
C543 H533 0.929 . S
C543 C541 1.433 . S
C543 N546 1.384 . S
C544 H535 0.929 . S
C544 C536 1.378 . S
C544 C539 1.350 . S
C545 H532 0.929 . S
C545 C537 1.433 . S
C545 N547 1.384 . S
N546 C542 1.427 . S
N546 C543 1.384 . S
N547 C539 1.427 . S
N547 C545 1.384 . S
H548 C554 0.930 . S
H549 C558 0.930 . S
H550 C563 0.929 . S
H551 C561 0.929 . S
H552 C556 0.929 . S
H553 C562 0.929 . S
C554 H548 0.930 . S
C554 C555 1.367 . S
C554 C562 1.378 . S
C555 C554 1.367 . S
C555 C563 1.433 . S
C556 H552 0.929 . S
C556 C558 1.378 . S
C556 C560 1.350 . S
C557 C560 1.463 . S
C557 C562 1.350 . S
C557 N565 1.427 . S
C558 H549 0.930 . S
C558 C556 1.378 . S
C558 C559 1.367 . S
C559 C558 1.367 . S
C559 C561 1.433 . S
C560 C556 1.350 . S
C560 C557 1.463 . S
C560 N564 1.427 . S
C561 H551 0.929 . S
C561 C559 1.433 . S
C561 N564 1.384 . S
C562 H553 0.929 . S
C562 C554 1.378 . S
C562 C557 1.350 . S
C563 H550 0.929 . S
C563 C555 1.433 . S
C563 N565 1.384 . S
N564 C560 1.427 . S
N564 C561 1.384 . S
N565 C557 1.427 . S
N565 C563 1.384 . S
H566 C572 0.930 . S
H567 C576 0.930 . S
H568 C581 0.929 . S
H569 C579 0.929 . S
H570 C574 0.929 . S
H571 C580 0.929 . S
C572 H566 0.930 . S
C572 C573 1.367 . S
C572 C580 1.378 . S
C573 C572 1.367 . S
C573 C581 1.433 . S
C574 H570 0.929 . S
C574 C576 1.378 . S
C574 C578 1.350 . S
C575 C578 1.463 . S
C575 C580 1.350 . S
C575 N583 1.427 . S
C576 H567 0.930 . S
C576 C574 1.378 . S
C576 C577 1.367 . S
C577 C576 1.367 . S
C577 C579 1.433 . S
C578 C574 1.350 . S
C578 C575 1.463 . S
C578 N582 1.427 . S
C579 H569 0.929 . S
C579 C577 1.433 . S
C579 N582 1.384 . S
C580 H571 0.929 . S
C580 C572 1.378 . S
C580 C575 1.350 . S
C581 H568 0.929 . S
C581 C573 1.433 . S
C581 N583 1.384 . S
N582 C578 1.427 . S
N582 C579 1.384 . S
N583 C575 1.427 . S
N583 C581 1.384 . S
H584 C590 0.930 . S
H585 C594 0.930 . S
H586 C599 0.929 . S
H587 C597 0.929 . S
H588 C592 0.929 . S
H589 C598 0.929 . S
C590 H584 0.930 . S
C590 C591 1.367 . S
C590 C598 1.378 . S
C591 C590 1.367 . S
C591 C599 1.433 . S
C592 H588 0.929 . S
C592 C594 1.378 . S
C592 C596 1.350 . S
C593 C596 1.463 . S
C593 C598 1.350 . S
C593 N601 1.427 . S
C594 H585 0.930 . S
C594 C592 1.378 . S
C594 C595 1.367 . S
C595 C594 1.367 . S
C595 C597 1.433 . S
C596 C592 1.350 . S
C596 C593 1.463 . S
C596 N600 1.427 . S
C597 H587 0.929 . S
C597 C595 1.433 . S
C597 N600 1.384 . S
C598 H589 0.929 . S
C598 C590 1.378 . S
C598 C593 1.350 . S
C599 H586 0.929 . S
C599 C591 1.433 . S
C599 N601 1.384 . S
N600 C596 1.427 . S
N600 C597 1.384 . S
N601 C593 1.427 . S
N601 C599 1.384 . S
H602 C608 0.930 . S
H603 C612 0.930 . S
H604 C617 0.929 . S
H605 C615 0.929 . S
H606 C610 0.929 . S
H607 C616 0.929 . S
C608 H602 0.930 . S
C608 C609 1.367 . S
C608 C616 1.378 . S
C609 C608 1.367 . S
C609 C617 1.433 . S
C610 H606 0.929 . S
C610 C612 1.378 . S
C610 C614 1.350 . S
C611 C614 1.463 . S
C611 C616 1.350 . S
C611 N619 1.427 . S
C612 H603 0.930 . S
C612 C610 1.378 . S
C612 C613 1.367 . S
C613 C612 1.367 . S
C613 C615 1.433 . S
C614 C610 1.350 . S
C614 C611 1.463 . S
C614 N618 1.427 . S
C615 H605 0.929 . S
C615 C613 1.433 . S
C615 N618 1.384 . S
C616 H607 0.929 . S
C616 C608 1.378 . S
C616 C611 1.350 . S
C617 H604 0.929 . S
C617 C609 1.433 . S
C617 N619 1.384 . S
N618 C614 1.427 . S
N618 C615 1.384 . S
N619 C611 1.427 . S
N619 C617 1.384 . S
H620 C626 0.930 . S
H621 C630 0.930 . S
H622 C635 0.929 . S
H623 C633 0.929 . S
H624 C628 0.929 . S
H625 C634 0.929 . S
C626 H620 0.930 . S
C626 C627 1.367 . S
C626 C634 1.378 . S
C627 C626 1.367 . S
C627 C635 1.433 . S
C628 H624 0.929 . S
C628 C630 1.378 . S
C628 C632 1.350 . S
C629 C632 1.463 . S
C629 C634 1.350 . S
C629 N637 1.427 . S
C630 H621 0.930 . S
C630 C628 1.378 . S
C630 C631 1.367 . S
C631 C630 1.367 . S
C631 C633 1.433 . S
C632 C628 1.350 . S
C632 C629 1.463 . S
C632 N636 1.427 . S
C633 H623 0.929 . S
C633 C631 1.433 . S
C633 N636 1.384 . S
C634 H625 0.929 . S
C634 C626 1.378 . S
C634 C629 1.350 . S
C635 H622 0.929 . S
C635 C627 1.433 . S
C635 N637 1.384 . S
N636 C632 1.427 . S
N636 C633 1.384 . S
N637 C629 1.427 . S
N637 C635 1.384 . S
H638 C644 0.930 . S
H639 C648 0.930 . S
H640 C653 0.929 . S
H641 C651 0.929 . S
H642 C646 0.929 . S
H643 C652 0.929 . S
C644 H638 0.930 . S
C644 C645 1.367 . S
C644 C652 1.378 . S
C645 C644 1.367 . S
C645 C653 1.433 . S
C646 H642 0.929 . S
C646 C648 1.378 . S
C646 C650 1.350 . S
C647 C650 1.463 . S
C647 C652 1.350 . S
C647 N655 1.427 . S
C648 H639 0.930 . S
C648 C646 1.378 . S
C648 C649 1.367 . S
C649 C648 1.367 . S
C649 C651 1.433 . S
C650 C646 1.350 . S
C650 C647 1.463 . S
C650 N654 1.427 . S
C651 H641 0.929 . S
C651 C649 1.433 . S
C651 N654 1.384 . S
C652 H643 0.929 . S
C652 C644 1.378 . S
C652 C647 1.350 . S
C653 H640 0.929 . S
C653 C645 1.433 . S
C653 N655 1.384 . S
N654 C650 1.427 . S
N654 C651 1.384 . S
N655 C647 1.427 . S
N655 C653 1.384 . S
H656 C662 0.930 . S
H657 C666 0.930 . S
H658 C671 0.929 . S
H659 C669 0.929 . S
H660 C664 0.929 . S
H661 C670 0.929 . S
C662 H656 0.930 . S
C662 C663 1.367 . S
C662 C670 1.378 . S
C663 C662 1.367 . S
C663 C671 1.433 . S
C664 H660 0.929 . S
C664 C666 1.378 . S
C664 C668 1.350 . S
C665 C668 1.463 . S
C665 C670 1.350 . S
C665 N673 1.427 . S
C666 H657 0.930 . S
C666 C664 1.378 . S
C666 C667 1.367 . S
C667 C666 1.367 . S
C667 C669 1.433 . S
C668 C664 1.350 . S
C668 C665 1.463 . S
C668 N672 1.427 . S
C669 H659 0.929 . S
C669 C667 1.433 . S
C669 N672 1.384 . S
C670 H661 0.929 . S
C670 C662 1.378 . S
C670 C665 1.350 . S
C671 H658 0.929 . S
C671 C663 1.433 . S
C671 N673 1.384 . S
N672 C668 1.427 . S
N672 C669 1.384 . S
N673 C665 1.427 . S
N673 C671 1.384 . S
H674 C680 0.930 . S
H675 C684 0.930 . S
H676 C689 0.929 . S
H677 C687 0.929 . S
H678 C682 0.929 . S
H679 C688 0.929 . S
C680 H674 0.930 . S
C680 C681 1.367 . S
C680 C688 1.378 . S
C681 C680 1.367 . S
C681 C689 1.433 . S
C682 H678 0.929 . S
C682 C684 1.378 . S
C682 C686 1.350 . S
C683 C686 1.463 . S
C683 C688 1.350 . S
C683 N691 1.427 . S
C684 H675 0.930 . S
C684 C682 1.378 . S
C684 C685 1.367 . S
C685 C684 1.367 . S
C685 C687 1.433 . S
C686 C682 1.350 . S
C686 C683 1.463 . S
C686 N690 1.427 . S
C687 H677 0.929 . S
C687 C685 1.433 . S
C687 N690 1.384 . S
C688 H679 0.929 . S
C688 C680 1.378 . S
C688 C683 1.350 . S
C689 H676 0.929 . S
C689 C681 1.433 . S
C689 N691 1.384 . S
N690 C686 1.427 . S
N690 C687 1.384 . S
N691 C683 1.427 . S
N691 C689 1.384 . S
H692 C698 0.930 . S
H693 C702 0.930 . S
H694 C707 0.929 . S
H695 C705 0.929 . S
H696 C700 0.929 . S
H697 C706 0.929 . S
C698 H692 0.930 . S
C698 C699 1.367 . S
C698 C706 1.378 . S
C699 C698 1.367 . S
C699 C707 1.433 . S
C700 H696 0.929 . S
C700 C702 1.378 . S
C700 C704 1.350 . S
C701 C704 1.463 . S
C701 C706 1.350 . S
C701 N709 1.427 . S
C702 H693 0.930 . S
C702 C700 1.378 . S
C702 C703 1.367 . S
C703 C702 1.367 . S
C703 C705 1.433 . S
C704 C700 1.350 . S
C704 C701 1.463 . S
C704 N708 1.427 . S
C705 H695 0.929 . S
C705 C703 1.433 . S
C705 N708 1.384 . S
C706 H697 0.929 . S
C706 C698 1.378 . S
C706 C701 1.350 . S
C707 H694 0.929 . S
C707 C699 1.433 . S
C707 N709 1.384 . S
N708 C704 1.427 . S
N708 C705 1.384 . S
N709 C701 1.427 . S
N709 C707 1.384 . S
H710 C716 0.930 . S
H711 C720 0.930 . S
H712 C725 0.929 . S
H713 C723 0.929 . S
H714 C718 0.929 . S
H715 C724 0.929 . S
C716 H710 0.930 . S
C716 C717 1.367 . S
C716 C724 1.378 . S
C717 C716 1.367 . S
C717 C725 1.433 . S
C718 H714 0.929 . S
C718 C720 1.378 . S
C718 C722 1.350 . S
C719 C722 1.463 . S
C719 C724 1.350 . S
C719 N727 1.427 . S
C720 H711 0.930 . S
C720 C718 1.378 . S
C720 C721 1.367 . S
C721 C720 1.367 . S
C721 C723 1.433 . S
C722 C718 1.350 . S
C722 C719 1.463 . S
C722 N726 1.427 . S
C723 H713 0.929 . S
C723 C721 1.433 . S
C723 N726 1.384 . S
C724 H715 0.929 . S
C724 C716 1.378 . S
C724 C719 1.350 . S
C725 H712 0.929 . S
C725 C717 1.433 . S
C725 N727 1.384 . S
N726 C722 1.427 . S
N726 C723 1.384 . S
N727 C719 1.427 . S
N727 C725 1.384 . S
H728 C734 0.930 . S
H729 C738 0.930 . S
H730 C743 0.929 . S
H731 C741 0.929 . S
H732 C736 0.929 . S
H733 C742 0.929 . S
C734 H728 0.930 . S
C734 C735 1.367 . S
C734 C742 1.378 . S
C735 C734 1.367 . S
C735 C743 1.433 . S
C736 H732 0.929 . S
C736 C738 1.378 . S
C736 C740 1.350 . S
C737 C740 1.463 . S
C737 C742 1.350 . S
C737 N745 1.427 . S
C738 H729 0.930 . S
C738 C736 1.378 . S
C738 C739 1.367 . S
C739 C738 1.367 . S
C739 C741 1.433 . S
C740 C736 1.350 . S
C740 C737 1.463 . S
C740 N744 1.427 . S
C741 H731 0.929 . S
C741 C739 1.433 . S
C741 N744 1.384 . S
C742 H733 0.929 . S
C742 C734 1.378 . S
C742 C737 1.350 . S
C743 H730 0.929 . S
C743 C735 1.433 . S
C743 N745 1.384 . S
N744 C740 1.427 . S
N744 C741 1.384 . S
N745 C737 1.427 . S
N745 C743 1.384 . S
H746 C752 0.930 . S
H747 C756 0.930 . S
H748 C761 0.929 . S
H749 C759 0.929 . S
H750 C754 0.929 . S
H751 C760 0.929 . S
C752 H746 0.930 . S
C752 C753 1.367 . S
C752 C760 1.378 . S
C753 C752 1.367 . S
C753 C761 1.433 . S
C754 H750 0.929 . S
C754 C756 1.378 . S
C754 C758 1.350 . S
C755 C758 1.463 . S
C755 C760 1.350 . S
C755 N763 1.427 . S
C756 H747 0.930 . S
C756 C754 1.378 . S
C756 C757 1.367 . S
C757 C756 1.367 . S
C757 C759 1.433 . S
C758 C754 1.350 . S
C758 C755 1.463 . S
C758 N762 1.427 . S
C759 H749 0.929 . S
C759 C757 1.433 . S
C759 N762 1.384 . S
C760 H751 0.929 . S
C760 C752 1.378 . S
C760 C755 1.350 . S
C761 H748 0.929 . S
C761 C753 1.433 . S
C761 N763 1.384 . S
N762 C758 1.427 . S
N762 C759 1.384 . S
N763 C755 1.427 . S
N763 C761 1.384 . S
H764 C770 0.930 . S
H765 C774 0.930 . S
H766 C779 0.929 . S
H767 C777 0.929 . S
H768 C772 0.929 . S
H769 C778 0.929 . S
C770 H764 0.930 . S
C770 C771 1.367 . S
C770 C778 1.378 . S
C771 C770 1.367 . S
C771 C779 1.433 . S
C772 H768 0.929 . S
C772 C774 1.378 . S
C772 C776 1.350 . S
C773 C776 1.463 . S
C773 C778 1.350 . S
C773 N781 1.427 . S
C774 H765 0.930 . S
C774 C772 1.378 . S
C774 C775 1.367 . S
C775 C774 1.367 . S
C775 C777 1.433 . S
C776 C772 1.350 . S
C776 C773 1.463 . S
C776 N780 1.427 . S
C777 H767 0.929 . S
C777 C775 1.433 . S
C777 N780 1.384 . S
C778 H769 0.929 . S
C778 C770 1.378 . S
C778 C773 1.350 . S
C779 H766 0.929 . S
C779 C771 1.433 . S
C779 N781 1.384 . S
N780 C776 1.427 . S
N780 C777 1.384 . S
N781 C773 1.427 . S
N781 C779 1.384 . S
H782 C788 0.930 . S
H783 C792 0.930 . S
H784 C797 0.929 . S
H785 C795 0.929 . S
H786 C790 0.929 . S
H787 C796 0.929 . S
C788 H782 0.930 . S
C788 C789 1.367 . S
C788 C796 1.378 . S
C789 C788 1.367 . S
C789 C797 1.433 . S
C790 H786 0.929 . S
C790 C792 1.378 . S
C790 C794 1.350 . S
C791 C794 1.463 . S
C791 C796 1.350 . S
C791 N799 1.427 . S
C792 H783 0.930 . S
C792 C790 1.378 . S
C792 C793 1.367 . S
C793 C792 1.367 . S
C793 C795 1.433 . S
C794 C790 1.350 . S
C794 C791 1.463 . S
C794 N798 1.427 . S
C795 H785 0.929 . S
C795 C793 1.433 . S
C795 N798 1.384 . S
C796 H787 0.929 . S
C796 C788 1.378 . S
C796 C791 1.350 . S
C797 H784 0.929 . S
C797 C789 1.433 . S
C797 N799 1.384 . S
N798 C794 1.427 . S
N798 C795 1.384 . S
N799 C791 1.427 . S
N799 C797 1.384 . S
C375 C1 1.528 . S
C379 C307 1.487 . S
C393 C67 1.307 . S
C397 C310 1.269 . S
C415 C346 1.737 . S
C411 C97 1.765 . S
C429 C133 1.662 . S
C433 C366 1.651 . S
C451 C320 1.688 . S
C447 C25 1.728 . S
C469 C297 1.505 . S
C465 C37 1.532 . S
C487 C350 1.563 . S
C483 C103 1.678 . S
C505 C330 1.397 . S
C501 C109 1.467 . S
C519 C31 1.380 . S
C523 C360 1.324 . S
C541 C326 1.604 . S
C537 C73 1.626 . S
C555 C139 1.654 . S
C559 C292 1.611 . S
C573 C61 1.333 . S
C577 C340 1.310 . S
C595 C306 1.494 . S
C591 C175 1.508 . S
C609 C181 1.290 . S
C613 C312 1.239 . S
C627 C247 1.775 . S
C631 C347 1.754 . S
C645 C277 1.650 . S
C649 C367 1.649 . S
C663 C145 1.708 . S
C667 C317 1.689 . S
C685 C300 1.511 . S
C681 C211 1.537 . S
C703 C352 1.537 . S
C699 C217 1.652 . S
C721 C332 1.414 . S
C717 C283 1.475 . S
C735 C169 1.347 . S
C739 C357 1.309 . S
C757 C327 1.615 . S
C753 C241 1.621 . S
C775 C290 1.580 . S
C771 C253 1.646 . S
C789 C205 1.340 . S
C793 C337 1.315 . S
