# Generated by pormake.
# Topology anh, (6,3)-cn, num edge types: 1
# Building blocks:
#     Node 0, Type 0, BuildingBlock: BETFAJ_clean_sbu_0, # of connection points: 6
#     Node 1, Type 0, BuildingBlock: BETFAJ_clean_sbu_0, # of connection points: 6
#     Node 2, Type 0, BuildingBlock: BETFAJ_clean_sbu_0, # of connection points: 6
#     Node 3, Type 1, BuildingBlock: BETDIP_clean_linker_0, # of connection points: 3
#     Node 4, Type 1, BuildingBlock: BETDIP_clean_linker_0, # of connection points: 3
#     Node 5, Type 1, BuildingBlock: BETDIP_clean_linker_0, # of connection points: 3
#     Node 6, Type 1, BuildingBlock: BETDIP_clean_linker_0, # of connection points: 3
#     Node 7, Type 1, BuildingBlock: BETDIP_clean_linker_0, # of connection points: 3
#     Node 8, Type 1, BuildingBlock: BETDIP_clean_linker_0, # of connection points: 3
#     Edge 9, Type (0, 1), BuildingBlock: AJUNOK_clean_linker_0, # of connection points: 2
#     Edge 10, Type (0, 1), BuildingBlock: AJUNOK_clean_linker_0, # of connection points: 2
#     Edge 11, Type (0, 1), BuildingBlock: AJUNOK_clean_linker_0, # of connection points: 2
#     Edge 12, Type (0, 1), BuildingBlock: AJUNOK_clean_linker_0, # of connection points: 2
#     Edge 13, Type (0, 1), BuildingBlock: AJUNOK_clean_linker_0, # of connection points: 2
#     Edge 14, Type (0, 1), BuildingBlock: AJUNOK_clean_linker_0, # of connection points: 2
#     Edge 15, Type (0, 1), BuildingBlock: AJUNOK_clean_linker_0, # of connection points: 2
#     Edge 16, Type (0, 1), BuildingBlock: AJUNOK_clean_linker_0, # of connection points: 2
#     Edge 17, Type (0, 1), BuildingBlock: AJUNOK_clean_linker_0, # of connection points: 2
#     Edge 18, Type (0, 1), BuildingBlock: AJUNOK_clean_linker_0, # of connection points: 2
#     Edge 19, Type (0, 1), BuildingBlock: AJUNOK_clean_linker_0, # of connection points: 2
#     Edge 20, Type (0, 1), BuildingBlock: AJUNOK_clean_linker_0, # of connection points: 2
#     Edge 21, Type (0, 1), BuildingBlock: AJUNOK_clean_linker_0, # of connection points: 2
#     Edge 22, Type (0, 1), BuildingBlock: AJUNOK_clean_linker_0, # of connection points: 2
#     Edge 23, Type (0, 1), BuildingBlock: AJUNOK_clean_linker_0, # of connection points: 2
#     Edge 24, Type (0, 1), BuildingBlock: AJUNOK_clean_linker_0, # of connection points: 2
#     Edge 25, Type (0, 1), BuildingBlock: AJUNOK_clean_linker_0, # of connection points: 2
#     Edge 26, Type (0, 1), BuildingBlock: AJUNOK_clean_linker_0, # of connection points: 2
# Relax obj value: 0.220
# Max RMSD: 0.208
# Mean RMSD: 0.136
data_MOF--net-anh--node1-BETFAJ_clean_sbu_0--node2-BETDIP_clean_linker_0--edge1-AJUNOK_clean_linker_0
_symmetry_space_group_name_H-M    P1
_symmetry_Int_Tables_number       1
_symmetry_cell_setting            triclinic
loop_
_symmetry_equiv_pos_as_xyz
'x, y, z'
_cell_length_a     23.348974
_cell_length_b     29.733327
_cell_length_c     36.553831
_cell_angle_alpha  95.033713
_cell_angle_beta   88.381066
_cell_angle_gamma 132.58052
loop_
_atom_site_label
_atom_site_type_symbol
_atom_site_fract_x
_atom_site_fract_y
_atom_site_fract_z
_atom_type_partial_charge
Sm0 Sm 0.2306 0.61473 0.14012 0.0
Sm1 Sm 0.12727 0.63378 0.16554 0.0
C2 C 0.30448 0.58463 0.10743 0.0
C3 C 0.3265 0.55073 0.1159 0.0
C4 C 0.39521 0.56892 0.10198 0.0
C5 C 0.42025 0.53993 0.111 0.0
C6 C 0.37713 0.49232 0.13429 0.0
C7 C 0.30791 0.47386 0.1482 0.0
C8 C 0.28304 0.50334 0.13932 0.0
C9 C 0.23583 0.63315 0.21557 0.0
C10 C 0.30858 0.75537 0.15262 0.0
C11 C 1.03926 0.65072 0.19656 0.0
C12 C 0.9541 0.60284 0.20032 0.0
C13 C 0.90475 0.60134 0.17799 0.0
C14 C 0.82753 0.54671 0.17051 0.0
C15 C 0.7986 0.49313 0.18554 0.0
C16 C 0.84448 0.49667 0.21171 0.0
C17 C 0.92187 0.55112 0.21901 0.0
C18 C 0.11795 0.60627 0.09077 0.0
C19 C 1.046 0.49206 0.15567 0.0
O20 O 0.33958 0.63576 0.12807 0.0
O21 O 0.2305 0.55311 0.10094 0.0
O22 O 0.17505 0.60098 0.19514 0.0
O23 O 0.29546 0.65375 0.19645 0.0
O24 O 0.30971 0.7177 0.13134 0.0
O25 O 0.24811 0.73281 0.17297 0.0
O26 O 1.08199 0.64671 0.21571 0.0
O27 O 1.06127 0.66263 0.16274 0.0
O28 O 0.18029 0.64412 0.11003 0.0
O29 O 1.05767 0.58235 0.11032 0.0
O30 O 1.04207 0.53113 0.17199 0.0
O31 O 1.11001 0.5125 0.13887 0.0
H32 H 0.42956 0.60563 0.08406 0.0
H33 H 0.47246 0.55374 0.09891 0.0
H34 H 0.27322 0.43669 0.16576 0.0
H35 H 0.23015 0.48926 0.15066 0.0
H36 H 0.92784 0.64056 0.16346 0.0
H37 H 0.79244 0.54497 0.15058 0.0
H38 H 0.82306 0.45587 0.22372 0.0
H39 H 0.95798 0.55065 0.23661 0.0
Sm40 Sm 0.73692 0.09545 0.47074 0.0
Sm41 Sm 0.62234 0.10816 0.4629 0.0
C42 C 0.80955 0.06108 0.49096 0.0
C43 C 0.78559 1.00451 0.50349 0.0
C44 C 0.77128 0.99288 0.54067 0.0
C45 C 0.74678 0.93872 0.55214 0.0
C46 C 0.73587 0.89495 0.52671 0.0
C47 C 0.75161 0.90706 0.48971 0.0
C48 C 0.77632 0.96128 0.47823 0.0
C49 C 0.71356 0.10517 0.39974 0.0
C50 C 0.54757 0.97063 0.46093 0.0
C51 C 0.54913 0.14434 0.44853 0.0
C52 C 0.56193 0.19844 0.46339 0.0
C53 C 0.5589 0.23179 0.43996 0.0
C54 C 0.57563 0.28525 0.45382 0.0
C55 C 0.59528 0.30597 0.4914 0.0
C56 C 0.59809 0.27226 0.51468 0.0
C57 C 0.58208 0.21936 0.50083 0.0
C58 C 0.64502 0.09706 0.53345 0.0
C59 C 0.8133 0.23454 0.468 0.0
O60 O 0.79927 0.09176 0.51335 0.0
O61 O 0.79218 0.05841 0.45666 0.0
O62 O 0.66022 0.07278 0.42192 0.0
O63 O 0.78097 0.13057 0.4139 0.0
O64 O 0.61581 0.9964 0.47614 0.0
O65 O 0.53881 1.00483 0.44636 0.0
O66 O 0.6039 0.15569 0.42816 0.0
O67 O 0.52413 0.10355 0.47151 0.0
O68 O 0.69861 0.13059 0.51165 0.0
O69 O 0.57763 0.0707 0.51909 0.0
O70 O 0.74073 0.20809 0.46044 0.0
O71 O 0.82906 0.20152 0.47654 0.0
H72 H 0.77878 0.02548 0.56099 0.0
H73 H 0.73699 0.93134 0.58101 0.0
H74 H 0.74383 0.87418 0.46953 0.0
H75 H 0.78757 0.96909 0.44946 0.0
H76 H 0.54473 0.21698 0.41088 0.0
H77 H 0.5745 0.31088 0.43504 0.0
H78 H 0.61249 0.28671 0.54378 0.0
H79 H 0.58611 0.19511 0.51946 0.0
Sm80 Sm 0.67529 0.58134 0.85359 0.0
Sm81 Sm 0.55619 0.44465 0.84627 0.0
C82 C 0.75727 0.69814 0.84374 0.0
C83 C 0.74225 0.7354 0.83083 0.0
C84 C 0.77861 0.76679 0.79941 0.0
C85 C 0.76282 0.79987 0.78542 0.0
C86 C 0.71048 0.80255 0.80262 0.0
C87 C 0.67559 0.7726 0.83466 0.0
C88 C 0.69095 0.73901 0.84855 0.0
C89 C 0.63941 0.52823 0.91814 0.0
C90 C 0.48253 0.50934 0.85341 0.0
C91 C 0.48093 0.32803 0.85168 0.0
C92 C 0.49723 0.28935 0.83819 0.0
C93 C 0.50049 0.25719 0.86271 0.0
C94 C 0.51995 0.22308 0.85046 0.0
C95 C 0.53613 0.22038 0.81341 0.0
C96 C 0.53259 0.25242 0.78896 0.0
C97 C 0.51382 0.28677 0.8012 0.0
C98 C 0.59042 0.49406 0.78049 0.0
C99 C 0.75111 0.51852 0.85037 0.0
O100 O 0.74844 0.65922 0.81887 0.0
O101 O 0.73126 0.67594 0.87562 0.0
O102 O 0.59164 0.5126 0.89306 0.0
O103 O 0.71011 0.57646 0.91075 0.0
O104 O 0.55624 0.55961 0.84761 0.0
O105 O 0.46715 0.45798 0.85815 0.0
O106 O 0.52883 0.37153 0.87762 0.0
O107 O 0.46261 0.34607 0.82684 0.0
O108 O 0.63989 0.51278 0.80571 0.0
O109 O 0.52106 0.44576 0.7888 0.0
O110 O 0.6761 0.46619 0.85 0.0
O111 O 0.76729 0.57094 0.84988 0.0
H112 H 0.81865 0.76506 0.78534 0.0
H113 H 0.79138 0.82325 0.76098 0.0
H114 H 0.63493 0.77389 0.84839 0.0
H115 H 0.66183 0.71524 0.8728 0.0
H116 H 0.48854 0.25885 0.89141 0.0
H117 H 0.52157 0.19834 0.86981 0.0
H118 H 0.54544 0.25157 0.76032 0.0
H119 H 0.51309 0.31177 0.78168 0.0
H120 H 0.62689 0.06167 0.13576 0.0
H121 H 0.75989 0.17409 0.2357 0.0
H122 H 0.55853 0.9825 0.23936 0.0
H123 H 0.73707 0.23285 0.19992 0.0
C124 C 0.77301 0.23531 0.17902 0.0
C125 C 0.63694 0.06632 0.16515 0.0
C126 C 0.58528 1.01459 0.18551 0.0
C127 C 0.69938 0.12482 0.18341 0.0
C128 C 0.71112 0.12996 0.22166 0.0
C129 C 0.66174 0.0787 0.24186 0.0
C130 C 0.59865 0.02173 0.22364 0.0
N131 N 0.74981 0.17869 0.16392 0.0
H132 H 0.66174 0.56129 0.52347 0.0
H133 H 0.65882 0.62833 0.63235 0.0
H134 H 0.63895 0.47351 0.61767 0.0
H135 H 0.59742 0.6495 0.59735 0.0
C136 C 0.63931 0.67198 0.57593 0.0
C137 C 0.65857 0.5585 0.55293 0.0
C138 C 0.65053 0.51255 0.56782 0.0
C139 C 0.66086 0.60014 0.57589 0.0
C140 C 0.65656 0.59634 0.61415 0.0
C141 C 0.64944 0.55108 0.62913 0.0
C142 C 0.64672 0.50956 0.60599 0.0
N143 N 0.66839 0.64578 0.55998 0.0
H144 H 1.04736 0.49772 0.82741 0.0
H145 H 0.17403 0.54318 0.92951 0.0
H146 H 0.99474 0.54794 0.92873 0.0
H147 H 0.27647 0.5801 0.89063 0.0
C148 C 0.24669 0.53841 0.87239 0.0
C149 C 1.05831 0.51171 0.8566 0.0
C150 C 1.01186 0.5225 0.87567 0.0
C151 C 0.11999 0.5202 0.87576 0.0
C152 C 0.13092 0.53791 0.91379 0.0
C153 C 1.0867 0.54828 0.93245 0.0
C154 C 1.02863 0.54048 0.91346 0.0
N155 N 0.1684 0.50928 0.85839 0.0
H156 H 0.2458 0.65944 0.48231 0.0
H157 H 0.14107 0.54492 0.37961 0.0
H158 H 0.33056 0.73938 0.3793 0.0
H159 H 1.02915 0.50576 0.41971 0.0
C160 C 1.05095 0.49437 0.43931 0.0
C161 C 0.24335 0.65426 0.45255 0.0
C162 C 0.2958 0.70664 0.43284 0.0
C163 C 0.18557 0.59535 0.43341 0.0
C164 C 0.18329 0.58974 0.39464 0.0
C165 C 0.23658 0.64127 0.37511 0.0
C166 C 0.29128 0.69919 0.39441 0.0
N167 N 0.13015 0.54194 0.45275 0.0
H168 H 0.62326 0.04884 0.79089 0.0
H169 H 0.6788 1.0109 0.68585 0.0
H170 H 0.63418 0.12933 0.69547 0.0
H171 H 0.61943 0.92148 0.70967 0.0
C172 C 0.64284 0.9357 0.7378 0.0
C173 C 0.63432 0.05595 0.76203 0.0
C174 C 0.627 0.09319 0.7458 0.0
C175 C 0.6516 0.02498 0.74061 0.0
C176 C 0.66416 0.03334 0.70284 0.0
C177 C 0.65829 0.07119 0.68664 0.0
C178 C 0.64031 0.10113 0.70826 0.0
N179 N 0.6552 0.98539 0.75749 0.0
H180 H 0.44947 0.30382 0.13058 0.0
H181 H 0.54292 0.31343 0.02497 0.0
H182 H 0.52923 0.44661 0.0632 0.0
H183 H 0.49445 0.2134 0.13116 0.0
C184 C 0.52321 0.25568 0.11876 0.0
C185 C 0.47579 0.32653 0.10571 0.0
C186 C 0.48766 0.37817 0.10006 0.0
C187 C 0.49725 0.30377 0.07896 0.0
C188 C 0.52785 0.33162 0.04595 0.0
C189 C 0.54098 0.38413 0.04077 0.0
C190 C 0.52148 0.40725 0.06794 0.0
N191 N 0.49046 0.25415 0.0859 0.0
C192 C 0.3491 0.39497 0.12896 0.0
C193 C 0.40095 0.45822 0.13999 0.0
C194 C 0.37675 0.36566 0.12124 0.0
C195 C 0.45676 0.39893 0.12437 0.0
H196 H 0.28845 0.36957 0.12239 0.0
H197 H 0.33676 0.31885 0.10863 0.0
S198 S 0.61265 0.56097 0.16121 0.0
N199 N 0.53301 0.54977 0.16094 0.0
N200 N 0.58494 0.49462 0.14569 0.0
C201 C 0.50721 0.45974 0.14017 0.0
C202 C 0.47923 0.48952 0.14814 0.0
C203 C 0.85753 0.33322 0.44978 0.0
C204 C 0.87694 0.30236 0.46433 0.0
C205 C 0.91448 0.39523 0.44309 0.0
C206 C 0.99409 0.43045 0.45101 0.0
H207 H 0.79757 0.30902 0.44248 0.0
H208 H 0.89574 0.41565 0.43096 0.0
S209 S 1.07763 0.37402 0.49094 0.0
N210 N 0.98301 0.31341 0.48751 0.0
N211 N 1.08981 0.43043 0.47533 0.0
C212 C 1.01493 0.40132 0.46662 0.0
C213 C 0.95657 0.33735 0.47313 0.0
C214 C 0.69916 0.88132 0.80749 0.0
C215 C 0.69092 0.83514 0.78637 0.0
C216 C 0.68359 0.91395 0.79192 0.0
C217 C 0.65836 0.90096 0.75478 0.0
H218 H 0.71916 0.89306 0.83606 0.0
H219 H 0.69167 0.9496 0.80909 0.0
S220 S 0.62307 0.78168 0.6885 0.0
N221 N 0.65284 0.77644 0.72697 0.0
N222 N 0.62337 0.83721 0.69777 0.0
C223 C 0.64846 0.85404 0.73369 0.0
C224 C 0.66479 0.82129 0.74943 0.0
C225 C 0.66551 0.38891 0.19018 0.0
C226 C 0.72814 0.4325 0.16877 0.0
C227 C 0.59983 0.33064 0.17407 0.0
C228 C 0.59545 0.31456 0.13626 0.0
H229 H 0.66703 0.40024 0.21933 0.0
H230 H 0.55149 0.29864 0.19101 0.0
S231 S 0.74964 0.40852 0.06991 0.0
N232 N 0.78519 0.45317 0.10889 0.0
N233 N 0.66267 0.34369 0.07894 0.0
C234 C 0.6593 0.35666 0.1151 0.0
C235 C 0.72546 0.41573 0.13129 0.0
C236 C 0.49305 0.86271 0.46292 0.0
C237 C 0.48043 0.90248 0.45972 0.0
C238 C 0.43134 0.79828 0.4578 0.0
C239 C 0.3543 0.77099 0.45023 0.0
H240 H 0.55159 0.88141 0.46747 0.0
H241 H 0.44471 0.76977 0.45761 0.0
S242 S 0.28792 0.85334 0.44322 0.0
N243 N 0.38285 0.90861 0.45152 0.0
N244 N 0.26816 0.78839 0.44226 0.0
C245 C 0.3403 0.80999 0.44925 0.0
C246 C 0.40286 0.87536 0.45395 0.0
C247 C 0.51561 0.14235 0.76795 0.0
C248 C 0.55564 0.18375 0.79953 0.0
C249 C 0.53726 0.1115 0.75185 0.0
C250 C 0.60004 0.12086 0.76657 0.0
H251 H 0.46788 0.13453 0.75517 0.0
H252 H 0.50555 0.08093 0.72712 0.0
S253 S 0.72329 0.2238 0.84928 0.0
N254 N 0.66018 0.23169 0.84545 0.0
N255 N 0.70102 0.17351 0.81501 0.0
C256 C 0.63905 0.16053 0.79884 0.0
C257 C 0.61686 0.19206 0.81535 0.0
C258 C 0.74843 0.81774 0.52808 0.0
C259 C 0.7091 0.83708 0.53878 0.0
C260 C 0.72521 0.76393 0.53974 0.0
C261 C 0.6618 0.72753 0.56256 0.0
H262 H 0.79842 0.84498 0.51106 0.0
H263 H 0.75801 0.75144 0.53123 0.0
S264 S 0.53532 0.75506 0.59571 0.0
N265 N 0.6006 0.8134 0.57156 0.0
N266 N 0.55778 0.71285 0.59396 0.0
C267 C 0.6212 0.74574 0.57293 0.0
C268 C 0.64461 0.80035 0.56095 0.0
C269 C 0.80453 0.46458 0.8566 0.0
C270 C 0.81844 0.51845 0.85212 0.0
C271 C 0.86601 0.46473 0.86072 0.0
C272 C 0.9466 0.5184 0.85977 0.0
H273 H 0.74505 0.4216 0.85824 0.0
H274 H 0.84996 0.42235 0.86633 0.0
S275 S 1.01838 0.67256 0.84877 0.0
N276 N 0.92281 0.62775 0.84687 0.0
N277 N 1.03485 0.62758 0.85439 0.0
C278 C 0.96109 0.57215 0.85469 0.0
C279 C 0.89882 0.57225 0.85079 0.0
C280 C 0.4516 0.84789 0.14464 0.0
C281 C 0.37731 0.82353 0.1554 0.0
C282 C 0.51864 0.91107 0.15158 0.0
C283 C 0.51396 0.95259 0.16904 0.0
H284 H 0.45881 0.81753 0.13244 0.0
H285 H 0.57499 0.92689 0.14509 0.0
S286 S 0.3336 0.91464 0.1991 0.0
N287 N 0.30354 0.84819 0.18178 0.0
N288 N 0.42872 0.96573 0.19457 0.0
C289 C 0.43981 0.92952 0.17801 0.0
C290 C 0.37184 0.86548 0.17123 0.0
C291 C 0.67768 0.40496 0.53175 0.0
C292 C 0.61338 0.3626 0.50687 0.0
C293 C 0.69133 0.45501 0.55012 0.0
C294 C 0.64181 0.46511 0.544 0.0
H295 H 0.71685 0.39859 0.53775 0.0
H296 H 0.73992 0.48525 0.56998 0.0
S297 S 0.46649 0.36903 0.48126 0.0
N298 N 0.50029 0.33488 0.4768 0.0
N299 N 0.52719 0.4299 0.51088 0.0
C300 C 0.5792 0.42475 0.51818 0.0
C301 C 0.56474 0.37332 0.49968 0.0
C302 C 0.43847 0.57015 0.85812 0.0
C303 C 0.41799 0.51276 0.85541 0.0
C304 C 0.38255 0.57623 0.86155 0.0
C305 C 0.30056 0.52566 0.86152 0.0
H306 H 0.49942 0.61184 0.85859 0.0
H307 H 0.40462 0.62225 0.86498 0.0
S308 S 0.21162 0.36363 0.85457 0.0
N309 N 0.30582 0.40291 0.85277 0.0
N310 N 0.20283 0.41455 0.85831 0.0
C311 C 0.27845 0.46762 0.858 0.0
C312 C 0.33591 0.46128 0.85517 0.0
C313 C 0.90792 0.40676 0.17256 0.0
C314 C 0.97648 0.42464 0.15765 0.0
C315 C 0.84276 0.34542 0.17777 0.0
C316 C 0.84159 0.29799 0.16803 0.0
H317 H 0.90448 0.44065 0.18104 0.0
H318 H 0.79284 0.33523 0.19027 0.0
S319 S 1.0035 0.31794 0.12619 0.0
N320 N 1.03756 0.3883 0.13183 0.0
N321 N 0.91425 0.27259 0.14141 0.0
C322 C 0.90825 0.31418 0.15183 0.0
C323 C 0.97565 0.37741 0.14669 0.0
C324 C 1.10278 0.54351 0.03523 0.0
C325 C 1.11404 0.59411 0.05059 0.0
C326 C 1.09609 0.52988 -0.00307 0.0
C327 C 1.09957 0.56607 0.97282 0.0
H328 H 1.09835 0.51398 0.05295 0.0
H329 H 1.08612 0.48987 0.98614 0.0
S330 S 0.1313 0.70499 -9e-05 0.0
N331 N 0.13067 0.68143 0.03934 0.0
N332 N 0.11789 0.65604 0.96739 0.0
C333 C 1.11197 0.61735 0.98809 0.0
C334 C 0.11927 0.63132 0.027 0.0
C335 C 0.69933 0.13806 0.34307 0.0
C336 C 0.69867 0.09711 0.35991 0.0
C337 C 0.68771 0.13204 0.30481 0.0
C338 C 0.67501 0.08479 0.28227 0.0
H339 H 0.70907 0.175 0.35955 0.0
H340 H 0.68788 0.16419 0.29284 0.0
S341 S 0.67125 0.96746 0.31376 0.0
N342 N 0.68608 1.00892 0.35188 0.0
N343 N 0.66517 0.99766 0.27997 0.0
C344 C 0.67479 0.04384 0.29909 0.0
C345 C 0.6865 0.05004 0.33795 0.0
C346 C 0.54752 0.48919 0.71764 0.0
C347 C 0.60904 0.51452 0.74306 0.0
C348 C 0.56162 0.50316 0.68104 0.0
C349 C 0.63766 0.54304 0.66864 0.0
H350 H 0.4877 0.45724 0.72583 0.0
H351 H 0.51259 0.48143 0.66206 0.0
S352 S 0.81935 0.62398 0.72403 0.0
N353 N 0.74941 0.58351 0.75334 0.0
N354 N 0.77546 0.60952 0.6842 0.0
C355 C 0.69994 0.57019 0.69375 0.0
C356 C 0.68574 0.55609 0.73114 0.0
C357 C 0.71542 0.13942 0.59495 0.0
C358 C 0.65599 0.08878 0.57093 0.0
C359 C 0.71826 0.13306 0.63234 0.0
C360 C 0.66325 0.07558 0.64644 0.0
H361 H 0.75712 0.18465 0.58527 0.0
H362 H 0.76214 0.17359 0.65059 0.0
S363 S 0.50209 0.92795 0.59359 0.0
N364 N 0.54466 0.97889 0.56301 0.0
N365 N 0.5516 0.96663 0.63291 0.0
C366 C 0.60678 0.02411 0.6221 0.0
C367 C 0.60275 0.03082 0.58438 0.0
C368 C 0.53869 0.43739 0.95204 0.0
C369 C 0.61771 0.48977 0.94832 0.0
C370 C 0.515 0.40017 0.98053 0.0
C371 C 0.56938 0.41398 0.00633 0.0
H372 H 0.49433 0.42562 0.93326 0.0
H373 H 0.45332 0.36195 0.98344 0.0
S374 S 0.78294 0.54422 0.00863 0.0
N375 N 0.75069 0.55206 0.97231 0.0
N376 N 0.70521 0.48242 0.02655 0.0
C377 C 0.64857 0.46511 0.00261 0.0
C378 C 0.673 0.503 0.97342 0.0
C379 C 0.16721 0.60527 0.27495 0.0
C380 C 0.23634 0.63406 0.25611 0.0
C381 C 0.16694 0.60603 0.31344 0.0
C382 C 0.23582 0.63574 0.33434 0.0
H383 H 1.11307 0.58248 0.25992 0.0
H384 H 1.11295 0.58462 0.32699 0.0
S385 S 0.431 0.71433 0.29823 0.0
N386 N 0.37482 0.69101 0.26135 0.0
N387 N 0.37377 0.69143 0.33336 0.0
C388 C 0.30477 0.6633 0.31576 0.0
C389 C 0.30519 0.66278 0.27674 0.0
loop_
_geom_bond_atom_site_label_1
_geom_bond_atom_site_label_2
_geom_bond_distance
_geom_bond_site_symmetry_2
_ccdc_geom_bond_type
Sm0 C2 2.846 . S
Sm0 O20 2.543 . S
Sm0 O21 2.450 . S
Sm0 O22 2.681 . S
Sm0 O23 2.464 . S
Sm0 O24 2.396 . S
Sm0 O28 2.386 . S
Sm0 O31 2.408 1_455 S
Sm1 C11 2.846 1_455 S
Sm1 O22 2.386 . S
Sm1 O25 2.408 . S
Sm1 O26 2.543 1_455 S
Sm1 O27 2.450 1_455 S
Sm1 O28 2.681 . S
Sm1 O29 2.464 . S
Sm1 O30 2.396 1_455 S
C2 Sm0 2.846 . S
C2 C3 1.506 . S
C2 O20 1.261 . S
C2 O21 1.242 . S
C3 C2 1.506 . S
C3 C4 1.358 . S
C3 C8 1.382 . S
C4 C3 1.358 . S
C4 C5 1.385 . S
C4 H32 0.930 . S
C5 C4 1.385 . S
C5 C6 1.395 . S
C5 H33 0.929 . S
C6 C5 1.395 . S
C6 C7 1.335 . S
C7 C6 1.335 . S
C7 C8 1.398 . S
C7 H34 0.930 . S
C8 C3 1.382 . S
C8 C7 1.398 . S
C8 H35 0.929 . S
C9 O22 1.271 . S
C9 O23 1.251 . S
C10 O24 1.252 . S
C10 O25 1.272 . S
C11 Sm1 2.846 1_655 S
C11 C12 1.506 . S
C11 O26 1.261 . S
C11 O27 1.242 . S
C12 C11 1.506 . S
C12 C13 1.358 . S
C12 C17 1.382 . S
C13 C12 1.358 . S
C13 C14 1.385 . S
C13 H36 0.930 . S
C14 C13 1.385 . S
C14 C15 1.395 . S
C14 H37 0.929 . S
C15 C14 1.395 . S
C15 C16 1.335 . S
C16 C15 1.335 . S
C16 C17 1.398 . S
C16 H38 0.930 . S
C17 C12 1.382 . S
C17 C16 1.398 . S
C17 H39 0.929 . S
C18 O28 1.271 . S
C18 O29 1.251 . S
C19 O30 1.252 . S
C19 O31 1.272 . S
O20 Sm0 2.543 . S
O20 C2 1.261 . S
O21 Sm0 2.450 . S
O21 C2 1.242 . S
O22 Sm0 2.681 . S
O22 Sm1 2.386 . S
O22 C9 1.271 . S
O23 Sm0 2.464 . S
O23 C9 1.251 . S
O24 Sm0 2.396 . S
O24 C10 1.252 . S
O25 Sm1 2.408 . S
O25 C10 1.272 . S
O26 Sm1 2.543 1_655 S
O26 C11 1.261 . S
O27 Sm1 2.450 1_655 S
O27 C11 1.242 . S
O28 Sm0 2.386 . S
O28 Sm1 2.681 . S
O28 C18 1.271 . S
O29 Sm1 2.464 . S
O29 C18 1.251 . S
O30 Sm1 2.396 1_655 S
O30 C19 1.252 . S
O31 Sm0 2.408 1_655 S
O31 C19 1.272 . S
H32 C4 0.930 . S
H33 C5 0.929 . S
H34 C7 0.930 . S
H35 C8 0.929 . S
H36 C13 0.930 . S
H37 C14 0.929 . S
H38 C16 0.930 . S
H39 C17 0.929 . S
Sm40 C42 2.846 1_545 S
Sm40 O60 2.543 1_545 S
Sm40 O61 2.450 1_545 S
Sm40 O62 2.681 . S
Sm40 O63 2.464 . S
Sm40 O64 2.396 1_545 S
Sm40 O68 2.386 . S
Sm40 O71 2.408 . S
Sm41 C51 2.846 . S
Sm41 O62 2.386 . S
Sm41 O65 2.408 1_545 S
Sm41 O66 2.543 . S
Sm41 O67 2.450 . S
Sm41 O68 2.681 . S
Sm41 O69 2.464 . S
Sm41 O70 2.396 . S
C42 Sm40 2.846 1_565 S
C42 C43 1.506 . S
C42 O60 1.261 . S
C42 O61 1.242 . S
C43 C42 1.506 . S
C43 C44 1.358 . S
C43 C48 1.382 . S
C44 C43 1.358 . S
C44 C45 1.385 . S
C44 H72 0.930 . S
C45 C44 1.385 . S
C45 C46 1.395 . S
C45 H73 0.929 . S
C46 C45 1.395 . S
C46 C47 1.335 . S
C47 C46 1.335 . S
C47 C48 1.398 . S
C47 H74 0.930 . S
C48 C43 1.382 . S
C48 C47 1.398 . S
C48 H75 0.929 . S
C49 O62 1.271 . S
C49 O63 1.251 . S
C50 O64 1.252 . S
C50 O65 1.272 . S
C51 Sm41 2.846 . S
C51 C52 1.506 . S
C51 O66 1.261 . S
C51 O67 1.242 . S
C52 C51 1.506 . S
C52 C53 1.358 . S
C52 C57 1.382 . S
C53 C52 1.358 . S
C53 C54 1.385 . S
C53 H76 0.930 . S
C54 C53 1.385 . S
C54 C55 1.395 . S
C54 H77 0.929 . S
C55 C54 1.395 . S
C55 C56 1.335 . S
C56 C55 1.335 . S
C56 C57 1.398 . S
C56 H78 0.930 . S
C57 C52 1.382 . S
C57 C56 1.398 . S
C57 H79 0.929 . S
C58 O68 1.271 . S
C58 O69 1.251 . S
C59 O70 1.252 . S
C59 O71 1.272 . S
O60 Sm40 2.543 1_565 S
O60 C42 1.261 . S
O61 Sm40 2.450 1_565 S
O61 C42 1.242 . S
O62 Sm40 2.681 . S
O62 Sm41 2.386 . S
O62 C49 1.271 . S
O63 Sm40 2.464 . S
O63 C49 1.251 . S
O64 Sm40 2.396 1_565 S
O64 C50 1.252 . S
O65 Sm41 2.408 1_565 S
O65 C50 1.272 . S
O66 Sm41 2.543 . S
O66 C51 1.261 . S
O67 Sm41 2.450 . S
O67 C51 1.242 . S
O68 Sm40 2.386 . S
O68 Sm41 2.681 . S
O68 C58 1.271 . S
O69 Sm41 2.464 . S
O69 C58 1.251 . S
O70 Sm41 2.396 . S
O70 C59 1.252 . S
O71 Sm40 2.408 . S
O71 C59 1.272 . S
H72 C44 0.930 . S
H73 C45 0.929 . S
H74 C47 0.930 . S
H75 C48 0.929 . S
H76 C53 0.930 . S
H77 C54 0.929 . S
H78 C56 0.930 . S
H79 C57 0.929 . S
Sm80 C82 2.846 . S
Sm80 O100 2.543 . S
Sm80 O101 2.450 . S
Sm80 O102 2.681 . S
Sm80 O103 2.464 . S
Sm80 O104 2.396 . S
Sm80 O108 2.386 . S
Sm80 O111 2.408 . S
Sm81 C91 2.846 . S
Sm81 O102 2.386 . S
Sm81 O105 2.408 . S
Sm81 O106 2.543 . S
Sm81 O107 2.450 . S
Sm81 O108 2.681 . S
Sm81 O109 2.464 . S
Sm81 O110 2.396 . S
C82 Sm80 2.846 . S
C82 C83 1.506 . S
C82 O100 1.261 . S
C82 O101 1.242 . S
C83 C82 1.506 . S
C83 C84 1.358 . S
C83 C88 1.382 . S
C84 C83 1.358 . S
C84 C85 1.385 . S
C84 H112 0.930 . S
C85 C84 1.385 . S
C85 C86 1.395 . S
C85 H113 0.929 . S
C86 C85 1.395 . S
C86 C87 1.335 . S
C87 C86 1.335 . S
C87 C88 1.398 . S
C87 H114 0.930 . S
C88 C83 1.382 . S
C88 C87 1.398 . S
C88 H115 0.929 . S
C89 O102 1.271 . S
C89 O103 1.251 . S
C90 O104 1.252 . S
C90 O105 1.272 . S
C91 Sm81 2.846 . S
C91 C92 1.506 . S
C91 O106 1.261 . S
C91 O107 1.242 . S
C92 C91 1.506 . S
C92 C93 1.358 . S
C92 C97 1.382 . S
C93 C92 1.358 . S
C93 C94 1.385 . S
C93 H116 0.930 . S
C94 C93 1.385 . S
C94 C95 1.395 . S
C94 H117 0.929 . S
C95 C94 1.395 . S
C95 C96 1.335 . S
C96 C95 1.335 . S
C96 C97 1.398 . S
C96 H118 0.930 . S
C97 C92 1.382 . S
C97 C96 1.398 . S
C97 H119 0.929 . S
C98 O108 1.271 . S
C98 O109 1.251 . S
C99 O110 1.252 . S
C99 O111 1.272 . S
O100 Sm80 2.543 . S
O100 C82 1.261 . S
O101 Sm80 2.450 . S
O101 C82 1.242 . S
O102 Sm80 2.681 . S
O102 Sm81 2.386 . S
O102 C89 1.271 . S
O103 Sm80 2.464 . S
O103 C89 1.251 . S
O104 Sm80 2.396 . S
O104 C90 1.252 . S
O105 Sm81 2.408 . S
O105 C90 1.272 . S
O106 Sm81 2.543 . S
O106 C91 1.261 . S
O107 Sm81 2.450 . S
O107 C91 1.242 . S
O108 Sm80 2.386 . S
O108 Sm81 2.681 . S
O108 C98 1.271 . S
O109 Sm81 2.464 . S
O109 C98 1.251 . S
O110 Sm81 2.396 . S
O110 C99 1.252 . S
O111 Sm80 2.408 . S
O111 C99 1.272 . S
H112 C84 0.930 . S
H113 C85 0.929 . S
H114 C87 0.930 . S
H115 C88 0.929 . S
H116 C93 0.930 . S
H117 C94 0.929 . S
H118 C96 0.930 . S
H119 C97 0.929 . S
H120 C125 0.930 . S
H121 C128 0.930 . S
H122 C130 0.930 . S
H123 C124 1.016 . S
C124 H123 1.016 . S
C124 N131 1.286 . S
C125 H120 0.930 . S
C125 C126 1.397 1_545 S
C125 C127 1.361 . S
C126 C125 1.397 1_565 S
C126 C130 1.390 . S
C127 C125 1.361 . S
C127 C128 1.393 . S
C127 N131 1.413 . S
C128 H121 0.930 . S
C128 C127 1.393 . S
C128 C129 1.399 . S
C129 C128 1.399 . S
C129 C130 1.381 1_545 S
C130 H122 0.930 . S
C130 C126 1.390 . S
C130 C129 1.381 1_565 S
N131 C124 1.286 . S
N131 C127 1.413 . S
H132 C137 0.930 . S
H133 C140 0.930 . S
H134 C142 0.930 . S
H135 C136 1.016 . S
C136 H135 1.016 . S
C136 N143 1.286 . S
C137 H132 0.930 . S
C137 C138 1.397 . S
C137 C139 1.361 . S
C138 C137 1.397 . S
C138 C142 1.390 . S
C139 C137 1.361 . S
C139 C140 1.393 . S
C139 N143 1.413 . S
C140 H133 0.930 . S
C140 C139 1.393 . S
C140 C141 1.399 . S
C141 C140 1.399 . S
C141 C142 1.381 . S
C142 H134 0.930 . S
C142 C138 1.390 . S
C142 C141 1.381 . S
N143 C136 1.286 . S
N143 C139 1.413 . S
H144 C149 0.930 1_655 S
H145 C152 0.930 . S
H146 C154 0.930 . S
H147 C148 1.016 . S
C148 H147 1.016 . S
C148 N155 1.286 . S
C149 H144 0.930 1_455 S
C149 C150 1.397 1_455 S
C149 C151 1.361 . S
C150 C149 1.397 1_655 S
C150 C154 1.390 . S
C151 C149 1.361 . S
C151 C152 1.393 . S
C151 N155 1.413 . S
C152 H145 0.930 . S
C152 C151 1.393 . S
C152 C153 1.399 . S
C153 C152 1.399 . S
C153 C154 1.381 1_455 S
C154 H146 0.930 . S
C154 C150 1.390 . S
C154 C153 1.381 1_655 S
N155 C148 1.286 . S
N155 C151 1.413 . S
H156 C161 0.930 . S
H157 C164 0.930 . S
H158 C166 0.930 . S
H159 C160 1.016 . S
C160 H159 1.016 . S
C160 N167 1.286 . S
C161 H156 0.930 . S
C161 C162 1.397 . S
C161 C163 1.361 1_455 S
C162 C161 1.397 . S
C162 C166 1.390 . S
C163 C161 1.361 1_655 S
C163 C164 1.393 . S
C163 N167 1.413 . S
C164 H157 0.930 . S
C164 C163 1.393 . S
C164 C165 1.399 1_655 S
C165 C164 1.399 1_455 S
C165 C166 1.381 . S
C166 H158 0.930 . S
C166 C162 1.390 . S
C166 C165 1.381 . S
N167 C160 1.286 . S
N167 C163 1.413 . S
H168 C173 0.930 . S
H169 C176 0.930 1_565 S
H170 C178 0.930 . S
H171 C172 1.016 . S
C172 H171 1.016 . S
C172 N179 1.286 . S
C173 H168 0.930 . S
C173 C174 1.397 . S
C173 C175 1.361 . S
C174 C173 1.397 . S
C174 C178 1.390 . S
C175 C173 1.361 . S
C175 C176 1.393 . S
C175 N179 1.413 1_545 S
C176 H169 0.930 1_545 S
C176 C175 1.393 . S
C176 C177 1.399 . S
C177 C176 1.399 . S
C177 C178 1.381 . S
C178 H170 0.930 . S
C178 C174 1.390 . S
C178 C177 1.381 . S
N179 C172 1.286 . S
N179 C175 1.413 1_565 S
H180 C185 0.930 . S
H181 C188 0.930 . S
H182 C190 0.930 . S
H183 C184 1.016 . S
C184 H183 1.016 . S
C184 N191 1.286 . S
C185 H180 0.930 . S
C185 C186 1.397 . S
C185 C187 1.361 . S
C186 C185 1.397 . S
C186 C190 1.390 . S
C187 C185 1.361 . S
C187 C188 1.393 . S
C187 N191 1.413 . S
C188 H181 0.930 . S
C188 C187 1.393 . S
C188 C189 1.399 . S
C189 C188 1.399 . S
C189 C190 1.381 . S
C190 H182 0.930 . S
C190 C186 1.390 . S
C190 C189 1.381 . S
N191 C184 1.286 . S
N191 C187 1.413 . S
C192 C193 1.369 . S
C192 C194 1.419 . S
C192 H196 0.930 . S
C193 C192 1.369 . S
C193 C202 1.429 . S
C194 C192 1.419 . S
C194 C195 1.363 . S
C194 H197 0.929 . S
C195 C194 1.363 . S
C195 C201 1.428 . S
H196 C192 0.930 . S
H197 C194 0.929 . S
S198 N199 1.613 . S
S198 N200 1.610 . S
N199 S198 1.613 . S
N199 C202 1.350 . S
N200 S198 1.610 . S
N200 C201 1.351 . S
C201 C195 1.428 . S
C201 N200 1.351 . S
C201 C202 1.434 . S
C202 C193 1.429 . S
C202 N199 1.350 . S
C202 C201 1.434 . S
C203 C204 1.369 . S
C203 C205 1.419 . S
C203 H207 0.930 . S
C204 C203 1.369 . S
C204 C213 1.429 . S
C205 C203 1.419 . S
C205 C206 1.363 . S
C205 H208 0.929 . S
C206 C205 1.363 . S
C206 C212 1.428 . S
H207 C203 0.930 . S
H208 C205 0.929 . S
S209 N210 1.613 . S
S209 N211 1.610 . S
N210 S209 1.613 . S
N210 C213 1.350 . S
N211 S209 1.610 . S
N211 C212 1.351 . S
C212 C206 1.428 . S
C212 N211 1.351 . S
C212 C213 1.434 . S
C213 C204 1.429 . S
C213 N210 1.350 . S
C213 C212 1.434 . S
C214 C215 1.369 . S
C214 C216 1.419 . S
C214 H218 0.930 . S
C215 C214 1.369 . S
C215 C224 1.429 . S
C216 C214 1.419 . S
C216 C217 1.363 . S
C216 H219 0.929 . S
C217 C216 1.363 . S
C217 C223 1.428 . S
H218 C214 0.930 . S
H219 C216 0.929 . S
S220 N221 1.613 . S
S220 N222 1.610 . S
N221 S220 1.613 . S
N221 C224 1.350 . S
N222 S220 1.610 . S
N222 C223 1.351 . S
C223 C217 1.428 . S
C223 N222 1.351 . S
C223 C224 1.434 . S
C224 C215 1.429 . S
C224 N221 1.350 . S
C224 C223 1.434 . S
C225 C226 1.369 . S
C225 C227 1.419 . S
C225 H229 0.930 . S
C226 C225 1.369 . S
C226 C235 1.429 . S
C227 C225 1.419 . S
C227 C228 1.363 . S
C227 H230 0.929 . S
C228 C227 1.363 . S
C228 C234 1.428 . S
H229 C225 0.930 . S
H230 C227 0.929 . S
S231 N232 1.613 . S
S231 N233 1.610 . S
N232 S231 1.613 . S
N232 C235 1.350 . S
N233 S231 1.610 . S
N233 C234 1.351 . S
C234 C228 1.428 . S
C234 N233 1.351 . S
C234 C235 1.434 . S
C235 C226 1.429 . S
C235 N232 1.350 . S
C235 C234 1.434 . S
C236 C237 1.369 . S
C236 C238 1.419 . S
C236 H240 0.930 . S
C237 C236 1.369 . S
C237 C246 1.429 . S
C238 C236 1.419 . S
C238 C239 1.363 . S
C238 H241 0.929 . S
C239 C238 1.363 . S
C239 C245 1.428 . S
H240 C236 0.930 . S
H241 C238 0.929 . S
S242 N243 1.613 . S
S242 N244 1.610 . S
N243 S242 1.613 . S
N243 C246 1.350 . S
N244 S242 1.610 . S
N244 C245 1.351 . S
C245 C239 1.428 . S
C245 N244 1.351 . S
C245 C246 1.434 . S
C246 C237 1.429 . S
C246 N243 1.350 . S
C246 C245 1.434 . S
C247 C248 1.369 . S
C247 C249 1.419 . S
C247 H251 0.930 . S
C248 C247 1.369 . S
C248 C257 1.429 . S
C249 C247 1.419 . S
C249 C250 1.363 . S
C249 H252 0.929 . S
C250 C249 1.363 . S
C250 C256 1.428 . S
H251 C247 0.930 . S
H252 C249 0.929 . S
S253 N254 1.613 . S
S253 N255 1.610 . S
N254 S253 1.613 . S
N254 C257 1.350 . S
N255 S253 1.610 . S
N255 C256 1.351 . S
C256 C250 1.428 . S
C256 N255 1.351 . S
C256 C257 1.434 . S
C257 C248 1.429 . S
C257 N254 1.350 . S
C257 C256 1.434 . S
C258 C259 1.369 . S
C258 C260 1.419 . S
C258 H262 0.930 . S
C259 C258 1.369 . S
C259 C268 1.429 . S
C260 C258 1.419 . S
C260 C261 1.363 . S
C260 H263 0.929 . S
C261 C260 1.363 . S
C261 C267 1.428 . S
H262 C258 0.930 . S
H263 C260 0.929 . S
S264 N265 1.613 . S
S264 N266 1.610 . S
N265 S264 1.613 . S
N265 C268 1.350 . S
N266 S264 1.610 . S
N266 C267 1.351 . S
C267 C261 1.428 . S
C267 N266 1.351 . S
C267 C268 1.434 . S
C268 C259 1.429 . S
C268 N265 1.350 . S
C268 C267 1.434 . S
C269 C270 1.369 . S
C269 C271 1.419 . S
C269 H273 0.930 . S
C270 C269 1.369 . S
C270 C279 1.429 . S
C271 C269 1.419 . S
C271 C272 1.363 . S
C271 H274 0.929 . S
C272 C271 1.363 . S
C272 C278 1.428 . S
H273 C269 0.930 . S
H274 C271 0.929 . S
S275 N276 1.613 . S
S275 N277 1.610 . S
N276 S275 1.613 . S
N276 C279 1.350 . S
N277 S275 1.610 . S
N277 C278 1.351 . S
C278 C272 1.428 . S
C278 N277 1.351 . S
C278 C279 1.434 . S
C279 C270 1.429 . S
C279 N276 1.350 . S
C279 C278 1.434 . S
C280 C281 1.369 . S
C280 C282 1.419 . S
C280 H284 0.930 . S
C281 C280 1.369 . S
C281 C290 1.429 . S
C282 C280 1.419 . S
C282 C283 1.363 . S
C282 H285 0.929 . S
C283 C282 1.363 . S
C283 C289 1.428 . S
H284 C280 0.930 . S
H285 C282 0.929 . S
S286 N287 1.613 . S
S286 N288 1.610 . S
N287 S286 1.613 . S
N287 C290 1.350 . S
N288 S286 1.610 . S
N288 C289 1.351 . S
C289 C283 1.428 . S
C289 N288 1.351 . S
C289 C290 1.434 . S
C290 C281 1.429 . S
C290 N287 1.350 . S
C290 C289 1.434 . S
C291 C292 1.369 . S
C291 C293 1.419 . S
C291 H295 0.930 . S
C292 C291 1.369 . S
C292 C301 1.429 . S
C293 C291 1.419 . S
C293 C294 1.363 . S
C293 H296 0.929 . S
C294 C293 1.363 . S
C294 C300 1.428 . S
H295 C291 0.930 . S
H296 C293 0.929 . S
S297 N298 1.613 . S
S297 N299 1.610 . S
N298 S297 1.613 . S
N298 C301 1.350 . S
N299 S297 1.610 . S
N299 C300 1.351 . S
C300 C294 1.428 . S
C300 N299 1.351 . S
C300 C301 1.434 . S
C301 C292 1.429 . S
C301 N298 1.350 . S
C301 C300 1.434 . S
C302 C303 1.369 . S
C302 C304 1.419 . S
C302 H306 0.930 . S
C303 C302 1.369 . S
C303 C312 1.429 . S
C304 C302 1.419 . S
C304 C305 1.363 . S
C304 H307 0.929 . S
C305 C304 1.363 . S
C305 C311 1.428 . S
H306 C302 0.930 . S
H307 C304 0.929 . S
S308 N309 1.613 . S
S308 N310 1.610 . S
N309 S308 1.613 . S
N309 C312 1.350 . S
N310 S308 1.610 . S
N310 C311 1.351 . S
C311 C305 1.428 . S
C311 N310 1.351 . S
C311 C312 1.434 . S
C312 C303 1.429 . S
C312 N309 1.350 . S
C312 C311 1.434 . S
C313 C314 1.369 . S
C313 C315 1.419 . S
C313 H317 0.930 . S
C314 C313 1.369 . S
C314 C323 1.429 . S
C315 C313 1.419 . S
C315 C316 1.363 . S
C315 H318 0.929 . S
C316 C315 1.363 . S
C316 C322 1.428 . S
H317 C313 0.930 . S
H318 C315 0.929 . S
S319 N320 1.613 . S
S319 N321 1.610 . S
N320 S319 1.613 . S
N320 C323 1.350 . S
N321 S319 1.610 . S
N321 C322 1.351 . S
C322 C316 1.428 . S
C322 N321 1.351 . S
C322 C323 1.434 . S
C323 C314 1.429 . S
C323 N320 1.350 . S
C323 C322 1.434 . S
C324 C325 1.369 . S
C324 C326 1.419 1_554 S
C324 H328 0.930 . S
C325 C324 1.369 . S
C325 C334 1.429 . S
C326 C324 1.419 1_556 S
C326 C327 1.363 . S
C326 H329 0.929 . S
C327 C326 1.363 . S
C327 C333 1.428 1_556 S
H328 C324 0.930 . S
H329 C326 0.929 . S
S330 N331 1.613 . S
S330 N332 1.610 1_554 S
N331 S330 1.613 . S
N331 C334 1.350 . S
N332 S330 1.610 1_556 S
N332 C333 1.351 1_556 S
C333 C327 1.428 1_554 S
C333 N332 1.351 1_554 S
C333 C334 1.434 . S
C334 C325 1.429 . S
C334 N331 1.350 . S
C334 C333 1.434 . S
C335 C336 1.369 . S
C335 C337 1.419 . S
C335 H339 0.930 . S
C336 C335 1.369 . S
C336 C345 1.429 1_545 S
C337 C335 1.419 . S
C337 C338 1.363 . S
C337 H340 0.929 . S
C338 C337 1.363 . S
C338 C344 1.428 1_545 S
H339 C335 0.930 . S
H340 C337 0.929 . S
S341 N342 1.613 . S
S341 N343 1.610 . S
N342 S341 1.613 . S
N342 C345 1.350 . S
N343 S341 1.610 . S
N343 C344 1.351 . S
C344 C338 1.428 1_565 S
C344 N343 1.351 . S
C344 C345 1.434 . S
C345 C336 1.429 1_565 S
C345 N342 1.350 . S
C345 C344 1.434 . S
C346 C347 1.369 . S
C346 C348 1.419 . S
C346 H350 0.930 . S
C347 C346 1.369 . S
C347 C356 1.429 . S
C348 C346 1.419 . S
C348 C349 1.363 . S
C348 H351 0.929 . S
C349 C348 1.363 . S
C349 C355 1.428 . S
H350 C346 0.930 . S
H351 C348 0.929 . S
S352 N353 1.613 . S
S352 N354 1.610 . S
N353 S352 1.613 . S
N353 C356 1.350 . S
N354 S352 1.610 . S
N354 C355 1.351 . S
C355 C349 1.428 . S
C355 N354 1.351 . S
C355 C356 1.434 . S
C356 C347 1.429 . S
C356 N353 1.350 . S
C356 C355 1.434 . S
C357 C358 1.369 . S
C357 C359 1.419 . S
C357 H361 0.930 . S
C358 C357 1.369 . S
C358 C367 1.429 1_545 S
C359 C357 1.419 . S
C359 C360 1.363 . S
C359 H362 0.929 . S
C360 C359 1.363 . S
C360 C366 1.428 1_545 S
H361 C357 0.930 . S
H362 C359 0.929 . S
S363 N364 1.613 . S
S363 N365 1.610 . S
N364 S363 1.613 . S
N364 C367 1.350 . S
N365 S363 1.610 . S
N365 C366 1.351 . S
C366 C360 1.428 1_565 S
C366 N365 1.351 . S
C366 C367 1.434 . S
C367 C358 1.429 1_565 S
C367 N364 1.350 . S
C367 C366 1.434 . S
C368 C369 1.369 . S
C368 C370 1.419 . S
C368 H372 0.930 . S
C369 C368 1.369 . S
C369 C378 1.429 . S
C370 C368 1.419 . S
C370 C371 1.363 1_556 S
C370 H373 0.929 1_556 S
C371 C370 1.363 1_554 S
C371 C377 1.428 . S
H372 C368 0.930 . S
H373 C370 0.929 1_554 S
S374 N375 1.613 . S
S374 N376 1.610 1_556 S
N375 S374 1.613 . S
N375 C378 1.350 . S
N376 S374 1.610 1_554 S
N376 C377 1.351 . S
C377 C371 1.428 . S
C377 N376 1.351 . S
C377 C378 1.434 1_554 S
C378 C369 1.429 . S
C378 N375 1.350 . S
C378 C377 1.434 1_556 S
C379 C380 1.369 . S
C379 C381 1.419 . S
C379 H383 0.930 1_455 S
C380 C379 1.369 . S
C380 C389 1.429 . S
C381 C379 1.419 . S
C381 C382 1.363 . S
C381 H384 0.929 1_455 S
C382 C381 1.363 . S
C382 C388 1.428 . S
H383 C379 0.930 1_655 S
H384 C381 0.929 1_655 S
S385 N386 1.613 . S
S385 N387 1.610 . S
N386 S385 1.613 . S
N386 C389 1.350 . S
N387 S385 1.610 . S
N387 C388 1.351 . S
C388 C382 1.428 . S
C388 N387 1.351 . S
C388 C389 1.434 . S
C389 C380 1.429 . S
C389 N386 1.350 . S
C389 C388 1.434 . S
C193 C6 1.158 . S
C195 C186 1.260 . S
C204 C59 1.968 . S
C206 C160 1.897 . S
C215 C86 1.379 . S
C217 C172 1.419 . S
C226 C15 0.621 . S
C228 C184 0.484 . S
C239 C162 1.873 . S
C237 C50 1.916 . S
C250 C174 1.283 . S
C248 C95 1.254 . S
C259 C46 1.366 . S
C261 C136 1.390 . S
C270 C99 3.324 . S
C272 C150 3.300 . S
C281 C10 1.936 . S
C283 C126 1.925 . S
C294 C138 1.268 . S
C292 C55 1.236 . S
C305 C148 2.807 . S
C303 C90 2.922 . S
C314 C19 1.982 . S
C316 C124 1.930 . S
C327 C153 1.819 . S
C325 C18 1.709 . S
C336 C49 1.383 . S
C338 C129 1.458 . S
C347 C98 1.508 . S
C349 C141 1.526 . S
C360 C177 1.514 . S
C358 C58 1.503 . S
C371 C189 1.183 . S
C369 C89 1.158 . S
C380 C9 1.383 . S
C382 C165 1.423 . S
