# Generated by pormake.
# Topology anh, (6,3)-cn, num edge types: 1
# Building blocks:
#     Node 0, Type 0, BuildingBlock: PAMTOO_clean_sbu_0, # of connection points: 6
#     Node 1, Type 0, BuildingBlock: PAMTOO_clean_sbu_0, # of connection points: 6
#     Node 2, Type 0, BuildingBlock: PAMTOO_clean_sbu_0, # of connection points: 6
#     Node 3, Type 1, BuildingBlock: VETTIZ_charged_linker_0, # of connection points: 3
#     Node 4, Type 1, BuildingBlock: VETTIZ_charged_linker_0, # of connection points: 3
#     Node 5, Type 1, BuildingBlock: VETTIZ_charged_linker_0, # of connection points: 3
#     Node 6, Type 1, BuildingBlock: VETTIZ_charged_linker_0, # of connection points: 3
#     Node 7, Type 1, BuildingBlock: VETTIZ_charged_linker_0, # of connection points: 3
#     Node 8, Type 1, BuildingBlock: VETTIZ_charged_linker_0, # of connection points: 3
#     Edge 9, Type (0, 1), BuildingBlock: ZUJKAS_clean_linker_0, # of connection points: 2
#     Edge 10, Type (0, 1), BuildingBlock: ZUJKAS_clean_linker_0, # of connection points: 2
#     Edge 11, Type (0, 1), BuildingBlock: ZUJKAS_clean_linker_0, # of connection points: 2
#     Edge 12, Type (0, 1), BuildingBlock: ZUJKAS_clean_linker_0, # of connection points: 2
#     Edge 13, Type (0, 1), BuildingBlock: ZUJKAS_clean_linker_0, # of connection points: 2
#     Edge 14, Type (0, 1), BuildingBlock: ZUJKAS_clean_linker_0, # of connection points: 2
#     Edge 15, Type (0, 1), BuildingBlock: ZUJKAS_clean_linker_0, # of connection points: 2
#     Edge 16, Type (0, 1), BuildingBlock: ZUJKAS_clean_linker_0, # of connection points: 2
#     Edge 17, Type (0, 1), BuildingBlock: ZUJKAS_clean_linker_0, # of connection points: 2
#     Edge 18, Type (0, 1), BuildingBlock: ZUJKAS_clean_linker_0, # of connection points: 2
#     Edge 19, Type (0, 1), BuildingBlock: ZUJKAS_clean_linker_0, # of connection points: 2
#     Edge 20, Type (0, 1), BuildingBlock: ZUJKAS_clean_linker_0, # of connection points: 2
#     Edge 21, Type (0, 1), BuildingBlock: ZUJKAS_clean_linker_0, # of connection points: 2
#     Edge 22, Type (0, 1), BuildingBlock: ZUJKAS_clean_linker_0, # of connection points: 2
#     Edge 23, Type (0, 1), BuildingBlock: ZUJKAS_clean_linker_0, # of connection points: 2
#     Edge 24, Type (0, 1), BuildingBlock: ZUJKAS_clean_linker_0, # of connection points: 2
#     Edge 25, Type (0, 1), BuildingBlock: ZUJKAS_clean_linker_0, # of connection points: 2
#     Edge 26, Type (0, 1), BuildingBlock: ZUJKAS_clean_linker_0, # of connection points: 2
# Relax obj value: 0.164
# Max RMSD: 0.189
# Mean RMSD: 0.153
data_MOF--net-anh--node1-PAMTOO_clean_sbu_0--node2-VETTIZ_charged_linker_0--edge1-ZUJKAS_clean_linker_0
_symmetry_space_group_name_H-M    P1
_symmetry_Int_Tables_number       1
_symmetry_cell_setting            triclinic
loop_
_symmetry_equiv_pos_as_xyz
'x, y, z'
_cell_length_a     44.512696
_cell_length_b     43.344714
_cell_length_c     82.873952
_cell_angle_alpha  90.104827
_cell_angle_beta   95.065498
_cell_angle_gamma 107.08573
loop_
_atom_site_label
_atom_site_type_symbol
_atom_site_fract_x
_atom_site_fract_y
_atom_site_fract_z
_atom_type_partial_charge
Dy0 Dy 0.06742 0.59553 0.15116 0.0
Dy1 Dy 1.04468 0.51634 0.14899 0.0
C2 C 0.0543 0.55802 0.11801 0.0
O3 O 1.01593 0.58268 0.15524 0.0
O4 O 0.9994 0.52999 0.14559 0.0
O5 O 0.086 0.6397 0.13866 0.0
O6 O 0.07473 0.6415 0.16349 0.0
O7 O 1.03902 0.53039 0.17417 0.0
O8 O 0.07772 0.57886 0.17589 0.0
O9 O 0.09723 0.52901 0.15524 0.0
O10 O 0.1119 0.58218 0.14793 0.0
O11 O 1.04204 0.46948 0.15867 0.0
O12 O 1.02083 0.47333 0.13447 0.0
C13 C 0.99318 0.55618 0.15062 0.0
O14 O 1.04545 0.57902 0.12626 0.0
O15 O 0.06278 0.535 0.12555 0.0
C16 C 0.11778 0.68307 0.15513 0.0
C17 C 0.17672 0.73066 0.16041 0.0
C18 C 0.15227 0.73624 0.15 0.0
C19 C 0.12307 0.71265 0.1474 0.0
C20 C 0.14202 0.67732 0.16559 0.0
C21 C 0.17122 0.70103 0.16828 0.0
C22 C 0.08754 0.65796 0.15139 0.0
C23 C 0.05897 0.55433 0.18282 0.0
C24 C 0.11913 0.55566 0.15205 0.0
C25 C 0.99524 0.42907 0.14944 0.0
C26 C 0.93894 0.38114 0.15483 0.0
C27 C 0.94536 0.41257 0.16146 0.0
C28 C 0.97325 0.43639 0.15873 0.0
C29 C 0.98899 0.39784 0.1428 0.0
C30 C 0.96105 0.37405 0.14545 0.0
C31 C 1.02418 0.45405 0.14609 0.0
H32 H 0.15568 0.75894 0.14391 0.0
H33 H 0.10467 0.71737 0.13921 0.0
H34 H 0.13849 0.65441 0.17149 0.0
H35 H 0.18971 0.69592 0.17624 0.0
H36 H 0.92863 0.41886 0.16858 0.0
H37 H 0.97758 0.46055 0.16379 0.0
H38 H 1.00569 0.39188 0.13553 0.0
H39 H 0.95694 0.35 0.14033 0.0
Dy40 Dy 0.55486 0.0196 0.50589 0.0
Dy41 Dy 0.6322 0.04713 0.51422 0.0
C42 C 0.58551 0.02513 0.54195 0.0
O43 O 0.56594 0.0721 0.51267 0.0
O44 O 0.61703 0.08962 0.50602 0.0
O45 O 0.50766 0.01311 0.51264 0.0
O46 O 0.51478 0.99637 0.48901 0.0
O47 O 0.6238 0.03741 0.48745 0.0
O48 O 0.57408 0.04291 0.48359 0.0
O49 O 0.61946 0.9943 0.51872 0.0
O50 O 0.57361 0.97789 0.50184 0.0
O51 O 0.67967 0.04701 0.51058 0.0
O52 O 0.67179 0.0788 0.52885 0.0
C53 C 0.59077 0.09544 0.50914 0.0
O54 O 0.56448 0.00632 0.53135 0.0
O55 O 0.60997 0.04741 0.53734 0.0
C56 C 0.46938 0.96684 0.50077 0.0
C57 C 0.4218 0.90752 0.5017 0.0
C58 C 0.45113 0.91247 0.5108 0.0
C59 C 0.47485 0.94191 0.51027 0.0
C60 C 0.44001 0.96222 0.49198 0.0
C61 C 0.41641 0.93285 0.49243 0.0
C62 C 0.49436 0.99721 0.49922 0.0
C63 C 0.60034 0.04183 0.47792 0.0
C64 C 0.5974 0.97158 0.51032 0.0
C65 C 0.71721 0.09828 0.51525 0.0
C66 C 0.76294 0.15374 0.50576 0.0
C67 C 0.73509 0.13967 0.49563 0.0
C68 C 0.71236 0.11227 0.50037 0.0
C69 C 0.74504 0.11185 0.52528 0.0
C70 C 0.76772 0.13934 0.5206 0.0
C71 C 0.69259 0.07096 0.52092 0.0
H72 H 0.45602 0.89331 0.51795 0.0
H73 H 0.49756 0.94506 0.51705 0.0
H74 H 0.43545 0.98124 0.48458 0.0
H75 H 0.39393 0.92991 0.48547 0.0
H76 H 0.73082 0.14983 0.48403 0.0
H77 H 0.69083 0.10223 0.49252 0.0
H78 H 0.74895 0.10154 0.5369 0.0
H79 H 0.7886 0.14977 0.52882 0.0
Dy80 Dy 0.56113 0.50442 0.83985 0.0
Dy81 Dy 0.48405 0.47721 0.83366 0.0
C82 C 0.52683 0.49232 0.80429 0.0
O83 O 0.54322 0.54538 0.84652 0.0
O84 O 0.49868 0.53012 0.82897 0.0
O85 O 0.60458 0.54118 0.83633 0.0
O86 O 0.60568 0.49756 0.84877 0.0
O87 O 0.49329 0.48694 0.86042 0.0
O88 O 0.54682 0.49405 0.86473 0.0
O89 O 0.49917 0.43472 0.84185 0.0
O90 O 0.54784 0.45199 0.83233 0.0
O91 O 0.43776 0.47455 0.84052 0.0
O92 O 0.44242 0.45142 0.81819 0.0
C93 C 0.51996 0.55242 0.83798 0.0
O94 O 0.54894 0.51223 0.81391 0.0
O95 O 0.50281 0.47146 0.81008 0.0
C96 C 0.64534 0.51876 0.831 0.0
C97 C 0.69026 0.51073 0.81062 0.0
C98 C 0.68013 0.53854 0.80981 0.0
C99 C 0.658 0.54257 0.81993 0.0
C100 C 0.65509 0.49071 0.83162 0.0
C101 C 0.67725 0.48672 0.82152 0.0
C102 C 0.62196 0.52319 0.84172 0.0
C103 C 0.51919 0.49055 0.87012 0.0
C104 C 0.5246 0.42879 0.83748 0.0
C105 C 0.40453 0.47944 0.81805 0.0
C106 C 0.37014 0.52199 0.80766 0.0
C107 C 0.40273 0.52999 0.80611 0.0
C108 C 0.41968 0.50879 0.81116 0.0
C109 C 0.37177 0.47017 0.81853 0.0
C110 C 0.35461 0.49114 0.81318 0.0
C111 C 0.4236 0.46123 0.82672 0.0
H112 H 0.68965 0.55742 0.8015 0.0
H113 H 0.65098 0.56446 0.81916 0.0
H114 H 0.64593 0.47194 0.84004 0.0
H115 H 0.68504 0.46533 0.8227 0.0
H116 H 0.41565 0.5535 0.80207 0.0
H117 H 0.44499 0.5162 0.8106 0.0
H118 H 0.35971 0.44749 0.82375 0.0
H119 H 0.32941 0.48382 0.81415 0.0
C120 C 0.64999 0.11675 0.20123 0.0
C121 C 0.67834 0.13767 0.20871 0.0
C122 C 0.68348 0.13909 0.22576 0.0
C123 C 0.63299 0.09919 0.22765 0.0
C124 C 0.62772 0.0977 0.21094 0.0
C125 C 0.59638 0.07386 0.20516 0.0
H126 H 0.4597 0.96692 0.22427 0.0
C127 C 0.60541 0.07675 0.23426 0.0
C128 C 0.58373 0.06176 0.22118 0.0
H129 H 0.48871 0.99193 0.17641 0.0
H130 H 0.53802 0.0288 0.18821 0.0
H131 H 0.52475 0.96048 0.23904 0.0
H132 H 0.48405 0.03892 0.23992 0.0
H133 H 0.5027 0.03759 0.25937 0.0
H134 H 0.47066 0.00333 0.25148 0.0
H135 H 0.49422 0.96076 0.25175 0.0
H136 H 0.53542 0.9787 0.25845 0.0
C137 C 0.6027 0.04675 0.19503 0.0
C138 C 0.57587 0.09244 0.1958 0.0
C139 C 0.60355 0.06671 0.29526 0.0
C140 C 0.58099 0.04853 0.30509 0.0
C141 C 0.55227 0.02811 0.2977 0.0
C142 C 0.54613 0.02579 0.2808 0.0
C143 C 0.56892 0.04412 0.27113 0.0
C144 C 0.59701 0.06418 0.27839 0.0
C145 C 0.61827 0.08214 0.26622 0.0
C146 C 0.59843 0.06929 0.25043 0.0
C147 C 0.56963 0.04705 0.25339 0.0
C148 C 0.649 0.07199 0.268 0.0
C149 C 0.6232 0.11879 0.26899 0.0
C150 C 0.47647 0.98065 0.21631 0.0
C151 C 0.4702 0.97683 0.1994 0.0
C152 C 0.49306 0.99448 0.18948 0.0
C153 C 0.52159 0.0159 0.19636 0.0
C154 C 0.52741 0.01948 0.21333 0.0
C155 C 0.50502 1.00181 0.22296 0.0
C156 C 0.51533 0.00765 0.24071 0.0
C157 C 0.54758 0.03192 0.24025 0.0
C158 C 0.55459 0.03902 0.2242 0.0
C159 C 0.51741 0.97532 0.24802 0.0
C160 C 0.492 0.02244 0.24842 0.0
H161 H 0.66651 0.1224 0.24811 0.0
H162 H 0.64541 0.115 0.18816 0.0
H163 H 0.57832 0.11582 0.20215 0.0
H164 H 0.55043 0.07941 0.19491 0.0
H165 H 0.5832 0.09783 0.18339 0.0
H166 H 0.6246 0.04142 0.20005 0.0
H167 H 0.60568 0.05384 0.18226 0.0
H168 H 0.58392 0.02355 0.19521 0.0
H169 H 0.62567 0.08295 0.30056 0.0
H170 H 0.53464 0.01358 0.305 0.0
H171 H 0.52388 0.00976 0.27594 0.0
H172 H 0.64387 0.04604 0.27099 0.0
H173 H 0.66593 0.08626 0.27786 0.0
H174 H 0.6608 0.0742 0.25671 0.0
H175 H 0.60204 0.12323 0.27357 0.0
H176 H 0.62651 0.13245 0.25771 0.0
H177 H 0.64361 0.12957 0.27802 0.0
H178 H 0.70476 0.15541 0.23185 0.0
C179 C 0.66107 0.12002 0.23522 0.0
C180 C 0.59526 0.62029 0.53525 0.0
C181 C 0.5966 0.64905 0.54363 0.0
C182 C 0.59322 0.64838 0.56035 0.0
C183 C 0.58737 0.59116 0.56033 0.0
C184 C 0.59104 0.59164 0.54392 0.0
C185 C 0.59064 0.5589 0.53743 0.0
H186 H 0.58447 0.40325 0.55384 0.0
C187 C 0.58355 0.55808 0.5659 0.0
C188 C 0.5857 0.53888 0.5526 0.0
H189 H 0.59529 0.44815 0.50742 0.0
H190 H 0.59123 0.49809 0.51931 0.0
H191 H 0.62917 0.46276 0.57563 0.0
H192 H 0.52941 0.42867 0.56203 0.0
H193 H 0.53318 0.44529 0.58167 0.0
H194 H 0.54769 0.41125 0.57826 0.0
H195 H 0.60359 0.42635 0.58295 0.0
H196 H 0.61017 0.4648 0.59315 0.0
C197 C 0.62308 0.56205 0.53116 0.0
C198 C 0.56246 0.54711 0.52436 0.0
C199 C 0.56439 0.53281 0.62469 0.0
C200 C 0.5594 0.50422 0.63342 0.0
C201 C 0.55976 0.47563 0.62542 0.0
C202 C 0.56507 0.4755 0.60903 0.0
C203 C 0.57004 0.50425 0.60046 0.0
C204 C 0.56949 0.53221 0.60828 0.0
C205 C 0.57482 0.56032 0.59716 0.0
C206 C 0.5784 0.54448 0.58135 0.0
C207 C 0.57579 0.5118 0.58342 0.0
C208 C 0.60572 0.5863 0.60372 0.0
C209 C 0.5449 0.57187 0.59604 0.0
C210 C 0.58635 0.42396 0.54626 0.0
C211 C 0.5909 0.42215 0.52982 0.0
C212 C 0.59211 0.44922 0.5202 0.0
C213 C 0.58987 0.47812 0.52713 0.0
C214 C 0.58608 0.4797 0.5438 0.0
C215 C 0.58388 0.45257 0.55292 0.0
C216 C 0.57847 0.45752 0.57018 0.0
C217 C 0.57878 0.49248 0.57021 0.0
C218 C 0.58342 0.50568 0.5548 0.0
C219 C 0.60659 0.45244 0.58117 0.0
C220 C 0.54565 0.43445 0.57335 0.0
H221 H 0.58601 0.62095 0.58141 0.0
H222 H 0.59803 0.62028 0.5224 0.0
H223 H 0.54132 0.55283 0.5282 0.0
H224 H 0.55508 0.52069 0.52227 0.0
H225 H 0.56809 0.55901 0.51268 0.0
H226 H 0.64248 0.57734 0.53969 0.0
H227 H 0.6248 0.57346 0.51915 0.0
H228 H 0.62813 0.53873 0.53019 0.0
H229 H 0.56399 0.55511 0.63047 0.0
H230 H 0.5564 0.4534 0.63193 0.0
H231 H 0.5653 0.453 0.60373 0.0
H232 H 0.62228 0.57526 0.61068 0.0
H233 H 0.60082 0.60416 0.61193 0.0
H234 H 0.61927 0.59919 0.59393 0.0
H235 H 0.52319 0.55094 0.59573 0.0
H236 H 0.54192 0.58487 0.58486 0.0
H237 H 0.54505 0.58757 0.60668 0.0
H238 H 0.59391 0.67021 0.56697 0.0
C239 C 0.58851 0.61969 0.56871 0.0
C240 C 0.17295 0.67917 0.85134 0.0
C241 C 0.20199 0.69312 0.86044 0.0
C242 C 0.2028 0.6948 0.87749 0.0
C243 C 0.14725 0.66457 0.87602 0.0
C244 C 0.14617 0.66479 0.8593 0.0
C245 C 0.11481 0.64512 0.85126 0.0
H246 H 0.97093 0.54045 0.85758 0.0
C247 C 0.11645 0.64368 0.88039 0.0
C248 C 0.09748 0.63222 0.86589 0.0
H249 H 1.0109 0.58254 0.81409 0.0
H250 H 0.05868 0.61217 0.83001 0.0
H251 H 1.03513 0.53005 0.87587 0.0
H252 H 0.98947 0.60451 0.87709 0.0
H253 H 1.0066 0.60334 0.89686 0.0
H254 H 0.97652 0.56819 0.88814 0.0
H255 H 0.99867 0.52522 0.88469 0.0
H256 H 1.03627 0.54174 0.8963 0.0
C257 C 0.12014 0.61772 0.84084 0.0
C258 C 0.09963 0.66823 0.84163 0.0
C259 C 0.09729 0.62058 0.93951 0.0
C260 C 0.07125 0.60111 0.94692 0.0
C261 C 1.04421 0.5834 0.93706 0.0
C262 C 1.04294 0.58508 0.92019 0.0
C263 C 0.06901 0.60462 0.91296 0.0
C264 C 0.0956 0.62205 0.92256 0.0
C265 C 0.12106 0.64127 0.9126 0.0
C266 C 0.10501 0.63298 0.89551 0.0
C267 C 0.07467 0.61125 0.89587 0.0
C268 C 0.15001 0.62842 0.91567 0.0
C269 C 0.12783 0.67752 0.91705 0.0
C270 C 0.9899 0.55606 0.85143 0.0
C271 C 0.98699 0.55906 0.8345 0.0
C272 C 1.01258 0.57936 0.82706 0.0
C273 C 1.0402 0.5969 0.83637 0.0
C274 C 1.04232 0.59423 0.85331 0.0
C275 C 1.01738 0.57409 0.86055 0.0
C276 C 1.02302 0.57545 0.87872 0.0
C277 C 0.05563 0.59963 0.88121 0.0
C278 C 0.0669 0.61026 0.86631 0.0
C279 C 1.02311 0.54139 0.88433 0.0
C280 C 0.99758 0.58829 0.88569 0.0
H281 H 0.1778 0.68189 0.89833 0.0
H282 H 0.17152 0.67678 0.83826 0.0
H283 H 0.10647 0.69256 0.84767 0.0
H284 H 0.07356 0.66008 0.84092 0.0
H285 H 0.10727 0.67137 0.82918 0.0
H286 H 0.1389 0.60843 0.84693 0.0
H287 H 0.12759 0.62648 0.82881 0.0
H288 H 0.0992 0.59637 0.839 0.0
H289 H 0.11837 0.63459 0.94674 0.0
H290 H 1.02406 0.56777 0.9424 0.0
H291 H 1.02171 0.57089 0.91343 0.0
H292 H 0.14244 0.60186 0.91729 0.0
H293 H 0.16497 0.63984 0.92678 0.0
H294 H 0.16471 0.63201 0.90539 0.0
H295 H 0.10551 0.68325 0.91873 0.0
H296 H 0.1386 0.69352 0.90745 0.0
H297 H 0.14342 0.68418 0.92852 0.0
H298 H 0.22488 0.70558 0.88478 0.0
C299 C 0.17552 0.68076 0.88533 0.0
C300 C 1.00603 0.45955 0.45619 0.0
C301 C 0.98069 0.4362 0.44767 0.0
C302 C 0.97591 0.43788 0.43069 0.0
C303 C 1.02145 0.48515 0.43092 0.0
C304 C 1.02594 0.48387 0.4476 0.0
C305 C 0.05364 0.51106 0.4547 0.0
H306 H 0.17289 0.64575 0.44248 0.0
C307 C 1.04634 0.51297 0.42563 0.0
C308 C 0.06523 0.52846 0.4395 0.0
H309 H 0.14738 0.60271 0.4882 0.0
H310 H 0.10535 0.5598 0.47413 0.0
H311 H 0.16816 0.58137 0.42433 0.0
H312 H 0.10183 0.6358 0.42611 0.0
H313 H 0.10134 0.62373 0.40579 0.0
H314 H 0.13742 0.6492 0.41613 0.0
H315 H 0.17091 0.6164 0.4124 0.0
H316 H 0.14748 0.5766 0.40504 0.0
C317 C 0.07824 0.49627 0.46333 0.0
C318 C 1.04117 0.53224 0.46588 0.0
C319 C 0.05275 0.53396 0.3655 0.0
C320 C 0.07402 0.55706 0.35682 0.0
C321 C 0.09875 0.58094 0.36553 0.0
C322 C 0.10231 0.58174 0.38249 0.0
C323 C 0.08105 0.55833 0.39096 0.0
C324 C 0.0568 0.53496 0.38247 0.0
C325 C 1.03688 0.51165 0.39349 0.0
C326 C 0.05338 0.52475 0.41 0.0
C327 C 0.07909 0.55214 0.40842 0.0
C328 C 1.03938 0.47752 0.38966 0.0
C329 C 1.00289 0.51461 0.39119 0.0
C330 C 0.15801 0.62729 0.44949 0.0
C331 C 0.1631 0.62781 0.46646 0.0
C332 C 0.14383 0.60281 0.4751 0.0
C333 C 0.11939 0.57805 0.46692 0.0
C334 C 0.11434 0.57819 0.44991 0.0
C335 C 0.13376 0.60244 0.44152 0.0
C336 C 0.1258 0.59845 0.4235 0.0
C337 C 0.09786 0.56821 0.42241 0.0
C338 C 0.09112 0.55641 0.43788 0.0
C339 C 0.1545 0.59314 0.41579 0.0
C340 C 0.11626 0.62834 0.41742 0.0
H341 H 0.99126 0.46191 0.40939 0.0
H342 H 1.01008 0.45908 0.46926 0.0
H343 H 1.01803 0.53442 0.46062 0.0
H344 H 0.05672 0.55729 0.46742 0.0
H345 H 1.03775 0.52156 0.47801 0.0
H346 H 0.0795 0.47477 0.45638 0.0
H347 H 0.07192 0.48843 0.47565 0.0
H348 H 0.10246 0.51295 0.46426 0.0
H349 H 1.03326 0.51549 0.35926 0.0
H350 H 0.11581 0.59873 0.35921 0.0
H351 H 0.12168 0.60045 0.38835 0.0
H352 H 0.06371 0.47882 0.38685 0.0
H353 H 1.02295 0.46604 0.37899 0.0
H354 H 1.03488 0.46123 0.39996 0.0
H355 H 1.00311 0.53968 0.38818 0.0
H356 H 0.99054 0.50961 0.40233 0.0
H357 H 0.98853 0.49832 0.38118 0.0
H358 H 0.95678 0.41999 0.42384 0.0
C359 C 0.9961 0.46215 0.4223 0.0
C360 C 0.52315 0.90449 0.81278 0.0
C361 C 0.51969 0.87503 0.80448 0.0
C362 C 0.52054 0.87478 0.78755 0.0
C363 C 0.52844 0.93239 0.78726 0.0
C364 C 0.52712 0.93288 0.80387 0.0
C365 C 0.5296 0.96632 0.81029 0.0
H366 H 0.55057 0.1252 0.794 0.0
C367 C 0.53318 0.96549 0.7815 0.0
C368 C 0.53377 0.98573 0.79488 0.0
H369 H 0.53333 0.08034 0.84013 0.0
H370 H 0.53118 0.02841 0.82804 0.0
H371 H 0.59905 0.08843 0.7839 0.0
H372 H 0.49922 0.072 0.77368 0.0
H373 H 0.51273 0.06231 0.75566 0.0
H374 H 0.52775 0.1029 0.76411 0.0
H375 H 0.58277 0.11234 0.77003 0.0
H376 H 0.59002 0.07566 0.76347 0.0
C377 C 0.55898 0.97747 0.82267 0.0
C378 C 0.49829 0.96504 0.81741 0.0
C379 C 0.54646 0.98722 0.72183 0.0
C380 C 0.55231 0.01557 0.71287 0.0
C381 C 0.5553 0.04514 0.72093 0.0
C382 C 0.55249 0.04649 0.73759 0.0
C383 C 0.54664 0.01797 0.74639 0.0
C384 C 0.54382 0.98902 0.73851 0.0
C385 C 0.53798 0.96129 0.74986 0.0
C386 C 0.53756 0.97838 0.76584 0.0
C387 C 0.54258 0.01147 0.76369 0.0
C388 C 0.56625 0.9472 0.75002 0.0
C389 C 0.50539 0.93699 0.74429 0.0
C390 C 0.54679 0.10434 0.80161 0.0
C391 C 0.54255 0.10696 0.81807 0.0
C392 C 0.53672 0.07893 0.8274 0.0
C393 C 0.53546 0.04886 0.82036 0.0
C394 C 0.53959 0.04674 0.80377 0.0
C395 C 0.54505 0.07435 0.79477 0.0
C396 C 0.54776 0.06803 0.77726 0.0
C397 C 0.54296 0.03201 0.77708 0.0
C398 C 0.53841 0.01939 0.79262 0.0
C399 C 0.5815 0.08718 0.7733 0.0
C400 C 0.52071 0.0769 0.76703 0.0
H401 H 0.52552 0.90113 0.76609 0.0
H402 H 0.52226 0.90525 0.82579 0.0
H403 H 0.47781 0.94855 0.80997 0.0
H404 H 0.49355 0.98863 0.8174 0.0
H405 H 0.4981 0.95605 0.82996 0.0
H406 H 0.57958 0.9723 0.81782 0.0
H407 H 0.55471 0.96461 0.83421 0.0
H408 H 0.56625 0.00368 0.82536 0.0
H409 H 0.54438 0.96416 0.71605 0.0
H410 H 0.5594 0.06727 0.71428 0.0
H411 H 0.5549 0.06974 0.74293 0.0
H412 H 0.58873 0.96673 0.74914 0.0
H413 H 0.56323 0.93001 0.73962 0.0
H414 H 0.57018 0.93506 0.76136 0.0
H415 H 0.48902 0.94949 0.73832 0.0
H416 H 0.49296 0.92454 0.7545 0.0
H417 H 0.50771 0.9187 0.73546 0.0
H418 H 0.51818 0.85246 0.78094 0.0
C419 C 0.52496 0.90316 0.77894 0.0
C420 C 0.63909 0.54832 0.14539 0.0
C421 C 0.66465 0.54436 0.13728 0.0
C422 C 0.66049 0.53943 0.12039 0.0
C423 C 0.6069 0.54249 0.11956 0.0
C424 C 0.61009 0.54701 0.13621 0.0
C425 C 0.57921 0.54921 0.14216 0.0
H426 H 0.42809 0.55758 0.11952 0.0
C427 C 0.57491 0.54275 0.11319 0.0
C428 C 0.55799 0.54683 0.12625 0.0
H429 H 0.46808 0.55632 0.16871 0.0
H430 H 0.5173 0.55236 0.15881 0.0
H431 H 0.48847 0.60335 0.10539 0.0
H432 H 0.44867 0.50073 0.10758 0.0
H433 H 0.46389 0.50703 0.08869 0.0
H434 H 0.43321 0.52434 0.0932 0.0
H435 H 0.45408 0.58103 0.09277 0.0
H436 H 0.49331 0.58766 0.0866 0.0
C437 C 0.58523 0.58191 0.15111 0.0
C438 C 0.56644 0.52021 0.15294 0.0
C439 C 0.54697 0.53082 0.05219 0.0
C440 C 0.52005 0.53163 0.04214 0.0
C441 C 0.49436 0.53696 0.04929 0.0
C442 C 0.49532 0.54106 0.06611 0.0
C443 C 0.5223 0.53989 0.07601 0.0
C444 C 0.54757 0.53511 0.06898 0.0
C445 C 0.5745 0.53534 0.08129 0.0
C446 C 0.56099 0.5405 0.09697 0.0
C447 C 0.53048 0.54298 0.09378 0.0
C448 C 0.60315 0.56434 0.07778 0.0
C449 C 0.58018 0.50173 0.0804 0.0
C450 C 0.44745 0.55679 0.12826 0.0
C451 C 0.44425 0.55778 0.14487 0.0
C452 C 0.46992 0.55574 0.15578 0.0
C453 C 0.49842 0.55342 0.15003 0.0
C454 C 0.50102 0.55241 0.13319 0.0
C455 C 0.4753 0.55375 0.12278 0.0
C456 C 0.48019 0.55045 0.10537 0.0
C457 C 0.51314 0.54714 0.10671 0.0
C458 C 0.52617 0.54867 0.12299 0.0
C459 C 0.47876 0.58204 0.09695 0.0
C460 C 0.4552 0.51924 0.09819 0.0
H461 H 0.6311 0.53472 0.09876 0.0
H462 H 0.6415 0.55184 0.15843 0.0
H463 H 0.5665 0.49739 0.14681 0.0
H464 H 0.54188 0.51724 0.15549 0.0
H465 H 0.58133 0.52292 0.16465 0.0
H466 H 0.59701 0.60201 0.14339 0.0
H467 H 0.60073 0.58322 0.16252 0.0
H468 H 0.5631 0.58613 0.15417 0.0
H469 H 0.56708 0.52653 0.04717 0.0
H470 H 0.47355 0.53835 0.04186 0.0
H471 H 0.47494 0.54501 0.07071 0.0
H472 H 0.59541 0.58407 0.07181 0.0
H473 H 0.61849 0.55696 0.06963 0.0
H474 H 0.61757 0.576 0.08892 0.0
H475 H 0.55764 0.48234 0.07725 0.0
H476 H 0.58963 0.49458 0.09212 0.0
H477 H 0.59629 0.50083 0.07103 0.0
H478 H 0.67959 0.5364 0.1139 0.0
C479 C 0.63212 0.53854 0.11158 0.0
H480 H 0.17067 0.60333 0.1431 0.0
H481 H 0.22567 0.60295 0.14409 0.0
H482 H 0.20023 0.50857 0.1647 0.0
H483 H 0.14505 0.50836 0.16327 0.0
H484 H 0.26854 0.60076 0.16804 0.0
H485 H 0.24816 0.49126 0.12909 0.0
H486 H 0.21781 0.51044 0.13122 0.0
H487 H 0.22607 0.48376 0.14647 0.0
C488 C 0.17664 0.58235 0.14777 0.0
C489 C 0.15304 0.55573 0.15295 0.0
C490 C 0.2083 0.58219 0.14836 0.0
C491 C 0.21743 0.55545 0.15416 0.0
C492 C 0.19401 0.52916 0.15969 0.0
H493 H 0.40312 0.51704 0.16404 0.0
H494 H 0.34872 0.51656 0.168 0.0
C495 C 0.1623 0.52918 0.15898 0.0
C496 C 0.2514 0.55544 0.15462 0.0
H497 H 0.29969 0.51286 0.14228 0.0
C498 C 0.27522 0.58149 0.16236 0.0
C499 C 0.2606 0.5304 0.14728 0.0
C500 C 0.23688 0.50256 0.13791 0.0
C501 C 0.30749 0.58313 0.163 0.0
C502 C 0.31662 0.55817 0.15562 0.0
C503 C 0.29287 0.5319 0.14809 0.0
C504 C 0.35066 0.55987 0.15464 0.0
C505 C 0.33161 0.61154 0.17172 0.0
C506 C 0.37022 0.58448 0.14601 0.0
C507 C 0.40115 0.5847 0.14373 0.0
C508 C 0.41363 0.56044 0.15009 0.0
C509 C 0.3945 0.5364 0.15924 0.0
C510 C 0.36327 0.53596 0.16137 0.0
H511 H 0.3208 0.62368 0.18039 0.0
H512 H 0.35087 0.60393 0.17841 0.0
H513 H 0.34221 0.62944 0.16271 0.0
H514 H 0.36114 0.60293 0.14045 0.0
H515 H 0.41509 0.60336 0.13647 0.0
H516 H 0.82755 0.16928 0.51014 0.0
H517 H 0.86616 0.21916 0.50301 0.0
H518 H 0.79067 0.25516 0.48293 0.0
H519 H 0.7519 0.20615 0.49071 0.0
H520 H 0.877 0.2441 0.4735 0.0
H521 H 0.84248 0.33059 0.51177 0.0
H522 H 0.82866 0.2875 0.51425 0.0
H523 H 0.80999 0.30623 0.4986 0.0
C524 C 0.81912 0.18802 0.50444 0.0
C525 C 0.78657 0.18371 0.50108 0.0
C526 C 0.84124 0.21643 0.50029 0.0
C527 C 0.8313 0.24115 0.49272 0.0
C528 C 0.79889 0.23677 0.48912 0.0
H529 H 0.91636 0.41428 0.44347 0.0
H530 H 0.88158 0.36744 0.45577 0.0
C531 C 0.77674 0.20846 0.49335 0.0
C532 C 0.85484 0.27094 0.48795 0.0
H533 H 0.87629 0.35332 0.49117 0.0
C534 C 0.8771 0.26796 0.47752 0.0
C535 C 0.85499 0.30207 0.49326 0.0
C536 C 0.83295 0.30684 0.50522 0.0
C537 C 0.89879 0.29528 0.47182 0.0
C538 C 0.8983 0.32633 0.47676 0.0
C539 C 0.87648 0.3294 0.4874 0.0
C540 C 0.91935 0.35587 0.47035 0.0
C541 C 0.92144 0.29086 0.46013 0.0
C542 C 0.95198 0.36518 0.47478 0.0
C543 C 0.9719 0.39197 0.46781 0.0
C544 C 0.95946 0.40969 0.45622 0.0
C545 C 0.92663 0.40082 0.45221 0.0
C546 C 0.90674 0.37422 0.45927 0.0
H547 H 0.9157 0.26542 0.45567 0.0
H548 H 0.92124 0.30656 0.44957 0.0
H549 H 0.94575 0.29806 0.46629 0.0
H550 H 0.96204 0.35138 0.48342 0.0
H551 H 0.99711 0.39815 0.47106 0.0
H552 H 0.56127 0.60627 0.85367 0.0
H553 H 0.5602 0.66234 0.85156 0.0
H554 H 0.47457 0.63128 0.8195 0.0
H555 H 0.47551 0.5754 0.8214 0.0
H556 H 0.52282 0.6814 0.80764 0.0
H557 H 0.50239 0.70989 0.87044 0.0
H558 H 0.53419 0.69276 0.86858 0.0
H559 H 0.49429 0.66896 0.86273 0.0
C560 C 0.54202 0.61131 0.8463 0.0
C561 C 0.51854 0.58625 0.83766 0.0
C562 C 0.54134 0.64338 0.8452 0.0
C563 C 0.51712 0.65098 0.83551 0.0
C564 C 0.49342 0.62597 0.8271 0.0
H565 H 0.47236 0.81922 0.79841 0.0
H566 H 0.47128 0.76546 0.80781 0.0
C567 C 0.49403 0.59398 0.8282 0.0
C568 C 0.51759 0.68508 0.83307 0.0
H569 H 0.5121 0.75301 0.85218 0.0
C570 C 0.52042 0.69701 0.81738 0.0
C571 C 0.51478 0.70554 0.84583 0.0
C572 C 0.511 0.6937 0.86284 0.0
C573 C 0.52048 0.72875 0.81406 0.0
C574 C 0.51689 0.74902 0.82671 0.0
C575 C 0.51466 0.73738 0.8425 0.0
C576 C 0.51476 0.78206 0.82346 0.0
C577 C 0.52475 0.74042 0.79702 0.0
C578 C 0.53851 0.80947 0.82993 0.0
C579 C 0.53892 0.84039 0.82471 0.0
C580 C 0.51562 0.84416 0.81294 0.0
C581 C 0.49069 0.8169 0.80742 0.0
C582 C 0.49016 0.7862 0.81271 0.0
H583 H 0.53554 0.72534 0.78995 0.0
H584 H 0.50135 0.73907 0.79069 0.0
H585 H 0.53983 0.7659 0.79709 0.0
H586 H 0.55763 0.80681 0.8383 0.0
H587 H 0.55849 0.86101 0.82906 0.0
H588 H 0.93915 0.50515 0.14397 0.0
H589 H 0.8841 0.50466 0.14467 0.0
H590 H 0.91493 0.60527 0.15941 0.0
H591 H 0.96999 0.60611 0.15858 0.0
H592 H 0.85162 0.51755 0.1698 0.0
H593 H 0.85123 0.60501 0.12107 0.0
H594 H 0.88244 0.58641 0.1247 0.0
H595 H 0.88151 0.61974 0.13739 0.0
C596 C 0.93433 0.5273 0.14728 0.0
C597 C 0.95935 0.55576 0.15108 0.0
C598 C 0.90268 0.52694 0.14773 0.0
C599 C 0.895 0.55504 0.15184 0.0
C600 C 0.91992 0.58337 0.15585 0.0
H601 H 0.7118 0.59618 0.15104 0.0
H602 H 0.76788 0.5994 0.15681 0.0
C603 C 0.95158 0.58376 0.15545 0.0
C604 C 0.86106 0.55457 0.15207 0.0
H605 H 0.80548 0.58834 0.13512 0.0
C606 C 0.84158 0.53305 0.16219 0.0
C607 C 0.84767 0.57485 0.14227 0.0
C608 C 0.86664 0.59762 0.13062 0.0
C609 C 0.80951 0.5314 0.16285 0.0
C610 C 0.79597 0.55132 0.15285 0.0
C611 C 0.81558 0.57313 0.14289 0.0
C612 C 0.7613 0.54868 0.15176 0.0
C613 C 0.79061 0.50861 0.1745 0.0
C614 C 0.73843 0.51908 0.14738 0.0
C615 C 0.7064 0.51722 0.1443 0.0
C616 C 0.69615 0.54488 0.14547 0.0
C617 C 0.71872 0.57427 0.15051 0.0
C618 C 0.75091 0.57616 0.15358 0.0
H619 H 0.8061 0.50379 0.18485 0.0
H620 H 0.77265 0.51837 0.17934 0.0
H621 H 0.7783 0.48521 0.1681 0.0
H622 H 0.74551 0.49762 0.14542 0.0
H623 H 0.68979 0.49443 0.13996 0.0
H624 H 0.38624 0.87415 0.47531 0.0
H625 H 0.34398 0.82314 0.47464 0.0
H626 H 0.35941 0.81771 0.52652 0.0
H627 H 0.40171 0.86924 0.52734 0.0
H628 H 0.34772 0.76073 0.48717 0.0
H629 H 0.26291 0.81068 0.51612 0.0
H630 H 0.29638 0.8363 0.50695 0.0
H631 H 0.3022 0.81839 0.526 0.0
C632 C 0.38056 0.86222 0.4866 0.0
C633 C 0.39707 0.87585 0.5014 0.0
C634 C 0.35658 0.83299 0.48618 0.0
C635 C 0.34847 0.81687 0.50054 0.0
C636 C 0.36521 0.82999 0.51533 0.0
H637 H 0.20793 0.62364 0.4906 0.0
H638 H 0.2534 0.6677 0.50221 0.0
C639 C 0.38943 0.85926 0.51576 0.0
C640 C 0.322 0.78664 0.49977 0.0
H641 H 0.24408 0.75709 0.50608 0.0
C642 C 0.3252 0.75961 0.49156 0.0
C643 C 0.29268 0.78553 0.50544 0.0
C644 C 0.28802 0.81423 0.51407 0.0
C645 C 0.29943 0.73185 0.4883 0.0
C646 C 0.26981 0.73113 0.4935 0.0
C647 C 0.26692 0.7577 0.50225 0.0
C648 C 0.24088 0.70483 0.48813 0.0
C649 C 0.30357 0.70421 0.47853 0.0
C650 C 0.21839 0.71139 0.47681 0.0
C651 C 0.19258 0.68645 0.47022 0.0
C652 C 0.18864 0.65445 0.47489 0.0
C653 C 0.21037 0.6481 0.48682 0.0
C654 C 0.23639 0.67314 0.49337 0.0
H655 H 0.32703 0.71032 0.47368 0.0
H656 H 0.3012 0.68298 0.48631 0.0
H657 H 0.28496 0.69713 0.46824 0.0
H658 H 0.22141 0.73571 0.47266 0.0
H659 H 0.17596 0.69211 0.46122 0.0
H660 H 0.48185 0.37478 0.84785 0.0
H661 H 0.48543 0.31955 0.84842 0.0
H662 H 0.57526 0.35124 0.82836 0.0
H663 H 0.57218 0.4066 0.828 0.0
H664 H 0.48889 0.28077 0.8231 0.0
H665 H 0.59511 0.29967 0.86649 0.0
H666 H 0.57387 0.32923 0.86388 0.0
H667 H 0.60152 0.32637 0.84979 0.0
C668 C 0.50249 0.3701 0.84365 0.0
C669 C 0.52676 0.39523 0.83791 0.0
C670 C 0.50449 0.33847 0.844 0.0
C671 C 0.53086 0.33129 0.83871 0.0
C672 C 0.55504 0.35628 0.83289 0.0
H673 H 0.5856 0.16532 0.81426 0.0
H674 H 0.58187 0.21873 0.82139 0.0
C675 C 0.55311 0.38793 0.83257 0.0
C676 C 0.53235 0.29744 0.8385 0.0
H677 H 0.57853 0.24984 0.85106 0.0
C678 C 0.50826 0.2739 0.82939 0.0
C679 C 0.55762 0.28847 0.84674 0.0
C680 C 0.58334 0.31219 0.85741 0.0
C681 C 0.50941 0.242 0.82774 0.0
C682 C 0.5351 0.23323 0.83564 0.0
C683 C 0.55882 0.25657 0.84505 0.0
C684 C 0.53892 0.20066 0.83319 0.0
C685 C 0.48381 0.21828 0.81699 0.0
C686 C 0.51665 0.17269 0.838 0.0
C687 C 0.51874 0.14201 0.83392 0.0
C688 C 0.5431 0.13887 0.82494 0.0
C689 C 0.56633 0.16697 0.821 0.0
C690 C 0.5643 0.19751 0.82511 0.0
H691 H 0.46919 0.23044 0.80933 0.0
H692 H 0.49415 0.20436 0.80897 0.0
H693 H 0.46805 0.20092 0.82464 0.0
H694 H 0.49716 0.17459 0.84449 0.0
H695 H 0.50046 0.12084 0.83708 0.0
H696 H 0.64131 0.94872 0.52752 0.0
H697 H 0.64219 0.89278 0.52955 0.0
H698 H 0.55754 0.86175 0.49679 0.0
H699 H 0.55643 0.91773 0.4946 0.0
H700 H 0.59205 0.842 0.54072 0.0
H701 H 0.61788 0.81562 0.47857 0.0
H702 H 0.62591 0.85632 0.48661 0.0
H703 H 0.58619 0.83313 0.47997 0.0
C704 C 0.62301 0.93011 0.5206 0.0
C705 C 0.59878 0.9378 0.5109 0.0
C706 C 0.62359 0.89814 0.52177 0.0
C707 C 0.60016 0.87319 0.51317 0.0
C708 C 0.57617 0.88072 0.50329 0.0
H709 H 0.55999 0.66337 0.51818 0.0
H710 H 0.56123 0.71775 0.50908 0.0
C711 C 0.57549 0.91273 0.50215 0.0
C712 C 0.5997 0.83916 0.51556 0.0
H713 H 0.60753 0.77218 0.4966 0.0
C714 C 0.59548 0.82676 0.53108 0.0
C715 C 0.60381 0.81925 0.5029 0.0
C716 C 0.60893 0.83168 0.48608 0.0
C717 C 0.59535 0.795 0.53434 0.0
C718 C 0.60036 0.7753 0.52182 0.0
C719 C 0.60393 0.78742 0.50618 0.0
C720 C 0.60254 0.74234 0.52506 0.0
C721 C 0.58949 0.78271 0.55116 0.0
C722 C 0.62622 0.73815 0.53642 0.0
C723 C 0.62543 0.70737 0.54164 0.0
C724 C 0.60122 0.68015 0.53541 0.0
C725 C 0.57898 0.68402 0.52307 0.0
C726 C 0.57961 0.715 0.51794 0.0
H727 H 0.57768 0.79731 0.5579 0.0
H728 H 0.57466 0.75711 0.55069 0.0
H729 H 0.61241 0.78423 0.55809 0.0
H730 H 0.64449 0.75888 0.54182 0.0
H731 H 0.64293 0.70492 0.5511 0.0
H732 H 0.74437 0.55811 0.80637 0.0
H733 H 0.79211 0.55185 0.79679 0.0
H734 H 0.74474 0.45126 0.78499 0.0
H735 H 0.69641 0.45743 0.79479 0.0
H736 H 0.79362 0.4564 0.80502 0.0
H737 H 0.83524 0.54276 0.758 0.0
H738 H 0.82293 0.56425 0.77332 0.0
H739 H 0.79438 0.53059 0.76237 0.0
C740 C 0.74359 0.53495 0.80112 0.0
C741 C 0.71669 0.50819 0.8015 0.0
C742 C 0.77099 0.53142 0.79548 0.0
C743 C 0.77205 0.50116 0.78991 0.0
C744 C 0.74445 0.47489 0.78911 0.0
H745 H 0.97694 0.53118 0.80372 0.0
H746 H 0.92587 0.50717 0.78788 0.0
C747 C 0.71696 0.47839 0.79485 0.0
C748 C 0.8033 0.49611 0.78863 0.0
H749 H 0.87706 0.54012 0.78037 0.0
C750 C 0.81166 0.47378 0.79901 0.0
C751 C 0.82698 0.51795 0.7805 0.0
C752 C 0.81919 0.53992 0.76778 0.0
C753 C 0.84339 0.47634 0.80347 0.0
C754 C 0.86704 0.50203 0.79756 0.0
C755 C 0.85879 0.52094 0.78523 0.0
C756 C 0.89816 0.51452 0.80687 0.0
C757 C 0.85133 0.45369 0.81577 0.0
C758 C 0.89927 0.52707 0.82258 0.0
C759 C 0.92805 0.54121 0.83147 0.0
C760 C 0.95654 0.54297 0.82491 0.0
C761 C 0.95543 0.53032 0.8091 0.0
C762 C 0.92636 0.51639 0.80008 0.0
H763 H 0.83319 0.4297 0.81473 0.0
H764 H 0.87481 0.45048 0.8143 0.0
H765 H 0.85183 0.46381 0.82814 0.0
H766 H 0.87772 0.52666 0.82784 0.0
H767 H 0.92787 0.55154 0.84335 0.0
H768 H 0.21301 0.75085 0.18902 0.0
H769 H 0.26363 0.79321 0.19322 0.0
H770 H 0.26151 0.80897 0.14182 0.0
H771 H 0.21082 0.7668 0.13754 0.0
H772 H 0.32077 0.79832 0.18098 0.0
H773 H 0.27475 0.89938 0.16082 0.0
H774 H 0.24915 0.86015 0.16518 0.0
H775 H 0.26676 0.86652 0.1463 0.0
C776 C 0.22343 0.76323 0.17861 0.0
C777 C 0.20783 0.75569 0.16297 0.0
C778 C 0.25228 0.78746 0.18103 0.0
C779 C 0.26606 0.80459 0.16787 0.0
C780 C 0.25092 0.7966 0.15219 0.0
H781 H 0.46141 0.93124 0.1751 0.0
H782 H 0.41212 0.8897 0.16573 0.0
C783 C 0.22199 0.77249 0.14977 0.0
C784 C 0.29632 0.83072 0.17061 0.0
H785 H 0.32996 0.91182 0.16708 0.0
C786 C 0.32284 0.82311 0.17788 0.0
C787 C 0.29884 0.86309 0.16666 0.0
C788 C 0.27083 0.87295 0.15944 0.0
C789 C 0.35181 0.84705 0.18142 0.0
C790 C 0.35438 0.87933 0.17735 0.0
C791 C 0.32794 0.88695 0.17 0.0
C792 C 0.38367 0.90589 0.18179 0.0
C793 C 0.37915 0.83782 0.18997 0.0
C794 C 0.38366 0.92932 0.19346 0.0
C795 C 0.41161 0.95302 0.19876 0.0
C796 C 0.44009 0.95386 0.1924 0.0
C797 C 0.4398 0.93124 0.18016 0.0
C798 C 0.41177 0.90737 0.17491 0.0
H799 H 0.37163 0.8132 0.1949 0.0
H800 H 0.39688 0.83835 0.18128 0.0
H801 H 0.39082 0.85529 0.20007 0.0
H802 H 0.36216 0.92869 0.19883 0.0
H803 H 0.41106 0.97041 0.20805 0.0
H804 H 0.53959 0.11706 0.51263 0.0
H805 H 0.53751 0.17282 0.51209 0.0
H806 H 0.63618 0.20587 0.50412 0.0
H807 H 0.63838 0.15028 0.50432 0.0
H808 H 0.56985 0.22188 0.53257 0.0
H809 H 0.59901 0.25456 0.47008 0.0
H810 H 0.5879 0.21331 0.47656 0.0
H811 H 0.62771 0.23898 0.48105 0.0
C812 C 0.5608 0.13614 0.51062 0.0
C813 C 0.58915 0.12913 0.50851 0.0
C814 C 0.55955 0.16801 0.51028 0.0
C815 C 0.58654 0.19351 0.50777 0.0
C816 C 0.61483 0.18657 0.50563 0.0
H817 H 0.63122 0.38956 0.54147 0.0
H818 H 0.62972 0.33437 0.53429 0.0
C819 C 0.6161 0.15473 0.5059 0.0
C820 C 0.58575 0.2275 0.50865 0.0
H821 H 0.60333 0.29867 0.48865 0.0
C822 C 0.57684 0.23853 0.52288 0.0
C823 C 0.59451 0.2492 0.49593 0.0
C824 C 0.60251 0.23835 0.47998 0.0
C825 C 0.57755 0.27084 0.52499 0.0
C826 C 0.58801 0.29293 0.51267 0.0
C827 C 0.59575 0.28175 0.49816 0.0
C828 C 0.59201 0.32784 0.51508 0.0
C829 C 0.56728 0.28115 0.54049 0.0
C830 C 0.57249 0.34305 0.50604 0.0
C831 C 0.5735 0.37482 0.51006 0.0
C832 C 0.59401 0.3916 0.52317 0.0
C833 C 0.61498 0.377 0.53142 0.0
C834 C 0.61407 0.34549 0.52737 0.0
H835 H 0.55232 0.26023 0.54667 0.0
H836 H 0.58846 0.2928 0.54888 0.0
H837 H 0.5539 0.29889 0.5381 0.0
H838 H 0.55542 0.32983 0.49645 0.0
H839 H 0.55701 0.38553 0.50358 0.0
H840 H 0.37839 0.57101 0.78563 0.0
H841 H 0.35739 0.61742 0.78615 0.0
H842 H 0.30386 0.57652 0.82586 0.0
H843 H 0.32535 0.53118 0.82596 0.0
H844 H 0.27205 0.6045 0.79698 0.0
H845 H 0.38422 0.68452 0.82792 0.0
H846 H 0.38412 0.65991 0.8103 0.0
H847 H 0.37531 0.64126 0.82929 0.0
C848 C 0.362 0.57181 0.79442 0.0
C849 C 0.35367 0.54726 0.80579 0.0
C850 C 0.34999 0.59827 0.79463 0.0
C851 C 0.3293 0.60031 0.8061 0.0
C852 C 0.31976 0.5752 0.81687 0.0
H853 H 0.25446 0.67594 0.87054 0.0
H854 H 0.29252 0.66708 0.85323 0.0
C855 C 0.33188 0.54906 0.81678 0.0
C856 C 0.31851 0.62908 0.80795 0.0
H857 H 0.33745 0.69779 0.83156 0.0
C858 C 0.28647 0.62569 0.80397 0.0
C859 C 0.33761 0.65648 0.81706 0.0
C860 C 0.37229 0.66107 0.82144 0.0
C861 C 0.27215 0.64718 0.8104 0.0
C862 C 0.29066 0.67289 0.82092 0.0
C863 C 0.3234 0.67816 0.82346 0.0
C864 C 0.27542 0.68873 0.83221 0.0
C865 C 0.23677 0.64002 0.80732 0.0
C866 C 0.2549 0.70626 0.82653 0.0
C867 C 0.23293 0.71142 0.83648 0.0
C868 C 0.2314 0.69918 0.85222 0.0
C869 C 0.25494 0.68573 0.85852 0.0
C870 C 0.27674 0.68052 0.84857 0.0
H871 H 0.22573 0.61748 0.79992 0.0
H872 H 0.22586 0.63761 0.81898 0.0
H873 H 0.23116 0.66022 0.80077 0.0
H874 H 0.254 0.71341 0.81402 0.0
H875 H 0.21543 0.72245 0.83142 0.0
H876 H 0.91214 0.36799 0.18341 0.0
H877 H 0.86458 0.32504 0.18858 0.0
H878 H 0.85141 0.29408 0.13828 0.0
H879 H 0.89918 0.3369 0.13304 0.0
H880 H 0.80304 0.31267 0.17559 0.0
H881 H 0.84997 0.21112 0.16156 0.0
H882 H 0.87486 0.25229 0.16422 0.0
H883 H 0.85049 0.23911 0.14556 0.0
C884 C 0.899 0.35218 0.17342 0.0
C885 C 0.90951 0.3557 0.15784 0.0
C886 C 0.87188 0.3276 0.1764 0.0
C887 C 0.85472 0.30607 0.16387 0.0
C888 C 0.8647 0.30996 0.1482 0.0
H889 H 0.66938 0.17332 0.18234 0.0
H890 H 0.71013 0.21258 0.16868 0.0
C891 C 0.89196 0.33444 0.14523 0.0
C892 C 0.82655 0.27951 0.16737 0.0
H893 H 0.79762 0.19742 0.16862 0.0
C894 C 0.80169 0.28745 0.17395 0.0
C895 C 0.82501 0.24665 0.1653 0.0
C896 C 0.85158 0.23664 0.15891 0.0
C897 C 0.77568 0.26345 0.17893 0.0
C898 C 0.77421 0.23058 0.17693 0.0
C899 C 0.79869 0.22262 0.16997 0.0
C900 C 0.74931 0.20436 0.18363 0.0
C901 C 0.75079 0.27356 0.18698 0.0
C902 C 0.75788 0.18564 0.19597 0.0
C903 C 0.73478 0.163 0.2036 0.0
C904 C 0.70257 0.15863 0.19907 0.0
C905 C 0.69399 0.17616 0.1861 0.0
C906 C 0.71722 0.19883 0.17841 0.0
H907 H 0.75871 0.29964 0.19052 0.0
H908 H 0.72922 0.26902 0.17843 0.0
H909 H 0.74441 0.25936 0.19796 0.0
H910 H 0.7825 0.18931 0.20009 0.0
H911 H 0.74215 0.1494 0.21332 0.0
H912 H 0.07126 0.51866 0.09698 0.0
H913 H 0.07714 0.52612 0.06803 0.0
H914 H 1.04831 0.6126 0.07018 0.0
H915 H 1.04257 0.60555 0.0991 0.0
H916 H 1.03131 0.53013 0.04292 0.0
H917 H 0.13251 0.64195 0.04921 0.0
H918 H 0.12079 0.61583 0.06594 0.0
H919 H 0.09943 0.64379 0.05972 0.0
C920 C 0.06616 0.53927 0.0913 0.0
C921 C 0.05657 0.56158 0.10037 0.0
C922 C 0.06956 0.54349 0.07477 0.0
C923 C 0.06369 0.5702 0.06706 0.0
C924 C 0.05358 0.59218 0.076 0.0
H925 H 1.02421 0.60098 0.96599 0.0
H926 H 1.02385 0.59289 0.99514 0.0
C927 C 0.0501 0.58796 0.0925 0.0
C928 C 0.06738 0.57473 0.04957 0.0
H929 H 0.10702 0.62737 0.0226 0.0
C930 C 1.04799 0.55127 0.03847 0.0
C931 C 0.08949 0.60212 0.04384 0.0
C932 C 0.11198 0.62725 0.05528 0.0
C933 C 1.04941 0.55499 0.02172 0.0
C934 C 0.07051 0.58308 0.01597 0.0
C935 C 0.09064 0.60603 0.02707 0.0
C936 C 0.07144 0.5893 -0.00155 0.0
C937 C 1.02835 0.52879 0.0103 0.0
C938 C 0.09873 0.59105 0.99077 0.0
C939 C 0.09902 0.59563 0.97407 0.0
C940 C 0.07203 0.59867 0.96481 0.0
C941 C 1.04514 0.59802 0.9727 0.0
C942 C 1.04488 0.59342 0.98935 0.0
H943 H 1.01975 0.50556 0.01649 0.0
H944 H 1.00749 0.53616 0.00551 0.0
H945 H 1.04096 0.52486 -0.00014 0.0
H946 H 0.11953 0.58811 -0.00237 0.0
H947 H 0.12002 0.59583 0.96833 0.0
H948 H 0.55577 0.04913 0.45469 0.0
H949 H 0.55957 0.05369 0.4256 0.0
H950 H 0.65512 0.04842 0.43205 0.0
H951 H 0.65148 0.04339 0.46131 0.0
H952 H 0.60221 0.10018 0.40857 0.0
H953 H 0.61128 0.97647 0.39795 0.0
H954 H 0.59893 0.98849 0.41653 0.0
H955 H 0.63989 1.00136 0.41291 0.0
C956 C 0.57766 0.04894 0.44999 0.0
C957 C 0.60327 0.04566 0.46034 0.0
C958 C 0.57978 0.05161 0.43334 0.0
C959 C 0.60746 0.05099 0.42668 0.0
C960 C 0.63334 0.04838 0.43695 0.0
H961 H 0.6355 0.0491 0.32331 0.0
H962 H 0.64547 0.05257 0.35293 0.0
C963 C 0.63125 0.04564 0.45367 0.0
C964 C 0.60873 0.05287 0.40892 0.0
H965 H 0.61132 0.0088 0.37517 0.0
C966 C 0.60444 0.08032 0.40127 0.0
C967 C 0.61175 0.02693 0.39946 0.0
C968 C 0.61549 0.9965 0.40706 0.0
C969 C 0.60246 0.08227 0.38434 0.0
C970 C 0.60437 0.05589 0.37487 0.0
C971 C 0.60981 0.02893 0.38252 0.0
C972 C 0.59886 0.05497 0.357 0.0
C973 C 0.5981 0.11244 0.37672 0.0
C974 C 0.56928 0.05486 0.34956 0.0
C975 C 0.56353 0.0529 0.3327 0.0
C976 C 0.58726 0.05091 0.32299 0.0
C977 C 0.6169 0.051 0.33049 0.0
C978 C 0.62258 0.05283 0.34737 0.0
H979 H 0.60586 0.13342 0.38542 0.0
H980 H 0.61145 0.1185 0.36588 0.0
H981 H 0.5727 0.10839 0.37284 0.0
H982 H 0.5505 0.05594 0.35681 0.0
H983 H 0.54056 0.05314 0.32727 0.0
H984 H 0.48794 0.45254 0.78042 0.0
H985 H 0.49287 0.45452 0.75122 0.0
H986 H 0.57545 0.53718 0.75899 0.0
H987 H 0.57118 0.53506 0.78812 0.0
H988 H 0.49206 0.50368 0.73005 0.0
H989 H 0.60651 0.47637 0.73205 0.0
H990 H 0.58308 0.4705 0.7491 0.0
H991 H 0.6076 0.51015 0.74487 0.0
C992 C 0.50723 0.47106 0.77592 0.0
C993 C 0.52931 0.49348 0.78661 0.0
C994 C 0.50997 0.47217 0.75924 0.0
C995 C 0.53484 0.49563 0.75299 0.0
C996 C 0.55653 0.51839 0.7636 0.0
H997 H 0.59173 0.54839 0.65712 0.0
H998 H 0.5843 0.54699 0.68609 0.0
C999 C 0.55392 0.51723 0.78025 0.0
C1000 C 0.53784 0.49674 0.73535 0.0
H1001 H 0.58814 0.49407 0.70694 0.0
C1002 C 0.51296 0.50138 0.72497 0.0
C1003 C 0.56517 0.49372 0.72879 0.0
C1004 C 0.59199 0.4871 0.73925 0.0
C1005 C 0.51496 0.50372 0.70819 0.0
C1006 C 0.54241 0.50105 0.70169 0.0
C1007 C 0.56722 0.4963 0.71204 0.0
C1008 C 0.54573 0.50264 0.68411 0.0
C1009 C 0.488 0.50963 0.69756 0.0
C1010 C 0.52652 0.47812 0.67349 0.0
C1011 C 0.5307 0.47884 0.65698 0.0
C1012 C 0.55419 0.50411 0.65083 0.0
C1013 C 0.57321 0.52883 0.6615 0.0
C1014 C 0.56911 0.52798 0.67802 0.0
H1015 H 0.47176 0.51796 0.70472 0.0
H1016 H 0.497 0.5279 0.6884 0.0
H1017 H 0.47426 0.48682 0.69099 0.0
H1018 H 0.50861 0.45816 0.67803 0.0
H1019 H 0.51555 0.45961 0.64903 0.0
H1020 H 0.62242 0.06211 0.56715 0.0
H1021 H 0.61504 0.05737 0.59599 0.0
H1022 H 0.53194 0.97627 0.58536 0.0
H1023 H 0.53914 0.98064 0.55641 0.0
H1024 H 0.55997 0.06082 0.61064 0.0
H1025 H 0.58602 0.94417 0.62126 0.0
H1026 H 0.59774 0.96809 0.60379 0.0
H1027 H 0.55738 0.94445 0.60457 0.0
C1028 C 0.60265 0.04311 0.57091 0.0
C1029 C 0.58138 0.02172 0.55946 0.0
C1030 C 0.59848 0.04048 0.5874 0.0
C1031 C 0.57316 0.01629 0.59278 0.0
C1032 C 0.55192 0.9948 0.58144 0.0
H1033 H 0.51568 0.97136 0.6901 0.0
H1034 H 0.51968 0.9709 0.6608 0.0
C1035 C 0.556 0.99746 0.5649 0.0
C1036 C 0.56849 0.01446 0.61024 0.0
H1037 H 0.56968 0.96782 0.6433 0.0
C1038 C 0.56208 0.0405 0.6178 0.0
C1039 C 0.57105 0.9878 0.61946 0.0
C1040 C 0.57865 0.95957 0.61195 0.0
C1041 C 0.55814 0.04064 0.63439 0.0
C1042 C 0.56141 0.01431 0.64372 0.0
C1043 C 0.56729 0.98799 0.63611 0.0
C1044 C 0.55952 0.01407 0.66147 0.0
C1045 C 0.55013 0.06878 0.64174 0.0
C1046 C 0.58102 0.03808 0.67155 0.0
C1047 C 0.57882 0.03839 0.68824 0.0
C1048 C 0.55523 0.01451 0.6952 0.0
C1049 C 0.53422 0.98997 0.68511 0.0
C1050 C 0.53639 0.98974 0.66838 0.0
H1051 H 0.53974 0.08198 0.6324 0.0
H1052 H 0.53325 0.06066 0.65106 0.0
H1053 H 0.572 0.08599 0.64764 0.0
H1054 H 0.59956 0.0566 0.6665 0.0
H1055 H 0.59574 0.05723 0.69573 0.0
H1056 H 0.56841 0.50758 0.89375 0.0
H1057 H 0.56588 0.51292 0.9229 0.0
H1058 H 0.46424 0.48294 0.91595 0.0
H1059 H 0.46635 0.47763 0.88666 0.0
H1060 H 0.52817 0.55454 0.93743 0.0
H1061 H 0.49425 0.42436 0.95268 0.0
H1062 H 0.51525 0.43914 0.93523 0.0
H1063 H 0.47429 0.43653 0.93505 0.0
C1064 C 0.54545 0.50185 0.89837 0.0
C1065 C 0.51755 0.49217 0.88784 0.0
C1066 C 0.54411 0.505 0.91503 0.0
C1067 C 0.51491 0.49818 0.92148 0.0
C1068 C 0.48698 0.48809 0.91113 0.0
H1069 H 0.46962 0.49786 0.02143 0.0
H1070 H 0.46731 0.49102 0.99202 0.0
C1071 C 0.48827 0.48516 0.89441 0.0
C1072 C 0.51384 0.50281 0.93903 0.0
H1073 H 0.50021 0.46209 0.97409 0.0
C1074 C 0.52201 0.5344 0.94549 0.0
C1075 C 0.50555 0.4764 0.94936 0.0
C1076 C 0.49692 0.44209 0.94285 0.0
C1077 C 0.52209 0.54034 0.96213 0.0
C1078 C 0.51465 0.51393 0.97259 0.0
C1079 C 0.50603 0.48228 0.96605 0.0
C1080 C 0.51604 0.5186 0.99038 0.0
C1081 C 0.52965 0.57482 0.96829 0.0
C1082 C 0.5443 0.53608 -0.00078 0.0
C1083 C 0.54559 0.54045 0.016 0.0
C1084 C 0.51872 0.52701 0.02429 0.0
C1085 C 0.49058 0.50904 0.0154 0.0
C1086 C 0.48928 0.50488 -0.00139 0.0
H1087 H 0.52534 0.59094 0.95851 0.0
H1088 H 0.51537 0.57671 0.97837 0.0
H1089 H 0.55498 0.5837 0.97284 0.0
H1090 H 0.56544 0.54627 0.99316 0.0
H1091 H 0.56757 0.55462 0.02243 0.0
H1092 H 1.02963 0.50462 0.20162 0.0
H1093 H 1.03119 0.50433 0.23124 0.0
H1094 H 0.0919 0.60243 0.2341 0.0
H1095 H 0.09078 0.60304 0.20453 0.0
H1096 H 0.0966 0.52703 0.25472 0.0
H1097 H 1.0068 0.59212 0.26007 0.0
H1098 H 1.00639 0.56753 0.24236 0.0
H1099 H 1.03589 0.6058 0.24578 0.0
C1100 C 1.04334 0.52616 0.20853 0.0
C1101 C 0.06008 0.55388 0.20071 0.0
C1102 C 1.0442 0.5259 0.22542 0.0
C1103 C 0.06153 0.5534 0.23473 0.0
C1104 C 0.07831 0.58105 0.22703 0.0
H1105 H 0.08347 0.60795 0.33634 0.0
H1106 H 0.0808 0.60611 0.30678 0.0
C1107 C 0.07768 0.58129 0.21015 0.0
C1108 C 0.06229 0.55322 0.25256 0.0
H1109 H 1.03163 0.57935 0.28436 0.0
C1110 C 0.08235 0.53831 0.26126 0.0
C1111 C 1.04382 0.56821 0.26091 0.0
C1112 C 1.02184 0.5843 0.2519 0.0
C1113 C 0.08481 0.53844 0.27826 0.0
C1114 C 0.06604 0.55316 0.28668 0.0
C1115 C 1.0459 0.568 0.27789 0.0
C1116 C 0.06736 0.55397 0.30462 0.0
C1117 C 0.10816 0.52365 0.28703 0.0
C1118 C 0.06022 0.52525 0.31321 0.0
C1119 C 0.06219 0.52622 0.33013 0.0
C1120 C 0.07095 0.55596 0.3388 0.0
C1121 C 0.07727 0.58466 0.3301 0.0
C1122 C 0.0755 0.58365 0.31318 0.0
H1123 H 0.12658 0.52173 0.2792 0.0
H1124 H 0.11993 0.53804 0.29815 0.0
H1125 H 0.09551 0.49892 0.29064 0.0
H1126 H 0.05318 0.50205 0.30683 0.0
H1127 H 0.05739 0.50365 0.33642 0.0
loop_
_geom_bond_atom_site_label_1
_geom_bond_atom_site_label_2
_geom_bond_distance
_geom_bond_site_symmetry_2
_ccdc_geom_bond_type
Dy0 O3 2.307 1_455 S
Dy0 O5 2.395 . S
Dy0 O6 2.379 . S
Dy0 O8 2.339 . S
Dy0 O10 2.298 . S
Dy0 O14 2.275 . S
Dy0 C22 2.738 . S
Dy1 O4 2.298 . S
Dy1 O7 2.275 1_655 S
Dy1 O9 2.307 1_655 S
Dy1 O11 2.395 . S
Dy1 O12 2.379 . S
Dy1 O15 2.339 . S
Dy1 C31 2.738 . S
C2 O14 1.254 . S
C2 O15 1.257 1_455 S
O3 Dy0 2.307 1_655 S
O3 C13 1.266 . S
O4 Dy1 2.298 . S
O4 C13 1.236 . S
O5 Dy0 2.395 . S
O5 C22 1.255 . S
O6 Dy0 2.379 . S
O6 C22 1.249 . S
O7 Dy1 2.275 1_455 S
O7 C23 1.254 . S
O8 Dy0 2.339 . S
O8 C23 1.257 . S
O9 Dy1 2.307 1_455 S
O9 C24 1.266 . S
O10 Dy0 2.298 . S
O10 C24 1.236 . S
O11 Dy1 2.395 . S
O11 C31 1.255 . S
O12 Dy1 2.379 . S
O12 C31 1.249 . S
C13 O3 1.266 . S
C13 O4 1.236 . S
O14 Dy0 2.275 . S
O14 C2 1.254 . S
O15 Dy1 2.339 . S
O15 C2 1.257 1_655 S
C16 C19 1.344 . S
C16 C20 1.328 . S
C16 C22 1.516 . S
C17 C18 1.304 . S
C17 C21 1.323 . S
C18 C17 1.304 . S
C18 C19 1.371 . S
C18 H32 0.930 . S
C19 C16 1.344 . S
C19 C18 1.371 . S
C19 H33 0.931 . S
C20 C16 1.328 . S
C20 C21 1.433 . S
C20 H34 0.931 . S
C21 C17 1.323 . S
C21 C20 1.433 . S
C21 H35 0.933 . S
C22 Dy0 2.738 . S
C22 O5 1.255 . S
C22 O6 1.249 . S
C22 C16 1.516 . S
C23 O7 1.254 . S
C23 O8 1.257 . S
C24 O9 1.266 . S
C24 O10 1.236 . S
C25 C28 1.344 . S
C25 C29 1.328 . S
C25 C31 1.516 . S
C26 C27 1.304 . S
C26 C30 1.323 . S
C27 C26 1.304 . S
C27 C28 1.371 . S
C27 H36 0.930 . S
C28 C25 1.344 . S
C28 C27 1.371 . S
C28 H37 0.931 . S
C29 C25 1.328 . S
C29 C30 1.433 . S
C29 H38 0.931 . S
C30 C26 1.323 . S
C30 C29 1.433 . S
C30 H39 0.933 . S
C31 Dy1 2.738 . S
C31 O11 1.255 . S
C31 O12 1.249 . S
C31 C25 1.516 . S
H32 C18 0.930 . S
H33 C19 0.931 . S
H34 C20 0.931 . S
H35 C21 0.933 . S
H36 C27 0.930 . S
H37 C28 0.931 . S
H38 C29 0.931 . S
H39 C30 0.933 . S
Dy40 O43 2.307 . S
Dy40 O45 2.395 1_545 S
Dy40 O46 2.379 1_545 S
Dy40 O48 2.339 . S
Dy40 O50 2.298 1_545 S
Dy40 O54 2.275 . S
Dy40 C62 2.738 1_545 S
Dy41 O44 2.298 . S
Dy41 O47 2.275 . S
Dy41 O49 2.307 1_545 S
Dy41 O51 2.395 . S
Dy41 O52 2.379 . S
Dy41 O55 2.339 . S
Dy41 C71 2.738 . S
C42 O54 1.254 . S
C42 O55 1.257 . S
O43 Dy40 2.307 . S
O43 C53 1.266 . S
O44 Dy41 2.298 . S
O44 C53 1.236 . S
O45 Dy40 2.395 1_565 S
O45 C62 1.255 . S
O46 Dy40 2.379 1_565 S
O46 C62 1.249 . S
O47 Dy41 2.275 . S
O47 C63 1.254 . S
O48 Dy40 2.339 . S
O48 C63 1.257 . S
O49 Dy41 2.307 1_565 S
O49 C64 1.266 . S
O50 Dy40 2.298 1_565 S
O50 C64 1.236 . S
O51 Dy41 2.395 . S
O51 C71 1.255 . S
O52 Dy41 2.379 . S
O52 C71 1.249 . S
C53 O43 1.266 . S
C53 O44 1.236 . S
O54 Dy40 2.275 . S
O54 C42 1.254 . S
O55 Dy41 2.339 . S
O55 C42 1.257 . S
C56 C59 1.344 . S
C56 C60 1.328 . S
C56 C62 1.516 . S
C57 C58 1.304 . S
C57 C61 1.323 . S
C58 C57 1.304 . S
C58 C59 1.371 . S
C58 H72 0.930 . S
C59 C56 1.344 . S
C59 C58 1.371 . S
C59 H73 0.931 . S
C60 C56 1.328 . S
C60 C61 1.433 . S
C60 H74 0.931 . S
C61 C57 1.323 . S
C61 C60 1.433 . S
C61 H75 0.933 . S
C62 Dy40 2.738 1_565 S
C62 O45 1.255 . S
C62 O46 1.249 . S
C62 C56 1.516 . S
C63 O47 1.254 . S
C63 O48 1.257 . S
C64 O49 1.266 . S
C64 O50 1.236 . S
C65 C68 1.344 . S
C65 C69 1.328 . S
C65 C71 1.516 . S
C66 C67 1.304 . S
C66 C70 1.323 . S
C67 C66 1.304 . S
C67 C68 1.371 . S
C67 H76 0.930 . S
C68 C65 1.344 . S
C68 C67 1.371 . S
C68 H77 0.931 . S
C69 C65 1.328 . S
C69 C70 1.433 . S
C69 H78 0.931 . S
C70 C66 1.323 . S
C70 C69 1.433 . S
C70 H79 0.933 . S
C71 Dy41 2.738 . S
C71 O51 1.255 . S
C71 O52 1.249 . S
C71 C65 1.516 . S
H72 C58 0.930 . S
H73 C59 0.931 . S
H74 C60 0.931 . S
H75 C61 0.933 . S
H76 C67 0.930 . S
H77 C68 0.931 . S
H78 C69 0.931 . S
H79 C70 0.933 . S
Dy80 O83 2.307 . S
Dy80 O85 2.395 . S
Dy80 O86 2.379 . S
Dy80 O88 2.339 . S
Dy80 O90 2.298 . S
Dy80 O94 2.275 . S
Dy80 C102 2.738 . S
Dy81 O84 2.298 . S
Dy81 O87 2.275 . S
Dy81 O89 2.307 . S
Dy81 O91 2.395 . S
Dy81 O92 2.379 . S
Dy81 O95 2.339 . S
Dy81 C111 2.738 . S
C82 O94 1.254 . S
C82 O95 1.257 . S
O83 Dy80 2.307 . S
O83 C93 1.266 . S
O84 Dy81 2.298 . S
O84 C93 1.236 . S
O85 Dy80 2.395 . S
O85 C102 1.255 . S
O86 Dy80 2.379 . S
O86 C102 1.249 . S
O87 Dy81 2.275 . S
O87 C103 1.254 . S
O88 Dy80 2.339 . S
O88 C103 1.257 . S
O89 Dy81 2.307 . S
O89 C104 1.266 . S
O90 Dy80 2.298 . S
O90 C104 1.236 . S
O91 Dy81 2.395 . S
O91 C111 1.255 . S
O92 Dy81 2.379 . S
O92 C111 1.249 . S
C93 O83 1.266 . S
C93 O84 1.236 . S
O94 Dy80 2.275 . S
O94 C82 1.254 . S
O95 Dy81 2.339 . S
O95 C82 1.257 . S
C96 C99 1.344 . S
C96 C100 1.328 . S
C96 C102 1.516 . S
C97 C98 1.304 . S
C97 C101 1.323 . S
C98 C97 1.304 . S
C98 C99 1.371 . S
C98 H112 0.930 . S
C99 C96 1.344 . S
C99 C98 1.371 . S
C99 H113 0.931 . S
C100 C96 1.328 . S
C100 C101 1.433 . S
C100 H114 0.931 . S
C101 C97 1.323 . S
C101 C100 1.433 . S
C101 H115 0.933 . S
C102 Dy80 2.738 . S
C102 O85 1.255 . S
C102 O86 1.249 . S
C102 C96 1.516 . S
C103 O87 1.254 . S
C103 O88 1.257 . S
C104 O89 1.266 . S
C104 O90 1.236 . S
C105 C108 1.344 . S
C105 C109 1.328 . S
C105 C111 1.516 . S
C106 C107 1.304 . S
C106 C110 1.323 . S
C107 C106 1.304 . S
C107 C108 1.371 . S
C107 H116 0.930 . S
C108 C105 1.344 . S
C108 C107 1.371 . S
C108 H117 0.931 . S
C109 C105 1.328 . S
C109 C110 1.433 . S
C109 H118 0.931 . S
C110 C106 1.323 . S
C110 C109 1.433 . S
C110 H119 0.933 . S
C111 Dy81 2.738 . S
C111 O91 1.255 . S
C111 O92 1.249 . S
C111 C105 1.516 . S
H112 C98 0.930 . S
H113 C99 0.931 . S
H114 C100 0.931 . S
H115 C101 0.933 . S
H116 C107 0.930 . S
H117 C108 0.931 . S
H118 C109 0.931 . S
H119 C110 0.933 . S
C120 C121 1.391 . S
C120 C124 1.391 . S
C120 H162 0.948 . S
C121 C120 1.391 . S
C121 C122 1.391 . S
C122 C121 1.391 . S
C122 H178 0.947 . S
C122 C179 1.392 . S
C123 C124 1.391 . S
C123 C127 1.397 . S
C123 C179 1.419 . S
C124 C120 1.391 . S
C124 C123 1.391 . S
C124 C125 1.399 . S
C125 C124 1.399 . S
C125 C128 1.396 . S
C125 C137 1.453 . S
C125 C138 1.684 . S
H126 C150 0.948 . S
C127 C123 1.397 . S
C127 C128 1.394 . S
C127 C146 1.723 . S
C128 C125 1.396 . S
C128 C127 1.394 . S
C128 C158 1.723 . S
H129 C152 0.947 . S
H130 C153 0.948 . S
H131 C159 0.982 . S
H132 C160 0.979 . S
H133 C160 0.980 . S
H134 C160 0.983 1_565 S
H135 C159 0.979 . S
H136 C159 0.977 . S
C137 C125 1.453 . S
C137 H166 0.982 . S
C137 H167 0.979 . S
C137 H168 0.977 . S
C138 C125 1.684 . S
C138 H163 0.979 . S
C138 H164 0.980 . S
C138 H165 0.983 . S
C139 C140 1.391 . S
C139 C144 1.391 . S
C139 H169 0.948 . S
C140 C139 1.391 . S
C140 C141 1.391 . S
C141 C140 1.391 . S
C141 C142 1.392 . S
C141 H170 0.947 . S
C142 C141 1.392 . S
C142 C143 1.419 . S
C142 H171 0.948 . S
C143 C142 1.419 . S
C143 C144 1.391 . S
C143 C147 1.397 . S
C144 C139 1.391 . S
C144 C143 1.391 . S
C144 C145 1.399 . S
C145 C144 1.399 . S
C145 C146 1.396 . S
C145 C148 1.453 . S
C145 C149 1.684 . S
C146 C127 1.723 . S
C146 C145 1.396 . S
C146 C147 1.394 . S
C147 C143 1.397 . S
C147 C146 1.394 . S
C147 C157 1.723 . S
C148 C145 1.453 . S
C148 H172 0.982 . S
C148 H173 0.979 . S
C148 H174 0.977 . S
C149 C145 1.684 . S
C149 H175 0.979 . S
C149 H176 0.980 . S
C149 H177 0.983 . S
C150 H126 0.948 . S
C150 C151 1.391 . S
C150 C155 1.391 . S
C151 C150 1.391 . S
C151 C152 1.391 . S
C152 H129 0.947 . S
C152 C151 1.391 . S
C152 C153 1.392 1_565 S
C153 H130 0.948 . S
C153 C152 1.392 1_545 S
C153 C154 1.419 . S
C154 C153 1.419 . S
C154 C155 1.391 1_545 S
C154 C158 1.397 . S
C155 C150 1.391 . S
C155 C154 1.391 1_565 S
C155 C156 1.399 1_565 S
C156 C155 1.399 1_545 S
C156 C157 1.396 . S
C156 C159 1.453 1_545 S
C156 C160 1.684 . S
C157 C147 1.723 . S
C157 C156 1.396 . S
C157 C158 1.394 . S
C158 C128 1.723 . S
C158 C154 1.397 . S
C158 C157 1.394 . S
C159 H131 0.982 . S
C159 H135 0.979 . S
C159 H136 0.977 . S
C159 C156 1.453 1_565 S
C160 H132 0.979 . S
C160 H133 0.980 . S
C160 H134 0.983 1_545 S
C160 C156 1.684 . S
H161 C179 0.948 . S
H162 C120 0.948 . S
H163 C138 0.979 . S
H164 C138 0.980 . S
H165 C138 0.983 . S
H166 C137 0.982 . S
H167 C137 0.979 . S
H168 C137 0.977 . S
H169 C139 0.948 . S
H170 C141 0.947 . S
H171 C142 0.948 . S
H172 C148 0.982 . S
H173 C148 0.979 . S
H174 C148 0.977 . S
H175 C149 0.979 . S
H176 C149 0.980 . S
H177 C149 0.983 . S
H178 C122 0.947 . S
C179 C122 1.392 . S
C179 C123 1.419 . S
C179 H161 0.948 . S
C180 C181 1.391 . S
C180 C184 1.391 . S
C180 H222 0.948 . S
C181 C180 1.391 . S
C181 C182 1.391 . S
C182 C181 1.391 . S
C182 H238 0.947 . S
C182 C239 1.392 . S
C183 C184 1.391 . S
C183 C187 1.397 . S
C183 C239 1.419 . S
C184 C180 1.391 . S
C184 C183 1.391 . S
C184 C185 1.399 . S
C185 C184 1.399 . S
C185 C188 1.396 . S
C185 C197 1.453 . S
C185 C198 1.684 . S
H186 C210 0.948 . S
C187 C183 1.397 . S
C187 C188 1.394 . S
C187 C206 1.723 . S
C188 C185 1.396 . S
C188 C187 1.394 . S
C188 C218 1.723 . S
H189 C212 0.947 . S
H190 C213 0.948 . S
H191 C219 0.982 . S
H192 C220 0.979 . S
H193 C220 0.980 . S
H194 C220 0.983 . S
H195 C219 0.979 . S
H196 C219 0.977 . S
C197 C185 1.453 . S
C197 H226 0.982 . S
C197 H227 0.979 . S
C197 H228 0.977 . S
C198 C185 1.684 . S
C198 H223 0.979 . S
C198 H224 0.980 . S
C198 H225 0.983 . S
C199 C200 1.391 . S
C199 C204 1.391 . S
C199 H229 0.948 . S
C200 C199 1.391 . S
C200 C201 1.391 . S
C201 C200 1.391 . S
C201 C202 1.392 . S
C201 H230 0.947 . S
C202 C201 1.392 . S
C202 C203 1.419 . S
C202 H231 0.948 . S
C203 C202 1.419 . S
C203 C204 1.391 . S
C203 C207 1.397 . S
C204 C199 1.391 . S
C204 C203 1.391 . S
C204 C205 1.399 . S
C205 C204 1.399 . S
C205 C206 1.396 . S
C205 C208 1.453 . S
C205 C209 1.684 . S
C206 C187 1.723 . S
C206 C205 1.396 . S
C206 C207 1.394 . S
C207 C203 1.397 . S
C207 C206 1.394 . S
C207 C217 1.723 . S
C208 C205 1.453 . S
C208 H232 0.982 . S
C208 H233 0.979 . S
C208 H234 0.977 . S
C209 C205 1.684 . S
C209 H235 0.979 . S
C209 H236 0.980 . S
C209 H237 0.983 . S
C210 H186 0.948 . S
C210 C211 1.391 . S
C210 C215 1.391 . S
C211 C210 1.391 . S
C211 C212 1.391 . S
C212 H189 0.947 . S
C212 C211 1.391 . S
C212 C213 1.392 . S
C213 H190 0.948 . S
C213 C212 1.392 . S
C213 C214 1.419 . S
C214 C213 1.419 . S
C214 C215 1.391 . S
C214 C218 1.397 . S
C215 C210 1.391 . S
C215 C214 1.391 . S
C215 C216 1.399 . S
C216 C215 1.399 . S
C216 C217 1.396 . S
C216 C219 1.453 . S
C216 C220 1.684 . S
C217 C207 1.723 . S
C217 C216 1.396 . S
C217 C218 1.394 . S
C218 C188 1.723 . S
C218 C214 1.397 . S
C218 C217 1.394 . S
C219 H191 0.982 . S
C219 H195 0.979 . S
C219 H196 0.977 . S
C219 C216 1.453 . S
C220 H192 0.979 . S
C220 H193 0.980 . S
C220 H194 0.983 . S
C220 C216 1.684 . S
H221 C239 0.948 . S
H222 C180 0.948 . S
H223 C198 0.979 . S
H224 C198 0.980 . S
H225 C198 0.983 . S
H226 C197 0.982 . S
H227 C197 0.979 . S
H228 C197 0.977 . S
H229 C199 0.948 . S
H230 C201 0.947 . S
H231 C202 0.948 . S
H232 C208 0.982 . S
H233 C208 0.979 . S
H234 C208 0.977 . S
H235 C209 0.979 . S
H236 C209 0.980 . S
H237 C209 0.983 . S
H238 C182 0.947 . S
C239 C182 1.392 . S
C239 C183 1.419 . S
C239 H221 0.948 . S
C240 C241 1.391 . S
C240 C244 1.391 . S
C240 H282 0.948 . S
C241 C240 1.391 . S
C241 C242 1.391 . S
C242 C241 1.391 . S
C242 H298 0.947 . S
C242 C299 1.392 . S
C243 C244 1.391 . S
C243 C247 1.397 . S
C243 C299 1.419 . S
C244 C240 1.391 . S
C244 C243 1.391 . S
C244 C245 1.399 . S
C245 C244 1.399 . S
C245 C248 1.396 . S
C245 C257 1.453 . S
C245 C258 1.684 . S
H246 C270 0.948 . S
C247 C243 1.397 . S
C247 C248 1.394 . S
C247 C266 1.723 . S
C248 C245 1.396 . S
C248 C247 1.394 . S
C248 C278 1.723 1_455 S
H249 C272 0.947 . S
H250 C273 0.948 . S
H251 C279 0.982 . S
H252 C280 0.979 . S
H253 C280 0.980 . S
H254 C280 0.983 . S
H255 C279 0.979 . S
H256 C279 0.977 . S
C257 C245 1.453 . S
C257 H286 0.982 . S
C257 H287 0.979 . S
C257 H288 0.977 . S
C258 C245 1.684 . S
C258 H283 0.979 . S
C258 H284 0.980 . S
C258 H285 0.983 . S
C259 C260 1.391 . S
C259 C264 1.391 . S
C259 H289 0.948 . S
C260 C259 1.391 . S
C260 C261 1.391 1_455 S
C261 C260 1.391 1_655 S
C261 C262 1.392 . S
C261 H290 0.947 . S
C262 C261 1.392 . S
C262 C263 1.419 1_655 S
C262 H291 0.948 . S
C263 C262 1.419 1_455 S
C263 C264 1.391 . S
C263 C267 1.397 . S
C264 C259 1.391 . S
C264 C263 1.391 . S
C264 C265 1.399 . S
C265 C264 1.399 . S
C265 C266 1.396 . S
C265 C268 1.453 . S
C265 C269 1.684 . S
C266 C247 1.723 . S
C266 C265 1.396 . S
C266 C267 1.394 . S
C267 C263 1.397 . S
C267 C266 1.394 . S
C267 C277 1.723 1_455 S
C268 C265 1.453 . S
C268 H292 0.982 . S
C268 H293 0.979 . S
C268 H294 0.977 . S
C269 C265 1.684 . S
C269 H295 0.979 . S
C269 H296 0.980 . S
C269 H297 0.983 . S
C270 H246 0.948 . S
C270 C271 1.391 . S
C270 C275 1.391 . S
C271 C270 1.391 . S
C271 C272 1.391 . S
C272 H249 0.947 . S
C272 C271 1.391 . S
C272 C273 1.392 . S
C273 H250 0.948 . S
C273 C272 1.392 . S
C273 C274 1.419 . S
C274 C273 1.419 . S
C274 C275 1.391 . S
C274 C278 1.397 . S
C275 C270 1.391 . S
C275 C274 1.391 . S
C275 C276 1.399 . S
C276 C275 1.399 . S
C276 C277 1.396 . S
C276 C279 1.453 . S
C276 C280 1.684 . S
C277 C267 1.723 1_655 S
C277 C276 1.396 . S
C277 C278 1.394 . S
C278 C248 1.723 1_655 S
C278 C274 1.397 . S
C278 C277 1.394 . S
C279 H251 0.982 . S
C279 H255 0.979 . S
C279 H256 0.977 . S
C279 C276 1.453 . S
C280 H252 0.979 . S
C280 H253 0.980 . S
C280 H254 0.983 . S
C280 C276 1.684 . S
H281 C299 0.948 . S
H282 C240 0.948 . S
H283 C258 0.979 . S
H284 C258 0.980 . S
H285 C258 0.983 . S
H286 C257 0.982 . S
H287 C257 0.979 . S
H288 C257 0.977 . S
H289 C259 0.948 . S
H290 C261 0.947 . S
H291 C262 0.948 . S
H292 C268 0.982 . S
H293 C268 0.979 . S
H294 C268 0.977 . S
H295 C269 0.979 . S
H296 C269 0.980 . S
H297 C269 0.983 . S
H298 C242 0.947 . S
C299 C242 1.392 . S
C299 C243 1.419 . S
C299 H281 0.948 . S
C300 C301 1.391 . S
C300 C304 1.391 . S
C300 H342 0.948 . S
C301 C300 1.391 . S
C301 C302 1.391 . S
C302 C301 1.391 . S
C302 H358 0.947 . S
C302 C359 1.392 . S
C303 C304 1.391 . S
C303 C307 1.397 . S
C303 C359 1.419 . S
C304 C300 1.391 . S
C304 C303 1.391 . S
C304 C305 1.399 . S
C305 C304 1.399 . S
C305 C308 1.396 1_655 S
C305 C317 1.453 1_655 S
C305 C318 1.684 . S
H306 C330 0.948 . S
C307 C303 1.397 . S
C307 C308 1.394 1_655 S
C307 C326 1.723 . S
C308 C305 1.396 1_455 S
C308 C307 1.394 1_455 S
C308 C338 1.723 . S
H309 C332 0.947 . S
H310 C333 0.948 . S
H311 C339 0.982 . S
H312 C340 0.979 . S
H313 C340 0.980 . S
H314 C340 0.983 . S
H315 C339 0.979 . S
H316 C339 0.977 . S
C317 C305 1.453 1_455 S
C317 H346 0.982 . S
C317 H347 0.979 . S
C317 H348 0.977 . S
C318 C305 1.684 . S
C318 H343 0.979 . S
C318 H344 0.980 1_655 S
C318 H345 0.983 . S
C319 C320 1.391 1_655 S
C319 C324 1.391 . S
C319 H349 0.948 . S
C320 C319 1.391 1_455 S
C320 C321 1.391 . S
C321 C320 1.391 . S
C321 C322 1.392 . S
C321 H350 0.947 . S
C322 C321 1.392 . S
C322 C323 1.419 . S
C322 H351 0.948 . S
C323 C322 1.419 . S
C323 C324 1.391 1_455 S
C323 C327 1.397 . S
C324 C319 1.391 . S
C324 C323 1.391 1_655 S
C324 C325 1.399 . S
C325 C324 1.399 . S
C325 C326 1.396 . S
C325 C328 1.453 . S
C325 C329 1.684 . S
C326 C307 1.723 . S
C326 C325 1.396 . S
C326 C327 1.394 1_655 S
C327 C323 1.397 . S
C327 C326 1.394 1_455 S
C327 C337 1.723 . S
C328 C325 1.453 . S
C328 H352 0.982 . S
C328 H353 0.979 . S
C328 H354 0.977 . S
C329 C325 1.684 . S
C329 H355 0.979 . S
C329 H356 0.980 . S
C329 H357 0.983 . S
C330 H306 0.948 . S
C330 C331 1.391 . S
C330 C335 1.391 . S
C331 C330 1.391 . S
C331 C332 1.391 . S
C332 H309 0.947 . S
C332 C331 1.391 . S
C332 C333 1.392 . S
C333 H310 0.948 . S
C333 C332 1.392 . S
C333 C334 1.419 . S
C334 C333 1.419 . S
C334 C335 1.391 . S
C334 C338 1.397 . S
C335 C330 1.391 . S
C335 C334 1.391 . S
C335 C336 1.399 . S
C336 C335 1.399 . S
C336 C337 1.396 . S
C336 C339 1.453 . S
C336 C340 1.684 . S
C337 C327 1.723 . S
C337 C336 1.396 . S
C337 C338 1.394 . S
C338 C308 1.723 . S
C338 C334 1.397 . S
C338 C337 1.394 . S
C339 H311 0.982 . S
C339 H315 0.979 . S
C339 H316 0.977 . S
C339 C336 1.453 . S
C340 H312 0.979 . S
C340 H313 0.980 . S
C340 H314 0.983 . S
C340 C336 1.684 . S
H341 C359 0.948 . S
H342 C300 0.948 . S
H343 C318 0.979 . S
H344 C318 0.980 1_455 S
H345 C318 0.983 . S
H346 C317 0.982 . S
H347 C317 0.979 . S
H348 C317 0.977 . S
H349 C319 0.948 . S
H350 C321 0.947 . S
H351 C322 0.948 . S
H352 C328 0.982 . S
H353 C328 0.979 . S
H354 C328 0.977 . S
H355 C329 0.979 . S
H356 C329 0.980 . S
H357 C329 0.983 . S
H358 C302 0.947 . S
C359 C302 1.392 . S
C359 C303 1.419 . S
C359 H341 0.948 . S
C360 C361 1.391 . S
C360 C364 1.391 . S
C360 H402 0.948 . S
C361 C360 1.391 . S
C361 C362 1.391 . S
C362 C361 1.391 . S
C362 H418 0.947 . S
C362 C419 1.392 . S
C363 C364 1.391 . S
C363 C367 1.397 . S
C363 C419 1.419 . S
C364 C360 1.391 . S
C364 C363 1.391 . S
C364 C365 1.399 . S
C365 C364 1.399 . S
C365 C368 1.396 . S
C365 C377 1.453 . S
C365 C378 1.684 . S
H366 C390 0.948 . S
C367 C363 1.397 . S
C367 C368 1.394 . S
C367 C386 1.723 . S
C368 C365 1.396 . S
C368 C367 1.394 . S
C368 C398 1.723 1_565 S
H369 C392 0.947 . S
H370 C393 0.948 . S
H371 C399 0.982 . S
H372 C400 0.979 . S
H373 C400 0.980 . S
H374 C400 0.983 . S
H375 C399 0.979 . S
H376 C399 0.977 . S
C377 C365 1.453 . S
C377 H406 0.982 1_565 S
C377 H407 0.979 . S
C377 H408 0.977 1_565 S
C378 C365 1.684 . S
C378 H403 0.979 . S
C378 H404 0.980 1_565 S
C378 H405 0.983 . S
C379 C380 1.391 1_565 S
C379 C384 1.391 . S
C379 H409 0.948 . S
C380 C379 1.391 1_545 S
C380 C381 1.391 . S
C381 C380 1.391 . S
C381 C382 1.392 . S
C381 H410 0.947 . S
C382 C381 1.392 . S
C382 C383 1.419 . S
C382 H411 0.948 . S
C383 C382 1.419 . S
C383 C384 1.391 1_545 S
C383 C387 1.397 . S
C384 C379 1.391 . S
C384 C383 1.391 1_565 S
C384 C385 1.399 . S
C385 C384 1.399 . S
C385 C386 1.396 . S
C385 C388 1.453 . S
C385 C389 1.684 . S
C386 C367 1.723 . S
C386 C385 1.396 . S
C386 C387 1.394 1_565 S
C387 C383 1.397 . S
C387 C386 1.394 1_545 S
C387 C397 1.723 . S
C388 C385 1.453 . S
C388 H412 0.982 . S
C388 H413 0.979 . S
C388 H414 0.977 . S
C389 C385 1.684 . S
C389 H415 0.979 . S
C389 H416 0.980 . S
C389 H417 0.983 . S
C390 H366 0.948 . S
C390 C391 1.391 . S
C390 C395 1.391 . S
C391 C390 1.391 . S
C391 C392 1.391 . S
C392 H369 0.947 . S
C392 C391 1.391 . S
C392 C393 1.392 . S
C393 H370 0.948 . S
C393 C392 1.392 . S
C393 C394 1.419 . S
C394 C393 1.419 . S
C394 C395 1.391 . S
C394 C398 1.397 . S
C395 C390 1.391 . S
C395 C394 1.391 . S
C395 C396 1.399 . S
C396 C395 1.399 . S
C396 C397 1.396 . S
C396 C399 1.453 . S
C396 C400 1.684 . S
C397 C387 1.723 . S
C397 C396 1.396 . S
C397 C398 1.394 . S
C398 C368 1.723 1_545 S
C398 C394 1.397 . S
C398 C397 1.394 . S
C399 H371 0.982 . S
C399 H375 0.979 . S
C399 H376 0.977 . S
C399 C396 1.453 . S
C400 H372 0.979 . S
C400 H373 0.980 . S
C400 H374 0.983 . S
C400 C396 1.684 . S
H401 C419 0.948 . S
H402 C360 0.948 . S
H403 C378 0.979 . S
H404 C378 0.980 1_545 S
H405 C378 0.983 . S
H406 C377 0.982 1_545 S
H407 C377 0.979 . S
H408 C377 0.977 1_545 S
H409 C379 0.948 . S
H410 C381 0.947 . S
H411 C382 0.948 . S
H412 C388 0.982 . S
H413 C388 0.979 . S
H414 C388 0.977 . S
H415 C389 0.979 . S
H416 C389 0.980 . S
H417 C389 0.983 . S
H418 C362 0.947 . S
C419 C362 1.392 . S
C419 C363 1.419 . S
C419 H401 0.948 . S
C420 C421 1.391 . S
C420 C424 1.391 . S
C420 H462 0.948 . S
C421 C420 1.391 . S
C421 C422 1.391 . S
C422 C421 1.391 . S
C422 H478 0.947 . S
C422 C479 1.392 . S
C423 C424 1.391 . S
C423 C427 1.397 . S
C423 C479 1.419 . S
C424 C420 1.391 . S
C424 C423 1.391 . S
C424 C425 1.399 . S
C425 C424 1.399 . S
C425 C428 1.396 . S
C425 C437 1.453 . S
C425 C438 1.684 . S
H426 C450 0.948 . S
C427 C423 1.397 . S
C427 C428 1.394 . S
C427 C446 1.723 . S
C428 C425 1.396 . S
C428 C427 1.394 . S
C428 C458 1.723 . S
H429 C452 0.947 . S
H430 C453 0.948 . S
H431 C459 0.982 . S
H432 C460 0.979 . S
H433 C460 0.980 . S
H434 C460 0.983 . S
H435 C459 0.979 . S
H436 C459 0.977 . S
C437 C425 1.453 . S
C437 H466 0.982 . S
C437 H467 0.979 . S
C437 H468 0.977 . S
C438 C425 1.684 . S
C438 H463 0.979 . S
C438 H464 0.980 . S
C438 H465 0.983 . S
C439 C440 1.391 . S
C439 C444 1.391 . S
C439 H469 0.948 . S
C440 C439 1.391 . S
C440 C441 1.391 . S
C441 C440 1.391 . S
C441 C442 1.392 . S
C441 H470 0.947 . S
C442 C441 1.392 . S
C442 C443 1.419 . S
C442 H471 0.948 . S
C443 C442 1.419 . S
C443 C444 1.391 . S
C443 C447 1.397 . S
C444 C439 1.391 . S
C444 C443 1.391 . S
C444 C445 1.399 . S
C445 C444 1.399 . S
C445 C446 1.396 . S
C445 C448 1.453 . S
C445 C449 1.684 . S
C446 C427 1.723 . S
C446 C445 1.396 . S
C446 C447 1.394 . S
C447 C443 1.397 . S
C447 C446 1.394 . S
C447 C457 1.723 . S
C448 C445 1.453 . S
C448 H472 0.982 . S
C448 H473 0.979 . S
C448 H474 0.977 . S
C449 C445 1.684 . S
C449 H475 0.979 . S
C449 H476 0.980 . S
C449 H477 0.983 . S
C450 H426 0.948 . S
C450 C451 1.391 . S
C450 C455 1.391 . S
C451 C450 1.391 . S
C451 C452 1.391 . S
C452 H429 0.947 . S
C452 C451 1.391 . S
C452 C453 1.392 . S
C453 H430 0.948 . S
C453 C452 1.392 . S
C453 C454 1.419 . S
C454 C453 1.419 . S
C454 C455 1.391 . S
C454 C458 1.397 . S
C455 C450 1.391 . S
C455 C454 1.391 . S
C455 C456 1.399 . S
C456 C455 1.399 . S
C456 C457 1.396 . S
C456 C459 1.453 . S
C456 C460 1.684 . S
C457 C447 1.723 . S
C457 C456 1.396 . S
C457 C458 1.394 . S
C458 C428 1.723 . S
C458 C454 1.397 . S
C458 C457 1.394 . S
C459 H431 0.982 . S
C459 H435 0.979 . S
C459 H436 0.977 . S
C459 C456 1.453 . S
C460 H432 0.979 . S
C460 H433 0.980 . S
C460 H434 0.983 . S
C460 C456 1.684 . S
H461 C479 0.948 . S
H462 C420 0.948 . S
H463 C438 0.979 . S
H464 C438 0.980 . S
H465 C438 0.983 . S
H466 C437 0.982 . S
H467 C437 0.979 . S
H468 C437 0.977 . S
H469 C439 0.948 . S
H470 C441 0.947 . S
H471 C442 0.948 . S
H472 C448 0.982 . S
H473 C448 0.979 . S
H474 C448 0.977 . S
H475 C449 0.979 . S
H476 C449 0.980 . S
H477 C449 0.983 . S
H478 C422 0.947 . S
C479 C422 1.392 . S
C479 C423 1.419 . S
C479 H461 0.948 . S
H480 C488 0.929 . S
H481 C490 0.930 . S
H482 C492 0.930 . S
H483 C495 0.929 . S
H484 C498 0.930 . S
H485 C500 0.960 . S
H486 C500 0.960 . S
H487 C500 0.960 . S
C488 H480 0.929 . S
C488 C489 1.377 . S
C488 C490 1.384 . S
C489 C488 1.377 . S
C489 C495 1.390 . S
C490 H481 0.930 . S
C490 C488 1.384 . S
C490 C491 1.372 . S
C491 C490 1.372 . S
C491 C492 1.400 . S
C491 C496 1.490 . S
C492 H482 0.930 . S
C492 C491 1.400 . S
C492 C495 1.386 . S
H493 C509 0.930 . S
H494 C510 0.931 . S
C495 H483 0.929 . S
C495 C489 1.390 . S
C495 C492 1.386 . S
C496 C491 1.490 . S
C496 C498 1.395 . S
C496 C499 1.403 . S
H497 C503 0.930 . S
C498 H484 0.930 . S
C498 C496 1.395 . S
C498 C501 1.403 . S
C499 C496 1.403 . S
C499 C500 1.524 . S
C499 C503 1.400 . S
C500 H485 0.960 . S
C500 H486 0.960 . S
C500 H487 0.960 . S
C500 C499 1.524 . S
C501 C498 1.403 . S
C501 C502 1.392 . S
C501 C505 1.495 . S
C502 C501 1.392 . S
C502 C503 1.385 . S
C502 C504 1.478 . S
C503 H497 0.930 . S
C503 C499 1.400 . S
C503 C502 1.385 . S
C504 C502 1.478 . S
C504 C506 1.381 . S
C504 C510 1.383 . S
C505 C501 1.495 . S
C505 H511 0.959 . S
C505 H512 0.961 . S
C505 H513 0.960 . S
C506 C504 1.381 . S
C506 C507 1.394 . S
C506 H514 0.930 . S
C507 C506 1.394 . S
C507 C508 1.383 . S
C507 H515 0.929 . S
C508 C507 1.383 . S
C508 C509 1.377 . S
C509 H493 0.930 . S
C509 C508 1.377 . S
C509 C510 1.379 . S
C510 H494 0.931 . S
C510 C504 1.383 . S
C510 C509 1.379 . S
H511 C505 0.959 . S
H512 C505 0.961 . S
H513 C505 0.960 . S
H514 C506 0.930 . S
H515 C507 0.929 . S
H516 C524 0.929 . S
H517 C526 0.930 . S
H518 C528 0.930 . S
H519 C531 0.929 . S
H520 C534 0.930 . S
H521 C536 0.960 . S
H522 C536 0.960 . S
H523 C536 0.960 . S
C524 H516 0.929 . S
C524 C525 1.377 . S
C524 C526 1.384 . S
C525 C524 1.377 . S
C525 C531 1.390 . S
C526 H517 0.930 . S
C526 C524 1.384 . S
C526 C527 1.372 . S
C527 C526 1.372 . S
C527 C528 1.400 . S
C527 C532 1.490 . S
C528 H518 0.930 . S
C528 C527 1.400 . S
C528 C531 1.386 . S
H529 C545 0.930 . S
H530 C546 0.931 . S
C531 H519 0.929 . S
C531 C525 1.390 . S
C531 C528 1.386 . S
C532 C527 1.490 . S
C532 C534 1.395 . S
C532 C535 1.403 . S
H533 C539 0.930 . S
C534 H520 0.930 . S
C534 C532 1.395 . S
C534 C537 1.403 . S
C535 C532 1.403 . S
C535 C536 1.524 . S
C535 C539 1.400 . S
C536 H521 0.960 . S
C536 H522 0.960 . S
C536 H523 0.960 . S
C536 C535 1.524 . S
C537 C534 1.403 . S
C537 C538 1.392 . S
C537 C541 1.495 . S
C538 C537 1.392 . S
C538 C539 1.385 . S
C538 C540 1.478 . S
C539 H533 0.930 . S
C539 C535 1.400 . S
C539 C538 1.385 . S
C540 C538 1.478 . S
C540 C542 1.381 . S
C540 C546 1.383 . S
C541 C537 1.495 . S
C541 H547 0.959 . S
C541 H548 0.961 . S
C541 H549 0.960 . S
C542 C540 1.381 . S
C542 C543 1.394 . S
C542 H550 0.930 . S
C543 C542 1.394 . S
C543 C544 1.383 . S
C543 H551 0.929 . S
C544 C543 1.383 . S
C544 C545 1.377 . S
C545 H529 0.930 . S
C545 C544 1.377 . S
C545 C546 1.379 . S
C546 H530 0.931 . S
C546 C540 1.383 . S
C546 C545 1.379 . S
H547 C541 0.959 . S
H548 C541 0.961 . S
H549 C541 0.960 . S
H550 C542 0.930 . S
H551 C543 0.929 . S
H552 C560 0.929 . S
H553 C562 0.930 . S
H554 C564 0.930 . S
H555 C567 0.929 . S
H556 C570 0.930 . S
H557 C572 0.960 . S
H558 C572 0.960 . S
H559 C572 0.960 . S
C560 H552 0.929 . S
C560 C561 1.377 . S
C560 C562 1.384 . S
C561 C560 1.377 . S
C561 C567 1.390 . S
C562 H553 0.930 . S
C562 C560 1.384 . S
C562 C563 1.372 . S
C563 C562 1.372 . S
C563 C564 1.400 . S
C563 C568 1.490 . S
C564 H554 0.930 . S
C564 C563 1.400 . S
C564 C567 1.386 . S
H565 C581 0.930 . S
H566 C582 0.931 . S
C567 H555 0.929 . S
C567 C561 1.390 . S
C567 C564 1.386 . S
C568 C563 1.490 . S
C568 C570 1.395 . S
C568 C571 1.403 . S
H569 C575 0.930 . S
C570 H556 0.930 . S
C570 C568 1.395 . S
C570 C573 1.403 . S
C571 C568 1.403 . S
C571 C572 1.524 . S
C571 C575 1.400 . S
C572 H557 0.960 . S
C572 H558 0.960 . S
C572 H559 0.960 . S
C572 C571 1.524 . S
C573 C570 1.403 . S
C573 C574 1.392 . S
C573 C577 1.495 . S
C574 C573 1.392 . S
C574 C575 1.385 . S
C574 C576 1.478 . S
C575 H569 0.930 . S
C575 C571 1.400 . S
C575 C574 1.385 . S
C576 C574 1.478 . S
C576 C578 1.381 . S
C576 C582 1.383 . S
C577 C573 1.495 . S
C577 H583 0.959 . S
C577 H584 0.961 . S
C577 H585 0.960 . S
C578 C576 1.381 . S
C578 C579 1.394 . S
C578 H586 0.930 . S
C579 C578 1.394 . S
C579 C580 1.383 . S
C579 H587 0.929 . S
C580 C579 1.383 . S
C580 C581 1.377 . S
C581 H565 0.930 . S
C581 C580 1.377 . S
C581 C582 1.379 . S
C582 H566 0.931 . S
C582 C576 1.383 . S
C582 C581 1.379 . S
H583 C577 0.959 . S
H584 C577 0.961 . S
H585 C577 0.960 . S
H586 C578 0.930 . S
H587 C579 0.929 . S
H588 C596 0.929 . S
H589 C598 0.930 . S
H590 C600 0.930 . S
H591 C603 0.929 . S
H592 C606 0.930 . S
H593 C608 0.960 . S
H594 C608 0.960 . S
H595 C608 0.960 . S
C596 H588 0.929 . S
C596 C597 1.377 . S
C596 C598 1.384 . S
C597 C596 1.377 . S
C597 C603 1.390 . S
C598 H589 0.930 . S
C598 C596 1.384 . S
C598 C599 1.372 . S
C599 C598 1.372 . S
C599 C600 1.400 . S
C599 C604 1.490 . S
C600 H590 0.930 . S
C600 C599 1.400 . S
C600 C603 1.386 . S
H601 C617 0.930 . S
H602 C618 0.931 . S
C603 H591 0.929 . S
C603 C597 1.390 . S
C603 C600 1.386 . S
C604 C599 1.490 . S
C604 C606 1.395 . S
C604 C607 1.403 . S
H605 C611 0.930 . S
C606 H592 0.930 . S
C606 C604 1.395 . S
C606 C609 1.403 . S
C607 C604 1.403 . S
C607 C608 1.524 . S
C607 C611 1.400 . S
C608 H593 0.960 . S
C608 H594 0.960 . S
C608 H595 0.960 . S
C608 C607 1.524 . S
C609 C606 1.403 . S
C609 C610 1.392 . S
C609 C613 1.495 . S
C610 C609 1.392 . S
C610 C611 1.385 . S
C610 C612 1.478 . S
C611 H605 0.930 . S
C611 C607 1.400 . S
C611 C610 1.385 . S
C612 C610 1.478 . S
C612 C614 1.381 . S
C612 C618 1.383 . S
C613 C609 1.495 . S
C613 H619 0.959 . S
C613 H620 0.961 . S
C613 H621 0.960 . S
C614 C612 1.381 . S
C614 C615 1.394 . S
C614 H622 0.930 . S
C615 C614 1.394 . S
C615 C616 1.383 . S
C615 H623 0.929 . S
C616 C615 1.383 . S
C616 C617 1.377 . S
C617 H601 0.930 . S
C617 C616 1.377 . S
C617 C618 1.379 . S
C618 H602 0.931 . S
C618 C612 1.383 . S
C618 C617 1.379 . S
H619 C613 0.959 . S
H620 C613 0.961 . S
H621 C613 0.960 . S
H622 C614 0.930 . S
H623 C615 0.929 . S
H624 C632 0.929 . S
H625 C634 0.930 . S
H626 C636 0.930 . S
H627 C639 0.929 . S
H628 C642 0.930 . S
H629 C644 0.960 . S
H630 C644 0.960 . S
H631 C644 0.960 . S
C632 H624 0.929 . S
C632 C633 1.377 . S
C632 C634 1.384 . S
C633 C632 1.377 . S
C633 C639 1.390 . S
C634 H625 0.930 . S
C634 C632 1.384 . S
C634 C635 1.372 . S
C635 C634 1.372 . S
C635 C636 1.400 . S
C635 C640 1.490 . S
C636 H626 0.930 . S
C636 C635 1.400 . S
C636 C639 1.386 . S
H637 C653 0.930 . S
H638 C654 0.931 . S
C639 H627 0.929 . S
C639 C633 1.390 . S
C639 C636 1.386 . S
C640 C635 1.490 . S
C640 C642 1.395 . S
C640 C643 1.403 . S
H641 C647 0.930 . S
C642 H628 0.930 . S
C642 C640 1.395 . S
C642 C645 1.403 . S
C643 C640 1.403 . S
C643 C644 1.524 . S
C643 C647 1.400 . S
C644 H629 0.960 . S
C644 H630 0.960 . S
C644 H631 0.960 . S
C644 C643 1.524 . S
C645 C642 1.403 . S
C645 C646 1.392 . S
C645 C649 1.495 . S
C646 C645 1.392 . S
C646 C647 1.385 . S
C646 C648 1.478 . S
C647 H641 0.930 . S
C647 C643 1.400 . S
C647 C646 1.385 . S
C648 C646 1.478 . S
C648 C650 1.381 . S
C648 C654 1.383 . S
C649 C645 1.495 . S
C649 H655 0.959 . S
C649 H656 0.961 . S
C649 H657 0.960 . S
C650 C648 1.381 . S
C650 C651 1.394 . S
C650 H658 0.930 . S
C651 C650 1.394 . S
C651 C652 1.383 . S
C651 H659 0.929 . S
C652 C651 1.383 . S
C652 C653 1.377 . S
C653 H637 0.930 . S
C653 C652 1.377 . S
C653 C654 1.379 . S
C654 H638 0.931 . S
C654 C648 1.383 . S
C654 C653 1.379 . S
H655 C649 0.959 . S
H656 C649 0.961 . S
H657 C649 0.960 . S
H658 C650 0.930 . S
H659 C651 0.929 . S
H660 C668 0.929 . S
H661 C670 0.930 . S
H662 C672 0.930 . S
H663 C675 0.929 . S
H664 C678 0.930 . S
H665 C680 0.960 . S
H666 C680 0.960 . S
H667 C680 0.960 . S
C668 H660 0.929 . S
C668 C669 1.377 . S
C668 C670 1.384 . S
C669 C668 1.377 . S
C669 C675 1.390 . S
C670 H661 0.930 . S
C670 C668 1.384 . S
C670 C671 1.372 . S
C671 C670 1.372 . S
C671 C672 1.400 . S
C671 C676 1.490 . S
C672 H662 0.930 . S
C672 C671 1.400 . S
C672 C675 1.386 . S
H673 C689 0.930 . S
H674 C690 0.931 . S
C675 H663 0.929 . S
C675 C669 1.390 . S
C675 C672 1.386 . S
C676 C671 1.490 . S
C676 C678 1.395 . S
C676 C679 1.403 . S
H677 C683 0.930 . S
C678 H664 0.930 . S
C678 C676 1.395 . S
C678 C681 1.403 . S
C679 C676 1.403 . S
C679 C680 1.524 . S
C679 C683 1.400 . S
C680 H665 0.960 . S
C680 H666 0.960 . S
C680 H667 0.960 . S
C680 C679 1.524 . S
C681 C678 1.403 . S
C681 C682 1.392 . S
C681 C685 1.495 . S
C682 C681 1.392 . S
C682 C683 1.385 . S
C682 C684 1.478 . S
C683 H677 0.930 . S
C683 C679 1.400 . S
C683 C682 1.385 . S
C684 C682 1.478 . S
C684 C686 1.381 . S
C684 C690 1.383 . S
C685 C681 1.495 . S
C685 H691 0.959 . S
C685 H692 0.961 . S
C685 H693 0.960 . S
C686 C684 1.381 . S
C686 C687 1.394 . S
C686 H694 0.930 . S
C687 C686 1.394 . S
C687 C688 1.383 . S
C687 H695 0.929 . S
C688 C687 1.383 . S
C688 C689 1.377 . S
C689 H673 0.930 . S
C689 C688 1.377 . S
C689 C690 1.379 . S
C690 H674 0.931 . S
C690 C684 1.383 . S
C690 C689 1.379 . S
H691 C685 0.959 . S
H692 C685 0.961 . S
H693 C685 0.960 . S
H694 C686 0.930 . S
H695 C687 0.929 . S
H696 C704 0.929 . S
H697 C706 0.930 . S
H698 C708 0.930 . S
H699 C711 0.929 . S
H700 C714 0.930 . S
H701 C716 0.960 . S
H702 C716 0.960 . S
H703 C716 0.960 . S
C704 H696 0.929 . S
C704 C705 1.377 . S
C704 C706 1.384 . S
C705 C704 1.377 . S
C705 C711 1.390 . S
C706 H697 0.930 . S
C706 C704 1.384 . S
C706 C707 1.372 . S
C707 C706 1.372 . S
C707 C708 1.400 . S
C707 C712 1.490 . S
C708 H698 0.930 . S
C708 C707 1.400 . S
C708 C711 1.386 . S
H709 C725 0.930 . S
H710 C726 0.931 . S
C711 H699 0.929 . S
C711 C705 1.390 . S
C711 C708 1.386 . S
C712 C707 1.490 . S
C712 C714 1.395 . S
C712 C715 1.403 . S
H713 C719 0.930 . S
C714 H700 0.930 . S
C714 C712 1.395 . S
C714 C717 1.403 . S
C715 C712 1.403 . S
C715 C716 1.524 . S
C715 C719 1.400 . S
C716 H701 0.960 . S
C716 H702 0.960 . S
C716 H703 0.960 . S
C716 C715 1.524 . S
C717 C714 1.403 . S
C717 C718 1.392 . S
C717 C721 1.495 . S
C718 C717 1.392 . S
C718 C719 1.385 . S
C718 C720 1.478 . S
C719 H713 0.930 . S
C719 C715 1.400 . S
C719 C718 1.385 . S
C720 C718 1.478 . S
C720 C722 1.381 . S
C720 C726 1.383 . S
C721 C717 1.495 . S
C721 H727 0.959 . S
C721 H728 0.961 . S
C721 H729 0.960 . S
C722 C720 1.381 . S
C722 C723 1.394 . S
C722 H730 0.930 . S
C723 C722 1.394 . S
C723 C724 1.383 . S
C723 H731 0.929 . S
C724 C723 1.383 . S
C724 C725 1.377 . S
C725 H709 0.930 . S
C725 C724 1.377 . S
C725 C726 1.379 . S
C726 H710 0.931 . S
C726 C720 1.383 . S
C726 C725 1.379 . S
H727 C721 0.959 . S
H728 C721 0.961 . S
H729 C721 0.960 . S
H730 C722 0.930 . S
H731 C723 0.929 . S
H732 C740 0.929 . S
H733 C742 0.930 . S
H734 C744 0.930 . S
H735 C747 0.929 . S
H736 C750 0.930 . S
H737 C752 0.960 . S
H738 C752 0.960 . S
H739 C752 0.960 . S
C740 H732 0.929 . S
C740 C741 1.377 . S
C740 C742 1.384 . S
C741 C740 1.377 . S
C741 C747 1.390 . S
C742 H733 0.930 . S
C742 C740 1.384 . S
C742 C743 1.372 . S
C743 C742 1.372 . S
C743 C744 1.400 . S
C743 C748 1.490 . S
C744 H734 0.930 . S
C744 C743 1.400 . S
C744 C747 1.386 . S
H745 C761 0.930 . S
H746 C762 0.931 . S
C747 H735 0.929 . S
C747 C741 1.390 . S
C747 C744 1.386 . S
C748 C743 1.490 . S
C748 C750 1.395 . S
C748 C751 1.403 . S
H749 C755 0.930 . S
C750 H736 0.930 . S
C750 C748 1.395 . S
C750 C753 1.403 . S
C751 C748 1.403 . S
C751 C752 1.524 . S
C751 C755 1.400 . S
C752 H737 0.960 . S
C752 H738 0.960 . S
C752 H739 0.960 . S
C752 C751 1.524 . S
C753 C750 1.403 . S
C753 C754 1.392 . S
C753 C757 1.495 . S
C754 C753 1.392 . S
C754 C755 1.385 . S
C754 C756 1.478 . S
C755 H749 0.930 . S
C755 C751 1.400 . S
C755 C754 1.385 . S
C756 C754 1.478 . S
C756 C758 1.381 . S
C756 C762 1.383 . S
C757 C753 1.495 . S
C757 H763 0.959 . S
C757 H764 0.961 . S
C757 H765 0.960 . S
C758 C756 1.381 . S
C758 C759 1.394 . S
C758 H766 0.930 . S
C759 C758 1.394 . S
C759 C760 1.383 . S
C759 H767 0.929 . S
C760 C759 1.383 . S
C760 C761 1.377 . S
C761 H745 0.930 . S
C761 C760 1.377 . S
C761 C762 1.379 . S
C762 H746 0.931 . S
C762 C756 1.383 . S
C762 C761 1.379 . S
H763 C757 0.959 . S
H764 C757 0.961 . S
H765 C757 0.960 . S
H766 C758 0.930 . S
H767 C759 0.929 . S
H768 C776 0.929 . S
H769 C778 0.930 . S
H770 C780 0.930 . S
H771 C783 0.929 . S
H772 C786 0.930 . S
H773 C788 0.960 . S
H774 C788 0.960 . S
H775 C788 0.960 . S
C776 H768 0.929 . S
C776 C777 1.377 . S
C776 C778 1.384 . S
C777 C776 1.377 . S
C777 C783 1.390 . S
C778 H769 0.930 . S
C778 C776 1.384 . S
C778 C779 1.372 . S
C779 C778 1.372 . S
C779 C780 1.400 . S
C779 C784 1.490 . S
C780 H770 0.930 . S
C780 C779 1.400 . S
C780 C783 1.386 . S
H781 C797 0.930 . S
H782 C798 0.931 . S
C783 H771 0.929 . S
C783 C777 1.390 . S
C783 C780 1.386 . S
C784 C779 1.490 . S
C784 C786 1.395 . S
C784 C787 1.403 . S
H785 C791 0.930 . S
C786 H772 0.930 . S
C786 C784 1.395 . S
C786 C789 1.403 . S
C787 C784 1.403 . S
C787 C788 1.524 . S
C787 C791 1.400 . S
C788 H773 0.960 . S
C788 H774 0.960 . S
C788 H775 0.960 . S
C788 C787 1.524 . S
C789 C786 1.403 . S
C789 C790 1.392 . S
C789 C793 1.495 . S
C790 C789 1.392 . S
C790 C791 1.385 . S
C790 C792 1.478 . S
C791 H785 0.930 . S
C791 C787 1.400 . S
C791 C790 1.385 . S
C792 C790 1.478 . S
C792 C794 1.381 . S
C792 C798 1.383 . S
C793 C789 1.495 . S
C793 H799 0.959 . S
C793 H800 0.961 . S
C793 H801 0.960 . S
C794 C792 1.381 . S
C794 C795 1.394 . S
C794 H802 0.930 . S
C795 C794 1.394 . S
C795 C796 1.383 . S
C795 H803 0.929 . S
C796 C795 1.383 . S
C796 C797 1.377 . S
C797 H781 0.930 . S
C797 C796 1.377 . S
C797 C798 1.379 . S
C798 H782 0.931 . S
C798 C792 1.383 . S
C798 C797 1.379 . S
H799 C793 0.959 . S
H800 C793 0.961 . S
H801 C793 0.960 . S
H802 C794 0.930 . S
H803 C795 0.929 . S
H804 C812 0.929 . S
H805 C814 0.930 . S
H806 C816 0.930 . S
H807 C819 0.929 . S
H808 C822 0.930 . S
H809 C824 0.960 . S
H810 C824 0.960 . S
H811 C824 0.960 . S
C812 H804 0.929 . S
C812 C813 1.377 . S
C812 C814 1.384 . S
C813 C812 1.377 . S
C813 C819 1.390 . S
C814 H805 0.930 . S
C814 C812 1.384 . S
C814 C815 1.372 . S
C815 C814 1.372 . S
C815 C816 1.400 . S
C815 C820 1.490 . S
C816 H806 0.930 . S
C816 C815 1.400 . S
C816 C819 1.386 . S
H817 C833 0.930 . S
H818 C834 0.931 . S
C819 H807 0.929 . S
C819 C813 1.390 . S
C819 C816 1.386 . S
C820 C815 1.490 . S
C820 C822 1.395 . S
C820 C823 1.403 . S
H821 C827 0.930 . S
C822 H808 0.930 . S
C822 C820 1.395 . S
C822 C825 1.403 . S
C823 C820 1.403 . S
C823 C824 1.524 . S
C823 C827 1.400 . S
C824 H809 0.960 . S
C824 H810 0.960 . S
C824 H811 0.960 . S
C824 C823 1.524 . S
C825 C822 1.403 . S
C825 C826 1.392 . S
C825 C829 1.495 . S
C826 C825 1.392 . S
C826 C827 1.385 . S
C826 C828 1.478 . S
C827 H821 0.930 . S
C827 C823 1.400 . S
C827 C826 1.385 . S
C828 C826 1.478 . S
C828 C830 1.381 . S
C828 C834 1.383 . S
C829 C825 1.495 . S
C829 H835 0.959 . S
C829 H836 0.961 . S
C829 H837 0.960 . S
C830 C828 1.381 . S
C830 C831 1.394 . S
C830 H838 0.930 . S
C831 C830 1.394 . S
C831 C832 1.383 . S
C831 H839 0.929 . S
C832 C831 1.383 . S
C832 C833 1.377 . S
C833 H817 0.930 . S
C833 C832 1.377 . S
C833 C834 1.379 . S
C834 H818 0.931 . S
C834 C828 1.383 . S
C834 C833 1.379 . S
H835 C829 0.959 . S
H836 C829 0.961 . S
H837 C829 0.960 . S
H838 C830 0.930 . S
H839 C831 0.929 . S
H840 C848 0.929 . S
H841 C850 0.930 . S
H842 C852 0.930 . S
H843 C855 0.929 . S
H844 C858 0.930 . S
H845 C860 0.960 . S
H846 C860 0.960 . S
H847 C860 0.960 . S
C848 H840 0.929 . S
C848 C849 1.377 . S
C848 C850 1.384 . S
C849 C848 1.377 . S
C849 C855 1.390 . S
C850 H841 0.930 . S
C850 C848 1.384 . S
C850 C851 1.372 . S
C851 C850 1.372 . S
C851 C852 1.400 . S
C851 C856 1.490 . S
C852 H842 0.930 . S
C852 C851 1.400 . S
C852 C855 1.386 . S
H853 C869 0.930 . S
H854 C870 0.931 . S
C855 H843 0.929 . S
C855 C849 1.390 . S
C855 C852 1.386 . S
C856 C851 1.490 . S
C856 C858 1.395 . S
C856 C859 1.403 . S
H857 C863 0.930 . S
C858 H844 0.930 . S
C858 C856 1.395 . S
C858 C861 1.403 . S
C859 C856 1.403 . S
C859 C860 1.524 . S
C859 C863 1.400 . S
C860 H845 0.960 . S
C860 H846 0.960 . S
C860 H847 0.960 . S
C860 C859 1.524 . S
C861 C858 1.403 . S
C861 C862 1.392 . S
C861 C865 1.495 . S
C862 C861 1.392 . S
C862 C863 1.385 . S
C862 C864 1.478 . S
C863 H857 0.930 . S
C863 C859 1.400 . S
C863 C862 1.385 . S
C864 C862 1.478 . S
C864 C866 1.381 . S
C864 C870 1.383 . S
C865 C861 1.495 . S
C865 H871 0.959 . S
C865 H872 0.961 . S
C865 H873 0.960 . S
C866 C864 1.381 . S
C866 C867 1.394 . S
C866 H874 0.930 . S
C867 C866 1.394 . S
C867 C868 1.383 . S
C867 H875 0.929 . S
C868 C867 1.383 . S
C868 C869 1.377 . S
C869 H853 0.930 . S
C869 C868 1.377 . S
C869 C870 1.379 . S
C870 H854 0.931 . S
C870 C864 1.383 . S
C870 C869 1.379 . S
H871 C865 0.959 . S
H872 C865 0.961 . S
H873 C865 0.960 . S
H874 C866 0.930 . S
H875 C867 0.929 . S
H876 C884 0.929 . S
H877 C886 0.930 . S
H878 C888 0.930 . S
H879 C891 0.929 . S
H880 C894 0.930 . S
H881 C896 0.960 . S
H882 C896 0.960 . S
H883 C896 0.960 . S
C884 H876 0.929 . S
C884 C885 1.377 . S
C884 C886 1.384 . S
C885 C884 1.377 . S
C885 C891 1.390 . S
C886 H877 0.930 . S
C886 C884 1.384 . S
C886 C887 1.372 . S
C887 C886 1.372 . S
C887 C888 1.400 . S
C887 C892 1.490 . S
C888 H878 0.930 . S
C888 C887 1.400 . S
C888 C891 1.386 . S
H889 C905 0.930 . S
H890 C906 0.931 . S
C891 H879 0.929 . S
C891 C885 1.390 . S
C891 C888 1.386 . S
C892 C887 1.490 . S
C892 C894 1.395 . S
C892 C895 1.403 . S
H893 C899 0.930 . S
C894 H880 0.930 . S
C894 C892 1.395 . S
C894 C897 1.403 . S
C895 C892 1.403 . S
C895 C896 1.524 . S
C895 C899 1.400 . S
C896 H881 0.960 . S
C896 H882 0.960 . S
C896 H883 0.960 . S
C896 C895 1.524 . S
C897 C894 1.403 . S
C897 C898 1.392 . S
C897 C901 1.495 . S
C898 C897 1.392 . S
C898 C899 1.385 . S
C898 C900 1.478 . S
C899 H893 0.930 . S
C899 C895 1.400 . S
C899 C898 1.385 . S
C900 C898 1.478 . S
C900 C902 1.381 . S
C900 C906 1.383 . S
C901 C897 1.495 . S
C901 H907 0.959 . S
C901 H908 0.961 . S
C901 H909 0.960 . S
C902 C900 1.381 . S
C902 C903 1.394 . S
C902 H910 0.930 . S
C903 C902 1.394 . S
C903 C904 1.383 . S
C903 H911 0.929 . S
C904 C903 1.383 . S
C904 C905 1.377 . S
C905 H889 0.930 . S
C905 C904 1.377 . S
C905 C906 1.379 . S
C906 H890 0.931 . S
C906 C900 1.383 . S
C906 C905 1.379 . S
H907 C901 0.959 . S
H908 C901 0.961 . S
H909 C901 0.960 . S
H910 C902 0.930 . S
H911 C903 0.929 . S
H912 C920 0.929 . S
H913 C922 0.930 . S
H914 C924 0.930 1_655 S
H915 C927 0.929 1_655 S
H916 C930 0.930 1_655 S
H917 C932 0.960 . S
H918 C932 0.960 . S
H919 C932 0.960 . S
C920 H912 0.929 . S
C920 C921 1.377 . S
C920 C922 1.384 . S
C921 C920 1.377 . S
C921 C927 1.390 . S
C922 H913 0.930 . S
C922 C920 1.384 . S
C922 C923 1.372 . S
C923 C922 1.372 . S
C923 C924 1.400 . S
C923 C928 1.490 . S
C924 H914 0.930 1_455 S
C924 C923 1.400 . S
C924 C927 1.386 . S
H925 C941 0.930 . S
H926 C942 0.931 1_655 S
C927 H915 0.929 1_455 S
C927 C921 1.390 . S
C927 C924 1.386 . S
C928 C923 1.490 . S
C928 C930 1.395 . S
C928 C931 1.403 . S
H929 C935 0.930 . S
C930 H916 0.930 1_455 S
C930 C928 1.395 . S
C930 C933 1.403 . S
C931 C928 1.403 . S
C931 C932 1.524 . S
C931 C935 1.400 . S
C932 H917 0.960 . S
C932 H918 0.960 . S
C932 H919 0.960 . S
C932 C931 1.524 . S
C933 C930 1.403 . S
C933 C934 1.392 . S
C933 C937 1.495 1_455 S
C934 C933 1.392 . S
C934 C935 1.385 . S
C934 C936 1.478 . S
C935 H929 0.930 . S
C935 C931 1.400 . S
C935 C934 1.385 . S
C936 C934 1.478 . S
C936 C938 1.381 . S
C936 C942 1.383 . S
C937 C933 1.495 1_655 S
C937 H943 0.959 . S
C937 H944 0.961 . S
C937 H945 0.960 1_655 S
C938 C936 1.381 . S
C938 C939 1.394 1_554 S
C938 H946 0.930 . S
C939 C938 1.394 1_556 S
C939 C940 1.383 . S
C939 H947 0.929 . S
C940 C939 1.383 . S
C940 C941 1.377 . S
C941 H925 0.930 . S
C941 C940 1.377 . S
C941 C942 1.379 1_556 S
C942 H926 0.931 1_455 S
C942 C936 1.383 . S
C942 C941 1.379 1_554 S
H943 C937 0.959 . S
H944 C937 0.961 . S
H945 C937 0.960 1_455 S
H946 C938 0.930 . S
H947 C939 0.929 . S
H948 C956 0.929 . S
H949 C958 0.930 . S
H950 C960 0.930 . S
H951 C963 0.929 . S
H952 C966 0.930 . S
H953 C968 0.960 . S
H954 C968 0.960 . S
H955 C968 0.959 . S
C956 H948 0.929 . S
C956 C957 1.377 . S
C956 C958 1.384 . S
C957 C956 1.377 . S
C957 C963 1.390 . S
C958 H949 0.930 . S
C958 C956 1.384 . S
C958 C959 1.372 . S
C959 C958 1.372 . S
C959 C960 1.400 . S
C959 C964 1.490 . S
C960 H950 0.930 . S
C960 C959 1.400 . S
C960 C963 1.386 . S
H961 C977 0.930 . S
H962 C978 0.931 . S
C963 H951 0.929 . S
C963 C957 1.390 . S
C963 C960 1.386 . S
C964 C959 1.490 . S
C964 C966 1.395 . S
C964 C967 1.403 . S
H965 C971 0.930 . S
C966 H952 0.930 . S
C966 C964 1.395 . S
C966 C969 1.403 . S
C967 C964 1.403 . S
C967 C968 1.524 1_545 S
C967 C971 1.400 . S
C968 H953 0.960 . S
C968 H954 0.960 . S
C968 H955 0.959 . S
C968 C967 1.524 1_565 S
C969 C966 1.403 . S
C969 C970 1.392 . S
C969 C973 1.495 . S
C970 C969 1.392 . S
C970 C971 1.385 . S
C970 C972 1.478 . S
C971 H965 0.930 . S
C971 C967 1.400 . S
C971 C970 1.385 . S
C972 C970 1.478 . S
C972 C974 1.381 . S
C972 C978 1.383 . S
C973 C969 1.495 . S
C973 H979 0.959 . S
C973 H980 0.961 . S
C973 H981 0.960 . S
C974 C972 1.381 . S
C974 C975 1.394 . S
C974 H982 0.930 . S
C975 C974 1.394 . S
C975 C976 1.383 . S
C975 H983 0.929 . S
C976 C975 1.383 . S
C976 C977 1.377 . S
C977 H961 0.930 . S
C977 C976 1.377 . S
C977 C978 1.379 . S
C978 H962 0.931 . S
C978 C972 1.383 . S
C978 C977 1.379 . S
H979 C973 0.959 . S
H980 C973 0.961 . S
H981 C973 0.960 . S
H982 C974 0.930 . S
H983 C975 0.929 . S
H984 C992 0.929 . S
H985 C994 0.930 . S
H986 C996 0.930 . S
H987 C999 0.929 . S
H988 C1002 0.930 . S
H989 C1004 0.960 . S
H990 C1004 0.960 . S
H991 C1004 0.960 . S
C992 H984 0.929 . S
C992 C993 1.377 . S
C992 C994 1.384 . S
C993 C992 1.377 . S
C993 C999 1.390 . S
C994 H985 0.930 . S
C994 C992 1.384 . S
C994 C995 1.372 . S
C995 C994 1.372 . S
C995 C996 1.400 . S
C995 C1000 1.490 . S
C996 H986 0.930 . S
C996 C995 1.400 . S
C996 C999 1.386 . S
H997 C1013 0.930 . S
H998 C1014 0.931 . S
C999 H987 0.929 . S
C999 C993 1.390 . S
C999 C996 1.386 . S
C1000 C995 1.490 . S
C1000 C1002 1.395 . S
C1000 C1003 1.403 . S
H1001 C1007 0.930 . S
C1002 H988 0.930 . S
C1002 C1000 1.395 . S
C1002 C1005 1.403 . S
C1003 C1000 1.403 . S
C1003 C1004 1.524 . S
C1003 C1007 1.400 . S
C1004 H989 0.960 . S
C1004 H990 0.960 . S
C1004 H991 0.960 . S
C1004 C1003 1.524 . S
C1005 C1002 1.403 . S
C1005 C1006 1.392 . S
C1005 C1009 1.495 . S
C1006 C1005 1.392 . S
C1006 C1007 1.385 . S
C1006 C1008 1.478 . S
C1007 H1001 0.930 . S
C1007 C1003 1.400 . S
C1007 C1006 1.385 . S
C1008 C1006 1.478 . S
C1008 C1010 1.381 . S
C1008 C1014 1.383 . S
C1009 C1005 1.495 . S
C1009 H1015 0.959 . S
C1009 H1016 0.961 . S
C1009 H1017 0.960 . S
C1010 C1008 1.381 . S
C1010 C1011 1.394 . S
C1010 H1018 0.930 . S
C1011 C1010 1.394 . S
C1011 C1012 1.383 . S
C1011 H1019 0.929 . S
C1012 C1011 1.383 . S
C1012 C1013 1.377 . S
C1013 H997 0.930 . S
C1013 C1012 1.377 . S
C1013 C1014 1.379 . S
C1014 H998 0.931 . S
C1014 C1008 1.383 . S
C1014 C1013 1.379 . S
H1015 C1009 0.959 . S
H1016 C1009 0.961 . S
H1017 C1009 0.960 . S
H1018 C1010 0.930 . S
H1019 C1011 0.929 . S
H1020 C1028 0.929 . S
H1021 C1030 0.930 . S
H1022 C1032 0.930 . S
H1023 C1035 0.929 . S
H1024 C1038 0.930 . S
H1025 C1040 0.960 . S
H1026 C1040 0.951 1_545 S
H1027 C1040 0.960 . S
C1028 H1020 0.929 . S
C1028 C1029 1.377 . S
C1028 C1030 1.384 . S
C1029 C1028 1.377 . S
C1029 C1035 1.390 1_545 S
C1030 H1021 0.930 . S
C1030 C1028 1.384 . S
C1030 C1031 1.372 . S
C1031 C1030 1.372 . S
C1031 C1032 1.400 1_545 S
C1031 C1036 1.490 . S
C1032 H1022 0.930 . S
C1032 C1031 1.400 1_565 S
C1032 C1035 1.386 . S
H1033 C1049 0.930 . S
H1034 C1050 0.931 . S
C1035 H1023 0.929 . S
C1035 C1029 1.390 1_565 S
C1035 C1032 1.386 . S
C1036 C1031 1.490 . S
C1036 C1038 1.395 . S
C1036 C1039 1.403 . S
H1037 C1043 0.930 1_565 S
C1038 H1024 0.930 . S
C1038 C1036 1.395 . S
C1038 C1041 1.403 . S
C1039 C1036 1.403 . S
C1039 C1040 1.524 1_545 S
C1039 C1043 1.400 . S
C1040 H1025 0.960 . S
C1040 H1026 0.951 1_565 S
C1040 H1027 0.960 . S
C1040 C1039 1.524 1_565 S
C1041 C1038 1.403 . S
C1041 C1042 1.392 . S
C1041 C1045 1.495 . S
C1042 C1041 1.392 . S
C1042 C1043 1.385 . S
C1042 C1044 1.478 . S
C1043 H1037 0.930 1_545 S
C1043 C1039 1.400 . S
C1043 C1042 1.385 . S
C1044 C1042 1.478 . S
C1044 C1046 1.381 . S
C1044 C1050 1.383 1_545 S
C1045 C1041 1.495 . S
C1045 H1051 0.959 . S
C1045 H1052 0.961 . S
C1045 H1053 0.960 . S
C1046 C1044 1.381 . S
C1046 C1047 1.394 . S
C1046 H1054 0.930 . S
C1047 C1046 1.394 . S
C1047 C1048 1.383 . S
C1047 H1055 0.929 . S
C1048 C1047 1.383 . S
C1048 C1049 1.377 1_545 S
C1049 H1033 0.930 . S
C1049 C1048 1.377 1_565 S
C1049 C1050 1.379 . S
C1050 H1034 0.931 . S
C1050 C1044 1.383 1_565 S
C1050 C1049 1.379 . S
H1051 C1045 0.959 . S
H1052 C1045 0.961 . S
H1053 C1045 0.960 . S
H1054 C1046 0.930 . S
H1055 C1047 0.929 . S
H1056 C1064 0.929 . S
H1057 C1066 0.930 . S
H1058 C1068 0.930 . S
H1059 C1071 0.929 . S
H1060 C1074 0.930 . S
H1061 C1076 0.960 . S
H1062 C1076 0.960 . S
H1063 C1076 0.960 . S
C1064 H1056 0.929 . S
C1064 C1065 1.377 . S
C1064 C1066 1.384 . S
C1065 C1064 1.377 . S
C1065 C1071 1.390 . S
C1066 H1057 0.930 . S
C1066 C1064 1.384 . S
C1066 C1067 1.372 . S
C1067 C1066 1.372 . S
C1067 C1068 1.400 . S
C1067 C1072 1.490 . S
C1068 H1058 0.930 . S
C1068 C1067 1.400 . S
C1068 C1071 1.386 . S
H1069 C1085 0.930 . S
H1070 C1086 0.931 . S
C1071 H1059 0.929 . S
C1071 C1065 1.390 . S
C1071 C1068 1.386 . S
C1072 C1067 1.490 . S
C1072 C1074 1.395 . S
C1072 C1075 1.403 . S
H1073 C1079 0.930 . S
C1074 H1060 0.930 . S
C1074 C1072 1.395 . S
C1074 C1077 1.403 . S
C1075 C1072 1.403 . S
C1075 C1076 1.524 . S
C1075 C1079 1.400 . S
C1076 H1061 0.960 . S
C1076 H1062 0.960 . S
C1076 H1063 0.960 . S
C1076 C1075 1.524 . S
C1077 C1074 1.403 . S
C1077 C1078 1.392 . S
C1077 C1081 1.495 . S
C1078 C1077 1.392 . S
C1078 C1079 1.385 . S
C1078 C1080 1.478 . S
C1079 H1073 0.930 . S
C1079 C1075 1.400 . S
C1079 C1078 1.385 . S
C1080 C1078 1.478 . S
C1080 C1082 1.381 . S
C1080 C1086 1.383 . S
C1081 C1077 1.495 . S
C1081 H1087 0.959 . S
C1081 H1088 0.961 . S
C1081 H1089 0.960 . S
C1082 C1080 1.381 . S
C1082 C1083 1.394 1_556 S
C1082 H1090 0.930 . S
C1083 C1082 1.394 1_554 S
C1083 C1084 1.383 . S
C1083 H1091 0.929 . S
C1084 C1083 1.383 . S
C1084 C1085 1.377 . S
C1085 H1069 0.930 . S
C1085 C1084 1.377 . S
C1085 C1086 1.379 1_554 S
C1086 H1070 0.931 . S
C1086 C1080 1.383 . S
C1086 C1085 1.379 1_556 S
H1087 C1081 0.959 . S
H1088 C1081 0.961 . S
H1089 C1081 0.960 . S
H1090 C1082 0.930 . S
H1091 C1083 0.929 . S
H1092 C1100 0.929 . S
H1093 C1102 0.930 . S
H1094 C1104 0.930 . S
H1095 C1107 0.929 . S
H1096 C1110 0.930 . S
H1097 C1112 0.960 . S
H1098 C1112 0.960 . S
H1099 C1112 0.960 . S
C1100 H1092 0.929 . S
C1100 C1101 1.377 1_655 S
C1100 C1102 1.384 . S
C1101 C1100 1.377 1_455 S
C1101 C1107 1.390 . S
C1102 H1093 0.930 . S
C1102 C1100 1.384 . S
C1102 C1103 1.372 1_655 S
C1103 C1102 1.372 1_455 S
C1103 C1104 1.400 . S
C1103 C1108 1.490 . S
C1104 H1094 0.930 . S
C1104 C1103 1.400 . S
C1104 C1107 1.386 . S
H1105 C1121 0.930 . S
H1106 C1122 0.931 . S
C1107 H1095 0.929 . S
C1107 C1101 1.390 . S
C1107 C1104 1.386 . S
C1108 C1103 1.490 . S
C1108 C1110 1.395 . S
C1108 C1111 1.403 1_455 S
H1109 C1115 0.930 . S
C1110 H1096 0.930 . S
C1110 C1108 1.395 . S
C1110 C1113 1.403 . S
C1111 C1108 1.403 1_655 S
C1111 C1112 1.524 . S
C1111 C1115 1.400 . S
C1112 H1097 0.960 . S
C1112 H1098 0.960 . S
C1112 H1099 0.960 . S
C1112 C1111 1.524 . S
C1113 C1110 1.403 . S
C1113 C1114 1.392 . S
C1113 C1117 1.495 . S
C1114 C1113 1.392 . S
C1114 C1115 1.385 1_455 S
C1114 C1116 1.478 . S
C1115 H1109 0.930 . S
C1115 C1111 1.400 . S
C1115 C1114 1.385 1_655 S
C1116 C1114 1.478 . S
C1116 C1118 1.381 1_455 S
C1116 C1122 1.383 . S
C1117 C1113 1.495 . S
C1117 H1123 0.959 . S
C1117 H1124 0.961 . S
C1117 H1125 0.960 . S
C1118 C1116 1.381 1_655 S
C1118 C1119 1.394 . S
C1118 H1126 0.930 . S
C1119 C1118 1.394 . S
C1119 C1120 1.383 1_655 S
C1119 H1127 0.929 . S
C1120 C1119 1.383 1_455 S
C1120 C1121 1.377 . S
C1121 H1105 0.930 . S
C1121 C1120 1.377 . S
C1121 C1122 1.379 . S
C1122 H1106 0.931 . S
C1122 C1116 1.383 . S
C1122 C1121 1.379 . S
H1123 C1117 0.959 . S
H1124 C1117 0.961 . S
H1125 C1117 0.960 . S
H1126 C1118 0.930 . S
H1127 C1119 0.929 . S
C489 C24 2.840 . S
C508 C451 2.829 . S
C525 C66 1.038 . S
C544 C301 1.003 . S
C561 C93 1.722 . S
C580 C361 1.579 . S
C597 C13 2.998 . S
C616 C421 2.836 . S
C652 C331 1.250 . S
C633 C57 1.243 . S
C688 C391 1.888 . S
C669 C104 1.902 . S
C705 C64 1.884 . S
C724 C181 1.707 . S
C741 C97 0.369 . S
C760 C271 0.352 . S
C777 C17 1.215 . S
C796 C151 1.223 . S
C832 C211 1.719 . S
C813 C53 1.739 . S
C868 C241 0.447 . S
C849 C106 0.296 . S
C885 C26 1.048 . S
C904 C121 1.003 . S
C940 C260 1.071 . S
C921 C2 1.080 . S
C957 C63 1.458 . S
C976 C140 1.471 . S
C993 C82 1.370 . S
C1012 C200 1.357 . S
C1048 C380 1.370 . S
C1029 C42 1.381 . S
C1084 C440 1.767 . S
C1065 C103 1.729 . S
C1101 C23 1.475 . S
C1120 C320 1.469 . S
