# Generated by pormake.
# Topology zzz, (3,6)-cn, num edge types: 1
# Building blocks:
#     Node 0, Type 0, BuildingBlock: ESEHIV_clean_linker_0, # of connection points: 3
#     Node 1, Type 0, BuildingBlock: ESEHIV_clean_linker_0, # of connection points: 3
#     Node 2, Type 0, BuildingBlock: ESEHIV_clean_linker_0, # of connection points: 3
#     Node 3, Type 0, BuildingBlock: ESEHIV_clean_linker_0, # of connection points: 3
#     Node 4, Type 0, BuildingBlock: ESEHIV_clean_linker_0, # of connection points: 3
#     Node 5, Type 0, BuildingBlock: ESEHIV_clean_linker_0, # of connection points: 3
#     Node 6, Type 0, BuildingBlock: ESEHIV_clean_linker_0, # of connection points: 3
#     Node 7, Type 0, BuildingBlock: ESEHIV_clean_linker_0, # of connection points: 3
#     Node 8, Type 1, BuildingBlock: HISSIN_clean_sbu_0, # of connection points: 6
#     Node 9, Type 1, BuildingBlock: HISSIN_clean_sbu_0, # of connection points: 6
#     Node 10, Type 1, BuildingBlock: HISSIN_clean_sbu_0, # of connection points: 6
#     Node 11, Type 1, BuildingBlock: HISSIN_clean_sbu_0, # of connection points: 6
#     Edge 12, Type (0, 1), BuildingBlock: CIFDUS_clean_linker_0, # of connection points: 2
#     Edge 13, Type (0, 1), BuildingBlock: CIFDUS_clean_linker_0, # of connection points: 2
#     Edge 14, Type (0, 1), BuildingBlock: CIFDUS_clean_linker_0, # of connection points: 2
#     Edge 15, Type (0, 1), BuildingBlock: CIFDUS_clean_linker_0, # of connection points: 2
#     Edge 16, Type (0, 1), BuildingBlock: CIFDUS_clean_linker_0, # of connection points: 2
#     Edge 17, Type (0, 1), BuildingBlock: CIFDUS_clean_linker_0, # of connection points: 2
#     Edge 18, Type (0, 1), BuildingBlock: CIFDUS_clean_linker_0, # of connection points: 2
#     Edge 19, Type (0, 1), BuildingBlock: CIFDUS_clean_linker_0, # of connection points: 2
#     Edge 20, Type (0, 1), BuildingBlock: CIFDUS_clean_linker_0, # of connection points: 2
#     Edge 21, Type (0, 1), BuildingBlock: CIFDUS_clean_linker_0, # of connection points: 2
#     Edge 22, Type (0, 1), BuildingBlock: CIFDUS_clean_linker_0, # of connection points: 2
#     Edge 23, Type (0, 1), BuildingBlock: CIFDUS_clean_linker_0, # of connection points: 2
#     Edge 24, Type (0, 1), BuildingBlock: CIFDUS_clean_linker_0, # of connection points: 2
#     Edge 25, Type (0, 1), BuildingBlock: CIFDUS_clean_linker_0, # of connection points: 2
#     Edge 26, Type (0, 1), BuildingBlock: CIFDUS_clean_linker_0, # of connection points: 2
#     Edge 27, Type (0, 1), BuildingBlock: CIFDUS_clean_linker_0, # of connection points: 2
#     Edge 28, Type (0, 1), BuildingBlock: CIFDUS_clean_linker_0, # of connection points: 2
#     Edge 29, Type (0, 1), BuildingBlock: CIFDUS_clean_linker_0, # of connection points: 2
#     Edge 30, Type (0, 1), BuildingBlock: CIFDUS_clean_linker_0, # of connection points: 2
#     Edge 31, Type (0, 1), BuildingBlock: CIFDUS_clean_linker_0, # of connection points: 2
#     Edge 32, Type (0, 1), BuildingBlock: CIFDUS_clean_linker_0, # of connection points: 2
#     Edge 33, Type (0, 1), BuildingBlock: CIFDUS_clean_linker_0, # of connection points: 2
#     Edge 34, Type (0, 1), BuildingBlock: CIFDUS_clean_linker_0, # of connection points: 2
#     Edge 35, Type (0, 1), BuildingBlock: CIFDUS_clean_linker_0, # of connection points: 2
# Relax obj value: 0.502
# Max RMSD: 0.252
# Mean RMSD: 0.197
data_MOF--net-zzz--node1-HISSIN_clean_sbu_0--node2-ESEHIV_clean_linker_0--edge1-CIFDUS_clean_linker_0
_symmetry_space_group_name_H-M    P1
_symmetry_Int_Tables_number       1
_symmetry_cell_setting            triclinic
loop_
_symmetry_equiv_pos_as_xyz
'x, y, z'
_cell_length_a     37.342005
_cell_length_b     37.49739
_cell_length_c     14.288922
_cell_angle_alpha  89.898446
_cell_angle_beta   90.715892
_cell_angle_gamma 91.228346
loop_
_atom_site_label
_atom_site_type_symbol
_atom_site_fract_x
_atom_site_fract_y
_atom_site_fract_z
_atom_type_partial_charge
H0 H 0.82327 0.43762 0.3107 0.0
H1 H 0.73008 0.43551 0.13385 0.0
H2 H 0.7471 0.52167 0.33017 0.0
C3 C 0.79738 0.44825 0.29184 0.0
C4 C 0.78647 0.47991 0.33447 0.0
C5 C 0.77771 0.4329 0.21739 0.0
C6 C 0.74496 0.44761 0.19154 0.0
C7 C 0.73344 0.47983 0.23005 0.0
C8 C 0.75479 0.4963 0.30137 0.0
H9 H 0.08773 0.7992 0.4026 0.0
H10 H 0.09933 0.71802 0.19348 0.0
H11 H 0.99941 0.72899 0.33688 0.0
C12 C 0.07803 0.7759 0.36492 0.0
C13 C 0.04277 0.76473 0.38193 0.0
C14 C 0.0988 0.76048 0.29514 0.0
C15 C 0.08371 0.73141 0.24541 0.0
C16 C 0.04787 0.72 0.25788 0.0
C17 C 0.02725 0.73671 0.32755 0.0
H18 H 0.74317 0.09208 0.32509 0.0
H19 H 0.8359 0.08023 0.15512 0.0
H20 H 0.80088 0.99397 0.33405 0.0
C21 C 0.76634 0.07693 0.30591 0.0
C22 C 0.77052 0.04275 0.34476 0.0
C23 C 0.78907 0.0902 0.23573 0.0
C24 C 0.81817 0.06996 0.20888 0.0
C25 C 0.82264 0.03517 0.24233 0.0
C26 C 0.79829 0.02116 0.30969 0.0
H27 H 0.43745 0.72701 0.29419 0.0
H28 H 0.52288 0.80366 0.34915 0.0
H29 H 0.44656 0.82079 0.12485 0.0
C30 C 0.45038 0.75258 0.27984 0.0
C31 C 0.43872 0.77283 0.20318 0.0
C32 C 0.48026 0.76338 0.33441 0.0
C33 C 0.49913 0.79545 0.3099 0.0
C34 C 0.48636 0.81706 0.23489 0.0
C35 C 0.45586 0.80539 0.18433 0.0
H36 H 0.24504 0.58814 0.11726 0.0
H37 H 0.33546 0.57552 0.3003 0.0
H38 H 0.31219 0.49691 0.08707 0.0
C39 C 0.26909 0.57401 0.13626 0.0
C40 C 0.27719 0.5426 0.08793 0.0
C41 C 0.28943 0.58557 0.21406 0.0
C42 C 0.31932 0.56627 0.24114 0.0
C43 C 0.32741 0.53395 0.19784 0.0
C44 C 0.30643 0.52206 0.12021 0.0
H45 H 0.9507 0.21328 0.17834 0.0
H46 H 0.95708 0.30677 0.3488 0.0
H47 H 0.02906 0.29619 0.11693 0.0
C48 C 0.96238 0.23949 0.19233 0.0
C49 C 0.9906 0.25241 0.13662 0.0
C50 C 0.95057 0.25902 0.26903 0.0
C51 C 0.9662 0.29231 0.28823 0.0
C52 C 0.99436 0.3065 0.23474 0.0
C53 C 1.00697 0.28611 0.15842 0.0
H54 H 0.30425 0.95405 0.10363 0.0
H55 H 0.21868 0.95936 0.29968 0.0
H56 H 0.24916 0.0525 0.14179 0.0
C57 C 0.28207 0.96829 0.13289 0.0
C58 C 0.27812 1.00437 0.10895 0.0
C59 C 0.26145 0.95194 0.20306 0.0
C60 C 0.23412 0.97134 0.24395 0.0
C61 C 0.2287 1.00724 0.22175 0.0
C62 C 0.25154 0.02423 0.15547 0.0
H63 H 0.60166 0.30799 0.09135 0.0
H64 H 0.50522 0.24446 0.124 0.0
H65 H 0.59993 0.22107 0.2864 0.0
C66 C 0.58814 0.28472 0.12058 0.0
C67 C 0.60512 0.26541 0.19181 0.0
C68 C 0.55239 0.27745 0.09404 0.0
C69 C 0.5333 0.24939 0.14014 0.0
C70 C 0.55068 0.2287 0.20991 0.0
C71 C 0.58669 0.23653 0.23244 0.0
Eu72 Eu 0.98926 0.0266 0.67099 0.0
Eu73 Eu 0.05809 0.99753 0.79281 0.0
C74 C 0.02781 0.07908 0.82741 0.0
C75 C 0.8975 0.05901 0.57298 0.0
C76 C 0.88846 0.08245 0.64468 0.0
C77 C 0.85415 0.08619 0.47027 0.0
C78 C 0.86403 0.10943 0.6263 0.0
C79 C 0.87768 0.05876 0.48943 0.0
C80 C 0.85076 0.11447 0.53432 0.0
C81 C 0.93172 0.04083 0.57382 0.0
O82 O 1.01552 1.00221 0.90303 0.0
O83 O 0.9659 1.00431 0.80656 0.0
C84 C 0.98055 1.00204 0.89069 0.0
O85 O 1.00537 0.97556 0.60314 0.0
O86 O 0.11323 1.00559 0.84493 0.0
O87 O 0.08533 0.95465 0.86406 0.0
O88 O 0.03138 0.9478 0.72715 0.0
C89 C 1.0163 0.94639 0.6435 0.0
O90 O 0.03541 0.03692 0.5708 0.0
O91 O 0.0823 0.01272 0.6534 0.0
O92 O 0.05096 0.05388 0.84704 0.0
O93 O 0.96046 0.06133 0.57619 0.0
O94 O 0.93473 0.01222 0.62506 0.0
O95 O 1.00287 0.07503 0.76176 0.0
C96 C 0.13349 0.96758 0.96789 0.0
C97 C 0.1698 0.95892 0.96579 0.0
C98 C 0.13016 0.94575 0.12716 0.0
C99 C 0.18553 0.94141 0.04161 0.0
C100 C 0.11439 0.96312 0.05106 0.0
C101 C 0.16501 0.9325 0.12021 0.0
C102 C 0.1148 0.97331 0.87848 0.0
C103 C 0.06929 0.02791 0.57782 0.0
H104 H 0.90288 0.08224 0.71095 0.0
H105 H 0.84361 0.0878 0.39971 0.0
H106 H 0.86 0.1293 0.67982 0.0
H107 H 0.88369 0.04009 0.43426 0.0
H108 H 0.18496 0.96234 0.90209 0.0
H109 H 0.11369 0.93908 0.18684 0.0
H110 H 0.21237 0.93138 1.03466 0.0
H111 H 0.08635 0.96985 0.05399 0.0
Eu112 Eu 0.53734 0.05503 0.8236 0.0
Eu113 Eu 0.5161 0.99755 0.65843 0.0
C114 C 0.52671 0.9726 0.87364 0.0
C115 C 0.57705 0.12989 0.98274 0.0
C116 C 0.59646 0.14866 0.91443 0.0
C117 C 0.61195 0.15957 0.10425 0.0
C118 C 0.62484 0.17162 0.94133 0.0
C119 C 0.58391 0.13669 0.07733 0.0
C120 C 0.63437 0.17548 0.03666 0.0
C121 C 0.55333 0.09959 0.95906 0.0
O122 O 0.46165 0.01295 0.7152 0.0
O123 O 0.47933 0.0402 0.85293 0.0
C124 C 0.4541 0.02653 0.79786 0.0
O125 O 0.52165 0.08966 0.70101 0.0
O126 O 0.52307 0.94338 0.60688 0.0
O127 O 0.49118 0.98063 0.5268 0.0
O128 O 0.52053 0.0501 0.57818 0.0
C129 C 0.52002 0.08296 0.61064 0.0
O130 O 0.58616 0.05545 0.73007 0.0
O131 O 0.5771 1.00163 0.65702 0.0
O132 O 0.50689 0.96961 0.79747 0.0
O133 O 0.52768 0.10472 0.89817 0.0
O134 O 0.56906 0.06926 0.94708 0.0
O135 O 0.54811 1.00041 0.88549 0.0
C136 C 0.47383 0.9203 0.51816 0.0
C137 C 0.45409 0.90544 0.59207 0.0
C138 C 0.43168 0.89382 0.40718 0.0
C139 C 0.42239 0.886 0.57342 0.0
C140 C 0.46358 0.91259 0.42585 0.0
C141 C 0.40941 0.88224 0.48078 0.0
C142 C 0.50174 0.94778 0.53488 0.0
C143 C 0.59765 0.0297 0.67614 0.0
H144 H 0.59135 0.14367 0.84075 0.0
H145 H 0.61829 0.16129 0.17826 0.0
H146 H 0.64121 0.1838 0.8875 0.0
H147 H 0.56943 0.12202 0.13076 0.0
H148 H 0.46182 0.91083 0.66408 0.0
H149 H 0.42292 0.89195 0.33493 0.0
H150 H 0.4066 0.87662 0.6319 0.0
H151 H 0.47868 0.92366 0.36794 0.0
Eu152 Eu 0.50266 0.53103 0.78644 0.0
Eu153 Eu 0.56169 0.51104 0.63016 0.0
C154 C 0.58437 0.52096 0.84667 0.0
C155 C 0.42344 0.56682 0.92779 0.0
C156 C 0.40461 0.58231 0.85306 0.0
C157 C 0.38611 0.59712 0.0377 0.0
C158 C 0.37777 0.60685 0.87114 0.0
C159 C 0.41333 0.57352 1.01956 0.0
C160 C 0.36965 0.61595 0.96403 0.0
C161 C 0.45612 0.54688 0.9138 0.0
O162 O 0.54482 0.45666 0.6883 0.0
O163 O 0.51731 0.47423 0.82351 0.0
C164 C 0.53063 0.44915 0.77055 0.0
O165 O 0.47043 0.5067 0.66802 0.0
O166 O 0.61635 0.5212 0.58343 0.0
O167 O 0.58041 0.48699 0.5015 0.0
O168 O 0.50951 0.513 0.54633 0.0
C169 C 0.47702 0.5067 0.57795 0.0
O170 O 0.50184 0.57767 0.68341 0.0
O171 O 0.55891 0.57136 0.63275 0.0
O172 O 0.58796 0.50169 0.77109 0.0
O173 O 0.45363 0.51834 0.86211 0.0
O174 O 0.4851 0.56584 0.89776 0.0
O175 O 0.55695 0.5419 0.85522 0.0
C176 C 0.64145 0.4736 0.50011 0.0
C177 C 0.65563 0.45472 0.57642 0.0
C178 C 0.67072 0.43382 0.39402 0.0
C179 C 0.67605 0.42446 0.56115 0.0
C180 C 0.65099 0.46431 0.40934 0.0
C181 C 0.68134 0.41194 0.46943 0.0
C182 C 0.61308 0.49957 0.51228 0.0
C183 C 0.52976 0.59023 0.63757 0.0
H184 H 0.4123 0.57734 0.78147 0.0
H185 H 0.38124 0.60366 0.11018 0.0
H186 H 0.36569 0.621 0.81305 0.0
H187 H 0.42835 0.56251 0.07775 0.0
H188 H 0.64893 0.46187 0.64742 0.0
H189 H 0.6739 0.42554 0.32237 0.0
H190 H 0.68483 0.40919 0.62124 0.0
H191 H 0.64058 0.47887 0.34967 0.0
Eu192 Eu 0.03873 0.55409 0.62171 0.0
Eu193 Eu 0.02638 0.49389 0.78661 0.0
C194 C 0.1047 0.52999 0.75433 0.0
C195 C 0.07452 0.62954 0.46303 0.0
C196 C 0.09398 0.6488 0.53157 0.0
C197 C 0.11195 0.65553 0.34297 0.0
C198 C 0.12352 0.67015 0.50581 0.0
C199 C 0.08285 0.63415 0.36876 0.0
C200 C 0.13395 0.67213 0.4115 0.0
C201 C 0.04962 0.60035 0.4873 0.0
O202 O 0.02917 0.54595 0.86866 0.0
O203 O 0.025 0.58673 0.74855 0.0
C204 C 0.02603 0.57897 0.83844 0.0
O205 O 0.98077 0.53661 0.60113 0.0
O206 O 1.00678 0.47372 0.91987 0.0
O207 O 0.04081 0.44085 0.83496 0.0
O208 O 0.96958 0.50347 0.73429 0.0
C209 C 0.9587 0.51858 0.65558 0.0
O210 O 0.05067 0.50032 0.55653 0.0
O211 O 1.01444 0.46628 0.64934 0.0
O212 O 0.08647 0.50037 0.77085 0.0
O213 O 0.06367 0.56887 0.49026 0.0
O214 O 0.02743 0.60538 0.55547 0.0
O215 O 0.09004 0.55638 0.70799 0.0
C216 C 0.99757 0.41179 0.92889 0.0
C217 C 0.99571 0.39913 1.02062 0.0
C218 C 0.946 0.37447 0.8866 0.0
C219 C 0.96776 0.37622 0.04662 0.0
C220 C 0.97377 0.398 0.86065 0.0
C221 C 0.94102 0.36553 0.98159 0.0
C222 C 0.02115 0.44253 0.90955 0.0
C223 C 0.03167 0.47102 0.5709 0.0
H224 H 0.08803 0.64528 0.60507 0.0
H225 H 0.11936 0.65567 0.26993 0.0
H226 H 0.14 0.6825 0.56015 0.0
H227 H 0.0687 0.61875 0.31536 0.0
H228 H 1.0141 0.40928 0.07403 0.0
H229 H 0.92672 0.3659 0.83363 0.0
H230 H 0.96506 0.37041 0.11986 0.0
H231 H 0.97518 0.40723 0.78885 0.0
H232 H 0.1558 1.01153 0.20111 0.0
H233 H 0.24359 0.04145 0.3844 0.0
H234 H 0.20177 0.05248 0.51111 0.0
H235 H 0.14088 0.04553 0.57642 0.0
H236 H 0.05235 0.01759 0.39268 0.0
H237 H 0.09335 0.01372 0.2605 0.0
C238 C 0.16555 0.02175 0.26773 0.0
C239 C 0.20287 0.02623 0.28246 0.0
C240 C 0.14114 0.02753 0.34121 0.0
C241 C 0.21509 0.03875 0.37012 0.0
C242 C 0.19114 0.04446 0.44326 0.0
C243 C 0.13044 0.03929 0.50706 0.0
C244 C 0.09344 0.03169 0.49503 0.0
C245 C 0.15421 0.0377 0.43073 0.0
C246 C 0.08052 0.0238 0.40428 0.0
C247 C 0.10407 0.02141 0.32854 0.0
H248 H 0.54265 0.22952 0.39701 0.0
H249 H 0.51918 0.1646 0.15525 0.0
H250 H 0.50663 0.11291 0.25731 0.0
H251 H 0.50901 0.08482 0.41706 0.0
H252 H 0.5316 0.15267 0.65581 0.0
H253 H 0.53764 0.20405 0.55383 0.0
C254 C 0.53381 0.20427 0.36667 0.0
C255 C 0.5323 0.20082 0.26849 0.0
C256 C 0.52709 0.17483 0.42571 0.0
C257 C 0.52075 0.16796 0.23043 0.0
C258 C 0.51389 0.13832 0.28901 0.0
C259 C 0.51489 0.11089 0.44683 0.0
C260 C 0.52016 0.11433 0.54488 0.0
C261 C 0.51816 0.1411 0.38699 0.0
C262 C 0.52746 0.14865 0.58139 0.0
C263 C 0.53097 0.17834 0.52287 0.0
H264 H 0.32735 0.50703 0.37187 0.0
H265 H 0.39262 0.51524 0.12733 0.0
H266 H 0.44684 0.50603 0.22384 0.0
H267 H 0.47559 0.5054 0.3834 0.0
H268 H 0.40731 0.49621 0.62486 0.0
H269 H 0.35466 0.49569 0.52445 0.0
C270 C 0.35335 0.50542 0.3392 0.0
C271 C 0.35633 0.51304 0.24317 0.0
C272 C 0.38401 0.50076 0.39542 0.0
C273 C 0.39001 0.51063 0.20157 0.0
C274 C 0.4209 0.50553 0.25704 0.0
C275 C 0.44923 0.50277 0.4139 0.0
C276 C 0.44579 0.50165 0.51236 0.0
C277 C 0.41837 0.50241 0.35505 0.0
C278 C 0.41121 0.49771 0.54997 0.0
C279 C 0.38081 0.49729 0.49244 0.0
H280 H 0.9586 0.3654 0.28426 0.0
H281 H 0.06566 0.32571 0.26521 0.0
H282 H 0.08826 0.37604 0.36098 0.0
H283 H 0.0755 0.42681 0.47002 0.0
H284 H 0.96647 0.46082 0.49551 0.0
H285 H 0.94672 0.41736 0.37825 0.0
C286 C 0.98712 0.36809 0.29896 0.0
C287 C 1.01032 0.34153 0.26741 0.0
C288 C 0.99942 0.39591 0.35731 0.0
C289 C 0.04714 0.34576 0.28737 0.0
C290 C 0.05997 0.37433 0.34351 0.0
C291 C 0.0476 0.42495 0.44838 0.0
C292 C 0.02237 0.44694 0.49154 0.0
C293 C 0.03611 0.39885 0.38202 0.0
C294 C 0.98626 0.44412 0.46369 0.0
C295 C 0.97496 0.41928 0.39653 0.0
H296 H 0.89535 0.04153 0.25505 0.0
H297 H 0.81039 0.98474 0.10908 0.0
H298 H 0.85214 0.9677 0.98683 0.0
H299 H 0.9112 0.97633 0.91015 0.0
H300 H 0.99663 0.03122 0.06066 0.0
H301 H 0.95673 0.04138 0.19163 0.0
C302 C 0.8864 0.02398 0.1988 0.0
C303 C 0.84983 0.01381 0.19251 0.0
C304 C 0.91059 0.01475 0.12782 0.0
C305 C 0.83847 0.99208 0.11724 0.0
C306 C 0.86229 0.98291 0.04624 0.0
C307 C 0.92124 0.98997 0.97229 0.0
C308 C 0.95697 1.00321 0.97472 0.0
C309 C 0.89814 0.99525 0.04886 0.0
C310 C 0.96944 0.02059 0.05645 0.0
C311 C 0.94653 0.02656 0.13158 0.0
H312 H 0.45612 0.88017 0.19312 0.0
H313 H 0.55731 0.82742 0.18698 0.0
H314 H 0.58073 0.87336 0.07949 0.0
H315 H 0.56887 0.92381 0.96779 0.0
H316 H 0.46404 0.96982 0.96288 0.0
H317 H 0.44541 0.9312 0.09181 0.0
C318 C 0.48369 0.87922 0.17045 0.0
C319 C 0.50483 0.8502 0.19849 0.0
C320 C 0.49593 0.90412 0.1037 0.0
C321 C 0.54047 0.84951 0.16788 0.0
C322 C 0.55362 0.87549 0.10474 0.0
C323 C 0.54213 0.92548 0.99587 0.0
C324 C 0.51774 0.94958 0.95546 0.0
C325 C 0.53108 0.90209 0.06889 0.0
C326 C 0.48314 0.95137 0.99216 0.0
C327 C 0.47252 0.92936 0.06622 0.0
H328 H 0.6712 0.44783 0.17003 0.0
H329 H 0.72519 0.55054 0.18042 0.0
H330 H 0.68126 0.57417 0.06853 0.0
H331 H 0.63213 0.56285 0.95003 0.0
H332 H 0.58457 0.45728 0.93122 0.0
H333 H 0.62151 0.43745 0.06222 0.0
C334 C 0.67321 0.4756 0.14939 0.0
C335 C 0.70192 0.49714 0.18359 0.0
C336 C 0.64927 0.48829 0.08118 0.0
C337 C 0.70342 0.53323 0.15625 0.0
C338 C 0.67854 0.54663 0.09089 0.0
C339 C 0.62973 0.5357 0.9757 0.0
C340 C 0.60576 0.51144 0.93082 0.0
C341 C 0.65213 0.52402 0.05001 0.0
C342 C 0.60296 0.47629 0.96416 0.0
C343 C 0.62403 0.46496 0.0393 0.0
H344 H 0.05065 0.72149 0.06886 0.0
H345 H 1.01195 0.65632 0.29591 0.0
H346 H 1.00128 0.60628 0.187 0.0
H347 H 1.00856 0.57946 1.02742 0.0
H348 H 0.04521 0.64771 0.80267 0.0
H349 H 0.05121 0.69764 0.91004 0.0
C350 C 0.03936 0.69647 0.09449 0.0
C351 C 0.03296 0.69243 0.19105 0.0
C352 C 0.03342 0.66803 1.03161 0.0
C353 C 1.01749 0.66012 0.22232 0.0
C354 C 1.01169 0.63139 0.15995 0.0
C355 C 1.0176 0.60533 1.00193 0.0
C356 C 0.02666 0.60943 0.90644 0.0
C357 C 0.02056 0.63467 0.0646 0.0
C358 C 0.03794 0.64342 0.87505 0.0
C359 C 0.04148 0.67218 0.93666 0.0
H360 H 0.88638 0.22407 0.2357 0.0
H361 H 0.95912 0.2579 0.45718 0.0
H362 H 0.92437 0.22441 0.57071 0.0
H363 H 0.88337 0.17571 0.599 0.0
H364 H 0.81123 0.1381 0.3812 0.0
H365 H 0.83452 0.18412 0.27545 0.0
C366 C 0.89416 0.22443 0.30909 0.0
C367 C 0.92562 0.24288 0.33764 0.0
C368 C 0.87433 0.20439 0.37454 0.0
C369 C 0.93505 0.2439 0.43321 0.0
C370 C 0.91522 0.22466 0.4984 0.0
C371 C 0.87139 0.17799 0.52992 0.0
C372 C 0.84749 0.15138 0.4957 0.0
C373 C 0.88601 0.2034 0.46895 0.0
C374 C 0.83134 0.15678 0.40732 0.0
C375 C 0.8449 0.18293 0.34653 0.0
H376 H 0.26355 0.9365 0.38903 0.0
H377 H 0.28968 0.89233 0.12025 0.0
H378 H 0.33436 0.85469 0.19519 0.0
H379 H 0.37707 0.84982 0.32745 0.0
H380 H 0.35268 0.90062 0.58976 0.0
H381 H 0.2949 0.91727 0.5288 0.0
C382 C 0.27755 0.91749 0.3466 0.0
C383 C 0.2746 0.91872 0.24832 0.0
C384 C 0.30406 0.89706 0.38954 0.0
C385 C 0.29266 0.89313 0.19573 0.0
C386 C 0.31829 0.87163 0.23857 0.0
C387 C 0.35874 0.86377 0.37211 0.0
C388 C 0.37044 0.87577 0.46114 0.0
C389 C 0.32629 0.87585 0.33418 0.0
C390 C 0.34534 0.89168 0.52002 0.0
C391 C 0.31216 0.90184 0.48464 0.0
H392 H 0.62121 0.26787 0.37746 0.0
H393 H 0.66412 0.29707 0.10821 0.0
H394 H 0.70475 0.34053 0.18362 0.0
H395 H 0.7138 0.38082 0.31801 0.0
H396 H 0.66307 0.35432 0.58017 0.0
H397 H 0.64332 0.29748 0.51789 0.0
C398 C 0.64048 0.2824 0.33502 0.0
C399 C 0.63838 0.2804 0.23676 0.0
C400 C 0.66269 0.30814 0.37828 0.0
C401 C 0.66409 0.29927 0.18378 0.0
C402 C 0.6874 0.32407 0.22691 0.0
C403 C 0.69903 0.36231 0.36225 0.0
C404 C 0.6877 0.37335 0.45132 0.0
C405 C 0.68468 0.3307 0.32315 0.0
C406 C 0.67125 0.34774 0.51006 0.0
C407 C 0.65923 0.31509 0.47388 0.0
H408 H 0.25915 0.64862 0.16312 0.0
H409 H 0.28857 0.58601 0.40502 0.0
H410 H 0.24931 0.62039 0.50195 0.0
H411 H 0.19379 0.65288 0.50455 0.0
H412 H 0.15873 0.70948 0.25862 0.0
H413 H 0.21343 0.69437 0.17865 0.0
C414 C 0.2577 0.64321 0.23758 0.0
C415 C 0.27579 0.61396 0.27575 0.0
C416 C 0.23352 0.66189 0.29241 0.0
C417 C 0.27469 0.60807 0.37303 0.0
C418 C 0.25189 0.62757 0.42878 0.0
C419 C 0.19886 0.6636 0.4353 0.0
C420 C 0.17151 0.68111 0.38621 0.0
C421 C 0.22915 0.65245 0.3875 0.0
C422 C 0.17899 0.69536 0.29727 0.0
C423 C 0.21009 0.68611 0.25081 0.0
H424 H 0.1441 0.8075 0.39313 0.0
H425 H 0.1328 0.75675 0.12208 0.0
H426 H 0.16772 0.80425 0.05292 0.0
H427 H 0.18014 0.86812 0.05561 0.0
H428 H 0.16657 0.92635 0.31197 0.0
H429 H 0.16152 0.87042 0.39895 0.0
C430 C 0.14826 0.80691 0.31833 0.0
C431 C 0.13222 0.7797 0.26262 0.0
C432 C 0.16342 0.83713 0.27532 0.0
C433 C 0.14266 0.77763 0.16813 0.0
C434 C 0.1625 0.80536 0.12731 0.0
C435 C 0.17765 0.86849 0.13121 0.0
C436 C 0.17445 0.90124 0.17768 0.0
C437 C 0.16971 0.83662 0.17819 0.0
C438 C 0.1702 0.9015 0.27517 0.0
C439 C 0.16663 0.86945 0.32451 0.0
H440 H 0.75895 0.15258 0.2923 0.0
H441 H 0.79239 0.09656 0.04542 0.0
H442 H 0.75311 0.13204 0.94905 0.0
H443 H 0.69584 0.16138 0.94569 0.0
H444 H 0.65739 0.21157 0.19501 0.0
H445 H 0.71246 0.19757 0.27764 0.0
C446 C 0.75864 0.149 0.21705 0.0
C447 C 0.77757 0.12088 0.17721 0.0
C448 C 0.73435 0.16818 0.16206 0.0
C449 C 0.77781 0.11754 0.07901 0.0
C450 C 0.75491 0.13765 1.02339 0.0
C451 C 0.70006 0.17104 1.01653 0.0
C452 C 0.67157 0.18598 0.06549 0.0
C453 C 0.73083 0.16057 0.06551 0.0
C454 C 0.67833 0.19917 0.15631 0.0
C455 C 0.70976 0.19057 0.20429 0.0
H456 H 0.37648 0.73459 0.23359 0.0
H457 H 0.44436 0.7754 1.01353 0.0
H458 H 0.41466 0.73633 0.90135 0.0
H459 H 0.38509 0.67882 0.8801 0.0
H460 H 0.32182 0.63316 0.10074 0.0
H461 H 0.33221 0.68639 0.19627 0.0
C462 C 0.38404 0.73553 0.16057 0.0
C463 C 0.41333 0.75712 0.13298 0.0
C464 C 0.36779 0.71174 0.09633 0.0
C465 C 0.4221 0.75895 0.03746 0.0
C466 C 0.40525 0.73634 0.97283 0.0
C467 C 0.37184 0.68121 0.94685 0.0
C468 C 0.35469 0.65122 0.98651 0.0
C469 C 0.38015 0.7108 1.00318 0.0
C470 C 0.33639 0.65547 0.07099 0.0
C471 C 0.34299 0.68567 0.12624 0.0
H472 H 0.82002 0.3757 0.26057 0.0
H473 H 0.77584 0.43432 1.02689 0.0
H474 H 0.81752 0.40727 0.92243 0.0
H475 H 0.87603 0.38235 0.90741 0.0
H476 H 0.92349 0.3247 0.13754 0.0
H477 H 0.87088 0.33556 0.23224 0.0
C478 C 0.81896 0.38178 0.18638 0.0
C479 C 0.79529 0.40776 0.15273 0.0
C480 C 0.84419 0.36705 0.12605 0.0
C481 C 0.79357 0.41454 0.05574 0.0
C482 C 0.81781 0.39931 0.99542 0.0
C483 C 0.87459 0.37053 0.97653 0.0
C484 C 0.90492 0.35485 1.0173 0.0
C485 C 0.84474 0.37763 1.0311 0.0
C486 C 0.9014 0.3388 0.10616 0.0
C487 C 0.8713 0.34511 0.16061 0.0
H488 H 0.03522 0.19626 0.14893 0.0
H489 H 0.969 0.25316 0.95352 0.0
H490 H 0.97517 0.20532 0.83796 0.0
H491 H 0.99501 0.14412 0.79807 0.0
H492 H 0.06189 0.08824 0.99589 0.0
H493 H 0.05992 0.13834 0.10341 0.0
C494 C 0.0232 0.19871 0.07979 0.0
C495 C 1.00241 0.22874 0.05912 0.0
C496 C 0.02641 0.17072 1.0143 0.0
C497 C 0.98595 0.23089 0.97031 0.0
C498 C 0.9891 0.20322 0.90466 0.0
C499 C 1.00949 0.14303 0.86419 0.0
C500 C 0.02851 0.11195 0.88801 0.0
C501 C 1.00855 0.17247 0.92661 0.0
C502 C 0.04712 0.11148 0.97446 0.0
C503 C 0.04597 0.14026 0.03667 0.0
H504 H 0.29862 0.9812 0.93674 0.0
H505 H 0.32278 0.06206 0.14315 0.0
H506 H 0.37865 0.07749 0.06259 0.0
H507 H 0.42411 0.06314 0.94352 0.0
H508 H 0.39927 0.98226 0.73682 0.0
H509 H 0.34068 0.97174 0.8072 0.0
C510 C 0.31564 1.00291 0.96267 0.0
C511 C 0.30619 0.02055 0.04608 0.0
C512 C 0.34816 1.01115 0.91677 0.0
C513 C 0.32883 0.04841 0.07869 0.0
C514 C 0.36116 0.05686 1.03319 0.0
C515 C 0.40575 0.0435 0.91299 0.0
C516 C 0.41658 0.02339 0.83475 0.0
C517 C 0.37168 0.03766 0.95381 0.0
C518 C 0.39201 0.99827 0.79642 0.0
C519 C 0.35838 0.99212 0.83701 0.0
H520 H 0.57469 0.29674 0.92001 0.0
H521 H 0.49427 0.3191 0.12389 0.0
H522 H 0.47875 0.37362 0.03873 0.0
H523 H 0.49348 0.41884 0.91701 0.0
H524 H 0.57411 0.39574 0.71329 0.0
H525 H 0.58406 0.33802 0.78734 0.0
C526 C 0.55296 0.31298 0.94412 0.0
C527 C 0.53551 0.30358 1.02816 0.0
C528 C 0.54477 0.34474 0.89577 0.0
C529 C 0.50771 0.3252 0.05886 0.0
C530 C 0.49924 0.35675 1.01079 0.0
C531 C 0.51291 0.40101 0.88795 0.0
C532 C 0.53319 0.41208 0.80961 0.0
C533 C 0.51844 0.36745 0.93092 0.0
C534 C 0.55803 0.38825 0.77304 0.0
C535 C 0.56384 0.35512 0.81568 0.0
H536 H 0.25084 0.58194 0.94327 0.0
H537 H 0.24439 0.47683 0.0651 0.0
H538 H 0.19196 0.46234 0.96618 0.0
H539 H 0.14342 0.48237 0.85968 0.0
H540 H 0.14946 0.58859 0.74277 0.0
H541 H 0.20615 0.59974 0.82518 0.0
C542 C 0.23838 0.55558 0.94686 0.0
C543 C 0.25157 0.53057 1.01213 0.0
C544 C 0.20761 0.54785 0.89173 0.0
C545 C 0.23518 0.49649 1.0152 0.0
C546 C 0.20483 0.48838 0.95936 0.0
C547 C 0.15733 0.50781 0.85102 0.0
C548 C 0.14166 0.53469 0.79525 0.0
C549 C 0.19007 0.51427 0.89963 0.0
C550 C 0.16045 0.56739 0.78515 0.0
C551 C 0.193 0.57385 0.83253 0.0
H552 H 1.0048 0.82314 0.34141 0.0
H553 H 0.04276 0.7601 0.57222 0.0
H554 H 0.03682 0.81097 0.67809 0.0
H555 H 0.02971 0.87656 0.6993 0.0
H556 H 0.99383 0.93889 0.46281 0.0
H557 H 0.99044 0.88586 0.36635 0.0
C558 C 1.00989 0.82 0.41588 0.0
C559 C 0.02321 0.78744 0.44908 0.0
C560 C 1.0082 0.84998 0.47523 0.0
C561 C 0.03127 0.7844 0.54527 0.0
C562 C 0.02871 0.81386 0.60545 0.0
C563 C 0.02083 0.87848 0.62699 0.0
C564 C 1.01253 0.91221 0.58903 0.0
C565 C 0.01874 0.84734 0.5704 0.0
C566 C 1.00075 0.91373 0.4949 0.0
C567 C 0.99863 0.88321 0.43903 0.0
H568 H 0.74596 0.07831 0.49682 0.0
H569 H 0.73095 0.97959 0.34624 0.0
H570 H 0.67736 0.96558 0.43847 0.0
H571 H 0.63106 0.98444 0.55202 0.0
H572 H 0.64675 0.08431 0.69855 0.0
H573 H 0.70305 0.0947 0.61777 0.0
C574 C 0.73131 0.0534 0.48501 0.0
C575 C 0.74273 0.03011 0.41397 0.0
C576 C 0.70001 0.04595 0.53692 0.0
C577 C 0.72331 0.9979 0.40065 0.0
C578 C 0.69228 0.9901 0.45285 0.0
C579 C 0.64694 1.00831 0.56723 0.0
C580 C 0.63402 0.03361 0.63174 0.0
C581 C 0.67976 0.01437 0.51964 0.0
C582 C 0.65542 0.0643 0.64969 0.0
C583 C 0.68785 0.07035 0.60323 0.0
H584 H 0.53956 0.72133 0.35314 0.0
H585 H 0.44183 0.74864 0.48982 0.0
H586 H 0.44854 0.69862 0.59835 0.0
H587 H 0.47904 0.6431 0.64513 0.0
H588 H 0.57723 0.61608 0.50864 0.0
H589 H 0.57349 0.66926 0.41109 0.0
C590 C 0.52045 0.71704 0.40877 0.0
C591 C 0.49051 0.73926 0.41401 0.0
C592 C 0.52412 0.68751 0.47036 0.0
C593 C 0.46543 0.73246 0.48505 0.0
C594 C 0.46904 0.70351 0.54661 0.0
C595 C 0.49986 0.64899 0.59484 0.0
C596 C 0.52828 0.62504 0.58474 0.0
C597 C 0.49775 0.68016 0.53846 0.0
C598 C 0.55496 0.63364 0.51886 0.0
C599 C 0.55286 0.66424 0.46244 0.0
H600 H 0.81369 0.45157 0.49537 0.0
H601 H 0.8182 0.54613 0.32405 0.0
H602 H 0.87074 0.56808 0.41298 0.0
H603 H 0.91974 0.55677 0.52724 0.0
H604 H 0.91405 0.46261 0.70091 0.0
H605 H 0.8578 0.44436 0.62419 0.0
C606 C 0.82561 0.47746 0.47929 0.0
C607 C 0.8119 0.49724 0.4032 0.0
C608 C 0.85604 0.48974 0.5304 0.0
C609 C 0.82781 0.53061 0.38286 0.0
C610 C 0.85817 0.54295 0.43311 0.0
C611 C 0.90588 0.53256 0.54951 0.0
C612 C 0.92146 0.51104 0.61973 0.0
C613 C 0.87321 0.52223 0.50516 0.0
C614 C 0.90284 0.47987 0.64772 0.0
C615 C 0.87066 0.46925 0.60332 0.0
loop_
_geom_bond_atom_site_label_1
_geom_bond_atom_site_label_2
_geom_bond_distance
_geom_bond_site_symmetry_2
_ccdc_geom_bond_type
H0 C3 0.931 . S
H1 C6 0.928 . S
H2 C8 0.930 . S
C3 H0 0.931 . S
C3 C4 1.413 . S
C3 C5 1.360 . S
C4 C3 1.413 . S
C4 C8 1.429 . S
C5 C3 1.360 . S
C5 C6 1.372 . S
C6 H1 0.928 . S
C6 C5 1.372 . S
C6 C7 1.404 . S
C7 C6 1.404 . S
C7 C8 1.391 . S
C8 H2 0.930 . S
C8 C4 1.429 . S
C8 C7 1.391 . S
H9 C12 0.931 . S
H10 C15 0.928 . S
H11 C17 0.930 . S
C12 H9 0.931 . S
C12 C13 1.413 . S
C12 C14 1.360 . S
C13 C12 1.413 . S
C13 C17 1.429 . S
C14 C12 1.360 . S
C14 C15 1.372 . S
C15 H10 0.928 . S
C15 C14 1.372 . S
C15 C16 1.404 . S
C16 C15 1.404 . S
C16 C17 1.391 . S
C17 H11 0.930 . S
C17 C13 1.429 . S
C17 C16 1.391 . S
H18 C21 0.931 . S
H19 C24 0.928 . S
H20 C26 0.930 . S
C21 H18 0.931 . S
C21 C22 1.413 . S
C21 C23 1.360 . S
C22 C21 1.413 . S
C22 C26 1.429 . S
C23 C21 1.360 . S
C23 C24 1.372 . S
C24 H19 0.928 . S
C24 C23 1.372 . S
C24 C25 1.404 . S
C25 C24 1.404 . S
C25 C26 1.391 . S
C26 H20 0.930 . S
C26 C22 1.429 . S
C26 C25 1.391 . S
H27 C30 0.931 . S
H28 C33 0.928 . S
H29 C35 0.930 . S
C30 H27 0.931 . S
C30 C31 1.413 . S
C30 C32 1.360 . S
C31 C30 1.413 . S
C31 C35 1.429 . S
C32 C30 1.360 . S
C32 C33 1.372 . S
C33 H28 0.928 . S
C33 C32 1.372 . S
C33 C34 1.404 . S
C34 C33 1.404 . S
C34 C35 1.391 . S
C35 H29 0.930 . S
C35 C31 1.429 . S
C35 C34 1.391 . S
H36 C39 0.931 . S
H37 C42 0.928 . S
H38 C44 0.930 1_556 S
C39 H36 0.931 . S
C39 C40 1.413 1_554 S
C39 C41 1.360 . S
C40 C39 1.413 1_556 S
C40 C44 1.429 1_556 S
C41 C39 1.360 . S
C41 C42 1.372 . S
C42 H37 0.928 . S
C42 C41 1.372 . S
C42 C43 1.404 . S
C43 C42 1.404 . S
C43 C44 1.391 . S
C44 H38 0.930 1_554 S
C44 C40 1.429 1_554 S
C44 C43 1.391 . S
H45 C48 0.931 1_556 S
H46 C51 0.928 . S
H47 C53 0.930 . S
C48 H45 0.931 1_554 S
C48 C49 1.413 1_554 S
C48 C50 1.360 . S
C49 C48 1.413 1_556 S
C49 C53 1.429 . S
C50 C48 1.360 . S
C50 C51 1.372 . S
C51 H46 0.928 . S
C51 C50 1.372 . S
C51 C52 1.404 . S
C52 C51 1.404 . S
C52 C53 1.391 1_554 S
C53 H47 0.930 . S
C53 C49 1.429 . S
C53 C52 1.391 1_556 S
H54 C57 0.931 . S
H55 C60 0.928 . S
H56 C62 0.930 . S
C57 H54 0.931 . S
C57 C58 1.413 . S
C57 C59 1.360 1_556 S
C58 C57 1.413 . S
C58 C62 1.429 . S
C59 C57 1.360 1_554 S
C59 C60 1.372 . S
C60 H55 0.928 . S
C60 C59 1.372 . S
C60 C61 1.404 . S
C61 C60 1.404 . S
C61 C62 1.391 1_554 S
C62 H56 0.930 . S
C62 C58 1.429 . S
C62 C61 1.391 1_556 S
H63 C66 0.931 . S
H64 C69 0.928 . S
H65 C71 0.930 . S
C66 H63 0.931 . S
C66 C67 1.413 . S
C66 C68 1.360 1_554 S
C67 C66 1.413 . S
C67 C71 1.429 . S
C68 C66 1.360 1_556 S
C68 C69 1.372 . S
C69 H64 0.928 . S
C69 C68 1.372 . S
C69 C70 1.404 1_556 S
C70 C69 1.404 1_554 S
C70 C71 1.391 . S
C71 H65 0.930 . S
C71 C67 1.429 . S
C71 C70 1.391 . S
Eu72 C81 2.828 . S
Eu72 O83 2.392 . S
Eu72 O85 2.418 1_545 S
Eu72 O90 2.373 1_655 S
Eu72 O93 2.488 . S
Eu72 O94 2.471 . S
Eu72 O95 2.349 1_655 S
Eu73 O82 2.373 1_455 S
Eu73 O86 2.488 . S
Eu73 O87 2.471 . S
Eu73 O88 2.360 . S
Eu73 O91 2.392 1_565 S
Eu73 O92 2.418 1_565 S
Eu73 C102 2.828 . S
C74 O92 1.244 . S
C74 O95 1.265 . S
C75 C76 1.379 1_655 S
C75 C79 1.373 . S
C75 C81 1.505 . S
C76 C75 1.379 1_455 S
C76 C78 1.369 . S
C76 H104 0.930 . S
C77 C79 1.383 . S
C77 C80 1.382 . S
C77 H105 0.930 . S
C78 C76 1.369 . S
C78 C80 1.392 1_455 S
C78 H106 0.930 . S
C79 C75 1.373 . S
C79 C77 1.383 . S
C79 H107 0.931 . S
C80 C77 1.382 . S
C80 C78 1.392 1_655 S
C81 Eu72 2.828 . S
C81 C75 1.505 . S
C81 O93 1.249 . S
C81 O94 1.244 . S
O82 Eu73 2.373 1_655 S
O82 C84 1.258 . S
O83 Eu72 2.392 . S
O83 C84 1.242 1_545 S
C84 O82 1.258 . S
C84 O83 1.242 1_565 S
O85 Eu72 2.418 1_565 S
O85 C89 1.244 . S
O86 Eu73 2.488 . S
O86 C102 1.249 . S
O87 Eu73 2.471 . S
O87 C102 1.244 . S
O88 Eu73 2.360 . S
O88 C89 1.257 1_455 S
C89 O85 1.244 . S
C89 O88 1.257 1_655 S
O90 Eu72 2.373 1_455 S
O90 C103 1.258 . S
O91 Eu73 2.392 1_545 S
O91 C103 1.242 . S
O92 Eu73 2.418 1_545 S
O92 C74 1.244 . S
O93 Eu72 2.488 . S
O93 C81 1.249 . S
O94 Eu72 2.471 . S
O94 C81 1.244 . S
O95 Eu72 2.349 1_455 S
O95 C74 1.265 . S
C96 C97 1.379 . S
C96 C100 1.373 1_556 S
C96 C102 1.505 . S
C97 C96 1.379 . S
C97 C99 1.369 1_556 S
C97 H108 0.932 . S
C98 C100 1.383 . S
C98 C101 1.382 . S
C98 H109 0.930 . S
C99 C97 1.369 1_554 S
C99 C101 1.392 . S
C99 H110 0.930 1_455 S
C100 C96 1.373 1_554 S
C100 C98 1.383 . S
C100 H111 0.931 . S
C101 C98 1.382 . S
C101 C99 1.392 . S
C102 Eu73 2.828 . S
C102 O86 1.249 . S
C102 O87 1.244 . S
C102 C96 1.505 . S
C103 O90 1.258 . S
C103 O91 1.242 . S
H104 C76 0.930 . S
H105 C77 0.930 . S
H106 C78 0.930 . S
H107 C79 0.931 . S
H108 C97 0.932 . S
H109 C98 0.930 . S
H110 C99 0.930 1_655 S
H111 C100 0.931 . S
Eu112 C121 2.828 . S
Eu112 O123 2.392 . S
Eu112 O125 2.418 . S
Eu112 O130 2.373 . S
Eu112 O133 2.488 . S
Eu112 O134 2.471 . S
Eu112 O135 2.349 1_545 S
Eu113 O122 2.373 1_565 S
Eu113 O126 2.488 . S
Eu113 O127 2.471 . S
Eu113 O128 2.349 1_565 S
Eu113 O131 2.392 . S
Eu113 O132 2.418 . S
Eu113 C142 2.828 . S
C114 O132 1.244 . S
C114 O135 1.265 . S
C115 C116 1.379 . S
C115 C119 1.373 . S
C115 C121 1.505 . S
C116 C115 1.379 . S
C116 C118 1.369 1_556 S
C116 H144 0.930 1_545 S
C117 C119 1.383 . S
C117 C120 1.382 1_556 S
C117 H145 0.930 . S
C118 C116 1.369 1_554 S
C118 C120 1.392 . S
C118 H146 0.930 1_545 S
C119 C115 1.373 . S
C119 C117 1.383 . S
C119 H147 0.931 . S
C120 C117 1.382 1_554 S
C120 C118 1.392 . S
C121 Eu112 2.828 . S
C121 C115 1.505 . S
C121 O133 1.249 . S
C121 O134 1.244 . S
O122 Eu113 2.373 1_545 S
O122 C124 1.258 . S
O123 Eu112 2.392 . S
O123 C124 1.242 . S
C124 O122 1.258 . S
C124 O123 1.242 . S
O125 Eu112 2.418 . S
O125 C129 1.244 . S
O126 Eu113 2.488 . S
O126 C142 1.249 . S
O127 Eu113 2.471 . S
O127 C142 1.244 . S
O128 Eu113 2.349 1_545 S
O128 C129 1.265 . S
C129 O125 1.244 . S
C129 O128 1.265 . S
O130 Eu112 2.373 . S
O130 C143 1.258 1_545 S
O131 Eu113 2.392 . S
O131 C143 1.242 . S
O132 Eu113 2.418 . S
O132 C114 1.244 . S
O133 Eu112 2.488 . S
O133 C121 1.249 . S
O134 Eu112 2.471 . S
O134 C121 1.244 . S
O135 Eu112 2.349 1_565 S
O135 C114 1.265 . S
C136 C137 1.379 1_565 S
C136 C140 1.373 . S
C136 C142 1.505 . S
C137 C136 1.379 1_545 S
C137 C139 1.369 . S
C137 H148 0.930 . S
C138 C140 1.383 . S
C138 C141 1.382 . S
C138 H149 0.930 . S
C139 C137 1.369 . S
C139 C141 1.392 1_545 S
C139 H150 0.930 . S
C140 C136 1.373 . S
C140 C138 1.383 . S
C140 H151 0.931 . S
C141 C138 1.382 . S
C141 C139 1.392 1_565 S
C142 Eu113 2.828 . S
C142 O126 1.249 . S
C142 O127 1.244 . S
C142 C136 1.505 . S
C143 O130 1.258 1_565 S
C143 O131 1.242 . S
H144 C116 0.930 1_565 S
H145 C117 0.930 . S
H146 C118 0.930 1_565 S
H147 C119 0.931 . S
H148 C137 0.930 . S
H149 C138 0.930 . S
H150 C139 0.930 . S
H151 C140 0.931 . S
Eu152 C161 2.828 . S
Eu152 O163 2.392 . S
Eu152 O165 2.418 . S
Eu152 O170 2.373 . S
Eu152 O173 2.488 . S
Eu152 O174 2.471 . S
Eu152 O175 2.349 . S
Eu153 O162 2.373 . S
Eu153 O166 2.488 . S
Eu153 O167 2.471 . S
Eu153 O168 2.349 . S
Eu153 O171 2.392 . S
Eu153 O172 2.418 . S
Eu153 C182 2.828 . S
C154 O172 1.244 . S
C154 O175 1.265 . S
C155 C156 1.379 . S
C155 C159 1.373 . S
C155 C161 1.505 . S
C156 C155 1.379 . S
C156 C158 1.369 . S
C156 H184 0.930 . S
C157 C159 1.383 . S
C157 C160 1.382 . S
C157 H185 0.930 . S
C158 C156 1.369 . S
C158 C160 1.392 . S
C158 H186 0.930 . S
C159 C155 1.373 . S
C159 C157 1.383 . S
C159 H187 0.931 . S
C160 C157 1.382 . S
C160 C158 1.392 . S
C161 Eu152 2.828 . S
C161 C155 1.505 . S
C161 O173 1.249 . S
C161 O174 1.244 . S
O162 Eu153 2.373 . S
O162 C164 1.258 . S
O163 Eu152 2.392 . S
O163 C164 1.242 . S
C164 O162 1.258 . S
C164 O163 1.242 . S
O165 Eu152 2.418 . S
O165 C169 1.244 . S
O166 Eu153 2.488 . S
O166 C182 1.249 . S
O167 Eu153 2.471 . S
O167 C182 1.244 . S
O168 Eu153 2.349 . S
O168 C169 1.265 . S
C169 O165 1.244 . S
C169 O168 1.265 . S
O170 Eu152 2.373 . S
O170 C183 1.258 . S
O171 Eu153 2.392 . S
O171 C183 1.242 . S
O172 Eu153 2.418 . S
O172 C154 1.244 . S
O173 Eu152 2.488 . S
O173 C161 1.249 . S
O174 Eu152 2.471 . S
O174 C161 1.244 . S
O175 Eu152 2.349 . S
O175 C154 1.265 . S
C176 C177 1.379 . S
C176 C180 1.373 . S
C176 C182 1.505 . S
C177 C176 1.379 . S
C177 C179 1.369 . S
C177 H188 0.930 . S
C178 C180 1.383 . S
C178 C181 1.382 . S
C178 H189 0.930 . S
C179 C177 1.369 . S
C179 C181 1.392 . S
C179 H190 0.930 . S
C180 C176 1.373 . S
C180 C178 1.383 . S
C180 H191 0.931 . S
C181 C178 1.382 . S
C181 C179 1.392 . S
C182 Eu153 2.828 . S
C182 O166 1.249 . S
C182 O167 1.244 . S
C182 C176 1.505 . S
C183 O170 1.258 . S
C183 O171 1.242 . S
H184 C156 0.930 . S
H185 C157 0.930 . S
H186 C158 0.930 . S
H187 C159 0.931 . S
H188 C177 0.930 . S
H189 C178 0.930 . S
H190 C179 0.930 . S
H191 C180 0.931 . S
Eu192 C201 2.828 . S
Eu192 O203 2.392 . S
Eu192 O205 2.418 1_455 S
Eu192 O210 2.373 . S
Eu192 O213 2.488 . S
Eu192 O214 2.471 . S
Eu192 O215 2.349 . S
Eu193 O202 2.373 . S
Eu193 O206 2.488 . S
Eu193 O207 2.471 . S
Eu193 O208 2.349 . S
Eu193 O211 2.392 1_655 S
Eu193 O212 2.418 1_655 S
Eu193 C222 2.828 . S
C194 O212 1.244 . S
C194 O215 1.265 . S
C195 C196 1.379 . S
C195 C199 1.373 . S
C195 C201 1.505 . S
C196 C195 1.379 . S
C196 C198 1.369 . S
C196 H224 0.930 . S
C197 C199 1.383 . S
C197 C200 1.382 . S
C197 H225 0.930 . S
C198 C196 1.369 . S
C198 C200 1.392 . S
C198 H226 0.930 . S
C199 C195 1.373 . S
C199 C197 1.383 . S
C199 H227 0.931 . S
C200 C197 1.382 . S
C200 C198 1.392 . S
C201 Eu192 2.828 . S
C201 C195 1.505 . S
C201 O213 1.249 . S
C201 O214 1.244 . S
O202 Eu193 2.373 . S
O202 C204 1.258 . S
O203 Eu192 2.392 . S
O203 C204 1.242 1_455 S
C204 O202 1.258 . S
C204 O203 1.242 1_655 S
O205 Eu192 2.418 1_655 S
O205 C209 1.244 . S
O206 Eu193 2.488 . S
O206 C222 1.249 . S
O207 Eu193 2.471 . S
O207 C222 1.244 . S
O208 Eu193 2.349 . S
O208 C209 1.265 . S
C209 O205 1.244 . S
C209 O208 1.265 . S
O210 Eu192 2.373 . S
O210 C223 1.258 . S
O211 Eu193 2.392 1_455 S
O211 C223 1.242 . S
O212 Eu193 2.418 1_455 S
O212 C194 1.244 . S
O213 Eu192 2.488 . S
O213 C201 1.249 . S
O214 Eu192 2.471 . S
O214 C201 1.244 . S
O215 Eu192 2.349 . S
O215 C194 1.265 . S
C216 C217 1.379 . S
C216 C220 1.373 1_556 S
C216 C222 1.505 . S
C217 C216 1.379 . S
C217 C219 1.369 1_556 S
C217 H228 0.930 . S
C218 C220 1.383 . S
C218 C221 1.382 . S
C218 H229 0.930 . S
C219 C217 1.369 1_554 S
C219 C221 1.392 . S
C219 H230 0.930 . S
C220 C216 1.373 1_554 S
C220 C218 1.383 . S
C220 H231 0.931 . S
C221 C218 1.382 . S
C221 C219 1.392 . S
C222 Eu193 2.828 . S
C222 O206 1.249 . S
C222 O207 1.244 . S
C222 C216 1.505 . S
C223 O210 1.258 . S
C223 O211 1.242 . S
H224 C196 0.930 . S
H225 C197 0.930 . S
H226 C198 0.930 . S
H227 C199 0.931 . S
H228 C217 0.930 . S
H229 C218 0.930 . S
H230 C219 0.930 . S
H231 C220 0.931 . S
H232 C238 0.930 . S
H233 C241 0.930 . S
H234 C242 0.930 . S
H235 C243 0.930 . S
H236 C246 0.930 1_565 S
H237 C247 0.930 1_565 S
C238 H232 0.930 . S
C238 C239 1.355 . S
C238 C240 1.415 . S
C239 C238 1.355 . S
C239 C241 1.419 . S
C240 C238 1.415 . S
C240 C245 1.425 . S
C240 C247 1.409 . S
C241 H233 0.930 . S
C241 C239 1.419 . S
C241 C242 1.362 . S
C242 H234 0.930 . S
C242 C241 1.362 . S
C242 C245 1.409 . S
C243 H235 0.930 . S
C243 C244 1.355 . S
C243 C245 1.415 . S
C244 C243 1.355 . S
C244 C246 1.419 . S
C245 C240 1.425 . S
C245 C242 1.409 . S
C245 C243 1.415 . S
C246 H236 0.930 1_545 S
C246 C244 1.419 . S
C246 C247 1.362 . S
C247 H237 0.930 1_545 S
C247 C240 1.409 . S
C247 C246 1.362 . S
H248 C254 0.930 . S
H249 C257 0.930 . S
H250 C258 0.930 . S
H251 C259 0.930 . S
H252 C262 0.930 . S
H253 C263 0.930 . S
C254 H248 0.930 . S
C254 C255 1.355 . S
C254 C256 1.415 . S
C255 C254 1.355 . S
C255 C257 1.419 . S
C256 C254 1.415 . S
C256 C261 1.425 . S
C256 C263 1.409 . S
C257 H249 0.930 . S
C257 C255 1.419 . S
C257 C258 1.362 . S
C258 H250 0.930 . S
C258 C257 1.362 . S
C258 C261 1.409 . S
C259 H251 0.930 . S
C259 C260 1.355 . S
C259 C261 1.415 . S
C260 C259 1.355 . S
C260 C262 1.419 . S
C261 C256 1.425 . S
C261 C258 1.409 . S
C261 C259 1.415 . S
C262 H252 0.930 . S
C262 C260 1.419 . S
C262 C263 1.362 . S
C263 H253 0.930 . S
C263 C256 1.409 . S
C263 C262 1.362 . S
H264 C270 0.930 . S
H265 C273 0.930 . S
H266 C274 0.930 . S
H267 C275 0.930 . S
H268 C278 0.930 . S
H269 C279 0.930 . S
C270 H264 0.930 . S
C270 C271 1.355 . S
C270 C272 1.415 . S
C271 C270 1.355 . S
C271 C273 1.419 . S
C272 C270 1.415 . S
C272 C277 1.425 . S
C272 C279 1.409 . S
C273 H265 0.930 . S
C273 C271 1.419 . S
C273 C274 1.362 . S
C274 H266 0.930 . S
C274 C273 1.362 . S
C274 C277 1.409 . S
C275 H267 0.930 . S
C275 C276 1.355 . S
C275 C277 1.415 . S
C276 C275 1.355 . S
C276 C278 1.419 . S
C277 C272 1.425 . S
C277 C274 1.409 . S
C277 C275 1.415 . S
C278 H268 0.930 . S
C278 C276 1.419 . S
C278 C279 1.362 . S
C279 H269 0.930 . S
C279 C272 1.409 . S
C279 C278 1.362 . S
H280 C286 0.930 . S
H281 C289 0.930 . S
H282 C290 0.930 . S
H283 C291 0.930 . S
H284 C294 0.930 . S
H285 C295 0.930 . S
C286 H280 0.930 . S
C286 C287 1.355 . S
C286 C288 1.415 . S
C287 C286 1.355 . S
C287 C289 1.419 . S
C288 C286 1.415 . S
C288 C293 1.425 . S
C288 C295 1.409 . S
C289 H281 0.930 . S
C289 C287 1.419 . S
C289 C290 1.362 . S
C290 H282 0.930 . S
C290 C289 1.362 . S
C290 C293 1.409 . S
C291 H283 0.930 . S
C291 C292 1.355 . S
C291 C293 1.415 . S
C292 C291 1.355 . S
C292 C294 1.419 . S
C293 C288 1.425 . S
C293 C290 1.409 . S
C293 C291 1.415 . S
C294 H284 0.930 . S
C294 C292 1.419 . S
C294 C295 1.362 . S
C295 H285 0.930 . S
C295 C288 1.409 . S
C295 C294 1.362 . S
H296 C302 0.930 . S
H297 C305 0.930 . S
H298 C306 0.930 . S
H299 C307 0.930 . S
H300 C310 0.930 . S
H301 C311 0.930 . S
C302 H296 0.930 . S
C302 C303 1.355 . S
C302 C304 1.415 . S
C303 C302 1.355 . S
C303 C305 1.419 . S
C304 C302 1.415 . S
C304 C309 1.425 . S
C304 C311 1.409 . S
C305 H297 0.930 . S
C305 C303 1.419 . S
C305 C306 1.362 . S
C306 H298 0.930 . S
C306 C305 1.362 . S
C306 C309 1.409 . S
C307 H299 0.930 . S
C307 C308 1.355 1_554 S
C307 C309 1.415 . S
C308 C307 1.355 1_556 S
C308 C310 1.419 . S
C309 C304 1.425 . S
C309 C306 1.409 . S
C309 C307 1.415 . S
C310 H300 0.930 . S
C310 C308 1.419 . S
C310 C311 1.362 1_556 S
C311 H301 0.930 . S
C311 C304 1.409 . S
C311 C310 1.362 1_554 S
H312 C318 0.930 . S
H313 C321 0.930 . S
H314 C322 0.930 . S
H315 C323 0.930 . S
H316 C326 0.930 . S
H317 C327 0.930 . S
C318 H312 0.930 . S
C318 C319 1.355 . S
C318 C320 1.415 . S
C319 C318 1.355 . S
C319 C321 1.419 . S
C320 C318 1.415 . S
C320 C325 1.425 . S
C320 C327 1.409 1_554 S
C321 H313 0.930 . S
C321 C319 1.419 . S
C321 C322 1.362 . S
C322 H314 0.930 . S
C322 C321 1.362 . S
C322 C325 1.409 . S
C323 H315 0.930 . S
C323 C324 1.355 . S
C323 C325 1.415 1_556 S
C324 C323 1.355 . S
C324 C326 1.419 . S
C325 C320 1.425 . S
C325 C322 1.409 . S
C325 C323 1.415 1_554 S
C326 H316 0.930 . S
C326 C324 1.419 . S
C326 C327 1.362 . S
C327 H317 0.930 . S
C327 C320 1.409 1_556 S
C327 C326 1.362 . S
H328 C334 0.930 . S
H329 C337 0.930 . S
H330 C338 0.930 . S
H331 C339 0.930 . S
H332 C342 0.930 . S
H333 C343 0.930 . S
C334 H328 0.930 . S
C334 C335 1.355 . S
C334 C336 1.415 . S
C335 C334 1.355 . S
C335 C337 1.419 . S
C336 C334 1.415 . S
C336 C341 1.425 . S
C336 C343 1.409 1_554 S
C337 H329 0.930 . S
C337 C335 1.419 . S
C337 C338 1.362 . S
C338 H330 0.930 . S
C338 C337 1.362 . S
C338 C341 1.409 . S
C339 H331 0.930 . S
C339 C340 1.355 . S
C339 C341 1.415 1_556 S
C340 C339 1.355 . S
C340 C342 1.419 . S
C341 C336 1.425 . S
C341 C338 1.409 . S
C341 C339 1.415 1_554 S
C342 H332 0.930 . S
C342 C340 1.419 . S
C342 C343 1.362 . S
C343 H333 0.930 . S
C343 C336 1.409 1_556 S
C343 C342 1.362 . S
H344 C350 0.930 . S
H345 C353 0.930 . S
H346 C354 0.930 1_455 S
H347 C355 0.930 1_455 S
H348 C358 0.930 . S
H349 C359 0.930 . S
C350 H344 0.930 . S
C350 C351 1.355 . S
C350 C352 1.415 . S
C351 C350 1.355 . S
C351 C353 1.419 . S
C352 C350 1.415 . S
C352 C357 1.425 . S
C352 C359 1.409 1_554 S
C353 H345 0.930 . S
C353 C351 1.419 . S
C353 C354 1.362 . S
C354 H346 0.930 1_655 S
C354 C353 1.362 . S
C354 C357 1.409 . S
C355 H347 0.930 1_655 S
C355 C356 1.355 1_554 S
C355 C357 1.415 . S
C356 C355 1.355 1_556 S
C356 C358 1.419 . S
C357 C352 1.425 . S
C357 C354 1.409 . S
C357 C355 1.415 . S
C358 H348 0.930 . S
C358 C356 1.419 . S
C358 C359 1.362 . S
C359 H349 0.930 . S
C359 C352 1.409 1_556 S
C359 C358 1.362 . S
H360 C366 0.930 . S
H361 C369 0.930 . S
H362 C370 0.930 . S
H363 C371 0.930 . S
H364 C374 0.930 . S
H365 C375 0.930 . S
C366 H360 0.930 . S
C366 C367 1.355 . S
C366 C368 1.415 . S
C367 C366 1.355 . S
C367 C369 1.419 . S
C368 C366 1.415 . S
C368 C373 1.425 . S
C368 C375 1.409 1_455 S
C369 H361 0.930 . S
C369 C367 1.419 . S
C369 C370 1.362 . S
C370 H362 0.930 . S
C370 C369 1.362 . S
C370 C373 1.409 . S
C371 H363 0.930 . S
C371 C372 1.355 1_455 S
C371 C373 1.415 . S
C372 C371 1.355 1_655 S
C372 C374 1.419 . S
C373 C368 1.425 . S
C373 C370 1.409 . S
C373 C371 1.415 . S
C374 H364 0.930 . S
C374 C372 1.419 . S
C374 C375 1.362 . S
C375 H365 0.930 . S
C375 C368 1.409 1_655 S
C375 C374 1.362 . S
H376 C382 0.930 . S
H377 C385 0.930 1_565 S
H378 C386 0.930 . S
H379 C387 0.930 . S
H380 C390 0.930 . S
H381 C391 0.930 . S
C382 H376 0.930 . S
C382 C383 1.355 . S
C382 C384 1.415 . S
C383 C382 1.355 . S
C383 C385 1.419 . S
C384 C382 1.415 . S
C384 C389 1.425 1_545 S
C384 C391 1.409 . S
C385 H377 0.930 1_545 S
C385 C383 1.419 . S
C385 C386 1.362 1_545 S
C386 H378 0.930 . S
C386 C385 1.362 1_565 S
C386 C389 1.409 . S
C387 H379 0.930 . S
C387 C388 1.355 . S
C387 C389 1.415 . S
C388 C387 1.355 . S
C388 C390 1.419 1_565 S
C389 C384 1.425 1_565 S
C389 C386 1.409 . S
C389 C387 1.415 . S
C390 H380 0.930 . S
C390 C388 1.419 1_545 S
C390 C391 1.362 . S
C391 H381 0.930 . S
C391 C384 1.409 . S
C391 C390 1.362 . S
H392 C398 0.930 . S
H393 C401 0.930 . S
H394 C402 0.930 . S
H395 C403 0.930 . S
H396 C406 0.930 . S
H397 C407 0.930 . S
C398 H392 0.930 . S
C398 C399 1.355 . S
C398 C400 1.415 . S
C399 C398 1.355 . S
C399 C401 1.419 . S
C400 C398 1.415 . S
C400 C405 1.425 . S
C400 C407 1.409 . S
C401 H393 0.930 . S
C401 C399 1.419 . S
C401 C402 1.362 . S
C402 H394 0.930 . S
C402 C401 1.362 . S
C402 C405 1.409 . S
C403 H395 0.930 . S
C403 C404 1.355 . S
C403 C405 1.415 . S
C404 C403 1.355 . S
C404 C406 1.419 . S
C405 C400 1.425 . S
C405 C402 1.409 . S
C405 C403 1.415 . S
C406 H396 0.930 . S
C406 C404 1.419 . S
C406 C407 1.362 . S
C407 H397 0.930 . S
C407 C400 1.409 . S
C407 C406 1.362 . S
H408 C414 0.930 . S
H409 C417 0.930 . S
H410 C418 0.930 . S
H411 C419 0.930 . S
H412 C422 0.930 . S
H413 C423 0.930 . S
C414 H408 0.930 . S
C414 C415 1.355 . S
C414 C416 1.415 . S
C415 C414 1.355 . S
C415 C417 1.419 . S
C416 C414 1.415 . S
C416 C421 1.425 . S
C416 C423 1.409 . S
C417 H409 0.930 . S
C417 C415 1.419 . S
C417 C418 1.362 . S
C418 H410 0.930 . S
C418 C417 1.362 . S
C418 C421 1.409 . S
C419 H411 0.930 . S
C419 C420 1.355 . S
C419 C421 1.415 . S
C420 C419 1.355 . S
C420 C422 1.419 . S
C421 C416 1.425 . S
C421 C418 1.409 . S
C421 C419 1.415 . S
C422 H412 0.930 . S
C422 C420 1.419 . S
C422 C423 1.362 . S
C423 H413 0.930 . S
C423 C416 1.409 . S
C423 C422 1.362 . S
H424 C430 0.930 1_455 S
H425 C433 0.930 . S
H426 C434 0.930 . S
H427 C435 0.950 . S
H428 C438 0.930 . S
H429 C439 0.930 . S
C430 H424 0.930 1_655 S
C430 C431 1.355 . S
C430 C432 1.415 1_655 S
C431 C430 1.355 . S
C431 C433 1.419 . S
C432 C430 1.415 1_455 S
C432 C437 1.425 1_455 S
C432 C439 1.409 . S
C433 H425 0.930 . S
C433 C431 1.419 . S
C433 C434 1.362 . S
C434 H426 0.930 . S
C434 C433 1.362 . S
C434 C437 1.409 . S
C435 H427 0.950 . S
C435 C436 1.321 1_655 S
C435 C437 1.429 . S
C436 C435 1.321 1_455 S
C436 C438 1.419 . S
C437 C432 1.425 1_655 S
C437 C434 1.409 . S
C437 C435 1.429 . S
C438 H428 0.930 . S
C438 C436 1.419 . S
C438 C439 1.362 . S
C439 H429 0.930 . S
C439 C432 1.409 . S
C439 C438 1.362 . S
H440 C446 0.930 1_545 S
H441 C449 0.930 . S
H442 C450 0.930 . S
H443 C451 0.930 1_556 S
H444 C454 0.930 . S
H445 C455 0.930 . S
C446 H440 0.930 1_565 S
C446 C447 1.355 . S
C446 C448 1.415 1_565 S
C447 C446 1.355 . S
C447 C449 1.419 . S
C448 C446 1.415 1_545 S
C448 C453 1.425 . S
C448 C455 1.409 . S
C449 H441 0.930 . S
C449 C447 1.419 . S
C449 C450 1.362 . S
C450 H442 0.930 . S
C450 C449 1.362 . S
C450 C453 1.409 1_565 S
C451 H443 0.930 1_554 S
C451 C452 1.355 . S
C451 C453 1.415 . S
C452 C451 1.355 . S
C452 C454 1.419 . S
C453 C448 1.425 . S
C453 C450 1.409 1_545 S
C453 C451 1.415 . S
C454 H444 0.930 . S
C454 C452 1.419 . S
C454 C455 1.362 . S
C455 H445 0.930 . S
C455 C448 1.409 . S
C455 C454 1.362 . S
H456 C462 0.930 . S
H457 C465 0.930 . S
H458 C466 0.930 . S
H459 C467 0.930 . S
H460 C470 0.930 . S
H461 C471 0.930 . S
C462 H456 0.930 . S
C462 C463 1.355 . S
C462 C464 1.415 . S
C463 C462 1.355 . S
C463 C465 1.419 . S
C464 C462 1.415 . S
C464 C469 1.425 . S
C464 C471 1.409 . S
C465 H457 0.930 . S
C465 C463 1.419 . S
C465 C466 1.362 . S
C466 H458 0.930 . S
C466 C465 1.362 . S
C466 C469 1.409 . S
C467 H459 0.930 . S
C467 C468 1.355 1_554 S
C467 C469 1.415 . S
C468 C467 1.355 1_556 S
C468 C470 1.419 . S
C469 C464 1.425 . S
C469 C466 1.409 . S
C469 C467 1.415 . S
C470 H460 0.930 . S
C470 C468 1.419 . S
C470 C471 1.362 1_556 S
C471 H461 0.930 . S
C471 C464 1.409 . S
C471 C470 1.362 1_554 S
H472 C478 0.930 . S
H473 C481 0.930 . S
H474 C482 0.930 . S
H475 C483 0.930 . S
H476 C486 0.930 . S
H477 C487 0.930 . S
C478 H472 0.930 . S
C478 C479 1.355 . S
C478 C480 1.415 . S
C479 C478 1.355 . S
C479 C481 1.419 . S
C480 C478 1.415 . S
C480 C485 1.425 . S
C480 C487 1.409 . S
C481 H473 0.930 . S
C481 C479 1.419 . S
C481 C482 1.362 . S
C482 H474 0.930 . S
C482 C481 1.362 . S
C482 C485 1.409 . S
C483 H475 0.930 . S
C483 C484 1.355 . S
C483 C485 1.415 . S
C484 C483 1.355 . S
C484 C486 1.419 . S
C485 C480 1.425 . S
C485 C482 1.409 . S
C485 C483 1.415 . S
C486 H476 0.930 . S
C486 C484 1.419 . S
C486 C487 1.362 . S
C487 H477 0.930 . S
C487 C480 1.409 . S
C487 C486 1.362 . S
H488 C494 0.930 . S
H489 C497 0.930 1_655 S
H490 C498 0.952 . S
H491 C499 0.930 1_655 S
H492 C502 0.930 . S
H493 C503 0.930 . S
C494 H488 0.930 . S
C494 C495 1.355 . S
C494 C496 1.415 . S
C495 C494 1.355 . S
C495 C497 1.419 . S
C496 C494 1.415 . S
C496 C501 1.425 . S
C496 C503 1.409 . S
C497 H489 0.930 1_455 S
C497 C495 1.419 . S
C497 C498 1.357 1_455 S
C498 H490 0.952 . S
C498 C497 1.357 1_655 S
C498 C501 1.393 1_655 S
C499 H491 0.930 1_455 S
C499 C500 1.355 . S
C499 C501 1.415 . S
C500 C499 1.355 . S
C500 C502 1.419 . S
C501 C496 1.425 . S
C501 C498 1.393 1_455 S
C501 C499 1.415 . S
C502 H492 0.930 . S
C502 C500 1.419 . S
C502 C503 1.362 . S
C503 H493 0.930 . S
C503 C496 1.409 . S
C503 C502 1.362 . S
H504 C510 0.930 1_565 S
H505 C513 0.930 . S
H506 C514 0.930 . S
H507 C515 0.930 . S
H508 C518 0.930 . S
H509 C519 0.930 . S
C510 H504 0.930 1_545 S
C510 C511 1.355 . S
C510 C512 1.415 . S
C511 C510 1.355 . S
C511 C513 1.419 . S
C512 C510 1.415 . S
C512 C517 1.425 . S
C512 C519 1.409 1_545 S
C513 H505 0.930 . S
C513 C511 1.419 . S
C513 C514 1.362 . S
C514 H506 0.930 . S
C514 C513 1.362 . S
C514 C517 1.409 . S
C515 H507 0.930 . S
C515 C516 1.355 . S
C515 C517 1.415 . S
C516 C515 1.355 . S
C516 C518 1.419 1_545 S
C517 C512 1.425 . S
C517 C514 1.409 . S
C517 C515 1.415 . S
C518 H508 0.930 . S
C518 C516 1.419 1_565 S
C518 C519 1.362 . S
C519 H509 0.930 . S
C519 C512 1.409 1_565 S
C519 C518 1.362 . S
H520 C526 0.930 . S
H521 C529 0.930 . S
H522 C530 0.930 . S
H523 C531 0.930 . S
H524 C534 0.930 . S
H525 C535 0.930 . S
C526 H520 0.930 . S
C526 C527 1.355 . S
C526 C528 1.415 . S
C527 C526 1.355 . S
C527 C529 1.419 . S
C528 C526 1.415 . S
C528 C533 1.425 . S
C528 C535 1.409 . S
C529 H521 0.930 . S
C529 C527 1.419 . S
C529 C530 1.362 . S
C530 H522 0.930 . S
C530 C529 1.362 . S
C530 C533 1.409 . S
C531 H523 0.930 . S
C531 C532 1.355 . S
C531 C533 1.415 . S
C532 C531 1.355 . S
C532 C534 1.419 . S
C533 C528 1.425 . S
C533 C530 1.409 . S
C533 C531 1.415 . S
C534 H524 0.930 . S
C534 C532 1.419 . S
C534 C535 1.362 . S
C535 H525 0.930 . S
C535 C528 1.409 . S
C535 C534 1.362 . S
H536 C542 0.930 1_554 S
H537 C545 0.930 . S
H538 C546 0.930 . S
H539 C547 0.930 . S
H540 C550 0.930 . S
H541 C551 0.930 1_554 S
C542 H536 0.930 1_556 S
C542 C543 1.355 . S
C542 C544 1.415 . S
C543 C542 1.355 . S
C543 C545 1.419 . S
C544 C542 1.415 . S
C544 C549 1.425 . S
C544 C551 1.409 . S
C545 H537 0.930 . S
C545 C543 1.419 . S
C545 C546 1.362 . S
C546 H538 0.930 . S
C546 C545 1.362 . S
C546 C549 1.409 . S
C547 H539 0.930 . S
C547 C548 1.355 . S
C547 C549 1.415 . S
C548 C547 1.355 . S
C548 C550 1.419 . S
C549 C544 1.425 . S
C549 C546 1.409 . S
C549 C547 1.415 . S
C550 H540 0.930 . S
C550 C548 1.419 . S
C550 C551 1.362 . S
C551 H541 0.930 1_556 S
C551 C544 1.409 . S
C551 C550 1.362 . S
H552 C558 0.930 . S
H553 C561 0.930 . S
H554 C562 0.930 . S
H555 C563 0.930 . S
H556 C566 0.930 . S
H557 C567 0.930 . S
C558 H552 0.930 . S
C558 C559 1.355 . S
C558 C560 1.415 . S
C559 C558 1.355 . S
C559 C561 1.419 . S
C560 C558 1.415 . S
C560 C565 1.425 . S
C560 C567 1.409 . S
C561 H553 0.930 . S
C561 C559 1.419 . S
C561 C562 1.362 . S
C562 H554 0.930 . S
C562 C561 1.362 . S
C562 C565 1.409 . S
C563 H555 0.930 . S
C563 C564 1.355 . S
C563 C565 1.415 . S
C564 C563 1.355 . S
C564 C566 1.419 . S
C565 C560 1.425 . S
C565 C562 1.409 . S
C565 C563 1.415 . S
C566 H556 0.930 . S
C566 C564 1.419 . S
C566 C567 1.362 . S
C567 H557 0.930 . S
C567 C560 1.409 . S
C567 C566 1.362 . S
H568 C574 0.930 . S
H569 C577 0.930 . S
H570 C578 0.930 . S
H571 C579 0.930 . S
H572 C582 0.930 . S
H573 C583 0.930 . S
C574 H568 0.930 . S
C574 C575 1.355 . S
C574 C576 1.415 . S
C575 C574 1.355 . S
C575 C577 1.419 . S
C576 C574 1.415 . S
C576 C581 1.425 . S
C576 C583 1.409 . S
C577 H569 0.930 . S
C577 C575 1.419 . S
C577 C578 1.362 . S
C578 H570 0.930 . S
C578 C577 1.362 . S
C578 C581 1.409 . S
C579 H571 0.930 . S
C579 C580 1.355 . S
C579 C581 1.415 . S
C580 C579 1.355 . S
C580 C582 1.419 . S
C581 C576 1.425 . S
C581 C578 1.409 . S
C581 C579 1.415 . S
C582 H572 0.930 . S
C582 C580 1.419 . S
C582 C583 1.362 . S
C583 H573 0.930 . S
C583 C576 1.409 . S
C583 C582 1.362 . S
H584 C590 0.930 . S
H585 C593 0.930 . S
H586 C594 0.930 . S
H587 C595 0.930 . S
H588 C598 0.930 . S
H589 C599 0.930 . S
C590 H584 0.930 . S
C590 C591 1.355 . S
C590 C592 1.415 . S
C591 C590 1.355 . S
C591 C593 1.419 . S
C592 C590 1.415 . S
C592 C597 1.425 . S
C592 C599 1.409 . S
C593 H585 0.930 . S
C593 C591 1.419 . S
C593 C594 1.362 . S
C594 H586 0.930 . S
C594 C593 1.362 . S
C594 C597 1.409 . S
C595 H587 0.930 . S
C595 C596 1.355 . S
C595 C597 1.415 . S
C596 C595 1.355 . S
C596 C598 1.419 . S
C597 C592 1.425 . S
C597 C594 1.409 . S
C597 C595 1.415 . S
C598 H588 0.930 . S
C598 C596 1.419 . S
C598 C599 1.362 . S
C599 H589 0.930 . S
C599 C592 1.409 . S
C599 C598 1.362 . S
H600 C606 0.930 . S
H601 C609 0.930 . S
H602 C610 0.930 . S
H603 C611 0.930 . S
H604 C614 0.930 . S
H605 C615 0.930 . S
C606 H600 0.930 . S
C606 C607 1.355 . S
C606 C608 1.415 . S
C607 C606 1.355 . S
C607 C609 1.419 . S
C608 C606 1.415 . S
C608 C613 1.425 . S
C608 C615 1.409 . S
C609 H601 0.930 . S
C609 C607 1.419 . S
C609 C610 1.362 . S
C610 H602 0.930 . S
C610 C609 1.362 . S
C610 C613 1.409 . S
C611 H603 0.930 . S
C611 C612 1.355 . S
C611 C613 1.415 . S
C612 C611 1.355 . S
C612 C614 1.419 . S
C613 C608 1.425 . S
C613 C610 1.409 . S
C613 C611 1.415 . S
C614 H604 0.930 . S
C614 C612 1.419 . S
C614 C615 1.362 . S
C615 H605 0.930 . S
C615 C608 1.409 . S
C615 C614 1.362 . S
C239 C61 2.217 . S
C244 C103 2.393 . S
C260 C129 2.048 . S
C255 C70 1.870 . S
C276 C169 2.058 . S
C271 C43 1.835 . S
C292 C223 2.404 . S
C287 C52 2.249 . S
C308 C84 2.392 . S
C303 C25 2.217 . S
C319 C34 1.875 . S
C324 C114 2.036 . S
C335 C7 1.916 . S
C340 C154 2.055 . S
C351 C16 2.252 . S
C356 C204 2.405 . S
C372 C80 0.690 . S
C367 C50 0.710 . S
C388 C141 0.713 . S
C383 C59 0.709 . S
C404 C181 0.588 . S
C399 C67 0.586 . S
C415 C41 0.448 . S
C420 C200 0.418 . S
C431 C14 0.669 . S
C436 C101 0.651 . S
C452 C120 0.802 . S
C447 C23 0.828 . S
C468 C160 0.719 . S
C463 C31 0.650 . S
C479 C5 0.533 . S
C484 C221 0.549 . S
C495 C49 1.918 . S
C500 C74 2.187 . S
C511 C58 2.384 . S
C516 C124 2.627 . S
C532 C164 2.474 . S
C527 C68 2.260 . S
C548 C194 2.013 . S
C543 C40 1.810 . S
C559 C13 1.952 . S
C564 C89 2.188 . S
C580 C143 2.642 . S
C575 C22 2.427 . S
C596 C183 2.488 . S
C591 C32 2.224 . S
C607 C4 1.751 . S
C612 C209 2.016 . S
