# Generated by pormake.
# Topology llj, (12,3)-cn, num edge types: 1
# Building blocks:
#     Node 0, Type 0, BuildingBlock: QEWDON_clean_sbu_0, # of connection points: 12
#     Node 1, Type 0, BuildingBlock: QEWDON_clean_sbu_0, # of connection points: 12
#     Node 2, Type 1, BuildingBlock: KAKCAD_clean_linker_0, # of connection points: 3
#     Node 3, Type 1, BuildingBlock: KAKCAD_clean_linker_0, # of connection points: 3
#     Node 4, Type 1, BuildingBlock: KAKCAD_clean_linker_0, # of connection points: 3
#     Node 5, Type 1, BuildingBlock: KAKCAD_clean_linker_0, # of connection points: 3
#     Node 6, Type 1, BuildingBlock: KAKCAD_clean_linker_0, # of connection points: 3
#     Node 7, Type 1, BuildingBlock: KAKCAD_clean_linker_0, # of connection points: 3
#     Node 8, Type 1, BuildingBlock: KAKCAD_clean_linker_0, # of connection points: 3
#     Node 9, Type 1, BuildingBlock: KAKCAD_clean_linker_0, # of connection points: 3
#     Edge 10, Type (0, 1), BuildingBlock: AJUNOK_clean_linker_0, # of connection points: 2
#     Edge 11, Type (0, 1), BuildingBlock: AJUNOK_clean_linker_0, # of connection points: 2
#     Edge 12, Type (0, 1), BuildingBlock: AJUNOK_clean_linker_0, # of connection points: 2
#     Edge 13, Type (0, 1), BuildingBlock: AJUNOK_clean_linker_0, # of connection points: 2
#     Edge 14, Type (0, 1), BuildingBlock: AJUNOK_clean_linker_0, # of connection points: 2
#     Edge 15, Type (0, 1), BuildingBlock: AJUNOK_clean_linker_0, # of connection points: 2
#     Edge 16, Type (0, 1), BuildingBlock: AJUNOK_clean_linker_0, # of connection points: 2
#     Edge 17, Type (0, 1), BuildingBlock: AJUNOK_clean_linker_0, # of connection points: 2
#     Edge 18, Type (0, 1), BuildingBlock: AJUNOK_clean_linker_0, # of connection points: 2
#     Edge 19, Type (0, 1), BuildingBlock: AJUNOK_clean_linker_0, # of connection points: 2
#     Edge 20, Type (0, 1), BuildingBlock: AJUNOK_clean_linker_0, # of connection points: 2
#     Edge 21, Type (0, 1), BuildingBlock: AJUNOK_clean_linker_0, # of connection points: 2
#     Edge 22, Type (0, 1), BuildingBlock: AJUNOK_clean_linker_0, # of connection points: 2
#     Edge 23, Type (0, 1), BuildingBlock: AJUNOK_clean_linker_0, # of connection points: 2
#     Edge 24, Type (0, 1), BuildingBlock: AJUNOK_clean_linker_0, # of connection points: 2
#     Edge 25, Type (0, 1), BuildingBlock: AJUNOK_clean_linker_0, # of connection points: 2
#     Edge 26, Type (0, 1), BuildingBlock: AJUNOK_clean_linker_0, # of connection points: 2
#     Edge 27, Type (0, 1), BuildingBlock: AJUNOK_clean_linker_0, # of connection points: 2
#     Edge 28, Type (0, 1), BuildingBlock: AJUNOK_clean_linker_0, # of connection points: 2
#     Edge 29, Type (0, 1), BuildingBlock: AJUNOK_clean_linker_0, # of connection points: 2
#     Edge 30, Type (0, 1), BuildingBlock: AJUNOK_clean_linker_0, # of connection points: 2
#     Edge 31, Type (0, 1), BuildingBlock: AJUNOK_clean_linker_0, # of connection points: 2
#     Edge 32, Type (0, 1), BuildingBlock: AJUNOK_clean_linker_0, # of connection points: 2
#     Edge 33, Type (0, 1), BuildingBlock: AJUNOK_clean_linker_0, # of connection points: 2
# Relax obj value: 0.011
# Max RMSD: 0.055
# Mean RMSD: 0.051
data_MOF--net-llj--node1-QEWDON_clean_sbu_0--node2-KAKCAD_clean_linker_0--edge1-AJUNOK_clean_linker_0
_symmetry_space_group_name_H-M    P1
_symmetry_Int_Tables_number       1
_symmetry_cell_setting            triclinic
loop_
_symmetry_equiv_pos_as_xyz
'x, y, z'
_cell_length_a     36.551155
_cell_length_b     36.556686
_cell_length_c     25.365926
_cell_angle_alpha  89.831802
_cell_angle_beta   90.112406
_cell_angle_gamma 90.01337
loop_
_atom_site_label
_atom_site_type_symbol
_atom_site_fract_x
_atom_site_fract_y
_atom_site_fract_z
_atom_type_partial_charge
Zn0 Zn 0.93821 0.09114 0.95845 0.0
Zn1 Zn 0.94165 0.07887 0.08231 0.0
O2 O 0.97166 0.07596 0.01741 0.0
H3 H 0.99018 0.0576 0.012 0.0
C4 C 0.90774 0.95055 0.85273 0.0
O5 O 0.87982 0.93165 0.87072 0.0
Zn6 Zn 0.0505 0.93746 0.07289 0.0
Zn7 Zn 0.05598 0.93208 0.95093 0.0
O8 O 0.01924 0.94165 0.00882 0.0
H9 H 0.99886 0.95821 0.00439 0.0
Zn10 Zn 0.93307 0.93763 0.95963 0.0
O11 O 0.91919 0.97973 0.00792 0.0
Zn12 Zn 0.91779 0.94991 0.07305 0.0
H13 H 0.90282 0.99948 -0.00139 0.0
Zn14 Zn 0.06699 0.06766 0.93585 0.0
O15 O 0.0564 0.03723 0.00093 0.0
H16 H 0.04105 0.01572 0.00078 0.0
Zn17 Zn 0.06982 0.06781 0.06315 0.0
C18 C 0.08965 0.00779 0.87114 0.0
O19 O 0.09876 0.996 0.91834 0.0
O20 O 0.89294 0.1189 0.98392 0.0
O21 O 0.89659 0.11175 0.07091 0.0
O22 O 0.09918 0.89974 0.97481 0.0
O23 O 0.08964 0.89844 0.06152 0.0
O24 O 0.90573 0.88943 0.97768 0.0
O25 O 0.8879 0.90427 0.05872 0.0
C26 C 0.00824 0.09636 0.13972 0.0
O27 O 0.10076 0.11153 0.95015 0.0
O28 O 0.10088 0.11119 0.03792 0.0
O29 O 0.03176 0.92057 0.87941 0.0
C30 C 0.8806 0.12486 0.03007 0.0
O31 O 0.96405 0.10773 0.89026 0.0
C32 C 0.98468 0.92767 0.13354 0.0
O33 O 0.93534 0.95504 0.88242 0.0
C34 C 0.10706 0.88794 0.0207 0.0
O35 O 0.07479 0.03905 0.8668 0.0
C36 C 0.90532 0.01423 0.13126 0.0
O37 O 0.97347 0.09805 0.14215 0.0
O38 O 0.02219 0.08378 0.09741 0.0
C39 C 0.88769 0.88246 0.01951 0.0
O40 O 0.01931 0.92491 0.13629 0.0
O41 O 0.9702 0.93777 0.09036 0.0
C42 C 0.09079 0.00233 0.11819 0.0
O43 O 0.89657 0.98058 0.13117 0.0
O44 O 0.92595 0.02656 0.09518 0.0
C45 C 0.11089 0.12509 0.99401 0.0
O46 O 0.09649 0.03659 0.11676 0.0
O47 O 0.07192 0.98784 0.08179 0.0
C48 C 0.00458 0.89895 0.88107 0.0
O49 O 0.99495 0.885 0.92679 0.0
C50 C 0.99269 0.12709 0.8955 0.0
O51 O 0.00341 0.13601 0.94322 0.0
Zn52 Zn 0.44554 0.58347 0.46801 0.0
Zn53 Zn 0.44663 0.5895 0.58589 0.0
O54 O 0.48182 0.59385 0.52699 0.0
H55 H 0.50232 0.61051 0.52528 0.0
C56 C 0.41628 0.49992 0.38317 0.0
O57 O 0.40757 0.51323 0.42954 0.0
Zn58 Zn 0.57375 0.42942 0.56934 0.0
Zn59 Zn 0.57071 0.41128 0.4458 0.0
O60 O 0.54301 0.43518 0.50472 0.0
H61 H 0.5209 0.44933 0.5005 0.0
Zn62 Zn 0.44415 0.44556 0.45331 0.0
O63 O 0.45237 0.48192 0.51249 0.0
Zn64 Zn 0.44532 0.45205 0.57715 0.0
H65 H 0.46607 0.50441 0.5093 0.0
Zn66 Zn 0.55562 0.56134 0.46768 0.0
O67 O 0.54914 0.52905 0.53165 0.0
H68 H 0.5311 0.50984 0.53407 0.0
Zn69 Zn 0.56505 0.55964 0.59178 0.0
C70 C 0.58283 0.50521 0.4017 0.0
O71 O 0.59835 0.49773 0.44722 0.0
O72 O 0.39677 0.61156 0.47951 0.0
O73 O 0.40216 0.61964 0.56639 0.0
O74 O 0.61341 0.37908 0.47078 0.0
O75 O 0.61963 0.39926 0.55333 0.0
O76 O 0.41086 0.40259 0.47548 0.0
O77 O 0.40889 0.41093 0.56248 0.0
C78 C 0.50453 0.59756 0.65559 0.0
O79 O 0.59194 0.60343 0.48064 0.0
O80 O 0.60112 0.59908 0.56715 0.0
O81 O 0.54313 0.40076 0.3763 0.0
C82 C 0.38533 0.62501 0.52286 0.0
O83 O 0.47096 0.5814 0.39486 0.0
C84 C 0.50995 0.40951 0.62693 0.0
O85 O 0.43311 0.46957 0.38115 0.0
C86 C 0.63048 0.37983 0.51459 0.0
O87 O 0.56172 0.5327 0.39855 0.0
C88 C 0.42463 0.51917 0.63323 0.0
O89 O 0.47093 0.60638 0.65368 0.0
O90 O 0.51783 0.58182 0.61549 0.0
C91 C 0.39889 0.39393 0.52093 0.0
O92 O 0.54401 0.40291 0.62417 0.0
O93 O 0.49614 0.43246 0.59468 0.0
C94 C 0.58857 0.49288 0.64168 0.0
O95 O 0.42492 0.48445 0.63455 0.0
O96 O 0.43605 0.53567 0.59235 0.0
C97 C 0.60807 0.61391 0.52253 0.0
O98 O 0.58506 0.52703 0.64966 0.0
O99 O 0.58345 0.48064 0.59539 0.0
C100 C 0.50944 0.39261 0.3797 0.0
O101 O 0.49445 0.39056 0.42663 0.0
C102 C 0.49619 0.60509 0.39015 0.0
O103 O 0.50062 0.62918 0.42793 0.0
C104 C 0.39126 0.35071 0.8063 0.0
C105 C 0.42937 0.34706 0.80179 0.0
C106 C 0.37365 0.34162 0.85333 0.0
C107 C 0.39386 0.32888 0.89685 0.0
C108 C 0.43186 0.3242 0.89174 0.0
C109 C 0.44946 0.33327 0.84469 0.0
C110 C 0.37558 0.32228 0.94814 0.0
C111 C 0.34163 0.30442 0.95036 0.0
C112 C 0.32357 0.29912 -0.00126 0.0
C113 C 0.34016 0.312 0.04526 0.0
C114 C 0.37454 0.32911 0.04372 0.0
C115 C 0.39188 0.33438 0.99504 0.0
C116 C 0.39312 0.34047 0.09297 0.0
C117 C 0.37427 0.36003 0.13201 0.0
C118 C 0.43008 0.33156 0.10117 0.0
C119 C 0.44776 0.34162 0.14769 0.0
C120 C 0.42892 0.36092 0.18698 0.0
C121 C 0.28834 0.27868 0.00058 0.0
C122 C 0.2626 0.28202 0.95943 0.0
C123 C 0.28093 0.2542 0.04218 0.0
C124 C 0.24914 0.23302 0.04192 0.0
C125 C 0.22435 0.23551 -0.00019 0.0
C126 C 0.23112 0.26034 0.95879 0.0
C127 C 0.39209 0.37039 0.17847 0.0
H128 H 0.37521 0.36137 0.77375 0.0
H129 H 0.34438 0.34582 0.85621 0.0
H130 H 0.4481 0.31406 0.92442 0.0
H131 H 0.47895 0.3308 0.84256 0.0
H132 H 0.32984 0.29372 0.91435 0.0
H133 H 0.41789 0.34861 0.99367 0.0
H134 H 0.32669 0.30819 0.08288 0.0
H135 H 0.3459 0.36767 0.1263 0.0
H136 H 0.44517 0.31618 0.07195 0.0
H137 H 0.47606 0.33369 0.15335 0.0
H138 H 0.26694 0.30109 0.9273 0.0
H139 H 0.3003 0.25032 0.07405 0.0
H140 H 0.37713 0.386 0.20754 0.0
H141 H 0.21221 0.26269 0.926 0.0
H142 H 0.24462 0.2136 0.0736 0.0
C143 C 0.61707 0.36853 0.83387 0.0
C144 C 0.61555 0.40686 0.82979 0.0
C145 C 0.62625 0.35182 0.88194 0.0
C146 C 0.63408 0.37322 0.92658 0.0
C147 C 0.63304 0.41157 0.92183 0.0
C148 C 0.62367 0.42814 0.87417 0.0
C149 C 0.64297 0.35625 0.97842 0.0
C150 C 0.66674 0.3261 0.98246 0.0
C151 C 0.67756 0.31259 0.03222 0.0
C152 C 0.66416 0.32956 0.07798 0.0
C153 C 0.64031 0.35958 0.0745 0.0
C154 C 0.62925 0.37204 0.02469 0.0
C155 C 0.62889 0.37969 0.12248 0.0
C156 C 0.61923 0.36093 0.16887 0.0
C157 C 0.62853 0.41819 0.12238 0.0
C158 C 0.61919 0.43749 0.16772 0.0
C159 C 0.61037 0.41873 0.21424 0.0
C160 C 0.70444 0.28216 0.03653 0.0
C161 C 0.70177 0.25142 0.00364 0.0
C162 C 0.7335 0.28405 0.07292 0.0
C163 C 0.75964 0.25619 0.07565 0.0
C164 C 0.75725 0.22572 0.04221 0.0
C165 C 0.72787 0.22351 0.00648 0.0
C166 C 0.61002 0.38031 0.21438 0.0
H167 H 0.61073 0.35156 0.80013 0.0
H168 H 0.62661 0.32224 0.8844 0.0
H169 H 0.6398 0.42895 0.95496 0.0
H170 H 0.6233 0.45774 0.87178 0.0
H171 H 0.67819 0.31428 0.94701 0.0
H172 H 0.61009 0.39459 0.02194 0.0
H173 H 0.67297 0.31989 0.11638 0.0
H174 H 0.61876 0.33132 0.16996 0.0
H175 H 0.63641 0.43352 0.08759 0.0
H176 H 0.61988 0.46712 0.16686 0.0
H177 H 0.6795 0.24897 0.97562 0.0
H178 H 0.73673 0.30765 0.09821 0.0
H179 H 0.60274 0.36533 0.24975 0.0
H180 H 0.72531 0.2003 0.98027 0.0
H181 H 0.78246 0.25917 0.10259 0.0
C182 C 0.61123 0.64902 0.20408 0.0
C183 C 0.59804 0.61361 0.2147 0.0
C184 C 0.63337 0.65567 0.16047 0.0
C185 C 0.64243 0.6272 0.12597 0.0
C186 C 0.6301 0.59158 0.13695 0.0
C187 C 0.60846 0.58474 0.18138 0.0
C188 C 0.6614 0.6359 0.07607 0.0
C189 C 0.69298 0.65769 0.07619 0.0
C190 C 0.70723 0.67211 0.02892 0.0
C191 C 0.68992 0.66276 0.98106 0.0
C192 C 0.65874 0.64014 0.98028 0.0
C193 C 0.64483 0.62679 0.02814 0.0
C194 C 0.63862 0.63293 0.93031 0.0
C195 C 0.63452 0.66064 0.89206 0.0
C196 C 0.62149 0.59892 0.92181 0.0
C197 C 0.5999 0.5932 0.87711 0.0
C198 C 0.59557 0.62113 0.83973 0.0
C199 C 0.73793 0.69927 0.02988 0.0
C200 C 0.74237 0.72308 0.07301 0.0
C201 C 0.76178 0.70327 0.98664 0.0
C202 C 0.7879 0.73126 0.98553 0.0
C203 C 0.79194 0.75517 0.02849 0.0
C204 C 0.7693 0.75013 0.07264 0.0
C205 C 0.61342 0.65465 0.84695 0.0
H206 H 0.60347 0.67195 0.22857 0.0
H207 H 0.64204 0.68347 0.15237 0.0
H208 H 0.63688 0.56919 0.11084 0.0
H209 H 0.59968 0.55697 0.18932 0.0
H210 H 0.70573 0.66398 0.11364 0.0
H211 H 0.61954 0.6113 0.02855 0.0
H212 H 0.69986 0.67399 0.94431 0.0
H213 H 0.64663 0.68738 0.89761 0.0
H214 H 0.62451 0.57678 0.94994 0.0
H215 H 0.5865 0.56703 0.87174 0.0
H216 H 0.72433 0.72188 0.10672 0.0
H217 H 0.76003 0.68523 0.953 0.0
H218 H 0.6102 0.6765 0.81837 0.0
H219 H 0.7718 0.7677 0.10677 0.0
H220 H 0.80405 0.73471 0.95017 0.0
C221 C 0.33824 0.59774 0.19507 0.0
C222 C 0.37346 0.58246 0.19676 0.0
C223 C 0.32653 0.61724 0.15073 0.0
C224 C 0.34991 0.62207 0.10732 0.0
C225 C 0.38558 0.60765 0.10981 0.0
C226 C 0.3972 0.58799 0.15406 0.0
C227 C 0.33629 0.64005 0.05846 0.0
C228 C 0.31356 0.67096 0.06093 0.0
C229 C 0.29767 0.68603 0.01499 0.0
C230 C 0.30653 0.6703 0.96584 0.0
C231 C 0.33024 0.64016 0.96276 0.0
C232 C 0.34465 0.62508 0.00919 0.0
C233 C 0.3402 0.62387 0.91132 0.0
C234 C 0.35306 0.64593 0.86985 0.0
C235 C 0.33941 0.58573 0.90482 0.0
C236 C 0.35264 0.56984 0.85874 0.0
C237 C 0.3672 0.59172 0.81832 0.0
C238 C 0.27107 0.71715 0.01867 0.0
C239 C 0.24942 0.72197 0.06408 0.0
C240 C 0.26645 0.74203 0.97664 0.0
C241 C 0.24022 0.76982 0.97923 0.0
C242 C 0.21853 0.77435 0.0245 0.0
C243 C 0.22424 0.7506 0.06739 0.0
C244 C 0.3665 0.62996 0.82368 0.0
H245 H 0.31944 0.5938 0.22755 0.0
H246 H 0.29875 0.62754 0.14983 0.0
H247 H 0.40448 0.61143 0.07741 0.0
H248 H 0.42477 0.57714 0.15494 0.0
H249 H 0.30856 0.68327 0.09897 0.0
H250 H 0.36222 0.60126 0.00686 0.0
H251 H 0.29421 0.68049 0.92985 0.0
H252 H 0.3541 0.6754 0.87399 0.0
H253 H 0.32903 0.56813 0.93581 0.0
H254 H 0.35188 0.54034 0.85496 0.0
H255 H 0.25128 0.70338 0.09722 0.0
H256 H 0.283 0.74025 0.94145 0.0
H257 H 0.3775 0.6474 0.79296 0.0
H258 H 0.20925 0.75395 0.10379 0.0
H259 H 0.2367 0.78751 0.94528 0.0
C260 C 0.86527 0.88174 0.32265 0.0
C261 C 0.9036 0.88139 0.31791 0.0
C262 C 0.84845 0.86788 0.36817 0.0
C263 C 0.86976 0.85341 0.40945 0.0
C264 C 0.90795 0.85179 0.40345 0.0
C265 C 0.92464 0.86559 0.35827 0.0
C266 C 0.85298 0.84152 0.45994 0.0
C267 C 0.82193 0.8188 0.46124 0.0
C268 C 0.80827 0.80567 0.50971 0.0
C269 C 0.82553 0.81632 0.55688 0.0
C270 C 0.85653 0.83882 0.55592 0.0
C271 C 0.86967 0.85168 0.50751 0.0
C272 C 0.87695 0.84711 0.60487 0.0
C273 C 0.85889 0.85937 0.65037 0.0
C274 C 0.91513 0.84289 0.60588 0.0
C275 C 0.93501 0.85148 0.65102 0.0
C276 C 0.9172 0.86478 0.696 0.0
C277 C 0.77758 0.779 0.51129 0.0
C278 C 0.7467 0.78338 0.47876 0.0
C279 C 0.77919 0.74865 0.54547 0.0
C280 C 0.75067 0.72329 0.54709 0.0
C281 C 0.71997 0.72751 0.51437 0.0
C282 C 0.71811 0.75792 0.4804 0.0
C283 C 0.87892 0.86821 0.69566 0.0
H284 H 0.84845 0.89348 0.29174 0.0
H285 H 0.81897 0.86946 0.37175 0.0
H286 H 0.92506 0.83996 0.43399 0.0
H287 H 0.95414 0.86386 0.35487 0.0
H288 H 0.80957 0.80995 0.42456 0.0
H289 H 0.89332 0.86959 0.50691 0.0
H290 H 0.81548 0.80625 0.59439 0.0
H291 H 0.82946 0.86285 0.6505 0.0
H292 H 0.92964 0.83271 0.57173 0.0
H293 H 0.96441 0.84766 0.65081 0.0
H294 H 0.74447 0.80668 0.45247 0.0
H295 H 0.80286 0.74408 0.57038 0.0
H296 H 0.86464 0.87837 0.73002 0.0
H297 H 0.69445 0.76213 0.45533 0.0
H298 H 0.75297 0.69991 0.57324 0.0
C299 C 0.12978 0.88232 0.3066 0.0
C300 C 0.13738 0.91989 0.30193 0.0
C301 C 0.13855 0.86348 0.35304 0.0
C302 C 0.1548 0.88205 0.3954 0.0
C303 C 0.16408 0.91909 0.38962 0.0
C304 C 0.15574 0.93775 0.34317 0.0
C305 C 0.15943 0.86394 0.44709 0.0
C306 C 0.17906 0.83114 0.45204 0.0
C307 C 0.18409 0.8145 0.50187 0.0
C308 C 0.1679 0.83111 0.5463 0.0
C309 C 0.14965 0.86474 0.54185 0.0
C310 C 0.14512 0.88065 0.49209 0.0
C311 C 0.13832 0.88511 0.58946 0.0
C312 C 0.11889 0.86784 0.63023 0.0
C313 C 0.14811 0.92209 0.59483 0.0
C314 C 0.13921 0.94131 0.64041 0.0
C315 C 0.12026 0.924 0.68156 0.0
C316 C 0.209 0.78219 0.50815 0.0
C317 C 0.21524 0.75773 0.46622 0.0
C318 C 0.2288 0.77685 0.55529 0.0
C319 C 0.25469 0.74901 0.55968 0.0
C320 C 0.26306 0.72675 0.51633 0.0
C321 C 0.24227 0.73073 0.47 0.0
C322 C 0.10966 0.88723 0.67575 0.0
H323 H 0.11578 0.8679 0.27524 0.0
H324 H 0.13113 0.83489 0.35677 0.0
H325 H 0.17717 0.93379 0.42155 0.0
H326 H 0.16297 0.9664 0.33993 0.0
H327 H 0.19181 0.81992 0.41719 0.0
H328 H 0.13046 0.90633 0.48839 0.0
H329 H 0.17066 0.81889 0.585 0.0
H330 H 0.11071 0.83947 0.62675 0.0
H331 H 0.1635 0.93594 0.56426 0.0
H332 H 0.14789 0.96953 0.64395 0.0
H333 H 0.19988 0.75976 0.42983 0.0
H334 H 0.22565 0.79489 0.58866 0.0
H335 H 0.09419 0.87351 0.70635 0.0
H336 H 0.24762 0.71377 0.43596 0.0
H337 H 0.26887 0.74565 0.59689 0.0
C338 C 0.09187 0.1947 0.69702 0.0
C339 C 0.08058 0.15903 0.70989 0.0
C340 C 0.11194 0.20131 0.65124 0.0
C341 C 0.12052 0.17252 0.61692 0.0
C342 C 0.10915 0.13688 0.62951 0.0
C343 C 0.08951 0.13016 0.67574 0.0
C344 C 0.13978 0.18021 0.56687 0.0
C345 C 0.17139 0.20181 0.56661 0.0
C346 C 0.18782 0.21287 0.51897 0.0
C347 C 0.1727 0.20003 0.47113 0.0
C348 C 0.14157 0.17714 0.47088 0.0
C349 C 0.12521 0.16784 0.51916 0.0
C350 C 0.12486 0.16392 0.42066 0.0
C351 C 0.1236 0.18644 0.37557 0.0
C352 C 0.10842 0.12906 0.41823 0.0
C353 C 0.09022 0.11756 0.37272 0.0
C354 C 0.08884 0.14023 0.32817 0.0
C355 C 0.21969 0.23874 0.51978 0.0
C356 C 0.22361 0.2642 0.56106 0.0
C357 C 0.24639 0.2386 0.47976 0.0
C358 C 0.27549 0.26359 0.48056 0.0
C359 C 0.27918 0.28888 0.52196 0.0
C360 C 0.25331 0.28811 0.56281 0.0
C361 C 0.10598 0.17457 0.32968 0.0
H362 H 0.08448 0.21766 0.72167 0.0
H363 H 0.11982 0.22915 0.64184 0.0
H364 H 0.11553 0.11424 0.60364 0.0
H365 H 0.08127 0.10238 0.68479 0.0
H366 H 0.18297 0.20992 0.60411 0.0
H367 H 0.10008 0.15209 0.51975 0.0
H368 H 0.18477 0.20814 0.43401 0.0
H369 H 0.13532 0.21363 0.37602 0.0
H370 H 0.10946 0.11057 0.45162 0.0
H371 H 0.07741 0.09085 0.3722 0.0
H372 H 0.20357 0.26623 0.59222 0.0
H373 H 0.24511 0.21913 0.44778 0.0
H374 H 0.10501 0.19256 0.29567 0.0
H375 H 0.25584 0.30604 0.5965 0.0
H376 H 0.2949 0.26328 0.44838 0.0
C377 C 0.85021 0.07205 0.68523 0.0
C378 C 0.8823 0.05119 0.67973 0.0
C379 C 0.84059 0.09815 0.64733 0.0
C380 C 0.8629 0.10401 0.60308 0.0
C381 C 0.89554 0.08382 0.59841 0.0
C382 C 0.90501 0.05754 0.63611 0.0
C383 C 0.85101 0.12902 0.56001 0.0
C384 C 0.83353 0.16254 0.57063 0.0
C385 C 0.8215 0.1852 0.52907 0.0
C386 C 0.82738 0.17424 0.47673 0.0
C387 C 0.84373 0.14054 0.46587 0.0
C388 C 0.85554 0.1182 0.5074 0.0
C389 C 0.84695 0.12743 0.41124 0.0
C390 C 0.83177 0.09355 0.39729 0.0
C391 C 0.8669 0.14747 0.37381 0.0
C392 C 0.87321 0.13282 0.32382 0.0
C393 C 0.85896 0.09837 0.31052 0.0
C394 C 0.7994 0.21839 0.53933 0.0
C395 C 0.76878 0.21634 0.57258 0.0
C396 C 0.80581 0.2508 0.51078 0.0
C397 C 0.7809 0.27976 0.51305 0.0
C398 C 0.74908 0.27665 0.54359 0.0
C399 C 0.7437 0.24513 0.5744 0.0
C400 C 0.83756 0.07921 0.34717 0.0
H401 H 0.83234 0.06794 0.71875 0.0
H402 H 0.81508 0.11286 0.65188 0.0
H403 H 0.91358 0.08795 0.5651 0.0
H404 H 0.92965 0.0416 0.63041 0.0
H405 H 0.82921 0.17105 0.61103 0.0
H406 H 0.86763 0.09186 0.49848 0.0
H407 H 0.81731 0.19088 0.44435 0.0
H408 H 0.81613 0.07781 0.42565 0.0
H409 H 0.87887 0.17363 0.384 0.0
H410 H 0.88999 0.14785 0.29604 0.0
H411 H 0.76297 0.19157 0.59459 0.0
H412 H 0.82929 0.25309 0.48499 0.0
H413 H 0.82679 0.05237 0.3379 0.0
H414 H 0.71929 0.24219 0.5982 0.0
H415 H 0.78543 0.30366 0.48856 0.0
C416 C 0.16301 0.15881 0.95318 0.0
C417 C 0.13715 0.15584 0.99401 0.0
C418 C 0.19038 0.1856 0.95448 0.0
C419 C 0.19301 0.21011 -0.00314 0.0
H420 H 0.16278 0.13964 0.92069 0.0
H421 H 0.2104 0.18633 0.92305 0.0
S422 S 0.12928 0.21721 0.10968 0.0
N423 N 0.11354 0.18245 0.07487 0.0
N424 N 0.16594 0.232 0.07816 0.0
C425 C 0.16662 0.20843 0.03686 0.0
C426 C 0.13844 0.18147 0.03522 0.0
C427 C 0.83218 0.16431 0.98962 0.0
C428 C 0.84777 0.14869 0.03533 0.0
C429 C 0.80255 0.18839 0.99243 0.0
C430 C 0.78705 0.19804 0.04105 0.0
H431 H 0.84327 0.15847 0.95098 0.0
H432 H 0.79234 0.20033 0.95614 0.0
S433 S 0.81523 0.1629 0.17244 0.0
N434 N 0.84387 0.1433 0.13092 0.0
N435 N 0.78788 0.18861 0.13598 0.0
C436 C 0.80155 0.18205 0.08714 0.0
C437 C 0.83187 0.15733 0.08433 0.0
C438 C 0.82991 0.85138 0.04538 0.0
C439 C 0.86459 0.8494 0.02191 0.0
C440 C 0.80679 0.82089 0.04697 0.0
C441 C 0.81775 0.78681 0.02642 0.0
H442 H 0.82015 0.87699 0.06152 0.0
H443 H 0.77981 0.82437 0.06378 0.0
S444 S 0.90779 0.76682 0.96501 0.0
N445 N 0.90962 0.81085 0.97914 0.0
N446 N 0.86715 0.75269 0.98489 0.0
C447 C 0.85294 0.78433 0.00397 0.0
C448 C 0.87612 0.81578 0.00113 0.0
C449 C 0.17012 0.86556 0.00248 0.0
C450 C 0.13579 0.85995 0.02583 0.0
C451 C 0.19695 0.83816 0.00354 0.0
C452 C 0.19006 0.80366 0.02656 0.0
H453 H 0.17626 0.89136 0.98329 0.0
H454 H 0.22324 0.8441 0.98589 0.0
S455 S 0.10267 0.77488 0.0892 0.0
N456 N 0.09567 0.81785 0.07175 0.0
N457 N 0.14488 0.76526 0.07076 0.0
C458 C 0.1554 0.79778 0.04958 0.0
C459 C 0.12856 0.82617 0.04986 0.0
C460 C 0.64873 0.66049 0.56547 0.0
C461 C 0.63584 0.64358 0.51918 0.0
C462 C 0.67551 0.68794 0.56352 0.0
C463 C 0.69043 0.69964 0.51525 0.0
H464 H 0.63812 0.65249 0.60365 0.0
H465 H 0.68463 0.70014 0.60014 0.0
S466 S 0.66781 0.66326 0.3829 0.0
N467 N 0.64109 0.64017 0.42349 0.0
N468 N 0.69148 0.69155 0.42033 0.0
C469 C 0.6779 0.6831 0.46871 0.0
C470 C 0.65064 0.65514 0.47055 0.0
C471 C 0.32121 0.64112 0.49694 0.0
C472 C 0.35413 0.65043 0.52215 0.0
C473 C 0.29165 0.66566 0.49582 0.0
C474 C 0.29438 0.70066 0.51879 0.0
H475 H 0.31815 0.61455 0.47863 0.0
H476 H 0.26645 0.65704 0.47708 0.0
S477 S 0.37705 0.73928 0.58374 0.0
N478 N 0.3888 0.69712 0.56807 0.0
N479 N 0.33446 0.74416 0.56318 0.0
C480 C 0.32784 0.71048 0.54265 0.0
C481 C 0.35741 0.68515 0.54499 0.0
C482 C 0.37433 0.33091 0.50668 0.0
C483 C 0.36917 0.36689 0.52431 0.0
C484 C 0.34527 0.30575 0.50654 0.0
C485 C 0.30979 0.31602 0.52263 0.0
H486 H 0.40102 0.32216 0.49313 0.0
H487 H 0.35074 0.27802 0.49388 0.0
S488 S 0.28188 0.40903 0.56598 0.0
N489 N 0.32633 0.4124 0.5557 0.0
N490 N 0.27109 0.36626 0.55223 0.0
C491 C 0.30435 0.35252 0.53888 0.0
C492 C 0.33418 0.37766 0.54043 0.0
C493 C 0.6562 0.3172 0.51318 0.0
C494 C 0.6614 0.35469 0.52229 0.0
C495 C 0.68461 0.29219 0.52143 0.0
C496 C 0.71938 0.30391 0.53815 0.0
H497 H 0.62983 0.30708 0.50017 0.0
H498 H 0.67952 0.26349 0.51377 0.0
S499 S 0.74724 0.39954 0.56516 0.0
N500 N 0.70377 0.40269 0.54766 0.0
N501 N 0.75764 0.35558 0.56255 0.0
C502 C 0.72507 0.34145 0.5467 0.0
C503 C 0.6959 0.36689 0.53902 0.0
C504 C 0.01246 0.11093 0.23605 0.0
C505 C 0.03031 0.10684 0.18708 0.0
C506 C 0.03157 0.12115 0.28171 0.0
C507 C 0.06928 0.12818 0.28018 0.0
H508 H 0.98335 0.10626 0.23934 0.0
H509 H 0.01663 0.12413 0.31831 0.0
S510 S 0.12983 0.12016 0.16434 0.0
N511 N 0.08862 0.11045 0.14157 0.0
N512 N 0.12437 0.12895 0.22753 0.0
C513 C 0.08768 0.12393 0.23229 0.0
C514 C 0.06827 0.11345 0.18575 0.0
C515 C 0.91848 0.05266 0.20896 0.0
C516 C 0.8928 0.0381 0.17367 0.0
C517 C 0.90722 0.07359 0.25203 0.0
C518 C 0.86994 0.08029 0.26121 0.0
H519 H 0.94731 0.04663 0.20435 0.0
H520 H 0.92764 0.08326 0.27968 0.0
S521 S 0.79225 0.04929 0.17865 0.0
N522 N 0.82883 0.03247 0.14918 0.0
N523 N 0.80745 0.0718 0.23069 0.0
C524 C 0.84403 0.06631 0.22564 0.0
C525 C 0.85554 0.04509 0.18169 0.0
C526 C 0.9316 0.89617 0.17545 0.0
C527 C 0.9621 0.91935 0.18007 0.0
C528 C 0.91175 0.88516 0.22003 0.0
C529 C 0.92202 0.89676 0.27075 0.0
H530 H 0.92422 0.88495 0.13756 0.0
H531 H 0.88925 0.86617 0.21501 0.0
S532 S 0.99779 0.96046 0.30312 0.0
N533 N 0.00028 0.95545 0.23854 0.0
N534 N 0.96293 0.93503 0.32248 0.0
C535 C 0.95171 0.92105 0.27557 0.0
C536 C 0.97186 0.93217 0.23021 0.0
C537 C 0.12085 0.94796 0.15946 0.0
C538 C 0.10211 0.98123 0.16481 0.0
C539 C 0.13196 0.92796 0.20398 0.0
C540 C 0.12488 0.94087 0.25518 0.0
H541 H 0.12797 0.93796 0.12076 0.0
H542 H 0.14684 0.90265 0.19832 0.0
S543 S 0.07496 0.02593 0.28962 0.0
N544 N 0.07595 0.02582 0.22458 0.0
N545 N 0.09647 0.98835 0.30834 0.0
C546 C 0.10578 0.97405 0.2608 0.0
C547 C 0.09458 0.99427 0.21557 0.0
C548 C 0.08971 0.99989 0.77324 0.0
C549 C 0.09729 0.98553 0.82365 0.0
C550 C 0.09727 0.97986 0.72761 0.0
C551 C 0.11214 0.94443 0.73055 0.0
H552 H 0.07802 0.02696 0.76877 0.0
H553 H 0.09087 0.992 0.68968 0.0
S554 S 0.13859 0.89472 0.85244 0.0
N555 N 0.12177 0.93394 0.87345 0.0
N556 N 0.13551 0.89627 0.78756 0.0
C557 C 0.11996 0.92971 0.78053 0.0
C558 C 0.11265 0.95025 0.82706 0.0
C559 C 0.00526 0.1233 0.7989 0.0
C560 C 0.0148 0.13721 0.84873 0.0
C561 C 0.02677 0.13032 0.75444 0.0
C562 C 0.05845 0.15201 0.75784 0.0
H563 H 0.98101 0.10664 0.79407 0.0
H564 H 0.01827 0.11896 0.71696 0.0
S565 S 0.09415 0.19736 0.87808 0.0
N566 N 0.05716 0.17553 0.89816 0.0
N567 N 0.09785 0.18832 0.81462 0.0
C568 C 0.06791 0.16689 0.80709 0.0
C569 C 0.04602 0.15964 0.85249 0.0
C570 C 0.87036 0.9731 0.77685 0.0
C571 C 0.90425 0.97194 0.80322 0.0
C572 C 0.864 0.998 0.73585 0.0
C573 C 0.89133 0.02251 0.71922 0.0
H574 H 0.84794 0.95577 0.78935 0.0
H575 H 0.83712 0.99863 0.71778 0.0
S576 S 0.98645 0.02719 0.77028 0.0
N577 N 0.96676 0.99498 0.80602 0.0
N578 N 0.95467 0.04184 0.72895 0.0
C579 C 0.92613 0.02 0.74274 0.0
C580 C 0.93261 0.99469 0.78471 0.0
C581 C 0.95189 0.86794 0.83683 0.0
C582 C 0.98289 0.89076 0.8331 0.0
C583 C 0.93022 0.86029 0.7926 0.0
C584 C 0.93887 0.87499 0.74299 0.0
H585 H 0.94412 0.85587 0.87422 0.0
H586 H 0.90694 0.8422 0.79708 0.0
S587 S 0.01551 0.93764 0.71187 0.0
N588 N 0.02033 0.92873 0.77535 0.0
N589 N 0.97904 0.91469 0.6927 0.0
C590 C 0.96927 0.89827 0.73871 0.0
C591 C 0.99145 0.90602 0.78358 0.0
C592 C 0.56534 0.6064 0.69892 0.0
C593 C 0.527 0.60447 0.70311 0.0
C594 C 0.58743 0.61203 0.7433 0.0
C595 C 0.57189 0.61554 0.79349 0.0
H596 H 0.57848 0.60395 0.66107 0.0
H597 H 0.61684 0.61338 0.73844 0.0
S598 S 0.47328 0.61434 0.82634 0.0
N599 N 0.47451 0.60803 0.76191 0.0
N600 N 0.51634 0.61796 0.84547 0.0
C601 C 0.53374 0.61407 0.79853 0.0
C602 C 0.51117 0.6088 0.75327 0.0
C603 C 0.38754 0.56835 0.67545 0.0
C604 C 0.41272 0.53951 0.68019 0.0
C605 C 0.37344 0.58573 0.72028 0.0
C606 C 0.38376 0.57444 0.77126 0.0
H607 H 0.37754 0.57648 0.63703 0.0
H608 H 0.35345 0.60732 0.71505 0.0
S609 S 0.45195 0.50268 0.80426 0.0
N610 N 0.44965 0.50236 0.73927 0.0
N611 N 0.42279 0.5344 0.82359 0.0
C612 C 0.40968 0.5462 0.77632 0.0
C613 C 0.42423 0.52886 0.73075 0.0
C614 C 0.46081 0.41158 0.69434 0.0
C615 C 0.48778 0.39156 0.66803 0.0
C616 C 0.44128 0.39656 0.73646 0.0
C617 C 0.44843 0.36084 0.7543 0.0
H618 H 0.45625 0.43971 0.68421 0.0
H619 H 0.42148 0.41358 0.75655 0.0
S620 S 0.51605 0.29632 0.69797 0.0
N621 N 0.52044 0.3338 0.66199 0.0
N622 N 0.48377 0.30523 0.74158 0.0
C623 C 0.4752 0.34019 0.72807 0.0
C624 C 0.49497 0.35562 0.68493 0.0
C625 C 0.57318 0.47382 0.73312 0.0
C626 C 0.59374 0.46815 0.68709 0.0
C627 C 0.57931 0.45272 0.77846 0.0
C628 C 0.60632 0.42531 0.77941 0.0
H629 H 0.55251 0.49506 0.73431 0.0
H630 H 0.56333 0.45841 0.81343 0.0
S631 S 0.6687 0.40109 0.67012 0.0
N632 N 0.64287 0.43417 0.64572 0.0
N633 N 0.65409 0.39403 0.73083 0.0
C634 C 0.62658 0.41894 0.73337 0.0
C635 C 0.6204 0.44054 0.68721 0.0
C636 C 0.57005 0.48834 0.308 0.0
C637 C 0.58992 0.48224 0.35483 0.0
C638 C 0.5766 0.46752 0.26277 0.0
C639 C 0.60291 0.4395 0.26293 0.0
H640 H 0.54928 0.50941 0.30611 0.0
H641 H 0.5608 0.47321 0.22749 0.0
S642 S 0.66366 0.41345 0.37397 0.0
N643 N 0.63806 0.44675 0.39764 0.0
N644 N 0.64984 0.40741 0.31263 0.0
C645 C 0.62295 0.43301 0.30925 0.0
C646 C 0.61659 0.45441 0.35521 0.0
C647 C 0.55501 0.62427 0.3495 0.0
C648 C 0.52202 0.60467 0.34527 0.0
C649 C 0.57991 0.62564 0.30788 0.0
C650 C 0.57287 0.60778 0.25994 0.0
H651 H 0.56176 0.63895 0.38526 0.0
H652 H 0.60474 0.64135 0.31305 0.0
S653 S 0.49108 0.55156 0.22904 0.0
N654 N 0.48423 0.56556 0.29007 0.0
N655 N 0.53073 0.56909 0.21092 0.0
C656 C 0.54042 0.58722 0.25549 0.0
C657 C 0.51507 0.5855 0.2983 0.0
C658 C 0.39176 0.55577 0.33875 0.0
C659 C 0.40626 0.5202 0.3346 0.0
C660 C 0.38145 0.5757 0.29397 0.0
C661 C 0.38523 0.56089 0.24327 0.0
H662 H 0.38837 0.56852 0.37692 0.0
H663 H 0.3706 0.60304 0.29906 0.0
S664 S 0.42074 0.46872 0.21035 0.0
N665 N 0.42348 0.47085 0.27525 0.0
N666 N 0.40359 0.50837 0.1911 0.0
C667 C 0.39955 0.52539 0.2383 0.0
C668 C 0.41018 0.50503 0.28395 0.0
C669 C 0.50277 0.39287 0.28158 0.0
C670 C 0.48762 0.38548 0.33146 0.0
C671 C 0.48329 0.38563 0.23522 0.0
C672 C 0.4479 0.37056 0.23681 0.0
H673 H 0.53004 0.40412 0.27815 0.0
H674 H 0.49614 0.39176 0.19776 0.0
S675 S 0.39596 0.34528 0.35708 0.0
N676 N 0.43495 0.36197 0.37947 0.0
N677 N 0.39859 0.34795 0.29222 0.0
C678 C 0.43222 0.3633 0.28631 0.0
C679 C 0.45202 0.37079 0.33362 0.0
loop_
_geom_bond_atom_site_label_1
_geom_bond_atom_site_label_2
_geom_bond_distance
_geom_bond_site_symmetry_2
_ccdc_geom_bond_type
Zn0 O2 1.933 1_556 S
Zn0 O20 1.985 . S
Zn0 O31 1.955 . S
Zn1 O2 1.911 . S
Zn1 O21 1.970 . S
Zn1 O37 1.945 . S
Zn1 O44 1.981 . S
O2 Zn0 1.933 1_554 S
O2 Zn1 1.911 . S
O2 H3 0.841 1_655 S
H3 O2 0.841 1_455 S
C4 O5 1.246 . S
C4 O33 1.276 1_545 S
O5 C4 1.246 . S
Zn6 O8 1.911 . S
Zn6 O23 1.970 . S
Zn6 O40 1.945 . S
Zn6 O47 1.981 . S
Zn7 O8 1.933 1_556 S
Zn7 O22 1.985 . S
Zn7 O29 1.955 . S
O8 Zn6 1.911 . S
O8 Zn7 1.933 1_554 S
O8 H9 0.841 1_455 S
H9 O8 0.841 1_655 S
Zn10 O11 1.933 1_556 S
Zn10 O24 1.985 . S
Zn10 O33 1.955 . S
O11 Zn10 1.933 1_554 S
O11 Zn12 1.911 . S
O11 H13 0.841 1_565 S
Zn12 O11 1.911 . S
Zn12 O25 1.970 . S
Zn12 O41 1.981 . S
Zn12 O43 1.945 . S
H13 O11 0.841 1_545 S
Zn14 O15 1.933 1_556 S
Zn14 O27 1.985 . S
Zn14 O35 1.955 . S
O15 Zn14 1.933 1_554 S
O15 H16 0.841 1_545 S
O15 Zn17 1.911 . S
H16 O15 0.841 1_565 S
Zn17 O15 1.911 . S
Zn17 O28 1.970 . S
Zn17 O38 1.981 . S
Zn17 O46 1.945 . S
C18 O19 1.246 . S
C18 O35 1.276 1_565 S
O19 C18 1.246 . S
O20 Zn0 1.985 . S
O20 C30 1.245 1_556 S
O21 Zn1 1.970 . S
O21 C30 1.263 . S
O22 Zn7 1.985 . S
O22 C34 1.245 1_556 S
O23 Zn6 1.970 . S
O23 C34 1.263 . S
O24 Zn10 1.985 . S
O24 C39 1.245 1_556 S
O25 Zn12 1.970 . S
O25 C39 1.263 . S
C26 O37 1.262 1_455 S
C26 O38 1.245 . S
O27 Zn14 1.985 . S
O27 C45 1.245 1_556 S
O28 Zn17 1.970 . S
O28 C45 1.263 . S
O29 Zn7 1.955 . S
O29 C48 1.276 1_455 S
C30 O20 1.245 1_554 S
C30 O21 1.263 . S
O31 Zn0 1.955 . S
O31 C50 1.276 1_655 S
C32 O40 1.262 1_655 S
C32 O41 1.245 . S
O33 C4 1.276 1_565 S
O33 Zn10 1.955 . S
C34 O22 1.245 1_554 S
C34 O23 1.263 . S
O35 Zn14 1.955 . S
O35 C18 1.276 1_545 S
C36 O43 1.262 1_545 S
C36 O44 1.245 . S
O37 Zn1 1.945 . S
O37 C26 1.262 1_655 S
O38 Zn17 1.981 . S
O38 C26 1.245 . S
C39 O24 1.245 1_554 S
C39 O25 1.263 . S
O40 Zn6 1.945 . S
O40 C32 1.262 1_455 S
O41 Zn12 1.981 . S
O41 C32 1.245 . S
C42 O46 1.262 1_565 S
C42 O47 1.245 . S
O43 Zn12 1.945 . S
O43 C36 1.262 1_565 S
O44 Zn1 1.981 . S
O44 C36 1.245 . S
C45 O27 1.245 1_554 S
C45 O28 1.263 . S
O46 Zn17 1.945 . S
O46 C42 1.262 1_545 S
O47 Zn6 1.981 . S
O47 C42 1.245 . S
C48 O29 1.276 1_655 S
C48 O49 1.246 . S
O49 C48 1.246 . S
C50 O31 1.276 1_455 S
C50 O51 1.246 . S
O51 C50 1.246 . S
Zn52 O54 1.933 . S
Zn52 O72 1.985 . S
Zn52 O83 1.955 . S
Zn53 O54 1.911 . S
Zn53 O73 1.970 . S
Zn53 O89 1.945 . S
Zn53 O96 1.981 . S
O54 Zn52 1.933 . S
O54 Zn53 1.911 . S
O54 H55 0.841 . S
H55 O54 0.841 . S
C56 O57 1.246 . S
C56 O85 1.276 . S
O57 C56 1.246 . S
Zn58 O60 1.911 . S
Zn58 O75 1.970 . S
Zn58 O92 1.945 . S
Zn58 O99 1.981 . S
Zn59 O60 1.933 . S
Zn59 O74 1.985 . S
Zn59 O81 1.955 . S
O60 Zn58 1.911 . S
O60 Zn59 1.933 . S
O60 H61 0.841 . S
H61 O60 0.841 . S
Zn62 O63 1.933 . S
Zn62 O76 1.985 . S
Zn62 O85 1.955 . S
O63 Zn62 1.933 . S
O63 Zn64 1.911 . S
O63 H65 0.841 . S
Zn64 O63 1.911 . S
Zn64 O77 1.970 . S
Zn64 O93 1.981 . S
Zn64 O95 1.945 . S
H65 O63 0.841 . S
Zn66 O67 1.933 . S
Zn66 O79 1.985 . S
Zn66 O87 1.955 . S
O67 Zn66 1.933 . S
O67 H68 0.841 . S
O67 Zn69 1.911 . S
H68 O67 0.841 . S
Zn69 O67 1.911 . S
Zn69 O80 1.970 . S
Zn69 O90 1.981 . S
Zn69 O98 1.945 . S
C70 O71 1.246 . S
C70 O87 1.276 . S
O71 C70 1.246 . S
O72 Zn52 1.985 . S
O72 C82 1.245 . S
O73 Zn53 1.970 . S
O73 C82 1.263 . S
O74 Zn59 1.985 . S
O74 C86 1.245 . S
O75 Zn58 1.970 . S
O75 C86 1.263 . S
O76 Zn62 1.985 . S
O76 C91 1.245 . S
O77 Zn64 1.970 . S
O77 C91 1.263 . S
C78 O89 1.262 . S
C78 O90 1.245 . S
O79 Zn66 1.985 . S
O79 C97 1.245 . S
O80 Zn69 1.970 . S
O80 C97 1.263 . S
O81 Zn59 1.955 . S
O81 C100 1.276 . S
C82 O72 1.245 . S
C82 O73 1.263 . S
O83 Zn52 1.955 . S
O83 C102 1.276 . S
C84 O92 1.262 . S
C84 O93 1.245 . S
O85 C56 1.276 . S
O85 Zn62 1.955 . S
C86 O74 1.245 . S
C86 O75 1.263 . S
O87 Zn66 1.955 . S
O87 C70 1.276 . S
C88 O95 1.262 . S
C88 O96 1.245 . S
O89 Zn53 1.945 . S
O89 C78 1.262 . S
O90 Zn69 1.981 . S
O90 C78 1.245 . S
C91 O76 1.245 . S
C91 O77 1.263 . S
O92 Zn58 1.945 . S
O92 C84 1.262 . S
O93 Zn64 1.981 . S
O93 C84 1.245 . S
C94 O98 1.262 . S
C94 O99 1.245 . S
O95 Zn64 1.945 . S
O95 C88 1.262 . S
O96 Zn53 1.981 . S
O96 C88 1.245 . S
C97 O79 1.245 . S
C97 O80 1.263 . S
O98 Zn69 1.945 . S
O98 C94 1.262 . S
O99 Zn58 1.981 . S
O99 C94 1.245 . S
C100 O81 1.276 . S
C100 O101 1.246 . S
O101 C100 1.246 . S
C102 O83 1.276 . S
C102 O103 1.246 . S
O103 C102 1.246 . S
C104 C105 1.386 . S
C104 C106 1.397 . S
C104 H128 0.931 . S
C105 C104 1.386 . S
C105 C109 1.397 . S
C106 C104 1.397 . S
C106 C107 1.384 . S
C106 H129 0.930 . S
C107 C106 1.384 . S
C107 C108 1.377 . S
C107 C110 1.481 . S
C108 C107 1.377 . S
C108 C109 1.389 . S
C108 H130 0.929 . S
C109 C105 1.397 . S
C109 C108 1.389 . S
C109 H131 0.931 . S
C110 C107 1.481 . S
C110 C111 1.387 . S
C110 C115 1.390 1_556 S
C111 C110 1.387 . S
C111 C112 1.401 1_556 S
C111 H132 0.930 . S
C112 C111 1.401 1_554 S
C112 C113 1.376 . S
C112 C121 1.511 . S
C113 C112 1.376 . S
C113 C114 1.392 . S
C113 H134 0.931 . S
C114 C113 1.392 . S
C114 C115 1.361 . S
C114 C116 1.500 . S
C115 C110 1.390 1_554 S
C115 C114 1.361 . S
C115 H133 0.931 . S
C116 C114 1.500 . S
C116 C117 1.371 . S
C116 C118 1.365 . S
C117 C116 1.371 . S
C117 C127 1.386 . S
C117 H135 0.931 . S
C118 C116 1.365 . S
C118 C119 1.409 . S
C118 H136 0.929 . S
C119 C118 1.409 . S
C119 C120 1.380 . S
C119 H137 0.930 . S
C120 C119 1.380 . S
C120 C127 1.357 . S
C121 C112 1.511 . S
C121 C122 1.341 1_554 S
C121 C123 1.371 . S
C122 C121 1.341 1_556 S
C122 C126 1.394 . S
C122 H138 0.930 . S
C123 C121 1.371 . S
C123 C124 1.392 . S
C123 H139 0.931 . S
C124 C123 1.392 . S
C124 C125 1.331 . S
C124 H142 0.932 . S
C125 C124 1.331 . S
C125 C126 1.336 1_554 S
C126 C122 1.394 . S
C126 C125 1.336 1_556 S
C126 H141 0.929 . S
C127 C117 1.386 . S
C127 C120 1.357 . S
C127 H140 0.928 . S
H128 C104 0.931 . S
H129 C106 0.930 . S
H130 C108 0.929 . S
H131 C109 0.931 . S
H132 C111 0.930 . S
H133 C115 0.931 . S
H134 C113 0.931 . S
H135 C117 0.931 . S
H136 C118 0.929 . S
H137 C119 0.930 . S
H138 C122 0.930 . S
H139 C123 0.931 . S
H140 C127 0.928 . S
H141 C126 0.929 . S
H142 C124 0.932 . S
C143 C144 1.386 . S
C143 C145 1.397 . S
C143 H167 0.931 . S
C144 C143 1.386 . S
C144 C148 1.397 . S
C145 C143 1.397 . S
C145 C146 1.384 . S
C145 H168 0.930 . S
C146 C145 1.384 . S
C146 C147 1.377 . S
C146 C149 1.481 . S
C147 C146 1.377 . S
C147 C148 1.389 . S
C147 H169 0.929 . S
C148 C144 1.397 . S
C148 C147 1.389 . S
C148 H170 0.931 . S
C149 C146 1.481 . S
C149 C150 1.387 . S
C149 C154 1.390 1_556 S
C150 C149 1.387 . S
C150 C151 1.401 1_556 S
C150 H171 0.930 . S
C151 C150 1.401 1_554 S
C151 C152 1.376 . S
C151 C160 1.511 . S
C152 C151 1.376 . S
C152 C153 1.392 . S
C152 H173 0.931 . S
C153 C152 1.392 . S
C153 C154 1.361 . S
C153 C155 1.500 . S
C154 C149 1.390 1_554 S
C154 C153 1.361 . S
C154 H172 0.931 . S
C155 C153 1.500 . S
C155 C156 1.371 . S
C155 C157 1.365 . S
C156 C155 1.371 . S
C156 C166 1.386 . S
C156 H174 0.931 . S
C157 C155 1.365 . S
C157 C158 1.409 . S
C157 H175 0.929 . S
C158 C157 1.409 . S
C158 C159 1.380 . S
C158 H176 0.930 . S
C159 C158 1.380 . S
C159 C166 1.357 . S
C160 C151 1.511 . S
C160 C161 1.341 1_554 S
C160 C162 1.371 . S
C161 C160 1.341 1_556 S
C161 C165 1.394 . S
C161 H177 0.930 . S
C162 C160 1.371 . S
C162 C163 1.392 . S
C162 H178 0.931 . S
C163 C162 1.392 . S
C163 C164 1.331 . S
C163 H181 0.932 . S
C164 C163 1.331 . S
C164 C165 1.336 1_554 S
C165 C161 1.394 . S
C165 C164 1.336 1_556 S
C165 H180 0.929 . S
C166 C156 1.386 . S
C166 C159 1.357 . S
C166 H179 0.928 . S
H167 C143 0.931 . S
H168 C145 0.930 . S
H169 C147 0.929 . S
H170 C148 0.931 . S
H171 C150 0.930 . S
H172 C154 0.931 . S
H173 C152 0.931 . S
H174 C156 0.931 . S
H175 C157 0.929 . S
H176 C158 0.930 . S
H177 C161 0.930 . S
H178 C162 0.931 . S
H179 C166 0.928 . S
H180 C165 0.929 . S
H181 C163 0.932 . S
C182 C183 1.386 . S
C182 C184 1.397 . S
C182 H206 0.931 . S
C183 C182 1.386 . S
C183 C187 1.397 . S
C184 C182 1.397 . S
C184 C185 1.384 . S
C184 H207 0.930 . S
C185 C184 1.384 . S
C185 C186 1.377 . S
C185 C188 1.481 . S
C186 C185 1.377 . S
C186 C187 1.389 . S
C186 H208 0.929 . S
C187 C183 1.397 . S
C187 C186 1.389 . S
C187 H209 0.931 . S
C188 C185 1.481 . S
C188 C189 1.387 . S
C188 C193 1.390 . S
C189 C188 1.387 . S
C189 C190 1.401 . S
C189 H210 0.930 . S
C190 C189 1.401 . S
C190 C191 1.376 1_554 S
C190 C199 1.511 . S
C191 C190 1.376 1_556 S
C191 C192 1.392 . S
C191 H212 0.931 . S
C192 C191 1.392 . S
C192 C193 1.361 1_556 S
C192 C194 1.500 . S
C193 C188 1.390 . S
C193 C192 1.361 1_554 S
C193 H211 0.931 . S
C194 C192 1.500 . S
C194 C195 1.371 . S
C194 C196 1.365 . S
C195 C194 1.371 . S
C195 C205 1.386 . S
C195 H213 0.931 . S
C196 C194 1.365 . S
C196 C197 1.409 . S
C196 H214 0.929 . S
C197 C196 1.409 . S
C197 C198 1.380 . S
C197 H215 0.930 . S
C198 C197 1.380 . S
C198 C205 1.357 . S
C199 C190 1.511 . S
C199 C200 1.341 . S
C199 C201 1.371 1_554 S
C200 C199 1.341 . S
C200 C204 1.394 . S
C200 H216 0.930 . S
C201 C199 1.371 1_556 S
C201 C202 1.392 . S
C201 H217 0.931 . S
C202 C201 1.392 . S
C202 C203 1.331 1_556 S
C202 H220 0.932 . S
C203 C202 1.331 1_554 S
C203 C204 1.336 . S
C204 C200 1.394 . S
C204 C203 1.336 . S
C204 H219 0.929 . S
C205 C195 1.386 . S
C205 C198 1.357 . S
C205 H218 0.928 . S
H206 C182 0.931 . S
H207 C184 0.930 . S
H208 C186 0.929 . S
H209 C187 0.931 . S
H210 C189 0.930 . S
H211 C193 0.931 . S
H212 C191 0.931 . S
H213 C195 0.931 . S
H214 C196 0.929 . S
H215 C197 0.930 . S
H216 C200 0.930 . S
H217 C201 0.931 . S
H218 C205 0.928 . S
H219 C204 0.929 . S
H220 C202 0.932 . S
C221 C222 1.386 . S
C221 C223 1.397 . S
C221 H245 0.931 . S
C222 C221 1.386 . S
C222 C226 1.397 . S
C223 C221 1.397 . S
C223 C224 1.384 . S
C223 H246 0.930 . S
C224 C223 1.384 . S
C224 C225 1.377 . S
C224 C227 1.481 . S
C225 C224 1.377 . S
C225 C226 1.389 . S
C225 H247 0.929 . S
C226 C222 1.397 . S
C226 C225 1.389 . S
C226 H248 0.931 . S
C227 C224 1.481 . S
C227 C228 1.387 . S
C227 C232 1.390 . S
C228 C227 1.387 . S
C228 C229 1.401 . S
C228 H249 0.930 . S
C229 C228 1.401 . S
C229 C230 1.376 1_554 S
C229 C238 1.511 . S
C230 C229 1.376 1_556 S
C230 C231 1.392 . S
C230 H251 0.931 . S
C231 C230 1.392 . S
C231 C232 1.361 1_556 S
C231 C233 1.500 . S
C232 C227 1.390 . S
C232 C231 1.361 1_554 S
C232 H250 0.931 . S
C233 C231 1.500 . S
C233 C234 1.371 . S
C233 C235 1.365 . S
C234 C233 1.371 . S
C234 C244 1.386 . S
C234 H252 0.931 . S
C235 C233 1.365 . S
C235 C236 1.409 . S
C235 H253 0.929 . S
C236 C235 1.409 . S
C236 C237 1.380 . S
C236 H254 0.930 . S
C237 C236 1.380 . S
C237 C244 1.357 . S
C238 C229 1.511 . S
C238 C239 1.341 . S
C238 C240 1.371 1_554 S
C239 C238 1.341 . S
C239 C243 1.394 . S
C239 H255 0.930 . S
C240 C238 1.371 1_556 S
C240 C241 1.392 . S
C240 H256 0.931 . S
C241 C240 1.392 . S
C241 C242 1.331 1_556 S
C241 H259 0.932 . S
C242 C241 1.331 1_554 S
C242 C243 1.336 . S
C243 C239 1.394 . S
C243 C242 1.336 . S
C243 H258 0.929 . S
C244 C234 1.386 . S
C244 C237 1.357 . S
C244 H257 0.928 . S
H245 C221 0.931 . S
H246 C223 0.930 . S
H247 C225 0.929 . S
H248 C226 0.931 . S
H249 C228 0.930 . S
H250 C232 0.931 . S
H251 C230 0.931 . S
H252 C234 0.931 . S
H253 C235 0.929 . S
H254 C236 0.930 . S
H255 C239 0.930 . S
H256 C240 0.931 . S
H257 C244 0.928 . S
H258 C243 0.929 . S
H259 C241 0.932 . S
C260 C261 1.386 . S
C260 C262 1.397 . S
C260 H284 0.931 . S
C261 C260 1.386 . S
C261 C265 1.397 . S
C262 C260 1.397 . S
C262 C263 1.384 . S
C262 H285 0.930 . S
C263 C262 1.384 . S
C263 C264 1.377 . S
C263 C266 1.481 . S
C264 C263 1.377 . S
C264 C265 1.389 . S
C264 H286 0.929 . S
C265 C261 1.397 . S
C265 C264 1.389 . S
C265 H287 0.931 . S
C266 C263 1.481 . S
C266 C267 1.387 . S
C266 C271 1.390 . S
C267 C266 1.387 . S
C267 C268 1.401 . S
C267 H288 0.930 . S
C268 C267 1.401 . S
C268 C269 1.376 . S
C268 C277 1.511 . S
C269 C268 1.376 . S
C269 C270 1.392 . S
C269 H290 0.931 . S
C270 C269 1.392 . S
C270 C271 1.361 . S
C270 C272 1.500 . S
C271 C266 1.390 . S
C271 C270 1.361 . S
C271 H289 0.931 . S
C272 C270 1.500 . S
C272 C273 1.371 . S
C272 C274 1.365 . S
C273 C272 1.371 . S
C273 C283 1.386 . S
C273 H291 0.931 . S
C274 C272 1.365 . S
C274 C275 1.409 . S
C274 H292 0.929 . S
C275 C274 1.409 . S
C275 C276 1.380 . S
C275 H293 0.930 . S
C276 C275 1.380 . S
C276 C283 1.357 . S
C277 C268 1.511 . S
C277 C278 1.341 . S
C277 C279 1.371 . S
C278 C277 1.341 . S
C278 C282 1.394 . S
C278 H294 0.930 . S
C279 C277 1.371 . S
C279 C280 1.392 . S
C279 H295 0.931 . S
C280 C279 1.392 . S
C280 C281 1.331 . S
C280 H298 0.932 . S
C281 C280 1.331 . S
C281 C282 1.336 . S
C282 C278 1.394 . S
C282 C281 1.336 . S
C282 H297 0.929 . S
C283 C273 1.386 . S
C283 C276 1.357 . S
C283 H296 0.928 . S
H284 C260 0.931 . S
H285 C262 0.930 . S
H286 C264 0.929 . S
H287 C265 0.931 . S
H288 C267 0.930 . S
H289 C271 0.931 . S
H290 C269 0.931 . S
H291 C273 0.931 . S
H292 C274 0.929 . S
H293 C275 0.930 . S
H294 C278 0.930 . S
H295 C279 0.931 . S
H296 C283 0.928 . S
H297 C282 0.929 . S
H298 C280 0.932 . S
C299 C300 1.386 . S
C299 C301 1.397 . S
C299 H323 0.931 . S
C300 C299 1.386 . S
C300 C304 1.397 . S
C301 C299 1.397 . S
C301 C302 1.384 . S
C301 H324 0.930 . S
C302 C301 1.384 . S
C302 C303 1.377 . S
C302 C305 1.481 . S
C303 C302 1.377 . S
C303 C304 1.389 . S
C303 H325 0.929 . S
C304 C300 1.397 . S
C304 C303 1.389 . S
C304 H326 0.931 . S
C305 C302 1.481 . S
C305 C306 1.387 . S
C305 C310 1.390 . S
C306 C305 1.387 . S
C306 C307 1.401 . S
C306 H327 0.930 . S
C307 C306 1.401 . S
C307 C308 1.376 . S
C307 C316 1.511 . S
C308 C307 1.376 . S
C308 C309 1.392 . S
C308 H329 0.931 . S
C309 C308 1.392 . S
C309 C310 1.361 . S
C309 C311 1.500 . S
C310 C305 1.390 . S
C310 C309 1.361 . S
C310 H328 0.931 . S
C311 C309 1.500 . S
C311 C312 1.371 . S
C311 C313 1.365 . S
C312 C311 1.371 . S
C312 C322 1.386 . S
C312 H330 0.931 . S
C313 C311 1.365 . S
C313 C314 1.409 . S
C313 H331 0.929 . S
C314 C313 1.409 . S
C314 C315 1.380 . S
C314 H332 0.930 . S
C315 C314 1.380 . S
C315 C322 1.357 . S
C316 C307 1.511 . S
C316 C317 1.341 . S
C316 C318 1.371 . S
C317 C316 1.341 . S
C317 C321 1.394 . S
C317 H333 0.930 . S
C318 C316 1.371 . S
C318 C319 1.392 . S
C318 H334 0.931 . S
C319 C318 1.392 . S
C319 C320 1.331 . S
C319 H337 0.932 . S
C320 C319 1.331 . S
C320 C321 1.336 . S
C321 C317 1.394 . S
C321 C320 1.336 . S
C321 H336 0.929 . S
C322 C312 1.386 . S
C322 C315 1.357 . S
C322 H335 0.928 . S
H323 C299 0.931 . S
H324 C301 0.930 . S
H325 C303 0.929 . S
H326 C304 0.931 . S
H327 C306 0.930 . S
H328 C310 0.931 . S
H329 C308 0.931 . S
H330 C312 0.931 . S
H331 C313 0.929 . S
H332 C314 0.930 . S
H333 C317 0.930 . S
H334 C318 0.931 . S
H335 C322 0.928 . S
H336 C321 0.929 . S
H337 C319 0.932 . S
C338 C339 1.386 . S
C338 C340 1.397 . S
C338 H362 0.931 . S
C339 C338 1.386 . S
C339 C343 1.397 . S
C340 C338 1.397 . S
C340 C341 1.384 . S
C340 H363 0.930 . S
C341 C340 1.384 . S
C341 C342 1.377 . S
C341 C344 1.481 . S
C342 C341 1.377 . S
C342 C343 1.389 . S
C342 H364 0.929 . S
C343 C339 1.397 . S
C343 C342 1.389 . S
C343 H365 0.931 . S
C344 C341 1.481 . S
C344 C345 1.387 . S
C344 C349 1.390 . S
C345 C344 1.387 . S
C345 C346 1.401 . S
C345 H366 0.930 . S
C346 C345 1.401 . S
C346 C347 1.376 . S
C346 C355 1.511 . S
C347 C346 1.376 . S
C347 C348 1.392 . S
C347 H368 0.931 . S
C348 C347 1.392 . S
C348 C349 1.361 . S
C348 C350 1.500 . S
C349 C344 1.390 . S
C349 C348 1.361 . S
C349 H367 0.931 . S
C350 C348 1.500 . S
C350 C351 1.371 . S
C350 C352 1.365 . S
C351 C350 1.371 . S
C351 C361 1.386 . S
C351 H369 0.931 . S
C352 C350 1.365 . S
C352 C353 1.409 . S
C352 H370 0.929 . S
C353 C352 1.409 . S
C353 C354 1.380 . S
C353 H371 0.930 . S
C354 C353 1.380 . S
C354 C361 1.357 . S
C355 C346 1.511 . S
C355 C356 1.341 . S
C355 C357 1.371 . S
C356 C355 1.341 . S
C356 C360 1.394 . S
C356 H372 0.930 . S
C357 C355 1.371 . S
C357 C358 1.392 . S
C357 H373 0.931 . S
C358 C357 1.392 . S
C358 C359 1.331 . S
C358 H376 0.932 . S
C359 C358 1.331 . S
C359 C360 1.336 . S
C360 C356 1.394 . S
C360 C359 1.336 . S
C360 H375 0.929 . S
C361 C351 1.386 . S
C361 C354 1.357 . S
C361 H374 0.928 . S
H362 C338 0.931 . S
H363 C340 0.930 . S
H364 C342 0.929 . S
H365 C343 0.931 . S
H366 C345 0.930 . S
H367 C349 0.931 . S
H368 C347 0.931 . S
H369 C351 0.931 . S
H370 C352 0.929 . S
H371 C353 0.930 . S
H372 C356 0.930 . S
H373 C357 0.931 . S
H374 C361 0.928 . S
H375 C360 0.929 . S
H376 C358 0.932 . S
C377 C378 1.386 . S
C377 C379 1.397 . S
C377 H401 0.931 . S
C378 C377 1.386 . S
C378 C382 1.397 . S
C379 C377 1.397 . S
C379 C380 1.384 . S
C379 H402 0.930 . S
C380 C379 1.384 . S
C380 C381 1.377 . S
C380 C383 1.481 . S
C381 C380 1.377 . S
C381 C382 1.389 . S
C381 H403 0.929 . S
C382 C378 1.397 . S
C382 C381 1.389 . S
C382 H404 0.931 . S
C383 C380 1.481 . S
C383 C384 1.387 . S
C383 C388 1.390 . S
C384 C383 1.387 . S
C384 C385 1.401 . S
C384 H405 0.930 . S
C385 C384 1.401 . S
C385 C386 1.376 . S
C385 C394 1.511 . S
C386 C385 1.376 . S
C386 C387 1.392 . S
C386 H407 0.931 . S
C387 C386 1.392 . S
C387 C388 1.361 . S
C387 C389 1.500 . S
C388 C383 1.390 . S
C388 C387 1.361 . S
C388 H406 0.931 . S
C389 C387 1.500 . S
C389 C390 1.371 . S
C389 C391 1.365 . S
C390 C389 1.371 . S
C390 C400 1.386 . S
C390 H408 0.931 . S
C391 C389 1.365 . S
C391 C392 1.409 . S
C391 H409 0.929 . S
C392 C391 1.409 . S
C392 C393 1.380 . S
C392 H410 0.930 . S
C393 C392 1.380 . S
C393 C400 1.357 . S
C394 C385 1.511 . S
C394 C395 1.341 . S
C394 C396 1.371 . S
C395 C394 1.341 . S
C395 C399 1.394 . S
C395 H411 0.930 . S
C396 C394 1.371 . S
C396 C397 1.392 . S
C396 H412 0.931 . S
C397 C396 1.392 . S
C397 C398 1.331 . S
C397 H415 0.932 . S
C398 C397 1.331 . S
C398 C399 1.336 . S
C399 C395 1.394 . S
C399 C398 1.336 . S
C399 H414 0.929 . S
C400 C390 1.386 . S
C400 C393 1.357 . S
C400 H413 0.928 . S
H401 C377 0.931 . S
H402 C379 0.930 . S
H403 C381 0.929 . S
H404 C382 0.931 . S
H405 C384 0.930 . S
H406 C388 0.931 . S
H407 C386 0.931 . S
H408 C390 0.931 . S
H409 C391 0.929 . S
H410 C392 0.930 . S
H411 C395 0.930 . S
H412 C396 0.931 . S
H413 C400 0.928 . S
H414 C399 0.929 . S
H415 C397 0.932 . S
C416 C417 1.369 1_556 S
C416 C418 1.419 . S
C416 H420 0.930 . S
C417 C416 1.369 1_554 S
C417 C426 1.429 . S
C418 C416 1.419 . S
C418 C419 1.363 1_556 S
C418 H421 0.929 . S
C419 C418 1.363 1_554 S
C419 C425 1.428 . S
H420 C416 0.930 . S
H421 C418 0.929 . S
S422 N423 1.613 . S
S422 N424 1.610 . S
N423 S422 1.613 . S
N423 C426 1.350 . S
N424 S422 1.610 . S
N424 C425 1.351 . S
C425 C419 1.428 . S
C425 N424 1.351 . S
C425 C426 1.434 . S
C426 C417 1.429 . S
C426 N423 1.350 . S
C426 C425 1.434 . S
C427 C428 1.369 1_556 S
C427 C429 1.419 . S
C427 H431 0.930 . S
C428 C427 1.369 1_554 S
C428 C437 1.429 . S
C429 C427 1.419 . S
C429 C430 1.363 1_556 S
C429 H432 0.929 . S
C430 C429 1.363 1_554 S
C430 C436 1.428 . S
H431 C427 0.930 . S
H432 C429 0.929 . S
S433 N434 1.613 . S
S433 N435 1.610 . S
N434 S433 1.613 . S
N434 C437 1.350 . S
N435 S433 1.610 . S
N435 C436 1.351 . S
C436 C430 1.428 . S
C436 N435 1.351 . S
C436 C437 1.434 . S
C437 C428 1.429 . S
C437 N434 1.350 . S
C437 C436 1.434 . S
C438 C439 1.369 . S
C438 C440 1.419 . S
C438 H442 0.930 . S
C439 C438 1.369 . S
C439 C448 1.429 . S
C440 C438 1.419 . S
C440 C441 1.363 . S
C440 H443 0.929 . S
C441 C440 1.363 . S
C441 C447 1.428 . S
H442 C438 0.930 . S
H443 C440 0.929 . S
S444 N445 1.613 . S
S444 N446 1.610 . S
N445 S444 1.613 . S
N445 C448 1.350 1_556 S
N446 S444 1.610 . S
N446 C447 1.351 1_556 S
C447 C441 1.428 . S
C447 N446 1.351 1_554 S
C447 C448 1.434 . S
C448 C439 1.429 . S
C448 N445 1.350 1_554 S
C448 C447 1.434 . S
C449 C450 1.369 1_556 S
C449 C451 1.419 . S
C449 H453 0.930 . S
C450 C449 1.369 1_554 S
C450 C459 1.429 . S
C451 C449 1.419 . S
C451 C452 1.363 1_556 S
C451 H454 0.929 . S
C452 C451 1.363 1_554 S
C452 C458 1.428 . S
H453 C449 0.930 . S
H454 C451 0.929 . S
S455 N456 1.613 . S
S455 N457 1.610 . S
N456 S455 1.613 . S
N456 C459 1.350 . S
N457 S455 1.610 . S
N457 C458 1.351 . S
C458 C452 1.428 . S
C458 N457 1.351 . S
C458 C459 1.434 . S
C459 C450 1.429 . S
C459 N456 1.350 . S
C459 C458 1.434 . S
C460 C461 1.369 . S
C460 C462 1.419 . S
C460 H464 0.930 . S
C461 C460 1.369 . S
C461 C470 1.429 . S
C462 C460 1.419 . S
C462 C463 1.363 . S
C462 H465 0.929 . S
C463 C462 1.363 . S
C463 C469 1.428 . S
H464 C460 0.930 . S
H465 C462 0.929 . S
S466 N467 1.613 . S
S466 N468 1.610 . S
N467 S466 1.613 . S
N467 C470 1.350 . S
N468 S466 1.610 . S
N468 C469 1.351 . S
C469 C463 1.428 . S
C469 N468 1.351 . S
C469 C470 1.434 . S
C470 C461 1.429 . S
C470 N467 1.350 . S
C470 C469 1.434 . S
C471 C472 1.369 . S
C471 C473 1.419 . S
C471 H475 0.930 . S
C472 C471 1.369 . S
C472 C481 1.429 . S
C473 C471 1.419 . S
C473 C474 1.363 . S
C473 H476 0.929 . S
C474 C473 1.363 . S
C474 C480 1.428 . S
H475 C471 0.930 . S
H476 C473 0.929 . S
S477 N478 1.613 . S
S477 N479 1.610 . S
N478 S477 1.613 . S
N478 C481 1.350 . S
N479 S477 1.610 . S
N479 C480 1.351 . S
C480 C474 1.428 . S
C480 N479 1.351 . S
C480 C481 1.434 . S
C481 C472 1.429 . S
C481 N478 1.350 . S
C481 C480 1.434 . S
C482 C483 1.369 . S
C482 C484 1.419 . S
C482 H486 0.930 . S
C483 C482 1.369 . S
C483 C492 1.429 . S
C484 C482 1.419 . S
C484 C485 1.363 . S
C484 H487 0.929 . S
C485 C484 1.363 . S
C485 C491 1.428 . S
H486 C482 0.930 . S
H487 C484 0.929 . S
S488 N489 1.613 . S
S488 N490 1.610 . S
N489 S488 1.613 . S
N489 C492 1.350 . S
N490 S488 1.610 . S
N490 C491 1.351 . S
C491 C485 1.428 . S
C491 N490 1.351 . S
C491 C492 1.434 . S
C492 C483 1.429 . S
C492 N489 1.350 . S
C492 C491 1.434 . S
C493 C494 1.369 . S
C493 C495 1.419 . S
C493 H497 0.930 . S
C494 C493 1.369 . S
C494 C503 1.429 . S
C495 C493 1.419 . S
C495 C496 1.363 . S
C495 H498 0.929 . S
C496 C495 1.363 . S
C496 C502 1.428 . S
H497 C493 0.930 . S
H498 C495 0.929 . S
S499 N500 1.613 . S
S499 N501 1.610 . S
N500 S499 1.613 . S
N500 C503 1.350 . S
N501 S499 1.610 . S
N501 C502 1.351 . S
C502 C496 1.428 . S
C502 N501 1.351 . S
C502 C503 1.434 . S
C503 C494 1.429 . S
C503 N500 1.350 . S
C503 C502 1.434 . S
C504 C505 1.369 . S
C504 C506 1.419 . S
C504 H508 0.930 1_455 S
C505 C504 1.369 . S
C505 C514 1.429 . S
C506 C504 1.419 . S
C506 C507 1.363 . S
C506 H509 0.929 1_455 S
C507 C506 1.363 . S
C507 C513 1.428 . S
H508 C504 0.930 1_655 S
H509 C506 0.929 1_655 S
S510 N511 1.613 . S
S510 N512 1.610 . S
N511 S510 1.613 . S
N511 C514 1.350 . S
N512 S510 1.610 . S
N512 C513 1.351 . S
C513 C507 1.428 . S
C513 N512 1.351 . S
C513 C514 1.434 . S
C514 C505 1.429 . S
C514 N511 1.350 . S
C514 C513 1.434 . S
C515 C516 1.369 . S
C515 C517 1.419 . S
C515 H519 0.930 1_545 S
C516 C515 1.369 . S
C516 C525 1.429 . S
C517 C515 1.419 . S
C517 C518 1.363 . S
C517 H520 0.929 1_545 S
C518 C517 1.363 . S
C518 C524 1.428 . S
H519 C515 0.930 1_565 S
H520 C517 0.929 1_565 S
S521 N522 1.613 . S
S521 N523 1.610 . S
N522 S521 1.613 . S
N522 C525 1.350 . S
N523 S521 1.610 . S
N523 C524 1.351 . S
C524 C518 1.428 . S
C524 N523 1.351 . S
C524 C525 1.434 . S
C525 C516 1.429 . S
C525 N522 1.350 . S
C525 C524 1.434 . S
C526 C527 1.369 . S
C526 C528 1.419 . S
C526 H530 0.930 . S
C527 C526 1.369 . S
C527 C536 1.429 . S
C528 C526 1.419 . S
C528 C529 1.363 . S
C528 H531 0.929 . S
C529 C528 1.363 . S
C529 C535 1.428 . S
H530 C526 0.930 . S
H531 C528 0.929 . S
S532 N533 1.613 . S
S532 N534 1.610 . S
N533 S532 1.613 . S
N533 C536 1.350 . S
N534 S532 1.610 . S
N534 C535 1.351 . S
C535 C529 1.428 . S
C535 N534 1.351 . S
C535 C536 1.434 . S
C536 C527 1.429 . S
C536 N533 1.350 . S
C536 C535 1.434 . S
C537 C538 1.369 . S
C537 C539 1.419 . S
C537 H541 0.930 . S
C538 C537 1.369 . S
C538 C547 1.429 . S
C539 C537 1.419 . S
C539 C540 1.363 . S
C539 H542 0.929 . S
C540 C539 1.363 . S
C540 C546 1.428 . S
H541 C537 0.930 . S
H542 C539 0.929 . S
S543 N544 1.613 . S
S543 N545 1.610 1_545 S
N544 S543 1.613 . S
N544 C547 1.350 1_545 S
N545 S543 1.610 1_565 S
N545 C546 1.351 . S
C546 C540 1.428 . S
C546 N545 1.351 . S
C546 C547 1.434 . S
C547 C538 1.429 . S
C547 N544 1.350 1_565 S
C547 C546 1.434 . S
C548 C549 1.369 . S
C548 C550 1.419 . S
C548 H552 0.930 . S
C549 C548 1.369 . S
C549 C558 1.429 . S
C550 C548 1.419 . S
C550 C551 1.363 . S
C550 H553 0.929 . S
C551 C550 1.363 . S
C551 C557 1.428 . S
H552 C548 0.930 . S
H553 C550 0.929 . S
S554 N555 1.613 . S
S554 N556 1.610 . S
N555 S554 1.613 . S
N555 C558 1.350 . S
N556 S554 1.610 . S
N556 C557 1.351 . S
C557 C551 1.428 . S
C557 N556 1.351 . S
C557 C558 1.434 . S
C558 C549 1.429 . S
C558 N555 1.350 . S
C558 C557 1.434 . S
C559 C560 1.369 . S
C559 C561 1.419 . S
C559 H563 0.930 1_455 S
C560 C559 1.369 . S
C560 C569 1.429 . S
C561 C559 1.419 . S
C561 C562 1.363 . S
C561 H564 0.929 1_455 S
C562 C561 1.363 . S
C562 C568 1.428 . S
H563 C559 0.930 1_655 S
H564 C561 0.929 1_655 S
S565 N566 1.613 . S
S565 N567 1.610 . S
N566 S565 1.613 . S
N566 C569 1.350 . S
N567 S565 1.610 . S
N567 C568 1.351 . S
C568 C562 1.428 . S
C568 N567 1.351 . S
C568 C569 1.434 . S
C569 C560 1.429 . S
C569 N566 1.350 . S
C569 C568 1.434 . S
C570 C571 1.369 . S
C570 C572 1.419 . S
C570 H574 0.930 . S
C571 C570 1.369 . S
C571 C580 1.429 . S
C572 C570 1.419 . S
C572 C573 1.363 . S
C572 H575 0.929 . S
C573 C572 1.363 . S
C573 C579 1.428 . S
H574 C570 0.930 . S
H575 C572 0.929 . S
S576 N577 1.613 . S
S576 N578 1.610 . S
N577 S576 1.613 . S
N577 C580 1.350 . S
N578 S576 1.610 . S
N578 C579 1.351 . S
C579 C573 1.428 . S
C579 N578 1.351 . S
C579 C580 1.434 . S
C580 C571 1.429 . S
C580 N577 1.350 . S
C580 C579 1.434 . S
C581 C582 1.369 . S
C581 C583 1.419 . S
C581 H585 0.930 . S
C582 C581 1.369 . S
C582 C591 1.429 . S
C583 C581 1.419 . S
C583 C584 1.363 . S
C583 H586 0.929 . S
C584 C583 1.363 . S
C584 C590 1.428 . S
H585 C581 0.930 . S
H586 C583 0.929 . S
S587 N588 1.615 . S
S587 N589 1.610 1_455 S
N588 S587 1.615 . S
N588 C591 1.347 1_455 S
N589 S587 1.610 1_655 S
N589 C590 1.351 . S
C590 C584 1.428 . S
C590 N589 1.351 . S
C590 C591 1.434 . S
C591 C582 1.429 . S
C591 N588 1.347 1_655 S
C591 C590 1.434 . S
C592 C593 1.369 . S
C592 C594 1.419 . S
C592 H596 0.930 . S
C593 C592 1.369 . S
C593 C602 1.429 . S
C594 C592 1.419 . S
C594 C595 1.363 . S
C594 H597 0.929 . S
C595 C594 1.363 . S
C595 C601 1.428 . S
H596 C592 0.930 . S
H597 C594 0.929 . S
S598 N599 1.613 . S
S598 N600 1.610 . S
N599 S598 1.613 . S
N599 C602 1.350 . S
N600 S598 1.610 . S
N600 C601 1.351 . S
C601 C595 1.428 . S
C601 N600 1.351 . S
C601 C602 1.434 . S
C602 C593 1.429 . S
C602 N599 1.350 . S
C602 C601 1.434 . S
C603 C604 1.369 . S
C603 C605 1.419 . S
C603 H607 0.930 . S
C604 C603 1.369 . S
C604 C613 1.429 . S
C605 C603 1.419 . S
C605 C606 1.363 . S
C605 H608 0.929 . S
C606 C605 1.363 . S
C606 C612 1.428 . S
H607 C603 0.930 . S
H608 C605 0.929 . S
S609 N610 1.613 . S
S609 N611 1.610 . S
N610 S609 1.613 . S
N610 C613 1.350 . S
N611 S609 1.610 . S
N611 C612 1.351 . S
C612 C606 1.428 . S
C612 N611 1.351 . S
C612 C613 1.434 . S
C613 C604 1.429 . S
C613 N610 1.350 . S
C613 C612 1.434 . S
C614 C615 1.369 . S
C614 C616 1.419 . S
C614 H618 0.930 . S
C615 C614 1.369 . S
C615 C624 1.429 . S
C616 C614 1.419 . S
C616 C617 1.363 . S
C616 H619 0.929 . S
C617 C616 1.363 . S
C617 C623 1.428 . S
H618 C614 0.930 . S
H619 C616 0.929 . S
S620 N621 1.613 . S
S620 N622 1.610 . S
N621 S620 1.613 . S
N621 C624 1.350 . S
N622 S620 1.610 . S
N622 C623 1.351 . S
C623 C617 1.428 . S
C623 N622 1.351 . S
C623 C624 1.434 . S
C624 C615 1.429 . S
C624 N621 1.350 . S
C624 C623 1.434 . S
C625 C626 1.369 . S
C625 C627 1.419 . S
C625 H629 0.930 . S
C626 C625 1.369 . S
C626 C635 1.429 . S
C627 C625 1.419 . S
C627 C628 1.363 . S
C627 H630 0.929 . S
C628 C627 1.363 . S
C628 C634 1.428 . S
H629 C625 0.930 . S
H630 C627 0.929 . S
S631 N632 1.613 . S
S631 N633 1.610 . S
N632 S631 1.613 . S
N632 C635 1.350 . S
N633 S631 1.610 . S
N633 C634 1.351 . S
C634 C628 1.428 . S
C634 N633 1.351 . S
C634 C635 1.434 . S
C635 C626 1.429 . S
C635 N632 1.350 . S
C635 C634 1.434 . S
C636 C637 1.369 . S
C636 C638 1.419 . S
C636 H640 0.930 . S
C637 C636 1.369 . S
C637 C646 1.429 . S
C638 C636 1.419 . S
C638 C639 1.363 . S
C638 H641 0.929 . S
C639 C638 1.363 . S
C639 C645 1.428 . S
H640 C636 0.930 . S
H641 C638 0.929 . S
S642 N643 1.613 . S
S642 N644 1.610 . S
N643 S642 1.613 . S
N643 C646 1.350 . S
N644 S642 1.610 . S
N644 C645 1.351 . S
C645 C639 1.428 . S
C645 N644 1.351 . S
C645 C646 1.434 . S
C646 C637 1.429 . S
C646 N643 1.350 . S
C646 C645 1.434 . S
C647 C648 1.369 . S
C647 C649 1.419 . S
C647 H651 0.930 . S
C648 C647 1.369 . S
C648 C657 1.429 . S
C649 C647 1.419 . S
C649 C650 1.363 . S
C649 H652 0.929 . S
C650 C649 1.363 . S
C650 C656 1.428 . S
H651 C647 0.930 . S
H652 C649 0.929 . S
S653 N654 1.613 . S
S653 N655 1.610 . S
N654 S653 1.613 . S
N654 C657 1.350 . S
N655 S653 1.610 . S
N655 C656 1.351 . S
C656 C650 1.428 . S
C656 N655 1.351 . S
C656 C657 1.434 . S
C657 C648 1.429 . S
C657 N654 1.350 . S
C657 C656 1.434 . S
C658 C659 1.369 . S
C658 C660 1.419 . S
C658 H662 0.930 . S
C659 C658 1.369 . S
C659 C668 1.429 . S
C660 C658 1.419 . S
C660 C661 1.363 . S
C660 H663 0.929 . S
C661 C660 1.363 . S
C661 C667 1.428 . S
H662 C658 0.930 . S
H663 C660 0.929 . S
S664 N665 1.613 . S
S664 N666 1.610 . S
N665 S664 1.613 . S
N665 C668 1.350 . S
N666 S664 1.610 . S
N666 C667 1.351 . S
C667 C661 1.428 . S
C667 N666 1.351 . S
C667 C668 1.434 . S
C668 C659 1.429 . S
C668 N665 1.350 . S
C668 C667 1.434 . S
C669 C670 1.369 . S
C669 C671 1.419 . S
C669 H673 0.930 . S
C670 C669 1.369 . S
C670 C679 1.429 . S
C671 C669 1.419 . S
C671 C672 1.363 . S
C671 H674 0.929 . S
C672 C671 1.363 . S
C672 C678 1.428 . S
H673 C669 0.930 . S
H674 C671 0.929 . S
S675 N676 1.613 . S
S675 N677 1.610 . S
N676 S675 1.613 . S
N676 C679 1.350 . S
N677 S675 1.610 . S
N677 C678 1.351 . S
C678 C672 1.428 . S
C678 N677 1.351 . S
C678 C679 1.434 . S
C679 C670 1.429 . S
C679 N676 1.350 . S
C679 C678 1.434 . S
C417 C45 1.640 . S
C419 C125 1.641 . S
C428 C30 1.638 . S
C430 C164 1.643 . S
C439 C39 1.639 . S
C441 C203 1.658 . S
C452 C242 1.662 . S
C450 C34 1.633 . S
C461 C97 1.632 . S
C463 C281 1.647 . S
C474 C320 1.644 . S
C472 C82 1.636 . S
C485 C359 1.662 . S
C483 C91 1.633 . S
C496 C398 1.658 . S
C494 C86 1.639 . S
C507 C354 1.571 . S
C505 C26 1.516 . S
C518 C393 1.572 . S
C516 C36 1.514 . S
C529 C261 1.573 . S
C527 C32 1.516 . S
C540 C300 1.576 . S
C538 C42 1.511 . S
C549 C18 1.573 . S
C551 C315 1.672 . S
C562 C339 1.675 . S
C560 C50 1.578 . S
C571 C4 1.586 . S
C573 C378 1.672 . S
C582 C48 1.582 . S
C584 C276 1.669 . S
C595 C198 1.575 . S
C593 C78 1.508 . S
C604 C88 1.514 . S
C606 C237 1.572 . S
C617 C105 1.578 . S
C615 C84 1.506 . S
C628 C144 1.578 . S
C626 C94 1.508 . S
C639 C159 1.673 . S
C637 C70 1.572 . S
C650 C183 1.672 . S
C648 C102 1.585 . S
C659 C56 1.582 . S
C661 C222 1.674 . S
C670 C100 1.572 . S
C672 C120 1.673 . S
