# Generated by pormake.
# Topology eea, (3,6)-cn, num edge types: 1
# Building blocks:
#     Node 0, Type 0, BuildingBlock: CUQRIR_clean_linker_1, # of connection points: 3
#     Node 1, Type 0, BuildingBlock: CUQRIR_clean_linker_1, # of connection points: 3
#     Node 2, Type 0, BuildingBlock: CUQRIR_clean_linker_1, # of connection points: 3
#     Node 3, Type 0, BuildingBlock: CUQRIR_clean_linker_1, # of connection points: 3
#     Node 4, Type 0, BuildingBlock: CUQRIR_clean_linker_1, # of connection points: 3
#     Node 5, Type 0, BuildingBlock: CUQRIR_clean_linker_1, # of connection points: 3
#     Node 6, Type 0, BuildingBlock: CUQRIR_clean_linker_1, # of connection points: 3
#     Node 7, Type 0, BuildingBlock: CUQRIR_clean_linker_1, # of connection points: 3
#     Node 8, Type 0, BuildingBlock: CUQRIR_clean_linker_1, # of connection points: 3
#     Node 9, Type 0, BuildingBlock: CUQRIR_clean_linker_1, # of connection points: 3
#     Node 10, Type 0, BuildingBlock: CUQRIR_clean_linker_1, # of connection points: 3
#     Node 11, Type 0, BuildingBlock: CUQRIR_clean_linker_1, # of connection points: 3
#     Node 12, Type 0, BuildingBlock: CUQRIR_clean_linker_1, # of connection points: 3
#     Node 13, Type 0, BuildingBlock: CUQRIR_clean_linker_1, # of connection points: 3
#     Node 14, Type 0, BuildingBlock: CUQRIR_clean_linker_1, # of connection points: 3
#     Node 15, Type 0, BuildingBlock: CUQRIR_clean_linker_1, # of connection points: 3
#     Node 16, Type 0, BuildingBlock: CUQRIR_clean_linker_1, # of connection points: 3
#     Node 17, Type 0, BuildingBlock: CUQRIR_clean_linker_1, # of connection points: 3
#     Node 18, Type 1, BuildingBlock: NUHQIS_clean_sbu_0, # of connection points: 6
#     Node 19, Type 1, BuildingBlock: NUHQIS_clean_sbu_0, # of connection points: 6
#     Node 20, Type 1, BuildingBlock: NUHQIS_clean_sbu_0, # of connection points: 6
#     Node 21, Type 1, BuildingBlock: NUHQIS_clean_sbu_0, # of connection points: 6
#     Node 22, Type 1, BuildingBlock: NUHQIS_clean_sbu_0, # of connection points: 6
#     Node 23, Type 1, BuildingBlock: NUHQIS_clean_sbu_0, # of connection points: 6
#     Node 24, Type 1, BuildingBlock: NUHQIS_clean_sbu_0, # of connection points: 6
#     Node 25, Type 1, BuildingBlock: NUHQIS_clean_sbu_0, # of connection points: 6
#     Node 26, Type 1, BuildingBlock: NUHQIS_clean_sbu_0, # of connection points: 6
#     Edge 27, Type (0, 1), BuildingBlock: MIFKUJ_clean_linker_0, # of connection points: 2
#     Edge 28, Type (0, 1), BuildingBlock: MIFKUJ_clean_linker_0, # of connection points: 2
#     Edge 29, Type (0, 1), BuildingBlock: MIFKUJ_clean_linker_0, # of connection points: 2
#     Edge 30, Type (0, 1), BuildingBlock: MIFKUJ_clean_linker_0, # of connection points: 2
#     Edge 31, Type (0, 1), BuildingBlock: MIFKUJ_clean_linker_0, # of connection points: 2
#     Edge 32, Type (0, 1), BuildingBlock: MIFKUJ_clean_linker_0, # of connection points: 2
#     Edge 33, Type (0, 1), BuildingBlock: MIFKUJ_clean_linker_0, # of connection points: 2
#     Edge 34, Type (0, 1), BuildingBlock: MIFKUJ_clean_linker_0, # of connection points: 2
#     Edge 35, Type (0, 1), BuildingBlock: MIFKUJ_clean_linker_0, # of connection points: 2
#     Edge 36, Type (0, 1), BuildingBlock: MIFKUJ_clean_linker_0, # of connection points: 2
#     Edge 37, Type (0, 1), BuildingBlock: MIFKUJ_clean_linker_0, # of connection points: 2
#     Edge 38, Type (0, 1), BuildingBlock: MIFKUJ_clean_linker_0, # of connection points: 2
#     Edge 39, Type (0, 1), BuildingBlock: MIFKUJ_clean_linker_0, # of connection points: 2
#     Edge 40, Type (0, 1), BuildingBlock: MIFKUJ_clean_linker_0, # of connection points: 2
#     Edge 41, Type (0, 1), BuildingBlock: MIFKUJ_clean_linker_0, # of connection points: 2
#     Edge 42, Type (0, 1), BuildingBlock: MIFKUJ_clean_linker_0, # of connection points: 2
#     Edge 43, Type (0, 1), BuildingBlock: MIFKUJ_clean_linker_0, # of connection points: 2
#     Edge 44, Type (0, 1), BuildingBlock: MIFKUJ_clean_linker_0, # of connection points: 2
#     Edge 45, Type (0, 1), BuildingBlock: MIFKUJ_clean_linker_0, # of connection points: 2
#     Edge 46, Type (0, 1), BuildingBlock: MIFKUJ_clean_linker_0, # of connection points: 2
#     Edge 47, Type (0, 1), BuildingBlock: MIFKUJ_clean_linker_0, # of connection points: 2
#     Edge 48, Type (0, 1), BuildingBlock: MIFKUJ_clean_linker_0, # of connection points: 2
#     Edge 49, Type (0, 1), BuildingBlock: MIFKUJ_clean_linker_0, # of connection points: 2
#     Edge 50, Type (0, 1), BuildingBlock: MIFKUJ_clean_linker_0, # of connection points: 2
#     Edge 51, Type (0, 1), BuildingBlock: MIFKUJ_clean_linker_0, # of connection points: 2
#     Edge 52, Type (0, 1), BuildingBlock: MIFKUJ_clean_linker_0, # of connection points: 2
#     Edge 53, Type (0, 1), BuildingBlock: MIFKUJ_clean_linker_0, # of connection points: 2
#     Edge 54, Type (0, 1), BuildingBlock: MIFKUJ_clean_linker_0, # of connection points: 2
#     Edge 55, Type (0, 1), BuildingBlock: MIFKUJ_clean_linker_0, # of connection points: 2
#     Edge 56, Type (0, 1), BuildingBlock: MIFKUJ_clean_linker_0, # of connection points: 2
#     Edge 57, Type (0, 1), BuildingBlock: MIFKUJ_clean_linker_0, # of connection points: 2
#     Edge 58, Type (0, 1), BuildingBlock: MIFKUJ_clean_linker_0, # of connection points: 2
#     Edge 59, Type (0, 1), BuildingBlock: MIFKUJ_clean_linker_0, # of connection points: 2
#     Edge 60, Type (0, 1), BuildingBlock: MIFKUJ_clean_linker_0, # of connection points: 2
#     Edge 61, Type (0, 1), BuildingBlock: MIFKUJ_clean_linker_0, # of connection points: 2
#     Edge 62, Type (0, 1), BuildingBlock: MIFKUJ_clean_linker_0, # of connection points: 2
#     Edge 63, Type (0, 1), BuildingBlock: MIFKUJ_clean_linker_0, # of connection points: 2
#     Edge 64, Type (0, 1), BuildingBlock: MIFKUJ_clean_linker_0, # of connection points: 2
#     Edge 65, Type (0, 1), BuildingBlock: MIFKUJ_clean_linker_0, # of connection points: 2
#     Edge 66, Type (0, 1), BuildingBlock: MIFKUJ_clean_linker_0, # of connection points: 2
#     Edge 67, Type (0, 1), BuildingBlock: MIFKUJ_clean_linker_0, # of connection points: 2
#     Edge 68, Type (0, 1), BuildingBlock: MIFKUJ_clean_linker_0, # of connection points: 2
#     Edge 69, Type (0, 1), BuildingBlock: MIFKUJ_clean_linker_0, # of connection points: 2
#     Edge 70, Type (0, 1), BuildingBlock: MIFKUJ_clean_linker_0, # of connection points: 2
#     Edge 71, Type (0, 1), BuildingBlock: MIFKUJ_clean_linker_0, # of connection points: 2
#     Edge 72, Type (0, 1), BuildingBlock: MIFKUJ_clean_linker_0, # of connection points: 2
#     Edge 73, Type (0, 1), BuildingBlock: MIFKUJ_clean_linker_0, # of connection points: 2
#     Edge 74, Type (0, 1), BuildingBlock: MIFKUJ_clean_linker_0, # of connection points: 2
#     Edge 75, Type (0, 1), BuildingBlock: MIFKUJ_clean_linker_0, # of connection points: 2
#     Edge 76, Type (0, 1), BuildingBlock: MIFKUJ_clean_linker_0, # of connection points: 2
#     Edge 77, Type (0, 1), BuildingBlock: MIFKUJ_clean_linker_0, # of connection points: 2
#     Edge 78, Type (0, 1), BuildingBlock: MIFKUJ_clean_linker_0, # of connection points: 2
#     Edge 79, Type (0, 1), BuildingBlock: MIFKUJ_clean_linker_0, # of connection points: 2
#     Edge 80, Type (0, 1), BuildingBlock: MIFKUJ_clean_linker_0, # of connection points: 2
# Relax obj value: 0.103
# Max RMSD: 0.235
# Mean RMSD: 0.172
data_MOF--net-eea--node1-NUHQIS_clean_sbu_0--node2-CUQRIR_clean_linker_1--edge1-MIFKUJ_clean_linker_0
_symmetry_space_group_name_H-M    P1
_symmetry_Int_Tables_number       1
_symmetry_cell_setting            triclinic
loop_
_symmetry_equiv_pos_as_xyz
'x, y, z'
_cell_length_a     65.535173
_cell_length_b     67.745955
_cell_length_c     83.031689
_cell_angle_alpha  87.153272
_cell_angle_beta   93.51176
_cell_angle_gamma 119.09027
loop_
_atom_site_label
_atom_site_type_symbol
_atom_site_fract_x
_atom_site_fract_y
_atom_site_fract_z
_atom_type_partial_charge
C0 C 0.2056 0.10246 0.40941 0.0
N1 N 0.21118 0.11921 0.41995 0.0
N2 N 0.20658 0.08473 0.41698 0.0
C3 C 0.2001 0.10382 0.39164 0.0
C4 C 0.21275 0.09118 0.4325 0.0
N5 N 0.21531 0.11205 0.43434 0.0
C6 C 0.218 0.07772 0.44546 0.0
H7 H 0.1908 0.11375 0.38942 0.0
H8 H 0.18936 0.08691 0.38643 0.0
H9 H 0.21671 0.11239 0.38524 0.0
H10 H 0.2368 0.08267 0.44535 0.0
H11 H 0.20762 0.05935 0.44319 0.0
H12 H 0.21441 0.08087 0.45764 0.0
C13 C 0.90522 0.12065 0.41335 0.0
N14 N 0.91667 0.13698 0.42447 0.0
N15 N 0.88562 0.1032 0.41942 0.0
C16 C 0.91305 0.12179 0.39651 0.0
C17 C 0.88572 0.10948 0.4347 0.0
N18 N 0.90457 0.12989 0.43781 0.0
C19 C 0.86723 0.09572 0.44659 0.0
H20 H 0.92326 0.13949 0.39208 0.0
H21 H 0.89783 0.11245 0.38807 0.0
H22 H 0.92441 0.11386 0.39661 0.0
H23 H 0.85854 0.07746 0.44391 0.0
H24 H 0.85388 0.10137 0.44584 0.0
H25 H 0.87474 0.09813 0.45912 0.0
C26 C 0.88 0.76526 0.40852 0.0
N27 N 0.89233 0.75899 0.41925 0.0
N28 N 0.86288 0.76656 0.41591 0.0
C29 C 0.88541 0.77113 0.391 0.0
C30 C 0.86534 0.76115 0.43153 0.0
N31 N 0.88349 0.75688 0.43361 0.0
C32 C 0.85038 0.76055 0.4448 0.0
H33 H 0.8751 0.7786 0.38499 0.0
H34 H 0.88129 0.75558 0.38458 0.0
H35 H 0.90433 0.78309 0.3899 0.0
H36 H 0.84741 0.74663 0.4536 0.0
H37 H 0.83329 0.75842 0.44 0.0
H38 H 0.8596 0.77673 0.45127 0.0
C39 C 0.1016 0.21689 0.62087 0.0
N40 N 0.11534 0.22292 0.60802 0.0
N41 N 0.08264 0.21949 0.61728 0.0
C42 C 0.10769 0.21038 0.63733 0.0
C43 C 0.0853 0.22731 0.60181 0.0
N44 N 0.10539 0.22971 0.59622 0.0
C45 C 0.06721 0.23063 0.59178 0.0
H46 H 0.10087 0.19184 0.63794 0.0
H47 H 0.09973 0.21491 0.64692 0.0
H48 H 0.12691 0.21882 0.63965 0.0
H49 H 0.07059 0.24819 0.59306 0.0
H50 H 0.0494 0.21893 0.59591 0.0
H51 H 0.06794 0.22776 0.57883 0.0
C52 C 0.78698 0.9 0.62632 0.0
N53 N 0.78257 0.88518 0.61448 0.0
N54 N 0.78166 0.91626 0.62101 0.0
C55 C 0.79482 0.89765 0.64338 0.0
C56 C 0.77393 0.91083 0.60551 0.0
N57 N 0.77424 0.89184 0.60162 0.0
C58 C 0.76725 0.92468 0.59385 0.0
H59 H 0.78861 0.90541 0.65196 0.0
H60 H 0.8142 0.9064 0.64428 0.0
H61 H 0.78826 0.8796 0.64684 0.0
H62 H 0.77599 0.94266 0.5973 0.0
H63 H 0.74804 0.91782 0.59377 0.0
H64 H 0.77201 0.9237 0.58145 0.0
C65 C 0.10019 0.90796 0.62113 0.0
N66 N 0.09008 0.88993 0.61121 0.0
N67 N 0.12141 0.92363 0.61592 0.0
C68 C 0.08962 0.91015 0.63607 0.0
C69 C 0.12404 0.91443 0.60264 0.0
N70 N 0.10521 0.89391 0.59986 0.0
C71 C 0.14505 0.9254 0.59231 0.0
H72 H 0.07788 0.9173 0.63263 0.0
H73 H 0.10324 0.92165 0.64479 0.0
H74 H 0.0792 0.89339 0.64202 0.0
H75 H 0.15568 0.91681 0.59475 0.0
H76 H 0.15627 0.94358 0.59483 0.0
H77 H 0.13939 0.9234 0.57935 0.0
C78 C 0.87885 0.44422 0.73962 0.0
N79 N 0.88659 0.46111 0.75035 0.0
N80 N 0.8848 0.42839 0.74496 0.0
C81 C 0.86525 0.44298 0.72408 0.0
C82 C 0.8966 0.43634 0.75919 0.0
N83 N 0.89786 0.45628 0.76239 0.0
C84 C 0.90602 0.42413 0.77028 0.0
H85 H 0.84638 0.43466 0.72652 0.0
H86 H 0.86771 0.43292 0.71504 0.0
H87 H 0.87056 0.46016 0.71895 0.0
H88 H 0.90933 0.41231 0.76352 0.0
H89 H 0.89297 0.41428 0.77945 0.0
H90 H 0.92242 0.43624 0.77671 0.0
C91 C 0.56679 0.45271 0.74758 0.0
N92 N 0.57794 0.47045 0.7577 0.0
N93 N 0.54793 0.43543 0.75455 0.0
C94 C 0.57447 0.45176 0.73103 0.0
C95 C 0.54814 0.44323 0.7693 0.0
N96 N 0.56632 0.46436 0.77128 0.0
C97 C 0.53075 0.43007 0.78198 0.0
H98 H 0.55905 0.44226 0.72278 0.0
H99 H 0.58476 0.44268 0.732 0.0
H100 H 0.5856 0.46867 0.72565 0.0
H101 H 0.52321 0.41161 0.78046 0.0
H102 H 0.5164 0.43437 0.78087 0.0
H103 H 0.53902 0.43451 0.79427 0.0
C104 C 0.56097 0.12489 0.75343 0.0
N105 N 0.57455 0.11944 0.76358 0.0
N106 N 0.53946 0.11672 0.75927 0.0
C107 C 0.56873 0.13814 0.73781 0.0
C108 C 0.5403 0.10596 0.77325 0.0
N109 N 0.56154 0.10731 0.77575 0.0
C110 C 0.52053 0.09433 0.78457 0.0
H111 H 0.57949 0.15635 0.74048 0.0
H112 H 0.55378 0.13601 0.7297 0.0
H113 H 0.57967 0.1329 0.73148 0.0
H114 H 0.51328 0.07579 0.78388 0.0
H115 H 0.50621 0.09833 0.78152 0.0
H116 H 0.52713 0.09922 0.79717 0.0
C117 C 0.77421 0.56218 0.95385 0.0
N118 N 0.79102 0.56823 0.94309 0.0
N119 N 0.75767 0.56743 0.94797 0.0
C120 C 0.7749 0.55275 0.97055 0.0
C121 C 0.7651 0.57693 0.93324 0.0
N122 N 0.78546 0.57752 0.93036 0.0
C123 C 0.75222 0.58504 0.92149 0.0
H124 H 0.76632 0.53406 0.97006 0.0
H125 H 0.76552 0.55734 0.97902 0.0
H126 H 0.7932 0.55904 0.9752 0.0
H127 H 0.75817 0.60309 0.9237 0.0
H128 H 0.73309 0.57525 0.92308 0.0
H129 H 0.75592 0.58367 0.90886 0.0
C130 C 0.46036 0.23521 0.95837 0.0
N131 N 0.45284 0.21887 0.94722 0.0
N132 N 0.45509 0.25159 0.95329 0.0
C133 C 0.47094 0.2342 0.97478 0.0
C134 C 0.44405 0.24459 0.93868 0.0
N135 N 0.44239 0.22458 0.93511 0.0
C136 C 0.43655 0.25815 0.92733 0.0
H137 H 0.4671 0.2435 0.98369 0.0
H138 H 0.49018 0.2421 0.97398 0.0
H139 H 0.46422 0.21644 0.9791 0.0
H140 H 0.44747 0.27652 0.92942 0.0
H141 H 0.41808 0.25317 0.92937 0.0
H142 H 0.43776 0.2548 0.91458 0.0
C143 C 0.77032 0.24045 0.95379 0.0
N144 N 0.75859 0.22316 0.94336 0.0
N145 N 0.79112 0.25617 0.94793 0.0
C146 C 0.76252 0.24106 0.97034 0.0
C147 C 0.79166 0.24778 0.93357 0.0
N148 N 0.77212 0.22776 0.93085 0.0
C149 C 0.81094 0.25952 0.92187 0.0
H150 H 0.75173 0.24963 0.96951 0.0
H151 H 0.77777 0.25061 0.97871 0.0
H152 H 0.75184 0.22372 0.97535 0.0
H153 H 0.82426 0.25406 0.92458 0.0
H154 H 0.81946 0.27813 0.92297 0.0
H155 H 0.80426 0.25507 0.90924 0.0
C156 C 0.54612 0.77685 0.07179 0.0
N157 N 0.55509 0.7943 0.08213 0.0
N158 N 0.55133 0.76059 0.07731 0.0
C159 C 0.53198 0.77549 0.05649 0.0
C160 C 0.56399 0.76885 0.09122 0.0
N161 N 0.56644 0.78939 0.09407 0.0
C162 C 0.57292 0.75633 0.10242 0.0
H163 H 0.51329 0.76776 0.05933 0.0
H164 H 0.53358 0.76482 0.0475 0.0
H165 H 0.53757 0.79257 0.05108 0.0
H166 H 0.59019 0.7681 0.10803 0.0
H167 H 0.57445 0.74317 0.09598 0.0
H168 H 0.56052 0.74806 0.11223 0.0
C169 C 0.23671 0.78619 0.0812 0.0
N170 N 0.24794 0.80354 0.0916 0.0
N171 N 0.21808 0.76855 0.08807 0.0
C172 C 0.2451 0.78571 0.06482 0.0
C173 C 0.2185 0.77576 0.1031 0.0
N174 N 0.23674 0.79684 0.10533 0.0
C175 C 0.20013 0.76288 0.11525 0.0
H176 H 0.23768 0.79332 0.05574 0.0
H177 H 0.23944 0.76814 0.06133 0.0
H178 H 0.26444 0.79565 0.06468 0.0
H179 H 0.20582 0.7527 0.12326 0.0
H180 H 0.18311 0.75133 0.1092 0.0
H181 H 0.19774 0.77454 0.12286 0.0
C182 C 0.24531 0.47869 0.0912 0.0
N183 N 0.25706 0.47232 0.10235 0.0
N184 N 0.226 0.47714 0.09744 0.0
C185 C 0.2531 0.48721 0.07438 0.0
C186 C 0.22642 0.46969 0.11281 0.0
N187 N 0.24552 0.46705 0.11588 0.0
C188 C 0.20671 0.4623 0.12411 0.0
H189 H 0.24663 0.49897 0.06991 0.0
H190 H 0.24589 0.47268 0.06618 0.0
H191 H 0.27245 0.49596 0.07406 0.0
H192 H 0.18989 0.45766 0.1174 0.0
H193 H 0.21067 0.47645 0.13215 0.0
H194 H 0.20471 0.4476 0.13173 0.0
C195 C 0.41904 0.86085 0.27902 0.0
N196 N 0.43577 0.86969 0.26796 0.0
N197 N 0.40114 0.86481 0.27443 0.0
C198 C 0.42152 0.8509 0.29517 0.0
C199 C 0.40771 0.87655 0.26029 0.0
N200 N 0.42885 0.87972 0.25646 0.0
C201 C 0.39311 0.88422 0.24991 0.0
H202 H 0.41398 0.83238 0.29407 0.0
H203 H 0.41207 0.85405 0.30448 0.0
H204 H 0.44014 0.85804 0.29927 0.0
H205 H 0.39813 0.90183 0.2529 0.0
H206 H 0.37424 0.87331 0.25203 0.0
H207 H 0.39619 0.88395 0.23694 0.0
C208 C 0.11375 0.55878 0.29669 0.0
N209 N 0.10768 0.54298 0.28527 0.0
N210 N 0.10619 0.57366 0.29207 0.0
C211 C 0.12734 0.55991 0.31222 0.0
C212 C 0.09513 0.56628 0.27754 0.0
N213 N 0.09577 0.54749 0.2735 0.0
C214 C 0.08512 0.5783 0.26679 0.0
H215 H 0.12369 0.56866 0.32163 0.0
H216 H 0.14629 0.56953 0.30999 0.0
H217 H 0.1231 0.5427 0.31674 0.0
H218 H 0.0966 0.58632 0.25648 0.0
H219 H 0.08373 0.59146 0.27331 0.0
H220 H 0.06754 0.56612 0.26185 0.0
C221 C 0.43751 0.5752 0.28424 0.0
N222 N 0.42628 0.55765 0.27406 0.0
N223 N 0.45729 0.59185 0.27775 0.0
C224 C 0.42961 0.57565 0.30078 0.0
C225 C 0.45751 0.58374 0.26317 0.0
N226 N 0.43872 0.56301 0.26093 0.0
C227 C 0.47622 0.59609 0.25116 0.0
H228 H 0.41755 0.58285 0.29976 0.0
H229 H 0.44469 0.58631 0.30895 0.0
H230 H 0.42002 0.55833 0.30608 0.0
H231 H 0.49055 0.59202 0.25395 0.0
H232 H 0.48351 0.61463 0.25197 0.0
H233 H 0.46954 0.59093 0.23863 0.0
Tb234 Tb 0.50044 0.99744 1.00154 0.0
Eu235 Eu 0.51366 0.02332 0.03602 0.0
C236 C 0.51916 0.97969 0.03113 0.0
C237 C 0.46434 0.97836 0.02956 0.0
C238 C 0.50539 0.99121 0.95869 0.0
C239 C 0.5035 0.9934 0.9294 0.0
C240 C 0.49334 0.98283 0.94394 0.0
C241 C 0.52779 0.01021 0.95874 0.0
C242 C 0.53803 0.02065 0.94425 0.0
C243 C 0.52593 0.01246 0.92942 0.0
C244 C 0.49433 0.9808 0.97402 0.0
O245 O 0.49888 0.0284 0.99626 0.0
O246 O 0.49219 0.0361 0.02136 0.0
O247 O 0.53957 0.04811 0.01875 0.0
O248 O 0.53811 0.02152 1.00215 0.0
C249 C 0.49178 0.03872 0.00559 0.0
O250 O 0.50412 0.03626 0.05608 0.0
O251 O 0.53868 0.03951 0.05611 0.0
O252 O 0.52952 1.00014 0.03692 0.0
O253 O 0.50351 0.97413 0.01915 0.0
O254 O 0.46707 0.98183 0.01385 0.0
O255 O 0.48155 0.9898 0.04002 0.0
C256 C 0.54841 0.04242 0.00725 0.0
O257 O 0.50811 0.97929 0.98544 0.0
O258 O 0.48106 0.98819 0.97943 0.0
C259 C 0.51961 0.02964 0.08054 0.0
C260 C 0.51189 0.00744 0.11092 0.0
C261 C 0.52565 0.03112 0.10966 0.0
C262 C 0.52945 0.04215 0.09454 0.0
C263 C 0.50603 0.00607 0.08174 0.0
C264 C 0.50208 0.99509 0.09676 0.0
C265 C 0.52325 0.04079 0.06458 0.0
H266 H 0.49382 0.98664 0.91814 0.0
H267 H 0.476 0.96827 0.94366 0.0
H268 H 0.5373 0.01717 0.96999 0.0
H269 H 0.55516 0.03549 0.94467 0.0
H270 H 0.53364 0.04108 0.12032 0.0
H271 H 0.54007 0.06036 0.09378 0.0
H272 H 0.49834 0.99614 0.07103 0.0
H273 H 0.49104 0.97692 0.09726 0.0
Tb274 Tb 0.0148 0.52046 0.99719 0.0
Eu275 Eu 0.9935 0.50768 0.03372 0.0
C276 C 0.0392 0.55466 0.02604 0.0
C277 C 0.03647 0.50122 0.02386 0.0
C278 C 0.01669 0.52582 0.95244 0.0
C279 C 0.01654 0.51925 0.92394 0.0
C280 C 0.02696 0.52207 0.93947 0.0
C281 C 0.9956 0.52639 0.94972 0.0
C282 C 0.98527 0.52379 0.93416 0.0
C283 C 0.99568 0.52031 0.92104 0.0
C284 C 0.02838 0.52951 0.96861 0.0
O285 O 0.98999 0.48406 0.99779 0.0
O286 O 0.96552 0.48259 0.01694 0.0
O287 O 0.97965 0.52942 0.02145 0.0
O288 O 0.98265 0.52205 0.99526 0.0
C289 C 0.96963 0.47379 1.00462 0.0
O290 O 0.97849 0.48291 0.05342 0.0
O291 O 0.98431 0.51697 0.05582 0.0
O292 O 0.02917 0.53809 0.03665 0.0
O293 O 0.03274 0.55201 0.01059 0.0
O294 O 0.04068 0.51589 0.01188 0.0
O295 O 0.01685 0.49229 0.03147 0.0
C296 C 0.97484 0.53008 0.00593 0.0
O297 O 0.02613 0.54346 0.97764 0.0
O298 O 0.02584 0.51155 0.97675 0.0
C299 C 0.98983 0.49877 0.07923 0.0
C300 C 0.01071 0.50204 0.11044 0.0
C301 C 0.98636 0.48888 0.10783 0.0
C302 C 0.97602 0.48731 0.09235 0.0
C303 C 0.01417 0.51153 0.08168 0.0
C304 C 0.02451 0.51321 0.09716 0.0
C305 C 0.97873 0.49761 0.0631 0.0
H306 H 0.02479 0.51608 0.91423 0.0
H307 H 0.04312 0.5214 0.94134 0.0
H308 H 0.98723 0.52911 0.95958 0.0
H309 H 0.96939 0.52495 0.93238 0.0
H310 H 0.97522 0.48027 0.11782 0.0
H311 H 0.95721 0.47737 0.09066 0.0
H312 H 0.02514 0.52036 0.07164 0.0
H313 H 0.04332 0.52325 0.09873 0.0
Tb314 Tb 0.50118 0.49816 0.03675 0.0
Eu315 Eu 0.48618 0.50502 0.99839 0.0
C316 C 0.48962 0.4611 0.01156 0.0
C317 C 0.53846 0.5167 0.00975 0.0
C318 C 0.4989 0.49592 0.08152 0.0
C319 C 0.50178 0.49951 0.11068 0.0
C320 C 0.5106 0.49706 0.09642 0.0
C321 C 0.4782 0.49737 0.08104 0.0
C322 C 0.46926 0.49973 0.09533 0.0
C323 C 0.48092 0.5008 0.11039 0.0
C324 C 0.50875 0.49365 0.06662 0.0
O325 O 0.49313 0.52576 0.03621 0.0
O326 O 0.50218 0.53886 0.01025 0.0
O327 O 0.45642 0.49986 0.01355 0.0
O328 O 0.46366 0.47831 0.03259 0.0
C329 C 0.49925 0.54201 0.02522 0.0
O330 O 0.4931 0.52634 0.97657 0.0
O331 O 0.46478 0.49192 0.97615 0.0
O332 O 0.47734 0.46869 1.00285 0.0
O333 O 0.50402 0.47267 0.02352 0.0
O334 O 0.53434 0.51749 0.02497 0.0
O335 O 0.52173 0.50823 0.9985 0.0
C336 C 0.45013 0.48615 0.02626 0.0
O337 O 0.49482 0.47697 0.05735 0.0
O338 O 0.52057 0.51224 0.05825 0.0
C339 C 0.48601 0.50711 0.95216 0.0
C340 C 0.50392 0.5036 0.92271 0.0
C341 C 0.49585 0.51925 0.92424 0.0
C342 C 0.487 0.52095 0.93876 0.0
C343 C 0.49406 0.49148 0.95079 0.0
C344 C 0.50282 0.48968 0.93623 0.0
C345 C 0.47767 0.51007 0.9676 0.0
H346 H 0.51157 0.50076 0.12192 0.0
H347 H 0.52671 0.49619 0.09704 0.0
H348 H 0.46896 0.49669 0.06963 0.0
H349 H 0.45309 0.50047 0.09458 0.0
H350 H 0.49676 0.53059 0.91431 0.0
H351 H 0.48118 0.53333 0.93958 0.0
H352 H 0.49368 0.48073 0.96101 0.0
H353 H 0.50856 0.47723 0.93555 0.0
Tb354 Tb 0.16941 0.32924 0.33533 0.0
Eu355 Eu 0.18507 0.35605 0.36949 0.0
C356 C 0.18918 0.31182 0.36489 0.0
C357 C 0.13465 0.3115 0.36393 0.0
C358 C 0.16493 0.3222 0.29173 0.0
C359 C 0.16639 0.31934 0.26285 0.0
C360 C 0.1594 0.309 0.27803 0.0
C361 C 0.17706 0.34582 0.29008 0.0
C362 C 0.1843 0.35615 0.27501 0.0
C363 C 0.17925 0.34307 0.26118 0.0
C364 C 0.15967 0.3116 0.30788 0.0
O365 O 0.15359 0.3512 0.3347 0.0
O366 O 0.17943 0.379 0.35154 0.0
O367 O 0.21781 0.37006 0.35524 0.0
O368 O 0.20015 0.36162 0.33002 0.0
C369 C 0.16329 0.37199 0.33985 0.0
O370 O 0.17948 0.3738 0.38852 0.0
O371 O 0.20986 0.36885 0.39005 0.0
O372 O 0.18326 0.32252 0.3747 0.0
O373 O 0.18979 0.31609 0.34927 0.0
O374 O 0.14288 0.30598 0.35183 0.0
O375 O 0.14618 0.33169 0.37026 0.0
C376 C 0.21872 0.3731 0.33948 0.0
O377 O 0.17797 0.31486 0.31688 0.0
O378 O 0.14515 0.31499 0.31582 0.0
C379 C 0.19123 0.36489 0.41433 0.0
C380 C 0.18015 0.34227 0.44462 0.0
C381 C 0.16303 0.34452 0.43492 0.0
C382 C 0.16847 0.35566 0.41991 0.0
C383 C 0.20855 0.3634 0.42432 0.0
C384 C 0.20304 0.35207 0.43927 0.0
C385 C 0.19668 0.37442 0.39775 0.0
H386 H 0.16183 0.30874 0.25245 0.0
H387 H 0.15003 0.29073 0.27911 0.0
H388 H 0.18146 0.35629 0.30053 0.0
H389 H 0.19448 0.3744 0.27433 0.0
H390 H 0.1452 0.33699 0.43871 0.0
H391 H 0.15467 0.35645 0.41252 0.0
H392 H 0.22626 0.37047 0.42036 0.0
H393 H 0.21664 0.35082 0.44661 0.0
Tb394 Tb 0.67873 0.85684 0.32798 0.0
Eu395 Eu 0.65754 0.84593 0.36453 0.0
C396 C 0.70278 0.89263 0.35531 0.0
C397 C 0.69933 0.83751 0.35583 0.0
C398 C 0.68348 0.86418 0.28328 0.0
C399 C 0.653 0.86346 0.26465 0.0
C400 C 0.66251 0.86491 0.28041 0.0
C401 C 0.69467 0.86179 0.27028 0.0
C402 C 0.68512 0.86017 0.25458 0.0
C403 C 0.66419 0.86105 0.25151 0.0
C404 C 0.69366 0.86529 0.29972 0.0
O405 O 0.64448 0.82679 0.3251 0.0
O406 O 0.63937 0.81298 0.35123 0.0
O407 O 0.63121 0.85017 0.34843 0.0
O408 O 0.65612 0.87195 0.3287 0.0
C409 C 0.63398 0.81018 0.33567 0.0
O410 O 0.64526 0.8233 0.3855 0.0
O411 O 0.64666 0.85588 0.3857 0.0
O412 O 0.68285 0.88337 0.36258 0.0
O413 O 0.70612 0.88231 0.34355 0.0
O414 O 0.693 0.83695 0.34047 0.0
O415 O 0.69114 0.84483 0.36672 0.0
C416 C 0.63606 0.86374 0.33572 0.0
O417 O 0.69412 0.88041 0.30907 0.0
O418 O 0.687 0.84596 0.30729 0.0
C419 C 0.65567 0.84197 0.4102 0.0
C420 C 0.678 0.84795 0.44116 0.0
C421 C 0.6548 0.84397 0.43925 0.0
C422 C 0.64374 0.84097 0.42391 0.0
C423 C 0.67891 0.84629 0.41197 0.0
C424 C 0.68995 0.84919 0.4273 0.0
C425 C 0.64367 0.83799 0.39417 0.0
H426 H 0.63698 0.86437 0.26278 0.0
H427 H 0.65349 0.86655 0.29033 0.0
H428 H 0.71072 0.86095 0.2723 0.0
H429 H 0.69395 0.85777 0.24488 0.0
H430 H 0.64519 0.84331 0.44961 0.0
H431 H 0.62583 0.83774 0.42276 0.0
H432 H 0.68843 0.84715 0.40151 0.0
H433 H 0.7077 0.85195 0.42829 0.0
Tb434 Tb 0.16037 0.82433 0.37294 0.0
Eu435 Eu 0.15439 0.83503 0.33366 0.0
C436 C 0.14847 0.78766 0.34664 0.0
C437 C 0.20165 0.83879 0.35025 0.0
C438 C 0.15614 0.8219 0.41807 0.0
C439 C 0.15163 0.81586 0.44704 0.0
C440 C 0.15811 0.81128 0.43253 0.0
C441 C 0.14748 0.83722 0.4183 0.0
C442 C 0.14101 0.84187 0.43287 0.0
C443 C 0.14305 0.83127 0.44747 0.0
C444 C 0.16237 0.81603 0.40292 0.0
O445 O 0.17614 0.86101 0.3697 0.0
O446 O 0.1552 0.86338 0.34712 0.0
O447 O 0.11825 0.8173 0.34392 0.0
O448 O 0.13009 0.82905 0.3699 0.0
C449 C 0.16823 0.87223 0.36024 0.0
O450 O 0.1657 0.85832 0.31274 0.0
O451 O 0.13781 0.82392 0.30975 0.0
O452 O 0.15753 0.80355 0.33549 0.0
O453 O 0.14356 0.79181 0.36081 0.0
O454 O 0.18989 0.82495 0.362 0.0
O455 O 0.19262 0.84862 0.34045 0.0
C456 C 0.11368 0.82054 0.35848 0.0
O457 O 0.14492 0.80356 0.39313 0.0
O458 O 0.17957 0.8322 0.39518 0.0
C459 C 0.16264 0.84146 0.28758 0.0
C460 C 0.18169 0.8391 0.25832 0.0
C461 C 0.17895 0.85788 0.2615 0.0
C462 C 0.16951 0.859 0.27592 0.0
C463 C 0.16566 0.8228 0.2846 0.0
C464 C 0.17499 0.8216 0.27012 0.0
C465 C 0.15204 0.84287 0.3025 0.0
H466 H 0.15306 0.80703 0.45792 0.0
H467 H 0.1645 0.79922 0.43258 0.0
H468 H 0.1457 0.84551 0.40722 0.0
H469 H 0.1347 0.85398 0.43272 0.0
H470 H 0.18362 0.87155 0.25268 0.0
H471 H 0.16733 0.87355 0.2779 0.0
H472 H 0.16071 0.80907 0.29341 0.0
H473 H 0.1771 0.80701 0.26821 0.0
Tb474 Tb 0.82933 0.66171 0.66613 0.0
Eu475 Eu 0.84476 0.68795 0.70047 0.0
C476 C 0.84934 0.64417 0.6951 0.0
C477 C 0.79464 0.64368 0.69507 0.0
C478 C 0.82937 0.65252 0.6225 0.0
C479 C 0.85209 0.65389 0.59993 0.0
C480 C 0.8433 0.64535 0.61515 0.0
C481 C 0.8242 0.66828 0.61423 0.0
C482 C 0.83283 0.67669 0.59896 0.0
C483 C 0.84696 0.66966 0.59162 0.0
C484 C 0.82099 0.64385 0.63888 0.0
O485 O 0.82761 0.69266 0.6611 0.0
O486 O 0.82301 0.70107 0.68662 0.0
O487 O 0.86912 0.71256 0.68233 0.0
O488 O 0.86695 0.6859 0.66549 0.0
C489 C 0.82167 0.70351 0.67086 0.0
O490 O 0.83642 0.69911 0.72212 0.0
O491 O 0.87207 0.70674 0.71865 0.0
O492 O 0.86047 0.6648 0.7005 0.0
O493 O 0.83292 0.63853 0.68364 0.0
O494 O 0.79678 0.64704 0.67931 0.0
O495 O 0.81243 0.65479 0.70523 0.0
C496 C 0.87745 0.70684 0.67054 0.0
O497 O 0.83658 0.64388 0.64943 0.0
O498 O 0.80774 0.65068 0.64509 0.0
C499 C 0.85826 0.69709 0.7449 0.0
C500 C 0.85632 0.67741 0.77585 0.0
C501 C 0.85643 0.69824 0.77389 0.0
C502 C 0.8574 0.70798 0.75852 0.0
C503 C 0.85851 0.6765 0.74678 0.0
C504 C 0.85766 0.6668 0.76213 0.0
C505 C 0.85736 0.70639 0.72871 0.0
H506 H 0.86318 0.64832 0.5948 0.0
H507 H 0.84762 0.63326 0.62127 0.0
H508 H 0.81352 0.6742 0.61954 0.0
H509 H 0.82817 0.68852 0.59283 0.0
H510 H 0.85503 0.70668 0.78416 0.0
H511 H 0.85694 0.72376 0.75724 0.0
H512 H 0.859 0.66775 0.73636 0.0
H513 H 0.85789 0.65093 0.76322 0.0
Tb514 Tb 0.34466 0.18652 0.66409 0.0
Eu515 Eu 0.32245 0.17784 0.69994 0.0
C516 C 0.36857 0.22376 0.69043 0.0
C517 C 0.36444 0.169 0.6935 0.0
C518 C 0.34795 0.18968 0.61945 0.0
C519 C 0.32303 0.1967 0.59969 0.0
C520 C 0.33361 0.19939 0.61519 0.0
C521 C 0.35134 0.17712 0.60802 0.0
C522 C 0.34062 0.17425 0.5926 0.0
C523 C 0.32638 0.18407 0.58818 0.0
C524 C 0.35893 0.1918 0.63581 0.0
O525 O 0.3093 0.158 0.66159 0.0
O526 O 0.30573 0.14425 0.68755 0.0
O527 O 0.29749 0.1829 0.68273 0.0
O528 O 0.32419 0.20394 0.66378 0.0
C529 C 0.29943 0.14131 0.67216 0.0
O530 O 0.30938 0.15593 0.72124 0.0
O531 O 0.31052 0.18845 0.72017 0.0
O532 O 0.34856 0.21493 0.6976 0.0
O533 O 0.37203 0.21294 0.67907 0.0
O534 O 0.35776 0.16664 0.67814 0.0
O535 O 0.35649 0.17776 0.70347 0.0
C536 C 0.30384 0.19676 0.67014 0.0
O537 O 0.36112 0.20829 0.64451 0.0
O538 O 0.35176 0.17304 0.64424 0.0
C539 C 0.31862 0.17544 0.74546 0.0
C540 C 0.34081 0.18125 0.77647 0.0
C541 C 0.31697 0.16544 0.77402 0.0
C542 C 0.30601 0.16259 0.75867 0.0
C543 C 0.34234 0.19136 0.74779 0.0
C544 C 0.35332 0.1943 0.76316 0.0
C545 C 0.30731 0.17092 0.7292 0.0
H546 H 0.3124 0.20469 0.59671 0.0
H547 H 0.33051 0.20902 0.62382 0.0
H548 H 0.36212 0.16929 0.61109 0.0
H549 H 0.34322 0.164 0.58423 0.0
H550 H 0.30687 0.15481 0.78389 0.0
H551 H 0.28777 0.15001 0.75706 0.0
H552 H 0.35244 0.20131 0.73768 0.0
H553 H 0.37159 0.20678 0.7646 0.0
Tb554 Tb 0.82866 0.16385 0.70263 0.0
Eu555 Eu 0.82005 0.17402 0.66357 0.0
C556 C 0.81563 0.1267 0.67707 0.0
C557 C 0.86858 0.17883 0.67787 0.0
C558 C 0.82533 0.16189 0.74774 0.0
C559 C 0.81135 0.14932 0.77484 0.0
C560 C 0.81835 0.14552 0.76023 0.0
C561 C 0.82503 0.18218 0.75006 0.0
C562 C 0.81814 0.18605 0.76471 0.0
C563 C 0.81116 0.16965 0.7773 0.0
C564 C 0.83352 0.15776 0.73266 0.0
O565 O 0.8246 0.19386 0.70154 0.0
O566 O 0.83787 0.20732 0.67631 0.0
O567 O 0.78949 0.1712 0.67657 0.0
O568 O 0.79124 0.14787 0.697 0.0
C569 C 0.83367 0.21057 0.69093 0.0
O570 O 0.83216 0.19644 0.64234 0.0
O571 O 0.80076 0.16406 0.64027 0.0
O572 O 0.8064 0.13655 0.66742 0.0
O573 O 0.82902 0.13676 0.68982 0.0
O574 O 0.86324 0.18064 0.69254 0.0
O575 O 0.8531 0.17206 0.66578 0.0
C576 C 0.77999 0.15682 0.68863 0.0
O577 O 0.81782 0.14233 0.72324 0.0
O578 O 0.84801 0.1755 0.72445 0.0
C579 C 0.82478 0.17826 0.61738 0.0
C580 C 0.84269 0.17322 0.58847 0.0
C581 C 0.84006 0.19231 0.59072 0.0
C582 C 0.83119 0.19476 0.60498 0.0
C583 C 0.82736 0.15914 0.61525 0.0
C584 C 0.8361 0.15659 0.60091 0.0
C585 C 0.81627 0.18183 0.63255 0.0
H586 H 0.80641 0.13644 0.7843 0.0
H587 H 0.81852 0.1298 0.75875 0.0
H588 H 0.8302 0.19508 0.7406 0.0
H589 H 0.81794 0.20177 0.76607 0.0
H590 H 0.84463 0.20531 0.58137 0.0
H591 H 0.82943 0.20968 0.60635 0.0
H592 H 0.8228 0.14627 0.62471 0.0
H593 H 0.8381 0.14179 0.5997 0.0
H594 H 0.25268 0.83319 0.06741 0.0
H595 H 0.28933 0.86469 0.05802 0.0
H596 H 0.32691 0.85317 0.09855 0.0
H597 H 0.28998 0.82143 0.10789 0.0
H598 H 0.3446 0.89934 0.0909 0.0
H599 H 0.32553 0.8315 0.06314 0.0
H600 H 0.29998 0.79777 0.04722 0.0
H601 H 0.29473 0.83988 0.00862 0.0
H602 H 0.32008 0.87387 0.02439 0.0
H603 H 0.4571 0.95719 0.05912 0.0
H604 H 0.42045 0.92899 0.07036 0.0
H605 H 0.38316 0.93153 0.02634 0.0
H606 H 0.42025 0.9592 0.01469 0.0
H607 H 0.36493 0.89015 0.03618 0.0
H608 H 0.38447 0.95826 0.06358 0.0
H609 H 0.40992 0.99209 0.07945 0.0
H610 H 0.41395 0.95015 0.11864 0.0
H611 H 0.38872 0.91607 0.10293 0.0
C612 C 0.26873 0.83773 0.07446 0.0
C613 C 0.26857 0.82485 0.0883 0.0
C614 C 0.28969 0.85564 0.06906 0.0
C615 C 0.31105 0.86109 0.07736 0.0
C616 C 0.31072 0.84926 0.09187 0.0
C617 C 0.28964 0.83123 0.09727 0.0
C618 C 0.33365 0.87802 0.07026 0.0
C619 C 0.34918 0.89722 0.07902 0.0
C620 C 0.33952 0.8756 0.0546 0.0
C621 C 0.32453 0.85521 0.045 0.0
C622 C 0.31882 0.83356 0.05129 0.0
C623 C 0.3044 0.8144 0.04229 0.0
C624 C 0.29568 0.81668 0.02694 0.0
C625 C 0.30147 0.83814 0.02052 0.0
C626 C 0.3159 0.85736 0.02948 0.0
C627 C 0.44112 0.95181 0.05178 0.0
C628 C 0.44168 0.96068 0.036 0.0
C629 C 0.42003 0.93571 0.05831 0.0
C630 C 0.3987 0.9284 0.04946 0.0
C631 C 0.39924 0.9369 0.03354 0.0
C632 C 0.42049 0.95277 0.02686 0.0
C633 C 0.376 0.91173 0.05674 0.0
C634 C 0.36041 0.89246 0.04803 0.0
C635 C 0.37006 0.91418 0.07243 0.0
C636 C 0.38485 0.93463 0.08202 0.0
C637 C 0.39086 0.95626 0.07556 0.0
C638 C 0.40524 0.97548 0.08452 0.0
C639 C 0.41359 0.97327 0.10002 0.0
C640 C 0.40748 0.95183 0.10662 0.0
C641 C 0.39311 0.93256 0.0977 0.0
H642 H 0.42476 0.98817 0.10693 0.0
H643 H 0.28448 0.80181 0.02 0.0
H644 H 0.20215 0.45581 0.07054 0.0
H645 H 0.17012 0.45926 0.05623 0.0
H646 H 0.17542 0.50625 0.09167 0.0
H647 H 0.20797 0.50322 0.10566 0.0
H648 H 0.12802 0.44905 0.06574 0.0
H649 H 0.16189 0.5448 0.0732 0.0
H650 H 0.19943 0.58014 0.07563 0.0
H651 H 0.23289 0.55081 0.0502 0.0
H652 H 0.19549 0.51543 0.0474 0.0
H653 H 0.03764 0.47781 0.05139 0.0
H654 H 0.07005 0.47236 0.06228 0.0
H655 H 0.10984 0.50746 0.02072 0.0
H656 H 0.0777 0.51335 0.00986 0.0
H657 H 0.13557 0.5231 0.04757 0.0
H658 H 0.08621 0.45019 0.02548 0.0
H659 H 0.04952 0.41458 0.02098 0.0
H660 H 0.04879 0.39759 0.07153 0.0
H661 H 0.08533 0.43326 0.07638 0.0
C662 C 0.19661 0.4671 0.07505 0.0
C663 C 0.20751 0.4795 0.08899 0.0
C664 C 0.17825 0.4689 0.06702 0.0
C665 C 0.17055 0.48315 0.07282 0.0
C666 C 0.18133 0.49541 0.08687 0.0
C667 C 0.19976 0.49364 0.09487 0.0
C668 C 0.15107 0.485 0.06424 0.0
C669 C 0.12966 0.46523 0.06175 0.0
C670 C 0.15337 0.50608 0.05879 0.0
C671 C 0.17592 0.52738 0.06024 0.0
C672 C 0.17724 0.54592 0.06808 0.0
C673 C 0.1985 0.56596 0.06952 0.0
C674 C 0.21855 0.56769 0.06312 0.0
C675 C 0.21736 0.54942 0.05521 0.0
C676 C 0.19614 0.52936 0.0537 0.0
C677 C 0.05316 0.48413 0.04445 0.0
C678 C 0.0551 0.49604 0.02976 0.0
C679 C 0.07165 0.48096 0.05069 0.0
C680 C 0.09229 0.4894 0.04226 0.0
C681 C 0.09408 0.50087 0.02743 0.0
C682 C 0.07566 0.50415 0.02123 0.0
C683 C 0.11241 0.48718 0.04925 0.0
C684 C 0.13394 0.5069 0.05151 0.0
C685 C 0.11033 0.46601 0.05418 0.0
C686 C 0.08841 0.44449 0.05131 0.0
C687 C 0.07814 0.43894 0.03566 0.0
C688 C 0.05739 0.41873 0.03304 0.0
C689 C 0.04681 0.40385 0.04597 0.0
C690 C 0.057 0.40914 0.06153 0.0
C691 C 0.07774 0.42934 0.06422 0.0
H692 H 0.03074 0.38821 0.04391 0.0
H693 H 0.23499 0.58321 0.06427 0.0
H694 H 0.52247 0.72083 0.09134 0.0
H695 H 0.51107 0.68301 0.08164 0.0
H696 H 0.55107 0.71314 0.03929 0.0
H697 H 0.56266 0.75097 0.0492 0.0
H698 H 0.50666 0.67459 0.03281 0.0
H699 H 0.57451 0.69703 0.06895 0.0
H700 H 0.59681 0.71081 0.09473 0.0
H701 H 0.54431 0.65307 0.11976 0.0
H702 H 0.52146 0.63916 0.09415 0.0
H703 H 0.51771 0.58172 0.00757 0.0
H704 H 0.52414 0.6185 0.01586 0.0
H705 H 0.49387 0.58916 0.06155 0.0
H706 H 0.48788 0.55249 0.05351 0.0
H707 H 0.53222 0.62725 0.0664 0.0
H708 H 0.46424 0.604 0.03161 0.0
H709 H 0.43979 0.58978 0.00667 0.0
H710 H 0.48949 0.6476 0.98008 0.0
H711 H 0.51442 0.66203 1.00485 0.0
C712 C 0.52858 0.71921 0.07991 0.0
C713 C 0.54327 0.73856 0.07092 0.0
C714 C 0.52212 0.69773 0.07439 0.0
C715 C 0.53033 0.6953 0.05979 0.0
C716 C 0.54447 0.71466 0.05054 0.0
C717 C 0.55105 0.73617 0.05615 0.0
C718 C 0.52518 0.67264 0.05462 0.0
C719 C 0.51246 0.66431 0.04003 0.0
C720 C 0.53221 0.65903 0.0643 0.0
C721 C 0.54616 0.66717 0.07965 0.0
C722 C 0.56763 0.68735 0.07997 0.0
C723 C 0.58039 0.69518 0.09455 0.0
C724 C 0.57196 0.68285 0.10888 0.0
C725 C 0.5508 0.66262 0.10865 0.0
C726 C 0.53794 0.65475 0.09411 0.0
C727 C 0.51229 0.58306 0.01934 0.0
C728 C 0.50231 0.56416 0.02987 0.0
C729 C 0.51588 0.60409 0.02405 0.0
C730 C 0.50927 0.60659 0.03928 0.0
C731 C 0.49914 0.58769 0.04975 0.0
C732 C 0.49569 0.5667 0.04511 0.0
C733 C 0.51365 0.62905 0.04452 0.0
C734 C 0.5263 0.63742 0.05915 0.0
C735 C 0.50628 0.64254 0.03497 0.0
C736 C 0.4913 0.63399 0.02006 0.0
C737 C 0.47004 0.6136 0.02043 0.0
C738 C 0.45608 0.60552 0.00632 0.0
C739 C 0.46311 0.61775 0.99179 0.0
C740 C 0.48408 0.63813 0.99135 0.0
C741 C 0.49813 0.64628 1.00542 0.0
H742 H 0.45228 0.61147 0.98088 0.0
H743 H 0.58186 0.68894 0.12016 0.0
H744 H 0.83756 0.27101 0.95222 0.0
H745 H 0.86753 0.30775 0.96219 0.0
H746 H 0.81402 0.32533 0.97051 0.0
H747 H 0.78423 0.289 0.95958 0.0
H748 H 0.84801 0.3598 0.95758 0.0
H749 H 0.84484 0.31097 1.00197 0.0
H750 H 0.84551 0.27823 0.01582 0.0
H751 H 0.91549 0.30191 1.0011 0.0
H752 H 0.91512 0.33465 0.98696 0.0
H753 H 0.92236 0.45403 0.00812 0.0
H754 H 0.89188 0.41718 0.99849 0.0
H755 H 0.94424 0.40599 0.97814 0.0
H756 H 0.97479 0.44308 0.98739 0.0
H757 H 0.91088 0.36866 0.99779 0.0
H758 H 0.91261 0.41682 0.95267 0.0
H759 H 0.91065 0.4486 0.93829 0.0
H760 H 0.84221 0.42586 0.95572 0.0
H761 H 0.8438 0.39394 0.97027 0.0
C762 C 0.83226 0.28278 0.95613 0.0
C763 C 0.80857 0.27717 0.95506 0.0
C764 C 0.84938 0.30372 0.96203 0.0
C765 C 0.84318 0.31942 0.96738 0.0
C766 C 0.8194 0.31363 0.96652 0.0
C767 C 0.80231 0.29277 0.96042 0.0
C768 C 0.86152 0.34213 0.97325 0.0
C769 C 0.86147 0.36161 0.9666 0.0
C770 C 0.87956 0.34481 0.98477 0.0
C771 C 0.87986 0.32516 0.99328 0.0
C772 C 0.86031 0.30911 1.00158 0.0
C773 C 0.86065 0.29057 0.0095 0.0
C774 C 0.88051 0.28796 0.0093 0.0
C775 C 0.9001 0.30393 1.00122 0.0
C776 C 0.89985 0.3225 0.99327 0.0
C777 C 0.92741 0.44377 1.00156 0.0
C778 C 0.95107 0.45153 0.99856 0.0
C779 C 0.90994 0.42272 0.99601 0.0
C780 C 0.91573 0.40878 0.98758 0.0
C781 C 0.93933 0.41642 0.98463 0.0
C782 C 0.95678 0.43768 0.98988 0.0
C783 C 0.89721 0.38608 0.98211 0.0
C784 C 0.89727 0.36669 0.98886 0.0
C785 C 0.87903 0.38345 0.97083 0.0
C786 C 0.87843 0.40314 0.96269 0.0
C787 C 0.89727 0.41876 0.95361 0.0
C788 C 0.89617 0.43673 0.94536 0.0
C789 C 0.87631 0.43925 0.94609 0.0
C790 C 0.85756 0.42387 0.95515 0.0
C791 C 0.85854 0.40582 0.96338 0.0
H792 H 0.87542 0.45309 0.93961 0.0
H793 H 0.88074 0.2736 0.01544 0.0
H794 H 0.72508 0.52798 0.96043 0.0
H795 H 0.68926 0.5209 0.9731 0.0
H796 H 0.70728 0.5908 0.96469 0.0
H797 H 0.74368 0.598 0.95269 0.0
H798 H 0.68927 0.57657 0.99364 0.0
H799 H 0.66859 0.55004 0.93946 0.0
H800 H 0.66674 0.52812 0.91605 0.0
H801 H 0.62911 0.4663 0.9433 0.0
H802 H 0.63104 0.48789 0.96696 0.0
H803 H 0.5547 0.52955 0.97966 0.0
H804 H 0.59353 0.5405 0.97079 0.0
H805 H 0.61554 0.53254 0.01962 0.0
H806 H 0.57657 0.5221 0.02873 0.0
H807 H 0.61406 0.51633 0.97079 0.0
H808 H 0.6751 0.56703 0.02426 0.0
H809 H 0.6766 0.59191 0.04556 0.0
H810 H 0.63251 0.61075 0.01591 0.0
H811 H 0.631 0.58622 0.99437 0.0
C812 C 0.72144 0.54181 0.96152 0.0
C813 C 0.73686 0.56346 0.95555 0.0
C814 C 0.70099 0.53777 0.96864 0.0
C815 C 0.69548 0.55527 0.96964 0.0
C816 C 0.71119 0.57706 0.96401 0.0
C817 C 0.73176 0.58112 0.95702 0.0
C818 C 0.67286 0.5506 0.9759 0.0
C819 C 0.6728 0.56337 0.98869 0.0
C820 C 0.6514 0.53363 0.96925 0.0
C821 C 0.65017 0.5206 0.95503 0.0
C822 C 0.66008 0.53178 0.9405 0.0
C823 C 0.65899 0.51941 0.92718 0.0
C824 C 0.64787 0.49583 0.9282 0.0
C825 C 0.63775 0.48457 0.94254 0.0
C826 C 0.63883 0.49686 0.9559 0.0
C827 C 0.56782 0.53028 0.98857 0.0
C828 C 0.56257 0.52484 1.00489 0.0
C829 C 0.59002 0.53652 0.98346 0.0
C830 C 0.60744 0.5373 0.99451 0.0
C831 C 0.60244 0.53231 0.01091 0.0
C832 C 0.58019 0.52631 0.0161 0.0
C833 C 0.63035 0.54231 0.98855 0.0
C834 C 0.63049 0.52948 0.97584 0.0
C835 C 0.65178 0.55963 0.99498 0.0
C836 C 0.65273 0.57459 0.00779 0.0
C837 C 0.66578 0.57653 0.02228 0.0
C838 C 0.66663 0.59057 0.03439 0.0
C839 C 0.65459 0.60284 0.03211 0.0
C840 C 0.64175 0.60116 0.01769 0.0
C841 C 0.64086 0.58717 0.00554 0.0
H842 H 0.65526 0.61368 0.0415 0.0
H843 H 0.64704 0.48628 0.91788 0.0
H844 H 0.49224 0.21618 0.9526 0.0
H845 H 0.49519 0.18197 0.95907 0.0
H846 H 0.42047 0.14143 0.95145 0.0
H847 H 0.41761 0.17595 0.94544 0.0
H848 H 0.43364 0.12935 0.97879 0.0
H849 H 0.45848 0.14012 0.92538 0.0
H850 H 0.48068 0.16 0.90142 0.0
H851 H 0.54461 0.17206 0.92683 0.0
H852 H 0.52287 0.15264 0.95108 0.0
H853 H 0.48025 0.04215 0.97381 0.0
H854 H 0.4693 0.06909 0.96107 0.0
H855 H 0.47669 0.09896 0.00726 0.0
H856 H 0.48685 0.07151 0.02017 0.0
H857 H 0.49178 0.11182 0.95718 0.0
H858 H 0.44193 0.12206 0.00908 0.0
H859 H 0.4162 0.09878 0.0308 0.0
H860 H 0.39567 0.03878 1.00415 0.0
H861 H 0.42101 0.06172 0.98218 0.0
C862 C 0.47656 0.19988 0.95212 0.0
C863 C 0.45472 0.19854 0.9486 0.0
C864 C 0.47822 0.18035 0.95571 0.0
C865 C 0.45806 0.15905 0.95567 0.0
C866 C 0.43626 0.15765 0.95155 0.0
C867 C 0.43463 0.17727 0.94799 0.0
C868 C 0.45972 0.1386 0.96111 0.0
C869 C 0.44625 0.12543 0.97399 0.0
C870 C 0.47577 0.1331 0.95462 0.0
C871 C 0.48902 0.14505 0.94012 0.0
C872 C 0.4773 0.1472 0.92593 0.0
C873 C 0.4898 0.15837 0.91228 0.0
C874 C 0.51405 0.16733 0.91261 0.0
C875 C 0.52583 0.16514 0.9266 0.0
C876 C 0.51342 0.15404 0.9403 0.0
C877 C 0.47936 0.05434 0.9813 0.0
C878 C 0.48437 0.05463 0.99804 0.0
C879 C 0.47314 0.06979 0.97397 0.0
C880 C 0.47191 0.08598 0.98318 0.0
C881 C 0.47697 0.08634 0.99991 0.0
C882 C 0.4829 0.07068 0.00729 0.0
C883 C 0.46624 0.10302 0.9752 0.0
C884 C 0.479 0.11558 0.96188 0.0
C885 C 0.44906 0.10753 0.98097 0.0
C886 C 0.43354 0.09362 0.99405 0.0
C887 C 0.43184 0.10392 0.00782 0.0
C888 C 0.41734 0.09078 0.02018 0.0
C889 C 0.40436 0.06732 0.01888 0.0
C890 C 0.40579 0.05695 1.00518 0.0
C891 C 0.42024 0.07001 0.99278 0.0
H892 H 0.39317 0.05717 0.02847 0.0
H893 H 0.52369 0.17593 0.90202 0.0
H894 H 0.74605 0.17865 0.94138 0.0
H895 H 0.70855 0.14613 0.9488 0.0
H896 H 0.68236 0.19137 0.95871 0.0
H897 H 0.71926 0.22369 0.95047 0.0
H898 H 0.6847 0.1597 0.9856 0.0
H899 H 0.65621 0.16353 0.93158 0.0
H900 H 0.65102 0.16178 0.90194 0.0
H901 H 0.6414 0.09436 0.90373 0.0
H902 H 0.64711 0.09588 0.93337 0.0
H903 H 0.56989 0.08822 0.01085 0.0
H904 H 0.60474 0.11731 0.99806 0.0
H905 H 0.61156 0.06601 0.97391 0.0
H906 H 0.57618 0.03673 0.9864 0.0
H907 H 0.6198 0.09957 0.95363 0.0
H908 H 0.64782 0.09541 0.00769 0.0
H909 H 0.6481 0.09541 0.0374 0.0
H910 H 0.65709 0.16262 0.03552 0.0
H911 H 0.65656 0.16291 0.00578 0.0
C912 C 0.73199 0.18157 0.94453 0.0
C913 C 0.73564 0.20375 0.94538 0.0
C914 C 0.7106 0.16298 0.94887 0.0
C915 C 0.6926 0.16629 0.9543 0.0
C916 C 0.69593 0.18837 0.95452 0.0
C917 C 0.71706 0.20683 0.94991 0.0
C918 C 0.67165 0.14731 0.96172 0.0
C919 C 0.67043 0.14663 0.97858 0.0
C920 C 0.65327 0.12991 0.95262 0.0
C921 C 0.6525 0.12998 0.93472 0.0
C922 C 0.65362 0.14855 0.92566 0.0
C923 C 0.65037 0.14752 0.90885 0.0
C924 C 0.64578 0.12794 0.90098 0.0
C925 C 0.64491 0.10951 0.90985 0.0
C926 C 0.64823 0.11048 0.92664 0.0
C927 C 0.57884 0.08303 1.00291 0.0
C928 C 0.57022 0.06003 0.99978 0.0
C929 C 0.59892 0.09977 0.99562 0.0
C930 C 0.61122 0.09398 0.9852 0.0
C931 C 0.60254 0.07101 0.98194 0.0
C932 C 0.58229 0.05424 0.98913 0.0
C933 C 0.63282 0.11194 0.97753 0.0
C934 C 0.63422 0.11245 0.96067 0.0
C935 C 0.65146 0.12917 0.9866 0.0
C936 C 0.65197 0.1291 1.0045 0.0
C937 C 0.64972 0.11013 0.01361 0.0
C938 C 0.64994 0.11009 0.03046 0.0
C939 C 0.65256 0.12899 0.03834 0.0
C940 C 0.65504 0.14799 0.0294 0.0
C941 C 0.65481 0.14811 0.01254 0.0
H942 H 0.65272 0.12892 0.05139 0.0
H943 H 0.6429 0.12702 0.888 0.0
H944 H 0.79242 0.52942 0.94682 0.0
H945 H 0.82667 0.52538 0.9557 0.0
H946 H 0.86988 0.5979 0.95358 0.0
H947 H 0.83543 0.60178 0.94507 0.0
H948 H 0.8699 0.53776 0.94482 0.0
H949 H 0.90516 0.61272 0.988 0.0
H950 H 0.89054 0.63422 1.00219 0.0
H951 H 0.82209 0.57617 1.00262 0.0
H952 H 0.83638 0.55425 0.98867 0.0
H953 H 0.97671 0.55214 0.97756 0.0
H954 H 0.94815 0.56269 0.96594 0.0
H955 H 0.90867 0.53773 0.00904 0.0
H956 H 0.93787 0.52793 0.021 0.0
H957 H 0.90678 0.57406 0.99703 0.0
H958 H 0.8962 0.5046 0.97644 0.0
H959 H 0.91044 0.48152 0.96405 0.0
H960 H 0.92471 0.52263 0.92077 0.0
H961 H 0.91125 0.54647 0.93311 0.0
C962 C 0.80941 0.54435 0.94792 0.0
C963 C 0.81158 0.56586 0.94527 0.0
C964 C 0.82889 0.54209 0.95292 0.0
C965 C 0.85071 0.56136 0.95545 0.0
C966 C 0.85313 0.58285 0.9518 0.0
C967 C 0.83361 0.58507 0.94681 0.0
C968 C 0.87023 0.55901 0.96341 0.0
C969 C 0.87809 0.54581 0.95617 0.0
C970 C 0.88047 0.56908 0.97841 0.0
C971 C 0.87181 0.58195 0.98713 0.0
C972 C 0.88702 0.60453 0.99119 0.0
C973 C 0.87879 0.61678 0.99919 0.0
C974 C 0.85539 0.60659 1.00325 0.0
C975 C 0.84019 0.58407 0.99941 0.0
C976 C 0.84835 0.57173 0.99145 0.0
C977 C 0.96209 0.54918 0.98463 0.0
C978 C 0.95918 0.53889 1.00004 0.0
C979 C 0.94582 0.55523 0.97799 0.0
C980 C 0.92601 0.55045 0.98647 0.0
C981 C 0.9238 0.54143 1.00227 0.0
C982 C 0.9404 0.5358 0.00907 0.0
C983 C 0.90673 0.55311 0.97833 0.0
C984 C 0.89881 0.56624 0.98558 0.0
C985 C 0.89603 0.54249 0.96354 0.0
C986 C 0.9029 0.52744 0.95575 0.0
C987 C 0.90243 0.50877 0.96429 0.0
C988 C 0.91043 0.49559 0.9573 0.0
C989 C 0.91846 0.50061 0.94163 0.0
C990 C 0.91846 0.51878 0.9329 0.0
C991 C 0.9107 0.53217 0.93991 0.0
H992 H 0.92469 0.49042 0.93625 0.0
H993 H 0.84904 0.61612 0.00941 0.0
H994 H 0.42419 0.26568 0.95863 0.0
H995 H 0.43269 0.3016 0.97026 0.0
H996 H 0.50488 0.31844 0.97861 0.0
H997 H 0.49651 0.28278 0.96637 0.0
H998 H 0.48182 0.32778 1.00534 0.0
H999 H 0.49666 0.34181 0.94859 0.0
H1000 H 0.48659 0.33363 0.91971 0.0
H1001 H 0.42666 0.34284 0.92316 0.0
H1002 H 0.43613 0.35065 0.95216 0.0
H1003 H 0.51995 0.44461 0.0192 0.0
H1004 H 0.51642 0.40887 0.0108 0.0
H1005 H 0.44986 0.39187 0.98669 0.0
H1006 H 0.4537 0.42773 0.9945 0.0
H1007 H 0.47386 0.38326 0.96787 0.0
H1008 H 0.4562 0.36695 0.02396 0.0
H1009 H 0.46329 0.37285 0.05328 0.0
H1010 H 0.52509 0.36628 0.05177 0.0
H1011 H 0.51853 0.36063 0.02238 0.0
C1012 C 0.44184 0.2771 0.96294 0.0
C1013 C 0.45977 0.2717 0.96148 0.0
C1014 C 0.44664 0.29747 0.96966 0.0
C1015 C 0.46942 0.31265 0.9752 0.0
C1016 C 0.48719 0.30686 0.97444 0.0
C1017 C 0.48242 0.28657 0.9675 0.0
C1018 C 0.47477 0.33512 0.98078 0.0
C1019 C 0.48048 0.34013 0.99716 0.0
C1020 C 0.47249 0.3509 0.9701 0.0
C1021 C 0.46699 0.34661 0.95259 0.0
C1022 C 0.48123 0.34191 0.94323 0.0
C1023 C 0.47564 0.33736 0.92683 0.0
C1024 C 0.45597 0.33767 0.91961 0.0
C1025 C 0.44188 0.34259 0.92877 0.0
C1026 C 0.44736 0.34709 0.94519 0.0
C1027 C 0.5045 0.43315 0.01221 0.0
C1028 C 0.48713 0.439 0.00749 0.0
C1029 C 0.50246 0.41269 0.00745 0.0
C1030 C 0.48277 0.39753 0.99819 0.0
C1031 C 0.46527 0.40328 0.99374 0.0
C1032 C 0.46747 0.4238 0.99826 0.0
C1033 C 0.48049 0.37598 0.99263 0.0
C1034 C 0.47541 0.3711 0.97614 0.0
C1035 C 0.48304 0.36023 1.00329 0.0
C1036 C 0.48702 0.36362 0.02095 0.0
C1037 C 0.4714 0.36694 0.02986 0.0
C1038 C 0.47531 0.37021 0.04649 0.0
C1039 C 0.49467 0.37001 0.05438 0.0
C1040 C 0.51013 0.36648 0.04564 0.0
C1041 C 0.50632 0.36323 0.029 0.0
H1042 H 0.49766 0.37254 0.06726 0.0
H1043 H 0.45167 0.33414 0.90691 0.0
H1044 H 0.20394 0.72661 0.10088 0.0
H1045 H 0.17419 0.69064 0.08961 0.0
H1046 H 0.16525 0.72621 0.04755 0.0
H1047 H 0.19411 0.76228 0.05935 0.0
H1048 H 0.12453 0.69546 0.05585 0.0
H1049 H 0.19542 0.69445 0.04771 0.0
H1050 H 0.23362 0.69693 0.05503 0.0
H1051 H 0.20094 0.64049 0.08805 0.0
H1052 H 0.16258 0.63788 0.08111 0.0
H1053 H 0.05939 0.59541 0.00941 0.0
H1054 H 0.09044 0.63192 0.01909 0.0
H1055 H 0.09357 0.6009 0.0651 0.0
H1056 H 0.06252 0.56442 0.0556 0.0
H1057 H 0.13764 0.62947 0.05356 0.0
H1058 H 0.06662 0.63192 0.06149 0.0
H1059 H 0.02877 0.62949 0.05294 0.0
H1060 H 0.06282 0.68368 0.01844 0.0
H1061 H 0.10085 0.68623 0.02663 0.0
C1062 C 0.1955 0.7267 0.08927 0.0
C1063 C 0.20134 0.74723 0.08099 0.0
C1064 C 0.17867 0.7061 0.08272 0.0
C1065 C 0.16758 0.70549 0.06754 0.0
C1066 C 0.1735 0.72607 0.05923 0.0
C1067 C 0.19016 0.74669 0.06589 0.0
C1068 C 0.14943 0.6835 0.06055 0.0
C1069 C 0.12763 0.6812 0.05513 0.0
C1070 C 0.15309 0.66457 0.05977 0.0
C1071 C 0.17614 0.66611 0.064 0.0
C1072 C 0.1964 0.68268 0.05663 0.0
C1073 C 0.21808 0.6841 0.0607 0.0
C1074 C 0.21972 0.66892 0.07203 0.0
C1075 C 0.19966 0.65226 0.07929 0.0
C1076 C 0.17793 0.6508 0.07529 0.0
C1077 C 0.06668 0.59632 0.02159 0.0
C1078 C 0.05832 0.57691 0.03172 0.0
C1079 C 0.08441 0.61725 0.02713 0.0
C1080 C 0.0943 0.61925 0.04288 0.0
C1081 C 0.08626 0.59984 0.05291 0.0
C1082 C 0.06839 0.57897 0.04746 0.0
C1083 C 0.11289 0.64154 0.04899 0.0
C1084 C 0.13471 0.64384 0.05423 0.0
C1085 C 0.10936 0.66053 0.04943 0.0
C1086 C 0.08654 0.6591 0.04456 0.0
C1087 C 0.06601 0.6432 0.05199 0.0
C1088 C 0.04453 0.64182 0.04723 0.0
C1089 C 0.04338 0.65638 0.03512 0.0
C1090 C 0.06373 0.67239 0.02779 0.0
C1091 C 0.08526 0.67382 0.0325 0.0
H1092 H 0.02674 0.65529 0.03145 0.0
H1093 H 0.23652 0.67003 0.07515 0.0
H1094 H 0.25961 0.44658 0.08006 0.0
H1095 H 0.29484 0.44695 0.07173 0.0
H1096 H 0.33494 0.49253 0.11012 0.0
H1097 H 0.29933 0.49268 0.11803 0.0
H1098 H 0.35693 0.50773 0.08338 0.0
H1099 H 0.32588 0.43783 0.11093 0.0
H1100 H 0.29613 0.39996 0.12001 0.0
H1101 H 0.28581 0.37617 0.07164 0.0
H1102 H 0.3152 0.414 0.06219 0.0
H1103 H 0.43378 0.45913 0.05301 0.0
H1104 H 0.40329 0.45546 0.0701 0.0
H1105 H 0.38819 0.49816 0.03686 0.0
H1106 H 0.41949 0.50264 0.01985 0.0
H1107 H 0.35893 0.43909 0.0674 0.0
H1108 H 0.37431 0.53113 0.05661 0.0
H1109 H 0.40742 0.56893 0.05088 0.0
H1110 H 0.45535 0.54845 0.073 0.0
H1111 H 0.42255 0.51065 0.07898 0.0
C1112 C 0.27594 0.45641 0.08679 0.0
C1113 C 0.27703 0.46976 0.09951 0.0
C1114 C 0.29602 0.45651 0.08216 0.0
C1115 C 0.31758 0.46964 0.09037 0.0
C1116 C 0.31851 0.48226 0.10362 0.0
C1117 C 0.29827 0.48224 0.10821 0.0
C1118 C 0.3391 0.47129 0.08411 0.0
C1119 C 0.35748 0.49272 0.08004 0.0
C1120 C 0.34028 0.45176 0.08024 0.0
C1121 C 0.32272 0.42883 0.08584 0.0
C1122 C 0.31718 0.42457 0.1022 0.0
C1123 C 0.30037 0.4031 0.10741 0.0
C1124 C 0.28908 0.38568 0.0964 0.0
C1125 C 0.29459 0.38968 0.08015 0.0
C1126 C 0.31136 0.41113 0.07487 0.0
C1127 C 0.42388 0.46762 0.04918 0.0
C1128 C 0.42918 0.48131 0.03506 0.0
C1129 C 0.4064 0.46547 0.05902 0.0
C1130 C 0.39371 0.47683 0.05493 0.0
C1131 C 0.39814 0.48963 0.04043 0.0
C1132 C 0.41584 0.49198 0.03062 0.0
C1133 C 0.37604 0.47545 0.06594 0.0
C1134 C 0.35851 0.45408 0.07094 0.0
C1135 C 0.37622 0.49504 0.0713 0.0
C1136 C 0.39596 0.518 0.06813 0.0
C1137 C 0.3919 0.53475 0.06033 0.0
C1138 C 0.41062 0.55616 0.057 0.0
C1139 C 0.43348 0.56107 0.06151 0.0
C1140 C 0.43766 0.54461 0.06943 0.0
C1141 C 0.41901 0.52319 0.07278 0.0
H1142 H 0.44794 0.57763 0.0589 0.0
H1143 H 0.27606 0.36907 0.10046 0.0
H1144 H 0.51524 0.79666 0.07738 0.0
H1145 H 0.51193 0.83083 0.07136 0.0
H1146 H 0.58656 0.8718 0.07855 0.0
H1147 H 0.59 0.83744 0.08377 0.0
H1148 H 0.55273 0.88717 0.09238 0.0
H1149 H 0.5747 0.8656 0.04395 0.0
H1150 H 0.57003 0.83727 0.02443 0.0
H1151 H 0.49924 0.82252 0.01327 0.0
H1152 H 0.50337 0.85048 0.03297 0.0
H1153 H 0.55603 0.98522 0.05174 0.0
H1154 H 0.56436 0.9557 0.06323 0.0
H1155 H 0.50125 0.9049 0.03961 0.0
H1156 H 0.49335 0.93417 0.02774 0.0
H1157 H 0.53353 0.89617 0.03469 0.0
H1158 H 0.50826 0.91427 0.08188 0.0
H1159 H 0.50681 0.93617 0.1041 0.0
H1160 H 0.57714 0.95333 0.11954 0.0
H1161 H 0.57903 0.93153 0.09727 0.0
C1162 C 0.53089 0.81297 0.07764 0.0
C1163 C 0.5529 0.81449 0.08067 0.0
C1164 C 0.52898 0.83243 0.07439 0.0
C1165 C 0.54903 0.85375 0.07443 0.0
C1166 C 0.57091 0.85546 0.07851 0.0
C1167 C 0.57285 0.83591 0.08149 0.0
C1168 C 0.54715 0.87382 0.06862 0.0
C1169 C 0.54898 0.88954 0.07974 0.0
C1170 C 0.54155 0.8763 0.05222 0.0
C1171 C 0.53929 0.85999 0.04002 0.0
C1172 C 0.55809 0.8562 0.03741 0.0
C1173 C 0.55555 0.84022 0.02631 0.0
C1174 C 0.53434 0.82806 0.01764 0.0
C1175 C 0.51566 0.83193 0.02001 0.0
C1176 C 0.51809 0.84786 0.03113 0.0
C1177 C 0.54393 0.96774 0.04904 0.0
C1178 C 0.52417 0.96209 0.03867 0.0
C1179 C 0.54862 0.95084 0.05572 0.0
C1180 C 0.5334 0.92797 0.05237 0.0
C1181 C 0.51341 0.92238 0.04231 0.0
C1182 C 0.50891 0.93919 0.03549 0.0
C1183 C 0.53867 0.90978 0.05849 0.0
C1184 C 0.53756 0.89427 0.04735 0.0
C1185 C 0.54444 0.90731 0.07496 0.0
C1186 C 0.54392 0.92159 0.08773 0.0
C1187 C 0.52357 0.92303 0.08983 0.0
C1188 C 0.52264 0.93537 0.1025 0.0
C1189 C 0.54195 0.9463 0.11319 0.0
C1190 C 0.56224 0.94494 0.11121 0.0
C1191 C 0.56324 0.93259 0.09857 0.0
H1192 H 0.54117 0.9557 0.12309 0.0
H1193 H 0.53239 0.81568 0.00907 0.0
H1194 H 0.95962 0.14448 0.43456 0.0
H1195 H -0.00289 0.17599 0.42608 0.0
H1196 H 0.96025 0.20672 0.40012 0.0
H1197 H 0.92289 0.17493 0.4085 0.0
H1198 H 0.99017 0.20628 0.38124 0.0
H1199 H -0.00386 0.23129 0.43497 0.0
H1200 H 0.9955 0.2282 0.4646 0.0
H1201 H 0.05106 0.21159 0.46616 0.0
H1202 H 0.05209 0.21473 0.43643 0.0
H1203 H 0.11118 0.31692 0.3882 0.0
H1204 H 0.07456 0.28883 0.39986 0.0
H1205 H 0.07089 0.23866 0.36808 0.0
H1206 H 0.10727 0.26677 0.35613 0.0
H1207 H 0.06086 0.25053 0.41623 0.0
H1208 H 0.01436 0.2014 0.35823 0.0
H1209 H 0.01379 0.20827 0.32878 0.0
H1210 H 0.03659 0.27835 0.33621 0.0
H1211 H 0.03699 0.27184 0.36569 0.0
C1212 C 0.95972 0.15836 0.42745 0.0
C1213 C 0.93852 0.15754 0.42234 0.0
C1214 C 0.98111 0.17635 0.42254 0.0
C1215 C 0.98173 0.19395 0.41243 0.0
C1216 C 0.96042 0.19345 0.40786 0.0
C1217 C 0.93908 0.17545 0.41277 0.0
C1218 C 0.00426 0.21199 0.40575 0.0
C1219 C 0.00559 0.21591 0.38895 0.0
C1220 C 0.0245 0.22493 0.41565 0.0
C1221 C 0.02399 0.22299 0.43349 0.0
C1222 C 0.0081 0.22681 0.44163 0.0
C1223 C 0.00771 0.22509 0.45845 0.0
C1224 C 0.0231 0.2195 0.46729 0.0
C1225 C 0.03905 0.21579 0.4593 0.0
C1226 C 0.03963 0.21765 0.44246 0.0
C1227 C 0.10257 0.29995 0.3836 0.0
C1228 C 0.1122 0.2943 0.37104 0.0
C1229 C 0.08161 0.28381 0.39038 0.0
C1230 C 0.06962 0.26156 0.38479 0.0
C1231 C 0.07943 0.25575 0.37246 0.0
C1232 C 0.10035 0.27191 0.36563 0.0
C1233 C 0.04681 0.24458 0.39173 0.0
C1234 C 0.04545 0.24082 0.40854 0.0
C1235 C 0.02638 0.23211 0.38186 0.0
C1236 C 0.02594 0.23616 0.36415 0.0
C1237 C 0.01917 0.21826 0.35357 0.0
C1238 C 0.01889 0.22209 0.33687 0.0
C1239 C 0.02522 0.24375 0.33063 0.0
C1240 C 0.03177 0.26161 0.34106 0.0
C1241 C 0.03205 0.25786 0.35776 0.0
H1242 H 0.02501 0.24668 0.3177 0.0
H1243 H 0.02281 0.21822 0.48033 0.0
H1244 H 0.81648 0.74174 0.41093 0.0
H1245 H 0.78978 0.7551 0.39948 0.0
H1246 H 0.84826 0.82227 0.39392 0.0
H1247 H 0.87467 0.80883 0.40589 0.0
H1248 H 0.8132 0.82462 0.40534 0.0
H1249 H 0.8231 0.78792 0.36148 0.0
H1250 H 0.82397 0.75707 0.34754 0.0
H1251 H 0.75082 0.71421 0.35492 0.0
H1252 H 0.74958 0.7447 0.36913 0.0
H1253 H 0.72904 0.83204 0.33711 0.0
H1254 H 0.75875 0.82149 0.34615 0.0
H1255 H 0.7375 0.81502 0.39519 0.0
H1256 H 0.7084 0.82626 0.38635 0.0
H1257 H 0.75733 0.78544 0.35975 0.0
H1258 H 0.78283 0.83029 0.4214 0.0
H1259 H 0.78449 0.8637 0.43335 0.0
H1260 H 0.79257 0.89564 0.38644 0.0
H1261 H 0.79129 0.86258 0.37424 0.0
C1262 C 0.82341 0.75931 0.40726 0.0
C1263 C 0.84737 0.77435 0.40914 0.0
C1264 C 0.80831 0.76692 0.40066 0.0
C1265 C 0.81709 0.78963 0.39564 0.0
C1266 C 0.84112 0.8047 0.39768 0.0
C1267 C 0.85616 0.79708 0.40441 0.0
C1268 C 0.80115 0.79769 0.38842 0.0
C1269 C 0.80103 0.8161 0.39535 0.0
C1270 C 0.78568 0.78691 0.37513 0.0
C1271 C 0.78629 0.76855 0.36649 0.0
C1272 C 0.80723 0.77187 0.36023 0.0
C1273 C 0.80779 0.75445 0.35227 0.0
C1274 C 0.78747 0.73368 0.35037 0.0
C1275 C 0.76654 0.7303 0.35641 0.0
C1276 C 0.7659 0.74766 0.36441 0.0
C1277 C 0.73071 0.82835 0.34982 0.0
C1278 C 0.71655 0.83016 0.36105 0.0
C1279 C 0.74766 0.8223 0.35496 0.0
C1280 C 0.75061 0.81784 0.37138 0.0
C1281 C 0.73594 0.81894 0.38251 0.0
C1282 C 0.71924 0.82528 0.37743 0.0
C1283 C 0.76899 0.81203 0.37692 0.0
C1284 C 0.76958 0.79404 0.36969 0.0
C1285 C 0.78537 0.82363 0.38962 0.0
C1286 C 0.78678 0.84387 0.39691 0.0
C1287 C 0.78511 0.84451 0.41366 0.0
C1288 C 0.78595 0.86337 0.42047 0.0
C1289 C 0.78857 0.88175 0.41066 0.0
C1290 C 0.79047 0.88136 0.39402 0.0
C1291 C 0.78967 0.86256 0.38715 0.0
H1292 H 0.78917 0.89632 0.41595 0.0
H1293 H 0.78794 0.72021 0.3442 0.0
H1294 H 0.23827 0.07031 0.41673 0.0
H1295 H 0.23218 0.03446 0.40652 0.0
H1296 H 0.16159 0.01756 0.39088 0.0
H1297 H 0.16732 0.0527 0.40232 0.0
H1298 H 0.16024 0.98221 0.40297 0.0
H1299 H 0.20922 0.03613 0.36417 0.0
H1300 H 0.24339 0.07042 0.35416 0.0
H1301 H 0.28888 0.04543 0.37371 0.0
H1302 H 0.255 0.01111 0.38405 0.0
H1303 H 0.14464 0.89494 0.35039 0.0
H1304 H 0.15195 0.93187 0.35921 0.0
H1305 H 0.21081 0.93818 0.38919 0.0
H1306 H 0.20339 0.90106 0.38067 0.0
H1307 H 0.21786 0.97848 0.36892 0.0
H1308 H 0.16528 0.92323 0.40721 0.0
H1309 H 0.12914 0.88857 0.41417 0.0
H1310 H 0.08799 0.91684 0.39182 0.0
H1311 H 0.12385 0.9514 0.38439 0.0
C1312 C 0.22149 0.05884 0.41112 0.0
C1313 C 0.20334 0.06426 0.41007 0.0
C1314 C 0.21805 0.03847 0.40512 0.0
C1315 C 0.19656 0.02339 0.39755 0.0
C1316 C 0.17838 0.02888 0.39655 0.0
C1317 C 0.18169 0.04903 0.4029 0.0
C1318 C 0.19281 1.00167 0.39109 0.0
C1319 C 0.17274 0.98155 0.39534 0.0
C1320 C 0.20915 1.00055 0.38124 0.0
C1321 C 0.22958 0.02114 0.37502 0.0
C1322 C 0.22652 0.03802 0.36644 0.0
C1323 C 0.24584 0.05745 0.36069 0.0
C1324 C 0.2683 0.06012 0.36333 0.0
C1325 C 0.27148 0.04334 0.37169 0.0
C1326 C 0.25222 0.02389 0.37749 0.0
C1327 C 0.15926 0.90426 0.35876 0.0
C1328 C 0.17342 0.89507 0.36486 0.0
C1329 C 0.16336 0.92531 0.3638 0.0
C1330 C 0.18187 0.93767 0.37486 0.0
C1331 C 0.19646 0.92887 0.38062 0.0
C1332 C 0.19213 0.90764 0.3758 0.0
C1333 C 0.18547 0.95939 0.38086 0.0
C1334 C 0.20546 0.97938 0.37653 0.0
C1335 C 0.16882 0.96047 0.3903 0.0
C1336 C 0.14726 0.93982 0.39509 0.0
C1337 C 0.14852 0.92197 0.40365 0.0
C1338 C 0.12807 0.90232 0.40768 0.0
C1339 C 0.10625 0.90043 0.40337 0.0
C1340 C 0.10486 0.91824 0.39509 0.0
C1341 C 0.12525 0.93787 0.39097 0.0
H1342 H 0.09044 0.88521 0.4065 0.0
H1343 H 0.28323 0.07518 0.35887 0.0
H1344 H 0.44954 0.62398 0.28972 0.0
H1345 H 0.47895 0.66078 0.30031 0.0
H1346 H 0.53342 0.6448 0.29141 0.0
H1347 H 0.50389 0.60773 0.28156 0.0
H1348 H 0.54373 0.66521 0.31846 0.0
H1349 H 0.52044 0.68061 0.26577 0.0
H1350 H 0.49295 0.68003 0.24391 0.0
H1351 H 0.47169 0.71687 0.2731 0.0
H1352 H 0.49883 0.71738 0.29524 0.0
H1353 H 0.62028 0.79633 0.30441 0.0
H1354 H 0.59028 0.75926 0.29507 0.0
H1355 H 0.57439 0.73629 0.34441 0.0
H1356 H 0.60481 0.77306 0.35383 0.0
H1357 H 0.54553 0.73545 0.29649 0.0
H1358 H 0.55586 0.6804 0.34866 0.0
H1359 H 0.58653 0.6812 0.36784 0.0
H1360 H 0.6393 0.7241 0.335 0.0
H1361 H 0.60895 0.72332 0.31554 0.0
C1362 C 0.46778 0.6283 0.29024 0.0
C1363 C 0.47446 0.6131 0.2847 0.0
C1364 C 0.48464 0.64942 0.29613 0.0
C1365 C 0.50861 0.65591 0.29644 0.0
C1366 C 0.51516 0.6404 0.29128 0.0
C1367 C 0.4983 0.61926 0.28551 0.0
C1368 C 0.52689 0.67886 0.30193 0.0
C1369 C 0.54401 0.68053 0.31368 0.0
C1370 C 0.52779 0.69906 0.29551 0.0
C1371 C 0.51149 0.69883 0.28222 0.0
C1372 C 0.50977 0.68844 0.26758 0.0
C1373 C 0.49427 0.68814 0.25513 0.0
C1374 C 0.48053 0.69835 0.25713 0.0
C1375 C 0.48231 0.70893 0.27158 0.0
C1376 C 0.49776 0.70924 0.28408 0.0
C1377 C 0.61047 0.78339 0.3133 0.0
C1378 C 0.61522 0.78774 0.32991 0.0
C1379 C 0.59319 0.76215 0.30792 0.0
C1380 C 0.58015 0.74467 0.31898 0.0
C1381 C 0.58447 0.74918 0.33557 0.0
C1382 C 0.60188 0.77035 0.34096 0.0
C1383 C 0.56219 0.72177 0.31317 0.0
C1384 C 0.54514 0.72012 0.30136 0.0
C1385 C 0.56176 0.7016 0.31919 0.0
C1386 C 0.58013 0.70198 0.33073 0.0
C1387 C 0.57401 0.68994 0.34551 0.0
C1388 C 0.59134 0.6904 0.35643 0.0
C1389 C 0.61485 0.70275 0.35266 0.0
C1390 C 0.62109 0.71461 0.33793 0.0
C1391 C 0.60383 0.71418 0.32696 0.0
H1392 H 0.62824 0.7031 0.36114 0.0
H1393 H 0.46855 0.69811 0.24748 0.0
H1394 H 0.36999 0.82518 0.28782 0.0
H1395 H 0.3374 0.81866 0.30441 0.0
H1396 H 0.35575 0.88894 0.29802 0.0
H1397 H 0.38894 0.89555 0.2823 0.0
H1398 H 0.34566 0.87658 0.32782 0.0
H1399 H 0.30965 0.84573 0.27619 0.0
H1400 H 0.3 0.82121 0.25279 0.0
H1401 H 0.26856 0.76234 0.28385 0.0
H1402 H 0.27831 0.78654 0.30747 0.0
H1403 H 0.23686 0.87449 0.33502 0.0
H1404 H 0.27302 0.87703 0.32618 0.0
H1405 H 0.25396 0.81152 0.34789 0.0
H1406 H 0.21791 0.80902 0.35708 0.0
H1407 H 0.2646 0.81776 0.31358 0.0
H1408 H 0.29694 0.85118 0.36486 0.0
H1409 H 0.30524 0.87755 0.38684 0.0
H1410 H 0.3423 0.93392 0.35455 0.0
H1411 H 0.33392 0.9079 0.33229 0.0
C1412 C 0.36697 0.83913 0.29008 0.0
C1413 C 0.38162 0.86076 0.28369 0.0
C1414 C 0.34836 0.83543 0.29943 0.0
C1415 C 0.34396 0.85327 0.30228 0.0
C1416 C 0.35878 0.87492 0.29597 0.0
C1417 C 0.37751 0.87864 0.28682 0.0
C1418 C 0.32386 0.84953 0.3117 0.0
C1419 C 0.32793 0.86379 0.32463 0.0
C1420 C 0.30077 0.83252 0.30779 0.0
C1421 C 0.29499 0.81794 0.29362 0.0
C1422 C 0.30087 0.82756 0.27804 0.0
C1423 C 0.29534 0.81372 0.26474 0.0
C1424 C 0.28375 0.79023 0.26684 0.0
C1425 C 0.2776 0.78054 0.28225 0.0
C1426 C 0.28311 0.7943 0.2956 0.0
C1427 C 0.24058 0.86081 0.33815 0.0
C1428 C 0.22465 0.84157 0.34672 0.0
C1429 C 0.26122 0.86231 0.33315 0.0
C1430 C 0.26605 0.84447 0.33644 0.0
C1431 C 0.25048 0.82546 0.34533 0.0
C1432 C 0.23001 0.82413 0.35061 0.0
C1433 C 0.28646 0.84507 0.3294 0.0
C1434 C 0.28241 0.83026 0.3169 0.0
C1435 C 0.30948 0.86184 0.33349 0.0
C1436 C 0.31463 0.87756 0.34687 0.0
C1437 C 0.30668 0.8692 0.3624 0.0
C1438 C 0.31144 0.88409 0.37492 0.0
C1439 C 0.32425 0.9074 0.37209 0.0
C1440 C 0.33237 0.91586 0.35673 0.0
C1441 C 0.32765 0.90105 0.34416 0.0
H1442 H 0.32792 0.9189 0.3818 0.0
H1443 H 0.27947 0.77955 0.25652 0.0
H1444 H 0.07654 0.49883 0.28192 0.0
H1445 H 0.08414 0.46688 0.28681 0.0
H1446 H 0.15745 0.51355 0.29557 0.0
H1447 H 0.14987 0.5453 0.2899 0.0
H1448 H 0.15294 0.47776 0.28114 0.0
H1449 H 0.11897 0.49065 0.32655 0.0
H1450 H 0.08914 0.49494 0.34037 0.0
H1451 H 0.03758 0.42738 0.32789 0.0
H1452 H 0.06706 0.42282 0.31378 0.0
H1453 H 0.18793 0.41803 0.33943 0.0
H1454 H 0.17649 0.4445 0.32622 0.0
H1455 H 0.11101 0.38872 0.30979 0.0
H1456 H 0.12254 0.36202 0.32269 0.0
H1457 H 0.10871 0.42566 0.32574 0.0
H1458 H 0.14595 0.41224 0.28296 0.0
H1459 H 0.17766 0.40901 0.27095 0.0
H1460 H 0.22515 0.47886 0.28034 0.0
H1461 H 0.19381 0.48242 0.29268 0.0
C1462 C 0.0943 0.50212 0.28449 0.0
C1463 C 0.11258 0.52439 0.28586 0.0
C1464 C 0.09864 0.48394 0.28742 0.0
C1465 C 0.1213 0.48779 0.29196 0.0
C1466 C 0.1398 0.5101 0.29223 0.0
C1467 C 0.13547 0.52823 0.28915 0.0
C1468 C 0.12556 0.46888 0.29772 0.0
C1469 C 0.1433 0.46643 0.29092 0.0
C1470 C 0.11283 0.45385 0.31037 0.0
C1471 C 0.09514 0.45649 0.31896 0.0
C1472 C 0.10123 0.47677 0.32666 0.0
C1473 C 0.08439 0.47924 0.33455 0.0
C1474 C 0.06146 0.46146 0.33497 0.0
C1475 C 0.05534 0.44115 0.32753 0.0
C1476 C 0.0721 0.43861 0.31958 0.0
C1477 C 0.17107 0.41138 0.33303 0.0
C1478 C 0.1561 0.38794 0.33213 0.0
C1479 C 0.16463 0.42651 0.32543 0.0
C1480 C 0.14297 0.41852 0.31699 0.0
C1481 C 0.12782 0.39517 0.31623 0.0
C1482 C 0.13445 0.37998 0.32358 0.0
C1483 C 0.13612 0.43473 0.30924 0.0
C1484 C 0.11801 0.43675 0.31576 0.0
C1485 C 0.14872 0.44951 0.2965 0.0
C1486 C 0.16756 0.44754 0.28887 0.0
C1487 C 0.1632 0.42688 0.28259 0.0
C1488 C 0.1811 0.42499 0.2757 0.0
C1489 C 0.20342 0.44371 0.27491 0.0
C1490 C 0.20786 0.46437 0.28097 0.0
C1491 C 0.19002 0.46634 0.2879 0.0
H1492 H 0.21726 0.44222 0.26957 0.0
H1493 H 0.04845 0.46341 0.34109 0.0
H1494 H 0.38254 0.5516 0.27173 0.0
H1495 H 0.34709 0.51854 0.28136 0.0
H1496 H 0.38731 0.48477 0.29444 0.0
H1497 H 0.42249 0.5177 0.28426 0.0
H1498 H 0.34572 0.45457 0.28412 0.0
H1499 H 0.37451 0.5134 0.32221 0.0
H1500 H 0.38811 0.55201 0.33147 0.0
H1501 H 0.32078 0.5458 0.31868 0.0
H1502 H 0.30689 0.50727 0.30905 0.0
H1503 H 0.25918 0.40425 0.35505 0.0
H1504 H 0.29467 0.434 0.34306 0.0
H1505 H 0.26375 0.41233 0.29545 0.0
H1506 H 0.22822 0.3825 0.30734 0.0
H1507 H 0.30227 0.4697 0.32426 0.0
H1508 H 0.31027 0.42253 0.26981 0.0
H1509 H 0.30008 0.38374 0.26284 0.0
H1510 H 0.29972 0.36565 0.31316 0.0
H1511 H 0.31024 0.40437 0.32041 0.0
C1512 C 0.38351 0.53681 0.27627 0.0
C1513 C 0.40501 0.53694 0.27711 0.0
C1514 C 0.36337 0.51802 0.28194 0.0
C1515 C 0.36446 0.49918 0.28897 0.0
C1516 C 0.38587 0.49899 0.28912 0.0
C1517 C 0.40595 0.51772 0.28327 0.0
C1518 C 0.34373 0.48036 0.29695 0.0
C1519 C 0.33614 0.45789 0.29282 0.0
C1520 C 0.33156 0.48449 0.30875 0.0
C1521 C 0.33972 0.50752 0.31478 0.0
C1522 C 0.36264 0.52031 0.32128 0.0
C1523 C 0.3704 0.54218 0.3266 0.0
C1524 C 0.35533 0.55137 0.32564 0.0
C1525 C 0.33244 0.53867 0.3194 0.0
C1526 C 0.32461 0.51681 0.31401 0.0
C1527 C 0.25991 0.40569 0.34203 0.0
C1528 C 0.24073 0.39082 0.33221 0.0
C1529 C 0.28024 0.42283 0.33516 0.0
C1530 C 0.28207 0.42545 0.31831 0.0
C1531 C 0.26298 0.41059 0.30847 0.0
C1532 C 0.24258 0.39352 0.31532 0.0
C1533 C 0.30378 0.4439 0.31108 0.0
C1534 C 0.31166 0.46633 0.31544 0.0
C1535 C 0.31657 0.43962 0.29984 0.0
C1536 C 0.31048 0.41627 0.29564 0.0
C1537 C 0.30793 0.41026 0.27938 0.0
C1538 C 0.30216 0.38829 0.27538 0.0
C1539 C 0.29907 0.37219 0.28755 0.0
C1540 C 0.30192 0.37808 0.30374 0.0
C1541 C 0.30774 0.40004 0.3078 0.0
H1542 H 0.29458 0.35519 0.28443 0.0
H1543 H 0.36138 0.56831 0.32976 0.0
H1544 H 0.44473 0.83504 0.2707 0.0
H1545 H 0.48224 0.8372 0.27934 0.0
H1546 H 0.51504 0.91003 0.27808 0.0
H1547 H 0.47732 0.90769 0.26982 0.0
H1548 H 0.52672 0.85599 0.26934 0.0
H1549 H 0.54918 0.92835 0.31278 0.0
H1550 H 0.52908 0.94501 0.32663 0.0
H1551 H 0.46596 0.88109 0.32618 0.0
H1552 H 0.48579 0.864 0.31257 0.0
H1553 H 0.63751 0.88657 0.30732 0.0
H1554 H 0.60577 0.89092 0.29374 0.0
H1555 H 0.56179 0.85649 0.33366 0.0
H1556 H 0.5934 0.85201 0.34738 0.0
H1557 H 0.55691 0.89272 0.32228 0.0
H1558 H 0.55682 0.82779 0.3019 0.0
H1559 H 0.57398 0.80706 0.28972 0.0
H1560 H 0.58695 0.84871 0.24676 0.0
H1561 H 0.57038 0.87004 0.25886 0.0
C1562 C 0.46017 0.85143 0.27191 0.0
C1563 C 0.45839 0.87119 0.2697 0.0
C1564 C 0.48152 0.85269 0.27677 0.0
C1565 C 0.50131 0.87377 0.27955 0.0
C1566 C 0.49989 0.8936 0.27614 0.0
C1567 C 0.47849 0.8923 0.27132 0.0
C1568 C 0.52245 0.87479 0.28778 0.0
C1569 C 0.53351 0.86425 0.28081 0.0
C1570 C 0.53086 0.88502 0.30298 0.0
C1571 C 0.51891 0.895 0.31149 0.0
C1572 C 0.53104 0.91785 0.3157 0.0
C1573 C 0.51969 0.92736 0.32351 0.0
C1574 C 0.49623 0.91414 0.32723 0.0
C1575 C 0.48411 0.89134 0.32324 0.0
C1576 C 0.49539 0.88173 0.31547 0.0
C1577 C 0.62121 0.88015 0.31333 0.0
C1578 C 0.61791 0.86874 0.32838 0.0
C1579 C 0.60309 0.88263 0.30552 0.0
C1580 C 0.58141 0.87381 0.31264 0.0
C1581 C 0.57842 0.8634 0.32799 0.0
C1582 C 0.59648 0.86079 0.33577 0.0
C1583 C 0.5614 0.87422 0.30372 0.0
C1584 C 0.55045 0.88489 0.31063 0.0
C1585 C 0.55271 0.86355 0.2887 0.0
C1586 C 0.56261 0.85069 0.28136 0.0
C1587 C 0.56356 0.83268 0.28993 0.0
C1588 C 0.57317 0.82081 0.28304 0.0
C1589 C 0.58163 0.8266 0.2675 0.0
C1590 C 0.58048 0.84428 0.25882 0.0
C1591 C 0.57099 0.85628 0.26569 0.0
H1592 H 0.58898 0.81732 0.26219 0.0
H1593 H 0.48747 0.92155 0.33324 0.0
H1594 H 0.13386 0.61584 0.28113 0.0
H1595 H 0.14136 0.65113 0.29333 0.0
H1596 H 0.09735 0.61288 0.33247 0.0
H1597 H 0.08946 0.57754 0.31988 0.0
H1598 H 0.08785 0.64538 0.322 0.0
H1599 H 0.15708 0.64202 0.33801 0.0
H1600 H 0.19178 0.63767 0.33458 0.0
H1601 H 0.2201 0.69623 0.30306 0.0
H1602 H 0.18539 0.70073 0.30609 0.0
H1603 H 0.12494 0.74832 0.36451 0.0
H1604 H 0.11793 0.7105 0.35805 0.0
H1605 H 0.15534 0.73737 0.31433 0.0
H1606 H 0.16245 0.77498 0.32063 0.0
H1607 H 0.16822 0.70895 0.3309 0.0
H1608 H 0.09671 0.70938 0.31297 0.0
H1609 H 0.06195 0.71358 0.31659 0.0
H1610 H 0.03826 0.66025 0.35259 0.0
H1611 H 0.07307 0.65594 0.34933 0.0
C1612 C 0.12598 0.61514 0.29238 0.0
C1613 C 0.11133 0.59423 0.29973 0.0
C1614 C 0.13031 0.6352 0.29939 0.0
C1615 C 0.12021 0.6347 0.31398 0.0
C1616 C 0.10543 0.6137 0.32129 0.0
C1617 C 0.10104 0.59361 0.3142 0.0
C1618 C 0.12461 0.65613 0.32124 0.0
C1619 C 0.10544 0.65912 0.32425 0.0
C1620 C 0.14754 0.67419 0.324 0.0
C1621 C 0.16852 0.6716 0.32219 0.0
C1622 C 0.17062 0.65387 0.33025 0.0
C1623 C 0.19031 0.65139 0.32839 0.0
C1624 C 0.20811 0.66664 0.31858 0.0
C1625 C 0.20629 0.68442 0.31064 0.0
C1626 C 0.18662 0.68696 0.31244 0.0
C1627 C 0.13169 0.74616 0.35354 0.0
C1628 C 0.14416 0.76468 0.34306 0.0
C1629 C 0.12762 0.72454 0.34985 0.0
C1630 C 0.13602 0.72112 0.33566 0.0
C1631 C 0.14873 0.73963 0.32534 0.0
C1632 C 0.15267 0.76113 0.32895 0.0
C1633 C 0.13149 0.6983 0.33131 0.0
C1634 C 0.15066 0.69507 0.32886 0.0
C1635 C 0.10858 0.68001 0.32914 0.0
C1636 C 0.08762 0.68253 0.33104 0.0
C1637 C 0.08418 0.69868 0.32175 0.0
C1638 C 0.06446 0.70106 0.32372 0.0
C1639 C 0.04795 0.68724 0.33485 0.0
C1640 C 0.05109 0.67097 0.34399 0.0
C1641 C 0.07081 0.66855 0.34209 0.0
H1642 H 0.03269 0.6891 0.33635 0.0
H1643 H 0.22334 0.66469 0.31716 0.0
H1644 H 0.83908 0.08807 0.41673 0.0
H1645 H 0.80893 0.05248 0.40507 0.0
H1646 H 0.86231 0.03725 0.39189 0.0
H1647 H 0.89248 0.07267 0.40402 0.0
H1648 H 0.82656 0.02787 0.36723 0.0
H1649 H 0.83334 0.01204 0.42383 0.0
H1650 H 0.83431 0.01867 0.45287 0.0
H1651 H 0.76429 0.00859 0.44808 0.0
H1652 H 0.76305 1.00229 0.41893 0.0
H1653 H 0.74959 0.91207 0.34964 0.0
H1654 H 0.78135 0.94776 0.35979 0.0
H1655 H 0.73159 0.95939 0.38362 0.0
H1656 H 0.69995 0.9233 0.37407 0.0
H1657 H 0.7669 0.97073 0.40291 0.0
H1658 H 0.75941 0.98812 0.34695 0.0
H1659 H 0.75768 0.98335 0.31756 0.0
H1660 H 0.82724 0.99212 0.32048 0.0
H1661 H 0.82928 0.99666 0.34993 0.0
C1662 C 0.84433 0.07707 0.41139 0.0
C1663 C 0.86809 0.08301 0.41142 0.0
C1664 C 0.82713 0.05678 0.40468 0.0
C1665 C 0.83329 0.04203 0.39771 0.0
C1666 C 0.8571 0.04833 0.39718 0.0
C1667 C 0.87433 0.06856 0.40407 0.0
C1668 C 0.8148 0.01976 0.39149 0.0
C1669 C 0.81369 0.01522 0.37505 0.0
C1670 C 0.79761 1.00346 0.4016 0.0
C1671 C 0.79819 0.0069 0.41917 0.0
C1672 C 0.81821 0.01141 0.42894 0.0
C1673 C 0.81881 0.01509 0.44542 0.0
C1674 C 0.79939 0.0141 0.4523 0.0
C1675 C 0.77932 0.00937 0.44272 0.0
C1676 C 0.77867 0.00574 0.42623 0.0
C1677 C 0.74538 0.92228 0.35697 0.0
C1678 C 0.72213 0.91479 0.36096 0.0
C1679 C 0.76361 0.94282 0.36273 0.0
C1680 C 0.75902 0.95668 0.37232 0.0
C1681 C 0.73577 0.94916 0.37628 0.0
C1682 C 0.71761 0.92848 0.37075 0.0
C1683 C 0.77835 0.97874 0.37849 0.0
C1684 C 0.77969 0.98328 0.39499 0.0
C1685 C 0.79555 0.99517 0.36837 0.0
C1686 C 0.7944 0.99249 0.35067 0.0
C1687 C 0.77427 0.98887 0.34134 0.0
C1688 C 0.77325 0.98623 0.32467 0.0
C1689 C 0.79231 0.98737 0.31716 0.0
C1690 C 0.81247 0.99121 0.32631 0.0
C1691 C 0.81358 0.99383 0.34299 0.0
H1692 H 0.79148 0.98532 0.30425 0.0
H1693 H 0.79989 0.01696 0.46507 0.0
H1694 H 0.89865 0.73395 0.39799 0.0
H1695 H 0.93621 0.74191 0.38767 0.0
H1696 H 0.97222 0.79333 0.42332 0.0
H1697 H 0.93447 0.78581 0.43315 0.0
H1698 H 0.98563 0.81002 0.39417 0.0
H1699 H 0.97603 0.74402 0.42397 0.0
H1700 H 0.95566 0.70403 0.43292 0.0
H1701 H 0.95247 0.6834 0.38434 0.0
H1702 H 0.97253 0.72328 0.37505 0.0
H1703 H 0.10147 0.83615 0.38356 0.0
H1704 H 0.0626 0.82329 0.39307 0.0
H1705 H 0.03246 0.77821 0.35304 0.0
H1706 H 0.07185 0.79091 0.34343 0.0
H1707 H 0.01497 0.75735 0.38257 0.0
H1708 H 0.02725 0.82483 0.35353 0.0
H1709 H 0.04872 0.8652 0.34568 0.0
H1710 H 0.0475 0.88342 0.39427 0.0
H1711 H 0.0266 0.84321 0.40251 0.0
C1712 C 0.91468 0.74655 0.4038 0.0
C1713 C 0.91389 0.75943 0.41622 0.0
C1714 C 0.9361 0.75104 0.39797 0.0
C1715 C 0.95707 0.7683 0.40467 0.0
C1716 C 0.95626 0.78001 0.41792 0.0
C1717 C 0.9348 0.77558 0.42366 0.0
C1718 C 0.97948 0.77578 0.39679 0.0
C1719 C 0.99221 0.79855 0.39187 0.0
C1720 C 0.98762 0.76065 0.39323 0.0
C1721 C 0.97558 0.73665 0.39879 0.0
C1722 C 0.97081 0.73096 0.41517 0.0
C1723 C 0.95935 0.70831 0.42031 0.0
C1724 C 0.95272 0.69119 0.4092 0.0
C1725 C 0.95759 0.69668 0.39293 0.0
C1726 C 0.96902 0.71931 0.38772 0.0
C1727 C 0.08662 0.82364 0.37662 0.0
C1728 C 0.08973 0.8145 0.36272 0.0
C1729 C 0.06437 0.81637 0.38208 0.0
C1730 C 0.04464 0.79989 0.37372 0.0
C1731 C 0.04752 0.79098 0.35964 0.0
C1732 C 0.06995 0.79837 0.35409 0.0
C1733 C 0.02122 0.79163 0.38024 0.0
C1734 C 0.00828 0.76875 0.38483 0.0
C1735 C 0.01294 0.80669 0.38364 0.0
C1736 C 0.02548 0.83095 0.37866 0.0
C1737 C 0.03176 0.83744 0.36258 0.0
C1738 C 0.04384 0.86031 0.35806 0.0
C1739 C 0.04956 0.87688 0.36948 0.0
C1740 C 0.04315 0.8706 0.38543 0.0
C1741 C 0.03119 0.84776 0.39004 0.0
H1742 H 0.0589 0.89458 0.36595 0.0
H1743 H 0.94385 0.67366 0.4132 0.0
H1744 H 0.23557 0.14993 0.39691 0.0
H1745 H 0.2337 0.1843 0.38909 0.0
H1746 H 0.18802 0.17211 0.42809 0.0
H1747 H 0.18878 0.13683 0.43518 0.0
H1748 H 0.17137 0.1834 0.40275 0.0
H1749 H 0.24688 0.21505 0.42848 0.0
H1750 H 0.28678 0.22113 0.43457 0.0
H1751 H 0.30544 0.24562 0.38606 0.0
H1752 H 0.26551 0.23933 0.37958 0.0
H1753 H 0.18051 0.29243 0.39507 0.0
H1754 H 0.18678 0.26151 0.40584 0.0
H1755 H 0.21558 0.25961 0.361 0.0
H1756 H 0.20915 0.29052 0.34998 0.0
H1757 H 0.24125 0.2568 0.39067 0.0
H1758 H 0.16288 0.22268 0.36589 0.0
H1759 H 0.12343 0.21863 0.36197 0.0
H1760 H 0.11103 0.20081 0.41214 0.0
H1761 H 0.15059 0.20513 0.41642 0.0
C1762 C 0.22506 0.15459 0.40371 0.0
C1763 C 0.21204 0.14066 0.41647 0.0
C1764 C 0.22423 0.17439 0.39941 0.0
C1765 C 0.21087 0.18102 0.40807 0.0
C1766 C 0.19842 0.1674 0.42118 0.0
C1767 C 0.199 0.14739 0.42533 0.0
C1768 C 0.20906 0.20152 0.40295 0.0
C1769 C 0.18672 0.1995 0.40039 0.0
C1770 C 0.22901 0.22259 0.39965 0.0
C1771 C 0.25311 0.22653 0.40351 0.0
C1772 C 0.25943 0.22157 0.41907 0.0
C1773 C 0.28207 0.22507 0.4226 0.0
C1774 C 0.29862 0.23371 0.4107 0.0
C1775 C 0.29259 0.23891 0.39526 0.0
C1776 C 0.26996 0.23539 0.39165 0.0
C1777 C 0.18835 0.2856 0.3875 0.0
C1778 C 0.19424 0.2939 0.37162 0.0
C1779 C 0.19189 0.2679 0.39369 0.0
C1780 C 0.20154 0.25825 0.38419 0.0
C1781 C 0.20813 0.2669 0.36852 0.0
C1782 C 0.20434 0.28447 0.36222 0.0
C1783 C 0.2037 0.23842 0.39039 0.0
C1784 C 0.22603 0.24063 0.39314 0.0
C1785 C 0.1838 0.21766 0.39418 0.0
C1786 C 0.15978 0.21443 0.39151 0.0
C1787 C 0.1518 0.21803 0.37611 0.0
C1788 C 0.12941 0.21568 0.37382 0.0
C1789 C 0.11476 0.20953 0.3868 0.0
C1790 C 0.12242 0.2056 0.4021 0.0
C1791 C 0.14481 0.20798 0.40446 0.0
H1792 H 0.09745 0.20777 0.38501 0.0
H1793 H 0.31614 0.23642 0.41346 0.0
H1794 H 0.62077 0.48639 0.77244 0.0
H1795 H 0.65746 0.51838 0.76302 0.0
H1796 H 0.61855 0.53324 0.72518 0.0
H1797 H 0.58198 0.50182 0.73499 0.0
H1798 H 0.65637 0.52676 0.7145 0.0
H1799 H 0.64204 0.56959 0.75242 0.0
H1800 H 0.63378 0.57766 0.77912 0.0
H1801 H 0.69715 0.58057 0.79917 0.0
H1802 H 0.70568 0.5723 0.77255 0.0
H1803 H 0.7507 0.62446 0.68014 0.0
H1804 H 0.71352 0.59716 0.69166 0.0
H1805 H 0.74993 0.59629 0.73655 0.0
H1806 H 0.78685 0.62423 0.72534 0.0
H1807 H 0.71262 0.59559 0.74385 0.0
H1808 H 0.72743 0.55209 0.70727 0.0
H1809 H 0.73614 0.54231 0.68128 0.0
H1810 H 0.67291 0.53798 0.65967 0.0
H1811 H 0.66397 0.54802 0.68549 0.0
C1812 C 0.6201 0.497 0.76246 0.0
C1813 C 0.59865 0.49166 0.75438 0.0
C1814 C 0.64103 0.51513 0.75699 0.0
C1815 C 0.64083 0.52809 0.74324 0.0
C1816 C 0.61922 0.52342 0.7357 0.0
C1817 C 0.59835 0.5056 0.74136 0.0
C1818 C 0.66312 0.54555 0.73613 0.0
C1819 C 0.66855 0.54198 0.72081 0.0
C1820 C 0.67938 0.56505 0.74454 0.0
C1821 C 0.67436 0.57009 0.76053 0.0
C1822 C 0.65411 0.57174 0.76255 0.0
C1823 C 0.6494 0.5764 0.77767 0.0
C1824 C 0.66487 0.57953 0.79087 0.0
C1825 C 0.68515 0.5781 0.78895 0.0
C1826 C 0.68995 0.57347 0.77383 0.0
C1827 C 0.75079 0.61842 0.69245 0.0
C1828 C 0.77186 0.62658 0.70176 0.0
C1829 C 0.72946 0.60266 0.69904 0.0
C1830 C 0.7287 0.5942 0.71499 0.0
C1831 C 0.74979 0.60243 0.72427 0.0
C1832 C 0.77101 0.61843 0.71779 0.0
C1833 C 0.70608 0.57691 0.72208 0.0
C1834 C 0.70055 0.58043 0.73745 0.0
C1835 C 0.68987 0.55711 0.71381 0.0
C1836 C 0.69516 0.55104 0.69827 0.0
C1837 C 0.71547 0.54921 0.69695 0.0
C1838 C 0.72043 0.5436 0.68225 0.0
C1839 C 0.70512 0.53959 0.66882 0.0
C1840 C 0.68477 0.54113 0.67008 0.0
C1841 C 0.67974 0.54676 0.68474 0.0
H1842 H 0.70899 0.53525 0.65745 0.0
H1843 H 0.66121 0.58313 0.80258 0.0
H1844 H 0.52306 0.14208 0.77114 0.0
H1845 H 0.49121 0.14819 0.75929 0.0
H1846 H 0.48197 0.10455 0.72016 0.0
H1847 H 0.51372 0.09834 0.73223 0.0
H1848 H 0.48411 0.14577 0.7101 0.0
H1849 H 0.44351 0.08491 0.74792 0.0
H1850 H 0.43684 0.06562 0.77459 0.0
H1851 H 0.42943 0.11885 0.79472 0.0
H1852 H 0.43646 0.13867 0.76822 0.0
H1853 H 0.37995 0.14409 0.67832 0.0
H1854 H 0.40825 0.1325 0.68899 0.0
H1855 H 0.41611 0.16672 0.7333 0.0
H1856 H 0.38748 0.17782 0.72294 0.0
H1857 H 0.41333 0.12727 0.73982 0.0
H1858 H 0.45691 0.18979 0.70371 0.0
H1859 H 0.4653 0.21106 0.67778 0.0
H1860 H 0.46876 0.15713 0.65524 0.0
H1861 H 0.46007 0.13539 0.68101 0.0
C1862 C 0.51399 0.13374 0.76009 0.0
C1863 C 0.52051 0.11976 0.75252 0.0
C1864 C 0.49591 0.13718 0.75335 0.0
C1865 C 0.4842 0.12669 0.73891 0.0
C1866 C 0.49082 0.11276 0.7313 0.0
C1867 C 0.50878 0.10918 0.73815 0.0
C1868 C 0.46531 0.13065 0.73167 0.0
C1869 C 0.46842 0.14139 0.71644 0.0
C1870 C 0.44519 0.12539 0.74018 0.0
C1871 C 0.44071 0.11337 0.7561 0.0
C1872 C 0.44064 0.0926 0.75806 0.0
C1873 C 0.43677 0.08155 0.77314 0.0
C1874 C 0.43276 0.09102 0.78635 0.0
C1875 C 0.43256 0.11154 0.78448 0.0
C1876 C 0.43647 0.12268 0.76943 0.0
C1877 C 0.38772 0.14914 0.69033 0.0
C1878 C 0.38152 0.16191 0.69977 0.0
C1879 C 0.40393 0.14256 0.6964 0.0
C1880 C 0.41448 0.14896 0.71188 0.0
C1881 C 0.40815 0.16156 0.72134 0.0
C1882 C 0.39182 0.16794 0.71537 0.0
C1883 C 0.4322 0.1427 0.71829 0.0
C1884 C 0.4289 0.1315 0.73338 0.0
C1885 C 0.45229 0.14779 0.70973 0.0
C1886 C 0.45758 0.16086 0.69424 0.0
C1887 C 0.45928 0.18239 0.69319 0.0
C1888 C 0.46412 0.19455 0.67853 0.0
C1889 C 0.46749 0.18543 0.66486 0.0
C1890 C 0.4661 0.16416 0.66584 0.0
C1891 C 0.46123 0.15191 0.68047 0.0
H1892 H 0.47124 0.19487 0.65352 0.0
H1893 H 0.42977 0.08245 0.79802 0.0
H1894 H 0.85644 0.38748 0.75766 0.0
H1895 H 0.84746 0.35073 0.74715 0.0
H1896 H 0.88998 0.3845 0.70642 0.0
H1897 H 0.89897 0.42128 0.71709 0.0
H1898 H 0.84818 0.34604 0.69777 0.0
H1899 H 0.91201 0.36684 0.73673 0.0
H1900 H 0.93222 0.37941 0.7633 0.0
H1901 H 0.8784 0.31994 0.7859 0.0
H1902 H 0.85761 0.30722 0.75949 0.0
H1903 H 0.85669 0.25059 0.67387 0.0
H1904 H 0.8654 0.28821 0.68197 0.0
H1905 H 0.83034 0.25981 0.72639 0.0
H1906 H 0.82205 0.22232 0.71857 0.0
H1907 H 0.86988 0.29669 0.73238 0.0
H1908 H 0.8051 0.27638 0.69416 0.0
H1909 H 0.78361 0.2639 0.66796 0.0
H1910 H 0.83787 0.32189 0.64431 0.0
H1911 H 0.85985 0.33456 0.67036 0.0
C1912 C 0.86363 0.38689 0.7464 0.0
C1913 C 0.87824 0.40696 0.73808 0.0
C1914 C 0.85858 0.36601 0.74043 0.0
C1915 C 0.86822 0.36491 0.72607 0.0
C1916 C 0.88233 0.38499 0.71749 0.0
C1917 C 0.88743 0.4059 0.72353 0.0
C1918 C 0.86428 0.34284 0.7204 0.0
C1919 C 0.85321 0.33535 0.70521 0.0
C1920 C 0.87046 0.32875 0.73028 0.0
C1921 C 0.88315 0.33617 0.74614 0.0
C1922 C 0.90439 0.35652 0.74738 0.0
C1923 C 0.91596 0.36367 0.76241 0.0
C1924 C 0.90658 0.3505 0.77628 0.0
C1925 C 0.88564 0.33013 0.77515 0.0
C1926 C 0.87396 0.32294 0.76015 0.0
C1927 C 0.85077 0.25233 0.68534 0.0
C1928 C 0.83864 0.2334 0.69555 0.0
C1929 C 0.85569 0.27387 0.68993 0.0
C1930 C 0.84832 0.27685 0.70473 0.0
C1931 C 0.83624 0.25797 0.71493 0.0
C1932 C 0.83146 0.2365 0.71041 0.0
C1933 C 0.85345 0.29964 0.70978 0.0
C1934 C 0.86486 0.30733 0.72487 0.0
C1935 C 0.84745 0.31383 0.69984 0.0
C1936 C 0.83424 0.30629 0.68418 0.0
C1937 C 0.81254 0.28638 0.68335 0.0
C1938 C 0.80025 0.27928 0.66853 0.0
C1939 C 0.8094 0.29206 0.65447 0.0
C1940 C 0.83082 0.31199 0.65521 0.0
C1941 C 0.8432 0.31915 0.67 0.0
H1942 H 0.79986 0.28654 0.64301 0.0
H1943 H 0.91556 0.35607 0.78791 0.0
H1944 H 0.1477 0.93191 0.64363 0.0
H1945 H 0.1771 0.96909 0.65382 0.0
H1946 H 0.16095 1.00152 0.6128 0.0
H1947 H 0.13156 0.96429 0.60277 0.0
H1948 H 0.20794 0.01863 0.61785 0.0
H1949 H 0.14282 1.0027 0.64995 0.0
H1950 H 0.11135 0.97993 0.66855 0.0
H1951 H 0.162 0.98203 0.70476 0.0
H1952 H 0.19377 1.00453 0.68627 0.0
H1953 H 0.27326 0.13158 0.64373 0.0
H1954 H 0.24199 0.09492 0.63478 0.0
H1955 H 0.25176 0.06353 0.67891 0.0
H1956 H 0.28235 0.10038 0.68822 0.0
H1957 H 0.20772 0.04557 0.67227 0.0
H1958 H 0.27273 0.06024 0.64066 0.0
H1959 H 0.30479 0.08239 0.62232 0.0
H1960 H 0.25544 0.0817 0.58557 0.0
H1961 H 0.2231 0.05978 0.60376 0.0
C1962 C 0.1503 0.94707 0.637 0.0
C1963 C 0.13738 0.94542 0.62253 0.0
C1964 C 0.16706 0.96828 0.64276 0.0
C1965 C 0.17121 0.98821 0.63413 0.0
C1966 C 0.15812 0.98646 0.61969 0.0
C1967 C 0.14129 0.96528 0.614 0.0
C1968 C 0.18957 0.01082 0.63989 0.0
C1969 C 0.20772 0.02465 0.62968 0.0
C1970 C 0.18972 0.01849 0.65548 0.0
C1971 C 0.17066 0.00512 0.66666 0.0
C1972 C 0.14724 0.99816 0.66183 0.0
C1973 C 0.12935 0.98532 0.67236 0.0
C1974 C 0.13467 0.97949 0.68781 0.0
C1975 C 0.1579 0.98653 0.69278 0.0
C1976 C 0.17586 0.99935 0.68228 0.0
C1977 C 0.26878 0.11687 0.65153 0.0
C1978 C 0.28045 0.11894 0.66667 0.0
C1979 C 0.25092 0.09582 0.64635 0.0
C1980 C 0.24468 0.07618 0.65598 0.0
C1981 C 0.25616 0.0783 0.67119 0.0
C1982 C 0.27375 0.09942 0.6765 0.0
C1983 C 0.22621 0.05349 0.65024 0.0
C1984 C 0.20802 0.03961 0.66045 0.0
C1985 C 0.22614 0.04565 0.63468 0.0
C1986 C 0.24552 0.05854 0.62363 0.0
C1987 C 0.26873 0.06491 0.6287 0.0
C1988 C 0.28695 0.07742 0.61833 0.0
C1989 C 0.28216 0.0835 0.60281 0.0
C1990 C 0.25912 0.077 0.5976 0.0
C1991 C 0.24084 0.06451 0.60793 0.0
H1992 H 0.29629 0.09321 0.5948 0.0
H1993 H 0.12079 0.96954 0.69595 0.0
H1994 H 0.05606 0.18127 0.63415 0.0
H1995 H 0.02238 0.17353 0.64996 0.0
H1996 H 0.03377 0.24099 0.63885 0.0
H1997 H 0.06794 0.2489 0.62367 0.0
H1998 H 0.01898 0.22843 0.66893 0.0
H1999 H -0.00337 0.19705 0.61556 0.0
H2000 H 0.99531 0.17333 0.59349 0.0
H2001 H 0.96235 0.11414 0.62411 0.0
H2002 H 0.96381 0.1376 0.64644 0.0
H2003 H 0.88805 0.18707 0.64871 0.0
H2004 H 0.92663 0.19339 0.64281 0.0
H2005 H 0.94195 0.18768 0.69359 0.0
H2006 H 0.90317 0.18181 0.6997 0.0
H2007 H 0.94422 0.1662 0.64721 0.0
H2008 H 0.00235 0.22012 0.69999 0.0
H2009 H 0.00356 0.24713 0.71942 0.0
H2010 H 0.96387 0.26653 0.68559 0.0
H2011 H 0.96269 0.23986 0.66591 0.0
C2012 C 0.05156 0.1945 0.63544 0.0
C2013 C 0.06418 0.21553 0.6276 0.0
C2014 C 0.03238 0.19009 0.64439 0.0
C2015 C 0.02544 0.2066 0.64539 0.0
C2016 C 0.03884 0.22802 0.63824 0.0
C2017 C 0.0581 0.23245 0.62942 0.0
C2018 C 0.00293 0.20098 0.6523 0.0
C2019 C 0.00262 0.21467 0.66434 0.0
C2020 C 0.98161 0.18322 0.64614 0.0
C2021 C 0.98059 0.16909 0.63271 0.0
C2022 C 0.98926 0.17899 0.61761 0.0
C2023 C 0.98847 0.1656 0.60506 0.0
C2024 C 0.97881 0.14225 0.60742 0.0
C2025 C 0.96987 0.13224 0.62232 0.0
C2026 C 0.97068 0.14557 0.63493 0.0
C2027 C 0.8996 0.18723 0.65868 0.0
C2028 C 0.89254 0.18385 0.67468 0.0
C2029 C 0.92165 0.19079 0.65527 0.0
C2030 C 0.93713 0.19091 0.66774 0.0
C2031 C 0.93032 0.18782 0.6838 0.0
C2032 C 0.9082 0.18447 0.68726 0.0
C2033 C 0.96014 0.19396 0.6636 0.0
C2034 C 0.96056 0.17966 0.65211 0.0
C2035 C 0.98145 0.21157 0.66992 0.0
C2036 C 0.98218 0.22778 0.68159 0.0
C2037 C 0.99392 0.23019 0.6967 0.0
C2038 C 0.9946 0.24543 0.70775 0.0
C2039 C 0.98371 0.25847 0.70377 0.0
C2040 C 0.9722 0.25635 0.6887 0.0
C2041 C 0.9715 0.24115 0.6776 0.0
H2042 H 0.98425 0.27025 0.71234 0.0
H2043 H 0.97821 0.1319 0.59768 0.0
H2044 H 0.75057 0.84143 0.61014 0.0
H2045 H 0.75629 0.80858 0.61638 0.0
H2046 H 0.82907 0.85327 0.62869 0.0
H2047 H 0.82338 0.88594 0.62186 0.0
H2048 H 0.82452 0.81664 0.61491 0.0
H2049 H 0.78883 0.83279 0.65739 0.0
H2050 H 0.75915 0.83942 0.66923 0.0
H2051 H 0.70586 0.77257 0.65665 0.0
H2052 H 0.7352 0.76568 0.64448 0.0
H2053 H 0.8168 0.73544 0.68667 0.0
H2054 H 0.80913 0.76501 0.67474 0.0
H2055 H 0.80358 0.73898 0.62735 0.0
H2056 H 0.81184 0.70973 0.63912 0.0
H2057 H 0.77441 0.76598 0.65803 0.0
H2058 H 0.8255 0.78235 0.59993 0.0
H2059 H 0.85825 0.77814 0.59069 0.0
H2060 H 0.88685 0.78493 0.6393 0.0
H2061 H 0.85451 0.78955 0.64878 0.0
C2062 C 0.76788 0.8441 0.61365 0.0
C2063 C 0.78656 0.86605 0.61557 0.0
C2064 C 0.77113 0.8254 0.61738 0.0
C2065 C 0.79304 0.82846 0.62327 0.0
C2066 C 0.81202 0.85046 0.6242 0.0
C2067 C 0.80877 0.86908 0.62039 0.0
C2068 C 0.79579 0.80905 0.62991 0.0
C2069 C 0.81343 0.80544 0.62423 0.0
C2070 C 0.78179 0.79481 0.64242 0.0
C2071 C 0.76415 0.7988 0.64988 0.0
C2072 C 0.77075 0.81956 0.65705 0.0
C2073 C 0.754 0.82336 0.66383 0.0
C2074 C 0.73062 0.80645 0.66366 0.0
C2075 C 0.72396 0.78567 0.65674 0.0
C2076 C 0.74065 0.7818 0.64991 0.0
C2077 C 0.81381 0.7359 0.67372 0.0
C2078 C 0.81514 0.72032 0.66385 0.0
C2079 C 0.80937 0.75281 0.66691 0.0
C2080 C 0.80611 0.75444 0.65012 0.0
C2081 C 0.8065 0.73835 0.6403 0.0
C2082 C 0.81115 0.72158 0.64708 0.0
C2083 C 0.80294 0.77335 0.6429 0.0
C2084 C 0.78528 0.77695 0.64853 0.0
C2085 C 0.81743 0.788 0.63073 0.0
C2086 C 0.83743 0.78605 0.62507 0.0
C2087 C 0.83886 0.78309 0.60862 0.0
C2088 C 0.85734 0.78061 0.60335 0.0
C2089 C 0.87457 0.78119 0.61441 0.0
C2090 C 0.87346 0.78441 0.63075 0.0
C2091 C 0.85505 0.78696 0.63608 0.0
H2092 H 0.88881 0.77918 0.61031 0.0
H2093 H 0.71767 0.80942 0.66891 0.0
H2094 H 0.04855 0.88826 0.61461 0.0
H2095 H 0.01199 0.85519 0.62245 0.0
H2096 H 0.04377 0.81286 0.61929 0.0
H2097 H 0.08078 0.84626 0.61202 0.0
H2098 H 0.99319 0.79379 0.60665 0.0
H2099 H 0.04396 0.82705 0.65383 0.0
H2100 H 0.06975 0.85932 0.67095 0.0
H2101 H 0.01312 0.8727 0.67734 0.0
H2102 H 0.98709 0.84073 0.65999 0.0
H2103 H 0.90836 0.70111 0.6529 0.0
H2104 H 0.94416 0.73049 0.64092 0.0
H2105 H 0.93024 0.78176 0.65795 0.0
H2106 H 0.8952 0.75258 0.67056 0.0
H2107 H 0.97327 0.79558 0.66307 0.0
H2108 H 0.92213 0.76405 0.61672 0.0
H2109 H 0.8954 0.73388 0.59839 0.0
H2110 H 0.95028 0.71924 0.58886 0.0
H2111 H 0.97727 0.74906 0.60743 0.0
C2112 C 0.04767 0.87187 0.6155 0.0
C2113 C 0.0676 0.86988 0.613 0.0
C2114 C 0.02675 0.85297 0.61987 0.0
C2115 C 0.02517 0.83155 0.62161 0.0
C2116 C 0.04457 0.8292 0.61801 0.0
C2117 C 0.06567 0.84825 0.61382 0.0
C2118 C 0.00406 0.81229 0.62867 0.0
C2119 C 0.98893 0.79393 0.61905 0.0
C2120 C -0.00181 0.81279 0.64471 0.0
C2121 C 0.01364 0.83162 0.6555 0.0
C2122 C 0.03705 0.83696 0.6588 0.0
C2123 C 0.0517 0.85519 0.66855 0.0
C2124 C 0.04309 0.86808 0.6752 0.0
C2125 C 0.01977 0.86271 0.67216 0.0
C2126 C 0.00505 0.84453 0.66238 0.0
C2127 C 0.91295 0.71866 0.65408 0.0
C2128 C 0.89894 0.72445 0.66279 0.0
C2129 C 0.9334 0.73551 0.64711 0.0
C2130 C 0.94001 0.75855 0.6483 0.0
C2131 C 0.9258 0.76424 0.65687 0.0
C2132 C 0.90567 0.74747 0.66409 0.0
C2133 C 0.9619 0.77682 0.64105 0.0
C2134 C 0.97733 0.79515 0.65067 0.0
C2135 C 0.96777 0.77641 0.62491 0.0
C2136 C 0.95165 0.75862 0.61362 0.0
C2137 C 0.92846 0.75429 0.61081 0.0
C2138 C 0.91326 0.73725 0.60036 0.0
C2139 C 0.92111 0.7246 0.59248 0.0
C2140 C 0.94421 0.72902 0.595 0.0
C2141 C 0.95947 0.74598 0.60549 0.0
H2142 H 0.90934 0.71139 0.58441 0.0
H2143 H 0.05448 0.88221 0.68273 0.0
H2144 H 0.15783 0.25849 0.60232 0.0
H2145 H 0.19562 0.25918 0.60768 0.0
H2146 H 0.1591 0.18781 0.61922 0.0
H2147 H 0.12166 0.18704 0.61337 0.0
H2148 H 0.19431 0.23244 0.64406 0.0
H2149 H 0.18019 0.18674 0.59522 0.0
H2150 H 0.1762 0.18219 0.56576 0.0
H2151 H 0.24359 0.24064 0.56046 0.0
H2152 H 0.24757 0.246 0.58986 0.0
H2153 H 0.2581 0.18118 0.67676 0.0
H2154 H 0.23044 0.19105 0.66267 0.0
H2155 H 0.2846 0.23809 0.63182 0.0
H2156 H 0.3123 0.22789 0.64559 0.0
H2157 H 0.24621 0.21418 0.61436 0.0
H2158 H 0.26477 0.25705 0.66167 0.0
H2159 H 0.27135 0.26479 0.69077 0.0
H2160 H 0.19957 0.2168 0.69876 0.0
H2161 H 0.19262 0.20851 0.66974 0.0
C2162 C 0.15808 0.24287 0.60535 0.0
C2163 C 0.1371 0.22271 0.60758 0.0
C2164 C 0.17953 0.24326 0.6084 0.0
C2165 C 0.18002 0.22347 0.61364 0.0
C2166 C 0.15903 0.20312 0.61486 0.0
C2167 C 0.13774 0.2027 0.61166 0.0
C2168 C 0.20152 0.22452 0.62102 0.0
C2169 C 0.20573 0.22848 0.63761 0.0
C2170 C 0.21672 0.22012 0.6124 0.0
C2171 C 0.2139 0.2171 0.59471 0.0
C2172 C 0.19389 0.19895 0.58776 0.0
C2173 C 0.19168 0.19615 0.57106 0.0
C2174 C 0.20955 0.2112 0.56121 0.0
C2175 C 0.2297 0.22904 0.56807 0.0
C2176 C 0.23189 0.23202 0.58474 0.0
C2177 C 0.26422 0.19378 0.66709 0.0
C2178 C 0.28743 0.20381 0.66236 0.0
C2179 C 0.24839 0.19948 0.65907 0.0
C2180 C 0.25554 0.21555 0.64633 0.0
C2181 C 0.27874 0.22569 0.64163 0.0
C2182 C 0.29455 0.21988 0.64957 0.0
C2183 C 0.23846 0.2211 0.63765 0.0
C2184 C 0.23511 0.21853 0.62084 0.0
C2185 C 0.22418 0.22709 0.64603 0.0
C2186 C 0.22822 0.23207 0.66352 0.0
C2187 C 0.25042 0.24803 0.66964 0.0
C2188 C 0.25421 0.25253 0.68613 0.0
C2189 C 0.2359 0.24127 0.69661 0.0
C2190 C 0.21374 0.22551 0.69063 0.0
C2191 C 0.20986 0.22093 0.67415 0.0
H2192 H 0.23887 0.24477 0.70937 0.0
H2193 H 0.20781 0.20897 0.5483 0.0
H2194 H 0.74856 0.92834 0.62401 0.0
H2195 H 0.75392 0.96316 0.63578 0.0
H2196 H 0.82542 0.98161 0.64944 0.0
H2197 H 0.82023 0.94706 0.63719 0.0
H2198 H 0.79888 0.98978 0.67361 0.0
H2199 H 0.81867 1.00386 0.61736 0.0
H2200 H 0.81011 0.99464 0.58852 0.0
H2201 H 0.74952 1.00338 0.58905 0.0
H2202 H 0.75745 0.01221 0.618 0.0
H2203 H 0.8421 0.10663 0.68631 0.0
H2204 H 0.83595 0.06977 0.67844 0.0
H2205 H 0.77296 0.05826 0.65127 0.0
H2206 H 0.77965 0.0955 0.65851 0.0
H2207 H 0.79528 0.04573 0.63429 0.0
H2208 H 0.7735 0.0314 0.68931 0.0
H2209 H 0.77811 0.03746 0.71864 0.0
H2210 H 0.83771 0.02684 0.7212 0.0
H2211 H 0.83365 0.02101 0.69183 0.0
C2212 C 0.76534 0.93982 0.62962 0.0
C2213 C 0.78407 0.93528 0.62959 0.0
C2214 C 0.76835 0.95956 0.63639 0.0
C2215 C 0.7901 0.97495 0.64337 0.0
C2216 C 0.8085 0.96986 0.64414 0.0
C2217 C 0.80553 0.9502 0.63719 0.0
C2218 C 0.79412 0.99716 0.64862 0.0
C2219 C 0.7984 1.00219 0.66506 0.0
C2220 C 0.79283 0.01298 0.63743 0.0
C2221 C 0.78854 0.0085 0.61988 0.0
C2222 C 0.80344 1.00369 0.61135 0.0
C2223 C 0.79871 0.99853 0.59499 0.0
C2224 C 0.77925 0.99837 0.58697 0.0
C2225 C 0.76456 1.00348 0.59528 0.0
C2226 C 0.76918 0.00858 0.61167 0.0
C2227 C 0.82686 0.09615 0.67875 0.0
C2228 C 0.81133 0.10393 0.67306 0.0
C2229 C 0.82329 0.07502 0.67431 0.0
C2230 C 0.80378 0.06099 0.66443 0.0
C2231 C 0.78816 0.06872 0.65887 0.0
C2232 C 0.79197 0.09001 0.66305 0.0
C2233 C 0.79997 0.03858 0.65945 0.0
C2234 C 0.79578 0.03346 0.64297 0.0
C2235 C 0.80094 0.02254 0.67067 0.0
C2236 C 0.80341 0.02599 0.68834 0.0
C2237 C 0.7877 0.03052 0.69611 0.0
C2238 C 0.79019 0.03389 0.71274 0.0
C2239 C 0.80823 0.0326 0.72177 0.0
C2240 C 0.82377 0.02787 0.71419 0.0
C2241 C 0.82137 0.02451 0.69755 0.0
H2242 H 0.81013 0.03521 0.73465 0.0
H2243 H 0.77558 0.99431 0.57431 0.0
H2244 H 0.55592 0.4044 0.74085 0.0
H2245 H 0.52658 0.3683 0.72921 0.0
H2246 H 0.47173 0.38181 0.7417 0.0
H2247 H 0.50109 0.41828 0.75269 0.0
H2248 H 0.46403 0.3372 0.75071 0.0
H2249 H 0.4853 0.38854 0.70442 0.0
H2250 H 0.51319 0.41661 0.68558 0.0
H2251 H 0.53447 0.3689 0.67274 0.0
H2252 H 0.50695 0.34064 0.69171 0.0
H2253 H 0.36543 0.25446 0.70883 0.0
H2254 H 0.39696 0.29002 0.71903 0.0
H2255 H 0.44719 0.27877 0.6955 0.0
H2256 H 0.41545 0.24336 0.68474 0.0
H2257 H 0.45929 0.32143 0.69248 0.0
H2258 H 0.43889 0.26972 0.73711 0.0
H2259 H 0.41286 0.24077 0.75635 0.0
H2260 H 0.39261 0.28738 0.77323 0.0
H2261 H 0.41828 0.31653 0.75391 0.0
C2262 C 0.53763 0.39978 0.74087 0.0
C2263 C 0.53078 0.41417 0.74763 0.0
C2264 C 0.52087 0.37911 0.73433 0.0
C2265 C 0.49692 0.37233 0.73458 0.0
C2266 C 0.49007 0.38661 0.74145 0.0
C2267 C 0.50682 0.4074 0.74775 0.0
C2268 C 0.47895 0.3504 0.72767 0.0
C2269 C 0.46281 0.33382 0.73796 0.0
C2270 C 0.47788 0.34566 0.71113 0.0
C2271 C 0.49425 0.36256 0.69962 0.0
C2272 C 0.49607 0.3841 0.69769 0.0
C2273 C 0.51179 0.40003 0.68697 0.0
C2274 C 0.52565 0.39457 0.678 0.0
C2275 C 0.52376 0.37312 0.67971 0.0
C2276 C 0.5081 0.35714 0.69044 0.0
C2277 C 0.38317 0.25952 0.70576 0.0
C2278 C 0.38787 0.24591 0.69601 0.0
C2279 C 0.40126 0.27988 0.7117 0.0
C2280 C 0.42464 0.28699 0.70838 0.0
C2281 C 0.42936 0.2737 0.69833 0.0
C2282 C 0.41118 0.25341 0.69218 0.0
C2283 C 0.44401 0.30819 0.71549 0.0
C2284 C 0.46048 0.32466 0.70526 0.0
C2285 C 0.44567 0.31267 0.73218 0.0
C2286 C 0.43038 0.29526 0.74395 0.0
C2287 C 0.42878 0.27376 0.74485 0.0
C2288 C 0.41409 0.25731 0.75578 0.0
C2289 C 0.40104 0.26221 0.76598 0.0
C2290 C 0.40271 0.2836 0.76531 0.0
C2291 C 0.41735 0.3001 0.75438 0.0
H2292 H 0.38968 0.24946 0.77443 0.0
H2293 H 0.5378 0.40693 0.66971 0.0
H2294 H 0.61255 0.15971 0.75847 0.0
H2295 H 0.64856 0.16581 0.74655 0.0
H2296 H 0.6244 0.09412 0.74982 0.0
H2297 H 0.58806 0.08806 0.76139 0.0
H2298 H 0.67415 0.12298 0.75707 0.0
H2299 H 0.61454 0.11183 0.7155 0.0
H2300 H 0.58466 0.11949 0.70161 0.0
H2301 H 0.63617 0.18893 0.69411 0.0
H2302 H 0.66636 0.18166 0.70799 0.0
H2303 H 0.74742 0.11727 0.70173 0.0
H2304 H 0.71211 0.11028 0.71487 0.0
H2305 H 0.7261 0.17817 0.70217 0.0
H2306 H 0.76093 0.18481 0.68829 0.0
H2307 H 0.68139 0.15135 0.70026 0.0
H2308 H 0.74186 0.16255 0.73995 0.0
H2309 H 0.7721 0.15549 0.75364 0.0
H2310 H 0.72024 0.0879 0.76613 0.0
H2311 H 0.68965 0.09431 0.75204 0.0
C2312 C 0.61524 0.14539 0.75691 0.0
C2313 C 0.59761 0.12343 0.76057 0.0
C2314 C 0.6357 0.14884 0.75011 0.0
C2315 C 0.63887 0.13035 0.74705 0.0
C2316 C 0.62217 0.10857 0.75203 0.0
C2317 C 0.60157 0.10512 0.75871 0.0
C2318 C 0.65856 0.1336 0.73742 0.0
C2319 C 0.67567 0.12893 0.7446 0.0
C2320 C 0.6607 0.14186 0.72128 0.0
C2321 C 0.64263 0.14626 0.7129 0.0
C2322 C 0.61945 0.12876 0.71096 0.0
C2323 C 0.60249 0.13301 0.70304 0.0
C2324 C 0.60849 0.1547 0.69702 0.0
C2325 C 0.63153 0.17215 0.6988 0.0
C2326 C 0.64859 0.16796 0.70665 0.0
C2327 C 0.74268 0.13054 0.70148 0.0
C2328 C 0.75688 0.1516 0.69407 0.0
C2329 C 0.72263 0.12661 0.70912 0.0
C2330 C 0.71682 0.14393 0.70997 0.0
C2331 C 0.73032 0.1646 0.70179 0.0
C2332 C 0.75015 0.16837 0.69381 0.0
C2333 C 0.69724 0.14074 0.71985 0.0
C2334 C 0.68005 0.14544 0.71273 0.0
C2335 C 0.69518 0.13268 0.73612 0.0
C2336 C 0.71349 0.12885 0.74478 0.0
C2337 C 0.7369 0.14612 0.74551 0.0
C2338 C 0.75413 0.14223 0.75336 0.0
C2339 C 0.74814 0.12127 0.76078 0.0
C2340 C 0.72487 0.10413 0.76036 0.0
C2341 C 0.70757 0.10786 0.75242 0.0
H2342 H 0.7615 0.11828 0.76686 0.0
H2343 H 0.59531 0.15797 0.69096 0.0
H2344 H 0.84591 0.46181 0.74536 0.0
H2345 H 0.84119 0.49516 0.73901 0.0
H2346 H 0.9154 0.53823 0.74683 0.0
H2347 H 0.92024 0.50471 0.75248 0.0
H2348 H 0.88112 0.55335 0.75922 0.0
H2349 H 0.90351 0.52972 0.71196 0.0
H2350 H 0.89935 0.50057 0.69338 0.0
H2351 H 0.82817 0.48416 0.68178 0.0
H2352 H 0.8318 0.51295 0.70054 0.0
H2353 H 0.88624 0.64968 0.71555 0.0
H2354 H 0.89383 0.62012 0.72782 0.0
H2355 H 0.83012 0.56921 0.70489 0.0
H2356 H 0.82296 0.59856 0.69218 0.0
H2357 H 0.86185 0.55911 0.70104 0.0
H2358 H 0.83706 0.58061 0.74712 0.0
H2359 H 0.83694 0.60559 0.76766 0.0
H2360 H 0.90749 0.62332 0.78277 0.0
H2361 H 0.90805 0.59845 0.76227 0.0
C2362 C 0.86114 0.47842 0.74579 0.0
C2363 C 0.88347 0.48078 0.74909 0.0
C2364 C 0.85843 0.49741 0.74234 0.0
C2365 C 0.87797 0.51908 0.74239 0.0
C2366 C 0.90012 0.52162 0.74681 0.0
C2367 C 0.90286 0.50254 0.75004 0.0
C2368 C 0.87549 0.5386 0.73593 0.0
C2369 C 0.87726 0.55493 0.74648 0.0
C2370 C 0.86986 0.54016 0.7194 0.0
C2371 C 0.86787 0.52334 0.70775 0.0
C2372 C 0.88693 0.51978 0.70553 0.0
C2373 C 0.88467 0.50334 0.69496 0.0
C2374 C 0.86349 0.49048 0.68643 0.0
C2375 C 0.84456 0.49411 0.68841 0.0
C2376 C 0.84671 0.5105 0.699 0.0
C2377 C 0.87388 0.63217 0.71313 0.0
C2378 C 0.85411 0.6265 0.70276 0.0
C2379 C 0.87813 0.61526 0.72027 0.0
C2380 C 0.86245 0.59233 0.71743 0.0
C2381 C 0.84257 0.58672 0.70724 0.0
C2382 C 0.8385 0.60357 0.69994 0.0
C2383 C 0.86712 0.5741 0.72433 0.0
C2384 C 0.86583 0.55787 0.71381 0.0
C2385 C 0.87279 0.5725 0.74095 0.0
C2386 C 0.8727 0.5879 0.75301 0.0
C2387 C 0.85263 0.59001 0.75471 0.0
C2388 C 0.85245 0.60409 0.76639 0.0
C2389 C 0.87223 0.61611 0.77648 0.0
C2390 C 0.8922 0.61404 0.77492 0.0
C2391 C 0.89245 0.59992 0.7633 0.0
H2392 H 0.87207 0.62698 0.78553 0.0
H2393 H 0.86177 0.47774 0.67827 0.0
H2394 H 0.44321 0.92367 0.25086 0.0
H2395 H 0.4618 0.94585 0.22665 0.0
H2396 H 0.46323 0.88818 0.20804 0.0
H2397 H 0.44481 0.86609 0.23257 0.0
H2398 H 0.50268 0.92829 0.2006 0.0
H2399 H 0.42015 0.89751 0.19558 0.0
H2400 H 0.38101 0.88839 0.20395 0.0
H2401 H 0.40239 0.95909 0.20551 0.0
H2402 H 0.44179 0.96865 0.19735 0.0
H2403 H 0.51014 0.96707 0.11855 0.0
H2404 H 0.49932 0.94552 0.14391 0.0
H2405 H 0.49353 0.99946 0.16499 0.0
H2406 H 0.50322 0.0206 0.1393 0.0
H2407 H 0.45628 0.95941 0.17068 0.0
H2408 H 0.54037 0.98878 0.17475 0.0
H2409 H 0.57754 0.99513 0.16424 0.0
H2410 H 0.55078 0.92349 0.16202 0.0
H2411 H 0.51336 0.91672 0.17239 0.0
C2412 C 0.44778 0.91593 0.24163 0.0
C2413 C 0.44235 0.89324 0.24324 0.0
C2414 C 0.45837 0.92852 0.22788 0.0
C2415 C 0.46343 0.91849 0.21543 0.0
C2416 C 0.45935 0.89617 0.21749 0.0
C2417 C 0.44885 0.88359 0.23138 0.0
C2418 C 0.47113 0.93085 0.19986 0.0
C2419 C 0.49248 0.93494 0.19395 0.0
C2420 C 0.45774 0.93944 0.1912 0.0
C2421 C 0.434 0.9338 0.19599 0.0
C2422 C 0.41657 0.91112 0.19782 0.0
C2423 C 0.39432 0.90587 0.20251 0.0
C2424 C 0.38924 0.92315 0.2053 0.0
C2425 C 0.40637 0.94572 0.20336 0.0
C2426 C 0.42866 0.95107 0.19868 0.0
C2427 C 0.50652 0.97431 0.12857 0.0
C2428 C 0.50743 0.99546 0.12686 0.0
C2429 C 0.50061 0.9621 0.14313 0.0
C2430 C 0.49587 0.97099 0.15641 0.0
C2431 C 0.49722 0.99233 0.15489 0.0
C2432 C 0.50297 1.00448 0.14025 0.0
C2433 C 0.48821 0.95751 0.17161 0.0
C2434 C 0.46665 0.95298 0.17737 0.0
C2435 C 0.50121 0.94818 0.17989 0.0
C2436 C 0.52403 0.95226 0.17427 0.0
C2437 C 0.5424 0.97439 0.172 0.0
C2438 C 0.56351 0.97806 0.16606 0.0
C2439 C 0.5665 0.95972 0.16243 0.0
C2440 C 0.54844 0.93767 0.16484 0.0
C2441 C 0.5273 0.93391 0.17079 0.0
H2442 H 0.58281 0.9626 0.15777 0.0
H2443 H 0.37201 0.91905 0.20894 0.0
H2444 H 0.12246 0.54761 0.25011 0.0
H2445 H 0.10923 0.53607 0.22204 0.0
H2446 H 0.03788 0.51181 0.23464 0.0
H2447 H 0.05126 0.52338 0.26259 0.0
H2448 H 0.07688 0.49653 0.20544 0.0
H2449 H 0.01386 0.53269 0.20684 0.0
H2450 H 0.00922 0.56093 0.22158 0.0
H2451 H 0.08357 0.59912 0.23008 0.0
H2452 H 0.08863 0.57108 0.21543 0.0
H2453 H 0.00127 0.46941 0.13414 0.0
H2454 H 0.01769 0.4745 0.1619 0.0
H2455 H 0.06102 0.54574 0.15196 0.0
H2456 H 0.04443 0.54085 0.12433 0.0
H2457 H 0.03839 0.53826 0.17951 0.0
H2458 H 0.08492 0.51163 0.15567 0.0
H2459 H 0.09218 0.48557 0.14033 0.0
H2460 H 0.05577 0.43234 0.17502 0.0
H2461 H 0.048 0.45801 0.19045 0.0
C2462 C 0.10395 0.53917 0.24687 0.0
C2463 C 0.08779 0.53645 0.25827 0.0
C2464 C 0.0964 0.53264 0.23091 0.0
C2465 C 0.07261 0.52342 0.22622 0.0
C2466 C 0.05633 0.51914 0.23797 0.0
C2467 C 0.0639 0.52564 0.25387 0.0
C2468 C 0.06505 0.52056 0.20888 0.0
C2469 C 0.06838 0.50556 0.19975 0.0
C2470 C 0.05442 0.53271 0.2014 0.0
C2471 C 0.05158 0.54971 0.21016 0.0
C2472 C 0.0292 0.54714 0.21185 0.0
C2473 C 0.0265 0.56307 0.22022 0.0
C2474 C 0.04608 0.58174 0.22684 0.0
C2475 C 0.06841 0.58456 0.22505 0.0
C2476 C 0.0712 0.56862 0.21676 0.0
C2477 C 0.01431 0.48615 0.13788 0.0
C2478 C 0.02153 0.50473 0.12703 0.0
C2479 C 0.02382 0.489 0.1537 0.0
C2480 C 0.04068 0.51048 0.15898 0.0
C2481 C 0.04807 0.529 0.14813 0.0
C2482 C 0.03869 0.52615 0.13231 0.0
C2483 C 0.04982 0.51391 0.17602 0.0
C2484 C 0.04678 0.52909 0.18514 0.0
C2485 C 0.061 0.50215 0.18336 0.0
C2486 C 0.06568 0.48669 0.17413 0.0
C2487 C 0.07828 0.49432 0.15995 0.0
C2488 C 0.08253 0.47963 0.15126 0.0
C2489 C 0.07439 0.4573 0.15667 0.0
C2490 C 0.06204 0.44963 0.17083 0.0
C2491 C 0.05773 0.46425 0.17956 0.0
H2492 H 0.0777 0.44595 0.14993 0.0
H2493 H 0.04396 0.59407 0.2333 0.0
H2494 H 0.4472 0.52844 0.25749 0.0
H2495 H 0.44805 0.51237 0.2318 0.0
H2496 H 0.42166 0.55313 0.20658 0.0
H2497 H 0.42022 0.56852 0.23242 0.0
H2498 H 0.40574 0.51411 0.19127 0.0
H2499 H 0.48055 0.57194 0.21073 0.0
H2500 H 0.51374 0.59074 0.23034 0.0
H2501 H 0.52485 0.53322 0.23149 0.0
H2502 H 0.49165 0.51404 0.21191 0.0
H2503 H 0.4594 0.52614 0.11554 0.0
H2504 H 0.44637 0.5319 0.14103 0.0
H2505 H 0.46883 0.48776 0.16563 0.0
H2506 H 0.48142 0.48151 0.14022 0.0
H2507 H 0.48526 0.52724 0.1811 0.0
H2508 H 0.41105 0.47115 0.1588 0.0
H2509 H 0.37932 0.45518 0.13783 0.0
H2510 H 0.36809 0.51226 0.14068 0.0
H2511 H 0.4 0.52876 0.16152 0.0
C2512 C 0.44072 0.53318 0.2465 0.0
C2513 C 0.43349 0.54951 0.24683 0.0
C2514 C 0.44147 0.52427 0.2318 0.0
C2515 C 0.43543 0.53191 0.21713 0.0
C2516 C 0.42647 0.54696 0.21765 0.0
C2517 C 0.42554 0.55569 0.23239 0.0
C2518 C 0.44077 0.52614 0.20131 0.0
C2519 C 0.42316 0.5171 0.18901 0.0
C2520 C 0.46348 0.52998 0.19826 0.0
C2521 C 0.48348 0.54147 0.20999 0.0
C2522 C 0.48998 0.56325 0.21524 0.0
C2523 C 0.5088 0.57398 0.22634 0.0
C2524 C 0.52131 0.56313 0.23222 0.0
C2525 C 0.51511 0.54158 0.22695 0.0
C2526 C 0.49632 0.53079 0.21583 0.0
C2527 C 0.46121 0.51731 0.12629 0.0
C2528 C 0.47168 0.50346 0.12574 0.0
C2529 C 0.45376 0.52067 0.14091 0.0
C2530 C 0.45654 0.51022 0.1553 0.0
C2531 C 0.46659 0.49611 0.15473 0.0
C2532 C 0.47393 0.49267 0.14015 0.0
C2533 C 0.4502 0.51489 0.17111 0.0
C2534 C 0.46775 0.52396 0.18339 0.0
C2535 C 0.42755 0.51137 0.17398 0.0
C2536 C 0.40808 0.5013 0.16163 0.0
C2537 C 0.40193 0.48038 0.15489 0.0
C2538 C 0.38389 0.47122 0.14303 0.0
C2539 C 0.37175 0.48272 0.13789 0.0
C2540 C 0.37754 0.50338 0.14466 0.0
C2541 C 0.39558 0.51263 0.15651 0.0
H2542 H 0.35782 0.47561 0.12869 0.0
H2543 H 0.53587 0.57146 0.24083 0.0
H2544 H 0.87391 0.45692 0.78726 0.0
H2545 H 0.89044 0.47296 0.81391 0.0
H2546 H 0.96001 0.49923 0.79669 0.0
H2547 H 0.94321 0.48256 0.77029 0.0
H2548 H 0.95605 0.47641 0.8234 0.0
H2549 H 0.93684 0.53366 0.80593 0.0
H2550 H 0.91182 0.54937 0.79489 0.0
H2551 H 0.86715 0.52047 0.83493 0.0
H2552 H 0.89164 0.50418 0.84607 0.0
H2553 H 0.01795 0.53675 0.89264 0.0
H2554 H 0.00063 0.53006 0.86523 0.0
H2555 H 0.93183 0.49228 0.88409 0.0
H2556 H 0.94902 0.49824 0.91162 0.0
H2557 H 0.9355 0.52247 0.85674 0.0
H2558 H 0.95416 0.46328 0.87266 0.0
H2559 H 0.9801 0.44849 0.88346 0.0
H2560 H 0.02723 0.48312 0.8454 0.0
H2561 H 0.00171 0.49841 0.83452 0.0
C2562 C 0.89269 0.46659 0.78921 0.0
C2563 C 0.90744 0.46868 0.77696 0.0
C2564 C 0.90215 0.47578 0.80435 0.0
C2565 C 0.92651 0.4874 0.80732 0.0
C2566 C 0.94119 0.49031 0.79472 0.0
C2567 C 0.9317 0.48095 0.77968 0.0
C2568 C 0.93669 0.49456 0.82388 0.0
C2569 C 0.95183 0.48683 0.83053 0.0
C2570 C 0.93075 0.50767 0.83341 0.0
C2571 C 0.91598 0.51749 0.82676 0.0
C2572 C 0.92156 0.53046 0.81232 0.0
C2573 C 0.90749 0.5395 0.80605 0.0
C2574 C 0.88788 0.53587 0.81419 0.0
C2575 C 0.88233 0.52324 0.82863 0.0
C2576 C 0.89631 0.5141 0.83493 0.0
C2577 C -0.00086 0.52692 0.89101 0.0
C2578 C 0.98493 0.51775 0.90439 0.0
C2579 C 0.98926 0.52332 0.87533 0.0
C2580 C 0.96498 0.51058 0.87265 0.0
C2581 C 0.95062 0.50226 0.88592 0.0
C2582 C 0.9605 0.5057 0.90165 0.0
C2583 C 0.95488 0.50445 0.85601 0.0
C2584 C 0.93973 0.51221 0.84945 0.0
C2585 C 0.9609 0.49152 0.84644 0.0
C2586 C 0.97615 0.48218 0.85288 0.0
C2587 C 0.97015 0.46789 0.86667 0.0
C2588 C 0.98476 0.45939 0.8728 0.0
C2589 C 0.00533 0.46491 0.86515 0.0
C2590 C 0.0113 0.47889 0.85133 0.0
C2591 C -0.00323 0.48747 0.84517 0.0
H2592 H 0.01662 0.45831 0.8699 0.0
H2593 H 0.877 0.54287 0.80931 0.0
H2594 H 0.54551 0.489 0.77617 0.0
H2595 H 0.54072 0.50074 0.80247 0.0
H2596 H 0.58876 0.47985 0.82447 0.0
H2597 H 0.59302 0.46775 0.79803 0.0
H2598 H 0.55042 0.46105 0.84023 0.0
H2599 H 0.60128 0.53705 0.82389 0.0
H2600 H 0.61701 0.57107 0.80621 0.0
H2601 H 0.55199 0.57197 0.80655 0.0
H2602 H 0.53584 0.53792 0.82429 0.0
H2603 H 0.54054 0.49538 0.91832 0.0
H2604 H 0.55599 0.49273 0.89293 0.0
H2605 H 0.50525 0.50605 0.86632 0.0
H2606 H 0.4893 0.5082 0.89159 0.0
H2607 H 0.54871 0.53063 0.85394 0.0
H2608 H 0.4979 0.45295 0.8696 0.0
H2609 H 0.48344 0.41957 0.88795 0.0
H2610 H 0.55047 0.42253 0.88913 0.0
H2611 H 0.56542 0.45613 0.87094 0.0
C2612 C 0.55589 0.48801 0.78652 0.0
C2613 C 0.57009 0.47806 0.78505 0.0
C2614 C 0.55304 0.49455 0.80162 0.0
C2615 C 0.56441 0.49129 0.81561 0.0
C2616 C 0.57978 0.4826 0.81394 0.0
C2617 C 0.58257 0.47604 0.79881 0.0
C2618 C 0.55821 0.49457 0.832 0.0
C2619 C 0.55057 0.47649 0.84331 0.0
C2620 C 0.55777 0.51444 0.83605 0.0
C2621 C 0.56729 0.53482 0.8253 0.0
C2622 C 0.59027 0.54439 0.8201 0.0
C2623 C 0.59928 0.56371 0.81008 0.0
C2624 C 0.58547 0.5736 0.80517 0.0
C2625 C 0.56265 0.56426 0.81034 0.0
C2626 C 0.55359 0.545 0.82043 0.0
C2627 C 0.53241 0.49748 0.9071 0.0
C2628 C 0.51353 0.50196 0.90715 0.0
C2629 C 0.5414 0.49608 0.89254 0.0
C2630 C 0.53176 0.49908 0.87763 0.0
C2631 C 0.51311 0.50378 0.87762 0.0
C2632 C 0.50404 0.50508 0.89216 0.0
C2633 C 0.54086 0.49709 0.86204 0.0
C2634 C 0.54889 0.51533 0.85088 0.0
C2635 C 0.54184 0.47743 0.85817 0.0
C2636 C 0.53285 0.4572 0.86905 0.0
C2637 C 0.50961 0.44659 0.87388 0.0
C2638 C 0.50131 0.42761 0.88423 0.0
C2639 C 0.51604 0.41898 0.88974 0.0
C2640 C 0.53909 0.42927 0.88487 0.0
C2641 C 0.54747 0.44826 0.87453 0.0
H2642 H 0.50959 0.40428 0.89775 0.0
H2643 H 0.59248 0.58855 0.7974 0.0
H2644 H 0.59511 0.13302 0.79744 0.0
H2645 H 0.60177 0.12072 0.82471 0.0
H2646 H 0.55078 0.05197 0.81348 0.0
H2647 H 0.54466 0.06437 0.7863 0.0
H2648 H 0.5699 0.10431 0.8463 0.0
H2649 H 0.55885 0.01445 0.83629 0.0
H2650 H 0.57228 0.99651 0.81752 0.0
H2651 H 0.63073 0.06105 0.80612 0.0
H2652 H 0.61789 0.07935 0.82501 0.0
H2653 H 0.50474 0.02384 0.90421 0.0
H2654 H 0.52197 0.04411 0.87919 0.0
H2655 H 0.58797 0.04851 0.89493 0.0
H2656 H 0.57074 0.02806 0.92008 0.0
H2657 H 0.57459 0.03512 0.86263 0.0
H2658 H 0.58685 0.09521 0.89549 0.0
H2659 H 0.57697 0.11519 0.91501 0.0
H2660 H 0.52353 0.11422 0.88189 0.0
H2661 H 0.53292 0.09399 0.86223 0.0
C2662 C 0.58608 0.11522 0.80073 0.0
C2663 C 0.56936 0.09956 0.78999 0.0
C2664 C 0.58971 0.10821 0.81628 0.0
C2665 C 0.57679 0.0854 0.82118 0.0
C2666 C 0.56124 0.06958 0.80996 0.0
C2667 C 0.55762 0.07662 0.79449 0.0
C2668 C 0.57692 0.07843 0.83843 0.0
C2669 C 0.57129 0.08938 0.84989 0.0
C2670 C 0.57932 0.05929 0.84328 0.0
C2671 C 0.58731 0.0483 0.83204 0.0
C2672 C 0.57466 0.02481 0.82988 0.0
C2673 C 0.58215 0.01458 0.81919 0.0
C2674 C 0.60232 0.02764 0.81061 0.0
C2675 C 0.61507 0.05096 0.81274 0.0
C2676 C 0.60767 0.06128 0.82342 0.0
C2677 C 0.52286 0.02895 0.9023 0.0
C2678 C 0.53637 0.0243 0.91408 0.0
C2679 C 0.53274 0.04069 0.88807 0.0
C2680 C 0.55629 0.04795 0.88529 0.0
C2681 C 0.56979 0.04309 0.89689 0.0
C2682 C 0.55996 0.03152 0.91125 0.0
C2683 C 0.56637 0.06034 0.87007 0.0
C2684 C 0.57382 0.05037 0.85905 0.0
C2685 C 0.56622 0.0807 0.8657 0.0
C2686 C 0.56051 0.09296 0.87742 0.0
C2687 C 0.57288 0.09912 0.89241 0.0
C2688 C 0.56739 0.11052 0.90349 0.0
C2689 C 0.5496 0.11594 0.89971 0.0
C2690 C 0.53731 0.11001 0.88481 0.0
C2691 C 0.54274 0.09862 0.87368 0.0
H2692 H 0.54536 0.12476 0.9083 0.0
H2693 H 0.60808 0.01968 0.80234 0.0
H2694 H 0.12114 0.21185 0.57479 0.0
H2695 H 0.1354 0.22752 0.54779 0.0
H2696 H 0.12417 0.28385 0.55587 0.0
H2697 H 0.11116 0.26889 0.58297 0.0
H2698 H 0.10318 0.25794 0.52539 0.0
H2699 H 0.17462 0.29275 0.55989 0.0
H2700 H 0.20404 0.2905 0.57869 0.0
H2701 H 0.22025 0.25716 0.54291 0.0
H2702 H 0.19027 0.25841 0.52413 0.0
H2703 H 0.15458 0.34478 0.46834 0.0
H2704 H 0.14277 0.32189 0.49318 0.0
H2705 H 0.17935 0.28682 0.48035 0.0
H2706 H 0.19158 0.31004 0.45557 0.0
H2707 H 0.18646 0.29508 0.51128 0.0
H2708 H 0.12004 0.26199 0.47594 0.0
H2709 H 0.08952 0.26008 0.45619 0.0
H2710 H 0.06241 0.28443 0.49147 0.0
H2711 H 0.0931 0.28699 0.51135 0.0
C2712 C 0.12213 0.22774 0.57081 0.0
C2713 C 0.1149 0.23914 0.58078 0.0
C2714 C 0.13005 0.23654 0.55543 0.0
C2715 C 0.13053 0.25666 0.54987 0.0
C2716 C 0.12363 0.26816 0.55992 0.0
C2717 C 0.11618 0.25962 0.57532 0.0
C2718 C 0.13812 0.26606 0.53356 0.0
C2719 C 0.12137 0.26615 0.52226 0.0
C2720 C 0.1617 0.2758 0.52937 0.0
C2721 C 0.17992 0.27535 0.54068 0.0
C2722 C 0.18419 0.28462 0.55611 0.0
C2723 C 0.20098 0.28353 0.56678 0.0
C2724 C 0.21392 0.27357 0.56205 0.0
C2725 C 0.21011 0.26472 0.54663 0.0
C2726 C 0.19318 0.26557 0.53598 0.0
C2727 C 0.16007 0.33217 0.47082 0.0
C2728 C 0.17389 0.3291 0.46001 0.0
C2729 C 0.15328 0.31906 0.48498 0.0
C2730 C 0.1598 0.30233 0.48848 0.0
C2731 C 0.17406 0.29958 0.47788 0.0
C2732 C 0.18107 0.31287 0.46376 0.0
C2733 C 0.15161 0.28782 0.50322 0.0
C2734 C 0.16818 0.28663 0.51422 0.0
C2735 C 0.12772 0.2765 0.50699 0.0
C2736 C 0.10906 0.27488 0.49511 0.0
C2737 C 0.10772 0.26714 0.47946 0.0
C2738 C 0.09038 0.26595 0.46823 0.0
C2739 C 0.0741 0.27223 0.47255 0.0
C2740 C 0.07508 0.27963 0.48813 0.0
C2741 C 0.09245 0.28096 0.49938 0.0
H2742 H 0.06068 0.27126 0.46384 0.0
H2743 H 0.22699 0.27285 0.57031 0.0
H2744 H 0.80114 0.90115 0.57626 0.0
H2745 H 0.787 0.89061 0.54817 0.0
H2746 H 0.71684 0.84958 0.56425 0.0
H2747 H 0.73107 0.86065 0.59221 0.0
H2748 H 0.72989 0.83042 0.53833 0.0
H2749 H 0.72773 0.89836 0.55191 0.0
H2750 H 0.74462 0.93699 0.56218 0.0
H2751 H 0.79793 0.96102 0.52739 0.0
H2752 H 0.78125 0.92251 0.51686 0.0
H2753 H 0.65876 0.82478 0.46916 0.0
H2754 H 0.67754 0.82976 0.49606 0.0
H2755 H 0.74252 0.88135 0.47718 0.0
H2756 H 0.72357 0.87724 0.45035 0.0
H2757 H 0.73486 0.8947 0.50413 0.0
H2758 H 0.73348 0.82746 0.48788 0.0
H2759 H 0.71609 0.78896 0.47736 0.0
H2760 H 0.67033 0.76309 0.51702 0.0
H2761 H 0.68722 0.8015 0.52767 0.0
C2762 C 0.7829 0.88925 0.57373 0.0
C2763 C 0.76716 0.88129 0.58622 0.0
C2764 C 0.7748 0.88339 0.55777 0.0
C2765 C 0.75086 0.86938 0.55416 0.0
C2766 C 0.73538 0.86027 0.5668 0.0
C2767 C 0.74346 0.86643 0.58272 0.0
C2768 C 0.74163 0.86611 0.5372 0.0
C2769 C 0.73081 0.84439 0.53083 0.0
C2770 C 0.74329 0.88446 0.52739 0.0
C2771 C 0.75341 0.90756 0.53372 0.0
C2772 C 0.74313 0.91187 0.54652 0.0
C2773 C 0.7526 0.93375 0.55233 0.0
C2774 C 0.7724 0.95142 0.54549 0.0
C2775 C 0.78264 0.9473 0.53271 0.0
C2776 C 0.77313 0.92547 0.52677 0.0
C2777 C 0.677 0.83734 0.47072 0.0
C2778 C 0.68961 0.85063 0.45754 0.0
C2779 C 0.68782 0.83994 0.4861 0.0
C2780 C 0.71157 0.85569 0.48864 0.0
C2781 C 0.72422 0.86899 0.47552 0.0
C2782 C 0.71338 0.86649 0.46014 0.0
C2783 C 0.72294 0.85888 0.50508 0.0
C2784 C 0.73413 0.88066 0.51144 0.0
C2785 C 0.72166 0.84055 0.51483 0.0
C2786 C 0.71149 0.8174 0.50849 0.0
C2787 C 0.71959 0.81359 0.49429 0.0
C2788 C 0.70984 0.79178 0.48832 0.0
C2789 C 0.69209 0.7736 0.49649 0.0
C2790 C 0.68407 0.77719 0.51069 0.0
C2791 C 0.69375 0.79898 0.51671 0.0
H2792 H 0.68456 0.75672 0.49185 0.0
H2793 H 0.77977 0.96833 0.55007 0.0
H2794 H 0.07374 0.88408 0.57486 0.0
H2795 H 0.07562 0.8695 0.54869 0.0
H2796 H 0.13273 0.85961 0.56794 0.0
H2797 H 0.13057 0.87395 0.59397 0.0
H2798 H 0.14368 0.88669 0.54046 0.0
H2799 H 0.0815 0.81467 0.55805 0.0
H2800 H 0.04265 0.78953 0.56874 0.0
H2801 H 0.01011 0.80653 0.52803 0.0
H2802 H 0.04878 0.83185 0.51709 0.0
H2803 H 0.16536 0.83582 0.47719 0.0
H2804 H 0.15451 0.84309 0.50288 0.0
H2805 H 0.09562 0.84612 0.47925 0.0
H2806 H 0.10588 0.83792 0.45342 0.0
H2807 H 0.08348 0.82339 0.50801 0.0
H2808 H 0.14462 0.8943 0.48987 0.0
H2809 H 0.1831 0.92096 0.4793 0.0
H2810 H 0.2172 0.9083 0.52118 0.0
H2811 H 0.1789 0.88129 0.5319 0.0
C2812 C 0.08602 0.87794 0.57357 0.0
C2813 C 0.102 0.88003 0.58631 0.0
C2814 C 0.08723 0.86978 0.55864 0.0
C2815 C 0.10448 0.86364 0.55629 0.0
C2816 C 0.11939 0.86437 0.56941 0.0
C2817 C 0.11807 0.87238 0.58428 0.0
C2818 C 0.10867 0.85865 0.53991 0.0
C2819 C 0.13061 0.87265 0.53347 0.0
C2820 C 0.09134 0.8409 0.5305 0.0
C2821 C 0.06804 0.8253 0.53682 0.0
C2822 C 0.06606 0.81311 0.5514 0.0
C2823 C 0.04407 0.79879 0.55748 0.0
C2824 C 0.02392 0.79642 0.54905 0.0
C2825 C 0.02572 0.80831 0.53449 0.0
C2826 C 0.04767 0.82262 0.52833 0.0
C2827 C 0.14992 0.83775 0.4774 0.0
C2828 C 0.13652 0.83625 0.46313 0.0
C2829 C 0.14384 0.84213 0.49214 0.0
C2830 C 0.12437 0.84543 0.49304 0.0
C2831 C 0.11075 0.8437 0.47889 0.0
C2832 C 0.11681 0.83925 0.46408 0.0
C2833 C 0.11875 0.85114 0.50874 0.0
C2834 C 0.09654 0.83743 0.515 0.0
C2835 C 0.13579 0.86933 0.518 0.0
C2836 C 0.15888 0.88561 0.51162 0.0
C2837 C 0.16032 0.89706 0.49677 0.0
C2838 C 0.18211 0.91226 0.49076 0.0
C2839 C 0.20259 0.91628 0.49954 0.0
C2840 C 0.20132 0.90515 0.51438 0.0
C2841 C 0.17958 0.88991 0.52043 0.0
H2842 H 0.21944 0.92806 0.49487 0.0
H2843 H 0.0069 0.78537 0.5538 0.0
H2844 H 0.54397 0.79489 0.11795 0.0
H2845 H 0.56137 0.81278 0.14396 0.0
H2846 H 0.62988 0.83068 0.12802 0.0
H2847 H 0.61217 0.81224 0.10226 0.0
H2848 H 0.62416 0.8111 0.15617 0.0
H2849 H 0.61199 0.87017 0.13312 0.0
H2850 H 0.59033 0.88787 0.11941 0.0
H2851 H 0.54483 0.86825 0.15909 0.0
H2852 H 0.56586 0.84991 0.1729 0.0
H2853 H 0.68719 0.87818 0.22334 0.0
H2854 H 0.67056 0.8708 0.19573 0.0
H2855 H 0.60136 0.83241 0.21382 0.0
H2856 H 0.6179 0.83857 0.24149 0.0
H2857 H 0.60867 0.86501 0.18445 0.0
H2858 H 0.61991 0.80213 0.20518 0.0
H2859 H 0.64349 0.78607 0.21836 0.0
H2860 H 0.69374 0.81641 0.18154 0.0
H2861 H 0.67061 0.83297 0.16829 0.0
C2862 C 0.56275 0.80303 0.12005 0.0
C2863 C 0.57687 0.80225 0.10837 0.0
C2864 C 0.57271 0.81329 0.1348 0.0
C2865 C 0.59699 0.82318 0.13795 0.0
C2866 C 0.61113 0.82312 0.12591 0.0
C2867 C 0.60112 0.8127 0.11124 0.0
C2868 C 0.60742 0.83183 0.15422 0.0
C2869 C 0.62103 0.82319 0.16218 0.0
C2870 C 0.60309 0.84735 0.16224 0.0
C2871 C 0.5904 0.85844 0.154 0.0
C2872 C 0.59723 0.86941 0.13888 0.0
C2873 C 0.58507 0.87959 0.13108 0.0
C2874 C 0.56619 0.87915 0.13836 0.0
C2875 C 0.55944 0.86854 0.15346 0.0
C2876 C 0.57147 0.85824 0.16127 0.0
C2877 C 0.66842 0.86813 0.22151 0.0
C2878 C 0.6539 0.8588 0.23473 0.0
C2879 C 0.65895 0.86419 0.2057 0.0
C2880 C 0.63476 0.85113 0.20278 0.0
C2881 C 0.62006 0.84275 0.21586 0.0
C2882 C 0.62956 0.84637 0.23169 0.0
C2883 C 0.62517 0.84416 0.18616 0.0
C2884 C 0.61177 0.85306 0.17825 0.0
C2885 C 0.6299 0.82913 0.178 0.0
C2886 C 0.64369 0.819 0.18587 0.0
C2887 C 0.6361 0.80556 0.19999 0.0
C2888 C 0.64936 0.79633 0.20745 0.0
C2889 C 0.67015 0.80028 0.20082 0.0
C2890 C 0.67767 0.81341 0.18668 0.0
C2891 C 0.66448 0.82271 0.17919 0.0
H2892 H 0.68039 0.79311 0.20661 0.0
H2893 H 0.55683 0.88708 0.13232 0.0
H2894 H 0.22802 0.83124 0.10905 0.0
H2895 H 0.2242 0.84492 0.13502 0.0
H2896 H 0.24955 0.80326 0.16008 0.0
H2897 H 0.25324 0.78974 0.13412 0.0
H2898 H 0.19448 0.81838 0.15708 0.0
H2899 H 0.27323 0.82513 0.1977 0.0
H2900 H 0.31517 0.8377 0.19552 0.0
H2901 H 0.31809 0.88049 0.15481 0.0
H2902 H 0.27628 0.86849 0.1569 0.0
H2903 H 0.16661 0.80204 0.23933 0.0
H2904 H 0.18084 0.79995 0.21325 0.0
H2905 H 0.23177 0.87066 0.21537 0.0
H2906 H 0.21792 0.87278 0.24165 0.0
H2907 H 0.25079 0.84645 0.20406 0.0
H2908 H 0.18261 0.85403 0.19205 0.0
H2909 H 0.14142 0.84456 0.19397 0.0
H2910 H 0.11895 0.77832 0.17624 0.0
H2911 H 0.16002 0.7873 0.17442 0.0
C2912 C 0.23372 0.82588 0.12011 0.0
C2913 C 0.24134 0.80982 0.11965 0.0
C2914 C 0.23125 0.83341 0.13495 0.0
C2915 C 0.23656 0.82516 0.14961 0.0
C2916 C 0.24563 0.81018 0.14904 0.0
C2917 C 0.2479 0.80256 0.13421 0.0
C2918 C 0.23022 0.83007 0.16537 0.0
C2919 C 0.20688 0.82462 0.1673 0.0
C2920 C 0.24634 0.83842 0.17877 0.0
C2921 C 0.27152 0.84571 0.17738 0.0
C2922 C 0.28282 0.83727 0.18831 0.0
C2923 C 0.30659 0.84431 0.18709 0.0
C2924 C 0.31927 0.85984 0.17501 0.0
C2925 C 0.30822 0.86839 0.16413 0.0
C2926 C 0.28448 0.86144 0.16531 0.0
C2927 C 0.18103 0.81711 0.23438 0.0
C2928 C 0.19101 0.83761 0.24264 0.0
C2929 C 0.18904 0.81593 0.21936 0.0
C2930 C 0.20725 0.83521 0.21219 0.0
C2931 C 0.21767 0.85556 0.22058 0.0
C2932 C 0.20958 0.85678 0.23557 0.0
C2933 C 0.21498 0.83419 0.1958 0.0
C2934 C 0.23849 0.84029 0.19379 0.0
C2935 C 0.19912 0.82671 0.18223 0.0
C2936 C 0.17439 0.82128 0.18323 0.0
C2937 C 0.16888 0.83739 0.18867 0.0
C2938 C 0.14556 0.83212 0.18972 0.0
C2939 C 0.12758 0.81083 0.18526 0.0
C2940 C 0.13289 0.79479 0.1797 0.0
C2941 C 0.15619 0.79997 0.17864 0.0
H2942 H 0.10953 0.80678 0.18609 0.0
H2943 H 0.33767 0.86528 0.1741 0.0
H2944 H 0.24952 0.42915 0.11833 0.0
H2945 H 0.24671 0.40714 0.14328 0.0
H2946 H 0.24679 0.45965 0.17076 0.0
H2947 H 0.25092 0.482 0.14593 0.0
H2948 H 0.2653 0.43963 0.18887 0.0
H2949 H 0.19531 0.41511 0.15459 0.0
H2950 H 0.17174 0.40188 0.12917 0.0
H2951 H 0.18107 0.34328 0.13119 0.0
H2952 H 0.20501 0.35638 0.15652 0.0
H2953 H 0.18325 0.38317 0.249 0.0
H2954 H 0.20108 0.40304 0.22408 0.0
H2955 H 0.21239 0.34808 0.21194 0.0
H2956 H 0.19562 0.32844 0.23727 0.0
H2957 H 0.19219 0.36593 0.18601 0.0
H2958 H 0.25622 0.38961 0.22495 0.0
H2959 H 0.27501 0.40353 0.25157 0.0
H2960 H 0.27361 0.4657 0.24172 0.0
H2961 H 0.25392 0.45174 0.21517 0.0
C2962 C 0.25002 0.43633 0.1298 0.0
C2963 C 0.25019 0.45707 0.13034 0.0
C2964 C 0.24812 0.42368 0.14402 0.0
C2965 C 0.24579 0.43143 0.15885 0.0
C2966 C 0.24837 0.4532 0.15949 0.0
C2967 C 0.25066 0.46595 0.14534 0.0
C2968 C 0.23752 0.41603 0.17321 0.0
C2969 C 0.24937 0.4235 0.18822 0.0
C2970 C 0.21674 0.39488 0.17241 0.0
C2971 C 0.20217 0.38685 0.15731 0.0
C2972 C 0.19244 0.39948 0.14955 0.0
C2973 C 0.17902 0.392 0.13517 0.0
C2974 C 0.17497 0.37178 0.12854 0.0
C2975 C 0.18428 0.35896 0.13632 0.0
C2976 C 0.19777 0.3664 0.15068 0.0
C2977 C 0.1897 0.37532 0.24116 0.0
C2978 C 0.18816 0.35424 0.24529 0.0
C2979 C 0.19975 0.38666 0.22686 0.0
C2980 C 0.2082 0.37707 0.2163 0.0
C2981 C 0.20594 0.35571 0.21999 0.0
C2982 C 0.19619 0.34446 0.23443 0.0
C2983 C 0.2198 0.38973 0.20156 0.0
C2984 C 0.20846 0.38178 0.18655 0.0
C2985 C 0.24071 0.41065 0.20243 0.0
C2986 C 0.25342 0.41954 0.21809 0.0
C2987 C 0.25977 0.40619 0.22848 0.0
C2988 C 0.2706 0.41411 0.24358 0.0
C2989 C 0.2756 0.43554 0.24836 0.0
C2990 C 0.26975 0.4491 0.238 0.0
C2991 C 0.25871 0.44117 0.22293 0.0
H2992 H 0.28398 0.44162 0.26007 0.0
H2993 H 0.16457 0.36602 0.11741 0.0
H2994 H 0.81872 0.62005 0.92483 0.0
H2995 H 0.83683 0.6363 0.899 0.0
H2996 H 0.79761 0.57067 0.87759 0.0
H2997 H 0.78041 0.55443 0.90377 0.0
H2998 H 0.83977 0.59386 0.8646 0.0
H2999 H 0.77678 0.60739 0.87488 0.0
H3000 H 0.75466 0.61997 0.89061 0.0
H3001 H 0.81183 0.68785 0.8896 0.0
H3002 H 0.83447 0.67559 0.87407 0.0
H3003 H 0.82973 0.63256 0.78374 0.0
H3004 H 0.82341 0.61475 0.81062 0.0
H3005 H 0.86958 0.67939 0.8316 0.0
H3006 H 0.87668 0.69726 0.8047 0.0
H3007 H 0.82545 0.65658 0.84477 0.0
H3008 H 0.88693 0.64119 0.83184 0.0
H3009 H 0.90622 0.62659 0.81511 0.0
H3010 H 0.84788 0.5597 0.81924 0.0
H3011 H 0.82807 0.57396 0.83585 0.0
C3012 C 0.81466 0.60914 0.91467 0.0
C3013 C 0.79846 0.58615 0.91606 0.0
C3014 C 0.82479 0.61835 0.89994 0.0
C3015 C 0.81823 0.60476 0.88629 0.0
C3016 C 0.80293 0.58145 0.88795 0.0
C3017 C 0.79309 0.5722 0.9028 0.0
C3018 C 0.82538 0.61526 0.87006 0.0
C3019 C 0.83652 0.60746 0.8602 0.0
C3020 C 0.82111 0.63302 0.86433 0.0
C3021 C 0.80741 0.64053 0.87345 0.0
C3022 C 0.78469 0.62498 0.8781 0.0
C3023 C 0.77206 0.63205 0.88698 0.0
C3024 C 0.78186 0.65468 0.89114 0.0
C3025 C 0.80428 0.67031 0.88639 0.0
C3026 C 0.81702 0.66332 0.87754 0.0
C3027 C 0.83903 0.64292 0.79402 0.0
C3028 C 0.85372 0.66635 0.79207 0.0
C3029 C 0.83533 0.63271 0.80937 0.0
C3030 C 0.84611 0.64576 0.82306 0.0
C3031 C 0.86111 0.66905 0.82116 0.0
C3032 C 0.86501 0.67924 0.8058 0.0
C3033 C 0.8402 0.63547 0.83941 0.0
C3034 C 0.82899 0.64316 0.84924 0.0
C3035 C 0.84397 0.61734 0.84489 0.0
C3036 C 0.85592 0.60869 0.83499 0.0
C3037 C 0.87812 0.6234 0.82909 0.0
C3038 C 0.88918 0.61517 0.81965 0.0
C3039 C 0.87826 0.59224 0.81608 0.0
C3040 C 0.8563 0.57747 0.822 0.0
C3041 C 0.84517 0.58561 0.83145 0.0
H3042 H 0.88683 0.58593 0.80874 0.0
H3043 H 0.77205 0.66013 0.89802 0.0
H3044 H 0.46429 0.21629 0.91209 0.0
H3045 H 0.44826 0.20348 0.88463 0.0
H3046 H 0.38133 0.19395 0.89785 0.0
H3047 H 0.39745 0.20666 0.92515 0.0
H3048 H 0.37642 0.16145 0.8771 0.0
H3049 H 0.41933 0.2428 0.8811 0.0
H3050 H 0.45408 0.27928 0.88746 0.0
H3051 H 0.49311 0.26685 0.85346 0.0
H3052 H 0.45864 0.23013 0.84703 0.0
H3053 H 0.32316 0.18 0.80584 0.0
H3054 H 0.34184 0.1826 0.83258 0.0
H3055 H 0.40393 0.19123 0.81099 0.0
H3056 H 0.3852 0.18819 0.78412 0.0
H3057 H 0.41408 0.22128 0.83504 0.0
H3058 H 0.36829 0.14155 0.82853 0.0
H3059 H 0.33269 0.10571 0.82223 0.0
H3060 H 0.29823 0.11538 0.86101 0.0
H3061 H 0.33352 0.15146 0.86739 0.0
C3062 C 0.446 0.21072 0.90916 0.0
C3063 C 0.43199 0.2124 0.92052 0.0
C3064 C 0.43689 0.2036 0.89352 0.0
C3065 C 0.41368 0.19808 0.88914 0.0
C3066 C 0.39926 0.19812 0.90094 0.0
C3067 C 0.4084 0.20534 0.91648 0.0
C3068 C 0.40495 0.19457 0.87202 0.0
C3069 C 0.38461 0.17452 0.8679 0.0
C3070 C 0.41584 0.21151 0.85996 0.0
C3071 C 0.43652 0.23362 0.86373 0.0
C3072 C 0.43538 0.24777 0.87507 0.0
C3073 C 0.45501 0.2685 0.87867 0.0
C3074 C 0.47582 0.27534 0.87092 0.0
C3075 C 0.477 0.2615 0.85949 0.0
C3076 C 0.45742 0.24074 0.85585 0.0
C3077 C 0.34069 0.18219 0.80674 0.0
C3078 C 0.35257 0.18372 0.79278 0.0
C3079 C 0.35137 0.18372 0.82206 0.0
C3080 C 0.37417 0.18678 0.8238 0.0
C3081 C 0.3863 0.1888 0.80992 0.0
C3082 C 0.37559 0.18719 0.79457 0.0
C3083 C 0.38535 0.18824 0.84014 0.0
C3084 C 0.4061 0.20799 0.84413 0.0
C3085 C 0.37474 0.17106 0.85209 0.0
C3086 C 0.35351 0.1493 0.84836 0.0
C3087 C 0.35306 0.13612 0.83564 0.0
C3088 C 0.33295 0.11575 0.83207 0.0
C3089 C 0.31319 0.1083 0.8412 0.0
C3090 C 0.31354 0.12118 0.85394 0.0
C3091 C 0.3336 0.14158 0.85756 0.0
H3092 H 0.29764 0.09252 0.83841 0.0
H3093 H 0.491 0.29139 0.87373 0.0
H3094 H 0.75075 0.23108 0.90303 0.0
H3095 H 0.75317 0.2172 0.87685 0.0
H3096 H 0.78687 0.18182 0.90057 0.0
H3097 H 0.78537 0.19681 0.92651 0.0
H3098 H 0.81098 0.20386 0.87711 0.0
H3099 H 0.7295 0.15414 0.88136 0.0
H3100 H 0.68864 0.14334 0.88594 0.0
H3101 H 0.6878 0.18478 0.84532 0.0
H3102 H 0.7289 0.19606 0.8406 0.0
H3103 H 0.77509 0.13968 0.79588 0.0
H3104 H 0.76466 0.1459 0.82224 0.0
H3105 H 0.81962 0.21521 0.82032 0.0
H3106 H 0.83066 0.20892 0.79425 0.0
H3107 H 0.74961 0.17251 0.83329 0.0
H3108 H 0.84432 0.23161 0.85762 0.0
H3109 H 0.88422 0.23777 0.85448 0.0
H3110 H 0.85621 0.16895 0.84035 0.0
H3111 H 0.8162 0.1623 0.84363 0.0
C3112 C 0.75779 0.2196 0.90261 0.0
C3113 C 0.76732 0.21446 0.91672 0.0
C3114 C 0.75931 0.21173 0.88766 0.0
C3115 C 0.77012 0.19828 0.88661 0.0
C3116 C 0.77849 0.19218 0.90095 0.0
C3117 C 0.77731 0.20038 0.91581 0.0
C3118 C 0.77465 0.19232 0.87057 0.0
C3119 C 0.79746 0.19693 0.8676 0.0
C3120 C 0.7571 0.18298 0.85808 0.0
C3121 C 0.73233 0.17609 0.86072 0.0
C3122 C 0.72065 0.16106 0.87346 0.0
C3123 C 0.69742 0.15484 0.87607 0.0
C3124 C 0.68559 0.16342 0.86596 0.0
C3125 C 0.69698 0.17817 0.85315 0.0
C3126 C 0.72025 0.18446 0.85049 0.0
C3127 C 0.78509 0.15622 0.80111 0.0
C3128 C 0.8039 0.17373 0.79297 0.0
C3129 C 0.77893 0.15981 0.81613 0.0
C3130 C 0.79151 0.18095 0.82341 0.0
C3131 C 0.80984 0.19864 0.81509 0.0
C3132 C 0.81601 0.19507 0.80009 0.0
C3133 C 0.78594 0.18436 0.83988 0.0
C3134 C 0.76302 0.17938 0.84288 0.0
C3135 C 0.80323 0.19274 0.85258 0.0
C3136 C 0.82726 0.19655 0.85071 0.0
C3137 C 0.84669 0.21778 0.85389 0.0
C3138 C 0.86932 0.22135 0.85208 0.0
C3139 C 0.87274 0.20378 0.84716 0.0
C3140 C 0.85354 0.18257 0.8441 0.0
C3141 C 0.83088 0.1789 0.84591 0.0
H3142 H 0.89027 0.20659 0.84576 0.0
H3143 H 0.6676 0.15862 0.86802 0.0
H3144 H 0.25569 0.15098 0.43813 0.0
H3145 H 0.27386 0.16943 0.46392 0.0
H3146 H 0.21287 0.12054 0.48857 0.0
H3147 H 0.19449 0.1027 0.46273 0.0
H3148 H 0.25431 0.18359 0.49407 0.0
H3149 H 0.23988 0.0975 0.51432 0.0
H3150 H 0.23351 0.06195 0.50275 0.0
H3151 H 0.27815 0.09941 0.46406 0.0
H3152 H 0.28492 0.13513 0.47551 0.0
H3153 H 0.2825 0.17794 0.57936 0.0
H3154 H 0.26347 0.17109 0.55237 0.0
H3155 H 0.3249 0.17535 0.53273 0.0
H3156 H 0.34438 0.183 0.55947 0.0
H3157 H 0.28381 0.13657 0.52396 0.0
H3158 H 0.31306 0.21692 0.52612 0.0
H3159 H 0.31768 0.25192 0.53737 0.0
H3160 H 0.24379 0.22726 0.53106 0.0
H3161 H 0.23859 0.19179 0.52023 0.0
C3162 C 0.24598 0.14475 0.44903 0.0
C3163 C 0.224 0.12526 0.44868 0.0
C3164 C 0.25627 0.15526 0.46368 0.0
C3165 C 0.24471 0.14621 0.47811 0.0
C3166 C 0.22201 0.12775 0.47755 0.0
C3167 C 0.21163 0.11751 0.46289 0.0
C3168 C 0.25756 0.15351 0.49385 0.0
C3169 C 0.2608 0.17341 0.50067 0.0
C3170 C 0.266 0.14017 0.50234 0.0
C3171 C 0.26273 0.1189 0.49569 0.0
C3172 C 0.24841 0.09811 0.50339 0.0
C3173 C 0.24471 0.07795 0.49685 0.0
C3174 C 0.25537 0.07842 0.48265 0.0
C3175 C 0.26985 0.09906 0.47503 0.0
C3176 C 0.27359 0.11926 0.48152 0.0
C3177 C 0.29217 0.17787 0.56928 0.0
C3178 C 0.31499 0.18089 0.57168 0.0
C3179 C 0.28121 0.17386 0.55386 0.0
C3180 C 0.29279 0.17272 0.54056 0.0
C3181 C 0.31562 0.17605 0.54285 0.0
C3182 C 0.32666 0.18026 0.5582 0.0
C3183 C 0.28079 0.16685 0.52437 0.0
C3184 C 0.27749 0.14697 0.51746 0.0
C3185 C 0.27231 0.18027 0.5159 0.0
C3186 C 0.27541 0.20155 0.52254 0.0
C3187 C 0.29774 0.2188 0.52734 0.0
C3188 C 0.30047 0.23875 0.53364 0.0
C3189 C 0.28101 0.24175 0.53504 0.0
C3190 C 0.25881 0.22484 0.53009 0.0
C3191 C 0.25597 0.2048 0.52388 0.0
H3192 H 0.28316 0.25722 0.53988 0.0
H3193 H 0.25243 0.06279 0.47757 0.0
H3194 H 0.89294 0.16221 0.44156 0.0
H3195 H 0.88776 0.17494 0.46745 0.0
H3196 H 0.91674 0.1363 0.4926 0.0
H3197 H 0.92231 0.12418 0.46663 0.0
H3198 H 0.85889 0.14872 0.48872 0.0
H3199 H 0.93494 0.15342 0.53024 0.0
H3200 H 0.9771 0.16604 0.52935 0.0
H3201 H 0.98353 0.21354 0.49117 0.0
H3202 H 0.94141 0.20106 0.49169 0.0
H3203 H 0.82775 0.13507 0.57064 0.0
H3204 H 0.84266 0.13152 0.54522 0.0
H3205 H 0.89393 0.2022 0.5461 0.0
H3206 H 0.87938 0.2058 0.57164 0.0
H3207 H 0.91305 0.17696 0.53677 0.0
H3208 H 0.84516 0.18458 0.52211 0.0
H3209 H 0.80378 0.17496 0.52291 0.0
H3210 H 0.78246 0.10825 0.50662 0.0
H3211 H 0.82373 0.11739 0.50593 0.0
C3212 C 0.89917 0.15739 0.45263 0.0
C3213 C 0.90836 0.14257 0.45217 0.0
C3214 C 0.89592 0.16436 0.46744 0.0
C3215 C 0.90176 0.1566 0.48212 0.0
C3216 C 0.91239 0.14291 0.48156 0.0
C3217 C 0.91572 0.13606 0.46673 0.0
C3218 C 0.89438 0.16066 0.49781 0.0
C3219 C 0.87085 0.155 0.49917 0.0
C3220 C 0.90977 0.16886 0.51158 0.0
C3221 C 0.93501 0.17616 0.51093 0.0
C3222 C 0.94536 0.16652 0.52162 0.0
C3223 C 0.96923 0.17359 0.52114 0.0
C3224 C 0.98296 0.19047 0.5101 0.0
C3225 C 0.97284 0.20028 0.49954 0.0
C3226 C 0.94895 0.19316 0.49989 0.0
C3227 C 0.84236 0.14982 0.56553 0.0
C3228 C 0.85224 0.17076 0.5732 0.0
C3229 C 0.85078 0.1478 0.55091 0.0
C3230 C 0.86931 0.16664 0.5436 0.0
C3231 C 0.87959 0.18742 0.55143 0.0
C3232 C 0.8711 0.18949 0.56599 0.0
C3233 C 0.87761 0.16482 0.52763 0.0
C3234 C 0.9012 0.17076 0.52626 0.0
C3235 C 0.86234 0.15711 0.51378 0.0
C3236 C 0.83752 0.1516 0.51411 0.0
C3237 C 0.83164 0.16781 0.51881 0.0
C3238 C 0.80821 0.16245 0.51923 0.0
C3239 C 0.7905 0.14099 0.51486 0.0
C3240 C 0.79619 0.12486 0.51002 0.0
C3241 C 0.8196 0.13012 0.5096 0.0
H3242 H 0.77237 0.13687 0.51518 0.0
H3243 H 0.00146 0.19601 0.50978 0.0
H3244 H 0.89869 0.77999 0.46109 0.0
H3245 H 0.90085 0.76422 0.4879 0.0
H3246 H 0.8862 0.70168 0.4664 0.0
H3247 H 0.88348 0.71754 0.43955 0.0
H3248 H 0.85594 0.69425 0.48844 0.0
H3249 H 0.93853 0.7344 0.48739 0.0
H3250 H 0.97734 0.76712 0.48291 0.0
H3251 H 0.96697 0.80319 0.51981 0.0
H3252 H 0.92793 0.77081 0.52437 0.0
H3253 H 0.85182 0.64681 0.56702 0.0
H3254 H 0.86591 0.66125 0.5401 0.0
H3255 H 0.87631 0.72681 0.55206 0.0
H3256 H 0.86268 0.71269 0.57912 0.0
H3257 H 0.91259 0.72952 0.53442 0.0
H3258 H 0.82801 0.69183 0.53175 0.0
H3259 H 0.78858 0.65969 0.53559 0.0
H3260 H 0.80328 0.61926 0.50499 0.0
H3261 H 0.84294 0.65111 0.50114 0.0
C3262 C 0.89661 0.76312 0.46215 0.0
C3263 C 0.89071 0.7498 0.44846 0.0
C3264 C 0.89796 0.75413 0.47742 0.0
C3265 C 0.89368 0.73172 0.4792 0.0
C3266 C 0.88954 0.71899 0.46532 0.0
C3267 C 0.88817 0.72804 0.45003 0.0
C3268 C 0.89024 0.72082 0.49553 0.0
C3269 C 0.86864 0.70164 0.49839 0.0
C3270 C 0.90653 0.73076 0.50862 0.0
C3271 C 0.93019 0.75019 0.50615 0.0
C3272 C 0.94444 0.74935 0.49449 0.0
C3273 C 0.9665 0.76784 0.49194 0.0
C3274 C 0.97457 0.78725 0.50103 0.0
C3275 C 0.96067 0.78815 0.51276 0.0
C3276 C 0.93858 0.76971 0.51536 0.0
C3277 C 0.85747 0.66441 0.56407 0.0
C3278 C 0.85609 0.67857 0.57531 0.0
C3279 C 0.86541 0.6726 0.54862 0.0
C3280 C 0.87206 0.69507 0.54406 0.0
C3281 C 0.87131 0.70942 0.55534 0.0
C3282 C 0.86325 0.70122 0.57076 0.0
C3283 C 0.87827 0.70324 0.52722 0.0
C3284 C 0.90024 0.72192 0.52434 0.0
C3285 C 0.86237 0.69287 0.51405 0.0
C3286 C 0.83852 0.67374 0.51632 0.0
C3287 C 0.8229 0.67602 0.52595 0.0
C3288 C 0.8005 0.65787 0.52811 0.0
C3289 C 0.79346 0.63742 0.52058 0.0
C3290 C 0.80878 0.6351 0.51084 0.0
C3291 C 0.83122 0.65319 0.50867 0.0
H3292 H 0.7761 0.62339 0.52226 0.0
H3293 H 0.99163 0.80157 0.499 0.0
loop_
_geom_bond_atom_site_label_1
_geom_bond_atom_site_label_2
_geom_bond_distance
_geom_bond_site_symmetry_2
_ccdc_geom_bond_type
C0 N1 1.317 . S
C0 N2 1.348 . S
C0 C3 1.485 . S
N1 C0 1.317 . S
N1 N5 1.370 . S
N2 C0 1.348 . S
N2 C4 1.346 . S
C3 C0 1.485 . S
C3 H7 0.960 . S
C3 H8 0.961 . S
C3 H9 0.960 . S
C4 N2 1.346 . S
C4 N5 1.307 . S
C4 C6 1.486 . S
N5 N1 1.370 . S
N5 C4 1.307 . S
C6 C4 1.486 . S
C6 H10 0.960 . S
C6 H11 0.960 . S
C6 H12 0.959 . S
H7 C3 0.960 . S
H8 C3 0.961 . S
H9 C3 0.960 . S
H10 C6 0.960 . S
H11 C6 0.960 . S
H12 C6 0.959 . S
C13 N14 1.317 . S
C13 N15 1.348 . S
C13 C16 1.485 . S
N14 C13 1.317 . S
N14 N18 1.370 . S
N15 C13 1.348 . S
N15 C17 1.346 . S
C16 C13 1.485 . S
C16 H20 0.960 . S
C16 H21 0.961 . S
C16 H22 0.960 . S
C17 N15 1.346 . S
C17 N18 1.307 . S
C17 C19 1.486 . S
N18 N14 1.370 . S
N18 C17 1.307 . S
C19 C17 1.486 . S
C19 H23 0.960 . S
C19 H24 0.960 . S
C19 H25 0.959 . S
H20 C16 0.960 . S
H21 C16 0.961 . S
H22 C16 0.960 . S
H23 C19 0.960 . S
H24 C19 0.960 . S
H25 C19 0.959 . S
C26 N27 1.317 . S
C26 N28 1.348 . S
C26 C29 1.485 . S
N27 C26 1.317 . S
N27 N31 1.370 . S
N28 C26 1.348 . S
N28 C30 1.346 . S
C29 C26 1.485 . S
C29 H33 0.960 . S
C29 H34 0.961 . S
C29 H35 0.960 . S
C30 N28 1.346 . S
C30 N31 1.307 . S
C30 C32 1.486 . S
N31 N27 1.370 . S
N31 C30 1.307 . S
C32 C30 1.486 . S
C32 H36 0.960 . S
C32 H37 0.960 . S
C32 H38 0.959 . S
H33 C29 0.960 . S
H34 C29 0.961 . S
H35 C29 0.960 . S
H36 C32 0.960 . S
H37 C32 0.960 . S
H38 C32 0.959 . S
C39 N40 1.317 . S
C39 N41 1.348 . S
C39 C42 1.485 . S
N40 C39 1.317 . S
N40 N44 1.370 . S
N41 C39 1.348 . S
N41 C43 1.346 . S
C42 C39 1.485 . S
C42 H46 0.960 . S
C42 H47 0.961 . S
C42 H48 0.960 . S
C43 N41 1.346 . S
C43 N44 1.307 . S
C43 C45 1.486 . S
N44 N40 1.370 . S
N44 C43 1.307 . S
C45 C43 1.486 . S
C45 H49 0.960 . S
C45 H50 0.960 . S
C45 H51 0.959 . S
H46 C42 0.960 . S
H47 C42 0.961 . S
H48 C42 0.960 . S
H49 C45 0.960 . S
H50 C45 0.960 . S
H51 C45 0.959 . S
C52 N53 1.317 . S
C52 N54 1.348 . S
C52 C55 1.485 . S
N53 C52 1.317 . S
N53 N57 1.370 . S
N54 C52 1.348 . S
N54 C56 1.346 . S
C55 C52 1.485 . S
C55 H59 0.960 . S
C55 H60 0.961 . S
C55 H61 0.960 . S
C56 N54 1.346 . S
C56 N57 1.307 . S
C56 C58 1.486 . S
N57 N53 1.370 . S
N57 C56 1.307 . S
C58 C56 1.486 . S
C58 H62 0.960 . S
C58 H63 0.960 . S
C58 H64 0.959 . S
H59 C55 0.960 . S
H60 C55 0.961 . S
H61 C55 0.960 . S
H62 C58 0.960 . S
H63 C58 0.960 . S
H64 C58 0.959 . S
C65 N66 1.317 . S
C65 N67 1.348 . S
C65 C68 1.485 . S
N66 C65 1.317 . S
N66 N70 1.370 . S
N67 C65 1.348 . S
N67 C69 1.346 . S
C68 C65 1.485 . S
C68 H72 0.960 . S
C68 H73 0.961 . S
C68 H74 0.960 . S
C69 N67 1.346 . S
C69 N70 1.307 . S
C69 C71 1.486 . S
N70 N66 1.370 . S
N70 C69 1.307 . S
C71 C69 1.486 . S
C71 H75 0.960 . S
C71 H76 0.960 . S
C71 H77 0.959 . S
H72 C68 0.960 . S
H73 C68 0.961 . S
H74 C68 0.960 . S
H75 C71 0.960 . S
H76 C71 0.960 . S
H77 C71 0.959 . S
C78 N79 1.317 . S
C78 N80 1.348 . S
C78 C81 1.485 . S
N79 C78 1.317 . S
N79 N83 1.370 . S
N80 C78 1.348 . S
N80 C82 1.346 . S
C81 C78 1.485 . S
C81 H85 0.960 . S
C81 H86 0.961 . S
C81 H87 0.960 . S
C82 N80 1.346 . S
C82 N83 1.307 . S
C82 C84 1.486 . S
N83 N79 1.370 . S
N83 C82 1.307 . S
C84 C82 1.486 . S
C84 H88 0.960 . S
C84 H89 0.960 . S
C84 H90 0.959 . S
H85 C81 0.960 . S
H86 C81 0.961 . S
H87 C81 0.960 . S
H88 C84 0.960 . S
H89 C84 0.960 . S
H90 C84 0.959 . S
C91 N92 1.317 . S
C91 N93 1.348 . S
C91 C94 1.485 . S
N92 C91 1.317 . S
N92 N96 1.370 . S
N93 C91 1.348 . S
N93 C95 1.346 . S
C94 C91 1.485 . S
C94 H98 0.960 . S
C94 H99 0.961 . S
C94 H100 0.960 . S
C95 N93 1.346 . S
C95 N96 1.307 . S
C95 C97 1.486 . S
N96 N92 1.370 . S
N96 C95 1.307 . S
C97 C95 1.486 . S
C97 H101 0.960 . S
C97 H102 0.960 . S
C97 H103 0.959 . S
H98 C94 0.960 . S
H99 C94 0.961 . S
H100 C94 0.960 . S
H101 C97 0.960 . S
H102 C97 0.960 . S
H103 C97 0.959 . S
C104 N105 1.317 . S
C104 N106 1.348 . S
C104 C107 1.485 . S
N105 C104 1.317 . S
N105 N109 1.370 . S
N106 C104 1.348 . S
N106 C108 1.346 . S
C107 C104 1.485 . S
C107 H111 0.960 . S
C107 H112 0.961 . S
C107 H113 0.960 . S
C108 N106 1.346 . S
C108 N109 1.307 . S
C108 C110 1.486 . S
N109 N105 1.370 . S
N109 C108 1.307 . S
C110 C108 1.486 . S
C110 H114 0.960 . S
C110 H115 0.960 . S
C110 H116 0.959 . S
H111 C107 0.960 . S
H112 C107 0.961 . S
H113 C107 0.960 . S
H114 C110 0.960 . S
H115 C110 0.960 . S
H116 C110 0.959 . S
C117 N118 1.317 . S
C117 N119 1.348 . S
C117 C120 1.485 . S
N118 C117 1.317 . S
N118 N122 1.370 . S
N119 C117 1.348 . S
N119 C121 1.346 . S
C120 C117 1.485 . S
C120 H124 0.960 . S
C120 H125 0.961 . S
C120 H126 0.960 . S
C121 N119 1.346 . S
C121 N122 1.307 . S
C121 C123 1.486 . S
N122 N118 1.370 . S
N122 C121 1.307 . S
C123 C121 1.486 . S
C123 H127 0.960 . S
C123 H128 0.960 . S
C123 H129 0.959 . S
H124 C120 0.960 . S
H125 C120 0.961 . S
H126 C120 0.960 . S
H127 C123 0.960 . S
H128 C123 0.960 . S
H129 C123 0.959 . S
C130 N131 1.317 . S
C130 N132 1.348 . S
C130 C133 1.502 . S
N131 C130 1.317 . S
N131 N135 1.370 . S
N132 C130 1.348 . S
N132 C134 1.346 . S
C133 C130 1.502 . S
C133 H137 0.948 1_556 S
C133 H138 0.955 1_556 S
C133 H139 0.958 . S
C134 N132 1.346 . S
C134 N135 1.307 . S
C134 C136 1.486 . S
N135 N131 1.370 . S
N135 C134 1.307 . S
C136 C134 1.486 . S
C136 H140 0.960 . S
C136 H141 0.960 . S
C136 H142 0.959 . S
H137 C133 0.948 1_554 S
H138 C133 0.955 1_554 S
H139 C133 0.958 . S
H140 C136 0.960 . S
H141 C136 0.960 . S
H142 C136 0.959 . S
C143 N144 1.317 . S
C143 N145 1.348 . S
C143 C146 1.485 . S
N144 C143 1.317 . S
N144 N148 1.370 . S
N145 C143 1.348 . S
N145 C147 1.346 . S
C146 C143 1.485 . S
C146 H150 0.960 . S
C146 H151 0.961 1_556 S
C146 H152 0.960 . S
C147 N145 1.346 . S
C147 N148 1.307 . S
C147 C149 1.486 . S
N148 N144 1.370 . S
N148 C147 1.307 . S
C149 C147 1.486 . S
C149 H153 0.960 . S
C149 H154 0.960 . S
C149 H155 0.959 . S
H150 C146 0.960 . S
H151 C146 0.961 1_554 S
H152 C146 0.960 . S
H153 C149 0.960 . S
H154 C149 0.960 . S
H155 C149 0.959 . S
C156 N157 1.317 . S
C156 N158 1.348 . S
C156 C159 1.485 . S
N157 C156 1.317 . S
N157 N161 1.370 . S
N158 C156 1.348 . S
N158 C160 1.346 . S
C159 C156 1.485 . S
C159 H163 0.960 . S
C159 H164 0.961 . S
C159 H165 0.960 . S
C160 N158 1.346 . S
C160 N161 1.307 . S
C160 C162 1.486 . S
N161 N157 1.370 . S
N161 C160 1.307 . S
C162 C160 1.486 . S
C162 H166 0.960 . S
C162 H167 0.960 . S
C162 H168 0.959 . S
H163 C159 0.960 . S
H164 C159 0.961 . S
H165 C159 0.960 . S
H166 C162 0.960 . S
H167 C162 0.960 . S
H168 C162 0.959 . S
C169 N170 1.317 . S
C169 N171 1.348 . S
C169 C172 1.485 . S
N170 C169 1.317 . S
N170 N174 1.370 . S
N171 C169 1.348 . S
N171 C173 1.346 . S
C172 C169 1.485 . S
C172 H176 0.960 . S
C172 H177 0.961 . S
C172 H178 0.960 . S
C173 N171 1.346 . S
C173 N174 1.307 . S
C173 C175 1.486 . S
N174 N170 1.370 . S
N174 C173 1.307 . S
C175 C173 1.486 . S
C175 H179 0.960 . S
C175 H180 0.960 . S
C175 H181 0.959 . S
H176 C172 0.960 . S
H177 C172 0.961 . S
H178 C172 0.960 . S
H179 C175 0.960 . S
H180 C175 0.960 . S
H181 C175 0.959 . S
C182 N183 1.317 . S
C182 N184 1.348 . S
C182 C185 1.485 . S
N183 C182 1.317 . S
N183 N187 1.370 . S
N184 C182 1.348 . S
N184 C186 1.346 . S
C185 C182 1.485 . S
C185 H189 0.960 . S
C185 H190 0.961 . S
C185 H191 0.960 . S
C186 N184 1.346 . S
C186 N187 1.307 . S
C186 C188 1.486 . S
N187 N183 1.370 . S
N187 C186 1.307 . S
C188 C186 1.486 . S
C188 H192 0.960 . S
C188 H193 0.960 . S
C188 H194 0.959 . S
H189 C185 0.960 . S
H190 C185 0.961 . S
H191 C185 0.960 . S
H192 C188 0.960 . S
H193 C188 0.960 . S
H194 C188 0.959 . S
C195 N196 1.317 . S
C195 N197 1.348 . S
C195 C198 1.485 . S
N196 C195 1.317 . S
N196 N200 1.370 . S
N197 C195 1.348 . S
N197 C199 1.346 . S
C198 C195 1.485 . S
C198 H202 0.960 . S
C198 H203 0.961 . S
C198 H204 0.960 . S
C199 N197 1.346 . S
C199 N200 1.307 . S
C199 C201 1.486 . S
N200 N196 1.370 . S
N200 C199 1.307 . S
C201 C199 1.486 . S
C201 H205 0.960 . S
C201 H206 0.960 . S
C201 H207 0.959 . S
H202 C198 0.960 . S
H203 C198 0.961 . S
H204 C198 0.960 . S
H205 C201 0.960 . S
H206 C201 0.960 . S
H207 C201 0.959 . S
C208 N209 1.317 . S
C208 N210 1.348 . S
C208 C211 1.485 . S
N209 C208 1.317 . S
N209 N213 1.370 . S
N210 C208 1.348 . S
N210 C212 1.346 . S
C211 C208 1.485 . S
C211 H215 0.960 . S
C211 H216 0.961 . S
C211 H217 0.960 . S
C212 N210 1.346 . S
C212 N213 1.307 . S
C212 C214 1.486 . S
N213 N209 1.370 . S
N213 C212 1.307 . S
C214 C212 1.486 . S
C214 H218 0.960 . S
C214 H219 0.960 . S
C214 H220 0.959 . S
H215 C211 0.960 . S
H216 C211 0.961 . S
H217 C211 0.960 . S
H218 C214 0.960 . S
H219 C214 0.960 . S
H220 C214 0.959 . S
C221 N222 1.317 . S
C221 N223 1.348 . S
C221 C224 1.485 . S
N222 C221 1.317 . S
N222 N226 1.370 . S
N223 C221 1.348 . S
N223 C225 1.346 . S
C224 C221 1.485 . S
C224 H228 0.960 . S
C224 H229 0.961 . S
C224 H230 0.960 . S
C225 N223 1.346 . S
C225 N226 1.307 . S
C225 C227 1.486 . S
N226 N222 1.370 . S
N226 C225 1.307 . S
C227 C225 1.486 . S
C227 H231 0.960 . S
C227 H232 0.960 . S
C227 H233 0.959 . S
H228 C224 0.960 . S
H229 C224 0.961 . S
H230 C224 0.960 . S
H231 C227 0.960 . S
H232 C227 0.960 . S
H233 C227 0.959 . S
Tb234 C244 2.825 1_565 S
Tb234 O245 2.347 1_566 S
Tb234 O248 2.366 1_565 S
Tb234 O253 2.418 . S
Tb234 O254 2.384 1_556 S
Tb234 O257 2.479 . S
Tb234 O258 2.471 1_565 S
Eu235 O246 2.418 . S
Eu235 O247 2.384 . S
Eu235 O250 2.479 . S
Eu235 O251 2.471 1_545 S
Eu235 O252 2.347 1_545 S
Eu235 O255 2.366 1_545 S
Eu235 C265 2.825 1_545 S
C236 O252 1.259 . S
C236 O253 1.265 1_554 S
C237 O254 1.255 . S
C237 O255 1.265 . S
C238 C240 1.380 . S
C238 C241 1.374 . S
C238 C244 1.507 . S
C239 C240 1.384 . S
C239 C243 1.387 . S
C239 H266 0.930 . S
C240 C238 1.380 . S
C240 C239 1.384 . S
C240 H267 0.931 1_545 S
C241 C238 1.374 . S
C241 C242 1.390 . S
C241 H268 0.930 . S
C242 C241 1.390 . S
C242 C243 1.391 . S
C242 H269 0.930 . S
C243 C239 1.387 . S
C243 C242 1.391 . S
C244 Tb234 2.825 1_545 S
C244 C238 1.507 . S
C244 O257 1.238 1_545 S
C244 O258 1.247 . S
O245 Tb234 2.347 1_544 S
O245 C249 1.259 . S
O246 Eu235 2.418 . S
O246 C249 1.265 . S
O247 Eu235 2.384 . S
O247 C256 1.255 . S
O248 Tb234 2.366 1_545 S
O248 C256 1.265 1_556 S
C249 O245 1.259 . S
C249 O246 1.265 . S
O250 Eu235 2.479 . S
O250 C265 1.238 1_545 S
O251 Eu235 2.471 1_565 S
O251 C265 1.247 . S
O252 Eu235 2.347 1_565 S
O252 C236 1.259 . S
O253 Tb234 2.418 . S
O253 C236 1.265 1_556 S
O254 Tb234 2.384 1_554 S
O254 C237 1.255 . S
O255 Eu235 2.366 1_565 S
O255 C237 1.265 . S
C256 O247 1.255 . S
C256 O248 1.265 1_554 S
O257 Tb234 2.479 . S
O257 C244 1.238 1_565 S
O258 Tb234 2.471 1_545 S
O258 C244 1.247 . S
C259 C262 1.380 . S
C259 C263 1.374 . S
C259 C265 1.507 . S
C260 C261 1.387 . S
C260 C264 1.391 . S
C261 C260 1.387 . S
C261 C262 1.384 . S
C261 H270 0.930 . S
C262 C259 1.380 . S
C262 C261 1.384 . S
C262 H271 0.931 1_565 S
C263 C259 1.374 . S
C263 C264 1.390 . S
C263 H272 0.930 . S
C264 C260 1.391 . S
C264 C263 1.390 . S
C264 H273 0.930 . S
C265 Eu235 2.825 1_565 S
C265 O250 1.238 1_565 S
C265 O251 1.247 . S
C265 C259 1.507 . S
H266 C239 0.930 . S
H267 C240 0.931 1_565 S
H268 C241 0.930 . S
H269 C242 0.930 . S
H270 C261 0.930 . S
H271 C262 0.931 1_545 S
H272 C263 0.930 . S
H273 C264 0.930 . S
Tb274 C284 2.825 . S
Tb274 O285 2.347 1_455 S
Tb274 O288 2.366 1_455 S
Tb274 O293 2.418 . S
Tb274 O294 2.384 1_556 S
Tb274 O297 2.479 . S
Tb274 O298 2.472 1_455 S
Eu275 O286 2.418 . S
Eu275 O287 2.384 . S
Eu275 O290 2.479 . S
Eu275 O291 2.471 1_655 S
Eu275 O292 2.347 1_655 S
Eu275 O295 2.366 1_655 S
Eu275 C305 2.825 1_655 S
C276 O292 1.259 . S
C276 O293 1.265 1_554 S
C277 O294 1.255 . S
C277 O295 1.265 . S
C278 C280 1.380 . S
C278 C281 1.373 1_455 S
C278 C284 1.507 . S
C279 C280 1.384 . S
C279 C283 1.387 1_455 S
C279 H306 0.930 . S
C280 C278 1.380 . S
C280 C279 1.384 . S
C280 H307 0.931 . S
C281 C278 1.373 1_655 S
C281 C282 1.390 . S
C281 H308 0.930 . S
C282 C281 1.390 . S
C282 C283 1.391 . S
C282 H309 0.930 . S
C283 C279 1.387 1_655 S
C283 C282 1.391 . S
C284 Tb274 2.825 . S
C284 C278 1.507 . S
C284 O297 1.238 . S
C284 O298 1.247 1_455 S
O285 Tb274 2.347 1_655 S
O285 C289 1.259 1_556 S
O286 Eu275 2.418 . S
O286 C289 1.265 . S
O287 Eu275 2.384 . S
O287 C296 1.255 1_554 S
O288 Tb274 2.366 1_655 S
O288 C296 1.265 . S
C289 O285 1.259 1_554 S
C289 O286 1.265 . S
O290 Eu275 2.479 . S
O290 C305 1.238 1_655 S
O291 Eu275 2.471 1_455 S
O291 C305 1.247 . S
O292 Eu275 2.347 1_455 S
O292 C276 1.259 . S
O293 Tb274 2.418 . S
O293 C276 1.265 1_556 S
O294 Tb274 2.384 1_554 S
O294 C277 1.255 . S
O295 Eu275 2.366 1_455 S
O295 C277 1.265 . S
C296 O287 1.255 1_556 S
C296 O288 1.265 . S
O297 Tb274 2.479 . S
O297 C284 1.238 . S
O298 Tb274 2.472 1_655 S
O298 C284 1.247 1_655 S
C299 C302 1.380 . S
C299 C303 1.374 . S
C299 C305 1.507 . S
C300 C301 1.387 . S
C300 C304 1.391 . S
C301 C300 1.387 . S
C301 C302 1.384 . S
C301 H310 0.939 . S
C302 C299 1.380 . S
C302 C301 1.384 . S
C302 H311 0.931 1_455 S
C303 C299 1.374 . S
C303 C304 1.390 . S
C303 H312 0.930 . S
C304 C300 1.391 . S
C304 C303 1.390 . S
C304 H313 0.930 . S
C305 Eu275 2.825 1_455 S
C305 O290 1.238 1_455 S
C305 O291 1.247 . S
C305 C299 1.507 . S
H306 C279 0.930 . S
H307 C280 0.931 . S
H308 C281 0.930 . S
H309 C282 0.930 . S
H310 C301 0.939 . S
H311 C302 0.931 1_655 S
H312 C303 0.930 . S
H313 C304 0.930 . S
Tb314 C324 2.825 . S
Tb314 O325 2.347 . S
Tb314 O328 2.366 . S
Tb314 O333 2.418 . S
Tb314 O334 2.384 . S
Tb314 O337 2.479 . S
Tb314 O338 2.471 . S
Eu315 O326 2.418 1_556 S
Eu315 O327 2.384 1_556 S
Eu315 O330 2.479 . S
Eu315 O331 2.471 . S
Eu315 O332 2.347 1_556 S
Eu315 O335 2.366 . S
Eu315 C345 2.825 . S
C316 O332 1.259 . S
C316 O333 1.265 . S
C317 O334 1.255 . S
C317 O335 1.265 1_554 S
C318 C320 1.380 . S
C318 C321 1.374 . S
C318 C324 1.507 . S
C319 C320 1.384 . S
C319 C323 1.387 . S
C319 H346 0.930 . S
C320 C318 1.380 . S
C320 C319 1.384 . S
C320 H347 0.931 . S
C321 C318 1.374 . S
C321 C322 1.390 . S
C321 H348 0.930 . S
C322 C321 1.390 . S
C322 C323 1.391 . S
C322 H349 0.930 . S
C323 C319 1.387 . S
C323 C322 1.391 . S
C324 Tb314 2.825 . S
C324 C318 1.507 . S
C324 O337 1.238 . S
C324 O338 1.247 . S
O325 Tb314 2.347 . S
O325 C329 1.259 . S
O326 Eu315 2.418 1_554 S
O326 C329 1.265 . S
O327 Eu315 2.384 1_554 S
O327 C336 1.255 . S
O328 Tb314 2.366 . S
O328 C336 1.265 . S
C329 O325 1.259 . S
C329 O326 1.265 . S
O330 Eu315 2.479 . S
O330 C345 1.238 . S
O331 Eu315 2.471 . S
O331 C345 1.247 . S
O332 Eu315 2.347 1_554 S
O332 C316 1.259 . S
O333 Tb314 2.418 . S
O333 C316 1.265 . S
O334 Tb314 2.384 . S
O334 C317 1.255 . S
O335 Eu315 2.366 . S
O335 C317 1.265 1_556 S
C336 O327 1.255 . S
C336 O328 1.265 . S
O337 Tb314 2.479 . S
O337 C324 1.238 . S
O338 Tb314 2.471 . S
O338 C324 1.247 . S
C339 C342 1.380 . S
C339 C343 1.374 . S
C339 C345 1.507 . S
C340 C341 1.387 . S
C340 C344 1.391 . S
C341 C340 1.387 . S
C341 C342 1.384 . S
C341 H350 0.930 . S
C342 C339 1.380 . S
C342 C341 1.384 . S
C342 H351 0.931 . S
C343 C339 1.374 . S
C343 C344 1.390 . S
C343 H352 0.930 . S
C344 C340 1.391 . S
C344 C343 1.390 . S
C344 H353 0.930 . S
C345 Eu315 2.825 . S
C345 O330 1.238 . S
C345 O331 1.247 . S
C345 C339 1.507 . S
H346 C319 0.930 . S
H347 C320 0.931 . S
H348 C321 0.930 . S
H349 C322 0.930 . S
H350 C341 0.930 . S
H351 C342 0.931 . S
H352 C343 0.930 . S
H353 C344 0.930 . S
Tb354 C364 2.825 . S
Tb354 O365 2.347 . S
Tb354 O368 2.366 . S
Tb354 O373 2.418 . S
Tb354 O374 2.384 . S
Tb354 O377 2.479 . S
Tb354 O378 2.471 . S
Eu355 O366 2.418 . S
Eu355 O367 2.384 . S
Eu355 O370 2.479 . S
Eu355 O371 2.471 . S
Eu355 O372 2.347 . S
Eu355 O375 2.366 . S
Eu355 C385 2.825 . S
C356 O372 1.259 . S
C356 O373 1.265 . S
C357 O374 1.255 . S
C357 O375 1.265 . S
C358 C360 1.380 . S
C358 C361 1.374 . S
C358 C364 1.507 . S
C359 C360 1.384 . S
C359 C363 1.387 . S
C359 H386 0.930 . S
C360 C358 1.380 . S
C360 C359 1.384 . S
C360 H387 0.931 . S
C361 C358 1.374 . S
C361 C362 1.390 . S
C361 H388 0.930 . S
C362 C361 1.390 . S
C362 C363 1.391 . S
C362 H389 0.930 . S
C363 C359 1.387 . S
C363 C362 1.391 . S
C364 Tb354 2.825 . S
C364 C358 1.507 . S
C364 O377 1.238 . S
C364 O378 1.247 . S
O365 Tb354 2.347 . S
O365 C369 1.259 . S
O366 Eu355 2.418 . S
O366 C369 1.265 . S
O367 Eu355 2.384 . S
O367 C376 1.255 . S
O368 Tb354 2.366 . S
O368 C376 1.265 . S
C369 O365 1.259 . S
C369 O366 1.265 . S
O370 Eu355 2.479 . S
O370 C385 1.238 . S
O371 Eu355 2.471 . S
O371 C385 1.247 . S
O372 Eu355 2.347 . S
O372 C356 1.259 . S
O373 Tb354 2.418 . S
O373 C356 1.265 . S
O374 Tb354 2.384 . S
O374 C357 1.255 . S
O375 Eu355 2.366 . S
O375 C357 1.265 . S
C376 O367 1.255 . S
C376 O368 1.265 . S
O377 Tb354 2.479 . S
O377 C364 1.238 . S
O378 Tb354 2.471 . S
O378 C364 1.247 . S
C379 C382 1.380 . S
C379 C383 1.374 . S
C379 C385 1.507 . S
C380 C381 1.387 . S
C380 C384 1.391 . S
C381 C380 1.387 . S
C381 C382 1.384 . S
C381 H390 0.930 . S
C382 C379 1.380 . S
C382 C381 1.384 . S
C382 H391 0.931 . S
C383 C379 1.374 . S
C383 C384 1.390 . S
C383 H392 0.930 . S
C384 C380 1.391 . S
C384 C383 1.390 . S
C384 H393 0.930 . S
C385 Eu355 2.825 . S
C385 O370 1.238 . S
C385 O371 1.247 . S
C385 C379 1.507 . S
H386 C359 0.930 . S
H387 C360 0.931 . S
H388 C361 0.930 . S
H389 C362 0.930 . S
H390 C381 0.930 . S
H391 C382 0.931 . S
H392 C383 0.930 . S
H393 C384 0.930 . S
Tb394 C404 2.825 . S
Tb394 O405 2.347 . S
Tb394 O408 2.366 . S
Tb394 O413 2.418 . S
Tb394 O414 2.384 . S
Tb394 O417 2.479 . S
Tb394 O418 2.471 . S
Eu395 O406 2.418 . S
Eu395 O407 2.384 . S
Eu395 O410 2.479 . S
Eu395 O411 2.471 . S
Eu395 O412 2.347 . S
Eu395 O415 2.366 . S
Eu395 C425 2.825 . S
C396 O412 1.259 . S
C396 O413 1.265 . S
C397 O414 1.255 . S
C397 O415 1.265 . S
C398 C400 1.380 . S
C398 C401 1.374 . S
C398 C404 1.507 . S
C399 C400 1.384 . S
C399 C403 1.387 . S
C399 H426 0.930 . S
C400 C398 1.380 . S
C400 C399 1.384 . S
C400 H427 0.931 . S
C401 C398 1.374 . S
C401 C402 1.390 . S
C401 H428 0.930 . S
C402 C401 1.390 . S
C402 C403 1.391 . S
C402 H429 0.930 . S
C403 C399 1.387 . S
C403 C402 1.391 . S
C404 Tb394 2.825 . S
C404 C398 1.507 . S
C404 O417 1.238 . S
C404 O418 1.247 . S
O405 Tb394 2.347 . S
O405 C409 1.259 . S
O406 Eu395 2.418 . S
O406 C409 1.265 . S
O407 Eu395 2.384 . S
O407 C416 1.255 . S
O408 Tb394 2.366 . S
O408 C416 1.265 . S
C409 O405 1.259 . S
C409 O406 1.265 . S
O410 Eu395 2.479 . S
O410 C425 1.238 . S
O411 Eu395 2.471 . S
O411 C425 1.247 . S
O412 Eu395 2.347 . S
O412 C396 1.259 . S
O413 Tb394 2.418 . S
O413 C396 1.265 . S
O414 Tb394 2.384 . S
O414 C397 1.255 . S
O415 Eu395 2.366 . S
O415 C397 1.265 . S
C416 O407 1.255 . S
C416 O408 1.265 . S
O417 Tb394 2.479 . S
O417 C404 1.238 . S
O418 Tb394 2.471 . S
O418 C404 1.247 . S
C419 C422 1.380 . S
C419 C423 1.374 . S
C419 C425 1.507 . S
C420 C421 1.387 . S
C420 C424 1.391 . S
C421 C420 1.387 . S
C421 C422 1.384 . S
C421 H430 0.930 . S
C422 C419 1.380 . S
C422 C421 1.384 . S
C422 H431 0.931 . S
C423 C419 1.374 . S
C423 C424 1.390 . S
C423 H432 0.930 . S
C424 C420 1.391 . S
C424 C423 1.390 . S
C424 H433 0.930 . S
C425 Eu395 2.825 . S
C425 O410 1.238 . S
C425 O411 1.247 . S
C425 C419 1.507 . S
H426 C399 0.930 . S
H427 C400 0.931 . S
H428 C401 0.930 . S
H429 C402 0.930 . S
H430 C421 0.930 . S
H431 C422 0.931 . S
H432 C423 0.930 . S
H433 C424 0.930 . S
Tb434 C444 2.825 . S
Tb434 O445 2.347 . S
Tb434 O448 2.366 . S
Tb434 O453 2.418 . S
Tb434 O454 2.384 . S
Tb434 O457 2.479 . S
Tb434 O458 2.471 . S
Eu435 O446 2.418 . S
Eu435 O447 2.384 . S
Eu435 O450 2.479 . S
Eu435 O451 2.471 . S
Eu435 O452 2.347 . S
Eu435 O455 2.366 . S
Eu435 C465 2.825 . S
C436 O452 1.259 . S
C436 O453 1.265 . S
C437 O454 1.255 . S
C437 O455 1.265 . S
C438 C440 1.380 . S
C438 C441 1.374 . S
C438 C444 1.507 . S
C439 C440 1.384 . S
C439 C443 1.387 . S
C439 H466 0.930 . S
C440 C438 1.380 . S
C440 C439 1.384 . S
C440 H467 0.931 . S
C441 C438 1.374 . S
C441 C442 1.390 . S
C441 H468 0.930 . S
C442 C441 1.390 . S
C442 C443 1.391 . S
C442 H469 0.930 . S
C443 C439 1.387 . S
C443 C442 1.391 . S
C444 Tb434 2.825 . S
C444 C438 1.507 . S
C444 O457 1.238 . S
C444 O458 1.247 . S
O445 Tb434 2.347 . S
O445 C449 1.259 . S
O446 Eu435 2.418 . S
O446 C449 1.265 . S
O447 Eu435 2.384 . S
O447 C456 1.255 . S
O448 Tb434 2.366 . S
O448 C456 1.265 . S
C449 O445 1.259 . S
C449 O446 1.265 . S
O450 Eu435 2.479 . S
O450 C465 1.238 . S
O451 Eu435 2.471 . S
O451 C465 1.247 . S
O452 Eu435 2.347 . S
O452 C436 1.259 . S
O453 Tb434 2.418 . S
O453 C436 1.265 . S
O454 Tb434 2.384 . S
O454 C437 1.255 . S
O455 Eu435 2.366 . S
O455 C437 1.265 . S
C456 O447 1.255 . S
C456 O448 1.265 . S
O457 Tb434 2.479 . S
O457 C444 1.238 . S
O458 Tb434 2.471 . S
O458 C444 1.247 . S
C459 C462 1.380 . S
C459 C463 1.374 . S
C459 C465 1.507 . S
C460 C461 1.387 . S
C460 C464 1.391 . S
C461 C460 1.387 . S
C461 C462 1.384 . S
C461 H470 0.930 . S
C462 C459 1.380 . S
C462 C461 1.384 . S
C462 H471 0.931 . S
C463 C459 1.374 . S
C463 C464 1.390 . S
C463 H472 0.930 . S
C464 C460 1.391 . S
C464 C463 1.390 . S
C464 H473 0.930 . S
C465 Eu435 2.825 . S
C465 O450 1.238 . S
C465 O451 1.247 . S
C465 C459 1.507 . S
H466 C439 0.930 . S
H467 C440 0.931 . S
H468 C441 0.930 . S
H469 C442 0.930 . S
H470 C461 0.930 . S
H471 C462 0.931 . S
H472 C463 0.930 . S
H473 C464 0.930 . S
Tb474 C484 2.825 . S
Tb474 O485 2.347 . S
Tb474 O488 2.366 . S
Tb474 O493 2.418 . S
Tb474 O494 2.384 . S
Tb474 O497 2.479 . S
Tb474 O498 2.471 . S
Eu475 O486 2.418 . S
Eu475 O487 2.384 . S
Eu475 O490 2.479 . S
Eu475 O491 2.471 . S
Eu475 O492 2.347 . S
Eu475 O495 2.366 . S
Eu475 C505 2.825 . S
C476 O492 1.259 . S
C476 O493 1.265 . S
C477 O494 1.255 . S
C477 O495 1.265 . S
C478 C480 1.380 . S
C478 C481 1.374 . S
C478 C484 1.507 . S
C479 C480 1.384 . S
C479 C483 1.387 . S
C479 H506 0.930 . S
C480 C478 1.380 . S
C480 C479 1.384 . S
C480 H507 0.931 . S
C481 C478 1.374 . S
C481 C482 1.390 . S
C481 H508 0.930 . S
C482 C481 1.390 . S
C482 C483 1.391 . S
C482 H509 0.930 . S
C483 C479 1.387 . S
C483 C482 1.391 . S
C484 Tb474 2.825 . S
C484 C478 1.507 . S
C484 O497 1.238 . S
C484 O498 1.247 . S
O485 Tb474 2.347 . S
O485 C489 1.259 . S
O486 Eu475 2.418 . S
O486 C489 1.265 . S
O487 Eu475 2.384 . S
O487 C496 1.255 . S
O488 Tb474 2.366 . S
O488 C496 1.265 . S
C489 O485 1.259 . S
C489 O486 1.265 . S
O490 Eu475 2.479 . S
O490 C505 1.238 . S
O491 Eu475 2.471 . S
O491 C505 1.247 . S
O492 Eu475 2.347 . S
O492 C476 1.259 . S
O493 Tb474 2.418 . S
O493 C476 1.265 . S
O494 Tb474 2.384 . S
O494 C477 1.255 . S
O495 Eu475 2.366 . S
O495 C477 1.265 . S
C496 O487 1.255 . S
C496 O488 1.265 . S
O497 Tb474 2.479 . S
O497 C484 1.238 . S
O498 Tb474 2.471 . S
O498 C484 1.247 . S
C499 C502 1.380 . S
C499 C503 1.374 . S
C499 C505 1.507 . S
C500 C501 1.387 . S
C500 C504 1.391 . S
C501 C500 1.387 . S
C501 C502 1.384 . S
C501 H510 0.930 . S
C502 C499 1.380 . S
C502 C501 1.384 . S
C502 H511 0.931 . S
C503 C499 1.374 . S
C503 C504 1.390 . S
C503 H512 0.930 . S
C504 C500 1.391 . S
C504 C503 1.390 . S
C504 H513 0.930 . S
C505 Eu475 2.825 . S
C505 O490 1.238 . S
C505 O491 1.247 . S
C505 C499 1.507 . S
H506 C479 0.930 . S
H507 C480 0.931 . S
H508 C481 0.930 . S
H509 C482 0.930 . S
H510 C501 0.930 . S
H511 C502 0.931 . S
H512 C503 0.930 . S
H513 C504 0.930 . S
Tb514 C524 2.825 . S
Tb514 O525 2.347 . S
Tb514 O528 2.366 . S
Tb514 O533 2.418 . S
Tb514 O534 2.384 . S
Tb514 O537 2.479 . S
Tb514 O538 2.471 . S
Eu515 O526 2.418 . S
Eu515 O527 2.384 . S
Eu515 O530 2.479 . S
Eu515 O531 2.471 . S
Eu515 O532 2.347 . S
Eu515 O535 2.366 . S
Eu515 C545 2.825 . S
C516 O532 1.259 . S
C516 O533 1.265 . S
C517 O534 1.255 . S
C517 O535 1.265 . S
C518 C520 1.380 . S
C518 C521 1.374 . S
C518 C524 1.507 . S
C519 C520 1.384 . S
C519 C523 1.387 . S
C519 H546 0.930 . S
C520 C518 1.380 . S
C520 C519 1.384 . S
C520 H547 0.931 . S
C521 C518 1.374 . S
C521 C522 1.390 . S
C521 H548 0.930 . S
C522 C521 1.390 . S
C522 C523 1.391 . S
C522 H549 0.930 . S
C523 C519 1.387 . S
C523 C522 1.391 . S
C524 Tb514 2.825 . S
C524 C518 1.507 . S
C524 O537 1.238 . S
C524 O538 1.247 . S
O525 Tb514 2.347 . S
O525 C529 1.259 . S
O526 Eu515 2.418 . S
O526 C529 1.265 . S
O527 Eu515 2.384 . S
O527 C536 1.255 . S
O528 Tb514 2.366 . S
O528 C536 1.265 . S
C529 O525 1.259 . S
C529 O526 1.265 . S
O530 Eu515 2.479 . S
O530 C545 1.238 . S
O531 Eu515 2.471 . S
O531 C545 1.247 . S
O532 Eu515 2.347 . S
O532 C516 1.259 . S
O533 Tb514 2.418 . S
O533 C516 1.265 . S
O534 Tb514 2.384 . S
O534 C517 1.255 . S
O535 Eu515 2.366 . S
O535 C517 1.265 . S
C536 O527 1.255 . S
C536 O528 1.265 . S
O537 Tb514 2.479 . S
O537 C524 1.238 . S
O538 Tb514 2.471 . S
O538 C524 1.247 . S
C539 C542 1.380 . S
C539 C543 1.374 . S
C539 C545 1.507 . S
C540 C541 1.387 . S
C540 C544 1.391 . S
C541 C540 1.387 . S
C541 C542 1.384 . S
C541 H550 0.930 . S
C542 C539 1.380 . S
C542 C541 1.384 . S
C542 H551 0.931 . S
C543 C539 1.374 . S
C543 C544 1.390 . S
C543 H552 0.930 . S
C544 C540 1.391 . S
C544 C543 1.390 . S
C544 H553 0.930 . S
C545 Eu515 2.825 . S
C545 O530 1.238 . S
C545 O531 1.247 . S
C545 C539 1.507 . S
H546 C519 0.930 . S
H547 C520 0.931 . S
H548 C521 0.930 . S
H549 C522 0.930 . S
H550 C541 0.930 . S
H551 C542 0.931 . S
H552 C543 0.930 . S
H553 C544 0.930 . S
Tb554 C564 2.825 . S
Tb554 O565 2.347 . S
Tb554 O568 2.366 . S
Tb554 O573 2.418 . S
Tb554 O574 2.384 . S
Tb554 O577 2.479 . S
Tb554 O578 2.471 . S
Eu555 O566 2.418 . S
Eu555 O567 2.384 . S
Eu555 O570 2.479 . S
Eu555 O571 2.471 . S
Eu555 O572 2.347 . S
Eu555 O575 2.366 . S
Eu555 C585 2.825 . S
C556 O572 1.259 . S
C556 O573 1.265 . S
C557 O574 1.255 . S
C557 O575 1.265 . S
C558 C560 1.380 . S
C558 C561 1.374 . S
C558 C564 1.507 . S
C559 C560 1.384 . S
C559 C563 1.387 . S
C559 H586 0.930 . S
C560 C558 1.380 . S
C560 C559 1.384 . S
C560 H587 0.931 . S
C561 C558 1.374 . S
C561 C562 1.390 . S
C561 H588 0.930 . S
C562 C561 1.390 . S
C562 C563 1.391 . S
C562 H589 0.930 . S
C563 C559 1.387 . S
C563 C562 1.391 . S
C564 Tb554 2.825 . S
C564 C558 1.507 . S
C564 O577 1.238 . S
C564 O578 1.247 . S
O565 Tb554 2.347 . S
O565 C569 1.259 . S
O566 Eu555 2.418 . S
O566 C569 1.265 . S
O567 Eu555 2.384 . S
O567 C576 1.255 . S
O568 Tb554 2.366 . S
O568 C576 1.265 . S
C569 O565 1.259 . S
C569 O566 1.265 . S
O570 Eu555 2.479 . S
O570 C585 1.238 . S
O571 Eu555 2.471 . S
O571 C585 1.247 . S
O572 Eu555 2.347 . S
O572 C556 1.259 . S
O573 Tb554 2.418 . S
O573 C556 1.265 . S
O574 Tb554 2.384 . S
O574 C557 1.255 . S
O575 Eu555 2.366 . S
O575 C557 1.265 . S
C576 O567 1.255 . S
C576 O568 1.265 . S
O577 Tb554 2.479 . S
O577 C564 1.238 . S
O578 Tb554 2.471 . S
O578 C564 1.247 . S
C579 C582 1.380 . S
C579 C583 1.374 . S
C579 C585 1.507 . S
C580 C581 1.387 . S
C580 C584 1.391 . S
C581 C580 1.387 . S
C581 C582 1.384 . S
C581 H590 0.930 . S
C582 C579 1.380 . S
C582 C581 1.384 . S
C582 H591 0.931 . S
C583 C579 1.374 . S
C583 C584 1.390 . S
C583 H592 0.930 . S
C584 C580 1.391 . S
C584 C583 1.390 . S
C584 H593 0.930 . S
C585 Eu555 2.825 . S
C585 O570 1.238 . S
C585 O571 1.247 . S
C585 C579 1.507 . S
H586 C559 0.930 . S
H587 C560 0.931 . S
H588 C561 0.930 . S
H589 C562 0.930 . S
H590 C581 0.930 . S
H591 C582 0.931 . S
H592 C583 0.930 . S
H593 C584 0.930 . S
H594 C612 0.951 . S
H595 C614 0.951 . S
H596 C616 0.950 . S
H597 C617 0.950 . S
H598 C619 0.950 . S
H599 C622 0.950 . S
H600 C623 0.950 . S
H601 C625 0.950 . S
H602 C626 0.950 . S
H603 C627 0.951 . S
H604 C629 0.951 . S
H605 C631 0.950 . S
H606 C632 0.950 . S
H607 C634 0.950 . S
H608 C637 0.950 . S
H609 C638 0.950 . S
H610 C640 0.950 . S
H611 C641 0.950 . S
C612 H594 0.951 . S
C612 C613 1.366 . S
C612 C614 1.388 . S
C613 C612 1.366 . S
C613 C617 1.385 . S
C614 H595 0.951 . S
C614 C612 1.388 . S
C614 C615 1.366 . S
C615 C614 1.366 . S
C615 C616 1.414 . S
C615 C618 1.499 . S
C616 H596 0.950 . S
C616 C615 1.414 . S
C616 C617 1.374 . S
C617 H597 0.950 . S
C617 C613 1.385 . S
C617 C616 1.374 . S
C618 C615 1.499 . S
C618 C619 1.373 . S
C618 C620 1.389 . S
C619 H598 0.950 . S
C619 C618 1.373 . S
C619 C635 1.377 . S
C620 C618 1.389 . S
C620 C621 1.524 . S
C620 C634 1.377 . S
C621 C620 1.524 . S
C621 C622 1.397 . S
C621 C626 1.363 . S
C622 H599 0.950 . S
C622 C621 1.397 . S
C622 C623 1.334 . S
C623 H600 0.950 . S
C623 C622 1.334 . S
C623 C624 1.287 . S
C624 C623 1.287 . S
C624 C625 1.524 . S
C624 H643 0.913 . S
C625 H601 0.950 . S
C625 C624 1.524 . S
C625 C626 1.415 . S
C626 H602 0.950 . S
C626 C621 1.363 . S
C626 C625 1.415 . S
C627 H603 0.951 . S
C627 C628 1.366 . S
C627 C629 1.388 . S
C628 C627 1.366 . S
C628 C632 1.385 . S
C629 H604 0.951 . S
C629 C627 1.388 . S
C629 C630 1.366 . S
C630 C629 1.366 . S
C630 C631 1.414 . S
C630 C633 1.499 . S
C631 H605 0.950 . S
C631 C630 1.414 . S
C631 C632 1.374 . S
C632 H606 0.950 . S
C632 C628 1.385 . S
C632 C631 1.374 . S
C633 C630 1.499 . S
C633 C634 1.373 . S
C633 C635 1.389 . S
C634 H607 0.950 . S
C634 C620 1.377 . S
C634 C633 1.373 . S
C635 C619 1.377 . S
C635 C633 1.389 . S
C635 C636 1.524 . S
C636 C635 1.524 . S
C636 C637 1.397 . S
C636 C641 1.363 . S
C637 H608 0.950 . S
C637 C636 1.397 . S
C637 C638 1.334 . S
C638 H609 0.950 . S
C638 C637 1.334 . S
C638 C639 1.287 . S
C639 C638 1.287 . S
C639 C640 1.524 . S
C639 H642 0.992 1_565 S
C640 H610 0.950 . S
C640 C639 1.524 . S
C640 C641 1.415 . S
C641 H611 0.950 . S
C641 C636 1.363 . S
C641 C640 1.415 . S
H642 C639 0.992 1_545 S
H643 C624 0.913 . S
H644 C662 0.951 . S
H645 C664 0.951 . S
H646 C666 0.950 . S
H647 C667 0.950 . S
H648 C669 0.950 . S
H649 C672 0.950 . S
H650 C673 0.950 . S
H651 C675 0.950 . S
H652 C676 0.950 . S
H653 C677 0.951 . S
H654 C679 0.951 . S
H655 C681 0.950 . S
H656 C682 0.950 . S
H657 C684 0.950 . S
H658 C687 0.950 . S
H659 C688 0.950 . S
H660 C690 0.950 . S
H661 C691 0.950 . S
C662 H644 0.951 . S
C662 C663 1.366 . S
C662 C664 1.388 . S
C663 C662 1.366 . S
C663 C667 1.385 . S
C664 H645 0.951 . S
C664 C662 1.388 . S
C664 C665 1.366 . S
C665 C664 1.366 . S
C665 C666 1.414 . S
C665 C668 1.499 . S
C666 H646 0.950 . S
C666 C665 1.414 . S
C666 C667 1.374 . S
C667 H647 0.950 . S
C667 C663 1.385 . S
C667 C666 1.374 . S
C668 C665 1.499 . S
C668 C669 1.373 . S
C668 C670 1.389 . S
C669 H648 0.950 . S
C669 C668 1.373 . S
C669 C685 1.377 . S
C670 C668 1.389 . S
C670 C671 1.524 . S
C670 C684 1.377 . S
C671 C670 1.524 . S
C671 C672 1.397 . S
C671 C676 1.363 . S
C672 H649 0.950 . S
C672 C671 1.397 . S
C672 C673 1.334 . S
C673 H650 0.950 . S
C673 C672 1.334 . S
C673 C674 1.287 . S
C674 C673 1.287 . S
C674 C675 1.524 . S
C674 H693 0.913 . S
C675 H651 0.950 . S
C675 C674 1.524 . S
C675 C676 1.415 . S
C676 H652 0.950 . S
C676 C671 1.363 . S
C676 C675 1.415 . S
C677 H653 0.951 . S
C677 C678 1.366 . S
C677 C679 1.388 . S
C678 C677 1.366 . S
C678 C682 1.385 . S
C679 H654 0.951 . S
C679 C677 1.388 . S
C679 C680 1.366 . S
C680 C679 1.366 . S
C680 C681 1.414 . S
C680 C683 1.499 . S
C681 H655 0.950 . S
C681 C680 1.414 . S
C681 C682 1.374 . S
C682 H656 0.950 . S
C682 C678 1.385 . S
C682 C681 1.374 . S
C683 C680 1.499 . S
C683 C684 1.373 . S
C683 C685 1.389 . S
C684 H657 0.950 . S
C684 C670 1.377 . S
C684 C683 1.373 . S
C685 C669 1.377 . S
C685 C683 1.389 . S
C685 C686 1.524 . S
C686 C685 1.524 . S
C686 C687 1.397 . S
C686 C691 1.363 . S
C687 H658 0.950 . S
C687 C686 1.397 . S
C687 C688 1.334 . S
C688 H659 0.950 . S
C688 C687 1.334 . S
C688 C689 1.287 . S
C689 C688 1.287 . S
C689 C690 1.524 . S
C689 H692 0.999 . S
C690 H660 0.950 . S
C690 C689 1.524 . S
C690 C691 1.415 . S
C691 H661 0.950 . S
C691 C686 1.363 . S
C691 C690 1.415 . S
H692 C689 0.999 . S
H693 C674 0.913 . S
H694 C712 0.951 . S
H695 C714 0.951 . S
H696 C716 0.950 . S
H697 C717 0.950 . S
H698 C719 0.950 . S
H699 C722 0.950 . S
H700 C723 0.950 . S
H701 C725 0.950 . S
H702 C726 0.950 . S
H703 C727 0.951 . S
H704 C729 0.951 . S
H705 C731 0.950 . S
H706 C732 0.950 . S
H707 C734 0.950 . S
H708 C737 0.944 1_554 S
H709 C738 0.950 . S
H710 C740 0.950 . S
H711 C741 0.950 . S
C712 H694 0.951 . S
C712 C713 1.366 . S
C712 C714 1.388 . S
C713 C712 1.366 . S
C713 C717 1.385 . S
C714 H695 0.951 . S
C714 C712 1.388 . S
C714 C715 1.366 . S
C715 C714 1.366 . S
C715 C716 1.414 . S
C715 C718 1.499 . S
C716 H696 0.950 . S
C716 C715 1.414 . S
C716 C717 1.374 . S
C717 H697 0.950 . S
C717 C713 1.385 . S
C717 C716 1.374 . S
C718 C715 1.499 . S
C718 C719 1.373 . S
C718 C720 1.389 . S
C719 H698 0.950 . S
C719 C718 1.373 . S
C719 C735 1.377 . S
C720 C718 1.389 . S
C720 C721 1.524 . S
C720 C734 1.377 . S
C721 C720 1.524 . S
C721 C722 1.397 . S
C721 C726 1.363 . S
C722 H699 0.950 . S
C722 C721 1.397 . S
C722 C723 1.334 . S
C723 H700 0.950 . S
C723 C722 1.334 . S
C723 C724 1.287 . S
C724 C723 1.287 . S
C724 C725 1.524 . S
C724 H743 0.913 . S
C725 H701 0.950 . S
C725 C724 1.524 . S
C725 C726 1.415 . S
C726 H702 0.950 . S
C726 C721 1.363 . S
C726 C725 1.415 . S
C727 H703 0.951 . S
C727 C728 1.366 . S
C727 C729 1.388 . S
C728 C727 1.366 . S
C728 C732 1.385 . S
C729 H704 0.951 . S
C729 C727 1.388 . S
C729 C730 1.366 . S
C730 C729 1.366 . S
C730 C731 1.414 . S
C730 C733 1.499 . S
C731 H705 0.950 . S
C731 C730 1.414 . S
C731 C732 1.374 . S
C732 H706 0.950 . S
C732 C728 1.385 . S
C732 C731 1.374 . S
C733 C730 1.499 . S
C733 C734 1.373 . S
C733 C735 1.389 . S
C734 H707 0.950 . S
C734 C720 1.377 . S
C734 C733 1.373 . S
C735 C719 1.377 . S
C735 C733 1.389 . S
C735 C736 1.524 1_554 S
C736 C735 1.524 1_556 S
C736 C737 1.397 . S
C736 C741 1.363 . S
C737 H708 0.944 1_556 S
C737 C736 1.397 . S
C737 C738 1.334 . S
C738 H709 0.950 . S
C738 C737 1.334 . S
C738 C739 1.287 . S
C739 C738 1.287 . S
C739 C740 1.524 . S
C739 H742 0.999 . S
C740 H710 0.950 . S
C740 C739 1.524 . S
C740 C741 1.415 . S
C741 H711 0.950 . S
C741 C736 1.363 . S
C741 C740 1.415 . S
H742 C739 0.999 . S
H743 C724 0.913 . S
H744 C762 0.951 . S
H745 C764 0.951 . S
H746 C766 0.951 . S
H747 C767 0.950 . S
H748 C769 0.950 . S
H749 C772 0.909 1_554 S
H750 C773 0.950 . S
H751 C775 0.950 . S
H752 C776 0.950 . S
H753 C777 0.951 . S
H754 C779 0.951 . S
H755 C781 0.950 . S
H756 C782 0.950 . S
H757 C784 0.950 . S
H758 C787 0.950 . S
H759 C788 0.950 . S
H760 C790 0.950 1_554 S
H761 C791 0.950 1_554 S
C762 H744 0.951 . S
C762 C763 1.366 . S
C762 C764 1.388 . S
C763 C762 1.366 . S
C763 C767 1.385 . S
C764 H745 0.951 . S
C764 C762 1.388 . S
C764 C765 1.366 . S
C765 C764 1.366 . S
C765 C766 1.414 . S
C765 C768 1.499 . S
C766 H746 0.951 . S
C766 C765 1.414 . S
C766 C767 1.374 . S
C767 H747 0.950 . S
C767 C763 1.385 . S
C767 C766 1.374 . S
C768 C765 1.499 . S
C768 C769 1.373 . S
C768 C770 1.389 . S
C769 H748 0.950 . S
C769 C768 1.373 . S
C769 C785 1.377 . S
C770 C768 1.389 . S
C770 C771 1.524 . S
C770 C784 1.377 . S
C771 C770 1.524 . S
C771 C772 1.442 . S
C771 C776 1.363 . S
C772 H749 0.909 1_556 S
C772 C771 1.442 . S
C772 C773 1.332 1_556 S
C773 H750 0.950 . S
C773 C772 1.332 1_554 S
C773 C774 1.287 1_554 S
C774 C773 1.287 1_556 S
C774 C775 1.524 . S
C774 H793 0.913 . S
C775 H751 0.950 . S
C775 C774 1.524 . S
C775 C776 1.415 . S
C776 H752 0.950 . S
C776 C771 1.363 . S
C776 C775 1.415 . S
C777 H753 0.951 . S
C777 C778 1.366 1_554 S
C777 C779 1.388 . S
C778 C777 1.366 1_556 S
C778 C782 1.385 . S
C779 H754 0.951 . S
C779 C777 1.388 . S
C779 C780 1.366 1_554 S
C780 C779 1.366 1_556 S
C780 C781 1.414 . S
C780 C783 1.499 . S
C781 H755 0.950 . S
C781 C780 1.414 . S
C781 C782 1.374 . S
C782 H756 0.950 . S
C782 C778 1.385 . S
C782 C781 1.374 . S
C783 C780 1.499 . S
C783 C784 1.373 . S
C783 C785 1.389 . S
C784 H757 0.950 . S
C784 C770 1.377 . S
C784 C783 1.373 . S
C785 C769 1.377 . S
C785 C783 1.389 . S
C785 C786 1.524 . S
C786 C785 1.524 . S
C786 C787 1.397 . S
C786 C791 1.363 . S
C787 H758 0.950 . S
C787 C786 1.397 . S
C787 C788 1.334 . S
C788 H759 0.950 . S
C788 C787 1.334 . S
C788 C789 1.287 . S
C789 C788 1.287 . S
C789 C790 1.524 . S
C789 H792 0.999 . S
C790 H760 0.950 1_556 S
C790 C789 1.524 . S
C790 C791 1.415 . S
C791 H761 0.950 1_556 S
C791 C786 1.363 . S
C791 C790 1.415 . S
H792 C789 0.999 . S
H793 C774 0.913 . S
H794 C812 0.951 . S
H795 C814 0.951 . S
H796 C816 0.950 . S
H797 C817 0.950 . S
H798 C819 0.950 . S
H799 C822 0.950 . S
H800 C823 0.950 . S
H801 C825 0.950 . S
H802 C826 0.950 . S
H803 C827 0.951 . S
H804 C829 0.951 . S
H805 C831 0.950 . S
H806 C832 0.950 . S
H807 C834 0.950 . S
H808 C837 0.915 1_554 S
H809 C838 0.950 1_554 S
H810 C840 0.950 . S
H811 C841 0.950 . S
C812 H794 0.951 . S
C812 C813 1.366 . S
C812 C814 1.388 . S
C813 C812 1.366 . S
C813 C817 1.385 . S
C814 H795 0.951 . S
C814 C812 1.388 . S
C814 C815 1.366 . S
C815 C814 1.366 . S
C815 C816 1.414 . S
C815 C818 1.499 . S
C816 H796 0.950 . S
C816 C815 1.414 . S
C816 C817 1.374 . S
C817 H797 0.950 . S
C817 C813 1.385 . S
C817 C816 1.374 . S
C818 C815 1.499 . S
C818 C819 1.373 . S
C818 C820 1.389 . S
C819 H798 0.950 . S
C819 C818 1.373 . S
C819 C835 1.377 . S
C820 C818 1.389 . S
C820 C821 1.524 . S
C820 C834 1.377 . S
C821 C820 1.524 . S
C821 C822 1.397 . S
C821 C826 1.363 . S
C822 H799 0.950 . S
C822 C821 1.397 . S
C822 C823 1.334 . S
C823 H800 0.950 . S
C823 C822 1.334 . S
C823 C824 1.287 . S
C824 C823 1.287 . S
C824 C825 1.524 . S
C824 H843 0.913 . S
C825 H801 0.950 . S
C825 C824 1.524 . S
C825 C826 1.415 . S
C826 H802 0.950 . S
C826 C821 1.363 . S
C826 C825 1.415 . S
C827 H803 0.951 . S
C827 C828 1.366 1_556 S
C827 C829 1.388 . S
C828 C827 1.366 1_554 S
C828 C832 1.385 . S
C829 H804 0.951 . S
C829 C827 1.388 . S
C829 C830 1.366 . S
C830 C829 1.366 . S
C830 C831 1.414 1_556 S
C830 C833 1.499 . S
C831 H805 0.950 . S
C831 C830 1.414 1_554 S
C831 C832 1.374 . S
C832 H806 0.950 . S
C832 C828 1.385 . S
C832 C831 1.374 . S
C833 C830 1.499 . S
C833 C834 1.373 . S
C833 C835 1.389 . S
C834 H807 0.950 . S
C834 C820 1.377 . S
C834 C833 1.373 . S
C835 C819 1.377 . S
C835 C833 1.389 . S
C835 C836 1.524 . S
C836 C835 1.524 . S
C836 C837 1.397 . S
C836 C841 1.363 . S
C837 H808 0.915 1_556 S
C837 C836 1.397 . S
C837 C838 1.334 . S
C838 H809 0.950 1_556 S
C838 C837 1.334 . S
C838 C839 1.287 . S
C839 C838 1.287 . S
C839 C840 1.524 . S
C839 H842 0.999 . S
C840 H810 0.950 . S
C840 C839 1.524 . S
C840 C841 1.415 . S
C841 H811 0.950 . S
C841 C836 1.363 . S
C841 C840 1.415 . S
H842 C839 0.999 . S
H843 C824 0.913 . S
H844 C862 0.951 . S
H845 C864 0.951 . S
H846 C866 0.950 . S
H847 C867 0.950 . S
H848 C869 0.950 1_554 S
H849 C872 0.950 . S
H850 C873 0.950 . S
H851 C875 0.950 . S
H852 C876 0.950 . S
H853 C877 0.951 . S
H854 C879 0.951 . S
H855 C881 0.950 . S
H856 C882 0.950 . S
H857 C884 0.950 . S
H858 C887 0.950 . S
H859 C888 0.950 . S
H860 C890 0.950 . S
H861 C891 0.950 . S
C862 H844 0.951 . S
C862 C863 1.366 . S
C862 C864 1.388 . S
C863 C862 1.366 . S
C863 C867 1.385 . S
C864 H845 0.951 . S
C864 C862 1.388 . S
C864 C865 1.366 . S
C865 C864 1.366 . S
C865 C866 1.414 . S
C865 C868 1.499 . S
C866 H846 0.950 . S
C866 C865 1.414 . S
C866 C867 1.374 . S
C867 H847 0.950 . S
C867 C863 1.385 . S
C867 C866 1.374 . S
C868 C865 1.499 . S
C868 C869 1.373 . S
C868 C870 1.389 . S
C869 H848 0.950 1_556 S
C869 C868 1.373 . S
C869 C885 1.377 1_556 S
C870 C868 1.389 . S
C870 C871 1.524 . S
C870 C884 1.377 . S
C871 C870 1.524 . S
C871 C872 1.397 . S
C871 C876 1.363 . S
C872 H849 0.950 . S
C872 C871 1.397 . S
C872 C873 1.334 . S
C873 H850 0.950 . S
C873 C872 1.334 . S
C873 C874 1.287 . S
C874 C873 1.287 . S
C874 C875 1.524 . S
C874 H893 0.913 . S
C875 H851 0.950 . S
C875 C874 1.524 . S
C875 C876 1.415 . S
C876 H852 0.950 . S
C876 C871 1.363 . S
C876 C875 1.415 . S
C877 H853 0.951 . S
C877 C878 1.366 . S
C877 C879 1.388 1_554 S
C878 C877 1.366 . S
C878 C882 1.385 . S
C879 H854 0.951 . S
C879 C877 1.388 1_556 S
C879 C880 1.371 . S
C880 C879 1.371 . S
C880 C881 1.405 1_556 S
C880 C883 1.510 . S
C881 H855 0.950 . S
C881 C880 1.405 1_554 S
C881 C882 1.374 . S
C882 H856 0.950 . S
C882 C878 1.385 . S
C882 C881 1.374 . S
C883 C880 1.510 . S
C883 C884 1.373 . S
C883 C885 1.389 1_556 S
C884 H857 0.950 . S
C884 C870 1.377 . S
C884 C883 1.373 . S
C885 C869 1.377 1_554 S
C885 C883 1.389 1_554 S
C885 C886 1.524 . S
C886 C885 1.524 . S
C886 C887 1.397 . S
C886 C891 1.363 . S
C887 H858 0.950 . S
C887 C886 1.397 . S
C887 C888 1.334 . S
C888 H859 0.950 . S
C888 C887 1.334 . S
C888 C889 1.287 . S
C889 C888 1.287 . S
C889 C890 1.524 . S
C889 H892 0.999 . S
C890 H860 0.950 . S
C890 C889 1.524 . S
C890 C891 1.415 . S
C891 H861 0.950 . S
C891 C886 1.363 . S
C891 C890 1.415 . S
H892 C889 0.999 . S
H893 C874 0.913 . S
H894 C912 0.951 . S
H895 C914 0.951 . S
H896 C916 0.950 . S
H897 C917 0.950 . S
H898 C919 0.950 1_554 S
H899 C922 0.950 . S
H900 C923 0.950 . S
H901 C925 0.950 . S
H902 C926 0.950 . S
H903 C927 0.935 1_554 S
H904 C929 0.951 . S
H905 C931 0.950 . S
H906 C932 0.950 . S
H907 C934 0.950 . S
H908 C937 0.950 . S
H909 C938 0.950 . S
H910 C940 0.950 . S
H911 C941 0.950 . S
C912 H894 0.951 . S
C912 C913 1.366 . S
C912 C914 1.388 . S
C913 C912 1.366 . S
C913 C917 1.385 . S
C914 H895 0.951 . S
C914 C912 1.388 . S
C914 C915 1.366 . S
C915 C914 1.366 . S
C915 C916 1.414 . S
C915 C918 1.499 . S
C916 H896 0.950 . S
C916 C915 1.414 . S
C916 C917 1.374 . S
C917 H897 0.950 . S
C917 C913 1.385 . S
C917 C916 1.374 . S
C918 C915 1.499 . S
C918 C919 1.373 . S
C918 C920 1.389 . S
C919 H898 0.950 1_556 S
C919 C918 1.373 . S
C919 C935 1.377 . S
C920 C918 1.389 . S
C920 C921 1.524 . S
C920 C934 1.377 . S
C921 C920 1.524 . S
C921 C922 1.397 . S
C921 C926 1.363 . S
C922 H899 0.950 . S
C922 C921 1.397 . S
C922 C923 1.334 . S
C923 H900 0.950 . S
C923 C922 1.334 . S
C923 C924 1.287 . S
C924 C923 1.287 . S
C924 C925 1.524 . S
C924 H943 0.913 . S
C925 H901 0.950 . S
C925 C924 1.524 . S
C925 C926 1.415 . S
C926 H902 0.950 . S
C926 C921 1.363 . S
C926 C925 1.415 . S
C927 H903 0.935 1_556 S
C927 C928 1.370 . S
C927 C929 1.405 . S
C928 C927 1.370 . S
C928 C932 1.385 . S
C929 H904 0.951 . S
C929 C927 1.405 . S
C929 C930 1.366 . S
C930 C929 1.366 . S
C930 C931 1.414 . S
C930 C933 1.499 . S
C931 H905 0.950 . S
C931 C930 1.414 . S
C931 C932 1.374 . S
C932 H906 0.950 . S
C932 C928 1.385 . S
C932 C931 1.374 . S
C933 C930 1.499 . S
C933 C934 1.373 . S
C933 C935 1.389 . S
C934 H907 0.950 . S
C934 C920 1.377 . S
C934 C933 1.373 . S
C935 C919 1.377 . S
C935 C933 1.389 . S
C935 C936 1.524 1_556 S
C936 C935 1.524 1_554 S
C936 C937 1.397 . S
C936 C941 1.363 . S
C937 H908 0.950 . S
C937 C936 1.397 . S
C937 C938 1.334 . S
C938 H909 0.950 . S
C938 C937 1.334 . S
C938 C939 1.287 . S
C939 C938 1.287 . S
C939 C940 1.524 . S
C939 H942 0.999 . S
C940 H910 0.950 . S
C940 C939 1.524 . S
C940 C941 1.415 . S
C941 H911 0.950 . S
C941 C936 1.363 . S
C941 C940 1.415 . S
H942 C939 0.999 . S
H943 C924 0.913 . S
H944 C962 0.951 . S
H945 C964 0.951 . S
H946 C966 0.950 . S
H947 C967 0.950 . S
H948 C969 0.950 . S
H949 C972 0.950 . S
H950 C973 0.950 . S
H951 C975 0.950 . S
H952 C976 0.951 . S
H953 C977 0.951 . S
H954 C979 0.951 . S
H955 C981 0.950 . S
H956 C982 0.950 . S
H957 C984 0.950 . S
H958 C987 0.950 . S
H959 C988 0.950 . S
H960 C990 0.950 . S
H961 C991 0.950 . S
C962 H944 0.951 . S
C962 C963 1.366 . S
C962 C964 1.388 . S
C963 C962 1.366 . S
C963 C967 1.385 . S
C964 H945 0.951 . S
C964 C962 1.388 . S
C964 C965 1.366 . S
C965 C964 1.366 . S
C965 C966 1.414 . S
C965 C968 1.499 . S
C966 H946 0.950 . S
C966 C965 1.414 . S
C966 C967 1.374 . S
C967 H947 0.950 . S
C967 C963 1.385 . S
C967 C966 1.374 . S
C968 C965 1.499 . S
C968 C969 1.373 . S
C968 C970 1.389 . S
C969 H948 0.950 . S
C969 C968 1.373 . S
C969 C985 1.377 . S
C970 C968 1.389 . S
C970 C971 1.524 . S
C970 C984 1.377 . S
C971 C970 1.524 . S
C971 C972 1.397 . S
C971 C976 1.363 . S
C972 H949 0.950 . S
C972 C971 1.397 . S
C972 C973 1.334 . S
C973 H950 0.950 . S
C973 C972 1.334 . S
C973 C974 1.287 1_556 S
C974 C973 1.287 1_554 S
C974 C975 1.524 . S
C974 H993 0.913 . S
C975 H951 0.950 . S
C975 C974 1.524 . S
C975 C976 1.415 1_554 S
C976 H952 0.951 . S
C976 C971 1.363 . S
C976 C975 1.415 1_556 S
C977 H953 0.951 . S
C977 C978 1.366 . S
C977 C979 1.388 . S
C978 C977 1.366 . S
C978 C982 1.385 . S
C979 H954 0.951 . S
C979 C977 1.388 . S
C979 C980 1.366 . S
C980 C979 1.366 . S
C980 C981 1.414 . S
C980 C983 1.499 . S
C981 H955 0.950 . S
C981 C980 1.414 . S
C981 C982 1.374 . S
C982 H956 0.950 . S
C982 C978 1.385 . S
C982 C981 1.374 . S
C983 C980 1.499 . S
C983 C984 1.373 . S
C983 C985 1.389 . S
C984 H957 0.950 . S
C984 C970 1.377 . S
C984 C983 1.373 . S
C985 C969 1.377 . S
C985 C983 1.389 . S
C985 C986 1.524 . S
C986 C985 1.524 . S
C986 C987 1.397 . S
C986 C991 1.363 . S
C987 H958 0.950 . S
C987 C986 1.397 . S
C987 C988 1.334 . S
C988 H959 0.950 . S
C988 C987 1.334 . S
C988 C989 1.287 . S
C989 C988 1.287 . S
C989 C990 1.524 . S
C989 H992 0.999 . S
C990 H960 0.950 . S
C990 C989 1.524 . S
C990 C991 1.415 . S
C991 H961 0.950 . S
C991 C986 1.363 . S
C991 C990 1.415 . S
H992 C989 0.999 . S
H993 C974 0.913 . S
H994 C1012 0.951 . S
H995 C1014 0.951 . S
H996 C1016 0.950 . S
H997 C1017 0.950 . S
H998 C1019 0.950 . S
H999 C1022 0.950 . S
H1000 C1023 0.950 . S
H1001 C1025 0.950 . S
H1002 C1026 0.950 . S
H1003 C1027 0.951 . S
H1004 C1029 0.951 1_556 S
H1005 C1031 0.950 . S
H1006 C1032 0.950 . S
H1007 C1034 0.950 . S
H1008 C1037 0.950 . S
H1009 C1038 0.950 . S
H1010 C1040 0.950 . S
H1011 C1041 0.950 . S
C1012 H994 0.951 . S
C1012 C1013 1.366 . S
C1012 C1014 1.388 . S
C1013 C1012 1.366 . S
C1013 C1017 1.385 . S
C1014 H995 0.951 . S
C1014 C1012 1.388 . S
C1014 C1015 1.366 . S
C1015 C1014 1.366 . S
C1015 C1016 1.414 . S
C1015 C1018 1.499 . S
C1016 H996 0.950 . S
C1016 C1015 1.414 . S
C1016 C1017 1.374 . S
C1017 H997 0.950 . S
C1017 C1013 1.385 . S
C1017 C1016 1.374 . S
C1018 C1015 1.499 . S
C1018 C1019 1.373 1_556 S
C1018 C1020 1.389 . S
C1019 H998 0.950 . S
C1019 C1018 1.373 1_554 S
C1019 C1035 1.377 . S
C1020 C1018 1.389 . S
C1020 C1021 1.524 . S
C1020 C1034 1.377 . S
C1021 C1020 1.524 . S
C1021 C1022 1.397 . S
C1021 C1026 1.363 . S
C1022 H999 0.950 . S
C1022 C1021 1.397 . S
C1022 C1023 1.334 . S
C1023 H1000 0.950 . S
C1023 C1022 1.334 . S
C1023 C1024 1.287 . S
C1024 C1023 1.287 . S
C1024 C1025 1.524 . S
C1024 H1043 0.913 . S
C1025 H1001 0.950 . S
C1025 C1024 1.524 . S
C1025 C1026 1.415 . S
C1026 H1002 0.950 . S
C1026 C1021 1.363 . S
C1026 C1025 1.415 . S
C1027 H1003 0.951 . S
C1027 C1028 1.366 . S
C1027 C1029 1.388 . S
C1028 C1027 1.366 . S
C1028 C1032 1.385 . S
C1029 H1004 0.951 1_554 S
C1029 C1027 1.388 . S
C1029 C1030 1.366 . S
C1030 C1029 1.366 . S
C1030 C1031 1.414 . S
C1030 C1033 1.499 . S
C1031 H1005 0.950 . S
C1031 C1030 1.414 . S
C1031 C1032 1.374 . S
C1032 H1006 0.950 . S
C1032 C1028 1.385 . S
C1032 C1031 1.374 . S
C1033 C1030 1.499 . S
C1033 C1034 1.373 1_554 S
C1033 C1035 1.389 . S
C1034 H1007 0.950 . S
C1034 C1020 1.377 . S
C1034 C1033 1.373 1_556 S
C1035 C1019 1.377 . S
C1035 C1033 1.389 . S
C1035 C1036 1.524 . S
C1036 C1035 1.524 . S
C1036 C1037 1.397 . S
C1036 C1041 1.363 . S
C1037 H1008 0.950 . S
C1037 C1036 1.397 . S
C1037 C1038 1.334 . S
C1038 H1009 0.950 . S
C1038 C1037 1.334 . S
C1038 C1039 1.287 . S
C1039 C1038 1.287 . S
C1039 C1040 1.524 . S
C1039 H1042 0.999 . S
C1040 H1010 0.950 . S
C1040 C1039 1.524 . S
C1040 C1041 1.415 . S
C1041 H1011 0.950 . S
C1041 C1036 1.363 . S
C1041 C1040 1.415 . S
H1042 C1039 0.999 . S
H1043 C1024 0.913 . S
H1044 C1062 0.951 . S
H1045 C1064 0.951 . S
H1046 C1066 0.950 . S
H1047 C1067 0.950 . S
H1048 C1069 0.950 . S
H1049 C1072 0.950 . S
H1050 C1073 0.950 . S
H1051 C1075 0.950 . S
H1052 C1076 0.950 . S
H1053 C1077 0.951 1_556 S
H1054 C1079 0.951 1_556 S
H1055 C1081 0.950 . S
H1056 C1082 0.950 . S
H1057 C1084 0.950 . S
H1058 C1087 0.991 . S
H1059 C1088 0.950 . S
H1060 C1090 0.950 . S
H1061 C1091 0.950 . S
C1062 H1044 0.951 . S
C1062 C1063 1.366 . S
C1062 C1064 1.388 . S
C1063 C1062 1.366 . S
C1063 C1067 1.385 . S
C1064 H1045 0.951 . S
C1064 C1062 1.388 . S
C1064 C1065 1.366 . S
C1065 C1064 1.366 . S
C1065 C1066 1.414 . S
C1065 C1068 1.499 . S
C1066 H1046 0.950 . S
C1066 C1065 1.414 . S
C1066 C1067 1.374 . S
C1067 H1047 0.950 . S
C1067 C1063 1.385 . S
C1067 C1066 1.374 . S
C1068 C1065 1.499 . S
C1068 C1069 1.373 . S
C1068 C1070 1.389 . S
C1069 H1048 0.950 . S
C1069 C1068 1.373 . S
C1069 C1085 1.377 . S
C1070 C1068 1.389 . S
C1070 C1071 1.524 . S
C1070 C1084 1.377 . S
C1071 C1070 1.524 . S
C1071 C1072 1.397 . S
C1071 C1076 1.363 . S
C1072 H1049 0.950 . S
C1072 C1071 1.397 . S
C1072 C1073 1.334 . S
C1073 H1050 0.950 . S
C1073 C1072 1.334 . S
C1073 C1074 1.287 . S
C1074 C1073 1.287 . S
C1074 C1075 1.524 . S
C1074 H1093 0.913 . S
C1075 H1051 0.950 . S
C1075 C1074 1.524 . S
C1075 C1076 1.415 . S
C1076 H1052 0.950 . S
C1076 C1071 1.363 . S
C1076 C1075 1.415 . S
C1077 H1053 0.951 1_554 S
C1077 C1078 1.366 . S
C1077 C1079 1.388 . S
C1078 C1077 1.366 . S
C1078 C1082 1.385 . S
C1079 H1054 0.951 1_554 S
C1079 C1077 1.388 . S
C1079 C1080 1.366 . S
C1080 C1079 1.366 . S
C1080 C1081 1.414 . S
C1080 C1083 1.499 . S
C1081 H1055 0.950 . S
C1081 C1080 1.414 . S
C1081 C1082 1.374 . S
C1082 H1056 0.950 . S
C1082 C1078 1.385 . S
C1082 C1081 1.374 . S
C1083 C1080 1.499 . S
C1083 C1084 1.373 . S
C1083 C1085 1.389 . S
C1084 H1057 0.950 . S
C1084 C1070 1.377 . S
C1084 C1083 1.373 . S
C1085 C1069 1.377 . S
C1085 C1083 1.389 . S
C1085 C1086 1.520 1_554 S
C1086 C1085 1.520 1_556 S
C1086 C1087 1.393 1_556 S
C1086 C1091 1.367 . S
C1087 H1058 0.991 . S
C1087 C1086 1.393 1_554 S
C1087 C1088 1.298 1_554 S
C1088 H1059 0.950 . S
C1088 C1087 1.298 1_556 S
C1088 C1089 1.287 . S
C1089 C1088 1.287 . S
C1089 C1090 1.524 . S
C1089 H1092 0.999 . S
C1090 H1060 0.950 . S
C1090 C1089 1.524 . S
C1090 C1091 1.415 . S
C1091 H1061 0.950 . S
C1091 C1086 1.367 . S
C1091 C1090 1.415 . S
H1092 C1089 0.999 . S
H1093 C1074 0.913 . S
H1094 C1112 0.951 . S
H1095 C1114 0.951 . S
H1096 C1116 0.950 . S
H1097 C1117 0.950 . S
H1098 C1119 0.950 . S
H1099 C1122 0.950 . S
H1100 C1123 0.950 . S
H1101 C1125 0.950 . S
H1102 C1126 0.950 . S
H1103 C1127 0.951 . S
H1104 C1129 0.951 . S
H1105 C1131 0.950 . S
H1106 C1132 0.950 . S
H1107 C1134 0.950 . S
H1108 C1137 0.950 . S
H1109 C1138 0.950 . S
H1110 C1140 0.950 . S
H1111 C1141 0.950 . S
C1112 H1094 0.951 . S
C1112 C1113 1.366 . S
C1112 C1114 1.388 . S
C1113 C1112 1.366 . S
C1113 C1117 1.385 . S
C1114 H1095 0.951 . S
C1114 C1112 1.388 . S
C1114 C1115 1.366 . S
C1115 C1114 1.366 . S
C1115 C1116 1.414 . S
C1115 C1118 1.499 . S
C1116 H1096 0.950 . S
C1116 C1115 1.414 . S
C1116 C1117 1.374 . S
C1117 H1097 0.950 . S
C1117 C1113 1.385 . S
C1117 C1116 1.374 . S
C1118 C1115 1.499 . S
C1118 C1119 1.373 . S
C1118 C1120 1.389 . S
C1119 H1098 0.950 . S
C1119 C1118 1.373 . S
C1119 C1135 1.377 . S
C1120 C1118 1.389 . S
C1120 C1121 1.524 . S
C1120 C1134 1.377 . S
C1121 C1120 1.524 . S
C1121 C1122 1.397 . S
C1121 C1126 1.363 . S
C1122 H1099 0.950 . S
C1122 C1121 1.397 . S
C1122 C1123 1.334 . S
C1123 H1100 0.950 . S
C1123 C1122 1.334 . S
C1123 C1124 1.287 . S
C1124 C1123 1.287 . S
C1124 C1125 1.524 . S
C1124 H1143 0.913 . S
C1125 H1101 0.950 . S
C1125 C1124 1.524 . S
C1125 C1126 1.415 . S
C1126 H1102 0.950 . S
C1126 C1121 1.363 . S
C1126 C1125 1.415 . S
C1127 H1103 0.951 . S
C1127 C1128 1.366 . S
C1127 C1129 1.388 . S
C1128 C1127 1.366 . S
C1128 C1132 1.385 . S
C1129 H1104 0.951 . S
C1129 C1127 1.388 . S
C1129 C1130 1.366 . S
C1130 C1129 1.366 . S
C1130 C1131 1.414 . S
C1130 C1133 1.499 . S
C1131 H1105 0.950 . S
C1131 C1130 1.414 . S
C1131 C1132 1.374 . S
C1132 H1106 0.950 . S
C1132 C1128 1.385 . S
C1132 C1131 1.374 . S
C1133 C1130 1.499 . S
C1133 C1134 1.373 . S
C1133 C1135 1.389 . S
C1134 H1107 0.950 . S
C1134 C1120 1.377 . S
C1134 C1133 1.373 . S
C1135 C1119 1.377 . S
C1135 C1133 1.389 . S
C1135 C1136 1.524 . S
C1136 C1135 1.524 . S
C1136 C1137 1.397 . S
C1136 C1141 1.363 . S
C1137 H1108 0.950 . S
C1137 C1136 1.397 . S
C1137 C1138 1.334 . S
C1138 H1109 0.950 . S
C1138 C1137 1.334 . S
C1138 C1139 1.287 . S
C1139 C1138 1.287 . S
C1139 C1140 1.524 . S
C1139 H1142 0.999 . S
C1140 H1110 0.950 . S
C1140 C1139 1.524 . S
C1140 C1141 1.415 . S
C1141 H1111 0.950 . S
C1141 C1136 1.363 . S
C1141 C1140 1.415 . S
H1142 C1139 0.999 . S
H1143 C1124 0.913 . S
H1144 C1162 0.951 . S
H1145 C1164 0.951 . S
H1146 C1166 0.950 . S
H1147 C1167 0.950 . S
H1148 C1169 0.950 . S
H1149 C1172 0.946 1_554 S
H1150 C1173 0.950 . S
H1151 C1175 0.950 . S
H1152 C1176 0.950 . S
H1153 C1177 0.951 . S
H1154 C1179 0.951 . S
H1155 C1181 0.950 . S
H1156 C1182 0.950 . S
H1157 C1184 0.950 . S
H1158 C1187 0.950 . S
H1159 C1188 0.950 . S
H1160 C1190 0.950 . S
H1161 C1191 0.950 . S
C1162 H1144 0.951 . S
C1162 C1163 1.366 . S
C1162 C1164 1.388 . S
C1163 C1162 1.366 . S
C1163 C1167 1.385 . S
C1164 H1145 0.951 . S
C1164 C1162 1.388 . S
C1164 C1165 1.366 . S
C1165 C1164 1.366 . S
C1165 C1166 1.414 . S
C1165 C1168 1.499 . S
C1166 H1146 0.950 . S
C1166 C1165 1.414 . S
C1166 C1167 1.374 . S
C1167 H1147 0.950 . S
C1167 C1163 1.385 . S
C1167 C1166 1.374 . S
C1168 C1165 1.499 . S
C1168 C1169 1.373 . S
C1168 C1170 1.389 . S
C1169 H1148 0.950 . S
C1169 C1168 1.373 . S
C1169 C1185 1.377 . S
C1170 C1168 1.389 . S
C1170 C1171 1.524 . S
C1170 C1184 1.377 . S
C1171 C1170 1.524 . S
C1171 C1172 1.389 1_554 S
C1171 C1176 1.363 . S
C1172 H1149 0.946 1_556 S
C1172 C1171 1.389 1_556 S
C1172 C1173 1.346 . S
C1173 H1150 0.950 . S
C1173 C1172 1.346 . S
C1173 C1174 1.287 . S
C1174 C1173 1.287 . S
C1174 C1175 1.524 . S
C1174 H1193 0.913 . S
C1175 H1151 0.950 . S
C1175 C1174 1.524 . S
C1175 C1176 1.415 1_556 S
C1176 H1152 0.950 . S
C1176 C1171 1.363 . S
C1176 C1175 1.415 1_554 S
C1177 H1153 0.951 . S
C1177 C1178 1.366 . S
C1177 C1179 1.388 . S
C1178 C1177 1.366 . S
C1178 C1182 1.385 . S
C1179 H1154 0.951 . S
C1179 C1177 1.388 . S
C1179 C1180 1.366 . S
C1180 C1179 1.366 . S
C1180 C1181 1.414 . S
C1180 C1183 1.499 . S
C1181 H1155 0.950 . S
C1181 C1180 1.414 . S
C1181 C1182 1.374 . S
C1182 H1156 0.950 . S
C1182 C1178 1.385 . S
C1182 C1181 1.374 . S
C1183 C1180 1.499 . S
C1183 C1184 1.373 . S
C1183 C1185 1.389 . S
C1184 H1157 0.950 . S
C1184 C1170 1.377 . S
C1184 C1183 1.373 . S
C1185 C1169 1.377 . S
C1185 C1183 1.389 . S
C1185 C1186 1.524 . S
C1186 C1185 1.524 . S
C1186 C1187 1.397 . S
C1186 C1191 1.363 . S
C1187 H1158 0.950 . S
C1187 C1186 1.397 . S
C1187 C1188 1.334 . S
C1188 H1159 0.950 . S
C1188 C1187 1.334 . S
C1188 C1189 1.287 . S
C1189 C1188 1.287 . S
C1189 C1190 1.524 . S
C1189 H1192 0.999 . S
C1190 H1160 0.950 . S
C1190 C1189 1.524 . S
C1190 C1191 1.415 . S
C1191 H1161 0.950 . S
C1191 C1186 1.363 . S
C1191 C1190 1.415 . S
H1192 C1189 0.999 . S
H1193 C1174 0.913 . S
H1194 C1212 0.951 . S
H1195 C1214 0.951 . S
H1196 C1216 0.950 . S
H1197 C1217 0.950 . S
H1198 C1219 0.950 . S
H1199 C1222 0.950 . S
H1200 C1223 0.950 . S
H1201 C1225 0.950 . S
H1202 C1226 0.950 . S
H1203 C1227 0.951 . S
H1204 C1229 0.951 . S
H1205 C1231 0.950 . S
H1206 C1232 0.950 . S
H1207 C1234 0.950 . S
H1208 C1237 0.950 . S
H1209 C1238 0.950 . S
H1210 C1240 0.950 . S
H1211 C1241 0.950 1_655 S
C1212 H1194 0.951 . S
C1212 C1213 1.366 . S
C1212 C1214 1.388 . S
C1213 C1212 1.366 . S
C1213 C1217 1.385 . S
C1214 H1195 0.951 . S
C1214 C1212 1.388 . S
C1214 C1215 1.366 . S
C1215 C1214 1.366 . S
C1215 C1216 1.414 . S
C1215 C1218 1.499 . S
C1216 H1196 0.950 . S
C1216 C1215 1.414 . S
C1216 C1217 1.374 . S
C1217 H1197 0.950 . S
C1217 C1213 1.385 . S
C1217 C1216 1.374 . S
C1218 C1215 1.499 . S
C1218 C1219 1.373 . S
C1218 C1220 1.389 1_655 S
C1219 H1198 0.950 . S
C1219 C1218 1.373 . S
C1219 C1235 1.377 1_655 S
C1220 C1218 1.389 1_455 S
C1220 C1221 1.524 . S
C1220 C1234 1.377 . S
C1221 C1220 1.524 . S
C1221 C1222 1.397 1_455 S
C1221 C1226 1.363 . S
C1222 H1199 0.950 . S
C1222 C1221 1.397 1_655 S
C1222 C1223 1.334 . S
C1223 H1200 0.950 . S
C1223 C1222 1.334 . S
C1223 C1224 1.287 . S
C1224 C1223 1.287 . S
C1224 C1225 1.524 1_655 S
C1224 H1243 0.913 . S
C1225 H1201 0.950 . S
C1225 C1224 1.524 1_455 S
C1225 C1226 1.415 . S
C1226 H1202 0.950 . S
C1226 C1221 1.363 . S
C1226 C1225 1.415 . S
C1227 H1203 0.951 . S
C1227 C1228 1.366 . S
C1227 C1229 1.388 . S
C1228 C1227 1.366 . S
C1228 C1232 1.385 . S
C1229 H1204 0.951 . S
C1229 C1227 1.388 . S
C1229 C1230 1.366 . S
C1230 C1229 1.366 . S
C1230 C1231 1.414 . S
C1230 C1233 1.499 . S
C1231 H1205 0.950 . S
C1231 C1230 1.414 . S
C1231 C1232 1.374 . S
C1232 H1206 0.950 . S
C1232 C1228 1.385 . S
C1232 C1231 1.374 . S
C1233 C1230 1.499 . S
C1233 C1234 1.373 . S
C1233 C1235 1.389 . S
C1234 H1207 0.950 . S
C1234 C1220 1.377 . S
C1234 C1233 1.373 . S
C1235 C1219 1.377 1_455 S
C1235 C1233 1.389 . S
C1235 C1236 1.524 . S
C1236 C1235 1.524 . S
C1236 C1237 1.397 . S
C1236 C1241 1.363 . S
C1237 H1208 0.950 . S
C1237 C1236 1.397 . S
C1237 C1238 1.334 . S
C1238 H1209 0.950 . S
C1238 C1237 1.334 . S
C1238 C1239 1.287 . S
C1239 C1238 1.287 . S
C1239 C1240 1.524 . S
C1239 H1242 0.999 . S
C1240 H1210 0.950 . S
C1240 C1239 1.524 . S
C1240 C1241 1.415 . S
C1241 H1211 0.950 1_455 S
C1241 C1236 1.363 . S
C1241 C1240 1.415 . S
H1242 C1239 0.999 . S
H1243 C1224 0.913 . S
H1244 C1262 0.951 . S
H1245 C1264 0.951 . S
H1246 C1266 0.950 . S
H1247 C1267 0.950 . S
H1248 C1269 0.950 . S
H1249 C1272 0.950 . S
H1250 C1273 0.950 . S
H1251 C1275 0.950 . S
H1252 C1276 0.950 . S
H1253 C1277 0.951 . S
H1254 C1279 0.951 . S
H1255 C1281 0.950 . S
H1256 C1282 0.950 . S
H1257 C1284 0.950 . S
H1258 C1287 0.950 . S
H1259 C1288 0.950 . S
H1260 C1290 0.950 . S
H1261 C1291 0.950 . S
C1262 H1244 0.951 . S
C1262 C1263 1.366 . S
C1262 C1264 1.388 . S
C1263 C1262 1.366 . S
C1263 C1267 1.385 . S
C1264 H1245 0.951 . S
C1264 C1262 1.388 . S
C1264 C1265 1.366 . S
C1265 C1264 1.366 . S
C1265 C1266 1.414 . S
C1265 C1268 1.499 . S
C1266 H1246 0.950 . S
C1266 C1265 1.414 . S
C1266 C1267 1.374 . S
C1267 H1247 0.950 . S
C1267 C1263 1.385 . S
C1267 C1266 1.374 . S
C1268 C1265 1.499 . S
C1268 C1269 1.373 . S
C1268 C1270 1.389 . S
C1269 H1248 0.950 . S
C1269 C1268 1.373 . S
C1269 C1285 1.377 . S
C1270 C1268 1.389 . S
C1270 C1271 1.524 . S
C1270 C1284 1.377 . S
C1271 C1270 1.524 . S
C1271 C1272 1.397 . S
C1271 C1276 1.363 . S
C1272 H1249 0.950 . S
C1272 C1271 1.397 . S
C1272 C1273 1.334 . S
C1273 H1250 0.950 . S
C1273 C1272 1.334 . S
C1273 C1274 1.287 . S
C1274 C1273 1.287 . S
C1274 C1275 1.524 . S
C1274 H1293 0.913 . S
C1275 H1251 0.950 . S
C1275 C1274 1.524 . S
C1275 C1276 1.415 . S
C1276 H1252 0.950 . S
C1276 C1271 1.363 . S
C1276 C1275 1.415 . S
C1277 H1253 0.951 . S
C1277 C1278 1.366 . S
C1277 C1279 1.388 . S
C1278 C1277 1.366 . S
C1278 C1282 1.385 . S
C1279 H1254 0.951 . S
C1279 C1277 1.388 . S
C1279 C1280 1.366 . S
C1280 C1279 1.366 . S
C1280 C1281 1.414 . S
C1280 C1283 1.499 . S
C1281 H1255 0.950 . S
C1281 C1280 1.414 . S
C1281 C1282 1.374 . S
C1282 H1256 0.950 . S
C1282 C1278 1.385 . S
C1282 C1281 1.374 . S
C1283 C1280 1.499 . S
C1283 C1284 1.373 . S
C1283 C1285 1.389 . S
C1284 H1257 0.950 . S
C1284 C1270 1.377 . S
C1284 C1283 1.373 . S
C1285 C1269 1.377 . S
C1285 C1283 1.389 . S
C1285 C1286 1.524 . S
C1286 C1285 1.524 . S
C1286 C1287 1.397 . S
C1286 C1291 1.363 . S
C1287 H1258 0.950 . S
C1287 C1286 1.397 . S
C1287 C1288 1.334 . S
C1288 H1259 0.950 . S
C1288 C1287 1.334 . S
C1288 C1289 1.287 . S
C1289 C1288 1.287 . S
C1289 C1290 1.524 . S
C1289 H1292 0.999 . S
C1290 H1260 0.950 . S
C1290 C1289 1.524 . S
C1290 C1291 1.415 . S
C1291 H1261 0.950 . S
C1291 C1286 1.363 . S
C1291 C1290 1.415 . S
H1292 C1289 0.999 . S
H1293 C1274 0.913 . S
H1294 C1312 0.951 . S
H1295 C1314 0.951 . S
H1296 C1316 0.950 . S
H1297 C1317 0.950 . S
H1298 C1319 0.918 1_545 S
H1299 C1322 0.950 . S
H1300 C1323 0.950 . S
H1301 C1325 0.950 . S
H1302 C1326 0.950 . S
H1303 C1327 0.951 . S
H1304 C1329 0.951 . S
H1305 C1331 0.950 . S
H1306 C1332 0.950 . S
H1307 C1334 0.950 . S
H1308 C1337 0.950 . S
H1309 C1338 0.950 . S
H1310 C1340 0.950 . S
H1311 C1341 0.950 . S
C1312 H1294 0.951 . S
C1312 C1313 1.366 . S
C1312 C1314 1.388 . S
C1313 C1312 1.366 . S
C1313 C1317 1.385 . S
C1314 H1295 0.951 . S
C1314 C1312 1.388 . S
C1314 C1315 1.366 . S
C1315 C1314 1.366 . S
C1315 C1316 1.414 . S
C1315 C1318 1.499 . S
C1316 H1296 0.950 . S
C1316 C1315 1.414 . S
C1316 C1317 1.374 . S
C1317 H1297 0.950 . S
C1317 C1313 1.385 . S
C1317 C1316 1.374 . S
C1318 C1315 1.499 . S
C1318 C1319 1.356 1_545 S
C1318 C1320 1.389 . S
C1319 H1298 0.918 1_565 S
C1319 C1318 1.356 1_565 S
C1319 C1335 1.428 . S
C1320 C1318 1.389 . S
C1320 C1321 1.524 . S
C1320 C1334 1.377 1_545 S
C1321 C1320 1.524 . S
C1321 C1322 1.397 . S
C1321 C1326 1.363 . S
C1322 H1299 0.950 . S
C1322 C1321 1.397 . S
C1322 C1323 1.334 . S
C1323 H1300 0.950 . S
C1323 C1322 1.334 . S
C1323 C1324 1.287 . S
C1324 C1323 1.287 . S
C1324 C1325 1.524 . S
C1324 H1343 0.913 . S
C1325 H1301 0.950 . S
C1325 C1324 1.524 . S
C1325 C1326 1.415 . S
C1326 H1302 0.950 . S
C1326 C1321 1.363 . S
C1326 C1325 1.415 . S
C1327 H1303 0.951 . S
C1327 C1328 1.366 . S
C1327 C1329 1.388 . S
C1328 C1327 1.366 . S
C1328 C1332 1.385 . S
C1329 H1304 0.951 . S
C1329 C1327 1.388 . S
C1329 C1330 1.366 . S
C1330 C1329 1.366 . S
C1330 C1331 1.414 . S
C1330 C1333 1.499 . S
C1331 H1305 0.950 . S
C1331 C1330 1.414 . S
C1331 C1332 1.374 . S
C1332 H1306 0.950 . S
C1332 C1328 1.385 . S
C1332 C1331 1.374 . S
C1333 C1330 1.499 . S
C1333 C1334 1.373 . S
C1333 C1335 1.389 . S
C1334 H1307 0.950 . S
C1334 C1320 1.377 1_565 S
C1334 C1333 1.373 . S
C1335 C1319 1.428 . S
C1335 C1333 1.389 . S
C1335 C1336 1.524 . S
C1336 C1335 1.524 . S
C1336 C1337 1.397 . S
C1336 C1341 1.363 . S
C1337 H1308 0.950 . S
C1337 C1336 1.397 . S
C1337 C1338 1.334 . S
C1338 H1309 0.950 . S
C1338 C1337 1.334 . S
C1338 C1339 1.287 . S
C1339 C1338 1.287 . S
C1339 C1340 1.524 . S
C1339 H1342 0.999 . S
C1340 H1310 0.950 . S
C1340 C1339 1.524 . S
C1340 C1341 1.415 . S
C1341 H1311 0.950 . S
C1341 C1336 1.363 . S
C1341 C1340 1.415 . S
H1342 C1339 0.999 . S
H1343 C1324 0.913 . S
H1344 C1362 0.951 . S
H1345 C1364 0.951 . S
H1346 C1366 0.950 . S
H1347 C1367 0.950 . S
H1348 C1369 0.950 . S
H1349 C1372 0.950 . S
H1350 C1373 0.950 . S
H1351 C1375 0.950 . S
H1352 C1376 0.950 . S
H1353 C1377 0.951 . S
H1354 C1379 0.951 . S
H1355 C1381 0.950 . S
H1356 C1382 0.950 . S
H1357 C1384 0.950 . S
H1358 C1387 0.950 . S
H1359 C1388 0.950 . S
H1360 C1390 0.950 . S
H1361 C1391 0.950 . S
C1362 H1344 0.951 . S
C1362 C1363 1.366 . S
C1362 C1364 1.388 . S
C1363 C1362 1.366 . S
C1363 C1367 1.385 . S
C1364 H1345 0.951 . S
C1364 C1362 1.388 . S
C1364 C1365 1.366 . S
C1365 C1364 1.366 . S
C1365 C1366 1.414 . S
C1365 C1368 1.499 . S
C1366 H1346 0.950 . S
C1366 C1365 1.414 . S
C1366 C1367 1.374 . S
C1367 H1347 0.950 . S
C1367 C1363 1.385 . S
C1367 C1366 1.374 . S
C1368 C1365 1.499 . S
C1368 C1369 1.373 . S
C1368 C1370 1.389 . S
C1369 H1348 0.950 . S
C1369 C1368 1.373 . S
C1369 C1385 1.377 . S
C1370 C1368 1.389 . S
C1370 C1371 1.524 . S
C1370 C1384 1.377 . S
C1371 C1370 1.524 . S
C1371 C1372 1.397 . S
C1371 C1376 1.363 . S
C1372 H1349 0.950 . S
C1372 C1371 1.397 . S
C1372 C1373 1.334 . S
C1373 H1350 0.950 . S
C1373 C1372 1.334 . S
C1373 C1374 1.287 . S
C1374 C1373 1.287 . S
C1374 C1375 1.524 . S
C1374 H1393 0.913 . S
C1375 H1351 0.950 . S
C1375 C1374 1.524 . S
C1375 C1376 1.415 . S
C1376 H1352 0.950 . S
C1376 C1371 1.363 . S
C1376 C1375 1.415 . S
C1377 H1353 0.951 . S
C1377 C1378 1.366 . S
C1377 C1379 1.388 . S
C1378 C1377 1.366 . S
C1378 C1382 1.385 . S
C1379 H1354 0.951 . S
C1379 C1377 1.388 . S
C1379 C1380 1.366 . S
C1380 C1379 1.366 . S
C1380 C1381 1.414 . S
C1380 C1383 1.499 . S
C1381 H1355 0.950 . S
C1381 C1380 1.414 . S
C1381 C1382 1.374 . S
C1382 H1356 0.950 . S
C1382 C1378 1.385 . S
C1382 C1381 1.374 . S
C1383 C1380 1.499 . S
C1383 C1384 1.373 . S
C1383 C1385 1.389 . S
C1384 H1357 0.950 . S
C1384 C1370 1.377 . S
C1384 C1383 1.373 . S
C1385 C1369 1.377 . S
C1385 C1383 1.389 . S
C1385 C1386 1.524 . S
C1386 C1385 1.524 . S
C1386 C1387 1.397 . S
C1386 C1391 1.363 . S
C1387 H1358 0.950 . S
C1387 C1386 1.397 . S
C1387 C1388 1.334 . S
C1388 H1359 0.950 . S
C1388 C1387 1.334 . S
C1388 C1389 1.287 . S
C1389 C1388 1.287 . S
C1389 C1390 1.524 . S
C1389 H1392 0.999 . S
C1390 H1360 0.950 . S
C1390 C1389 1.524 . S
C1390 C1391 1.415 . S
C1391 H1361 0.950 . S
C1391 C1386 1.363 . S
C1391 C1390 1.415 . S
H1392 C1389 0.999 . S
H1393 C1374 0.913 . S
H1394 C1412 0.951 . S
H1395 C1414 0.951 . S
H1396 C1416 0.950 . S
H1397 C1417 0.950 . S
H1398 C1419 0.950 . S
H1399 C1422 0.950 . S
H1400 C1423 0.950 . S
H1401 C1425 0.950 . S
H1402 C1426 0.950 . S
H1403 C1427 0.951 . S
H1404 C1429 0.951 . S
H1405 C1431 0.950 . S
H1406 C1432 0.950 . S
H1407 C1434 0.950 . S
H1408 C1437 0.950 . S
H1409 C1438 0.950 . S
H1410 C1440 0.950 . S
H1411 C1441 0.950 . S
C1412 H1394 0.951 . S
C1412 C1413 1.366 . S
C1412 C1414 1.388 . S
C1413 C1412 1.366 . S
C1413 C1417 1.385 . S
C1414 H1395 0.951 . S
C1414 C1412 1.388 . S
C1414 C1415 1.366 . S
C1415 C1414 1.366 . S
C1415 C1416 1.414 . S
C1415 C1418 1.499 . S
C1416 H1396 0.950 . S
C1416 C1415 1.414 . S
C1416 C1417 1.374 . S
C1417 H1397 0.950 . S
C1417 C1413 1.385 . S
C1417 C1416 1.374 . S
C1418 C1415 1.499 . S
C1418 C1419 1.373 . S
C1418 C1420 1.389 . S
C1419 H1398 0.950 . S
C1419 C1418 1.373 . S
C1419 C1435 1.377 . S
C1420 C1418 1.389 . S
C1420 C1421 1.524 . S
C1420 C1434 1.377 . S
C1421 C1420 1.524 . S
C1421 C1422 1.397 . S
C1421 C1426 1.363 . S
C1422 H1399 0.950 . S
C1422 C1421 1.397 . S
C1422 C1423 1.334 . S
C1423 H1400 0.950 . S
C1423 C1422 1.334 . S
C1423 C1424 1.287 . S
C1424 C1423 1.287 . S
C1424 C1425 1.524 . S
C1424 H1443 0.913 . S
C1425 H1401 0.950 . S
C1425 C1424 1.524 . S
C1425 C1426 1.415 . S
C1426 H1402 0.950 . S
C1426 C1421 1.363 . S
C1426 C1425 1.415 . S
C1427 H1403 0.951 . S
C1427 C1428 1.366 . S
C1427 C1429 1.388 . S
C1428 C1427 1.366 . S
C1428 C1432 1.385 . S
C1429 H1404 0.951 . S
C1429 C1427 1.388 . S
C1429 C1430 1.366 . S
C1430 C1429 1.366 . S
C1430 C1431 1.414 . S
C1430 C1433 1.499 . S
C1431 H1405 0.950 . S
C1431 C1430 1.414 . S
C1431 C1432 1.374 . S
C1432 H1406 0.950 . S
C1432 C1428 1.385 . S
C1432 C1431 1.374 . S
C1433 C1430 1.499 . S
C1433 C1434 1.373 . S
C1433 C1435 1.389 . S
C1434 H1407 0.950 . S
C1434 C1420 1.377 . S
C1434 C1433 1.373 . S
C1435 C1419 1.377 . S
C1435 C1433 1.389 . S
C1435 C1436 1.524 . S
C1436 C1435 1.524 . S
C1436 C1437 1.397 . S
C1436 C1441 1.363 . S
C1437 H1408 0.950 . S
C1437 C1436 1.397 . S
C1437 C1438 1.334 . S
C1438 H1409 0.950 . S
C1438 C1437 1.334 . S
C1438 C1439 1.287 . S
C1439 C1438 1.287 . S
C1439 C1440 1.524 . S
C1439 H1442 0.999 . S
C1440 H1410 0.950 . S
C1440 C1439 1.524 . S
C1440 C1441 1.415 . S
C1441 H1411 0.950 . S
C1441 C1436 1.363 . S
C1441 C1440 1.415 . S
H1442 C1439 0.999 . S
H1443 C1424 0.913 . S
H1444 C1462 0.951 . S
H1445 C1464 0.951 . S
H1446 C1466 0.950 . S
H1447 C1467 0.950 . S
H1448 C1469 0.950 . S
H1449 C1472 0.950 . S
H1450 C1473 0.950 . S
H1451 C1475 0.950 . S
H1452 C1476 0.950 . S
H1453 C1477 0.951 . S
H1454 C1479 0.951 . S
H1455 C1481 0.950 . S
H1456 C1482 0.950 . S
H1457 C1484 0.950 . S
H1458 C1487 0.950 . S
H1459 C1488 0.950 . S
H1460 C1490 0.950 . S
H1461 C1491 0.950 . S
C1462 H1444 0.951 . S
C1462 C1463 1.366 . S
C1462 C1464 1.388 . S
C1463 C1462 1.366 . S
C1463 C1467 1.385 . S
C1464 H1445 0.951 . S
C1464 C1462 1.388 . S
C1464 C1465 1.366 . S
C1465 C1464 1.366 . S
C1465 C1466 1.414 . S
C1465 C1468 1.499 . S
C1466 H1446 0.950 . S
C1466 C1465 1.414 . S
C1466 C1467 1.374 . S
C1467 H1447 0.950 . S
C1467 C1463 1.385 . S
C1467 C1466 1.374 . S
C1468 C1465 1.499 . S
C1468 C1469 1.373 . S
C1468 C1470 1.389 . S
C1469 H1448 0.950 . S
C1469 C1468 1.373 . S
C1469 C1485 1.377 . S
C1470 C1468 1.389 . S
C1470 C1471 1.524 . S
C1470 C1484 1.377 . S
C1471 C1470 1.524 . S
C1471 C1472 1.397 . S
C1471 C1476 1.363 . S
C1472 H1449 0.950 . S
C1472 C1471 1.397 . S
C1472 C1473 1.334 . S
C1473 H1450 0.950 . S
C1473 C1472 1.334 . S
C1473 C1474 1.287 . S
C1474 C1473 1.287 . S
C1474 C1475 1.524 . S
C1474 H1493 0.913 . S
C1475 H1451 0.950 . S
C1475 C1474 1.524 . S
C1475 C1476 1.415 . S
C1476 H1452 0.950 . S
C1476 C1471 1.363 . S
C1476 C1475 1.415 . S
C1477 H1453 0.951 . S
C1477 C1478 1.366 . S
C1477 C1479 1.388 . S
C1478 C1477 1.366 . S
C1478 C1482 1.385 . S
C1479 H1454 0.951 . S
C1479 C1477 1.388 . S
C1479 C1480 1.366 . S
C1480 C1479 1.366 . S
C1480 C1481 1.414 . S
C1480 C1483 1.499 . S
C1481 H1455 0.950 . S
C1481 C1480 1.414 . S
C1481 C1482 1.374 . S
C1482 H1456 0.950 . S
C1482 C1478 1.385 . S
C1482 C1481 1.374 . S
C1483 C1480 1.499 . S
C1483 C1484 1.373 . S
C1483 C1485 1.389 . S
C1484 H1457 0.950 . S
C1484 C1470 1.377 . S
C1484 C1483 1.373 . S
C1485 C1469 1.377 . S
C1485 C1483 1.389 . S
C1485 C1486 1.524 . S
C1486 C1485 1.524 . S
C1486 C1487 1.397 . S
C1486 C1491 1.363 . S
C1487 H1458 0.950 . S
C1487 C1486 1.397 . S
C1487 C1488 1.334 . S
C1488 H1459 0.950 . S
C1488 C1487 1.334 . S
C1488 C1489 1.287 . S
C1489 C1488 1.287 . S
C1489 C1490 1.524 . S
C1489 H1492 0.999 . S
C1490 H1460 0.950 . S
C1490 C1489 1.524 . S
C1490 C1491 1.415 . S
C1491 H1461 0.950 . S
C1491 C1486 1.363 . S
C1491 C1490 1.415 . S
H1492 C1489 0.999 . S
H1493 C1474 0.913 . S
H1494 C1512 0.951 . S
H1495 C1514 0.951 . S
H1496 C1516 0.950 . S
H1497 C1517 0.950 . S
H1498 C1519 0.950 . S
H1499 C1522 0.950 . S
H1500 C1523 0.950 . S
H1501 C1525 0.950 . S
H1502 C1526 0.950 . S
H1503 C1527 0.951 . S
H1504 C1529 0.951 . S
H1505 C1531 0.950 . S
H1506 C1532 0.950 . S
H1507 C1534 0.950 . S
H1508 C1537 0.950 . S
H1509 C1538 0.950 . S
H1510 C1540 0.950 . S
H1511 C1541 0.950 . S
C1512 H1494 0.951 . S
C1512 C1513 1.366 . S
C1512 C1514 1.388 . S
C1513 C1512 1.366 . S
C1513 C1517 1.385 . S
C1514 H1495 0.951 . S
C1514 C1512 1.388 . S
C1514 C1515 1.366 . S
C1515 C1514 1.366 . S
C1515 C1516 1.414 . S
C1515 C1518 1.499 . S
C1516 H1496 0.950 . S
C1516 C1515 1.414 . S
C1516 C1517 1.374 . S
C1517 H1497 0.950 . S
C1517 C1513 1.385 . S
C1517 C1516 1.374 . S
C1518 C1515 1.499 . S
C1518 C1519 1.373 . S
C1518 C1520 1.389 . S
C1519 H1498 0.950 . S
C1519 C1518 1.373 . S
C1519 C1535 1.377 . S
C1520 C1518 1.389 . S
C1520 C1521 1.524 . S
C1520 C1534 1.377 . S
C1521 C1520 1.524 . S
C1521 C1522 1.397 . S
C1521 C1526 1.363 . S
C1522 H1499 0.950 . S
C1522 C1521 1.397 . S
C1522 C1523 1.334 . S
C1523 H1500 0.950 . S
C1523 C1522 1.334 . S
C1523 C1524 1.287 . S
C1524 C1523 1.287 . S
C1524 C1525 1.524 . S
C1524 H1543 0.913 . S
C1525 H1501 0.950 . S
C1525 C1524 1.524 . S
C1525 C1526 1.415 . S
C1526 H1502 0.950 . S
C1526 C1521 1.363 . S
C1526 C1525 1.415 . S
C1527 H1503 0.951 . S
C1527 C1528 1.366 . S
C1527 C1529 1.388 . S
C1528 C1527 1.366 . S
C1528 C1532 1.385 . S
C1529 H1504 0.951 . S
C1529 C1527 1.388 . S
C1529 C1530 1.366 . S
C1530 C1529 1.366 . S
C1530 C1531 1.414 . S
C1530 C1533 1.499 . S
C1531 H1505 0.950 . S
C1531 C1530 1.414 . S
C1531 C1532 1.374 . S
C1532 H1506 0.950 . S
C1532 C1528 1.385 . S
C1532 C1531 1.374 . S
C1533 C1530 1.499 . S
C1533 C1534 1.373 . S
C1533 C1535 1.389 . S
C1534 H1507 0.950 . S
C1534 C1520 1.377 . S
C1534 C1533 1.373 . S
C1535 C1519 1.377 . S
C1535 C1533 1.389 . S
C1535 C1536 1.524 . S
C1536 C1535 1.524 . S
C1536 C1537 1.397 . S
C1536 C1541 1.363 . S
C1537 H1508 0.950 . S
C1537 C1536 1.397 . S
C1537 C1538 1.334 . S
C1538 H1509 0.950 . S
C1538 C1537 1.334 . S
C1538 C1539 1.287 . S
C1539 C1538 1.287 . S
C1539 C1540 1.524 . S
C1539 H1542 0.999 . S
C1540 H1510 0.950 . S
C1540 C1539 1.524 . S
C1540 C1541 1.415 . S
C1541 H1511 0.950 . S
C1541 C1536 1.363 . S
C1541 C1540 1.415 . S
H1542 C1539 0.999 . S
H1543 C1524 0.913 . S
H1544 C1562 0.951 . S
H1545 C1564 0.951 . S
H1546 C1566 0.950 . S
H1547 C1567 0.950 . S
H1548 C1569 0.950 . S
H1549 C1572 0.950 . S
H1550 C1573 0.950 . S
H1551 C1575 0.950 . S
H1552 C1576 0.950 . S
H1553 C1577 0.951 . S
H1554 C1579 0.951 . S
H1555 C1581 0.950 . S
H1556 C1582 0.950 . S
H1557 C1584 0.950 . S
H1558 C1587 0.950 . S
H1559 C1588 0.950 . S
H1560 C1590 0.950 . S
H1561 C1591 0.950 . S
C1562 H1544 0.951 . S
C1562 C1563 1.366 . S
C1562 C1564 1.388 . S
C1563 C1562 1.366 . S
C1563 C1567 1.385 . S
C1564 H1545 0.951 . S
C1564 C1562 1.388 . S
C1564 C1565 1.366 . S
C1565 C1564 1.366 . S
C1565 C1566 1.414 . S
C1565 C1568 1.499 . S
C1566 H1546 0.950 . S
C1566 C1565 1.414 . S
C1566 C1567 1.374 . S
C1567 H1547 0.950 . S
C1567 C1563 1.385 . S
C1567 C1566 1.374 . S
C1568 C1565 1.499 . S
C1568 C1569 1.373 . S
C1568 C1570 1.389 . S
C1569 H1548 0.950 . S
C1569 C1568 1.373 . S
C1569 C1585 1.377 . S
C1570 C1568 1.389 . S
C1570 C1571 1.524 . S
C1570 C1584 1.377 . S
C1571 C1570 1.524 . S
C1571 C1572 1.397 . S
C1571 C1576 1.363 . S
C1572 H1549 0.950 . S
C1572 C1571 1.397 . S
C1572 C1573 1.334 . S
C1573 H1550 0.950 . S
C1573 C1572 1.334 . S
C1573 C1574 1.287 . S
C1574 C1573 1.287 . S
C1574 C1575 1.524 . S
C1574 H1593 0.913 . S
C1575 H1551 0.950 . S
C1575 C1574 1.524 . S
C1575 C1576 1.415 . S
C1576 H1552 0.950 . S
C1576 C1571 1.363 . S
C1576 C1575 1.415 . S
C1577 H1553 0.951 . S
C1577 C1578 1.366 . S
C1577 C1579 1.388 . S
C1578 C1577 1.366 . S
C1578 C1582 1.385 . S
C1579 H1554 0.951 . S
C1579 C1577 1.388 . S
C1579 C1580 1.366 . S
C1580 C1579 1.366 . S
C1580 C1581 1.414 . S
C1580 C1583 1.499 . S
C1581 H1555 0.950 . S
C1581 C1580 1.414 . S
C1581 C1582 1.374 . S
C1582 H1556 0.950 . S
C1582 C1578 1.385 . S
C1582 C1581 1.374 . S
C1583 C1580 1.499 . S
C1583 C1584 1.373 . S
C1583 C1585 1.389 . S
C1584 H1557 0.950 . S
C1584 C1570 1.377 . S
C1584 C1583 1.373 . S
C1585 C1569 1.377 . S
C1585 C1583 1.389 . S
C1585 C1586 1.524 . S
C1586 C1585 1.524 . S
C1586 C1587 1.397 . S
C1586 C1591 1.363 . S
C1587 H1558 0.950 . S
C1587 C1586 1.397 . S
C1587 C1588 1.334 . S
C1588 H1559 0.950 . S
C1588 C1587 1.334 . S
C1588 C1589 1.287 . S
C1589 C1588 1.287 . S
C1589 C1590 1.524 . S
C1589 H1592 0.999 . S
C1590 H1560 0.950 . S
C1590 C1589 1.524 . S
C1590 C1591 1.415 . S
C1591 H1561 0.950 . S
C1591 C1586 1.363 . S
C1591 C1590 1.415 . S
H1592 C1589 0.999 . S
H1593 C1574 0.913 . S
H1594 C1612 0.951 . S
H1595 C1614 0.951 . S
H1596 C1616 0.950 . S
H1597 C1617 0.950 . S
H1598 C1619 0.950 . S
H1599 C1622 0.950 . S
H1600 C1623 0.950 . S
H1601 C1625 0.950 . S
H1602 C1626 0.950 . S
H1603 C1627 0.951 . S
H1604 C1629 0.951 . S
H1605 C1631 0.950 . S
H1606 C1632 0.950 . S
H1607 C1634 0.950 . S
H1608 C1637 0.950 . S
H1609 C1638 0.950 . S
H1610 C1640 0.950 . S
H1611 C1641 0.950 . S
C1612 H1594 0.951 . S
C1612 C1613 1.366 . S
C1612 C1614 1.388 . S
C1613 C1612 1.366 . S
C1613 C1617 1.385 . S
C1614 H1595 0.951 . S
C1614 C1612 1.388 . S
C1614 C1615 1.366 . S
C1615 C1614 1.366 . S
C1615 C1616 1.414 . S
C1615 C1618 1.499 . S
C1616 H1596 0.950 . S
C1616 C1615 1.414 . S
C1616 C1617 1.374 . S
C1617 H1597 0.950 . S
C1617 C1613 1.385 . S
C1617 C1616 1.374 . S
C1618 C1615 1.499 . S
C1618 C1619 1.373 . S
C1618 C1620 1.389 . S
C1619 H1598 0.950 . S
C1619 C1618 1.373 . S
C1619 C1635 1.377 . S
C1620 C1618 1.389 . S
C1620 C1621 1.524 . S
C1620 C1634 1.377 . S
C1621 C1620 1.524 . S
C1621 C1622 1.397 . S
C1621 C1626 1.363 . S
C1622 H1599 0.950 . S
C1622 C1621 1.397 . S
C1622 C1623 1.334 . S
C1623 H1600 0.950 . S
C1623 C1622 1.334 . S
C1623 C1624 1.287 . S
C1624 C1623 1.287 . S
C1624 C1625 1.524 . S
C1624 H1643 0.913 . S
C1625 H1601 0.950 . S
C1625 C1624 1.524 . S
C1625 C1626 1.415 . S
C1626 H1602 0.950 . S
C1626 C1621 1.363 . S
C1626 C1625 1.415 . S
C1627 H1603 0.951 . S
C1627 C1628 1.366 . S
C1627 C1629 1.388 . S
C1628 C1627 1.366 . S
C1628 C1632 1.385 . S
C1629 H1604 0.951 . S
C1629 C1627 1.388 . S
C1629 C1630 1.366 . S
C1630 C1629 1.366 . S
C1630 C1631 1.414 . S
C1630 C1633 1.499 . S
C1631 H1605 0.950 . S
C1631 C1630 1.414 . S
C1631 C1632 1.374 . S
C1632 H1606 0.950 . S
C1632 C1628 1.385 . S
C1632 C1631 1.374 . S
C1633 C1630 1.499 . S
C1633 C1634 1.373 . S
C1633 C1635 1.389 . S
C1634 H1607 0.950 . S
C1634 C1620 1.377 . S
C1634 C1633 1.373 . S
C1635 C1619 1.377 . S
C1635 C1633 1.389 . S
C1635 C1636 1.524 . S
C1636 C1635 1.524 . S
C1636 C1637 1.397 . S
C1636 C1641 1.363 . S
C1637 H1608 0.950 . S
C1637 C1636 1.397 . S
C1637 C1638 1.334 . S
C1638 H1609 0.950 . S
C1638 C1637 1.334 . S
C1638 C1639 1.287 . S
C1639 C1638 1.287 . S
C1639 C1640 1.524 . S
C1639 H1642 0.999 . S
C1640 H1610 0.950 . S
C1640 C1639 1.524 . S
C1640 C1641 1.415 . S
C1641 H1611 0.950 . S
C1641 C1636 1.363 . S
C1641 C1640 1.415 . S
H1642 C1639 0.999 . S
H1643 C1624 0.913 . S
H1644 C1662 0.951 . S
H1645 C1664 0.951 . S
H1646 C1666 0.950 . S
H1647 C1667 0.950 . S
H1648 C1669 0.950 . S
H1649 C1672 0.950 . S
H1650 C1673 0.950 . S
H1651 C1675 0.950 . S
H1652 C1676 0.950 . S
H1653 C1677 0.951 . S
H1654 C1679 0.951 . S
H1655 C1681 0.950 . S
H1656 C1682 0.950 . S
H1657 C1684 0.950 . S
H1658 C1687 0.950 . S
H1659 C1688 0.950 . S
H1660 C1690 0.950 . S
H1661 C1691 0.950 . S
C1662 H1644 0.951 . S
C1662 C1663 1.366 . S
C1662 C1664 1.388 . S
C1663 C1662 1.366 . S
C1663 C1667 1.385 . S
C1664 H1645 0.951 . S
C1664 C1662 1.388 . S
C1664 C1665 1.366 . S
C1665 C1664 1.366 . S
C1665 C1666 1.414 . S
C1665 C1668 1.499 . S
C1666 H1646 0.950 . S
C1666 C1665 1.414 . S
C1666 C1667 1.374 . S
C1667 H1647 0.950 . S
C1667 C1663 1.385 . S
C1667 C1666 1.374 . S
C1668 C1665 1.499 . S
C1668 C1669 1.373 . S
C1668 C1670 1.389 . S
C1669 H1648 0.950 . S
C1669 C1668 1.373 . S
C1669 C1685 1.377 1_545 S
C1670 C1668 1.389 . S
C1670 C1671 1.524 . S
C1670 C1684 1.377 1_545 S
C1671 C1670 1.524 . S
C1671 C1672 1.397 . S
C1671 C1676 1.363 . S
C1672 H1649 0.950 . S
C1672 C1671 1.397 . S
C1672 C1673 1.334 . S
C1673 H1650 0.950 . S
C1673 C1672 1.334 . S
C1673 C1674 1.287 . S
C1674 C1673 1.287 . S
C1674 C1675 1.524 . S
C1674 H1693 0.913 . S
C1675 H1651 0.950 . S
C1675 C1674 1.524 . S
C1675 C1676 1.415 . S
C1676 H1652 0.950 . S
C1676 C1671 1.363 . S
C1676 C1675 1.415 . S
C1677 H1653 0.951 . S
C1677 C1678 1.366 . S
C1677 C1679 1.388 . S
C1678 C1677 1.366 . S
C1678 C1682 1.385 . S
C1679 H1654 0.951 . S
C1679 C1677 1.388 . S
C1679 C1680 1.366 . S
C1680 C1679 1.366 . S
C1680 C1681 1.414 . S
C1680 C1683 1.499 . S
C1681 H1655 0.950 . S
C1681 C1680 1.414 . S
C1681 C1682 1.374 . S
C1682 H1656 0.950 . S
C1682 C1678 1.385 . S
C1682 C1681 1.374 . S
C1683 C1680 1.499 . S
C1683 C1684 1.373 . S
C1683 C1685 1.389 . S
C1684 H1657 0.950 . S
C1684 C1670 1.377 1_565 S
C1684 C1683 1.373 . S
C1685 C1669 1.377 1_565 S
C1685 C1683 1.389 . S
C1685 C1686 1.524 . S
C1686 C1685 1.524 . S
C1686 C1687 1.397 . S
C1686 C1691 1.363 . S
C1687 H1658 0.950 . S
C1687 C1686 1.397 . S
C1687 C1688 1.334 . S
C1688 H1659 0.950 . S
C1688 C1687 1.334 . S
C1688 C1689 1.287 . S
C1689 C1688 1.287 . S
C1689 C1690 1.524 . S
C1689 H1692 0.999 . S
C1690 H1660 0.950 . S
C1690 C1689 1.524 . S
C1690 C1691 1.415 . S
C1691 H1661 0.950 . S
C1691 C1686 1.363 . S
C1691 C1690 1.415 . S
H1692 C1689 0.999 . S
H1693 C1674 0.913 . S
H1694 C1712 0.951 . S
H1695 C1714 0.951 . S
H1696 C1716 0.950 . S
H1697 C1717 0.950 . S
H1698 C1719 0.950 . S
H1699 C1722 0.950 . S
H1700 C1723 0.950 . S
H1701 C1725 0.950 . S
H1702 C1726 0.950 . S
H1703 C1727 0.951 . S
H1704 C1729 0.951 . S
H1705 C1731 0.950 . S
H1706 C1732 0.950 . S
H1707 C1734 0.950 . S
H1708 C1737 0.950 . S
H1709 C1738 0.950 . S
H1710 C1740 0.950 . S
H1711 C1741 0.950 . S
C1712 H1694 0.951 . S
C1712 C1713 1.366 . S
C1712 C1714 1.388 . S
C1713 C1712 1.366 . S
C1713 C1717 1.385 . S
C1714 H1695 0.951 . S
C1714 C1712 1.388 . S
C1714 C1715 1.366 . S
C1715 C1714 1.366 . S
C1715 C1716 1.414 . S
C1715 C1718 1.499 . S
C1716 H1696 0.950 . S
C1716 C1715 1.414 . S
C1716 C1717 1.374 . S
C1717 H1697 0.950 . S
C1717 C1713 1.385 . S
C1717 C1716 1.374 . S
C1718 C1715 1.499 . S
C1718 C1719 1.373 1_655 S
C1718 C1720 1.388 1_655 S
C1719 H1698 0.950 . S
C1719 C1718 1.373 1_455 S
C1719 C1735 1.377 . S
C1720 C1718 1.388 1_455 S
C1720 C1721 1.523 1_455 S
C1720 C1734 1.380 . S
C1721 C1720 1.523 1_655 S
C1721 C1722 1.397 . S
C1721 C1726 1.363 . S
C1722 H1699 0.950 . S
C1722 C1721 1.397 . S
C1722 C1723 1.334 . S
C1723 H1700 0.950 . S
C1723 C1722 1.334 . S
C1723 C1724 1.287 . S
C1724 C1723 1.287 . S
C1724 C1725 1.524 . S
C1724 H1743 0.913 . S
C1725 H1701 0.950 . S
C1725 C1724 1.524 . S
C1725 C1726 1.415 . S
C1726 H1702 0.950 . S
C1726 C1721 1.363 . S
C1726 C1725 1.415 . S
C1727 H1703 0.951 . S
C1727 C1728 1.366 . S
C1727 C1729 1.388 . S
C1728 C1727 1.366 . S
C1728 C1732 1.385 . S
C1729 H1704 0.951 . S
C1729 C1727 1.388 . S
C1729 C1730 1.366 . S
C1730 C1729 1.366 . S
C1730 C1731 1.414 . S
C1730 C1733 1.499 . S
C1731 H1705 0.950 . S
C1731 C1730 1.414 . S
C1731 C1732 1.374 . S
C1732 H1706 0.950 . S
C1732 C1728 1.385 . S
C1732 C1731 1.374 . S
C1733 C1730 1.499 . S
C1733 C1734 1.373 . S
C1733 C1735 1.389 . S
C1734 H1707 0.950 . S
C1734 C1720 1.380 . S
C1734 C1733 1.373 . S
C1735 C1719 1.377 . S
C1735 C1733 1.389 . S
C1735 C1736 1.524 . S
C1736 C1735 1.524 . S
C1736 C1737 1.397 . S
C1736 C1741 1.363 . S
C1737 H1708 0.950 . S
C1737 C1736 1.397 . S
C1737 C1738 1.334 . S
C1738 H1709 0.950 . S
C1738 C1737 1.334 . S
C1738 C1739 1.287 . S
C1739 C1738 1.287 . S
C1739 C1740 1.524 . S
C1739 H1742 0.999 . S
C1740 H1710 0.950 . S
C1740 C1739 1.524 . S
C1740 C1741 1.415 . S
C1741 H1711 0.950 . S
C1741 C1736 1.363 . S
C1741 C1740 1.415 . S
H1742 C1739 0.999 . S
H1743 C1724 0.913 . S
H1744 C1762 0.951 . S
H1745 C1764 0.951 . S
H1746 C1766 0.950 . S
H1747 C1767 0.950 . S
H1748 C1769 0.950 . S
H1749 C1772 0.950 . S
H1750 C1773 0.950 . S
H1751 C1775 0.950 . S
H1752 C1776 0.950 . S
H1753 C1777 0.951 . S
H1754 C1779 0.951 . S
H1755 C1781 0.950 . S
H1756 C1782 0.950 . S
H1757 C1784 0.950 . S
H1758 C1787 0.950 . S
H1759 C1788 0.950 . S
H1760 C1790 0.950 . S
H1761 C1791 0.950 . S
C1762 H1744 0.951 . S
C1762 C1763 1.366 . S
C1762 C1764 1.388 . S
C1763 C1762 1.366 . S
C1763 C1767 1.385 . S
C1764 H1745 0.951 . S
C1764 C1762 1.388 . S
C1764 C1765 1.366 . S
C1765 C1764 1.366 . S
C1765 C1766 1.414 . S
C1765 C1768 1.499 . S
C1766 H1746 0.950 . S
C1766 C1765 1.414 . S
C1766 C1767 1.374 . S
C1767 H1747 0.950 . S
C1767 C1763 1.385 . S
C1767 C1766 1.374 . S
C1768 C1765 1.499 . S
C1768 C1769 1.373 . S
C1768 C1770 1.389 . S
C1769 H1748 0.950 . S
C1769 C1768 1.373 . S
C1769 C1785 1.377 . S
C1770 C1768 1.389 . S
C1770 C1771 1.524 . S
C1770 C1784 1.377 . S
C1771 C1770 1.524 . S
C1771 C1772 1.397 . S
C1771 C1776 1.363 . S
C1772 H1749 0.950 . S
C1772 C1771 1.397 . S
C1772 C1773 1.334 . S
C1773 H1750 0.950 . S
C1773 C1772 1.334 . S
C1773 C1774 1.287 . S
C1774 C1773 1.287 . S
C1774 C1775 1.524 . S
C1774 H1793 0.913 . S
C1775 H1751 0.950 . S
C1775 C1774 1.524 . S
C1775 C1776 1.415 . S
C1776 H1752 0.950 . S
C1776 C1771 1.363 . S
C1776 C1775 1.415 . S
C1777 H1753 0.951 . S
C1777 C1778 1.366 . S
C1777 C1779 1.388 . S
C1778 C1777 1.366 . S
C1778 C1782 1.385 . S
C1779 H1754 0.951 . S
C1779 C1777 1.388 . S
C1779 C1780 1.366 . S
C1780 C1779 1.366 . S
C1780 C1781 1.414 . S
C1780 C1783 1.499 . S
C1781 H1755 0.950 . S
C1781 C1780 1.414 . S
C1781 C1782 1.374 . S
C1782 H1756 0.950 . S
C1782 C1778 1.385 . S
C1782 C1781 1.374 . S
C1783 C1780 1.499 . S
C1783 C1784 1.373 . S
C1783 C1785 1.389 . S
C1784 H1757 0.950 . S
C1784 C1770 1.377 . S
C1784 C1783 1.373 . S
C1785 C1769 1.377 . S
C1785 C1783 1.389 . S
C1785 C1786 1.524 . S
C1786 C1785 1.524 . S
C1786 C1787 1.397 . S
C1786 C1791 1.363 . S
C1787 H1758 0.950 . S
C1787 C1786 1.397 . S
C1787 C1788 1.334 . S
C1788 H1759 0.950 . S
C1788 C1787 1.334 . S
C1788 C1789 1.287 . S
C1789 C1788 1.287 . S
C1789 C1790 1.524 . S
C1789 H1792 0.999 . S
C1790 H1760 0.950 . S
C1790 C1789 1.524 . S
C1790 C1791 1.415 . S
C1791 H1761 0.950 . S
C1791 C1786 1.363 . S
C1791 C1790 1.415 . S
H1792 C1789 0.999 . S
H1793 C1774 0.913 . S
H1794 C1812 0.951 . S
H1795 C1814 0.951 . S
H1796 C1816 0.950 . S
H1797 C1817 0.950 . S
H1798 C1819 0.950 . S
H1799 C1822 0.950 . S
H1800 C1823 0.950 . S
H1801 C1825 0.950 . S
H1802 C1826 0.950 . S
H1803 C1827 0.951 . S
H1804 C1829 0.951 . S
H1805 C1831 0.950 . S
H1806 C1832 0.950 . S
H1807 C1834 0.950 . S
H1808 C1837 0.950 . S
H1809 C1838 0.950 . S
H1810 C1840 0.950 . S
H1811 C1841 0.950 . S
C1812 H1794 0.951 . S
C1812 C1813 1.366 . S
C1812 C1814 1.388 . S
C1813 C1812 1.366 . S
C1813 C1817 1.385 . S
C1814 H1795 0.951 . S
C1814 C1812 1.388 . S
C1814 C1815 1.366 . S
C1815 C1814 1.366 . S
C1815 C1816 1.414 . S
C1815 C1818 1.499 . S
C1816 H1796 0.950 . S
C1816 C1815 1.414 . S
C1816 C1817 1.374 . S
C1817 H1797 0.950 . S
C1817 C1813 1.385 . S
C1817 C1816 1.374 . S
C1818 C1815 1.499 . S
C1818 C1819 1.373 . S
C1818 C1820 1.389 . S
C1819 H1798 0.950 . S
C1819 C1818 1.373 . S
C1819 C1835 1.377 . S
C1820 C1818 1.389 . S
C1820 C1821 1.524 . S
C1820 C1834 1.377 . S
C1821 C1820 1.524 . S
C1821 C1822 1.397 . S
C1821 C1826 1.363 . S
C1822 H1799 0.950 . S
C1822 C1821 1.397 . S
C1822 C1823 1.334 . S
C1823 H1800 0.950 . S
C1823 C1822 1.334 . S
C1823 C1824 1.287 . S
C1824 C1823 1.287 . S
C1824 C1825 1.524 . S
C1824 H1843 0.913 . S
C1825 H1801 0.950 . S
C1825 C1824 1.524 . S
C1825 C1826 1.415 . S
C1826 H1802 0.950 . S
C1826 C1821 1.363 . S
C1826 C1825 1.415 . S
C1827 H1803 0.951 . S
C1827 C1828 1.366 . S
C1827 C1829 1.388 . S
C1828 C1827 1.366 . S
C1828 C1832 1.385 . S
C1829 H1804 0.951 . S
C1829 C1827 1.388 . S
C1829 C1830 1.366 . S
C1830 C1829 1.366 . S
C1830 C1831 1.414 . S
C1830 C1833 1.499 . S
C1831 H1805 0.950 . S
C1831 C1830 1.414 . S
C1831 C1832 1.374 . S
C1832 H1806 0.950 . S
C1832 C1828 1.385 . S
C1832 C1831 1.374 . S
C1833 C1830 1.499 . S
C1833 C1834 1.373 . S
C1833 C1835 1.389 . S
C1834 H1807 0.950 . S
C1834 C1820 1.377 . S
C1834 C1833 1.373 . S
C1835 C1819 1.377 . S
C1835 C1833 1.389 . S
C1835 C1836 1.524 . S
C1836 C1835 1.524 . S
C1836 C1837 1.397 . S
C1836 C1841 1.363 . S
C1837 H1808 0.950 . S
C1837 C1836 1.397 . S
C1837 C1838 1.334 . S
C1838 H1809 0.950 . S
C1838 C1837 1.334 . S
C1838 C1839 1.287 . S
C1839 C1838 1.287 . S
C1839 C1840 1.524 . S
C1839 H1842 0.999 . S
C1840 H1810 0.950 . S
C1840 C1839 1.524 . S
C1840 C1841 1.415 . S
C1841 H1811 0.950 . S
C1841 C1836 1.363 . S
C1841 C1840 1.415 . S
H1842 C1839 0.999 . S
H1843 C1824 0.913 . S
H1844 C1862 0.951 . S
H1845 C1864 0.951 . S
H1846 C1866 0.950 . S
H1847 C1867 0.950 . S
H1848 C1869 0.950 . S
H1849 C1872 0.950 . S
H1850 C1873 0.950 . S
H1851 C1875 0.950 . S
H1852 C1876 0.950 . S
H1853 C1877 0.951 . S
H1854 C1879 0.951 . S
H1855 C1881 0.950 . S
H1856 C1882 0.950 . S
H1857 C1884 0.950 . S
H1858 C1887 0.950 . S
H1859 C1888 0.950 . S
H1860 C1890 0.950 . S
H1861 C1891 0.950 . S
C1862 H1844 0.951 . S
C1862 C1863 1.366 . S
C1862 C1864 1.388 . S
C1863 C1862 1.366 . S
C1863 C1867 1.385 . S
C1864 H1845 0.951 . S
C1864 C1862 1.388 . S
C1864 C1865 1.366 . S
C1865 C1864 1.366 . S
C1865 C1866 1.414 . S
C1865 C1868 1.499 . S
C1866 H1846 0.950 . S
C1866 C1865 1.414 . S
C1866 C1867 1.374 . S
C1867 H1847 0.950 . S
C1867 C1863 1.385 . S
C1867 C1866 1.374 . S
C1868 C1865 1.499 . S
C1868 C1869 1.373 . S
C1868 C1870 1.389 . S
C1869 H1848 0.950 . S
C1869 C1868 1.373 . S
C1869 C1885 1.377 . S
C1870 C1868 1.389 . S
C1870 C1871 1.524 . S
C1870 C1884 1.377 . S
C1871 C1870 1.524 . S
C1871 C1872 1.397 . S
C1871 C1876 1.363 . S
C1872 H1849 0.950 . S
C1872 C1871 1.397 . S
C1872 C1873 1.334 . S
C1873 H1850 0.950 . S
C1873 C1872 1.334 . S
C1873 C1874 1.287 . S
C1874 C1873 1.287 . S
C1874 C1875 1.524 . S
C1874 H1893 0.913 . S
C1875 H1851 0.950 . S
C1875 C1874 1.524 . S
C1875 C1876 1.415 . S
C1876 H1852 0.950 . S
C1876 C1871 1.363 . S
C1876 C1875 1.415 . S
C1877 H1853 0.951 . S
C1877 C1878 1.366 . S
C1877 C1879 1.388 . S
C1878 C1877 1.366 . S
C1878 C1882 1.385 . S
C1879 H1854 0.951 . S
C1879 C1877 1.388 . S
C1879 C1880 1.366 . S
C1880 C1879 1.366 . S
C1880 C1881 1.414 . S
C1880 C1883 1.499 . S
C1881 H1855 0.950 . S
C1881 C1880 1.414 . S
C1881 C1882 1.374 . S
C1882 H1856 0.950 . S
C1882 C1878 1.385 . S
C1882 C1881 1.374 . S
C1883 C1880 1.499 . S
C1883 C1884 1.373 . S
C1883 C1885 1.389 . S
C1884 H1857 0.950 . S
C1884 C1870 1.377 . S
C1884 C1883 1.373 . S
C1885 C1869 1.377 . S
C1885 C1883 1.389 . S
C1885 C1886 1.524 . S
C1886 C1885 1.524 . S
C1886 C1887 1.397 . S
C1886 C1891 1.363 . S
C1887 H1858 0.950 . S
C1887 C1886 1.397 . S
C1887 C1888 1.334 . S
C1888 H1859 0.950 . S
C1888 C1887 1.334 . S
C1888 C1889 1.287 . S
C1889 C1888 1.287 . S
C1889 C1890 1.524 . S
C1889 H1892 0.999 . S
C1890 H1860 0.950 . S
C1890 C1889 1.524 . S
C1890 C1891 1.415 . S
C1891 H1861 0.950 . S
C1891 C1886 1.363 . S
C1891 C1890 1.415 . S
H1892 C1889 0.999 . S
H1893 C1874 0.913 . S
H1894 C1912 0.951 . S
H1895 C1914 0.951 . S
H1896 C1916 0.950 . S
H1897 C1917 0.950 . S
H1898 C1919 0.950 . S
H1899 C1922 0.950 . S
H1900 C1923 0.950 . S
H1901 C1925 0.950 . S
H1902 C1926 0.950 . S
H1903 C1927 0.951 . S
H1904 C1929 0.951 . S
H1905 C1931 0.950 . S
H1906 C1932 0.950 . S
H1907 C1934 0.950 . S
H1908 C1937 0.950 . S
H1909 C1938 0.950 . S
H1910 C1940 0.950 . S
H1911 C1941 0.950 . S
C1912 H1894 0.951 . S
C1912 C1913 1.366 . S
C1912 C1914 1.388 . S
C1913 C1912 1.366 . S
C1913 C1917 1.385 . S
C1914 H1895 0.951 . S
C1914 C1912 1.388 . S
C1914 C1915 1.366 . S
C1915 C1914 1.366 . S
C1915 C1916 1.414 . S
C1915 C1918 1.499 . S
C1916 H1896 0.950 . S
C1916 C1915 1.414 . S
C1916 C1917 1.374 . S
C1917 H1897 0.950 . S
C1917 C1913 1.385 . S
C1917 C1916 1.374 . S
C1918 C1915 1.499 . S
C1918 C1919 1.373 . S
C1918 C1920 1.389 . S
C1919 H1898 0.950 . S
C1919 C1918 1.373 . S
C1919 C1935 1.377 . S
C1920 C1918 1.389 . S
C1920 C1921 1.524 . S
C1920 C1934 1.377 . S
C1921 C1920 1.524 . S
C1921 C1922 1.397 . S
C1921 C1926 1.363 . S
C1922 H1899 0.950 . S
C1922 C1921 1.397 . S
C1922 C1923 1.334 . S
C1923 H1900 0.950 . S
C1923 C1922 1.334 . S
C1923 C1924 1.287 . S
C1924 C1923 1.287 . S
C1924 C1925 1.524 . S
C1924 H1943 0.913 . S
C1925 H1901 0.950 . S
C1925 C1924 1.524 . S
C1925 C1926 1.415 . S
C1926 H1902 0.950 . S
C1926 C1921 1.363 . S
C1926 C1925 1.415 . S
C1927 H1903 0.951 . S
C1927 C1928 1.366 . S
C1927 C1929 1.388 . S
C1928 C1927 1.366 . S
C1928 C1932 1.385 . S
C1929 H1904 0.951 . S
C1929 C1927 1.388 . S
C1929 C1930 1.366 . S
C1930 C1929 1.366 . S
C1930 C1931 1.414 . S
C1930 C1933 1.499 . S
C1931 H1905 0.950 . S
C1931 C1930 1.414 . S
C1931 C1932 1.374 . S
C1932 H1906 0.950 . S
C1932 C1928 1.385 . S
C1932 C1931 1.374 . S
C1933 C1930 1.499 . S
C1933 C1934 1.373 . S
C1933 C1935 1.389 . S
C1934 H1907 0.950 . S
C1934 C1920 1.377 . S
C1934 C1933 1.373 . S
C1935 C1919 1.377 . S
C1935 C1933 1.389 . S
C1935 C1936 1.524 . S
C1936 C1935 1.524 . S
C1936 C1937 1.397 . S
C1936 C1941 1.363 . S
C1937 H1908 0.950 . S
C1937 C1936 1.397 . S
C1937 C1938 1.334 . S
C1938 H1909 0.950 . S
C1938 C1937 1.334 . S
C1938 C1939 1.287 . S
C1939 C1938 1.287 . S
C1939 C1940 1.524 . S
C1939 H1942 0.999 . S
C1940 H1910 0.950 . S
C1940 C1939 1.524 . S
C1940 C1941 1.415 . S
C1941 H1911 0.950 . S
C1941 C1936 1.363 . S
C1941 C1940 1.415 . S
H1942 C1939 0.999 . S
H1943 C1924 0.913 . S
H1944 C1962 0.951 . S
H1945 C1964 0.951 . S
H1946 C1966 0.950 . S
H1947 C1967 0.950 . S
H1948 C1969 0.950 . S
H1949 C1972 0.950 . S
H1950 C1973 0.950 . S
H1951 C1975 0.950 . S
H1952 C1976 0.950 1_545 S
H1953 C1977 0.951 . S
H1954 C1979 0.951 . S
H1955 C1981 0.950 . S
H1956 C1982 0.950 . S
H1957 C1984 0.950 . S
H1958 C1987 0.950 . S
H1959 C1988 0.950 . S
H1960 C1990 0.950 . S
H1961 C1991 0.950 . S
C1962 H1944 0.951 . S
C1962 C1963 1.366 . S
C1962 C1964 1.388 . S
C1963 C1962 1.366 . S
C1963 C1967 1.385 . S
C1964 H1945 0.951 . S
C1964 C1962 1.388 . S
C1964 C1965 1.366 . S
C1965 C1964 1.366 . S
C1965 C1966 1.414 . S
C1965 C1968 1.499 . S
C1966 H1946 0.950 . S
C1966 C1965 1.414 . S
C1966 C1967 1.374 . S
C1967 H1947 0.950 . S
C1967 C1963 1.385 . S
C1967 C1966 1.374 . S
C1968 C1965 1.499 . S
C1968 C1969 1.373 1_565 S
C1968 C1970 1.389 1_565 S
C1969 H1948 0.950 . S
C1969 C1968 1.373 1_545 S
C1969 C1985 1.377 . S
C1970 C1968 1.389 1_545 S
C1970 C1971 1.524 1_545 S
C1970 C1984 1.377 . S
C1971 C1970 1.524 1_565 S
C1971 C1972 1.397 . S
C1971 C1976 1.363 . S
C1972 H1949 0.950 . S
C1972 C1971 1.397 . S
C1972 C1973 1.334 . S
C1973 H1950 0.950 . S
C1973 C1972 1.334 . S
C1973 C1974 1.287 . S
C1974 C1973 1.287 . S
C1974 C1975 1.524 . S
C1974 H1993 0.913 . S
C1975 H1951 0.950 . S
C1975 C1974 1.524 . S
C1975 C1976 1.415 . S
C1976 H1952 0.950 1_565 S
C1976 C1971 1.363 . S
C1976 C1975 1.415 . S
C1977 H1953 0.951 . S
C1977 C1978 1.366 . S
C1977 C1979 1.388 . S
C1978 C1977 1.366 . S
C1978 C1982 1.385 . S
C1979 H1954 0.951 . S
C1979 C1977 1.388 . S
C1979 C1980 1.366 . S
C1980 C1979 1.366 . S
C1980 C1981 1.414 . S
C1980 C1983 1.499 . S
C1981 H1955 0.950 . S
C1981 C1980 1.414 . S
C1981 C1982 1.374 . S
C1982 H1956 0.950 . S
C1982 C1978 1.385 . S
C1982 C1981 1.374 . S
C1983 C1980 1.499 . S
C1983 C1984 1.373 . S
C1983 C1985 1.389 . S
C1984 H1957 0.950 . S
C1984 C1970 1.377 . S
C1984 C1983 1.373 . S
C1985 C1969 1.377 . S
C1985 C1983 1.389 . S
C1985 C1986 1.524 . S
C1986 C1985 1.524 . S
C1986 C1987 1.397 . S
C1986 C1991 1.363 . S
C1987 H1958 0.950 . S
C1987 C1986 1.397 . S
C1987 C1988 1.334 . S
C1988 H1959 0.950 . S
C1988 C1987 1.334 . S
C1988 C1989 1.287 . S
C1989 C1988 1.287 . S
C1989 C1990 1.524 . S
C1989 H1992 0.999 . S
C1990 H1960 0.950 . S
C1990 C1989 1.524 . S
C1990 C1991 1.415 . S
C1991 H1961 0.950 . S
C1991 C1986 1.363 . S
C1991 C1990 1.415 . S
H1992 C1989 0.999 . S
H1993 C1974 0.913 . S
H1994 C2012 0.951 . S
H1995 C2014 0.951 . S
H1996 C2016 0.950 . S
H1997 C2017 0.950 . S
H1998 C2019 0.950 . S
H1999 C2022 0.950 . S
H2000 C2023 0.950 . S
H2001 C2025 0.950 . S
H2002 C2026 0.950 . S
H2003 C2027 0.951 . S
H2004 C2029 0.951 . S
H2005 C2031 0.950 . S
H2006 C2032 0.950 . S
H2007 C2034 0.950 . S
H2008 C2037 0.950 . S
H2009 C2038 0.950 . S
H2010 C2040 0.950 . S
H2011 C2041 0.950 . S
C2012 H1994 0.951 . S
C2012 C2013 1.366 . S
C2012 C2014 1.388 . S
C2013 C2012 1.366 . S
C2013 C2017 1.385 . S
C2014 H1995 0.951 . S
C2014 C2012 1.388 . S
C2014 C2015 1.366 . S
C2015 C2014 1.366 . S
C2015 C2016 1.414 . S
C2015 C2018 1.499 1_455 S
C2016 H1996 0.950 . S
C2016 C2015 1.414 . S
C2016 C2017 1.374 . S
C2017 H1997 0.950 . S
C2017 C2013 1.385 . S
C2017 C2016 1.374 . S
C2018 C2015 1.499 1_655 S
C2018 C2019 1.373 . S
C2018 C2020 1.389 . S
C2019 H1998 0.950 . S
C2019 C2018 1.373 . S
C2019 C2035 1.377 . S
C2020 C2018 1.389 . S
C2020 C2021 1.524 . S
C2020 C2034 1.377 . S
C2021 C2020 1.524 . S
C2021 C2022 1.397 . S
C2021 C2026 1.363 . S
C2022 H1999 0.950 . S
C2022 C2021 1.397 . S
C2022 C2023 1.334 . S
C2023 H2000 0.950 . S
C2023 C2022 1.334 . S
C2023 C2024 1.287 . S
C2024 C2023 1.287 . S
C2024 C2025 1.524 . S
C2024 H2043 0.913 . S
C2025 H2001 0.950 . S
C2025 C2024 1.524 . S
C2025 C2026 1.415 . S
C2026 H2002 0.950 . S
C2026 C2021 1.363 . S
C2026 C2025 1.415 . S
C2027 H2003 0.951 . S
C2027 C2028 1.366 . S
C2027 C2029 1.388 . S
C2028 C2027 1.366 . S
C2028 C2032 1.385 . S
C2029 H2004 0.951 . S
C2029 C2027 1.388 . S
C2029 C2030 1.366 . S
C2030 C2029 1.366 . S
C2030 C2031 1.414 . S
C2030 C2033 1.499 . S
C2031 H2005 0.950 . S
C2031 C2030 1.414 . S
C2031 C2032 1.374 . S
C2032 H2006 0.950 . S
C2032 C2028 1.385 . S
C2032 C2031 1.374 . S
C2033 C2030 1.499 . S
C2033 C2034 1.373 . S
C2033 C2035 1.389 . S
C2034 H2007 0.950 . S
C2034 C2020 1.377 . S
C2034 C2033 1.373 . S
C2035 C2019 1.377 . S
C2035 C2033 1.389 . S
C2035 C2036 1.524 . S
C2036 C2035 1.524 . S
C2036 C2037 1.397 . S
C2036 C2041 1.363 . S
C2037 H2008 0.950 . S
C2037 C2036 1.397 . S
C2037 C2038 1.334 . S
C2038 H2009 0.950 . S
C2038 C2037 1.334 . S
C2038 C2039 1.287 . S
C2039 C2038 1.287 . S
C2039 C2040 1.524 . S
C2039 H2042 0.999 . S
C2040 H2010 0.950 . S
C2040 C2039 1.524 . S
C2040 C2041 1.415 . S
C2041 H2011 0.950 . S
C2041 C2036 1.363 . S
C2041 C2040 1.415 . S
H2042 C2039 0.999 . S
H2043 C2024 0.913 . S
H2044 C2062 0.951 . S
H2045 C2064 0.951 . S
H2046 C2066 0.950 . S
H2047 C2067 0.950 . S
H2048 C2069 0.950 . S
H2049 C2072 0.950 . S
H2050 C2073 0.950 . S
H2051 C2075 0.950 . S
H2052 C2076 0.950 . S
H2053 C2077 0.951 . S
H2054 C2079 0.951 . S
H2055 C2081 0.950 . S
H2056 C2082 0.950 . S
H2057 C2084 0.950 . S
H2058 C2087 0.950 . S
H2059 C2088 0.950 . S
H2060 C2090 0.950 . S
H2061 C2091 0.950 . S
C2062 H2044 0.951 . S
C2062 C2063 1.366 . S
C2062 C2064 1.388 . S
C2063 C2062 1.366 . S
C2063 C2067 1.385 . S
C2064 H2045 0.951 . S
C2064 C2062 1.388 . S
C2064 C2065 1.366 . S
C2065 C2064 1.366 . S
C2065 C2066 1.414 . S
C2065 C2068 1.499 . S
C2066 H2046 0.950 . S
C2066 C2065 1.414 . S
C2066 C2067 1.374 . S
C2067 H2047 0.950 . S
C2067 C2063 1.385 . S
C2067 C2066 1.374 . S
C2068 C2065 1.499 . S
C2068 C2069 1.373 . S
C2068 C2070 1.389 . S
C2069 H2048 0.950 . S
C2069 C2068 1.373 . S
C2069 C2085 1.377 . S
C2070 C2068 1.389 . S
C2070 C2071 1.524 . S
C2070 C2084 1.377 . S
C2071 C2070 1.524 . S
C2071 C2072 1.397 . S
C2071 C2076 1.363 . S
C2072 H2049 0.950 . S
C2072 C2071 1.397 . S
C2072 C2073 1.334 . S
C2073 H2050 0.950 . S
C2073 C2072 1.334 . S
C2073 C2074 1.287 . S
C2074 C2073 1.287 . S
C2074 C2075 1.524 . S
C2074 H2093 0.913 . S
C2075 H2051 0.950 . S
C2075 C2074 1.524 . S
C2075 C2076 1.415 . S
C2076 H2052 0.950 . S
C2076 C2071 1.363 . S
C2076 C2075 1.415 . S
C2077 H2053 0.951 . S
C2077 C2078 1.366 . S
C2077 C2079 1.388 . S
C2078 C2077 1.366 . S
C2078 C2082 1.385 . S
C2079 H2054 0.951 . S
C2079 C2077 1.388 . S
C2079 C2080 1.366 . S
C2080 C2079 1.366 . S
C2080 C2081 1.414 . S
C2080 C2083 1.499 . S
C2081 H2055 0.950 . S
C2081 C2080 1.414 . S
C2081 C2082 1.374 . S
C2082 H2056 0.950 . S
C2082 C2078 1.385 . S
C2082 C2081 1.374 . S
C2083 C2080 1.499 . S
C2083 C2084 1.373 . S
C2083 C2085 1.389 . S
C2084 H2057 0.950 . S
C2084 C2070 1.377 . S
C2084 C2083 1.373 . S
C2085 C2069 1.377 . S
C2085 C2083 1.389 . S
C2085 C2086 1.524 . S
C2086 C2085 1.524 . S
C2086 C2087 1.397 . S
C2086 C2091 1.363 . S
C2087 H2058 0.950 . S
C2087 C2086 1.397 . S
C2087 C2088 1.334 . S
C2088 H2059 0.950 . S
C2088 C2087 1.334 . S
C2088 C2089 1.287 . S
C2089 C2088 1.287 . S
C2089 C2090 1.524 . S
C2089 H2092 0.999 . S
C2090 H2060 0.950 . S
C2090 C2089 1.524 . S
C2090 C2091 1.415 . S
C2091 H2061 0.950 . S
C2091 C2086 1.363 . S
C2091 C2090 1.415 . S
H2092 C2089 0.999 . S
H2093 C2074 0.913 . S
H2094 C2112 0.951 . S
H2095 C2114 0.951 . S
H2096 C2116 0.950 . S
H2097 C2117 0.950 . S
H2098 C2119 0.950 . S
H2099 C2122 0.950 . S
H2100 C2123 0.950 . S
H2101 C2125 0.950 . S
H2102 C2126 0.950 . S
H2103 C2127 0.951 . S
H2104 C2129 0.951 . S
H2105 C2131 0.950 . S
H2106 C2132 0.950 . S
H2107 C2134 0.950 . S
H2108 C2137 0.950 . S
H2109 C2138 0.950 . S
H2110 C2140 0.939 1_455 S
H2111 C2141 0.950 . S
C2112 H2094 0.951 . S
C2112 C2113 1.366 . S
C2112 C2114 1.388 . S
C2113 C2112 1.366 . S
C2113 C2117 1.385 . S
C2114 H2095 0.951 . S
C2114 C2112 1.388 . S
C2114 C2115 1.366 . S
C2115 C2114 1.366 . S
C2115 C2116 1.414 . S
C2115 C2118 1.499 . S
C2116 H2096 0.950 . S
C2116 C2115 1.414 . S
C2116 C2117 1.374 . S
C2117 H2097 0.950 . S
C2117 C2113 1.385 . S
C2117 C2116 1.374 . S
C2118 C2115 1.499 . S
C2118 C2119 1.373 . S
C2118 C2120 1.389 . S
C2119 H2098 0.950 . S
C2119 C2118 1.373 . S
C2119 C2135 1.377 . S
C2120 C2118 1.389 . S
C2120 C2121 1.524 . S
C2120 C2134 1.377 . S
C2121 C2120 1.524 . S
C2121 C2122 1.397 . S
C2121 C2126 1.363 . S
C2122 H2099 0.950 . S
C2122 C2121 1.397 . S
C2122 C2123 1.334 . S
C2123 H2100 0.950 . S
C2123 C2122 1.334 . S
C2123 C2124 1.287 . S
C2124 C2123 1.287 . S
C2124 C2125 1.524 . S
C2124 H2143 0.913 . S
C2125 H2101 0.950 . S
C2125 C2124 1.524 . S
C2125 C2126 1.415 . S
C2126 H2102 0.950 . S
C2126 C2121 1.363 . S
C2126 C2125 1.415 . S
C2127 H2103 0.951 . S
C2127 C2128 1.366 . S
C2127 C2129 1.388 . S
C2128 C2127 1.366 . S
C2128 C2132 1.385 . S
C2129 H2104 0.951 . S
C2129 C2127 1.388 . S
C2129 C2130 1.366 . S
C2130 C2129 1.366 . S
C2130 C2131 1.414 . S
C2130 C2133 1.499 . S
C2131 H2105 0.950 . S
C2131 C2130 1.414 . S
C2131 C2132 1.374 . S
C2132 H2106 0.950 . S
C2132 C2128 1.385 . S
C2132 C2131 1.374 . S
C2133 C2130 1.499 . S
C2133 C2134 1.373 1_655 S
C2133 C2135 1.389 1_655 S
C2134 H2107 0.950 . S
C2134 C2120 1.377 . S
C2134 C2133 1.373 1_455 S
C2135 C2119 1.377 . S
C2135 C2133 1.389 1_455 S
C2135 C2136 1.524 1_455 S
C2136 C2135 1.524 1_655 S
C2136 C2137 1.397 . S
C2136 C2141 1.363 1_655 S
C2137 H2108 0.950 . S
C2137 C2136 1.397 . S
C2137 C2138 1.334 . S
C2138 H2109 0.950 . S
C2138 C2137 1.334 . S
C2138 C2139 1.287 . S
C2139 C2138 1.287 . S
C2139 C2140 1.524 . S
C2139 H2142 0.999 . S
C2140 H2110 0.939 1_655 S
C2140 C2139 1.524 . S
C2140 C2141 1.415 1_655 S
C2141 H2111 0.950 . S
C2141 C2136 1.363 1_455 S
C2141 C2140 1.415 1_455 S
H2142 C2139 0.999 . S
H2143 C2124 0.913 . S
H2144 C2162 0.951 . S
H2145 C2164 0.951 . S
H2146 C2166 0.950 . S
H2147 C2167 0.950 . S
H2148 C2169 0.950 . S
H2149 C2172 0.950 . S
H2150 C2173 0.950 . S
H2151 C2175 0.950 . S
H2152 C2176 0.950 . S
H2153 C2177 0.951 . S
H2154 C2179 0.951 . S
H2155 C2181 0.950 . S
H2156 C2182 0.950 . S
H2157 C2184 0.950 . S
H2158 C2187 0.950 . S
H2159 C2188 0.950 . S
H2160 C2190 0.950 . S
H2161 C2191 0.950 . S
C2162 H2144 0.951 . S
C2162 C2163 1.366 . S
C2162 C2164 1.388 . S
C2163 C2162 1.366 . S
C2163 C2167 1.385 . S
C2164 H2145 0.951 . S
C2164 C2162 1.388 . S
C2164 C2165 1.366 . S
C2165 C2164 1.366 . S
C2165 C2166 1.414 . S
C2165 C2168 1.499 . S
C2166 H2146 0.950 . S
C2166 C2165 1.414 . S
C2166 C2167 1.374 . S
C2167 H2147 0.950 . S
C2167 C2163 1.385 . S
C2167 C2166 1.374 . S
C2168 C2165 1.499 . S
C2168 C2169 1.373 . S
C2168 C2170 1.389 . S
C2169 H2148 0.950 . S
C2169 C2168 1.373 . S
C2169 C2185 1.377 . S
C2170 C2168 1.389 . S
C2170 C2171 1.524 . S
C2170 C2184 1.377 . S
C2171 C2170 1.524 . S
C2171 C2172 1.397 . S
C2171 C2176 1.363 . S
C2172 H2149 0.950 . S
C2172 C2171 1.397 . S
C2172 C2173 1.334 . S
C2173 H2150 0.950 . S
C2173 C2172 1.334 . S
C2173 C2174 1.287 . S
C2174 C2173 1.287 . S
C2174 C2175 1.524 . S
C2174 H2193 0.913 . S
C2175 H2151 0.950 . S
C2175 C2174 1.524 . S
C2175 C2176 1.415 . S
C2176 H2152 0.950 . S
C2176 C2171 1.363 . S
C2176 C2175 1.415 . S
C2177 H2153 0.951 . S
C2177 C2178 1.366 . S
C2177 C2179 1.388 . S
C2178 C2177 1.366 . S
C2178 C2182 1.385 . S
C2179 H2154 0.951 . S
C2179 C2177 1.388 . S
C2179 C2180 1.366 . S
C2180 C2179 1.366 . S
C2180 C2181 1.414 . S
C2180 C2183 1.499 . S
C2181 H2155 0.950 . S
C2181 C2180 1.414 . S
C2181 C2182 1.374 . S
C2182 H2156 0.950 . S
C2182 C2178 1.385 . S
C2182 C2181 1.374 . S
C2183 C2180 1.499 . S
C2183 C2184 1.373 . S
C2183 C2185 1.389 . S
C2184 H2157 0.950 . S
C2184 C2170 1.377 . S
C2184 C2183 1.373 . S
C2185 C2169 1.377 . S
C2185 C2183 1.389 . S
C2185 C2186 1.524 . S
C2186 C2185 1.524 . S
C2186 C2187 1.397 . S
C2186 C2191 1.363 . S
C2187 H2158 0.950 . S
C2187 C2186 1.397 . S
C2187 C2188 1.334 . S
C2188 H2159 0.950 . S
C2188 C2187 1.334 . S
C2188 C2189 1.287 . S
C2189 C2188 1.287 . S
C2189 C2190 1.524 . S
C2189 H2192 0.999 . S
C2190 H2160 0.950 . S
C2190 C2189 1.524 . S
C2190 C2191 1.415 . S
C2191 H2161 0.950 . S
C2191 C2186 1.363 . S
C2191 C2190 1.415 . S
H2192 C2189 0.999 . S
H2193 C2174 0.913 . S
H2194 C2212 0.951 . S
H2195 C2214 0.951 . S
H2196 C2216 0.950 . S
H2197 C2217 0.950 . S
H2198 C2219 0.950 . S
H2199 C2222 0.950 . S
H2200 C2223 0.950 . S
H2201 C2225 0.950 1_545 S
H2202 C2226 0.958 . S
H2203 C2227 0.951 . S
H2204 C2229 0.951 . S
H2205 C2231 0.950 . S
H2206 C2232 0.950 . S
H2207 C2234 0.950 . S
H2208 C2237 0.950 . S
H2209 C2238 0.950 . S
H2210 C2240 0.950 1_565 S
H2211 C2241 0.977 . S
C2212 H2194 0.951 . S
C2212 C2213 1.366 . S
C2212 C2214 1.388 . S
C2213 C2212 1.366 . S
C2213 C2217 1.385 . S
C2214 H2195 0.951 . S
C2214 C2212 1.388 . S
C2214 C2215 1.366 . S
C2215 C2214 1.366 . S
C2215 C2216 1.414 . S
C2215 C2218 1.499 . S
C2216 H2196 0.950 . S
C2216 C2215 1.414 . S
C2216 C2217 1.374 . S
C2217 H2197 0.950 . S
C2217 C2213 1.385 . S
C2217 C2216 1.374 . S
C2218 C2215 1.499 . S
C2218 C2219 1.373 . S
C2218 C2220 1.389 . S
C2219 H2198 0.950 . S
C2219 C2218 1.373 . S
C2219 C2235 1.377 1_565 S
C2220 C2218 1.389 . S
C2220 C2221 1.524 . S
C2220 C2234 1.377 1_565 S
C2221 C2220 1.524 . S
C2221 C2222 1.397 . S
C2221 C2226 1.358 1_565 S
C2222 H2199 0.950 . S
C2222 C2221 1.397 . S
C2222 C2223 1.334 . S
C2223 H2200 0.950 . S
C2223 C2222 1.334 . S
C2223 C2224 1.287 . S
C2224 C2223 1.287 . S
C2224 C2225 1.524 . S
C2224 H2243 0.913 . S
C2225 H2201 0.950 1_565 S
C2225 C2224 1.524 . S
C2225 C2226 1.412 1_565 S
C2226 H2202 0.958 . S
C2226 C2221 1.358 1_545 S
C2226 C2225 1.412 1_545 S
C2227 H2203 0.951 . S
C2227 C2228 1.366 . S
C2227 C2229 1.388 . S
C2228 C2227 1.366 . S
C2228 C2232 1.385 . S
C2229 H2204 0.951 . S
C2229 C2227 1.388 . S
C2229 C2230 1.366 . S
C2230 C2229 1.366 . S
C2230 C2231 1.414 . S
C2230 C2233 1.499 . S
C2231 H2205 0.950 . S
C2231 C2230 1.414 . S
C2231 C2232 1.374 . S
C2232 H2206 0.950 . S
C2232 C2228 1.385 . S
C2232 C2231 1.374 . S
C2233 C2230 1.499 . S
C2233 C2234 1.373 . S
C2233 C2235 1.389 . S
C2234 H2207 0.950 . S
C2234 C2220 1.377 1_545 S
C2234 C2233 1.373 . S
C2235 C2219 1.377 1_545 S
C2235 C2233 1.389 . S
C2235 C2236 1.524 . S
C2236 C2235 1.524 . S
C2236 C2237 1.397 . S
C2236 C2241 1.347 1_545 S
C2237 H2208 0.950 . S
C2237 C2236 1.397 . S
C2237 C2238 1.334 . S
C2238 H2209 0.950 . S
C2238 C2237 1.334 . S
C2238 C2239 1.287 . S
C2239 C2238 1.287 . S
C2239 C2240 1.524 . S
C2239 H2242 0.999 . S
C2240 H2210 0.950 1_545 S
C2240 C2239 1.524 . S
C2240 C2241 1.405 1_545 S
C2241 H2211 0.977 . S
C2241 C2236 1.347 1_565 S
C2241 C2240 1.405 1_565 S
H2242 C2239 0.999 . S
H2243 C2224 0.913 . S
H2244 C2262 0.951 . S
H2245 C2264 0.951 . S
H2246 C2266 0.950 . S
H2247 C2267 0.950 . S
H2248 C2269 0.950 . S
H2249 C2272 0.950 . S
H2250 C2273 0.950 . S
H2251 C2275 0.950 . S
H2252 C2276 0.950 . S
H2253 C2277 0.951 . S
H2254 C2279 0.951 . S
H2255 C2281 0.950 . S
H2256 C2282 0.950 . S
H2257 C2284 0.950 . S
H2258 C2287 0.950 . S
H2259 C2288 0.950 . S
H2260 C2290 0.950 . S
H2261 C2291 0.950 . S
C2262 H2244 0.951 . S
C2262 C2263 1.366 . S
C2262 C2264 1.388 . S
C2263 C2262 1.366 . S
C2263 C2267 1.385 . S
C2264 H2245 0.951 . S
C2264 C2262 1.388 . S
C2264 C2265 1.366 . S
C2265 C2264 1.366 . S
C2265 C2266 1.414 . S
C2265 C2268 1.499 . S
C2266 H2246 0.950 . S
C2266 C2265 1.414 . S
C2266 C2267 1.374 . S
C2267 H2247 0.950 . S
C2267 C2263 1.385 . S
C2267 C2266 1.374 . S
C2268 C2265 1.499 . S
C2268 C2269 1.373 . S
C2268 C2270 1.389 . S
C2269 H2248 0.950 . S
C2269 C2268 1.373 . S
C2269 C2285 1.377 . S
C2270 C2268 1.389 . S
C2270 C2271 1.524 . S
C2270 C2284 1.377 . S
C2271 C2270 1.524 . S
C2271 C2272 1.397 . S
C2271 C2276 1.363 . S
C2272 H2249 0.950 . S
C2272 C2271 1.397 . S
C2272 C2273 1.334 . S
C2273 H2250 0.950 . S
C2273 C2272 1.334 . S
C2273 C2274 1.287 . S
C2274 C2273 1.287 . S
C2274 C2275 1.524 . S
C2274 H2293 0.913 . S
C2275 H2251 0.950 . S
C2275 C2274 1.524 . S
C2275 C2276 1.415 . S
C2276 H2252 0.950 . S
C2276 C2271 1.363 . S
C2276 C2275 1.415 . S
C2277 H2253 0.951 . S
C2277 C2278 1.366 . S
C2277 C2279 1.388 . S
C2278 C2277 1.366 . S
C2278 C2282 1.385 . S
C2279 H2254 0.951 . S
C2279 C2277 1.388 . S
C2279 C2280 1.366 . S
C2280 C2279 1.366 . S
C2280 C2281 1.414 . S
C2280 C2283 1.499 . S
C2281 H2255 0.950 . S
C2281 C2280 1.414 . S
C2281 C2282 1.374 . S
C2282 H2256 0.950 . S
C2282 C2278 1.385 . S
C2282 C2281 1.374 . S
C2283 C2280 1.499 . S
C2283 C2284 1.373 . S
C2283 C2285 1.389 . S
C2284 H2257 0.950 . S
C2284 C2270 1.377 . S
C2284 C2283 1.373 . S
C2285 C2269 1.377 . S
C2285 C2283 1.389 . S
C2285 C2286 1.524 . S
C2286 C2285 1.524 . S
C2286 C2287 1.397 . S
C2286 C2291 1.363 . S
C2287 H2258 0.950 . S
C2287 C2286 1.397 . S
C2287 C2288 1.334 . S
C2288 H2259 0.950 . S
C2288 C2287 1.334 . S
C2288 C2289 1.287 . S
C2289 C2288 1.287 . S
C2289 C2290 1.524 . S
C2289 H2292 0.999 . S
C2290 H2260 0.950 . S
C2290 C2289 1.524 . S
C2290 C2291 1.415 . S
C2291 H2261 0.950 . S
C2291 C2286 1.363 . S
C2291 C2290 1.415 . S
H2292 C2289 0.999 . S
H2293 C2274 0.913 . S
H2294 C2312 0.951 . S
H2295 C2314 0.951 . S
H2296 C2316 0.950 . S
H2297 C2317 0.950 . S
H2298 C2319 0.950 . S
H2299 C2322 0.950 . S
H2300 C2323 0.950 . S
H2301 C2325 0.950 . S
H2302 C2326 0.950 . S
H2303 C2327 0.951 . S
H2304 C2329 0.951 . S
H2305 C2331 0.950 . S
H2306 C2332 0.950 . S
H2307 C2334 0.950 . S
H2308 C2337 0.950 . S
H2309 C2338 0.950 . S
H2310 C2340 0.950 . S
H2311 C2341 0.950 . S
C2312 H2294 0.951 . S
C2312 C2313 1.366 . S
C2312 C2314 1.388 . S
C2313 C2312 1.366 . S
C2313 C2317 1.385 . S
C2314 H2295 0.951 . S
C2314 C2312 1.388 . S
C2314 C2315 1.366 . S
C2315 C2314 1.366 . S
C2315 C2316 1.414 . S
C2315 C2318 1.499 . S
C2316 H2296 0.950 . S
C2316 C2315 1.414 . S
C2316 C2317 1.374 . S
C2317 H2297 0.950 . S
C2317 C2313 1.385 . S
C2317 C2316 1.374 . S
C2318 C2315 1.499 . S
C2318 C2319 1.373 . S
C2318 C2320 1.389 . S
C2319 H2298 0.950 . S
C2319 C2318 1.373 . S
C2319 C2335 1.377 . S
C2320 C2318 1.389 . S
C2320 C2321 1.524 . S
C2320 C2334 1.377 . S
C2321 C2320 1.524 . S
C2321 C2322 1.397 . S
C2321 C2326 1.363 . S
C2322 H2299 0.950 . S
C2322 C2321 1.397 . S
C2322 C2323 1.334 . S
C2323 H2300 0.950 . S
C2323 C2322 1.334 . S
C2323 C2324 1.287 . S
C2324 C2323 1.287 . S
C2324 C2325 1.524 . S
C2324 H2343 0.913 . S
C2325 H2301 0.950 . S
C2325 C2324 1.524 . S
C2325 C2326 1.415 . S
C2326 H2302 0.950 . S
C2326 C2321 1.363 . S
C2326 C2325 1.415 . S
C2327 H2303 0.951 . S
C2327 C2328 1.366 . S
C2327 C2329 1.388 . S
C2328 C2327 1.366 . S
C2328 C2332 1.385 . S
C2329 H2304 0.951 . S
C2329 C2327 1.388 . S
C2329 C2330 1.366 . S
C2330 C2329 1.366 . S
C2330 C2331 1.414 . S
C2330 C2333 1.499 . S
C2331 H2305 0.950 . S
C2331 C2330 1.414 . S
C2331 C2332 1.374 . S
C2332 H2306 0.950 . S
C2332 C2328 1.385 . S
C2332 C2331 1.374 . S
C2333 C2330 1.499 . S
C2333 C2334 1.373 . S
C2333 C2335 1.389 . S
C2334 H2307 0.950 . S
C2334 C2320 1.377 . S
C2334 C2333 1.373 . S
C2335 C2319 1.377 . S
C2335 C2333 1.389 . S
C2335 C2336 1.524 . S
C2336 C2335 1.524 . S
C2336 C2337 1.397 . S
C2336 C2341 1.363 . S
C2337 H2308 0.950 . S
C2337 C2336 1.397 . S
C2337 C2338 1.334 . S
C2338 H2309 0.950 . S
C2338 C2337 1.334 . S
C2338 C2339 1.287 . S
C2339 C2338 1.287 . S
C2339 C2340 1.524 . S
C2339 H2342 0.999 . S
C2340 H2310 0.950 . S
C2340 C2339 1.524 . S
C2340 C2341 1.415 . S
C2341 H2311 0.950 . S
C2341 C2336 1.363 . S
C2341 C2340 1.415 . S
H2342 C2339 0.999 . S
H2343 C2324 0.913 . S
H2344 C2362 0.951 . S
H2345 C2364 0.951 . S
H2346 C2366 0.950 . S
H2347 C2367 0.950 . S
H2348 C2369 0.950 . S
H2349 C2372 0.950 . S
H2350 C2373 0.950 . S
H2351 C2375 0.950 . S
H2352 C2376 0.950 . S
H2353 C2377 0.951 . S
H2354 C2379 0.951 . S
H2355 C2381 0.950 . S
H2356 C2382 0.950 . S
H2357 C2384 0.950 . S
H2358 C2387 0.950 . S
H2359 C2388 0.950 . S
H2360 C2390 0.950 . S
H2361 C2391 0.950 . S
C2362 H2344 0.951 . S
C2362 C2363 1.366 . S
C2362 C2364 1.388 . S
C2363 C2362 1.366 . S
C2363 C2367 1.385 . S
C2364 H2345 0.951 . S
C2364 C2362 1.388 . S
C2364 C2365 1.366 . S
C2365 C2364 1.366 . S
C2365 C2366 1.414 . S
C2365 C2368 1.499 . S
C2366 H2346 0.950 . S
C2366 C2365 1.414 . S
C2366 C2367 1.374 . S
C2367 H2347 0.950 . S
C2367 C2363 1.385 . S
C2367 C2366 1.374 . S
C2368 C2365 1.499 . S
C2368 C2369 1.373 . S
C2368 C2370 1.389 . S
C2369 H2348 0.950 . S
C2369 C2368 1.373 . S
C2369 C2385 1.377 . S
C2370 C2368 1.389 . S
C2370 C2371 1.524 . S
C2370 C2384 1.377 . S
C2371 C2370 1.524 . S
C2371 C2372 1.397 . S
C2371 C2376 1.363 . S
C2372 H2349 0.950 . S
C2372 C2371 1.397 . S
C2372 C2373 1.334 . S
C2373 H2350 0.950 . S
C2373 C2372 1.334 . S
C2373 C2374 1.287 . S
C2374 C2373 1.287 . S
C2374 C2375 1.524 . S
C2374 H2393 0.913 . S
C2375 H2351 0.950 . S
C2375 C2374 1.524 . S
C2375 C2376 1.415 . S
C2376 H2352 0.950 . S
C2376 C2371 1.363 . S
C2376 C2375 1.415 . S
C2377 H2353 0.951 . S
C2377 C2378 1.366 . S
C2377 C2379 1.388 . S
C2378 C2377 1.366 . S
C2378 C2382 1.385 . S
C2379 H2354 0.951 . S
C2379 C2377 1.388 . S
C2379 C2380 1.366 . S
C2380 C2379 1.366 . S
C2380 C2381 1.414 . S
C2380 C2383 1.499 . S
C2381 H2355 0.950 . S
C2381 C2380 1.414 . S
C2381 C2382 1.374 . S
C2382 H2356 0.950 . S
C2382 C2378 1.385 . S
C2382 C2381 1.374 . S
C2383 C2380 1.499 . S
C2383 C2384 1.373 . S
C2383 C2385 1.389 . S
C2384 H2357 0.950 . S
C2384 C2370 1.377 . S
C2384 C2383 1.373 . S
C2385 C2369 1.377 . S
C2385 C2383 1.389 . S
C2385 C2386 1.524 . S
C2386 C2385 1.524 . S
C2386 C2387 1.397 . S
C2386 C2391 1.363 . S
C2387 H2358 0.950 . S
C2387 C2386 1.397 . S
C2387 C2388 1.334 . S
C2388 H2359 0.950 . S
C2388 C2387 1.334 . S
C2388 C2389 1.287 . S
C2389 C2388 1.287 . S
C2389 C2390 1.524 . S
C2389 H2392 0.999 . S
C2390 H2360 0.950 . S
C2390 C2389 1.524 . S
C2390 C2391 1.415 . S
C2391 H2361 0.950 . S
C2391 C2386 1.363 . S
C2391 C2390 1.415 . S
H2392 C2389 0.999 . S
H2393 C2374 0.913 . S
H2394 C2412 0.951 . S
H2395 C2414 0.951 . S
H2396 C2416 0.950 . S
H2397 C2417 0.950 . S
H2398 C2419 0.950 . S
H2399 C2422 0.950 . S
H2400 C2423 0.950 . S
H2401 C2425 0.950 . S
H2402 C2426 0.950 . S
H2403 C2427 0.951 . S
H2404 C2429 0.951 . S
H2405 C2431 0.950 . S
H2406 C2432 0.950 . S
H2407 C2434 0.950 . S
H2408 C2437 0.950 . S
H2409 C2438 0.950 . S
H2410 C2440 0.950 . S
H2411 C2441 0.950 . S
C2412 H2394 0.951 . S
C2412 C2413 1.366 . S
C2412 C2414 1.388 . S
C2413 C2412 1.366 . S
C2413 C2417 1.385 . S
C2414 H2395 0.951 . S
C2414 C2412 1.388 . S
C2414 C2415 1.366 . S
C2415 C2414 1.366 . S
C2415 C2416 1.414 . S
C2415 C2418 1.499 . S
C2416 H2396 0.950 . S
C2416 C2415 1.414 . S
C2416 C2417 1.374 . S
C2417 H2397 0.950 . S
C2417 C2413 1.385 . S
C2417 C2416 1.374 . S
C2418 C2415 1.499 . S
C2418 C2419 1.373 . S
C2418 C2420 1.389 . S
C2419 H2398 0.950 . S
C2419 C2418 1.373 . S
C2419 C2435 1.377 . S
C2420 C2418 1.389 . S
C2420 C2421 1.524 . S
C2420 C2434 1.377 . S
C2421 C2420 1.524 . S
C2421 C2422 1.397 . S
C2421 C2426 1.363 . S
C2422 H2399 0.950 . S
C2422 C2421 1.397 . S
C2422 C2423 1.334 . S
C2423 H2400 0.950 . S
C2423 C2422 1.334 . S
C2423 C2424 1.287 . S
C2424 C2423 1.287 . S
C2424 C2425 1.524 . S
C2424 H2443 0.913 . S
C2425 H2401 0.950 . S
C2425 C2424 1.524 . S
C2425 C2426 1.415 . S
C2426 H2402 0.950 . S
C2426 C2421 1.363 . S
C2426 C2425 1.415 . S
C2427 H2403 0.951 . S
C2427 C2428 1.366 . S
C2427 C2429 1.388 . S
C2428 C2427 1.366 . S
C2428 C2432 1.385 . S
C2429 H2404 0.951 . S
C2429 C2427 1.388 . S
C2429 C2430 1.366 . S
C2430 C2429 1.366 . S
C2430 C2431 1.414 . S
C2430 C2433 1.499 . S
C2431 H2405 0.950 . S
C2431 C2430 1.414 . S
C2431 C2432 1.374 . S
C2432 H2406 0.950 . S
C2432 C2428 1.385 . S
C2432 C2431 1.374 . S
C2433 C2430 1.499 . S
C2433 C2434 1.373 . S
C2433 C2435 1.389 . S
C2434 H2407 0.950 . S
C2434 C2420 1.377 . S
C2434 C2433 1.373 . S
C2435 C2419 1.377 . S
C2435 C2433 1.389 . S
C2435 C2436 1.524 . S
C2436 C2435 1.524 . S
C2436 C2437 1.397 . S
C2436 C2441 1.363 . S
C2437 H2408 0.950 . S
C2437 C2436 1.397 . S
C2437 C2438 1.334 . S
C2438 H2409 0.950 . S
C2438 C2437 1.334 . S
C2438 C2439 1.287 . S
C2439 C2438 1.287 . S
C2439 C2440 1.524 . S
C2439 H2442 0.999 . S
C2440 H2410 0.950 . S
C2440 C2439 1.524 . S
C2440 C2441 1.415 . S
C2441 H2411 0.950 . S
C2441 C2436 1.363 . S
C2441 C2440 1.415 . S
H2442 C2439 0.999 . S
H2443 C2424 0.913 . S
H2444 C2462 0.951 . S
H2445 C2464 0.951 . S
H2446 C2466 0.950 . S
H2447 C2467 0.950 . S
H2448 C2469 0.950 . S
H2449 C2472 0.950 . S
H2450 C2473 0.950 . S
H2451 C2475 0.950 . S
H2452 C2476 0.950 . S
H2453 C2477 0.951 . S
H2454 C2479 0.951 . S
H2455 C2481 0.950 . S
H2456 C2482 0.950 . S
H2457 C2484 0.950 . S
H2458 C2487 0.950 . S
H2459 C2488 0.950 . S
H2460 C2490 0.950 . S
H2461 C2491 0.950 . S
C2462 H2444 0.951 . S
C2462 C2463 1.366 . S
C2462 C2464 1.388 . S
C2463 C2462 1.366 . S
C2463 C2467 1.385 . S
C2464 H2445 0.951 . S
C2464 C2462 1.388 . S
C2464 C2465 1.366 . S
C2465 C2464 1.366 . S
C2465 C2466 1.414 . S
C2465 C2468 1.499 . S
C2466 H2446 0.950 . S
C2466 C2465 1.414 . S
C2466 C2467 1.374 . S
C2467 H2447 0.950 . S
C2467 C2463 1.385 . S
C2467 C2466 1.374 . S
C2468 C2465 1.499 . S
C2468 C2469 1.373 . S
C2468 C2470 1.389 . S
C2469 H2448 0.950 . S
C2469 C2468 1.373 . S
C2469 C2485 1.377 . S
C2470 C2468 1.389 . S
C2470 C2471 1.524 . S
C2470 C2484 1.377 . S
C2471 C2470 1.524 . S
C2471 C2472 1.397 . S
C2471 C2476 1.363 . S
C2472 H2449 0.950 . S
C2472 C2471 1.397 . S
C2472 C2473 1.334 1_455 S
C2473 H2450 0.950 . S
C2473 C2472 1.334 1_655 S
C2473 C2474 1.299 1_655 S
C2474 C2473 1.299 1_455 S
C2474 C2475 1.555 . S
C2474 H2493 0.870 1_455 S
C2475 H2451 0.950 . S
C2475 C2474 1.555 . S
C2475 C2476 1.415 . S
C2476 H2452 0.950 . S
C2476 C2471 1.363 . S
C2476 C2475 1.415 . S
C2477 H2453 0.951 . S
C2477 C2478 1.366 . S
C2477 C2479 1.388 . S
C2478 C2477 1.366 . S
C2478 C2482 1.385 . S
C2479 H2454 0.951 . S
C2479 C2477 1.388 . S
C2479 C2480 1.366 . S
C2480 C2479 1.366 . S
C2480 C2481 1.414 . S
C2480 C2483 1.499 . S
C2481 H2455 0.950 . S
C2481 C2480 1.414 . S
C2481 C2482 1.374 . S
C2482 H2456 0.950 . S
C2482 C2478 1.385 . S
C2482 C2481 1.374 . S
C2483 C2480 1.499 . S
C2483 C2484 1.373 . S
C2483 C2485 1.389 . S
C2484 H2457 0.950 . S
C2484 C2470 1.377 . S
C2484 C2483 1.373 . S
C2485 C2469 1.377 . S
C2485 C2483 1.389 . S
C2485 C2486 1.524 . S
C2486 C2485 1.524 . S
C2486 C2487 1.397 . S
C2486 C2491 1.363 . S
C2487 H2458 0.950 . S
C2487 C2486 1.397 . S
C2487 C2488 1.334 . S
C2488 H2459 0.950 . S
C2488 C2487 1.334 . S
C2488 C2489 1.287 . S
C2489 C2488 1.287 . S
C2489 C2490 1.524 . S
C2489 H2492 0.999 . S
C2490 H2460 0.950 . S
C2490 C2489 1.524 . S
C2490 C2491 1.415 . S
C2491 H2461 0.950 . S
C2491 C2486 1.363 . S
C2491 C2490 1.415 . S
H2492 C2489 0.999 . S
H2493 C2474 0.870 1_655 S
H2494 C2512 0.951 . S
H2495 C2514 0.951 . S
H2496 C2516 0.950 . S
H2497 C2517 0.950 . S
H2498 C2519 0.950 . S
H2499 C2522 0.950 . S
H2500 C2523 0.950 . S
H2501 C2525 0.950 . S
H2502 C2526 0.950 . S
H2503 C2527 0.951 . S
H2504 C2529 0.951 . S
H2505 C2531 0.950 . S
H2506 C2532 0.950 . S
H2507 C2534 0.950 . S
H2508 C2537 0.950 . S
H2509 C2538 0.950 . S
H2510 C2540 0.950 . S
H2511 C2541 0.950 . S
C2512 H2494 0.951 . S
C2512 C2513 1.366 . S
C2512 C2514 1.388 . S
C2513 C2512 1.366 . S
C2513 C2517 1.385 . S
C2514 H2495 0.951 . S
C2514 C2512 1.388 . S
C2514 C2515 1.366 . S
C2515 C2514 1.366 . S
C2515 C2516 1.414 . S
C2515 C2518 1.499 . S
C2516 H2496 0.950 . S
C2516 C2515 1.414 . S
C2516 C2517 1.374 . S
C2517 H2497 0.950 . S
C2517 C2513 1.385 . S
C2517 C2516 1.374 . S
C2518 C2515 1.499 . S
C2518 C2519 1.373 . S
C2518 C2520 1.389 . S
C2519 H2498 0.950 . S
C2519 C2518 1.373 . S
C2519 C2535 1.377 . S
C2520 C2518 1.389 . S
C2520 C2521 1.524 . S
C2520 C2534 1.377 . S
C2521 C2520 1.524 . S
C2521 C2522 1.397 . S
C2521 C2526 1.363 . S
C2522 H2499 0.950 . S
C2522 C2521 1.397 . S
C2522 C2523 1.334 . S
C2523 H2500 0.950 . S
C2523 C2522 1.334 . S
C2523 C2524 1.287 . S
C2524 C2523 1.287 . S
C2524 C2525 1.524 . S
C2524 H2543 0.913 . S
C2525 H2501 0.950 . S
C2525 C2524 1.524 . S
C2525 C2526 1.415 . S
C2526 H2502 0.950 . S
C2526 C2521 1.363 . S
C2526 C2525 1.415 . S
C2527 H2503 0.951 . S
C2527 C2528 1.366 . S
C2527 C2529 1.388 . S
C2528 C2527 1.366 . S
C2528 C2532 1.385 . S
C2529 H2504 0.951 . S
C2529 C2527 1.388 . S
C2529 C2530 1.366 . S
C2530 C2529 1.366 . S
C2530 C2531 1.414 . S
C2530 C2533 1.499 . S
C2531 H2505 0.950 . S
C2531 C2530 1.414 . S
C2531 C2532 1.374 . S
C2532 H2506 0.950 . S
C2532 C2528 1.385 . S
C2532 C2531 1.374 . S
C2533 C2530 1.499 . S
C2533 C2534 1.373 . S
C2533 C2535 1.389 . S
C2534 H2507 0.950 . S
C2534 C2520 1.377 . S
C2534 C2533 1.373 . S
C2535 C2519 1.377 . S
C2535 C2533 1.389 . S
C2535 C2536 1.524 . S
C2536 C2535 1.524 . S
C2536 C2537 1.397 . S
C2536 C2541 1.363 . S
C2537 H2508 0.950 . S
C2537 C2536 1.397 . S
C2537 C2538 1.334 . S
C2538 H2509 0.950 . S
C2538 C2537 1.334 . S
C2538 C2539 1.287 . S
C2539 C2538 1.287 . S
C2539 C2540 1.524 . S
C2539 H2542 0.999 . S
C2540 H2510 0.950 . S
C2540 C2539 1.524 . S
C2540 C2541 1.415 . S
C2541 H2511 0.950 . S
C2541 C2536 1.363 . S
C2541 C2540 1.415 . S
H2542 C2539 0.999 . S
H2543 C2524 0.913 . S
H2544 C2562 0.951 . S
H2545 C2564 0.951 . S
H2546 C2566 0.950 . S
H2547 C2567 0.950 . S
H2548 C2569 0.950 1_455 S
H2549 C2572 0.950 . S
H2550 C2573 0.950 . S
H2551 C2575 0.950 . S
H2552 C2576 0.950 . S
H2553 C2577 0.951 1_455 S
H2554 C2579 0.951 1_455 S
H2555 C2581 0.950 . S
H2556 C2582 0.950 . S
H2557 C2584 0.950 . S
H2558 C2587 0.950 . S
H2559 C2588 0.950 . S
H2560 C2590 0.950 . S
H2561 C2591 0.950 . S
C2562 H2544 0.951 . S
C2562 C2563 1.366 . S
C2562 C2564 1.388 . S
C2563 C2562 1.366 . S
C2563 C2567 1.385 . S
C2564 H2545 0.951 . S
C2564 C2562 1.388 . S
C2564 C2565 1.366 . S
C2565 C2564 1.366 . S
C2565 C2566 1.414 . S
C2565 C2568 1.499 . S
C2566 H2546 0.950 . S
C2566 C2565 1.414 . S
C2566 C2567 1.374 . S
C2567 H2547 0.950 . S
C2567 C2563 1.385 . S
C2567 C2566 1.374 . S
C2568 C2565 1.499 . S
C2568 C2569 1.373 . S
C2568 C2570 1.389 . S
C2569 H2548 0.950 1_655 S
C2569 C2568 1.373 . S
C2569 C2585 1.377 . S
C2570 C2568 1.389 . S
C2570 C2571 1.524 . S
C2570 C2584 1.377 . S
C2571 C2570 1.524 . S
C2571 C2572 1.397 . S
C2571 C2576 1.363 . S
C2572 H2549 0.950 . S
C2572 C2571 1.397 . S
C2572 C2573 1.334 . S
C2573 H2550 0.950 . S
C2573 C2572 1.334 . S
C2573 C2574 1.287 . S
C2574 C2573 1.287 . S
C2574 C2575 1.524 . S
C2574 H2593 0.913 . S
C2575 H2551 0.950 . S
C2575 C2574 1.524 . S
C2575 C2576 1.415 . S
C2576 H2552 0.950 . S
C2576 C2571 1.363 . S
C2576 C2575 1.415 . S
C2577 H2553 0.951 1_655 S
C2577 C2578 1.366 . S
C2577 C2579 1.388 . S
C2578 C2577 1.366 . S
C2578 C2582 1.385 . S
C2579 H2554 0.951 1_655 S
C2579 C2577 1.388 . S
C2579 C2580 1.366 . S
C2580 C2579 1.366 . S
C2580 C2581 1.414 . S
C2580 C2583 1.499 . S
C2581 H2555 0.950 . S
C2581 C2580 1.414 . S
C2581 C2582 1.374 . S
C2582 H2556 0.950 . S
C2582 C2578 1.385 . S
C2582 C2581 1.374 . S
C2583 C2580 1.499 . S
C2583 C2584 1.373 . S
C2583 C2585 1.389 . S
C2584 H2557 0.950 . S
C2584 C2570 1.377 . S
C2584 C2583 1.373 . S
C2585 C2569 1.377 . S
C2585 C2583 1.389 . S
C2585 C2586 1.524 1_655 S
C2586 C2585 1.524 1_455 S
C2586 C2587 1.397 . S
C2586 C2591 1.363 . S
C2587 H2558 0.950 . S
C2587 C2586 1.397 . S
C2587 C2588 1.334 . S
C2588 H2559 0.950 . S
C2588 C2587 1.334 . S
C2588 C2589 1.287 . S
C2589 C2588 1.287 . S
C2589 C2590 1.524 . S
C2589 H2592 0.999 . S
C2590 H2560 0.950 . S
C2590 C2589 1.524 . S
C2590 C2591 1.415 . S
C2591 H2561 0.950 . S
C2591 C2586 1.363 . S
C2591 C2590 1.415 . S
H2592 C2589 0.999 . S
H2593 C2574 0.913 . S
H2594 C2612 0.951 . S
H2595 C2614 0.951 . S
H2596 C2616 0.950 . S
H2597 C2617 0.950 . S
H2598 C2619 0.950 . S
H2599 C2622 0.950 . S
H2600 C2623 0.950 . S
H2601 C2625 0.950 . S
H2602 C2626 0.950 . S
H2603 C2627 0.951 . S
H2604 C2629 0.951 . S
H2605 C2631 0.950 . S
H2606 C2632 0.950 . S
H2607 C2634 0.950 . S
H2608 C2637 0.950 . S
H2609 C2638 0.950 . S
H2610 C2640 0.950 . S
H2611 C2641 0.950 . S
C2612 H2594 0.951 . S
C2612 C2613 1.366 . S
C2612 C2614 1.388 . S
C2613 C2612 1.366 . S
C2613 C2617 1.385 . S
C2614 H2595 0.951 . S
C2614 C2612 1.388 . S
C2614 C2615 1.366 . S
C2615 C2614 1.366 . S
C2615 C2616 1.414 . S
C2615 C2618 1.499 . S
C2616 H2596 0.950 . S
C2616 C2615 1.414 . S
C2616 C2617 1.374 . S
C2617 H2597 0.950 . S
C2617 C2613 1.385 . S
C2617 C2616 1.374 . S
C2618 C2615 1.499 . S
C2618 C2619 1.373 . S
C2618 C2620 1.389 . S
C2619 H2598 0.950 . S
C2619 C2618 1.373 . S
C2619 C2635 1.377 . S
C2620 C2618 1.389 . S
C2620 C2621 1.524 . S
C2620 C2634 1.377 . S
C2621 C2620 1.524 . S
C2621 C2622 1.397 . S
C2621 C2626 1.363 . S
C2622 H2599 0.950 . S
C2622 C2621 1.397 . S
C2622 C2623 1.334 . S
C2623 H2600 0.950 . S
C2623 C2622 1.334 . S
C2623 C2624 1.287 . S
C2624 C2623 1.287 . S
C2624 C2625 1.524 . S
C2624 H2643 0.913 . S
C2625 H2601 0.950 . S
C2625 C2624 1.524 . S
C2625 C2626 1.415 . S
C2626 H2602 0.950 . S
C2626 C2621 1.363 . S
C2626 C2625 1.415 . S
C2627 H2603 0.951 . S
C2627 C2628 1.366 . S
C2627 C2629 1.388 . S
C2628 C2627 1.366 . S
C2628 C2632 1.385 . S
C2629 H2604 0.951 . S
C2629 C2627 1.388 . S
C2629 C2630 1.366 . S
C2630 C2629 1.366 . S
C2630 C2631 1.414 . S
C2630 C2633 1.499 . S
C2631 H2605 0.950 . S
C2631 C2630 1.414 . S
C2631 C2632 1.374 . S
C2632 H2606 0.950 . S
C2632 C2628 1.385 . S
C2632 C2631 1.374 . S
C2633 C2630 1.499 . S
C2633 C2634 1.373 . S
C2633 C2635 1.389 . S
C2634 H2607 0.950 . S
C2634 C2620 1.377 . S
C2634 C2633 1.373 . S
C2635 C2619 1.377 . S
C2635 C2633 1.389 . S
C2635 C2636 1.524 . S
C2636 C2635 1.524 . S
C2636 C2637 1.397 . S
C2636 C2641 1.363 . S
C2637 H2608 0.950 . S
C2637 C2636 1.397 . S
C2637 C2638 1.334 . S
C2638 H2609 0.950 . S
C2638 C2637 1.334 . S
C2638 C2639 1.287 . S
C2639 C2638 1.287 . S
C2639 C2640 1.524 . S
C2639 H2642 0.999 . S
C2640 H2610 0.950 . S
C2640 C2639 1.524 . S
C2640 C2641 1.415 . S
C2641 H2611 0.950 . S
C2641 C2636 1.363 . S
C2641 C2640 1.415 . S
H2642 C2639 0.999 . S
H2643 C2624 0.913 . S
H2644 C2662 0.951 . S
H2645 C2664 0.951 . S
H2646 C2666 0.950 . S
H2647 C2667 0.950 . S
H2648 C2669 0.950 . S
H2649 C2672 0.950 . S
H2650 C2673 0.950 . S
H2651 C2675 0.950 . S
H2652 C2676 0.950 . S
H2653 C2677 0.951 . S
H2654 C2679 0.951 . S
H2655 C2681 0.950 . S
H2656 C2682 0.950 . S
H2657 C2684 0.950 . S
H2658 C2687 0.950 . S
H2659 C2688 0.950 . S
H2660 C2690 0.950 . S
H2661 C2691 0.950 . S
C2662 H2644 0.951 . S
C2662 C2663 1.366 . S
C2662 C2664 1.388 . S
C2663 C2662 1.366 . S
C2663 C2667 1.385 . S
C2664 H2645 0.951 . S
C2664 C2662 1.388 . S
C2664 C2665 1.366 . S
C2665 C2664 1.366 . S
C2665 C2666 1.414 . S
C2665 C2668 1.499 . S
C2666 H2646 0.950 . S
C2666 C2665 1.414 . S
C2666 C2667 1.374 . S
C2667 H2647 0.950 . S
C2667 C2663 1.385 . S
C2667 C2666 1.374 . S
C2668 C2665 1.499 . S
C2668 C2669 1.373 . S
C2668 C2670 1.389 . S
C2669 H2648 0.950 . S
C2669 C2668 1.373 . S
C2669 C2685 1.377 . S
C2670 C2668 1.389 . S
C2670 C2671 1.524 . S
C2670 C2684 1.377 . S
C2671 C2670 1.524 . S
C2671 C2672 1.397 . S
C2671 C2676 1.363 . S
C2672 H2649 0.950 . S
C2672 C2671 1.397 . S
C2672 C2673 1.334 . S
C2673 H2650 0.950 . S
C2673 C2672 1.334 . S
C2673 C2674 1.287 . S
C2674 C2673 1.287 . S
C2674 C2675 1.524 . S
C2674 H2693 0.913 . S
C2675 H2651 0.950 . S
C2675 C2674 1.524 . S
C2675 C2676 1.415 . S
C2676 H2652 0.950 . S
C2676 C2671 1.363 . S
C2676 C2675 1.415 . S
C2677 H2653 0.951 . S
C2677 C2678 1.366 . S
C2677 C2679 1.388 . S
C2678 C2677 1.366 . S
C2678 C2682 1.385 . S
C2679 H2654 0.951 . S
C2679 C2677 1.388 . S
C2679 C2680 1.366 . S
C2680 C2679 1.366 . S
C2680 C2681 1.414 . S
C2680 C2683 1.499 . S
C2681 H2655 0.950 . S
C2681 C2680 1.414 . S
C2681 C2682 1.374 . S
C2682 H2656 0.950 . S
C2682 C2678 1.385 . S
C2682 C2681 1.374 . S
C2683 C2680 1.499 . S
C2683 C2684 1.373 . S
C2683 C2685 1.389 . S
C2684 H2657 0.950 . S
C2684 C2670 1.377 . S
C2684 C2683 1.373 . S
C2685 C2669 1.377 . S
C2685 C2683 1.389 . S
C2685 C2686 1.524 . S
C2686 C2685 1.524 . S
C2686 C2687 1.397 . S
C2686 C2691 1.363 . S
C2687 H2658 0.950 . S
C2687 C2686 1.397 . S
C2687 C2688 1.334 . S
C2688 H2659 0.950 . S
C2688 C2687 1.334 . S
C2688 C2689 1.287 . S
C2689 C2688 1.287 . S
C2689 C2690 1.524 . S
C2689 H2692 0.999 . S
C2690 H2660 0.950 . S
C2690 C2689 1.524 . S
C2690 C2691 1.415 . S
C2691 H2661 0.950 . S
C2691 C2686 1.363 . S
C2691 C2690 1.415 . S
H2692 C2689 0.999 . S
H2693 C2674 0.913 . S
H2694 C2712 0.951 . S
H2695 C2714 0.951 . S
H2696 C2716 0.950 . S
H2697 C2717 0.950 . S
H2698 C2719 0.950 . S
H2699 C2722 0.950 . S
H2700 C2723 0.950 . S
H2701 C2725 0.950 . S
H2702 C2726 0.950 . S
H2703 C2727 0.951 . S
H2704 C2729 0.951 . S
H2705 C2731 0.950 . S
H2706 C2732 0.950 . S
H2707 C2734 0.950 . S
H2708 C2737 0.950 . S
H2709 C2738 0.950 . S
H2710 C2740 0.950 . S
H2711 C2741 0.950 . S
C2712 H2694 0.951 . S
C2712 C2713 1.366 . S
C2712 C2714 1.388 . S
C2713 C2712 1.366 . S
C2713 C2717 1.385 . S
C2714 H2695 0.951 . S
C2714 C2712 1.388 . S
C2714 C2715 1.366 . S
C2715 C2714 1.366 . S
C2715 C2716 1.414 . S
C2715 C2718 1.499 . S
C2716 H2696 0.950 . S
C2716 C2715 1.414 . S
C2716 C2717 1.374 . S
C2717 H2697 0.950 . S
C2717 C2713 1.385 . S
C2717 C2716 1.374 . S
C2718 C2715 1.499 . S
C2718 C2719 1.373 . S
C2718 C2720 1.389 . S
C2719 H2698 0.950 . S
C2719 C2718 1.373 . S
C2719 C2735 1.377 . S
C2720 C2718 1.389 . S
C2720 C2721 1.524 . S
C2720 C2734 1.377 . S
C2721 C2720 1.524 . S
C2721 C2722 1.397 . S
C2721 C2726 1.363 . S
C2722 H2699 0.950 . S
C2722 C2721 1.397 . S
C2722 C2723 1.334 . S
C2723 H2700 0.950 . S
C2723 C2722 1.334 . S
C2723 C2724 1.287 . S
C2724 C2723 1.287 . S
C2724 C2725 1.524 . S
C2724 H2743 0.913 . S
C2725 H2701 0.950 . S
C2725 C2724 1.524 . S
C2725 C2726 1.415 . S
C2726 H2702 0.950 . S
C2726 C2721 1.363 . S
C2726 C2725 1.415 . S
C2727 H2703 0.951 . S
C2727 C2728 1.366 . S
C2727 C2729 1.388 . S
C2728 C2727 1.366 . S
C2728 C2732 1.385 . S
C2729 H2704 0.951 . S
C2729 C2727 1.388 . S
C2729 C2730 1.366 . S
C2730 C2729 1.366 . S
C2730 C2731 1.414 . S
C2730 C2733 1.499 . S
C2731 H2705 0.950 . S
C2731 C2730 1.414 . S
C2731 C2732 1.374 . S
C2732 H2706 0.950 . S
C2732 C2728 1.385 . S
C2732 C2731 1.374 . S
C2733 C2730 1.499 . S
C2733 C2734 1.373 . S
C2733 C2735 1.389 . S
C2734 H2707 0.950 . S
C2734 C2720 1.377 . S
C2734 C2733 1.373 . S
C2735 C2719 1.377 . S
C2735 C2733 1.389 . S
C2735 C2736 1.524 . S
C2736 C2735 1.524 . S
C2736 C2737 1.397 . S
C2736 C2741 1.363 . S
C2737 H2708 0.950 . S
C2737 C2736 1.397 . S
C2737 C2738 1.334 . S
C2738 H2709 0.950 . S
C2738 C2737 1.334 . S
C2738 C2739 1.287 . S
C2739 C2738 1.287 . S
C2739 C2740 1.524 . S
C2739 H2742 0.999 . S
C2740 H2710 0.950 . S
C2740 C2739 1.524 . S
C2740 C2741 1.415 . S
C2741 H2711 0.950 . S
C2741 C2736 1.363 . S
C2741 C2740 1.415 . S
H2742 C2739 0.999 . S
H2743 C2724 0.913 . S
H2744 C2762 0.951 . S
H2745 C2764 0.951 . S
H2746 C2766 0.950 . S
H2747 C2767 0.950 . S
H2748 C2769 0.950 . S
H2749 C2772 0.950 . S
H2750 C2773 0.950 . S
H2751 C2775 0.950 . S
H2752 C2776 0.950 . S
H2753 C2777 0.951 . S
H2754 C2779 0.951 . S
H2755 C2781 0.950 . S
H2756 C2782 0.950 . S
H2757 C2784 0.950 . S
H2758 C2787 0.950 . S
H2759 C2788 0.950 . S
H2760 C2790 0.950 . S
H2761 C2791 0.950 . S
C2762 H2744 0.951 . S
C2762 C2763 1.366 . S
C2762 C2764 1.388 . S
C2763 C2762 1.366 . S
C2763 C2767 1.385 . S
C2764 H2745 0.951 . S
C2764 C2762 1.388 . S
C2764 C2765 1.366 . S
C2765 C2764 1.366 . S
C2765 C2766 1.414 . S
C2765 C2768 1.499 . S
C2766 H2746 0.950 . S
C2766 C2765 1.414 . S
C2766 C2767 1.374 . S
C2767 H2747 0.950 . S
C2767 C2763 1.385 . S
C2767 C2766 1.374 . S
C2768 C2765 1.499 . S
C2768 C2769 1.373 . S
C2768 C2770 1.389 . S
C2769 H2748 0.950 . S
C2769 C2768 1.373 . S
C2769 C2785 1.377 . S
C2770 C2768 1.389 . S
C2770 C2771 1.524 . S
C2770 C2784 1.377 . S
C2771 C2770 1.524 . S
C2771 C2772 1.397 . S
C2771 C2776 1.363 . S
C2772 H2749 0.950 . S
C2772 C2771 1.397 . S
C2772 C2773 1.334 . S
C2773 H2750 0.950 . S
C2773 C2772 1.334 . S
C2773 C2774 1.287 . S
C2774 C2773 1.287 . S
C2774 C2775 1.524 . S
C2774 H2793 0.913 . S
C2775 H2751 0.950 . S
C2775 C2774 1.524 . S
C2775 C2776 1.415 . S
C2776 H2752 0.950 . S
C2776 C2771 1.363 . S
C2776 C2775 1.415 . S
C2777 H2753 0.951 . S
C2777 C2778 1.366 . S
C2777 C2779 1.388 . S
C2778 C2777 1.366 . S
C2778 C2782 1.385 . S
C2779 H2754 0.951 . S
C2779 C2777 1.388 . S
C2779 C2780 1.366 . S
C2780 C2779 1.366 . S
C2780 C2781 1.414 . S
C2780 C2783 1.499 . S
C2781 H2755 0.950 . S
C2781 C2780 1.414 . S
C2781 C2782 1.374 . S
C2782 H2756 0.950 . S
C2782 C2778 1.385 . S
C2782 C2781 1.374 . S
C2783 C2780 1.499 . S
C2783 C2784 1.373 . S
C2783 C2785 1.389 . S
C2784 H2757 0.950 . S
C2784 C2770 1.377 . S
C2784 C2783 1.373 . S
C2785 C2769 1.377 . S
C2785 C2783 1.389 . S
C2785 C2786 1.524 . S
C2786 C2785 1.524 . S
C2786 C2787 1.397 . S
C2786 C2791 1.363 . S
C2787 H2758 0.950 . S
C2787 C2786 1.397 . S
C2787 C2788 1.334 . S
C2788 H2759 0.950 . S
C2788 C2787 1.334 . S
C2788 C2789 1.287 . S
C2789 C2788 1.287 . S
C2789 C2790 1.524 . S
C2789 H2792 0.999 . S
C2790 H2760 0.950 . S
C2790 C2789 1.524 . S
C2790 C2791 1.415 . S
C2791 H2761 0.950 . S
C2791 C2786 1.363 . S
C2791 C2790 1.415 . S
H2792 C2789 0.999 . S
H2793 C2774 0.913 . S
H2794 C2812 0.951 . S
H2795 C2814 0.951 . S
H2796 C2816 0.950 . S
H2797 C2817 0.950 . S
H2798 C2819 0.950 . S
H2799 C2822 0.950 . S
H2800 C2823 0.950 . S
H2801 C2825 0.950 . S
H2802 C2826 0.950 . S
H2803 C2827 0.951 . S
H2804 C2829 0.951 . S
H2805 C2831 0.950 . S
H2806 C2832 0.950 . S
H2807 C2834 0.950 . S
H2808 C2837 0.950 . S
H2809 C2838 0.950 . S
H2810 C2840 0.950 . S
H2811 C2841 0.950 . S
C2812 H2794 0.951 . S
C2812 C2813 1.366 . S
C2812 C2814 1.388 . S
C2813 C2812 1.366 . S
C2813 C2817 1.385 . S
C2814 H2795 0.951 . S
C2814 C2812 1.388 . S
C2814 C2815 1.366 . S
C2815 C2814 1.366 . S
C2815 C2816 1.414 . S
C2815 C2818 1.499 . S
C2816 H2796 0.950 . S
C2816 C2815 1.414 . S
C2816 C2817 1.374 . S
C2817 H2797 0.950 . S
C2817 C2813 1.385 . S
C2817 C2816 1.374 . S
C2818 C2815 1.499 . S
C2818 C2819 1.373 . S
C2818 C2820 1.389 . S
C2819 H2798 0.950 . S
C2819 C2818 1.373 . S
C2819 C2835 1.377 . S
C2820 C2818 1.389 . S
C2820 C2821 1.524 . S
C2820 C2834 1.377 . S
C2821 C2820 1.524 . S
C2821 C2822 1.397 . S
C2821 C2826 1.363 . S
C2822 H2799 0.950 . S
C2822 C2821 1.397 . S
C2822 C2823 1.334 . S
C2823 H2800 0.950 . S
C2823 C2822 1.334 . S
C2823 C2824 1.287 . S
C2824 C2823 1.287 . S
C2824 C2825 1.524 . S
C2824 H2843 0.913 . S
C2825 H2801 0.950 . S
C2825 C2824 1.524 . S
C2825 C2826 1.415 . S
C2826 H2802 0.950 . S
C2826 C2821 1.363 . S
C2826 C2825 1.415 . S
C2827 H2803 0.951 . S
C2827 C2828 1.366 . S
C2827 C2829 1.388 . S
C2828 C2827 1.366 . S
C2828 C2832 1.385 . S
C2829 H2804 0.951 . S
C2829 C2827 1.388 . S
C2829 C2830 1.366 . S
C2830 C2829 1.366 . S
C2830 C2831 1.414 . S
C2830 C2833 1.499 . S
C2831 H2805 0.950 . S
C2831 C2830 1.414 . S
C2831 C2832 1.374 . S
C2832 H2806 0.950 . S
C2832 C2828 1.385 . S
C2832 C2831 1.374 . S
C2833 C2830 1.499 . S
C2833 C2834 1.373 . S
C2833 C2835 1.389 . S
C2834 H2807 0.950 . S
C2834 C2820 1.377 . S
C2834 C2833 1.373 . S
C2835 C2819 1.377 . S
C2835 C2833 1.389 . S
C2835 C2836 1.524 . S
C2836 C2835 1.524 . S
C2836 C2837 1.397 . S
C2836 C2841 1.363 . S
C2837 H2808 0.950 . S
C2837 C2836 1.397 . S
C2837 C2838 1.334 . S
C2838 H2809 0.950 . S
C2838 C2837 1.334 . S
C2838 C2839 1.287 . S
C2839 C2838 1.287 . S
C2839 C2840 1.524 . S
C2839 H2842 0.999 . S
C2840 H2810 0.950 . S
C2840 C2839 1.524 . S
C2840 C2841 1.415 . S
C2841 H2811 0.950 . S
C2841 C2836 1.363 . S
C2841 C2840 1.415 . S
H2842 C2839 0.999 . S
H2843 C2824 0.913 . S
H2844 C2862 0.951 . S
H2845 C2864 0.951 . S
H2846 C2866 0.950 . S
H2847 C2867 0.950 . S
H2848 C2869 0.950 . S
H2849 C2872 0.950 . S
H2850 C2873 0.950 . S
H2851 C2875 0.950 . S
H2852 C2876 0.950 . S
H2853 C2877 0.951 . S
H2854 C2879 0.951 . S
H2855 C2881 0.950 . S
H2856 C2882 0.950 . S
H2857 C2884 0.950 . S
H2858 C2887 0.950 . S
H2859 C2888 0.950 . S
H2860 C2890 0.950 . S
H2861 C2891 0.950 . S
C2862 H2844 0.951 . S
C2862 C2863 1.366 . S
C2862 C2864 1.388 . S
C2863 C2862 1.366 . S
C2863 C2867 1.385 . S
C2864 H2845 0.951 . S
C2864 C2862 1.388 . S
C2864 C2865 1.366 . S
C2865 C2864 1.366 . S
C2865 C2866 1.414 . S
C2865 C2868 1.499 . S
C2866 H2846 0.950 . S
C2866 C2865 1.414 . S
C2866 C2867 1.374 . S
C2867 H2847 0.950 . S
C2867 C2863 1.385 . S
C2867 C2866 1.374 . S
C2868 C2865 1.499 . S
C2868 C2869 1.373 . S
C2868 C2870 1.389 . S
C2869 H2848 0.950 . S
C2869 C2868 1.373 . S
C2869 C2885 1.377 . S
C2870 C2868 1.389 . S
C2870 C2871 1.524 . S
C2870 C2884 1.377 . S
C2871 C2870 1.524 . S
C2871 C2872 1.397 . S
C2871 C2876 1.363 . S
C2872 H2849 0.950 . S
C2872 C2871 1.397 . S
C2872 C2873 1.334 . S
C2873 H2850 0.950 . S
C2873 C2872 1.334 . S
C2873 C2874 1.287 . S
C2874 C2873 1.287 . S
C2874 C2875 1.524 . S
C2874 H2893 0.913 . S
C2875 H2851 0.950 . S
C2875 C2874 1.524 . S
C2875 C2876 1.415 . S
C2876 H2852 0.950 . S
C2876 C2871 1.363 . S
C2876 C2875 1.415 . S
C2877 H2853 0.951 . S
C2877 C2878 1.366 . S
C2877 C2879 1.388 . S
C2878 C2877 1.366 . S
C2878 C2882 1.385 . S
C2879 H2854 0.951 . S
C2879 C2877 1.388 . S
C2879 C2880 1.366 . S
C2880 C2879 1.366 . S
C2880 C2881 1.414 . S
C2880 C2883 1.499 . S
C2881 H2855 0.950 . S
C2881 C2880 1.414 . S
C2881 C2882 1.374 . S
C2882 H2856 0.950 . S
C2882 C2878 1.385 . S
C2882 C2881 1.374 . S
C2883 C2880 1.499 . S
C2883 C2884 1.373 . S
C2883 C2885 1.389 . S
C2884 H2857 0.950 . S
C2884 C2870 1.377 . S
C2884 C2883 1.373 . S
C2885 C2869 1.377 . S
C2885 C2883 1.389 . S
C2885 C2886 1.524 . S
C2886 C2885 1.524 . S
C2886 C2887 1.397 . S
C2886 C2891 1.363 . S
C2887 H2858 0.950 . S
C2887 C2886 1.397 . S
C2887 C2888 1.334 . S
C2888 H2859 0.950 . S
C2888 C2887 1.334 . S
C2888 C2889 1.287 . S
C2889 C2888 1.287 . S
C2889 C2890 1.524 . S
C2889 H2892 0.999 . S
C2890 H2860 0.950 . S
C2890 C2889 1.524 . S
C2890 C2891 1.415 . S
C2891 H2861 0.950 . S
C2891 C2886 1.363 . S
C2891 C2890 1.415 . S
H2892 C2889 0.999 . S
H2893 C2874 0.913 . S
H2894 C2912 0.951 . S
H2895 C2914 0.951 . S
H2896 C2916 0.950 . S
H2897 C2917 0.950 . S
H2898 C2919 0.950 . S
H2899 C2922 0.950 . S
H2900 C2923 0.950 . S
H2901 C2925 0.950 . S
H2902 C2926 0.950 . S
H2903 C2927 0.951 . S
H2904 C2929 0.951 . S
H2905 C2931 0.950 . S
H2906 C2932 0.950 . S
H2907 C2934 0.950 . S
H2908 C2937 0.950 . S
H2909 C2938 0.950 . S
H2910 C2940 0.950 . S
H2911 C2941 0.950 . S
C2912 H2894 0.951 . S
C2912 C2913 1.366 . S
C2912 C2914 1.388 . S
C2913 C2912 1.366 . S
C2913 C2917 1.385 . S
C2914 H2895 0.951 . S
C2914 C2912 1.388 . S
C2914 C2915 1.366 . S
C2915 C2914 1.366 . S
C2915 C2916 1.414 . S
C2915 C2918 1.499 . S
C2916 H2896 0.950 . S
C2916 C2915 1.414 . S
C2916 C2917 1.374 . S
C2917 H2897 0.950 . S
C2917 C2913 1.385 . S
C2917 C2916 1.374 . S
C2918 C2915 1.499 . S
C2918 C2919 1.373 . S
C2918 C2920 1.389 . S
C2919 H2898 0.950 . S
C2919 C2918 1.373 . S
C2919 C2935 1.377 . S
C2920 C2918 1.389 . S
C2920 C2921 1.524 . S
C2920 C2934 1.377 . S
C2921 C2920 1.524 . S
C2921 C2922 1.397 . S
C2921 C2926 1.363 . S
C2922 H2899 0.950 . S
C2922 C2921 1.397 . S
C2922 C2923 1.334 . S
C2923 H2900 0.950 . S
C2923 C2922 1.334 . S
C2923 C2924 1.287 . S
C2924 C2923 1.287 . S
C2924 C2925 1.524 . S
C2924 H2943 0.913 . S
C2925 H2901 0.950 . S
C2925 C2924 1.524 . S
C2925 C2926 1.415 . S
C2926 H2902 0.950 . S
C2926 C2921 1.363 . S
C2926 C2925 1.415 . S
C2927 H2903 0.951 . S
C2927 C2928 1.366 . S
C2927 C2929 1.388 . S
C2928 C2927 1.366 . S
C2928 C2932 1.385 . S
C2929 H2904 0.951 . S
C2929 C2927 1.388 . S
C2929 C2930 1.366 . S
C2930 C2929 1.366 . S
C2930 C2931 1.414 . S
C2930 C2933 1.499 . S
C2931 H2905 0.950 . S
C2931 C2930 1.414 . S
C2931 C2932 1.374 . S
C2932 H2906 0.950 . S
C2932 C2928 1.385 . S
C2932 C2931 1.374 . S
C2933 C2930 1.499 . S
C2933 C2934 1.373 . S
C2933 C2935 1.389 . S
C2934 H2907 0.950 . S
C2934 C2920 1.377 . S
C2934 C2933 1.373 . S
C2935 C2919 1.377 . S
C2935 C2933 1.389 . S
C2935 C2936 1.524 . S
C2936 C2935 1.524 . S
C2936 C2937 1.397 . S
C2936 C2941 1.363 . S
C2937 H2908 0.950 . S
C2937 C2936 1.397 . S
C2937 C2938 1.334 . S
C2938 H2909 0.950 . S
C2938 C2937 1.334 . S
C2938 C2939 1.287 . S
C2939 C2938 1.287 . S
C2939 C2940 1.524 . S
C2939 H2942 0.999 . S
C2940 H2910 0.950 . S
C2940 C2939 1.524 . S
C2940 C2941 1.415 . S
C2941 H2911 0.950 . S
C2941 C2936 1.363 . S
C2941 C2940 1.415 . S
H2942 C2939 0.999 . S
H2943 C2924 0.913 . S
H2944 C2962 0.951 . S
H2945 C2964 0.951 . S
H2946 C2966 0.950 . S
H2947 C2967 0.950 . S
H2948 C2969 0.950 . S
H2949 C2972 0.950 . S
H2950 C2973 0.950 . S
H2951 C2975 0.950 . S
H2952 C2976 0.950 . S
H2953 C2977 0.951 . S
H2954 C2979 0.951 . S
H2955 C2981 0.950 . S
H2956 C2982 0.950 . S
H2957 C2984 0.950 . S
H2958 C2987 0.950 . S
H2959 C2988 0.950 . S
H2960 C2990 0.950 . S
H2961 C2991 0.950 . S
C2962 H2944 0.951 . S
C2962 C2963 1.366 . S
C2962 C2964 1.388 . S
C2963 C2962 1.366 . S
C2963 C2967 1.385 . S
C2964 H2945 0.951 . S
C2964 C2962 1.388 . S
C2964 C2965 1.366 . S
C2965 C2964 1.366 . S
C2965 C2966 1.414 . S
C2965 C2968 1.499 . S
C2966 H2946 0.950 . S
C2966 C2965 1.414 . S
C2966 C2967 1.374 . S
C2967 H2947 0.950 . S
C2967 C2963 1.385 . S
C2967 C2966 1.374 . S
C2968 C2965 1.499 . S
C2968 C2969 1.373 . S
C2968 C2970 1.389 . S
C2969 H2948 0.950 . S
C2969 C2968 1.373 . S
C2969 C2985 1.377 . S
C2970 C2968 1.389 . S
C2970 C2971 1.524 . S
C2970 C2984 1.377 . S
C2971 C2970 1.524 . S
C2971 C2972 1.397 . S
C2971 C2976 1.363 . S
C2972 H2949 0.950 . S
C2972 C2971 1.397 . S
C2972 C2973 1.334 . S
C2973 H2950 0.950 . S
C2973 C2972 1.334 . S
C2973 C2974 1.287 . S
C2974 C2973 1.287 . S
C2974 C2975 1.524 . S
C2974 H2993 0.913 . S
C2975 H2951 0.950 . S
C2975 C2974 1.524 . S
C2975 C2976 1.415 . S
C2976 H2952 0.950 . S
C2976 C2971 1.363 . S
C2976 C2975 1.415 . S
C2977 H2953 0.951 . S
C2977 C2978 1.366 . S
C2977 C2979 1.388 . S
C2978 C2977 1.366 . S
C2978 C2982 1.385 . S
C2979 H2954 0.951 . S
C2979 C2977 1.388 . S
C2979 C2980 1.366 . S
C2980 C2979 1.366 . S
C2980 C2981 1.414 . S
C2980 C2983 1.499 . S
C2981 H2955 0.950 . S
C2981 C2980 1.414 . S
C2981 C2982 1.374 . S
C2982 H2956 0.950 . S
C2982 C2978 1.385 . S
C2982 C2981 1.374 . S
C2983 C2980 1.499 . S
C2983 C2984 1.373 . S
C2983 C2985 1.389 . S
C2984 H2957 0.950 . S
C2984 C2970 1.377 . S
C2984 C2983 1.373 . S
C2985 C2969 1.377 . S
C2985 C2983 1.389 . S
C2985 C2986 1.524 . S
C2986 C2985 1.524 . S
C2986 C2987 1.397 . S
C2986 C2991 1.363 . S
C2987 H2958 0.950 . S
C2987 C2986 1.397 . S
C2987 C2988 1.334 . S
C2988 H2959 0.950 . S
C2988 C2987 1.334 . S
C2988 C2989 1.287 . S
C2989 C2988 1.287 . S
C2989 C2990 1.524 . S
C2989 H2992 0.999 . S
C2990 H2960 0.950 . S
C2990 C2989 1.524 . S
C2990 C2991 1.415 . S
C2991 H2961 0.950 . S
C2991 C2986 1.363 . S
C2991 C2990 1.415 . S
H2992 C2989 0.999 . S
H2993 C2974 0.913 . S
H2994 C3012 0.951 . S
H2995 C3014 0.951 . S
H2996 C3016 0.950 . S
H2997 C3017 0.950 . S
H2998 C3019 0.950 . S
H2999 C3022 0.950 . S
H3000 C3023 0.950 . S
H3001 C3025 0.950 . S
H3002 C3026 0.950 . S
H3003 C3027 0.951 . S
H3004 C3029 0.951 . S
H3005 C3031 0.950 . S
H3006 C3032 0.950 . S
H3007 C3034 0.950 . S
H3008 C3037 0.950 . S
H3009 C3038 0.950 . S
H3010 C3040 0.950 . S
H3011 C3041 0.950 . S
C3012 H2994 0.951 . S
C3012 C3013 1.366 . S
C3012 C3014 1.388 . S
C3013 C3012 1.366 . S
C3013 C3017 1.385 . S
C3014 H2995 0.951 . S
C3014 C3012 1.388 . S
C3014 C3015 1.366 . S
C3015 C3014 1.366 . S
C3015 C3016 1.414 . S
C3015 C3018 1.499 . S
C3016 H2996 0.950 . S
C3016 C3015 1.414 . S
C3016 C3017 1.374 . S
C3017 H2997 0.950 . S
C3017 C3013 1.385 . S
C3017 C3016 1.374 . S
C3018 C3015 1.499 . S
C3018 C3019 1.373 . S
C3018 C3020 1.389 . S
C3019 H2998 0.950 . S
C3019 C3018 1.373 . S
C3019 C3035 1.377 . S
C3020 C3018 1.389 . S
C3020 C3021 1.524 . S
C3020 C3034 1.377 . S
C3021 C3020 1.524 . S
C3021 C3022 1.397 . S
C3021 C3026 1.363 . S
C3022 H2999 0.950 . S
C3022 C3021 1.397 . S
C3022 C3023 1.334 . S
C3023 H3000 0.950 . S
C3023 C3022 1.334 . S
C3023 C3024 1.287 . S
C3024 C3023 1.287 . S
C3024 C3025 1.524 . S
C3024 H3043 0.913 . S
C3025 H3001 0.950 . S
C3025 C3024 1.524 . S
C3025 C3026 1.415 . S
C3026 H3002 0.950 . S
C3026 C3021 1.363 . S
C3026 C3025 1.415 . S
C3027 H3003 0.951 . S
C3027 C3028 1.366 . S
C3027 C3029 1.388 . S
C3028 C3027 1.366 . S
C3028 C3032 1.385 . S
C3029 H3004 0.951 . S
C3029 C3027 1.388 . S
C3029 C3030 1.366 . S
C3030 C3029 1.366 . S
C3030 C3031 1.414 . S
C3030 C3033 1.499 . S
C3031 H3005 0.950 . S
C3031 C3030 1.414 . S
C3031 C3032 1.374 . S
C3032 H3006 0.950 . S
C3032 C3028 1.385 . S
C3032 C3031 1.374 . S
C3033 C3030 1.499 . S
C3033 C3034 1.373 . S
C3033 C3035 1.389 . S
C3034 H3007 0.950 . S
C3034 C3020 1.377 . S
C3034 C3033 1.373 . S
C3035 C3019 1.377 . S
C3035 C3033 1.389 . S
C3035 C3036 1.524 . S
C3036 C3035 1.524 . S
C3036 C3037 1.397 . S
C3036 C3041 1.363 . S
C3037 H3008 0.950 . S
C3037 C3036 1.397 . S
C3037 C3038 1.334 . S
C3038 H3009 0.950 . S
C3038 C3037 1.334 . S
C3038 C3039 1.287 . S
C3039 C3038 1.287 . S
C3039 C3040 1.524 . S
C3039 H3042 0.999 . S
C3040 H3010 0.950 . S
C3040 C3039 1.524 . S
C3040 C3041 1.415 . S
C3041 H3011 0.950 . S
C3041 C3036 1.363 . S
C3041 C3040 1.415 . S
H3042 C3039 0.999 . S
H3043 C3024 0.913 . S
H3044 C3062 0.951 . S
H3045 C3064 0.951 . S
H3046 C3066 0.950 . S
H3047 C3067 0.950 . S
H3048 C3069 0.950 . S
H3049 C3072 0.950 . S
H3050 C3073 0.950 . S
H3051 C3075 0.950 . S
H3052 C3076 0.950 . S
H3053 C3077 0.951 . S
H3054 C3079 0.951 . S
H3055 C3081 0.950 . S
H3056 C3082 0.950 . S
H3057 C3084 0.950 . S
H3058 C3087 0.950 . S
H3059 C3088 0.950 . S
H3060 C3090 0.950 . S
H3061 C3091 0.950 . S
C3062 H3044 0.951 . S
C3062 C3063 1.366 . S
C3062 C3064 1.388 . S
C3063 C3062 1.366 . S
C3063 C3067 1.385 . S
C3064 H3045 0.951 . S
C3064 C3062 1.388 . S
C3064 C3065 1.366 . S
C3065 C3064 1.366 . S
C3065 C3066 1.414 . S
C3065 C3068 1.499 . S
C3066 H3046 0.950 . S
C3066 C3065 1.414 . S
C3066 C3067 1.374 . S
C3067 H3047 0.950 . S
C3067 C3063 1.385 . S
C3067 C3066 1.374 . S
C3068 C3065 1.499 . S
C3068 C3069 1.373 . S
C3068 C3070 1.389 . S
C3069 H3048 0.950 . S
C3069 C3068 1.373 . S
C3069 C3085 1.377 . S
C3070 C3068 1.389 . S
C3070 C3071 1.524 . S
C3070 C3084 1.377 . S
C3071 C3070 1.524 . S
C3071 C3072 1.397 . S
C3071 C3076 1.363 . S
C3072 H3049 0.950 . S
C3072 C3071 1.397 . S
C3072 C3073 1.334 . S
C3073 H3050 0.950 . S
C3073 C3072 1.334 . S
C3073 C3074 1.287 . S
C3074 C3073 1.287 . S
C3074 C3075 1.524 . S
C3074 H3093 0.913 . S
C3075 H3051 0.950 . S
C3075 C3074 1.524 . S
C3075 C3076 1.415 . S
C3076 H3052 0.950 . S
C3076 C3071 1.363 . S
C3076 C3075 1.415 . S
C3077 H3053 0.951 . S
C3077 C3078 1.366 . S
C3077 C3079 1.388 . S
C3078 C3077 1.366 . S
C3078 C3082 1.385 . S
C3079 H3054 0.951 . S
C3079 C3077 1.388 . S
C3079 C3080 1.366 . S
C3080 C3079 1.366 . S
C3080 C3081 1.414 . S
C3080 C3083 1.499 . S
C3081 H3055 0.950 . S
C3081 C3080 1.414 . S
C3081 C3082 1.374 . S
C3082 H3056 0.950 . S
C3082 C3078 1.385 . S
C3082 C3081 1.374 . S
C3083 C3080 1.499 . S
C3083 C3084 1.373 . S
C3083 C3085 1.389 . S
C3084 H3057 0.950 . S
C3084 C3070 1.377 . S
C3084 C3083 1.373 . S
C3085 C3069 1.377 . S
C3085 C3083 1.389 . S
C3085 C3086 1.524 . S
C3086 C3085 1.524 . S
C3086 C3087 1.397 . S
C3086 C3091 1.363 . S
C3087 H3058 0.950 . S
C3087 C3086 1.397 . S
C3087 C3088 1.334 . S
C3088 H3059 0.950 . S
C3088 C3087 1.334 . S
C3088 C3089 1.287 . S
C3089 C3088 1.287 . S
C3089 C3090 1.524 . S
C3089 H3092 0.999 . S
C3090 H3060 0.950 . S
C3090 C3089 1.524 . S
C3090 C3091 1.415 . S
C3091 H3061 0.950 . S
C3091 C3086 1.363 . S
C3091 C3090 1.415 . S
H3092 C3089 0.999 . S
H3093 C3074 0.913 . S
H3094 C3112 0.951 . S
H3095 C3114 0.951 . S
H3096 C3116 0.950 . S
H3097 C3117 0.950 . S
H3098 C3119 0.950 . S
H3099 C3122 0.950 . S
H3100 C3123 0.950 . S
H3101 C3125 0.950 . S
H3102 C3126 0.950 . S
H3103 C3127 0.951 . S
H3104 C3129 0.951 . S
H3105 C3131 0.950 . S
H3106 C3132 0.950 . S
H3107 C3134 0.950 . S
H3108 C3137 0.950 . S
H3109 C3138 0.950 . S
H3110 C3140 0.950 . S
H3111 C3141 0.950 . S
C3112 H3094 0.951 . S
C3112 C3113 1.366 . S
C3112 C3114 1.388 . S
C3113 C3112 1.366 . S
C3113 C3117 1.385 . S
C3114 H3095 0.951 . S
C3114 C3112 1.388 . S
C3114 C3115 1.366 . S
C3115 C3114 1.366 . S
C3115 C3116 1.414 . S
C3115 C3118 1.499 . S
C3116 H3096 0.950 . S
C3116 C3115 1.414 . S
C3116 C3117 1.374 . S
C3117 H3097 0.950 . S
C3117 C3113 1.385 . S
C3117 C3116 1.374 . S
C3118 C3115 1.499 . S
C3118 C3119 1.373 . S
C3118 C3120 1.389 . S
C3119 H3098 0.950 . S
C3119 C3118 1.373 . S
C3119 C3135 1.377 . S
C3120 C3118 1.389 . S
C3120 C3121 1.524 . S
C3120 C3134 1.377 . S
C3121 C3120 1.524 . S
C3121 C3122 1.397 . S
C3121 C3126 1.363 . S
C3122 H3099 0.950 . S
C3122 C3121 1.397 . S
C3122 C3123 1.334 . S
C3123 H3100 0.950 . S
C3123 C3122 1.334 . S
C3123 C3124 1.287 . S
C3124 C3123 1.287 . S
C3124 C3125 1.524 . S
C3124 H3143 0.913 . S
C3125 H3101 0.950 . S
C3125 C3124 1.524 . S
C3125 C3126 1.415 . S
C3126 H3102 0.950 . S
C3126 C3121 1.363 . S
C3126 C3125 1.415 . S
C3127 H3103 0.951 . S
C3127 C3128 1.366 . S
C3127 C3129 1.388 . S
C3128 C3127 1.366 . S
C3128 C3132 1.385 . S
C3129 H3104 0.951 . S
C3129 C3127 1.388 . S
C3129 C3130 1.366 . S
C3130 C3129 1.366 . S
C3130 C3131 1.414 . S
C3130 C3133 1.499 . S
C3131 H3105 0.950 . S
C3131 C3130 1.414 . S
C3131 C3132 1.374 . S
C3132 H3106 0.950 . S
C3132 C3128 1.385 . S
C3132 C3131 1.374 . S
C3133 C3130 1.499 . S
C3133 C3134 1.373 . S
C3133 C3135 1.389 . S
C3134 H3107 0.950 . S
C3134 C3120 1.377 . S
C3134 C3133 1.373 . S
C3135 C3119 1.377 . S
C3135 C3133 1.389 . S
C3135 C3136 1.524 . S
C3136 C3135 1.524 . S
C3136 C3137 1.397 . S
C3136 C3141 1.363 . S
C3137 H3108 0.950 . S
C3137 C3136 1.397 . S
C3137 C3138 1.334 . S
C3138 H3109 0.950 . S
C3138 C3137 1.334 . S
C3138 C3139 1.287 . S
C3139 C3138 1.287 . S
C3139 C3140 1.524 . S
C3139 H3142 0.999 . S
C3140 H3110 0.950 . S
C3140 C3139 1.524 . S
C3140 C3141 1.415 . S
C3141 H3111 0.950 . S
C3141 C3136 1.363 . S
C3141 C3140 1.415 . S
H3142 C3139 0.999 . S
H3143 C3124 0.913 . S
H3144 C3162 0.951 . S
H3145 C3164 0.951 . S
H3146 C3166 0.950 . S
H3147 C3167 0.950 . S
H3148 C3169 0.950 . S
H3149 C3172 0.950 . S
H3150 C3173 0.950 . S
H3151 C3175 0.950 . S
H3152 C3176 0.950 . S
H3153 C3177 0.951 . S
H3154 C3179 0.951 . S
H3155 C3181 0.950 . S
H3156 C3182 0.950 . S
H3157 C3184 0.950 . S
H3158 C3187 0.950 . S
H3159 C3188 0.950 . S
H3160 C3190 0.950 . S
H3161 C3191 0.950 . S
C3162 H3144 0.951 . S
C3162 C3163 1.366 . S
C3162 C3164 1.388 . S
C3163 C3162 1.366 . S
C3163 C3167 1.385 . S
C3164 H3145 0.951 . S
C3164 C3162 1.388 . S
C3164 C3165 1.366 . S
C3165 C3164 1.366 . S
C3165 C3166 1.414 . S
C3165 C3168 1.499 . S
C3166 H3146 0.950 . S
C3166 C3165 1.414 . S
C3166 C3167 1.374 . S
C3167 H3147 0.950 . S
C3167 C3163 1.385 . S
C3167 C3166 1.374 . S
C3168 C3165 1.499 . S
C3168 C3169 1.373 . S
C3168 C3170 1.389 . S
C3169 H3148 0.950 . S
C3169 C3168 1.373 . S
C3169 C3185 1.377 . S
C3170 C3168 1.389 . S
C3170 C3171 1.524 . S
C3170 C3184 1.377 . S
C3171 C3170 1.524 . S
C3171 C3172 1.397 . S
C3171 C3176 1.363 . S
C3172 H3149 0.950 . S
C3172 C3171 1.397 . S
C3172 C3173 1.334 . S
C3173 H3150 0.950 . S
C3173 C3172 1.334 . S
C3173 C3174 1.287 . S
C3174 C3173 1.287 . S
C3174 C3175 1.524 . S
C3174 H3193 0.913 . S
C3175 H3151 0.950 . S
C3175 C3174 1.524 . S
C3175 C3176 1.415 . S
C3176 H3152 0.950 . S
C3176 C3171 1.363 . S
C3176 C3175 1.415 . S
C3177 H3153 0.951 . S
C3177 C3178 1.366 . S
C3177 C3179 1.388 . S
C3178 C3177 1.366 . S
C3178 C3182 1.385 . S
C3179 H3154 0.951 . S
C3179 C3177 1.388 . S
C3179 C3180 1.366 . S
C3180 C3179 1.366 . S
C3180 C3181 1.414 . S
C3180 C3183 1.499 . S
C3181 H3155 0.950 . S
C3181 C3180 1.414 . S
C3181 C3182 1.374 . S
C3182 H3156 0.950 . S
C3182 C3178 1.385 . S
C3182 C3181 1.374 . S
C3183 C3180 1.499 . S
C3183 C3184 1.373 . S
C3183 C3185 1.389 . S
C3184 H3157 0.950 . S
C3184 C3170 1.377 . S
C3184 C3183 1.373 . S
C3185 C3169 1.377 . S
C3185 C3183 1.389 . S
C3185 C3186 1.524 . S
C3186 C3185 1.524 . S
C3186 C3187 1.397 . S
C3186 C3191 1.363 . S
C3187 H3158 0.950 . S
C3187 C3186 1.397 . S
C3187 C3188 1.334 . S
C3188 H3159 0.950 . S
C3188 C3187 1.334 . S
C3188 C3189 1.287 . S
C3189 C3188 1.287 . S
C3189 C3190 1.524 . S
C3189 H3192 0.999 . S
C3190 H3160 0.950 . S
C3190 C3189 1.524 . S
C3190 C3191 1.415 . S
C3191 H3161 0.950 . S
C3191 C3186 1.363 . S
C3191 C3190 1.415 . S
H3192 C3189 0.999 . S
H3193 C3174 0.913 . S
H3194 C3212 0.951 . S
H3195 C3214 0.951 . S
H3196 C3216 0.950 . S
H3197 C3217 0.950 . S
H3198 C3219 0.950 . S
H3199 C3222 0.950 . S
H3200 C3223 0.950 . S
H3201 C3225 0.950 . S
H3202 C3226 0.950 . S
H3203 C3227 0.951 . S
H3204 C3229 0.951 . S
H3205 C3231 0.950 . S
H3206 C3232 0.950 . S
H3207 C3234 0.950 . S
H3208 C3237 0.950 . S
H3209 C3238 0.950 . S
H3210 C3240 0.950 . S
H3211 C3241 0.950 . S
C3212 H3194 0.951 . S
C3212 C3213 1.366 . S
C3212 C3214 1.388 . S
C3213 C3212 1.366 . S
C3213 C3217 1.385 . S
C3214 H3195 0.951 . S
C3214 C3212 1.388 . S
C3214 C3215 1.366 . S
C3215 C3214 1.366 . S
C3215 C3216 1.414 . S
C3215 C3218 1.499 . S
C3216 H3196 0.950 . S
C3216 C3215 1.414 . S
C3216 C3217 1.374 . S
C3217 H3197 0.950 . S
C3217 C3213 1.385 . S
C3217 C3216 1.374 . S
C3218 C3215 1.499 . S
C3218 C3219 1.373 . S
C3218 C3220 1.389 . S
C3219 H3198 0.950 . S
C3219 C3218 1.373 . S
C3219 C3235 1.377 . S
C3220 C3218 1.389 . S
C3220 C3221 1.524 . S
C3220 C3234 1.377 . S
C3221 C3220 1.524 . S
C3221 C3222 1.397 . S
C3221 C3226 1.363 . S
C3222 H3199 0.950 . S
C3222 C3221 1.397 . S
C3222 C3223 1.334 . S
C3223 H3200 0.950 . S
C3223 C3222 1.334 . S
C3223 C3224 1.287 . S
C3224 C3223 1.287 . S
C3224 C3225 1.524 . S
C3224 H3243 0.913 . S
C3225 H3201 0.950 . S
C3225 C3224 1.524 . S
C3225 C3226 1.415 . S
C3226 H3202 0.950 . S
C3226 C3221 1.363 . S
C3226 C3225 1.415 . S
C3227 H3203 0.951 . S
C3227 C3228 1.366 . S
C3227 C3229 1.388 . S
C3228 C3227 1.366 . S
C3228 C3232 1.385 . S
C3229 H3204 0.951 . S
C3229 C3227 1.388 . S
C3229 C3230 1.366 . S
C3230 C3229 1.366 . S
C3230 C3231 1.414 . S
C3230 C3233 1.499 . S
C3231 H3205 0.950 . S
C3231 C3230 1.414 . S
C3231 C3232 1.374 . S
C3232 H3206 0.950 . S
C3232 C3228 1.385 . S
C3232 C3231 1.374 . S
C3233 C3230 1.499 . S
C3233 C3234 1.373 . S
C3233 C3235 1.389 . S
C3234 H3207 0.950 . S
C3234 C3220 1.377 . S
C3234 C3233 1.373 . S
C3235 C3219 1.377 . S
C3235 C3233 1.389 . S
C3235 C3236 1.524 . S
C3236 C3235 1.524 . S
C3236 C3237 1.397 . S
C3236 C3241 1.363 . S
C3237 H3208 0.950 . S
C3237 C3236 1.397 . S
C3237 C3238 1.334 . S
C3238 H3209 0.950 . S
C3238 C3237 1.334 . S
C3238 C3239 1.287 . S
C3239 C3238 1.287 . S
C3239 C3240 1.524 . S
C3239 H3242 0.999 . S
C3240 H3210 0.950 . S
C3240 C3239 1.524 . S
C3240 C3241 1.415 . S
C3241 H3211 0.950 . S
C3241 C3236 1.363 . S
C3241 C3240 1.415 . S
H3242 C3239 0.999 . S
H3243 C3224 0.913 . S
H3244 C3262 0.951 . S
H3245 C3264 0.951 . S
H3246 C3266 0.950 . S
H3247 C3267 0.950 . S
H3248 C3269 0.950 . S
H3249 C3272 0.950 . S
H3250 C3273 0.950 . S
H3251 C3275 0.950 1_455 S
H3252 C3276 0.950 . S
H3253 C3277 0.951 . S
H3254 C3279 0.951 . S
H3255 C3281 0.950 . S
H3256 C3282 0.950 . S
H3257 C3284 0.950 . S
H3258 C3287 0.950 . S
H3259 C3288 0.950 . S
H3260 C3290 0.950 . S
H3261 C3291 0.950 . S
C3262 H3244 0.951 . S
C3262 C3263 1.366 . S
C3262 C3264 1.388 . S
C3263 C3262 1.366 . S
C3263 C3267 1.385 . S
C3264 H3245 0.951 . S
C3264 C3262 1.388 . S
C3264 C3265 1.366 . S
C3265 C3264 1.366 . S
C3265 C3266 1.414 . S
C3265 C3268 1.499 . S
C3266 H3246 0.950 . S
C3266 C3265 1.414 . S
C3266 C3267 1.374 . S
C3267 H3247 0.950 . S
C3267 C3263 1.385 . S
C3267 C3266 1.374 . S
C3268 C3265 1.499 . S
C3268 C3269 1.373 . S
C3268 C3270 1.389 . S
C3269 H3248 0.950 . S
C3269 C3268 1.373 . S
C3269 C3285 1.377 . S
C3270 C3268 1.389 . S
C3270 C3271 1.524 . S
C3270 C3284 1.377 . S
C3271 C3270 1.524 . S
C3271 C3272 1.397 . S
C3271 C3276 1.363 . S
C3272 H3249 0.950 . S
C3272 C3271 1.397 . S
C3272 C3273 1.334 . S
C3273 H3250 0.950 . S
C3273 C3272 1.334 . S
C3273 C3274 1.287 . S
C3274 C3273 1.287 . S
C3274 C3275 1.524 . S
C3274 H3293 0.902 1_655 S
C3275 H3251 0.950 1_655 S
C3275 C3274 1.524 . S
C3275 C3276 1.415 . S
C3276 H3252 0.950 . S
C3276 C3271 1.363 . S
C3276 C3275 1.415 . S
C3277 H3253 0.951 . S
C3277 C3278 1.366 . S
C3277 C3279 1.388 . S
C3278 C3277 1.366 . S
C3278 C3282 1.385 . S
C3279 H3254 0.951 . S
C3279 C3277 1.388 . S
C3279 C3280 1.366 . S
C3280 C3279 1.366 . S
C3280 C3281 1.414 . S
C3280 C3283 1.499 . S
C3281 H3255 0.950 . S
C3281 C3280 1.414 . S
C3281 C3282 1.374 . S
C3282 H3256 0.950 . S
C3282 C3278 1.385 . S
C3282 C3281 1.374 . S
C3283 C3280 1.499 . S
C3283 C3284 1.373 . S
C3283 C3285 1.389 . S
C3284 H3257 0.950 . S
C3284 C3270 1.377 . S
C3284 C3283 1.373 . S
C3285 C3269 1.377 . S
C3285 C3283 1.389 . S
C3285 C3286 1.524 . S
C3286 C3285 1.524 . S
C3286 C3287 1.397 . S
C3286 C3291 1.363 . S
C3287 H3258 0.950 . S
C3287 C3286 1.397 . S
C3287 C3288 1.334 . S
C3288 H3259 0.950 . S
C3288 C3287 1.334 . S
C3288 C3289 1.287 . S
C3289 C3288 1.287 . S
C3289 C3290 1.524 . S
C3289 H3292 0.999 . S
C3290 H3260 0.950 . S
C3290 C3289 1.524 . S
C3290 C3291 1.415 . S
C3291 H3261 0.950 . S
C3291 C3286 1.363 . S
C3291 C3290 1.415 . S
H3292 C3289 0.999 . S
H3293 C3274 0.902 1_455 S
C613 N170 2.210 . S
C628 C237 2.255 . S
C663 N184 1.087 . S
C678 C277 1.087 . S
C713 N158 1.705 . S
C728 C329 1.695 . S
C763 N145 1.553 . S
C778 C289 1.538 1_556 S
C828 C317 0.697 . S
C813 N119 0.697 . S
C863 N131 1.891 . S
C878 C249 1.919 . S
C928 C256 1.835 1_556 S
C913 N144 1.823 . S
C978 C296 1.702 . S
C963 N118 1.704 . S
C1013 N132 1.570 . S
C1028 C316 1.581 . S
C1063 N171 1.458 . S
C1078 C276 1.459 . S
C1113 N183 1.279 . S
C1128 C336 1.289 . S
C1178 C236 1.443 . S
C1163 N157 1.456 . S
C1228 C357 2.255 . S
C1213 N14 2.210 . S
C1263 N28 1.087 . S
C1278 C397 1.086 . S
C1313 N2 1.704 . S
C1328 C449 1.695 . S
C1363 N223 1.554 . S
C1378 C409 1.539 . S
C1413 N197 0.697 . S
C1428 C437 0.697 . S
C1463 N209 1.891 . S
C1478 C369 1.919 . S
C1513 N222 1.824 . S
C1528 C376 1.835 . S
C1563 N196 1.704 . S
C1578 C416 1.702 . S
C1628 C436 1.580 . S
C1613 N210 1.570 . S
C1663 N15 1.458 . S
C1678 C396 1.459 . S
C1728 C456 1.289 . S
C1713 N27 1.279 . S
C1763 N1 1.455 . S
C1778 C356 1.444 . S
C1828 C477 2.255 . S
C1813 N92 2.210 . S
C1863 N106 1.088 . S
C1878 C517 1.087 . S
C1928 C569 1.695 . S
C1913 N80 1.704 . S
C1978 C529 1.538 . S
C1963 N67 1.553 . S
C2028 C557 0.697 . S
C2013 N41 0.697 . S
C2063 N53 1.891 . S
C2078 C489 1.919 . S
C2113 N66 1.824 . S
C2128 C496 1.835 . S
C2163 N40 1.704 . S
C2178 C536 1.702 . S
C2228 C556 1.581 . S
C2213 N54 1.570 . S
C2263 N93 1.457 . S
C2278 C516 1.458 . S
C2313 N105 1.280 . S
C2328 C576 1.289 . S
C2363 N79 1.455 . S
C2378 C476 1.443 . S
C2413 N200 0.866 . S
C2428 C260 0.868 . S
C2478 C300 2.151 . S
C2463 N213 2.131 . S
C2513 N226 1.581 . S
C2528 C323 1.589 . S
C2563 N83 1.848 . S
C2578 C283 1.838 . S
C2613 N96 1.907 . S
C2628 C340 1.943 . S
C2678 C243 1.001 . S
C2663 N109 1.006 . S
C2713 N44 0.865 . S
C2728 C380 0.868 . S
C2763 N57 2.131 . S
C2778 C420 2.151 . S
C2813 N70 1.581 . S
C2828 C443 1.590 . S
C2863 N161 1.848 . S
C2878 C403 1.838 . S
C2928 C460 1.943 . S
C2913 N174 1.908 . S
C2963 N187 1.007 . S
C2978 C363 1.000 . S
C3013 N122 0.866 . S
C3028 C500 0.868 . S
C3063 N135 2.131 . S
C3078 C540 2.151 . S
C3128 C563 1.590 . S
C3113 N148 1.581 . S
C3163 N5 1.848 . S
C3178 C523 1.838 . S
C3213 N18 1.908 . S
C3228 C580 1.943 . S
C3263 N31 1.006 . S
C3278 C483 1.001 . S
