# Generated by pormake.
# Topology zzz, (3,6)-cn, num edge types: 1
# Building blocks:
#     Node 0, Type 0, BuildingBlock: BETDAH_clean_linker_0, # of connection points: 3
#     Node 1, Type 0, BuildingBlock: BETDAH_clean_linker_0, # of connection points: 3
#     Node 2, Type 0, BuildingBlock: BETDAH_clean_linker_0, # of connection points: 3
#     Node 3, Type 0, BuildingBlock: BETDAH_clean_linker_0, # of connection points: 3
#     Node 4, Type 0, BuildingBlock: BETDAH_clean_linker_0, # of connection points: 3
#     Node 5, Type 0, BuildingBlock: BETDAH_clean_linker_0, # of connection points: 3
#     Node 6, Type 0, BuildingBlock: BETDAH_clean_linker_0, # of connection points: 3
#     Node 7, Type 0, BuildingBlock: BETDAH_clean_linker_0, # of connection points: 3
#     Node 8, Type 1, BuildingBlock: BETFEN_clean_sbu_0, # of connection points: 6
#     Node 9, Type 1, BuildingBlock: BETFEN_clean_sbu_0, # of connection points: 6
#     Node 10, Type 1, BuildingBlock: BETFEN_clean_sbu_0, # of connection points: 6
#     Node 11, Type 1, BuildingBlock: BETFEN_clean_sbu_0, # of connection points: 6
#     Edge 12, Type (0, 1), BuildingBlock: UVAHIK_clean_linker_0, # of connection points: 2
#     Edge 13, Type (0, 1), BuildingBlock: UVAHIK_clean_linker_0, # of connection points: 2
#     Edge 14, Type (0, 1), BuildingBlock: UVAHIK_clean_linker_0, # of connection points: 2
#     Edge 15, Type (0, 1), BuildingBlock: UVAHIK_clean_linker_0, # of connection points: 2
#     Edge 16, Type (0, 1), BuildingBlock: UVAHIK_clean_linker_0, # of connection points: 2
#     Edge 17, Type (0, 1), BuildingBlock: UVAHIK_clean_linker_0, # of connection points: 2
#     Edge 18, Type (0, 1), BuildingBlock: UVAHIK_clean_linker_0, # of connection points: 2
#     Edge 19, Type (0, 1), BuildingBlock: UVAHIK_clean_linker_0, # of connection points: 2
#     Edge 20, Type (0, 1), BuildingBlock: UVAHIK_clean_linker_0, # of connection points: 2
#     Edge 21, Type (0, 1), BuildingBlock: UVAHIK_clean_linker_0, # of connection points: 2
#     Edge 22, Type (0, 1), BuildingBlock: UVAHIK_clean_linker_0, # of connection points: 2
#     Edge 23, Type (0, 1), BuildingBlock: UVAHIK_clean_linker_0, # of connection points: 2
#     Edge 24, Type (0, 1), BuildingBlock: UVAHIK_clean_linker_0, # of connection points: 2
#     Edge 25, Type (0, 1), BuildingBlock: UVAHIK_clean_linker_0, # of connection points: 2
#     Edge 26, Type (0, 1), BuildingBlock: UVAHIK_clean_linker_0, # of connection points: 2
#     Edge 27, Type (0, 1), BuildingBlock: UVAHIK_clean_linker_0, # of connection points: 2
#     Edge 28, Type (0, 1), BuildingBlock: UVAHIK_clean_linker_0, # of connection points: 2
#     Edge 29, Type (0, 1), BuildingBlock: UVAHIK_clean_linker_0, # of connection points: 2
#     Edge 30, Type (0, 1), BuildingBlock: UVAHIK_clean_linker_0, # of connection points: 2
#     Edge 31, Type (0, 1), BuildingBlock: UVAHIK_clean_linker_0, # of connection points: 2
#     Edge 32, Type (0, 1), BuildingBlock: UVAHIK_clean_linker_0, # of connection points: 2
#     Edge 33, Type (0, 1), BuildingBlock: UVAHIK_clean_linker_0, # of connection points: 2
#     Edge 34, Type (0, 1), BuildingBlock: UVAHIK_clean_linker_0, # of connection points: 2
#     Edge 35, Type (0, 1), BuildingBlock: UVAHIK_clean_linker_0, # of connection points: 2
# Relax obj value: 0.233
# Max RMSD: 0.177
# Mean RMSD: 0.160
data_MOF--net-zzz--node1-BETFEN_clean_sbu_0--node2-BETDAH_clean_linker_0--edge1-UVAHIK_clean_linker_0
_symmetry_space_group_name_H-M    P1
_symmetry_Int_Tables_number       1
_symmetry_cell_setting            triclinic
loop_
_symmetry_equiv_pos_as_xyz
'x, y, z'
_cell_length_a     68.568631
_cell_length_b     68.544008
_cell_length_c     17.237139
_cell_angle_alpha  89.994157
_cell_angle_beta   89.943467
_cell_angle_gamma 90.01914
loop_
_atom_site_label
_atom_site_type_symbol
_atom_site_fract_x
_atom_site_fract_y
_atom_site_fract_z
_atom_type_partial_charge
H0 H 0.79273 0.50412 0.24065 0.0
H1 H 0.7319 0.51121 0.19105 0.0
H2 H 0.75712 0.53858 0.39341 0.0
C3 C 0.77858 0.50999 0.25655 0.0
C4 C 0.77698 0.52188 0.32223 0.0
C5 C 0.7624 0.506 0.20964 0.0
C6 C 0.74426 0.51409 0.22846 0.0
C7 C 0.74217 0.52571 0.29556 0.0
C8 C 0.75858 0.52938 0.34262 0.0
N9 N 0.72392 0.53415 0.31617 0.0
C10 C 0.70732 0.53297 0.26981 0.0
H11 H 0.03757 0.78354 0.32568 0.0
H12 H 0.02383 0.72855 0.22113 0.0
H13 H 0.99067 0.749 0.4183 0.0
C14 C 0.02915 0.77013 0.32631 0.0
C15 C 0.01398 0.76795 0.37998 0.0
C16 C 0.03266 0.75607 0.26911 0.0
C17 C 0.0212 0.73917 0.26645 0.0
C18 C 1.00623 0.73631 0.32154 0.0
C19 C 1.0025 0.75093 0.37726 0.0
N20 N 0.99444 0.7192 0.32149 0.0
C21 C 0.99688 0.70365 0.27027 0.0
H22 H 0.72089 0.00818 0.23381 0.0
H23 H 0.7814 0.99679 0.19325 0.0
H24 H 0.75962 1.00138 0.42798 0.0
C25 C 0.7355 1.00613 0.2566 0.0
C26 C 0.73832 1.0055 0.33698 0.0
C27 C 0.75093 1.00284 0.20504 0.0
C28 C 0.76966 0.99944 0.23387 0.0
C29 C 0.77304 0.99928 0.31455 0.0
C30 C 0.7572 1.00192 0.36591 0.0
N31 N 0.7921 0.99631 0.34516 0.0
C32 C 0.80879 0.99514 0.29896 0.0
H33 H 0.47434 0.73276 0.30998 0.0
H34 H 0.48787 0.78697 0.19863 0.0
H35 H 0.52277 0.76691 0.3913 0.0
C36 C 0.48295 0.74604 0.30813 0.0
C37 C 0.49874 0.74821 0.35882 0.0
C38 C 0.47906 0.75987 0.25044 0.0
C39 C 0.49077 0.77655 0.24441 0.0
C40 C 0.50637 0.77941 0.29652 0.0
C41 C 0.51046 0.76501 0.35266 0.0
N42 N 0.51845 0.79629 0.29282 0.0
C43 C 0.51554 0.81175 0.24154 0.0
H44 H 0.22637 0.53202 0.13199 0.0
H45 H 0.28644 0.52732 0.19896 0.0
H46 H 0.26392 0.49224 0.01093 0.0
C47 C 0.24079 0.52592 0.12284 0.0
C48 C 0.24332 0.5117 0.0656 0.0
C49 C 0.25627 0.53173 0.17064 0.0
C50 C 0.27461 0.52301 0.1611 0.0
C51 C 0.27755 0.5088 0.10298 0.0
C52 C 0.26185 0.50338 0.05474 0.0
N53 N 0.29589 0.49938 0.09312 0.0
C54 C 0.31158 0.50169 0.14367 0.0
H55 H 1.00624 0.22394 0.16144 0.0
H56 H 0.017 0.28466 0.20056 0.0
H57 H 0.01224 0.26258 0.96638 0.0
C58 C 0.00809 0.23855 0.13832 0.0
C59 C 0.00855 0.24131 0.05789 0.0
C60 C 0.01127 0.25408 0.18951 0.0
C61 C 0.01442 0.27283 0.16025 0.0
C62 C 0.01438 0.27614 0.07949 0.0
C63 C 0.01185 0.26021 0.02851 0.0
N64 N 0.01703 0.29522 0.04835 0.0
C65 C 0.0181 0.31198 0.09407 0.0
H66 H 0.28248 0.97527 0.08439 0.0
H67 H 0.22861 0.98884 0.19823 0.0
H68 H 0.24841 0.02405 0.00573 0.0
C69 C 0.26926 0.98395 0.08698 0.0
C70 C 0.26707 0.99986 0.03678 0.0
C71 C 0.25553 0.98001 0.14507 0.0
C72 C 0.23894 0.99179 0.15214 0.0
C73 C 0.23606 0.00752 0.10063 0.0
C74 C 0.25035 0.01165 0.04398 0.0
N75 N 0.21927 0.01969 0.10541 0.0
C76 C 0.20391 0.01676 0.15719 0.0
H77 H 0.50822 0.29405 0.16061 0.0
H78 H 0.49668 0.23355 0.20159 0.0
H79 H 0.501 0.25524 0.96674 0.0
C80 C 0.50612 0.27942 0.13794 0.0
C81 C 0.50536 0.27657 0.05757 0.0
C82 C 0.50283 0.26401 0.18964 0.0
C83 C 0.49932 0.24528 0.16088 0.0
C84 C 0.49901 0.24186 0.08024 0.0
C85 C 0.50166 0.25769 0.02878 0.0
N86 N 0.49586 0.2228 0.04979 0.0
C87 C 0.49448 0.20617 0.0962 0.0
Pr88 Pr 0.01551 0.99601 0.81454 0.0
Pr89 Pr 0.99744 0.00935 0.65149 0.0
C90 C 0.02107 0.97945 0.95323 0.0
C91 C 0.0318 0.96153 0.97209 0.0
C92 C 0.03859 0.95799 0.04733 0.0
C93 C 0.04866 0.94071 0.06393 0.0
C94 C 0.05198 0.92669 0.00547 0.0
C95 C 0.04542 0.93062 0.92981 0.0
C96 C 0.03559 0.9479 0.91327 0.0
C97 C 0.04548 0.99887 0.70293 0.0
C98 C 1.00339 0.96259 0.67846 0.0
C99 C 0.9917 0.02898 0.5195 0.0
C100 C 1.00004 0.04807 0.49972 0.0
C101 C 0.98964 0.06129 0.45369 0.0
C102 C 0.99606 0.0806 0.44687 0.0
C103 C 0.01276 0.08692 0.48711 0.0
C104 C 0.0235 0.07345 0.53081 0.0
C105 C 0.01726 0.05416 0.5367 0.0
C106 C 0.97054 0.9992 0.76608 0.0
C107 C 0.01109 0.04309 0.78389 0.0
O108 O 1.00513 0.97683 0.91247 0.0
O109 O 0.0318 0.99401 0.92843 0.0
O110 O 0.02761 1.00207 0.69389 0.0
O111 O 0.04859 0.99387 0.77438 0.0
O112 O 1.00187 0.97632 0.62489 0.0
O113 O 1.00601 0.96676 0.75281 0.0
O114 O 1.00422 0.0146 0.5248 0.0
O115 O 0.97916 0.02937 0.5768 0.0
O116 O 0.98602 0.00884 0.77684 0.0
O117 O 0.96801 0.99524 0.69278 0.0
O118 O 0.01284 0.02953 0.83808 0.0
O119 O 0.00771 0.03864 0.7104 0.0
H120 H 0.03603 0.96849 0.09316 0.0
H121 H 0.05376 0.9383 0.12258 0.0
H122 H 0.04735 0.92011 0.88354 0.0
H123 H 0.0307 0.9505 0.85447 0.0
H124 H 0.9762 0.05691 0.42569 0.0
H125 H 0.98749 0.0908 0.41313 0.0
H126 H 0.03649 0.07794 0.56177 0.0
H127 H 0.02547 0.04422 0.57296 0.0
Pr128 Pr 0.50684 0.01829 0.74705 0.0
Pr129 Pr 0.4933 0.99992 0.58518 0.0
C130 C 0.5266 0.02421 0.87853 0.0
C131 C 0.54555 0.01561 0.89832 0.0
C132 C 0.55899 0.02591 0.94362 0.0
C133 C 0.5782 0.01922 0.95011 0.0
C134 C 0.58419 1.00233 0.91024 0.0
C135 C 0.57049 0.99168 0.86735 0.0
C136 C 0.55131 0.9982 0.86181 0.0
C137 C 0.49664 0.04507 0.63228 0.0
C138 C 0.5404 1.00437 0.61468 0.0
C139 C 0.4769 0.99384 0.44659 0.0
C140 C 0.4594 0.98246 0.42763 0.0
C141 C 0.45623 0.97543 0.35245 0.0
C142 C 0.43942 0.96461 0.3358 0.0
C143 C 0.42551 0.96075 0.39417 0.0
C144 C 0.42907 0.96757 0.46976 0.0
C145 C 0.44588 0.97818 0.48635 0.0
C146 C 0.49641 0.97009 0.6971 0.0
C147 C 0.46006 0.01204 0.72195 0.0
O148 O 0.51201 0.0119 0.87407 0.0
O149 O 0.52716 0.03655 0.82061 0.0
O150 O 0.50617 0.02953 0.62131 0.0
O151 O 0.49279 0.0477 0.70563 0.0
O152 O 0.52677 1.00268 0.56083 0.0
O153 O 0.53605 0.00777 0.68823 0.0
O154 O 0.47372 0.00967 0.48757 0.0
O155 O 0.49182 0.98361 0.47119 0.0
O156 O 0.4996 0.98799 0.70582 0.0
O157 O 0.4913 0.96688 0.62587 0.0
O158 O 0.47391 0.01373 0.77479 0.0
O159 O 0.46404 0.00934 0.64743 0.0
H160 H 0.55487 0.0395 0.97124 0.0
H161 H 0.58859 0.02772 0.98321 0.0
H162 H 0.57473 0.97855 0.83667 0.0
H163 H 0.54119 0.99006 0.82606 0.0
H164 H 0.46668 0.97837 0.30674 0.0
H165 H 0.43728 0.95935 0.27719 0.0
H166 H 0.4186 0.96523 0.51591 0.0
H167 H 0.4482 0.98327 0.54511 0.0
Pr168 Pr 0.49929 0.52122 0.80284 0.0
Pr169 Pr 0.51668 0.50748 0.63835 0.0
C170 C 0.49404 0.53792 0.94148 0.0
C171 C 0.4829 0.55554 0.96097 0.0
C172 C 0.47604 0.55876 0.03641 0.0
C173 C 0.46539 0.57566 0.05354 0.0
C174 C 0.46153 0.58961 0.99538 0.0
C175 C 0.46818 0.58602 0.91955 0.0
C176 C 0.47862 0.56912 0.90249 0.0
C177 C 0.46895 0.51783 0.69322 0.0
C178 C 0.51053 0.5543 0.66426 0.0
C179 C 0.52169 0.48754 0.5067 0.0
C180 C 0.51285 0.4686 0.48853 0.0
C181 C 0.52275 0.455 0.44244 0.0
C182 C 0.51596 0.43578 0.43765 0.0
C183 C 0.49939 0.42994 0.48001 0.0
C184 C 0.48913 0.44379 0.52367 0.0
C185 C 0.49573 0.46297 0.52753 0.0
C186 C 0.54404 0.51844 0.74948 0.0
C187 C 0.5039 0.47409 0.7737 0.0
O188 O 0.50967 0.54092 0.89908 0.0
O189 O 0.48359 0.52301 0.91819 0.0
O190 O 0.48681 0.51473 0.68361 0.0
O191 O 0.466 0.52301 0.76458 0.0
O192 O 0.51183 0.54044 0.61114 0.0
O193 O 0.50831 0.55035 0.73904 0.0
O194 O 0.5095 0.5022 0.51208 0.0
O195 O 0.53441 0.48704 0.56326 0.0
O196 O 0.52873 0.50869 0.76262 0.0
O197 O 0.54621 0.52192 0.67559 0.0
O198 O 0.50242 0.4878 0.8274 0.0
O199 O 0.50684 0.47832 0.69967 0.0
H200 H 0.47897 0.54828 0.08196 0.0
H201 H 0.46026 0.57782 0.11233 0.0
H202 H 0.46584 0.59651 0.87353 0.0
H203 H 0.48355 0.56676 0.84354 0.0
H204 H 0.53612 0.45901 0.41293 0.0
H205 H 0.52417 0.42527 0.40393 0.0
H206 H 0.47626 0.43966 0.55629 0.0
H207 H 0.48792 0.47321 0.56395 0.0
Pr208 Pr 1.00372 0.49677 0.75251 0.0
Pr209 Pr 0.01893 0.51822 0.60408 0.0
C210 C 0.98236 0.48333 0.87173 0.0
C211 C 0.9611 0.48072 0.88025 0.0
C212 C 0.95347 0.46204 0.89423 0.0
C213 C 0.93336 0.45877 0.89092 0.0
C214 C 0.9205 0.47414 0.87359 0.0
C215 C 0.92815 0.49296 0.8623 0.0
C216 C 0.94823 0.49622 0.86537 0.0
C217 C 0.01519 0.4727 0.63038 0.0
C218 C 0.97156 0.51467 0.62142 0.0
C219 C 0.03922 0.52476 0.47444 0.0
C220 C 0.05924 0.5327 0.46688 0.0
C221 C 0.06225 0.55232 0.44632 0.0
C222 C 0.08088 0.56063 0.4513 0.0
C223 C 0.09679 0.54946 0.47722 0.0
C224 C 0.09388 0.52966 0.49463 0.0
C225 C 0.07538 0.52137 0.48934 0.0
C226 C 0.01567 0.54617 0.72228 0.0
C227 C 0.05023 0.5049 0.74517 0.0
O228 O 0.98892 0.50127 0.86866 0.0
O229 O 0.99064 0.47185 0.82101 0.0
O230 O 1.00515 0.48808 0.62351 0.0
O231 O 0.01986 0.46946 0.7023 0.0
O232 O 0.98585 0.51873 0.5725 0.0
O233 O 0.97492 0.50761 0.69165 0.0
O234 O 0.03782 0.50741 0.5061 0.0
O235 O 0.02583 0.53695 0.49916 0.0
O236 O 0.01174 0.52826 0.72833 0.0
O237 O 0.02115 0.55021 0.65211 0.0
O238 O 0.03555 0.50227 0.7937 0.0
O239 O 0.04734 0.50835 0.67052 0.0
H240 H 0.96313 0.44984 0.90512 0.0
H241 H 0.92794 0.44409 0.89974 0.0
H242 H 0.91863 0.50521 0.85053 0.0
H243 H 0.95364 0.51078 0.85377 0.0
H244 H 0.05011 0.56142 0.42888 0.0
H245 H 0.08272 0.57591 0.43706 0.0
H246 H 0.10593 0.52052 0.51272 0.0
H247 H 0.07371 0.50617 0.50533 0.0
C248 C 0.16862 0.01883 0.18453 0.0
C249 C 0.18755 0.01436 0.20944 0.0
C250 C 0.15276 0.01684 0.23523 0.0
C251 C 0.13761 0.99247 0.41817 0.0
H252 H 0.09691 0.03174 0.42032 0.0
C253 C 0.08029 0.99604 0.66256 0.0
C254 C 0.06093 1.00055 0.64311 0.0
C255 C 0.09517 0.99746 0.60733 0.0
C256 C 0.108 0.0205 0.41981 0.0
H257 H 0.20503 1.00438 0.30588 0.0
H258 H 0.1774 1.00098 0.39511 0.0
H259 H 0.12398 0.03469 0.329 0.0
H260 H 0.04196 0.01013 0.55045 0.0
H261 H 0.06795 0.01256 0.45321 0.0
H262 H 0.12173 0.97833 0.50913 0.0
C263 C 0.17463 1.00579 0.3363 0.0
C264 C 0.12356 0.02219 0.3674 0.0
C265 C 0.19048 0.00781 0.28551 0.0
C266 C 0.05674 1.00659 0.56708 0.0
C267 C 0.07167 0.00806 0.51158 0.0
C268 C 0.12208 0.99078 0.47048 0.0
C269 C 0.15554 0.0103 0.31189 0.0
C270 C 0.13867 0.00827 0.36627 0.0
C271 C 0.09109 1.00343 0.53098 0.0
C272 C 0.10714 1.00485 0.47255 0.0
H273 H 0.16609 0.0239 0.12584 0.0
H274 H 0.13829 0.02022 0.21404 0.0
H275 H 0.14874 0.98126 0.41801 0.0
H276 H 0.08402 0.99142 0.7208 0.0
H277 H 0.10995 0.9941 0.62491 0.0
C278 C 0.48381 0.19043 0.21799 0.0
C279 C 0.4934 0.18926 0.14634 0.0
C280 C 0.48325 0.17427 0.26769 0.0
C281 C 0.50845 0.1273 0.30772 0.0
H282 H 0.46232 0.11657 0.43081 0.0
C283 C 0.50181 0.05789 0.49745 0.0
C284 C 0.49423 0.06044 0.57254 0.0
C285 C 0.50081 0.07299 0.44281 0.0
C286 C 0.47538 0.11944 0.3973 0.0
H287 H 0.50975 0.17052 0.06924 0.0
H288 H 0.50855 0.14207 0.15514 0.0
H289 H 0.46236 0.14398 0.3406 0.0
H290 H 0.47916 0.08061 0.64855 0.0
H291 H 0.47741 0.10695 0.5534 0.0
H292 H 0.52147 0.10275 0.36451 0.0
C293 C 0.50171 0.15549 0.17401 0.0
C294 C 0.47542 0.13521 0.34557 0.0
C295 C 0.50229 0.1717 0.12449 0.0
C296 C 0.48514 0.0782 0.59115 0.0
C297 C 0.48406 0.09327 0.53643 0.0
C298 C 0.50838 0.1115 0.35923 0.0
C299 C 0.49225 0.15656 0.24655 0.0
C300 C 0.492 0.13943 0.30032 0.0
C301 C 0.4921 0.09096 0.46183 0.0
C302 C 0.49188 0.10741 0.40502 0.0
H303 H 0.47687 0.2039 0.23595 0.0
H304 H 0.47608 0.17579 0.32335 0.0
H305 H 0.52161 0.13025 0.27496 0.0
H306 H 0.50884 0.04432 0.48127 0.0
H307 H 0.5069 0.07058 0.3856 0.0
C308 C 0.32457 0.50886 0.2741 0.0
C309 C 0.32782 0.50369 0.19655 0.0
C310 C 0.34026 0.51061 0.32557 0.0
C311 C 0.39166 0.49545 0.35443 0.0
H312 H 0.39203 0.53763 0.50417 0.0
C313 C 0.45777 0.51067 0.5571 0.0
C314 C 0.45346 0.51601 0.63386 0.0
C315 C 0.44288 0.50925 0.50162 0.0
C316 C 0.39208 0.52563 0.46333 0.0
H317 H 0.34968 0.49622 0.1111 0.0
H318 H 0.37724 0.49936 0.20076 0.0
H319 H 0.36528 0.53503 0.41196 0.0
H320 H 0.43019 0.52386 0.71302 0.0
H321 H 0.40428 0.5212 0.61713 0.0
H322 H 0.41844 0.48598 0.40627 0.0
C323 C 0.36263 0.50192 0.22237 0.0
C324 C 0.37671 0.52414 0.41035 0.0
C325 C 0.34691 0.50023 0.17091 0.0
C326 C 0.43399 0.5198 0.65418 0.0
C327 C 0.41914 0.5184 0.59898 0.0
C328 C 0.40704 0.49691 0.40758 0.0
C329 C 0.35952 0.50716 0.30042 0.0
C330 C 0.37621 0.50896 0.35551 0.0
C331 C 0.42336 0.51319 0.52181 0.0
C332 C 0.40739 0.51194 0.46316 0.0
H333 H 0.3099 0.51145 0.29508 0.0
H334 H 0.33727 0.51438 0.38542 0.0
H335 H 0.39165 0.48343 0.31362 0.0
H336 H 0.47263 0.50773 0.53979 0.0
H337 H 0.44671 0.50537 0.44265 0.0
C338 C 0.02934 0.32863 0.21293 0.0
C339 C 0.01892 0.3291 0.1431 0.0
C340 C 0.0298 0.34502 0.2614 0.0
C341 C 1.0032 0.39103 0.30395 0.0
H342 H 0.05043 0.40416 0.41592 0.0
C343 C 0.00884 0.46043 0.49531 0.0
C344 C 0.01763 0.45795 0.56826 0.0
C345 C 0.00988 0.44563 0.43924 0.0
C346 C 0.03707 0.40063 0.38552 0.0
H347 H 1.00093 0.3468 0.06805 0.0
H348 H 1.00187 0.37565 0.15193 0.0
H349 H 0.05042 0.37658 0.32662 0.0
H350 H 0.03487 0.4383 0.63882 0.0
H351 H 0.03669 0.41257 0.54149 0.0
H352 H 0.98984 0.41503 0.36326 0.0
C353 C 0.0095 0.36261 0.17024 0.0
C354 C 0.03705 0.38476 0.33433 0.0
C355 C 0.00904 0.34617 0.12191 0.0
C356 C 0.02795 0.44065 0.58313 0.0
C357 C 0.02907 0.42592 0.5271 0.0
C358 C 1.00324 0.40693 0.35503 0.0
C359 C 0.01985 0.36225 0.24084 0.0
C360 C 0.02007 0.37962 0.29331 0.0
C361 C 0.01985 0.42809 0.45473 0.0
C362 C 0.02013 0.41184 0.39704 0.0
H363 H 0.03702 0.31553 0.23039 0.0
H364 H 0.03767 0.34406 0.31569 0.0
H365 H 0.98977 0.38738 0.27433 0.0
H366 H 1.00082 0.47363 0.48209 0.0
H367 H 1.00283 0.44791 0.38379 0.0
C368 C 0.82488 0.98467 0.17765 0.0
C369 C 0.82579 0.9943 0.24924 0.0
C370 C 0.84114 0.98432 0.1284 0.0
C371 C 0.88783 0.01015 0.08934 0.0
H372 H 0.8994 0.96406 0.96731 0.0
C373 C 0.95755 1.00439 0.90068 0.0
C374 C 0.95517 0.99667 0.82574 0.0
C375 C 0.94242 1.00322 0.95518 0.0
C376 C 0.8963 0.97711 0.00052 0.0
H377 H 0.84416 0.01093 0.32671 0.0
H378 H 0.87278 0.01011 0.24158 0.0
H379 H 0.87185 0.96377 0.05686 0.0
H380 H 0.93529 0.98122 0.74986 0.0
H381 H 0.9089 0.97919 0.84471 0.0
H382 H 0.91228 0.02348 0.03287 0.0
C383 C 0.85949 1.00307 0.22242 0.0
C384 C 0.88045 0.97696 0.05187 0.0
C385 C 0.84318 1.00345 0.27148 0.0
C386 C 0.93756 0.9873 0.80714 0.0
C387 C 0.92246 0.98606 0.8617 0.0
C388 C 0.90371 0.01027 0.03819 0.0
C389 C 0.85868 0.99357 0.14996 0.0
C390 C 0.87591 0.99352 0.0967 0.0
C391 C 0.9246 0.99421 0.93615 0.0
C392 C 0.9081 0.99379 0.99276 0.0
H393 H 0.81154 0.97755 0.15939 0.0
H394 H 0.83982 0.97711 0.07278 0.0
H395 H 0.88464 0.02329 0.12181 0.0
H396 H 0.97099 0.01163 0.91683 0.0
H397 H 0.94468 0.0094 0.01229 0.0
C398 C 0.50663 0.82522 0.11342 0.0
C399 C 0.51306 0.82814 0.18963 0.0
C400 C 0.50448 0.8411 0.06297 0.0
C401 C 0.52032 0.89238 0.03292 0.0
H402 H 0.4765 0.8938 0.89114 0.0
C403 C 0.50415 0.95902 0.8331 0.0
C404 C 0.49824 0.95471 0.75703 0.0
C405 C 0.50574 0.94414 0.8887 0.0
C406 C 0.48894 0.89357 0.92982 0.0
H407 H 0.52227 0.84962 0.27383 0.0
H408 H 0.51839 0.87749 0.18616 0.0
H409 H 0.47966 0.86679 0.98204 0.0
H410 H 0.48945 0.93146 0.67938 0.0
H411 H 0.49233 0.90561 0.77543 0.0
H412 H 0.52962 0.91916 0.9802 0.0
C413 C 0.51519 0.863 0.16464 0.0
C414 C 0.49076 0.87804 0.98199 0.0
C415 C 0.51731 0.84709 0.21502 0.0
C416 C 0.49397 0.93527 0.73764 0.0
C417 C 0.4955 0.92045 0.79296 0.0
C418 C 0.51849 0.90794 0.98063 0.0
C419 C 0.50875 0.86022 0.08786 0.0
C420 C 0.50656 0.87713 0.03384 0.0
C421 C 0.50134 0.92465 0.86935 0.0
C422 C 0.50287 0.90864 0.92785 0.0
H423 H 0.50338 0.81065 0.0927 0.0
H424 H 0.49977 0.83835 0.00404 0.0
H425 H 0.5328 0.89208 0.07135 0.0
H426 H 0.50749 0.97387 0.84968 0.0
H427 H 0.51014 0.94794 0.94709 0.0
C428 C 0.69146 0.53861 0.14356 0.0
C429 C 0.69036 0.53197 0.22026 0.0
C430 C 0.67504 0.53781 0.09542 0.0
C431 C 0.62736 0.51308 0.07239 0.0
H432 H 0.61644 0.55614 0.93317 0.0
C433 C 0.55732 0.51548 0.88462 0.0
C434 C 0.55958 0.52178 0.80756 0.0
C435 C 0.5726 0.51755 0.93797 0.0
C436 C 0.61936 0.5439 0.97115 0.0
H437 H 0.67165 0.51924 0.30769 0.0
H438 H 0.64281 0.51787 0.22388 0.0
H439 H 0.64448 0.55785 0.01971 0.0
H440 H 0.57941 0.53555 0.72636 0.0
H441 H 0.60606 0.53899 0.81877 0.0
H442 H 0.60235 0.49903 0.02328 0.0
C443 C 0.65631 0.52356 0.20032 0.0
C444 C 0.63547 0.54488 0.02081 0.0
C445 C 0.67274 0.52442 0.24844 0.0
C446 C 0.57723 0.53057 0.78538 0.0
C447 C 0.59248 0.53264 0.83859 0.0
C448 C 0.61126 0.51208 0.02261 0.0
C449 C 0.65723 0.5303 0.12318 0.0
C450 C 0.63976 0.52944 0.07174 0.0
C451 C 0.59046 0.52599 0.91543 0.0
C452 C 0.60711 0.52742 0.97092 0.0
H453 H 0.70501 0.5444 0.12078 0.0
H454 H 0.67638 0.54285 0.03611 0.0
H455 H 0.63035 0.50081 0.1101 0.0
H456 H 0.54385 0.50872 0.90348 0.0
H457 H 0.5704 0.51253 0.9969 0.0
C458 C 1.0044 0.69008 0.14093 0.0
C459 C 0.99879 0.6872 0.2182 0.0
C460 C 1.00579 0.67421 0.09008 0.0
C461 C 0.01021 0.62013 0.08431 0.0
H462 H 0.99263 0.62697 0.87241 0.0
C463 C 0.00685 0.5565 0.85857 0.0
C464 C 0.01336 0.56117 0.7835 0.0
C465 C 1.0045 0.57123 0.91459 0.0
C466 C 0.99776 0.62483 0.93121 0.0
H467 H 0.99025 0.6658 0.30391 0.0
H468 H 0.99247 0.63796 0.21509 0.0
H469 H 0.98988 0.65389 0.96374 0.0
H470 H 0.02279 0.58479 0.70865 0.0
H471 H 0.01883 0.61021 0.80549 0.0
H472 H 0.01812 0.591 0.0512 0.0
C473 C 0.99606 0.65237 0.19358 0.0
C474 C 0.99622 0.64031 0.98364 0.0
C475 C 0.99468 0.66828 0.24435 0.0
C476 C 0.01762 0.58071 0.76582 0.0
C477 C 0.01523 0.59534 0.8213 0.0
C478 C 0.01173 0.60458 0.03171 0.0
C479 C 1.00153 0.65513 0.11557 0.0
C480 C 1.00263 0.63828 0.06069 0.0
C481 C 0.00851 0.59087 0.89627 0.0
C482 C 1.00576 0.60683 0.95418 0.0
H483 H 0.00766 0.70461 0.11975 0.0
H484 H 0.01035 0.67688 0.03086 0.0
H485 H 0.01545 0.61807 0.14298 0.0
H486 H 1.00348 0.54154 0.87381 0.0
H487 H 0.99923 0.56729 0.97171 0.0
C488 C 0.0318 0.25052 0.30711 0.0
C489 C 0.01329 0.24962 0.27271 0.0
C490 C 0.03589 0.23914 0.37242 0.0
C491 C 0.01471 0.20107 0.50394 0.0
H492 H 0.05402 0.16849 0.40692 0.0
C493 C 0.02184 0.11757 0.55715 0.0
C494 C 0.01839 0.10772 0.48688 0.0
C495 C 0.02584 0.13757 0.55745 0.0
C496 C 0.04333 0.17755 0.43599 0.0
H497 H 0.98383 0.23881 0.28493 0.0
H498 H 0.99079 0.21908 0.39859 0.0
H499 H 0.05195 0.20276 0.37246 0.0
H500 H 0.01721 0.11069 0.36196 0.0
H501 H 0.02467 0.14556 0.36213 0.0
H502 H 1.00518 0.17515 0.56252 0.0
C503 C 1.00225 0.22839 0.37613 0.0
C504 C 0.04223 0.19728 0.41698 0.0
C505 C 0.99822 0.23963 0.31071 0.0
C506 C 0.01971 0.118 0.4168 0.0
C507 C 0.02413 0.13785 0.41697 0.0
C508 C 0.01596 0.18131 0.52357 0.0
C509 C 0.02149 0.2268 0.40369 0.0
C510 C 0.02709 0.20894 0.44682 0.0
C511 C 0.02698 0.14785 0.48727 0.0
C512 C 0.02951 0.16922 0.48592 0.0
H513 H 0.04363 0.25816 0.2785 0.0
H514 H 0.05078 0.23841 0.3932 0.0
H515 H 1.00302 0.20975 0.52832 0.0
H516 H 0.0209 0.1099 0.61188 0.0
H517 H 0.02788 0.14504 0.61224 0.0
C518 C 0.268 0.97198 0.2754 0.0
C519 C 0.26081 0.96537 0.20405 0.0
C520 C 0.28141 0.96068 0.31657 0.0
C521 C 0.3202 0.92862 0.25197 0.0
H522 H 0.33953 0.94017 0.45802 0.0
C523 C 0.3969 0.95529 0.30646 0.0
C524 C 0.40671 0.95094 0.37584 0.0
C525 C 0.37809 0.9483 0.29345 0.0
C526 C 0.33431 0.93633 0.40074 0.0
H527 H 0.25918 0.94078 0.12582 0.0
H528 H 0.28177 0.92052 0.19977 0.0
H529 H 0.3046 0.94183 0.43239 0.0
H530 H 0.40486 0.93461 0.4836 0.0
H531 H 0.37168 0.92281 0.4614 0.0
H532 H 0.34994 0.92396 0.21959 0.0
C533 C 0.27778 0.93468 0.22268 0.0
C534 C 0.31428 0.93745 0.38586 0.0
C535 C 0.26464 0.94614 0.1808 0.0
C536 C 0.39757 0.93859 0.43019 0.0
C537 C 0.37862 0.93173 0.41744 0.0
C538 C 0.34014 0.92741 0.26697 0.0
C539 C 0.28767 0.94256 0.28703 0.0
C540 C 0.30713 0.93482 0.31007 0.0
C541 C 0.36854 0.93687 0.34961 0.0
C542 C 0.3475 0.93244 0.34018 0.0
H543 H 0.2653 0.98683 0.29407 0.0
H544 H 0.28856 0.96731 0.36596 0.0
H545 H 0.31543 0.92651 0.19273 0.0
H546 H 0.40329 0.96498 0.26383 0.0
H547 H 0.37061 0.95284 0.24117 0.0
C548 C 0.51575 0.27909 0.30995 0.0
C549 C 0.50094 0.26853 0.27291 0.0
C550 C 0.51158 0.28994 0.37629 0.0
C551 C 0.47055 0.31912 0.42197 0.0
H552 H 0.50778 0.3427 0.56273 0.0
C553 C 0.49165 0.39855 0.41348 0.0
C554 C 0.49352 0.40922 0.48238 0.0
C555 C 0.48725 0.3787 0.41607 0.0
C556 C 0.49694 0.33612 0.52527 0.0
H557 H 0.47107 0.25856 0.28135 0.0
H558 H 0.46367 0.27767 0.39754 0.0
H559 H 0.51086 0.30815 0.52924 0.0
H560 H 0.4919 0.40779 0.60781 0.0
H561 H 0.48496 0.37266 0.61234 0.0
H562 H 0.45778 0.3475 0.41235 0.0
C563 C 0.47845 0.27767 0.3753 0.0
C564 C 0.49871 0.31638 0.50603 0.0
C565 C 0.48269 0.26669 0.30905 0.0
C566 C 0.49054 0.3998 0.55396 0.0
C567 C 0.48656 0.37981 0.55664 0.0
C568 C 0.46891 0.33882 0.44063 0.0
C569 C 0.49245 0.29056 0.4058 0.0
C570 C 0.48631 0.30805 0.45017 0.0
C571 C 0.48496 0.36912 0.48763 0.0
C572 C 0.48281 0.34771 0.48856 0.0
H573 H 0.52996 0.28059 0.28303 0.0
H574 H 0.52274 0.29968 0.39812 0.0
H575 H 0.46076 0.31325 0.37855 0.0
H576 H 0.49379 0.40552 0.3577 0.0
H577 H 0.48637 0.37066 0.36206 0.0
C578 C 0.2559 0.53992 0.31195 0.0
C579 C 0.2521 0.54541 0.235 0.0
C580 C 0.24593 0.549 0.37297 0.0
C581 C 0.20547 0.58517 0.41197 0.0
H582 H 0.18267 0.54002 0.51231 0.0
C583 C 0.12852 0.55308 0.54786 0.0
C584 C 0.11657 0.55804 0.48458 0.0
C585 C 0.14818 0.55841 0.54863 0.0
C586 C 0.189 0.55301 0.48688 0.0
H587 H 0.23764 0.56662 0.16202 0.0
H588 H 0.21986 0.58194 0.26669 0.0
H589 H 0.21499 0.53773 0.45851 0.0
H590 H 0.11541 0.57384 0.37582 0.0
H591 H 0.14972 0.58297 0.3766 0.0
H592 H 0.17837 0.59974 0.43453 0.0
C593 C 0.23041 0.5708 0.2815 0.0
C594 C 0.20774 0.55174 0.45598 0.0
C595 C 0.24049 0.56188 0.22092 0.0
C596 C 0.12425 0.56983 0.42536 0.0
C597 C 0.14392 0.57515 0.42612 0.0
C598 C 0.18656 0.58637 0.44222 0.0
C599 C 0.23185 0.56346 0.35757 0.0
C600 C 0.21573 0.56738 0.41358 0.0
C601 C 0.15628 0.5688 0.48616 0.0
C602 C 0.17775 0.5699 0.47589 0.0
H603 H 0.26498 0.52738 0.32446 0.0
H604 H 0.24791 0.54342 0.43121 0.0
H605 H 0.21139 0.59772 0.38187 0.0
H606 H 0.12286 0.5444 0.59535 0.0
H607 H 0.15728 0.55354 0.5962 0.0
C608 C 0.03898 0.76828 0.13689 0.0
C609 C 0.04651 0.7612 0.20697 0.0
C610 C 0.04969 0.7817 0.09316 0.0
C611 C 0.08215 0.82079 0.15037 0.0
H612 H 0.06911 0.83949 0.94474 0.0
C613 C 0.0564 0.89788 0.09336 0.0
C614 C 0.06099 0.90747 0.02368 0.0
C615 C 0.06278 0.87886 0.10668 0.0
C616 C 0.07333 0.83442 0.00183 0.0
H617 H 0.07204 0.75981 0.28023 0.0
H618 H 0.09122 0.78244 0.20184 0.0
H619 H 0.06736 0.80462 0.9728 0.0
H620 H 0.07707 0.90491 0.91545 0.0
H621 H 0.08772 0.87136 0.93815 0.0
H622 H 0.08721 0.85063 0.18035 0.0
C623 C 0.07683 0.77833 0.18184 0.0
C624 C 0.07219 0.81445 0.01808 0.0
C625 C 0.06598 0.76516 0.22623 0.0
C626 C 0.0729 0.89782 0.96912 0.0
C627 C 0.07911 0.87866 0.98214 0.0
C628 C 0.08333 0.84067 0.13405 0.0
C629 C 0.06812 0.78808 0.11891 0.0
C630 C 0.07548 0.80753 0.09383 0.0
C631 C 0.07381 0.86888 0.05051 0.0
C632 C 0.07785 0.84779 0.06099 0.0
H633 H 0.02392 0.7655 0.12135 0.0
H634 H 0.04244 0.78876 0.04498 0.0
H635 H 0.08473 0.81619 0.20956 0.0
H636 H 0.04701 0.90464 0.13615 0.0
H637 H 0.05814 0.8716 0.1594 0.0
C638 C 0.74745 0.98248 0.08681 0.0
C639 C 0.7464 1.00092 0.12186 0.0
C640 C 0.73616 0.97844 0.02126 0.0
C641 C 0.6981 0.99962 0.89017 0.0
H642 H 0.66554 0.96021 0.98688 0.0
C643 C 0.61455 0.99278 0.83915 0.0
C644 C 0.6049 0.99643 0.90975 0.0
C645 C 0.6345 0.9886 0.83809 0.0
C646 C 0.6746 0.97091 0.95783 0.0
H647 H 0.73543 0.03034 0.11056 0.0
H648 H 0.71585 0.02347 0.99649 0.0
H649 H 0.69983 0.96223 0.02087 0.0
H650 H 0.60818 0.99776 0.03452 0.0
H651 H 0.64296 0.98996 0.03304 0.0
H652 H 0.67216 0.00923 0.83218 0.0
C653 C 0.7252 0.01202 0.01864 0.0
C654 C 0.69433 0.97199 0.97659 0.0
C655 C 0.73635 0.01601 0.08432 0.0
C656 C 0.61532 0.9951 0.97943 0.0
C657 C 0.63512 0.99049 0.97852 0.0
C658 C 0.67833 0.99839 0.87077 0.0
C659 C 0.72376 0.99282 0.99038 0.0
C660 C 0.70597 0.98719 0.94699 0.0
C661 C 0.64491 0.98746 0.90786 0.0
C662 C 0.66625 0.98481 0.90838 0.0
H663 H 0.75515 0.97065 0.11502 0.0
H664 H 0.73553 0.96358 0.99997 0.0
H665 H 0.70677 0.01136 0.86599 0.0
H666 H 0.60676 0.99372 0.78472 0.0
H667 H 0.64181 0.98642 0.78303 0.0
C668 C 0.47151 0.74761 0.11936 0.0
C669 C 0.46464 0.7546 0.19069 0.0
C670 C 0.46051 0.73409 0.07746 0.0
C671 C 0.42899 0.6947 0.14033 0.0
H672 H 0.44094 0.67583 0.93384 0.0
C673 C 0.45625 0.61821 0.08349 0.0
C674 C 0.45183 0.60845 0.01408 0.0
C675 C 0.44927 0.63701 0.09697 0.0
C676 C 0.437 0.68092 0.99123 0.0
H677 H 0.43983 0.75578 0.26805 0.0
H678 H 0.42009 0.73298 0.19287 0.0
H679 H 0.44217 0.71076 0.9605 0.0
H680 H 0.43539 0.61038 0.90668 0.0
H681 H 0.42361 0.64354 0.92969 0.0
H682 H 0.42469 0.66484 0.17184 0.0
C683 C 0.43424 0.73721 0.17052 0.0
C684 C 0.43786 0.70095 0.00669 0.0
C685 C 0.4454 0.75047 0.21311 0.0
C686 C 0.43943 0.61763 0.9601 0.0
C687 C 0.43258 0.63657 0.97332 0.0
C688 C 0.42805 0.67477 0.12477 0.0
C689 C 0.44242 0.72752 0.10626 0.0
C690 C 0.43505 0.70795 0.08262 0.0
C691 C 0.43776 0.64659 0.04125 0.0
C692 C 0.4332 0.66759 0.05137 0.0
H693 H 0.48638 0.75053 0.10131 0.0
H694 H 0.46735 0.72709 0.02815 0.0
H695 H 0.42676 0.69936 0.19967 0.0
H696 H 0.46599 0.6118 0.12583 0.0
H697 H 0.45384 0.64446 0.14933 0.0
C698 C 0.77548 0.47674 0.14269 0.0
C699 C 0.76548 0.49454 0.13815 0.0
C700 C 0.78468 0.46908 0.07738 0.0
C701 C 0.80979 0.49111 0.91519 0.0
H702 H 0.83162 0.43904 0.90283 0.0
C703 C 0.88963 0.4588 0.92255 0.0
C704 C 0.89915 0.47077 0.86828 0.0
C705 C 0.86932 0.45738 0.92294 0.0
C706 C 0.82553 0.45362 0.90463 0.0
H707 H 0.75479 0.51691 0.06051 0.0
H708 H 0.77058 0.50331 0.94522 0.0
H709 H 0.79928 0.44377 0.95938 0.0
H710 H 0.89491 0.48926 0.76757 0.0
H711 H 0.85936 0.48712 0.76937 0.0
H712 H 0.83641 0.50112 0.86485 0.0
C713 C 0.77173 0.49548 0.9996 0.0
C714 C 0.80702 0.45634 0.93698 0.0
C715 C 0.76254 0.50319 0.06533 0.0
C716 C 0.88797 0.48033 0.81141 0.0
C717 C 0.86763 0.47898 0.81198 0.0
C718 C 0.82817 0.48836 0.88227 0.0
C719 C 0.78407 0.47913 0.00619 0.0
C720 C 0.79953 0.47528 0.94749 0.0
C721 C 0.85807 0.46793 0.86918 0.0
C722 C 0.83673 0.46975 0.88117 0.0
H723 H 0.77778 0.46976 0.19835 0.0
H724 H 0.79399 0.45649 0.08527 0.0
H725 H 0.80466 0.50593 0.92236 0.0
H726 H 0.89779 0.45134 0.9674 0.0
H727 H 0.8624 0.449 0.9686 0.0
C728 C 0.9909 0.21091 0.01964 0.0
C729 C 0.00653 0.22382 0.00739 0.0
C730 C 0.991 0.19227 0.98683 0.0
C731 C 0.01534 0.15983 0.84279 0.0
H732 H 0.99899 0.11942 0.98641 0.0
C733 C 0.00688 0.07865 0.75184 0.0
C734 C 0.01203 0.0641 0.80578 0.0
C735 C 0.00668 0.09837 0.7731 0.0
C736 C 1.0038 0.13045 0.94568 0.0
H737 H 0.03403 0.2277 0.94775 0.0
H738 H 0.03428 0.19499 0.88999 0.0
H739 H 0.99722 0.15344 0.02524 0.0
H740 H 0.02149 0.05912 0.92411 0.0
H741 H 0.02163 0.09353 0.96056 0.0
H742 H 0.02228 0.13666 0.76378 0.0
C743 C 0.02184 0.19935 0.92463 0.0
C744 C 1.00249 0.15006 0.96755 0.0
C745 C 0.02168 0.21813 0.95737 0.0
C746 C 0.01736 0.06987 0.88112 0.0
C747 C 0.01732 0.08964 0.90216 0.0
C748 C 0.01661 0.14014 0.82077 0.0
C749 C 0.00682 0.18593 0.94129 0.0
C750 C 0.00816 0.16505 0.91641 0.0
C751 C 0.01182 0.10417 0.84861 0.0
C752 C 0.01085 0.12517 0.87199 0.0
H753 H 0.979 0.21494 0.0578 0.0
H754 H 0.97893 0.18256 0.99931 0.0
H755 H 0.01979 0.17095 0.80179 0.0
H756 H 1.00253 0.07483 0.69341 0.0
H757 H 1.00194 0.10905 0.73088 0.0
C758 C 0.2917 0.02319 0.98022 0.0
C759 C 0.2833 1.00448 0.98217 0.0
C760 C 0.30946 0.02636 0.94156 0.0
C761 C 0.34513 1.00332 0.80406 0.0
H762 H 0.38292 0.03442 0.91648 0.0
C763 C 0.42418 0.01337 0.69133 0.0
C764 C 0.43927 0.01325 0.74662 0.0
C765 C 0.4046 0.0142 0.7145 0.0
C766 C 0.37261 0.02557 0.88447 0.0
H767 H 0.28624 0.97481 0.94053 0.0
H768 H 0.31706 0.98018 0.87432 0.0
H769 H 0.34944 0.03257 0.96298 0.0
H770 H 0.44543 0.01389 0.87001 0.0
H771 H 0.41142 0.01487 0.91034 0.0
H772 H 0.36849 0.99554 0.72776 0.0
C773 C 0.31006 0.99251 0.90198 0.0
C774 C 0.35326 0.02476 0.91052 0.0
C775 C 0.29239 0.98937 0.94043 0.0
C776 C 0.43424 0.01406 0.82569 0.0
C777 C 0.41466 0.01477 0.84887 0.0
C778 C 0.3645 1.00404 0.77825 0.0
C779 C 0.31918 0.01091 0.90381 0.0
C780 C 0.33929 0.0134 0.87135 0.0
C781 C 0.39953 0.0148 0.79365 0.0
C782 C 0.3786 0.01497 0.81866 0.0
H783 H 0.28513 0.03509 0.01222 0.0
H784 H 0.31584 0.0408 0.94311 0.0
H785 H 0.33479 0.99461 0.77164 0.0
H786 H 0.42745 0.01285 0.62987 0.0
H787 H 0.39345 0.01449 0.67012 0.0
C788 C 0.52324 0.30674 0.01771 0.0
C789 C 0.50746 0.29397 0.00652 0.0
C790 C 0.5233 0.32529 0.98401 0.0
C791 C 0.49903 0.35756 0.83909 0.0
H792 H 0.51638 0.39825 0.97939 0.0
C793 C 0.50782 0.43839 0.74316 0.0
C794 C 0.50303 0.45314 0.79677 0.0
C795 C 0.50799 0.41873 0.76543 0.0
C796 C 0.5113 0.38714 0.93958 0.0
H797 H 0.47983 0.29024 0.94788 0.0
H798 H 0.47985 0.32278 0.88867 0.0
H799 H 0.51783 0.36436 0.02006 0.0
H800 H 0.49419 0.45855 0.91562 0.0
H801 H 0.49399 0.42428 0.95385 0.0
H802 H 0.49209 0.38055 0.75926 0.0
C803 C 0.49229 0.31838 0.92313 0.0
C804 C 0.51242 0.3676 0.96249 0.0
C805 C 0.49229 0.29969 0.95672 0.0
C806 C 0.49805 0.44764 0.87284 0.0
C807 C 0.49806 0.42795 0.8949 0.0
C808 C 0.49793 0.37718 0.81605 0.0
C809 C 0.5075 0.33168 0.93863 0.0
C810 C 0.50638 0.35249 0.91259 0.0
C811 C 0.50318 0.41321 0.84166 0.0
C812 C 0.50405 0.39226 0.86605 0.0
H813 H 0.53516 0.30268 0.05563 0.0
H814 H 0.53551 0.33488 0.99561 0.0
H815 H 0.4943 0.34636 0.79898 0.0
H816 H 0.51188 0.442 0.68414 0.0
H817 H 0.51243 0.40788 0.72333 0.0
C818 C 0.22317 0.51007 0.94402 0.0
C819 C 0.22584 0.50512 0.02232 0.0
C820 C 0.2048 0.50787 0.90908 0.0
C821 C 0.15292 0.50712 0.9663 0.0
H822 H 0.14324 0.49101 0.75434 0.0
C823 C 0.07455 0.49781 0.85069 0.0
C824 C 0.07062 0.50382 0.77435 0.0
C825 C 0.09375 0.49692 0.87807 0.0
C826 C 0.14571 0.49574 0.81344 0.0
H827 H 0.21195 0.493 0.12423 0.0
H828 H 0.18016 0.48865 0.06324 0.0
H829 H 0.17653 0.49049 0.80534 0.0
H830 H 0.08396 0.51366 0.66695 0.0
H831 H 0.11732 0.51247 0.71512 0.0
H832 H 0.12233 0.5127 0.97457 0.0
C833 C 0.19199 0.49461 0.02892 0.0
C834 C 0.1648 0.4954 0.84268 0.0
C835 C 0.21024 0.49686 0.06364 0.0
C836 C 0.08641 0.50886 0.726 0.0
C837 C 0.10561 0.50807 0.75352 0.0
C838 C 0.13392 0.50753 0.93712 0.0
C839 C 0.18881 0.50073 0.95209 0.0
C840 C 0.16862 0.50096 0.91973 0.0
C841 C 0.10956 0.50214 0.83008 0.0
C842 C 0.12998 0.50175 0.86044 0.0
H843 H 0.23493 0.51673 0.91141 0.0
H844 H 0.20285 0.51278 0.84988 0.0
H845 H 0.15535 0.51197 0.0253 0.0
H846 H 0.06281 0.49369 0.88942 0.0
H847 H 0.0962 0.49196 0.93691 0.0
C848 C 0.99101 0.79276 0.43713 0.0
C849 C 0.00973 0.78446 0.43359 0.0
C850 C 0.98808 0.81078 0.47411 0.0
C851 C 0.0119 0.84738 0.60488 0.0
H852 H 0.98027 0.88449 0.49125 0.0
C853 C 1.002 0.92687 0.71152 0.0
C854 C 1.00206 0.94172 0.65511 0.0
C855 C 1.00111 0.9072 0.68987 0.0
C856 C 0.98926 0.87436 0.52355 0.0
H857 H 0.03972 0.78783 0.47051 0.0
H858 H 0.03474 0.81907 0.53418 0.0
H859 H 0.98186 0.85069 0.44806 0.0
H860 H 1.0012 0.94735 0.53134 0.0
H861 H 1.00004 0.91312 0.49358 0.0
H862 H 0.02003 0.87119 0.67823 0.0
C863 C 0.02223 0.81181 0.509 0.0
C864 C 0.98993 0.85485 0.49944 0.0
C865 C 0.02514 0.7939 0.47211 0.0
C866 C 1.00109 0.93635 0.57646 0.0
C867 C 1.00029 0.91666 0.55478 0.0
C868 C 0.01129 0.86689 0.62881 0.0
C869 C 1.00379 0.82082 0.50863 0.0
C870 C 1.00148 0.84112 0.53911 0.0
C871 C 1.00036 0.90178 0.61116 0.0
C872 C 1.00016 0.88074 0.58793 0.0
H873 H 0.97889 0.78591 0.4075 0.0
H874 H 0.97361 0.8171 0.47376 0.0
H875 H 0.02078 0.83722 0.63754 0.0
H876 H 1.00262 0.93039 0.77272 0.0
H877 H 1.00089 0.89623 0.73508 0.0
C878 C 0.71511 0.99247 0.43767 0.0
C879 C 0.72091 0.00763 0.38786 0.0
C880 C 0.69637 0.99245 0.47078 0.0
C881 C 0.64725 0.0123 0.4292 0.0
H882 H 0.63384 0.99243 0.63283 0.0
C883 C 0.56704 0.99801 0.51682 0.0
C884 C 0.56138 1.00333 0.59234 0.0
C885 C 0.58678 0.99791 0.49542 0.0
C886 C 0.63733 0.99813 0.57589 0.0
H887 H 0.71226 0.03532 0.33828 0.0
H888 H 0.67996 0.03563 0.3974 0.0
H889 H 0.66811 0.99465 0.59425 0.0
H890 H 0.57228 0.01268 0.70465 0.0
H891 H 0.60646 0.01303 0.66654 0.0
H892 H 0.61664 0.0161 0.41095 0.0
C893 C 0.68954 0.02344 0.40942 0.0
C894 C 0.657 0.99924 0.55354 0.0
C895 C 0.70815 0.0234 0.37624 0.0
C896 C 0.57602 0.00834 0.64608 0.0
C897 C 0.59571 0.0084 0.62445 0.0
C898 C 0.62766 0.01115 0.45139 0.0
C899 C 0.68309 0.00762 0.45471 0.0
C900 C 0.66223 1.00645 0.47995 0.0
C901 C 0.60139 1.00326 0.54878 0.0
C902 C 0.62238 1.00407 0.52504 0.0
H903 H 0.72456 0.98002 0.44682 0.0
H904 H 0.69192 0.98001 0.50523 0.0
H905 H 0.65063 0.01761 0.37155 0.0
H906 H 0.55622 0.99398 0.47398 0.0
H907 H 0.59058 0.99361 0.43688 0.0
C908 C 0.48826 0.7227 0.45425 0.0
C909 C 0.50336 0.73184 0.41265 0.0
C910 C 0.49134 0.70487 0.49155 0.0
C911 C 0.52314 0.66148 0.47886 0.0
H912 H 0.49447 0.64587 0.66258 0.0
C913 C 0.5121 0.58027 0.56091 0.0
C914 C 0.5117 0.57511 0.63987 0.0
C915 C 0.51283 0.5999 0.5383 0.0
C916 C 0.50281 0.64997 0.61176 0.0
H917 H 0.5339 0.72996 0.38156 0.0
H918 H 0.53951 0.69895 0.44859 0.0
H919 H 0.49368 0.67974 0.62064 0.0
H920 H 0.51209 0.58675 0.757 0.0
H921 H 0.51373 0.62079 0.71773 0.0
H922 H 0.53248 0.63174 0.47057 0.0
C923 C 0.52512 0.70542 0.45099 0.0
C924 C 0.50217 0.66942 0.58712 0.0
C925 C 0.52201 0.72335 0.41355 0.0
C926 C 0.51226 0.59011 0.6956 0.0
C927 C 0.5131 0.60972 0.67302 0.0
C928 C 0.52385 0.64202 0.50371 0.0
C929 C 0.50966 0.69566 0.48857 0.0
C930 C 0.51206 0.67541 0.5196 0.0
C931 C 0.51328 0.61493 0.59403 0.0
C932 C 0.51346 0.63591 0.56988 0.0
H933 H 0.47373 0.72892 0.45479 0.0
H934 H 0.47902 0.69783 0.51914 0.0
H935 H 0.53079 0.66542 0.42616 0.0
H936 H 0.5116 0.56916 0.5163 0.0
H937 H 0.51263 0.60328 0.47695 0.0
C938 C 0.79687 0.52234 0.44519 0.0
C939 C 0.79503 0.52668 0.36592 0.0
C940 C 0.81511 0.52374 0.48189 0.0
C941 C 0.86568 0.54337 0.45655 0.0
H942 H 0.88051 0.49922 0.58401 0.0
C943 C 0.94633 0.52482 0.52293 0.0
C944 C 0.95095 0.51785 0.59743 0.0
C945 C 0.92685 0.52753 0.50076 0.0
C946 C 0.87657 0.51181 0.5494 0.0
H947 H 0.81044 0.53697 0.2641 0.0
H948 H 0.84201 0.53938 0.32728 0.0
H949 H 0.84703 0.50205 0.538 0.0
H950 H 0.93851 0.50852 0.70711 0.0
H951 H 0.90475 0.51349 0.6689 0.0
H952 H 0.89533 0.55289 0.46655 0.0
C953 C 0.82956 0.53497 0.36176 0.0
C954 C 0.8573 0.51346 0.52322 0.0
C955 C 0.81146 0.53348 0.32529 0.0
C956 C 0.93558 0.51382 0.64922 0.0
C957 C 0.91615 0.51655 0.62714 0.0
C958 C 0.88494 0.54168 0.48253 0.0
C959 C 0.83178 0.52967 0.44006 0.0
C960 C 0.85167 0.5291 0.47534 0.0
C961 C 0.91149 0.52335 0.55252 0.0
C962 C 0.89072 0.52572 0.52832 0.0
H963 H 0.78445 0.51697 0.47771 0.0
H964 H 0.81623 0.51978 0.54253 0.0
H965 H 0.8618 0.55579 0.42096 0.0
H966 H 0.95774 0.52805 0.48139 0.0
H967 H 0.92382 0.53256 0.44246 0.0
loop_
_geom_bond_atom_site_label_1
_geom_bond_atom_site_label_2
_geom_bond_distance
_geom_bond_site_symmetry_2
_ccdc_geom_bond_type
H0 C3 0.929 . S
H1 C6 0.929 . S
H2 C8 0.930 . S
C3 H0 0.929 . S
C3 C4 1.398 . S
C3 C5 1.396 . S
C4 C3 1.398 . S
C4 C8 1.407 . S
C5 C3 1.396 . S
C5 C6 1.394 . S
C6 H1 0.929 . S
C6 C5 1.394 . S
C6 C7 1.382 . S
C7 C6 1.382 . S
C7 C8 1.392 . S
C7 N9 1.420 . S
C8 H2 0.930 . S
C8 C4 1.407 . S
C8 C7 1.392 . S
N9 C7 1.420 . S
N9 C10 1.244 . S
C10 N9 1.244 . S
H11 C14 0.929 . S
H12 C17 0.929 . S
H13 C19 0.930 . S
C14 H11 0.929 . S
C14 C15 1.397 1_655 S
C14 C16 1.395 . S
C15 C14 1.397 1_455 S
C15 C19 1.409 . S
C16 C14 1.395 . S
C16 C17 1.395 1_655 S
C17 H12 0.929 . S
C17 C16 1.395 1_455 S
C17 C18 1.382 . S
C18 C17 1.382 . S
C18 C19 1.392 . S
C18 N20 1.420 . S
C19 H13 0.930 . S
C19 C15 1.409 . S
C19 C18 1.392 . S
N20 C18 1.420 . S
N20 C21 1.224 1_455 S
C21 N20 1.224 1_655 S
H22 C25 0.929 . S
H23 C28 0.929 . S
H24 C30 0.930 . S
C25 H22 0.929 . S
C25 C26 1.396 1_565 S
C25 C27 1.396 1_565 S
C26 C25 1.396 1_545 S
C26 C30 1.411 . S
C27 C25 1.396 1_545 S
C27 C28 1.394 . S
C28 H23 0.929 . S
C28 C27 1.394 . S
C28 C29 1.382 . S
C29 C28 1.382 . S
C29 C30 1.392 . S
C29 N31 1.420 . S
C30 H24 0.930 . S
C30 C26 1.411 . S
C30 C29 1.392 . S
N31 C29 1.420 . S
N31 C32 1.227 1_545 S
C32 N31 1.227 1_565 S
H33 C36 0.929 . S
H34 C39 0.929 . S
H35 C41 0.930 . S
C36 H33 0.929 . S
C36 C37 1.398 . S
C36 C38 1.396 . S
C37 C36 1.398 . S
C37 C41 1.407 . S
C38 C36 1.396 . S
C38 C39 1.394 . S
C39 H34 0.929 . S
C39 C38 1.394 . S
C39 C40 1.382 . S
C40 C39 1.382 . S
C40 C41 1.392 . S
C40 N42 1.420 . S
C41 H35 0.930 . S
C41 C37 1.407 . S
C41 C40 1.392 . S
N42 C40 1.420 . S
N42 C43 1.244 . S
C43 N42 1.244 . S
H44 C47 0.929 . S
H45 C50 0.929 . S
H46 C52 0.930 . S
C47 H44 0.929 . S
C47 C48 1.398 1_554 S
C47 C49 1.396 . S
C48 C47 1.398 1_556 S
C48 C52 1.407 . S
C49 C47 1.396 . S
C49 C50 1.394 . S
C50 H45 0.929 . S
C50 C49 1.394 . S
C50 C51 1.382 . S
C51 C50 1.382 . S
C51 C52 1.392 1_554 S
C51 N53 1.420 . S
C52 H46 0.930 . S
C52 C48 1.407 . S
C52 C51 1.392 1_556 S
N53 C51 1.420 . S
N53 C54 1.244 . S
C54 N53 1.244 . S
H55 C58 0.929 . S
H56 C61 0.929 . S
H57 C63 0.930 . S
C58 H55 0.929 . S
C58 C59 1.398 1_654 S
C58 C60 1.392 1_655 S
C59 C58 1.398 1_456 S
C59 C63 1.407 . S
C60 C58 1.392 1_455 S
C60 C61 1.403 . S
C61 H56 0.929 . S
C61 C60 1.403 . S
C61 C62 1.382 . S
C62 C61 1.382 . S
C62 C63 1.392 1_554 S
C62 N64 1.420 . S
C63 H57 0.930 . S
C63 C59 1.407 . S
C63 C62 1.392 1_556 S
N64 C62 1.420 . S
N64 C65 1.242 . S
C65 N64 1.242 . S
H66 C69 0.940 . S
H67 C72 0.929 . S
H68 C74 0.930 . S
C69 H66 0.940 . S
C69 C70 1.394 1_564 S
C69 C71 1.390 1_565 S
C70 C69 1.394 1_546 S
C70 C74 1.407 . S
C71 C69 1.390 1_545 S
C71 C72 1.406 . S
C72 H67 0.929 . S
C72 C71 1.406 . S
C72 C73 1.382 . S
C73 C72 1.382 . S
C73 C74 1.392 1_554 S
C73 N75 1.420 . S
C74 H68 0.930 . S
C74 C70 1.407 . S
C74 C73 1.392 1_556 S
N75 C73 1.420 . S
N75 C76 1.248 . S
C76 N75 1.248 . S
H77 C80 0.929 . S
H78 C83 0.929 . S
H79 C85 0.930 . S
C80 H77 0.929 . S
C80 C81 1.398 1_554 S
C80 C82 1.396 . S
C81 C80 1.398 1_556 S
C81 C85 1.407 . S
C82 C80 1.396 . S
C82 C83 1.394 . S
C83 H78 0.929 . S
C83 C82 1.394 . S
C83 C84 1.382 . S
C84 C83 1.382 . S
C84 C85 1.392 1_554 S
C84 N86 1.420 . S
C85 H79 0.930 . S
C85 C81 1.407 . S
C85 C84 1.392 1_556 S
N86 C84 1.420 . S
N86 C87 1.244 . S
C87 N86 1.244 . S
Pr88 C90 2.880 . S
Pr88 O108 2.568 . S
Pr88 O109 2.490 . S
Pr88 O110 2.695 1_565 S
Pr88 O111 2.512 . S
Pr88 O113 2.437 . S
Pr88 O116 2.436 1_455 S
Pr88 O118 2.438 1_565 S
Pr89 C99 2.880 . S
Pr89 O110 2.436 1_655 S
Pr89 O112 2.438 1_545 S
Pr89 O114 2.563 . S
Pr89 O115 2.490 . S
Pr89 O116 2.695 1_545 S
Pr89 O117 2.512 . S
Pr89 O119 2.437 . S
C90 Pr88 2.880 . S
C90 C91 1.491 . S
C90 O108 1.267 . S
C90 O109 1.225 . S
C91 C90 1.491 . S
C91 C92 1.392 . S
C91 C96 1.356 . S
C92 C91 1.392 . S
C92 C93 1.368 . S
C92 H120 0.929 . S
C93 C92 1.368 . S
C93 C94 1.386 . S
C93 H121 0.929 . S
C94 C93 1.386 . S
C94 C95 1.373 . S
C95 C94 1.373 . S
C95 C96 1.409 . S
C95 H122 0.931 1_455 S
C96 C91 1.356 . S
C96 C95 1.409 . S
C96 H123 0.930 1_455 S
C97 O110 1.256 1_565 S
C97 O111 1.273 . S
C98 O112 1.267 . S
C98 O113 1.278 1_655 S
C99 Pr89 2.880 . S
C99 C100 1.491 . S
C99 O114 1.255 . S
C99 O115 1.225 . S
C100 C99 1.491 . S
C100 C101 1.392 . S
C100 C105 1.356 . S
C101 C100 1.392 . S
C101 C102 1.368 . S
C101 H124 0.929 . S
C102 C101 1.368 . S
C102 C103 1.386 . S
C102 H125 0.929 . S
C103 C102 1.386 . S
C103 C104 1.373 . S
C104 C103 1.373 . S
C104 C105 1.409 . S
C104 H126 0.931 1_655 S
C105 C100 1.356 . S
C105 C104 1.409 . S
C105 H127 0.930 1_655 S
C106 O116 1.270 1_545 S
C106 O117 1.248 . S
C107 O118 1.267 . S
C107 O119 1.278 1_455 S
O108 Pr88 2.568 . S
O108 C90 1.267 . S
O109 Pr88 2.490 . S
O109 C90 1.225 . S
O110 Pr88 2.695 1_545 S
O110 Pr89 2.436 1_455 S
O110 C97 1.256 1_545 S
O111 Pr88 2.512 . S
O111 C97 1.273 . S
O112 Pr89 2.438 1_565 S
O112 C98 1.267 . S
O113 Pr88 2.437 . S
O113 C98 1.278 1_455 S
O114 Pr89 2.563 . S
O114 C99 1.255 . S
O115 Pr89 2.490 . S
O115 C99 1.225 . S
O116 Pr88 2.436 1_655 S
O116 Pr89 2.695 1_565 S
O116 C106 1.270 1_565 S
O117 Pr89 2.512 . S
O117 C106 1.248 . S
O118 Pr88 2.438 1_545 S
O118 C107 1.267 . S
O119 Pr89 2.437 . S
O119 C107 1.278 1_655 S
H120 C92 0.929 . S
H121 C93 0.929 . S
H122 C95 0.931 1_655 S
H123 C96 0.930 1_655 S
H124 C101 0.929 . S
H125 C102 0.929 . S
H126 C104 0.931 1_455 S
H127 C105 0.930 1_455 S
Pr128 C130 2.880 . S
Pr128 O148 2.570 . S
Pr128 O149 2.490 . S
Pr128 O150 2.695 . S
Pr128 O151 2.512 . S
Pr128 O153 2.437 . S
Pr128 O156 2.436 1_545 S
Pr128 O158 2.438 . S
Pr129 C139 2.880 . S
Pr129 O150 2.436 1_565 S
Pr129 O152 2.438 . S
Pr129 O154 2.560 . S
Pr129 O155 2.490 . S
Pr129 O156 2.695 . S
Pr129 O157 2.512 . S
Pr129 O159 2.437 . S
C130 Pr128 2.880 . S
C130 C131 1.491 . S
C130 O148 1.272 . S
C130 O149 1.225 . S
C131 C130 1.491 . S
C131 C132 1.392 . S
C131 C136 1.356 . S
C132 C131 1.392 . S
C132 C133 1.368 . S
C132 H160 0.929 . S
C133 C132 1.368 . S
C133 C134 1.386 . S
C133 H161 0.929 . S
C134 C133 1.386 . S
C134 C135 1.373 . S
C135 C134 1.373 . S
C135 C136 1.409 . S
C135 H162 0.931 1_545 S
C136 C131 1.356 . S
C136 C135 1.409 . S
C136 H163 0.930 1_545 S
C137 O150 1.270 . S
C137 O151 1.248 . S
C138 O152 1.267 . S
C138 O153 1.278 1_565 S
C139 Pr129 2.880 . S
C139 C140 1.491 . S
C139 O154 1.249 . S
C139 O155 1.225 . S
C140 C139 1.491 . S
C140 C141 1.392 . S
C140 C145 1.356 . S
C141 C140 1.392 . S
C141 C142 1.368 . S
C141 H164 0.929 . S
C142 C141 1.368 . S
C142 C143 1.386 . S
C142 H165 0.929 . S
C143 C142 1.386 . S
C143 C144 1.373 . S
C144 C143 1.373 . S
C144 C145 1.409 . S
C144 H166 0.931 1_565 S
C145 C140 1.356 . S
C145 C144 1.409 . S
C145 H167 0.930 1_565 S
C146 O156 1.270 . S
C146 O157 1.248 . S
C147 O158 1.267 . S
C147 O159 1.278 1_545 S
O148 Pr128 2.570 . S
O148 C130 1.272 . S
O149 Pr128 2.490 . S
O149 C130 1.225 . S
O150 Pr128 2.695 . S
O150 Pr129 2.436 1_545 S
O150 C137 1.270 . S
O151 Pr128 2.512 . S
O151 C137 1.248 . S
O152 Pr129 2.438 . S
O152 C138 1.267 . S
O153 Pr128 2.437 . S
O153 C138 1.278 1_545 S
O154 Pr129 2.560 . S
O154 C139 1.249 . S
O155 Pr129 2.490 . S
O155 C139 1.225 . S
O156 Pr128 2.436 1_565 S
O156 Pr129 2.695 . S
O156 C146 1.270 . S
O157 Pr129 2.512 . S
O157 C146 1.248 . S
O158 Pr128 2.438 . S
O158 C147 1.267 . S
O159 Pr129 2.437 . S
O159 C147 1.278 1_565 S
H160 C132 0.929 . S
H161 C133 0.929 . S
H162 C135 0.931 1_565 S
H163 C136 0.930 1_565 S
H164 C141 0.929 . S
H165 C142 0.929 . S
H166 C144 0.931 1_545 S
H167 C145 0.930 1_545 S
Pr168 C170 2.880 . S
Pr168 O188 2.562 . S
Pr168 O189 2.490 . S
Pr168 O190 2.695 . S
Pr168 O191 2.512 . S
Pr168 O193 2.437 . S
Pr168 O196 2.436 . S
Pr168 O198 2.438 . S
Pr169 C179 2.880 . S
Pr169 O190 2.436 . S
Pr169 O192 2.438 . S
Pr169 O194 2.562 . S
Pr169 O195 2.490 . S
Pr169 O196 2.695 . S
Pr169 O197 2.512 . S
Pr169 O199 2.437 . S
C170 Pr168 2.880 . S
C170 C171 1.491 . S
C170 O188 1.254 . S
C170 O189 1.225 . S
C171 C170 1.491 . S
C171 C172 1.392 . S
C171 C176 1.356 . S
C172 C171 1.392 . S
C172 C173 1.368 . S
C172 H200 0.929 . S
C173 C172 1.368 . S
C173 C174 1.386 . S
C173 H201 0.929 . S
C174 C173 1.386 . S
C174 C175 1.373 . S
C175 C174 1.373 . S
C175 C176 1.409 . S
C175 H202 0.931 . S
C176 C171 1.356 . S
C176 C175 1.409 . S
C176 H203 0.930 . S
C177 O190 1.270 . S
C177 O191 1.248 . S
C178 O192 1.267 . S
C178 O193 1.278 . S
C179 Pr169 2.880 . S
C179 C180 1.491 . S
C179 O194 1.254 . S
C179 O195 1.225 . S
C180 C179 1.491 . S
C180 C181 1.392 . S
C180 C185 1.356 . S
C181 C180 1.392 . S
C181 C182 1.368 . S
C181 H204 0.929 . S
C182 C181 1.368 . S
C182 C183 1.386 . S
C182 H205 0.929 . S
C183 C182 1.386 . S
C183 C184 1.373 . S
C184 C183 1.373 . S
C184 C185 1.409 . S
C184 H206 0.931 . S
C185 C180 1.356 . S
C185 C184 1.409 . S
C185 H207 0.930 . S
C186 O196 1.270 . S
C186 O197 1.248 . S
C187 O198 1.267 . S
C187 O199 1.278 . S
O188 Pr168 2.562 . S
O188 C170 1.254 . S
O189 Pr168 2.490 . S
O189 C170 1.225 . S
O190 Pr168 2.695 . S
O190 Pr169 2.436 . S
O190 C177 1.270 . S
O191 Pr168 2.512 . S
O191 C177 1.248 . S
O192 Pr169 2.438 . S
O192 C178 1.267 . S
O193 Pr168 2.437 . S
O193 C178 1.278 . S
O194 Pr169 2.562 . S
O194 C179 1.254 . S
O195 Pr169 2.490 . S
O195 C179 1.225 . S
O196 Pr168 2.436 . S
O196 Pr169 2.695 . S
O196 C186 1.270 . S
O197 Pr169 2.512 . S
O197 C186 1.248 . S
O198 Pr168 2.438 . S
O198 C187 1.267 . S
O199 Pr169 2.437 . S
O199 C187 1.278 . S
H200 C172 0.929 . S
H201 C173 0.929 . S
H202 C175 0.931 . S
H203 C176 0.930 . S
H204 C181 0.929 . S
H205 C182 0.929 . S
H206 C184 0.931 . S
H207 C185 0.930 . S
Pr208 C210 2.880 . S
Pr208 O228 2.562 . S
Pr208 O229 2.490 . S
Pr208 O230 2.695 1_655 S
Pr208 O231 2.512 . S
Pr208 O233 2.437 . S
Pr208 O236 2.436 . S
Pr208 O238 2.438 1_655 S
Pr209 C219 2.880 . S
Pr209 O230 2.436 . S
Pr209 O232 2.438 1_455 S
Pr209 O234 2.562 . S
Pr209 O235 2.490 . S
Pr209 O236 2.695 1_455 S
Pr209 O237 2.512 . S
Pr209 O239 2.437 . S
C210 Pr208 2.880 . S
C210 C211 1.491 . S
C210 O228 1.254 . S
C210 O229 1.225 . S
C211 C210 1.491 . S
C211 C212 1.392 . S
C211 C216 1.356 . S
C212 C211 1.392 . S
C212 C213 1.368 . S
C212 H240 0.929 . S
C213 C212 1.368 . S
C213 C214 1.386 . S
C213 H241 0.929 . S
C214 C213 1.386 . S
C214 C215 1.373 . S
C215 C214 1.373 . S
C215 C216 1.409 . S
C215 H242 0.931 . S
C216 C211 1.356 . S
C216 C215 1.409 . S
C216 H243 0.930 . S
C217 O230 1.254 1_655 S
C217 O231 1.276 . S
C218 O232 1.267 . S
C218 O233 1.278 . S
C219 Pr209 2.880 . S
C219 C220 1.491 . S
C219 O234 1.254 . S
C219 O235 1.225 . S
C220 C219 1.491 . S
C220 C221 1.392 . S
C220 C225 1.356 . S
C221 C220 1.392 . S
C221 C222 1.368 . S
C221 H244 0.929 . S
C222 C221 1.368 . S
C222 C223 1.386 . S
C222 H245 0.929 . S
C223 C222 1.386 . S
C223 C224 1.373 . S
C224 C223 1.373 . S
C224 C225 1.409 . S
C224 H246 0.931 . S
C225 C220 1.356 . S
C225 C224 1.409 . S
C225 H247 0.930 . S
C226 O236 1.270 1_455 S
C226 O237 1.248 . S
C227 O238 1.267 . S
C227 O239 1.278 . S
O228 Pr208 2.562 . S
O228 C210 1.254 . S
O229 Pr208 2.490 . S
O229 C210 1.225 . S
O230 Pr208 2.695 1_455 S
O230 Pr209 2.436 . S
O230 C217 1.254 1_455 S
O231 Pr208 2.512 . S
O231 C217 1.276 . S
O232 Pr209 2.438 1_655 S
O232 C218 1.267 . S
O233 Pr208 2.437 . S
O233 C218 1.278 . S
O234 Pr209 2.562 . S
O234 C219 1.254 . S
O235 Pr209 2.490 . S
O235 C219 1.225 . S
O236 Pr208 2.436 . S
O236 Pr209 2.695 1_655 S
O236 C226 1.270 1_655 S
O237 Pr209 2.512 . S
O237 C226 1.248 . S
O238 Pr208 2.438 1_455 S
O238 C227 1.267 . S
O239 Pr209 2.437 . S
O239 C227 1.278 . S
H240 C212 0.929 . S
H241 C213 0.929 . S
H242 C215 0.931 . S
H243 C216 0.930 . S
H244 C221 0.929 . S
H245 C222 0.929 . S
H246 C224 0.931 . S
H247 C225 0.930 . S
C248 C249 1.378 . S
C248 C250 1.327 . S
C248 H273 0.950 . S
C249 C248 1.378 . S
C249 C265 1.320 1_545 S
C250 C248 1.327 . S
C250 C269 1.464 . S
C250 H274 0.950 . S
C251 C268 1.574 . S
C251 C270 1.326 1_565 S
C251 H275 0.949 . S
H252 C256 0.949 . S
C253 C254 1.349 1_565 S
C253 C255 1.327 . S
C253 H276 0.950 . S
C254 C253 1.349 1_545 S
C254 C266 1.349 . S
C255 C253 1.327 . S
C255 C271 1.429 1_565 S
C255 H277 0.950 . S
C256 H252 0.949 . S
C256 C264 1.574 . S
C256 C272 1.368 . S
H257 C265 0.950 . S
H258 C263 0.950 . S
H259 C264 0.949 . S
H260 C266 0.950 . S
H261 C267 0.950 . S
H262 C268 0.949 . S
C263 H258 0.950 . S
C263 C265 1.327 . S
C263 C269 1.394 1_565 S
C264 C256 1.574 . S
C264 H259 0.949 . S
C264 C270 1.412 . S
C265 C249 1.320 1_565 S
C265 H257 0.950 . S
C265 C263 1.327 . S
C266 C254 1.349 . S
C266 H260 0.950 . S
C266 C267 1.327 . S
C267 H261 0.950 . S
C267 C266 1.327 . S
C267 C271 1.429 . S
C268 C251 1.574 . S
C268 H262 0.949 . S
C268 C272 1.368 1_565 S
C269 C250 1.464 . S
C269 C263 1.394 1_545 S
C269 C270 1.523 . S
C270 C251 1.326 1_545 S
C270 C264 1.412 . S
C270 C269 1.523 . S
C271 C255 1.429 1_545 S
C271 C267 1.429 . S
C271 C272 1.523 . S
C272 C256 1.368 . S
C272 C268 1.368 1_545 S
C272 C271 1.523 . S
H273 C248 0.950 . S
H274 C250 0.950 . S
H275 C251 0.949 . S
H276 C253 0.950 . S
H277 C255 0.950 . S
C278 C279 1.349 . S
C278 C280 1.327 . S
C278 H303 0.950 . S
C279 C278 1.349 . S
C279 C295 1.349 . S
C280 C278 1.327 . S
C280 C299 1.429 . S
C280 H304 0.950 . S
C281 C298 1.574 . S
C281 C300 1.368 . S
C281 H305 0.949 . S
H282 C286 0.949 . S
C283 C284 1.349 . S
C283 C285 1.327 . S
C283 H306 0.950 . S
C284 C283 1.349 . S
C284 C296 1.349 . S
C285 C283 1.327 . S
C285 C301 1.429 . S
C285 H307 0.950 . S
C286 H282 0.949 . S
C286 C294 1.574 . S
C286 C302 1.368 . S
H287 C295 0.950 . S
H288 C293 0.950 . S
H289 C294 0.949 . S
H290 C296 0.950 . S
H291 C297 0.950 . S
H292 C298 0.949 . S
C293 H288 0.950 . S
C293 C295 1.327 . S
C293 C299 1.429 . S
C294 C286 1.574 . S
C294 H289 0.949 . S
C294 C300 1.368 . S
C295 C279 1.349 . S
C295 H287 0.950 . S
C295 C293 1.327 . S
C296 C284 1.349 . S
C296 H290 0.950 . S
C296 C297 1.327 . S
C297 H291 0.950 . S
C297 C296 1.327 . S
C297 C301 1.429 . S
C298 C281 1.574 . S
C298 H292 0.949 . S
C298 C302 1.368 . S
C299 C280 1.429 . S
C299 C293 1.429 . S
C299 C300 1.523 . S
C300 C281 1.368 . S
C300 C294 1.368 . S
C300 C299 1.523 . S
C301 C285 1.429 . S
C301 C297 1.429 . S
C301 C302 1.523 . S
C302 C286 1.368 . S
C302 C298 1.368 . S
C302 C301 1.523 . S
H303 C278 0.950 . S
H304 C280 0.950 . S
H305 C281 0.949 . S
H306 C283 0.950 . S
H307 C285 0.950 . S
C308 C309 1.349 . S
C308 C310 1.327 . S
C308 H333 0.950 . S
C309 C308 1.349 . S
C309 C325 1.349 . S
C310 C308 1.327 . S
C310 C329 1.429 . S
C310 H334 0.950 . S
C311 C328 1.574 . S
C311 C330 1.368 . S
C311 H335 0.949 . S
H312 C316 0.949 . S
C313 C314 1.349 . S
C313 C315 1.327 . S
C313 H336 0.950 . S
C314 C313 1.349 . S
C314 C326 1.349 . S
C315 C313 1.327 . S
C315 C331 1.429 . S
C315 H337 0.950 . S
C316 H312 0.949 . S
C316 C324 1.574 . S
C316 C332 1.368 . S
H317 C325 0.950 . S
H318 C323 0.950 . S
H319 C324 0.949 . S
H320 C326 0.950 . S
H321 C327 0.950 . S
H322 C328 0.949 . S
C323 H318 0.950 . S
C323 C325 1.327 . S
C323 C329 1.429 . S
C324 C316 1.574 . S
C324 H319 0.949 . S
C324 C330 1.368 . S
C325 C309 1.349 . S
C325 H317 0.950 . S
C325 C323 1.327 . S
C326 C314 1.349 . S
C326 H320 0.950 . S
C326 C327 1.327 . S
C327 H321 0.950 . S
C327 C326 1.327 . S
C327 C331 1.429 . S
C328 C311 1.574 . S
C328 H322 0.949 . S
C328 C332 1.368 . S
C329 C310 1.429 . S
C329 C323 1.429 . S
C329 C330 1.523 . S
C330 C311 1.368 . S
C330 C324 1.368 . S
C330 C329 1.523 . S
C331 C315 1.429 . S
C331 C327 1.429 . S
C331 C332 1.523 . S
C332 C316 1.368 . S
C332 C328 1.368 . S
C332 C331 1.523 . S
H333 C308 0.950 . S
H334 C310 0.950 . S
H335 C311 0.949 . S
H336 C313 0.950 . S
H337 C315 0.950 . S
C338 C339 1.377 . S
C338 C340 1.327 . S
C338 H363 0.950 . S
C339 C338 1.377 . S
C339 C355 1.321 1_455 S
C340 C338 1.327 . S
C340 C359 1.465 . S
C340 H364 0.950 . S
C341 C358 1.574 . S
C341 C360 1.323 1_655 S
C341 H365 0.949 . S
H342 C346 0.949 . S
C343 C344 1.349 1_655 S
C343 C345 1.327 . S
C343 H366 0.950 . S
C344 C343 1.349 1_455 S
C344 C356 1.349 . S
C345 C343 1.327 . S
C345 C361 1.429 1_655 S
C345 H367 0.950 . S
C346 H342 0.949 . S
C346 C354 1.574 . S
C346 C362 1.423 . S
H347 C355 0.950 . S
H348 C353 0.950 . S
H349 C354 0.949 . S
H350 C356 0.950 . S
H351 C357 0.950 . S
H352 C358 0.949 . S
C353 H348 0.950 . S
C353 C355 1.327 . S
C353 C359 1.393 1_655 S
C354 C346 1.574 . S
C354 H349 0.949 . S
C354 C360 1.414 . S
C355 C339 1.321 1_655 S
C355 H347 0.950 . S
C355 C353 1.327 . S
C356 C344 1.349 . S
C356 H350 0.950 . S
C356 C357 1.327 . S
C357 H351 0.950 . S
C357 C356 1.327 . S
C357 C361 1.429 . S
C358 C341 1.574 . S
C358 H352 0.949 . S
C358 C362 1.314 1_655 S
C359 C340 1.465 . S
C359 C353 1.393 1_455 S
C359 C360 1.523 . S
C360 C341 1.323 1_455 S
C360 C354 1.414 . S
C360 C359 1.523 . S
C361 C345 1.429 1_455 S
C361 C357 1.429 . S
C361 C362 1.524 . S
C362 C346 1.423 . S
C362 C358 1.314 1_455 S
C362 C361 1.524 . S
H363 C338 0.950 . S
H364 C340 0.950 . S
H365 C341 0.949 . S
H366 C343 0.950 . S
H367 C345 0.950 . S
C368 C369 1.360 . S
C368 C370 1.327 . S
C368 H393 0.950 . S
C369 C368 1.360 . S
C369 C385 1.338 1_565 S
C370 C368 1.327 . S
C370 C389 1.446 . S
C370 H394 0.950 . S
C371 C388 1.574 . S
C371 C390 1.344 1_545 S
C371 H395 0.949 . S
H372 C376 0.949 . S
C373 C374 1.307 1_545 S
C373 C375 1.327 . S
C373 H396 0.950 . S
C374 C373 1.307 1_565 S
C374 C386 1.392 . S
C375 C373 1.327 . S
C375 C391 1.396 1_545 S
C375 H397 0.950 . S
C376 H372 0.949 . S
C376 C384 1.574 1_556 S
C376 C392 1.401 . S
H377 C385 0.950 . S
H378 C383 0.950 . S
H379 C384 0.949 . S
H380 C386 0.950 . S
H381 C387 0.950 . S
H382 C388 0.949 . S
C383 H378 0.950 . S
C383 C385 1.327 . S
C383 C389 1.411 1_545 S
C384 C376 1.574 1_554 S
C384 H379 0.949 . S
C384 C390 1.393 . S
C385 C369 1.338 1_545 S
C385 H377 0.950 . S
C385 C383 1.327 . S
C386 C374 1.392 . S
C386 H380 0.950 . S
C386 C387 1.327 . S
C387 H381 0.950 . S
C387 C386 1.327 . S
C387 C391 1.462 . S
C388 C371 1.574 . S
C388 H382 0.949 . S
C388 C392 1.336 1_544 S
C389 C370 1.446 . S
C389 C383 1.411 1_565 S
C389 C390 1.523 . S
C390 C371 1.344 1_565 S
C390 C384 1.393 . S
C390 C389 1.523 . S
C391 C375 1.396 1_565 S
C391 C387 1.462 . S
C391 C392 1.523 . S
C392 C376 1.401 . S
C392 C388 1.336 1_566 S
C392 C391 1.523 . S
H393 C368 0.950 . S
H394 C370 0.950 . S
H395 C371 0.949 . S
H396 C373 0.950 . S
H397 C375 0.950 . S
C398 C399 1.349 . S
C398 C400 1.327 . S
C398 H423 0.950 . S
C399 C398 1.349 . S
C399 C415 1.349 . S
C400 C398 1.327 . S
C400 C419 1.429 . S
C400 H424 0.950 . S
C401 C418 1.574 . S
C401 C420 1.368 . S
C401 H425 0.949 . S
H402 C406 0.949 . S
C403 C404 1.349 . S
C403 C405 1.327 . S
C403 H426 0.950 . S
C404 C403 1.349 . S
C404 C416 1.349 . S
C405 C403 1.327 . S
C405 C421 1.429 . S
C405 H427 0.950 . S
C406 H402 0.949 . S
C406 C414 1.574 1_556 S
C406 C422 1.368 . S
H407 C415 0.950 . S
H408 C413 0.950 . S
H409 C414 0.949 . S
H410 C416 0.950 . S
H411 C417 0.950 . S
H412 C418 0.949 . S
C413 H408 0.950 . S
C413 C415 1.327 . S
C413 C419 1.429 . S
C414 C406 1.574 1_554 S
C414 H409 0.949 . S
C414 C420 1.368 . S
C415 C399 1.349 . S
C415 H407 0.950 . S
C415 C413 1.327 . S
C416 C404 1.349 . S
C416 H410 0.950 . S
C416 C417 1.327 . S
C417 H411 0.950 . S
C417 C416 1.327 . S
C417 C421 1.429 . S
C418 C401 1.574 . S
C418 H412 0.949 . S
C418 C422 1.368 1_554 S
C419 C400 1.429 . S
C419 C413 1.429 . S
C419 C420 1.523 . S
C420 C401 1.368 . S
C420 C414 1.368 . S
C420 C419 1.523 . S
C421 C405 1.429 . S
C421 C417 1.429 . S
C421 C422 1.523 . S
C422 C406 1.368 . S
C422 C418 1.368 1_556 S
C422 C421 1.523 . S
H423 C398 0.950 . S
H424 C400 0.950 . S
H425 C401 0.949 . S
H426 C403 0.950 . S
H427 C405 0.950 . S
C428 C429 1.349 . S
C428 C430 1.327 . S
C428 H453 0.950 . S
C429 C428 1.349 . S
C429 C445 1.349 . S
C430 C428 1.327 . S
C430 C449 1.429 . S
C430 H454 0.950 . S
C431 C448 1.574 . S
C431 C450 1.368 . S
C431 H455 0.949 . S
H432 C436 0.949 1_556 S
C433 C434 1.349 . S
C433 C435 1.327 . S
C433 H456 0.950 . S
C434 C433 1.349 . S
C434 C446 1.349 . S
C435 C433 1.327 . S
C435 C451 1.429 . S
C435 H457 0.950 . S
C436 H432 0.949 1_554 S
C436 C444 1.574 . S
C436 C452 1.368 1_554 S
H437 C445 0.950 . S
H438 C443 0.950 . S
H439 C444 0.949 . S
H440 C446 0.950 . S
H441 C447 0.950 . S
H442 C448 0.949 . S
C443 H438 0.950 . S
C443 C445 1.327 . S
C443 C449 1.429 . S
C444 C436 1.574 . S
C444 H439 0.949 . S
C444 C450 1.368 . S
C445 C429 1.349 . S
C445 H437 0.950 . S
C445 C443 1.327 . S
C446 C434 1.349 . S
C446 H440 0.950 . S
C446 C447 1.327 . S
C447 H441 0.950 . S
C447 C446 1.327 . S
C447 C451 1.429 . S
C448 C431 1.574 . S
C448 H442 0.949 . S
C448 C452 1.368 1_554 S
C449 C430 1.429 . S
C449 C443 1.429 . S
C449 C450 1.523 . S
C450 C431 1.368 . S
C450 C444 1.368 . S
C450 C449 1.523 . S
C451 C435 1.429 . S
C451 C447 1.429 . S
C451 C452 1.523 . S
C452 C436 1.368 1_556 S
C452 C448 1.368 1_556 S
C452 C451 1.523 . S
H453 C428 0.950 . S
H454 C430 0.950 . S
H455 C431 0.949 . S
H456 C433 0.950 . S
H457 C435 0.950 . S
C458 C459 1.346 1_455 S
C458 C460 1.327 . S
C458 H483 0.950 . S
C459 C458 1.346 1_655 S
C459 C475 1.352 . S
C460 C458 1.327 . S
C460 C479 1.425 1_455 S
C460 H484 0.950 . S
C461 C478 1.574 . S
C461 C480 1.374 . S
C461 H485 0.949 . S
H462 C466 0.949 . S
C463 C464 1.349 . S
C463 C465 1.327 . S
C463 H486 0.950 . S
C464 C463 1.349 . S
C464 C476 1.349 1_655 S
C465 C463 1.327 . S
C465 C481 1.437 . S
C465 H487 0.950 1_556 S
C466 H462 0.949 . S
C466 C474 1.574 1_556 S
C466 C482 1.362 1_455 S
H467 C475 0.950 . S
H468 C473 0.950 . S
H469 C474 0.949 . S
H470 C476 0.950 . S
H471 C477 0.950 . S
H472 C478 0.949 . S
C473 H468 0.950 . S
C473 C475 1.327 . S
C473 C479 1.433 . S
C474 C466 1.574 1_554 S
C474 H469 0.949 . S
C474 C480 1.364 1_455 S
C475 C459 1.352 . S
C475 H467 0.950 . S
C475 C473 1.327 . S
C476 C464 1.349 1_455 S
C476 H470 0.950 . S
C476 C477 1.327 . S
C477 H471 0.950 . S
C477 C476 1.327 . S
C477 C481 1.423 1_455 S
C478 C461 1.574 . S
C478 H472 0.949 . S
C478 C482 1.376 1_554 S
C479 C460 1.425 1_655 S
C479 C473 1.433 . S
C479 C480 1.523 . S
C480 C461 1.374 . S
C480 C474 1.364 1_655 S
C480 C479 1.523 . S
C481 C465 1.437 . S
C481 C477 1.423 1_655 S
C481 C482 1.523 . S
C482 C466 1.362 1_655 S
C482 C478 1.376 1_556 S
C482 C481 1.523 . S
H483 C458 0.950 . S
H484 C460 0.950 . S
H485 C461 0.949 . S
H486 C463 0.950 . S
H487 C465 0.950 1_554 S
C488 C489 1.349 . S
C488 C490 1.327 . S
C488 H513 0.950 . S
C489 C488 1.349 . S
C489 C505 1.349 1_455 S
C490 C488 1.327 . S
C490 C509 1.429 1_455 S
C490 H514 0.950 . S
C491 C508 1.574 . S
C491 C510 1.368 . S
C491 H515 0.949 . S
H492 C496 0.949 . S
C493 C494 1.349 . S
C493 C495 1.327 . S
C493 H516 0.950 . S
C494 C493 1.349 . S
C494 C506 1.349 . S
C495 C493 1.327 . S
C495 C511 1.429 . S
C495 H517 0.950 . S
C496 H492 0.949 . S
C496 C504 1.574 . S
C496 C512 1.368 1_455 S
H497 C505 0.950 . S
H498 C503 0.950 . S
H499 C504 0.949 . S
H500 C506 0.984 . S
H501 C507 0.950 1_455 S
H502 C508 0.949 . S
C503 H498 0.950 . S
C503 C505 1.327 . S
C503 C509 1.429 . S
C504 C496 1.574 . S
C504 H499 0.949 . S
C504 C510 1.368 1_455 S
C505 C489 1.349 1_655 S
C505 H497 0.950 . S
C505 C503 1.327 . S
C506 C494 1.349 . S
C506 H500 0.984 . S
C506 C507 1.327 . S
C507 H501 0.950 1_655 S
C507 C506 1.327 . S
C507 C511 1.429 . S
C508 C491 1.574 . S
C508 H502 0.949 . S
C508 C512 1.368 . S
C509 C490 1.429 1_655 S
C509 C503 1.429 . S
C509 C510 1.523 . S
C510 C491 1.368 . S
C510 C504 1.368 1_655 S
C510 C509 1.523 . S
C511 C495 1.429 . S
C511 C507 1.429 . S
C511 C512 1.523 . S
C512 C496 1.368 1_655 S
C512 C508 1.368 . S
C512 C511 1.523 . S
H513 C488 0.950 . S
H514 C490 0.950 . S
H515 C491 0.949 . S
H516 C493 0.950 . S
H517 C495 0.950 . S
C518 C519 1.349 . S
C518 C520 1.327 . S
C518 H543 0.950 . S
C519 C518 1.349 . S
C519 C535 1.349 1_545 S
C520 C518 1.327 . S
C520 C539 1.429 1_545 S
C520 H544 0.950 . S
C521 C538 1.574 . S
C521 C540 1.368 . S
C521 H545 0.949 . S
H522 C526 0.943 1_545 S
C523 C524 1.349 . S
C523 C525 1.327 . S
C523 H546 0.950 . S
C524 C523 1.349 . S
C524 C536 1.349 . S
C525 C523 1.327 . S
C525 C541 1.429 . S
C525 H547 0.950 . S
C526 H522 0.943 1_565 S
C526 C534 1.579 . S
C526 C542 1.368 . S
H527 C535 0.950 . S
H528 C533 0.950 . S
H529 C534 0.934 1_545 S
H530 C536 0.950 . S
H531 C537 0.950 . S
H532 C538 0.949 . S
C533 H528 0.950 . S
C533 C535 1.327 . S
C533 C539 1.429 . S
C534 C526 1.579 . S
C534 H529 0.934 1_565 S
C534 C540 1.380 . S
C535 C519 1.349 1_565 S
C535 H527 0.950 . S
C535 C533 1.327 . S
C536 C524 1.349 . S
C536 H530 0.950 . S
C536 C537 1.327 . S
C537 H531 0.950 . S
C537 C536 1.327 . S
C537 C541 1.429 . S
C538 C521 1.574 . S
C538 H532 0.949 . S
C538 C542 1.368 . S
C539 C520 1.429 1_565 S
C539 C533 1.429 . S
C539 C540 1.523 . S
C540 C521 1.368 . S
C540 C534 1.380 . S
C540 C539 1.523 . S
C541 C525 1.429 . S
C541 C537 1.429 . S
C541 C542 1.523 . S
C542 C526 1.368 . S
C542 C538 1.368 . S
C542 C541 1.523 . S
H543 C518 0.950 . S
H544 C520 0.950 . S
H545 C521 0.949 . S
H546 C523 0.950 . S
H547 C525 0.950 . S
C548 C549 1.349 . S
C548 C550 1.327 . S
C548 H573 0.950 . S
C549 C548 1.349 . S
C549 C565 1.349 . S
C550 C548 1.327 . S
C550 C569 1.429 . S
C550 H574 0.950 . S
C551 C568 1.574 . S
C551 C570 1.368 . S
C551 H575 0.949 . S
H552 C556 0.949 . S
C553 C554 1.349 . S
C553 C555 1.327 . S
C553 H576 0.950 . S
C554 C553 1.349 . S
C554 C566 1.349 . S
C555 C553 1.327 . S
C555 C571 1.429 . S
C555 H577 0.950 . S
C556 H552 0.949 . S
C556 C564 1.574 . S
C556 C572 1.368 . S
H557 C565 0.950 . S
H558 C563 0.950 . S
H559 C564 0.949 . S
H560 C566 0.950 . S
H561 C567 0.950 . S
H562 C568 0.949 . S
C563 H558 0.950 . S
C563 C565 1.327 . S
C563 C569 1.429 . S
C564 C556 1.574 . S
C564 H559 0.949 . S
C564 C570 1.368 . S
C565 C549 1.349 . S
C565 H557 0.950 . S
C565 C563 1.327 . S
C566 C554 1.349 . S
C566 H560 0.950 . S
C566 C567 1.327 . S
C567 H561 0.950 . S
C567 C566 1.327 . S
C567 C571 1.429 . S
C568 C551 1.574 . S
C568 H562 0.949 . S
C568 C572 1.368 . S
C569 C550 1.429 . S
C569 C563 1.429 . S
C569 C570 1.523 . S
C570 C551 1.368 . S
C570 C564 1.368 . S
C570 C569 1.523 . S
C571 C555 1.429 . S
C571 C567 1.429 . S
C571 C572 1.523 . S
C572 C556 1.368 . S
C572 C568 1.368 . S
C572 C571 1.523 . S
H573 C548 0.950 . S
H574 C550 0.950 . S
H575 C551 0.949 . S
H576 C553 0.950 . S
H577 C555 0.950 . S
C578 C579 1.349 . S
C578 C580 1.327 . S
C578 H603 0.950 . S
C579 C578 1.349 . S
C579 C595 1.349 . S
C580 C578 1.327 . S
C580 C599 1.429 . S
C580 H604 0.950 . S
C581 C598 1.574 . S
C581 C600 1.368 . S
C581 H605 0.949 . S
H582 C586 0.949 . S
C583 C584 1.349 . S
C583 C585 1.327 . S
C583 H606 0.950 . S
C584 C583 1.349 . S
C584 C596 1.349 . S
C585 C583 1.327 . S
C585 C601 1.429 . S
C585 H607 0.950 . S
C586 H582 0.949 . S
C586 C594 1.574 . S
C586 C602 1.368 . S
H587 C595 0.950 . S
H588 C593 0.950 . S
H589 C594 0.949 . S
H590 C596 0.950 . S
H591 C597 0.950 . S
H592 C598 0.949 . S
C593 H588 0.950 . S
C593 C595 1.327 . S
C593 C599 1.429 . S
C594 C586 1.574 . S
C594 H589 0.949 . S
C594 C600 1.368 . S
C595 C579 1.349 . S
C595 H587 0.950 . S
C595 C593 1.327 . S
C596 C584 1.349 . S
C596 H590 0.950 . S
C596 C597 1.327 . S
C597 H591 0.950 . S
C597 C596 1.327 . S
C597 C601 1.429 . S
C598 C581 1.574 . S
C598 H592 0.949 . S
C598 C602 1.368 . S
C599 C580 1.429 . S
C599 C593 1.429 . S
C599 C600 1.523 . S
C600 C581 1.368 . S
C600 C594 1.368 . S
C600 C599 1.523 . S
C601 C585 1.429 . S
C601 C597 1.429 . S
C601 C602 1.523 . S
C602 C586 1.368 . S
C602 C598 1.368 . S
C602 C601 1.523 . S
H603 C578 0.950 . S
H604 C580 0.950 . S
H605 C581 0.949 . S
H606 C583 0.950 . S
H607 C585 0.950 . S
C608 C609 1.349 . S
C608 C610 1.327 . S
C608 H633 0.950 . S
C609 C608 1.349 . S
C609 C625 1.349 1_655 S
C610 C608 1.327 . S
C610 C629 1.429 1_655 S
C610 H634 0.950 . S
C611 C628 1.574 . S
C611 C630 1.368 . S
C611 H635 0.949 . S
H612 C616 0.949 1_655 S
C613 C614 1.349 1_554 S
C613 C615 1.327 . S
C613 H636 0.950 . S
C614 C613 1.349 1_556 S
C614 C626 1.349 . S
C615 C613 1.327 . S
C615 C631 1.429 . S
C615 H637 0.950 . S
C616 H612 0.949 1_455 S
C616 C624 1.568 1_455 S
C616 C632 1.368 . S
H617 C625 0.950 . S
H618 C623 0.950 . S
H619 C624 0.971 . S
H620 C626 0.950 . S
H621 C627 0.950 . S
H622 C628 0.949 . S
C623 H618 0.950 . S
C623 C625 1.327 . S
C623 C629 1.429 . S
C624 C616 1.568 1_655 S
C624 H619 0.971 . S
C624 C630 1.351 1_655 S
C625 C609 1.349 1_455 S
C625 H617 0.950 . S
C625 C623 1.327 . S
C626 C614 1.349 . S
C626 H620 0.950 . S
C626 C627 1.327 . S
C627 H621 0.950 . S
C627 C626 1.327 . S
C627 C631 1.429 1_556 S
C628 C611 1.574 . S
C628 H622 0.949 . S
C628 C632 1.368 . S
C629 C610 1.429 1_455 S
C629 C623 1.429 . S
C629 C630 1.523 . S
C630 C611 1.368 . S
C630 C624 1.351 1_455 S
C630 C629 1.523 . S
C631 C615 1.429 . S
C631 C627 1.429 1_554 S
C631 C632 1.523 . S
C632 C616 1.368 . S
C632 C628 1.368 . S
C632 C631 1.523 . S
H633 C608 0.950 . S
H634 C610 0.950 . S
H635 C611 0.949 . S
H636 C613 0.950 . S
H637 C615 0.950 . S
C638 C639 1.349 . S
C638 C640 1.327 . S
C638 H663 0.950 . S
C639 C638 1.349 . S
C639 C655 1.349 1_565 S
C640 C638 1.327 . S
C640 C659 1.429 1_565 S
C640 H664 0.950 . S
C641 C658 1.574 . S
C641 C660 1.368 . S
C641 H665 0.949 . S
H642 C646 0.952 1_565 S
C643 C644 1.349 . S
C643 C645 1.327 1_556 S
C643 H666 0.950 . S
C644 C643 1.349 . S
C644 C656 1.349 1_556 S
C645 C643 1.327 1_554 S
C645 C661 1.429 . S
C645 H667 0.950 1_554 S
C646 H642 0.952 1_545 S
C646 C654 1.575 1_545 S
C646 C662 1.364 . S
H647 C655 0.950 . S
H648 C653 0.950 . S
H649 C654 0.949 . S
H650 C656 0.950 . S
H651 C657 0.950 1_565 S
H652 C658 0.949 . S
C653 H648 0.950 . S
C653 C655 1.327 . S
C653 C659 1.429 . S
C654 C646 1.575 1_565 S
C654 H649 0.949 . S
C654 C660 1.368 1_565 S
C655 C639 1.349 1_545 S
C655 H647 0.950 . S
C655 C653 1.327 . S
C656 C644 1.349 1_554 S
C656 H650 0.950 . S
C656 C657 1.327 . S
C657 H651 0.950 1_545 S
C657 C656 1.327 . S
C657 C661 1.429 . S
C658 C641 1.574 . S
C658 H652 0.949 . S
C658 C662 1.368 . S
C659 C640 1.429 1_545 S
C659 C653 1.429 . S
C659 C660 1.523 . S
C660 C641 1.368 . S
C660 C654 1.368 1_545 S
C660 C659 1.523 . S
C661 C645 1.429 . S
C661 C657 1.429 . S
C661 C662 1.523 . S
C662 C646 1.364 . S
C662 C658 1.368 . S
C662 C661 1.523 . S
H663 C638 0.950 . S
H664 C640 0.950 . S
H665 C641 0.949 . S
H666 C643 0.950 . S
H667 C645 0.950 1_556 S
C668 C669 1.349 . S
C668 C670 1.327 . S
C668 H693 0.950 . S
C669 C668 1.349 . S
C669 C685 1.349 . S
C670 C668 1.327 . S
C670 C689 1.429 . S
C670 H694 0.950 . S
C671 C688 1.574 . S
C671 C690 1.368 . S
C671 H695 0.949 . S
H672 C676 0.949 . S
C673 C674 1.349 1_554 S
C673 C675 1.327 . S
C673 H696 0.950 . S
C674 C673 1.349 1_556 S
C674 C686 1.349 . S
C675 C673 1.327 . S
C675 C691 1.429 . S
C675 H697 0.950 . S
C676 H672 0.949 . S
C676 C684 1.574 . S
C676 C692 1.368 . S
H677 C685 0.950 . S
H678 C683 0.950 . S
H679 C684 0.949 . S
H680 C686 0.950 . S
H681 C687 0.950 . S
H682 C688 0.949 . S
C683 H678 0.950 . S
C683 C685 1.327 . S
C683 C689 1.429 . S
C684 C676 1.574 . S
C684 H679 0.949 . S
C684 C690 1.368 . S
C685 C669 1.349 . S
C685 H677 0.950 . S
C685 C683 1.327 . S
C686 C674 1.349 . S
C686 H680 0.950 . S
C686 C687 1.327 . S
C687 H681 0.950 . S
C687 C686 1.327 . S
C687 C691 1.429 1_556 S
C688 C671 1.574 . S
C688 H682 0.949 . S
C688 C692 1.368 . S
C689 C670 1.429 . S
C689 C683 1.429 . S
C689 C690 1.523 . S
C690 C671 1.368 . S
C690 C684 1.368 . S
C690 C689 1.523 . S
C691 C675 1.429 . S
C691 C687 1.429 1_554 S
C691 C692 1.523 . S
C692 C676 1.368 . S
C692 C688 1.368 . S
C692 C691 1.523 . S
H693 C668 0.950 . S
H694 C670 0.950 . S
H695 C671 0.949 . S
H696 C673 0.950 . S
H697 C675 0.950 . S
C698 C699 1.349 . S
C698 C700 1.327 . S
C698 H723 0.950 . S
C699 C698 1.349 . S
C699 C715 1.349 . S
C700 C698 1.327 . S
C700 C719 1.429 . S
C700 H724 0.950 . S
C701 C718 1.574 . S
C701 C720 1.368 . S
C701 H725 0.949 . S
H702 C706 0.949 . S
C703 C704 1.349 1_554 S
C703 C705 1.327 . S
C703 H726 0.950 . S
C704 C703 1.349 1_556 S
C704 C716 1.349 . S
C705 C703 1.327 . S
C705 C721 1.429 . S
C705 H727 0.950 . S
C706 H702 0.949 . S
C706 C714 1.574 . S
C706 C722 1.368 . S
H707 C715 0.950 . S
H708 C713 0.950 . S
H709 C714 0.949 . S
H710 C716 0.950 . S
H711 C717 0.950 . S
H712 C718 0.949 . S
C713 H708 0.950 . S
C713 C715 1.327 . S
C713 C719 1.429 . S
C714 C706 1.574 . S
C714 H709 0.949 . S
C714 C720 1.368 . S
C715 C699 1.349 . S
C715 H707 0.950 . S
C715 C713 1.327 . S
C716 C704 1.349 . S
C716 H710 0.950 . S
C716 C717 1.327 . S
C717 H711 0.950 . S
C717 C716 1.327 . S
C717 C721 1.429 1_556 S
C718 C701 1.574 . S
C718 H712 0.949 . S
C718 C722 1.368 . S
C719 C700 1.429 . S
C719 C713 1.429 . S
C719 C720 1.523 . S
C720 C701 1.368 . S
C720 C714 1.368 . S
C720 C719 1.523 . S
C721 C705 1.429 . S
C721 C717 1.429 1_554 S
C721 C722 1.523 . S
C722 C706 1.368 . S
C722 C718 1.368 . S
C722 C721 1.523 . S
H723 C698 0.950 . S
H724 C700 0.950 . S
H725 C701 0.949 . S
H726 C703 0.950 . S
H727 C705 0.950 . S
C728 C729 1.349 1_655 S
C728 C730 1.327 . S
C728 H753 0.950 . S
C729 C728 1.349 1_455 S
C729 C745 1.349 . S
C730 C728 1.327 . S
C730 C749 1.429 1_655 S
C730 H754 0.950 . S
C731 C748 1.574 . S
C731 C750 1.368 . S
C731 H755 0.949 . S
H732 C736 0.949 . S
C733 C734 1.349 . S
C733 C735 1.327 . S
C733 H756 0.950 . S
C734 C733 1.349 . S
C734 C746 1.349 1_455 S
C735 C733 1.327 . S
C735 C751 1.429 . S
C735 H757 0.950 . S
C736 H732 0.949 . S
C736 C744 1.574 . S
C736 C752 1.368 1_655 S
H737 C745 0.950 . S
H738 C743 0.950 . S
H739 C744 0.949 . S
H740 C746 0.950 . S
H741 C747 0.950 . S
H742 C748 0.949 . S
C743 H738 0.950 . S
C743 C745 1.327 . S
C743 C749 1.429 . S
C744 C736 1.574 . S
C744 H739 0.949 . S
C744 C750 1.368 1_655 S
C745 C729 1.349 . S
C745 H737 0.950 . S
C745 C743 1.327 . S
C746 C734 1.349 1_655 S
C746 H740 0.950 . S
C746 C747 1.327 . S
C747 H741 0.950 . S
C747 C746 1.327 . S
C747 C751 1.429 1_655 S
C748 C731 1.574 . S
C748 H742 0.949 . S
C748 C752 1.368 . S
C749 C730 1.429 1_455 S
C749 C743 1.429 . S
C749 C750 1.523 . S
C750 C731 1.368 . S
C750 C744 1.368 1_455 S
C750 C749 1.523 . S
C751 C735 1.429 . S
C751 C747 1.429 1_455 S
C751 C752 1.523 . S
C752 C736 1.368 1_455 S
C752 C748 1.368 . S
C752 C751 1.523 . S
H753 C728 0.950 . S
H754 C730 0.950 . S
H755 C731 0.949 . S
H756 C733 0.950 . S
H757 C735 0.950 . S
C758 C759 1.349 . S
C758 C760 1.327 . S
C758 H783 0.950 . S
C759 C758 1.349 . S
C759 C775 1.349 1_545 S
C760 C758 1.327 . S
C760 C779 1.429 . S
C760 H784 0.950 . S
C761 C778 1.574 . S
C761 C780 1.368 1_565 S
C761 H785 0.949 . S
H762 C766 0.949 . S
C763 C764 1.349 1_565 S
C763 C765 1.327 . S
C763 H786 0.950 . S
C764 C763 1.349 1_545 S
C764 C776 1.349 . S
C765 C763 1.327 . S
C765 C781 1.429 1_565 S
C765 H787 0.950 . S
C766 H762 0.949 . S
C766 C774 1.574 . S
C766 C782 1.368 . S
H767 C775 0.950 . S
H768 C773 0.950 . S
H769 C774 0.949 . S
H770 C776 0.950 . S
H771 C777 0.950 . S
H772 C778 0.949 . S
C773 H768 0.950 . S
C773 C775 1.327 . S
C773 C779 1.429 1_565 S
C774 C766 1.574 . S
C774 H769 0.949 . S
C774 C780 1.368 . S
C775 C759 1.349 1_565 S
C775 H767 0.950 . S
C775 C773 1.327 . S
C776 C764 1.349 . S
C776 H770 0.950 . S
C776 C777 1.327 . S
C777 H771 0.950 . S
C777 C776 1.327 . S
C777 C781 1.429 . S
C778 C761 1.574 . S
C778 H772 0.949 . S
C778 C782 1.368 1_565 S
C779 C760 1.429 . S
C779 C773 1.429 1_545 S
C779 C780 1.523 . S
C780 C761 1.368 1_545 S
C780 C774 1.368 . S
C780 C779 1.523 . S
C781 C765 1.429 1_545 S
C781 C777 1.429 . S
C781 C782 1.523 . S
C782 C766 1.368 . S
C782 C778 1.368 1_545 S
C782 C781 1.523 . S
H783 C758 0.950 . S
H784 C760 0.950 . S
H785 C761 0.949 . S
H786 C763 0.950 . S
H787 C765 0.950 . S
C788 C789 1.349 . S
C788 C790 1.327 . S
C788 H813 0.950 . S
C789 C788 1.349 . S
C789 C805 1.349 . S
C790 C788 1.327 . S
C790 C809 1.429 . S
C790 H814 0.950 . S
C791 C808 1.574 . S
C791 C810 1.368 . S
C791 H815 0.949 . S
H792 C796 0.949 . S
C793 C794 1.349 . S
C793 C795 1.327 . S
C793 H816 0.950 . S
C794 C793 1.349 . S
C794 C806 1.349 . S
C795 C793 1.327 . S
C795 C811 1.429 . S
C795 H817 0.950 . S
C796 H792 0.949 . S
C796 C804 1.574 . S
C796 C812 1.368 . S
H797 C805 0.950 . S
H798 C803 0.950 . S
H799 C804 0.949 . S
H800 C806 0.950 . S
H801 C807 0.950 . S
H802 C808 0.949 . S
C803 H798 0.950 . S
C803 C805 1.327 . S
C803 C809 1.429 . S
C804 C796 1.574 . S
C804 H799 0.949 . S
C804 C810 1.368 . S
C805 C789 1.349 . S
C805 H797 0.950 . S
C805 C803 1.327 . S
C806 C794 1.349 . S
C806 H800 0.950 . S
C806 C807 1.327 . S
C807 H801 0.950 . S
C807 C806 1.327 . S
C807 C811 1.429 . S
C808 C791 1.574 . S
C808 H802 0.949 . S
C808 C812 1.368 . S
C809 C790 1.429 . S
C809 C803 1.429 . S
C809 C810 1.523 . S
C810 C791 1.368 . S
C810 C804 1.368 . S
C810 C809 1.523 . S
C811 C795 1.429 . S
C811 C807 1.429 . S
C811 C812 1.523 . S
C812 C796 1.368 . S
C812 C808 1.368 . S
C812 C811 1.523 . S
H813 C788 0.950 . S
H814 C790 0.950 . S
H815 C791 0.949 . S
H816 C793 0.950 . S
H817 C795 0.950 . S
C818 C819 1.349 . S
C818 C820 1.327 . S
C818 H843 0.950 . S
C819 C818 1.349 . S
C819 C835 1.349 . S
C820 C818 1.327 . S
C820 C839 1.429 . S
C820 H844 0.950 . S
C821 C838 1.574 . S
C821 C840 1.368 . S
C821 H845 0.949 . S
H822 C826 0.949 . S
C823 C824 1.349 . S
C823 C825 1.327 . S
C823 H846 0.950 . S
C824 C823 1.349 . S
C824 C836 1.349 . S
C825 C823 1.327 . S
C825 C841 1.429 . S
C825 H847 0.950 . S
C826 H822 0.949 . S
C826 C834 1.574 . S
C826 C842 1.368 . S
H827 C835 0.950 . S
H828 C833 0.950 . S
H829 C834 0.949 . S
H830 C836 0.950 . S
H831 C837 0.950 . S
H832 C838 0.949 . S
C833 H828 0.950 . S
C833 C835 1.327 . S
C833 C839 1.429 . S
C834 C826 1.574 . S
C834 H829 0.949 . S
C834 C840 1.368 . S
C835 C819 1.349 . S
C835 H827 0.950 . S
C835 C833 1.327 . S
C836 C824 1.349 . S
C836 H830 0.950 . S
C836 C837 1.327 . S
C837 H831 0.950 . S
C837 C836 1.327 . S
C837 C841 1.429 . S
C838 C821 1.574 . S
C838 H832 0.949 . S
C838 C842 1.368 . S
C839 C820 1.429 . S
C839 C833 1.429 . S
C839 C840 1.523 . S
C840 C821 1.368 . S
C840 C834 1.368 . S
C840 C839 1.523 . S
C841 C825 1.429 . S
C841 C837 1.429 . S
C841 C842 1.523 . S
C842 C826 1.368 . S
C842 C838 1.368 . S
C842 C841 1.523 . S
H843 C818 0.950 . S
H844 C820 0.950 . S
H845 C821 0.949 . S
H846 C823 0.950 . S
H847 C825 0.950 . S
C848 C849 1.349 . S
C848 C850 1.327 . S
C848 H873 0.950 . S
C849 C848 1.349 . S
C849 C865 1.349 1_655 S
C850 C848 1.327 . S
C850 C869 1.429 . S
C850 H874 0.950 . S
C851 C868 1.574 . S
C851 C870 1.368 1_455 S
C851 H875 0.949 . S
H852 C856 0.949 . S
C853 C854 1.349 1_455 S
C853 C855 1.327 . S
C853 H876 0.950 . S
C854 C853 1.349 1_655 S
C854 C866 1.349 . S
C855 C853 1.327 . S
C855 C871 1.429 1_455 S
C855 H877 0.950 . S
C856 H852 0.949 . S
C856 C864 1.574 . S
C856 C872 1.368 . S
H857 C865 0.950 . S
H858 C863 0.950 . S
H859 C864 0.949 . S
H860 C866 0.950 . S
H861 C867 0.950 . S
H862 C868 0.949 . S
C863 H858 0.950 . S
C863 C865 1.327 . S
C863 C869 1.429 1_455 S
C864 C856 1.574 . S
C864 H859 0.949 . S
C864 C870 1.368 . S
C865 C849 1.349 1_455 S
C865 H857 0.950 . S
C865 C863 1.327 . S
C866 C854 1.349 . S
C866 H860 0.950 . S
C866 C867 1.327 . S
C867 H861 0.950 . S
C867 C866 1.327 . S
C867 C871 1.429 . S
C868 C851 1.574 . S
C868 H862 0.949 . S
C868 C872 1.368 1_455 S
C869 C850 1.429 . S
C869 C863 1.429 1_655 S
C869 C870 1.523 . S
C870 C851 1.368 1_655 S
C870 C864 1.368 . S
C870 C869 1.523 . S
C871 C855 1.429 1_655 S
C871 C867 1.429 . S
C871 C872 1.523 . S
C872 C856 1.368 . S
C872 C868 1.368 1_655 S
C872 C871 1.523 . S
H873 C848 0.950 . S
H874 C850 0.950 . S
H875 C851 0.949 . S
H876 C853 0.950 . S
H877 C855 0.950 . S
C878 C879 1.349 . S
C878 C880 1.327 . S
C878 H903 0.950 . S
C879 C878 1.349 . S
C879 C895 1.349 1_565 S
C880 C878 1.327 . S
C880 C899 1.429 . S
C880 H904 0.950 . S
C881 C898 1.574 . S
C881 C900 1.368 1_545 S
C881 H905 0.949 . S
H882 C886 0.949 . S
C883 C884 1.349 1_545 S
C883 C885 1.327 . S
C883 H906 0.950 . S
C884 C883 1.349 1_565 S
C884 C896 1.349 . S
C885 C883 1.327 . S
C885 C901 1.429 1_545 S
C885 H907 0.950 . S
C886 H882 0.949 . S
C886 C894 1.574 . S
C886 C902 1.368 . S
H887 C895 0.950 . S
H888 C893 0.950 . S
H889 C894 0.949 . S
H890 C896 0.950 . S
H891 C897 0.950 . S
H892 C898 0.949 . S
C893 H888 0.950 . S
C893 C895 1.327 . S
C893 C899 1.429 1_545 S
C894 C886 1.574 . S
C894 H889 0.949 . S
C894 C900 1.368 . S
C895 C879 1.349 1_545 S
C895 H887 0.950 . S
C895 C893 1.327 . S
C896 C884 1.349 . S
C896 H890 0.950 . S
C896 C897 1.327 . S
C897 H891 0.950 . S
C897 C896 1.327 . S
C897 C901 1.429 . S
C898 C881 1.574 . S
C898 H892 0.949 . S
C898 C902 1.368 1_545 S
C899 C880 1.429 . S
C899 C893 1.429 1_565 S
C899 C900 1.523 . S
C900 C881 1.368 1_565 S
C900 C894 1.368 . S
C900 C899 1.523 . S
C901 C885 1.429 1_565 S
C901 C897 1.429 . S
C901 C902 1.523 . S
C902 C886 1.368 . S
C902 C898 1.368 1_565 S
C902 C901 1.523 . S
H903 C878 0.950 . S
H904 C880 0.950 . S
H905 C881 0.949 . S
H906 C883 0.950 . S
H907 C885 0.950 . S
C908 C909 1.349 . S
C908 C910 1.327 . S
C908 H933 0.950 . S
C909 C908 1.349 . S
C909 C925 1.349 . S
C910 C908 1.327 . S
C910 C929 1.429 . S
C910 H934 0.950 . S
C911 C928 1.574 . S
C911 C930 1.368 . S
C911 H935 0.949 . S
H912 C916 0.949 . S
C913 C914 1.349 . S
C913 C915 1.327 . S
C913 H936 0.950 . S
C914 C913 1.349 . S
C914 C926 1.349 . S
C915 C913 1.327 . S
C915 C931 1.429 . S
C915 H937 0.950 . S
C916 H912 0.949 . S
C916 C924 1.574 . S
C916 C932 1.368 . S
H917 C925 0.950 . S
H918 C923 0.950 . S
H919 C924 0.949 . S
H920 C926 0.950 . S
H921 C927 0.950 . S
H922 C928 0.949 . S
C923 H918 0.950 . S
C923 C925 1.327 . S
C923 C929 1.429 . S
C924 C916 1.574 . S
C924 H919 0.949 . S
C924 C930 1.368 . S
C925 C909 1.349 . S
C925 H917 0.950 . S
C925 C923 1.327 . S
C926 C914 1.349 . S
C926 H920 0.950 . S
C926 C927 1.327 . S
C927 H921 0.950 . S
C927 C926 1.327 . S
C927 C931 1.429 . S
C928 C911 1.574 . S
C928 H922 0.949 . S
C928 C932 1.368 . S
C929 C910 1.429 . S
C929 C923 1.429 . S
C929 C930 1.523 . S
C930 C911 1.368 . S
C930 C924 1.368 . S
C930 C929 1.523 . S
C931 C915 1.429 . S
C931 C927 1.429 . S
C931 C932 1.523 . S
C932 C916 1.368 . S
C932 C928 1.368 . S
C932 C931 1.523 . S
H933 C908 0.950 . S
H934 C910 0.950 . S
H935 C911 0.949 . S
H936 C913 0.950 . S
H937 C915 0.950 . S
C938 C939 1.349 . S
C938 C940 1.327 . S
C938 H963 0.950 . S
C939 C938 1.349 . S
C939 C955 1.349 . S
C940 C938 1.327 . S
C940 C959 1.429 . S
C940 H964 0.950 . S
C941 C958 1.574 . S
C941 C960 1.368 . S
C941 H965 0.949 . S
H942 C946 0.949 . S
C943 C944 1.349 . S
C943 C945 1.327 . S
C943 H966 0.950 . S
C944 C943 1.349 . S
C944 C956 1.349 . S
C945 C943 1.327 . S
C945 C961 1.429 . S
C945 H967 0.950 . S
C946 H942 0.949 . S
C946 C954 1.574 . S
C946 C962 1.368 . S
H947 C955 0.950 . S
H948 C953 0.950 . S
H949 C954 0.949 . S
H950 C956 0.950 . S
H951 C957 0.950 . S
H952 C958 0.949 . S
C953 H948 0.950 . S
C953 C955 1.327 . S
C953 C959 1.429 . S
C954 C946 1.574 . S
C954 H949 0.949 . S
C954 C960 1.368 . S
C955 C939 1.349 . S
C955 H947 0.950 . S
C955 C953 1.327 . S
C956 C944 1.349 . S
C956 H950 0.950 . S
C956 C957 1.327 . S
C957 H951 0.950 . S
C957 C956 1.327 . S
C957 C961 1.429 . S
C958 C941 1.574 . S
C958 H952 0.949 . S
C958 C962 1.368 . S
C959 C940 1.429 . S
C959 C953 1.429 . S
C959 C960 1.523 . S
C960 C941 1.368 . S
C960 C954 1.368 . S
C960 C959 1.523 . S
C961 C945 1.429 . S
C961 C957 1.429 . S
C961 C962 1.523 . S
C962 C946 1.368 . S
C962 C958 1.368 . S
C962 C961 1.523 . S
H963 C938 0.950 . S
H964 C940 0.950 . S
H965 C941 0.949 . S
H966 C943 0.950 . S
H967 C945 0.950 . S
C249 C76 1.734 . S
C254 C97 1.810 1_545 S
C284 C137 1.817 . S
C279 C87 1.736 . S
C314 C177 1.816 . S
C309 C54 1.735 . S
C344 C217 1.811 1_455 S
C339 C65 1.733 . S
C374 C106 1.812 1_565 S
C369 C32 1.738 . S
C399 C43 1.734 . S
C404 C146 1.815 . S
C429 C10 1.735 . S
C434 C186 1.816 . S
C459 C21 1.735 . S
C464 C226 1.817 1_655 S
C494 C103 0.326 . S
C489 C60 0.398 . S
C524 C143 0.326 . S
C519 C71 0.401 . S
C554 C183 0.326 . S
C549 C82 0.387 . S
C579 C49 0.387 . S
C584 C223 0.323 . S
C609 C16 0.396 . S
C614 C94 0.324 . S
C644 C134 0.326 . S
C639 C27 0.397 1_565 S
C674 C174 0.326 . S
C669 C38 0.398 . S
C699 C5 0.397 . S
C704 C214 0.330 . S
C729 C59 1.864 . S
C734 C107 2.057 . S
C759 C70 1.865 . S
C764 C147 2.057 . S
C794 C187 2.058 . S
C789 C81 1.865 . S
C824 C227 2.057 . S
C819 C48 1.859 . S
C849 C15 1.868 1_655 S
C854 C98 2.058 . S
C884 C138 2.057 . S
C879 C26 1.866 1_565 S
C914 C178 2.056 . S
C909 C37 1.867 . S
C939 C4 1.868 . S
C944 C218 2.063 . S
