# Generated by pormake.
# Topology zzz, (3,6)-cn, num edge types: 1
# Building blocks:
#     Node 0, Type 0, BuildingBlock: KAKCAD_clean_linker_0, # of connection points: 3
#     Node 1, Type 0, BuildingBlock: KAKCAD_clean_linker_0, # of connection points: 3
#     Node 2, Type 0, BuildingBlock: KAKCAD_clean_linker_0, # of connection points: 3
#     Node 3, Type 0, BuildingBlock: KAKCAD_clean_linker_0, # of connection points: 3
#     Node 4, Type 0, BuildingBlock: KAKCAD_clean_linker_0, # of connection points: 3
#     Node 5, Type 0, BuildingBlock: KAKCAD_clean_linker_0, # of connection points: 3
#     Node 6, Type 0, BuildingBlock: KAKCAD_clean_linker_0, # of connection points: 3
#     Node 7, Type 0, BuildingBlock: KAKCAD_clean_linker_0, # of connection points: 3
#     Node 8, Type 1, BuildingBlock: GEDQOX_clean_sbu_0, # of connection points: 6
#     Node 9, Type 1, BuildingBlock: GEDQOX_clean_sbu_0, # of connection points: 6
#     Node 10, Type 1, BuildingBlock: GEDQOX_clean_sbu_0, # of connection points: 6
#     Node 11, Type 1, BuildingBlock: GEDQOX_clean_sbu_0, # of connection points: 6
#     Edge 12, Type (0, 1), BuildingBlock: CIFDUS_clean_linker_0, # of connection points: 2
#     Edge 13, Type (0, 1), BuildingBlock: CIFDUS_clean_linker_0, # of connection points: 2
#     Edge 14, Type (0, 1), BuildingBlock: CIFDUS_clean_linker_0, # of connection points: 2
#     Edge 15, Type (0, 1), BuildingBlock: CIFDUS_clean_linker_0, # of connection points: 2
#     Edge 16, Type (0, 1), BuildingBlock: CIFDUS_clean_linker_0, # of connection points: 2
#     Edge 17, Type (0, 1), BuildingBlock: CIFDUS_clean_linker_0, # of connection points: 2
#     Edge 18, Type (0, 1), BuildingBlock: CIFDUS_clean_linker_0, # of connection points: 2
#     Edge 19, Type (0, 1), BuildingBlock: CIFDUS_clean_linker_0, # of connection points: 2
#     Edge 20, Type (0, 1), BuildingBlock: CIFDUS_clean_linker_0, # of connection points: 2
#     Edge 21, Type (0, 1), BuildingBlock: CIFDUS_clean_linker_0, # of connection points: 2
#     Edge 22, Type (0, 1), BuildingBlock: CIFDUS_clean_linker_0, # of connection points: 2
#     Edge 23, Type (0, 1), BuildingBlock: CIFDUS_clean_linker_0, # of connection points: 2
#     Edge 24, Type (0, 1), BuildingBlock: CIFDUS_clean_linker_0, # of connection points: 2
#     Edge 25, Type (0, 1), BuildingBlock: CIFDUS_clean_linker_0, # of connection points: 2
#     Edge 26, Type (0, 1), BuildingBlock: CIFDUS_clean_linker_0, # of connection points: 2
#     Edge 27, Type (0, 1), BuildingBlock: CIFDUS_clean_linker_0, # of connection points: 2
#     Edge 28, Type (0, 1), BuildingBlock: CIFDUS_clean_linker_0, # of connection points: 2
#     Edge 29, Type (0, 1), BuildingBlock: CIFDUS_clean_linker_0, # of connection points: 2
#     Edge 30, Type (0, 1), BuildingBlock: CIFDUS_clean_linker_0, # of connection points: 2
#     Edge 31, Type (0, 1), BuildingBlock: CIFDUS_clean_linker_0, # of connection points: 2
#     Edge 32, Type (0, 1), BuildingBlock: CIFDUS_clean_linker_0, # of connection points: 2
#     Edge 33, Type (0, 1), BuildingBlock: CIFDUS_clean_linker_0, # of connection points: 2
#     Edge 34, Type (0, 1), BuildingBlock: CIFDUS_clean_linker_0, # of connection points: 2
#     Edge 35, Type (0, 1), BuildingBlock: CIFDUS_clean_linker_0, # of connection points: 2
# Relax obj value: 0.308
# Max RMSD: 0.269
# Mean RMSD: 0.194
data_MOF--net-zzz--node1-GEDQOX_clean_sbu_0--node2-KAKCAD_clean_linker_0--edge1-CIFDUS_clean_linker_0
_symmetry_space_group_name_H-M    P1
_symmetry_Int_Tables_number       1
_symmetry_cell_setting            triclinic
loop_
_symmetry_equiv_pos_as_xyz
'x, y, z'
_cell_length_a     57.252696
_cell_length_b     51.766525
_cell_length_c     19.641532
_cell_angle_alpha  81.022057
_cell_angle_beta   91.1151
_cell_angle_gamma 102.17637
loop_
_atom_site_label
_atom_site_type_symbol
_atom_site_fract_x
_atom_site_fract_y
_atom_site_fract_z
_atom_type_partial_charge
C0 C 0.82198 0.46978 0.97109 0.0
C1 C 0.83203 0.44686 0.98032 0.0
C2 C 0.80281 0.47117 1.01234 0.0
C3 C 0.79355 0.44988 0.0643 0.0
C4 C 0.8024 0.42636 0.07101 0.0
C5 C 0.82121 0.42469 0.0287 0.0
C6 C 0.77754 0.45392 0.11779 0.0
C7 C 0.75483 0.45894 0.10154 0.0
C8 C 0.74061 0.46472 0.15234 0.0
C9 C 0.74965 0.46647 0.21892 0.0
C10 C 0.77272 0.46227 0.23502 0.0
C11 C 0.78627 0.45536 0.1845 0.0
C12 C 0.78403 0.46776 0.30133 0.0
C13 C 0.78381 0.49198 0.32496 0.0
C14 C 0.79783 0.45056 0.33628 0.0
C15 C 0.81238 0.45823 0.39061 0.0
C16 C 0.81357 0.48335 0.41096 0.0
C17 C 0.71659 0.46974 0.1351 0.0
C18 C 0.71378 0.49041 0.08234 0.0
C19 C 0.69636 0.4537 0.17069 0.0
C20 C 0.67355 0.45793 0.15286 0.0
C21 C 0.67054 0.4787 0.09999 0.0
C22 C 0.69104 0.49506 0.0655 0.0
C23 C 0.79847 0.49972 0.37925 0.0
H24 H 0.82986 0.48745 0.93534 0.0
H25 H 0.79637 0.48961 1.00696 0.0
H26 H 0.7954 0.40969 0.11088 0.0
H27 H 0.82793 0.40642 0.03615 0.0
H28 H 0.74819 0.45822 0.04963 0.0
H29 H 0.80434 0.45277 0.19565 0.0
H30 H 0.739 0.47177 0.25751 0.0
H31 H 0.77351 0.50574 0.29859 0.0
H32 H 0.79809 0.43162 0.31973 0.0
H33 H 0.82338 0.44488 0.4151 0.0
H34 H 0.72923 0.50317 0.0547 0.0
H35 H 0.69818 0.43751 0.21128 0.0
H36 H 0.79904 0.51923 0.39349 0.0
H37 H 0.68965 0.51166 0.02576 0.0
H38 H 0.65829 0.44456 0.17982 0.0
C39 C 0.91914 0.80326 0.1484 0.0
C40 C 0.9379 0.81272 0.09986 0.0
C41 C 0.91616 0.77759 0.18631 0.0
C42 C 0.93196 0.76102 0.17649 0.0
C43 C 0.94898 0.76942 0.12271 0.0
C44 C 0.95195 0.79504 0.0848 0.0
C45 C 0.93457 0.73851 0.23073 0.0
C46 C 0.94015 0.71515 0.21402 0.0
C47 C 0.94899 0.69727 0.26427 0.0
C48 C 0.95224 0.70299 0.33216 0.0
C49 C 0.9456 0.72576 0.34972 0.0
C50 C 0.93644 0.743 0.29922 0.0
C51 C 0.95159 0.73525 0.41616 0.0
C52 C 0.93301 0.73653 0.46035 0.0
C53 C 0.9744 0.75105 0.42291 0.0
C54 C 0.97791 0.77 0.46764 0.0
C55 C 0.95875 0.77304 0.50707 0.0
C56 C 0.95694 0.67434 0.24247 0.0
C57 C 0.94169 0.65736 0.20373 0.0
C58 C 0.98058 0.67121 0.25293 0.0
C59 C 0.98911 0.6522 0.22252 0.0
C60 C 0.97403 0.63576 0.18199 0.0
C61 C 0.9501 0.63815 0.17419 0.0
C62 C 0.93664 0.75516 0.5061 0.0
H63 H 0.90769 0.81626 0.15995 0.0
H64 H 0.90267 0.77145 0.22687 0.0
H65 H 0.96159 0.75727 0.11425 0.0
H66 H 0.96662 0.80172 0.04793 0.0
H67 H 0.93906 0.71175 0.16084 0.0
H68 H 0.93307 0.76151 0.31231 0.0
H69 H 0.96017 0.69014 0.37051 0.0
H70 H 0.91514 0.725 0.45466 0.0
H71 H 0.98881 0.75086 0.38813 0.0
H72 H 0.9951 0.78366 0.46756 0.0
H73 H 0.9234 0.65947 0.19475 0.0
H74 H 0.99276 0.68428 0.28192 0.0
H75 H 0.92157 0.75732 0.53564 0.0
H76 H 0.93811 0.62587 0.14292 0.0
H77 H 0.00759 0.65061 0.22984 0.0
C78 C 0.70256 0.08647 0.94917 0.0
C79 C 0.69155 0.10519 0.97388 0.0
C80 C 0.72334 0.08018 0.97924 0.0
C81 C 0.7334 0.09217 0.0352 0.0
C82 C 0.72372 0.11249 0.05617 0.0
C83 C 0.70312 0.11913 0.02535 0.0
C84 C 0.75091 0.08013 0.07867 0.0
C85 C 0.77115 0.07457 0.0498 0.0
C86 C 0.78594 0.05986 0.09035 0.0
C87 C 0.77963 0.04993 0.16011 0.0
C88 C 0.75939 0.0555 0.18923 0.0
C89 C 0.74546 0.07096 0.14852 0.0
C90 C 0.75097 0.04367 0.2602 0.0
C91 C 0.7438 0.01579 0.27832 0.0
C92 C 0.74563 0.06027 0.30507 0.0
C93 C 0.73162 0.04938 0.36403 0.0
C94 C 0.72243 0.02167 0.3789 0.0
C95 C 0.80768 0.05472 0.05918 0.0
C96 C 0.81422 0.0298 0.07556 0.0
C97 C 0.82204 0.07483 1.01226 0.0
C98 C 0.84245 0.07021 0.98264 0.0
C99 C 0.84915 0.0454 0.99948 0.0
C100 C 0.83473 0.02521 0.0461 0.0
C101 C 0.72959 1.00484 0.33735 0.0
H102 H 0.69417 0.07496 0.91042 0.0
H103 H 0.73032 0.06426 0.96257 0.0
H104 H 0.73135 0.12217 0.09898 0.0
H105 H 0.69553 0.13411 0.04456 0.0
H106 H 0.77503 0.08121 0.99532 0.0
H107 H 0.72928 0.07432 0.17031 0.0
H108 H 0.79049 0.0382 0.19202 0.0
H109 H 0.74753 1.00263 0.24403 0.0
H110 H 0.75104 0.08183 0.29214 0.0
H111 H 0.72683 0.0628 0.39594 0.0
H112 H 0.80341 0.01375 0.11079 0.0
H113 H 0.8177 0.09436 0.99898 0.0
H114 H 0.72276 0.98342 0.34748 0.0
H115 H 0.8395 1.00596 0.06085 0.0
H116 H 0.85297 0.08611 0.94637 0.0
C117 C 0.55705 0.74131 0.61258 0.0
C118 C 0.57052 0.72116 0.62701 0.0
C119 C 0.56479 0.76383 0.56209 0.0
C120 C 0.58637 0.76694 0.52599 0.0
C121 C 0.60106 0.74858 0.54614 0.0
C122 C 0.59315 0.72588 0.5949 0.0
C123 C 0.59132 0.78492 0.45858 0.0
C124 C 0.58972 0.81213 0.44815 0.0
C125 C 0.59421 0.82754 0.38185 0.0
C126 C 0.59944 0.81535 0.32656 0.0
C127 C 0.59947 0.78807 0.33542 0.0
C128 C 0.5959 0.77326 0.40168 0.0
C129 C 0.59909 0.77393 0.2751 0.0
C130 C 0.58488 0.7801 0.21802 0.0
C131 C 0.60927 0.75126 0.27926 0.0
C132 C 0.60284 0.73339 0.23249 0.0
C133 C 0.58671 0.73832 0.17993 0.0
C134 C 0.59077 0.85543 0.36499 0.0
C135 C 0.56816 0.86102 0.37342 0.0
C136 C 0.60802 0.87455 0.32391 0.0
C137 C 0.60197 0.89722 0.28552 0.0
C138 C 0.57854 0.90148 0.28789 0.0
C139 C 0.56212 0.8839 0.33541 0.0
C140 C 0.57885 0.76245 0.17053 0.0
H141 H 0.53994 0.73917 0.63767 0.0
H142 H 0.55309 0.77768 0.54786 0.0
H143 H 0.61792 0.75058 0.51963 0.0
H144 H 0.60427 0.71123 0.60298 0.0
H145 H 0.58511 0.82116 0.4908 0.0
H146 H 0.59496 0.75187 0.40853 0.0
H147 H 0.60202 0.82686 0.27518 0.0
H148 H 0.57657 0.79723 0.21329 0.0
H149 H 0.62073 0.7463 0.32165 0.0
H150 H 0.60913 0.71482 0.24018 0.0
H151 H 0.55448 0.84656 0.40447 0.0
H152 H 0.6256 0.87068 0.31647 0.0
H153 H 0.56623 0.76644 0.13047 0.0
H154 H 0.54413 0.88693 0.3403 0.0
H155 H 0.61518 0.91011 0.24978 0.0
C156 C 0.20919 0.6102 0.71095 0.0
C157 C 0.19733 0.58944 0.76147 0.0
C158 C 0.22939 0.60736 0.67633 0.0
C159 C 0.23855 0.5841 0.69292 0.0
C160 C 0.2284 0.56471 0.74819 0.0
C161 C 0.2079 0.56722 0.78179 0.0
C162 C 0.25454 0.57709 0.6439 0.0
C163 C 0.27622 0.57002 0.66471 0.0
C164 C 0.28902 0.55903 0.62019 0.0
C165 C 0.27966 0.55467 0.55512 0.0
C166 C 0.25809 0.56197 0.53368 0.0
C167 C 0.24593 0.57354 0.57809 0.0
C168 C 0.24646 0.55515 0.46877 0.0
C169 C 0.23518 0.57354 0.42766 0.0
C170 C 0.24329 0.52901 0.45345 0.0
C171 C 0.22745 0.5208 0.40198 0.0
C172 C 0.21454 0.5386 0.36519 0.0
C173 C 0.31174 0.55123 0.64264 0.0
C174 C 0.33032 0.56972 0.66706 0.0
C175 C 0.31501 0.52529 0.63951 0.0
C176 C 0.33649 0.51796 0.66059 0.0
C177 C 0.35523 0.5366 0.68385 0.0
C178 C 0.35198 0.56255 0.6868 0.0
C179 C 0.21936 0.56534 0.37648 0.0
H180 H 0.20208 0.62797 0.69518 0.0
H181 H 0.23698 0.62257 0.63368 0.0
H182 H 0.23496 0.54641 0.76117 0.0
H183 H 0.19935 0.55059 0.81967 0.0
H184 H 0.2827 0.57227 0.71614 0.0
H185 H 0.22864 0.57794 0.56349 0.0
H186 H 0.28917 0.54565 0.52122 0.0
H187 H 0.23758 0.59392 0.4377 0.0
H188 H 0.25164 0.51437 0.48459 0.0
H189 H 0.22403 0.50005 0.39449 0.0
H190 H 0.32822 0.58985 0.66976 0.0
H191 H 0.30087 0.51064 0.62126 0.0
H192 H 0.20999 0.57961 0.34796 0.0
H193 H 0.36616 0.57723 0.70482 0.0
H194 H 0.33864 0.49787 0.65754 0.0
C195 C 0.09683 0.23572 0.69491 0.0
C196 C 0.10831 0.21529 0.68424 0.0
C197 C 0.10168 0.26018 0.65137 0.0
C198 C 0.11803 0.26456 0.59603 0.0
C199 C 0.13176 0.24532 0.59128 0.0
C200 C 0.12689 0.22076 0.63519 0.0
C201 C 0.11603 0.28537 0.53621 0.0
C202 C 0.11068 0.30958 0.54671 0.0
C203 C 0.09926 0.32455 0.49567 0.0
C204 C 0.09551 0.31638 0.43028 0.0
C205 C 0.10282 0.29321 0.41722 0.0
C206 C 0.1131 0.27805 0.47045 0.0
C207 C 0.09613 0.28111 0.35401 0.0
C208 C 0.07197 0.27385 0.33682 0.0
C209 C 0.11305 0.27067 0.32202 0.0
C210 C 0.10575 0.25113 0.27993 0.0
C211 C 0.08132 0.24169 0.26834 0.0
C212 C 0.08862 0.34617 0.51578 0.0
C213 C 0.07717 0.34198 0.58045 0.0
C214 C 0.09064 0.37115 0.4738 0.0
C215 C 0.0824 0.39188 0.49781 0.0
C216 C 0.07204 0.38797 0.56428 0.0
C217 C 0.06937 0.36259 0.6047 0.0
C218 C 0.06463 0.25436 0.29424 0.0
H219 H 0.08256 0.2319 0.73298 0.0
H220 H 0.09065 0.27438 0.65672 0.0
H221 H 0.14472 0.2483 0.54982 0.0
H222 H 0.13601 0.20522 0.62639 0.0
H223 H 0.11349 0.31551 0.5973 0.0
H224 H 0.11629 0.25881 0.46252 0.0
H225 H 0.08599 0.32712 0.3912 0.0
H226 H 0.05853 0.28142 0.36109 0.0
H227 H 0.1318 0.27588 0.33463 0.0
H228 H 0.11919 0.24192 0.26137 0.0
H229 H 0.0747 0.32277 0.61351 0.0
H230 H 0.09921 0.37491 0.42352 0.0
H231 H 0.04573 0.24809 0.28499 0.0
H232 H 0.06198 0.35865 0.65648 0.0
H233 H 0.08441 0.411 0.4646 0.0
C234 C 0.32539 0.91828 0.80142 0.0
C235 C 0.3351 0.93499 0.84954 0.0
C236 C 0.30696 0.92442 0.75836 0.0
C237 C 0.29746 0.94685 0.76417 0.0
C238 C 0.30506 0.9616 0.81745 0.0
C239 C 0.32381 0.95585 0.85952 0.0
C240 C 0.28379 0.95819 0.70701 0.0
C241 C 0.26125 0.96335 0.71794 0.0
C242 C 0.24936 0.97658 0.66396 0.0
C243 C 0.26122 0.98554 0.59927 0.0
C244 C 0.28448 0.9819 0.58983 0.0
C245 C 0.29519 0.96738 0.643 0.0
C246 C 0.29921 0.9955 0.52836 0.0
C247 C 0.29293 0.9898 0.46201 0.0
C248 C 0.32131 1.0123 0.53793 0.0
C249 C 0.33762 0.02165 0.48349 0.0
C250 C 0.33221 0.0144 0.41817 0.0
C251 C 0.22543 0.98238 0.67712 0.0
C252 C 0.20977 0.96573 0.72796 0.0
C253 C 0.21833 1.00513 0.64121 0.0
C254 C 0.19643 1.01106 0.65591 0.0
C255 C 0.18126 0.99505 0.70888 0.0
C256 C 0.18835 0.97225 0.7446 0.0
C257 C 0.30939 0.99924 0.40705 0.0
H258 H 0.3331 0.90157 0.7936 0.0
H259 H 0.30121 0.91272 0.71756 0.0
H260 H 0.29809 0.97914 0.82231 0.0
H261 H 0.33075 0.9694 0.89536 0.0
H262 H 0.25349 0.95766 0.76931 0.0
H263 H 0.3132 0.96461 0.6358 0.0
H264 H 0.25293 0.99615 0.55691 0.0
H265 H 0.27596 0.97687 0.45361 0.0
H266 H 0.32639 0.01726 0.58852 0.0
H267 H 0.35492 0.03369 0.49316 0.0
H268 H 0.21399 0.94758 0.75578 0.0
H269 H 0.22977 0.01887 0.60242 0.0
H270 H 0.30483 0.99338 0.35708 0.0
H271 H 0.17765 0.95945 0.78647 0.0
H272 H 0.19158 0.02836 0.62538 0.0
C273 C 0.42497 0.29127 0.09243 0.0
C274 C 0.4484 0.30634 0.07968 0.0
C275 C 0.42036 0.26876 0.14375 0.0
C276 C 0.43908 0.26072 0.1831 0.0
C277 C 0.4627 0.27381 0.16492 0.0
C278 C 0.46733 0.29645 0.11379 0.0
C279 C 0.43396 0.24566 0.25373 0.0
C280 C 0.44331 0.22293 0.27892 0.0
C281 C 0.44174 0.21268 0.35008 0.0
C282 C 0.43286 0.22699 0.39539 0.0
C283 C 0.42382 0.24986 0.37116 0.0
C284 C 0.42297 0.25774 0.29973 0.0
C285 C 0.41953 0.26794 0.41989 0.0
C286 C 0.41381 0.25809 0.49005 0.0
C287 C 0.42493 0.29588 0.39892 0.0
C288 C 0.42681 0.31322 0.44706 0.0
C289 C 0.42405 0.30318 0.51751 0.0
C290 C 0.45069 0.18833 0.38039 0.0
C291 C 0.47239 0.18339 0.35888 0.0
C292 C 0.43852 0.17132 0.43736 0.0
C293 C 0.44866 0.15158 0.47565 0.0
C294 C 0.47101 0.14736 0.45694 0.0
C295 C 0.48234 0.163 0.3964 0.0
C296 C 0.41663 0.27555 0.5387 0.0
H297 H 0.41001 0.29791 0.06599 0.0
H298 H 0.40197 0.25911 0.15705 0.0
H299 H 0.47743 0.26833 0.19519 0.0
H300 H 0.4856 0.3075 0.10558 0.0
H301 H 0.45175 0.21351 0.24353 0.0
H302 H 0.41566 0.27502 0.27963 0.0
H303 H 0.43453 0.22109 0.45028 0.0
H304 H 0.40866 0.23682 0.50827 0.0
H305 H 0.42988 0.30474 0.34629 0.0
H306 H 0.43287 0.33449 0.42961 0.0
H307 H 0.48225 0.19602 0.31512 0.0
H308 H 0.42148 0.17409 0.45459 0.0
H309 H 0.41437 0.26745 0.59301 0.0
H310 H 0.49922 0.16004 0.37869 0.0
H311 H 0.43924 0.1406 0.52195 0.0
Nd312 Nd 0.00202 1.01059 0.78668 0.0
Nd313 Nd 0.02189 0.02011 0.9219 0.0
C314 C 0.97698 0.99359 0.68135 0.0
C315 C 0.97309 0.96766 0.65637 0.0
C316 C 0.95805 0.96264 0.60069 0.0
C317 C 0.95538 0.9383 0.57555 0.0
C318 C 0.9675 0.91855 0.6064 0.0
C319 C 0.98225 0.92356 0.66284 0.0
C320 C 0.98521 0.948 0.68705 0.0
C321 C 0.04942 1.00845 0.79759 0.0
C322 C 0.99486 0.95956 0.91065 0.0
C323 C 0.04515 0.0303 0.03492 0.0
C324 C 0.05331 0.05641 0.0587 0.0
C325 C 0.06035 0.07977 1.01039 0.0
C326 C 0.06618 0.10484 0.03163 0.0
C327 C 0.06492 0.10721 0.10171 0.0
C328 C 0.05797 0.08378 0.15016 0.0
C329 C 0.05222 0.0586 0.12878 0.0
C330 C 0.98128 0.04017 0.89269 0.0
C331 C 0.03103 0.06855 0.79631 0.0
O332 O 0.96739 0.99342 0.74126 0.0
O333 O -0.00112 1.00741 0.67549 0.0
O334 O 0.04037 0.02064 0.7443 0.0
O335 O 0.03372 0.99779 0.84347 0.0
O336 O 0.9944 0.96776 0.84392 0.0
O337 O 0.00372 0.97605 0.95399 0.0
O338 O 0.05577 0.02712 0.97922 0.0
O339 O 0.02197 0.02166 0.03436 0.0
O340 O 0.00037 0.05294 0.91864 0.0
O341 O 0.98414 0.01771 0.88146 0.0
O342 O 0.04171 0.05581 0.84669 0.0
O343 O 0.01085 0.0564 0.77125 0.0
H344 H 0.94867 0.97764 0.57612 0.0
H345 H 0.94388 0.93491 0.53197 0.0
H346 H 0.99211 0.90893 0.68684 0.0
H347 H 0.9974 0.95174 0.72884 0.0
H348 H 0.06095 0.07877 0.95582 0.0
H349 H 0.07109 0.12244 0.99284 0.0
H350 H 0.05701 0.0849 0.2046 0.0
H351 H 0.04658 0.04089 0.16683 0.0
Nd352 Nd 0.52846 0.99977 0.83085 0.0
Nd353 Nd 0.50566 0.03272 0.91098 0.0
C354 C 0.54923 0.96725 0.77378 0.0
C355 C 0.57052 0.97359 0.7287 0.0
C356 C 0.57761 0.95394 0.69707 0.0
C357 C 0.59703 0.96097 0.65047 0.0
C358 C 0.60939 0.98778 0.63476 0.0
C359 C 0.60255 1.00714 0.66836 0.0
C360 C 0.5833 1.00013 0.71459 0.0
C361 C 0.51304 0.04143 0.75063 0.0
C362 C 0.56172 0.05429 0.86243 0.0
C363 C 0.48507 0.06611 0.96498 0.0
C364 C 0.46402 0.0616 1.01041 0.0
C365 C 0.45197 0.08224 1.01463 0.0
C366 C 0.43212 0.07779 0.05888 0.0
C367 C 0.42427 0.05268 0.09977 0.0
C368 C 0.43611 0.03193 0.09404 0.0
C369 C 0.45571 0.03631 0.04952 0.0
C370 C 0.51915 0.99014 0.99134 0.0
C371 C 0.47246 0.97797 0.87926 0.0
O372 O 0.55309 0.97166 0.83725 0.0
O373 O 0.53086 0.97627 0.74702 0.0
O374 O 0.53319 0.03492 0.74058 0.0
O375 O 0.50177 0.02602 0.80079 0.0
O376 O 0.56163 0.03032 0.84832 0.0
O377 O 0.54212 0.06112 0.88104 0.0
O378 O 0.48075 0.06062 0.90259 0.0
O379 O 0.50341 0.05718 0.99253 0.0
O380 O 0.49939 0.99766 0.99993 0.0
O381 O 0.53164 1.00542 0.94284 0.0
O382 O 0.47249 1.00195 0.89369 0.0
O383 O 0.49213 0.9712 0.86075 0.0
H384 H 0.56788 0.93335 0.70727 0.0
H385 H 0.60184 0.94568 0.62507 0.0
H386 H 0.61193 0.02787 0.6582 0.0
H387 H 0.57808 0.01559 0.73835 0.0
H388 H 0.45803 0.10182 0.98428 0.0
H389 H 0.42332 0.09412 0.06253 0.0
H390 H 0.43023 1.01229 0.12422 0.0
H391 H 0.46452 0.01997 0.04614 0.0
Nd392 Nd 0.50362 0.51662 0.89515 0.0
Nd393 Nd 0.53259 0.5057 0.78385 0.0
C394 C 0.4786 0.53833 0.97251 0.0
C395 C 0.48772 0.56288 1.00118 0.0
C396 C 0.47379 0.57278 0.04455 0.0
C397 C 0.48373 0.59579 0.07297 0.0
C398 C 0.50756 0.60911 0.05745 0.0
C399 C 0.52124 0.5991 1.01348 0.0
C400 C 0.51147 0.57614 0.98604 0.0
C401 C 0.54819 0.50883 0.93615 0.0
C402 C 0.53835 0.56678 0.79494 0.0
C403 C 0.5576 0.48336 0.70833 0.0
C404 C 0.5501 0.45667 0.68719 0.0
C405 C 0.54947 0.4333 0.73539 0.0
C406 C 0.53559 0.40884 0.72338 0.0
C407 C 0.52223 0.40741 0.663 0.0
C408 C 0.52495 0.43005 0.61174 0.0
C409 C 0.53889 0.45443 0.62352 0.0
C410 C 0.4886 0.51519 0.74292 0.0
C411 C 0.49846 0.45529 0.88524 0.0
O412 O 0.47724 0.54165 0.90526 0.0
O413 O 0.48868 0.51847 0.99703 0.0
O414 O 0.5292 0.50011 0.97452 0.0
O415 O 0.54361 0.52226 0.88049 0.0
O416 O 0.51777 0.55836 0.82898 0.0
O417 O 0.5508 0.54955 0.78059 0.0
O418 O 0.56127 0.48359 0.77424 0.0
O419 O 0.54544 0.50115 0.6816 0.0
O420 O 0.50804 0.52475 0.70666 0.0
O421 O 0.49251 0.50052 0.79756 0.0
O422 O 0.51832 0.46401 0.84801 0.0
O423 O 0.48612 0.47229 0.90175 0.0
H424 H 0.45547 0.5626 0.057 0.0
H425 H 0.47289 0.60317 0.10699 0.0
H426 H 0.53979 0.60858 1.00194 0.0
H427 H 0.52267 0.5684 0.95397 0.0
H428 H 0.5582 0.43421 0.78463 0.0
H429 H 0.534 0.39154 0.76328 0.0
H430 H 0.51533 0.4292 0.56381 0.0
H431 H 0.53934 0.47195 0.5849 0.0
Nd432 Nd 0.01116 0.52367 0.84346 0.0
Nd433 Nd 0.02382 0.48166 0.94907 0.0
C434 C 0.9873 0.55502 0.76481 0.0
C435 C 0.96715 0.54657 0.72011 0.0
C436 C 0.95252 0.56402 0.69218 0.0
C437 C 0.9334 0.55519 0.64987 0.0
C438 C 0.92885 0.52887 0.6349 0.0
C439 C 0.94331 0.51141 0.66438 0.0
C440 C 0.96222 0.52015 0.70658 0.0
C441 C 0.0282 0.4854 0.78866 0.0
C442 C 0.96991 0.46995 0.90513 0.0
C443 C 0.04706 0.44841 0.02324 0.0
C444 C 0.07029 0.45286 0.05862 0.0
C445 C 0.0918 0.4642 0.02166 0.0
C446 C 0.11308 0.47174 0.05655 0.0
C447 C 0.11318 0.46834 0.12885 0.0
C448 C 0.09194 0.45602 0.16572 0.0
C449 C 0.07074 0.44819 0.13093 0.0
C450 C 0.00458 0.51815 1.00356 0.0
C451 C 0.06457 0.53627 0.89307 0.0
O452 O 0.98296 0.5476 0.83085 0.0
O453 O 0.00776 0.55069 0.74617 0.0
O454 O 0.03393 0.51072 0.76511 0.0
O455 O 0.01357 0.48089 0.83834 0.0
O456 O 0.97493 0.49532 0.87633 0.0
O457 O 0.98685 0.45766 0.93024 0.0
O458 O 0.04758 0.45264 0.95573 0.0
O459 O 0.03029 0.45786 0.04892 0.0
O460 O -0.00046 0.49265 0.02575 0.0
O461 O 0.02005 0.5241 0.95544 0.0
O462 O 0.05985 0.51072 0.92016 0.0
O463 O 0.04759 0.54824 0.86651 0.0
H464 H 0.95596 0.5844 0.70268 0.0
H465 H 0.92253 0.56906 0.62764 0.0
H466 H 0.94 0.49091 0.65479 0.0
H467 H 0.97312 0.50625 0.72852 0.0
H468 H 0.09209 0.46822 0.96586 0.0
H469 H 0.12921 0.48138 0.02703 0.0
H470 H 0.09164 0.45302 0.22157 0.0
H471 H 0.05447 0.43945 0.16063 0.0
H472 H 0.13991 0.96136 0.7647 0.0
H473 H 0.17042 0.04509 0.69534 0.0
H474 H 0.13249 0.05635 0.71677 0.0
H475 H 0.09011 0.04248 0.7519 0.0
H476 H 0.06132 0.96018 0.83631 0.0
H477 H 0.09963 0.94851 0.81531 0.0
C478 C 0.13874 0.98222 0.7557 0.0
C479 C 0.15829 1.00213 0.72671 0.0
C480 C 0.11715 0.9889 0.77155 0.0
C481 C 0.1557 0.02896 0.71481 0.0
C482 C 0.13401 0.0356 0.72804 0.0
C483 C 0.09245 0.02208 0.76651 0.0
C484 C 0.07314 1.00213 0.79512 0.0
C485 C 0.11456 0.01571 0.75564 0.0
C486 C 0.07615 0.97582 0.81456 0.0
C487 C 0.09794 0.96915 0.80206 0.0
H488 H 0.44983 0.10141 0.54285 0.0
H489 H 0.51929 0.14954 0.47708 0.0
H490 H 0.53828 0.12031 0.55877 0.0
H491 H 0.53528 0.08245 0.65448 0.0
H492 H 0.46561 0.03882 0.73006 0.0
H493 H 0.44667 0.06573 0.64125 0.0
C494 C 0.46911 0.10606 0.54673 0.0
C495 C 0.48286 0.12809 0.50317 0.0
C496 C 0.47997 0.09011 0.59676 0.0
C497 C 0.50796 0.13265 0.50829 0.0
C498 C 0.51895 0.11609 0.55597 0.0
C499 C 0.51596 0.07894 0.65139 0.0
C500 C 0.50186 0.05869 0.69857 0.0
C501 C 0.50513 0.095 0.60119 0.0
C502 C 0.47685 0.05439 0.69451 0.0
C503 C 0.46601 0.06969 0.64352 0.0
H504 H 0.39928 0.56225 0.63539 0.0
H505 H 0.36261 0.49402 0.77603 0.0
H506 H 0.40077 0.48153 0.80843 0.0
H507 H 0.4447 0.49003 0.79593 0.0
H508 H 0.48082 0.55689 0.64984 0.0
H509 H 0.44286 0.56999 0.62044 0.0
C510 C 0.39974 0.54474 0.67338 0.0
C511 C 0.3783 0.52914 0.70367 0.0
C512 C 0.42163 0.53743 0.69057 0.0
C513 C 0.37896 0.50626 0.75203 0.0
C514 C 0.40074 0.49916 0.77059 0.0
C515 C 0.44418 0.50743 0.75766 0.0
C516 C 0.46545 0.52248 0.72501 0.0
C517 C 0.4222 0.51457 0.74007 0.0
C518 C 0.46462 0.54492 0.67531 0.0
C519 C 0.44294 0.55246 0.65862 0.0
H520 H 0.0348 0.38492 0.6524 0.0
H521 H 0.09366 0.44148 0.54344 0.0
H522 H 0.08461 0.47678 0.601 0.0
H523 H 0.06155 0.49103 0.68803 0.0
H524 H 0.00565 0.43302 0.80496 0.0
H525 H 0.01268 0.39859 0.74055 0.0
C526 C 0.04595 0.40483 0.64161 0.0
C527 C 0.06508 0.41025 0.59379 0.0
C528 C 0.04141 0.42475 0.67729 0.0
C529 C 0.07863 0.43658 0.57913 0.0
C530 C 0.07367 0.45678 0.61277 0.0
C531 C 0.05095 0.47082 0.69929 0.0
C532 C 0.03312 0.46453 0.75106 0.0
C533 C 0.05536 0.45099 0.6628 0.0
C534 C 0.01955 0.4383 0.76552 0.0
C535 C 0.02349 0.41865 0.72851 0.0
H536 H 0.89201 0.08038 0.98011 0.0
H537 H 0.85665 1.00035 0.9536 0.0
H538 H 0.89409 0.99232 0.9123 0.0
H539 H 0.93746 1.00727 0.88999 0.0
H540 H 0.97248 0.08723 0.91782 0.0
H541 H 0.9344 0.09634 0.95013 0.0
C542 C 0.89233 0.06133 0.96411 0.0
C543 C 0.87153 0.04097 0.97035 0.0
C544 C 0.91387 0.05687 0.94035 0.0
C545 C 0.87247 0.01624 0.95046 0.0
C546 C 0.89384 1.01169 0.92639 0.0
C547 C 0.93665 0.0268 0.9021 0.0
C548 C 0.95772 0.04651 0.90198 0.0
C549 C 0.91474 0.03173 0.92202 0.0
C550 C 0.95648 0.07171 0.91792 0.0
C551 C 0.93474 0.0769 0.93664 0.0
H552 H 0.53558 0.89768 0.22343 0.0
H553 H 0.60402 0.95147 0.23195 0.0
H554 H 0.59269 0.98242 0.1364 0.0
H555 H 0.5631 0.99442 0.04986 0.0
H556 H 0.49355 0.94248 0.05028 0.0
H557 H 0.50551 0.91065 0.14289 0.0
C558 C 0.54791 0.91641 0.20577 0.0
C559 C 0.5707 0.92203 0.23533 0.0
C560 C 0.54116 0.93436 0.15154 0.0
C561 C 0.58649 0.94628 0.20992 0.0
C562 C 0.58002 0.96408 0.1552 0.0
C563 C 0.55076 0.97594 0.06988 0.0
C564 C 0.52765 0.97044 0.04286 0.0
C565 C 0.55747 0.95823 0.12513 0.0
C566 C 0.51152 0.94688 0.07011 0.0
C567 C 0.5183 0.92878 0.1232 0.0
H568 H 0.65479 0.49589 0.97184 0.0
H569 H 0.6311 0.47164 0.1842 0.0
H570 H 0.59112 0.47772 0.15181 0.0
H571 H 0.56278 0.49041 0.06335 0.0
H572 H 0.58765 0.51889 0.85374 0.0
H573 H 0.62741 0.51127 0.88533 0.0
C574 C 0.6411 0.49236 1.01154 0.0
C575 C 0.64618 0.48314 0.08047 0.0
C576 C 0.61828 0.49672 0.99304 0.0
C577 C 0.6278 0.47816 0.13048 0.0
C578 C 0.60489 0.48187 0.11215 0.0
C579 C 0.57695 0.49495 0.02472 0.0
C580 C 0.5723 0.50493 0.95625 0.0
C581 C 0.59992 0.49112 0.0436 0.0
C582 C 0.5908 0.51102 0.90673 0.0
C583 C 0.61353 0.50668 0.92476 0.0
H584 H 0.95386 0.58375 0.17672 0.0
H585 H 0.01502 0.64571 0.10477 0.0
H586 H 0.02953 0.6153 0.04021 0.0
H587 H 0.02471 0.57082 1.00399 0.0
H588 H 0.96431 0.50859 0.08077 0.0
H589 H 0.94942 0.53939 0.14261 0.0
C590 C 0.97034 0.59058 0.14675 0.0
C591 C 0.98334 0.6169 0.14549 0.0
C592 C 0.97862 0.57296 0.11021 0.0
C593 C 0.00482 0.62542 0.10713 0.0
C594 C 0.01303 0.60811 0.06983 0.0
C595 C 0.00823 0.56415 0.03397 0.0
C596 C 0.99556 0.53757 0.03779 0.0
C597 C 6e-05 0.58183 0.07085 0.0
C598 C 0.97438 0.52899 0.0773 0.0
C599 C 0.96586 0.54656 0.1127 0.0
H600 H 0.06316 0.19005 0.66902 0.0
H601 H 0.12974 0.17825 0.76156 0.0
H602 H 0.11134 0.13136 0.80494 0.0
H603 H 0.07645 0.09412 0.81488 0.0
H604 H 0.01038 0.10568 0.71732 0.0
H605 H 0.02857 0.15261 0.67673 0.0
C606 C 0.07351 0.17722 0.69944 0.0
C607 C 0.09755 0.18744 0.71345 0.0
C608 C 0.063 0.15042 0.72248 0.0
C609 C 0.11112 0.17067 0.75103 0.0
C610 C 0.10063 0.14398 0.77552 0.0
C611 C 0.06599 0.1069 0.7848 0.0
C612 C 0.04207 0.09654 0.76923 0.0
C613 C 0.07661 0.13368 0.7613 0.0
C614 C 0.02884 0.11322 0.72964 0.0
C615 C 0.03919 0.14002 0.70673 0.0
H616 H 0.37294 0.92248 0.78908 0.0
H617 H 0.35198 0.9462 0.97638 0.0
H618 H 0.39385 0.95851 1.00742 0.0
H619 H 0.43606 0.97024 0.97001 0.0
H620 H 0.45681 0.94511 0.78518 0.0
H621 H 0.41511 0.9246 0.76577 0.0
C622 C 0.37725 0.92927 0.83817 0.0
C623 C 0.35918 0.93422 0.87912 0.0
C624 C 0.40136 0.93629 0.85579 0.0
C625 C 0.36548 0.9431 0.94249 0.0
C626 C 0.38945 0.95009 0.96045 0.0
C627 C 0.43145 0.95957 0.9266 0.0
C628 C 0.4492 0.95948 0.87834 0.0
C629 C 0.40751 0.94808 0.91563 0.0
C630 C 0.44331 0.94539 0.82281 0.0
C631 C 0.41948 0.93389 0.81146 0.0
H632 H 0.46088 0.29832 0.60131 0.0
H633 H 0.4112 0.34916 0.53784 0.0
H634 H 0.43679 0.3858 0.58639 0.0
H635 H 0.47627 0.40522 0.62761 0.0
H636 H 0.52745 0.35545 0.6828 0.0
H637 H 0.49828 0.3163 0.65724 0.0
C638 C 0.45525 0.3171 0.60079 0.0
C639 C 0.43426 0.3212 0.5665 0.0
C640 C 0.47065 0.33838 0.6254 0.0
C641 C 0.42725 0.34568 0.56459 0.0
C642 C 0.44201 0.36665 0.59145 0.0
C643 C 0.48095 0.38573 0.63432 0.0
C644 C 0.50408 0.38319 0.65512 0.0
C645 C 0.46428 0.36359 0.61859 0.0
C646 C 0.5098 0.35782 0.66592 0.0
C647 C 0.49315 0.33551 0.65132 0.0
H648 H 0.17622 0.56771 0.88761 0.0
H649 H 0.16197 0.60929 0.68778 0.0
H650 H 0.11979 0.60076 0.71712 0.0
H651 H 0.08599 0.575 0.7909 0.0
H652 H 0.09975 0.52841 0.9835 0.0
H653 H 0.14273 0.5449 0.96523 0.0
C654 C 0.16397 0.57501 0.85038 0.0
C655 C 0.17253 0.58884 0.78514 0.0
C656 C 0.13938 0.56873 0.86594 0.0
C657 C 0.15626 0.59883 0.73874 0.0
C658 C 0.13192 0.59365 0.75507 0.0
C659 C 0.09842 0.56907 0.82961 0.0
C660 C 0.08981 0.5505 0.88825 0.0
C661 C 0.12316 0.57773 0.81733 0.0
C662 C 0.10604 0.54262 0.93771 0.0
C663 C 0.13061 0.55198 0.92721 0.0
H664 H 0.95232 0.83558 0.969 0.0
H665 H 0.94036 0.85471 0.16985 0.0
H666 H 0.95724 0.90184 0.12962 0.0
H667 H 0.97727 0.93741 0.03888 0.0
H668 H 0.98946 0.91802 0.83846 0.0
H669 H 0.97116 0.87123 0.87745 0.0
C670 C 0.95332 0.85009 1.00382 0.0
C671 C 0.94506 0.84162 0.07219 0.0
C672 C 0.96347 0.87709 0.98081 0.0
C673 C 0.94621 0.86072 0.11656 0.0
C674 C 0.95615 0.88766 0.09389 0.0
C675 C 0.97607 0.92288 1.00403 0.0
C676 C 0.98485 0.93111 0.93617 0.0
C677 C 0.96521 0.896 0.02648 0.0
C678 C 0.98282 0.91218 0.89106 0.0
C679 C 0.97232 0.8854 0.91322 0.0
H680 H 0.6708 0.1014 0.84814 0.0
H681 H 0.65554 0.1117 0.0556 0.0
H682 H 0.61302 0.10281 0.03244 0.0
H683 H 0.58008 0.08267 0.96238 0.0
H684 H 0.59562 0.06573 0.76225 0.0
H685 H 0.63778 0.08629 0.77328 0.0
C686 C 0.65822 0.10195 0.88818 0.0
C687 C 0.66655 0.10667 0.95394 0.0
C688 C 0.63362 0.09515 0.87605 0.0
C689 C 0.6499 0.10823 1.00429 0.0
C690 C 0.62541 0.10278 0.99145 0.0
C691 C 0.59264 0.0844 0.92041 0.0
C692 C 0.58499 0.07282 0.86171 0.0
C693 C 0.61705 0.09488 0.92881 0.0
C694 C 0.60131 0.07459 0.80791 0.0
C695 C 0.62539 0.08618 0.81439 0.0
H696 H 0.55866 0.69306 0.24045 0.0
H697 H 0.58586 0.73551 0.04209 0.0
H698 H 0.56249 0.69944 0.98561 0.0
H699 H 0.53455 0.65577 0.994 0.0
H700 H 0.50656 0.61431 0.19293 0.0
H701 H 0.52957 0.65054 0.24836 0.0
C702 C 0.55962 0.69415 0.1849 0.0
C703 C 0.57421 0.71633 0.14515 0.0
C704 C 0.54573 0.67387 0.15325 0.0
C705 C 0.57494 0.71824 0.07325 0.0
C706 C 0.56152 0.69778 0.04123 0.0
C707 C 0.53344 0.6548 0.04946 0.0
C708 C 0.51899 0.63248 0.08954 0.0
C709 C 0.54685 0.67554 0.08082 0.0
C710 C 0.51739 0.63147 0.16113 0.0
C711 C 0.53071 0.652 0.19282 0.0
H712 H 0.86835 0.42339 0.0332 0.0
H713 H 0.84868 0.47222 0.85102 0.0
H714 H 0.8897 0.48151 0.80763 0.0
H715 H 0.93203 0.48053 0.82926 0.0
H716 H 0.95102 0.43008 1.00879 0.0
H717 H 0.909 0.41575 0.04391 0.0
C718 C 0.87263 0.43532 0.98286 0.0
C719 C 0.85535 0.4476 0.94648 0.0
C720 C 0.8962 0.44037 0.95778 0.0
C721 C 0.86166 0.46319 0.8815 0.0
C722 C 0.88513 0.46841 0.85634 0.0
C723 C 0.92688 0.46595 0.87528 0.0
C724 C 0.94457 0.45666 0.91698 0.0
C725 C 0.90271 0.45793 0.89536 0.0
C726 C 0.93771 0.43751 0.97588 0.0
C727 C 0.9137 0.42949 0.99628 0.0
H728 H 0.1023 0.22535 0.16275 0.0
H729 H 0.04265 0.20104 0.3063 0.0
H730 H 0.03205 0.15788 0.26655 0.0
H731 H 0.04085 0.12586 0.19558 0.0
H732 H 0.1016 0.14924 0.05623 0.0
H733 H 0.11076 0.19359 0.09058 0.0
C734 C 0.08698 0.21065 0.18545 0.0
C735 C 0.07335 0.21669 0.23753 0.0
C736 C 0.08129 0.18545 0.16367 0.0
C737 C 0.05329 0.19738 0.26528 0.0
C738 C 0.04735 0.17244 0.2432 0.0
C739 C 0.0562 0.14059 0.17314 0.0
C740 C 0.07055 0.13412 0.1236 0.0
C741 C 0.06145 0.16608 0.19328 0.0
C742 C 0.09012 0.15368 0.09408 0.0
C743 C 0.09543 0.17906 0.11383 0.0
H744 H 0.3309 0.03718 0.28283 0.0
H745 H 0.37658 1.00447 0.43491 0.0
H746 H 0.40898 0.01373 0.35025 0.0
H747 H 0.42444 0.03085 0.23346 0.0
H748 H 0.37996 0.06468 0.08006 0.0
H749 H 0.34706 0.05552 0.16457 0.0
C750 C 0.34795 0.03206 0.29703 0.0
C751 C 0.35141 0.02027 0.36498 0.0
C752 C 0.36671 0.03771 0.24802 0.0
C753 C 0.37361 0.01385 0.38311 0.0
C754 C 0.39211 0.01904 0.33472 0.0
C755 C 0.40748 0.03609 0.21848 0.0
C756 C 0.40449 0.04817 0.15069 0.0
C757 C 0.38887 0.03094 0.26716 0.0
C758 C 0.38264 0.05539 0.13216 0.0
C759 C 0.36383 0.05006 0.18033 0.0
H760 H 0.48516 0.33099 0.98901 0.0
H761 H 0.42166 0.34419 0.08092 0.0
H762 H 0.43061 0.39075 0.02599 0.0
H763 H 0.45795 0.42885 0.95859 0.0
H764 H 0.52202 0.41593 0.86935 0.0
H765 H 0.5114 0.36855 0.91634 0.0
C766 C 0.47321 0.34401 0.99676 0.0
C767 C 0.45273 0.33388 0.03908 0.0
C768 C 0.47866 0.37106 0.96583 0.0
C769 C 0.43735 0.35112 0.04778 0.0
C770 C 0.44257 0.37794 0.01691 0.0
C771 C 0.46952 0.41566 0.94902 0.0
C772 C 0.49082 0.42613 0.91056 0.0
C773 C 0.46339 0.38828 0.9768 0.0
C774 C 0.50549 0.40858 0.89855 0.0
C775 C 0.49947 0.38138 0.92568 0.0
H776 H 0.21284 0.5061 0.26689 0.0
H777 H 0.16997 0.54839 0.36854 0.0
H778 H 0.13504 0.53037 0.30458 0.0
H779 H 0.11626 0.50181 0.22212 0.0
H780 H 0.15856 0.46024 0.1168 0.0
H781 H 0.19412 0.47865 0.17969 0.0
C782 C 0.19585 0.51138 0.27469 0.0
C783 C 0.19404 0.52867 0.3221 0.0
C784 C 0.17572 0.50096 0.23745 0.0
C785 C 0.17194 0.53548 0.33156 0.0
C786 C 0.15189 0.52502 0.29542 0.0
C787 C 0.13327 0.49669 0.21332 0.0
C788 C 0.13483 0.47947 0.16584 0.0
C789 C 0.15353 0.50762 0.2487 0.0
C790 C 0.15701 0.47342 0.15348 0.0
C791 C 0.17727 0.48391 0.18941 0.0
H792 H 0.96828 0.82355 0.44086 0.0
H793 H 0.95205 0.7771 0.6424 0.0
H794 H 0.95337 0.81824 0.69158 0.0
H795 H 0.95891 0.86756 0.67611 0.0
H796 H 0.97281 0.91323 0.47243 0.0
H797 H 0.97239 0.87226 0.42476 0.0
C798 C 0.9653 0.82255 0.4957 0.0
C799 C 0.96054 0.79756 0.53843 0.0
C800 C 0.96542 0.84608 0.52283 0.0
C801 C 0.95602 0.79625 0.60896 0.0
C802 C 0.95671 0.81971 0.63685 0.0
C803 C 0.96183 0.86845 0.62132 0.0
C804 C 0.96589 0.89335 0.57776 0.0
C805 C 0.96134 0.84475 0.59418 0.0
C806 C 0.96941 0.89428 0.50679 0.0
C807 C 0.96934 0.8709 0.47962 0.0
H808 H 0.68397 0.04227 0.39679 0.0
H809 H 0.71719 0.97671 0.47775 0.0
H810 H 0.6846 0.95958 0.56298 0.0
H811 H 0.64696 0.96423 0.61616 0.0
H812 H 0.61454 0.03023 0.53216 0.0
H813 H 0.64668 0.04636 0.44689 0.0
C814 C 0.6843 0.02443 0.43371 0.0
C815 C 0.70318 1.01105 0.43181 0.0
C816 C 0.66562 0.01479 0.482 0.0
C817 C 0.7029 0.98745 0.47846 0.0
C818 C 0.68429 0.97769 0.52716 0.0
C819 C 0.6469 0.982 0.57878 0.0
C820 C 0.62854 0.99619 0.58107 0.0
C821 C 0.66557 0.99127 0.52956 0.0
C822 C 0.62869 0.01923 0.53239 0.0
C823 C 0.64701 0.02843 0.4834 0.0
H824 H 0.59435 0.68532 0.70272 0.0
H825 H 0.52308 0.69522 0.64495 0.0
H826 H 0.50686 0.64958 0.69853 0.0
H827 H 0.51299 0.60498 0.75109 0.0
H828 H 0.58467 0.59343 0.79106 0.0
H829 H 0.6006 0.6411 0.75259 0.0
C830 C 0.57528 0.67765 0.70054 0.0
C831 C 0.56023 0.69424 0.66845 0.0
C832 C 0.56607 0.65066 0.72745 0.0
C833 C 0.5354 0.68361 0.66974 0.0
C834 C 0.52599 0.65716 0.69964 0.0
C835 C 0.53208 0.61302 0.75177 0.0
C836 C 0.54767 0.59578 0.77373 0.0
C837 C 0.54119 0.64028 0.72706 0.0
C838 C 0.57236 0.60631 0.77382 0.0
C839 C 0.58145 0.63356 0.75206 0.0
H840 H 0.85981 0.47887 0.41395 0.0
H841 H 0.80915 0.51104 0.51706 0.0
H842 H 0.8405 0.52886 0.59431 0.0
H843 H 0.88247 0.53481 0.63318 0.0
H844 H 0.9324 0.50195 0.52895 0.0
H845 H 0.90108 0.4846 0.45208 0.0
C846 C 0.85548 0.48941 0.454 0.0
C847 C 0.8321 0.49336 0.46015 0.0
C848 C 0.8735 0.49953 0.49797 0.0
C849 C 0.82702 0.50776 0.51113 0.0
C850 C 0.84492 0.51791 0.55536 0.0
C851 C 0.88646 0.52403 0.59324 0.0
C852 C 0.90968 0.51955 0.58696 0.0
C853 C 0.86827 0.51396 0.54917 0.0
C854 C 0.9146 0.50536 0.53538 0.0
C855 C 0.89672 0.4955 0.49128 0.0
loop_
_geom_bond_atom_site_label_1
_geom_bond_atom_site_label_2
_geom_bond_distance
_geom_bond_site_symmetry_2
_ccdc_geom_bond_type
C0 C1 1.386 . S
C0 C2 1.397 . S
C0 H24 0.931 . S
C1 C0 1.386 . S
C1 C5 1.397 . S
C2 C0 1.397 . S
C2 C3 1.384 . S
C2 H25 0.930 . S
C3 C2 1.384 . S
C3 C4 1.377 . S
C3 C6 1.481 1_556 S
C4 C3 1.377 . S
C4 C5 1.389 . S
C4 H26 0.929 1_556 S
C5 C1 1.397 . S
C5 C4 1.389 . S
C5 H27 0.931 . S
C6 C3 1.481 1_554 S
C6 C7 1.387 . S
C6 C11 1.390 . S
C7 C6 1.387 . S
C7 C8 1.401 . S
C7 H28 0.930 1_554 S
C8 C7 1.401 . S
C8 C9 1.376 . S
C8 C17 1.511 . S
C9 C8 1.376 . S
C9 C10 1.392 . S
C9 H30 0.931 . S
C10 C9 1.392 . S
C10 C11 1.361 . S
C10 C12 1.500 . S
C11 C6 1.390 . S
C11 C10 1.361 . S
C11 H29 0.931 . S
C12 C10 1.500 . S
C12 C13 1.371 . S
C12 C14 1.365 . S
C13 C12 1.371 . S
C13 C23 1.386 . S
C13 H31 0.931 . S
C14 C12 1.365 . S
C14 C15 1.409 . S
C14 H32 0.929 . S
C15 C14 1.409 . S
C15 C16 1.380 . S
C15 H33 0.930 . S
C16 C15 1.380 . S
C16 C23 1.357 . S
C17 C8 1.511 . S
C17 C18 1.341 1_554 S
C17 C19 1.371 . S
C18 C17 1.341 1_556 S
C18 C22 1.394 . S
C18 H34 0.930 . S
C19 C17 1.371 . S
C19 C20 1.392 . S
C19 H35 0.931 . S
C20 C19 1.392 . S
C20 C21 1.331 . S
C20 H38 0.932 . S
C21 C20 1.331 . S
C21 C22 1.336 1_554 S
C22 C18 1.394 . S
C22 C21 1.336 1_556 S
C22 H37 0.929 . S
C23 C13 1.386 . S
C23 C16 1.357 . S
C23 H36 0.928 . S
H24 C0 0.931 . S
H25 C2 0.930 . S
H26 C4 0.929 1_554 S
H27 C5 0.931 . S
H28 C7 0.930 1_556 S
H29 C11 0.931 . S
H30 C9 0.931 . S
H31 C13 0.931 . S
H32 C14 0.929 . S
H33 C15 0.930 . S
H34 C18 0.930 . S
H35 C19 0.931 . S
H36 C23 0.928 . S
H37 C22 0.929 . S
H38 C20 0.932 . S
C39 C40 1.386 . S
C39 C41 1.397 . S
C39 H63 0.931 . S
C40 C39 1.386 . S
C40 C44 1.397 . S
C41 C39 1.397 . S
C41 C42 1.384 . S
C41 H64 0.930 . S
C42 C41 1.384 . S
C42 C43 1.377 . S
C42 C45 1.481 1_556 S
C43 C42 1.377 . S
C43 C44 1.389 . S
C43 H65 0.929 1_556 S
C44 C40 1.397 . S
C44 C43 1.389 . S
C44 H66 0.931 . S
C45 C42 1.481 1_554 S
C45 C46 1.387 . S
C45 C50 1.390 . S
C46 C45 1.387 . S
C46 C47 1.401 . S
C46 H67 0.930 1_554 S
C47 C46 1.401 . S
C47 C48 1.376 . S
C47 C56 1.511 . S
C48 C47 1.376 . S
C48 C49 1.392 . S
C48 H69 0.931 . S
C49 C48 1.392 . S
C49 C50 1.361 . S
C49 C51 1.500 . S
C50 C45 1.390 . S
C50 C49 1.361 . S
C50 H68 0.931 . S
C51 C49 1.500 . S
C51 C52 1.371 . S
C51 C53 1.365 . S
C52 C51 1.371 . S
C52 C62 1.386 . S
C52 H70 0.931 . S
C53 C51 1.365 . S
C53 C54 1.409 . S
C53 H71 0.929 . S
C54 C53 1.409 . S
C54 C55 1.380 . S
C54 H72 0.930 . S
C55 C54 1.380 . S
C55 C62 1.357 . S
C56 C47 1.511 . S
C56 C57 1.341 . S
C56 C58 1.371 . S
C57 C56 1.341 . S
C57 C61 1.394 1_554 S
C57 H73 0.930 1_554 S
C58 C56 1.371 . S
C58 C59 1.392 . S
C58 H74 0.931 . S
C59 C58 1.392 . S
C59 C60 1.331 . S
C59 H77 0.932 . S
C60 C59 1.331 . S
C60 C61 1.336 1_554 S
C61 C57 1.394 1_556 S
C61 C60 1.336 1_556 S
C61 H76 0.929 . S
C62 C52 1.386 . S
C62 C55 1.357 . S
C62 H75 0.928 . S
H63 C39 0.931 . S
H64 C41 0.930 . S
H65 C43 0.929 1_554 S
H66 C44 0.931 . S
H67 C46 0.930 1_556 S
H68 C50 0.931 . S
H69 C48 0.931 . S
H70 C52 0.931 . S
H71 C53 0.929 . S
H72 C54 0.930 . S
H73 C57 0.930 1_556 S
H74 C58 0.931 . S
H75 C62 0.928 . S
H76 C61 0.929 . S
H77 C59 0.932 . S
C78 C79 1.398 . S
C78 C80 1.397 . S
C78 H102 0.931 . S
C79 C78 1.398 . S
C79 C83 1.386 1_565 S
C80 C78 1.397 . S
C80 C81 1.390 . S
C80 H103 0.930 . S
C81 C80 1.390 . S
C81 C82 1.371 1_565 S
C81 C84 1.480 . S
C82 C81 1.371 1_545 S
C82 C83 1.389 . S
C82 H104 0.929 . S
C83 C79 1.386 1_545 S
C83 C82 1.389 . S
C83 H105 0.931 . S
C84 C81 1.480 . S
C84 C85 1.397 . S
C84 C89 1.386 1_556 S
C85 C84 1.397 . S
C85 C86 1.401 . S
C85 H106 0.930 . S
C86 C85 1.401 . S
C86 C87 1.369 1_556 S
C86 C95 1.521 . S
C87 C86 1.369 1_554 S
C87 C88 1.394 . S
C87 H108 0.931 . S
C88 C87 1.394 . S
C88 C89 1.361 . S
C88 C90 1.493 1_565 S
C89 C84 1.386 1_554 S
C89 C88 1.361 . S
C89 H107 0.929 . S
C90 C88 1.493 1_545 S
C90 C91 1.361 1_545 S
C90 C92 1.381 . S
C91 C90 1.361 1_565 S
C91 C101 1.386 . S
C91 H109 0.931 . S
C92 C90 1.381 . S
C92 C93 1.409 . S
C92 H110 0.929 . S
C93 C92 1.409 . S
C93 C94 1.380 . S
C93 H111 0.930 . S
C94 C93 1.380 . S
C94 C101 1.358 1_545 S
C95 C86 1.521 . S
C95 C96 1.341 . S
C95 C97 1.371 1_566 S
C96 C95 1.341 . S
C96 C100 1.394 . S
C96 H112 0.930 . S
C97 C95 1.371 1_544 S
C97 C98 1.392 1_554 S
C97 H113 0.931 . S
C98 C97 1.392 1_556 S
C98 C99 1.316 1_545 S
C98 H116 0.932 1_556 S
C99 C98 1.316 1_565 S
C99 C100 1.344 . S
C100 C96 1.394 . S
C100 C99 1.344 . S
C100 H115 0.929 . S
C101 C91 1.386 . S
C101 C94 1.358 1_565 S
C101 H114 0.928 . S
H102 C78 0.931 . S
H103 C80 0.930 . S
H104 C82 0.929 . S
H105 C83 0.931 . S
H106 C85 0.930 . S
H107 C89 0.929 . S
H108 C87 0.931 . S
H109 C91 0.931 . S
H110 C92 0.929 . S
H111 C93 0.930 . S
H112 C96 0.930 . S
H113 C97 0.931 . S
H114 C101 0.928 . S
H115 C100 0.929 . S
H116 C98 0.932 1_554 S
C117 C118 1.386 . S
C117 C119 1.397 . S
C117 H141 0.931 . S
C118 C117 1.386 . S
C118 C122 1.397 . S
C119 C117 1.397 . S
C119 C120 1.384 . S
C119 H142 0.930 . S
C120 C119 1.384 . S
C120 C121 1.377 . S
C120 C123 1.481 . S
C121 C120 1.377 . S
C121 C122 1.389 . S
C121 H143 0.929 . S
C122 C118 1.397 . S
C122 C121 1.389 . S
C122 H144 0.931 . S
C123 C120 1.481 . S
C123 C124 1.387 . S
C123 C128 1.390 . S
C124 C123 1.387 . S
C124 C125 1.401 . S
C124 H145 0.930 . S
C125 C124 1.401 . S
C125 C126 1.376 . S
C125 C134 1.511 . S
C126 C125 1.376 . S
C126 C127 1.392 . S
C126 H147 0.931 . S
C127 C126 1.392 . S
C127 C128 1.361 . S
C127 C129 1.500 . S
C128 C123 1.390 . S
C128 C127 1.361 . S
C128 H146 0.931 . S
C129 C127 1.500 . S
C129 C130 1.371 . S
C129 C131 1.365 . S
C130 C129 1.371 . S
C130 C140 1.386 . S
C130 H148 0.931 . S
C131 C129 1.365 . S
C131 C132 1.409 . S
C131 H149 0.929 . S
C132 C131 1.409 . S
C132 C133 1.380 . S
C132 H150 0.930 . S
C133 C132 1.380 . S
C133 C140 1.357 . S
C134 C125 1.511 . S
C134 C135 1.341 . S
C134 C136 1.371 . S
C135 C134 1.341 . S
C135 C139 1.394 . S
C135 H151 0.930 . S
C136 C134 1.371 . S
C136 C137 1.392 . S
C136 H152 0.931 . S
C137 C136 1.392 . S
C137 C138 1.331 . S
C137 H155 0.932 . S
C138 C137 1.331 . S
C138 C139 1.336 . S
C139 C135 1.394 . S
C139 C138 1.336 . S
C139 H154 0.929 . S
C140 C130 1.386 . S
C140 C133 1.357 . S
C140 H153 0.928 . S
H141 C117 0.931 . S
H142 C119 0.930 . S
H143 C121 0.929 . S
H144 C122 0.931 . S
H145 C124 0.930 . S
H146 C128 0.931 . S
H147 C126 0.931 . S
H148 C130 0.931 . S
H149 C131 0.929 . S
H150 C132 0.930 . S
H151 C135 0.930 . S
H152 C136 0.931 . S
H153 C140 0.928 . S
H154 C139 0.929 . S
H155 C137 0.932 . S
C156 C157 1.386 . S
C156 C158 1.397 . S
C156 H180 0.931 . S
C157 C156 1.386 . S
C157 C161 1.397 . S
C158 C156 1.397 . S
C158 C159 1.384 . S
C158 H181 0.930 . S
C159 C158 1.384 . S
C159 C160 1.377 . S
C159 C162 1.481 . S
C160 C159 1.377 . S
C160 C161 1.389 . S
C160 H182 0.929 . S
C161 C157 1.397 . S
C161 C160 1.389 . S
C161 H183 0.931 . S
C162 C159 1.481 . S
C162 C163 1.387 . S
C162 C167 1.390 . S
C163 C162 1.387 . S
C163 C164 1.401 . S
C163 H184 0.930 . S
C164 C163 1.401 . S
C164 C165 1.376 . S
C164 C173 1.511 . S
C165 C164 1.376 . S
C165 C166 1.392 . S
C165 H186 0.931 . S
C166 C165 1.392 . S
C166 C167 1.361 . S
C166 C168 1.500 . S
C167 C162 1.390 . S
C167 C166 1.361 . S
C167 H185 0.931 . S
C168 C166 1.500 . S
C168 C169 1.371 . S
C168 C170 1.365 . S
C169 C168 1.371 . S
C169 C179 1.386 . S
C169 H187 0.931 . S
C170 C168 1.365 . S
C170 C171 1.409 . S
C170 H188 0.929 . S
C171 C170 1.409 . S
C171 C172 1.380 . S
C171 H189 0.930 . S
C172 C171 1.380 . S
C172 C179 1.357 . S
C173 C164 1.511 . S
C173 C174 1.341 . S
C173 C175 1.371 . S
C174 C173 1.341 . S
C174 C178 1.394 . S
C174 H190 0.930 . S
C175 C173 1.371 . S
C175 C176 1.392 . S
C175 H191 0.931 . S
C176 C175 1.392 . S
C176 C177 1.331 . S
C176 H194 0.932 . S
C177 C176 1.331 . S
C177 C178 1.336 . S
C178 C174 1.394 . S
C178 C177 1.336 . S
C178 H193 0.929 . S
C179 C169 1.386 . S
C179 C172 1.357 . S
C179 H192 0.928 . S
H180 C156 0.931 . S
H181 C158 0.930 . S
H182 C160 0.929 . S
H183 C161 0.931 . S
H184 C163 0.930 . S
H185 C167 0.931 . S
H186 C165 0.931 . S
H187 C169 0.931 . S
H188 C170 0.929 . S
H189 C171 0.930 . S
H190 C174 0.930 . S
H191 C175 0.931 . S
H192 C179 0.928 . S
H193 C178 0.929 . S
H194 C176 0.932 . S
C195 C196 1.386 . S
C195 C197 1.397 . S
C195 H219 0.931 . S
C196 C195 1.386 . S
C196 C200 1.397 . S
C197 C195 1.397 . S
C197 C198 1.384 . S
C197 H220 0.930 . S
C198 C197 1.384 . S
C198 C199 1.377 . S
C198 C201 1.481 . S
C199 C198 1.377 . S
C199 C200 1.389 . S
C199 H221 0.929 . S
C200 C196 1.397 . S
C200 C199 1.389 . S
C200 H222 0.931 . S
C201 C198 1.481 . S
C201 C202 1.387 . S
C201 C206 1.390 . S
C202 C201 1.387 . S
C202 C203 1.401 . S
C202 H223 0.930 . S
C203 C202 1.401 . S
C203 C204 1.376 . S
C203 C212 1.511 . S
C204 C203 1.376 . S
C204 C205 1.392 . S
C204 H225 0.931 . S
C205 C204 1.392 . S
C205 C206 1.361 . S
C205 C207 1.500 . S
C206 C201 1.390 . S
C206 C205 1.361 . S
C206 H224 0.931 . S
C207 C205 1.500 . S
C207 C208 1.371 . S
C207 C209 1.365 . S
C208 C207 1.371 . S
C208 C218 1.386 . S
C208 H226 0.931 . S
C209 C207 1.365 . S
C209 C210 1.409 . S
C209 H227 0.929 . S
C210 C209 1.409 . S
C210 C211 1.380 . S
C210 H228 0.930 . S
C211 C210 1.380 . S
C211 C218 1.357 . S
C212 C203 1.511 . S
C212 C213 1.341 . S
C212 C214 1.371 . S
C213 C212 1.341 . S
C213 C217 1.394 . S
C213 H229 0.930 . S
C214 C212 1.371 . S
C214 C215 1.392 . S
C214 H230 0.931 . S
C215 C214 1.392 . S
C215 C216 1.331 . S
C215 H233 0.932 . S
C216 C215 1.331 . S
C216 C217 1.336 . S
C217 C213 1.394 . S
C217 C216 1.336 . S
C217 H232 0.929 . S
C218 C208 1.386 . S
C218 C211 1.357 . S
C218 H231 0.928 . S
H219 C195 0.931 . S
H220 C197 0.930 . S
H221 C199 0.929 . S
H222 C200 0.931 . S
H223 C202 0.930 . S
H224 C206 0.931 . S
H225 C204 0.931 . S
H226 C208 0.931 . S
H227 C209 0.929 . S
H228 C210 0.930 . S
H229 C213 0.930 . S
H230 C214 0.931 . S
H231 C218 0.928 . S
H232 C217 0.929 . S
H233 C215 0.932 . S
C234 C235 1.388 . S
C234 C236 1.397 . S
C234 H258 0.931 . S
C235 C234 1.388 . S
C235 C239 1.395 1_565 S
C236 C234 1.397 . S
C236 C237 1.383 . S
C236 H259 0.930 . S
C237 C236 1.383 . S
C237 C238 1.378 1_565 S
C237 C240 1.481 . S
C238 C237 1.378 1_545 S
C238 C239 1.389 . S
C238 H260 0.929 . S
C239 C235 1.395 1_545 S
C239 C238 1.389 . S
C239 H261 0.931 . S
C240 C237 1.481 . S
C240 C241 1.382 . S
C240 C245 1.395 . S
C241 C240 1.382 . S
C241 C242 1.403 . S
C241 H262 0.930 . S
C242 C241 1.403 . S
C242 C243 1.373 . S
C242 C251 1.506 . S
C243 C242 1.373 . S
C243 C244 1.400 1_565 S
C243 H264 0.932 . S
C244 C243 1.400 1_545 S
C244 C245 1.361 1_545 S
C244 C246 1.508 . S
C245 C240 1.395 . S
C245 C244 1.361 1_565 S
C245 H263 0.933 . S
C246 C244 1.508 . S
C246 C247 1.357 1_545 S
C246 C248 1.373 . S
C247 C246 1.357 1_565 S
C247 C257 1.386 . S
C247 H265 0.931 . S
C248 C246 1.373 . S
C248 C249 1.409 . S
C248 H266 0.929 . S
C249 C248 1.409 . S
C249 C250 1.384 . S
C249 H267 0.930 . S
C250 C249 1.384 . S
C250 C257 1.355 1_545 S
C251 C242 1.506 . S
C251 C252 1.341 . S
C251 C253 1.371 1_565 S
C252 C251 1.341 . S
C252 C256 1.394 . S
C252 H268 0.930 . S
C253 C251 1.371 1_545 S
C253 C254 1.392 . S
C253 H269 0.931 . S
C254 C253 1.392 . S
C254 C255 1.329 1_545 S
C254 H272 0.932 . S
C255 C254 1.329 1_565 S
C255 C256 1.343 . S
C256 C252 1.394 . S
C256 C255 1.343 . S
C256 H271 0.929 . S
C257 C247 1.386 . S
C257 C250 1.355 1_565 S
C257 H270 0.928 . S
H258 C234 0.931 . S
H259 C236 0.930 . S
H260 C238 0.929 . S
H261 C239 0.931 . S
H262 C241 0.930 . S
H263 C245 0.933 . S
H264 C243 0.932 . S
H265 C247 0.931 . S
H266 C248 0.929 . S
H267 C249 0.930 . S
H268 C252 0.930 . S
H269 C253 0.931 . S
H270 C257 0.928 . S
H271 C256 0.929 . S
H272 C254 0.932 . S
C273 C274 1.386 . S
C273 C275 1.397 . S
C273 H297 0.931 . S
C274 C273 1.386 . S
C274 C278 1.397 . S
C275 C273 1.397 . S
C275 C276 1.384 . S
C275 H298 0.930 . S
C276 C275 1.384 . S
C276 C277 1.377 . S
C276 C279 1.481 . S
C277 C276 1.377 . S
C277 C278 1.389 . S
C277 H299 0.929 . S
C278 C274 1.397 . S
C278 C277 1.389 . S
C278 H300 0.931 . S
C279 C276 1.481 . S
C279 C280 1.387 . S
C279 C284 1.390 . S
C280 C279 1.387 . S
C280 C281 1.401 . S
C280 H301 0.930 . S
C281 C280 1.401 . S
C281 C282 1.376 . S
C281 C290 1.511 . S
C282 C281 1.376 . S
C282 C283 1.392 . S
C282 H303 0.931 . S
C283 C282 1.392 . S
C283 C284 1.361 . S
C283 C285 1.500 . S
C284 C279 1.390 . S
C284 C283 1.361 . S
C284 H302 0.931 . S
C285 C283 1.500 . S
C285 C286 1.371 . S
C285 C287 1.365 . S
C286 C285 1.371 . S
C286 C296 1.386 . S
C286 H304 0.931 . S
C287 C285 1.365 . S
C287 C288 1.409 . S
C287 H305 0.929 . S
C288 C287 1.409 . S
C288 C289 1.380 . S
C288 H306 0.930 . S
C289 C288 1.380 . S
C289 C296 1.357 . S
C290 C281 1.511 . S
C290 C291 1.341 . S
C290 C292 1.371 . S
C291 C290 1.341 . S
C291 C295 1.394 . S
C291 H307 0.930 . S
C292 C290 1.371 . S
C292 C293 1.392 . S
C292 H308 0.931 . S
C293 C292 1.392 . S
C293 C294 1.331 . S
C293 H311 0.932 . S
C294 C293 1.331 . S
C294 C295 1.336 . S
C295 C291 1.394 . S
C295 C294 1.336 . S
C295 H310 0.929 . S
C296 C286 1.386 . S
C296 C289 1.357 . S
C296 H309 0.928 . S
H297 C273 0.931 . S
H298 C275 0.930 . S
H299 C277 0.929 . S
H300 C278 0.931 . S
H301 C280 0.930 . S
H302 C284 0.931 . S
H303 C282 0.931 . S
H304 C286 0.931 . S
H305 C287 0.929 . S
H306 C288 0.930 . S
H307 C291 0.930 . S
H308 C292 0.931 . S
H309 C296 0.928 . S
H310 C295 0.929 . S
H311 C293 0.932 . S
Nd312 C314 2.836 1_455 S
Nd312 O332 2.500 1_455 S
Nd312 O333 2.492 . S
Nd312 O334 2.487 . S
Nd312 O335 2.682 1_565 S
Nd312 O336 2.410 . S
Nd312 O341 2.414 1_455 S
Nd312 O343 2.424 1_565 S
Nd313 C323 2.836 1_556 S
Nd313 O335 2.414 . S
Nd313 O337 2.424 1_545 S
Nd313 O338 2.500 . S
Nd313 O339 2.492 1_556 S
Nd313 O340 2.487 1_455 S
Nd313 O341 2.682 1_445 S
Nd313 O342 2.410 . S
C314 Nd312 2.836 1_655 S
C314 C315 1.498 . S
C314 O332 1.258 . S
C314 O333 1.239 1_655 S
C315 C314 1.498 . S
C315 C316 1.366 . S
C315 C320 1.407 . S
C316 C315 1.366 . S
C316 C317 1.392 . S
C316 H344 0.930 . S
C317 C316 1.392 . S
C317 C318 1.398 . S
C317 H345 0.929 . S
C318 C317 1.398 . S
C318 C319 1.352 . S
C319 C318 1.352 . S
C319 C320 1.384 . S
C319 H346 0.930 . S
C320 C315 1.407 . S
C320 C319 1.384 . S
C320 H347 0.929 1_655 S
C321 O334 1.241 . S
C321 O335 1.273 1_565 S
C322 O336 1.251 . S
C322 O337 1.268 . S
C323 Nd313 2.836 1_554 S
C323 C324 1.498 . S
C323 O338 1.258 1_554 S
C323 O339 1.239 . S
C324 C323 1.498 . S
C324 C325 1.366 . S
C324 C329 1.407 . S
C325 C324 1.366 . S
C325 C326 1.392 . S
C325 H348 0.930 . S
C326 C325 1.392 . S
C326 C327 1.398 . S
C326 H349 0.929 . S
C327 C326 1.398 . S
C327 C328 1.352 . S
C328 C327 1.352 . S
C328 C329 1.384 . S
C328 H350 0.930 . S
C329 C324 1.407 . S
C329 C328 1.384 . S
C329 H351 0.929 . S
C330 O340 1.241 . S
C330 O341 1.273 1_545 S
C331 O342 1.251 . S
C331 O343 1.268 . S
O332 Nd312 2.500 1_655 S
O332 C314 1.258 . S
O333 Nd312 2.492 . S
O333 C314 1.239 1_455 S
O334 Nd312 2.487 . S
O334 C321 1.241 . S
O335 Nd312 2.682 1_545 S
O335 Nd313 2.414 . S
O335 C321 1.273 1_545 S
O336 Nd312 2.410 . S
O336 C322 1.251 . S
O337 Nd313 2.424 1_565 S
O337 C322 1.268 . S
O338 Nd313 2.500 . S
O338 C323 1.258 1_556 S
O339 Nd313 2.492 1_554 S
O339 C323 1.239 . S
O340 Nd313 2.487 1_655 S
O340 C330 1.241 . S
O341 Nd312 2.414 1_655 S
O341 Nd313 2.682 1_665 S
O341 C330 1.273 1_565 S
O342 Nd313 2.410 . S
O342 C331 1.251 . S
O343 Nd312 2.424 1_545 S
O343 C331 1.268 . S
H344 C316 0.930 . S
H345 C317 0.929 . S
H346 C319 0.930 . S
H347 C320 0.929 1_455 S
H348 C325 0.930 . S
H349 C326 0.929 . S
H350 C328 0.930 . S
H351 C329 0.929 . S
Nd352 C354 2.836 . S
Nd352 O372 2.500 . S
Nd352 O373 2.492 . S
Nd352 O374 2.487 1_565 S
Nd352 O375 2.682 1_565 S
Nd352 O376 2.410 1_565 S
Nd352 O381 2.414 . S
Nd352 O383 2.424 . S
Nd353 C363 2.836 1_556 S
Nd353 O375 2.414 . S
Nd353 O377 2.424 . S
Nd353 O378 2.500 . S
Nd353 O379 2.492 1_556 S
Nd353 O380 2.487 1_545 S
Nd353 O381 2.682 1_545 S
Nd353 O382 2.410 1_545 S
C354 Nd352 2.836 . S
C354 C355 1.498 . S
C354 O372 1.258 . S
C354 O373 1.239 . S
C355 C354 1.498 . S
C355 C356 1.366 . S
C355 C360 1.407 . S
C356 C355 1.366 . S
C356 C357 1.392 . S
C356 H384 0.930 . S
C357 C356 1.392 . S
C357 C358 1.398 . S
C357 H385 0.929 . S
C358 C357 1.398 . S
C358 C359 1.352 . S
C359 C358 1.352 . S
C359 C360 1.384 . S
C359 H386 0.930 . S
C360 C355 1.407 . S
C360 C359 1.384 . S
C360 H387 0.929 1_565 S
C361 O374 1.241 . S
C361 O375 1.273 . S
C362 O376 1.251 . S
C362 O377 1.268 . S
C363 Nd353 2.836 1_554 S
C363 C364 1.498 . S
C363 O378 1.258 1_554 S
C363 O379 1.239 . S
C364 C363 1.498 . S
C364 C365 1.366 . S
C364 C369 1.407 . S
C365 C364 1.366 . S
C365 C366 1.392 . S
C365 H388 0.930 1_554 S
C366 C365 1.392 . S
C366 C367 1.398 . S
C366 H389 0.929 . S
C367 C366 1.398 . S
C367 C368 1.352 . S
C368 C367 1.352 . S
C368 C369 1.384 . S
C368 H390 0.930 . S
C369 C364 1.407 . S
C369 C368 1.384 . S
C369 H391 0.929 1_545 S
C370 O380 1.241 . S
C370 O381 1.273 . S
C371 O382 1.251 . S
C371 O383 1.268 . S
O372 Nd352 2.500 . S
O372 C354 1.258 . S
O373 Nd352 2.492 . S
O373 C354 1.239 . S
O374 Nd352 2.487 1_545 S
O374 C361 1.241 . S
O375 Nd352 2.682 1_545 S
O375 Nd353 2.414 . S
O375 C361 1.273 . S
O376 Nd352 2.410 1_545 S
O376 C362 1.251 . S
O377 Nd353 2.424 . S
O377 C362 1.268 . S
O378 Nd353 2.500 . S
O378 C363 1.258 1_556 S
O379 Nd353 2.492 1_554 S
O379 C363 1.239 . S
O380 Nd353 2.487 1_565 S
O380 C370 1.241 . S
O381 Nd352 2.414 . S
O381 Nd353 2.682 1_565 S
O381 C370 1.273 . S
O382 Nd353 2.410 1_565 S
O382 C371 1.251 . S
O383 Nd352 2.424 . S
O383 C371 1.268 . S
H384 C356 0.930 . S
H385 C357 0.929 . S
H386 C359 0.930 . S
H387 C360 0.929 1_545 S
H388 C365 0.930 1_556 S
H389 C366 0.929 . S
H390 C368 0.930 . S
H391 C369 0.929 1_565 S
Nd392 C394 2.836 . S
Nd392 O412 2.500 . S
Nd392 O413 2.492 . S
Nd392 O414 2.487 . S
Nd392 O415 2.682 . S
Nd392 O416 2.410 . S
Nd392 O421 2.414 . S
Nd392 O423 2.424 . S
Nd393 C403 2.836 . S
Nd393 O415 2.414 . S
Nd393 O417 2.424 . S
Nd393 O418 2.500 . S
Nd393 O419 2.492 . S
Nd393 O420 2.487 . S
Nd393 O421 2.682 . S
Nd393 O422 2.410 . S
C394 Nd392 2.836 . S
C394 C395 1.502 . S
C394 O412 1.258 . S
C394 O413 1.239 . S
C395 C394 1.502 . S
C395 C396 1.369 . S
C395 C400 1.400 1_556 S
C396 C395 1.369 . S
C396 C397 1.392 . S
C396 H424 0.930 . S
C397 C396 1.392 . S
C397 C398 1.398 1_556 S
C397 H425 0.929 . S
C398 C397 1.398 1_554 S
C398 C399 1.352 . S
C399 C398 1.352 . S
C399 C400 1.384 . S
C399 H426 0.930 . S
C400 C395 1.400 1_554 S
C400 C399 1.384 . S
C400 H427 0.929 . S
C401 O414 1.241 . S
C401 O415 1.273 . S
C402 O416 1.251 . S
C402 O417 1.268 . S
C403 Nd393 2.836 . S
C403 C404 1.498 . S
C403 O418 1.258 . S
C403 O419 1.239 . S
C404 C403 1.498 . S
C404 C405 1.366 . S
C404 C409 1.407 . S
C405 C404 1.366 . S
C405 C406 1.392 . S
C405 H428 0.930 . S
C406 C405 1.392 . S
C406 C407 1.398 . S
C406 H429 0.929 . S
C407 C406 1.398 . S
C407 C408 1.352 . S
C408 C407 1.352 . S
C408 C409 1.384 . S
C408 H430 0.930 . S
C409 C404 1.407 . S
C409 C408 1.384 . S
C409 H431 0.929 . S
C410 O420 1.241 . S
C410 O421 1.273 . S
C411 O422 1.251 . S
C411 O423 1.268 . S
O412 Nd392 2.500 . S
O412 C394 1.258 . S
O413 Nd392 2.492 . S
O413 C394 1.239 . S
O414 Nd392 2.487 . S
O414 C401 1.241 . S
O415 Nd392 2.682 . S
O415 Nd393 2.414 . S
O415 C401 1.273 . S
O416 Nd392 2.410 . S
O416 C402 1.251 . S
O417 Nd393 2.424 . S
O417 C402 1.268 . S
O418 Nd393 2.500 . S
O418 C403 1.258 . S
O419 Nd393 2.492 . S
O419 C403 1.239 . S
O420 Nd393 2.487 . S
O420 C410 1.241 . S
O421 Nd392 2.414 . S
O421 Nd393 2.682 . S
O421 C410 1.273 . S
O422 Nd393 2.410 . S
O422 C411 1.251 . S
O423 Nd392 2.424 . S
O423 C411 1.268 . S
H424 C396 0.930 . S
H425 C397 0.929 . S
H426 C399 0.930 . S
H427 C400 0.929 . S
H428 C405 0.930 . S
H429 C406 0.929 . S
H430 C408 0.930 . S
H431 C409 0.929 . S
Nd432 C434 2.836 1_455 S
Nd432 O452 2.500 1_455 S
Nd432 O453 2.492 1_455 S
Nd432 O454 2.487 . S
Nd432 O455 2.682 . S
Nd432 O456 2.410 1_455 S
Nd432 O461 2.414 . S
Nd432 O463 2.424 . S
Nd433 C443 2.836 1_556 S
Nd433 O455 2.414 . S
Nd433 O457 2.424 1_455 S
Nd433 O458 2.500 . S
Nd433 O459 2.492 1_556 S
Nd433 O460 2.487 . S
Nd433 O461 2.682 . S
Nd433 O462 2.410 . S
C434 Nd432 2.836 1_655 S
C434 C435 1.498 . S
C434 O452 1.258 . S
C434 O453 1.239 . S
C435 C434 1.498 . S
C435 C436 1.366 . S
C435 C440 1.407 . S
C436 C435 1.366 . S
C436 C437 1.392 . S
C436 H464 0.930 . S
C437 C436 1.392 . S
C437 C438 1.398 . S
C437 H465 0.929 . S
C438 C437 1.398 . S
C438 C439 1.352 . S
C439 C438 1.352 . S
C439 C440 1.384 . S
C439 H466 0.930 . S
C440 C435 1.407 . S
C440 C439 1.384 . S
C440 H467 0.929 . S
C441 O454 1.241 . S
C441 O455 1.273 . S
C442 O456 1.251 . S
C442 O457 1.268 . S
C443 Nd433 2.836 1_554 S
C443 C444 1.498 . S
C443 O458 1.258 1_554 S
C443 O459 1.239 . S
C444 C443 1.498 . S
C444 C445 1.366 . S
C444 C449 1.407 . S
C445 C444 1.366 . S
C445 C446 1.392 . S
C445 H468 0.930 . S
C446 C445 1.392 . S
C446 C447 1.398 . S
C446 H469 0.929 . S
C447 C446 1.398 . S
C447 C448 1.352 . S
C448 C447 1.352 . S
C448 C449 1.384 . S
C448 H470 0.930 . S
C449 C444 1.407 . S
C449 C448 1.384 . S
C449 H471 0.929 . S
C450 O460 1.241 . S
C450 O461 1.273 . S
C451 O462 1.251 . S
C451 O463 1.268 . S
O452 Nd432 2.500 1_655 S
O452 C434 1.258 . S
O453 Nd432 2.492 1_655 S
O453 C434 1.239 . S
O454 Nd432 2.487 . S
O454 C441 1.241 . S
O455 Nd432 2.682 . S
O455 Nd433 2.414 . S
O455 C441 1.273 . S
O456 Nd432 2.410 1_655 S
O456 C442 1.251 . S
O457 Nd433 2.424 1_655 S
O457 C442 1.268 . S
O458 Nd433 2.500 . S
O458 C443 1.258 1_556 S
O459 Nd433 2.492 1_554 S
O459 C443 1.239 . S
O460 Nd433 2.487 . S
O460 C450 1.241 . S
O461 Nd432 2.414 . S
O461 Nd433 2.682 . S
O461 C450 1.273 . S
O462 Nd433 2.410 . S
O462 C451 1.251 . S
O463 Nd432 2.424 . S
O463 C451 1.268 . S
H464 C436 0.930 . S
H465 C437 0.929 . S
H466 C439 0.930 . S
H467 C440 0.929 . S
H468 C445 0.930 . S
H469 C446 0.929 . S
H470 C448 0.930 . S
H471 C449 0.929 . S
H472 C478 0.930 . S
H473 C481 0.930 . S
H474 C482 0.930 . S
H475 C483 0.930 . S
H476 C486 0.930 . S
H477 C487 0.930 . S
C478 H472 0.930 . S
C478 C479 1.355 1_565 S
C478 C480 1.415 . S
C479 C478 1.355 1_545 S
C479 C481 1.419 . S
C480 C478 1.415 . S
C480 C485 1.425 1_565 S
C480 C487 1.409 . S
C481 H473 0.930 . S
C481 C479 1.419 . S
C481 C482 1.362 . S
C482 H474 0.930 . S
C482 C481 1.362 . S
C482 C485 1.409 . S
C483 H475 0.930 . S
C483 C484 1.355 1_545 S
C483 C485 1.415 . S
C484 C483 1.355 1_565 S
C484 C486 1.419 . S
C485 C480 1.425 1_545 S
C485 C482 1.409 . S
C485 C483 1.415 . S
C486 H476 0.930 . S
C486 C484 1.419 . S
C486 C487 1.362 . S
C487 H477 0.930 . S
C487 C480 1.409 . S
C487 C486 1.362 . S
H488 C494 0.930 . S
H489 C497 0.930 . S
H490 C498 0.930 . S
H491 C499 0.930 . S
H492 C502 0.930 . S
H493 C503 0.930 . S
C494 H488 0.930 . S
C494 C495 1.355 . S
C494 C496 1.415 . S
C495 C494 1.355 . S
C495 C497 1.419 . S
C496 C494 1.415 . S
C496 C501 1.425 . S
C496 C503 1.409 . S
C497 H489 0.930 . S
C497 C495 1.419 . S
C497 C498 1.362 . S
C498 H490 0.930 . S
C498 C497 1.362 . S
C498 C501 1.409 . S
C499 H491 0.930 . S
C499 C500 1.355 . S
C499 C501 1.415 . S
C500 C499 1.355 . S
C500 C502 1.419 . S
C501 C496 1.425 . S
C501 C498 1.409 . S
C501 C499 1.415 . S
C502 H492 0.930 . S
C502 C500 1.419 . S
C502 C503 1.362 . S
C503 H493 0.930 . S
C503 C496 1.409 . S
C503 C502 1.362 . S
H504 C510 0.930 . S
H505 C513 0.930 . S
H506 C514 0.930 . S
H507 C515 0.930 . S
H508 C518 0.930 . S
H509 C519 0.930 . S
C510 H504 0.930 . S
C510 C511 1.355 . S
C510 C512 1.415 . S
C511 C510 1.355 . S
C511 C513 1.419 . S
C512 C510 1.415 . S
C512 C517 1.425 . S
C512 C519 1.409 . S
C513 H505 0.930 . S
C513 C511 1.419 . S
C513 C514 1.362 . S
C514 H506 0.930 . S
C514 C513 1.362 . S
C514 C517 1.409 . S
C515 H507 0.930 . S
C515 C516 1.355 . S
C515 C517 1.415 . S
C516 C515 1.355 . S
C516 C518 1.419 . S
C517 C512 1.425 . S
C517 C514 1.409 . S
C517 C515 1.415 . S
C518 H508 0.930 . S
C518 C516 1.419 . S
C518 C519 1.362 . S
C519 H509 0.930 . S
C519 C512 1.409 . S
C519 C518 1.362 . S
H520 C526 0.930 . S
H521 C529 0.930 . S
H522 C530 0.930 . S
H523 C531 0.930 . S
H524 C534 0.930 . S
H525 C535 0.930 . S
C526 H520 0.930 . S
C526 C527 1.355 . S
C526 C528 1.415 . S
C527 C526 1.355 . S
C527 C529 1.419 . S
C528 C526 1.415 . S
C528 C533 1.425 . S
C528 C535 1.409 . S
C529 H521 0.930 . S
C529 C527 1.419 . S
C529 C530 1.362 . S
C530 H522 0.930 . S
C530 C529 1.362 . S
C530 C533 1.409 . S
C531 H523 0.930 . S
C531 C532 1.355 . S
C531 C533 1.415 . S
C532 C531 1.355 . S
C532 C534 1.419 . S
C533 C528 1.425 . S
C533 C530 1.409 . S
C533 C531 1.415 . S
C534 H524 0.930 . S
C534 C532 1.419 . S
C534 C535 1.362 . S
C535 H525 0.930 . S
C535 C528 1.409 . S
C535 C534 1.362 . S
H536 C542 0.930 1_554 S
H537 C545 0.932 1_565 S
H538 C546 0.930 . S
H539 C547 0.931 . S
H540 C550 0.930 . S
H541 C551 0.930 1_554 S
C542 H536 0.930 1_556 S
C542 C543 1.354 . S
C542 C544 1.415 . S
C543 C542 1.354 . S
C543 C545 1.410 . S
C544 C542 1.415 . S
C544 C549 1.425 . S
C544 C551 1.409 . S
C545 H537 0.932 1_545 S
C545 C543 1.410 . S
C545 C546 1.371 . S
C546 H538 0.930 . S
C546 C545 1.371 . S
C546 C549 1.408 . S
C547 H539 0.931 . S
C547 C548 1.355 . S
C547 C549 1.415 . S
C548 C547 1.355 . S
C548 C550 1.419 . S
C549 C544 1.425 . S
C549 C546 1.408 . S
C549 C547 1.415 . S
C550 H540 0.930 . S
C550 C548 1.419 . S
C550 C551 1.362 . S
C551 H541 0.930 1_556 S
C551 C544 1.409 . S
C551 C550 1.362 . S
H552 C558 0.930 . S
H553 C561 0.930 . S
H554 C562 0.930 . S
H555 C563 0.930 1_556 S
H556 C566 0.930 . S
H557 C567 0.930 . S
C558 H552 0.930 . S
C558 C559 1.355 . S
C558 C560 1.415 . S
C559 C558 1.355 . S
C559 C561 1.419 . S
C560 C558 1.415 . S
C560 C565 1.425 . S
C560 C567 1.409 . S
C561 H553 0.930 . S
C561 C559 1.419 . S
C561 C562 1.362 . S
C562 H554 0.930 . S
C562 C561 1.362 . S
C562 C565 1.409 . S
C563 H555 0.930 1_554 S
C563 C564 1.355 . S
C563 C565 1.415 . S
C564 C563 1.355 . S
C564 C566 1.419 . S
C565 C560 1.425 . S
C565 C562 1.409 . S
C565 C563 1.415 . S
C566 H556 0.930 . S
C566 C564 1.419 . S
C566 C567 1.362 . S
C567 H557 0.930 . S
C567 C560 1.409 . S
C567 C566 1.362 . S
H568 C574 0.930 . S
H569 C577 0.930 . S
H570 C578 0.930 . S
H571 C579 0.930 . S
H572 C582 0.930 . S
H573 C583 0.930 . S
C574 H568 0.930 . S
C574 C575 1.355 . S
C574 C576 1.415 . S
C575 C574 1.355 . S
C575 C577 1.419 . S
C576 C574 1.415 . S
C576 C581 1.425 . S
C576 C583 1.409 . S
C577 H569 0.930 . S
C577 C575 1.419 . S
C577 C578 1.362 . S
C578 H570 0.930 . S
C578 C577 1.362 . S
C578 C581 1.409 . S
C579 H571 0.930 . S
C579 C580 1.355 . S
C579 C581 1.415 . S
C580 C579 1.355 . S
C580 C582 1.419 . S
C581 C576 1.425 . S
C581 C578 1.409 . S
C581 C579 1.415 . S
C582 H572 0.930 . S
C582 C580 1.419 . S
C582 C583 1.362 . S
C583 H573 0.930 . S
C583 C576 1.409 . S
C583 C582 1.362 . S
H584 C590 0.930 . S
H585 C593 0.930 . S
H586 C594 0.930 . S
H587 C595 0.930 . S
H588 C598 0.930 . S
H589 C599 0.930 . S
C590 H584 0.930 . S
C590 C591 1.355 . S
C590 C592 1.415 1_554 S
C591 C590 1.355 . S
C591 C593 1.419 1_554 S
C592 C590 1.415 1_556 S
C592 C597 1.425 . S
C592 C599 1.409 . S
C593 H585 0.930 . S
C593 C591 1.419 1_556 S
C593 C594 1.362 . S
C594 H586 0.930 . S
C594 C593 1.362 . S
C594 C597 1.409 . S
C595 H587 0.930 . S
C595 C596 1.355 . S
C595 C597 1.415 . S
C596 C595 1.355 . S
C596 C598 1.419 . S
C597 C592 1.425 . S
C597 C594 1.409 . S
C597 C595 1.415 . S
C598 H588 0.930 . S
C598 C596 1.419 . S
C598 C599 1.362 . S
C599 H589 0.930 . S
C599 C592 1.409 . S
C599 C598 1.362 . S
H600 C606 0.930 . S
H601 C609 0.930 . S
H602 C610 0.930 . S
H603 C611 0.930 . S
H604 C614 0.930 . S
H605 C615 0.930 . S
C606 H600 0.930 . S
C606 C607 1.355 . S
C606 C608 1.415 . S
C607 C606 1.355 . S
C607 C609 1.419 . S
C608 C606 1.415 . S
C608 C613 1.425 . S
C608 C615 1.409 . S
C609 H601 0.930 . S
C609 C607 1.419 . S
C609 C610 1.362 . S
C610 H602 0.930 . S
C610 C609 1.362 . S
C610 C613 1.409 . S
C611 H603 0.930 . S
C611 C612 1.355 . S
C611 C613 1.415 . S
C612 C611 1.355 . S
C612 C614 1.419 . S
C613 C608 1.425 . S
C613 C610 1.409 . S
C613 C611 1.415 . S
C614 H604 0.930 . S
C614 C612 1.419 . S
C614 C615 1.362 . S
C615 H605 0.930 . S
C615 C608 1.409 . S
C615 C614 1.362 . S
H616 C622 0.930 . S
H617 C625 0.930 . S
H618 C626 0.930 . S
H619 C627 0.930 . S
H620 C630 0.930 . S
H621 C631 0.930 . S
C622 H616 0.930 . S
C622 C623 1.355 1_545 S
C622 C624 1.415 . S
C623 C622 1.355 1_565 S
C623 C625 1.419 . S
C624 C622 1.415 . S
C624 C629 1.425 1_545 S
C624 C631 1.409 . S
C625 H617 0.930 . S
C625 C623 1.419 . S
C625 C626 1.362 . S
C626 H618 0.930 . S
C626 C625 1.362 . S
C626 C629 1.409 . S
C627 H619 0.930 . S
C627 C628 1.355 . S
C627 C629 1.415 . S
C628 C627 1.355 . S
C628 C630 1.419 1_565 S
C629 C624 1.425 1_565 S
C629 C626 1.409 . S
C629 C627 1.415 . S
C630 H620 0.930 . S
C630 C628 1.419 1_545 S
C630 C631 1.362 . S
C631 H621 0.930 . S
C631 C624 1.409 . S
C631 C630 1.362 . S
H632 C638 0.930 . S
H633 C641 0.930 . S
H634 C642 0.930 . S
H635 C643 0.930 . S
H636 C646 0.930 . S
H637 C647 0.930 . S
C638 H632 0.930 . S
C638 C639 1.355 . S
C638 C640 1.415 . S
C639 C638 1.355 . S
C639 C641 1.419 . S
C640 C638 1.415 . S
C640 C645 1.425 . S
C640 C647 1.409 . S
C641 H633 0.930 . S
C641 C639 1.419 . S
C641 C642 1.362 . S
C642 H634 0.930 . S
C642 C641 1.362 . S
C642 C645 1.409 . S
C643 H635 0.930 . S
C643 C644 1.355 . S
C643 C645 1.415 . S
C644 C643 1.355 . S
C644 C646 1.419 . S
C645 C640 1.425 . S
C645 C642 1.409 . S
C645 C643 1.415 . S
C646 H636 0.930 . S
C646 C644 1.419 . S
C646 C647 1.362 . S
C647 H637 0.930 . S
C647 C640 1.409 . S
C647 C646 1.362 . S
H648 C654 0.930 . S
H649 C657 0.930 . S
H650 C658 0.930 . S
H651 C659 0.930 . S
H652 C662 0.930 . S
H653 C663 0.930 . S
C654 H648 0.930 . S
C654 C655 1.355 . S
C654 C656 1.415 . S
C655 C654 1.355 . S
C655 C657 1.419 . S
C656 C654 1.415 . S
C656 C661 1.425 . S
C656 C663 1.409 . S
C657 H649 0.930 . S
C657 C655 1.419 . S
C657 C658 1.362 . S
C658 H650 0.930 . S
C658 C657 1.362 . S
C658 C661 1.409 . S
C659 H651 0.930 . S
C659 C660 1.355 . S
C659 C661 1.415 . S
C660 C659 1.355 . S
C660 C662 1.419 . S
C661 C656 1.425 . S
C661 C658 1.409 . S
C661 C659 1.415 . S
C662 H652 0.930 . S
C662 C660 1.419 . S
C662 C663 1.362 . S
C663 H653 0.930 . S
C663 C656 1.409 . S
C663 C662 1.362 . S
H664 C670 0.930 . S
H665 C673 0.930 . S
H666 C674 0.930 . S
H667 C675 0.930 . S
H668 C678 0.930 1_455 S
H669 C679 0.930 . S
C670 H664 0.930 . S
C670 C671 1.355 . S
C670 C672 1.415 . S
C671 C670 1.355 . S
C671 C673 1.419 . S
C672 C670 1.415 . S
C672 C677 1.425 . S
C672 C679 1.409 . S
C673 H665 0.930 . S
C673 C671 1.419 . S
C673 C674 1.362 . S
C674 H666 0.930 . S
C674 C673 1.362 . S
C674 C677 1.409 . S
C675 H667 0.930 . S
C675 C676 1.355 . S
C675 C677 1.415 . S
C676 C675 1.355 . S
C676 C678 1.419 . S
C677 C672 1.425 . S
C677 C674 1.409 . S
C677 C675 1.415 . S
C678 H668 0.930 1_655 S
C678 C676 1.419 . S
C678 C679 1.362 . S
C679 H669 0.930 . S
C679 C672 1.409 . S
C679 C678 1.362 . S
H680 C686 0.930 . S
H681 C689 0.930 . S
H682 C690 0.930 . S
H683 C691 0.930 . S
H684 C694 0.933 . S
H685 C695 0.930 . S
C686 H680 0.930 . S
C686 C687 1.355 1_565 S
C686 C688 1.415 1_565 S
C687 C686 1.355 1_545 S
C687 C689 1.419 . S
C688 C686 1.415 1_545 S
C688 C693 1.425 . S
C688 C695 1.409 1_545 S
C689 H681 0.930 . S
C689 C687 1.419 . S
C689 C690 1.362 . S
C690 H682 0.930 . S
C690 C689 1.362 . S
C690 C693 1.409 . S
C691 H683 0.930 . S
C691 C692 1.355 . S
C691 C693 1.415 . S
C692 C691 1.355 . S
C692 C694 1.419 . S
C693 C688 1.425 . S
C693 C690 1.409 . S
C693 C691 1.415 . S
C694 H684 0.933 . S
C694 C692 1.419 . S
C694 C695 1.362 1_545 S
C695 H685 0.930 . S
C695 C688 1.409 1_565 S
C695 C694 1.362 1_565 S
H696 C702 0.930 . S
H697 C705 0.930 . S
H698 C706 0.947 . S
H699 C707 0.930 1_556 S
H700 C710 0.930 . S
H701 C711 0.930 . S
C702 H696 0.930 . S
C702 C703 1.355 . S
C702 C704 1.415 . S
C703 C702 1.355 . S
C703 C705 1.419 . S
C704 C702 1.415 . S
C704 C709 1.425 . S
C704 C711 1.409 . S
C705 H697 0.930 . S
C705 C703 1.419 . S
C705 C706 1.362 . S
C706 H698 0.947 . S
C706 C705 1.362 . S
C706 C709 1.409 . S
C707 H699 0.930 1_554 S
C707 C708 1.355 . S
C707 C709 1.415 . S
C708 C707 1.355 . S
C708 C710 1.419 . S
C709 C704 1.425 . S
C709 C706 1.409 . S
C709 C707 1.415 . S
C710 H700 0.930 . S
C710 C708 1.419 . S
C710 C711 1.362 . S
C711 H701 0.930 . S
C711 C704 1.409 . S
C711 C710 1.362 . S
H712 C718 0.930 . S
H713 C721 0.930 . S
H714 C722 0.930 . S
H715 C723 0.930 . S
H716 C726 0.930 . S
H717 C727 0.930 . S
C718 H712 0.930 . S
C718 C719 1.355 . S
C718 C720 1.415 . S
C719 C718 1.355 . S
C719 C721 1.419 . S
C720 C718 1.415 . S
C720 C725 1.425 . S
C720 C727 1.409 . S
C721 H713 0.930 . S
C721 C719 1.419 . S
C721 C722 1.362 . S
C722 H714 0.930 . S
C722 C721 1.362 . S
C722 C725 1.409 . S
C723 H715 0.930 . S
C723 C724 1.355 . S
C723 C725 1.415 . S
C724 C723 1.355 . S
C724 C726 1.419 . S
C725 C720 1.425 . S
C725 C722 1.409 . S
C725 C723 1.415 . S
C726 H716 0.930 . S
C726 C724 1.419 . S
C726 C727 1.362 . S
C727 H717 0.930 . S
C727 C720 1.409 . S
C727 C726 1.362 . S
H728 C734 0.930 . S
H729 C737 0.930 . S
H730 C738 0.930 . S
H731 C739 0.930 . S
H732 C742 0.930 . S
H733 C743 0.930 . S
C734 H728 0.930 . S
C734 C735 1.355 . S
C734 C736 1.415 . S
C735 C734 1.355 . S
C735 C737 1.419 . S
C736 C734 1.415 . S
C736 C741 1.425 . S
C736 C743 1.409 . S
C737 H729 0.930 . S
C737 C735 1.419 . S
C737 C738 1.362 . S
C738 H730 0.930 . S
C738 C737 1.362 . S
C738 C741 1.409 . S
C739 H731 0.930 . S
C739 C740 1.355 . S
C739 C741 1.415 . S
C740 C739 1.355 . S
C740 C742 1.419 . S
C741 C736 1.425 . S
C741 C738 1.409 . S
C741 C739 1.415 . S
C742 H732 0.930 . S
C742 C740 1.419 . S
C742 C743 1.362 . S
C743 H733 0.930 . S
C743 C736 1.409 . S
C743 C742 1.362 . S
H744 C750 0.937 . S
H745 C753 0.930 . S
H746 C754 0.930 . S
H747 C755 0.930 . S
H748 C758 0.930 . S
H749 C759 0.930 1_565 S
C750 H744 0.937 . S
C750 C751 1.349 1_565 S
C750 C752 1.414 1_565 S
C751 C750 1.349 1_545 S
C751 C753 1.419 . S
C752 C750 1.414 1_545 S
C752 C757 1.425 . S
C752 C759 1.409 . S
C753 H745 0.930 . S
C753 C751 1.419 . S
C753 C754 1.362 . S
C754 H746 0.930 . S
C754 C753 1.362 . S
C754 C757 1.409 . S
C755 H747 0.930 . S
C755 C756 1.355 . S
C755 C757 1.415 . S
C756 C755 1.355 . S
C756 C758 1.419 . S
C757 C752 1.425 . S
C757 C754 1.409 . S
C757 C755 1.415 . S
C758 H748 0.930 . S
C758 C756 1.419 . S
C758 C759 1.362 . S
C759 H749 0.930 1_545 S
C759 C752 1.409 . S
C759 C758 1.362 . S
H760 C766 0.930 . S
H761 C769 0.930 . S
H762 C770 0.930 . S
H763 C771 0.930 . S
H764 C774 0.930 . S
H765 C775 0.930 . S
C766 H760 0.930 . S
C766 C767 1.355 . S
C766 C768 1.415 . S
C767 C766 1.355 . S
C767 C769 1.419 1_554 S
C768 C766 1.415 . S
C768 C773 1.425 1_554 S
C768 C775 1.409 . S
C769 H761 0.930 . S
C769 C767 1.419 1_556 S
C769 C770 1.362 . S
C770 H762 0.930 . S
C770 C769 1.362 . S
C770 C773 1.409 . S
C771 H763 0.930 . S
C771 C772 1.355 . S
C771 C773 1.415 . S
C772 C771 1.355 . S
C772 C774 1.419 1_556 S
C773 C768 1.425 1_556 S
C773 C770 1.409 . S
C773 C771 1.415 . S
C774 H764 0.930 . S
C774 C772 1.419 1_554 S
C774 C775 1.362 . S
C775 H765 0.930 . S
C775 C768 1.409 . S
C775 C774 1.362 . S
H776 C782 0.930 . S
H777 C785 0.930 . S
H778 C786 0.930 . S
H779 C787 0.930 . S
H780 C790 0.930 . S
H781 C791 0.930 . S
C782 H776 0.930 . S
C782 C783 1.355 . S
C782 C784 1.415 . S
C783 C782 1.355 . S
C783 C785 1.419 . S
C784 C782 1.415 . S
C784 C789 1.425 . S
C784 C791 1.409 . S
C785 H777 0.930 . S
C785 C783 1.419 . S
C785 C786 1.362 . S
C786 H778 0.930 . S
C786 C785 1.362 . S
C786 C789 1.409 . S
C787 H779 0.930 . S
C787 C788 1.355 . S
C787 C789 1.415 . S
C788 C787 1.355 . S
C788 C790 1.419 . S
C789 C784 1.425 . S
C789 C786 1.409 . S
C789 C787 1.415 . S
C790 H780 0.930 . S
C790 C788 1.419 . S
C790 C791 1.362 . S
C791 H781 0.930 . S
C791 C784 1.409 . S
C791 C790 1.362 . S
H792 C798 0.930 . S
H793 C801 0.930 . S
H794 C802 0.930 . S
H795 C803 0.930 . S
H796 C806 0.930 . S
H797 C807 0.930 . S
C798 H792 0.930 . S
C798 C799 1.355 . S
C798 C800 1.415 . S
C799 C798 1.355 . S
C799 C801 1.419 . S
C800 C798 1.415 . S
C800 C805 1.425 . S
C800 C807 1.409 . S
C801 H793 0.930 . S
C801 C799 1.419 . S
C801 C802 1.362 . S
C802 H794 0.930 . S
C802 C801 1.362 . S
C802 C805 1.409 . S
C803 H795 0.930 . S
C803 C804 1.355 . S
C803 C805 1.415 . S
C804 C803 1.355 . S
C804 C806 1.419 . S
C805 C800 1.425 . S
C805 C802 1.409 . S
C805 C803 1.415 . S
C806 H796 0.930 . S
C806 C804 1.419 . S
C806 C807 1.362 . S
C807 H797 0.930 . S
C807 C800 1.409 . S
C807 C806 1.362 . S
H808 C814 0.914 1_545 S
H809 C817 0.930 . S
H810 C818 0.930 . S
H811 C819 0.930 . S
H812 C822 0.930 . S
H813 C823 0.932 1_545 S
C814 H808 0.914 1_565 S
C814 C815 1.370 . S
C814 C816 1.417 . S
C815 C814 1.370 . S
C815 C817 1.419 . S
C816 C814 1.417 . S
C816 C821 1.425 . S
C816 C823 1.409 . S
C817 H809 0.930 . S
C817 C815 1.419 . S
C817 C818 1.362 . S
C818 H810 0.930 . S
C818 C817 1.362 . S
C818 C821 1.409 . S
C819 H811 0.930 . S
C819 C820 1.355 . S
C819 C821 1.415 . S
C820 C819 1.355 . S
C820 C822 1.419 . S
C821 C816 1.425 . S
C821 C818 1.409 . S
C821 C819 1.415 . S
C822 H812 0.930 . S
C822 C820 1.419 . S
C822 C823 1.362 . S
C823 H813 0.932 1_565 S
C823 C816 1.409 . S
C823 C822 1.362 . S
H824 C830 0.930 . S
H825 C833 0.930 . S
H826 C834 0.930 . S
H827 C835 0.930 . S
H828 C838 0.930 . S
H829 C839 0.930 . S
C830 H824 0.930 . S
C830 C831 1.355 . S
C830 C832 1.415 . S
C831 C830 1.355 . S
C831 C833 1.419 . S
C832 C830 1.415 . S
C832 C837 1.425 . S
C832 C839 1.409 . S
C833 H825 0.930 . S
C833 C831 1.419 . S
C833 C834 1.362 . S
C834 H826 0.930 . S
C834 C833 1.362 . S
C834 C837 1.409 . S
C835 H827 0.930 . S
C835 C836 1.355 . S
C835 C837 1.415 . S
C836 C835 1.355 . S
C836 C838 1.419 . S
C837 C832 1.425 . S
C837 C834 1.409 . S
C837 C835 1.415 . S
C838 H828 0.930 . S
C838 C836 1.419 . S
C838 C839 1.362 . S
C839 H829 0.930 . S
C839 C832 1.409 . S
C839 C838 1.362 . S
H840 C846 0.930 . S
H841 C849 0.930 . S
H842 C850 0.930 . S
H843 C851 0.930 . S
H844 C854 0.930 . S
H845 C855 0.930 . S
C846 H840 0.930 . S
C846 C847 1.355 . S
C846 C848 1.415 . S
C847 C846 1.355 . S
C847 C849 1.419 . S
C848 C846 1.415 . S
C848 C853 1.425 . S
C848 C855 1.409 . S
C849 H841 0.930 . S
C849 C847 1.419 . S
C849 C850 1.362 . S
C850 H842 0.930 . S
C850 C849 1.362 . S
C850 C853 1.409 . S
C851 H843 0.930 . S
C851 C852 1.355 . S
C851 C853 1.415 . S
C852 C851 1.355 . S
C852 C854 1.419 . S
C853 C848 1.425 . S
C853 C850 1.409 . S
C853 C851 1.415 . S
C854 H844 0.930 . S
C854 C852 1.419 . S
C854 C855 1.362 . S
C855 H845 0.930 . S
C855 C848 1.409 . S
C855 C854 1.362 . S
C479 C255 1.011 1_545 S
C484 C321 0.942 . S
C500 C361 2.054 . S
C495 C294 2.081 . S
C516 C410 1.697 . S
C511 C177 1.664 . S
C532 C441 2.258 . S
C527 C216 2.242 . S
C548 C330 0.927 . S
C543 C99 1.031 1_545 S
C559 C138 2.104 . S
C564 C370 2.093 1_554 S
C575 C21 1.640 1_556 S
C580 C401 1.694 . S
C591 C60 2.215 . S
C596 C450 2.220 1_655 S
C612 C331 1.713 . S
C607 C196 1.399 . S
C628 C371 1.212 . S
C623 C235 1.066 . S
C644 C407 0.722 . S
C639 C289 0.781 . S
C655 C157 1.538 . S
C660 C451 1.753 . S
C671 C40 1.393 . S
C676 C322 1.712 1_655 S
C692 C362 1.197 . S
C687 C79 1.011 1_545 S
C708 C398 0.762 . S
C703 C133 0.815 . S
C719 C1 1.572 . S
C724 C442 1.766 . S
C735 C211 2.067 . S
C740 C327 2.211 . S
C751 C250 1.674 . S
C756 C367 1.739 . S
C772 C411 3.043 . S
C767 C274 2.708 . S
C788 C447 1.842 . S
C783 C172 1.740 . S
C799 C55 2.077 . S
C804 C318 2.215 . S
C820 C358 1.728 . S
C815 C94 1.735 1_565 S
C836 C402 3.026 . S
C831 C118 2.657 . S
C847 C16 1.780 . S
C852 C438 1.828 . S
