# Generated by pormake.
# Topology nom, (4,4)-cn, num edge types: 1
# Building blocks:
#     Node 0, Type 0, BuildingBlock: MUDLON_clean_linker_0, # of connection points: 4
#     Node 1, Type 0, BuildingBlock: MUDLON_clean_linker_0, # of connection points: 4
#     Node 2, Type 0, BuildingBlock: MUDLON_clean_linker_0, # of connection points: 4
#     Node 3, Type 0, BuildingBlock: MUDLON_clean_linker_0, # of connection points: 4
#     Node 4, Type 0, BuildingBlock: MUDLON_clean_linker_0, # of connection points: 4
#     Node 5, Type 0, BuildingBlock: MUDLON_clean_linker_0, # of connection points: 4
#     Node 6, Type 1, BuildingBlock: QUQFOY_clean_sbu_3, # of connection points: 4
#     Node 7, Type 1, BuildingBlock: QUQFOY_clean_sbu_3, # of connection points: 4
#     Node 8, Type 1, BuildingBlock: QUQFOY_clean_sbu_3, # of connection points: 4
#     Node 9, Type 1, BuildingBlock: QUQFOY_clean_sbu_3, # of connection points: 4
#     Node 10, Type 1, BuildingBlock: QUQFOY_clean_sbu_3, # of connection points: 4
#     Node 11, Type 1, BuildingBlock: QUQFOY_clean_sbu_3, # of connection points: 4
#     Edge 12, Type (0, 1), BuildingBlock: KIFKEQ_clean_linker_1, # of connection points: 2
#     Edge 13, Type (0, 1), BuildingBlock: KIFKEQ_clean_linker_1, # of connection points: 2
#     Edge 14, Type (0, 1), BuildingBlock: KIFKEQ_clean_linker_1, # of connection points: 2
#     Edge 15, Type (0, 1), BuildingBlock: KIFKEQ_clean_linker_1, # of connection points: 2
#     Edge 16, Type (0, 1), BuildingBlock: KIFKEQ_clean_linker_1, # of connection points: 2
#     Edge 17, Type (0, 1), BuildingBlock: KIFKEQ_clean_linker_1, # of connection points: 2
#     Edge 18, Type (0, 1), BuildingBlock: KIFKEQ_clean_linker_1, # of connection points: 2
#     Edge 19, Type (0, 1), BuildingBlock: KIFKEQ_clean_linker_1, # of connection points: 2
#     Edge 20, Type (0, 1), BuildingBlock: KIFKEQ_clean_linker_1, # of connection points: 2
#     Edge 21, Type (0, 1), BuildingBlock: KIFKEQ_clean_linker_1, # of connection points: 2
#     Edge 22, Type (0, 1), BuildingBlock: KIFKEQ_clean_linker_1, # of connection points: 2
#     Edge 23, Type (0, 1), BuildingBlock: KIFKEQ_clean_linker_1, # of connection points: 2
#     Edge 24, Type (0, 1), BuildingBlock: KIFKEQ_clean_linker_1, # of connection points: 2
#     Edge 25, Type (0, 1), BuildingBlock: KIFKEQ_clean_linker_1, # of connection points: 2
#     Edge 26, Type (0, 1), BuildingBlock: KIFKEQ_clean_linker_1, # of connection points: 2
#     Edge 27, Type (0, 1), BuildingBlock: KIFKEQ_clean_linker_1, # of connection points: 2
#     Edge 28, Type (0, 1), BuildingBlock: KIFKEQ_clean_linker_1, # of connection points: 2
#     Edge 29, Type (0, 1), BuildingBlock: KIFKEQ_clean_linker_1, # of connection points: 2
#     Edge 30, Type (0, 1), BuildingBlock: KIFKEQ_clean_linker_1, # of connection points: 2
#     Edge 31, Type (0, 1), BuildingBlock: KIFKEQ_clean_linker_1, # of connection points: 2
#     Edge 32, Type (0, 1), BuildingBlock: KIFKEQ_clean_linker_1, # of connection points: 2
#     Edge 33, Type (0, 1), BuildingBlock: KIFKEQ_clean_linker_1, # of connection points: 2
#     Edge 34, Type (0, 1), BuildingBlock: KIFKEQ_clean_linker_1, # of connection points: 2
#     Edge 35, Type (0, 1), BuildingBlock: KIFKEQ_clean_linker_1, # of connection points: 2
# Relax obj value: 0.007
# Max RMSD: 0.104
# Mean RMSD: 0.061
data_MOF--net-nom--node1-QUQFOY_clean_sbu_3--node2-MUDLON_clean_linker_0--edge1-KIFKEQ_clean_linker_1
_symmetry_space_group_name_H-M    P1
_symmetry_Int_Tables_number       1
_symmetry_cell_setting            triclinic
loop_
_symmetry_equiv_pos_as_xyz
'x, y, z'
_cell_length_a     61.447363
_cell_length_b     63.822946
_cell_length_c     61.956215
_cell_angle_alpha  90.396457
_cell_angle_beta   89.801643
_cell_angle_gamma 120.65966
loop_
_atom_site_label
_atom_site_type_symbol
_atom_site_fract_x
_atom_site_fract_y
_atom_site_fract_z
_atom_type_partial_charge
H0 H 0.13821 0.54318 0.317 0.0
N1 N 0.0927 0.53747 0.32154 0.0
H2 H 0.17355 0.5742 0.29648 0.0
H3 H 0.08969 0.56725 0.291 0.0
H4 H 0.1243 0.59699 0.26892 0.0
H5 H 0.10512 0.58321 0.33495 0.0
H6 H 0.12302 0.60145 0.37012 0.0
H7 H 0.09387 0.51432 0.35661 0.0
H8 H 0.11131 0.53237 0.39203 0.0
H9 H 0.06587 0.49267 0.30577 0.0
H10 H 0.06022 0.55498 0.32404 0.0
H11 H 0.02058 0.46971 0.29768 0.0
H12 H 0.01501 0.53238 0.31566 0.0
H13 H 0.87575 0.39924 0.27002 0.0
H14 H 0.85709 0.39547 0.23434 0.0
H15 H 0.89942 0.47387 0.22817 0.0
H16 H 0.91743 0.4774 0.26403 0.0
H17 H 0.89983 0.47886 0.29843 0.0
H18 H 0.86632 0.47888 0.31968 0.0
H19 H 0.83901 0.4042 0.33788 0.0
H20 H 0.87321 0.40478 0.31716 0.0
H21 H 0.94377 0.44208 0.26745 0.0
H22 H 0.9892 0.46732 0.2729 0.0
H23 H 0.97633 0.498 0.33044 0.0
N24 N 0.90636 0.43993 0.29166 0.0
H25 H 0.93119 0.47329 0.32501 0.0
C26 C 0.11126 0.5527 0.30565 0.0
C27 C 0.13499 0.55462 0.30621 0.0
C28 C 0.15522 0.5724 0.29429 0.0
C29 C 0.1521 0.58848 0.28097 0.0
C30 C 0.12778 0.58549 0.27937 0.0
C31 C 0.10768 0.56808 0.2918 0.0
C32 C 0.09851 0.54742 0.34312 0.0
C33 C 0.10591 0.57185 0.34744 0.0
C34 C 0.11617 0.58228 0.3675 0.0
C35 C 0.11871 0.56835 0.38366 0.0
C36 C 0.10943 0.54347 0.37988 0.0
C37 C 0.09952 0.53315 0.35971 0.0
C38 C 0.06639 0.52539 0.31553 0.0
C39 C 0.05485 0.50145 0.30776 0.0
C40 C 0.02902 0.48844 0.30307 0.0
C41 C 0.01415 0.49921 0.30605 0.0
C42 C 0.02586 0.52345 0.31347 0.0
C43 C 0.05175 0.53645 0.31817 0.0
C44 C 0.89793 0.43848 0.26966 0.0
C45 C 0.88117 0.41553 0.2608 0.0
C46 C 0.87063 0.41345 0.2404 0.0
C47 C 0.87668 0.43438 0.22841 0.0
C48 C 0.89403 0.4574 0.23711 0.0
C49 C 0.90448 0.45946 0.25756 0.0
C50 C 0.88909 0.44177 0.30635 0.0
C51 C 0.88686 0.46265 0.30728 0.0
C52 C 0.86755 0.46255 0.31933 0.0
C53 C 0.84977 0.44147 0.33039 0.0
C54 C 0.85253 0.42089 0.32989 0.0
C55 C 0.87202 0.42112 0.31802 0.0
C56 C 0.93341 0.45627 0.29501 0.0
C57 C 0.9506 0.45463 0.281 0.0
C58 C 0.97667 0.4689 0.28426 0.0
C59 C 0.98643 0.4849 0.30197 0.0
C60 C 0.96945 0.48635 0.31629 0.0
C61 C 0.94333 0.47208 0.31303 0.0
H62 H 0.48945 0.89949 0.49344 0.0
N63 N 0.48267 0.92141 0.46002 0.0
H64 H 0.45657 0.86512 0.51389 0.0
H65 H 0.4321 0.90608 0.45958 0.0
H66 H 0.39924 0.87203 0.48001 0.0
H67 H 0.45819 0.93162 0.42873 0.0
H68 H 0.44661 0.9131 0.39277 0.0
H69 H 0.4955 0.89139 0.44197 0.0
H70 H 0.48429 0.87296 0.40588 0.0
H71 H 0.53054 0.95452 0.45288 0.0
H72 H 0.4597 0.9471 0.47298 0.0
H73 H 0.551 -0.00137 0.45618 0.0
H74 H 0.48028 0.99104 0.47765 0.0
H75 H 0.61066 0.13118 0.5038 0.0
H76 H 0.61339 0.14686 0.54044 0.0
H77 H 0.53188 0.10485 0.54554 0.0
H78 H 0.52941 0.08931 0.50878 0.0
H79 H 0.53358 0.11587 0.47875 0.0
H80 H 0.53838 0.15084 0.45916 0.0
H81 H 0.60609 0.15978 0.42881 0.0
H82 H 0.60187 0.12552 0.4497 0.0
H83 H 0.58736 0.07311 0.48698 0.0
H84 H 0.5656 0.0291 0.48219 0.0
H85 H 0.49881 0.02927 0.46056 0.0
N86 N 0.56922 0.10228 0.48136 0.0
H87 H 0.52047 0.07328 0.46671 0.0
C88 C 0.46334 0.90528 0.47493 0.0
C89 C 0.46982 0.89404 0.49096 0.0
C90 C 0.451 0.87444 0.50263 0.0
C91 C 0.4253 0.86568 0.49836 0.0
C92 C 0.41888 0.87816 0.48343 0.0
C93 C 0.4377 0.89775 0.47181 0.0
C94 C 0.4778 0.91286 0.43798 0.0
C95 C 0.46424 0.91909 0.42375 0.0
C96 C 0.4577 0.90854 0.40318 0.0
C97 C 0.46445 0.89148 0.39653 0.0
C98 C 0.47855 0.8858 0.41063 0.0
C99 C 0.48514 0.89642 0.43113 0.0
C100 C 0.49376 0.94735 0.46298 0.0
C101 C 0.5195 0.96243 0.45831 0.0
C102 C 0.53117 0.98767 0.46035 0.0
C103 C 0.51744 -0.00145 0.46749 0.0
C104 C 0.49146 0.98341 0.47193 0.0
C105 C 0.47967 0.95809 0.46951 0.0
C106 C 0.56996 0.1092 0.50363 0.0
C107 C 0.59346 0.12513 0.51299 0.0
C108 C 0.59494 0.13396 0.53392 0.0
C109 C 0.57283 0.12707 0.54588 0.0
C110 C 0.54922 0.11063 0.53664 0.0
C111 C 0.54778 0.10167 0.5157 0.0
C112 C 0.56775 0.1184 0.46602 0.0
C113 C 0.54922 0.12505 0.46763 0.0
C114 C 0.55192 0.14507 0.45621 0.0
C115 C 0.57298 0.15861 0.4427 0.0
C116 C 0.59006 0.1503 0.43955 0.0
C117 C 0.58753 0.13053 0.45124 0.0
C118 C 0.55577 0.07651 0.47693 0.0
C119 C 0.56806 0.06359 0.48109 0.0
C120 C 0.55558 0.03842 0.47819 0.0
C121 C 0.53044 0.02548 0.47071 0.0
C122 C 0.51806 0.03852 0.46652 0.0
C123 C 0.53053 0.06379 0.46978 0.0
H124 H 0.47688 0.61832 0.66035 0.0
N125 N 0.48025 0.57932 0.66809 0.0
H126 H 0.4464 0.62135 0.63787 0.0
H127 H 0.44544 0.54333 0.64102 0.0
H128 H 0.41656 0.54678 0.61667 0.0
H129 H 0.43375 0.55236 0.68684 0.0
H130 H 0.42202 0.55772 0.72325 0.0
H131 H 0.51109 0.60811 0.69904 0.0
H132 H 0.49983 0.61301 0.73592 0.0
H133 H 0.52049 0.58928 0.64459 0.0
H134 H 0.45965 0.5317 0.68083 0.0
H135 H 0.53806 0.56316 0.63751 0.0
H136 H 0.47782 0.50592 0.675 0.0
H137 H 0.6014 0.49198 0.62163 0.0
H138 H 0.60771 0.4807 0.5853 0.0
H139 H 0.52671 0.43876 0.57612 0.0
H140 H 0.52065 0.45001 0.61245 0.0
H141 H 0.52257 0.42789 0.64337 0.0
H142 H 0.52703 0.39734 0.66296 0.0
H143 H 0.59279 0.45465 0.69576 0.0
H144 H 0.58908 0.48498 0.6748 0.0
H145 H 0.58016 0.5238 0.64963 0.0
H146 H 0.5602 0.54795 0.65597 0.0
H147 H 0.48653 0.48271 0.65023 0.0
N148 N 0.5579 0.47653 0.64205 0.0
H149 H 0.50697 0.4586 0.6452 0.0
C150 C 0.46371 0.58078 0.6524 0.0
C151 C 0.46382 0.6027 0.65072 0.0
C152 C 0.44641 0.60441 0.63759 0.0
C153 C 0.42878 0.58435 0.62514 0.0
C154 C 0.42932 0.56254 0.62626 0.0
C155 C 0.44624 0.56062 0.64002 0.0
C156 C 0.47332 0.58008 0.69023 0.0
C157 C 0.44829 0.56549 0.69753 0.0
C158 C 0.44166 0.5685 0.71843 0.0
C159 C 0.45994 0.58596 0.73251 0.0
C160 C 0.48517 0.59976 0.72539 0.0
C161 C 0.49172 0.59686 0.70443 0.0
C162 C 0.48913 0.56273 0.66352 0.0
C163 C 0.51104 0.57102 0.6511 0.0
C164 C 0.52114 0.5561 0.64728 0.0
C165 C 0.50968 0.53251 0.65605 0.0
C166 C 0.48716 0.5239 0.66793 0.0
C167 C 0.47686 0.53877 0.67149 0.0
C168 C 0.56068 0.47189 0.61975 0.0
C169 C 0.58508 0.48071 0.61158 0.0
C170 C 0.58861 0.47429 0.59084 0.0
C171 C 0.56768 0.45876 0.57787 0.0
C172 C 0.54318 0.45054 0.58583 0.0
C173 C 0.5397 0.45709 0.60657 0.0
C174 C 0.55596 0.45872 0.65725 0.0
C175 C 0.53771 0.43389 0.65499 0.0
C176 C 0.5402 0.41638 0.66641 0.0
C177 C 0.5607 0.42343 0.6806 0.0
C178 C 0.57727 0.44847 0.68445 0.0
C179 C 0.57503 0.46588 0.67273 0.0
C180 C 0.5451 0.4896 0.64672 0.0
C181 C 0.55971 0.51478 0.64992 0.0
C182 C 0.54821 0.52854 0.65328 0.0
C183 C 0.52168 0.51741 0.65323 0.0
C184 C 0.50698 0.49193 0.65046 0.0
C185 C 0.51861 0.47811 0.64736 0.0
H186 H 0.12183 0.57202 0.79553 0.0
N187 N 0.0921 0.52385 0.78454 0.0
H188 H 0.15741 0.58907 0.82071 0.0
H189 H 0.10469 0.49948 0.81118 0.0
H190 H 0.14041 0.51634 0.83628 0.0
H191 H 0.11186 0.50509 0.75826 0.0
H192 H 0.13187 0.52055 0.72324 0.0
H193 H 0.09448 0.56241 0.76287 0.0
H194 H 0.11367 0.57756 0.72762 0.0
H195 H 0.07685 0.55538 0.79808 0.0
H196 H 0.05068 0.48033 0.78249 0.0
H197 H 0.03348 0.5452 0.80507 0.0
H198 H 0.00723 0.46958 0.79054 0.0
H199 H 0.88796 0.49881 0.83652 0.0
H200 H 0.87054 0.48954 0.87309 0.0
H201 H 0.9069 0.44772 0.88387 0.0
H202 H 0.92388 0.45676 0.84724 0.0
H203 H 0.89681 0.4324 0.81831 0.0
H204 H 0.85859 0.39969 0.8013 0.0
H205 H 0.84705 0.45294 0.76901 0.0
H206 H 0.88494 0.48584 0.78689 0.0
H207 H 0.95618 0.515 0.83639 0.0
H208 H -0.00048 0.52542 0.82946 0.0
H209 H 0.97369 0.47351 0.77681 0.0
N210 N 0.9137 0.48128 0.81641 0.0
H211 H 0.93055 0.46229 0.78421 0.0
C212 C 0.11068 0.53439 0.80145 0.0
C213 C 0.12541 0.55973 0.80468 0.0
C214 C 0.14586 0.56947 0.81898 0.0
C215 C 0.15184 0.55406 0.83037 0.0
C216 C 0.13618 0.5287 0.82794 0.0
C217 C 0.11583 0.51902 0.81359 0.0
C218 C 0.10148 0.53234 0.76311 0.0
C219 C 0.11197 0.52074 0.75149 0.0
C220 C 0.12331 0.52959 0.73146 0.0
C221 C 0.12434 0.5503 0.72256 0.0
C222 C 0.11347 0.56175 0.73411 0.0
C223 C 0.10221 0.55291 0.75423 0.0
C224 C 0.06691 0.51856 0.78953 0.0
C225 C 0.06177 0.53667 0.79622 0.0
C226 C 0.03689 0.53074 0.80044 0.0
C227 C 0.01672 0.50654 0.79832 0.0
C228 C 0.02213 0.48847 0.79193 0.0
C229 C 0.04694 0.4945 0.78749 0.0
C230 C 0.90713 0.47851 0.83908 0.0
C231 C 0.89255 0.48806 0.84696 0.0
C232 C 0.88268 0.48278 0.86786 0.0
C233 C 0.8872 0.46774 0.88133 0.0
C234 C 0.90276 0.45905 0.87377 0.0
C235 C 0.9126 0.46433 0.85286 0.0
C236 C 0.89351 0.46167 0.80413 0.0
C237 C 0.88613 0.43713 0.80764 0.0
C238 C 0.86435 0.41844 0.79786 0.0
C239 C 0.84989 0.4239 0.78405 0.0
C240 C 0.85798 0.44835 0.7796 0.0
C241 C 0.87954 0.46708 0.78973 0.0
C242 C 0.93938 0.48683 0.8118 0.0
C243 C 0.95968 0.5054 0.82363 0.0
C244 C 0.98462 0.51165 0.81943 0.0
C245 C 0.99017 0.50007 0.80275 0.0
C246 C 0.9701 0.48226 0.79025 0.0
C247 C 0.94512 0.47579 0.7946 0.0
H248 H 0.52061 0.12791 0.9944 0.0
N249 N 0.52651 0.10405 0.96176 0.0
H250 H 0.55403 0.16345 0.01356 0.0
H251 H 0.57703 0.11922 0.96074 0.0
H252 H 0.61044 0.15453 0.97982 0.0
H253 H 0.55056 0.09255 0.93075 0.0
H254 H 0.56136 0.10942 0.8943 0.0
H255 H 0.51242 0.1324 0.94282 0.0
H256 H 0.52269 0.14904 0.90626 0.0
H257 H 0.47806 0.07124 0.95703 0.0
H258 H 0.54945 0.07849 0.97445 0.0
H259 H 0.45711 0.02732 0.9618 0.0
H260 H 0.52848 0.03477 0.98058 0.0
H261 H 0.39635 0.89893 0.00964 0.0
H262 H 0.39259 0.88168 0.04551 0.0
H263 H 0.47387 0.91452 0.04825 0.0
H264 H 0.47731 0.93166 0.01218 0.0
H265 H 0.47388 0.9116 0.97788 0.0
H266 H 0.4673 0.87626 0.95695 0.0
H267 H 0.39263 0.86092 0.9394 0.0
H268 H 0.39952 0.89666 0.96016 0.0
H269 H 0.42111 0.95391 0.99335 0.0
H270 H 0.44343 -0.00213 0.98835 0.0
H271 H 0.50856 0.99581 0.96444 0.0
N272 N 0.43794 0.9238 0.98634 0.0
H273 H 0.4865 0.95203 0.97082 0.0
C274 C 0.54621 0.12097 0.9761 0.0
C275 C 0.54018 0.13319 0.99169 0.0
C276 C 0.5593 0.15347 0.00261 0.0
C277 C 0.58488 0.16197 -0.00202 0.0
C278 C 0.5909 0.14861 0.98349 0.0
C279 C 0.57177 0.12829 0.97266 0.0
C280 C 0.53067 0.11131 0.93945 0.0
C281 C 0.54415 0.10462 0.9254 0.0
C282 C 0.55023 0.11422 0.90456 0.0
C283 C 0.54303 0.13071 0.89745 0.0
C284 C 0.52884 0.13668 0.91136 0.0
C285 C 0.52277 0.12707 0.93214 0.0
C286 C 0.51516 0.07829 0.96567 0.0
C287 C 0.48913 0.06334 0.96222 0.0
C288 C 0.47718 0.03822 0.96511 0.0
C289 C 0.49097 0.02735 0.97189 0.0
C290 C 0.51723 0.04237 0.97518 0.0
C291 C 0.52927 0.06757 0.97192 0.0
C292 C 0.43699 0.91641 0.00834 0.0
C293 C 0.41333 0.90268 0.01819 0.0
C294 C 0.41128 0.89295 0.03868 0.0
C295 C 0.43295 0.89672 0.04972 0.0
C296 C 0.45682 0.91111 0.04004 0.0
C297 C 0.45884 0.92097 0.01951 0.0
C298 C 0.4372 0.90693 0.97039 0.0
C299 C 0.45651 0.90131 0.96883 0.0
C300 C 0.4527 0.881 0.95691 0.0
C301 C 0.42939 0.86578 0.9467 0.0
C302 C 0.41072 0.87229 0.94723 0.0
C303 C 0.41468 0.89275 0.9589 0.0
C304 C 0.45185 0.94958 0.98219 0.0
C305 C 0.44019 0.96301 0.98699 0.0
C306 C 0.45298 0.98815 0.98395 0.0
C307 C 0.47778 0.00053 0.97568 0.0
C308 C 0.48959 0.98701 0.97101 0.0
C309 C 0.47683 0.9618 0.97441 0.0
H310 H 0.51726 0.39852 0.15062 0.0
N311 N 0.51867 0.43771 0.16693 0.0
H312 H 0.54897 0.39704 0.12776 0.0
H313 H 0.55878 0.47692 0.14722 0.0
H314 H 0.59012 0.47563 0.12392 0.0
H315 H 0.56517 0.46588 0.18594 0.0
H316 H 0.57774 0.45987 0.22157 0.0
H317 H 0.48898 0.40698 0.19727 0.0
H318 H 0.50147 0.40125 0.23341 0.0
H319 H 0.47736 0.42703 0.14494 0.0
H320 H 0.53881 0.48518 0.18065 0.0
H321 H 0.4595 0.45298 0.13854 0.0
H322 H 0.52065 0.51096 0.17505 0.0
H323 H 0.40507 0.51931 0.11009 0.0
H324 H 0.40291 0.5343 0.07446 0.0
H325 H 0.48026 0.59331 0.08149 0.0
H326 H 0.48181 0.57857 0.11735 0.0
H327 H 0.47901 0.58406 0.1557 0.0
H328 H 0.47131 0.6137 0.17435 0.0
H329 H 0.3911 0.56142 0.17418 0.0
H330 H 0.39898 0.53214 0.15527 0.0
H331 H 0.41919 0.49447 0.1498 0.0
H332 H 0.43832 0.46992 0.15778 0.0
H333 H 0.51258 0.5331 0.14793 0.0
N334 N 0.44238 0.54077 0.13848 0.0
H335 H 0.49317 0.5576 0.14083 0.0
C336 C 0.53551 0.43769 0.15064 0.0
C337 C 0.53287 0.41536 0.14445 0.0
C338 C 0.55099 0.41458 0.13134 0.0
C339 C 0.57221 0.43624 0.12413 0.0
C340 C 0.57421 0.45862 0.12948 0.0
C341 C 0.5561 0.45938 0.14265 0.0
C342 C 0.52609 0.43654 0.18877 0.0
C343 C 0.55105 0.45177 0.19611 0.0
C344 C 0.55827 0.44832 0.21649 0.0
C345 C 0.54063 0.42994 0.23008 0.0
C346 C 0.51541 0.41556 0.22321 0.0
C347 C 0.50828 0.41878 0.20265 0.0
C348 C 0.50917 0.45394 0.1634 0.0
C349 C 0.48688 0.44536 0.15149 0.0
C350 C 0.47664 0.46018 0.14802 0.0
C351 C 0.48846 0.484 0.15651 0.0
C352 C 0.51112 0.49278 0.16818 0.0
C353 C 0.52143 0.47794 0.17155 0.0
C354 C 0.44352 0.54768 0.11629 0.0
C355 C 0.42169 0.53514 0.10366 0.0
C356 C 0.42057 0.54374 0.08329 0.0
C357 C 0.4414 0.56512 0.07512 0.0
C358 C 0.46377 0.577 0.08742 0.0
C359 C 0.46479 0.56841 0.10786 0.0
C360 C 0.43945 0.55597 0.154 0.0
C361 C 0.45988 0.57877 0.16022 0.0
C362 C 0.45545 0.59567 0.1709 0.0
C363 C 0.43056 0.58997 0.17537 0.0
C364 C 0.41044 0.56643 0.17063 0.0
C365 C 0.41489 0.54963 0.16005 0.0
C366 C 0.45467 0.52769 0.1446 0.0
C367 C 0.4396 0.50299 0.14962 0.0
C368 C 0.45059 0.48899 0.15395 0.0
C369 C 0.47701 0.49943 0.15319 0.0
C370 C 0.49219 0.52448 0.14877 0.0
C371 C 0.48111 0.53853 0.14455 0.0
C372 C 0.68874 0.42144 0.39382 0.0
O373 O 0.6868 0.43973 0.39896 0.0
Cd374 Cd 0.64874 0.4367 0.41289 0.0
O375 O 0.66983 0.39989 0.39563 0.0
Cd376 Cd 0.62479 0.37901 0.4071 0.0
C377 C 0.60924 0.40836 0.37001 0.0
O378 O 0.63243 0.40453 0.43874 0.0
O379 O 0.59316 0.37966 0.43128 0.0
O380 O 0.63062 0.34693 0.4218 0.0
C381 C 0.60944 0.39558 0.44397 0.0
O382 O 0.62043 0.42714 0.38211 0.0
C383 C 0.61237 0.32948 0.41169 0.0
O384 O 0.6095 0.38904 0.37449 0.0
O385 O 0.59965 0.33498 0.39926 0.0
C386 C 0.29038 0.60216 0.55575 0.0
O387 O 0.26964 0.58387 0.54966 0.0
Cd388 Cd 0.23451 0.58673 0.53658 0.0
O389 O 0.29339 0.62344 0.55587 0.0
Cd390 Cd 0.26763 0.64239 0.54777 0.0
C391 C 0.22145 0.60727 0.58313 0.0
O392 O 0.24919 0.62147 0.51375 0.0
O393 O 0.2317 0.64003 0.52842 0.0
O394 O 0.30486 0.67649 0.53201 0.0
C395 C 0.23349 0.6287 0.51226 0.0
O396 O 0.21411 0.59081 0.56863 0.0
C397 C 0.30455 0.69303 0.54323 0.0
O398 O 0.24201 0.6276 0.58093 0.0
O399 O 0.2872 0.68609 0.55737 0.0
C400 C 0.6856 0.28426 0.72848 0.0
O401 O 0.68559 0.26545 0.72166 0.0
Cd402 Cd 0.64796 0.229 0.71071 0.0
O403 O 0.66523 0.28498 0.72879 0.0
Cd404 Cd 0.62004 0.25934 0.71754 0.0
C405 C 0.60983 0.21701 0.75534 0.0
O406 O 0.6284 0.24254 0.68558 0.0
O407 O 0.58899 0.22607 0.69382 0.0
O408 O 0.62374 0.29611 0.70264 0.0
C409 C 0.60561 0.22748 0.68076 0.0
O410 O 0.62285 0.21115 0.74341 0.0
C411 C 0.60495 0.29473 0.71255 0.0
O412 O 0.60671 0.23459 0.75019 0.0
O413 O 0.59287 0.27669 0.72508 0.0
C414 C 0.31895 0.60246 0.89935 0.0
O415 O 0.32164 0.58527 0.90642 0.0
Cd416 Cd 0.36058 0.59018 0.91952 0.0
O417 O 0.33762 0.6243 0.89901 0.0
Cd418 Cd 0.38327 0.64803 0.90919 0.0
C419 C 0.39708 0.6152 0.87397 0.0
O420 O 0.37678 0.62535 0.942 0.0
O421 O 0.4157 0.65117 0.93496 0.0
O422 O 0.37278 0.67931 0.91718 0.0
C423 C 0.39971 0.63509 0.94755 0.0
O424 O 0.3865 0.59765 0.88728 0.0
C425 C 0.39346 0.69708 0.91038 0.0
O426 O 0.39731 0.63505 0.87734 0.0
O427 O 0.40957 0.69213 0.9028 0.0
C428 C 0.71693 0.42425 0.06057 0.0
O429 O 0.73738 0.44351 0.05556 0.0
Cd430 Cd 0.77521 0.4445 0.04435 0.0
O431 O 0.71532 0.40354 0.05949 0.0
Cd432 Cd 0.74239 0.38641 0.04892 0.0
C433 C 0.78565 0.41808 0.0882 0.0
O434 O 0.76225 0.4128 0.01802 0.0
O435 O 0.77808 0.39081 0.02724 0.0
O436 O 0.70641 0.35248 0.03089 0.0
C437 C 0.77777 0.40577 0.01406 0.0
O438 O 0.79261 0.43696 0.07675 0.0
C439 C 0.70692 0.33578 0.04147 0.0
O440 O 0.76702 0.39752 0.08243 0.0
O441 O 0.72381 0.34255 0.05597 0.0
C442 C 0.31389 0.73541 0.22869 0.0
O443 O 0.31486 0.75546 0.22529 0.0
Cd444 Cd 0.3525 0.79117 0.2128 0.0
O445 O 0.33352 0.73362 0.22647 0.0
Cd446 Cd 0.37913 0.75903 0.21716 0.0
C447 C 0.39137 0.80163 0.25617 0.0
O448 O 0.37067 0.77706 0.18619 0.0
O449 O 0.41005 0.79048 0.1928 0.0
O450 O 0.37145 0.7196 0.20487 0.0
C451 C 0.39359 0.79086 0.18082 0.0
O452 O 0.37912 0.80852 0.24459 0.0
C453 C 0.39196 0.722 0.21195 0.0
O454 O 0.39304 0.78321 0.25067 0.0
O455 O 0.40696 0.74193 0.22149 0.0
H456 H 0.19522 0.59031 0.26555 0.0
H457 H 0.16025 0.63417 0.27185 0.0
H458 H 0.23369 0.62549 0.25311 0.0
H459 H 0.19759 0.66853 0.25677 0.0
H460 H 0.27684 0.73401 0.25393 0.0
H461 H 0.2375 0.69833 0.26516 0.0
H462 H 0.2562 0.65256 0.22696 0.0
H463 H 0.29645 0.68821 0.21741 0.0
C464 C 0.19552 0.60735 0.2641 0.0
C465 C 0.17448 0.60922 0.27019 0.0
C466 C 0.21762 0.62759 0.25646 0.0
C467 C 0.21916 0.65023 0.254 0.0
C468 C 0.19762 0.65174 0.25896 0.0
C469 C 0.17578 0.63168 0.2672 0.0
C470 C 0.27245 0.71624 0.24804 0.0
C471 C 0.28969 0.7138 0.23495 0.0
C472 C 0.24972 0.69571 0.25427 0.0
C473 C 0.2433 0.67225 0.24699 0.0
C474 C 0.26051 0.67005 0.23343 0.0
C475 C 0.28358 0.69053 0.22777 0.0
H476 H 0.53966 0.17221 0.4279 0.0
H477 H 0.61934 0.2 0.43849 0.0
H478 H 0.54903 0.2132 0.41917 0.0
H479 H 0.62872 0.24034 0.42842 0.0
H480 H 0.63366 0.31279 0.44009 0.0
H481 H 0.62387 0.2712 0.44522 0.0
H482 H 0.56811 0.24683 0.3943 0.0
H483 H 0.57744 0.28864 0.38963 0.0
C484 C 0.55918 0.18693 0.42809 0.0
C485 C 0.57867 0.18267 0.4341 0.0
C486 C 0.56458 0.21042 0.42284 0.0
C487 C 0.58962 0.23019 0.42337 0.0
C488 C 0.60917 0.22568 0.42829 0.0
C489 C 0.60378 0.20232 0.4337 0.0
C490 C 0.61933 0.2986 0.42994 0.0
C491 C 0.60635 0.30404 0.41444 0.0
C492 C 0.61384 0.27471 0.43276 0.0
C493 C 0.59535 0.25561 0.42002 0.0
C494 C 0.58231 0.26104 0.4045 0.0
C495 C 0.58773 0.28501 0.40176 0.0
H496 H 0.4325 0.62476 0.60547 0.0
H497 H 0.38043 0.54767 0.61448 0.0
H498 H 0.39947 0.62851 0.58856 0.0
H499 H 0.34849 0.55079 0.59473 0.0
H500 H 0.28583 0.56659 0.58228 0.0
H501 H 0.31942 0.56193 0.59756 0.0
H502 H 0.3745 0.62394 0.56053 0.0
H503 H 0.34074 0.62972 0.54713 0.0
C504 C 0.41411 0.60848 0.60374 0.0
C505 C 0.4093 0.58599 0.61196 0.0
C506 C 0.39511 0.61055 0.59344 0.0
C507 C 0.37087 0.59002 0.59025 0.0
C508 C 0.36651 0.56727 0.59735 0.0
C509 C 0.38525 0.56535 0.60834 0.0
C510 C 0.30518 0.57916 0.57749 0.0
C511 C 0.3108 0.59856 0.56367 0.0
C512 C 0.32457 0.57639 0.58606 0.0
C513 C 0.35005 0.5925 0.58041 0.0
C514 C 0.35539 0.61149 0.56589 0.0
C515 C 0.33603 0.61474 0.55796 0.0
H516 H 0.81006 0.3893 0.80673 0.0
H517 H 0.83531 0.41413 0.74184 0.0
H518 H 0.76975 0.3563 0.79262 0.0
H519 H 0.7951 0.38067 0.72764 0.0
H520 H 0.7336 0.29651 0.71726 0.0
H521 H 0.77333 0.33143 0.72996 0.0
H522 H 0.73157 0.35473 0.76957 0.0
H523 H 0.6917 0.32012 0.75651 0.0
C524 C 0.80694 0.38758 0.78945 0.0
C525 C 0.82568 0.40409 0.77531 0.0
C526 C 0.78391 0.36886 0.78142 0.0
C527 C 0.77944 0.36606 0.7591 0.0
C528 C 0.79822 0.3825 0.74493 0.0
C529 C 0.82108 0.40158 0.753 0.0
C530 C 0.73288 0.30913 0.72862 0.0
C531 C 0.70956 0.30557 0.73595 0.0
C532 C 0.75559 0.32914 0.73575 0.0
C533 C 0.75539 0.34566 0.75069 0.0
C534 C 0.73213 0.34215 0.75806 0.0
C535 C 0.70939 0.32243 0.75056 0.0
H536 H 0.45739 0.85536 0.91874 0.0
H537 H 0.38825 0.82192 0.95572 0.0
H538 H 0.44831 0.81511 0.90664 0.0
H539 H 0.37969 0.78189 0.94475 0.0
H540 H 0.3592 0.71199 0.91252 0.0
H541 H 0.3674 0.75321 0.91762 0.0
H542 H 0.44787 0.78029 0.91849 0.0
H543 H 0.43947 0.7391 0.91198 0.0
C544 C 0.44023 0.83936 0.92421 0.0
C545 C 0.4234 0.84173 0.93798 0.0
C546 C 0.43508 0.81627 0.91745 0.0
C547 C 0.41321 0.79504 0.92465 0.0
C548 C 0.39637 0.79765 0.93833 0.0
C549 C 0.40131 0.82066 0.94474 0.0
C550 C 0.37864 0.72683 0.91357 0.0
C551 C 0.39869 0.72235 0.91201 0.0
C552 C 0.38339 0.7505 0.91668 0.0
C553 C 0.40833 0.77025 0.91886 0.0
C554 C 0.42842 0.76574 0.91665 0.0
C555 C 0.42364 0.74207 0.91306 0.0
H556 H 0.62307 0.46636 0.12985 0.0
H557 H 0.56858 0.40416 0.09256 0.0
H558 H 0.65731 0.46362 0.11296 0.0
H559 H 0.60302 0.40134 0.07572 0.0
H560 H 0.71406 0.46541 0.06512 0.0
H561 H 0.67861 0.46871 0.07843 0.0
H562 H 0.63472 0.39067 0.08654 0.0
H563 H 0.67008 0.38725 0.07287 0.0
C564 C 0.61839 0.45237 0.11774 0.0
C565 C 0.59305 0.43552 0.11253 0.0
C566 C 0.63806 0.45076 0.10809 0.0
C567 C 0.63289 0.43224 0.09302 0.0
C568 C 0.60759 0.41561 0.0875 0.0
C569 C 0.58788 0.41725 0.09713 0.0
C570 C 0.69683 0.44891 0.06964 0.0
C571 C 0.69499 0.42606 0.06802 0.0
C572 C 0.67654 0.45083 0.07736 0.0
C573 C 0.65389 0.42998 0.08363 0.0
C574 C 0.65183 0.40707 0.08162 0.0
C575 C 0.67216 0.40513 0.07392 0.0
H576 H 0.42011 0.84855 0.53985 0.0
H577 H 0.38625 0.82866 0.47645 0.0
H578 H 0.39033 0.80714 0.55254 0.0
H579 H 0.35669 0.78773 0.48913 0.0
H580 H 0.33794 0.71179 0.51005 0.0
H581 H 0.36592 0.75439 0.50098 0.0
H582 H 0.34072 0.77618 0.55735 0.0
H583 H 0.3122 0.73314 0.56649 0.0
C584 C 0.40613 0.83547 0.52875 0.0
C585 C 0.40551 0.84187 0.50716 0.0
C586 C 0.38906 0.81188 0.53603 0.0
C587 C 0.37141 0.79426 0.52174 0.0
C588 C 0.37026 0.80093 0.50042 0.0
C589 C 0.38704 0.82446 0.49323 0.0
C590 C 0.33839 0.72558 0.52064 0.0
C591 C 0.32274 0.71907 0.53894 0.0
C592 C 0.35433 0.74998 0.51536 0.0
C593 C 0.35526 0.76852 0.52835 0.0
C594 C 0.34031 0.76218 0.54709 0.0
C595 C 0.324 0.73761 0.55226 0.0
H596 H 0.60732 0.42858 0.68608 0.0
H597 H 0.52759 0.37635 0.69399 0.0
H598 H 0.61736 0.39796 0.69625 0.0
H599 H 0.53774 0.34507 0.70287 0.0
H600 H 0.56813 0.29919 0.73373 0.0
H601 H 0.55708 0.33066 0.7286 0.0
H602 H 0.61389 0.3631 0.67869 0.0
H603 H 0.6253 0.33232 0.68421 0.0
C604 C 0.59186 0.41068 0.6903 0.0
C605 C 0.56657 0.40506 0.68915 0.0
C606 C 0.59766 0.39292 0.69578 0.0
C607 C 0.57836 0.3689 0.69998 0.0
C608 C 0.55309 0.36341 0.69974 0.0
C609 C 0.54726 0.3813 0.69441 0.0
C610 C 0.57825 0.31311 0.72172 0.0
C611 C 0.59768 0.31335 0.70946 0.0
C612 C 0.57185 0.33107 0.71871 0.0
C613 C 0.58475 0.34958 0.70338 0.0
C614 C 0.60394 0.34951 0.691 0.0
C615 C 0.61038 0.33171 0.69406 0.0
H616 H 0.19871 0.59146 0.81947 0.0
H617 H 0.15859 0.5393 0.86993 0.0
H618 H 0.23855 0.60474 0.83802 0.0
H619 H 0.19852 0.55273 0.88865 0.0
H620 H 0.27562 0.55798 0.89665 0.0
H621 H 0.2349 0.54845 0.8821 0.0
H622 H 0.26433 0.6248 0.86956 0.0
H623 H 0.30543 0.63435 0.88374 0.0
C624 C 0.19833 0.58324 0.83481 0.0
C625 C 0.1755 0.56424 0.84318 0.0
C626 C 0.2212 0.59085 0.84545 0.0
C627 C 0.22176 0.57966 0.86473 0.0
C628 C 0.19879 0.5614 0.8736 0.0
C629 C 0.17592 0.55374 0.86293 0.0
C630 C 0.27345 0.57279 0.89089 0.0
C631 C 0.29388 0.59693 0.89126 0.0
C632 C 0.24998 0.56734 0.8827 0.0
C633 C 0.24632 0.58587 0.87471 0.0
C634 C 0.26661 0.61007 0.87539 0.0
C635 C 0.29014 0.61554 0.88358 0.0
H636 H 0.59107 0.18101 0.03897 0.0
H637 H 0.62348 0.19793 0.97499 0.0
H638 H 0.62137 0.2228 0.05066 0.0
H639 H 0.65366 0.23933 0.98668 0.0
H640 H 0.67532 0.31693 0.00696 0.0
H641 H 0.64713 0.27421 -0.00228 0.0
H642 H 0.66986 0.25278 0.05537 0.0
H643 H 0.69844 0.29579 0.06466 0.0
C644 C 0.60483 0.19354 0.02751 0.0
C645 C 0.60491 0.18617 0.00607 0.0
C646 C 0.62222 0.21737 0.03422 0.0
C647 C 0.63969 0.23431 0.01951 0.0
C648 C 0.64023 0.22671 -0.0017 0.0
C649 C 0.62311 0.20291 0.99168 0.0
C650 C 0.67431 0.30316 0.01773 0.0
C651 C 0.68917 0.30975 0.03651 0.0
C652 C 0.65826 0.27869 0.01236 0.0
C653 C 0.65647 0.26021 0.02574 0.0
C654 C 0.67087 0.2667 0.0448 0.0
C655 C 0.68725 0.29127 0.05005 0.0
H656 H 0.39637 0.59984 0.15812 0.0
H657 H 0.45315 0.62381 0.20799 0.0
H658 H 0.38769 0.6316 0.16827 0.0
H659 H 0.4439 0.65549 0.21882 0.0
H660 H 0.43804 0.72519 0.21536 0.0
H661 H 0.44778 0.69318 0.20779 0.0
H662 H 0.36853 0.64245 0.19537 0.0
H663 H 0.35916 0.67459 0.20192 0.0
C664 C 0.40668 0.61168 0.17158 0.0
C665 C 0.42519 0.60913 0.18246 0.0
C666 C 0.40166 0.6299 0.17746 0.0
C667 C 0.41482 0.64599 0.19459 0.0
C668 C 0.43351 0.64355 0.20546 0.0
C669 C 0.43875 0.62537 0.19936 0.0
C670 C 0.42276 0.70714 0.21107 0.0
C671 C 0.3979 0.70245 0.20895 0.0
C672 C 0.42829 0.68875 0.20686 0.0
C673 C 0.409 0.66524 0.20069 0.0
C674 C 0.384 0.66046 0.19948 0.0
C675 C 0.37857 0.67886 0.20336 0.0
H676 H 0.82196 0.46155 0.31698 0.0
H677 H 0.82693 0.41864 0.36835 0.0
H678 H 0.78415 0.45779 0.33353 0.0
H679 H 0.78859 0.41436 0.38452 0.0
H680 H 0.70244 0.38719 0.38793 0.0
H681 H 0.74242 0.3933 0.37392 0.0
H682 H 0.77029 0.47019 0.3672 0.0
H683 H 0.73033 0.46418 0.38121 0.0
C684 C 0.81528 0.45164 0.33197 0.0
C685 C 0.82758 0.4404 0.3413 0.0
C686 C 0.79352 0.44941 0.3414 0.0
C687 C 0.78338 0.4357 0.36026 0.0
C688 C 0.79581 0.42477 0.36981 0.0
C689 C 0.81774 0.42719 0.3605 0.0
C690 C 0.71709 0.40542 0.38351 0.0
C691 C 0.71315 0.42519 0.38564 0.0
C692 C 0.74005 0.40892 0.37563 0.0
C693 C 0.75946 0.43222 0.36949 0.0
C694 C 0.75558 0.452 0.37167 0.0
C695 C 0.73273 0.44856 0.37977 0.0
H696 H 0.10613 0.55428 0.4257 0.0
H697 H 0.16553 0.60861 0.38567 0.0
H698 H 0.13368 0.57118 0.45744 0.0
H699 H 0.19305 0.62521 0.41725 0.0
H700 H 0.24027 0.61552 0.47212 0.0
H701 H 0.21147 0.60333 0.44132 0.0
H702 H 0.15888 0.61379 0.47955 0.0
H703 H 0.18797 0.62657 0.51034 0.0
C704 C 0.12492 0.57002 0.42379 0.0
C705 C 0.13373 0.58021 0.40331 0.0
C706 C 0.14059 0.57971 0.44188 0.0
C707 C 0.16544 0.59937 0.43965 0.0
C708 C 0.17397 0.60998 0.4193 0.0
C709 C 0.15818 0.60061 0.40132 0.0
C710 C 0.22264 0.61536 0.47391 0.0
C711 C 0.21633 0.62198 0.49358 0.0
C712 C 0.20626 0.6085 0.4563 0.0
C713 C 0.18306 0.6077 0.45815 0.0
C714 C 0.17667 0.61426 0.4778 0.0
C715 C 0.19333 0.62163 0.49533 0.0
H716 H 0.60572 0.1341 0.57848 0.0
H717 H 0.54413 0.1452 0.56185 0.0
H718 H 0.61194 0.15644 0.61217 0.0
H719 H 0.55044 0.16769 0.59554 0.0
H720 H 0.55855 0.19245 0.66657 0.0
H721 H 0.54854 0.16539 0.63529 0.0
H722 H 0.62826 0.19914 0.62084 0.0
H723 H 0.63822 0.22573 0.65207 0.0
C724 C 0.59344 0.14124 0.58208 0.0
C725 C 0.5746 0.1381 0.56743 0.0
C726 C 0.59703 0.15406 0.60135 0.0
C727 C 0.58189 0.1641 0.60639 0.0
C728 C 0.56228 0.16002 0.5922 0.0
C729 C 0.55867 0.14713 0.57291 0.0
C730 C 0.57389 0.19401 0.6567 0.0
C731 C 0.59917 0.21119 0.66179 0.0
C732 C 0.56816 0.17858 0.63877 0.0
C733 C 0.58762 0.18 0.62569 0.0
C734 C 0.61285 0.19725 0.63082 0.0
C735 C 0.61855 0.21264 0.64864 0.0
H736 H 0.42553 0.55249 0.76081 0.0
H737 H 0.47731 0.62975 0.7532 0.0
H738 H 0.41137 0.56024 0.79506 0.0
H739 H 0.46427 0.63736 0.78806 0.0
H740 H 0.41283 0.64406 0.83805 0.0
H741 H 0.42899 0.63715 0.80444 0.0
H742 H 0.42389 0.57251 0.83143 0.0
H743 H 0.40694 0.57896 0.8647 0.0
C744 C 0.43401 0.57112 0.76649 0.0
C745 C 0.45251 0.59048 0.75416 0.0
C746 C 0.42613 0.57556 0.7863 0.0
C747 C 0.43667 0.59945 0.79438 0.0
C748 C 0.4555 0.61876 0.78223 0.0
C749 C 0.46326 0.61434 0.76235 0.0
C750 C 0.41528 0.62844 0.83684 0.0
C751 C 0.40844 0.61199 0.85402 0.0
C752 C 0.42468 0.62453 0.81759 0.0
C753 C 0.42766 0.60419 0.81515 0.0
C754 C 0.42138 0.58809 0.83256 0.0
C755 C 0.4118 0.59188 0.85171 0.0
H756 H 0.88003 0.49513 0.91166 0.0
H757 H 0.86462 0.42219 0.89872 0.0
H758 H 0.8554 0.48098 0.94491 0.0
H759 H 0.84006 0.40809 0.93187 0.0
H760 H 0.78219 0.43937 0.98476 0.0
H761 H 0.81075 0.4552 0.95401 0.0
H762 H 0.84251 0.4108 0.97124 0.0
H763 H 0.81353 0.39458 0.00187 0.0
C764 C 0.87145 0.47611 0.91594 0.0
C765 C 0.87423 0.45978 0.90252 0.0
C766 C 0.85733 0.468 0.93496 0.0
C767 C 0.84565 0.44338 0.94096 0.0
C768 C 0.84908 0.42723 0.92787 0.0
C769 C 0.86319 0.43533 0.90886 0.0
C770 C 0.79529 0.43301 0.98203 0.0
C771 C 0.79554 0.41566 -0.00431 0.0
C772 C 0.81182 0.44224 0.9645 0.0
C773 C 0.82896 0.43432 0.96021 0.0
C774 C 0.82935 0.41709 0.97399 0.0
C775 C 0.81282 0.40787 0.99157 0.0
H776 H 0.40232 0.89226 0.08364 0.0
H777 H 0.45717 0.87307 0.06297 0.0
H778 H 0.39417 0.86805 0.11616 0.0
H779 H 0.44901 0.84882 0.09551 0.0
H780 H 0.44111 0.82247 0.16553 0.0
H781 H 0.45261 0.85036 0.13511 0.0
H782 H 0.37353 0.82452 0.1237 0.0
H783 H 0.36209 0.79701 0.1542 0.0
C784 C 0.41271 0.88294 0.08609 0.0
C785 C 0.43024 0.88442 0.07065 0.0
C786 C 0.408 0.86904 0.10469 0.0
C787 C 0.42072 0.85628 0.10829 0.0
C788 C 0.43904 0.85858 0.0933 0.0
C789 C 0.44375 0.87251 0.07467 0.0
C790 C 0.42621 0.82279 0.15652 0.0
C791 C 0.40069 0.80755 0.16226 0.0
C792 C 0.43279 0.8387 0.13906 0.0
C793 C 0.414 0.83975 0.12706 0.0
C794 C 0.3885 0.82446 0.13284 0.0
C795 C 0.38192 0.80855 0.15022 0.0
H796 H 0.51944 0.42566 0.26988 0.0
H797 H 0.58032 0.42335 0.23716 0.0
H798 H 0.534 0.41861 0.30445 0.0
H799 H 0.59471 0.41612 0.27155 0.0
H800 H 0.59605 0.37877 0.33441 0.0
H801 H 0.57757 0.38244 0.30076 0.0
H802 H 0.57505 0.4439 0.32722 0.0
H803 H 0.59376 0.4405 0.36076 0.0
C804 C 0.53581 0.42349 0.27011 0.0
C805 C 0.54888 0.42518 0.25095 0.0
C806 C 0.54417 0.41956 0.28982 0.0
C807 C 0.56542 0.41678 0.29059 0.0
C808 C 0.57815 0.418 0.27136 0.0
C809 C 0.57007 0.42234 0.25175 0.0
C810 C 0.59136 0.39294 0.33311 0.0
C811 C 0.59649 0.40944 0.35019 0.0
C812 C 0.58089 0.39508 0.31384 0.0
C813 C 0.57495 0.41347 0.31144 0.0
C814 C 0.57931 0.42946 0.32873 0.0
C815 C 0.59016 0.42759 0.34786 0.0
H816 H 0.46445 0.91124 0.35745 0.0
H817 H 0.44479 0.84311 0.38785 0.0
H818 H 0.44851 0.89003 0.32305 0.0
H819 H 0.42864 0.82186 0.35358 0.0
H820 H 0.42107 0.79413 0.28439 0.0
H821 H 0.4407 0.81656 0.31762 0.0
H822 H 0.40828 0.86185 0.30693 0.0
H823 H 0.38924 0.83995 0.2736 0.0
C824 C 0.45666 0.89173 0.35678 0.0
C825 C 0.45585 0.87885 0.37536 0.0
C826 C 0.4475 0.87956 0.33709 0.0
C827 C 0.4372 0.85421 0.33556 0.0
C828 C 0.43678 0.84142 0.35409 0.0
C829 C 0.44602 0.85361 0.37375 0.0
C830 C 0.4182 0.80893 0.2891 0.0
C831 C 0.40355 0.81521 0.27631 0.0
C832 C 0.42937 0.82172 0.3082 0.0
C833 C 0.4261 0.84104 0.31494 0.0
C834 C 0.41155 0.84735 0.30207 0.0
C835 C 0.40046 0.83464 0.28299 0.0
H836 H 0.54204 0.41247 0.56144 0.0
H837 H 0.60225 0.48536 0.54662 0.0
H838 H 0.55099 0.39741 0.52831 0.0
H839 H 0.6111 0.47036 0.51338 0.0
H840 H 0.56171 0.38211 0.4579 0.0
H841 H 0.55008 0.39809 0.48902 0.0
H842 H 0.62922 0.44556 0.50415 0.0
H843 H 0.64079 0.43003 0.47293 0.0
C844 C 0.55687 0.42536 0.55089 0.0
C845 C 0.57154 0.45009 0.5567 0.0
C846 C 0.56201 0.41672 0.5319 0.0
C847 C 0.58191 0.43264 0.51828 0.0
C848 C 0.59598 0.45753 0.52374 0.0
C849 C 0.59088 0.46614 0.54274 0.0
C850 C 0.57658 0.39598 0.46787 0.0
C851 C 0.60216 0.40482 0.46295 0.0
C852 C 0.56994 0.40508 0.48574 0.0
C853 C 0.58873 0.4232 0.49902 0.0
C854 C 0.61428 0.43195 0.49406 0.0
C855 C 0.6209 0.42288 0.47624 0.0
H856 H 0.15497 0.59813 0.71094 0.0
H857 H 0.12291 0.5246 0.68659 0.0
H858 H 0.17703 0.61389 0.67675 0.0
H859 H 0.14597 0.5402 0.65306 0.0
H860 H 0.23633 0.62922 0.62291 0.0
H861 H 0.21187 0.61668 0.65638 0.0
H862 H 0.14718 0.56112 0.62125 0.0
H863 H 0.17182 0.57302 0.58818 0.0
C864 C 0.1525 0.58533 0.69826 0.0
C865 C 0.13717 0.56008 0.70153 0.0
C866 C 0.16542 0.59436 0.67877 0.0
C867 C 0.16332 0.57835 0.66211 0.0
C868 C 0.14777 0.55313 0.66536 0.0
C869 C 0.13479 0.54413 0.68475 0.0
C870 C 0.21681 0.6145 0.62236 0.0
C871 C 0.20611 0.60189 0.60298 0.0
C872 C 0.20274 0.60735 0.64152 0.0
C873 C 0.17763 0.58763 0.64158 0.0
C874 C 0.16665 0.57593 0.62193 0.0
C875 C 0.18075 0.58286 0.60292 0.0
H876 H 0.56149 0.17853 0.88786 0.0
H877 H 0.5436 0.10985 0.85877 0.0
H878 H 0.57631 0.19854 0.85316 0.0
H879 H 0.55833 0.12989 0.82389 0.0
H880 H 0.61473 0.18021 0.77244 0.0
H881 H 0.59751 0.15884 0.80626 0.0
H882 H 0.5617 0.20118 0.81768 0.0
H883 H 0.57941 0.22299 0.78407 0.0
C884 C 0.56037 0.16763 0.87396 0.0
C885 C 0.55129 0.14258 0.87605 0.0
C886 C 0.56887 0.17911 0.85406 0.0
C887 C 0.56847 0.16582 0.83572 0.0
C888 C 0.55921 0.14072 0.83776 0.0
C889 C 0.55075 0.12923 0.85772 0.0
C890 C 0.60313 0.18494 0.78211 0.0
C891 C 0.59857 0.20342 0.77556 0.0
C892 C 0.59311 0.17256 0.80146 0.0
C893 C 0.57825 0.17831 0.81471 0.0
C894 C 0.57338 0.19654 0.80801 0.0
C895 C 0.58344 0.20897 0.78867 0.0
H896 H 0.45977 0.61331 0.06639 0.0
H897 H 0.41706 0.54146 0.03783 0.0
H898 H 0.45162 0.63063 0.03466 0.0
H899 H 0.4085 0.55885 0.00632 0.0
H900 H 0.44708 0.65371 0.96479 0.0
H901 H 0.45963 0.63697 0.9945 0.0
H902 H 0.38225 0.5783 0.0011 0.0
H903 H 0.36972 0.59489 0.97157 0.0
C904 C 0.44909 0.60125 0.05318 0.0
C905 C 0.43893 0.57594 0.05475 0.0
C906 C 0.44435 0.6112 0.03504 0.0
C907 C 0.42921 0.59606 0.01814 0.0
C908 C 0.41987 0.5709 0.01929 0.0
C909 C 0.42476 0.56096 0.03735 0.0
C910 C 0.43279 0.63726 0.97264 0.0
C911 C 0.40742 0.62562 0.96587 0.0
C912 C 0.43996 0.62773 0.98963 0.0
C913 C 0.42194 0.60624 -2e-05 0.0
C914 C 0.39661 0.59467 0.99321 0.0
C915 C 0.38941 0.60431 0.97641 0.0
H916 H 0.85894 0.46294 0.21303 0.0
H917 H 0.86579 0.40072 0.19618 0.0
H918 H 0.83741 0.45886 0.17899 0.0
H919 H 0.84391 0.39649 0.16217 0.0
H920 H 0.77862 0.38161 0.11568 0.0
H921 H 0.80112 0.38559 0.14928 0.0
H922 H 0.8465 0.46335 0.14 0.0
H923 H 0.82394 0.45952 0.10664 0.0
C924 C 0.85615 0.44857 0.20196 0.0
C925 C 0.86419 0.43221 0.20733 0.0
C926 C 0.84373 0.4462 0.18246 0.0
C927 C 0.83896 0.42735 0.1679 0.0
C928 C 0.84703 0.411 0.1732 0.0
C929 C 0.85955 0.41344 0.19268 0.0
C930 C 0.79339 0.39956 0.1208 0.0
C931 C 0.7994 0.42025 0.10848 0.0
C932 C 0.80639 0.4018 0.13998 0.0
C933 C 0.82555 0.42479 0.14729 0.0
C934 C 0.83162 0.44543 0.13492 0.0
C935 C 0.81874 0.44319 0.11573 0.0
loop_
_geom_bond_atom_site_label_1
_geom_bond_atom_site_label_2
_geom_bond_distance
_geom_bond_site_symmetry_2
_ccdc_geom_bond_type
H0 C27 0.929 . S
N1 C26 1.433 . S
N1 C32 1.435 . S
N1 C38 1.423 . S
H2 C28 0.930 . S
H3 C31 0.931 . S
H4 C30 0.929 . S
H5 C33 0.930 . S
H6 C34 0.932 . S
H7 C37 0.929 . S
H8 C36 0.931 . S
H9 C39 0.929 . S
H10 C43 0.932 . S
H11 C40 0.931 . S
H12 C42 0.929 . S
H13 C45 0.929 . S
H14 C46 0.930 . S
H15 C48 0.929 . S
H16 C49 0.931 . S
H17 C51 0.930 . S
H18 C52 0.932 . S
H19 C54 0.931 . S
H20 C55 0.929 . S
H21 C57 0.929 . S
H22 C58 0.931 . S
H23 C60 0.929 . S
N24 C44 1.433 . S
N24 C50 1.435 . S
N24 C56 1.423 . S
H25 C61 0.932 . S
C26 N1 1.433 . S
C26 C27 1.363 . S
C26 C31 1.370 . S
C27 H0 0.929 . S
C27 C26 1.363 . S
C27 C28 1.385 . S
C28 H2 0.930 . S
C28 C27 1.385 . S
C28 C29 1.357 . S
C29 C28 1.357 . S
C29 C30 1.406 . S
C30 H4 0.929 . S
C30 C29 1.406 . S
C30 C31 1.391 . S
C31 H3 0.931 . S
C31 C26 1.370 . S
C31 C30 1.391 . S
C32 N1 1.435 . S
C32 C33 1.358 . S
C32 C37 1.371 . S
C33 H5 0.930 . S
C33 C32 1.358 . S
C33 C34 1.405 . S
C34 H6 0.932 . S
C34 C33 1.405 . S
C34 C35 1.383 . S
C35 C34 1.383 . S
C35 C36 1.393 . S
C36 H8 0.931 . S
C36 C35 1.393 . S
C36 C37 1.382 . S
C37 H7 0.929 . S
C37 C32 1.371 . S
C37 C36 1.382 . S
C38 N1 1.423 . S
C38 C39 1.362 . S
C38 C43 1.388 . S
C39 H9 0.929 . S
C39 C38 1.362 . S
C39 C40 1.376 . S
C40 H11 0.931 . S
C40 C39 1.376 . S
C40 C41 1.396 . S
C41 C40 1.396 . S
C41 C42 1.348 . S
C41 C59 1.472 1_455 S
C42 H12 0.929 . S
C42 C41 1.348 . S
C42 C43 1.443 . S
C43 H10 0.932 . S
C43 C38 1.388 . S
C43 C42 1.443 . S
C44 N24 1.433 . S
C44 C45 1.363 . S
C44 C49 1.370 . S
C45 H13 0.929 . S
C45 C44 1.363 . S
C45 C46 1.385 . S
C46 H14 0.930 . S
C46 C45 1.385 . S
C46 C47 1.357 . S
C47 C46 1.357 . S
C47 C48 1.406 . S
C48 H15 0.929 . S
C48 C47 1.406 . S
C48 C49 1.391 . S
C49 H16 0.931 . S
C49 C44 1.370 . S
C49 C48 1.391 . S
C50 N24 1.435 . S
C50 C51 1.358 . S
C50 C55 1.371 . S
C51 H17 0.930 . S
C51 C50 1.358 . S
C51 C52 1.405 . S
C52 H18 0.932 . S
C52 C51 1.405 . S
C52 C53 1.383 . S
C53 C52 1.383 . S
C53 C54 1.393 . S
C54 H19 0.931 . S
C54 C53 1.393 . S
C54 C55 1.382 . S
C55 H20 0.929 . S
C55 C50 1.371 . S
C55 C54 1.382 . S
C56 N24 1.423 . S
C56 C57 1.362 . S
C56 C61 1.388 . S
C57 H21 0.929 . S
C57 C56 1.362 . S
C57 C58 1.376 . S
C58 H22 0.931 . S
C58 C57 1.376 . S
C58 C59 1.396 . S
C59 C41 1.472 1_655 S
C59 C58 1.396 . S
C59 C60 1.348 . S
C60 H23 0.929 . S
C60 C59 1.348 . S
C60 C61 1.443 . S
C61 H25 0.932 . S
C61 C56 1.388 . S
C61 C60 1.443 . S
H62 C89 0.929 . S
N63 C88 1.433 . S
N63 C94 1.435 . S
N63 C100 1.423 . S
H64 C90 0.930 . S
H65 C93 0.931 . S
H66 C92 0.929 . S
H67 C95 0.930 . S
H68 C96 0.932 . S
H69 C99 0.929 . S
H70 C98 0.931 . S
H71 C101 0.929 . S
H72 C105 0.932 . S
H73 C102 0.931 . S
H74 C104 0.929 1_545 S
H75 C107 0.929 . S
H76 C108 0.930 . S
H77 C110 0.929 . S
H78 C111 0.931 . S
H79 C113 0.930 . S
H80 C114 0.932 . S
H81 C116 0.931 . S
H82 C117 0.929 . S
H83 C119 0.929 . S
H84 C120 0.931 . S
H85 C122 0.929 . S
N86 C106 1.433 . S
N86 C112 1.435 . S
N86 C118 1.423 . S
H87 C123 0.932 . S
C88 N63 1.433 . S
C88 C89 1.363 . S
C88 C93 1.370 . S
C89 H62 0.929 . S
C89 C88 1.363 . S
C89 C90 1.385 . S
C90 H64 0.930 . S
C90 C89 1.385 . S
C90 C91 1.357 . S
C91 C90 1.357 . S
C91 C92 1.406 . S
C92 H66 0.929 . S
C92 C91 1.406 . S
C92 C93 1.391 . S
C93 H65 0.931 . S
C93 C88 1.370 . S
C93 C92 1.391 . S
C94 N63 1.435 . S
C94 C95 1.358 . S
C94 C99 1.371 . S
C95 H67 0.930 . S
C95 C94 1.358 . S
C95 C96 1.405 . S
C96 H68 0.932 . S
C96 C95 1.405 . S
C96 C97 1.383 . S
C97 C96 1.383 . S
C97 C98 1.393 . S
C98 H70 0.931 . S
C98 C97 1.393 . S
C98 C99 1.382 . S
C99 H69 0.929 . S
C99 C94 1.371 . S
C99 C98 1.382 . S
C100 N63 1.423 . S
C100 C101 1.362 . S
C100 C105 1.388 . S
C101 H71 0.929 . S
C101 C100 1.362 . S
C101 C102 1.376 . S
C102 H73 0.931 . S
C102 C101 1.376 . S
C102 C103 1.396 1_565 S
C103 C102 1.396 1_545 S
C103 C104 1.348 1_545 S
C103 C121 1.472 . S
C104 H74 0.929 1_565 S
C104 C103 1.348 1_565 S
C104 C105 1.443 . S
C105 H72 0.932 . S
C105 C100 1.388 . S
C105 C104 1.443 . S
C106 N86 1.433 . S
C106 C107 1.363 . S
C106 C111 1.370 . S
C107 H75 0.929 . S
C107 C106 1.363 . S
C107 C108 1.385 . S
C108 H76 0.930 . S
C108 C107 1.385 . S
C108 C109 1.357 . S
C109 C108 1.357 . S
C109 C110 1.406 . S
C110 H77 0.929 . S
C110 C109 1.406 . S
C110 C111 1.391 . S
C111 H78 0.931 . S
C111 C106 1.370 . S
C111 C110 1.391 . S
C112 N86 1.435 . S
C112 C113 1.358 . S
C112 C117 1.371 . S
C113 H79 0.930 . S
C113 C112 1.358 . S
C113 C114 1.405 . S
C114 H80 0.932 . S
C114 C113 1.405 . S
C114 C115 1.383 . S
C115 C114 1.383 . S
C115 C116 1.393 . S
C116 H81 0.931 . S
C116 C115 1.393 . S
C116 C117 1.382 . S
C117 H82 0.929 . S
C117 C112 1.371 . S
C117 C116 1.382 . S
C118 N86 1.423 . S
C118 C119 1.362 . S
C118 C123 1.388 . S
C119 H83 0.929 . S
C119 C118 1.362 . S
C119 C120 1.376 . S
C120 H84 0.931 . S
C120 C119 1.376 . S
C120 C121 1.396 . S
C121 C103 1.472 . S
C121 C120 1.396 . S
C121 C122 1.348 . S
C122 H85 0.929 . S
C122 C121 1.348 . S
C122 C123 1.443 . S
C123 H87 0.932 . S
C123 C118 1.388 . S
C123 C122 1.443 . S
H124 C151 0.929 . S
N125 C150 1.433 . S
N125 C156 1.435 . S
N125 C162 1.423 . S
H126 C152 0.930 . S
H127 C155 0.931 . S
H128 C154 0.929 . S
H129 C157 0.930 . S
H130 C158 0.932 . S
H131 C161 0.929 . S
H132 C160 0.931 . S
H133 C163 0.929 . S
H134 C167 0.932 . S
H135 C164 0.931 . S
H136 C166 0.929 . S
H137 C169 0.929 . S
H138 C170 0.930 . S
H139 C172 0.929 . S
H140 C173 0.931 . S
H141 C175 0.930 . S
H142 C176 0.932 . S
H143 C178 0.931 . S
H144 C179 0.929 . S
H145 C181 0.929 . S
H146 C182 0.931 . S
H147 C184 0.929 . S
N148 C168 1.433 . S
N148 C174 1.435 . S
N148 C180 1.423 . S
H149 C185 0.932 . S
C150 N125 1.433 . S
C150 C151 1.363 . S
C150 C155 1.370 . S
C151 H124 0.929 . S
C151 C150 1.363 . S
C151 C152 1.385 . S
C152 H126 0.930 . S
C152 C151 1.385 . S
C152 C153 1.357 . S
C153 C152 1.357 . S
C153 C154 1.406 . S
C154 H128 0.929 . S
C154 C153 1.406 . S
C154 C155 1.391 . S
C155 H127 0.931 . S
C155 C150 1.370 . S
C155 C154 1.391 . S
C156 N125 1.435 . S
C156 C157 1.358 . S
C156 C161 1.371 . S
C157 H129 0.930 . S
C157 C156 1.358 . S
C157 C158 1.405 . S
C158 H130 0.932 . S
C158 C157 1.405 . S
C158 C159 1.383 . S
C159 C158 1.383 . S
C159 C160 1.393 . S
C160 H132 0.931 . S
C160 C159 1.393 . S
C160 C161 1.382 . S
C161 H131 0.929 . S
C161 C156 1.371 . S
C161 C160 1.382 . S
C162 N125 1.423 . S
C162 C163 1.362 . S
C162 C167 1.388 . S
C163 H133 0.929 . S
C163 C162 1.362 . S
C163 C164 1.376 . S
C164 H135 0.931 . S
C164 C163 1.376 . S
C164 C165 1.396 . S
C165 C164 1.396 . S
C165 C166 1.348 . S
C165 C183 1.472 . S
C166 H136 0.929 . S
C166 C165 1.348 . S
C166 C167 1.443 . S
C167 H134 0.932 . S
C167 C162 1.388 . S
C167 C166 1.443 . S
C168 N148 1.433 . S
C168 C169 1.363 . S
C168 C173 1.370 . S
C169 H137 0.929 . S
C169 C168 1.363 . S
C169 C170 1.385 . S
C170 H138 0.930 . S
C170 C169 1.385 . S
C170 C171 1.357 . S
C171 C170 1.357 . S
C171 C172 1.406 . S
C172 H139 0.929 . S
C172 C171 1.406 . S
C172 C173 1.391 . S
C173 H140 0.931 . S
C173 C168 1.370 . S
C173 C172 1.391 . S
C174 N148 1.435 . S
C174 C175 1.358 . S
C174 C179 1.371 . S
C175 H141 0.930 . S
C175 C174 1.358 . S
C175 C176 1.405 . S
C176 H142 0.932 . S
C176 C175 1.405 . S
C176 C177 1.383 . S
C177 C176 1.383 . S
C177 C178 1.393 . S
C178 H143 0.931 . S
C178 C177 1.393 . S
C178 C179 1.382 . S
C179 H144 0.929 . S
C179 C174 1.371 . S
C179 C178 1.382 . S
C180 N148 1.423 . S
C180 C181 1.362 . S
C180 C185 1.388 . S
C181 H145 0.929 . S
C181 C180 1.362 . S
C181 C182 1.376 . S
C182 H146 0.931 . S
C182 C181 1.376 . S
C182 C183 1.396 . S
C183 C165 1.472 . S
C183 C182 1.396 . S
C183 C184 1.348 . S
C184 H147 0.929 . S
C184 C183 1.348 . S
C184 C185 1.443 . S
C185 H149 0.932 . S
C185 C180 1.388 . S
C185 C184 1.443 . S
H186 C213 0.929 . S
N187 C212 1.433 . S
N187 C218 1.435 . S
N187 C224 1.423 . S
H188 C214 0.930 . S
H189 C217 0.931 . S
H190 C216 0.929 . S
H191 C219 0.930 . S
H192 C220 0.932 . S
H193 C223 0.929 . S
H194 C222 0.931 . S
H195 C225 0.929 . S
H196 C229 0.932 . S
H197 C226 0.931 . S
H198 C228 0.929 . S
H199 C231 0.929 . S
H200 C232 0.930 . S
H201 C234 0.929 . S
H202 C235 0.931 . S
H203 C237 0.930 . S
H204 C238 0.932 . S
H205 C240 0.931 . S
H206 C241 0.929 . S
H207 C243 0.929 . S
H208 C244 0.931 . S
H209 C246 0.929 . S
N210 C230 1.433 . S
N210 C236 1.435 . S
N210 C242 1.423 . S
H211 C247 0.932 . S
C212 N187 1.433 . S
C212 C213 1.363 . S
C212 C217 1.370 . S
C213 H186 0.929 . S
C213 C212 1.363 . S
C213 C214 1.385 . S
C214 H188 0.930 . S
C214 C213 1.385 . S
C214 C215 1.357 . S
C215 C214 1.357 . S
C215 C216 1.406 . S
C216 H190 0.929 . S
C216 C215 1.406 . S
C216 C217 1.391 . S
C217 H189 0.931 . S
C217 C212 1.370 . S
C217 C216 1.391 . S
C218 N187 1.435 . S
C218 C219 1.358 . S
C218 C223 1.371 . S
C219 H191 0.930 . S
C219 C218 1.358 . S
C219 C220 1.405 . S
C220 H192 0.932 . S
C220 C219 1.405 . S
C220 C221 1.383 . S
C221 C220 1.383 . S
C221 C222 1.393 . S
C222 H194 0.931 . S
C222 C221 1.393 . S
C222 C223 1.382 . S
C223 H193 0.929 . S
C223 C218 1.371 . S
C223 C222 1.382 . S
C224 N187 1.423 . S
C224 C225 1.362 . S
C224 C229 1.388 . S
C225 H195 0.929 . S
C225 C224 1.362 . S
C225 C226 1.376 . S
C226 H197 0.931 . S
C226 C225 1.376 . S
C226 C227 1.396 . S
C227 C226 1.396 . S
C227 C228 1.348 . S
C227 C245 1.472 1_455 S
C228 H198 0.929 . S
C228 C227 1.348 . S
C228 C229 1.443 . S
C229 H196 0.932 . S
C229 C224 1.388 . S
C229 C228 1.443 . S
C230 N210 1.433 . S
C230 C231 1.363 . S
C230 C235 1.370 . S
C231 H199 0.929 . S
C231 C230 1.363 . S
C231 C232 1.385 . S
C232 H200 0.930 . S
C232 C231 1.385 . S
C232 C233 1.357 . S
C233 C232 1.357 . S
C233 C234 1.406 . S
C234 H201 0.929 . S
C234 C233 1.406 . S
C234 C235 1.391 . S
C235 H202 0.931 . S
C235 C230 1.370 . S
C235 C234 1.391 . S
C236 N210 1.435 . S
C236 C237 1.358 . S
C236 C241 1.371 . S
C237 H203 0.930 . S
C237 C236 1.358 . S
C237 C238 1.405 . S
C238 H204 0.932 . S
C238 C237 1.405 . S
C238 C239 1.383 . S
C239 C238 1.383 . S
C239 C240 1.393 . S
C240 H205 0.931 . S
C240 C239 1.393 . S
C240 C241 1.382 . S
C241 H206 0.929 . S
C241 C236 1.371 . S
C241 C240 1.382 . S
C242 N210 1.423 . S
C242 C243 1.362 . S
C242 C247 1.388 . S
C243 H207 0.929 . S
C243 C242 1.362 . S
C243 C244 1.376 . S
C244 H208 0.931 . S
C244 C243 1.376 . S
C244 C245 1.396 . S
C245 C227 1.472 1_655 S
C245 C244 1.396 . S
C245 C246 1.348 . S
C246 H209 0.929 . S
C246 C245 1.348 . S
C246 C247 1.443 . S
C247 H211 0.932 . S
C247 C242 1.388 . S
C247 C246 1.443 . S
H248 C275 0.929 . S
N249 C274 1.433 . S
N249 C280 1.435 . S
N249 C286 1.423 . S
H250 C276 0.930 . S
H251 C279 0.931 . S
H252 C278 0.929 . S
H253 C281 0.930 . S
H254 C282 0.932 . S
H255 C285 0.929 . S
H256 C284 0.931 . S
H257 C287 0.929 . S
H258 C291 0.932 . S
H259 C288 0.931 . S
H260 C290 0.929 . S
H261 C293 0.929 . S
H262 C294 0.930 . S
H263 C296 0.929 . S
H264 C297 0.931 . S
H265 C299 0.930 1_554 S
H266 C300 0.932 . S
H267 C302 0.931 . S
H268 C303 0.929 . S
H269 C305 0.929 . S
H270 C306 0.931 1_554 S
H271 C308 0.929 . S
N272 C292 1.433 . S
N272 C298 1.435 1_554 S
N272 C304 1.423 1_554 S
H273 C309 0.932 . S
C274 N249 1.433 . S
C274 C275 1.363 . S
C274 C279 1.370 . S
C275 H248 0.929 . S
C275 C274 1.363 . S
C275 C276 1.385 . S
C276 H250 0.930 . S
C276 C275 1.385 . S
C276 C277 1.357 1_556 S
C277 C276 1.357 1_554 S
C277 C278 1.406 . S
C278 H252 0.929 . S
C278 C277 1.406 . S
C278 C279 1.391 1_554 S
C279 H251 0.931 . S
C279 C274 1.370 . S
C279 C278 1.391 1_556 S
C280 N249 1.435 . S
C280 C281 1.358 . S
C280 C285 1.371 . S
C281 H253 0.930 . S
C281 C280 1.358 . S
C281 C282 1.405 . S
C282 H254 0.932 . S
C282 C281 1.405 . S
C282 C283 1.383 . S
C283 C282 1.383 . S
C283 C284 1.393 . S
C284 H256 0.931 . S
C284 C283 1.393 . S
C284 C285 1.382 . S
C285 H255 0.929 . S
C285 C280 1.371 . S
C285 C284 1.382 . S
C286 N249 1.423 . S
C286 C287 1.362 . S
C286 C291 1.388 . S
C287 H257 0.929 . S
C287 C286 1.362 . S
C287 C288 1.376 . S
C288 H259 0.931 . S
C288 C287 1.376 . S
C288 C289 1.396 . S
C289 C288 1.396 . S
C289 C290 1.348 . S
C289 C307 1.472 1_545 S
C290 H260 0.929 . S
C290 C289 1.348 . S
C290 C291 1.443 . S
C291 H258 0.932 . S
C291 C286 1.388 . S
C291 C290 1.443 . S
C292 N272 1.433 . S
C292 C293 1.363 . S
C292 C297 1.370 . S
C293 H261 0.929 . S
C293 C292 1.363 . S
C293 C294 1.385 . S
C294 H262 0.930 . S
C294 C293 1.385 . S
C294 C295 1.357 . S
C295 C294 1.357 . S
C295 C296 1.406 . S
C296 H263 0.929 . S
C296 C295 1.406 . S
C296 C297 1.391 . S
C297 H264 0.931 . S
C297 C292 1.370 . S
C297 C296 1.391 . S
C298 N272 1.435 1_556 S
C298 C299 1.358 . S
C298 C303 1.371 . S
C299 H265 0.930 1_556 S
C299 C298 1.358 . S
C299 C300 1.405 . S
C300 H266 0.932 . S
C300 C299 1.405 . S
C300 C301 1.383 . S
C301 C300 1.383 . S
C301 C302 1.393 . S
C302 H267 0.931 . S
C302 C301 1.393 . S
C302 C303 1.382 . S
C303 H268 0.929 . S
C303 C298 1.371 . S
C303 C302 1.382 . S
C304 N272 1.423 1_556 S
C304 C305 1.362 1_556 S
C304 C309 1.388 . S
C305 H269 0.929 . S
C305 C304 1.362 1_554 S
C305 C306 1.376 1_554 S
C306 H270 0.931 1_556 S
C306 C305 1.376 1_556 S
C306 C307 1.396 . S
C307 C289 1.472 1_565 S
C307 C306 1.396 . S
C307 C308 1.348 . S
C308 H271 0.929 . S
C308 C307 1.348 . S
C308 C309 1.443 . S
C309 H273 0.932 . S
C309 C304 1.388 . S
C309 C308 1.443 . S
H310 C337 0.929 . S
N311 C336 1.433 . S
N311 C342 1.435 . S
N311 C348 1.423 . S
H312 C338 0.930 . S
H313 C341 0.931 . S
H314 C340 0.929 . S
H315 C343 0.930 . S
H316 C344 0.932 . S
H317 C347 0.929 . S
H318 C346 0.931 . S
H319 C349 0.929 . S
H320 C353 0.932 . S
H321 C350 0.931 . S
H322 C352 0.929 . S
H323 C355 0.929 . S
H324 C356 0.930 . S
H325 C358 0.929 . S
H326 C359 0.931 . S
H327 C361 0.930 . S
H328 C362 0.932 . S
H329 C364 0.931 . S
H330 C365 0.929 . S
H331 C367 0.929 . S
H332 C368 0.931 . S
H333 C370 0.929 . S
N334 C354 1.433 . S
N334 C360 1.435 . S
N334 C366 1.423 . S
H335 C371 0.932 . S
C336 N311 1.433 . S
C336 C337 1.363 . S
C336 C341 1.370 . S
C337 H310 0.929 . S
C337 C336 1.363 . S
C337 C338 1.385 . S
C338 H312 0.930 . S
C338 C337 1.385 . S
C338 C339 1.357 . S
C339 C338 1.357 . S
C339 C340 1.406 . S
C340 H314 0.929 . S
C340 C339 1.406 . S
C340 C341 1.391 . S
C341 H313 0.931 . S
C341 C336 1.370 . S
C341 C340 1.391 . S
C342 N311 1.435 . S
C342 C343 1.358 . S
C342 C347 1.371 . S
C343 H315 0.930 . S
C343 C342 1.358 . S
C343 C344 1.405 . S
C344 H316 0.932 . S
C344 C343 1.405 . S
C344 C345 1.383 . S
C345 C344 1.383 . S
C345 C346 1.393 . S
C346 H318 0.931 . S
C346 C345 1.393 . S
C346 C347 1.382 . S
C347 H317 0.929 . S
C347 C342 1.371 . S
C347 C346 1.382 . S
C348 N311 1.423 . S
C348 C349 1.362 . S
C348 C353 1.388 . S
C349 H319 0.929 . S
C349 C348 1.362 . S
C349 C350 1.376 . S
C350 H321 0.931 . S
C350 C349 1.376 . S
C350 C351 1.396 . S
C351 C350 1.396 . S
C351 C352 1.348 . S
C351 C369 1.472 . S
C352 H322 0.929 . S
C352 C351 1.348 . S
C352 C353 1.443 . S
C353 H320 0.932 . S
C353 C348 1.388 . S
C353 C352 1.443 . S
C354 N334 1.433 . S
C354 C355 1.363 . S
C354 C359 1.370 . S
C355 H323 0.929 . S
C355 C354 1.363 . S
C355 C356 1.385 . S
C356 H324 0.930 . S
C356 C355 1.385 . S
C356 C357 1.357 . S
C357 C356 1.357 . S
C357 C358 1.406 . S
C358 H325 0.929 . S
C358 C357 1.406 . S
C358 C359 1.391 . S
C359 H326 0.931 . S
C359 C354 1.370 . S
C359 C358 1.391 . S
C360 N334 1.435 . S
C360 C361 1.358 . S
C360 C365 1.371 . S
C361 H327 0.930 . S
C361 C360 1.358 . S
C361 C362 1.405 . S
C362 H328 0.932 . S
C362 C361 1.405 . S
C362 C363 1.383 . S
C363 C362 1.383 . S
C363 C364 1.393 . S
C364 H329 0.931 . S
C364 C363 1.393 . S
C364 C365 1.382 . S
C365 H330 0.929 . S
C365 C360 1.371 . S
C365 C364 1.382 . S
C366 N334 1.423 . S
C366 C367 1.362 . S
C366 C371 1.388 . S
C367 H331 0.929 . S
C367 C366 1.362 . S
C367 C368 1.376 . S
C368 H332 0.931 . S
C368 C367 1.376 . S
C368 C369 1.396 . S
C369 C351 1.472 . S
C369 C368 1.396 . S
C369 C370 1.348 . S
C370 H333 0.929 . S
C370 C369 1.348 . S
C370 C371 1.443 . S
C371 H335 0.932 . S
C371 C366 1.388 . S
C371 C370 1.443 . S
C372 O373 1.306 . S
C372 O375 1.160 . S
O373 C372 1.306 . S
O373 Cd374 2.228 . S
Cd374 O373 2.228 . S
Cd374 O378 2.273 . S
Cd374 O382 2.277 . S
O375 C372 1.160 . S
O375 Cd376 2.203 . S
Cd376 O375 2.203 . S
Cd376 O378 2.411 . S
Cd376 O379 2.333 . S
Cd376 O380 2.352 . S
Cd376 O384 2.277 . S
Cd376 O385 2.356 . S
C377 O382 1.209 . S
C377 O384 1.226 . S
O378 Cd374 2.273 . S
O378 Cd376 2.411 . S
O378 C381 1.320 . S
O379 Cd376 2.333 . S
O379 C381 1.214 . S
O380 Cd376 2.352 . S
O380 C383 1.258 . S
C381 O378 1.320 . S
C381 O379 1.214 . S
O382 Cd374 2.277 . S
O382 C377 1.209 . S
C383 O380 1.258 . S
C383 O385 1.282 . S
O384 Cd376 2.277 . S
O384 C377 1.226 . S
O385 Cd376 2.356 . S
O385 C383 1.282 . S
C386 O387 1.306 . S
C386 O389 1.160 . S
O387 C386 1.306 . S
O387 Cd388 2.228 . S
Cd388 O387 2.228 . S
Cd388 O392 2.273 . S
Cd388 O396 2.277 . S
O389 C386 1.160 . S
O389 Cd390 2.203 . S
Cd390 O389 2.203 . S
Cd390 O392 2.411 . S
Cd390 O393 2.333 . S
Cd390 O394 2.352 . S
Cd390 O398 2.277 . S
Cd390 O399 2.356 . S
C391 O396 1.209 . S
C391 O398 1.226 . S
O392 Cd388 2.273 . S
O392 Cd390 2.411 . S
O392 C395 1.320 . S
O393 Cd390 2.333 . S
O393 C395 1.214 . S
O394 Cd390 2.352 . S
O394 C397 1.258 . S
C395 O392 1.320 . S
C395 O393 1.214 . S
O396 Cd388 2.277 . S
O396 C391 1.209 . S
C397 O394 1.258 . S
C397 O399 1.282 . S
O398 Cd390 2.277 . S
O398 C391 1.226 . S
O399 Cd390 2.356 . S
O399 C397 1.282 . S
C400 O401 1.306 . S
C400 O403 1.160 . S
O401 C400 1.306 . S
O401 Cd402 2.228 . S
Cd402 O401 2.228 . S
Cd402 O406 2.273 . S
Cd402 O410 2.277 . S
O403 C400 1.160 . S
O403 Cd404 2.203 . S
Cd404 O403 2.203 . S
Cd404 O406 2.411 . S
Cd404 O407 2.333 . S
Cd404 O408 2.352 . S
Cd404 O412 2.277 . S
Cd404 O413 2.356 . S
C405 O410 1.209 . S
C405 O412 1.226 . S
O406 Cd402 2.273 . S
O406 Cd404 2.411 . S
O406 C409 1.320 . S
O407 Cd404 2.333 . S
O407 C409 1.214 . S
O408 Cd404 2.352 . S
O408 C411 1.258 . S
C409 O406 1.320 . S
C409 O407 1.214 . S
O410 Cd402 2.277 . S
O410 C405 1.209 . S
C411 O408 1.258 . S
C411 O413 1.282 . S
O412 Cd404 2.277 . S
O412 C405 1.226 . S
O413 Cd404 2.356 . S
O413 C411 1.282 . S
C414 O415 1.306 . S
C414 O417 1.160 . S
O415 C414 1.306 . S
O415 Cd416 2.228 . S
Cd416 O415 2.228 . S
Cd416 O420 2.273 . S
Cd416 O424 2.277 . S
O417 C414 1.160 . S
O417 Cd418 2.203 . S
Cd418 O417 2.203 . S
Cd418 O420 2.411 . S
Cd418 O421 2.333 . S
Cd418 O422 2.352 . S
Cd418 O426 2.277 . S
Cd418 O427 2.356 . S
C419 O424 1.209 . S
C419 O426 1.226 . S
O420 Cd416 2.273 . S
O420 Cd418 2.411 . S
O420 C423 1.320 . S
O421 Cd418 2.333 . S
O421 C423 1.214 . S
O422 Cd418 2.352 . S
O422 C425 1.258 . S
C423 O420 1.320 . S
C423 O421 1.214 . S
O424 Cd416 2.277 . S
O424 C419 1.209 . S
C425 O422 1.258 . S
C425 O427 1.282 . S
O426 Cd418 2.277 . S
O426 C419 1.226 . S
O427 Cd418 2.356 . S
O427 C425 1.282 . S
C428 O429 1.306 . S
C428 O431 1.160 . S
O429 C428 1.306 . S
O429 Cd430 2.228 . S
Cd430 O429 2.228 . S
Cd430 O434 2.273 . S
Cd430 O438 2.277 . S
O431 C428 1.160 . S
O431 Cd432 2.203 . S
Cd432 O431 2.203 . S
Cd432 O434 2.411 . S
Cd432 O435 2.333 . S
Cd432 O436 2.352 . S
Cd432 O440 2.277 . S
Cd432 O441 2.356 . S
C433 O438 1.209 . S
C433 O440 1.226 . S
O434 Cd430 2.273 . S
O434 Cd432 2.411 . S
O434 C437 1.320 . S
O435 Cd432 2.333 . S
O435 C437 1.214 . S
O436 Cd432 2.352 . S
O436 C439 1.258 . S
C437 O434 1.320 . S
C437 O435 1.214 . S
O438 Cd430 2.277 . S
O438 C433 1.209 . S
C439 O436 1.258 . S
C439 O441 1.282 . S
O440 Cd432 2.277 . S
O440 C433 1.226 . S
O441 Cd432 2.356 . S
O441 C439 1.282 . S
C442 O443 1.306 . S
C442 O445 1.160 . S
O443 C442 1.306 . S
O443 Cd444 2.228 . S
Cd444 O443 2.228 . S
Cd444 O448 2.273 . S
Cd444 O452 2.277 . S
O445 C442 1.160 . S
O445 Cd446 2.203 . S
Cd446 O445 2.203 . S
Cd446 O448 2.411 . S
Cd446 O449 2.333 . S
Cd446 O450 2.352 . S
Cd446 O454 2.277 . S
Cd446 O455 2.356 . S
C447 O452 1.209 . S
C447 O454 1.226 . S
O448 Cd444 2.273 . S
O448 Cd446 2.411 . S
O448 C451 1.320 . S
O449 Cd446 2.333 . S
O449 C451 1.214 . S
O450 Cd446 2.352 . S
O450 C453 1.258 . S
C451 O448 1.320 . S
C451 O449 1.214 . S
O452 Cd444 2.277 . S
O452 C447 1.209 . S
C453 O450 1.258 . S
C453 O455 1.282 . S
O454 Cd446 2.277 . S
O454 C447 1.226 . S
O455 Cd446 2.356 . S
O455 C453 1.282 . S
H456 C464 0.950 . S
H457 C469 0.950 . S
H458 C466 0.950 . S
H459 C468 0.950 . S
H460 C470 0.950 . S
H461 C472 0.950 . S
H462 C474 0.950 . S
H463 C475 0.950 . S
C464 H456 0.950 . S
C464 C465 1.386 . S
C464 C466 1.391 . S
C465 C464 1.386 . S
C465 C469 1.393 . S
C466 H458 0.950 . S
C466 C464 1.391 . S
C466 C467 1.400 . S
C467 C466 1.400 . S
C467 C468 1.398 . S
C467 C473 1.491 . S
C468 H459 0.950 . S
C468 C467 1.398 . S
C468 C469 1.391 . S
C469 H457 0.950 . S
C469 C465 1.393 . S
C469 C468 1.391 . S
C470 H460 0.950 . S
C470 C471 1.386 . S
C470 C472 1.391 . S
C471 C470 1.386 . S
C471 C475 1.393 . S
C472 H461 0.950 . S
C472 C470 1.391 . S
C472 C473 1.400 . S
C473 C467 1.491 . S
C473 C472 1.400 . S
C473 C474 1.398 . S
C474 H462 0.950 . S
C474 C473 1.398 . S
C474 C475 1.391 . S
C475 H463 0.950 . S
C475 C471 1.393 . S
C475 C474 1.391 . S
H476 C484 0.950 . S
H477 C489 0.950 . S
H478 C486 0.950 . S
H479 C488 0.950 . S
H480 C490 0.950 . S
H481 C492 0.950 . S
H482 C494 0.950 . S
H483 C495 0.950 . S
C484 H476 0.950 . S
C484 C485 1.386 . S
C484 C486 1.391 . S
C485 C484 1.386 . S
C485 C489 1.393 . S
C486 H478 0.950 . S
C486 C484 1.391 . S
C486 C487 1.400 . S
C487 C486 1.400 . S
C487 C488 1.398 . S
C487 C493 1.491 . S
C488 H479 0.950 . S
C488 C487 1.398 . S
C488 C489 1.391 . S
C489 H477 0.950 . S
C489 C485 1.393 . S
C489 C488 1.391 . S
C490 H480 0.950 . S
C490 C491 1.386 . S
C490 C492 1.391 . S
C491 C490 1.386 . S
C491 C495 1.393 . S
C492 H481 0.950 . S
C492 C490 1.391 . S
C492 C493 1.400 . S
C493 C487 1.491 . S
C493 C492 1.400 . S
C493 C494 1.398 . S
C494 H482 0.950 . S
C494 C493 1.398 . S
C494 C495 1.391 . S
C495 H483 0.950 . S
C495 C491 1.393 . S
C495 C494 1.391 . S
H496 C504 0.950 . S
H497 C509 0.950 . S
H498 C506 0.950 . S
H499 C508 0.950 . S
H500 C510 0.950 . S
H501 C512 0.950 . S
H502 C514 0.950 . S
H503 C515 0.950 . S
C504 H496 0.950 . S
C504 C505 1.386 . S
C504 C506 1.391 . S
C505 C504 1.386 . S
C505 C509 1.393 . S
C506 H498 0.950 . S
C506 C504 1.391 . S
C506 C507 1.400 . S
C507 C506 1.400 . S
C507 C508 1.398 . S
C507 C513 1.491 . S
C508 H499 0.950 . S
C508 C507 1.398 . S
C508 C509 1.391 . S
C509 H497 0.950 . S
C509 C505 1.393 . S
C509 C508 1.391 . S
C510 H500 0.950 . S
C510 C511 1.386 . S
C510 C512 1.391 . S
C511 C510 1.386 . S
C511 C515 1.393 . S
C512 H501 0.950 . S
C512 C510 1.391 . S
C512 C513 1.400 . S
C513 C507 1.491 . S
C513 C512 1.400 . S
C513 C514 1.398 . S
C514 H502 0.950 . S
C514 C513 1.398 . S
C514 C515 1.391 . S
C515 H503 0.950 . S
C515 C511 1.393 . S
C515 C514 1.391 . S
H516 C524 0.950 . S
H517 C529 0.950 . S
H518 C526 0.950 . S
H519 C528 0.950 . S
H520 C530 0.950 . S
H521 C532 0.950 . S
H522 C534 0.950 . S
H523 C535 0.950 . S
C524 H516 0.950 . S
C524 C525 1.386 . S
C524 C526 1.391 . S
C525 C524 1.386 . S
C525 C529 1.393 . S
C526 H518 0.950 . S
C526 C524 1.391 . S
C526 C527 1.400 . S
C527 C526 1.400 . S
C527 C528 1.398 . S
C527 C533 1.491 . S
C528 H519 0.950 . S
C528 C527 1.398 . S
C528 C529 1.391 . S
C529 H517 0.950 . S
C529 C525 1.393 . S
C529 C528 1.391 . S
C530 H520 0.950 . S
C530 C531 1.386 . S
C530 C532 1.391 . S
C531 C530 1.386 . S
C531 C535 1.393 . S
C532 H521 0.950 . S
C532 C530 1.391 . S
C532 C533 1.400 . S
C533 C527 1.491 . S
C533 C532 1.400 . S
C533 C534 1.398 . S
C534 H522 0.950 . S
C534 C533 1.398 . S
C534 C535 1.391 . S
C535 H523 0.950 . S
C535 C531 1.393 . S
C535 C534 1.391 . S
H536 C544 0.950 . S
H537 C549 0.950 . S
H538 C546 0.950 . S
H539 C548 0.950 . S
H540 C550 0.950 . S
H541 C552 0.950 . S
H542 C554 0.950 . S
H543 C555 0.950 . S
C544 H536 0.950 . S
C544 C545 1.386 . S
C544 C546 1.391 . S
C545 C544 1.386 . S
C545 C549 1.393 . S
C546 H538 0.950 . S
C546 C544 1.391 . S
C546 C547 1.400 . S
C547 C546 1.400 . S
C547 C548 1.398 . S
C547 C553 1.491 . S
C548 H539 0.950 . S
C548 C547 1.398 . S
C548 C549 1.391 . S
C549 H537 0.950 . S
C549 C545 1.393 . S
C549 C548 1.391 . S
C550 H540 0.950 . S
C550 C551 1.386 . S
C550 C552 1.391 . S
C551 C550 1.386 . S
C551 C555 1.393 . S
C552 H541 0.950 . S
C552 C550 1.391 . S
C552 C553 1.400 . S
C553 C547 1.491 . S
C553 C552 1.400 . S
C553 C554 1.398 . S
C554 H542 0.950 . S
C554 C553 1.398 . S
C554 C555 1.391 . S
C555 H543 0.950 . S
C555 C551 1.393 . S
C555 C554 1.391 . S
H556 C564 0.950 . S
H557 C569 0.950 . S
H558 C566 0.950 . S
H559 C568 0.950 . S
H560 C570 0.950 . S
H561 C572 0.950 . S
H562 C574 0.950 . S
H563 C575 0.950 . S
C564 H556 0.950 . S
C564 C565 1.386 . S
C564 C566 1.391 . S
C565 C564 1.386 . S
C565 C569 1.393 . S
C566 H558 0.950 . S
C566 C564 1.391 . S
C566 C567 1.400 . S
C567 C566 1.400 . S
C567 C568 1.398 . S
C567 C573 1.491 . S
C568 H559 0.950 . S
C568 C567 1.398 . S
C568 C569 1.391 . S
C569 H557 0.950 . S
C569 C565 1.393 . S
C569 C568 1.391 . S
C570 H560 0.950 . S
C570 C571 1.386 . S
C570 C572 1.391 . S
C571 C570 1.386 . S
C571 C575 1.393 . S
C572 H561 0.950 . S
C572 C570 1.391 . S
C572 C573 1.400 . S
C573 C567 1.491 . S
C573 C572 1.400 . S
C573 C574 1.398 . S
C574 H562 0.950 . S
C574 C573 1.398 . S
C574 C575 1.391 . S
C575 H563 0.950 . S
C575 C571 1.393 . S
C575 C574 1.391 . S
H576 C584 0.950 . S
H577 C589 0.950 . S
H578 C586 0.950 . S
H579 C588 0.950 . S
H580 C590 0.950 . S
H581 C592 0.950 . S
H582 C594 0.950 . S
H583 C595 0.950 . S
C584 H576 0.950 . S
C584 C585 1.386 . S
C584 C586 1.391 . S
C585 C584 1.386 . S
C585 C589 1.393 . S
C586 H578 0.950 . S
C586 C584 1.391 . S
C586 C587 1.400 . S
C587 C586 1.400 . S
C587 C588 1.398 . S
C587 C593 1.491 . S
C588 H579 0.950 . S
C588 C587 1.398 . S
C588 C589 1.391 . S
C589 H577 0.950 . S
C589 C585 1.393 . S
C589 C588 1.391 . S
C590 H580 0.950 . S
C590 C591 1.386 . S
C590 C592 1.391 . S
C591 C590 1.386 . S
C591 C595 1.393 . S
C592 H581 0.950 . S
C592 C590 1.391 . S
C592 C593 1.400 . S
C593 C587 1.491 . S
C593 C592 1.400 . S
C593 C594 1.398 . S
C594 H582 0.950 . S
C594 C593 1.398 . S
C594 C595 1.391 . S
C595 H583 0.950 . S
C595 C591 1.393 . S
C595 C594 1.391 . S
H596 C604 0.950 . S
H597 C609 0.950 . S
H598 C606 0.950 . S
H599 C608 0.950 . S
H600 C610 0.950 . S
H601 C612 0.950 . S
H602 C614 0.950 . S
H603 C615 0.950 . S
C604 H596 0.950 . S
C604 C605 1.386 . S
C604 C606 1.391 . S
C605 C604 1.386 . S
C605 C609 1.393 . S
C606 H598 0.950 . S
C606 C604 1.391 . S
C606 C607 1.400 . S
C607 C606 1.400 . S
C607 C608 1.398 . S
C607 C613 1.491 . S
C608 H599 0.950 . S
C608 C607 1.398 . S
C608 C609 1.391 . S
C609 H597 0.950 . S
C609 C605 1.393 . S
C609 C608 1.391 . S
C610 H600 0.950 . S
C610 C611 1.386 . S
C610 C612 1.391 . S
C611 C610 1.386 . S
C611 C615 1.393 . S
C612 H601 0.950 . S
C612 C610 1.391 . S
C612 C613 1.400 . S
C613 C607 1.491 . S
C613 C612 1.400 . S
C613 C614 1.398 . S
C614 H602 0.950 . S
C614 C613 1.398 . S
C614 C615 1.391 . S
C615 H603 0.950 . S
C615 C611 1.393 . S
C615 C614 1.391 . S
H616 C624 0.950 . S
H617 C629 0.950 . S
H618 C626 0.950 . S
H619 C628 0.950 . S
H620 C630 0.950 . S
H621 C632 0.950 . S
H622 C634 0.950 . S
H623 C635 0.950 . S
C624 H616 0.950 . S
C624 C625 1.386 . S
C624 C626 1.391 . S
C625 C624 1.386 . S
C625 C629 1.393 . S
C626 H618 0.950 . S
C626 C624 1.391 . S
C626 C627 1.400 . S
C627 C626 1.400 . S
C627 C628 1.398 . S
C627 C633 1.491 . S
C628 H619 0.950 . S
C628 C627 1.398 . S
C628 C629 1.391 . S
C629 H617 0.950 . S
C629 C625 1.393 . S
C629 C628 1.391 . S
C630 H620 0.950 . S
C630 C631 1.386 . S
C630 C632 1.391 . S
C631 C630 1.386 . S
C631 C635 1.393 . S
C632 H621 0.950 . S
C632 C630 1.391 . S
C632 C633 1.400 . S
C633 C627 1.491 . S
C633 C632 1.400 . S
C633 C634 1.398 . S
C634 H622 0.950 . S
C634 C633 1.398 . S
C634 C635 1.391 . S
C635 H623 0.950 . S
C635 C631 1.393 . S
C635 C634 1.391 . S
H636 C644 0.950 . S
H637 C649 0.950 . S
H638 C646 0.950 . S
H639 C648 0.950 . S
H640 C650 0.950 . S
H641 C652 0.950 . S
H642 C654 0.950 . S
H643 C655 0.950 . S
C644 H636 0.950 . S
C644 C645 1.386 . S
C644 C646 1.391 . S
C645 C644 1.386 . S
C645 C649 1.393 . S
C646 H638 0.950 . S
C646 C644 1.391 . S
C646 C647 1.400 . S
C647 C646 1.400 . S
C647 C648 1.398 . S
C647 C653 1.491 . S
C648 H639 0.950 . S
C648 C647 1.398 . S
C648 C649 1.391 . S
C649 H637 0.950 . S
C649 C645 1.393 . S
C649 C648 1.391 . S
C650 H640 0.950 . S
C650 C651 1.386 . S
C650 C652 1.391 . S
C651 C650 1.386 . S
C651 C655 1.393 . S
C652 H641 0.950 . S
C652 C650 1.391 . S
C652 C653 1.400 . S
C653 C647 1.491 . S
C653 C652 1.400 . S
C653 C654 1.398 . S
C654 H642 0.950 . S
C654 C653 1.398 . S
C654 C655 1.391 . S
C655 H643 0.950 . S
C655 C651 1.393 . S
C655 C654 1.391 . S
H656 C664 0.950 . S
H657 C669 0.950 . S
H658 C666 0.950 . S
H659 C668 0.950 . S
H660 C670 0.950 . S
H661 C672 0.950 . S
H662 C674 0.950 . S
H663 C675 0.950 . S
C664 H656 0.950 . S
C664 C665 1.386 . S
C664 C666 1.391 . S
C665 C664 1.386 . S
C665 C669 1.393 . S
C666 H658 0.950 . S
C666 C664 1.391 . S
C666 C667 1.400 . S
C667 C666 1.400 . S
C667 C668 1.398 . S
C667 C673 1.491 . S
C668 H659 0.950 . S
C668 C667 1.398 . S
C668 C669 1.391 . S
C669 H657 0.950 . S
C669 C665 1.393 . S
C669 C668 1.391 . S
C670 H660 0.950 . S
C670 C671 1.386 . S
C670 C672 1.391 . S
C671 C670 1.386 . S
C671 C675 1.393 . S
C672 H661 0.950 . S
C672 C670 1.391 . S
C672 C673 1.400 . S
C673 C667 1.491 . S
C673 C672 1.400 . S
C673 C674 1.398 . S
C674 H662 0.950 . S
C674 C673 1.398 . S
C674 C675 1.391 . S
C675 H663 0.950 . S
C675 C671 1.393 . S
C675 C674 1.391 . S
H676 C684 0.950 . S
H677 C689 0.950 . S
H678 C686 0.950 . S
H679 C688 0.950 . S
H680 C690 0.950 . S
H681 C692 0.950 . S
H682 C694 0.950 . S
H683 C695 0.950 . S
C684 H676 0.950 . S
C684 C685 1.386 . S
C684 C686 1.391 . S
C685 C684 1.386 . S
C685 C689 1.393 . S
C686 H678 0.950 . S
C686 C684 1.391 . S
C686 C687 1.400 . S
C687 C686 1.400 . S
C687 C688 1.398 . S
C687 C693 1.491 . S
C688 H679 0.950 . S
C688 C687 1.398 . S
C688 C689 1.391 . S
C689 H677 0.950 . S
C689 C685 1.393 . S
C689 C688 1.391 . S
C690 H680 0.950 . S
C690 C691 1.386 . S
C690 C692 1.391 . S
C691 C690 1.386 . S
C691 C695 1.393 . S
C692 H681 0.950 . S
C692 C690 1.391 . S
C692 C693 1.400 . S
C693 C687 1.491 . S
C693 C692 1.400 . S
C693 C694 1.398 . S
C694 H682 0.950 . S
C694 C693 1.398 . S
C694 C695 1.391 . S
C695 H683 0.950 . S
C695 C691 1.393 . S
C695 C694 1.391 . S
H696 C704 0.950 . S
H697 C709 0.950 . S
H698 C706 0.950 . S
H699 C708 0.950 . S
H700 C710 0.950 . S
H701 C712 0.950 . S
H702 C714 0.950 . S
H703 C715 0.950 . S
C704 H696 0.950 . S
C704 C705 1.386 . S
C704 C706 1.391 . S
C705 C704 1.386 . S
C705 C709 1.393 . S
C706 H698 0.950 . S
C706 C704 1.391 . S
C706 C707 1.400 . S
C707 C706 1.400 . S
C707 C708 1.398 . S
C707 C713 1.491 . S
C708 H699 0.950 . S
C708 C707 1.398 . S
C708 C709 1.391 . S
C709 H697 0.950 . S
C709 C705 1.393 . S
C709 C708 1.391 . S
C710 H700 0.950 . S
C710 C711 1.386 . S
C710 C712 1.391 . S
C711 C710 1.386 . S
C711 C715 1.393 . S
C712 H701 0.950 . S
C712 C710 1.391 . S
C712 C713 1.400 . S
C713 C707 1.491 . S
C713 C712 1.400 . S
C713 C714 1.398 . S
C714 H702 0.950 . S
C714 C713 1.398 . S
C714 C715 1.391 . S
C715 H703 0.950 . S
C715 C711 1.393 . S
C715 C714 1.391 . S
H716 C724 0.950 . S
H717 C729 0.950 . S
H718 C726 0.950 . S
H719 C728 0.950 . S
H720 C730 0.950 . S
H721 C732 0.950 . S
H722 C734 0.950 . S
H723 C735 0.950 . S
C724 H716 0.950 . S
C724 C725 1.386 . S
C724 C726 1.391 . S
C725 C724 1.386 . S
C725 C729 1.393 . S
C726 H718 0.950 . S
C726 C724 1.391 . S
C726 C727 1.400 . S
C727 C726 1.400 . S
C727 C728 1.398 . S
C727 C733 1.491 . S
C728 H719 0.950 . S
C728 C727 1.398 . S
C728 C729 1.391 . S
C729 H717 0.950 . S
C729 C725 1.393 . S
C729 C728 1.391 . S
C730 H720 0.950 . S
C730 C731 1.386 . S
C730 C732 1.391 . S
C731 C730 1.386 . S
C731 C735 1.393 . S
C732 H721 0.950 . S
C732 C730 1.391 . S
C732 C733 1.400 . S
C733 C727 1.491 . S
C733 C732 1.400 . S
C733 C734 1.398 . S
C734 H722 0.950 . S
C734 C733 1.398 . S
C734 C735 1.391 . S
C735 H723 0.950 . S
C735 C731 1.393 . S
C735 C734 1.391 . S
H736 C744 0.950 . S
H737 C749 0.950 . S
H738 C746 0.950 . S
H739 C748 0.950 . S
H740 C750 0.950 . S
H741 C752 0.950 . S
H742 C754 0.950 . S
H743 C755 0.950 . S
C744 H736 0.950 . S
C744 C745 1.386 . S
C744 C746 1.391 . S
C745 C744 1.386 . S
C745 C749 1.393 . S
C746 H738 0.950 . S
C746 C744 1.391 . S
C746 C747 1.400 . S
C747 C746 1.400 . S
C747 C748 1.398 . S
C747 C753 1.491 . S
C748 H739 0.950 . S
C748 C747 1.398 . S
C748 C749 1.391 . S
C749 H737 0.950 . S
C749 C745 1.393 . S
C749 C748 1.391 . S
C750 H740 0.950 . S
C750 C751 1.386 . S
C750 C752 1.391 . S
C751 C750 1.386 . S
C751 C755 1.393 . S
C752 H741 0.950 . S
C752 C750 1.391 . S
C752 C753 1.400 . S
C753 C747 1.491 . S
C753 C752 1.400 . S
C753 C754 1.398 . S
C754 H742 0.950 . S
C754 C753 1.398 . S
C754 C755 1.391 . S
C755 H743 0.950 . S
C755 C751 1.393 . S
C755 C754 1.391 . S
H756 C764 0.950 . S
H757 C769 0.950 . S
H758 C766 0.950 . S
H759 C768 0.950 . S
H760 C770 0.950 . S
H761 C772 0.950 . S
H762 C774 0.960 . S
H763 C775 0.950 . S
C764 H756 0.950 . S
C764 C765 1.386 . S
C764 C766 1.391 . S
C765 C764 1.386 . S
C765 C769 1.393 . S
C766 H758 0.950 . S
C766 C764 1.391 . S
C766 C767 1.400 . S
C767 C766 1.400 . S
C767 C768 1.398 . S
C767 C773 1.491 . S
C768 H759 0.950 . S
C768 C767 1.398 . S
C768 C769 1.391 . S
C769 H757 0.950 . S
C769 C765 1.393 . S
C769 C768 1.391 . S
C770 H760 0.950 . S
C770 C771 1.386 1_556 S
C770 C772 1.391 . S
C771 C770 1.386 1_554 S
C771 C775 1.393 . S
C772 H761 0.950 . S
C772 C770 1.391 . S
C772 C773 1.400 . S
C773 C767 1.491 . S
C773 C772 1.400 . S
C773 C774 1.359 1_556 S
C774 H762 0.960 . S
C774 C773 1.359 1_554 S
C774 C775 1.421 . S
C775 H763 0.950 . S
C775 C771 1.393 . S
C775 C774 1.421 . S
H776 C784 0.950 . S
H777 C789 0.950 . S
H778 C786 0.950 . S
H779 C788 0.950 . S
H780 C790 0.950 . S
H781 C792 0.950 . S
H782 C794 0.950 . S
H783 C795 0.950 . S
C784 H776 0.950 . S
C784 C785 1.386 . S
C784 C786 1.391 . S
C785 C784 1.386 . S
C785 C789 1.393 . S
C786 H778 0.950 . S
C786 C784 1.391 . S
C786 C787 1.400 . S
C787 C786 1.400 . S
C787 C788 1.398 . S
C787 C793 1.491 . S
C788 H779 0.950 . S
C788 C787 1.398 . S
C788 C789 1.391 . S
C789 H777 0.950 . S
C789 C785 1.393 . S
C789 C788 1.391 . S
C790 H780 0.950 . S
C790 C791 1.386 . S
C790 C792 1.391 . S
C791 C790 1.386 . S
C791 C795 1.393 . S
C792 H781 0.950 . S
C792 C790 1.391 . S
C792 C793 1.400 . S
C793 C787 1.491 . S
C793 C792 1.400 . S
C793 C794 1.398 . S
C794 H782 0.950 . S
C794 C793 1.398 . S
C794 C795 1.391 . S
C795 H783 0.950 . S
C795 C791 1.393 . S
C795 C794 1.391 . S
H796 C804 0.950 . S
H797 C809 0.950 . S
H798 C806 0.950 . S
H799 C808 0.950 . S
H800 C810 0.950 . S
H801 C812 0.950 . S
H802 C814 0.950 . S
H803 C815 0.950 . S
C804 H796 0.950 . S
C804 C805 1.386 . S
C804 C806 1.391 . S
C805 C804 1.386 . S
C805 C809 1.393 . S
C806 H798 0.950 . S
C806 C804 1.391 . S
C806 C807 1.400 . S
C807 C806 1.400 . S
C807 C808 1.398 . S
C807 C813 1.491 . S
C808 H799 0.950 . S
C808 C807 1.398 . S
C808 C809 1.391 . S
C809 H797 0.950 . S
C809 C805 1.393 . S
C809 C808 1.391 . S
C810 H800 0.950 . S
C810 C811 1.386 . S
C810 C812 1.391 . S
C811 C810 1.386 . S
C811 C815 1.393 . S
C812 H801 0.950 . S
C812 C810 1.391 . S
C812 C813 1.400 . S
C813 C807 1.491 . S
C813 C812 1.400 . S
C813 C814 1.398 . S
C814 H802 0.950 . S
C814 C813 1.398 . S
C814 C815 1.391 . S
C815 H803 0.950 . S
C815 C811 1.393 . S
C815 C814 1.391 . S
H816 C824 0.950 . S
H817 C829 0.950 . S
H818 C826 0.950 . S
H819 C828 0.950 . S
H820 C830 0.950 . S
H821 C832 0.950 . S
H822 C834 0.950 . S
H823 C835 0.950 . S
C824 H816 0.950 . S
C824 C825 1.386 . S
C824 C826 1.391 . S
C825 C824 1.386 . S
C825 C829 1.393 . S
C826 H818 0.950 . S
C826 C824 1.391 . S
C826 C827 1.400 . S
C827 C826 1.400 . S
C827 C828 1.398 . S
C827 C833 1.491 . S
C828 H819 0.950 . S
C828 C827 1.398 . S
C828 C829 1.391 . S
C829 H817 0.950 . S
C829 C825 1.393 . S
C829 C828 1.391 . S
C830 H820 0.950 . S
C830 C831 1.386 . S
C830 C832 1.391 . S
C831 C830 1.386 . S
C831 C835 1.393 . S
C832 H821 0.950 . S
C832 C830 1.391 . S
C832 C833 1.400 . S
C833 C827 1.491 . S
C833 C832 1.400 . S
C833 C834 1.398 . S
C834 H822 0.950 . S
C834 C833 1.398 . S
C834 C835 1.391 . S
C835 H823 0.950 . S
C835 C831 1.393 . S
C835 C834 1.391 . S
H836 C844 0.950 . S
H837 C849 0.950 . S
H838 C846 0.950 . S
H839 C848 0.950 . S
H840 C850 0.950 . S
H841 C852 0.950 . S
H842 C854 0.950 . S
H843 C855 0.950 . S
C844 H836 0.950 . S
C844 C845 1.386 . S
C844 C846 1.391 . S
C845 C844 1.386 . S
C845 C849 1.393 . S
C846 H838 0.950 . S
C846 C844 1.391 . S
C846 C847 1.400 . S
C847 C846 1.400 . S
C847 C848 1.398 . S
C847 C853 1.491 . S
C848 H839 0.950 . S
C848 C847 1.398 . S
C848 C849 1.391 . S
C849 H837 0.950 . S
C849 C845 1.393 . S
C849 C848 1.391 . S
C850 H840 0.950 . S
C850 C851 1.386 . S
C850 C852 1.391 . S
C851 C850 1.386 . S
C851 C855 1.393 . S
C852 H841 0.950 . S
C852 C850 1.391 . S
C852 C853 1.400 . S
C853 C847 1.491 . S
C853 C852 1.400 . S
C853 C854 1.398 . S
C854 H842 0.950 . S
C854 C853 1.398 . S
C854 C855 1.391 . S
C855 H843 0.950 . S
C855 C851 1.393 . S
C855 C854 1.391 . S
H856 C864 0.950 . S
H857 C869 0.950 . S
H858 C866 0.950 . S
H859 C868 0.950 . S
H860 C870 0.950 . S
H861 C872 0.950 . S
H862 C874 0.950 . S
H863 C875 0.950 . S
C864 H856 0.950 . S
C864 C865 1.386 . S
C864 C866 1.391 . S
C865 C864 1.386 . S
C865 C869 1.393 . S
C866 H858 0.950 . S
C866 C864 1.391 . S
C866 C867 1.400 . S
C867 C866 1.400 . S
C867 C868 1.398 . S
C867 C873 1.491 . S
C868 H859 0.950 . S
C868 C867 1.398 . S
C868 C869 1.391 . S
C869 H857 0.950 . S
C869 C865 1.393 . S
C869 C868 1.391 . S
C870 H860 0.950 . S
C870 C871 1.386 . S
C870 C872 1.391 . S
C871 C870 1.386 . S
C871 C875 1.393 . S
C872 H861 0.950 . S
C872 C870 1.391 . S
C872 C873 1.400 . S
C873 C867 1.491 . S
C873 C872 1.400 . S
C873 C874 1.398 . S
C874 H862 0.950 . S
C874 C873 1.398 . S
C874 C875 1.391 . S
C875 H863 0.950 . S
C875 C871 1.393 . S
C875 C874 1.391 . S
H876 C884 0.950 . S
H877 C889 0.950 . S
H878 C886 0.950 . S
H879 C888 0.950 . S
H880 C890 0.950 . S
H881 C892 0.950 . S
H882 C894 0.950 . S
H883 C895 0.950 . S
C884 H876 0.950 . S
C884 C885 1.386 . S
C884 C886 1.391 . S
C885 C884 1.386 . S
C885 C889 1.393 . S
C886 H878 0.950 . S
C886 C884 1.391 . S
C886 C887 1.400 . S
C887 C886 1.400 . S
C887 C888 1.398 . S
C887 C893 1.491 . S
C888 H879 0.950 . S
C888 C887 1.398 . S
C888 C889 1.391 . S
C889 H877 0.950 . S
C889 C885 1.393 . S
C889 C888 1.391 . S
C890 H880 0.950 . S
C890 C891 1.386 . S
C890 C892 1.391 . S
C891 C890 1.386 . S
C891 C895 1.393 . S
C892 H881 0.950 . S
C892 C890 1.391 . S
C892 C893 1.400 . S
C893 C887 1.491 . S
C893 C892 1.400 . S
C893 C894 1.398 . S
C894 H882 0.950 . S
C894 C893 1.398 . S
C894 C895 1.391 . S
C895 H883 0.950 . S
C895 C891 1.393 . S
C895 C894 1.391 . S
H896 C904 0.950 . S
H897 C909 0.950 . S
H898 C906 0.950 . S
H899 C908 0.950 . S
H900 C910 0.950 . S
H901 C912 0.950 . S
H902 C914 0.950 1_554 S
H903 C915 0.950 . S
C904 H896 0.950 . S
C904 C905 1.386 . S
C904 C906 1.391 . S
C905 C904 1.386 . S
C905 C909 1.393 . S
C906 H898 0.950 . S
C906 C904 1.391 . S
C906 C907 1.400 . S
C907 C906 1.400 . S
C907 C908 1.398 1_554 S
C907 C913 1.491 1_554 S
C908 H899 0.950 . S
C908 C907 1.398 1_556 S
C908 C909 1.391 1_556 S
C909 H897 0.950 . S
C909 C905 1.393 . S
C909 C908 1.391 1_554 S
C910 H900 0.950 . S
C910 C911 1.386 . S
C910 C912 1.391 . S
C911 C910 1.386 . S
C911 C915 1.393 . S
C912 H901 0.950 . S
C912 C910 1.391 . S
C912 C913 1.400 . S
C913 C907 1.491 1_556 S
C913 C912 1.400 . S
C913 C914 1.398 . S
C914 H902 0.950 1_556 S
C914 C913 1.398 . S
C914 C915 1.391 . S
C915 H903 0.950 . S
C915 C911 1.393 . S
C915 C914 1.391 . S
H916 C924 0.950 . S
H917 C929 0.950 . S
H918 C926 0.950 . S
H919 C928 0.950 . S
H920 C930 0.950 . S
H921 C932 0.950 . S
H922 C934 0.950 . S
H923 C935 0.950 . S
C924 H916 0.950 . S
C924 C925 1.386 . S
C924 C926 1.391 . S
C925 C924 1.386 . S
C925 C929 1.393 . S
C926 H918 0.950 . S
C926 C924 1.391 . S
C926 C927 1.400 . S
C927 C926 1.400 . S
C927 C928 1.398 . S
C927 C933 1.491 . S
C928 H919 0.950 . S
C928 C927 1.398 . S
C928 C929 1.391 . S
C929 H917 0.950 . S
C929 C925 1.393 . S
C929 C928 1.391 . S
C930 H920 0.950 . S
C930 C931 1.386 . S
C930 C932 1.391 . S
C931 C930 1.386 . S
C931 C935 1.393 . S
C932 H921 0.950 . S
C932 C930 1.391 . S
C932 C933 1.400 . S
C933 C927 1.491 . S
C933 C932 1.400 . S
C933 C934 1.398 . S
C934 H922 0.950 . S
C934 C933 1.398 . S
C934 C935 1.391 . S
C935 H923 0.950 . S
C935 C931 1.393 . S
C935 C934 1.391 . S
C471 C442 1.679 . S
C465 C29 1.591 . S
C485 C115 1.546 . S
C491 C383 1.582 . S
C505 C153 1.580 . S
C511 C386 1.673 . S
C525 C239 1.553 . S
C531 C400 1.567 . S
C551 C425 1.625 . S
C545 C301 1.587 . S
C565 C339 1.802 . S
C571 C428 1.929 . S
C585 C91 1.556 . S
C591 C397 1.666 . S
C605 C177 1.540 . S
C611 C411 1.558 . S
C625 C215 1.548 . S
C631 C414 1.643 . S
C651 C439 1.917 . S
C645 C277 1.799 . S
C671 C453 1.608 . S
C665 C363 1.584 . S
C691 C372 1.526 . S
C685 C53 1.504 . S
C705 C35 1.527 . S
C711 C395 1.555 . S
C725 C109 1.384 . S
C731 C409 1.510 . S
C751 C419 1.465 . S
C745 C159 1.452 . S
C765 C233 1.574 . S
C771 C437 1.699 . S
C791 C451 1.537 . S
C785 C295 1.390 . S
C811 C377 1.411 . S
C805 C345 1.390 . S
C831 C447 1.485 . S
C825 C97 1.474 . S
C845 C171 1.422 . S
C851 C381 1.527 . S
C871 C391 1.586 . S
C865 C221 1.545 . S
C885 C283 1.400 . S
C891 C405 1.429 . S
C905 C357 1.427 . S
C911 C423 1.559 . S
C925 C47 1.626 . S
C931 C433 1.740 . S
