# Generated by pormake.
# Topology eea, (3,6)-cn, num edge types: 1
# Building blocks:
#     Node 0, Type 0, BuildingBlock: BETDAH_clean_linker_0, # of connection points: 3
#     Node 1, Type 0, BuildingBlock: BETDAH_clean_linker_0, # of connection points: 3
#     Node 2, Type 0, BuildingBlock: BETDAH_clean_linker_0, # of connection points: 3
#     Node 3, Type 0, BuildingBlock: BETDAH_clean_linker_0, # of connection points: 3
#     Node 4, Type 0, BuildingBlock: BETDAH_clean_linker_0, # of connection points: 3
#     Node 5, Type 0, BuildingBlock: BETDAH_clean_linker_0, # of connection points: 3
#     Node 6, Type 0, BuildingBlock: BETDAH_clean_linker_0, # of connection points: 3
#     Node 7, Type 0, BuildingBlock: BETDAH_clean_linker_0, # of connection points: 3
#     Node 8, Type 0, BuildingBlock: BETDAH_clean_linker_0, # of connection points: 3
#     Node 9, Type 0, BuildingBlock: BETDAH_clean_linker_0, # of connection points: 3
#     Node 10, Type 0, BuildingBlock: BETDAH_clean_linker_0, # of connection points: 3
#     Node 11, Type 0, BuildingBlock: BETDAH_clean_linker_0, # of connection points: 3
#     Node 12, Type 0, BuildingBlock: BETDAH_clean_linker_0, # of connection points: 3
#     Node 13, Type 0, BuildingBlock: BETDAH_clean_linker_0, # of connection points: 3
#     Node 14, Type 0, BuildingBlock: BETDAH_clean_linker_0, # of connection points: 3
#     Node 15, Type 0, BuildingBlock: BETDAH_clean_linker_0, # of connection points: 3
#     Node 16, Type 0, BuildingBlock: BETDAH_clean_linker_0, # of connection points: 3
#     Node 17, Type 0, BuildingBlock: BETDAH_clean_linker_0, # of connection points: 3
#     Node 18, Type 1, BuildingBlock: HISSIN_clean_sbu_0, # of connection points: 6
#     Node 19, Type 1, BuildingBlock: HISSIN_clean_sbu_0, # of connection points: 6
#     Node 20, Type 1, BuildingBlock: HISSIN_clean_sbu_0, # of connection points: 6
#     Node 21, Type 1, BuildingBlock: HISSIN_clean_sbu_0, # of connection points: 6
#     Node 22, Type 1, BuildingBlock: HISSIN_clean_sbu_0, # of connection points: 6
#     Node 23, Type 1, BuildingBlock: HISSIN_clean_sbu_0, # of connection points: 6
#     Node 24, Type 1, BuildingBlock: HISSIN_clean_sbu_0, # of connection points: 6
#     Node 25, Type 1, BuildingBlock: HISSIN_clean_sbu_0, # of connection points: 6
#     Node 26, Type 1, BuildingBlock: HISSIN_clean_sbu_0, # of connection points: 6
#     Edge 27, Type (0, 1), BuildingBlock: XUDNAN_clean_linker_2, # of connection points: 2
#     Edge 28, Type (0, 1), BuildingBlock: XUDNAN_clean_linker_2, # of connection points: 2
#     Edge 29, Type (0, 1), BuildingBlock: XUDNAN_clean_linker_2, # of connection points: 2
#     Edge 30, Type (0, 1), BuildingBlock: XUDNAN_clean_linker_2, # of connection points: 2
#     Edge 31, Type (0, 1), BuildingBlock: XUDNAN_clean_linker_2, # of connection points: 2
#     Edge 32, Type (0, 1), BuildingBlock: XUDNAN_clean_linker_2, # of connection points: 2
#     Edge 33, Type (0, 1), BuildingBlock: XUDNAN_clean_linker_2, # of connection points: 2
#     Edge 34, Type (0, 1), BuildingBlock: XUDNAN_clean_linker_2, # of connection points: 2
#     Edge 35, Type (0, 1), BuildingBlock: XUDNAN_clean_linker_2, # of connection points: 2
#     Edge 36, Type (0, 1), BuildingBlock: XUDNAN_clean_linker_2, # of connection points: 2
#     Edge 37, Type (0, 1), BuildingBlock: XUDNAN_clean_linker_2, # of connection points: 2
#     Edge 38, Type (0, 1), BuildingBlock: XUDNAN_clean_linker_2, # of connection points: 2
#     Edge 39, Type (0, 1), BuildingBlock: XUDNAN_clean_linker_2, # of connection points: 2
#     Edge 40, Type (0, 1), BuildingBlock: XUDNAN_clean_linker_2, # of connection points: 2
#     Edge 41, Type (0, 1), BuildingBlock: XUDNAN_clean_linker_2, # of connection points: 2
#     Edge 42, Type (0, 1), BuildingBlock: XUDNAN_clean_linker_2, # of connection points: 2
#     Edge 43, Type (0, 1), BuildingBlock: XUDNAN_clean_linker_2, # of connection points: 2
#     Edge 44, Type (0, 1), BuildingBlock: XUDNAN_clean_linker_2, # of connection points: 2
#     Edge 45, Type (0, 1), BuildingBlock: XUDNAN_clean_linker_2, # of connection points: 2
#     Edge 46, Type (0, 1), BuildingBlock: XUDNAN_clean_linker_2, # of connection points: 2
#     Edge 47, Type (0, 1), BuildingBlock: XUDNAN_clean_linker_2, # of connection points: 2
#     Edge 48, Type (0, 1), BuildingBlock: XUDNAN_clean_linker_2, # of connection points: 2
#     Edge 49, Type (0, 1), BuildingBlock: XUDNAN_clean_linker_2, # of connection points: 2
#     Edge 50, Type (0, 1), BuildingBlock: XUDNAN_clean_linker_2, # of connection points: 2
#     Edge 51, Type (0, 1), BuildingBlock: XUDNAN_clean_linker_2, # of connection points: 2
#     Edge 52, Type (0, 1), BuildingBlock: XUDNAN_clean_linker_2, # of connection points: 2
#     Edge 53, Type (0, 1), BuildingBlock: XUDNAN_clean_linker_2, # of connection points: 2
#     Edge 54, Type (0, 1), BuildingBlock: XUDNAN_clean_linker_2, # of connection points: 2
#     Edge 55, Type (0, 1), BuildingBlock: XUDNAN_clean_linker_2, # of connection points: 2
#     Edge 56, Type (0, 1), BuildingBlock: XUDNAN_clean_linker_2, # of connection points: 2
#     Edge 57, Type (0, 1), BuildingBlock: XUDNAN_clean_linker_2, # of connection points: 2
#     Edge 58, Type (0, 1), BuildingBlock: XUDNAN_clean_linker_2, # of connection points: 2
#     Edge 59, Type (0, 1), BuildingBlock: XUDNAN_clean_linker_2, # of connection points: 2
#     Edge 60, Type (0, 1), BuildingBlock: XUDNAN_clean_linker_2, # of connection points: 2
#     Edge 61, Type (0, 1), BuildingBlock: XUDNAN_clean_linker_2, # of connection points: 2
#     Edge 62, Type (0, 1), BuildingBlock: XUDNAN_clean_linker_2, # of connection points: 2
#     Edge 63, Type (0, 1), BuildingBlock: XUDNAN_clean_linker_2, # of connection points: 2
#     Edge 64, Type (0, 1), BuildingBlock: XUDNAN_clean_linker_2, # of connection points: 2
#     Edge 65, Type (0, 1), BuildingBlock: XUDNAN_clean_linker_2, # of connection points: 2
#     Edge 66, Type (0, 1), BuildingBlock: XUDNAN_clean_linker_2, # of connection points: 2
#     Edge 67, Type (0, 1), BuildingBlock: XUDNAN_clean_linker_2, # of connection points: 2
#     Edge 68, Type (0, 1), BuildingBlock: XUDNAN_clean_linker_2, # of connection points: 2
#     Edge 69, Type (0, 1), BuildingBlock: XUDNAN_clean_linker_2, # of connection points: 2
#     Edge 70, Type (0, 1), BuildingBlock: XUDNAN_clean_linker_2, # of connection points: 2
#     Edge 71, Type (0, 1), BuildingBlock: XUDNAN_clean_linker_2, # of connection points: 2
#     Edge 72, Type (0, 1), BuildingBlock: XUDNAN_clean_linker_2, # of connection points: 2
#     Edge 73, Type (0, 1), BuildingBlock: XUDNAN_clean_linker_2, # of connection points: 2
#     Edge 74, Type (0, 1), BuildingBlock: XUDNAN_clean_linker_2, # of connection points: 2
#     Edge 75, Type (0, 1), BuildingBlock: XUDNAN_clean_linker_2, # of connection points: 2
#     Edge 76, Type (0, 1), BuildingBlock: XUDNAN_clean_linker_2, # of connection points: 2
#     Edge 77, Type (0, 1), BuildingBlock: XUDNAN_clean_linker_2, # of connection points: 2
#     Edge 78, Type (0, 1), BuildingBlock: XUDNAN_clean_linker_2, # of connection points: 2
#     Edge 79, Type (0, 1), BuildingBlock: XUDNAN_clean_linker_2, # of connection points: 2
#     Edge 80, Type (0, 1), BuildingBlock: XUDNAN_clean_linker_2, # of connection points: 2
# Relax obj value: 0.057
# Max RMSD: 0.205
# Mean RMSD: 0.145
data_MOF--net-eea--node1-HISSIN_clean_sbu_0--node2-BETDAH_clean_linker_0--edge1-XUDNAN_clean_linker_2
_symmetry_space_group_name_H-M    P1
_symmetry_Int_Tables_number       1
_symmetry_cell_setting            triclinic
loop_
_symmetry_equiv_pos_as_xyz
'x, y, z'
_cell_length_a     54.506161
_cell_length_b     54.789808
_cell_length_c     69.698177
_cell_angle_alpha  93.248394
_cell_angle_beta   93.452666
_cell_angle_gamma 119.87466
loop_
_atom_site_label
_atom_site_type_symbol
_atom_site_fract_x
_atom_site_fract_y
_atom_site_fract_z
_atom_type_partial_charge
H0 H 0.24736 0.08075 0.43176 0.0
H1 H 0.25293 0.15711 0.41402 0.0
H2 H 0.22592 0.08554 0.37221 0.0
C3 C 0.24528 0.09262 0.42049 0.0
C4 C 0.23592 0.07965 0.40146 0.0
C5 C 0.25146 0.12053 0.42523 0.0
C6 C 0.24805 0.13555 0.41056 0.0
C7 C 0.23901 0.12295 0.39137 0.0
C8 C 0.23339 0.09525 0.38694 0.0
N9 N 0.23508 0.13735 0.37621 0.0
C10 C 0.23242 0.16121 0.37916 0.0
H11 H 0.94978 0.19758 0.42903 0.0
H12 H 0.87719 0.1132 0.42556 0.0
H13 H 0.92795 0.13977 0.37808 0.0
C14 C 0.93632 0.17694 0.42115 0.0
C15 C 0.94176 0.17163 0.40234 0.0
C16 C 0.91315 0.15598 0.42974 0.0
C17 C 0.89497 0.1295 0.41911 0.0
C18 C 0.90043 0.12394 0.40037 0.0
C19 C 0.92376 0.14484 0.39233 0.0
N20 N 0.88347 0.0977 0.38891 0.0
C21 C 0.85934 0.07404 0.39379 0.0
H22 H 0.84852 0.76367 0.44229 0.0
H23 H 0.9256 0.76654 0.42783 0.0
H24 H 0.88274 0.79469 0.38914 0.0
C25 C 0.86504 0.76928 0.43269 0.0
C26 C 0.86303 0.78054 0.41541 0.0
C27 C 0.8877 0.76457 0.43762 0.0
C28 C 0.9081 0.77015 0.42439 0.0
C29 C 0.90578 0.78049 0.40669 0.0
C30 C 0.88351 0.78579 0.4025 0.0
N31 N 0.92503 0.78573 0.39249 0.0
C32 C 0.95108 0.78684 0.39499 0.0
H33 H 0.06663 0.2536 0.58409 0.0
H34 H 0.134 0.23628 0.599 0.0
H35 H 0.0697 0.21848 0.6373 0.0
C36 C 0.07712 0.24654 0.59417 0.0
C37 C 0.06515 0.23653 0.61145 0.0
C38 C 0.1019 0.2465 0.58942 0.0
C39 C 0.1149 0.23638 0.60236 0.0
C40 C 0.10299 0.22602 0.61952 0.0
C41 C 0.07826 0.22608 0.62384 0.0
N42 N 0.11456 0.21454 0.63264 0.0
C43 C 0.1423 0.21951 0.63414 0.0
H44 H 0.76743 0.83307 0.59631 0.0
H45 H 0.73834 0.89331 0.59722 0.0
H46 H 0.77858 0.8842 0.64885 0.0
C47 C 0.76501 0.84936 0.60403 0.0
C48 C 0.77534 0.85747 0.62368 0.0
C49 C 0.75132 0.86187 0.59428 0.0
C50 C 0.74933 0.88382 0.60427 0.0
C51 C 0.75941 0.89187 0.62394 0.0
C52 C 0.77193 0.87846 0.63351 0.0
N53 N 0.75447 0.91116 0.63503 0.0
C54 C 0.76111 0.93765 0.62977 0.0
H55 H 0.17093 0.94201 0.58609 0.0
H56 H 0.11325 0.85232 0.57881 0.0
H57 H 0.12831 0.89885 0.63414 0.0
C58 C 0.15607 0.92276 0.59198 0.0
C59 C 0.15167 0.92367 0.61159 0.0
C60 C 0.14236 0.89728 0.58001 0.0
C61 C 0.12374 0.87232 0.58779 0.0
C62 C 0.11802 0.87287 0.60706 0.0
C63 C 0.13183 0.89863 0.61902 0.0
N64 N 0.10017 0.84673 0.61428 0.0
C65 C 0.07927 0.84226 0.62635 0.0
H66 H 0.93174 0.42778 0.75715 0.0
H67 H 0.97255 0.51734 0.75315 0.0
H68 H 0.91086 0.46032 0.70751 0.0
C69 C 0.93428 0.44535 0.74939 0.0
C70 C 0.9188 0.44023 0.7312 0.0
C71 C 0.95389 0.47307 0.75736 0.0
C72 C 0.95743 0.49581 0.74725 0.0
C73 C 0.94133 0.49128 0.72973 0.0
C74 C 0.922 0.46355 0.72165 0.0
N75 N 0.94692 0.51507 0.7198 0.0
C76 C 0.9259 0.51925 0.71111 0.0
H77 H 0.61202 0.53786 0.76605 0.0
H78 H 0.54943 0.44903 0.76156 0.0
H79 H 0.60923 0.48146 0.71934 0.0
C80 C 0.60241 0.51684 0.75852 0.0
C81 C 0.61356 0.51261 0.74177 0.0
C82 C 0.57931 0.49406 0.76586 0.0
C83 C 0.56733 0.46668 0.75617 0.0
C84 C 0.57838 0.46233 0.73938 0.0
C85 C 0.6014 0.48517 0.73249 0.0
N86 N 0.56715 0.43543 0.72883 0.0
C87 C 0.54099 0.41181 0.73061 0.0
H88 H 0.49674 0.10926 0.7734 0.0
H89 H 0.56388 0.09003 0.7806 0.0
H90 H 0.54886 0.11742 0.72706 0.0
C91 C 0.51391 0.10763 0.76762 0.0
C92 C 0.52044 0.1144 0.74862 0.0
C93 C 0.52919 0.09853 0.77927 0.0
C94 C 0.55161 0.09669 0.77182 0.0
C95 C 0.5592 0.10407 0.75331 0.0
C96 C 0.5436 0.11287 0.74165 0.0
N97 N 0.58172 0.10075 0.74684 0.0
C98 C 0.59908 0.11468 0.73262 0.0
H99 H 0.73989 0.56268 0.90815 0.0
H100 H 0.81501 0.55563 0.91574 0.0
H101 H 0.7639 0.54395 0.96287 0.0
C102 C 0.75421 0.55885 0.91727 0.0
C103 C 0.74887 0.55329 0.93649 0.0
C104 C 0.77801 0.55987 0.90966 0.0
C105 C 0.79666 0.5549 0.92149 0.0
C106 C 0.79117 0.54866 0.94066 0.0
C107 C 0.76746 0.54803 0.94796 0.0
N108 N 0.80893 0.54323 0.95334 0.0
C109 C 0.83219 0.54081 0.94877 0.0
H110 H 0.43026 0.15472 0.9344 0.0
H111 H 0.39875 0.21129 0.92316 0.0
H112 H 0.41544 0.1983 0.98146 0.0
C113 C 0.42433 0.16997 0.93947 0.0
C114 C 0.42427 0.1753 0.95935 0.0
C115 C 0.41494 0.18257 0.92614 0.0
C116 C 0.40695 0.20193 0.93309 0.0
C117 C 0.40804 0.20832 0.95296 0.0
C118 C 0.41631 0.19468 0.96613 0.0
N119 N 0.39775 0.2261 0.95944 0.0
C120 C 0.41607 0.25347 0.96775 0.0
H121 H 0.83025 0.25218 0.90863 0.0
H122 H 0.75463 0.17597 0.91976 0.0
H123 H 0.80663 0.23894 0.96637 0.0
C124 C 0.81495 0.23968 0.91834 0.0
C125 C 0.82041 0.24938 0.93809 0.0
C126 C 0.79126 0.21324 0.91133 0.0
C127 C 0.7725 0.19679 0.92456 0.0
C128 C 0.77784 0.20619 0.94436 0.0
C129 C 0.80166 0.23252 0.95097 0.0
N130 N 0.76385 0.18686 0.95803 0.0
C131 C 0.73641 0.1782 0.96267 0.0
H132 H 0.60288 0.7553 0.09834 0.0
H133 H 0.58008 0.81953 0.09132 0.0
H134 H 0.55692 0.75374 0.04563 0.0
C135 C 0.59272 0.76438 0.08984 0.0
C136 C 0.57958 0.75144 0.07125 0.0
C137 C 0.59286 0.78886 0.09746 0.0
C138 C 0.58034 0.80082 0.08576 0.0
C139 C 0.56742 0.78803 0.06701 0.0
C140 C 0.56678 0.7633 0.06011 0.0
N141 N 0.55461 0.79904 0.05454 0.0
C142 C 0.55736 0.82561 0.05731 0.0
H143 H 0.29616 0.84678 0.10587 0.0
H144 H 0.20653 0.7866 0.10232 0.0
H145 H 0.25038 0.79769 0.05186 0.0
C146 C 0.27668 0.83085 0.09751 0.0
C147 C 0.27682 0.82415 0.07767 0.0
C148 C 0.25153 0.8173 0.10667 0.0
C149 C 0.22643 0.79637 0.09584 0.0
C150 C 0.22623 0.78873 0.07634 0.0
C151 C 0.25132 0.80262 0.06725 0.0
N152 N 0.19971 0.77057 0.06544 0.0
C153 C 0.19133 0.7433 0.05766 0.0
H154 H 0.19788 0.44726 0.11918 0.0
H155 H 0.28717 0.47575 0.11888 0.0
H156 H 0.24247 0.48714 0.07081 0.0
C157 C 0.21696 0.45627 0.11178 0.0
C158 C 0.21644 0.46586 0.09347 0.0
C159 C 0.24226 0.45964 0.12117 0.0
C160 C 0.26739 0.4726 0.11186 0.0
C161 C 0.26733 0.4827 0.0938 0.0
C162 C 0.24202 0.47935 0.0848 0.0
N163 N 0.29296 0.49912 0.08536 0.0
C164 C 0.31206 0.49016 0.08125 0.0
H165 H 0.39889 0.898 0.25017 0.0
H166 H 0.48993 0.93335 0.25565 0.0
H167 H 0.44373 0.9039 0.3048 0.0
C168 C 0.41855 0.90369 0.25877 0.0
C169 C 0.4179 0.89859 0.27833 0.0
C170 C 0.44441 0.91638 0.25033 0.0
C171 C 0.46975 0.92368 0.26177 0.0
C172 C 0.46932 0.91899 0.28131 0.0
C173 C 0.44357 0.90672 0.28954 0.0
N174 N 0.49499 0.92861 0.2932 0.0
C175 C 0.5093 0.91358 0.2933 0.0
H176 H 0.09832 0.4894 0.25886 0.0
H177 H 0.05424 0.53608 0.25375 0.0
H178 H 0.08625 0.52964 0.30957 0.0
C179 C 0.09026 0.50202 0.26546 0.0
C180 C 0.09421 0.5082 0.28572 0.0
C181 C 0.07578 0.51185 0.25368 0.0
C182 C 0.06517 0.52793 0.26244 0.0
C183 C 0.06937 0.53464 0.2824 0.0
C184 C 0.08394 0.52495 0.29404 0.0
N185 N 0.05779 0.55035 0.29062 0.0
C186 C 0.07506 0.57699 0.30037 0.0
H187 H 0.50949 0.57856 0.24907 0.0
H188 H 0.44103 0.49626 0.25803 0.0
H189 H 0.47664 0.56266 0.30452 0.0
C190 C 0.49396 0.56461 0.25814 0.0
C191 C 0.49508 0.57436 0.2775 0.0
C192 C 0.47466 0.53646 0.25086 0.0
C193 C 0.45557 0.51828 0.2631 0.0
C194 C 0.45566 0.52779 0.2822 0.0
C195 C 0.47526 0.55594 0.28937 0.0
N196 N 0.44018 0.50731 0.29485 0.0
C197 C 0.41841 0.5065 0.30471 0.0
Eu198 Eu 0.49609 0.99877 0.99538 0.0
Eu199 Eu 0.50628 0.02673 0.04059 0.0
C200 C 0.47977 0.04558 0.00767 0.0
C201 C 0.49198 0.99671 0.94083 0.0
C202 C 0.50493 0.0263 0.94206 0.0
C203 C 0.48488 0.99489 0.90588 0.0
C204 C 0.50785 0.04009 0.92533 0.0
C205 C 0.48201 0.98111 0.92265 0.0
C206 C 0.49778 0.02457 0.90699 0.0
C207 C 0.48873 0.98216 0.95847 0.0
O208 O 0.46072 0.99038 0.0353 0.0
O209 O 0.46428 0.96297 0.01075 0.0
C210 C 0.45108 0.96581 0.02513 0.0
O211 O 0.52082 0.98165 0.01149 0.0
O212 O 0.49057 0.04222 0.0636 0.0
O213 O 0.52987 0.04179 0.06919 0.0
O214 O 0.51288 0.98984 0.04267 0.0
C215 C 0.52186 0.97823 0.03004 0.0
O216 O 0.53392 0.04282 0.9967 0.0
O217 O 0.54904 0.05139 0.02912 0.0
O218 O 0.49992 0.0555 0.02195 0.0
O219 O 0.51215 0.99004 0.96949 0.0
O220 O 0.4682 0.97953 0.96845 0.0
O221 O 0.47016 0.02037 0.99864 0.0
C222 C 0.49886 0.02839 0.09341 0.0
C223 C 0.48502 0.99875 0.09107 0.0
C224 C 0.49182 0.02681 0.12746 0.0
C225 C 0.47484 0.98322 0.10684 0.0
C226 C 0.5021 0.04235 0.11164 0.0
C227 C 0.47818 0.99703 0.12527 0.0
C228 C 0.50987 0.04442 0.07674 0.0
C229 C 0.55368 0.05701 0.01115 0.0
H230 H 0.51282 0.03874 0.95599 0.0
H231 H 0.47657 0.98222 0.89206 0.0
H232 H 0.51827 0.06296 0.92676 0.0
H233 H 0.47187 0.95825 0.92142 0.0
H234 H 0.4823 0.98761 0.07705 0.0
H235 H 0.49437 0.03812 0.14136 0.0
H236 H 0.46484 0.9604 0.10462 0.0
H237 H 0.51259 0.06522 0.11364 0.0
Eu238 Eu 0.0366 0.48866 0.98271 0.0
Eu239 Eu 0.00776 0.48739 0.02276 0.0
C240 C 0.98319 0.43308 0.99304 0.0
C241 C 0.05048 0.48976 0.92967 0.0
C242 C 0.02563 0.49015 0.92374 0.0
C243 C 0.06213 0.49221 0.89654 0.0
C244 C 0.01894 0.49134 0.90426 0.0
C245 C 0.06873 0.49092 0.91601 0.0
C246 C 0.03709 0.49228 0.89043 0.0
C247 C 0.05697 0.48699 0.94989 0.0
O248 O 0.03558 0.46834 0.0281 0.0
O249 O 0.06776 0.4896 0.0062 0.0
C250 C 0.06043 0.47624 0.0218 0.0
O251 O 0.05274 0.5339 0.9936 0.0
O252 O 0.98374 0.46304 0.04552 0.0
O253 O 0.99846 0.50789 0.04671 0.0
O254 O 0.05048 0.52812 0.02576 0.0
C255 C 0.06126 0.54422 0.01173 0.0
O256 O 0.99702 0.49054 0.97339 0.0
O257 O 0.98916 0.50592 1.00254 0.0
O258 O 0.97557 0.44893 1.00285 0.0
O259 O 0.0673 0.50972 0.96192 0.0
O260 O 0.03752 0.46479 0.95699 0.0
O261 O 0.0097 0.44372 0.98941 0.0
C262 C 0.99941 0.48872 0.07609 0.0
C263 C 0.02866 0.50642 0.08149 0.0
C264 C 0.9933 0.47414 0.10853 0.0
C265 C 0.04014 0.50806 0.1003 0.0
C266 C 0.98181 0.47267 0.08973 0.0
C267 C 0.02264 0.49176 0.11404 0.0
C268 C 0.98746 0.48533 0.05599 0.0
C269 C 0.98443 0.50126 0.98361 0.0
H270 H 0.01129 0.48926 0.93415 0.0
H271 H 0.07636 0.49257 0.88622 0.0
H272 H 0.99968 0.49171 0.90005 0.0
H273 H 0.08792 0.49047 0.92036 0.0
H274 H 0.04271 0.51877 0.0711 0.0
H275 H 0.97925 0.46097 0.11862 0.0
H276 H 0.06272 0.52218 0.10409 0.0
H277 H 0.95925 0.45861 0.08574 0.0
Eu278 Eu 0.5397 0.51437 0.03033 0.0
Eu279 Eu 0.51144 0.51141 0.98629 0.0
C280 C 0.54553 0.56843 0.01365 0.0
C281 C 0.54557 0.51413 0.08493 0.0
C282 C 0.52344 0.51974 0.08774 0.0
C283 C 0.5447 0.50182 0.11794 0.0
C284 C 0.51236 0.51686 0.10561 0.0
C285 C 0.55594 0.50496 0.10012 0.0
C286 C 0.52296 0.50799 0.12095 0.0
C287 C 0.55845 0.51854 0.06648 0.0
O288 O 0.55809 0.52896 0.98407 0.0
O289 O 0.57193 0.51439 0.011 0.0
C290 C 0.57663 0.52472 0.99408 0.0
O291 O 0.51009 0.46865 0.0203 0.0
O292 O 0.50919 0.53368 0.96185 0.0
O293 O 0.48273 0.48817 0.96021 0.0
O294 O 0.51367 0.47142 0.98788 0.0
C295 C 0.5079 0.45678 1.00295 0.0
O296 O 0.49863 0.51442 0.03394 0.0
O297 O 0.4744 0.49303 1.00419 0.0
O298 O 0.52078 0.55211 1.00358 0.0
O299 O 0.5503 0.49611 0.05446 0.0
O300 O 0.56022 0.5397 0.05776 0.0
O301 O 0.56048 0.55749 0.02019 0.0
C302 C 0.49856 0.50848 0.93105 0.0
C303 C 0.52049 0.50307 0.92714 0.0
C304 C 0.49118 0.51273 0.89696 0.0
C305 C 0.52783 0.50268 0.9082 0.0
C306 C 0.48382 0.51301 0.91581 0.0
C307 C 0.51351 0.50792 0.89292 0.0
C308 C 0.49143 0.5106 0.95093 0.0
C309 C 0.47473 0.50052 0.02249 0.0
H310 H 0.51489 0.52663 0.07617 0.0
H311 H 0.55348 0.49518 0.12952 0.0
H312 H 0.49541 0.52143 0.10741 0.0
H313 H 0.573 0.50054 0.09826 0.0
H314 H 0.5322 0.49964 0.93876 0.0
H315 H 0.47942 0.51642 0.88552 0.0
H316 H 0.54526 0.49913 0.90563 0.0
H317 H 0.4668 0.51716 0.91854 0.0
Eu318 Eu 0.17573 0.34573 0.33423 0.0
Eu319 Eu 0.18465 0.36782 0.38144 0.0
C320 C 0.16435 0.39562 0.34939 0.0
C321 C 0.18431 0.35029 0.28007 0.0
C322 C 0.21363 0.36577 0.2781 0.0
C323 C 0.17519 0.36512 0.24936 0.0
C324 C 0.22357 0.38062 0.26195 0.0
C325 C 0.16524 0.35011 0.26549 0.0
C326 C 0.20452 0.38056 0.24732 0.0
C327 C 0.17344 0.33393 0.29696 0.0
O328 O 0.13796 0.33582 0.37455 0.0
O329 O 0.13655 0.3118 0.34572 0.0
C330 C 0.12477 0.31431 0.36111 0.0
O331 O 0.19561 0.32353 0.34968 0.0
O332 O 0.17097 0.38143 0.40675 0.0
O333 O 0.20875 0.37783 0.40972 0.0
O334 O 0.18214 0.32568 0.37999 0.0
C335 C 0.19173 0.3151 0.3671 0.0
O336 O 0.21474 0.38878 0.33885 0.0
O337 O 0.22838 0.38973 0.37074 0.0
O338 O 0.18049 0.40064 0.3656 0.0
O339 O 0.19219 0.33426 0.30968 0.0
O340 O 0.15336 0.33568 0.30511 0.0
O341 O 0.15536 0.37252 0.33768 0.0
C342 C 0.17996 0.36481 0.43542 0.0
C343 C 0.16444 0.33513 0.43282 0.0
C344 C 0.17782 0.36289 0.47013 0.0
C345 C 0.15597 0.31944 0.44876 0.0
C346 C 0.18638 0.37858 0.45415 0.0
C347 C 0.16279 0.3331 0.46766 0.0
C348 C 0.19027 0.38135 0.41874 0.0
C349 C 0.23431 0.3987 0.35358 0.0
H350 H 0.22902 0.36636 0.28897 0.0
H351 H 0.15985 0.36485 0.23862 0.0
H352 H 0.24625 0.39181 0.26084 0.0
H353 H 0.14255 0.33836 0.26658 0.0
H354 H 0.15916 0.32409 0.41845 0.0
H355 H 0.18365 0.3741 0.48445 0.0
H356 H 0.14407 0.29657 0.44628 0.0
H357 H 0.19839 0.40146 0.45646 0.0
Eu358 Eu 0.68504 0.83012 0.32712 0.0
Eu359 Eu 0.65301 0.81707 0.36757 0.0
C360 C 0.63583 0.76804 0.33387 0.0
C361 C 0.69338 0.83758 0.2731 0.0
C362 C 0.69379 0.81868 0.25881 0.0
C363 C 0.67228 0.85353 0.24854 0.0
C364 C 0.68349 0.81714 0.2396 0.0
C365 C 0.68235 0.8549 0.26776 0.0
C366 C 0.67279 0.83469 0.23421 0.0
C367 C 0.70488 0.83926 0.2933 0.0
O368 O 0.68771 0.80632 0.37189 0.0
O369 O 0.71703 0.82825 0.34818 0.0
C370 C 0.71188 0.81556 0.36417 0.0
O371 O 0.70184 0.87246 0.34454 0.0
O372 O 0.63182 0.78825 0.38926 0.0
O373 O 0.63732 0.83033 0.39178 0.0
O374 O 0.69407 0.8581 0.37495 0.0
C375 C 0.70678 0.87794 0.36344 0.0
O376 O 0.64179 0.82495 0.32005 0.0
O377 O 0.63511 0.83891 0.34987 0.0
O378 O 0.62544 0.77923 0.34573 0.0
O379 O 0.70654 0.85899 0.30559 0.0
O380 O 0.69618 0.81546 0.3009 0.0
O381 O 0.66174 0.78314 0.32898 0.0
C382 C 0.6414 0.81138 0.42066 0.0
C383 C 0.66996 0.83127 0.42695 0.0
C384 C 0.63436 0.79697 0.45315 0.0
C385 C 0.68062 0.83401 0.44624 0.0
C386 C 0.62369 0.79439 0.43392 0.0
C387 C 0.663 0.81666 0.45952 0.0
C388 C 0.63018 0.80739 0.40024 0.0
C389 C 0.62957 0.83511 0.33099 0.0
H390 H 0.70227 0.80518 0.26248 0.0
H391 H 0.66385 0.86708 0.24492 0.0
H392 H 0.68445 0.8026 0.22889 0.0
H393 H 0.68154 0.86962 0.2784 0.0
H394 H 0.6841 0.84442 0.41688 0.0
H395 H 0.62017 0.7835 0.46305 0.0
H396 H 0.70283 0.84914 0.45063 0.0
H397 H 0.60163 0.7789 0.42934 0.0
Eu398 Eu 0.20179 0.8368 0.36846 0.0
Eu399 Eu 0.17593 0.83679 0.32447 0.0
C400 C 0.20156 0.89129 0.35497 0.0
C401 C 0.21821 0.8525 0.4216 0.0
C402 C 0.20191 0.86574 0.42038 0.0
C403 C 0.2229 0.86043 0.4565 0.0
C404 C 0.19571 0.87586 0.43706 0.0
C405 C 0.22897 0.85013 0.4397 0.0
C406 C 0.20584 0.87304 0.45534 0.0
C407 C 0.22185 0.83951 0.40391 0.0
O408 O 0.22327 0.85369 0.32441 0.0
O409 O 0.22876 0.82979 0.34848 0.0
C410 C 0.23736 0.84303 0.33307 0.0
O411 O 0.17236 0.79126 0.35788 0.0
O412 O 0.17781 0.86157 0.30063 0.0
O413 O 0.14934 0.81618 0.29721 0.0
O414 O 0.17296 0.79418 0.3252 0.0
C415 C 0.16787 0.77941 0.34019 0.0
O416 O 0.162 0.83827 0.37234 0.0
O417 O 0.13781 0.82061 0.34201 0.0
O418 O 0.18044 0.87503 0.34185 0.0
O419 O 0.19845 0.81792 0.39552 0.0
O420 O 0.23658 0.85701 0.39165 0.0
O421 O 0.21725 0.88221 0.36334 0.0
C422 C 0.17191 0.83832 0.2699 0.0
C423 C 0.18319 0.82067 0.2658 0.0
C424 C 0.18536 0.85801 0.23931 0.0
C425 C 0.1954 0.82166 0.24853 0.0
C426 C 0.17292 0.85681 0.25646 0.0
C427 C 0.19692 0.84062 0.23521 0.0
C428 C 0.16104 0.8394 0.28862 0.0
C429 C 0.13835 0.82683 0.36069 0.0
H430 H 0.19328 0.86746 0.40647 0.0
H431 H 0.2313 0.85826 0.47038 0.0
H432 H 0.18212 0.88497 0.4356 0.0
H433 H 0.24154 0.83986 0.44084 0.0
H434 H 0.18305 0.80651 0.27609 0.0
H435 H 0.18593 0.8726 0.22924 0.0
H436 H 0.20435 0.80818 0.24582 0.0
H437 H 0.16452 0.87073 0.2594 0.0
Eu438 Eu 0.83125 0.67666 0.65679 0.0
Eu439 Eu 0.84962 0.69359 0.70435 0.0
C440 C 0.82987 0.72811 0.67898 0.0
C441 C 0.83013 0.6763 0.60111 0.0
C442 C 0.81537 0.68294 0.58712 0.0
C443 C 0.86766 0.68839 0.57984 0.0
C444 C 0.82656 0.69224 0.5697 0.0
C445 C 0.8565 0.67924 0.59738 0.0
C446 C 0.85281 0.69502 0.56578 0.0
C447 C 0.81735 0.66644 0.6193 0.0
O448 O 0.802 0.67082 0.69964 0.0
O449 O 0.7941 0.64365 0.67106 0.0
C450 C 0.78535 0.64904 0.68712 0.0
O451 O 0.85545 0.65534 0.66586 0.0
O452 O 0.84256 0.70648 0.73283 0.0
O453 O 0.87581 0.69622 0.7302 0.0
O454 O 0.84328 0.65003 0.69678 0.0
C455 C 0.85204 0.6425 0.68161 0.0
O456 O 0.87523 0.71525 0.65945 0.0
O457 O 0.89094 0.71635 0.69118 0.0
O458 O 0.84947 0.73114 0.6924 0.0
O459 O 0.82571 0.65205 0.62936 0.0
O460 O 0.81398 0.68439 0.63022 0.0
O461 O 0.81452 0.70408 0.66815 0.0
C462 C 0.85092 0.68333 0.75784 0.0
C463 C 0.83551 0.65377 0.7539 0.0
C464 C 0.84655 0.67796 0.79212 0.0
C465 C 0.82566 0.63645 0.76894 0.0
C466 C 0.85645 0.69529 0.77704 0.0
C467 C 0.83086 0.64828 0.78826 0.0
C468 C 0.86107 0.70166 0.742 0.0
C469 C 0.89558 0.72489 0.67382 0.0
H470 H 0.79499 0.68082 0.58964 0.0
H471 H 0.88805 0.69055 0.57735 0.0
H472 H 0.81435 0.69676 0.55913 0.0
H473 H 0.86847 0.67448 0.60798 0.0
H474 H 0.83105 0.64409 0.73917 0.0
H475 H 0.85065 0.68787 0.80674 0.0
H476 H 0.81405 0.61372 0.7654 0.0
H477 H 0.86825 0.71806 0.78037 0.0
Eu478 Eu 0.34605 0.17547 0.6572 0.0
Eu479 Eu 0.32676 0.16285 0.70091 0.0
C480 C 0.2912 0.11762 0.6655 0.0
C481 C 0.34506 0.18003 0.60196 0.0
C482 C 0.34339 0.20203 0.59366 0.0
C483 C 0.32212 0.14995 0.57178 0.0
C484 C 0.33111 0.19801 0.57471 0.0
C485 C 0.33433 0.15394 0.59078 0.0
C486 C 0.32039 0.17196 0.56351 0.0
C487 C 0.3592 0.18512 0.62182 0.0
O488 O 0.35558 0.14455 0.69637 0.0
O489 O 0.38102 0.1717 0.67313 0.0
C490 C 0.37829 0.15533 0.68687 0.0
O491 O 0.37107 0.21743 0.6761 0.0
O492 O 0.30794 0.132 0.72178 0.0
O493 O 0.32014 0.17589 0.72929 0.0
O494 O 0.37006 0.20089 0.7057 0.0
C495 C 0.38046 0.22145 0.69455 0.0
O496 O 0.30577 0.17744 0.65756 0.0
O497 O 0.31033 0.19072 0.68989 0.0
O498 O 0.28949 0.13173 0.68058 0.0
O499 O 0.35709 0.2029 0.63391 0.0
O500 O 0.35718 0.16343 0.63003 0.0
O501 O 0.31429 0.12835 0.65641 0.0
C502 C 0.32599 0.15086 0.75388 0.0
C503 C 0.35521 0.16963 0.75871 0.0
C504 C 0.32374 0.13027 0.78404 0.0
C505 C 0.36852 0.16901 0.77629 0.0
C506 C 0.3104 0.13108 0.76656 0.0
C507 C 0.35287 0.14934 0.78912 0.0
C508 C 0.31166 0.15113 0.73548 0.0
C509 C 0.29946 0.18882 0.67212 0.0
H510 H 0.35187 0.22253 0.60176 0.0
H511 H 0.31384 0.12955 0.5636 0.0
H512 H 0.33055 0.21555 0.56871 0.0
H513 H 0.33548 0.13661 0.59665 0.0
H514 H 0.3677 0.18479 0.74894 0.0
H515 H 0.31112 0.11514 0.79378 0.0
H516 H 0.39104 0.18379 0.77984 0.0
H517 H 0.28788 0.11634 0.76297 0.0
Eu518 Eu 0.83818 0.18629 0.68503 0.0
Eu519 Eu 0.8212 0.19479 0.64039 0.0
C520 C 0.83961 0.24377 0.67449 0.0
C521 C 0.84137 0.18059 0.74005 0.0
C522 C 0.82604 0.19425 0.74431 0.0
C523 C 0.83848 0.16691 0.77277 0.0
C524 C 0.81698 0.19422 0.76276 0.0
C525 C 0.84763 0.16711 0.75444 0.0
C526 C 0.82283 0.18025 0.77715 0.0
C527 C 0.85006 0.179 0.72058 0.0
O528 O 0.869 0.21838 0.64586 0.0
O529 O 0.87468 0.19191 0.66807 0.0
C530 C 0.88459 0.20948 0.65469 0.0
O531 O 0.81451 0.1432 0.66817 0.0
O532 O 0.82758 0.22079 0.6165 0.0
O533 O 0.79714 0.17591 0.61209 0.0
O534 O 0.82813 0.15758 0.6387 0.0
C535 C 0.8183 0.13769 0.6504 0.0
O536 O 0.79607 0.18453 0.68594 0.0
O537 O 0.77942 0.17279 0.65368 0.0
O538 O 0.82186 0.23017 0.65895 0.0
O539 O 0.83094 0.15885 0.70813 0.0
O540 O 0.86433 0.20266 0.71286 0.0
O541 O 0.8524 0.23259 0.68416 0.0
C542 C 0.82458 0.19651 0.58613 0.0
C543 C 0.81013 0.17205 0.57297 0.0
C544 C 0.86424 0.21475 0.5663 0.0
C545 C 0.82278 0.16877 0.55683 0.0
C546 C 0.85166 0.21799 0.58243 0.0
C547 C 0.85017 0.18995 0.55341 0.0
C548 C 0.81174 0.19906 0.60384 0.0
C549 C 0.7752 0.17501 0.67198 0.0
H550 H 0.82079 0.2046 0.73333 0.0
H551 H 0.84372 0.15632 0.78356 0.0
H552 H 0.80481 0.20451 0.76563 0.0
H553 H 0.85941 0.15643 0.75143 0.0
H554 H 0.78919 0.15518 0.57535 0.0
H555 H 0.88509 0.23179 0.56394 0.0
H556 H 0.81136 0.14931 0.54733 0.0
H557 H 0.86338 0.23725 0.59211 0.0
H558 H 0.31694 0.88114 0.08446 0.0
H559 H 0.2963 0.80506 0.04801 0.0
H560 H 0.33823 0.83289 0.03062 0.0
H561 H 0.34151 0.92912 0.04885 0.0
H562 H 0.37011 0.9576 0.06461 0.0
H563 H 0.33872 0.93172 0.07444 0.0
H564 H 0.36976 0.92065 0.09797 0.0
H565 H 0.40128 0.94663 0.08829 0.0
H566 H 0.39396 0.91076 0.08848 0.0
H567 H 0.38212 0.86943 0.01663 0.0
H568 H 0.42498 0.91132 0.0078 0.0
H569 H 0.41788 0.96313 0.05419 0.0
C570 C 0.32139 0.87008 0.07307 0.0
C571 C 0.30302 0.84071 0.06768 0.0
C572 C 0.3096 0.82751 0.05232 0.0
C573 C 0.33355 0.84313 0.04241 0.0
C574 C 0.35099 0.87198 0.04806 0.0
C575 C 0.34534 0.88528 0.06315 0.0
C576 C 0.36742 0.91656 0.06635 0.0
C577 C 0.35361 0.93482 0.06338 0.0
C578 C 0.38408 0.92408 0.08646 0.0
C579 C 0.38615 0.91886 0.05051 0.0
C580 C 0.37635 0.89291 0.04015 0.0
C581 C 0.39001 0.88982 0.0247 0.0
C582 C 0.41435 0.91382 0.01977 0.0
C583 C 0.42489 0.94067 0.03022 0.0
C584 C 0.41045 0.94304 0.04582 0.0
H585 H 0.20943 0.5015 0.06973 0.0
H586 H 0.16177 0.42173 0.09448 0.0
H587 H 0.11725 0.41595 0.07881 0.0
H588 H 0.15915 0.52467 0.0729 0.0
H589 H 0.16485 0.5393 0.04997 0.0
H590 H 0.19313 0.53771 0.06351 0.0
H591 H 0.19762 0.50965 0.03406 0.0
H592 H 0.16935 0.51119 0.02042 0.0
H593 H 0.16669 0.47749 0.02328 0.0
H594 H 0.07761 0.41953 0.06149 0.0
H595 H 0.04581 0.43095 0.04223 0.0
H596 H 0.1191 0.50603 0.02618 0.0
C597 C 0.18978 0.48255 0.07171 0.0
C598 C 0.18942 0.4622 0.08361 0.0
C599 C 0.16287 0.43805 0.0859 0.0
C600 C 0.13737 0.4344 0.07689 0.0
C601 C 0.13861 0.45484 0.06533 0.0
C602 C 0.16413 0.4783 0.06255 0.0
C603 C 0.15954 0.49689 0.04913 0.0
C604 C 0.16977 0.52639 0.0595 0.0
C605 C 0.17417 0.49891 0.03063 0.0
C606 C 0.12741 0.48028 0.04491 0.0
C607 C 0.11578 0.45621 0.05456 0.0
C608 C 0.08649 0.43814 0.05371 0.0
C609 C 0.06861 0.44484 0.04276 0.0
C610 C 0.07999 0.46919 0.03255 0.0
C611 C 0.10983 0.487 0.03355 0.0
H612 H 0.53489 0.70244 0.0526 0.0
H613 H 0.62517 0.74345 0.0712 0.0
H614 H 0.62653 0.70226 0.05615 0.0
H615 H 0.51867 0.63227 0.06129 0.0
H616 H 0.49259 0.6153 0.0406 0.0
H617 H 0.49897 0.64838 0.0523 0.0
H618 H 0.50943 0.67027 0.01968 0.0
H619 H 0.50337 0.63731 0.00792 0.0
H620 H 0.53653 0.66947 0.0065 0.0
H621 H 0.61827 0.65717 0.03947 0.0
H622 H 0.60029 0.60872 0.02465 0.0
H623 H 0.51493 0.59602 0.01684 0.0
C624 C 0.55495 0.70274 0.05341 0.0
C625 C 0.57998 0.72611 0.06302 0.0
C626 C 0.60575 0.72565 0.06405 0.0
C627 C 0.60676 0.70249 0.0554 0.0
C628 C 0.58179 0.67995 0.04586 0.0
C629 C 0.55629 0.67969 0.04497 0.0
C630 C 0.53233 0.65222 0.03453 0.0
C631 C 0.50929 0.63609 0.04799 0.0
C632 C 0.51968 0.65766 0.01606 0.0
C633 C 0.54835 0.63698 0.0298 0.0
C634 C 0.5769 0.65357 0.03633 0.0
C635 C 0.59599 0.644 0.03426 0.0
C636 C 0.58553 0.61643 0.02581 0.0
C637 C 0.55621 0.59863 0.01956 0.0
C638 C 0.53749 0.60929 0.02121 0.0
H639 H 0.82917 0.29566 0.96198 0.0
H640 H 0.87335 0.2609 0.931 0.0
H641 H 0.91936 0.30303 0.94303 0.0
H642 H 0.87517 0.36782 0.95243 0.0
H643 H 0.87403 0.38307 0.97573 0.0
H644 H 0.8444 0.34961 0.96545 0.0
H645 H 0.84817 0.32666 0.99614 0.0
H646 H 0.87789 0.36005 0.00649 0.0
H647 H 0.88148 0.32908 1.00408 0.0
H648 H 0.9602 0.34827 0.95788 0.0
H649 H 0.99422 0.39588 0.97331 0.0
H650 H 0.92463 0.40345 0.99441 0.0
C651 C 0.8486 0.29698 0.95786 0.0
C652 C 0.84777 0.2751 0.9455 0.0
C653 C 0.87354 0.27756 0.94026 0.0
C654 C 0.89977 0.30131 0.94713 0.0
C655 C 0.89992 0.32257 0.95916 0.0
C656 C 0.87511 0.32084 0.96442 0.0
C657 C 0.8815 0.34741 0.97691 0.0
C658 C 0.86797 0.36289 0.96704 0.0
C659 C 0.87168 0.34037 0.99711 0.0
C660 C 0.91376 0.36426 0.97778 0.0
C661 C 0.9238 0.34929 0.96755 0.0
C662 C 0.95264 0.36023 0.96595 0.0
C663 C 0.97182 0.38739 0.97481 0.0
C664 C 0.96221 0.40356 0.98512 0.0
C665 C 0.93271 0.39163 0.98674 0.0
H666 H 0.71178 0.51742 0.96098 0.0
H667 H 0.73101 0.59117 0.93078 0.0
H668 H 0.69055 0.59256 0.94355 0.0
H669 H 0.63614 0.4846 0.95356 0.0
H670 H 0.62999 0.47187 0.97708 0.0
H671 H 0.66102 0.47687 0.96607 0.0
H672 H 0.69324 0.50983 0.99614 0.0
H673 H 0.66228 0.50496 0.00724 0.0
H674 H 0.69042 0.54011 1.0042 0.0
H675 H 0.64749 0.58526 0.95809 0.0
H676 H 0.60363 0.56975 0.97384 0.0
H677 H 0.61191 0.50154 0.99616 0.0
C678 C 0.70767 0.53405 0.95723 0.0
C679 C 0.72456 0.55407 0.9447 0.0
C680 C 0.71817 0.57527 0.94001 0.0
C681 C 0.69536 0.5764 0.94734 0.0
C682 C 0.6791 0.55631 0.9595 0.0
C683 C 0.6849 0.53555 0.9645 0.0
C684 C 0.66347 0.51619 0.97753 0.0
C685 C 0.64666 0.48557 0.96798 0.0
C686 C 0.67824 0.51789 0.99746 0.0
C687 C 0.64459 0.5292 0.97886 0.0
C688 C 0.65418 0.55235 0.96832 0.0
C689 C 0.63988 0.56731 0.96651 0.0
C690 C 0.61491 0.55825 0.97548 0.0
C691 C 0.60439 0.5345 0.98628 0.0
C692 C 0.61969 0.52001 0.98824 0.0
H693 H 0.47398 0.17832 0.97261 0.0
H694 H 0.38258 0.12953 0.97324 0.0
H695 H 0.38698 0.09154 0.98777 0.0
H696 H 0.48471 0.12366 0.95921 0.0
H697 H 0.51737 0.13568 0.9744 0.0
H698 H 0.50778 0.16085 0.96667 0.0
H699 H 0.51133 0.17982 1.00223 0.0
H700 H 0.52156 0.15509 0.01011 0.0
H701 H 0.49153 0.15551 0.01927 0.0
H702 H 0.40053 0.05579 0.99619 0.0
H703 H 0.42326 0.02745 1.00356 0.0
H704 H 0.50627 0.10082 1.00045 0.0
C705 C 0.45513 0.16012 0.97661 0.0
C706 C 0.428 0.15683 0.97226 0.0
C707 C 0.40353 0.13248 0.97697 0.0
C708 C 0.40584 0.1108 0.98507 0.0
C709 C 0.43283 0.11415 0.98863 0.0
C710 C 0.45715 0.13853 0.98508 0.0
C711 C 0.48344 0.13621 0.98944 0.0
C712 C 0.49924 0.13928 0.97135 0.0
C713 C 0.50312 0.15795 0.00627 0.0
C714 C 0.46999 0.10635 0.99523 0.0
C715 C 0.44075 0.09392 0.99452 0.0
C716 C 0.42345 0.06551 0.99734 0.0
C717 C 0.43645 0.04954 1.00132 0.0
C718 C 0.46636 0.06221 1.00276 0.0
C719 C 0.48333 0.09094 0.99978 0.0
H720 H 0.68336 0.13695 0.94729 0.0
H721 H 0.73089 0.1939 0.99849 0.0
H722 H 0.68821 0.17085 0.01621 0.0
H723 H 0.614 0.13267 0.95496 0.0
H724 H 0.59373 0.09577 0.94595 0.0
H725 H 0.62711 0.11866 0.93678 0.0
H726 H 0.64534 0.08489 0.94599 0.0
H727 H 0.61217 0.0621 0.95534 0.0
H728 H 0.64515 0.0762 0.97057 0.0
H729 H 0.64224 0.13817 0.02936 0.0
H730 H 0.59498 0.10042 0.03637 0.0
H731 H 0.57635 0.06551 0.97633 0.0
C732 C 0.68438 0.145 0.96205 0.0
C733 C 0.71008 0.16741 0.97155 0.0
C734 C 0.71112 0.17702 0.99098 0.0
C735 C 0.68705 0.164 1.00114 0.0
C736 C 0.66205 0.14151 0.99158 0.0
C737 C 0.66038 0.13233 0.97237 0.0
C738 C 0.63128 0.10691 0.9658 0.0
C739 C 0.6156 0.11393 0.94993 0.0
C740 C 0.63365 0.081 0.95903 0.0
C741 C 0.61723 0.10278 0.98442 0.0
C742 C 0.63532 0.12298 0.9991 0.0
C743 C 0.6277 0.12251 0.01789 0.0
C744 C 0.60086 0.10089 0.02177 0.0
C745 C 0.58183 0.08011 0.00691 0.0
C746 C 0.5902 0.0813 0.98797 0.0
H747 H 0.8677 0.54854 0.97966 0.0
H748 H 0.8502 0.52273 0.9182 0.0
H749 H 0.88938 0.5117 0.91978 0.0
H750 H 0.94511 0.58033 0.98268 0.0
H751 H 0.94686 0.56778 0.00579 0.0
H752 H 0.91917 0.57551 0.99918 0.0
H753 H 0.88113 0.52474 0.00538 0.0
H754 H 0.90866 0.51681 0.01189 0.0
H755 H 0.88089 0.49485 0.99293 0.0
H756 H 0.92928 0.50108 0.92906 0.0
H757 H 0.96554 0.49201 0.94478 0.0
H758 H 0.95561 0.52468 1.0002 0.0
C759 C 0.87255 0.54106 0.96648 0.0
C760 C 0.85645 0.53677 0.94877 0.0
C761 C 0.86273 0.52643 0.93185 0.0
C762 C 0.88485 0.5201 0.93265 0.0
C763 C 0.90026 0.52425 0.9505 0.0
C764 C 0.89437 0.53462 0.96708 0.0
C765 C 0.91293 0.53602 0.98464 0.0
C766 C 0.93216 0.56674 0.99359 0.0
C767 C 0.89482 0.51697 0.99958 0.0
C768 C 0.93004 0.52451 0.97548 0.0
C769 C 0.92265 0.51795 0.95578 0.0
C770 C 0.9353 0.50633 0.94446 0.0
C771 C 0.95589 0.50123 0.95353 0.0
C772 C 0.96355 0.50762 0.97376 0.0
C773 C 0.95043 0.51957 0.98472 0.0
H774 H 0.43136 0.30015 0.94921 0.0
H775 H 0.43944 0.27138 1.0046 0.0
H776 H 0.46686 0.32113 0.01929 0.0
H777 H 0.50212 0.36471 0.95435 0.0
H778 H 0.4892 0.38511 0.94246 0.0
H779 H 0.47221 0.34749 0.93608 0.0
H780 H 0.42376 0.34195 0.9435 0.0
H781 H 0.44061 0.37948 0.94995 0.0
H782 H 0.42051 0.35521 0.96691 0.0
H783 H 0.48984 0.37313 0.02825 0.0
H784 H 0.508 0.42444 0.03118 0.0
H785 H 0.4858 0.42002 0.96969 0.0
C786 C 0.43938 0.30453 0.96436 0.0
C787 C 0.4337 0.28236 0.9759 0.0
C788 C 0.44393 0.28839 0.99565 0.0
C789 C 0.45947 0.31647 1.00405 0.0
C790 C 0.46455 0.33804 0.99236 0.0
C791 C 0.45497 0.33245 0.97292 0.0
C792 C 0.46225 0.35945 0.96381 0.0
C793 C 0.48266 0.36448 0.94825 0.0
C794 C 0.43517 0.35898 0.95557 0.0
C795 C 0.47689 0.38104 0.98126 0.0
C796 C 0.47807 0.36821 0.99753 0.0
C797 C 0.48932 0.38347 0.01558 0.0
C798 C 0.49948 0.41261 0.01709 0.0
C799 C 0.4984 0.42626 1.00065 0.0
C800 C 0.48724 0.41024 0.98246 0.0
H801 H 0.15463 0.69578 0.07324 0.0
H802 H 0.19732 0.72647 0.02204 0.0
H803 H 0.17008 0.67797 0.00522 0.0
H804 H 0.15017 0.62578 0.06823 0.0
H805 H 0.11549 0.60786 0.07682 0.0
H806 H 0.14013 0.64437 0.08531 0.0
H807 H 0.1024 0.65758 0.07418 0.0
H808 H 0.07777 0.6212 0.0655 0.0
H809 H 0.08697 0.64842 0.04939 0.0
H810 H 0.13536 0.62762 0.99317 0.0
H811 H 0.09734 0.57781 0.98687 0.0
H812 H 0.07721 0.57865 0.04617 0.0
C813 C 0.15864 0.692 0.05865 0.0
C814 C 0.17824 0.7145 0.0489 0.0
C815 C 0.18263 0.70924 0.02972 0.0
C816 C 0.16721 0.68184 0.02009 0.0
C817 C 0.14761 0.66005 0.02993 0.0
C818 C 0.14346 0.6647 0.04886 0.0
C819 C 0.12022 0.63776 0.0558 0.0
C820 C 0.13222 0.62839 0.07253 0.0
C821 C 0.09537 0.64148 0.06155 0.0
C822 C 0.11153 0.61739 0.0377 0.0
C823 C 0.12767 0.63076 0.02299 0.0
C824 C 0.12283 0.61685 0.00463 0.0
C825 C 0.10102 0.58854 1.00119 0.0
C826 C 0.08426 0.57421 0.01602 0.0
C827 C 0.08979 0.58889 0.03457 0.0
H828 H 0.36954 0.51869 0.08984 0.0
H829 H 0.29994 0.448 0.054 0.0
H830 H 0.33439 0.44106 0.03629 0.0
H831 H 0.41397 0.54735 0.05356 0.0
H832 H 0.44693 0.55779 0.0679 0.0
H833 H 0.41716 0.5553 0.07936 0.0
H834 H 0.41939 0.52039 0.10201 0.0
H835 H 0.44944 0.52307 0.09074 0.0
H836 H 0.41835 0.48891 0.09172 0.0
H837 H 0.37587 0.44549 0.02004 0.0
H838 H 0.42187 0.45839 0.00776 0.0
H839 H 0.46546 0.52537 0.05473 0.0
C840 C 0.36171 0.50123 0.07866 0.0
C841 C 0.33222 0.48347 0.0734 0.0
C842 C 0.3225 0.4614 0.05838 0.0
C843 C 0.3419 0.4574 0.04822 0.0
C844 C 0.37093 0.47562 0.0534 0.0
C845 C 0.38088 0.49685 0.06846 0.0
C846 C 0.41316 0.51435 0.07039 0.0
C847 C 0.42339 0.54554 0.06763 0.0
C848 C 0.42583 0.5115 0.08987 0.0
C849 C 0.41972 0.50015 0.05374 0.0
C850 C 0.39502 0.47785 0.04417 0.0
C851 C 0.39538 0.46261 0.0276 0.0
C852 C 0.42163 0.47022 0.02067 0.0
C853 C 0.44731 0.49279 0.03031 0.0
C854 C 0.44625 0.50777 0.04718 0.0
H855 H 0.54968 0.84816 0.0259 0.0
H856 H 0.56468 0.8615 0.08834 0.0
H857 H 0.56107 0.90489 0.08782 0.0
H858 H 0.58825 0.92367 0.01694 0.0
H859 H 0.56286 0.91837 0.99703 0.0
H860 H 0.56942 0.89017 1.0023 0.0
H861 H 0.51563 0.85704 0.00477 0.0
H862 H 0.50893 0.88511 0.99959 0.0
H863 H 0.49774 0.86781 0.02126 0.0
H864 H 0.55184 0.94393 0.08055 0.0
H865 H 0.53794 0.97652 0.06748 0.0
H866 H 0.52899 0.93805 0.00934 0.0
C867 C 0.55273 0.86063 0.03939 0.0
C868 C 0.55769 0.85201 0.05717 0.0
C869 C 0.56112 0.8682 0.07463 0.0
C870 C 0.55912 0.89277 0.07443 0.0
C871 C 0.55384 0.90066 0.05662 0.0
C872 C 0.55083 0.88516 0.0394 0.0
C873 C 0.54366 0.89729 0.02234 0.0
C874 C 0.56747 0.90802 0.00886 0.0
C875 C 0.51477 0.87551 0.01136 0.0
C876 C 0.54231 0.92159 0.03268 0.0
C877 C 0.54851 0.92326 0.05242 0.0
C878 C 0.54726 0.94303 0.06512 0.0
C879 C 0.53921 0.96139 0.05751 0.0
C880 C 0.5324 0.95991 0.03734 0.0
C881 C 0.5344 0.93996 0.02477 0.0
H882 H 0.99568 0.21201 0.41915 0.0
H883 H 0.9432 0.18149 0.36409 0.0
H884 H 0.98421 0.21402 0.34776 0.0
H885 H 0.03518 0.28624 0.40869 0.0
H886 H 0.06795 0.29255 0.42137 0.0
H887 H 0.03434 0.26677 0.42888 0.0
H888 H 0.04916 0.22869 0.42526 0.0
H889 H 0.08267 0.25432 0.41757 0.0
H890 H 0.05973 0.22183 0.40248 0.0
H891 H 0.03171 0.24707 0.33684 0.0
H892 H 0.08135 0.283 0.33276 0.0
H893 H 0.10203 0.29563 0.39493 0.0
C894 C 0.99259 0.21245 0.40372 0.0
C895 C 0.96612 0.19357 0.39294 0.0
C896 C 0.96332 0.19495 0.3727 0.0
C897 C 0.98649 0.21356 0.36324 0.0
C898 C 0.01234 0.23124 0.3742 0.0
C899 C 0.01543 0.23131 0.39403 0.0
C900 C 0.04554 0.25292 0.40238 0.0
C901 C 0.04575 0.27599 0.41614 0.0
C902 C 0.06013 0.23857 0.41252 0.0
C903 C 0.05887 0.26462 0.3841 0.0
C904 C 0.03941 0.25159 0.36799 0.0
C905 C 0.04706 0.25774 0.34937 0.0
C906 C 0.07529 0.27803 0.34717 0.0
C907 C 0.09536 0.29222 0.36351 0.0
C908 C 0.08697 0.28538 0.3822 0.0
H909 H 0.83542 0.77786 0.37981 0.0
H910 H 0.83857 0.79961 0.44126 0.0
H911 H 0.8004 0.81037 0.43459 0.0
H912 H 0.8256 0.835 0.36462 0.0
H913 H 0.80246 0.81441 0.34324 0.0
H914 H 0.82934 0.80708 0.35277 0.0
H915 H 0.79076 0.75486 0.35471 0.0
H916 H 0.76377 0.76202 0.34522 0.0
H917 H 0.76067 0.74706 0.36794 0.0
H918 H 0.76078 0.81713 0.42167 0.0
H919 H 0.72427 0.82266 0.40294 0.0
H920 H 0.74979 0.80166 0.34959 0.0
C921 C 0.82844 0.78519 0.39191 0.0
C922 C 0.84 0.78739 0.41115 0.0
C923 C 0.8297 0.79681 0.42645 0.0
C924 C 0.80815 0.80331 0.4228 0.0
C925 C 0.79731 0.80084 0.40375 0.0
C926 C 0.80729 0.79235 0.38852 0.0
C927 C 0.79242 0.79221 0.36934 0.0
C928 C 0.81373 0.81344 0.35675 0.0
C929 C 0.77592 0.76226 0.35868 0.0
C930 C 0.77238 0.80176 0.37622 0.0
C931 C 0.77542 0.80632 0.39616 0.0
C932 C 0.75841 0.81393 0.40605 0.0
C933 C 0.73769 0.81692 0.3953 0.0
C934 C 0.73443 0.81278 0.37486 0.0
C935 C 0.75218 0.80535 0.36519 0.0
H936 H 0.24698 0.05491 0.36999 0.0
H937 H 0.20555 0.03586 0.42287 0.0
H938 H 0.19218 0.98591 0.4163 0.0
H939 H 0.19478 0.98958 0.34148 0.0
H940 H 0.22086 0.98633 0.32857 0.0
H941 H 0.22729 0.02081 0.3373 0.0
H942 H 0.27484 0.0318 0.35588 0.0
H943 H 0.26855 0.99736 0.34723 0.0
H944 H 0.27485 0.0081 0.37281 0.0
H945 H 0.18373 0.93845 0.40456 0.0
H946 H 0.18043 0.89573 0.38794 0.0
H947 H 0.22628 0.94433 0.34224 0.0
C948 C 0.23489 0.04018 0.38009 0.0
C949 C 0.22757 0.04943 0.39706 0.0
C950 C 0.21193 0.02947 0.40999 0.0
C951 C 0.20403 1.00098 0.40631 0.0
C952 C 0.21175 0.99264 0.38958 0.0
C953 C 0.22674 0.01154 0.37662 0.0
C954 C 0.23245 0.99688 0.35978 0.0
C955 C 0.21798 0.9985 0.34065 0.0
C956 C 0.26458 0.00928 0.35888 0.0
C957 C 0.21845 0.96684 0.36539 0.0
C958 C 0.20664 0.96497 0.38265 0.0
C959 C 0.19286 0.93963 0.39104 0.0
C960 C 0.19119 0.91555 0.38158 0.0
C961 C 0.20324 0.917 0.364 0.0
C962 C 0.21687 0.94285 0.35569 0.0
H963 H 0.49514 0.61712 0.30104 0.0
H964 H 0.55073 0.59419 0.27284 0.0
H965 H 0.59209 0.64024 0.28515 0.0
H966 H 0.53174 0.69006 0.29175 0.0
H967 H 0.52724 0.70336 0.31473 0.0
H968 H 0.5016 0.66803 0.30439 0.0
H969 H 0.50934 0.64796 0.33548 0.0
H970 H 0.53502 0.68325 0.34592 0.0
H971 H 0.54476 0.65629 0.34413 0.0
H972 H 0.62715 0.68846 0.29917 0.0
H973 H 0.65479 0.73726 0.31441 0.0
H974 H 0.57791 0.73079 0.33435 0.0
C975 C 0.51607 0.62181 0.29761 0.0
C976 C 0.51963 0.60216 0.28574 0.0
C977 C 0.54736 0.60907 0.28155 0.0
C978 C 0.57106 0.63512 0.2886 0.0
C979 C 0.56686 0.65415 0.29996 0.0
C980 C 0.54017 0.64797 0.30453 0.0
C981 C 0.54191 0.67284 0.31669 0.0
C982 C 0.52459 0.68424 0.30626 0.0
C983 C 0.53218 0.66459 0.33675 0.0
C984 C 0.57366 0.6939 0.31802 0.0
C985 C 0.5875 0.68245 0.30828 0.0
C986 C 0.61663 0.69768 0.30693 0.0
C987 C 0.63214 0.72549 0.31564 0.0
C988 C 0.61862 0.738 0.32564 0.0
C989 C 0.58894 0.72181 0.32695 0.0
H990 H 0.37335 0.90886 0.2734 0.0
H991 H 0.40076 0.85786 0.30341 0.0
H992 H 0.35668 0.83693 0.31954 0.0
H993 H 0.34235 0.92399 0.31193 0.0
H994 H 0.31274 0.92151 0.29715 0.0
H995 H 0.34572 0.93152 0.28706 0.0
H996 H 0.31908 0.8904 0.25981 0.0
H997 H 0.28596 0.88031 0.26978 0.0
H998 H 0.29736 0.85481 0.26602 0.0
H999 H 0.31132 0.82335 0.33361 0.0
H1000 H 0.26676 0.81727 0.34463 0.0
H1001 H 0.26758 0.8761 0.30505 0.0
C1002 C 0.36985 0.89292 0.28311 0.0
C1003 C 0.39059 0.88507 0.2872 0.0
C1004 C 0.38539 0.86451 0.30026 0.0
C1005 C 0.36033 0.85234 0.30938 0.0
C1006 C 0.34053 0.86078 0.30521 0.0
C1007 C 0.34485 0.88046 0.29231 0.0
C1008 C 0.32046 0.88641 0.2909 0.0
C1009 C 0.33095 0.91771 0.29714 0.0
C1010 C 0.30479 0.87744 0.27041 0.0
C1011 C 0.30206 0.86738 0.3053 0.0
C1012 C 0.31403 0.85271 0.31328 0.0
C1013 C 0.30161 0.83454 0.32738 0.0
C1014 C 0.27631 0.83133 0.33359 0.0
C1015 C 0.26363 0.84622 0.32573 0.0
C1016 C 0.27664 0.8643 0.31126 0.0
H1017 H 0.08812 0.45525 0.28121 0.0
H1018 H 0.13168 0.53417 0.31851 0.0
H1019 H 0.15355 0.5138 0.33951 0.0
H1020 H 0.07354 0.40872 0.31807 0.0
H1021 H 0.07984 0.38413 0.30397 0.0
H1022 H 0.06745 0.4049 0.29208 0.0
H1023 H 0.11055 0.42428 0.27181 0.0
H1024 H 0.12296 0.40344 0.28356 0.0
H1025 H 0.14606 0.44112 0.28396 0.0
H1026 H 0.17071 0.48428 0.3565 0.0
H1027 H 0.18259 0.44881 0.36733 0.0
H1028 H 0.12849 0.39023 0.31813 0.0
C1029 C 0.10253 0.46847 0.29363 0.0
C1030 C 0.10813 0.49637 0.29816 0.0
C1031 C 0.12673 0.51263 0.31484 0.0
C1032 C 0.13938 0.50128 0.32681 0.0
C1033 C 0.1333 0.47368 0.3219 0.0
C1034 C 0.11541 0.45757 0.30565 0.0
C1035 C 0.11246 0.42857 0.30341 0.0
C1036 C 0.08148 0.40521 0.30445 0.0
C1037 C 0.12369 0.42411 0.28457 0.0
C1038 C 0.13149 0.43083 0.32095 0.0
C1039 C 0.14328 0.45694 0.33151 0.0
C1040 C 0.16159 0.46378 0.34832 0.0
C1041 C 0.16816 0.44347 0.35439 0.0
C1042 C 0.15651 0.41669 0.34362 0.0
C1043 C 0.13783 0.41044 0.32674 0.0
H1044 H 0.36344 0.47714 0.28993 0.0
H1045 H 0.41859 0.51716 0.34307 0.0
H1046 H 0.3766 0.49662 0.36175 0.0
H1047 H 0.30187 0.48351 0.30466 0.0
H1048 H 0.27647 0.44936 0.29232 0.0
H1049 H 0.31041 0.47039 0.28328 0.0
H1050 H 0.31968 0.42849 0.28474 0.0
H1051 H 0.28601 0.40762 0.29404 0.0
H1052 H 0.31822 0.41343 0.30728 0.0
H1053 H 0.32903 0.46674 0.37471 0.0
H1054 H 0.27967 0.43246 0.38073 0.0
H1055 H 0.25587 0.41273 0.31887 0.0
C1056 C 0.36644 0.48232 0.30544 0.0
C1057 C 0.39394 0.49913 0.31516 0.0
C1058 C 0.39747 0.50477 0.33546 0.0
C1059 C 0.37379 0.49311 0.34614 0.0
C1060 C 0.34683 0.47595 0.33621 0.0
C1061 C 0.34302 0.47088 0.31626 0.0
C1062 C 0.31217 0.45018 0.30914 0.0
C1063 C 0.29949 0.46421 0.29662 0.0
C1064 C 0.30885 0.42335 0.29816 0.0
C1065 C 0.29933 0.4439 0.32819 0.0
C1066 C 0.31957 0.45897 0.34365 0.0
C1067 C 0.31292 0.45519 0.36269 0.0
C1068 C 0.28486 0.43559 0.36599 0.0
C1069 C 0.26379 0.42006 0.35032 0.0
C1070 C 0.27129 0.42455 0.33121 0.0
H1071 H 0.53276 0.90671 0.32619 0.0
H1072 H 0.52129 0.88794 0.26402 0.0
H1073 H 0.54964 0.86395 0.26688 0.0
H1074 H 0.60457 0.92211 0.33304 0.0
H1075 H 0.60066 0.9063 0.35546 0.0
H1076 H 0.57861 0.9208 0.34844 0.0
H1077 H 0.53348 0.87266 0.35153 0.0
H1078 H 0.55542 0.85801 0.35857 0.0
H1079 H 0.52861 0.84108 0.33827 0.0
H1080 H 0.58064 0.84364 0.2767 0.0
H1081 H 0.61185 0.82843 0.29242 0.0
H1082 H 0.60275 0.86039 0.34842 0.0
C1083 C 0.53612 0.89732 0.31324 0.0
C1084 C 0.52499 0.89889 0.29489 0.0
C1085 C 0.52974 0.8867 0.27817 0.0
C1086 C 0.54575 0.87309 0.27969 0.0
C1087 C 0.55665 0.87193 0.29805 0.0
C1088 C 0.552 0.88368 0.31453 0.0
C1089 C 0.56657 0.88014 0.33248 0.0
C1090 C 0.58893 0.90906 0.34297 0.0
C1091 C 0.54471 0.86188 0.34601 0.0
C1092 C 0.58041 0.8648 0.32354 0.0
C1093 C 0.57436 0.86018 0.30368 0.0
C1094 C 0.58535 0.84699 0.29225 0.0
C1095 C 0.60309 0.83842 0.30134 0.0
C1096 C 0.60971 0.84307 0.32169 0.0
C1097 C 0.59798 0.85631 0.33286 0.0
H1098 H 0.09192 0.62483 0.28309 0.0
H1099 H 0.09513 0.5927 0.33799 0.0
H1100 H 0.12158 0.64177 0.35401 0.0
H1101 H 0.16254 0.68881 0.29111 0.0
H1102 H 0.15096 0.71015 0.2791 0.0
H1103 H 0.13394 0.67274 0.27187 0.0
H1104 H 0.085 0.66729 0.27766 0.0
H1105 H 0.10187 0.70462 0.28496 0.0
H1106 H 0.0801 0.67946 0.30092 0.0
H1107 H 0.14482 0.69354 0.36411 0.0
H1108 H 0.16433 0.74501 0.368 0.0
H1109 H 0.14648 0.74398 0.30626 0.0
C1110 C 0.0986 0.62833 0.29844 0.0
C1111 C 0.09187 0.60543 0.30946 0.0
C1112 C 0.10042 0.61029 0.32947 0.0
C1113 C 0.11538 0.63798 0.33861 0.0
C1114 C 0.12156 0.66029 0.32741 0.0
C1115 C 0.11358 0.65582 0.30775 0.0
C1116 C 0.12198 0.68343 0.29919 0.0
C1117 C 0.14365 0.68911 0.28445 0.0
C1118 C 0.09567 0.68371 0.29016 0.0
C1119 C 0.13551 0.70411 0.31718 0.0
C1120 C 0.13512 0.69028 0.33325 0.0
C1121 C 0.14546 0.70464 0.35162 0.0
C1122 C 0.15641 0.73391 0.35366 0.0
C1123 C 0.15698 0.7486 0.33743 0.0
C1124 C 0.14656 0.73343 0.31893 0.0
H1125 H 0.82618 0.04003 0.36275 0.0
H1126 H 0.83774 0.04585 0.42517 0.0
H1127 H 0.79779 0.99632 0.42444 0.0
H1128 H 0.74833 0.99538 0.35693 0.0
H1129 H 0.74835 0.97562 0.33536 0.0
H1130 H 0.77599 0.01197 0.34119 0.0
H1131 H 0.81411 0.99701 0.33944 0.0
H1132 H 0.78662 0.96064 0.33375 0.0
H1133 H 0.81271 0.97044 0.35419 0.0
H1134 H 0.75845 0.94509 0.41631 0.0
H1135 H 0.72296 0.89692 0.40194 0.0
H1136 H 0.73794 0.9251 0.34459 0.0
C1137 C 0.81983 0.03096 0.37626 0.0
C1138 C 0.83448 0.04652 0.39404 0.0
C1139 C 0.82631 0.03412 0.41146 0.0
C1140 C 0.80376 0.00609 0.41114 0.0
C1141 C 0.78985 0.99102 0.39326 0.0
C1142 C 0.79753 0.00313 0.37614 0.0
C1143 C 0.78029 0.98217 0.3588 0.0
C1144 C 0.76216 0.99187 0.3474 0.0
C1145 C 0.79958 0.97728 0.34579 0.0
C1146 C 0.7619 0.95616 0.36874 0.0
C1147 C 0.76758 0.96169 0.38861 0.0
C1148 C 0.75372 0.94063 0.40079 0.0
C1149 C 0.73359 0.91329 0.39245 0.0
C1150 C 0.72754 0.90713 0.37209 0.0
C1151 C 0.74191 0.92903 0.36018 0.0
H1152 H 0.97335 0.77861 0.36345 0.0
H1153 H 0.99231 0.80535 0.42481 0.0
H1154 H 0.04232 0.81727 0.42275 0.0
H1155 H 0.01998 0.74799 0.36054 0.0
H1156 H 0.03026 0.76005 0.33724 0.0
H1157 H 0.99573 0.75182 0.34393 0.0
H1158 H 1.00643 0.80199 0.33706 0.0
H1159 H 0.04107 0.81046 0.33053 0.0
H1160 H 0.03778 0.83249 0.34921 0.0
H1161 H 0.09043 0.82891 0.41353 0.0
H1162 H 0.1334 0.83797 0.39851 0.0
H1163 H 0.08351 0.80351 0.34264 0.0
C1164 C 0.98801 0.78644 0.37648 0.0
C1165 C 0.97924 0.7908 0.39436 0.0
C1166 C 0.99881 0.8016 0.41109 0.0
C1167 C 0.02716 0.80847 0.41 0.0
C1168 C 0.03538 0.80434 0.39206 0.0
C1169 C 0.01635 0.79337 0.37561 0.0
C1170 C 0.03089 0.79191 0.35802 0.0
C1171 C 0.01847 0.76111 0.34943 0.0
C1172 C 0.02892 0.81031 0.34281 0.0
C1173 C 0.06119 0.80418 0.36707 0.0
C1174 C 0.06322 0.81111 0.38672 0.0
C1175 C 0.08904 0.82335 0.39819 0.0
C1176 C 0.1134 0.82846 0.38943 0.0
C1177 C 0.11198 0.82139 0.36931 0.0
C1178 C 0.0854 0.80909 0.35803 0.0
H1179 H 0.23218 0.19377 0.35146 0.0
H1180 H 0.22175 0.18128 0.41191 0.0
H1181 H 0.21126 0.22036 0.41559 0.0
H1182 H 0.26562 0.2708 0.35715 0.0
H1183 H 0.24772 0.272 0.33493 0.0
H1184 H 0.25551 0.24392 0.33732 0.0
H1185 H 0.20222 0.20684 0.32833 0.0
H1186 H 0.19426 0.23479 0.32598 0.0
H1187 H 0.17591 0.20824 0.3421 0.0
H1188 H 0.20014 0.25921 0.41228 0.0
H1189 H 0.18999 0.29607 0.40271 0.0
H1190 H 0.20784 0.28375 0.34413 0.0
C1191 C 0.22798 0.19959 0.36548 0.0
C1192 C 0.2279 0.18494 0.38149 0.0
C1193 C 0.22205 0.19261 0.39959 0.0
C1194 C 0.21606 0.21467 0.40177 0.0
C1195 C 0.21607 0.22871 0.38568 0.0
C1196 C 0.22198 0.22158 0.36789 0.0
C1197 C 0.22 0.23963 0.35284 0.0
C1198 C 0.24893 0.25766 0.34511 0.0
C1199 C 0.19671 0.22128 0.33634 0.0
C1200 C 0.21179 0.25786 0.36488 0.0
C1201 C 0.20968 0.2512 0.38378 0.0
C1202 C 0.20187 0.26472 0.39756 0.0
C1203 C 0.19608 0.28563 0.39192 0.0
C1204 C 0.19814 0.29294 0.37263 0.0
C1205 C 0.20618 0.27881 0.35899 0.0
H1206 H 0.65895 0.51387 0.72543 0.0
H1207 H 0.62167 0.5659 0.73913 0.0
H1208 H 0.65985 0.60526 0.7243 0.0
H1209 H 0.73153 0.56848 0.73444 0.0
H1210 H 0.74312 0.55529 0.71477 0.0
H1211 H 0.71271 0.53123 0.72634 0.0
H1212 H 0.68226 0.51372 0.69316 0.0
H1213 H 0.71255 0.53799 0.68152 0.0
H1214 H 0.67995 0.53893 0.67873 0.0
H1215 H 0.70285 0.63943 0.70925 0.0
H1216 H 0.74891 0.66676 0.69587 0.0
H1217 H 0.75689 0.59194 0.69001 0.0
C1218 C 0.6586 0.53342 0.72515 0.0
C1219 C 0.63722 0.53672 0.73349 0.0
C1220 C 0.63797 0.56292 0.73312 0.0
C1221 C 0.65941 0.58532 0.72454 0.0
C1222 C 0.67986 0.58117 0.71626 0.0
C1223 C 0.6797 0.55592 0.71652 0.0
C1224 C 0.70459 0.55721 0.70702 0.0
C1225 C 0.72414 0.5528 0.72151 0.0
C1226 C 0.69421 0.53568 0.68904 0.0
C1227 C 0.71896 0.58727 0.70152 0.0
C1228 C 0.70426 0.60066 0.70697 0.0
C1229 C 0.71429 0.62906 0.70464 0.0
C1230 C 0.74036 0.64436 0.69699 0.0
C1231 C 0.75589 0.63117 0.69153 0.0
C1232 C 0.74484 0.60216 0.69348 0.0
H1233 H 0.46276 0.09579 0.74813 0.0
H1234 H 0.53783 0.15232 0.72094 0.0
H1235 H 0.50902 0.16656 0.70106 0.0
H1236 H 0.41107 0.07451 0.70693 0.0
H1237 H 0.38431 0.07491 0.72073 0.0
H1238 H 0.41032 0.06762 0.73194 0.0
H1239 H 0.42511 0.10867 0.75865 0.0
H1240 H 0.39908 0.11602 0.74757 0.0
H1241 H 0.43584 0.14362 0.7519 0.0
H1242 H 0.47215 0.17552 0.68451 0.0
H1243 H 0.43098 0.18028 0.67375 0.0
H1244 H 0.38057 0.12041 0.7133 0.0
C1245 C 0.47343 0.1114 0.73818 0.0
C1246 C 0.50285 0.12278 0.73622 0.0
C1247 C 0.51537 0.14272 0.72259 0.0
C1248 C 0.49917 0.15114 0.71128 0.0
C1249 C 0.47042 0.13969 0.71379 0.0
C1250 C 0.45771 0.1204 0.72701 0.0
C1251 C 0.42672 0.11218 0.72752 0.0
C1252 C 0.40694 0.08042 0.72141 0.0
C1253 C 0.42139 0.12063 0.7476 0.0
C1254 C 0.42398 0.12994 0.71253 0.0
C1255 C 0.44938 0.14545 0.70467 0.0
C1256 C 0.45217 0.16347 0.69058 0.0
C1257 C 0.42855 0.16596 0.68452 0.0
C1258 C 0.40236 0.15071 0.6926 0.0
C1259 C 0.40017 0.13234 0.70675 0.0
H1260 H 0.93002 0.39662 0.73233 0.0
H1261 H 0.86786 0.41693 0.70801 0.0
H1262 H 0.84054 0.36884 0.69084 0.0
H1263 H 0.92943 0.35504 0.6917 0.0
H1264 H 0.93257 0.32968 0.70547 0.0
H1265 H 0.94692 0.36551 0.71598 0.0
H1266 H 0.9169 0.34737 0.74485 0.0
H1267 H 0.90259 0.31145 0.7345 0.0
H1268 H 0.87894 0.32424 0.74032 0.0
H1269 H 0.82104 0.31862 0.67525 0.0
H1270 H 0.81002 0.27025 0.66392 0.0
H1271 H 0.88383 0.28286 0.70012 0.0
C1272 C 0.91036 0.39094 0.72376 0.0
C1273 C 0.90116 0.41075 0.72163 0.0
C1274 C 0.87564 0.40237 0.70975 0.0
C1275 C 0.85986 0.37502 0.70002 0.0
C1276 C 0.86971 0.35616 0.70241 0.0
C1277 C 0.89425 0.36374 0.71415 0.0
C1278 C 0.90044 0.33972 0.71432 0.0
C1279 C 0.92903 0.34799 0.70639 0.0
C1280 C 0.89966 0.33013 0.73471 0.0
C1281 C 0.87569 0.31744 0.70069 0.0
C1282 C 0.85821 0.32728 0.69389 0.0
C1283 C 0.83447 0.31064 0.68062 0.0
C1284 C 0.82843 0.28323 0.67421 0.0
C1285 C 0.84596 0.27268 0.68119 0.0
C1286 C 0.86982 0.29013 0.69464 0.0
H1287 H 0.20846 0.96124 0.61159 0.0
H1288 H 0.134 0.94783 0.63917 0.0
H1289 H 0.16214 0.99589 0.65656 0.0
H1290 H 0.26173 0.00372 0.65183 0.0
H1291 H 0.28703 0.02646 0.63628 0.0
H1292 H 0.26168 0.99023 0.62762 0.0
H1293 H 0.24441 0.00719 0.59853 0.0
H1294 H 0.26945 0.04347 0.6072 0.0
H1295 H 0.23213 0.03189 0.60287 0.0
H1296 H 0.19759 0.04637 0.66905 0.0
H1297 H 0.238 0.09467 0.67725 0.0
H1298 H 0.28888 0.07562 0.64025 0.0
C1299 C 0.19803 0.96831 0.62135 0.0
C1300 C 0.16893 0.95087 0.62394 0.0
C1301 C 0.15628 0.96075 0.63709 0.0
C1302 C 0.17205 0.98805 0.6469 0.0
C1303 C 0.20039 0.00503 0.6434 0.0
C1304 C 0.21331 0.99544 0.63105 0.0
C1305 C 0.24368 0.01813 0.62917 0.0
C1306 C 0.26477 0.00909 0.63668 0.0
C1307 C 0.24763 0.02561 0.6082 0.0
C1308 C 0.24585 0.04224 0.64226 0.0
C1309 C 0.22069 0.03418 0.65038 0.0
C1310 C 0.21742 0.05283 0.66287 0.0
C1311 C 0.24056 0.08028 0.66739 0.0
C1312 C 0.2667 0.08898 0.6594 0.0
C1313 C 0.2692 0.06969 0.64652 0.0
H1314 H 0.0203 0.19758 0.63001 0.0
H1315 H 0.05136 0.27755 0.60517 0.0
H1316 H 0.00934 0.27953 0.61421 0.0
H1317 H 0.94612 0.16973 0.61615 0.0
H1318 H 0.93482 0.15365 0.63821 0.0
H1319 H 0.96717 0.15819 0.62956 0.0
H1320 H 0.99518 0.1859 0.66226 0.0
H1321 H 0.96291 0.18152 0.671 0.0
H1322 H 0.99338 0.21645 0.67118 0.0
H1323 H 0.96371 0.27266 0.62536 0.0
H1324 H 0.91746 0.25747 0.63791 0.0
H1325 H 0.91671 0.18322 0.6573 0.0
C1326 C 0.01851 0.2157 0.62661 0.0
C1327 C 0.03932 0.23737 0.61674 0.0
C1328 C 0.03564 0.26038 0.61236 0.0
C1329 C 0.01191 0.26185 0.6176 0.0
C1330 C 0.99201 0.24026 0.62739 0.0
C1331 C 0.99504 0.21764 0.6319 0.0
C1332 C 0.97048 0.19725 0.64251 0.0
C1333 C 0.95365 0.16798 0.63091 0.0
C1334 C 0.98113 0.19517 0.66295 0.0
C1335 C 0.95309 0.21191 0.64318 0.0
C1336 C 0.96594 0.23665 0.63431 0.0
C1337 C 0.95356 0.25343 0.63245 0.0
C1338 C 0.92724 0.24459 0.63963 0.0
C1339 C 0.91352 0.21926 0.64874 0.0
C1340 C 0.92687 0.2029 0.65071 0.0
H1341 H 0.75789 0.80083 0.62076 0.0
H1342 H 0.82192 0.8816 0.6508 0.0
H1343 H 0.84196 0.85741 0.66949 0.0
H1344 H 0.74642 0.75984 0.66082 0.0
H1345 H 0.74217 0.72925 0.64656 0.0
H1346 H 0.73288 0.75297 0.63567 0.0
H1347 H 0.76695 0.76003 0.6094 0.0
H1348 H 0.77612 0.73611 0.62009 0.0
H1349 H 0.80367 0.77133 0.61661 0.0
H1350 H 0.85517 0.82375 0.68487 0.0
H1351 H 0.86118 0.78395 0.69439 0.0
H1352 H 0.78843 0.72614 0.65389 0.0
C1353 C 0.77635 0.81353 0.63108 0.0
C1354 C 0.7883 0.84314 0.63429 0.0
C1355 C 0.81217 0.85885 0.64822 0.0
C1356 C 0.82377 0.84531 0.65887 0.0
C1357 C 0.81127 0.81604 0.65545 0.0
C1358 C 0.78817 0.8004 0.6418 0.0
C1359 C 0.77875 0.76928 0.64069 0.0
C1360 C 0.74825 0.75182 0.64627 0.0
C1361 C 0.78155 0.75857 0.6205 0.0
C1362 C 0.8002 0.76983 0.65577 0.0
C1363 C 0.81878 0.7969 0.66422 0.0
C1364 C 0.84067 0.80244 0.67836 0.0
C1365 C 0.84387 0.77971 0.68375 0.0
C1366 C 0.82529 0.7519 0.67495 0.0
C1367 C 0.80303 0.74708 0.66097 0.0
H1368 H 0.02461 0.81225 0.61148 0.0
H1369 H 0.0793 0.84748 0.66522 0.0
H1370 H 0.03722 0.82343 0.68357 0.0
H1371 H 0.96253 0.81501 0.62831 0.0
H1372 H 0.93743 0.78193 0.61456 0.0
H1373 H 0.97135 0.80454 0.60596 0.0
H1374 H 0.98143 0.76301 0.60432 0.0
H1375 H 0.94772 0.74042 0.61309 0.0
H1376 H 0.98001 0.74542 0.62568 0.0
H1377 H 0.98997 0.79178 0.69568 0.0
H1378 H 0.9409 0.75656 0.70104 0.0
H1379 H 0.91682 0.74198 0.63912 0.0
C1380 C 0.02748 0.81546 0.62712 0.0
C1381 C 0.05483 0.83194 0.6371 0.0
C1382 C 0.05826 0.83523 0.65748 0.0
C1383 C 0.03455 0.82161 0.66794 0.0
C1384 C 0.00774 0.80493 0.65769 0.0
C1385 C 1.00405 0.80202 0.63772 0.0
C1386 C 0.9733 0.78156 0.63017 0.0
C1387 C 0.96039 0.79667 0.6191 0.0
C1388 C 0.97047 0.7561 0.61758 0.0
C1389 C 0.96036 0.77286 0.64898 0.0
C1390 C 0.98053 0.78668 0.66468 0.0
C1391 C 0.97392 0.7811 0.68351 0.0
C1392 C 0.94598 0.76092 0.68639 0.0
C1393 C 0.9249 0.7465 0.67051 0.0
C1394 C 0.9323 0.75279 0.65159 0.0
H1395 H 0.16679 0.19124 0.61832 0.0
H1396 H 0.17866 0.25429 0.66397 0.0
H1397 H 0.22209 0.25533 0.67787 0.0
H1398 H 0.1868 0.15228 0.64667 0.0
H1399 H 0.20533 0.14455 0.6289 0.0
H1400 H 0.17698 0.15083 0.62129 0.0
H1401 H 0.21078 0.19087 0.60159 0.0
H1402 H 0.23919 0.18449 0.60898 0.0
H1403 H 0.24396 0.2194 0.61339 0.0
H1404 H 0.26061 0.24534 0.6889 0.0
H1405 H 0.29431 0.22812 0.69479 0.0
H1406 H 0.25894 0.17284 0.6413 0.0
C1407 C 0.17911 0.20582 0.63091 0.0
C1408 C 0.16989 0.22306 0.64 0.0
C1409 C 0.18585 0.24133 0.65671 0.0
C1410 C 0.21042 0.24196 0.66472 0.0
C1411 C 0.21877 0.22428 0.65572 0.0
C1412 C 0.20389 0.20685 0.63901 0.0
C1413 C 0.21679 0.18909 0.63272 0.0
C1414 C 0.19518 0.15731 0.63238 0.0
C1415 C 0.22837 0.19641 0.613 0.0
C1416 C 0.24074 0.19873 0.64876 0.0
C1417 C 0.24148 0.219 0.66188 0.0
C1418 C 0.26056 0.22982 0.67855 0.0
C1419 C 0.27951 0.2198 0.68184 0.0
C1420 C 0.27943 0.19933 0.66845 0.0
C1421 C 0.25983 0.18883 0.65165 0.0
H1422 H 0.76236 0.97372 0.65787 0.0
H1423 H 0.77884 0.9669 0.59838 0.0
H1424 H 0.7953 0.01798 0.59689 0.0
H1425 H 0.73677 0.02289 0.6528 0.0
H1426 H 0.75326 0.04192 0.67619 0.0
H1427 H 0.74218 0.00495 0.67209 0.0
H1428 H 0.7933 0.01639 0.68343 0.0
H1429 H 0.80457 0.0534 0.68746 0.0
H1430 H 0.8228 0.04197 0.67177 0.0
H1431 H 0.81085 0.07016 0.60256 0.0
H1432 H 0.8235 0.11876 0.6144 0.0
H1433 H 0.79683 0.09076 0.67044 0.0
C1434 C 0.76921 0.98304 0.6445 0.0
C1435 C 0.76927 0.96676 0.62816 0.0
C1436 C 0.77856 0.97932 0.61094 0.0
C1437 C 0.78795 0.0082 0.61002 0.0
C1438 C 0.78784 0.02391 0.6265 0.0
C1439 C 0.77862 0.0117 0.64339 0.0
C1440 C 0.78098 0.03314 0.65916 0.0
C1441 C 0.75154 0.02525 0.66542 0.0
C1442 C 0.80165 0.03641 0.67647 0.0
C1443 C 0.79303 0.05942 0.64857 0.0
C1444 C 0.79685 0.05372 0.62976 0.0
C1445 C 0.80788 0.07481 0.61725 0.0
C1446 C 0.81504 0.10238 0.62414 0.0
C1447 C 0.81117 0.10864 0.64337 0.0
C1448 C 0.80007 0.08676 0.65567 0.0
H1449 H 0.50721 0.38183 0.69834 0.0
H1450 H 0.51711 0.38173 0.76045 0.0
H1451 H 0.47509 0.3333 0.75798 0.0
H1452 H 0.42852 0.34089 0.69204 0.0
H1453 H 0.42745 0.32219 0.66959 0.0
H1454 H 0.4565 0.35761 0.67655 0.0
H1455 H 0.4923 0.33994 0.67306 0.0
H1456 H 0.46339 0.30446 0.66629 0.0
H1457 H 0.48908 0.31145 0.68645 0.0
H1458 H 0.43501 0.2841 0.74842 0.0
H1459 H 0.39796 0.23761 0.73295 0.0
H1460 H 0.41362 0.26943 0.67661 0.0
C1461 C 0.50001 0.37172 0.7114 0.0
C1462 C 0.51482 0.38523 0.72962 0.0
C1463 C 0.50556 0.37155 0.74645 0.0
C1464 C 0.48185 0.34414 0.74515 0.0
C1465 C 0.46784 0.33104 0.72689 0.0
C1466 C 0.4764 0.34443 0.71032 0.0
C1467 C 0.45849 0.32516 0.69243 0.0
C1468 C 0.44174 0.33718 0.68204 0.0
C1469 C 0.47692 0.31995 0.67876 0.0
C1470 C 0.43889 0.2986 0.70147 0.0
C1471 C 0.44462 0.30255 0.72136 0.0
C1472 C 0.43014 0.28084 0.73288 0.0
C1473 C 0.40917 0.25442 0.72389 0.0
C1474 C 0.40278 0.24978 0.7035 0.0
C1475 C 0.41784 0.27231 0.6922 0.0
H1476 H 0.65511 0.14018 0.74361 0.0
H1477 H 0.59362 0.11405 0.69347 0.0
H1478 H 0.63252 0.1287 0.67208 0.0
H1479 H 0.71371 0.20168 0.72459 0.0
H1480 H 0.7404 0.19528 0.73578 0.0
H1481 H 0.70805 0.18517 0.74681 0.0
H1482 H 0.69853 0.13384 0.74651 0.0
H1483 H 0.73069 0.14379 0.73532 0.0
H1484 H 0.69723 0.1151 0.724 0.0
H1485 H 0.6783 0.14317 0.65631 0.0
H1486 H 0.72656 0.15736 0.64748 0.0
H1487 H 0.75776 0.17371 0.70832 0.0
C1488 C 0.65002 0.13824 0.72812 0.0
C1489 C 0.62162 0.12654 0.72006 0.0
C1490 C 0.61542 0.12348 0.69981 0.0
C1491 C 0.63735 0.13163 0.68762 0.0
C1492 C 0.66526 0.14273 0.69599 0.0
C1493 C 0.67163 0.14621 0.71582 0.0
C1494 C 0.70302 0.15731 0.72124 0.0
C1495 C 0.71712 0.1866 0.73279 0.0
C1496 C 0.70762 0.13625 0.73242 0.0
C1497 C 0.71334 0.15921 0.70138 0.0
C1498 C 0.69133 0.15081 0.68699 0.0
C1499 C 0.6957 0.15001 0.6675 0.0
C1500 C 0.72323 0.15805 0.66262 0.0
C1501 C 0.74612 0.16677 0.67715 0.0
C1502 C 0.7409 0.16735 0.69678 0.0
H1503 H 0.90395 0.54623 0.73082 0.0
H1504 H 0.9098 0.5166 0.67331 0.0
H1505 H 0.88667 0.54158 0.65923 0.0
H1506 H 0.83465 0.54448 0.71969 0.0
H1507 H 0.84632 0.57629 0.73549 0.0
H1508 H 0.85907 0.55249 0.74086 0.0
H1509 H 0.91098 0.59385 0.74195 0.0
H1510 H 0.89842 0.61764 0.73636 0.0
H1511 H 0.92224 0.61373 0.7213 0.0
H1512 H 0.86951 0.57503 0.65167 0.0
H1513 H 0.85697 0.61249 0.65089 0.0
H1514 H 0.86152 0.61999 0.71352 0.0
C1515 C 0.89935 0.54425 0.71529 0.0
C1516 C 0.90797 0.52921 0.70302 0.0
C1517 C 0.90271 0.52766 0.6828 0.0
C1518 C 0.88968 0.54181 0.67474 0.0
C1519 C 0.88204 0.5572 0.68719 0.0
C1520 C 0.88633 0.55821 0.70706 0.0
C1521 C 0.87835 0.5781 0.71721 0.0
C1522 C 0.85309 0.56187 0.72901 0.0
C1523 C 0.90403 0.60225 0.72995 0.0
C1524 C 0.86989 0.58891 0.69997 0.0
C1525 C 0.87196 0.57644 0.68281 0.0
C1526 C 0.86729 0.58455 0.665 0.0
C1527 C 0.86035 0.60598 0.66472 0.0
C1528 C 0.85812 0.61906 0.68214 0.0
C1529 C 0.86264 0.6101 0.69995 0.0
H1530 H 0.48419 0.96378 0.23502 0.0
H1531 H 0.40588 0.88392 0.2192 0.0
H1532 H 0.40556 0.89607 0.18566 0.0
H1533 H 0.46821 0.00564 0.20545 0.0
H1534 H 0.50388 0.02646 0.19888 0.0
H1535 H 0.49811 0.01147 0.22164 0.0
H1536 H 0.52621 0.98638 0.2129 0.0
H1537 H 0.53231 1.00153 0.19018 0.0
H1538 H 0.51578 0.96375 0.1906 0.0
H1539 H 0.41314 0.91765 0.15398 0.0
H1540 H 0.42915 0.94599 0.12629 0.0
H1541 H 0.50394 0.01037 0.16254 0.0
C1542 C 0.46718 0.94859 0.22448 0.0
C1543 C 0.44498 0.92291 0.22985 0.0
C1544 C 0.42288 0.90393 0.21558 0.0
C1545 C 0.42259 0.91056 0.19644 0.0
C1546 C 0.44465 0.93617 0.19174 0.0
C1547 C 0.46666 0.95476 0.20531 0.0
C1548 C 0.48787 0.98085 0.19653 0.0
C1549 C 0.48961 0.00768 0.2062 0.0
C1550 C 0.51728 0.98326 0.19761 0.0
C1551 C 0.47426 0.97413 0.17591 0.0
C1552 C 0.44931 0.9483 0.17344 0.0
C1553 C 0.43279 0.93779 0.1557 0.0
C1554 C 0.44216 0.954 0.14002 0.0
C1555 C 0.46792 0.9804 0.14214 0.0
C1556 C 0.48401 0.99049 0.16042 0.0
H1557 H 0.02904 0.49951 0.2289 0.0
H1558 H 0.11399 0.51119 0.22987 0.0
H1559 H 0.10862 0.50454 0.19421 0.0
H1560 H 0.99664 0.44773 0.18691 0.0
H1561 H 0.97571 0.4626 0.17801 0.0
H1562 H 0.98525 0.46552 0.20359 0.0
H1563 H 0.00807 0.52002 0.20515 0.0
H1564 H 0.99863 0.51727 0.17961 0.0
H1565 H 0.03514 0.53947 0.18958 0.0
H1566 H 0.0948 0.49914 0.1583 0.0
H1567 H 0.07382 0.49556 0.12516 0.0
H1568 H 0.99943 0.4909 0.14812 0.0
C1569 C 0.04658 0.50068 0.22169 0.0
C1570 C 0.07195 0.50585 0.23228 0.0
C1571 C 0.09415 0.50678 0.22215 0.0
C1572 C 0.09137 0.50322 0.20188 0.0
C1573 C 0.0663 0.49878 0.19194 0.0
C1574 C 0.04429 0.49749 0.20153 0.0
C1575 C 0.02015 0.49399 0.18755 0.0
C1576 C 0.99282 0.46578 0.18911 0.0
C1577 C 0.01523 0.51919 0.19066 0.0
C1578 C 0.03213 0.49383 0.16856 0.0
C1579 C 0.05865 0.49638 0.17137 0.0
C1580 C 0.07405 0.49715 0.15594 0.0
C1581 C 0.06203 0.49535 0.13717 0.0
C1582 C 0.03498 0.49306 0.13396 0.0
C1583 C 0.01993 0.49221 0.14997 0.0
H1584 H 0.48376 0.56223 0.21697 0.0
H1585 H 0.47178 0.48595 0.24081 0.0
H1586 H 0.47934 0.46894 0.20949 0.0
H1587 H 0.45041 0.52909 0.16782 0.0
H1588 H 0.47578 0.55908 0.15651 0.0
H1589 H 0.4667 0.56415 0.18027 0.0
H1590 H 0.51996 0.58975 0.19342 0.0
H1591 H 0.5292 0.58472 0.16975 0.0
H1592 H 0.54006 0.5721 0.19006 0.0
H1593 H 0.49233 0.46193 0.1766 0.0
H1594 H 0.50852 0.46495 0.144 0.0
H1595 H 0.51259 0.5458 0.14137 0.0
C1596 C 0.48243 0.54182 0.21555 0.0
C1597 C 0.47684 0.52534 0.23138 0.0
C1598 C 0.47534 0.49873 0.22886 0.0
C1599 C 0.47981 0.48894 0.21112 0.0
C1600 C 0.48567 0.50588 0.19595 0.0
C1601 C 0.4868 0.53167 0.19791 0.0
C1602 C 0.49478 0.5463 0.17957 0.0
C1603 C 0.47046 0.54986 0.17051 0.0
C1604 C 0.52266 0.57491 0.18344 0.0
C1605 C 0.49863 0.52502 0.16719 0.0
C1606 C 0.49311 0.50178 0.17689 0.0
C1607 C 0.49646 0.4799 0.16879 0.0
C1608 C 0.50583 0.48188 0.15032 0.0
C1609 C 0.51175 0.50555 0.14012 0.0
C1610 C 0.50779 0.52723 0.14867 0.0
H1611 H 0.9365 0.44957 0.79134 0.0
H1612 H 0.01107 0.50906 0.76519 0.0
H1613 H 0.04038 0.52026 0.79631 0.0
H1614 H 0.95364 0.49037 0.83695 0.0
H1615 H 0.94049 0.46039 0.85089 0.0
H1616 H 0.92536 0.45623 0.82641 0.0
H1617 H 0.93657 0.41645 0.81764 0.0
H1618 H 0.95155 0.42036 0.84214 0.0
H1619 H 0.97245 0.42331 0.82239 0.0
H1620 H 0.06141 0.52577 0.83022 0.0
H1621 H 0.07298 0.52491 0.86488 0.0
H1622 H 0.98495 0.46156 0.86909 0.0
C1623 C 0.95906 0.46469 0.79214 0.0
C1624 C 0.97152 0.47853 0.77589 0.0
C1625 C 1.00104 0.49847 0.77753 0.0
C1626 C 0.01788 0.50487 0.79511 0.0
C1627 C 1.00489 0.49116 0.81091 0.0
C1628 C 0.97619 0.47144 0.80962 0.0
C1629 C 0.96749 0.46016 0.82893 0.0
C1630 C 0.94544 0.46722 0.83622 0.0
C1631 C 0.95637 0.42817 0.8277 0.0
C1632 C 0.99577 0.47672 0.84125 0.0
C1633 C 0.01705 0.49442 0.83055 0.0
C1634 C 0.04497 0.51189 0.83875 0.0
C1635 C 0.05135 0.51117 0.85841 0.0
C1636 C 0.02991 0.49314 0.86968 0.0
C1637 C 1.00175 0.47578 0.86092 0.0
H1638 H 0.5653 0.46414 0.79793 0.0
H1639 H 0.56718 0.53609 0.7735 0.0
H1640 H 0.55013 0.54684 0.80304 0.0
H1641 H 0.50158 0.44304 0.82274 0.0
H1642 H 0.51494 0.43334 0.84348 0.0
H1643 H 0.52632 0.43058 0.82012 0.0
H1644 H 0.57888 0.46252 0.83423 0.0
H1645 H 0.56767 0.46552 0.85761 0.0
H1646 H 0.59016 0.49694 0.84635 0.0
H1647 H 0.5339 0.55057 0.83524 0.0
H1648 H 0.51954 0.54717 0.86829 0.0
H1649 H 0.52808 0.47294 0.87247 0.0
C1650 C 0.56177 0.48193 0.79874 0.0
C1651 C 0.56763 0.49932 0.7834 0.0
C1652 C 0.56312 0.52265 0.78512 0.0
C1653 C 0.55332 0.52887 0.80181 0.0
C1654 C 0.54814 0.51159 0.81675 0.0
C1655 C 0.55216 0.48859 0.81542 0.0
C1656 C 0.54563 0.47395 0.83385 0.0
C1657 C 0.52063 0.44342 0.8298 0.0
C1658 C 0.57217 0.47479 0.84358 0.0
C1659 C 0.53747 0.49241 0.84575 0.0
C1660 C 0.53894 0.5139 0.83552 0.0
C1661 C 0.5325 0.53373 0.84336 0.0
C1662 C 0.52422 0.53153 0.86213 0.0
C1663 C 0.52246 0.50969 0.87299 0.0
C1664 C 0.52935 0.48996 0.86462 0.0
H1665 H 0.5282 0.05459 0.79732 0.0
H1666 H 0.5141 0.12549 0.80667 0.0
H1667 H 0.50347 0.11371 0.83998 0.0
H1668 H 0.47381 0.00689 0.82528 0.0
H1669 H 0.49476 0.99238 0.8348 0.0
H1670 H 0.50025 0.0058 0.81149 0.0
H1671 H 0.5537 0.03946 0.8228 0.0
H1672 H 0.54838 0.02611 0.84613 0.0
H1673 H 0.56379 0.06353 0.84435 0.0
H1674 H 0.49549 0.09475 0.8727 0.0
H1675 H 0.49034 0.06996 0.90198 0.0
H1676 H 0.51146 0.01257 0.87155 0.0
C1677 C 0.52302 0.06779 0.80636 0.0
C1678 C 0.52196 0.091 0.79925 0.0
C1679 C 0.51465 0.10737 0.81159 0.0
C1680 C 0.50876 0.10095 0.8306 0.0
C1681 C 0.51025 0.07809 0.83714 0.0
C1682 C 0.51719 0.06175 0.82537 0.0
C1683 C 0.5178 0.03862 0.83597 0.0
C1684 C 0.49531 0.00918 0.82631 0.0
C1685 C 0.5477 0.04215 0.8374 0.0
C1686 C 0.51018 0.0445 0.85558 0.0
C1687 C 0.50589 0.06734 0.85596 0.0
C1688 C 0.49886 0.07688 0.87255 0.0
C1689 C 0.49617 0.06275 0.88918 0.0
C1690 C 0.50055 0.03929 0.88918 0.0
C1691 C 0.50761 0.03016 0.87204 0.0
H1692 H 0.10732 0.29254 0.57171 0.0
H1693 H 0.12235 0.22201 0.56442 0.0
H1694 H 0.1399 0.23671 0.53284 0.0
H1695 H 0.08215 0.28891 0.52229 0.0
H1696 H 0.09894 0.32672 0.52192 0.0
H1697 H 0.0883 0.31114 0.54421 0.0
H1698 H 0.13976 0.34307 0.56043 0.0
H1699 H 0.15056 0.35877 0.53819 0.0
H1700 H 0.16881 0.34272 0.54959 0.0
H1701 H 0.15444 0.25822 0.50148 0.0
H1702 H 0.1666 0.28594 0.47331 0.0
H1703 H 0.14179 0.34235 0.50073 0.0
C1704 C 0.11424 0.28013 0.56347 0.0
C1705 C 0.11348 0.2561 0.57065 0.0
C1706 C 0.12307 0.2407 0.55943 0.0
C1707 C 0.13291 0.24878 0.54138 0.0
C1708 C 0.13316 0.27241 0.5347 0.0
C1709 C 0.12422 0.28796 0.54544 0.0
C1710 C 0.12661 0.31245 0.53492 0.0
C1711 C 0.09725 0.30962 0.53057 0.0
C1712 C 0.14769 0.34094 0.54647 0.0
C1713 C 0.13815 0.30816 0.51654 0.0
C1714 C 0.14171 0.2849 0.5167 0.0
C1715 C 0.15175 0.27648 0.50122 0.0
C1716 C 0.15842 0.29227 0.4852 0.0
C1717 C 0.15512 0.31633 0.48471 0.0
C1718 C 0.14484 0.32428 0.50069 0.0
H1719 H 0.74982 0.89082 0.56327 0.0
H1720 H 0.71972 0.8062 0.58023 0.0
H1721 H 0.69502 0.78592 0.54765 0.0
H1722 H 0.68595 0.87436 0.53387 0.0
H1723 H 0.70427 0.89722 0.51573 0.0
H1724 H 0.72039 0.90541 0.5403 0.0
H1725 H 0.76511 0.90649 0.52861 0.0
H1726 H 0.74911 0.89828 0.504 0.0
H1727 H 0.76126 0.87618 0.51419 0.0
H1728 H 0.6724 0.77443 0.51375 0.0
H1729 H 0.654 0.77253 0.48016 0.0
H1730 H 0.69824 0.86429 0.48459 0.0
C1731 C 0.73803 0.86804 0.56011 0.0
C1732 C 0.73701 0.85015 0.57432 0.0
C1733 C 0.72136 0.82041 0.56954 0.0
C1734 C 0.70707 0.80864 0.55109 0.0
C1735 C 0.70854 0.8268 0.53745 0.0
C1736 C 0.72366 0.85585 0.54166 0.0
C1737 C 0.72156 0.87048 0.52428 0.0
C1738 C 0.70718 0.88789 0.52882 0.0
C1739 C 0.75102 0.88895 0.51736 0.0
C1740 C 0.70276 0.84508 0.50975 0.0
C1741 C 0.6955 0.82012 0.51772 0.0
C1742 C 0.67794 0.79383 0.50734 0.0
C1743 C 0.66746 0.79297 0.4883 0.0
C1744 C 0.67456 0.81822 0.47974 0.0
C1745 C 0.69262 0.84462 0.49066 0.0
H1746 H 0.15237 0.85892 0.56026 0.0
H1747 H 0.14781 0.93502 0.55411 0.0
H1748 H 0.164 0.93735 0.5216 0.0
H1749 H 0.21423 0.87894 0.53717 0.0
H1750 H 0.2024 0.84435 0.52512 0.0
H1751 H 0.18916 0.84772 0.54758 0.0
H1752 H 0.13729 0.81824 0.53152 0.0
H1753 H 0.15035 0.81437 0.50907 0.0
H1754 H 0.1271 0.82889 0.50985 0.0
H1755 H 0.18346 0.93307 0.49079 0.0
H1756 H 0.20128 0.92033 0.46244 0.0
H1757 H 0.19073 0.84567 0.48811 0.0
C1758 C 0.15417 0.87572 0.55192 0.0
C1759 C 0.14898 0.89687 0.55974 0.0
C1760 C 0.15207 0.91881 0.54849 0.0
C1761 C 0.16115 0.92026 0.53 0.0
C1762 C 0.16677 0.89947 0.52294 0.0
C1763 C 0.16304 0.87741 0.53342 0.0
C1764 C 0.17087 0.85797 0.52256 0.0
C1765 C 0.19564 0.85722 0.53378 0.0
C1766 C 0.14485 0.8281 0.51798 0.0
C1767 C 0.17994 0.87279 0.50447 0.0
C1768 C 0.17747 0.89671 0.50499 0.0
C1769 C 0.18516 0.9142 0.49009 0.0
C1770 C 0.19519 0.90674 0.47404 0.0
C1771 C 0.19728 0.88193 0.47299 0.0
C1772 C 0.18972 0.86494 0.48853 0.0
H1773 H 0.59165 0.76132 0.1296 0.0
H1774 H 0.62429 0.84542 0.11101 0.0
H1775 H 0.64706 0.86627 0.14408 0.0
H1776 H 0.57803 0.77667 0.17741 0.0
H1777 H 0.5893 0.75436 0.18835 0.0
H1778 H 0.57449 0.74615 0.16346 0.0
H1779 H 0.61964 0.74663 0.15322 0.0
H1780 H 0.6346 0.75486 0.17807 0.0
H1781 H 0.65406 0.77751 0.16015 0.0
H1782 H 0.66719 0.87794 0.17929 0.0
H1783 H 0.68354 0.87942 0.21343 0.0
H1784 H 0.6391 0.78769 0.20851 0.0
C1785 C 0.60374 0.78415 0.13236 0.0
C1786 C 0.60609 0.80167 0.11755 0.0
C1787 C 0.62174 0.83145 0.12206 0.0
C1788 C 0.63493 0.84352 0.14081 0.0
C1789 C 0.63238 0.82558 0.15494 0.0
C1790 C 0.61719 0.79653 0.15091 0.0
C1791 C 0.61817 0.78188 0.16851 0.0
C1792 C 0.58822 0.7637 0.1748 0.0
C1793 C 0.63247 0.76418 0.16476 0.0
C1794 C 0.63647 0.80724 0.18309 0.0
C1795 C 0.6443 0.83226 0.17503 0.0
C1796 C 0.66112 0.85846 0.18574 0.0
C1797 C 0.6702 0.85909 0.20515 0.0
C1798 C 0.66262 0.83369 0.21368 0.0
C1799 C 0.6455 0.80748 0.20239 0.0
H1800 H 0.22269 0.7837 0.13476 0.0
H1801 H 0.27754 0.87137 0.1246 0.0
H1802 H 0.27218 0.88666 0.15731 0.0
H1803 H 0.17367 0.79438 0.15897 0.0
H1804 H 0.16761 0.76885 0.17599 0.0
H1805 H 0.17816 0.76457 0.15263 0.0
H1806 H 0.22124 0.76292 0.16891 0.0
H1807 H 0.21076 0.76707 0.19236 0.0
H1808 H 0.24606 0.79142 0.1865 0.0
H1809 H 0.25726 0.89264 0.18986 0.0
H1810 H 0.23536 0.88875 0.2204 0.0
H1811 H 0.18987 0.79726 0.20934 0.0
C1812 C 0.23382 0.80612 0.13947 0.0
C1813 C 0.25067 0.82631 0.12709 0.0
C1814 C 0.26494 0.85544 0.13389 0.0
C1815 C 0.26188 0.86436 0.15242 0.0
C1816 C 0.24461 0.84391 0.16406 0.0
C1817 C 0.23101 0.81537 0.15792 0.0
C1818 C 0.2126 0.79777 0.17287 0.0
C1819 C 0.18115 0.78038 0.16462 0.0
C1820 C 0.22332 0.77867 0.18062 0.0
C1821 C 0.21747 0.82089 0.18821 0.0
C1822 C 0.23611 0.84735 0.18287 0.0
C1823 C 0.24286 0.87203 0.19426 0.0
C1824 C 0.23018 0.86961 0.21151 0.0
C1825 C 0.21095 0.84272 0.21725 0.0
C1826 C 0.20479 0.81808 0.20547 0.0
H1827 H 0.20235 0.41152 0.13609 0.0
H1828 H 0.28269 0.4893 0.15181 0.0
H1829 H 0.28215 0.47725 0.18543 0.0
H1830 H 0.17094 0.41301 0.17933 0.0
H1831 H 0.15326 0.37532 0.18057 0.0
H1832 H 0.16046 0.38937 0.15752 0.0
H1833 H 0.18762 0.36281 0.15037 0.0
H1834 H 0.18036 0.34854 0.17336 0.0
H1835 H 0.2165 0.36808 0.16738 0.0
H1836 H 0.27166 0.45796 0.21781 0.0
H1837 H 0.25323 0.43192 0.24613 0.0
H1838 H 0.1802 0.3659 0.20934 0.0
C1839 C 0.21987 0.42601 0.14659 0.0
C1840 C 0.24265 0.45135 0.14121 0.0
C1841 C 0.26524 0.46957 0.15543 0.0
C1842 C 0.26501 0.463 0.17463 0.0
C1843 C 0.24211 0.43805 0.17946 0.0
C1844 C 0.22005 0.41972 0.16583 0.0
C1845 C 0.19788 0.39436 0.17485 0.0
C1846 C 0.16892 0.39295 0.17295 0.0
C1847 C 0.19546 0.36682 0.16596 0.0
C1848 C 0.21078 0.40143 0.19573 0.0
C1849 C 0.23628 0.42674 0.19807 0.0
C1850 C 0.25187 0.43795 0.21609 0.0
C1851 C 0.24126 0.42284 0.23212 0.0
C1852 C 0.2153 0.3966 0.23011 0.0
C1853 C 0.19995 0.38594 0.21155 0.0
H1854 H 0.82599 0.60185 0.896 0.0
H1855 H 0.74044 0.53319 0.87767 0.0
H1856 H 0.74567 0.5469 0.84435 0.0
H1857 H 0.82213 0.65173 0.86813 0.0
H1858 H 0.85831 0.66822 0.8621 0.0
H1859 H 0.84923 0.65143 0.88411 0.0
H1860 H 0.86996 0.61972 0.87394 0.0
H1861 H 0.87936 0.63662 0.85196 0.0
H1862 H 0.8574 0.5987 0.85088 0.0
H1863 H 0.75868 0.56988 0.8137 0.0
H1864 H 0.77872 0.60026 0.78751 0.0
H1865 H 0.85617 0.65452 0.82529 0.0
C1866 C 0.80869 0.58934 0.88483 0.0
C1867 C 0.78288 0.5663 0.88933 0.0
C1868 C 0.76039 0.55084 0.87447 0.0
C1869 C 0.76319 0.55846 0.85552 0.0
C1870 C 0.78861 0.58167 0.85161 0.0
C1871 C 0.81105 0.59685 0.86579 0.0
C1872 C 0.83541 0.6219 0.8579 0.0
C1873 C 0.84162 0.64997 0.8687 0.0
C1874 C 0.86212 0.61906 0.85872 0.0
C1875 C 0.82297 0.61863 0.83719 0.0
C1876 C 0.79605 0.59515 0.83387 0.0
C1877 C 0.77991 0.58812 0.81605 0.0
C1878 C 0.79157 0.60549 0.80121 0.0
C1879 C 0.81917 0.62975 0.80418 0.0
C1880 C 0.83499 0.63625 0.8225 0.0
H1881 H 0.42389 0.2148 0.89559 0.0
H1882 H 0.39429 0.1287 0.90921 0.0
H1883 H 0.38188 0.11201 0.87465 0.0
H1884 H 0.36819 0.19771 0.86131 0.0
H1885 H 0.38867 0.22358 0.84532 0.0
H1886 H 0.40037 0.22976 0.87069 0.0
H1887 H 0.44908 0.23622 0.863 0.0
H1888 H 0.4375 0.23007 0.83752 0.0
H1889 H 0.45023 0.20875 0.84826 0.0
H1890 H 0.36622 0.10342 0.83955 0.0
H1891 H 0.34846 0.10381 0.80617 0.0
H1892 H 0.38675 0.19499 0.81521 0.0
C1893 C 0.41527 0.19251 0.89128 0.0
C1894 C 0.41045 0.17318 0.90517 0.0
C1895 C 0.39896 0.14413 0.8989 0.0
C1896 C 0.39169 0.13436 0.87926 0.0
C1897 C 0.39606 0.15387 0.86601 0.0
C1898 C 0.40771 0.18236 0.87172 0.0
C1899 C 0.40744 0.19842 0.85481 0.0
C1900 C 0.39013 0.21322 0.85824 0.0
C1901 C 0.43788 0.21962 0.85066 0.0
C1902 C 0.39269 0.1743 0.83891 0.0
C1903 C 0.38675 0.14884 0.84561 0.0
C1904 C 0.37119 0.12326 0.83402 0.0
C1905 C 0.36104 0.12365 0.81516 0.0
C1906 C 0.36641 0.14944 0.80816 0.0
C1907 C 0.38292 0.17508 0.82008 0.0
H1908 H 0.8038 0.24195 0.87856 0.0
H1909 H 0.77397 0.15842 0.89758 0.0
H1910 H 0.77489 0.14034 0.86467 0.0
H1911 H 0.76727 0.21883 0.82914 0.0
H1912 H 0.7969 0.24649 0.8188 0.0
H1913 H 0.79041 0.2522 0.84325 0.0
H1914 H 0.84173 0.26509 0.85532 0.0
H1915 H 0.84833 0.25932 0.83096 0.0
H1916 H 0.8536 0.2404 0.8496 0.0
H1917 H 0.78339 0.1321 0.83059 0.0
H1918 H 0.79806 0.1342 0.79764 0.0
H1919 H 0.82422 0.22332 0.80071 0.0
C1920 C 0.79714 0.21976 0.87582 0.0
C1921 C 0.78853 0.20164 0.89083 0.0
C1922 C 0.77996 0.17272 0.88641 0.0
C1923 C 0.78064 0.16224 0.86772 0.0
C1924 C 0.78993 0.18084 0.85348 0.0
C1925 C 0.7979 0.20897 0.85725 0.0
C1926 C 0.80885 0.2249 0.83969 0.0
C1927 C 0.78971 0.23627 0.83228 0.0
C1928 C 0.83997 0.24884 0.84416 0.0
C1929 C 0.80634 0.20145 0.82557 0.0
C1930 C 0.79517 0.17616 0.83381 0.0
C1931 C 0.79195 0.15174 0.82396 0.0
C1932 C 0.80054 0.1532 0.80528 0.0
C1933 C 0.81235 0.17892 0.79656 0.0
C1934 C 0.81492 0.20326 0.80685 0.0
H1935 H 0.28904 0.11675 0.45127 0.0
H1936 H 0.23436 0.15302 0.44548 0.0
H1937 H 0.24714 0.17144 0.47999 0.0
H1938 H 0.2714 0.09327 0.49741 0.0
H1939 H 0.30678 0.10132 0.50592 0.0
H1940 H 0.29495 0.09278 0.4805 0.0
H1941 H 0.33808 0.14008 0.47327 0.0
H1942 H 0.35015 0.14869 0.49867 0.0
H1943 H 0.34419 0.17287 0.48538 0.0
H1944 H 0.264 0.18367 0.51566 0.0
H1945 H 0.28449 0.1898 0.54938 0.0
H1946 H 0.32774 0.14507 0.53172 0.0
C1947 C 0.27975 0.1286 0.45722 0.0
C1948 C 0.26065 0.1334 0.44563 0.0
C1949 C 0.2493 0.14935 0.45398 0.0
C1950 C 0.2563 0.15975 0.4736 0.0
C1951 C 0.27476 0.15413 0.48467 0.0
C1952 C 0.28646 0.13907 0.47674 0.0
C1953 C 0.30521 0.13532 0.49182 0.0
C1954 C 0.2939 0.1038 0.49404 0.0
C1955 C 0.33625 0.15013 0.48699 0.0
C1956 C 0.30187 0.15022 0.50957 0.0
C1957 C 0.28437 0.16107 0.50514 0.0
C1958 C 0.2779 0.17544 0.51925 0.0
C1959 C 0.28973 0.1789 0.53836 0.0
C1960 C 0.30777 0.16796 0.54323 0.0
C1961 C 0.31381 0.15343 0.52855 0.0
H1962 H 0.8629 0.14474 0.4443 0.0
H1963 H 0.95316 0.18057 0.46089 0.0
H1964 H 0.94657 0.192 0.49426 0.0
H1965 H 0.85501 0.19608 0.47305 0.0
H1966 H 0.82025 0.1712 0.47951 0.0
H1967 H 0.83171 0.16468 0.45706 0.0
H1968 H 0.82196 0.11587 0.46667 0.0
H1969 H 0.81043 0.12223 0.48915 0.0
H1970 H 0.83852 0.11388 0.48925 0.0
H1971 H 0.93055 0.20019 0.52567 0.0
H1972 H 0.90632 0.20533 0.55301 0.0
H1973 H 0.82642 0.16541 0.51618 0.0
C1974 C 0.88119 0.1547 0.45503 0.0
C1975 C 0.90858 0.16181 0.44996 0.0
C1976 C 0.93205 0.17519 0.46437 0.0
C1977 C 0.9285 0.18163 0.48339 0.0
C1978 C 0.90132 0.17463 0.48786 0.0
C1979 C 0.87805 0.16148 0.47412 0.0
C1980 C 0.85132 0.15706 0.48267 0.0
C1981 C 0.83885 0.17322 0.47247 0.0
C1982 C 0.82926 0.12538 0.48189 0.0
C1983 C 0.86326 0.16988 0.50332 0.0
C1984 C 0.89212 0.17975 0.50598 0.0
C1985 C 0.90796 0.19263 0.52373 0.0
C1986 C 0.894 0.19566 0.53916 0.0
C1987 C 0.86444 0.18603 0.53682 0.0
C1988 C 0.84895 0.17281 0.51859 0.0
H1989 H 0.87516 0.77887 0.47263 0.0
H1990 H 0.90342 0.72511 0.4456 0.0
H1991 H 0.90155 0.70411 0.47638 0.0
H1992 H 0.91104 0.78967 0.52103 0.0
H1993 H 0.88172 0.7881 0.53269 0.0
H1994 H 0.88862 0.80105 0.50928 0.0
H1995 H 0.83698 0.76379 0.49574 0.0
H1996 H 0.82995 0.75068 0.51906 0.0
H1997 H 0.82417 0.72688 0.49812 0.0
H1998 H 0.89281 0.68636 0.50985 0.0
H1999 H 0.87743 0.67319 0.54224 0.0
H2000 H 0.85335 0.73761 0.54648 0.0
C2001 C 0.88109 0.76275 0.47311 0.0
C2002 C 0.88937 0.75363 0.45655 0.0
C2003 C 0.89735 0.73277 0.45807 0.0
C2004 C 0.89621 0.7206 0.4755 0.0
C2005 C 0.88715 0.72957 0.49134 0.0
C2006 C 0.87982 0.75026 0.49026 0.0
C2007 C 0.86908 0.75506 0.50884 0.0
C2008 C 0.88879 0.78527 0.51853 0.0
C2009 C 0.83822 0.74871 0.50522 0.0
C2010 C 0.87087 0.7334 0.52046 0.0
C2011 C 0.88168 0.71912 0.51027 0.0
C2012 C 0.88455 0.69761 0.51798 0.0
C2013 C 0.87586 0.69034 0.53643 0.0
C2014 C 0.86414 0.70432 0.54693 0.0
C2015 C 0.86201 0.72635 0.53881 0.0
loop_
_geom_bond_atom_site_label_1
_geom_bond_atom_site_label_2
_geom_bond_distance
_geom_bond_site_symmetry_2
_ccdc_geom_bond_type
H0 C3 0.929 . S
H1 C6 0.929 . S
H2 C8 0.930 . S
C3 H0 0.929 . S
C3 C4 1.398 . S
C3 C5 1.396 . S
C4 C3 1.398 . S
C4 C8 1.407 . S
C5 C3 1.396 . S
C5 C6 1.394 . S
C6 H1 0.929 . S
C6 C5 1.394 . S
C6 C7 1.382 . S
C7 C6 1.382 . S
C7 C8 1.392 . S
C7 N9 1.420 . S
C8 H2 0.930 . S
C8 C4 1.407 . S
C8 C7 1.392 . S
N9 C7 1.420 . S
N9 C10 1.244 . S
C10 N9 1.244 . S
H11 C14 0.929 . S
H12 C17 0.929 . S
H13 C19 0.930 . S
C14 H11 0.929 . S
C14 C15 1.398 . S
C14 C16 1.396 . S
C15 C14 1.398 . S
C15 C19 1.407 . S
C16 C14 1.396 . S
C16 C17 1.394 . S
C17 H12 0.929 . S
C17 C16 1.394 . S
C17 C18 1.382 . S
C18 C17 1.382 . S
C18 C19 1.392 . S
C18 N20 1.420 . S
C19 H13 0.930 . S
C19 C15 1.407 . S
C19 C18 1.392 . S
N20 C18 1.420 . S
N20 C21 1.244 . S
C21 N20 1.244 . S
H22 C25 0.929 . S
H23 C28 0.929 . S
H24 C30 0.930 . S
C25 H22 0.929 . S
C25 C26 1.398 . S
C25 C27 1.396 . S
C26 C25 1.398 . S
C26 C30 1.407 . S
C27 C25 1.396 . S
C27 C28 1.394 . S
C28 H23 0.929 . S
C28 C27 1.394 . S
C28 C29 1.382 . S
C29 C28 1.382 . S
C29 C30 1.392 . S
C29 N31 1.420 . S
C30 H24 0.930 . S
C30 C26 1.407 . S
C30 C29 1.392 . S
N31 C29 1.420 . S
N31 C32 1.244 . S
C32 N31 1.244 . S
H33 C36 0.929 . S
H34 C39 0.929 . S
H35 C41 0.930 . S
C36 H33 0.929 . S
C36 C37 1.398 . S
C36 C38 1.396 . S
C37 C36 1.398 . S
C37 C41 1.407 . S
C38 C36 1.396 . S
C38 C39 1.394 . S
C39 H34 0.929 . S
C39 C38 1.394 . S
C39 C40 1.382 . S
C40 C39 1.382 . S
C40 C41 1.392 . S
C40 N42 1.420 . S
C41 H35 0.930 . S
C41 C37 1.407 . S
C41 C40 1.392 . S
N42 C40 1.420 . S
N42 C43 1.244 . S
C43 N42 1.244 . S
H44 C47 0.929 . S
H45 C50 0.929 . S
H46 C52 0.930 . S
C47 H44 0.929 . S
C47 C48 1.398 . S
C47 C49 1.396 . S
C48 C47 1.398 . S
C48 C52 1.407 . S
C49 C47 1.396 . S
C49 C50 1.394 . S
C50 H45 0.929 . S
C50 C49 1.394 . S
C50 C51 1.382 . S
C51 C50 1.382 . S
C51 C52 1.392 . S
C51 N53 1.420 . S
C52 H46 0.930 . S
C52 C48 1.407 . S
C52 C51 1.392 . S
N53 C51 1.420 . S
N53 C54 1.244 . S
C54 N53 1.244 . S
H55 C58 0.929 . S
H56 C61 0.929 . S
H57 C63 0.930 . S
C58 H55 0.929 . S
C58 C59 1.398 . S
C58 C60 1.396 . S
C59 C58 1.398 . S
C59 C63 1.407 . S
C60 C58 1.396 . S
C60 C61 1.394 . S
C61 H56 0.929 . S
C61 C60 1.394 . S
C61 C62 1.382 . S
C62 C61 1.382 . S
C62 C63 1.392 . S
C62 N64 1.420 . S
C63 H57 0.930 . S
C63 C59 1.407 . S
C63 C62 1.392 . S
N64 C62 1.420 . S
N64 C65 1.244 . S
C65 N64 1.244 . S
H66 C69 0.929 . S
H67 C72 0.929 . S
H68 C74 0.930 . S
C69 H66 0.929 . S
C69 C70 1.398 . S
C69 C71 1.396 . S
C70 C69 1.398 . S
C70 C74 1.407 . S
C71 C69 1.396 . S
C71 C72 1.394 . S
C72 H67 0.929 . S
C72 C71 1.394 . S
C72 C73 1.382 . S
C73 C72 1.382 . S
C73 C74 1.392 . S
C73 N75 1.420 . S
C74 H68 0.930 . S
C74 C70 1.407 . S
C74 C73 1.392 . S
N75 C73 1.420 . S
N75 C76 1.244 . S
C76 N75 1.244 . S
H77 C80 0.929 . S
H78 C83 0.929 . S
H79 C85 0.930 . S
C80 H77 0.929 . S
C80 C81 1.398 . S
C80 C82 1.396 . S
C81 C80 1.398 . S
C81 C85 1.407 . S
C82 C80 1.396 . S
C82 C83 1.394 . S
C83 H78 0.929 . S
C83 C82 1.394 . S
C83 C84 1.382 . S
C84 C83 1.382 . S
C84 C85 1.392 . S
C84 N86 1.420 . S
C85 H79 0.930 . S
C85 C81 1.407 . S
C85 C84 1.392 . S
N86 C84 1.420 . S
N86 C87 1.244 . S
C87 N86 1.244 . S
H88 C91 0.929 . S
H89 C94 0.929 . S
H90 C96 0.930 . S
C91 H88 0.929 . S
C91 C92 1.398 . S
C91 C93 1.396 . S
C92 C91 1.398 . S
C92 C96 1.407 . S
C93 C91 1.396 . S
C93 C94 1.394 . S
C94 H89 0.929 . S
C94 C93 1.394 . S
C94 C95 1.382 . S
C95 C94 1.382 . S
C95 C96 1.392 . S
C95 N97 1.420 . S
C96 H90 0.930 . S
C96 C92 1.407 . S
C96 C95 1.392 . S
N97 C95 1.420 . S
N97 C98 1.244 . S
C98 N97 1.244 . S
H99 C102 0.929 . S
H100 C105 0.929 . S
H101 C107 0.930 . S
C102 H99 0.929 . S
C102 C103 1.398 . S
C102 C104 1.396 . S
C103 C102 1.398 . S
C103 C107 1.407 . S
C104 C102 1.396 . S
C104 C105 1.394 . S
C105 H100 0.929 . S
C105 C104 1.394 . S
C105 C106 1.382 . S
C106 C105 1.382 . S
C106 C107 1.392 . S
C106 N108 1.420 . S
C107 H101 0.930 . S
C107 C103 1.407 . S
C107 C106 1.392 . S
N108 C106 1.420 . S
N108 C109 1.244 . S
C109 N108 1.244 . S
H110 C113 0.929 . S
H111 C116 0.929 . S
H112 C118 0.930 . S
C113 H110 0.929 . S
C113 C114 1.398 . S
C113 C115 1.396 . S
C114 C113 1.398 . S
C114 C118 1.407 . S
C115 C113 1.396 . S
C115 C116 1.394 . S
C116 H111 0.929 . S
C116 C115 1.394 . S
C116 C117 1.382 . S
C117 C116 1.382 . S
C117 C118 1.392 . S
C117 N119 1.420 . S
C118 H112 0.930 . S
C118 C114 1.407 . S
C118 C117 1.392 . S
N119 C117 1.420 . S
N119 C120 1.244 . S
C120 N119 1.244 . S
H121 C124 0.929 . S
H122 C127 0.929 . S
H123 C129 0.930 . S
C124 H121 0.929 . S
C124 C125 1.398 . S
C124 C126 1.396 . S
C125 C124 1.398 . S
C125 C129 1.407 . S
C126 C124 1.396 . S
C126 C127 1.394 . S
C127 H122 0.929 . S
C127 C126 1.394 . S
C127 C128 1.382 . S
C128 C127 1.382 . S
C128 C129 1.392 . S
C128 N130 1.420 . S
C129 H123 0.930 . S
C129 C125 1.407 . S
C129 C128 1.392 . S
N130 C128 1.420 . S
N130 C131 1.244 . S
C131 N130 1.244 . S
H132 C135 0.929 . S
H133 C138 0.929 . S
H134 C140 0.930 . S
C135 H132 0.929 . S
C135 C136 1.398 . S
C135 C137 1.396 . S
C136 C135 1.398 . S
C136 C140 1.407 . S
C137 C135 1.396 . S
C137 C138 1.394 . S
C138 H133 0.929 . S
C138 C137 1.394 . S
C138 C139 1.382 . S
C139 C138 1.382 . S
C139 C140 1.392 . S
C139 N141 1.420 . S
C140 H134 0.930 . S
C140 C136 1.407 . S
C140 C139 1.392 . S
N141 C139 1.420 . S
N141 C142 1.244 . S
C142 N141 1.244 . S
H143 C146 0.929 . S
H144 C149 0.929 . S
H145 C151 0.930 . S
C146 H143 0.929 . S
C146 C147 1.398 . S
C146 C148 1.396 . S
C147 C146 1.398 . S
C147 C151 1.407 . S
C148 C146 1.396 . S
C148 C149 1.394 . S
C149 H144 0.929 . S
C149 C148 1.394 . S
C149 C150 1.382 . S
C150 C149 1.382 . S
C150 C151 1.392 . S
C150 N152 1.420 . S
C151 H145 0.930 . S
C151 C147 1.407 . S
C151 C150 1.392 . S
N152 C150 1.420 . S
N152 C153 1.244 . S
C153 N152 1.244 . S
H154 C157 0.929 . S
H155 C160 0.929 . S
H156 C162 0.930 . S
C157 H154 0.929 . S
C157 C158 1.398 . S
C157 C159 1.396 . S
C158 C157 1.398 . S
C158 C162 1.407 . S
C159 C157 1.396 . S
C159 C160 1.394 . S
C160 H155 0.929 . S
C160 C159 1.394 . S
C160 C161 1.382 . S
C161 C160 1.382 . S
C161 C162 1.392 . S
C161 N163 1.420 . S
C162 H156 0.930 . S
C162 C158 1.407 . S
C162 C161 1.392 . S
N163 C161 1.420 . S
N163 C164 1.244 . S
C164 N163 1.244 . S
H165 C168 0.929 . S
H166 C171 0.929 . S
H167 C173 0.930 . S
C168 H165 0.929 . S
C168 C169 1.398 . S
C168 C170 1.396 . S
C169 C168 1.398 . S
C169 C173 1.407 . S
C170 C168 1.396 . S
C170 C171 1.394 . S
C171 H166 0.929 . S
C171 C170 1.394 . S
C171 C172 1.382 . S
C172 C171 1.382 . S
C172 C173 1.392 . S
C172 N174 1.420 . S
C173 H167 0.930 . S
C173 C169 1.407 . S
C173 C172 1.392 . S
N174 C172 1.420 . S
N174 C175 1.244 . S
C175 N174 1.244 . S
H176 C179 0.929 . S
H177 C182 0.929 . S
H178 C184 0.930 . S
C179 H176 0.929 . S
C179 C180 1.398 . S
C179 C181 1.396 . S
C180 C179 1.398 . S
C180 C184 1.407 . S
C181 C179 1.396 . S
C181 C182 1.394 . S
C182 H177 0.929 . S
C182 C181 1.394 . S
C182 C183 1.382 . S
C183 C182 1.382 . S
C183 C184 1.392 . S
C183 N185 1.420 . S
C184 H178 0.930 . S
C184 C180 1.407 . S
C184 C183 1.392 . S
N185 C183 1.420 . S
N185 C186 1.244 . S
C186 N185 1.244 . S
H187 C190 0.929 . S
H188 C193 0.929 . S
H189 C195 0.930 . S
C190 H187 0.929 . S
C190 C191 1.398 . S
C190 C192 1.396 . S
C191 C190 1.398 . S
C191 C195 1.407 . S
C192 C190 1.396 . S
C192 C193 1.394 . S
C193 H188 0.929 . S
C193 C192 1.394 . S
C193 C194 1.382 . S
C194 C193 1.382 . S
C194 C195 1.392 . S
C194 N196 1.420 . S
C195 H189 0.930 . S
C195 C191 1.407 . S
C195 C194 1.392 . S
N196 C194 1.420 . S
N196 C197 1.244 . S
C197 N196 1.244 . S
Eu198 C207 2.828 1_565 S
Eu198 O209 2.392 . S
Eu198 O211 2.418 . S
Eu198 O216 2.373 1_565 S
Eu198 O219 2.488 . S
Eu198 O220 2.471 1_565 S
Eu198 O221 2.349 1_565 S
Eu199 O208 2.373 1_545 S
Eu199 O212 2.488 . S
Eu199 O213 2.471 1_545 S
Eu199 O214 2.349 1_545 S
Eu199 O217 2.392 . S
Eu199 O218 2.418 . S
Eu199 C228 2.828 . S
C200 O218 1.244 . S
C200 O221 1.265 1_554 S
C201 C202 1.379 . S
C201 C205 1.373 1_545 S
C201 C207 1.505 . S
C202 C201 1.379 . S
C202 C204 1.369 . S
C202 H230 0.930 . S
C203 C205 1.383 1_545 S
C203 C206 1.382 . S
C203 H231 0.930 1_545 S
C204 C202 1.369 . S
C204 C206 1.392 . S
C204 H232 0.930 . S
C205 C201 1.373 1_565 S
C205 C203 1.383 1_565 S
C205 H233 0.931 . S
C206 C203 1.382 . S
C206 C204 1.392 . S
C207 Eu198 2.828 1_545 S
C207 C201 1.505 . S
C207 O219 1.249 1_545 S
C207 O220 1.244 . S
O208 Eu199 2.373 1_565 S
O208 C210 1.258 . S
O209 Eu198 2.392 . S
O209 C210 1.242 1_556 S
C210 O208 1.258 . S
C210 O209 1.242 1_554 S
O211 Eu198 2.418 . S
O211 C215 1.244 1_556 S
O212 Eu199 2.488 . S
O212 C228 1.249 . S
O213 Eu199 2.471 1_565 S
O213 C228 1.244 1_565 S
O214 Eu199 2.349 1_565 S
O214 C215 1.265 . S
C215 O211 1.244 1_554 S
C215 O214 1.265 . S
O216 Eu198 2.373 1_545 S
O216 C229 1.258 . S
O217 Eu199 2.392 . S
O217 C229 1.242 1_554 S
O218 Eu199 2.418 . S
O218 C200 1.244 . S
O219 Eu198 2.488 . S
O219 C207 1.249 1_565 S
O220 Eu198 2.471 1_545 S
O220 C207 1.244 . S
O221 Eu198 2.349 1_545 S
O221 C200 1.265 1_556 S
C222 C223 1.379 . S
C222 C226 1.373 1_565 S
C222 C228 1.505 1_565 S
C223 C222 1.379 . S
C223 C225 1.369 . S
C223 H234 0.930 . S
C224 C226 1.383 . S
C224 C227 1.382 1_545 S
C224 H235 0.930 . S
C225 C223 1.369 . S
C225 C227 1.392 . S
C225 H236 0.930 . S
C226 C222 1.373 1_545 S
C226 C224 1.383 . S
C226 H237 0.931 . S
C227 C224 1.382 1_565 S
C227 C225 1.392 . S
C228 Eu199 2.828 . S
C228 O212 1.249 . S
C228 O213 1.244 1_545 S
C228 C222 1.505 1_545 S
C229 O216 1.258 . S
C229 O217 1.242 1_556 S
H230 C202 0.930 . S
H231 C203 0.930 1_565 S
H232 C204 0.930 . S
H233 C205 0.931 . S
H234 C223 0.930 . S
H235 C224 0.930 . S
H236 C225 0.930 . S
H237 C226 0.931 . S
Eu238 C247 2.818 1_455 S
Eu238 O249 2.392 1_556 S
Eu238 O251 2.418 . S
Eu238 O256 2.373 1_455 S
Eu238 O259 2.488 . S
Eu238 O260 2.471 1_455 S
Eu238 O261 2.349 1_455 S
Eu239 O248 2.373 1_655 S
Eu239 O252 2.488 . S
Eu239 O253 2.471 1_655 S
Eu239 O254 2.349 1_655 S
Eu239 O257 2.392 . S
Eu239 O258 2.418 . S
Eu239 C268 2.828 1_655 S
C240 O258 1.244 . S
C240 O261 1.265 1_554 S
C241 C242 1.379 . S
C241 C245 1.373 1_655 S
C241 C247 1.517 . S
C242 C241 1.379 . S
C242 C244 1.369 . S
C242 H270 0.930 . S
C243 C245 1.383 1_655 S
C243 C246 1.382 . S
C243 H271 0.930 1_655 S
C244 C242 1.369 . S
C244 C246 1.392 . S
C244 H272 0.930 . S
C245 C241 1.373 1_455 S
C245 C243 1.383 1_455 S
C245 H273 0.931 . S
C246 C243 1.382 . S
C246 C244 1.392 . S
C247 Eu238 2.818 1_655 S
C247 C241 1.517 . S
C247 O259 1.234 1_655 S
C247 O260 1.248 . S
O248 Eu239 2.373 1_455 S
O248 C250 1.258 . S
O249 Eu238 2.392 1_554 S
O249 C250 1.242 . S
C250 O248 1.258 . S
C250 O249 1.242 . S
O251 Eu238 2.418 . S
O251 C255 1.244 1_556 S
O252 Eu239 2.488 . S
O252 C268 1.249 1_655 S
O253 Eu239 2.471 1_455 S
O253 C268 1.244 . S
O254 Eu239 2.349 1_455 S
O254 C255 1.265 . S
C255 O251 1.244 1_554 S
C255 O254 1.265 . S
O256 Eu238 2.373 1_655 S
O256 C269 1.258 . S
O257 Eu239 2.392 . S
O257 C269 1.242 1_554 S
O258 Eu239 2.418 . S
O258 C240 1.244 . S
O259 Eu238 2.488 . S
O259 C247 1.234 1_455 S
O260 Eu238 2.471 1_655 S
O260 C247 1.248 . S
O261 Eu238 2.349 1_655 S
O261 C240 1.265 1_556 S
C262 C263 1.379 . S
C262 C266 1.373 1_455 S
C262 C268 1.505 . S
C263 C262 1.379 . S
C263 C265 1.369 . S
C263 H274 0.930 . S
C264 C266 1.383 1_455 S
C264 C267 1.382 . S
C264 H275 0.930 1_455 S
C265 C263 1.369 . S
C265 C267 1.392 . S
C265 H276 0.930 . S
C266 C262 1.373 1_655 S
C266 C264 1.383 1_655 S
C266 H277 0.931 . S
C267 C264 1.382 . S
C267 C265 1.392 . S
C268 Eu239 2.828 1_455 S
C268 O252 1.249 1_455 S
C268 O253 1.244 . S
C268 C262 1.505 . S
C269 O256 1.258 . S
C269 O257 1.242 1_556 S
H270 C242 0.930 . S
H271 C243 0.930 1_455 S
H272 C244 0.930 . S
H273 C245 0.931 . S
H274 C263 0.930 . S
H275 C264 0.930 1_655 S
H276 C265 0.930 . S
H277 C266 0.931 . S
Eu278 C287 2.828 . S
Eu278 O289 2.392 . S
Eu278 O291 2.418 . S
Eu278 O296 2.373 . S
Eu278 O299 2.488 . S
Eu278 O300 2.471 . S
Eu278 O301 2.349 . S
Eu279 O288 2.373 . S
Eu279 O292 2.488 . S
Eu279 O293 2.471 . S
Eu279 O294 2.354 . S
Eu279 O297 2.392 1_556 S
Eu279 O298 2.418 . S
Eu279 C308 2.828 . S
C280 O298 1.244 1_554 S
C280 O301 1.265 . S
C281 C282 1.379 . S
C281 C285 1.373 . S
C281 C287 1.505 . S
C282 C281 1.379 . S
C282 C284 1.369 . S
C282 H310 0.930 . S
C283 C285 1.383 . S
C283 C286 1.382 . S
C283 H311 0.930 . S
C284 C282 1.369 . S
C284 C286 1.392 . S
C284 H312 0.930 . S
C285 C281 1.373 . S
C285 C283 1.383 . S
C285 H313 0.931 . S
C286 C283 1.382 . S
C286 C284 1.392 . S
C287 Eu278 2.828 . S
C287 C281 1.505 . S
C287 O299 1.249 . S
C287 O300 1.244 . S
O288 Eu279 2.373 . S
O288 C290 1.258 . S
O289 Eu278 2.392 . S
O289 C290 1.242 1_554 S
C290 O288 1.258 . S
C290 O289 1.242 1_556 S
O291 Eu278 2.418 . S
O291 C295 1.244 . S
O292 Eu279 2.488 . S
O292 C308 1.249 . S
O293 Eu279 2.471 . S
O293 C308 1.244 . S
O294 Eu279 2.354 . S
O294 C295 1.260 1_556 S
C295 O291 1.244 . S
C295 O294 1.260 1_554 S
O296 Eu278 2.373 . S
O296 C309 1.258 . S
O297 Eu279 2.392 1_554 S
O297 C309 1.242 . S
O298 Eu279 2.418 . S
O298 C280 1.244 1_556 S
O299 Eu278 2.488 . S
O299 C287 1.249 . S
O300 Eu278 2.471 . S
O300 C287 1.244 . S
O301 Eu278 2.349 . S
O301 C280 1.265 . S
C302 C303 1.379 . S
C302 C306 1.373 . S
C302 C308 1.505 . S
C303 C302 1.379 . S
C303 C305 1.369 . S
C303 H314 0.930 . S
C304 C306 1.383 . S
C304 C307 1.382 . S
C304 H315 0.930 . S
C305 C303 1.369 . S
C305 C307 1.392 . S
C305 H316 0.930 . S
C306 C302 1.373 . S
C306 C304 1.383 . S
C306 H317 0.931 . S
C307 C304 1.382 . S
C307 C305 1.392 . S
C308 Eu279 2.828 . S
C308 O292 1.249 . S
C308 O293 1.244 . S
C308 C302 1.505 . S
C309 O296 1.258 . S
C309 O297 1.242 . S
H310 C282 0.930 . S
H311 C283 0.930 . S
H312 C284 0.930 . S
H313 C285 0.931 . S
H314 C303 0.930 . S
H315 C304 0.930 . S
H316 C305 0.930 . S
H317 C306 0.931 . S
Eu318 C327 2.828 . S
Eu318 O329 2.392 . S
Eu318 O331 2.418 . S
Eu318 O336 2.373 . S
Eu318 O339 2.488 . S
Eu318 O340 2.471 . S
Eu318 O341 2.349 . S
Eu319 O328 2.373 . S
Eu319 O332 2.488 . S
Eu319 O333 2.471 . S
Eu319 O334 2.349 . S
Eu319 O337 2.392 . S
Eu319 O338 2.418 . S
Eu319 C348 2.828 . S
C320 O338 1.244 . S
C320 O341 1.265 . S
C321 C322 1.379 . S
C321 C325 1.373 . S
C321 C327 1.505 . S
C322 C321 1.379 . S
C322 C324 1.369 . S
C322 H350 0.930 . S
C323 C325 1.383 . S
C323 C326 1.382 . S
C323 H351 0.930 . S
C324 C322 1.369 . S
C324 C326 1.392 . S
C324 H352 0.930 . S
C325 C321 1.373 . S
C325 C323 1.383 . S
C325 H353 0.931 . S
C326 C323 1.382 . S
C326 C324 1.392 . S
C327 Eu318 2.828 . S
C327 C321 1.505 . S
C327 O339 1.249 . S
C327 O340 1.244 . S
O328 Eu319 2.373 . S
O328 C330 1.258 . S
O329 Eu318 2.392 . S
O329 C330 1.242 . S
C330 O328 1.258 . S
C330 O329 1.242 . S
O331 Eu318 2.418 . S
O331 C335 1.244 . S
O332 Eu319 2.488 . S
O332 C348 1.249 . S
O333 Eu319 2.471 . S
O333 C348 1.244 . S
O334 Eu319 2.349 . S
O334 C335 1.265 . S
C335 O331 1.244 . S
C335 O334 1.265 . S
O336 Eu318 2.373 . S
O336 C349 1.258 . S
O337 Eu319 2.392 . S
O337 C349 1.242 . S
O338 Eu319 2.418 . S
O338 C320 1.244 . S
O339 Eu318 2.488 . S
O339 C327 1.249 . S
O340 Eu318 2.471 . S
O340 C327 1.244 . S
O341 Eu318 2.349 . S
O341 C320 1.265 . S
C342 C343 1.379 . S
C342 C346 1.373 . S
C342 C348 1.505 . S
C343 C342 1.379 . S
C343 C345 1.369 . S
C343 H354 0.930 . S
C344 C346 1.383 . S
C344 C347 1.382 . S
C344 H355 0.930 . S
C345 C343 1.369 . S
C345 C347 1.392 . S
C345 H356 0.930 . S
C346 C342 1.373 . S
C346 C344 1.383 . S
C346 H357 0.931 . S
C347 C344 1.382 . S
C347 C345 1.392 . S
C348 Eu319 2.828 . S
C348 O332 1.249 . S
C348 O333 1.244 . S
C348 C342 1.505 . S
C349 O336 1.258 . S
C349 O337 1.242 . S
H350 C322 0.930 . S
H351 C323 0.930 . S
H352 C324 0.930 . S
H353 C325 0.931 . S
H354 C343 0.930 . S
H355 C344 0.930 . S
H356 C345 0.930 . S
H357 C346 0.931 . S
Eu358 C367 2.828 . S
Eu358 O369 2.392 . S
Eu358 O371 2.418 . S
Eu358 O376 2.373 . S
Eu358 O379 2.488 . S
Eu358 O380 2.471 . S
Eu358 O381 2.349 . S
Eu359 O368 2.373 . S
Eu359 O372 2.488 . S
Eu359 O373 2.471 . S
Eu359 O374 2.349 . S
Eu359 O377 2.392 . S
Eu359 O378 2.418 . S
Eu359 C388 2.828 . S
C360 O378 1.244 . S
C360 O381 1.265 . S
C361 C362 1.379 . S
C361 C365 1.373 . S
C361 C367 1.505 . S
C362 C361 1.379 . S
C362 C364 1.369 . S
C362 H390 0.930 . S
C363 C365 1.383 . S
C363 C366 1.382 . S
C363 H391 0.930 . S
C364 C362 1.369 . S
C364 C366 1.392 . S
C364 H392 0.930 . S
C365 C361 1.373 . S
C365 C363 1.383 . S
C365 H393 0.931 . S
C366 C363 1.382 . S
C366 C364 1.392 . S
C367 Eu358 2.828 . S
C367 C361 1.505 . S
C367 O379 1.249 . S
C367 O380 1.244 . S
O368 Eu359 2.373 . S
O368 C370 1.258 . S
O369 Eu358 2.392 . S
O369 C370 1.242 . S
C370 O368 1.258 . S
C370 O369 1.242 . S
O371 Eu358 2.418 . S
O371 C375 1.244 . S
O372 Eu359 2.488 . S
O372 C388 1.249 . S
O373 Eu359 2.471 . S
O373 C388 1.244 . S
O374 Eu359 2.349 . S
O374 C375 1.265 . S
C375 O371 1.244 . S
C375 O374 1.265 . S
O376 Eu358 2.373 . S
O376 C389 1.258 . S
O377 Eu359 2.392 . S
O377 C389 1.242 . S
O378 Eu359 2.418 . S
O378 C360 1.244 . S
O379 Eu358 2.488 . S
O379 C367 1.249 . S
O380 Eu358 2.471 . S
O380 C367 1.244 . S
O381 Eu358 2.349 . S
O381 C360 1.265 . S
C382 C383 1.379 . S
C382 C386 1.373 . S
C382 C388 1.505 . S
C383 C382 1.379 . S
C383 C385 1.369 . S
C383 H394 0.930 . S
C384 C386 1.383 . S
C384 C387 1.382 . S
C384 H395 0.930 . S
C385 C383 1.369 . S
C385 C387 1.392 . S
C385 H396 0.930 . S
C386 C382 1.373 . S
C386 C384 1.383 . S
C386 H397 0.931 . S
C387 C384 1.382 . S
C387 C385 1.392 . S
C388 Eu359 2.828 . S
C388 O372 1.249 . S
C388 O373 1.244 . S
C388 C382 1.505 . S
C389 O376 1.258 . S
C389 O377 1.242 . S
H390 C362 0.930 . S
H391 C363 0.930 . S
H392 C364 0.930 . S
H393 C365 0.931 . S
H394 C383 0.930 . S
H395 C384 0.930 . S
H396 C385 0.930 . S
H397 C386 0.931 . S
Eu398 C407 2.828 . S
Eu398 O409 2.392 . S
Eu398 O411 2.418 . S
Eu398 O416 2.373 . S
Eu398 O419 2.488 . S
Eu398 O420 2.471 . S
Eu398 O421 2.349 . S
Eu399 O408 2.373 . S
Eu399 O412 2.488 . S
Eu399 O413 2.471 . S
Eu399 O414 2.349 . S
Eu399 O417 2.392 . S
Eu399 O418 2.418 . S
Eu399 C428 2.828 . S
C400 O418 1.244 . S
C400 O421 1.265 . S
C401 C402 1.379 . S
C401 C405 1.373 . S
C401 C407 1.505 . S
C402 C401 1.379 . S
C402 C404 1.369 . S
C402 H430 0.930 . S
C403 C405 1.383 . S
C403 C406 1.382 . S
C403 H431 0.930 . S
C404 C402 1.369 . S
C404 C406 1.392 . S
C404 H432 0.930 . S
C405 C401 1.373 . S
C405 C403 1.383 . S
C405 H433 0.931 . S
C406 C403 1.382 . S
C406 C404 1.392 . S
C407 Eu398 2.828 . S
C407 C401 1.505 . S
C407 O419 1.249 . S
C407 O420 1.244 . S
O408 Eu399 2.373 . S
O408 C410 1.258 . S
O409 Eu398 2.392 . S
O409 C410 1.242 . S
C410 O408 1.258 . S
C410 O409 1.242 . S
O411 Eu398 2.418 . S
O411 C415 1.244 . S
O412 Eu399 2.488 . S
O412 C428 1.249 . S
O413 Eu399 2.471 . S
O413 C428 1.244 . S
O414 Eu399 2.349 . S
O414 C415 1.265 . S
C415 O411 1.244 . S
C415 O414 1.265 . S
O416 Eu398 2.373 . S
O416 C429 1.258 . S
O417 Eu399 2.392 . S
O417 C429 1.242 . S
O418 Eu399 2.418 . S
O418 C400 1.244 . S
O419 Eu398 2.488 . S
O419 C407 1.249 . S
O420 Eu398 2.471 . S
O420 C407 1.244 . S
O421 Eu398 2.349 . S
O421 C400 1.265 . S
C422 C423 1.379 . S
C422 C426 1.373 . S
C422 C428 1.505 . S
C423 C422 1.379 . S
C423 C425 1.369 . S
C423 H434 0.930 . S
C424 C426 1.383 . S
C424 C427 1.382 . S
C424 H435 0.930 . S
C425 C423 1.369 . S
C425 C427 1.392 . S
C425 H436 0.930 . S
C426 C422 1.373 . S
C426 C424 1.383 . S
C426 H437 0.931 . S
C427 C424 1.382 . S
C427 C425 1.392 . S
C428 Eu399 2.828 . S
C428 O412 1.249 . S
C428 O413 1.244 . S
C428 C422 1.505 . S
C429 O416 1.258 . S
C429 O417 1.242 . S
H430 C402 0.930 . S
H431 C403 0.930 . S
H432 C404 0.930 . S
H433 C405 0.931 . S
H434 C423 0.930 . S
H435 C424 0.930 . S
H436 C425 0.930 . S
H437 C426 0.931 . S
Eu438 C447 2.828 . S
Eu438 O449 2.392 . S
Eu438 O451 2.418 . S
Eu438 O456 2.373 . S
Eu438 O459 2.488 . S
Eu438 O460 2.471 . S
Eu438 O461 2.349 . S
Eu439 O448 2.373 . S
Eu439 O452 2.488 . S
Eu439 O453 2.471 . S
Eu439 O454 2.349 . S
Eu439 O457 2.392 . S
Eu439 O458 2.418 . S
Eu439 C468 2.828 . S
C440 O458 1.244 . S
C440 O461 1.265 . S
C441 C442 1.379 . S
C441 C445 1.373 . S
C441 C447 1.505 . S
C442 C441 1.379 . S
C442 C444 1.369 . S
C442 H470 0.930 . S
C443 C445 1.383 . S
C443 C446 1.382 . S
C443 H471 0.930 . S
C444 C442 1.369 . S
C444 C446 1.392 . S
C444 H472 0.930 . S
C445 C441 1.373 . S
C445 C443 1.383 . S
C445 H473 0.931 . S
C446 C443 1.382 . S
C446 C444 1.392 . S
C447 Eu438 2.828 . S
C447 C441 1.505 . S
C447 O459 1.249 . S
C447 O460 1.244 . S
O448 Eu439 2.373 . S
O448 C450 1.258 . S
O449 Eu438 2.392 . S
O449 C450 1.242 . S
C450 O448 1.258 . S
C450 O449 1.242 . S
O451 Eu438 2.418 . S
O451 C455 1.244 . S
O452 Eu439 2.488 . S
O452 C468 1.249 . S
O453 Eu439 2.471 . S
O453 C468 1.244 . S
O454 Eu439 2.349 . S
O454 C455 1.265 . S
C455 O451 1.244 . S
C455 O454 1.265 . S
O456 Eu438 2.373 . S
O456 C469 1.258 . S
O457 Eu439 2.392 . S
O457 C469 1.242 . S
O458 Eu439 2.418 . S
O458 C440 1.244 . S
O459 Eu438 2.488 . S
O459 C447 1.249 . S
O460 Eu438 2.471 . S
O460 C447 1.244 . S
O461 Eu438 2.349 . S
O461 C440 1.265 . S
C462 C463 1.379 . S
C462 C466 1.373 . S
C462 C468 1.505 . S
C463 C462 1.379 . S
C463 C465 1.369 . S
C463 H474 0.930 . S
C464 C466 1.383 . S
C464 C467 1.382 . S
C464 H475 0.930 . S
C465 C463 1.369 . S
C465 C467 1.392 . S
C465 H476 0.930 . S
C466 C462 1.373 . S
C466 C464 1.383 . S
C466 H477 0.931 . S
C467 C464 1.382 . S
C467 C465 1.392 . S
C468 Eu439 2.828 . S
C468 O452 1.249 . S
C468 O453 1.244 . S
C468 C462 1.505 . S
C469 O456 1.258 . S
C469 O457 1.242 . S
H470 C442 0.930 . S
H471 C443 0.930 . S
H472 C444 0.930 . S
H473 C445 0.931 . S
H474 C463 0.930 . S
H475 C464 0.930 . S
H476 C465 0.930 . S
H477 C466 0.931 . S
Eu478 C487 2.828 . S
Eu478 O489 2.392 . S
Eu478 O491 2.418 . S
Eu478 O496 2.373 . S
Eu478 O499 2.488 . S
Eu478 O500 2.471 . S
Eu478 O501 2.349 . S
Eu479 O488 2.373 . S
Eu479 O492 2.488 . S
Eu479 O493 2.471 . S
Eu479 O494 2.349 . S
Eu479 O497 2.392 . S
Eu479 O498 2.418 . S
Eu479 C508 2.828 . S
C480 O498 1.244 . S
C480 O501 1.265 . S
C481 C482 1.379 . S
C481 C485 1.373 . S
C481 C487 1.505 . S
C482 C481 1.379 . S
C482 C484 1.369 . S
C482 H510 0.930 . S
C483 C485 1.383 . S
C483 C486 1.382 . S
C483 H511 0.930 . S
C484 C482 1.369 . S
C484 C486 1.392 . S
C484 H512 0.930 . S
C485 C481 1.373 . S
C485 C483 1.383 . S
C485 H513 0.931 . S
C486 C483 1.382 . S
C486 C484 1.392 . S
C487 Eu478 2.828 . S
C487 C481 1.505 . S
C487 O499 1.249 . S
C487 O500 1.244 . S
O488 Eu479 2.373 . S
O488 C490 1.258 . S
O489 Eu478 2.392 . S
O489 C490 1.242 . S
C490 O488 1.258 . S
C490 O489 1.242 . S
O491 Eu478 2.418 . S
O491 C495 1.244 . S
O492 Eu479 2.488 . S
O492 C508 1.249 . S
O493 Eu479 2.471 . S
O493 C508 1.244 . S
O494 Eu479 2.349 . S
O494 C495 1.265 . S
C495 O491 1.244 . S
C495 O494 1.265 . S
O496 Eu478 2.373 . S
O496 C509 1.258 . S
O497 Eu479 2.392 . S
O497 C509 1.242 . S
O498 Eu479 2.418 . S
O498 C480 1.244 . S
O499 Eu478 2.488 . S
O499 C487 1.249 . S
O500 Eu478 2.471 . S
O500 C487 1.244 . S
O501 Eu478 2.349 . S
O501 C480 1.265 . S
C502 C503 1.379 . S
C502 C506 1.373 . S
C502 C508 1.505 . S
C503 C502 1.379 . S
C503 C505 1.369 . S
C503 H514 0.930 . S
C504 C506 1.383 . S
C504 C507 1.382 . S
C504 H515 0.930 . S
C505 C503 1.369 . S
C505 C507 1.392 . S
C505 H516 0.930 . S
C506 C502 1.373 . S
C506 C504 1.383 . S
C506 H517 0.931 . S
C507 C504 1.382 . S
C507 C505 1.392 . S
C508 Eu479 2.828 . S
C508 O492 1.249 . S
C508 O493 1.244 . S
C508 C502 1.505 . S
C509 O496 1.258 . S
C509 O497 1.242 . S
H510 C482 0.930 . S
H511 C483 0.930 . S
H512 C484 0.930 . S
H513 C485 0.931 . S
H514 C503 0.930 . S
H515 C504 0.930 . S
H516 C505 0.930 . S
H517 C506 0.931 . S
Eu518 C527 2.828 . S
Eu518 O529 2.392 . S
Eu518 O531 2.418 . S
Eu518 O536 2.373 . S
Eu518 O539 2.488 . S
Eu518 O540 2.471 . S
Eu518 O541 2.349 . S
Eu519 O528 2.373 . S
Eu519 O532 2.488 . S
Eu519 O533 2.471 . S
Eu519 O534 2.349 . S
Eu519 O537 2.392 . S
Eu519 O538 2.418 . S
Eu519 C548 2.828 . S
C520 O538 1.244 . S
C520 O541 1.265 . S
C521 C522 1.379 . S
C521 C525 1.373 . S
C521 C527 1.505 . S
C522 C521 1.379 . S
C522 C524 1.369 . S
C522 H550 0.930 . S
C523 C525 1.383 . S
C523 C526 1.382 . S
C523 H551 0.930 . S
C524 C522 1.369 . S
C524 C526 1.392 . S
C524 H552 0.930 . S
C525 C521 1.373 . S
C525 C523 1.383 . S
C525 H553 0.931 . S
C526 C523 1.382 . S
C526 C524 1.392 . S
C527 Eu518 2.828 . S
C527 C521 1.505 . S
C527 O539 1.249 . S
C527 O540 1.244 . S
O528 Eu519 2.373 . S
O528 C530 1.258 . S
O529 Eu518 2.392 . S
O529 C530 1.242 . S
C530 O528 1.258 . S
C530 O529 1.242 . S
O531 Eu518 2.418 . S
O531 C535 1.244 . S
O532 Eu519 2.488 . S
O532 C548 1.249 . S
O533 Eu519 2.471 . S
O533 C548 1.244 . S
O534 Eu519 2.349 . S
O534 C535 1.265 . S
C535 O531 1.244 . S
C535 O534 1.265 . S
O536 Eu518 2.373 . S
O536 C549 1.258 . S
O537 Eu519 2.392 . S
O537 C549 1.242 . S
O538 Eu519 2.418 . S
O538 C520 1.244 . S
O539 Eu518 2.488 . S
O539 C527 1.249 . S
O540 Eu518 2.471 . S
O540 C527 1.244 . S
O541 Eu518 2.349 . S
O541 C520 1.265 . S
C542 C543 1.379 . S
C542 C546 1.373 . S
C542 C548 1.505 . S
C543 C542 1.379 . S
C543 C545 1.369 . S
C543 H554 0.930 . S
C544 C546 1.383 . S
C544 C547 1.382 . S
C544 H555 0.930 . S
C545 C543 1.369 . S
C545 C547 1.392 . S
C545 H556 0.930 . S
C546 C542 1.373 . S
C546 C544 1.383 . S
C546 H557 0.931 . S
C547 C544 1.382 . S
C547 C545 1.392 . S
C548 Eu519 2.828 . S
C548 O532 1.249 . S
C548 O533 1.244 . S
C548 C542 1.505 . S
C549 O536 1.258 . S
C549 O537 1.242 . S
H550 C522 0.930 . S
H551 C523 0.930 . S
H552 C524 0.930 . S
H553 C525 0.931 . S
H554 C543 0.930 . S
H555 C544 0.930 . S
H556 C545 0.930 . S
H557 C546 0.931 . S
H558 C570 0.930 . S
H559 C572 0.930 . S
H560 C573 0.930 . S
H561 C577 0.959 . S
H562 C577 0.959 . S
H563 C577 0.961 . S
H564 C578 0.960 . S
H565 C578 0.961 . S
H566 C578 0.959 . S
H567 C581 0.929 . S
H568 C582 0.931 . S
H569 C584 0.930 . S
C570 H558 0.930 . S
C570 C571 1.399 . S
C570 C575 1.399 . S
C571 C570 1.399 . S
C571 C572 1.376 . S
C572 H559 0.930 . S
C572 C571 1.376 . S
C572 C573 1.388 . S
C573 H560 0.930 . S
C573 C572 1.388 . S
C573 C574 1.390 . S
C574 C573 1.390 . S
C574 C575 1.394 . S
C574 C580 1.465 . S
C575 C570 1.399 . S
C575 C574 1.394 . S
C575 C576 1.516 . S
C576 C575 1.516 . S
C576 C577 1.502 . S
C576 C578 1.561 . S
C576 C579 1.526 . S
C577 H561 0.959 . S
C577 H562 0.959 . S
C577 H563 0.961 . S
C577 C576 1.502 . S
C578 H564 0.960 . S
C578 H565 0.961 . S
C578 H566 0.959 . S
C578 C576 1.561 . S
C579 C576 1.526 . S
C579 C580 1.396 . S
C579 C584 1.390 . S
C580 C574 1.465 . S
C580 C579 1.396 . S
C580 C581 1.399 . S
C581 H567 0.929 . S
C581 C580 1.399 . S
C581 C582 1.385 . S
C582 H568 0.931 . S
C582 C581 1.385 . S
C582 C583 1.389 . S
C583 C582 1.389 . S
C583 C584 1.387 . S
C584 H569 0.930 . S
C584 C579 1.390 . S
C584 C583 1.387 . S
H585 C597 0.930 . S
H586 C599 0.930 . S
H587 C600 0.930 . S
H588 C604 0.959 . S
H589 C604 0.959 . S
H590 C604 0.961 . S
H591 C605 0.960 . S
H592 C605 0.961 1_556 S
H593 C605 0.959 . S
H594 C608 0.929 . S
H595 C609 0.931 . S
H596 C611 0.930 . S
C597 H585 0.930 . S
C597 C598 1.399 . S
C597 C602 1.399 . S
C598 C597 1.399 . S
C598 C599 1.376 . S
C599 H586 0.930 . S
C599 C598 1.376 . S
C599 C600 1.388 . S
C600 H587 0.930 . S
C600 C599 1.388 . S
C600 C601 1.390 . S
C601 C600 1.390 . S
C601 C602 1.394 . S
C601 C607 1.465 . S
C602 C597 1.399 . S
C602 C601 1.394 . S
C602 C603 1.516 . S
C603 C602 1.516 . S
C603 C604 1.502 . S
C603 C605 1.561 . S
C603 C606 1.526 . S
C604 H588 0.959 . S
C604 H589 0.959 . S
C604 H590 0.961 . S
C604 C603 1.502 . S
C605 H591 0.960 . S
C605 H592 0.961 1_554 S
C605 H593 0.959 . S
C605 C603 1.561 . S
C606 C603 1.526 . S
C606 C607 1.396 . S
C606 C611 1.390 . S
C607 C601 1.465 . S
C607 C606 1.396 . S
C607 C608 1.399 . S
C608 H594 0.929 . S
C608 C607 1.399 . S
C608 C609 1.385 . S
C609 H595 0.931 . S
C609 C608 1.385 . S
C609 C610 1.389 . S
C610 C609 1.389 . S
C610 C611 1.387 . S
C611 H596 0.930 . S
C611 C606 1.390 . S
C611 C610 1.387 . S
H612 C624 0.930 . S
H613 C626 0.930 . S
H614 C627 0.930 . S
H615 C631 0.955 . S
H616 C631 0.962 1_556 S
H617 C631 0.963 1_556 S
H618 C632 0.960 . S
H619 C632 0.961 . S
H620 C632 0.959 . S
H621 C635 0.929 . S
H622 C636 0.931 . S
H623 C638 0.930 1_556 S
C624 H612 0.930 . S
C624 C625 1.399 . S
C624 C629 1.399 . S
C625 C624 1.399 . S
C625 C626 1.376 . S
C626 H613 0.930 . S
C626 C625 1.376 . S
C626 C627 1.388 . S
C627 H614 0.930 . S
C627 C626 1.388 . S
C627 C628 1.390 . S
C628 C627 1.390 . S
C628 C629 1.394 . S
C628 C634 1.465 . S
C629 C624 1.399 . S
C629 C628 1.394 . S
C629 C630 1.516 . S
C630 C629 1.516 . S
C630 C631 1.501 . S
C630 C632 1.561 1_554 S
C630 C633 1.526 . S
C631 H615 0.955 . S
C631 H616 0.962 1_554 S
C631 H617 0.963 1_554 S
C631 C630 1.501 . S
C632 H618 0.960 . S
C632 H619 0.961 . S
C632 H620 0.959 . S
C632 C630 1.561 1_556 S
C633 C630 1.526 . S
C633 C634 1.396 . S
C633 C638 1.390 . S
C634 C628 1.465 . S
C634 C633 1.396 . S
C634 C635 1.399 . S
C635 H621 0.929 . S
C635 C634 1.399 . S
C635 C636 1.385 . S
C636 H622 0.931 . S
C636 C635 1.385 . S
C636 C637 1.389 . S
C637 C636 1.389 . S
C637 C638 1.387 . S
C638 H623 0.930 1_554 S
C638 C633 1.390 . S
C638 C637 1.387 . S
H639 C651 0.930 . S
H640 C653 0.930 . S
H641 C654 0.930 . S
H642 C658 0.959 1_556 S
H643 C658 0.959 . S
H644 C658 0.961 . S
H645 C659 0.960 . S
H646 C659 0.961 . S
H647 C659 0.959 . S
H648 C662 0.929 . S
H649 C663 0.931 . S
H650 C665 0.933 . S
C651 H639 0.930 . S
C651 C652 1.399 . S
C651 C656 1.399 . S
C652 C651 1.399 . S
C652 C653 1.376 . S
C653 H640 0.930 . S
C653 C652 1.376 . S
C653 C654 1.388 . S
C654 H641 0.930 . S
C654 C653 1.388 . S
C654 C655 1.390 . S
C655 C654 1.390 . S
C655 C656 1.394 . S
C655 C661 1.465 . S
C656 C651 1.399 . S
C656 C655 1.394 . S
C656 C657 1.513 . S
C657 C656 1.513 . S
C657 C658 1.503 1_556 S
C657 C659 1.566 1_556 S
C657 C660 1.524 . S
C658 H642 0.959 1_554 S
C658 H643 0.959 . S
C658 H644 0.961 . S
C658 C657 1.503 1_554 S
C659 H645 0.960 . S
C659 H646 0.961 . S
C659 H647 0.959 . S
C659 C657 1.566 1_554 S
C660 C657 1.524 . S
C660 C661 1.396 . S
C660 C665 1.389 1_556 S
C661 C655 1.465 . S
C661 C660 1.396 . S
C661 C662 1.399 . S
C662 H648 0.929 . S
C662 C661 1.399 . S
C662 C663 1.385 . S
C663 H649 0.931 . S
C663 C662 1.385 . S
C663 C664 1.389 . S
C664 C663 1.389 . S
C664 C665 1.385 1_556 S
C665 H650 0.933 . S
C665 C660 1.389 1_554 S
C665 C664 1.385 1_554 S
H666 C678 0.930 . S
H667 C680 0.930 . S
H668 C681 0.930 . S
H669 C685 0.959 . S
H670 C685 0.959 . S
H671 C685 0.961 . S
H672 C686 0.960 . S
H673 C686 0.961 1_554 S
H674 C686 0.959 1_554 S
H675 C689 0.929 . S
H676 C690 0.931 . S
H677 C692 0.930 . S
C678 H666 0.930 . S
C678 C679 1.399 . S
C678 C683 1.399 . S
C679 C678 1.399 . S
C679 C680 1.376 . S
C680 H667 0.930 . S
C680 C679 1.376 . S
C680 C681 1.388 . S
C681 H668 0.930 . S
C681 C680 1.388 . S
C681 C682 1.390 . S
C682 C681 1.390 . S
C682 C683 1.394 . S
C682 C688 1.465 . S
C683 C678 1.399 . S
C683 C682 1.394 . S
C683 C684 1.516 . S
C684 C683 1.516 . S
C684 C685 1.502 . S
C684 C686 1.561 . S
C684 C687 1.526 . S
C685 H669 0.959 . S
C685 H670 0.959 . S
C685 H671 0.961 . S
C685 C684 1.502 . S
C686 H672 0.960 . S
C686 H673 0.961 1_556 S
C686 H674 0.959 1_556 S
C686 C684 1.561 . S
C687 C684 1.526 . S
C687 C688 1.396 . S
C687 C692 1.390 . S
C688 C682 1.465 . S
C688 C687 1.396 . S
C688 C689 1.399 . S
C689 H675 0.929 . S
C689 C688 1.399 . S
C689 C690 1.385 . S
C690 H676 0.931 . S
C690 C689 1.385 . S
C690 C691 1.389 . S
C691 C690 1.389 . S
C691 C692 1.387 . S
C692 H677 0.930 . S
C692 C687 1.390 . S
C692 C691 1.387 . S
H693 C705 0.930 1_554 S
H694 C707 0.930 . S
H695 C708 0.930 . S
H696 C712 0.959 . S
H697 C712 0.959 . S
H698 C712 0.961 . S
H699 C713 0.960 . S
H700 C713 0.961 . S
H701 C713 0.959 . S
H702 C716 0.929 . S
H703 C717 0.931 . S
H704 C719 0.930 . S
C705 H693 0.930 1_556 S
C705 C706 1.399 . S
C705 C710 1.399 . S
C706 C705 1.399 . S
C706 C707 1.376 . S
C707 H694 0.930 . S
C707 C706 1.376 . S
C707 C708 1.388 . S
C708 H695 0.930 . S
C708 C707 1.388 . S
C708 C709 1.390 . S
C709 C708 1.390 . S
C709 C710 1.394 . S
C709 C715 1.465 . S
C710 C705 1.399 . S
C710 C709 1.394 . S
C710 C711 1.516 1_556 S
C711 C710 1.516 1_554 S
C711 C712 1.502 . S
C711 C713 1.561 . S
C711 C714 1.536 . S
C712 H696 0.959 . S
C712 H697 0.959 . S
C712 H698 0.961 . S
C712 C711 1.502 . S
C713 H699 0.960 . S
C713 H700 0.961 . S
C713 H701 0.959 . S
C713 C711 1.561 . S
C714 C711 1.536 . S
C714 C715 1.373 1_554 S
C714 C719 1.400 . S
C715 C709 1.465 . S
C715 C714 1.373 1_556 S
C715 C716 1.399 . S
C716 H702 0.929 . S
C716 C715 1.399 . S
C716 C717 1.385 . S
C717 H703 0.931 . S
C717 C716 1.385 . S
C717 C718 1.389 . S
C718 C717 1.389 . S
C718 C719 1.387 1_556 S
C719 H704 0.930 . S
C719 C714 1.400 . S
C719 C718 1.387 1_554 S
H720 C732 0.930 . S
H721 C734 0.928 . S
H722 C735 0.920 1_554 S
H723 C739 0.959 . S
H724 C739 0.959 . S
H725 C739 0.961 . S
H726 C740 0.960 . S
H727 C740 0.961 . S
H728 C740 0.959 . S
H729 C743 0.929 . S
H730 C744 0.931 . S
H731 C746 0.930 . S
C732 H720 0.930 . S
C732 C733 1.399 . S
C732 C737 1.399 . S
C733 C732 1.399 . S
C733 C734 1.376 . S
C734 H721 0.928 . S
C734 C733 1.376 . S
C734 C735 1.393 . S
C735 H722 0.920 1_556 S
C735 C734 1.393 . S
C735 C736 1.395 . S
C736 C735 1.395 . S
C736 C737 1.394 . S
C736 C742 1.465 . S
C737 C732 1.399 . S
C737 C736 1.394 . S
C737 C738 1.516 . S
C738 C737 1.516 . S
C738 C739 1.502 . S
C738 C740 1.561 . S
C738 C741 1.526 . S
C739 H723 0.959 . S
C739 H724 0.959 . S
C739 H725 0.961 . S
C739 C738 1.502 . S
C740 H726 0.960 . S
C740 H727 0.961 . S
C740 H728 0.959 . S
C740 C738 1.561 . S
C741 C738 1.526 . S
C741 C742 1.396 . S
C741 C746 1.390 . S
C742 C736 1.465 . S
C742 C741 1.396 . S
C742 C743 1.399 1_556 S
C743 H729 0.929 . S
C743 C742 1.399 1_554 S
C743 C744 1.385 . S
C744 H730 0.931 . S
C744 C743 1.385 . S
C744 C745 1.389 1_554 S
C745 C744 1.389 1_556 S
C745 C746 1.387 . S
C746 H731 0.930 . S
C746 C741 1.390 . S
C746 C745 1.387 . S
H747 C759 0.930 . S
H748 C761 0.930 . S
H749 C762 0.930 . S
H750 C766 0.959 . S
H751 C766 0.959 1_554 S
H752 C766 0.961 . S
H753 C767 0.960 . S
H754 C767 0.961 . S
H755 C767 0.959 . S
H756 C770 0.929 . S
H757 C771 0.931 . S
H758 C773 0.893 1_554 S
C759 H747 0.930 . S
C759 C760 1.399 . S
C759 C764 1.399 . S
C760 C759 1.399 . S
C760 C761 1.376 . S
C761 H748 0.930 . S
C761 C760 1.376 . S
C761 C762 1.388 . S
C762 H749 0.930 . S
C762 C761 1.388 . S
C762 C763 1.390 . S
C763 C762 1.390 . S
C763 C764 1.394 . S
C763 C769 1.465 . S
C764 C759 1.399 . S
C764 C763 1.394 . S
C764 C765 1.516 . S
C765 C764 1.516 . S
C765 C766 1.502 . S
C765 C767 1.561 1_556 S
C765 C768 1.526 . S
C766 H750 0.959 . S
C766 H751 0.959 1_556 S
C766 H752 0.961 . S
C766 C765 1.502 . S
C767 H753 0.960 . S
C767 H754 0.961 . S
C767 H755 0.959 . S
C767 C765 1.561 1_554 S
C768 C765 1.526 . S
C768 C769 1.396 . S
C768 C773 1.390 . S
C769 C763 1.465 . S
C769 C768 1.396 . S
C769 C770 1.399 . S
C770 H756 0.929 . S
C770 C769 1.399 . S
C770 C771 1.385 . S
C771 H757 0.931 . S
C771 C770 1.385 . S
C771 C772 1.389 . S
C772 C771 1.389 . S
C772 C773 1.387 . S
C773 H758 0.893 1_556 S
C773 C768 1.390 . S
C773 C772 1.387 . S
H774 C786 0.930 . S
H775 C788 0.930 . S
H776 C789 0.930 . S
H777 C793 0.959 . S
H778 C793 0.959 . S
H779 C793 0.961 . S
H780 C794 0.960 . S
H781 C794 0.961 . S
H782 C794 0.959 . S
H783 C797 0.929 . S
H784 C798 0.931 . S
H785 C800 0.930 . S
C786 H774 0.930 . S
C786 C787 1.399 . S
C786 C791 1.399 . S
C787 C786 1.399 . S
C787 C788 1.376 1_556 S
C788 H775 0.930 . S
C788 C787 1.376 1_554 S
C788 C789 1.388 . S
C789 H776 0.930 . S
C789 C788 1.388 . S
C789 C790 1.390 . S
C790 C789 1.390 . S
C790 C791 1.394 1_554 S
C790 C796 1.465 . S
C791 C786 1.399 . S
C791 C790 1.394 1_556 S
C791 C792 1.516 . S
C792 C791 1.516 . S
C792 C793 1.502 . S
C792 C794 1.561 . S
C792 C795 1.526 . S
C793 H777 0.959 . S
C793 H778 0.959 . S
C793 H779 0.961 . S
C793 C792 1.502 . S
C794 H780 0.960 . S
C794 H781 0.961 . S
C794 H782 0.959 . S
C794 C792 1.561 . S
C795 C792 1.526 . S
C795 C796 1.396 1_556 S
C795 C800 1.390 . S
C796 C790 1.465 . S
C796 C795 1.396 1_554 S
C796 C797 1.399 . S
C797 H783 0.929 . S
C797 C796 1.399 . S
C797 C798 1.385 . S
C798 H784 0.931 . S
C798 C797 1.385 . S
C798 C799 1.389 . S
C799 C798 1.389 . S
C799 C800 1.387 1_554 S
C800 H785 0.930 . S
C800 C795 1.390 . S
C800 C799 1.387 1_556 S
H801 C813 0.930 . S
H802 C815 0.930 . S
H803 C816 0.930 1_556 S
H804 C820 0.959 . S
H805 C820 0.959 . S
H806 C820 0.961 . S
H807 C821 0.960 . S
H808 C821 0.961 . S
H809 C821 0.959 . S
H810 C824 0.928 1_556 S
H811 C825 0.934 1_556 S
H812 C827 0.930 . S
C813 H801 0.930 . S
C813 C814 1.399 . S
C813 C818 1.399 . S
C814 C813 1.399 . S
C814 C815 1.376 . S
C815 H802 0.930 . S
C815 C814 1.376 . S
C815 C816 1.388 . S
C816 H803 0.930 1_554 S
C816 C815 1.388 . S
C816 C817 1.390 . S
C817 C816 1.390 . S
C817 C818 1.394 . S
C817 C823 1.465 . S
C818 C813 1.399 . S
C818 C817 1.394 . S
C818 C819 1.516 . S
C819 C818 1.516 . S
C819 C820 1.502 . S
C819 C821 1.561 . S
C819 C822 1.526 . S
C820 H804 0.959 . S
C820 H805 0.959 . S
C820 H806 0.961 . S
C820 C819 1.502 . S
C821 H807 0.960 . S
C821 H808 0.961 . S
C821 H809 0.959 . S
C821 C819 1.561 . S
C822 C819 1.526 . S
C822 C823 1.396 . S
C822 C827 1.390 . S
C823 C817 1.465 . S
C823 C822 1.396 . S
C823 C824 1.400 . S
C824 H810 0.928 1_554 S
C824 C823 1.400 . S
C824 C825 1.386 . S
C825 H811 0.934 1_554 S
C825 C824 1.386 . S
C825 C826 1.386 . S
C826 C825 1.386 . S
C826 C827 1.387 . S
C827 H812 0.930 . S
C827 C822 1.390 . S
C827 C826 1.387 . S
H828 C840 0.930 . S
H829 C842 0.930 . S
H830 C843 0.930 . S
H831 C847 0.959 . S
H832 C847 0.959 . S
H833 C847 0.961 . S
H834 C848 0.960 . S
H835 C848 0.961 . S
H836 C848 0.959 . S
H837 C851 0.929 . S
H838 C852 0.931 . S
H839 C854 0.930 . S
C840 H828 0.930 . S
C840 C841 1.399 . S
C840 C845 1.399 . S
C841 C840 1.399 . S
C841 C842 1.376 . S
C842 H829 0.930 . S
C842 C841 1.376 . S
C842 C843 1.388 . S
C843 H830 0.930 . S
C843 C842 1.388 . S
C843 C844 1.390 . S
C844 C843 1.390 . S
C844 C845 1.394 . S
C844 C850 1.465 . S
C845 C840 1.399 . S
C845 C844 1.394 . S
C845 C846 1.516 . S
C846 C845 1.516 . S
C846 C847 1.502 . S
C846 C848 1.561 . S
C846 C849 1.526 . S
C847 H831 0.959 . S
C847 H832 0.959 . S
C847 H833 0.961 . S
C847 C846 1.502 . S
C848 H834 0.960 . S
C848 H835 0.961 . S
C848 H836 0.959 . S
C848 C846 1.561 . S
C849 C846 1.526 . S
C849 C850 1.396 . S
C849 C854 1.390 . S
C850 C844 1.465 . S
C850 C849 1.396 . S
C850 C851 1.399 . S
C851 H837 0.929 . S
C851 C850 1.399 . S
C851 C852 1.385 . S
C852 H838 0.931 . S
C852 C851 1.385 . S
C852 C853 1.389 . S
C853 C852 1.389 . S
C853 C854 1.387 . S
C854 H839 0.930 . S
C854 C849 1.390 . S
C854 C853 1.387 . S
H855 C867 0.930 . S
H856 C869 0.930 . S
H857 C870 0.930 . S
H858 C874 0.959 . S
H859 C874 0.959 . S
H860 C874 0.961 . S
H861 C875 0.960 . S
H862 C875 0.961 . S
H863 C875 0.959 . S
H864 C878 0.929 . S
H865 C879 0.931 . S
H866 C881 0.930 1_556 S
C867 H855 0.930 . S
C867 C868 1.399 . S
C867 C872 1.399 . S
C868 C867 1.399 . S
C868 C869 1.376 . S
C869 H856 0.930 . S
C869 C868 1.376 . S
C869 C870 1.388 . S
C870 H857 0.930 . S
C870 C869 1.388 . S
C870 C871 1.390 . S
C871 C870 1.390 . S
C871 C872 1.394 . S
C871 C877 1.465 . S
C872 C867 1.399 . S
C872 C871 1.394 . S
C872 C873 1.516 1_554 S
C873 C872 1.516 1_556 S
C873 C874 1.502 . S
C873 C875 1.561 . S
C873 C876 1.526 1_556 S
C874 H858 0.959 . S
C874 H859 0.959 . S
C874 H860 0.961 . S
C874 C873 1.502 . S
C875 H861 0.960 . S
C875 H862 0.961 . S
C875 H863 0.959 . S
C875 C873 1.561 . S
C876 C873 1.526 1_554 S
C876 C877 1.396 . S
C876 C881 1.390 . S
C877 C871 1.465 . S
C877 C876 1.396 . S
C877 C878 1.399 . S
C878 H864 0.929 . S
C878 C877 1.399 . S
C878 C879 1.385 . S
C879 H865 0.931 . S
C879 C878 1.385 . S
C879 C880 1.389 . S
C880 C879 1.389 . S
C880 C881 1.387 . S
C881 H866 0.930 1_554 S
C881 C876 1.390 . S
C881 C880 1.387 . S
H882 C894 0.930 . S
H883 C896 0.930 . S
H884 C897 0.930 . S
H885 C901 0.957 . S
H886 C901 0.962 1_455 S
H887 C901 0.958 . S
H888 C902 0.960 . S
H889 C902 0.961 . S
H890 C902 0.959 . S
H891 C905 0.929 . S
H892 C906 0.931 . S
H893 C908 0.930 . S
C894 H882 0.930 . S
C894 C895 1.399 . S
C894 C899 1.399 . S
C895 C894 1.399 . S
C895 C896 1.376 . S
C896 H883 0.930 . S
C896 C895 1.376 . S
C896 C897 1.388 . S
C897 H884 0.930 . S
C897 C896 1.388 . S
C897 C898 1.390 . S
C898 C897 1.390 . S
C898 C899 1.394 . S
C898 C904 1.465 1_655 S
C899 C894 1.399 . S
C899 C898 1.394 . S
C899 C900 1.516 1_655 S
C900 C899 1.516 1_455 S
C900 C901 1.504 1_455 S
C900 C902 1.561 . S
C900 C903 1.526 . S
C901 H885 0.957 . S
C901 H886 0.962 1_655 S
C901 H887 0.958 . S
C901 C900 1.504 1_655 S
C902 H888 0.960 . S
C902 H889 0.961 . S
C902 H890 0.959 . S
C902 C900 1.561 . S
C903 C900 1.526 . S
C903 C904 1.396 . S
C903 C908 1.390 . S
C904 C898 1.465 1_455 S
C904 C903 1.396 . S
C904 C905 1.399 . S
C905 H891 0.929 . S
C905 C904 1.399 . S
C905 C906 1.385 . S
C906 H892 0.931 . S
C906 C905 1.385 . S
C906 C907 1.389 . S
C907 C906 1.389 . S
C907 C908 1.387 . S
C908 H893 0.930 . S
C908 C903 1.390 . S
C908 C907 1.387 . S
H909 C921 0.930 . S
H910 C923 0.930 . S
H911 C924 0.930 . S
H912 C928 0.959 . S
H913 C928 0.959 . S
H914 C928 0.961 . S
H915 C929 0.960 . S
H916 C929 0.961 . S
H917 C929 0.959 . S
H918 C932 0.929 . S
H919 C933 0.931 . S
H920 C935 0.930 . S
C921 H909 0.930 . S
C921 C922 1.399 . S
C921 C926 1.399 . S
C922 C921 1.399 . S
C922 C923 1.376 . S
C923 H910 0.930 . S
C923 C922 1.376 . S
C923 C924 1.388 . S
C924 H911 0.930 . S
C924 C923 1.388 . S
C924 C925 1.390 . S
C925 C924 1.390 . S
C925 C926 1.394 . S
C925 C931 1.465 . S
C926 C921 1.399 . S
C926 C925 1.394 . S
C926 C927 1.516 . S
C927 C926 1.516 . S
C927 C928 1.502 . S
C927 C929 1.561 . S
C927 C930 1.526 . S
C928 H912 0.959 . S
C928 H913 0.959 . S
C928 H914 0.961 . S
C928 C927 1.502 . S
C929 H915 0.960 . S
C929 H916 0.961 . S
C929 H917 0.959 . S
C929 C927 1.561 . S
C930 C927 1.526 . S
C930 C931 1.396 . S
C930 C935 1.390 . S
C931 C925 1.465 . S
C931 C930 1.396 . S
C931 C932 1.399 . S
C932 H918 0.929 . S
C932 C931 1.399 . S
C932 C933 1.385 . S
C933 H919 0.931 . S
C933 C932 1.385 . S
C933 C934 1.389 . S
C934 C933 1.389 . S
C934 C935 1.387 . S
C935 H920 0.930 . S
C935 C930 1.390 . S
C935 C934 1.387 . S
H936 C948 0.930 . S
H937 C950 0.930 . S
H938 C951 0.930 . S
H939 C955 0.959 . S
H940 C955 0.959 . S
H941 C955 0.961 . S
H942 C956 0.960 . S
H943 C956 0.961 . S
H944 C956 0.959 . S
H945 C959 0.929 . S
H946 C960 0.931 . S
H947 C962 0.930 . S
C948 H936 0.930 . S
C948 C949 1.399 . S
C948 C953 1.399 . S
C949 C948 1.399 . S
C949 C950 1.376 . S
C950 H937 0.930 . S
C950 C949 1.376 . S
C950 C951 1.388 . S
C951 H938 0.930 . S
C951 C950 1.388 . S
C951 C952 1.390 . S
C952 C951 1.390 . S
C952 C953 1.394 . S
C952 C958 1.465 . S
C953 C948 1.399 . S
C953 C952 1.394 . S
C953 C954 1.516 . S
C954 C953 1.516 . S
C954 C955 1.502 . S
C954 C956 1.561 . S
C954 C957 1.492 1_545 S
C955 H939 0.959 . S
C955 H940 0.959 . S
C955 H941 0.961 . S
C955 C954 1.502 . S
C956 H942 0.960 . S
C956 H943 0.961 . S
C956 H944 0.959 . S
C956 C954 1.561 . S
C957 C954 1.492 1_565 S
C957 C958 1.391 1_565 S
C957 C962 1.426 . S
C958 C952 1.465 . S
C958 C957 1.391 1_545 S
C958 C959 1.399 1_545 S
C959 H945 0.929 . S
C959 C958 1.399 1_565 S
C959 C960 1.385 . S
C960 H946 0.931 . S
C960 C959 1.385 . S
C960 C961 1.389 . S
C961 C960 1.389 . S
C961 C962 1.387 . S
C962 H947 0.930 . S
C962 C957 1.426 . S
C962 C961 1.387 . S
H963 C975 0.930 . S
H964 C977 0.930 . S
H965 C978 0.930 . S
H966 C982 0.959 . S
H967 C982 0.959 . S
H968 C982 0.961 . S
H969 C983 0.960 . S
H970 C983 0.961 . S
H971 C983 0.959 . S
H972 C986 0.929 . S
H973 C987 0.931 . S
H974 C989 0.930 . S
C975 H963 0.930 . S
C975 C976 1.399 . S
C975 C980 1.399 . S
C976 C975 1.399 . S
C976 C977 1.376 . S
C977 H964 0.930 . S
C977 C976 1.376 . S
C977 C978 1.388 . S
C978 H965 0.930 . S
C978 C977 1.388 . S
C978 C979 1.390 . S
C979 C978 1.390 . S
C979 C980 1.394 . S
C979 C985 1.465 . S
C980 C975 1.399 . S
C980 C979 1.394 . S
C980 C981 1.516 . S
C981 C980 1.516 . S
C981 C982 1.502 . S
C981 C983 1.561 . S
C981 C984 1.526 . S
C982 H966 0.959 . S
C982 H967 0.959 . S
C982 H968 0.961 . S
C982 C981 1.502 . S
C983 H969 0.960 . S
C983 H970 0.961 . S
C983 H971 0.959 . S
C983 C981 1.561 . S
C984 C981 1.526 . S
C984 C985 1.396 . S
C984 C989 1.390 . S
C985 C979 1.465 . S
C985 C984 1.396 . S
C985 C986 1.399 . S
C986 H972 0.929 . S
C986 C985 1.399 . S
C986 C987 1.385 . S
C987 H973 0.931 . S
C987 C986 1.385 . S
C987 C988 1.389 . S
C988 C987 1.389 . S
C988 C989 1.387 . S
C989 H974 0.930 . S
C989 C984 1.390 . S
C989 C988 1.387 . S
H990 C1002 0.930 . S
H991 C1004 0.930 . S
H992 C1005 0.930 . S
H993 C1009 0.959 . S
H994 C1009 0.959 . S
H995 C1009 0.961 . S
H996 C1010 0.960 . S
H997 C1010 0.961 . S
H998 C1010 0.959 . S
H999 C1013 0.929 . S
H1000 C1014 0.931 . S
H1001 C1016 0.930 . S
C1002 H990 0.930 . S
C1002 C1003 1.399 . S
C1002 C1007 1.399 . S
C1003 C1002 1.399 . S
C1003 C1004 1.376 . S
C1004 H991 0.930 . S
C1004 C1003 1.376 . S
C1004 C1005 1.388 . S
C1005 H992 0.930 . S
C1005 C1004 1.388 . S
C1005 C1006 1.390 . S
C1006 C1005 1.390 . S
C1006 C1007 1.394 . S
C1006 C1012 1.465 . S
C1007 C1002 1.399 . S
C1007 C1006 1.394 . S
C1007 C1008 1.516 . S
C1008 C1007 1.516 . S
C1008 C1009 1.502 . S
C1008 C1010 1.561 . S
C1008 C1011 1.526 . S
C1009 H993 0.959 . S
C1009 H994 0.959 . S
C1009 H995 0.961 . S
C1009 C1008 1.502 . S
C1010 H996 0.960 . S
C1010 H997 0.961 . S
C1010 H998 0.959 . S
C1010 C1008 1.561 . S
C1011 C1008 1.526 . S
C1011 C1012 1.396 . S
C1011 C1016 1.390 . S
C1012 C1006 1.465 . S
C1012 C1011 1.396 . S
C1012 C1013 1.399 . S
C1013 H999 0.929 . S
C1013 C1012 1.399 . S
C1013 C1014 1.385 . S
C1014 H1000 0.931 . S
C1014 C1013 1.385 . S
C1014 C1015 1.389 . S
C1015 C1014 1.389 . S
C1015 C1016 1.387 . S
C1016 H1001 0.930 . S
C1016 C1011 1.390 . S
C1016 C1015 1.387 . S
H1017 C1029 0.930 . S
H1018 C1031 0.930 . S
H1019 C1032 0.930 . S
H1020 C1036 0.959 . S
H1021 C1036 0.959 . S
H1022 C1036 0.961 . S
H1023 C1037 0.960 . S
H1024 C1037 0.961 . S
H1025 C1037 0.959 . S
H1026 C1040 0.929 . S
H1027 C1041 0.931 . S
H1028 C1043 0.930 . S
C1029 H1017 0.930 . S
C1029 C1030 1.399 . S
C1029 C1034 1.399 . S
C1030 C1029 1.399 . S
C1030 C1031 1.376 . S
C1031 H1018 0.930 . S
C1031 C1030 1.376 . S
C1031 C1032 1.388 . S
C1032 H1019 0.930 . S
C1032 C1031 1.388 . S
C1032 C1033 1.390 . S
C1033 C1032 1.390 . S
C1033 C1034 1.394 . S
C1033 C1039 1.465 . S
C1034 C1029 1.399 . S
C1034 C1033 1.394 . S
C1034 C1035 1.516 . S
C1035 C1034 1.516 . S
C1035 C1036 1.502 . S
C1035 C1037 1.561 . S
C1035 C1038 1.526 . S
C1036 H1020 0.959 . S
C1036 H1021 0.959 . S
C1036 H1022 0.961 . S
C1036 C1035 1.502 . S
C1037 H1023 0.960 . S
C1037 H1024 0.961 . S
C1037 H1025 0.959 . S
C1037 C1035 1.561 . S
C1038 C1035 1.526 . S
C1038 C1039 1.396 . S
C1038 C1043 1.390 . S
C1039 C1033 1.465 . S
C1039 C1038 1.396 . S
C1039 C1040 1.399 . S
C1040 H1026 0.929 . S
C1040 C1039 1.399 . S
C1040 C1041 1.385 . S
C1041 H1027 0.931 . S
C1041 C1040 1.385 . S
C1041 C1042 1.389 . S
C1042 C1041 1.389 . S
C1042 C1043 1.387 . S
C1043 H1028 0.930 . S
C1043 C1038 1.390 . S
C1043 C1042 1.387 . S
H1044 C1056 0.930 . S
H1045 C1058 0.930 . S
H1046 C1059 0.930 . S
H1047 C1063 0.959 . S
H1048 C1063 0.959 . S
H1049 C1063 0.961 . S
H1050 C1064 0.960 . S
H1051 C1064 0.961 . S
H1052 C1064 0.959 . S
H1053 C1067 0.929 . S
H1054 C1068 0.931 . S
H1055 C1070 0.930 . S
C1056 H1044 0.930 . S
C1056 C1057 1.399 . S
C1056 C1061 1.399 . S
C1057 C1056 1.399 . S
C1057 C1058 1.376 . S
C1058 H1045 0.930 . S
C1058 C1057 1.376 . S
C1058 C1059 1.388 . S
C1059 H1046 0.930 . S
C1059 C1058 1.388 . S
C1059 C1060 1.390 . S
C1060 C1059 1.390 . S
C1060 C1061 1.394 . S
C1060 C1066 1.465 . S
C1061 C1056 1.399 . S
C1061 C1060 1.394 . S
C1061 C1062 1.516 . S
C1062 C1061 1.516 . S
C1062 C1063 1.502 . S
C1062 C1064 1.561 . S
C1062 C1065 1.526 . S
C1063 H1047 0.959 . S
C1063 H1048 0.959 . S
C1063 H1049 0.961 . S
C1063 C1062 1.502 . S
C1064 H1050 0.960 . S
C1064 H1051 0.961 . S
C1064 H1052 0.959 . S
C1064 C1062 1.561 . S
C1065 C1062 1.526 . S
C1065 C1066 1.396 . S
C1065 C1070 1.390 . S
C1066 C1060 1.465 . S
C1066 C1065 1.396 . S
C1066 C1067 1.399 . S
C1067 H1053 0.929 . S
C1067 C1066 1.399 . S
C1067 C1068 1.385 . S
C1068 H1054 0.931 . S
C1068 C1067 1.385 . S
C1068 C1069 1.389 . S
C1069 C1068 1.389 . S
C1069 C1070 1.387 . S
C1070 H1055 0.930 . S
C1070 C1065 1.390 . S
C1070 C1069 1.387 . S
H1071 C1083 0.930 . S
H1072 C1085 0.930 . S
H1073 C1086 0.930 . S
H1074 C1090 0.959 . S
H1075 C1090 0.959 . S
H1076 C1090 0.961 . S
H1077 C1091 0.960 . S
H1078 C1091 0.961 . S
H1079 C1091 0.959 . S
H1080 C1094 0.929 . S
H1081 C1095 0.931 . S
H1082 C1097 0.930 . S
C1083 H1071 0.930 . S
C1083 C1084 1.399 . S
C1083 C1088 1.399 . S
C1084 C1083 1.399 . S
C1084 C1085 1.376 . S
C1085 H1072 0.930 . S
C1085 C1084 1.376 . S
C1085 C1086 1.388 . S
C1086 H1073 0.930 . S
C1086 C1085 1.388 . S
C1086 C1087 1.390 . S
C1087 C1086 1.390 . S
C1087 C1088 1.394 . S
C1087 C1093 1.465 . S
C1088 C1083 1.399 . S
C1088 C1087 1.394 . S
C1088 C1089 1.516 . S
C1089 C1088 1.516 . S
C1089 C1090 1.502 . S
C1089 C1091 1.561 . S
C1089 C1092 1.526 . S
C1090 H1074 0.959 . S
C1090 H1075 0.959 . S
C1090 H1076 0.961 . S
C1090 C1089 1.502 . S
C1091 H1077 0.960 . S
C1091 H1078 0.961 . S
C1091 H1079 0.959 . S
C1091 C1089 1.561 . S
C1092 C1089 1.526 . S
C1092 C1093 1.396 . S
C1092 C1097 1.390 . S
C1093 C1087 1.465 . S
C1093 C1092 1.396 . S
C1093 C1094 1.399 . S
C1094 H1080 0.929 . S
C1094 C1093 1.399 . S
C1094 C1095 1.385 . S
C1095 H1081 0.931 . S
C1095 C1094 1.385 . S
C1095 C1096 1.389 . S
C1096 C1095 1.389 . S
C1096 C1097 1.387 . S
C1097 H1082 0.930 . S
C1097 C1092 1.390 . S
C1097 C1096 1.387 . S
H1098 C1110 0.930 . S
H1099 C1112 0.930 . S
H1100 C1113 0.930 . S
H1101 C1117 0.959 . S
H1102 C1117 0.959 . S
H1103 C1117 0.961 . S
H1104 C1118 0.960 . S
H1105 C1118 0.961 . S
H1106 C1118 0.959 . S
H1107 C1121 0.929 . S
H1108 C1122 0.931 . S
H1109 C1124 0.930 . S
C1110 H1098 0.930 . S
C1110 C1111 1.399 . S
C1110 C1115 1.399 . S
C1111 C1110 1.399 . S
C1111 C1112 1.376 . S
C1112 H1099 0.930 . S
C1112 C1111 1.376 . S
C1112 C1113 1.388 . S
C1113 H1100 0.930 . S
C1113 C1112 1.388 . S
C1113 C1114 1.390 . S
C1114 C1113 1.390 . S
C1114 C1115 1.394 . S
C1114 C1120 1.465 . S
C1115 C1110 1.399 . S
C1115 C1114 1.394 . S
C1115 C1116 1.516 . S
C1116 C1115 1.516 . S
C1116 C1117 1.502 . S
C1116 C1118 1.561 . S
C1116 C1119 1.526 . S
C1117 H1101 0.959 . S
C1117 H1102 0.959 . S
C1117 H1103 0.961 . S
C1117 C1116 1.502 . S
C1118 H1104 0.960 . S
C1118 H1105 0.961 . S
C1118 H1106 0.959 . S
C1118 C1116 1.561 . S
C1119 C1116 1.526 . S
C1119 C1120 1.396 . S
C1119 C1124 1.390 . S
C1120 C1114 1.465 . S
C1120 C1119 1.396 . S
C1120 C1121 1.399 . S
C1121 H1107 0.929 . S
C1121 C1120 1.399 . S
C1121 C1122 1.385 . S
C1122 H1108 0.931 . S
C1122 C1121 1.385 . S
C1122 C1123 1.389 . S
C1123 C1122 1.389 . S
C1123 C1124 1.387 . S
C1124 H1109 0.930 . S
C1124 C1119 1.390 . S
C1124 C1123 1.387 . S
H1125 C1137 0.930 . S
H1126 C1139 0.930 . S
H1127 C1140 0.930 . S
H1128 C1144 0.959 . S
H1129 C1144 0.959 . S
H1130 C1144 0.961 . S
H1131 C1145 0.960 . S
H1132 C1145 0.961 . S
H1133 C1145 0.959 . S
H1134 C1148 0.929 . S
H1135 C1149 0.931 . S
H1136 C1151 0.930 . S
C1137 H1125 0.930 . S
C1137 C1138 1.399 . S
C1137 C1142 1.399 1_545 S
C1138 C1137 1.399 . S
C1138 C1139 1.376 . S
C1139 H1126 0.930 . S
C1139 C1138 1.376 . S
C1139 C1140 1.388 1_545 S
C1140 H1127 0.930 . S
C1140 C1139 1.388 1_565 S
C1140 C1141 1.390 . S
C1141 C1140 1.390 . S
C1141 C1142 1.394 . S
C1141 C1147 1.465 . S
C1142 C1137 1.399 1_565 S
C1142 C1141 1.394 . S
C1142 C1143 1.516 . S
C1143 C1142 1.516 . S
C1143 C1144 1.502 . S
C1143 C1145 1.561 . S
C1143 C1146 1.526 . S
C1144 H1128 0.959 . S
C1144 H1129 0.959 . S
C1144 H1130 0.961 . S
C1144 C1143 1.502 . S
C1145 H1131 0.960 . S
C1145 H1132 0.961 . S
C1145 H1133 0.959 . S
C1145 C1143 1.561 . S
C1146 C1143 1.526 . S
C1146 C1147 1.396 . S
C1146 C1151 1.390 . S
C1147 C1141 1.465 . S
C1147 C1146 1.396 . S
C1147 C1148 1.399 . S
C1148 H1134 0.929 . S
C1148 C1147 1.399 . S
C1148 C1149 1.385 . S
C1149 H1135 0.931 . S
C1149 C1148 1.385 . S
C1149 C1150 1.389 . S
C1150 C1149 1.389 . S
C1150 C1151 1.387 . S
C1151 H1136 0.930 . S
C1151 C1146 1.390 . S
C1151 C1150 1.387 . S
H1152 C1164 0.930 1_655 S
H1153 C1166 0.928 1_655 S
H1154 C1167 0.930 . S
H1155 C1171 0.959 . S
H1156 C1171 0.959 . S
H1157 C1171 0.961 . S
H1158 C1172 0.960 . S
H1159 C1172 0.961 . S
H1160 C1172 0.959 . S
H1161 C1175 0.929 . S
H1162 C1176 0.931 . S
H1163 C1178 0.930 . S
C1164 H1152 0.930 1_455 S
C1164 C1165 1.399 1_455 S
C1164 C1169 1.399 . S
C1165 C1164 1.399 1_655 S
C1165 C1166 1.377 1_655 S
C1166 H1153 0.928 1_455 S
C1166 C1165 1.377 1_455 S
C1166 C1167 1.391 . S
C1167 H1154 0.930 . S
C1167 C1166 1.391 . S
C1167 C1168 1.390 . S
C1168 C1167 1.390 . S
C1168 C1169 1.394 . S
C1168 C1174 1.465 . S
C1169 C1164 1.399 . S
C1169 C1168 1.394 . S
C1169 C1170 1.516 . S
C1170 C1169 1.516 . S
C1170 C1171 1.502 . S
C1170 C1172 1.561 . S
C1170 C1173 1.526 . S
C1171 H1155 0.959 . S
C1171 H1156 0.959 . S
C1171 H1157 0.961 . S
C1171 C1170 1.502 . S
C1172 H1158 0.960 . S
C1172 H1159 0.961 . S
C1172 H1160 0.959 . S
C1172 C1170 1.561 . S
C1173 C1170 1.526 . S
C1173 C1174 1.396 . S
C1173 C1178 1.390 . S
C1174 C1168 1.465 . S
C1174 C1173 1.396 . S
C1174 C1175 1.399 . S
C1175 H1161 0.929 . S
C1175 C1174 1.399 . S
C1175 C1176 1.385 . S
C1176 H1162 0.931 . S
C1176 C1175 1.385 . S
C1176 C1177 1.389 . S
C1177 C1176 1.389 . S
C1177 C1178 1.387 . S
C1178 H1163 0.930 . S
C1178 C1173 1.390 . S
C1178 C1177 1.387 . S
H1179 C1191 0.930 . S
H1180 C1193 0.930 . S
H1181 C1194 0.930 . S
H1182 C1198 0.959 . S
H1183 C1198 0.959 . S
H1184 C1198 0.961 . S
H1185 C1199 0.960 . S
H1186 C1199 0.961 . S
H1187 C1199 0.959 . S
H1188 C1202 0.929 . S
H1189 C1203 0.931 . S
H1190 C1205 0.930 . S
C1191 H1179 0.930 . S
C1191 C1192 1.399 . S
C1191 C1196 1.399 . S
C1192 C1191 1.399 . S
C1192 C1193 1.376 . S
C1193 H1180 0.930 . S
C1193 C1192 1.376 . S
C1193 C1194 1.388 . S
C1194 H1181 0.930 . S
C1194 C1193 1.388 . S
C1194 C1195 1.390 . S
C1195 C1194 1.390 . S
C1195 C1196 1.394 . S
C1195 C1201 1.465 . S
C1196 C1191 1.399 . S
C1196 C1195 1.394 . S
C1196 C1197 1.516 . S
C1197 C1196 1.516 . S
C1197 C1198 1.502 . S
C1197 C1199 1.561 . S
C1197 C1200 1.526 . S
C1198 H1182 0.959 . S
C1198 H1183 0.959 . S
C1198 H1184 0.961 . S
C1198 C1197 1.502 . S
C1199 H1185 0.960 . S
C1199 H1186 0.961 . S
C1199 H1187 0.959 . S
C1199 C1197 1.561 . S
C1200 C1197 1.526 . S
C1200 C1201 1.396 . S
C1200 C1205 1.390 . S
C1201 C1195 1.465 . S
C1201 C1200 1.396 . S
C1201 C1202 1.399 . S
C1202 H1188 0.929 . S
C1202 C1201 1.399 . S
C1202 C1203 1.385 . S
C1203 H1189 0.931 . S
C1203 C1202 1.385 . S
C1203 C1204 1.389 . S
C1204 C1203 1.389 . S
C1204 C1205 1.387 . S
C1205 H1190 0.930 . S
C1205 C1200 1.390 . S
C1205 C1204 1.387 . S
H1206 C1218 0.930 . S
H1207 C1220 0.930 . S
H1208 C1221 0.930 . S
H1209 C1225 0.959 . S
H1210 C1225 0.959 . S
H1211 C1225 0.961 . S
H1212 C1226 0.960 . S
H1213 C1226 0.961 . S
H1214 C1226 0.959 . S
H1215 C1229 0.929 . S
H1216 C1230 0.931 . S
H1217 C1232 0.930 . S
C1218 H1206 0.930 . S
C1218 C1219 1.399 . S
C1218 C1223 1.399 . S
C1219 C1218 1.399 . S
C1219 C1220 1.376 . S
C1220 H1207 0.930 . S
C1220 C1219 1.376 . S
C1220 C1221 1.388 . S
C1221 H1208 0.930 . S
C1221 C1220 1.388 . S
C1221 C1222 1.390 . S
C1222 C1221 1.390 . S
C1222 C1223 1.394 . S
C1222 C1228 1.465 . S
C1223 C1218 1.399 . S
C1223 C1222 1.394 . S
C1223 C1224 1.516 . S
C1224 C1223 1.516 . S
C1224 C1225 1.502 . S
C1224 C1226 1.561 . S
C1224 C1227 1.526 . S
C1225 H1209 0.959 . S
C1225 H1210 0.959 . S
C1225 H1211 0.961 . S
C1225 C1224 1.502 . S
C1226 H1212 0.960 . S
C1226 H1213 0.961 . S
C1226 H1214 0.959 . S
C1226 C1224 1.561 . S
C1227 C1224 1.526 . S
C1227 C1228 1.396 . S
C1227 C1232 1.390 . S
C1228 C1222 1.465 . S
C1228 C1227 1.396 . S
C1228 C1229 1.399 . S
C1229 H1215 0.929 . S
C1229 C1228 1.399 . S
C1229 C1230 1.385 . S
C1230 H1216 0.931 . S
C1230 C1229 1.385 . S
C1230 C1231 1.389 . S
C1231 C1230 1.389 . S
C1231 C1232 1.387 . S
C1232 H1217 0.930 . S
C1232 C1227 1.390 . S
C1232 C1231 1.387 . S
H1233 C1245 0.930 . S
H1234 C1247 0.930 . S
H1235 C1248 0.930 . S
H1236 C1252 0.959 . S
H1237 C1252 0.959 . S
H1238 C1252 0.961 . S
H1239 C1253 0.960 . S
H1240 C1253 0.961 . S
H1241 C1253 0.959 . S
H1242 C1256 0.929 . S
H1243 C1257 0.931 . S
H1244 C1259 0.930 . S
C1245 H1233 0.930 . S
C1245 C1246 1.399 . S
C1245 C1250 1.399 . S
C1246 C1245 1.399 . S
C1246 C1247 1.376 . S
C1247 H1234 0.930 . S
C1247 C1246 1.376 . S
C1247 C1248 1.388 . S
C1248 H1235 0.930 . S
C1248 C1247 1.388 . S
C1248 C1249 1.390 . S
C1249 C1248 1.390 . S
C1249 C1250 1.394 . S
C1249 C1255 1.465 . S
C1250 C1245 1.399 . S
C1250 C1249 1.394 . S
C1250 C1251 1.516 . S
C1251 C1250 1.516 . S
C1251 C1252 1.502 . S
C1251 C1253 1.561 . S
C1251 C1254 1.526 . S
C1252 H1236 0.959 . S
C1252 H1237 0.959 . S
C1252 H1238 0.961 . S
C1252 C1251 1.502 . S
C1253 H1239 0.960 . S
C1253 H1240 0.961 . S
C1253 H1241 0.959 . S
C1253 C1251 1.561 . S
C1254 C1251 1.526 . S
C1254 C1255 1.396 . S
C1254 C1259 1.390 . S
C1255 C1249 1.465 . S
C1255 C1254 1.396 . S
C1255 C1256 1.399 . S
C1256 H1242 0.929 . S
C1256 C1255 1.399 . S
C1256 C1257 1.385 . S
C1257 H1243 0.931 . S
C1257 C1256 1.385 . S
C1257 C1258 1.389 . S
C1258 C1257 1.389 . S
C1258 C1259 1.387 . S
C1259 H1244 0.930 . S
C1259 C1254 1.390 . S
C1259 C1258 1.387 . S
H1260 C1272 0.930 . S
H1261 C1274 0.930 . S
H1262 C1275 0.930 . S
H1263 C1279 0.959 . S
H1264 C1279 0.959 . S
H1265 C1279 0.961 . S
H1266 C1280 0.960 . S
H1267 C1280 0.961 . S
H1268 C1280 0.959 . S
H1269 C1283 0.929 . S
H1270 C1284 0.931 . S
H1271 C1286 0.930 . S
C1272 H1260 0.930 . S
C1272 C1273 1.399 . S
C1272 C1277 1.399 . S
C1273 C1272 1.399 . S
C1273 C1274 1.376 . S
C1274 H1261 0.930 . S
C1274 C1273 1.376 . S
C1274 C1275 1.388 . S
C1275 H1262 0.930 . S
C1275 C1274 1.388 . S
C1275 C1276 1.390 . S
C1276 C1275 1.390 . S
C1276 C1277 1.394 . S
C1276 C1282 1.465 . S
C1277 C1272 1.399 . S
C1277 C1276 1.394 . S
C1277 C1278 1.516 . S
C1278 C1277 1.516 . S
C1278 C1279 1.502 . S
C1278 C1280 1.561 . S
C1278 C1281 1.526 . S
C1279 H1263 0.959 . S
C1279 H1264 0.959 . S
C1279 H1265 0.961 . S
C1279 C1278 1.502 . S
C1280 H1266 0.960 . S
C1280 H1267 0.961 . S
C1280 H1268 0.959 . S
C1280 C1278 1.561 . S
C1281 C1278 1.526 . S
C1281 C1282 1.396 . S
C1281 C1286 1.390 . S
C1282 C1276 1.465 . S
C1282 C1281 1.396 . S
C1282 C1283 1.399 . S
C1283 H1269 0.929 . S
C1283 C1282 1.399 . S
C1283 C1284 1.385 . S
C1284 H1270 0.931 . S
C1284 C1283 1.385 . S
C1284 C1285 1.389 . S
C1285 C1284 1.389 . S
C1285 C1286 1.387 . S
C1286 H1271 0.930 . S
C1286 C1281 1.390 . S
C1286 C1285 1.387 . S
H1287 C1299 0.930 . S
H1288 C1301 0.930 . S
H1289 C1302 0.930 . S
H1290 C1306 0.959 . S
H1291 C1306 0.959 1_545 S
H1292 C1306 0.961 . S
H1293 C1307 0.960 1_565 S
H1294 C1307 0.961 . S
H1295 C1307 0.959 . S
H1296 C1310 0.929 . S
H1297 C1311 0.931 . S
H1298 C1313 0.930 . S
C1299 H1287 0.930 . S
C1299 C1300 1.399 . S
C1299 C1304 1.399 . S
C1300 C1299 1.399 . S
C1300 C1301 1.376 . S
C1301 H1288 0.930 . S
C1301 C1300 1.376 . S
C1301 C1302 1.388 . S
C1302 H1289 0.930 . S
C1302 C1301 1.388 . S
C1302 C1303 1.390 . S
C1303 C1302 1.390 . S
C1303 C1304 1.394 . S
C1303 C1309 1.465 1_565 S
C1304 C1299 1.399 . S
C1304 C1303 1.394 . S
C1304 C1305 1.516 . S
C1305 C1304 1.516 . S
C1305 C1306 1.502 . S
C1305 C1307 1.561 1_565 S
C1305 C1308 1.526 1_565 S
C1306 H1290 0.959 . S
C1306 H1291 0.959 1_565 S
C1306 H1292 0.961 . S
C1306 C1305 1.502 . S
C1307 H1293 0.960 1_545 S
C1307 H1294 0.961 . S
C1307 H1295 0.959 . S
C1307 C1305 1.561 1_545 S
C1308 C1305 1.526 1_545 S
C1308 C1309 1.396 . S
C1308 C1313 1.390 . S
C1309 C1303 1.465 1_545 S
C1309 C1308 1.396 . S
C1309 C1310 1.399 . S
C1310 H1296 0.929 . S
C1310 C1309 1.399 . S
C1310 C1311 1.385 . S
C1311 H1297 0.931 . S
C1311 C1310 1.385 . S
C1311 C1312 1.389 . S
C1312 C1311 1.389 . S
C1312 C1313 1.387 . S
C1313 H1298 0.930 . S
C1313 C1308 1.390 . S
C1313 C1312 1.387 . S
H1314 C1326 0.930 . S
H1315 C1328 0.930 . S
H1316 C1329 0.930 . S
H1317 C1333 0.959 . S
H1318 C1333 0.959 . S
H1319 C1333 0.961 . S
H1320 C1334 0.960 . S
H1321 C1334 0.961 . S
H1322 C1334 0.959 . S
H1323 C1337 0.929 1_455 S
H1324 C1338 0.931 . S
H1325 C1340 0.930 . S
C1326 H1314 0.930 . S
C1326 C1327 1.399 . S
C1326 C1331 1.399 . S
C1327 C1326 1.399 . S
C1327 C1328 1.376 . S
C1328 H1315 0.930 . S
C1328 C1327 1.376 . S
C1328 C1329 1.388 . S
C1329 H1316 0.930 . S
C1329 C1328 1.388 . S
C1329 C1330 1.390 . S
C1330 C1329 1.390 . S
C1330 C1331 1.394 . S
C1330 C1336 1.465 1_455 S
C1331 C1326 1.399 . S
C1331 C1330 1.394 . S
C1331 C1332 1.516 1_455 S
C1332 C1331 1.516 1_655 S
C1332 C1333 1.502 . S
C1332 C1334 1.561 . S
C1332 C1335 1.526 . S
C1333 H1317 0.959 . S
C1333 H1318 0.959 . S
C1333 H1319 0.961 . S
C1333 C1332 1.502 . S
C1334 H1320 0.960 . S
C1334 H1321 0.961 . S
C1334 H1322 0.959 . S
C1334 C1332 1.561 . S
C1335 C1332 1.526 . S
C1335 C1336 1.396 . S
C1335 C1340 1.390 . S
C1336 C1330 1.465 1_655 S
C1336 C1335 1.396 . S
C1336 C1337 1.399 . S
C1337 H1323 0.929 1_655 S
C1337 C1336 1.399 . S
C1337 C1338 1.385 . S
C1338 H1324 0.931 . S
C1338 C1337 1.385 . S
C1338 C1339 1.389 . S
C1339 C1338 1.389 . S
C1339 C1340 1.387 . S
C1340 H1325 0.930 . S
C1340 C1335 1.390 . S
C1340 C1339 1.387 . S
H1341 C1353 0.930 . S
H1342 C1355 0.930 . S
H1343 C1356 0.930 . S
H1344 C1360 0.959 . S
H1345 C1360 0.959 . S
H1346 C1360 0.961 . S
H1347 C1361 0.960 . S
H1348 C1361 0.961 . S
H1349 C1361 0.959 . S
H1350 C1364 0.929 . S
H1351 C1365 0.931 . S
H1352 C1367 0.930 . S
C1353 H1341 0.930 . S
C1353 C1354 1.399 . S
C1353 C1358 1.399 . S
C1354 C1353 1.399 . S
C1354 C1355 1.376 . S
C1355 H1342 0.930 . S
C1355 C1354 1.376 . S
C1355 C1356 1.388 . S
C1356 H1343 0.930 . S
C1356 C1355 1.388 . S
C1356 C1357 1.390 . S
C1357 C1356 1.390 . S
C1357 C1358 1.394 . S
C1357 C1363 1.465 . S
C1358 C1353 1.399 . S
C1358 C1357 1.394 . S
C1358 C1359 1.516 . S
C1359 C1358 1.516 . S
C1359 C1360 1.502 . S
C1359 C1361 1.561 . S
C1359 C1362 1.526 . S
C1360 H1344 0.959 . S
C1360 H1345 0.959 . S
C1360 H1346 0.961 . S
C1360 C1359 1.502 . S
C1361 H1347 0.960 . S
C1361 H1348 0.961 . S
C1361 H1349 0.959 . S
C1361 C1359 1.561 . S
C1362 C1359 1.526 . S
C1362 C1363 1.396 . S
C1362 C1367 1.390 . S
C1363 C1357 1.465 . S
C1363 C1362 1.396 . S
C1363 C1364 1.399 . S
C1364 H1350 0.929 . S
C1364 C1363 1.399 . S
C1364 C1365 1.385 . S
C1365 H1351 0.931 . S
C1365 C1364 1.385 . S
C1365 C1366 1.389 . S
C1366 C1365 1.389 . S
C1366 C1367 1.387 . S
C1367 H1352 0.930 . S
C1367 C1362 1.390 . S
C1367 C1366 1.387 . S
H1368 C1380 0.930 . S
H1369 C1382 0.930 . S
H1370 C1383 0.930 . S
H1371 C1387 0.959 . S
H1372 C1387 0.959 . S
H1373 C1387 0.961 . S
H1374 C1388 0.960 . S
H1375 C1388 0.961 . S
H1376 C1388 0.959 . S
H1377 C1391 0.929 . S
H1378 C1392 0.931 . S
H1379 C1394 0.930 . S
C1380 H1368 0.930 . S
C1380 C1381 1.399 . S
C1380 C1385 1.399 1_455 S
C1381 C1380 1.399 . S
C1381 C1382 1.376 . S
C1382 H1369 0.930 . S
C1382 C1381 1.376 . S
C1382 C1383 1.388 . S
C1383 H1370 0.930 . S
C1383 C1382 1.388 . S
C1383 C1384 1.390 1_455 S
C1384 C1383 1.390 1_655 S
C1384 C1385 1.394 . S
C1384 C1390 1.465 . S
C1385 C1380 1.399 1_655 S
C1385 C1384 1.394 . S
C1385 C1386 1.516 . S
C1386 C1385 1.516 . S
C1386 C1387 1.502 . S
C1386 C1388 1.561 . S
C1386 C1389 1.526 . S
C1387 H1371 0.959 . S
C1387 H1372 0.959 . S
C1387 H1373 0.961 . S
C1387 C1386 1.502 . S
C1388 H1374 0.960 . S
C1388 H1375 0.961 . S
C1388 H1376 0.959 . S
C1388 C1386 1.561 . S
C1389 C1386 1.526 . S
C1389 C1390 1.396 . S
C1389 C1394 1.390 . S
C1390 C1384 1.465 . S
C1390 C1389 1.396 . S
C1390 C1391 1.399 . S
C1391 H1377 0.929 . S
C1391 C1390 1.399 . S
C1391 C1392 1.385 . S
C1392 H1378 0.931 . S
C1392 C1391 1.385 . S
C1392 C1393 1.389 . S
C1393 C1392 1.389 . S
C1393 C1394 1.387 . S
C1394 H1379 0.930 . S
C1394 C1389 1.390 . S
C1394 C1393 1.387 . S
H1395 C1407 0.930 . S
H1396 C1409 0.930 . S
H1397 C1410 0.930 . S
H1398 C1414 0.959 . S
H1399 C1414 0.959 . S
H1400 C1414 0.961 . S
H1401 C1415 0.960 . S
H1402 C1415 0.961 . S
H1403 C1415 0.959 . S
H1404 C1418 0.929 . S
H1405 C1419 0.931 . S
H1406 C1421 0.930 . S
C1407 H1395 0.930 . S
C1407 C1408 1.399 . S
C1407 C1412 1.399 . S
C1408 C1407 1.399 . S
C1408 C1409 1.376 . S
C1409 H1396 0.930 . S
C1409 C1408 1.376 . S
C1409 C1410 1.388 . S
C1410 H1397 0.930 . S
C1410 C1409 1.388 . S
C1410 C1411 1.390 . S
C1411 C1410 1.390 . S
C1411 C1412 1.394 . S
C1411 C1417 1.465 . S
C1412 C1407 1.399 . S
C1412 C1411 1.394 . S
C1412 C1413 1.516 . S
C1413 C1412 1.516 . S
C1413 C1414 1.502 . S
C1413 C1415 1.561 . S
C1413 C1416 1.526 . S
C1414 H1398 0.959 . S
C1414 H1399 0.959 . S
C1414 H1400 0.961 . S
C1414 C1413 1.502 . S
C1415 H1401 0.960 . S
C1415 H1402 0.961 . S
C1415 H1403 0.959 . S
C1415 C1413 1.561 . S
C1416 C1413 1.526 . S
C1416 C1417 1.396 . S
C1416 C1421 1.390 . S
C1417 C1411 1.465 . S
C1417 C1416 1.396 . S
C1417 C1418 1.399 . S
C1418 H1404 0.929 . S
C1418 C1417 1.399 . S
C1418 C1419 1.385 . S
C1419 H1405 0.931 . S
C1419 C1418 1.385 . S
C1419 C1420 1.389 . S
C1420 C1419 1.389 . S
C1420 C1421 1.387 . S
C1421 H1406 0.930 . S
C1421 C1416 1.390 . S
C1421 C1420 1.387 . S
H1422 C1434 0.930 . S
H1423 C1436 0.930 . S
H1424 C1437 0.930 . S
H1425 C1441 0.959 . S
H1426 C1441 0.959 . S
H1427 C1441 0.961 . S
H1428 C1442 0.960 . S
H1429 C1442 0.961 . S
H1430 C1442 0.959 . S
H1431 C1445 0.929 . S
H1432 C1446 0.931 . S
H1433 C1448 0.930 . S
C1434 H1422 0.930 . S
C1434 C1435 1.399 . S
C1434 C1439 1.399 1_565 S
C1435 C1434 1.399 . S
C1435 C1436 1.376 . S
C1436 H1423 0.930 . S
C1436 C1435 1.376 . S
C1436 C1437 1.388 1_565 S
C1437 H1424 0.930 . S
C1437 C1436 1.388 1_545 S
C1437 C1438 1.390 . S
C1438 C1437 1.390 . S
C1438 C1439 1.394 . S
C1438 C1444 1.465 . S
C1439 C1434 1.399 1_545 S
C1439 C1438 1.394 . S
C1439 C1440 1.516 . S
C1440 C1439 1.516 . S
C1440 C1441 1.502 . S
C1440 C1442 1.561 . S
C1440 C1443 1.526 . S
C1441 H1425 0.959 . S
C1441 H1426 0.959 . S
C1441 H1427 0.961 . S
C1441 C1440 1.502 . S
C1442 H1428 0.960 . S
C1442 H1429 0.961 . S
C1442 H1430 0.959 . S
C1442 C1440 1.561 . S
C1443 C1440 1.526 . S
C1443 C1444 1.396 . S
C1443 C1448 1.390 . S
C1444 C1438 1.465 . S
C1444 C1443 1.396 . S
C1444 C1445 1.399 . S
C1445 H1431 0.929 . S
C1445 C1444 1.399 . S
C1445 C1446 1.385 . S
C1446 H1432 0.931 . S
C1446 C1445 1.385 . S
C1446 C1447 1.389 . S
C1447 C1446 1.389 . S
C1447 C1448 1.387 . S
C1448 H1433 0.930 . S
C1448 C1443 1.390 . S
C1448 C1447 1.387 . S
H1449 C1461 0.930 . S
H1450 C1463 0.930 . S
H1451 C1464 0.930 . S
H1452 C1468 0.959 . S
H1453 C1468 0.959 . S
H1454 C1468 0.961 . S
H1455 C1469 0.960 . S
H1456 C1469 0.961 . S
H1457 C1469 0.959 . S
H1458 C1472 0.929 . S
H1459 C1473 0.931 . S
H1460 C1475 0.930 . S
C1461 H1449 0.930 . S
C1461 C1462 1.399 . S
C1461 C1466 1.399 . S
C1462 C1461 1.399 . S
C1462 C1463 1.376 . S
C1463 H1450 0.930 . S
C1463 C1462 1.376 . S
C1463 C1464 1.388 . S
C1464 H1451 0.930 . S
C1464 C1463 1.388 . S
C1464 C1465 1.390 . S
C1465 C1464 1.390 . S
C1465 C1466 1.394 . S
C1465 C1471 1.465 . S
C1466 C1461 1.399 . S
C1466 C1465 1.394 . S
C1466 C1467 1.516 . S
C1467 C1466 1.516 . S
C1467 C1468 1.502 . S
C1467 C1469 1.561 . S
C1467 C1470 1.526 . S
C1468 H1452 0.959 . S
C1468 H1453 0.959 . S
C1468 H1454 0.961 . S
C1468 C1467 1.502 . S
C1469 H1455 0.960 . S
C1469 H1456 0.961 . S
C1469 H1457 0.959 . S
C1469 C1467 1.561 . S
C1470 C1467 1.526 . S
C1470 C1471 1.396 . S
C1470 C1475 1.390 . S
C1471 C1465 1.465 . S
C1471 C1470 1.396 . S
C1471 C1472 1.399 . S
C1472 H1458 0.929 . S
C1472 C1471 1.399 . S
C1472 C1473 1.385 . S
C1473 H1459 0.931 . S
C1473 C1472 1.385 . S
C1473 C1474 1.389 . S
C1474 C1473 1.389 . S
C1474 C1475 1.387 . S
C1475 H1460 0.930 . S
C1475 C1470 1.390 . S
C1475 C1474 1.387 . S
H1476 C1488 0.930 . S
H1477 C1490 0.930 . S
H1478 C1491 0.930 . S
H1479 C1495 0.959 . S
H1480 C1495 0.959 . S
H1481 C1495 0.961 . S
H1482 C1496 0.960 . S
H1483 C1496 0.961 . S
H1484 C1496 0.959 . S
H1485 C1499 0.929 . S
H1486 C1500 0.931 . S
H1487 C1502 0.930 . S
C1488 H1476 0.930 . S
C1488 C1489 1.399 . S
C1488 C1493 1.399 . S
C1489 C1488 1.399 . S
C1489 C1490 1.376 . S
C1490 H1477 0.930 . S
C1490 C1489 1.376 . S
C1490 C1491 1.388 . S
C1491 H1478 0.930 . S
C1491 C1490 1.388 . S
C1491 C1492 1.390 . S
C1492 C1491 1.390 . S
C1492 C1493 1.394 . S
C1492 C1498 1.465 . S
C1493 C1488 1.399 . S
C1493 C1492 1.394 . S
C1493 C1494 1.516 . S
C1494 C1493 1.516 . S
C1494 C1495 1.502 . S
C1494 C1496 1.561 . S
C1494 C1497 1.526 . S
C1495 H1479 0.959 . S
C1495 H1480 0.959 . S
C1495 H1481 0.961 . S
C1495 C1494 1.502 . S
C1496 H1482 0.960 . S
C1496 H1483 0.961 . S
C1496 H1484 0.959 . S
C1496 C1494 1.561 . S
C1497 C1494 1.526 . S
C1497 C1498 1.396 . S
C1497 C1502 1.390 . S
C1498 C1492 1.465 . S
C1498 C1497 1.396 . S
C1498 C1499 1.399 . S
C1499 H1485 0.929 . S
C1499 C1498 1.399 . S
C1499 C1500 1.385 . S
C1500 H1486 0.931 . S
C1500 C1499 1.385 . S
C1500 C1501 1.389 . S
C1501 C1500 1.389 . S
C1501 C1502 1.387 . S
C1502 H1487 0.930 . S
C1502 C1497 1.390 . S
C1502 C1501 1.387 . S
H1503 C1515 0.930 . S
H1504 C1517 0.930 . S
H1505 C1518 0.930 . S
H1506 C1522 0.959 . S
H1507 C1522 0.959 . S
H1508 C1522 0.961 . S
H1509 C1523 0.960 . S
H1510 C1523 0.961 . S
H1511 C1523 0.959 . S
H1512 C1526 0.929 . S
H1513 C1527 0.931 . S
H1514 C1529 0.930 . S
C1515 H1503 0.930 . S
C1515 C1516 1.399 . S
C1515 C1520 1.399 . S
C1516 C1515 1.399 . S
C1516 C1517 1.376 . S
C1517 H1504 0.930 . S
C1517 C1516 1.376 . S
C1517 C1518 1.388 . S
C1518 H1505 0.930 . S
C1518 C1517 1.388 . S
C1518 C1519 1.390 . S
C1519 C1518 1.390 . S
C1519 C1520 1.394 . S
C1519 C1525 1.465 . S
C1520 C1515 1.399 . S
C1520 C1519 1.394 . S
C1520 C1521 1.516 . S
C1521 C1520 1.516 . S
C1521 C1522 1.502 . S
C1521 C1523 1.561 . S
C1521 C1524 1.526 . S
C1522 H1506 0.959 . S
C1522 H1507 0.959 . S
C1522 H1508 0.961 . S
C1522 C1521 1.502 . S
C1523 H1509 0.960 . S
C1523 H1510 0.961 . S
C1523 H1511 0.959 . S
C1523 C1521 1.561 . S
C1524 C1521 1.526 . S
C1524 C1525 1.396 . S
C1524 C1529 1.390 . S
C1525 C1519 1.465 . S
C1525 C1524 1.396 . S
C1525 C1526 1.399 . S
C1526 H1512 0.929 . S
C1526 C1525 1.399 . S
C1526 C1527 1.385 . S
C1527 H1513 0.931 . S
C1527 C1526 1.385 . S
C1527 C1528 1.389 . S
C1528 C1527 1.389 . S
C1528 C1529 1.387 . S
C1529 H1514 0.930 . S
C1529 C1524 1.390 . S
C1529 C1528 1.387 . S
H1530 C1542 0.930 . S
H1531 C1544 0.930 . S
H1532 C1545 0.930 . S
H1533 C1549 0.959 . S
H1534 C1549 0.959 1_545 S
H1535 C1549 0.965 . S
H1536 C1550 0.960 1_545 S
H1537 C1550 0.949 1_545 S
H1538 C1550 0.969 . S
H1539 C1553 0.929 . S
H1540 C1554 0.931 . S
H1541 C1556 0.930 . S
C1542 H1530 0.930 . S
C1542 C1543 1.399 . S
C1542 C1547 1.399 . S
C1543 C1542 1.399 . S
C1543 C1544 1.376 . S
C1544 H1531 0.930 . S
C1544 C1543 1.376 . S
C1544 C1545 1.388 . S
C1545 H1532 0.930 . S
C1545 C1544 1.388 . S
C1545 C1546 1.390 . S
C1546 C1545 1.390 . S
C1546 C1547 1.394 . S
C1546 C1552 1.465 . S
C1547 C1542 1.399 . S
C1547 C1546 1.394 . S
C1547 C1548 1.516 . S
C1548 C1547 1.516 . S
C1548 C1549 1.502 . S
C1548 C1550 1.564 . S
C1548 C1551 1.526 . S
C1549 H1533 0.959 . S
C1549 H1534 0.959 1_565 S
C1549 H1535 0.965 . S
C1549 C1548 1.502 . S
C1550 H1536 0.960 1_565 S
C1550 H1537 0.949 1_565 S
C1550 H1538 0.969 . S
C1550 C1548 1.564 . S
C1551 C1548 1.526 . S
C1551 C1552 1.396 . S
C1551 C1556 1.390 . S
C1552 C1546 1.465 . S
C1552 C1551 1.396 . S
C1552 C1553 1.399 . S
C1553 H1539 0.929 . S
C1553 C1552 1.399 . S
C1553 C1554 1.385 . S
C1554 H1540 0.931 . S
C1554 C1553 1.385 . S
C1554 C1555 1.389 . S
C1555 C1554 1.389 . S
C1555 C1556 1.387 . S
C1556 H1541 0.930 . S
C1556 C1551 1.390 . S
C1556 C1555 1.387 . S
H1557 C1569 0.930 . S
H1558 C1571 0.930 . S
H1559 C1572 0.930 . S
H1560 C1576 0.959 1_655 S
H1561 C1576 0.959 1_655 S
H1562 C1576 0.961 . S
H1563 C1577 0.960 . S
H1564 C1577 0.961 . S
H1565 C1577 0.959 . S
H1566 C1580 0.929 . S
H1567 C1581 0.931 . S
H1568 C1583 0.930 . S
C1569 H1557 0.930 . S
C1569 C1570 1.399 . S
C1569 C1574 1.399 . S
C1570 C1569 1.399 . S
C1570 C1571 1.376 . S
C1571 H1558 0.930 . S
C1571 C1570 1.376 . S
C1571 C1572 1.388 . S
C1572 H1559 0.930 . S
C1572 C1571 1.388 . S
C1572 C1573 1.390 . S
C1573 C1572 1.390 . S
C1573 C1574 1.394 . S
C1573 C1579 1.465 . S
C1574 C1569 1.399 . S
C1574 C1573 1.394 . S
C1574 C1575 1.516 . S
C1575 C1574 1.516 . S
C1575 C1576 1.502 . S
C1575 C1577 1.561 . S
C1575 C1578 1.526 . S
C1576 H1560 0.959 1_455 S
C1576 H1561 0.959 1_455 S
C1576 H1562 0.961 . S
C1576 C1575 1.502 . S
C1577 H1563 0.960 . S
C1577 H1564 0.961 . S
C1577 H1565 0.959 . S
C1577 C1575 1.561 . S
C1578 C1575 1.526 . S
C1578 C1579 1.396 . S
C1578 C1583 1.390 . S
C1579 C1573 1.465 . S
C1579 C1578 1.396 . S
C1579 C1580 1.399 . S
C1580 H1566 0.929 . S
C1580 C1579 1.399 . S
C1580 C1581 1.385 . S
C1581 H1567 0.931 . S
C1581 C1580 1.385 . S
C1581 C1582 1.389 . S
C1582 C1581 1.389 . S
C1582 C1583 1.387 . S
C1583 H1568 0.930 . S
C1583 C1578 1.390 . S
C1583 C1582 1.387 . S
H1584 C1596 0.930 . S
H1585 C1598 0.930 . S
H1586 C1599 0.930 . S
H1587 C1603 0.959 . S
H1588 C1603 0.959 . S
H1589 C1603 0.961 . S
H1590 C1604 0.960 . S
H1591 C1604 0.961 . S
H1592 C1604 0.959 . S
H1593 C1607 0.929 . S
H1594 C1608 0.931 . S
H1595 C1610 0.930 . S
C1596 H1584 0.930 . S
C1596 C1597 1.399 . S
C1596 C1601 1.399 . S
C1597 C1596 1.399 . S
C1597 C1598 1.376 . S
C1598 H1585 0.930 . S
C1598 C1597 1.376 . S
C1598 C1599 1.388 . S
C1599 H1586 0.930 . S
C1599 C1598 1.388 . S
C1599 C1600 1.390 . S
C1600 C1599 1.390 . S
C1600 C1601 1.394 . S
C1600 C1606 1.465 . S
C1601 C1596 1.399 . S
C1601 C1600 1.394 . S
C1601 C1602 1.516 . S
C1602 C1601 1.516 . S
C1602 C1603 1.502 . S
C1602 C1604 1.561 . S
C1602 C1605 1.526 . S
C1603 H1587 0.959 . S
C1603 H1588 0.959 . S
C1603 H1589 0.961 . S
C1603 C1602 1.502 . S
C1604 H1590 0.960 . S
C1604 H1591 0.961 . S
C1604 H1592 0.959 . S
C1604 C1602 1.561 . S
C1605 C1602 1.526 . S
C1605 C1606 1.396 . S
C1605 C1610 1.390 . S
C1606 C1600 1.465 . S
C1606 C1605 1.396 . S
C1606 C1607 1.399 . S
C1607 H1593 0.929 . S
C1607 C1606 1.399 . S
C1607 C1608 1.385 . S
C1608 H1594 0.931 . S
C1608 C1607 1.385 . S
C1608 C1609 1.389 . S
C1609 C1608 1.389 . S
C1609 C1610 1.387 . S
C1610 H1595 0.930 . S
C1610 C1605 1.390 . S
C1610 C1609 1.387 . S
H1611 C1623 0.930 . S
H1612 C1625 0.930 . S
H1613 C1626 0.930 . S
H1614 C1630 0.959 . S
H1615 C1630 0.959 . S
H1616 C1630 0.961 . S
H1617 C1631 0.960 . S
H1618 C1631 0.961 . S
H1619 C1631 0.959 . S
H1620 C1634 0.930 1_455 S
H1621 C1635 0.931 . S
H1622 C1637 0.930 . S
C1623 H1611 0.930 . S
C1623 C1624 1.399 . S
C1623 C1628 1.399 . S
C1624 C1623 1.399 . S
C1624 C1625 1.376 . S
C1625 H1612 0.930 . S
C1625 C1624 1.376 . S
C1625 C1626 1.388 . S
C1626 H1613 0.930 . S
C1626 C1625 1.388 . S
C1626 C1627 1.390 . S
C1627 C1626 1.390 . S
C1627 C1628 1.394 . S
C1627 C1633 1.465 . S
C1628 C1623 1.399 . S
C1628 C1627 1.394 . S
C1628 C1629 1.516 . S
C1629 C1628 1.516 . S
C1629 C1630 1.502 . S
C1629 C1631 1.561 . S
C1629 C1632 1.526 . S
C1630 H1614 0.959 . S
C1630 H1615 0.959 . S
C1630 H1616 0.961 . S
C1630 C1629 1.502 . S
C1631 H1617 0.960 . S
C1631 H1618 0.961 . S
C1631 H1619 0.959 . S
C1631 C1629 1.561 . S
C1632 C1629 1.526 . S
C1632 C1633 1.396 . S
C1632 C1637 1.390 . S
C1633 C1627 1.465 . S
C1633 C1632 1.396 . S
C1633 C1634 1.399 . S
C1634 H1620 0.930 1_655 S
C1634 C1633 1.399 . S
C1634 C1635 1.385 . S
C1635 H1621 0.931 . S
C1635 C1634 1.385 . S
C1635 C1636 1.389 . S
C1636 C1635 1.389 . S
C1636 C1637 1.387 . S
C1637 H1622 0.930 . S
C1637 C1632 1.390 . S
C1637 C1636 1.387 . S
H1638 C1650 0.930 . S
H1639 C1652 0.930 . S
H1640 C1653 0.930 . S
H1641 C1657 0.959 . S
H1642 C1657 0.959 . S
H1643 C1657 0.961 . S
H1644 C1658 0.960 . S
H1645 C1658 0.961 . S
H1646 C1658 0.959 . S
H1647 C1661 0.929 . S
H1648 C1662 0.931 . S
H1649 C1664 0.930 . S
C1650 H1638 0.930 . S
C1650 C1651 1.399 . S
C1650 C1655 1.399 . S
C1651 C1650 1.399 . S
C1651 C1652 1.376 . S
C1652 H1639 0.930 . S
C1652 C1651 1.376 . S
C1652 C1653 1.388 . S
C1653 H1640 0.930 . S
C1653 C1652 1.388 . S
C1653 C1654 1.390 . S
C1654 C1653 1.390 . S
C1654 C1655 1.394 . S
C1654 C1660 1.465 . S
C1655 C1650 1.399 . S
C1655 C1654 1.394 . S
C1655 C1656 1.516 . S
C1656 C1655 1.516 . S
C1656 C1657 1.502 . S
C1656 C1658 1.561 . S
C1656 C1659 1.526 . S
C1657 H1641 0.959 . S
C1657 H1642 0.959 . S
C1657 H1643 0.961 . S
C1657 C1656 1.502 . S
C1658 H1644 0.960 . S
C1658 H1645 0.961 . S
C1658 H1646 0.959 . S
C1658 C1656 1.561 . S
C1659 C1656 1.526 . S
C1659 C1660 1.396 . S
C1659 C1664 1.390 . S
C1660 C1654 1.465 . S
C1660 C1659 1.396 . S
C1660 C1661 1.399 . S
C1661 H1647 0.929 . S
C1661 C1660 1.399 . S
C1661 C1662 1.385 . S
C1662 H1648 0.931 . S
C1662 C1661 1.385 . S
C1662 C1663 1.389 . S
C1663 C1662 1.389 . S
C1663 C1664 1.387 . S
C1664 H1649 0.930 . S
C1664 C1659 1.390 . S
C1664 C1663 1.387 . S
H1665 C1677 0.930 . S
H1666 C1679 0.930 . S
H1667 C1680 0.930 . S
H1668 C1684 0.959 . S
H1669 C1684 0.959 . S
H1670 C1684 0.961 . S
H1671 C1685 0.960 . S
H1672 C1685 0.961 . S
H1673 C1685 0.959 . S
H1674 C1688 0.929 . S
H1675 C1689 0.931 . S
H1676 C1691 0.930 . S
C1677 H1665 0.930 . S
C1677 C1678 1.399 . S
C1677 C1682 1.399 . S
C1678 C1677 1.399 . S
C1678 C1679 1.376 . S
C1679 H1666 0.930 . S
C1679 C1678 1.376 . S
C1679 C1680 1.388 . S
C1680 H1667 0.930 . S
C1680 C1679 1.388 . S
C1680 C1681 1.390 . S
C1681 C1680 1.390 . S
C1681 C1682 1.394 . S
C1681 C1687 1.465 . S
C1682 C1677 1.399 . S
C1682 C1681 1.394 . S
C1682 C1683 1.516 . S
C1683 C1682 1.516 . S
C1683 C1684 1.502 . S
C1683 C1685 1.561 . S
C1683 C1686 1.526 . S
C1684 H1668 0.959 . S
C1684 H1669 0.959 . S
C1684 H1670 0.961 . S
C1684 C1683 1.502 . S
C1685 H1671 0.960 . S
C1685 H1672 0.961 . S
C1685 H1673 0.959 . S
C1685 C1683 1.561 . S
C1686 C1683 1.526 . S
C1686 C1687 1.396 . S
C1686 C1691 1.390 . S
C1687 C1681 1.465 . S
C1687 C1686 1.396 . S
C1687 C1688 1.399 . S
C1688 H1674 0.929 . S
C1688 C1687 1.399 . S
C1688 C1689 1.385 . S
C1689 H1675 0.931 . S
C1689 C1688 1.385 . S
C1689 C1690 1.389 . S
C1690 C1689 1.389 . S
C1690 C1691 1.387 . S
C1691 H1676 0.930 . S
C1691 C1686 1.390 . S
C1691 C1690 1.387 . S
H1692 C1704 0.930 . S
H1693 C1706 0.930 . S
H1694 C1707 0.930 . S
H1695 C1711 0.959 . S
H1696 C1711 0.959 . S
H1697 C1711 0.961 . S
H1698 C1712 0.960 . S
H1699 C1712 0.961 . S
H1700 C1712 0.959 . S
H1701 C1715 0.929 . S
H1702 C1716 0.931 . S
H1703 C1718 0.930 . S
C1704 H1692 0.930 . S
C1704 C1705 1.399 . S
C1704 C1709 1.399 . S
C1705 C1704 1.399 . S
C1705 C1706 1.376 . S
C1706 H1693 0.930 . S
C1706 C1705 1.376 . S
C1706 C1707 1.388 . S
C1707 H1694 0.930 . S
C1707 C1706 1.388 . S
C1707 C1708 1.390 . S
C1708 C1707 1.390 . S
C1708 C1709 1.394 . S
C1708 C1714 1.465 . S
C1709 C1704 1.399 . S
C1709 C1708 1.394 . S
C1709 C1710 1.516 . S
C1710 C1709 1.516 . S
C1710 C1711 1.502 . S
C1710 C1712 1.561 . S
C1710 C1713 1.526 . S
C1711 H1695 0.959 . S
C1711 H1696 0.959 . S
C1711 H1697 0.961 . S
C1711 C1710 1.502 . S
C1712 H1698 0.960 . S
C1712 H1699 0.961 . S
C1712 H1700 0.959 . S
C1712 C1710 1.561 . S
C1713 C1710 1.526 . S
C1713 C1714 1.396 . S
C1713 C1718 1.390 . S
C1714 C1708 1.465 . S
C1714 C1713 1.396 . S
C1714 C1715 1.399 . S
C1715 H1701 0.929 . S
C1715 C1714 1.399 . S
C1715 C1716 1.385 . S
C1716 H1702 0.931 . S
C1716 C1715 1.385 . S
C1716 C1717 1.389 . S
C1717 C1716 1.389 . S
C1717 C1718 1.387 . S
C1718 H1703 0.930 . S
C1718 C1713 1.390 . S
C1718 C1717 1.387 . S
H1719 C1731 0.930 . S
H1720 C1733 0.930 . S
H1721 C1734 0.930 . S
H1722 C1738 0.959 . S
H1723 C1738 0.959 . S
H1724 C1738 0.961 . S
H1725 C1739 0.960 . S
H1726 C1739 0.961 . S
H1727 C1739 0.959 . S
H1728 C1742 0.929 . S
H1729 C1743 0.931 . S
H1730 C1745 0.930 . S
C1731 H1719 0.930 . S
C1731 C1732 1.399 . S
C1731 C1736 1.399 . S
C1732 C1731 1.399 . S
C1732 C1733 1.376 . S
C1733 H1720 0.930 . S
C1733 C1732 1.376 . S
C1733 C1734 1.388 . S
C1734 H1721 0.930 . S
C1734 C1733 1.388 . S
C1734 C1735 1.390 . S
C1735 C1734 1.390 . S
C1735 C1736 1.394 . S
C1735 C1741 1.465 . S
C1736 C1731 1.399 . S
C1736 C1735 1.394 . S
C1736 C1737 1.516 . S
C1737 C1736 1.516 . S
C1737 C1738 1.502 . S
C1737 C1739 1.561 . S
C1737 C1740 1.526 . S
C1738 H1722 0.959 . S
C1738 H1723 0.959 . S
C1738 H1724 0.961 . S
C1738 C1737 1.502 . S
C1739 H1725 0.960 . S
C1739 H1726 0.961 . S
C1739 H1727 0.959 . S
C1739 C1737 1.561 . S
C1740 C1737 1.526 . S
C1740 C1741 1.396 . S
C1740 C1745 1.390 . S
C1741 C1735 1.465 . S
C1741 C1740 1.396 . S
C1741 C1742 1.399 . S
C1742 H1728 0.929 . S
C1742 C1741 1.399 . S
C1742 C1743 1.385 . S
C1743 H1729 0.931 . S
C1743 C1742 1.385 . S
C1743 C1744 1.389 . S
C1744 C1743 1.389 . S
C1744 C1745 1.387 . S
C1745 H1730 0.930 . S
C1745 C1740 1.390 . S
C1745 C1744 1.387 . S
H1746 C1758 0.930 . S
H1747 C1760 0.930 . S
H1748 C1761 0.930 . S
H1749 C1765 0.959 . S
H1750 C1765 0.959 . S
H1751 C1765 0.961 . S
H1752 C1766 0.960 . S
H1753 C1766 0.961 . S
H1754 C1766 0.959 . S
H1755 C1769 0.929 . S
H1756 C1770 0.931 . S
H1757 C1772 0.930 . S
C1758 H1746 0.930 . S
C1758 C1759 1.399 . S
C1758 C1763 1.399 . S
C1759 C1758 1.399 . S
C1759 C1760 1.376 . S
C1760 H1747 0.930 . S
C1760 C1759 1.376 . S
C1760 C1761 1.388 . S
C1761 H1748 0.930 . S
C1761 C1760 1.388 . S
C1761 C1762 1.390 . S
C1762 C1761 1.390 . S
C1762 C1763 1.394 . S
C1762 C1768 1.465 . S
C1763 C1758 1.399 . S
C1763 C1762 1.394 . S
C1763 C1764 1.516 . S
C1764 C1763 1.516 . S
C1764 C1765 1.502 . S
C1764 C1766 1.561 . S
C1764 C1767 1.526 . S
C1765 H1749 0.959 . S
C1765 H1750 0.959 . S
C1765 H1751 0.961 . S
C1765 C1764 1.502 . S
C1766 H1752 0.960 . S
C1766 H1753 0.961 . S
C1766 H1754 0.959 . S
C1766 C1764 1.561 . S
C1767 C1764 1.526 . S
C1767 C1768 1.396 . S
C1767 C1772 1.390 . S
C1768 C1762 1.465 . S
C1768 C1767 1.396 . S
C1768 C1769 1.399 . S
C1769 H1755 0.929 . S
C1769 C1768 1.399 . S
C1769 C1770 1.385 . S
C1770 H1756 0.931 . S
C1770 C1769 1.385 . S
C1770 C1771 1.389 . S
C1771 C1770 1.389 . S
C1771 C1772 1.387 . S
C1772 H1757 0.930 . S
C1772 C1767 1.390 . S
C1772 C1771 1.387 . S
H1773 C1785 0.930 . S
H1774 C1787 0.930 . S
H1775 C1788 0.930 . S
H1776 C1792 0.959 . S
H1777 C1792 0.959 . S
H1778 C1792 0.961 . S
H1779 C1793 0.960 . S
H1780 C1793 0.961 . S
H1781 C1793 0.959 . S
H1782 C1796 0.929 . S
H1783 C1797 0.931 . S
H1784 C1799 0.930 . S
C1785 H1773 0.930 . S
C1785 C1786 1.399 . S
C1785 C1790 1.399 . S
C1786 C1785 1.399 . S
C1786 C1787 1.376 . S
C1787 H1774 0.930 . S
C1787 C1786 1.376 . S
C1787 C1788 1.388 . S
C1788 H1775 0.930 . S
C1788 C1787 1.388 . S
C1788 C1789 1.390 . S
C1789 C1788 1.390 . S
C1789 C1790 1.394 . S
C1789 C1795 1.465 . S
C1790 C1785 1.399 . S
C1790 C1789 1.394 . S
C1790 C1791 1.516 . S
C1791 C1790 1.516 . S
C1791 C1792 1.502 . S
C1791 C1793 1.561 . S
C1791 C1794 1.526 . S
C1792 H1776 0.959 . S
C1792 H1777 0.959 . S
C1792 H1778 0.961 . S
C1792 C1791 1.502 . S
C1793 H1779 0.960 . S
C1793 H1780 0.961 . S
C1793 H1781 0.959 . S
C1793 C1791 1.561 . S
C1794 C1791 1.526 . S
C1794 C1795 1.396 . S
C1794 C1799 1.390 . S
C1795 C1789 1.465 . S
C1795 C1794 1.396 . S
C1795 C1796 1.399 . S
C1796 H1782 0.929 . S
C1796 C1795 1.399 . S
C1796 C1797 1.385 . S
C1797 H1783 0.931 . S
C1797 C1796 1.385 . S
C1797 C1798 1.389 . S
C1798 C1797 1.389 . S
C1798 C1799 1.387 . S
C1799 H1784 0.930 . S
C1799 C1794 1.390 . S
C1799 C1798 1.387 . S
H1800 C1812 0.930 . S
H1801 C1814 0.930 . S
H1802 C1815 0.930 . S
H1803 C1819 0.959 . S
H1804 C1819 0.959 . S
H1805 C1819 0.961 . S
H1806 C1820 0.960 . S
H1807 C1820 0.961 . S
H1808 C1820 0.959 . S
H1809 C1823 0.929 . S
H1810 C1824 0.931 . S
H1811 C1826 0.930 . S
C1812 H1800 0.930 . S
C1812 C1813 1.399 . S
C1812 C1817 1.399 . S
C1813 C1812 1.399 . S
C1813 C1814 1.376 . S
C1814 H1801 0.930 . S
C1814 C1813 1.376 . S
C1814 C1815 1.388 . S
C1815 H1802 0.930 . S
C1815 C1814 1.388 . S
C1815 C1816 1.390 . S
C1816 C1815 1.390 . S
C1816 C1817 1.394 . S
C1816 C1822 1.465 . S
C1817 C1812 1.399 . S
C1817 C1816 1.394 . S
C1817 C1818 1.516 . S
C1818 C1817 1.516 . S
C1818 C1819 1.502 . S
C1818 C1820 1.561 . S
C1818 C1821 1.526 . S
C1819 H1803 0.959 . S
C1819 H1804 0.959 . S
C1819 H1805 0.961 . S
C1819 C1818 1.502 . S
C1820 H1806 0.960 . S
C1820 H1807 0.961 . S
C1820 H1808 0.959 . S
C1820 C1818 1.561 . S
C1821 C1818 1.526 . S
C1821 C1822 1.396 . S
C1821 C1826 1.390 . S
C1822 C1816 1.465 . S
C1822 C1821 1.396 . S
C1822 C1823 1.399 . S
C1823 H1809 0.929 . S
C1823 C1822 1.399 . S
C1823 C1824 1.385 . S
C1824 H1810 0.931 . S
C1824 C1823 1.385 . S
C1824 C1825 1.389 . S
C1825 C1824 1.389 . S
C1825 C1826 1.387 . S
C1826 H1811 0.930 . S
C1826 C1821 1.390 . S
C1826 C1825 1.387 . S
H1827 C1839 0.930 . S
H1828 C1841 0.930 . S
H1829 C1842 0.930 . S
H1830 C1846 0.959 . S
H1831 C1846 0.959 . S
H1832 C1846 0.961 . S
H1833 C1847 0.960 . S
H1834 C1847 0.961 . S
H1835 C1847 0.959 . S
H1836 C1850 0.929 . S
H1837 C1851 0.931 . S
H1838 C1853 0.930 . S
C1839 H1827 0.930 . S
C1839 C1840 1.399 . S
C1839 C1844 1.399 . S
C1840 C1839 1.399 . S
C1840 C1841 1.376 . S
C1841 H1828 0.930 . S
C1841 C1840 1.376 . S
C1841 C1842 1.388 . S
C1842 H1829 0.930 . S
C1842 C1841 1.388 . S
C1842 C1843 1.390 . S
C1843 C1842 1.390 . S
C1843 C1844 1.394 . S
C1843 C1849 1.465 . S
C1844 C1839 1.399 . S
C1844 C1843 1.394 . S
C1844 C1845 1.516 . S
C1845 C1844 1.516 . S
C1845 C1846 1.502 . S
C1845 C1847 1.561 . S
C1845 C1848 1.526 . S
C1846 H1830 0.959 . S
C1846 H1831 0.959 . S
C1846 H1832 0.961 . S
C1846 C1845 1.502 . S
C1847 H1833 0.960 . S
C1847 H1834 0.961 . S
C1847 H1835 0.959 . S
C1847 C1845 1.561 . S
C1848 C1845 1.526 . S
C1848 C1849 1.396 . S
C1848 C1853 1.390 . S
C1849 C1843 1.465 . S
C1849 C1848 1.396 . S
C1849 C1850 1.399 . S
C1850 H1836 0.929 . S
C1850 C1849 1.399 . S
C1850 C1851 1.385 . S
C1851 H1837 0.931 . S
C1851 C1850 1.385 . S
C1851 C1852 1.389 . S
C1852 C1851 1.389 . S
C1852 C1853 1.387 . S
C1853 H1838 0.930 . S
C1853 C1848 1.390 . S
C1853 C1852 1.387 . S
H1854 C1866 0.930 . S
H1855 C1868 0.930 . S
H1856 C1869 0.930 . S
H1857 C1873 0.959 . S
H1858 C1873 0.959 . S
H1859 C1873 0.961 . S
H1860 C1874 0.960 . S
H1861 C1874 0.961 . S
H1862 C1874 0.959 . S
H1863 C1877 0.929 . S
H1864 C1878 0.931 . S
H1865 C1880 0.930 . S
C1866 H1854 0.930 . S
C1866 C1867 1.399 . S
C1866 C1871 1.399 . S
C1867 C1866 1.399 . S
C1867 C1868 1.376 . S
C1868 H1855 0.930 . S
C1868 C1867 1.376 . S
C1868 C1869 1.388 . S
C1869 H1856 0.930 . S
C1869 C1868 1.388 . S
C1869 C1870 1.390 . S
C1870 C1869 1.390 . S
C1870 C1871 1.394 . S
C1870 C1876 1.465 . S
C1871 C1866 1.399 . S
C1871 C1870 1.394 . S
C1871 C1872 1.516 . S
C1872 C1871 1.516 . S
C1872 C1873 1.502 . S
C1872 C1874 1.561 . S
C1872 C1875 1.526 . S
C1873 H1857 0.959 . S
C1873 H1858 0.959 . S
C1873 H1859 0.961 . S
C1873 C1872 1.502 . S
C1874 H1860 0.960 . S
C1874 H1861 0.961 . S
C1874 H1862 0.959 . S
C1874 C1872 1.561 . S
C1875 C1872 1.526 . S
C1875 C1876 1.396 . S
C1875 C1880 1.390 . S
C1876 C1870 1.465 . S
C1876 C1875 1.396 . S
C1876 C1877 1.399 . S
C1877 H1863 0.929 . S
C1877 C1876 1.399 . S
C1877 C1878 1.385 . S
C1878 H1864 0.931 . S
C1878 C1877 1.385 . S
C1878 C1879 1.389 . S
C1879 C1878 1.389 . S
C1879 C1880 1.387 . S
C1880 H1865 0.930 . S
C1880 C1875 1.390 . S
C1880 C1879 1.387 . S
H1881 C1893 0.930 . S
H1882 C1895 0.930 . S
H1883 C1896 0.930 . S
H1884 C1900 0.959 . S
H1885 C1900 0.959 . S
H1886 C1900 0.961 . S
H1887 C1901 0.960 . S
H1888 C1901 0.961 . S
H1889 C1901 0.959 . S
H1890 C1904 0.929 . S
H1891 C1905 0.931 . S
H1892 C1907 0.930 . S
C1893 H1881 0.930 . S
C1893 C1894 1.399 . S
C1893 C1898 1.399 . S
C1894 C1893 1.399 . S
C1894 C1895 1.376 . S
C1895 H1882 0.930 . S
C1895 C1894 1.376 . S
C1895 C1896 1.388 . S
C1896 H1883 0.930 . S
C1896 C1895 1.388 . S
C1896 C1897 1.390 . S
C1897 C1896 1.390 . S
C1897 C1898 1.394 . S
C1897 C1903 1.465 . S
C1898 C1893 1.399 . S
C1898 C1897 1.394 . S
C1898 C1899 1.516 . S
C1899 C1898 1.516 . S
C1899 C1900 1.502 . S
C1899 C1901 1.561 . S
C1899 C1902 1.526 . S
C1900 H1884 0.959 . S
C1900 H1885 0.959 . S
C1900 H1886 0.961 . S
C1900 C1899 1.502 . S
C1901 H1887 0.960 . S
C1901 H1888 0.961 . S
C1901 H1889 0.959 . S
C1901 C1899 1.561 . S
C1902 C1899 1.526 . S
C1902 C1903 1.396 . S
C1902 C1907 1.390 . S
C1903 C1897 1.465 . S
C1903 C1902 1.396 . S
C1903 C1904 1.399 . S
C1904 H1890 0.929 . S
C1904 C1903 1.399 . S
C1904 C1905 1.385 . S
C1905 H1891 0.931 . S
C1905 C1904 1.385 . S
C1905 C1906 1.389 . S
C1906 C1905 1.389 . S
C1906 C1907 1.387 . S
C1907 H1892 0.930 . S
C1907 C1902 1.390 . S
C1907 C1906 1.387 . S
H1908 C1920 0.930 . S
H1909 C1922 0.930 . S
H1910 C1923 0.930 . S
H1911 C1927 0.959 . S
H1912 C1927 0.959 . S
H1913 C1927 0.961 . S
H1914 C1928 0.960 . S
H1915 C1928 0.961 . S
H1916 C1928 0.959 . S
H1917 C1931 0.929 . S
H1918 C1932 0.931 . S
H1919 C1934 0.930 . S
C1920 H1908 0.930 . S
C1920 C1921 1.399 . S
C1920 C1925 1.399 . S
C1921 C1920 1.399 . S
C1921 C1922 1.376 . S
C1922 H1909 0.930 . S
C1922 C1921 1.376 . S
C1922 C1923 1.388 . S
C1923 H1910 0.930 . S
C1923 C1922 1.388 . S
C1923 C1924 1.390 . S
C1924 C1923 1.390 . S
C1924 C1925 1.394 . S
C1924 C1930 1.465 . S
C1925 C1920 1.399 . S
C1925 C1924 1.394 . S
C1925 C1926 1.516 . S
C1926 C1925 1.516 . S
C1926 C1927 1.502 . S
C1926 C1928 1.561 . S
C1926 C1929 1.526 . S
C1927 H1911 0.959 . S
C1927 H1912 0.959 . S
C1927 H1913 0.961 . S
C1927 C1926 1.502 . S
C1928 H1914 0.960 . S
C1928 H1915 0.961 . S
C1928 H1916 0.959 . S
C1928 C1926 1.561 . S
C1929 C1926 1.526 . S
C1929 C1930 1.396 . S
C1929 C1934 1.390 . S
C1930 C1924 1.465 . S
C1930 C1929 1.396 . S
C1930 C1931 1.399 . S
C1931 H1917 0.929 . S
C1931 C1930 1.399 . S
C1931 C1932 1.385 . S
C1932 H1918 0.931 . S
C1932 C1931 1.385 . S
C1932 C1933 1.389 . S
C1933 C1932 1.389 . S
C1933 C1934 1.387 . S
C1934 H1919 0.930 . S
C1934 C1929 1.390 . S
C1934 C1933 1.387 . S
H1935 C1947 0.930 . S
H1936 C1949 0.930 . S
H1937 C1950 0.930 . S
H1938 C1954 0.959 . S
H1939 C1954 0.959 . S
H1940 C1954 0.961 . S
H1941 C1955 0.960 . S
H1942 C1955 0.961 . S
H1943 C1955 0.959 . S
H1944 C1958 0.929 . S
H1945 C1959 0.931 . S
H1946 C1961 0.930 . S
C1947 H1935 0.930 . S
C1947 C1948 1.399 . S
C1947 C1952 1.399 . S
C1948 C1947 1.399 . S
C1948 C1949 1.376 . S
C1949 H1936 0.930 . S
C1949 C1948 1.376 . S
C1949 C1950 1.388 . S
C1950 H1937 0.930 . S
C1950 C1949 1.388 . S
C1950 C1951 1.390 . S
C1951 C1950 1.390 . S
C1951 C1952 1.394 . S
C1951 C1957 1.465 . S
C1952 C1947 1.399 . S
C1952 C1951 1.394 . S
C1952 C1953 1.516 . S
C1953 C1952 1.516 . S
C1953 C1954 1.502 . S
C1953 C1955 1.561 . S
C1953 C1956 1.526 . S
C1954 H1938 0.959 . S
C1954 H1939 0.959 . S
C1954 H1940 0.961 . S
C1954 C1953 1.502 . S
C1955 H1941 0.960 . S
C1955 H1942 0.961 . S
C1955 H1943 0.959 . S
C1955 C1953 1.561 . S
C1956 C1953 1.526 . S
C1956 C1957 1.396 . S
C1956 C1961 1.390 . S
C1957 C1951 1.465 . S
C1957 C1956 1.396 . S
C1957 C1958 1.399 . S
C1958 H1944 0.929 . S
C1958 C1957 1.399 . S
C1958 C1959 1.385 . S
C1959 H1945 0.931 . S
C1959 C1958 1.385 . S
C1959 C1960 1.389 . S
C1960 C1959 1.389 . S
C1960 C1961 1.387 . S
C1961 H1946 0.930 . S
C1961 C1956 1.390 . S
C1961 C1960 1.387 . S
H1962 C1974 0.930 . S
H1963 C1976 0.930 . S
H1964 C1977 0.930 . S
H1965 C1981 0.959 . S
H1966 C1981 0.959 . S
H1967 C1981 0.961 . S
H1968 C1982 0.960 . S
H1969 C1982 0.961 . S
H1970 C1982 0.959 . S
H1971 C1985 0.929 . S
H1972 C1986 0.931 . S
H1973 C1988 0.930 . S
C1974 H1962 0.930 . S
C1974 C1975 1.399 . S
C1974 C1979 1.399 . S
C1975 C1974 1.399 . S
C1975 C1976 1.376 . S
C1976 H1963 0.930 . S
C1976 C1975 1.376 . S
C1976 C1977 1.388 . S
C1977 H1964 0.930 . S
C1977 C1976 1.388 . S
C1977 C1978 1.390 . S
C1978 C1977 1.390 . S
C1978 C1979 1.394 . S
C1978 C1984 1.465 . S
C1979 C1974 1.399 . S
C1979 C1978 1.394 . S
C1979 C1980 1.516 . S
C1980 C1979 1.516 . S
C1980 C1981 1.502 . S
C1980 C1982 1.561 . S
C1980 C1983 1.526 . S
C1981 H1965 0.959 . S
C1981 H1966 0.959 . S
C1981 H1967 0.961 . S
C1981 C1980 1.502 . S
C1982 H1968 0.960 . S
C1982 H1969 0.961 . S
C1982 H1970 0.959 . S
C1982 C1980 1.561 . S
C1983 C1980 1.526 . S
C1983 C1984 1.396 . S
C1983 C1988 1.390 . S
C1984 C1978 1.465 . S
C1984 C1983 1.396 . S
C1984 C1985 1.399 . S
C1985 H1971 0.929 . S
C1985 C1984 1.399 . S
C1985 C1986 1.385 . S
C1986 H1972 0.931 . S
C1986 C1985 1.385 . S
C1986 C1987 1.389 . S
C1987 C1986 1.389 . S
C1987 C1988 1.387 . S
C1988 H1973 0.930 . S
C1988 C1983 1.390 . S
C1988 C1987 1.387 . S
H1989 C2001 0.930 . S
H1990 C2003 0.930 . S
H1991 C2004 0.930 . S
H1992 C2008 0.959 . S
H1993 C2008 0.959 . S
H1994 C2008 0.961 . S
H1995 C2009 0.960 . S
H1996 C2009 0.961 . S
H1997 C2009 0.959 . S
H1998 C2012 0.929 . S
H1999 C2013 0.931 . S
H2000 C2015 0.930 . S
C2001 H1989 0.930 . S
C2001 C2002 1.399 . S
C2001 C2006 1.399 . S
C2002 C2001 1.399 . S
C2002 C2003 1.376 . S
C2003 H1990 0.930 . S
C2003 C2002 1.376 . S
C2003 C2004 1.388 . S
C2004 H1991 0.930 . S
C2004 C2003 1.388 . S
C2004 C2005 1.390 . S
C2005 C2004 1.390 . S
C2005 C2006 1.394 . S
C2005 C2011 1.465 . S
C2006 C2001 1.399 . S
C2006 C2005 1.394 . S
C2006 C2007 1.516 . S
C2007 C2006 1.516 . S
C2007 C2008 1.502 . S
C2007 C2009 1.561 . S
C2007 C2010 1.526 . S
C2008 H1992 0.959 . S
C2008 H1993 0.959 . S
C2008 H1994 0.961 . S
C2008 C2007 1.502 . S
C2009 H1995 0.960 . S
C2009 H1996 0.961 . S
C2009 H1997 0.959 . S
C2009 C2007 1.561 . S
C2010 C2007 1.526 . S
C2010 C2011 1.396 . S
C2010 C2015 1.390 . S
C2011 C2005 1.465 . S
C2011 C2010 1.396 . S
C2011 C2012 1.399 . S
C2012 H1998 0.929 . S
C2012 C2011 1.399 . S
C2012 C2013 1.385 . S
C2013 H1999 0.931 . S
C2013 C2012 1.385 . S
C2013 C2014 1.389 . S
C2014 C2013 1.389 . S
C2014 C2015 1.387 . S
C2015 H2000 0.930 . S
C2015 C2010 1.390 . S
C2015 C2014 1.387 . S
C571 C147 1.652 . S
C583 C210 1.667 . S
C598 C158 1.777 . S
C610 C250 1.793 . S
C625 C136 1.584 . S
C637 C280 1.606 . S
C652 C125 1.467 . S
C664 C240 1.482 1_556 S
C691 C290 1.503 . S
C679 C103 1.500 . S
C706 C114 1.352 . S
C718 C200 1.374 1_556 S
C745 C229 1.655 . S
C733 C131 1.669 . S
C772 C269 1.683 . S
C760 C109 1.644 . S
C787 C120 1.678 . S
C799 C295 1.643 . S
C814 C153 1.525 . S
C826 C255 1.479 . S
C841 C164 1.467 . S
C853 C309 1.442 . S
C880 C215 1.492 . S
C868 C142 1.411 . S
C907 C330 1.665 . S
C895 C15 1.663 . S
C922 C26 1.776 . S
C934 C370 1.784 . S
C949 C4 1.574 . S
C961 C400 1.606 . S
C976 C191 1.461 . S
C988 C360 1.482 . S
C1003 C169 1.494 . S
C1015 C410 1.492 . S
C1030 C180 1.333 . S
C1042 C320 1.340 . S
C1057 C197 1.670 . S
C1069 C349 1.653 . S
C1084 C175 1.637 . S
C1096 C389 1.683 . S
C1123 C415 1.640 . S
C1111 C186 1.680 . S
C1138 C21 1.467 . S
C1150 C375 1.528 . S
C1177 C429 1.469 . S
C1165 C32 1.443 . S
C1192 C10 1.413 . S
C1204 C335 1.491 . S
C1231 C450 1.671 . S
C1219 C81 1.667 . S
C1246 C92 1.781 . S
C1258 C490 1.777 . S
C1285 C520 1.547 . S
C1273 C70 1.603 . S
C1312 C480 1.419 . S
C1300 C59 1.482 . S
C1339 C530 1.501 . S
C1327 C37 1.500 . S
C1354 C48 1.346 . S
C1366 C440 1.325 . S
C1381 C65 1.669 . S
C1393 C469 1.654 . S
C1408 C43 1.664 . S
C1420 C509 1.658 . S
C1447 C535 1.677 . S
C1435 C54 1.632 . S
C1462 C87 1.466 . S
C1474 C495 1.529 . S
C1489 C98 1.448 . S
C1501 C549 1.467 . S
C1516 C76 1.473 . S
C1528 C455 1.445 . S
C1543 C170 1.501 . S
C1555 C227 1.456 . S
C1582 C267 1.923 . S
C1570 C181 1.910 . S
C1597 C192 1.564 . S
C1609 C286 1.552 . S
C1624 C71 1.786 . S
C1636 C246 1.755 . S
C1651 C82 1.653 . S
C1663 C307 1.675 . S
C1690 C206 1.304 . S
C1678 C93 1.281 . S
C1705 C38 1.508 . S
C1717 C347 1.440 . S
C1732 C49 1.910 . S
C1744 C387 1.918 . S
C1759 C60 1.534 . S
C1771 C406 1.579 . S
C1786 C137 1.762 . S
C1798 C366 1.752 . S
C1825 C427 1.667 . S
C1813 C148 1.656 . S
C1840 C159 1.291 . S
C1852 C326 1.309 . S
C1867 C104 1.486 . S
C1879 C467 1.480 . S
C1894 C115 1.911 . S
C1906 C507 1.917 . S
C1933 C526 1.552 . S
C1921 C126 1.566 . S
C1948 C5 1.752 . S
C1960 C486 1.783 . S
C1975 C16 1.653 . S
C1987 C547 1.677 . S
C2002 C27 1.284 . S
C2014 C446 1.299 . S
