# Generated by pormake.
# Topology pyr, (3,6)-cn, num edge types: 1
# Building blocks:
#     Node 0, Type 0, BuildingBlock: BELTOD_clean_linker_0, # of connection points: 3
#     Node 1, Type 0, BuildingBlock: BELTOD_clean_linker_0, # of connection points: 3
#     Node 2, Type 0, BuildingBlock: BELTOD_clean_linker_0, # of connection points: 3
#     Node 3, Type 0, BuildingBlock: BELTOD_clean_linker_0, # of connection points: 3
#     Node 4, Type 0, BuildingBlock: BELTOD_clean_linker_0, # of connection points: 3
#     Node 5, Type 0, BuildingBlock: BELTOD_clean_linker_0, # of connection points: 3
#     Node 6, Type 0, BuildingBlock: BELTOD_clean_linker_0, # of connection points: 3
#     Node 7, Type 0, BuildingBlock: BELTOD_clean_linker_0, # of connection points: 3
#     Node 8, Type 1, BuildingBlock: BETDAH_clean_sbu_0, # of connection points: 6
#     Node 9, Type 1, BuildingBlock: BETDAH_clean_sbu_0, # of connection points: 6
#     Node 10, Type 1, BuildingBlock: BETDAH_clean_sbu_0, # of connection points: 6
#     Node 11, Type 1, BuildingBlock: BETDAH_clean_sbu_0, # of connection points: 6
#     Edge 12, Type (0, 1), None
#     Edge 13, Type (0, 1), None
#     Edge 14, Type (0, 1), None
#     Edge 15, Type (0, 1), None
#     Edge 16, Type (0, 1), None
#     Edge 17, Type (0, 1), None
#     Edge 18, Type (0, 1), None
#     Edge 19, Type (0, 1), None
#     Edge 20, Type (0, 1), None
#     Edge 21, Type (0, 1), None
#     Edge 22, Type (0, 1), None
#     Edge 23, Type (0, 1), None
#     Edge 24, Type (0, 1), None
#     Edge 25, Type (0, 1), None
#     Edge 26, Type (0, 1), None
#     Edge 27, Type (0, 1), None
#     Edge 28, Type (0, 1), None
#     Edge 29, Type (0, 1), None
#     Edge 30, Type (0, 1), None
#     Edge 31, Type (0, 1), None
#     Edge 32, Type (0, 1), None
#     Edge 33, Type (0, 1), None
#     Edge 34, Type (0, 1), None
#     Edge 35, Type (0, 1), None
# Relax obj value: 0.282
# Max RMSD: 0.171
# Mean RMSD: 0.085
data_MOF--net-pyr--node1-BETDAH_clean_sbu_0--node2-BELTOD_clean_linker_0--edge1-none
_symmetry_space_group_name_H-M    P1
_symmetry_Int_Tables_number       1
_symmetry_cell_setting            triclinic
loop_
_symmetry_equiv_pos_as_xyz
'x, y, z'
_cell_length_a     22.362072
_cell_length_b     23.899389
_cell_length_c     20.900386
_cell_angle_alpha  90.915331
_cell_angle_beta   87.887713
_cell_angle_gamma 106.28641
loop_
_atom_site_label
_atom_site_type_symbol
_atom_site_fract_x
_atom_site_fract_y
_atom_site_fract_z
_atom_type_partial_charge
P0 P 0.46509 0.37516 0.31864 0.0
H1 H 0.57856 0.3551 0.26043 0.0
H2 H 0.60435 0.26683 0.22391 0.0
H3 H 0.43084 0.162 0.30884 0.0
H4 H 0.40537 0.24947 0.34473 0.0
H5 H 0.44082 0.47037 0.24633 0.0
H6 H 0.34262 0.48137 0.2085 0.0
H7 H 0.25654 0.29751 0.23781 0.0
H8 H 0.35375 0.28675 0.27423 0.0
H9 H 0.43822 0.30262 0.43728 0.0
H10 H 0.40331 0.4596 0.37062 0.0
O11 O 0.52595 0.43415 0.31037 0.0
H12 H 0.33562 0.27428 0.49003 0.0
H13 H 0.30012 0.43166 0.42297 0.0
C14 C 0.48994 0.30964 0.30549 0.0
C15 C 0.54682 0.31314 0.27282 0.0
C16 C 0.56169 0.26243 0.25215 0.0
C17 C 0.51945 0.20718 0.26312 0.0
C18 C 0.46451 0.20372 0.29952 0.0
C19 C 0.44983 0.2543 0.32013 0.0
C20 C 0.40561 0.37761 0.26299 0.0
C21 C 0.40173 0.43187 0.24171 0.0
C22 C 0.34506 0.43835 0.22129 0.0
C23 C 0.29132 0.39048 0.22126 0.0
C24 C 0.29691 0.3353 0.23687 0.0
C25 C 0.35331 0.32902 0.25758 0.0
C26 C 0.4249 0.37965 0.39413 0.0
C27 C 0.40917 0.33184 0.43531 0.0
C28 C 0.35052 0.31606 0.46619 0.0
C29 C 0.30843 0.34918 0.45705 0.0
C30 C 0.33068 0.40412 0.42843 0.0
C31 C 0.3899 0.42014 0.39874 0.0
P32 P 0.38824 0.08649 0.65239 0.0
H33 H 0.45248 0.14678 0.76367 0.0
H34 H 0.41818 0.15076 0.87561 0.0
H35 H 0.22934 1.06114 0.82619 0.0
H36 H 0.26361 1.05636 0.71535 0.0
H37 H 0.49826 1.0527 0.6029 0.0
H38 H 0.53352 0.96568 0.61966 0.0
H39 H 0.36561 0.88984 0.7331 0.0
H40 H 0.33112 0.97624 0.71661 0.0
H41 H 0.32988 0.17057 0.60695 0.0
H42 H 0.30079 0.98447 0.5924 0.0
O43 O 0.44765 0.14206 0.62735 0.0
H44 H 0.22278 0.15829 0.57565 0.0
H45 H 0.1935 0.97246 0.5602 0.0
C46 C 0.36083 0.10194 0.73087 0.0
C47 C 0.40343 0.12973 0.7766 0.0
C48 C 0.38358 0.13229 0.84044 0.0
C49 C 0.32089 0.1064 0.85939 0.0
C50 C 0.27776 1.08152 0.81281 0.0
C51 C 0.29759 1.07908 0.74918 0.0
C52 C 0.41243 1.02116 0.65912 0.0
C53 C 0.46905 1.01717 0.63112 0.0
C54 C 0.48909 0.96749 0.64065 0.0
C55 C 0.45274 0.92138 0.67852 0.0
C56 C 0.39535 0.9252 0.70499 0.0
C57 C 0.3754 0.97452 0.69528 0.0
C58 C 0.32334 1.07855 0.6019 0.0
C59 C 0.30141 0.1274 0.59435 0.0
C60 C 0.24005 0.12032 0.57765 0.0
C61 C 0.20035 1.06435 0.56736 0.0
C62 C 0.22364 1.01584 0.569 0.0
C63 C 0.28505 1.02287 0.58658 0.0
P64 P 0.68129 0.37804 0.89583 0.0
H65 H 0.73398 0.34644 1.01165 0.0
H66 H 0.82237 0.3968 1.07528 0.0
H67 H 0.84099 0.55429 0.96852 0.0
H68 H 0.75298 0.50301 0.90372 0.0
H69 H 0.68148 0.25488 0.90073 0.0
H70 H 0.62308 0.17164 0.96502 0.0
H71 H 0.51124 0.27598 1.04905 0.0
H72 H 0.57044 0.35995 0.9845 0.0
H73 H 0.65369 0.36624 0.75958 0.0
H74 H 0.62642 0.47935 0.91366 0.0
O75 O 0.72803 0.35245 0.84653 0.0
H76 H 0.61432 0.42252 0.68402 0.0
H77 H 0.58531 0.53614 0.83741 0.0
C78 C 0.73499 0.42104 0.95356 0.0
C79 C 0.75554 0.39231 1.00293 0.0
C80 C 0.8068 0.42117 1.03927 0.0
C81 C 0.8392 0.47978 1.02735 0.0
C82 C 0.817 0.50931 0.97967 0.0
C83 C 0.7661 0.48006 0.94265 0.0
C84 C 0.62981 0.31405 0.93632 0.0
C85 C 0.64366 0.26002 0.93192 0.0
C86 C 0.61047 0.21215 0.96927 0.0
C87 C 0.56241 0.21683 1.01236 0.0
C88 C 0.54786 0.27065 1.01619 0.0
C89 C 0.58138 0.31875 0.97891 0.0
C90 C 0.64406 0.41841 0.84291 0.0
C91 C 0.63902 0.4032 0.77758 0.0
C92 C 0.6165 0.4359 0.73385 0.0
C93 C 0.5971 0.48485 0.75377 0.0
C94 C 0.60025 0.49922 0.81976 0.0
C95 C 0.62349 0.46645 0.86373 0.0
P96 P 0.83718 0.73601 0.37534 0.0
H97 H 0.83668 0.85835 0.35724 0.0
H98 H 0.89301 0.95098 0.40598 0.0
H99 H 0.99851 0.86114 0.51354 0.0
H100 H 0.94293 0.76857 0.4633 0.0
H101 H 0.81423 0.60822 0.3612 0.0
H102 H 0.85936 0.54767 0.28988 0.0
H103 H 0.99712 0.70124 0.21998 0.0
H104 H 0.95102 0.76208 0.29138 0.0
H105 H 0.71402 0.65122 0.36664 0.0
H106 H 0.83113 0.73709 0.51884 0.0
O107 O 0.79533 0.75299 0.31805 0.0
H108 H 0.63006 0.6089 0.44519 0.0
H109 H 0.74727 0.69487 0.59748 0.0
C110 C 0.88541 0.80578 0.40617 0.0
C111 C 0.87279 0.8584 0.3903 0.0
C112 C 0.90524 0.91182 0.41823 0.0
C113 C 0.95052 0.91405 0.46383 0.0
C114 C 0.96404 0.86144 0.47858 0.0
C115 C 0.93225 0.80818 0.44983 0.0
C116 C 0.87997 0.69011 0.33369 0.0
C117 C 0.85493 0.62916 0.33179 0.0
C118 C 0.8806 0.59435 0.29016 0.0
C119 C 0.93197 0.61929 0.24859 0.0
C120 C 0.95766 0.68029 0.25109 0.0
C121 C 0.9317 0.71518 0.29268 0.0
C122 C 0.77938 0.69792 0.4361 0.0
C123 C 0.72221 0.66046 0.41696 0.0
C124 C 0.67396 0.63624 0.46205 0.0
C125 C 0.68149 0.64868 0.5278 0.0
C126 C 0.73965 0.68429 0.5473 0.0
C127 C 0.78795 0.7086 0.50204 0.0
P128 P 0.65425 0.87277 0.87171 0.0
H129 H 0.59545 0.84246 1.00038 0.0
H130 H 0.5399 0.89825 1.06507 0.0
H131 H 0.51115 0.98771 0.89657 0.0
H132 H 0.56406 0.92944 0.83084 0.0
H133 H 0.7856 0.92727 0.89623 0.0
H134 H 0.86515 0.89011 0.94075 0.0
H135 H 0.72481 0.73359 1.00007 0.0
H136 H 0.64412 0.77258 0.95792 0.0
H137 H 0.64938 0.89468 0.73408 0.0
H138 H 0.63984 0.74515 0.84922 0.0
O139 O 0.69129 0.93986 0.84605 0.0
H140 H 0.73111 0.87371 0.66711 0.0
H141 H 0.72526 0.72572 0.78528 0.0
C142 C 0.58478 0.88222 0.91067 0.0
C143 C 0.57362 0.8708 0.97626 0.0
C144 C 0.54178 0.90297 1.01349 0.0
C145 C 0.52202 0.94745 0.98558 0.0
C146 C 0.52548 0.95315 0.91888 0.0
C147 C 0.55571 0.91969 0.88139 0.0
C148 C 0.70843 0.85271 0.92309 0.0
C149 C 0.77109 0.88584 0.92064 0.0
C150 C 0.81701 0.86413 0.94556 0.0
C151 C 0.80162 0.8081 0.97231 0.0
C152 C 0.73833 0.77683 0.97957 0.0
C153 C 0.69207 0.79917 0.95543 0.0
C154 C 0.64569 0.82632 0.8017 0.0
C155 C 0.66233 0.85518 0.74312 0.0
C156 C 0.70972 0.84312 0.70466 0.0
C157 C 0.73824 0.80105 0.72455 0.0
C158 C 0.70654 0.76064 0.77104 0.0
C159 C 0.65805 0.77232 0.8082 0.0
P160 P 0.92496 0.30805 0.50848 0.0
H161 H 0.917 0.42699 0.51089 0.0
H162 H 0.82406 0.46091 0.51332 0.0
H163 H 0.71487 0.29345 0.5857 0.0
H164 H 0.80698 0.25906 0.58009 0.0
H165 H 0.87678 0.18879 0.4564 0.0
H166 H 0.87328 0.09381 0.49971 0.0
H167 H 0.93455 0.17473 0.68112 0.0
H168 H 0.9414 0.27041 0.63641 0.0
H169 H 0.99388 0.27506 0.39875 0.0
H170 H 0.82363 0.32461 0.43115 0.0
O171 O 0.99721 0.34916 0.52139 0.0
H172 H 0.96245 0.24527 0.28907 0.0
H173 H 0.79343 0.29645 0.32449 0.0
C174 C 0.86899 0.34055 0.54477 0.0
C175 C 0.87368 0.3986 0.53026 0.0
C176 C 0.82019 0.41771 0.53113 0.0
C177 C 0.76172 0.37902 0.54761 0.0
C178 C 0.75893 0.32347 0.57054 0.0
C179 C 0.81213 0.30417 0.56863 0.0
C180 C 0.91305 0.23698 0.54224 0.0
C181 C 0.88964 0.18644 0.50542 0.0
C182 C 0.88623 0.13189 0.53055 0.0
C183 C 0.90443 0.12723 0.59326 0.0
C184 C 0.92053 0.17719 0.63242 0.0
C185 C 0.92558 0.23191 0.60668 0.0
C186 C 0.91145 0.30212 0.42372 0.0
C187 C 0.95115 0.28159 0.38186 0.0
C188 C 0.93307 0.26449 0.31937 0.0
C189 C 0.87533 0.26839 0.29806 0.0
C190 C 0.83865 0.2937 0.33858 0.0
C191 C 0.85612 0.30974 0.40071 0.0
P192 P 0.39516 0.73709 0.27054 0.0
H193 H 0.33074 0.76924 0.1627 0.0
H194 H 0.23076 0.72303 0.11396 0.0
H195 H 0.18641 0.59432 0.26359 0.0
H196 H 0.2846 0.64202 0.31378 0.0
H197 H 0.52436 0.80614 0.26114 0.0
H198 H 0.57558 0.90474 0.22454 0.0
H199 H 0.39804 0.94247 0.22323 0.0
H200 H 0.34606 0.84197 0.25936 0.0
H201 H 0.38996 0.61838 0.3039 0.0
H202 H 0.43096 0.78341 0.40312 0.0
O203 O 0.43506 0.70867 0.21623 0.0
H204 H 0.41589 0.57233 0.39748 0.0
H205 H 0.45817 0.73708 0.49861 0.0
C206 C 0.31532 0.71058 0.24332 0.0
C207 C 0.29872 0.7323 0.18645 0.0
C208 C 0.24174 0.7052 0.1579 0.0
C209 C 0.20077 0.65426 0.18416 0.0
C210 C 0.2172 0.63276 0.24128 0.0
C211 C 0.27347 0.66069 0.27059 0.0
C212 C 0.4311 0.81573 0.26245 0.0
C213 C 0.49617 0.83568 0.2546 0.0
C214 C 0.52554 0.89236 0.2333 0.0
C215 C 0.49103 0.93168 0.22041 0.0
C216 C 0.42611 0.91348 0.23297 0.0
C217 C 0.39634 0.85584 0.25356 0.0
C218 C 0.40807 0.70452 0.34586 0.0
C219 C 0.40382 0.64479 0.34633 0.0
C220 C 0.419 0.61835 0.40036 0.0
C221 C 0.4396 0.65069 0.45628 0.0
C222 C 0.44226 0.71051 0.45678 0.0
C223 C 0.42674 0.73717 0.40204 0.0
P224 P 0.18999 0.38476 0.82629 0.0
H225 H 0.09561 0.356 0.72363 0.0
H226 H 0.05307 0.26731 0.66006 0.0
H227 H 0.14457 0.17267 0.77859 0.0
H228 H 0.18948 0.26158 0.83948 0.0
H229 H 0.31711 0.45881 0.84661 0.0
H230 H 0.40332 0.50971 0.77439 0.0
H231 H 0.28535 0.45562 0.61296 0.0
H232 H 0.19931 0.40555 0.68511 0.0
H233 H 0.0772 0.3611 0.91322 0.0
H234 H 0.21511 0.51267 0.83988 0.0
O235 O 0.22766 0.36369 0.8847 0.0
H236 H 0.03624 0.42381 0.98744 0.0
H237 H 0.17567 0.57461 0.91417 0.0
C238 C 0.14618 0.31657 0.78696 0.0
C239 C 0.10623 0.31622 0.73645 0.0
C240 C 0.0818 0.26508 0.69995 0.0
C241 C 0.09505 0.21214 0.71392 0.0
C242 C 0.13286 0.21206 0.76621 0.0
C243 C 0.15849 0.26345 0.80153 0.0
C244 C 0.25151 0.42685 0.77172 0.0
C245 C 0.30948 0.45805 0.79571 0.0
C246 C 0.35887 0.4875 0.75432 0.0
C247 C 0.35157 0.48647 0.68772 0.0
C248 C 0.29279 0.45715 0.66396 0.0
C249 C 0.24331 0.42804 0.70546 0.0
C250 C 0.14842 0.4316 0.86878 0.0
C251 C 0.09778 0.40784 0.91164 0.0
C252 C 0.07492 0.44383 0.95499 0.0
C253 C 0.1029 0.50461 0.9577 0.0
C254 C 0.15282 0.52821 0.91405 0.0
C255 C 0.17515 0.49244 0.87059 0.0
Ho256 Ho 0.03938 0.10161 0.52874 0.0
Ho257 Ho 1.01298 1.02625 0.64183 0.0
C258 C 0.07157 0.15848 0.67266 0.0
C259 C 0.0653 0.19092 0.45469 0.0
C260 C 0.12147 0.24045 0.45987 0.0
C261 C 0.15847 0.24396 0.51352 0.0
C262 C 0.21707 0.28394 0.51581 0.0
C263 C 0.24065 0.32051 0.4637 0.0
C264 C 0.20202 0.3198 0.41154 0.0
C265 C 0.14268 0.27986 0.40965 0.0
C266 C 0.13455 1.0575 0.55693 0.0
C267 C 0.97956 0.96905 0.50042 0.0
C268 C 0.98731 0.93646 0.71507 0.0
C269 C 0.93146 0.88589 0.71344 0.0
C270 C 0.90377 0.8608 0.77095 0.0
C271 C 0.84241 0.82502 0.77271 0.0
C272 C 0.80712 0.81519 0.71698 0.0
C273 C 0.83714 0.83535 0.65823 0.0
C274 C 0.89882 0.87039 0.65652 0.0
C275 C 0.92051 1.07443 0.61177 0.0
O276 O 0.05152 0.16425 0.61487 0.0
O277 O 0.07198 0.10607 0.69223 0.0
O278 O 0.07625 0.14174 0.4379 0.0
O279 O 0.02592 0.18459 0.50346 0.0
O280 O 0.11697 1.06319 0.49995 0.0
O281 O 0.10166 1.07708 0.59667 0.0
O282 O 1.00307 0.96433 0.55648 0.0
O283 O 0.97812 1.02116 0.48083 0.0
O284 O 0.97603 0.98545 0.73209 0.0
O285 O 0.02622 0.94269 0.66576 0.0
O286 O 0.93549 1.06677 0.66942 0.0
O287 O 0.95244 1.05201 0.57442 0.0
H288 H 0.1441 0.2132 0.55209 0.0
H289 H 0.2457 0.28338 0.55639 0.0
H290 H 0.21944 0.34683 0.37002 0.0
H291 H 0.11514 0.27752 0.3676 0.0
H292 H 0.92774 0.87335 0.81517 0.0
H293 H 0.82054 0.81077 0.81895 0.0
H294 H 0.81122 0.82864 0.61462 0.0
H295 H 0.91871 0.88921 0.61137 0.0
Ho296 Ho 0.59091 0.08684 0.1261 0.0
Ho297 Ho 0.45885 1.07203 0.1231 0.0
C298 C 0.52655 0.15535 0.22704 0.0
C299 C 0.7119 0.12037 0.12525 0.0
C300 C 0.76225 0.16265 0.15826 0.0
C301 C 0.76447 0.22182 0.16345 0.0
C302 C 0.80687 0.25865 0.20378 0.0
C303 C 0.84673 0.23658 0.24035 0.0
C304 C 0.84819 0.17871 0.23027 0.0
C305 C 0.80638 0.14215 0.1894 0.0
C306 C 0.52348 0.98737 0.1866 0.0
C307 C 0.51929 0.99736 1.02585 0.0
C308 C 0.3402 1.04759 0.11029 0.0
C309 C 0.3105 1.0667 1.05621 0.0
C310 C 0.27784 1.02456 1.01312 0.0
C311 C 0.27462 1.03922 0.94924 0.0
C312 C 0.30391 0.09623 0.92803 0.0
C313 C 0.32781 0.14002 0.97319 0.0
C314 C 0.33072 0.12544 1.03706 0.0
C315 C 0.52811 0.16662 1.05387 0.0
O316 O 0.57624 0.15965 0.18942 0.0
O317 O 0.47726 0.11046 0.22047 0.0
O318 O 0.67768 1.07831 0.16085 0.0
O319 O 0.67871 0.14063 1.08636 0.0
O320 O 0.57371 0.99288 0.15175 0.0
O321 O 0.5115 1.03628 0.19114 0.0
O322 O 0.46951 0.99617 1.06202 0.0
O323 O 0.5722 1.03749 1.03446 0.0
O324 O 0.37042 0.08851 0.14869 0.0
O325 O 0.37244 1.01136 1.09427 0.0
O326 O 0.47934 0.16549 1.08894 0.0
O327 O 0.5366 0.11666 1.05482 0.0
H328 H 0.73149 0.23898 0.13916 0.0
H329 H 0.80544 0.30337 0.2098 0.0
H330 H 0.87781 0.16011 0.25797 0.0
H331 H 0.80586 0.09675 0.18531 0.0
H332 H 0.26172 0.9791 1.0268 0.0
H333 H 0.25562 1.00454 0.9154 0.0
H334 H 0.34946 0.18449 0.95813 0.0
H335 H 0.35519 0.1593 1.06939 0.0
Ho336 Ho 0.50967 0.52054 0.56801 0.0
Ho337 Ho 0.52421 0.62028 0.65162 0.0
C338 C 0.57232 0.51865 0.70562 0.0
C339 C 0.5365 0.43944 0.50125 0.0
C340 C 0.59497 0.42422 0.50626 0.0
C341 C 0.64671 0.46627 0.53021 0.0
C342 C 0.70032 0.45137 0.54476 0.0
C343 C 0.7037 0.39427 0.53459 0.0
C344 C 0.65232 0.35245 0.50881 0.0
C345 C 0.59799 0.36728 0.49523 0.0
C346 C 0.40572 0.51169 0.64286 0.0
C347 C 0.46239 0.62178 0.51022 0.0
C348 C 0.50771 0.70477 0.72252 0.0
C349 C 0.5009 0.76305 0.71201 0.0
C350 C 0.47971 0.79207 0.76278 0.0
C351 C 0.46606 0.84457 0.75218 0.0
C352 C 0.47367 0.869 0.6906 0.0
C353 C 0.49778 0.84106 0.64033 0.0
C354 C 0.51108 0.78823 0.65094 0.0
C355 C 0.62781 0.62773 0.57485 0.0
O356 O 0.57381 0.50496 0.64411 0.0
O357 O 0.5466 0.55998 0.7238 0.0
O358 O 0.50027 0.42866 0.55265 0.0
O359 O 0.54265 0.49141 0.47857 0.0
O360 O 0.40556 0.49616 0.58307 0.0
O361 O 0.46154 0.53054 0.66028 0.0
O362 O 0.47655 0.64821 0.56646 0.0
O363 O 0.47212 0.57068 0.49849 0.0
O364 O 0.56245 0.69759 0.70836 0.0
O365 O 0.46206 0.66164 0.70236 0.0
O366 O 0.62908 0.64396 0.63441 0.0
O367 O 0.57162 0.60985 0.55916 0.0
H368 H 0.64515 0.51055 0.53944 0.0
H369 H 0.73868 0.48444 0.56486 0.0
H370 H 0.65414 0.30835 0.49881 0.0
H371 H 0.55828 0.33433 0.47715 0.0
H372 H 0.47207 0.77332 0.81029 0.0
H373 H 0.44848 0.86559 0.79201 0.0
H374 H 0.50381 0.85871 0.59236 0.0
H375 H 0.52752 0.76621 0.61121 0.0
Ho376 Ho 1.01753 0.51083 0.1407 0.0
Ho377 Ho 1.02435 0.61759 1.06843 0.0
C378 C 0.14078 0.62439 0.15315 0.0
C379 C 0.04736 0.42088 0.18132 0.0
C380 C 0.10814 0.41156 0.19552 0.0
C381 C 0.1246 0.36373 0.16814 0.0
C382 C 0.1842 0.35717 0.1757 0.0
C383 C 0.22873 0.3985 0.21068 0.0
C384 C 0.21185 0.4461 0.23861 0.0
C385 C 0.15224 0.45256 0.2311 0.0
C386 C 0.95787 0.58133 0.20355 0.0
C387 C 0.899 0.50802 1.05968 0.0
C388 C 1.00375 0.71024 1.02304 0.0
C389 C 0.94993 0.73189 1.0104 0.0
C390 C 0.89772 0.72202 1.05287 0.0
C391 C 0.849 0.74636 1.04084 0.0
C392 C 0.85195 0.7809 0.9863 0.0
C393 C 0.90364 0.78898 0.9435 0.0
C394 C 0.9521 0.76502 0.95548 0.0
C395 C 0.0809 0.54379 1.00492 0.0
O396 O 0.11507 0.56788 0.16232 0.0
O397 O 0.11323 0.65528 0.11919 0.0
O398 O 0.02662 0.45586 0.21929 0.0
O399 O 0.04017 0.42992 0.12105 0.0
O400 O 0.93894 0.5246 0.20416 0.0
O401 O 1.00921 0.59765 0.17168 0.0
O402 O 0.92394 0.56504 1.05438 0.0
O403 O 0.92856 0.47521 1.08851 0.0
O404 O 1.01124 0.66744 0.98689 0.0
O405 O 1.01469 0.70414 1.08307 0.0
O406 O 0.10191 0.60029 1.00493 0.0
O407 O 0.03007 0.52985 1.03738 0.0
H408 H 0.09163 0.33194 0.13986 0.0
H409 H 0.19569 0.32013 0.15338 0.0
H410 H 0.24444 0.47805 0.26707 0.0
H411 H 0.1409 0.48993 0.25265 0.0
H412 H 0.89494 0.69622 0.0956 0.0
H413 H 0.80977 0.73908 1.07468 0.0
H414 H 0.90661 0.81369 0.90028 0.0
H415 H 0.99166 0.77281 0.92194 0.0
loop_
_geom_bond_atom_site_label_1
_geom_bond_atom_site_label_2
_geom_bond_distance
_geom_bond_site_symmetry_2
_ccdc_geom_bond_type
P0 O11 1.490 . S
P0 C14 1.812 . S
P0 C20 1.803 . S
P0 C26 1.819 . S
H1 C15 0.941 . S
H2 C16 0.939 . S
H3 C18 0.940 . S
H4 C19 0.940 . S
H5 C21 0.939 . S
H6 C22 0.942 . S
H7 C24 0.940 . S
H8 C25 0.939 . S
H9 C27 0.941 . S
H10 C31 0.939 . S
O11 P0 1.490 . S
H12 C28 0.939 . S
H13 C30 0.940 . S
C14 P0 1.812 . S
C14 C15 1.389 . S
C14 C19 1.391 . S
C15 H1 0.941 . S
C15 C14 1.389 . S
C15 C16 1.397 . S
C16 H2 0.939 . S
C16 C15 1.397 . S
C16 C17 1.378 . S
C17 C16 1.378 . S
C17 C18 1.378 . S
C18 H3 0.940 . S
C18 C17 1.378 . S
C18 C19 1.396 . S
C19 H4 0.940 . S
C19 C14 1.391 . S
C19 C18 1.396 . S
C20 P0 1.803 . S
C20 C21 1.378 . S
C20 C25 1.400 . S
C21 H5 0.939 . S
C21 C20 1.378 . S
C21 C22 1.361 . S
C22 H6 0.942 . S
C22 C21 1.361 . S
C22 C23 1.369 . S
C23 C22 1.369 . S
C23 C24 1.404 . S
C24 H7 0.940 . S
C24 C23 1.404 . S
C24 C25 1.389 . S
C25 H8 0.939 . S
C25 C20 1.400 . S
C25 C24 1.389 . S
C26 P0 1.819 . S
C26 C27 1.391 . S
C26 C31 1.391 . S
C27 H9 0.941 . S
C27 C26 1.391 . S
C27 C28 1.396 . S
C28 H12 0.939 . S
C28 C27 1.396 . S
C28 C29 1.397 . S
C29 C28 1.397 . S
C29 C30 1.385 . S
C30 H13 0.940 . S
C30 C29 1.385 . S
C30 C31 1.388 . S
C31 H10 0.939 . S
C31 C26 1.391 . S
C31 C30 1.388 . S
P32 O43 1.490 . S
P32 C46 1.812 . S
P32 C52 1.803 . S
P32 C58 1.819 . S
H33 C47 0.941 . S
H34 C48 0.939 . S
H35 C50 0.940 . S
H36 C51 0.940 . S
H37 C53 0.939 . S
H38 C54 0.942 . S
H39 C56 0.940 . S
H40 C57 0.939 . S
H41 C59 0.941 . S
H42 C63 0.939 . S
O43 P32 1.490 . S
H44 C60 0.939 . S
H45 C62 0.940 . S
C46 P32 1.812 . S
C46 C47 1.389 . S
C46 C51 1.391 . S
C47 H33 0.941 . S
C47 C46 1.389 . S
C47 C48 1.397 . S
C48 H34 0.939 . S
C48 C47 1.397 . S
C48 C49 1.378 . S
C49 C48 1.378 . S
C49 C50 1.378 . S
C50 H35 0.940 . S
C50 C49 1.378 . S
C50 C51 1.396 . S
C51 H36 0.940 . S
C51 C46 1.391 . S
C51 C50 1.396 . S
C52 P32 1.803 . S
C52 C53 1.378 . S
C52 C57 1.400 . S
C53 H37 0.939 . S
C53 C52 1.378 . S
C53 C54 1.361 . S
C54 H38 0.942 . S
C54 C53 1.361 . S
C54 C55 1.369 . S
C55 C54 1.369 . S
C55 C56 1.404 . S
C56 H39 0.940 . S
C56 C55 1.404 . S
C56 C57 1.389 . S
C57 H40 0.939 . S
C57 C52 1.400 . S
C57 C56 1.389 . S
C58 P32 1.819 . S
C58 C59 1.391 . S
C58 C63 1.391 . S
C59 H41 0.941 . S
C59 C58 1.391 . S
C59 C60 1.396 . S
C60 H44 0.939 . S
C60 C59 1.396 . S
C60 C61 1.397 . S
C61 C60 1.397 . S
C61 C62 1.385 . S
C62 H45 0.940 . S
C62 C61 1.385 . S
C62 C63 1.388 . S
C63 H42 0.939 . S
C63 C58 1.391 . S
C63 C62 1.388 . S
P64 O75 1.490 . S
P64 C78 1.812 . S
P64 C84 1.803 . S
P64 C90 1.819 . S
H65 C79 0.941 . S
H66 C80 0.939 . S
H67 C82 0.940 . S
H68 C83 0.940 . S
H69 C85 0.939 . S
H70 C86 0.942 . S
H71 C88 0.940 . S
H72 C89 0.939 . S
H73 C91 0.941 . S
H74 C95 0.939 . S
O75 P64 1.490 . S
H76 C92 0.939 . S
H77 C94 0.940 . S
C78 P64 1.812 . S
C78 C79 1.389 . S
C78 C83 1.391 . S
C79 H65 0.941 . S
C79 C78 1.389 . S
C79 C80 1.397 . S
C80 H66 0.939 . S
C80 C79 1.397 . S
C80 C81 1.378 . S
C81 C80 1.378 . S
C81 C82 1.378 . S
C82 H67 0.940 . S
C82 C81 1.378 . S
C82 C83 1.396 . S
C83 H68 0.940 . S
C83 C78 1.391 . S
C83 C82 1.396 . S
C84 P64 1.803 . S
C84 C85 1.378 . S
C84 C89 1.400 . S
C85 H69 0.939 . S
C85 C84 1.378 . S
C85 C86 1.361 . S
C86 H70 0.942 . S
C86 C85 1.361 . S
C86 C87 1.369 . S
C87 C86 1.369 . S
C87 C88 1.404 . S
C88 H71 0.940 . S
C88 C87 1.404 . S
C88 C89 1.389 . S
C89 H72 0.939 . S
C89 C84 1.400 . S
C89 C88 1.389 . S
C90 P64 1.819 . S
C90 C91 1.391 . S
C90 C95 1.391 . S
C91 H73 0.941 . S
C91 C90 1.391 . S
C91 C92 1.396 . S
C92 H76 0.939 . S
C92 C91 1.396 . S
C92 C93 1.397 . S
C93 C92 1.397 . S
C93 C94 1.385 . S
C94 H77 0.940 . S
C94 C93 1.385 . S
C94 C95 1.388 . S
C95 H74 0.939 . S
C95 C90 1.391 . S
C95 C94 1.388 . S
P96 O107 1.490 . S
P96 C110 1.812 . S
P96 C116 1.803 . S
P96 C122 1.819 . S
H97 C111 0.941 . S
H98 C112 0.939 . S
H99 C114 0.940 . S
H100 C115 0.940 . S
H101 C117 0.939 . S
H102 C118 0.942 . S
H103 C120 0.940 . S
H104 C121 0.939 . S
H105 C123 0.941 . S
H106 C127 0.939 . S
O107 P96 1.490 . S
H108 C124 0.939 . S
H109 C126 0.940 . S
C110 P96 1.812 . S
C110 C111 1.389 . S
C110 C115 1.391 . S
C111 H97 0.941 . S
C111 C110 1.389 . S
C111 C112 1.397 . S
C112 H98 0.939 . S
C112 C111 1.397 . S
C112 C113 1.378 . S
C113 C112 1.378 . S
C113 C114 1.378 . S
C114 H99 0.940 . S
C114 C113 1.378 . S
C114 C115 1.396 . S
C115 H100 0.940 . S
C115 C110 1.391 . S
C115 C114 1.396 . S
C116 P96 1.803 . S
C116 C117 1.378 . S
C116 C121 1.400 . S
C117 H101 0.939 . S
C117 C116 1.378 . S
C117 C118 1.361 . S
C118 H102 0.942 . S
C118 C117 1.361 . S
C118 C119 1.369 . S
C119 C118 1.369 . S
C119 C120 1.404 . S
C120 H103 0.940 . S
C120 C119 1.404 . S
C120 C121 1.389 . S
C121 H104 0.939 . S
C121 C116 1.400 . S
C121 C120 1.389 . S
C122 P96 1.819 . S
C122 C123 1.391 . S
C122 C127 1.391 . S
C123 H105 0.941 . S
C123 C122 1.391 . S
C123 C124 1.396 . S
C124 H108 0.939 . S
C124 C123 1.396 . S
C124 C125 1.397 . S
C125 C124 1.397 . S
C125 C126 1.385 . S
C126 H109 0.940 . S
C126 C125 1.385 . S
C126 C127 1.388 . S
C127 H106 0.939 . S
C127 C122 1.391 . S
C127 C126 1.388 . S
P128 O139 1.490 . S
P128 C142 1.812 . S
P128 C148 1.803 . S
P128 C154 1.819 . S
H129 C143 0.941 . S
H130 C144 0.939 . S
H131 C146 0.940 . S
H132 C147 0.940 . S
H133 C149 0.939 . S
H134 C150 0.942 . S
H135 C152 0.940 . S
H136 C153 0.939 . S
H137 C155 0.941 . S
H138 C159 0.939 . S
O139 P128 1.490 . S
H140 C156 0.939 . S
H141 C158 0.940 . S
C142 P128 1.812 . S
C142 C143 1.389 . S
C142 C147 1.391 . S
C143 H129 0.941 . S
C143 C142 1.389 . S
C143 C144 1.397 . S
C144 H130 0.939 . S
C144 C143 1.397 . S
C144 C145 1.378 . S
C145 C144 1.378 . S
C145 C146 1.378 . S
C146 H131 0.940 . S
C146 C145 1.378 . S
C146 C147 1.396 . S
C147 H132 0.940 . S
C147 C142 1.391 . S
C147 C146 1.396 . S
C148 P128 1.803 . S
C148 C149 1.378 . S
C148 C153 1.400 . S
C149 H133 0.939 . S
C149 C148 1.378 . S
C149 C150 1.361 . S
C150 H134 0.942 . S
C150 C149 1.361 . S
C150 C151 1.369 . S
C151 C150 1.369 . S
C151 C152 1.404 . S
C152 H135 0.940 . S
C152 C151 1.404 . S
C152 C153 1.389 . S
C153 H136 0.939 . S
C153 C148 1.400 . S
C153 C152 1.389 . S
C154 P128 1.819 . S
C154 C155 1.391 . S
C154 C159 1.391 . S
C155 H137 0.941 . S
C155 C154 1.391 . S
C155 C156 1.396 . S
C156 H140 0.939 . S
C156 C155 1.396 . S
C156 C157 1.397 . S
C157 C156 1.397 . S
C157 C158 1.385 . S
C158 H141 0.940 . S
C158 C157 1.385 . S
C158 C159 1.388 . S
C159 H138 0.939 . S
C159 C154 1.391 . S
C159 C158 1.388 . S
P160 O171 1.490 . S
P160 C174 1.812 . S
P160 C180 1.803 . S
P160 C186 1.819 . S
H161 C175 0.941 . S
H162 C176 0.939 . S
H163 C178 0.940 . S
H164 C179 0.940 . S
H165 C181 0.939 1_455 S
H166 C182 0.942 . S
H167 C184 0.940 . S
H168 C185 0.939 . S
H169 C187 0.941 . S
H170 C191 0.939 . S
O171 P160 1.490 . S
H172 C188 0.939 . S
H173 C190 0.940 . S
C174 P160 1.812 . S
C174 C175 1.389 . S
C174 C179 1.391 . S
C175 H161 0.941 . S
C175 C174 1.389 . S
C175 C176 1.397 . S
C176 H162 0.939 . S
C176 C175 1.397 . S
C176 C177 1.378 . S
C177 C176 1.378 . S
C177 C178 1.378 . S
C178 H163 0.940 . S
C178 C177 1.378 . S
C178 C179 1.396 . S
C179 H164 0.940 . S
C179 C174 1.391 . S
C179 C178 1.396 . S
C180 P160 1.803 . S
C180 C181 1.378 . S
C180 C185 1.400 . S
C181 H165 0.939 1_655 S
C181 C180 1.378 . S
C181 C182 1.361 1_655 S
C182 H166 0.942 . S
C182 C181 1.361 1_455 S
C182 C183 1.369 1_455 S
C183 C182 1.369 1_655 S
C183 C184 1.404 . S
C184 H167 0.940 . S
C184 C183 1.404 . S
C184 C185 1.389 . S
C185 H168 0.939 . S
C185 C180 1.400 . S
C185 C184 1.389 . S
C186 P160 1.819 . S
C186 C187 1.391 . S
C186 C191 1.391 . S
C187 H169 0.941 . S
C187 C186 1.391 . S
C187 C188 1.396 . S
C188 H172 0.939 . S
C188 C187 1.396 . S
C188 C189 1.397 . S
C189 C188 1.397 . S
C189 C190 1.385 . S
C190 H173 0.940 . S
C190 C189 1.385 . S
C190 C191 1.388 . S
C191 H170 0.939 . S
C191 C186 1.391 . S
C191 C190 1.388 . S
P192 O203 1.490 . S
P192 C206 1.812 . S
P192 C212 1.803 . S
P192 C218 1.819 . S
H193 C207 0.941 . S
H194 C208 0.939 . S
H195 C210 0.940 . S
H196 C211 0.940 . S
H197 C213 0.939 . S
H198 C214 0.942 . S
H199 C216 0.940 . S
H200 C217 0.939 . S
H201 C219 0.941 . S
H202 C223 0.939 . S
O203 P192 1.490 . S
H204 C220 0.939 . S
H205 C222 0.940 . S
C206 P192 1.812 . S
C206 C207 1.389 . S
C206 C211 1.391 . S
C207 H193 0.941 . S
C207 C206 1.389 . S
C207 C208 1.397 . S
C208 H194 0.939 . S
C208 C207 1.397 . S
C208 C209 1.378 . S
C209 C208 1.378 . S
C209 C210 1.378 . S
C210 H195 0.940 . S
C210 C209 1.378 . S
C210 C211 1.396 . S
C211 H196 0.940 . S
C211 C206 1.391 . S
C211 C210 1.396 . S
C212 P192 1.803 . S
C212 C213 1.378 . S
C212 C217 1.400 . S
C213 H197 0.939 . S
C213 C212 1.378 . S
C213 C214 1.361 . S
C214 H198 0.942 . S
C214 C213 1.361 . S
C214 C215 1.369 . S
C215 C214 1.369 . S
C215 C216 1.404 . S
C216 H199 0.940 . S
C216 C215 1.404 . S
C216 C217 1.389 . S
C217 H200 0.939 . S
C217 C212 1.400 . S
C217 C216 1.389 . S
C218 P192 1.819 . S
C218 C219 1.391 . S
C218 C223 1.391 . S
C219 H201 0.941 . S
C219 C218 1.391 . S
C219 C220 1.396 . S
C220 H204 0.939 . S
C220 C219 1.396 . S
C220 C221 1.397 . S
C221 C220 1.397 . S
C221 C222 1.385 . S
C222 H205 0.940 . S
C222 C221 1.385 . S
C222 C223 1.388 . S
C223 H202 0.939 . S
C223 C218 1.391 . S
C223 C222 1.388 . S
P224 O235 1.490 . S
P224 C238 1.812 . S
P224 C244 1.803 . S
P224 C250 1.819 . S
H225 C239 0.941 . S
H226 C240 0.939 . S
H227 C242 0.940 . S
H228 C243 0.940 . S
H229 C245 0.939 . S
H230 C246 0.942 . S
H231 C248 0.940 . S
H232 C249 0.939 . S
H233 C251 0.941 . S
H234 C255 0.939 . S
O235 P224 1.490 . S
H236 C252 0.939 . S
H237 C254 0.940 . S
C238 P224 1.812 . S
C238 C239 1.389 . S
C238 C243 1.391 . S
C239 H225 0.941 . S
C239 C238 1.389 . S
C239 C240 1.397 . S
C240 H226 0.939 . S
C240 C239 1.397 . S
C240 C241 1.378 . S
C241 C240 1.378 . S
C241 C242 1.378 . S
C242 H227 0.940 . S
C242 C241 1.378 . S
C242 C243 1.396 . S
C243 H228 0.940 . S
C243 C238 1.391 . S
C243 C242 1.396 . S
C244 P224 1.803 . S
C244 C245 1.378 . S
C244 C249 1.400 . S
C245 H229 0.939 . S
C245 C244 1.378 . S
C245 C246 1.361 . S
C246 H230 0.942 . S
C246 C245 1.361 . S
C246 C247 1.369 . S
C247 C246 1.369 . S
C247 C248 1.404 . S
C248 H231 0.940 . S
C248 C247 1.404 . S
C248 C249 1.389 . S
C249 H232 0.939 . S
C249 C244 1.400 . S
C249 C248 1.389 . S
C250 P224 1.819 . S
C250 C251 1.391 . S
C250 C255 1.391 . S
C251 H233 0.941 . S
C251 C250 1.391 . S
C251 C252 1.396 . S
C252 H236 0.939 . S
C252 C251 1.396 . S
C252 C253 1.397 . S
C253 C252 1.397 . S
C253 C254 1.385 . S
C254 H237 0.940 . S
C254 C253 1.385 . S
C254 C255 1.388 . S
C255 H234 0.939 . S
C255 C250 1.391 . S
C255 C254 1.388 . S
Ho256 C259 2.811 . S
Ho256 O276 2.322 . S
Ho256 O278 2.378 . S
Ho256 O279 2.524 . S
Ho256 O280 2.381 1_545 S
Ho256 O281 2.669 1_545 S
Ho256 O283 2.346 1_445 S
Ho256 O287 2.305 1_455 S
Ho257 C268 2.821 . S
Ho257 O277 2.334 1_665 S
Ho257 O281 2.313 1_655 S
Ho257 O282 2.331 . S
Ho257 O284 2.382 . S
Ho257 O285 2.538 . S
Ho257 O286 2.371 1_565 S
Ho257 O287 2.663 1_565 S
C258 O276 1.259 . S
C258 O277 1.268 . S
C259 Ho256 2.811 . S
C259 C260 1.488 . S
C259 O278 1.215 . S
C259 O279 1.289 . S
C260 C259 1.488 . S
C260 C261 1.348 . S
C260 C265 1.413 . S
C261 C260 1.348 . S
C261 C262 1.442 . S
C261 H288 0.930 . S
C262 C261 1.442 . S
C262 C263 1.381 . S
C262 H289 0.931 . S
C263 C262 1.381 . S
C263 C264 1.321 . S
C264 C263 1.321 . S
C264 C265 1.403 . S
C264 H290 0.934 . S
C265 C260 1.413 . S
C265 C264 1.403 . S
C265 H291 0.930 . S
C266 O280 1.275 . S
C266 O281 1.256 . S
C267 O282 1.259 . S
C267 O283 1.268 . S
C268 Ho257 2.821 . S
C268 C269 1.488 . S
C268 O284 1.215 . S
C268 O285 1.289 . S
C269 C268 1.488 . S
C269 C270 1.348 . S
C269 C274 1.413 . S
C270 C269 1.348 . S
C270 C271 1.442 . S
C270 H292 0.930 . S
C271 C270 1.442 . S
C271 C272 1.381 . S
C271 H293 0.931 . S
C272 C271 1.381 . S
C272 C273 1.321 . S
C273 C272 1.321 . S
C273 C274 1.403 . S
C273 H294 0.934 . S
C274 C269 1.413 . S
C274 C273 1.403 . S
C274 H295 0.930 . S
C275 O286 1.275 . S
C275 O287 1.256 . S
O276 Ho256 2.322 . S
O276 C258 1.259 . S
O277 Ho257 2.334 1_445 S
O277 C258 1.268 . S
O278 Ho256 2.378 . S
O278 C259 1.215 . S
O279 Ho256 2.524 . S
O279 C259 1.289 . S
O280 Ho256 2.381 1_565 S
O280 C266 1.275 . S
O281 Ho256 2.669 1_565 S
O281 Ho257 2.313 1_455 S
O281 C266 1.256 . S
O282 Ho257 2.331 . S
O282 C267 1.259 . S
O283 Ho256 2.346 1_665 S
O283 C267 1.268 . S
O284 Ho257 2.382 . S
O284 C268 1.215 . S
O285 Ho257 2.538 . S
O285 C268 1.289 . S
O286 Ho257 2.371 1_545 S
O286 C275 1.275 . S
O287 Ho256 2.305 1_655 S
O287 Ho257 2.663 1_545 S
O287 C275 1.256 . S
H288 C261 0.930 . S
H289 C262 0.931 . S
H290 C264 0.934 . S
H291 C265 0.930 . S
H292 C270 0.930 . S
H293 C271 0.931 . S
H294 C273 0.934 . S
H295 C274 0.930 . S
Ho296 C299 2.811 . S
Ho296 O316 2.322 . S
Ho296 O318 2.378 . S
Ho296 O319 2.524 . S
Ho296 O320 2.381 1_545 S
Ho296 O321 2.669 1_545 S
Ho296 O323 2.346 1_544 S
Ho296 O327 2.305 1_554 S
Ho297 C308 2.811 1_545 S
Ho297 O317 2.346 1_556 S
Ho297 O321 2.305 1_546 S
Ho297 O322 2.322 1_545 S
Ho297 O324 2.378 . S
Ho297 O325 2.524 1_545 S
Ho297 O326 2.381 . S
Ho297 O327 2.669 . S
C298 O316 1.259 . S
C298 O317 1.268 . S
C299 Ho296 2.811 . S
C299 C300 1.488 . S
C299 O318 1.215 . S
C299 O319 1.289 . S
C300 C299 1.488 . S
C300 C301 1.348 . S
C300 C305 1.413 . S
C301 C300 1.348 . S
C301 C302 1.442 . S
C301 H328 0.930 . S
C302 C301 1.442 . S
C302 C303 1.381 . S
C302 H329 0.931 . S
C303 C302 1.381 . S
C303 C304 1.321 . S
C304 C303 1.321 . S
C304 C305 1.403 . S
C304 H330 0.934 . S
C305 C300 1.413 . S
C305 C304 1.403 . S
C305 H331 0.930 . S
C306 O320 1.275 . S
C306 O321 1.256 . S
C307 O322 1.259 . S
C307 O323 1.268 . S
C308 Ho297 2.811 1_565 S
C308 C309 1.488 . S
C308 O324 1.215 1_565 S
C308 O325 1.289 . S
C309 C308 1.488 . S
C309 C310 1.348 . S
C309 C314 1.413 . S
C310 C309 1.348 . S
C310 C311 1.442 . S
C310 H332 0.930 . S
C311 C310 1.442 . S
C311 C312 1.381 . S
C311 H333 0.931 . S
C312 C311 1.381 . S
C312 C313 1.321 . S
C313 C312 1.321 . S
C313 C314 1.403 . S
C313 H334 0.934 . S
C314 C309 1.413 . S
C314 C313 1.403 . S
C314 H335 0.930 . S
C315 O326 1.275 . S
C315 O327 1.256 . S
O316 Ho296 2.322 . S
O316 C298 1.259 . S
O317 Ho297 2.346 1_554 S
O317 C298 1.268 . S
O318 Ho296 2.378 . S
O318 C299 1.215 . S
O319 Ho296 2.524 . S
O319 C299 1.289 . S
O320 Ho296 2.381 1_565 S
O320 C306 1.275 . S
O321 Ho296 2.669 1_565 S
O321 Ho297 2.305 1_564 S
O321 C306 1.256 . S
O322 Ho297 2.322 1_565 S
O322 C307 1.259 . S
O323 Ho296 2.346 1_566 S
O323 C307 1.268 . S
O324 Ho297 2.378 . S
O324 C308 1.215 1_545 S
O325 Ho297 2.524 1_565 S
O325 C308 1.289 . S
O326 Ho297 2.381 . S
O326 C315 1.275 . S
O327 Ho296 2.305 1_556 S
O327 Ho297 2.669 . S
O327 C315 1.256 . S
H328 C301 0.930 . S
H329 C302 0.931 . S
H330 C304 0.934 . S
H331 C305 0.930 . S
H332 C310 0.930 . S
H333 C311 0.931 . S
H334 C313 0.934 . S
H335 C314 0.930 . S
Ho336 C339 2.811 . S
Ho336 O356 2.322 . S
Ho336 O358 2.378 . S
Ho336 O359 2.524 . S
Ho336 O360 2.381 . S
Ho336 O361 2.669 . S
Ho336 O363 2.346 . S
Ho336 O367 2.305 . S
Ho337 C348 2.811 . S
Ho337 O357 2.346 . S
Ho337 O361 2.305 . S
Ho337 O362 2.322 . S
Ho337 O364 2.378 . S
Ho337 O365 2.524 . S
Ho337 O366 2.381 . S
Ho337 O367 2.669 . S
C338 O356 1.259 . S
C338 O357 1.268 . S
C339 Ho336 2.811 . S
C339 C340 1.488 . S
C339 O358 1.215 . S
C339 O359 1.289 . S
C340 C339 1.488 . S
C340 C341 1.348 . S
C340 C345 1.413 . S
C341 C340 1.348 . S
C341 C342 1.442 . S
C341 H368 0.930 . S
C342 C341 1.442 . S
C342 C343 1.381 . S
C342 H369 0.931 . S
C343 C342 1.381 . S
C343 C344 1.321 . S
C344 C343 1.321 . S
C344 C345 1.403 . S
C344 H370 0.934 . S
C345 C340 1.413 . S
C345 C344 1.403 . S
C345 H371 0.930 . S
C346 O360 1.275 . S
C346 O361 1.256 . S
C347 O362 1.259 . S
C347 O363 1.268 . S
C348 Ho337 2.811 . S
C348 C349 1.488 . S
C348 O364 1.215 . S
C348 O365 1.289 . S
C349 C348 1.488 . S
C349 C350 1.348 . S
C349 C354 1.413 . S
C350 C349 1.348 . S
C350 C351 1.442 . S
C350 H372 0.930 . S
C351 C350 1.442 . S
C351 C352 1.381 . S
C351 H373 0.931 . S
C352 C351 1.381 . S
C352 C353 1.321 . S
C353 C352 1.321 . S
C353 C354 1.403 . S
C353 H374 0.934 . S
C354 C349 1.413 . S
C354 C353 1.403 . S
C354 H375 0.930 . S
C355 O366 1.275 . S
C355 O367 1.256 . S
O356 Ho336 2.322 . S
O356 C338 1.259 . S
O357 Ho337 2.346 . S
O357 C338 1.268 . S
O358 Ho336 2.378 . S
O358 C339 1.215 . S
O359 Ho336 2.524 . S
O359 C339 1.289 . S
O360 Ho336 2.381 . S
O360 C346 1.275 . S
O361 Ho336 2.669 . S
O361 Ho337 2.305 . S
O361 C346 1.256 . S
O362 Ho337 2.322 . S
O362 C347 1.259 . S
O363 Ho336 2.346 . S
O363 C347 1.268 . S
O364 Ho337 2.378 . S
O364 C348 1.215 . S
O365 Ho337 2.524 . S
O365 C348 1.289 . S
O366 Ho337 2.381 . S
O366 C355 1.275 . S
O367 Ho336 2.305 . S
O367 Ho337 2.669 . S
O367 C355 1.256 . S
H368 C341 0.930 . S
H369 C342 0.931 . S
H370 C344 0.934 . S
H371 C345 0.930 . S
H372 C350 0.930 . S
H373 C351 0.931 . S
H374 C353 0.934 . S
H375 C354 0.930 . S
Ho376 C379 2.811 . S
Ho376 O396 2.322 . S
Ho376 O398 2.378 . S
Ho376 O399 2.524 . S
Ho376 O400 2.381 1_455 S
Ho376 O401 2.669 1_455 S
Ho376 O403 2.346 1_454 S
Ho376 O407 2.305 1_554 S
Ho377 C388 2.811 . S
Ho377 O397 2.346 1_656 S
Ho377 O401 2.305 1_556 S
Ho377 O402 2.322 . S
Ho377 O404 2.378 . S
Ho377 O405 2.524 . S
Ho377 O406 2.381 1_655 S
Ho377 O407 2.669 1_655 S
C378 O396 1.259 . S
C378 O397 1.268 . S
C379 Ho376 2.811 . S
C379 C380 1.488 . S
C379 O398 1.215 . S
C379 O399 1.289 . S
C380 C379 1.488 . S
C380 C381 1.348 . S
C380 C385 1.413 . S
C381 C380 1.348 . S
C381 C382 1.442 . S
C381 H408 0.930 . S
C382 C381 1.442 . S
C382 C383 1.381 . S
C382 H409 0.931 . S
C383 C382 1.381 . S
C383 C384 1.321 . S
C384 C383 1.321 . S
C384 C385 1.403 . S
C384 H410 0.934 . S
C385 C380 1.413 . S
C385 C384 1.403 . S
C385 H411 0.930 . S
C386 O400 1.275 . S
C386 O401 1.256 . S
C387 O402 1.259 . S
C387 O403 1.267 . S
C388 Ho377 2.811 . S
C388 C389 1.488 . S
C388 O404 1.215 . S
C388 O405 1.289 . S
C389 C388 1.488 . S
C389 C390 1.348 . S
C389 C394 1.413 . S
C390 C389 1.348 . S
C390 C391 1.442 . S
C390 H412 0.930 . S
C391 C390 1.442 . S
C391 C392 1.381 . S
C391 H413 0.931 . S
C392 C391 1.381 . S
C392 C393 1.321 . S
C393 C392 1.321 . S
C393 C394 1.403 . S
C393 H414 0.934 . S
C394 C389 1.413 . S
C394 C393 1.403 . S
C394 H415 0.930 . S
C395 O406 1.275 . S
C395 O407 1.256 . S
O396 Ho376 2.322 . S
O396 C378 1.259 . S
O397 Ho377 2.346 1_454 S
O397 C378 1.268 . S
O398 Ho376 2.378 . S
O398 C379 1.215 . S
O399 Ho376 2.524 . S
O399 C379 1.289 . S
O400 Ho376 2.381 1_655 S
O400 C386 1.275 . S
O401 Ho376 2.669 1_655 S
O401 Ho377 2.305 1_554 S
O401 C386 1.256 . S
O402 Ho377 2.322 . S
O402 C387 1.259 . S
O403 Ho376 2.346 1_656 S
O403 C387 1.267 . S
O404 Ho377 2.378 . S
O404 C388 1.215 . S
O405 Ho377 2.524 . S
O405 C388 1.289 . S
O406 Ho377 2.381 1_455 S
O406 C395 1.275 . S
O407 Ho376 2.305 1_556 S
O407 Ho377 2.669 1_455 S
O407 C395 1.256 . S
H408 C381 0.930 . S
H409 C382 0.931 . S
H410 C384 0.934 . S
H411 C385 0.930 . S
H412 C390 0.930 . S
H413 C391 0.931 . S
H414 C393 0.934 . S
H415 C394 0.930 . S
C29 C263 1.743 . S
C49 C312 1.634 . S
C338 C93 3.675 . S
C119 C386 3.462 . S
C298 C17 4.181 . S
C266 C61 1.463 . S
C387 C81 2.523 . S
C355 C125 2.272 . S
C23 C383 2.700 . S
C315 C87 3.266 . S
C113 C267 3.282 . S
C55 C352 2.213 . S
C272 C157 1.547 . S
C189 C303 1.702 . S
C221 C347 3.633 . S
C253 C395 3.611 . S
C145 C307 3.764 . S
C275 C183 1.825 . S
C378 C209 2.486 . S
C346 C247 2.251 . S
C151 C392 2.444 . S
C306 C215 3.301 . S
C258 C241 3.274 . S
C177 C343 2.600 . S
