# Generated by pormake.
# Topology dag, (6,3)-cn, num edge types: 1
# Building blocks:
#     Node 0, Type 0, BuildingBlock: IZENUY_clean_sbu_0, # of connection points: 6
#     Node 1, Type 0, BuildingBlock: IZENUY_clean_sbu_0, # of connection points: 6
#     Node 2, Type 0, BuildingBlock: IZENUY_clean_sbu_0, # of connection points: 6
#     Node 3, Type 0, BuildingBlock: IZENUY_clean_sbu_0, # of connection points: 6
#     Node 4, Type 1, BuildingBlock: CUQRIR_clean_linker_1, # of connection points: 3
#     Node 5, Type 1, BuildingBlock: CUQRIR_clean_linker_1, # of connection points: 3
#     Node 6, Type 1, BuildingBlock: CUQRIR_clean_linker_1, # of connection points: 3
#     Node 7, Type 1, BuildingBlock: CUQRIR_clean_linker_1, # of connection points: 3
#     Node 8, Type 1, BuildingBlock: CUQRIR_clean_linker_1, # of connection points: 3
#     Node 9, Type 1, BuildingBlock: CUQRIR_clean_linker_1, # of connection points: 3
#     Node 10, Type 1, BuildingBlock: CUQRIR_clean_linker_1, # of connection points: 3
#     Node 11, Type 1, BuildingBlock: CUQRIR_clean_linker_1, # of connection points: 3
#     Edge 12, Type (0, 1), BuildingBlock: CIFDUS_clean_linker_0, # of connection points: 2
#     Edge 13, Type (0, 1), BuildingBlock: CIFDUS_clean_linker_0, # of connection points: 2
#     Edge 14, Type (0, 1), BuildingBlock: CIFDUS_clean_linker_0, # of connection points: 2
#     Edge 15, Type (0, 1), BuildingBlock: CIFDUS_clean_linker_0, # of connection points: 2
#     Edge 16, Type (0, 1), BuildingBlock: CIFDUS_clean_linker_0, # of connection points: 2
#     Edge 17, Type (0, 1), BuildingBlock: CIFDUS_clean_linker_0, # of connection points: 2
#     Edge 18, Type (0, 1), BuildingBlock: CIFDUS_clean_linker_0, # of connection points: 2
#     Edge 19, Type (0, 1), BuildingBlock: CIFDUS_clean_linker_0, # of connection points: 2
#     Edge 20, Type (0, 1), BuildingBlock: CIFDUS_clean_linker_0, # of connection points: 2
#     Edge 21, Type (0, 1), BuildingBlock: CIFDUS_clean_linker_0, # of connection points: 2
#     Edge 22, Type (0, 1), BuildingBlock: CIFDUS_clean_linker_0, # of connection points: 2
#     Edge 23, Type (0, 1), BuildingBlock: CIFDUS_clean_linker_0, # of connection points: 2
#     Edge 24, Type (0, 1), BuildingBlock: CIFDUS_clean_linker_0, # of connection points: 2
#     Edge 25, Type (0, 1), BuildingBlock: CIFDUS_clean_linker_0, # of connection points: 2
#     Edge 26, Type (0, 1), BuildingBlock: CIFDUS_clean_linker_0, # of connection points: 2
#     Edge 27, Type (0, 1), BuildingBlock: CIFDUS_clean_linker_0, # of connection points: 2
#     Edge 28, Type (0, 1), BuildingBlock: CIFDUS_clean_linker_0, # of connection points: 2
#     Edge 29, Type (0, 1), BuildingBlock: CIFDUS_clean_linker_0, # of connection points: 2
#     Edge 30, Type (0, 1), BuildingBlock: CIFDUS_clean_linker_0, # of connection points: 2
#     Edge 31, Type (0, 1), BuildingBlock: CIFDUS_clean_linker_0, # of connection points: 2
#     Edge 32, Type (0, 1), BuildingBlock: CIFDUS_clean_linker_0, # of connection points: 2
#     Edge 33, Type (0, 1), BuildingBlock: CIFDUS_clean_linker_0, # of connection points: 2
#     Edge 34, Type (0, 1), BuildingBlock: CIFDUS_clean_linker_0, # of connection points: 2
#     Edge 35, Type (0, 1), BuildingBlock: CIFDUS_clean_linker_0, # of connection points: 2
# Relax obj value: 0.080
# Max RMSD: 0.080
# Mean RMSD: 0.072
data_MOF--net-dag--node1-IZENUY_clean_sbu_0--node2-CUQRIR_clean_linker_1--edge1-CIFDUS_clean_linker_0
_symmetry_space_group_name_H-M    P1
_symmetry_Int_Tables_number       1
_symmetry_cell_setting            triclinic
loop_
_symmetry_equiv_pos_as_xyz
'x, y, z'
_cell_length_a     32.038558
_cell_length_b     32.398563
_cell_length_c     29.137922
_cell_angle_alpha  91.77828
_cell_angle_beta   89.926064
_cell_angle_gamma 90.092238
loop_
_atom_site_label
_atom_site_type_symbol
_atom_site_fract_x
_atom_site_fract_y
_atom_site_fract_z
_atom_type_partial_charge
Fe0 Fe 0.18969 0.88639 0.02255 0.0
Fe1 Fe 0.09692 0.90725 0.01892 0.0
O2 O 0.13703 0.87034 0.0227 0.0
Fe3 Fe 0.12432 0.81746 0.02663 0.0
O4 O 0.15 0.81479 0.08183 0.0
O5 O 0.20763 0.84559 0.06003 0.0
O6 O 0.18213 0.91831 0.0741 0.0
C7 C 0.15596 0.94723 0.07693 0.0
C8 C 0.19578 0.81673 0.96865 0.0
O9 O 0.12579 0.94881 0.04909 0.0
C10 C 0.06789 0.8407 0.96299 0.0
O11 O 0.1809 0.93025 0.98514 0.0
O12 O 0.11554 0.92314 0.96353 0.0
O13 O 0.17138 0.7988 0.99603 0.0
O14 O 0.20056 0.85536 0.97113 0.0
C15 C 0.06289 0.85779 0.08235 0.0
O16 O 0.06073 0.87253 0.98799 0.0
O17 O 0.09809 0.81721 0.9714 0.0
C18 C 0.15163 0.93744 0.95729 0.0
O19 O 0.0761 0.89344 0.07409 0.0
O20 O 0.07488 0.82671 0.0582 0.0
C21 C 0.18789 0.82394 0.08835 0.0
Fe22 Fe 0.67804 0.62759 0.50645 0.0
Fe23 Fe 0.61005 0.69297 0.523 0.0
O24 O 0.62513 0.64063 0.5166 0.0
Fe25 Fe 0.58692 0.60148 0.52052 0.0
O26 O 0.62216 0.56301 0.54477 0.0
O27 O 0.68034 0.59728 0.5581 0.0
O28 O 0.69896 0.67134 0.5414 0.0
C29 C 0.68208 0.69427 0.5723 0.0
C30 C 0.63288 0.57049 0.44887 0.0
O31 O 0.64321 0.70036 0.5726 0.0
C32 C 0.54588 0.66343 0.47108 0.0
O33 O 0.67978 0.65716 0.45409 0.0
O34 O 0.65047 0.71271 0.48467 0.0
O35 O 0.5976 0.58294 0.46253 0.0
O36 O 0.66596 0.58145 0.46999 0.0
C37 C 0.56051 0.65352 0.58945 0.0
O38 O 0.57599 0.68847 0.47347 0.0
O39 O 0.54455 0.63248 0.4966 0.0
C40 C 0.67187 0.69532 0.45307 0.0
O41 O 0.56682 0.68321 0.56299 0.0
O42 O 0.5739 0.61784 0.57899 0.0
C43 C 0.6566 0.56711 0.56568 0.0
Fe44 Fe 0.87915 0.18395 0.01782 0.0
Fe45 Fe 0.90429 0.09255 0.01209 0.0
O46 O 0.86547 0.13125 0.0082 0.0
Fe47 Fe 0.81313 0.11706 0.99464 0.0
O48 O 0.80167 0.16406 0.96265 0.0
O49 O 0.86136 0.1977 0.9614 0.0
O50 O 0.93187 0.17877 0.99326 0.0
C51 C 0.94798 0.15126 0.96699 0.0
C52 C 0.80037 0.17695 0.06148 0.0
O53 O 0.93454 0.11465 0.96629 0.0
C54 C 0.83972 0.05407 0.05457 0.0
O55 O 0.89802 0.17483 0.07507 0.0
O56 O 0.93534 0.12011 0.05655 0.0
O57 O 0.79357 0.14026 0.04778 0.0
O58 O 0.8292 0.19838 0.04437 0.0
C59 C 0.85514 0.06436 0.9363 0.0
O60 O 0.87646 0.06787 0.05813 0.0
O61 O 0.81519 0.06729 0.02412 0.0
C62 C 0.92688 0.15005 0.08395 0.0
O63 O 0.881 0.05778 0.96808 0.0
O64 O 0.82855 0.09285 0.94042 0.0
C65 C 0.82516 0.19134 0.94584 0.0
Fe66 Fe 0.4041 0.41521 0.52372 0.0
Fe67 Fe 0.31266 0.38985 0.53517 0.0
O68 O 0.36576 0.37626 0.52676 0.0
Fe69 Fe 0.38025 0.32359 0.52149 0.0
O70 O 0.41351 0.32794 0.57169 0.0
O71 O 0.44484 0.38529 0.55182 0.0
O72 O 0.39095 0.43546 0.58042 0.0
C73 C 0.35528 0.44797 0.5922 0.0
C74 C 0.43335 0.36185 0.45734 0.0
O75 O 0.32333 0.43744 0.56922 0.0
C76 C 0.30883 0.32271 0.47102 0.0
O77 O 0.3699 0.45185 0.49516 0.0
O78 O 0.31136 0.41765 0.48241 0.0
O79 O 0.42489 0.33205 0.48289 0.0
O80 O 0.42003 0.3976 0.46686 0.0
C81 C 0.3184 0.32485 0.59113 0.0
O82 O 0.29209 0.3449 0.50247 0.0
O83 O 0.34767 0.31617 0.47074 0.0
C84 C 0.33626 0.44629 0.47291 0.0
O85 O 0.31072 0.3628 0.5885 0.0
O86 O 0.33851 0.30567 0.55964 0.0
C87 C 0.44235 0.35422 0.57707 0.0
C88 C 0.13865 0.20493 0.2693 0.0
N89 N 0.12704 0.17458 0.23885 0.0
N90 N 0.18072 0.2049 0.27495 0.0
C91 C 0.1092 0.23545 0.29189 0.0
C92 C 0.19419 0.17339 0.2472 0.0
N93 N 0.16163 0.15509 0.22528 0.0
C94 C 0.23933 0.16181 0.24041 0.0
H95 H 0.10568 0.26222 0.2694 0.0
H96 H 0.12113 0.24721 0.32544 0.0
H97 H 0.07799 0.22132 0.29676 0.0
H98 H 0.25655 0.16518 0.27334 0.0
H99 H 0.25363 0.18308 0.21574 0.0
H100 H 0.24308 0.12989 0.22643 0.0
C101 C 0.34572 0.62117 0.82879 0.0
N102 N 0.37703 0.60892 0.80035 0.0
N103 N 0.35336 0.65952 0.84672 0.0
C104 C 0.30627 0.59706 0.83669 0.0
C105 C 0.39027 0.67031 0.82763 0.0
N106 N 0.40476 0.63943 0.79966 0.0
C107 C 0.41207 0.71091 0.83603 0.0
H108 H 0.27875 0.61766 0.83449 0.0
H109 H 0.30697 0.58472 0.87175 0.0
H110 H 0.30269 0.57065 0.81193 0.0
H111 H 0.44639 0.70704 0.83313 0.0
H112 H 0.40406 0.72425 0.87046 0.0
H113 H 0.40196 0.73277 0.80969 0.0
C114 C 0.78715 0.84636 0.23927 0.0
N115 N 0.81915 0.8594 0.21287 0.0
N116 N 0.79409 0.80726 0.25319 0.0
C117 C 0.74896 0.8715 0.25062 0.0
C118 C 0.8315 0.79721 0.23407 0.0
N119 N 0.84659 0.82876 0.20965 0.0
C120 C 0.8548 0.75773 0.24175 0.0
H121 H 0.75506 0.89062 0.28215 0.0
H122 H 0.72173 0.85122 0.25691 0.0
H123 H 0.74153 0.89258 0.2225 0.0
H124 H 0.8451 0.73424 0.21535 0.0
H125 H 0.84774 0.74573 0.27617 0.0
H126 H 0.88898 0.76246 0.23861 0.0
C127 C 0.71271 0.351 0.73764 0.0
N128 N 0.68093 0.36941 0.7154 0.0
N129 N 0.69778 0.32228 0.76659 0.0
C130 C 0.75815 0.35851 0.72821 0.0
C131 C 0.65577 0.32439 0.76125 0.0
N132 N 0.6456 0.35262 0.72997 0.0
C133 C 0.62443 0.30095 0.78886 0.0
H134 H 0.76284 0.3705 0.69331 0.0
H135 H 0.77642 0.32971 0.73172 0.0
H136 H 0.77009 0.38186 0.75359 0.0
H137 H 0.63706 0.29429 0.82329 0.0
H138 H 0.61705 0.27123 0.77074 0.0
H139 H 0.59503 0.31877 0.79293 0.0
C140 C 0.6487 0.30195 0.27435 0.0
N141 N 0.63437 0.33341 0.30165 0.0
N142 N 0.68318 0.31383 0.25103 0.0
C143 C 0.63014 0.25923 0.27183 0.0
C144 C 0.68916 0.35362 0.26549 0.0
N145 N 0.6596 0.36545 0.29623 0.0
C146 C 0.72303 0.38162 0.24873 0.0
H147 H 0.65501 0.23564 0.26741 0.0
H148 H 0.60903 0.25673 0.24173 0.0
H149 H 0.61159 0.25255 0.30284 0.0
H150 H 0.73269 0.37258 0.21325 0.0
H151 H 0.75048 0.37964 0.27173 0.0
H152 H 0.71224 0.41418 0.24958 0.0
C153 C 0.16524 0.1981 0.79064 0.0
N154 N 0.15255 0.16577 0.81533 0.0
N155 N 0.20636 0.19456 0.78018 0.0
C156 C 0.13781 0.23354 0.77782 0.0
C157 C 0.21816 0.15904 0.79968 0.0
N158 N 0.18546 0.14165 0.82112 0.0
C159 C 0.26089 0.14011 0.79557 0.0
H160 H 0.12179 0.22542 0.74503 0.0
H161 H 0.15652 0.26196 0.77316 0.0
H162 H 0.11354 0.23965 0.80434 0.0
H163 H 0.28086 0.15291 0.82367 0.0
H164 H 0.27556 0.14753 0.7623 0.0
H165 H 0.25935 0.10609 0.7986 0.0
C166 C 0.283 0.65355 0.2943 0.0
N167 N 0.31233 0.64269 0.32488 0.0
N168 N 0.28349 0.69495 0.28904 0.0
C169 C 0.25633 0.62353 0.26693 0.0
C170 C 0.31428 0.70879 0.31745 0.0
N171 N 0.33166 0.677 0.33936 0.0
C172 C 0.32584 0.7534 0.32559 0.0
H173 H 0.2713 0.5927 0.26402 0.0
H174 H 0.25045 0.63495 0.23202 0.0
H175 H 0.22586 0.62018 0.28457 0.0
H176 H 0.29892 0.77383 0.31883 0.0
H177 H 0.35167 0.76135 0.30204 0.0
H178 H 0.33678 0.75897 0.36137 0.0
C179 C 0.84753 0.86234 0.72732 0.0
N180 N 0.87209 0.87272 0.76366 0.0
N181 N 0.85068 0.82144 0.71682 0.0
C182 C 0.82139 0.89203 0.70116 0.0
C183 C 0.8777 0.80715 0.74819 0.0
N184 N 0.89074 0.83829 0.77657 0.0
C185 C 0.88806 0.76228 0.75379 0.0
H186 H 0.78974 0.8936 0.71661 0.0
H187 H 0.81818 0.88135 0.66477 0.0
H188 H 0.83529 0.92343 0.70273 0.0
H189 H 0.91555 0.75435 0.73208 0.0
H190 H 0.86169 0.74218 0.74257 0.0
H191 H 0.89582 0.75588 0.78997 0.0
H192 H 0.13776 0.02701 0.06321 0.0
H193 H 0.19091 0.94592 0.1621 0.0
H194 H 0.19928 0.00429 0.21693 0.0
H195 H 0.18745 0.0779 0.23786 0.0
H196 H 0.138 0.15901 0.13735 0.0
H197 H 0.13182 0.10108 0.08157 0.0
C198 C 0.15121 0.02219 0.09678 0.0
C199 C 0.16322 0.98236 0.10907 0.0
C200 C 0.15652 0.0558 0.12754 0.0
C201 C 0.18139 0.97645 0.15216 0.0
C202 C 0.18608 0.00971 0.18342 0.0
C203 C 0.17636 0.08272 0.2033 0.0
C204 C 0.1634 0.12222 0.19115 0.0
C205 C 0.17338 0.04942 0.1716 0.0
C206 C 0.14822 0.1286 0.14685 0.0
C207 C 0.14459 0.0956 0.11526 0.0
H208 H 0.55666 0.60964 0.66751 0.0
H209 H 0.49796 0.70994 0.59815 0.0
H210 H 0.44541 0.71602 0.65871 0.0
H211 H 0.41328 0.68971 0.72916 0.0
H212 H 0.47418 0.59303 0.80124 0.0
H213 H 0.52867 0.58831 0.74209 0.0
C214 C 0.5325 0.63296 0.66588 0.0
C215 C 0.53101 0.65905 0.62826 0.0
C216 C 0.50264 0.63669 0.70117 0.0
C217 C 0.49986 0.68952 0.62682 0.0
C218 C 0.46968 0.69295 0.66135 0.0
C219 C 0.43899 0.66823 0.73203 0.0
C220 C 0.4396 0.64107 0.76855 0.0
C221 C 0.47043 0.66637 0.69837 0.0
C222 C 0.47282 0.61331 0.77248 0.0
C223 C 0.50394 0.61082 0.73888 0.0
H224 H 0.86823 0.03265 0.13862 0.0
H225 H 0.78478 0.99285 0.0299 0.0
H226 H 0.77022 0.92904 0.06973 0.0
H227 H 0.78423 0.88246 0.13404 0.0
H228 H 0.86307 0.92457 0.24516 0.0
H229 H 0.87671 0.98933 0.20618 0.0
C230 C 0.84661 0.01013 0.12385 0.0
C231 C 0.82783 0.01744 0.0812 0.0
C232 C 0.83789 0.97372 0.1473 0.0
C233 C 0.79954 0.98814 0.06276 0.0
C234 C 0.79135 0.95149 0.08541 0.0
C235 C 0.80401 0.90618 0.1496 0.0
C236 C 0.82348 0.89881 0.1917 0.0
C237 C 0.81073 0.94368 0.12742 0.0
C238 C 0.84865 0.92959 0.21223 0.0
C239 C 0.85625 0.96653 0.19004 0.0
H240 H 0.48735 0.41139 0.62518 0.0
H241 H 0.47334 0.27995 0.60212 0.0
H242 H 0.53404 0.26764 0.65067 0.0
H243 H 0.59457 0.29478 0.69401 0.0
H244 H 0.60629 0.42559 0.72125 0.0
H245 H 0.54301 0.43797 0.67647 0.0
C246 C 0.49752 0.38007 0.63109 0.0
C247 C 0.4764 0.34662 0.60971 0.0
C248 C 0.532 0.37325 0.65952 0.0
C249 C 0.48923 0.30614 0.6182 0.0
C250 C 0.52396 0.29912 0.64581 0.0
C251 C 0.58244 0.3258 0.69123 0.0
C252 C 0.60491 0.3593 0.71049 0.0
C253 C 0.54595 0.33246 0.666 0.0
C254 C 0.58949 0.39951 0.70619 0.0
C255 C 0.55348 0.40651 0.68061 0.0
H256 H 0.69141 0.51048 0.43895 0.0
H257 H 0.57675 0.55435 0.38039 0.0
H258 H 0.5753 0.49486 0.3266 0.0
H259 H 0.60589 0.42907 0.29763 0.0
H260 H 0.71761 0.38325 0.35965 0.0
H261 H 0.72156 0.44497 0.4104 0.0
C262 C 0.66646 0.50734 0.41395 0.0
C263 C 0.63441 0.53689 0.4134 0.0
C264 C 0.66523 0.47254 0.38404 0.0
C265 C 0.60184 0.53201 0.38138 0.0
C266 C 0.60092 0.49797 0.35072 0.0
C267 C 0.63059 0.43255 0.32279 0.0
C268 C 0.6611 0.40181 0.32574 0.0
C269 C 0.63214 0.46776 0.35215 0.0
C270 C 0.69384 0.40681 0.35731 0.0
C271 C 0.69603 0.44196 0.38615 0.0
H272 H 0.97513 0.1168 0.88626 0.0
H273 H 0.00813 0.20648 0.99266 0.0
H274 H 0.07494 0.21892 0.95493 0.0
H275 H 0.12522 0.20251 0.89265 0.0
H276 H 0.09007 0.11788 0.78298 0.0
H277 H 0.02295 0.10477 0.82075 0.0
C278 C 0.99694 0.13917 0.90096 0.0
C279 C 0.9869 0.16055 0.94219 0.0
C280 C 0.03495 0.14675 0.87863 0.0
C281 C 0.01512 0.18982 0.96076 0.0
C282 C 0.05339 0.19681 0.93936 0.0
C283 C 0.10251 0.18145 0.87727 0.0
C284 C 0.11234 0.1603 0.83604 0.0
C285 C 0.06376 0.17525 0.89849 0.0
C286 C 0.08303 0.13353 0.81543 0.0
C287 C 0.04478 0.1263 0.83685 0.0
H288 H 0.38647 0.4886 0.41682 0.0
H289 H 0.25753 0.47314 0.45542 0.0
H290 H 0.23762 0.53093 0.40802 0.0
H291 H 0.25851 0.59077 0.36286 0.0
H292 H 0.38666 0.60424 0.32163 0.0
H293 H 0.4056 0.54206 0.36254 0.0
C294 C 0.35399 0.4977 0.41437 0.0
C295 C 0.32357 0.47732 0.43995 0.0
C296 C 0.3428 0.53057 0.38683 0.0
C297 C 0.28146 0.48863 0.43603 0.0
C298 C 0.2701 0.52169 0.40911 0.0
C299 C 0.29023 0.57918 0.36187 0.0
C300 C 0.32139 0.60195 0.34022 0.0
C301 C 0.30066 0.5435 0.38529 0.0
C302 C 0.36251 0.58716 0.33889 0.0
C303 C 0.37326 0.55183 0.36229 0.0
H304 H 0.98542 0.85552 0.96264 0.0
H305 H 0.08479 0.80252 0.88023 0.0
H306 H 0.0371 0.79424 0.81476 0.0
H307 H 0.96858 0.80873 0.77935 0.0
H308 H 0.86937 0.85932 0.86326 0.0
H309 H 0.91551 0.86219 0.9302 0.0
C310 C 0.99649 0.84179 0.93043 0.0
C311 C 0.03849 0.83012 0.92578 0.0
C312 C 0.96905 0.83713 0.89336 0.0
C313 C 0.05246 0.81169 0.88436 0.0
C314 C 0.02532 0.8072 0.84697 0.0
C315 C 0.95718 0.81958 0.81262 0.0
C316 C 0.91627 0.83461 0.8167 0.0
C317 C 0.98381 0.82072 0.85082 0.0
C318 C 0.90119 0.84845 0.85965 0.0
C319 C 0.92745 0.84999 0.89771 0.0
H320 H 0.91804 0.02434 0.89159 0.0
H321 H 0.78403 0.03599 0.89528 0.0
H322 H 0.77726 0.97897 0.83876 0.0
H323 H 0.80946 0.9212 0.79458 0.0
H324 H 0.94331 0.91277 0.78601 0.0
H325 H 0.95042 0.97307 0.83827 0.0
C326 C 0.88744 0.01464 0.87948 0.0
C327 C 0.85157 0.0339 0.8978 0.0
C328 C 0.88383 0.9823 0.84646 0.0
C329 C 0.81207 0.02159 0.88155 0.0
C330 C 0.80818 0.98889 0.84943 0.0
C331 C 0.84008 0.93347 0.80298 0.0
C332 C 0.87584 0.91251 0.78698 0.0
C333 C 0.8438 0.96847 0.83238 0.0
C334 C 0.91544 0.92827 0.79855 0.0
C335 C 0.91946 0.96262 0.8284 0.0
H336 H 0.50331 0.3153 0.45963 0.0
H337 H 0.4355 0.399 0.37508 0.0
H338 H 0.49142 0.39583 0.31768 0.0
H339 H 0.56084 0.37074 0.29282 0.0
H340 H 0.6317 0.29332 0.38088 0.0
H341 H 0.57337 0.2918 0.4357 0.0
C342 C 0.50059 0.33229 0.42827 0.0
C343 C 0.46524 0.35689 0.4211 0.0
C344 C 0.53351 0.33155 0.39639 0.0
C345 C 0.4624 0.37965 0.381 0.0
C346 C 0.49436 0.37794 0.34833 0.0
C347 C 0.56333 0.35399 0.32431 0.0
C348 C 0.60006 0.33231 0.33336 0.0
C349 C 0.53025 0.3544 0.35594 0.0
C350 C 0.60333 0.31004 0.37366 0.0
C351 C 0.57013 0.30926 0.40478 0.0
H352 H 0.20366 1.00293 0.96392 0.0
H353 H 0.11052 0.94536 0.87625 0.0
H354 H 0.11467 1.00318 0.82424 0.0
H355 H 0.14319 0.07135 0.80555 0.0
H356 H 0.23101 0.13146 0.89695 0.0
H357 H 0.2316 0.07091 0.94551 0.0
C358 C 0.18477 1.00274 0.93303 0.0
C359 C 0.15707 0.96992 0.92359 0.0
C360 C 0.18633 0.03656 0.90429 0.0
C361 C 0.13213 0.97036 0.88401 0.0
C362 C 0.13443 0.00337 0.85441 0.0
C363 C 0.16174 0.07124 0.83656 0.0
C364 C 0.18637 0.10565 0.84854 0.0
C365 C 0.16092 0.03691 0.86464 0.0
C366 C 0.21177 0.105 0.88761 0.0
C367 C 0.212 0.07058 0.91521 0.0
H368 H 0.46541 0.64518 0.48911 0.0
H369 H 0.54439 0.70392 0.39041 0.0
H370 H 0.48362 0.7167 0.34188 0.0
H371 H 0.40851 0.70646 0.32532 0.0
H372 H 0.32982 0.65031 0.42563 0.0
H373 H 0.3899 0.64132 0.47627 0.0
C374 C 0.46927 0.66082 0.45698 0.0
C375 C 0.50924 0.67306 0.44287 0.0
C376 C 0.43428 0.66858 0.42981 0.0
C377 C 0.51383 0.69408 0.40174 0.0
C378 C 0.47917 0.70136 0.37405 0.0
C379 C 0.40465 0.6933 0.35882 0.0
C380 C 0.36528 0.67877 0.37198 0.0
C381 C 0.43932 0.68829 0.3875 0.0
C382 C 0.36016 0.66138 0.4151 0.0
C383 C 0.39442 0.65611 0.44378 0.0
H384 H 0.40197 0.45424 0.66928 0.0
H385 H 0.30081 0.51221 0.59816 0.0
H386 H 0.29851 0.56765 0.65707 0.0
H387 H 0.32752 0.60112 0.72733 0.0
H388 H 0.42362 0.54 0.80224 0.0
H389 H 0.42629 0.48426 0.74327 0.0
C390 C 0.37933 0.47896 0.66693 0.0
C391 C 0.35182 0.47949 0.62946 0.0
C392 C 0.37763 0.51016 0.70133 0.0
C393 C 0.32219 0.51122 0.62688 0.0
C394 C 0.32099 0.54296 0.66038 0.0
C395 C 0.34863 0.57524 0.73059 0.0
C396 C 0.37601 0.57461 0.76801 0.0
C397 C 0.34881 0.54292 0.69748 0.0
C398 C 0.40315 0.54119 0.77281 0.0
C399 C 0.4044 0.50938 0.73938 0.0
H400 H 0.99722 0.80521 0.07384 0.0
H401 H 0.04759 0.90362 0.16021 0.0
H402 H 0.98502 0.90268 0.20844 0.0
H403 H 0.91516 0.87468 0.22494 0.0
H404 H 0.86248 0.78048 0.13541 0.0
H405 H 0.92693 0.77819 0.08966 0.0
C406 C 0.9947 0.82598 0.10365 0.0
C407 C 0.02705 0.85415 0.11384 0.0
C408 C 0.9581 0.82617 0.13027 0.0
C409 C 0.02309 0.88155 0.15192 0.0
C410 C 0.98732 0.88111 0.17936 0.0
C411 C 0.91765 0.85446 0.1948 0.0
C412 C 0.88417 0.82848 0.1826 0.0
C413 C 0.9544 0.85396 0.1685 0.0
C414 C 0.88805 0.80094 0.14478 0.0
C415 C 0.92477 0.79965 0.11884 0.0
H416 H 0.64439 0.48493 0.55313 0.0
H417 H 0.69994 0.57507 0.64629 0.0
H418 H 0.71664 0.52054 0.69995 0.0
H419 H 0.70937 0.44752 0.7232 0.0
H420 H 0.65683 0.35784 0.62779 0.0
H421 H 0.64552 0.41147 0.57174 0.0
C422 C 0.66042 0.49256 0.58507 0.0
C423 C 0.67036 0.53398 0.59616 0.0
C424 C 0.67051 0.46103 0.61521 0.0
C425 C 0.69186 0.54339 0.63716 0.0
C426 C 0.70132 0.51223 0.66784 0.0
C427 C 0.69658 0.43982 0.68959 0.0
C428 C 0.68352 0.39908 0.67952 0.0
C429 C 0.69014 0.47099 0.6576 0.0
C430 C 0.66683 0.38914 0.63605 0.0
C431 C 0.66013 0.41981 0.60426 0.0
H432 H 0.97122 0.09934 0.13837 0.0
H433 H 0.95156 0.22756 0.10935 0.0
H434 H 0.01043 0.24741 0.15837 0.0
H435 H 0.07277 0.22727 0.20172 0.0
H436 H 0.08906 0.10028 0.23688 0.0
H437 H 0.02645 0.08075 0.1932 0.0
C438 C 0.97942 0.13164 0.14358 0.0
C439 C 0.95736 0.16188 0.12005 0.0
C440 C 0.01298 0.14295 0.17243 0.0
C441 C 0.96797 0.2037 0.12728 0.0
C442 C 1.00182 0.21508 0.15507 0.0
C443 C 0.06171 0.19564 0.20116 0.0
C444 C 0.0857 0.16512 0.2218 0.0
C445 C 0.02522 0.18489 0.17685 0.0
C446 C 0.07135 0.12409 0.22042 0.0
C447 C 0.03562 0.11296 0.1955 0.0
H448 H 0.15679 0.77724 0.15675 0.0
H449 H 0.27165 0.82757 0.10408 0.0
H450 H 0.3112 0.79277 0.16266 0.0
H451 H 0.31373 0.7453 0.22648 0.0
H452 H 0.19981 0.6959 0.28066 0.0
H453 H 0.15912 0.73262 0.22348 0.0
C454 C 0.19044 0.78073 0.15819 0.0
C455 C 0.21118 0.80472 0.12581 0.0
C456 C 0.21314 0.76059 0.19199 0.0
C457 C 0.25481 0.80919 0.12844 0.0
C458 C 0.27755 0.78925 0.16188 0.0
C459 C 0.27996 0.74328 0.22605 0.0
C460 C 0.25954 0.71822 0.25733 0.0
C461 C 0.25709 0.76458 0.19348 0.0
C462 C 0.21589 0.71493 0.25637 0.0
C463 C 0.19278 0.73595 0.22389 0.0
H464 H 0.7669 0.70099 0.57228 0.0
H465 H 0.65643 0.74376 0.64434 0.0
H466 H 0.69908 0.78821 0.69437 0.0
H467 H 0.76782 0.81529 0.71772 0.0
H468 H 0.8782 0.77256 0.64709 0.0
H469 H 0.83567 0.72771 0.59609 0.0
C470 C 0.75214 0.71983 0.59908 0.0
C471 C 0.70849 0.71904 0.60441 0.0
C472 C 0.77682 0.74555 0.62767 0.0
C473 C 0.68994 0.74378 0.63932 0.0
C474 C 0.71427 0.76932 0.66794 0.0
C475 C 0.7822 0.79648 0.69066 0.0
C476 C 0.82564 0.79726 0.68532 0.0
C477 C 0.75764 0.77066 0.66221 0.0
C478 C 0.8446 0.77231 0.65114 0.0
C479 C 0.82036 0.74673 0.6223 0.0
H480 H 0.82273 0.22403 0.1349 0.0
H481 H 0.7154 0.17445 0.06323 0.0
H482 H 0.66887 0.21327 0.11571 0.0
H483 H 0.65941 0.26434 0.17971 0.0
H484 H 0.76676 0.30673 0.25664 0.0
H485 H 0.81292 0.26843 0.20395 0.0
C486 C 0.78911 0.2216 0.13112 0.0
C487 C 0.77229 0.1969 0.09533 0.0
C488 C 0.76278 0.24311 0.16194 0.0
C489 C 0.72882 0.19332 0.0908 0.0
C490 C 0.70233 0.21563 0.12059 0.0
C491 C 0.69282 0.26452 0.18532 0.0
C492 C 0.70978 0.28898 0.22137 0.0
C493 C 0.719 0.24098 0.156 0.0
C494 C 0.75317 0.28919 0.2282 0.0
C495 C 0.7795 0.26698 0.19839 0.0
H496 H 0.33655 0.30429 0.67831 0.0
H497 H 0.24273 0.29334 0.57302 0.0
H498 H 0.19897 0.25177 0.62262 0.0
H499 H 0.18829 0.2173 0.69543 0.0
H500 H 0.2801 0.22985 0.80252 0.0
H501 H 0.3242 0.27187 0.75314 0.0
C502 C 0.30649 0.2927 0.66661 0.0
C503 C 0.29275 0.30099 0.62222 0.0
C504 C 0.28139 0.26922 0.69559 0.0
C505 C 0.25382 0.28643 0.60697 0.0
C506 C 0.22883 0.26294 0.63533 0.0
C507 C 0.21769 0.22983 0.70794 0.0
C508 C 0.23118 0.22081 0.75218 0.0
C509 C 0.24238 0.25401 0.67959 0.0
C510 C 0.26954 0.2364 0.76823 0.0
C511 C 0.29456 0.2604 0.74013 0.0
H512 H 0.70017 0.67328 0.36678 0.0
H513 H 0.69016 0.777 0.46272 0.0
H514 H 0.72599 0.82108 0.40906 0.0
H515 H 0.76287 0.82997 0.3359 0.0
H516 H 0.76926 0.7284 0.23747 0.0
H517 H 0.73263 0.68377 0.29075 0.0
C518 C 0.7058 0.70553 0.37582 0.0
C519 C 0.69261 0.72163 0.41887 0.0
C520 C 0.72596 0.73116 0.34433 0.0
C521 C 0.69978 0.76369 0.42982 0.0
C522 C 0.72041 0.78902 0.39917 0.0
C523 C 0.75549 0.7983 0.32589 0.0
C524 C 0.76898 0.78239 0.28301 0.0
C525 C 0.73383 0.7731 0.35643 0.0
C526 C 0.75971 0.7411 0.27063 0.0
C527 C 0.73868 0.71565 0.30103 0.0
H528 H 0.76608 0.17538 0.88047 0.0
H529 H 0.84593 0.27211 0.93529 0.0
H530 H 0.81447 0.32138 0.8838 0.0
H531 H 0.76116 0.33801 0.82575 0.0
H532 H 0.68601 0.23993 0.76636 0.0
H533 H 0.71828 0.19039 0.8169 0.0
C534 C 0.7767 0.2072 0.88092 0.0
C535 C 0.80804 0.22008 0.91193 0.0
C536 C 0.75901 0.23528 0.85055 0.0
C537 C 0.8219 0.26132 0.91169 0.0
C538 C 0.80381 0.28961 0.88235 0.0
C539 C 0.75245 0.30568 0.82348 0.0
C540 C 0.72054 0.29281 0.79317 0.0
C541 C 0.772 0.27708 0.85194 0.0
C542 C 0.70957 0.25077 0.79045 0.0
C543 C 0.72821 0.22239 0.81912 0.0
H544 H 0.31429 0.31498 0.37817 0.0
H545 H 0.24197 0.27717 0.49434 0.0
H546 H 0.19517 0.23747 0.44376 0.0
H547 H 0.17556 0.21235 0.36626 0.0
H548 H 0.24336 0.25457 0.2492 0.0
H549 H 0.29142 0.29357 0.29979 0.0
C550 C 0.28831 0.29788 0.39214 0.0
C551 C 0.28158 0.29857 0.43974 0.0
C552 C 0.26075 0.27612 0.36263 0.0
C553 C 0.24758 0.27697 0.45774 0.0
C554 C 0.22086 0.2543 0.42886 0.0
C555 C 0.20032 0.23092 0.35206 0.0
C556 C 0.20598 0.23108 0.3044 0.0
C557 C 0.22708 0.25372 0.38127 0.0
C558 C 0.23871 0.25421 0.28599 0.0
C559 C 0.26608 0.27638 0.31484 0.0
H560 H 0.22536 0.74037 0.98486 0.0
H561 H 0.23157 0.83798 0.88772 0.0
H562 H 0.28179 0.79793 0.8412 0.0
H563 H 0.32376 0.73466 0.8282 0.0
H564 H 0.32086 0.63968 0.92817 0.0
H565 H 0.26935 0.67896 0.97369 0.0
C566 C 0.2374 0.75269 0.95326 0.0
C567 C 0.22447 0.79181 0.93938 0.0
C568 C 0.26698 0.73002 0.92745 0.0
C569 C 0.24099 0.80781 0.89893 0.0
C570 C 0.26973 0.78499 0.87242 0.0
C571 C 0.31221 0.72307 0.86032 0.0
C572 C 0.32574 0.68442 0.87496 0.0
C573 C 0.2831 0.74614 0.88647 0.0
C574 C 0.3103 0.66917 0.9162 0.0
C575 C 0.28102 0.69164 0.94215 0.0
loop_
_geom_bond_atom_site_label_1
_geom_bond_atom_site_label_2
_geom_bond_distance
_geom_bond_site_symmetry_2
_ccdc_geom_bond_type
Fe0 O2 1.918 . S
Fe0 O5 1.997 . S
Fe0 O6 2.002 . S
Fe0 O11 1.976 1_554 S
Fe0 O14 1.996 1_554 S
Fe1 O2 1.918 . S
Fe1 O9 1.997 . S
Fe1 O12 1.996 1_554 S
Fe1 O16 1.976 1_554 S
Fe1 O19 2.002 . S
O2 Fe0 1.918 . S
O2 Fe1 1.918 . S
O2 Fe3 1.918 . S
Fe3 O2 1.918 . S
Fe3 O4 2.002 . S
Fe3 O13 1.976 1_554 S
Fe3 O17 1.996 1_554 S
Fe3 O20 1.997 . S
O4 Fe3 2.002 . S
O4 C21 1.295 . S
O5 Fe0 1.997 . S
O5 C21 1.235 . S
O6 Fe0 2.002 . S
O6 C7 1.295 . S
C7 O6 1.295 . S
C7 O9 1.235 . S
C8 O13 1.287 . S
C8 O14 1.255 . S
O9 Fe1 1.997 . S
O9 C7 1.235 . S
C10 O16 1.287 . S
C10 O17 1.255 . S
O11 Fe0 1.976 1_556 S
O11 C18 1.287 . S
O12 Fe1 1.996 1_556 S
O12 C18 1.255 . S
O13 Fe3 1.976 1_556 S
O13 C8 1.287 . S
O14 Fe0 1.996 1_556 S
O14 C8 1.255 . S
C15 O19 1.295 . S
C15 O20 1.235 . S
O16 Fe1 1.976 1_556 S
O16 C10 1.287 . S
O17 Fe3 1.996 1_556 S
O17 C10 1.255 . S
C18 O11 1.287 . S
C18 O12 1.255 . S
O19 Fe1 2.002 . S
O19 C15 1.295 . S
O20 Fe3 1.997 . S
O20 C15 1.235 . S
C21 O4 1.295 . S
C21 O5 1.235 . S
Fe22 O24 1.918 . S
Fe22 O27 1.997 . S
Fe22 O28 2.002 . S
Fe22 O33 1.976 . S
Fe22 O36 1.996 . S
Fe23 O24 1.918 . S
Fe23 O31 1.997 . S
Fe23 O34 1.996 . S
Fe23 O38 1.976 . S
Fe23 O41 2.002 . S
O24 Fe22 1.918 . S
O24 Fe23 1.918 . S
O24 Fe25 1.918 . S
Fe25 O24 1.918 . S
Fe25 O26 2.002 . S
Fe25 O35 1.976 . S
Fe25 O39 1.996 . S
Fe25 O42 1.997 . S
O26 Fe25 2.002 . S
O26 C43 1.295 . S
O27 Fe22 1.997 . S
O27 C43 1.235 . S
O28 Fe22 2.002 . S
O28 C29 1.295 . S
C29 O28 1.295 . S
C29 O31 1.235 . S
C30 O35 1.287 . S
C30 O36 1.255 . S
O31 Fe23 1.997 . S
O31 C29 1.235 . S
C32 O38 1.287 . S
C32 O39 1.255 . S
O33 Fe22 1.976 . S
O33 C40 1.287 . S
O34 Fe23 1.996 . S
O34 C40 1.255 . S
O35 Fe25 1.976 . S
O35 C30 1.287 . S
O36 Fe22 1.996 . S
O36 C30 1.255 . S
C37 O41 1.295 . S
C37 O42 1.235 . S
O38 Fe23 1.976 . S
O38 C32 1.287 . S
O39 Fe25 1.996 . S
O39 C32 1.255 . S
C40 O33 1.287 . S
C40 O34 1.255 . S
O41 Fe23 2.002 . S
O41 C37 1.295 . S
O42 Fe25 1.997 . S
O42 C37 1.235 . S
C43 O26 1.295 . S
C43 O27 1.235 . S
Fe44 O46 1.918 . S
Fe44 O49 1.997 1_554 S
Fe44 O50 2.002 1_554 S
Fe44 O55 1.976 . S
Fe44 O58 1.996 . S
Fe45 O46 1.918 . S
Fe45 O53 1.997 1_554 S
Fe45 O56 1.996 . S
Fe45 O60 1.976 . S
Fe45 O63 2.002 1_554 S
O46 Fe44 1.918 . S
O46 Fe45 1.918 . S
O46 Fe47 1.918 1_554 S
Fe47 O46 1.918 1_556 S
Fe47 O48 2.002 . S
Fe47 O57 1.976 1_556 S
Fe47 O61 1.996 1_556 S
Fe47 O64 1.997 . S
O48 Fe47 2.002 . S
O48 C65 1.295 . S
O49 Fe44 1.997 1_556 S
O49 C65 1.235 . S
O50 Fe44 2.002 1_556 S
O50 C51 1.295 . S
C51 O50 1.295 . S
C51 O53 1.235 . S
C52 O57 1.287 . S
C52 O58 1.255 . S
O53 Fe45 1.997 1_556 S
O53 C51 1.235 . S
C54 O60 1.287 . S
C54 O61 1.255 . S
O55 Fe44 1.976 . S
O55 C62 1.287 . S
O56 Fe45 1.996 . S
O56 C62 1.255 . S
O57 Fe47 1.976 1_554 S
O57 C52 1.287 . S
O58 Fe44 1.996 . S
O58 C52 1.255 . S
C59 O63 1.295 . S
C59 O64 1.235 . S
O60 Fe45 1.976 . S
O60 C54 1.287 . S
O61 Fe47 1.996 1_554 S
O61 C54 1.255 . S
C62 O55 1.287 . S
C62 O56 1.255 . S
O63 Fe45 2.002 1_556 S
O63 C59 1.295 . S
O64 Fe47 1.997 . S
O64 C59 1.235 . S
C65 O48 1.295 . S
C65 O49 1.235 . S
Fe66 O68 1.918 . S
Fe66 O71 1.997 . S
Fe66 O72 2.002 . S
Fe66 O77 1.976 . S
Fe66 O80 1.996 . S
Fe67 O68 1.918 . S
Fe67 O75 1.997 . S
Fe67 O78 1.996 . S
Fe67 O82 1.976 . S
Fe67 O85 2.002 . S
O68 Fe66 1.918 . S
O68 Fe67 1.918 . S
O68 Fe69 1.918 . S
Fe69 O68 1.918 . S
Fe69 O70 2.002 . S
Fe69 O79 1.976 . S
Fe69 O83 1.996 . S
Fe69 O86 1.997 . S
O70 Fe69 2.002 . S
O70 C87 1.295 . S
O71 Fe66 1.997 . S
O71 C87 1.235 . S
O72 Fe66 2.002 . S
O72 C73 1.295 . S
C73 O72 1.295 . S
C73 O75 1.235 . S
C74 O79 1.287 . S
C74 O80 1.255 . S
O75 Fe67 1.997 . S
O75 C73 1.235 . S
C76 O82 1.287 . S
C76 O83 1.255 . S
O77 Fe66 1.976 . S
O77 C84 1.287 . S
O78 Fe67 1.996 . S
O78 C84 1.255 . S
O79 Fe69 1.976 . S
O79 C74 1.287 . S
O80 Fe66 1.996 . S
O80 C74 1.255 . S
C81 O85 1.295 . S
C81 O86 1.235 . S
O82 Fe67 1.976 . S
O82 C76 1.287 . S
O83 Fe69 1.996 . S
O83 C76 1.255 . S
C84 O77 1.287 . S
C84 O78 1.255 . S
O85 Fe67 2.002 . S
O85 C81 1.295 . S
O86 Fe69 1.997 . S
O86 C81 1.235 . S
C87 O70 1.295 . S
C87 O71 1.235 . S
C88 N89 1.317 . S
C88 N90 1.348 . S
C88 C91 1.485 . S
N89 C88 1.317 . S
N89 N93 1.370 . S
N90 C88 1.348 . S
N90 C92 1.346 . S
C91 C88 1.485 . S
C91 H95 0.960 . S
C91 H96 0.961 . S
C91 H97 0.960 . S
C92 N90 1.346 . S
C92 N93 1.307 . S
C92 C94 1.486 . S
N93 N89 1.370 . S
N93 C92 1.307 . S
C94 C92 1.486 . S
C94 H98 0.960 . S
C94 H99 0.960 . S
C94 H100 0.959 . S
H95 C91 0.960 . S
H96 C91 0.961 . S
H97 C91 0.960 . S
H98 C94 0.960 . S
H99 C94 0.960 . S
H100 C94 0.959 . S
C101 N102 1.317 . S
C101 N103 1.348 . S
C101 C104 1.485 . S
N102 C101 1.317 . S
N102 N106 1.370 . S
N103 C101 1.348 . S
N103 C105 1.346 . S
C104 C101 1.485 . S
C104 H108 0.960 . S
C104 H109 0.961 . S
C104 H110 0.960 . S
C105 N103 1.346 . S
C105 N106 1.307 . S
C105 C107 1.486 . S
N106 N102 1.370 . S
N106 C105 1.307 . S
C107 C105 1.486 . S
C107 H111 0.960 . S
C107 H112 0.960 . S
C107 H113 0.959 . S
H108 C104 0.960 . S
H109 C104 0.961 . S
H110 C104 0.960 . S
H111 C107 0.960 . S
H112 C107 0.960 . S
H113 C107 0.959 . S
C114 N115 1.317 . S
C114 N116 1.348 . S
C114 C117 1.485 . S
N115 C114 1.317 . S
N115 N119 1.370 . S
N116 C114 1.348 . S
N116 C118 1.346 . S
C117 C114 1.485 . S
C117 H121 0.960 . S
C117 H122 0.961 . S
C117 H123 0.960 . S
C118 N116 1.346 . S
C118 N119 1.307 . S
C118 C120 1.486 . S
N119 N115 1.370 . S
N119 C118 1.307 . S
C120 C118 1.486 . S
C120 H124 0.960 . S
C120 H125 0.960 . S
C120 H126 0.959 . S
H121 C117 0.960 . S
H122 C117 0.961 . S
H123 C117 0.960 . S
H124 C120 0.960 . S
H125 C120 0.960 . S
H126 C120 0.959 . S
C127 N128 1.317 . S
C127 N129 1.348 . S
C127 C130 1.485 . S
N128 C127 1.317 . S
N128 N132 1.370 . S
N129 C127 1.348 . S
N129 C131 1.346 . S
C130 C127 1.485 . S
C130 H134 0.960 . S
C130 H135 0.961 . S
C130 H136 0.960 . S
C131 N129 1.346 . S
C131 N132 1.307 . S
C131 C133 1.486 . S
N132 N128 1.370 . S
N132 C131 1.307 . S
C133 C131 1.486 . S
C133 H137 0.960 . S
C133 H138 0.960 . S
C133 H139 0.959 . S
H134 C130 0.960 . S
H135 C130 0.961 . S
H136 C130 0.960 . S
H137 C133 0.960 . S
H138 C133 0.960 . S
H139 C133 0.959 . S
C140 N141 1.317 . S
C140 N142 1.348 . S
C140 C143 1.485 . S
N141 C140 1.317 . S
N141 N145 1.370 . S
N142 C140 1.348 . S
N142 C144 1.346 . S
C143 C140 1.485 . S
C143 H147 0.960 . S
C143 H148 0.961 . S
C143 H149 0.960 . S
C144 N142 1.346 . S
C144 N145 1.307 . S
C144 C146 1.486 . S
N145 N141 1.370 . S
N145 C144 1.307 . S
C146 C144 1.486 . S
C146 H150 0.960 . S
C146 H151 0.960 . S
C146 H152 0.959 . S
H147 C143 0.960 . S
H148 C143 0.961 . S
H149 C143 0.960 . S
H150 C146 0.960 . S
H151 C146 0.960 . S
H152 C146 0.959 . S
C153 N154 1.317 . S
C153 N155 1.348 . S
C153 C156 1.485 . S
N154 C153 1.317 . S
N154 N158 1.370 . S
N155 C153 1.348 . S
N155 C157 1.346 . S
C156 C153 1.485 . S
C156 H160 0.960 . S
C156 H161 0.961 . S
C156 H162 0.960 . S
C157 N155 1.346 . S
C157 N158 1.307 . S
C157 C159 1.486 . S
N158 N154 1.370 . S
N158 C157 1.307 . S
C159 C157 1.486 . S
C159 H163 0.960 . S
C159 H164 0.960 . S
C159 H165 0.959 . S
H160 C156 0.960 . S
H161 C156 0.961 . S
H162 C156 0.960 . S
H163 C159 0.960 . S
H164 C159 0.960 . S
H165 C159 0.959 . S
C166 N167 1.317 . S
C166 N168 1.348 . S
C166 C169 1.485 . S
N167 C166 1.317 . S
N167 N171 1.370 . S
N168 C166 1.348 . S
N168 C170 1.346 . S
C169 C166 1.485 . S
C169 H173 0.960 . S
C169 H174 0.961 . S
C169 H175 0.960 . S
C170 N168 1.346 . S
C170 N171 1.307 . S
C170 C172 1.486 . S
N171 N167 1.370 . S
N171 C170 1.307 . S
C172 C170 1.486 . S
C172 H176 0.960 . S
C172 H177 0.960 . S
C172 H178 0.959 . S
H173 C169 0.960 . S
H174 C169 0.961 . S
H175 C169 0.960 . S
H176 C172 0.960 . S
H177 C172 0.960 . S
H178 C172 0.959 . S
C179 N180 1.317 . S
C179 N181 1.348 . S
C179 C182 1.485 . S
N180 C179 1.317 . S
N180 N184 1.370 . S
N181 C179 1.348 . S
N181 C183 1.346 . S
C182 C179 1.485 . S
C182 H186 0.960 . S
C182 H187 0.961 . S
C182 H188 0.960 . S
C183 N181 1.346 . S
C183 N184 1.307 . S
C183 C185 1.486 . S
N184 N180 1.370 . S
N184 C183 1.307 . S
C185 C183 1.486 . S
C185 H189 0.960 . S
C185 H190 0.960 . S
C185 H191 0.959 . S
H186 C182 0.960 . S
H187 C182 0.961 . S
H188 C182 0.960 . S
H189 C185 0.960 . S
H190 C185 0.960 . S
H191 C185 0.959 . S
H192 C198 0.930 . S
H193 C201 0.930 . S
H194 C202 0.930 . S
H195 C203 0.930 . S
H196 C206 0.930 . S
H197 C207 0.930 . S
C198 H192 0.930 . S
C198 C199 1.355 1_545 S
C198 C200 1.415 . S
C199 C198 1.355 1_565 S
C199 C201 1.419 . S
C200 C198 1.415 . S
C200 C205 1.425 . S
C200 C207 1.409 . S
C201 H193 0.930 . S
C201 C199 1.419 . S
C201 C202 1.362 . S
C202 H194 0.930 . S
C202 C201 1.362 . S
C202 C205 1.409 1_565 S
C203 H195 0.930 . S
C203 C204 1.355 . S
C203 C205 1.415 . S
C204 C203 1.355 . S
C204 C206 1.419 . S
C205 C200 1.425 . S
C205 C202 1.409 1_545 S
C205 C203 1.415 . S
C206 H196 0.930 . S
C206 C204 1.419 . S
C206 C207 1.362 . S
C207 H197 0.930 . S
C207 C200 1.409 . S
C207 C206 1.362 . S
H208 C214 0.930 . S
H209 C217 0.930 . S
H210 C218 0.930 . S
H211 C219 0.930 . S
H212 C222 0.930 . S
H213 C223 0.930 . S
C214 H208 0.930 . S
C214 C215 1.355 . S
C214 C216 1.415 . S
C215 C214 1.355 . S
C215 C217 1.419 . S
C216 C214 1.415 . S
C216 C221 1.425 . S
C216 C223 1.409 . S
C217 H209 0.930 . S
C217 C215 1.419 . S
C217 C218 1.362 . S
C218 H210 0.930 . S
C218 C217 1.362 . S
C218 C221 1.409 . S
C219 H211 0.930 . S
C219 C220 1.355 . S
C219 C221 1.415 . S
C220 C219 1.355 . S
C220 C222 1.419 . S
C221 C216 1.425 . S
C221 C218 1.409 . S
C221 C219 1.415 . S
C222 H212 0.930 . S
C222 C220 1.419 . S
C222 C223 1.362 . S
C223 H213 0.930 . S
C223 C216 1.409 . S
C223 C222 1.362 . S
H224 C230 0.930 . S
H225 C233 0.930 . S
H226 C234 0.930 . S
H227 C235 0.930 . S
H228 C238 0.930 . S
H229 C239 0.930 . S
C230 H224 0.930 . S
C230 C231 1.355 . S
C230 C232 1.415 1_545 S
C231 C230 1.355 . S
C231 C233 1.419 1_545 S
C232 C230 1.415 1_565 S
C232 C237 1.425 . S
C232 C239 1.409 . S
C233 H225 0.930 . S
C233 C231 1.419 1_565 S
C233 C234 1.362 . S
C234 H226 0.930 . S
C234 C233 1.362 . S
C234 C237 1.409 . S
C235 H227 0.930 . S
C235 C236 1.355 . S
C235 C237 1.415 . S
C236 C235 1.355 . S
C236 C238 1.419 . S
C237 C232 1.425 . S
C237 C234 1.409 . S
C237 C235 1.415 . S
C238 H228 0.930 . S
C238 C236 1.419 . S
C238 C239 1.362 . S
C239 H229 0.930 . S
C239 C232 1.409 . S
C239 C238 1.362 . S
H240 C246 0.930 . S
H241 C249 0.930 . S
H242 C250 0.930 . S
H243 C251 0.930 . S
H244 C254 0.930 . S
H245 C255 0.930 . S
C246 H240 0.930 . S
C246 C247 1.355 . S
C246 C248 1.415 . S
C247 C246 1.355 . S
C247 C249 1.419 . S
C248 C246 1.415 . S
C248 C253 1.425 . S
C248 C255 1.409 . S
C249 H241 0.930 . S
C249 C247 1.419 . S
C249 C250 1.362 . S
C250 H242 0.930 . S
C250 C249 1.362 . S
C250 C253 1.409 . S
C251 H243 0.930 . S
C251 C252 1.355 . S
C251 C253 1.415 . S
C252 C251 1.355 . S
C252 C254 1.419 . S
C253 C248 1.425 . S
C253 C250 1.409 . S
C253 C251 1.415 . S
C254 H244 0.930 . S
C254 C252 1.419 . S
C254 C255 1.362 . S
C255 H245 0.930 . S
C255 C248 1.409 . S
C255 C254 1.362 . S
H256 C262 0.930 . S
H257 C265 0.930 . S
H258 C266 0.930 . S
H259 C267 0.930 . S
H260 C270 0.930 . S
H261 C271 0.930 . S
C262 H256 0.930 . S
C262 C263 1.355 . S
C262 C264 1.415 . S
C263 C262 1.355 . S
C263 C265 1.419 . S
C264 C262 1.415 . S
C264 C269 1.425 . S
C264 C271 1.409 . S
C265 H257 0.930 . S
C265 C263 1.419 . S
C265 C266 1.362 . S
C266 H258 0.930 . S
C266 C265 1.362 . S
C266 C269 1.409 . S
C267 H259 0.930 . S
C267 C268 1.355 . S
C267 C269 1.415 . S
C268 C267 1.355 . S
C268 C270 1.419 . S
C269 C264 1.425 . S
C269 C266 1.409 . S
C269 C267 1.415 . S
C270 H260 0.930 . S
C270 C268 1.419 . S
C270 C271 1.362 . S
C271 H261 0.930 . S
C271 C264 1.409 . S
C271 C270 1.362 . S
H272 C278 0.930 1_655 S
H273 C281 0.930 1_554 S
H274 C282 0.930 . S
H275 C283 0.930 . S
H276 C286 0.930 . S
H277 C287 0.930 . S
C278 H272 0.930 1_455 S
C278 C279 1.355 1_455 S
C278 C280 1.415 . S
C279 C278 1.355 1_655 S
C279 C281 1.419 1_655 S
C280 C278 1.415 . S
C280 C285 1.425 . S
C280 C287 1.409 . S
C281 H273 0.930 1_556 S
C281 C279 1.419 1_455 S
C281 C282 1.362 . S
C282 H274 0.930 . S
C282 C281 1.362 . S
C282 C285 1.409 . S
C283 H275 0.930 . S
C283 C284 1.355 . S
C283 C285 1.415 . S
C284 C283 1.355 . S
C284 C286 1.419 . S
C285 C280 1.425 . S
C285 C282 1.409 . S
C285 C283 1.415 . S
C286 H276 0.930 . S
C286 C284 1.419 . S
C286 C287 1.362 . S
C287 H277 0.930 . S
C287 C280 1.409 . S
C287 C286 1.362 . S
H288 C294 0.930 . S
H289 C297 0.930 . S
H290 C298 0.930 . S
H291 C299 0.930 . S
H292 C302 0.930 . S
H293 C303 0.930 . S
C294 H288 0.930 . S
C294 C295 1.355 . S
C294 C296 1.415 . S
C295 C294 1.355 . S
C295 C297 1.419 . S
C296 C294 1.415 . S
C296 C301 1.425 . S
C296 C303 1.409 . S
C297 H289 0.930 . S
C297 C295 1.419 . S
C297 C298 1.362 . S
C298 H290 0.930 . S
C298 C297 1.362 . S
C298 C301 1.409 . S
C299 H291 0.930 . S
C299 C300 1.355 . S
C299 C301 1.415 . S
C300 C299 1.355 . S
C300 C302 1.419 . S
C301 C296 1.425 . S
C301 C298 1.409 . S
C301 C299 1.415 . S
C302 H292 0.930 . S
C302 C300 1.419 . S
C302 C303 1.362 . S
C303 H293 0.930 . S
C303 C296 1.409 . S
C303 C302 1.362 . S
H304 C310 0.930 . S
H305 C313 0.930 . S
H306 C314 0.930 1_655 S
H307 C315 0.930 . S
H308 C318 0.930 . S
H309 C319 0.930 . S
C310 H304 0.930 . S
C310 C311 1.355 . S
C310 C312 1.415 1_455 S
C311 C310 1.355 . S
C311 C313 1.419 . S
C312 C310 1.415 1_655 S
C312 C317 1.425 . S
C312 C319 1.409 . S
C313 H305 0.930 . S
C313 C311 1.419 . S
C313 C314 1.362 . S
C314 H306 0.930 1_455 S
C314 C313 1.362 . S
C314 C317 1.409 1_455 S
C315 H307 0.930 . S
C315 C316 1.355 . S
C315 C317 1.415 . S
C316 C315 1.355 . S
C316 C318 1.419 . S
C317 C312 1.425 . S
C317 C314 1.409 1_655 S
C317 C315 1.415 . S
C318 H308 0.930 . S
C318 C316 1.419 . S
C318 C319 1.362 . S
C319 H309 0.930 . S
C319 C312 1.409 . S
C319 C318 1.362 . S
H320 C326 0.930 . S
H321 C329 0.926 1_545 S
H322 C330 0.930 . S
H323 C331 0.930 . S
H324 C334 0.930 . S
H325 C335 0.930 . S
C326 H320 0.930 . S
C326 C327 1.355 . S
C326 C328 1.415 1_545 S
C327 C326 1.355 . S
C327 C329 1.409 1_545 S
C328 C326 1.415 1_565 S
C328 C333 1.425 . S
C328 C335 1.409 . S
C329 H321 0.926 1_565 S
C329 C327 1.409 1_565 S
C329 C330 1.376 . S
C330 H322 0.930 . S
C330 C329 1.376 . S
C330 C333 1.409 . S
C331 H323 0.930 . S
C331 C332 1.355 . S
C331 C333 1.415 . S
C332 C331 1.355 . S
C332 C334 1.419 . S
C333 C328 1.425 . S
C333 C330 1.409 . S
C333 C331 1.415 . S
C334 H324 0.930 . S
C334 C332 1.419 . S
C334 C335 1.362 . S
C335 H325 0.930 . S
C335 C328 1.409 . S
C335 C334 1.362 . S
H336 C342 0.930 . S
H337 C345 0.930 . S
H338 C346 0.930 . S
H339 C347 0.930 . S
H340 C350 0.930 . S
H341 C351 0.930 . S
C342 H336 0.930 . S
C342 C343 1.355 . S
C342 C344 1.415 . S
C343 C342 1.355 . S
C343 C345 1.419 . S
C344 C342 1.415 . S
C344 C349 1.425 . S
C344 C351 1.409 . S
C345 H337 0.930 . S
C345 C343 1.419 . S
C345 C346 1.362 . S
C346 H338 0.930 . S
C346 C345 1.362 . S
C346 C349 1.409 . S
C347 H339 0.930 . S
C347 C348 1.355 . S
C347 C349 1.415 . S
C348 C347 1.355 . S
C348 C350 1.419 . S
C349 C344 1.425 . S
C349 C346 1.409 . S
C349 C347 1.415 . S
C350 H340 0.930 . S
C350 C348 1.419 . S
C350 C351 1.362 . S
C351 H341 0.930 . S
C351 C344 1.409 . S
C351 C350 1.362 . S
H352 C358 0.930 1_565 S
H353 C361 0.930 . S
H354 C362 0.930 . S
H355 C363 0.930 . S
H356 C366 0.930 . S
H357 C367 0.930 . S
C358 H352 0.930 1_545 S
C358 C359 1.355 1_545 S
C358 C360 1.415 . S
C359 C358 1.355 1_565 S
C359 C361 1.419 . S
C360 C358 1.415 . S
C360 C365 1.425 . S
C360 C367 1.409 . S
C361 H353 0.930 . S
C361 C359 1.419 . S
C361 C362 1.362 1_565 S
C362 H354 0.930 . S
C362 C361 1.362 1_545 S
C362 C365 1.409 . S
C363 H355 0.930 . S
C363 C364 1.355 . S
C363 C365 1.415 . S
C364 C363 1.355 . S
C364 C366 1.419 . S
C365 C360 1.425 . S
C365 C362 1.409 . S
C365 C363 1.415 . S
C366 H356 0.930 . S
C366 C364 1.419 . S
C366 C367 1.362 . S
C367 H357 0.930 . S
C367 C360 1.409 . S
C367 C366 1.362 . S
H368 C374 0.930 . S
H369 C377 0.930 . S
H370 C378 0.930 . S
H371 C379 0.930 . S
H372 C382 0.930 . S
H373 C383 0.930 . S
C374 H368 0.930 . S
C374 C375 1.355 . S
C374 C376 1.415 . S
C375 C374 1.355 . S
C375 C377 1.419 . S
C376 C374 1.415 . S
C376 C381 1.425 . S
C376 C383 1.409 . S
C377 H369 0.930 . S
C377 C375 1.419 . S
C377 C378 1.362 . S
C378 H370 0.930 . S
C378 C377 1.362 . S
C378 C381 1.409 . S
C379 H371 0.930 . S
C379 C380 1.355 . S
C379 C381 1.415 . S
C380 C379 1.355 . S
C380 C382 1.419 . S
C381 C376 1.425 . S
C381 C378 1.409 . S
C381 C379 1.415 . S
C382 H372 0.930 . S
C382 C380 1.419 . S
C382 C383 1.362 . S
C383 H373 0.930 . S
C383 C376 1.409 . S
C383 C382 1.362 . S
H384 C390 0.930 . S
H385 C393 0.930 . S
H386 C394 0.930 . S
H387 C395 0.930 . S
H388 C398 0.930 . S
H389 C399 0.930 . S
C390 H384 0.930 . S
C390 C391 1.355 . S
C390 C392 1.415 . S
C391 C390 1.355 . S
C391 C393 1.419 . S
C392 C390 1.415 . S
C392 C397 1.425 . S
C392 C399 1.409 . S
C393 H385 0.930 . S
C393 C391 1.419 . S
C393 C394 1.362 . S
C394 H386 0.930 . S
C394 C393 1.362 . S
C394 C397 1.409 . S
C395 H387 0.930 . S
C395 C396 1.355 . S
C395 C397 1.415 . S
C396 C395 1.355 . S
C396 C398 1.419 . S
C397 C392 1.425 . S
C397 C394 1.409 . S
C397 C395 1.415 . S
C398 H388 0.930 . S
C398 C396 1.419 . S
C398 C399 1.362 . S
C399 H389 0.930 . S
C399 C392 1.409 . S
C399 C398 1.362 . S
H400 C406 0.930 1_455 S
H401 C409 0.930 . S
H402 C410 0.930 . S
H403 C411 0.930 . S
H404 C414 0.930 . S
H405 C415 0.930 . S
C406 H400 0.930 1_655 S
C406 C407 1.355 1_655 S
C406 C408 1.415 . S
C407 C406 1.355 1_455 S
C407 C409 1.419 1_455 S
C408 C406 1.415 . S
C408 C413 1.425 . S
C408 C415 1.409 . S
C409 H401 0.930 . S
C409 C407 1.419 1_655 S
C409 C410 1.362 . S
C410 H402 0.930 . S
C410 C409 1.362 . S
C410 C413 1.409 . S
C411 H403 0.930 . S
C411 C412 1.355 . S
C411 C413 1.415 . S
C412 C411 1.355 . S
C412 C414 1.419 . S
C413 C408 1.425 . S
C413 C410 1.409 . S
C413 C411 1.415 . S
C414 H404 0.930 . S
C414 C412 1.419 . S
C414 C415 1.362 . S
C415 H405 0.930 . S
C415 C408 1.409 . S
C415 C414 1.362 . S
H416 C422 0.930 . S
H417 C425 0.930 . S
H418 C426 0.930 . S
H419 C427 0.930 . S
H420 C430 0.930 . S
H421 C431 0.930 . S
C422 H416 0.930 . S
C422 C423 1.355 . S
C422 C424 1.415 . S
C423 C422 1.355 . S
C423 C425 1.419 . S
C424 C422 1.415 . S
C424 C429 1.425 . S
C424 C431 1.409 . S
C425 H417 0.930 . S
C425 C423 1.419 . S
C425 C426 1.362 . S
C426 H418 0.930 . S
C426 C425 1.362 . S
C426 C429 1.409 . S
C427 H419 0.930 . S
C427 C428 1.355 . S
C427 C429 1.415 . S
C428 C427 1.355 . S
C428 C430 1.419 . S
C429 C424 1.425 . S
C429 C426 1.409 . S
C429 C427 1.415 . S
C430 H420 0.930 . S
C430 C428 1.419 . S
C430 C431 1.362 . S
C431 H421 0.930 . S
C431 C424 1.409 . S
C431 C430 1.362 . S
H432 C438 0.930 . S
H433 C441 0.930 . S
H434 C442 0.930 . S
H435 C443 0.930 . S
H436 C446 0.930 . S
H437 C447 0.939 . S
C438 H432 0.930 . S
C438 C439 1.355 . S
C438 C440 1.415 1_655 S
C439 C438 1.355 . S
C439 C441 1.419 . S
C440 C438 1.415 1_455 S
C440 C445 1.425 . S
C440 C447 1.409 . S
C441 H433 0.930 . S
C441 C439 1.419 . S
C441 C442 1.362 1_655 S
C442 H434 0.930 . S
C442 C441 1.362 1_455 S
C442 C445 1.409 . S
C443 H435 0.930 . S
C443 C444 1.355 . S
C443 C445 1.415 . S
C444 C443 1.355 . S
C444 C446 1.419 . S
C445 C440 1.425 . S
C445 C442 1.409 . S
C445 C443 1.415 . S
C446 H436 0.930 . S
C446 C444 1.419 . S
C446 C447 1.362 . S
C447 H437 0.939 . S
C447 C440 1.409 . S
C447 C446 1.362 . S
H448 C454 0.930 . S
H449 C457 0.930 . S
H450 C458 0.930 . S
H451 C459 0.930 . S
H452 C462 0.930 . S
H453 C463 0.930 . S
C454 H448 0.930 . S
C454 C455 1.355 . S
C454 C456 1.415 . S
C455 C454 1.355 . S
C455 C457 1.419 . S
C456 C454 1.415 . S
C456 C461 1.425 . S
C456 C463 1.409 . S
C457 H449 0.930 . S
C457 C455 1.419 . S
C457 C458 1.362 . S
C458 H450 0.930 . S
C458 C457 1.362 . S
C458 C461 1.409 . S
C459 H451 0.930 . S
C459 C460 1.355 . S
C459 C461 1.415 . S
C460 C459 1.355 . S
C460 C462 1.419 . S
C461 C456 1.425 . S
C461 C458 1.409 . S
C461 C459 1.415 . S
C462 H452 0.930 . S
C462 C460 1.419 . S
C462 C463 1.362 . S
C463 H453 0.930 . S
C463 C456 1.409 . S
C463 C462 1.362 . S
H464 C470 0.930 . S
H465 C473 0.930 . S
H466 C474 0.930 . S
H467 C475 0.930 . S
H468 C478 0.930 . S
H469 C479 0.930 . S
C470 H464 0.930 . S
C470 C471 1.355 . S
C470 C472 1.415 . S
C471 C470 1.355 . S
C471 C473 1.419 . S
C472 C470 1.415 . S
C472 C477 1.425 . S
C472 C479 1.409 . S
C473 H465 0.930 . S
C473 C471 1.419 . S
C473 C474 1.362 . S
C474 H466 0.930 . S
C474 C473 1.362 . S
C474 C477 1.409 . S
C475 H467 0.930 . S
C475 C476 1.355 . S
C475 C477 1.415 . S
C476 C475 1.355 . S
C476 C478 1.419 . S
C477 C472 1.425 . S
C477 C474 1.409 . S
C477 C475 1.415 . S
C478 H468 0.930 . S
C478 C476 1.419 . S
C478 C479 1.362 . S
C479 H469 0.930 . S
C479 C472 1.409 . S
C479 C478 1.362 . S
H480 C486 0.930 . S
H481 C489 0.930 . S
H482 C490 0.930 . S
H483 C491 0.930 . S
H484 C494 0.930 . S
H485 C495 0.930 . S
C486 H480 0.930 . S
C486 C487 1.355 . S
C486 C488 1.415 . S
C487 C486 1.355 . S
C487 C489 1.419 . S
C488 C486 1.415 . S
C488 C493 1.425 . S
C488 C495 1.409 . S
C489 H481 0.930 . S
C489 C487 1.419 . S
C489 C490 1.362 . S
C490 H482 0.930 . S
C490 C489 1.362 . S
C490 C493 1.409 . S
C491 H483 0.930 . S
C491 C492 1.355 . S
C491 C493 1.415 . S
C492 C491 1.355 . S
C492 C494 1.419 . S
C493 C488 1.425 . S
C493 C490 1.409 . S
C493 C491 1.415 . S
C494 H484 0.930 . S
C494 C492 1.419 . S
C494 C495 1.362 . S
C495 H485 0.930 . S
C495 C488 1.409 . S
C495 C494 1.362 . S
H496 C502 0.930 . S
H497 C505 0.930 . S
H498 C506 0.930 . S
H499 C507 0.930 . S
H500 C510 0.930 . S
H501 C511 0.930 . S
C502 H496 0.930 . S
C502 C503 1.355 . S
C502 C504 1.415 . S
C503 C502 1.355 . S
C503 C505 1.419 . S
C504 C502 1.415 . S
C504 C509 1.425 . S
C504 C511 1.409 . S
C505 H497 0.930 . S
C505 C503 1.419 . S
C505 C506 1.362 . S
C506 H498 0.930 . S
C506 C505 1.362 . S
C506 C509 1.409 . S
C507 H499 0.930 . S
C507 C508 1.355 . S
C507 C509 1.415 . S
C508 C507 1.355 . S
C508 C510 1.419 . S
C509 C504 1.425 . S
C509 C506 1.409 . S
C509 C507 1.415 . S
C510 H500 0.930 . S
C510 C508 1.419 . S
C510 C511 1.362 . S
C511 H501 0.930 . S
C511 C504 1.409 . S
C511 C510 1.362 . S
H512 C518 0.930 . S
H513 C521 0.930 . S
H514 C522 0.930 . S
H515 C523 0.930 . S
H516 C526 0.930 . S
H517 C527 0.930 . S
C518 H512 0.930 . S
C518 C519 1.355 . S
C518 C520 1.415 . S
C519 C518 1.355 . S
C519 C521 1.419 . S
C520 C518 1.415 . S
C520 C525 1.425 . S
C520 C527 1.409 . S
C521 H513 0.930 . S
C521 C519 1.419 . S
C521 C522 1.362 . S
C522 H514 0.930 . S
C522 C521 1.362 . S
C522 C525 1.409 . S
C523 H515 0.930 . S
C523 C524 1.355 . S
C523 C525 1.415 . S
C524 C523 1.355 . S
C524 C526 1.419 . S
C525 C520 1.425 . S
C525 C522 1.409 . S
C525 C523 1.415 . S
C526 H516 0.930 . S
C526 C524 1.419 . S
C526 C527 1.362 . S
C527 H517 0.930 . S
C527 C520 1.409 . S
C527 C526 1.362 . S
H528 C534 0.930 . S
H529 C537 0.930 . S
H530 C538 0.930 . S
H531 C539 0.930 . S
H532 C542 0.930 . S
H533 C543 0.930 . S
C534 H528 0.930 . S
C534 C535 1.355 . S
C534 C536 1.415 . S
C535 C534 1.355 . S
C535 C537 1.419 . S
C536 C534 1.415 . S
C536 C541 1.425 . S
C536 C543 1.409 . S
C537 H529 0.930 . S
C537 C535 1.419 . S
C537 C538 1.362 . S
C538 H530 0.930 . S
C538 C537 1.362 . S
C538 C541 1.409 . S
C539 H531 0.930 . S
C539 C540 1.355 . S
C539 C541 1.415 . S
C540 C539 1.355 . S
C540 C542 1.419 . S
C541 C536 1.425 . S
C541 C538 1.409 . S
C541 C539 1.415 . S
C542 H532 0.930 . S
C542 C540 1.419 . S
C542 C543 1.362 . S
C543 H533 0.930 . S
C543 C536 1.409 . S
C543 C542 1.362 . S
H544 C550 0.930 . S
H545 C553 0.930 . S
H546 C554 0.930 . S
H547 C555 0.930 . S
H548 C558 0.930 . S
H549 C559 0.930 . S
C550 H544 0.930 . S
C550 C551 1.355 . S
C550 C552 1.415 . S
C551 C550 1.355 . S
C551 C553 1.419 . S
C552 C550 1.415 . S
C552 C557 1.425 . S
C552 C559 1.409 . S
C553 H545 0.930 . S
C553 C551 1.419 . S
C553 C554 1.362 . S
C554 H546 0.930 . S
C554 C553 1.362 . S
C554 C557 1.409 . S
C555 H547 0.930 . S
C555 C556 1.355 . S
C555 C557 1.415 . S
C556 C555 1.355 . S
C556 C558 1.419 . S
C557 C552 1.425 . S
C557 C554 1.409 . S
C557 C555 1.415 . S
C558 H548 0.930 . S
C558 C556 1.419 . S
C558 C559 1.362 . S
C559 H549 0.930 . S
C559 C552 1.409 . S
C559 C558 1.362 . S
H560 C566 0.930 . S
H561 C569 0.930 . S
H562 C570 0.930 . S
H563 C571 0.930 . S
H564 C574 0.930 . S
H565 C575 0.930 . S
C566 H560 0.930 . S
C566 C567 1.355 . S
C566 C568 1.415 . S
C567 C566 1.355 . S
C567 C569 1.419 . S
C568 C566 1.415 . S
C568 C573 1.425 . S
C568 C575 1.409 . S
C569 H561 0.930 . S
C569 C567 1.419 . S
C569 C570 1.362 . S
C570 H562 0.930 . S
C570 C569 1.362 . S
C570 C573 1.409 . S
C571 H563 0.930 . S
C571 C572 1.355 . S
C571 C573 1.415 . S
C572 C571 1.355 . S
C572 C574 1.419 . S
C573 C568 1.425 . S
C573 C570 1.409 . S
C573 C571 1.415 . S
C574 H564 0.930 . S
C574 C572 1.419 . S
C574 C575 1.362 . S
C575 H565 0.930 . S
C575 C568 1.409 . S
C575 C574 1.362 . S
C199 C7 1.401 . S
C204 N93 1.380 . S
C215 C37 1.315 . S
C220 N106 1.344 . S
C231 C54 1.302 . S
C236 N115 1.329 . S
C252 N132 1.396 . S
C247 C87 1.362 . S
C268 N145 1.351 . S
C263 C30 1.371 . S
C279 C51 1.370 . S
C284 N154 1.413 . S
C295 C84 1.354 . S
C300 N167 1.341 . S
C311 C10 1.304 . S
C316 N184 1.304 . S
C327 C59 1.398 . S
C332 N180 1.416 . S
C348 N141 1.307 . S
C343 C74 1.303 . S
C364 N158 1.360 . S
C359 C18 1.330 . S
C375 C32 1.397 . S
C380 N171 1.402 . S
C396 N102 1.411 . S
C391 C73 1.370 . S
C407 C15 1.362 . S
C412 N119 1.404 . S
C428 N128 1.393 . S
C423 C43 1.362 . S
C444 N89 1.305 . S
C439 C62 1.315 . S
C460 N168 1.427 . S
C455 C21 1.412 . S
C476 N181 1.406 . S
C471 C29 1.399 . S
C487 C52 1.374 . S
C492 N142 1.365 . S
C508 N155 1.420 . S
C503 C81 1.398 . S
C524 N116 1.401 . S
C519 C40 1.396 . S
C535 C65 1.417 . S
C540 N129 1.410 . S
C556 N90 1.364 . S
C551 C76 1.370 . S
C572 N103 1.396 . S
C567 C8 1.405 . S
