# Generated by pormake.
# Topology tsx, (6,3)-cn, num edge types: 1
# Building blocks:
#     Node 0, Type 0, BuildingBlock: LEVNOQ01_clean_sbu_1, # of connection points: 6
#     Node 1, Type 0, BuildingBlock: LEVNOQ01_clean_sbu_1, # of connection points: 6
#     Node 2, Type 1, BuildingBlock: PAMTOO_clean_linker_0, # of connection points: 3
#     Node 3, Type 1, BuildingBlock: PAMTOO_clean_linker_0, # of connection points: 3
#     Node 4, Type 1, BuildingBlock: PAMTOO_clean_linker_0, # of connection points: 3
#     Node 5, Type 1, BuildingBlock: PAMTOO_clean_linker_0, # of connection points: 3
#     Edge 6, Type (0, 1), BuildingBlock: FUNLAD_clean_linker_1, # of connection points: 2
#     Edge 7, Type (0, 1), BuildingBlock: FUNLAD_clean_linker_1, # of connection points: 2
#     Edge 8, Type (0, 1), BuildingBlock: FUNLAD_clean_linker_1, # of connection points: 2
#     Edge 9, Type (0, 1), BuildingBlock: FUNLAD_clean_linker_1, # of connection points: 2
#     Edge 10, Type (0, 1), BuildingBlock: FUNLAD_clean_linker_1, # of connection points: 2
#     Edge 11, Type (0, 1), BuildingBlock: FUNLAD_clean_linker_1, # of connection points: 2
#     Edge 12, Type (0, 1), BuildingBlock: FUNLAD_clean_linker_1, # of connection points: 2
#     Edge 13, Type (0, 1), BuildingBlock: FUNLAD_clean_linker_1, # of connection points: 2
#     Edge 14, Type (0, 1), BuildingBlock: FUNLAD_clean_linker_1, # of connection points: 2
#     Edge 15, Type (0, 1), BuildingBlock: FUNLAD_clean_linker_1, # of connection points: 2
#     Edge 16, Type (0, 1), BuildingBlock: FUNLAD_clean_linker_1, # of connection points: 2
#     Edge 17, Type (0, 1), BuildingBlock: FUNLAD_clean_linker_1, # of connection points: 2
# Relax obj value: 0.128
# Max RMSD: 0.146
# Mean RMSD: 0.139
data_MOF--net-tsx--node1-LEVNOQ01_clean_sbu_1--node2-PAMTOO_clean_linker_0--edge1-FUNLAD_clean_linker_1
_symmetry_space_group_name_H-M    P1
_symmetry_Int_Tables_number       1
_symmetry_cell_setting            triclinic
loop_
_symmetry_equiv_pos_as_xyz
'x, y, z'
_cell_length_a     19.552228
_cell_length_b     23.605262
_cell_length_c     35.236392
_cell_angle_alpha  88.697094
_cell_angle_beta   90.504805
_cell_angle_gamma 90.839289
loop_
_atom_site_label
_atom_site_type_symbol
_atom_site_fract_x
_atom_site_fract_y
_atom_site_fract_z
_atom_type_partial_charge
O0 O 0.15224 0.98426 0.05493 0.0
Mg1 Mg 0.16881 0.02593 0.00113 0.0
O2 O 0.04916 0.02019 0.05762 0.0
Mg3 Mg 0.04755 0.03473 0.99279 0.0
O4 O 0.13755 0.10719 -0.00345 0.0
O5 O 0.24655 0.08157 0.00739 0.0
O6 O 0.05629 0.0473 0.92747 0.0
O7 O 0.98198 0.11857 -0.00013 0.0
Mg8 Mg 0.91087 0.02635 0.95225 0.0
O9 O 0.95373 0.97105 0.99116 0.0
O10 O 0.95813 0.02746 0.89902 0.0
O11 O 0.87995 0.10337 0.97421 0.0
O12 O 0.8504 0.95847 0.96426 0.0
C13 C 0.15325 0.93699 0.96171 0.0
C14 C 0.09875 0.99414 0.07356 0.0
C15 C 0.2018 0.1205 0.00237 0.0
C16 C 0.02104 0.04043 0.89737 0.0
C17 C 0.92128 0.13517 0.99193 0.0
C18 C 0.89801 0.94068 0.987 0.0
O19 O 0.18964 0.97919 0.95231 0.0
O20 O 0.10328 0.94483 0.98393 0.0
O21 O 0.67823 0.5258 0.58174 0.0
Mg22 Mg 0.70906 0.554 0.52681 0.0
O23 O 0.5723 0.55564 0.57335 0.0
Mg24 Mg 0.5762 0.56518 0.50757 0.0
O25 O 0.67031 0.63017 0.50993 0.0
O26 O 0.77958 0.61695 0.52829 0.0
O27 O 0.59101 0.57267 0.44222 0.0
O28 O 0.51881 0.6526 0.51187 0.0
Mg29 Mg 0.44707 0.56424 0.46735 0.0
O30 O 0.47903 0.50293 0.5057 0.0
O31 O 0.49128 0.56589 0.41328 0.0
O32 O 0.41373 0.63891 0.49067 0.0
O33 O 0.37916 0.50072 0.47337 0.0
C34 C 0.68337 0.46042 0.48763 0.0
C35 C 0.61962 0.53586 0.59485 0.0
C36 C 0.73197 0.64996 0.51598 0.0
C37 C 0.55564 0.57055 0.41185 0.0
C38 C 0.45807 0.67021 0.50628 0.0
C39 C 0.42069 0.47796 0.49775 0.0
O40 O 0.73203 0.49575 0.48525 0.0
O41 O 0.62731 0.4755 0.50213 0.0
H42 H 0.17452 0.95557 0.37153 0.0
H43 H 0.03275 0.09348 0.3647 0.0
H44 H 0.0879 0.02176 0.47315 0.0
H45 H 0.93071 0.06125 0.46078 0.0
C46 C 0.94495 0.09192 0.43782 0.0
O47 O 0.01503 0.09878 0.43715 0.0
H48 H 0.92536 0.07585 0.41027 0.0
C49 C 0.14177 0.98542 0.38514 0.0
C50 C 0.13782 0.98529 0.42511 0.0
C51 C 0.10259 0.02357 0.36299 0.0
C52 C 0.06217 0.06291 0.38119 0.0
C53 C 0.05608 0.06152 0.42057 0.0
C54 C 0.09295 0.02232 0.44254 0.0
H55 H 0.17698 0.10358 0.60761 0.0
H56 H 0.99455 0.0011 0.59966 0.0
H57 H 0.04432 0.11957 0.5099 0.0
H58 H 0.88414 0.09534 0.52526 0.0
C59 C 0.89392 0.05383 0.53927 0.0
O60 O 0.96014 0.03762 0.53225 0.0
H61 H 0.88522 0.05781 0.57029 0.0
C62 C 0.13049 0.09252 0.59272 0.0
C63 C 0.11548 0.11854 0.55732 0.0
C64 C 0.08533 0.05231 0.60918 0.0
C65 C 0.02921 0.03304 0.58788 0.0
C66 C 0.01473 0.05694 0.55214 0.0
C67 C 0.05704 0.10027 0.53717 0.0
H68 H 0.64704 0.4705 0.88667 0.0
H69 H 0.48035 0.58689 0.89255 0.0
H70 H 0.52265 0.47424 0.9868 0.0
H71 H 0.36031 0.50157 0.96583 0.0
C72 C 0.37542 0.5413 0.95071 0.0
O73 O 0.44222 0.55544 0.96013 0.0
H74 H 0.3698 0.5341 0.9197 0.0
C75 C 0.6056 0.48864 0.90233 0.0
C76 C 0.59231 0.46929 0.9397 0.0
C77 C 0.56401 0.52986 0.8847 0.0
C78 C 0.51203 0.55433 0.90552 0.0
C79 C 0.49617 0.53375 0.94191 0.0
C80 C 0.53547 0.49048 0.95875 0.0
H81 H 0.66381 0.59326 0.12378 0.0
H82 H 0.4951 0.47453 0.12064 0.0
H83 H 0.54439 0.5758 0.02175 0.0
H84 H 0.38564 0.55724 0.03994 0.0
C85 C 0.39367 0.51716 0.05639 0.0
O86 O 0.45969 0.49897 0.05098 0.0
H87 H 0.38436 0.52491 0.08694 0.0
C88 C 0.62476 0.57087 0.10798 0.0
C89 C 0.61269 0.58655 0.06979 0.0
C90 C 0.58281 0.53041 0.12666 0.0
C91 C 0.52856 0.50531 0.10661 0.0
C92 C 0.51424 0.52202 0.06909 0.0
C93 C 0.55609 0.56272 0.05072 0.0
H94 H 0.28126 0.18603 0.00767 0.0
C95 C 0.22621 0.1797 0.00491 0.0
H96 H 0.13035 0.21962 0.00672 0.0
H97 H 0.2647 0.409 0.11177 0.0
H98 H 0.17722 0.36731 0.15267 0.0
H99 H 0.10724 0.28578 0.13178 0.0
H100 H 0.12375 0.24569 0.06981 0.0
C101 C 0.18564 0.22486 0.00731 0.0
C102 C 0.21712 0.28107 0.01653 0.0
C103 C 0.20604 0.30452 0.05263 0.0
C104 C 0.24696 0.35117 0.06488 0.0
C105 C 0.23543 0.3733 0.10124 0.0
C106 C 0.18536 0.34983 0.12496 0.0
C107 C 0.14593 0.30394 0.11318 0.0
C108 C 0.156 0.28129 0.07753 0.0
H109 H 0.30331 0.48537 0.02324 0.0
C110 C 0.3433 0.47291 0.04319 0.0
H111 H 0.38417 0.40659 0.07699 0.0
H112 H 0.24071 0.25484 0.94275 0.0
H113 H 0.32846 0.29623 0.90176 0.0
H114 H 0.4056 0.372 0.92475 0.0
H115 H 0.39477 0.40743 0.98836 0.0
C116 C 0.34639 0.41883 0.05564 0.0
C117 C 0.29889 0.37426 0.04108 0.0
C118 C 0.30764 0.3527 0.00421 0.0
C119 C 0.26542 0.30713 0.99159 0.0
C120 C 0.27327 0.28793 0.95414 0.0
C121 C 0.32308 0.31153 0.9303 0.0
C122 C 0.36633 0.35432 0.94318 0.0
C123 C 0.35916 0.37463 0.97972 0.0
H124 H 0.21676 0.87808 0.93061 0.0
C125 C 0.17665 0.88013 0.95171 0.0
H126 H 0.1212 0.83414 -0.00642 0.0
H127 H 0.26534 0.64297 0.88082 0.0
H128 H 0.18683 0.67701 0.83207 0.0
H129 H 0.11059 0.75694 0.84394 0.0
H130 H 0.11243 0.80332 0.90469 0.0
C131 C 0.15795 0.83245 0.97069 0.0
C132 C 0.19634 0.77897 0.96518 0.0
C133 C 0.19379 0.75147 0.92982 0.0
C134 C 0.23742 0.70502 0.92313 0.0
C135 C 0.23385 0.67869 0.88741 0.0
C136 C 0.18878 0.69765 0.85919 0.0
C137 C 0.14589 0.74267 0.86586 0.0
C138 C 0.14786 0.7692 0.90076 0.0
H139 H 0.29126 0.5802 0.98356 0.0
C140 C 0.32849 0.58822 0.96129 0.0
H141 H 0.36752 0.64615 0.92047 0.0
H142 H 0.21059 0.81922 0.03716 0.0
H143 H 0.28934 0.78572 0.08586 0.0
H144 H 0.36768 0.70737 0.07363 0.0
H145 H 0.36741 0.66186 0.01284 0.0
C146 C 0.3316 0.6392 0.94355 0.0
C147 C 0.28313 0.68555 0.95195 0.0
C148 C 0.28441 0.71212 0.98772 0.0
C149 C 0.24022 0.75826 -0.00551 0.0
C150 C 0.24293 0.78414 0.03038 0.0
C151 C 0.28804 0.76541 0.05862 0.0
C152 C 0.33204 0.72124 0.05176 0.0
C153 C 0.33085 0.69505 0.01674 0.0
H154 H 0.92999 0.86773 0.02395 0.0
C155 C 0.88842 0.88531 0.00698 0.0
H156 H 0.78808 0.87386 0.98554 0.0
H157 H 0.74005 0.61684 0.99059 0.0
H158 H 0.76386 0.63174 0.92361 0.0
H159 H 0.81222 0.72279 0.89979 0.0
H160 H 0.83732 0.79935 0.94286 0.0
C161 C 0.82867 0.85653 0.00338 0.0
C162 C 0.81504 0.79865 0.01939 0.0
C163 C 0.80111 0.75408 -0.00605 0.0
C164 C 0.77261 0.70181 0.00758 0.0
C165 C 0.76004 0.6579 0.98158 0.0
C166 C 0.77396 0.66574 0.9431 0.0
C167 C 0.80119 0.71699 0.92969 0.0
C168 C 0.81495 0.7607 0.95468 0.0
H169 H 0.63064 0.65797 0.02897 0.0
C170 C 0.65479 0.63177 0.05089 0.0
H171 H 0.74625 0.61614 0.08182 0.0
H172 H 0.83927 0.87392 0.07637 0.0
H173 H 0.81915 0.85769 0.14343 0.0
H174 H 0.7713 0.76649 0.16724 0.0
H175 H 0.74271 0.69125 0.124 0.0
C176 C 0.72045 0.6426 0.06074 0.0
C177 C 0.75748 0.69437 0.04662 0.0
C178 C 0.77608 0.73732 0.07251 0.0
C179 C 0.80443 0.78976 0.05885 0.0
C180 C 0.81895 0.83294 0.08512 0.0
C181 C 0.80742 0.82424 0.12378 0.0
C182 C 0.78044 0.77293 0.13718 0.0
C183 C 0.76445 0.72998 0.11199 0.0
H184 H 0.93982 0.22635 0.00397 0.0
C185 C 0.90054 0.19447 -0.00149 0.0
H186 H 0.79609 0.17809 0.98666 0.0
H187 H 0.69371 0.42357 0.02757 0.0
H188 H 0.6971 0.3875 0.0926 0.0
H189 H 0.75347 0.29712 0.10876 0.0
H190 H 0.8079 0.24262 0.05989 0.0
C191 C 0.83517 0.21015 0.99212 0.0
C192 C 0.81413 0.26985 0.98451 0.0
C193 C 0.78184 0.30089 0.01307 0.0
C194 C 0.74766 0.35233 0.00352 0.0
C195 C 0.71808 0.38331 0.03297 0.0
C196 C 0.72017 0.36329 0.07047 0.0
C197 C 0.752 0.31242 0.07957 0.0
C198 C 0.78271 0.28145 0.05132 0.0
H199 H 0.60856 0.39068 0.97413 0.0
C200 C 0.63449 0.424 0.95776 0.0
H201 H 0.72878 0.45663 0.938 0.0
H202 H 0.87691 0.22399 0.92351 0.0
H203 H 0.87523 0.26024 0.85867 0.0
H204 H 0.81337 0.34758 0.84156 0.0
H205 H 0.75303 0.39914 0.88904 0.0
C206 C 0.70295 0.42245 0.9536 0.0
C207 C 0.74411 0.37179 0.96511 0.0
C208 C 0.77997 0.34238 0.9369 0.0
C209 C 0.81513 0.2916 0.94666 0.0
C210 C 0.84921 0.26258 0.91773 0.0
C211 C 0.84874 0.28295 0.88034 0.0
C212 C 0.814 0.33214 0.87072 0.0
C213 C 0.77973 0.36152 0.89844 0.0
H214 H 0.80125 0.72314 0.51886 0.0
C215 C 0.74912 0.71062 0.51147 0.0
H216 H 0.65127 0.73993 0.49533 0.0
H217 H 0.72418 0.96997 0.57951 0.0
H218 H 0.61803 0.93949 0.60966 0.0
H219 H 0.56022 0.85034 0.59162 0.0
H220 H 0.60763 0.79136 0.54318 0.0
C221 C 0.70429 0.75098 0.50145 0.0
C222 C 0.72611 0.8117 0.50394 0.0
C223 C 0.69673 0.84617 0.53166 0.0
C224 C 0.73043 0.89731 0.5423 0.0
C225 C 0.70095 0.93045 0.57069 0.0
C226 C 0.64004 0.91352 0.58812 0.0
C227 C 0.60745 0.86334 0.57794 0.0
C228 C 0.63532 0.82977 0.55015 0.0
H229 H 0.82317 0.0178 0.49543 0.0
C230 C 0.84526 0.01041 0.52349 0.0
H231 H 0.85695 0.95335 0.56974 0.0
H232 H 0.78266 0.76456 0.44191 0.0
H233 H 0.88637 0.79645 0.40965 0.0
H234 H 0.94978 0.88142 0.43079 0.0
H235 H 0.90954 0.93548 0.48345 0.0
C236 C 0.83486 0.96053 0.54166 0.0
C237 C 0.79306 0.91391 0.52505 0.0
C238 C 0.81854 0.88242 0.49452 0.0
C239 C 0.78385 0.83203 0.48337 0.0
C240 C 0.80883 0.80199 0.45221 0.0
C241 C 0.86788 0.82001 0.43338 0.0
C242 C 0.90344 0.86794 0.44521 0.0
C243 C 0.87948 0.89882 0.47547 0.0
H244 H 0.65575 0.36929 0.48717 0.0
C245 C 0.69465 0.40055 0.47909 0.0
H246 H 0.79407 0.41478 0.45775 0.0
H247 H 0.91997 0.18734 0.51447 0.0
H248 H 0.96691 0.2518 0.56054 0.0
H249 H 0.92507 0.34966 0.56392 0.0
H250 H 0.83693 0.38356 0.52073 0.0
C251 C 0.75419 0.38379 0.46471 0.0
C252 C 0.77323 0.32327 0.46463 0.0
C253 C 0.82497 0.30415 0.49006 0.0
C254 C 0.84862 0.24772 0.48827 0.0
C255 C 0.90023 0.22977 0.5142 0.0
C256 C 0.92758 0.26638 0.54098 0.0
C257 C 0.90415 0.32145 0.54284 0.0
C258 C 0.85359 0.34039 0.51775 0.0
H259 H 0.94418 0.18636 0.43741 0.0
C260 C 0.91394 0.14842 0.44408 0.0
H261 H 0.81754 0.11607 0.46089 0.0
H262 H 0.67238 0.34654 0.41229 0.0
H263 H 0.6215 0.28072 0.36795 0.0
H264 H 0.66032 0.18188 0.36592 0.0
H265 H 0.75057 0.14835 0.40806 0.0
C266 C 0.84959 0.15351 0.45613 0.0
C267 C 0.82014 0.2105 0.46105 0.0
C268 C 0.76578 0.22875 0.43705 0.0
C269 C 0.74277 0.28552 0.43852 0.0
C270 C 0.6908 0.30356 0.41294 0.0
C271 C 0.66137 0.26628 0.3872 0.0
C272 C 0.68326 0.21063 0.38604 0.0
C273 C 0.73506 0.19191 0.41046 0.0
H274 H 0.4225 0.41059 0.54303 0.0
C275 C 0.40049 0.42311 0.51576 0.0
H276 H 0.33088 0.40389 0.47166 0.0
H277 H 0.32069 0.15303 0.5575 0.0
H278 H 0.44205 0.14637 0.54451 0.0
H279 H 0.50693 0.22873 0.51859 0.0
H280 H 0.45113 0.31835 0.50585 0.0
C281 C 0.35205 0.39067 0.49904 0.0
C282 C 0.31641 0.34199 0.51819 0.0
C283 C 0.35001 0.28996 0.52532 0.0
C284 C 0.31234 0.24217 0.53972 0.0
C285 C 0.34691 0.1906 0.54659 0.0
C286 C 0.41647 0.18617 0.53917 0.0
C287 C 0.453 0.23255 0.52459 0.0
C288 C 0.42039 0.28387 0.51755 0.0
H289 H 0.15155 0.17765 0.51155 0.0
C290 C 0.15865 0.16577 0.54131 0.0
H291 H 0.20999 0.1883 0.59247 0.0
H292 H 0.23687 0.43623 0.50933 0.0
H293 H 0.11565 0.44235 0.52188 0.0
H294 H 0.05059 0.35933 0.54635 0.0
H295 H 0.1061 0.2695 0.55819 0.0
C296 C 0.20249 0.19687 0.56242 0.0
C297 C 0.24113 0.24626 0.54623 0.0
C298 C 0.20773 0.29844 0.53955 0.0
C299 C 0.24538 0.3463 0.52551 0.0
C300 C 0.21075 0.39814 0.51942 0.0
C301 C 0.14117 0.4024 0.52672 0.0
C302 C 0.10451 0.35565 0.54049 0.0
C303 C 0.1371 0.30425 0.54704 0.0
H304 H 0.47459 0.76188 0.49851 0.0
C305 C 0.44069 0.73004 0.51125 0.0
H306 H 0.34408 0.71023 0.53332 0.0
H307 H 0.32475 0.98584 0.48072 0.0
H308 H 0.41465 0.00518 0.52694 0.0
H309 H 0.47058 0.92709 0.56241 0.0
H310 H 0.43729 0.82908 0.55184 0.0
C311 C 0.37623 0.7431 0.52028 0.0
C312 C 0.34078 0.79154 0.5012 0.0
C313 C 0.36043 0.84847 0.50811 0.0
C314 C 0.32747 0.89361 0.48804 0.0
C315 C 0.34814 0.95008 0.49525 0.0
C316 C 0.39954 0.96172 0.52172 0.0
C317 C 0.4311 0.91772 0.54166 0.0
C318 C 0.41181 0.86167 0.53517 0.0
H319 H 0.15339 0.9274 0.47464 0.0
C320 C 0.1772 0.94476 0.44904 0.0
H321 H 0.26708 0.94745 0.41595 0.0
H322 H 0.28997 0.68688 0.48026 0.0
H323 H 0.2001 0.66863 0.43476 0.0
H324 H 0.14326 0.74719 0.40037 0.0
H325 H 0.17644 0.84452 0.41148 0.0
C326 C 0.24049 0.92847 0.44011 0.0
C327 C 0.27441 0.88172 0.46162 0.0
C328 C 0.25434 0.82492 0.45487 0.0
C329 C 0.28728 0.77976 0.47473 0.0
C330 C 0.26666 0.72331 0.4667 0.0
C331 C 0.21504 0.71201 0.44037 0.0
C332 C 0.18306 0.75619 0.42102 0.0
C333 C 0.20247 0.81198 0.42789 0.0
H334 H 0.14257 0.95599 0.12539 0.0
C335 C 0.09904 0.97953 0.11428 0.0
H336 H 0.0108 0.02501 0.12877 0.0
H337 H 0.02786 0.89742 0.29344 0.0
H338 H 0.94218 0.83681 0.26422 0.0
H339 H 0.91371 0.8476 0.19612 0.0
H340 H 0.97026 0.91985 0.15686 0.0
C341 C 0.05405 0.00017 0.13864 0.0
C342 C 0.06845 0.99527 0.18 0.0
C343 C 0.03538 0.95278 0.2024 0.0
C344 C 0.05257 0.94612 0.24155 0.0
C345 C 0.01757 0.90402 0.26347 0.0
C346 C 0.96815 0.86894 0.24706 0.0
C347 C 0.95207 0.87505 0.20871 0.0
C348 C 0.98499 0.91652 0.1865 0.0
H349 H 0.08171 0.06181 0.30654 0.0
C350 C 0.10096 0.02391 0.32094 0.0
H351 H 0.13011 0.939 0.31294 0.0
H352 H 0.13802 0.08371 0.14546 0.0
H353 H 0.22845 0.14088 0.17343 0.0
H354 H 0.26556 0.12376 0.23977 0.0
H355 H 0.21132 0.05024 0.27869 0.0
C356 C 0.11563 0.97911 0.29978 0.0
C357 C 0.10325 0.98182 0.25801 0.0
C358 C 0.13814 0.02296 0.2351 0.0
C359 C 0.11919 0.03087 0.19638 0.0
C360 C 0.15198 0.07455 0.17472 0.0
C361 C 0.20382 0.10785 0.19045 0.0
C362 C 0.22451 0.09837 0.22782 0.0
C363 C 0.19244 0.05638 0.24997 0.0
H364 H 0.10717 0.06253 0.85942 0.0
C365 C 0.05455 0.04701 0.86036 0.0
H366 H 0.96913 0.01855 0.82837 0.0
H367 H 0.07289 0.16188 0.68436 0.0
H368 H 0.00872 0.23576 0.71375 0.0
H369 H 0.96492 0.223 0.77889 0.0
H370 H 0.98498 0.13594 0.8149 0.0
C371 C 0.02169 0.03413 0.8281 0.0
C372 C 0.05436 0.04363 0.79082 0.0
C373 C 0.04318 0.09509 0.7705 0.0
C374 C 0.06901 0.10255 0.7332 0.0
C375 C 0.0554 0.15392 0.71305 0.0
C376 C 0.01839 0.19678 0.72954 0.0
C377 C 0.99369 0.18959 0.76619 0.0
C378 C 1.00559 0.13939 0.78653 0.0
H379 H 0.05583 0.00046 0.65955 0.0
C380 C 0.0904 0.03415 0.64973 0.0
H381 H 0.15679 0.10024 0.66797 0.0
H382 H 0.08777 0.9413 0.82348 0.0
H383 H 0.15599 0.86835 0.79522 0.0
H384 H 0.20333 0.88217 0.73089 0.0
H385 H 0.18233 0.96891 0.69436 0.0
C386 C 0.12487 0.06408 0.67594 0.0
C387 C 0.10588 0.05833 0.71647 0.0
C388 C 0.11995 0.00798 0.73757 0.0
C389 C 0.09365 0.00044 0.77481 0.0
C390 C 0.10698 0.94929 0.79513 0.0
C391 C 0.14607 0.90714 0.77925 0.0
C392 C 0.17265 0.91489 0.74301 0.0
C393 C 0.15996 0.96468 0.72228 0.0
H394 H 0.65144 0.50627 0.65151 0.0
C395 C 0.61019 0.52702 0.63589 0.0
H396 H 0.51556 0.56871 0.64089 0.0
H397 H 0.48588 0.44112 0.80409 0.0
H398 H 0.40004 0.38995 0.76783 0.0
H399 H 0.38602 0.40807 0.69898 0.0
H400 H 0.45754 0.47801 0.66602 0.0
C401 C 0.55781 0.54764 0.65529 0.0
C402 C 0.559 0.54289 0.69745 0.0
C403 C 0.51674 0.50226 0.71625 0.0
C404 C 0.52552 0.49138 0.75584 0.0
C405 C 0.48224 0.4506 0.77397 0.0
C406 C 0.43258 0.421 0.7535 0.0
C407 C 0.42465 0.43122 0.71474 0.0
C408 C 0.46609 0.47134 0.69617 0.0
H409 H 0.55149 0.58697 0.83454 0.0
C410 C 0.56981 0.5456 0.84391 0.0
H411 H 0.59897 0.46478 0.82592 0.0
H412 H 0.64053 0.63009 0.67103 0.0
H413 H 0.72773 0.68076 0.70677 0.0
H414 H 0.74856 0.65759 0.77449 0.0
H415 H 0.68171 0.58437 0.80697 0.0
C416 C 0.58669 0.50806 0.8176 0.0
C417 C 0.57678 0.52117 0.77645 0.0
C418 C 0.61779 0.56308 0.75778 0.0
C419 C 0.60777 0.57481 0.7184 0.0
C420 C 0.64765 0.61822 0.70063 0.0
C421 C 0.69758 0.64783 0.72085 0.0
C422 C 0.70914 0.63492 0.759 0.0
C423 C 0.67002 0.593 0.77738 0.0
H424 H 0.64559 0.57726 0.37427 0.0
C425 C 0.59057 0.57006 0.37502 0.0
H426 H 0.50201 0.54745 0.34381 0.0
H427 H 0.67239 0.63882 0.19624 0.0
H428 H 0.66605 0.73208 0.22333 0.0
H429 H 0.62508 0.74371 0.2887 0.0
H430 H 0.59052 0.66211 0.32737 0.0
C431 C 0.55638 0.55762 0.34305 0.0
C432 C 0.59161 0.55092 0.30643 0.0
C433 C 0.61245 0.59916 0.28457 0.0
C434 C 0.63541 0.59249 0.24681 0.0
C435 C 0.65446 0.64138 0.2251 0.0
C436 C 0.65108 0.69521 0.2403 0.0
C437 C 0.62807 0.70175 0.2771 0.0
C438 C 0.60857 0.65449 0.29905 0.0
H439 H 0.54162 0.50509 0.18262 0.0
C440 C 0.58783 0.51982 0.16823 0.0
H441 H 0.69087 0.54681 0.17646 0.0
H442 H 0.56573 0.44947 0.34311 0.0
H443 H 0.57748 0.35582 0.31687 0.0
H444 H 0.61743 0.34452 0.25125 0.0
H445 H 0.64577 0.427 0.21143 0.0
C446 C 0.64327 0.53272 0.18938 0.0
C447 C 0.63609 0.5378 0.23102 0.0
C448 C 0.62105 0.48934 0.25398 0.0
C449 C 0.59847 0.49591 0.29177 0.0
C450 C 0.5827 0.44684 0.31406 0.0
C451 C 0.58948 0.39289 0.2994 0.0
C452 C 0.61193 0.38652 0.26244 0.0
C453 C 0.62763 0.43408 0.23985 0.0
loop_
_geom_bond_atom_site_label_1
_geom_bond_atom_site_label_2
_geom_bond_distance
_geom_bond_site_symmetry_2
_ccdc_geom_bond_type
O0 Mg1 1.990 . S
O0 C14 1.253 . S
Mg1 O0 1.990 . S
Mg1 O4 2.180 . S
Mg1 O5 2.117 . S
Mg1 O19 2.030 1_545 S
O2 Mg3 2.072 1_554 S
O2 C14 1.260 . S
Mg3 O2 2.072 1_556 S
Mg3 O4 2.099 1_556 S
Mg3 O6 2.079 . S
Mg3 O7 2.072 1_556 S
Mg3 O9 2.099 1_445 S
Mg3 O20 2.079 1_545 S
O4 Mg1 2.180 . S
O4 Mg3 2.099 1_554 S
O4 C15 1.279 . S
O5 Mg1 2.117 . S
O5 C15 1.250 . S
O6 Mg3 2.079 . S
O6 C16 1.264 . S
O7 Mg3 2.072 1_554 S
O7 C17 1.260 1_454 S
Mg8 O9 2.180 1_545 S
Mg8 O10 2.030 . S
Mg8 O11 1.990 . S
Mg8 O12 2.117 1_545 S
O9 Mg3 2.099 1_665 S
O9 Mg8 2.180 1_565 S
O9 C18 1.279 1_556 S
O10 Mg8 2.030 . S
O10 C16 1.248 1_655 S
O11 Mg8 1.990 . S
O11 C17 1.253 . S
O12 Mg8 2.117 1_565 S
O12 C18 1.250 1_556 S
C13 O19 1.248 . S
C13 O20 1.264 1_554 S
C14 O0 1.253 . S
C14 O2 1.260 . S
C15 O4 1.279 . S
C15 O5 1.250 . S
C16 O6 1.264 . S
C16 O10 1.248 1_455 S
C17 O7 1.260 1_656 S
C17 O11 1.253 . S
C18 O9 1.279 1_554 S
C18 O12 1.250 1_554 S
O19 Mg1 2.030 1_565 S
O19 C13 1.248 . S
O20 Mg3 2.079 1_565 S
O20 C13 1.264 1_556 S
O21 Mg22 1.990 . S
O21 C35 1.253 . S
Mg22 O21 1.990 . S
Mg22 O25 2.180 . S
Mg22 O26 2.117 . S
Mg22 O40 2.030 . S
O23 Mg24 2.072 . S
O23 C35 1.260 . S
Mg24 O23 2.072 . S
Mg24 O25 2.099 . S
Mg24 O27 2.079 . S
Mg24 O28 2.072 . S
Mg24 O30 2.099 . S
Mg24 O41 2.079 . S
O25 Mg22 2.180 . S
O25 Mg24 2.099 . S
O25 C36 1.279 . S
O26 Mg22 2.117 . S
O26 C36 1.250 . S
O27 Mg24 2.079 . S
O27 C37 1.264 . S
O28 Mg24 2.072 . S
O28 C38 1.260 . S
Mg29 O30 2.180 . S
Mg29 O31 2.030 . S
Mg29 O32 1.990 . S
Mg29 O33 2.117 . S
O30 Mg24 2.099 . S
O30 Mg29 2.180 . S
O30 C39 1.279 . S
O31 Mg29 2.030 . S
O31 C37 1.248 . S
O32 Mg29 1.990 . S
O32 C38 1.253 . S
O33 Mg29 2.117 . S
O33 C39 1.250 . S
C34 O40 1.248 . S
C34 O41 1.264 . S
C35 O21 1.253 . S
C35 O23 1.260 . S
C36 O25 1.279 . S
C36 O26 1.250 . S
C37 O27 1.264 . S
C37 O31 1.248 . S
C38 O28 1.260 . S
C38 O32 1.253 . S
C39 O30 1.279 . S
C39 O33 1.250 . S
O40 Mg22 2.030 . S
O40 C34 1.248 . S
O41 Mg24 2.079 . S
O41 C34 1.264 . S
H42 C49 0.929 . S
H43 C52 0.930 1_655 S
H44 C54 0.929 . S
H45 C46 0.969 . S
C46 H45 0.969 . S
C46 O47 1.550 1_655 S
C46 H48 0.973 . S
O47 C46 1.550 1_455 S
O47 C53 1.412 . S
H48 C46 0.973 . S
C49 H42 0.929 . S
C49 C50 1.400 . S
C49 C51 1.364 . S
C50 C49 1.400 . S
C50 C54 1.377 . S
C51 C49 1.364 . S
C51 C52 1.374 1_565 S
C52 H43 0.930 1_455 S
C52 C51 1.374 1_545 S
C52 C53 1.383 . S
C53 O47 1.412 . S
C53 C52 1.383 . S
C53 C54 1.394 1_545 S
C54 H44 0.929 . S
C54 C50 1.377 . S
C54 C53 1.394 1_565 S
H55 C62 0.929 . S
H56 C65 0.930 . S
H57 C67 0.929 . S
H58 C59 0.969 . S
C59 H58 0.969 . S
C59 O60 1.550 . S
C59 H61 0.973 1_545 S
O60 C59 1.550 . S
O60 C66 1.412 . S
H61 C59 0.973 1_565 S
C62 H55 0.929 . S
C62 C63 1.400 . S
C62 C64 1.364 . S
C63 C62 1.400 . S
C63 C67 1.377 . S
C64 C62 1.364 . S
C64 C65 1.374 1_455 S
C65 H56 0.930 . S
C65 C64 1.374 1_655 S
C65 C66 1.383 . S
C66 O60 1.412 . S
C66 C65 1.383 . S
C66 C67 1.394 1_655 S
C67 H57 0.929 . S
C67 C63 1.377 . S
C67 C66 1.394 1_455 S
H68 C75 0.929 . S
H69 C78 0.930 . S
H70 C80 0.929 . S
H71 C72 0.969 . S
C72 H71 0.969 . S
C72 O73 1.550 . S
C72 H74 0.973 . S
O73 C72 1.550 . S
O73 C79 1.412 . S
H74 C72 0.973 . S
C75 H68 0.929 . S
C75 C76 1.400 . S
C75 C77 1.364 . S
C76 C75 1.400 . S
C76 C80 1.377 . S
C77 C75 1.364 . S
C77 C78 1.374 . S
C78 H69 0.930 . S
C78 C77 1.374 . S
C78 C79 1.383 . S
C79 O73 1.412 . S
C79 C78 1.383 . S
C79 C80 1.394 . S
C80 H70 0.929 . S
C80 C76 1.377 . S
C80 C79 1.394 . S
H81 C88 0.929 . S
H82 C91 0.930 . S
H83 C93 0.929 . S
H84 C85 0.969 . S
C85 H84 0.969 . S
C85 O86 1.550 . S
C85 H87 0.973 . S
O86 C85 1.550 . S
O86 C92 1.412 . S
H87 C85 0.973 . S
C88 H81 0.929 . S
C88 C89 1.400 . S
C88 C90 1.364 . S
C89 C88 1.400 . S
C89 C93 1.377 . S
C90 C88 1.364 . S
C90 C91 1.374 . S
C91 H82 0.930 . S
C91 C90 1.374 . S
C91 C92 1.383 . S
C92 O86 1.412 . S
C92 C91 1.383 . S
C92 C93 1.394 . S
C93 H83 0.929 . S
C93 C89 1.377 . S
C93 C92 1.394 . S
H94 C95 0.948 1_556 S
C95 H94 0.948 1_554 S
C95 C101 1.265 . S
H96 C101 0.950 . S
H97 C105 0.949 . S
H98 C106 0.950 . S
H99 C107 0.951 . S
H100 C108 0.951 . S
C101 C95 1.265 . S
C101 H96 0.950 . S
C101 C102 1.478 . S
C102 C101 1.478 . S
C102 C103 1.397 . S
C102 C119 1.394 1_554 S
C103 C102 1.397 . S
C103 C104 1.438 . S
C103 C108 1.429 . S
C104 C103 1.438 . S
C104 C105 1.428 . S
C104 C117 1.394 . S
C105 H97 0.949 . S
C105 C104 1.428 . S
C105 C106 1.345 . S
C106 H98 0.950 . S
C106 C105 1.345 . S
C106 C107 1.424 . S
C107 H99 0.951 . S
C107 C106 1.424 . S
C107 C108 1.347 . S
C108 H100 0.951 . S
C108 C103 1.429 . S
C108 C107 1.347 . S
H109 C110 0.951 . S
C110 H109 0.951 . S
C110 C116 1.265 . S
H111 C116 0.950 . S
H112 C120 0.949 . S
H113 C121 0.950 . S
H114 C122 0.951 . S
H115 C123 0.951 . S
C116 C110 1.265 . S
C116 H111 0.950 . S
C116 C117 1.478 . S
C117 C104 1.394 . S
C117 C116 1.478 . S
C117 C118 1.397 1_554 S
C118 C117 1.397 1_556 S
C118 C119 1.438 . S
C118 C123 1.429 . S
C119 C102 1.394 1_556 S
C119 C118 1.438 . S
C119 C120 1.428 . S
C120 H112 0.949 . S
C120 C119 1.428 . S
C120 C121 1.345 . S
C121 H113 0.950 . S
C121 C120 1.345 . S
C121 C122 1.424 . S
C122 H114 0.951 . S
C122 C121 1.424 . S
C122 C123 1.347 . S
C123 H115 0.951 . S
C123 C118 1.429 . S
C123 C122 1.347 . S
H124 C125 0.951 . S
C125 H124 0.951 . S
C125 C131 1.265 1_554 S
H126 C131 0.950 . S
H127 C135 0.949 . S
H128 C136 0.950 . S
H129 C137 0.951 . S
H130 C138 0.951 . S
C131 C125 1.265 1_556 S
C131 H126 0.950 . S
C131 C132 1.478 . S
C132 C131 1.478 . S
C132 C133 1.397 . S
C132 C149 1.394 1_556 S
C133 C132 1.397 . S
C133 C134 1.438 . S
C133 C138 1.429 . S
C134 C133 1.438 . S
C134 C135 1.428 . S
C134 C147 1.394 . S
C135 H127 0.949 . S
C135 C134 1.428 . S
C135 C136 1.345 . S
C136 H128 0.950 . S
C136 C135 1.345 . S
C136 C137 1.424 . S
C137 H129 0.951 . S
C137 C136 1.424 . S
C137 C138 1.347 . S
C138 H130 0.951 . S
C138 C133 1.429 . S
C138 C137 1.347 . S
H139 C140 0.951 . S
C140 H139 0.951 . S
C140 C146 1.265 . S
H141 C146 0.950 1_554 S
H142 C150 0.949 . S
H143 C151 0.950 . S
H144 C152 0.951 . S
H145 C153 0.951 . S
C146 C140 1.265 . S
C146 H141 0.950 1_556 S
C146 C147 1.478 . S
C147 C134 1.394 . S
C147 C146 1.478 . S
C147 C148 1.397 1_556 S
C148 C147 1.397 1_554 S
C148 C149 1.438 . S
C148 C153 1.429 . S
C149 C132 1.394 1_554 S
C149 C148 1.438 . S
C149 C150 1.428 . S
C150 H142 0.949 . S
C150 C149 1.428 . S
C150 C151 1.345 . S
C151 H143 0.950 . S
C151 C150 1.345 . S
C151 C152 1.424 . S
C152 H144 0.951 . S
C152 C151 1.424 . S
C152 C153 1.347 . S
C153 H145 0.951 . S
C153 C148 1.429 . S
C153 C152 1.347 . S
H154 C155 0.951 . S
C155 H154 0.951 . S
C155 C161 1.265 . S
H156 C161 0.950 . S
H157 C165 0.949 . S
H158 C166 0.950 . S
H159 C167 0.951 . S
H160 C168 0.951 . S
C161 C155 1.265 . S
C161 H156 0.950 . S
C161 C162 1.478 . S
C162 C161 1.478 . S
C162 C163 1.376 1_554 S
C162 C179 1.394 . S
C163 C162 1.376 1_556 S
C163 C164 1.435 1_556 S
C163 C168 1.453 . S
C164 C163 1.435 1_554 S
C164 C165 1.428 1_554 S
C164 C177 1.394 . S
C165 H157 0.949 . S
C165 C164 1.428 1_556 S
C165 C166 1.345 . S
C166 H158 0.950 . S
C166 C165 1.345 . S
C166 C167 1.424 . S
C167 H159 0.951 . S
C167 C166 1.424 . S
C167 C168 1.347 . S
C168 H160 0.951 . S
C168 C163 1.453 . S
C168 C167 1.347 . S
H169 C170 0.951 . S
C170 H169 0.951 . S
C170 C176 1.265 . S
H171 C176 0.950 . S
H172 C180 0.949 . S
H173 C181 0.950 . S
H174 C182 0.951 . S
H175 C183 0.951 . S
C176 C170 1.265 . S
C176 H171 0.950 . S
C176 C177 1.478 . S
C177 C164 1.394 . S
C177 C176 1.478 . S
C177 C178 1.397 . S
C178 C177 1.397 . S
C178 C179 1.438 . S
C178 C183 1.429 . S
C179 C162 1.394 . S
C179 C178 1.438 . S
C179 C180 1.428 . S
C180 H172 0.949 . S
C180 C179 1.428 . S
C180 C181 1.345 . S
C181 H173 0.950 . S
C181 C180 1.345 . S
C181 C182 1.424 . S
C182 H174 0.951 . S
C182 C181 1.424 . S
C182 C183 1.347 . S
C183 H175 0.951 . S
C183 C178 1.429 . S
C183 C182 1.347 . S
H184 C185 0.951 . S
C185 H184 0.951 . S
C185 C191 1.265 . S
H186 C191 0.950 . S
H187 C195 0.949 . S
H188 C196 0.950 . S
H189 C197 0.951 . S
H190 C198 0.951 . S
C191 C185 1.265 . S
C191 H186 0.950 . S
C191 C192 1.478 . S
C192 C191 1.478 . S
C192 C193 1.397 1_556 S
C192 C209 1.394 . S
C193 C192 1.397 1_554 S
C193 C194 1.438 . S
C193 C198 1.429 . S
C194 C193 1.438 . S
C194 C195 1.428 . S
C194 C207 1.394 1_554 S
C195 H187 0.949 . S
C195 C194 1.428 . S
C195 C196 1.345 . S
C196 H188 0.950 . S
C196 C195 1.345 . S
C196 C197 1.424 . S
C197 H189 0.951 . S
C197 C196 1.424 . S
C197 C198 1.347 . S
C198 H190 0.951 . S
C198 C193 1.429 . S
C198 C197 1.347 . S
H199 C200 0.951 . S
C200 H199 0.951 . S
C200 C206 1.265 . S
H201 C206 0.950 . S
H202 C210 0.949 . S
H203 C211 0.950 . S
H204 C212 0.951 . S
H205 C213 0.951 . S
C206 C200 1.265 . S
C206 H201 0.950 . S
C206 C207 1.478 . S
C207 C194 1.394 1_556 S
C207 C206 1.478 . S
C207 C208 1.397 . S
C208 C207 1.397 . S
C208 C209 1.438 . S
C208 C213 1.429 . S
C209 C192 1.394 . S
C209 C208 1.438 . S
C209 C210 1.428 . S
C210 H202 0.949 . S
C210 C209 1.428 . S
C210 C211 1.345 . S
C211 H203 0.950 . S
C211 C210 1.345 . S
C211 C212 1.424 . S
C212 H204 0.951 . S
C212 C211 1.424 . S
C212 C213 1.347 . S
C213 H205 0.951 . S
C213 C208 1.429 . S
C213 C212 1.347 . S
H214 C215 0.951 . S
C215 H214 0.951 . S
C215 C221 1.265 . S
H216 C221 0.950 . S
H217 C225 0.949 . S
H218 C226 0.950 . S
H219 C227 0.951 . S
H220 C228 0.951 . S
C221 C215 1.265 . S
C221 H216 0.950 . S
C221 C222 1.478 . S
C222 C221 1.478 . S
C222 C223 1.397 . S
C222 C239 1.394 . S
C223 C222 1.397 . S
C223 C224 1.438 . S
C223 C228 1.429 . S
C224 C223 1.438 . S
C224 C225 1.428 . S
C224 C237 1.394 . S
C225 H217 0.949 . S
C225 C224 1.428 . S
C225 C226 1.345 . S
C226 H218 0.950 . S
C226 C225 1.345 . S
C226 C227 1.424 . S
C227 H219 0.951 . S
C227 C226 1.424 . S
C227 C228 1.347 . S
C228 H220 0.951 . S
C228 C223 1.429 . S
C228 C227 1.347 . S
H229 C230 0.951 . S
C230 H229 0.951 . S
C230 C236 1.265 . S
H231 C236 0.950 . S
H232 C240 0.949 . S
H233 C241 0.950 . S
H234 C242 0.951 . S
H235 C243 0.951 . S
C236 C230 1.265 . S
C236 H231 0.950 . S
C236 C237 1.478 . S
C237 C224 1.394 . S
C237 C236 1.478 . S
C237 C238 1.397 . S
C238 C237 1.397 . S
C238 C239 1.438 . S
C238 C243 1.429 . S
C239 C222 1.394 . S
C239 C238 1.438 . S
C239 C240 1.428 . S
C240 H232 0.949 . S
C240 C239 1.428 . S
C240 C241 1.345 . S
C241 H233 0.950 . S
C241 C240 1.345 . S
C241 C242 1.424 . S
C242 H234 0.951 . S
C242 C241 1.424 . S
C242 C243 1.347 . S
C243 H235 0.951 . S
C243 C238 1.429 . S
C243 C242 1.347 . S
H244 C245 0.951 . S
C245 H244 0.951 . S
C245 C251 1.265 . S
H246 C251 0.950 . S
H247 C255 0.949 . S
H248 C256 0.950 . S
H249 C257 0.951 . S
H250 C258 0.951 . S
C251 C245 1.265 . S
C251 H246 0.950 . S
C251 C252 1.478 . S
C252 C251 1.478 . S
C252 C253 1.397 . S
C252 C269 1.394 . S
C253 C252 1.397 . S
C253 C254 1.438 . S
C253 C258 1.429 . S
C254 C253 1.438 . S
C254 C255 1.428 . S
C254 C267 1.394 . S
C255 H247 0.949 . S
C255 C254 1.428 . S
C255 C256 1.345 . S
C256 H248 0.950 . S
C256 C255 1.345 . S
C256 C257 1.424 . S
C257 H249 0.951 . S
C257 C256 1.424 . S
C257 C258 1.347 . S
C258 H250 0.951 . S
C258 C253 1.429 . S
C258 C257 1.347 . S
H259 C260 0.951 . S
C260 H259 0.951 . S
C260 C266 1.265 . S
H261 C266 0.950 . S
H262 C270 0.949 . S
H263 C271 0.950 . S
H264 C272 0.951 . S
H265 C273 0.951 . S
C266 C260 1.265 . S
C266 H261 0.950 . S
C266 C267 1.478 . S
C267 C254 1.394 . S
C267 C266 1.478 . S
C267 C268 1.397 . S
C268 C267 1.397 . S
C268 C269 1.438 . S
C268 C273 1.429 . S
C269 C252 1.394 . S
C269 C268 1.438 . S
C269 C270 1.428 . S
C270 H262 0.949 . S
C270 C269 1.428 . S
C270 C271 1.345 . S
C271 H263 0.950 . S
C271 C270 1.345 . S
C271 C272 1.424 . S
C272 H264 0.951 . S
C272 C271 1.424 . S
C272 C273 1.347 . S
C273 H265 0.951 . S
C273 C268 1.429 . S
C273 C272 1.347 . S
H274 C275 0.951 . S
C275 H274 0.951 . S
C275 C281 1.265 . S
H276 C281 0.950 . S
H277 C285 0.949 . S
H278 C286 0.950 . S
H279 C287 0.951 . S
H280 C288 0.951 . S
C281 C275 1.265 . S
C281 H276 0.950 . S
C281 C282 1.478 . S
C282 C281 1.478 . S
C282 C283 1.397 . S
C282 C299 1.394 . S
C283 C282 1.397 . S
C283 C284 1.438 . S
C283 C288 1.429 . S
C284 C283 1.438 . S
C284 C285 1.428 . S
C284 C297 1.394 . S
C285 H277 0.949 . S
C285 C284 1.428 . S
C285 C286 1.345 . S
C286 H278 0.950 . S
C286 C285 1.345 . S
C286 C287 1.424 . S
C287 H279 0.951 . S
C287 C286 1.424 . S
C287 C288 1.347 . S
C288 H280 0.951 . S
C288 C283 1.429 . S
C288 C287 1.347 . S
H289 C290 0.951 . S
C290 H289 0.951 . S
C290 C296 1.265 . S
H291 C296 0.950 . S
H292 C300 0.949 . S
H293 C301 0.950 . S
H294 C302 0.951 . S
H295 C303 0.951 . S
C296 C290 1.265 . S
C296 H291 0.950 . S
C296 C297 1.478 . S
C297 C284 1.394 . S
C297 C296 1.478 . S
C297 C298 1.397 . S
C298 C297 1.397 . S
C298 C299 1.438 . S
C298 C303 1.429 . S
C299 C282 1.394 . S
C299 C298 1.438 . S
C299 C300 1.428 . S
C300 H292 0.949 . S
C300 C299 1.428 . S
C300 C301 1.345 . S
C301 H293 0.950 . S
C301 C300 1.345 . S
C301 C302 1.424 . S
C302 H294 0.951 . S
C302 C301 1.424 . S
C302 C303 1.347 . S
C303 H295 0.951 . S
C303 C298 1.429 . S
C303 C302 1.347 . S
H304 C305 0.951 . S
C305 H304 0.951 . S
C305 C311 1.265 . S
H306 C311 0.950 . S
H307 C315 0.949 . S
H308 C316 0.950 . S
H309 C317 0.951 . S
H310 C318 0.951 . S
C311 C305 1.265 . S
C311 H306 0.950 . S
C311 C312 1.478 . S
C312 C311 1.478 . S
C312 C313 1.397 . S
C312 C329 1.394 . S
C313 C312 1.397 . S
C313 C314 1.438 . S
C313 C318 1.429 . S
C314 C313 1.438 . S
C314 C315 1.428 . S
C314 C327 1.394 . S
C315 H307 0.949 . S
C315 C314 1.428 . S
C315 C316 1.345 . S
C316 H308 0.950 . S
C316 C315 1.345 . S
C316 C317 1.424 . S
C317 H309 0.951 . S
C317 C316 1.424 . S
C317 C318 1.347 . S
C318 H310 0.951 . S
C318 C313 1.429 . S
C318 C317 1.347 . S
H319 C320 0.951 . S
C320 H319 0.951 . S
C320 C326 1.265 . S
H321 C326 0.950 . S
H322 C330 0.949 . S
H323 C331 0.950 . S
H324 C332 0.951 . S
H325 C333 0.951 . S
C326 C320 1.265 . S
C326 H321 0.950 . S
C326 C327 1.478 . S
C327 C314 1.394 . S
C327 C326 1.478 . S
C327 C328 1.397 . S
C328 C327 1.397 . S
C328 C329 1.438 . S
C328 C333 1.429 . S
C329 C312 1.394 . S
C329 C328 1.438 . S
C329 C330 1.428 . S
C330 H322 0.949 . S
C330 C329 1.428 . S
C330 C331 1.345 . S
C331 H323 0.950 . S
C331 C330 1.345 . S
C331 C332 1.424 . S
C332 H324 0.951 . S
C332 C331 1.424 . S
C332 C333 1.347 . S
C333 H325 0.951 . S
C333 C328 1.429 . S
C333 C332 1.347 . S
H334 C335 0.951 . S
C335 H334 0.951 . S
C335 C341 1.265 . S
H336 C341 0.948 1_665 S
H337 C345 0.949 . S
H338 C346 0.950 . S
H339 C347 0.951 . S
H340 C348 0.950 1_655 S
C341 C335 1.265 . S
C341 H336 0.948 1_445 S
C341 C342 1.478 . S
C342 C341 1.478 . S
C342 C343 1.397 1_545 S
C342 C359 1.394 . S
C343 C342 1.397 1_565 S
C343 C344 1.438 . S
C343 C348 1.431 . S
C344 C343 1.438 . S
C344 C345 1.428 . S
C344 C357 1.394 . S
C345 H337 0.949 . S
C345 C344 1.428 . S
C345 C346 1.345 1_455 S
C346 H338 0.950 . S
C346 C345 1.345 1_655 S
C346 C347 1.424 . S
C347 H339 0.951 . S
C347 C346 1.424 . S
C347 C348 1.345 1_655 S
C348 H340 0.950 1_455 S
C348 C343 1.431 . S
C348 C347 1.345 1_455 S
H349 C350 0.951 . S
C350 H349 0.951 . S
C350 C356 1.265 . S
H351 C356 0.950 1_545 S
H352 C360 0.949 . S
H353 C361 0.950 . S
H354 C362 0.951 . S
H355 C363 0.951 . S
C356 C350 1.265 . S
C356 H351 0.950 1_565 S
C356 C357 1.478 . S
C357 C344 1.394 . S
C357 C356 1.478 . S
C357 C358 1.397 1_565 S
C358 C357 1.397 1_545 S
C358 C359 1.438 . S
C358 C363 1.429 . S
C359 C342 1.394 . S
C359 C358 1.438 . S
C359 C360 1.428 . S
C360 H352 0.949 . S
C360 C359 1.428 . S
C360 C361 1.345 . S
C361 H353 0.950 . S
C361 C360 1.345 . S
C361 C362 1.424 . S
C362 H354 0.951 . S
C362 C361 1.424 . S
C362 C363 1.347 . S
C363 H355 0.951 . S
C363 C358 1.429 . S
C363 C362 1.347 . S
H364 C365 0.951 . S
C365 H364 0.951 . S
C365 C371 1.265 . S
H366 C371 0.950 1_655 S
H367 C375 0.949 . S
H368 C376 0.950 . S
H369 C377 0.951 . S
H370 C378 0.951 . S
C371 C365 1.265 . S
C371 H366 0.950 1_455 S
C371 C372 1.478 . S
C372 C371 1.478 . S
C372 C373 1.397 . S
C372 C389 1.394 . S
C373 C372 1.397 . S
C373 C374 1.438 . S
C373 C378 1.429 1_455 S
C374 C373 1.438 . S
C374 C375 1.428 . S
C374 C387 1.394 . S
C375 H367 0.949 . S
C375 C374 1.428 . S
C375 C376 1.345 1_455 S
C376 H368 0.950 . S
C376 C375 1.345 1_655 S
C376 C377 1.424 . S
C377 H369 0.951 . S
C377 C376 1.424 . S
C377 C378 1.347 . S
C378 H370 0.951 . S
C378 C373 1.429 1_655 S
C378 C377 1.347 . S
H379 C380 0.951 1_655 S
C380 H379 0.951 1_455 S
C380 C386 1.265 . S
H381 C386 0.950 . S
H382 C390 0.949 . S
H383 C391 0.950 . S
H384 C392 0.951 . S
H385 C393 0.951 . S
C386 C380 1.265 . S
C386 H381 0.950 . S
C386 C387 1.478 . S
C387 C374 1.394 . S
C387 C386 1.478 . S
C387 C388 1.397 . S
C388 C387 1.397 . S
C388 C389 1.438 . S
C388 C393 1.429 1_545 S
C389 C372 1.394 . S
C389 C388 1.438 . S
C389 C390 1.428 1_545 S
C390 H382 0.949 . S
C390 C389 1.428 1_565 S
C390 C391 1.345 . S
C391 H383 0.950 . S
C391 C390 1.345 . S
C391 C392 1.424 . S
C392 H384 0.951 . S
C392 C391 1.424 . S
C392 C393 1.347 . S
C393 H385 0.951 . S
C393 C388 1.429 1_565 S
C393 C392 1.347 . S
H394 C395 0.951 . S
C395 H394 0.951 . S
C395 C401 1.265 . S
H396 C401 0.950 . S
H397 C405 0.949 . S
H398 C406 0.950 . S
H399 C407 0.951 . S
H400 C408 0.951 . S
C401 C395 1.265 . S
C401 H396 0.950 . S
C401 C402 1.478 . S
C402 C401 1.478 . S
C402 C403 1.397 . S
C402 C419 1.394 . S
C403 C402 1.397 . S
C403 C404 1.438 . S
C403 C408 1.429 . S
C404 C403 1.438 . S
C404 C405 1.428 . S
C404 C417 1.394 . S
C405 H397 0.949 . S
C405 C404 1.428 . S
C405 C406 1.345 . S
C406 H398 0.950 . S
C406 C405 1.345 . S
C406 C407 1.424 . S
C407 H399 0.951 . S
C407 C406 1.424 . S
C407 C408 1.347 . S
C408 H400 0.951 . S
C408 C403 1.429 . S
C408 C407 1.347 . S
H409 C410 0.951 . S
C410 H409 0.951 . S
C410 C416 1.265 . S
H411 C416 0.950 . S
H412 C420 0.949 . S
H413 C421 0.950 . S
H414 C422 0.951 . S
H415 C423 0.951 . S
C416 C410 1.265 . S
C416 H411 0.950 . S
C416 C417 1.478 . S
C417 C404 1.394 . S
C417 C416 1.478 . S
C417 C418 1.397 . S
C418 C417 1.397 . S
C418 C419 1.438 . S
C418 C423 1.429 . S
C419 C402 1.394 . S
C419 C418 1.438 . S
C419 C420 1.428 . S
C420 H412 0.949 . S
C420 C419 1.428 . S
C420 C421 1.345 . S
C421 H413 0.950 . S
C421 C420 1.345 . S
C421 C422 1.424 . S
C422 H414 0.951 . S
C422 C421 1.424 . S
C422 C423 1.347 . S
C423 H415 0.951 . S
C423 C418 1.429 . S
C423 C422 1.347 . S
H424 C425 0.951 . S
C425 H424 0.951 . S
C425 C431 1.265 . S
H426 C431 0.950 . S
H427 C435 0.949 . S
H428 C436 0.950 . S
H429 C437 0.951 . S
H430 C438 0.951 . S
C431 C425 1.265 . S
C431 H426 0.950 . S
C431 C432 1.478 . S
C432 C431 1.478 . S
C432 C433 1.397 . S
C432 C449 1.394 . S
C433 C432 1.397 . S
C433 C434 1.438 . S
C433 C438 1.429 . S
C434 C433 1.438 . S
C434 C435 1.428 . S
C434 C447 1.394 . S
C435 H427 0.949 . S
C435 C434 1.428 . S
C435 C436 1.345 . S
C436 H428 0.950 . S
C436 C435 1.345 . S
C436 C437 1.424 . S
C437 H429 0.951 . S
C437 C436 1.424 . S
C437 C438 1.347 . S
C438 H430 0.951 . S
C438 C433 1.429 . S
C438 C437 1.347 . S
H439 C440 0.951 . S
C440 H439 0.951 . S
C440 C446 1.265 . S
H441 C446 0.950 . S
H442 C450 0.949 . S
H443 C451 0.950 . S
H444 C452 0.951 . S
H445 C453 0.951 . S
C446 C440 1.265 . S
C446 H441 0.950 . S
C446 C447 1.478 . S
C447 C434 1.394 . S
C447 C446 1.478 . S
C447 C448 1.397 . S
C448 C447 1.397 . S
C448 C449 1.438 . S
C448 C453 1.429 . S
C449 C432 1.394 . S
C449 C448 1.438 . S
C449 C450 1.428 . S
C450 H442 0.949 . S
C450 C449 1.428 . S
C450 C451 1.345 . S
C451 H443 0.950 . S
C451 C450 1.345 . S
C451 C452 1.424 . S
C452 H444 0.951 . S
C452 C451 1.424 . S
C452 C453 1.347 . S
C453 H445 0.951 . S
C453 C448 1.429 . S
C453 C452 1.347 . S
C110 C85 1.275 . S
C95 C15 1.188 . S
C125 C13 1.410 . S
C140 C72 1.288 . S
C155 C18 1.389 . S
C170 C89 1.539 . S
C185 C17 1.456 . S
C200 C76 1.474 . S
C215 C36 1.180 . S
C230 C59 1.282 1_565 S
C245 C34 1.465 . S
C260 C46 1.354 . S
C290 C63 1.543 . S
C275 C39 1.319 . S
C320 C50 1.489 . S
C305 C38 1.379 . S
C335 C14 1.509 . S
C350 C51 1.612 . S
C365 C16 1.451 . S
C380 C64 1.471 . S
C410 C77 1.613 . S
C395 C35 1.513 . S
C425 C37 1.446 . S
C440 C90 1.470 . S
