# Generated by pormake.
# Topology eea, (3,6)-cn, num edge types: 1
# Building blocks:
#     Node 0, Type 0, BuildingBlock: BETDAH_clean_linker_0, # of connection points: 3
#     Node 1, Type 0, BuildingBlock: BETDAH_clean_linker_0, # of connection points: 3
#     Node 2, Type 0, BuildingBlock: BETDAH_clean_linker_0, # of connection points: 3
#     Node 3, Type 0, BuildingBlock: BETDAH_clean_linker_0, # of connection points: 3
#     Node 4, Type 0, BuildingBlock: BETDAH_clean_linker_0, # of connection points: 3
#     Node 5, Type 0, BuildingBlock: BETDAH_clean_linker_0, # of connection points: 3
#     Node 6, Type 0, BuildingBlock: BETDAH_clean_linker_0, # of connection points: 3
#     Node 7, Type 0, BuildingBlock: BETDAH_clean_linker_0, # of connection points: 3
#     Node 8, Type 0, BuildingBlock: BETDAH_clean_linker_0, # of connection points: 3
#     Node 9, Type 0, BuildingBlock: BETDAH_clean_linker_0, # of connection points: 3
#     Node 10, Type 0, BuildingBlock: BETDAH_clean_linker_0, # of connection points: 3
#     Node 11, Type 0, BuildingBlock: BETDAH_clean_linker_0, # of connection points: 3
#     Node 12, Type 0, BuildingBlock: BETDAH_clean_linker_0, # of connection points: 3
#     Node 13, Type 0, BuildingBlock: BETDAH_clean_linker_0, # of connection points: 3
#     Node 14, Type 0, BuildingBlock: BETDAH_clean_linker_0, # of connection points: 3
#     Node 15, Type 0, BuildingBlock: BETDAH_clean_linker_0, # of connection points: 3
#     Node 16, Type 0, BuildingBlock: BETDAH_clean_linker_0, # of connection points: 3
#     Node 17, Type 0, BuildingBlock: BETDAH_clean_linker_0, # of connection points: 3
#     Node 18, Type 1, BuildingBlock: CUKXOW_clean_sbu_0, # of connection points: 6
#     Node 19, Type 1, BuildingBlock: CUKXOW_clean_sbu_0, # of connection points: 6
#     Node 20, Type 1, BuildingBlock: CUKXOW_clean_sbu_0, # of connection points: 6
#     Node 21, Type 1, BuildingBlock: CUKXOW_clean_sbu_0, # of connection points: 6
#     Node 22, Type 1, BuildingBlock: CUKXOW_clean_sbu_0, # of connection points: 6
#     Node 23, Type 1, BuildingBlock: CUKXOW_clean_sbu_0, # of connection points: 6
#     Node 24, Type 1, BuildingBlock: CUKXOW_clean_sbu_0, # of connection points: 6
#     Node 25, Type 1, BuildingBlock: CUKXOW_clean_sbu_0, # of connection points: 6
#     Node 26, Type 1, BuildingBlock: CUKXOW_clean_sbu_0, # of connection points: 6
#     Edge 27, Type (0, 1), BuildingBlock: EZIPEK_clean_linker_0, # of connection points: 2
#     Edge 28, Type (0, 1), BuildingBlock: EZIPEK_clean_linker_0, # of connection points: 2
#     Edge 29, Type (0, 1), BuildingBlock: EZIPEK_clean_linker_0, # of connection points: 2
#     Edge 30, Type (0, 1), BuildingBlock: EZIPEK_clean_linker_0, # of connection points: 2
#     Edge 31, Type (0, 1), BuildingBlock: EZIPEK_clean_linker_0, # of connection points: 2
#     Edge 32, Type (0, 1), BuildingBlock: EZIPEK_clean_linker_0, # of connection points: 2
#     Edge 33, Type (0, 1), BuildingBlock: EZIPEK_clean_linker_0, # of connection points: 2
#     Edge 34, Type (0, 1), BuildingBlock: EZIPEK_clean_linker_0, # of connection points: 2
#     Edge 35, Type (0, 1), BuildingBlock: EZIPEK_clean_linker_0, # of connection points: 2
#     Edge 36, Type (0, 1), BuildingBlock: EZIPEK_clean_linker_0, # of connection points: 2
#     Edge 37, Type (0, 1), BuildingBlock: EZIPEK_clean_linker_0, # of connection points: 2
#     Edge 38, Type (0, 1), BuildingBlock: EZIPEK_clean_linker_0, # of connection points: 2
#     Edge 39, Type (0, 1), BuildingBlock: EZIPEK_clean_linker_0, # of connection points: 2
#     Edge 40, Type (0, 1), BuildingBlock: EZIPEK_clean_linker_0, # of connection points: 2
#     Edge 41, Type (0, 1), BuildingBlock: EZIPEK_clean_linker_0, # of connection points: 2
#     Edge 42, Type (0, 1), BuildingBlock: EZIPEK_clean_linker_0, # of connection points: 2
#     Edge 43, Type (0, 1), BuildingBlock: EZIPEK_clean_linker_0, # of connection points: 2
#     Edge 44, Type (0, 1), BuildingBlock: EZIPEK_clean_linker_0, # of connection points: 2
#     Edge 45, Type (0, 1), BuildingBlock: EZIPEK_clean_linker_0, # of connection points: 2
#     Edge 46, Type (0, 1), BuildingBlock: EZIPEK_clean_linker_0, # of connection points: 2
#     Edge 47, Type (0, 1), BuildingBlock: EZIPEK_clean_linker_0, # of connection points: 2
#     Edge 48, Type (0, 1), BuildingBlock: EZIPEK_clean_linker_0, # of connection points: 2
#     Edge 49, Type (0, 1), BuildingBlock: EZIPEK_clean_linker_0, # of connection points: 2
#     Edge 50, Type (0, 1), BuildingBlock: EZIPEK_clean_linker_0, # of connection points: 2
#     Edge 51, Type (0, 1), BuildingBlock: EZIPEK_clean_linker_0, # of connection points: 2
#     Edge 52, Type (0, 1), BuildingBlock: EZIPEK_clean_linker_0, # of connection points: 2
#     Edge 53, Type (0, 1), BuildingBlock: EZIPEK_clean_linker_0, # of connection points: 2
#     Edge 54, Type (0, 1), BuildingBlock: EZIPEK_clean_linker_0, # of connection points: 2
#     Edge 55, Type (0, 1), BuildingBlock: EZIPEK_clean_linker_0, # of connection points: 2
#     Edge 56, Type (0, 1), BuildingBlock: EZIPEK_clean_linker_0, # of connection points: 2
#     Edge 57, Type (0, 1), BuildingBlock: EZIPEK_clean_linker_0, # of connection points: 2
#     Edge 58, Type (0, 1), BuildingBlock: EZIPEK_clean_linker_0, # of connection points: 2
#     Edge 59, Type (0, 1), BuildingBlock: EZIPEK_clean_linker_0, # of connection points: 2
#     Edge 60, Type (0, 1), BuildingBlock: EZIPEK_clean_linker_0, # of connection points: 2
#     Edge 61, Type (0, 1), BuildingBlock: EZIPEK_clean_linker_0, # of connection points: 2
#     Edge 62, Type (0, 1), BuildingBlock: EZIPEK_clean_linker_0, # of connection points: 2
#     Edge 63, Type (0, 1), BuildingBlock: EZIPEK_clean_linker_0, # of connection points: 2
#     Edge 64, Type (0, 1), BuildingBlock: EZIPEK_clean_linker_0, # of connection points: 2
#     Edge 65, Type (0, 1), BuildingBlock: EZIPEK_clean_linker_0, # of connection points: 2
#     Edge 66, Type (0, 1), BuildingBlock: EZIPEK_clean_linker_0, # of connection points: 2
#     Edge 67, Type (0, 1), BuildingBlock: EZIPEK_clean_linker_0, # of connection points: 2
#     Edge 68, Type (0, 1), BuildingBlock: EZIPEK_clean_linker_0, # of connection points: 2
#     Edge 69, Type (0, 1), BuildingBlock: EZIPEK_clean_linker_0, # of connection points: 2
#     Edge 70, Type (0, 1), BuildingBlock: EZIPEK_clean_linker_0, # of connection points: 2
#     Edge 71, Type (0, 1), BuildingBlock: EZIPEK_clean_linker_0, # of connection points: 2
#     Edge 72, Type (0, 1), BuildingBlock: EZIPEK_clean_linker_0, # of connection points: 2
#     Edge 73, Type (0, 1), BuildingBlock: EZIPEK_clean_linker_0, # of connection points: 2
#     Edge 74, Type (0, 1), BuildingBlock: EZIPEK_clean_linker_0, # of connection points: 2
#     Edge 75, Type (0, 1), BuildingBlock: EZIPEK_clean_linker_0, # of connection points: 2
#     Edge 76, Type (0, 1), BuildingBlock: EZIPEK_clean_linker_0, # of connection points: 2
#     Edge 77, Type (0, 1), BuildingBlock: EZIPEK_clean_linker_0, # of connection points: 2
#     Edge 78, Type (0, 1), BuildingBlock: EZIPEK_clean_linker_0, # of connection points: 2
#     Edge 79, Type (0, 1), BuildingBlock: EZIPEK_clean_linker_0, # of connection points: 2
#     Edge 80, Type (0, 1), BuildingBlock: EZIPEK_clean_linker_0, # of connection points: 2
# Relax obj value: 0.033
# Max RMSD: 0.161
# Mean RMSD: 0.086
data_MOF--net-eea--node1-CUKXOW_clean_sbu_0--node2-BETDAH_clean_linker_0--edge1-EZIPEK_clean_linker_0
_symmetry_space_group_name_H-M    P1
_symmetry_Int_Tables_number       1
_symmetry_cell_setting            triclinic
loop_
_symmetry_equiv_pos_as_xyz
'x, y, z'
_cell_length_a     44.771184
_cell_length_b     41.255849
_cell_length_c     35.32531
_cell_angle_alpha  93.760071
_cell_angle_beta   93.593145
_cell_angle_gamma 120.06384
loop_
_atom_site_label
_atom_site_type_symbol
_atom_site_fract_x
_atom_site_fract_y
_atom_site_fract_z
_atom_type_partial_charge
H0 H 0.27718 0.07894 0.46185 0.0
H1 H 0.29626 0.19157 0.45459 0.0
H2 H 0.25075 0.10909 0.35594 0.0
C3 C 0.27549 0.09953 0.44569 0.0
C4 C 0.26097 0.08903 0.40727 0.0
C5 C 0.28867 0.13657 0.46313 0.0
C6 C 0.28597 0.16289 0.44179 0.0
C7 C 0.27222 0.1529 0.40314 0.0
C8 C 0.26029 0.11627 0.38603 0.0
N9 N 0.27524 0.18073 0.37967 0.0
C10 C 0.25449 0.19696 0.38041 0.0
H11 H 0.92747 0.20852 0.45928 0.0
H12 H 0.8528 0.09225 0.47031 0.0
H13 H 0.92938 0.11921 0.39204 0.0
C14 C 0.91618 0.17864 0.45064 0.0
C15 C 0.93167 0.16683 0.42385 0.0
C16 C 0.88809 0.15202 0.46859 0.0
C17 C 0.87398 0.11325 0.4566 0.0
C18 C 0.88813 0.10163 0.42786 0.0
C19 C 0.91734 0.12843 0.41251 0.0
N20 N 0.87559 0.06316 0.4157 0.0
C21 C 0.84094 0.03488 0.4121 0.0
H22 H 0.8159 0.71533 0.47158 0.0
H23 H 0.90046 0.69691 0.45107 0.0
H24 H 0.85782 0.73487 0.36367 0.0
C25 C 0.83429 0.71545 0.45292 0.0
C26 C 0.83421 0.72654 0.41628 0.0
C27 C 0.85775 0.70426 0.46554 0.0
C28 C 0.88217 0.70536 0.4415 0.0
C29 C 0.88257 0.71707 0.40491 0.0
C30 C 0.85798 0.72661 0.39216 0.0
N31 N 0.90548 0.7165 0.37925 0.0
C32 C 0.94156 0.73807 0.38617 0.0
H33 H 0.08859 0.29714 0.56323 0.0
H34 H 0.18342 0.29642 0.59142 0.0
H35 H 0.10329 0.25532 0.66675 0.0
C36 C 0.10487 0.29179 0.5828 0.0
C37 C 0.09216 0.27532 0.61608 0.0
C38 C 0.13789 0.29967 0.57381 0.0
C39 C 0.15828 0.29105 0.59859 0.0
C40 C 0.14574 0.2752 0.63238 0.0
C41 C 0.11299 0.26786 0.64091 0.0
N42 N 0.16497 0.26638 0.65897 0.0
C43 C 0.19154 0.25955 0.65144 0.0
H44 H 0.74898 0.79966 0.56366 0.0
H45 H 0.75499 0.90734 0.58081 0.0
H46 H 0.81047 0.87803 0.66067 0.0
C47 C 0.75625 0.82556 0.58105 0.0
C48 C 0.78016 0.83548 0.61368 0.0
C49 C 0.74215 0.84854 0.5714 0.0
C50 C 0.75943 0.88581 0.59073 0.0
C51 C 0.7837 0.89612 0.6231 0.0
C52 C 0.79245 0.87022 0.63516 0.0
N53 N 0.80036 0.9322 0.64463 0.0
C54 C 0.79604 0.96251 0.63792 0.0
H55 H 0.22304 0.94384 0.57071 0.0
H56 H 0.13489 0.83389 0.578 0.0
H57 H 0.18075 0.91507 0.67765 0.0
C58 C 0.20384 0.92378 0.5872 0.0
C59 C 0.20423 0.93429 0.62598 0.0
C60 C 0.17928 0.88743 0.56964 0.0
C61 C 0.15401 0.86194 0.59111 0.0
C62 C 0.15453 0.87206 0.63002 0.0
C63 C 0.18 0.9078 0.64742 0.0
N64 N 0.13183 0.84527 0.65284 0.0
C65 C 0.09739 0.83584 0.65317 0.0
H66 H 0.94077 0.41209 0.79497 0.0
H67 H 0.9552 0.52344 0.79342 0.0
H68 H 0.91747 0.44651 0.69045 0.0
C69 C 0.93899 0.43317 0.77977 0.0
C70 C 0.92613 0.42439 0.74094 0.0
C71 C 0.95012 0.46899 0.79902 0.0
C72 C 0.94685 0.49577 0.77905 0.0
C73 C 0.93537 0.48767 0.73973 0.0
C74 C 0.92574 0.45237 0.72085 0.0
N75 N 0.93702 0.51578 0.71758 0.0
C76 C 0.91968 0.53529 0.72422 0.0
H77 H 0.615 0.54617 0.81131 0.0
H78 H 0.51271 0.45328 0.76954 0.0
H79 H 0.5963 0.48706 0.69966 0.0
C80 C 0.5974 0.52392 0.78927 0.0
C81 C 0.60965 0.51932 0.75478 0.0
C82 C 0.5622 0.50041 0.79484 0.0
C83 C 0.53982 0.47143 0.76578 0.0
C84 C 0.55237 0.46618 0.73178 0.0
C85 C 0.58694 0.49062 0.7263 0.0
N86 N 0.53077 0.43764 0.70176 0.0
C87 C 0.50339 0.40228 0.70687 0.0
H88 H 0.49361 0.07006 0.80984 0.0
H89 H 0.55441 0.01763 0.78962 0.0
H90 H 0.54679 0.08742 0.70913 0.0
C91 C 0.51089 0.06567 0.79286 0.0
C92 C 0.5178 0.08039 0.75766 0.0
C93 C 0.52424 0.04316 0.80499 0.0
C94 C 0.54493 0.03602 0.78144 0.0
C95 C 0.55479 0.05373 0.74825 0.0
C96 C 0.54107 0.07582 0.73617 0.0
N97 N 0.57654 0.04669 0.72598 0.0
C98 C 0.60809 0.07542 0.71698 0.0
H99 H 0.76049 0.63358 0.89197 0.0
H100 H 0.82616 0.58752 0.86824 0.0
H101 H 0.74374 0.53286 0.93852 0.0
C102 C 0.76813 0.61277 0.89573 0.0
C103 C 0.74899 0.58303 0.91726 0.0
C104 C 0.7955 0.61415 0.87682 0.0
C105 C 0.80526 0.58702 0.88259 0.0
C106 C 0.78722 0.55844 0.90586 0.0
C107 C 0.7587 0.55608 0.92222 0.0
N108 N 0.79494 0.52946 0.90999 0.0
C109 C 0.82689 0.53609 0.92606 0.0
H110 H 0.41839 0.13617 0.90008 0.0
H111 H 0.42586 0.24345 0.92811 0.0
H112 H 0.45947 0.19556 0.01193 0.0
C113 C 0.42304 0.15932 0.92053 0.0
C114 C 0.43977 0.16259 0.95698 0.0
C115 C 0.41236 0.1853 0.91081 0.0
C116 C 0.4266 0.21915 0.93614 0.0
C117 C 0.44265 0.22229 0.97289 0.0
C118 C 0.44751 0.19318 0.98343 0.0
N119 N 0.45392 0.25388 1.00059 0.0
C120 C 0.45855 0.28886 0.99376 0.0
H121 H 0.87765 0.27189 0.90142 0.0
H122 H 0.78673 0.16262 0.90284 0.0
H123 H 0.83192 0.23899 1.00602 0.0
C124 C 0.85741 0.2515 0.91667 0.0
C125 C 0.85722 0.2604 0.95577 0.0
C126 C 0.83243 0.21615 0.89733 0.0
C127 C 0.8059 0.19007 0.91725 0.0
C128 C 0.80545 0.19847 0.95638 0.0
C129 C 0.83151 0.23324 0.97556 0.0
N130 N 0.78287 0.16983 0.97791 0.0
C131 C 0.74858 0.16011 0.98121 0.0
H132 H 0.60144 0.73812 0.1265 0.0
H133 H 0.6229 0.85216 0.12493 0.0
H134 H 0.58473 0.77633 0.02121 0.0
C135 C 0.60139 0.76004 0.11118 0.0
C136 C 0.59018 0.75236 0.07184 0.0
C137 C 0.61366 0.79606 0.13067 0.0
C138 C 0.61323 0.82419 0.11047 0.0
C139 C 0.60263 0.81696 0.071 0.0
C140 C 0.59169 0.78133 0.05184 0.0
N141 N 0.60777 0.84666 0.04933 0.0
C142 C 0.58637 0.86207 0.04862 0.0
H143 H 0.27058 0.87152 0.14408 0.0
H144 H 0.16664 0.77943 0.10729 0.0
H145 H 0.24596 0.81185 0.03168 0.0
C146 C 0.2519 0.84938 0.12259 0.0
C147 C 0.26227 0.84435 0.08694 0.0
C148 C 0.21716 0.82643 0.1301 0.0
C149 C 0.19338 0.79727 0.10195 0.0
C150 C 0.20403 0.79163 0.06672 0.0
C151 C 0.23807 0.8158 0.05919 0.0
N152 N 0.18097 0.76304 0.03745 0.0
C153 C 0.15487 0.72728 0.04354 0.0
H154 H 0.16019 0.40529 0.1444 0.0
H155 H 0.22528 0.35787 0.12526 0.0
H156 H 0.2099 0.42035 0.0414 0.0
C157 C 0.17786 0.40164 0.12739 0.0
C158 C 0.18311 0.41502 0.09145 0.0
C159 C 0.19286 0.38079 0.14006 0.0
C160 C 0.21451 0.37502 0.11674 0.0
C161 C 0.22214 0.39094 0.08222 0.0
C162 C 0.20608 0.41055 0.06939 0.0
N163 N 0.24202 0.38255 0.05812 0.0
C164 C 0.27653 0.40836 0.05439 0.0
H165 H 0.42455 0.96448 0.22781 0.0
H166 H 0.5249 0.97828 0.26164 0.0
H167 H 0.44491 0.93497 0.33698 0.0
C168 C 0.44225 0.96265 0.24877 0.0
C169 C 0.43072 0.94826 0.28325 0.0
C170 C 0.47627 0.97371 0.24082 0.0
C171 C 0.49876 0.97007 0.26768 0.0
C172 C 0.48729 0.95594 0.30239 0.0
C173 C 0.45359 0.94571 0.31013 0.0
N174 N 0.50947 0.95355 0.33108 0.0
C175 C 0.53023 0.93793 0.32474 0.0
H176 H 0.07678 0.4633 0.23787 0.0
H177 H 0.08726 0.57307 0.25903 0.0
H178 H 0.12113 0.52817 0.34738 0.0
C179 C 0.08469 0.4887 0.25672 0.0
C180 C 0.10121 0.49312 0.29354 0.0
C181 C 0.07879 0.51704 0.24391 0.0
C182 C 0.09068 0.55061 0.2686 0.0
C183 C 0.1053 0.55415 0.30624 0.0
C184 C 0.10962 0.52507 0.31846 0.0
N185 N 0.11539 0.58579 0.33343 0.0
C186 C 0.12203 0.62134 0.32588 0.0
H187 H 0.53714 0.60226 0.23247 0.0
H188 H 0.45202 0.4882 0.22376 0.0
H189 H 0.47964 0.56085 0.32875 0.0
C190 C 0.51595 0.5799 0.24501 0.0
C191 C 0.51067 0.58624 0.28298 0.0
C192 C 0.49517 0.54463 0.22353 0.0
C193 C 0.46803 0.51566 0.23996 0.0
C194 C 0.46186 0.52163 0.27752 0.0
C195 C 0.48333 0.55686 0.29915 0.0
N196 N 0.43687 0.49047 0.29444 0.0
C197 C 0.40808 0.48894 0.30892 0.0
Tb198 Tb 0.53901 0.03578 0.02353 0.0
C199 C 0.52295 0.95161 0.02555 0.0
Tb200 Tb 0.46355 0.97195 0.01666 0.0
O201 O 0.53521 0.0521 0.08327 0.0
O202 O 0.50551 0.99742 0.0599 0.0
O203 O 0.54609 0.98685 0.02069 0.0
C204 C 0.39888 0.93185 0.03642 0.0
O205 O 0.4898 0.9402 0.02887 0.0
C206 C 0.48999 0.98412 0.95099 0.0
C207 C 0.48081 0.05601 1.00568 0.0
O208 O 0.41182 0.92055 0.01019 0.0
O209 O 0.42222 0.96551 0.05128 0.0
O210 O 0.46354 0.95236 0.95757 0.0
O211 O 0.49688 0.00813 0.97917 0.0
O212 O 0.4584 0.0227 0.01642 0.0
O213 O 0.51325 0.06493 1.00122 0.0
C214 C 0.60572 0.08234 0.01252 0.0
O215 O 0.58883 0.08948 0.03719 0.0
O216 O 0.58506 0.04927 0.99438 0.0
C217 C 0.50988 0.01915 0.08889 0.0
Tb218 Tb 0.98034 0.49702 0.0237 0.0
C219 C 0.05727 0.56757 0.02863 0.0
Tb220 Tb 0.04092 0.48313 0.02027 0.0
O221 O 0.97363 0.48277 0.08277 0.0
O222 O 0.02181 0.50421 0.063 0.0
O223 O 0.02347 0.55505 0.02725 0.0
C224 C 0.0902 0.46574 0.0367 0.0
O225 O 0.07031 0.54482 0.02762 0.0
C226 C 0.0158 0.49061 0.95389 0.0
C227 C 0.96332 0.41359 0.01481 0.0
O228 O 0.0867 0.49129 0.05581 0.0
O229 O 0.06624 0.45033 0.00791 0.0
O230 O 0.04768 0.49842 0.96164 0.0
O231 O 0.99957 0.47579 0.98165 0.0
O232 O 0.99651 0.4267 0.0273 0.0
O233 O 0.95207 0.43674 1.00625 0.0
C234 C 0.93545 0.51738 0.99765 0.0
O235 O 0.93171 0.4978 0.0263 0.0
O236 O 0.9647 0.52612 0.98466 0.0
C237 C 1.00533 0.48991 0.09089 0.0
Tb238 Tb 0.4832 0.51274 1.00173 0.0
C239 C 0.50289 0.44727 1.0022 0.0
Tb240 Tb 0.56195 0.53336 1.0066 0.0
O241 O 0.48603 0.52688 0.94256 0.0
O242 O 0.51719 0.5074 0.96614 0.0
O243 O 0.47862 0.45707 1.00328 0.0
C244 C 0.62224 0.55228 0.98006 0.0
O245 O 0.53653 0.47204 1.0019 0.0
C246 C 0.54145 0.53809 0.07471 0.0
C247 C 0.54312 0.59822 0.00979 0.0
O248 O 0.61063 0.5326 0.00859 0.0
O249 O 0.60009 0.56141 0.96681 0.0
O250 O 0.57244 0.54408 0.07021 0.0
O251 O 0.52596 0.53092 0.0418 0.0
O252 O 0.56496 0.58725 0.99913 0.0
O253 O 0.51045 0.57395 0.01564 0.0
C254 C 0.41884 0.48675 0.02109 0.0
O255 O 0.44656 0.49844 0.04469 0.0
O256 O 0.42746 0.4904 0.98648 0.0
C257 C 0.51134 0.52056 0.93725 0.0
Tb258 Tb 0.20382 0.36982 0.35924 0.0
C259 C 0.19042 0.28633 0.35823 0.0
Tb260 Tb 0.12936 0.30436 0.35005 0.0
O261 O 0.19849 0.38369 0.41912 0.0
O262 O 0.17061 0.32934 0.394 0.0
O263 O 0.21306 0.32235 0.35567 0.0
C264 C 0.06549 0.26406 0.37164 0.0
O265 O 0.15675 0.27333 0.35977 0.0
C266 C 0.15653 0.31973 0.2851 0.0
C267 C 0.14415 0.38809 0.34229 0.0
O268 O 0.07812 0.25242 0.34527 0.0
O269 O 0.08863 0.29822 0.38514 0.0
O270 O 0.13007 0.28731 0.29029 0.0
O271 O 0.16255 0.34264 0.31403 0.0
O272 O 0.12221 0.3538 0.35117 0.0
O273 O 0.17717 0.39877 0.33894 0.0
C274 C 0.26999 0.41828 0.34938 0.0
O275 O 0.25355 0.42263 0.37648 0.0
O276 O 0.24918 0.38712 0.32806 0.0
C277 C 0.174 0.34986 0.42366 0.0
Tb278 Tb 0.64098 0.82506 0.35812 0.0
C279 C 0.72169 0.88827 0.37045 0.0
Tb280 Tb 0.69476 0.80151 0.35517 0.0
O281 O 0.63097 0.80841 0.41567 0.0
O282 O 0.67974 0.82712 0.39805 0.0
O283 O 0.68918 0.88039 0.36213 0.0
C284 C 0.73689 0.77443 0.37076 0.0
O285 O 0.72949 0.86139 0.37332 0.0
C286 C 0.6723 0.81138 0.28775 0.0
C287 C 0.61496 0.7382 0.3474 0.0
O288 O 0.74045 0.79684 0.34514 0.0
O289 O 0.70955 0.76702 0.38744 0.0
O290 O 0.70231 0.81438 0.29567 0.0
O291 O 0.65548 0.79881 0.31569 0.0
O292 O 0.64733 0.74739 0.35895 0.0
O293 O 0.60697 0.76451 0.3405 0.0
C294 C 0.6029 0.85654 0.34067 0.0
O295 O 0.60103 0.83896 0.37042 0.0
O296 O 0.626 0.85612 0.32056 0.0
C297 C 0.66145 0.81268 0.42464 0.0
Tb298 Tb 0.15138 0.84679 0.34375 0.0
C299 C 0.17103 0.78114 0.34204 0.0
Tb300 Tb 0.2273 0.86714 0.34581 0.0
O301 O 0.15028 0.85823 0.28379 0.0
O302 O 0.18274 0.83995 0.30554 0.0
O303 O 0.14696 0.79109 0.34344 0.0
C304 C 0.29098 0.89136 0.32486 0.0
O305 O 0.20456 0.80619 0.34203 0.0
C306 C 0.20356 0.86151 0.4132 0.0
C307 C 0.20912 0.9323 0.34887 0.0
O308 O 0.28405 0.89711 0.35897 0.0
O309 O 0.26207 0.87167 0.30272 0.0
O310 O 0.22885 0.85593 0.40566 0.0
O311 O 0.19571 0.87348 0.38449 0.0
O312 O 0.22961 0.92048 0.33571 0.0
O313 O 0.1778 0.90802 0.35836 0.0
C314 C 0.08689 0.81806 0.36415 0.0
O315 O 0.11249 0.81755 0.38293 0.0
O316 O 0.09783 0.83563 0.33422 0.0
C317 C 0.17539 0.85217 0.27685 0.0
Tb318 Tb 0.88721 0.71758 0.69125 0.0
C319 C 0.86562 0.63356 0.70448 0.0
Tb320 Tb 0.81009 0.65823 0.68805 0.0
O321 O 0.89516 0.72014 0.75339 0.0
O322 O 0.84708 0.7048 0.72698 0.0
O323 O 0.89042 0.66702 0.697 0.0
C324 C 0.74695 0.61008 0.70753 0.0
O325 O 0.83262 0.62417 0.70406 0.0
C326 C 0.83385 0.6698 0.62018 0.0
C327 C 0.82905 0.73855 0.67143 0.0
O328 O 0.77633 0.61998 0.72695 0.0
O329 O 0.75314 0.62668 0.67664 0.0
O330 O 0.80139 0.65502 0.62569 0.0
O331 O 0.85037 0.67151 0.65142 0.0
O332 O 0.80815 0.70996 0.68973 0.0
O333 O 0.86028 0.7446 0.66504 0.0
C334 C 0.95343 0.76288 0.67729 0.0
O335 O 0.93264 0.77423 0.68837 0.0
O336 O 0.93671 0.72644 0.67383 0.0
C337 C 0.86298 0.70725 0.75883 0.0
Tb338 Tb 0.32489 0.17435 0.6886 0.0
C339 C 0.40312 0.24338 0.69232 0.0
Tb340 Tb 0.38398 0.15873 0.68512 0.0
O341 O 0.31717 0.15782 0.74638 0.0
O342 O 0.36627 0.18139 0.728 0.0
O343 O 0.3694 0.23156 0.68956 0.0
C344 C 0.4304 0.13811 0.70417 0.0
O345 O 0.4154 0.22002 0.69298 0.0
C346 C 0.35785 0.16469 0.61811 0.0
C347 C 0.3062 0.09013 0.68054 0.0
O348 O 0.41934 0.15428 0.72748 0.0
O349 O 0.41546 0.13363 0.66998 0.0
O350 O 0.38984 0.1728 0.62588 0.0
O351 O 0.3421 0.15089 0.64652 0.0
O352 O 0.33953 0.10276 0.69139 0.0
O353 O 0.29488 0.11356 0.67299 0.0
C354 C 0.28131 0.19881 0.67009 0.0
O355 O 0.28325 0.18521 0.70171 0.0
O356 O 0.30373 0.19841 0.64882 0.0
C357 C 0.34887 0.16538 0.7548 0.0
Tb358 Tb 0.8147 0.18454 0.66956 0.0
C359 C 0.82893 0.116 0.66108 0.0
Tb360 Tb 0.88911 0.20099 0.67573 0.0
O361 O 0.81665 0.1988 0.61036 0.0
O362 O 0.84716 0.17832 0.63212 0.0
O363 O 0.80654 0.12721 0.66843 0.0
C364 C 0.95447 0.22572 0.66013 0.0
O365 O 0.86201 0.14039 0.65744 0.0
C366 C 0.86293 0.19468 0.74227 0.0
C367 C 0.87491 0.26904 0.68068 0.0
O368 O 0.93718 0.19829 0.68032 0.0
O369 O 0.93519 0.23918 0.6493 0.0
O370 O 0.88873 0.18975 0.73594 0.0
O371 O 0.85679 0.20762 0.71339 0.0
O372 O 0.89571 0.25683 0.66981 0.0
O373 O 0.8425 0.24518 0.68733 0.0
C374 C 0.74947 0.15954 0.68498 0.0
O375 O 0.76391 0.18001 0.65781 0.0
O376 O 0.77197 0.15389 0.7038 0.0
C377 C 0.84175 0.1926 0.60401 0.0
C378 C 0.32169 0.85462 0.07913 0.0
C379 C 0.29854 0.86872 0.0777 0.0
C380 C 0.34086 0.92382 0.04839 0.0
C381 C 0.36387 0.90943 0.04944 0.0
N382 N 0.37905 0.86469 0.07087 0.0
N383 N 0.28423 0.91499 0.05968 0.0
C384 C 0.35496 0.87564 0.06596 0.0
C385 C 0.30784 0.90316 0.06241 0.0
N386 N 0.31126 0.82038 0.09208 0.0
N387 N 0.35074 0.95729 0.03386 0.0
H388 H 0.26024 0.90098 0.07036 0.0
H389 H 0.2874 0.93782 0.04591 0.0
H390 H 0.37325 0.97153 0.02049 0.0
H391 H 0.33736 0.9718 0.0355 0.0
H392 H 0.32451 0.80577 0.08932 0.0
H393 H 0.28812 0.80538 0.10423 0.0
H394 H 0.37615 0.8432 0.08687 0.0
H395 H 0.40335 0.87866 0.06095 0.0
C396 C 0.17273 0.46766 0.07563 0.0
C397 C 0.16048 0.42857 0.07491 0.0
C398 C 0.10193 0.41406 0.05141 0.0
C399 C 0.11466 0.45297 0.04892 0.0
N400 N 0.16349 0.51632 0.05228 0.0
N401 N 0.11557 0.36439 0.05408 0.0
C402 C 0.15047 0.47971 0.05933 0.0
C403 C 0.12575 0.40174 0.0602 0.0
N404 N 0.20532 0.49322 0.09263 0.0
N405 N 0.06696 0.38903 0.04789 0.0
H406 H 0.1323 0.35419 0.05994 0.0
H407 H 0.09162 0.34409 0.0397 0.0
H408 H 0.04831 0.39685 0.04355 0.0
H409 H 0.05637 0.36111 0.05351 0.0
H410 H 0.21439 0.52195 0.09797 0.0
H411 H 0.22252 0.48531 0.1039 0.0
H412 H 0.1899 0.53628 0.05572 0.0
H413 H 0.14824 0.52603 0.03956 0.0
C414 C 0.60297 0.70131 0.05209 0.0
C415 C 0.57926 0.71455 0.05135 0.0
C416 C 0.53591 0.65533 0.01324 0.0
C417 C 0.55714 0.63945 0.02084 0.0
N418 N 0.60893 0.64701 0.05688 0.0
N419 N 0.52075 0.70152 0.03523 0.0
C420 C 0.59038 0.66238 0.04242 0.0
C421 C 0.54505 0.69093 0.03282 0.0
N422 N 0.63762 0.72589 0.06199 0.0
N423 N 0.50754 0.63701 0.9866 0.0
H424 H 0.52603 0.72683 0.05007 0.0
H425 H 0.49457 0.68357 0.02551 0.0
H426 H 0.50121 0.612 0.9702 0.0
H427 H 0.49286 0.64886 0.97773 0.0
H428 H 0.65628 0.71804 0.05956 0.0
H429 H 0.64795 0.75483 0.06844 0.0
H430 H 0.6316 0.66256 0.07561 0.0
H431 H 0.59987 0.61826 0.05485 0.0
C432 C 0.87623 0.32322 0.99419 0.0
C433 C 0.88495 0.29783 0.97595 0.0
C434 C 0.94657 0.34745 0.98552 0.0
C435 C 0.93803 0.37209 1.0061 0.0
N436 N 0.89558 0.37772 0.04035 0.0
N437 N 0.92951 0.28261 0.96572 0.0
C438 C 0.9031 0.35806 0.01378 0.0
C439 C 0.9205 0.30892 0.97542 0.0
N440 N 0.84261 0.3153 0.99116 0.0
N441 N 0.9785 0.3608 0.97296 0.0
H442 H 0.91121 0.254 0.95924 0.0
H443 H 0.95515 0.28861 0.96829 0.0
H444 H 0.99815 0.38891 0.97732 0.0
H445 H 0.98427 0.34446 0.95446 0.0
H446 H 0.8356 0.33474 1.00074 0.0
H447 H 0.82221 0.29097 0.97573 0.0
H448 H 0.87094 0.3672 0.0493 0.0
H449 H 0.91479 0.40236 0.05663 0.0
C450 C 0.71858 0.59364 0.9698 0.0
C451 C 0.71679 0.57787 0.93226 0.0
C452 C 0.65318 0.54754 0.92508 0.0
C453 C 0.65483 0.56128 0.9636 0.0
N454 N 0.6881 0.59584 0.02356 0.0
N455 N 0.68344 0.53864 0.87423 0.0
C456 C 0.68729 0.58388 0.98625 0.0
C457 C 0.68435 0.55474 0.90977 0.0
N458 N 0.75033 0.61864 0.98926 0.0
N459 N 0.62171 0.52719 0.90331 0.0
H460 H 0.70574 0.54431 0.86155 0.0
H461 H 0.66086 0.51826 0.85769 0.0
H462 H 0.59804 0.51826 0.91422 0.0
H463 H 0.61868 0.51996 0.87401 0.0
H464 H 0.75387 0.63423 0.01521 0.0
H465 H 0.77368 0.62588 0.97819 0.0
H466 H 0.71029 0.60858 0.04306 0.0
H467 H 0.66603 0.59161 0.03587 0.0
C468 C 0.4847 0.14696 0.98221 0.0
C469 C 0.44978 0.13447 0.96818 0.0
C470 C 0.43524 0.06944 0.97493 0.0
C471 C 0.46893 0.08263 0.99437 0.0
N472 N 0.5217 0.13652 0.02618 0.0
N473 N 0.38994 0.0841 0.96162 0.0
C474 C 0.49254 0.12218 1.00082 0.0
C475 C 0.42444 0.09578 0.96761 0.0
N476 N 0.51069 0.18216 0.97702 0.0
N477 N 0.41401 0.03234 0.96138 0.0
H478 H 0.38088 0.10273 0.95843 0.0
H479 H 0.37049 0.05664 0.96436 0.0
H480 H 0.42125 0.01213 0.96303 0.0
H481 H 0.3907 0.02258 0.94421 0.0
H482 H 0.53687 0.19121 0.98398 0.0
H483 H 0.50634 0.20057 0.9619 0.0
H484 H 0.53814 0.16537 0.03386 0.0
H485 H 0.52695 0.11985 0.04317 0.0
C486 C 0.68554 0.13182 0.9591 0.0
C487 C 0.71271 0.14572 0.98933 0.0
C488 C 0.66993 0.12076 0.03568 0.0
C489 C 0.6426 0.10733 1.0055 0.0
N490 N 0.62459 0.1088 0.9402 0.0
N491 N 0.73143 0.16158 0.05674 0.0
C492 C 0.65049 0.11542 0.96766 0.0
C493 C 0.70506 0.14291 0.02776 0.0
N494 N 0.69315 0.1334 0.92214 0.0
N495 N 0.66258 0.11045 0.07146 0.0
H496 H 0.75741 0.17775 0.0519 0.0
H497 H 0.72737 0.16391 0.08525 0.0
H498 H 0.63738 0.09401 0.07851 0.0
H499 H 0.68149 0.1156 0.0935 0.0
H500 H 0.67436 0.11973 0.89875 0.0
H501 H 0.71857 0.1466 0.91496 0.0
H502 H 0.62915 0.11787 0.91323 0.0
H503 H 0.5988 0.09769 0.94563 0.0
C504 C 0.87687 0.52672 0.92128 0.0
C505 C 0.85737 0.53686 0.94407 0.0
C506 C 0.89277 0.5402 1.0018 0.0
C507 C 0.90888 0.52477 0.97938 0.0
N508 N 0.91124 0.49671 0.91809 0.0
N509 N 0.84464 0.55137 1.00603 0.0
C510 C 0.89991 0.51662 0.93911 0.0
C511 C 0.86479 0.54322 0.98437 0.0
N512 N 0.87328 0.52661 0.88254 0.0
N513 N 0.90508 0.55335 0.03931 0.0
H514 H 0.82506 0.55553 0.99411 0.0
H515 H 0.84599 0.55189 0.03562 0.0
H516 H 0.92597 0.5524 0.05279 0.0
H517 H 0.89674 0.5683 0.05614 0.0
H518 H 0.88943 0.52325 0.8647 0.0
H519 H 0.85634 0.53362 0.86867 0.0
H520 H 0.90278 0.48699 0.88932 0.0
H521 H 0.92593 0.48608 0.93012 0.0
C522 C 0.45242 0.34295 0.01715 0.0
C523 C 0.46757 0.32792 0.99289 0.0
C524 C 0.50395 0.39023 0.97193 0.0
C525 C 0.49141 0.40623 0.99931 0.0
N526 N 0.45978 0.39835 0.05428 0.0
N527 N 0.51082 0.33731 0.95086 0.0
C528 C 0.4671 0.38269 0.02352 0.0
C529 C 0.49424 0.35159 0.97136 0.0
N530 N 0.42394 0.31922 0.03417 0.0
N531 N 0.52391 0.41121 0.94532 0.0
H532 H 0.50324 0.3088 0.94821 0.0
H533 H 0.53353 0.35403 0.9387 0.0
H534 H 0.53131 0.43925 0.94357 0.0
H535 H 0.53069 0.39988 0.92252 0.0
H536 H 0.40957 0.32827 0.049 0.0
H537 H 0.4128 0.28998 0.03043 0.0
H538 H 0.44485 0.38274 0.07492 0.0
H539 H 0.47176 0.42735 0.06173 0.0
C540 C 0.13306 0.66495 0.06808 0.0
C541 C 0.12827 0.68786 0.04309 0.0
C542 C 0.07756 0.63214 0.00814 0.0
C543 C 0.08145 0.60911 0.03396 0.0
N544 N 0.10749 0.60487 0.09404 0.0
N545 N 0.09227 0.69515 0.99492 0.0
C546 C 0.10775 0.62585 0.06552 0.0
C547 C 0.09928 0.672 0.01493 0.0
N548 N 0.16211 0.68044 0.09383 0.0
N549 N 0.05427 0.61594 0.97609 0.0
H550 H 0.10782 0.72447 0.99903 0.0
H551 H 0.0695 0.68563 0.97689 0.0
H552 H 0.03775 0.58696 0.96984 0.0
H553 H 0.0532 0.63095 0.95397 0.0
H554 H 0.16923 0.66451 0.10971 0.0
H555 H 0.1803 0.70925 0.09763 0.0
H556 H 0.12383 0.61631 0.11953 0.0
H557 H 0.08865 0.57658 0.09405 0.0
C558 C 0.32385 0.4593 0.02363 0.0
C559 C 0.31309 0.43127 0.04905 0.0
C560 C 0.37109 0.4388 0.05538 0.0
C561 C 0.38268 0.46849 0.03165 0.0
N562 N 0.37203 0.51219 0.99958 0.0
N563 N 0.32785 0.40022 0.09584 0.0
C564 C 0.35957 0.48021 0.0175 0.0
C565 C 0.33723 0.42305 0.06719 0.0
N566 N 0.29983 0.46545 1.00479 0.0
N567 N 0.39138 0.42374 0.06456 0.0
H568 H 0.30312 0.38791 0.10495 0.0
H569 H 0.34543 0.3964 0.11291 0.0
H570 H 0.41558 0.43285 0.05498 0.0
H571 H 0.38273 0.39951 0.07832 0.0
H572 H 0.3052 0.48229 0.98257 0.0
H573 H 0.2738 0.45175 0.00985 0.0
H574 H 0.35727 0.5243 0.99199 0.0
H575 H 0.39812 0.52874 0.99544 0.0
C576 C 0.5552 0.88333 1.00553 0.0
C577 C 0.56637 0.88073 0.04316 0.0
C578 C 0.54752 0.92318 0.0694 0.0
C579 C 0.53575 0.92529 0.03183 0.0
N580 N 0.52253 0.90283 0.96487 0.0
N581 N 0.56705 0.89127 0.11108 0.0
C582 C 0.53774 0.90386 1.00009 0.0
C583 C 0.56051 0.89845 0.07519 0.0
N584 N 0.56226 0.86712 0.97499 0.0
N585 N 0.54752 0.94593 0.09935 0.0
H586 H 0.57681 0.87349 0.1161 0.0
H587 H 0.56015 0.90023 0.13552 0.0
H588 H 0.53804 0.96419 0.09623 0.0
H589 H 0.55907 0.94878 0.12681 0.0
H590 H 0.55863 0.87162 0.94685 0.0
H591 H 0.57364 0.85055 0.97788 0.0
H592 H 0.51993 0.88492 0.94114 0.0
H593 H 0.51002 0.91799 0.95995 0.0
C594 C 0.99637 0.20776 0.43589 0.0
C595 C 0.9655 0.194 0.4109 0.0
C596 C 1.00009 0.2256 0.35946 0.0
C597 C 0.03082 0.24158 0.38546 0.0
N598 N 0.05661 0.25531 0.45122 0.0
N599 N 0.93699 0.19383 0.3508 0.0
C600 C 0.02846 0.2352 0.42457 0.0
C601 C 0.96708 0.20408 0.37315 0.0
N602 N 0.99542 0.19304 0.46969 0.0
N603 N 1.00242 0.2312 0.32179 0.0
H604 H 0.91253 0.17803 0.36006 0.0
H605 H 0.93619 0.20333 0.32438 0.0
H606 H 0.02568 0.2493 0.31124 0.0
H607 H 0.98157 0.21668 0.30061 0.0
H608 H 0.01765 0.19905 0.4871 0.0
H609 H 0.97267 0.17165 0.47843 0.0
H610 H 0.05511 0.2545 0.4805 0.0
H611 H 0.08074 0.27573 0.44476 0.0
C612 C 0.82085 0.77776 0.40531 0.0
C613 C 0.80939 0.73871 0.40347 0.0
C614 C 0.7509 0.72312 0.37749 0.0
C615 C 0.76183 0.76206 0.38171 0.0
N616 N 0.80517 0.82617 0.4052 0.0
N617 N 0.76324 0.67384 0.39141 0.0
C618 C 0.79634 0.78937 0.39687 0.0
C619 C 0.77427 0.71126 0.39063 0.0
N620 N 0.85525 0.80379 0.41502 0.0
N621 N 0.71862 0.69767 0.35951 0.0
H622 H 0.77996 0.66399 0.39879 0.0
H623 H 0.73728 0.65258 0.38689 0.0
H624 H 0.70085 0.70533 0.34957 0.0
H625 H 0.7102 0.66939 0.35178 0.0
H626 H 0.86605 0.83238 0.4123 0.0
H627 H 0.87371 0.7966 0.42353 0.0
H628 H 0.82862 0.84673 0.42026 0.0
H629 H 0.78792 0.83579 0.39997 0.0
C630 C 0.21294 0.0259 0.37385 0.0
C631 C 0.24829 0.04992 0.38881 0.0
C632 C 0.25827 0.99696 0.37832 0.0
C633 C 0.22375 0.97369 0.35979 0.0
N634 N 0.17181 0.9705 0.33118 0.0
N635 N 0.30659 0.06062 0.3939 0.0
C636 C 0.20216 0.98956 0.35487 0.0
C637 C 0.27159 0.03619 0.38725 0.0
N638 N 0.18925 0.03695 0.37909 0.0
N639 N 0.27773 0.98178 0.39043 0.0
H640 H 0.31743 0.0897 0.39965 0.0
H641 H 0.32474 0.05235 0.38948 0.0
H642 H 0.26867 0.95302 0.38855 0.0
H643 H 0.30162 0.99761 0.40708 0.0
H644 H 0.16261 0.01895 0.37214 0.0
H645 H 0.19577 0.06281 0.39372 0.0
H646 H 0.15661 0.98224 0.32403 0.0
H647 H 0.16394 0.94479 0.31525 0.0
C648 C 0.57195 0.63372 0.30894 0.0
C649 C 0.53638 0.62281 0.30598 0.0
C650 C 0.55272 0.68392 0.34072 0.0
C651 C 0.58825 0.69751 0.33585 0.0
N652 N 0.62946 0.68517 0.30518 0.0
N653 N 0.49294 0.64002 0.31549 0.0
C654 C 0.5975 0.67235 0.3176 0.0
C655 C 0.52664 0.64848 0.32113 0.0
N656 N 0.58145 0.60723 0.30305 0.0
N657 N 0.54383 0.70415 0.36486 0.0
H658 H 0.47318 0.61476 0.30079 0.0
H659 H 0.48528 0.6595 0.32257 0.0
H660 H 0.56224 0.72894 0.38153 0.0
H661 H 0.51855 0.69397 0.37167 0.0
H662 H 0.60711 0.61354 0.30804 0.0
H663 H 0.56332 0.57847 0.29748 0.0
H664 H 0.63565 0.66771 0.28903 0.0
H665 H 0.64815 0.71351 0.30588 0.0
C666 C 0.38596 0.95897 0.31225 0.0
C667 C 0.39424 0.93456 0.29124 0.0
C668 C 0.3352 0.88146 0.29339 0.0
C669 C 0.32633 0.90629 0.31264 0.0
N670 N 0.34085 0.97002 0.33281 0.0
N671 N 0.37562 0.87437 0.2559 0.0
C672 C 0.35108 0.94545 0.32008 0.0
C673 C 0.36842 0.89637 0.27985 0.0
N674 N 0.4116 0.99495 0.32525 0.0
N675 N 0.31268 0.84339 0.28992 0.0
H676 H 0.39993 0.88395 0.24632 0.0
H677 H 0.35684 0.8477 0.24303 0.0
H678 H 0.28847 0.83117 0.30018 0.0
H679 H 0.31911 0.8236 0.27996 0.0
H680 H 0.40819 0.01265 0.34462 0.0
H681 H 0.43709 0.00638 0.3186 0.0
H682 H 0.35675 0.9992 0.33509 0.0
H683 H 0.31532 0.96146 0.33757 0.0
C684 C 0.08633 0.42652 0.30476 0.0
C685 C 0.11127 0.46544 0.3061 0.0
C686 C 0.15407 0.45371 0.33951 0.0
C687 C 0.13125 0.41411 0.33192 0.0
N688 N 0.0771 0.3636 0.29749 0.0
N689 N 0.17213 0.51362 0.31584 0.0
C690 C 0.09765 0.40055 0.31193 0.0
C691 C 0.14614 0.47834 0.32083 0.0
N692 N 0.05175 0.41421 0.29774 0.0
N693 N 0.18267 0.46819 0.36571 0.0
H694 H 0.16801 0.5318 0.30008 0.0
H695 H 0.19827 0.52286 0.32351 0.0
H696 H 0.18784 0.45146 0.38273 0.0
H697 H 0.19852 0.49703 0.37399 0.0
H698 H 0.03252 0.38652 0.29997 0.0
H699 H 0.04227 0.43241 0.29391 0.0
H700 H 0.05403 0.35379 0.27984 0.0
H701 H 0.08466 0.34365 0.29888 0.0
C702 C 0.36914 0.47242 0.36013 0.0
C703 C 0.37475 0.47977 0.32184 0.0
C704 C 0.31302 0.45804 0.30636 0.0
C705 C 0.30646 0.4444 0.34255 0.0
N706 N 0.32788 0.43764 0.40418 0.0
N707 N 0.35288 0.48036 0.258 0.0
C708 C 0.33447 0.45199 0.3699 0.0
C709 C 0.34699 0.47329 0.2949 0.0
N710 N 0.39701 0.48488 0.38701 0.0
N711 N 0.28682 0.45718 0.28341 0.0
H712 H 0.37772 0.49323 0.24916 0.0
H713 H 0.33314 0.47184 0.23583 0.0
H714 H 0.26181 0.4467 0.29134 0.0
H715 H 0.29052 0.46987 0.25825 0.0
H716 H 0.39499 0.48355 0.41613 0.0
H717 H 0.42258 0.49976 0.38039 0.0
H718 H 0.34679 0.4383 0.42346 0.0
H719 H 0.30298 0.42284 0.41254 0.0
C720 C 0.5729 0.92677 0.36068 0.0
C721 C 0.55134 0.92022 0.32649 0.0
C722 C 0.5641 0.87227 0.30062 0.0
C723 C 0.58623 0.87943 0.33461 0.0
N724 N 0.6188 0.92007 0.39231 0.0
N725 N 0.53085 0.89224 0.26142 0.0
C726 C 0.59264 0.90855 0.36334 0.0
C727 C 0.54841 0.89471 0.29558 0.0
N728 N 0.57388 0.94973 0.39108 0.0
N729 N 0.55692 0.84299 0.27401 0.0
H730 H 0.51877 0.90797 0.25723 0.0
H731 H 0.53045 0.87699 0.23653 0.0
H732 H 0.56803 0.82616 0.27671 0.0
H733 H 0.53827 0.83368 0.25053 0.0
H734 H 0.58545 0.95175 0.41831 0.0
H735 H 0.56114 0.96505 0.38984 0.0
H736 H 0.62722 0.9438 0.41181 0.0
H737 H 0.63461 0.90829 0.39472 0.0
C738 C 0.16099 0.68539 0.30755 0.0
C739 C 0.13256 0.66101 0.32668 0.0
C740 C 0.13284 0.71537 0.35949 0.0
C741 C 0.15902 0.73992 0.33754 0.0
N742 N 0.19322 0.74642 0.28477 0.0
N743 N 0.0869 0.65168 0.36506 0.0
C744 C 0.17195 0.7245 0.31 0.0
C745 C 0.11698 0.67568 0.35067 0.0
N746 N 0.17787 0.67129 0.2874 0.0
N747 N 0.12452 0.72979 0.39036 0.0
H748 H 0.07476 0.62242 0.35943 0.0
H749 H 0.07234 0.6608 0.37941 0.0
H750 H 0.13681 0.75852 0.39944 0.0
H751 H 0.10815 0.71315 0.4095 0.0
H752 H 0.20148 0.68822 0.27694 0.0
H753 H 0.16948 0.64258 0.28342 0.0
H754 H 0.20067 0.73571 0.26207 0.0
H755 H 0.20083 0.77461 0.28368 0.0
C756 C 0.78947 0.99158 0.36626 0.0
C757 C 0.80691 1.00122 0.40372 0.0
C758 C 0.76694 0.93827 0.42039 0.0
C759 C 0.74945 0.92803 0.3826 0.0
N760 N 0.73969 0.94679 0.32185 0.0
N761 N 0.80765 0.98844 0.46898 0.0
C762 C 0.75915 0.95542 0.35635 0.0
C763 C 0.79408 0.97602 0.43162 0.0
N764 N 0.80279 0.01653 0.33978 0.0
N765 N 0.75827 0.91178 0.44538 0.0
H766 H 0.82754 0.01605 0.47782 0.0
H767 H 0.79724 0.97278 0.49156 0.0
H768 H 0.73746 0.88438 0.43944 0.0
H769 H 0.7728 0.91623 0.47137 0.0
H770 H 0.79417 0.00984 0.31076 0.0
H771 H 0.82385 0.04386 0.34668 0.0
H772 H 0.74311 0.96655 0.30315 0.0
H773 H 0.71843 0.92017 0.31269 0.0
C774 C 0.99881 0.74193 0.39013 0.0
C775 C 0.97923 0.76006 0.38632 0.0
C776 C 0.03176 0.81826 0.37492 0.0
C777 C 0.05019 0.79852 0.37341 0.0
N778 N 0.04943 0.73949 0.37385 0.0
N779 N 0.97582 0.8147 0.37301 0.0
C780 C 0.03339 0.75989 0.37995 0.0
C781 C 0.9954 0.7981 0.3783 0.0
N782 N 0.98431 0.70746 0.4035 0.0
N783 N 0.04925 0.85651 0.37457 0.0
H784 H 0.94955 0.8014 0.37706 0.0
H785 H 0.98503 0.84067 0.36253 0.0
H786 H 0.07593 0.87229 0.37297 0.0
H787 H 0.03808 0.87307 0.37942 0.0
H788 H 0.99834 0.69442 0.41068 0.0
H789 H 0.95895 0.69352 0.41086 0.0
H790 H 0.0371 0.71041 0.37431 0.0
H791 H 0.07393 0.75074 0.36446 0.0
C792 C 0.23277 0.23742 0.40745 0.0
C793 C 0.23479 0.2161 0.37568 0.0
C794 C 0.20264 0.23613 0.33357 0.0
C795 C 0.20416 0.26077 0.36453 0.0
N796 N 0.22236 0.28723 0.4305 0.0
N797 N 0.2234 0.19573 0.30816 0.0
C798 C 0.21956 0.26195 0.40144 0.0
C799 C 0.21995 0.21537 0.33865 0.0
N800 N 0.24297 0.23367 0.44342 0.0
N801 N 0.18447 0.23248 0.29941 0.0
H802 H 0.23457 0.17896 0.31099 0.0
H803 H 0.21693 0.19749 0.27986 0.0
H804 H 0.17245 0.24814 0.29446 0.0
H805 H 0.17919 0.21225 0.27678 0.0
H806 H 0.239 0.24537 0.46824 0.0
H807 H 0.25292 0.21608 0.44858 0.0
H808 H 0.23665 0.29257 0.45687 0.0
H809 H 0.21212 0.30484 0.42758 0.0
C810 C 0.67077 0.53311 0.7517 0.0
C811 C 0.64611 0.54492 0.74712 0.0
C812 C 0.68923 0.60194 0.72159 0.0
C813 C 0.71217 0.58751 0.72107 0.0
N814 N 0.7233 0.53715 0.73188 0.0
N815 N 0.63019 0.58855 0.72416 0.0
C816 C 0.70269 0.55262 0.73546 0.0
C817 C 0.6549 0.57883 0.73113 0.0
N818 N 0.66371 0.50336 0.77188 0.0
N819 N 0.70075 0.63847 0.71511 0.0
H820 H 0.60512 0.57316 0.73204 0.0
H821 H 0.63381 0.61038 0.70824 0.0
H822 H 0.72609 0.65707 0.70974 0.0
H823 H 0.68631 0.65162 0.71906 0.0
H824 H 0.68201 0.49584 0.77984 0.0
H825 H 0.64041 0.48828 0.78372 0.0
H826 H 0.71608 0.51006 0.73824 0.0
H827 H 0.74635 0.54994 0.71922 0.0
C828 C 0.46512 0.07173 0.71861 0.0
C829 C 0.49706 0.09628 0.74142 0.0
C830 C 0.48729 0.14928 0.73536 0.0
C831 C 0.45389 0.12399 0.71569 0.0
N832 N 0.40845 0.06014 0.69417 0.0
N833 N 0.53749 0.15735 0.7749 0.0
C834 C 0.4422 0.08497 0.70846 0.0
C835 C 0.50789 0.13482 0.75073 0.0
N836 N 0.45667 0.03565 0.70658 0.0
N837 N 0.4998 0.18724 0.73813 0.0
H838 H 0.55383 0.148 0.78538 0.0
H839 H 0.54476 0.18447 0.78647 0.0
H840 H 0.48563 0.19884 0.72685 0.0
H841 H 0.52521 0.20743 0.74868 0.0
H842 H 0.43589 0.01789 0.68621 0.0
H843 H 0.47193 0.02422 0.71468 0.0
H844 H 0.39725 0.03099 0.69242 0.0
H845 H 0.39045 0.06838 0.68726 0.0
C846 C 0.87925 0.36268 0.70436 0.0
C847 C 0.91408 0.38604 0.72129 0.0
C848 C 0.92355 0.33272 0.71242 0.0
C849 C 0.88978 0.31024 0.69192 0.0
N850 N 0.84001 0.30874 0.65917 0.0
N851 N 0.97205 0.39592 0.7299 0.0
C852 C 0.86902 0.32676 0.68498 0.0
C853 C 0.93713 0.37193 0.72139 0.0
N854 N 0.8554 0.37374 0.70826 0.0
N855 N 0.94182 0.31682 0.72632 0.0
H856 H 0.98305 0.42503 0.73566 0.0
H857 H 0.99013 0.38728 0.72698 0.0
H858 H 0.93216 0.28794 0.72464 0.0
H859 H 0.96505 0.33221 0.74419 0.0
H860 H 0.82898 0.35596 0.69961 0.0
H861 H 0.8613 0.39911 0.72349 0.0
H862 H 0.82567 0.32115 0.65085 0.0
H863 H 0.83274 0.2834 0.64283 0.0
C864 C 0.22056 0.99762 0.66086 0.0
C865 C 0.23076 0.97291 0.64416 0.0
C866 C 0.29117 0.02473 0.65157 0.0
C867 C 0.28144 0.0487 0.67145 0.0
N868 N 0.23795 0.05287 0.70511 0.0
N869 N 0.27719 0.96042 0.63524 0.0
C870 C 0.24645 0.03352 0.6793 0.0
C871 C 0.26655 0.98564 0.64341 0.0
N872 N 0.18642 0.98785 0.6576 0.0
N873 N 0.32266 0.03903 0.63764 0.0
H874 H 0.25996 0.93142 0.63011 0.0
H875 H 0.30328 0.96799 0.63783 0.0
H876 H 0.34091 0.0676 0.63939 0.0
H877 H 0.329 0.02264 0.61997 0.0
H878 H 0.17827 0.00658 0.66612 0.0
H879 H 0.16666 0.96256 0.64295 0.0
H880 H 0.21326 0.04154 0.71408 0.0
H881 H 0.25651 0.07821 0.72088 0.0
C882 C 0.02824 0.22809 0.60954 0.0
C883 C 0.05634 0.26407 0.62483 0.0
C884 C 0.01714 0.27578 0.66146 0.0
C885 C 0.98973 0.23854 0.64877 0.0
N886 N 0.96876 0.17823 0.6123 0.0
N887 N 0.07892 0.32159 0.66678 0.0
C888 C 0.99519 0.21437 0.62328 0.0
C889 C 0.05111 0.28785 0.65105 0.0
N890 N 0.03307 0.2074 0.58127 0.0
N891 N 0.01062 0.29968 0.68334 0.0
H892 H 0.10377 0.33218 0.65836 0.0
H893 H 0.078 0.33834 0.68948 0.0
H894 H 0.9868 0.29121 0.69374 0.0
H895 H 0.02811 0.32843 0.68971 0.0
H896 H 0.01303 0.18301 0.56567 0.0
H897 H 0.05707 0.21605 0.57124 0.0
H898 H 0.97191 0.15771 0.59746 0.0
H899 H 0.9436 0.16787 0.61963 0.0
C900 C 0.76851 0.77261 0.63387 0.0
C901 C 0.79249 0.8097 0.62622 0.0
C902 C 0.84 0.80213 0.65394 0.0
C903 C 0.81647 0.76322 0.6561 0.0
N904 N 0.75881 0.70984 0.63507 0.0
N905 N 0.85218 0.85546 0.61957 0.0
C906 C 0.78081 0.74787 0.64232 0.0
C907 C 0.82863 0.82311 0.63324 0.0
N908 N 0.73421 0.76117 0.63472 0.0
N909 N 0.87252 0.81991 0.6733 0.0
H910 H 0.84481 0.87067 0.60273 0.0
H911 H 0.87861 0.86457 0.6214 0.0
H912 H 0.88091 0.8069 0.69205 0.0
H913 H 0.88939 0.84892 0.67464 0.0
H914 H 0.71649 0.73529 0.64339 0.0
H915 H 0.72437 0.77908 0.63126 0.0
H916 H 0.73336 0.69804 0.62237 0.0
H917 H 0.767 0.69038 0.63658 0.0
C918 C 0.05137 0.83168 0.69189 0.0
C919 C 0.06108 0.82314 0.65687 0.0
C920 C 1.00025 0.77857 0.63354 0.0
C921 C 0.99005 0.78666 0.66879 0.0
N922 N 1.00542 0.82562 0.7291 0.0
N923 N 0.04542 0.79694 0.59111 0.0
C924 C 0.01544 0.81505 0.69703 0.0
C925 C 0.03567 0.7993 0.62665 0.0
N926 N 0.07662 0.85449 0.72084 0.0
N927 N 0.97635 0.75037 0.60688 0.0
H928 H 0.07123 0.81182 0.58533 0.0
H929 H 0.02792 0.78329 0.56671 0.0
H930 H 0.94988 0.73574 0.6092 0.0
H931 H 0.98289 0.73982 0.58324 0.0
H932 H 0.07177 0.85823 0.74874 0.0
H933 H 0.10302 0.86847 0.71739 0.0
H934 H 0.02209 0.84904 0.74839 0.0
H935 H 0.9799 0.81245 0.73566 0.0
C936 C 0.21636 0.22264 0.62327 0.0
C937 C 0.21804 0.24896 0.65241 0.0
C938 C 0.2661 0.24793 0.68846 0.0
C939 C 0.2609 0.21745 0.66234 0.0
N940 N 0.23074 0.17462 0.60521 0.0
N941 N 0.24319 0.28616 0.71352 0.0
C942 C 0.23627 0.2048 0.62945 0.0
C943 C 0.24274 0.2617 0.68509 0.0
N944 N 0.1958 0.21489 0.58977 0.0
N945 N 0.29427 0.26477 0.71554 0.0
H946 H 0.22783 0.29851 0.71123 0.0
H947 H 0.25732 0.2926 0.74023 0.0
H948 H 0.31257 0.25624 0.71821 0.0
H949 H 0.30151 0.28951 0.73289 0.0
H950 H 0.19566 0.19863 0.56588 0.0
H951 H 0.18088 0.22745 0.58482 0.0
H952 H 0.21074 0.16145 0.58297 0.0
H953 H 0.24483 0.16095 0.60877 0.0
C954 C 0.81528 0.02369 0.612 0.0
C955 C 0.79767 0.99865 0.63895 0.0
C956 C 0.79779 0.04948 0.6791 0.0
C957 C 0.81576 0.07493 0.65232 0.0
N958 N 0.83267 0.08389 0.58848 0.0
N959 N 0.76403 0.98436 0.69228 0.0
C960 C 0.82186 0.06131 0.61726 0.0
C961 C 0.78616 0.0105 0.67052 0.0
N962 N 0.82649 0.01175 0.58192 0.0
N963 N 0.7936 0.06273 0.71367 0.0
H964 H 0.75517 0.95563 0.68657 0.0
H965 H 0.7519 0.99049 0.71348 0.0
H966 H 0.8016 0.09093 0.72129 0.0
H967 H 0.78455 0.04631 0.73606 0.0
H968 H 0.84312 0.02974 0.56379 0.0
H969 H 0.82041 0.98382 0.57623 0.0
H970 H 0.83441 0.07455 0.56105 0.0
H971 H 0.83665 0.1111 0.59084 0.0
C972 C 0.44783 0.34762 0.67716 0.0
C973 C 0.47602 0.36319 0.70632 0.0
C974 C 0.45352 0.30135 0.72973 0.0
C975 C 0.42799 0.28476 0.69742 0.0
N976 N 0.40313 0.29164 0.63789 0.0
N977 N 0.50771 0.35544 0.75913 0.0
C978 C 0.42554 0.30782 0.67061 0.0
C979 C 0.4794 0.34024 0.73235 0.0
N980 N 0.44217 0.37097 0.65594 0.0
N981 N 0.45208 0.28044 0.75879 0.0
H982 H 0.52626 0.38414 0.76299 0.0
H983 H 0.51392 0.33937 0.77591 0.0
H984 H 0.43313 0.25218 0.75853 0.0
H985 H 0.4676 0.2919 0.78479 0.0
H986 H 0.41999 0.36176 0.63698 0.0
H987 H 0.45819 0.40024 0.65986 0.0
H988 H 0.40307 0.30657 0.61527 0.0
H989 H 0.38643 0.26268 0.6317 0.0
C990 C 0.66979 0.12274 0.73874 0.0
C991 C 0.64289 0.10208 0.70851 0.0
C992 C 0.68541 0.12126 0.66208 0.0
C993 C 0.71252 0.14268 0.6922 0.0
N994 N 0.72988 0.17123 0.75754 0.0
N995 N 0.62361 0.08916 0.6413 0.0
C996 C 0.7045 0.14566 0.7301 0.0
C997 C 0.65026 0.104 0.67011 0.0
N998 N 0.66227 0.11963 0.77573 0.0
N999 N 0.69304 0.11492 0.62645 0.0
H1000 H 0.59759 0.07606 0.64641 0.0
H1001 H 0.62732 0.09301 0.61276 0.0
H1002 H 0.71826 0.12565 0.6193 0.0
H1003 H 0.67436 0.09605 0.6047 0.0
H1004 H 0.68115 0.13021 0.79914 0.0
H1005 H 0.63694 0.1045 0.78299 0.0
H1006 H 0.72512 0.17722 0.78484 0.0
H1007 H 0.75533 0.18924 0.75195 0.0
C1008 C 0.91394 0.58934 0.74962 0.0
C1009 C 0.90184 0.55658 0.72364 0.0
C1010 C 0.86362 0.57238 0.68662 0.0
C1011 C 0.87555 0.60518 0.7127 0.0
N1012 N 0.90527 0.64012 0.77371 0.0
N1013 N 0.85956 0.51172 0.67339 0.0
C1014 C 0.89869 0.61221 0.74569 0.0
C1015 C 0.87473 0.54637 0.69413 0.0
N1016 N 0.94066 0.59914 0.77732 0.0
N1017 N 0.84331 0.56717 0.65361 0.0
H1018 H 0.86726 0.49213 0.67818 0.0
H1019 H 0.83743 0.50104 0.65399 0.0
H1020 H 0.83474 0.58561 0.64691 0.0
H1021 H 0.8371 0.54616 0.63144 0.0
H1022 H 0.95348 0.62492 0.79435 0.0
H1023 H 0.95133 0.58211 0.7819 0.0
H1024 H 0.91916 0.64446 0.80013 0.0
H1025 H 0.894 0.65684 0.77185 0.0
C1026 C 0.4823 0.95962 0.17283 0.0
C1027 C 0.48694 0.98654 0.20288 0.0
C1028 C 0.50203 0.0342 0.15762 0.0
C1029 C 0.49758 0.00703 0.12733 0.0
N1030 N 0.46703 0.94019 0.10584 0.0
N1031 N 0.50452 0.0503 0.22597 0.0
C1032 C 0.48341 0.96872 0.13477 0.0
C1033 C 0.49767 0.02413 0.19582 0.0
N1034 N 0.47641 0.92494 0.18046 0.0
N1035 N 0.50724 0.06844 0.14925 0.0
H1036 H 0.50134 0.04355 0.25395 0.0
H1037 H 0.51561 0.07903 0.22408 0.0
H1038 H 0.50625 0.07492 0.12136 0.0
H1039 H 0.50863 0.08898 0.16916 0.0
H1040 H 0.47753 0.9061 0.16026 0.0
H1041 H 0.47365 0.91626 0.20772 0.0
H1042 H 0.45467 0.91173 0.10978 0.0
H1043 H 0.45974 0.94459 0.07927 0.0
C1044 C 0.0313 0.51695 0.19941 0.0
C1045 C 0.06002 0.51111 0.20473 0.0
C1046 C 0.04693 0.48382 0.13787 0.0
C1047 C 0.02275 0.49596 0.13071 0.0
N1048 N 0.99886 0.53339 0.15527 0.0
N1049 N 0.10062 0.49871 0.17382 0.0
C1050 C 0.01686 0.51526 0.16162 0.0
C1051 C 0.06954 0.49752 0.17239 0.0
N1052 N 0.01645 0.52221 0.23005 0.0
N1053 N 0.04702 0.45726 0.11303 0.0
H1054 H 0.11923 0.51119 0.19755 0.0
H1055 H 0.10929 0.49135 0.14979 0.0
H1056 H 0.02916 0.44456 0.08887 0.0
H1057 H 0.06224 0.44521 0.11886 0.0
H1058 H 0.99373 0.52344 0.22712 0.0
H1059 H 0.02422 0.52071 0.258 0.0
H1060 H 0.99664 0.55036 0.17679 0.0
H1061 H 0.98981 0.53529 0.1281 0.0
C1062 C 0.50061 0.56107 0.15632 0.0
C1063 C 0.50264 0.53864 0.18386 0.0
C1064 C 0.52386 0.51053 0.13681 0.0
C1065 C 0.52696 0.53734 0.11179 0.0
N1066 N 0.52735 0.59509 0.10389 0.0
N1067 N 0.52129 0.49555 0.20217 0.0
C1068 C 0.5174 0.56427 0.12295 0.0
C1069 C 0.5154 0.51401 0.17458 0.0
N1070 N 0.48291 0.57965 0.16215 0.0
N1071 N 0.52855 0.48149 0.12443 0.0
H1072 H 0.51627 0.49793 0.23031 0.0
H1073 H 0.534 0.48048 0.19792 0.0
H1074 H 0.5348 0.47813 0.09703 0.0
H1075 H 0.52314 0.45896 0.14006 0.0
H1076 H 0.47826 0.59383 0.14131 0.0
H1077 H 0.46985 0.57752 0.18616 0.0
H1078 H 0.52344 0.61721 0.11252 0.0
H1079 H 0.54424 0.60099 0.08324 0.0
C1080 C 1.00101 0.50754 0.85057 0.0
C1081 C 0.96615 0.47789 0.8397 0.0
C1082 C 0.9665 0.45369 0.90098 0.0
C1083 C 0.99906 0.48626 0.91432 0.0
N1084 N 0.04493 0.5477 0.90256 0.0
N1085 N 0.91302 0.42874 0.85962 0.0
C1086 C 0.01555 0.51437 0.88939 0.0
C1087 C 0.94798 0.45311 0.8667 0.0
N1088 N 0.02117 0.52766 0.82367 0.0
N1089 N 0.95462 0.42175 0.91871 0.0
H1090 H 0.8983 0.42841 0.83533 0.0
H1091 H 0.89835 0.41219 0.87996 0.0
H1092 H 0.97021 0.41867 0.93951 0.0
H1093 H 0.93197 0.39658 0.90847 0.0
H1094 H 0.04769 0.54683 0.82964 0.0
H1095 H 0.01248 0.52248 0.79467 0.0
H1096 H 0.05568 0.57059 0.88667 0.0
H1097 H 0.05686 0.5537 0.93042 0.0
C1098 C 0.53129 0.47543 0.853 0.0
C1099 C 0.54856 0.50599 0.831 0.0
C1100 C 0.54156 0.54703 0.87916 0.0
C1101 C 0.52199 0.51561 0.89919 0.0
N1102 N 0.48852 0.44799 0.89741 0.0
N1103 N 0.56195 0.5686 0.81866 0.0
C1104 C 0.51391 0.47919 0.88378 0.0
C1105 C 0.55147 0.54127 0.84283 0.0
N1106 N 0.53266 0.44329 0.84572 0.0
N1107 N 0.55123 0.58244 0.89505 0.0
H1108 H 0.56763 0.56485 0.79111 0.0
H1109 H 0.56144 0.5934 0.82438 0.0
H1110 H 0.54349 0.58753 0.92094 0.0
H1111 H 0.56886 0.6068 0.88385 0.0
H1112 H 0.52245 0.42127 0.8627 0.0
H1113 H 0.54713 0.44023 0.82525 0.0
H1114 H 0.47925 0.4207 0.88457 0.0
H1115 H 0.47435 0.44957 0.91907 0.0
C1116 C 0.47967 1.00341 0.84784 0.0
C1117 C 0.51509 0.02563 0.84144 0.0
C1118 C 0.53182 0.01039 0.90221 0.0
C1119 C 0.49747 0.99481 0.91178 0.0
N1120 N 0.43874 0.98126 0.89465 0.0
N1121 N 0.57579 0.0533 0.86725 0.0
C1122 C 0.47128 0.99249 0.88485 0.0
C1123 C 0.54134 0.02997 0.8697 0.0
N1124 N 0.45396 0.99109 0.81827 0.0
N1125 N 0.55574 0.00647 0.92405 0.0
H1126 H 0.58573 0.07127 0.84612 0.0
H1127 H 0.58573 0.07127 0.84612 0.0
H1128 H 0.54904 0.98965 0.9464 0.0
H1129 H 0.58135 0.01769 0.91779 0.0
H1130 H 0.42798 0.97196 0.82083 0.0
H1131 H 0.45897 0.99635 0.79021 0.0
H1132 H 0.42024 0.98348 0.87737 0.0
H1133 H 0.43104 0.97282 0.92118 0.0
C1134 C 0.16238 0.3512 0.53051 0.0
C1135 C 0.14882 0.31277 0.53603 0.0
C1136 C 0.14772 0.29735 0.46755 0.0
C1137 C 0.16132 0.336 0.4615 0.0
N1138 N 0.16984 0.39635 0.48604 0.0
N1139 N 0.12451 0.24819 0.50974 0.0
C1140 C 0.16556 0.3621 0.49274 0.0
C1141 C 0.14091 0.28567 0.5046 0.0
N1142 N 0.1726 0.37741 0.56156 0.0
N1143 N 0.13893 0.27094 0.4374 0.0
H1144 H 0.11959 0.23836 0.53641 0.0
H1145 H 0.11408 0.22636 0.48758 0.0
H1146 H 0.12733 0.27274 0.41193 0.0
H1147 H 0.13843 0.24559 0.43934 0.0
H1148 H 0.18619 0.40635 0.55995 0.0
H1149 H 0.1702 0.37024 0.58945 0.0
H1150 H 0.17013 0.41539 0.50713 0.0
H1151 H 0.16839 0.40374 0.45862 0.0
C1152 C 0.69511 0.79764 0.52012 0.0
C1153 C 0.71232 0.83493 0.53919 0.0
C1154 C 0.68564 0.85298 0.48815 0.0
C1155 C 0.67666 0.81917 0.46505 0.0
N1156 N 0.66996 0.75724 0.4604 0.0
N1157 N 0.69526 0.88095 0.55303 0.0
C1158 C 0.68044 0.79081 0.48146 0.0
C1159 C 0.69975 0.85844 0.5268 0.0
N1160 N 0.68726 0.76805 0.54068 0.0
N1161 N 0.68142 0.88035 0.47328 0.0
H1162 H 0.69823 0.87923 0.58225 0.0
H1163 H 0.68341 0.8963 0.54591 0.0
H1164 H 0.6708 0.87753 0.44529 0.0
H1165 H 0.69114 0.907 0.48804 0.0
H1166 H 0.67207 0.73995 0.52914 0.0
H1167 H 0.69152 0.77184 0.57043 0.0
H1168 H 0.67591 0.73744 0.46963 0.0
H1169 H 0.65689 0.75017 0.43298 0.0
C1170 C 0.17889 0.89891 0.50078 0.0
C1171 C 0.18082 0.8768 0.52874 0.0
C1172 C 0.19118 0.84 0.47901 0.0
C1173 C 0.19509 0.86633 0.45289 0.0
N1174 N 0.2041 0.92845 0.44574 0.0
N1175 N 0.19498 0.82978 0.54546 0.0
C1176 C 0.19166 0.8977 0.46536 0.0
C1177 C 0.18842 0.84804 0.51815 0.0
N1178 N 0.16541 0.92163 0.50819 0.0
N1179 N 0.18961 0.80707 0.46656 0.0
H1180 H 0.19437 0.83548 0.57448 0.0
H1181 H 0.20423 0.8115 0.53961 0.0
H1182 H 0.19144 0.80003 0.43827 0.0
H1183 H 0.18322 0.78529 0.48358 0.0
H1184 H 0.16105 0.93605 0.48739 0.0
H1185 H 0.15523 0.92272 0.53371 0.0
H1186 H 0.20421 0.95299 0.45518 0.0
H1187 H 0.21958 0.93177 0.42399 0.0
C1188 C 0.60688 0.78102 0.19856 0.0
C1189 C 0.62801 0.80388 0.17191 0.0
C1190 C 0.67644 0.83629 0.22332 0.0
C1191 C 0.65681 0.80913 0.24796 0.0
N1192 N 0.60671 0.7478 0.2519 0.0
N1193 N 0.68573 0.84903 0.15783 0.0
C1194 C 0.62272 0.77951 0.23391 0.0
C1195 C 0.66359 0.8306 0.18398 0.0
N1196 N 0.57166 0.76025 0.19 0.0
N1197 N 0.70713 0.86782 0.23738 0.0
H1198 H 0.67797 0.84477 0.12863 0.0
H1199 H 0.71252 0.86576 0.16473 0.0
H1200 H 0.71738 0.8732 0.2659 0.0
H1201 H 0.72063 0.89025 0.2215 0.0
H1202 H 0.55504 0.74545 0.20991 0.0
H1203 H 0.55909 0.7612 0.16456 0.0
H1204 H 0.58274 0.72444 0.24128 0.0
H1205 H 0.61997 0.74242 0.27338 0.0
C1206 C 0.20845 0.86852 0.17851 0.0
C1207 C 0.20547 0.83311 0.16727 0.0
C1208 C 0.17513 0.80862 0.22342 0.0
C1209 C 0.18345 0.84544 0.2378 0.0
N1210 N 0.21079 0.91159 0.23046 0.0
N1211 N 0.19128 0.77131 0.18344 0.0
C1212 C 0.20085 0.87575 0.2157 0.0
C1213 C 0.19022 0.80362 0.19095 0.0
N1214 N 0.21689 0.89459 0.1531 0.0
N1215 N 0.15156 0.77816 0.2397 0.0
H1216 H 0.20378 0.76724 0.16126 0.0
H1217 H 0.1828 0.75016 0.2015 0.0
H1218 H 0.13878 0.7806 0.26244 0.0
H1219 H 0.14203 0.75045 0.22804 0.0
H1220 H 0.2162 0.91932 0.15848 0.0
H1221 H 0.22102 0.88976 0.12509 0.0
H1222 H 0.22707 0.93535 0.21752 0.0
H1223 H 0.20477 0.91777 0.25704 0.0
C1224 C 0.2096 0.3677 0.20507 0.0
C1225 C 0.1835 0.36261 0.17626 0.0
C1226 C 0.13918 0.32937 0.21905 0.0
C1227 C 0.16505 0.3319 0.24651 0.0
N1228 N 0.22246 0.34122 0.2585 0.0
N1229 N 0.12263 0.32654 0.152 0.0
C1230 C 0.1996 0.34738 0.23739 0.0
C1231 C 0.14798 0.33982 0.18207 0.0
N1232 N 0.24378 0.39297 0.20268 0.0
N1233 N 0.10644 0.31806 0.2282 0.0
H1234 H 0.1281 0.33112 0.12395 0.0
H1235 H 0.09665 0.30721 0.15432 0.0
H1236 H 0.09853 0.31007 0.25479 0.0
H1237 H 0.08804 0.31986 0.21028 0.0
H1238 H 0.26335 0.39917 0.22437 0.0
H1239 H 0.25218 0.41048 0.181 0.0
H1240 H 0.24721 0.3492 0.25108 0.0
H1241 H 0.21514 0.32447 0.28089 0.0
C1242 C 0.79369 0.64782 0.81978 0.0
C1243 C 0.81329 0.64322 0.85005 0.0
C1244 C 0.86721 0.69102 0.82705 0.0
C1245 C 0.84724 0.69283 0.79503 0.0
N1246 N 0.79371 0.6906 0.77595 0.0
N1247 N 0.8678 0.67033 0.88984 0.0
C1248 C 0.81109 0.67688 0.79615 0.0
C1249 C 0.8499 0.66769 0.85584 0.0
N1250 N 0.75874 0.62352 0.81226 0.0
N1251 N 0.90258 0.71231 0.83076 0.0
H1252 H 0.8557 0.65533 0.91229 0.0
H1253 H 0.89398 0.68995 0.89745 0.0
H1254 H 0.91593 0.73615 0.81671 0.0
H1255 H 0.91861 0.70703 0.84878 0.0
H1256 H 0.74345 0.62581 0.79046 0.0
H1257 H 0.74542 0.59899 0.82533 0.0
H1258 H 0.76764 0.68178 0.7777 0.0
H1259 H 0.80681 0.71472 0.76215 0.0
C1260 C 0.37141 0.14181 0.85155 0.0
C1261 C 0.38911 0.17786 0.87338 0.0
C1262 C 0.3749 0.204 0.81899 0.0
C1263 C 0.36396 0.17008 0.79513 0.0
N1264 N 0.35134 0.10573 0.7893 0.0
N1265 N 0.37634 0.22784 0.8833 0.0
C1266 C 0.36205 0.1387 0.81161 0.0
C1267 C 0.38281 0.20559 0.85899 0.0
N1268 N 0.35808 0.11015 0.86992 0.0
N1269 N 0.37687 0.23458 0.80395 0.0
H1270 H 0.37186 0.22218 0.91141 0.0
H1271 H 0.36897 0.24658 0.87409 0.0
H1272 H 0.36998 0.23436 0.77514 0.0
H1273 H 0.38789 0.26091 0.81989 0.0
H1274 H 0.34218 0.08301 0.85607 0.0
H1275 H 0.35849 0.11164 0.89955 0.0
H1276 H 0.35349 0.08358 0.79898 0.0
H1277 H 0.34256 0.10161 0.76048 0.0
C1278 C 0.8433 0.17816 0.84591 0.0
C1279 C 0.83549 0.20675 0.8565 0.0
C1280 C 0.84921 0.22969 0.79417 0.0
C1281 C 0.85286 0.19851 0.78149 0.0
N1282 N 0.8467 0.13876 0.79434 0.0
N1283 N 0.82184 0.25293 0.83618 0.0
C1284 C 0.84774 0.17133 0.80705 0.0
C1285 C 0.83509 0.22998 0.82895 0.0
N1286 N 0.84852 0.1589 0.8731 0.0
N1287 N 0.86282 0.26113 0.7756 0.0
H1288 H 0.81089 0.25352 0.86126 0.0
H1289 H 0.81849 0.26815 0.81557 0.0
H1290 H 0.87938 0.26503 0.7549 0.0
H1291 H 0.86277 0.28555 0.7852 0.0
H1292 H 0.85797 0.14076 0.86753 0.0
H1293 H 0.84659 0.16359 0.90195 0.0
H1294 H 0.83937 0.11633 0.81067 0.0
H1295 H 0.85008 0.13271 0.76638 0.0
C1296 C 0.28776 0.1258 0.53249 0.0
C1297 C 0.306 0.14729 0.50346 0.0
C1298 C 0.35712 0.18446 0.55118 0.0
C1299 C 0.34037 0.15882 0.57829 0.0
N1300 N 0.29387 0.09634 0.58631 0.0
N1301 N 0.36137 0.19274 0.48406 0.0
C1302 C 0.3066 0.12722 0.56691 0.0
C1303 C 0.34162 0.17565 0.51247 0.0
N1304 N 0.25245 0.10348 0.52715 0.0
N1305 N 0.38753 0.21744 0.56214 0.0
H1306 H 0.35172 0.18611 0.45528 0.0
H1307 H 0.38819 0.21072 0.48877 0.0
H1308 H 0.39984 0.22507 0.58993 0.0
H1309 H 0.39878 0.23872 0.54439 0.0
H1310 H 0.238 0.08946 0.54889 0.0
H1311 H 0.23762 0.10239 0.50257 0.0
H1312 H 0.27014 0.0718 0.5777 0.0
H1313 H 0.30974 0.09288 0.60632 0.0
C1314 C 0.89883 0.19198 0.53153 0.0
C1315 C 0.87505 0.16472 0.50144 0.0
C1316 C 0.82709 0.15703 0.53765 0.0
C1317 C 0.8512 0.18671 0.56552 0.0
N1318 N 0.90774 0.24203 0.57847 0.0
N1319 N 0.81572 0.13069 0.4715 0.0
C1320 C 0.88636 0.20732 0.55905 0.0
C1321 C 0.83882 0.15002 0.50309 0.0
N1322 N 0.93285 0.2015 0.53586 0.0
N1323 N 0.79342 0.13461 0.54445 0.0
H1324 H 0.82346 0.12722 0.44503 0.0
H1325 H 0.78944 0.12207 0.47059 0.0
H1326 H 0.78372 0.1387 0.56925 0.0
H1327 H 0.77596 0.11018 0.52668 0.0
H1328 H 0.9502 0.21973 0.55892 0.0
H1329 H 0.94244 0.18753 0.51961 0.0
H1330 H 0.93326 0.25933 0.57262 0.0
H1331 H 0.89846 0.2548 0.59703 0.0
C1332 C 0.82981 0.65624 0.51199 0.0
C1333 C 0.85661 0.69227 0.50461 0.0
C1334 C 0.87414 0.71061 0.57323 0.0
C1335 C 0.84645 0.67527 0.58113 0.0
N1336 N 0.80512 0.61072 0.55785 0.0
N1337 N 0.90882 0.75084 0.52732 0.0
C1338 C 0.82644 0.64692 0.55033 0.0
C1339 C 0.88028 0.71842 0.53498 0.0
N1340 N 0.80701 0.63132 0.48236 0.0
N1341 N 0.89379 0.73757 0.60245 0.0
H1342 H 0.9134 0.7586 0.49985 0.0
H1343 H 0.92934 0.76891 0.54781 0.0
H1344 H 0.89463 0.7302 0.62958 0.0
H1345 H 0.90958 0.7661 0.59967 0.0
H1346 H 0.78436 0.60656 0.48598 0.0
H1347 H 0.80991 0.63636 0.45388 0.0
H1348 H 0.7919 0.5879 0.53683 0.0
H1349 H 0.80358 0.6029 0.58549 0.0
loop_
_geom_bond_atom_site_label_1
_geom_bond_atom_site_label_2
_geom_bond_distance
_geom_bond_site_symmetry_2
_ccdc_geom_bond_type
H0 C3 0.929 . S
H1 C6 0.929 . S
H2 C8 0.930 . S
C3 H0 0.929 . S
C3 C4 1.398 . S
C3 C5 1.396 . S
C4 C3 1.398 . S
C4 C8 1.407 . S
C5 C3 1.396 . S
C5 C6 1.394 . S
C6 H1 0.929 . S
C6 C5 1.394 . S
C6 C7 1.382 . S
C7 C6 1.382 . S
C7 C8 1.392 . S
C7 N9 1.420 . S
C8 H2 0.930 . S
C8 C4 1.407 . S
C8 C7 1.392 . S
N9 C7 1.420 . S
N9 C10 1.244 . S
C10 N9 1.244 . S
H11 C14 0.929 . S
H12 C17 0.929 . S
H13 C19 0.930 . S
C14 H11 0.929 . S
C14 C15 1.398 . S
C14 C16 1.396 . S
C15 C14 1.398 . S
C15 C19 1.407 . S
C16 C14 1.396 . S
C16 C17 1.394 . S
C17 H12 0.929 . S
C17 C16 1.394 . S
C17 C18 1.382 . S
C18 C17 1.382 . S
C18 C19 1.392 . S
C18 N20 1.420 . S
C19 H13 0.930 . S
C19 C15 1.407 . S
C19 C18 1.392 . S
N20 C18 1.420 . S
N20 C21 1.244 . S
C21 N20 1.244 . S
H22 C25 0.929 . S
H23 C28 0.929 . S
H24 C30 0.930 . S
C25 H22 0.929 . S
C25 C26 1.398 . S
C25 C27 1.396 . S
C26 C25 1.398 . S
C26 C30 1.407 . S
C27 C25 1.396 . S
C27 C28 1.394 . S
C28 H23 0.929 . S
C28 C27 1.394 . S
C28 C29 1.382 . S
C29 C28 1.382 . S
C29 C30 1.392 . S
C29 N31 1.420 . S
C30 H24 0.930 . S
C30 C26 1.407 . S
C30 C29 1.392 . S
N31 C29 1.420 . S
N31 C32 1.244 . S
C32 N31 1.244 . S
H33 C36 0.929 . S
H34 C39 0.929 . S
H35 C41 0.930 . S
C36 H33 0.929 . S
C36 C37 1.398 . S
C36 C38 1.396 . S
C37 C36 1.398 . S
C37 C41 1.407 . S
C38 C36 1.396 . S
C38 C39 1.394 . S
C39 H34 0.929 . S
C39 C38 1.394 . S
C39 C40 1.382 . S
C40 C39 1.382 . S
C40 C41 1.392 . S
C40 N42 1.420 . S
C41 H35 0.930 . S
C41 C37 1.407 . S
C41 C40 1.392 . S
N42 C40 1.420 . S
N42 C43 1.244 . S
C43 N42 1.244 . S
H44 C47 0.929 . S
H45 C50 0.929 . S
H46 C52 0.930 . S
C47 H44 0.929 . S
C47 C48 1.398 . S
C47 C49 1.396 . S
C48 C47 1.398 . S
C48 C52 1.407 . S
C49 C47 1.396 . S
C49 C50 1.394 . S
C50 H45 0.929 . S
C50 C49 1.394 . S
C50 C51 1.382 . S
C51 C50 1.382 . S
C51 C52 1.392 . S
C51 N53 1.420 . S
C52 H46 0.930 . S
C52 C48 1.407 . S
C52 C51 1.392 . S
N53 C51 1.420 . S
N53 C54 1.244 . S
C54 N53 1.244 . S
H55 C58 0.929 . S
H56 C61 0.929 . S
H57 C63 0.930 . S
C58 H55 0.929 . S
C58 C59 1.398 . S
C58 C60 1.396 . S
C59 C58 1.398 . S
C59 C63 1.407 . S
C60 C58 1.396 . S
C60 C61 1.394 . S
C61 H56 0.929 . S
C61 C60 1.394 . S
C61 C62 1.382 . S
C62 C61 1.382 . S
C62 C63 1.392 . S
C62 N64 1.420 . S
C63 H57 0.930 . S
C63 C59 1.407 . S
C63 C62 1.392 . S
N64 C62 1.420 . S
N64 C65 1.244 . S
C65 N64 1.244 . S
H66 C69 0.929 . S
H67 C72 0.929 . S
H68 C74 0.930 . S
C69 H66 0.929 . S
C69 C70 1.398 . S
C69 C71 1.396 . S
C70 C69 1.398 . S
C70 C74 1.407 . S
C71 C69 1.396 . S
C71 C72 1.394 . S
C72 H67 0.929 . S
C72 C71 1.394 . S
C72 C73 1.382 . S
C73 C72 1.382 . S
C73 C74 1.392 . S
C73 N75 1.420 . S
C74 H68 0.930 . S
C74 C70 1.407 . S
C74 C73 1.392 . S
N75 C73 1.420 . S
N75 C76 1.244 . S
C76 N75 1.244 . S
H77 C80 0.929 . S
H78 C83 0.929 . S
H79 C85 0.930 . S
C80 H77 0.929 . S
C80 C81 1.398 . S
C80 C82 1.396 . S
C81 C80 1.398 . S
C81 C85 1.407 . S
C82 C80 1.396 . S
C82 C83 1.394 . S
C83 H78 0.929 . S
C83 C82 1.394 . S
C83 C84 1.382 . S
C84 C83 1.382 . S
C84 C85 1.392 . S
C84 N86 1.420 . S
C85 H79 0.930 . S
C85 C81 1.407 . S
C85 C84 1.392 . S
N86 C84 1.420 . S
N86 C87 1.244 . S
C87 N86 1.244 . S
H88 C91 0.929 . S
H89 C94 0.929 . S
H90 C96 0.930 . S
C91 H88 0.929 . S
C91 C92 1.398 . S
C91 C93 1.396 . S
C92 C91 1.398 . S
C92 C96 1.407 . S
C93 C91 1.396 . S
C93 C94 1.394 . S
C94 H89 0.929 . S
C94 C93 1.394 . S
C94 C95 1.382 . S
C95 C94 1.382 . S
C95 C96 1.392 . S
C95 N97 1.420 . S
C96 H90 0.930 . S
C96 C92 1.407 . S
C96 C95 1.392 . S
N97 C95 1.420 . S
N97 C98 1.244 . S
C98 N97 1.244 . S
H99 C102 0.929 . S
H100 C105 0.929 . S
H101 C107 0.930 . S
C102 H99 0.929 . S
C102 C103 1.398 . S
C102 C104 1.396 . S
C103 C102 1.398 . S
C103 C107 1.407 . S
C104 C102 1.396 . S
C104 C105 1.394 . S
C105 H100 0.929 . S
C105 C104 1.394 . S
C105 C106 1.382 . S
C106 C105 1.382 . S
C106 C107 1.392 . S
C106 N108 1.420 . S
C107 H101 0.930 . S
C107 C103 1.407 . S
C107 C106 1.392 . S
N108 C106 1.420 . S
N108 C109 1.244 . S
C109 N108 1.244 . S
H110 C113 0.929 . S
H111 C116 0.929 . S
H112 C118 0.930 1_554 S
C113 H110 0.929 . S
C113 C114 1.398 . S
C113 C115 1.396 . S
C114 C113 1.398 . S
C114 C118 1.407 . S
C115 C113 1.396 . S
C115 C116 1.394 . S
C116 H111 0.929 . S
C116 C115 1.394 . S
C116 C117 1.382 . S
C117 C116 1.382 . S
C117 C118 1.392 . S
C117 N119 1.420 . S
C118 H112 0.930 1_556 S
C118 C114 1.407 . S
C118 C117 1.392 . S
N119 C117 1.420 . S
N119 C120 1.244 . S
C120 N119 1.244 . S
H121 C124 0.929 . S
H122 C127 0.929 . S
H123 C129 0.930 . S
C124 H121 0.929 . S
C124 C125 1.398 . S
C124 C126 1.396 . S
C125 C124 1.398 . S
C125 C129 1.407 . S
C126 C124 1.396 . S
C126 C127 1.394 . S
C127 H122 0.929 . S
C127 C126 1.394 . S
C127 C128 1.382 . S
C128 C127 1.382 . S
C128 C129 1.392 . S
C128 N130 1.420 . S
C129 H123 0.930 . S
C129 C125 1.407 . S
C129 C128 1.392 . S
N130 C128 1.420 . S
N130 C131 1.244 . S
C131 N130 1.244 . S
H132 C135 0.929 . S
H133 C138 0.929 . S
H134 C140 0.930 . S
C135 H132 0.929 . S
C135 C136 1.398 . S
C135 C137 1.396 . S
C136 C135 1.398 . S
C136 C140 1.407 . S
C137 C135 1.396 . S
C137 C138 1.394 . S
C138 H133 0.929 . S
C138 C137 1.394 . S
C138 C139 1.382 . S
C139 C138 1.382 . S
C139 C140 1.392 . S
C139 N141 1.420 . S
C140 H134 0.930 . S
C140 C136 1.407 . S
C140 C139 1.392 . S
N141 C139 1.420 . S
N141 C142 1.244 . S
C142 N141 1.244 . S
H143 C146 0.929 . S
H144 C149 0.929 . S
H145 C151 0.930 . S
C146 H143 0.929 . S
C146 C147 1.398 . S
C146 C148 1.396 . S
C147 C146 1.398 . S
C147 C151 1.407 . S
C148 C146 1.396 . S
C148 C149 1.394 . S
C149 H144 0.929 . S
C149 C148 1.394 . S
C149 C150 1.382 . S
C150 C149 1.382 . S
C150 C151 1.392 . S
C150 N152 1.420 . S
C151 H145 0.930 . S
C151 C147 1.407 . S
C151 C150 1.392 . S
N152 C150 1.420 . S
N152 C153 1.244 . S
C153 N152 1.244 . S
H154 C157 0.929 . S
H155 C160 0.929 . S
H156 C162 0.930 . S
C157 H154 0.929 . S
C157 C158 1.398 . S
C157 C159 1.396 . S
C158 C157 1.398 . S
C158 C162 1.407 . S
C159 C157 1.396 . S
C159 C160 1.394 . S
C160 H155 0.929 . S
C160 C159 1.394 . S
C160 C161 1.382 . S
C161 C160 1.382 . S
C161 C162 1.392 . S
C161 N163 1.420 . S
C162 H156 0.930 . S
C162 C158 1.407 . S
C162 C161 1.392 . S
N163 C161 1.420 . S
N163 C164 1.244 . S
C164 N163 1.244 . S
H165 C168 0.929 . S
H166 C171 0.929 . S
H167 C173 0.930 . S
C168 H165 0.929 . S
C168 C169 1.398 . S
C168 C170 1.396 . S
C169 C168 1.398 . S
C169 C173 1.407 . S
C170 C168 1.396 . S
C170 C171 1.394 . S
C171 H166 0.929 . S
C171 C170 1.394 . S
C171 C172 1.382 . S
C172 C171 1.382 . S
C172 C173 1.392 . S
C172 N174 1.420 . S
C173 H167 0.930 . S
C173 C169 1.407 . S
C173 C172 1.392 . S
N174 C172 1.420 . S
N174 C175 1.244 . S
C175 N174 1.244 . S
H176 C179 0.929 . S
H177 C182 0.929 . S
H178 C184 0.930 . S
C179 H176 0.929 . S
C179 C180 1.398 . S
C179 C181 1.396 . S
C180 C179 1.398 . S
C180 C184 1.407 . S
C181 C179 1.396 . S
C181 C182 1.394 . S
C182 H177 0.929 . S
C182 C181 1.394 . S
C182 C183 1.382 . S
C183 C182 1.382 . S
C183 C184 1.392 . S
C183 N185 1.420 . S
C184 H178 0.930 . S
C184 C180 1.407 . S
C184 C183 1.392 . S
N185 C183 1.420 . S
N185 C186 1.244 . S
C186 N185 1.244 . S
H187 C190 0.929 . S
H188 C193 0.929 . S
H189 C195 0.930 . S
C190 H187 0.929 . S
C190 C191 1.398 . S
C190 C192 1.396 . S
C191 C190 1.398 . S
C191 C195 1.407 . S
C192 C190 1.396 . S
C192 C193 1.394 . S
C193 H188 0.929 . S
C193 C192 1.394 . S
C193 C194 1.382 . S
C194 C193 1.382 . S
C194 C195 1.392 . S
C194 N196 1.420 . S
C195 H189 0.930 . S
C195 C191 1.407 . S
C195 C194 1.392 . S
N196 C194 1.420 . S
N196 C197 1.244 . S
C197 N196 1.244 . S
Tb198 O201 2.453 . S
Tb198 O202 2.596 1_545 S
Tb198 O203 2.374 1_545 S
Tb198 O211 2.343 1_554 S
Tb198 O213 2.353 . S
Tb198 O215 2.427 . S
Tb198 O216 2.513 1_554 S
C199 O203 1.251 . S
C199 O205 1.263 1_554 S
Tb200 O202 2.343 1_556 S
Tb200 O205 2.353 . S
Tb200 O208 2.427 1_556 S
Tb200 O209 2.513 1_556 S
Tb200 O210 2.453 . S
Tb200 O211 2.596 1_565 S
Tb200 O212 2.374 1_565 S
O201 Tb198 2.453 . S
O201 C217 1.245 1_545 S
O202 Tb198 2.596 1_565 S
O202 Tb200 2.343 1_554 S
O202 C217 1.259 . S
O203 Tb198 2.374 1_565 S
O203 C199 1.251 . S
C204 O208 1.275 . S
C204 O209 1.246 . S
O205 C199 1.263 1_556 S
O205 Tb200 2.353 . S
C206 O210 1.245 1_545 S
C206 O211 1.259 . S
C207 O212 1.250 1_554 S
C207 O213 1.263 . S
O208 Tb200 2.427 1_554 S
O208 C204 1.275 . S
O209 Tb200 2.513 1_554 S
O209 C204 1.246 . S
O210 Tb200 2.453 . S
O210 C206 1.245 1_565 S
O211 Tb198 2.343 1_556 S
O211 Tb200 2.596 1_545 S
O211 C206 1.259 . S
O212 Tb200 2.374 1_545 S
O212 C207 1.250 1_556 S
O213 Tb198 2.353 . S
O213 C207 1.263 . S
C214 O215 1.275 1_556 S
C214 O216 1.246 . S
O215 Tb198 2.427 . S
O215 C214 1.275 1_554 S
O216 Tb198 2.513 1_556 S
O216 C214 1.246 . S
C217 O201 1.245 1_565 S
C217 O202 1.259 . S
Tb218 O221 2.453 . S
Tb218 O222 2.596 1_655 S
Tb218 O223 2.374 1_655 S
Tb218 O231 2.343 1_554 S
Tb218 O233 2.353 . S
Tb218 O235 2.427 1_554 S
Tb218 O236 2.513 1_554 S
C219 O223 1.251 . S
C219 O225 1.263 1_554 S
Tb220 O222 2.343 1_556 S
Tb220 O225 2.353 . S
Tb220 O228 2.427 1_556 S
Tb220 O229 2.513 1_556 S
Tb220 O230 2.453 . S
Tb220 O231 2.596 1_455 S
Tb220 O232 2.374 1_455 S
O221 Tb218 2.453 . S
O221 C237 1.245 1_655 S
O222 Tb218 2.596 1_455 S
O222 Tb220 2.343 1_554 S
O222 C237 1.259 . S
O223 Tb218 2.374 1_455 S
O223 C219 1.251 . S
C224 O228 1.275 . S
C224 O229 1.246 . S
O225 C219 1.263 1_556 S
O225 Tb220 2.353 . S
C226 O230 1.245 1_655 S
C226 O231 1.259 . S
C227 O232 1.250 . S
C227 O233 1.263 1_556 S
O228 Tb220 2.427 1_554 S
O228 C224 1.275 . S
O229 Tb220 2.513 1_554 S
O229 C224 1.246 . S
O230 Tb220 2.453 . S
O230 C226 1.245 1_455 S
O231 Tb218 2.343 1_556 S
O231 Tb220 2.596 1_655 S
O231 C226 1.259 . S
O232 Tb220 2.374 1_655 S
O232 C227 1.250 . S
O233 Tb218 2.353 . S
O233 C227 1.263 1_554 S
C234 O235 1.275 . S
C234 O236 1.246 . S
O235 Tb218 2.427 1_556 S
O235 C234 1.275 . S
O236 Tb218 2.513 1_556 S
O236 C234 1.246 . S
C237 O221 1.245 1_455 S
C237 O222 1.259 . S
Tb238 O241 2.453 . S
Tb238 O242 2.596 . S
Tb238 O243 2.374 . S
Tb238 O251 2.343 1_556 S
Tb238 O253 2.353 . S
Tb238 O255 2.427 1_556 S
Tb238 O256 2.513 1_556 S
C239 O243 1.251 1_554 S
C239 O245 1.263 . S
Tb240 O242 2.343 1_554 S
Tb240 O245 2.353 . S
Tb240 O248 2.427 1_554 S
Tb240 O249 2.513 1_554 S
Tb240 O250 2.453 . S
Tb240 O251 2.596 . S
Tb240 O252 2.374 . S
O241 Tb238 2.453 . S
O241 C257 1.245 . S
O242 Tb238 2.596 . S
O242 Tb240 2.343 1_556 S
O242 C257 1.259 . S
O243 Tb238 2.374 . S
O243 C239 1.251 1_556 S
C244 O248 1.275 . S
C244 O249 1.246 . S
O245 C239 1.263 . S
O245 Tb240 2.353 . S
C246 O250 1.245 . S
C246 O251 1.259 . S
C247 O252 1.250 . S
C247 O253 1.263 1_554 S
O248 Tb240 2.427 1_556 S
O248 C244 1.275 . S
O249 Tb240 2.513 1_556 S
O249 C244 1.246 . S
O250 Tb240 2.453 . S
O250 C246 1.245 . S
O251 Tb238 2.343 1_554 S
O251 Tb240 2.596 . S
O251 C246 1.259 . S
O252 Tb240 2.374 . S
O252 C247 1.250 . S
O253 Tb238 2.353 . S
O253 C247 1.263 1_556 S
C254 O255 1.275 . S
C254 O256 1.246 . S
O255 Tb238 2.427 1_554 S
O255 C254 1.275 . S
O256 Tb238 2.513 1_554 S
O256 C254 1.246 . S
C257 O241 1.245 . S
C257 O242 1.259 . S
Tb258 O261 2.453 . S
Tb258 O262 2.596 . S
Tb258 O263 2.374 . S
Tb258 O271 2.343 . S
Tb258 O273 2.353 . S
Tb258 O275 2.427 . S
Tb258 O276 2.513 . S
C259 O263 1.251 . S
C259 O265 1.263 . S
Tb260 O262 2.343 . S
Tb260 O265 2.353 . S
Tb260 O268 2.427 . S
Tb260 O269 2.513 . S
Tb260 O270 2.453 . S
Tb260 O271 2.596 . S
Tb260 O272 2.374 . S
O261 Tb258 2.453 . S
O261 C277 1.245 . S
O262 Tb258 2.596 . S
O262 Tb260 2.343 . S
O262 C277 1.259 . S
O263 Tb258 2.374 . S
O263 C259 1.251 . S
C264 O268 1.275 . S
C264 O269 1.246 . S
O265 C259 1.263 . S
O265 Tb260 2.353 . S
C266 O270 1.245 . S
C266 O271 1.259 . S
C267 O272 1.250 . S
C267 O273 1.263 . S
O268 Tb260 2.427 . S
O268 C264 1.275 . S
O269 Tb260 2.513 . S
O269 C264 1.246 . S
O270 Tb260 2.453 . S
O270 C266 1.245 . S
O271 Tb258 2.343 . S
O271 Tb260 2.596 . S
O271 C266 1.259 . S
O272 Tb260 2.374 . S
O272 C267 1.250 . S
O273 Tb258 2.353 . S
O273 C267 1.263 . S
C274 O275 1.275 . S
C274 O276 1.246 . S
O275 Tb258 2.427 . S
O275 C274 1.275 . S
O276 Tb258 2.513 . S
O276 C274 1.246 . S
C277 O261 1.245 . S
C277 O262 1.259 . S
Tb278 O281 2.453 . S
Tb278 O282 2.596 . S
Tb278 O283 2.374 . S
Tb278 O291 2.343 . S
Tb278 O293 2.353 . S
Tb278 O295 2.427 . S
Tb278 O296 2.513 . S
C279 O283 1.251 . S
C279 O285 1.263 . S
Tb280 O282 2.343 . S
Tb280 O285 2.353 . S
Tb280 O288 2.427 . S
Tb280 O289 2.513 . S
Tb280 O290 2.453 . S
Tb280 O291 2.596 . S
Tb280 O292 2.374 . S
O281 Tb278 2.453 . S
O281 C297 1.245 . S
O282 Tb278 2.596 . S
O282 Tb280 2.343 . S
O282 C297 1.259 . S
O283 Tb278 2.374 . S
O283 C279 1.251 . S
C284 O288 1.275 . S
C284 O289 1.246 . S
O285 C279 1.263 . S
O285 Tb280 2.353 . S
C286 O290 1.245 . S
C286 O291 1.259 . S
C287 O292 1.250 . S
C287 O293 1.263 . S
O288 Tb280 2.427 . S
O288 C284 1.275 . S
O289 Tb280 2.513 . S
O289 C284 1.246 . S
O290 Tb280 2.453 . S
O290 C286 1.245 . S
O291 Tb278 2.343 . S
O291 Tb280 2.596 . S
O291 C286 1.259 . S
O292 Tb280 2.374 . S
O292 C287 1.250 . S
O293 Tb278 2.353 . S
O293 C287 1.263 . S
C294 O295 1.275 . S
C294 O296 1.246 . S
O295 Tb278 2.427 . S
O295 C294 1.275 . S
O296 Tb278 2.513 . S
O296 C294 1.246 . S
C297 O281 1.245 . S
C297 O282 1.259 . S
Tb298 O301 2.453 . S
Tb298 O302 2.596 . S
Tb298 O303 2.374 . S
Tb298 O311 2.343 . S
Tb298 O313 2.353 . S
Tb298 O315 2.427 . S
Tb298 O316 2.513 . S
C299 O303 1.251 . S
C299 O305 1.263 . S
Tb300 O302 2.343 . S
Tb300 O305 2.353 . S
Tb300 O308 2.427 . S
Tb300 O309 2.513 . S
Tb300 O310 2.453 . S
Tb300 O311 2.596 . S
Tb300 O312 2.374 . S
O301 Tb298 2.453 . S
O301 C317 1.245 . S
O302 Tb298 2.596 . S
O302 Tb300 2.343 . S
O302 C317 1.259 . S
O303 Tb298 2.374 . S
O303 C299 1.251 . S
C304 O308 1.275 . S
C304 O309 1.246 . S
O305 C299 1.263 . S
O305 Tb300 2.353 . S
C306 O310 1.245 . S
C306 O311 1.259 . S
C307 O312 1.250 . S
C307 O313 1.263 . S
O308 Tb300 2.427 . S
O308 C304 1.275 . S
O309 Tb300 2.513 . S
O309 C304 1.246 . S
O310 Tb300 2.453 . S
O310 C306 1.245 . S
O311 Tb298 2.343 . S
O311 Tb300 2.596 . S
O311 C306 1.259 . S
O312 Tb300 2.374 . S
O312 C307 1.250 . S
O313 Tb298 2.353 . S
O313 C307 1.263 . S
C314 O315 1.275 . S
C314 O316 1.246 . S
O315 Tb298 2.427 . S
O315 C314 1.275 . S
O316 Tb298 2.513 . S
O316 C314 1.246 . S
C317 O301 1.245 . S
C317 O302 1.259 . S
Tb318 O321 2.453 . S
Tb318 O322 2.596 . S
Tb318 O323 2.374 . S
Tb318 O331 2.343 . S
Tb318 O333 2.353 . S
Tb318 O335 2.427 . S
Tb318 O336 2.513 . S
C319 O323 1.251 . S
C319 O325 1.263 . S
Tb320 O322 2.343 . S
Tb320 O325 2.353 . S
Tb320 O328 2.427 . S
Tb320 O329 2.513 . S
Tb320 O330 2.453 . S
Tb320 O331 2.596 . S
Tb320 O332 2.374 . S
O321 Tb318 2.453 . S
O321 C337 1.245 . S
O322 Tb318 2.596 . S
O322 Tb320 2.343 . S
O322 C337 1.259 . S
O323 Tb318 2.374 . S
O323 C319 1.251 . S
C324 O328 1.275 . S
C324 O329 1.246 . S
O325 C319 1.263 . S
O325 Tb320 2.353 . S
C326 O330 1.245 . S
C326 O331 1.259 . S
C327 O332 1.250 . S
C327 O333 1.263 . S
O328 Tb320 2.427 . S
O328 C324 1.275 . S
O329 Tb320 2.513 . S
O329 C324 1.246 . S
O330 Tb320 2.453 . S
O330 C326 1.245 . S
O331 Tb318 2.343 . S
O331 Tb320 2.596 . S
O331 C326 1.259 . S
O332 Tb320 2.374 . S
O332 C327 1.250 . S
O333 Tb318 2.353 . S
O333 C327 1.263 . S
C334 O335 1.275 . S
C334 O336 1.246 . S
O335 Tb318 2.427 . S
O335 C334 1.275 . S
O336 Tb318 2.513 . S
O336 C334 1.246 . S
C337 O321 1.245 . S
C337 O322 1.259 . S
Tb338 O341 2.453 . S
Tb338 O342 2.596 . S
Tb338 O343 2.374 . S
Tb338 O351 2.343 . S
Tb338 O353 2.353 . S
Tb338 O355 2.427 . S
Tb338 O356 2.513 . S
C339 O343 1.251 . S
C339 O345 1.263 . S
Tb340 O342 2.343 . S
Tb340 O345 2.353 . S
Tb340 O348 2.427 . S
Tb340 O349 2.513 . S
Tb340 O350 2.453 . S
Tb340 O351 2.596 . S
Tb340 O352 2.374 . S
O341 Tb338 2.453 . S
O341 C357 1.245 . S
O342 Tb338 2.596 . S
O342 Tb340 2.343 . S
O342 C357 1.259 . S
O343 Tb338 2.374 . S
O343 C339 1.251 . S
C344 O348 1.275 . S
C344 O349 1.246 . S
O345 C339 1.263 . S
O345 Tb340 2.353 . S
C346 O350 1.245 . S
C346 O351 1.259 . S
C347 O352 1.250 . S
C347 O353 1.263 . S
O348 Tb340 2.427 . S
O348 C344 1.275 . S
O349 Tb340 2.513 . S
O349 C344 1.246 . S
O350 Tb340 2.453 . S
O350 C346 1.245 . S
O351 Tb338 2.343 . S
O351 Tb340 2.596 . S
O351 C346 1.259 . S
O352 Tb340 2.374 . S
O352 C347 1.250 . S
O353 Tb338 2.353 . S
O353 C347 1.263 . S
C354 O355 1.275 . S
C354 O356 1.246 . S
O355 Tb338 2.427 . S
O355 C354 1.275 . S
O356 Tb338 2.513 . S
O356 C354 1.246 . S
C357 O341 1.245 . S
C357 O342 1.259 . S
Tb358 O361 2.453 . S
Tb358 O362 2.596 . S
Tb358 O363 2.374 . S
Tb358 O371 2.343 . S
Tb358 O373 2.353 . S
Tb358 O375 2.427 . S
Tb358 O376 2.513 . S
C359 O363 1.251 . S
C359 O365 1.263 . S
Tb360 O362 2.343 . S
Tb360 O365 2.353 . S
Tb360 O368 2.427 . S
Tb360 O369 2.513 . S
Tb360 O370 2.453 . S
Tb360 O371 2.596 . S
Tb360 O372 2.374 . S
O361 Tb358 2.453 . S
O361 C377 1.245 . S
O362 Tb358 2.596 . S
O362 Tb360 2.343 . S
O362 C377 1.259 . S
O363 Tb358 2.374 . S
O363 C359 1.251 . S
C364 O368 1.275 . S
C364 O369 1.246 . S
O365 C359 1.263 . S
O365 Tb360 2.353 . S
C366 O370 1.245 . S
C366 O371 1.259 . S
C367 O372 1.250 . S
C367 O373 1.263 . S
O368 Tb360 2.427 . S
O368 C364 1.275 . S
O369 Tb360 2.513 . S
O369 C364 1.246 . S
O370 Tb360 2.453 . S
O370 C366 1.245 . S
O371 Tb358 2.343 . S
O371 Tb360 2.596 . S
O371 C366 1.259 . S
O372 Tb360 2.374 . S
O372 C367 1.250 . S
O373 Tb358 2.353 . S
O373 C367 1.263 . S
C374 O375 1.275 . S
C374 O376 1.246 . S
O375 Tb358 2.427 . S
O375 C374 1.275 . S
O376 Tb358 2.513 . S
O376 C374 1.246 . S
C377 O361 1.245 . S
C377 O362 1.259 . S
C378 C379 1.363 . S
C378 C384 1.379 . S
C378 N386 1.356 . S
C379 C378 1.363 . S
C379 C385 1.363 . S
C380 C381 1.363 . S
C380 C385 1.379 . S
C380 N387 1.356 . S
C381 C380 1.363 . S
C381 C384 1.363 . S
N382 C384 1.356 . S
N382 H394 0.984 . S
N382 H395 0.985 . S
N383 C385 1.356 . S
N383 H388 0.984 . S
N383 H389 0.985 . S
C384 C378 1.379 . S
C384 C381 1.363 . S
C384 N382 1.356 . S
C385 C379 1.363 . S
C385 C380 1.379 . S
C385 N383 1.356 . S
N386 C378 1.356 . S
N386 H392 0.984 . S
N386 H393 0.984 . S
N387 C380 1.356 . S
N387 H390 0.984 . S
N387 H391 0.985 . S
H388 N383 0.984 . S
H389 N383 0.985 . S
H390 N387 0.984 . S
H391 N387 0.985 . S
H392 N386 0.984 . S
H393 N386 0.984 . S
H394 N382 0.984 . S
H395 N382 0.985 . S
C396 C397 1.363 . S
C396 C402 1.379 . S
C396 N404 1.356 . S
C397 C396 1.363 . S
C397 C403 1.363 . S
C398 C399 1.363 . S
C398 C403 1.379 . S
C398 N405 1.356 . S
C399 C398 1.363 . S
C399 C402 1.363 . S
N400 C402 1.356 . S
N400 H412 0.984 1_554 S
N400 H413 0.985 . S
N401 C403 1.356 . S
N401 H406 0.984 . S
N401 H407 0.985 . S
C402 C396 1.379 . S
C402 C399 1.363 . S
C402 N400 1.356 . S
C403 C397 1.363 . S
C403 C398 1.379 . S
C403 N401 1.356 . S
N404 C396 1.356 . S
N404 H410 0.984 . S
N404 H411 0.984 . S
N405 C398 1.356 . S
N405 H408 0.984 . S
N405 H409 0.985 . S
H406 N401 0.984 . S
H407 N401 0.985 . S
H408 N405 0.984 . S
H409 N405 0.985 . S
H410 N404 0.984 . S
H411 N404 0.984 . S
H412 N400 0.984 1_556 S
H413 N400 0.985 . S
C414 C415 1.363 . S
C414 C420 1.379 . S
C414 N422 1.356 . S
C415 C414 1.363 . S
C415 C421 1.363 . S
C416 C417 1.363 . S
C416 C421 1.379 . S
C416 N423 1.356 1_554 S
C417 C416 1.363 . S
C417 C420 1.363 . S
N418 C420 1.356 . S
N418 H430 0.984 . S
N418 H431 0.985 . S
N419 C421 1.356 . S
N419 H424 0.984 . S
N419 H425 0.985 1_554 S
C420 C414 1.379 . S
C420 C417 1.363 . S
C420 N418 1.356 . S
C421 C415 1.363 . S
C421 C416 1.379 . S
C421 N419 1.356 . S
N422 C414 1.356 . S
N422 H428 0.984 . S
N422 H429 0.984 . S
N423 C416 1.356 1_556 S
N423 H426 0.984 . S
N423 H427 0.985 . S
H424 N419 0.984 . S
H425 N419 0.985 1_556 S
H426 N423 0.984 . S
H427 N423 0.985 . S
H428 N422 0.984 . S
H429 N422 0.984 . S
H430 N418 0.984 . S
H431 N418 0.985 . S
C432 C433 1.363 . S
C432 C438 1.379 1_556 S
C432 N440 1.356 1_556 S
C433 C432 1.363 . S
C433 C439 1.363 . S
C434 C435 1.363 . S
C434 C439 1.379 . S
C434 N441 1.356 . S
C435 C434 1.363 . S
C435 C438 1.363 1_556 S
N436 C438 1.356 . S
N436 H448 0.984 . S
N436 H449 0.985 . S
N437 C439 1.356 . S
N437 H442 0.984 . S
N437 H443 0.985 . S
C438 C432 1.379 1_554 S
C438 C435 1.363 1_554 S
C438 N436 1.356 . S
C439 C433 1.363 . S
C439 C434 1.379 . S
C439 N437 1.356 . S
N440 C432 1.356 1_554 S
N440 H446 0.984 . S
N440 H447 0.984 1_554 S
N441 C434 1.356 . S
N441 H444 0.984 . S
N441 H445 0.985 . S
H442 N437 0.984 . S
H443 N437 0.985 . S
H444 N441 0.984 . S
H445 N441 0.985 . S
H446 N440 0.984 . S
H447 N440 0.984 1_556 S
H448 N436 0.984 . S
H449 N436 0.985 . S
C450 C451 1.363 . S
C450 C456 1.379 . S
C450 N458 1.356 . S
C451 C450 1.363 . S
C451 C457 1.363 . S
C452 C453 1.363 . S
C452 C457 1.379 . S
C452 N459 1.356 . S
C453 C452 1.363 . S
C453 C456 1.363 . S
N454 C456 1.356 1_554 S
N454 H466 0.984 . S
N454 H467 0.985 . S
N455 C457 1.356 . S
N455 H460 0.984 . S
N455 H461 0.985 . S
C456 C450 1.379 . S
C456 C453 1.363 . S
C456 N454 1.356 1_556 S
C457 C451 1.363 . S
C457 C452 1.379 . S
C457 N455 1.356 . S
N458 C450 1.356 . S
N458 H464 0.984 1_556 S
N458 H465 0.984 . S
N459 C452 1.356 . S
N459 H462 0.984 . S
N459 H463 0.985 . S
H460 N455 0.984 . S
H461 N455 0.985 . S
H462 N459 0.984 . S
H463 N459 0.985 . S
H464 N458 0.984 1_554 S
H465 N458 0.984 . S
H466 N454 0.984 . S
H467 N454 0.985 . S
C468 C469 1.363 1_554 S
C468 C474 1.379 . S
C468 N476 1.356 . S
C469 C468 1.363 1_556 S
C469 C475 1.363 . S
C470 C471 1.363 . S
C470 C475 1.379 . S
C470 N477 1.356 . S
C471 C470 1.363 . S
C471 C474 1.363 1_556 S
N472 C474 1.356 . S
N472 H484 0.984 . S
N472 H485 0.985 . S
N473 C475 1.356 . S
N473 H478 0.984 . S
N473 H479 0.985 . S
C474 C468 1.379 . S
C474 C471 1.363 1_554 S
C474 N472 1.356 . S
C475 C469 1.363 . S
C475 C470 1.379 . S
C475 N473 1.356 . S
N476 C468 1.356 . S
N476 H482 0.984 . S
N476 H483 0.984 . S
N477 C470 1.356 . S
N477 H480 0.984 . S
N477 H481 0.985 . S
H478 N473 0.984 . S
H479 N473 0.985 . S
H480 N477 0.984 . S
H481 N477 0.985 . S
H482 N476 0.984 . S
H483 N476 0.984 . S
H484 N472 0.984 . S
H485 N472 0.985 . S
C486 C487 1.363 . S
C486 C492 1.379 . S
C486 N494 1.356 . S
C487 C486 1.363 . S
C487 C493 1.363 . S
C488 C489 1.344 1_554 S
C488 C493 1.371 1_554 S
C488 N495 1.380 . S
C489 C488 1.344 1_556 S
C489 C492 1.363 . S
N490 C492 1.356 . S
N490 H502 0.984 . S
N490 H503 0.985 . S
N491 C493 1.356 1_554 S
N491 H496 0.984 . S
N491 H497 0.985 . S
C492 C486 1.379 . S
C492 C489 1.363 . S
C492 N490 1.356 . S
C493 C487 1.363 . S
C493 C488 1.371 1_556 S
C493 N491 1.356 1_556 S
N494 C486 1.356 . S
N494 H500 0.984 . S
N494 H501 0.984 . S
N495 C488 1.380 . S
N495 H498 0.984 . S
N495 H499 0.985 . S
H496 N491 0.984 . S
H497 N491 0.985 . S
H498 N495 0.984 . S
H499 N495 0.985 . S
H500 N494 0.984 . S
H501 N494 0.984 . S
H502 N490 0.984 . S
H503 N490 0.985 . S
C504 C505 1.363 . S
C504 C510 1.379 . S
C504 N512 1.356 . S
C505 C504 1.363 . S
C505 C511 1.363 . S
C506 C507 1.363 . S
C506 C511 1.379 . S
C506 N513 1.356 1_556 S
C507 C506 1.363 . S
C507 C510 1.363 . S
N508 C510 1.356 . S
N508 H520 0.984 . S
N508 H521 0.985 . S
N509 C511 1.356 . S
N509 H514 0.984 . S
N509 H515 0.985 1_556 S
C510 C504 1.379 . S
C510 C507 1.363 . S
C510 N508 1.356 . S
C511 C505 1.363 . S
C511 C506 1.379 . S
C511 N509 1.356 . S
N512 C504 1.356 . S
N512 H518 0.984 . S
N512 H519 0.984 . S
N513 C506 1.356 1_554 S
N513 H516 0.984 . S
N513 H517 0.985 . S
H514 N509 0.984 . S
H515 N509 0.985 1_554 S
H516 N513 0.984 . S
H517 N513 0.985 . S
H518 N512 0.984 . S
H519 N512 0.984 . S
H520 N508 0.984 . S
H521 N508 0.985 . S
C522 C523 1.363 1_554 S
C522 C528 1.379 . S
C522 N530 1.356 . S
C523 C522 1.363 1_556 S
C523 C529 1.363 . S
C524 C525 1.363 . S
C524 C529 1.379 . S
C524 N531 1.356 . S
C525 C524 1.363 . S
C525 C528 1.363 1_556 S
N526 C528 1.356 . S
N526 H538 0.984 . S
N526 H539 0.985 . S
N527 C529 1.356 . S
N527 H532 0.984 . S
N527 H533 0.985 . S
C528 C522 1.379 . S
C528 C525 1.363 1_554 S
C528 N526 1.356 . S
C529 C523 1.363 . S
C529 C524 1.379 . S
C529 N527 1.356 . S
N530 C522 1.356 . S
N530 H536 0.984 . S
N530 H537 0.984 . S
N531 C524 1.356 . S
N531 H534 0.984 . S
N531 H535 0.985 . S
H532 N527 0.984 . S
H533 N527 0.985 . S
H534 N531 0.984 . S
H535 N531 0.985 . S
H536 N530 0.984 . S
H537 N530 0.984 . S
H538 N526 0.984 . S
H539 N526 0.985 . S
C540 C541 1.363 . S
C540 C546 1.379 . S
C540 N548 1.356 . S
C541 C540 1.363 . S
C541 C547 1.363 . S
C542 C543 1.363 . S
C542 C547 1.379 . S
C542 N549 1.356 1_554 S
C543 C542 1.363 . S
C543 C546 1.363 . S
N544 C546 1.356 . S
N544 H556 0.984 . S
N544 H557 0.985 . S
N545 C547 1.356 1_556 S
N545 H550 0.984 1_556 S
N545 H551 0.985 . S
C546 C540 1.379 . S
C546 C543 1.363 . S
C546 N544 1.356 . S
C547 C541 1.363 . S
C547 C542 1.379 . S
C547 N545 1.356 1_554 S
N548 C540 1.356 . S
N548 H554 0.984 . S
N548 H555 0.984 . S
N549 C542 1.356 1_556 S
N549 H552 0.984 . S
N549 H553 0.985 . S
H550 N545 0.984 1_554 S
H551 N545 0.985 . S
H552 N549 0.984 . S
H553 N549 0.985 . S
H554 N548 0.984 . S
H555 N548 0.984 . S
H556 N544 0.984 . S
H557 N544 0.985 . S
C558 C559 1.363 . S
C558 C564 1.379 . S
C558 N566 1.356 . S
C559 C558 1.363 . S
C559 C565 1.363 . S
C560 C561 1.363 . S
C560 C565 1.379 . S
C560 N567 1.356 . S
C561 C560 1.363 . S
C561 C564 1.363 . S
N562 C564 1.362 . S
N562 H574 0.979 1_554 S
N562 H575 0.984 . S
N563 C565 1.356 . S
N563 H568 0.984 . S
N563 H569 0.985 . S
C564 C558 1.379 . S
C564 C561 1.363 . S
C564 N562 1.362 . S
C565 C559 1.363 . S
C565 C560 1.379 . S
C565 N563 1.356 . S
N566 C558 1.356 . S
N566 H572 0.984 1_554 S
N566 H573 0.984 . S
N567 C560 1.356 . S
N567 H570 0.984 . S
N567 H571 0.985 . S
H568 N563 0.984 . S
H569 N563 0.985 . S
H570 N567 0.984 . S
H571 N567 0.985 . S
H572 N566 0.984 1_556 S
H573 N566 0.984 . S
H574 N562 0.979 1_556 S
H575 N562 0.984 . S
C576 C577 1.363 . S
C576 C582 1.379 1_554 S
C576 N584 1.356 1_554 S
C577 C576 1.363 . S
C577 C583 1.363 . S
C578 C579 1.363 . S
C578 C583 1.379 . S
C578 N585 1.356 . S
C579 C578 1.363 . S
C579 C582 1.363 1_554 S
N580 C582 1.356 . S
N580 H592 0.984 . S
N580 H593 0.985 . S
N581 C583 1.356 . S
N581 H586 0.984 . S
N581 H587 0.985 . S
C582 C576 1.379 1_556 S
C582 C579 1.363 1_556 S
C582 N580 1.356 . S
C583 C577 1.363 . S
C583 C578 1.379 . S
C583 N581 1.356 . S
N584 C576 1.356 1_556 S
N584 H590 0.984 . S
N584 H591 0.984 . S
N585 C578 1.356 . S
N585 H588 0.984 . S
N585 H589 0.985 . S
H586 N581 0.984 . S
H587 N581 0.985 . S
H588 N585 0.984 . S
H589 N585 0.985 . S
H590 N584 0.984 . S
H591 N584 0.984 . S
H592 N580 0.984 . S
H593 N580 0.985 . S
C594 C595 1.363 . S
C594 C600 1.379 1_655 S
C594 N602 1.356 . S
C595 C594 1.363 . S
C595 C601 1.363 . S
C596 C597 1.363 1_655 S
C596 C601 1.379 . S
C596 N603 1.356 1_655 S
C597 C596 1.363 1_455 S
C597 C600 1.363 . S
N598 C600 1.356 . S
N598 H610 0.984 . S
N598 H611 0.985 . S
N599 C601 1.356 . S
N599 H604 0.984 . S
N599 H605 0.985 . S
C600 C594 1.379 1_455 S
C600 C597 1.363 . S
C600 N598 1.356 . S
C601 C595 1.363 . S
C601 C596 1.379 . S
C601 N599 1.356 . S
N602 C594 1.356 . S
N602 H608 0.984 . S
N602 H609 0.984 . S
N603 C596 1.356 1_455 S
N603 H606 0.984 . S
N603 H607 0.985 1_455 S
H604 N599 0.984 . S
H605 N599 0.985 . S
H606 N603 0.984 . S
H607 N603 0.985 1_655 S
H608 N602 0.984 . S
H609 N602 0.984 . S
H610 N598 0.984 . S
H611 N598 0.985 . S
C612 C613 1.363 . S
C612 C618 1.379 . S
C612 N620 1.356 . S
C613 C612 1.363 . S
C613 C619 1.363 . S
C614 C615 1.363 . S
C614 C619 1.379 . S
C614 N621 1.356 . S
C615 C614 1.363 . S
C615 C618 1.363 . S
N616 C618 1.356 . S
N616 H628 0.984 . S
N616 H629 0.985 . S
N617 C619 1.356 . S
N617 H622 0.984 . S
N617 H623 0.985 . S
C618 C612 1.379 . S
C618 C615 1.363 . S
C618 N616 1.356 . S
C619 C613 1.363 . S
C619 C614 1.379 . S
C619 N617 1.356 . S
N620 C612 1.356 . S
N620 H626 0.984 . S
N620 H627 0.984 . S
N621 C614 1.356 . S
N621 H624 0.984 . S
N621 H625 0.985 . S
H622 N617 0.984 . S
H623 N617 0.985 . S
H624 N621 0.984 . S
H625 N621 0.985 . S
H626 N620 0.984 . S
H627 N620 0.984 . S
H628 N616 0.984 . S
H629 N616 0.985 . S
C630 C631 1.363 . S
C630 C636 1.379 1_545 S
C630 N638 1.356 . S
C631 C630 1.363 . S
C631 C637 1.363 . S
C632 C633 1.363 . S
C632 C637 1.379 1_565 S
C632 N639 1.356 . S
C633 C632 1.363 . S
C633 C636 1.363 . S
N634 C636 1.356 . S
N634 H646 0.984 . S
N634 H647 0.985 . S
N635 C637 1.356 . S
N635 H640 0.984 . S
N635 H641 0.985 . S
C636 C630 1.379 1_565 S
C636 C633 1.363 . S
C636 N634 1.356 . S
C637 C631 1.363 . S
C637 C632 1.379 1_545 S
C637 N635 1.356 . S
N638 C630 1.356 . S
N638 H644 0.984 . S
N638 H645 0.984 . S
N639 C632 1.356 . S
N639 H642 0.984 . S
N639 H643 0.985 . S
H640 N635 0.984 . S
H641 N635 0.985 . S
H642 N639 0.984 . S
H643 N639 0.985 . S
H644 N638 0.984 . S
H645 N638 0.984 . S
H646 N634 0.984 . S
H647 N634 0.985 . S
C648 C649 1.363 . S
C648 C654 1.379 . S
C648 N656 1.356 . S
C649 C648 1.363 . S
C649 C655 1.363 . S
C650 C651 1.363 . S
C650 C655 1.379 . S
C650 N657 1.356 . S
C651 C650 1.363 . S
C651 C654 1.363 . S
N652 C654 1.356 . S
N652 H664 0.984 . S
N652 H665 0.985 . S
N653 C655 1.356 . S
N653 H658 0.984 . S
N653 H659 0.985 . S
C654 C648 1.379 . S
C654 C651 1.363 . S
C654 N652 1.356 . S
C655 C649 1.363 . S
C655 C650 1.379 . S
C655 N653 1.356 . S
N656 C648 1.356 . S
N656 H662 0.984 . S
N656 H663 0.984 . S
N657 C650 1.356 . S
N657 H660 0.984 . S
N657 H661 0.985 . S
H658 N653 0.984 . S
H659 N653 0.985 . S
H660 N657 0.984 . S
H661 N657 0.985 . S
H662 N656 0.984 . S
H663 N656 0.984 . S
H664 N652 0.984 . S
H665 N652 0.985 . S
C666 C667 1.363 . S
C666 C672 1.379 . S
C666 N674 1.356 . S
C667 C666 1.363 . S
C667 C673 1.363 . S
C668 C669 1.363 . S
C668 C673 1.379 . S
C668 N675 1.356 . S
C669 C668 1.363 . S
C669 C672 1.363 . S
N670 C672 1.356 . S
N670 H682 0.984 . S
N670 H683 0.985 . S
N671 C673 1.356 . S
N671 H676 0.984 . S
N671 H677 0.985 . S
C672 C666 1.379 . S
C672 C669 1.363 . S
C672 N670 1.356 . S
C673 C667 1.363 . S
C673 C668 1.379 . S
C673 N671 1.356 . S
N674 C666 1.356 . S
N674 H680 0.984 . S
N674 H681 0.984 . S
N675 C668 1.356 . S
N675 H678 0.984 . S
N675 H679 0.985 . S
H676 N671 0.984 . S
H677 N671 0.985 . S
H678 N675 0.984 . S
H679 N675 0.985 . S
H680 N674 0.984 . S
H681 N674 0.984 . S
H682 N670 0.984 . S
H683 N670 0.985 . S
C684 C685 1.363 . S
C684 C690 1.379 . S
C684 N692 1.356 . S
C685 C684 1.363 . S
C685 C691 1.363 . S
C686 C687 1.363 . S
C686 C691 1.379 . S
C686 N693 1.356 . S
C687 C686 1.363 . S
C687 C690 1.363 . S
N688 C690 1.356 . S
N688 H700 0.984 . S
N688 H701 0.985 . S
N689 C691 1.356 . S
N689 H694 0.984 . S
N689 H695 0.985 . S
C690 C684 1.379 . S
C690 C687 1.363 . S
C690 N688 1.356 . S
C691 C685 1.363 . S
C691 C686 1.379 . S
C691 N689 1.356 . S
N692 C684 1.356 . S
N692 H698 0.984 . S
N692 H699 0.984 . S
N693 C686 1.356 . S
N693 H696 0.984 . S
N693 H697 0.985 . S
H694 N689 0.984 . S
H695 N689 0.985 . S
H696 N693 0.984 . S
H697 N693 0.985 . S
H698 N692 0.984 . S
H699 N692 0.984 . S
H700 N688 0.984 . S
H701 N688 0.985 . S
C702 C703 1.363 . S
C702 C708 1.379 . S
C702 N710 1.356 . S
C703 C702 1.363 . S
C703 C709 1.363 . S
C704 C705 1.363 . S
C704 C709 1.379 . S
C704 N711 1.356 . S
C705 C704 1.363 . S
C705 C708 1.363 . S
N706 C708 1.356 . S
N706 H718 0.984 . S
N706 H719 0.985 . S
N707 C709 1.356 . S
N707 H712 0.984 . S
N707 H713 0.985 . S
C708 C702 1.379 . S
C708 C705 1.363 . S
C708 N706 1.356 . S
C709 C703 1.363 . S
C709 C704 1.379 . S
C709 N707 1.356 . S
N710 C702 1.356 . S
N710 H716 0.984 . S
N710 H717 0.984 . S
N711 C704 1.356 . S
N711 H714 0.984 . S
N711 H715 0.985 . S
H712 N707 0.984 . S
H713 N707 0.985 . S
H714 N711 0.984 . S
H715 N711 0.985 . S
H716 N710 0.984 . S
H717 N710 0.984 . S
H718 N706 0.984 . S
H719 N706 0.985 . S
C720 C721 1.363 . S
C720 C726 1.379 . S
C720 N728 1.356 . S
C721 C720 1.363 . S
C721 C727 1.363 . S
C722 C723 1.363 . S
C722 C727 1.379 . S
C722 N729 1.356 . S
C723 C722 1.363 . S
C723 C726 1.363 . S
N724 C726 1.356 . S
N724 H736 0.984 . S
N724 H737 0.985 . S
N725 C727 1.356 . S
N725 H730 0.984 . S
N725 H731 0.985 . S
C726 C720 1.379 . S
C726 C723 1.363 . S
C726 N724 1.356 . S
C727 C721 1.363 . S
C727 C722 1.379 . S
C727 N725 1.356 . S
N728 C720 1.356 . S
N728 H734 0.984 . S
N728 H735 0.984 . S
N729 C722 1.356 . S
N729 H732 0.984 . S
N729 H733 0.985 . S
H730 N725 0.984 . S
H731 N725 0.985 . S
H732 N729 0.984 . S
H733 N729 0.985 . S
H734 N728 0.984 . S
H735 N728 0.984 . S
H736 N724 0.984 . S
H737 N724 0.985 . S
C738 C739 1.363 . S
C738 C744 1.379 . S
C738 N746 1.356 . S
C739 C738 1.363 . S
C739 C745 1.363 . S
C740 C741 1.363 . S
C740 C745 1.379 . S
C740 N747 1.356 . S
C741 C740 1.363 . S
C741 C744 1.363 . S
N742 C744 1.356 . S
N742 H754 0.984 . S
N742 H755 0.985 . S
N743 C745 1.356 . S
N743 H748 0.984 . S
N743 H749 0.985 . S
C744 C738 1.379 . S
C744 C741 1.363 . S
C744 N742 1.356 . S
C745 C739 1.363 . S
C745 C740 1.379 . S
C745 N743 1.356 . S
N746 C738 1.356 . S
N746 H752 0.984 . S
N746 H753 0.984 . S
N747 C740 1.356 . S
N747 H750 0.984 . S
N747 H751 0.985 . S
H748 N743 0.984 . S
H749 N743 0.985 . S
H750 N747 0.984 . S
H751 N747 0.985 . S
H752 N746 0.984 . S
H753 N746 0.984 . S
H754 N742 0.984 . S
H755 N742 0.985 . S
C756 C757 1.363 . S
C756 C762 1.379 . S
C756 N764 1.356 1_565 S
C757 C756 1.363 . S
C757 C763 1.363 . S
C758 C759 1.363 . S
C758 C763 1.379 . S
C758 N765 1.356 . S
C759 C758 1.363 . S
C759 C762 1.363 . S
N760 C762 1.356 . S
N760 H772 0.984 . S
N760 H773 0.985 . S
N761 C763 1.348 1_545 S
N761 H766 1.011 . S
N761 H767 0.967 1_545 S
C762 C756 1.379 . S
C762 C759 1.363 . S
C762 N760 1.356 . S
C763 C757 1.363 . S
C763 C758 1.379 . S
C763 N761 1.348 1_565 S
N764 C756 1.356 1_545 S
N764 H770 0.984 . S
N764 H771 0.984 . S
N765 C758 1.356 . S
N765 H768 0.984 . S
N765 H769 0.985 . S
H766 N761 1.011 . S
H767 N761 0.967 1_565 S
H768 N765 0.984 . S
H769 N765 0.985 . S
H770 N764 0.984 . S
H771 N764 0.984 . S
H772 N760 0.984 . S
H773 N760 0.985 . S
C774 C775 1.363 1_455 S
C774 C780 1.379 . S
C774 N782 1.356 1_455 S
C775 C774 1.363 1_655 S
C775 C781 1.363 1_655 S
C776 C777 1.363 . S
C776 C781 1.379 . S
C776 N783 1.356 . S
C777 C776 1.363 . S
C777 C780 1.363 . S
N778 C780 1.356 . S
N778 H790 0.984 . S
N778 H791 0.985 . S
N779 C781 1.356 1_655 S
N779 H784 0.984 . S
N779 H785 0.985 . S
C780 C774 1.379 . S
C780 C777 1.363 . S
C780 N778 1.356 . S
C781 C775 1.363 1_455 S
C781 C776 1.379 . S
C781 N779 1.356 1_455 S
N782 C774 1.356 1_655 S
N782 H788 0.984 . S
N782 H789 0.984 . S
N783 C776 1.356 . S
N783 H786 0.984 . S
N783 H787 0.985 . S
H784 N779 0.984 . S
H785 N779 0.985 . S
H786 N783 0.984 . S
H787 N783 0.985 . S
H788 N782 0.984 . S
H789 N782 0.984 . S
H790 N778 0.984 . S
H791 N778 0.985 . S
C792 C793 1.363 . S
C792 C798 1.379 . S
C792 N800 1.356 . S
C793 C792 1.363 . S
C793 C799 1.363 . S
C794 C795 1.363 . S
C794 C799 1.379 . S
C794 N801 1.356 . S
C795 C794 1.363 . S
C795 C798 1.363 . S
N796 C798 1.356 . S
N796 H808 0.984 . S
N796 H809 0.985 . S
N797 C799 1.356 . S
N797 H802 0.984 . S
N797 H803 0.985 . S
C798 C792 1.379 . S
C798 C795 1.363 . S
C798 N796 1.356 . S
C799 C793 1.363 . S
C799 C794 1.379 . S
C799 N797 1.356 . S
N800 C792 1.356 . S
N800 H806 0.984 . S
N800 H807 0.984 . S
N801 C794 1.356 . S
N801 H804 0.984 . S
N801 H805 0.985 . S
H802 N797 0.984 . S
H803 N797 0.985 . S
H804 N801 0.984 . S
H805 N801 0.985 . S
H806 N800 0.984 . S
H807 N800 0.984 . S
H808 N796 0.984 . S
H809 N796 0.985 . S
C810 C811 1.363 . S
C810 C816 1.379 . S
C810 N818 1.356 . S
C811 C810 1.363 . S
C811 C817 1.363 . S
C812 C813 1.363 . S
C812 C817 1.379 . S
C812 N819 1.356 . S
C813 C812 1.363 . S
C813 C816 1.363 . S
N814 C816 1.356 . S
N814 H826 0.984 . S
N814 H827 0.985 . S
N815 C817 1.356 . S
N815 H820 0.984 . S
N815 H821 0.985 . S
C816 C810 1.379 . S
C816 C813 1.363 . S
C816 N814 1.356 . S
C817 C811 1.363 . S
C817 C812 1.379 . S
C817 N815 1.356 . S
N818 C810 1.356 . S
N818 H824 0.984 . S
N818 H825 0.984 . S
N819 C812 1.356 . S
N819 H822 0.984 . S
N819 H823 0.985 . S
H820 N815 0.984 . S
H821 N815 0.985 . S
H822 N819 0.984 . S
H823 N819 0.985 . S
H824 N818 0.984 . S
H825 N818 0.984 . S
H826 N814 0.984 . S
H827 N814 0.985 . S
C828 C829 1.363 . S
C828 C834 1.379 . S
C828 N836 1.356 . S
C829 C828 1.363 . S
C829 C835 1.363 . S
C830 C831 1.363 . S
C830 C835 1.379 . S
C830 N837 1.356 . S
C831 C830 1.363 . S
C831 C834 1.363 . S
N832 C834 1.356 . S
N832 H844 0.984 . S
N832 H845 0.985 . S
N833 C835 1.356 . S
N833 H838 0.984 . S
N833 H839 0.985 . S
C834 C828 1.379 . S
C834 C831 1.363 . S
C834 N832 1.356 . S
C835 C829 1.363 . S
C835 C830 1.379 . S
C835 N833 1.356 . S
N836 C828 1.356 . S
N836 H842 0.984 . S
N836 H843 0.984 . S
N837 C830 1.356 . S
N837 H840 0.984 . S
N837 H841 0.985 . S
H838 N833 0.984 . S
H839 N833 0.985 . S
H840 N837 0.984 . S
H841 N837 0.985 . S
H842 N836 0.984 . S
H843 N836 0.984 . S
H844 N832 0.984 . S
H845 N832 0.985 . S
C846 C847 1.363 . S
C846 C852 1.379 . S
C846 N854 1.356 . S
C847 C846 1.363 . S
C847 C853 1.363 . S
C848 C849 1.363 . S
C848 C853 1.379 . S
C848 N855 1.356 . S
C849 C848 1.363 . S
C849 C852 1.363 . S
N850 C852 1.356 . S
N850 H862 0.984 . S
N850 H863 0.985 . S
N851 C853 1.356 . S
N851 H856 0.984 . S
N851 H857 0.985 . S
C852 C846 1.379 . S
C852 C849 1.363 . S
C852 N850 1.356 . S
C853 C847 1.363 . S
C853 C848 1.379 . S
C853 N851 1.356 . S
N854 C846 1.356 . S
N854 H860 0.984 . S
N854 H861 0.984 . S
N855 C848 1.356 . S
N855 H858 0.984 . S
N855 H859 0.985 . S
H856 N851 0.984 . S
H857 N851 0.985 . S
H858 N855 0.984 . S
H859 N855 0.985 . S
H860 N854 0.984 . S
H861 N854 0.984 . S
H862 N850 0.984 . S
H863 N850 0.985 . S
C864 C865 1.363 . S
C864 C870 1.379 1_565 S
C864 N872 1.356 . S
C865 C864 1.363 . S
C865 C871 1.363 . S
C866 C867 1.363 . S
C866 C871 1.379 1_545 S
C866 N873 1.356 . S
C867 C866 1.363 . S
C867 C870 1.363 . S
N868 C870 1.356 . S
N868 H880 0.984 . S
N868 H881 0.985 . S
N869 C871 1.356 . S
N869 H874 0.984 . S
N869 H875 0.985 . S
C870 C864 1.379 1_545 S
C870 C867 1.363 . S
C870 N868 1.356 . S
C871 C865 1.363 . S
C871 C866 1.379 1_565 S
C871 N869 1.356 . S
N872 C864 1.356 . S
N872 H878 0.984 . S
N872 H879 0.984 . S
N873 C866 1.356 . S
N873 H876 0.984 . S
N873 H877 0.985 . S
H874 N869 0.984 . S
H875 N869 0.985 . S
H876 N873 0.984 . S
H877 N873 0.985 . S
H878 N872 0.984 . S
H879 N872 0.984 . S
H880 N868 0.984 . S
H881 N868 0.985 . S
C882 C883 1.363 . S
C882 C888 1.379 1_455 S
C882 N890 1.356 . S
C883 C882 1.363 . S
C883 C889 1.363 . S
C884 C885 1.363 1_455 S
C884 C889 1.379 . S
C884 N891 1.356 . S
C885 C884 1.363 1_655 S
C885 C888 1.363 . S
N886 C888 1.356 . S
N886 H898 0.984 . S
N886 H899 0.985 . S
N887 C889 1.356 . S
N887 H892 0.984 . S
N887 H893 0.985 . S
C888 C882 1.379 1_655 S
C888 C885 1.363 . S
C888 N886 1.356 . S
C889 C883 1.363 . S
C889 C884 1.379 . S
C889 N887 1.356 . S
N890 C882 1.356 . S
N890 H896 0.984 . S
N890 H897 0.984 . S
N891 C884 1.356 . S
N891 H894 0.984 1_455 S
N891 H895 0.985 . S
H892 N887 0.984 . S
H893 N887 0.985 . S
H894 N891 0.984 1_655 S
H895 N891 0.985 . S
H896 N890 0.984 . S
H897 N890 0.984 . S
H898 N886 0.984 . S
H899 N886 0.985 . S
C900 C901 1.363 . S
C900 C906 1.379 . S
C900 N908 1.356 . S
C901 C900 1.363 . S
C901 C907 1.363 . S
C902 C903 1.363 . S
C902 C907 1.379 . S
C902 N909 1.356 . S
C903 C902 1.363 . S
C903 C906 1.363 . S
N904 C906 1.356 . S
N904 H916 0.984 . S
N904 H917 0.985 . S
N905 C907 1.356 . S
N905 H910 0.984 . S
N905 H911 0.985 . S
C906 C900 1.379 . S
C906 C903 1.363 . S
C906 N904 1.356 . S
C907 C901 1.363 . S
C907 C902 1.379 . S
C907 N905 1.356 . S
N908 C900 1.356 . S
N908 H914 0.984 . S
N908 H915 0.984 . S
N909 C902 1.356 . S
N909 H912 0.984 . S
N909 H913 0.985 . S
H910 N905 0.984 . S
H911 N905 0.985 . S
H912 N909 0.984 . S
H913 N909 0.985 . S
H914 N908 0.984 . S
H915 N908 0.984 . S
H916 N904 0.984 . S
H917 N904 0.985 . S
C918 C919 1.363 . S
C918 C924 1.379 1_455 S
C918 N926 1.356 . S
C919 C918 1.363 . S
C919 C925 1.363 1_455 S
C920 C921 1.363 . S
C920 C925 1.379 . S
C920 N927 1.356 . S
C921 C920 1.363 . S
C921 C924 1.363 . S
N922 C924 1.356 . S
N922 H934 0.984 . S
N922 H935 0.985 . S
N923 C925 1.356 1_455 S
N923 H928 0.984 . S
N923 H929 0.985 . S
C924 C918 1.379 1_655 S
C924 C921 1.363 . S
C924 N922 1.356 . S
C925 C919 1.363 1_655 S
C925 C920 1.379 . S
C925 N923 1.356 1_655 S
N926 C918 1.356 . S
N926 H932 0.984 . S
N926 H933 0.984 . S
N927 C920 1.356 . S
N927 H930 0.984 . S
N927 H931 0.985 . S
H928 N923 0.984 . S
H929 N923 0.985 . S
H930 N927 0.984 . S
H931 N927 0.985 . S
H932 N926 0.984 . S
H933 N926 0.984 . S
H934 N922 0.984 . S
H935 N922 0.985 . S
C936 C937 1.363 . S
C936 C942 1.379 . S
C936 N944 1.356 . S
C937 C936 1.363 . S
C937 C943 1.363 . S
C938 C939 1.363 . S
C938 C943 1.379 . S
C938 N945 1.356 . S
C939 C938 1.363 . S
C939 C942 1.363 . S
N940 C942 1.356 . S
N940 H952 0.984 . S
N940 H953 0.985 . S
N941 C943 1.356 . S
N941 H946 0.984 . S
N941 H947 0.985 . S
C942 C936 1.379 . S
C942 C939 1.363 . S
C942 N940 1.356 . S
C943 C937 1.363 . S
C943 C938 1.379 . S
C943 N941 1.356 . S
N944 C936 1.356 . S
N944 H950 0.984 . S
N944 H951 0.984 . S
N945 C938 1.356 . S
N945 H948 0.984 . S
N945 H949 0.985 . S
H946 N941 0.984 . S
H947 N941 0.985 . S
H948 N945 0.984 . S
H949 N945 0.985 . S
H950 N944 0.984 . S
H951 N944 0.984 . S
H952 N940 0.984 . S
H953 N940 0.985 . S
C954 C955 1.363 1_545 S
C954 C960 1.379 . S
C954 N962 1.356 1_545 S
C955 C954 1.363 1_565 S
C955 C961 1.363 1_565 S
C956 C957 1.363 . S
C956 C961 1.379 . S
C956 N963 1.356 . S
C957 C956 1.363 . S
C957 C960 1.363 . S
N958 C960 1.356 . S
N958 H970 0.984 . S
N958 H971 0.985 . S
N959 C961 1.356 1_565 S
N959 H964 0.984 . S
N959 H965 0.985 . S
C960 C954 1.379 . S
C960 C957 1.363 . S
C960 N958 1.356 . S
C961 C955 1.363 1_545 S
C961 C956 1.379 . S
C961 N959 1.356 1_545 S
N962 C954 1.356 1_565 S
N962 H968 0.984 1_565 S
N962 H969 0.984 . S
N963 C956 1.356 . S
N963 H966 0.984 . S
N963 H967 0.985 . S
H964 N959 0.984 . S
H965 N959 0.985 . S
H966 N963 0.984 . S
H967 N963 0.985 . S
H968 N962 0.984 1_545 S
H969 N962 0.984 . S
H970 N958 0.984 . S
H971 N958 0.985 . S
C972 C973 1.363 . S
C972 C978 1.379 . S
C972 N980 1.356 . S
C973 C972 1.363 . S
C973 C979 1.363 . S
C974 C975 1.363 . S
C974 C979 1.379 . S
C974 N981 1.356 . S
C975 C974 1.363 . S
C975 C978 1.363 . S
N976 C978 1.356 . S
N976 H988 0.984 . S
N976 H989 0.985 . S
N977 C979 1.356 . S
N977 H982 0.984 . S
N977 H983 0.985 . S
C978 C972 1.379 . S
C978 C975 1.363 . S
C978 N976 1.356 . S
C979 C973 1.363 . S
C979 C974 1.379 . S
C979 N977 1.356 . S
N980 C972 1.356 . S
N980 H986 0.984 . S
N980 H987 0.984 . S
N981 C974 1.356 . S
N981 H984 0.984 . S
N981 H985 0.985 . S
H982 N977 0.984 . S
H983 N977 0.985 . S
H984 N981 0.984 . S
H985 N981 0.985 . S
H986 N980 0.984 . S
H987 N980 0.984 . S
H988 N976 0.984 . S
H989 N976 0.985 . S
C990 C991 1.363 . S
C990 C996 1.379 . S
C990 N998 1.356 . S
C991 C990 1.363 . S
C991 C997 1.363 . S
C992 C993 1.363 . S
C992 C997 1.379 . S
C992 N999 1.356 . S
C993 C992 1.363 . S
C993 C996 1.363 . S
N994 C996 1.356 . S
N994 H1006 0.984 . S
N994 H1007 0.985 . S
N995 C997 1.356 . S
N995 H1000 0.984 . S
N995 H1001 0.985 . S
C996 C990 1.379 . S
C996 C993 1.363 . S
C996 N994 1.356 . S
C997 C991 1.363 . S
C997 C992 1.379 . S
C997 N995 1.356 . S
N998 C990 1.356 . S
N998 H1004 0.984 . S
N998 H1005 0.984 . S
N999 C992 1.356 . S
N999 H1002 0.984 . S
N999 H1003 0.985 . S
H1000 N995 0.984 . S
H1001 N995 0.985 . S
H1002 N999 0.984 . S
H1003 N999 0.985 . S
H1004 N998 0.984 . S
H1005 N998 0.984 . S
H1006 N994 0.984 . S
H1007 N994 0.985 . S
C1008 C1009 1.363 . S
C1008 C1014 1.379 . S
C1008 N1016 1.356 . S
C1009 C1008 1.363 . S
C1009 C1015 1.363 . S
C1010 C1011 1.363 . S
C1010 C1015 1.379 . S
C1010 N1017 1.356 . S
C1011 C1010 1.363 . S
C1011 C1014 1.363 . S
N1012 C1014 1.356 . S
N1012 H1024 0.984 . S
N1012 H1025 0.985 . S
N1013 C1015 1.356 . S
N1013 H1018 0.984 . S
N1013 H1019 0.985 . S
C1014 C1008 1.379 . S
C1014 C1011 1.363 . S
C1014 N1012 1.356 . S
C1015 C1009 1.363 . S
C1015 C1010 1.379 . S
C1015 N1013 1.356 . S
N1016 C1008 1.356 . S
N1016 H1022 0.984 . S
N1016 H1023 0.984 . S
N1017 C1010 1.356 . S
N1017 H1020 0.984 . S
N1017 H1021 0.985 . S
H1018 N1013 0.984 . S
H1019 N1013 0.985 . S
H1020 N1017 0.984 . S
H1021 N1017 0.985 . S
H1022 N1016 0.984 . S
H1023 N1016 0.984 . S
H1024 N1012 0.984 . S
H1025 N1012 0.985 . S
C1026 C1027 1.363 . S
C1026 C1032 1.379 . S
C1026 N1034 1.356 . S
C1027 C1026 1.363 . S
C1027 C1033 1.363 . S
C1028 C1029 1.363 . S
C1028 C1033 1.379 . S
C1028 N1035 1.356 1_565 S
C1029 C1028 1.363 . S
C1029 C1032 1.363 . S
N1030 C1032 1.356 . S
N1030 H1042 0.984 . S
N1030 H1043 0.985 . S
N1031 C1033 1.356 . S
N1031 H1036 0.984 . S
N1031 H1037 0.985 1_565 S
C1032 C1026 1.379 . S
C1032 C1029 1.363 . S
C1032 N1030 1.356 . S
C1033 C1027 1.363 . S
C1033 C1028 1.379 . S
C1033 N1031 1.356 . S
N1034 C1026 1.356 . S
N1034 H1040 0.984 . S
N1034 H1041 0.984 . S
N1035 C1028 1.356 1_545 S
N1035 H1038 0.984 . S
N1035 H1039 0.985 . S
H1036 N1031 0.984 . S
H1037 N1031 0.985 1_545 S
H1038 N1035 0.984 . S
H1039 N1035 0.985 . S
H1040 N1034 0.984 . S
H1041 N1034 0.984 . S
H1042 N1030 0.984 . S
H1043 N1030 0.985 . S
C1044 C1045 1.363 . S
C1044 C1050 1.379 . S
C1044 N1052 1.356 . S
C1045 C1044 1.363 . S
C1045 C1051 1.363 . S
C1046 C1047 1.363 . S
C1046 C1051 1.379 . S
C1046 N1053 1.356 . S
C1047 C1046 1.363 . S
C1047 C1050 1.363 . S
N1048 C1050 1.356 . S
N1048 H1060 0.984 . S
N1048 H1061 0.985 . S
N1049 C1051 1.356 . S
N1049 H1054 0.984 . S
N1049 H1055 0.985 . S
C1050 C1044 1.379 . S
C1050 C1047 1.363 . S
C1050 N1048 1.356 . S
C1051 C1045 1.363 . S
C1051 C1046 1.379 . S
C1051 N1049 1.356 . S
N1052 C1044 1.356 . S
N1052 H1058 0.984 . S
N1052 H1059 0.984 . S
N1053 C1046 1.356 . S
N1053 H1056 0.984 . S
N1053 H1057 0.985 . S
H1054 N1049 0.984 . S
H1055 N1049 0.985 . S
H1056 N1053 0.984 . S
H1057 N1053 0.985 . S
H1058 N1052 0.984 . S
H1059 N1052 0.984 . S
H1060 N1048 0.984 . S
H1061 N1048 0.985 . S
C1062 C1063 1.363 . S
C1062 C1068 1.379 . S
C1062 N1070 1.356 . S
C1063 C1062 1.363 . S
C1063 C1069 1.363 . S
C1064 C1065 1.363 . S
C1064 C1069 1.379 . S
C1064 N1071 1.356 . S
C1065 C1064 1.363 . S
C1065 C1068 1.363 . S
N1066 C1068 1.356 . S
N1066 H1078 0.984 . S
N1066 H1079 0.985 . S
N1067 C1069 1.356 . S
N1067 H1072 0.984 . S
N1067 H1073 0.985 . S
C1068 C1062 1.379 . S
C1068 C1065 1.363 . S
C1068 N1066 1.356 . S
C1069 C1063 1.363 . S
C1069 C1064 1.379 . S
C1069 N1067 1.356 . S
N1070 C1062 1.356 . S
N1070 H1076 0.984 . S
N1070 H1077 0.984 . S
N1071 C1064 1.356 . S
N1071 H1074 0.984 . S
N1071 H1075 0.985 . S
H1072 N1067 0.984 . S
H1073 N1067 0.985 . S
H1074 N1071 0.984 . S
H1075 N1071 0.985 . S
H1076 N1070 0.984 . S
H1077 N1070 0.984 . S
H1078 N1066 0.984 . S
H1079 N1066 0.985 . S
C1080 C1081 1.363 . S
C1080 C1086 1.379 . S
C1080 N1088 1.356 . S
C1081 C1080 1.363 . S
C1081 C1087 1.363 . S
C1082 C1083 1.363 . S
C1082 C1087 1.379 . S
C1082 N1089 1.356 . S
C1083 C1082 1.363 . S
C1083 C1086 1.363 . S
N1084 C1086 1.356 1_455 S
N1084 H1096 0.984 . S
N1084 H1097 0.985 . S
N1085 C1087 1.356 . S
N1085 H1090 0.984 . S
N1085 H1091 0.985 . S
C1086 C1080 1.379 . S
C1086 C1083 1.363 . S
C1086 N1084 1.356 1_655 S
C1087 C1081 1.363 . S
C1087 C1082 1.379 . S
C1087 N1085 1.356 . S
N1088 C1080 1.356 . S
N1088 H1094 0.984 1_655 S
N1088 H1095 0.984 . S
N1089 C1082 1.356 . S
N1089 H1092 0.984 . S
N1089 H1093 0.985 . S
H1090 N1085 0.984 . S
H1091 N1085 0.985 . S
H1092 N1089 0.984 . S
H1093 N1089 0.985 . S
H1094 N1088 0.984 1_455 S
H1095 N1088 0.984 . S
H1096 N1084 0.984 . S
H1097 N1084 0.985 . S
C1098 C1099 1.363 . S
C1098 C1104 1.379 . S
C1098 N1106 1.356 . S
C1099 C1098 1.363 . S
C1099 C1105 1.363 . S
C1100 C1101 1.363 . S
C1100 C1105 1.379 . S
C1100 N1107 1.356 . S
C1101 C1100 1.363 . S
C1101 C1104 1.363 . S
N1102 C1104 1.356 . S
N1102 H1114 0.984 . S
N1102 H1115 0.985 . S
N1103 C1105 1.356 . S
N1103 H1108 0.984 . S
N1103 H1109 0.985 . S
C1104 C1098 1.379 . S
C1104 C1101 1.363 . S
C1104 N1102 1.356 . S
C1105 C1099 1.363 . S
C1105 C1100 1.379 . S
C1105 N1103 1.356 . S
N1106 C1098 1.356 . S
N1106 H1112 0.984 . S
N1106 H1113 0.984 . S
N1107 C1100 1.356 . S
N1107 H1110 0.984 . S
N1107 H1111 0.985 . S
H1108 N1103 0.984 . S
H1109 N1103 0.985 . S
H1110 N1107 0.984 . S
H1111 N1107 0.985 . S
H1112 N1106 0.984 . S
H1113 N1106 0.984 . S
H1114 N1102 0.984 . S
H1115 N1102 0.985 . S
C1116 C1117 1.363 . S
C1116 C1122 1.379 . S
C1116 N1124 1.356 . S
C1117 C1116 1.363 . S
C1117 C1123 1.363 . S
C1118 C1119 1.363 . S
C1118 C1123 1.379 . S
C1118 N1125 1.356 . S
C1119 C1118 1.363 . S
C1119 C1122 1.363 . S
N1120 C1122 1.356 1_565 S
N1120 H1132 0.984 . S
N1120 H1133 0.985 . S
N1121 C1123 1.356 . S
N1121 H1126 0.984 . S
N1121 H1127 0.985 . S
C1122 C1116 1.379 . S
C1122 C1119 1.363 . S
C1122 N1120 1.356 1_545 S
C1123 C1117 1.363 . S
C1123 C1118 1.379 . S
C1123 N1121 1.356 . S
N1124 C1116 1.356 . S
N1124 H1130 0.984 1_545 S
N1124 H1131 0.984 . S
N1125 C1118 1.356 . S
N1125 H1128 0.984 . S
N1125 H1129 0.985 . S
H1126 N1121 0.984 . S
H1127 N1121 0.985 . S
H1128 N1125 0.984 . S
H1129 N1125 0.985 . S
H1130 N1124 0.984 1_565 S
H1131 N1124 0.984 . S
H1132 N1120 0.984 . S
H1133 N1120 0.985 . S
C1134 C1135 1.363 . S
C1134 C1140 1.379 . S
C1134 N1142 1.356 . S
C1135 C1134 1.363 . S
C1135 C1141 1.363 . S
C1136 C1137 1.363 . S
C1136 C1141 1.379 . S
C1136 N1143 1.356 . S
C1137 C1136 1.363 . S
C1137 C1140 1.363 . S
N1138 C1140 1.356 . S
N1138 H1150 0.984 . S
N1138 H1151 0.985 . S
N1139 C1141 1.356 . S
N1139 H1144 0.984 . S
N1139 H1145 0.985 . S
C1140 C1134 1.379 . S
C1140 C1137 1.363 . S
C1140 N1138 1.356 . S
C1141 C1135 1.363 . S
C1141 C1136 1.379 . S
C1141 N1139 1.356 . S
N1142 C1134 1.356 . S
N1142 H1148 0.984 . S
N1142 H1149 0.984 . S
N1143 C1136 1.356 . S
N1143 H1146 0.984 . S
N1143 H1147 0.985 . S
H1144 N1139 0.984 . S
H1145 N1139 0.985 . S
H1146 N1143 0.984 . S
H1147 N1143 0.985 . S
H1148 N1142 0.984 . S
H1149 N1142 0.984 . S
H1150 N1138 0.984 . S
H1151 N1138 0.985 . S
C1152 C1153 1.363 . S
C1152 C1158 1.379 . S
C1152 N1160 1.356 . S
C1153 C1152 1.363 . S
C1153 C1159 1.363 . S
C1154 C1155 1.363 . S
C1154 C1159 1.379 . S
C1154 N1161 1.356 . S
C1155 C1154 1.363 . S
C1155 C1158 1.363 . S
N1156 C1158 1.356 . S
N1156 H1168 0.984 . S
N1156 H1169 0.985 . S
N1157 C1159 1.356 . S
N1157 H1162 0.984 . S
N1157 H1163 0.985 . S
C1158 C1152 1.379 . S
C1158 C1155 1.363 . S
C1158 N1156 1.356 . S
C1159 C1153 1.363 . S
C1159 C1154 1.379 . S
C1159 N1157 1.356 . S
N1160 C1152 1.356 . S
N1160 H1166 0.984 . S
N1160 H1167 0.984 . S
N1161 C1154 1.356 . S
N1161 H1164 0.984 . S
N1161 H1165 0.985 . S
H1162 N1157 0.984 . S
H1163 N1157 0.985 . S
H1164 N1161 0.984 . S
H1165 N1161 0.985 . S
H1166 N1160 0.984 . S
H1167 N1160 0.984 . S
H1168 N1156 0.984 . S
H1169 N1156 0.985 . S
C1170 C1171 1.363 . S
C1170 C1176 1.379 . S
C1170 N1178 1.356 . S
C1171 C1170 1.363 . S
C1171 C1177 1.363 . S
C1172 C1173 1.363 . S
C1172 C1177 1.379 . S
C1172 N1179 1.356 . S
C1173 C1172 1.363 . S
C1173 C1176 1.363 . S
N1174 C1176 1.356 . S
N1174 H1186 0.984 . S
N1174 H1187 0.985 . S
N1175 C1177 1.356 . S
N1175 H1180 0.984 . S
N1175 H1181 0.985 . S
C1176 C1170 1.379 . S
C1176 C1173 1.363 . S
C1176 N1174 1.356 . S
C1177 C1171 1.363 . S
C1177 C1172 1.379 . S
C1177 N1175 1.356 . S
N1178 C1170 1.356 . S
N1178 H1184 0.984 . S
N1178 H1185 0.984 . S
N1179 C1172 1.356 . S
N1179 H1182 0.984 . S
N1179 H1183 0.985 . S
H1180 N1175 0.984 . S
H1181 N1175 0.985 . S
H1182 N1179 0.984 . S
H1183 N1179 0.985 . S
H1184 N1178 0.984 . S
H1185 N1178 0.984 . S
H1186 N1174 0.984 . S
H1187 N1174 0.985 . S
C1188 C1189 1.363 . S
C1188 C1194 1.379 . S
C1188 N1196 1.356 . S
C1189 C1188 1.363 . S
C1189 C1195 1.363 . S
C1190 C1191 1.363 . S
C1190 C1195 1.379 . S
C1190 N1197 1.356 . S
C1191 C1190 1.363 . S
C1191 C1194 1.363 . S
N1192 C1194 1.356 . S
N1192 H1204 0.984 . S
N1192 H1205 0.985 . S
N1193 C1195 1.356 . S
N1193 H1198 0.984 . S
N1193 H1199 0.985 . S
C1194 C1188 1.379 . S
C1194 C1191 1.363 . S
C1194 N1192 1.356 . S
C1195 C1189 1.363 . S
C1195 C1190 1.379 . S
C1195 N1193 1.356 . S
N1196 C1188 1.356 . S
N1196 H1202 0.984 . S
N1196 H1203 0.984 . S
N1197 C1190 1.356 . S
N1197 H1200 0.984 . S
N1197 H1201 0.985 . S
H1198 N1193 0.984 . S
H1199 N1193 0.985 . S
H1200 N1197 0.984 . S
H1201 N1197 0.985 . S
H1202 N1196 0.984 . S
H1203 N1196 0.984 . S
H1204 N1192 0.984 . S
H1205 N1192 0.985 . S
C1206 C1207 1.363 . S
C1206 C1212 1.379 . S
C1206 N1214 1.356 . S
C1207 C1206 1.363 . S
C1207 C1213 1.363 . S
C1208 C1209 1.363 . S
C1208 C1213 1.379 . S
C1208 N1215 1.356 . S
C1209 C1208 1.363 . S
C1209 C1212 1.363 . S
N1210 C1212 1.356 . S
N1210 H1222 0.984 . S
N1210 H1223 0.985 . S
N1211 C1213 1.356 . S
N1211 H1216 0.984 . S
N1211 H1217 0.985 . S
C1212 C1206 1.379 . S
C1212 C1209 1.363 . S
C1212 N1210 1.356 . S
C1213 C1207 1.363 . S
C1213 C1208 1.379 . S
C1213 N1211 1.356 . S
N1214 C1206 1.356 . S
N1214 H1220 0.984 . S
N1214 H1221 0.984 . S
N1215 C1208 1.356 . S
N1215 H1218 0.984 . S
N1215 H1219 0.985 . S
H1216 N1211 0.984 . S
H1217 N1211 0.985 . S
H1218 N1215 0.984 . S
H1219 N1215 0.985 . S
H1220 N1214 0.984 . S
H1221 N1214 0.984 . S
H1222 N1210 0.984 . S
H1223 N1210 0.985 . S
C1224 C1225 1.363 . S
C1224 C1230 1.379 . S
C1224 N1232 1.356 . S
C1225 C1224 1.363 . S
C1225 C1231 1.363 . S
C1226 C1227 1.363 . S
C1226 C1231 1.379 . S
C1226 N1233 1.356 . S
C1227 C1226 1.363 . S
C1227 C1230 1.363 . S
N1228 C1230 1.356 . S
N1228 H1240 0.984 . S
N1228 H1241 0.985 . S
N1229 C1231 1.356 . S
N1229 H1234 0.984 . S
N1229 H1235 0.985 . S
C1230 C1224 1.379 . S
C1230 C1227 1.363 . S
C1230 N1228 1.356 . S
C1231 C1225 1.363 . S
C1231 C1226 1.379 . S
C1231 N1229 1.356 . S
N1232 C1224 1.356 . S
N1232 H1238 0.984 . S
N1232 H1239 0.984 . S
N1233 C1226 1.356 . S
N1233 H1236 0.984 . S
N1233 H1237 0.985 . S
H1234 N1229 0.984 . S
H1235 N1229 0.985 . S
H1236 N1233 0.984 . S
H1237 N1233 0.985 . S
H1238 N1232 0.984 . S
H1239 N1232 0.984 . S
H1240 N1228 0.984 . S
H1241 N1228 0.985 . S
C1242 C1243 1.363 . S
C1242 C1248 1.379 . S
C1242 N1250 1.356 . S
C1243 C1242 1.363 . S
C1243 C1249 1.363 . S
C1244 C1245 1.363 . S
C1244 C1249 1.379 . S
C1244 N1251 1.356 . S
C1245 C1244 1.363 . S
C1245 C1248 1.363 . S
N1246 C1248 1.356 . S
N1246 H1258 0.984 . S
N1246 H1259 0.985 . S
N1247 C1249 1.356 . S
N1247 H1252 0.984 . S
N1247 H1253 0.985 . S
C1248 C1242 1.379 . S
C1248 C1245 1.363 . S
C1248 N1246 1.356 . S
C1249 C1243 1.363 . S
C1249 C1244 1.379 . S
C1249 N1247 1.356 . S
N1250 C1242 1.356 . S
N1250 H1256 0.984 . S
N1250 H1257 0.984 . S
N1251 C1244 1.356 . S
N1251 H1254 0.984 . S
N1251 H1255 0.985 . S
H1252 N1247 0.984 . S
H1253 N1247 0.985 . S
H1254 N1251 0.984 . S
H1255 N1251 0.985 . S
H1256 N1250 0.984 . S
H1257 N1250 0.984 . S
H1258 N1246 0.984 . S
H1259 N1246 0.985 . S
C1260 C1261 1.363 . S
C1260 C1266 1.379 . S
C1260 N1268 1.356 . S
C1261 C1260 1.363 . S
C1261 C1267 1.363 . S
C1262 C1263 1.363 . S
C1262 C1267 1.379 . S
C1262 N1269 1.356 . S
C1263 C1262 1.363 . S
C1263 C1266 1.363 . S
N1264 C1266 1.356 . S
N1264 H1276 0.984 . S
N1264 H1277 0.985 . S
N1265 C1267 1.356 . S
N1265 H1270 0.984 . S
N1265 H1271 0.985 . S
C1266 C1260 1.379 . S
C1266 C1263 1.363 . S
C1266 N1264 1.356 . S
C1267 C1261 1.363 . S
C1267 C1262 1.379 . S
C1267 N1265 1.356 . S
N1268 C1260 1.356 . S
N1268 H1274 0.984 . S
N1268 H1275 0.984 . S
N1269 C1262 1.356 . S
N1269 H1272 0.984 . S
N1269 H1273 0.985 . S
H1270 N1265 0.984 . S
H1271 N1265 0.985 . S
H1272 N1269 0.984 . S
H1273 N1269 0.985 . S
H1274 N1268 0.984 . S
H1275 N1268 0.984 . S
H1276 N1264 0.984 . S
H1277 N1264 0.985 . S
C1278 C1279 1.363 . S
C1278 C1284 1.379 . S
C1278 N1286 1.356 . S
C1279 C1278 1.363 . S
C1279 C1285 1.363 . S
C1280 C1281 1.363 . S
C1280 C1285 1.379 . S
C1280 N1287 1.356 . S
C1281 C1280 1.363 . S
C1281 C1284 1.363 . S
N1282 C1284 1.356 . S
N1282 H1294 0.984 . S
N1282 H1295 0.985 . S
N1283 C1285 1.356 . S
N1283 H1288 0.984 . S
N1283 H1289 0.985 . S
C1284 C1278 1.379 . S
C1284 C1281 1.363 . S
C1284 N1282 1.356 . S
C1285 C1279 1.363 . S
C1285 C1280 1.379 . S
C1285 N1283 1.356 . S
N1286 C1278 1.356 . S
N1286 H1292 0.984 . S
N1286 H1293 0.984 . S
N1287 C1280 1.356 . S
N1287 H1290 0.984 . S
N1287 H1291 0.985 . S
H1288 N1283 0.984 . S
H1289 N1283 0.985 . S
H1290 N1287 0.984 . S
H1291 N1287 0.985 . S
H1292 N1286 0.984 . S
H1293 N1286 0.984 . S
H1294 N1282 0.984 . S
H1295 N1282 0.985 . S
C1296 C1297 1.363 . S
C1296 C1302 1.379 . S
C1296 N1304 1.356 . S
C1297 C1296 1.363 . S
C1297 C1303 1.363 . S
C1298 C1299 1.363 . S
C1298 C1303 1.379 . S
C1298 N1305 1.356 . S
C1299 C1298 1.363 . S
C1299 C1302 1.363 . S
N1300 C1302 1.356 . S
N1300 H1312 0.984 . S
N1300 H1313 0.985 . S
N1301 C1303 1.356 . S
N1301 H1306 0.984 . S
N1301 H1307 0.985 . S
C1302 C1296 1.379 . S
C1302 C1299 1.363 . S
C1302 N1300 1.356 . S
C1303 C1297 1.363 . S
C1303 C1298 1.379 . S
C1303 N1301 1.356 . S
N1304 C1296 1.356 . S
N1304 H1310 0.984 . S
N1304 H1311 0.984 . S
N1305 C1298 1.356 . S
N1305 H1308 0.984 . S
N1305 H1309 0.985 . S
H1306 N1301 0.984 . S
H1307 N1301 0.985 . S
H1308 N1305 0.984 . S
H1309 N1305 0.985 . S
H1310 N1304 0.984 . S
H1311 N1304 0.984 . S
H1312 N1300 0.984 . S
H1313 N1300 0.985 . S
C1314 C1315 1.363 . S
C1314 C1320 1.379 . S
C1314 N1322 1.356 . S
C1315 C1314 1.363 . S
C1315 C1321 1.363 . S
C1316 C1317 1.363 . S
C1316 C1321 1.379 . S
C1316 N1323 1.356 . S
C1317 C1316 1.363 . S
C1317 C1320 1.363 . S
N1318 C1320 1.356 . S
N1318 H1330 0.984 . S
N1318 H1331 0.985 . S
N1319 C1321 1.356 . S
N1319 H1324 0.984 . S
N1319 H1325 0.985 . S
C1320 C1314 1.379 . S
C1320 C1317 1.363 . S
C1320 N1318 1.356 . S
C1321 C1315 1.363 . S
C1321 C1316 1.379 . S
C1321 N1319 1.356 . S
N1322 C1314 1.356 . S
N1322 H1328 0.984 . S
N1322 H1329 0.984 . S
N1323 C1316 1.356 . S
N1323 H1326 0.984 . S
N1323 H1327 0.985 . S
H1324 N1319 0.984 . S
H1325 N1319 0.985 . S
H1326 N1323 0.984 . S
H1327 N1323 0.985 . S
H1328 N1322 0.984 . S
H1329 N1322 0.984 . S
H1330 N1318 0.984 . S
H1331 N1318 0.985 . S
C1332 C1333 1.363 . S
C1332 C1338 1.379 . S
C1332 N1340 1.356 . S
C1333 C1332 1.363 . S
C1333 C1339 1.363 . S
C1334 C1335 1.363 . S
C1334 C1339 1.379 . S
C1334 N1341 1.356 . S
C1335 C1334 1.363 . S
C1335 C1338 1.363 . S
N1336 C1338 1.356 . S
N1336 H1348 0.984 . S
N1336 H1349 0.985 . S
N1337 C1339 1.356 . S
N1337 H1342 0.984 . S
N1337 H1343 0.985 . S
C1338 C1332 1.379 . S
C1338 C1335 1.363 . S
C1338 N1336 1.356 . S
C1339 C1333 1.363 . S
C1339 C1334 1.379 . S
C1339 N1337 1.356 . S
N1340 C1332 1.356 . S
N1340 H1346 0.984 . S
N1340 H1347 0.984 . S
N1341 C1334 1.356 . S
N1341 H1344 0.984 . S
N1341 H1345 0.985 . S
H1342 N1337 0.984 . S
H1343 N1337 0.985 . S
H1344 N1341 0.984 . S
H1345 N1341 0.985 . S
H1346 N1340 0.984 . S
H1347 N1340 0.984 . S
H1348 N1336 0.984 . S
H1349 N1336 0.985 . S
C379 C147 1.551 . S
C381 C204 1.530 . S
C397 C158 1.490 . S
C399 C224 1.468 . S
C415 C136 1.506 . S
C417 C247 1.513 . S
C433 C125 1.443 . S
C435 C227 1.447 . S
C453 C244 1.451 . S
C451 C103 1.468 . S
C469 C114 1.505 . S
C471 C207 1.504 1_556 S
C489 C214 1.540 . S
C487 C131 1.569 . S
C507 C234 1.424 . S
C505 C109 1.451 . S
C523 C120 1.530 . S
C525 C239 1.546 1_556 S
C541 C153 1.462 . S
C543 C219 1.475 . S
C559 C164 1.477 . S
C561 C254 1.447 . S
C579 C199 1.556 . S
C577 C142 1.556 . S
C597 C264 1.530 . S
C595 C15 1.551 . S
C613 C26 1.490 . S
C615 C284 1.468 . S
C631 C4 1.506 . S
C633 C307 1.513 . S
C649 C191 1.444 . S
C651 C287 1.447 . S
C667 C169 1.468 . S
C669 C304 1.451 . S
C685 C180 1.505 . S
C687 C267 1.504 . S
C703 C197 1.569 . S
C705 C274 1.540 . S
C721 C175 1.451 . S
C723 C294 1.424 . S
C741 C299 1.546 . S
C739 C186 1.530 . S
C757 C21 1.462 1_565 S
C759 C279 1.475 . S
C777 C314 1.447 . S
C775 C32 1.477 . S
C793 C10 1.556 . S
C795 C259 1.556 . S
C813 C324 1.530 . S
C811 C81 1.551 . S
C829 C92 1.490 . S
C831 C344 1.468 . S
C849 C367 1.513 . S
C847 C70 1.506 . S
C867 C347 1.447 . S
C865 C59 1.444 . S
C885 C364 1.451 . S
C883 C37 1.467 . S
C901 C48 1.505 . S
C903 C327 1.504 . S
C919 C65 1.569 . S
C921 C334 1.540 . S
C937 C43 1.451 . S
C939 C354 1.424 . S
C957 C359 1.546 . S
C955 C54 1.530 . S
C973 C87 1.462 . S
C975 C339 1.475 . S
C991 C98 1.477 . S
C993 C374 1.447 . S
C1009 C76 1.556 . S
C1011 C319 1.556 . S
C1027 C170 1.406 . S
C1029 C217 1.353 . S
C1047 C237 1.586 . S
C1045 C181 1.667 . S
C1063 C192 1.511 . S
C1065 C246 1.479 . S
C1081 C71 1.629 . S
C1083 C226 1.583 . S
C1099 C82 1.572 . S
C1101 C257 1.504 . S
C1119 C206 1.355 . S
C1117 C93 1.376 . S
C1135 C38 1.406 . S
C1137 C277 1.353 . S
C1153 C49 1.667 . S
C1155 C297 1.586 . S
C1171 C60 1.511 . S
C1173 C306 1.478 . S
C1189 C137 1.629 . S
C1191 C286 1.583 . S
C1209 C317 1.504 . S
C1207 C148 1.572 . S
C1225 C159 1.376 . S
C1227 C266 1.355 . S
C1243 C104 1.406 . S
C1245 C337 1.353 . S
C1261 C115 1.667 . S
C1263 C357 1.586 . S
C1281 C366 1.479 . S
C1279 C126 1.511 . S
C1297 C5 1.629 . S
C1299 C346 1.583 . S
C1315 C16 1.572 . S
C1317 C377 1.504 . S
C1333 C27 1.376 . S
C1335 C326 1.355 . S
