# Generated by pormake.
# Topology pth, (4,4)-cn, num edge types: 1
# Building blocks:
#     Node 0, Type 0, BuildingBlock: QUQFOY_clean_sbu_3, # of connection points: 4
#     Node 1, Type 0, BuildingBlock: QUQFOY_clean_sbu_3, # of connection points: 4
#     Node 2, Type 0, BuildingBlock: QUQFOY_clean_sbu_3, # of connection points: 4
#     Node 3, Type 1, BuildingBlock: NAWXER_clean_linker_0, # of connection points: 4
#     Node 4, Type 1, BuildingBlock: NAWXER_clean_linker_0, # of connection points: 4
#     Node 5, Type 1, BuildingBlock: NAWXER_clean_linker_0, # of connection points: 4
#     Edge 6, Type (0, 1), BuildingBlock: UVAHIK_clean_linker_0, # of connection points: 2
#     Edge 7, Type (0, 1), BuildingBlock: UVAHIK_clean_linker_0, # of connection points: 2
#     Edge 8, Type (0, 1), BuildingBlock: UVAHIK_clean_linker_0, # of connection points: 2
#     Edge 9, Type (0, 1), BuildingBlock: UVAHIK_clean_linker_0, # of connection points: 2
#     Edge 10, Type (0, 1), BuildingBlock: UVAHIK_clean_linker_0, # of connection points: 2
#     Edge 11, Type (0, 1), BuildingBlock: UVAHIK_clean_linker_0, # of connection points: 2
#     Edge 12, Type (0, 1), BuildingBlock: UVAHIK_clean_linker_0, # of connection points: 2
#     Edge 13, Type (0, 1), BuildingBlock: UVAHIK_clean_linker_0, # of connection points: 2
#     Edge 14, Type (0, 1), BuildingBlock: UVAHIK_clean_linker_0, # of connection points: 2
#     Edge 15, Type (0, 1), BuildingBlock: UVAHIK_clean_linker_0, # of connection points: 2
#     Edge 16, Type (0, 1), BuildingBlock: UVAHIK_clean_linker_0, # of connection points: 2
#     Edge 17, Type (0, 1), BuildingBlock: UVAHIK_clean_linker_0, # of connection points: 2
# Relax obj value: 0.008
# Max RMSD: 0.058
# Mean RMSD: 0.041
data_MOF--net-pth--node1-QUQFOY_clean_sbu_3--node2-NAWXER_clean_linker_0--edge1-UVAHIK_clean_linker_0
_symmetry_space_group_name_H-M    P1
_symmetry_Int_Tables_number       1
_symmetry_cell_setting            triclinic
loop_
_symmetry_equiv_pos_as_xyz
'x, y, z'
_cell_length_a     36.454863
_cell_length_b     36.196959
_cell_length_c     84.549908
_cell_angle_alpha  90.011261
_cell_angle_beta   90.801066
_cell_angle_gamma 120.78914
loop_
_atom_site_label
_atom_site_type_symbol
_atom_site_fract_x
_atom_site_fract_y
_atom_site_fract_z
_atom_type_partial_charge
C0 C 0.97847 0.10958 0.06817 0.0
O1 O 0.95258 0.10171 0.05671 0.0
Cd2 Cd 0.95157 0.06255 0.03365 0.0
O3 O 0.00263 0.09373 0.06835 0.0
Cd4 Cd 0.01514 0.0437 0.05261 0.0
C5 C 0.05868 0.11766 0.02421 0.0
O6 O 0.94357 -0.00429 0.04177 0.0
O7 O -0.00469 -0.00546 0.03011 0.0
O8 O 0.00593 0.00376 0.07651 0.0
C9 C 0.95542 0.97863 0.03148 0.0
O10 O 0.02024 0.10666 0.02074 0.0
C11 C 0.04085 0.0041 0.07591 0.0
O12 O 0.06727 0.10197 0.03621 0.0
O13 O 0.0652 0.02413 0.06445 0.0
C14 C 0.10845 0.07992 0.40164 0.0
O15 O 0.12893 0.10687 0.39088 0.0
Cd16 Cd 0.09427 0.11458 0.36779 0.0
O17 O 0.0678 0.05812 0.40119 0.0
Cd18 Cd 0.00782 0.05151 0.3849 0.0
C19 C 0.03605 0.00827 0.35583 0.0
O20 O 0.03772 0.12512 0.37568 0.0
O21 O 0.9829 0.07614 0.36261 0.0
O22 O 0.97562 0.06057 0.40823 0.0
C23 C 0.00954 0.11578 0.36496 0.0
O24 O 0.06555 0.04681 0.35316 0.0
C25 C 0.94015 0.02561 0.40675 0.0
O26 O 0.01135 -0.00057 0.36754 0.0
O27 O 0.93612 0.00133 0.39516 0.0
C28 C 0.94786 0.06251 0.69524 0.0
O29 O 0.95288 0.08794 0.70651 0.0
Cd30 Cd -0.00494 0.09522 0.72974 0.0
O31 O 0.968 0.04236 0.69529 0.0
Cd32 Cd 0.02251 0.03769 0.71133 0.0
C33 C 0.95115 0.98865 0.74 0.0
O34 O 0.06422 0.11082 0.722 0.0
O35 O 0.07186 0.06225 0.73387 0.0
O36 O 0.06456 0.05042 0.68793 0.0
C37 C 0.08358 0.10165 0.73245 0.0
O38 O 0.95834 0.02613 0.74339 0.0
C39 C 0.06615 0.01627 0.68873 0.0
O40 O 0.96781 0.98226 0.72793 0.0
O41 O 0.0465 0.99097 0.70006 0.0
C42 C 0.01557 0.43429 0.24645 0.0
C43 C 0.04806 0.44177 0.25745 0.0
C44 C 0.02056 0.46674 0.23618 0.0
C45 C 0.0581 0.50723 0.23673 0.0
C46 C 0.08573 0.48242 0.25784 0.0
C47 C 0.09047 0.51493 0.24769 0.0
C48 C 0.06292 0.54248 0.22657 0.0
C49 C 0.06582 0.44405 0.19492 0.0
C50 C 0.03526 0.42874 0.18252 0.0
C51 C 0.07404 0.48012 0.20383 0.0
C52 C 0.05116 0.50103 0.20077 0.0
C53 C 0.01322 0.45045 0.17928 0.0
C54 C 0.02105 0.48608 0.18831 0.0
C55 C 0.05918 0.53945 0.20992 0.0
C56 C 0.10819 0.71985 0.19134 0.0
C57 C 0.0767 0.71035 0.17966 0.0
C58 C 0.1058 0.68718 0.20091 0.0
C59 C 0.072 0.64457 0.19887 0.0
C60 C 0.04348 0.66756 0.17746 0.0
C61 C 0.04138 0.63494 0.18688 0.0
C62 C 0.06838 0.60962 0.20898 0.0
C63 C 0.0398 0.6911 0.24064 0.0
C64 C 0.06433 0.7061 0.25464 0.0
C65 C 0.04231 0.66115 0.23102 0.0
C66 C 0.07046 0.64668 0.23495 0.0
C67 C 0.0922 0.69146 0.25868 0.0
C68 C 0.0953 0.66208 0.24889 0.0
C69 C 0.07052 0.61195 0.22568 0.0
H70 H 0.98585 0.40369 0.246 0.0
H71 H -0.00518 0.4605 0.22801 0.0
H72 H 0.11172 0.48916 0.26594 0.0
H73 H 0.11959 0.54608 0.24832 0.0
H74 H 0.08335 0.42813 0.19779 0.0
H75 H 0.09857 0.49182 0.213 0.0
H76 H -0.0097 0.44039 0.16959 0.0
H77 H 0.00341 0.50198 0.18555 0.0
H78 H 0.13412 0.75259 0.19326 0.0
H79 H 0.13023 0.69517 0.20991 0.0
H80 H 0.01915 0.6593 0.16838 0.0
H81 H 0.01528 0.60223 0.18501 0.0
H82 H 0.01746 0.70129 0.23745 0.0
H83 H 0.02108 0.6483 0.22083 0.0
H84 H 0.11143 0.70261 0.26943 0.0
H85 H 0.11669 0.6509 0.25234 0.0
N86 N 0.06838 0.57851 0.23379 0.0
N87 N 0.06221 0.57327 0.20179 0.0
C88 C 0.6137 -0.00126 0.52136 0.0
C89 C 0.60305 0.96882 0.50895 0.0
C90 C 0.58208 -0.00313 0.53104 0.0
C91 C 0.53924 0.96422 0.52886 0.0
C92 C 0.55994 0.93673 0.5066 0.0
C93 C 0.52841 0.93453 0.51644 0.0
C94 C 0.50519 0.96239 0.53876 0.0
C95 C 0.59726 0.9504 0.5714 0.0
C96 C 0.61479 0.982 0.58343 0.0
C97 C 0.56183 0.94398 0.56246 0.0
C98 C 0.54398 0.96982 0.5651 0.0
C99 C 0.59547 0.00634 0.58646 0.0
C100 C 0.56066 0.00041 0.57738 0.0
C101 C 0.50762 0.96541 0.55549 0.0
C102 C 0.33508 0.93753 0.57248 0.0
C103 C 0.34775 0.9695 0.5842 0.0
C104 C 0.36558 0.93603 0.5631 0.0
C105 C 0.40919 0.96631 0.56537 0.0
C106 C 0.39142 -0.00041 0.58649 0.0
C107 C 0.42187 -0.00225 0.57725 0.0
C108 C 0.44193 0.96488 0.55571 0.0
C109 C 0.37881 0.01315 0.52277 0.0
C110 C 0.3545 0.98432 0.51053 0.0
C111 C 0.40576 0.00552 0.53228 0.0
C112 C 0.40891 0.96891 0.52975 0.0
C113 C 0.35725 0.94739 0.50812 0.0
C114 C 0.38467 0.94001 0.51755 0.0
C115 C 0.44001 0.96291 0.53906 0.0
H116 H 0.64653 0.02369 0.52365 0.0
H117 H 0.59115 0.02113 0.54018 0.0
H118 H 0.55033 0.91375 0.49696 0.0
H119 H 0.49544 0.9096 0.51433 0.0
H120 H 0.61123 0.93102 0.56871 0.0
H121 H 0.54869 0.91912 0.55341 0.0
H122 H 0.60708 0.02999 0.59593 0.0
H123 H 0.54706 0.02029 0.57986 0.0
H124 H 0.30161 0.914 0.57048 0.0
H125 H 0.35514 0.91101 0.55417 0.0
H126 H 0.40205 0.02424 0.59558 0.0
H127 H 0.45537 0.02123 0.57926 0.0
H128 H 0.37716 0.04177 0.52491 0.0
H129 H 0.42494 0.0288 0.54139 0.0
H130 H 0.33913 0.92491 0.49865 0.0
H131 H 0.38712 0.91189 0.51529 0.0
N132 N 0.47139 0.96119 0.53121 0.0
N133 N 0.47579 0.96646 0.56326 0.0
C134 C 0.40084 0.40482 0.85502 0.0
C135 C 0.37878 0.41703 0.84446 0.0
C136 C 0.4333 0.43527 0.8649 0.0
C137 C 0.44451 0.47851 0.86435 0.0
C138 C 0.38967 0.46037 0.84421 0.0
C139 C 0.42256 0.49087 0.85394 0.0
C140 C 0.48097 0.51142 0.87378 0.0
C141 C 0.37694 0.43716 0.90893 0.0
C142 C 0.38678 0.41404 0.91987 0.0
C143 C 0.40835 0.46744 0.89906 0.0
C144 C 0.45019 0.47524 0.89994 0.0
C145 C 0.42873 0.42175 0.92058 0.0
C146 C 0.46018 0.45234 0.91081 0.0
C147 C 0.4843 0.50904 0.89031 0.0
C148 C 0.63629 0.68198 0.90727 0.0
C149 C 0.65077 0.66934 0.92049 0.0
C150 C 0.60461 0.65104 0.89725 0.0
C151 C 0.58801 0.60699 0.90001 0.0
C152 C 0.6339 0.62544 0.92337 0.0
C153 C 0.60292 0.59457 0.91319 0.0
C154 C 0.5526 0.57347 0.89019 0.0
C155 C 0.65966 0.64759 0.85626 0.0
C156 C 0.64939 0.66436 0.84309 0.0
C157 C 0.62754 0.61856 0.86622 0.0
C158 C 0.5848 0.60704 0.8635 0.0
C159 C 0.60666 0.65217 0.84015 0.0
C160 C 0.5747 0.62389 0.85029 0.0
C161 C 0.54989 0.57504 0.8735 0.0
H162 H 0.39403 0.37201 0.85534 0.0
H163 H 0.45051 0.42527 0.87264 0.0
H164 H 0.37294 0.47087 0.83646 0.0
H165 H 0.43089 0.52418 0.85333 0.0
H166 H 0.34525 0.43274 0.90827 0.0
H167 H 0.40019 0.48556 0.89103 0.0
H168 H 0.43734 0.40412 0.92866 0.0
H169 H 0.49237 0.45805 0.91171 0.0
H170 H 0.64847 0.71573 0.90499 0.0
H171 H 0.59252 0.66161 0.88758 0.0
H172 H 0.64468 0.61504 0.93351 0.0
H173 H 0.59032 0.56086 0.9157 0.0
H174 H 0.69239 0.65613 0.8586 0.0
H175 H 0.63612 0.60468 0.87589 0.0
H176 H 0.59806 0.66481 0.83007 0.0
H177 H 0.54197 0.61512 0.84779 0.0
N178 N 0.51385 0.54417 0.86601 0.0
N179 N 0.51987 0.54018 0.89787 0.0
C180 C 0.94851 0.14688 0.08361 0.0
C181 C 0.98133 0.13806 0.08126 0.0
C182 C 0.95187 0.1748 0.09571 0.0
C183 C 0.01424 0.23018 0.1324 0.0
H184 H 0.97134 0.30664 0.12375 0.0
C185 C 0.06066 0.38475 0.1685 0.0
C186 C 0.02703 0.39107 0.17268 0.0
C187 C 0.05318 0.35078 0.15848 0.0
C188 C 0.98309 0.28518 0.12637 0.0
H189 H 0.04341 0.15146 0.08976 0.0
H190 H 0.0501 0.20135 0.11043 0.0
H191 H 0.96208 0.25364 0.10393 0.0
H192 H 0.95872 0.36516 0.17015 0.0
H193 H 0.94616 0.30688 0.15224 0.0
H194 H 0.03675 0.26337 0.15465 0.0
C195 C 0.02111 0.18584 0.10328 0.0
C196 C 0.97763 0.25461 0.11506 0.0
C197 C 0.01743 0.15742 0.09134 0.0
C198 C 0.98559 0.36196 0.16689 0.0
C199 C 0.97827 0.32842 0.15671 0.0
C200 C 0.02026 0.26125 0.14362 0.0
C201 C -0.01153 0.19509 0.10558 0.0
C202 C -0.00681 0.22673 0.11789 0.0
C203 C 0.01206 0.3228 0.15229 0.0
C204 C 0.00476 0.28902 0.14069 0.0
H205 H 0.92009 0.1321 0.07613 0.0
H206 H 0.92568 0.18037 0.09732 0.0
H207 H 0.02597 0.2088 0.13514 0.0
H208 H 0.09307 0.40679 0.17253 0.0
H209 H 0.07984 0.3473 0.15512 0.0
C210 C 0.86753 0.97441 0.41756 0.0
C211 C 0.90474 0.01533 0.41758 0.0
C212 C 0.83344 0.96608 0.42733 0.0
C213 C 0.78441 0.02033 0.4459 0.0
H214 H 0.7344 0.92587 0.47551 0.0
C215 C 0.67094 0.01212 0.4939 0.0
C216 C 0.6366 0.97179 0.49826 0.0
C217 C 0.70229 0.01511 0.4838 0.0
C218 C 0.74745 0.95198 0.46712 0.0
H219 H 0.9356 0.07938 0.42797 0.0
H220 H 0.87596 0.065 0.44471 0.0
H221 H 0.79111 0.93421 0.45808 0.0
H222 H 0.6088 0.90286 0.49545 0.0
H223 H 0.66241 0.90813 0.47726 0.0
H224 H 0.74064 0.0379 0.45451 0.0
C225 C 0.87321 0.0394 0.4372 0.0
C226 C 0.78001 0.95676 0.4572 0.0
C227 C 0.9074 0.0475 0.42767 0.0
C228 C 0.63444 0.93449 0.4922 0.0
C229 C 0.66558 0.93751 0.48193 0.0
C230 C 0.75154 0.01524 0.45561 0.0
C231 C 0.83581 -0.00121 0.43703 0.0
C232 C 0.79922 0.99143 0.44671 0.0
C233 C 0.69989 0.97789 0.47757 0.0
C234 C 0.73313 0.98149 0.46657 0.0
H235 H 0.86463 0.94899 0.40991 0.0
H236 H 0.80482 0.93451 0.427 0.0
H237 H 0.79834 0.04697 0.43773 0.0
H238 H 0.67346 0.04159 0.49811 0.0
H239 H 0.7286 0.04679 0.48098 0.0
C240 C 0.91772 0.96006 0.76614 0.0
C241 C 0.92305 0.95236 0.75029 0.0
C242 C 0.89062 0.9261 0.7759 0.0
C243 C 0.79447 0.82258 0.77525 0.0
H244 H 0.83221 0.80587 0.81633 0.0
C245 C 0.67909 0.68577 0.81599 0.0
C246 C 0.68303 0.69428 0.83231 0.0
C247 C 0.71025 0.7146 0.80571 0.0
C248 C 0.82091 0.81039 0.805 0.0
H249 H 0.90428 0.90316 0.73219 0.0
H250 H 0.8556 0.84371 0.74923 0.0
H251 H 0.88332 0.86169 0.79888 0.0
H252 H 0.72217 0.73925 0.85076 0.0
H253 H 0.77573 0.79073 0.83282 0.0
H254 H 0.73176 0.77318 0.78151 0.0
C255 C 0.87297 0.87607 0.75407 0.0
C256 C 0.85032 0.84213 0.79498 0.0
C257 C 0.90084 0.90998 0.74438 0.0
C258 C 0.71872 0.73191 0.83821 0.0
C259 C 0.7495 0.7612 0.82791 0.0
C260 C 0.76486 0.79138 0.78537 0.0
C261 C 0.86771 0.88392 0.7699 0.0
C262 C 0.83727 0.84861 0.78008 0.0
C263 C 0.74562 0.75303 0.81149 0.0
C264 C 0.7776 0.78501 0.80044 0.0
H265 H 0.93461 0.99236 0.77104 0.0
H266 H 0.8868 0.93291 0.78804 0.0
H267 H 0.78363 0.82739 0.76386 0.0
H268 H 0.65199 0.65662 0.81121 0.0
H269 H 0.70655 0.70662 0.79322 0.0
C270 C 0.0205 0.95489 0.09894 0.0
C271 C 0.05085 0.97992 0.08756 0.0
C272 C 0.02744 0.92869 0.10909 0.0
C273 C 0.10726 0.90935 0.12725 0.0
H274 H 0.01283 0.79155 0.12913 0.0
C275 C 0.11523 0.77505 0.16228 0.0
C276 C 0.07775 0.74479 0.16989 0.0
C277 C 0.115 0.80573 0.15226 0.0
C278 C 0.03932 0.82443 0.12894 0.0
H279 H 0.1132 -0.00144 0.07838 0.0
H280 H 0.12554 0.9527 0.09641 0.0
H281 H 0.0076 0.84232 0.11183 0.0
H282 H 0.01139 0.72423 0.17374 0.0
H283 H 0.0111 0.77814 0.15666 0.0
H284 H 0.13859 0.89159 0.14469 0.0
C285 C 0.09632 0.95344 0.09732 0.0
C286 C 0.03636 0.85343 0.11896 0.0
C287 C 0.08919 0.97952 0.087 0.0
C288 C 0.04051 0.74667 0.16776 0.0
C289 C 0.04036 0.77747 0.15792 0.0
C290 C 0.1101 0.88031 0.13742 0.0
C291 C 0.065 0.92709 0.1082 0.0
C292 C 0.06999 0.89628 0.11817 0.0
C293 C 0.07733 0.80687 0.1498 0.0
C294 C 0.07583 0.83764 0.13853 0.0
H295 H -0.00927 0.95461 0.09977 0.0
H296 H 0.00307 0.90916 0.11754 0.0
H297 H 0.13359 0.94229 0.12686 0.0
H298 H 0.14433 0.77412 0.16368 0.0
H299 H 0.14395 0.8277 0.14612 0.0
C300 C 0.11069 0.03503 0.42373 0.0
C301 C 0.1319 0.07201 0.41433 0.0
C302 C 0.13331 0.02577 0.43493 0.0
C303 C 0.23103 0.07377 0.45921 0.0
H304 H 0.21665 0.95998 0.4579 0.0
C305 C 0.34451 0.03482 0.4934 0.0
C306 C 0.32762 -0.00621 0.5 0.0
C307 C 0.31946 0.04408 0.48344 0.0
C308 C 0.22057 0.99167 0.45864 0.0
H309 H 0.19322 0.12896 0.4097 0.0
H310 H 0.23257 0.11303 0.42949 0.0
H311 H 0.17446 0.97717 0.44007 0.0
H312 H 0.27127 0.93037 0.50156 0.0
H313 H 0.22689 0.94675 0.48451 0.0
H314 H 0.27653 0.08826 0.47792 0.0
C315 C 0.19848 0.09119 0.42808 0.0
C316 C 0.19648 0.00152 0.44838 0.0
C317 C 0.17598 0.10018 0.41672 0.0
C318 C 0.28513 0.96215 0.4965 0.0
C319 C 0.25983 0.97156 0.48668 0.0
C320 C 0.25474 0.06379 0.46962 0.0
C321 C 0.17745 0.05359 0.43713 0.0
C322 C 0.20176 0.04276 0.44848 0.0
C323 C 0.27671 0.01266 0.48001 0.0
C324 C 0.25015 0.02273 0.46937 0.0
H325 H 0.07677 0.01262 0.42217 0.0
H326 H 0.1163 -0.00324 0.44186 0.0
H327 H 0.23532 0.10567 0.45964 0.0
H328 H 0.3774 0.0596 0.49573 0.0
H329 H 0.3339 0.07575 0.47826 0.0
C330 C 0.13238 0.17835 0.7406 0.0
C331 C 0.11434 0.13436 0.74371 0.0
C332 C 0.16079 0.2092 0.75147 0.0
C333 C 0.22941 0.22239 0.78659 0.0
H334 H 0.22763 0.32771 0.79256 0.0
C335 C 0.31893 0.34206 0.83788 0.0
C336 C 0.34586 0.38504 0.83331 0.0
C337 C 0.28973 0.31159 0.8271 0.0
C338 C 0.22849 0.29847 0.79095 0.0
H339 H 0.11147 0.08805 0.76066 0.0
H340 H 0.15962 0.14159 0.77985 0.0
H341 H 0.17864 0.27404 0.7734 0.0
H342 H 0.3627 0.42947 0.81372 0.0
H343 H 0.31061 0.3765 0.79516 0.0
H344 H 0.27857 0.24662 0.80451 0.0
C345 C 0.15303 0.15254 0.76885 0.0
C346 C 0.20067 0.26782 0.77991 0.0
C347 C 0.12518 0.12176 0.75788 0.0
C348 C 0.34202 0.39695 0.81779 0.0
C349 C 0.31236 0.3666 0.8071 0.0
C350 C 0.25672 0.25274 0.79779 0.0
C351 C 0.17127 0.19669 0.76579 0.0
C352 C 0.20086 0.22941 0.77754 0.0
C353 C 0.28635 0.32359 0.81161 0.0
C354 C 0.2566 0.29108 0.80002 0.0
H355 H 0.12476 0.18896 0.72972 0.0
H356 H 0.17477 0.24285 0.74856 0.0
H357 H 0.23115 0.19368 0.7849 0.0
H358 H 0.32034 0.33185 0.84979 0.0
H359 H 0.26962 0.27864 0.83088 0.0
C360 C 0.90409 0.08459 0.67916 0.0
C361 C 0.9174 0.05502 0.68218 0.0
C362 C 0.87431 0.07666 0.66708 0.0
C363 C 0.78445 0.99008 0.64611 0.0
H364 H 0.80462 0.07476 0.61407 0.0
C365 C 0.65857 0.95553 0.5973 0.0
C366 C 0.65287 0.98975 0.59289 0.0
C367 C 0.69335 0.96292 0.60686 0.0
C368 C 0.79816 0.05093 0.62304 0.0
H369 H 0.91 -0.006 0.67493 0.0
H370 H 0.85709 0.97974 0.6541 0.0
H371 H 0.86032 0.08961 0.63369 0.0
H372 H 0.68067 0.05894 0.59456 0.0
H373 H 0.73941 0.07137 0.61186 0.0
H374 H 0.72175 0.95215 0.63611 0.0
C375 C 0.87012 0.00918 0.66099 0.0
C376 C 0.8302 0.05943 0.6342 0.0
C377 C 0.90048 0.01748 0.67285 0.0
C378 C 0.68338 0.0316 0.59798 0.0
C379 C 0.71769 0.03888 0.60772 0.0
C380 C 0.75209 0.98187 0.63514 0.0
C381 C 0.85674 0.03865 0.65803 0.0
C382 C 0.82351 0.02915 0.64586 0.0
C383 C 0.72301 0.00462 0.61241 0.0
C384 C 0.75838 0.01231 0.62351 0.0
H385 H 0.91666 0.11384 0.68612 0.0
H386 H 0.86422 0.09972 0.66505 0.0
H387 H 0.77847 0.9664 0.65511 0.0
H388 H 0.63565 0.92283 0.59371 0.0
H389 H 0.69675 0.9358 0.60997 0.0
C390 C 0.93828 0.93901 0.00572 0.0
C391 C 0.92461 0.9457 0.02032 0.0
C392 C 0.90885 0.90926 -0.00518 0.0
C393 C 0.79218 0.84703 0.98547 0.0
H394 H 0.82468 0.78328 0.95787 0.0
C395 C 0.67304 0.69934 0.9478 0.0
C396 C 0.68231 0.70176 0.93164 0.0
C397 C 0.7027 0.72984 0.95844 0.0
C398 C 0.81539 0.80113 0.96546 0.0
H399 H 0.86981 0.92575 0.03521 0.0
H400 H 0.81863 0.87231 0.01656 0.0
H401 H 0.87611 0.83359 0.97731 0.0
H402 H 0.72952 0.73733 0.91385 0.0
H403 H 0.78224 0.79032 0.93264 0.0
H404 H 0.7308 0.81294 0.97391 0.0
C405 C 0.85178 0.89108 0.0132 0.0
C406 C 0.84483 0.83012 0.97655 0.0
C407 C 0.88113 0.92145 0.02397 0.0
C408 C 0.72176 0.73502 0.92627 0.0
C409 C 0.75183 0.76505 0.93697 0.0
C410 C 0.76254 0.81743 0.97459 0.0
C411 C 0.86516 0.88489 -0.0016 0.0
C412 C 0.83368 0.85359 0.98668 0.0
C413 C 0.74241 0.76273 0.95312 0.0
C414 C 0.77397 0.79438 0.96448 0.0
H415 H 0.97161 0.95755 0.00255 0.0
H416 H 0.92037 0.90609 0.98347 0.0
H417 H 0.78261 0.86511 -0.00722 0.0
H418 H 0.64266 0.67404 0.95216 0.0
H419 H 0.6949 0.72738 0.97085 0.0
C420 C 0.01378 0.93123 0.35085 0.0
C421 C 0.03172 0.97356 0.34535 0.0
C422 C 0.01304 0.89937 0.34124 0.0
C423 C 0.01582 0.86952 0.30023 0.0
H424 H 0.07119 0.81005 0.31675 0.0
C425 C 0.06155 0.77279 0.2594 0.0
C426 C 0.05935 0.73553 0.26532 0.0
C427 C 0.05574 0.8 0.26941 0.0
C428 C 0.05487 0.82565 0.312 0.0
H429 H 0.0613 0.01539 0.32531 0.0
H430 H 0.05897 0.9595 0.30844 0.0
H431 H 0.06236 0.85912 0.33384 0.0
H432 H 0.04868 0.69689 0.2862 0.0
H433 H 0.03709 0.7435 0.30364 0.0
H434 H 0.00751 0.8358 0.2785 0.0
C435 C 0.04594 0.95112 0.32021 0.0
C436 C 0.04995 0.85385 0.32181 0.0
C437 C 0.04747 0.98309 0.3299 0.0
C438 C 0.0511 0.72581 0.28141 0.0
C439 C 0.04459 0.75263 0.29139 0.0
C440 C 0.02007 0.84081 0.29049 0.0
C441 C 0.02934 0.90917 0.32587 0.0
C442 C 0.03097 0.87647 0.31593 0.0
C443 C 0.04685 0.79013 0.28553 0.0
C444 C 0.04029 0.819 0.29616 0.0
H445 H 0.00155 0.92303 0.36274 0.0
H446 H -6e-05 0.86715 0.34582 0.0
H447 H 0.00074 0.88639 0.29548 0.0
H448 H 0.06821 0.78109 0.24704 0.0
H449 H 0.05871 0.82903 0.26452 0.0
C450 C 0.11791 0.03986 0.66667 0.0
C451 C 0.09131 0.0077 0.67732 0.0
C452 C 0.14375 0.03331 0.65644 0.0
C453 C 0.15735 0.95161 0.63664 0.0
H454 H 0.27637 0.04219 0.63517 0.0
C455 C 0.28355 0.93458 0.60152 0.0
C456 C 0.31572 0.97158 0.59413 0.0
C457 C 0.25478 0.93721 0.61157 0.0
C458 C 0.24312 0.01683 0.63523 0.0
H459 H 0.07001 0.94293 0.68527 0.0
H460 H 0.11507 0.93127 0.66712 0.0
H461 H 0.22821 0.0496 0.65273 0.0
H462 H 0.34201 0.03988 0.59085 0.0
H463 H 0.29127 0.04442 0.60797 0.0
H464 H 0.172 0.91922 0.61886 0.0
C465 C 0.11586 0.96158 0.66681 0.0
C466 C 0.21561 0.02104 0.64536 0.0
C467 C 0.09026 0.96833 0.67722 0.0
C468 C 0.31791 0.011 0.59661 0.0
C469 C 0.28893 0.01357 0.60648 0.0
C470 C 0.18484 0.94757 0.62634 0.0
C471 C 0.1433 -0.00569 0.6565 0.0
C472 C 0.17242 0.98865 0.6461 0.0
C473 C 0.25739 0.97685 0.61428 0.0
C474 C 0.22802 0.98033 0.62542 0.0
H475 H 0.11942 0.07053 0.66642 0.0
H476 H 0.16422 0.05886 0.64847 0.0
H477 H 0.1241 0.9263 0.63693 0.0
H478 H 0.28141 0.90384 0.5999 0.0
H479 H 0.23125 0.90838 0.6175 0.0
C480 C 0.08363 0.15862 -0.001 0.0
C481 C 0.09339 0.1486 0.01394 0.0
C482 C 0.11605 0.18744 0.98914 0.0
C483 C 0.23245 0.23936 0.98256 0.0
H484 H 0.21287 0.31612 0.95656 0.0
C485 C 0.36446 0.37923 0.94651 0.0
C486 C 0.35372 0.38283 0.93076 0.0
C487 C 0.33332 0.35048 0.95682 0.0
C488 C 0.21863 0.29464 0.96367 0.0
H489 H 0.14494 0.16126 0.03031 0.0
H490 H 0.20163 0.21263 0.01327 0.0
H491 H 0.15786 0.2674 0.97463 0.0
H492 H 0.30173 0.35819 0.91348 0.0
H493 H 0.24724 0.30881 0.93164 0.0
H494 H 0.29373 0.26753 0.97172 0.0
C495 C 0.16889 0.19744 0.00902 0.0
C496 C 0.1871 0.26661 0.974 0.0
C497 C 0.13639 0.16818 0.01883 0.0
C498 C 0.31104 0.35687 0.92559 0.0
C499 C 0.27983 0.32848 0.93596 0.0
C500 C 0.2642 0.26779 0.97234 0.0
C501 C 0.15909 0.20741 -0.00596 0.0
C502 C 0.19342 0.23832 0.98348 0.0
C503 C 0.29067 0.32506 0.95167 0.0
C504 C 0.25742 0.29543 0.96271 0.0
H505 H 0.05086 0.14379 -0.00522 0.0
H506 H 0.10729 0.19357 0.97757 0.0
H507 H 0.23821 0.21763 0.98949 0.0
H508 H 0.3968 0.39925 0.95101 0.0
H509 H 0.34241 0.3488 0.96894 0.0
C510 C 0.987 0.13734 0.34026 0.0
C511 C 0.01092 0.14903 0.35446 0.0
C512 C -0.01016 0.16885 0.32997 0.0
C513 C 0.05991 0.28438 0.32058 0.0
H514 H 0.96095 0.26671 0.29636 0.0
C515 C 0.05834 0.41843 0.28431 0.0
C516 C 0.04252 0.4077 0.26867 0.0
C517 C 0.05376 0.38666 0.29481 0.0
C518 C -0.01113 0.27188 0.30299 0.0
H519 H 0.05558 0.20276 0.36925 0.0
H520 H 0.05952 0.25776 0.35157 0.0
H521 H 0.95365 0.21201 0.31504 0.0
H522 H 0.00938 0.35486 0.25189 0.0
H523 H 0.00045 0.29927 0.27045 0.0
H524 H 0.09481 0.3447 0.30871 0.0
C525 C 0.03949 0.22431 0.34812 0.0
C526 C 0.98479 0.24054 0.31365 0.0
C527 C 0.03703 0.1928 0.35832 0.0
C528 C 0.02142 0.36426 0.26389 0.0
C529 C 0.01639 0.3324 0.27448 0.0
C530 C 0.06384 0.31589 0.31007 0.0
C531 C 0.01629 0.21276 0.33372 0.0
C532 C 0.0203 0.24634 0.32255 0.0
C533 C 0.03277 0.34338 0.29001 0.0
C534 C 0.0284 0.30989 0.30115 0.0
H535 H 0.96674 0.10383 0.33692 0.0
H536 H 0.972 0.1587 0.3189 0.0
H537 H 0.08816 0.28961 0.32696 0.0
H538 H 0.0739 0.45137 0.28852 0.0
H539 H 0.06616 0.39589 0.30679 0.0
loop_
_geom_bond_atom_site_label_1
_geom_bond_atom_site_label_2
_geom_bond_distance
_geom_bond_site_symmetry_2
_ccdc_geom_bond_type
C0 O1 1.306 . S
C0 O3 1.160 . S
O1 C0 1.306 . S
O1 Cd2 2.228 1_455 S
Cd2 O1 2.228 1_655 S
Cd2 O6 2.273 . S
Cd2 O10 2.277 1_655 S
O3 C0 1.160 . S
O3 Cd4 2.203 . S
Cd4 O3 2.203 . S
Cd4 O6 2.411 1_455 S
Cd4 O7 2.333 1_545 S
Cd4 O8 2.352 1_545 S
Cd4 O12 2.277 . S
Cd4 O13 2.356 1_545 S
C5 O10 1.209 . S
C5 O12 1.226 . S
O6 Cd2 2.273 . S
O6 Cd4 2.411 1_655 S
O6 C9 1.320 1_545 S
O7 Cd4 2.333 1_565 S
O7 C9 1.214 1_455 S
O8 Cd4 2.352 1_565 S
O8 C11 1.258 . S
C9 O6 1.320 1_565 S
C9 O7 1.214 1_655 S
O10 Cd2 2.277 1_455 S
O10 C5 1.209 . S
C11 O8 1.258 . S
C11 O13 1.282 . S
O12 Cd4 2.277 . S
O12 C5 1.226 . S
O13 Cd4 2.356 1_565 S
O13 C11 1.282 . S
C14 O15 1.306 . S
C14 O17 1.160 . S
O15 C14 1.306 . S
O15 Cd16 2.228 . S
Cd16 O15 2.228 . S
Cd16 O20 2.273 . S
Cd16 O24 2.277 . S
O17 C14 1.160 . S
O17 Cd18 2.203 . S
Cd18 O17 2.203 . S
Cd18 O20 2.411 . S
Cd18 O21 2.333 1_455 S
Cd18 O22 2.352 1_455 S
Cd18 O26 2.277 1_445 S
Cd18 O27 2.356 1_445 S
C19 O24 1.209 1_565 S
C19 O26 1.226 1_455 S
O20 Cd16 2.273 . S
O20 Cd18 2.411 . S
O20 C23 1.320 . S
O21 Cd18 2.333 1_655 S
O21 C23 1.214 1_655 S
O22 Cd18 2.352 1_655 S
O22 C25 1.258 . S
C23 O20 1.320 . S
C23 O21 1.214 1_455 S
O24 Cd16 2.277 . S
O24 C19 1.209 1_545 S
C25 O22 1.258 . S
C25 O27 1.282 1_545 S
O26 Cd18 2.277 1_665 S
O26 C19 1.226 1_655 S
O27 Cd18 2.356 1_665 S
O27 C25 1.282 1_565 S
C28 O29 1.306 . S
C28 O31 1.160 . S
O29 C28 1.306 . S
O29 Cd30 2.228 . S
Cd30 O29 2.228 . S
Cd30 O34 2.273 1_655 S
Cd30 O38 2.277 . S
O31 C28 1.160 . S
O31 Cd32 2.203 1_655 S
Cd32 O31 2.203 1_455 S
Cd32 O34 2.411 . S
Cd32 O35 2.333 . S
Cd32 O36 2.352 . S
Cd32 O40 2.277 1_445 S
Cd32 O41 2.356 . S
C33 O38 1.209 1_565 S
C33 O40 1.226 . S
O34 Cd30 2.273 1_455 S
O34 Cd32 2.411 . S
O34 C37 1.320 . S
O35 Cd32 2.333 . S
O35 C37 1.214 . S
O36 Cd32 2.352 . S
O36 C39 1.258 . S
C37 O34 1.320 . S
C37 O35 1.214 . S
O38 Cd30 2.277 . S
O38 C33 1.209 1_545 S
C39 O36 1.258 . S
C39 O41 1.282 . S
O40 Cd32 2.277 1_665 S
O40 C33 1.226 . S
O41 Cd32 2.356 . S
O41 C39 1.282 . S
C42 C43 1.384 . S
C42 C44 1.384 . S
C42 H70 0.931 1_455 S
C43 C42 1.384 . S
C43 C46 1.382 . S
C44 C42 1.384 . S
C44 C45 1.381 . S
C44 H71 0.930 1_455 S
C45 C44 1.381 . S
C45 C47 1.381 . S
C45 C48 1.487 . S
C46 C43 1.382 . S
C46 C47 1.387 . S
C46 H72 0.930 . S
C47 C45 1.381 . S
C47 C46 1.387 . S
C47 H73 0.931 . S
C48 C45 1.487 . S
C48 C55 1.399 . S
C48 N86 1.343 . S
C49 C50 1.384 . S
C49 C51 1.384 . S
C49 H74 0.931 . S
C50 C49 1.384 . S
C50 C53 1.382 . S
C51 C49 1.384 . S
C51 C52 1.381 . S
C51 H75 0.930 . S
C52 C51 1.381 . S
C52 C54 1.381 . S
C52 C55 1.487 . S
C53 C50 1.382 . S
C53 C54 1.387 . S
C53 H76 0.930 1_455 S
C54 C52 1.381 . S
C54 C53 1.387 . S
C54 H77 0.931 1_455 S
C55 C48 1.399 . S
C55 C52 1.487 . S
C55 N87 1.343 . S
C56 C57 1.384 . S
C56 C58 1.384 . S
C56 H78 0.931 . S
C57 C56 1.384 . S
C57 C60 1.382 . S
C58 C56 1.384 . S
C58 C59 1.381 . S
C58 H79 0.930 . S
C59 C58 1.381 . S
C59 C61 1.381 . S
C59 C62 1.487 . S
C60 C57 1.382 . S
C60 C61 1.387 . S
C60 H80 0.930 1_455 S
C61 C59 1.381 . S
C61 C60 1.387 . S
C61 H81 0.931 1_455 S
C62 C59 1.487 . S
C62 C69 1.399 . S
C62 N87 1.343 . S
C63 C64 1.384 . S
C63 C65 1.384 . S
C63 H82 0.931 1_455 S
C64 C63 1.384 . S
C64 C67 1.382 . S
C65 C63 1.384 . S
C65 C66 1.381 . S
C65 H83 0.930 1_455 S
C66 C65 1.381 . S
C66 C68 1.381 . S
C66 C69 1.487 . S
C67 C64 1.382 . S
C67 C68 1.387 . S
C67 H84 0.930 . S
C68 C66 1.381 . S
C68 C67 1.387 . S
C68 H85 0.931 . S
C69 C62 1.399 . S
C69 C66 1.487 . S
C69 N86 1.343 . S
H70 C42 0.931 1_655 S
H71 C44 0.930 1_655 S
H72 C46 0.930 . S
H73 C47 0.931 . S
H74 C49 0.931 . S
H75 C51 0.930 . S
H76 C53 0.930 1_655 S
H77 C54 0.931 1_655 S
H78 C56 0.931 . S
H79 C58 0.930 . S
H80 C60 0.930 1_655 S
H81 C61 0.931 1_655 S
H82 C63 0.931 1_655 S
H83 C65 0.930 1_655 S
H84 C67 0.930 . S
H85 C68 0.931 . S
N86 C48 1.343 . S
N86 C69 1.343 . S
N87 C55 1.343 . S
N87 C62 1.343 . S
C88 C89 1.384 . S
C88 C90 1.384 . S
C88 H116 0.931 . S
C89 C88 1.384 . S
C89 C92 1.382 . S
C90 C88 1.384 . S
C90 C91 1.381 . S
C90 H117 0.930 . S
C91 C90 1.381 . S
C91 C93 1.381 . S
C91 C94 1.487 . S
C92 C89 1.382 . S
C92 C93 1.387 . S
C92 H118 0.930 1_545 S
C93 C91 1.381 . S
C93 C92 1.387 . S
C93 H119 0.931 1_545 S
C94 C91 1.487 . S
C94 C101 1.399 . S
C94 N132 1.343 . S
C95 C96 1.384 . S
C95 C97 1.384 . S
C95 H120 0.931 1_545 S
C96 C95 1.384 . S
C96 C99 1.382 . S
C97 C95 1.384 . S
C97 C98 1.381 . S
C97 H121 0.930 1_545 S
C98 C97 1.381 . S
C98 C100 1.381 . S
C98 C101 1.487 . S
C99 C96 1.382 . S
C99 C100 1.387 . S
C99 H122 0.930 . S
C100 C98 1.381 . S
C100 C99 1.387 . S
C100 H123 0.931 . S
C101 C94 1.399 . S
C101 C98 1.487 . S
C101 N133 1.343 . S
C102 C103 1.384 . S
C102 C104 1.384 . S
C102 H124 0.931 1_545 S
C103 C102 1.384 . S
C103 C106 1.382 . S
C104 C102 1.384 . S
C104 C105 1.381 . S
C104 H125 0.930 1_545 S
C105 C104 1.381 . S
C105 C107 1.381 . S
C105 C108 1.487 . S
C106 C103 1.382 . S
C106 C107 1.387 . S
C106 H126 0.930 . S
C107 C105 1.381 . S
C107 C106 1.387 . S
C107 H127 0.931 . S
C108 C105 1.487 . S
C108 C115 1.399 . S
C108 N133 1.343 . S
C109 C110 1.384 . S
C109 C111 1.384 . S
C109 H128 0.931 . S
C110 C109 1.384 . S
C110 C113 1.382 . S
C111 C109 1.384 . S
C111 C112 1.381 . S
C111 H129 0.930 . S
C112 C111 1.381 . S
C112 C114 1.381 . S
C112 C115 1.487 . S
C113 C110 1.382 . S
C113 C114 1.387 . S
C113 H130 0.930 1_545 S
C114 C112 1.381 . S
C114 C113 1.387 . S
C114 H131 0.931 1_545 S
C115 C108 1.399 . S
C115 C112 1.487 . S
C115 N132 1.343 . S
H116 C88 0.931 . S
H117 C90 0.930 . S
H118 C92 0.930 1_565 S
H119 C93 0.931 1_565 S
H120 C95 0.931 1_565 S
H121 C97 0.930 1_565 S
H122 C99 0.930 . S
H123 C100 0.931 . S
H124 C102 0.931 1_565 S
H125 C104 0.930 1_565 S
H126 C106 0.930 . S
H127 C107 0.931 . S
H128 C109 0.931 . S
H129 C111 0.930 . S
H130 C113 0.930 1_565 S
H131 C114 0.931 1_565 S
N132 C94 1.343 . S
N132 C115 1.343 . S
N133 C101 1.343 . S
N133 C108 1.343 . S
C134 C135 1.384 . S
C134 C136 1.384 . S
C134 H162 0.931 . S
C135 C134 1.384 . S
C135 C138 1.382 . S
C136 C134 1.384 . S
C136 C137 1.381 . S
C136 H163 0.930 . S
C137 C136 1.381 . S
C137 C139 1.381 . S
C137 C140 1.487 . S
C138 C135 1.382 . S
C138 C139 1.387 . S
C138 H164 0.930 . S
C139 C137 1.381 . S
C139 C138 1.387 . S
C139 H165 0.931 . S
C140 C137 1.487 . S
C140 C147 1.399 . S
C140 N178 1.343 . S
C141 C142 1.384 . S
C141 C143 1.384 . S
C141 H166 0.931 . S
C142 C141 1.384 . S
C142 C145 1.382 . S
C143 C141 1.384 . S
C143 C144 1.381 . S
C143 H167 0.930 . S
C144 C143 1.381 . S
C144 C146 1.381 . S
C144 C147 1.487 . S
C145 C142 1.382 . S
C145 C146 1.387 . S
C145 H168 0.930 . S
C146 C144 1.381 . S
C146 C145 1.387 . S
C146 H169 0.931 . S
C147 C140 1.399 . S
C147 C144 1.487 . S
C147 N179 1.343 . S
C148 C149 1.384 . S
C148 C150 1.384 . S
C148 H170 0.931 . S
C149 C148 1.384 . S
C149 C152 1.382 . S
C150 C148 1.384 . S
C150 C151 1.381 . S
C150 H171 0.930 . S
C151 C150 1.381 . S
C151 C153 1.381 . S
C151 C154 1.487 . S
C152 C149 1.382 . S
C152 C153 1.387 . S
C152 H172 0.930 . S
C153 C151 1.381 . S
C153 C152 1.387 . S
C153 H173 0.931 . S
C154 C151 1.487 . S
C154 C161 1.399 . S
C154 N179 1.343 . S
C155 C156 1.384 . S
C155 C157 1.384 . S
C155 H174 0.931 . S
C156 C155 1.384 . S
C156 C159 1.382 . S
C157 C155 1.384 . S
C157 C158 1.381 . S
C157 H175 0.930 . S
C158 C157 1.381 . S
C158 C160 1.381 . S
C158 C161 1.487 . S
C159 C156 1.382 . S
C159 C160 1.387 . S
C159 H176 0.930 . S
C160 C158 1.381 . S
C160 C159 1.387 . S
C160 H177 0.931 . S
C161 C154 1.399 . S
C161 C158 1.487 . S
C161 N178 1.343 . S
H162 C134 0.931 . S
H163 C136 0.930 . S
H164 C138 0.930 . S
H165 C139 0.931 . S
H166 C141 0.931 . S
H167 C143 0.930 . S
H168 C145 0.930 . S
H169 C146 0.931 . S
H170 C148 0.931 . S
H171 C150 0.930 . S
H172 C152 0.930 . S
H173 C153 0.931 . S
H174 C155 0.931 . S
H175 C157 0.930 . S
H176 C159 0.930 . S
H177 C160 0.931 . S
N178 C140 1.343 . S
N178 C161 1.343 . S
N179 C147 1.343 . S
N179 C154 1.343 . S
C180 C181 1.349 . S
C180 C182 1.327 . S
C180 H205 0.950 1_455 S
C181 C180 1.349 . S
C181 C197 1.349 . S
C182 C180 1.327 . S
C182 C201 1.429 . S
C182 H206 0.950 1_455 S
C183 C200 1.574 . S
C183 C202 1.368 . S
C183 H207 0.949 . S
H184 C188 0.949 1_655 S
C185 C186 1.349 . S
C185 C187 1.327 . S
C185 H208 0.950 . S
C186 C185 1.349 . S
C186 C198 1.349 . S
C187 C185 1.327 . S
C187 C203 1.429 . S
C187 H209 0.950 . S
C188 H184 0.949 1_455 S
C188 C196 1.574 . S
C188 C204 1.368 . S
H189 C197 0.950 . S
H190 C195 0.950 . S
H191 C196 0.949 1_655 S
H192 C198 0.950 1_655 S
H193 C199 0.950 1_655 S
H194 C200 0.949 . S
C195 H190 0.950 . S
C195 C197 1.327 . S
C195 C201 1.429 . S
C196 C188 1.574 . S
C196 H191 0.949 1_455 S
C196 C202 1.368 . S
C197 C181 1.349 . S
C197 H189 0.950 . S
C197 C195 1.327 . S
C198 C186 1.349 . S
C198 H192 0.950 1_455 S
C198 C199 1.327 . S
C199 H193 0.950 1_455 S
C199 C198 1.327 . S
C199 C203 1.429 . S
C200 C183 1.574 . S
C200 H194 0.949 . S
C200 C204 1.368 . S
C201 C182 1.429 . S
C201 C195 1.429 . S
C201 C202 1.523 . S
C202 C183 1.368 . S
C202 C196 1.368 . S
C202 C201 1.523 . S
C203 C187 1.429 . S
C203 C199 1.429 . S
C203 C204 1.523 . S
C204 C188 1.368 . S
C204 C200 1.368 . S
C204 C203 1.523 . S
H205 C180 0.950 1_655 S
H206 C182 0.950 1_655 S
H207 C183 0.949 . S
H208 C185 0.950 . S
H209 C187 0.950 . S
C210 C211 1.349 . S
C210 C212 1.327 . S
C210 H235 0.950 1_545 S
C211 C210 1.349 . S
C211 C227 1.349 . S
C212 C210 1.327 . S
C212 C231 1.429 . S
C212 H236 0.950 1_545 S
C213 C230 1.574 . S
C213 C232 1.368 . S
C213 H237 0.949 . S
H214 C218 0.949 1_565 S
C215 C216 1.349 . S
C215 C217 1.327 . S
C215 H238 0.950 . S
C216 C215 1.349 . S
C216 C228 1.349 . S
C217 C215 1.327 . S
C217 C233 1.429 . S
C217 H239 0.950 . S
C218 H214 0.949 1_545 S
C218 C226 1.574 . S
C218 C234 1.368 . S
H219 C227 0.950 . S
H220 C225 0.950 . S
H221 C226 0.949 1_565 S
H222 C228 0.950 1_565 S
H223 C229 0.950 1_565 S
H224 C230 0.949 . S
C225 H220 0.950 . S
C225 C227 1.327 . S
C225 C231 1.429 . S
C226 C218 1.574 . S
C226 H221 0.949 1_545 S
C226 C232 1.368 . S
C227 C211 1.349 . S
C227 H219 0.950 . S
C227 C225 1.327 . S
C228 C216 1.349 . S
C228 H222 0.950 1_545 S
C228 C229 1.327 . S
C229 H223 0.950 1_545 S
C229 C228 1.327 . S
C229 C233 1.429 . S
C230 C213 1.574 . S
C230 H224 0.949 . S
C230 C234 1.368 . S
C231 C212 1.429 . S
C231 C225 1.429 . S
C231 C232 1.523 . S
C232 C213 1.368 . S
C232 C226 1.368 . S
C232 C231 1.523 . S
C233 C217 1.429 . S
C233 C229 1.429 . S
C233 C234 1.523 . S
C234 C218 1.368 . S
C234 C230 1.368 . S
C234 C233 1.523 . S
H235 C210 0.950 1_565 S
H236 C212 0.950 1_565 S
H237 C213 0.949 . S
H238 C215 0.950 . S
H239 C217 0.950 . S
C240 C241 1.349 . S
C240 C242 1.327 . S
C240 H265 0.950 . S
C241 C240 1.349 . S
C241 C257 1.349 . S
C242 C240 1.327 . S
C242 C261 1.429 . S
C242 H266 0.950 . S
C243 C260 1.574 . S
C243 C262 1.368 . S
C243 H267 0.949 . S
H244 C248 0.949 . S
C245 C246 1.349 . S
C245 C247 1.327 . S
C245 H268 0.950 . S
C246 C245 1.349 . S
C246 C258 1.349 . S
C247 C245 1.327 . S
C247 C263 1.429 . S
C247 H269 0.950 . S
C248 H244 0.949 . S
C248 C256 1.574 . S
C248 C264 1.368 . S
H249 C257 0.950 . S
H250 C255 0.950 . S
H251 C256 0.949 . S
H252 C258 0.950 . S
H253 C259 0.950 . S
H254 C260 0.949 . S
C255 H250 0.950 . S
C255 C257 1.327 . S
C255 C261 1.429 . S
C256 C248 1.574 . S
C256 H251 0.949 . S
C256 C262 1.368 . S
C257 C241 1.349 . S
C257 H249 0.950 . S
C257 C255 1.327 . S
C258 C246 1.349 . S
C258 H252 0.950 . S
C258 C259 1.327 . S
C259 H253 0.950 . S
C259 C258 1.327 . S
C259 C263 1.429 . S
C260 C243 1.574 . S
C260 H254 0.949 . S
C260 C264 1.368 . S
C261 C242 1.429 . S
C261 C255 1.429 . S
C261 C262 1.523 . S
C262 C243 1.368 . S
C262 C256 1.368 . S
C262 C261 1.523 . S
C263 C247 1.429 . S
C263 C259 1.429 . S
C263 C264 1.523 . S
C264 C248 1.368 . S
C264 C260 1.368 . S
C264 C263 1.523 . S
H265 C240 0.950 . S
H266 C242 0.950 . S
H267 C243 0.949 . S
H268 C245 0.950 . S
H269 C247 0.950 . S
C270 C271 1.349 . S
C270 C272 1.327 . S
C270 H295 0.950 1_455 S
C271 C270 1.349 . S
C271 C287 1.349 . S
C272 C270 1.327 . S
C272 C291 1.429 . S
C272 H296 0.950 1_455 S
C273 C290 1.574 . S
C273 C292 1.368 . S
C273 H297 0.949 . S
H274 C278 0.949 1_655 S
C275 C276 1.349 . S
C275 C277 1.327 . S
C275 H298 0.950 . S
C276 C275 1.349 . S
C276 C288 1.349 . S
C277 C275 1.327 . S
C277 C293 1.429 . S
C277 H299 0.950 . S
C278 H274 0.949 1_455 S
C278 C286 1.574 . S
C278 C294 1.368 . S
H279 C287 0.950 . S
H280 C285 0.950 . S
H281 C286 0.949 1_655 S
H282 C288 0.950 1_655 S
H283 C289 0.950 1_655 S
H284 C290 0.949 . S
C285 H280 0.950 . S
C285 C287 1.327 . S
C285 C291 1.429 . S
C286 C278 1.574 . S
C286 H281 0.949 1_455 S
C286 C292 1.368 . S
C287 C271 1.349 . S
C287 H279 0.950 . S
C287 C285 1.327 . S
C288 C276 1.349 . S
C288 H282 0.950 1_455 S
C288 C289 1.327 . S
C289 H283 0.950 1_455 S
C289 C288 1.327 . S
C289 C293 1.429 . S
C290 C273 1.574 . S
C290 H284 0.949 . S
C290 C294 1.368 . S
C291 C272 1.429 . S
C291 C285 1.429 . S
C291 C292 1.523 . S
C292 C273 1.368 . S
C292 C286 1.368 . S
C292 C291 1.523 . S
C293 C277 1.429 . S
C293 C289 1.429 . S
C293 C294 1.523 . S
C294 C278 1.368 . S
C294 C290 1.368 . S
C294 C293 1.523 . S
H295 C270 0.950 1_655 S
H296 C272 0.950 1_655 S
H297 C273 0.949 . S
H298 C275 0.950 . S
H299 C277 0.950 . S
C300 C301 1.349 . S
C300 C302 1.327 . S
C300 H325 0.950 1_545 S
C301 C300 1.349 . S
C301 C317 1.349 . S
C302 C300 1.327 . S
C302 C321 1.429 . S
C302 H326 0.950 1_545 S
C303 C320 1.574 . S
C303 C322 1.368 . S
C303 H327 0.949 . S
H304 C308 0.949 1_565 S
C305 C306 1.349 . S
C305 C307 1.327 . S
C305 H328 0.950 . S
C306 C305 1.349 . S
C306 C318 1.349 . S
C307 C305 1.327 . S
C307 C323 1.429 . S
C307 H329 0.950 . S
C308 H304 0.949 1_545 S
C308 C316 1.574 . S
C308 C324 1.368 . S
H309 C317 0.950 . S
H310 C315 0.950 . S
H311 C316 0.949 1_565 S
H312 C318 0.950 1_565 S
H313 C319 0.950 1_565 S
H314 C320 0.949 . S
C315 H310 0.950 . S
C315 C317 1.327 . S
C315 C321 1.429 . S
C316 C308 1.574 . S
C316 H311 0.949 1_545 S
C316 C322 1.368 . S
C317 C301 1.349 . S
C317 H309 0.950 . S
C317 C315 1.327 . S
C318 C306 1.349 . S
C318 H312 0.950 1_545 S
C318 C319 1.327 . S
C319 H313 0.950 1_545 S
C319 C318 1.327 . S
C319 C323 1.429 . S
C320 C303 1.574 . S
C320 H314 0.949 . S
C320 C324 1.368 . S
C321 C302 1.429 . S
C321 C315 1.429 . S
C321 C322 1.523 . S
C322 C303 1.368 . S
C322 C316 1.368 . S
C322 C321 1.523 . S
C323 C307 1.429 . S
C323 C319 1.429 . S
C323 C324 1.523 . S
C324 C308 1.368 . S
C324 C320 1.368 . S
C324 C323 1.523 . S
H325 C300 0.950 1_565 S
H326 C302 0.950 1_565 S
H327 C303 0.949 . S
H328 C305 0.950 . S
H329 C307 0.950 . S
C330 C331 1.349 . S
C330 C332 1.327 . S
C330 H355 0.950 . S
C331 C330 1.349 . S
C331 C347 1.349 . S
C332 C330 1.327 . S
C332 C351 1.429 . S
C332 H356 0.950 . S
C333 C350 1.574 . S
C333 C352 1.368 . S
C333 H357 0.949 . S
H334 C338 0.949 . S
C335 C336 1.349 . S
C335 C337 1.327 . S
C335 H358 0.950 . S
C336 C335 1.349 . S
C336 C348 1.349 . S
C337 C335 1.327 . S
C337 C353 1.429 . S
C337 H359 0.950 . S
C338 H334 0.949 . S
C338 C346 1.574 . S
C338 C354 1.368 . S
H339 C347 0.950 . S
H340 C345 0.950 . S
H341 C346 0.949 . S
H342 C348 0.950 . S
H343 C349 0.950 . S
H344 C350 0.949 . S
C345 H340 0.950 . S
C345 C347 1.327 . S
C345 C351 1.429 . S
C346 C338 1.574 . S
C346 H341 0.949 . S
C346 C352 1.368 . S
C347 C331 1.349 . S
C347 H339 0.950 . S
C347 C345 1.327 . S
C348 C336 1.349 . S
C348 H342 0.950 . S
C348 C349 1.327 . S
C349 H343 0.950 . S
C349 C348 1.327 . S
C349 C353 1.429 . S
C350 C333 1.574 . S
C350 H344 0.949 . S
C350 C354 1.368 . S
C351 C332 1.429 . S
C351 C345 1.429 . S
C351 C352 1.523 . S
C352 C333 1.368 . S
C352 C346 1.368 . S
C352 C351 1.523 . S
C353 C337 1.429 . S
C353 C349 1.429 . S
C353 C354 1.523 . S
C354 C338 1.368 . S
C354 C350 1.368 . S
C354 C353 1.523 . S
H355 C330 0.950 . S
H356 C332 0.950 . S
H357 C333 0.949 . S
H358 C335 0.950 . S
H359 C337 0.950 . S
C360 C361 1.349 . S
C360 C362 1.327 . S
C360 H385 0.950 . S
C361 C360 1.349 . S
C361 C377 1.349 . S
C362 C360 1.327 . S
C362 C381 1.429 . S
C362 H386 0.950 . S
C363 C380 1.574 . S
C363 C382 1.368 . S
C363 H387 0.949 1_545 S
H364 C368 0.949 . S
C365 C366 1.349 . S
C365 C367 1.327 . S
C365 H388 0.950 1_545 S
C366 C365 1.349 . S
C366 C378 1.349 . S
C367 C365 1.327 . S
C367 C383 1.429 . S
C367 H389 0.950 1_545 S
C368 H364 0.949 . S
C368 C376 1.574 . S
C368 C384 1.368 . S
H369 C377 0.950 1_565 S
H370 C375 0.950 1_565 S
H371 C376 0.949 . S
H372 C378 0.950 . S
H373 C379 0.950 . S
H374 C380 0.949 1_565 S
C375 H370 0.950 1_545 S
C375 C377 1.327 . S
C375 C381 1.429 . S
C376 C368 1.574 . S
C376 H371 0.949 . S
C376 C382 1.368 . S
C377 C361 1.349 . S
C377 H369 0.950 1_545 S
C377 C375 1.327 . S
C378 C366 1.349 . S
C378 H372 0.950 . S
C378 C379 1.327 . S
C379 H373 0.950 . S
C379 C378 1.327 . S
C379 C383 1.429 . S
C380 C363 1.574 . S
C380 H374 0.949 1_545 S
C380 C384 1.368 . S
C381 C362 1.429 . S
C381 C375 1.429 . S
C381 C382 1.523 . S
C382 C363 1.368 . S
C382 C376 1.368 . S
C382 C381 1.523 . S
C383 C367 1.429 . S
C383 C379 1.429 . S
C383 C384 1.523 . S
C384 C368 1.368 . S
C384 C380 1.368 . S
C384 C383 1.523 . S
H385 C360 0.950 . S
H386 C362 0.950 . S
H387 C363 0.949 1_565 S
H388 C365 0.950 1_565 S
H389 C367 0.950 1_565 S
C390 C391 1.349 . S
C390 C392 1.327 . S
C390 H415 0.950 . S
C391 C390 1.349 . S
C391 C407 1.349 . S
C392 C390 1.327 . S
C392 C411 1.429 . S
C392 H416 0.950 1_554 S
C393 C410 1.593 . S
C393 C412 1.379 . S
C393 H417 0.922 1_556 S
H394 C398 0.949 . S
C395 C396 1.349 . S
C395 C397 1.327 . S
C395 H418 0.950 . S
C396 C395 1.349 . S
C396 C408 1.349 . S
C397 C395 1.327 . S
C397 C413 1.429 . S
C397 H419 0.950 . S
C398 H394 0.949 . S
C398 C406 1.574 . S
C398 C414 1.368 . S
H399 C407 0.950 . S
H400 C405 0.950 . S
H401 C406 0.949 . S
H402 C408 0.950 . S
H403 C409 0.950 . S
H404 C410 0.949 . S
C405 H400 0.950 . S
C405 C407 1.327 . S
C405 C411 1.429 . S
C406 C398 1.574 . S
C406 H401 0.949 . S
C406 C412 1.368 . S
C407 C391 1.349 . S
C407 H399 0.950 . S
C407 C405 1.327 . S
C408 C396 1.349 . S
C408 H402 0.950 . S
C408 C409 1.327 . S
C409 H403 0.950 . S
C409 C408 1.327 . S
C409 C413 1.429 . S
C410 C393 1.593 . S
C410 H404 0.949 . S
C410 C414 1.368 . S
C411 C392 1.429 . S
C411 C405 1.429 . S
C411 C412 1.523 1_554 S
C412 C393 1.379 . S
C412 C406 1.368 . S
C412 C411 1.523 1_556 S
C413 C397 1.429 . S
C413 C409 1.429 . S
C413 C414 1.523 . S
C414 C398 1.368 . S
C414 C410 1.368 . S
C414 C413 1.523 . S
H415 C390 0.950 . S
H416 C392 0.950 1_556 S
H417 C393 0.922 1_554 S
H418 C395 0.950 . S
H419 C397 0.950 . S
C420 C421 1.349 . S
C420 C422 1.327 . S
C420 H445 0.950 . S
C421 C420 1.349 . S
C421 C437 1.360 . S
C422 C420 1.327 . S
C422 C441 1.429 . S
C422 H446 0.950 . S
C423 C440 1.574 . S
C423 C442 1.368 . S
C423 H447 0.949 1_455 S
H424 C428 0.949 . S
C425 C426 1.349 . S
C425 C427 1.327 . S
C425 H448 0.950 . S
C426 C425 1.349 . S
C426 C438 1.349 . S
C427 C425 1.327 . S
C427 C443 1.429 . S
C427 H449 0.950 1_455 S
C428 H424 0.949 . S
C428 C436 1.574 . S
C428 C444 1.368 . S
H429 C437 0.926 1_655 S
H430 C435 0.950 1_655 S
H431 C436 0.949 . S
H432 C438 0.950 . S
H433 C439 0.950 . S
H434 C440 0.949 1_655 S
C435 H430 0.950 1_455 S
C435 C437 1.339 . S
C435 C441 1.429 . S
C436 C428 1.574 . S
C436 H431 0.949 . S
C436 C442 1.368 . S
C437 C421 1.360 . S
C437 H429 0.926 1_455 S
C437 C435 1.339 . S
C438 C426 1.349 . S
C438 H432 0.950 . S
C438 C439 1.327 . S
C439 H433 0.950 . S
C439 C438 1.327 . S
C439 C443 1.429 . S
C440 C423 1.574 . S
C440 H434 0.949 1_455 S
C440 C444 1.368 . S
C441 C422 1.429 . S
C441 C435 1.429 . S
C441 C442 1.523 . S
C442 C423 1.368 . S
C442 C436 1.368 . S
C442 C441 1.523 . S
C443 C427 1.429 . S
C443 C439 1.429 . S
C443 C444 1.523 . S
C444 C428 1.368 . S
C444 C440 1.368 . S
C444 C443 1.523 . S
H445 C420 0.950 . S
H446 C422 0.950 . S
H447 C423 0.949 1_655 S
H448 C425 0.950 . S
H449 C427 0.950 1_655 S
C450 C451 1.349 . S
C450 C452 1.327 . S
C450 H475 0.950 . S
C451 C450 1.349 . S
C451 C467 1.349 . S
C452 C450 1.327 . S
C452 C471 1.429 . S
C452 H476 0.950 . S
C453 C470 1.574 . S
C453 C472 1.368 . S
C453 H477 0.949 1_545 S
H454 C458 0.949 . S
C455 C456 1.349 . S
C455 C457 1.327 . S
C455 H478 0.950 1_545 S
C456 C455 1.349 . S
C456 C468 1.349 . S
C457 C455 1.327 . S
C457 C473 1.429 . S
C457 H479 0.950 1_545 S
C458 H454 0.949 . S
C458 C466 1.574 . S
C458 C474 1.368 . S
H459 C467 0.950 1_565 S
H460 C465 0.950 1_565 S
H461 C466 0.949 . S
H462 C468 0.950 . S
H463 C469 0.950 . S
H464 C470 0.949 1_565 S
C465 H460 0.950 1_545 S
C465 C467 1.327 . S
C465 C471 1.429 . S
C466 C458 1.574 . S
C466 H461 0.949 . S
C466 C472 1.368 . S
C467 C451 1.349 . S
C467 H459 0.950 1_545 S
C467 C465 1.327 . S
C468 C456 1.349 . S
C468 H462 0.950 . S
C468 C469 1.327 . S
C469 H463 0.950 . S
C469 C468 1.327 . S
C469 C473 1.429 . S
C470 C453 1.574 . S
C470 H464 0.949 1_545 S
C470 C474 1.368 . S
C471 C452 1.429 . S
C471 C465 1.429 . S
C471 C472 1.523 . S
C472 C453 1.368 . S
C472 C466 1.368 . S
C472 C471 1.523 . S
C473 C457 1.429 . S
C473 C469 1.429 . S
C473 C474 1.523 . S
C474 C458 1.368 . S
C474 C470 1.368 . S
C474 C473 1.523 . S
H475 C450 0.950 . S
H476 C452 0.950 . S
H477 C453 0.949 1_565 S
H478 C455 0.950 1_565 S
H479 C457 0.950 1_565 S
C480 C481 1.349 . S
C480 C482 1.310 1_554 S
C480 H505 0.950 . S
C481 C480 1.349 . S
C481 C497 1.349 . S
C482 C480 1.310 1_556 S
C482 C501 1.421 1_556 S
C482 H506 0.975 . S
C483 C500 1.530 1_554 S
C483 C502 1.338 1_554 S
C483 H507 1.018 . S
H484 C488 0.949 . S
C485 C486 1.349 . S
C485 C487 1.327 . S
C485 H508 0.950 . S
C486 C485 1.349 . S
C486 C498 1.349 . S
C487 C485 1.327 . S
C487 C503 1.429 . S
C487 H509 0.950 . S
C488 H484 0.949 . S
C488 C496 1.574 . S
C488 C504 1.368 . S
H489 C497 0.950 . S
H490 C495 0.950 . S
H491 C496 0.949 . S
H492 C498 0.950 . S
H493 C499 0.950 . S
H494 C500 0.949 . S
C495 H490 0.950 . S
C495 C497 1.327 . S
C495 C501 1.429 . S
C496 C488 1.574 . S
C496 H491 0.949 . S
C496 C502 1.368 . S
C497 C481 1.349 . S
C497 H489 0.950 . S
C497 C495 1.327 . S
C498 C486 1.349 . S
C498 H492 0.950 . S
C498 C499 1.327 . S
C499 H493 0.950 . S
C499 C498 1.327 . S
C499 C503 1.429 . S
C500 C483 1.530 1_556 S
C500 H494 0.949 . S
C500 C504 1.368 . S
C501 C482 1.421 1_554 S
C501 C495 1.429 . S
C501 C502 1.523 1_554 S
C502 C483 1.338 1_556 S
C502 C496 1.368 . S
C502 C501 1.523 1_556 S
C503 C487 1.429 . S
C503 C499 1.429 . S
C503 C504 1.523 . S
C504 C488 1.368 . S
C504 C500 1.368 . S
C504 C503 1.523 . S
H505 C480 0.950 . S
H506 C482 0.975 . S
H507 C483 1.018 . S
H508 C485 0.950 . S
H509 C487 0.950 . S
C510 C511 1.349 . S
C510 C512 1.327 . S
C510 H535 0.950 . S
C511 C510 1.349 . S
C511 C527 1.349 . S
C512 C510 1.327 . S
C512 C531 1.429 . S
C512 H536 0.950 . S
C513 C530 1.574 . S
C513 C532 1.368 . S
C513 H537 0.949 . S
H514 C518 0.949 . S
C515 C516 1.349 . S
C515 C517 1.327 . S
C515 H538 0.950 . S
C516 C515 1.349 . S
C516 C528 1.349 . S
C517 C515 1.327 . S
C517 C533 1.429 . S
C517 H539 0.950 . S
C518 H514 0.949 . S
C518 C526 1.574 . S
C518 C534 1.368 . S
H519 C527 0.950 . S
H520 C525 0.950 . S
H521 C526 0.949 . S
H522 C528 0.950 . S
H523 C529 0.950 . S
H524 C530 0.949 . S
C525 H520 0.950 . S
C525 C527 1.327 . S
C525 C531 1.429 . S
C526 C518 1.574 . S
C526 H521 0.949 . S
C526 C532 1.368 . S
C527 C511 1.349 . S
C527 H519 0.950 . S
C527 C525 1.327 . S
C528 C516 1.349 . S
C528 H522 0.950 . S
C528 C529 1.327 . S
C529 H523 0.950 . S
C529 C528 1.327 . S
C529 C533 1.429 . S
C530 C513 1.574 . S
C530 H524 0.949 . S
C530 C534 1.368 . S
C531 C512 1.429 . S
C531 C525 1.429 . S
C531 C532 1.523 . S
C532 C513 1.368 . S
C532 C526 1.368 . S
C532 C531 1.523 . S
C533 C517 1.429 . S
C533 C529 1.429 . S
C533 C534 1.523 . S
C534 C518 1.368 . S
C534 C530 1.368 . S
C534 C533 1.523 . S
H535 C510 0.950 . S
H536 C512 0.950 . S
H537 C513 0.949 . S
H538 C515 0.950 . S
H539 C517 0.950 . S
C186 C50 1.443 . S
C181 C0 1.438 . S
C211 C25 1.488 . S
C216 C89 1.488 . S
C241 C33 1.511 . S
C246 C156 1.513 . S
C271 C11 1.436 . S
C276 C57 1.437 . S
C306 C110 1.482 . S
C301 C14 1.476 . S
C331 C37 1.509 . S
C336 C135 1.515 . S
C366 C96 1.480 . S
C361 C28 1.474 . S
C391 C9 1.509 . S
C396 C149 1.513 . S
C426 C64 1.547 . S
C421 C19 1.545 . S
C456 C103 1.488 . S
C451 C39 1.486 . S
C486 C142 1.510 . S
C481 C5 1.510 . S
C511 C23 1.553 . S
C516 C43 1.561 . S
