# Generated by pormake.
# Topology pth, (4,4)-cn, num edge types: 1
# Building blocks:
#     Node 0, Type 0, BuildingBlock: AZAVOO_clean_sbu_0, # of connection points: 4
#     Node 1, Type 0, BuildingBlock: AZAVOO_clean_sbu_0, # of connection points: 4
#     Node 2, Type 0, BuildingBlock: AZAVOO_clean_sbu_0, # of connection points: 4
#     Node 3, Type 1, BuildingBlock: MUDLON_clean_linker_0, # of connection points: 4
#     Node 4, Type 1, BuildingBlock: MUDLON_clean_linker_0, # of connection points: 4
#     Node 5, Type 1, BuildingBlock: MUDLON_clean_linker_0, # of connection points: 4
#     Edge 6, Type (0, 1), BuildingBlock: OJICUG_clean_linker_0, # of connection points: 2
#     Edge 7, Type (0, 1), BuildingBlock: OJICUG_clean_linker_0, # of connection points: 2
#     Edge 8, Type (0, 1), BuildingBlock: OJICUG_clean_linker_0, # of connection points: 2
#     Edge 9, Type (0, 1), BuildingBlock: OJICUG_clean_linker_0, # of connection points: 2
#     Edge 10, Type (0, 1), BuildingBlock: OJICUG_clean_linker_0, # of connection points: 2
#     Edge 11, Type (0, 1), BuildingBlock: OJICUG_clean_linker_0, # of connection points: 2
#     Edge 12, Type (0, 1), BuildingBlock: OJICUG_clean_linker_0, # of connection points: 2
#     Edge 13, Type (0, 1), BuildingBlock: OJICUG_clean_linker_0, # of connection points: 2
#     Edge 14, Type (0, 1), BuildingBlock: OJICUG_clean_linker_0, # of connection points: 2
#     Edge 15, Type (0, 1), BuildingBlock: OJICUG_clean_linker_0, # of connection points: 2
#     Edge 16, Type (0, 1), BuildingBlock: OJICUG_clean_linker_0, # of connection points: 2
#     Edge 17, Type (0, 1), BuildingBlock: OJICUG_clean_linker_0, # of connection points: 2
# Relax obj value: 0.079
# Max RMSD: 0.217
# Mean RMSD: 0.135
data_MOF--net-pth--node1-AZAVOO_clean_sbu_0--node2-MUDLON_clean_linker_0--edge1-OJICUG_clean_linker_0
_symmetry_space_group_name_H-M    P1
_symmetry_Int_Tables_number       1
_symmetry_cell_setting            triclinic
loop_
_symmetry_equiv_pos_as_xyz
'x, y, z'
_cell_length_a     26.586511
_cell_length_b     27.123424
_cell_length_c     53.84125
_cell_angle_alpha  91.178724
_cell_angle_beta   92.745473
_cell_angle_gamma 121.87589
loop_
_atom_site_label
_atom_site_type_symbol
_atom_site_fract_x
_atom_site_fract_y
_atom_site_fract_z
_atom_type_partial_charge
Mg0 Mg 0.11193 0.06775 0.02928 0.0
O1 O 0.02309 0.00176 0.00853 0.0
O2 O 0.00053 0.04784 0.98057 0.0
Mg3 Mg 0.07743 0.14317 0.98249 0.0
C4 C 0.98839 0.00159 0.99128 0.0
C5 C 0.07612 0.95183 0.05496 0.0
O6 O 0.07133 0.93324 0.03172 0.0
O7 O 0.0708 0.10954 0.05029 0.0
O8 O 0.05795 0.16129 0.02177 0.0
O9 O 0.16058 0.04989 0.00136 0.0
O10 O 0.13819 0.1174 -0.00166 0.0
C11 C 0.05652 0.146 0.04414 0.0
C12 C 0.16124 0.09048 0.98882 0.0
O13 O 0.09248 0.00451 0.05971 0.0
Mg14 Mg 0.94494 0.04574 0.34825 0.0
O15 O 0.02129 0.06081 0.37548 0.0
O16 O 0.05119 0.14146 0.39915 0.0
Mg17 Mg 0.99574 0.17924 0.38665 0.0
C18 C 0.05493 0.0979 0.39296 0.0
C19 C 0.91438 0.92497 0.32444 0.0
O20 O 0.86595 0.90672 0.33626 0.0
O21 O 0.00986 0.11852 0.32479 0.0
O22 O 0.03481 0.19788 0.34847 0.0
O23 O 0.87857 0.99733 0.37661 0.0
O24 O 0.9237 0.09187 0.37248 0.0
C25 C 0.03755 0.17374 0.32839 0.0
C26 C 0.88787 0.04722 0.38432 0.0
O27 O 0.95429 0.97884 0.32592 0.0
Mg28 Mg 0.95491 0.94556 0.68662 0.0
O29 O 0.02811 0.02185 0.71122 0.0
O30 O 0.98564 0.04793 0.73915 0.0
Mg31 Mg 0.8851 0.9819 0.73459 0.0
C32 C 0.03159 0.05492 0.7293 0.0
C33 C 0.0045 0.94209 0.63581 0.0
O34 O 0.9474 0.91295 0.62915 0.0
O35 O 0.92907 0.00435 0.66792 0.0
O36 O 0.87826 0.01658 0.69676 0.0
O37 O 0.95888 0.883 0.71134 0.0
O38 O 0.90136 0.91821 0.71651 0.0
C39 C 0.89684 0.02338 0.67489 0.0
C40 C 0.92162 0.88706 0.72451 0.0
O41 O 0.02172 0.96217 0.65816 0.0
H42 H 0.85813 0.67812 0.20679 0.0
N43 N 0.95573 0.6819 0.19531 0.0
H44 H 0.84718 0.73189 0.24094 0.0
H45 H 0.03809 0.74257 0.23478 0.0
H46 H 0.0274 0.79581 0.26893 0.0
H47 H 0.05738 0.78965 0.19468 0.0
H48 H 0.08857 0.85364 0.1601 0.0
H49 H 0.90034 0.66121 0.15044 0.0
H50 H 0.93082 0.72578 0.11566 0.0
H51 H 0.89201 0.56701 0.18964 0.0
H52 H 0.07179 0.71226 0.20335 0.0
H53 H 0.9282 0.50108 0.18675 0.0
H54 H 0.10811 0.64689 0.20217 0.0
H55 H 0.01977 0.30981 0.19304 0.0
H56 H 0.01518 0.25199 0.22766 0.0
H57 H 0.1892 0.39064 0.25661 0.0
H58 H 0.19348 0.44906 0.22152 0.0
H59 H 0.18776 0.40023 0.161 0.0
H60 H 0.16486 0.33041 0.12622 0.0
H61 H 0.98539 0.29256 0.11863 0.0
H62 H 0.00793 0.36153 0.15384 0.0
H63 H 0.00637 0.39092 0.20255 0.0
H64 H 0.9702 0.45562 0.2079 0.0
H65 H 0.12341 0.59093 0.17347 0.0
N66 N 0.1124 0.4183 0.18364 0.0
H67 H 0.16127 0.52654 0.16964 0.0
C68 C 0.94867 0.70612 0.21803 0.0
C69 C 0.89474 0.70269 0.22065 0.0
C70 C 0.88861 0.7334 0.24019 0.0
C71 C 0.93663 0.76855 0.25755 0.0
C72 C 0.98986 0.76978 0.25564 0.0
C73 C 0.99587 0.73885 0.23611 0.0
C74 C 0.97614 0.72052 0.17514 0.0
C75 C 0.02953 0.77508 0.17754 0.0
C76 C 0.04722 0.81188 0.15775 0.0
C77 C 0.01204 0.79489 0.13518 0.0
C78 C 0.95919 0.73989 0.13271 0.0
C79 C 0.94151 0.70315 0.15255 0.0
C80 C 0.9787 0.64433 0.19709 0.0
C81 C 0.93915 0.5844 0.19272 0.0
C82 C 0.96004 0.54683 0.19115 0.0
C83 C 0.02127 0.56849 0.19416 0.0
C84 C 0.06079 0.6286 0.1993 0.0
C85 C 0.03986 0.66618 0.20047 0.0
C86 C 0.10722 0.3841 0.20468 0.0
C87 C 0.05713 0.32799 0.2067 0.0
C88 C 0.05479 0.29461 0.22642 0.0
C89 C 0.10222 0.31644 0.24465 0.0
C90 C 0.15203 0.37271 0.2428 0.0
C91 C 0.15448 0.40612 0.2229 0.0
C92 C 0.1 0.38641 0.16005 0.0
C93 C 0.14393 0.37795 0.15146 0.0
C94 C 0.13065 0.33779 0.13182 0.0
C95 C 0.07321 0.30584 0.12011 0.0
C96 C 0.02996 0.3168 0.12748 0.0
C97 C 0.04303 0.35649 0.14749 0.0
C98 C 0.08749 0.45422 0.18601 0.0
C99 C 0.03274 0.43457 0.19636 0.0
C100 C 0.01159 0.47169 0.19919 0.0
C101 C 0.04394 0.5289 0.19131 0.0
C102 C 0.09789 0.54778 0.18037 0.0
C103 C 0.1194 0.51089 0.1779 0.0
H104 H 0.8204 0.18862 0.55266 0.0
N105 N 0.71149 0.11486 0.53252 0.0
H106 H 0.87012 0.17529 0.58919 0.0
H107 H 0.6597 0.02565 0.5645 0.0
H108 H 0.70854 0.0133 0.60117 0.0
H109 H 0.72753 0.02355 0.5249 0.0
H110 H 0.76846 0.00528 0.48891 0.0
H111 H 0.7379 0.17062 0.4906 0.0
H112 H 0.77461 0.15008 0.45358 0.0
H113 H 0.66441 0.17642 0.54518 0.0
H114 H 0.61758 0.00648 0.51696 0.0
H115 H 0.55978 0.14634 0.54115 0.0
H116 H 0.51371 0.97692 0.51164 0.0
H117 H 0.30986 0.06537 0.54638 0.0
H118 H 0.24325 0.0535 0.57874 0.0
H119 H 0.11571 0.87975 0.54811 0.0
H120 H 0.18182 0.89305 0.51536 0.0
H121 H 0.22533 0.9348 0.46364 0.0
H122 H 0.17582 0.96494 0.43391 0.0
H123 H 0.25398 0.12993 0.47574 0.0
H124 H 0.29804 0.09707 0.50632 0.0
H125 H 0.38353 0.09861 0.5017 0.0
H126 H 0.4855 0.12648 0.50962 0.0
H127 H 0.42751 0.95317 0.532 0.0
N128 N 0.28324 0.989 0.50671 0.0
H129 H 0.32432 0.92444 0.52293 0.0
C130 C 0.73626 0.10878 0.55589 0.0
C131 C 0.79553 0.15075 0.56344 0.0
C132 C 0.82388 0.14298 0.58414 0.0
C133 C 0.79298 0.09341 0.59794 0.0
C134 C 0.73304 0.05226 0.59097 0.0
C135 C 0.70504 0.05945 0.56999 0.0
C136 C 0.73134 0.09982 0.51073 0.0
C137 C 0.73829 0.0518 0.50954 0.0
C138 C 0.76101 0.04084 0.4887 0.0
C139 C 0.77589 0.07669 0.46837 0.0
C140 C 0.76563 0.12262 0.46916 0.0
C141 C 0.74415 0.13426 0.49019 0.0
C142 C 0.64899 0.09422 0.53113 0.0
C143 C 0.63146 0.13267 0.53809 0.0
C144 C 0.57173 0.11548 0.53555 0.0
C145 C 0.52817 0.05934 0.52579 0.0
C146 C 0.54576 0.02027 0.51944 0.0
C147 C 0.60542 0.03734 0.52223 0.0
C148 C 0.25033 0.98003 0.5284 0.0
C149 C 0.26786 0.02455 0.54686 0.0
C150 C 0.22981 0.01757 0.56539 0.0
C151 C 0.17376 0.96595 0.56578 0.0
C152 C 0.15796 0.92051 0.54801 0.0
C153 C 0.19585 0.92766 0.5295 0.0
C154 C 0.26631 0.01372 0.48697 0.0
C155 C 0.2327 0.97794 0.46598 0.0
C156 C 0.20452 0.99548 0.44896 0.0
C157 C 0.21015 0.04986 0.45242 0.0
C158 C 0.24712 0.08717 0.47269 0.0
C159 C 0.27371 0.06887 0.49003 0.0
C160 C 0.34523 0.00868 0.51152 0.0
C161 C 0.39178 0.06612 0.50828 0.0
C162 C 0.45088 0.08245 0.51306 0.0
C163 C 0.46506 0.04219 0.52149 0.0
C164 C 0.41847 0.98516 0.52513 0.0
C165 C 0.35942 0.9687 0.52009 0.0
H166 H 0.7042 0.7122 0.89641 0.0
N167 N 0.76209 0.66271 0.8773 0.0
H168 H 0.74509 0.7887 0.93002 0.0
H169 H 0.85296 0.69149 0.90929 0.0
H170 H 0.89345 0.76649 0.94306 0.0
H171 H 0.84394 0.66416 0.85032 0.0
H172 H 0.88862 0.72173 0.81436 0.0
H173 H 0.735 0.73743 0.85593 0.0
H174 H 0.7753 0.79114 0.81921 0.0
H175 H 0.65803 0.64243 0.85359 0.0
H176 H 0.73698 0.56141 0.89389 0.0
H177 H 0.5695 0.54829 0.84303 0.0
H178 H 0.6459 0.4667 0.88541 0.0
H179 H 0.37916 0.32089 0.88254 0.0
H180 H 0.32257 0.27158 0.91726 0.0
H181 H 0.28904 0.10812 0.88604 0.0
H182 H 0.34848 0.15873 0.85103 0.0
H183 H 0.3954 0.23768 0.79407 0.0
H184 H 0.31441 0.20013 0.7617 0.0
H185 H 0.21282 0.23509 0.81175 0.0
H186 H 0.29573 0.27733 0.84262 0.0
H187 H 0.39712 0.37235 0.84343 0.0
H188 H 0.4838 0.4685 0.8543 0.0
H189 H 0.59509 0.3961 0.8541 0.0
N190 N 0.39467 0.26987 0.84101 0.0
H191 H 0.50702 0.29942 0.84526 0.0
C192 C 0.77636 0.69705 0.90019 0.0
C193 C 0.74493 0.72323 0.90684 0.0
C194 C 0.76829 0.76683 0.92603 0.0
C195 C 0.82272 0.78394 0.93908 0.0
C196 C 0.85117 0.75403 0.93362 0.0
C197 C 0.82826 0.71124 0.9143 0.0
C198 C 0.78555 0.69557 0.85558 0.0
C199 C 0.82902 0.69194 0.84351 0.0
C200 C 0.85416 0.72465 0.82287 0.0
C201 C 0.83557 0.76118 0.81368 0.0
C202 C 0.79174 0.76451 0.82589 0.0
C203 C 0.76769 0.7328 0.8468 0.0
C204 C 0.7052 0.60901 0.87407 0.0
C205 C 0.65627 0.60457 0.86052 0.0
C206 C 0.60484 0.55016 0.85468 0.0
C207 C 0.60038 0.4991 0.86288 0.0
C208 C 0.6481 0.50444 0.87789 0.0
C209 C 0.7 0.55869 0.88315 0.0
C210 C 0.36871 0.24364 0.86388 0.0
C211 C 0.36128 0.27484 0.88308 0.0
C212 C 0.3279 0.24628 0.90298 0.0
C213 C 0.30028 0.18578 0.90412 0.0
C214 C 0.30982 0.15482 0.88565 0.0
C215 C 0.34376 0.18362 0.86571 0.0
C216 C 0.35123 0.25877 0.82098 0.0
C217 C 0.35621 0.23871 0.79763 0.0
C218 C 0.30933 0.21644 0.77931 0.0
C219 C 0.25567 0.21239 0.78422 0.0
C220 C 0.25294 0.23718 0.80698 0.0
C221 C 0.30049 0.26097 0.82497 0.0
C222 C 0.44564 0.32848 0.84385 0.0
C223 C 0.44023 0.37728 0.84563 0.0
C224 C 0.4902 0.43255 0.85178 0.0
C225 C 0.54695 0.44056 0.85553 0.0
C226 C 0.55223 0.39183 0.85228 0.0
C227 C 0.50207 0.3365 0.8468 0.0
C228 C 0.06376 0.17525 0.0891 0.0
C229 C 0.04822 0.17888 0.06416 0.0
H230 H 0.08424 0.2133 0.12626 0.0
C231 C 0.03346 0.22037 0.05841 0.0
H232 H 0.07522 0.14383 0.0943 0.0
C233 C 0.03824 0.25994 0.07691 0.0
C234 C 0.0585 0.25898 0.10132 0.0
H235 H 0.02105 0.22417 0.03942 0.0
H236 H 0.02939 0.29325 0.07189 0.0
C237 C 0.06932 0.21522 0.10742 0.0
C238 C 0.87418 0.10931 0.41466 0.0
C239 C 0.85978 0.05374 0.40619 0.0
H240 H 0.86134 0.16026 0.44116 0.0
C241 C 0.81721 0.00514 0.4183 0.0
H242 H 0.90594 0.14776 0.40566 0.0
C243 C 0.78947 0.01219 0.43837 0.0
C244 C 0.8043 0.06807 0.4469 0.0
H245 H 0.80467 0.96165 0.41206 0.0
H246 H 0.75586 0.97378 0.44692 0.0
C247 C 0.8475 0.11644 0.43488 0.0
C248 C 0.88791 0.88016 0.76751 0.0
C249 C 0.90311 0.85691 0.74785 0.0
H250 H 0.85751 0.86981 0.80411 0.0
C251 C 0.89868 0.80339 0.75028 0.0
H252 H 0.89209 0.9219 0.76633 0.0
C253 C 0.87721 0.77249 0.77166 0.0
C254 C 0.86098 0.79515 0.79133 0.0
H255 H 0.90988 0.78442 0.73528 0.0
H256 H 0.87186 0.73013 0.7724 0.0
C257 C 0.86776 0.84998 0.78913 0.0
C258 C 0.03926 0.85248 0.07036 0.0
C259 C 0.06103 0.91172 0.07541 0.0
H260 H 0.0072 0.76913 0.08531 0.0
C261 C 0.06732 0.93227 0.10024 0.0
H262 H 0.03393 0.83528 0.05143 0.0
C263 C 0.05184 0.8944 0.11958 0.0
C264 C 0.02964 0.83509 0.11455 0.0
H265 H 0.08381 0.97762 0.10479 0.0
H266 H 0.05622 0.91145 0.13846 0.0
C267 C 0.02362 0.81452 0.08974 0.0
C268 C 0.11491 0.11013 0.43225 0.0
C269 C 0.09758 0.08857 0.40741 0.0
H270 H 0.16154 0.11315 0.46605 0.0
C271 C 0.11959 0.05636 0.39695 0.0
H272 H 0.09813 0.13454 0.44091 0.0
C273 C 0.15782 0.0455 0.41119 0.0
C274 C 0.17381 0.06551 0.43638 0.0
H275 H 0.1073 0.03961 0.37775 0.0
H276 H 0.17448 0.02113 0.40244 0.0
C277 C 0.1519 0.0982 0.44662 0.0
C278 C 0.10036 0.14965 0.75327 0.0
C279 C 0.09091 0.0994 0.7406 0.0
H280 H 0.16069 0.22676 0.77561 0.0
C281 C 0.13776 0.08973 0.74025 0.0
H282 H 0.06516 0.15853 0.75355 0.0
C283 C 0.19182 0.12755 0.75359 0.0
C284 C 0.20106 0.177 0.76715 0.0
H285 H 0.13164 0.05111 0.73077 0.0
H286 H 0.22505 0.116 0.75419 0.0
C287 C 0.15511 0.18849 0.76608 0.0
C288 C 0.90134 0.0661 0.63352 0.0
C289 C 0.87514 0.0487 0.65635 0.0
H290 H 0.89603 0.09474 0.5972 0.0
C291 C 0.82446 0.05088 0.66048 0.0
H292 H 0.94044 0.06503 0.62979 0.0
C293 C 0.79873 0.06708 0.64173 0.0
C294 C 0.82376 0.08248 0.61867 0.0
H295 H 0.80303 0.03764 0.67781 0.0
H296 H 0.75854 0.06646 0.64507 0.0
C297 C 0.87612 0.0833 0.61492 0.0
C298 C 0.92714 0.89258 0.99033 0.0
C299 C 0.93669 0.94497 0.98126 0.0
H300 H 0.88246 0.80011 0.98434 0.0
C301 C 0.90077 0.94238 0.9606 0.0
H302 H 0.95337 0.89273 0.00639 0.0
C303 C 0.85999 0.88914 0.94802 0.0
C304 C 0.85435 0.8374 0.95581 0.0
H305 H 0.9065 0.98174 0.95321 0.0
H306 H 0.8361 0.88913 0.93114 0.0
C307 C 0.88652 0.83941 0.97769 0.0
C308 C 0.97392 0.90316 0.29658 0.0
C309 C 0.92139 0.88382 0.30867 0.0
H310 H 0.01977 0.88207 0.271 0.0
C311 C 0.87507 0.82525 0.30492 0.0
H312 H 0.01053 0.94795 0.29908 0.0
C313 C 0.88051 0.78734 0.28886 0.0
C314 C 0.9325 0.80707 0.27631 0.0
H315 H 0.83412 0.80885 0.31403 0.0
H316 H 0.84379 0.74265 0.28612 0.0
C317 C 0.97943 0.86523 0.28062 0.0
C318 C 0.10866 0.97634 0.62552 0.0
C319 C 0.04807 0.94939 0.61785 0.0
H320 H 0.19571 0.00189 0.61524 0.0
C321 C 0.02934 0.92841 0.59298 0.0
H322 H 0.12454 0.99285 0.64459 0.0
C323 C 0.07017 0.93391 0.57616 0.0
C324 C 0.13069 0.9603 0.58384 0.0
H325 H 0.98307 0.9077 0.58644 0.0
H326 H 0.05433 0.918 0.55703 0.0
C327 C 0.14952 0.98172 0.60869 0.0
C328 C 0.2271 0.08846 0.95746 0.0
C329 C 0.19061 0.10819 0.9652 0.0
H330 H 0.29124 0.09807 0.93211 0.0
C331 C 0.18675 0.14949 0.95136 0.0
H332 H 0.23102 0.05666 0.96779 0.0
C333 C 0.22065 0.17268 0.93098 0.0
C334 C 0.25983 0.15569 0.92408 0.0
H335 H 0.15892 0.16543 0.95663 0.0
H336 H 0.2171 0.20502 0.92092 0.0
C337 C 0.26153 0.11209 0.93705 0.0
C338 C 0.05732 0.1863 0.28322 0.0
C339 C 0.06633 0.21106 0.30745 0.0
H340 H 0.0625 0.20064 0.24423 0.0
C341 C 0.09588 0.27193 0.31093 0.0
H342 H 0.03522 0.13967 0.27986 0.0
C343 C 0.11121 0.30676 0.29049 0.0
C344 C 0.09729 0.2814 0.26619 0.0
H345 H 0.10411 0.29255 0.32936 0.0
H346 H 0.1303 0.35304 0.2937 0.0
C347 C 0.07255 0.22116 0.26278 0.0
loop_
_geom_bond_atom_site_label_1
_geom_bond_atom_site_label_2
_geom_bond_distance
_geom_bond_site_symmetry_2
_ccdc_geom_bond_type
Mg0 O1 2.017 1_445 S
Mg0 O7 1.986 . S
Mg0 O9 2.114 . S
Mg0 O10 2.251 . S
Mg0 O13 2.010 1_545 S
O1 Mg0 2.017 1_665 S
O1 C4 1.267 . S
O2 Mg3 2.028 1_655 S
O2 C4 1.248 1_546 S
Mg3 O2 2.028 1_455 S
Mg3 O8 2.032 1_556 S
Mg3 O10 2.079 1_556 S
C4 O1 1.267 . S
C4 O2 1.248 1_564 S
C5 O6 1.264 . S
C5 O13 1.249 . S
O6 C5 1.264 . S
O7 Mg0 1.986 . S
O7 C11 1.246 . S
O8 Mg3 2.032 1_554 S
O8 C11 1.259 . S
O9 Mg0 2.114 . S
O9 C12 1.273 . S
O10 Mg0 2.251 . S
O10 Mg3 2.079 1_554 S
O10 C12 1.288 . S
C11 O7 1.246 . S
C11 O8 1.259 . S
C12 O9 1.273 . S
C12 O10 1.288 . S
O13 Mg0 2.010 1_565 S
O13 C5 1.249 . S
Mg14 O15 2.028 1_665 S
Mg14 O21 1.986 1_665 S
Mg14 O23 2.114 . S
Mg14 O24 2.251 1_565 S
Mg14 O27 2.010 . S
O15 Mg14 2.028 1_445 S
O15 C18 1.250 . S
O16 Mg17 2.028 . S
O16 C18 1.248 . S
Mg17 O16 2.028 . S
Mg17 O22 2.032 . S
Mg17 O24 2.079 1_455 S
C18 O15 1.250 . S
C18 O16 1.248 . S
C19 O20 1.264 . S
C19 O27 1.249 . S
O20 C19 1.264 . S
O21 Mg14 1.986 1_445 S
O21 C25 1.246 . S
O22 Mg17 2.032 . S
O22 C25 1.259 . S
O23 Mg14 2.114 . S
O23 C26 1.252 . S
O24 Mg14 2.251 1_545 S
O24 Mg17 2.079 1_655 S
O24 C26 1.273 1_545 S
C25 O21 1.246 . S
C25 O22 1.259 . S
C26 O23 1.252 . S
C26 O24 1.273 1_565 S
O27 Mg14 2.010 . S
O27 C19 1.249 . S
Mg28 O29 2.028 1_565 S
Mg28 O35 1.986 1_465 S
Mg28 O37 2.114 1_455 S
Mg28 O38 2.251 1_455 S
Mg28 O41 2.010 . S
O29 Mg28 2.028 1_545 S
O29 C32 1.250 . S
O30 Mg31 2.028 1_455 S
O30 C32 1.248 . S
Mg31 O30 2.028 1_655 S
Mg31 O36 2.032 . S
Mg31 O38 2.079 1_545 S
C32 O29 1.250 . S
C32 O30 1.248 . S
C33 O34 1.264 . S
C33 O41 1.249 . S
O34 C33 1.264 . S
O35 Mg28 1.986 1_645 S
O35 C39 1.246 . S
O36 Mg31 2.032 . S
O36 C39 1.259 . S
O37 Mg28 2.114 1_655 S
O37 C40 1.252 . S
O38 Mg28 2.251 1_655 S
O38 Mg31 2.079 1_565 S
O38 C40 1.273 . S
C39 O35 1.246 . S
C39 O36 1.259 . S
C40 O37 1.252 . S
C40 O38 1.273 . S
O41 Mg28 2.010 . S
O41 C33 1.249 . S
H42 C69 0.929 . S
N43 C68 1.433 1_655 S
N43 C74 1.435 1_655 S
N43 C80 1.423 . S
H44 C70 0.930 . S
H45 C73 0.931 . S
H46 C72 0.929 . S
H47 C75 0.930 . S
H48 C76 0.932 . S
H49 C79 0.929 . S
H50 C78 0.931 . S
H51 C81 0.929 . S
H52 C85 0.932 . S
H53 C82 0.931 . S
H54 C84 0.929 . S
H55 C87 0.929 . S
H56 C88 0.930 . S
H57 C90 0.929 . S
H58 C91 0.931 . S
H59 C93 0.930 . S
H60 C94 0.932 . S
H61 C96 0.931 . S
H62 C97 0.929 . S
H63 C99 0.929 . S
H64 C100 0.931 . S
H65 C102 0.929 . S
N66 C86 1.433 1_655 S
N66 C92 1.435 1_655 S
N66 C98 1.423 . S
H67 C103 0.932 . S
C68 N43 1.433 1_455 S
C68 C69 1.363 1_455 S
C68 C73 1.370 . S
C69 H42 0.929 . S
C69 C68 1.363 1_655 S
C69 C70 1.385 . S
C70 H44 0.930 . S
C70 C69 1.385 . S
C70 C71 1.357 1_655 S
C71 C70 1.357 1_455 S
C71 C72 1.406 . S
C72 H46 0.929 . S
C72 C71 1.406 . S
C72 C73 1.391 . S
C73 H45 0.931 . S
C73 C68 1.370 . S
C73 C72 1.391 . S
C74 N43 1.435 1_455 S
C74 C75 1.358 . S
C74 C79 1.371 1_455 S
C75 H47 0.930 . S
C75 C74 1.358 . S
C75 C76 1.405 . S
C76 H48 0.932 . S
C76 C75 1.405 . S
C76 C77 1.383 . S
C77 C76 1.383 . S
C77 C78 1.393 1_455 S
C78 H50 0.931 . S
C78 C77 1.393 1_655 S
C78 C79 1.382 . S
C79 H49 0.929 . S
C79 C74 1.371 1_655 S
C79 C78 1.382 . S
C80 N43 1.423 . S
C80 C81 1.362 . S
C80 C85 1.388 1_655 S
C81 H51 0.929 . S
C81 C80 1.362 . S
C81 C82 1.376 . S
C82 H53 0.931 . S
C82 C81 1.376 . S
C82 C83 1.396 . S
C83 C82 1.396 . S
C83 C84 1.348 1_655 S
C83 C101 1.472 . S
C84 H54 0.929 . S
C84 C83 1.348 1_455 S
C84 C85 1.443 . S
C85 H52 0.932 . S
C85 C80 1.388 1_455 S
C85 C84 1.443 . S
C86 N66 1.433 1_455 S
C86 C87 1.363 1_455 S
C86 C91 1.370 . S
C87 H55 0.929 . S
C87 C86 1.363 1_655 S
C87 C88 1.385 . S
C88 H56 0.930 . S
C88 C87 1.385 . S
C88 C89 1.357 1_655 S
C89 C88 1.357 1_455 S
C89 C90 1.406 . S
C90 H57 0.929 . S
C90 C89 1.406 . S
C90 C91 1.391 . S
C91 H58 0.931 . S
C91 C86 1.370 . S
C91 C90 1.391 . S
C92 N66 1.435 1_455 S
C92 C93 1.358 . S
C92 C97 1.371 1_455 S
C93 H59 0.930 . S
C93 C92 1.358 . S
C93 C94 1.405 . S
C94 H60 0.932 . S
C94 C93 1.405 . S
C94 C95 1.383 . S
C95 C94 1.383 . S
C95 C96 1.393 1_455 S
C96 H61 0.931 . S
C96 C95 1.393 1_655 S
C96 C97 1.382 . S
C97 H62 0.929 . S
C97 C92 1.371 1_655 S
C97 C96 1.382 . S
C98 N66 1.423 . S
C98 C99 1.362 . S
C98 C103 1.388 1_655 S
C99 H63 0.929 . S
C99 C98 1.362 . S
C99 C100 1.376 . S
C100 H64 0.931 . S
C100 C99 1.376 . S
C100 C101 1.396 . S
C101 C83 1.472 . S
C101 C100 1.396 . S
C101 C102 1.348 1_655 S
C102 H65 0.929 . S
C102 C101 1.348 1_455 S
C102 C103 1.443 . S
C103 H67 0.932 . S
C103 C98 1.388 1_455 S
C103 C102 1.443 . S
H104 C131 0.929 . S
N105 C130 1.433 . S
N105 C136 1.435 . S
N105 C142 1.423 . S
H106 C132 0.930 . S
H107 C135 0.931 . S
H108 C134 0.927 1_565 S
H109 C137 0.930 1_565 S
H110 C138 0.932 1_565 S
H111 C141 0.929 . S
H112 C140 0.931 . S
H113 C143 0.929 . S
H114 C147 0.932 . S
H115 C144 0.931 . S
H116 C146 0.929 . S
H117 C149 0.929 . S
H118 C150 0.930 . S
H119 C152 0.920 1_565 S
H120 C153 0.931 . S
H121 C155 0.930 1_565 S
H122 C156 0.932 1_565 S
H123 C158 0.931 . S
H124 C159 0.929 . S
H125 C161 0.929 . S
H126 C162 0.931 . S
H127 C164 0.929 . S
N128 C148 1.433 . S
N128 C154 1.435 . S
N128 C160 1.423 . S
H129 C165 0.932 . S
C130 N105 1.433 . S
C130 C131 1.363 . S
C130 C135 1.370 . S
C131 H104 0.929 . S
C131 C130 1.363 . S
C131 C132 1.385 . S
C132 H106 0.930 . S
C132 C131 1.385 . S
C132 C133 1.357 . S
C133 C132 1.357 . S
C133 C134 1.406 . S
C134 H108 0.927 1_545 S
C134 C133 1.406 . S
C134 C135 1.391 . S
C135 H107 0.931 . S
C135 C130 1.370 . S
C135 C134 1.391 . S
C136 N105 1.435 . S
C136 C137 1.358 . S
C136 C141 1.371 . S
C137 H109 0.930 1_545 S
C137 C136 1.358 . S
C137 C138 1.405 . S
C138 H110 0.932 1_545 S
C138 C137 1.405 . S
C138 C139 1.383 . S
C139 C138 1.383 . S
C139 C140 1.393 . S
C140 H112 0.931 . S
C140 C139 1.393 . S
C140 C141 1.382 . S
C141 H111 0.929 . S
C141 C136 1.371 . S
C141 C140 1.382 . S
C142 N105 1.423 . S
C142 C143 1.362 . S
C142 C147 1.388 . S
C143 H113 0.929 . S
C143 C142 1.362 . S
C143 C144 1.376 . S
C144 H115 0.931 . S
C144 C143 1.376 . S
C144 C145 1.396 . S
C145 C144 1.396 . S
C145 C146 1.348 . S
C145 C163 1.472 . S
C146 H116 0.929 . S
C146 C145 1.348 . S
C146 C147 1.443 . S
C147 H114 0.932 . S
C147 C142 1.388 . S
C147 C146 1.443 . S
C148 N128 1.433 . S
C148 C149 1.363 . S
C148 C153 1.370 . S
C149 H117 0.929 . S
C149 C148 1.363 . S
C149 C150 1.385 . S
C150 H118 0.930 . S
C150 C149 1.385 . S
C150 C151 1.357 . S
C151 C150 1.357 . S
C151 C152 1.406 . S
C152 H119 0.920 1_545 S
C152 C151 1.406 . S
C152 C153 1.391 . S
C153 H120 0.931 . S
C153 C148 1.370 . S
C153 C152 1.391 . S
C154 N128 1.435 . S
C154 C155 1.358 . S
C154 C159 1.371 . S
C155 H121 0.930 1_545 S
C155 C154 1.358 . S
C155 C156 1.405 . S
C156 H122 0.932 1_545 S
C156 C155 1.405 . S
C156 C157 1.383 . S
C157 C156 1.383 . S
C157 C158 1.393 . S
C158 H123 0.931 . S
C158 C157 1.393 . S
C158 C159 1.382 . S
C159 H124 0.929 . S
C159 C154 1.371 . S
C159 C158 1.382 . S
C160 N128 1.423 . S
C160 C161 1.362 . S
C160 C165 1.388 . S
C161 H125 0.929 . S
C161 C160 1.362 . S
C161 C162 1.376 . S
C162 H126 0.931 . S
C162 C161 1.376 . S
C162 C163 1.396 . S
C163 C145 1.472 . S
C163 C162 1.396 . S
C163 C164 1.348 . S
C164 H127 0.929 . S
C164 C163 1.348 . S
C164 C165 1.443 . S
C165 H129 0.932 . S
C165 C160 1.388 . S
C165 C164 1.443 . S
H166 C193 0.929 . S
N167 C192 1.433 . S
N167 C198 1.435 . S
N167 C204 1.423 . S
H168 C194 0.930 . S
H169 C197 0.931 . S
H170 C196 0.929 . S
H171 C199 0.930 . S
H172 C200 0.932 . S
H173 C203 0.929 . S
H174 C202 0.931 . S
H175 C205 0.929 . S
H176 C209 0.932 . S
H177 C206 0.931 . S
H178 C208 0.929 . S
H179 C211 0.929 . S
H180 C212 0.930 . S
H181 C214 0.929 . S
H182 C215 0.931 . S
H183 C217 0.930 . S
H184 C218 0.932 . S
H185 C220 0.931 . S
H186 C221 0.929 . S
H187 C223 0.929 . S
H188 C224 0.931 . S
H189 C226 0.929 . S
N190 C210 1.433 . S
N190 C216 1.435 . S
N190 C222 1.423 . S
H191 C227 0.932 . S
C192 N167 1.433 . S
C192 C193 1.363 . S
C192 C197 1.370 . S
C193 H166 0.929 . S
C193 C192 1.363 . S
C193 C194 1.385 . S
C194 H168 0.930 . S
C194 C193 1.385 . S
C194 C195 1.357 . S
C195 C194 1.357 . S
C195 C196 1.406 . S
C196 H170 0.929 . S
C196 C195 1.406 . S
C196 C197 1.391 . S
C197 H169 0.931 . S
C197 C192 1.370 . S
C197 C196 1.391 . S
C198 N167 1.435 . S
C198 C199 1.358 . S
C198 C203 1.371 . S
C199 H171 0.930 . S
C199 C198 1.358 . S
C199 C200 1.405 . S
C200 H172 0.932 . S
C200 C199 1.405 . S
C200 C201 1.383 . S
C201 C200 1.383 . S
C201 C202 1.393 . S
C202 H174 0.931 . S
C202 C201 1.393 . S
C202 C203 1.382 . S
C203 H173 0.929 . S
C203 C198 1.371 . S
C203 C202 1.382 . S
C204 N167 1.423 . S
C204 C205 1.362 . S
C204 C209 1.388 . S
C205 H175 0.929 . S
C205 C204 1.362 . S
C205 C206 1.376 . S
C206 H177 0.931 . S
C206 C205 1.376 . S
C206 C207 1.396 . S
C207 C206 1.396 . S
C207 C208 1.348 . S
C207 C225 1.472 . S
C208 H178 0.929 . S
C208 C207 1.348 . S
C208 C209 1.443 . S
C209 H176 0.932 . S
C209 C204 1.388 . S
C209 C208 1.443 . S
C210 N190 1.433 . S
C210 C211 1.363 . S
C210 C215 1.370 . S
C211 H179 0.929 . S
C211 C210 1.363 . S
C211 C212 1.385 . S
C212 H180 0.930 . S
C212 C211 1.385 . S
C212 C213 1.357 . S
C213 C212 1.357 . S
C213 C214 1.406 . S
C214 H181 0.929 . S
C214 C213 1.406 . S
C214 C215 1.391 . S
C215 H182 0.931 . S
C215 C210 1.370 . S
C215 C214 1.391 . S
C216 N190 1.435 . S
C216 C217 1.358 . S
C216 C221 1.371 . S
C217 H183 0.930 . S
C217 C216 1.358 . S
C217 C218 1.405 . S
C218 H184 0.932 . S
C218 C217 1.405 . S
C218 C219 1.383 . S
C219 C218 1.383 . S
C219 C220 1.393 . S
C220 H185 0.931 . S
C220 C219 1.393 . S
C220 C221 1.382 . S
C221 H186 0.929 . S
C221 C216 1.371 . S
C221 C220 1.382 . S
C222 N190 1.423 . S
C222 C223 1.362 . S
C222 C227 1.388 . S
C223 H187 0.929 . S
C223 C222 1.362 . S
C223 C224 1.376 . S
C224 H188 0.931 . S
C224 C223 1.376 . S
C224 C225 1.396 . S
C225 C207 1.472 . S
C225 C224 1.396 . S
C225 C226 1.348 . S
C226 H189 0.929 . S
C226 C225 1.348 . S
C226 C227 1.443 . S
C227 H191 0.932 . S
C227 C222 1.388 . S
C227 C226 1.443 . S
C228 C229 1.387 1_655 S
C228 H232 0.950 . S
C228 C237 1.390 . S
C229 C228 1.387 1_455 S
C229 C231 1.387 . S
H230 C237 0.950 . S
C231 C229 1.387 . S
C231 C233 1.390 . S
C231 H235 0.950 . S
H232 C228 0.950 . S
C233 C231 1.390 . S
C233 C234 1.387 . S
C233 H236 0.950 . S
C234 C233 1.387 . S
C234 C237 1.387 1_455 S
H235 C231 0.950 . S
H236 C233 0.950 . S
C237 C228 1.390 . S
C237 H230 0.950 . S
C237 C234 1.387 1_655 S
C238 C239 1.387 1_545 S
C238 H242 0.950 . S
C238 C247 1.390 . S
C239 C238 1.387 1_565 S
C239 C241 1.387 . S
H240 C247 0.950 . S
C241 C239 1.387 . S
C241 C243 1.390 . S
C241 H245 0.950 . S
H242 C238 0.950 . S
C243 C241 1.390 . S
C243 C244 1.387 1_565 S
C243 H246 0.950 . S
C244 C243 1.387 1_545 S
C244 C247 1.387 . S
H245 C241 0.950 . S
H246 C243 0.950 . S
C247 C238 1.390 . S
C247 H240 0.950 . S
C247 C244 1.387 . S
C248 C249 1.387 . S
C248 H252 0.950 . S
C248 C257 1.390 . S
C249 C248 1.387 . S
C249 C251 1.387 . S
H250 C257 0.950 . S
C251 C249 1.387 . S
C251 C253 1.390 . S
C251 H255 0.950 . S
H252 C248 0.950 . S
C253 C251 1.390 . S
C253 C254 1.387 . S
C253 H256 0.950 . S
C254 C253 1.387 . S
C254 C257 1.387 . S
H255 C251 0.950 . S
H256 C253 0.950 . S
C257 C248 1.390 . S
C257 H250 0.950 . S
C257 C254 1.387 . S
C258 C259 1.387 . S
C258 H262 0.951 . S
C258 C267 1.390 . S
C259 C258 1.387 . S
C259 C261 1.387 . S
H260 C267 0.950 1_655 S
C261 C259 1.387 . S
C261 C263 1.390 . S
C261 H265 0.950 . S
H262 C258 0.951 . S
C263 C261 1.390 . S
C263 C264 1.387 . S
C263 H266 0.950 . S
C264 C263 1.387 . S
C264 C267 1.387 . S
H265 C261 0.950 . S
H266 C263 0.950 . S
C267 C258 1.390 . S
C267 H260 0.950 1_455 S
C267 C264 1.387 . S
C268 C269 1.387 . S
C268 H272 0.950 . S
C268 C277 1.390 . S
C269 C268 1.387 . S
C269 C271 1.387 1_545 S
H270 C277 0.950 . S
C271 C269 1.387 1_565 S
C271 C273 1.390 . S
C271 H275 0.950 . S
H272 C268 0.950 . S
C273 C271 1.390 . S
C273 C274 1.387 1_565 S
C273 H276 0.950 . S
C274 C273 1.387 1_545 S
C274 C277 1.387 . S
H275 C271 0.950 . S
H276 C273 0.950 . S
C277 C268 1.390 . S
C277 H270 0.950 . S
C277 C274 1.387 . S
C278 C279 1.387 . S
C278 H282 0.950 . S
C278 C287 1.390 . S
C279 C278 1.387 . S
C279 C281 1.387 . S
H280 C287 0.950 . S
C281 C279 1.387 . S
C281 C283 1.390 . S
C281 H285 0.950 . S
H282 C278 0.950 . S
C283 C281 1.390 . S
C283 C284 1.387 . S
C283 H286 0.950 . S
C284 C283 1.387 . S
C284 C287 1.387 . S
H285 C281 0.950 . S
H286 C283 0.950 . S
C287 C278 1.390 . S
C287 H280 0.950 . S
C287 C284 1.387 . S
C288 C289 1.387 1_565 S
C288 H292 0.950 . S
C288 C297 1.390 . S
C289 C288 1.387 1_545 S
C289 C291 1.387 . S
H290 C297 0.950 . S
C291 C289 1.387 . S
C291 C293 1.390 . S
C291 H295 0.950 . S
H292 C288 0.950 . S
C293 C291 1.390 . S
C293 C294 1.387 . S
C293 H296 0.950 . S
C294 C293 1.387 . S
C294 C297 1.387 1_545 S
H295 C291 0.950 . S
H296 C293 0.950 . S
C297 C288 1.390 . S
C297 H290 0.950 . S
C297 C294 1.387 1_565 S
C298 C299 1.393 . S
C298 H302 0.939 1_556 S
C298 C307 1.395 . S
C299 C298 1.393 . S
C299 C301 1.387 . S
H300 C307 0.950 . S
C301 C299 1.387 . S
C301 C303 1.390 . S
C301 H305 0.950 . S
H302 C298 0.939 1_554 S
C303 C301 1.390 . S
C303 C304 1.387 . S
C303 H306 0.950 . S
C304 C303 1.387 . S
C304 C307 1.387 . S
H305 C301 0.950 . S
H306 C303 0.950 . S
C307 C298 1.395 . S
C307 H300 0.950 . S
C307 C304 1.387 . S
C308 C309 1.387 1_455 S
C308 H312 0.950 . S
C308 C317 1.390 . S
C309 C308 1.387 1_655 S
C309 C311 1.387 . S
H310 C317 0.950 . S
C311 C309 1.387 . S
C311 C313 1.390 . S
C311 H315 0.950 . S
H312 C308 0.950 . S
C313 C311 1.390 . S
C313 C314 1.387 1_655 S
C313 H316 0.950 . S
C314 C313 1.387 1_455 S
C314 C317 1.387 . S
H315 C311 0.950 . S
H316 C313 0.950 . S
C317 C308 1.390 . S
C317 H310 0.950 . S
C317 C314 1.387 . S
C318 C319 1.387 1_545 S
C318 H322 0.950 . S
C318 C327 1.390 . S
C319 C318 1.387 1_565 S
C319 C321 1.387 . S
H320 C327 0.950 . S
C321 C319 1.387 . S
C321 C323 1.390 . S
C321 H325 0.950 . S
H322 C318 0.950 . S
C323 C321 1.390 . S
C323 C324 1.387 1_565 S
C323 H326 0.950 . S
C324 C323 1.387 1_545 S
C324 C327 1.387 . S
H325 C321 0.950 . S
H326 C323 0.950 . S
C327 C318 1.390 . S
C327 H320 0.950 . S
C327 C324 1.387 . S
C328 C329 1.387 . S
C328 H332 0.950 1_556 S
C328 C337 1.390 . S
C329 C328 1.387 . S
C329 C331 1.387 . S
H330 C337 0.950 . S
C331 C329 1.387 . S
C331 C333 1.390 . S
C331 H335 0.950 . S
H332 C328 0.950 1_554 S
C333 C331 1.390 . S
C333 C334 1.387 . S
C333 H336 0.950 . S
C334 C333 1.387 . S
C334 C337 1.387 . S
H335 C331 0.950 . S
H336 C333 0.950 . S
C337 C328 1.390 . S
C337 H330 0.950 . S
C337 C334 1.387 . S
C338 C339 1.387 . S
C338 H342 0.950 . S
C338 C347 1.390 . S
C339 C338 1.387 . S
C339 C341 1.387 . S
H340 C347 0.950 . S
C341 C339 1.387 . S
C341 C343 1.390 . S
C341 H345 0.950 . S
H342 C338 0.950 . S
C343 C341 1.390 . S
C343 C344 1.387 . S
C343 H346 0.950 . S
C344 C343 1.387 . S
C344 C347 1.387 . S
H345 C341 0.950 . S
H346 C343 0.950 . S
C347 C338 1.390 . S
C347 H340 0.950 . S
C347 C344 1.387 . S
C234 C95 1.332 . S
C229 C11 1.330 . S
C239 C26 1.483 . S
C244 C139 1.510 . S
C249 C40 1.392 . S
C254 C201 1.416 . S
C259 C5 1.176 . S
C264 C77 1.347 . S
C274 C157 1.465 . S
C269 C18 1.433 . S
C279 C32 1.342 . S
C284 C219 1.376 . S
C294 C133 1.392 . S
C289 C39 1.459 . S
C299 C4 1.636 1_556 S
C304 C195 1.520 . S
C314 C71 1.508 . S
C309 C19 1.514 . S
C324 C151 1.471 . S
C319 C33 1.435 . S
C334 C213 1.564 . S
C329 C12 1.615 1_556 S
C339 C25 1.577 . S
C344 C89 1.518 . S
