# Generated by pormake.
# Topology nom, (4,4)-cn, num edge types: 1
# Building blocks:
#     Node 0, Type 0, BuildingBlock: NAHDIM_clean_linker_0, # of connection points: 4
#     Node 1, Type 0, BuildingBlock: NAHDIM_clean_linker_0, # of connection points: 4
#     Node 2, Type 0, BuildingBlock: NAHDIM_clean_linker_0, # of connection points: 4
#     Node 3, Type 0, BuildingBlock: NAHDIM_clean_linker_0, # of connection points: 4
#     Node 4, Type 0, BuildingBlock: NAHDIM_clean_linker_0, # of connection points: 4
#     Node 5, Type 0, BuildingBlock: NAHDIM_clean_linker_0, # of connection points: 4
#     Node 6, Type 1, BuildingBlock: QUQFOY_clean_sbu_1, # of connection points: 4
#     Node 7, Type 1, BuildingBlock: QUQFOY_clean_sbu_1, # of connection points: 4
#     Node 8, Type 1, BuildingBlock: QUQFOY_clean_sbu_1, # of connection points: 4
#     Node 9, Type 1, BuildingBlock: QUQFOY_clean_sbu_1, # of connection points: 4
#     Node 10, Type 1, BuildingBlock: QUQFOY_clean_sbu_1, # of connection points: 4
#     Node 11, Type 1, BuildingBlock: QUQFOY_clean_sbu_1, # of connection points: 4
#     Edge 12, Type (0, 1), BuildingBlock: XIVTED_clean_linker_0, # of connection points: 2
#     Edge 13, Type (0, 1), BuildingBlock: XIVTED_clean_linker_0, # of connection points: 2
#     Edge 14, Type (0, 1), BuildingBlock: XIVTED_clean_linker_0, # of connection points: 2
#     Edge 15, Type (0, 1), BuildingBlock: XIVTED_clean_linker_0, # of connection points: 2
#     Edge 16, Type (0, 1), BuildingBlock: XIVTED_clean_linker_0, # of connection points: 2
#     Edge 17, Type (0, 1), BuildingBlock: XIVTED_clean_linker_0, # of connection points: 2
#     Edge 18, Type (0, 1), BuildingBlock: XIVTED_clean_linker_0, # of connection points: 2
#     Edge 19, Type (0, 1), BuildingBlock: XIVTED_clean_linker_0, # of connection points: 2
#     Edge 20, Type (0, 1), BuildingBlock: XIVTED_clean_linker_0, # of connection points: 2
#     Edge 21, Type (0, 1), BuildingBlock: XIVTED_clean_linker_0, # of connection points: 2
#     Edge 22, Type (0, 1), BuildingBlock: XIVTED_clean_linker_0, # of connection points: 2
#     Edge 23, Type (0, 1), BuildingBlock: XIVTED_clean_linker_0, # of connection points: 2
#     Edge 24, Type (0, 1), BuildingBlock: XIVTED_clean_linker_0, # of connection points: 2
#     Edge 25, Type (0, 1), BuildingBlock: XIVTED_clean_linker_0, # of connection points: 2
#     Edge 26, Type (0, 1), BuildingBlock: XIVTED_clean_linker_0, # of connection points: 2
#     Edge 27, Type (0, 1), BuildingBlock: XIVTED_clean_linker_0, # of connection points: 2
#     Edge 28, Type (0, 1), BuildingBlock: XIVTED_clean_linker_0, # of connection points: 2
#     Edge 29, Type (0, 1), BuildingBlock: XIVTED_clean_linker_0, # of connection points: 2
#     Edge 30, Type (0, 1), BuildingBlock: XIVTED_clean_linker_0, # of connection points: 2
#     Edge 31, Type (0, 1), BuildingBlock: XIVTED_clean_linker_0, # of connection points: 2
#     Edge 32, Type (0, 1), BuildingBlock: XIVTED_clean_linker_0, # of connection points: 2
#     Edge 33, Type (0, 1), BuildingBlock: XIVTED_clean_linker_0, # of connection points: 2
#     Edge 34, Type (0, 1), BuildingBlock: XIVTED_clean_linker_0, # of connection points: 2
#     Edge 35, Type (0, 1), BuildingBlock: XIVTED_clean_linker_0, # of connection points: 2
# Relax obj value: 0.085
# Max RMSD: 0.158
# Mean RMSD: 0.148
data_MOF--net-nom--node1-QUQFOY_clean_sbu_1--node2-NAHDIM_clean_linker_0--edge1-XIVTED_clean_linker_0
_symmetry_space_group_name_H-M    P1
_symmetry_Int_Tables_number       1
_symmetry_cell_setting            triclinic
loop_
_symmetry_equiv_pos_as_xyz
'x, y, z'
_cell_length_a     59.983479
_cell_length_b     60.158642
_cell_length_c     67.195503
_cell_angle_alpha  90.098379
_cell_angle_beta   90.133802
_cell_angle_gamma 119.99512
loop_
_atom_site_label
_atom_site_type_symbol
_atom_site_fract_x
_atom_site_fract_y
_atom_site_fract_z
_atom_type_partial_charge
C0 C 0.16336 0.5496 0.24411 0.0
C1 C 0.16961 0.56669 0.26263 0.0
C2 C 0.12607 0.55564 0.27387 0.0
C3 C 0.11857 0.53085 0.28084 0.0
C4 C 0.09332 0.51452 0.28747 0.0
C5 C 0.07532 0.52319 0.28722 0.0
C6 C 0.08302 0.54836 0.28075 0.0
C7 C 0.10834 0.56426 0.27421 0.0
C8 C 0.08573 0.48784 0.29445 0.0
C9 C 0.06436 0.55827 0.28043 0.0
C10 C 0.9729 0.41495 0.18187 0.0
C11 C 0.96026 0.42715 0.19404 0.0
C12 C 0.96461 0.42938 0.23009 0.0
C13 C 0.96753 0.45373 0.2334 0.0
C14 C 0.97969 0.46768 0.2507 0.0
C15 C 0.98916 0.45704 0.26488 0.0
C16 C 0.98515 0.43199 0.26197 0.0
C17 C 0.97252 0.41831 0.24469 0.0
C18 C 0.9831 0.49409 0.25356 0.0
C19 C 0.99514 0.42011 0.2767 0.0
C20 C 0.88843 0.41413 0.3749 0.0
C21 C 0.89505 0.43702 0.36492 0.0
C22 C 0.92088 0.45461 0.36042 0.0
C23 C 0.94027 0.44865 0.36546 0.0
C24 C 0.9335 0.42557 0.37572 0.0
C25 C 0.90767 0.40887 0.38066 0.0
C26 C 0.92737 0.47951 0.35033 0.0
C27 C 0.95347 0.41839 0.38133 0.0
C28 C 0.12667 0.58458 0.41242 0.0
C29 C 0.11279 0.56042 0.42522 0.0
C30 C 0.06764 0.53962 0.41611 0.0
C31 C 0.05201 0.54897 0.40898 0.0
C32 C 0.0326 0.53501 0.39487 0.0
C33 C 0.02854 0.51095 0.38817 0.0
C34 C 0.04313 0.50062 0.39647 0.0
C35 C 0.0626 0.51513 0.41034 0.0
C36 C 0.01719 0.54641 0.3865 0.0
C37 C 0.03872 0.47463 0.39018 0.0
C38 C 0.04809 0.50551 0.29275 0.0
C39 C 0.03131 0.49006 0.27777 0.0
C40 C 0.00535 0.47301 0.2817 0.0
C41 C 0.99566 0.47131 0.30114 0.0
C42 C 0.96964 0.45446 0.30561 0.0
C43 C 0.96041 0.4527 0.32488 0.0
C44 C 0.97677 0.46798 0.34037 0.0
C45 C 0.96759 0.46642 0.36003 0.0
C46 C 0.98473 0.4812 0.37518 0.0
C47 C 0.01083 0.4976 0.37125 0.0
C48 C 0.02015 0.50008 0.3516 0.0
C49 C 0.04617 0.51706 0.34706 0.0
C50 C 0.05534 0.51898 0.32779 0.0
C51 C 0.03888 0.50394 0.31233 0.0
C52 C 0.01253 0.48681 0.31652 0.0
C53 C 0.0031 0.48506 0.33616 0.0
C54 C 0.83198 0.35818 0.36486 0.0
C55 C 0.8433 0.38727 0.36614 0.0
O56 O 0.14989 0.5718 0.26646 0.0
O57 O 0.08759 0.55463 0.42837 0.0
O58 O 0.86367 0.39706 0.37952 0.0
O59 O 0.95463 0.41633 0.21286 0.0
H60 H 0.17236 0.55694 0.27568 0.0
H61 H 0.14583 0.53071 0.24651 0.0
H62 H 0.16001 0.55881 0.23101 0.0
H63 H 0.17953 0.54615 0.2408 0.0
H64 H 0.13211 0.52396 0.28098 0.0
H65 H 0.11434 0.58347 0.26896 0.0
H66 H 0.07054 0.47346 0.28449 0.0
H67 H 0.10225 0.48435 0.29463 0.0
H68 H 0.07753 0.48476 0.30967 0.0
H69 H 0.07351 0.57852 0.27539 0.0
H70 H 0.04802 0.54619 0.27032 0.0
H71 H 0.05632 0.55689 0.29554 0.0
H72 H 0.97456 0.44806 0.19487 0.0
H73 H 0.97756 0.42332 0.16668 0.0
H74 H 0.99108 0.41872 0.18921 0.0
H75 H 0.95998 0.39384 0.18065 0.0
H76 H 0.96051 0.46191 0.22238 0.0
H77 H 0.96981 0.39933 0.24207 0.0
H78 H 0.00375 0.50871 0.25185 0.0
H79 H 0.97176 0.49823 0.2426 0.0
H80 H 0.97722 0.49607 0.26882 0.0
H81 H 0.99093 0.40066 0.27202 0.0
H82 H 0.01629 0.43256 0.27848 0.0
H83 H 0.98629 0.41864 0.29148 0.0
H84 H 0.85014 0.39521 0.35096 0.0
H85 H 0.88005 0.44126 0.36096 0.0
H86 H 0.90226 0.39121 0.38858 0.0
H87 H 0.93237 0.47877 0.33455 0.0
H88 H 0.911 0.48323 0.35066 0.0
H89 H 0.94432 0.49585 0.35757 0.0
H90 H 0.94461 0.39821 0.3865 0.0
H91 H 0.96613 0.42101 0.36845 0.0
H92 H 0.96575 0.43117 0.3935 0.0
H93 H 0.11327 0.54457 0.41702 0.0
H94 H 0.14694 0.58956 0.40985 0.0
H95 H 0.11691 0.58116 0.39774 0.0
H96 H 0.12648 0.60105 0.41977 0.0
H97 H 0.0558 0.56773 0.41385 0.0
H98 H 0.07402 0.50745 0.41655 0.0
H99 H 0.02058 0.54937 0.37023 0.0
H100 H 0.99633 0.53287 0.38868 0.0
H101 H 0.02228 0.56507 0.39359 0.0
H102 H 0.04932 0.46797 0.39978 0.0
H103 H 0.01787 0.46021 0.39066 0.0
H104 H 0.04526 0.47563 0.3746 0.0
H105 H 0.03859 0.49128 0.2628 0.0
H106 H 0.95615 0.44236 0.29427 0.0
H107 H 0.94026 0.43916 0.32747 0.0
H108 H 0.97775 0.47952 0.3903 0.0
H109 H 0.05979 0.5291 0.35836 0.0
H110 H 0.07555 0.53231 0.32519 0.0
H111 H 0.82413 0.34913 0.37952 0.0
H112 H 0.81639 0.34962 0.35353 0.0
H113 H 0.84723 0.35381 0.36046 0.0
C114 C 0.30487 0.84409 0.53475 0.0
C115 C 0.31915 0.84983 0.55474 0.0
C116 C 0.35913 0.89038 0.54769 0.0
C117 C 0.38541 0.90124 0.54381 0.0
C118 C 0.40068 0.92736 0.53912 0.0
C119 C 0.38929 0.94302 0.53829 0.0
C120 C 0.36274 0.93227 0.54231 0.0
C121 C 0.34793 0.9061 0.54701 0.0
C122 C 0.42896 0.93824 0.53499 0.0
C123 C 0.35004 0.94849 0.54158 0.0
C124 C 0.49079 0.12168 0.62956 0.0
C125 C 0.47095 0.10192 0.61644 0.0
C126 C 0.4648 0.06625 0.59529 0.0
C127 C 0.4421 0.06266 0.58618 0.0
C128 C 0.43081 0.0453 0.57034 0.0
C129 C 0.44277 0.03171 0.56318 0.0
C130 C 0.46546 0.03508 0.57245 0.0
C131 C 0.47604 0.05216 0.58854 0.0
C132 C 0.4062 0.04165 0.56115 0.0
C133 C 0.47871 0.0209 0.56518 0.0
C134 C 0.49724 0.13045 0.4494 0.0
C135 C 0.47285 0.12279 0.45712 0.0
C136 C 0.45646 0.09726 0.46307 0.0
C137 C 0.46499 0.07919 0.46151 0.0
C138 C 0.48977 0.08705 0.45372 0.0
C139 C 0.50524 0.11237 0.44724 0.0
C140 C 0.42988 0.0895 0.4706 0.0
C141 C 0.49988 0.06871 0.45145 0.0
C142 C 0.35738 0.94332 0.36296 0.0
C143 C 0.36756 0.93009 0.37672 0.0
C144 C 0.39683 0.96085 0.40183 0.0
C145 C 0.37916 0.96557 0.41197 0.0
C146 C 0.38664 0.98084 0.42927 0.0
C147 C 0.41196 0.99078 0.43679 0.0
C148 C 0.42935 0.98508 0.42695 0.0
C149 C 0.42167 0.97068 0.40937 0.0
C150 C 0.36772 0.98676 0.43929 0.0
C151 C 0.4563 0.99467 0.43465 0.0
C152 C 0.4052 0.97073 0.53343 0.0
C153 C 0.4165 0.98806 0.54918 0.0
C154 C 0.4318 0.01438 0.54573 0.0
C155 C 0.43609 0.02386 0.52603 0.0
C156 C 0.45195 0.05017 0.522 0.0
C157 C 0.45578 0.05936 0.50259 0.0
C158 C 0.44381 0.04263 0.48645 0.0
C159 C 0.44752 0.05177 0.46665 0.0
C160 C 0.43586 0.03441 0.45097 0.0
C161 C 0.42087 0.00804 0.45439 0.0
C162 C 0.41668 0.99856 0.47406 0.0
C163 C 0.40178 0.97213 0.47802 0.0
C164 C 0.39787 0.96297 0.49744 0.0
C165 C 0.40897 0.97985 0.51363 0.0
C166 C 0.42435 0.00655 0.50995 0.0
C167 C 0.42812 0.01594 0.49015 0.0
C168 C 0.55655 0.16853 0.44993 0.0
C169 C 0.53395 0.17355 0.45212 0.0
O170 O 0.3455 0.86481 0.55186 0.0
O171 O 0.39135 0.94794 0.38433 0.0
O172 O 0.51203 0.15472 0.44257 0.0
O173 O 0.47648 0.08314 0.61048 0.0
H174 H 0.31245 0.8601 0.56469 0.0
H175 H 0.30839 0.86208 0.52747 0.0
H176 H 0.31147 0.83399 0.52454 0.0
H177 H 0.2838 0.83187 0.53706 0.0
H178 H 0.39394 0.88906 0.54438 0.0
H179 H 0.32768 0.89821 0.55006 0.0
H180 H 0.44053 0.9542 0.54552 0.0
H181 H 0.43496 0.92358 0.53639 0.0
H182 H 0.43342 0.94628 0.51972 0.0
H183 H 0.32909 0.93721 0.54476 0.0
H184 H 0.35928 0.96433 0.55262 0.0
H185 H 0.35278 0.95734 0.52664 0.0
H186 H 0.45066 0.09445 0.62122 0.0
H187 H 0.48061 0.11986 0.64409 0.0
H188 H 0.50281 0.11355 0.63566 0.0
H189 H 0.50792 0.1573 0.611 0.0
H190 H 0.43303 0.07326 0.59135 0.0
H191 H 0.49348 0.055 0.5957 0.0
H192 H 0.39183 0.02088 0.55988 0.0
H193 H 0.39767 0.05121 0.56993 0.0
H194 H 0.41016 0.04977 0.5459 0.0
H195 H 0.49713 0.02693 0.57314 0.0
H196 H 0.46585 0.99996 0.56735 0.0
H197 H 0.48266 0.02422 0.54899 0.0
H198 H 0.52972 0.17361 0.46825 0.0
H199 H 0.46656 0.13679 0.45819 0.0
H200 H 0.52342 0.11786 0.44011 0.0
H201 H 0.4283 0.08386 0.48647 0.0
H202 H 0.42538 0.10525 0.46929 0.0
H203 H 0.41521 0.07257 0.46215 0.0
H204 H 0.52124 0.07901 0.45219 0.0
H205 H 0.4922 0.05354 0.463 0.0
H206 H 0.49407 0.05945 0.4366 0.0
H207 H 0.35366 0.92038 0.38905 0.0
H208 H 0.33824 0.92904 0.35686 0.0
H209 H 0.35519 0.95806 0.37126 0.0
H210 H 0.37087 0.95287 0.35042 0.0
H211 H 0.35986 0.95806 0.40619 0.0
H212 H 0.43512 0.96689 0.40137 0.0
H213 H 0.36364 0.97863 0.45454 0.0
H214 H 0.37618 0.00786 0.44074 0.0
H215 H 0.34926 0.9788 0.43097 0.0
H216 H 0.46511 0.98393 0.42807 0.0
H217 H 0.46841 0.01515 0.43063 0.0
H218 H 0.45649 0.99314 0.45111 0.0
H219 H 0.4133 0.98096 0.56434 0.0
H220 H 0.46163 0.06399 0.53382 0.0
H221 H 0.46823 0.07978 0.5004 0.0
H222 H 0.43924 0.04145 0.43578 0.0
H223 H 0.39288 0.95822 0.46613 0.0
H224 H 0.3861 0.94245 0.49958 0.0
H225 H 0.55895 0.16477 0.4341 0.0
H226 H 0.5748 0.18524 0.45528 0.0
H227 H 0.5533 0.15193 0.45918 0.0
C228 C 0.62384 0.47354 0.74709 0.0
C229 C 0.61384 0.45689 0.72827 0.0
C230 C 0.58107 0.46735 0.71655 0.0
C231 C 0.59825 0.49242 0.71004 0.0
C232 C 0.58912 0.50858 0.70345 0.0
C233 C 0.56233 0.49947 0.70327 0.0
C234 C 0.54498 0.47401 0.70921 0.0
C235 C 0.55462 0.45828 0.71573 0.0
C236 C 0.60811 0.53555 0.69696 0.0
C237 C 0.51629 0.46358 0.70896 0.0
C238 C 0.54545 0.65309 0.76736 0.0
C239 C 0.52575 0.6245 0.76926 0.0
C240 C 0.53922 0.59542 0.7567 0.0
C241 C 0.5164 0.57453 0.74955 0.0
C242 C 0.517 0.55869 0.73446 0.0
C243 C 0.54094 0.56451 0.726 0.0
C244 C 0.56403 0.58537 0.73356 0.0
C245 C 0.56285 0.60029 0.74912 0.0
C246 C 0.49209 0.53587 0.72753 0.0
C247 C 0.58995 0.59212 0.72509 0.0
C248 C 0.48502 0.60957 0.6161 0.0
C249 C 0.4694 0.58636 0.62592 0.0
C250 C 0.47854 0.56946 0.6302 0.0
C251 C 0.50414 0.57641 0.62508 0.0
C252 C 0.51982 0.59982 0.61501 0.0
C253 C 0.50981 0.61586 0.6103 0.0
C254 C 0.46078 0.5442 0.64014 0.0
C255 C 0.54722 0.60809 0.60937 0.0
C256 C 0.56323 0.44892 0.5789 0.0
C257 C 0.57139 0.47114 0.56428 0.0
C258 C 0.54525 0.48987 0.57363 0.0
C259 C 0.51989 0.47957 0.58014 0.0
C260 C 0.51339 0.49253 0.59434 0.0
C261 C 0.53273 0.51653 0.60177 0.0
C262 C 0.55803 0.52785 0.59411 0.0
C263 C 0.56403 0.51436 0.5801 0.0
C264 C 0.48619 0.48012 0.60203 0.0
C265 C 0.57893 0.55384 0.6012 0.0
C266 C 0.55255 0.51699 0.69787 0.0
C267 C 0.55016 0.53147 0.7131 0.0
C268 C 0.54192 0.54903 0.70916 0.0
C269 C 0.5355 0.55209 0.68946 0.0
C270 C 0.52767 0.56997 0.68484 0.0
C271 C 0.52083 0.57239 0.6655 0.0
C272 C 0.52181 0.55722 0.64995 0.0
C273 C 0.51454 0.55926 0.63026 0.0
C274 C 0.51752 0.54515 0.61495 0.0
C275 C 0.52732 0.52882 0.6188 0.0
C276 C 0.53328 0.52546 0.63855 0.0
C277 C 0.54207 0.50827 0.64302 0.0
C278 C 0.54826 0.50535 0.66244 0.0
C279 C 0.54608 0.51963 0.67811 0.0
C280 C 0.53732 0.53711 0.67393 0.0
C281 C 0.53068 0.53984 0.65414 0.0
C282 C 0.48414 0.66415 0.62772 0.0
C283 C 0.4657 0.6353 0.62519 0.0
O284 O 0.58895 0.45135 0.72392 0.0
O285 O 0.55113 0.47571 0.56126 0.0
O286 O 0.47636 0.62591 0.61161 0.0
O287 O 0.53883 0.61106 0.771 0.0
H288 H 0.62669 0.46718 0.71553 0.0
H289 H 0.62489 0.49229 0.74484 0.0
H290 H 0.61091 0.46378 0.75989 0.0
H291 H 0.64351 0.47733 0.75081 0.0
H292 H 0.61877 0.49966 0.71024 0.0
H293 H 0.5415 0.43885 0.72059 0.0
H294 H 0.60672 0.54951 0.70695 0.0
H295 H 0.62827 0.53944 0.69718 0.0
H296 H 0.60335 0.53885 0.68166 0.0
H297 H 0.50531 0.44307 0.71339 0.0
H298 H 0.51143 0.47493 0.71931 0.0
H299 H 0.51004 0.46555 0.69382 0.0
H300 H 0.51357 0.61856 0.75555 0.0
H301 H 0.53563 0.66443 0.76529 0.0
H302 H 0.55784 0.66011 0.78087 0.0
H303 H 0.5579 0.65626 0.75422 0.0
H304 H 0.49819 0.57059 0.75592 0.0
H305 H 0.58034 0.61635 0.75503 0.0
H306 H 0.49429 0.51868 0.72598 0.0
H307 H 0.47601 0.53134 0.73794 0.0
H308 H 0.48684 0.54 0.71271 0.0
H309 H 0.60554 0.61096 0.73063 0.0
H310 H 0.59468 0.57715 0.7294 0.0
H311 H 0.58948 0.59265 0.70858 0.0
H312 H 0.46355 0.6262 0.64003 0.0
H313 H 0.44993 0.58131 0.6299 0.0
H314 H 0.52155 0.63375 0.6025 0.0
H315 H 0.46662 0.54505 0.65593 0.0
H316 H 0.44042 0.53968 0.63978 0.0
H317 H 0.46209 0.52833 0.63282 0.0
H318 H 0.55797 0.62841 0.60444 0.0
H319 H 0.55759 0.60568 0.62216 0.0
H320 H 0.54718 0.5958 0.59702 0.0
H321 H 0.58826 0.48834 0.57081 0.0
H322 H 0.57922 0.44491 0.58128 0.0
H323 H 0.5583 0.45403 0.59349 0.0
H324 H 0.54611 0.43128 0.57318 0.0
H325 H 0.50544 0.46084 0.57472 0.0
H326 H 0.58342 0.5229 0.57432 0.0
H327 H 0.48608 0.47633 0.6182 0.0
H328 H 0.47852 0.49339 0.60009 0.0
H329 H 0.47319 0.46176 0.59428 0.0
H330 H 0.59673 0.56125 0.59219 0.0
H331 H 0.57206 0.56789 0.60061 0.0
H332 H 0.58376 0.55245 0.61694 0.0
H333 H 0.55511 0.5293 0.72824 0.0
H334 H 0.52661 0.58224 0.69614 0.0
H335 H 0.51486 0.5864 0.66288 0.0
H336 H 0.51261 0.54725 0.59979 0.0
H337 H 0.54416 0.49677 0.63158 0.0
H338 H 0.55486 0.49181 0.66501 0.0
H339 H 0.48635 0.67431 0.61343 0.0
H340 H 0.477 0.6723 0.63925 0.0
H341 H 0.50336 0.6676 0.63253 0.0
C342 C 0.17949 0.46273 0.86941 0.0
C343 C 0.17526 0.4726 0.88932 0.0
C344 C 0.13513 0.47311 0.88234 0.0
C345 C 0.12517 0.48905 0.87761 0.0
C346 C 0.09918 0.47882 0.87244 0.0
C347 C 0.08276 0.45189 0.87196 0.0
C348 C 0.09252 0.43558 0.87714 0.0
C349 C 0.11858 0.44634 0.88236 0.0
C350 C 0.08932 0.49676 0.86721 0.0
C351 C 0.07544 0.40677 0.87688 0.0
C352 C 0.90292 0.37182 0.95903 0.0
C353 C 0.92264 0.37279 0.94536 0.0
C354 C 0.95644 0.403 0.92317 0.0
C355 C 0.9606 0.38443 0.91387 0.0
C356 C 0.97848 0.39123 0.89839 0.0
C357 C 0.99216 0.417 0.89185 0.0
C358 C 0.98796 0.43571 0.90113 0.0
C359 C 0.97022 0.42844 0.91677 0.0
C360 C 0.98281 0.37087 0.88902 0.0
C361 C 0.00216 0.46333 0.89447 0.0
C362 C 0.89979 0.37125 0.78053 0.0
C363 C 0.91122 0.35631 0.78486 0.0
C364 C 0.9377 0.36788 0.78873 0.0
C365 C 0.95311 0.39493 0.78824 0.0
C366 C 0.94192 0.40997 0.78299 0.0
C367 C 0.91538 0.39787 0.77902 0.0
C368 C 0.94915 0.35121 0.79374 0.0
C369 C 0.9579 0.43884 0.78217 0.0
C370 C 0.14806 0.45101 0.74117 0.0
C371 C 0.1309 0.46233 0.73606 0.0
C372 C 0.08507 0.43797 0.74305 0.0
C373 C 0.06738 0.41276 0.74834 0.0
C374 C 0.04691 0.40739 0.76122 0.0
C375 C 0.04381 0.42779 0.76846 0.0
C376 C 0.06043 0.45312 0.76175 0.0
C377 C 0.08104 0.45798 0.74919 0.0
C378 C 0.02929 0.38008 0.76776 0.0
C379 C 0.05706 0.47519 0.7685 0.0
C380 C 0.05551 0.4408 0.86564 0.0
C381 C 0.03692 0.43458 0.88035 0.0
C382 C 0.01096 0.42435 0.87539 0.0
C383 C 0.00326 0.42057 0.85517 0.0
C384 C 0.9774 0.41094 0.84964 0.0
C385 C 0.96996 0.4068 0.82973 0.0
C386 C 0.98807 0.41212 0.81456 0.0
C387 C 0.98059 0.40737 0.7943 0.0
C388 C 0.99912 0.41306 0.77958 0.0
C389 C 0.02506 0.42305 0.78458 0.0
C390 C 0.03285 0.4276 0.80479 0.0
C391 C 0.0587 0.43715 0.81039 0.0
C392 C 0.0662 0.44163 0.83026 0.0
C393 C 0.0481 0.43645 0.84538 0.0
C394 C 0.0219 0.42648 0.84013 0.0
C395 C 0.01429 0.42219 0.8198 0.0
C396 C 0.85221 0.34778 0.80909 0.0
C397 C 0.85498 0.33976 0.78798 0.0
O398 O 0.16073 0.48444 0.88654 0.0
O399 O 0.10608 0.44248 0.73237 0.0
O400 O 0.87395 0.36073 0.77778 0.0
O401 O 0.93941 0.3972 0.93829 0.0
H402 H 0.16521 0.45629 0.89984 0.0
H403 H 0.16089 0.44809 0.86283 0.0
H404 H 0.18922 0.47876 0.85864 0.0
H405 H 0.19153 0.45367 0.87164 0.0
H406 H 0.13799 0.50965 0.87775 0.0
H407 H 0.1258 0.43365 0.88625 0.0
H408 H 0.07236 0.49242 0.87653 0.0
H409 H 0.10419 0.51724 0.86934 0.0
H410 H 0.08292 0.49377 0.85142 0.0
H411 H 0.08604 0.39666 0.88091 0.0
H412 H 0.05934 0.40107 0.88751 0.0
H413 H 0.06688 0.40034 0.86183 0.0
H414 H 0.93216 0.36184 0.95022 0.0
H415 H 0.90678 0.3652 0.97368 0.0
H416 H 0.90983 0.39207 0.96437 0.0
H417 H 0.86607 0.34937 0.94201 0.0
H418 H 0.95008 0.36463 0.91865 0.0
H419 H 0.96688 0.44262 0.92402 0.0
H420 H 0.00365 0.37714 0.88918 0.0
H421 H 0.97213 0.35214 0.89679 0.0
H422 H 0.97645 0.36807 0.87324 0.0
H423 H 0.99558 0.47523 0.90239 0.0
H424 H 0.0231 0.4716 0.89721 0.0
H425 H 0.99942 0.4644 0.87822 0.0
H426 H 0.86015 0.32453 0.78942 0.0
H427 H 0.89976 0.33562 0.78513 0.0
H428 H 0.90651 0.40924 0.77536 0.0
H429 H 0.95633 0.35496 0.80931 0.0
H430 H 0.93498 0.33043 0.79212 0.0
H431 H 0.96583 0.35607 0.78392 0.0
H432 H 0.94642 0.44781 0.7775 0.0
H433 H 0.9664 0.44644 0.79706 0.0
H434 H 0.97406 0.4446 0.77159 0.0
H435 H 0.13142 0.47371 0.74934 0.0
H436 H 0.16816 0.4666 0.74392 0.0
H437 H 0.14087 0.43924 0.75488 0.0
H438 H 0.14798 0.43852 0.72893 0.0
H439 H 0.07042 0.39741 0.74314 0.0
H440 H 0.0942 0.47742 0.7444 0.0
H441 H 0.0297 0.37884 0.78423 0.0
H442 H 0.00921 0.37398 0.76328 0.0
H443 H 0.03473 0.36651 0.76118 0.0
H444 H 0.06867 0.49272 0.75948 0.0
H445 H 0.03648 0.46984 0.76759 0.0
H446 H 0.06318 0.47977 0.78428 0.0
H447 H 0.0427 0.43758 0.89589 0.0
H448 H 0.96261 0.40645 0.86065 0.0
H449 H 0.94977 0.3993 0.82639 0.0
H450 H 0.99323 0.40922 0.7641 0.0
H451 H 0.07351 0.44129 0.79948 0.0
H452 H 0.08636 0.44904 0.83363 0.0
H453 H 0.83637 0.33131 0.81707 0.0
H454 H 0.87032 0.35413 0.81758 0.0
H455 H 0.84818 0.3639 0.8087 0.0
C456 C 0.40038 0.86335 0.9149 0.0
C457 C 0.41208 0.85802 0.93334 0.0
C458 C 0.44513 0.90184 0.94354 0.0
C459 C 0.42814 0.90976 0.95061 0.0
C460 C 0.4374 0.93519 0.95689 0.0
C461 C 0.46413 0.95295 0.95622 0.0
C462 C 0.48131 0.94484 0.94967 0.0
C463 C 0.47154 0.91935 0.94345 0.0
C464 C 0.4186 0.94324 0.96392 0.0
C465 C 0.50993 0.96324 0.94888 0.0
C466 C 0.4578 0.05027 0.84691 0.0
C467 C 0.48182 0.06196 0.86012 0.0
C468 C 0.47953 0.05957 0.89629 0.0
C469 C 0.50133 0.0573 0.90002 0.0
C470 C 0.5037 0.04659 0.91788 0.0
C471 C 0.48381 0.0379 0.93217 0.0
C472 C 0.46246 0.04142 0.92884 0.0
C473 C 0.46084 0.05264 0.911 0.0
C474 C 0.52702 0.0437 0.92116 0.0
C475 C 0.44079 0.03222 0.94367 0.0
C476 C 0.53723 0.1411 0.04217 0.0
C477 C 0.55447 0.13545 0.03247 0.0
C478 C 0.54743 0.10993 0.02792 0.0
C479 C 0.5223 0.08986 0.03258 0.0
C480 C 0.50497 0.09568 0.04245 0.0
C481 C 0.51293 0.12122 0.04749 0.0
C482 C 0.56689 0.10448 0.01827 0.0
C483 C 0.47801 0.07499 0.04767 0.0
C484 C 0.47584 0.90709 0.08087 0.0
C485 C 0.4656 0.92042 0.09443 0.0
C486 C 0.48929 0.96525 0.08502 0.0
C487 C 0.51427 0.98099 0.07799 0.0
C488 C 0.51941 0.99984 0.06359 0.0
C489 C 0.49908 0.00321 0.05647 0.0
C490 C 0.47414 0.98854 0.06465 0.0
C491 C 0.4695 0.96965 0.07883 0.0
C492 C 0.54625 0.01536 0.05535 0.0
C493 C 0.45217 0.99218 0.05788 0.0
C494 C 0.47395 0.98035 0.96123 0.0
C495 C 0.47513 0.99652 0.94591 0.0
C496 C 0.48385 0.0225 0.94937 0.0
C497 C 0.49175 0.03286 0.9687 0.0
C498 C 0.50051 0.05887 0.97275 0.0
C499 C 0.50769 0.0687 0.99196 0.0
C500 C 0.50687 0.05301 0.00778 0.0
C501 C 0.51408 0.06277 0.02739 0.0
C502 C 0.51219 0.04629 0.04282 0.0
C503 C 0.50316 0.02026 0.03926 0.0
C504 C 0.49653 0.01034 0.01971 0.0
C505 C 0.48794 0.98434 0.01558 0.0
C506 C 0.48069 0.9745 0.99643 0.0
C507 C 0.48173 0.99028 0.98067 0.0
C508 C 0.49065 0.01664 0.98441 0.0
C509 C 0.4982 0.02672 0.00396 0.0
C510 C 0.53632 0.1972 0.03307 0.0
C511 C 0.55436 0.18611 0.03406 0.0
O512 O 0.4371 0.8778 0.93644 0.0
O513 O 0.48466 0.94573 0.09751 0.0
O514 O 0.54382 0.1655 0.04704 0.0
O515 O 0.47572 0.06788 0.87854 0.0
H516 H 0.40015 0.85598 0.94661 0.0
H517 H 0.39912 0.88098 0.91702 0.0
H518 H 0.41236 0.866 0.90155 0.0
H519 H 0.3806 0.84712 0.91216 0.0
H520 H 0.40766 0.89641 0.95106 0.0
H521 H 0.48452 0.91304 0.93812 0.0
H522 H 0.4193 0.95816 0.95381 0.0
H523 H 0.39851 0.92692 0.96439 0.0
H524 H 0.42414 0.95186 0.97902 0.0
H525 H 0.52083 0.95371 0.9441 0.0
H526 H 0.51399 0.97901 0.93833 0.0
H527 H 0.51703 0.97204 0.96377 0.0
H528 H 0.48758 0.04705 0.86159 0.0
H529 H 0.46217 0.04527 0.83205 0.0
H530 H 0.44238 0.03246 0.85385 0.0
H531 H 0.45054 0.0639 0.84497 0.0
H532 H 0.51631 0.06358 0.8889 0.0
H533 H 0.4443 0.05487 0.90804 0.0
H534 H 0.52131 0.02313 0.91986 0.0
H535 H 0.54242 0.05474 0.91014 0.0
H536 H 0.53489 0.05022 0.93638 0.0
H537 H 0.42535 0.03603 0.93868 0.0
H538 H 0.43227 0.01127 0.94609 0.0
H539 H 0.44836 0.04192 0.9582 0.0
H540 H 0.55564 0.17966 0.01875 0.0
H541 H 0.57356 0.15095 0.02884 0.0
H542 H 0.49993 0.12588 0.0552 0.0
H543 H 0.56149 0.09903 0.00247 0.0
H544 H 0.58662 0.12143 0.01873 0.0
H545 H 0.56711 0.08815 0.02576 0.0
H546 H 0.46572 0.08309 0.05225 0.0
H547 H 0.46876 0.06188 0.03482 0.0
H548 H 0.47887 0.06343 0.06019 0.0
H549 H 0.44862 0.9195 0.0869 0.0
H550 H 0.46083 0.88671 0.07843 0.0
H551 H 0.48116 0.91679 0.06618 0.0
H552 H 0.49317 0.90782 0.08753 0.0
H553 H 0.52949 0.97769 0.08317 0.0
H554 H 0.45038 0.95819 0.08496 0.0
H555 H 0.546 0.01148 0.03916 0.0
H556 H 0.55313 0.03616 0.05717 0.0
H557 H 0.56009 0.01088 0.06279 0.0
H558 H 0.43488 0.98166 0.06741 0.0
H559 H 0.45814 0.01288 0.05798 0.0
H560 H 0.44681 0.98511 0.04236 0.0
H561 H 0.46899 0.98869 0.93104 0.0
H562 H 0.50168 0.07186 0.96113 0.0
H563 H 0.51388 0.08879 0.99423 0.0
H564 H 0.51716 0.05369 0.0579 0.0
H565 H 0.48667 0.97122 0.02712 0.0
H566 H 0.47412 0.95433 0.99416 0.0
H567 H 0.53499 0.20473 0.04787 0.0
H568 H 0.5432 0.21292 0.02198 0.0
H569 H 0.51675 0.18196 0.0285 0.0
C570 C 0.73018 0.55858 0.12316 0.0
C571 C 0.71576 0.54895 0.1033 0.0
C572 C 0.67569 0.54957 0.11018 0.0
C573 C 0.6496 0.53415 0.11463 0.0
C574 C 0.63428 0.54495 0.11943 0.0
C575 C 0.64545 0.57196 0.11982 0.0
C576 C 0.67175 0.58775 0.11503 0.0
C577 C 0.6866 0.57643 0.11017 0.0
C578 C 0.60622 0.52753 0.12426 0.0
C579 C 0.68419 0.61663 0.11524 0.0
C580 C 0.54592 0.65121 0.03053 0.0
C581 C 0.56587 0.6509 0.04326 0.0
C582 C 0.57013 0.62114 0.06557 0.0
C583 C 0.59301 0.63985 0.0747 0.0
C584 C 0.60389 0.63337 0.09058 0.0
C585 C 0.59144 0.60781 0.09762 0.0
C586 C 0.56845 0.58896 0.08843 0.0
C587 C 0.55819 0.59589 0.07241 0.0
C588 C 0.62868 0.65384 0.09986 0.0
C589 C 0.55466 0.56155 0.09562 0.0
C590 C 0.54248 0.65468 0.20868 0.0
C591 C 0.56875 0.66929 0.2038 0.0
C592 C 0.58328 0.65741 0.19976 0.0
C593 C 0.57133 0.63035 0.20041 0.0
C594 C 0.54513 0.6156 0.20583 0.0
C595 C 0.53112 0.62801 0.21011 0.0
C596 C 0.61142 0.6738 0.19461 0.0
C597 C 0.53184 0.58671 0.20671 0.0
C598 C 0.7029 0.56666 0.24923 0.0
C599 C 0.67477 0.5563 0.25505 0.0
C600 C 0.65533 0.58255 0.24823 0.0
C601 C 0.66424 0.60812 0.24316 0.0
C602 C 0.65018 0.6147 0.23011 0.0
C603 C 0.62637 0.59516 0.22242 0.0
C604 C 0.61621 0.56955 0.22896 0.0
C605 C 0.6309 0.56348 0.24176 0.0
C606 C 0.66134 0.64227 0.22374 0.0
C607 C 0.59043 0.54843 0.22168 0.0
C608 C 0.62964 0.58365 0.12546 0.0
C609 C 0.61811 0.59022 0.11027 0.0
C610 C 0.60255 0.60079 0.11456 0.0
C611 C 0.59801 0.60469 0.13456 0.0
C612 C 0.58195 0.61471 0.1394 0.0
C613 C 0.57791 0.6188 0.15914 0.0
C614 C 0.58978 0.61303 0.1748 0.0
C615 C 0.58623 0.61761 0.1949 0.0
C616 C 0.59806 0.61134 0.21012 0.0
C617 C 0.61376 0.60092 0.20578 0.0
C618 C 0.61787 0.5966 0.18576 0.0
C619 C 0.63399 0.58664 0.18087 0.0
C620 C 0.63782 0.58232 0.16117 0.0
C621 C 0.62588 0.588 0.14555 0.0
C622 C 0.60985 0.59839 0.1501 0.0
C623 C 0.60575 0.60259 0.17024 0.0
C624 C 0.52113 0.68308 0.18225 0.0
C625 C 0.5307 0.68793 0.20386 0.0
O626 O 0.68943 0.53767 0.1062 0.0
O627 O 0.67091 0.57677 0.25898 0.0
O628 O 0.52755 0.66545 0.21219 0.0
O629 O 0.55892 0.62662 0.05022 0.0
H630 H 0.72229 0.56531 0.0928 0.0
H631 H 0.72672 0.57347 0.12981 0.0
H632 H 0.72368 0.54251 0.13391 0.0
H633 H 0.75124 0.56726 0.12083 0.0
H634 H 0.64129 0.51348 0.11451 0.0
H635 H 0.70668 0.58874 0.10655 0.0
H636 H 0.5941 0.53222 0.11459 0.0
H637 H 0.60013 0.50693 0.12227 0.0
H638 H 0.6026 0.53071 0.13992 0.0
H639 H 0.70505 0.62631 0.11173 0.0
H640 H 0.6745 0.6227 0.1042 0.0
H641 H 0.68175 0.6232 0.13011 0.0
H642 H 0.58599 0.66201 0.03766 0.0
H643 H 0.55532 0.65774 0.01549 0.0
H644 H 0.53245 0.63082 0.02552 0.0
H645 H 0.53215 0.67336 0.0485 0.0
H646 H 0.60253 0.65946 0.06946 0.0
H647 H 0.54056 0.58162 0.06525 0.0
H648 H 0.64314 0.64744 0.09997 0.0
H649 H 0.63686 0.6724 0.09184 0.0
H650 H 0.62518 0.65697 0.11556 0.0
H651 H 0.53622 0.54951 0.08759 0.0
H652 H 0.5672 0.55305 0.0935 0.0
H653 H 0.55065 0.56104 0.11179 0.0
H654 H 0.5513 0.70297 0.20371 0.0
H655 H 0.57832 0.68997 0.20333 0.0
H656 H 0.51096 0.61687 0.21409 0.0
H657 H 0.61455 0.67001 0.17899 0.0
H658 H 0.61839 0.69463 0.19628 0.0
H659 H 0.62322 0.66872 0.20431 0.0
H660 H 0.51121 0.57793 0.21079 0.0
H661 H 0.53326 0.579 0.19204 0.0
H662 H 0.54164 0.58084 0.21782 0.0
H663 H 0.66299 0.54488 0.24208 0.0
H664 H 0.70651 0.55056 0.24621 0.0
H665 H 0.70727 0.57837 0.23551 0.0
H666 H 0.71611 0.57896 0.26123 0.0
H667 H 0.68291 0.62275 0.24863 0.0
H668 H 0.62353 0.5438 0.24642 0.0
H669 H 0.66437 0.64376 0.20739 0.0
H670 H 0.64757 0.64898 0.2272 0.0
H671 H 0.67997 0.65521 0.23123 0.0
H672 H 0.58345 0.53057 0.2305 0.0
H673 H 0.57591 0.55472 0.22238 0.0
H674 H 0.59211 0.54401 0.2059 0.0
H675 H 0.62129 0.58707 0.09488 0.0
H676 H 0.57235 0.61955 0.12798 0.0
H677 H 0.56537 0.62657 0.16195 0.0
H678 H 0.59535 0.61498 0.22549 0.0
H679 H 0.64388 0.58203 0.1922 0.0
H680 H 0.65039 0.57458 0.15834 0.0
H681 H 0.50077 0.66734 0.18136 0.0
H682 H 0.5227 0.70077 0.17572 0.0
H683 H 0.53304 0.67751 0.1732 0.0
O684 O 0.61105 0.41253 0.42402 0.0
Cd685 Cd 0.61692 0.39659 0.39888 0.0
Cd686 Cd 0.66667 0.42873 0.40803 0.0
O687 O 0.65104 0.43028 0.43505 0.0
O688 O 0.58724 0.36072 0.39566 0.0
O689 O 0.62661 0.37009 0.40449 0.0
C690 C 0.60282 0.35303 0.40146 0.0
C691 C 0.69988 0.41935 0.40493 0.0
C692 C 0.62765 0.42421 0.43764 0.0
C693 C 0.64569 0.44013 0.37131 0.0
O694 O 0.66298 0.44883 0.38476 0.0
O695 O 0.62619 0.41771 0.37282 0.0
O696 O 0.70438 0.44131 0.41171 0.0
O697 O 0.67641 0.40245 0.40069 0.0
O698 O 0.22411 0.56999 0.60488 0.0
Cd699 Cd 0.24742 0.59221 0.58203 0.0
Cd700 Cd 0.23019 0.62342 0.59327 0.0
O701 O 0.21791 0.60005 0.61811 0.0
O702 O 0.2741 0.58213 0.57754 0.0
O703 O 0.28284 0.61989 0.58977 0.0
C704 C 0.2907 0.60419 0.58484 0.0
C705 C 0.2535 0.66811 0.59535 0.0
C706 C 0.21534 0.57775 0.61881 0.0
C707 C 0.21327 0.59819 0.55322 0.0
O708 O 0.20908 0.60966 0.56736 0.0
O709 O 0.22998 0.59123 0.55524 0.0
O710 O 0.22932 0.65538 0.59963 0.0
O711 O 0.26482 0.6553 0.5909 0.0
O712 O 0.61086 0.20267 0.75866 0.0
Cd713 Cd 0.62947 0.22561 0.73452 0.0
Cd714 Cd 0.59952 0.24559 0.7423 0.0
O715 O 0.59096 0.2235 0.76761 0.0
O716 O 0.66305 0.22678 0.7321 0.0
O717 O 0.65953 0.26079 0.73954 0.0
C718 C 0.674 0.25079 0.73679 0.0
C719 C 0.6058 0.28706 0.74483 0.0
C720 C 0.59646 0.20596 0.77072 0.0
C721 C 0.59046 0.21635 0.70371 0.0
O722 O 0.5826 0.22693 0.71604 0.0
O723 O 0.6105 0.21497 0.70751 0.0
O724 O 0.58345 0.26707 0.74715 0.0
O725 O 0.62506 0.28358 0.74156 0.0
O726 O 0.44897 0.66161 0.94634 0.0
Cd727 Cd 0.42816 0.66146 0.9217 0.0
Cd728 Cd 0.40373 0.61079 0.92942 0.0
O729 O 0.42425 0.62144 0.95561 0.0
O730 O 0.4427 0.69869 0.91654 0.0
O731 O 0.4021 0.67317 0.92493 0.0
C732 C 0.42047 0.69589 0.92051 0.0
C733 C 0.35909 0.58761 0.92898 0.0
C734 C 0.44342 0.64364 0.95872 0.0
C735 C 0.4319 0.62669 0.89133 0.0
O736 O 0.4222 0.6089 0.90418 0.0
O737 O 0.43384 0.64834 0.89486 0.0
O738 O 0.37243 0.57672 0.93304 0.0
O739 O 0.37125 0.61207 0.92576 0.0
O740 O 0.7971 0.35424 0.04726 0.0
Cd741 Cd 0.777 0.35341 0.07233 0.0
Cd742 Cd 0.7971 0.40319 0.0642 0.0
O743 O 0.80735 0.39325 0.03772 0.0
O744 O 0.74964 0.31697 0.07628 0.0
O745 O 0.7415 0.34789 0.06811 0.0
C746 C 0.73312 0.32387 0.07157 0.0
C747 C 0.77647 0.42731 0.06468 0.0
C748 C 0.80707 0.37226 0.03458 0.0
C749 C 0.81534 0.38955 0.1015 0.0
O750 O 0.81909 0.40691 0.08899 0.0
O751 O 0.79765 0.3665 0.09852 0.0
O752 O 0.80053 0.43758 0.06027 0.0
O753 O 0.76379 0.40295 0.06817 0.0
O754 O 0.42323 0.81794 0.23263 0.0
Cd755 Cd 0.41638 0.79627 0.25792 0.0
Cd756 Cd 0.36713 0.77776 0.24789 0.0
O757 O 0.38299 0.79859 0.22219 0.0
O758 O 0.44804 0.79422 0.2626 0.0
O759 O 0.41041 0.76056 0.25455 0.0
C760 C 0.43471 0.77015 0.25809 0.0
C761 C 0.33235 0.73604 0.24587 0.0
C762 C 0.40663 0.81494 0.21955 0.0
C763 C 0.38585 0.80845 0.28591 0.0
O764 O 0.36786 0.79753 0.27318 0.0
O765 O 0.4072 0.80918 0.28335 0.0
O766 O 0.32983 0.75564 0.24198 0.0
O767 O 0.35504 0.74007 0.25033 0.0
H768 H 0.17647 0.60894 0.24164 0.0
H769 H 0.32897 0.69132 0.25925 0.0
H770 H 0.21883 0.58081 0.27491 0.0
H771 H 0.28359 0.7216 0.23365 0.0
H772 H 0.28978 0.64935 0.26232 0.0
H773 H 0.21649 0.64917 0.23598 0.0
C774 C 0.19422 0.61136 0.24789 0.0
C775 C 0.19427 0.59179 0.25921 0.0
C776 C 0.28847 0.66517 0.25594 0.0
C777 C 0.24029 0.63761 0.25244 0.0
C778 C 0.31083 0.68909 0.2541 0.0
C779 C 0.30952 0.71001 0.24625 0.0
C780 C 0.26471 0.6622 0.2498 0.0
C781 C 0.28551 0.70605 0.23987 0.0
C782 C 0.21708 0.63427 0.24459 0.0
C783 C 0.21792 0.59564 0.26646 0.0
N784 N 0.26408 0.68267 0.24183 0.0
N785 N 0.23999 0.61816 0.26303 0.0
H786 H 0.52274 0.18669 0.41502 0.0
H787 H 0.62659 0.33393 0.42458 0.0
H788 H 0.56405 0.22015 0.46968 0.0
H789 H 0.5572 0.31042 0.39048 0.0
H790 H 0.60878 0.28991 0.43638 0.0
H791 H 0.53922 0.23 0.40152 0.0
C792 C 0.53496 0.20309 0.4243 0.0
C793 C 0.54167 0.19981 0.44371 0.0
C794 C 0.59755 0.29439 0.42622 0.0
C795 C 0.56135 0.24914 0.42797 0.0
C796 C 0.60776 0.31944 0.41933 0.0
C797 C 0.59331 0.32586 0.40657 0.0
C798 C 0.57292 0.27548 0.42002 0.0
C799 C 0.56892 0.30627 0.40036 0.0
C800 C 0.54441 0.22774 0.41653 0.0
C801 C 0.55813 0.22184 0.45479 0.0
N802 N 0.55947 0.28185 0.40711 0.0
N803 N 0.56761 0.24553 0.44671 0.0
H804 H 0.43036 0.6408 0.64687 0.0
H805 H 0.31692 0.58263 0.56789 0.0
H806 H 0.44131 0.61882 0.5881 0.0
H807 H 0.32515 0.63947 0.61105 0.0
H808 H 0.36001 0.59065 0.57688 0.0
H809 H 0.3887 0.6349 0.63611 0.0
C810 C 0.42395 0.63464 0.63174 0.0
C811 C 0.43938 0.63027 0.61844 0.0
C812 C 0.35241 0.60148 0.58423 0.0
C813 C 0.39164 0.62325 0.6061 0.0
C814 C 0.32787 0.59692 0.57914 0.0
C815 C 0.31749 0.61044 0.58873 0.0
C816 C 0.36636 0.61922 0.59934 0.0
C817 C 0.33248 0.62873 0.60321 0.0
C818 C 0.40027 0.6314 0.6256 0.0
C819 C 0.4301 0.62229 0.59896 0.0
N820 N 0.35604 0.63235 0.60827 0.0
N821 N 0.40673 0.61884 0.59343 0.0
H822 H 0.82792 0.3637 0.77612 0.0
H823 H 0.70867 0.23418 0.73363 0.0
H824 H 0.82451 0.29038 0.77456 0.0
H825 H 0.70343 0.30137 0.74809 0.0
H826 H 0.75402 0.25733 0.74299 0.0
H827 H 0.78502 0.34374 0.76064 0.0
C828 C 0.81822 0.34347 0.77238 0.0
C829 C 0.82967 0.32861 0.77681 0.0
C830 C 0.74302 0.2671 0.74399 0.0
C831 C 0.78089 0.30578 0.759 0.0
C832 C 0.71711 0.25391 0.73858 0.0
C833 C 0.70213 0.26576 0.74026 0.0
C834 C 0.75417 0.29239 0.75113 0.0
C835 C 0.71422 0.29143 0.74669 0.0
C836 C 0.79379 0.33211 0.76358 0.0
C837 C 0.81637 0.30253 0.77151 0.0
N838 N 0.73952 0.30386 0.75203 0.0
N839 N 0.79271 0.29196 0.76297 0.0
H840 H 0.44609 0.84991 0.91143 0.0
H841 H 0.37926 0.69939 0.93456 0.0
H842 H 0.37808 0.80973 0.94761 0.0
H843 H 0.45358 0.74387 0.90685 0.0
H844 H 0.37575 0.73828 0.9366 0.0
H845 H 0.44648 0.80985 0.90677 0.0
C846 C 0.43133 0.83263 0.91851 0.0
C847 C 0.41241 0.83324 0.93036 0.0
C848 C 0.39275 0.73943 0.93 0.0
C849 C 0.41243 0.78715 0.92481 0.0
C850 C 0.39471 0.71725 0.92877 0.0
C851 C 0.41681 0.71843 0.92063 0.0
C852 C 0.41295 0.76284 0.92292 0.0
C853 C 0.43627 0.74208 0.91336 0.0
C854 C 0.43149 0.80975 0.9158 0.0
C855 C 0.39331 0.81015 0.93871 0.0
N856 N 0.43391 0.7633 0.91472 0.0
N857 N 0.39386 0.78803 0.93586 0.0
H858 H 0.75296 0.5572 0.07591 0.0
H859 H 0.72913 0.4138 0.08023 0.0
H860 H 0.69351 0.49703 0.11117 0.0
H861 H 0.79661 0.47774 0.05461 0.0
H862 H 0.71195 0.44234 0.08724 0.0
H863 H 0.76552 0.52667 0.06374 0.0
C864 C 0.74229 0.53744 0.08082 0.0
C865 C 0.72189 0.52954 0.09429 0.0
C866 C 0.73043 0.45005 0.07995 0.0
C867 C 0.73639 0.49457 0.08072 0.0
C868 C 0.74019 0.43375 0.07586 0.0
C869 C 0.76443 0.44345 0.06697 0.0
C870 C 0.74496 0.47619 0.075 0.0
C871 C 0.77792 0.46948 0.06163 0.0
C872 C 0.74952 0.52006 0.07395 0.0
C873 C 0.70906 0.50382 0.10053 0.0
N874 N 0.76807 0.48495 0.06582 0.0
N875 N 0.71653 0.48727 0.0937 0.0
H876 H 0.2823 0.82282 0.5828 0.0
H877 H 0.30143 0.70026 0.58003 0.0
H878 H 0.34094 0.81931 0.54822 0.0
H879 H 0.23604 0.70043 0.60653 0.0
H880 H 0.32036 0.74611 0.57301 0.0
H881 H 0.26916 0.78019 0.59609 0.0
C882 C 0.2927 0.81322 0.57829 0.0
C883 C 0.31299 0.82478 0.56463 0.0
C884 C 0.302 0.73616 0.58055 0.0
C885 C 0.29776 0.77576 0.57947 0.0
C886 C 0.29124 0.71001 0.58466 0.0
C887 C 0.267 0.69643 0.59372 0.0
C888 C 0.28846 0.74882 0.5856 0.0
C889 C 0.25467 0.71007 0.59937 0.0
C890 C 0.28513 0.78886 0.5858 0.0
C891 C 0.32546 0.81127 0.55895 0.0
N892 N 0.26545 0.73544 0.59509 0.0
N893 N 0.3176 0.78745 0.56636 0.0
H894 H 0.65019 0.44428 0.71671 0.0
H895 H 0.57054 0.30022 0.75668 0.0
H896 H 0.57824 0.41362 0.74817 0.0
H897 H 0.64728 0.33265 0.73282 0.0
H898 H 0.57355 0.34198 0.75392 0.0
H899 H 0.64999 0.40391 0.72246 0.0
C900 C 0.63429 0.42896 0.7247 0.0
C901 C 0.61387 0.43202 0.73151 0.0
C902 C 0.58984 0.34009 0.74941 0.0
C903 C 0.61366 0.38603 0.73841 0.0
C904 C 0.58814 0.31621 0.75098 0.0
C905 C 0.60866 0.31292 0.74489 0.0
C906 C 0.61215 0.36089 0.7415 0.0
C907 C 0.63101 0.33436 0.7377 0.0
C908 C 0.63424 0.40602 0.72807 0.0
C909 C 0.59405 0.41184 0.74225 0.0
N910 N 0.63209 0.35743 0.73603 0.0
N911 N 0.59435 0.38968 0.74522 0.0
H912 H 0.20577 0.52443 0.88152 0.0
H913 H 0.32781 0.53755 0.93956 0.0
H914 H 0.20408 0.46346 0.91635 0.0
H915 H 0.32605 0.60201 0.91315 0.0
H916 H 0.28196 0.51065 0.93246 0.0
H917 H 0.24924 0.55363 0.89391 0.0
C918 C 0.2144 0.51733 0.89207 0.0
C919 C 0.20112 0.49159 0.89823 0.0
C920 C 0.2915 0.53073 0.92837 0.0
C921 C 0.25112 0.52473 0.91207 0.0
C922 C 0.31771 0.54612 0.93242 0.0
C923 C 0.33082 0.57203 0.9268 0.0
C924 C 0.27831 0.54122 0.91841 0.0
C925 C 0.31672 0.58211 0.9177 0.0
C926 C 0.23924 0.53397 0.89909 0.0
C927 C 0.2135 0.48324 0.91148 0.0
N928 N 0.29127 0.56661 0.91359 0.0
N929 N 0.23783 0.49971 0.91789 0.0
H930 H 0.58901 0.22798 0.01313 0.0
H931 H 0.7069 0.27539 0.08697 0.0
H932 H 0.58053 0.19113 0.0699 0.0
H933 H 0.69731 0.32789 0.0491 0.0
H934 H 0.66274 0.2419 0.07893 0.0
H935 H 0.63147 0.26246 0.02365 0.0
C936 C 0.59611 0.22712 0.02778 0.0
C937 C 0.58112 0.20662 0.0406 0.0
C938 C 0.67027 0.26084 0.07257 0.0
C939 C 0.62979 0.24582 0.05263 0.0
C940 C 0.69541 0.27992 0.07712 0.0
C941 C 0.70573 0.30443 0.06868 0.0
C942 C 0.65564 0.26616 0.05911 0.0
C943 C 0.69005 0.30929 0.056 0.0
C944 C 0.62024 0.24683 0.03379 0.0
C945 C 0.59133 0.20643 0.05943 0.0
N946 N 0.66589 0.29021 0.05137 0.0
N947 N 0.61515 0.22564 0.06481 0.0
H948 H 0.54985 0.73548 0.22101 0.0
H949 H 0.41321 0.7198 0.24619 0.0
H950 H 0.47905 0.66348 0.21409 0.0
H951 H 0.48573 0.78591 0.26269 0.0
H952 H 0.43628 0.69752 0.23632 0.0
H953 H 0.52632 0.75318 0.23796 0.0
C954 C 0.52934 0.72331 0.22323 0.0
C955 C 0.51636 0.69802 0.21599 0.0
C956 C 0.44707 0.71677 0.24236 0.0
C957 C 0.4891 0.7183 0.23527 0.0
C958 C 0.43391 0.72949 0.24804 0.0
C959 C 0.44758 0.75487 0.25508 0.0
C960 C 0.47407 0.72964 0.2436 0.0
C961 C 0.47439 0.76645 0.25719 0.0
C962 C 0.51588 0.73342 0.23294 0.0
C963 C 0.48974 0.68313 0.21932 0.0
N964 N 0.48674 0.75386 0.25125 0.0
N965 N 0.47691 0.69358 0.22853 0.0
H966 H 0.80265 0.38177 0.34409 0.0
H967 H 0.74884 0.44399 0.4204 0.0
H968 H 0.83685 0.40656 0.40234 0.0
H969 H 0.69935 0.38347 0.37982 0.0
H970 H 0.78439 0.43666 0.41151 0.0
H971 H 0.76758 0.38901 0.35419 0.0
C972 C 0.80285 0.38888 0.35896 0.0
C973 C 0.82274 0.39354 0.37234 0.0
C974 C 0.76567 0.42494 0.40469 0.0
C975 C 0.78285 0.40211 0.3839 0.0
C976 C 0.74544 0.42911 0.40971 0.0
C977 C 0.72112 0.41426 0.40086 0.0
C978 C 0.76166 0.40626 0.39038 0.0
C979 C 0.71774 0.39525 0.38709 0.0
C980 C 0.78282 0.39289 0.36471 0.0
C981 C 0.82205 0.40278 0.39145 0.0
N982 N 0.73786 0.39199 0.3821 0.0
N983 N 0.80249 0.40692 0.39662 0.0
H984 H 0.14692 0.54476 0.43604 0.0
H985 H 0.17692 0.61127 0.54362 0.0
H986 H 0.11112 0.58649 0.45854 0.0
H987 H 0.21529 0.57236 0.52015 0.0
H988 H 0.15192 0.60146 0.51293 0.0
H989 H 0.17124 0.55357 0.46714 0.0
C990 C 0.14399 0.55554 0.44765 0.0
C991 C 0.12665 0.56451 0.44488 0.0
C992 C 0.16581 0.59507 0.51447 0.0
C993 C 0.15471 0.57506 0.48038 0.0
C994 C 0.18014 0.60067 0.53201 0.0
C995 C 0.19829 0.59264 0.5345 0.0
C996 C 0.16958 0.58128 0.49925 0.0
C997 C 0.20155 0.57897 0.5189 0.0
C998 C 0.15795 0.56067 0.46535 0.0
C999 C 0.12397 0.57886 0.46023 0.0
N1000 N 0.18733 0.57372 0.50196 0.0
N1001 N 0.13782 0.58366 0.47732 0.0
H1002 H 0.45235 0.1402 0.61825 0.0
H1003 H 0.6002 0.19105 0.67381 0.0
H1004 H 0.52186 0.12064 0.59276 0.0
H1005 H 0.54563 0.214 0.69213 0.0
H1006 H 0.57253 0.16869 0.64516 0.0
H1007 H 0.49036 0.17314 0.64708 0.0
C1008 C 0.472 0.14408 0.61764 0.0
C1009 C 0.48153 0.12326 0.60398 0.0
C1010 C 0.5668 0.17882 0.65541 0.0
C1011 C 0.52553 0.16427 0.63673 0.0
C1012 C 0.58256 0.19158 0.67175 0.0
C1013 C 0.5752 0.20436 0.68546 0.0
C1014 C 0.54358 0.1788 0.65289 0.0
C1015 C 0.55209 0.20438 0.68201 0.0
C1016 C 0.49505 0.16298 0.63609 0.0
C1017 C 0.51578 0.13155 0.60178 0.0
N1018 N 0.53703 0.19164 0.66614 0.0
N1019 N 0.53358 0.14977 0.61996 0.0
H1020 H 0.52826 0.60731 0.8073 0.0
H1021 H 0.43749 0.65137 0.85615 0.0
H1022 H 0.48504 0.63262 0.77189 0.0
H1023 H 0.44958 0.59345 0.88367 0.0
H1024 H 0.45741 0.64727 0.82572 0.0
H1025 H 0.50215 0.60427 0.8362 0.0
C1026 C 0.51304 0.61186 0.8055 0.0
C1027 C 0.50859 0.61998 0.78706 0.0
C1028 C 0.45547 0.63528 0.83835 0.0
C1029 C 0.47928 0.61725 0.82022 0.0
C1030 C 0.44422 0.63768 0.85573 0.0
C1031 C 0.44199 0.62279 0.87244 0.0
C1032 C 0.4651 0.6183 0.83782 0.0
C1033 C 0.45089 0.60524 0.87107 0.0
C1034 C 0.49817 0.61012 0.82201 0.0
C1035 C 0.48892 0.6261 0.78579 0.0
N1036 N 0.46243 0.60373 0.85412 0.0
N1037 N 0.47517 0.62488 0.80218 0.0
H1038 H 0.88844 0.31541 0.94974 0.0
H1039 H 0.82896 0.40576 0.00343 0.0
H1040 H 0.89799 0.39942 0.92142 0.0
H1041 H 0.81361 0.33172 0.02473 0.0
H1042 H 0.85142 0.40097 0.97481 0.0
H1043 H 0.85553 0.31899 0.97933 0.0
C1044 C 0.88273 0.32983 0.94884 0.0
C1045 C 0.90044 0.35953 0.93381 0.0
C1046 C 0.84297 0.38575 0.98571 0.0
C1047 C 0.85961 0.36062 0.96759 0.0
C1048 C 0.83016 0.38845 0.00206 0.0
C1049 C 0.81942 0.36914 0.01656 0.0
C1050 C 0.84512 0.36367 0.98396 0.0
C1051 C 0.82159 0.34711 0.01396 0.0
C1052 C 0.86387 0.3332 0.96769 0.0
C1053 C 0.88896 0.38298 0.93118 0.0
N1054 N 0.83434 0.34506 0.99802 0.0
N1055 N 0.87127 0.38209 0.94985 0.0
H1056 H 0.4954 0.92254 0.12656 0.0
H1057 H 0.37664 0.81455 0.18852 0.0
H1058 H 0.41657 0.88574 0.10638 0.0
H1059 H 0.45549 0.85161 0.209 0.0
H1060 H 0.39082 0.84109 0.15864 0.0
H1061 H 0.48109 0.89753 0.15732 0.0
C1062 C 0.47505 0.90941 0.12875 0.0
C1063 C 0.45708 0.9065 0.11408 0.0
C1064 C 0.40502 0.84343 0.16968 0.0
C1065 C 0.44059 0.87747 0.14899 0.0
C1066 C 0.39694 0.82824 0.18674 0.0
C1067 C 0.41489 0.83078 0.2013 0.0
C1068 C 0.43127 0.8613 0.1671 0.0
C1069 C 0.44095 0.84893 0.19818 0.0
C1070 C 0.46689 0.89505 0.14623 0.0
C1071 C 0.43099 0.88881 0.11744 0.0
N1072 N 0.44834 0.86346 0.18143 0.0
N1073 N 0.42353 0.87498 0.13453 0.0
H1074 H 0.69087 0.5701 0.29378 0.0
H1075 H 0.61744 0.42683 0.33659 0.0
H1076 H 0.64379 0.50383 0.25717 0.0
H1077 H 0.67973 0.49128 0.36709 0.0
H1078 H 0.6226 0.45512 0.3086 0.0
H1079 H 0.68238 0.5418 0.32234 0.0
C1080 C 0.67858 0.54958 0.29184 0.0
C1081 C 0.66803 0.53925 0.27313 0.0
C1082 C 0.6351 0.463 0.32145 0.0
C1083 C 0.6583 0.50676 0.30564 0.0
C1084 C 0.63215 0.44689 0.33742 0.0
C1085 C 0.64826 0.45665 0.35417 0.0
C1086 C 0.65408 0.48908 0.32237 0.0
C1087 C 0.66698 0.48283 0.35445 0.0
C1088 C 0.67381 0.53344 0.30808 0.0
C1089 C 0.65226 0.51253 0.27137 0.0
N1090 N 0.66933 0.4981 0.33883 0.0
N1091 N 0.64788 0.49717 0.28742 0.0
H1092 H 0.40987 0.93639 0.35573 0.0
H1093 H 0.34088 0.80235 0.30117 0.0
H1094 H 0.33193 0.87908 0.37037 0.0
H1095 H 0.42338 0.84689 0.30847 0.0
H1096 H 0.33623 0.83012 0.32548 0.0
H1097 H 0.41432 0.90438 0.33671 0.0
C1098 C 0.39377 0.91695 0.35517 0.0
C1099 C 0.37065 0.91021 0.36511 0.0
C1100 C 0.3553 0.83355 0.32195 0.0
C1101 C 0.37547 0.8736 0.34277 0.0
C1102 C 0.358 0.81777 0.30807 0.0
C1103 C 0.38258 0.82248 0.30267 0.0
C1104 C 0.37737 0.85446 0.33015 0.0
C1105 C 0.40407 0.84259 0.31216 0.0
C1106 C 0.39635 0.89868 0.3443 0.0
C1107 C 0.35019 0.8849 0.36322 0.0
N1108 N 0.40098 0.8581 0.32521 0.0
N1109 N 0.35301 0.86749 0.35217 0.0
H1110 H 0.54065 0.44104 0.53336 0.0
H1111 H 0.65805 0.45171 0.46925 0.0
H1112 H 0.62018 0.48575 0.55142 0.0
H1113 H 0.57911 0.41245 0.44886 0.0
H1114 H 0.64444 0.46343 0.49984 0.0
H1115 H 0.55424 0.42956 0.50256 0.0
C1116 C 0.56099 0.44866 0.5307 0.0
C1117 C 0.57938 0.46481 0.54473 0.0
C1118 C 0.6301 0.45225 0.48867 0.0
C1119 C 0.59506 0.45135 0.50978 0.0
C1120 C 0.63785 0.4455 0.4712 0.0
C1121 C 0.61971 0.43108 0.45643 0.0
C1122 C 0.60399 0.44447 0.49144 0.0
C1123 C 0.59379 0.42361 0.45981 0.0
C1124 C 0.56875 0.44203 0.51318 0.0
C1125 C 0.60545 0.47362 0.54081 0.0
N1126 N 0.58673 0.43039 0.47695 0.0
N1127 N 0.61252 0.4668 0.5237 0.0
H1128 H 0.15216 0.51474 0.73444 0.0
H1129 H 0.19908 0.52656 0.62201 0.0
H1130 H 0.13319 0.44924 0.69709 0.0
H1131 H 0.20061 0.58957 0.6541 0.0
H1132 H 0.17682 0.49834 0.64999 0.0
H1133 H 0.17148 0.54288 0.70571 0.0
C1134 C 0.15192 0.5063 0.72014 0.0
C1135 C 0.14115 0.47966 0.71812 0.0
C1136 C 0.18194 0.51832 0.65089 0.0
C1137 C 0.16346 0.51168 0.68528 0.0
C1138 C 0.19477 0.5345 0.63495 0.0
C1139 C 0.2018 0.56052 0.63572 0.0
C1140 C 0.17631 0.52824 0.66785 0.0
C1141 C 0.19556 0.56964 0.65285 0.0
C1142 C 0.16294 0.52234 0.70377 0.0
C1143 C 0.14138 0.46969 0.69926 0.0
N1144 N 0.18329 0.55355 0.66829 0.0
N1145 N 0.15254 0.48572 0.68361 0.0
H1146 H 0.52351 0.06693 0.83949 0.0
H1147 H 0.56486 0.20726 0.79951 0.0
H1148 H 0.48794 0.11049 0.8582 0.0
H1149 H 0.59976 0.16328 0.77995 0.0
H1150 H 0.54044 0.17436 0.82426 0.0
H1151 H 0.55523 0.10412 0.82068 0.0
C1152 C 0.52267 0.0845 0.83987 0.0
C1153 C 0.50322 0.08574 0.8505 0.0
C1154 C 0.55362 0.17201 0.81468 0.0
C1155 C 0.53912 0.12821 0.82877 0.0
C1156 C 0.56762 0.19083 0.80055 0.0
C1157 C 0.58418 0.18791 0.78744 0.0
C1158 C 0.55606 0.15001 0.81569 0.0
C1159 C 0.58708 0.16627 0.78962 0.0
C1160 C 0.54071 0.10569 0.82911 0.0
C1161 C 0.50277 0.10884 0.85032 0.0
N1162 N 0.57295 0.14803 0.80332 0.0
N1163 N 0.52035 0.1291 0.83952 0.0
H1164 H 0.58767 0.70814 0.03832 0.0
H1165 H 0.43541 0.6115 0.99016 0.0
H1166 H 0.51668 0.62404 0.06941 0.0
H1167 H 0.48959 0.68651 0.96732 0.0
H1168 H 0.46468 0.61885 0.01799 0.0
H1169 H 0.54847 0.70285 0.01053 0.0
C1170 C 0.56773 0.69343 0.04009 0.0
C1171 C 0.55752 0.66415 0.05535 0.0
C1172 C 0.47002 0.63374 0.00695 0.0
C1173 C 0.51246 0.66112 0.02373 0.0
C1174 C 0.45337 0.62956 0.99104 0.0
C1175 C 0.46009 0.64837 0.97632 0.0
C1176 C 0.49359 0.65678 0.00803 0.0
C1177 C 0.4836 0.67145 0.97829 0.0
C1178 C 0.54381 0.68904 0.02234 0.0
C1179 C 0.52301 0.6402 0.05947 0.0
N1180 N 0.49963 0.67492 0.99379 0.0
N1181 N 0.50451 0.64015 0.04169 0.0
H1182 H 0.95302 0.46198 0.1728 0.0
H1183 H 0.81562 0.35706 0.13003 0.0
H1184 H 0.91297 0.38289 0.19147 0.0
H1185 H 0.85595 0.43649 0.11186 0.0
H1186 H 0.84854 0.36714 0.15546 0.0
H1187 H 0.91534 0.45403 0.15319 0.0
C1188 C 0.93611 0.44302 0.17297 0.0
C1189 C 0.93603 0.42308 0.1838 0.0
C1190 C 0.85004 0.38241 0.14604 0.0
C1191 C 0.89297 0.41367 0.16116 0.0
C1192 C 0.83121 0.37668 0.13152 0.0
C1193 C 0.83316 0.39589 0.1186 0.0
C1194 C 0.87103 0.40751 0.14762 0.0
C1195 C 0.85375 0.42099 0.12134 0.0
C1196 C 0.91462 0.43845 0.16175 0.0
C1197 C 0.91372 0.3988 0.18338 0.0
N1198 N 0.87199 0.42601 0.1354 0.0
N1199 N 0.89315 0.39472 0.17212 0.0
loop_
_geom_bond_atom_site_label_1
_geom_bond_atom_site_label_2
_geom_bond_distance
_geom_bond_site_symmetry_2
_ccdc_geom_bond_type
C0 C1 1.560 . S
C0 H61 0.959 . S
C0 H62 0.959 . S
C0 H63 0.960 . S
C1 C0 1.560 . S
C1 O56 1.426 . S
C1 H60 0.980 . S
C2 C3 1.407 . S
C2 C7 1.418 . S
C2 O56 1.334 . S
C3 C2 1.407 . S
C3 C4 1.360 . S
C3 H64 0.929 . S
C4 C3 1.360 . S
C4 C5 1.401 . S
C4 C8 1.527 . S
C5 C4 1.401 . S
C5 C6 1.405 . S
C5 C38 1.587 . S
C6 C5 1.405 . S
C6 C7 1.332 . S
C6 C9 1.496 . S
C7 C2 1.418 . S
C7 C6 1.332 . S
C7 H65 0.929 . S
C8 C4 1.527 . S
C8 H66 0.959 . S
C8 H67 0.961 . S
C8 H68 0.961 . S
C9 C6 1.496 . S
C9 H69 0.960 . S
C9 H70 0.960 . S
C9 H71 0.961 . S
C10 C11 1.517 . S
C10 H73 0.961 . S
C10 H74 0.960 . S
C10 H75 0.959 . S
C11 C10 1.517 . S
C11 O59 1.468 . S
C11 H72 0.980 . S
C12 C13 1.349 . S
C12 C17 1.367 . S
C12 O59 1.408 . S
C13 C12 1.349 . S
C13 C14 1.407 . S
C13 H76 0.930 . S
C14 C13 1.407 . S
C14 C15 1.459 . S
C14 C18 1.538 1_655 S
C15 C14 1.459 . S
C15 C16 1.382 . S
C15 C40 1.547 1_655 S
C16 C15 1.382 . S
C16 C17 1.364 . S
C16 C19 1.451 . S
C17 C12 1.367 . S
C17 C16 1.364 . S
C17 H77 0.931 . S
C18 C14 1.538 1_455 S
C18 H78 0.967 . S
C18 H79 0.962 . S
C18 H80 0.948 1_455 S
C19 C16 1.451 . S
C19 H81 0.960 . S
C19 H82 0.958 1_655 S
C19 H83 0.961 . S
C20 C21 1.309 . S
C20 C25 1.304 . S
C20 O58 1.435 . S
C21 C20 1.309 . S
C21 C22 1.476 . S
C21 H85 0.930 . S
C22 C21 1.476 . S
C22 C23 1.400 . S
C22 C26 1.567 . S
C23 C22 1.400 . S
C23 C24 1.373 . S
C23 C45 1.432 . S
C24 C23 1.373 . S
C24 C25 1.339 . S
C24 C27 1.530 . S
C25 C20 1.304 . S
C25 C24 1.339 . S
C25 H86 0.930 . S
C26 C22 1.567 . S
C26 H87 0.961 . S
C26 H88 0.960 . S
C26 H89 0.958 . S
C27 C24 1.530 . S
C27 H90 0.961 . S
C27 H91 0.960 . S
C27 H92 0.960 . S
C28 C29 1.530 . S
C28 H94 0.961 . S
C28 H95 0.961 . S
C28 H96 0.959 . S
C29 C28 1.530 . S
C29 O57 1.412 . S
C29 H93 0.980 . S
C30 C31 1.288 . S
C30 C35 1.377 . S
C30 O57 1.393 . S
C31 C30 1.288 . S
C31 C32 1.369 . S
C31 H97 0.932 . S
C32 C31 1.369 . S
C32 C33 1.398 . S
C32 C36 1.527 . S
C33 C32 1.398 . S
C33 C34 1.380 . S
C33 C47 1.497 . S
C34 C33 1.380 . S
C34 C35 1.383 . S
C34 C37 1.603 . S
C35 C30 1.377 . S
C35 C34 1.383 . S
C35 H98 0.929 . S
C36 C32 1.527 . S
C36 H99 0.961 . S
C36 H100 0.959 . S
C36 H101 0.959 . S
C37 C34 1.603 . S
C37 H102 0.960 . S
C37 H103 0.962 . S
C37 H104 0.961 . S
C38 C5 1.587 . S
C38 C39 1.360 . S
C38 C51 1.412 . S
C39 C38 1.360 . S
C39 C40 1.365 . S
C39 H105 0.929 . S
C40 C15 1.547 1_455 S
C40 C39 1.365 . S
C40 C41 1.404 . S
C41 C40 1.404 . S
C41 C42 1.395 1_455 S
C41 C52 1.451 . S
C42 C41 1.395 1_655 S
C42 C43 1.322 . S
C42 H106 0.930 . S
C43 C42 1.322 . S
C43 C44 1.459 . S
C43 H107 0.929 . S
C44 C43 1.459 . S
C44 C45 1.445 . S
C44 C53 1.395 1_655 S
C45 C23 1.432 . S
C45 C44 1.445 . S
C45 C46 1.370 . S
C46 C45 1.370 . S
C46 C47 1.438 1_655 S
C46 H108 0.930 . S
C47 C33 1.497 . S
C47 C46 1.438 1_455 S
C47 C48 1.360 . S
C48 C47 1.360 . S
C48 C49 1.401 . S
C48 C53 1.446 . S
C49 C48 1.401 . S
C49 C50 1.347 . S
C49 H109 0.929 . S
C50 C49 1.347 . S
C50 C51 1.455 . S
C50 H110 0.930 . S
C51 C38 1.412 . S
C51 C50 1.455 . S
C51 C52 1.331 . S
C52 C41 1.451 . S
C52 C51 1.331 . S
C52 C53 1.497 . S
C53 C44 1.395 1_455 S
C53 C48 1.446 . S
C53 C52 1.497 . S
C54 C55 1.582 . S
C54 H111 0.962 . S
C54 H112 0.959 . S
C54 H113 0.958 . S
C55 C54 1.582 . S
C55 O58 1.458 . S
C55 H84 0.980 . S
O56 C1 1.426 . S
O56 C2 1.334 . S
O57 C29 1.412 . S
O57 C30 1.393 . S
O58 C20 1.435 . S
O58 C55 1.458 . S
O59 C11 1.468 . S
O59 C12 1.408 . S
H60 C1 0.980 . S
H61 C0 0.959 . S
H62 C0 0.959 . S
H63 C0 0.960 . S
H64 C3 0.929 . S
H65 C7 0.929 . S
H66 C8 0.959 . S
H67 C8 0.961 . S
H68 C8 0.961 . S
H69 C9 0.960 . S
H70 C9 0.960 . S
H71 C9 0.961 . S
H72 C11 0.980 . S
H73 C10 0.961 . S
H74 C10 0.960 . S
H75 C10 0.959 . S
H76 C13 0.930 . S
H77 C17 0.931 . S
H78 C18 0.967 . S
H79 C18 0.962 . S
H80 C18 0.948 1_655 S
H81 C19 0.960 . S
H82 C19 0.958 1_455 S
H83 C19 0.961 . S
H84 C55 0.980 . S
H85 C21 0.930 . S
H86 C25 0.930 . S
H87 C26 0.961 . S
H88 C26 0.960 . S
H89 C26 0.958 . S
H90 C27 0.961 . S
H91 C27 0.960 . S
H92 C27 0.960 . S
H93 C29 0.980 . S
H94 C28 0.961 . S
H95 C28 0.961 . S
H96 C28 0.959 . S
H97 C31 0.932 . S
H98 C35 0.929 . S
H99 C36 0.961 . S
H100 C36 0.959 . S
H101 C36 0.959 . S
H102 C37 0.960 . S
H103 C37 0.962 . S
H104 C37 0.961 . S
H105 C39 0.929 . S
H106 C42 0.930 . S
H107 C43 0.929 . S
H108 C46 0.930 . S
H109 C49 0.929 . S
H110 C50 0.930 . S
H111 C54 0.962 . S
H112 C54 0.959 . S
H113 C54 0.958 . S
C114 C115 1.560 . S
C114 H175 0.959 . S
C114 H176 0.959 . S
C114 H177 0.960 . S
C115 C114 1.560 . S
C115 O170 1.426 . S
C115 H174 0.980 . S
C116 C117 1.407 . S
C116 C121 1.418 . S
C116 O170 1.334 . S
C117 C116 1.407 . S
C117 C118 1.360 . S
C117 H178 0.929 . S
C118 C117 1.360 . S
C118 C119 1.401 . S
C118 C122 1.527 . S
C119 C118 1.401 . S
C119 C120 1.405 . S
C119 C152 1.587 . S
C120 C119 1.405 . S
C120 C121 1.332 . S
C120 C123 1.496 . S
C121 C116 1.418 . S
C121 C120 1.332 . S
C121 H179 0.929 . S
C122 C118 1.527 . S
C122 H180 0.959 . S
C122 H181 0.961 . S
C122 H182 0.961 . S
C123 C120 1.496 . S
C123 H183 0.960 . S
C123 H184 0.960 . S
C123 H185 0.961 . S
C124 C125 1.517 . S
C124 H187 0.961 . S
C124 H188 0.960 . S
C124 H189 0.959 . S
C125 C124 1.517 . S
C125 O173 1.468 . S
C125 H186 0.980 . S
C126 C127 1.349 . S
C126 C131 1.367 . S
C126 O173 1.408 . S
C127 C126 1.349 . S
C127 C128 1.407 . S
C127 H190 0.930 . S
C128 C127 1.407 . S
C128 C129 1.449 . S
C128 C132 1.535 . S
C129 C128 1.449 . S
C129 C130 1.384 . S
C129 C154 1.553 . S
C130 C129 1.384 . S
C130 C131 1.364 . S
C130 C133 1.450 . S
C131 C126 1.367 . S
C131 C130 1.364 . S
C131 H191 0.931 . S
C132 C128 1.535 . S
C132 H192 0.959 . S
C132 H193 0.961 . S
C132 H194 0.959 . S
C133 C130 1.450 . S
C133 H195 0.960 . S
C133 H196 0.960 . S
C133 H197 0.960 . S
C134 C135 1.309 . S
C134 C139 1.304 . S
C134 O172 1.435 . S
C135 C134 1.309 . S
C135 C136 1.476 . S
C135 H199 0.930 . S
C136 C135 1.476 . S
C136 C137 1.400 . S
C136 C140 1.567 . S
C137 C136 1.400 . S
C137 C138 1.373 . S
C137 C159 1.432 . S
C138 C137 1.373 . S
C138 C139 1.339 . S
C138 C141 1.530 . S
C139 C134 1.304 . S
C139 C138 1.339 . S
C139 H200 0.930 . S
C140 C136 1.567 . S
C140 H201 0.961 . S
C140 H202 0.960 . S
C140 H203 0.958 . S
C141 C138 1.530 . S
C141 H204 0.961 . S
C141 H205 0.960 . S
C141 H206 0.960 . S
C142 C143 1.530 . S
C142 H208 0.961 . S
C142 H209 0.961 . S
C142 H210 0.959 . S
C143 C142 1.530 . S
C143 O171 1.412 . S
C143 H207 0.980 . S
C144 C145 1.288 . S
C144 C149 1.377 . S
C144 O171 1.393 . S
C145 C144 1.288 . S
C145 C146 1.369 . S
C145 H211 0.932 . S
C146 C145 1.369 . S
C146 C147 1.398 . S
C146 C150 1.527 1_565 S
C147 C146 1.398 . S
C147 C148 1.380 . S
C147 C161 1.497 1_565 S
C148 C147 1.380 . S
C148 C149 1.383 . S
C148 C151 1.603 . S
C149 C144 1.377 . S
C149 C148 1.383 . S
C149 H212 0.929 . S
C150 C146 1.527 1_545 S
C150 H213 0.961 . S
C150 H214 0.959 . S
C150 H215 0.959 1_545 S
C151 C148 1.603 . S
C151 H216 0.960 . S
C151 H217 0.962 . S
C151 H218 0.961 . S
C152 C119 1.587 . S
C152 C153 1.360 . S
C152 C165 1.412 . S
C153 C152 1.360 . S
C153 C154 1.365 1_565 S
C153 H219 0.929 . S
C154 C129 1.553 . S
C154 C153 1.365 1_545 S
C154 C155 1.404 . S
C155 C154 1.404 . S
C155 C156 1.395 . S
C155 C166 1.451 . S
C156 C155 1.395 . S
C156 C157 1.322 . S
C156 H220 0.930 . S
C157 C156 1.322 . S
C157 C158 1.459 . S
C157 H221 0.929 . S
C158 C157 1.459 . S
C158 C159 1.445 . S
C158 C167 1.395 . S
C159 C137 1.432 . S
C159 C158 1.445 . S
C159 C160 1.370 . S
C160 C159 1.370 . S
C160 C161 1.438 . S
C160 H222 0.930 . S
C161 C147 1.497 1_545 S
C161 C160 1.438 . S
C161 C162 1.342 1_545 S
C162 C161 1.342 1_565 S
C162 C163 1.439 . S
C162 C167 1.425 1_565 S
C163 C162 1.439 . S
C163 C164 1.347 . S
C163 H223 0.929 . S
C164 C163 1.347 . S
C164 C165 1.455 . S
C164 H224 0.930 . S
C165 C152 1.412 . S
C165 C164 1.455 . S
C165 C166 1.331 1_565 S
C166 C155 1.451 . S
C166 C165 1.331 1_545 S
C166 C167 1.497 . S
C167 C158 1.395 . S
C167 C162 1.425 1_545 S
C167 C166 1.497 . S
C168 C169 1.582 . S
C168 H225 0.962 . S
C168 H226 0.959 . S
C168 H227 0.958 . S
C169 C168 1.582 . S
C169 O172 1.458 . S
C169 H198 0.980 . S
O170 C115 1.426 . S
O170 C116 1.334 . S
O171 C143 1.412 . S
O171 C144 1.393 . S
O172 C134 1.435 . S
O172 C169 1.458 . S
O173 C125 1.468 . S
O173 C126 1.408 . S
H174 C115 0.980 . S
H175 C114 0.959 . S
H176 C114 0.959 . S
H177 C114 0.960 . S
H178 C117 0.929 . S
H179 C121 0.929 . S
H180 C122 0.959 . S
H181 C122 0.961 . S
H182 C122 0.961 . S
H183 C123 0.960 . S
H184 C123 0.960 . S
H185 C123 0.961 . S
H186 C125 0.980 . S
H187 C124 0.961 . S
H188 C124 0.960 . S
H189 C124 0.959 . S
H190 C127 0.930 . S
H191 C131 0.931 . S
H192 C132 0.959 . S
H193 C132 0.961 . S
H194 C132 0.959 . S
H195 C133 0.960 . S
H196 C133 0.960 . S
H197 C133 0.960 . S
H198 C169 0.980 . S
H199 C135 0.930 . S
H200 C139 0.930 . S
H201 C140 0.961 . S
H202 C140 0.960 . S
H203 C140 0.958 . S
H204 C141 0.961 . S
H205 C141 0.960 . S
H206 C141 0.960 . S
H207 C143 0.980 . S
H208 C142 0.961 . S
H209 C142 0.961 . S
H210 C142 0.959 . S
H211 C145 0.932 . S
H212 C149 0.929 . S
H213 C150 0.961 . S
H214 C150 0.959 . S
H215 C150 0.959 1_565 S
H216 C151 0.960 . S
H217 C151 0.962 . S
H218 C151 0.961 . S
H219 C153 0.929 . S
H220 C156 0.930 . S
H221 C157 0.929 . S
H222 C160 0.930 . S
H223 C163 0.929 . S
H224 C164 0.930 . S
H225 C168 0.962 . S
H226 C168 0.959 . S
H227 C168 0.958 . S
C228 C229 1.560 . S
C228 H289 0.959 . S
C228 H290 0.959 . S
C228 H291 0.960 . S
C229 C228 1.560 . S
C229 O284 1.426 . S
C229 H288 0.980 . S
C230 C231 1.407 . S
C230 C235 1.418 . S
C230 O284 1.334 . S
C231 C230 1.407 . S
C231 C232 1.360 . S
C231 H292 0.929 . S
C232 C231 1.360 . S
C232 C233 1.401 . S
C232 C236 1.527 . S
C233 C232 1.401 . S
C233 C234 1.405 . S
C233 C266 1.587 . S
C234 C233 1.405 . S
C234 C235 1.332 . S
C234 C237 1.496 . S
C235 C230 1.418 . S
C235 C234 1.332 . S
C235 H293 0.929 . S
C236 C232 1.527 . S
C236 H294 0.959 . S
C236 H295 0.961 . S
C236 H296 0.961 . S
C237 C234 1.496 . S
C237 H297 0.960 . S
C237 H298 0.960 . S
C237 H299 0.961 . S
C238 C239 1.517 . S
C238 H301 0.961 . S
C238 H302 0.960 . S
C238 H303 0.959 . S
C239 C238 1.517 . S
C239 O287 1.468 . S
C239 H300 0.980 . S
C240 C241 1.349 . S
C240 C245 1.367 . S
C240 O287 1.408 . S
C241 C240 1.349 . S
C241 C242 1.407 . S
C241 H304 0.930 . S
C242 C241 1.407 . S
C242 C243 1.449 . S
C242 C246 1.535 . S
C243 C242 1.449 . S
C243 C244 1.384 . S
C243 C268 1.553 . S
C244 C243 1.384 . S
C244 C245 1.364 . S
C244 C247 1.450 . S
C245 C240 1.367 . S
C245 C244 1.364 . S
C245 H305 0.931 . S
C246 C242 1.535 . S
C246 H306 0.959 . S
C246 H307 0.961 . S
C246 H308 0.959 . S
C247 C244 1.450 . S
C247 H309 0.960 . S
C247 H310 0.960 . S
C247 H311 0.960 . S
C248 C249 1.309 . S
C248 C253 1.304 . S
C248 O286 1.435 . S
C249 C248 1.309 . S
C249 C250 1.476 . S
C249 H313 0.930 . S
C250 C249 1.476 . S
C250 C251 1.400 . S
C250 C254 1.567 . S
C251 C250 1.400 . S
C251 C252 1.373 . S
C251 C273 1.432 . S
C252 C251 1.373 . S
C252 C253 1.339 . S
C252 C255 1.530 . S
C253 C248 1.304 . S
C253 C252 1.339 . S
C253 H314 0.930 . S
C254 C250 1.567 . S
C254 H315 0.961 . S
C254 H316 0.960 . S
C254 H317 0.958 . S
C255 C252 1.530 . S
C255 H318 0.961 . S
C255 H319 0.960 . S
C255 H320 0.960 . S
C256 C257 1.530 . S
C256 H322 0.961 . S
C256 H323 0.961 . S
C256 H324 0.959 . S
C257 C256 1.530 . S
C257 O285 1.412 . S
C257 H321 0.980 . S
C258 C259 1.288 . S
C258 C263 1.377 . S
C258 O285 1.393 . S
C259 C258 1.288 . S
C259 C260 1.369 . S
C259 H325 0.932 . S
C260 C259 1.369 . S
C260 C261 1.398 . S
C260 C264 1.527 . S
C261 C260 1.398 . S
C261 C262 1.380 . S
C261 C275 1.497 . S
C262 C261 1.380 . S
C262 C263 1.383 . S
C262 C265 1.603 . S
C263 C258 1.377 . S
C263 C262 1.383 . S
C263 H326 0.929 . S
C264 C260 1.527 . S
C264 H327 0.961 . S
C264 H328 0.959 . S
C264 H329 0.959 . S
C265 C262 1.603 . S
C265 H330 0.960 . S
C265 H331 0.962 . S
C265 H332 0.961 . S
C266 C233 1.587 . S
C266 C267 1.360 . S
C266 C279 1.412 . S
C267 C266 1.360 . S
C267 C268 1.365 . S
C267 H333 0.929 . S
C268 C243 1.553 . S
C268 C267 1.365 . S
C268 C269 1.404 . S
C269 C268 1.404 . S
C269 C270 1.395 . S
C269 C280 1.451 . S
C270 C269 1.395 . S
C270 C271 1.322 . S
C270 H334 0.930 . S
C271 C270 1.322 . S
C271 C272 1.459 . S
C271 H335 0.929 . S
C272 C271 1.459 . S
C272 C273 1.445 . S
C272 C281 1.395 . S
C273 C251 1.432 . S
C273 C272 1.445 . S
C273 C274 1.370 . S
C274 C273 1.370 . S
C274 C275 1.438 . S
C274 H336 0.930 . S
C275 C261 1.497 . S
C275 C274 1.438 . S
C275 C276 1.360 . S
C276 C275 1.360 . S
C276 C277 1.401 . S
C276 C281 1.446 . S
C277 C276 1.401 . S
C277 C278 1.347 . S
C277 H337 0.929 . S
C278 C277 1.347 . S
C278 C279 1.455 . S
C278 H338 0.930 . S
C279 C266 1.412 . S
C279 C278 1.455 . S
C279 C280 1.331 . S
C280 C269 1.451 . S
C280 C279 1.331 . S
C280 C281 1.497 . S
C281 C272 1.395 . S
C281 C276 1.446 . S
C281 C280 1.497 . S
C282 C283 1.582 . S
C282 H339 0.962 . S
C282 H340 0.959 . S
C282 H341 0.958 . S
C283 C282 1.582 . S
C283 O286 1.458 . S
C283 H312 0.980 . S
O284 C229 1.426 . S
O284 C230 1.334 . S
O285 C257 1.412 . S
O285 C258 1.393 . S
O286 C248 1.435 . S
O286 C283 1.458 . S
O287 C239 1.468 . S
O287 C240 1.408 . S
H288 C229 0.980 . S
H289 C228 0.959 . S
H290 C228 0.959 . S
H291 C228 0.960 . S
H292 C231 0.929 . S
H293 C235 0.929 . S
H294 C236 0.959 . S
H295 C236 0.961 . S
H296 C236 0.961 . S
H297 C237 0.960 . S
H298 C237 0.960 . S
H299 C237 0.961 . S
H300 C239 0.980 . S
H301 C238 0.961 . S
H302 C238 0.960 . S
H303 C238 0.959 . S
H304 C241 0.930 . S
H305 C245 0.931 . S
H306 C246 0.959 . S
H307 C246 0.961 . S
H308 C246 0.959 . S
H309 C247 0.960 . S
H310 C247 0.960 . S
H311 C247 0.960 . S
H312 C283 0.980 . S
H313 C249 0.930 . S
H314 C253 0.930 . S
H315 C254 0.961 . S
H316 C254 0.960 . S
H317 C254 0.958 . S
H318 C255 0.961 . S
H319 C255 0.960 . S
H320 C255 0.960 . S
H321 C257 0.980 . S
H322 C256 0.961 . S
H323 C256 0.961 . S
H324 C256 0.959 . S
H325 C259 0.932 . S
H326 C263 0.929 . S
H327 C264 0.961 . S
H328 C264 0.959 . S
H329 C264 0.959 . S
H330 C265 0.960 . S
H331 C265 0.962 . S
H332 C265 0.961 . S
H333 C267 0.929 . S
H334 C270 0.930 . S
H335 C271 0.929 . S
H336 C274 0.930 . S
H337 C277 0.929 . S
H338 C278 0.930 . S
H339 C282 0.962 . S
H340 C282 0.959 . S
H341 C282 0.958 . S
C342 C343 1.560 . S
C342 H403 0.959 . S
C342 H404 0.959 . S
C342 H405 0.960 . S
C343 C342 1.560 . S
C343 O398 1.426 . S
C343 H402 0.980 . S
C344 C345 1.407 . S
C344 C349 1.418 . S
C344 O398 1.334 . S
C345 C344 1.407 . S
C345 C346 1.360 . S
C345 H406 0.929 . S
C346 C345 1.360 . S
C346 C347 1.401 . S
C346 C350 1.527 . S
C347 C346 1.401 . S
C347 C348 1.405 . S
C347 C380 1.587 . S
C348 C347 1.405 . S
C348 C349 1.332 . S
C348 C351 1.496 . S
C349 C344 1.418 . S
C349 C348 1.332 . S
C349 H407 0.929 . S
C350 C346 1.527 . S
C350 H408 0.959 . S
C350 H409 0.961 . S
C350 H410 0.961 . S
C351 C348 1.496 . S
C351 H411 0.960 . S
C351 H412 0.960 . S
C351 H413 0.961 . S
C352 C353 1.517 . S
C352 H415 0.961 . S
C352 H416 0.960 . S
C352 H417 0.959 . S
C353 C352 1.517 . S
C353 O401 1.468 . S
C353 H414 0.980 . S
C354 C355 1.349 . S
C354 C359 1.367 . S
C354 O401 1.408 . S
C355 C354 1.349 . S
C355 C356 1.407 . S
C355 H418 0.930 . S
C356 C355 1.407 . S
C356 C357 1.449 . S
C356 C360 1.562 . S
C357 C356 1.449 . S
C357 C358 1.384 . S
C357 C382 1.553 1_655 S
C358 C357 1.384 . S
C358 C359 1.364 . S
C358 C361 1.450 . S
C359 C354 1.367 . S
C359 C358 1.364 . S
C359 H419 0.931 . S
C360 C356 1.562 . S
C360 H420 0.937 1_655 S
C360 H421 0.942 1_655 S
C360 H422 0.975 . S
C361 C358 1.450 . S
C361 H423 0.960 . S
C361 H424 0.960 1_655 S
C361 H425 0.960 . S
C362 C363 1.309 . S
C362 C367 1.304 . S
C362 O400 1.435 . S
C363 C362 1.309 . S
C363 C364 1.476 . S
C363 H427 0.930 . S
C364 C363 1.476 . S
C364 C365 1.400 . S
C364 C368 1.567 . S
C365 C364 1.400 . S
C365 C366 1.373 . S
C365 C387 1.432 . S
C366 C365 1.373 . S
C366 C367 1.339 . S
C366 C369 1.530 . S
C367 C362 1.304 . S
C367 C366 1.339 . S
C367 H428 0.930 . S
C368 C364 1.567 . S
C368 H429 0.961 . S
C368 H430 0.960 . S
C368 H431 0.958 . S
C369 C366 1.530 . S
C369 H432 0.961 . S
C369 H433 0.960 . S
C369 H434 0.960 . S
C370 C371 1.530 . S
C370 H436 0.961 . S
C370 H437 0.961 . S
C370 H438 0.959 . S
C371 C370 1.530 . S
C371 O399 1.412 . S
C371 H435 0.980 . S
C372 C373 1.288 . S
C372 C377 1.377 . S
C372 O399 1.393 . S
C373 C372 1.288 . S
C373 C374 1.369 . S
C373 H439 0.932 . S
C374 C373 1.369 . S
C374 C375 1.398 . S
C374 C378 1.527 . S
C375 C374 1.398 . S
C375 C376 1.380 . S
C375 C389 1.497 . S
C376 C375 1.380 . S
C376 C377 1.383 . S
C376 C379 1.603 . S
C377 C372 1.377 . S
C377 C376 1.383 . S
C377 H440 0.929 . S
C378 C374 1.527 . S
C378 H441 0.961 . S
C378 H442 0.959 . S
C378 H443 0.959 . S
C379 C376 1.603 . S
C379 H444 0.960 . S
C379 H445 0.962 . S
C379 H446 0.961 . S
C380 C347 1.587 . S
C380 C381 1.360 . S
C380 C393 1.412 . S
C381 C380 1.360 . S
C381 C382 1.365 . S
C381 H447 0.929 . S
C382 C357 1.553 1_455 S
C382 C381 1.365 . S
C382 C383 1.404 . S
C383 C382 1.404 . S
C383 C384 1.395 1_455 S
C383 C394 1.451 . S
C384 C383 1.395 1_655 S
C384 C385 1.322 . S
C384 H448 0.930 . S
C385 C384 1.322 . S
C385 C386 1.459 . S
C385 H449 0.929 . S
C386 C385 1.459 . S
C386 C387 1.445 . S
C386 C395 1.395 1_655 S
C387 C365 1.432 . S
C387 C386 1.445 . S
C387 C388 1.370 . S
C388 C387 1.370 . S
C388 C389 1.438 1_655 S
C388 H450 0.930 . S
C389 C375 1.497 . S
C389 C388 1.438 1_455 S
C389 C390 1.360 . S
C390 C389 1.360 . S
C390 C391 1.401 . S
C390 C395 1.446 . S
C391 C390 1.401 . S
C391 C392 1.347 . S
C391 H451 0.929 . S
C392 C391 1.347 . S
C392 C393 1.455 . S
C392 H452 0.930 . S
C393 C380 1.412 . S
C393 C392 1.455 . S
C393 C394 1.331 . S
C394 C383 1.451 . S
C394 C393 1.331 . S
C394 C395 1.497 . S
C395 C386 1.395 1_455 S
C395 C390 1.446 . S
C395 C394 1.497 . S
C396 C397 1.582 . S
C396 H453 0.962 . S
C396 H454 0.959 . S
C396 H455 0.958 . S
C397 C396 1.582 . S
C397 O400 1.458 . S
C397 H426 0.980 . S
O398 C343 1.426 . S
O398 C344 1.334 . S
O399 C371 1.412 . S
O399 C372 1.393 . S
O400 C362 1.435 . S
O400 C397 1.458 . S
O401 C353 1.468 . S
O401 C354 1.408 . S
H402 C343 0.980 . S
H403 C342 0.959 . S
H404 C342 0.959 . S
H405 C342 0.960 . S
H406 C345 0.929 . S
H407 C349 0.929 . S
H408 C350 0.959 . S
H409 C350 0.961 . S
H410 C350 0.961 . S
H411 C351 0.960 . S
H412 C351 0.960 . S
H413 C351 0.961 . S
H414 C353 0.980 . S
H415 C352 0.961 . S
H416 C352 0.960 . S
H417 C352 0.959 . S
H418 C355 0.930 . S
H419 C359 0.931 . S
H420 C360 0.937 1_455 S
H421 C360 0.942 1_455 S
H422 C360 0.975 . S
H423 C361 0.960 . S
H424 C361 0.960 1_455 S
H425 C361 0.960 . S
H426 C397 0.980 . S
H427 C363 0.930 . S
H428 C367 0.930 . S
H429 C368 0.961 . S
H430 C368 0.960 . S
H431 C368 0.958 . S
H432 C369 0.961 . S
H433 C369 0.960 . S
H434 C369 0.960 . S
H435 C371 0.980 . S
H436 C370 0.961 . S
H437 C370 0.961 . S
H438 C370 0.959 . S
H439 C373 0.932 . S
H440 C377 0.929 . S
H441 C378 0.961 . S
H442 C378 0.959 . S
H443 C378 0.959 . S
H444 C379 0.960 . S
H445 C379 0.962 . S
H446 C379 0.961 . S
H447 C381 0.929 . S
H448 C384 0.930 . S
H449 C385 0.929 . S
H450 C388 0.930 . S
H451 C391 0.929 . S
H452 C392 0.930 . S
H453 C396 0.962 . S
H454 C396 0.959 . S
H455 C396 0.958 . S
C456 C457 1.560 . S
C456 H517 0.959 . S
C456 H518 0.959 . S
C456 H519 0.960 . S
C457 C456 1.560 . S
C457 O512 1.426 . S
C457 H516 0.980 . S
C458 C459 1.407 . S
C458 C463 1.418 . S
C458 O512 1.334 . S
C459 C458 1.407 . S
C459 C460 1.360 . S
C459 H520 0.929 . S
C460 C459 1.360 . S
C460 C461 1.401 . S
C460 C464 1.527 . S
C461 C460 1.401 . S
C461 C462 1.405 . S
C461 C494 1.587 . S
C462 C461 1.405 . S
C462 C463 1.332 . S
C462 C465 1.496 . S
C463 C458 1.418 . S
C463 C462 1.332 . S
C463 H521 0.929 . S
C464 C460 1.527 . S
C464 H522 0.959 . S
C464 H523 0.961 . S
C464 H524 0.961 . S
C465 C462 1.496 . S
C465 H525 0.960 . S
C465 H526 0.960 . S
C465 H527 0.961 . S
C466 C467 1.517 . S
C466 H529 0.961 . S
C466 H530 0.960 . S
C466 H531 0.959 . S
C467 C466 1.517 . S
C467 O515 1.468 . S
C467 H528 0.980 . S
C468 C469 1.349 . S
C468 C473 1.367 . S
C468 O515 1.408 . S
C469 C468 1.349 . S
C469 C470 1.407 . S
C469 H532 0.930 . S
C470 C469 1.407 . S
C470 C471 1.449 . S
C470 C474 1.535 . S
C471 C470 1.449 . S
C471 C472 1.384 . S
C471 C496 1.553 . S
C472 C471 1.384 . S
C472 C473 1.364 . S
C472 C475 1.450 . S
C473 C468 1.367 . S
C473 C472 1.364 . S
C473 H533 0.931 . S
C474 C470 1.535 . S
C474 H534 0.959 . S
C474 H535 0.961 . S
C474 H536 0.959 . S
C475 C472 1.450 . S
C475 H537 0.960 . S
C475 H538 0.960 . S
C475 H539 0.960 . S
C476 C477 1.309 . S
C476 C481 1.304 . S
C476 O514 1.435 . S
C477 C476 1.309 . S
C477 C478 1.476 . S
C477 H541 0.930 . S
C478 C477 1.476 . S
C478 C479 1.400 . S
C478 C482 1.567 . S
C479 C478 1.400 . S
C479 C480 1.373 . S
C479 C501 1.432 . S
C480 C479 1.373 . S
C480 C481 1.339 . S
C480 C483 1.530 . S
C481 C476 1.304 . S
C481 C480 1.339 . S
C481 H542 0.930 . S
C482 C478 1.567 . S
C482 H543 0.961 . S
C482 H544 0.960 . S
C482 H545 0.958 . S
C483 C480 1.530 . S
C483 H546 0.961 . S
C483 H547 0.960 . S
C483 H548 0.960 . S
C484 C485 1.530 . S
C484 H550 0.961 . S
C484 H551 0.961 . S
C484 H552 0.959 . S
C485 C484 1.530 . S
C485 O513 1.412 . S
C485 H549 0.980 . S
C486 C487 1.288 . S
C486 C491 1.377 . S
C486 O513 1.393 . S
C487 C486 1.288 . S
C487 C488 1.369 . S
C487 H553 0.932 . S
C488 C487 1.369 . S
C488 C489 1.398 . S
C488 C492 1.527 1_565 S
C489 C488 1.398 . S
C489 C490 1.380 . S
C489 C503 1.497 1_565 S
C490 C489 1.380 . S
C490 C491 1.383 . S
C490 C493 1.603 . S
C491 C486 1.377 . S
C491 C490 1.383 . S
C491 H554 0.929 . S
C492 C488 1.527 1_545 S
C492 H555 0.961 . S
C492 H556 0.959 . S
C492 H557 0.943 1_545 S
C493 C490 1.603 . S
C493 H558 0.960 . S
C493 H559 0.962 . S
C493 H560 0.961 . S
C494 C461 1.587 . S
C494 C495 1.360 . S
C494 C507 1.412 . S
C495 C494 1.360 . S
C495 C496 1.365 1_565 S
C495 H561 0.929 . S
C496 C471 1.553 . S
C496 C495 1.365 1_545 S
C496 C497 1.404 . S
C497 C496 1.404 . S
C497 C498 1.395 . S
C497 C508 1.451 . S
C498 C497 1.395 . S
C498 C499 1.322 . S
C498 H562 0.930 . S
C499 C498 1.322 . S
C499 C500 1.459 1_556 S
C499 H563 0.929 . S
C500 C499 1.459 1_554 S
C500 C501 1.445 . S
C500 C509 1.399 . S
C501 C479 1.432 . S
C501 C500 1.445 . S
C501 C502 1.370 . S
C502 C501 1.370 . S
C502 C503 1.438 . S
C502 H564 0.930 . S
C503 C489 1.497 1_545 S
C503 C502 1.438 . S
C503 C504 1.353 1_545 S
C504 C503 1.353 1_565 S
C504 C505 1.422 . S
C504 C509 1.451 1_565 S
C505 C504 1.422 . S
C505 C506 1.347 1_554 S
C505 H565 0.929 . S
C506 C505 1.347 1_556 S
C506 C507 1.455 . S
C506 H566 0.930 . S
C507 C494 1.412 . S
C507 C506 1.455 . S
C507 C508 1.331 1_565 S
C508 C497 1.451 . S
C508 C507 1.331 1_545 S
C508 C509 1.474 1_556 S
C509 C500 1.399 . S
C509 C504 1.451 1_545 S
C509 C508 1.474 1_554 S
C510 C511 1.582 . S
C510 H567 0.962 . S
C510 H568 0.959 . S
C510 H569 0.958 . S
C511 C510 1.582 . S
C511 O514 1.458 . S
C511 H540 0.980 . S
O512 C457 1.426 . S
O512 C458 1.334 . S
O513 C485 1.412 . S
O513 C486 1.393 . S
O514 C476 1.435 . S
O514 C511 1.458 . S
O515 C467 1.468 . S
O515 C468 1.408 . S
H516 C457 0.980 . S
H517 C456 0.959 . S
H518 C456 0.959 . S
H519 C456 0.960 . S
H520 C459 0.929 . S
H521 C463 0.929 . S
H522 C464 0.959 . S
H523 C464 0.961 . S
H524 C464 0.961 . S
H525 C465 0.960 . S
H526 C465 0.960 . S
H527 C465 0.961 . S
H528 C467 0.980 . S
H529 C466 0.961 . S
H530 C466 0.960 . S
H531 C466 0.959 . S
H532 C469 0.930 . S
H533 C473 0.931 . S
H534 C474 0.959 . S
H535 C474 0.961 . S
H536 C474 0.959 . S
H537 C475 0.960 . S
H538 C475 0.960 . S
H539 C475 0.960 . S
H540 C511 0.980 . S
H541 C477 0.930 . S
H542 C481 0.930 . S
H543 C482 0.961 . S
H544 C482 0.960 . S
H545 C482 0.958 . S
H546 C483 0.961 . S
H547 C483 0.960 . S
H548 C483 0.960 . S
H549 C485 0.980 . S
H550 C484 0.961 . S
H551 C484 0.961 . S
H552 C484 0.959 . S
H553 C487 0.932 . S
H554 C491 0.929 . S
H555 C492 0.961 . S
H556 C492 0.959 . S
H557 C492 0.943 1_565 S
H558 C493 0.960 . S
H559 C493 0.962 . S
H560 C493 0.961 . S
H561 C495 0.929 . S
H562 C498 0.930 . S
H563 C499 0.929 . S
H564 C502 0.930 . S
H565 C505 0.929 . S
H566 C506 0.930 . S
H567 C510 0.962 . S
H568 C510 0.959 . S
H569 C510 0.958 . S
C570 C571 1.560 . S
C570 H631 0.959 . S
C570 H632 0.959 . S
C570 H633 0.960 . S
C571 C570 1.560 . S
C571 O626 1.426 . S
C571 H630 0.980 . S
C572 C573 1.407 . S
C572 C577 1.418 . S
C572 O626 1.334 . S
C573 C572 1.407 . S
C573 C574 1.360 . S
C573 H634 0.929 . S
C574 C573 1.360 . S
C574 C575 1.401 . S
C574 C578 1.527 . S
C575 C574 1.401 . S
C575 C576 1.405 . S
C575 C608 1.587 . S
C576 C575 1.405 . S
C576 C577 1.332 . S
C576 C579 1.496 . S
C577 C572 1.418 . S
C577 C576 1.332 . S
C577 H635 0.929 . S
C578 C574 1.527 . S
C578 H636 0.959 . S
C578 H637 0.961 . S
C578 H638 0.961 . S
C579 C576 1.496 . S
C579 H639 0.960 . S
C579 H640 0.960 . S
C579 H641 0.961 . S
C580 C581 1.517 . S
C580 H643 0.961 . S
C580 H644 0.960 . S
C580 H645 0.959 . S
C581 C580 1.517 . S
C581 O629 1.468 . S
C581 H642 0.980 . S
C582 C583 1.349 . S
C582 C587 1.367 . S
C582 O629 1.408 . S
C583 C582 1.349 . S
C583 C584 1.407 . S
C583 H646 0.930 . S
C584 C583 1.407 . S
C584 C585 1.449 . S
C584 C588 1.535 . S
C585 C584 1.449 . S
C585 C586 1.384 . S
C585 C610 1.553 . S
C586 C585 1.384 . S
C586 C587 1.364 . S
C586 C589 1.450 . S
C587 C582 1.367 . S
C587 C586 1.364 . S
C587 H647 0.931 . S
C588 C584 1.535 . S
C588 H648 0.959 . S
C588 H649 0.961 . S
C588 H650 0.959 . S
C589 C586 1.450 . S
C589 H651 0.960 . S
C589 H652 0.960 . S
C589 H653 0.960 . S
C590 C591 1.309 . S
C590 C595 1.304 . S
C590 O628 1.435 . S
C591 C590 1.309 . S
C591 C592 1.476 . S
C591 H655 0.930 . S
C592 C591 1.476 . S
C592 C593 1.400 . S
C592 C596 1.567 . S
C593 C592 1.400 . S
C593 C594 1.373 . S
C593 C615 1.432 . S
C594 C593 1.373 . S
C594 C595 1.339 . S
C594 C597 1.530 . S
C595 C590 1.304 . S
C595 C594 1.339 . S
C595 H656 0.930 . S
C596 C592 1.567 . S
C596 H657 0.961 . S
C596 H658 0.960 . S
C596 H659 0.958 . S
C597 C594 1.530 . S
C597 H660 0.961 . S
C597 H661 0.960 . S
C597 H662 0.960 . S
C598 C599 1.530 . S
C598 H664 0.961 . S
C598 H665 0.961 . S
C598 H666 0.959 . S
C599 C598 1.530 . S
C599 O627 1.412 . S
C599 H663 0.980 . S
C600 C601 1.288 . S
C600 C605 1.377 . S
C600 O627 1.393 . S
C601 C600 1.288 . S
C601 C602 1.369 . S
C601 H667 0.932 . S
C602 C601 1.369 . S
C602 C603 1.398 . S
C602 C606 1.527 . S
C603 C602 1.398 . S
C603 C604 1.380 . S
C603 C617 1.497 . S
C604 C603 1.380 . S
C604 C605 1.383 . S
C604 C607 1.603 . S
C605 C600 1.377 . S
C605 C604 1.383 . S
C605 H668 0.929 . S
C606 C602 1.527 . S
C606 H669 0.961 . S
C606 H670 0.959 . S
C606 H671 0.959 . S
C607 C604 1.603 . S
C607 H672 0.960 . S
C607 H673 0.962 . S
C607 H674 0.961 . S
C608 C575 1.587 . S
C608 C609 1.360 . S
C608 C621 1.412 . S
C609 C608 1.360 . S
C609 C610 1.365 . S
C609 H675 0.929 . S
C610 C585 1.553 . S
C610 C609 1.365 . S
C610 C611 1.404 . S
C611 C610 1.404 . S
C611 C612 1.395 . S
C611 C622 1.451 . S
C612 C611 1.395 . S
C612 C613 1.322 . S
C612 H676 0.930 . S
C613 C612 1.322 . S
C613 C614 1.459 . S
C613 H677 0.929 . S
C614 C613 1.459 . S
C614 C615 1.445 . S
C614 C623 1.395 . S
C615 C593 1.432 . S
C615 C614 1.445 . S
C615 C616 1.370 . S
C616 C615 1.370 . S
C616 C617 1.438 . S
C616 H678 0.930 . S
C617 C603 1.497 . S
C617 C616 1.438 . S
C617 C618 1.360 . S
C618 C617 1.360 . S
C618 C619 1.401 . S
C618 C623 1.446 . S
C619 C618 1.401 . S
C619 C620 1.347 . S
C619 H679 0.929 . S
C620 C619 1.347 . S
C620 C621 1.455 . S
C620 H680 0.930 . S
C621 C608 1.412 . S
C621 C620 1.455 . S
C621 C622 1.331 . S
C622 C611 1.451 . S
C622 C621 1.331 . S
C622 C623 1.497 . S
C623 C614 1.395 . S
C623 C618 1.446 . S
C623 C622 1.497 . S
C624 C625 1.582 . S
C624 H681 0.962 . S
C624 H682 0.959 . S
C624 H683 0.958 . S
C625 C624 1.582 . S
C625 O628 1.458 . S
C625 H654 0.980 . S
O626 C571 1.426 . S
O626 C572 1.334 . S
O627 C599 1.412 . S
O627 C600 1.393 . S
O628 C590 1.435 . S
O628 C625 1.458 . S
O629 C581 1.468 . S
O629 C582 1.408 . S
H630 C571 0.980 . S
H631 C570 0.959 . S
H632 C570 0.959 . S
H633 C570 0.960 . S
H634 C573 0.929 . S
H635 C577 0.929 . S
H636 C578 0.959 . S
H637 C578 0.961 . S
H638 C578 0.961 . S
H639 C579 0.960 . S
H640 C579 0.960 . S
H641 C579 0.961 . S
H642 C581 0.980 . S
H643 C580 0.961 . S
H644 C580 0.960 . S
H645 C580 0.959 . S
H646 C583 0.930 . S
H647 C587 0.931 . S
H648 C588 0.959 . S
H649 C588 0.961 . S
H650 C588 0.959 . S
H651 C589 0.960 . S
H652 C589 0.960 . S
H653 C589 0.960 . S
H654 C625 0.980 . S
H655 C591 0.930 . S
H656 C595 0.930 . S
H657 C596 0.961 . S
H658 C596 0.960 . S
H659 C596 0.958 . S
H660 C597 0.961 . S
H661 C597 0.960 . S
H662 C597 0.960 . S
H663 C599 0.980 . S
H664 C598 0.961 . S
H665 C598 0.961 . S
H666 C598 0.959 . S
H667 C601 0.932 . S
H668 C605 0.929 . S
H669 C606 0.961 . S
H670 C606 0.959 . S
H671 C606 0.959 . S
H672 C607 0.960 . S
H673 C607 0.962 . S
H674 C607 0.961 . S
H675 C609 0.929 . S
H676 C612 0.930 . S
H677 C613 0.929 . S
H678 C616 0.930 . S
H679 C619 0.929 . S
H680 C620 0.930 . S
H681 C624 0.962 . S
H682 C624 0.959 . S
H683 C624 0.958 . S
O684 Cd685 2.223 . S
O684 C692 1.315 . S
Cd685 O684 2.223 . S
Cd685 O688 2.297 . S
Cd685 O689 2.439 . S
Cd685 O695 2.240 . S
Cd686 O687 2.240 . S
Cd686 O694 2.223 . S
Cd686 O696 2.297 . S
Cd686 O697 2.439 . S
O687 Cd686 2.240 . S
O687 C692 1.279 . S
O688 Cd685 2.297 . S
O688 C690 1.247 . S
O689 Cd685 2.439 . S
O689 C690 1.208 . S
C690 O688 1.247 . S
C690 O689 1.208 . S
C691 O696 1.247 . S
C691 O697 1.208 . S
C692 O684 1.315 . S
C692 O687 1.279 . S
C693 O694 1.315 . S
C693 O695 1.279 . S
O694 Cd686 2.223 . S
O694 C693 1.315 . S
O695 Cd685 2.240 . S
O695 C693 1.279 . S
O696 Cd686 2.297 . S
O696 C691 1.247 . S
O697 Cd686 2.439 . S
O697 C691 1.208 . S
O698 Cd699 2.223 . S
O698 C706 1.315 . S
Cd699 O698 2.223 . S
Cd699 O702 2.297 . S
Cd699 O703 2.439 . S
Cd699 O709 2.240 . S
Cd700 O701 2.240 . S
Cd700 O708 2.223 . S
Cd700 O710 2.297 . S
Cd700 O711 2.439 . S
O701 Cd700 2.240 . S
O701 C706 1.279 . S
O702 Cd699 2.297 . S
O702 C704 1.247 . S
O703 Cd699 2.439 . S
O703 C704 1.208 . S
C704 O702 1.247 . S
C704 O703 1.208 . S
C705 O710 1.247 . S
C705 O711 1.208 . S
C706 O698 1.315 . S
C706 O701 1.279 . S
C707 O708 1.315 . S
C707 O709 1.279 . S
O708 Cd700 2.223 . S
O708 C707 1.315 . S
O709 Cd699 2.240 . S
O709 C707 1.279 . S
O710 Cd700 2.297 . S
O710 C705 1.247 . S
O711 Cd700 2.439 . S
O711 C705 1.208 . S
O712 Cd713 2.223 . S
O712 C720 1.315 . S
Cd713 O712 2.223 . S
Cd713 O716 2.297 . S
Cd713 O717 2.439 . S
Cd713 O723 2.240 . S
Cd714 O715 2.240 . S
Cd714 O722 2.223 . S
Cd714 O724 2.297 . S
Cd714 O725 2.439 . S
O715 Cd714 2.240 . S
O715 C720 1.279 . S
O716 Cd713 2.297 . S
O716 C718 1.247 . S
O717 Cd713 2.439 . S
O717 C718 1.208 . S
C718 O716 1.247 . S
C718 O717 1.208 . S
C719 O724 1.247 . S
C719 O725 1.208 . S
C720 O712 1.315 . S
C720 O715 1.279 . S
C721 O722 1.315 . S
C721 O723 1.279 . S
O722 Cd714 2.223 . S
O722 C721 1.315 . S
O723 Cd713 2.240 . S
O723 C721 1.279 . S
O724 Cd714 2.297 . S
O724 C719 1.247 . S
O725 Cd714 2.439 . S
O725 C719 1.208 . S
O726 Cd727 2.223 . S
O726 C734 1.315 . S
Cd727 O726 2.223 . S
Cd727 O730 2.297 . S
Cd727 O731 2.439 . S
Cd727 O737 2.240 . S
Cd728 O729 2.240 . S
Cd728 O736 2.223 . S
Cd728 O738 2.297 . S
Cd728 O739 2.439 . S
O729 Cd728 2.240 . S
O729 C734 1.279 . S
O730 Cd727 2.297 . S
O730 C732 1.247 . S
O731 Cd727 2.439 . S
O731 C732 1.208 . S
C732 O730 1.247 . S
C732 O731 1.208 . S
C733 O738 1.247 . S
C733 O739 1.208 . S
C734 O726 1.315 . S
C734 O729 1.279 . S
C735 O736 1.315 . S
C735 O737 1.279 . S
O736 Cd728 2.223 . S
O736 C735 1.315 . S
O737 Cd727 2.240 . S
O737 C735 1.279 . S
O738 Cd728 2.297 . S
O738 C733 1.247 . S
O739 Cd728 2.439 . S
O739 C733 1.208 . S
O740 Cd741 2.223 . S
O740 C748 1.315 . S
Cd741 O740 2.223 . S
Cd741 O744 2.297 . S
Cd741 O745 2.439 . S
Cd741 O751 2.240 . S
Cd742 O743 2.240 . S
Cd742 O750 2.223 . S
Cd742 O752 2.297 . S
Cd742 O753 2.439 . S
O743 Cd742 2.240 . S
O743 C748 1.279 . S
O744 Cd741 2.297 . S
O744 C746 1.247 . S
O745 Cd741 2.439 . S
O745 C746 1.208 . S
C746 O744 1.247 . S
C746 O745 1.208 . S
C747 O752 1.247 . S
C747 O753 1.208 . S
C748 O740 1.315 . S
C748 O743 1.279 . S
C749 O750 1.315 . S
C749 O751 1.279 . S
O750 Cd742 2.223 . S
O750 C749 1.315 . S
O751 Cd741 2.240 . S
O751 C749 1.279 . S
O752 Cd742 2.297 . S
O752 C747 1.247 . S
O753 Cd742 2.439 . S
O753 C747 1.208 . S
O754 Cd755 2.223 . S
O754 C762 1.315 . S
Cd755 O754 2.223 . S
Cd755 O758 2.297 . S
Cd755 O759 2.439 . S
Cd755 O765 2.240 . S
Cd756 O757 2.240 . S
Cd756 O764 2.223 . S
Cd756 O766 2.297 . S
Cd756 O767 2.439 . S
O757 Cd756 2.240 . S
O757 C762 1.279 . S
O758 Cd755 2.297 . S
O758 C760 1.247 . S
O759 Cd755 2.439 . S
O759 C760 1.208 . S
C760 O758 1.247 . S
C760 O759 1.208 . S
C761 O766 1.247 . S
C761 O767 1.208 . S
C762 O754 1.315 . S
C762 O757 1.279 . S
C763 O764 1.315 . S
C763 O765 1.279 . S
O764 Cd756 2.223 . S
O764 C763 1.315 . S
O765 Cd755 2.240 . S
O765 C763 1.279 . S
O766 Cd756 2.297 . S
O766 C761 1.247 . S
O767 Cd756 2.439 . S
O767 C761 1.208 . S
H768 C774 0.930 . S
H769 C778 0.930 . S
H770 C783 0.929 . S
H771 C781 0.929 . S
H772 C776 0.929 . S
H773 C782 0.929 . S
C774 H768 0.930 . S
C774 C775 1.367 . S
C774 C782 1.378 . S
C775 C774 1.367 . S
C775 C783 1.433 . S
C776 H772 0.929 . S
C776 C778 1.378 . S
C776 C780 1.350 . S
C777 C780 1.463 . S
C777 C782 1.350 . S
C777 N785 1.427 . S
C778 H769 0.930 . S
C778 C776 1.378 . S
C778 C779 1.367 . S
C779 C778 1.367 . S
C779 C781 1.433 . S
C780 C776 1.350 . S
C780 C777 1.463 . S
C780 N784 1.427 . S
C781 H771 0.929 . S
C781 C779 1.433 . S
C781 N784 1.384 . S
C782 H773 0.929 . S
C782 C774 1.378 . S
C782 C777 1.350 . S
C783 H770 0.929 . S
C783 C775 1.433 . S
C783 N785 1.384 . S
N784 C780 1.427 . S
N784 C781 1.384 . S
N785 C777 1.427 . S
N785 C783 1.384 . S
H786 C792 0.930 . S
H787 C796 0.930 . S
H788 C801 0.929 . S
H789 C799 0.929 . S
H790 C794 0.929 . S
H791 C800 0.929 . S
C792 H786 0.930 . S
C792 C793 1.367 . S
C792 C800 1.378 . S
C793 C792 1.367 . S
C793 C801 1.433 . S
C794 H790 0.929 . S
C794 C796 1.378 . S
C794 C798 1.350 . S
C795 C798 1.463 . S
C795 C800 1.350 . S
C795 N803 1.427 . S
C796 H787 0.930 . S
C796 C794 1.378 . S
C796 C797 1.367 . S
C797 C796 1.367 . S
C797 C799 1.433 . S
C798 C794 1.350 . S
C798 C795 1.463 . S
C798 N802 1.427 . S
C799 H789 0.929 . S
C799 C797 1.433 . S
C799 N802 1.384 . S
C800 H791 0.929 . S
C800 C792 1.378 . S
C800 C795 1.350 . S
C801 H788 0.929 . S
C801 C793 1.433 . S
C801 N803 1.384 . S
N802 C798 1.427 . S
N802 C799 1.384 . S
N803 C795 1.427 . S
N803 C801 1.384 . S
H804 C810 0.930 . S
H805 C814 0.930 . S
H806 C819 0.929 . S
H807 C817 0.929 . S
H808 C812 0.929 . S
H809 C818 0.929 . S
C810 H804 0.930 . S
C810 C811 1.367 . S
C810 C818 1.378 . S
C811 C810 1.367 . S
C811 C819 1.433 . S
C812 H808 0.929 . S
C812 C814 1.378 . S
C812 C816 1.350 . S
C813 C816 1.463 . S
C813 C818 1.350 . S
C813 N821 1.427 . S
C814 H805 0.930 . S
C814 C812 1.378 . S
C814 C815 1.367 . S
C815 C814 1.367 . S
C815 C817 1.433 . S
C816 C812 1.350 . S
C816 C813 1.463 . S
C816 N820 1.427 . S
C817 H807 0.929 . S
C817 C815 1.433 . S
C817 N820 1.384 . S
C818 H809 0.929 . S
C818 C810 1.378 . S
C818 C813 1.350 . S
C819 H806 0.929 . S
C819 C811 1.433 . S
C819 N821 1.384 . S
N820 C816 1.427 . S
N820 C817 1.384 . S
N821 C813 1.427 . S
N821 C819 1.384 . S
H822 C828 0.930 . S
H823 C832 0.930 . S
H824 C837 0.929 . S
H825 C835 0.929 . S
H826 C830 0.929 . S
H827 C836 0.929 . S
C828 H822 0.930 . S
C828 C829 1.367 . S
C828 C836 1.378 . S
C829 C828 1.367 . S
C829 C837 1.433 . S
C830 H826 0.929 . S
C830 C832 1.378 . S
C830 C834 1.350 . S
C831 C834 1.463 . S
C831 C836 1.350 . S
C831 N839 1.427 . S
C832 H823 0.930 . S
C832 C830 1.378 . S
C832 C833 1.367 . S
C833 C832 1.367 . S
C833 C835 1.433 . S
C834 C830 1.350 . S
C834 C831 1.463 . S
C834 N838 1.427 . S
C835 H825 0.929 . S
C835 C833 1.433 . S
C835 N838 1.384 . S
C836 H827 0.929 . S
C836 C828 1.378 . S
C836 C831 1.350 . S
C837 H824 0.929 . S
C837 C829 1.433 . S
C837 N839 1.384 . S
N838 C834 1.427 . S
N838 C835 1.384 . S
N839 C831 1.427 . S
N839 C837 1.384 . S
H840 C846 0.930 . S
H841 C850 0.930 . S
H842 C855 0.929 . S
H843 C853 0.929 . S
H844 C848 0.929 . S
H845 C854 0.929 . S
C846 H840 0.930 . S
C846 C847 1.367 . S
C846 C854 1.378 . S
C847 C846 1.367 . S
C847 C855 1.433 . S
C848 H844 0.929 . S
C848 C850 1.378 . S
C848 C852 1.350 . S
C849 C852 1.463 . S
C849 C854 1.350 . S
C849 N857 1.427 . S
C850 H841 0.930 . S
C850 C848 1.378 . S
C850 C851 1.367 . S
C851 C850 1.367 . S
C851 C853 1.433 . S
C852 C848 1.350 . S
C852 C849 1.463 . S
C852 N856 1.427 . S
C853 H843 0.929 . S
C853 C851 1.433 . S
C853 N856 1.384 . S
C854 H845 0.929 . S
C854 C846 1.378 . S
C854 C849 1.350 . S
C855 H842 0.929 . S
C855 C847 1.433 . S
C855 N857 1.384 . S
N856 C852 1.427 . S
N856 C853 1.384 . S
N857 C849 1.427 . S
N857 C855 1.384 . S
H858 C864 0.930 . S
H859 C868 0.930 . S
H860 C873 0.929 . S
H861 C871 0.929 . S
H862 C866 0.929 . S
H863 C872 0.929 . S
C864 H858 0.930 . S
C864 C865 1.367 . S
C864 C872 1.378 . S
C865 C864 1.367 . S
C865 C873 1.433 . S
C866 H862 0.929 . S
C866 C868 1.378 . S
C866 C870 1.350 . S
C867 C870 1.463 . S
C867 C872 1.350 . S
C867 N875 1.427 . S
C868 H859 0.930 . S
C868 C866 1.378 . S
C868 C869 1.367 . S
C869 C868 1.367 . S
C869 C871 1.433 . S
C870 C866 1.350 . S
C870 C867 1.463 . S
C870 N874 1.427 . S
C871 H861 0.929 . S
C871 C869 1.433 . S
C871 N874 1.384 . S
C872 H863 0.929 . S
C872 C864 1.378 . S
C872 C867 1.350 . S
C873 H860 0.929 . S
C873 C865 1.433 . S
C873 N875 1.384 . S
N874 C870 1.427 . S
N874 C871 1.384 . S
N875 C867 1.427 . S
N875 C873 1.384 . S
H876 C882 0.930 . S
H877 C886 0.930 . S
H878 C891 0.929 . S
H879 C889 0.929 . S
H880 C884 0.929 . S
H881 C890 0.929 . S
C882 H876 0.930 . S
C882 C883 1.367 . S
C882 C890 1.378 . S
C883 C882 1.367 . S
C883 C891 1.433 . S
C884 H880 0.929 . S
C884 C886 1.378 . S
C884 C888 1.350 . S
C885 C888 1.463 . S
C885 C890 1.350 . S
C885 N893 1.427 . S
C886 H877 0.930 . S
C886 C884 1.378 . S
C886 C887 1.367 . S
C887 C886 1.367 . S
C887 C889 1.433 . S
C888 C884 1.350 . S
C888 C885 1.463 . S
C888 N892 1.427 . S
C889 H879 0.929 . S
C889 C887 1.433 . S
C889 N892 1.384 . S
C890 H881 0.929 . S
C890 C882 1.378 . S
C890 C885 1.350 . S
C891 H878 0.929 . S
C891 C883 1.433 . S
C891 N893 1.384 . S
N892 C888 1.427 . S
N892 C889 1.384 . S
N893 C885 1.427 . S
N893 C891 1.384 . S
H894 C900 0.930 . S
H895 C904 0.930 . S
H896 C909 0.929 . S
H897 C907 0.929 . S
H898 C902 0.929 . S
H899 C908 0.929 . S
C900 H894 0.930 . S
C900 C901 1.367 . S
C900 C908 1.378 . S
C901 C900 1.367 . S
C901 C909 1.433 . S
C902 H898 0.929 . S
C902 C904 1.378 . S
C902 C906 1.350 . S
C903 C906 1.463 . S
C903 C908 1.350 . S
C903 N911 1.427 . S
C904 H895 0.930 . S
C904 C902 1.378 . S
C904 C905 1.367 . S
C905 C904 1.367 . S
C905 C907 1.433 . S
C906 C902 1.350 . S
C906 C903 1.463 . S
C906 N910 1.427 . S
C907 H897 0.929 . S
C907 C905 1.433 . S
C907 N910 1.384 . S
C908 H899 0.929 . S
C908 C900 1.378 . S
C908 C903 1.350 . S
C909 H896 0.929 . S
C909 C901 1.433 . S
C909 N911 1.384 . S
N910 C906 1.427 . S
N910 C907 1.384 . S
N911 C903 1.427 . S
N911 C909 1.384 . S
H912 C918 0.930 . S
H913 C922 0.930 . S
H914 C927 0.929 . S
H915 C925 0.929 . S
H916 C920 0.929 . S
H917 C926 0.929 . S
C918 H912 0.930 . S
C918 C919 1.367 . S
C918 C926 1.378 . S
C919 C918 1.367 . S
C919 C927 1.433 . S
C920 H916 0.929 . S
C920 C922 1.378 . S
C920 C924 1.350 . S
C921 C924 1.463 . S
C921 C926 1.350 . S
C921 N929 1.427 . S
C922 H913 0.930 . S
C922 C920 1.378 . S
C922 C923 1.367 . S
C923 C922 1.367 . S
C923 C925 1.433 . S
C924 C920 1.350 . S
C924 C921 1.463 . S
C924 N928 1.427 . S
C925 H915 0.929 . S
C925 C923 1.433 . S
C925 N928 1.384 . S
C926 H917 0.929 . S
C926 C918 1.378 . S
C926 C921 1.350 . S
C927 H914 0.929 . S
C927 C919 1.433 . S
C927 N929 1.384 . S
N928 C924 1.427 . S
N928 C925 1.384 . S
N929 C921 1.427 . S
N929 C927 1.384 . S
H930 C936 0.930 . S
H931 C940 0.930 . S
H932 C945 0.929 . S
H933 C943 0.929 . S
H934 C938 0.929 . S
H935 C944 0.929 . S
C936 H930 0.930 . S
C936 C937 1.367 . S
C936 C944 1.378 . S
C937 C936 1.367 . S
C937 C945 1.433 . S
C938 H934 0.929 . S
C938 C940 1.378 . S
C938 C942 1.350 . S
C939 C942 1.463 . S
C939 C944 1.350 . S
C939 N947 1.427 . S
C940 H931 0.930 . S
C940 C938 1.378 . S
C940 C941 1.367 . S
C941 C940 1.367 . S
C941 C943 1.433 . S
C942 C938 1.350 . S
C942 C939 1.463 . S
C942 N946 1.427 . S
C943 H933 0.929 . S
C943 C941 1.433 . S
C943 N946 1.384 . S
C944 H935 0.929 . S
C944 C936 1.378 . S
C944 C939 1.350 . S
C945 H932 0.929 . S
C945 C937 1.433 . S
C945 N947 1.384 . S
N946 C942 1.427 . S
N946 C943 1.384 . S
N947 C939 1.427 . S
N947 C945 1.384 . S
H948 C954 0.930 . S
H949 C958 0.930 . S
H950 C963 0.929 . S
H951 C961 0.929 . S
H952 C956 0.929 . S
H953 C962 0.929 . S
C954 H948 0.930 . S
C954 C955 1.367 . S
C954 C962 1.378 . S
C955 C954 1.367 . S
C955 C963 1.433 . S
C956 H952 0.929 . S
C956 C958 1.378 . S
C956 C960 1.350 . S
C957 C960 1.463 . S
C957 C962 1.350 . S
C957 N965 1.427 . S
C958 H949 0.930 . S
C958 C956 1.378 . S
C958 C959 1.367 . S
C959 C958 1.367 . S
C959 C961 1.433 . S
C960 C956 1.350 . S
C960 C957 1.463 . S
C960 N964 1.427 . S
C961 H951 0.929 . S
C961 C959 1.433 . S
C961 N964 1.384 . S
C962 H953 0.929 . S
C962 C954 1.378 . S
C962 C957 1.350 . S
C963 H950 0.929 . S
C963 C955 1.433 . S
C963 N965 1.384 . S
N964 C960 1.427 . S
N964 C961 1.384 . S
N965 C957 1.427 . S
N965 C963 1.384 . S
H966 C972 0.930 . S
H967 C976 0.930 . S
H968 C981 0.929 . S
H969 C979 0.929 . S
H970 C974 0.929 . S
H971 C980 0.929 . S
C972 H966 0.930 . S
C972 C973 1.367 . S
C972 C980 1.378 . S
C973 C972 1.367 . S
C973 C981 1.433 . S
C974 H970 0.929 . S
C974 C976 1.378 . S
C974 C978 1.350 . S
C975 C978 1.463 . S
C975 C980 1.350 . S
C975 N983 1.427 . S
C976 H967 0.930 . S
C976 C974 1.378 . S
C976 C977 1.367 . S
C977 C976 1.367 . S
C977 C979 1.433 . S
C978 C974 1.350 . S
C978 C975 1.463 . S
C978 N982 1.427 . S
C979 H969 0.929 . S
C979 C977 1.433 . S
C979 N982 1.384 . S
C980 H971 0.929 . S
C980 C972 1.378 . S
C980 C975 1.350 . S
C981 H968 0.929 . S
C981 C973 1.433 . S
C981 N983 1.384 . S
N982 C978 1.427 . S
N982 C979 1.384 . S
N983 C975 1.427 . S
N983 C981 1.384 . S
H984 C990 0.930 . S
H985 C994 0.930 . S
H986 C999 0.929 . S
H987 C997 0.929 . S
H988 C992 0.929 . S
H989 C998 0.929 . S
C990 H984 0.930 . S
C990 C991 1.367 . S
C990 C998 1.378 . S
C991 C990 1.367 . S
C991 C999 1.433 . S
C992 H988 0.929 . S
C992 C994 1.378 . S
C992 C996 1.350 . S
C993 C996 1.463 . S
C993 C998 1.350 . S
C993 N1001 1.427 . S
C994 H985 0.930 . S
C994 C992 1.378 . S
C994 C995 1.367 . S
C995 C994 1.367 . S
C995 C997 1.433 . S
C996 C992 1.350 . S
C996 C993 1.463 . S
C996 N1000 1.427 . S
C997 H987 0.929 . S
C997 C995 1.433 . S
C997 N1000 1.384 . S
C998 H989 0.929 . S
C998 C990 1.378 . S
C998 C993 1.350 . S
C999 H986 0.929 . S
C999 C991 1.433 . S
C999 N1001 1.384 . S
N1000 C996 1.427 . S
N1000 C997 1.384 . S
N1001 C993 1.427 . S
N1001 C999 1.384 . S
H1002 C1008 0.930 . S
H1003 C1012 0.930 . S
H1004 C1017 0.929 . S
H1005 C1015 0.929 . S
H1006 C1010 0.929 . S
H1007 C1016 0.929 . S
C1008 H1002 0.930 . S
C1008 C1009 1.367 . S
C1008 C1016 1.378 . S
C1009 C1008 1.367 . S
C1009 C1017 1.433 . S
C1010 H1006 0.929 . S
C1010 C1012 1.378 . S
C1010 C1014 1.350 . S
C1011 C1014 1.463 . S
C1011 C1016 1.350 . S
C1011 N1019 1.427 . S
C1012 H1003 0.930 . S
C1012 C1010 1.378 . S
C1012 C1013 1.367 . S
C1013 C1012 1.367 . S
C1013 C1015 1.433 . S
C1014 C1010 1.350 . S
C1014 C1011 1.463 . S
C1014 N1018 1.427 . S
C1015 H1005 0.929 . S
C1015 C1013 1.433 . S
C1015 N1018 1.384 . S
C1016 H1007 0.929 . S
C1016 C1008 1.378 . S
C1016 C1011 1.350 . S
C1017 H1004 0.929 . S
C1017 C1009 1.433 . S
C1017 N1019 1.384 . S
N1018 C1014 1.427 . S
N1018 C1015 1.384 . S
N1019 C1011 1.427 . S
N1019 C1017 1.384 . S
H1020 C1026 0.930 . S
H1021 C1030 0.930 . S
H1022 C1035 0.929 . S
H1023 C1033 0.929 . S
H1024 C1028 0.929 . S
H1025 C1034 0.929 . S
C1026 H1020 0.930 . S
C1026 C1027 1.367 . S
C1026 C1034 1.378 . S
C1027 C1026 1.367 . S
C1027 C1035 1.433 . S
C1028 H1024 0.929 . S
C1028 C1030 1.378 . S
C1028 C1032 1.350 . S
C1029 C1032 1.463 . S
C1029 C1034 1.350 . S
C1029 N1037 1.427 . S
C1030 H1021 0.930 . S
C1030 C1028 1.378 . S
C1030 C1031 1.367 . S
C1031 C1030 1.367 . S
C1031 C1033 1.433 . S
C1032 C1028 1.350 . S
C1032 C1029 1.463 . S
C1032 N1036 1.427 . S
C1033 H1023 0.929 . S
C1033 C1031 1.433 . S
C1033 N1036 1.384 . S
C1034 H1025 0.929 . S
C1034 C1026 1.378 . S
C1034 C1029 1.350 . S
C1035 H1022 0.929 . S
C1035 C1027 1.433 . S
C1035 N1037 1.384 . S
N1036 C1032 1.427 . S
N1036 C1033 1.384 . S
N1037 C1029 1.427 . S
N1037 C1035 1.384 . S
H1038 C1044 0.930 . S
H1039 C1048 0.930 . S
H1040 C1053 0.929 . S
H1041 C1051 0.929 . S
H1042 C1046 0.929 . S
H1043 C1052 0.929 . S
C1044 H1038 0.930 . S
C1044 C1045 1.367 . S
C1044 C1052 1.378 . S
C1045 C1044 1.367 . S
C1045 C1053 1.433 . S
C1046 H1042 0.929 . S
C1046 C1048 1.378 1_556 S
C1046 C1050 1.350 . S
C1047 C1050 1.458 . S
C1047 C1052 1.350 . S
C1047 N1055 1.427 . S
C1048 H1039 0.930 . S
C1048 C1046 1.378 1_554 S
C1048 C1049 1.367 . S
C1049 C1048 1.367 . S
C1049 C1051 1.433 . S
C1050 C1046 1.350 . S
C1050 C1047 1.458 . S
C1050 N1054 1.432 1_556 S
C1051 H1041 0.929 . S
C1051 C1049 1.433 . S
C1051 N1054 1.384 . S
C1052 H1043 0.929 . S
C1052 C1044 1.378 . S
C1052 C1047 1.350 . S
C1053 H1040 0.929 . S
C1053 C1045 1.433 . S
C1053 N1055 1.384 . S
N1054 C1050 1.432 1_554 S
N1054 C1051 1.384 . S
N1055 C1047 1.427 . S
N1055 C1053 1.384 . S
H1056 C1062 0.930 . S
H1057 C1066 0.930 . S
H1058 C1071 0.929 . S
H1059 C1069 0.929 . S
H1060 C1064 0.929 . S
H1061 C1070 0.929 . S
C1062 H1056 0.930 . S
C1062 C1063 1.367 . S
C1062 C1070 1.378 . S
C1063 C1062 1.367 . S
C1063 C1071 1.433 . S
C1064 H1060 0.929 . S
C1064 C1066 1.378 . S
C1064 C1068 1.350 . S
C1065 C1068 1.463 . S
C1065 C1070 1.350 . S
C1065 N1073 1.427 . S
C1066 H1057 0.930 . S
C1066 C1064 1.378 . S
C1066 C1067 1.367 . S
C1067 C1066 1.367 . S
C1067 C1069 1.433 . S
C1068 C1064 1.350 . S
C1068 C1065 1.463 . S
C1068 N1072 1.427 . S
C1069 H1059 0.929 . S
C1069 C1067 1.433 . S
C1069 N1072 1.384 . S
C1070 H1061 0.929 . S
C1070 C1062 1.378 . S
C1070 C1065 1.350 . S
C1071 H1058 0.929 . S
C1071 C1063 1.433 . S
C1071 N1073 1.384 . S
N1072 C1068 1.427 . S
N1072 C1069 1.384 . S
N1073 C1065 1.427 . S
N1073 C1071 1.384 . S
H1074 C1080 0.930 . S
H1075 C1084 0.930 . S
H1076 C1089 0.929 . S
H1077 C1087 0.929 . S
H1078 C1082 0.929 . S
H1079 C1088 0.929 . S
C1080 H1074 0.930 . S
C1080 C1081 1.367 . S
C1080 C1088 1.378 . S
C1081 C1080 1.367 . S
C1081 C1089 1.433 . S
C1082 H1078 0.929 . S
C1082 C1084 1.378 . S
C1082 C1086 1.350 . S
C1083 C1086 1.463 . S
C1083 C1088 1.350 . S
C1083 N1091 1.427 . S
C1084 H1075 0.930 . S
C1084 C1082 1.378 . S
C1084 C1085 1.367 . S
C1085 C1084 1.367 . S
C1085 C1087 1.433 . S
C1086 C1082 1.350 . S
C1086 C1083 1.463 . S
C1086 N1090 1.427 . S
C1087 H1077 0.929 . S
C1087 C1085 1.433 . S
C1087 N1090 1.384 . S
C1088 H1079 0.929 . S
C1088 C1080 1.378 . S
C1088 C1083 1.350 . S
C1089 H1076 0.929 . S
C1089 C1081 1.433 . S
C1089 N1091 1.384 . S
N1090 C1086 1.427 . S
N1090 C1087 1.384 . S
N1091 C1083 1.427 . S
N1091 C1089 1.384 . S
H1092 C1098 0.930 . S
H1093 C1102 0.930 . S
H1094 C1107 0.929 . S
H1095 C1105 0.929 . S
H1096 C1100 0.929 . S
H1097 C1106 0.929 . S
C1098 H1092 0.930 . S
C1098 C1099 1.367 . S
C1098 C1106 1.378 . S
C1099 C1098 1.367 . S
C1099 C1107 1.433 . S
C1100 H1096 0.929 . S
C1100 C1102 1.378 . S
C1100 C1104 1.350 . S
C1101 C1104 1.463 . S
C1101 C1106 1.350 . S
C1101 N1109 1.427 . S
C1102 H1093 0.930 . S
C1102 C1100 1.378 . S
C1102 C1103 1.367 . S
C1103 C1102 1.367 . S
C1103 C1105 1.433 . S
C1104 C1100 1.350 . S
C1104 C1101 1.463 . S
C1104 N1108 1.427 . S
C1105 H1095 0.929 . S
C1105 C1103 1.433 . S
C1105 N1108 1.384 . S
C1106 H1097 0.929 . S
C1106 C1098 1.378 . S
C1106 C1101 1.350 . S
C1107 H1094 0.929 . S
C1107 C1099 1.433 . S
C1107 N1109 1.384 . S
N1108 C1104 1.427 . S
N1108 C1105 1.384 . S
N1109 C1101 1.427 . S
N1109 C1107 1.384 . S
H1110 C1116 0.930 . S
H1111 C1120 0.930 . S
H1112 C1125 0.929 . S
H1113 C1123 0.929 . S
H1114 C1118 0.929 . S
H1115 C1124 0.929 . S
C1116 H1110 0.930 . S
C1116 C1117 1.367 . S
C1116 C1124 1.378 . S
C1117 C1116 1.367 . S
C1117 C1125 1.433 . S
C1118 H1114 0.929 . S
C1118 C1120 1.378 . S
C1118 C1122 1.350 . S
C1119 C1122 1.463 . S
C1119 C1124 1.350 . S
C1119 N1127 1.427 . S
C1120 H1111 0.930 . S
C1120 C1118 1.378 . S
C1120 C1121 1.367 . S
C1121 C1120 1.367 . S
C1121 C1123 1.433 . S
C1122 C1118 1.350 . S
C1122 C1119 1.463 . S
C1122 N1126 1.427 . S
C1123 H1113 0.929 . S
C1123 C1121 1.433 . S
C1123 N1126 1.384 . S
C1124 H1115 0.929 . S
C1124 C1116 1.378 . S
C1124 C1119 1.350 . S
C1125 H1112 0.929 . S
C1125 C1117 1.433 . S
C1125 N1127 1.384 . S
N1126 C1122 1.427 . S
N1126 C1123 1.384 . S
N1127 C1119 1.427 . S
N1127 C1125 1.384 . S
H1128 C1134 0.930 . S
H1129 C1138 0.930 . S
H1130 C1143 0.929 . S
H1131 C1141 0.929 . S
H1132 C1136 0.929 . S
H1133 C1142 0.929 . S
C1134 H1128 0.930 . S
C1134 C1135 1.367 . S
C1134 C1142 1.378 . S
C1135 C1134 1.367 . S
C1135 C1143 1.433 . S
C1136 H1132 0.929 . S
C1136 C1138 1.378 . S
C1136 C1140 1.350 . S
C1137 C1140 1.463 . S
C1137 C1142 1.350 . S
C1137 N1145 1.427 . S
C1138 H1129 0.930 . S
C1138 C1136 1.378 . S
C1138 C1139 1.367 . S
C1139 C1138 1.367 . S
C1139 C1141 1.433 . S
C1140 C1136 1.350 . S
C1140 C1137 1.463 . S
C1140 N1144 1.427 . S
C1141 H1131 0.929 . S
C1141 C1139 1.433 . S
C1141 N1144 1.384 . S
C1142 H1133 0.929 . S
C1142 C1134 1.378 . S
C1142 C1137 1.350 . S
C1143 H1130 0.929 . S
C1143 C1135 1.433 . S
C1143 N1145 1.384 . S
N1144 C1140 1.427 . S
N1144 C1141 1.384 . S
N1145 C1137 1.427 . S
N1145 C1143 1.384 . S
H1146 C1152 0.930 . S
H1147 C1156 0.930 . S
H1148 C1161 0.929 . S
H1149 C1159 0.929 . S
H1150 C1154 0.929 . S
H1151 C1160 0.929 . S
C1152 H1146 0.930 . S
C1152 C1153 1.367 . S
C1152 C1160 1.378 . S
C1153 C1152 1.367 . S
C1153 C1161 1.433 . S
C1154 H1150 0.929 . S
C1154 C1156 1.378 . S
C1154 C1158 1.350 . S
C1155 C1158 1.463 . S
C1155 C1160 1.350 . S
C1155 N1163 1.427 . S
C1156 H1147 0.930 . S
C1156 C1154 1.378 . S
C1156 C1157 1.367 . S
C1157 C1156 1.367 . S
C1157 C1159 1.433 . S
C1158 C1154 1.350 . S
C1158 C1155 1.463 . S
C1158 N1162 1.427 . S
C1159 H1149 0.929 . S
C1159 C1157 1.433 . S
C1159 N1162 1.384 . S
C1160 H1151 0.929 . S
C1160 C1152 1.378 . S
C1160 C1155 1.350 . S
C1161 H1148 0.929 . S
C1161 C1153 1.433 . S
C1161 N1163 1.384 . S
N1162 C1158 1.427 . S
N1162 C1159 1.384 . S
N1163 C1155 1.427 . S
N1163 C1161 1.384 . S
H1164 C1170 0.930 . S
H1165 C1174 0.930 . S
H1166 C1179 0.929 . S
H1167 C1177 0.929 . S
H1168 C1172 0.929 1_554 S
H1169 C1178 0.882 1_556 S
C1170 H1164 0.930 . S
C1170 C1171 1.367 . S
C1170 C1178 1.417 . S
C1171 C1170 1.367 . S
C1171 C1179 1.433 . S
C1172 H1168 0.929 1_556 S
C1172 C1174 1.378 . S
C1172 C1176 1.350 . S
C1173 C1176 1.463 1_554 S
C1173 C1178 1.360 . S
C1173 N1181 1.427 . S
C1174 H1165 0.930 . S
C1174 C1172 1.378 . S
C1174 C1175 1.367 . S
C1175 C1174 1.367 . S
C1175 C1177 1.433 . S
C1176 C1172 1.350 . S
C1176 C1173 1.463 1_556 S
C1176 N1180 1.427 . S
C1177 H1167 0.929 . S
C1177 C1175 1.433 . S
C1177 N1180 1.384 . S
C1178 H1169 0.882 1_554 S
C1178 C1170 1.417 . S
C1178 C1173 1.360 . S
C1179 H1166 0.929 . S
C1179 C1171 1.433 . S
C1179 N1181 1.384 . S
N1180 C1176 1.427 . S
N1180 C1177 1.384 . S
N1181 C1173 1.427 . S
N1181 C1179 1.384 . S
H1182 C1188 0.930 . S
H1183 C1192 0.930 . S
H1184 C1197 0.929 . S
H1185 C1195 0.929 . S
H1186 C1190 0.929 . S
H1187 C1196 0.929 . S
C1188 H1182 0.930 . S
C1188 C1189 1.367 . S
C1188 C1196 1.378 . S
C1189 C1188 1.367 . S
C1189 C1197 1.433 . S
C1190 H1186 0.929 . S
C1190 C1192 1.378 . S
C1190 C1194 1.350 . S
C1191 C1194 1.463 . S
C1191 C1196 1.350 . S
C1191 N1199 1.427 . S
C1192 H1183 0.930 . S
C1192 C1190 1.378 . S
C1192 C1193 1.367 . S
C1193 C1192 1.367 . S
C1193 C1195 1.433 . S
C1194 C1190 1.350 . S
C1194 C1191 1.463 . S
C1194 N1198 1.427 . S
C1195 H1185 0.929 . S
C1195 C1193 1.433 . S
C1195 N1198 1.384 . S
C1196 H1187 0.929 . S
C1196 C1188 1.378 . S
C1196 C1191 1.350 . S
C1197 H1184 0.929 . S
C1197 C1189 1.433 . S
C1197 N1199 1.384 . S
N1198 C1194 1.427 . S
N1198 C1195 1.384 . S
N1199 C1191 1.427 . S
N1199 C1197 1.384 . S
C779 C761 1.955 . S
C775 C1 1.507 . S
C793 C169 1.059 . S
C797 C690 1.509 . S
C811 C283 1.762 . S
C815 C704 2.050 . S
C829 C397 0.942 . S
C833 C718 1.388 . S
C851 C732 1.823 . S
C847 C457 1.373 . S
C865 C571 1.145 . S
C869 C747 1.313 . S
C883 C115 1.215 . S
C887 C705 1.412 . S
C901 C229 1.396 . S
C905 C719 1.824 . S
C919 C343 1.181 . S
C923 C733 1.293 . S
C941 C746 1.917 . S
C937 C511 1.634 . S
C959 C760 1.483 . S
C955 C625 1.000 . S
C977 C691 2.066 . S
C973 C55 1.781 . S
C991 C29 1.117 . S
C995 C707 1.477 . S
C1009 C125 1.167 . S
C1013 C721 1.951 . S
C1031 C735 1.484 . S
C1027 C239 0.977 . S
C1045 C353 1.129 . S
C1049 C748 1.900 . S
C1067 C762 1.425 . S
C1063 C485 1.089 . S
C1085 C693 1.884 . S
C1081 C599 1.730 . S
C1103 C763 1.867 . S
C1099 C143 1.729 . S
C1117 C257 1.101 . S
C1121 C692 1.488 . S
C1139 C706 1.821 . S
C1135 C371 1.671 . S
C1153 C467 0.992 . S
C1157 C720 1.487 . S
C1171 C581 1.107 . S
C1175 C734 1.893 . S
C1189 C11 1.019 . S
C1193 C749 1.543 . S
