# Generated by pormake.
# Topology eea, (3,6)-cn, num edge types: 1
# Building blocks:
#     Node 0, Type 0, BuildingBlock: CUQRIR_clean_linker_1, # of connection points: 3
#     Node 1, Type 0, BuildingBlock: CUQRIR_clean_linker_1, # of connection points: 3
#     Node 2, Type 0, BuildingBlock: CUQRIR_clean_linker_1, # of connection points: 3
#     Node 3, Type 0, BuildingBlock: CUQRIR_clean_linker_1, # of connection points: 3
#     Node 4, Type 0, BuildingBlock: CUQRIR_clean_linker_1, # of connection points: 3
#     Node 5, Type 0, BuildingBlock: CUQRIR_clean_linker_1, # of connection points: 3
#     Node 6, Type 0, BuildingBlock: CUQRIR_clean_linker_1, # of connection points: 3
#     Node 7, Type 0, BuildingBlock: CUQRIR_clean_linker_1, # of connection points: 3
#     Node 8, Type 0, BuildingBlock: CUQRIR_clean_linker_1, # of connection points: 3
#     Node 9, Type 0, BuildingBlock: CUQRIR_clean_linker_1, # of connection points: 3
#     Node 10, Type 0, BuildingBlock: CUQRIR_clean_linker_1, # of connection points: 3
#     Node 11, Type 0, BuildingBlock: CUQRIR_clean_linker_1, # of connection points: 3
#     Node 12, Type 0, BuildingBlock: CUQRIR_clean_linker_1, # of connection points: 3
#     Node 13, Type 0, BuildingBlock: CUQRIR_clean_linker_1, # of connection points: 3
#     Node 14, Type 0, BuildingBlock: CUQRIR_clean_linker_1, # of connection points: 3
#     Node 15, Type 0, BuildingBlock: CUQRIR_clean_linker_1, # of connection points: 3
#     Node 16, Type 0, BuildingBlock: CUQRIR_clean_linker_1, # of connection points: 3
#     Node 17, Type 0, BuildingBlock: CUQRIR_clean_linker_1, # of connection points: 3
#     Node 18, Type 1, BuildingBlock: NUHQIS_clean_sbu_0, # of connection points: 6
#     Node 19, Type 1, BuildingBlock: NUHQIS_clean_sbu_0, # of connection points: 6
#     Node 20, Type 1, BuildingBlock: NUHQIS_clean_sbu_0, # of connection points: 6
#     Node 21, Type 1, BuildingBlock: NUHQIS_clean_sbu_0, # of connection points: 6
#     Node 22, Type 1, BuildingBlock: NUHQIS_clean_sbu_0, # of connection points: 6
#     Node 23, Type 1, BuildingBlock: NUHQIS_clean_sbu_0, # of connection points: 6
#     Node 24, Type 1, BuildingBlock: NUHQIS_clean_sbu_0, # of connection points: 6
#     Node 25, Type 1, BuildingBlock: NUHQIS_clean_sbu_0, # of connection points: 6
#     Node 26, Type 1, BuildingBlock: NUHQIS_clean_sbu_0, # of connection points: 6
#     Edge 27, Type (0, 1), BuildingBlock: KIFKEQ_clean_linker_1, # of connection points: 2
#     Edge 28, Type (0, 1), BuildingBlock: KIFKEQ_clean_linker_1, # of connection points: 2
#     Edge 29, Type (0, 1), BuildingBlock: KIFKEQ_clean_linker_1, # of connection points: 2
#     Edge 30, Type (0, 1), BuildingBlock: KIFKEQ_clean_linker_1, # of connection points: 2
#     Edge 31, Type (0, 1), BuildingBlock: KIFKEQ_clean_linker_1, # of connection points: 2
#     Edge 32, Type (0, 1), BuildingBlock: KIFKEQ_clean_linker_1, # of connection points: 2
#     Edge 33, Type (0, 1), BuildingBlock: KIFKEQ_clean_linker_1, # of connection points: 2
#     Edge 34, Type (0, 1), BuildingBlock: KIFKEQ_clean_linker_1, # of connection points: 2
#     Edge 35, Type (0, 1), BuildingBlock: KIFKEQ_clean_linker_1, # of connection points: 2
#     Edge 36, Type (0, 1), BuildingBlock: KIFKEQ_clean_linker_1, # of connection points: 2
#     Edge 37, Type (0, 1), BuildingBlock: KIFKEQ_clean_linker_1, # of connection points: 2
#     Edge 38, Type (0, 1), BuildingBlock: KIFKEQ_clean_linker_1, # of connection points: 2
#     Edge 39, Type (0, 1), BuildingBlock: KIFKEQ_clean_linker_1, # of connection points: 2
#     Edge 40, Type (0, 1), BuildingBlock: KIFKEQ_clean_linker_1, # of connection points: 2
#     Edge 41, Type (0, 1), BuildingBlock: KIFKEQ_clean_linker_1, # of connection points: 2
#     Edge 42, Type (0, 1), BuildingBlock: KIFKEQ_clean_linker_1, # of connection points: 2
#     Edge 43, Type (0, 1), BuildingBlock: KIFKEQ_clean_linker_1, # of connection points: 2
#     Edge 44, Type (0, 1), BuildingBlock: KIFKEQ_clean_linker_1, # of connection points: 2
#     Edge 45, Type (0, 1), BuildingBlock: KIFKEQ_clean_linker_1, # of connection points: 2
#     Edge 46, Type (0, 1), BuildingBlock: KIFKEQ_clean_linker_1, # of connection points: 2
#     Edge 47, Type (0, 1), BuildingBlock: KIFKEQ_clean_linker_1, # of connection points: 2
#     Edge 48, Type (0, 1), BuildingBlock: KIFKEQ_clean_linker_1, # of connection points: 2
#     Edge 49, Type (0, 1), BuildingBlock: KIFKEQ_clean_linker_1, # of connection points: 2
#     Edge 50, Type (0, 1), BuildingBlock: KIFKEQ_clean_linker_1, # of connection points: 2
#     Edge 51, Type (0, 1), BuildingBlock: KIFKEQ_clean_linker_1, # of connection points: 2
#     Edge 52, Type (0, 1), BuildingBlock: KIFKEQ_clean_linker_1, # of connection points: 2
#     Edge 53, Type (0, 1), BuildingBlock: KIFKEQ_clean_linker_1, # of connection points: 2
#     Edge 54, Type (0, 1), BuildingBlock: KIFKEQ_clean_linker_1, # of connection points: 2
#     Edge 55, Type (0, 1), BuildingBlock: KIFKEQ_clean_linker_1, # of connection points: 2
#     Edge 56, Type (0, 1), BuildingBlock: KIFKEQ_clean_linker_1, # of connection points: 2
#     Edge 57, Type (0, 1), BuildingBlock: KIFKEQ_clean_linker_1, # of connection points: 2
#     Edge 58, Type (0, 1), BuildingBlock: KIFKEQ_clean_linker_1, # of connection points: 2
#     Edge 59, Type (0, 1), BuildingBlock: KIFKEQ_clean_linker_1, # of connection points: 2
#     Edge 60, Type (0, 1), BuildingBlock: KIFKEQ_clean_linker_1, # of connection points: 2
#     Edge 61, Type (0, 1), BuildingBlock: KIFKEQ_clean_linker_1, # of connection points: 2
#     Edge 62, Type (0, 1), BuildingBlock: KIFKEQ_clean_linker_1, # of connection points: 2
#     Edge 63, Type (0, 1), BuildingBlock: KIFKEQ_clean_linker_1, # of connection points: 2
#     Edge 64, Type (0, 1), BuildingBlock: KIFKEQ_clean_linker_1, # of connection points: 2
#     Edge 65, Type (0, 1), BuildingBlock: KIFKEQ_clean_linker_1, # of connection points: 2
#     Edge 66, Type (0, 1), BuildingBlock: KIFKEQ_clean_linker_1, # of connection points: 2
#     Edge 67, Type (0, 1), BuildingBlock: KIFKEQ_clean_linker_1, # of connection points: 2
#     Edge 68, Type (0, 1), BuildingBlock: KIFKEQ_clean_linker_1, # of connection points: 2
#     Edge 69, Type (0, 1), BuildingBlock: KIFKEQ_clean_linker_1, # of connection points: 2
#     Edge 70, Type (0, 1), BuildingBlock: KIFKEQ_clean_linker_1, # of connection points: 2
#     Edge 71, Type (0, 1), BuildingBlock: KIFKEQ_clean_linker_1, # of connection points: 2
#     Edge 72, Type (0, 1), BuildingBlock: KIFKEQ_clean_linker_1, # of connection points: 2
#     Edge 73, Type (0, 1), BuildingBlock: KIFKEQ_clean_linker_1, # of connection points: 2
#     Edge 74, Type (0, 1), BuildingBlock: KIFKEQ_clean_linker_1, # of connection points: 2
#     Edge 75, Type (0, 1), BuildingBlock: KIFKEQ_clean_linker_1, # of connection points: 2
#     Edge 76, Type (0, 1), BuildingBlock: KIFKEQ_clean_linker_1, # of connection points: 2
#     Edge 77, Type (0, 1), BuildingBlock: KIFKEQ_clean_linker_1, # of connection points: 2
#     Edge 78, Type (0, 1), BuildingBlock: KIFKEQ_clean_linker_1, # of connection points: 2
#     Edge 79, Type (0, 1), BuildingBlock: KIFKEQ_clean_linker_1, # of connection points: 2
#     Edge 80, Type (0, 1), BuildingBlock: KIFKEQ_clean_linker_1, # of connection points: 2
# Relax obj value: 0.106
# Max RMSD: 0.247
# Mean RMSD: 0.180
data_MOF--net-eea--node1-NUHQIS_clean_sbu_0--node2-CUQRIR_clean_linker_1--edge1-KIFKEQ_clean_linker_1
_symmetry_space_group_name_H-M    P1
_symmetry_Int_Tables_number       1
_symmetry_cell_setting            triclinic
loop_
_symmetry_equiv_pos_as_xyz
'x, y, z'
_cell_length_a     49.71954
_cell_length_b     51.375409
_cell_length_c     66.964294
_cell_angle_alpha  87.066661
_cell_angle_beta   92.932283
_cell_angle_gamma 119.40903
loop_
_atom_site_label
_atom_site_type_symbol
_atom_site_fract_x
_atom_site_fract_y
_atom_site_fract_z
_atom_type_partial_charge
C0 C 0.2254 0.11115 0.40777 0.0
N1 N 0.2336 0.13342 0.42073 0.0
N2 N 0.22539 0.08718 0.41725 0.0
C3 C 0.21664 0.11238 0.38604 0.0
C4 C 0.2336 0.09561 0.43644 0.0
N5 N 0.23833 0.12362 0.43857 0.0
C6 C 0.23783 0.07676 0.45295 0.0
H7 H 0.19148 0.10445 0.38468 0.0
H8 H 0.22176 0.09775 0.37718 0.0
H9 H 0.22891 0.13543 0.37961 0.0
H10 H 0.26245 0.08242 0.45388 0.0
H11 H 0.22341 0.0526 0.45 0.0
H12 H 0.23178 0.08102 0.46764 0.0
C13 C 0.91464 0.13128 0.41382 0.0
N14 N 0.9296 0.15388 0.42683 0.0
N15 N 0.8894 0.10827 0.42218 0.0
C16 C 0.92455 0.13167 0.39288 0.0
C17 C 0.88962 0.11743 0.4408 0.0
N18 N 0.91422 0.14493 0.44379 0.0
C19 C 0.86545 0.09988 0.45605 0.0
H20 H 0.91566 0.14366 0.38274 0.0
H21 H 0.91525 0.10877 0.38737 0.0
H22 H 0.95012 0.14354 0.39223 0.0
H23 H 0.8764 0.09486 0.46943 0.0
H24 H 0.84672 0.07851 0.45022 0.0
H25 H 0.85546 0.11359 0.46091 0.0
C26 C 0.89558 0.78935 0.41495 0.0
N27 N 0.91096 0.77939 0.42753 0.0
N28 N 0.86785 0.78212 0.42234 0.0
C29 C 0.90659 0.80397 0.39472 0.0
C30 C 0.8668 0.7671 0.43977 0.0
N31 N 0.89284 0.76506 0.44277 0.0
C32 C 0.8416 0.75666 0.45468 0.0
H33 H 0.92116 0.82845 0.39642 0.0
H34 H 0.88685 0.79974 0.38433 0.0
H35 H 0.92078 0.79558 0.38808 0.0
H36 H 0.82408 0.73315 0.45169 0.0
H37 H 0.83013 0.77055 0.45346 0.0
H38 H 0.85091 0.75748 0.4702 0.0
C39 C 0.1276 0.25549 0.6398 0.0
N40 N 0.15072 0.26682 0.62671 0.0
N41 N 0.10704 0.26493 0.63478 0.0
C42 C 0.12574 0.23609 0.65787 0.0
C43 C 0.11864 0.28256 0.61819 0.0
N44 N 0.14547 0.28397 0.61341 0.0
C45 C 0.10228 0.29597 0.60561 0.0
H46 H 0.11444 0.21245 0.65338 0.0
H47 H 0.11204 0.23807 0.66968 0.0
H48 H 0.14918 0.24222 0.66404 0.0
H49 H 0.11055 0.3191 0.61042 0.0
H50 H 0.07693 0.28291 0.60741 0.0
H51 H 0.10733 0.29697 0.58955 0.0
C52 C 0.78696 0.90156 0.63913 0.0
N53 N 0.77929 0.88043 0.6253 0.0
N54 N 0.78865 0.92668 0.63046 0.0
C55 C 0.79539 0.89868 0.66071 0.0
C56 C 0.78195 0.92023 0.6109 0.0
N57 N 0.77662 0.89229 0.60771 0.0
C58 C 0.77915 0.94073 0.59507 0.0
H59 H 0.7739 0.88621 0.66924 0.0
H60 H 0.8097 0.9209 0.66738 0.0
H61 H 0.80819 0.88602 0.66219 0.0
H62 H 0.80129 0.95307 0.5872 0.0
H63 H 0.77414 0.95716 0.60174 0.0
H64 H 0.76064 0.92778 0.58387 0.0
C65 C 0.11412 0.91273 0.62959 0.0
N66 N 0.10035 0.88836 0.61797 0.0
N67 N 0.14287 0.93219 0.62319 0.0
C68 C 0.099 0.91786 0.64674 0.0
C69 C 0.14614 0.91862 0.60739 0.0
N70 N 0.12048 0.89189 0.60433 0.0
C71 C 0.17396 0.93203 0.59444 0.0
H72 H 0.08271 0.92541 0.64067 0.0
H73 H 0.11593 0.93518 0.65682 0.0
H74 H 0.08559 0.89671 0.65548 0.0
H75 H 0.19467 0.94937 0.60241 0.0
H76 H 0.16906 0.94244 0.58083 0.0
H77 H 0.17899 0.9146 0.58962 0.0
C78 C 0.88495 0.45108 0.74364 0.0
N79 N 0.89668 0.47443 0.75609 0.0
N80 N 0.89478 0.43144 0.74952 0.0
C81 C 0.86604 0.44865 0.72484 0.0
C82 C 0.91303 0.44376 0.76592 0.0
N83 N 0.91446 0.47002 0.76977 0.0
C84 C 0.92763 0.42912 0.77902 0.0
H85 H 0.84129 0.43766 0.72859 0.0
H86 H 0.86897 0.43508 0.71368 0.0
H87 H 0.87267 0.47111 0.71811 0.0
H88 H 0.95146 0.43711 0.77406 0.0
H89 H 0.91441 0.40444 0.77798 0.0
H90 H 0.92902 0.43509 0.79488 0.0
C91 C 0.57472 0.46401 0.74531 0.0
N92 N 0.58939 0.48657 0.75835 0.0
N93 N 0.55115 0.43982 0.75417 0.0
C94 C 0.58482 0.46471 0.72439 0.0
C95 C 0.55206 0.44835 0.7731 0.0
N96 N 0.57545 0.47658 0.77574 0.0
C97 C 0.52912 0.4296 0.78875 0.0
H98 H 0.57486 0.47566 0.71416 0.0
H99 H 0.57675 0.44181 0.71919 0.0
H100 H 0.61036 0.47775 0.72361 0.0
H101 H 0.53872 0.41749 0.79815 0.0
H102 H 0.50687 0.41297 0.7818 0.0
H103 H 0.52482 0.44377 0.79864 0.0
C104 C 0.5522 0.09583 0.74059 0.0
N105 N 0.56816 0.08603 0.75285 0.0
N106 N 0.52653 0.09175 0.74949 0.0
C107 C 0.56359 0.11273 0.721 0.0
C108 C 0.52751 0.07939 0.76763 0.0
N109 N 0.55285 0.07606 0.76975 0.0
C110 C 0.50395 0.07089 0.78348 0.0
H111 H 0.5892 0.12517 0.72094 0.0
H112 H 0.55499 0.12883 0.71798 0.0
H113 H 0.55502 0.0966 0.70872 0.0
H114 H 0.50085 0.05065 0.79212 0.0
H115 H 0.48133 0.06666 0.77678 0.0
H116 H 0.51226 0.08943 0.79404 0.0
C117 C 0.78805 0.57957 0.97134 0.0
N118 N 0.8108 0.58993 0.95791 0.0
N119 N 0.7625 0.57914 0.96298 0.0
C120 C 0.7896 0.56692 0.99189 0.0
C121 C 0.77037 0.58931 0.94395 0.0
N122 N 0.79961 0.59546 0.94078 0.0
C123 C 0.7503 0.59529 0.92894 0.0
H124 H 0.7663 0.54994 0.99685 0.0
H125 H 0.79954 0.5853 1.00266 0.0
H126 H 0.80457 0.55648 0.99217 0.0
H127 H 0.73383 0.59991 0.93654 0.0
H128 H 0.73691 0.57532 0.9197 0.0
H129 H 0.76456 0.61459 0.91887 0.0
C130 C 0.45895 0.23344 0.96909 0.0
N131 N 0.44899 0.21099 0.95605 0.0
N132 N 0.44658 0.25127 0.96415 0.0
C133 C 0.47948 0.23714 0.98726 0.0
C134 C 0.42866 0.23888 0.94767 0.0
N135 N 0.42977 0.2141 0.94287 0.0
C136 C 0.41254 0.25264 0.93519 0.0
H137 H 0.47617 0.24998 0.9988 0.0
H138 H 0.50394 0.24949 0.9828 0.0
H139 H 0.47473 0.21504 0.99378 0.0
H140 H 0.41345 0.2494 0.91904 0.0
H141 H 0.42302 0.2769 0.93777 0.0
H142 H 0.38793 0.24153 0.9393 0.0
C143 C 0.78571 0.24978 0.96484 0.0
N144 N 0.7705 0.22669 0.95228 0.0
N145 N 0.8081 0.27397 0.95515 0.0
C146 C 0.7775 0.24939 0.9862 0.0
C147 C 0.80593 0.26481 0.93625 0.0
N148 N 0.78283 0.23622 0.93441 0.0
C149 C 0.82822 0.28285 0.92009 0.0
H150 H 0.75225 0.23522 0.9881 0.0
H151 H 0.78487 0.27231 0.99109 0.0
H152 H 0.78946 0.23987 0.99594 0.0
H153 H 0.85066 0.29998 0.92651 0.0
H154 H 0.81814 0.29431 0.91047 0.0
H155 H 0.83239 0.26822 0.91056 0.0
C156 C 0.55186 0.77996 0.0739 0.0
N157 N 0.56259 0.80306 0.08653 0.0
N158 N 0.56026 0.75962 0.08071 0.0
C159 C 0.53577 0.77853 0.05399 0.0
C160 C 0.57668 0.77124 0.09783 0.0
N161 N 0.57833 0.79772 0.10126 0.0
C162 C 0.58954 0.75592 0.11184 0.0
H163 H 0.51052 0.76764 0.05615 0.0
H164 H 0.54013 0.76521 0.04338 0.0
H165 H 0.54363 0.80127 0.04736 0.0
H166 H 0.61362 0.76322 0.10777 0.0
H167 H 0.57577 0.73128 0.11073 0.0
H168 H 0.5899 0.762 0.12756 0.0
C169 C 0.25158 0.7972 0.08241 0.0
N170 N 0.26546 0.81989 0.09542 0.0
N171 N 0.22244 0.7775 0.08793 0.0
C172 C 0.26561 0.79541 0.06348 0.0
C173 C 0.219 0.78905 0.10472 0.0
N174 N 0.24494 0.81491 0.10919 0.0
C175 C 0.19075 0.77434 0.11731 0.0
H176 H 0.24747 0.78232 0.05212 0.0
H177 H 0.27958 0.7842 0.06697 0.0
H178 H 0.28101 0.81808 0.05712 0.0
H179 H 0.17823 0.74975 0.11566 0.0
H180 H 0.17505 0.78318 0.11235 0.0
H181 H 0.19692 0.77933 0.13334 0.0
C182 C 0.21346 0.4221 0.07347 0.0
N183 N 0.22974 0.41376 0.08662 0.0
N184 N 0.19059 0.42336 0.08278 0.0
C185 C 0.22109 0.43081 0.0518 0.0
C186 C 0.19361 0.41577 0.10206 0.0
N187 N 0.21751 0.41023 0.10442 0.0
C188 C 0.17506 0.41621 0.119 0.0
H189 H 0.24593 0.44755 0.05057 0.0
H190 H 0.20693 0.4399 0.04436 0.0
H191 H 0.21669 0.41083 0.04359 0.0
H192 H 0.15325 0.41545 0.1137 0.0
H193 H 0.18907 0.43707 0.12731 0.0
H194 H 0.16976 0.39708 0.1296 0.0
C195 C 0.4645 0.93938 0.30969 0.0
N196 N 0.48696 0.9487 0.29608 0.0
N197 N 0.43899 0.93896 0.30126 0.0
C198 C 0.46598 0.92698 0.33035 0.0
C199 C 0.44646 0.94791 0.28205 0.0
N200 N 0.4755 0.95362 0.27884 0.0
C201 C 0.42521 0.95091 0.26645 0.0
H202 H 0.47748 0.91317 0.3301 0.0
H203 H 0.44271 0.91319 0.33659 0.0
H204 H 0.47982 0.94582 0.34042 0.0
H205 H 0.40786 0.95488 0.27348 0.0
H206 H 0.41281 0.92988 0.25811 0.0
H207 H 0.43851 0.9695 0.25564 0.0
C208 C 0.13332 0.56615 0.30245 0.0
N209 N 0.1232 0.54359 0.28946 0.0
N210 N 0.12202 0.58473 0.29696 0.0
C211 C 0.15515 0.57058 0.32 0.0
C212 C 0.10448 0.57254 0.28031 0.0
N213 N 0.10488 0.54735 0.27588 0.0
C214 C 0.08811 0.58602 0.26783 0.0
H215 H 0.15444 0.58538 0.33116 0.0
H216 H 0.17904 0.58099 0.31456 0.0
H217 H 0.1496 0.54873 0.32736 0.0
H218 H 0.08358 0.60099 0.27674 0.0
H219 H 0.06593 0.56832 0.26151 0.0
H220 H 0.10285 0.59921 0.25517 0.0
C221 C 0.45184 0.58096 0.29887 0.0
N222 N 0.4371 0.55806 0.28612 0.0
N223 N 0.47362 0.60574 0.28929 0.0
C224 C 0.44355 0.57982 0.32031 0.0
C225 C 0.47152 0.59712 0.27024 0.0
N226 N 0.44911 0.5683 0.26823 0.0
C227 C 0.493 0.61613 0.25396 0.0
H228 H 0.41839 0.56501 0.32222 0.0
H229 H 0.45023 0.60244 0.32547 0.0
H230 H 0.45603 0.57064 0.32984 0.0
H231 H 0.51538 0.6335 0.2603 0.0
H232 H 0.48208 0.62734 0.24492 0.0
H233 H 0.49741 0.60224 0.24388 0.0
Tb234 Tb 0.51023 0.99945 1.00301 0.0
Eu235 Eu 0.53304 0.03702 0.04488 0.0
C236 C 0.53604 0.97718 0.04038 0.0
C237 C 0.46536 0.97893 0.03955 0.0
C238 C 0.50506 0.98454 0.94922 0.0
C239 C 0.50778 0.97478 0.91448 0.0
C240 C 0.49802 0.96433 0.93395 0.0
C241 C 0.52183 0.01534 0.94483 0.0
C242 C 0.53169 0.02581 0.92543 0.0
C243 C 0.52488 1.00566 0.91 0.0
C244 C 0.49708 0.97352 0.96995 0.0
O245 O 0.49106 0.0297 1.00119 0.0
O246 O 0.52539 0.06642 0.02194 0.0
O247 O 0.57531 0.05221 0.02653 0.0
O248 O 0.55158 0.04133 0.99555 0.0
C249 C 0.50425 0.05725 1.00744 0.0
O250 O 0.5264 0.06086 0.0686 0.0
O251 O 0.56806 0.05735 0.06855 0.0
O252 O 0.53053 0.99298 0.05261 0.0
O253 O 0.53564 0.98149 0.02088 0.0
O254 O 0.47496 0.97072 0.02429 0.0
O255 O 0.48171 1.00561 0.04714 0.0
C256 C 0.57641 0.05582 1.00698 0.0
O257 O 0.52046 0.9775 0.98159 0.0
O258 O 0.47893 0.9808 0.97863 0.0
C259 C 0.54745 0.05518 0.10019 0.0
C260 C 0.53812 0.0346 0.14055 0.0
C261 C 0.52051 0.04666 0.13122 0.0
C262 C 0.52521 0.05694 0.11129 0.0
C263 C 0.56571 0.04393 0.10972 0.0
C264 C 0.56108 0.03375 0.12967 0.0
C265 C 0.55113 0.06456 0.07875 0.0
H266 H 0.50175 0.95866 0.90292 0.0
H267 H 0.48527 0.94047 0.93712 0.0
H268 H 0.52776 0.03129 0.9565 0.0
H269 H 0.54515 0.0497 0.92261 0.0
H270 H 0.50299 0.04807 0.13933 0.0
H271 H 0.5111 0.06589 0.10448 0.0
H272 H 0.58327 0.04248 0.10169 0.0
H273 H 0.57488 0.02442 0.13639 0.0
Tb274 Tb 0.03145 0.53483 0.99794 0.0
Eu275 Eu 0.99979 0.51855 0.04272 0.0
C276 C 0.06029 0.58097 0.03246 0.0
C277 C 0.05531 0.50758 0.03326 0.0
C278 C 0.04048 0.5448 0.94295 0.0
C279 C 0.0469 0.5477 0.90709 0.0
C280 C 0.05932 0.55081 0.92659 0.0
C281 C 0.00915 0.53622 0.93963 0.0
C282 C 0.99669 0.53314 0.9201 0.0
C283 C 0.01536 0.53846 0.9036 0.0
C284 C 0.05346 0.54641 0.96336 0.0
O285 O 0.98565 0.49625 0.99357 0.0
O286 O 0.97826 0.47615 0.02548 0.0
O287 O 0.96775 0.52741 0.02232 0.0
O288 O 1.00226 0.55533 0.99787 0.0
C289 C 0.97151 0.47355 1.00623 0.0
O290 O 0.97909 0.48598 0.06721 0.0
O291 O 0.9848 0.53028 0.06934 0.0
O292 O 0.03366 0.56784 0.04134 0.0
O293 O 0.0659 0.5683 0.01783 0.0
O294 O 0.04853 0.50774 0.01405 0.0
O295 O 0.04391 0.51706 0.04653 0.0
C296 C 0.97584 0.54579 1.00662 0.0
O297 O 0.05346 0.5663 0.97467 0.0
O298 O 0.04417 0.52083 0.97291 0.0
C299 C 0.99035 0.50632 0.09911 0.0
C300 C 0.01448 0.50669 0.13828 0.0
C301 C 0.98237 0.49336 0.13451 0.0
C302 C 0.97046 0.49319 0.11511 0.0
C303 C 0.02238 0.5196 0.10269 0.0
C304 C 0.03434 0.51981 0.12211 0.0
C305 C 0.97745 0.50485 0.07868 0.0
H306 H 0.06199 0.55236 0.89472 0.0
H307 H 0.08356 0.55752 0.92891 0.0
H308 H 0.99424 0.53137 0.95215 0.0
H309 H 0.97227 0.5257 0.91796 0.0
H310 H 0.96637 0.48267 0.14652 0.0
H311 H 0.94566 0.48255 0.11256 0.0
H312 H 0.03809 0.5297 0.09046 0.0
H313 H 0.05916 0.53061 0.12447 0.0
Tb314 Tb 0.503 0.49564 0.04669 0.0
Eu315 Eu 0.48807 0.50881 0.9993 0.0
C316 C 0.48858 0.44922 0.01317 0.0
C317 C 0.5551 0.52029 0.01533 0.0
C318 C 0.50002 0.4918 0.10218 0.0
C319 C 0.49495 0.48528 0.13827 0.0
C320 C 0.50462 0.47979 0.12045 0.0
C321 C 0.48558 0.50941 0.10191 0.0
C322 C 0.47592 0.51496 0.11972 0.0
C323 C 0.48044 0.50293 0.13816 0.0
C324 C 0.50921 0.48488 0.08346 0.0
O325 O 0.5203 0.54359 0.04319 0.0
O326 O 0.489 0.54521 0.01722 0.0
O327 O 0.44259 0.47995 0.01441 0.0
O328 O 0.4607 0.49805 0.04561 0.0
C329 C 0.50785 0.55753 0.03265 0.0
O330 O 0.49702 0.53964 0.97358 0.0
O331 O 0.46402 0.49272 0.97055 0.0
O332 O 0.49801 0.47079 0.99952 0.0
O333 O 0.48276 0.45318 0.03138 0.0
O334 O 0.54324 0.50227 0.03099 0.0
O335 O 0.5394 0.53022 1.00412 0.0
C336 C 0.43775 0.48372 0.03287 0.0
O337 O 0.48652 0.46674 0.07186 0.0
O338 O 0.53022 0.50745 0.07331 0.0
C339 C 0.49483 0.51826 0.94272 0.0
C340 C 0.52305 0.51782 0.90708 0.0
C341 C 0.5025 0.52932 0.907 0.0
C342 C 0.48853 0.52949 0.92463 0.0
C343 C 0.51561 0.50712 0.94299 0.0
C344 C 0.5295 0.50683 0.92536 0.0
C345 C 0.47994 0.51848 0.96123 0.0
H346 H 0.49921 0.476 0.15218 0.0
H347 H 0.51564 0.46605 0.12094 0.0
H348 H 0.48157 0.51867 0.0879 0.0
H349 H 0.46452 0.52834 0.11901 0.0
H350 H 0.49668 0.53764 0.89321 0.0
H351 H 0.47263 0.53826 0.92411 0.0
H352 H 0.52104 0.49859 0.95684 0.0
H353 H 0.54549 0.49817 0.92608 0.0
Tb354 Tb 0.17887 0.32908 0.33747 0.0
Eu355 Eu 0.20216 0.3662 0.3795 0.0
C356 C 0.20513 0.30682 0.37438 0.0
C357 C 0.13365 0.30905 0.37396 0.0
C358 C 0.17391 0.315 0.2837 0.0
C359 C 0.17714 0.30647 0.24878 0.0
C360 C 0.16765 0.29534 0.26819 0.0
C361 C 0.18972 0.34592 0.27963 0.0
C362 C 0.19931 0.35707 0.26029 0.0
C363 C 0.19317 0.3375 0.2446 0.0
C364 C 0.16588 0.3034 0.30432 0.0
O365 O 0.16072 0.36009 0.33535 0.0
O366 O 0.19412 0.39594 0.35703 0.0
O367 O 0.2441 0.38148 0.36073 0.0
O368 O 0.21978 0.37125 0.32992 0.0
C369 C 0.17359 0.3873 0.34217 0.0
O370 O 0.1966 0.39055 0.40335 0.0
O371 O 0.23716 0.38509 0.40334 0.0
O372 O 0.19807 0.32138 0.38666 0.0
O373 O 0.20576 0.31238 0.355 0.0
O374 O 0.14242 0.30088 0.35826 0.0
O375 O 0.15103 0.33499 0.38231 0.0
C376 C 0.24483 0.38552 0.3412 0.0
O377 O 0.18924 0.3073 0.31596 0.0
O378 O 0.14757 0.31033 0.31313 0.0
C379 C 0.21702 0.38396 0.43453 0.0
C380 C 0.20959 0.36565 0.47522 0.0
C381 C 0.21964 0.39569 0.46947 0.0
C382 C 0.22338 0.40476 0.44928 0.0
C383 C 0.20683 0.35394 0.44016 0.0
C384 C 0.20327 0.34488 0.46033 0.0
C385 C 0.22118 0.39365 0.41336 0.0
H386 H 0.17166 0.29077 0.23702 0.0
H387 H 0.15564 0.2714 0.27111 0.0
H388 H 0.19501 0.36146 0.29148 0.0
H389 H 0.21196 0.38106 0.25771 0.0
H390 H 0.22488 0.41222 0.4806 0.0
H391 H 0.23129 0.42802 0.44517 0.0
H392 H 0.20161 0.33751 0.42893 0.0
H393 H 0.19505 0.32152 0.46426 0.0
Tb394 Tb 0.69061 0.86815 0.33208 0.0
Eu395 Eu 0.65935 0.85339 0.37695 0.0
C396 C 0.72119 0.915 0.36624 0.0
C397 C 0.71497 0.84229 0.36798 0.0
C398 C 0.69754 0.87266 0.27647 0.0
C399 C 0.67934 0.88987 0.24688 0.0
C400 C 0.69149 0.89413 0.26654 0.0
C401 C 0.69124 0.84693 0.26629 0.0
C402 C 0.67903 0.84263 0.24673 0.0
C403 C 0.67311 0.86411 0.2367 0.0
C404 C 0.71103 0.877 0.29713 0.0
O405 O 0.64436 0.83009 0.32829 0.0
O406 O 0.63741 0.81043 0.36027 0.0
O407 O 0.62823 0.86363 0.3566 0.0
O408 O 0.66318 0.89049 0.33213 0.0
C409 C 0.63052 0.80749 0.34105 0.0
O410 O 0.63952 0.82168 0.40201 0.0
O411 O 0.64438 0.86576 0.40328 0.0
O412 O 0.69489 0.90225 0.37556 0.0
O413 O 0.72591 0.90231 0.35121 0.0
O414 O 0.70803 0.84174 0.34876 0.0
O415 O 0.70341 0.85194 0.381 0.0
C416 C 0.63708 0.88218 0.34099 0.0
O417 O 0.71075 0.89768 0.3075 0.0
O418 O 0.7038 0.85281 0.308 0.0
C419 C 0.65346 0.84436 0.43312 0.0
C420 C 0.68271 0.8483 0.471 0.0
C421 C 0.6503 0.83216 0.46877 0.0
C422 C 0.63582 0.83022 0.44998 0.0
C423 C 0.68578 0.86037 0.43521 0.0
C424 C 0.70026 0.86238 0.45397 0.0
C425 C 0.63834 0.84106 0.41323 0.0
H426 H 0.67539 0.90702 0.23954 0.0
H427 H 0.69632 0.91435 0.27388 0.0
H428 H 0.69578 0.83002 0.27344 0.0
H429 H 0.67405 0.82228 0.23952 0.0
H430 H 0.6361 0.82134 0.4816 0.0
H431 H 0.61085 0.81758 0.44859 0.0
H432 H 0.69981 0.8711 0.42229 0.0
H433 H 0.72525 0.87464 0.45509 0.0
Tb434 Tb 0.17236 0.82526 0.38164 0.0
Eu435 Eu 0.15611 0.83947 0.33443 0.0
C436 C 0.15514 0.77833 0.34847 0.0
C437 C 0.22307 0.85079 0.34874 0.0
C438 C 0.16885 0.81814 0.43703 0.0
C439 C 0.16857 0.81493 0.47338 0.0
C440 C 0.17941 0.81151 0.45535 0.0
C441 C 0.14698 0.82793 0.43694 0.0
C442 C 0.13615 0.83142 0.45498 0.0
C443 C 0.14694 0.82514 0.47347 0.0
C444 C 0.18131 0.81549 0.41818 0.0
O445 O 0.16577 0.86395 0.38259 0.0
O446 O 0.17859 0.8828 0.35056 0.0
O447 O 0.11628 0.83277 0.35277 0.0
O448 O 0.1225 0.80313 0.37732 0.0
C449 C 0.17514 0.8862 0.36937 0.0
O450 O 0.16816 0.87072 0.30882 0.0
O451 O 0.12986 0.82586 0.30598 0.0
O452 O 0.1408 0.79052 0.33809 0.0
O453 O 0.17354 0.79143 0.36394 0.0
O454 O 0.21685 0.85144 0.36751 0.0
O455 O 0.20142 0.84031 0.33466 0.0
C456 C 0.10604 0.81415 0.36832 0.0
O457 O 0.16183 0.79495 0.4062 0.0
O458 O 0.19835 0.84052 0.40844 0.0
C459 C 0.16034 0.84903 0.27741 0.0
C460 C 0.18609 0.84873 0.24061 0.0
C461 C 0.16549 0.86006 0.24158 0.0
C462 C 0.15281 0.8602 0.25976 0.0
C463 C 0.18082 0.83765 0.27663 0.0
C464 C 0.19355 0.83749 0.25843 0.0
C465 C 0.14812 0.85096 0.29663 0.0
H466 H 0.17775 0.8103 0.48729 0.0
H467 H 0.19636 0.80403 0.45572 0.0
H468 H 0.13847 0.83308 0.42292 0.0
H469 H 0.11926 0.83898 0.45444 0.0
H470 H 0.15953 0.86934 0.22832 0.0
H471 H 0.13736 0.86941 0.26007 0.0
H472 H 0.1871 0.82907 0.29013 0.0
H473 H 0.209 0.82827 0.25829 0.0
Tb474 Tb 0.83934 0.66776 0.67047 0.0
Eu475 Eu 0.86028 0.70348 0.71274 0.0
C476 C 0.86384 0.6439 0.70684 0.0
C477 C 0.79319 0.64582 0.70668 0.0
C478 C 0.8415 0.65623 0.61714 0.0
C479 C 0.84173 0.65084 0.58136 0.0
C480 C 0.82931 0.63898 0.60011 0.0
C481 C 0.86644 0.6854 0.6153 0.0
C482 C 0.87895 0.69724 0.59661 0.0
C483 C 0.86663 0.68018 0.57936 0.0
C484 C 0.82836 0.64394 0.63683 0.0
O485 O 0.83819 0.7091 0.66394 0.0
O486 O 0.83099 0.71971 0.69541 0.0
O487 O 0.89306 0.7347 0.68967 0.0
O488 O 0.88925 0.69824 0.66976 0.0
C489 C 0.82935 0.7228 0.67586 0.0
O490 O 0.85027 0.72129 0.73851 0.0
O491 O 0.89616 0.72719 0.73548 0.0
O492 O 0.87864 0.67101 0.71379 0.0
O493 O 0.84275 0.63689 0.69244 0.0
O494 O 0.7964 0.64903 0.68708 0.0
O495 O 0.81655 0.66069 0.71917 0.0
C496 C 0.9037 0.72616 0.67533 0.0
O497 O 0.84757 0.6427 0.65031 0.0
O498 O 0.81202 0.65468 0.64398 0.0
C499 C 0.87641 0.71859 0.7682 0.0
C500 C 0.86886 0.69394 0.80747 0.0
C501 C 0.85718 0.71323 0.80164 0.0
C502 C 0.86106 0.72555 0.78222 0.0
C503 C 0.88891 0.69996 0.77417 0.0
C504 C 0.88534 0.68792 0.79371 0.0
C505 C 0.87715 0.72924 0.74723 0.0
H506 H 0.83135 0.63724 0.56838 0.0
H507 H 0.81003 0.61645 0.60127 0.0
H508 H 0.8762 0.69905 0.62833 0.0
H509 H 0.89831 0.71974 0.59569 0.0
H510 H 0.84458 0.71839 0.81203 0.0
H511 H 0.85127 0.73985 0.77797 0.0
H512 H 0.90068 0.69401 0.76364 0.0
H513 H 0.89433 0.67291 0.79779 0.0
Tb514 Tb 0.361 0.19636 0.66493 0.0
Eu515 Eu 0.32882 0.18052 0.7093 0.0
C516 C 0.39105 0.24068 0.70071 0.0
C517 C 0.38345 0.16713 0.69925 0.0
C518 C 0.36823 0.20544 0.60978 0.0
C519 C 0.33746 0.21501 0.58405 0.0
C520 C 0.35076 0.21926 0.60334 0.0
C521 C 0.37218 0.1874 0.59651 0.0
C522 C 0.35867 0.18296 0.57726 0.0
C523 C 0.34112 0.1967 0.57078 0.0
C524 C 0.38226 0.20949 0.6302 0.0
O525 O 0.32688 0.14879 0.66475 0.0
O526 O 0.29385 0.14567 0.68879 0.0
O527 O 0.31323 0.20975 0.69179 0.0
O528 O 0.31774 0.19657 0.66054 0.0
C529 C 0.30008 0.13456 0.67356 0.0
O530 O 0.30378 0.14851 0.7333 0.0
O531 O 0.318 0.19531 0.73626 0.0
O532 O 0.37705 0.21844 0.71361 0.0
O533 O 0.38309 0.23773 0.68158 0.0
O534 O 0.39157 0.18651 0.6841 0.0
O535 O 0.35762 0.15799 0.70861 0.0
C536 C 0.30691 0.20842 0.67246 0.0
O537 O 0.37931 0.22794 0.64136 0.0
O538 O 0.37771 0.18531 0.64026 0.0
C539 C 0.3195 0.16832 0.7654 0.0
C540 C 0.34434 0.16784 0.80424 0.0
C541 C 0.31358 0.16189 0.80139 0.0
C542 C 0.30131 0.16214 0.78214 0.0
C543 C 0.35007 0.17398 0.76808 0.0
C544 C 0.36238 0.17375 0.78731 0.0
C545 C 0.30663 0.16906 0.74524 0.0
H546 H 0.32448 0.22628 0.57951 0.0
H547 H 0.34725 0.23336 0.61317 0.0
H548 H 0.3855 0.17649 0.6011 0.0
H549 H 0.36156 0.1683 0.5676 0.0
H550 H 0.29917 0.1577 0.81407 0.0
H551 H 0.27769 0.15778 0.78035 0.0
H552 H 0.36443 0.17869 0.75527 0.0
H553 H 0.386 0.1781 0.78892 0.0
Tb554 Tb 0.84261 0.16934 0.71411 0.0
Eu555 Eu 0.82823 0.18316 0.66676 0.0
C556 C 0.83017 0.12421 0.68019 0.0
C557 C 0.89587 0.19792 0.68376 0.0
C558 C 0.83904 0.16288 0.76968 0.0
C559 C 0.83176 0.1524 0.8054 0.0
C560 C 0.84212 0.14856 0.78732 0.0
C561 C 0.82536 0.18108 0.77031 0.0
C562 C 0.81502 0.18498 0.78841 0.0
C563 C 0.81807 0.17067 0.80622 0.0
C564 C 0.84887 0.15753 0.75066 0.0
O565 O 0.85807 0.21705 0.7113 0.0
O566 O 0.82748 0.21866 0.68478 0.0
O567 O 0.78251 0.15379 0.68164 0.0
O568 O 0.79981 0.17068 0.71321 0.0
C569 C 0.8455 0.23076 0.70058 0.0
O570 O 0.80447 0.16635 0.63794 0.0
O571 O 0.83652 0.21358 0.64092 0.0
O572 O 0.83988 0.1463 0.66693 0.0
O573 O 0.82363 0.12741 0.69836 0.0
O574 O 0.88363 0.17813 0.6985 0.0
O575 O 0.87961 0.20708 0.67243 0.0
C576 C 0.7772 0.15689 0.70016 0.0
O577 O 0.82662 0.13941 0.7388 0.0
O578 O 0.86943 0.18096 0.74088 0.0
C579 C 0.83442 0.19218 0.60965 0.0
C580 C 0.86079 0.19154 0.57308 0.0
C581 C 0.87967 0.20706 0.58959 0.0
C582 C 0.86667 0.20731 0.60766 0.0
C583 C 0.81555 0.17666 0.59328 0.0
C584 C 0.82851 0.17625 0.57527 0.0
C585 C 0.82003 0.19214 0.62859 0.0
H586 H 0.83409 0.14067 0.8187 0.0
H587 H 0.8523 0.13416 0.78707 0.0
H588 H 0.82261 0.19218 0.75679 0.0
H589 H 0.80499 0.19952 0.78848 0.0
H590 H 0.90456 0.21936 0.58852 0.0
H591 H 0.8819 0.21939 0.62005 0.0
H592 H 0.79065 0.16466 0.59444 0.0
H593 H 0.81312 0.16351 0.56314 0.0
H594 H 0.31868 0.8185 0.09528 0.0
H595 H 0.28075 0.87799 0.09002 0.0
H596 H 0.36811 0.85845 0.08322 0.0
H597 H 0.33032 0.91841 0.07789 0.0
H598 H 0.43395 0.9888 0.06826 0.0
H599 H 0.38703 0.95213 0.08504 0.0
H600 H 0.38354 0.88249 0.04976 0.0
H601 H 0.43028 0.91892 0.03305 0.0
C602 C 0.32135 0.8405 0.09205 0.0
C603 C 0.29606 0.84527 0.09359 0.0
C604 C 0.34946 0.86328 0.0849 0.0
C605 C 0.35306 0.89152 0.07917 0.0
C606 C 0.32839 0.89696 0.08216 0.0
C607 C 0.3001 0.87397 0.08925 0.0
C608 C 0.42315 0.96567 0.06403 0.0
C609 C 0.43603 0.9569 0.04924 0.0
C610 C 0.39617 0.94466 0.07365 0.0
C611 C 0.38161 0.91427 0.06892 0.0
C612 C 0.3944 0.9056 0.05404 0.0
C613 C 0.42112 0.92659 0.0443 0.0
H614 H 0.12864 0.39388 0.07965 0.0
H615 H 0.20924 0.47927 0.06864 0.0
H616 H 0.0953 0.41463 0.06746 0.0
H617 H 0.17616 0.49983 0.05565 0.0
H618 H 0.09935 0.50467 1.01233 0.0
H619 H 0.13271 0.484 0.0241 0.0
H620 H 0.08972 0.46178 0.08144 0.0
H621 H 0.05689 0.48305 0.06998 0.0
C622 C 0.13903 0.41701 0.07446 0.0
C623 C 0.17122 0.43511 0.07493 0.0
C624 C 0.12016 0.42882 0.06755 0.0
C625 C 0.13336 0.4587 0.06063 0.0
C626 C 0.1656 0.47666 0.0608 0.0
C627 C 0.1844 0.46501 0.06815 0.0
C628 C 0.0971 0.49542 0.02745 0.0
C629 C 0.07563 0.49548 0.04027 0.0
C630 C 0.11617 0.48372 0.03415 0.0
C631 C 0.11351 0.47131 0.05358 0.0
C632 C 0.09194 0.47114 0.06635 0.0
C633 C 0.07337 0.48343 0.05982 0.0
H634 H 0.50373 0.71543 0.07002 0.0
H635 H 0.60033 0.74118 0.07189 0.0
H636 H 0.4909 0.66684 0.05691 0.0
H637 H 0.58783 0.69269 0.0589 0.0
H638 H 0.54938 0.5912 0.06161 0.0
H639 H 0.562 0.6407 0.07184 0.0
H640 H 0.49691 0.64272 0.02741 0.0
H641 H 0.48389 0.59273 0.01718 0.0
C642 C 0.52218 0.71069 0.06736 0.0
C643 C 0.55295 0.73176 0.07203 0.0
C644 C 0.51491 0.683 0.05986 0.0
C645 C 0.53834 0.67585 0.05698 0.0
C646 C 0.56922 0.69733 0.06125 0.0
C647 C 0.57643 0.72502 0.06866 0.0
C648 C 0.53772 0.60211 0.05393 0.0
C649 C 0.5156 0.58792 0.03853 0.0
C650 C 0.54516 0.63064 0.05974 0.0
C651 C 0.53059 0.64571 0.05037 0.0
C652 C 0.50839 0.63158 0.035 0.0
C653 C 0.50105 0.60301 0.02908 0.0
H654 H 0.84746 0.28387 0.9867 0.0
H655 H 0.81863 0.32824 0.94135 0.0
H656 H 0.88695 0.33234 0.99914 0.0
H657 H 0.85768 0.37693 0.9538 0.0
H658 H 0.95264 0.45771 0.96733 0.0
H659 H 0.91266 0.40944 0.9553 0.0
H660 H 0.89409 0.37516 0.01625 0.0
H661 H 0.93449 0.42304 0.02824 0.0
C662 C 0.84941 0.30413 0.97962 0.0
C663 C 0.83014 0.30251 0.96314 0.0
C664 C 0.87195 0.33189 0.9867 0.0
C665 C 0.87563 0.35867 0.97746 0.0
C666 C 0.85592 0.35686 0.96109 0.0
C667 C 0.83345 0.32908 0.95401 0.0
C668 C 0.94004 0.43988 0.97818 0.0
C669 C 0.94692 0.44432 0.99877 0.0
C670 C 0.91694 0.41221 0.97127 0.0
C671 C 0.90006 0.38829 0.98478 0.0
C672 C 0.90687 0.39285 1.00537 0.0
C673 C 0.93 0.42045 1.01227 0.0
H674 H 0.70716 0.53822 0.94828 0.0
H675 H 0.75198 0.5963 0.99775 0.0
H676 H 0.65669 0.52239 0.96226 0.0
H677 H 0.70146 0.57998 1.01215 0.0
H678 H 0.60205 0.51817 0.03754 0.0
H679 H 0.65332 0.53098 0.02593 0.0
H680 H 0.62882 0.55249 0.96704 0.0
H681 H 0.57821 0.54005 0.97843 0.0
C682 C 0.70605 0.5475 0.96217 0.0
C683 C 0.73313 0.56868 0.97187 0.0
C684 C 0.67736 0.5384 0.97021 0.0
C685 C 0.67533 0.5501 0.98821 0.0
C686 C 0.70251 0.57049 0.99833 0.0
C687 C 0.73125 0.57985 0.99013 0.0
C688 C 0.60773 0.52568 0.02215 0.0
C689 C 0.58621 0.52824 1.00894 0.0
C690 C 0.63699 0.53306 0.01555 0.0
C691 C 0.64478 0.54251 0.99559 0.0
C692 C 0.62322 0.54495 0.98245 0.0
C693 C 0.59433 0.53806 0.98906 0.0
H694 H 0.40874 0.15223 0.96056 0.0
H695 H 0.50527 0.21602 0.95522 0.0
H696 H 0.42183 0.1131 0.9708 0.0
H697 H 0.51872 0.17725 0.96523 0.0
H698 H 0.52989 0.11695 0.01398 0.0
H699 H 0.51613 0.15244 0.99787 0.0
H700 H 0.44535 0.08221 0.96224 0.0
H701 H 0.45894 0.04635 0.97855 0.0
C702 C 0.43268 0.1575 0.96099 0.0
C703 C 0.45608 0.18695 0.95734 0.0
C704 C 0.44025 0.13525 0.96689 0.0
C705 C 0.47137 0.14223 0.96922 0.0
C706 C 0.49457 0.17131 0.96403 0.0
C707 C 0.48697 0.19342 0.95815 0.0
C708 C 0.51139 0.10896 1.00272 0.0
C709 C 0.4955 0.07872 0.99763 0.0
C710 C 0.50368 0.12942 0.99333 0.0
C711 C 0.47982 0.12023 0.97862 0.0
C712 C 0.46377 0.08997 0.97356 0.0
C713 C 0.47163 0.06946 0.98289 0.0
H714 H 0.71356 0.20294 0.93501 0.0
H715 H 0.76802 0.18663 0.98067 0.0
H716 H 0.66672 0.15912 0.94714 0.0
H717 H 0.72169 0.14232 0.99265 0.0
H718 H 0.63089 0.09441 0.02587 0.0
H719 H 0.67811 0.13284 1.01091 0.0
H720 H 0.63657 0.10612 0.95196 0.0
H721 H 0.58882 0.06809 0.967 0.0
C722 C 0.71547 0.18937 0.94732 0.0
C723 C 0.74415 0.19808 0.95703 0.0
C724 C 0.68872 0.16427 0.95432 0.0
C725 C 0.6902 0.14728 0.97114 0.0
C726 C 0.71941 0.15519 0.98002 0.0
C727 C 0.74602 0.18036 0.97309 0.0
C728 C 0.6318 0.09653 1.00971 0.0
C729 C 0.6059 0.0781 0.99769 0.0
C730 C 0.65908 0.11853 1.00108 0.0
C731 C 0.6614 0.12269 0.98015 0.0
C732 C 0.63562 0.10391 0.96811 0.0
C733 C 0.60824 0.08193 0.97676 0.0
H734 H 0.85318 0.6201 0.98644 0.0
H735 H 0.83388 0.56217 0.93715 0.0
H736 H 0.89704 0.61304 0.99728 0.0
H737 H 0.8782 0.55545 0.94763 0.0
H738 H 0.97427 0.56749 0.96878 0.0
H739 H 0.93819 0.5835 0.95466 0.0
H740 H 0.89346 0.56342 1.01136 0.0
H741 H 0.92919 0.54711 0.02547 0.0
C742 C 0.859 0.60652 0.97767 0.0
C743 C 0.84029 0.59144 0.96115 0.0
C744 C 0.88386 0.60237 0.98387 0.0
C745 C 0.89061 0.58337 0.97344 0.0
C746 C 0.87345 0.57027 0.95589 0.0
C747 C 0.8483 0.57418 0.94983 0.0
C748 C 0.95685 0.56668 0.97827 0.0
C749 C 0.95452 0.55607 0.99825 0.0
C750 C 0.93621 0.57575 0.97014 0.0
C751 C 0.91331 0.5749 0.98198 0.0
C752 C 0.91123 0.56466 1.00201 0.0
C753 C 0.9315 0.55511 1.01003 0.0
H754 H 0.40588 0.2642 0.97977 0.0
H755 H 0.50236 0.29997 0.96842 0.0
H756 H 0.417 0.31211 0.99341 0.0
H757 H 0.51381 0.34788 0.98205 0.0
H758 H 0.51038 0.43659 0.98064 0.0
H759 H 0.50086 0.38794 0.97035 0.0
H760 H 0.44623 0.34621 0.02248 0.0
H761 H 0.4558 0.39512 0.03291 0.0
C762 C 0.42947 0.28237 0.9804 0.0
C763 C 0.45332 0.27872 0.97313 0.0
C764 C 0.43589 0.30961 0.98827 0.0
C765 C 0.46627 0.33371 0.98875 0.0
C766 C 0.49017 0.32976 0.98173 0.0
C767 C 0.48374 0.30244 0.97406 0.0
C768 C 0.49643 0.4171 0.98999 0.0
C769 C 0.48378 0.41971 1.00758 0.0
C770 C 0.49116 0.38925 0.98414 0.0
C771 C 0.47283 0.36331 0.99562 0.0
C772 C 0.4603 0.36585 0.01329 0.0
C773 C 0.46592 0.39384 0.01931 0.0
H774 H 0.16415 0.76248 0.07604 0.0
H775 H 0.23056 0.73151 0.07822 0.0
H776 H 0.12522 0.71541 0.06152 0.0
H777 H 0.19179 0.68425 0.06363 0.0
H778 H 0.12052 0.61374 0.02075 0.0
H779 H 0.16042 0.66213 0.03294 0.0
H780 H 0.09531 0.66316 0.07273 0.0
H781 H 0.0555 0.61523 0.06048 0.0
C782 C 0.1703 0.74548 0.07338 0.0
C783 C 0.20017 0.75041 0.07832 0.0
C784 C 0.14809 0.71854 0.06511 0.0
C785 C 0.1553 0.69593 0.06152 0.0
C786 C 0.18553 0.70126 0.06601 0.0
C787 C 0.20771 0.72822 0.07437 0.0
C788 C 0.11469 0.62433 0.03205 0.0
C789 C 0.08472 0.61052 0.03959 0.0
C790 C 0.13762 0.65201 0.03912 0.0
C791 C 0.13106 0.66661 0.05377 0.0
C792 C 0.10107 0.6528 0.06123 0.0
C793 C 0.07825 0.62515 0.05427 0.0
H794 H 0.24142 0.38549 0.05829 0.0
H795 H 0.28412 0.44736 0.10597 0.0
H796 H 0.29183 0.40106 0.04496 0.0
H797 H 0.33493 0.46046 0.09442 0.0
H798 H 0.4164 0.51154 0.0552 0.0
H799 H 0.36616 0.49048 0.07002 0.0
H800 H 0.33935 0.40548 0.04373 0.0
H801 H 0.38905 0.42789 0.02753 0.0
C802 C 0.26183 0.40178 0.06626 0.0
C803 C 0.25895 0.41578 0.08282 0.0
C804 C 0.29088 0.41058 0.05877 0.0
C805 C 0.31784 0.4329 0.06816 0.0
C806 C 0.31484 0.44425 0.08616 0.0
C807 C 0.2857 0.43614 0.09321 0.0
C808 C 0.39943 0.4885 0.05238 0.0
C809 C 0.40624 0.4714 0.04006 0.0
C810 C 0.37075 0.47611 0.0612 0.0
C811 C 0.34847 0.4459 0.05852 0.0
C812 C 0.35548 0.42887 0.04602 0.0
C813 C 0.38395 0.44164 0.03667 0.0
H814 H 0.60762 0.86091 0.08773 0.0
H815 H 0.5094 0.80411 0.07924 0.0
H816 H 0.60195 0.905 0.07869 0.0
H817 H 0.5039 0.84786 0.06921 0.0
H818 H 0.52615 0.92732 0.0217 0.0
H819 H 0.53266 0.88585 0.03576 0.0
H820 H 0.5656 0.93083 0.09171 0.0
H821 H 0.5583 0.97225 0.07786 0.0
C822 C 0.5848 0.85798 0.08434 0.0
C823 C 0.55895 0.8292 0.08398 0.0
C824 C 0.58159 0.88308 0.07908 0.0
C825 C 0.55255 0.87961 0.07309 0.0
C826 C 0.52655 0.85098 0.07361 0.0
C827 C 0.52969 0.82605 0.07925 0.0
C828 C 0.53494 0.9285 0.03696 0.0
C829 C 0.54173 0.95302 0.04868 0.0
C830 C 0.53849 0.90472 0.04501 0.0
C831 C 0.54951 0.90526 0.06478 0.0
C832 C 0.55707 0.93003 0.07641 0.0
C833 C 0.55284 0.95359 0.0685 0.0
H834 H 0.98428 0.17534 0.44733 0.0
H835 H 0.93845 0.19423 0.39705 0.0
H836 H 0.03446 0.21545 0.43567 0.0
H837 H 0.9883 0.23353 0.38499 0.0
H838 H 0.08301 0.26268 0.35624 0.0
H839 H 0.0333 0.22858 0.37108 0.0
H840 H 0.06624 0.27321 0.42717 0.0
H841 H 0.11587 0.30774 0.41226 0.0
C842 C 0.98494 0.18868 0.43412 0.0
C843 C 0.95764 0.18162 0.42298 0.0
C844 C 0.01359 0.21143 0.42733 0.0
C845 C 0.01537 0.22722 0.40916 0.0
C846 C 0.98777 0.22139 0.39881 0.0
C847 C 0.95925 0.19907 0.40575 0.0
C848 C 0.07968 0.26528 0.37172 0.0
C849 C 0.10343 0.28805 0.38299 0.0
C850 C 0.05113 0.24585 0.3802 0.0
C851 C 0.04578 0.2483 0.40028 0.0
C852 C 0.06966 0.27074 0.41168 0.0
C853 C 0.09802 0.29059 0.40308 0.0
H854 H 0.80663 0.7451 0.41713 0.0
H855 H 0.87853 0.83656 0.40888 0.0
H856 H 0.76819 0.75869 0.40353 0.0
H857 H 0.84046 0.84977 0.39422 0.0
H858 H 0.76112 0.84241 0.3476 0.0
H859 H 0.79832 0.82686 0.36047 0.0
H860 H 0.75405 0.80246 0.4174 0.0
H861 H 0.7174 0.81873 0.40486 0.0
C862 C 0.81411 0.76804 0.41237 0.0
C863 C 0.84539 0.78983 0.414 0.0
C864 C 0.79229 0.77572 0.40453 0.0
C865 C 0.80165 0.80515 0.39779 0.0
C866 C 0.83293 0.82687 0.39916 0.0
C867 C 0.8546 0.81933 0.40743 0.0
C868 C 0.75928 0.83359 0.36282 0.0
C869 C 0.73651 0.83181 0.37527 0.0
C870 C 0.78052 0.82483 0.37014 0.0
C871 C 0.77875 0.8135 0.38982 0.0
C872 C 0.75561 0.81104 0.40213 0.0
C873 C 0.73484 0.82045 0.39499 0.0
H874 H 0.17388 0.04964 0.39641 0.0
H875 H 0.26178 0.06188 0.41941 0.0
H876 H 0.1615 1.00087 0.38363 0.0
H877 H 0.2489 0.0126 0.40754 0.0
H878 H 0.19028 0.90766 0.40704 0.0
H879 H 0.20296 0.95734 0.4177 0.0
H880 H 0.18727 0.98126 0.35725 0.0
H881 H 0.17522 0.93175 0.34637 0.0
C882 C 0.19057 0.04192 0.39855 0.0
C883 C 0.21868 0.05927 0.40892 0.0
C884 C 0.18349 0.01412 0.39135 0.0
C885 C 0.20419 1.00305 0.39478 0.0
C886 C 0.23246 0.02058 0.40493 0.0
C887 C 0.23977 0.04861 0.41173 0.0
C888 C 0.18947 0.92348 0.39602 0.0
C889 C 0.18184 0.91588 0.37587 0.0
C890 C 0.19686 0.95189 0.40211 0.0
C891 C 0.19612 0.97298 0.38825 0.0
C892 C 0.1879 0.96526 0.36818 0.0
C893 C 0.18115 0.93705 0.36199 0.0
H894 H 0.51324 0.61694 0.32087 0.0
H895 H 0.48153 0.65929 0.27583 0.0
H896 H 0.55084 0.66594 0.33365 0.0
H897 H 0.5187 0.70844 0.28857 0.0
H898 H 0.61193 0.79141 0.3022 0.0
H899 H 0.57343 0.74263 0.2901 0.0
H900 H 0.55563 0.70795 0.35099 0.0
H901 H 0.59459 0.75649 0.36308 0.0
C902 C 0.51416 0.63684 0.31391 0.0
C903 C 0.49465 0.63451 0.29741 0.0
C904 C 0.5356 0.6649 0.3212 0.0
C905 C 0.53794 0.69126 0.31212 0.0
C906 C 0.51797 0.68873 0.29573 0.0
C907 C 0.49659 0.66066 0.28847 0.0
C908 C 0.59977 0.77342 0.31303 0.0
C909 C 0.60646 0.77797 0.33363 0.0
C910 C 0.57752 0.74543 0.30608 0.0
C911 C 0.56133 0.72124 0.31955 0.0
C912 C 0.56791 0.72588 0.34016 0.0
C913 C 0.59018 0.75384 0.3471 0.0
H914 H 0.38947 0.88911 0.28878 0.0
H915 H 0.42127 0.95811 0.33201 0.0
H916 H 0.33741 0.866 0.30175 0.0
H917 H 0.36885 0.9357 0.3449 0.0
H918 H 0.27536 0.87158 0.373 0.0
H919 H 0.32863 0.89198 0.36258 0.0
H920 H 0.29662 0.87816 0.30078 0.0
H921 H 0.24388 0.85726 0.31105 0.0
C922 C 0.38499 0.8993 0.30103 0.0
C923 C 0.40879 0.92539 0.30933 0.0
C924 C 0.35535 0.88623 0.30844 0.0
C925 C 0.34893 0.89922 0.32421 0.0
C926 C 0.37312 0.92505 0.33284 0.0
C927 C 0.40291 0.93799 0.32546 0.0
C928 C 0.27976 0.87277 0.35721 0.0
C929 C 0.25536 0.86265 0.34289 0.0
C930 C 0.31025 0.88459 0.35125 0.0
C931 C 0.3168 0.88652 0.33087 0.0
C932 C 0.29234 0.87644 0.31662 0.0
C933 C 0.26203 0.86457 0.32254 0.0
H934 H 0.1789 0.5472 0.28848 0.0
H935 H 0.08196 0.48532 0.29445 0.0
H936 H 0.19114 0.50777 0.29901 0.0
H937 H 0.09384 0.44552 0.30507 0.0
H938 H 0.1288 0.37714 0.31309 0.0
H939 H 0.11643 0.41361 0.29646 0.0
H940 H 0.18765 0.48326 0.33222 0.0
H941 H 0.20018 0.4471 0.34872 0.0
C942 C 0.16024 0.52487 0.29167 0.0
C943 C 0.12959 0.51914 0.29091 0.0
C944 C 0.16716 0.50239 0.29782 0.0
C945 C 0.14349 0.47368 0.30327 0.0
C946 C 0.11259 0.46739 0.30096 0.0
C947 C 0.10572 0.49001 0.29483 0.0
C948 C 0.14183 0.40024 0.31741 0.0
C949 C 0.16546 0.40915 0.3323 0.0
C950 C 0.13469 0.4211 0.30788 0.0
C951 C 0.15123 0.45135 0.31289 0.0
C952 C 0.17483 0.46021 0.32775 0.0
C953 C 0.18182 0.43939 0.33736 0.0
H954 H 0.43564 0.51758 0.3138 0.0
H955 H 0.37991 0.53405 0.26922 0.0
H956 H 0.38977 0.47279 0.3258 0.0
H957 H 0.33355 0.48977 0.28139 0.0
H958 H 0.2564 0.39839 0.30118 0.0
H959 H 0.30375 0.43674 0.28591 0.0
H960 H 0.34653 0.46268 0.34466 0.0
H961 H 0.29968 0.42391 0.35983 0.0
C962 C 0.41346 0.51121 0.30643 0.0
C963 C 0.41111 0.52911 0.29068 0.0
C964 C 0.38712 0.48579 0.31339 0.0
C965 C 0.35769 0.47779 0.30485 0.0
C966 C 0.35572 0.49497 0.2883 0.0
C967 C 0.38221 0.52032 0.28127 0.0
C968 C 0.276 0.41213 0.31084 0.0
C969 C 0.27412 0.40799 0.33178 0.0
C970 C 0.30316 0.43428 0.30206 0.0
C971 C 0.32916 0.45296 0.31398 0.0
C972 C 0.32731 0.44847 0.33491 0.0
C973 C 0.30025 0.42628 0.34367 0.0
H974 H 0.50356 0.91604 0.27482 0.0
H975 H 0.53181 0.97561 0.32408 0.0
H976 H 0.54403 0.90332 0.28441 0.0
H977 H 0.57168 0.96222 0.3342 0.0
H978 H 0.5936 0.88778 0.36077 0.0
H979 H 0.56178 0.90935 0.34772 0.0
H980 H 0.60427 0.92634 0.29041 0.0
H981 H 0.63649 0.90516 0.30346 0.0
C982 C 0.5192 0.92718 0.28726 0.0
C983 C 0.51477 0.94675 0.29877 0.0
C984 C 0.54211 0.91975 0.29286 0.0
C985 C 0.56056 0.9315 0.3102 0.0
C986 C 0.55744 0.9526 0.32092 0.0
C987 C 0.53488 0.96036 0.31512 0.0
C988 C 0.59618 0.89614 0.34541 0.0
C989 C 0.6175 0.89479 0.33315 0.0
C990 C 0.5782 0.90872 0.33801 0.0
C991 C 0.58085 0.91969 0.31813 0.0
C992 C 0.60192 0.91809 0.3058 0.0
C993 C 0.62032 0.90602 0.3133 0.0
H994 H 0.15151 0.63891 0.27894 0.0
H995 H 0.10852 0.59309 0.33371 0.0
H996 H 0.16117 0.68644 0.29222 0.0
H997 H 0.11846 0.64067 0.34733 0.0
H998 H 0.16985 0.73917 0.36908 0.0
H999 H 0.16359 0.69203 0.3573 0.0
H1000 H 0.1257 0.70604 0.30093 0.0
H1001 H 0.13181 0.75276 0.31253 0.0
C1002 C 0.14441 0.63925 0.29391 0.0
C1003 C 0.12943 0.61269 0.30541 0.0
C1004 C 0.14983 0.66626 0.30149 0.0
C1005 C 0.14049 0.66718 0.32079 0.0
C1006 C 0.12617 0.64062 0.33249 0.0
C1007 C 0.12047 0.61352 0.32478 0.0
C1008 C 0.1602 0.73214 0.35418 0.0
C1009 C 0.15127 0.74967 0.34177 0.0
C1010 C 0.15651 0.70515 0.34749 0.0
C1011 C 0.14432 0.69553 0.32818 0.0
C1012 C 0.1355 0.7131 0.3158 0.0
C1013 C 0.1388 0.73977 0.32254 0.0
H1014 H 0.89533 0.06149 0.41155 0.0
H1015 H 0.83114 0.09482 0.41215 0.0
H1016 H 0.85492 0.01487 0.39697 0.0
H1017 H 0.79057 0.04854 0.39749 0.0
H1018 H 0.71846 0.94918 0.39522 0.0
H1019 H 0.7596 0.99615 0.40783 0.0
H1020 H 0.82242 0.99432 0.36645 0.0
H1021 H 0.78116 0.94686 0.35388 0.0
C1022 C 0.87254 0.05878 0.40833 0.0
C1023 C 0.86611 0.08147 0.41286 0.0
C1024 C 0.84946 0.03226 0.39995 0.0
C1025 C 0.81943 0.02789 0.3961 0.0
C1026 C 0.81328 0.05095 0.40049 0.0
C1027 C 0.8364 0.07745 0.40876 0.0
C1028 C 0.74098 0.95872 0.38871 0.0
C1029 C 0.74639 0.94413 0.37347 0.0
C1030 C 0.76458 0.98584 0.3959 0.0
C1031 C 0.79433 0.99913 0.38812 0.0
C1032 C 0.79984 0.98458 0.37289 0.0
C1033 C 0.77612 0.95745 0.3656 0.0
H1034 H 0.92515 0.73593 0.42261 0.0
H1035 H 0.9635 0.83131 0.42426 0.0
H1036 H 0.97309 0.74297 0.4086 0.0
H1037 H 0.01144 0.83873 0.41039 0.0
H1038 H 0.06934 0.83942 0.35937 0.0
H1039 H 0.02307 0.83007 0.37646 0.0
H1040 H 0.02971 0.76304 0.41469 0.0
H1041 H 0.07565 0.77203 0.39755 0.0
C1042 C 0.94435 0.75833 0.42058 0.0
C1043 C 0.94099 0.78312 0.42439 0.0
C1044 C 0.9716 0.76244 0.41245 0.0
C1045 C 0.99572 0.79143 0.40799 0.0
C1046 C 0.99298 0.81615 0.41321 0.0
C1047 C 0.96586 0.81199 0.42137 0.0
C1048 C 0.06073 0.82244 0.37124 0.0
C1049 C 0.07622 0.80652 0.37706 0.0
C1050 C 0.03444 0.81731 0.38118 0.0
C1051 C 0.02302 0.79606 0.39708 0.0
C1052 C 0.03792 0.77948 0.40248 0.0
C1053 C 0.06429 0.78472 0.39263 0.0
H1054 H 0.19526 0.14985 0.43546 0.0
H1055 H 0.27241 0.17928 0.39712 0.0
H1056 H 0.19101 0.19434 0.42555 0.0
H1057 H 0.26876 0.22409 0.38717 0.0
H1058 H 0.22212 0.27294 0.35366 0.0
H1059 H 0.23216 0.23336 0.36671 0.0
H1060 H 0.21563 0.24875 0.42655 0.0
H1061 H 0.20506 0.28814 0.41348 0.0
C1062 C 0.21158 0.16627 0.42514 0.0
C1063 C 0.23378 0.16124 0.41673 0.0
C1064 C 0.2093 0.19171 0.4195 0.0
C1065 C 0.22932 0.21261 0.40536 0.0
C1066 C 0.25259 0.20815 0.39776 0.0
C1067 C 0.25482 0.18271 0.40346 0.0
C1068 C 0.22077 0.26805 0.36962 0.0
C1069 C 0.21265 0.28368 0.38249 0.0
C1070 C 0.22677 0.24546 0.37713 0.0
C1071 C 0.22476 0.23791 0.39769 0.0
C1072 C 0.21708 0.25383 0.41062 0.0
C1073 C 0.21115 0.27649 0.40311 0.0
H1074 H 0.64488 0.50634 0.77721 0.0
H1075 H 0.59688 0.52847 0.73002 0.0
H1076 H 0.69436 0.54685 0.76543 0.0
H1077 H 0.64602 0.56933 0.71822 0.0
H1078 H 0.7387 0.6088 0.68665 0.0
H1079 H 0.68915 0.57338 0.70091 0.0
H1080 H 0.72848 0.59954 0.76037 0.0
H1081 H 0.77808 0.63441 0.74618 0.0
C1082 C 0.64497 0.52063 0.76473 0.0
C1083 C 0.61722 0.51444 0.75453 0.0
C1084 C 0.67327 0.54375 0.75785 0.0
C1085 C 0.67437 0.56118 0.74061 0.0
C1086 C 0.64625 0.55601 0.73122 0.0
C1087 C 0.61806 0.53291 0.7381 0.0
C1088 C 0.7368 0.60706 0.70276 0.0
C1089 C 0.76257 0.6245 0.71519 0.0
C1090 C 0.70825 0.58686 0.71097 0.0
C1091 C 0.70461 0.58354 0.73186 0.0
C1092 C 0.73036 0.60115 0.74426 0.0
C1093 C 0.75888 0.62132 0.73606 0.0
H1094 H 0.4946 0.07896 0.71437 0.0
H1095 H 0.51173 0.12788 0.76825 0.0
H1096 H 0.45962 0.09738 0.70162 0.0
H1097 H 0.47627 0.14571 0.7559 0.0
H1098 H 0.38372 0.14068 0.73551 0.0
H1099 H 0.41827 0.12185 0.74754 0.0
H1100 H 0.46485 0.14878 0.69136 0.0
H1101 H 0.43033 0.1678 0.67923 0.0
C1102 C 0.49069 0.09358 0.72343 0.0
C1103 C 0.50541 0.10185 0.74229 0.0
C1104 C 0.47086 0.10413 0.7162 0.0
C1105 C 0.46525 0.12284 0.72785 0.0
C1106 C 0.47993 0.13099 0.74676 0.0
C1107 C 0.50004 0.12075 0.75385 0.0
C1108 C 0.40125 0.14252 0.72568 0.0
C1109 C 0.40433 0.1557 0.70642 0.0
C1110 C 0.4211 0.13189 0.73263 0.0
C1111 C 0.44413 0.1339 0.72035 0.0
C1112 C 0.44708 0.14681 0.70103 0.0
C1113 C 0.42748 0.15783 0.69417 0.0
H1114 H 0.83805 0.38581 0.74068 0.0
H1115 H 0.93517 0.41481 0.73823 0.0
H1116 H 0.82563 0.33747 0.72727 0.0
H1117 H 0.92307 0.36655 0.72506 0.0
H1118 H 0.88785 0.26551 0.72878 0.0
H1119 H 0.89941 0.31465 0.73914 0.0
H1120 H 0.8307 0.31378 0.69663 0.0
H1121 H 0.81884 0.26417 0.6862 0.0
C1122 C 0.85666 0.38185 0.73701 0.0
C1123 C 0.88751 0.40376 0.74056 0.0
C1124 C 0.84964 0.3543 0.72935 0.0
C1125 C 0.87338 0.34815 0.72525 0.0
C1126 C 0.90427 0.37046 0.72836 0.0
C1127 C 0.91123 0.39801 0.73588 0.0
C1128 C 0.87515 0.27569 0.72157 0.0
C1129 C 0.85241 0.26084 0.70662 0.0
C1130 C 0.88196 0.304 0.72744 0.0
C1131 C 0.8661 0.31817 0.71863 0.0
C1132 C 0.8432 0.30333 0.70376 0.0
C1133 C 0.83653 0.275 0.69773 0.0
H1134 H 0.16488 0.98493 0.6029 0.0
H1135 H 0.16999 0.94483 0.65999 0.0
H1136 H 0.2029 0.03441 0.615 0.0
H1137 H 0.20754 0.99427 0.67242 0.0
H1138 H 0.24831 0.09206 0.69239 0.0
H1139 H 0.20975 0.0431 0.68026 0.0
H1140 H 0.25938 0.06108 0.6257 0.0
H1141 H 0.29803 0.10996 0.6378 0.0
C1142 C 0.17415 0.98687 0.61808 0.0
C1143 C 0.16443 0.9613 0.63062 0.0
C1144 C 0.1959 0.01506 0.625 0.0
C1145 C 0.20817 0.01827 0.6447 0.0
C1146 C 0.19823 0.9926 0.65726 0.0
C1147 C 0.17678 0.96437 0.65022 0.0
C1148 C 0.25099 0.08563 0.67779 0.0
C1149 C 0.27632 0.10497 0.66609 0.0
C1150 C 0.22897 0.05749 0.67089 0.0
C1151 C 0.23151 0.04821 0.65202 0.0
C1152 C 0.25664 0.06767 0.64023 0.0
C1153 C 0.27888 0.09562 0.64723 0.0
H1154 H 0.06177 0.20877 0.64209 0.0
H1155 H 0.08755 0.30135 0.64776 0.0
H1156 H 0.01175 0.1935 0.65653 0.0
H1157 H 0.03737 0.28635 0.66207 0.0
H1158 H 0.9306 0.24439 0.65833 0.0
H1159 H 0.98318 0.26147 0.64846 0.0
H1160 H 0.98793 0.19496 0.68833 0.0
H1161 H 0.93494 0.17751 0.6982 0.0
C1162 C 0.05674 0.22576 0.64674 0.0
C1163 C 0.07822 0.25614 0.64392 0.0
C1164 C 0.02826 0.21711 0.655 0.0
C1165 C 0.02074 0.23876 0.66044 0.0
C1166 C 0.0425 0.26921 0.65786 0.0
C1167 C 0.07106 0.27781 0.6497 0.0
C1168 C 0.94286 0.23348 0.66513 0.0
C1169 C 0.92853 0.20946 0.67898 0.0
C1170 C 0.97308 0.24345 0.65957 0.0
C1171 C 0.98959 0.22953 0.66763 0.0
C1172 C 0.97557 0.20592 0.68178 0.0
C1173 C 0.94534 0.19605 0.68749 0.0
H1174 H 0.74466 0.83543 0.65088 0.0
H1175 H 0.81564 0.86389 0.60765 0.0
H1176 H 0.75309 0.79369 0.66176 0.0
H1177 H 0.82473 0.82257 0.61854 0.0
H1178 H 0.82305 0.73514 0.63613 0.0
H1179 H 0.80591 0.7692 0.62156 0.0
H1180 H 0.79421 0.79093 0.68084 0.0
H1181 H 0.81068 0.75648 0.69539 0.0
C1182 C 0.76163 0.83223 0.64347 0.0
C1183 C 0.77959 0.85268 0.62853 0.0
C1184 C 0.76671 0.80861 0.64978 0.0
C1185 C 0.78998 0.80505 0.64128 0.0
C1186 C 0.80651 0.82448 0.62535 0.0
C1187 C 0.80131 0.84807 0.61904 0.0
C1188 C 0.81668 0.74706 0.64608 0.0
C1189 C 0.81837 0.74311 0.66697 0.0
C1190 C 0.80693 0.76668 0.6377 0.0
C1191 C 0.79859 0.78278 0.64999 0.0
C1192 C 0.79993 0.77852 0.67088 0.0
C1193 C 0.80966 0.75892 0.67926 0.0
H1194 H 0.04575 0.88756 0.61739 0.0
H1195 H 0.08742 0.83138 0.62552 0.0
H1196 H 0.99679 0.84668 0.62941 0.0
H1197 H 0.03833 0.79003 0.63749 0.0
H1198 H 0.93589 0.71683 0.64682 0.0
H1199 H 0.98207 0.75434 0.62964 0.0
H1200 H 0.98167 0.82365 0.66322 0.0
H1201 H 0.93584 0.78651 0.68029 0.0
C1202 C 0.04414 0.86619 0.62147 0.0
C1203 C 0.07028 0.8626 0.62081 0.0
C1204 C 0.01624 0.84283 0.62844 0.0
C1205 C 0.01379 0.81523 0.6348 0.0
C1206 C 0.03941 0.81097 0.63272 0.0
C1207 C 0.06744 0.83451 0.62581 0.0
C1208 C 0.94571 0.74007 0.65057 0.0
C1209 C 0.93213 0.74858 0.66503 0.0
C1210 C 0.9722 0.76155 0.64073 0.0
C1211 C 0.98546 0.79204 0.64493 0.0
C1212 C 0.9718 0.80045 0.65936 0.0
C1213 C 0.9456 0.77905 0.6693 0.0
H1214 H 0.20841 0.30635 0.63831 0.0
H1215 H 0.15079 0.2164 0.61881 0.0
H1216 H 0.25001 0.29482 0.64771 0.0
H1217 H 0.1921 0.2046 0.62786 0.0
H1218 H 0.2817 0.2007 0.63461 0.0
H1219 H 0.24726 0.21825 0.62019 0.0
H1220 H 0.25176 0.25944 0.67577 0.0
H1221 H 0.28624 0.24182 0.69037 0.0
C1222 C 0.20525 0.28444 0.63546 0.0
C1223 C 0.17693 0.26223 0.62776 0.0
C1224 C 0.2287 0.27773 0.64099 0.0
C1225 C 0.22412 0.24878 0.63862 0.0
C1226 C 0.19633 0.22715 0.62971 0.0
C1227 C 0.17281 0.2338 0.62448 0.0
C1228 C 0.27548 0.21359 0.64379 0.0
C1229 C 0.28651 0.21967 0.66373 0.0
C1230 C 0.25577 0.22362 0.63548 0.0
C1231 C 0.24698 0.24025 0.64684 0.0
C1232 C 0.25852 0.24695 0.66662 0.0
C1233 C 0.27799 0.23662 0.67503 0.0
H1234 H 0.83655 0.98037 0.62127 0.0
H1235 H 0.75929 0.93511 0.66001 0.0
H1236 H 0.8489 0.02838 0.6349 0.0
H1237 H 0.77074 0.98315 0.67345 0.0
H1238 H 0.81429 0.07354 0.70361 0.0
H1239 H 0.8064 0.02536 0.69308 0.0
H1240 H 0.82713 0.06066 0.63244 0.0
H1241 H 0.83582 0.10868 0.64297 0.0
C1242 C 0.82232 0.98092 0.63277 0.0
C1243 C 0.79696 0.95443 0.63958 0.0
C1244 C 0.82918 1.00829 0.64052 0.0
C1245 C 0.81059 1.0097 0.65512 0.0
C1246 C 0.78571 0.98288 0.66237 0.0
C1247 C 0.77903 0.95545 0.65468 0.0
C1248 C 0.8173 0.07101 0.68806 0.0
C1249 C 0.82575 0.095 0.67416 0.0
C1250 C 0.81264 0.04336 0.682 0.0
C1251 C 0.81626 0.03914 0.66192 0.0
C1252 C 0.82475 0.06322 0.64809 0.0
C1253 C 0.82953 0.09078 0.65414 0.0
H1254 H 0.51377 0.43048 0.72159 0.0
H1255 H 0.54078 0.38547 0.76755 0.0
H1256 H 0.47559 0.38219 0.70808 0.0
H1257 H 0.50328 0.33707 0.75401 0.0
H1258 H 0.40959 0.2565 0.73948 0.0
H1259 H 0.44894 0.30463 0.75171 0.0
H1260 H 0.46854 0.33938 0.6909 0.0
H1261 H 0.42841 0.29131 0.67864 0.0
C1262 C 0.51168 0.41012 0.72859 0.0
C1263 C 0.52994 0.41148 0.7456 0.0
C1264 C 0.48995 0.38248 0.72087 0.0
C1265 C 0.48615 0.35558 0.72998 0.0
C1266 C 0.50506 0.35719 0.74681 0.0
C1267 C 0.52664 0.38482 0.75454 0.0
C1268 C 0.42229 0.27434 0.72867 0.0
C1269 C 0.41573 0.26996 0.70804 0.0
C1270 C 0.44508 0.30198 0.73571 0.0
C1271 C 0.46211 0.32601 0.72233 0.0
C1272 C 0.45566 0.32156 0.70168 0.0
C1273 C 0.43273 0.2939 0.69463 0.0
H1274 H 0.62217 0.114 0.77408 0.0
H1275 H 0.57965 0.06378 0.72111 0.0
H1276 H 0.67295 0.12702 0.76238 0.0
H1277 H 0.63022 0.07908 0.70816 0.0
H1278 H 0.7269 0.10321 0.69128 0.0
H1279 H 0.67654 0.0802 0.70671 0.0
H1280 H 0.70613 0.16064 0.73972 0.0
H1281 H 0.75674 0.18222 0.7254 0.0
C1282 C 0.62371 0.10511 0.76016 0.0
C1283 C 0.59711 0.08791 0.74847 0.0
C1284 C 0.65288 0.11322 0.7531 0.0
C1285 C 0.65605 0.10503 0.73392 0.0
C1286 C 0.62908 0.08589 0.72297 0.0
C1287 C 0.59999 0.07716 0.73032 0.0
C1288 C 0.72231 0.11589 0.70172 0.0
C1289 C 0.74548 0.14447 0.7071 0.0
C1290 C 0.69347 0.10275 0.71064 0.0
C1291 C 0.68704 0.11828 0.72477 0.0
C1292 C 0.71023 0.14737 0.72952 0.0
C1293 C 0.73918 0.16008 0.72103 0.0
H1294 H 0.94143 0.53192 0.75229 0.0
H1295 H 0.84292 0.475 0.75458 0.0
H1296 H 0.93409 0.57479 0.74253 0.0
H1297 H 0.83523 0.51754 0.74496 0.0
H1298 H 0.83439 0.58489 0.69792 0.0
H1299 H 0.84282 0.54543 0.71299 0.0
H1300 H 0.91452 0.60897 0.75191 0.0
H1301 H 0.90625 0.64893 0.73664 0.0
C1302 C 0.91827 0.52889 0.7512 0.0
C1303 C 0.89268 0.50034 0.75395 0.0
C1304 C 0.91401 0.55331 0.7456 0.0
C1305 C 0.88405 0.54944 0.74264 0.0
C1306 C 0.85858 0.52112 0.74669 0.0
C1307 C 0.86289 0.49685 0.75229 0.0
C1308 C 0.85198 0.5906 0.70969 0.0
C1309 C 0.86966 0.62016 0.71603 0.0
C1310 C 0.85663 0.56785 0.71846 0.0
C1311 C 0.87913 0.57399 0.7338 0.0
C1312 C 0.89706 0.60357 0.74009 0.0
C1313 C 0.89228 0.62642 0.73135 0.0
H1314 H 0.52688 1.005 0.26975 0.0
H1315 H 0.45708 0.92174 0.24559 0.0
H1316 H 0.54538 0.02403 0.23589 0.0
H1317 H 0.47546 0.94012 0.21184 0.0
H1318 H 0.48192 0.99909 0.15677 0.0
H1319 H 0.47079 0.97797 0.19062 0.0
H1320 H 0.56852 0.0191 0.20509 0.0
H1321 H 0.57973 0.04104 0.17113 0.0
C1322 C 0.51621 0.99058 0.25716 0.0
C1323 C 0.49049 0.9622 0.25998 0.0
C1324 C 0.52666 1.00135 0.23785 0.0
C1325 C 0.51144 0.98376 0.22116 0.0
C1326 C 0.48718 0.95446 0.22433 0.0
C1327 C 0.47679 0.94383 0.24356 0.0
C1328 C 0.50106 1.00386 0.16719 0.0
C1329 C 0.53169 0.02186 0.16129 0.0
C1330 C 0.4947 0.9914 0.18653 0.0
C1331 C 0.5188 0.99662 0.20049 0.0
C1332 C 0.54949 0.01472 0.19467 0.0
C1333 C 0.55588 0.0271 0.17521 0.0
H1334 H 0.13629 0.55483 0.24284 0.0
H1335 H 0.04605 0.50647 0.26773 0.0
H1336 H 0.11362 0.53988 0.2092 0.0
H1337 H 0.0229 0.4907 0.23426 0.0
H1338 H 0.99432 0.51654 0.17289 0.0
H1339 H 0.01573 0.51928 0.20664 0.0
H1340 H 0.08505 0.50136 0.1847 0.0
H1341 H 0.06343 0.49847 0.15075 0.0
C1342 C 0.11168 0.53988 0.24106 0.0
C1343 C 0.09279 0.53153 0.25764 0.0
C1344 C 0.09861 0.53139 0.22186 0.0
C1345 C 0.06634 0.51446 0.21897 0.0
C1346 C 0.04777 0.50419 0.2359 0.0
C1347 C 0.06091 0.51276 0.25506 0.0
C1348 C 0.01378 0.51265 0.17525 0.0
C1349 C 0.02713 0.50731 0.15904 0.0
C1350 C 0.02605 0.51413 0.19467 0.0
C1351 C 0.05203 0.51034 0.19845 0.0
C1352 C 0.06518 0.50462 0.1823 0.0
C1353 C 0.05286 0.50308 0.16283 0.0
H1354 H 0.45935 0.52225 0.26361 0.0
H1355 H 0.42676 0.57749 0.23288 0.0
H1356 H 0.46256 0.50297 0.23159 0.0
H1357 H 0.42895 0.5579 0.20081 0.0
H1358 H 0.48562 0.5557 0.14948 0.0
H1359 H 0.47134 0.56662 0.18088 0.0
H1360 H 0.43856 0.47527 0.20165 0.0
H1361 H 0.45306 0.46436 0.1701 0.0
C1362 C 0.4517 0.52927 0.24998 0.0
C1363 C 0.44278 0.5512 0.25054 0.0
C1364 C 0.45363 0.5184 0.23163 0.0
C1365 C 0.44658 0.5293 0.21351 0.0
C1366 C 0.43529 0.54954 0.21437 0.0
C1367 C 0.43356 0.56045 0.23269 0.0
C1368 C 0.47495 0.53778 0.16059 0.0
C1369 C 0.47056 0.50916 0.1572 0.0
C1370 C 0.46664 0.54402 0.17864 0.0
C1371 C 0.45358 0.52179 0.19385 0.0
C1372 C 0.44883 0.49303 0.19039 0.0
C1373 C 0.45721 0.48679 0.1723 0.0
H1374 H 0.88842 0.47984 0.80063 0.0
H1375 H 0.97556 0.49974 0.77705 0.0
H1376 H 0.9141 0.50078 0.83274 0.0
H1377 H 1.00183 0.52174 0.8087 0.0
H1378 H 0.02664 0.51079 0.87407 0.0
H1379 H 1.00355 0.49996 0.84061 0.0
H1380 H 0.94992 0.5426 0.85255 0.0
H1381 H 0.973 0.5532 0.88637 0.0
C1382 C 0.91328 0.48973 0.80223 0.0
C1383 C 0.93019 0.48827 0.78663 0.0
C1384 C 0.92804 0.50168 0.82054 0.0
C1385 C 0.96002 0.51249 0.82346 0.0
C1386 C 0.9771 0.51295 0.80718 0.0
C1387 C 0.96226 0.50075 0.78901 0.0
C1388 C 0.0103 0.51831 0.86949 0.0
C1389 C 1.0018 0.53299 0.88289 0.0
C1390 C 0.99707 0.51217 0.85023 0.0
C1391 C 0.97503 0.52064 0.84374 0.0
C1392 C 0.96663 0.53554 0.85708 0.0
C1393 C 0.97984 0.54161 0.87646 0.0
H1394 H 0.60163 0.47054 0.81038 0.0
H1395 H 0.55796 0.51734 0.78149 0.0
H1396 H 0.59486 0.48535 0.84309 0.0
H1397 H 0.54983 0.53146 0.81407 0.0
H1398 H 0.54608 0.56013 0.87642 0.0
H1399 H 0.56666 0.55676 0.84488 0.0
H1400 H 0.55132 0.46872 0.8631 0.0
H1401 H 0.53129 0.47234 0.89456 0.0
C1402 C 0.59165 0.48504 0.8111 0.0
C1403 C 0.58078 0.49328 0.79352 0.0
C1404 C 0.58712 0.49304 0.82981 0.0
C1405 C 0.57111 0.50909 0.83139 0.0
C1406 C 0.56241 0.51929 0.81358 0.0
C1407 C 0.56724 0.51146 0.79486 0.0
C1408 C 0.54716 0.54008 0.87369 0.0
C1409 C 0.53695 0.51649 0.8881 0.0
C1410 C 0.559 0.53814 0.85557 0.0
C1411 C 0.56087 0.51252 0.85131 0.0
C1412 C 0.55103 0.48915 0.8659 0.0
C1413 C 0.53936 0.49115 0.88401 0.0
H1414 H 0.53938 0.02041 0.78162 0.0
H1415 H 0.58496 0.11173 0.79972 0.0
H1416 H 0.53834 1.00348 0.81661 0.0
H1417 H 0.58514 0.0954 0.83462 0.0
H1418 H 0.54777 0.98321 0.88313 0.0
H1419 H 0.5634 1.00123 0.84886 0.0
H1420 H 0.54103 0.07148 0.85594 0.0
H1421 H 0.52533 0.0535 0.88988 0.0
C1422 C 0.55075 0.03684 0.79307 0.0
C1423 C 0.56272 0.06729 0.78813 0.0
C1424 C 0.54999 0.02725 0.8131 0.0
C1425 C 0.56114 0.04809 0.82846 0.0
C1426 C 0.57583 0.07875 0.8232 0.0
C1427 C 0.57634 0.0882 0.80324 0.0
C1428 C 0.54614 1.00247 0.87733 0.0
C1429 C 0.53528 0.01691 0.8893 0.0
C1430 C 0.55524 0.01286 0.85773 0.0
C1431 C 0.55382 0.03799 0.84971 0.0
C1432 C 0.54323 0.05254 0.86177 0.0
C1433 C 0.5341 0.04215 0.88127 0.0
H1434 H 0.17316 0.34228 0.60289 0.0
H1435 H 0.15474 0.2562 0.58382 0.0
H1436 H 0.19409 0.36453 0.57018 0.0
H1437 H 0.17465 0.27778 0.55082 0.0
H1438 H 0.22673 0.32827 0.49562 0.0
H1439 H 0.21715 0.31059 0.53046 0.0
H1440 H 0.17168 0.36268 0.53765 0.0
H1441 H 0.18179 0.38066 0.50307 0.0
C1442 C 0.17419 0.32836 0.59168 0.0
C1443 C 0.16254 0.29772 0.59566 0.0
C1444 C 0.1858 0.34089 0.57293 0.0
C1445 C 0.18563 0.32288 0.55772 0.0
C1446 C 0.17544 0.29241 0.56219 0.0
C1447 C 0.16407 0.27999 0.58103 0.0
C1448 C 0.21475 0.33595 0.50471 0.0
C1449 C 0.20498 0.35583 0.49661 0.0
C1450 C 0.20925 0.32583 0.52466 0.0
C1451 C 0.19368 0.33522 0.53693 0.0
C1452 C 0.18432 0.35544 0.52883 0.0
C1453 C 0.19 0.36569 0.50895 0.0
H1454 H 0.80944 0.90537 0.57458 0.0
H1455 H 0.72004 0.84737 0.59873 0.0
H1456 H 0.78826 0.89035 0.5407 0.0
H1457 H 0.6981 0.8328 0.56489 0.0
H1458 H 0.66909 0.80469 0.50042 0.0
H1459 H 0.69401 0.80976 0.53353 0.0
H1460 H 0.75589 0.90319 0.51988 0.0
H1461 H 0.73129 0.89802 0.48695 0.0
C1462 C 0.78539 0.88864 0.57254 0.0
C1463 C 0.76628 0.87733 0.58904 0.0
C1464 C 0.7731 0.88036 0.5532 0.0
C1465 C 0.74128 0.86087 0.54999 0.0
C1466 C 0.72269 0.84774 0.56675 0.0
C1467 C 0.73516 0.85591 0.58613 0.0
C1468 C 0.68802 0.8263 0.50454 0.0
C1469 C 0.69821 0.85096 0.49102 0.0
C1470 C 0.70235 0.82919 0.5235 0.0
C1471 C 0.72715 0.85682 0.52939 0.0
C1472 C 0.7374 0.88136 0.51575 0.0
C1473 C 0.72318 0.87845 0.49684 0.0
H1474 H 0.08553 0.88851 0.57162 0.0
H1475 H 0.14405 0.85586 0.59853 0.0
H1476 H 0.086 0.8676 0.53957 0.0
H1477 H 0.14544 0.83543 0.56662 0.0
H1478 H 0.13293 0.79038 0.50807 0.0
H1479 H 0.1197 0.80067 0.54026 0.0
H1480 H 0.12474 0.88188 0.51484 0.0
H1481 H 0.13782 0.87156 0.48275 0.0
C1482 C 0.0977 0.876 0.57071 0.0
C1483 C 0.1146 0.87352 0.58737 0.0
C1484 C 0.09841 0.86442 0.55236 0.0
C1485 C 0.11615 0.85017 0.55036 0.0
C1486 C 0.13133 0.846 0.56754 0.0
C1487 C 0.13056 0.85759 0.58584 0.0
C1488 C 0.13117 0.81042 0.50935 0.0
C1489 C 0.13664 0.83021 0.49278 0.0
C1490 C 0.12353 0.8163 0.52782 0.0
C1491 C 0.12115 0.84214 0.53025 0.0
C1492 C 0.12578 0.86147 0.51352 0.0
C1493 C 0.13338 0.85558 0.49506 0.0
H1494 H 0.55035 0.8052 0.13201 0.0
H1495 H 0.63909 0.82901 0.10925 0.0
H1496 H 0.57472 0.826 0.16442 0.0
H1497 H 0.66409 0.85114 0.14112 0.0
H1498 H 0.68918 0.84125 0.2064 0.0
H1499 H 0.66699 0.83034 0.17278 0.0
H1500 H 0.60818 0.86735 0.18491 0.0
H1501 H 0.62937 0.8768 0.21917 0.0
C1502 C 0.57525 0.81592 0.13386 0.0
C1503 C 0.59304 0.81568 0.1184 0.0
C1504 C 0.58928 0.82784 0.15235 0.0
C1505 C 0.6214 0.83986 0.15555 0.0
C1506 C 0.63926 0.84142 0.13941 0.0
C1507 C 0.62515 0.82916 0.1211 0.0
C1508 C 0.67137 0.84691 0.202 0.0
C1509 C 0.66085 0.85959 0.21563 0.0
C1510 C 0.65895 0.8411 0.18253 0.0
C1511 C 0.63583 0.84808 0.17599 0.0
C1512 C 0.62576 0.86144 0.18946 0.0
C1513 C 0.63815 0.86715 0.20905 0.0
H1514 H 0.27249 0.8118 0.14408 0.0
H1515 H 0.22363 0.85283 0.11416 0.0
H1516 H 0.26199 0.82429 0.17657 0.0
H1517 H 0.2136 0.86627 0.1464 0.0
H1518 H 0.15732 0.8366 0.20352 0.0
H1519 H 0.17838 0.83584 0.17177 0.0
H1520 H 0.26628 0.85926 0.20128 0.0
H1521 H 0.2451 0.86011 0.23325 0.0
C1522 C 0.26095 0.82497 0.14451 0.0
C1523 C 0.24928 0.83183 0.12671 0.0
C1524 C 0.2546 0.8319 0.1631 0.0
C1525 C 0.23633 0.84578 0.16422 0.0
C1526 C 0.22712 0.85498 0.14621 0.0
C1527 C 0.23339 0.84792 0.1277 0.0
C1528 C 0.18129 0.84206 0.20328 0.0
C1529 C 0.19943 0.8485 0.22108 0.0
C1530 C 0.19347 0.84172 0.18497 0.0
C1531 C 0.22424 0.84782 0.1838 0.0
C1532 C 0.24247 0.85428 0.20157 0.0
C1533 C 0.23024 0.85466 0.21995 0.0
H1534 H 0.24819 0.44604 0.13481 0.0
H1535 H 0.20571 0.35511 0.11618 0.0
H1536 H 0.24918 0.42951 0.16963 0.0
H1537 H 0.20566 0.33797 0.15102 0.0
H1538 H 0.21739 0.31739 0.21703 0.0
H1539 H 0.23198 0.33647 0.1828 0.0
H1540 H 0.20571 0.40367 0.19138 0.0
H1541 H 0.19107 0.38464 0.2253 0.0
C1542 C 0.24022 0.42259 0.13822 0.0
C1543 C 0.22715 0.40178 0.12303 0.0
C1544 C 0.24029 0.41302 0.1581 0.0
C1545 C 0.22687 0.38235 0.16316 0.0
C1546 C 0.2163 0.36175 0.14767 0.0
C1547 C 0.21644 0.37146 0.12773 0.0
C1548 C 0.2147 0.33621 0.21157 0.0
C1549 C 0.20304 0.34948 0.22395 0.0
C1550 C 0.22319 0.34721 0.19199 0.0
C1551 C 0.22033 0.37178 0.18439 0.0
C1552 C 0.209 0.3852 0.19688 0.0
C1553 C 0.20048 0.3742 0.21636 0.0
H1554 H 0.85346 0.64616 0.93444 0.0
H1555 H 0.78089 0.56892 0.90547 0.0
H1556 H 0.87416 0.66909 0.90158 0.0
H1557 H 0.80105 0.59162 0.87273 0.0
H1558 H 0.81289 0.66389 0.82442 0.0
H1559 H 0.80027 0.63783 0.85692 0.0
H1560 H 0.89607 0.66266 0.86806 0.0
H1561 H 0.90879 0.68885 0.8352 0.0
C1562 C 0.84256 0.63385 0.92102 0.0
C1563 C 0.81546 0.60612 0.92225 0.0
C1564 C 0.85427 0.64688 0.9023 0.0
C1565 C 0.83883 0.6323 0.88466 0.0
C1566 C 0.81307 0.60354 0.88609 0.0
C1567 C 0.80159 0.59054 0.90472 0.0
C1568 C 0.83129 0.6639 0.83383 0.0
C1569 C 0.86182 0.67849 0.82737 0.0
C1570 C 0.82403 0.64875 0.85232 0.0
C1571 C 0.84718 0.64806 0.86491 0.0
C1572 C 0.87784 0.66287 0.8586 0.0
C1573 C 0.88506 0.67771 0.83985 0.0
H1574 H 0.46092 0.20782 0.91349 0.0
H1575 H 0.36985 0.18496 0.93142 0.0
H1576 H 0.44059 0.19075 0.87966 0.0
H1577 H 0.34933 0.16859 0.89768 0.0
H1578 H 0.3171 0.13038 0.83659 0.0
H1579 H 0.33785 0.13466 0.87085 0.0
H1580 H 0.42264 0.21223 0.85268 0.0
H1581 H 0.40198 0.20793 0.81855 0.0
C1582 C 0.43637 0.19825 0.91026 0.0
C1583 C 0.41685 0.19766 0.92487 0.0
C1584 C 0.42476 0.18889 0.89089 0.0
C1585 C 0.39338 0.17872 0.88583 0.0
C1586 C 0.37353 0.17608 0.90099 0.0
C1587 C 0.38519 0.18547 0.92031 0.0
C1588 C 0.34021 0.14831 0.83991 0.0
C1589 C 0.35777 0.16893 0.82481 0.0
C1590 C 0.35213 0.15071 0.85955 0.0
C1591 C 0.38192 0.1738 0.86458 0.0
C1592 C 0.39983 0.19382 0.84933 0.0
C1593 C 0.38793 0.19141 0.82971 0.0
H1594 H 0.76448 0.24634 0.89786 0.0
H1595 H 0.78915 0.18743 0.93185 0.0
H1596 H 0.76811 0.22552 0.86674 0.0
H1597 H 0.79233 0.16584 0.90079 0.0
H1598 H 0.84635 0.17738 0.84329 0.0
H1599 H 0.83042 0.18658 0.87469 0.0
H1600 H 0.75 0.18357 0.84469 0.0
H1601 H 0.76586 0.17413 0.81316 0.0
C1602 C 0.76956 0.22809 0.89858 0.0
C1603 C 0.77657 0.21841 0.91708 0.0
C1604 C 0.77169 0.21614 0.88081 0.0
C1605 C 0.78099 0.19428 0.88121 0.0
C1606 C 0.78564 0.18301 0.89992 0.0
C1607 C 0.7834 0.19496 0.9177 0.0
C1608 C 0.82496 0.17812 0.8434 0.0
C1609 C 0.8075 0.17511 0.8256 0.0
C1610 C 0.81575 0.18332 0.86148 0.0
C1611 C 0.78884 0.18573 0.86229 0.0
C1612 C 0.77102 0.18215 0.84458 0.0
C1613 C 0.7802 0.17687 0.82648 0.0
H1614 H 0.29462 0.1714 0.44283 0.0
H1615 H 0.21044 0.11501 0.47352 0.0
H1616 H 0.31995 0.1953 0.4743 0.0
H1617 H 0.23561 0.13753 0.50523 0.0
H1618 H 0.28409 0.18968 0.5595 0.0
H1619 H 0.25901 0.17899 0.52646 0.0
H1620 H 0.33869 0.17943 0.50308 0.0
H1621 H 0.36448 0.19198 0.53577 0.0
C1622 C 0.2815 0.16464 0.45636 0.0
C1623 C 0.25093 0.14127 0.45606 0.0
C1624 C 0.29597 0.17795 0.47439 0.0
C1625 C 0.28005 0.16794 0.49243 0.0
C1626 C 0.24863 0.14597 0.4917 0.0
C1627 C 0.23419 0.13291 0.47363 0.0
C1628 C 0.29656 0.18816 0.54723 0.0
C1629 C 0.32629 0.19151 0.55039 0.0
C1630 C 0.282 0.18169 0.52829 0.0
C1631 C 0.29669 0.17818 0.51206 0.0
C1632 C 0.32675 0.18234 0.51512 0.0
C1633 C 0.34138 0.18903 0.534 0.0
H1634 H 0.90418 0.19138 0.44738 0.0
H1635 H 0.9331 0.13474 0.48007 0.0
H1636 H 0.89657 0.20886 0.47891 0.0
H1637 H 0.92466 0.15096 0.51163 0.0
H1638 H 0.91433 0.18949 0.56743 0.0
H1639 H 0.9353 0.1864 0.53611 0.0
H1640 H 0.85851 0.18735 0.50351 0.0
H1641 H 0.83861 0.19225 0.53464 0.0
C1642 C 0.91003 0.18361 0.46139 0.0
C1643 C 0.91952 0.16203 0.4614 0.0
C1644 C 0.90509 0.19306 0.47948 0.0
C1645 C 0.90935 0.18094 0.49799 0.0
C1646 C 0.92128 0.16109 0.49785 0.0
C1647 C 0.9263 0.15182 0.47977 0.0
C1648 C 0.9022 0.18967 0.55358 0.0
C1649 C 0.87452 0.19091 0.55376 0.0
C1650 C 0.9141 0.18755 0.53554 0.0
C1651 C 0.89866 0.18647 0.5171 0.0
C1652 C 0.87143 0.18851 0.51727 0.0
C1653 C 0.85963 0.19079 0.53527 0.0
H1654 H 0.93613 0.79353 0.47142 0.0
H1655 H 0.86405 0.70708 0.45346 0.0
H1656 H 0.93766 0.773 0.50514 0.0
H1657 H 0.86492 0.6863 0.48695 0.0
H1658 H 0.8844 0.73698 0.56499 0.0
H1659 H 0.89958 0.75726 0.53131 0.0
H1660 H 0.89119 0.67357 0.51425 0.0
H1661 H 0.8761 0.65321 0.54814 0.0
C1662 C 0.92151 0.76987 0.47458 0.0
C1663 C 0.90006 0.75171 0.46007 0.0
C1664 C 0.92203 0.75817 0.49386 0.0
C1665 C 0.9011 0.72808 0.49883 0.0
C1666 C 0.88154 0.70945 0.48366 0.0
C1667 C 0.88098 0.72123 0.46448 0.0
C1668 C 0.88648 0.72307 0.55424 0.0
C1669 C 0.87874 0.69334 0.55927 0.0
C1670 C 0.89531 0.73477 0.53488 0.0
C1671 C 0.89658 0.71704 0.52004 0.0
C1672 C 0.89009 0.68771 0.52528 0.0
C1673 C 0.8813 0.676 0.54467 0.0
loop_
_geom_bond_atom_site_label_1
_geom_bond_atom_site_label_2
_geom_bond_distance
_geom_bond_site_symmetry_2
_ccdc_geom_bond_type
C0 N1 1.317 . S
C0 N2 1.348 . S
C0 C3 1.485 . S
N1 C0 1.317 . S
N1 N5 1.370 . S
N2 C0 1.348 . S
N2 C4 1.346 . S
C3 C0 1.485 . S
C3 H7 0.960 . S
C3 H8 0.961 . S
C3 H9 0.960 . S
C4 N2 1.346 . S
C4 N5 1.307 . S
C4 C6 1.486 . S
N5 N1 1.370 . S
N5 C4 1.307 . S
C6 C4 1.486 . S
C6 H10 0.960 . S
C6 H11 0.960 . S
C6 H12 0.959 . S
H7 C3 0.960 . S
H8 C3 0.961 . S
H9 C3 0.960 . S
H10 C6 0.960 . S
H11 C6 0.960 . S
H12 C6 0.959 . S
C13 N14 1.317 . S
C13 N15 1.348 . S
C13 C16 1.485 . S
N14 C13 1.317 . S
N14 N18 1.370 . S
N15 C13 1.348 . S
N15 C17 1.346 . S
C16 C13 1.485 . S
C16 H20 0.960 . S
C16 H21 0.961 . S
C16 H22 0.960 . S
C17 N15 1.346 . S
C17 N18 1.307 . S
C17 C19 1.486 . S
N18 N14 1.370 . S
N18 C17 1.307 . S
C19 C17 1.486 . S
C19 H23 0.960 . S
C19 H24 0.960 . S
C19 H25 0.959 . S
H20 C16 0.960 . S
H21 C16 0.961 . S
H22 C16 0.960 . S
H23 C19 0.960 . S
H24 C19 0.960 . S
H25 C19 0.959 . S
C26 N27 1.317 . S
C26 N28 1.348 . S
C26 C29 1.485 . S
N27 C26 1.317 . S
N27 N31 1.370 . S
N28 C26 1.348 . S
N28 C30 1.346 . S
C29 C26 1.485 . S
C29 H33 0.960 . S
C29 H34 0.961 . S
C29 H35 0.960 . S
C30 N28 1.346 . S
C30 N31 1.307 . S
C30 C32 1.486 . S
N31 N27 1.370 . S
N31 C30 1.307 . S
C32 C30 1.486 . S
C32 H36 0.960 . S
C32 H37 0.960 . S
C32 H38 0.959 . S
H33 C29 0.960 . S
H34 C29 0.961 . S
H35 C29 0.960 . S
H36 C32 0.960 . S
H37 C32 0.960 . S
H38 C32 0.959 . S
C39 N40 1.317 . S
C39 N41 1.348 . S
C39 C42 1.485 . S
N40 C39 1.317 . S
N40 N44 1.370 . S
N41 C39 1.348 . S
N41 C43 1.346 . S
C42 C39 1.485 . S
C42 H46 0.960 . S
C42 H47 0.961 . S
C42 H48 0.960 . S
C43 N41 1.346 . S
C43 N44 1.307 . S
C43 C45 1.486 . S
N44 N40 1.370 . S
N44 C43 1.307 . S
C45 C43 1.486 . S
C45 H49 0.960 . S
C45 H50 0.960 . S
C45 H51 0.959 . S
H46 C42 0.960 . S
H47 C42 0.961 . S
H48 C42 0.960 . S
H49 C45 0.960 . S
H50 C45 0.960 . S
H51 C45 0.959 . S
C52 N53 1.317 . S
C52 N54 1.348 . S
C52 C55 1.485 . S
N53 C52 1.317 . S
N53 N57 1.370 . S
N54 C52 1.348 . S
N54 C56 1.346 . S
C55 C52 1.485 . S
C55 H59 0.960 . S
C55 H60 0.961 . S
C55 H61 0.960 . S
C56 N54 1.346 . S
C56 N57 1.307 . S
C56 C58 1.486 . S
N57 N53 1.370 . S
N57 C56 1.307 . S
C58 C56 1.486 . S
C58 H62 0.960 . S
C58 H63 0.960 . S
C58 H64 0.959 . S
H59 C55 0.960 . S
H60 C55 0.961 . S
H61 C55 0.960 . S
H62 C58 0.960 . S
H63 C58 0.960 . S
H64 C58 0.959 . S
C65 N66 1.317 . S
C65 N67 1.348 . S
C65 C68 1.485 . S
N66 C65 1.317 . S
N66 N70 1.370 . S
N67 C65 1.348 . S
N67 C69 1.346 . S
C68 C65 1.485 . S
C68 H72 0.960 . S
C68 H73 0.961 . S
C68 H74 0.960 . S
C69 N67 1.346 . S
C69 N70 1.307 . S
C69 C71 1.486 . S
N70 N66 1.370 . S
N70 C69 1.307 . S
C71 C69 1.486 . S
C71 H75 0.960 . S
C71 H76 0.960 . S
C71 H77 0.959 . S
H72 C68 0.960 . S
H73 C68 0.961 . S
H74 C68 0.960 . S
H75 C71 0.960 . S
H76 C71 0.960 . S
H77 C71 0.959 . S
C78 N79 1.317 . S
C78 N80 1.348 . S
C78 C81 1.485 . S
N79 C78 1.317 . S
N79 N83 1.370 . S
N80 C78 1.348 . S
N80 C82 1.346 . S
C81 C78 1.485 . S
C81 H85 0.960 . S
C81 H86 0.961 . S
C81 H87 0.960 . S
C82 N80 1.346 . S
C82 N83 1.307 . S
C82 C84 1.486 . S
N83 N79 1.370 . S
N83 C82 1.307 . S
C84 C82 1.486 . S
C84 H88 0.960 . S
C84 H89 0.960 . S
C84 H90 0.959 . S
H85 C81 0.960 . S
H86 C81 0.961 . S
H87 C81 0.960 . S
H88 C84 0.960 . S
H89 C84 0.960 . S
H90 C84 0.959 . S
C91 N92 1.317 . S
C91 N93 1.348 . S
C91 C94 1.485 . S
N92 C91 1.317 . S
N92 N96 1.370 . S
N93 C91 1.348 . S
N93 C95 1.346 . S
C94 C91 1.485 . S
C94 H98 0.960 . S
C94 H99 0.961 . S
C94 H100 0.960 . S
C95 N93 1.346 . S
C95 N96 1.307 . S
C95 C97 1.486 . S
N96 N92 1.370 . S
N96 C95 1.307 . S
C97 C95 1.486 . S
C97 H101 0.960 . S
C97 H102 0.960 . S
C97 H103 0.959 . S
H98 C94 0.960 . S
H99 C94 0.961 . S
H100 C94 0.960 . S
H101 C97 0.960 . S
H102 C97 0.960 . S
H103 C97 0.959 . S
C104 N105 1.317 . S
C104 N106 1.348 . S
C104 C107 1.485 . S
N105 C104 1.317 . S
N105 N109 1.370 . S
N106 C104 1.348 . S
N106 C108 1.346 . S
C107 C104 1.485 . S
C107 H111 0.960 . S
C107 H112 0.961 . S
C107 H113 0.960 . S
C108 N106 1.346 . S
C108 N109 1.307 . S
C108 C110 1.486 . S
N109 N105 1.370 . S
N109 C108 1.307 . S
C110 C108 1.486 . S
C110 H114 0.960 . S
C110 H115 0.960 . S
C110 H116 0.959 . S
H111 C107 0.960 . S
H112 C107 0.961 . S
H113 C107 0.960 . S
H114 C110 0.960 . S
H115 C110 0.960 . S
H116 C110 0.959 . S
C117 N118 1.317 . S
C117 N119 1.348 . S
C117 C120 1.485 . S
N118 C117 1.317 . S
N118 N122 1.370 . S
N119 C117 1.348 . S
N119 C121 1.346 . S
C120 C117 1.485 . S
C120 H124 0.960 . S
C120 H125 0.961 . S
C120 H126 0.960 . S
C121 N119 1.346 . S
C121 N122 1.307 . S
C121 C123 1.486 . S
N122 N118 1.370 . S
N122 C121 1.307 . S
C123 C121 1.486 . S
C123 H127 0.960 . S
C123 H128 0.960 . S
C123 H129 0.959 . S
H124 C120 0.960 . S
H125 C120 0.961 . S
H126 C120 0.960 . S
H127 C123 0.960 . S
H128 C123 0.960 . S
H129 C123 0.959 . S
C130 N131 1.317 . S
C130 N132 1.348 . S
C130 C133 1.485 1_556 S
N131 C130 1.317 . S
N131 N135 1.370 . S
N132 C130 1.348 . S
N132 C134 1.346 . S
C133 C130 1.485 1_554 S
C133 H137 0.960 . S
C133 H138 0.961 . S
C133 H139 0.960 . S
C134 N132 1.346 . S
C134 N135 1.307 . S
C134 C136 1.486 . S
N135 N131 1.370 . S
N135 C134 1.307 . S
C136 C134 1.486 . S
C136 H140 0.960 . S
C136 H141 0.960 . S
C136 H142 0.959 . S
H137 C133 0.960 . S
H138 C133 0.961 . S
H139 C133 0.960 . S
H140 C136 0.960 . S
H141 C136 0.960 . S
H142 C136 0.959 . S
C143 N144 1.317 . S
C143 N145 1.348 . S
C143 C146 1.485 1_556 S
N144 C143 1.317 . S
N144 N148 1.370 . S
N145 C143 1.348 . S
N145 C147 1.346 . S
C146 C143 1.485 1_554 S
C146 H150 0.960 . S
C146 H151 0.961 . S
C146 H152 0.960 . S
C147 N145 1.346 . S
C147 N148 1.307 . S
C147 C149 1.486 . S
N148 N144 1.370 . S
N148 C147 1.307 . S
C149 C147 1.486 . S
C149 H153 0.960 . S
C149 H154 0.960 . S
C149 H155 0.959 . S
H150 C146 0.960 . S
H151 C146 0.961 . S
H152 C146 0.960 . S
H153 C149 0.960 . S
H154 C149 0.960 . S
H155 C149 0.959 . S
C156 N157 1.317 . S
C156 N158 1.348 . S
C156 C159 1.485 . S
N157 C156 1.317 . S
N157 N161 1.370 . S
N158 C156 1.348 . S
N158 C160 1.346 . S
C159 C156 1.485 . S
C159 H163 0.960 . S
C159 H164 0.992 . S
C159 H165 0.960 . S
C160 N158 1.346 . S
C160 N161 1.307 . S
C160 C162 1.486 . S
N161 N157 1.370 . S
N161 C160 1.307 . S
C162 C160 1.486 . S
C162 H166 0.960 . S
C162 H167 0.960 . S
C162 H168 0.959 . S
H163 C159 0.960 . S
H164 C159 0.992 . S
H165 C159 0.960 . S
H166 C162 0.960 . S
H167 C162 0.960 . S
H168 C162 0.959 . S
C169 N170 1.317 . S
C169 N171 1.348 . S
C169 C172 1.485 . S
N170 C169 1.317 . S
N170 N174 1.370 . S
N171 C169 1.348 . S
N171 C173 1.346 . S
C172 C169 1.485 . S
C172 H176 0.960 . S
C172 H177 0.961 . S
C172 H178 0.960 . S
C173 N171 1.346 . S
C173 N174 1.307 . S
C173 C175 1.486 . S
N174 N170 1.370 . S
N174 C173 1.307 . S
C175 C173 1.486 . S
C175 H179 0.960 . S
C175 H180 0.960 . S
C175 H181 0.959 . S
H176 C172 0.960 . S
H177 C172 0.961 . S
H178 C172 0.960 . S
H179 C175 0.960 . S
H180 C175 0.960 . S
H181 C175 0.959 . S
C182 N183 1.317 . S
C182 N184 1.348 . S
C182 C185 1.485 . S
N183 C182 1.317 . S
N183 N187 1.370 . S
N184 C182 1.348 . S
N184 C186 1.346 . S
C185 C182 1.485 . S
C185 H189 0.960 . S
C185 H190 0.961 . S
C185 H191 0.960 . S
C186 N184 1.346 . S
C186 N187 1.307 . S
C186 C188 1.486 . S
N187 N183 1.370 . S
N187 C186 1.307 . S
C188 C186 1.486 . S
C188 H192 0.960 . S
C188 H193 0.960 . S
C188 H194 0.959 . S
H189 C185 0.960 . S
H190 C185 0.961 . S
H191 C185 0.960 . S
H192 C188 0.960 . S
H193 C188 0.960 . S
H194 C188 0.959 . S
C195 N196 1.317 . S
C195 N197 1.348 . S
C195 C198 1.485 . S
N196 C195 1.317 . S
N196 N200 1.370 . S
N197 C195 1.348 . S
N197 C199 1.346 . S
C198 C195 1.485 . S
C198 H202 0.960 . S
C198 H203 0.961 . S
C198 H204 0.960 . S
C199 N197 1.346 . S
C199 N200 1.307 . S
C199 C201 1.486 . S
N200 N196 1.370 . S
N200 C199 1.307 . S
C201 C199 1.486 . S
C201 H205 0.960 . S
C201 H206 0.960 . S
C201 H207 0.959 . S
H202 C198 0.960 . S
H203 C198 0.961 . S
H204 C198 0.960 . S
H205 C201 0.960 . S
H206 C201 0.960 . S
H207 C201 0.959 . S
C208 N209 1.317 . S
C208 N210 1.348 . S
C208 C211 1.485 . S
N209 C208 1.317 . S
N209 N213 1.370 . S
N210 C208 1.348 . S
N210 C212 1.346 . S
C211 C208 1.485 . S
C211 H215 0.960 . S
C211 H216 0.961 . S
C211 H217 0.960 . S
C212 N210 1.346 . S
C212 N213 1.307 . S
C212 C214 1.486 . S
N213 N209 1.370 . S
N213 C212 1.307 . S
C214 C212 1.486 . S
C214 H218 0.960 . S
C214 H219 0.960 . S
C214 H220 0.959 . S
H215 C211 0.960 . S
H216 C211 0.961 . S
H217 C211 0.960 . S
H218 C214 0.960 . S
H219 C214 0.960 . S
H220 C214 0.959 . S
C221 N222 1.317 . S
C221 N223 1.348 . S
C221 C224 1.485 . S
N222 C221 1.317 . S
N222 N226 1.370 . S
N223 C221 1.348 . S
N223 C225 1.346 . S
C224 C221 1.485 . S
C224 H228 0.960 . S
C224 H229 0.961 . S
C224 H230 0.960 . S
C225 N223 1.346 . S
C225 N226 1.307 . S
C225 C227 1.486 . S
N226 N222 1.370 . S
N226 C225 1.307 . S
C227 C225 1.486 . S
C227 H231 0.960 . S
C227 H232 0.960 . S
C227 H233 0.959 . S
H228 C224 0.960 . S
H229 C224 0.961 . S
H230 C224 0.960 . S
H231 C227 0.960 . S
H232 C227 0.960 . S
H233 C227 0.959 . S
Tb234 C244 2.825 1_565 S
Tb234 O245 2.347 1_566 S
Tb234 O248 2.366 1_565 S
Tb234 O253 2.418 . S
Tb234 O254 2.384 1_556 S
Tb234 O257 2.479 . S
Tb234 O258 2.471 1_565 S
Eu235 O246 2.418 . S
Eu235 O247 2.384 . S
Eu235 O250 2.479 . S
Eu235 O251 2.471 1_545 S
Eu235 O252 2.347 1_545 S
Eu235 O255 2.366 1_545 S
Eu235 C265 2.825 1_545 S
C236 O252 1.259 . S
C236 O253 1.265 1_554 S
C237 O254 1.255 . S
C237 O255 1.265 . S
C238 C240 1.380 . S
C238 C241 1.374 . S
C238 C244 1.507 . S
C239 C240 1.384 . S
C239 C243 1.387 . S
C239 H266 0.930 . S
C240 C238 1.380 . S
C240 C239 1.384 . S
C240 H267 0.931 1_545 S
C241 C238 1.374 . S
C241 C242 1.390 . S
C241 H268 0.930 . S
C242 C241 1.390 . S
C242 C243 1.391 . S
C242 H269 0.930 . S
C243 C239 1.387 . S
C243 C242 1.391 . S
C244 Tb234 2.825 1_545 S
C244 C238 1.507 . S
C244 O257 1.238 1_545 S
C244 O258 1.247 . S
O245 Tb234 2.347 1_544 S
O245 C249 1.259 . S
O246 Eu235 2.418 . S
O246 C249 1.265 . S
O247 Eu235 2.384 . S
O247 C256 1.298 . S
O248 Tb234 2.366 1_545 S
O248 C256 1.236 1_556 S
C249 O245 1.259 . S
C249 O246 1.265 . S
O250 Eu235 2.479 . S
O250 C265 1.238 1_545 S
O251 Eu235 2.471 1_565 S
O251 C265 1.247 . S
O252 Eu235 2.347 1_565 S
O252 C236 1.259 . S
O253 Tb234 2.418 . S
O253 C236 1.265 1_556 S
O254 Tb234 2.384 1_554 S
O254 C237 1.255 . S
O255 Eu235 2.366 1_565 S
O255 C237 1.265 . S
C256 O247 1.298 . S
C256 O248 1.236 1_554 S
O257 Tb234 2.479 . S
O257 C244 1.238 1_565 S
O258 Tb234 2.471 1_545 S
O258 C244 1.247 . S
C259 C262 1.380 . S
C259 C263 1.374 . S
C259 C265 1.507 . S
C260 C261 1.387 . S
C260 C264 1.391 . S
C261 C260 1.387 . S
C261 C262 1.384 . S
C261 H270 0.930 . S
C262 C259 1.380 . S
C262 C261 1.384 . S
C262 H271 0.931 1_565 S
C263 C259 1.374 . S
C263 C264 1.390 . S
C263 H272 0.930 . S
C264 C260 1.391 . S
C264 C263 1.390 . S
C264 H273 0.930 . S
C265 Eu235 2.825 1_565 S
C265 O250 1.238 1_565 S
C265 O251 1.247 . S
C265 C259 1.507 . S
H266 C239 0.930 . S
H267 C240 0.931 1_565 S
H268 C241 0.930 . S
H269 C242 0.930 . S
H270 C261 0.930 . S
H271 C262 0.931 1_545 S
H272 C263 0.930 . S
H273 C264 0.930 . S
Tb274 C284 2.825 . S
Tb274 O285 2.347 1_455 S
Tb274 O288 2.366 1_455 S
Tb274 O293 2.418 . S
Tb274 O294 2.384 1_556 S
Tb274 O297 2.479 . S
Tb274 O298 2.464 1_455 S
Eu275 O286 2.418 . S
Eu275 O287 2.384 . S
Eu275 O290 2.479 . S
Eu275 O291 2.471 1_655 S
Eu275 O292 2.347 1_655 S
Eu275 O295 2.366 1_655 S
Eu275 C305 2.825 1_655 S
C276 O292 1.259 . S
C276 O293 1.265 1_554 S
C277 O294 1.255 . S
C277 O295 1.265 . S
C278 C280 1.378 1_655 S
C278 C281 1.377 . S
C278 C284 1.505 1_655 S
C279 C280 1.384 . S
C279 C283 1.387 1_455 S
C279 H306 0.930 . S
C280 C278 1.378 1_455 S
C280 C279 1.384 . S
C280 H307 0.931 . S
C281 C278 1.377 . S
C281 C282 1.390 . S
C281 H308 0.930 . S
C282 C281 1.390 . S
C282 C283 1.391 . S
C282 H309 0.930 . S
C283 C279 1.387 1_655 S
C283 C282 1.391 . S
C284 Tb274 2.825 . S
C284 C278 1.505 1_455 S
C284 O297 1.238 . S
C284 O298 1.246 1_455 S
O285 Tb274 2.347 1_655 S
O285 C289 1.259 1_556 S
O286 Eu275 2.418 . S
O286 C289 1.265 . S
O287 Eu275 2.384 . S
O287 C296 1.255 1_554 S
O288 Tb274 2.366 1_655 S
O288 C296 1.265 . S
C289 O285 1.259 1_554 S
C289 O286 1.265 . S
O290 Eu275 2.479 . S
O290 C305 1.238 1_655 S
O291 Eu275 2.471 1_455 S
O291 C305 1.247 . S
O292 Eu275 2.347 1_455 S
O292 C276 1.259 . S
O293 Tb274 2.418 . S
O293 C276 1.265 1_556 S
O294 Tb274 2.384 1_554 S
O294 C277 1.255 . S
O295 Eu275 2.366 1_455 S
O295 C277 1.265 . S
C296 O287 1.255 1_556 S
C296 O288 1.265 . S
O297 Tb274 2.479 . S
O297 C284 1.238 . S
O298 Tb274 2.464 1_655 S
O298 C284 1.246 1_655 S
C299 C302 1.377 1_455 S
C299 C303 1.374 . S
C299 C305 1.507 . S
C300 C301 1.387 . S
C300 C304 1.391 . S
C301 C300 1.387 . S
C301 C302 1.381 1_455 S
C301 H310 0.930 1_455 S
C302 C299 1.377 1_655 S
C302 C301 1.381 1_655 S
C302 H311 0.936 . S
C303 C299 1.374 . S
C303 C304 1.390 . S
C303 H312 0.930 . S
C304 C300 1.391 . S
C304 C303 1.390 . S
C304 H313 0.930 . S
C305 Eu275 2.825 1_455 S
C305 O290 1.238 1_455 S
C305 O291 1.247 . S
C305 C299 1.507 . S
H306 C279 0.930 . S
H307 C280 0.931 . S
H308 C281 0.930 . S
H309 C282 0.930 . S
H310 C301 0.930 1_655 S
H311 C302 0.936 . S
H312 C303 0.930 . S
H313 C304 0.930 . S
Tb314 C324 2.825 . S
Tb314 O325 2.347 . S
Tb314 O328 2.366 . S
Tb314 O333 2.418 . S
Tb314 O334 2.384 . S
Tb314 O337 2.479 . S
Tb314 O338 2.471 . S
Eu315 O326 2.423 . S
Eu315 O327 2.384 1_556 S
Eu315 O330 2.479 . S
Eu315 O331 2.471 . S
Eu315 O332 2.347 1_556 S
Eu315 O335 2.366 . S
Eu315 C345 2.825 . S
C316 O332 1.259 . S
C316 O333 1.265 . S
C317 O334 1.255 . S
C317 O335 1.265 1_554 S
C318 C320 1.380 . S
C318 C321 1.374 . S
C318 C324 1.507 . S
C319 C320 1.384 . S
C319 C323 1.387 . S
C319 H346 0.930 . S
C320 C318 1.380 . S
C320 C319 1.384 . S
C320 H347 0.931 . S
C321 C318 1.374 . S
C321 C322 1.390 . S
C321 H348 0.930 . S
C322 C321 1.390 . S
C322 C323 1.391 . S
C322 H349 0.930 . S
C323 C319 1.387 . S
C323 C322 1.391 . S
C324 Tb314 2.825 . S
C324 C318 1.507 . S
C324 O337 1.238 . S
C324 O338 1.247 . S
O325 Tb314 2.347 . S
O325 C329 1.259 . S
O326 Eu315 2.423 . S
O326 C329 1.246 1_556 S
O327 Eu315 2.384 1_554 S
O327 C336 1.255 . S
O328 Tb314 2.366 . S
O328 C336 1.265 . S
C329 O325 1.259 . S
C329 O326 1.246 1_554 S
O330 Eu315 2.479 . S
O330 C345 1.238 . S
O331 Eu315 2.471 . S
O331 C345 1.247 . S
O332 Eu315 2.347 1_554 S
O332 C316 1.259 . S
O333 Tb314 2.418 . S
O333 C316 1.265 . S
O334 Tb314 2.384 . S
O334 C317 1.255 . S
O335 Eu315 2.366 . S
O335 C317 1.265 1_556 S
C336 O327 1.255 . S
C336 O328 1.265 . S
O337 Tb314 2.479 . S
O337 C324 1.238 . S
O338 Tb314 2.471 . S
O338 C324 1.247 . S
C339 C342 1.380 . S
C339 C343 1.374 . S
C339 C345 1.507 . S
C340 C341 1.387 . S
C340 C344 1.391 . S
C341 C340 1.387 . S
C341 C342 1.384 . S
C341 H350 0.930 . S
C342 C339 1.380 . S
C342 C341 1.384 . S
C342 H351 0.931 . S
C343 C339 1.374 . S
C343 C344 1.390 . S
C343 H352 0.930 . S
C344 C340 1.391 . S
C344 C343 1.390 . S
C344 H353 0.930 . S
C345 Eu315 2.825 . S
C345 O330 1.238 . S
C345 O331 1.247 . S
C345 C339 1.507 . S
H346 C319 0.930 . S
H347 C320 0.931 . S
H348 C321 0.930 . S
H349 C322 0.930 . S
H350 C341 0.930 . S
H351 C342 0.931 . S
H352 C343 0.930 . S
H353 C344 0.930 . S
Tb354 C364 2.825 . S
Tb354 O365 2.347 . S
Tb354 O368 2.366 . S
Tb354 O373 2.418 . S
Tb354 O374 2.384 . S
Tb354 O377 2.479 . S
Tb354 O378 2.471 . S
Eu355 O366 2.418 . S
Eu355 O367 2.384 . S
Eu355 O370 2.479 . S
Eu355 O371 2.471 . S
Eu355 O372 2.347 . S
Eu355 O375 2.366 . S
Eu355 C385 2.825 . S
C356 O372 1.259 . S
C356 O373 1.265 . S
C357 O374 1.255 . S
C357 O375 1.265 . S
C358 C360 1.380 . S
C358 C361 1.374 . S
C358 C364 1.507 . S
C359 C360 1.384 . S
C359 C363 1.387 . S
C359 H386 0.930 . S
C360 C358 1.380 . S
C360 C359 1.384 . S
C360 H387 0.931 . S
C361 C358 1.374 . S
C361 C362 1.390 . S
C361 H388 0.930 . S
C362 C361 1.390 . S
C362 C363 1.391 . S
C362 H389 0.930 . S
C363 C359 1.387 . S
C363 C362 1.391 . S
C364 Tb354 2.825 . S
C364 C358 1.507 . S
C364 O377 1.238 . S
C364 O378 1.247 . S
O365 Tb354 2.347 . S
O365 C369 1.259 . S
O366 Eu355 2.418 . S
O366 C369 1.265 . S
O367 Eu355 2.384 . S
O367 C376 1.255 . S
O368 Tb354 2.366 . S
O368 C376 1.265 . S
C369 O365 1.259 . S
C369 O366 1.265 . S
O370 Eu355 2.479 . S
O370 C385 1.238 . S
O371 Eu355 2.471 . S
O371 C385 1.247 . S
O372 Eu355 2.347 . S
O372 C356 1.259 . S
O373 Tb354 2.418 . S
O373 C356 1.265 . S
O374 Tb354 2.384 . S
O374 C357 1.255 . S
O375 Eu355 2.366 . S
O375 C357 1.265 . S
C376 O367 1.255 . S
C376 O368 1.265 . S
O377 Tb354 2.479 . S
O377 C364 1.238 . S
O378 Tb354 2.471 . S
O378 C364 1.247 . S
C379 C382 1.380 . S
C379 C383 1.374 . S
C379 C385 1.507 . S
C380 C381 1.387 . S
C380 C384 1.391 . S
C381 C380 1.387 . S
C381 C382 1.384 . S
C381 H390 0.930 . S
C382 C379 1.380 . S
C382 C381 1.384 . S
C382 H391 0.931 . S
C383 C379 1.374 . S
C383 C384 1.390 . S
C383 H392 0.930 . S
C384 C380 1.391 . S
C384 C383 1.390 . S
C384 H393 0.930 . S
C385 Eu355 2.825 . S
C385 O370 1.238 . S
C385 O371 1.247 . S
C385 C379 1.507 . S
H386 C359 0.930 . S
H387 C360 0.931 . S
H388 C361 0.930 . S
H389 C362 0.930 . S
H390 C381 0.930 . S
H391 C382 0.931 . S
H392 C383 0.930 . S
H393 C384 0.930 . S
Tb394 C404 2.825 . S
Tb394 O405 2.347 . S
Tb394 O408 2.366 . S
Tb394 O413 2.418 . S
Tb394 O414 2.384 . S
Tb394 O417 2.479 . S
Tb394 O418 2.471 . S
Eu395 O406 2.418 . S
Eu395 O407 2.384 . S
Eu395 O410 2.479 . S
Eu395 O411 2.471 . S
Eu395 O412 2.347 . S
Eu395 O415 2.366 . S
Eu395 C425 2.825 . S
C396 O412 1.259 . S
C396 O413 1.265 . S
C397 O414 1.255 . S
C397 O415 1.265 . S
C398 C400 1.380 . S
C398 C401 1.374 . S
C398 C404 1.507 . S
C399 C400 1.384 . S
C399 C403 1.387 . S
C399 H426 0.930 . S
C400 C398 1.380 . S
C400 C399 1.384 . S
C400 H427 0.931 . S
C401 C398 1.374 . S
C401 C402 1.390 . S
C401 H428 0.930 . S
C402 C401 1.390 . S
C402 C403 1.391 . S
C402 H429 0.930 . S
C403 C399 1.387 . S
C403 C402 1.391 . S
C404 Tb394 2.825 . S
C404 C398 1.507 . S
C404 O417 1.238 . S
C404 O418 1.247 . S
O405 Tb394 2.347 . S
O405 C409 1.259 . S
O406 Eu395 2.418 . S
O406 C409 1.265 . S
O407 Eu395 2.384 . S
O407 C416 1.255 . S
O408 Tb394 2.366 . S
O408 C416 1.265 . S
C409 O405 1.259 . S
C409 O406 1.265 . S
O410 Eu395 2.479 . S
O410 C425 1.238 . S
O411 Eu395 2.471 . S
O411 C425 1.247 . S
O412 Eu395 2.347 . S
O412 C396 1.259 . S
O413 Tb394 2.418 . S
O413 C396 1.265 . S
O414 Tb394 2.384 . S
O414 C397 1.255 . S
O415 Eu395 2.366 . S
O415 C397 1.265 . S
C416 O407 1.255 . S
C416 O408 1.265 . S
O417 Tb394 2.479 . S
O417 C404 1.238 . S
O418 Tb394 2.471 . S
O418 C404 1.247 . S
C419 C422 1.380 . S
C419 C423 1.374 . S
C419 C425 1.507 . S
C420 C421 1.387 . S
C420 C424 1.391 . S
C421 C420 1.387 . S
C421 C422 1.384 . S
C421 H430 0.930 . S
C422 C419 1.380 . S
C422 C421 1.384 . S
C422 H431 0.931 . S
C423 C419 1.374 . S
C423 C424 1.390 . S
C423 H432 0.930 . S
C424 C420 1.391 . S
C424 C423 1.390 . S
C424 H433 0.930 . S
C425 Eu395 2.825 . S
C425 O410 1.238 . S
C425 O411 1.247 . S
C425 C419 1.507 . S
H426 C399 0.930 . S
H427 C400 0.931 . S
H428 C401 0.930 . S
H429 C402 0.930 . S
H430 C421 0.930 . S
H431 C422 0.931 . S
H432 C423 0.930 . S
H433 C424 0.930 . S
Tb434 C444 2.825 . S
Tb434 O445 2.347 . S
Tb434 O448 2.366 . S
Tb434 O453 2.418 . S
Tb434 O454 2.384 . S
Tb434 O457 2.479 . S
Tb434 O458 2.471 . S
Eu435 O446 2.418 . S
Eu435 O447 2.384 . S
Eu435 O450 2.479 . S
Eu435 O451 2.471 . S
Eu435 O452 2.347 . S
Eu435 O455 2.366 . S
Eu435 C465 2.825 . S
C436 O452 1.259 . S
C436 O453 1.265 . S
C437 O454 1.255 . S
C437 O455 1.265 . S
C438 C440 1.380 . S
C438 C441 1.374 . S
C438 C444 1.507 . S
C439 C440 1.384 . S
C439 C443 1.387 . S
C439 H466 0.930 . S
C440 C438 1.380 . S
C440 C439 1.384 . S
C440 H467 0.931 . S
C441 C438 1.374 . S
C441 C442 1.390 . S
C441 H468 0.930 . S
C442 C441 1.390 . S
C442 C443 1.391 . S
C442 H469 0.930 . S
C443 C439 1.387 . S
C443 C442 1.391 . S
C444 Tb434 2.825 . S
C444 C438 1.507 . S
C444 O457 1.238 . S
C444 O458 1.247 . S
O445 Tb434 2.347 . S
O445 C449 1.259 . S
O446 Eu435 2.418 . S
O446 C449 1.265 . S
O447 Eu435 2.384 . S
O447 C456 1.255 . S
O448 Tb434 2.366 . S
O448 C456 1.265 . S
C449 O445 1.259 . S
C449 O446 1.265 . S
O450 Eu435 2.479 . S
O450 C465 1.238 . S
O451 Eu435 2.471 . S
O451 C465 1.247 . S
O452 Eu435 2.347 . S
O452 C436 1.259 . S
O453 Tb434 2.418 . S
O453 C436 1.265 . S
O454 Tb434 2.384 . S
O454 C437 1.255 . S
O455 Eu435 2.366 . S
O455 C437 1.265 . S
C456 O447 1.255 . S
C456 O448 1.265 . S
O457 Tb434 2.479 . S
O457 C444 1.238 . S
O458 Tb434 2.471 . S
O458 C444 1.247 . S
C459 C462 1.380 . S
C459 C463 1.374 . S
C459 C465 1.507 . S
C460 C461 1.387 . S
C460 C464 1.391 . S
C461 C460 1.387 . S
C461 C462 1.384 . S
C461 H470 0.930 . S
C462 C459 1.380 . S
C462 C461 1.384 . S
C462 H471 0.931 . S
C463 C459 1.374 . S
C463 C464 1.390 . S
C463 H472 0.930 . S
C464 C460 1.391 . S
C464 C463 1.390 . S
C464 H473 0.930 . S
C465 Eu435 2.825 . S
C465 O450 1.238 . S
C465 O451 1.247 . S
C465 C459 1.507 . S
H466 C439 0.930 . S
H467 C440 0.931 . S
H468 C441 0.930 . S
H469 C442 0.930 . S
H470 C461 0.930 . S
H471 C462 0.931 . S
H472 C463 0.930 . S
H473 C464 0.930 . S
Tb474 C484 2.825 . S
Tb474 O485 2.347 . S
Tb474 O488 2.366 . S
Tb474 O493 2.418 . S
Tb474 O494 2.384 . S
Tb474 O497 2.479 . S
Tb474 O498 2.471 . S
Eu475 O486 2.418 . S
Eu475 O487 2.384 . S
Eu475 O490 2.479 . S
Eu475 O491 2.471 . S
Eu475 O492 2.347 . S
Eu475 O495 2.366 . S
Eu475 C505 2.825 . S
C476 O492 1.259 . S
C476 O493 1.265 . S
C477 O494 1.255 . S
C477 O495 1.265 . S
C478 C480 1.380 . S
C478 C481 1.374 . S
C478 C484 1.507 . S
C479 C480 1.384 . S
C479 C483 1.387 . S
C479 H506 0.930 . S
C480 C478 1.380 . S
C480 C479 1.384 . S
C480 H507 0.931 . S
C481 C478 1.374 . S
C481 C482 1.390 . S
C481 H508 0.930 . S
C482 C481 1.390 . S
C482 C483 1.391 . S
C482 H509 0.930 . S
C483 C479 1.387 . S
C483 C482 1.391 . S
C484 Tb474 2.825 . S
C484 C478 1.507 . S
C484 O497 1.238 . S
C484 O498 1.247 . S
O485 Tb474 2.347 . S
O485 C489 1.259 . S
O486 Eu475 2.418 . S
O486 C489 1.265 . S
O487 Eu475 2.384 . S
O487 C496 1.255 . S
O488 Tb474 2.366 . S
O488 C496 1.265 . S
C489 O485 1.259 . S
C489 O486 1.265 . S
O490 Eu475 2.479 . S
O490 C505 1.238 . S
O491 Eu475 2.471 . S
O491 C505 1.247 . S
O492 Eu475 2.347 . S
O492 C476 1.259 . S
O493 Tb474 2.418 . S
O493 C476 1.265 . S
O494 Tb474 2.384 . S
O494 C477 1.255 . S
O495 Eu475 2.366 . S
O495 C477 1.265 . S
C496 O487 1.255 . S
C496 O488 1.265 . S
O497 Tb474 2.479 . S
O497 C484 1.238 . S
O498 Tb474 2.471 . S
O498 C484 1.247 . S
C499 C502 1.380 . S
C499 C503 1.374 . S
C499 C505 1.507 . S
C500 C501 1.387 . S
C500 C504 1.391 . S
C501 C500 1.387 . S
C501 C502 1.384 . S
C501 H510 0.930 . S
C502 C499 1.380 . S
C502 C501 1.384 . S
C502 H511 0.931 . S
C503 C499 1.374 . S
C503 C504 1.390 . S
C503 H512 0.930 . S
C504 C500 1.391 . S
C504 C503 1.390 . S
C504 H513 0.930 . S
C505 Eu475 2.825 . S
C505 O490 1.238 . S
C505 O491 1.247 . S
C505 C499 1.507 . S
H506 C479 0.930 . S
H507 C480 0.931 . S
H508 C481 0.930 . S
H509 C482 0.930 . S
H510 C501 0.930 . S
H511 C502 0.931 . S
H512 C503 0.930 . S
H513 C504 0.930 . S
Tb514 C524 2.825 . S
Tb514 O525 2.347 . S
Tb514 O528 2.366 . S
Tb514 O533 2.418 . S
Tb514 O534 2.384 . S
Tb514 O537 2.479 . S
Tb514 O538 2.471 . S
Eu515 O526 2.418 . S
Eu515 O527 2.384 . S
Eu515 O530 2.479 . S
Eu515 O531 2.471 . S
Eu515 O532 2.347 . S
Eu515 O535 2.366 . S
Eu515 C545 2.825 . S
C516 O532 1.259 . S
C516 O533 1.265 . S
C517 O534 1.255 . S
C517 O535 1.265 . S
C518 C520 1.380 . S
C518 C521 1.374 . S
C518 C524 1.507 . S
C519 C520 1.384 . S
C519 C523 1.387 . S
C519 H546 0.930 . S
C520 C518 1.380 . S
C520 C519 1.384 . S
C520 H547 0.931 . S
C521 C518 1.374 . S
C521 C522 1.390 . S
C521 H548 0.930 . S
C522 C521 1.390 . S
C522 C523 1.391 . S
C522 H549 0.930 . S
C523 C519 1.387 . S
C523 C522 1.391 . S
C524 Tb514 2.825 . S
C524 C518 1.507 . S
C524 O537 1.238 . S
C524 O538 1.247 . S
O525 Tb514 2.347 . S
O525 C529 1.259 . S
O526 Eu515 2.418 . S
O526 C529 1.265 . S
O527 Eu515 2.384 . S
O527 C536 1.255 . S
O528 Tb514 2.366 . S
O528 C536 1.265 . S
C529 O525 1.259 . S
C529 O526 1.265 . S
O530 Eu515 2.479 . S
O530 C545 1.238 . S
O531 Eu515 2.471 . S
O531 C545 1.247 . S
O532 Eu515 2.347 . S
O532 C516 1.259 . S
O533 Tb514 2.418 . S
O533 C516 1.265 . S
O534 Tb514 2.384 . S
O534 C517 1.255 . S
O535 Eu515 2.366 . S
O535 C517 1.265 . S
C536 O527 1.255 . S
C536 O528 1.265 . S
O537 Tb514 2.479 . S
O537 C524 1.238 . S
O538 Tb514 2.471 . S
O538 C524 1.247 . S
C539 C542 1.380 . S
C539 C543 1.374 . S
C539 C545 1.507 . S
C540 C541 1.387 . S
C540 C544 1.391 . S
C541 C540 1.387 . S
C541 C542 1.384 . S
C541 H550 0.930 . S
C542 C539 1.380 . S
C542 C541 1.384 . S
C542 H551 0.931 . S
C543 C539 1.374 . S
C543 C544 1.390 . S
C543 H552 0.930 . S
C544 C540 1.391 . S
C544 C543 1.390 . S
C544 H553 0.930 . S
C545 Eu515 2.825 . S
C545 O530 1.238 . S
C545 O531 1.247 . S
C545 C539 1.507 . S
H546 C519 0.930 . S
H547 C520 0.931 . S
H548 C521 0.930 . S
H549 C522 0.930 . S
H550 C541 0.930 . S
H551 C542 0.931 . S
H552 C543 0.930 . S
H553 C544 0.930 . S
Tb554 C564 2.825 . S
Tb554 O565 2.347 . S
Tb554 O568 2.366 . S
Tb554 O573 2.418 . S
Tb554 O574 2.384 . S
Tb554 O577 2.479 . S
Tb554 O578 2.471 . S
Eu555 O566 2.418 . S
Eu555 O567 2.384 . S
Eu555 O570 2.479 . S
Eu555 O571 2.471 . S
Eu555 O572 2.347 . S
Eu555 O575 2.366 . S
Eu555 C585 2.825 . S
C556 O572 1.259 . S
C556 O573 1.265 . S
C557 O574 1.255 . S
C557 O575 1.265 . S
C558 C560 1.380 . S
C558 C561 1.374 . S
C558 C564 1.507 . S
C559 C560 1.384 . S
C559 C563 1.387 . S
C559 H586 0.930 . S
C560 C558 1.380 . S
C560 C559 1.384 . S
C560 H587 0.931 . S
C561 C558 1.374 . S
C561 C562 1.390 . S
C561 H588 0.930 . S
C562 C561 1.390 . S
C562 C563 1.391 . S
C562 H589 0.930 . S
C563 C559 1.387 . S
C563 C562 1.391 . S
C564 Tb554 2.825 . S
C564 C558 1.507 . S
C564 O577 1.238 . S
C564 O578 1.247 . S
O565 Tb554 2.347 . S
O565 C569 1.259 . S
O566 Eu555 2.418 . S
O566 C569 1.265 . S
O567 Eu555 2.384 . S
O567 C576 1.255 . S
O568 Tb554 2.366 . S
O568 C576 1.265 . S
C569 O565 1.259 . S
C569 O566 1.265 . S
O570 Eu555 2.479 . S
O570 C585 1.238 . S
O571 Eu555 2.471 . S
O571 C585 1.247 . S
O572 Eu555 2.347 . S
O572 C556 1.259 . S
O573 Tb554 2.418 . S
O573 C556 1.265 . S
O574 Tb554 2.384 . S
O574 C557 1.255 . S
O575 Eu555 2.366 . S
O575 C557 1.265 . S
C576 O567 1.255 . S
C576 O568 1.265 . S
O577 Tb554 2.479 . S
O577 C564 1.238 . S
O578 Tb554 2.471 . S
O578 C564 1.247 . S
C579 C582 1.380 . S
C579 C583 1.374 . S
C579 C585 1.507 . S
C580 C581 1.387 . S
C580 C584 1.391 . S
C581 C580 1.387 . S
C581 C582 1.384 . S
C581 H590 0.930 . S
C582 C579 1.380 . S
C582 C581 1.384 . S
C582 H591 0.931 . S
C583 C579 1.374 . S
C583 C584 1.390 . S
C583 H592 0.930 . S
C584 C580 1.391 . S
C584 C583 1.390 . S
C584 H593 0.930 . S
C585 Eu555 2.825 . S
C585 O570 1.238 . S
C585 O571 1.247 . S
C585 C579 1.507 . S
H586 C559 0.930 . S
H587 C560 0.931 . S
H588 C561 0.930 . S
H589 C562 0.930 . S
H590 C581 0.930 . S
H591 C582 0.931 . S
H592 C583 0.930 . S
H593 C584 0.930 . S
H594 C602 0.950 . S
H595 C607 0.950 . S
H596 C604 0.950 . S
H597 C606 0.950 . S
H598 C608 0.950 . S
H599 C610 0.950 . S
H600 C612 0.950 . S
H601 C613 0.950 . S
C602 H594 0.950 . S
C602 C603 1.386 . S
C602 C604 1.391 . S
C603 C602 1.386 . S
C603 C607 1.393 . S
C604 H596 0.950 . S
C604 C602 1.391 . S
C604 C605 1.400 . S
C605 C604 1.400 . S
C605 C606 1.398 . S
C605 C611 1.491 . S
C606 H597 0.950 . S
C606 C605 1.398 . S
C606 C607 1.391 . S
C607 H595 0.950 . S
C607 C603 1.393 . S
C607 C606 1.391 . S
C608 H598 0.950 . S
C608 C609 1.386 . S
C608 C610 1.391 . S
C609 C608 1.386 . S
C609 C613 1.393 . S
C610 H599 0.950 . S
C610 C608 1.391 . S
C610 C611 1.400 . S
C611 C605 1.491 . S
C611 C610 1.400 . S
C611 C612 1.398 . S
C612 H600 0.950 . S
C612 C611 1.398 . S
C612 C613 1.391 . S
C613 H601 0.950 . S
C613 C609 1.393 . S
C613 C612 1.391 . S
H614 C622 0.950 . S
H615 C627 0.950 . S
H616 C624 0.950 . S
H617 C626 0.950 . S
H618 C628 0.950 . S
H619 C630 0.950 . S
H620 C632 0.950 . S
H621 C633 0.950 . S
C622 H614 0.950 . S
C622 C623 1.386 . S
C622 C624 1.391 . S
C623 C622 1.386 . S
C623 C627 1.393 . S
C624 H616 0.950 . S
C624 C622 1.391 . S
C624 C625 1.400 . S
C625 C624 1.400 . S
C625 C626 1.398 . S
C625 C631 1.491 . S
C626 H617 0.950 . S
C626 C625 1.398 . S
C626 C627 1.391 . S
C627 H615 0.950 . S
C627 C623 1.393 . S
C627 C626 1.391 . S
C628 H618 0.950 . S
C628 C629 1.386 . S
C628 C630 1.391 . S
C629 C628 1.386 . S
C629 C633 1.393 . S
C630 H619 0.950 . S
C630 C628 1.391 . S
C630 C631 1.400 . S
C631 C625 1.491 . S
C631 C630 1.400 . S
C631 C632 1.398 . S
C632 H620 0.950 . S
C632 C631 1.398 . S
C632 C633 1.391 . S
C633 H621 0.950 . S
C633 C629 1.393 . S
C633 C632 1.391 . S
H634 C642 0.950 . S
H635 C647 0.950 . S
H636 C644 0.950 . S
H637 C646 0.950 . S
H638 C648 0.950 . S
H639 C650 0.950 . S
H640 C652 0.950 . S
H641 C653 0.950 . S
C642 H634 0.950 . S
C642 C643 1.386 . S
C642 C644 1.391 . S
C643 C642 1.386 . S
C643 C647 1.393 . S
C644 H636 0.950 . S
C644 C642 1.391 . S
C644 C645 1.400 . S
C645 C644 1.400 . S
C645 C646 1.398 . S
C645 C651 1.491 . S
C646 H637 0.950 . S
C646 C645 1.398 . S
C646 C647 1.391 . S
C647 H635 0.950 . S
C647 C643 1.393 . S
C647 C646 1.391 . S
C648 H638 0.950 . S
C648 C649 1.386 . S
C648 C650 1.391 . S
C649 C648 1.386 . S
C649 C653 1.393 . S
C650 H639 0.950 . S
C650 C648 1.391 . S
C650 C651 1.400 . S
C651 C645 1.491 . S
C651 C650 1.400 . S
C651 C652 1.398 . S
C652 H640 0.950 . S
C652 C651 1.398 . S
C652 C653 1.391 . S
C653 H641 0.950 . S
C653 C649 1.393 . S
C653 C652 1.391 . S
H654 C662 0.950 1_554 S
H655 C667 0.950 . S
H656 C664 0.950 . S
H657 C666 0.950 . S
H658 C668 0.950 . S
H659 C670 0.950 . S
H660 C672 0.950 . S
H661 C673 0.950 . S
C662 H654 0.950 1_556 S
C662 C663 1.386 . S
C662 C664 1.391 1_556 S
C663 C662 1.386 . S
C663 C667 1.393 . S
C664 H656 0.950 . S
C664 C662 1.391 1_554 S
C664 C665 1.400 1_554 S
C665 C664 1.400 1_556 S
C665 C666 1.398 . S
C665 C671 1.491 . S
C666 H657 0.950 . S
C666 C665 1.398 . S
C666 C667 1.391 . S
C667 H655 0.950 . S
C667 C663 1.393 . S
C667 C666 1.391 . S
C668 H658 0.950 . S
C668 C669 1.386 . S
C668 C670 1.391 . S
C669 C668 1.386 . S
C669 C673 1.393 1_556 S
C670 H659 0.950 . S
C670 C668 1.391 . S
C670 C671 1.400 . S
C671 C665 1.491 . S
C671 C670 1.400 . S
C671 C672 1.398 1_556 S
C672 H660 0.950 . S
C672 C671 1.398 1_554 S
C672 C673 1.391 . S
C673 H661 0.950 . S
C673 C669 1.393 1_554 S
C673 C672 1.391 . S
H674 C682 0.950 . S
H675 C687 0.950 . S
H676 C684 0.950 . S
H677 C686 0.950 . S
H678 C688 0.950 . S
H679 C690 0.950 1_554 S
H680 C692 0.950 . S
H681 C693 0.950 . S
C682 H674 0.950 . S
C682 C683 1.386 . S
C682 C684 1.391 . S
C683 C682 1.386 . S
C683 C687 1.393 . S
C684 H676 0.950 . S
C684 C682 1.391 . S
C684 C685 1.400 . S
C685 C684 1.400 . S
C685 C686 1.398 . S
C685 C691 1.491 . S
C686 H677 0.950 . S
C686 C685 1.398 . S
C686 C687 1.391 . S
C687 H675 0.950 . S
C687 C683 1.393 . S
C687 C686 1.391 . S
C688 H678 0.950 . S
C688 C689 1.386 1_554 S
C688 C690 1.391 1_554 S
C689 C688 1.386 1_556 S
C689 C693 1.393 . S
C690 H679 0.950 1_556 S
C690 C688 1.391 1_556 S
C690 C691 1.400 . S
C691 C685 1.491 . S
C691 C690 1.400 . S
C691 C692 1.398 . S
C692 H680 0.950 . S
C692 C691 1.398 . S
C692 C693 1.391 . S
C693 H681 0.950 . S
C693 C689 1.393 . S
C693 C692 1.391 . S
H694 C702 0.950 . S
H695 C707 0.950 . S
H696 C704 0.950 . S
H697 C706 0.950 . S
H698 C708 0.950 . S
H699 C710 0.950 . S
H700 C712 0.950 . S
H701 C713 0.950 . S
C702 H694 0.950 . S
C702 C703 1.386 . S
C702 C704 1.391 . S
C703 C702 1.386 . S
C703 C707 1.393 . S
C704 H696 0.950 . S
C704 C702 1.391 . S
C704 C705 1.400 . S
C705 C704 1.400 . S
C705 C706 1.398 . S
C705 C711 1.491 . S
C706 H697 0.950 . S
C706 C705 1.398 . S
C706 C707 1.391 . S
C707 H695 0.950 . S
C707 C703 1.393 . S
C707 C706 1.391 . S
C708 H698 0.950 . S
C708 C709 1.386 . S
C708 C710 1.391 . S
C709 C708 1.386 . S
C709 C713 1.393 1_554 S
C710 H699 0.950 . S
C710 C708 1.391 . S
C710 C711 1.400 1_554 S
C711 C705 1.491 . S
C711 C710 1.400 1_556 S
C711 C712 1.398 . S
C712 H700 0.950 . S
C712 C711 1.398 . S
C712 C713 1.391 . S
C713 H701 0.950 . S
C713 C709 1.393 1_556 S
C713 C712 1.391 . S
H714 C722 0.950 . S
H715 C727 0.950 1_554 S
H716 C724 0.950 . S
H717 C726 0.950 1_554 S
H718 C728 0.950 . S
H719 C730 0.950 . S
H720 C732 0.950 . S
H721 C733 0.950 . S
C722 H714 0.950 . S
C722 C723 1.386 . S
C722 C724 1.391 . S
C723 C722 1.386 . S
C723 C727 1.393 . S
C724 H716 0.950 . S
C724 C722 1.391 . S
C724 C725 1.400 . S
C725 C724 1.400 . S
C725 C726 1.398 . S
C725 C731 1.491 . S
C726 H717 0.950 1_556 S
C726 C725 1.398 . S
C726 C727 1.391 . S
C727 H715 0.950 1_556 S
C727 C723 1.393 . S
C727 C726 1.391 . S
C728 H718 0.950 . S
C728 C729 1.386 1_554 S
C728 C730 1.391 . S
C729 C728 1.386 1_556 S
C729 C733 1.393 . S
C730 H719 0.950 . S
C730 C728 1.391 . S
C730 C731 1.400 1_554 S
C731 C725 1.491 . S
C731 C730 1.400 1_556 S
C731 C732 1.398 . S
C732 H720 0.950 . S
C732 C731 1.398 . S
C732 C733 1.391 . S
C733 H721 0.950 . S
C733 C729 1.393 . S
C733 C732 1.391 . S
H734 C742 0.950 . S
H735 C747 0.950 . S
H736 C744 0.950 . S
H737 C746 0.950 . S
H738 C748 0.950 . S
H739 C750 0.950 . S
H740 C752 0.950 . S
H741 C753 0.950 . S
C742 H734 0.950 . S
C742 C743 1.386 . S
C742 C744 1.391 . S
C743 C742 1.386 . S
C743 C747 1.393 . S
C744 H736 0.950 . S
C744 C742 1.391 . S
C744 C745 1.400 . S
C745 C744 1.400 . S
C745 C746 1.398 . S
C745 C751 1.491 . S
C746 H737 0.950 . S
C746 C745 1.398 . S
C746 C747 1.391 . S
C747 H735 0.950 . S
C747 C743 1.393 . S
C747 C746 1.391 . S
C748 H738 0.950 . S
C748 C749 1.386 . S
C748 C750 1.391 . S
C749 C748 1.386 . S
C749 C753 1.393 . S
C750 H739 0.950 . S
C750 C748 1.391 . S
C750 C751 1.400 . S
C751 C745 1.491 . S
C751 C750 1.400 . S
C751 C752 1.398 . S
C752 H740 0.950 . S
C752 C751 1.398 . S
C752 C753 1.391 . S
C753 H741 0.950 . S
C753 C749 1.393 . S
C753 C752 1.391 . S
H754 C762 0.950 . S
H755 C767 0.950 . S
H756 C764 0.950 . S
H757 C766 0.950 . S
H758 C768 0.950 . S
H759 C770 0.950 . S
H760 C772 0.950 . S
H761 C773 0.950 . S
C762 H754 0.950 . S
C762 C763 1.386 1_554 S
C762 C764 1.391 . S
C763 C762 1.386 1_556 S
C763 C767 1.393 . S
C764 H756 0.950 . S
C764 C762 1.391 . S
C764 C765 1.400 1_554 S
C765 C764 1.400 1_556 S
C765 C766 1.398 . S
C765 C771 1.479 1_556 S
C766 H757 0.950 . S
C766 C765 1.398 . S
C766 C767 1.391 . S
C767 H755 0.950 . S
C767 C763 1.393 . S
C767 C766 1.391 . S
C768 H758 0.950 . S
C768 C769 1.386 1_556 S
C768 C770 1.391 . S
C769 C768 1.386 1_554 S
C769 C773 1.393 . S
C770 H759 0.950 . S
C770 C768 1.391 . S
C770 C771 1.375 1_556 S
C771 C765 1.479 1_554 S
C771 C770 1.375 1_554 S
C771 C772 1.438 . S
C772 H760 0.950 . S
C772 C771 1.438 . S
C772 C773 1.391 . S
C773 H761 0.950 . S
C773 C769 1.393 . S
C773 C772 1.391 . S
H774 C782 0.950 . S
H775 C787 0.950 . S
H776 C784 0.950 . S
H777 C786 0.950 . S
H778 C788 0.950 . S
H779 C790 0.950 . S
H780 C792 0.950 . S
H781 C793 0.950 . S
C782 H774 0.950 . S
C782 C783 1.386 . S
C782 C784 1.391 . S
C783 C782 1.386 . S
C783 C787 1.393 . S
C784 H776 0.950 . S
C784 C782 1.391 . S
C784 C785 1.400 . S
C785 C784 1.400 . S
C785 C786 1.398 . S
C785 C791 1.491 . S
C786 H777 0.950 . S
C786 C785 1.398 . S
C786 C787 1.391 . S
C787 H775 0.950 . S
C787 C783 1.393 . S
C787 C786 1.391 . S
C788 H778 0.950 . S
C788 C789 1.386 . S
C788 C790 1.391 . S
C789 C788 1.386 . S
C789 C793 1.393 . S
C790 H779 0.950 . S
C790 C788 1.391 . S
C790 C791 1.400 . S
C791 C785 1.491 . S
C791 C790 1.400 . S
C791 C792 1.398 . S
C792 H780 0.950 . S
C792 C791 1.398 . S
C792 C793 1.391 . S
C793 H781 0.950 . S
C793 C789 1.393 . S
C793 C792 1.391 . S
H794 C802 0.950 . S
H795 C807 0.950 . S
H796 C804 0.950 . S
H797 C806 0.950 . S
H798 C808 0.950 . S
H799 C810 0.950 . S
H800 C812 0.950 . S
H801 C813 0.950 . S
C802 H794 0.950 . S
C802 C803 1.386 . S
C802 C804 1.391 . S
C803 C802 1.386 . S
C803 C807 1.393 . S
C804 H796 0.950 . S
C804 C802 1.391 . S
C804 C805 1.400 . S
C805 C804 1.400 . S
C805 C806 1.398 . S
C805 C811 1.491 . S
C806 H797 0.950 . S
C806 C805 1.398 . S
C806 C807 1.391 . S
C807 H795 0.950 . S
C807 C803 1.393 . S
C807 C806 1.391 . S
C808 H798 0.950 . S
C808 C809 1.386 . S
C808 C810 1.391 . S
C809 C808 1.386 . S
C809 C813 1.393 . S
C810 H799 0.950 . S
C810 C808 1.391 . S
C810 C811 1.400 . S
C811 C805 1.491 . S
C811 C810 1.400 . S
C811 C812 1.398 . S
C812 H800 0.950 . S
C812 C811 1.398 . S
C812 C813 1.391 . S
C813 H801 0.950 . S
C813 C809 1.393 . S
C813 C812 1.391 . S
H814 C822 0.950 . S
H815 C827 0.950 . S
H816 C824 0.950 . S
H817 C826 0.950 . S
H818 C828 0.950 . S
H819 C830 0.950 . S
H820 C832 0.950 . S
H821 C833 0.950 . S
C822 H814 0.950 . S
C822 C823 1.386 . S
C822 C824 1.391 . S
C823 C822 1.386 . S
C823 C827 1.393 . S
C824 H816 0.950 . S
C824 C822 1.391 . S
C824 C825 1.400 . S
C825 C824 1.400 . S
C825 C826 1.398 . S
C825 C831 1.491 . S
C826 H817 0.950 . S
C826 C825 1.398 . S
C826 C827 1.391 . S
C827 H815 0.950 . S
C827 C823 1.393 . S
C827 C826 1.391 . S
C828 H818 0.950 . S
C828 C829 1.386 . S
C828 C830 1.391 . S
C829 C828 1.386 . S
C829 C833 1.393 . S
C830 H819 0.950 . S
C830 C828 1.391 . S
C830 C831 1.400 . S
C831 C825 1.491 . S
C831 C830 1.400 . S
C831 C832 1.398 . S
C832 H820 0.950 . S
C832 C831 1.398 . S
C832 C833 1.391 . S
C833 H821 0.950 . S
C833 C829 1.393 . S
C833 C832 1.391 . S
H834 C842 0.950 . S
H835 C847 0.950 . S
H836 C844 0.950 . S
H837 C846 0.950 . S
H838 C848 0.950 . S
H839 C850 0.950 . S
H840 C852 0.950 . S
H841 C853 0.950 . S
C842 H834 0.950 . S
C842 C843 1.386 . S
C842 C844 1.391 . S
C843 C842 1.386 . S
C843 C847 1.393 . S
C844 H836 0.950 . S
C844 C842 1.391 . S
C844 C845 1.400 . S
C845 C844 1.400 . S
C845 C846 1.398 . S
C845 C851 1.491 1_655 S
C846 H837 0.950 . S
C846 C845 1.398 . S
C846 C847 1.391 . S
C847 H835 0.950 . S
C847 C843 1.393 . S
C847 C846 1.391 . S
C848 H838 0.950 . S
C848 C849 1.386 . S
C848 C850 1.391 . S
C849 C848 1.386 . S
C849 C853 1.393 . S
C850 H839 0.950 . S
C850 C848 1.391 . S
C850 C851 1.400 . S
C851 C845 1.491 1_455 S
C851 C850 1.400 . S
C851 C852 1.398 . S
C852 H840 0.950 . S
C852 C851 1.398 . S
C852 C853 1.391 . S
C853 H841 0.950 . S
C853 C849 1.393 . S
C853 C852 1.391 . S
H854 C862 0.950 . S
H855 C867 0.950 . S
H856 C864 0.950 . S
H857 C866 0.950 . S
H858 C868 0.950 . S
H859 C870 0.950 . S
H860 C872 0.950 . S
H861 C873 0.950 . S
C862 H854 0.950 . S
C862 C863 1.386 . S
C862 C864 1.391 . S
C863 C862 1.386 . S
C863 C867 1.393 . S
C864 H856 0.950 . S
C864 C862 1.391 . S
C864 C865 1.400 . S
C865 C864 1.400 . S
C865 C866 1.398 . S
C865 C871 1.491 . S
C866 H857 0.950 . S
C866 C865 1.398 . S
C866 C867 1.391 . S
C867 H855 0.950 . S
C867 C863 1.393 . S
C867 C866 1.391 . S
C868 H858 0.950 . S
C868 C869 1.386 . S
C868 C870 1.391 . S
C869 C868 1.386 . S
C869 C873 1.393 . S
C870 H859 0.950 . S
C870 C868 1.391 . S
C870 C871 1.400 . S
C871 C865 1.491 . S
C871 C870 1.400 . S
C871 C872 1.398 . S
C872 H860 0.950 . S
C872 C871 1.398 . S
C872 C873 1.391 . S
C873 H861 0.950 . S
C873 C869 1.393 . S
C873 C872 1.391 . S
H874 C882 0.950 . S
H875 C887 0.950 . S
H876 C884 0.950 . S
H877 C886 0.950 . S
H878 C888 0.950 . S
H879 C890 0.950 . S
H880 C892 0.950 . S
H881 C893 0.950 . S
C882 H874 0.950 . S
C882 C883 1.386 . S
C882 C884 1.391 . S
C883 C882 1.386 . S
C883 C887 1.393 . S
C884 H876 0.950 . S
C884 C882 1.391 . S
C884 C885 1.400 . S
C885 C884 1.400 . S
C885 C886 1.398 . S
C885 C891 1.491 1_545 S
C886 H877 0.950 . S
C886 C885 1.398 . S
C886 C887 1.391 . S
C887 H875 0.950 . S
C887 C883 1.393 . S
C887 C886 1.391 . S
C888 H878 0.950 . S
C888 C889 1.386 . S
C888 C890 1.391 . S
C889 C888 1.386 . S
C889 C893 1.393 . S
C890 H879 0.950 . S
C890 C888 1.391 . S
C890 C891 1.400 . S
C891 C885 1.491 1_565 S
C891 C890 1.400 . S
C891 C892 1.398 . S
C892 H880 0.950 . S
C892 C891 1.398 . S
C892 C893 1.391 . S
C893 H881 0.950 . S
C893 C889 1.393 . S
C893 C892 1.391 . S
H894 C902 0.950 . S
H895 C907 0.950 . S
H896 C904 0.950 . S
H897 C906 0.950 . S
H898 C908 0.950 . S
H899 C910 0.950 . S
H900 C912 0.950 . S
H901 C913 0.950 . S
C902 H894 0.950 . S
C902 C903 1.386 . S
C902 C904 1.391 . S
C903 C902 1.386 . S
C903 C907 1.393 . S
C904 H896 0.950 . S
C904 C902 1.391 . S
C904 C905 1.400 . S
C905 C904 1.400 . S
C905 C906 1.398 . S
C905 C911 1.491 . S
C906 H897 0.950 . S
C906 C905 1.398 . S
C906 C907 1.391 . S
C907 H895 0.950 . S
C907 C903 1.393 . S
C907 C906 1.391 . S
C908 H898 0.950 . S
C908 C909 1.386 . S
C908 C910 1.391 . S
C909 C908 1.386 . S
C909 C913 1.393 . S
C910 H899 0.950 . S
C910 C908 1.391 . S
C910 C911 1.400 . S
C911 C905 1.491 . S
C911 C910 1.400 . S
C911 C912 1.398 . S
C912 H900 0.950 . S
C912 C911 1.398 . S
C912 C913 1.391 . S
C913 H901 0.950 . S
C913 C909 1.393 . S
C913 C912 1.391 . S
H914 C922 0.950 . S
H915 C927 0.950 . S
H916 C924 0.950 . S
H917 C926 0.950 . S
H918 C928 0.950 . S
H919 C930 0.950 . S
H920 C932 0.950 . S
H921 C933 0.950 . S
C922 H914 0.950 . S
C922 C923 1.386 . S
C922 C924 1.391 . S
C923 C922 1.386 . S
C923 C927 1.393 . S
C924 H916 0.950 . S
C924 C922 1.391 . S
C924 C925 1.400 . S
C925 C924 1.400 . S
C925 C926 1.398 . S
C925 C931 1.491 . S
C926 H917 0.950 . S
C926 C925 1.398 . S
C926 C927 1.391 . S
C927 H915 0.950 . S
C927 C923 1.393 . S
C927 C926 1.391 . S
C928 H918 0.950 . S
C928 C929 1.386 . S
C928 C930 1.391 . S
C929 C928 1.386 . S
C929 C933 1.393 . S
C930 H919 0.950 . S
C930 C928 1.391 . S
C930 C931 1.400 . S
C931 C925 1.491 . S
C931 C930 1.400 . S
C931 C932 1.398 . S
C932 H920 0.950 . S
C932 C931 1.398 . S
C932 C933 1.391 . S
C933 H921 0.950 . S
C933 C929 1.393 . S
C933 C932 1.391 . S
H934 C942 0.950 . S
H935 C947 0.950 . S
H936 C944 0.950 . S
H937 C946 0.950 . S
H938 C948 0.950 . S
H939 C950 0.950 . S
H940 C952 0.950 . S
H941 C953 0.950 . S
C942 H934 0.950 . S
C942 C943 1.386 . S
C942 C944 1.391 . S
C943 C942 1.386 . S
C943 C947 1.393 . S
C944 H936 0.950 . S
C944 C942 1.391 . S
C944 C945 1.400 . S
C945 C944 1.400 . S
C945 C946 1.398 . S
C945 C951 1.491 . S
C946 H937 0.950 . S
C946 C945 1.398 . S
C946 C947 1.391 . S
C947 H935 0.950 . S
C947 C943 1.393 . S
C947 C946 1.391 . S
C948 H938 0.950 . S
C948 C949 1.386 . S
C948 C950 1.391 . S
C949 C948 1.386 . S
C949 C953 1.393 . S
C950 H939 0.950 . S
C950 C948 1.391 . S
C950 C951 1.400 . S
C951 C945 1.491 . S
C951 C950 1.400 . S
C951 C952 1.398 . S
C952 H940 0.950 . S
C952 C951 1.398 . S
C952 C953 1.391 . S
C953 H941 0.950 . S
C953 C949 1.393 . S
C953 C952 1.391 . S
H954 C962 0.950 . S
H955 C967 0.950 . S
H956 C964 0.950 . S
H957 C966 0.950 . S
H958 C968 0.950 . S
H959 C970 0.950 . S
H960 C972 0.950 . S
H961 C973 0.950 . S
C962 H954 0.950 . S
C962 C963 1.386 . S
C962 C964 1.391 . S
C963 C962 1.386 . S
C963 C967 1.393 . S
C964 H956 0.950 . S
C964 C962 1.391 . S
C964 C965 1.400 . S
C965 C964 1.400 . S
C965 C966 1.398 . S
C965 C971 1.491 . S
C966 H957 0.950 . S
C966 C965 1.398 . S
C966 C967 1.391 . S
C967 H955 0.950 . S
C967 C963 1.393 . S
C967 C966 1.391 . S
C968 H958 0.950 . S
C968 C969 1.386 . S
C968 C970 1.391 . S
C969 C968 1.386 . S
C969 C973 1.393 . S
C970 H959 0.950 . S
C970 C968 1.391 . S
C970 C971 1.400 . S
C971 C965 1.491 . S
C971 C970 1.400 . S
C971 C972 1.398 . S
C972 H960 0.950 . S
C972 C971 1.398 . S
C972 C973 1.391 . S
C973 H961 0.950 . S
C973 C969 1.393 . S
C973 C972 1.391 . S
H974 C982 0.950 . S
H975 C987 0.950 . S
H976 C984 0.950 . S
H977 C986 0.950 . S
H978 C988 0.950 . S
H979 C990 0.950 . S
H980 C992 0.950 . S
H981 C993 0.950 . S
C982 H974 0.950 . S
C982 C983 1.386 . S
C982 C984 1.391 . S
C983 C982 1.386 . S
C983 C987 1.393 . S
C984 H976 0.950 . S
C984 C982 1.391 . S
C984 C985 1.400 . S
C985 C984 1.400 . S
C985 C986 1.398 . S
C985 C991 1.491 . S
C986 H977 0.950 . S
C986 C985 1.398 . S
C986 C987 1.391 . S
C987 H975 0.950 . S
C987 C983 1.393 . S
C987 C986 1.391 . S
C988 H978 0.950 . S
C988 C989 1.386 . S
C988 C990 1.391 . S
C989 C988 1.386 . S
C989 C993 1.393 . S
C990 H979 0.950 . S
C990 C988 1.391 . S
C990 C991 1.400 . S
C991 C985 1.491 . S
C991 C990 1.400 . S
C991 C992 1.398 . S
C992 H980 0.950 . S
C992 C991 1.398 . S
C992 C993 1.391 . S
C993 H981 0.950 . S
C993 C989 1.393 . S
C993 C992 1.391 . S
H994 C1002 0.950 . S
H995 C1007 0.950 . S
H996 C1004 0.950 . S
H997 C1006 0.950 . S
H998 C1008 0.950 . S
H999 C1010 0.950 . S
H1000 C1012 0.950 . S
H1001 C1013 0.950 . S
C1002 H994 0.950 . S
C1002 C1003 1.386 . S
C1002 C1004 1.391 . S
C1003 C1002 1.386 . S
C1003 C1007 1.393 . S
C1004 H996 0.950 . S
C1004 C1002 1.391 . S
C1004 C1005 1.400 . S
C1005 C1004 1.400 . S
C1005 C1006 1.398 . S
C1005 C1011 1.491 . S
C1006 H997 0.950 . S
C1006 C1005 1.398 . S
C1006 C1007 1.391 . S
C1007 H995 0.950 . S
C1007 C1003 1.393 . S
C1007 C1006 1.391 . S
C1008 H998 0.950 . S
C1008 C1009 1.386 . S
C1008 C1010 1.391 . S
C1009 C1008 1.386 . S
C1009 C1013 1.393 . S
C1010 H999 0.950 . S
C1010 C1008 1.391 . S
C1010 C1011 1.400 . S
C1011 C1005 1.491 . S
C1011 C1010 1.400 . S
C1011 C1012 1.398 . S
C1012 H1000 0.950 . S
C1012 C1011 1.398 . S
C1012 C1013 1.391 . S
C1013 H1001 0.950 . S
C1013 C1009 1.393 . S
C1013 C1012 1.391 . S
H1014 C1022 0.950 . S
H1015 C1027 0.950 . S
H1016 C1024 0.950 . S
H1017 C1026 0.950 . S
H1018 C1028 0.950 . S
H1019 C1030 0.950 . S
H1020 C1032 0.950 . S
H1021 C1033 0.950 . S
C1022 H1014 0.950 . S
C1022 C1023 1.386 . S
C1022 C1024 1.391 . S
C1023 C1022 1.386 . S
C1023 C1027 1.393 . S
C1024 H1016 0.950 . S
C1024 C1022 1.391 . S
C1024 C1025 1.400 . S
C1025 C1024 1.400 . S
C1025 C1026 1.398 . S
C1025 C1031 1.491 1_545 S
C1026 H1017 0.950 . S
C1026 C1025 1.398 . S
C1026 C1027 1.391 . S
C1027 H1015 0.950 . S
C1027 C1023 1.393 . S
C1027 C1026 1.391 . S
C1028 H1018 0.950 . S
C1028 C1029 1.386 . S
C1028 C1030 1.391 . S
C1029 C1028 1.386 . S
C1029 C1033 1.393 . S
C1030 H1019 0.950 . S
C1030 C1028 1.391 . S
C1030 C1031 1.400 . S
C1031 C1025 1.491 1_565 S
C1031 C1030 1.400 . S
C1031 C1032 1.398 . S
C1032 H1020 0.950 . S
C1032 C1031 1.398 . S
C1032 C1033 1.391 . S
C1033 H1021 0.950 . S
C1033 C1029 1.393 . S
C1033 C1032 1.391 . S
H1034 C1042 0.950 . S
H1035 C1047 0.950 . S
H1036 C1044 0.943 1_455 S
H1037 C1046 0.950 . S
H1038 C1048 0.950 . S
H1039 C1050 0.950 . S
H1040 C1052 0.950 . S
H1041 C1053 0.950 . S
C1042 H1034 0.950 . S
C1042 C1043 1.386 . S
C1042 C1044 1.391 . S
C1043 C1042 1.386 . S
C1043 C1047 1.393 . S
C1044 H1036 0.943 1_655 S
C1044 C1042 1.391 . S
C1044 C1045 1.400 1_655 S
C1045 C1044 1.400 1_455 S
C1045 C1046 1.398 1_455 S
C1045 C1051 1.491 . S
C1046 H1037 0.950 . S
C1046 C1045 1.398 1_655 S
C1046 C1047 1.391 . S
C1047 H1035 0.950 . S
C1047 C1043 1.393 . S
C1047 C1046 1.391 . S
C1048 H1038 0.950 . S
C1048 C1049 1.386 . S
C1048 C1050 1.391 . S
C1049 C1048 1.386 . S
C1049 C1053 1.393 . S
C1050 H1039 0.950 . S
C1050 C1048 1.391 . S
C1050 C1051 1.400 . S
C1051 C1045 1.491 . S
C1051 C1050 1.400 . S
C1051 C1052 1.398 . S
C1052 H1040 0.950 . S
C1052 C1051 1.398 . S
C1052 C1053 1.391 . S
C1053 H1041 0.950 . S
C1053 C1049 1.393 . S
C1053 C1052 1.391 . S
H1054 C1062 0.950 . S
H1055 C1067 0.950 . S
H1056 C1064 0.950 . S
H1057 C1066 0.950 . S
H1058 C1068 0.950 . S
H1059 C1070 0.950 . S
H1060 C1072 0.950 . S
H1061 C1073 0.950 . S
C1062 H1054 0.950 . S
C1062 C1063 1.386 . S
C1062 C1064 1.391 . S
C1063 C1062 1.386 . S
C1063 C1067 1.393 . S
C1064 H1056 0.950 . S
C1064 C1062 1.391 . S
C1064 C1065 1.400 . S
C1065 C1064 1.400 . S
C1065 C1066 1.398 . S
C1065 C1071 1.491 . S
C1066 H1057 0.950 . S
C1066 C1065 1.398 . S
C1066 C1067 1.391 . S
C1067 H1055 0.950 . S
C1067 C1063 1.393 . S
C1067 C1066 1.391 . S
C1068 H1058 0.950 . S
C1068 C1069 1.386 . S
C1068 C1070 1.391 . S
C1069 C1068 1.386 . S
C1069 C1073 1.393 . S
C1070 H1059 0.950 . S
C1070 C1068 1.391 . S
C1070 C1071 1.400 . S
C1071 C1065 1.491 . S
C1071 C1070 1.400 . S
C1071 C1072 1.398 . S
C1072 H1060 0.950 . S
C1072 C1071 1.398 . S
C1072 C1073 1.391 . S
C1073 H1061 0.950 . S
C1073 C1069 1.393 . S
C1073 C1072 1.391 . S
H1074 C1082 0.950 . S
H1075 C1087 0.950 . S
H1076 C1084 0.950 . S
H1077 C1086 0.950 . S
H1078 C1088 0.950 . S
H1079 C1090 0.950 . S
H1080 C1092 0.950 . S
H1081 C1093 0.950 . S
C1082 H1074 0.950 . S
C1082 C1083 1.386 . S
C1082 C1084 1.391 . S
C1083 C1082 1.386 . S
C1083 C1087 1.393 . S
C1084 H1076 0.950 . S
C1084 C1082 1.391 . S
C1084 C1085 1.400 . S
C1085 C1084 1.400 . S
C1085 C1086 1.398 . S
C1085 C1091 1.491 . S
C1086 H1077 0.950 . S
C1086 C1085 1.398 . S
C1086 C1087 1.391 . S
C1087 H1075 0.950 . S
C1087 C1083 1.393 . S
C1087 C1086 1.391 . S
C1088 H1078 0.950 . S
C1088 C1089 1.386 . S
C1088 C1090 1.391 . S
C1089 C1088 1.386 . S
C1089 C1093 1.393 . S
C1090 H1079 0.950 . S
C1090 C1088 1.391 . S
C1090 C1091 1.400 . S
C1091 C1085 1.491 . S
C1091 C1090 1.400 . S
C1091 C1092 1.398 . S
C1092 H1080 0.950 . S
C1092 C1091 1.398 . S
C1092 C1093 1.391 . S
C1093 H1081 0.950 . S
C1093 C1089 1.393 . S
C1093 C1092 1.391 . S
H1094 C1102 0.950 . S
H1095 C1107 0.950 . S
H1096 C1104 0.950 . S
H1097 C1106 0.950 . S
H1098 C1108 0.950 . S
H1099 C1110 0.950 . S
H1100 C1112 0.950 . S
H1101 C1113 0.950 . S
C1102 H1094 0.950 . S
C1102 C1103 1.386 . S
C1102 C1104 1.391 . S
C1103 C1102 1.386 . S
C1103 C1107 1.393 . S
C1104 H1096 0.950 . S
C1104 C1102 1.391 . S
C1104 C1105 1.400 . S
C1105 C1104 1.400 . S
C1105 C1106 1.398 . S
C1105 C1111 1.491 . S
C1106 H1097 0.950 . S
C1106 C1105 1.398 . S
C1106 C1107 1.391 . S
C1107 H1095 0.950 . S
C1107 C1103 1.393 . S
C1107 C1106 1.391 . S
C1108 H1098 0.950 . S
C1108 C1109 1.386 . S
C1108 C1110 1.391 . S
C1109 C1108 1.386 . S
C1109 C1113 1.393 . S
C1110 H1099 0.950 . S
C1110 C1108 1.391 . S
C1110 C1111 1.400 . S
C1111 C1105 1.491 . S
C1111 C1110 1.400 . S
C1111 C1112 1.398 . S
C1112 H1100 0.950 . S
C1112 C1111 1.398 . S
C1112 C1113 1.391 . S
C1113 H1101 0.950 . S
C1113 C1109 1.393 . S
C1113 C1112 1.391 . S
H1114 C1122 0.950 . S
H1115 C1127 0.950 . S
H1116 C1124 0.950 . S
H1117 C1126 0.950 . S
H1118 C1128 0.950 . S
H1119 C1130 0.950 . S
H1120 C1132 0.950 . S
H1121 C1133 0.950 . S
C1122 H1114 0.950 . S
C1122 C1123 1.386 . S
C1122 C1124 1.391 . S
C1123 C1122 1.386 . S
C1123 C1127 1.393 . S
C1124 H1116 0.950 . S
C1124 C1122 1.391 . S
C1124 C1125 1.400 . S
C1125 C1124 1.400 . S
C1125 C1126 1.398 . S
C1125 C1131 1.491 . S
C1126 H1117 0.950 . S
C1126 C1125 1.398 . S
C1126 C1127 1.391 . S
C1127 H1115 0.950 . S
C1127 C1123 1.393 . S
C1127 C1126 1.391 . S
C1128 H1118 0.950 . S
C1128 C1129 1.386 . S
C1128 C1130 1.391 . S
C1129 C1128 1.386 . S
C1129 C1133 1.393 . S
C1130 H1119 0.950 . S
C1130 C1128 1.391 . S
C1130 C1131 1.400 . S
C1131 C1125 1.491 . S
C1131 C1130 1.400 . S
C1131 C1132 1.398 . S
C1132 H1120 0.950 . S
C1132 C1131 1.398 . S
C1132 C1133 1.391 . S
C1133 H1121 0.950 . S
C1133 C1129 1.393 . S
C1133 C1132 1.391 . S
H1134 C1142 0.950 . S
H1135 C1147 0.950 . S
H1136 C1144 0.950 1_545 S
H1137 C1146 0.950 . S
H1138 C1148 0.950 . S
H1139 C1150 0.950 . S
H1140 C1152 0.950 . S
H1141 C1153 0.950 . S
C1142 H1134 0.950 . S
C1142 C1143 1.386 . S
C1142 C1144 1.391 . S
C1143 C1142 1.386 . S
C1143 C1147 1.393 . S
C1144 H1136 0.950 1_565 S
C1144 C1142 1.391 . S
C1144 C1145 1.394 1_565 S
C1145 C1144 1.394 1_545 S
C1145 C1146 1.375 1_545 S
C1145 C1151 1.519 . S
C1146 H1137 0.950 . S
C1146 C1145 1.375 1_565 S
C1146 C1147 1.391 . S
C1147 H1135 0.950 . S
C1147 C1143 1.393 . S
C1147 C1146 1.391 . S
C1148 H1138 0.950 . S
C1148 C1149 1.386 . S
C1148 C1150 1.391 . S
C1149 C1148 1.386 . S
C1149 C1153 1.393 . S
C1150 H1139 0.950 . S
C1150 C1148 1.391 . S
C1150 C1151 1.400 . S
C1151 C1145 1.519 . S
C1151 C1150 1.400 . S
C1151 C1152 1.398 . S
C1152 H1140 0.950 . S
C1152 C1151 1.398 . S
C1152 C1153 1.391 . S
C1153 H1141 0.950 . S
C1153 C1149 1.393 . S
C1153 C1152 1.391 . S
H1154 C1162 0.950 . S
H1155 C1167 0.950 . S
H1156 C1164 0.950 1_655 S
H1157 C1166 0.950 . S
H1158 C1168 0.950 . S
H1159 C1170 0.950 . S
H1160 C1172 0.950 . S
H1161 C1173 0.950 . S
C1162 H1154 0.950 . S
C1162 C1163 1.386 . S
C1162 C1164 1.391 . S
C1163 C1162 1.386 . S
C1163 C1167 1.393 . S
C1164 H1156 0.950 1_455 S
C1164 C1162 1.391 . S
C1164 C1165 1.400 1_455 S
C1165 C1164 1.400 1_655 S
C1165 C1166 1.398 . S
C1165 C1171 1.491 . S
C1166 H1157 0.950 . S
C1166 C1165 1.398 . S
C1166 C1167 1.391 1_655 S
C1167 H1155 0.950 . S
C1167 C1163 1.393 . S
C1167 C1166 1.391 1_455 S
C1168 H1158 0.950 . S
C1168 C1169 1.386 . S
C1168 C1170 1.391 . S
C1169 C1168 1.386 . S
C1169 C1173 1.393 . S
C1170 H1159 0.950 . S
C1170 C1168 1.391 . S
C1170 C1171 1.400 . S
C1171 C1165 1.491 . S
C1171 C1170 1.400 . S
C1171 C1172 1.398 . S
C1172 H1160 0.950 . S
C1172 C1171 1.398 . S
C1172 C1173 1.391 . S
C1173 H1161 0.950 . S
C1173 C1169 1.393 . S
C1173 C1172 1.391 . S
H1174 C1182 0.950 . S
H1175 C1187 0.950 . S
H1176 C1184 0.950 . S
H1177 C1186 0.950 . S
H1178 C1188 0.950 . S
H1179 C1190 0.950 . S
H1180 C1192 0.950 . S
H1181 C1193 0.950 . S
C1182 H1174 0.950 . S
C1182 C1183 1.386 . S
C1182 C1184 1.391 . S
C1183 C1182 1.386 . S
C1183 C1187 1.393 . S
C1184 H1176 0.950 . S
C1184 C1182 1.391 . S
C1184 C1185 1.400 . S
C1185 C1184 1.400 . S
C1185 C1186 1.398 . S
C1185 C1191 1.491 . S
C1186 H1177 0.950 . S
C1186 C1185 1.398 . S
C1186 C1187 1.391 . S
C1187 H1175 0.950 . S
C1187 C1183 1.393 . S
C1187 C1186 1.391 . S
C1188 H1178 0.950 . S
C1188 C1189 1.386 . S
C1188 C1190 1.391 . S
C1189 C1188 1.386 . S
C1189 C1193 1.393 . S
C1190 H1179 0.950 . S
C1190 C1188 1.391 . S
C1190 C1191 1.400 . S
C1191 C1185 1.491 . S
C1191 C1190 1.400 . S
C1191 C1192 1.398 . S
C1192 H1180 0.950 . S
C1192 C1191 1.398 . S
C1192 C1193 1.391 . S
C1193 H1181 0.950 . S
C1193 C1189 1.393 . S
C1193 C1192 1.391 . S
H1194 C1202 0.950 . S
H1195 C1207 0.950 . S
H1196 C1204 0.950 . S
H1197 C1206 0.950 . S
H1198 C1208 0.950 . S
H1199 C1210 0.950 . S
H1200 C1212 0.950 . S
H1201 C1213 0.950 . S
C1202 H1194 0.950 . S
C1202 C1203 1.386 . S
C1202 C1204 1.391 . S
C1203 C1202 1.386 . S
C1203 C1207 1.393 . S
C1204 H1196 0.950 . S
C1204 C1202 1.391 . S
C1204 C1205 1.400 . S
C1205 C1204 1.400 . S
C1205 C1206 1.398 . S
C1205 C1211 1.491 . S
C1206 H1197 0.950 . S
C1206 C1205 1.398 . S
C1206 C1207 1.391 . S
C1207 H1195 0.950 . S
C1207 C1203 1.393 . S
C1207 C1206 1.391 . S
C1208 H1198 0.950 . S
C1208 C1209 1.386 . S
C1208 C1210 1.391 1_655 S
C1209 C1208 1.386 . S
C1209 C1213 1.393 . S
C1210 H1199 0.950 . S
C1210 C1208 1.391 1_455 S
C1210 C1211 1.400 . S
C1211 C1205 1.491 . S
C1211 C1210 1.400 . S
C1211 C1212 1.398 1_455 S
C1212 H1200 0.950 . S
C1212 C1211 1.398 1_655 S
C1212 C1213 1.391 . S
C1213 H1201 0.950 . S
C1213 C1209 1.393 . S
C1213 C1212 1.391 . S
H1214 C1222 0.950 . S
H1215 C1227 0.950 . S
H1216 C1224 0.950 . S
H1217 C1226 0.950 . S
H1218 C1228 0.950 . S
H1219 C1230 0.950 . S
H1220 C1232 0.950 . S
H1221 C1233 0.950 . S
C1222 H1214 0.950 . S
C1222 C1223 1.386 . S
C1222 C1224 1.391 . S
C1223 C1222 1.386 . S
C1223 C1227 1.393 . S
C1224 H1216 0.950 . S
C1224 C1222 1.391 . S
C1224 C1225 1.400 . S
C1225 C1224 1.400 . S
C1225 C1226 1.398 . S
C1225 C1231 1.491 . S
C1226 H1217 0.950 . S
C1226 C1225 1.398 . S
C1226 C1227 1.391 . S
C1227 H1215 0.950 . S
C1227 C1223 1.393 . S
C1227 C1226 1.391 . S
C1228 H1218 0.950 . S
C1228 C1229 1.386 . S
C1228 C1230 1.391 . S
C1229 C1228 1.386 . S
C1229 C1233 1.393 . S
C1230 H1219 0.950 . S
C1230 C1228 1.391 . S
C1230 C1231 1.400 . S
C1231 C1225 1.491 . S
C1231 C1230 1.400 . S
C1231 C1232 1.398 . S
C1232 H1220 0.950 . S
C1232 C1231 1.398 . S
C1232 C1233 1.391 . S
C1233 H1221 0.950 . S
C1233 C1229 1.393 . S
C1233 C1232 1.391 . S
H1234 C1242 0.950 . S
H1235 C1247 0.950 . S
H1236 C1244 0.950 . S
H1237 C1246 0.950 . S
H1238 C1248 0.950 . S
H1239 C1250 0.950 . S
H1240 C1252 0.950 . S
H1241 C1253 0.950 . S
C1242 H1234 0.950 . S
C1242 C1243 1.386 . S
C1242 C1244 1.391 . S
C1243 C1242 1.386 . S
C1243 C1247 1.393 . S
C1244 H1236 0.950 . S
C1244 C1242 1.391 . S
C1244 C1245 1.400 . S
C1245 C1244 1.400 . S
C1245 C1246 1.398 . S
C1245 C1251 1.491 1_565 S
C1246 H1237 0.950 . S
C1246 C1245 1.398 . S
C1246 C1247 1.391 . S
C1247 H1235 0.950 . S
C1247 C1243 1.393 . S
C1247 C1246 1.391 . S
C1248 H1238 0.950 . S
C1248 C1249 1.386 . S
C1248 C1250 1.391 . S
C1249 C1248 1.386 . S
C1249 C1253 1.393 . S
C1250 H1239 0.950 . S
C1250 C1248 1.391 . S
C1250 C1251 1.400 . S
C1251 C1245 1.491 1_545 S
C1251 C1250 1.400 . S
C1251 C1252 1.398 . S
C1252 H1240 0.950 . S
C1252 C1251 1.398 . S
C1252 C1253 1.391 . S
C1253 H1241 0.950 . S
C1253 C1249 1.393 . S
C1253 C1252 1.391 . S
H1254 C1262 0.950 . S
H1255 C1267 0.950 . S
H1256 C1264 0.950 . S
H1257 C1266 0.950 . S
H1258 C1268 0.950 . S
H1259 C1270 0.950 . S
H1260 C1272 0.950 . S
H1261 C1273 0.950 . S
C1262 H1254 0.950 . S
C1262 C1263 1.386 . S
C1262 C1264 1.391 . S
C1263 C1262 1.386 . S
C1263 C1267 1.393 . S
C1264 H1256 0.950 . S
C1264 C1262 1.391 . S
C1264 C1265 1.400 . S
C1265 C1264 1.400 . S
C1265 C1266 1.398 . S
C1265 C1271 1.491 . S
C1266 H1257 0.950 . S
C1266 C1265 1.398 . S
C1266 C1267 1.391 . S
C1267 H1255 0.950 . S
C1267 C1263 1.393 . S
C1267 C1266 1.391 . S
C1268 H1258 0.950 . S
C1268 C1269 1.386 . S
C1268 C1270 1.391 . S
C1269 C1268 1.386 . S
C1269 C1273 1.393 . S
C1270 H1259 0.950 . S
C1270 C1268 1.391 . S
C1270 C1271 1.400 . S
C1271 C1265 1.491 . S
C1271 C1270 1.400 . S
C1271 C1272 1.398 . S
C1272 H1260 0.950 . S
C1272 C1271 1.398 . S
C1272 C1273 1.391 . S
C1273 H1261 0.950 . S
C1273 C1269 1.393 . S
C1273 C1272 1.391 . S
H1274 C1282 0.950 . S
H1275 C1287 0.950 . S
H1276 C1284 0.950 . S
H1277 C1286 0.950 . S
H1278 C1288 0.950 . S
H1279 C1290 0.950 . S
H1280 C1292 0.950 . S
H1281 C1293 0.950 . S
C1282 H1274 0.950 . S
C1282 C1283 1.386 . S
C1282 C1284 1.391 . S
C1283 C1282 1.386 . S
C1283 C1287 1.393 . S
C1284 H1276 0.950 . S
C1284 C1282 1.391 . S
C1284 C1285 1.400 . S
C1285 C1284 1.400 . S
C1285 C1286 1.398 . S
C1285 C1291 1.491 . S
C1286 H1277 0.950 . S
C1286 C1285 1.398 . S
C1286 C1287 1.391 . S
C1287 H1275 0.950 . S
C1287 C1283 1.393 . S
C1287 C1286 1.391 . S
C1288 H1278 0.950 . S
C1288 C1289 1.386 . S
C1288 C1290 1.391 . S
C1289 C1288 1.386 . S
C1289 C1293 1.393 . S
C1290 H1279 0.950 . S
C1290 C1288 1.391 . S
C1290 C1291 1.400 . S
C1291 C1285 1.491 . S
C1291 C1290 1.400 . S
C1291 C1292 1.398 . S
C1292 H1280 0.950 . S
C1292 C1291 1.398 . S
C1292 C1293 1.391 . S
C1293 H1281 0.950 . S
C1293 C1289 1.393 . S
C1293 C1292 1.391 . S
H1294 C1302 0.950 . S
H1295 C1307 0.950 . S
H1296 C1304 0.950 . S
H1297 C1306 0.950 . S
H1298 C1308 0.950 . S
H1299 C1310 0.950 . S
H1300 C1312 0.950 . S
H1301 C1313 0.950 . S
C1302 H1294 0.950 . S
C1302 C1303 1.386 . S
C1302 C1304 1.391 . S
C1303 C1302 1.386 . S
C1303 C1307 1.393 . S
C1304 H1296 0.950 . S
C1304 C1302 1.391 . S
C1304 C1305 1.400 . S
C1305 C1304 1.400 . S
C1305 C1306 1.398 . S
C1305 C1311 1.491 . S
C1306 H1297 0.950 . S
C1306 C1305 1.398 . S
C1306 C1307 1.391 . S
C1307 H1295 0.950 . S
C1307 C1303 1.393 . S
C1307 C1306 1.391 . S
C1308 H1298 0.950 . S
C1308 C1309 1.386 . S
C1308 C1310 1.391 . S
C1309 C1308 1.386 . S
C1309 C1313 1.393 . S
C1310 H1299 0.950 . S
C1310 C1308 1.391 . S
C1310 C1311 1.400 . S
C1311 C1305 1.491 . S
C1311 C1310 1.400 . S
C1311 C1312 1.398 . S
C1312 H1300 0.950 . S
C1312 C1311 1.398 . S
C1312 C1313 1.391 . S
C1313 H1301 0.950 . S
C1313 C1309 1.393 . S
C1313 C1312 1.391 . S
H1314 C1322 0.950 . S
H1315 C1327 0.950 . S
H1316 C1324 0.950 . S
H1317 C1326 0.950 . S
H1318 C1328 0.950 . S
H1319 C1330 0.950 . S
H1320 C1332 0.950 . S
H1321 C1333 0.950 . S
C1322 H1314 0.950 . S
C1322 C1323 1.386 . S
C1322 C1324 1.391 . S
C1323 C1322 1.386 . S
C1323 C1327 1.393 . S
C1324 H1316 0.950 . S
C1324 C1322 1.391 . S
C1324 C1325 1.400 . S
C1325 C1324 1.400 . S
C1325 C1326 1.398 . S
C1325 C1331 1.491 . S
C1326 H1317 0.950 . S
C1326 C1325 1.398 . S
C1326 C1327 1.391 . S
C1327 H1315 0.950 . S
C1327 C1323 1.393 . S
C1327 C1326 1.391 . S
C1328 H1318 0.950 . S
C1328 C1329 1.386 . S
C1328 C1330 1.391 . S
C1329 C1328 1.386 . S
C1329 C1333 1.393 . S
C1330 H1319 0.950 . S
C1330 C1328 1.391 . S
C1330 C1331 1.400 . S
C1331 C1325 1.491 . S
C1331 C1330 1.400 . S
C1331 C1332 1.398 . S
C1332 H1320 0.950 . S
C1332 C1331 1.398 . S
C1332 C1333 1.391 . S
C1333 H1321 0.950 . S
C1333 C1329 1.393 . S
C1333 C1332 1.391 . S
H1334 C1342 0.950 . S
H1335 C1347 0.950 . S
H1336 C1344 0.950 . S
H1337 C1346 0.950 . S
H1338 C1348 0.950 . S
H1339 C1350 0.950 . S
H1340 C1352 0.950 . S
H1341 C1353 0.950 . S
C1342 H1334 0.950 . S
C1342 C1343 1.386 . S
C1342 C1344 1.391 . S
C1343 C1342 1.386 . S
C1343 C1347 1.393 . S
C1344 H1336 0.950 . S
C1344 C1342 1.391 . S
C1344 C1345 1.400 . S
C1345 C1344 1.400 . S
C1345 C1346 1.398 . S
C1345 C1351 1.491 . S
C1346 H1337 0.950 . S
C1346 C1345 1.398 . S
C1346 C1347 1.391 . S
C1347 H1335 0.950 . S
C1347 C1343 1.393 . S
C1347 C1346 1.391 . S
C1348 H1338 0.950 . S
C1348 C1349 1.386 . S
C1348 C1350 1.391 . S
C1349 C1348 1.386 . S
C1349 C1353 1.393 . S
C1350 H1339 0.950 . S
C1350 C1348 1.391 . S
C1350 C1351 1.400 . S
C1351 C1345 1.491 . S
C1351 C1350 1.400 . S
C1351 C1352 1.398 . S
C1352 H1340 0.950 . S
C1352 C1351 1.398 . S
C1352 C1353 1.391 . S
C1353 H1341 0.950 . S
C1353 C1349 1.393 . S
C1353 C1352 1.391 . S
H1354 C1362 0.950 . S
H1355 C1367 0.950 . S
H1356 C1364 0.950 . S
H1357 C1366 0.950 . S
H1358 C1368 0.950 . S
H1359 C1370 0.950 . S
H1360 C1372 0.950 . S
H1361 C1373 0.950 . S
C1362 H1354 0.950 . S
C1362 C1363 1.386 . S
C1362 C1364 1.391 . S
C1363 C1362 1.386 . S
C1363 C1367 1.393 . S
C1364 H1356 0.950 . S
C1364 C1362 1.391 . S
C1364 C1365 1.400 . S
C1365 C1364 1.400 . S
C1365 C1366 1.398 . S
C1365 C1371 1.491 . S
C1366 H1357 0.950 . S
C1366 C1365 1.398 . S
C1366 C1367 1.391 . S
C1367 H1355 0.950 . S
C1367 C1363 1.393 . S
C1367 C1366 1.391 . S
C1368 H1358 0.950 . S
C1368 C1369 1.386 . S
C1368 C1370 1.391 . S
C1369 C1368 1.386 . S
C1369 C1373 1.393 . S
C1370 H1359 0.950 . S
C1370 C1368 1.391 . S
C1370 C1371 1.400 . S
C1371 C1365 1.491 . S
C1371 C1370 1.400 . S
C1371 C1372 1.398 . S
C1372 H1360 0.950 . S
C1372 C1371 1.398 . S
C1372 C1373 1.391 . S
C1373 H1361 0.950 . S
C1373 C1369 1.393 . S
C1373 C1372 1.391 . S
H1374 C1382 0.950 . S
H1375 C1387 0.950 1_455 S
H1376 C1384 0.950 . S
H1377 C1386 0.950 1_455 S
H1378 C1388 0.950 1_455 S
H1379 C1390 0.950 1_455 S
H1380 C1392 0.950 . S
H1381 C1393 0.950 . S
C1382 H1374 0.950 . S
C1382 C1383 1.386 . S
C1382 C1384 1.391 . S
C1383 C1382 1.386 . S
C1383 C1387 1.393 . S
C1384 H1376 0.950 . S
C1384 C1382 1.391 . S
C1384 C1385 1.400 . S
C1385 C1384 1.400 . S
C1385 C1386 1.398 . S
C1385 C1391 1.491 . S
C1386 H1377 0.950 1_655 S
C1386 C1385 1.398 . S
C1386 C1387 1.391 . S
C1387 H1375 0.950 1_655 S
C1387 C1383 1.393 . S
C1387 C1386 1.391 . S
C1388 H1378 0.950 1_655 S
C1388 C1389 1.386 . S
C1388 C1390 1.391 . S
C1389 C1388 1.386 . S
C1389 C1393 1.393 . S
C1390 H1379 0.950 1_655 S
C1390 C1388 1.391 . S
C1390 C1391 1.400 . S
C1391 C1385 1.491 . S
C1391 C1390 1.400 . S
C1391 C1392 1.398 . S
C1392 H1380 0.950 . S
C1392 C1391 1.398 . S
C1392 C1393 1.391 . S
C1393 H1381 0.950 . S
C1393 C1389 1.393 . S
C1393 C1392 1.391 . S
H1394 C1402 0.950 . S
H1395 C1407 0.950 . S
H1396 C1404 0.950 . S
H1397 C1406 0.950 . S
H1398 C1408 0.950 . S
H1399 C1410 0.950 . S
H1400 C1412 0.950 . S
H1401 C1413 0.950 . S
C1402 H1394 0.950 . S
C1402 C1403 1.386 . S
C1402 C1404 1.391 . S
C1403 C1402 1.386 . S
C1403 C1407 1.393 . S
C1404 H1396 0.950 . S
C1404 C1402 1.391 . S
C1404 C1405 1.400 . S
C1405 C1404 1.400 . S
C1405 C1406 1.398 . S
C1405 C1411 1.491 . S
C1406 H1397 0.950 . S
C1406 C1405 1.398 . S
C1406 C1407 1.391 . S
C1407 H1395 0.950 . S
C1407 C1403 1.393 . S
C1407 C1406 1.391 . S
C1408 H1398 0.950 . S
C1408 C1409 1.386 . S
C1408 C1410 1.391 . S
C1409 C1408 1.386 . S
C1409 C1413 1.393 . S
C1410 H1399 0.950 . S
C1410 C1408 1.391 . S
C1410 C1411 1.400 . S
C1411 C1405 1.491 . S
C1411 C1410 1.400 . S
C1411 C1412 1.398 . S
C1412 H1400 0.950 . S
C1412 C1411 1.398 . S
C1412 C1413 1.391 . S
C1413 H1401 0.950 . S
C1413 C1409 1.393 . S
C1413 C1412 1.391 . S
H1414 C1422 0.950 . S
H1415 C1427 0.950 . S
H1416 C1424 0.950 . S
H1417 C1426 0.950 . S
H1418 C1428 0.950 . S
H1419 C1430 0.950 . S
H1420 C1432 0.950 . S
H1421 C1433 0.950 . S
C1422 H1414 0.950 . S
C1422 C1423 1.386 . S
C1422 C1424 1.391 . S
C1423 C1422 1.386 . S
C1423 C1427 1.393 . S
C1424 H1416 0.950 . S
C1424 C1422 1.391 . S
C1424 C1425 1.400 . S
C1425 C1424 1.400 . S
C1425 C1426 1.398 . S
C1425 C1431 1.491 . S
C1426 H1417 0.950 . S
C1426 C1425 1.398 . S
C1426 C1427 1.391 . S
C1427 H1415 0.950 . S
C1427 C1423 1.393 . S
C1427 C1426 1.391 . S
C1428 H1418 0.950 . S
C1428 C1429 1.386 . S
C1428 C1430 1.391 . S
C1429 C1428 1.386 . S
C1429 C1433 1.393 . S
C1430 H1419 0.950 . S
C1430 C1428 1.391 . S
C1430 C1431 1.400 . S
C1431 C1425 1.491 . S
C1431 C1430 1.400 . S
C1431 C1432 1.398 . S
C1432 H1420 0.950 . S
C1432 C1431 1.398 . S
C1432 C1433 1.391 . S
C1433 H1421 0.950 . S
C1433 C1429 1.393 . S
C1433 C1432 1.391 . S
H1434 C1442 0.950 . S
H1435 C1447 0.950 . S
H1436 C1444 0.950 . S
H1437 C1446 0.950 . S
H1438 C1448 0.950 . S
H1439 C1450 0.950 . S
H1440 C1452 0.950 . S
H1441 C1453 0.950 . S
C1442 H1434 0.950 . S
C1442 C1443 1.386 . S
C1442 C1444 1.391 . S
C1443 C1442 1.386 . S
C1443 C1447 1.393 . S
C1444 H1436 0.950 . S
C1444 C1442 1.391 . S
C1444 C1445 1.400 . S
C1445 C1444 1.400 . S
C1445 C1446 1.398 . S
C1445 C1451 1.491 . S
C1446 H1437 0.950 . S
C1446 C1445 1.398 . S
C1446 C1447 1.391 . S
C1447 H1435 0.950 . S
C1447 C1443 1.393 . S
C1447 C1446 1.391 . S
C1448 H1438 0.950 . S
C1448 C1449 1.386 . S
C1448 C1450 1.391 . S
C1449 C1448 1.386 . S
C1449 C1453 1.393 . S
C1450 H1439 0.950 . S
C1450 C1448 1.391 . S
C1450 C1451 1.400 . S
C1451 C1445 1.491 . S
C1451 C1450 1.400 . S
C1451 C1452 1.398 . S
C1452 H1440 0.950 . S
C1452 C1451 1.398 . S
C1452 C1453 1.391 . S
C1453 H1441 0.950 . S
C1453 C1449 1.393 . S
C1453 C1452 1.391 . S
H1454 C1462 0.950 . S
H1455 C1467 0.950 . S
H1456 C1464 0.950 . S
H1457 C1466 0.950 . S
H1458 C1468 0.950 . S
H1459 C1470 0.950 . S
H1460 C1472 0.950 . S
H1461 C1473 0.950 . S
C1462 H1454 0.950 . S
C1462 C1463 1.386 . S
C1462 C1464 1.391 . S
C1463 C1462 1.386 . S
C1463 C1467 1.393 . S
C1464 H1456 0.950 . S
C1464 C1462 1.391 . S
C1464 C1465 1.400 . S
C1465 C1464 1.400 . S
C1465 C1466 1.398 . S
C1465 C1471 1.491 . S
C1466 H1457 0.950 . S
C1466 C1465 1.398 . S
C1466 C1467 1.391 . S
C1467 H1455 0.950 . S
C1467 C1463 1.393 . S
C1467 C1466 1.391 . S
C1468 H1458 0.950 . S
C1468 C1469 1.386 . S
C1468 C1470 1.391 . S
C1469 C1468 1.386 . S
C1469 C1473 1.393 . S
C1470 H1459 0.950 . S
C1470 C1468 1.391 . S
C1470 C1471 1.400 . S
C1471 C1465 1.491 . S
C1471 C1470 1.400 . S
C1471 C1472 1.398 . S
C1472 H1460 0.950 . S
C1472 C1471 1.398 . S
C1472 C1473 1.391 . S
C1473 H1461 0.950 . S
C1473 C1469 1.393 . S
C1473 C1472 1.391 . S
H1474 C1482 0.950 . S
H1475 C1487 0.950 . S
H1476 C1484 0.950 . S
H1477 C1486 0.950 . S
H1478 C1488 0.950 . S
H1479 C1490 0.950 . S
H1480 C1492 0.950 . S
H1481 C1493 0.950 . S
C1482 H1474 0.950 . S
C1482 C1483 1.386 . S
C1482 C1484 1.391 . S
C1483 C1482 1.386 . S
C1483 C1487 1.393 . S
C1484 H1476 0.950 . S
C1484 C1482 1.391 . S
C1484 C1485 1.400 . S
C1485 C1484 1.400 . S
C1485 C1486 1.398 . S
C1485 C1491 1.491 . S
C1486 H1477 0.950 . S
C1486 C1485 1.398 . S
C1486 C1487 1.391 . S
C1487 H1475 0.950 . S
C1487 C1483 1.393 . S
C1487 C1486 1.391 . S
C1488 H1478 0.950 . S
C1488 C1489 1.386 . S
C1488 C1490 1.391 . S
C1489 C1488 1.386 . S
C1489 C1493 1.393 . S
C1490 H1479 0.950 . S
C1490 C1488 1.391 . S
C1490 C1491 1.400 . S
C1491 C1485 1.491 . S
C1491 C1490 1.400 . S
C1491 C1492 1.398 . S
C1492 H1480 0.950 . S
C1492 C1491 1.398 . S
C1492 C1493 1.391 . S
C1493 H1481 0.950 . S
C1493 C1489 1.393 . S
C1493 C1492 1.391 . S
H1494 C1502 0.950 . S
H1495 C1507 0.950 . S
H1496 C1504 0.950 . S
H1497 C1506 0.950 . S
H1498 C1508 0.950 . S
H1499 C1510 0.950 . S
H1500 C1512 0.950 . S
H1501 C1513 0.950 . S
C1502 H1494 0.950 . S
C1502 C1503 1.386 . S
C1502 C1504 1.391 . S
C1503 C1502 1.386 . S
C1503 C1507 1.393 . S
C1504 H1496 0.950 . S
C1504 C1502 1.391 . S
C1504 C1505 1.400 . S
C1505 C1504 1.400 . S
C1505 C1506 1.398 . S
C1505 C1511 1.491 . S
C1506 H1497 0.950 . S
C1506 C1505 1.398 . S
C1506 C1507 1.391 . S
C1507 H1495 0.950 . S
C1507 C1503 1.393 . S
C1507 C1506 1.391 . S
C1508 H1498 0.950 . S
C1508 C1509 1.386 . S
C1508 C1510 1.391 . S
C1509 C1508 1.386 . S
C1509 C1513 1.393 . S
C1510 H1499 0.950 . S
C1510 C1508 1.391 . S
C1510 C1511 1.400 . S
C1511 C1505 1.491 . S
C1511 C1510 1.400 . S
C1511 C1512 1.398 . S
C1512 H1500 0.950 . S
C1512 C1511 1.398 . S
C1512 C1513 1.391 . S
C1513 H1501 0.950 . S
C1513 C1509 1.393 . S
C1513 C1512 1.391 . S
H1514 C1522 0.950 . S
H1515 C1527 0.950 . S
H1516 C1524 0.950 . S
H1517 C1526 0.950 . S
H1518 C1528 0.950 . S
H1519 C1530 0.950 . S
H1520 C1532 0.950 . S
H1521 C1533 0.950 . S
C1522 H1514 0.950 . S
C1522 C1523 1.386 . S
C1522 C1524 1.391 . S
C1523 C1522 1.386 . S
C1523 C1527 1.393 . S
C1524 H1516 0.950 . S
C1524 C1522 1.391 . S
C1524 C1525 1.400 . S
C1525 C1524 1.400 . S
C1525 C1526 1.398 . S
C1525 C1531 1.491 . S
C1526 H1517 0.950 . S
C1526 C1525 1.398 . S
C1526 C1527 1.391 . S
C1527 H1515 0.950 . S
C1527 C1523 1.393 . S
C1527 C1526 1.391 . S
C1528 H1518 0.950 . S
C1528 C1529 1.386 . S
C1528 C1530 1.391 . S
C1529 C1528 1.386 . S
C1529 C1533 1.393 . S
C1530 H1519 0.950 . S
C1530 C1528 1.391 . S
C1530 C1531 1.400 . S
C1531 C1525 1.491 . S
C1531 C1530 1.400 . S
C1531 C1532 1.398 . S
C1532 H1520 0.950 . S
C1532 C1531 1.398 . S
C1532 C1533 1.391 . S
C1533 H1521 0.950 . S
C1533 C1529 1.393 . S
C1533 C1532 1.391 . S
H1534 C1542 0.950 . S
H1535 C1547 0.950 . S
H1536 C1544 0.950 . S
H1537 C1546 0.950 . S
H1538 C1548 0.950 . S
H1539 C1550 0.950 . S
H1540 C1552 0.950 . S
H1541 C1553 0.950 . S
C1542 H1534 0.950 . S
C1542 C1543 1.386 . S
C1542 C1544 1.391 . S
C1543 C1542 1.386 . S
C1543 C1547 1.393 . S
C1544 H1536 0.950 . S
C1544 C1542 1.391 . S
C1544 C1545 1.400 . S
C1545 C1544 1.400 . S
C1545 C1546 1.398 . S
C1545 C1551 1.491 . S
C1546 H1537 0.950 . S
C1546 C1545 1.398 . S
C1546 C1547 1.391 . S
C1547 H1535 0.950 . S
C1547 C1543 1.393 . S
C1547 C1546 1.391 . S
C1548 H1538 0.950 . S
C1548 C1549 1.386 . S
C1548 C1550 1.391 . S
C1549 C1548 1.386 . S
C1549 C1553 1.393 . S
C1550 H1539 0.950 . S
C1550 C1548 1.391 . S
C1550 C1551 1.400 . S
C1551 C1545 1.491 . S
C1551 C1550 1.400 . S
C1551 C1552 1.398 . S
C1552 H1540 0.950 . S
C1552 C1551 1.398 . S
C1552 C1553 1.391 . S
C1553 H1541 0.950 . S
C1553 C1549 1.393 . S
C1553 C1552 1.391 . S
H1554 C1562 0.950 . S
H1555 C1567 0.950 . S
H1556 C1564 0.950 . S
H1557 C1566 0.950 . S
H1558 C1568 0.950 . S
H1559 C1570 0.950 . S
H1560 C1572 0.950 . S
H1561 C1573 0.950 . S
C1562 H1554 0.950 . S
C1562 C1563 1.386 . S
C1562 C1564 1.391 . S
C1563 C1562 1.386 . S
C1563 C1567 1.393 . S
C1564 H1556 0.950 . S
C1564 C1562 1.391 . S
C1564 C1565 1.400 . S
C1565 C1564 1.400 . S
C1565 C1566 1.398 . S
C1565 C1571 1.491 . S
C1566 H1557 0.950 . S
C1566 C1565 1.398 . S
C1566 C1567 1.391 . S
C1567 H1555 0.950 . S
C1567 C1563 1.393 . S
C1567 C1566 1.391 . S
C1568 H1558 0.950 . S
C1568 C1569 1.386 . S
C1568 C1570 1.391 . S
C1569 C1568 1.386 . S
C1569 C1573 1.393 . S
C1570 H1559 0.950 . S
C1570 C1568 1.391 . S
C1570 C1571 1.400 . S
C1571 C1565 1.491 . S
C1571 C1570 1.400 . S
C1571 C1572 1.398 . S
C1572 H1560 0.950 . S
C1572 C1571 1.398 . S
C1572 C1573 1.391 . S
C1573 H1561 0.950 . S
C1573 C1569 1.393 . S
C1573 C1572 1.391 . S
H1574 C1582 0.950 . S
H1575 C1587 0.950 . S
H1576 C1584 0.950 . S
H1577 C1586 0.950 . S
H1578 C1588 0.950 . S
H1579 C1590 0.950 . S
H1580 C1592 0.950 . S
H1581 C1593 0.950 . S
C1582 H1574 0.950 . S
C1582 C1583 1.386 . S
C1582 C1584 1.391 . S
C1583 C1582 1.386 . S
C1583 C1587 1.393 . S
C1584 H1576 0.950 . S
C1584 C1582 1.391 . S
C1584 C1585 1.400 . S
C1585 C1584 1.400 . S
C1585 C1586 1.398 . S
C1585 C1591 1.491 . S
C1586 H1577 0.950 . S
C1586 C1585 1.398 . S
C1586 C1587 1.391 . S
C1587 H1575 0.950 . S
C1587 C1583 1.393 . S
C1587 C1586 1.391 . S
C1588 H1578 0.950 . S
C1588 C1589 1.386 . S
C1588 C1590 1.391 . S
C1589 C1588 1.386 . S
C1589 C1593 1.393 . S
C1590 H1579 0.950 . S
C1590 C1588 1.391 . S
C1590 C1591 1.400 . S
C1591 C1585 1.491 . S
C1591 C1590 1.400 . S
C1591 C1592 1.398 . S
C1592 H1580 0.950 . S
C1592 C1591 1.398 . S
C1592 C1593 1.391 . S
C1593 H1581 0.950 . S
C1593 C1589 1.393 . S
C1593 C1592 1.391 . S
H1594 C1602 0.950 . S
H1595 C1607 0.950 . S
H1596 C1604 0.950 . S
H1597 C1606 0.950 . S
H1598 C1608 0.950 . S
H1599 C1610 0.950 . S
H1600 C1612 0.950 . S
H1601 C1613 0.950 . S
C1602 H1594 0.950 . S
C1602 C1603 1.386 . S
C1602 C1604 1.391 . S
C1603 C1602 1.386 . S
C1603 C1607 1.393 . S
C1604 H1596 0.950 . S
C1604 C1602 1.391 . S
C1604 C1605 1.400 . S
C1605 C1604 1.400 . S
C1605 C1606 1.398 . S
C1605 C1611 1.491 . S
C1606 H1597 0.950 . S
C1606 C1605 1.398 . S
C1606 C1607 1.391 . S
C1607 H1595 0.950 . S
C1607 C1603 1.393 . S
C1607 C1606 1.391 . S
C1608 H1598 0.950 . S
C1608 C1609 1.386 . S
C1608 C1610 1.391 . S
C1609 C1608 1.386 . S
C1609 C1613 1.393 . S
C1610 H1599 0.950 . S
C1610 C1608 1.391 . S
C1610 C1611 1.400 . S
C1611 C1605 1.491 . S
C1611 C1610 1.400 . S
C1611 C1612 1.398 . S
C1612 H1600 0.950 . S
C1612 C1611 1.398 . S
C1612 C1613 1.391 . S
C1613 H1601 0.950 . S
C1613 C1609 1.393 . S
C1613 C1612 1.391 . S
H1614 C1622 0.950 . S
H1615 C1627 0.950 . S
H1616 C1624 0.950 . S
H1617 C1626 0.950 . S
H1618 C1628 0.950 . S
H1619 C1630 0.950 . S
H1620 C1632 0.950 . S
H1621 C1633 0.950 . S
C1622 H1614 0.950 . S
C1622 C1623 1.386 . S
C1622 C1624 1.391 . S
C1623 C1622 1.386 . S
C1623 C1627 1.393 . S
C1624 H1616 0.950 . S
C1624 C1622 1.391 . S
C1624 C1625 1.400 . S
C1625 C1624 1.400 . S
C1625 C1626 1.398 . S
C1625 C1631 1.491 . S
C1626 H1617 0.950 . S
C1626 C1625 1.398 . S
C1626 C1627 1.391 . S
C1627 H1615 0.950 . S
C1627 C1623 1.393 . S
C1627 C1626 1.391 . S
C1628 H1618 0.950 . S
C1628 C1629 1.386 . S
C1628 C1630 1.391 . S
C1629 C1628 1.386 . S
C1629 C1633 1.393 . S
C1630 H1619 0.950 . S
C1630 C1628 1.391 . S
C1630 C1631 1.400 . S
C1631 C1625 1.491 . S
C1631 C1630 1.400 . S
C1631 C1632 1.398 . S
C1632 H1620 0.950 . S
C1632 C1631 1.398 . S
C1632 C1633 1.391 . S
C1633 H1621 0.950 . S
C1633 C1629 1.393 . S
C1633 C1632 1.391 . S
H1634 C1642 0.950 . S
H1635 C1647 0.950 . S
H1636 C1644 0.950 . S
H1637 C1646 0.950 . S
H1638 C1648 0.950 . S
H1639 C1650 0.950 . S
H1640 C1652 0.950 . S
H1641 C1653 0.950 . S
C1642 H1634 0.950 . S
C1642 C1643 1.386 . S
C1642 C1644 1.391 . S
C1643 C1642 1.386 . S
C1643 C1647 1.393 . S
C1644 H1636 0.950 . S
C1644 C1642 1.391 . S
C1644 C1645 1.400 . S
C1645 C1644 1.400 . S
C1645 C1646 1.398 . S
C1645 C1651 1.491 . S
C1646 H1637 0.950 . S
C1646 C1645 1.398 . S
C1646 C1647 1.391 . S
C1647 H1635 0.950 . S
C1647 C1643 1.393 . S
C1647 C1646 1.391 . S
C1648 H1638 0.950 . S
C1648 C1649 1.386 . S
C1648 C1650 1.391 . S
C1649 C1648 1.386 . S
C1649 C1653 1.393 . S
C1650 H1639 0.950 . S
C1650 C1648 1.391 . S
C1650 C1651 1.400 . S
C1651 C1645 1.491 . S
C1651 C1650 1.400 . S
C1651 C1652 1.398 . S
C1652 H1640 0.950 . S
C1652 C1651 1.398 . S
C1652 C1653 1.391 . S
C1653 H1641 0.950 . S
C1653 C1649 1.393 . S
C1653 C1652 1.391 . S
H1654 C1662 0.950 . S
H1655 C1667 0.950 . S
H1656 C1664 0.950 . S
H1657 C1666 0.950 . S
H1658 C1668 0.950 . S
H1659 C1670 0.950 . S
H1660 C1672 0.950 . S
H1661 C1673 0.950 . S
C1662 H1654 0.950 . S
C1662 C1663 1.386 . S
C1662 C1664 1.391 . S
C1663 C1662 1.386 . S
C1663 C1667 1.393 . S
C1664 H1656 0.950 . S
C1664 C1662 1.391 . S
C1664 C1665 1.400 . S
C1665 C1664 1.400 . S
C1665 C1666 1.398 . S
C1665 C1671 1.491 . S
C1666 H1657 0.950 . S
C1666 C1665 1.398 . S
C1666 C1667 1.391 . S
C1667 H1655 0.950 . S
C1667 C1663 1.393 . S
C1667 C1666 1.391 . S
C1668 H1658 0.950 . S
C1668 C1669 1.386 . S
C1668 C1670 1.391 . S
C1669 C1668 1.386 . S
C1669 C1673 1.393 . S
C1670 H1659 0.950 . S
C1670 C1668 1.391 . S
C1670 C1671 1.400 . S
C1671 C1665 1.491 . S
C1671 C1670 1.400 . S
C1671 C1672 1.398 . S
C1672 H1660 0.950 . S
C1672 C1671 1.398 . S
C1672 C1673 1.391 . S
C1673 H1661 0.950 . S
C1673 C1669 1.393 . S
C1673 C1672 1.391 . S
C603 N170 2.098 . S
C609 C237 2.146 . S
C623 N184 1.152 . S
C629 C277 1.149 . S
C643 N158 1.687 . S
C649 C329 1.677 . S
C663 N145 1.556 . S
C669 C289 1.535 1_556 S
C689 C317 0.828 1_556 S
C683 N119 0.829 . S
C703 N131 1.834 . S
C709 C249 1.866 . S
C729 C256 1.778 1_556 S
C723 N144 1.782 . S
C749 C296 1.676 . S
C743 N118 1.675 . S
C763 N132 1.563 . S
C769 C316 1.582 . S
C783 N171 1.477 . S
C789 C276 1.481 . S
C803 N183 1.312 . S
C809 C336 1.333 . S
C829 C236 1.471 . S
C823 N157 1.471 . S
C849 C357 2.140 . S
C843 N14 2.087 . S
C863 N28 1.154 . S
C869 C397 1.151 . S
C883 N2 1.687 . S
C889 C449 1.678 . S
C903 N223 1.554 . S
C909 C409 1.533 . S
C923 N197 0.828 . S
C929 C437 0.828 . S
C943 N209 1.838 . S
C949 C369 1.877 . S
C963 N222 1.771 . S
C969 C376 1.789 . S
C983 N196 1.675 . S
C989 C416 1.671 . S
C1009 C436 1.568 . S
C1003 N210 1.562 . S
C1023 N15 1.465 . S
C1029 C396 1.470 . S
C1049 C456 1.331 . S
C1043 N27 1.315 . S
C1063 N1 1.477 . S
C1069 C356 1.454 . S
C1089 C477 2.143 . S
C1083 N92 2.089 . S
C1103 N106 1.151 . S
C1109 C517 1.151 . S
C1129 C569 1.678 . S
C1123 N80 1.687 . S
C1149 C529 1.547 . S
C1143 N67 1.555 . S
C1169 C557 0.832 . S
C1163 N41 0.829 . S
C1183 N53 1.846 . S
C1189 C489 1.871 . S
C1203 N66 1.780 . S
C1209 C496 1.787 . S
C1223 N40 1.677 . S
C1229 C536 1.673 . S
C1249 C556 1.569 . S
C1243 N54 1.564 . S
C1263 N93 1.472 . S
C1269 C516 1.482 . S
C1283 N105 1.327 . S
C1289 C576 1.327 . S
C1303 N79 1.473 . S
C1309 C476 1.471 . S
C1323 N200 1.016 . S
C1329 C260 1.017 . S
C1349 C300 2.019 . S
C1343 N213 2.011 . S
C1363 N226 1.582 . S
C1369 C323 1.578 . S
C1383 N83 1.809 . S
C1389 C283 1.796 . S
C1403 N96 1.822 . S
C1409 C340 1.847 . S
C1429 C243 1.157 . S
C1423 N109 1.170 . S
C1443 N44 1.018 . S
C1449 C380 1.027 . S
C1463 N57 2.007 . S
C1469 C420 2.013 . S
C1483 N70 1.580 . S
C1489 C443 1.591 . S
C1503 N161 1.808 . S
C1509 C403 1.790 . S
C1529 C460 1.851 . S
C1523 N174 1.825 . S
C1543 N187 1.167 . S
C1549 C363 1.161 . S
C1563 N122 1.019 . S
C1569 C500 1.019 . S
C1583 N135 2.000 . S
C1589 C540 2.013 . S
C1609 C563 1.591 . S
C1603 N148 1.577 . S
C1623 N5 1.821 . S
C1629 C523 1.791 . S
C1643 N18 1.812 . S
C1649 C580 1.847 . S
C1663 N31 1.168 . S
C1669 C483 1.154 . S
