# Generated by pormake.
# Topology pyr, (3,6)-cn, num edge types: 1
# Building blocks:
#     Node 0, Type 0, BuildingBlock: QEWDON_clean_linker_0, # of connection points: 3
#     Node 1, Type 0, BuildingBlock: QEWDON_clean_linker_0, # of connection points: 3
#     Node 2, Type 0, BuildingBlock: QEWDON_clean_linker_0, # of connection points: 3
#     Node 3, Type 0, BuildingBlock: QEWDON_clean_linker_0, # of connection points: 3
#     Node 4, Type 0, BuildingBlock: QEWDON_clean_linker_0, # of connection points: 3
#     Node 5, Type 0, BuildingBlock: QEWDON_clean_linker_0, # of connection points: 3
#     Node 6, Type 0, BuildingBlock: QEWDON_clean_linker_0, # of connection points: 3
#     Node 7, Type 0, BuildingBlock: QEWDON_clean_linker_0, # of connection points: 3
#     Node 8, Type 1, BuildingBlock: BETDAH_clean_sbu_0, # of connection points: 6
#     Node 9, Type 1, BuildingBlock: BETDAH_clean_sbu_0, # of connection points: 6
#     Node 10, Type 1, BuildingBlock: BETDAH_clean_sbu_0, # of connection points: 6
#     Node 11, Type 1, BuildingBlock: BETDAH_clean_sbu_0, # of connection points: 6
#     Edge 12, Type (0, 1), BuildingBlock: EZIPEK_clean_linker_0, # of connection points: 2
#     Edge 13, Type (0, 1), BuildingBlock: EZIPEK_clean_linker_0, # of connection points: 2
#     Edge 14, Type (0, 1), BuildingBlock: EZIPEK_clean_linker_0, # of connection points: 2
#     Edge 15, Type (0, 1), BuildingBlock: EZIPEK_clean_linker_0, # of connection points: 2
#     Edge 16, Type (0, 1), BuildingBlock: EZIPEK_clean_linker_0, # of connection points: 2
#     Edge 17, Type (0, 1), BuildingBlock: EZIPEK_clean_linker_0, # of connection points: 2
#     Edge 18, Type (0, 1), BuildingBlock: EZIPEK_clean_linker_0, # of connection points: 2
#     Edge 19, Type (0, 1), BuildingBlock: EZIPEK_clean_linker_0, # of connection points: 2
#     Edge 20, Type (0, 1), BuildingBlock: EZIPEK_clean_linker_0, # of connection points: 2
#     Edge 21, Type (0, 1), BuildingBlock: EZIPEK_clean_linker_0, # of connection points: 2
#     Edge 22, Type (0, 1), BuildingBlock: EZIPEK_clean_linker_0, # of connection points: 2
#     Edge 23, Type (0, 1), BuildingBlock: EZIPEK_clean_linker_0, # of connection points: 2
#     Edge 24, Type (0, 1), BuildingBlock: EZIPEK_clean_linker_0, # of connection points: 2
#     Edge 25, Type (0, 1), BuildingBlock: EZIPEK_clean_linker_0, # of connection points: 2
#     Edge 26, Type (0, 1), BuildingBlock: EZIPEK_clean_linker_0, # of connection points: 2
#     Edge 27, Type (0, 1), BuildingBlock: EZIPEK_clean_linker_0, # of connection points: 2
#     Edge 28, Type (0, 1), BuildingBlock: EZIPEK_clean_linker_0, # of connection points: 2
#     Edge 29, Type (0, 1), BuildingBlock: EZIPEK_clean_linker_0, # of connection points: 2
#     Edge 30, Type (0, 1), BuildingBlock: EZIPEK_clean_linker_0, # of connection points: 2
#     Edge 31, Type (0, 1), BuildingBlock: EZIPEK_clean_linker_0, # of connection points: 2
#     Edge 32, Type (0, 1), BuildingBlock: EZIPEK_clean_linker_0, # of connection points: 2
#     Edge 33, Type (0, 1), BuildingBlock: EZIPEK_clean_linker_0, # of connection points: 2
#     Edge 34, Type (0, 1), BuildingBlock: EZIPEK_clean_linker_0, # of connection points: 2
#     Edge 35, Type (0, 1), BuildingBlock: EZIPEK_clean_linker_0, # of connection points: 2
# Relax obj value: 0.225
# Max RMSD: 0.265
# Mean RMSD: 0.197
data_MOF--net-pyr--node1-BETDAH_clean_sbu_0--node2-QEWDON_clean_linker_0--edge1-EZIPEK_clean_linker_0
_symmetry_space_group_name_H-M    P1
_symmetry_Int_Tables_number       1
_symmetry_cell_setting            triclinic
loop_
_symmetry_equiv_pos_as_xyz
'x, y, z'
_cell_length_a     28.486021
_cell_length_b     31.380134
_cell_length_c     30.230055
_cell_angle_alpha  91.732142
_cell_angle_beta   90.039765
_cell_angle_gamma 111.26546
loop_
_atom_site_label
_atom_site_type_symbol
_atom_site_fract_x
_atom_site_fract_y
_atom_site_fract_z
_atom_type_partial_charge
H0 H 0.47021 0.33959 0.20791 0.0
C1 C 0.44352 0.33066 0.23455 0.0
C2 C 0.43859 0.29258 0.2611 0.0
C3 C 0.41246 0.35655 0.24018 0.0
H4 H 0.38527 0.2459 0.30583 0.0
C5 C 0.3963 0.27778 0.28916 0.0
C6 C 0.36492 0.30312 0.29468 0.0
C7 C 0.37431 0.34302 0.27158 0.0
C8 C 0.41913 0.39758 0.21342 0.0
H9 H 0.35064 0.36287 0.27769 0.0
C10 C 0.37718 0.40904 0.20216 0.0
C11 C 0.38341 0.44992 0.1812 0.0
C12 C 0.46737 0.42701 0.20101 0.0
H13 H 0.50064 0.41987 0.20955 0.0
C14 C 0.47341 0.46703 0.17867 0.0
H15 H 0.33939 0.38674 0.21032 0.0
C16 C 0.43171 0.47877 0.16916 0.0
H17 H 0.43708 0.51051 0.15298 0.0
H18 H 0.51071 0.48957 0.16959 0.0
H19 H 0.21854 0.95587 0.73011 0.0
C20 C 0.24425 0.93767 0.72733 0.0
C21 C 0.27326 0.93674 0.76462 0.0
C22 C 0.25078 0.91737 0.6866 0.0
H23 H 0.32757 0.91106 0.79164 0.0
C24 C 0.30546 0.91211 0.76273 0.0
C25 C 0.31084 0.89036 0.72328 0.0
C26 C 0.28473 0.89391 0.68527 0.0
C27 C 0.22595 0.92331 0.64478 0.0
H28 H 0.29265 0.87936 0.65456 0.0
C29 C 0.21273 0.9621 0.63883 0.0
C30 C 0.19548 0.97013 0.59743 0.0
C31 C 0.21806 0.89133 0.6091 0.0
H32 H 0.22451 0.85969 0.61259 0.0
C33 C 0.20218 0.89979 0.56785 0.0
H34 H 0.21675 0.98684 0.66563 0.0
C35 C 0.19209 0.93936 0.56171 0.0
H36 H 0.17957 0.9451 0.52933 0.0
H37 H 0.19748 0.87543 0.54052 0.0
H38 H 0.73705 0.49581 0.92783 0.0
C39 C 0.72167 0.46098 0.93886 0.0
C40 C 0.74882 0.44656 0.97136 0.0
C41 C 0.67355 0.43136 0.92263 0.0
H42 H 0.74784 0.39052 1.01164 0.0
C43 C 0.72737 0.40138 0.98689 0.0
C44 C 0.67906 0.37084 0.97292 0.0
C45 C 0.65365 0.3863 0.94017 0.0
C46 C 0.63944 0.44757 0.89285 0.0
H47 H 0.61698 0.3629 0.92905 0.0
C48 C 0.65453 0.47742 0.8554 0.0
C49 C 0.61739 0.48764 0.82903 0.0
C50 C 0.58786 0.43134 0.90344 0.0
H51 H 0.57415 0.41125 0.93241 0.0
C52 C 0.55237 0.44035 0.87769 0.0
H53 H 0.69392 0.49208 0.84684 0.0
C54 C 0.56666 0.46727 0.84093 0.0
H55 H 0.53743 0.47334 0.82207 0.0
H56 H 0.51302 0.42646 0.88662 0.0
H57 H 0.93867 0.85139 0.40757 0.0
C58 C 0.90718 0.82918 0.42605 0.0
C59 C 0.89231 0.84686 0.46567 0.0
C60 C 0.87951 0.78419 0.40843 0.0
H61 H 0.83599 0.8308 0.51688 0.0
C62 C 0.84897 0.81784 0.48757 0.0
C63 C 0.82102 0.77291 0.47166 0.0
C64 C 0.83674 0.75669 0.43219 0.0
C65 C 0.88401 0.77138 0.35988 0.0
H66 H 0.81351 0.72345 0.41831 0.0
C67 C 0.91521 0.74765 0.342 0.0
C68 C 0.91296 0.73499 0.29534 0.0
C69 C 0.85188 0.78179 0.33046 0.0
H70 H 0.82768 0.79938 0.34246 0.0
C71 C 0.84938 0.76926 0.28569 0.0
H72 H 0.94041 0.73909 0.36378 0.0
C73 C 0.87906 0.74607 0.2685 0.0
H74 H 0.87585 0.73702 0.23344 0.0
H75 H 0.82387 0.77752 0.26398 0.0
H76 H 0.66982 0.8011 0.96728 0.0
C77 C 0.69612 0.82395 0.94489 0.0
C78 C 0.74425 0.82176 0.93897 0.0
C79 C 0.68274 0.85651 0.92204 0.0
H80 H 0.81452 0.84895 0.90448 0.0
C81 C 0.77762 0.85091 0.90956 0.0
C82 C 0.76393 0.88225 0.88621 0.0
C83 C 0.71685 0.88555 0.89274 0.0
C84 C 0.63277 0.85994 0.9266 0.0
H85 H 0.70641 0.90997 0.87431 0.0
C86 C 0.62839 0.8998 0.94553 0.0
C87 C 0.58202 0.90611 0.94439 0.0
C88 C 0.5904 0.82606 0.90708 0.0
H89 H 0.59341 0.7955 0.89178 0.0
C90 C 0.54437 0.83239 0.90551 0.0
H91 H 0.66106 0.92598 0.9608 0.0
C92 C 0.54022 0.87234 0.92365 0.0
H93 H 0.50416 0.87657 0.92235 0.0
H94 H 0.51191 0.80643 0.88988 0.0
H95 H 0.75965 0.17604 0.61464 0.0
C96 C 0.7509 0.16805 0.57975 0.0
C97 C 0.78241 0.15266 0.55365 0.0
C98 C 0.71017 0.17579 0.56039 0.0
H99 H 0.79846 0.13368 0.48917 0.0
C100 C 0.77109 0.14211 0.50857 0.0
C101 C 0.72607 0.14286 0.48946 0.0
C102 C 0.69897 0.16441 0.51527 0.0
C103 C 0.67888 0.1953 0.5874 0.0
H104 H 0.6689 0.17286 0.50092 0.0
C105 C 0.66587 0.23141 0.57173 0.0
C106 C 0.63625 0.2497 0.59748 0.0
C107 C 0.6618 0.17781 0.62913 0.0
H108 H 0.67087 0.14977 0.64181 0.0
C109 C 0.63216 0.1959 0.65461 0.0
H110 H 0.67931 0.24579 0.53994 0.0
C111 C 0.61941 0.23172 0.63893 0.0
H112 H 0.59661 0.24558 0.65914 0.0
H113 H 0.61905 0.18212 0.68662 0.0
H114 H 0.46239 0.86165 0.2723 0.0
C115 C 0.42481 0.84111 0.2605 0.0
C116 C 0.40172 0.85959 0.22815 0.0
C117 C 0.40173 0.7954 0.27543 0.0
H118 H 0.33705 0.8438 0.18463 0.0
C119 C 0.35443 0.83096 0.21035 0.0
C120 C 0.33039 0.78523 0.22355 0.0
C121 C 0.3542 0.76813 0.25644 0.0
C122 C 0.43363 0.77317 0.29992 0.0
H123 H 0.33715 0.7326 0.26515 0.0
C124 C 0.42599 0.75569 0.34424 0.0
C125 C 0.45946 0.73534 0.36308 0.0
C126 C 0.47419 0.76921 0.27605 0.0
H127 H 0.48128 0.78154 0.24267 0.0
C128 C 0.50589 0.74912 0.29397 0.0
H129 H 0.3953 0.75839 0.36375 0.0
C130 C 0.4987 0.73251 0.3366 0.0
H131 H 0.52461 0.71755 0.34933 0.0
H132 H 0.53668 0.74651 0.27451 0.0
H133 H 0.27282 0.51586 0.777 0.0
C134 C 0.24871 0.48515 0.75936 0.0
C135 C 0.2653 0.47222 0.71824 0.0
C136 C 0.20308 0.45699 0.77942 0.0
H137 H 0.24701 0.41959 0.6663 0.0
C138 C 0.2348 0.4302 0.6973 0.0
C139 C 0.1909 0.39997 0.71687 0.0
C140 C 0.17521 0.41405 0.75768 0.0
C141 C 0.19277 0.4649 0.82816 0.0
H142 H 0.1426 0.39041 0.7738 0.0
C143 C 0.17043 0.49646 0.84601 0.0
C144 C 0.16203 0.49953 0.89314 0.0
C145 C 0.2063 0.43796 0.85818 0.0
H146 H 0.22322 0.41393 0.84639 0.0
C147 C 0.19869 0.44126 0.90346 0.0
H148 H 0.15932 0.51765 0.82383 0.0
C149 C 0.17696 0.47136 0.92061 0.0
H150 H 0.17159 0.47258 0.95606 0.0
H151 H 0.20969 0.41999 0.92565 0.0
Ho152 Ho 0.04733 0.14628 0.53985 0.0
Ho153 Ho 0.04516 0.10616 0.628 0.0
C154 C 0.09689 0.21578 0.62587 0.0
C155 C 0.04926 0.19291 0.47096 0.0
C156 C 0.09529 0.21945 0.44791 0.0
C157 C 0.09368 0.23206 0.40404 0.0
C158 C 0.1383 0.24917 0.38 0.0
C159 C 0.18453 0.2529 0.39953 0.0
C160 C 0.18611 0.24192 0.44392 0.0
C161 C 0.14187 0.22558 0.468 0.0
C162 C 0.12343 0.11498 0.55362 0.0
C163 C 0.99073 0.03751 0.5436 0.0
C164 C 0.04841 0.05832 0.69491 0.0
C165 C 1.00583 1.02831 0.71945 0.0
C166 C 1.01328 1.00949 0.75902 0.0
C167 C 0.97181 0.98498 0.78436 0.0
C168 C 0.92294 0.97944 0.77016 0.0
C169 C 0.91556 0.99751 0.73014 0.0
C170 C 0.95684 1.02189 0.70493 0.0
C171 C 0.9649 0.13144 0.61233 0.0
O172 O 0.07659 0.2107 0.5855 0.0
O173 O 0.0963 0.179 0.64678 0.0
O174 O 0.03968 0.14896 0.46902 0.0
O175 O 0.04474 0.20783 0.51103 0.0
O176 O 0.10509 0.11796 0.51546 0.0
O177 O 0.10567 0.13542 0.58161 0.0
O178 O 1.01721 0.0428 0.58097 0.0
O179 O 0.98838 0.07476 0.52532 0.0
O180 O 0.05396 0.10138 0.69836 0.0
O181 O 0.05162 0.04499 0.65407 0.0
O182 O 0.98348 0.1307 0.6511 0.0
O183 O 0.98564 0.11336 0.58496 0.0
H184 H 0.05797 0.22685 0.38792 0.0
H185 H 0.13658 0.25753 0.34568 0.0
H186 H 0.22139 0.24449 0.45942 0.0
H187 H 0.14371 0.21542 0.50172 0.0
H188 H 0.05097 1.01469 0.77074 0.0
H189 H 0.97776 0.97114 0.81537 0.0
H190 H 0.878 0.99353 0.71899 0.0
H191 H 0.95069 0.03689 0.67469 0.0
Ho192 Ho 0.58727 0.12397 0.12488 0.0
Ho193 Ho 0.49467 0.11459 0.08607 0.0
C194 C 0.51686 0.1717 0.17374 0.0
C195 C 0.67425 0.15248 0.16495 0.0
C196 C 0.68817 0.14552 0.21033 0.0
C197 C 0.72004 0.18285 0.23601 0.0
C198 C 0.72723 0.17823 0.28116 0.0
C199 C 0.70264 0.13618 0.30091 0.0
C200 C 0.67236 0.09844 0.27499 0.0
C201 C 0.665 0.10307 0.23006 0.0
C202 C 0.51654 0.04164 0.1498 0.0
C203 C 0.5583 0.06147 0.03822 0.0
C204 C 0.40499 0.0896 0.05114 0.0
C205 C 0.37805 0.0674 1.01044 0.0
C206 C 0.39308 0.03619 0.98556 0.0
C207 C 0.36741 1.0162 0.94646 0.0
C208 C 0.32664 1.0273 0.93183 0.0
C209 C 0.3112 0.05806 0.95688 0.0
C210 C 0.33681 0.07798 0.99609 0.0
C211 C 0.57097 0.19485 0.0619 0.0
O212 O 0.56325 0.17382 0.16658 0.0
O213 O 0.47956 0.14355 0.14999 0.0
O214 O 0.65862 0.11651 0.13839 0.0
O215 O 0.64591 0.1768 0.16231 0.0
O216 O 0.56438 0.05209 0.14675 0.0
O217 O 0.50876 0.07925 0.14577 0.0
O218 O 0.51426 0.06554 0.04168 0.0
O219 O 0.59713 0.08819 0.06213 0.0
O220 O 0.43931 0.13012 0.04716 0.0
O221 O 0.41962 0.06415 0.07697 0.0
O222 O 0.52583 0.19069 0.07346 0.0
O223 O 0.57408 0.15535 0.06336 0.0
H224 H 0.73775 0.21597 0.22151 0.0
H225 H 0.75054 0.20768 0.30093 0.0
H226 H 0.65298 0.06584 0.28994 0.0
H227 H 0.63971 0.07386 0.21122 0.0
H228 H 0.42482 1.02761 0.99608 0.0
H229 H 0.37987 0.99271 0.92715 0.0
H230 H 0.28001 0.06712 0.94569 0.0
H231 H 0.3248 0.10202 1.015 0.0
Ho232 Ho 0.54402 0.58425 0.5747 0.0
Ho233 Ho 0.55003 0.65965 0.62246 0.0
C234 C 0.58939 0.58526 0.67152 0.0
C235 C 0.54944 0.52139 0.51969 0.0
C236 C 0.5564 0.47767 0.5259 0.0
C237 C 0.59138 0.46666 0.49977 0.0
C238 C 0.60336 0.42833 0.50879 0.0
C239 C 0.58018 0.40039 0.54387 0.0
C240 C 0.54411 0.4105 0.56921 0.0
C241 C 0.5325 0.44908 0.5605 0.0
C242 C 0.46287 0.56434 0.6306 0.0
C243 C 0.50162 0.65686 0.52824 0.0
C244 C 0.54478 0.7191 0.68194 0.0
C245 C 0.51034 0.74344 0.6902 0.0
C246 C 0.47117 0.73882 0.66007 0.0
C247 C 0.43883 0.76255 0.66776 0.0
C248 C 0.44551 0.79125 0.70554 0.0
C249 C 0.48444 0.79568 0.73585 0.0
C250 C 0.51673 0.77177 0.7282 0.0
C251 C 0.63038 0.67995 0.5661 0.0
O252 O 0.57896 0.56225 0.63327 0.0
O253 O 0.58273 0.62497 0.67427 0.0
O254 O 0.50688 0.52413 0.53266 0.0
O255 O 0.58808 0.55769 0.53143 0.0
O256 O 0.49294 0.54202 0.62656 0.0
O257 O 0.47976 0.59929 0.60649 0.0
O258 O 0.49906 0.67048 0.56959 0.0
O259 O 0.52259 0.62574 0.5214 0.0
O260 O 0.5714 0.72991 0.64618 0.0
O261 O 0.52584 0.67501 0.6869 0.0
O262 O 0.60359 0.70482 0.57355 0.0
O263 O 0.61352 0.64459 0.58961 0.0
H264 H 0.61062 0.48857 0.4733 0.0
H265 H 0.63147 0.42102 0.48912 0.0
H266 H 0.52621 0.38937 0.59661 0.0
H267 H 0.50603 0.45724 0.58163 0.0
H268 H 0.46581 0.71711 0.63055 0.0
H269 H 0.40893 0.75895 0.64411 0.0
H270 H 0.48991 0.81779 0.76514 0.0
H271 H 0.54681 0.77559 0.75173 0.0
Ho272 Ho 0.03876 0.57734 0.12303 0.0
Ho273 Ho 0.04044 0.65795 0.07179 0.0
C274 C 0.13991 0.67241 0.13033 0.0
C275 C 0.06206 0.51233 0.15598 0.0
C276 C 0.11 0.50478 0.15874 0.0
C277 C 0.15053 0.52896 0.13176 0.0
C278 C 0.19598 0.52155 0.13418 0.0
C279 C 0.20147 0.48995 0.16365 0.0
C280 C 0.16112 0.46599 0.1908 0.0
C281 C 0.1156 0.47336 0.18832 0.0
C282 C 0.99696 0.63265 0.16865 0.0
C283 C 0.94309 0.56089 0.05857 0.0
C284 C 1.00932 0.72357 0.05457 0.0
C285 C 0.96729 0.72901 0.02982 0.0
C286 C 0.9202 0.69288 0.02635 0.0
C287 C 0.87755 0.70074 1.01183 0.0
C288 C 0.88141 0.74468 0.99993 0.0
C289 C 0.92881 0.78028 1.00124 0.0
C290 C 0.97143 0.77252 1.01622 0.0
C291 C 0.07791 0.60624 1.01579 0.0
O292 O 0.11971 0.62756 0.1363 0.0
O293 O 0.11559 0.6935 0.10725 0.0
O294 O 0.05947 0.54686 0.17969 0.0
O295 O 0.04372 0.51041 0.11604 0.0
O296 O 0.97797 0.58814 0.16585 0.0
O297 O 0.03593 0.64454 0.1444 0.0
O298 O 0.96342 0.60528 0.05165 0.0
O299 O 0.96586 0.54098 0.08459 0.0
O300 O 0.04583 0.71685 0.0325 0.0
O301 O 0.99515 0.69738 0.08855 0.0
O302 O 0.07427 0.64514 1.00638 0.0
O303 O 0.06265 0.59817 0.05549 0.0
H304 H 0.14694 0.55343 0.10872 0.0
H305 H 0.22683 0.5404 0.11313 0.0
H306 H 0.16491 0.44158 0.21378 0.0
H307 H 0.08478 0.45452 0.20941 0.0
H308 H 0.91567 0.65909 0.03714 0.0
H309 H 0.84128 0.67294 1.01124 0.0
H310 H 0.93239 0.81449 0.99228 0.0
H311 H 1.00708 0.80096 1.0192 0.0
C312 C 0.27756 0.2487 0.31087 0.0
C313 C 0.32028 0.28757 0.32366 0.0
C314 C 0.27231 0.30621 0.38342 0.0
C315 C 0.23107 0.26524 0.37299 0.0
N316 N 0.19902 0.19192 0.33376 0.0
N317 N 0.3621 0.3477 0.37756 0.0
C318 C 0.23499 0.23477 0.33874 0.0
C319 C 0.31881 0.3146 0.36172 0.0
N320 N 0.27662 0.22621 0.27124 0.0
N321 N 0.26653 0.33785 0.41282 0.0
H322 H 0.39701 0.35424 0.36277 0.0
H323 H 0.36425 0.3655 0.4076 0.0
H324 H 0.23265 0.33329 0.42874 0.0
H325 H 0.29378 0.37034 0.41829 0.0
H326 H 0.24426 0.20089 0.2582 0.0
H327 H 0.30677 0.23546 0.24947 0.0
H328 H 0.20284 0.16679 0.31232 0.0
H329 H 0.16767 0.17988 0.35408 0.0
C330 C 0.25064 0.94184 0.84397 0.0
C331 C 0.2741 0.96431 0.80543 0.0
C332 C 0.32362 1.03242 0.8497 0.0
C333 C 0.30277 1.00875 0.88845 0.0
N334 N 0.23889 0.94656 0.9234 0.0
N335 N 0.32291 0.03385 0.76952 0.0
C336 C 0.26345 0.96527 0.88581 0.0
C337 C 0.30696 1.0108 0.80765 0.0
N338 N 0.2179 0.89746 0.84041 0.0
N339 N 0.36137 0.07449 0.85334 0.0
H340 H 0.3129 1.01866 0.73809 0.0
H341 H 0.34283 0.06891 0.76868 0.0
H342 H 0.37313 0.09214 0.88356 0.0
H343 H 0.38285 0.09123 0.8269 0.0
H344 H 0.20368 0.87694 0.86729 0.0
H345 H 0.20596 0.88053 0.80986 0.0
H346 H 0.20727 0.9166 0.92369 0.0
H347 H 0.24806 0.96302 0.95446 0.0
C348 C 0.60853 0.55733 0.79448 0.0
C349 C 0.62646 0.52055 0.7902 0.0
C350 C 0.63298 0.53484 0.70917 0.0
C351 C 0.60502 0.56479 0.71277 0.0
N352 N 0.5552 0.59324 0.76229 0.0
N353 N 0.65155 0.47174 0.74045 0.0
C354 C 0.59043 0.57351 0.75646 0.0
C355 C 0.63779 0.5088 0.74663 0.0
N356 N 0.60695 0.57589 0.8356 0.0
N357 N 0.65677 0.53225 0.67058 0.0
H358 H 0.65691 0.4532 0.76679 0.0
H359 H 0.65446 0.45796 0.70924 0.0
H360 H 0.65764 0.55281 0.64393 0.0
H361 H 0.68068 0.51394 0.66707 0.0
H362 H 0.59824 0.60519 0.84071 0.0
H363 H 0.6198 0.5648 0.86378 0.0
H364 H 0.54051 0.59678 0.79316 0.0
H365 H 0.53501 0.59979 0.73637 0.0
C366 C 0.93294 0.66326 0.27342 0.0
C367 C 0.94499 0.71123 0.27125 0.0
C368 C 0.99994 0.7109 0.20642 0.0
C369 C 0.98459 0.66185 0.2066 0.0
N370 N 0.95766 0.5986 0.2563 0.0
N371 N 0.9919 0.78135 0.23636 0.0
C372 C 0.95694 0.64007 0.2446 0.0
C373 C 0.97975 0.73508 0.23825 0.0
N374 N 0.89674 0.63893 0.30202 0.0
N375 N 0.03608 0.73518 0.17772 0.0
H376 H 0.98204 0.80031 0.26116 0.0
H377 H 1.00981 0.801 0.20995 0.0
H378 H 0.05334 0.7205 0.15506 0.0
H379 H 0.0531 0.77061 0.17857 0.0
H380 H 0.88118 0.60329 0.30106 0.0
H381 H 0.8797 0.65438 0.32459 0.0
H382 H 0.9417 0.58271 0.28528 0.0
H383 H 0.98128 0.58376 0.24157 0.0
C384 C 0.51632 0.28305 0.22741 0.0
C385 C 0.47351 0.26582 0.25432 0.0
C386 C 0.47486 0.18872 0.24201 0.0
C387 C 0.50688 0.20466 0.20529 0.0
N388 N 0.557 0.26885 0.16225 0.0
N389 N 0.44855 0.21132 0.31203 0.0
C390 C 0.52854 0.2525 0.19846 0.0
C391 C 0.46216 0.22075 0.26919 0.0
N392 N 0.54715 0.32784 0.23195 0.0
N393 N 0.45655 0.1433 0.25101 0.0
H394 H 0.45019 0.23739 0.33499 0.0
H395 H 0.44377 0.18009 0.32602 0.0
H396 H 0.46779 0.11939 0.23374 0.0
H397 H 0.42868 0.12943 0.27436 0.0
H398 H 0.58139 0.34135 0.21563 0.0
H399 H 0.54065 0.34958 0.25604 0.0
H400 H 0.56959 0.3032 0.15403 0.0
H401 H 0.56304 0.24732 0.13812 0.0
C402 C 0.20817 0.05517 0.59934 0.0
C403 C 0.17716 1.00852 0.59108 0.0
C404 C 0.11819 1.0326 0.55016 0.0
C405 C 0.1441 0.07901 0.56424 0.0
N406 N 0.21208 0.1336 0.60739 0.0
N407 N 0.09351 0.95496 0.57321 0.0
C408 C 0.18824 0.08997 0.59106 0.0
C409 C 0.1291 0.998 0.57148 0.0
N410 N 0.25726 0.06663 0.6123 0.0
N411 N 0.08513 1.02059 0.51522 0.0
H412 H 0.09926 0.92899 0.59059 0.0
H413 H 0.05662 0.94707 0.56182 0.0
H414 H 0.07814 0.04365 0.49488 0.0
H415 H 0.0692 0.9869 0.50294 0.0
H416 H 0.28261 0.10031 0.6147 0.0
H417 H 0.27403 0.04249 0.61643 0.0
H418 H 0.24114 0.14222 0.63084 0.0
H419 H 0.20087 0.1606 0.59938 0.0
C420 C 0.84426 0.49326 0.96834 0.0
C421 C 0.7984 0.47911 0.99235 0.0
C422 C 0.84768 0.5164 0.06021 0.0
C423 C 0.8931 0.53274 0.0357 0.0
N424 N 0.93247 0.54312 0.96424 0.0
N425 N 0.75592 0.48646 0.05929 0.0
C426 C 0.89057 0.5232 0.98907 0.0
C427 C 0.80014 0.49327 0.03784 0.0
N428 N 0.84413 0.47649 0.92609 0.0
N429 N 0.8498 0.52289 0.10516 0.0
H430 H 0.72084 0.47153 0.04366 0.0
H431 H 0.75389 0.49967 0.09093 0.0
H432 H 0.883 0.54154 0.12239 0.0
H433 H 0.81947 0.50727 0.1257 0.0
H434 H 0.87677 0.48079 0.90837 0.0
H435 H 0.81138 0.4551 0.90982 0.0
H436 H 0.93207 0.54196 0.92978 0.0
H437 H 0.96708 0.56389 0.97795 0.0
C438 C 0.7725 0.72149 0.53382 0.0
C439 C 0.77204 0.74486 0.49421 0.0
C440 C 0.67885 0.71648 0.49771 0.0
C441 C 0.67937 0.69755 0.54004 0.0
N442 N 0.72912 0.68766 0.60078 0.0
N443 N 0.7243 0.76932 0.44164 0.0
C444 C 0.72687 0.70111 0.55853 0.0
C445 C 0.725 0.74343 0.47703 0.0
N446 N 0.81671 0.71828 0.54768 0.0
N447 N 0.63389 0.70741 0.47623 0.0
H448 H 0.75675 0.7887 0.42502 0.0
H449 H 0.69216 0.77463 0.43093 0.0
H450 H 0.59961 0.68722 0.48941 0.0
H451 H 0.6308 0.71576 0.44355 0.0
H452 H 0.81914 0.69769 0.57329 0.0
H453 H 0.85054 0.73333 0.53105 0.0
H454 H 0.76273 0.69424 0.61812 0.0
H455 H 0.69739 0.67308 0.62007 0.0
C456 C 0.30677 0.4454 0.13734 0.0
C457 C 0.33908 0.4634 0.1745 0.0
C458 C 0.28467 0.50388 0.20091 0.0
C459 C 0.24973 0.48204 0.16636 0.0
N460 N 0.22428 0.42882 0.10387 0.0
N461 N 0.35704 0.50575 0.24433 0.0
C462 C 0.26 0.45207 0.13497 0.0
C463 C 0.32769 0.49175 0.20695 0.0
N464 N 0.32129 0.42255 0.10406 0.0
N465 N 0.27721 0.53697 0.22732 0.0
H466 H 0.3896 0.49859 0.2495 0.0
H467 H 0.34743 0.52177 0.27163 0.0
H468 H 0.2458 0.54634 0.22418 0.0
H469 H 0.30393 0.55774 0.24993 0.0
H470 H 0.30212 0.41264 0.07394 0.0
H471 H 0.355 0.41659 0.10514 0.0
H472 H 0.22694 0.40269 0.08319 0.0
H473 H 0.18998 0.43342 0.10065 0.0
C474 C 0.63178 0.28206 0.96922 0.0
C475 C 0.65394 0.32393 0.99474 0.0
C476 C 0.63565 0.27673 0.06173 0.0
C477 C 0.60548 0.23674 0.03733 0.0
N478 N 0.57187 0.20322 0.96613 0.0
N479 N 0.6636 0.35915 0.06819 0.0
C480 C 0.60274 0.24003 0.99051 0.0
C481 C 0.65241 0.3206 0.04182 0.0
N482 N 0.64028 0.28167 0.92482 0.0
N483 N 0.64992 0.27292 0.10396 0.0
H484 H 0.67107 0.39144 0.0556 0.0
H485 H 0.65896 0.3581 0.10241 0.0
H486 H 0.63999 0.2413 0.11862 0.0
H487 H 0.67553 0.30023 0.12219 0.0
H488 H 0.62912 0.25177 0.90514 0.0
H489 H 0.66328 0.31053 0.9086 0.0
H490 H 0.56368 0.20481 0.93277 0.0
H491 H 0.55198 0.17187 0.98014 0.0
C492 C 0.92811 0.93534 0.458 0.0
C493 C 0.91972 0.89618 0.48416 0.0
C494 C 0.94807 0.94966 0.54946 0.0
C495 C 0.96421 0.98901 0.52253 0.0
N496 N 0.97958 1.01472 0.44709 0.0
N497 N 0.93616 0.86944 0.5544 0.0
C498 C 0.957 0.98058 0.47563 0.0
C499 C 0.93423 0.90448 0.52971 0.0
N500 N 0.90676 0.93011 0.4168 0.0
N501 N 0.94265 0.95458 0.59397 0.0
H502 H 0.92881 0.83659 0.54103 0.0
H503 H 0.95075 0.8745 0.5866 0.0
H504 H 0.9462 0.98573 0.60937 0.0
H505 H 0.92748 0.92678 0.61435 0.0
H506 H 0.90761 0.95779 0.39816 0.0
H507 H 0.88345 0.89851 0.40341 0.0
H508 H 0.97911 1.00894 0.41292 0.0
H509 H 1.00392 0.04719 0.45716 0.0
C510 C 0.32959 0.81914 0.73291 0.0
C511 C 0.34622 0.86563 0.72104 0.0
C512 C 0.42789 0.86333 0.69883 0.0
C513 C 0.41214 0.81749 0.71262 0.0
N514 N 0.35205 0.75359 0.74903 0.0
N515 N 0.41292 0.93467 0.6999 0.0
C516 C 0.36411 0.79591 0.73157 0.0
C517 C 0.39598 0.88857 0.70616 0.0
N518 N 0.28041 0.79695 0.74421 0.0
N519 N 0.47262 0.88214 0.67736 0.0
H520 H 0.39025 0.95413 0.70418 0.0
H521 H 0.45039 0.95437 0.69382 0.0
H522 H 0.49756 0.86505 0.67221 0.0
H523 H 0.48357 0.91338 0.66189 0.0
H524 H 0.26437 0.76182 0.74836 0.0
H525 H 0.25439 0.81323 0.74664 0.0
H526 H 0.31986 0.73793 0.76746 0.0
H527 H 0.37624 0.73535 0.748 0.0
C528 C 0.83187 0.95515 0.86559 0.0
C529 C 0.79928 0.91015 0.85355 0.0
C530 C 0.84734 0.91061 0.78654 0.0
C531 C 0.87926 0.95603 0.798 0.0
N532 N 0.8962 1.02534 0.84236 0.0
N533 N 0.76827 0.84847 0.79906 0.0
C534 C 0.86972 0.97955 0.8357 0.0
C535 C 0.80453 0.88901 0.81274 0.0
N536 N 0.82794 0.97374 0.90628 0.0
N537 N 0.85913 0.88757 0.75177 0.0
H538 H 0.73641 0.83178 0.8177 0.0
H539 H 0.76733 0.83344 0.76773 0.0
H540 H 0.89014 0.90242 0.73161 0.0
H541 H 0.84051 0.85278 0.74479 0.0
H542 H 0.85443 1.00411 0.91912 0.0
H543 H 0.79969 0.95733 0.92857 0.0
H544 H 0.8874 0.04538 0.86665 0.0
H545 H 0.92451 0.0443 0.82121 0.0
C546 C 0.66667 0.12885 0.42206 0.0
C547 C 0.71062 0.12618 0.44182 0.0
C548 C 0.74174 0.11685 0.36812 0.0
C549 C 0.7051 0.13194 0.3494 0.0
N550 N 0.63026 0.15051 0.35839 0.0
N551 N 0.7595 0.07837 0.43013 0.0
C552 C 0.66658 0.13715 0.37625 0.0
C553 C 0.74034 0.10895 0.41414 0.0
N554 N 0.62281 0.11591 0.44506 0.0
N555 N 0.77798 0.11029 0.3423 0.0
H556 H 0.75035 0.06517 0.46161 0.0
H557 H 0.77768 0.06148 0.41036 0.0
H558 H 0.77956 0.11476 0.30819 0.0
H559 H 0.80829 0.10355 0.35553 0.0
H560 H 0.58836 0.11308 0.43096 0.0
H561 H 0.62013 0.10189 0.47629 0.0
H562 H 0.60448 0.15905 0.37776 0.0
H563 H 0.62821 0.1562 0.32473 0.0
C564 C 0.4358 0.66968 0.41755 0.0
C565 C 0.45816 0.7175 0.41025 0.0
C566 C 0.50171 0.72677 0.48377 0.0
C567 C 0.48376 0.67816 0.48898 0.0
N568 N 0.43111 0.60353 0.46066 0.0
N569 N 0.51415 0.79145 0.43612 0.0
C570 C 0.44991 0.64983 0.45574 0.0
C571 C 0.49087 0.7459 0.44379 0.0
N572 N 0.40039 0.64323 0.38769 0.0
N573 N 0.5299 0.75523 0.51685 0.0
H574 H 0.50492 0.80688 0.40905 0.0
H575 H 0.54407 0.81361 0.45504 0.0
H576 H 0.54327 0.74391 0.54435 0.0
H577 H 0.53804 0.79036 0.51844 0.0
H578 H 0.37912 0.60877 0.39129 0.0
H579 H 0.38947 0.65698 0.36026 0.0
H580 H 0.41128 0.57986 0.43618 0.0
H581 H 0.43635 0.58825 0.48945 0.0
C582 C 0.16717 0.57569 0.93182 0.0
C583 C 0.13754 0.53022 0.91713 0.0
C584 C 0.07166 0.53221 0.9711 0.0
C585 C 0.09994 0.57868 0.98417 0.0
N586 N 0.17441 0.64558 0.97354 0.0
N587 N 0.05758 0.46842 0.91792 0.0
C588 C 0.14737 0.60062 0.9631 0.0
C589 C 0.0886 0.50969 0.93546 0.0
N590 N 0.21562 0.5944 0.91746 0.0
N591 N 0.02876 0.50891 0.99331 0.0
H592 H 0.06863 0.45157 0.89198 0.0
H593 H 1.01974 0.45303 0.92583 0.0
H594 H 1.01481 0.52394 1.01859 0.0
H595 H 1.00911 0.47383 0.9893 0.0
H596 H 0.2421 0.62457 0.93071 0.0
H597 H 0.23031 0.57829 0.89348 0.0
H598 H 0.20518 0.6657 0.95558 0.0
H599 H 0.16511 0.6635 0.99953 0.0
C600 C 0.60279 0.99173 0.95292 0.0
C601 C 0.57609 0.94667 0.96719 0.0
C602 C 0.53052 0.97676 1.02061 0.0
C603 C 0.56226 1.02241 1.01111 0.0
N604 N 0.63024 0.07353 0.96897 0.0
N605 N 0.52373 0.8979 1.02206 0.0
C606 C 0.59918 1.02994 0.97765 0.0
C607 C 0.54235 0.93963 1.00292 0.0
N608 N 0.62972 0.99791 0.9147 0.0
N609 N 0.48908 0.96801 0.04671 0.0
H610 H 0.53317 0.87008 1.01167 0.0
H611 H 0.50341 0.89234 0.05135 0.0
H612 H 0.48012 0.99263 0.06474 0.0
H613 H 0.46157 0.93541 0.04886 0.0
H614 H 0.64588 1.02947 0.90008 0.0
H615 H 0.63225 0.97077 0.89533 0.0
H616 H 0.6618 0.08101 0.94898 0.0
H617 H 0.62578 0.10242 0.98339 0.0
C618 C 0.82871 0.10145 0.57448 0.0
C619 C 0.82699 0.14611 0.5736 0.0
C620 C 0.90857 0.17679 0.61213 0.0
C621 C 0.91472 0.13438 0.60486 0.0
N622 N 0.87916 0.05436 0.58302 0.0
N623 N 0.86836 0.22762 0.58687 0.0
C624 C 0.87431 0.09606 0.58706 0.0
C625 C 0.86754 0.18417 0.59155 0.0
N626 N 0.78609 0.06416 0.56516 0.0
N627 N 0.94132 0.20975 0.63929 0.0
H628 H 0.83984 0.2348 0.57076 0.0
H629 H 0.8996 0.2567 0.59526 0.0
H630 H 0.97096 0.2049 0.65593 0.0
H631 H 0.93584 0.23975 0.64894 0.0
H632 H 0.78348 1.03054 0.5691 0.0
H633 H 0.75159 0.06676 0.5573 0.0
H634 H 0.8545 1.02682 0.56449 0.0
H635 H 0.90868 0.04753 0.59771 0.0
C636 C 0.23411 0.75465 0.21567 0.0
C637 C 0.28141 0.75465 0.20049 0.0
C638 C 0.23645 0.70215 0.13788 0.0
C639 C 0.18902 0.70043 0.15444 0.0
N640 N 0.14278 0.71794 0.21447 0.0
N641 N 0.32712 0.72412 0.14968 0.0
C642 C 0.18801 0.72486 0.19479 0.0
C643 C 0.28229 0.72703 0.1623 0.0
N644 N 0.23317 0.78389 0.2498 0.0
N645 N 0.23774 0.68087 0.09802 0.0
H646 H 0.3612 0.74274 0.16566 0.0
H647 H 0.33039 0.70122 0.12537 0.0
H648 H 0.20519 0.66173 0.08012 0.0
H649 H 0.27073 0.68439 0.08122 0.0
H650 H 0.20094 0.79 0.2591 0.0
H651 H 0.26555 0.80466 0.267 0.0
H652 H 0.1392 0.73062 0.24599 0.0
H653 H 0.1087 0.69573 0.20103 0.0
C654 C 0.34954 0.47532 0.68657 0.0
C655 C 0.31696 0.49895 0.69831 0.0
C656 C 0.38143 0.56885 0.66782 0.0
C657 C 0.41004 0.54289 0.65069 0.0
N658 N 0.40457 0.46591 0.62998 0.0
N659 N 0.29935 0.56813 0.69165 0.0
C660 C 0.38935 0.49457 0.65619 0.0
C661 C 0.33228 0.54583 0.68666 0.0
N662 N 0.34331 0.43442 0.70489 0.0
N663 N 0.40102 0.61544 0.66719 0.0
H664 H 0.26321 0.55249 0.70403 0.0
H665 H 0.30621 0.60059 0.67965 0.0
H666 H 0.43558 0.63353 0.65322 0.0
H667 H 0.38462 0.63614 0.68355 0.0
H668 H 0.36856 0.41766 0.69964 0.0
H669 H 0.31683 0.42036 0.72932 0.0
H670 H 0.38813 0.43038 0.63131 0.0
H671 H 0.42695 0.47693 0.60229 0.0
C672 C 0.76992 0.75426 0.93662 0.0
C673 C 0.76233 0.78961 0.96234 0.0
C674 C 0.81963 0.7821 1.01935 0.0
C675 C 0.83555 0.75466 0.98916 0.0
N676 N 0.82594 0.71384 0.91875 0.0
N677 N 0.77815 0.8369 0.02894 0.0
C678 C 0.80994 0.73958 0.94803 0.0
C679 C 0.78576 0.8027 1.00449 0.0
N680 N 0.73955 0.73602 0.90058 0.0
N681 N 0.83694 0.78831 0.06213 0.0
H682 H 0.75211 0.8514 1.01971 0.0
H683 H 0.79912 0.85224 0.0572 0.0
H684 H 0.86154 0.77332 0.07398 0.0
H685 H 0.8234 0.80458 0.08675 0.0
H686 H 0.7402 0.7077 0.88211 0.0
H687 H 0.71024 0.74683 0.89192 0.0
H688 H 0.81241 0.70605 0.88636 0.0
H689 H 0.8553 0.70262 0.92581 0.0
C690 C 0.46831 0.91108 0.17666 0.0
C691 C 0.42984 0.90641 0.20798 0.0
C692 C 0.43911 0.9874 0.19412 0.0
C693 C 0.48251 0.99425 0.16716 0.0
N694 N 0.53814 0.95876 0.13419 0.0
N695 N 0.38182 0.94214 0.24984 0.0
C696 C 0.49686 0.95498 0.1591 0.0
C697 C 0.41615 0.94519 0.21742 0.0
N698 N 0.47609 0.87266 0.16146 0.0
N699 N 0.41828 1.02029 0.1967 0.0
H700 H 0.36401 0.91212 0.26676 0.0
H701 H 0.37417 0.9701 0.26257 0.0
H702 H 0.4318 0.05042 0.17955 0.0
H703 H 0.38411 1.01565 0.21196 0.0
H704 H 0.49828 0.87204 0.13428 0.0
H705 H 0.45684 0.84016 0.17336 0.0
H706 H 0.5564 0.93542 0.13517 0.0
H707 H 0.55473 0.98481 0.11241 0.0
C708 C 0.18497 0.31732 0.70054 0.0
C709 C 0.16451 0.35213 0.69545 0.0
C710 C 0.09814 0.29771 0.64622 0.0
C711 C 0.12106 0.26386 0.64836 0.0
N712 N 0.19523 0.24893 0.66957 0.0
N713 N 0.10601 0.37741 0.65708 0.0
C714 C 0.1668 0.27574 0.6736 0.0
C715 C 0.12237 0.34274 0.66644 0.0
N716 N 0.22179 0.32366 0.73175 0.0
N717 N 0.05196 0.28674 0.62647 0.0
H718 H 0.12134 0.40992 0.6722 0.0
H719 H 0.08006 0.37509 0.63197 0.0
H720 H 0.03272 0.25542 0.61064 0.0
H721 H 0.03052 0.30742 0.62893 0.0
H722 H 0.23457 0.29791 0.74072 0.0
H723 H 0.23619 0.35336 0.7517 0.0
H724 H 0.23116 0.25794 0.68341 0.0
H725 H 0.18583 0.22052 0.64796 0.0
C726 C 0.58433 0.28071 0.54998 0.0
C727 C 0.62367 0.28865 0.58164 0.0
C728 C 0.63378 0.36955 0.58905 0.0
C729 C 0.59599 0.36207 0.55595 0.0
N730 N 0.54036 0.31311 0.5 0.0
N731 N 0.692 0.34122 0.62558 0.0
C732 C 0.57285 0.31838 0.53484 0.0
C733 C 0.65018 0.3333 0.59955 0.0
N734 N 0.55677 0.23695 0.53568 0.0
N735 N 0.65326 0.41111 0.61103 0.0
H736 H 0.70506 0.31545 0.63404 0.0
H737 H 0.71623 0.37372 0.63585 0.0
H738 H 0.64384 0.43915 0.60307 0.0
H739 H 0.67634 0.41717 0.63902 0.0
H740 H 0.52409 0.22816 0.51648 0.0
H741 H 0.56454 0.2086 0.54555 0.0
H742 H 0.52653 0.28356 0.47994 0.0
H743 H 0.52977 0.33957 0.48906 0.0
loop_
_geom_bond_atom_site_label_1
_geom_bond_atom_site_label_2
_geom_bond_distance
_geom_bond_site_symmetry_2
_ccdc_geom_bond_type
H0 C1 0.949 . S
C1 H0 0.949 . S
C1 C2 1.395 . S
C1 C3 1.391 . S
C2 C1 1.395 . S
C2 C5 1.390 . S
C3 C1 1.391 . S
C3 C7 1.387 . S
C3 C8 1.491 . S
H4 C5 0.950 . S
C5 C2 1.390 . S
C5 H4 0.950 . S
C5 C6 1.378 . S
C6 C5 1.378 . S
C6 C7 1.409 . S
C7 C3 1.387 . S
C7 C6 1.409 . S
C7 H9 0.951 . S
C8 C3 1.491 . S
C8 C10 1.382 . S
C8 C12 1.404 . S
H9 C7 0.951 . S
C10 C8 1.382 . S
C10 C11 1.390 . S
C10 H15 0.949 . S
C11 C10 1.390 . S
C11 C16 1.399 . S
C12 C8 1.404 . S
C12 H13 0.950 . S
C12 C14 1.375 . S
H13 C12 0.950 . S
C14 C12 1.375 . S
C14 C16 1.382 . S
C14 H18 0.950 . S
H15 C10 0.949 . S
C16 C11 1.399 . S
C16 C14 1.382 . S
C16 H17 0.952 . S
H17 C16 0.952 . S
H18 C14 0.950 . S
H19 C20 0.949 . S
C20 H19 0.949 . S
C20 C21 1.395 . S
C20 C22 1.391 . S
C21 C20 1.395 . S
C21 C24 1.390 . S
C22 C20 1.391 . S
C22 C26 1.387 . S
C22 C27 1.491 . S
H23 C24 0.950 . S
C24 C21 1.390 . S
C24 H23 0.950 . S
C24 C25 1.378 . S
C25 C24 1.378 . S
C25 C26 1.409 . S
C26 C22 1.387 . S
C26 C25 1.409 . S
C26 H28 0.951 . S
C27 C22 1.491 . S
C27 C29 1.382 . S
C27 C31 1.404 . S
H28 C26 0.951 . S
C29 C27 1.382 . S
C29 C30 1.390 . S
C29 H34 0.949 . S
C30 C29 1.390 . S
C30 C35 1.399 . S
C31 C27 1.404 . S
C31 H32 0.950 . S
C31 C33 1.375 . S
H32 C31 0.950 . S
C33 C31 1.375 . S
C33 C35 1.382 . S
C33 H37 0.950 . S
H34 C29 0.949 . S
C35 C30 1.399 . S
C35 C33 1.382 . S
C35 H36 0.952 . S
H36 C35 0.952 . S
H37 C33 0.950 . S
H38 C39 0.949 . S
C39 H38 0.949 . S
C39 C40 1.395 . S
C39 C41 1.391 . S
C40 C39 1.395 . S
C40 C43 1.390 . S
C41 C39 1.391 . S
C41 C45 1.387 . S
C41 C46 1.491 . S
H42 C43 0.950 . S
C43 C40 1.390 . S
C43 H42 0.950 . S
C43 C44 1.378 . S
C44 C43 1.378 . S
C44 C45 1.409 . S
C45 C41 1.387 . S
C45 C44 1.409 . S
C45 H47 0.951 . S
C46 C41 1.491 . S
C46 C48 1.382 . S
C46 C50 1.404 . S
H47 C45 0.951 . S
C48 C46 1.382 . S
C48 C49 1.390 . S
C48 H53 0.949 . S
C49 C48 1.390 . S
C49 C54 1.399 . S
C50 C46 1.404 . S
C50 H51 0.950 . S
C50 C52 1.375 . S
H51 C50 0.950 . S
C52 C50 1.375 . S
C52 C54 1.382 . S
C52 H56 0.950 . S
H53 C48 0.949 . S
C54 C49 1.399 . S
C54 C52 1.382 . S
C54 H55 0.952 . S
H55 C54 0.952 . S
H56 C52 0.950 . S
H57 C58 0.949 . S
C58 H57 0.949 . S
C58 C59 1.395 . S
C58 C60 1.391 . S
C59 C58 1.395 . S
C59 C62 1.390 . S
C60 C58 1.391 . S
C60 C64 1.387 . S
C60 C65 1.491 . S
H61 C62 0.950 . S
C62 C59 1.390 . S
C62 H61 0.950 . S
C62 C63 1.378 . S
C63 C62 1.378 . S
C63 C64 1.409 . S
C64 C60 1.387 . S
C64 C63 1.409 . S
C64 H66 0.951 . S
C65 C60 1.491 . S
C65 C67 1.382 . S
C65 C69 1.404 . S
H66 C64 0.951 . S
C67 C65 1.382 . S
C67 C68 1.390 . S
C67 H72 0.949 . S
C68 C67 1.390 . S
C68 C73 1.399 . S
C69 C65 1.404 . S
C69 H70 0.950 . S
C69 C71 1.375 . S
H70 C69 0.950 . S
C71 C69 1.375 . S
C71 C73 1.382 . S
C71 H75 0.950 . S
H72 C67 0.949 . S
C73 C68 1.399 . S
C73 C71 1.382 . S
C73 H74 0.952 . S
H74 C73 0.952 . S
H75 C71 0.950 . S
H76 C77 0.949 . S
C77 H76 0.949 . S
C77 C78 1.395 . S
C77 C79 1.391 . S
C78 C77 1.395 . S
C78 C81 1.390 . S
C79 C77 1.391 . S
C79 C83 1.387 . S
C79 C84 1.491 . S
H80 C81 0.950 . S
C81 C78 1.390 . S
C81 H80 0.950 . S
C81 C82 1.378 . S
C82 C81 1.378 . S
C82 C83 1.409 . S
C83 C79 1.387 . S
C83 C82 1.409 . S
C83 H85 0.951 . S
C84 C79 1.491 . S
C84 C86 1.382 . S
C84 C88 1.404 . S
H85 C83 0.951 . S
C86 C84 1.382 . S
C86 C87 1.390 . S
C86 H91 0.949 . S
C87 C86 1.390 . S
C87 C92 1.399 . S
C88 C84 1.404 . S
C88 H89 0.950 . S
C88 C90 1.375 . S
H89 C88 0.950 . S
C90 C88 1.375 . S
C90 C92 1.382 . S
C90 H94 0.950 . S
H91 C86 0.949 . S
C92 C87 1.399 . S
C92 C90 1.382 . S
C92 H93 0.952 . S
H93 C92 0.952 . S
H94 C90 0.950 . S
H95 C96 0.949 . S
C96 H95 0.949 . S
C96 C97 1.395 . S
C96 C98 1.391 . S
C97 C96 1.395 . S
C97 C100 1.390 . S
C98 C96 1.391 . S
C98 C102 1.387 . S
C98 C103 1.491 . S
H99 C100 0.950 . S
C100 C97 1.390 . S
C100 H99 0.950 . S
C100 C101 1.378 . S
C101 C100 1.378 . S
C101 C102 1.409 . S
C102 C98 1.387 . S
C102 C101 1.409 . S
C102 H104 0.951 . S
C103 C98 1.491 . S
C103 C105 1.382 . S
C103 C107 1.404 . S
H104 C102 0.951 . S
C105 C103 1.382 . S
C105 C106 1.390 . S
C105 H110 0.949 . S
C106 C105 1.390 . S
C106 C111 1.399 . S
C107 C103 1.404 . S
C107 H108 0.950 . S
C107 C109 1.375 . S
H108 C107 0.950 . S
C109 C107 1.375 . S
C109 C111 1.382 . S
C109 H113 0.950 . S
H110 C105 0.949 . S
C111 C106 1.399 . S
C111 C109 1.382 . S
C111 H112 0.952 . S
H112 C111 0.952 . S
H113 C109 0.950 . S
H114 C115 0.949 . S
C115 H114 0.949 . S
C115 C116 1.395 . S
C115 C117 1.391 . S
C116 C115 1.395 . S
C116 C119 1.390 . S
C117 C115 1.391 . S
C117 C121 1.387 . S
C117 C122 1.491 . S
H118 C119 0.950 . S
C119 C116 1.390 . S
C119 H118 0.950 . S
C119 C120 1.378 . S
C120 C119 1.378 . S
C120 C121 1.409 . S
C121 C117 1.387 . S
C121 C120 1.409 . S
C121 H123 0.951 . S
C122 C117 1.491 . S
C122 C124 1.382 . S
C122 C126 1.404 . S
H123 C121 0.951 . S
C124 C122 1.382 . S
C124 C125 1.390 . S
C124 H129 0.949 . S
C125 C124 1.390 . S
C125 C130 1.399 . S
C126 C122 1.404 . S
C126 H127 0.950 . S
C126 C128 1.375 . S
H127 C126 0.950 . S
C128 C126 1.375 . S
C128 C130 1.382 . S
C128 H132 0.950 . S
H129 C124 0.949 . S
C130 C125 1.399 . S
C130 C128 1.382 . S
C130 H131 0.952 . S
H131 C130 0.952 . S
H132 C128 0.950 . S
H133 C134 0.949 . S
C134 H133 0.949 . S
C134 C135 1.395 . S
C134 C136 1.391 . S
C135 C134 1.395 . S
C135 C138 1.390 . S
C136 C134 1.391 . S
C136 C140 1.387 . S
C136 C141 1.491 . S
H137 C138 0.950 . S
C138 C135 1.390 . S
C138 H137 0.950 . S
C138 C139 1.378 . S
C139 C138 1.378 . S
C139 C140 1.409 . S
C140 C136 1.387 . S
C140 C139 1.409 . S
C140 H142 0.951 . S
C141 C136 1.491 . S
C141 C143 1.382 . S
C141 C145 1.404 . S
H142 C140 0.951 . S
C143 C141 1.382 . S
C143 C144 1.390 . S
C143 H148 0.949 . S
C144 C143 1.390 . S
C144 C149 1.399 . S
C145 C141 1.404 . S
C145 H146 0.950 . S
C145 C147 1.375 . S
H146 C145 0.950 . S
C147 C145 1.375 . S
C147 C149 1.382 . S
C147 H151 0.950 . S
H148 C143 0.949 . S
C149 C144 1.399 . S
C149 C147 1.382 . S
C149 H150 0.952 . S
H150 C149 0.952 . S
H151 C147 0.950 . S
Ho152 C155 2.811 . S
Ho152 O172 2.322 . S
Ho152 O174 2.378 . S
Ho152 O175 2.524 . S
Ho152 O176 2.381 . S
Ho152 O177 2.669 . S
Ho152 O179 2.346 1_445 S
Ho152 O183 2.305 1_455 S
Ho153 C164 2.811 1_545 S
Ho153 O173 2.346 1_655 S
Ho153 O177 2.305 1_655 S
Ho153 O178 2.322 1_545 S
Ho153 O180 2.378 1_545 S
Ho153 O181 2.524 1_545 S
Ho153 O182 2.381 . S
Ho153 O183 2.669 . S
C154 O172 1.259 . S
C154 O173 1.268 . S
C155 Ho152 2.811 . S
C155 C156 1.488 . S
C155 O174 1.215 . S
C155 O175 1.289 . S
C156 C155 1.488 . S
C156 C157 1.348 . S
C156 C161 1.413 . S
C157 C156 1.348 . S
C157 C158 1.442 . S
C157 H184 0.930 . S
C158 C157 1.442 . S
C158 C159 1.381 . S
C158 H185 0.931 . S
C159 C158 1.381 . S
C159 C160 1.321 . S
C160 C159 1.321 . S
C160 C161 1.403 . S
C160 H186 0.934 . S
C161 C156 1.413 . S
C161 C160 1.403 . S
C161 H187 0.930 . S
C162 O176 1.275 . S
C162 O177 1.256 . S
C163 O178 1.259 . S
C163 O179 1.268 . S
C164 Ho153 2.811 1_565 S
C164 C165 1.488 . S
C164 O180 1.215 . S
C164 O181 1.289 . S
C165 C164 1.488 . S
C165 C166 1.348 . S
C165 C170 1.413 . S
C166 C165 1.348 . S
C166 C167 1.442 . S
C166 H188 0.930 . S
C167 C166 1.442 . S
C167 C168 1.381 . S
C167 H189 0.931 . S
C168 C167 1.381 . S
C168 C169 1.321 . S
C169 C168 1.321 . S
C169 C170 1.403 . S
C169 H190 0.934 . S
C170 C165 1.413 . S
C170 C169 1.403 . S
C170 H191 0.930 . S
C171 O182 1.275 . S
C171 O183 1.256 . S
O172 Ho152 2.322 . S
O172 C154 1.259 . S
O173 Ho153 2.346 1_455 S
O173 C154 1.268 . S
O174 Ho152 2.378 . S
O174 C155 1.215 . S
O175 Ho152 2.524 . S
O175 C155 1.289 . S
O176 Ho152 2.381 . S
O176 C162 1.275 . S
O177 Ho152 2.669 . S
O177 Ho153 2.305 1_455 S
O177 C162 1.256 . S
O178 Ho153 2.322 1_565 S
O178 C163 1.259 . S
O179 Ho152 2.346 1_665 S
O179 C163 1.268 . S
O180 Ho153 2.378 1_565 S
O180 C164 1.215 . S
O181 Ho153 2.524 1_565 S
O181 C164 1.289 . S
O182 Ho153 2.381 . S
O182 C171 1.275 . S
O183 Ho152 2.305 1_655 S
O183 Ho153 2.669 . S
O183 C171 1.256 . S
H184 C157 0.930 . S
H185 C158 0.931 . S
H186 C160 0.934 . S
H187 C161 0.930 . S
H188 C166 0.930 . S
H189 C167 0.931 . S
H190 C169 0.934 . S
H191 C170 0.930 . S
Ho192 C195 2.811 . S
Ho192 O212 2.322 . S
Ho192 O214 2.378 . S
Ho192 O215 2.524 . S
Ho192 O216 2.381 1_545 S
Ho192 O217 2.670 . S
Ho192 O219 2.346 . S
Ho192 O223 2.305 . S
Ho193 C204 2.811 1_544 S
Ho193 O213 2.346 . S
Ho193 O217 2.305 . S
Ho193 O218 2.322 . S
Ho193 O220 2.378 1_554 S
Ho193 O221 2.524 1_545 S
Ho193 O222 2.381 . S
Ho193 O223 2.669 . S
C194 O212 1.259 . S
C194 O213 1.268 . S
C195 Ho192 2.811 . S
C195 C196 1.488 . S
C195 O214 1.215 . S
C195 O215 1.289 . S
C196 C195 1.488 . S
C196 C197 1.348 . S
C196 C201 1.413 . S
C197 C196 1.348 . S
C197 C198 1.442 . S
C197 H224 0.930 . S
C198 C197 1.442 . S
C198 C199 1.381 . S
C198 H225 0.931 . S
C199 C198 1.381 . S
C199 C200 1.321 . S
C200 C199 1.321 . S
C200 C201 1.403 . S
C200 H226 0.934 . S
C201 C196 1.413 . S
C201 C200 1.403 . S
C201 H227 0.930 . S
C202 O216 1.275 . S
C202 O217 1.256 1_565 S
C203 O218 1.259 1_565 S
C203 O219 1.268 1_565 S
C204 Ho193 2.811 1_566 S
C204 C205 1.488 . S
C204 O220 1.215 1_565 S
C204 O221 1.289 1_556 S
C205 C204 1.488 . S
C205 C206 1.348 . S
C205 C210 1.413 . S
C206 C205 1.348 . S
C206 C207 1.442 . S
C206 H228 0.930 . S
C207 C206 1.442 . S
C207 C208 1.381 . S
C207 H229 0.931 . S
C208 C207 1.381 . S
C208 C209 1.321 . S
C209 C208 1.321 . S
C209 C210 1.403 . S
C209 H230 0.934 . S
C210 C205 1.413 . S
C210 C209 1.403 . S
C210 H231 0.930 1_565 S
C211 O222 1.275 . S
C211 O223 1.256 . S
O212 Ho192 2.322 . S
O212 C194 1.259 . S
O213 Ho193 2.346 . S
O213 C194 1.268 . S
O214 Ho192 2.378 . S
O214 C195 1.215 . S
O215 Ho192 2.524 . S
O215 C195 1.289 . S
O216 Ho192 2.381 1_565 S
O216 C202 1.275 . S
O217 Ho192 2.670 . S
O217 Ho193 2.305 . S
O217 C202 1.256 1_545 S
O218 Ho193 2.322 . S
O218 C203 1.259 1_545 S
O219 Ho192 2.346 . S
O219 C203 1.268 1_545 S
O220 Ho193 2.378 1_556 S
O220 C204 1.215 1_545 S
O221 Ho193 2.524 1_565 S
O221 C204 1.289 1_554 S
O222 Ho193 2.381 . S
O222 C211 1.275 . S
O223 Ho192 2.305 . S
O223 Ho193 2.669 . S
O223 C211 1.256 . S
H224 C197 0.930 . S
H225 C198 0.931 . S
H226 C200 0.934 . S
H227 C201 0.930 . S
H228 C206 0.930 . S
H229 C207 0.931 . S
H230 C209 0.934 . S
H231 C210 0.930 1_545 S
Ho232 C235 2.811 . S
Ho232 O252 2.322 . S
Ho232 O254 2.378 . S
Ho232 O255 2.524 . S
Ho232 O256 2.381 . S
Ho232 O257 2.669 . S
Ho232 O259 2.346 . S
Ho232 O263 2.305 . S
Ho233 C244 2.811 . S
Ho233 O253 2.346 . S
Ho233 O257 2.305 . S
Ho233 O258 2.322 . S
Ho233 O260 2.378 . S
Ho233 O261 2.524 . S
Ho233 O262 2.381 . S
Ho233 O263 2.669 . S
C234 O252 1.259 . S
C234 O253 1.268 . S
C235 Ho232 2.811 . S
C235 C236 1.488 . S
C235 O254 1.215 . S
C235 O255 1.289 . S
C236 C235 1.488 . S
C236 C237 1.348 . S
C236 C241 1.413 . S
C237 C236 1.348 . S
C237 C238 1.442 . S
C237 H264 0.930 . S
C238 C237 1.442 . S
C238 C239 1.381 . S
C238 H265 0.931 . S
C239 C238 1.381 . S
C239 C240 1.321 . S
C240 C239 1.321 . S
C240 C241 1.403 . S
C240 H266 0.934 . S
C241 C236 1.413 . S
C241 C240 1.403 . S
C241 H267 0.930 . S
C242 O256 1.275 . S
C242 O257 1.256 . S
C243 O258 1.259 . S
C243 O259 1.268 . S
C244 Ho233 2.811 . S
C244 C245 1.488 . S
C244 O260 1.215 . S
C244 O261 1.289 . S
C245 C244 1.488 . S
C245 C246 1.348 . S
C245 C250 1.413 . S
C246 C245 1.348 . S
C246 C247 1.442 . S
C246 H268 0.930 . S
C247 C246 1.442 . S
C247 C248 1.381 . S
C247 H269 0.931 . S
C248 C247 1.381 . S
C248 C249 1.321 . S
C249 C248 1.321 . S
C249 C250 1.403 . S
C249 H270 0.934 . S
C250 C245 1.413 . S
C250 C249 1.403 . S
C250 H271 0.930 . S
C251 O262 1.275 . S
C251 O263 1.256 . S
O252 Ho232 2.322 . S
O252 C234 1.259 . S
O253 Ho233 2.346 . S
O253 C234 1.268 . S
O254 Ho232 2.378 . S
O254 C235 1.215 . S
O255 Ho232 2.524 . S
O255 C235 1.289 . S
O256 Ho232 2.381 . S
O256 C242 1.275 . S
O257 Ho232 2.669 . S
O257 Ho233 2.305 . S
O257 C242 1.256 . S
O258 Ho233 2.322 . S
O258 C243 1.259 . S
O259 Ho232 2.346 . S
O259 C243 1.268 . S
O260 Ho233 2.378 . S
O260 C244 1.215 . S
O261 Ho233 2.524 . S
O261 C244 1.289 . S
O262 Ho233 2.381 . S
O262 C251 1.275 . S
O263 Ho232 2.305 . S
O263 Ho233 2.669 . S
O263 C251 1.256 . S
H264 C237 0.930 . S
H265 C238 0.931 . S
H266 C240 0.934 . S
H267 C241 0.930 . S
H268 C246 0.930 . S
H269 C247 0.931 . S
H270 C249 0.934 . S
H271 C250 0.930 . S
Ho272 C275 2.811 . S
Ho272 O292 2.322 . S
Ho272 O294 2.378 . S
Ho272 O295 2.524 . S
Ho272 O296 2.381 . S
Ho272 O297 2.669 . S
Ho272 O299 2.346 1_455 S
Ho272 O303 2.306 . S
Ho273 C284 2.811 1_454 S
Ho273 O293 2.346 . S
Ho273 O297 2.305 . S
Ho273 O298 2.322 1_454 S
Ho273 O300 2.378 1_554 S
Ho273 O301 2.524 1_455 S
Ho273 O302 2.381 1_554 S
Ho273 O303 2.669 . S
C274 O292 1.259 . S
C274 O293 1.268 . S
C275 Ho272 2.811 . S
C275 C276 1.488 . S
C275 O294 1.215 . S
C275 O295 1.289 . S
C276 C275 1.488 . S
C276 C277 1.348 . S
C276 C281 1.413 . S
C277 C276 1.348 . S
C277 C278 1.442 . S
C277 H304 0.930 . S
C278 C277 1.442 . S
C278 C279 1.381 . S
C278 H305 0.931 . S
C279 C278 1.381 . S
C279 C280 1.321 . S
C280 C279 1.321 . S
C280 C281 1.403 . S
C280 H306 0.934 . S
C281 C276 1.413 . S
C281 C280 1.403 . S
C281 H307 0.930 . S
C282 O296 1.275 1_655 S
C282 O297 1.256 1_655 S
C283 O298 1.259 . S
C283 O299 1.268 1_556 S
C284 Ho273 2.811 1_656 S
C284 C285 1.488 . S
C284 O300 1.215 1_655 S
C284 O301 1.289 1_556 S
C285 C284 1.488 . S
C285 C286 1.348 . S
C285 C290 1.413 . S
C286 C285 1.348 . S
C286 C287 1.442 . S
C286 H308 0.930 . S
C287 C286 1.442 . S
C287 C288 1.381 . S
C287 H309 0.931 . S
C288 C287 1.381 . S
C288 C289 1.321 . S
C289 C288 1.321 . S
C289 C290 1.403 . S
C289 H310 0.934 . S
C290 C285 1.413 . S
C290 C289 1.403 . S
C290 H311 0.930 . S
C291 O302 1.275 . S
C291 O303 1.254 1_556 S
O292 Ho272 2.322 . S
O292 C274 1.259 . S
O293 Ho273 2.346 . S
O293 C274 1.268 . S
O294 Ho272 2.378 . S
O294 C275 1.215 . S
O295 Ho272 2.524 . S
O295 C275 1.289 . S
O296 Ho272 2.381 . S
O296 C282 1.275 1_455 S
O297 Ho272 2.669 . S
O297 Ho273 2.305 . S
O297 C282 1.256 1_455 S
O298 Ho273 2.322 1_656 S
O298 C283 1.259 . S
O299 Ho272 2.346 1_655 S
O299 C283 1.268 1_554 S
O300 Ho273 2.378 1_556 S
O300 C284 1.215 1_455 S
O301 Ho273 2.524 1_655 S
O301 C284 1.289 1_554 S
O302 Ho273 2.381 1_556 S
O302 C291 1.275 . S
O303 Ho272 2.306 . S
O303 Ho273 2.669 . S
O303 C291 1.254 1_554 S
H304 C277 0.930 . S
H305 C278 0.931 . S
H306 C280 0.934 . S
H307 C281 0.930 . S
H308 C286 0.930 . S
H309 C287 0.931 . S
H310 C289 0.934 . S
H311 C290 0.930 . S
C312 C313 1.363 . S
C312 C318 1.379 . S
C312 N320 1.356 . S
C313 C312 1.363 . S
C313 C319 1.363 . S
C314 C315 1.363 . S
C314 C319 1.379 . S
C314 N321 1.356 . S
C315 C314 1.363 . S
C315 C318 1.363 . S
N316 C318 1.356 . S
N316 H328 0.984 . S
N316 H329 0.985 . S
N317 C319 1.356 . S
N317 H322 0.984 . S
N317 H323 0.985 . S
C318 C312 1.379 . S
C318 C315 1.363 . S
C318 N316 1.356 . S
C319 C313 1.363 . S
C319 C314 1.379 . S
C319 N317 1.356 . S
N320 C312 1.356 . S
N320 H326 0.984 . S
N320 H327 0.984 . S
N321 C314 1.356 . S
N321 H324 0.984 . S
N321 H325 0.985 . S
H322 N317 0.984 . S
H323 N317 0.985 . S
H324 N321 0.984 . S
H325 N321 0.985 . S
H326 N320 0.984 . S
H327 N320 0.984 . S
H328 N316 0.984 . S
H329 N316 0.985 . S
C330 C331 1.363 . S
C330 C336 1.379 . S
C330 N338 1.356 . S
C331 C330 1.363 . S
C331 C337 1.363 . S
C332 C333 1.363 . S
C332 C337 1.379 . S
C332 N339 1.356 . S
C333 C332 1.363 . S
C333 C336 1.363 . S
N334 C336 1.356 . S
N334 H346 0.984 . S
N334 H347 0.985 . S
N335 C337 1.356 . S
N335 H340 0.984 . S
N335 H341 0.985 . S
C336 C330 1.379 . S
C336 C333 1.363 . S
C336 N334 1.356 . S
C337 C331 1.363 . S
C337 C332 1.379 . S
C337 N335 1.356 . S
N338 C330 1.356 . S
N338 H344 0.984 . S
N338 H345 0.984 . S
N339 C332 1.356 . S
N339 H342 0.984 . S
N339 H343 0.985 . S
H340 N335 0.984 . S
H341 N335 0.985 . S
H342 N339 0.984 . S
H343 N339 0.985 . S
H344 N338 0.984 . S
H345 N338 0.984 . S
H346 N334 0.984 . S
H347 N334 0.985 . S
C348 C349 1.363 . S
C348 C354 1.379 . S
C348 N356 1.356 . S
C349 C348 1.363 . S
C349 C355 1.363 . S
C350 C351 1.363 . S
C350 C355 1.379 . S
C350 N357 1.356 . S
C351 C350 1.363 . S
C351 C354 1.363 . S
N352 C354 1.356 . S
N352 H364 0.984 . S
N352 H365 0.985 . S
N353 C355 1.356 . S
N353 H358 0.984 . S
N353 H359 0.985 . S
C354 C348 1.379 . S
C354 C351 1.363 . S
C354 N352 1.356 . S
C355 C349 1.363 . S
C355 C350 1.379 . S
C355 N353 1.356 . S
N356 C348 1.356 . S
N356 H362 0.984 . S
N356 H363 0.984 . S
N357 C350 1.356 . S
N357 H360 0.984 . S
N357 H361 0.985 . S
H358 N353 0.984 . S
H359 N353 0.985 . S
H360 N357 0.984 . S
H361 N357 0.985 . S
H362 N356 0.984 . S
H363 N356 0.984 . S
H364 N352 0.984 . S
H365 N352 0.985 . S
C366 C367 1.363 . S
C366 C372 1.379 . S
C366 N374 1.356 . S
C367 C366 1.363 . S
C367 C373 1.363 . S
C368 C369 1.363 . S
C368 C373 1.379 . S
C368 N375 1.356 . S
C369 C368 1.363 . S
C369 C372 1.363 . S
N370 C372 1.356 . S
N370 H382 0.984 1_655 S
N370 H383 0.985 1_655 S
N371 C373 1.356 . S
N371 H376 0.984 . S
N371 H377 0.985 . S
C372 C366 1.379 . S
C372 C369 1.363 . S
C372 N370 1.356 . S
C373 C367 1.363 . S
C373 C368 1.379 . S
C373 N371 1.356 . S
N374 C366 1.356 . S
N374 H380 0.984 . S
N374 H381 0.984 . S
N375 C368 1.356 . S
N375 H378 0.984 . S
N375 H379 0.985 . S
H376 N371 0.984 . S
H377 N371 0.985 . S
H378 N375 0.984 . S
H379 N375 0.985 . S
H380 N374 0.984 . S
H381 N374 0.984 . S
H382 N370 0.984 1_455 S
H383 N370 0.985 1_455 S
C384 C385 1.363 . S
C384 C390 1.379 . S
C384 N392 1.356 . S
C385 C384 1.363 . S
C385 C391 1.363 . S
C386 C387 1.363 . S
C386 C391 1.379 . S
C386 N393 1.356 . S
C387 C386 1.363 . S
C387 C390 1.363 . S
N388 C390 1.356 . S
N388 H400 0.984 . S
N388 H401 0.985 . S
N389 C391 1.356 . S
N389 H394 0.984 . S
N389 H395 0.985 . S
C390 C384 1.379 . S
C390 C387 1.363 . S
C390 N388 1.356 . S
C391 C385 1.363 . S
C391 C386 1.379 . S
C391 N389 1.356 . S
N392 C384 1.356 . S
N392 H398 0.984 . S
N392 H399 0.984 . S
N393 C386 1.356 . S
N393 H396 0.984 . S
N393 H397 0.985 . S
H394 N389 0.984 . S
H395 N389 0.985 . S
H396 N393 0.984 . S
H397 N393 0.985 . S
H398 N392 0.984 . S
H399 N392 0.984 . S
H400 N388 0.984 . S
H401 N388 0.985 . S
C402 C403 1.363 . S
C402 C408 1.379 . S
C402 N410 1.356 . S
C403 C402 1.363 . S
C403 C409 1.363 . S
C404 C405 1.363 1_565 S
C404 C409 1.379 . S
C404 N411 1.356 . S
C405 C404 1.363 1_545 S
C405 C408 1.363 1_545 S
N406 C408 1.356 1_545 S
N406 H418 0.984 . S
N406 H419 0.985 . S
N407 C409 1.356 . S
N407 H412 0.984 . S
N407 H413 0.985 1_455 S
C408 C402 1.379 . S
C408 C405 1.363 1_565 S
C408 N406 1.356 1_565 S
C409 C403 1.363 . S
C409 C404 1.379 . S
C409 N407 1.356 . S
N410 C402 1.356 . S
N410 H416 0.984 . S
N410 H417 0.984 . S
N411 C404 1.356 . S
N411 H414 0.984 1_565 S
N411 H415 0.985 1_455 S
H412 N407 0.984 . S
H413 N407 0.985 1_655 S
H414 N411 0.984 1_545 S
H415 N411 0.985 1_655 S
H416 N410 0.984 . S
H417 N410 0.984 . S
H418 N406 0.984 . S
H419 N406 0.985 . S
C420 C421 1.363 . S
C420 C426 1.379 . S
C420 N428 1.356 . S
C421 C420 1.363 . S
C421 C427 1.363 . S
C422 C423 1.363 1_554 S
C422 C427 1.379 1_554 S
C422 N429 1.356 . S
C423 C422 1.363 1_556 S
C423 C426 1.363 . S
N424 C426 1.356 . S
N424 H436 0.984 . S
N424 H437 0.985 . S
N425 C427 1.356 1_554 S
N425 H430 0.971 1_554 S
N425 H431 0.985 . S
C426 C420 1.379 . S
C426 C423 1.363 . S
C426 N424 1.356 . S
C427 C421 1.363 . S
C427 C422 1.379 1_556 S
C427 N425 1.356 1_556 S
N428 C420 1.356 . S
N428 H434 0.984 . S
N428 H435 0.984 . S
N429 C422 1.356 . S
N429 H432 0.984 . S
N429 H433 0.985 . S
H430 N425 0.971 1_556 S
H431 N425 0.985 . S
H432 N429 0.984 . S
H433 N429 0.985 . S
H434 N428 0.984 . S
H435 N428 0.984 . S
H436 N424 0.984 . S
H437 N424 0.985 . S
C438 C439 1.363 . S
C438 C444 1.379 . S
C438 N446 1.356 . S
C439 C438 1.363 . S
C439 C445 1.363 . S
C440 C441 1.363 . S
C440 C445 1.379 . S
C440 N447 1.356 . S
C441 C440 1.363 . S
C441 C444 1.363 . S
N442 C444 1.356 . S
N442 H454 0.984 . S
N442 H455 0.985 . S
N443 C445 1.356 . S
N443 H448 0.984 . S
N443 H449 0.985 . S
C444 C438 1.379 . S
C444 C441 1.363 . S
C444 N442 1.356 . S
C445 C439 1.363 . S
C445 C440 1.379 . S
C445 N443 1.356 . S
N446 C438 1.356 . S
N446 H452 0.984 . S
N446 H453 0.984 . S
N447 C440 1.356 . S
N447 H450 0.984 . S
N447 H451 0.985 . S
H448 N443 0.984 . S
H449 N443 0.985 . S
H450 N447 0.984 . S
H451 N447 0.985 . S
H452 N446 0.984 . S
H453 N446 0.984 . S
H454 N442 0.984 . S
H455 N442 0.985 . S
C456 C457 1.363 . S
C456 C462 1.379 . S
C456 N464 1.356 . S
C457 C456 1.363 . S
C457 C463 1.363 . S
C458 C459 1.363 . S
C458 C463 1.379 . S
C458 N465 1.356 . S
C459 C458 1.363 . S
C459 C462 1.363 . S
N460 C462 1.356 . S
N460 H472 0.984 . S
N460 H473 0.985 . S
N461 C463 1.356 . S
N461 H466 0.984 . S
N461 H467 0.985 . S
C462 C456 1.379 . S
C462 C459 1.363 . S
C462 N460 1.356 . S
C463 C457 1.363 . S
C463 C458 1.379 . S
C463 N461 1.356 . S
N464 C456 1.356 . S
N464 H470 0.984 . S
N464 H471 0.984 . S
N465 C458 1.356 . S
N465 H468 0.984 . S
N465 H469 0.985 . S
H466 N461 0.984 . S
H467 N461 0.985 . S
H468 N465 0.984 . S
H469 N465 0.985 . S
H470 N464 0.984 . S
H471 N464 0.984 . S
H472 N460 0.984 . S
H473 N460 0.985 . S
C474 C475 1.363 . S
C474 C480 1.379 . S
C474 N482 1.356 . S
C475 C474 1.363 . S
C475 C481 1.363 1_556 S
C476 C477 1.363 . S
C476 C481 1.379 . S
C476 N483 1.356 . S
C477 C476 1.363 . S
C477 C480 1.363 1_554 S
N478 C480 1.356 . S
N478 H490 0.984 . S
N478 H491 0.985 . S
N479 C481 1.356 . S
N479 H484 0.984 . S
N479 H485 0.985 . S
C480 C474 1.379 . S
C480 C477 1.363 1_556 S
C480 N478 1.356 . S
C481 C475 1.363 1_554 S
C481 C476 1.379 . S
C481 N479 1.356 . S
N482 C474 1.356 . S
N482 H488 0.984 . S
N482 H489 0.984 . S
N483 C476 1.356 . S
N483 H486 0.984 . S
N483 H487 0.985 . S
H484 N479 0.984 . S
H485 N479 0.985 . S
H486 N483 0.984 . S
H487 N483 0.985 . S
H488 N482 0.984 . S
H489 N482 0.984 . S
H490 N478 0.984 . S
H491 N478 0.985 . S
C492 C493 1.363 . S
C492 C498 1.379 . S
C492 N500 1.356 . S
C493 C492 1.363 . S
C493 C499 1.363 . S
C494 C495 1.363 . S
C494 C499 1.379 . S
C494 N501 1.356 . S
C495 C494 1.363 . S
C495 C498 1.363 . S
N496 C498 1.356 . S
N496 H508 0.984 . S
N496 H509 0.985 . S
N497 C499 1.356 . S
N497 H502 0.984 . S
N497 H503 0.985 . S
C498 C492 1.379 . S
C498 C495 1.363 . S
C498 N496 1.356 . S
C499 C493 1.363 . S
C499 C494 1.379 . S
C499 N497 1.356 . S
N500 C492 1.356 . S
N500 H506 0.984 . S
N500 H507 0.984 . S
N501 C494 1.356 . S
N501 H504 0.984 . S
N501 H505 0.985 . S
H502 N497 0.984 . S
H503 N497 0.985 . S
H504 N501 0.984 . S
H505 N501 0.985 . S
H506 N500 0.984 . S
H507 N500 0.984 . S
H508 N496 0.984 . S
H509 N496 0.985 . S
C510 C511 1.363 . S
C510 C516 1.379 . S
C510 N518 1.356 . S
C511 C510 1.363 . S
C511 C517 1.363 . S
C512 C513 1.363 . S
C512 C517 1.379 . S
C512 N519 1.356 . S
C513 C512 1.363 . S
C513 C516 1.363 . S
N514 C516 1.356 . S
N514 H526 0.984 . S
N514 H527 0.985 . S
N515 C517 1.356 . S
N515 H520 0.984 . S
N515 H521 0.985 . S
C516 C510 1.379 . S
C516 C513 1.363 . S
C516 N514 1.356 . S
C517 C511 1.363 . S
C517 C512 1.379 . S
C517 N515 1.356 . S
N518 C510 1.356 . S
N518 H524 0.984 . S
N518 H525 0.984 . S
N519 C512 1.356 . S
N519 H522 0.984 . S
N519 H523 0.985 . S
H520 N515 0.984 . S
H521 N515 0.985 . S
H522 N519 0.984 . S
H523 N519 0.985 . S
H524 N518 0.984 . S
H525 N518 0.984 . S
H526 N514 0.984 . S
H527 N514 0.985 . S
C528 C529 1.363 . S
C528 C534 1.379 . S
C528 N536 1.356 . S
C529 C528 1.363 . S
C529 C535 1.363 . S
C530 C531 1.363 . S
C530 C535 1.379 . S
C530 N537 1.356 . S
C531 C530 1.363 . S
C531 C534 1.363 . S
N532 C534 1.356 . S
N532 H544 0.984 . S
N532 H545 0.985 . S
N533 C535 1.356 . S
N533 H538 0.984 . S
N533 H539 0.985 . S
C534 C528 1.379 . S
C534 C531 1.363 . S
C534 N532 1.356 . S
C535 C529 1.363 . S
C535 C530 1.379 . S
C535 N533 1.356 . S
N536 C528 1.356 . S
N536 H542 0.984 . S
N536 H543 0.984 . S
N537 C530 1.356 . S
N537 H540 0.984 . S
N537 H541 0.985 . S
H538 N533 0.984 . S
H539 N533 0.985 . S
H540 N537 0.984 . S
H541 N537 0.985 . S
H542 N536 0.984 . S
H543 N536 0.984 . S
H544 N532 0.984 . S
H545 N532 0.985 . S
C546 C547 1.363 . S
C546 C552 1.379 . S
C546 N554 1.356 . S
C547 C546 1.363 . S
C547 C553 1.363 . S
C548 C549 1.363 . S
C548 C553 1.379 . S
C548 N555 1.356 . S
C549 C548 1.363 . S
C549 C552 1.363 . S
N550 C552 1.356 . S
N550 H562 0.984 . S
N550 H563 0.985 . S
N551 C553 1.356 . S
N551 H556 0.984 . S
N551 H557 0.985 . S
C552 C546 1.379 . S
C552 C549 1.363 . S
C552 N550 1.356 . S
C553 C547 1.363 . S
C553 C548 1.379 . S
C553 N551 1.356 . S
N554 C546 1.356 . S
N554 H560 0.984 . S
N554 H561 0.984 . S
N555 C548 1.356 . S
N555 H558 0.984 . S
N555 H559 0.985 . S
H556 N551 0.984 . S
H557 N551 0.985 . S
H558 N555 0.984 . S
H559 N555 0.985 . S
H560 N554 0.984 . S
H561 N554 0.984 . S
H562 N550 0.984 . S
H563 N550 0.985 . S
C564 C565 1.363 . S
C564 C570 1.379 . S
C564 N572 1.356 . S
C565 C564 1.363 . S
C565 C571 1.363 . S
C566 C567 1.363 . S
C566 C571 1.379 . S
C566 N573 1.356 . S
C567 C566 1.363 . S
C567 C570 1.363 . S
N568 C570 1.356 . S
N568 H580 0.984 . S
N568 H581 0.985 . S
N569 C571 1.356 . S
N569 H574 0.984 . S
N569 H575 0.985 . S
C570 C564 1.379 . S
C570 C567 1.363 . S
C570 N568 1.356 . S
C571 C565 1.363 . S
C571 C566 1.379 . S
C571 N569 1.356 . S
N572 C564 1.356 . S
N572 H578 0.984 . S
N572 H579 0.984 . S
N573 C566 1.356 . S
N573 H576 0.984 . S
N573 H577 0.985 . S
H574 N569 0.984 . S
H575 N569 0.985 . S
H576 N573 0.984 . S
H577 N573 0.985 . S
H578 N572 0.984 . S
H579 N572 0.984 . S
H580 N568 0.984 . S
H581 N568 0.985 . S
C582 C583 1.363 . S
C582 C588 1.379 . S
C582 N590 1.356 . S
C583 C582 1.363 . S
C583 C589 1.363 . S
C584 C585 1.363 . S
C584 C589 1.379 . S
C584 N591 1.356 . S
C585 C584 1.363 . S
C585 C588 1.363 . S
N586 C588 1.356 . S
N586 H598 0.984 . S
N586 H599 0.985 . S
N587 C589 1.356 . S
N587 H592 0.984 . S
N587 H593 0.985 . S
C588 C582 1.379 . S
C588 C585 1.363 . S
C588 N586 1.356 . S
C589 C583 1.363 . S
C589 C584 1.379 . S
C589 N587 1.356 . S
N590 C582 1.356 . S
N590 H596 0.984 . S
N590 H597 0.984 . S
N591 C584 1.356 . S
N591 H594 0.984 . S
N591 H595 0.985 . S
H592 N587 0.984 . S
H593 N587 0.985 . S
H594 N591 0.984 . S
H595 N591 0.985 . S
H596 N590 0.984 . S
H597 N590 0.984 . S
H598 N586 0.984 . S
H599 N586 0.985 . S
C600 C601 1.363 . S
C600 C606 1.379 . S
C600 N608 1.356 . S
C601 C600 1.363 . S
C601 C607 1.363 . S
C602 C603 1.367 . S
C602 C607 1.379 1_554 S
C602 N609 1.356 . S
C603 C602 1.367 . S
C603 C606 1.355 1_554 S
N604 C606 1.356 . S
N604 H616 0.984 . S
N604 H617 0.985 . S
N605 C607 1.356 1_554 S
N605 H610 0.984 1_554 S
N605 H611 0.985 . S
C606 C600 1.379 . S
C606 C603 1.355 1_556 S
C606 N604 1.356 . S
C607 C601 1.363 . S
C607 C602 1.379 1_556 S
C607 N605 1.356 1_556 S
N608 C600 1.356 . S
N608 H614 0.984 . S
N608 H615 0.984 . S
N609 C602 1.356 . S
N609 H612 0.984 . S
N609 H613 0.985 . S
H610 N605 0.984 1_556 S
H611 N605 0.985 . S
H612 N609 0.984 . S
H613 N609 0.985 . S
H614 N608 0.984 . S
H615 N608 0.984 . S
H616 N604 0.984 . S
H617 N604 0.985 . S
C618 C619 1.363 . S
C618 C624 1.379 . S
C618 N626 1.356 . S
C619 C618 1.363 . S
C619 C625 1.363 . S
C620 C621 1.363 . S
C620 C625 1.379 . S
C620 N627 1.356 . S
C621 C620 1.363 . S
C621 C624 1.363 . S
N622 C624 1.356 . S
N622 H634 0.984 . S
N622 H635 0.985 . S
N623 C625 1.356 . S
N623 H628 0.984 . S
N623 H629 0.985 . S
C624 C618 1.379 . S
C624 C621 1.363 . S
C624 N622 1.356 . S
C625 C619 1.363 . S
C625 C620 1.379 . S
C625 N623 1.356 . S
N626 C618 1.356 . S
N626 H632 0.984 . S
N626 H633 0.984 . S
N627 C620 1.356 . S
N627 H630 0.984 . S
N627 H631 0.985 . S
H628 N623 0.984 . S
H629 N623 0.985 . S
H630 N627 0.984 . S
H631 N627 0.985 . S
H632 N626 0.984 . S
H633 N626 0.984 . S
H634 N622 0.984 . S
H635 N622 0.985 . S
C636 C637 1.363 . S
C636 C642 1.379 . S
C636 N644 1.356 . S
C637 C636 1.363 . S
C637 C643 1.363 . S
C638 C639 1.363 . S
C638 C643 1.379 . S
C638 N645 1.356 . S
C639 C638 1.363 . S
C639 C642 1.363 . S
N640 C642 1.356 . S
N640 H652 0.984 . S
N640 H653 0.985 . S
N641 C643 1.356 . S
N641 H646 0.984 . S
N641 H647 0.985 . S
C642 C636 1.379 . S
C642 C639 1.363 . S
C642 N640 1.356 . S
C643 C637 1.363 . S
C643 C638 1.379 . S
C643 N641 1.356 . S
N644 C636 1.356 . S
N644 H650 0.984 . S
N644 H651 0.984 . S
N645 C638 1.356 . S
N645 H648 0.984 . S
N645 H649 0.985 . S
H646 N641 0.984 . S
H647 N641 0.985 . S
H648 N645 0.984 . S
H649 N645 0.985 . S
H650 N644 0.984 . S
H651 N644 0.984 . S
H652 N640 0.984 . S
H653 N640 0.985 . S
C654 C655 1.363 . S
C654 C660 1.379 . S
C654 N662 1.356 . S
C655 C654 1.363 . S
C655 C661 1.363 . S
C656 C657 1.363 . S
C656 C661 1.379 . S
C656 N663 1.356 . S
C657 C656 1.363 . S
C657 C660 1.363 . S
N658 C660 1.356 . S
N658 H670 0.984 . S
N658 H671 0.985 . S
N659 C661 1.356 . S
N659 H664 0.984 . S
N659 H665 0.985 . S
C660 C654 1.379 . S
C660 C657 1.363 . S
C660 N658 1.356 . S
C661 C655 1.363 . S
C661 C656 1.379 . S
C661 N659 1.356 . S
N662 C654 1.356 . S
N662 H668 0.984 . S
N662 H669 0.984 . S
N663 C656 1.356 . S
N663 H666 0.984 . S
N663 H667 0.985 . S
H664 N659 0.984 . S
H665 N659 0.985 . S
H666 N663 0.984 . S
H667 N663 0.985 . S
H668 N662 0.984 . S
H669 N662 0.984 . S
H670 N658 0.984 . S
H671 N658 0.985 . S
C672 C673 1.363 . S
C672 C678 1.379 . S
C672 N680 1.356 . S
C673 C672 1.363 . S
C673 C679 1.363 . S
C674 C675 1.363 . S
C674 C679 1.379 . S
C674 N681 1.356 . S
C675 C674 1.363 . S
C675 C678 1.363 . S
N676 C678 1.356 . S
N676 H688 0.984 . S
N676 H689 0.985 . S
N677 C679 1.356 . S
N677 H682 0.984 . S
N677 H683 0.985 . S
C678 C672 1.379 . S
C678 C675 1.363 . S
C678 N676 1.356 . S
C679 C673 1.363 . S
C679 C674 1.379 . S
C679 N677 1.356 . S
N680 C672 1.356 . S
N680 H686 0.984 . S
N680 H687 0.984 . S
N681 C674 1.356 . S
N681 H684 0.984 . S
N681 H685 0.985 . S
H682 N677 0.984 . S
H683 N677 0.985 . S
H684 N681 0.984 . S
H685 N681 0.985 . S
H686 N680 0.984 . S
H687 N680 0.984 . S
H688 N676 0.984 . S
H689 N676 0.985 . S
C690 C691 1.363 . S
C690 C696 1.379 . S
C690 N698 1.356 . S
C691 C690 1.363 . S
C691 C697 1.363 . S
C692 C693 1.363 . S
C692 C697 1.379 . S
C692 N699 1.356 . S
C693 C692 1.363 . S
C693 C696 1.363 . S
N694 C696 1.356 . S
N694 H706 0.984 . S
N694 H707 0.985 . S
N695 C697 1.356 . S
N695 H700 0.984 . S
N695 H701 0.985 . S
C696 C690 1.379 . S
C696 C693 1.363 . S
C696 N694 1.356 . S
C697 C691 1.363 . S
C697 C692 1.379 . S
C697 N695 1.356 . S
N698 C690 1.356 . S
N698 H704 0.984 . S
N698 H705 0.984 . S
N699 C692 1.356 . S
N699 H702 0.984 . S
N699 H703 0.985 . S
H700 N695 0.984 . S
H701 N695 0.985 . S
H702 N699 0.984 . S
H703 N699 0.985 . S
H704 N698 0.984 . S
H705 N698 0.984 . S
H706 N694 0.984 . S
H707 N694 0.985 . S
C708 C709 1.363 . S
C708 C714 1.379 . S
C708 N716 1.356 . S
C709 C708 1.363 . S
C709 C715 1.363 . S
C710 C711 1.363 . S
C710 C715 1.379 . S
C710 N717 1.356 . S
C711 C710 1.363 . S
C711 C714 1.363 . S
N712 C714 1.356 . S
N712 H724 0.984 . S
N712 H725 0.985 . S
N713 C715 1.356 . S
N713 H718 0.984 . S
N713 H719 0.985 . S
C714 C708 1.379 . S
C714 C711 1.363 . S
C714 N712 1.356 . S
C715 C709 1.363 . S
C715 C710 1.379 . S
C715 N713 1.356 . S
N716 C708 1.356 . S
N716 H722 0.984 . S
N716 H723 0.984 . S
N717 C710 1.356 . S
N717 H720 0.984 . S
N717 H721 0.985 . S
H718 N713 0.984 . S
H719 N713 0.985 . S
H720 N717 0.984 . S
H721 N717 0.985 . S
H722 N716 0.984 . S
H723 N716 0.984 . S
H724 N712 0.984 . S
H725 N712 0.985 . S
C726 C727 1.363 . S
C726 C732 1.379 . S
C726 N734 1.356 . S
C727 C726 1.363 . S
C727 C733 1.363 . S
C728 C729 1.363 . S
C728 C733 1.379 . S
C728 N735 1.356 . S
C729 C728 1.363 . S
C729 C732 1.363 . S
N730 C732 1.356 . S
N730 H742 0.984 . S
N730 H743 0.985 . S
N731 C733 1.356 . S
N731 H736 0.984 . S
N731 H737 0.985 . S
C732 C726 1.379 . S
C732 C729 1.363 . S
C732 N730 1.356 . S
C733 C727 1.363 . S
C733 C728 1.379 . S
C733 N731 1.356 . S
N734 C726 1.356 . S
N734 H740 0.984 . S
N734 H741 0.984 . S
N735 C728 1.356 . S
N735 H738 0.984 . S
N735 H739 0.985 . S
H736 N731 0.984 . S
H737 N731 0.985 . S
H738 N735 0.984 . S
H739 N735 0.985 . S
H740 N734 0.984 . S
H741 N734 0.984 . S
H742 N730 0.984 . S
H743 N730 0.985 . S
C313 C6 1.241 . S
C315 C159 1.272 . S
C331 C21 1.445 . S
C333 C208 1.472 . S
C351 C234 2.020 . S
C349 C49 2.052 . S
C367 C68 2.183 . S
C369 C282 2.241 . S
C387 C194 2.841 . S
C385 C2 2.679 . S
C405 C162 0.532 . S
C403 C30 0.493 . S
C423 C283 2.019 . S
C421 C40 2.083 . S
C441 C251 1.732 . S
C439 C63 1.727 . S
C457 C11 1.362 . S
C459 C279 1.582 . S
C477 C211 2.618 . S
C475 C44 2.688 . S
C493 C59 2.037 . S
C495 C163 2.044 . S
C511 C25 1.610 . S
C513 C248 1.580 . S
C531 C168 1.365 . S
C529 C82 1.365 . S
C547 C101 1.371 . S
C549 C199 1.383 . S
C565 C125 2.301 . S
C567 C243 2.406 . S
C583 C144 2.001 . S
C585 C291 2.073 . S
C601 C87 1.981 . S
C603 C203 2.162 . S
C621 C171 1.622 . S
C619 C97 1.640 . S
C639 C274 1.775 . S
C637 C120 1.866 . S
C657 C242 1.759 . S
C655 C135 1.865 . S
C673 C78 1.890 . S
C675 C288 2.053 . S
C693 C202 1.974 . S
C691 C116 2.023 . S
C711 C154 2.640 . S
C709 C139 2.635 . S
C727 C106 0.883 . S
C729 C239 1.154 . S
