# Generated by pormake.
# Topology zzz, (3,6)-cn, num edge types: 1
# Building blocks:
#     Node 0, Type 0, BuildingBlock: PAMTOO_clean_linker_0, # of connection points: 3
#     Node 1, Type 0, BuildingBlock: PAMTOO_clean_linker_0, # of connection points: 3
#     Node 2, Type 0, BuildingBlock: PAMTOO_clean_linker_0, # of connection points: 3
#     Node 3, Type 0, BuildingBlock: PAMTOO_clean_linker_0, # of connection points: 3
#     Node 4, Type 0, BuildingBlock: PAMTOO_clean_linker_0, # of connection points: 3
#     Node 5, Type 0, BuildingBlock: PAMTOO_clean_linker_0, # of connection points: 3
#     Node 6, Type 0, BuildingBlock: PAMTOO_clean_linker_0, # of connection points: 3
#     Node 7, Type 0, BuildingBlock: PAMTOO_clean_linker_0, # of connection points: 3
#     Node 8, Type 1, BuildingBlock: GEDQOX_clean_sbu_0, # of connection points: 6
#     Node 9, Type 1, BuildingBlock: GEDQOX_clean_sbu_0, # of connection points: 6
#     Node 10, Type 1, BuildingBlock: GEDQOX_clean_sbu_0, # of connection points: 6
#     Node 11, Type 1, BuildingBlock: GEDQOX_clean_sbu_0, # of connection points: 6
#     Edge 12, Type (0, 1), BuildingBlock: EZIPEK_clean_linker_0, # of connection points: 2
#     Edge 13, Type (0, 1), BuildingBlock: EZIPEK_clean_linker_0, # of connection points: 2
#     Edge 14, Type (0, 1), BuildingBlock: EZIPEK_clean_linker_0, # of connection points: 2
#     Edge 15, Type (0, 1), BuildingBlock: EZIPEK_clean_linker_0, # of connection points: 2
#     Edge 16, Type (0, 1), BuildingBlock: EZIPEK_clean_linker_0, # of connection points: 2
#     Edge 17, Type (0, 1), BuildingBlock: EZIPEK_clean_linker_0, # of connection points: 2
#     Edge 18, Type (0, 1), BuildingBlock: EZIPEK_clean_linker_0, # of connection points: 2
#     Edge 19, Type (0, 1), BuildingBlock: EZIPEK_clean_linker_0, # of connection points: 2
#     Edge 20, Type (0, 1), BuildingBlock: EZIPEK_clean_linker_0, # of connection points: 2
#     Edge 21, Type (0, 1), BuildingBlock: EZIPEK_clean_linker_0, # of connection points: 2
#     Edge 22, Type (0, 1), BuildingBlock: EZIPEK_clean_linker_0, # of connection points: 2
#     Edge 23, Type (0, 1), BuildingBlock: EZIPEK_clean_linker_0, # of connection points: 2
#     Edge 24, Type (0, 1), BuildingBlock: EZIPEK_clean_linker_0, # of connection points: 2
#     Edge 25, Type (0, 1), BuildingBlock: EZIPEK_clean_linker_0, # of connection points: 2
#     Edge 26, Type (0, 1), BuildingBlock: EZIPEK_clean_linker_0, # of connection points: 2
#     Edge 27, Type (0, 1), BuildingBlock: EZIPEK_clean_linker_0, # of connection points: 2
#     Edge 28, Type (0, 1), BuildingBlock: EZIPEK_clean_linker_0, # of connection points: 2
#     Edge 29, Type (0, 1), BuildingBlock: EZIPEK_clean_linker_0, # of connection points: 2
#     Edge 30, Type (0, 1), BuildingBlock: EZIPEK_clean_linker_0, # of connection points: 2
#     Edge 31, Type (0, 1), BuildingBlock: EZIPEK_clean_linker_0, # of connection points: 2
#     Edge 32, Type (0, 1), BuildingBlock: EZIPEK_clean_linker_0, # of connection points: 2
#     Edge 33, Type (0, 1), BuildingBlock: EZIPEK_clean_linker_0, # of connection points: 2
#     Edge 34, Type (0, 1), BuildingBlock: EZIPEK_clean_linker_0, # of connection points: 2
#     Edge 35, Type (0, 1), BuildingBlock: EZIPEK_clean_linker_0, # of connection points: 2
# Relax obj value: 0.142
# Max RMSD: 0.232
# Mean RMSD: 0.079
data_MOF--net-zzz--node1-GEDQOX_clean_sbu_0--node2-PAMTOO_clean_linker_0--edge1-EZIPEK_clean_linker_0
_symmetry_space_group_name_H-M    P1
_symmetry_Int_Tables_number       1
_symmetry_cell_setting            triclinic
loop_
_symmetry_equiv_pos_as_xyz
'x, y, z'
_cell_length_a     40.153472
_cell_length_b     38.748422
_cell_length_c     13.594788
_cell_angle_alpha  76.904131
_cell_angle_beta   88.945639
_cell_angle_gamma 101.41252
loop_
_atom_site_label
_atom_site_type_symbol
_atom_site_fract_x
_atom_site_fract_y
_atom_site_fract_z
_atom_type_partial_charge
H0 H 0.88213 0.57054 0.26366 0.0
H1 H 0.79959 0.54504 0.07795 0.0
H2 H 0.78377 0.59034 0.33293 0.0
H3 H 0.75974 0.60688 0.05504 0.0
C4 C 0.74337 0.59501 0.12617 0.0
O5 O 0.75439 0.56559 0.18352 0.0
H6 H 0.74707 0.61743 0.16598 0.0
C7 C 0.85547 0.56876 0.2483 0.0
C8 C 0.8345 0.58168 0.30813 0.0
C9 C 0.84332 0.55567 0.16533 0.0
C10 C 0.80909 0.55448 0.14329 0.0
C11 C 0.78742 0.5667 0.20441 0.0
C12 C 0.8002 0.58026 0.28709 0.0
H13 H 0.04702 0.86683 0.37043 0.0
H14 H 0.06169 0.80593 0.1525 0.0
H15 H 0.03756 0.75143 0.4679 0.0
H16 H 0.01443 0.73933 0.18679 0.0
C17 C 0.0275 0.72194 0.24299 0.0
O18 O 0.05348 0.74292 0.28297 0.0
H19 H 1.00718 0.70801 0.30361 0.0
C20 C 0.04846 0.841 0.35365 0.0
C21 C 0.04158 0.80976 0.43119 0.0
C22 C 0.05489 0.83975 0.25394 0.0
C23 C 0.05661 0.80675 0.2303 0.0
C24 C 0.05068 0.77459 0.30711 0.0
C25 C 0.04271 0.77603 0.40839 0.0
H26 H 0.70704 0.04898 0.26504 0.0
H27 H 0.76826 0.05048 1.00174 0.0
H28 H 0.80493 0.02021 0.29815 0.0
H29 H 0.84039 0.08578 0.04073 0.0
C30 C 0.84332 0.0582 0.03641 0.0
O31 O 0.8198 0.03159 0.10188 0.0
H32 H 0.83752 0.05742 0.95728 0.0
C33 C 0.73121 0.04722 0.23132 0.0
C34 C 0.75504 0.03359 0.29391 0.0
C35 C 0.73537 0.05277 0.12639 0.0
C36 C 0.76547 0.04787 0.08267 0.0
C37 C 0.79153 0.03811 0.14423 0.0
C38 C 0.78624 0.03083 0.25042 0.0
H39 H 0.53706 0.72705 0.54551 0.0
H40 H 0.54198 0.83069 0.34728 0.0
H41 H 0.5574 0.82276 0.66479 0.0
H42 H 0.5127 0.88667 0.52444 0.0
C43 C 0.52601 0.88441 0.45481 0.0
O44 O 0.55366 0.86848 0.48317 0.0
H45 H 0.50661 0.86595 0.42284 0.0
C46 C 0.54149 0.75629 0.53457 0.0
C47 C 0.5487 0.77187 0.61692 0.0
C48 C 0.53871 0.77749 0.43891 0.0
C49 C 0.54472 0.81494 0.42215 0.0
C50 C 0.55093 0.83182 0.50272 0.0
C51 C 0.55281 0.81014 0.6016 0.0
H52 H 0.2065 0.54332 0.6496 0.0
H53 H 0.28743 0.56354 0.8446 0.0
H54 H 0.30452 0.5223 0.58274 0.0
H55 H 0.33707 0.49207 0.74392 0.0
C56 C 0.34182 0.51162 0.79271 0.0
O57 O 0.33292 0.54302 0.73886 0.0
H58 H 0.32507 0.50006 0.86339 0.0
C59 C 0.23301 0.54452 0.66622 0.0
C60 C 0.25413 0.53206 0.60562 0.0
C61 C 0.2446 0.55574 0.75241 0.0
C62 C 0.27854 0.55577 0.7765 0.0
C63 C 0.30044 0.54412 0.71447 0.0
C64 C 0.28811 0.53235 0.62874 0.0
H65 H 0.04142 0.2422 0.55246 0.0
H66 H 0.0152 0.30152 0.76208 0.0
H67 H 0.06331 0.35873 0.46716 0.0
H68 H 0.08427 0.38052 0.70036 0.0
C69 C 0.05676 0.37757 0.71942 0.0
O70 O 0.03781 0.36636 0.64333 0.0
H71 H 0.05191 0.35562 0.78987 0.0
C72 C 0.03986 0.26801 0.56909 0.0
C73 C 0.05276 0.29995 0.49706 0.0
C74 C 0.02733 0.26843 0.66465 0.0
C75 C 0.02504 0.30143 0.68747 0.0
C76 C 0.03849 0.33441 0.61741 0.0
C77 C 0.0527 0.33364 0.52155 0.0
H78 H 0.3804 0.06103 0.6353 0.0
H79 H 0.29652 0.02829 0.86059 0.0
H80 H 0.28418 0.08952 0.56166 0.0
H81 H 0.25989 0.11537 0.74293 0.0
C82 C 0.24886 0.08813 0.7918 0.0
O83 O 0.25485 0.0613 0.74579 0.0
H84 H 0.2624 0.08488 0.86254 0.0
C85 C 0.35417 0.06048 0.6577 0.0
C86 C 0.33375 0.07663 0.58668 0.0
C87 C 0.34111 0.04289 0.75631 0.0
C88 C 0.30698 0.04183 0.78444 0.0
C89 C 0.28677 0.0598 0.71553 0.0
C90 C 0.30001 0.07663 0.61587 0.0
H91 H 0.57695 0.39102 0.32855 0.0
H92 H 0.58612 0.2904 0.51974 0.0
H93 H 0.54566 0.29254 0.22631 0.0
H94 H 0.51503 0.219 0.43819 0.0
C95 C 0.53986 0.22589 0.47124 0.0
O96 O 0.56299 0.24949 0.39634 0.0
H97 H 0.53423 0.23983 0.53088 0.0
C98 C 0.57387 0.36185 0.34029 0.0
C99 C 0.56035 0.34474 0.26549 0.0
C100 C 0.5833 0.34215 0.43038 0.0
C101 C 0.57967 0.30485 0.4475 0.0
C102 C 0.5659 0.28625 0.37553 0.0
C103 C 0.55599 0.30636 0.28332 0.0
Nd104 Nd 0.03274 0.03954 0.86243 0.0
Nd105 Nd 0.05792 0.0708 0.05699 0.0
C106 C 1.00523 1.0056 0.72628 0.0
C107 C 1.00816 0.97043 0.70268 0.0
C108 C 1.00505 0.93848 0.77983 0.0
C109 C 1.00858 0.90572 0.7569 0.0
C110 C 0.01572 0.9042 0.65656 0.0
C111 C 0.01876 0.93599 0.57957 0.0
C112 C 0.01501 0.9687 0.60233 0.0
C113 C 0.10221 0.05312 0.88493 0.0
C114 C 0.0504 0.98514 0.06451 0.0
C115 C 0.09275 0.11212 0.16699 0.0
C116 C 0.08958 0.14606 0.19841 0.0
C117 C 0.1038 0.18054 0.13619 0.0
C118 C 0.10105 0.21235 0.16614 0.0
C119 C 0.08405 0.21048 0.25901 0.0
C120 C 0.06992 0.17624 0.32132 0.0
C121 C 0.07272 0.14443 0.29163 0.0
C122 C 0.98739 0.05307 0.06349 0.0
C123 C 0.03117 0.12387 0.86261 0.0
O124 O 0.98935 1.00381 0.8131 0.0
O125 O 0.03236 0.03189 0.70469 0.0
O126 O 0.08599 0.02682 0.849 0.0
O127 O 0.08181 0.07213 0.90334 0.0
O128 O 0.03064 0.98934 0.98823 0.0
O129 O 0.06729 1.01254 0.09909 0.0
O130 O 0.10056 0.11521 0.07096 0.0
O131 O 0.07031 0.08235 0.20695 0.0
O132 O 1.00439 0.06414 0.13478 0.0
O133 O 1.00832 0.04931 0.99858 0.0
O134 O 0.04407 0.11955 0.952 0.0
O135 O 0.02389 0.09788 0.81242 0.0
H136 H 1.00006 0.93879 0.85816 0.0
H137 H 1.00604 0.8816 0.81753 0.0
H138 H 0.02412 0.93548 0.50157 0.0
H139 H 0.01764 0.99275 0.54142 0.0
H140 H 0.11718 0.18302 0.0642 0.0
H141 H 0.11226 0.23843 0.11701 0.0
H142 H 0.05683 0.17412 0.39351 0.0
H143 H 0.0617 0.11854 0.34196 0.0
Nd144 Nd 0.54173 0.02246 0.86186 0.0
Nd145 Nd 0.52835 0.07587 0.98525 0.0
C146 C 0.55667 0.97509 0.76519 0.0
C147 C 0.58818 0.97644 0.70381 0.0
C148 C 0.61346 0.95841 0.74758 0.0
C149 C 0.64525 0.9637 0.69592 0.0
C150 C 0.65224 0.98687 0.59919 0.0
C151 C 0.62673 1.00382 0.55361 0.0
C152 C 0.595 0.99866 0.60523 0.0
C153 C 0.55517 0.09491 0.75794 0.0
C154 C 0.60428 0.06034 0.97022 0.0
C155 C 0.51048 0.13219 0.0337 0.0
C156 C 0.48072 0.13471 0.09591 0.0
C157 C 0.48536 0.14208 0.19172 0.0
C158 C 0.45733 0.13778 0.2593 0.0
C159 C 0.42422 0.12641 0.23173 0.0
C160 C 0.41927 0.12224 0.13293 0.0
C161 C 0.44728 0.12603 0.06567 0.0
C162 C 0.52206 1.00961 0.124 0.0
C163 C 0.46221 0.02156 0.9253 0.0
O164 O 0.56012 0.97217 0.86199 0.0
O165 O 0.53752 0.99807 0.72825 0.0
O166 O 0.57446 0.07251 0.75005 0.0
O167 O 0.52994 0.0785 0.81831 0.0
O168 O 0.59018 0.03074 0.94261 0.0
O169 O 0.58723 0.08593 0.97513 0.0
O170 O 0.50424 0.12352 0.94732 0.0
O171 O 0.53277 0.11544 0.08225 0.0
O172 O 0.5192 0.03982 0.14565 0.0
O173 O 0.52904 1.01551 0.02907 0.0
O174 O 0.47375 0.04918 0.96569 0.0
O175 O 0.4832 1.00643 0.88114 0.0
H176 H 0.60903 0.94105 0.8232 0.0
H177 H 0.66457 0.9502 0.73189 0.0
H178 H 0.63162 0.02155 0.47852 0.0
H179 H 0.57623 1.01293 0.56888 0.0
H180 H 0.5108 0.1493 0.21595 0.0
H181 H 0.4614 0.14158 0.33494 0.0
H182 H 0.3938 0.11391 0.11034 0.0
H183 H 0.44265 0.12044 0.99204 0.0
Nd184 Nd 0.53055 0.55459 0.04247 0.0
Nd185 Nd 0.5571 0.55683 0.84323 0.0
C186 C 0.49651 0.56225 0.20121 0.0
C187 C 0.48908 0.595 0.22524 0.0
C188 C 0.48238 0.6232 0.14776 0.0
C189 C 0.48472 0.65776 0.16389 0.0
C190 C 0.49417 0.6644 0.25729 0.0
C191 C 0.49826 0.63582 0.33718 0.0
C192 C 0.49564 0.60116 0.32125 0.0
C193 C 0.60002 0.56084 0.03642 0.0
C194 C 0.548 0.63401 0.8713 0.0
C195 C 0.58861 0.54995 0.6785 0.0
C196 C 0.6022 0.52038 0.65391 0.0
C197 C 0.61477 0.49588 0.7295 0.0
C198 C 0.62092 0.46369 0.71121 0.0
C199 C 0.61316 0.45518 0.61856 0.0
C200 C 0.60286 0.48063 0.54072 0.0
C201 C 0.59756 0.51323 0.5582 0.0
C202 C 0.48718 0.54945 0.85753 0.0
C203 C 0.54391 0.47852 0.01526 0.0
O204 O 0.48159 0.55208 0.12496 0.0
O205 O 0.52874 0.56107 0.19986 0.0
O206 O 0.57904 0.53964 0.10857 0.0
O207 O 0.58424 0.57837 0.96893 0.0
O208 O 0.53078 0.61476 0.95687 0.0
O209 O 0.5645 0.61828 0.81601 0.0
O210 O 0.60423 0.56572 0.74492 0.0
O211 O 0.55557 0.54329 0.69356 0.0
O212 O 0.50706 0.57193 0.78486 0.0
O213 O 0.50424 0.53188 0.91985 0.0
O214 O 0.5609 0.49838 0.93011 0.0
O215 O 0.52538 0.49319 0.0685 0.0
H216 H 0.47773 0.61942 0.07273 0.0
H217 H 0.48156 0.67974 0.10184 0.0
H218 H 0.5055 0.64085 0.40988 0.0
H219 H 0.50124 0.57989 0.38149 0.0
H220 H 0.61774 0.50028 0.80456 0.0
H221 H 0.62891 0.44419 0.77171 0.0
H222 H 0.59703 0.47433 0.46844 0.0
H223 H 0.58767 0.5317 0.49933 0.0
Nd224 Nd 0.04032 0.5754 0.86285 0.0
Nd225 Nd 0.04752 0.533 0.06396 0.0
C226 C 0.03321 0.62185 0.69384 0.0
C227 C 1.0024 0.62458 0.63608 0.0
C228 C 0.98084 0.64758 0.65297 0.0
C229 C 0.94952 0.64644 0.60851 0.0
C230 C 0.93954 0.62259 0.54568 0.0
C231 C 0.96145 0.60062 0.52588 0.0
C232 C 0.99246 0.60148 0.57077 0.0
C233 C 0.03125 0.5022 0.86749 0.0
C234 C 0.97056 0.54255 1.0018 0.0
C235 C 0.05464 0.48541 0.23056 0.0
C236 C 0.08604 0.48145 0.28377 0.0
C237 C 0.0912 0.49398 0.37264 0.0
C238 C 0.12307 0.49757 0.41286 0.0
C239 C 0.15013 0.48773 0.36702 0.0
C240 C 0.14483 0.47343 0.28126 0.0
C241 C 0.11303 0.47046 0.23954 0.0
C242 C 0.05698 0.60614 0.06054 0.0
C243 C 0.11718 0.56604 0.92415 0.0
O244 O 0.03279 0.62977 0.78236 0.0
O245 O 0.04593 0.59318 0.69556 0.0
O246 O 0.01201 0.52322 0.82209 0.0
O247 O 0.05372 0.52003 0.91108 0.0
O248 O 0.98472 0.56428 0.9166 0.0
O249 O 0.98859 0.52416 0.0666 0.0
O250 O 0.05258 0.47743 0.14206 0.0
O251 O 0.04415 0.51515 0.23122 0.0
O252 O 0.0762 0.58483 0.10481 0.0
O253 O 0.03436 0.58866 0.01622 0.0
O254 O 0.10294 0.54334 1.00791 0.0
O255 O 0.09923 0.58532 0.86158 0.0
H256 H 0.98767 0.66563 0.703 0.0
H257 H 0.93287 0.66362 0.62437 0.0
H258 H 0.95418 0.58218 0.47712 0.0
H259 H 1.00825 0.58333 0.55598 0.0
H260 H 0.07107 0.50286 0.40806 0.0
H261 H 0.12698 0.50926 0.47795 0.0
H262 H 0.16555 0.4658 0.24487 0.0
H263 H 0.11007 0.46096 0.17053 0.0
C264 C 0.19731 0.08515 0.91019 0.0
C265 C 0.21064 0.0852 0.81238 0.0
C266 C 0.15216 0.07642 0.75683 0.0
C267 C 0.1393 0.06767 0.85948 0.0
N268 N 0.14977 0.06315 0.03544 0.0
N269 N 0.20057 0.08675 0.63689 0.0
C270 C 0.16189 0.07211 0.93657 0.0
C271 C 0.18795 0.08275 0.73377 0.0
N272 N 0.21788 0.09973 0.9758 0.0
N273 N 0.13021 0.08051 0.68125 0.0
H274 H 0.22628 0.0963 0.61385 0.0
H275 H 0.18567 0.07985 0.57961 0.0
H276 H 0.1041 0.07784 0.69533 0.0
H277 H 0.13802 0.09016 0.60483 0.0
H278 H 0.20876 0.10287 0.0448 0.0
H279 H 0.24296 0.11356 0.95565 0.0
H280 H 0.16552 0.06154 0.09567 0.0
H281 H 0.12392 0.05501 0.05736 0.0
C282 C 0.53647 0.15705 0.51101 0.0
C283 C 0.55228 0.19152 0.52514 0.0
C284 C 0.57365 0.16215 0.68435 0.0
C285 C 0.55481 0.12798 0.67625 0.0
N286 N 0.51803 0.09222 0.58175 0.0
N287 N 0.60017 0.22306 0.59466 0.0
C288 C 0.53652 0.12515 0.58865 0.0
C289 C 0.57506 0.19307 0.6032 0.0
N290 N 0.52359 0.15478 0.42011 0.0
N291 N 0.58927 0.16546 0.77107 0.0
H292 H 0.60567 0.24241 0.52659 0.0
H293 H 0.61898 0.2254 0.64588 0.0
H294 H 0.58853 0.14353 0.83232 0.0
H295 H 0.60027 0.19035 0.78561 0.0
H296 H 0.51515 0.13039 0.39966 0.0
H297 H 0.52545 0.17755 0.36046 0.0
H298 H 0.50079 0.08876 0.52677 0.0
H299 H 0.51834 0.06824 0.63497 0.0
C300 C 0.39135 0.54705 0.87019 0.0
C301 C 0.37904 0.51874 0.82082 0.0
C302 C 0.43744 0.50911 0.80202 0.0
C303 C 0.4498 0.53778 0.84912 0.0
N304 N 0.43794 0.57805 0.94952 0.0
N305 N 0.38915 0.46313 0.78444 0.0
C306 C 0.42653 0.55505 0.8893 0.0
C307 C 0.40167 0.49686 0.79952 0.0
N308 N 0.36938 0.56609 0.89998 0.0
N309 N 0.45981 0.4936 0.75876 0.0
H310 H 0.36339 0.4509 0.79472 0.0
H311 H 0.40457 0.44508 0.77675 0.0
H312 H 0.48614 0.50084 0.76206 0.0
H313 H 0.45232 0.47556 0.71304 0.0
H314 H 0.37719 0.59044 0.92136 0.0
H315 H 0.34302 0.55788 0.90185 0.0
H316 H 0.42226 0.58882 0.99082 0.0
H317 H 0.46343 0.58407 0.96434 0.0
C318 C 0.07031 0.44608 0.71406 0.0
C319 C 0.04769 0.41164 0.74484 0.0
C320 C 0.01473 0.43674 0.85704 0.0
C321 C 0.03724 0.47097 0.82619 0.0
N322 N 0.08243 0.51033 0.70997 0.0
N323 N 0.99339 0.37735 0.82541 0.0
C324 C 0.064 0.47616 0.75075 0.0
C325 C 0.01832 0.40804 0.80999 0.0
N326 N 0.0982 0.45021 0.6502 0.0
N327 N 0.99051 0.43124 0.93417 0.0
H328 H 0.9947 0.35601 0.79171 0.0
H329 H 0.96988 0.37442 0.86337 0.0
H330 H 0.987 0.45165 0.96944 0.0
H331 H 0.9758 0.40594 0.96881 0.0
H332 H 0.11935 0.47125 0.64376 0.0
H333 H 0.10056 0.43228 0.60505 0.0
H334 H 0.09963 0.51672 0.64711 0.0
H335 H 0.07876 0.53312 0.73375 0.0
C336 C 0.89263 0.02661 0.01484 0.0
C337 C 0.87958 0.05286 0.05375 0.0
C338 C 0.93727 0.08101 0.08327 0.0
C339 C 0.95046 0.0533 0.05294 0.0
N340 N 0.93949 0.99615 1.00443 0.0
N341 N 0.88888 0.0954 0.16062 0.0
C342 C 0.92782 0.02509 0.02235 0.0
C343 C 0.90167 0.07693 0.09953 0.0
N344 N 0.87155 1.00331 0.97013 0.0
N345 N 0.95845 0.11247 0.09066 0.0
H346 H 0.86295 0.09096 0.18118 0.0
H347 H 0.90434 0.1113 0.20135 0.0
H348 H 0.9844 0.11853 0.06937 0.0
H349 H 0.94942 0.13449 0.10454 0.0
H350 H 0.88031 0.98705 0.92841 0.0
H351 H 0.84526 1.00121 0.97108 0.0
H352 H 0.92365 0.97279 0.9934 0.0
H353 H 0.96494 0.99432 1.00787 0.0
C354 C 0.54603 0.92159 0.27286 0.0
C355 C 0.5346 0.92062 0.37343 0.0
C356 C 0.51079 0.97445 0.30706 0.0
C357 C 0.52185 0.9755 0.2059 0.0
N358 N 0.53889 0.94117 0.09365 0.0
N359 N 0.51962 0.95586 0.4853 0.0
C360 C 0.53656 0.94668 0.18887 0.0
C361 C 0.52111 0.95007 0.39007 0.0
N362 N 0.56822 0.90057 0.25763 0.0
N363 N 0.48746 0.99412 0.32413 0.0
H364 H 0.53001 0.94057 0.54571 0.0
H365 H 0.51274 0.97875 0.50076 0.0
H366 H 0.47499 1.00781 0.26593 0.0
H367 H 0.47652 0.99214 0.39585 0.0
H368 H 0.57984 0.90227 0.18707 0.0
H369 H 0.57926 0.88585 0.31713 0.0
H370 H 0.54698 0.919 0.0775 0.0
H371 H 0.52746 0.95522 0.03385 0.0
C372 C 0.69706 0.57053 0.01724 0.0
C373 C 0.70599 0.58409 0.10434 0.0
C374 C 0.64624 0.5867 0.13726 0.0
C375 C 0.63695 0.57195 0.05287 0.0
N376 N 0.65241 0.54546 0.91997 0.0
N377 N 0.68681 0.5929 0.26466 0.0
C378 C 0.66217 0.56296 0.99436 0.0
C379 C 0.67991 0.58859 0.16957 0.0
N380 N 0.72184 0.56435 0.95702 0.0
N381 N 0.62311 0.60001 0.185 0.0
H382 H 0.71048 0.59201 0.2942 0.0
H383 H 0.66802 0.59286 0.31863 0.0
H384 H 0.59854 0.60016 0.16148 0.0
H385 H 0.6294 0.61435 0.24059 0.0
H386 H 0.71812 0.55993 0.88495 0.0
H387 H 0.74662 0.56413 0.97814 0.0
H388 H 0.66837 0.53421 0.88112 0.0
H389 H 0.62718 0.53996 0.9022 0.0
C390 C 0.05066 0.70146 0.09051 0.0
C391 C 0.04042 0.69394 0.19579 0.0
C392 C 0.03952 0.62948 0.209 0.0
C393 C 0.05063 0.63666 0.10509 0.0
N394 N 0.07178 0.68028 0.95002 0.0
N395 N 0.03849 0.65293 0.35906 0.0
C396 C 0.0576 0.67296 0.0466 0.0
C397 C 0.03915 0.65865 0.25614 0.0
N398 N 0.05375 0.7358 0.03238 0.0
N399 N 0.02724 0.59469 0.26205 0.0
H400 H 0.03925 0.67368 0.39679 0.0
H401 H 0.04175 0.62859 0.40535 0.0
H402 H 0.02446 0.57276 0.22851 0.0
H403 H 0.01594 0.58822 0.33537 0.0
H404 H 0.05635 0.74231 0.95366 0.0
H405 H 0.05312 0.758 0.06301 0.0
H406 H 0.08079 0.70631 0.90581 0.0
H407 H 0.07662 0.66004 0.91594 0.0
C408 C 0.99429 0.20607 0.74438 0.0
C409 C 0.02322 0.23403 0.74226 0.0
C410 C 0.05704 0.18944 0.81004 0.0
C411 C 0.02796 0.16124 0.81577 0.0
N412 N 0.96707 0.14294 0.81091 0.0
N413 N 0.07859 0.25302 0.80055 0.0
C414 C 0.9959 0.16955 0.78979 0.0
C415 C 0.05324 0.22582 0.78572 0.0
N416 N 0.96583 0.21446 0.69972 0.0
N417 N 0.08871 0.18159 0.82164 0.0
H418 H 0.07664 0.28014 0.78242 0.0
H419 H 0.09979 0.24831 0.84046 0.0
H420 H 0.09304 0.15533 0.83337 0.0
H421 H 0.11109 0.20133 0.80856 0.0
H422 H 0.9453 0.19506 0.68788 0.0
H423 H 0.96361 0.24121 0.67073 0.0
H424 H 0.94265 0.14807 0.80269 0.0
H425 H 0.96742 0.11599 0.84429 0.0
C426 C 0.37969 0.99879 0.80304 0.0
C427 C 0.3643 0.02612 0.82762 0.0
C428 C 0.40326 0.02988 0.96257 0.0
C429 C 0.42439 1.01184 0.91686 0.0
N430 N 0.4246 0.96533 0.82464 0.0
N431 N 0.36184 0.06786 0.93461 0.0
C432 C 0.41007 0.99181 0.84714 0.0
C433 C 0.37551 0.04103 0.91045 0.0
N434 N 0.36619 0.97943 0.73602 0.0
N435 N 0.40933 0.03548 0.05668 0.0
H436 H 0.34201 0.07776 0.89752 0.0
H437 H 0.37208 0.08224 0.98686 0.0
H438 H 0.42817 0.02516 0.09871 0.0
H439 H 0.39296 0.04585 0.09705 0.0
H440 H 0.34344 0.98217 0.70208 0.0
H441 H 0.34344 0.98217 0.70208 0.0
H442 H 0.41533 0.95114 0.77068 0.0
H443 H 0.4436 0.95542 0.8665 0.0
C444 C 0.62922 0.38218 0.49583 0.0
C445 C 0.59556 0.36144 0.50855 0.0
C446 C 0.58071 0.39247 0.63494 0.0
C447 C 0.61153 0.41833 0.60453 0.0
N448 N 0.66726 0.43652 0.5188 0.0
N449 N 0.53963 0.34366 0.59436 0.0
C450 C 0.63685 0.41228 0.54053 0.0
C451 C 0.57168 0.36489 0.58175 0.0
N452 N 0.65325 0.37337 0.43903 0.0
N453 N 0.55973 0.39511 0.71207 0.0
H454 H 0.53255 0.32239 0.55877 0.0
H455 H 0.51955 0.3479 0.63647 0.0
H456 H 0.56517 0.41566 0.75081 0.0
H457 H 0.53842 0.37534 0.74382 0.0
H458 H 0.67889 0.38593 0.43103 0.0
H459 H 0.64779 0.35124 0.40592 0.0
H460 H 0.68565 0.43619 0.46434 0.0
H461 H 0.6737 0.45781 0.55482 0.0
C462 C 0.20915 0.59541 0.80959 0.0
C463 C 0.21841 0.56127 0.8227 0.0
C464 C 0.16211 0.53093 0.90177 0.0
C465 C 0.15278 0.56509 0.89324 0.0
N466 N 0.17054 0.6301 0.8609 0.0
N467 N 0.20799 0.49845 0.90961 0.0
C468 C 0.17732 0.59753 0.854 0.0
C469 C 0.19643 0.52984 0.88012 0.0
N470 N 0.23022 0.62547 0.7517 0.0
N471 N 0.13793 0.49951 0.92051 0.0
H472 H 0.23304 0.49685 0.89307 0.0
H473 H 0.19382 0.4754 0.95917 0.0
H474 H 0.11189 0.4986 0.92593 0.0
H475 H 0.14342 0.47458 0.91742 0.0
H476 H 0.22327 0.65046 0.72919 0.0
H477 H 0.25423 0.62473 0.72246 0.0
H478 H 0.18854 0.65431 0.84125 0.0
H479 H 0.1479 0.6324 0.89526 0.0
C480 C 0.02337 0.88409 0.16437 0.0
C481 C 0.05504 0.87354 0.17714 0.0
C482 C 0.08466 0.93648 0.10812 0.0
C483 C 0.05293 0.94748 0.11076 0.0
N484 N 0.9918 0.93034 0.15282 0.0
N485 N 0.11618 0.88904 0.16628 0.0
C486 C 0.02238 0.92107 0.141 0.0
C487 C 0.08586 0.89953 0.14917 0.0
N488 N 0.99375 0.85857 0.1826 0.0
N489 N 0.11328 0.96083 0.06328 0.0
H490 H 0.11768 0.8619 0.19156 0.0
H491 H 0.13945 0.90719 0.15987 0.0
H492 H 0.11349 0.98804 0.03228 0.0
H493 H 0.13623 0.95351 0.04972 0.0
H494 H 0.96984 0.86535 0.17622 0.0
H495 H 0.99343 0.83084 0.19921 0.0
H496 H 0.98871 0.95689 0.1457 0.0
H497 H 0.98871 0.95689 0.1457 0.0
C498 C 0.69941 0.08793 1.0075 0.0
C499 C 0.70438 0.05485 0.06959 0.0
C500 C 0.64361 0.0297 0.07935 0.0
C501 C 0.63857 0.06114 0.00927 0.0
N502 N 0.66289 0.11769 0.89144 0.0
N503 N 0.6828 0.99103 0.13899 0.0
C504 C 0.66682 0.08973 0.9688 0.0
C505 C 0.67696 0.0246 0.09618 0.0
N506 N 0.72539 0.11768 0.98784 0.0
N507 N 0.61654 1.00556 0.13433 0.0
H508 H 0.70725 0.98622 0.15106 0.0
H509 H 0.6638 0.96758 0.15231 0.0
H510 H 0.59181 1.00996 0.13024 0.0
H511 H 0.61917 0.98381 0.19272 0.0
H512 H 0.72223 0.1435 0.95215 0.0
H513 H 0.74969 0.11676 0.01275 0.0
H514 H 0.68323 0.13745 0.85265 0.0
H515 H 0.63955 0.11943 0.86057 0.0
C516 C 0.55062 0.74714 0.30373 0.0
C517 C 0.52683 0.75919 0.35866 0.0
C518 C 0.47962 0.71651 0.31446 0.0
C519 C 0.50378 0.70165 0.26988 0.0
N520 N 0.56007 0.70806 0.19405 0.0
N521 N 0.46916 0.76424 0.39238 0.0
C522 C 0.53863 0.71909 0.25415 0.0
C523 C 0.49132 0.74705 0.35483 0.0
N524 N 0.58463 0.76109 0.30477 0.0
N525 N 0.44594 0.70003 0.32304 0.0
H526 H 0.47738 0.78656 0.42316 0.0
H527 H 0.44298 0.75846 0.38603 0.0
H528 H 0.43675 0.67844 0.29017 0.0
H529 H 0.42727 0.70684 0.36466 0.0
H530 H 0.6038 0.75074 0.27649 0.0
H531 H 0.59375 0.78281 0.33723 0.0
H532 H 0.58525 0.72124 0.17339 0.0
H533 H 0.55186 0.68713 0.15793 0.0
C534 C 0.87849 0.51446 0.11569 0.0
C535 C 0.86907 0.54863 0.09664 0.0
C536 C 0.92535 0.57806 0.0164 0.0
C537 C 0.9349 0.54378 0.03098 0.0
N538 N 0.91736 0.47862 0.07246 0.0
N539 N 0.87916 0.61028 1.00034 0.0
C540 C 0.91042 0.51163 0.07371 0.0
C541 C 0.89093 0.57931 0.03547 0.0
N542 N 0.85748 0.48513 0.17695 0.0
N543 N 0.9494 0.6096 0.99455 0.0
H544 H 0.85398 0.61192 0.01502 0.0
H545 H 0.89331 0.63267 0.94834 0.0
H546 H 0.97549 0.61056 0.99195 0.0
H547 H 0.94366 0.63482 0.99248 0.0
H548 H 0.86455 0.46039 0.20362 0.0
H549 H 0.83341 0.48633 0.20458 0.0
H550 H 0.89942 0.45445 0.09491 0.0
H551 H 0.94008 0.47578 0.03994 0.0
C552 C 0.04432 0.2838 0.33054 0.0
C553 C 0.0674 0.29486 0.40061 0.0
C554 C 0.10622 0.25858 0.35403 0.0
C555 C 0.08126 0.24407 0.29325 0.0
N556 N 0.03133 0.24976 0.20082 0.0
N557 N 0.124 0.30261 0.4558 0.0
C558 C 0.05197 0.25929 0.27326 0.0
C559 C 0.0999 0.28586 0.40292 0.0
N560 N 0.01402 0.29485 0.32512 0.0
N561 N 0.13505 0.24485 0.36909 0.0
H562 H 0.11921 0.3224 0.49187 0.0
H563 H 0.14911 0.29937 0.45701 0.0
H564 H 0.1408 0.22574 0.33201 0.0
H565 H 0.15269 0.25125 0.42063 0.0
H566 H 0.99393 0.28493 0.28515 0.0
H567 H 1.00893 0.31386 0.36375 0.0
H568 H 1.01089 0.2616 0.17677 0.0
H569 H 0.03622 0.23158 0.15905 0.0
C570 C 0.35486 0.06623 0.42543 0.0
C571 C 0.34848 0.09131 0.48091 0.0
C572 C 0.38424 0.14074 0.35443 0.0
C573 C 0.39544 0.11476 0.31043 0.0
N574 N 0.39464 0.05194 0.31317 0.0
N575 N 0.35742 0.15249 0.50159 0.0
C576 C 0.38123 0.07725 0.34718 0.0
C577 C 0.36282 0.12875 0.4455 0.0
N578 N 0.33606 0.03161 0.44944 0.0
N579 N 0.39406 0.17673 0.3089 0.0
H580 H 0.34109 0.1447 0.56689 0.0
H581 H 0.37041 0.17939 0.4865 0.0
H582 H 0.4097 0.18616 0.24216 0.0
H583 H 0.3844 0.19687 0.33203 0.0
H584 H 0.31661 0.02288 0.50703 0.0
H585 H 0.3374 1.01289 0.40606 0.0
H586 H 0.3877 0.02425 0.3454 0.0
H587 H 0.41506 0.05855 0.2592 0.0
C588 C 0.58091 0.39292 0.10941 0.0
C589 C 0.55273 0.36965 0.17031 0.0
C590 C 0.51709 0.4128 0.09696 0.0
C591 C 0.5468 0.43957 0.05606 0.0
N592 N 0.60843 0.45497 0.03542 0.0
N593 N 0.49318 0.35699 0.22142 0.0
C594 C 0.5791 0.42939 0.06311 0.0
C595 C 0.52039 0.37919 0.16236 0.0
N596 N 0.61007 0.38047 0.10065 0.0
N597 N 0.48573 0.41928 0.07209 0.0
H598 H 0.49467 0.33171 0.26629 0.0
H599 H 0.46984 0.36433 0.22915 0.0
H600 H 0.48256 0.4429 0.02163 0.0
H601 H 0.4633 0.39981 0.09277 0.0
H602 H 0.63079 0.39488 0.05088 0.0
H603 H 0.6118 0.35401 0.13575 0.0
H604 H 0.63258 0.44956 0.04832 0.0
H605 H 0.60879 0.4824 0.01017 0.0
C606 C 0.21772 0.47978 0.55476 0.0
C607 C 0.23798 0.51534 0.52554 0.0
C608 C 0.20665 0.52844 0.37343 0.0
C609 C 0.18422 0.49426 0.40814 0.0
N610 N 0.17296 0.43389 0.51386 0.0
N611 N 0.25866 0.56951 0.39699 0.0
C612 C 0.19154 0.46861 0.49266 0.0
C613 C 0.23491 0.53819 0.4305 0.0
N614 N 0.22227 0.45778 0.64528 0.0
N615 N 0.19968 0.55221 0.28937 0.0
H616 H 0.27936 0.57682 0.43872 0.0
H617 H 0.2596 0.58662 0.32551 0.0
H618 H 0.17985 0.54534 0.24429 0.0
H619 H 0.21262 0.57902 0.26572 0.0
H620 H 0.20593 0.43327 0.67806 0.0
H621 H 0.2423 0.4648 0.68962 0.0
H622 H 0.17828 0.41293 0.57001 0.0
H623 H 0.15349 0.42534 0.46952 0.0
C624 C 0.99821 0.82005 0.54701 0.0
C625 C 0.03194 0.81567 0.53205 0.0
C626 C 0.05197 0.85936 0.63538 0.0
C627 C 0.01976 0.8695 0.63038 0.0
N628 N 0.96075 0.85689 0.59388 0.0
N629 N 0.08994 0.82545 0.57482 0.0
C630 C 0.9922 0.84847 0.59175 0.0
C631 C 0.05828 0.8328 0.58347 0.0
N632 N 0.97239 0.79779 0.51378 0.0
N633 N 0.07661 0.87585 0.6874 0.0
H634 H 0.09418 0.80521 0.53967 0.0
H635 H 0.11175 0.83923 0.60026 0.0
H636 H 0.0729 0.89591 0.72374 0.0
H637 H 0.09994 0.8684 0.70005 0.0
H638 H 0.9467 0.79768 0.52538 0.0
H639 H 0.97703 0.77717 0.48087 0.0
H640 H 0.94015 0.84528 0.55864 0.0
H641 H 0.95542 0.87655 0.62952 0.0
C642 C 0.73712 0.03889 0.46535 0.0
C643 C 0.74236 0.01621 0.40076 0.0
C644 C 0.69358 0.96975 0.48673 0.0
C645 C 0.68627 0.99392 0.54442 0.0
N646 N 0.70555 0.04648 0.61077 0.0
N647 N 0.73364 0.95623 0.37205 0.0
C648 C 0.7098 0.02679 0.54158 0.0
C649 C 0.7235 0.98007 0.42034 0.0
N650 N 0.75702 0.07286 0.44836 0.0
N651 N 0.67082 0.93808 0.49047 0.0
H652 H 0.75541 0.96343 0.3229 0.0
H653 H 0.72264 0.92873 0.38788 0.0
H654 H 0.64902 0.92934 0.53972 0.0
H655 H 0.67245 0.92137 0.44124 0.0
H656 H 0.75252 0.09276 0.48395 0.0
H657 H 0.7779 0.08122 0.39536 0.0
H658 H 0.72298 0.06939 0.61786 0.0
H659 H 0.6856 0.03816 0.6668 0.0
C660 C 0.58054 0.7342 0.74277 0.0
C661 C 0.54971 0.74553 0.71643 0.0
C662 C 0.51723 0.68586 0.80841 0.0
C663 C 0.54803 0.67377 0.83236 0.0
N664 N 0.60848 0.68989 0.84697 0.0
N665 N 0.4896 0.73677 0.7518 0.0
C666 C 0.57955 0.69921 0.80779 0.0
C667 C 0.51843 0.72296 0.76066 0.0
N668 N 0.6107 0.75612 0.70069 0.0
N669 N 0.48706 0.66139 0.82156 0.0
H670 H 0.49022 0.76372 0.71542 0.0
H671 H 0.46622 0.72283 0.78884 0.0
H672 H 0.48557 0.63379 0.84774 0.0
H673 H 0.46424 0.6679 0.79641 0.0
H674 H 0.63394 0.74797 0.7059 0.0
H675 H 0.61203 0.78229 0.65685 0.0
H676 H 0.6318 0.70803 0.83913 0.0
H677 H 0.60834 0.66478 0.89559 0.0
C678 C 0.85328 0.57682 0.48427 0.0
C679 C 0.85086 0.59881 0.38723 0.0
C680 C 0.90153 0.64273 0.40884 0.0
C681 C 0.90576 0.61907 0.50177 0.0
N682 N 0.88133 0.56996 0.6425 0.0
N683 N 0.8652 0.65694 0.27049 0.0
C684 C 0.87989 0.58831 0.5447 0.0
C685 C 0.87236 0.63352 0.35485 0.0
N686 N 0.83146 0.54399 0.51519 0.0
N687 N 0.92644 0.67259 0.36938 0.0
H688 H 0.84393 0.65029 0.23017 0.0
H689 H 0.87828 0.6837 0.24591 0.0
H690 H 0.94765 0.68052 0.40842 0.0
H691 H 0.92699 0.68864 0.29651 0.0
H692 H 0.83417 0.5245 0.57949 0.0
H693 H 0.81099 0.53582 0.47367 0.0
H694 H 0.86208 0.54889 0.68135 0.0
H695 H 0.9007 0.578 0.68777 0.0
loop_
_geom_bond_atom_site_label_1
_geom_bond_atom_site_label_2
_geom_bond_distance
_geom_bond_site_symmetry_2
_ccdc_geom_bond_type
H0 C7 0.929 . S
H1 C10 0.930 . S
H2 C12 0.929 . S
H3 C4 0.969 . S
C4 H3 0.969 . S
C4 O5 1.550 1_556 S
C4 H6 0.973 . S
O5 C4 1.550 1_554 S
O5 C11 1.412 . S
H6 C4 0.973 . S
C7 H0 0.929 . S
C7 C8 1.400 . S
C7 C9 1.364 1_554 S
C8 C7 1.400 . S
C8 C12 1.377 . S
C9 C7 1.364 1_556 S
C9 C10 1.374 . S
C10 H1 0.930 . S
C10 C9 1.374 . S
C10 C11 1.383 1_556 S
C11 O5 1.412 . S
C11 C10 1.383 1_554 S
C11 C12 1.394 . S
C12 H2 0.929 . S
C12 C8 1.377 . S
C12 C11 1.394 . S
H13 C20 0.929 . S
H14 C23 0.930 1_556 S
H15 C25 0.929 . S
H16 C17 0.969 1_455 S
C17 H16 0.969 1_655 S
C17 O18 1.550 . S
C17 H19 0.973 1_554 S
O18 C17 1.550 . S
O18 C24 1.412 . S
H19 C17 0.973 1_556 S
C20 H13 0.929 . S
C20 C21 1.400 . S
C20 C22 1.364 . S
C21 C20 1.400 . S
C21 C25 1.377 . S
C22 C20 1.364 . S
C22 C23 1.374 . S
C23 H14 0.930 1_554 S
C23 C22 1.374 . S
C23 C24 1.383 . S
C24 O18 1.412 . S
C24 C23 1.383 . S
C24 C25 1.394 . S
C25 H15 0.929 . S
C25 C21 1.377 . S
C25 C24 1.394 . S
H26 C33 0.929 . S
H27 C36 0.930 . S
H28 C38 0.929 . S
H29 C30 0.969 1_545 S
C30 H29 0.969 1_565 S
C30 O31 1.550 1_556 S
C30 H32 0.973 . S
O31 C30 1.550 1_554 S
O31 C37 1.412 . S
H32 C30 0.973 . S
C33 H26 0.929 . S
C33 C34 1.400 . S
C33 C35 1.364 . S
C34 C33 1.400 . S
C34 C38 1.377 . S
C35 C33 1.364 . S
C35 C36 1.374 1_554 S
C36 H27 0.930 . S
C36 C35 1.374 1_556 S
C36 C37 1.383 1_556 S
C37 O31 1.412 . S
C37 C36 1.383 1_554 S
C37 C38 1.394 . S
C38 H28 0.929 . S
C38 C34 1.377 . S
C38 C37 1.394 . S
H39 C46 0.929 . S
H40 C49 0.930 . S
H41 C51 0.929 . S
H42 C43 0.969 . S
C43 H42 0.969 . S
C43 O44 1.550 . S
C43 H45 0.973 . S
O44 C43 1.550 . S
O44 C50 1.412 . S
H45 C43 0.973 . S
C46 H39 0.929 . S
C46 C47 1.400 . S
C46 C48 1.364 . S
C47 C46 1.400 . S
C47 C51 1.377 . S
C48 C46 1.364 . S
C48 C49 1.374 . S
C49 H40 0.930 . S
C49 C48 1.374 . S
C49 C50 1.383 . S
C50 O44 1.412 . S
C50 C49 1.383 . S
C50 C51 1.394 . S
C51 H41 0.929 . S
C51 C47 1.377 . S
C51 C50 1.394 . S
H52 C59 0.929 . S
H53 C62 0.930 1_554 S
H54 C64 0.929 . S
H55 C56 0.969 . S
C56 H55 0.969 . S
C56 O57 1.550 . S
C56 H58 0.973 1_556 S
O57 C56 1.550 . S
O57 C63 1.412 . S
H58 C56 0.973 1_554 S
C59 H52 0.929 . S
C59 C60 1.400 . S
C59 C61 1.364 . S
C60 C59 1.400 . S
C60 C64 1.377 . S
C61 C59 1.364 . S
C61 C62 1.374 . S
C62 H53 0.930 1_556 S
C62 C61 1.374 . S
C62 C63 1.383 . S
C63 O57 1.412 . S
C63 C62 1.383 . S
C63 C64 1.394 . S
C64 H54 0.929 . S
C64 C60 1.377 . S
C64 C63 1.394 . S
H65 C72 0.929 . S
H66 C75 0.930 . S
H67 C77 0.929 . S
H68 C69 0.969 . S
C69 H68 0.969 . S
C69 O70 1.550 . S
C69 H71 0.973 . S
O70 C69 1.550 . S
O70 C76 1.412 . S
H71 C69 0.973 . S
C72 H65 0.929 . S
C72 C73 1.400 . S
C72 C74 1.364 . S
C73 C72 1.400 . S
C73 C77 1.377 . S
C74 C72 1.364 . S
C74 C75 1.374 . S
C75 H66 0.930 . S
C75 C74 1.374 . S
C75 C76 1.383 . S
C76 O70 1.412 . S
C76 C75 1.383 . S
C76 C77 1.394 . S
C77 H67 0.929 . S
C77 C73 1.377 . S
C77 C76 1.394 . S
H78 C85 0.929 . S
H79 C88 0.930 . S
H80 C90 0.929 . S
H81 C82 0.969 . S
C82 H81 0.969 . S
C82 O83 1.550 . S
C82 H84 0.973 . S
O83 C82 1.550 . S
O83 C89 1.412 . S
H84 C82 0.973 . S
C85 H78 0.929 . S
C85 C86 1.400 . S
C85 C87 1.364 . S
C86 C85 1.400 . S
C86 C90 1.377 . S
C87 C85 1.364 . S
C87 C88 1.374 . S
C88 H79 0.930 . S
C88 C87 1.374 . S
C88 C89 1.383 . S
C89 O83 1.412 . S
C89 C88 1.383 . S
C89 C90 1.394 . S
C90 H80 0.929 . S
C90 C86 1.377 . S
C90 C89 1.394 . S
H91 C98 0.929 . S
H92 C101 0.930 . S
H93 C103 0.929 . S
H94 C95 0.969 . S
C95 H94 0.969 . S
C95 O96 1.550 . S
C95 H97 0.973 . S
O96 C95 1.550 . S
O96 C102 1.412 . S
H97 C95 0.973 . S
C98 H91 0.929 . S
C98 C99 1.400 . S
C98 C100 1.364 . S
C99 C98 1.400 . S
C99 C103 1.377 . S
C100 C98 1.364 . S
C100 C101 1.374 . S
C101 H92 0.930 . S
C101 C100 1.374 . S
C101 C102 1.383 . S
C102 O96 1.412 . S
C102 C101 1.383 . S
C102 C103 1.394 . S
C103 H93 0.929 . S
C103 C99 1.377 . S
C103 C102 1.394 . S
Nd104 C106 2.836 1_545 S
Nd104 O124 2.500 1_445 S
Nd104 O125 2.492 . S
Nd104 O126 2.487 . S
Nd104 O127 2.682 . S
Nd104 O128 2.410 1_545 S
Nd104 O133 2.414 1_455 S
Nd104 O135 2.424 . S
Nd105 C115 2.836 . S
Nd105 O127 2.414 1_554 S
Nd105 O129 2.424 1_545 S
Nd105 O130 2.500 . S
Nd105 O131 2.492 . S
Nd105 O132 2.487 1_455 S
Nd105 O133 2.682 1_454 S
Nd105 O134 2.410 1_554 S
C106 Nd104 2.836 1_565 S
C106 C107 1.498 . S
C106 O124 1.258 1_455 S
C106 O125 1.239 1_565 S
C107 C106 1.498 . S
C107 C108 1.366 1_455 S
C107 C112 1.407 . S
C108 C107 1.366 1_655 S
C108 C109 1.392 . S
C108 H136 0.930 . S
C109 C108 1.392 . S
C109 C110 1.421 . S
C109 H137 0.929 . S
C110 C109 1.421 . S
C110 C111 1.328 1_655 S
C111 C110 1.328 1_455 S
C111 C112 1.384 . S
C111 H138 0.930 . S
C112 C107 1.407 . S
C112 C111 1.384 . S
C112 H139 0.929 . S
C113 O126 1.241 . S
C113 O127 1.273 . S
C114 O128 1.251 . S
C114 O129 1.268 1_556 S
C115 Nd105 2.836 . S
C115 C116 1.498 . S
C115 O130 1.258 . S
C115 O131 1.239 . S
C116 C115 1.498 . S
C116 C117 1.366 . S
C116 C121 1.407 . S
C117 C116 1.366 . S
C117 C118 1.392 . S
C117 H140 0.930 . S
C118 C117 1.392 . S
C118 C119 1.398 . S
C118 H141 0.929 . S
C119 C118 1.398 . S
C119 C120 1.352 . S
C120 C119 1.352 . S
C120 C121 1.384 . S
C120 H142 0.930 . S
C121 C116 1.407 . S
C121 C120 1.384 . S
C121 H143 0.929 . S
C122 O132 1.241 1_556 S
C122 O133 1.273 . S
C123 O134 1.251 . S
C123 O135 1.268 . S
O124 Nd104 2.500 1_665 S
O124 C106 1.258 1_655 S
O125 Nd104 2.492 . S
O125 C106 1.239 1_545 S
O126 Nd104 2.487 . S
O126 C113 1.241 . S
O127 Nd104 2.682 . S
O127 Nd105 2.414 1_556 S
O127 C113 1.273 . S
O128 Nd104 2.410 1_565 S
O128 C114 1.251 . S
O129 Nd105 2.424 1_565 S
O129 C114 1.268 1_554 S
O130 Nd105 2.500 . S
O130 C115 1.258 . S
O131 Nd105 2.492 . S
O131 C115 1.239 . S
O132 Nd105 2.487 1_655 S
O132 C122 1.241 1_554 S
O133 Nd104 2.414 1_655 S
O133 Nd105 2.682 1_656 S
O133 C122 1.273 . S
O134 Nd105 2.410 1_556 S
O134 C123 1.251 . S
O135 Nd104 2.424 . S
O135 C123 1.268 . S
H136 C108 0.930 . S
H137 C109 0.929 . S
H138 C111 0.930 . S
H139 C112 0.929 . S
H140 C117 0.930 . S
H141 C118 0.929 . S
H142 C120 0.930 . S
H143 C121 0.929 . S
Nd144 C146 2.836 1_545 S
Nd144 O164 2.500 1_545 S
Nd144 O165 2.492 . S
Nd144 O166 2.487 . S
Nd144 O167 2.682 . S
Nd144 O168 2.410 . S
Nd144 O173 2.409 1_545 S
Nd144 O175 2.424 . S
Nd145 C155 2.836 . S
Nd145 O167 2.414 1_554 S
Nd145 O169 2.424 . S
Nd145 O170 2.500 . S
Nd145 O171 2.492 . S
Nd145 O172 2.487 1_545 S
Nd145 O173 2.649 1_544 S
Nd145 O174 2.410 . S
C146 Nd144 2.836 1_565 S
C146 C147 1.498 . S
C146 O164 1.258 . S
C146 O165 1.239 1_565 S
C147 C146 1.498 . S
C147 C148 1.366 . S
C147 C152 1.402 1_565 S
C148 C147 1.366 . S
C148 C149 1.392 . S
C148 H176 0.930 . S
C149 C148 1.392 . S
C149 C150 1.398 . S
C149 H177 0.929 . S
C150 C149 1.398 . S
C150 C151 1.352 . S
C151 C150 1.352 . S
C151 C152 1.366 1_565 S
C151 H178 0.930 . S
C152 C147 1.402 1_545 S
C152 C151 1.366 1_545 S
C152 H179 0.953 . S
C153 O166 1.241 . S
C153 O167 1.273 . S
C154 O168 1.251 . S
C154 O169 1.268 1_556 S
C155 Nd145 2.836 . S
C155 C156 1.498 . S
C155 O170 1.258 . S
C155 O171 1.239 . S
C156 C155 1.498 . S
C156 C157 1.366 . S
C156 C161 1.407 . S
C157 C156 1.366 . S
C157 C158 1.392 . S
C157 H180 0.930 . S
C158 C157 1.392 . S
C158 C159 1.398 . S
C158 H181 0.929 . S
C159 C158 1.398 . S
C159 C160 1.352 . S
C160 C159 1.352 . S
C160 C161 1.384 . S
C160 H182 0.930 . S
C161 C156 1.407 . S
C161 C160 1.384 . S
C161 H183 0.929 . S
C162 O172 1.241 . S
C162 O173 1.286 1_554 S
C163 O174 1.251 1_556 S
C163 O175 1.268 . S
O164 Nd144 2.500 1_565 S
O164 C146 1.258 . S
O165 Nd144 2.492 . S
O165 C146 1.239 1_545 S
O166 Nd144 2.487 . S
O166 C153 1.241 . S
O167 Nd144 2.682 . S
O167 Nd145 2.414 1_556 S
O167 C153 1.273 . S
O168 Nd144 2.410 . S
O168 C154 1.251 . S
O169 Nd145 2.424 . S
O169 C154 1.268 1_554 S
O170 Nd145 2.500 . S
O170 C155 1.258 . S
O171 Nd145 2.492 . S
O171 C155 1.239 . S
O172 Nd145 2.487 1_565 S
O172 C162 1.241 . S
O173 Nd144 2.409 1_565 S
O173 Nd145 2.649 1_566 S
O173 C162 1.286 1_556 S
O174 Nd145 2.410 . S
O174 C163 1.251 1_554 S
O175 Nd144 2.424 . S
O175 C163 1.268 . S
H176 C148 0.930 . S
H177 C149 0.929 . S
H178 C151 0.930 . S
H179 C152 0.953 . S
H180 C157 0.930 . S
H181 C158 0.929 . S
H182 C160 0.930 . S
H183 C161 0.929 . S
Nd184 C186 2.836 . S
Nd184 O204 2.500 . S
Nd184 O205 2.492 . S
Nd184 O206 2.487 . S
Nd184 O207 2.682 1_554 S
Nd184 O208 2.410 1_554 S
Nd184 O213 2.414 1_554 S
Nd184 O215 2.424 . S
Nd185 C195 2.836 . S
Nd185 O207 2.414 . S
Nd185 O209 2.424 . S
Nd185 O210 2.500 . S
Nd185 O211 2.492 . S
Nd185 O212 2.487 . S
Nd185 O213 2.682 . S
Nd185 O214 2.410 . S
C186 Nd184 2.836 . S
C186 C187 1.498 . S
C186 O204 1.258 . S
C186 O205 1.239 . S
C187 C186 1.498 . S
C187 C188 1.366 . S
C187 C192 1.407 . S
C188 C187 1.366 . S
C188 C189 1.392 . S
C188 H216 0.930 . S
C189 C188 1.392 . S
C189 C190 1.398 . S
C189 H217 0.929 . S
C190 C189 1.398 . S
C190 C191 1.352 . S
C191 C190 1.352 . S
C191 C192 1.384 . S
C191 H218 0.930 . S
C192 C187 1.407 . S
C192 C191 1.384 . S
C192 H219 0.929 . S
C193 O206 1.241 1_556 S
C193 O207 1.273 . S
C194 O208 1.251 . S
C194 O209 1.268 . S
C195 Nd185 2.836 . S
C195 C196 1.498 . S
C195 O210 1.258 . S
C195 O211 1.239 . S
C196 C195 1.498 . S
C196 C197 1.366 . S
C196 C201 1.407 . S
C197 C196 1.366 . S
C197 C198 1.392 . S
C197 H220 0.930 . S
C198 C197 1.392 . S
C198 C199 1.398 . S
C198 H221 0.929 . S
C199 C198 1.398 . S
C199 C200 1.352 . S
C200 C199 1.352 . S
C200 C201 1.384 . S
C200 H222 0.930 . S
C201 C196 1.407 . S
C201 C200 1.384 . S
C201 H223 0.929 . S
C202 O212 1.241 . S
C202 O213 1.273 . S
C203 O214 1.251 1_554 S
C203 O215 1.268 . S
O204 Nd184 2.500 . S
O204 C186 1.258 . S
O205 Nd184 2.492 . S
O205 C186 1.239 . S
O206 Nd184 2.487 . S
O206 C193 1.241 1_554 S
O207 Nd184 2.682 1_556 S
O207 Nd185 2.414 . S
O207 C193 1.273 . S
O208 Nd184 2.410 1_556 S
O208 C194 1.251 . S
O209 Nd185 2.424 . S
O209 C194 1.268 . S
O210 Nd185 2.500 . S
O210 C195 1.258 . S
O211 Nd185 2.492 . S
O211 C195 1.239 . S
O212 Nd185 2.487 . S
O212 C202 1.241 . S
O213 Nd184 2.414 1_556 S
O213 Nd185 2.682 . S
O213 C202 1.273 . S
O214 Nd185 2.410 . S
O214 C203 1.251 1_556 S
O215 Nd184 2.424 . S
O215 C203 1.268 . S
H216 C188 0.930 . S
H217 C189 0.929 . S
H218 C191 0.930 . S
H219 C192 0.929 . S
H220 C197 0.930 . S
H221 C198 0.929 . S
H222 C200 0.930 . S
H223 C201 0.929 . S
Nd224 C226 2.836 1_455 S
Nd224 O244 2.500 1_455 S
Nd224 O245 2.492 1_455 S
Nd224 O246 2.487 . S
Nd224 O247 2.682 . S
Nd224 O248 2.410 1_455 S
Nd224 O253 2.414 . S
Nd224 O255 2.424 . S
Nd225 C235 2.836 . S
Nd225 O247 2.414 1_554 S
Nd225 O249 2.424 1_455 S
Nd225 O250 2.500 . S
Nd225 O251 2.492 . S
Nd225 O252 2.487 . S
Nd225 O253 2.682 1_554 S
Nd225 O254 2.410 . S
C226 Nd224 2.836 1_655 S
C226 C227 1.498 . S
C226 O244 1.258 . S
C226 O245 1.239 . S
C227 C226 1.498 . S
C227 C228 1.366 . S
C227 C232 1.407 . S
C228 C227 1.366 . S
C228 C229 1.392 . S
C228 H256 0.930 . S
C229 C228 1.392 . S
C229 C230 1.398 . S
C229 H257 0.929 . S
C230 C229 1.398 . S
C230 C231 1.352 . S
C231 C230 1.352 . S
C231 C232 1.384 . S
C231 H258 0.930 . S
C232 C227 1.407 . S
C232 C231 1.384 . S
C232 H259 0.929 . S
C233 O246 1.241 . S
C233 O247 1.273 . S
C234 O248 1.251 . S
C234 O249 1.268 1_556 S
C235 Nd225 2.836 . S
C235 C236 1.498 . S
C235 O250 1.258 . S
C235 O251 1.239 . S
C236 C235 1.498 . S
C236 C237 1.366 . S
C236 C241 1.407 . S
C237 C236 1.366 . S
C237 C238 1.392 . S
C237 H260 0.930 . S
C238 C237 1.392 . S
C238 C239 1.398 . S
C238 H261 0.929 . S
C239 C238 1.398 . S
C239 C240 1.352 . S
C240 C239 1.352 . S
C240 C241 1.384 . S
C240 H262 0.930 . S
C241 C236 1.407 . S
C241 C240 1.384 . S
C241 H263 0.929 . S
C242 O252 1.241 1_556 S
C242 O253 1.273 . S
C243 O254 1.251 1_556 S
C243 O255 1.268 . S
O244 Nd224 2.500 1_655 S
O244 C226 1.258 . S
O245 Nd224 2.492 1_655 S
O245 C226 1.239 . S
O246 Nd224 2.487 . S
O246 C233 1.241 . S
O247 Nd224 2.682 . S
O247 Nd225 2.414 1_556 S
O247 C233 1.273 . S
O248 Nd224 2.410 1_655 S
O248 C234 1.251 . S
O249 Nd225 2.424 1_655 S
O249 C234 1.268 1_554 S
O250 Nd225 2.500 . S
O250 C235 1.258 . S
O251 Nd225 2.492 . S
O251 C235 1.239 . S
O252 Nd225 2.487 . S
O252 C242 1.241 1_554 S
O253 Nd224 2.414 . S
O253 Nd225 2.682 1_556 S
O253 C242 1.273 . S
O254 Nd225 2.410 . S
O254 C243 1.251 1_554 S
O255 Nd224 2.424 . S
O255 C243 1.268 . S
H256 C228 0.930 . S
H257 C229 0.929 . S
H258 C231 0.930 . S
H259 C232 0.929 . S
H260 C237 0.930 . S
H261 C238 0.929 . S
H262 C240 0.930 . S
H263 C241 0.929 . S
C264 C265 1.363 . S
C264 C270 1.379 . S
C264 N272 1.356 1_556 S
C265 C264 1.363 . S
C265 C271 1.363 . S
C266 C267 1.363 . S
C266 C271 1.379 . S
C266 N273 1.356 . S
C267 C266 1.363 . S
C267 C270 1.363 . S
N268 C270 1.356 1_554 S
N268 H280 0.984 . S
N268 H281 0.985 . S
N269 C271 1.356 . S
N269 H274 0.984 . S
N269 H275 0.985 . S
C270 C264 1.379 . S
C270 C267 1.363 . S
C270 N268 1.356 1_556 S
C271 C265 1.363 . S
C271 C266 1.379 . S
C271 N269 1.356 . S
N272 C264 1.356 1_554 S
N272 H278 0.984 . S
N272 H279 0.984 . S
N273 C266 1.356 . S
N273 H276 0.984 . S
N273 H277 0.985 . S
H274 N269 0.984 . S
H275 N269 0.985 . S
H276 N273 0.984 . S
H277 N273 0.985 . S
H278 N272 0.984 . S
H279 N272 0.984 . S
H280 N268 0.984 . S
H281 N268 0.985 . S
C282 C283 1.363 . S
C282 C288 1.379 . S
C282 N290 1.356 . S
C283 C282 1.363 . S
C283 C289 1.363 . S
C284 C285 1.363 . S
C284 C289 1.379 . S
C284 N291 1.356 . S
C285 C284 1.363 . S
C285 C288 1.363 . S
N286 C288 1.356 . S
N286 H298 0.984 . S
N286 H299 0.985 . S
N287 C289 1.356 . S
N287 H292 0.984 . S
N287 H293 0.985 . S
C288 C282 1.379 . S
C288 C285 1.363 . S
C288 N286 1.356 . S
C289 C283 1.363 . S
C289 C284 1.379 . S
C289 N287 1.356 . S
N290 C282 1.356 . S
N290 H296 0.984 . S
N290 H297 0.984 . S
N291 C284 1.356 . S
N291 H294 0.984 . S
N291 H295 0.985 . S
H292 N287 0.984 . S
H293 N287 0.985 . S
H294 N291 0.984 . S
H295 N291 0.985 . S
H296 N290 0.984 . S
H297 N290 0.984 . S
H298 N286 0.984 . S
H299 N286 0.985 . S
C300 C301 1.363 . S
C300 C306 1.379 . S
C300 N308 1.356 . S
C301 C300 1.363 . S
C301 C307 1.363 1_556 S
C302 C303 1.366 . S
C302 C307 1.378 1_556 S
C302 N309 1.354 1_556 S
C303 C302 1.366 . S
C303 C306 1.363 . S
N304 C306 1.356 . S
N304 H316 0.984 . S
N304 H317 0.985 . S
N305 C307 1.356 . S
N305 H310 0.984 . S
N305 H311 0.985 . S
C306 C300 1.379 . S
C306 C303 1.363 . S
C306 N304 1.356 . S
C307 C301 1.363 1_554 S
C307 C302 1.378 1_554 S
C307 N305 1.356 . S
N308 C300 1.356 . S
N308 H314 0.984 . S
N308 H315 0.984 . S
N309 C302 1.354 1_554 S
N309 H312 0.984 . S
N309 H313 0.985 . S
H310 N305 0.984 . S
H311 N305 0.985 . S
H312 N309 0.984 . S
H313 N309 0.985 . S
H314 N308 0.984 . S
H315 N308 0.984 . S
H316 N304 0.984 . S
H317 N304 0.985 . S
C318 C319 1.363 . S
C318 C324 1.379 . S
C318 N326 1.356 . S
C319 C318 1.363 . S
C319 C325 1.363 . S
C320 C321 1.363 . S
C320 C325 1.379 . S
C320 N327 1.356 . S
C321 C320 1.363 . S
C321 C324 1.363 . S
N322 C324 1.356 . S
N322 H334 0.984 . S
N322 H335 0.985 . S
N323 C325 1.356 . S
N323 H328 0.984 . S
N323 H329 0.985 . S
C324 C318 1.379 . S
C324 C321 1.363 . S
C324 N322 1.356 . S
C325 C319 1.363 . S
C325 C320 1.379 . S
C325 N323 1.356 . S
N326 C318 1.356 . S
N326 H332 0.984 . S
N326 H333 0.984 . S
N327 C320 1.356 . S
N327 H330 0.984 . S
N327 H331 0.985 1_456 S
H328 N323 0.984 . S
H329 N323 0.985 . S
H330 N327 0.984 . S
H331 N327 0.985 1_654 S
H332 N326 0.984 . S
H333 N326 0.984 . S
H334 N322 0.984 . S
H335 N322 0.985 . S
C336 C337 1.363 . S
C336 C342 1.379 . S
C336 N344 1.356 . S
C337 C336 1.363 . S
C337 C343 1.363 1_566 S
C338 C339 1.363 . S
C338 C343 1.379 1_556 S
C338 N345 1.356 1_556 S
C339 C338 1.363 . S
C339 C342 1.363 1_545 S
N340 C342 1.356 . S
N340 H352 0.984 . S
N340 H353 0.985 . S
N341 C343 1.356 . S
N341 H346 0.984 . S
N341 H347 0.985 . S
C342 C336 1.379 . S
C342 C339 1.363 1_565 S
C342 N340 1.356 . S
C343 C337 1.363 1_544 S
C343 C338 1.379 1_554 S
C343 N341 1.356 . S
N344 C336 1.356 . S
N344 H350 0.984 . S
N344 H351 0.984 . S
N345 C338 1.356 1_554 S
N345 H348 0.984 1_554 S
N345 H349 0.985 . S
H346 N341 0.984 . S
H347 N341 0.985 . S
H348 N345 0.984 1_556 S
H349 N345 0.985 . S
H350 N344 0.984 . S
H351 N344 0.984 . S
H352 N340 0.984 . S
H353 N340 0.985 . S
C354 C355 1.363 . S
C354 C360 1.379 . S
C354 N362 1.356 . S
C355 C354 1.363 . S
C355 C361 1.363 . S
C356 C357 1.363 . S
C356 C361 1.379 . S
C356 N363 1.356 . S
C357 C356 1.363 . S
C357 C360 1.363 . S
N358 C360 1.356 . S
N358 H370 0.984 . S
N358 H371 0.985 . S
N359 C361 1.356 . S
N359 H364 0.984 . S
N359 H365 0.985 . S
C360 C354 1.379 . S
C360 C357 1.363 . S
C360 N358 1.356 . S
C361 C355 1.363 . S
C361 C356 1.379 . S
C361 N359 1.356 . S
N362 C354 1.356 . S
N362 H368 0.984 . S
N362 H369 0.984 . S
N363 C356 1.356 . S
N363 H366 0.984 . S
N363 H367 0.985 . S
H364 N359 0.984 . S
H365 N359 0.985 . S
H366 N363 0.984 . S
H367 N363 0.985 . S
H368 N362 0.984 . S
H369 N362 0.984 . S
H370 N358 0.984 . S
H371 N358 0.985 . S
C372 C373 1.363 . S
C372 C378 1.379 . S
C372 N380 1.356 . S
C373 C372 1.363 . S
C373 C379 1.363 . S
C374 C375 1.363 . S
C374 C379 1.379 . S
C374 N381 1.356 . S
C375 C374 1.363 . S
C375 C378 1.363 . S
N376 C378 1.356 . S
N376 H388 0.984 . S
N376 H389 0.985 . S
N377 C379 1.356 . S
N377 H382 0.984 . S
N377 H383 0.985 . S
C378 C372 1.379 . S
C378 C375 1.363 . S
C378 N376 1.356 . S
C379 C373 1.363 . S
C379 C374 1.379 . S
C379 N377 1.356 . S
N380 C372 1.356 . S
N380 H386 0.984 . S
N380 H387 0.984 . S
N381 C374 1.356 . S
N381 H384 0.984 . S
N381 H385 0.985 . S
H382 N377 0.984 . S
H383 N377 0.985 . S
H384 N381 0.984 . S
H385 N381 0.985 . S
H386 N380 0.984 . S
H387 N380 0.984 . S
H388 N376 0.984 . S
H389 N376 0.985 . S
C390 C391 1.363 1_456 S
C390 C396 1.379 . S
C390 N398 1.356 . S
C391 C390 1.363 1_654 S
C391 C397 1.363 . S
C392 C393 1.363 1_554 S
C392 C397 1.379 1_455 S
C392 N399 1.356 . S
C393 C392 1.363 1_556 S
C393 C396 1.363 . S
N394 C396 1.356 . S
N394 H406 0.984 . S
N394 H407 0.985 . S
N395 C397 1.356 . S
N395 H400 0.984 . S
N395 H401 0.985 . S
C396 C390 1.379 . S
C396 C393 1.363 . S
C396 N394 1.356 . S
C397 C391 1.363 . S
C397 C392 1.379 1_655 S
C397 N395 1.356 . S
N398 C390 1.356 . S
N398 H404 0.984 . S
N398 H405 0.984 . S
N399 C392 1.356 . S
N399 H402 0.984 . S
N399 H403 0.985 1_455 S
H400 N395 0.984 . S
H401 N395 0.985 . S
H402 N399 0.984 . S
H403 N399 0.985 1_655 S
H404 N398 0.984 . S
H405 N398 0.984 . S
H406 N394 0.984 . S
H407 N394 0.985 . S
C408 C409 1.363 . S
C408 C414 1.379 . S
C408 N416 1.356 . S
C409 C408 1.363 . S
C409 C415 1.363 . S
C410 C411 1.363 . S
C410 C415 1.379 . S
C410 N417 1.356 1_556 S
C411 C410 1.363 . S
C411 C414 1.363 . S
N412 C414 1.356 . S
N412 H424 0.984 . S
N412 H425 0.985 . S
N413 C415 1.356 1_554 S
N413 H418 0.984 1_554 S
N413 H419 0.985 . S
C414 C408 1.379 . S
C414 C411 1.363 . S
C414 N412 1.356 . S
C415 C409 1.363 . S
C415 C410 1.379 . S
C415 N413 1.356 1_556 S
N416 C408 1.356 . S
N416 H422 0.984 . S
N416 H423 0.984 . S
N417 C410 1.356 1_554 S
N417 H420 0.984 1_554 S
N417 H421 0.985 . S
H418 N413 0.984 1_556 S
H419 N413 0.985 . S
H420 N417 0.984 1_556 S
H421 N417 0.985 . S
H422 N416 0.984 . S
H423 N416 0.984 . S
H424 N412 0.984 . S
H425 N412 0.985 . S
C426 C427 1.363 . S
C426 C432 1.379 . S
C426 N434 1.356 . S
C427 C426 1.363 . S
C427 C433 1.363 . S
C428 C429 1.363 . S
C428 C433 1.379 . S
C428 N435 1.356 1_556 S
C429 C428 1.363 . S
C429 C432 1.363 . S
N430 C432 1.356 . S
N430 H442 0.984 . S
N430 H443 0.985 . S
N431 C433 1.356 1_554 S
N431 H436 0.984 . S
N431 H437 0.985 . S
C432 C426 1.379 . S
C432 C429 1.363 . S
C432 N430 1.356 . S
C433 C427 1.363 . S
C433 C428 1.379 . S
C433 N431 1.356 1_556 S
N434 C426 1.356 . S
N434 H440 0.984 . S
N434 H441 0.984 . S
N435 C428 1.356 1_554 S
N435 H438 0.984 . S
N435 H439 0.985 . S
H436 N431 0.984 . S
H437 N431 0.985 . S
H438 N435 0.984 . S
H439 N435 0.985 . S
H440 N434 0.984 . S
H441 N434 0.984 . S
H442 N430 0.984 . S
H443 N430 0.985 . S
C444 C445 1.363 . S
C444 C450 1.379 . S
C444 N452 1.356 . S
C445 C444 1.363 . S
C445 C451 1.363 . S
C446 C447 1.363 . S
C446 C451 1.379 . S
C446 N453 1.356 . S
C447 C446 1.363 . S
C447 C450 1.363 . S
N448 C450 1.356 . S
N448 H460 0.984 . S
N448 H461 0.985 . S
N449 C451 1.356 . S
N449 H454 0.984 . S
N449 H455 0.985 . S
C450 C444 1.379 . S
C450 C447 1.363 . S
C450 N448 1.356 . S
C451 C445 1.363 . S
C451 C446 1.379 . S
C451 N449 1.356 . S
N452 C444 1.356 . S
N452 H458 0.984 . S
N452 H459 0.984 . S
N453 C446 1.356 . S
N453 H456 0.984 . S
N453 H457 0.985 . S
H454 N449 0.984 . S
H455 N449 0.985 . S
H456 N453 0.984 . S
H457 N453 0.985 . S
H458 N452 0.984 . S
H459 N452 0.984 . S
H460 N448 0.984 . S
H461 N448 0.985 . S
C462 C463 1.363 . S
C462 C468 1.379 . S
C462 N470 1.356 . S
C463 C462 1.363 . S
C463 C469 1.363 1_556 S
C464 C465 1.363 1_554 S
C464 C469 1.379 . S
C464 N471 1.356 . S
C465 C464 1.363 1_556 S
C465 C468 1.363 . S
N466 C468 1.356 . S
N466 H478 0.984 . S
N466 H479 0.985 . S
N467 C469 1.356 . S
N467 H472 0.984 . S
N467 H473 0.985 . S
C468 C462 1.379 . S
C468 C465 1.363 . S
C468 N466 1.356 . S
C469 C463 1.363 1_554 S
C469 C464 1.379 . S
C469 N467 1.356 . S
N470 C462 1.356 . S
N470 H476 0.984 . S
N470 H477 0.984 . S
N471 C464 1.356 . S
N471 H474 0.984 . S
N471 H475 0.985 . S
H472 N467 0.984 . S
H473 N467 0.985 . S
H474 N471 0.984 . S
H475 N471 0.985 . S
H476 N470 0.984 . S
H477 N470 0.984 . S
H478 N466 0.984 . S
H479 N466 0.985 . S
C480 C481 1.363 1_554 S
C480 C486 1.379 . S
C480 N488 1.356 . S
C481 C480 1.363 1_556 S
C481 C487 1.363 1_655 S
C482 C483 1.363 . S
C482 C487 1.379 . S
C482 N489 1.356 . S
C483 C482 1.363 . S
C483 C486 1.363 1_456 S
N484 C486 1.356 . S
N484 H496 0.984 . S
N484 H497 0.985 1_655 S
N485 C487 1.356 . S
N485 H490 0.984 . S
N485 H491 0.985 . S
C486 C480 1.379 . S
C486 C483 1.363 1_654 S
C486 N484 1.356 . S
C487 C481 1.363 1_455 S
C487 C482 1.379 . S
C487 N485 1.356 . S
N488 C480 1.356 . S
N488 H494 0.984 . S
N488 H495 0.984 . S
N489 C482 1.356 . S
N489 H492 0.984 . S
N489 H493 0.985 . S
H490 N485 0.984 . S
H491 N485 0.985 . S
H492 N489 0.984 . S
H493 N489 0.985 . S
H494 N488 0.984 . S
H495 N488 0.984 . S
H496 N484 0.984 . S
H497 N484 0.985 1_455 S
C498 C499 1.363 1_545 S
C498 C504 1.379 . S
C498 N506 1.356 . S
C499 C498 1.363 1_565 S
C499 C505 1.363 1_556 S
C500 C501 1.363 1_564 S
C500 C505 1.379 . S
C500 N507 1.356 . S
C501 C500 1.363 1_546 S
C501 C504 1.363 . S
N502 C504 1.356 . S
N502 H514 0.984 . S
N502 H515 0.985 . S
N503 C505 1.356 . S
N503 H508 0.984 . S
N503 H509 0.985 . S
C504 C498 1.379 . S
C504 C501 1.363 . S
C504 N502 1.356 . S
C505 C499 1.363 1_554 S
C505 C500 1.379 . S
C505 N503 1.356 . S
N506 C498 1.356 . S
N506 H512 0.984 . S
N506 H513 0.984 1_545 S
N507 C500 1.356 . S
N507 H510 0.984 1_565 S
N507 H511 0.985 . S
H508 N503 0.984 . S
H509 N503 0.985 . S
H510 N507 0.984 1_545 S
H511 N507 0.985 . S
H512 N506 0.984 . S
H513 N506 0.984 1_565 S
H514 N502 0.984 . S
H515 N502 0.985 . S
C516 C517 1.363 . S
C516 C522 1.379 . S
C516 N524 1.356 . S
C517 C516 1.363 . S
C517 C523 1.363 . S
C518 C519 1.363 . S
C518 C523 1.379 . S
C518 N525 1.356 . S
C519 C518 1.363 . S
C519 C522 1.363 . S
N520 C522 1.356 . S
N520 H532 0.984 . S
N520 H533 0.985 . S
N521 C523 1.356 . S
N521 H526 0.984 . S
N521 H527 0.985 . S
C522 C516 1.379 . S
C522 C519 1.363 . S
C522 N520 1.356 . S
C523 C517 1.363 . S
C523 C518 1.379 . S
C523 N521 1.356 . S
N524 C516 1.356 . S
N524 H530 0.984 . S
N524 H531 0.984 . S
N525 C518 1.356 . S
N525 H528 0.984 . S
N525 H529 0.985 . S
H526 N521 0.984 . S
H527 N521 0.985 . S
H528 N525 0.984 . S
H529 N525 0.985 . S
H530 N524 0.984 . S
H531 N524 0.984 . S
H532 N520 0.984 . S
H533 N520 0.985 . S
C534 C535 1.363 . S
C534 C540 1.379 . S
C534 N542 1.356 . S
C535 C534 1.363 . S
C535 C541 1.363 . S
C536 C537 1.363 1_554 S
C536 C541 1.379 1_554 S
C536 N543 1.356 . S
C537 C536 1.363 1_556 S
C537 C540 1.363 . S
N538 C540 1.356 . S
N538 H550 0.984 . S
N538 H551 0.985 . S
N539 C541 1.356 1_554 S
N539 H544 0.984 . S
N539 H545 0.985 . S
C540 C534 1.379 . S
C540 C537 1.363 . S
C540 N538 1.356 . S
C541 C535 1.363 . S
C541 C536 1.379 1_556 S
C541 N539 1.356 1_556 S
N542 C534 1.356 . S
N542 H548 0.984 . S
N542 H549 0.984 . S
N543 C536 1.356 . S
N543 H546 0.984 . S
N543 H547 0.985 . S
H544 N539 0.984 . S
H545 N539 0.985 . S
H546 N543 0.984 . S
H547 N543 0.985 . S
H548 N542 0.984 . S
H549 N542 0.984 . S
H550 N538 0.984 . S
H551 N538 0.985 . S
C552 C553 1.363 . S
C552 C558 1.379 . S
C552 N560 1.356 . S
C553 C552 1.363 . S
C553 C559 1.363 . S
C554 C555 1.363 . S
C554 C559 1.379 . S
C554 N561 1.356 . S
C555 C554 1.363 . S
C555 C558 1.363 . S
N556 C558 1.356 . S
N556 H568 0.984 . S
N556 H569 0.985 . S
N557 C559 1.356 . S
N557 H562 0.984 . S
N557 H563 0.985 . S
C558 C552 1.379 . S
C558 C555 1.363 . S
C558 N556 1.356 . S
C559 C553 1.363 . S
C559 C554 1.379 . S
C559 N557 1.356 . S
N560 C552 1.356 . S
N560 H566 0.984 . S
N560 H567 0.984 . S
N561 C554 1.356 . S
N561 H564 0.984 . S
N561 H565 0.985 . S
H562 N557 0.984 . S
H563 N557 0.985 . S
H564 N561 0.984 . S
H565 N561 0.985 . S
H566 N560 0.984 . S
H567 N560 0.984 . S
H568 N556 0.984 . S
H569 N556 0.985 . S
C570 C571 1.363 . S
C570 C576 1.379 . S
C570 N578 1.356 . S
C571 C570 1.363 . S
C571 C577 1.363 . S
C572 C573 1.363 . S
C572 C577 1.379 . S
C572 N579 1.356 . S
C573 C572 1.363 . S
C573 C576 1.363 . S
N574 C576 1.356 . S
N574 H586 0.984 . S
N574 H587 0.985 . S
N575 C577 1.356 . S
N575 H580 0.984 . S
N575 H581 0.985 . S
C576 C570 1.379 . S
C576 C573 1.363 . S
C576 N574 1.356 . S
C577 C571 1.363 . S
C577 C572 1.379 . S
C577 N575 1.356 . S
N578 C570 1.356 . S
N578 H584 0.984 . S
N578 H585 0.984 . S
N579 C572 1.356 . S
N579 H582 0.984 . S
N579 H583 0.985 . S
H580 N575 0.984 . S
H581 N575 0.985 . S
H582 N579 0.984 . S
H583 N579 0.985 . S
H584 N578 0.984 . S
H585 N578 0.984 . S
H586 N574 0.984 . S
H587 N574 0.985 . S
C588 C589 1.363 . S
C588 C594 1.379 . S
C588 N596 1.356 . S
C589 C588 1.363 . S
C589 C595 1.363 . S
C590 C591 1.363 . S
C590 C595 1.379 . S
C590 N597 1.356 . S
C591 C590 1.363 . S
C591 C594 1.363 . S
N592 C594 1.356 1_556 S
N592 H604 0.984 . S
N592 H605 0.985 . S
N593 C595 1.356 . S
N593 H598 0.984 . S
N593 H599 0.985 . S
C594 C588 1.379 . S
C594 C591 1.363 . S
C594 N592 1.356 1_554 S
C595 C589 1.363 . S
C595 C590 1.379 . S
C595 N593 1.356 . S
N596 C588 1.356 . S
N596 H602 0.984 . S
N596 H603 0.984 . S
N597 C590 1.356 . S
N597 H600 0.984 . S
N597 H601 0.985 . S
H598 N593 0.984 . S
H599 N593 0.985 . S
H600 N597 0.984 . S
H601 N597 0.985 . S
H602 N596 0.984 . S
H603 N596 0.984 . S
H604 N592 0.984 . S
H605 N592 0.985 . S
C606 C607 1.363 . S
C606 C612 1.379 . S
C606 N614 1.356 . S
C607 C606 1.363 . S
C607 C613 1.363 . S
C608 C609 1.363 . S
C608 C613 1.379 . S
C608 N615 1.356 . S
C609 C608 1.363 . S
C609 C612 1.363 . S
N610 C612 1.356 . S
N610 H622 0.984 . S
N610 H623 0.985 . S
N611 C613 1.356 . S
N611 H616 0.984 . S
N611 H617 0.985 . S
C612 C606 1.379 . S
C612 C609 1.363 . S
C612 N610 1.356 . S
C613 C607 1.363 . S
C613 C608 1.379 . S
C613 N611 1.356 . S
N614 C606 1.356 . S
N614 H620 0.984 . S
N614 H621 0.984 . S
N615 C608 1.356 . S
N615 H618 0.984 . S
N615 H619 0.985 . S
H616 N611 0.984 . S
H617 N611 0.985 . S
H618 N615 0.984 . S
H619 N615 0.985 . S
H620 N614 0.984 . S
H621 N614 0.984 . S
H622 N610 0.984 . S
H623 N610 0.985 . S
C624 C625 1.363 . S
C624 C630 1.379 . S
C624 N632 1.356 . S
C625 C624 1.363 . S
C625 C631 1.370 . S
C626 C627 1.363 1_455 S
C626 C631 1.380 1_455 S
C626 N633 1.356 . S
C627 C626 1.363 1_655 S
C627 C630 1.363 . S
N628 C630 1.356 . S
N628 H640 0.984 . S
N628 H641 0.985 . S
N629 C631 1.350 1_455 S
N629 H634 0.989 . S
N629 H635 0.985 . S
C630 C624 1.379 . S
C630 C627 1.363 . S
C630 N628 1.356 . S
C631 C625 1.370 . S
C631 C626 1.380 1_655 S
C631 N629 1.350 1_655 S
N632 C624 1.356 . S
N632 H638 0.984 . S
N632 H639 0.984 . S
N633 C626 1.356 . S
N633 H636 0.984 . S
N633 H637 0.985 . S
H634 N629 0.989 . S
H635 N629 0.985 . S
H636 N633 0.984 . S
H637 N633 0.985 . S
H638 N632 0.984 . S
H639 N632 0.984 . S
H640 N628 0.984 . S
H641 N628 0.985 . S
C642 C643 1.363 . S
C642 C648 1.379 . S
C642 N650 1.356 1_565 S
C643 C642 1.363 . S
C643 C649 1.363 . S
C644 C645 1.363 . S
C644 C649 1.379 . S
C644 N651 1.356 . S
C645 C644 1.363 . S
C645 C648 1.363 . S
N646 C648 1.356 . S
N646 H658 0.984 1_565 S
N646 H659 0.985 . S
N647 C649 1.356 . S
N647 H652 0.984 . S
N647 H653 0.985 . S
C648 C642 1.379 . S
C648 C645 1.363 . S
C648 N646 1.356 . S
C649 C643 1.363 . S
C649 C644 1.379 . S
C649 N647 1.356 . S
N650 C642 1.356 1_545 S
N650 H656 0.984 . S
N650 H657 0.984 . S
N651 C644 1.356 . S
N651 H654 0.984 . S
N651 H655 0.985 . S
H652 N647 0.984 . S
H653 N647 0.985 . S
H654 N651 0.984 . S
H655 N651 0.985 . S
H656 N650 0.984 . S
H657 N650 0.984 . S
H658 N646 0.984 1_545 S
H659 N646 0.985 . S
C660 C661 1.363 . S
C660 C666 1.379 . S
C660 N668 1.356 . S
C661 C660 1.363 . S
C661 C667 1.363 . S
C662 C663 1.363 . S
C662 C667 1.379 . S
C662 N669 1.356 . S
C663 C662 1.363 . S
C663 C666 1.363 . S
N664 C666 1.356 . S
N664 H676 0.984 . S
N664 H677 0.985 . S
N665 C667 1.356 . S
N665 H670 0.984 . S
N665 H671 0.985 . S
C666 C660 1.379 . S
C666 C663 1.363 . S
C666 N664 1.356 . S
C667 C661 1.363 . S
C667 C662 1.379 . S
C667 N665 1.356 . S
N668 C660 1.356 . S
N668 H674 0.984 . S
N668 H675 0.984 . S
N669 C662 1.356 . S
N669 H672 0.984 . S
N669 H673 0.985 . S
H670 N665 0.984 . S
H671 N665 0.985 . S
H672 N669 0.984 . S
H673 N669 0.985 . S
H674 N668 0.984 . S
H675 N668 0.984 . S
H676 N664 0.984 . S
H677 N664 0.985 . S
C678 C679 1.363 . S
C678 C684 1.379 . S
C678 N686 1.356 . S
C679 C678 1.363 . S
C679 C685 1.363 . S
C680 C681 1.363 . S
C680 C685 1.379 . S
C680 N687 1.356 . S
C681 C680 1.363 . S
C681 C684 1.363 . S
N682 C684 1.356 . S
N682 H694 0.984 . S
N682 H695 0.985 . S
N683 C685 1.356 . S
N683 H688 0.984 . S
N683 H689 0.985 . S
C684 C678 1.379 . S
C684 C681 1.363 . S
C684 N682 1.356 . S
C685 C679 1.363 . S
C685 C680 1.379 . S
C685 N683 1.356 . S
N686 C678 1.356 . S
N686 H692 0.984 . S
N686 H693 0.984 . S
N687 C680 1.356 . S
N687 H690 0.984 . S
N687 H691 0.985 . S
H688 N683 0.984 . S
H689 N683 0.985 . S
H690 N687 0.984 . S
H691 N687 0.985 . S
H692 N686 0.984 . S
H693 N686 0.984 . S
H694 N682 0.984 . S
H695 N682 0.985 . S
C265 C82 1.697 . S
C267 C113 1.665 . S
C285 C153 1.394 . S
C283 C95 1.305 . S
C303 C202 1.435 . S
C301 C56 1.452 . S
C321 C233 1.790 . S
C319 C69 1.848 . S
C339 C122 1.665 . S
C337 C30 1.600 . S
C355 C43 1.251 . S
C357 C162 1.394 . S
C373 C4 1.440 . S
C375 C193 1.434 . S
C391 C17 1.758 . S
C393 C242 1.790 . S
C411 C123 1.254 . S
C409 C74 1.090 . S
C429 C163 1.716 . S
C427 C87 1.497 . S
C447 C199 0.959 . S
C445 C100 0.977 . S
C463 C61 1.271 . S
C465 C243 1.462 . S
C481 C22 1.087 1_556 S
C483 C114 1.254 . S
C501 C154 1.715 . S
C499 C35 1.489 1_556 S
C519 C190 0.960 . S
C517 C48 0.977 . S
C535 C9 1.269 . S
C537 C234 1.462 . S
C553 C73 1.629 . S
C555 C119 1.657 . S
C571 C86 1.539 . S
C573 C159 1.489 . S
C591 C203 2.030 . S
C589 C99 1.845 . S
C609 C239 1.463 . S
C607 C60 1.497 . S
C625 C21 1.627 . S
C627 C110 1.657 . S
C645 C150 1.489 . S
C643 C34 1.542 . S
C663 C194 2.030 . S
C661 C47 1.844 . S
C679 C8 1.503 . S
C681 C230 1.462 . S
