# Generated by pormake.
# Topology dag, (6,3)-cn, num edge types: 1
# Building blocks:
#     Node 0, Type 0, BuildingBlock: MIDCAF_clean_sbu_0, # of connection points: 6
#     Node 1, Type 0, BuildingBlock: MIDCAF_clean_sbu_0, # of connection points: 6
#     Node 2, Type 0, BuildingBlock: MIDCAF_clean_sbu_0, # of connection points: 6
#     Node 3, Type 0, BuildingBlock: MIDCAF_clean_sbu_0, # of connection points: 6
#     Node 4, Type 1, BuildingBlock: PAMTOO_clean_linker_0, # of connection points: 3
#     Node 5, Type 1, BuildingBlock: PAMTOO_clean_linker_0, # of connection points: 3
#     Node 6, Type 1, BuildingBlock: PAMTOO_clean_linker_0, # of connection points: 3
#     Node 7, Type 1, BuildingBlock: PAMTOO_clean_linker_0, # of connection points: 3
#     Node 8, Type 1, BuildingBlock: PAMTOO_clean_linker_0, # of connection points: 3
#     Node 9, Type 1, BuildingBlock: PAMTOO_clean_linker_0, # of connection points: 3
#     Node 10, Type 1, BuildingBlock: PAMTOO_clean_linker_0, # of connection points: 3
#     Node 11, Type 1, BuildingBlock: PAMTOO_clean_linker_0, # of connection points: 3
#     Edge 12, Type (0, 1), BuildingBlock: XIVTED_clean_linker_0, # of connection points: 2
#     Edge 13, Type (0, 1), BuildingBlock: XIVTED_clean_linker_0, # of connection points: 2
#     Edge 14, Type (0, 1), BuildingBlock: XIVTED_clean_linker_0, # of connection points: 2
#     Edge 15, Type (0, 1), BuildingBlock: XIVTED_clean_linker_0, # of connection points: 2
#     Edge 16, Type (0, 1), BuildingBlock: XIVTED_clean_linker_0, # of connection points: 2
#     Edge 17, Type (0, 1), BuildingBlock: XIVTED_clean_linker_0, # of connection points: 2
#     Edge 18, Type (0, 1), BuildingBlock: XIVTED_clean_linker_0, # of connection points: 2
#     Edge 19, Type (0, 1), BuildingBlock: XIVTED_clean_linker_0, # of connection points: 2
#     Edge 20, Type (0, 1), BuildingBlock: XIVTED_clean_linker_0, # of connection points: 2
#     Edge 21, Type (0, 1), BuildingBlock: XIVTED_clean_linker_0, # of connection points: 2
#     Edge 22, Type (0, 1), BuildingBlock: XIVTED_clean_linker_0, # of connection points: 2
#     Edge 23, Type (0, 1), BuildingBlock: XIVTED_clean_linker_0, # of connection points: 2
#     Edge 24, Type (0, 1), BuildingBlock: XIVTED_clean_linker_0, # of connection points: 2
#     Edge 25, Type (0, 1), BuildingBlock: XIVTED_clean_linker_0, # of connection points: 2
#     Edge 26, Type (0, 1), BuildingBlock: XIVTED_clean_linker_0, # of connection points: 2
#     Edge 27, Type (0, 1), BuildingBlock: XIVTED_clean_linker_0, # of connection points: 2
#     Edge 28, Type (0, 1), BuildingBlock: XIVTED_clean_linker_0, # of connection points: 2
#     Edge 29, Type (0, 1), BuildingBlock: XIVTED_clean_linker_0, # of connection points: 2
#     Edge 30, Type (0, 1), BuildingBlock: XIVTED_clean_linker_0, # of connection points: 2
#     Edge 31, Type (0, 1), BuildingBlock: XIVTED_clean_linker_0, # of connection points: 2
#     Edge 32, Type (0, 1), BuildingBlock: XIVTED_clean_linker_0, # of connection points: 2
#     Edge 33, Type (0, 1), BuildingBlock: XIVTED_clean_linker_0, # of connection points: 2
#     Edge 34, Type (0, 1), BuildingBlock: XIVTED_clean_linker_0, # of connection points: 2
#     Edge 35, Type (0, 1), BuildingBlock: XIVTED_clean_linker_0, # of connection points: 2
# Relax obj value: 0.135
# Max RMSD: 0.140
# Mean RMSD: 0.110
data_MOF--net-dag--node1-MIDCAF_clean_sbu_0--node2-PAMTOO_clean_linker_0--edge1-XIVTED_clean_linker_0
_symmetry_space_group_name_H-M    P1
_symmetry_Int_Tables_number       1
_symmetry_cell_setting            triclinic
loop_
_symmetry_equiv_pos_as_xyz
'x, y, z'
_cell_length_a     39.835742
_cell_length_b     41.221884
_cell_length_c     31.440285
_cell_angle_alpha  90.689131
_cell_angle_beta   92.194758
_cell_angle_gamma 90.036194
loop_
_atom_site_label
_atom_site_type_symbol
_atom_site_fract_x
_atom_site_fract_y
_atom_site_fract_z
_atom_type_partial_charge
Zn0 Zn 0.16018 0.82655 0.11483 0.0
Zn1 Zn 0.17806 0.87413 0.98756 0.0
Zn2 Zn 0.15911 0.84445 0.04279 0.0
C3 C 0.13457 0.91113 0.02487 0.0
C4 C 0.13329 0.82438 0.95754 0.0
O5 O 0.16551 0.79252 0.02944 0.0
O6 O 0.16854 0.78024 0.09787 0.0
C7 C 0.21043 0.875 0.10735 0.0
O8 O 0.1226 0.88229 0.02744 0.0
O9 O 0.16575 0.91468 0.01976 0.0
O10 O 0.13974 0.85381 0.94989 0.0
O11 O 0.14848 0.81107 0.98987 0.0
O12 O 0.19754 0.85717 0.13492 0.0
O13 O 0.20043 0.87211 0.06853 0.0
O14 O 0.10765 0.85728 0.05956 0.0
O15 O 0.11273 0.83957 0.12522 0.0
C16 C 0.09492 0.85247 0.09585 0.0
O17 O 0.18776 0.81185 0.99926 0.0
O18 O 0.22307 0.85129 0.98641 0.0
C19 C 0.16892 0.7714 0.0592 0.0
C20 C 0.21601 0.8213 0.98472 0.0
Zn21 Zn 0.65709 0.65821 0.39919 0.0
Zn22 Zn 0.61384 0.63619 0.53031 0.0
Zn23 Zn 0.64311 0.65244 0.47501 0.0
C24 C 0.6392 0.58242 0.51183 0.0
C25 C 0.59342 0.69716 0.51375 0.0
O26 O 0.66439 0.70106 0.48151 0.0
O27 O 0.67543 0.70267 0.41299 0.0
C28 C 0.69603 0.60636 0.43272 0.0
O29 O 0.65973 0.60507 0.5021 0.0
O30 O 0.60849 0.58916 0.51538 0.0
O31 O 0.57915 0.66997 0.51763 0.0
O32 O 0.62496 0.69787 0.50586 0.0
O33 O 0.68872 0.62 0.39773 0.0
O34 O 0.68204 0.61609 0.46676 0.0
O35 O 0.59559 0.64682 0.44185 0.0
O36 O 0.60943 0.65367 0.37565 0.0
C37 C 0.58715 0.64874 0.40246 0.0
O38 O 0.66065 0.68729 0.52463 0.0
O39 O 0.653 0.6499 0.57246 0.0
C40 C 0.6761 0.71592 0.44956 0.0
C41 C 0.66743 0.67593 0.5621 0.0
Zn42 Zn 0.84278 0.17972 0.90707 0.0
Zn43 Zn 0.85988 0.11525 0.07423 0.0
Zn44 Zn 0.85042 0.15333 0.02641 0.0
C45 C 0.92062 0.136 0.06239 0.0
C46 C 0.79569 0.10947 0.04299 0.0
O47 O 0.80445 0.1824 0.02961 0.0
O48 O 0.82562 0.18154 0.96754 0.0
C49 C 0.88943 0.19866 0.98865 0.0
O50 O 0.9011 0.16051 0.05685 0.0
O51 O 0.90795 0.10789 0.06125 0.0
O52 O 0.82157 0.09167 0.04286 0.0
O53 O 0.79994 0.14023 0.04724 0.0
O54 O 0.86489 0.18806 0.96576 0.0
O55 O 0.89059 0.18864 0.02681 0.0
O56 O 0.84973 0.11883 0.97152 0.0
O57 O 0.84544 0.13032 0.90151 0.0
C58 C 0.84818 0.10989 0.93196 0.0
O59 O 0.8145 0.16844 0.07422 0.0
O60 O 0.84856 0.14786 0.12336 0.0
C61 C 0.80237 0.19131 0.99085 0.0
C62 C 0.82493 0.16738 0.11363 0.0
Zn63 Zn 0.34141 0.34863 0.64611 0.0
Zn64 Zn 0.35624 0.31929 0.49118 0.0
Zn65 Zn 0.35026 0.33448 0.56591 0.0
C66 C 0.42081 0.32257 0.52083 0.0
C67 C 0.32312 0.37809 0.49049 0.0
O68 O 0.31016 0.30258 0.59033 0.0
O69 O 0.29967 0.32379 0.65339 0.0
C70 C 0.40571 0.31987 0.63898 0.0
O71 O 0.40457 0.32341 0.55558 0.0
O72 O 0.40493 0.32378 0.48542 0.0
O73 O 0.32595 0.3533 0.46697 0.0
O74 O 0.33471 0.37763 0.52931 0.0
O75 O 0.38512 0.32897 0.66632 0.0
O76 O 0.39791 0.32204 0.59895 0.0
O77 O 0.34053 0.38789 0.57201 0.0
O78 O 0.33801 0.39634 0.64155 0.0
C79 C 0.33789 0.40732 0.60427 0.0
O80 O 0.31509 0.29367 0.54742 0.0
O81 O 0.33894 0.27468 0.49003 0.0
C82 C 0.29289 0.30327 0.62423 0.0
C83 C 0.31722 0.27188 0.51781 0.0
H84 H 0.16613 0.08571 0.15859 0.0
H85 H 0.13574 0.15335 0.25521 0.0
H86 H 0.22439 0.09596 0.27609 0.0
H87 H 0.17657 0.10259 0.3463 0.0
C88 C 0.17263 0.12929 0.34425 0.0
O89 O 0.18626 0.14112 0.3078 0.0
H90 H 0.14512 0.13397 0.34344 0.0
C91 C 0.17049 0.09748 0.18929 0.0
C92 C 0.19812 0.08788 0.21531 0.0
C93 C 0.14736 0.1207 0.20328 0.0
C94 C 0.15326 0.13568 0.24328 0.0
C95 C 0.18106 0.1268 0.26922 0.0
C96 C 0.20334 0.10294 0.25536 0.0
H97 H 0.40198 0.65465 0.60657 0.0
H98 H 0.3333 0.64337 0.70817 0.0
H99 H 0.39149 0.73046 0.70043 0.0
H100 H 0.3837 0.70006 0.78735 0.0
C101 C 0.35667 0.69338 0.78317 0.0
O102 O 0.3452 0.70033 0.7423 0.0
H103 H 0.35445 0.66687 0.78877 0.0
C104 C 0.39021 0.66395 0.63473 0.0
C105 C 0.39951 0.69482 0.65077 0.0
C106 C 0.36666 0.6447 0.65525 0.0
C107 C 0.35136 0.65756 0.69142 0.0
C108 C 0.36024 0.68838 0.70755 0.0
C109 C 0.38455 0.7068 0.68753 0.0
H110 H 0.84557 0.9345 0.1344 0.0
H111 H 0.77084 0.91795 0.22737 0.0
H112 H 0.86569 0.8695 0.23869 0.0
H113 H 0.81239 0.82868 0.26301 0.0
C114 C 0.79301 0.84703 0.2708 0.0
O115 O 0.80744 0.87744 0.2724 0.0
H116 H 0.77298 0.84581 0.2451 0.0
C117 C 0.83741 0.92198 0.1623 0.0
C118 C 0.85981 0.90107 0.1842 0.0
C119 C 0.80527 0.92847 0.17772 0.0
C120 C 0.79544 0.91334 0.21504 0.0
C121 C 0.81726 0.89211 0.23671 0.0
C122 C 0.84926 0.88612 0.22147 0.0
H123 H 0.6353 0.35095 0.63452 0.0
H124 H 0.65728 0.3212 0.76326 0.0
H125 H 0.70711 0.40388 0.7144 0.0
H126 H 0.74988 0.37625 0.79865 0.0
C127 C 0.7335 0.35526 0.78956 0.0
O128 O 0.70157 0.3666 0.77994 0.0
H129 H 0.74482 0.34358 0.76133 0.0
C130 C 0.64973 0.35374 0.66419 0.0
C131 C 0.67222 0.37995 0.66946 0.0
C132 C 0.643 0.33315 0.69817 0.0
C133 C 0.66203 0.33666 0.73651 0.0
C134 C 0.68564 0.36167 0.74167 0.0
C135 C 0.69039 0.38345 0.70855 0.0
H136 H 0.66446 0.3812 0.47826 0.0
H137 H 0.66769 0.28597 0.42003 0.0
H138 H 0.74302 0.35597 0.39369 0.0
H139 H 0.7117 0.32688 0.32046 0.0
C140 C 0.70682 0.30187 0.33168 0.0
O141 O 0.71858 0.29891 0.37345 0.0
H142 H 0.67919 0.2976 0.33006 0.0
C143 C 0.67717 0.3631 0.45951 0.0
C144 C 0.70626 0.37201 0.43837 0.0
C145 C 0.66257 0.33219 0.45314 0.0
C146 C 0.6783 0.30985 0.426 0.0
C147 C 0.70686 0.31868 0.40423 0.0
C148 C 0.72118 0.34935 0.4112 0.0
H149 H 0.07 0.13777 0.91072 0.0
H150 H 0.09968 0.18529 0.79701 0.0
H151 H 0.12264 0.08443 0.81576 0.0
H152 H 0.17145 0.1082 0.75341 0.0
C153 C 0.1639 0.13309 0.7631 0.0
O154 O 0.12929 0.13382 0.76516 0.0
H155 H 0.17639 0.13819 0.79481 0.0
C156 C 0.08297 0.13718 0.88101 0.0
C157 C 0.09664 0.10789 0.86687 0.0
C158 C 0.08376 0.16515 0.8561 0.0
C159 C 0.0993 0.16398 0.8168 0.0
C160 C 0.11366 0.13491 0.8026 0.0
C161 C 0.11165 0.10679 0.82717 0.0
H162 H 0.34886 0.57884 0.35892 0.0
H163 H 0.34308 0.63436 0.24391 0.0
H164 H 0.26337 0.56871 0.27195 0.0
H165 H 0.27691 0.56924 0.18225 0.0
C166 C 0.28785 0.59394 0.17962 0.0
O167 O 0.28477 0.61075 0.2175 0.0
H168 H 0.31483 0.59137 0.17219 0.0
C169 C 0.33499 0.58633 0.33037 0.0
C170 C 0.30408 0.57152 0.31944 0.0
C171 C 0.34941 0.60902 0.30361 0.0
C172 C 0.33244 0.61691 0.26511 0.0
C173 C 0.30144 0.60238 0.25391 0.0
C174 C 0.28727 0.57983 0.28104 0.0
H175 H 0.91518 0.87123 0.88446 0.0
H176 H 0.88991 0.78853 0.80483 0.0
H177 H 0.82332 0.87035 0.80735 0.0
H178 H 0.78698 0.81092 0.80374 0.0
C179 C 0.80563 0.79431 0.78961 0.0
O180 O 0.83237 0.81214 0.77574 0.0
H181 H 0.81467 0.77725 0.81476 0.0
C182 C 0.89765 0.85891 0.86252 0.0
C183 C 0.86819 0.87479 0.84821 0.0
C184 C 0.90581 0.82797 0.84686 0.0
C185 C 0.88389 0.8124 0.81716 0.0
C186 C 0.85394 0.82757 0.80347 0.0
C187 C 0.84639 0.85881 0.81852 0.0
H188 H 0.23083 0.92639 0.0598 0.0
H189 H 0.2203 0.03694 0.26411 0.0
H190 H 0.23358 0.89044 0.18825 0.0
H191 H 0.22192 0.07364 0.13626 0.0
H192 H 0.24092 0.9849 0.23833 0.0
H193 H 0.2438 0.98062 0.08773 0.0
C194 C 0.23519 0.92963 0.0938 0.0
C195 C 0.22998 0.90397 0.1218 0.0
C196 C 0.23746 0.00451 0.21598 0.0
C197 C 0.24423 0.96619 0.15406 0.0
C198 C 0.22588 0.0344 0.2308 0.0
C199 C 0.21853 0.0595 0.20214 0.0
C200 C 0.24136 -0.00046 0.17211 0.0
C201 C 0.22624 0.05463 0.15928 0.0
C202 C 0.24241 0.96074 0.1098 0.0
C203 C 0.23649 0.90964 0.16549 0.0
N204 N 0.23653 0.02504 0.14542 0.0
N205 N 0.24242 0.94028 0.18035 0.0
H206 H 0.59781 0.72836 0.59001 0.0
H207 H 0.40321 0.70952 0.56662 0.0
H208 H 0.54209 0.72584 0.47014 0.0
H209 H 0.45678 0.72158 0.68746 0.0
H210 H 0.45194 0.73052 0.5309 0.0
H211 H 0.54654 0.74353 0.62562 0.0
C212 C 0.57523 0.73314 0.57078 0.0
C213 C 0.57399 0.72541 0.52719 0.0
C214 C 0.45295 0.72926 0.5653 0.0
C215 C 0.5149 0.74104 0.56776 0.0
C216 C 0.42512 0.71715 0.58565 0.0
C217 C 0.42623 0.71331 0.62993 0.0
C218 C 0.4825 0.73692 0.58928 0.0
C219 C 0.45502 0.72397 0.65319 0.0
C220 C 0.54568 0.74107 0.59127 0.0
C221 C 0.54399 0.73145 0.5039 0.0
N222 N 0.48231 0.7346 0.63253 0.0
N223 N 0.51535 0.73778 0.5246 0.0
H224 H 0.76171 0.06462 0.99475 0.0
H225 H 0.77059 0.97812 0.21452 0.0
H226 H 0.76183 0.11399 0.11604 0.0
H227 H 0.78988 0.93448 0.09253 0.0
H228 H 0.74333 0.0238 0.17814 0.0
H229 H 0.74384 0.01496 0.0286 0.0
C230 C 0.75579 0.06556 0.02811 0.0
C231 C 0.76447 0.09295 0.05303 0.0
C232 C 0.75274 0.00383 0.15934 0.0
C233 C 0.74581 0.03607 0.0923 0.0
C234 C 0.76831 0.97774 0.18008 0.0
C235 C 0.78324 0.95288 0.15643 0.0
C236 C 0.75214 0.00505 0.11469 0.0
C237 C 0.7795 0.9536 0.11192 0.0
C238 C 0.74633 0.03695 0.04768 0.0
C239 C 0.75618 0.093 0.09594 0.0
N240 N 0.76481 0.97952 0.09251 0.0
N241 N 0.74881 0.06448 0.1148 0.0
H242 H 0.43683 0.33099 0.71645 0.0
H243 H 0.61583 0.29658 0.63108 0.0
H244 H 0.45125 0.28288 0.59599 0.0
H245 H 0.59725 0.32675 0.76004 0.0
H246 H 0.55656 0.28186 0.62121 0.0
H247 H 0.49515 0.32023 0.73704 0.0
C248 C 0.45224 0.31794 0.69434 0.0
C249 C 0.4396 0.30916 0.65357 0.0
C250 C 0.5657 0.2908 0.65206 0.0
C251 C 0.50675 0.29698 0.67685 0.0
C252 C 0.59956 0.29925 0.65771 0.0
C253 C 0.61145 0.31378 0.69609 0.0
C254 C 0.54366 0.29702 0.685 0.0
C255 C 0.58937 0.31591 0.72977 0.0
C256 C 0.48563 0.31174 0.70616 0.0
C257 C 0.46054 0.29163 0.62678 0.0
N258 N 0.55643 0.30835 0.72312 0.0
N259 N 0.49337 0.28675 0.63845 0.0
H260 H 0.70846 0.56729 0.36429 0.0
H261 H 0.71357 0.41303 0.50795 0.0
H262 H 0.72548 0.57403 0.50025 0.0
H263 H 0.7245 0.40938 0.37191 0.0
H264 H 0.72457 0.47153 0.50711 0.0
H265 H 0.72275 0.50998 0.36665 0.0
C266 C 0.71586 0.55686 0.39468 0.0
C267 C 0.71423 0.57507 0.43254 0.0
C268 C 0.72511 0.45779 0.47759 0.0
C269 C 0.72985 0.50909 0.43558 0.0
C270 C 0.71874 0.42444 0.47803 0.0
C271 C 0.71788 0.40629 0.43989 0.0
C272 C 0.72996 0.47318 0.43865 0.0
C273 C 0.72509 0.42228 0.40212 0.0
C274 C 0.72384 0.52396 0.39605 0.0
C275 C 0.72471 0.5603 0.47072 0.0
N276 N 0.73026 0.45483 0.40238 0.0
N277 N 0.73117 0.5279 0.47155 0.0
H278 H 0.89442 0.21972 0.90711 0.0
H279 H 0.08908 0.1983 0.93169 0.0
H280 H 0.95081 0.21297 0.02657 0.0
H281 H 0.03204 0.1944 0.81255 0.0
H282 H 0.0423 0.22612 0.9644 0.0
H283 H 0.94631 0.23199 0.87172 0.0
C284 C 0.91764 0.2215 0.92608 0.0
C285 C 0.91856 0.21416 0.96956 0.0
C286 C 0.04037 0.22024 0.93073 0.0
C287 C 0.97802 0.2279 0.92922 0.0
C288 C 0.06719 0.20463 0.91199 0.0
C289 C 0.06391 0.19339 0.86974 0.0
C290 C 0.01 0.22404 0.90711 0.0
C291 C 0.03529 0.20232 0.84542 0.0
C292 C 0.94727 0.22858 0.90584 0.0
C293 C 0.94914 0.2176 0.99275 0.0
N294 N 0.00893 0.21627 0.8648 0.0
N295 N 0.97782 0.22346 0.97211 0.0
H296 H 0.27408 0.38152 0.42802 0.0
H297 H 0.27863 0.51236 0.29438 0.0
H298 H 0.33927 0.44126 0.50824 0.0
H299 H 0.3027 0.57048 0.40646 0.0
H300 H 0.27207 0.46529 0.33923 0.0
H301 H 0.25613 0.42966 0.38874 0.0
C302 C 0.28431 0.40495 0.43771 0.0
C303 C 0.30826 0.40756 0.4715 0.0
C304 C 0.2776 0.48847 0.35439 0.0
C305 C 0.28881 0.46256 0.42581 0.0
C306 C 0.28136 0.51546 0.3286 0.0
C307 C 0.29176 0.54525 0.34665 0.0
C308 C 0.28439 0.49135 0.39853 0.0
C309 C 0.29538 0.54774 0.39118 0.0
C310 C 0.27426 0.43238 0.41504 0.0
C311 C 0.32036 0.43838 0.4831 0.0
N312 N 0.29243 0.52099 0.41551 0.0
N313 N 0.31082 0.46468 0.45999 0.0
H314 H 0.11436 0.83071 0.87394 0.0
H315 H 0.92812 0.81286 0.92717 0.0
H316 H 0.08632 0.78435 0.98949 0.0
H317 H 0.9577 0.81147 0.7968 0.0
H318 H 0.9857 0.79866 0.95006 0.0
H319 H 0.05831 0.81945 0.84278 0.0
C320 C 0.09671 0.81714 0.89218 0.0
C321 C 0.10484 0.8085 0.93431 0.0
C322 C 0.97947 0.80063 0.91636 0.0
C323 C 0.04033 0.79677 0.89964 0.0
C324 C 0.94668 0.80881 0.90337 0.0
C325 C 0.93839 0.81336 0.86014 0.0
C326 C 0.0043 0.79796 0.88595 0.0
C327 C 0.96323 0.80805 0.83043 0.0
C328 C 0.06468 0.81083 0.87448 0.0
C329 C 0.08103 0.79124 0.95678 0.0
N330 N 0.99531 0.80131 0.84395 0.0
N331 N 0.04947 0.78674 0.9396 0.0
H332 H 0.83676 0.08184 0.85349 0.0
H333 H 0.87652 0.90079 0.9289 0.0
H334 H 0.86114 0.05773 0.98435 0.0
H335 H 0.8448 0.92595 0.80073 0.0
H336 H 0.8698 0.95756 0.95066 0.0
H337 H 0.83864 0.02455 0.8345 0.0
C338 C 0.84252 0.06453 0.87835 0.0
C339 C 0.84892 0.07481 0.92066 0.0
C340 C 0.8641 0.95062 0.91785 0.0
C341 C 0.85108 0.00868 0.89887 0.0
C342 C 0.86804 0.91823 0.90535 0.0
C343 C 0.86137 0.90856 0.86282 0.0
C344 C 0.8536 0.97363 0.88759 0.0
C345 C 0.84996 0.93215 0.83389 0.0
C346 C 0.84348 0.03169 0.86742 0.0
C347 C 0.85601 0.05102 0.95136 0.0
N348 N 0.84668 0.96356 0.84673 0.0
N349 N 0.85705 0.01908 0.93982 0.0
H350 H 0.47006 0.35194 0.57256 0.0
H351 H 0.61142 0.29672 0.41464 0.0
H352 H 0.45515 0.28511 0.46701 0.0
H353 H 0.63564 0.35196 0.52949 0.0
H354 H 0.555 0.28928 0.43817 0.0
H355 H 0.53121 0.34968 0.56254 0.0
C356 C 0.47973 0.33642 0.54784 0.0
C357 C 0.45767 0.31876 0.52044 0.0
C358 C 0.57263 0.30278 0.45862 0.0
C359 C 0.52692 0.31651 0.50829 0.0
C360 C 0.60526 0.30679 0.44532 0.0
C361 C 0.62878 0.32498 0.46999 0.0
C362 C 0.56277 0.31749 0.49667 0.0
C363 C 0.61836 0.33817 0.50893 0.0
C364 C 0.51451 0.33522 0.542 0.0
C365 C 0.47129 0.29929 0.48862 0.0
N366 N 0.58603 0.33447 0.52086 0.0
N367 N 0.50486 0.29888 0.48329 0.0
H368 H 0.14014 0.97087 0.0609 0.0
H369 H 0.07871 0.04575 0.84306 0.0
H370 H 0.08341 0.91565 0.96577 0.0
H371 H 0.10967 0.10407 0.95253 0.0
H372 H 0.07595 -0.00171 0.88908 0.0
H373 H 0.12222 0.02087 0.02606 0.0
C374 C 0.12266 0.96946 0.03366 0.0
C375 C 0.11316 0.93931 0.01607 0.0
C376 C 0.08293 0.02157 0.90309 0.0
C377 C 0.09417 0.99609 0.97454 0.0
C378 C 0.08495 0.04852 0.87675 0.0
C379 C 0.09476 0.07878 0.89394 0.0
C380 C 0.09124 0.02486 0.9468 0.0
C381 C 0.10195 0.0812 0.93794 0.0
C382 C 0.11277 0.99795 0.01338 0.0
C383 C 0.091 0.93856 0.98037 0.0
N384 N 0.10039 0.05456 0.96273 0.0
N385 N 0.08299 0.96658 0.95995 0.0
H386 H 0.53146 0.6471 0.45108 0.0
H387 H 0.40333 0.61661 0.25282 0.0
H388 H 0.56152 0.64485 0.32057 0.0
H389 H 0.37247 0.63115 0.38173 0.0
H390 H 0.46103 0.63012 0.27614 0.0
H391 H 0.4728 0.64298 0.42592 0.0
C392 C 0.52575 0.64566 0.41715 0.0
C393 C 0.55148 0.64606 0.38792 0.0
C394 C 0.44156 0.63069 0.29924 0.0
C395 C 0.48434 0.64148 0.35884 0.0
C396 C 0.40857 0.62326 0.28585 0.0
C397 C 0.38315 0.62237 0.31547 0.0
C398 C 0.44915 0.63715 0.34257 0.0
C399 C 0.39145 0.63092 0.35798 0.0
C400 C 0.49222 0.6435 0.40277 0.0
C401 C 0.54253 0.64448 0.34428 0.0
N402 N 0.42376 0.63759 0.37033 0.0
N403 N 0.50974 0.64208 0.33109 0.0
H404 H 0.38608 0.44472 0.57044 0.0
H405 H 0.30645 0.61134 0.65385 0.0
H406 H 0.29112 0.45019 0.6311 0.0
H407 H 0.41051 0.60008 0.62273 0.0
H408 H 0.29663 0.55447 0.6339 0.0
H409 H 0.39113 0.50399 0.57617 0.0
C410 C 0.36588 0.4586 0.58388 0.0
C411 C 0.33783 0.44282 0.59951 0.0
C412 C 0.32154 0.56459 0.63115 0.0
C413 C 0.3438 0.51031 0.60749 0.0
C414 C 0.32725 0.59705 0.6428 0.0
C415 C 0.35945 0.61074 0.64031 0.0
C416 C 0.34813 0.54558 0.61666 0.0
C417 C 0.38516 0.59097 0.62477 0.0
C418 C 0.36889 0.49232 0.58756 0.0
C419 C 0.31284 0.46165 0.61799 0.0
N420 N 0.37896 0.55947 0.61374 0.0
N421 N 0.31642 0.49441 0.62157 0.0
H422 H 0.04214 0.8703 0.04049 0.0
H423 H 0.91792 0.89722 0.23298 0.0
H424 H 0.06842 0.85743 0.17373 0.0
H425 H 0.88143 0.89393 0.10194 0.0
H426 H 0.9745 0.88763 0.20969 0.0
H427 H 0.98433 0.88402 0.0601 0.0
C428 C 0.03587 0.8705 0.07371 0.0
C429 C 0.06016 0.86245 0.10544 0.0
C430 C 0.9542 0.88892 0.18585 0.0
C431 C 0.99454 0.87821 0.12799 0.0
C432 C 0.92172 0.89421 0.19924 0.0
C433 C 0.89463 0.89594 0.16952 0.0
C434 C 0.96006 0.88536 0.14224 0.0
C435 C 0.90153 0.89283 0.12603 0.0
C436 C 0.00292 0.87822 0.08486 0.0
C437 C 0.05064 0.86313 0.14801 0.0
N438 N 0.93356 0.88756 0.11368 0.0
N439 N 0.0188 0.87081 0.15788 0.0
H440 H 0.61022 0.52506 0.48842 0.0
H441 H 0.72528 0.41935 0.64783 0.0
H442 H 0.69328 0.56597 0.56281 0.0
H443 H 0.62028 0.40082 0.61634 0.0
H444 H 0.7227 0.46622 0.60041 0.0
H445 H 0.62367 0.47163 0.51779 0.0
C446 C 0.63178 0.52255 0.5102 0.0
C447 C 0.65094 0.54969 0.52295 0.0
C448 C 0.70053 0.45135 0.60358 0.0
C449 C 0.66603 0.4891 0.55721 0.0
C450 C 0.70185 0.42473 0.63081 0.0
C451 C 0.67295 0.40586 0.63663 0.0
C452 C 0.67029 0.45886 0.58157 0.0
C453 C 0.64355 0.41382 0.61272 0.0
C454 C 0.63938 0.49219 0.527 0.0
C455 C 0.6784 0.54539 0.55157 0.0
N456 N 0.64301 0.43968 0.58652 0.0
N457 N 0.68502 0.51563 0.56811 0.0
H458 H 0.96939 0.09292 0.04482 0.0
H459 H 0.11274 0.17847 0.19186 0.0
H460 H 0.9541 0.18622 0.1045 0.0
H461 H 0.10927 0.07686 0.15658 0.0
H462 H 0.05963 0.18652 0.15089 0.0
H463 H 0.02693 0.09264 0.07346 0.0
C464 C 0.97837 0.11361 0.06358 0.0
C465 C 0.95688 0.13943 0.07283 0.0
C466 C 0.07086 0.16261 0.15191 0.0
C467 C 0.02273 0.13898 0.10664 0.0
C468 C 0.10103 0.15791 0.17546 0.0
C469 C 0.11586 0.12696 0.17751 0.0
C470 C 0.05561 0.13622 0.13009 0.0
C471 C 0.09957 0.10135 0.15523 0.0
C472 C 0.01121 0.11338 0.08011 0.0
C473 C 0.96994 0.16581 0.09679 0.0
N474 N 0.07051 0.10659 0.13259 0.0
N475 N 0.00202 0.16473 0.11353 0.0
H476 H 0.13631 0.71551 0.07579 0.0
H477 H 0.31332 0.63551 0.12128 0.0
H478 H 0.22877 0.75298 0.02971 0.0
H479 H 0.2202 0.59482 0.16128 0.0
H480 H 0.28164 0.6716 0.07331 0.0
H481 H 0.16431 0.6639 0.09091 0.0
C482 C 0.16209 0.7122 0.06681 0.0
C483 C 0.18017 0.73818 0.05072 0.0
C484 C 0.26806 0.65432 0.09183 0.0
C485 C 0.21295 0.6801 0.07013 0.0
C486 C 0.28617 0.63374 0.11915 0.0
C487 C 0.26924 0.61221 0.14502 0.0
C488 C 0.23274 0.65384 0.09112 0.0
C489 C 0.23407 0.61107 0.14161 0.0
C490 C 0.17825 0.68292 0.07596 0.0
C491 C 0.21375 0.73317 0.04081 0.0
N492 N 0.21695 0.63191 0.1156 0.0
N493 N 0.22931 0.70494 0.05156 0.0
H494 H 0.69435 0.73716 0.55587 0.0
H495 H 0.7909 0.7293 0.78416 0.0
H496 H 0.69067 0.65535 0.63998 0.0
H497 H 0.78036 0.81776 0.71323 0.0
H498 H 0.75898 0.70047 0.72753 0.0
H499 H 0.73018 0.7659 0.60925 0.0
C500 C 0.70109 0.72522 0.58547 0.0
C501 C 0.68934 0.69383 0.59353 0.0
C502 C 0.76378 0.72615 0.7241 0.0
C503 C 0.73045 0.72648 0.65454 0.0
C504 C 0.78215 0.74256 0.75635 0.0
C505 C 0.78853 0.77587 0.7531 0.0
C506 C 0.75151 0.74314 0.68827 0.0
C507 C 0.77623 0.79198 0.71663 0.0
C508 C 0.72151 0.74165 0.61593 0.0
C509 C 0.69894 0.67956 0.63244 0.0
N510 N 0.75828 0.77548 0.68559 0.0
N511 N 0.71889 0.69595 0.66138 0.0
H512 H 0.8448 0.17597 0.19747 0.0
H513 H 0.68129 0.27722 0.25668 0.0
H514 H 0.76555 0.20071 0.10616 0.0
H515 H 0.77114 0.2754 0.3375 0.0
H516 H 0.70938 0.24354 0.20427 0.0
H517 H 0.8159 0.20691 0.2521 0.0
C518 C 0.82128 0.18783 0.18892 0.0
C519 C 0.8076 0.18577 0.14712 0.0
C520 C 0.72289 0.25021 0.23362 0.0
C521 C 0.77434 0.22105 0.20959 0.0
C522 C 0.70679 0.26921 0.26366 0.0
C523 C 0.72358 0.27839 0.30196 0.0
C524 C 0.75623 0.24037 0.24172 0.0
C525 C 0.75697 0.26821 0.30887 0.0
C526 C 0.80486 0.20555 0.22011 0.0
C527 C 0.7771 0.20171 0.13789 0.0
N528 N 0.77216 0.2496 0.27911 0.0
N529 N 0.76148 0.21857 0.16887 0.0
H530 H 0.23493 0.31287 0.66495 0.0
H531 H 0.20216 0.12342 0.69296 0.0
H532 H 0.2919 0.2386 0.60257 0.0
H533 H 0.15415 0.19883 0.76465 0.0
H534 H 0.22764 0.16492 0.6492 0.0
H535 H 0.19716 0.27132 0.69028 0.0
C536 C 0.23902 0.28778 0.65583 0.0
C537 C 0.2665 0.27909 0.63159 0.0
C538 C 0.21109 0.17238 0.67404 0.0
C539 C 0.22384 0.23125 0.66129 0.0
C540 C 0.19651 0.14873 0.69893 0.0
C541 C 0.17594 0.15782 0.73229 0.0
C542 C 0.20519 0.20533 0.6828 0.0
C543 C 0.16964 0.19087 0.739 0.0
C544 C 0.21753 0.26406 0.67042 0.0
C545 C 0.27069 0.24632 0.62062 0.0
N546 N 0.18439 0.21344 0.71468 0.0
N547 N 0.24985 0.22347 0.63609 0.0
H548 H 0.74004 0.72988 0.47572 0.0
H549 H 0.73142 0.86485 0.29924 0.0
H550 H 0.64869 0.77317 0.42602 0.0
H551 H 0.82076 0.81228 0.33747 0.0
H552 H 0.70376 0.84479 0.36216 0.0
H553 H 0.77219 0.77377 0.44476 0.0
C554 C 0.72665 0.7497 0.46037 0.0
C555 C 0.69178 0.74803 0.45322 0.0
C556 C 0.72961 0.83806 0.35725 0.0
C557 C 0.72822 0.79726 0.41599 0.0
C558 C 0.74531 0.84944 0.32134 0.0
C559 C 0.77792 0.83927 0.31265 0.0
C560 C 0.74672 0.81633 0.38457 0.0
C561 C 0.79523 0.81994 0.34261 0.0
C562 C 0.74502 0.77444 0.44199 0.0
C563 C 0.67561 0.77379 0.43227 0.0
N564 N 0.77921 0.80857 0.37684 0.0
N565 N 0.694 0.79695 0.41342 0.0
H566 H 0.76274 0.17859 0.92148 0.0
H567 H 0.74611 0.36622 0.87523 0.0
H568 H 0.78517 0.2524 0.01638 0.0
H569 H 0.71816 0.29059 0.78498 0.0
H570 H 0.75042 0.32567 0.9317 0.0
H571 H 0.73471 0.21904 0.87672 0.0
C572 C 0.76055 0.20323 0.93349 0.0
C573 C 0.77601 0.21231 0.97257 0.0
C574 C 0.74291 0.31795 0.89969 0.0
C575 C 0.74565 0.25917 0.92068 0.0
C576 C 0.7406 0.34105 0.86751 0.0
C577 C 0.73274 0.33141 0.82536 0.0
C578 C 0.73727 0.28505 0.88951 0.0
C579 C 0.72505 0.29876 0.81699 0.0
C580 C 0.74489 0.22643 0.90777 0.0
C581 C 0.77314 0.24453 0.98655 0.0
N582 N 0.72799 0.27667 0.84864 0.0
N583 N 0.75894 0.26707 0.96013 0.0
H584 H 0.33079 0.20884 0.50162 0.0
H585 H 0.15222 0.18373 0.3875 0.0
H586 H 0.24868 0.27515 0.51826 0.0
H587 H 0.23172 0.113 0.38562 0.0
H588 H 0.18363 0.21384 0.44386 0.0
H589 H 0.29161 0.16903 0.47021 0.0
C590 C 0.30422 0.21456 0.49975 0.0
C591 C 0.29285 0.24524 0.51219 0.0
C592 C 0.19393 0.19141 0.43177 0.0
C593 C 0.24797 0.20045 0.47458 0.0
C594 C 0.17604 0.17429 0.39963 0.0
C595 C 0.1894 0.1458 0.3823 0.0
C596 C 0.22568 0.18021 0.44605 0.0
C597 C 0.22053 0.13476 0.39848 0.0
C598 C 0.28185 0.19195 0.48152 0.0
C599 C 0.25831 0.25164 0.50902 0.0
N600 N 0.23773 0.15211 0.42918 0.0
N601 N 0.23709 0.22968 0.48955 0.0
H602 H 0.20001 0.76177 0.94876 0.0
H603 H 0.3718 0.75108 0.824 0.0
H604 H 0.28094 0.83109 0.96364 0.0
H605 H 0.29501 0.6775 0.81343 0.0
H606 H 0.33864 0.78028 0.87604 0.0
H607 H 0.23454 0.72933 0.90123 0.0
C608 C 0.2252 0.76991 0.94256 0.0
C609 C 0.23763 0.79915 0.96032 0.0
C610 C 0.32901 0.75768 0.86258 0.0
C611 C 0.27698 0.76257 0.90528 0.0
C612 C 0.34795 0.74107 0.83285 0.0
C613 C 0.33627 0.71168 0.81497 0.0
C614 C 0.29792 0.745 0.87424 0.0
C615 C 0.30497 0.69995 0.82695 0.0
C616 C 0.24482 0.7515 0.9152 0.0
C617 C 0.27028 0.80875 0.95066 0.0
N618 N 0.28687 0.7166 0.8559 0.0
N619 N 0.28868 0.79063 0.92372 0.0
loop_
_geom_bond_atom_site_label_1
_geom_bond_atom_site_label_2
_geom_bond_distance
_geom_bond_site_symmetry_2
_ccdc_geom_bond_type
Zn0 O6 1.920 . S
Zn0 O12 1.898 . S
Zn0 O15 1.905 . S
Zn1 O9 1.905 . S
Zn1 O10 1.898 . S
Zn1 O18 1.920 . S
Zn2 O5 2.081 . S
Zn2 O8 2.114 1_554 S
Zn2 O11 2.120 1_554 S
Zn2 O13 2.120 . S
Zn2 O14 2.114 . S
Zn2 O17 2.080 1_554 S
C3 O8 1.166 . S
C3 O9 1.182 . S
C4 O10 1.167 . S
C4 O11 1.299 . S
O5 Zn2 2.081 . S
O5 C19 1.305 . S
O6 Zn0 1.920 . S
O6 C19 1.234 . S
C7 O12 1.167 . S
C7 O13 1.299 . S
O8 Zn2 2.114 1_556 S
O8 C3 1.166 . S
O9 Zn1 1.905 . S
O9 C3 1.182 . S
O10 Zn1 1.898 . S
O10 C4 1.167 . S
O11 Zn2 2.120 1_556 S
O11 C4 1.299 . S
O12 Zn0 1.898 . S
O12 C7 1.167 . S
O13 Zn2 2.120 . S
O13 C7 1.299 . S
O14 Zn2 2.114 . S
O14 C16 1.166 . S
O15 Zn0 1.905 . S
O15 C16 1.182 . S
C16 O14 1.166 . S
C16 O15 1.182 . S
O17 Zn2 2.080 1_556 S
O17 C20 1.305 . S
O18 Zn1 1.920 . S
O18 C20 1.234 . S
C19 O5 1.305 . S
C19 O6 1.234 . S
C20 O17 1.305 . S
C20 O18 1.234 . S
Zn21 O27 1.920 . S
Zn21 O33 1.898 . S
Zn21 O36 1.905 . S
Zn22 O30 1.905 . S
Zn22 O31 1.898 . S
Zn22 O39 1.920 . S
Zn23 O26 2.080 . S
Zn23 O29 2.114 . S
Zn23 O32 2.120 . S
Zn23 O34 2.120 . S
Zn23 O35 2.114 . S
Zn23 O38 2.080 . S
C24 O29 1.166 . S
C24 O30 1.182 . S
C25 O31 1.167 . S
C25 O32 1.299 . S
O26 Zn23 2.080 . S
O26 C40 1.305 . S
O27 Zn21 1.920 . S
O27 C40 1.234 . S
C28 O33 1.167 . S
C28 O34 1.299 . S
O29 Zn23 2.114 . S
O29 C24 1.166 . S
O30 Zn22 1.905 . S
O30 C24 1.182 . S
O31 Zn22 1.898 . S
O31 C25 1.167 . S
O32 Zn23 2.120 . S
O32 C25 1.299 . S
O33 Zn21 1.898 . S
O33 C28 1.167 . S
O34 Zn23 2.120 . S
O34 C28 1.299 . S
O35 Zn23 2.114 . S
O35 C37 1.166 . S
O36 Zn21 1.905 . S
O36 C37 1.182 . S
C37 O35 1.166 . S
C37 O36 1.182 . S
O38 Zn23 2.080 . S
O38 C41 1.305 . S
O39 Zn22 1.920 . S
O39 C41 1.234 . S
C40 O26 1.305 . S
C40 O27 1.234 . S
C41 O38 1.305 . S
C41 O39 1.234 . S
Zn42 O48 1.920 . S
Zn42 O54 1.898 . S
Zn42 O57 1.905 . S
Zn43 O51 1.905 . S
Zn43 O52 1.898 . S
Zn43 O60 1.920 . S
Zn44 O47 2.080 1_554 S
Zn44 O50 2.114 . S
Zn44 O53 2.120 . S
Zn44 O55 2.120 . S
Zn44 O56 2.114 1_554 S
Zn44 O59 2.080 . S
C45 O50 1.166 . S
C45 O51 1.182 . S
C46 O52 1.167 . S
C46 O53 1.299 . S
O47 Zn44 2.080 1_556 S
O47 C61 1.305 . S
O48 Zn42 1.920 . S
O48 C61 1.234 . S
C49 O54 1.167 . S
C49 O55 1.299 1_556 S
O50 Zn44 2.114 . S
O50 C45 1.166 . S
O51 Zn43 1.905 . S
O51 C45 1.182 . S
O52 Zn43 1.898 . S
O52 C46 1.167 . S
O53 Zn44 2.120 . S
O53 C46 1.299 . S
O54 Zn42 1.898 . S
O54 C49 1.167 . S
O55 Zn44 2.120 . S
O55 C49 1.299 1_554 S
O56 Zn44 2.114 1_556 S
O56 C58 1.166 . S
O57 Zn42 1.905 . S
O57 C58 1.182 . S
C58 O56 1.166 . S
C58 O57 1.182 . S
O59 Zn44 2.080 . S
O59 C62 1.305 . S
O60 Zn43 1.920 . S
O60 C62 1.234 . S
C61 O47 1.305 . S
C61 O48 1.234 . S
C62 O59 1.305 . S
C62 O60 1.234 . S
Zn63 O69 1.920 . S
Zn63 O75 1.898 . S
Zn63 O78 1.905 . S
Zn64 O72 1.905 . S
Zn64 O73 1.898 . S
Zn64 O81 1.920 . S
Zn65 O68 2.080 . S
Zn65 O71 2.114 . S
Zn65 O74 2.120 . S
Zn65 O76 2.120 . S
Zn65 O77 2.114 . S
Zn65 O80 2.080 . S
C66 O71 1.166 . S
C66 O72 1.182 . S
C67 O73 1.167 . S
C67 O74 1.299 . S
O68 Zn65 2.080 . S
O68 C82 1.305 . S
O69 Zn63 1.920 . S
O69 C82 1.234 . S
C70 O75 1.167 . S
C70 O76 1.299 . S
O71 Zn65 2.114 . S
O71 C66 1.166 . S
O72 Zn64 1.905 . S
O72 C66 1.182 . S
O73 Zn64 1.898 . S
O73 C67 1.167 . S
O74 Zn65 2.120 . S
O74 C67 1.299 . S
O75 Zn63 1.898 . S
O75 C70 1.167 . S
O76 Zn65 2.120 . S
O76 C70 1.299 . S
O77 Zn65 2.114 . S
O77 C79 1.166 . S
O78 Zn63 1.905 . S
O78 C79 1.182 . S
C79 O77 1.166 . S
C79 O78 1.182 . S
O80 Zn65 2.080 . S
O80 C83 1.305 . S
O81 Zn64 1.920 . S
O81 C83 1.234 . S
C82 O68 1.305 . S
C82 O69 1.234 . S
C83 O80 1.305 . S
C83 O81 1.234 . S
H84 C91 0.929 . S
H85 C94 0.930 . S
H86 C96 0.929 . S
H87 C88 0.969 . S
C88 H87 0.969 . S
C88 O89 1.550 . S
C88 H90 0.973 . S
O89 C88 1.550 . S
O89 C95 1.412 . S
H90 C88 0.973 . S
C91 H84 0.929 . S
C91 C92 1.400 . S
C91 C93 1.364 . S
C92 C91 1.400 . S
C92 C96 1.377 . S
C93 C91 1.364 . S
C93 C94 1.374 . S
C94 H85 0.930 . S
C94 C93 1.374 . S
C94 C95 1.383 . S
C95 O89 1.412 . S
C95 C94 1.383 . S
C95 C96 1.394 . S
C96 H86 0.929 . S
C96 C92 1.377 . S
C96 C95 1.394 . S
H97 C104 0.929 . S
H98 C107 0.930 . S
H99 C109 0.929 . S
H100 C101 0.969 . S
C101 H100 0.969 . S
C101 O102 1.550 . S
C101 H103 0.973 . S
O102 C101 1.550 . S
O102 C108 1.412 . S
H103 C101 0.973 . S
C104 H97 0.929 . S
C104 C105 1.400 . S
C104 C106 1.364 . S
C105 C104 1.400 . S
C105 C109 1.377 . S
C106 C104 1.364 . S
C106 C107 1.374 . S
C107 H98 0.930 . S
C107 C106 1.374 . S
C107 C108 1.383 . S
C108 O102 1.412 . S
C108 C107 1.383 . S
C108 C109 1.394 . S
C109 H99 0.929 . S
C109 C105 1.377 . S
C109 C108 1.394 . S
H110 C117 0.929 . S
H111 C120 0.930 . S
H112 C122 0.929 . S
H113 C114 0.969 . S
C114 H113 0.969 . S
C114 O115 1.550 . S
C114 H116 0.973 . S
O115 C114 1.550 . S
O115 C121 1.412 . S
H116 C114 0.973 . S
C117 H110 0.929 . S
C117 C118 1.400 . S
C117 C119 1.364 . S
C118 C117 1.400 . S
C118 C122 1.377 . S
C119 C117 1.364 . S
C119 C120 1.374 . S
C120 H111 0.930 . S
C120 C119 1.374 . S
C120 C121 1.383 . S
C121 O115 1.412 . S
C121 C120 1.383 . S
C121 C122 1.394 . S
C122 H112 0.929 . S
C122 C118 1.377 . S
C122 C121 1.394 . S
H123 C130 0.929 . S
H124 C133 0.930 . S
H125 C135 0.929 . S
H126 C127 0.969 . S
C127 H126 0.969 . S
C127 O128 1.550 . S
C127 H129 0.973 . S
O128 C127 1.550 . S
O128 C134 1.412 . S
H129 C127 0.973 . S
C130 H123 0.929 . S
C130 C131 1.400 . S
C130 C132 1.364 . S
C131 C130 1.400 . S
C131 C135 1.377 . S
C132 C130 1.364 . S
C132 C133 1.374 . S
C133 H124 0.930 . S
C133 C132 1.374 . S
C133 C134 1.383 . S
C134 O128 1.412 . S
C134 C133 1.383 . S
C134 C135 1.394 . S
C135 H125 0.929 . S
C135 C131 1.377 . S
C135 C134 1.394 . S
H136 C143 0.929 . S
H137 C146 0.930 . S
H138 C148 0.929 . S
H139 C140 0.969 . S
C140 H139 0.969 . S
C140 O141 1.550 . S
C140 H142 0.973 . S
O141 C140 1.550 . S
O141 C147 1.412 . S
H142 C140 0.973 . S
C143 H136 0.929 . S
C143 C144 1.400 . S
C143 C145 1.364 . S
C144 C143 1.400 . S
C144 C148 1.377 . S
C145 C143 1.364 . S
C145 C146 1.374 . S
C146 H137 0.930 . S
C146 C145 1.374 . S
C146 C147 1.383 . S
C147 O141 1.412 . S
C147 C146 1.383 . S
C147 C148 1.394 . S
C148 H138 0.929 . S
C148 C144 1.377 . S
C148 C147 1.394 . S
H149 C156 0.929 . S
H150 C159 0.930 . S
H151 C161 0.929 . S
H152 C153 0.969 . S
C153 H152 0.969 . S
C153 O154 1.550 . S
C153 H155 0.973 . S
O154 C153 1.550 . S
O154 C160 1.412 . S
H155 C153 0.973 . S
C156 H149 0.929 . S
C156 C157 1.400 . S
C156 C158 1.364 . S
C157 C156 1.400 . S
C157 C161 1.377 . S
C158 C156 1.364 . S
C158 C159 1.374 . S
C159 H150 0.930 . S
C159 C158 1.374 . S
C159 C160 1.383 . S
C160 O154 1.412 . S
C160 C159 1.383 . S
C160 C161 1.394 . S
C161 H151 0.929 . S
C161 C157 1.377 . S
C161 C160 1.394 . S
H162 C169 0.929 . S
H163 C172 0.930 . S
H164 C174 0.929 . S
H165 C166 0.969 . S
C166 H165 0.969 . S
C166 O167 1.550 . S
C166 H168 0.973 . S
O167 C166 1.550 . S
O167 C173 1.412 . S
H168 C166 0.973 . S
C169 H162 0.929 . S
C169 C170 1.400 . S
C169 C171 1.364 . S
C170 C169 1.400 . S
C170 C174 1.377 . S
C171 C169 1.364 . S
C171 C172 1.374 . S
C172 H163 0.930 . S
C172 C171 1.374 . S
C172 C173 1.383 . S
C173 O167 1.412 . S
C173 C172 1.383 . S
C173 C174 1.394 . S
C174 H164 0.929 . S
C174 C170 1.377 . S
C174 C173 1.394 . S
H175 C182 0.929 . S
H176 C185 0.930 . S
H177 C187 0.929 . S
H178 C179 0.969 . S
C179 H178 0.969 . S
C179 O180 1.550 . S
C179 H181 0.973 . S
O180 C179 1.550 . S
O180 C186 1.412 . S
H181 C179 0.973 . S
C182 H175 0.929 . S
C182 C183 1.400 . S
C182 C184 1.364 . S
C183 C182 1.400 . S
C183 C187 1.377 . S
C184 C182 1.364 . S
C184 C185 1.374 . S
C185 H176 0.930 . S
C185 C184 1.374 . S
C185 C186 1.383 . S
C186 O180 1.412 . S
C186 C185 1.383 . S
C186 C187 1.394 . S
C187 H177 0.929 . S
C187 C183 1.377 . S
C187 C186 1.394 . S
H188 C194 0.930 . S
H189 C198 0.937 . S
H190 C203 0.929 . S
H191 C201 0.929 . S
H192 C196 0.929 . S
H193 C202 0.929 . S
C194 H188 0.930 . S
C194 C195 1.367 . S
C194 C202 1.378 . S
C195 C194 1.367 . S
C195 C203 1.433 . S
C196 H192 0.929 . S
C196 C198 1.394 . S
C196 C200 1.350 . S
C197 C200 1.463 . S
C197 C202 1.350 . S
C197 N205 1.427 . S
C198 H189 0.937 . S
C198 C196 1.394 . S
C198 C199 1.344 1_565 S
C199 C198 1.344 1_545 S
C199 C201 1.433 . S
C200 C196 1.350 . S
C200 C197 1.463 . S
C200 N204 1.427 1_565 S
C201 H191 0.929 . S
C201 C199 1.433 . S
C201 N204 1.384 . S
C202 H193 0.929 . S
C202 C194 1.378 . S
C202 C197 1.350 . S
C203 H190 0.929 . S
C203 C195 1.433 . S
C203 N205 1.384 . S
N204 C200 1.427 1_545 S
N204 C201 1.384 . S
N205 C197 1.427 . S
N205 C203 1.384 . S
H206 C212 0.930 . S
H207 C216 0.930 . S
H208 C221 0.929 . S
H209 C219 0.929 . S
H210 C214 0.929 . S
H211 C220 0.929 . S
C212 H206 0.930 . S
C212 C213 1.367 . S
C212 C220 1.378 . S
C213 C212 1.367 . S
C213 C221 1.433 . S
C214 H210 0.929 . S
C214 C216 1.378 . S
C214 C218 1.350 . S
C215 C218 1.463 . S
C215 C220 1.350 . S
C215 N223 1.427 . S
C216 H207 0.930 . S
C216 C214 1.378 . S
C216 C217 1.367 . S
C217 C216 1.367 . S
C217 C219 1.433 . S
C218 C214 1.350 . S
C218 C215 1.463 . S
C218 N222 1.427 . S
C219 H209 0.929 . S
C219 C217 1.433 . S
C219 N222 1.384 . S
C220 H211 0.929 . S
C220 C212 1.378 . S
C220 C215 1.350 . S
C221 H208 0.929 . S
C221 C213 1.433 . S
C221 N223 1.384 . S
N222 C218 1.427 . S
N222 C219 1.384 . S
N223 C215 1.427 . S
N223 C221 1.384 . S
H224 C230 0.930 . S
H225 C234 0.930 . S
H226 C239 0.929 . S
H227 C237 0.929 . S
H228 C232 0.929 . S
H229 C238 0.929 . S
C230 H224 0.930 . S
C230 C231 1.367 . S
C230 C238 1.378 1_545 S
C231 C230 1.367 . S
C231 C239 1.433 . S
C232 H228 0.929 . S
C232 C234 1.378 . S
C232 C236 1.350 . S
C233 C236 1.463 . S
C233 C238 1.350 . S
C233 N241 1.427 1_565 S
C234 H225 0.930 . S
C234 C232 1.378 . S
C234 C235 1.367 . S
C235 C234 1.367 . S
C235 C237 1.433 . S
C236 C232 1.350 . S
C236 C233 1.463 . S
C236 N240 1.427 . S
C237 H227 0.929 . S
C237 C235 1.433 . S
C237 N240 1.384 . S
C238 H229 0.929 . S
C238 C230 1.378 1_565 S
C238 C233 1.350 . S
C239 H226 0.929 . S
C239 C231 1.433 . S
C239 N241 1.384 . S
N240 C236 1.427 . S
N240 C237 1.384 . S
N241 C233 1.427 1_545 S
N241 C239 1.384 . S
H242 C248 0.930 . S
H243 C252 0.930 . S
H244 C257 0.929 . S
H245 C255 0.929 . S
H246 C250 0.929 . S
H247 C256 0.929 . S
C248 H242 0.930 . S
C248 C249 1.367 . S
C248 C256 1.378 . S
C249 C248 1.367 . S
C249 C257 1.433 . S
C250 H246 0.929 . S
C250 C252 1.378 . S
C250 C254 1.350 . S
C251 C254 1.463 . S
C251 C256 1.350 . S
C251 N259 1.427 . S
C252 H243 0.930 . S
C252 C250 1.378 . S
C252 C253 1.367 . S
C253 C252 1.367 . S
C253 C255 1.433 . S
C254 C250 1.350 . S
C254 C251 1.463 . S
C254 N258 1.427 . S
C255 H245 0.929 . S
C255 C253 1.433 . S
C255 N258 1.384 . S
C256 H247 0.929 . S
C256 C248 1.378 . S
C256 C251 1.350 . S
C257 H244 0.929 . S
C257 C249 1.433 . S
C257 N259 1.384 . S
N258 C254 1.427 . S
N258 C255 1.384 . S
N259 C251 1.427 . S
N259 C257 1.384 . S
H260 C266 0.930 . S
H261 C270 0.930 . S
H262 C275 0.929 . S
H263 C273 0.929 . S
H264 C268 0.929 . S
H265 C274 0.929 . S
C266 H260 0.930 . S
C266 C267 1.367 . S
C266 C274 1.378 . S
C267 C266 1.367 . S
C267 C275 1.433 . S
C268 H264 0.929 . S
C268 C270 1.378 . S
C268 C272 1.350 . S
C269 C272 1.463 . S
C269 C274 1.350 . S
C269 N277 1.427 . S
C270 H261 0.930 . S
C270 C268 1.378 . S
C270 C271 1.367 . S
C271 C270 1.367 . S
C271 C273 1.433 . S
C272 C268 1.350 . S
C272 C269 1.463 . S
C272 N276 1.427 . S
C273 H263 0.929 . S
C273 C271 1.433 . S
C273 N276 1.384 . S
C274 H265 0.929 . S
C274 C266 1.378 . S
C274 C269 1.350 . S
C275 H262 0.929 . S
C275 C267 1.433 . S
C275 N277 1.384 . S
N276 C272 1.427 . S
N276 C273 1.384 . S
N277 C269 1.427 . S
N277 C275 1.384 . S
H278 C284 0.930 . S
H279 C288 0.930 . S
H280 C293 0.929 . S
H281 C291 0.929 . S
H282 C286 0.929 . S
H283 C292 0.929 1_455 S
C284 H278 0.930 . S
C284 C285 1.367 . S
C284 C292 1.378 . S
C285 C284 1.367 . S
C285 C293 1.433 . S
C286 H282 0.929 . S
C286 C288 1.378 . S
C286 C290 1.350 . S
C287 C290 1.463 . S
C287 C292 1.350 1_455 S
C287 N295 1.427 1_455 S
C288 H279 0.930 . S
C288 C286 1.378 . S
C288 C289 1.367 . S
C289 C288 1.367 . S
C289 C291 1.433 . S
C290 C286 1.350 . S
C290 C287 1.463 . S
C290 N294 1.427 . S
C291 H281 0.929 . S
C291 C289 1.433 . S
C291 N294 1.384 . S
C292 H283 0.929 1_655 S
C292 C284 1.378 . S
C292 C287 1.350 1_655 S
C293 H280 0.929 . S
C293 C285 1.433 . S
C293 N295 1.384 . S
N294 C290 1.427 . S
N294 C291 1.384 . S
N295 C287 1.427 1_655 S
N295 C293 1.384 . S
H296 C302 0.930 . S
H297 C306 0.930 . S
H298 C311 0.929 . S
H299 C309 0.929 . S
H300 C304 0.929 . S
H301 C310 0.929 . S
C302 H296 0.930 . S
C302 C303 1.367 . S
C302 C310 1.378 . S
C303 C302 1.367 . S
C303 C311 1.433 . S
C304 H300 0.929 . S
C304 C306 1.378 . S
C304 C308 1.350 . S
C305 C308 1.463 . S
C305 C310 1.350 . S
C305 N313 1.427 . S
C306 H297 0.930 . S
C306 C304 1.378 . S
C306 C307 1.367 . S
C307 C306 1.367 . S
C307 C309 1.433 . S
C308 C304 1.350 . S
C308 C305 1.463 . S
C308 N312 1.427 . S
C309 H299 0.929 . S
C309 C307 1.433 . S
C309 N312 1.384 . S
C310 H301 0.929 . S
C310 C302 1.378 . S
C310 C305 1.350 . S
C311 H298 0.929 . S
C311 C303 1.433 . S
C311 N313 1.384 . S
N312 C308 1.427 . S
N312 C309 1.384 . S
N313 C305 1.427 . S
N313 C311 1.384 . S
H314 C320 0.930 . S
H315 C324 0.930 . S
H316 C329 0.929 . S
H317 C327 0.929 . S
H318 C322 0.929 . S
H319 C328 0.929 . S
C320 H314 0.930 . S
C320 C321 1.367 . S
C320 C328 1.378 . S
C321 C320 1.367 . S
C321 C329 1.433 . S
C322 H318 0.929 . S
C322 C324 1.378 . S
C322 C326 1.350 . S
C323 C326 1.463 1_455 S
C323 C328 1.350 . S
C323 N331 1.427 . S
C324 H315 0.930 . S
C324 C322 1.378 . S
C324 C325 1.367 . S
C325 C324 1.367 . S
C325 C327 1.433 . S
C326 C322 1.350 . S
C326 C323 1.463 1_655 S
C326 N330 1.427 . S
C327 H317 0.929 . S
C327 C325 1.433 . S
C327 N330 1.384 . S
C328 H319 0.929 . S
C328 C320 1.378 . S
C328 C323 1.350 . S
C329 H316 0.929 . S
C329 C321 1.433 . S
C329 N331 1.384 . S
N330 C326 1.427 . S
N330 C327 1.384 . S
N331 C323 1.427 . S
N331 C329 1.384 . S
H332 C338 0.930 . S
H333 C342 0.930 . S
H334 C347 0.929 . S
H335 C345 0.929 . S
H336 C340 0.929 . S
H337 C346 0.929 . S
C338 H332 0.930 . S
C338 C339 1.367 . S
C338 C346 1.378 . S
C339 C338 1.367 . S
C339 C347 1.433 . S
C340 H336 0.929 . S
C340 C342 1.378 . S
C340 C344 1.350 . S
C341 C344 1.463 . S
C341 C346 1.350 1_565 S
C341 N349 1.427 . S
C342 H333 0.930 . S
C342 C340 1.378 . S
C342 C343 1.367 . S
C343 C342 1.367 . S
C343 C345 1.433 . S
C344 C340 1.350 . S
C344 C341 1.463 . S
C344 N348 1.427 . S
C345 H335 0.929 . S
C345 C343 1.433 . S
C345 N348 1.384 . S
C346 H337 0.929 . S
C346 C338 1.378 . S
C346 C341 1.350 1_545 S
C347 H334 0.929 . S
C347 C339 1.433 . S
C347 N349 1.384 1_545 S
N348 C344 1.427 . S
N348 C345 1.384 . S
N349 C341 1.427 . S
N349 C347 1.384 1_565 S
H350 C356 0.930 . S
H351 C360 0.930 . S
H352 C365 0.929 . S
H353 C363 0.929 . S
H354 C358 0.929 . S
H355 C364 0.929 . S
C356 H350 0.930 . S
C356 C357 1.367 . S
C356 C364 1.378 . S
C357 C356 1.367 . S
C357 C365 1.433 . S
C358 H354 0.929 . S
C358 C360 1.378 . S
C358 C362 1.350 . S
C359 C362 1.463 . S
C359 C364 1.350 . S
C359 N367 1.427 . S
C360 H351 0.930 . S
C360 C358 1.378 . S
C360 C361 1.367 . S
C361 C360 1.367 . S
C361 C363 1.433 . S
C362 C358 1.350 . S
C362 C359 1.463 . S
C362 N366 1.427 . S
C363 H353 0.929 . S
C363 C361 1.433 . S
C363 N366 1.384 . S
C364 H355 0.929 . S
C364 C356 1.378 . S
C364 C359 1.350 . S
C365 H352 0.929 . S
C365 C357 1.433 . S
C365 N367 1.384 . S
N366 C362 1.427 . S
N366 C363 1.384 . S
N367 C359 1.427 . S
N367 C365 1.384 . S
H368 C374 0.930 1_554 S
H369 C378 0.930 . S
H370 C383 0.929 . S
H371 C381 0.929 . S
H372 C376 0.929 . S
H373 C382 0.929 . S
C374 H368 0.930 1_556 S
C374 C375 1.367 . S
C374 C382 1.378 1_565 S
C375 C374 1.367 . S
C375 C383 1.433 . S
C376 H372 0.929 . S
C376 C378 1.378 . S
C376 C380 1.350 . S
C377 C380 1.463 . S
C377 C382 1.350 . S
C377 N385 1.432 . S
C378 H369 0.930 . S
C378 C376 1.378 . S
C378 C379 1.367 . S
C379 C378 1.367 . S
C379 C381 1.433 . S
C380 C376 1.350 . S
C380 C377 1.463 . S
C380 N384 1.427 . S
C381 H371 0.929 . S
C381 C379 1.433 . S
C381 N384 1.384 . S
C382 H373 0.929 . S
C382 C374 1.378 1_545 S
C382 C377 1.350 . S
C383 H370 0.929 . S
C383 C375 1.433 . S
C383 N385 1.378 1_565 S
N384 C380 1.427 . S
N384 C381 1.384 . S
N385 C377 1.432 . S
N385 C383 1.378 1_545 S
H386 C392 0.930 . S
H387 C396 0.930 . S
H388 C401 0.929 . S
H389 C399 0.929 . S
H390 C394 0.929 . S
H391 C400 0.929 . S
C392 H386 0.930 . S
C392 C393 1.367 . S
C392 C400 1.378 . S
C393 C392 1.367 . S
C393 C401 1.433 . S
C394 H390 0.929 . S
C394 C396 1.378 . S
C394 C398 1.350 . S
C395 C398 1.463 . S
C395 C400 1.350 . S
C395 N403 1.427 . S
C396 H387 0.930 . S
C396 C394 1.378 . S
C396 C397 1.367 . S
C397 C396 1.367 . S
C397 C399 1.433 . S
C398 C394 1.350 . S
C398 C395 1.463 . S
C398 N402 1.427 . S
C399 H389 0.929 . S
C399 C397 1.433 . S
C399 N402 1.384 . S
C400 H391 0.929 . S
C400 C392 1.378 . S
C400 C395 1.350 . S
C401 H388 0.929 . S
C401 C393 1.433 . S
C401 N403 1.384 . S
N402 C398 1.427 . S
N402 C399 1.384 . S
N403 C395 1.427 . S
N403 C401 1.384 . S
H404 C410 0.930 . S
H405 C414 0.930 . S
H406 C419 0.929 . S
H407 C417 0.929 . S
H408 C412 0.929 . S
H409 C418 0.929 . S
C410 H404 0.930 . S
C410 C411 1.367 . S
C410 C418 1.378 . S
C411 C410 1.367 . S
C411 C419 1.433 . S
C412 H408 0.929 . S
C412 C414 1.378 . S
C412 C416 1.350 . S
C413 C416 1.463 . S
C413 C418 1.350 . S
C413 N421 1.427 . S
C414 H405 0.930 . S
C414 C412 1.378 . S
C414 C415 1.367 . S
C415 C414 1.367 . S
C415 C417 1.433 . S
C416 C412 1.350 . S
C416 C413 1.463 . S
C416 N420 1.427 . S
C417 H407 0.929 . S
C417 C415 1.433 . S
C417 N420 1.384 . S
C418 H409 0.929 . S
C418 C410 1.378 . S
C418 C413 1.350 . S
C419 H406 0.929 . S
C419 C411 1.433 . S
C419 N421 1.384 . S
N420 C416 1.427 . S
N420 C417 1.384 . S
N421 C413 1.427 . S
N421 C419 1.384 . S
H422 C428 0.930 . S
H423 C432 0.930 . S
H424 C437 0.929 . S
H425 C435 0.929 . S
H426 C430 0.929 . S
H427 C436 0.929 . S
C428 H422 0.930 . S
C428 C429 1.367 . S
C428 C436 1.378 1_455 S
C429 C428 1.367 . S
C429 C437 1.433 . S
C430 H426 0.929 . S
C430 C432 1.378 . S
C430 C434 1.350 . S
C431 C434 1.463 . S
C431 C436 1.350 . S
C431 N439 1.427 . S
C432 H423 0.930 . S
C432 C430 1.378 . S
C432 C433 1.367 . S
C433 C432 1.367 . S
C433 C435 1.433 . S
C434 C430 1.350 . S
C434 C431 1.463 . S
C434 N438 1.427 . S
C435 H425 0.929 . S
C435 C433 1.433 . S
C435 N438 1.384 . S
C436 H427 0.929 . S
C436 C428 1.378 1_655 S
C436 C431 1.350 . S
C437 H424 0.929 . S
C437 C429 1.433 . S
C437 N439 1.384 1_455 S
N438 C434 1.427 . S
N438 C435 1.384 . S
N439 C431 1.427 . S
N439 C437 1.384 1_655 S
H440 C446 0.930 . S
H441 C450 0.930 . S
H442 C455 0.929 . S
H443 C453 0.929 . S
H444 C448 0.929 . S
H445 C454 0.929 . S
C446 H440 0.930 . S
C446 C447 1.367 . S
C446 C454 1.378 . S
C447 C446 1.367 . S
C447 C455 1.433 . S
C448 H444 0.929 . S
C448 C450 1.378 . S
C448 C452 1.350 . S
C449 C452 1.463 . S
C449 C454 1.350 . S
C449 N457 1.427 . S
C450 H441 0.930 . S
C450 C448 1.378 . S
C450 C451 1.367 . S
C451 C450 1.367 . S
C451 C453 1.433 . S
C452 C448 1.350 . S
C452 C449 1.463 . S
C452 N456 1.427 . S
C453 H443 0.929 . S
C453 C451 1.433 . S
C453 N456 1.384 . S
C454 H445 0.929 . S
C454 C446 1.378 . S
C454 C449 1.350 . S
C455 H442 0.929 . S
C455 C447 1.433 . S
C455 N457 1.384 . S
N456 C452 1.427 . S
N456 C453 1.384 . S
N457 C449 1.427 . S
N457 C455 1.384 . S
H458 C464 0.930 . S
H459 C468 0.930 . S
H460 C473 0.928 1_655 S
H461 C471 0.929 . S
H462 C466 0.929 . S
H463 C472 0.929 . S
C464 H458 0.930 . S
C464 C465 1.367 . S
C464 C472 1.378 1_655 S
C465 C464 1.367 . S
C465 C473 1.433 1_655 S
C466 H462 0.929 . S
C466 C468 1.378 . S
C466 C470 1.350 . S
C467 C470 1.463 . S
C467 C472 1.350 . S
C467 N475 1.427 . S
C468 H459 0.930 . S
C468 C466 1.378 . S
C468 C469 1.367 . S
C469 C468 1.367 . S
C469 C471 1.433 . S
C470 C466 1.350 . S
C470 C467 1.463 . S
C470 N474 1.427 . S
C471 H461 0.929 . S
C471 C469 1.433 . S
C471 N474 1.384 . S
C472 H463 0.929 . S
C472 C464 1.378 1_455 S
C472 C467 1.350 . S
C473 H460 0.928 1_455 S
C473 C465 1.433 1_455 S
C473 N475 1.384 . S
N474 C470 1.427 . S
N474 C471 1.384 . S
N475 C467 1.427 . S
N475 C473 1.384 . S
H476 C482 0.930 . S
H477 C486 0.930 . S
H478 C491 0.929 . S
H479 C489 0.929 . S
H480 C484 0.929 . S
H481 C490 0.929 . S
C482 H476 0.930 . S
C482 C483 1.367 . S
C482 C490 1.378 . S
C483 C482 1.367 . S
C483 C491 1.433 . S
C484 H480 0.929 . S
C484 C486 1.378 . S
C484 C488 1.350 . S
C485 C488 1.463 . S
C485 C490 1.350 . S
C485 N493 1.427 . S
C486 H477 0.930 . S
C486 C484 1.378 . S
C486 C487 1.367 . S
C487 C486 1.367 . S
C487 C489 1.433 . S
C488 C484 1.350 . S
C488 C485 1.463 . S
C488 N492 1.427 . S
C489 H479 0.929 . S
C489 C487 1.433 . S
C489 N492 1.384 . S
C490 H481 0.929 . S
C490 C482 1.378 . S
C490 C485 1.350 . S
C491 H478 0.929 . S
C491 C483 1.433 . S
C491 N493 1.384 . S
N492 C488 1.427 . S
N492 C489 1.384 . S
N493 C485 1.427 . S
N493 C491 1.384 . S
H494 C500 0.930 . S
H495 C504 0.930 . S
H496 C509 0.929 . S
H497 C507 0.929 . S
H498 C502 0.929 . S
H499 C508 0.929 . S
C500 H494 0.930 . S
C500 C501 1.367 . S
C500 C508 1.378 . S
C501 C500 1.367 . S
C501 C509 1.433 . S
C502 H498 0.929 . S
C502 C504 1.378 . S
C502 C506 1.350 . S
C503 C506 1.463 . S
C503 C508 1.350 . S
C503 N511 1.427 . S
C504 H495 0.930 . S
C504 C502 1.378 . S
C504 C505 1.367 . S
C505 C504 1.367 . S
C505 C507 1.433 . S
C506 C502 1.350 . S
C506 C503 1.463 . S
C506 N510 1.427 . S
C507 H497 0.929 . S
C507 C505 1.433 . S
C507 N510 1.384 . S
C508 H499 0.929 . S
C508 C500 1.378 . S
C508 C503 1.350 . S
C509 H496 0.929 . S
C509 C501 1.433 . S
C509 N511 1.384 . S
N510 C506 1.427 . S
N510 C507 1.384 . S
N511 C503 1.427 . S
N511 C509 1.384 . S
H512 C518 0.930 . S
H513 C522 0.930 . S
H514 C527 0.929 . S
H515 C525 0.929 . S
H516 C520 0.929 . S
H517 C526 0.929 . S
C518 H512 0.930 . S
C518 C519 1.367 . S
C518 C526 1.378 . S
C519 C518 1.367 . S
C519 C527 1.433 . S
C520 H516 0.929 . S
C520 C522 1.378 . S
C520 C524 1.350 . S
C521 C524 1.463 . S
C521 C526 1.350 . S
C521 N529 1.427 . S
C522 H513 0.930 . S
C522 C520 1.378 . S
C522 C523 1.367 . S
C523 C522 1.367 . S
C523 C525 1.433 . S
C524 C520 1.350 . S
C524 C521 1.463 . S
C524 N528 1.427 . S
C525 H515 0.929 . S
C525 C523 1.433 . S
C525 N528 1.384 . S
C526 H517 0.929 . S
C526 C518 1.378 . S
C526 C521 1.350 . S
C527 H514 0.929 . S
C527 C519 1.433 . S
C527 N529 1.384 . S
N528 C524 1.427 . S
N528 C525 1.384 . S
N529 C521 1.427 . S
N529 C527 1.384 . S
H530 C536 0.930 . S
H531 C540 0.930 . S
H532 C545 0.929 . S
H533 C543 0.929 . S
H534 C538 0.929 . S
H535 C544 0.929 . S
C536 H530 0.930 . S
C536 C537 1.367 . S
C536 C544 1.378 . S
C537 C536 1.367 . S
C537 C545 1.433 . S
C538 H534 0.929 . S
C538 C540 1.378 . S
C538 C542 1.350 . S
C539 C542 1.463 . S
C539 C544 1.350 . S
C539 N547 1.427 . S
C540 H531 0.930 . S
C540 C538 1.378 . S
C540 C541 1.367 . S
C541 C540 1.367 . S
C541 C543 1.433 . S
C542 C538 1.350 . S
C542 C539 1.463 . S
C542 N546 1.427 . S
C543 H533 0.929 . S
C543 C541 1.433 . S
C543 N546 1.384 . S
C544 H535 0.929 . S
C544 C536 1.378 . S
C544 C539 1.350 . S
C545 H532 0.929 . S
C545 C537 1.433 . S
C545 N547 1.384 . S
N546 C542 1.427 . S
N546 C543 1.384 . S
N547 C539 1.427 . S
N547 C545 1.384 . S
H548 C554 0.930 . S
H549 C558 0.930 . S
H550 C563 0.929 . S
H551 C561 0.929 . S
H552 C556 0.929 . S
H553 C562 0.929 . S
C554 H548 0.930 . S
C554 C555 1.367 . S
C554 C562 1.378 . S
C555 C554 1.367 . S
C555 C563 1.433 . S
C556 H552 0.929 . S
C556 C558 1.378 . S
C556 C560 1.350 . S
C557 C560 1.463 . S
C557 C562 1.350 . S
C557 N565 1.427 . S
C558 H549 0.930 . S
C558 C556 1.378 . S
C558 C559 1.367 . S
C559 C558 1.367 . S
C559 C561 1.433 . S
C560 C556 1.350 . S
C560 C557 1.463 . S
C560 N564 1.427 . S
C561 H551 0.929 . S
C561 C559 1.433 . S
C561 N564 1.384 . S
C562 H553 0.929 . S
C562 C554 1.378 . S
C562 C557 1.350 . S
C563 H550 0.929 . S
C563 C555 1.433 . S
C563 N565 1.384 . S
N564 C560 1.427 . S
N564 C561 1.384 . S
N565 C557 1.427 . S
N565 C563 1.384 . S
H566 C572 0.930 . S
H567 C576 0.930 . S
H568 C581 0.929 1_554 S
H569 C579 0.929 . S
H570 C574 0.929 . S
H571 C580 0.929 . S
C572 H566 0.930 . S
C572 C573 1.367 . S
C572 C580 1.378 . S
C573 C572 1.367 . S
C573 C581 1.433 . S
C574 H570 0.929 . S
C574 C576 1.378 . S
C574 C578 1.350 . S
C575 C578 1.463 . S
C575 C580 1.350 . S
C575 N583 1.427 . S
C576 H567 0.930 . S
C576 C574 1.378 . S
C576 C577 1.367 . S
C577 C576 1.367 . S
C577 C579 1.433 . S
C578 C574 1.350 . S
C578 C575 1.463 . S
C578 N582 1.427 . S
C579 H569 0.929 . S
C579 C577 1.433 . S
C579 N582 1.384 . S
C580 H571 0.929 . S
C580 C572 1.378 . S
C580 C575 1.350 . S
C581 H568 0.929 1_556 S
C581 C573 1.433 . S
C581 N583 1.384 . S
N582 C578 1.427 . S
N582 C579 1.384 . S
N583 C575 1.427 . S
N583 C581 1.384 . S
H584 C590 0.930 . S
H585 C594 0.930 . S
H586 C599 0.929 . S
H587 C597 0.929 . S
H588 C592 0.929 . S
H589 C598 0.929 . S
C590 H584 0.930 . S
C590 C591 1.367 . S
C590 C598 1.378 . S
C591 C590 1.367 . S
C591 C599 1.433 . S
C592 H588 0.929 . S
C592 C594 1.378 . S
C592 C596 1.350 . S
C593 C596 1.463 . S
C593 C598 1.350 . S
C593 N601 1.427 . S
C594 H585 0.930 . S
C594 C592 1.378 . S
C594 C595 1.367 . S
C595 C594 1.367 . S
C595 C597 1.433 . S
C596 C592 1.350 . S
C596 C593 1.463 . S
C596 N600 1.427 . S
C597 H587 0.929 . S
C597 C595 1.433 . S
C597 N600 1.384 . S
C598 H589 0.929 . S
C598 C590 1.378 . S
C598 C593 1.350 . S
C599 H586 0.929 . S
C599 C591 1.433 . S
C599 N601 1.384 . S
N600 C596 1.427 . S
N600 C597 1.384 . S
N601 C593 1.427 . S
N601 C599 1.384 . S
H602 C608 0.930 . S
H603 C612 0.930 . S
H604 C617 0.929 . S
H605 C615 0.929 . S
H606 C610 0.929 . S
H607 C616 0.929 . S
C608 H602 0.930 . S
C608 C609 1.367 . S
C608 C616 1.378 . S
C609 C608 1.367 . S
C609 C617 1.433 . S
C610 H606 0.929 . S
C610 C612 1.378 . S
C610 C614 1.350 . S
C611 C614 1.463 . S
C611 C616 1.350 . S
C611 N619 1.427 . S
C612 H603 0.930 . S
C612 C610 1.378 . S
C612 C613 1.367 . S
C613 C612 1.367 . S
C613 C615 1.433 . S
C614 C610 1.350 . S
C614 C611 1.463 . S
C614 N618 1.427 . S
C615 H605 0.929 . S
C615 C613 1.433 . S
C615 N618 1.384 . S
C616 H607 0.929 . S
C616 C608 1.378 . S
C616 C611 1.350 . S
C617 H604 0.929 . S
C617 C609 1.433 . S
C617 N619 1.384 . S
N618 C614 1.427 . S
N618 C615 1.384 . S
N619 C611 1.427 . S
N619 C617 1.384 . S
C195 C7 0.862 . S
C199 C92 0.891 . S
C213 C25 0.713 . S
C217 C105 0.692 . S
C231 C46 0.882 . S
C235 C119 0.883 . S
C253 C132 0.713 . S
C249 C70 0.723 . S
C271 C144 0.746 . S
C267 C28 0.733 . S
C285 C49 0.852 . S
C289 C158 0.887 . S
C303 C67 0.836 . S
C307 C170 0.832 . S
C321 C4 0.736 . S
C325 C184 0.713 . S
C339 C58 1.515 . S
C343 C183 1.611 . S
C361 C145 1.774 . S
C357 C66 1.734 . S
C379 C157 1.680 . S
C375 C3 1.598 . S
C393 C37 1.670 . S
C397 C171 1.755 . S
C415 C106 1.807 . S
C411 C79 1.734 . S
C429 C16 1.552 . S
C433 C118 1.616 . S
C451 C131 1.635 . S
C447 C24 1.542 . S
C469 C93 1.753 . S
C465 C45 1.661 . S
C487 C166 1.343 . S
C483 C19 1.272 . S
C505 C179 1.245 . S
C501 C41 1.190 . S
C519 C62 1.237 . S
C523 C140 1.305 . S
C541 C153 1.439 . S
C537 C82 1.299 . S
C559 C114 1.353 . S
C555 C40 1.242 . S
C573 C61 1.211 . S
C577 C127 1.295 . S
C595 C88 1.374 . S
C591 C83 1.311 . S
C613 C101 1.310 . S
C609 C20 1.224 . S
