# Generated by pormake.
# Topology pth, (4,4)-cn, num edge types: 1
# Building blocks:
#     Node 0, Type 0, BuildingBlock: TATPOV_clean_sbu_0, # of connection points: 4
#     Node 1, Type 0, BuildingBlock: TATPOV_clean_sbu_0, # of connection points: 4
#     Node 2, Type 0, BuildingBlock: TATPOV_clean_sbu_0, # of connection points: 4
#     Node 3, Type 1, BuildingBlock: NAHDIM_clean_linker_0, # of connection points: 4
#     Node 4, Type 1, BuildingBlock: NAHDIM_clean_linker_0, # of connection points: 4
#     Node 5, Type 1, BuildingBlock: NAHDIM_clean_linker_0, # of connection points: 4
#     Edge 6, Type (0, 1), BuildingBlock: XUDNAN_clean_linker_2, # of connection points: 2
#     Edge 7, Type (0, 1), BuildingBlock: XUDNAN_clean_linker_2, # of connection points: 2
#     Edge 8, Type (0, 1), BuildingBlock: XUDNAN_clean_linker_2, # of connection points: 2
#     Edge 9, Type (0, 1), BuildingBlock: XUDNAN_clean_linker_2, # of connection points: 2
#     Edge 10, Type (0, 1), BuildingBlock: XUDNAN_clean_linker_2, # of connection points: 2
#     Edge 11, Type (0, 1), BuildingBlock: XUDNAN_clean_linker_2, # of connection points: 2
#     Edge 12, Type (0, 1), BuildingBlock: XUDNAN_clean_linker_2, # of connection points: 2
#     Edge 13, Type (0, 1), BuildingBlock: XUDNAN_clean_linker_2, # of connection points: 2
#     Edge 14, Type (0, 1), BuildingBlock: XUDNAN_clean_linker_2, # of connection points: 2
#     Edge 15, Type (0, 1), BuildingBlock: XUDNAN_clean_linker_2, # of connection points: 2
#     Edge 16, Type (0, 1), BuildingBlock: XUDNAN_clean_linker_2, # of connection points: 2
#     Edge 17, Type (0, 1), BuildingBlock: XUDNAN_clean_linker_2, # of connection points: 2
# Relax obj value: 0.054
# Max RMSD: 0.173
# Mean RMSD: 0.111
data_MOF--net-pth--node1-TATPOV_clean_sbu_0--node2-NAHDIM_clean_linker_0--edge1-XUDNAN_clean_linker_2
_symmetry_space_group_name_H-M    P1
_symmetry_Int_Tables_number       1
_symmetry_cell_setting            triclinic
loop_
_symmetry_equiv_pos_as_xyz
'x, y, z'
_cell_length_a     31.988867
_cell_length_b     31.626244
_cell_length_c     79.154107
_cell_angle_alpha  92.080199
_cell_angle_beta   92.606251
_cell_angle_gamma 121.04835
loop_
_atom_site_label
_atom_site_type_symbol
_atom_site_fract_x
_atom_site_fract_y
_atom_site_fract_z
_atom_type_partial_charge
Zn0 Zn 0.1558 0.01256 0.03995 0.0
Zn1 Zn 0.13182 0.07018 0.05638 0.0
O2 O 0.14095 0.02882 0.07428 0.0
O3 O 0.17104 0.98909 0.06114 0.0
O4 O 0.12465 0.12031 0.07038 0.0
O5 O 0.20763 0.06806 0.02769 0.0
O6 O 0.18734 0.11532 0.04165 0.0
C7 C 0.15686 0.9992 0.07453 0.0
C8 C 0.05519 0.98931 0.0323 0.0
O9 O 0.0675 0.02786 0.04184 0.0
O10 O 0.08533 0.97531 0.03005 0.0
C11 C 0.08554 0.11334 0.07637 0.0
O12 O 0.04507 0.07001 0.07352 0.0
C13 C 0.21301 0.11015 0.03085 0.0
Zn14 Zn 0.14186 0.12309 0.37824 0.0
Zn15 Zn 0.06164 0.10416 0.39486 0.0
O16 O 0.10982 0.10785 0.41368 0.0
O17 O 0.17319 0.11821 0.40038 0.0
O18 O 0.00513 0.09625 0.40762 0.0
O19 O 0.15044 0.18839 0.37142 0.0
O20 O 0.08132 0.16708 0.38283 0.0
C21 C 0.15167 0.1121 0.41392 0.0
C22 C 0.05202 0.03054 0.36683 0.0
O23 O 0.03358 0.04222 0.37873 0.0
O24 O 0.09626 0.05941 0.36375 0.0
C25 C 0.96882 0.05497 0.41101 0.0
O26 O 0.96665 0.01383 0.40593 0.0
C27 C 0.11678 0.19682 0.37449 0.0
Zn28 Zn 0.06541 0.97752 0.7316 0.0
Zn29 Zn 0.02085 0.00395 0.7103 0.0
O30 O 0.06624 0.99428 0.69481 0.0
O31 O 0.11291 0.98676 0.71431 0.0
O32 O 0.98335 0.02453 0.69493 0.0
O33 O 0.00554 0.91154 0.73381 0.0
O34 O 0.96566 0.94088 0.72013 0.0
C35 C 0.1034 0.99101 0.69899 0.0
C36 C 0.07714 0.06884 0.74255 0.0
O37 O 0.05855 0.06462 0.72755 0.0
O38 O 0.08056 0.03385 0.74825 0.0
C39 C 0.95691 0.03838 0.70189 0.0
O40 O 0.95484 0.03775 0.71843 0.0
C41 C 0.96549 0.90716 0.72855 0.0
C42 C 0.90533 0.72781 0.2773 0.0
C43 C 0.93001 0.72532 0.294 0.0
C44 C 0.98345 0.69641 0.28372 0.0
C45 C 0.03172 0.71202 0.28052 0.0
C46 C 0.04349 0.68025 0.27204 0.0
C47 C 0.00584 0.6315 0.2667 0.0
C48 C 0.95703 0.61483 0.27036 0.0
C49 C 0.94627 0.64743 0.27885 0.0
C50 C 0.09591 0.69911 0.2684 0.0
C51 C 0.91611 0.56286 0.26493 0.0
C52 C 0.0764 0.3634 0.31753 0.0
C53 C 0.0514 0.38177 0.30647 0.0
C54 C 0.06948 0.44164 0.2852 0.0
C55 C 0.02119 0.43082 0.28214 0.0
C56 C 0.01086 0.46068 0.27227 0.0
C57 C 0.04969 0.50298 0.26566 0.0
C58 C 0.0984 0.5142 0.2688 0.0
C59 C 0.1075 0.48276 0.27829 0.0
C60 C 0.95837 0.44715 0.26902 0.0
C61 C 0.14086 0.55965 0.26231 0.0
C62 C 0.04558 0.4193 0.15642 0.0
C63 C -0.00016 0.40629 0.16226 0.0
C64 C 0.99294 0.44175 0.17074 0.0
C65 C 0.03266 0.49108 0.17361 0.0
C66 C 0.07824 0.50466 0.16726 0.0
C67 C 0.08393 0.46858 0.15862 0.0
C68 C 0.9434 0.42628 0.17693 0.0
C69 C 0.12124 0.55697 0.17 0.0
C70 C 0.92698 0.77304 0.15574 0.0
C71 C 0.97083 0.76572 0.15667 0.0
C72 C 0.96757 0.68723 0.16014 0.0
C73 C 0.93444 0.63634 0.15968 0.0
C74 C 0.94705 0.60477 0.16737 0.0
C75 C 0.9948 0.62461 0.17515 0.0
C76 C 0.02948 0.67584 0.1748 0.0
C77 C 0.01519 0.7068 0.16762 0.0
C78 C 0.90896 0.55046 0.1675 0.0
C79 C 0.08142 0.69813 0.18225 0.0
C80 C 0.01702 0.59888 0.25643 0.0
C81 C 0.0297 0.56858 0.26484 0.0
C82 C 0.03914 0.53591 0.25583 0.0
C83 C 0.03641 0.53365 0.23789 0.0
C84 C 0.0449 0.50071 0.2284 0.0
C85 C 0.04227 0.49896 0.21076 0.0
C86 C 0.0305 0.5297 0.20192 0.0
C87 C 0.02697 0.52767 0.18398 0.0
C88 C 0.01613 0.55947 0.17562 0.0
C89 C 0.0073 0.59253 0.18469 0.0
C90 C 0.00926 0.59401 0.20261 0.0
C91 C 0.99866 0.62538 0.21211 0.0
C92 C 0.00144 0.62723 0.22971 0.0
C93 C 0.01435 0.59736 0.23853 0.0
C94 C 0.02432 0.56481 0.22923 0.0
C95 C 0.02157 0.56298 0.21124 0.0
C96 C 0.03029 0.31906 0.16708 0.0
C97 C 0.027 0.33459 0.14915 0.0
O98 O 0.97474 0.7301 0.29129 0.0
O99 O 0.95273 0.71586 0.15273 0.0
O100 O 0.05457 0.38573 0.14884 0.0
O101 O 0.08077 0.41361 0.29479 0.0
H102 H 0.90586 0.68946 0.29953 0.0
H103 H 0.89744 0.69671 0.26816 0.0
H104 H 0.92938 0.76309 0.27146 0.0
H105 H 0.87008 0.72519 0.27961 0.0
H106 H 0.06019 0.74974 0.28443 0.0
H107 H 0.90879 0.63446 0.28143 0.0
H108 H 0.10782 0.67453 0.2736 0.0
H109 H 0.1212 0.73748 0.27391 0.0
H110 H 0.09881 0.69832 0.25448 0.0
H111 H 0.88041 0.55484 0.26933 0.0
H112 H 0.92481 0.5358 0.27 0.0
H113 H 0.91256 0.55735 0.25088 0.0
H114 H 0.01426 0.3526 0.30103 0.0
H115 H 0.0805 0.39583 0.34218 0.0
H116 H 0.10984 0.3701 0.31109 0.0
H117 H 0.05577 0.32216 0.31446 0.0
H118 H 0.99125 0.39895 0.28729 0.0
H119 H 0.14462 0.49084 0.28073 0.0
H120 H 0.95013 0.44898 0.25537 0.0
H121 H 0.95263 0.47411 0.27633 0.0
H122 H 0.93207 0.40949 0.27285 0.0
H123 H 0.17673 0.56595 0.26738 0.0
H124 H 0.13884 0.59283 0.26583 0.0
H125 H 0.13894 0.55556 0.24827 0.0
H126 H 0.98816 0.32105 0.14505 0.0
H127 H 0.96941 0.36857 0.1604 0.0
H128 H 0.11892 0.47844 0.15392 0.0
H129 H 0.94578 0.42781 0.19099 0.0
H130 H 0.91494 0.38815 0.17205 0.0
H131 H 0.93175 0.45223 0.17298 0.0
H132 H 0.15453 0.56141 0.16452 0.0
H133 H 0.12958 0.56798 0.18378 0.0
H134 H 0.11184 0.58263 0.1641 0.0
H135 H 0.98739 0.7764 0.16996 0.0
H136 H 0.93705 0.80996 0.16143 0.0
H137 H 0.89741 0.74501 0.16303 0.0
H138 H 0.9123 0.76868 0.14238 0.0
H139 H 0.89802 0.62157 0.15365 0.0
H140 H 0.04153 0.74605 0.16763 0.0
H141 H 0.90601 0.53848 0.18063 0.0
H142 H 0.9202 0.52852 0.15977 0.0
H143 H 0.87233 0.5418 0.16231 0.0
H144 H 0.10609 0.73537 0.17774 0.0
H145 H 0.09584 0.67381 0.17897 0.0
H146 H 0.08224 0.70194 0.19627 0.0
H147 H 0.03151 0.56989 0.27859 0.0
H148 H 0.05378 0.47593 0.23449 0.0
H149 H 0.04953 0.4731 0.20416 0.0
H150 H 0.01382 0.55794 0.16187 0.0
H151 H 0.98807 0.64897 0.20608 0.0
H152 H 0.99319 0.65236 0.23629 0.0
H153 H 0.00899 0.27809 0.16726 0.0
H154 H 0.01499 0.33411 0.17617 0.0
H155 H 0.06902 0.33301 0.17145 0.0
C156 C 0.3399 0.90547 0.65719 0.0
C157 C 0.35043 0.95015 0.64728 0.0
C158 C 0.39239 0.96534 0.62129 0.0
C159 C 0.41901 0.01723 0.62226 0.0
C160 C 0.45945 0.04322 0.61259 0.0
C161 C 0.47373 0.0166 0.60195 0.0
C162 C 0.44698 0.96419 0.60111 0.0
C163 C 0.40595 0.93929 0.61053 0.0
C164 C 0.48652 0.09899 0.61357 0.0
C165 C 0.46159 0.93434 0.59026 0.0
C166 C 0.88136 0.22279 0.6142 0.0
C167 C 0.83378 0.17488 0.61698 0.0
C168 C 0.75055 0.16016 0.61285 0.0
C169 C 0.72645 0.10958 0.60762 0.0
C170 C 0.67803 0.08464 0.60038 0.0
C171 C 0.65339 0.11083 0.59838 0.0
C172 C 0.67697 0.16121 0.60428 0.0
C173 C 0.72518 0.18509 0.61155 0.0
C174 C 0.65343 0.03059 0.59457 0.0
C175 C 0.65161 0.19013 0.60253 0.0
C176 C 0.70085 0.11488 0.49076 0.0
C177 C 0.66921 0.06651 0.49525 0.0
C178 C 0.62677 0.05453 0.50335 0.0
C179 C 0.6157 0.09172 0.50696 0.0
C180 C 0.64576 0.13966 0.50138 0.0
C181 C 0.68794 0.15055 0.49319 0.0
C182 C 0.59478 0.00259 0.50868 0.0
C183 C 0.63454 0.17986 0.50481 0.0
C184 C 0.2107 0.92201 0.50252 0.0
C185 C 0.2584 0.97149 0.50161 0.0
C186 C 0.34053 0.9855 0.49949 0.0
C187 C 0.36396 0.95882 0.4977 0.0
C188 C 0.41278 0.97899 0.50392 0.0
C189 C 0.43911 0.02777 0.5116 0.0
C190 C 0.41655 0.05627 0.5123 0.0
C191 C 0.36723 0.03461 0.5064 0.0
C192 C 0.4356 0.94754 0.50279 0.0
C193 C 0.44404 0.10907 0.51975 0.0
C194 C 0.51569 0.04319 0.59132 0.0
C195 C 0.56311 0.06425 0.59899 0.0
C196 C 0.6039 0.0865 0.5894 0.0
C197 C 0.59736 0.08649 0.5716 0.0
C198 C 0.63736 0.10606 0.56145 0.0
C199 C 0.63036 0.10444 0.54391 0.0
C200 C 0.58322 0.08443 0.53586 0.0
C201 C 0.57559 0.08133 0.51799 0.0
C202 C 0.52864 0.06386 0.51044 0.0
C203 C 0.48843 0.04724 0.52027 0.0
C204 C 0.49499 0.04714 0.53808 0.0
C205 C 0.45501 0.02771 0.54826 0.0
C206 C 0.46173 0.0269 0.56569 0.0
C207 C 0.50868 0.04542 0.57367 0.0
C208 C 0.54958 0.06625 0.56374 0.0
C209 C 0.54263 0.06631 0.54589 0.0
C210 C 0.81864 0.16229 0.50204 0.0
C211 C 0.7777 0.11686 0.49146 0.0
O212 O 0.35302 0.93936 0.63038 0.0
O213 O 0.29218 0.96257 0.49449 0.0
O214 O 0.74441 0.12818 0.48444 0.0
O215 O 0.79794 0.18633 0.61926 0.0
H216 H 0.38621 0.98192 0.65274 0.0
H217 H 0.36926 0.89702 0.6557 0.0
H218 H 0.30431 0.87243 0.65241 0.0
H219 H 0.33883 0.91335 0.67091 0.0
H220 H 0.40762 0.03731 0.63032 0.0
H221 H 0.38484 0.8992 0.60984 0.0
H222 H 0.52411 0.11404 0.61945 0.0
H223 H 0.46806 0.11395 0.62117 0.0
H224 H 0.48982 0.11232 0.60063 0.0
H225 H 0.44239 0.89489 0.59324 0.0
H226 H 0.50168 0.94994 0.592 0.0
H227 H 0.45239 0.93595 0.5767 0.0
H228 H 0.82422 0.15004 0.60529 0.0
H229 H 0.91036 0.21511 0.61095 0.0
H230 H 0.91036 0.21511 0.61095 0.0
H231 H 0.89424 0.24922 0.62557 0.0
H232 H 0.74519 0.08945 0.60918 0.0
H233 H 0.74385 0.2239 0.61587 0.0
H234 H 0.64546 0.02597 0.5806 0.0
H235 H 0.61796 0.00928 0.60037 0.0
H236 H 0.6764 0.01471 0.5979 0.0
H237 H 0.67473 0.22888 0.608 0.0
H238 H 0.61702 0.17176 0.60898 0.0
H239 H 0.64193 0.19065 0.58892 0.0
H240 H 0.76049 0.08762 0.5006 0.0
H241 H 0.67812 0.03831 0.49266 0.0
H242 H 0.7122 0.18758 0.48938 0.0
H243 H 0.59719 0.00298 0.52273 0.0
H244 H 0.60571 0.97687 0.5035 0.0
H245 H 0.55597 0.98822 0.50437 0.0
H246 H 0.65991 0.21443 0.49885 0.0
H247 H 0.63732 0.18822 0.51871 0.0
H248 H 0.59642 0.16695 0.49997 0.0
H249 H 0.27148 0.98787 0.51487 0.0
H250 H 0.18317 0.92753 0.50868 0.0
H251 H 0.21761 0.89713 0.51015 0.0
H252 H 0.19554 0.90378 0.48961 0.0
H253 H 0.34314 0.92122 0.49205 0.0
H254 H 0.34961 0.056 0.50726 0.0
H255 H 0.45087 0.94628 0.51552 0.0
H256 H 0.46627 0.96428 0.49442 0.0
H257 H 0.40896 0.90908 0.49766 0.0
H258 H 0.42467 0.12881 0.51653 0.0
H259 H 0.4813 0.12958 0.51514 0.0
H260 H 0.44812 0.10941 0.53376 0.0
H261 H 0.56833 0.06313 0.61257 0.0
H262 H 0.67449 0.12207 0.56692 0.0
H263 H 0.66249 0.11936 0.53675 0.0
H264 H 0.52315 0.06195 0.49674 0.0
H265 H 0.41791 0.01235 0.54287 0.0
H266 H 0.42956 0.01143 0.57284 0.0
H267 H 0.83437 0.19573 0.49469 0.0
H268 H 0.84808 0.15559 0.50645 0.0
H269 H 0.80355 0.16979 0.51336 0.0
C270 C 0.78876 0.67824 0.81794 0.0
C271 C 0.7484 0.675 0.80561 0.0
C272 C 0.68427 0.66471 0.82413 0.0
C273 C 0.66003 0.68744 0.83043 0.0
C274 C 0.62046 0.66244 0.84049 0.0
C275 C 0.60518 0.61355 0.84447 0.0
C276 C 0.63007 0.59053 0.83841 0.0
C277 C 0.6692 0.61621 0.82822 0.0
C278 C 0.59484 0.6881 0.84682 0.0
C279 C 0.61507 0.53861 0.84259 0.0
C280 C 0.24774 0.32988 0.79355 0.0
C281 C 0.2957 0.37549 0.79865 0.0
C282 C 0.342 0.42618 0.82419 0.0
C283 C 0.37713 0.41336 0.82806 0.0
C284 C 0.42026 0.44579 0.83801 0.0
C285 C 0.42876 0.49235 0.84409 0.0
C286 C 0.39336 0.50542 0.84032 0.0
C287 C 0.34992 0.47168 0.83061 0.0
C288 C 0.45671 0.43012 0.84205 0.0
C289 C 0.40147 0.55489 0.84659 0.0
C290 C 0.3603 0.43628 0.9503 0.0
C291 C 0.38873 0.41796 0.94403 0.0
C292 C 0.43282 0.44927 0.93688 0.0
C293 C 0.44847 0.4998 0.93579 0.0
C294 C 0.42129 0.51892 0.94292 0.0
C295 C 0.37769 0.48686 0.95028 0.0
C296 C 0.46189 0.42802 0.92998 0.0
C297 C 0.43737 0.57277 0.94217 0.0
C298 C 0.83825 0.75785 0.93782 0.0
C299 C 0.80148 0.76108 0.94869 0.0
C300 C 0.72272 0.68507 0.94975 0.0
C301 C 0.70414 0.63441 0.94701 0.0
C302 C 0.65602 0.60246 0.94012 0.0
C303 C 0.6259 0.62192 0.93621 0.0
C304 C 0.64332 0.6725 0.94028 0.0
C305 C 0.69165 0.70362 0.94707 0.0
C306 C 0.63809 0.54844 0.93627 0.0
C307 C 0.61152 0.69402 0.93678 0.0
C308 C 0.56228 0.58592 0.85456 0.0
C309 C 0.51662 0.55584 0.84576 0.0
C310 C 0.47485 0.52705 0.85436 0.0
C311 C 0.4783 0.52865 0.87226 0.0
C312 C 0.43699 0.49998 0.88129 0.0
C313 C 0.44093 0.50129 0.8989 0.0
C314 C 0.48645 0.53085 0.90816 0.0
C315 C 0.49105 0.53153 0.92605 0.0
C316 C 0.53673 0.56153 0.93488 0.0
C317 C 0.57835 0.59077 0.92625 0.0
C318 C 0.57466 0.59014 0.90835 0.0
C319 C 0.61608 0.61847 0.89928 0.0
C320 C 0.61213 0.61734 0.88168 0.0
C321 C 0.56662 0.58789 0.87246 0.0
C322 C 0.52441 0.55916 0.88134 0.0
C323 C 0.52848 0.56018 0.8993 0.0
C324 C 0.23146 0.3476 0.94871 0.0
C325 C 0.28362 0.35733 0.95029 0.0
O326 O 0.72209 0.69119 0.81437 0.0
O327 O 0.77084 0.71516 0.95473 0.0
O328 O 0.31569 0.40615 0.95612 0.0
O329 O 0.29917 0.39418 0.81514 0.0
H330 H 0.72393 0.63612 0.80039 0.0
H331 H 0.77376 0.66221 0.83004 0.0
H332 H 0.81841 0.7174 0.82088 0.0
H333 H 0.8043 0.65686 0.81254 0.0
H334 H 0.67208 0.72494 0.82729 0.0
H335 H 0.68784 0.59815 0.82363 0.0
H336 H 0.55548 0.66623 0.84232 0.0
H337 H 0.61095 0.72609 0.84248 0.0
H338 H 0.59706 0.69034 0.86089 0.0
H339 H 0.64107 0.52775 0.83834 0.0
H340 H 0.57832 0.51229 0.8363 0.0
H341 H 0.61253 0.53512 0.85647 0.0
H342 H 0.30977 0.40462 0.78936 0.0
H343 H 0.26573 0.27386 0.78985 0.0
H344 H 0.231 0.34082 0.78303 0.0
H345 H 0.22147 0.32755 0.80303 0.0
H346 H 0.3708 0.37764 0.82375 0.0
H347 H 0.32223 0.48094 0.8278 0.0
H348 H 0.46719 0.43584 0.85588 0.0
H349 H 0.49032 0.45333 0.83547 0.0
H350 H 0.44223 0.39071 0.83797 0.0
H351 H 0.37164 0.56054 0.8418 0.0
H352 H 0.4368 0.5851 0.84255 0.0
H353 H 0.40376 0.55771 0.86066 0.0
H354 H 0.29146 0.35066 0.93719 0.0
H355 H 0.37643 0.37919 0.94455 0.0
H356 H 0.35588 0.50078 0.95541 0.0
H357 H 0.45949 0.42722 0.91592 0.0
H358 H 0.44826 0.3898 0.93374 0.0
H359 H 0.50109 0.45175 0.93451 0.0
H360 H 0.41217 0.58189 0.94831 0.0
H361 H 0.43923 0.58223 0.92874 0.0
H362 H 0.47465 0.59624 0.94854 0.0
H363 H 0.78074 0.77244 0.94025 0.0
H364 H 0.86372 0.79449 0.93305 0.0
H365 H 0.81846 0.73091 0.92675 0.0
H366 H 0.8598 0.74535 0.94521 0.0
H367 H 0.72821 0.62037 0.94953 0.0
H368 H 0.70532 0.7425 0.95004 0.0
H369 H 0.62996 0.53927 0.92239 0.0
H370 H 0.60356 0.52523 0.9424 0.0
H371 H 0.66533 0.53871 0.94072 0.0
H372 H 0.62847 0.73257 0.94239 0.0
H373 H 0.5753 0.67085 0.94192 0.0
H374 H 0.60517 0.69398 0.92287 0.0
H375 H 0.51374 0.55388 0.83201 0.0
H376 H 0.4011 0.47621 0.87485 0.0
H377 H 0.40779 0.47857 0.90514 0.0
H378 H 0.54 0.56187 0.94859 0.0
H379 H 0.65214 0.64173 0.90566 0.0
H380 H 0.64525 0.63975 0.87538 0.0
H381 H 0.22115 0.3565 0.96096 0.0
H382 H 0.20501 0.30823 0.94449 0.0
H383 H 0.22881 0.37114 0.93915 0.0
H384 H 0.00832 0.11267 0.09064 0.0
H385 H 0.16419 0.206 0.08518 0.0
H386 H 0.1659 0.27353 0.10237 0.0
H387 H 0.97985 0.2092 0.08819 0.0
H388 H 0.9353 0.1847 0.10381 0.0
H389 H 0.946 0.14366 0.09086 0.0
H390 H 0.96469 0.11055 0.11788 0.0
H391 H 0.95393 0.15138 0.1309 0.0
H392 H 0.01123 0.1535 0.1337 0.0
H393 H 0.1516 0.32977 0.12118 0.0
H394 H 0.12157 0.37143 0.13969 0.0
H395 H 0.97474 0.24281 0.13222 0.0
C396 C 0.0428 0.14733 0.093 0.0
C397 C 0.08612 0.15394 0.08655 0.0
C398 C 0.13048 0.19995 0.08997 0.0
C399 C 0.13187 0.23861 0.09973 0.0
C400 C 0.08857 0.23083 0.10592 0.0
C401 C 0.04483 0.18642 0.10267 0.0
C402 C 0.00366 0.18754 0.111 0.0
C403 C 0.96386 0.18089 0.09767 0.0
C404 C 0.98213 0.14842 0.12415 0.0
C405 C 0.03113 0.23945 0.11945 0.0
C406 C 0.08009 0.26376 0.11641 0.0
C407 C 0.11318 0.31142 0.12344 0.0
C408 C 0.09575 0.33488 0.13388 0.0
C409 C 0.04548 0.31095 0.13695 0.0
C410 C 0.01304 0.26248 0.12969 0.0
H411 H 0.96451 0.13382 0.42429 0.0
H412 H 0.88694 0.97327 0.42107 0.0
H413 H 0.82589 0.97159 0.43951 0.0
H414 H 0.95013 0.14914 0.46731 0.0
H415 H 0.94219 0.20114 0.46507 0.0
H416 H 0.9773 0.18961 0.45048 0.0
H417 H 0.92155 0.18728 0.42521 0.0
H418 H 0.88631 0.199 0.43973 0.0
H419 H 0.85628 0.14556 0.42482 0.0
H420 H 0.777 0.98774 0.46005 0.0
H421 H 0.74434 0.02052 0.48116 0.0
H422 H 0.85241 0.17027 0.47003 0.0
C423 C 0.93436 0.09822 0.42726 0.0
C424 C 0.93054 0.05364 0.42122 0.0
C425 C 0.89066 0.00791 0.42553 0.0
C426 C 0.85572 0.00657 0.43596 0.0
C427 C 0.861 0.05125 0.44188 0.0
C428 C 0.89917 0.09621 0.43761 0.0
C429 C 0.89793 0.13897 0.44628 0.0
C430 C 0.94465 0.17162 0.45798 0.0
C431 C 0.89003 0.16949 0.43323 0.0
C432 C 0.85363 0.11108 0.45638 0.0
C433 C 0.83272 0.06053 0.45363 0.0
C434 C 0.79295 0.02726 0.46224 0.0
C435 C 0.77475 0.04621 0.47423 0.0
C436 C 0.79651 0.09793 0.47763 0.0
C437 C 0.83543 0.13059 0.46809 0.0
H438 H 0.95178 0.82296 0.74175 0.0
H439 H 0.87642 0.90024 0.72912 0.0
H440 H 0.80619 0.84089 0.74447 0.0
H441 H 0.83869 0.6947 0.74085 0.0
H442 H 0.86489 0.67926 0.75846 0.0
H443 H 0.90396 0.72106 0.74353 0.0
H444 H 0.95435 0.78662 0.76831 0.0
H445 H 0.91508 0.74563 0.78325 0.0
H446 H 0.92372 0.80646 0.78224 0.0
H447 H 0.75153 0.78279 0.76532 0.0
H448 H 0.71532 0.72895 0.78868 0.0
H449 H 0.8263 0.68881 0.78713 0.0
C450 C 0.91981 0.82642 0.74171 0.0
C451 C 0.91949 0.86615 0.73424 0.0
C452 C 0.87724 0.86978 0.73461 0.0
C453 C 0.83721 0.83626 0.74332 0.0
C454 C 0.8398 0.79895 0.75129 0.0
C455 C 0.87967 0.79327 0.75025 0.0
C456 C 0.8759 0.75351 0.76128 0.0
C457 C 0.87052 0.70952 0.75038 0.0
C458 C 0.91986 0.77434 0.77455 0.0
C459 C 0.82915 0.73971 0.76947 0.0
C460 C 0.80843 0.76569 0.76338 0.0
C461 C 0.76722 0.76191 0.77006 0.0
C462 C 0.74724 0.73153 0.7835 0.0
C463 C 0.7691 0.70603 0.79046 0.0
C464 C 0.80934 0.70876 0.7827 0.0
H465 H 0.1204 0.00442 0.10486 0.0
H466 H 0.17297 0.9227 0.07675 0.0
H467 H 0.13868 0.8577 0.09684 0.0
H468 H 0.13825 0.96432 0.14843 0.0
H469 H 0.08388 0.96164 0.15513 0.0
H470 H 0.12103 0.00645 0.14059 0.0
H471 H 0.0447 0.97322 0.11952 0.0
H472 H 0.00759 0.92753 0.13371 0.0
H473 H 0.01091 0.90859 0.11231 0.0
H474 H 0.08235 0.79354 0.11512 0.0
H475 H 0.01993 0.74021 0.13377 0.0
H476 H 0.01064 0.86587 0.15263 0.0
C477 C 0.12656 0.97394 0.10335 0.0
C478 C 0.14917 0.96866 0.08915 0.0
C479 C 0.15587 0.92777 0.08751 0.0
C480 C 0.13642 0.89047 0.09886 0.0
C481 C 0.11157 0.8952 0.11207 0.0
C482 C 0.10801 0.93664 0.11476 0.0
C483 C 0.07626 0.93069 0.12921 0.0
C484 C 0.10668 0.96799 0.14423 0.0
C485 C 0.03228 0.93527 0.12332 0.0
C486 C 0.06012 0.87832 0.13343 0.0
C487 C 0.08096 0.8586 0.12341 0.0
C488 C 0.067 0.80902 0.12347 0.0
C489 C 0.03102 0.77883 0.13413 0.0
C490 C 0.00943 0.79825 0.14479 0.0
C491 C 0.02553 0.84921 0.14462 0.0
H492 H 0.21031 0.07347 0.4167 0.0
H493 H 0.13831 0.13146 0.44658 0.0
H494 H 0.16685 0.11056 0.47281 0.0
H495 H 0.17407 0.96993 0.4394 0.0
H496 H 0.22927 0.9684 0.43765 0.0
H497 H 0.21061 0.9955 0.42165 0.0
H498 H 0.29454 0.07737 0.42645 0.0
H499 H 0.31354 0.05041 0.44248 0.0
H500 H 0.31555 0.10752 0.44747 0.0
H501 H 0.19753 0.07719 0.49542 0.0
H502 H 0.2231 0.02922 0.51249 0.0
H503 H 0.26948 0.98794 0.46736 0.0
C504 C 0.20183 0.08314 0.4288 0.0
C505 C 0.17289 0.10487 0.4297 0.0
C506 C 0.1609 0.11526 0.44569 0.0
C507 C 0.17709 0.10369 0.46062 0.0
C508 C 0.20475 0.08129 0.45928 0.0
C509 C 0.21678 0.07088 0.44376 0.0
C510 C 0.24181 0.04148 0.44553 0.0
C511 C 0.21215 0.99084 0.43547 0.0
C512 C 0.2945 0.07097 0.44017 0.0
C513 C 0.24111 0.03606 0.46444 0.0
C514 C 0.22053 0.06015 0.4722 0.0
C515 C 0.21425 0.05872 0.48951 0.0
C516 C 0.22887 0.03149 0.4991 0.0
C517 C 0.24902 0.00562 0.49133 0.0
C518 C 0.25526 0.00819 0.47376 0.0
H519 H 0.14011 0.16035 0.73283 0.0
H520 H 0.06631 0.08075 0.77574 0.0
H521 H 0.1167 0.15582 0.79477 0.0
H522 H 0.25235 0.21349 0.74981 0.0
H523 H 0.27755 0.27123 0.73984 0.0
H524 H 0.22501 0.21661 0.72982 0.0
H525 H 0.1746 0.25912 0.72907 0.0
H526 H 0.22766 0.31526 0.73833 0.0
H527 H 0.17056 0.28902 0.74821 0.0
H528 H 0.19108 0.22511 0.81479 0.0
H529 H 0.28802 0.30528 0.82683 0.0
H530 H 0.32 0.34642 0.76437 0.0
C531 C 0.13372 0.16004 0.74616 0.0
C532 C 0.09922 0.11573 0.75294 0.0
C533 C 0.09225 0.1149 0.77041 0.0
C534 C 0.12062 0.15732 0.78126 0.0
C535 C 0.15635 0.20016 0.77453 0.0
C536 C 0.16366 0.2023 0.75707 0.0
C537 C 0.20939 0.24933 0.75179 0.0
C538 C 0.24299 0.23686 0.74226 0.0
C539 C 0.19468 0.28001 0.74123 0.0
C540 C 0.23402 0.27637 0.76852 0.0
C541 C 0.19554 0.24288 0.7841 0.0
C542 C 0.21516 0.25065 0.80607 0.0
C543 C 0.27632 0.2977 0.81346 0.0
C544 C 0.31106 0.34159 0.79708 0.0
C545 C 0.29607 0.32453 0.77383 0.0
H546 H 0.94599 0.03705 0.66716 0.0
H547 H 0.90845 0.08236 0.71369 0.0
H548 H 0.86766 0.11713 0.69702 0.0
H549 H 0.97339 0.14236 0.64518 0.0
H550 H 0.94738 0.109 0.62483 0.0
H551 H 0.97105 0.08498 0.64037 0.0
H552 H 0.8874 0.00252 0.63848 0.0
H553 H 0.86344 0.02637 0.62294 0.0
H554 H 0.83262 0.00353 0.64199 0.0
H555 H 0.83731 0.15331 0.67551 0.0
H556 H 0.81707 0.18578 0.65055 0.0
H557 H 0.87082 0.11389 0.6179 0.0
C558 C 0.9288 0.05386 0.67384 0.0
C559 C 0.93046 0.05698 0.69174 0.0
C560 C 0.90757 0.07938 0.69999 0.0
C561 C 0.88425 0.09923 0.69063 0.0
C562 C 0.88364 0.09593 0.67302 0.0
C563 C 0.90498 0.0735 0.66469 0.0
C564 C 0.90036 0.07609 0.64568 0.0
C565 C 0.95106 0.10483 0.63861 0.0
C566 C 0.86909 0.02402 0.63675 0.0
C567 C 0.87411 0.10447 0.64466 0.0
C568 C 0.86467 0.11543 0.66057 0.0
C569 C 0.84354 0.14406 0.66295 0.0
C570 C 0.832 0.1622 0.64868 0.0
C571 C 0.84102 0.15106 0.63222 0.0
C572 C 0.86222 0.12169 0.63028 0.0
H573 H 0.00131 0.89014 0.02558 0.0
H574 H 0.00076 0.02484 0.01802 0.0
H575 H 0.92652 0.97772 0.99826 0.0
H576 H 0.97341 0.84237 0.98533 0.0
H577 H 0.93368 0.77846 0.98956 0.0
H578 H 0.9803 0.82045 0.00538 0.0
H579 H 0.91514 0.79897 0.02712 0.0
H580 H 0.86814 0.75622 0.01137 0.0
H581 H 0.86305 0.80482 0.0218 0.0
H582 H 0.86326 0.91918 0.97543 0.0
H583 H 0.81218 0.853 0.95308 0.0
H584 H 0.85199 0.75598 0.97674 0.0
C585 C 0.9846 0.90936 0.02014 0.0
C586 C 0.00643 0.96091 0.02321 0.0
C587 C 0.98405 0.98517 0.01589 0.0
C588 C 0.94201 0.95871 0.00467 0.0
C589 C 0.92237 0.908 0.00137 0.0
C590 C 0.94234 0.8834 0.00923 0.0
C591 C 0.91694 0.82975 0.00264 0.0
C592 C 0.95326 0.81708 0.99528 0.0
C593 C 0.88916 0.79541 0.01656 0.0
C594 C 0.88192 0.82878 0.98895 0.0
C595 C 0.8849 0.87395 0.98858 0.0
C596 C 0.85956 0.88326 0.97591 0.0
C597 C 0.83082 0.84559 0.96325 0.0
C598 C 0.82776 0.79931 0.96336 0.0
C599 C 0.85301 0.79073 0.97657 0.0
H600 H 0.07614 -0.00067 0.33822 0.0
H601 H 0.96206 0.95228 0.37329 0.0
H602 H 0.91649 0.86966 0.35791 0.0
H603 H 0.99515 0.93128 0.30048 0.0
H604 H 0.03812 0.91699 0.29198 0.0
H605 H 0.05995 0.97299 0.30522 0.0
H606 H 0.10815 0.94737 0.32531 0.0
H607 H 0.08621 0.89117 0.31223 0.0
H608 H 0.07612 0.88839 0.33448 0.0
H609 H 0.88608 0.79038 0.3396 0.0
H610 H 0.8723 0.72206 0.31931 0.0
H611 H 0.00566 0.82268 0.29617 0.0
C612 C 0.04134 0.97188 0.3426 0.0
C613 C 0.02271 0.98226 0.35698 0.0
C614 C 0.977 0.94524 0.36227 0.0
C615 C 0.95088 0.89819 0.35363 0.0
C616 C 0.97077 0.88901 0.33966 0.0
C617 C 0.01474 0.92502 0.33409 0.0
C618 C 0.02884 0.90564 0.31901 0.0
C619 C 0.0306 0.93337 0.30324 0.0
C620 C 0.07771 0.9083 0.32301 0.0
C621 C 0.98646 0.85274 0.31715 0.0
C622 C 0.95321 0.84378 0.32912 0.0
C623 C 0.91179 0.79705 0.33013 0.0
C624 C 0.90436 0.7585 0.31864 0.0
C625 C 0.93839 0.7669 0.30643 0.0
C626 C 0.97943 0.81495 0.30555 0.0
H627 H 0.20064 0.02756 0.70394 0.0
H628 H 0.07908 0.95406 0.6657 0.0
H629 H 0.13255 0.94404 0.64623 0.0
H630 H 0.29816 0.09167 0.67384 0.0
H631 H 0.34111 0.08388 0.68685 0.0
H632 H 0.295 0.09109 0.69651 0.0
H633 H 0.26531 0.00901 0.71097 0.0
H634 H 0.31091 0.00135 0.7013 0.0
H635 H 0.24734 0.95322 0.6981 0.0
H636 H 0.19587 0.9297 0.63325 0.0
H637 H 0.26446 0.91802 0.62702 0.0
H638 H 0.34526 0.00544 0.67331 0.0
C639 C 0.18557 0.01035 0.69131 0.0
C640 C 0.13586 0.9914 0.68627 0.0
C641 C 0.11727 0.96912 0.6697 0.0
C642 C 0.14735 0.96326 0.65861 0.0
C643 C 0.19602 0.98104 0.66421 0.0
C644 C 0.21516 0.00505 0.68008 0.0
C645 C 0.26748 0.01813 0.6836 0.0
C646 C 0.30251 0.07455 0.68529 0.0
C647 C 0.27303 0.99396 0.69942 0.0
C648 C 0.27422 0.99553 0.66759 0.0
C649 C 0.23286 0.97465 0.65646 0.0
C650 C 0.22896 0.94727 0.64162 0.0
C651 C 0.26814 0.94086 0.63818 0.0
C652 C 0.31084 0.96221 0.64945 0.0
C653 C 0.31378 0.99021 0.66421 0.0
H654 H 0.22528 0.20273 0.03185 0.0
H655 H 0.26569 0.10876 0.00476 0.0
H656 H 0.29874 0.16862 0.98282 0.0
H657 H 0.18119 0.23233 0.99781 0.0
H658 H 0.20352 0.29591 0.00462 0.0
H659 H 0.19238 0.25175 0.02009 0.0
H660 H 0.28166 0.30593 0.03308 0.0
H661 H 0.29299 0.35094 0.01781 0.0
H662 H 0.33155 0.32502 0.01964 0.0
H663 H 0.31076 0.22815 0.96117 0.0
H664 H 0.30911 0.2885 0.94267 0.0
H665 H 0.2659 0.34729 0.98423 0.0
C666 C 0.24278 0.19563 0.02165 0.0
C667 C 0.24284 0.15099 0.02005 0.0
C668 C 0.26533 0.14273 0.00633 0.0
C669 C 0.28425 0.17656 0.99378 0.0
C670 C 0.28125 0.21891 0.99528 0.0
C671 C 0.2621 0.22918 0.00906 0.0
C672 C 0.25892 0.27487 0.00682 0.0
C673 C 0.20586 0.26296 0.00736 0.0
C674 C 0.29335 0.31667 0.02013 0.0
C675 C 0.27673 0.287 0.98925 0.0
C676 C 0.2898 0.25451 0.98287 0.0
C677 C 0.30207 0.25476 0.9662 0.0
C678 C 0.3008 0.28899 0.95576 0.0
C679 C 0.28768 0.32272 0.96205 0.0
C680 C 0.27649 0.32223 0.97913 0.0
H681 H 0.03781 0.20481 0.36689 0.0
H682 H 0.19552 0.28369 0.36593 0.0
H683 H 0.19428 0.35323 0.3531 0.0
H684 H 0.0116 0.23343 0.32714 0.0
H685 H 0.95912 0.23526 0.33351 0.0
H686 H 0.97703 0.19666 0.34386 0.0
H687 H 0.98294 0.23921 0.373 0.0
H688 H 0.96436 0.27783 0.36303 0.0
H689 H 0.02068 0.30556 0.37632 0.0
H690 H 0.18615 0.42959 0.33929 0.0
H691 H 0.14463 0.4798 0.32143 0.0
H692 H 0.97354 0.33111 0.33112 0.0
C693 C 0.07197 0.23718 0.36413 0.0
C694 C 0.11678 0.23945 0.3675 0.0
C695 C 0.16085 0.28152 0.36347 0.0
C696 C 0.16047 0.32112 0.35624 0.0
C697 C 0.11576 0.31784 0.35285 0.0
C698 C 0.07119 0.27605 0.35655 0.0
C699 C 0.02404 0.27584 0.3513 0.0
C700 C 0.99103 0.23276 0.33818 0.0
C701 C 0.99639 0.27454 0.36683 0.0
C702 C 0.04362 0.32406 0.34345 0.0
C703 C 0.10717 0.35289 0.3447 0.0
C704 C 0.14693 0.413 0.33756 0.0
C705 C 0.12163 0.44553 0.32723 0.0
C706 C 0.05387 0.40659 0.32182 0.0
C707 C 0.01292 0.35144 0.33351 0.0
loop_
_geom_bond_atom_site_label_1
_geom_bond_atom_site_label_2
_geom_bond_distance
_geom_bond_site_symmetry_2
_ccdc_geom_bond_type
Zn0 O3 2.031 1_545 S
Zn0 O5 2.049 . S
Zn0 O10 2.067 . S
Zn1 O2 1.962 . S
Zn1 O4 1.986 . S
Zn1 O6 1.996 . S
Zn1 O9 1.943 . S
O2 Zn1 1.962 . S
O2 C7 1.254 . S
O3 Zn0 2.031 1_565 S
O3 C7 1.269 1_565 S
O4 Zn1 1.986 . S
O4 C11 1.262 . S
O5 Zn0 2.049 . S
O5 C13 1.260 . S
O6 Zn1 1.996 . S
O6 C13 1.257 . S
C7 O2 1.254 . S
C7 O3 1.269 1_545 S
C8 O9 1.249 . S
C8 O10 1.270 . S
O9 Zn1 1.943 . S
O9 C8 1.249 . S
O10 Zn0 2.067 . S
O10 C8 1.270 . S
C11 O4 1.262 . S
C11 O12 1.232 . S
O12 C11 1.232 . S
C13 O5 1.260 . S
C13 O6 1.257 . S
Zn14 O17 2.031 . S
Zn14 O19 2.049 . S
Zn14 O24 2.067 . S
Zn15 O16 1.962 . S
Zn15 O18 1.986 1_455 S
Zn15 O20 1.996 . S
Zn15 O23 1.941 . S
O16 Zn15 1.962 . S
O16 C21 1.254 . S
O17 Zn14 2.031 . S
O17 C21 1.269 . S
O18 Zn15 1.986 1_655 S
O18 C25 1.262 . S
O19 Zn14 2.049 . S
O19 C27 1.260 . S
O20 Zn15 1.996 . S
O20 C27 1.257 . S
C21 O16 1.254 . S
C21 O17 1.269 . S
C22 O23 1.256 . S
C22 O24 1.270 . S
O23 Zn15 1.941 . S
O23 C22 1.256 . S
O24 Zn14 2.067 . S
O24 C22 1.270 . S
C25 O18 1.262 . S
C25 O26 1.232 . S
O26 C25 1.232 . S
C27 O19 1.260 . S
C27 O20 1.257 . S
Zn28 O31 2.031 1_565 S
Zn28 O33 2.049 . S
Zn28 O38 2.067 1_565 S
Zn29 O30 1.958 1_545 S
Zn29 O32 1.986 1_455 S
Zn29 O34 1.996 1_445 S
Zn29 O37 1.943 . S
O30 Zn29 1.958 1_565 S
O30 C35 1.256 1_565 S
O31 Zn28 2.031 1_545 S
O31 C35 1.269 . S
O32 Zn29 1.986 1_655 S
O32 C39 1.262 . S
O33 Zn28 2.049 . S
O33 C41 1.260 1_455 S
O34 Zn29 1.996 1_665 S
O34 C41 1.257 . S
C35 O30 1.256 1_545 S
C35 O31 1.269 . S
C36 O37 1.249 . S
C36 O38 1.270 . S
O37 Zn29 1.943 . S
O37 C36 1.249 . S
O38 Zn28 2.067 1_545 S
O38 C36 1.270 . S
C39 O32 1.262 . S
C39 O40 1.228 1_655 S
O40 C39 1.228 1_455 S
C41 O33 1.260 1_655 S
C41 O34 1.257 . S
C42 C43 1.560 1_655 S
C42 H103 0.959 . S
C42 H104 0.959 . S
C42 H105 0.960 . S
C43 C42 1.560 1_455 S
C43 O98 1.426 1_455 S
C43 H102 0.980 . S
C44 C45 1.407 . S
C44 C49 1.418 1_455 S
C44 O98 1.334 1_455 S
C45 C44 1.407 . S
C45 C46 1.360 . S
C45 H106 0.929 . S
C46 C45 1.360 . S
C46 C47 1.401 . S
C46 C50 1.527 . S
C47 C46 1.401 . S
C47 C48 1.405 1_455 S
C47 C80 1.587 . S
C48 C47 1.405 1_655 S
C48 C49 1.332 . S
C48 C51 1.496 . S
C49 C44 1.418 1_655 S
C49 C48 1.332 . S
C49 H107 0.929 . S
C50 C46 1.527 . S
C50 H108 0.959 . S
C50 H109 0.961 . S
C50 H110 0.961 . S
C51 C48 1.496 . S
C51 H111 0.960 . S
C51 H112 0.960 . S
C51 H113 0.961 . S
C52 C53 1.517 . S
C52 H115 0.961 . S
C52 H116 0.960 . S
C52 H117 0.959 . S
C53 C52 1.517 . S
C53 O101 1.468 . S
C53 H114 0.980 . S
C54 C55 1.349 . S
C54 C59 1.367 . S
C54 O101 1.408 . S
C55 C54 1.349 . S
C55 C56 1.407 . S
C55 H118 0.930 . S
C56 C55 1.407 . S
C56 C57 1.449 . S
C56 C60 1.535 1_455 S
C57 C56 1.449 . S
C57 C58 1.384 . S
C57 C82 1.553 . S
C58 C57 1.384 . S
C58 C59 1.364 . S
C58 C61 1.450 . S
C59 C54 1.367 . S
C59 C58 1.364 . S
C59 H119 0.931 . S
C60 C56 1.535 1_655 S
C60 H120 0.959 . S
C60 H121 0.961 . S
C60 H122 0.959 . S
C61 C58 1.450 . S
C61 H123 0.960 . S
C61 H124 0.960 . S
C61 H125 0.960 . S
C62 C63 1.309 . S
C62 C67 1.304 . S
C62 O100 1.435 . S
C63 C62 1.309 . S
C63 C64 1.476 . S
C63 H127 0.930 . S
C64 C63 1.476 . S
C64 C65 1.400 . S
C64 C68 1.567 1_455 S
C65 C64 1.400 . S
C65 C66 1.373 . S
C65 C87 1.432 . S
C66 C65 1.373 . S
C66 C67 1.339 . S
C66 C69 1.530 . S
C67 C62 1.304 . S
C67 C66 1.339 . S
C67 H128 0.930 . S
C68 C64 1.567 1_655 S
C68 H129 0.961 . S
C68 H130 0.960 . S
C68 H131 0.958 . S
C69 C66 1.530 . S
C69 H132 0.961 . S
C69 H133 0.960 . S
C69 H134 0.960 . S
C70 C71 1.530 . S
C70 H136 0.961 . S
C70 H137 0.961 1_455 S
C70 H138 0.959 1_455 S
C71 C70 1.530 . S
C71 O99 1.412 . S
C71 H135 0.980 . S
C72 C73 1.288 1_455 S
C72 C77 1.377 . S
C72 O99 1.393 . S
C73 C72 1.288 1_655 S
C73 C74 1.369 . S
C73 H139 0.932 . S
C74 C73 1.369 . S
C74 C75 1.398 1_655 S
C74 C78 1.527 . S
C75 C74 1.398 1_455 S
C75 C76 1.380 . S
C75 C89 1.497 . S
C76 C75 1.380 . S
C76 C77 1.383 . S
C76 C79 1.603 . S
C77 C72 1.377 . S
C77 C76 1.383 . S
C77 H140 0.929 . S
C78 C74 1.527 . S
C78 H141 0.961 . S
C78 H142 0.959 . S
C78 H143 0.959 . S
C79 C76 1.603 . S
C79 H144 0.960 . S
C79 H145 0.962 . S
C79 H146 0.961 . S
C80 C47 1.587 . S
C80 C81 1.360 . S
C80 C93 1.412 . S
C81 C80 1.360 . S
C81 C82 1.365 . S
C81 H147 0.929 . S
C82 C57 1.553 . S
C82 C81 1.365 . S
C82 C83 1.404 . S
C83 C82 1.404 . S
C83 C84 1.395 . S
C83 C94 1.451 . S
C84 C83 1.395 . S
C84 C85 1.322 . S
C84 H148 0.930 . S
C85 C84 1.322 . S
C85 C86 1.459 . S
C85 H149 0.929 . S
C86 C85 1.459 . S
C86 C87 1.445 . S
C86 C95 1.395 . S
C87 C65 1.432 . S
C87 C86 1.445 . S
C87 C88 1.370 . S
C88 C87 1.370 . S
C88 C89 1.438 . S
C88 H150 0.930 . S
C89 C75 1.497 . S
C89 C88 1.438 . S
C89 C90 1.360 . S
C90 C89 1.360 . S
C90 C91 1.401 . S
C90 C95 1.446 . S
C91 C90 1.401 . S
C91 C92 1.347 . S
C91 H151 0.929 . S
C92 C91 1.347 . S
C92 C93 1.455 . S
C92 H152 0.930 . S
C93 C80 1.412 . S
C93 C92 1.455 . S
C93 C94 1.331 . S
C94 C83 1.451 . S
C94 C93 1.331 . S
C94 C95 1.497 . S
C95 C86 1.395 . S
C95 C90 1.446 . S
C95 C94 1.497 . S
C96 C97 1.582 . S
C96 H153 0.962 . S
C96 H154 0.959 . S
C96 H155 0.958 . S
C97 C96 1.582 . S
C97 O100 1.458 . S
C97 H126 0.980 . S
O98 C43 1.426 1_655 S
O98 C44 1.334 1_655 S
O99 C71 1.412 . S
O99 C72 1.393 . S
O100 C62 1.435 . S
O100 C97 1.458 . S
O101 C53 1.468 . S
O101 C54 1.408 . S
H102 C43 0.980 . S
H103 C42 0.959 . S
H104 C42 0.959 . S
H105 C42 0.960 . S
H106 C45 0.929 . S
H107 C49 0.929 . S
H108 C50 0.959 . S
H109 C50 0.961 . S
H110 C50 0.961 . S
H111 C51 0.960 . S
H112 C51 0.960 . S
H113 C51 0.961 . S
H114 C53 0.980 . S
H115 C52 0.961 . S
H116 C52 0.960 . S
H117 C52 0.959 . S
H118 C55 0.930 . S
H119 C59 0.931 . S
H120 C60 0.959 . S
H121 C60 0.961 . S
H122 C60 0.959 . S
H123 C61 0.960 . S
H124 C61 0.960 . S
H125 C61 0.960 . S
H126 C97 0.980 . S
H127 C63 0.930 . S
H128 C67 0.930 . S
H129 C68 0.961 . S
H130 C68 0.960 . S
H131 C68 0.958 . S
H132 C69 0.961 . S
H133 C69 0.960 . S
H134 C69 0.960 . S
H135 C71 0.980 . S
H136 C70 0.961 . S
H137 C70 0.961 1_655 S
H138 C70 0.959 1_655 S
H139 C73 0.932 . S
H140 C77 0.929 . S
H141 C78 0.961 . S
H142 C78 0.959 . S
H143 C78 0.959 . S
H144 C79 0.960 . S
H145 C79 0.962 . S
H146 C79 0.961 . S
H147 C81 0.929 . S
H148 C84 0.930 . S
H149 C85 0.929 . S
H150 C88 0.930 . S
H151 C91 0.929 . S
H152 C92 0.930 . S
H153 C96 0.962 . S
H154 C96 0.959 . S
H155 C96 0.958 . S
C156 C157 1.560 1_565 S
C156 H217 0.959 . S
C156 H218 0.959 . S
C156 H219 0.960 . S
C157 C156 1.560 1_545 S
C157 O212 1.426 1_545 S
C157 H216 0.980 . S
C158 C159 1.407 . S
C158 C163 1.418 1_545 S
C158 O212 1.334 1_545 S
C159 C158 1.407 . S
C159 C160 1.360 . S
C159 H220 0.929 . S
C160 C159 1.360 . S
C160 C161 1.401 . S
C160 C164 1.527 . S
C161 C160 1.401 . S
C161 C162 1.404 . S
C161 C194 1.587 . S
C162 C161 1.404 . S
C162 C163 1.332 1_545 S
C162 C165 1.497 1_545 S
C163 C158 1.418 1_565 S
C163 C162 1.332 1_565 S
C163 H221 0.929 . S
C164 C160 1.527 . S
C164 H222 0.959 . S
C164 H223 0.961 . S
C164 H224 0.961 . S
C165 C162 1.497 1_565 S
C165 H225 0.960 . S
C165 H226 0.960 . S
C165 H227 0.961 . S
C166 C167 1.517 . S
C166 H229 0.961 . S
C166 H230 0.960 . S
C166 H231 0.959 . S
C167 C166 1.517 . S
C167 O215 1.468 . S
C167 H228 0.980 . S
C168 C169 1.349 . S
C168 C173 1.367 . S
C168 O215 1.408 . S
C169 C168 1.349 . S
C169 C170 1.407 . S
C169 H232 0.930 . S
C170 C169 1.407 . S
C170 C171 1.449 . S
C170 C174 1.534 1_545 S
C171 C170 1.449 . S
C171 C172 1.384 . S
C171 C196 1.553 . S
C172 C171 1.384 . S
C172 C173 1.364 . S
C172 C175 1.450 . S
C173 C168 1.367 . S
C173 C172 1.364 . S
C173 H233 0.931 . S
C174 C170 1.534 1_565 S
C174 H234 0.958 1_565 S
C174 H235 0.962 . S
C174 H236 0.961 . S
C175 C172 1.450 . S
C175 H237 0.960 . S
C175 H238 0.960 . S
C175 H239 0.960 . S
C176 C177 1.309 . S
C176 C181 1.304 . S
C176 O214 1.435 . S
C177 C176 1.309 . S
C177 C178 1.476 . S
C177 H241 0.930 . S
C178 C177 1.476 . S
C178 C179 1.400 . S
C178 C182 1.567 . S
C179 C178 1.400 . S
C179 C180 1.373 . S
C179 C201 1.432 . S
C180 C179 1.373 . S
C180 C181 1.339 . S
C180 C183 1.530 . S
C181 C176 1.304 . S
C181 C180 1.339 . S
C181 H242 0.930 . S
C182 C178 1.567 . S
C182 H243 0.961 . S
C182 H244 0.960 1_545 S
C182 H245 0.958 1_545 S
C183 C180 1.530 . S
C183 H246 0.961 . S
C183 H247 0.960 . S
C183 H248 0.960 . S
C184 C185 1.530 . S
C184 H250 0.961 . S
C184 H251 0.961 . S
C184 H252 0.959 . S
C185 C184 1.530 . S
C185 O213 1.412 . S
C185 H249 0.980 . S
C186 C187 1.288 . S
C186 C191 1.377 . S
C186 O213 1.393 . S
C187 C186 1.288 . S
C187 C188 1.369 . S
C187 H253 0.932 1_545 S
C188 C187 1.369 . S
C188 C189 1.398 . S
C188 C192 1.527 1_545 S
C189 C188 1.398 . S
C189 C190 1.380 . S
C189 C203 1.497 . S
C190 C189 1.380 . S
C190 C191 1.383 . S
C190 C193 1.603 . S
C191 C186 1.377 . S
C191 C190 1.383 . S
C191 H254 0.929 . S
C192 C188 1.527 1_565 S
C192 H255 0.961 . S
C192 H256 0.959 . S
C192 H257 0.959 . S
C193 C190 1.603 . S
C193 H258 0.960 . S
C193 H259 0.962 . S
C193 H260 0.961 . S
C194 C161 1.587 . S
C194 C195 1.360 . S
C194 C207 1.412 . S
C195 C194 1.360 . S
C195 C196 1.365 . S
C195 H261 0.929 . S
C196 C171 1.553 . S
C196 C195 1.365 . S
C196 C197 1.404 . S
C197 C196 1.404 . S
C197 C198 1.395 . S
C197 C208 1.451 . S
C198 C197 1.395 . S
C198 C199 1.322 . S
C198 H262 0.930 . S
C199 C198 1.322 . S
C199 C200 1.459 . S
C199 H263 0.929 . S
C200 C199 1.459 . S
C200 C201 1.445 . S
C200 C209 1.395 . S
C201 C179 1.432 . S
C201 C200 1.445 . S
C201 C202 1.370 . S
C202 C201 1.370 . S
C202 C203 1.438 . S
C202 H264 0.930 . S
C203 C189 1.497 . S
C203 C202 1.438 . S
C203 C204 1.360 . S
C204 C203 1.360 . S
C204 C205 1.401 . S
C204 C209 1.446 . S
C205 C204 1.401 . S
C205 C206 1.347 . S
C205 H265 0.929 . S
C206 C205 1.347 . S
C206 C207 1.455 . S
C206 H266 0.930 . S
C207 C194 1.412 . S
C207 C206 1.455 . S
C207 C208 1.331 . S
C208 C197 1.451 . S
C208 C207 1.331 . S
C208 C209 1.497 . S
C209 C200 1.395 . S
C209 C204 1.446 . S
C209 C208 1.497 . S
C210 C211 1.582 . S
C210 H267 0.962 . S
C210 H268 0.959 . S
C210 H269 0.958 . S
C211 C210 1.582 . S
C211 O214 1.458 . S
C211 H240 0.980 . S
O212 C157 1.426 1_565 S
O212 C158 1.334 1_565 S
O213 C185 1.412 . S
O213 C186 1.393 . S
O214 C176 1.435 . S
O214 C211 1.458 . S
O215 C167 1.468 . S
O215 C168 1.408 . S
H216 C157 0.980 . S
H217 C156 0.959 . S
H218 C156 0.959 . S
H219 C156 0.960 . S
H220 C159 0.929 . S
H221 C163 0.929 . S
H222 C164 0.959 . S
H223 C164 0.961 . S
H224 C164 0.961 . S
H225 C165 0.960 . S
H226 C165 0.960 . S
H227 C165 0.961 . S
H228 C167 0.980 . S
H229 C166 0.961 . S
H230 C166 0.960 . S
H231 C166 0.959 . S
H232 C169 0.930 . S
H233 C173 0.931 . S
H234 C174 0.958 1_545 S
H235 C174 0.962 . S
H236 C174 0.961 . S
H237 C175 0.960 . S
H238 C175 0.960 . S
H239 C175 0.960 . S
H240 C211 0.980 . S
H241 C177 0.930 . S
H242 C181 0.930 . S
H243 C182 0.961 . S
H244 C182 0.960 1_565 S
H245 C182 0.958 1_565 S
H246 C183 0.961 . S
H247 C183 0.960 . S
H248 C183 0.960 . S
H249 C185 0.980 . S
H250 C184 0.961 . S
H251 C184 0.961 . S
H252 C184 0.959 . S
H253 C187 0.932 1_565 S
H254 C191 0.929 . S
H255 C192 0.961 . S
H256 C192 0.959 . S
H257 C192 0.959 . S
H258 C193 0.960 . S
H259 C193 0.962 . S
H260 C193 0.961 . S
H261 C195 0.929 . S
H262 C198 0.930 . S
H263 C199 0.929 . S
H264 C202 0.930 . S
H265 C205 0.929 . S
H266 C206 0.930 . S
H267 C210 0.962 . S
H268 C210 0.959 . S
H269 C210 0.958 . S
C270 C271 1.560 . S
C270 H331 0.959 . S
C270 H332 0.959 . S
C270 H333 0.960 . S
C271 C270 1.560 . S
C271 O326 1.426 . S
C271 H330 0.980 . S
C272 C273 1.407 . S
C272 C277 1.418 . S
C272 O326 1.334 . S
C273 C272 1.407 . S
C273 C274 1.360 . S
C273 H334 0.929 . S
C274 C273 1.360 . S
C274 C275 1.401 . S
C274 C278 1.527 . S
C275 C274 1.401 . S
C275 C276 1.405 . S
C275 C308 1.587 . S
C276 C275 1.405 . S
C276 C277 1.332 . S
C276 C279 1.496 . S
C277 C272 1.418 . S
C277 C276 1.332 . S
C277 H335 0.929 . S
C278 C274 1.527 . S
C278 H336 0.959 . S
C278 H337 0.961 . S
C278 H338 0.961 . S
C279 C276 1.496 . S
C279 H339 0.960 . S
C279 H340 0.960 . S
C279 H341 0.961 . S
C280 C281 1.517 . S
C280 H343 0.961 . S
C280 H344 0.960 . S
C280 H345 0.959 . S
C281 C280 1.517 . S
C281 O329 1.468 . S
C281 H342 0.980 . S
C282 C283 1.349 . S
C282 C287 1.367 . S
C282 O329 1.408 . S
C283 C282 1.349 . S
C283 C284 1.407 . S
C283 H346 0.930 . S
C284 C283 1.407 . S
C284 C285 1.449 . S
C284 C288 1.535 . S
C285 C284 1.449 . S
C285 C286 1.384 . S
C285 C310 1.553 . S
C286 C285 1.384 . S
C286 C287 1.364 . S
C286 C289 1.450 . S
C287 C282 1.367 . S
C287 C286 1.364 . S
C287 H347 0.931 . S
C288 C284 1.535 . S
C288 H348 0.959 . S
C288 H349 0.961 . S
C288 H350 0.959 . S
C289 C286 1.450 . S
C289 H351 0.960 . S
C289 H352 0.960 . S
C289 H353 0.960 . S
C290 C291 1.309 . S
C290 C295 1.304 . S
C290 O328 1.435 . S
C291 C290 1.309 . S
C291 C292 1.476 . S
C291 H355 0.930 . S
C292 C291 1.476 . S
C292 C293 1.400 . S
C292 C296 1.567 . S
C293 C292 1.400 . S
C293 C294 1.373 . S
C293 C315 1.432 . S
C294 C293 1.373 . S
C294 C295 1.339 . S
C294 C297 1.530 . S
C295 C290 1.304 . S
C295 C294 1.339 . S
C295 H356 0.930 . S
C296 C292 1.567 . S
C296 H357 0.961 . S
C296 H358 0.960 . S
C296 H359 0.958 . S
C297 C294 1.530 . S
C297 H360 0.961 . S
C297 H361 0.960 . S
C297 H362 0.960 . S
C298 C299 1.530 . S
C298 H364 0.961 . S
C298 H365 0.961 . S
C298 H366 0.959 . S
C299 C298 1.530 . S
C299 O327 1.412 . S
C299 H363 0.980 . S
C300 C301 1.288 . S
C300 C305 1.377 . S
C300 O327 1.393 . S
C301 C300 1.288 . S
C301 C302 1.369 . S
C301 H367 0.932 . S
C302 C301 1.369 . S
C302 C303 1.398 . S
C302 C306 1.527 . S
C303 C302 1.398 . S
C303 C304 1.380 . S
C303 C317 1.497 . S
C304 C303 1.380 . S
C304 C305 1.383 . S
C304 C307 1.603 . S
C305 C300 1.377 . S
C305 C304 1.383 . S
C305 H368 0.929 . S
C306 C302 1.527 . S
C306 H369 0.961 . S
C306 H370 0.959 . S
C306 H371 0.959 . S
C307 C304 1.603 . S
C307 H372 0.960 . S
C307 H373 0.962 . S
C307 H374 0.961 . S
C308 C275 1.587 . S
C308 C309 1.360 . S
C308 C321 1.412 . S
C309 C308 1.360 . S
C309 C310 1.365 . S
C309 H375 0.929 . S
C310 C285 1.553 . S
C310 C309 1.365 . S
C310 C311 1.404 . S
C311 C310 1.404 . S
C311 C312 1.395 . S
C311 C322 1.451 . S
C312 C311 1.395 . S
C312 C313 1.322 . S
C312 H376 0.930 . S
C313 C312 1.322 . S
C313 C314 1.459 . S
C313 H377 0.929 . S
C314 C313 1.459 . S
C314 C315 1.445 . S
C314 C323 1.395 . S
C315 C293 1.432 . S
C315 C314 1.445 . S
C315 C316 1.370 . S
C316 C315 1.370 . S
C316 C317 1.438 . S
C316 H378 0.930 . S
C317 C303 1.497 . S
C317 C316 1.438 . S
C317 C318 1.360 . S
C318 C317 1.360 . S
C318 C319 1.401 . S
C318 C323 1.446 . S
C319 C318 1.401 . S
C319 C320 1.347 . S
C319 H379 0.929 . S
C320 C319 1.347 . S
C320 C321 1.455 . S
C320 H380 0.930 . S
C321 C308 1.412 . S
C321 C320 1.455 . S
C321 C322 1.331 . S
C322 C311 1.451 . S
C322 C321 1.331 . S
C322 C323 1.497 . S
C323 C314 1.395 . S
C323 C318 1.446 . S
C323 C322 1.497 . S
C324 C325 1.582 . S
C324 H381 0.962 . S
C324 H382 0.959 . S
C324 H383 0.958 . S
C325 C324 1.582 . S
C325 O328 1.458 . S
C325 H354 0.980 . S
O326 C271 1.426 . S
O326 C272 1.334 . S
O327 C299 1.412 . S
O327 C300 1.393 . S
O328 C290 1.435 . S
O328 C325 1.458 . S
O329 C281 1.468 . S
O329 C282 1.408 . S
H330 C271 0.980 . S
H331 C270 0.959 . S
H332 C270 0.959 . S
H333 C270 0.960 . S
H334 C273 0.929 . S
H335 C277 0.929 . S
H336 C278 0.959 . S
H337 C278 0.961 . S
H338 C278 0.961 . S
H339 C279 0.960 . S
H340 C279 0.960 . S
H341 C279 0.961 . S
H342 C281 0.980 . S
H343 C280 0.961 . S
H344 C280 0.960 . S
H345 C280 0.959 . S
H346 C283 0.930 . S
H347 C287 0.931 . S
H348 C288 0.959 . S
H349 C288 0.961 . S
H350 C288 0.959 . S
H351 C289 0.960 . S
H352 C289 0.960 . S
H353 C289 0.960 . S
H354 C325 0.980 . S
H355 C291 0.930 . S
H356 C295 0.930 . S
H357 C296 0.961 . S
H358 C296 0.960 . S
H359 C296 0.958 . S
H360 C297 0.961 . S
H361 C297 0.960 . S
H362 C297 0.960 . S
H363 C299 0.980 . S
H364 C298 0.961 . S
H365 C298 0.961 . S
H366 C298 0.959 . S
H367 C301 0.932 . S
H368 C305 0.929 . S
H369 C306 0.961 . S
H370 C306 0.959 . S
H371 C306 0.959 . S
H372 C307 0.960 . S
H373 C307 0.962 . S
H374 C307 0.961 . S
H375 C309 0.929 . S
H376 C312 0.930 . S
H377 C313 0.929 . S
H378 C316 0.930 . S
H379 C319 0.929 . S
H380 C320 0.930 . S
H381 C324 0.962 . S
H382 C324 0.959 . S
H383 C324 0.958 . S
H384 C396 0.930 1_655 S
H385 C398 0.930 . S
H386 C399 0.930 . S
H387 C403 0.959 . S
H388 C403 0.959 . S
H389 C403 0.961 . S
H390 C404 0.960 . S
H391 C404 0.961 . S
H392 C404 0.959 1_455 S
H393 C407 0.929 . S
H394 C408 0.931 . S
H395 C410 0.930 1_655 S
C396 H384 0.930 1_455 S
C396 C397 1.399 . S
C396 C401 1.399 . S
C397 C396 1.399 . S
C397 C398 1.376 . S
C398 H385 0.930 . S
C398 C397 1.376 . S
C398 C399 1.388 . S
C399 H386 0.930 . S
C399 C398 1.388 . S
C399 C400 1.390 . S
C400 C399 1.390 . S
C400 C401 1.394 . S
C400 C406 1.465 . S
C401 C396 1.399 . S
C401 C400 1.394 . S
C401 C402 1.516 1_455 S
C402 C401 1.516 1_655 S
C402 C403 1.502 . S
C402 C404 1.561 . S
C402 C405 1.526 1_655 S
C403 H387 0.959 . S
C403 H388 0.959 . S
C403 H389 0.961 . S
C403 C402 1.502 . S
C404 H390 0.960 . S
C404 H391 0.961 . S
C404 H392 0.959 1_655 S
C404 C402 1.561 . S
C405 C402 1.526 1_455 S
C405 C406 1.396 . S
C405 C410 1.390 . S
C406 C400 1.465 . S
C406 C405 1.396 . S
C406 C407 1.399 . S
C407 H393 0.929 . S
C407 C406 1.399 . S
C407 C408 1.385 . S
C408 H394 0.931 . S
C408 C407 1.385 . S
C408 C409 1.389 . S
C409 C408 1.389 . S
C409 C410 1.387 . S
C410 H395 0.930 1_455 S
C410 C405 1.390 . S
C410 C409 1.387 . S
H411 C423 0.930 . S
H412 C425 0.930 1_565 S
H413 C426 0.930 1_565 S
H414 C430 0.959 . S
H415 C430 0.959 . S
H416 C430 0.961 . S
H417 C431 0.960 . S
H418 C431 0.961 . S
H419 C431 0.959 . S
H420 C434 0.929 1_565 S
H421 C435 0.931 1_565 S
H422 C437 0.930 . S
C423 H411 0.930 . S
C423 C424 1.399 . S
C423 C428 1.399 . S
C424 C423 1.399 . S
C424 C425 1.376 . S
C425 H412 0.930 1_545 S
C425 C424 1.376 . S
C425 C426 1.388 . S
C426 H413 0.930 1_545 S
C426 C425 1.388 . S
C426 C427 1.390 . S
C427 C426 1.390 . S
C427 C428 1.394 . S
C427 C433 1.465 . S
C428 C423 1.399 . S
C428 C427 1.394 . S
C428 C429 1.516 . S
C429 C428 1.516 . S
C429 C430 1.502 . S
C429 C431 1.561 . S
C429 C432 1.526 . S
C430 H414 0.959 . S
C430 H415 0.959 . S
C430 H416 0.961 . S
C430 C429 1.502 . S
C431 H417 0.960 . S
C431 H418 0.961 . S
C431 H419 0.959 . S
C431 C429 1.561 . S
C432 C429 1.526 . S
C432 C433 1.396 . S
C432 C437 1.390 . S
C433 C427 1.465 . S
C433 C432 1.396 . S
C433 C434 1.399 . S
C434 H420 0.929 1_545 S
C434 C433 1.399 . S
C434 C435 1.385 . S
C435 H421 0.931 1_545 S
C435 C434 1.385 . S
C435 C436 1.389 . S
C436 C435 1.389 . S
C436 C437 1.387 . S
C437 H422 0.930 . S
C437 C432 1.390 . S
C437 C436 1.387 . S
H438 C450 0.930 . S
H439 C452 0.930 . S
H440 C453 0.930 . S
H441 C457 0.959 . S
H442 C457 0.959 . S
H443 C457 0.961 . S
H444 C458 0.960 . S
H445 C458 0.961 . S
H446 C458 0.959 . S
H447 C461 0.929 . S
H448 C462 0.931 . S
H449 C464 0.930 . S
C450 H438 0.930 . S
C450 C451 1.399 . S
C450 C455 1.399 . S
C451 C450 1.399 . S
C451 C452 1.376 . S
C452 H439 0.930 . S
C452 C451 1.376 . S
C452 C453 1.388 . S
C453 H440 0.930 . S
C453 C452 1.388 . S
C453 C454 1.390 . S
C454 C453 1.390 . S
C454 C455 1.394 . S
C454 C460 1.465 . S
C455 C450 1.399 . S
C455 C454 1.394 . S
C455 C456 1.516 . S
C456 C455 1.516 . S
C456 C457 1.502 . S
C456 C458 1.561 . S
C456 C459 1.526 . S
C457 H441 0.959 . S
C457 H442 0.959 . S
C457 H443 0.961 . S
C457 C456 1.502 . S
C458 H444 0.960 . S
C458 H445 0.961 . S
C458 H446 0.959 . S
C458 C456 1.561 . S
C459 C456 1.526 . S
C459 C460 1.396 . S
C459 C464 1.390 . S
C460 C454 1.465 . S
C460 C459 1.396 . S
C460 C461 1.399 . S
C461 H447 0.929 . S
C461 C460 1.399 . S
C461 C462 1.385 . S
C462 H448 0.931 . S
C462 C461 1.385 . S
C462 C463 1.389 . S
C463 C462 1.389 . S
C463 C464 1.387 . S
C464 H449 0.930 . S
C464 C459 1.390 . S
C464 C463 1.387 . S
H465 C477 0.930 1_545 S
H466 C479 0.930 . S
H467 C480 0.930 1_655 S
H468 C484 0.959 . S
H469 C484 0.959 . S
H470 C484 0.961 . S
H471 C485 0.960 . S
H472 C485 0.961 . S
H473 C485 0.959 . S
H474 C488 0.929 1_655 S
H475 C489 0.931 . S
H476 C491 0.930 . S
C477 H465 0.930 1_565 S
C477 C478 1.399 . S
C477 C482 1.399 . S
C478 C477 1.399 . S
C478 C479 1.376 . S
C479 H466 0.930 . S
C479 C478 1.376 . S
C479 C480 1.388 . S
C480 H467 0.930 1_455 S
C480 C479 1.388 . S
C480 C481 1.390 . S
C481 C480 1.390 . S
C481 C482 1.394 . S
C481 C487 1.465 . S
C482 C477 1.399 . S
C482 C481 1.394 . S
C482 C483 1.516 . S
C483 C482 1.516 . S
C483 C484 1.502 . S
C483 C485 1.561 . S
C483 C486 1.526 . S
C484 H468 0.959 . S
C484 H469 0.959 . S
C484 H470 0.961 . S
C484 C483 1.502 . S
C485 H471 0.960 . S
C485 H472 0.961 . S
C485 H473 0.959 . S
C485 C483 1.561 . S
C486 C483 1.526 . S
C486 C487 1.396 . S
C486 C491 1.390 . S
C487 C481 1.465 . S
C487 C486 1.396 . S
C487 C488 1.399 . S
C488 H474 0.929 1_455 S
C488 C487 1.399 . S
C488 C489 1.385 . S
C489 H475 0.931 . S
C489 C488 1.385 . S
C489 C490 1.389 . S
C490 C489 1.389 . S
C490 C491 1.387 . S
C491 H476 0.930 . S
C491 C486 1.390 . S
C491 C490 1.387 . S
H492 C504 0.930 . S
H493 C506 0.930 . S
H494 C507 0.930 . S
H495 C511 0.959 1_545 S
H496 C511 0.959 . S
H497 C511 0.961 . S
H498 C512 0.960 1_565 S
H499 C512 0.961 1_565 S
H500 C512 0.959 . S
H501 C515 0.929 . S
H502 C516 0.931 . S
H503 C518 0.930 . S
C504 H492 0.930 . S
C504 C505 1.399 . S
C504 C509 1.399 . S
C505 C504 1.399 . S
C505 C506 1.376 . S
C506 H493 0.930 . S
C506 C505 1.376 . S
C506 C507 1.388 . S
C507 H494 0.930 . S
C507 C506 1.388 . S
C507 C508 1.390 . S
C508 C507 1.390 . S
C508 C509 1.394 . S
C508 C514 1.465 . S
C509 C504 1.399 . S
C509 C508 1.394 . S
C509 C510 1.516 . S
C510 C509 1.516 . S
C510 C511 1.502 1_545 S
C510 C512 1.561 . S
C510 C513 1.526 . S
C511 H495 0.959 1_565 S
C511 H496 0.959 . S
C511 H497 0.961 . S
C511 C510 1.502 1_565 S
C512 H498 0.960 1_545 S
C512 H499 0.961 1_545 S
C512 H500 0.959 . S
C512 C510 1.561 . S
C513 C510 1.526 . S
C513 C514 1.396 . S
C513 C518 1.390 . S
C514 C508 1.465 . S
C514 C513 1.396 . S
C514 C515 1.399 . S
C515 H501 0.929 . S
C515 C514 1.399 . S
C515 C516 1.385 . S
C516 H502 0.931 . S
C516 C515 1.385 . S
C516 C517 1.389 . S
C517 C516 1.389 . S
C517 C518 1.387 . S
C518 H503 0.930 . S
C518 C513 1.390 . S
C518 C517 1.387 . S
H519 C531 0.930 . S
H520 C533 0.930 . S
H521 C534 0.930 . S
H522 C538 0.959 . S
H523 C538 0.959 . S
H524 C538 0.961 . S
H525 C539 0.960 . S
H526 C539 0.961 . S
H527 C539 0.959 . S
H528 C542 0.929 . S
H529 C543 0.931 . S
H530 C545 0.930 . S
C531 H519 0.930 . S
C531 C532 1.399 . S
C531 C536 1.399 . S
C532 C531 1.399 . S
C532 C533 1.376 . S
C533 H520 0.930 . S
C533 C532 1.376 . S
C533 C534 1.388 . S
C534 H521 0.930 . S
C534 C533 1.388 . S
C534 C535 1.390 . S
C535 C534 1.390 . S
C535 C536 1.394 . S
C535 C541 1.465 . S
C536 C531 1.399 . S
C536 C535 1.394 . S
C536 C537 1.516 . S
C537 C536 1.516 . S
C537 C538 1.502 . S
C537 C539 1.561 . S
C537 C540 1.526 . S
C538 H522 0.959 . S
C538 H523 0.959 . S
C538 H524 0.961 . S
C538 C537 1.502 . S
C539 H525 0.960 . S
C539 H526 0.961 . S
C539 H527 0.959 . S
C539 C537 1.561 . S
C540 C537 1.526 . S
C540 C541 1.396 . S
C540 C545 1.390 . S
C541 C535 1.465 . S
C541 C540 1.396 . S
C541 C542 1.399 . S
C542 H528 0.929 . S
C542 C541 1.399 . S
C542 C543 1.385 . S
C543 H529 0.931 . S
C543 C542 1.385 . S
C543 C544 1.389 . S
C544 C543 1.389 . S
C544 C545 1.387 . S
C545 H530 0.930 . S
C545 C540 1.390 . S
C545 C544 1.387 . S
H546 C558 0.930 1_565 S
H547 C560 0.930 . S
H548 C561 0.930 . S
H549 C565 0.959 1_545 S
H550 C565 0.959 . S
H551 C565 0.961 . S
H552 C566 0.960 . S
H553 C566 0.961 . S
H554 C566 0.959 . S
H555 C569 0.929 . S
H556 C570 0.931 . S
H557 C572 0.930 1_565 S
C558 H546 0.930 1_545 S
C558 C559 1.399 . S
C558 C563 1.399 . S
C559 C558 1.399 . S
C559 C560 1.376 . S
C560 H547 0.930 . S
C560 C559 1.376 . S
C560 C561 1.388 . S
C561 H548 0.930 . S
C561 C560 1.388 . S
C561 C562 1.390 . S
C562 C561 1.390 . S
C562 C563 1.394 . S
C562 C568 1.465 . S
C563 C558 1.399 . S
C563 C562 1.394 . S
C563 C564 1.516 1_545 S
C564 C563 1.516 1_565 S
C564 C565 1.502 . S
C564 C566 1.561 . S
C564 C567 1.526 1_565 S
C565 H549 0.959 1_565 S
C565 H550 0.959 . S
C565 H551 0.961 . S
C565 C564 1.502 . S
C566 H552 0.960 . S
C566 H553 0.961 . S
C566 H554 0.959 . S
C566 C564 1.561 . S
C567 C564 1.526 1_545 S
C567 C568 1.396 . S
C567 C572 1.390 . S
C568 C562 1.465 . S
C568 C567 1.396 . S
C568 C569 1.399 . S
C569 H555 0.929 . S
C569 C568 1.399 . S
C569 C570 1.385 . S
C570 H556 0.931 . S
C570 C569 1.385 . S
C570 C571 1.389 . S
C571 C570 1.389 . S
C571 C572 1.387 . S
C572 H557 0.930 1_545 S
C572 C567 1.390 . S
C572 C571 1.387 . S
H573 C585 0.930 . S
H574 C587 0.930 1_455 S
H575 C588 0.909 1_556 S
H576 C592 0.959 . S
H577 C592 0.959 . S
H578 C592 0.961 . S
H579 C593 0.960 . S
H580 C593 0.961 . S
H581 C593 0.959 1_556 S
H582 C596 0.929 . S
H583 C597 0.931 . S
H584 C599 0.930 . S
C585 H573 0.930 . S
C585 C586 1.399 . S
C585 C590 1.399 . S
C586 C585 1.399 . S
C586 C587 1.376 . S
C587 H574 0.930 1_655 S
C587 C586 1.376 . S
C587 C588 1.406 . S
C588 H575 0.909 1_554 S
C588 C587 1.406 . S
C588 C589 1.394 . S
C589 C588 1.394 . S
C589 C590 1.394 . S
C589 C595 1.465 1_554 S
C590 C585 1.399 . S
C590 C589 1.394 . S
C590 C591 1.516 . S
C591 C590 1.516 . S
C591 C592 1.502 . S
C591 C593 1.561 . S
C591 C594 1.526 1_554 S
C592 H576 0.959 . S
C592 H577 0.959 . S
C592 H578 0.961 . S
C592 C591 1.502 . S
C593 H579 0.960 . S
C593 H580 0.961 . S
C593 H581 0.959 1_554 S
C593 C591 1.561 . S
C594 C591 1.526 1_556 S
C594 C595 1.396 . S
C594 C599 1.390 . S
C595 C589 1.465 1_556 S
C595 C594 1.396 . S
C595 C596 1.399 . S
C596 H582 0.929 . S
C596 C595 1.399 . S
C596 C597 1.385 . S
C597 H583 0.931 . S
C597 C596 1.385 . S
C597 C598 1.389 . S
C598 C597 1.389 . S
C598 C599 1.387 . S
C599 H584 0.930 . S
C599 C594 1.390 . S
C599 C598 1.387 . S
H600 C612 0.930 . S
H601 C614 0.930 . S
H602 C615 0.930 . S
H603 C619 0.959 . S
H604 C619 0.959 . S
H605 C619 0.961 . S
H606 C620 0.960 1_655 S
H607 C620 0.961 1_655 S
H608 C620 0.959 . S
H609 C623 0.929 . S
H610 C624 0.931 . S
H611 C626 0.930 1_655 S
C612 H600 0.930 . S
C612 C613 1.399 1_655 S
C612 C617 1.399 1_655 S
C613 C612 1.399 1_455 S
C613 C614 1.376 . S
C614 H601 0.930 . S
C614 C613 1.376 . S
C614 C615 1.388 . S
C615 H602 0.930 . S
C615 C614 1.388 . S
C615 C616 1.390 . S
C616 C615 1.390 . S
C616 C617 1.394 . S
C616 C622 1.465 . S
C617 C612 1.399 1_455 S
C617 C616 1.394 . S
C617 C618 1.516 1_455 S
C618 C617 1.516 1_655 S
C618 C619 1.502 . S
C618 C620 1.561 1_655 S
C618 C621 1.526 1_655 S
C619 H603 0.959 . S
C619 H604 0.959 . S
C619 H605 0.961 . S
C619 C618 1.502 . S
C620 H606 0.960 1_455 S
C620 H607 0.961 1_455 S
C620 H608 0.959 . S
C620 C618 1.561 1_455 S
C621 C618 1.526 1_455 S
C621 C622 1.396 . S
C621 C626 1.390 . S
C622 C616 1.465 . S
C622 C621 1.396 . S
C622 C623 1.399 . S
C623 H609 0.929 . S
C623 C622 1.399 . S
C623 C624 1.385 . S
C624 H610 0.931 . S
C624 C623 1.385 . S
C624 C625 1.389 . S
C625 C624 1.389 . S
C625 C626 1.387 . S
C626 H611 0.930 1_455 S
C626 C621 1.390 . S
C626 C625 1.387 . S
H627 C639 0.930 . S
H628 C641 0.930 . S
H629 C642 0.930 . S
H630 C646 0.959 . S
H631 C646 0.959 . S
H632 C646 0.961 . S
H633 C647 0.960 . S
H634 C647 0.961 . S
H635 C647 0.959 . S
H636 C650 0.929 . S
H637 C651 0.931 . S
H638 C653 0.930 . S
C639 H627 0.930 . S
C639 C640 1.399 . S
C639 C644 1.399 . S
C640 C639 1.399 . S
C640 C641 1.376 1_545 S
C641 H628 0.930 . S
C641 C640 1.376 1_565 S
C641 C642 1.388 . S
C642 H629 0.930 . S
C642 C641 1.388 . S
C642 C643 1.390 . S
C643 C642 1.390 . S
C643 C644 1.394 1_565 S
C643 C649 1.465 . S
C644 C639 1.399 . S
C644 C643 1.394 1_545 S
C644 C645 1.516 . S
C645 C644 1.516 . S
C645 C646 1.502 . S
C645 C647 1.561 . S
C645 C648 1.526 . S
C646 H630 0.959 . S
C646 H631 0.959 . S
C646 H632 0.961 . S
C646 C645 1.502 . S
C647 H633 0.960 . S
C647 H634 0.961 . S
C647 H635 0.959 . S
C647 C645 1.561 . S
C648 C645 1.526 . S
C648 C649 1.396 1_545 S
C648 C653 1.390 . S
C649 C643 1.465 . S
C649 C648 1.396 1_565 S
C649 C650 1.399 . S
C650 H636 0.929 . S
C650 C649 1.399 . S
C650 C651 1.385 . S
C651 H637 0.931 . S
C651 C650 1.385 . S
C651 C652 1.389 1_565 S
C652 C651 1.389 1_545 S
C652 C653 1.387 . S
C653 H638 0.930 . S
C653 C648 1.390 . S
C653 C652 1.387 . S
H654 C666 0.930 . S
H655 C668 0.930 . S
H656 C669 0.930 . S
H657 C673 0.959 . S
H658 C673 0.959 . S
H659 C673 0.961 . S
H660 C674 0.960 . S
H661 C674 0.961 . S
H662 C674 0.959 1_554 S
H663 C677 0.929 1_554 S
H664 C678 0.931 . S
H665 C680 0.930 . S
C666 H654 0.930 . S
C666 C667 1.399 . S
C666 C671 1.399 . S
C667 C666 1.399 . S
C667 C668 1.376 . S
C668 H655 0.930 . S
C668 C667 1.376 . S
C668 C669 1.388 . S
C669 H656 0.930 . S
C669 C668 1.388 . S
C669 C670 1.390 . S
C670 C669 1.390 . S
C670 C671 1.394 . S
C670 C676 1.465 1_554 S
C671 C666 1.399 . S
C671 C670 1.394 . S
C671 C672 1.516 1_554 S
C672 C671 1.516 1_556 S
C672 C673 1.502 . S
C672 C674 1.561 . S
C672 C675 1.526 . S
C673 H657 0.959 . S
C673 H658 0.959 . S
C673 H659 0.961 . S
C673 C672 1.502 . S
C674 H660 0.960 . S
C674 H661 0.961 . S
C674 H662 0.959 1_556 S
C674 C672 1.561 . S
C675 C672 1.526 . S
C675 C676 1.396 . S
C675 C680 1.390 . S
C676 C670 1.465 1_556 S
C676 C675 1.396 . S
C676 C677 1.399 . S
C677 H663 0.929 1_556 S
C677 C676 1.399 . S
C677 C678 1.385 . S
C678 H664 0.931 . S
C678 C677 1.385 . S
C678 C679 1.389 . S
C679 C678 1.389 . S
C679 C680 1.387 . S
C680 H665 0.930 . S
C680 C675 1.390 . S
C680 C679 1.387 . S
H681 C693 0.930 . S
H682 C695 0.930 . S
H683 C696 0.930 . S
H684 C700 0.967 . S
H685 C700 0.954 1_655 S
H686 C700 0.962 1_655 S
H687 C701 0.960 . S
H688 C701 0.961 . S
H689 C701 0.959 . S
H690 C704 0.929 . S
H691 C705 0.931 . S
H692 C707 0.930 1_655 S
C693 H681 0.930 . S
C693 C694 1.399 . S
C693 C698 1.399 . S
C694 C693 1.399 . S
C694 C695 1.376 . S
C695 H682 0.930 . S
C695 C694 1.376 . S
C695 C696 1.388 . S
C696 H683 0.930 . S
C696 C695 1.388 . S
C696 C697 1.390 . S
C697 C696 1.390 . S
C697 C698 1.394 . S
C697 C703 1.465 . S
C698 C693 1.399 . S
C698 C697 1.394 . S
C698 C699 1.518 . S
C699 C698 1.518 . S
C699 C700 1.500 . S
C699 C701 1.558 1_455 S
C699 C702 1.526 . S
C700 H684 0.967 . S
C700 H685 0.954 1_455 S
C700 H686 0.962 1_455 S
C700 C699 1.500 . S
C701 H687 0.960 . S
C701 H688 0.961 . S
C701 H689 0.959 . S
C701 C699 1.558 1_655 S
C702 C699 1.526 . S
C702 C703 1.396 . S
C702 C707 1.390 . S
C703 C697 1.465 . S
C703 C702 1.396 . S
C703 C704 1.399 . S
C704 H690 0.929 . S
C704 C703 1.399 . S
C704 C705 1.385 . S
C705 H691 0.931 . S
C705 C704 1.385 . S
C705 C706 1.389 . S
C706 C705 1.389 . S
C706 C707 1.387 . S
C707 H692 0.930 1_455 S
C707 C702 1.390 . S
C707 C706 1.387 . S
C409 C97 0.971 . S
C397 C11 1.351 . S
C424 C25 1.461 . S
C436 C211 1.180 . S
C451 C41 1.189 . S
C463 C271 1.132 . S
C478 C7 1.267 1_565 S
C490 C71 1.023 . S
C517 C185 1.159 . S
C505 C21 1.346 . S
C532 C36 1.339 . S
C544 C281 0.931 . S
C571 C167 0.717 . S
C559 C39 1.368 . S
C586 C8 1.286 1_665 S
C598 C299 1.054 . S
C625 C43 1.055 . S
C613 C22 1.279 1_565 S
C652 C157 0.926 . S
C640 C35 1.256 . S
C679 C325 1.161 . S
C667 C13 1.414 . S
C694 C27 1.393 . S
C706 C53 0.750 . S
