# Generated by pormake.
# Topology pto, (3,4)-cn, num edge types: 1
# Building blocks:
#     Node 0, Type 0, BuildingBlock: VETTIZ_charged_linker_0, # of connection points: 3
#     Node 1, Type 0, BuildingBlock: VETTIZ_charged_linker_0, # of connection points: 3
#     Node 2, Type 0, BuildingBlock: VETTIZ_charged_linker_0, # of connection points: 3
#     Node 3, Type 0, BuildingBlock: VETTIZ_charged_linker_0, # of connection points: 3
#     Node 4, Type 0, BuildingBlock: VETTIZ_charged_linker_0, # of connection points: 3
#     Node 5, Type 0, BuildingBlock: VETTIZ_charged_linker_0, # of connection points: 3
#     Node 6, Type 0, BuildingBlock: VETTIZ_charged_linker_0, # of connection points: 3
#     Node 7, Type 0, BuildingBlock: VETTIZ_charged_linker_0, # of connection points: 3
#     Node 8, Type 1, BuildingBlock: NAWXER_clean_sbu_0, # of connection points: 4
#     Node 9, Type 1, BuildingBlock: NAWXER_clean_sbu_0, # of connection points: 4
#     Node 10, Type 1, BuildingBlock: NAWXER_clean_sbu_0, # of connection points: 4
#     Node 11, Type 1, BuildingBlock: NAWXER_clean_sbu_0, # of connection points: 4
#     Node 12, Type 1, BuildingBlock: NAWXER_clean_sbu_0, # of connection points: 4
#     Node 13, Type 1, BuildingBlock: NAWXER_clean_sbu_0, # of connection points: 4
#     Edge 14, Type (0, 1), BuildingBlock: XUDNAN_clean_linker_2, # of connection points: 2
#     Edge 15, Type (0, 1), BuildingBlock: XUDNAN_clean_linker_2, # of connection points: 2
#     Edge 16, Type (0, 1), BuildingBlock: XUDNAN_clean_linker_2, # of connection points: 2
#     Edge 17, Type (0, 1), BuildingBlock: XUDNAN_clean_linker_2, # of connection points: 2
#     Edge 18, Type (0, 1), BuildingBlock: XUDNAN_clean_linker_2, # of connection points: 2
#     Edge 19, Type (0, 1), BuildingBlock: XUDNAN_clean_linker_2, # of connection points: 2
#     Edge 20, Type (0, 1), BuildingBlock: XUDNAN_clean_linker_2, # of connection points: 2
#     Edge 21, Type (0, 1), BuildingBlock: XUDNAN_clean_linker_2, # of connection points: 2
#     Edge 22, Type (0, 1), BuildingBlock: XUDNAN_clean_linker_2, # of connection points: 2
#     Edge 23, Type (0, 1), BuildingBlock: XUDNAN_clean_linker_2, # of connection points: 2
#     Edge 24, Type (0, 1), BuildingBlock: XUDNAN_clean_linker_2, # of connection points: 2
#     Edge 25, Type (0, 1), BuildingBlock: XUDNAN_clean_linker_2, # of connection points: 2
#     Edge 26, Type (0, 1), BuildingBlock: XUDNAN_clean_linker_2, # of connection points: 2
#     Edge 27, Type (0, 1), BuildingBlock: XUDNAN_clean_linker_2, # of connection points: 2
#     Edge 28, Type (0, 1), BuildingBlock: XUDNAN_clean_linker_2, # of connection points: 2
#     Edge 29, Type (0, 1), BuildingBlock: XUDNAN_clean_linker_2, # of connection points: 2
#     Edge 30, Type (0, 1), BuildingBlock: XUDNAN_clean_linker_2, # of connection points: 2
#     Edge 31, Type (0, 1), BuildingBlock: XUDNAN_clean_linker_2, # of connection points: 2
#     Edge 32, Type (0, 1), BuildingBlock: XUDNAN_clean_linker_2, # of connection points: 2
#     Edge 33, Type (0, 1), BuildingBlock: XUDNAN_clean_linker_2, # of connection points: 2
#     Edge 34, Type (0, 1), BuildingBlock: XUDNAN_clean_linker_2, # of connection points: 2
#     Edge 35, Type (0, 1), BuildingBlock: XUDNAN_clean_linker_2, # of connection points: 2
#     Edge 36, Type (0, 1), BuildingBlock: XUDNAN_clean_linker_2, # of connection points: 2
#     Edge 37, Type (0, 1), BuildingBlock: XUDNAN_clean_linker_2, # of connection points: 2
# Relax obj value: 0.000
# Max RMSD: 0.000
# Mean RMSD: 0.000
data_MOF--net-pto--node1-NAWXER_clean_sbu_0--node2-VETTIZ_charged_linker_0--edge1-XUDNAN_clean_linker_2
_symmetry_space_group_name_H-M    P1
_symmetry_Int_Tables_number       1
_symmetry_cell_setting            triclinic
loop_
_symmetry_equiv_pos_as_xyz
'x, y, z'
_cell_length_a     53.174811
_cell_length_b     50.010452
_cell_length_c     46.941145
_cell_angle_alpha  89.875037
_cell_angle_beta   90.126303
_cell_angle_gamma 90.168287
loop_
_atom_site_label
_atom_site_type_symbol
_atom_site_fract_x
_atom_site_fract_y
_atom_site_fract_z
_atom_type_partial_charge
C0 C 0.26104 0.21594 0.33673 0.0
C1 C 0.2816 0.19912 0.34307 0.0
C2 C 0.30077 0.19615 0.32267 0.0
C3 C 0.27984 0.22728 0.29108 0.0
C4 C 0.26062 0.22993 0.31064 0.0
C5 C 0.24079 0.24933 0.30036 0.0
H6 H 0.20356 0.33868 0.19879 0.0
C7 C 0.27451 0.24496 0.26661 0.0
C8 C 0.25159 0.25804 0.27173 0.0
H9 H 0.16367 0.31733 0.27573 0.0
H10 H 0.19663 0.28592 0.28814 0.0
H11 H 0.21865 0.27839 0.18156 0.0
H12 H 0.25602 0.34231 0.2257 0.0
H13 H 0.27958 0.3261 0.2063 0.0
H14 H 0.25372 0.34158 0.18759 0.0
H15 H 0.23002 0.30799 0.16409 0.0
H16 H 0.2498 0.27913 0.16917 0.0
C17 C 0.21574 0.23391 0.29686 0.0
C18 C 0.23948 0.27279 0.32171 0.0
C19 C 0.33949 0.25381 0.18774 0.0
C20 C 0.34127 0.27109 0.16425 0.0
C21 C 0.32092 0.28787 0.15745 0.0
C22 C 0.29927 0.28805 0.17434 0.0
C23 C 0.2981 0.27156 0.19859 0.0
C24 C 0.31786 0.25459 0.20477 0.0
C25 C 0.31385 0.23963 0.23222 0.0
C26 C 0.28853 0.25058 0.24157 0.0
C27 C 0.27942 0.26915 0.22174 0.0
C28 C 0.31235 0.2094 0.22517 0.0
C29 C 0.33532 0.24748 0.25309 0.0
C30 C 0.20156 0.32699 0.21811 0.0
C31 C 0.18077 0.33047 0.23611 0.0
C32 C 0.17953 0.31525 0.26149 0.0
C33 C 0.19864 0.29691 0.26861 0.0
C34 C 0.21932 0.29379 0.25026 0.0
C35 C 0.22033 0.3087 0.22544 0.0
C36 C 0.24353 0.30329 0.20835 0.0
C37 C 0.2563 0.2824 0.2267 0.0
C38 C 0.24226 0.27687 0.25142 0.0
C39 C 0.23528 0.29176 0.17913 0.0
C40 C 0.25907 0.32958 0.20659 0.0
H41 H 0.31528 0.20684 0.28243 0.0
H42 H 0.24596 0.21857 0.35193 0.0
H43 H 0.25872 0.27909 0.32828 0.0
H44 H 0.23067 0.29081 0.3126 0.0
H45 H 0.22904 0.26687 0.34121 0.0
H46 H 0.21909 0.21383 0.28747 0.0
H47 H 0.20638 0.23097 0.31778 0.0
H48 H 0.20254 0.24391 0.28217 0.0
H49 H 0.35513 0.24109 0.19364 0.0
H50 H 0.32207 0.30136 0.13939 0.0
H51 H 0.2846 0.30158 0.16825 0.0
H52 H 0.30287 0.20606 0.20431 0.0
H53 H 0.33141 0.20046 0.22386 0.0
H54 H 0.30097 0.19795 0.24066 0.0
H55 H 0.34179 0.26837 0.24925 0.0
H56 H 0.32941 0.24735 0.27562 0.0
H57 H 0.35186 0.23419 0.25056 0.0
H58 H 0.31646 0.18287 0.32662 0.0
C59 C 0.29998 0.21001 0.29683 0.0
C60 C 0.18671 0.66346 0.75466 0.0
C61 C 0.16496 0.66368 0.73758 0.0
C62 C 0.16426 0.68043 0.71341 0.0
C63 C 0.2058 0.69779 0.72501 0.0
C64 C 0.20686 0.68041 0.74793 0.0
C65 C 0.23107 0.68291 0.76436 0.0
H66 H 0.34044 0.74897 0.78683 0.0
C67 C 0.22941 0.71366 0.72481 0.0
C68 C 0.24445 0.70463 0.74758 0.0
H69 H 0.30874 0.68512 0.83754 0.0
H70 H 0.27485 0.67992 0.80334 0.0
H71 H 0.28871 0.77874 0.77623 0.0
H72 H 0.33136 0.72308 0.72644 0.0
H73 H 0.31645 0.74405 0.7016 0.0
H74 H 0.33873 0.75808 0.72663 0.0
H75 H 0.31863 0.78634 0.76046 0.0
H76 H 0.2898 0.79098 0.74115 0.0
C77 C 0.22465 0.69201 0.79503 0.0
C78 C 0.2451 0.65587 0.76271 0.0
C79 C 0.23977 0.79309 0.65727 0.0
C80 C 0.25977 0.81122 0.65242 0.0
C81 C 0.28269 0.80703 0.66696 0.0
C82 C 0.28528 0.78629 0.6868 0.0
C83 C 0.26483 0.76926 0.69232 0.0
C84 C 0.24283 0.77215 0.67698 0.0
C85 C 0.22388 0.75067 0.68428 0.0
C86 C 0.23776 0.73537 0.70755 0.0
C87 C 0.26155 0.74675 0.71241 0.0
C88 C 0.19989 0.76434 0.69573 0.0
C89 C 0.21941 0.73326 0.65747 0.0
C90 C 0.32625 0.73378 0.79054 0.0
C91 C 0.32704 0.71771 0.81511 0.0
C92 C 0.30854 0.69776 0.81878 0.0
C93 C 0.28876 0.69498 0.79903 0.0
C94 C 0.28743 0.71242 0.77545 0.0
C95 C 0.30634 0.731 0.77129 0.0
C96 C 0.3018 0.74839 0.74568 0.0
C97 C 0.27676 0.73752 0.73526 0.0
C98 C 0.26834 0.71652 0.75275 0.0
C99 C 0.29973 0.77771 0.75614 0.0
C100 C 0.32319 0.74341 0.72393 0.0
H101 H 0.1827 0.71034 0.68883 0.0
H102 H 0.18788 0.65058 0.7732 0.0
H103 H 0.24255 0.64654 0.7414 0.0
H104 H 0.26565 0.65802 0.76533 0.0
H105 H 0.23789 0.64156 0.77891 0.0
H106 H 0.20873 0.70641 0.79488 0.0
H107 H 0.21906 0.67473 0.80854 0.0
H108 H 0.24021 0.7028 0.80555 0.0
H109 H 0.2219 0.79533 0.64648 0.0
H110 H 0.29882 0.81975 0.66302 0.0
H111 H 0.30309 0.78454 0.69734 0.0
H112 H 0.20491 0.77995 0.71162 0.0
H113 H 0.18929 0.77415 0.67819 0.0
H114 H 0.18711 0.75038 0.70675 0.0
H115 H 0.23633 0.73295 0.64356 0.0
H116 H 0.2159 0.71202 0.66278 0.0
H117 H 0.20349 0.741 0.64453 0.0
H118 H 0.14765 0.68097 0.70002 0.0
C119 C 0.18454 0.69755 0.70709 0.0
C120 C 0.84254 0.68904 0.23188 0.0
C121 C 0.8473 0.66534 0.21675 0.0
C122 C 0.82851 0.65563 0.19807 0.0
C123 C 0.80044 0.69174 0.21196 0.0
C124 C 0.8191 0.7014 0.22973 0.0
C125 C 0.81061 0.72465 0.24737 0.0
H126 H 0.71949 0.81139 0.28461 0.0
C127 C 0.77783 0.7087 0.21608 0.0
C128 C 0.7838 0.72778 0.23709 0.0
H129 H 0.79397 0.80336 0.32103 0.0
H130 H 0.80326 0.76801 0.28804 0.0
H131 H 0.70786 0.75058 0.28386 0.0
H132 H 0.73566 0.80397 0.21958 0.0
H133 H 0.71453 0.78244 0.20226 0.0
H134 H 0.70342 0.80347 0.23074 0.0
H135 H 0.68756 0.77273 0.26452 0.0
H136 H 0.69436 0.73944 0.25191 0.0
C137 C 0.81191 0.71644 0.27928 0.0
C138 C 0.82701 0.7492 0.23947 0.0
C139 C 0.69784 0.69501 0.15673 0.0
C140 C 0.67476 0.70888 0.15616 0.0
C141 C 0.67075 0.72958 0.17593 0.0
C142 C 0.68945 0.73708 0.1952 0.0
C143 C 0.7126 0.72375 0.19505 0.0
C144 C 0.71656 0.70289 0.17632 0.0
C145 C 0.7425 0.69102 0.17997 0.0
C146 C 0.75346 0.70875 0.20333 0.0
C147 C 0.73566 0.72777 0.21199 0.0
C148 C 0.73949 0.6617 0.18995 0.0
C149 C 0.75688 0.69417 0.15158 0.0
C150 C 0.73775 0.80191 0.28579 0.0
C151 C 0.75596 0.81041 0.30563 0.0
C152 C 0.77963 0.79766 0.30578 0.0
C153 C 0.78494 0.77685 0.28674 0.0
C154 C 0.76635 0.76835 0.26742 0.0
C155 C 0.74324 0.78086 0.26723 0.0
C156 C 0.72552 0.76883 0.2458 0.0
C157 C 0.74173 0.74682 0.23332 0.0
C158 C 0.76563 0.74677 0.24587 0.0
C159 C 0.70248 0.75742 0.26211 0.0
C160 C 0.71918 0.79069 0.22343 0.0
H161 H 0.79151 0.66024 0.18131 0.0
H162 H 0.85654 0.69758 0.24598 0.0
H163 H 0.8301 0.75014 0.21605 0.0
H164 H 0.81816 0.76841 0.24507 0.0
H165 H 0.84574 0.74809 0.24994 0.0
H166 H 0.80962 0.69446 0.28202 0.0
H167 H 0.83024 0.72213 0.28892 0.0
H168 H 0.79652 0.72512 0.29205 0.0
H169 H 0.70144 0.67892 0.1419 0.0
H170 H 0.65299 0.74013 0.17649 0.0
H171 H 0.68509 0.75315 0.20938 0.0
H172 H 0.72343 0.65967 0.20497 0.0
H173 H 0.73584 0.64822 0.17161 0.0
H174 H 0.75599 0.65435 0.20188 0.0
H175 H 0.75416 0.7146 0.1427 0.0
H176 H 0.77737 0.69169 0.15403 0.0
H177 H 0.75 0.67957 0.13554 0.0
H178 H 0.83147 0.63738 0.1862 0.0
C179 C 0.80518 0.66878 0.1955 0.0
C180 C 0.68673 0.26628 0.80349 0.0
C181 C 0.66761 0.24652 0.80344 0.0
C182 C 0.6695 0.22515 0.78402 0.0
C183 C 0.70819 0.24319 0.76511 0.0
C184 C 0.70689 0.26412 0.78416 0.0
C185 C 0.72949 0.28243 0.78149 0.0
H186 H 0.8436 0.30772 0.72068 0.0
C187 C 0.73152 0.24592 0.74849 0.0
C188 C 0.74431 0.26881 0.75777 0.0
H189 H 0.80653 0.35211 0.78713 0.0
H190 H 0.77015 0.32311 0.78375 0.0
H191 H 0.79133 0.29641 0.6799 0.0
H192 H 0.82965 0.25103 0.74531 0.0
H193 H 0.82062 0.22918 0.71783 0.0
H194 H 0.84288 0.25555 0.71046 0.0
H195 H 0.82268 0.28378 0.67545 0.0
H196 H 0.79558 0.26309 0.66856 0.0
C197 C 0.7201 0.31043 0.77241 0.0
C198 C 0.74384 0.28201 0.81022 0.0
C199 C 0.75085 0.17399 0.67699 0.0
C200 C 0.77177 0.16769 0.66023 0.0
C201 C 0.79212 0.18591 0.65933 0.0
C202 C 0.7918 0.20944 0.6759 0.0
C203 C 0.771 0.21465 0.69362 0.0
C204 C 0.75105 0.19693 0.69367 0.0
C205 C 0.73104 0.20416 0.71452 0.0
C206 C 0.74187 0.22953 0.72699 0.0
C207 C 0.7652 0.23587 0.71474 0.0
C208 C 0.70645 0.20953 0.69757 0.0
C209 C 0.7293 0.18127 0.73698 0.0
C210 C 0.82734 0.31144 0.73395 0.0
C211 C 0.82762 0.3323 0.75393 0.0
C212 C 0.80649 0.33623 0.77145 0.0
C213 C 0.78551 0.31927 0.7696 0.0
C214 C 0.7858 0.2978 0.75035 0.0
C215 C 0.80635 0.29434 0.73264 0.0
C216 C 0.80378 0.26972 0.71441 0.0
C217 C 0.77836 0.25912 0.72397 0.0
C218 C 0.76789 0.27562 0.74517 0.0
C219 C 0.80345 0.27851 0.68283 0.0
C220 C 0.82538 0.25029 0.72211 0.0
H221 H 0.68916 0.20684 0.75069 0.0
H222 H 0.68605 0.28298 0.81809 0.0
H223 H 0.74369 0.26156 0.81963 0.0
H224 H 0.76391 0.28721 0.80807 0.0
H225 H 0.73502 0.29572 0.82585 0.0
H226 H 0.70464 0.3087 0.7565 0.0
H227 H 0.71274 0.32168 0.79097 0.0
H228 H 0.73476 0.32252 0.76183 0.0
H229 H 0.73455 0.16095 0.67771 0.0
H230 H 0.80849 0.18163 0.64646 0.0
H231 H 0.80791 0.2224 0.67471 0.0
H232 H 0.7106 0.21912 0.67667 0.0
H233 H 0.69613 0.19063 0.69324 0.0
H234 H 0.69371 0.22366 0.70838 0.0
H235 H 0.74719 0.16986 0.7386 0.0
H236 H 0.72618 0.18874 0.75886 0.0
H237 H 0.71421 0.16676 0.73147 0.0
H238 H 0.65585 0.20905 0.78392 0.0
C239 C 0.68931 0.22361 0.76481 0.0
C240 C 0.78903 0.80132 0.68673 0.0
C241 C 0.77277 0.82082 0.67528 0.0
C242 C 0.74896 0.82421 0.68819 0.0
C243 C 0.75844 0.78984 0.72317 0.0
C244 C 0.78136 0.78589 0.71009 0.0
C245 C 0.79571 0.76301 0.72304 0.0
H246 H 0.80777 0.67113 0.8276 0.0
C247 C 0.75646 0.7707 0.74721 0.0
C248 C 0.77818 0.75478 0.74701 0.0
H249 H 0.85363 0.68122 0.75196 0.0
H250 H 0.82785 0.71772 0.73709 0.0
H251 H 0.79601 0.73388 0.84017 0.0
H252 H 0.75751 0.67248 0.79298 0.0
H253 H 0.73412 0.69192 0.809 0.0
H254 H 0.75624 0.67403 0.83112 0.0
H255 H 0.78078 0.70583 0.85679 0.0
H256 H 0.7638 0.73597 0.84833 0.0
C257 C 0.82104 0.77392 0.73451 0.0
C258 C 0.79839 0.74075 0.70022 0.0
C259 C 0.68185 0.77438 0.81513 0.0
C260 C 0.67573 0.76 0.84003 0.0
C261 C 0.6924 0.74006 0.84974 0.0
C262 C 0.71469 0.73454 0.83504 0.0
C263 C 0.72052 0.74905 0.81025 0.0
C264 C 0.70426 0.76861 0.80066 0.0
C265 C 0.71367 0.78201 0.77392 0.0
C266 C 0.73821 0.76719 0.76905 0.0
C267 C 0.74208 0.74791 0.79045 0.0
C268 C 0.7181 0.81195 0.78059 0.0
C269 C 0.69444 0.7768 0.74971 0.0
C270 C 0.81232 0.6808 0.80764 0.0
C271 C 0.83341 0.67303 0.79142 0.0
C272 C 0.83827 0.6869 0.7657 0.0
C273 C 0.82292 0.708 0.75667 0.0
C274 C 0.80193 0.71516 0.77296 0.0
C275 C 0.79667 0.70135 0.79773 0.0
C276 C 0.77233 0.71022 0.81098 0.0
C277 C 0.76399 0.73172 0.7901 0.0
C278 C 0.78169 0.73487 0.76823 0.0
C279 C 0.77831 0.72197 0.84074 0.0
C280 C 0.75402 0.68601 0.81133 0.0
H281 H 0.72355 0.81268 0.72084 0.0
H282 H 0.8075 0.79794 0.67789 0.0
H283 H 0.78414 0.74275 0.68296 0.0
H284 H 0.79509 0.72052 0.70915 0.0
H285 H 0.81722 0.74135 0.69003 0.0
H286 H 0.81804 0.79266 0.74676 0.0
H287 H 0.83414 0.77852 0.71674 0.0
H288 H 0.8305 0.75997 0.74925 0.0
H289 H 0.66939 0.78966 0.80691 0.0
H290 H 0.68845 0.72898 0.86908 0.0
H291 H 0.72658 0.71924 0.84368 0.0
H292 H 0.7274 0.81432 0.8017 0.0
H293 H 0.70001 0.82298 0.78124 0.0
H294 H 0.73067 0.82192 0.76522 0.0
H295 H 0.68529 0.7569 0.75227 0.0
H296 H 0.70328 0.77613 0.72845 0.0
H297 H 0.67937 0.79213 0.74964 0.0
H298 H 0.73549 0.8383 0.67966 0.0
C299 C 0.74184 0.80905 0.71208 0.0
C300 C 0.7965 0.20656 0.32846 0.0
C301 C 0.77908 0.18591 0.33411 0.0
C302 C 0.75505 0.18754 0.32114 0.0
C303 C 0.76668 0.22894 0.29736 0.0
C304 C 0.78972 0.22796 0.31089 0.0
C305 C 0.80538 0.25245 0.30535 0.0
H306 H 0.82241 0.36921 0.23587 0.0
C307 C 0.76589 0.25382 0.28017 0.0
C308 C 0.78829 0.26792 0.28541 0.0
H309 H 0.87143 0.33155 0.29765 0.0
H310 H 0.84124 0.2962 0.30431 0.0
H311 H 0.76904 0.35754 0.26952 0.0
H312 H 0.80956 0.3168 0.20339 0.0
H313 H 0.77755 0.31314 0.19533 0.0
H314 H 0.7913 0.34616 0.19624 0.0
H315 H 0.77232 0.37057 0.23404 0.0
H316 H 0.74727 0.34775 0.24318 0.0
C317 C 0.80949 0.26721 0.33407 0.0
C318 C 0.82991 0.24358 0.29036 0.0
C319 C 0.69656 0.2679 0.20685 0.0
C320 C 0.69278 0.28729 0.18542 0.0
C321 C 0.70867 0.30991 0.1848 0.0
C322 C 0.7286 0.31254 0.20424 0.0
C323 C 0.73292 0.29227 0.22447 0.0
C324 C 0.71674 0.27065 0.22589 0.0
C325 C 0.72436 0.25091 0.24863 0.0
C326 C 0.74837 0.26373 0.25979 0.0
C327 C 0.75321 0.28802 0.24561 0.0
C328 C 0.70351 0.25004 0.27161 0.0
C329 C 0.72939 0.22366 0.2342 0.0
C330 C 0.8266 0.3534 0.25093 0.0
C331 C 0.84942 0.35325 0.26626 0.0
C332 C 0.85392 0.33242 0.28586 0.0
C333 C 0.8364 0.31174 0.28954 0.0
C334 C 0.81408 0.31176 0.27345 0.0
C335 C 0.80933 0.33252 0.25478 0.0
C336 C 0.78488 0.32882 0.23898 0.0
C337 C 0.77554 0.30265 0.25168 0.0
C338 C 0.79285 0.29271 0.27163 0.0
C339 C 0.76737 0.35242 0.24654 0.0
C340 C 0.79089 0.32626 0.20677 0.0
H341 H 0.7304 0.20874 0.29348 0.0
H342 H 0.81525 0.20638 0.33737 0.0
H343 H 0.82583 0.22805 0.27404 0.0
H344 H 0.83933 0.25996 0.27873 0.0
H345 H 0.84342 0.23494 0.30591 0.0
H346 H 0.79429 0.26256 0.34958 0.0
H347 H 0.82761 0.26141 0.34412 0.0
H348 H 0.80888 0.28922 0.33173 0.0
H349 H 0.68438 0.25057 0.20839 0.0
H350 H 0.70635 0.3251 0.16853 0.0
H351 H 0.7403 0.32995 0.20227 0.0
H352 H 0.69369 0.26959 0.27322 0.0
H353 H 0.68913 0.23459 0.26655 0.0
H354 H 0.7111 0.24634 0.29321 0.0
H355 H 0.74126 0.22641 0.21491 0.0
H356 H 0.7396 0.20951 0.24797 0.0
H357 H 0.7115 0.21403 0.22746 0.0
H358 H 0.74072 0.1727 0.32545 0.0
C359 C 0.74888 0.20875 0.30272 0.0
C360 C 0.2596 0.20599 0.7217 0.0
C361 C 0.23709 0.19891 0.70762 0.0
C362 C 0.21608 0.21586 0.71024 0.0
C363 C 0.23962 0.2454 0.74154 0.0
C364 C 0.26046 0.22925 0.73839 0.0
C365 C 0.2828 0.23957 0.75497 0.0
H366 H 0.33086 0.33147 0.84699 0.0
C367 C 0.24639 0.26745 0.76113 0.0
C368 C 0.27178 0.26429 0.76896 0.0
H369 H 0.36954 0.2645 0.80916 0.0
H370 H 0.33179 0.25232 0.78331 0.0
H371 H 0.28233 0.301 0.86138 0.0
H372 H 0.30143 0.3501 0.78943 0.0
H373 H 0.27058 0.35848 0.79925 0.0
H374 H 0.29589 0.36327 0.82439 0.0
H375 H 0.28169 0.3368 0.86315 0.0
H376 H 0.25456 0.31765 0.85205 0.0
C377 C 0.29035 0.21811 0.77718 0.0
C378 C 0.30385 0.24681 0.73356 0.0
C379 C 0.17955 0.33407 0.79228 0.0
C380 C 0.17997 0.3554 0.81179 0.0
C381 C 0.20279 0.36215 0.82531 0.0
C382 C 0.22477 0.34774 0.81985 0.0
C383 C 0.22401 0.32614 0.80078 0.0
C384 C 0.2017 0.31965 0.78727 0.0
C385 C 0.20446 0.29561 0.76825 0.0
C386 C 0.23204 0.28876 0.77272 0.0
C387 C 0.24334 0.30679 0.79172 0.0
C388 C 0.18678 0.27334 0.77958 0.0
C389 C 0.19901 0.30445 0.73719 0.0
C390 C 0.3314 0.31444 0.83278 0.0
C391 C 0.35334 0.29906 0.83007 0.0
C392 C 0.35288 0.27663 0.81183 0.0
C393 C 0.33094 0.26962 0.79675 0.0
C394 C 0.30908 0.28508 0.8 0.0
C395 C 0.30968 0.30712 0.81774 0.0
C396 C 0.28472 0.32098 0.81931 0.0
C397 C 0.26903 0.30389 0.79935 0.0
C398 C 0.28327 0.28281 0.78804 0.0
C399 C 0.27524 0.3193 0.85053 0.0
C400 C 0.28815 0.34981 0.80772 0.0
H401 H 0.20048 0.25081 0.72841 0.0
H402 H 0.27624 0.1937 0.71978 0.0
H403 H 0.2958 0.2558 0.71387 0.0
H404 H 0.31705 0.26199 0.74186 0.0
H405 H 0.3146 0.22876 0.72724 0.0
H406 H 0.27335 0.20876 0.7868 0.0
H407 H 0.30156 0.20197 0.76716 0.0
H408 H 0.30105 0.2264 0.79529 0.0
H409 H 0.16224 0.32831 0.78172 0.0
H410 H 0.20367 0.37874 0.84009 0.0
H411 H 0.24145 0.35391 0.83092 0.0
H412 H 0.18647 0.27326 0.80329 0.0
H413 H 0.16718 0.27639 0.77203 0.0
H414 H 0.19288 0.25304 0.77365 0.0
H415 H 0.20561 0.32529 0.73339 0.0
H416 H 0.20913 0.29231 0.72129 0.0
H417 H 0.17854 0.3038 0.73247 0.0
H418 H 0.19848 0.21086 0.69984 0.0
C419 C 0.21723 0.23898 0.72705 0.0
C420 C 0.19604 0.70195 0.29441 0.0
C421 C 0.19591 0.67836 0.27814 0.0
C422 C 0.21328 0.6759 0.2556 0.0
C423 C 0.22977 0.72027 0.26533 0.0
C424 C 0.21293 0.72256 0.28761 0.0
C425 C 0.21485 0.74919 0.3023 0.0
H426 H 0.26156 0.87481 0.30329 0.0
C427 C 0.24412 0.74564 0.26329 0.0
C428 C 0.23529 0.7627 0.28489 0.0
H429 H 0.21247 0.83836 0.36603 0.0
H430 H 0.2134 0.79703 0.33979 0.0
H431 H 0.24088 0.8461 0.24591 0.0
H432 H 0.29901 0.82988 0.30688 0.0
H433 H 0.30987 0.81542 0.27524 0.0
H434 H 0.30468 0.85109 0.27677 0.0
H435 H 0.26875 0.866 0.25057 0.0
H436 H 0.26836 0.83763 0.22708 0.0
C437 C 0.18924 0.76357 0.29924 0.0
C438 C 0.22322 0.74439 0.33354 0.0
C439 C 0.31092 0.75926 0.18601 0.0
C440 C 0.32624 0.78139 0.17896 0.0
C441 C 0.32471 0.80465 0.19581 0.0
C442 C 0.30779 0.80639 0.2184 0.0
C443 C 0.29218 0.78456 0.22477 0.0
C444 C 0.29402 0.76133 0.20902 0.0
C445 C 0.27579 0.74025 0.21944 0.0
C446 C 0.26315 0.75467 0.24417 0.0
C447 C 0.27274 0.78071 0.24683 0.0
C448 C 0.25704 0.73407 0.19502 0.0
C449 C 0.29113 0.7158 0.22968 0.0
C450 C 0.25115 0.85808 0.31195 0.0
C451 C 0.2369 0.86045 0.33713 0.0
C452 C 0.22328 0.83776 0.34655 0.0
C453 C 0.22408 0.8135 0.33143 0.0
C454 C 0.23898 0.81155 0.30679 0.0
C455 C 0.25254 0.83355 0.29785 0.0
C456 C 0.26957 0.82734 0.27326 0.0
C457 C 0.26327 0.79816 0.26806 0.0
C458 C 0.24501 0.78909 0.28737 0.0
C459 C 0.26172 0.84523 0.24778 0.0
C460 C 0.29722 0.83124 0.28329 0.0
H461 H 0.24288 0.69355 0.23175 0.0
H462 H 0.1828 0.70466 0.31166 0.0
H463 H 0.23516 0.72622 0.33539 0.0
H464 H 0.2351 0.76079 0.34189 0.0
H465 H 0.20675 0.74155 0.34774 0.0
H466 H 0.18194 0.76161 0.2771 0.0
H467 H 0.17506 0.75475 0.31387 0.0
H468 H 0.19038 0.78522 0.30334 0.0
H469 H 0.31159 0.74109 0.17353 0.0
H470 H 0.33666 0.82175 0.19146 0.0
H471 H 0.3074 0.82487 0.22985 0.0
H472 H 0.25254 0.75251 0.18274 0.0
H473 H 0.26501 0.7193 0.17991 0.0
H474 H 0.23871 0.72667 0.20275 0.0
H475 H 0.3082 0.72237 0.24153 0.0
H476 H 0.28066 0.70295 0.24469 0.0
H477 H 0.29739 0.7035 0.21136 0.0
H478 H 0.21382 0.65784 0.24292 0.0
C479 C 0.23021 0.69665 0.24918 0.0
C480 C 0.9924 0.47884 0.25888 0.0
C481 C 0.06192 0.54219 0.2748 0.0
O482 O 1.00165 0.48483 0.28311 0.0
Zn483 Zn 0.02735 0.50975 0.26878 0.0
O484 O 1.00171 0.48936 0.23636 0.0
Zn485 Zn 0.02994 0.51662 0.2232 0.0
O486 O 0.05196 0.49327 0.20109 0.0
O487 O 0.05225 0.48367 0.24698 0.0
O488 O 0.05592 0.53896 0.24856 0.0
O489 O 0.05013 0.52918 0.29396 0.0
O490 O 1.00452 0.54108 0.25234 0.0
O491 O 1.0089 0.54461 0.20572 0.0
C492 C 0.06006 0.47904 0.22168 0.0
C493 C 0.99869 0.55244 0.22876 0.0
C494 C 0.96612 0.46148 0.77324 0.0
C495 C 0.02573 0.53737 0.77236 0.0
O496 O 0.97264 0.47008 0.79782 0.0
Zn497 Zn 0.99482 0.50054 0.81664 0.0
O498 O 0.97446 0.47319 0.75106 0.0
Zn499 Zn 0.99565 0.49983 0.77106 0.0
O500 O 0.02339 0.47521 0.79226 0.0
O501 O 0.01845 0.48013 0.83864 0.0
O502 O 0.01736 0.52521 0.75047 0.0
O503 O 0.01849 0.52991 0.79717 0.0
O504 O 0.97001 0.52141 0.8364 0.0
O505 O 0.96811 0.52616 0.78959 0.0
C506 C 0.03008 0.4696 0.81789 0.0
C507 C 0.9602 0.5322 0.81455 0.0
C508 C 0.25752 0.98347 0.54994 0.0
C509 C 0.27014 0.06759 0.4977 0.0
O510 O 0.23711 0.9947 0.54175 0.0
Zn511 Zn 0.22498 0.03054 0.52088 0.0
O512 O 0.2785 0.99533 0.54634 0.0
Zn513 Zn 0.26524 0.02667 0.52658 0.0
O514 O 0.24723 0.0475 0.5597 0.0
O515 O 0.20674 0.05095 0.55016 0.0
O516 O 0.28715 0.05387 0.51 0.0
O517 O 0.24704 0.06077 0.50048 0.0
O518 O 0.20846 0.01417 0.4876 0.0
O519 O 0.24978 0.00905 0.48904 0.0
C520 C 0.22535 0.05581 0.56645 0.0
C521 C 0.22865 1.00533 0.47647 0.0
C522 C 0.5256 0.71463 0.033 0.0
C523 C 0.45943 0.73006 0.96201 0.0
O524 O 0.5121 0.69711 0.02063 0.0
Zn525 Zn 0.49155 0.72175 0.99837 0.0
O526 O 0.52124 0.73947 0.0284 0.0
Zn527 Zn 0.49639 0.76332 1.00314 0.0
O528 O 0.47682 0.78291 0.02984 0.0
O529 O 0.46661 0.74016 0.0296 0.0
O530 O 0.46883 0.75153 0.97246 0.0
O531 O 0.46741 0.70752 0.97071 0.0
O532 O 0.51969 0.74037 0.97067 0.0
O533 O 0.51938 0.78353 0.98033 0.0
C534 C 0.46306 0.76398 0.03895 0.0
C535 C 0.52821 0.76411 0.96618 0.0
C536 C 0.79575 0.95014 0.51917 0.0
C537 C 0.79703 0.02263 0.44936 0.0
O538 O 0.7738 0.95919 0.51344 0.0
Zn539 Zn 0.75711 0.98796 0.48542 0.0
O540 O 0.81476 0.95925 0.50592 0.0
Zn541 Zn 0.79686 0.98542 0.48293 0.0
O542 O 0.78255 0.01289 0.51419 0.0
O543 O 0.74097 0.01084 0.51271 0.0
O544 O 0.81568 0.00963 0.45911 0.0
O545 O 0.77464 0.01637 0.45707 0.0
O546 O 0.73639 0.96633 0.46075 0.0
O547 O 0.77693 0.96065 0.45317 0.0
C548 C 0.76104 0.02056 0.52325 0.0
C549 C 0.75399 0.95502 0.44711 0.0
C550 C 0.5622 0.28789 0.03563 0.0
C551 C 0.49513 0.30435 0.96483 0.0
O552 O 0.54954 0.26724 0.02806 0.0
Zn553 Zn 0.51875 0.25633 1.00149 0.0
O554 O 0.55651 0.31073 0.02543 0.0
Zn555 Zn 0.52895 0.29842 1.0007 0.0
O556 O 0.50123 0.2874 0.03106 0.0
O557 O 0.49338 0.24411 0.02861 0.0
O558 O 0.50969 0.32221 0.9751 0.0
O559 O 0.49723 0.28019 0.97345 0.0
O560 O 0.53418 0.23224 0.97441 0.0
O561 O 0.54832 0.2738 0.9709 0.0
C562 C 0.48916 0.26679 0.03986 0.0
C563 C 0.54864 0.24938 0.96275 0.0
H564 H 0.15559 0.36524 0.27153 0.0
H565 H 0.16119 0.34095 0.18304 0.0
H566 H 0.13152 0.37657 0.16934 0.0
H567 H 0.08855 0.38073 0.26939 0.0
H568 H 0.0918 0.40878 0.29317 0.0
H569 H 0.11313 0.38098 0.2959 0.0
H570 H 0.15088 0.41343 0.29006 0.0
H571 H 0.12965 0.44128 0.28701 0.0
H572 H 0.1523 0.43504 0.25931 0.0
H573 H 0.10242 0.41657 0.16496 0.0
H574 H 0.07404 0.45537 0.1711 0.0
H575 H 0.08658 0.45208 0.26245 0.0
C576 C 0.15027 0.36705 0.24933 0.0
C577 C 0.16098 0.35034 0.22838 0.0
C578 C 0.15366 0.35377 0.19949 0.0
C579 C 0.13671 0.37389 0.19147 0.0
C580 C 0.12696 0.39038 0.21257 0.0
C581 C 0.13325 0.38697 0.24095 0.0
C582 C 0.12018 0.4074 0.25946 0.0
C583 C 0.10235 0.39365 0.28073 0.0
C584 C 0.1394 0.42535 0.27486 0.0
C585 C 0.10571 0.42291 0.23706 0.0
C586 C 0.10991 0.41292 0.21011 0.0
C587 C 0.09887 0.42444 0.18602 0.0
C588 C 0.08287 0.44654 0.18967 0.0
C589 C 0.07797 0.45673 0.21722 0.0
C590 C 0.08975 0.44471 0.24108 0.0
H591 H 0.13652 0.62812 0.70572 0.0
H592 H 0.14298 0.66384 0.78957 0.0
H593 H 0.10655 0.63742 0.80595 0.0
H594 H 0.06752 0.62359 0.70393 0.0
H595 H 0.06718 0.59152 0.68646 0.0
H596 H 0.09281 0.61449 0.68037 0.0
H597 H 0.1246 0.57819 0.6961 0.0
H598 H 0.0991 0.55513 0.70221 0.0
H599 H 0.12106 0.56245 0.73045 0.0
H600 H 0.071 0.60681 0.81404 0.0
H601 H 0.03872 0.57172 0.81456 0.0
H602 H 0.05456 0.55374 0.72587 0.0
C603 C 0.12999 0.63052 0.72739 0.0
C604 C 0.14252 0.64803 0.74644 0.0
C605 C 0.13374 0.65042 0.77475 0.0
C606 C 0.11299 0.63562 0.78419 0.0
C607 C 0.10121 0.61837 0.76509 0.0
C608 C 0.10935 0.61556 0.73733 0.0
C609 C 0.09391 0.59441 0.72185 0.0
C610 C 0.0795 0.60675 0.69666 0.0
C611 C 0.11067 0.57117 0.71208 0.0
C612 C 0.07606 0.58566 0.74539 0.0
C613 C 0.08059 0.60004 0.76999 0.0
C614 C 0.0672 0.59544 0.79491 0.0
C615 C 0.04889 0.57534 0.79496 0.0
C616 C 0.04404 0.55982 0.77028 0.0
C617 C 0.05766 0.56534 0.74501 0.0
H618 H 0.87646 0.63519 0.17918 0.0
H619 H 0.87163 0.65999 0.26775 0.0
H620 H 0.91153 0.63773 0.2779 0.0
H621 H 0.90042 0.56929 0.19564 0.0
H622 H 0.9208 0.56772 0.16506 0.0
H623 H 0.8925 0.58739 0.16361 0.0
H624 H 0.91877 0.629 0.14943 0.0
H625 H 0.9472 0.6095 0.15113 0.0
H626 H 0.94443 0.63959 0.17195 0.0
H627 H 0.95108 0.61331 0.27959 0.0
H628 H 0.98666 0.58271 0.27421 0.0
H629 H 0.96647 0.5698 0.18555 0.0
C630 C 0.88377 0.63592 0.2007 0.0
C631 C 0.87107 0.65027 0.22239 0.0
C632 C 0.8813 0.65029 0.25035 0.0
C633 C 0.90397 0.63748 0.25647 0.0
C634 C 0.91622 0.62418 0.23461 0.0
C635 C 0.90643 0.62279 0.2074 0.0
C636 C 0.92298 0.60546 0.18854 0.0
C637 C 0.9083 0.58102 0.17757 0.0
C638 C 0.934 0.62188 0.16379 0.0
C639 C 0.94339 0.5973 0.2096 0.0
C640 C 0.93909 0.60876 0.23589 0.0
C641 C 0.95468 0.60414 0.25915 0.0
C642 C 0.97488 0.58668 0.25583 0.0
C643 C 0.97938 0.57377 0.22949 0.0
C644 C 0.96369 0.57961 0.20583 0.0
H645 H 0.85076 0.36982 0.71934 0.0
H646 H 0.85645 0.32971 0.80104 0.0
H647 H 0.89466 0.35582 0.81233 0.0
H648 H 0.91897 0.37648 0.70585 0.0
H649 H 0.91624 0.40946 0.6906 0.0
H650 H 0.89057 0.38602 0.68747 0.0
H651 H 0.86054 0.42029 0.71067 0.0
H652 H 0.88608 0.44382 0.71381 0.0
H653 H 0.86842 0.43422 0.74495 0.0
H654 H 0.93018 0.38698 0.81617 0.0
H655 H 0.96074 0.42374 0.81398 0.0
H656 H 0.93286 0.446 0.73019 0.0
C657 C 0.86037 0.36641 0.73937 0.0
C658 C 0.85092 0.34771 0.75936 0.0
C659 C 0.86355 0.34395 0.78557 0.0
C660 C 0.88526 0.35858 0.79206 0.0
C661 C 0.89406 0.37704 0.77216 0.0
C662 C 0.88206 0.38121 0.7464 0.0
C663 C 0.89474 0.40371 0.72985 0.0
C664 C 0.90579 0.39329 0.70177 0.0
C665 C 0.87635 0.42688 0.72452 0.0
C666 C 0.91544 0.41174 0.75059 0.0
C667 C 0.91471 0.39575 0.77464 0.0
C668 C 0.93105 0.39957 0.79742 0.0
C669 C 0.94832 0.42062 0.79595 0.0
C670 C 0.94923 0.43783 0.77193 0.0
C671 C 0.93283 0.433 0.74866 0.0
H672 H 0.24474 0.17036 0.3708 0.0
H673 H 0.32313 0.19394 0.37702 0.0
H674 H 0.32833 0.1649 0.41917 0.0
H675 H 0.23326 0.1655 0.44861 0.0
H676 H 0.21297 0.1368 0.44464 0.0
H677 H 0.21489 0.16138 0.41658 0.0
H678 H 0.22669 0.12415 0.38074 0.0
H679 H 0.22501 0.09953 0.40868 0.0
H680 H 0.25339 0.10307 0.38807 0.0
H681 H 0.32613 0.1298 0.4578 0.0
H682 H 0.31585 0.09304 0.49129 0.0
H683 H 0.23876 0.09343 0.46066 0.0
C684 C 0.2628 0.16993 0.38149 0.0
C685 C 0.28354 0.18435 0.37055 0.0
C686 C 0.30703 0.18284 0.38484 0.0
C687 C 0.31016 0.1665 0.40889 0.0
C688 C 0.28956 0.1519 0.41864 0.0
C689 C 0.26626 0.15369 0.40559 0.0
C690 C 0.24753 0.13489 0.41946 0.0
C691 C 0.22588 0.15059 0.43314 0.0
C692 C 0.23758 0.11419 0.39795 0.0
C693 C 0.26406 0.12192 0.44188 0.0
C694 C 0.28823 0.13203 0.44116 0.0
C695 C 0.30715 0.122 0.45885 0.0
C696 C 0.30118 0.10107 0.47775 0.0
C697 C 0.27648 0.09047 0.47883 0.0
C698 C 0.25775 0.1013 0.46073 0.0
H699 H 0.3565 0.68248 0.84638 0.0
H700 H 0.3395 0.76676 0.83536 0.0
H701 H 0.37113 0.77826 0.87159 0.0
H702 H 0.36668 0.68545 0.92331 0.0
H703 H 0.39227 0.66189 0.92306 0.0
H704 H 0.36789 0.65978 0.89643 0.0
H705 H 0.40147 0.66276 0.85666 0.0
H706 H 0.42594 0.66497 0.88316 0.0
H707 H 0.42314 0.69055 0.85624 0.0
H708 H 0.40449 0.78131 0.90747 0.0
H709 H 0.43814 0.77596 0.94272 0.0
H710 H 0.43461 0.68964 0.93236 0.0
C711 C 0.35937 0.7033 0.85181 0.0
C712 C 0.34574 0.72376 0.83777 0.0
C713 C 0.35005 0.7508 0.84538 0.0
C714 C 0.36787 0.75754 0.86607 0.0
C715 C 0.38124 0.73705 0.87915 0.0
C716 C 0.37726 0.71047 0.87253 0.0
C717 C 0.39464 0.6926 0.88985 0.0
C718 C 0.37946 0.67382 0.90932 0.0
C719 C 0.41235 0.67679 0.87031 0.0
C720 C 0.40898 0.71339 0.90705 0.0
C721 C 0.40079 0.73884 0.9004 0.0
C722 C 0.41107 0.7615 0.91297 0.0
C723 C 0.43027 0.75818 0.933 0.0
C724 C 0.43913 0.73236 0.94042 0.0
C725 C 0.42826 0.70963 0.9272 0.0
H726 H 0.78784 0.84942 0.32642 0.0
H727 H 0.71095 0.82031 0.33243 0.0
H728 H 0.70135 0.85596 0.36683 0.0
H729 H 0.79479 0.86309 0.40062 0.0
H730 H 0.81405 0.89237 0.3952 0.0
H731 H 0.81433 0.86579 0.3694 0.0
H732 H 0.80237 0.89955 0.32966 0.0
H733 H 0.80194 0.92622 0.35539 0.0
H734 H 0.77461 0.91979 0.33365 0.0
H735 H 0.70031 0.8943 0.40163 0.0
H736 H 0.7087 0.93069 0.43596 0.0
H737 H 0.78673 0.93288 0.40899 0.0
C738 C 0.76899 0.85036 0.335 0.0
C739 C 0.75014 0.83206 0.32636 0.0
C740 C 0.72565 0.83437 0.33807 0.0
C741 C 0.72001 0.85449 0.35781 0.0
C742 C 0.73906 0.87209 0.36584 0.0
C743 C 0.7631 0.8701 0.35495 0.0
C744 C 0.78049 0.89072 0.36806 0.0
C745 C 0.80219 0.87718 0.38429 0.0
C746 C 0.79043 0.91023 0.34533 0.0
C747 C 0.76253 0.90445 0.38822 0.0
C748 C 0.73865 0.89363 0.38643 0.0
C749 C 0.71894 0.90295 0.4032 0.0
C750 C 0.72387 0.92366 0.42259 0.0
C751 C 0.74837 0.93461 0.42521 0.0
C752 C 0.76781 0.92493 0.40755 0.0
H753 H 0.66665 0.26424 0.85947 0.0
H754 H 0.61902 0.23033 0.79329 0.0
H755 H 0.58527 0.22363 0.82815 0.0
H756 H 0.64657 0.22414 0.91734 0.0
H757 H 0.64588 0.25087 0.94302 0.0
H758 H 0.66714 0.2526 0.91325 0.0
H759 H 0.64845 0.29829 0.89811 0.0
H760 H 0.62755 0.29698 0.92822 0.0
H761 H 0.61498 0.30127 0.89282 0.0
H762 H 0.55776 0.21702 0.87075 0.0
H763 H 0.53449 0.22073 0.91622 0.0
H764 H 0.59726 0.26401 0.95323 0.0
C765 C 0.64902 0.25583 0.85211 0.0
C766 C 0.64601 0.24694 0.8237 0.0
C767 C 0.62239 0.23624 0.81514 0.0
C768 C 0.60295 0.23244 0.83476 0.0
C769 C 0.60698 0.2402 0.8628 0.0
C770 C 0.62904 0.25253 0.8713 0.0
C771 C 0.62775 0.26055 0.90239 0.0
C772 C 0.64804 0.24617 0.92003 0.0
C773 C 0.62979 0.29108 0.90556 0.0
C774 C 0.60165 0.25053 0.90994 0.0
C775 C 0.59023 0.23831 0.88694 0.0
C776 C 0.56637 0.22678 0.88888 0.0
C777 C 0.55342 0.22869 0.91479 0.0
C778 C 0.56421 0.24251 0.93803 0.0
C779 C 0.58872 0.25324 0.93568 0.0
H780 H 0.28173 0.86134 0.65646 0.0
H781 H 0.23141 0.81432 0.60315 0.0
H782 H 0.22588 0.85315 0.57146 0.0
H783 H 0.25087 0.92369 0.64985 0.0
H784 H 0.2794 0.94317 0.6479 0.0
H785 H 0.27917 0.91183 0.66686 0.0
H786 H 0.31598 0.89483 0.63579 0.0
H787 H 0.31639 0.92616 0.61676 0.0
H788 H 0.31294 0.8952 0.59753 0.0
H789 H 0.2241 0.89756 0.54688 0.0
H790 H 0.22833 0.94384 0.52913 0.0
H791 H 0.28318 0.96087 0.5952 0.0
C792 C 0.26987 0.85886 0.6379 0.0
C793 C 0.2569 0.83451 0.63261 0.0
C794 C 0.24115 0.83272 0.60825 0.0
C795 C 0.23806 0.85466 0.58989 0.0
C796 C 0.25112 0.87819 0.59583 0.0
C797 C 0.26695 0.88036 0.61903 0.0
C798 C 0.27907 0.90786 0.62036 0.0
C799 C 0.27168 0.92249 0.64787 0.0
C800 C 0.3078 0.90588 0.61743 0.0
C801 C 0.26737 0.92094 0.59439 0.0
C802 C 0.25112 0.90348 0.58073 0.0
C803 C 0.23699 0.91128 0.55717 0.0
C804 C 0.23945 0.9376 0.54733 0.0
C805 C 0.25621 0.95574 0.56069 0.0
C806 C 0.27055 0.94722 0.58436 0.0
H807 H 0.64762 0.7447 0.12522 0.0
H808 H 0.65629 0.65957 0.13964 0.0
H809 H 0.6193 0.65087 0.10854 0.0
H810 H 0.58184 0.74586 0.12923 0.0
H811 H 0.57806 0.77114 0.10214 0.0
H812 H 0.60641 0.7701 0.12311 0.0
H813 H 0.63318 0.76709 0.07711 0.0
H814 H 0.60491 0.76844 0.05596 0.0
H815 H 0.62659 0.74113 0.05156 0.0
H816 H 0.57895 0.65248 0.07768 0.0
H817 H 0.5412 0.66403 0.04905 0.0
H818 H 0.55967 0.74823 0.05754 0.0
C819 C 0.64188 0.72417 0.12174 0.0
C820 C 0.65472 0.70281 0.13498 0.0
C821 C 0.64681 0.67623 0.12953 0.0
C822 C 0.62575 0.67114 0.11205 0.0
C823 C 0.61299 0.69286 0.10012 0.0
C824 C 0.62101 0.71883 0.10462 0.0
C825 C 0.60385 0.73888 0.09046 0.0
C826 C 0.59183 0.75758 0.11256 0.0
C827 C 0.61798 0.75481 0.0674 0.0
C828 C 0.5846 0.72028 0.0775 0.0
C829 C 0.5901 0.69378 0.08305 0.0
C830 C 0.57459 0.67318 0.07317 0.0
C831 C 0.55314 0.67992 0.05702 0.0
C832 C 0.54736 0.70704 0.05111 0.0
C833 C 0.56337 0.7273 0.06171 0.0
H834 H 0.78917 0.15691 0.6058 0.0
H835 H 0.75476 0.1195 0.67975 0.0
H836 H 0.7478 0.07839 0.65234 0.0
H837 H 0.75039 0.12895 0.55333 0.0
H838 H 0.77487 0.12278 0.52769 0.0
H839 H 0.77835 0.14943 0.55313 0.0
H840 H 0.8205 0.12936 0.57067 0.0
H841 H 0.81738 0.10289 0.5449 0.0
H842 H 0.82154 0.09494 0.58209 0.0
H843 H 0.73956 0.04359 0.61581 0.0
H844 H 0.73809 0.01332 0.57412 0.0
H845 H 0.78204 0.0703 0.52532 0.0
C846 C 0.7807 0.13989 0.61639 0.0
C847 C 0.77187 0.14179 0.64471 0.0
C848 C 0.76091 0.11893 0.65778 0.0
C849 C 0.75698 0.09538 0.64246 0.0
C850 C 0.76476 0.09458 0.61426 0.0
C851 C 0.77709 0.11584 0.60153 0.0
C852 C 0.78384 0.10931 0.57095 0.0
C853 C 0.7711 0.12878 0.55005 0.0
C854 C 0.81252 0.1091 0.56693 0.0
C855 C 0.77282 0.08139 0.56847 0.0
C856 C 0.7616 0.07348 0.59363 0.0
C857 C 0.74869 0.04928 0.59612 0.0
C858 C 0.74773 0.03237 0.57238 0.0
C859 C 0.76 0.03962 0.54687 0.0
C860 C 0.77269 0.06438 0.54483 0.0
H861 H 0.36669 0.23312 0.13328 0.0
H862 H 0.36936 0.31591 0.16037 0.0
H863 H 0.40919 0.32233 0.13428 0.0
H864 H 0.43468 0.22058 0.13501 0.0
H865 H 0.43435 0.20049 0.10317 0.0
H866 H 0.40702 0.20152 0.12579 0.0
H867 H 0.37969 0.21635 0.08285 0.0
H868 H 0.4069 0.21531 0.06012 0.0
H869 H 0.38869 0.24555 0.06268 0.0
H870 H 0.44722 0.32053 0.10483 0.0
H871 H 0.48084 0.31187 0.07048 0.0
H872 H 0.45378 0.23037 0.05984 0.0
C873 C 0.37593 0.25244 0.13385 0.0
C874 C 0.36522 0.27408 0.14879 0.0
C875 C 0.37741 0.29922 0.14891 0.0
C876 C 0.40003 0.30298 0.13432 0.0
C877 C 0.41009 0.2814 0.11958 0.0
C878 C 0.39845 0.25667 0.11897 0.0
C879 C 0.41262 0.23747 0.09982 0.0
C880 C 0.42277 0.2136 0.11698 0.0
C881 C 0.39598 0.22813 0.07489 0.0
C882 C 0.43383 0.25545 0.0896 0.0
C883 C 0.43204 0.28056 0.10165 0.0
C884 C 0.4489 0.30095 0.09526 0.0
C885 C 0.46794 0.29577 0.07563 0.0
C886 C 0.46997 0.27043 0.06233 0.0
C887 C 0.45283 0.24988 0.06975 0.0
H888 H 0.88381 0.66437 0.77911 0.0
H889 H 0.8205 0.62886 0.82426 0.0
H890 H 0.84734 0.59139 0.83874 0.0
H891 H 0.90365 0.60266 0.74924 0.0
H892 H 0.93661 0.61112 0.75052 0.0
H893 H 0.91348 0.63713 0.74699 0.0
H894 H 0.93154 0.66049 0.79186 0.0
H895 H 0.95466 0.63445 0.79562 0.0
H896 H 0.93392 0.64207 0.8248 0.0
H897 H 0.88128 0.55711 0.8482 0.0
H898 H 0.91781 0.52641 0.84647 0.0
H899 H 0.95607 0.5809 0.78912 0.0
C900 C 0.87522 0.64878 0.79181 0.0
C901 C 0.84979 0.65024 0.80069 0.0
C902 C 0.84 0.62914 0.81778 0.0
C903 C 0.85508 0.60747 0.82599 0.0
C904 C 0.87986 0.60669 0.81653 0.0
C905 C 0.8897 0.62657 0.7994 0.0
C906 C 0.91613 0.61986 0.78986 0.0
C907 C 0.91753 0.61755 0.75722 0.0
C908 C 0.93519 0.64044 0.80122 0.0
C909 C 0.91952 0.59295 0.80413 0.0
C910 C 0.89864 0.58599 0.82002 0.0
C911 C 0.89767 0.56228 0.83569 0.0
C912 C 0.91845 0.54504 0.83469 0.0
C913 C 0.93948 0.55137 0.81755 0.0
C914 C 0.94004 0.57563 0.80221 0.0
H915 H 0.88106 0.37858 0.30458 0.0
H916 H 0.86305 0.37332 0.21442 0.0
H917 H 0.89695 0.4053 0.20369 0.0
H918 H 0.89743 0.44928 0.30504 0.0
H919 H 0.923 0.44521 0.32992 0.0
H920 H 0.89651 0.42268 0.33101 0.0
H921 H 0.92657 0.38235 0.32566 0.0
H922 H 0.95314 0.40474 0.32445 0.0
H923 H 0.94794 0.38128 0.29593 0.0
H924 H 0.93313 0.43587 0.20204 0.0
H925 H 0.96954 0.46509 0.20926 0.0
H926 H 0.96569 0.45117 0.30065 0.0
C927 C 0.88424 0.3842 0.28259 0.0
C928 C 0.86918 0.37358 0.26035 0.0
C929 C 0.8739 0.38156 0.23188 0.0
C930 C 0.89327 0.39957 0.22553 0.0
C931 C 0.90781 0.40945 0.24785 0.0
C932 C 0.90357 0.40221 0.27582 0.0
C933 C 0.9224 0.41564 0.2956 0.0
C934 C 0.90903 0.43431 0.31663 0.0
C935 C 0.93846 0.39475 0.31133 0.0
C936 C 0.93798 0.43135 0.27425 0.0
C937 C 0.92908 0.42737 0.24689 0.0
C938 C 0.94024 0.43927 0.22335 0.0
C939 C 0.96103 0.45585 0.22778 0.0
C940 C 0.9706 0.46054 0.25559 0.0
C941 C 0.95886 0.44804 0.27917 0.0
H942 H 0.14513 0.37582 0.7744 0.0
H943 H 0.16272 0.36931 0.86443 0.0
H944 H 0.12536 0.39642 0.87595 0.0
H945 H 0.12513 0.44338 0.7762 0.0
H946 H 0.10023 0.43908 0.75047 0.0
H947 H 0.12745 0.41779 0.74935 0.0
H948 H 0.09877 0.37591 0.75264 0.0
H949 H 0.07143 0.3971 0.75366 0.0
H950 H 0.07671 0.37296 0.7816 0.0
H951 H 0.08701 0.42547 0.87762 0.0
H952 H 0.05055 0.45495 0.86927 0.0
H953 H 0.05815 0.44291 0.77808 0.0
C954 C 0.14086 0.37978 0.79654 0.0
C955 C 0.15677 0.37049 0.81855 0.0
C956 C 0.15086 0.37644 0.84725 0.0
C957 C 0.12963 0.39169 0.85401 0.0
C958 C 0.11451 0.40086 0.83181 0.0
C959 C 0.11982 0.39514 0.80366 0.0
C960 C 0.10109 0.40836 0.78381 0.0
C961 C 0.11427 0.42834 0.76378 0.0
C962 C 0.08611 0.38732 0.76694 0.0
C963 C 0.08457 0.42258 0.8052 0.0
C964 C 0.09254 0.41786 0.83277 0.0
C965 C 0.08051 0.42923 0.85613 0.0
C966 C 0.05983 0.44596 0.85116 0.0
C967 C 0.05145 0.45127 0.82304 0.0
C968 C 0.06401 0.43925 0.79985 0.0
H969 H 0.16851 0.64939 0.23937 0.0
H970 H 0.1806 0.65896 0.33021 0.0
H971 H 0.14813 0.62456 0.33976 0.0
H972 H 0.10231 0.64105 0.2424 0.0
H973 H 0.10112 0.61657 0.21431 0.0
H974 H 0.12586 0.6412 0.21483 0.0
H975 H 0.15927 0.60357 0.21373 0.0
H976 H 0.13461 0.57881 0.2131 0.0
H977 H 0.15845 0.57761 0.24043 0.0
H978 H 0.11332 0.58922 0.33908 0.0
H979 H 0.07941 0.5567 0.32806 0.0
H980 H 0.09094 0.57089 0.23774 0.0
C981 C 0.16465 0.64398 0.26128 0.0
C982 C 0.17719 0.65684 0.28403 0.0
C983 C 0.17111 0.64954 0.31242 0.0
C984 C 0.15278 0.62993 0.31805 0.0
C985 C 0.14067 0.61778 0.29508 0.0
C986 C 0.14641 0.62455 0.26726 0.0
C987 C 0.13033 0.60912 0.24633 0.0
C988 C 0.11394 0.62812 0.22842 0.0
C989 C 0.14664 0.59121 0.22728 0.0
C990 C 0.11455 0.59266 0.26667 0.0
C991 C 0.12076 0.5978 0.29471 0.0
C992 C 0.10837 0.58502 0.31716 0.0
C993 C 0.08913 0.56658 0.31072 0.0
C994 C 0.08245 0.56119 0.28206 0.0
C995 C 0.0955 0.57446 0.25991 0.0
H996 H 0.75782 0.87221 0.66057 0.0
H997 H 0.80497 0.80681 0.63141 0.0
H998 H 0.81875 0.83429 0.59097 0.0
H999 H 0.73588 0.88901 0.59053 0.0
H1000 H 0.73425 0.92433 0.59786 0.0
H1001 H 0.73007 0.90051 0.62628 0.0
H1002 H 0.76608 0.92332 0.6546 0.0
H1003 H 0.77053 0.94705 0.62612 0.0
H1004 H 0.79659 0.92709 0.63836 0.0
H1005 H 0.82799 0.86941 0.55339 0.0
H1006 H 0.82711 0.90682 0.51859 0.0
H1007 H 0.76992 0.9462 0.56891 0.0
C1008 C 0.77083 0.86331 0.6457 0.0
C1009 C 0.78053 0.83724 0.64997 0.0
C1010 C 0.79778 0.82695 0.62966 0.0
C1011 C 0.80565 0.84237 0.6063 0.0
C1012 C 0.79578 0.86792 0.60297 0.0
C1013 C 0.77836 0.8781 0.62181 0.0
C1014 C 0.76912 0.9053 0.61224 0.0
C1015 C 0.74064 0.90474 0.60637 0.0
C1016 C 0.776 0.92696 0.63414 0.0
C1017 C 0.78398 0.90874 0.585 0.0
C1018 C 0.79968 0.88725 0.5803 0.0
C1019 C 0.81564 0.88627 0.55675 0.0
C1020 C 0.81513 0.90759 0.5372 0.0
C1021 C 0.79836 0.92916 0.54107 0.0
C1022 C 0.78278 0.92978 0.56539 0.0
H1023 H 0.66137 0.32434 0.15942 0.0
H1024 H 0.68151 0.24019 0.15896 0.0
H1025 H 0.65109 0.23217 0.12042 0.0
H1026 H 0.59523 0.31516 0.14529 0.0
H1027 H 0.59264 0.34393 0.1223 0.0
H1028 H 0.61593 0.34339 0.15021 0.0
H1029 H 0.65085 0.35277 0.11311 0.0
H1030 H 0.62767 0.35324 0.08505 0.0
H1031 H 0.65412 0.33088 0.08289 0.0
H1032 H 0.61907 0.23267 0.0825 0.0
H1033 H 0.58594 0.24131 0.04727 0.0
H1034 H 0.58615 0.32547 0.0701 0.0
C1035 C 0.65944 0.30425 0.15113 0.0
C1036 C 0.67373 0.28284 0.16256 0.0
C1037 C 0.67046 0.25683 0.15115 0.0
C1038 C 0.65338 0.25209 0.12902 0.0
C1039 C 0.63969 0.27356 0.11828 0.0
C1040 C 0.64242 0.29913 0.12887 0.0
C1041 C 0.62511 0.31849 0.11335 0.0
C1042 C 0.6061 0.33097 0.13402 0.0
C1043 C 0.64036 0.34012 0.09767 0.0
C1044 C 0.61223 0.29969 0.09249 0.0
C1045 C 0.62108 0.27391 0.09583 0.0
C1046 C 0.61198 0.25276 0.07963 0.0
C1047 C 0.59308 0.25793 0.05968 0.0
C1048 C 0.58335 0.28408 0.05588 0.0
C1049 C 0.59332 0.30533 0.07234 0.0
H1050 H 0.21409 0.19046 0.65552 0.0
H1051 H 0.25576 0.14987 0.72238 0.0
H1052 H 0.25295 0.1077 0.6954 0.0
H1053 H 0.17183 0.13452 0.63798 0.0
H1054 H 0.17236 0.14149 0.60029 0.0
H1055 H 0.17623 0.16833 0.62552 0.0
H1056 H 0.21834 0.18176 0.60171 0.0
H1057 H 0.21447 0.15516 0.57631 0.0
H1058 H 0.24265 0.15702 0.59764 0.0
H1059 H 0.24827 0.07088 0.66027 0.0
H1060 H 0.24373 0.04207 0.61794 0.0
H1061 H 0.20379 0.1053 0.5739 0.0
C1062 C 0.22231 0.17261 0.66467 0.0
C1063 C 0.23519 0.17353 0.69113 0.0
C1064 C 0.24609 0.1498 0.70205 0.0
C1065 C 0.24436 0.12567 0.68701 0.0
C1066 C 0.23157 0.12546 0.66107 0.0
C1067 C 0.22078 0.14828 0.64989 0.0
C1068 C 0.20936 0.14283 0.62076 0.0
C1069 C 0.18074 0.14704 0.62117 0.0
C1070 C 0.22196 0.16022 0.59775 0.0
C1071 C 0.21582 0.11348 0.61711 0.0
C1072 C 0.22845 0.10388 0.6408 0.0
C1073 C 0.23804 0.07801 0.64182 0.0
C1074 C 0.2353 0.06177 0.61774 0.0
C1075 C 0.2229 0.07127 0.59303 0.0
C1076 C 0.21254 0.09726 0.59292 0.0
H1077 H 0.35819 0.74112 0.16022 0.0
H1078 H 0.33305 0.82167 0.14066 0.0
H1079 H 0.36483 0.82512 0.10295 0.0
H1080 H 0.42307 0.75203 0.14969 0.0
H1081 H 0.42937 0.72056 0.13251 0.0
H1082 H 0.40371 0.72324 0.15732 0.0
H1083 H 0.37264 0.70597 0.11896 0.0
H1084 H 0.39827 0.70292 0.09411 0.0
H1085 H 0.37108 0.72259 0.08489 0.0
H1086 H 0.40147 0.82228 0.07125 0.0
H1087 H 0.43831 0.8111 0.0421 0.0
H1088 H 0.43902 0.73106 0.07815 0.0
C1089 C 0.35907 0.75924 0.1476 0.0
C1090 C 0.34338 0.78133 0.15384 0.0
C1091 C 0.34523 0.80474 0.13685 0.0
C1092 C 0.36315 0.80686 0.11523 0.0
C1093 C 0.3789 0.78524 0.11032 0.0
C1094 C 0.37681 0.76164 0.12551 0.0
C1095 C 0.39646 0.74163 0.11569 0.0
C1096 C 0.4142 0.73392 0.14027 0.0
C1097 C 0.38386 0.71681 0.10263 0.0
C1098 C 0.41014 0.75798 0.09314 0.0
C1099 C 0.39967 0.78313 0.09067 0.0
C1100 C 0.40964 0.80252 0.07262 0.0
C1101 C 0.43071 0.79602 0.0563 0.0
C1102 C 0.44152 0.7702 0.05776 0.0
C1103 C 0.431 0.75088 0.07641 0.0
H1104 H 0.75978 0.13398 0.33541 0.0
H1105 H 0.81357 0.18588 0.37856 0.0
H1106 H 0.82695 0.14826 0.40816 0.0
H1107 H 0.74005 0.10217 0.40051 0.0
H1108 H 0.73464 0.0702 0.38391 0.0
H1109 H 0.73121 0.10047 0.36346 0.0
H1110 H 0.7632 0.08257 0.32662 0.0
H1111 H 0.767 0.05238 0.34719 0.0
H1112 H 0.79406 0.07252 0.33838 0.0
H1113 H 0.83552 0.10474 0.43281 0.0
H1114 H 0.83287 0.06075 0.45686 0.0
H1115 H 0.76928 0.03934 0.40355 0.0
C1116 C 0.77421 0.13781 0.35114 0.0
C1117 C 0.78604 0.16319 0.35353 0.0
C1118 C 0.80487 0.16664 0.37481 0.0
C1119 C 0.81255 0.14534 0.39214 0.0
C1120 C 0.80078 0.1207 0.38876 0.0
C1121 C 0.78153 0.11701 0.36938 0.0
C1122 C 0.77031 0.08921 0.37205 0.0
C1123 C 0.7424 0.09061 0.38049 0.0
C1124 C 0.77386 0.07323 0.34441 0.0
C1125 C 0.78627 0.07794 0.396 0.0
C1126 C 0.80418 0.09623 0.4048 0.0
C1127 C 0.82148 0.09029 0.42624 0.0
C1128 C 0.81998 0.06524 0.43961 0.0
C1129 C 0.80093 0.0468 0.43196 0.0
C1130 C 0.78403 0.05316 0.40971 0.0
H1131 H 0.38439 0.2646 0.85884 0.0
H1132 H 0.37347 0.34885 0.84073 0.0
H1133 H 0.40949 0.36004 0.87203 0.0
H1134 H 0.39945 0.27195 0.93151 0.0
H1135 H 0.42262 0.24573 0.93189 0.0
H1136 H 0.39702 0.24451 0.9068 0.0
H1137 H 0.42871 0.24127 0.86505 0.0
H1138 H 0.45444 0.24233 0.89006 0.0
H1139 H 0.45294 0.26633 0.8614 0.0
H1140 H 0.4465 0.36179 0.90743 0.0
H1141 H 0.4802 0.35354 0.94313 0.0
H1142 H 0.46581 0.26826 0.93688 0.0
C1143 C 0.38985 0.28538 0.86095 0.0
C1144 C 0.37613 0.30581 0.8472 0.0
C1145 C 0.38359 0.33282 0.85119 0.0
C1146 C 0.4041 0.33938 0.86883 0.0
C1147 C 0.41703 0.31871 0.88237 0.0
C1148 C 0.41017 0.29225 0.8785 0.0
C1149 C 0.42637 0.27375 0.89617 0.0
C1150 C 0.41041 0.25807 0.91787 0.0
C1151 C 0.44152 0.25481 0.87702 0.0
C1152 C 0.44329 0.29388 0.91077 0.0
C1153 C 0.43784 0.31974 0.90257 0.0
C1154 C 0.45097 0.34156 0.91388 0.0
C1155 C 0.47007 0.33673 0.93414 0.0
C1156 C 0.4757 0.3103 0.94293 0.0
C1157 C 0.46208 0.28877 0.9308 0.0
H1158 H 0.2008 0.88122 0.37443 0.0
H1159 H 0.27529 0.89759 0.33997 0.0
H1160 H 0.27652 0.93974 0.36573 0.0
H1161 H 0.17826 0.95018 0.37968 0.0
H1162 H 0.16384 0.94514 0.41399 0.0
H1163 H 0.16625 0.91766 0.38935 0.0
H1164 H 0.18966 0.88955 0.42743 0.0
H1165 H 0.18702 0.91678 0.45225 0.0
H1166 H 0.21748 0.90306 0.44413 0.0
H1167 H 0.27179 0.97872 0.39628 0.0
H1168 H 0.26427 0.00924 0.43626 0.0
H1169 H 0.19508 0.96706 0.45634 0.0
C1170 C 0.2174 0.89356 0.3721 0.0
C1171 C 0.23749 0.88601 0.35388 0.0
C1172 C 0.25889 0.90305 0.35219 0.0
C1173 C 0.25996 0.92718 0.36707 0.0
C1174 C 0.23983 0.93403 0.38435 0.0
C1175 C 0.21918 0.91755 0.38757 0.0
C1176 C 0.20165 0.92837 0.41037 0.0
C1177 C 0.17598 0.93578 0.39757 0.0
C1178 C 0.1988 0.90825 0.435 0.0
C1179 C 0.21604 0.9532 0.41971 0.0
C1180 C 0.2377 0.95623 0.40377 0.0
C1181 C 0.25486 0.97669 0.40885 0.0
C1182 C 0.25039 0.99393 0.4316 0.0
C1183 C 0.22906 0.99058 0.44926 0.0
C1184 C 0.21122 0.97042 0.44276 0.0
H1185 H 0.6432 0.72439 0.86557 0.0
H1186 H 0.65568 0.80925 0.85173 0.0
H1187 H 0.61814 0.8194 0.88057 0.0
H1188 H 0.57483 0.72634 0.86381 0.0
H1189 H 0.57143 0.70158 0.89152 0.0
H1190 H 0.59849 0.70095 0.8685 0.0
H1191 H 0.6279 0.7028 0.91255 0.0
H1192 H 0.60095 0.70344 0.93569 0.0
H1193 H 0.62436 0.72949 0.93797 0.0
H1194 H 0.58072 0.82041 0.91323 0.0
H1195 H 0.54559 0.81225 0.94641 0.0
H1196 H 0.55741 0.72668 0.93904 0.0
C1197 C 0.63805 0.74512 0.86857 0.0
C1198 C 0.65242 0.76603 0.8563 0.0
C1199 C 0.64482 0.79287 0.86054 0.0
C1200 C 0.62358 0.79884 0.87702 0.0
C1201 C 0.61004 0.77776 0.88904 0.0
C1202 C 0.6169 0.75144 0.88492 0.0
C1203 C 0.59948 0.73253 0.90076 0.0
C1204 C 0.58521 0.71428 0.8799 0.0
C1205 C 0.61405 0.7161 0.92306 0.0
C1206 C 0.58196 0.75236 0.91476 0.0
C1207 C 0.58835 0.77834 0.90768 0.0
C1208 C 0.57542 0.80014 0.91875 0.0
C1209 C 0.55551 0.79529 0.93764 0.0
C1210 C 0.54863 0.76882 0.94527 0.0
C1211 C 0.56201 0.74713 0.93344 0.0
loop_
_geom_bond_atom_site_label_1
_geom_bond_atom_site_label_2
_geom_bond_distance
_geom_bond_site_symmetry_2
_ccdc_geom_bond_type
C0 C1 1.391 . S
C0 C4 1.391 . S
C0 H42 0.948 . S
C1 C0 1.391 . S
C1 C2 1.391 . S
C2 C1 1.391 . S
C2 H58 0.947 . S
C2 C59 1.392 . S
C3 C4 1.391 . S
C3 C7 1.397 . S
C3 C59 1.419 . S
C4 C0 1.391 . S
C4 C3 1.391 . S
C4 C5 1.399 . S
C5 C4 1.399 . S
C5 C8 1.396 . S
C5 C17 1.453 . S
C5 C18 1.684 . S
H6 C30 0.948 . S
C7 C3 1.397 . S
C7 C8 1.394 . S
C7 C26 1.723 . S
C8 C5 1.396 . S
C8 C7 1.394 . S
C8 C38 1.723 . S
H9 C32 0.947 . S
H10 C33 0.948 . S
H11 C39 0.982 . S
H12 C40 0.979 . S
H13 C40 0.980 . S
H14 C40 0.983 . S
H15 C39 0.979 . S
H16 C39 0.977 . S
C17 C5 1.453 . S
C17 H46 0.982 . S
C17 H47 0.979 . S
C17 H48 0.977 . S
C18 C5 1.684 . S
C18 H43 0.979 . S
C18 H44 0.980 . S
C18 H45 0.983 . S
C19 C20 1.391 . S
C19 C24 1.391 . S
C19 H49 0.948 . S
C20 C19 1.391 . S
C20 C21 1.391 . S
C21 C20 1.391 . S
C21 C22 1.392 . S
C21 H50 0.947 . S
C22 C21 1.392 . S
C22 C23 1.419 . S
C22 H51 0.948 . S
C23 C22 1.419 . S
C23 C24 1.391 . S
C23 C27 1.397 . S
C24 C19 1.391 . S
C24 C23 1.391 . S
C24 C25 1.399 . S
C25 C24 1.399 . S
C25 C26 1.396 . S
C25 C28 1.453 . S
C25 C29 1.684 . S
C26 C7 1.723 . S
C26 C25 1.396 . S
C26 C27 1.394 . S
C27 C23 1.397 . S
C27 C26 1.394 . S
C27 C37 1.723 . S
C28 C25 1.453 . S
C28 H52 0.982 . S
C28 H53 0.979 . S
C28 H54 0.977 . S
C29 C25 1.684 . S
C29 H55 0.979 . S
C29 H56 0.980 . S
C29 H57 0.983 . S
C30 H6 0.948 . S
C30 C31 1.391 . S
C30 C35 1.391 . S
C31 C30 1.391 . S
C31 C32 1.391 . S
C32 H9 0.947 . S
C32 C31 1.391 . S
C32 C33 1.392 . S
C33 H10 0.948 . S
C33 C32 1.392 . S
C33 C34 1.419 . S
C34 C33 1.419 . S
C34 C35 1.391 . S
C34 C38 1.397 . S
C35 C30 1.391 . S
C35 C34 1.391 . S
C35 C36 1.399 . S
C36 C35 1.399 . S
C36 C37 1.396 . S
C36 C39 1.453 . S
C36 C40 1.684 . S
C37 C27 1.723 . S
C37 C36 1.396 . S
C37 C38 1.394 . S
C38 C8 1.723 . S
C38 C34 1.397 . S
C38 C37 1.394 . S
C39 H11 0.982 . S
C39 H15 0.979 . S
C39 H16 0.977 . S
C39 C36 1.453 . S
C40 H12 0.979 . S
C40 H13 0.980 . S
C40 H14 0.983 . S
C40 C36 1.684 . S
H41 C59 0.948 . S
H42 C0 0.948 . S
H43 C18 0.979 . S
H44 C18 0.980 . S
H45 C18 0.983 . S
H46 C17 0.982 . S
H47 C17 0.979 . S
H48 C17 0.977 . S
H49 C19 0.948 . S
H50 C21 0.947 . S
H51 C22 0.948 . S
H52 C28 0.982 . S
H53 C28 0.979 . S
H54 C28 0.977 . S
H55 C29 0.979 . S
H56 C29 0.980 . S
H57 C29 0.983 . S
H58 C2 0.947 . S
C59 C2 1.392 . S
C59 C3 1.419 . S
C59 H41 0.948 . S
C60 C61 1.391 . S
C60 C64 1.391 . S
C60 H102 0.948 . S
C61 C60 1.391 . S
C61 C62 1.391 . S
C62 C61 1.391 . S
C62 H118 0.947 . S
C62 C119 1.392 . S
C63 C64 1.391 . S
C63 C67 1.397 . S
C63 C119 1.419 . S
C64 C60 1.391 . S
C64 C63 1.391 . S
C64 C65 1.399 . S
C65 C64 1.399 . S
C65 C68 1.396 . S
C65 C77 1.453 . S
C65 C78 1.684 . S
H66 C90 0.948 . S
C67 C63 1.397 . S
C67 C68 1.394 . S
C67 C86 1.723 . S
C68 C65 1.396 . S
C68 C67 1.394 . S
C68 C98 1.723 . S
H69 C92 0.947 . S
H70 C93 0.948 . S
H71 C99 0.982 . S
H72 C100 0.979 . S
H73 C100 0.980 . S
H74 C100 0.983 . S
H75 C99 0.979 . S
H76 C99 0.977 . S
C77 C65 1.453 . S
C77 H106 0.982 . S
C77 H107 0.979 . S
C77 H108 0.977 . S
C78 C65 1.684 . S
C78 H103 0.979 . S
C78 H104 0.980 . S
C78 H105 0.983 . S
C79 C80 1.391 . S
C79 C84 1.391 . S
C79 H109 0.948 . S
C80 C79 1.391 . S
C80 C81 1.391 . S
C81 C80 1.391 . S
C81 C82 1.392 . S
C81 H110 0.947 . S
C82 C81 1.392 . S
C82 C83 1.419 . S
C82 H111 0.948 . S
C83 C82 1.419 . S
C83 C84 1.391 . S
C83 C87 1.397 . S
C84 C79 1.391 . S
C84 C83 1.391 . S
C84 C85 1.399 . S
C85 C84 1.399 . S
C85 C86 1.396 . S
C85 C88 1.453 . S
C85 C89 1.684 . S
C86 C67 1.723 . S
C86 C85 1.396 . S
C86 C87 1.394 . S
C87 C83 1.397 . S
C87 C86 1.394 . S
C87 C97 1.723 . S
C88 C85 1.453 . S
C88 H112 0.982 . S
C88 H113 0.979 . S
C88 H114 0.977 . S
C89 C85 1.684 . S
C89 H115 0.979 . S
C89 H116 0.980 . S
C89 H117 0.983 . S
C90 H66 0.948 . S
C90 C91 1.391 . S
C90 C95 1.391 . S
C91 C90 1.391 . S
C91 C92 1.391 . S
C92 H69 0.947 . S
C92 C91 1.391 . S
C92 C93 1.392 . S
C93 H70 0.948 . S
C93 C92 1.392 . S
C93 C94 1.419 . S
C94 C93 1.419 . S
C94 C95 1.391 . S
C94 C98 1.397 . S
C95 C90 1.391 . S
C95 C94 1.391 . S
C95 C96 1.399 . S
C96 C95 1.399 . S
C96 C97 1.396 . S
C96 C99 1.453 . S
C96 C100 1.684 . S
C97 C87 1.723 . S
C97 C96 1.396 . S
C97 C98 1.394 . S
C98 C68 1.723 . S
C98 C94 1.397 . S
C98 C97 1.394 . S
C99 H71 0.982 . S
C99 H75 0.979 . S
C99 H76 0.977 . S
C99 C96 1.453 . S
C100 H72 0.979 . S
C100 H73 0.980 . S
C100 H74 0.983 . S
C100 C96 1.684 . S
H101 C119 0.948 . S
H102 C60 0.948 . S
H103 C78 0.979 . S
H104 C78 0.980 . S
H105 C78 0.983 . S
H106 C77 0.982 . S
H107 C77 0.979 . S
H108 C77 0.977 . S
H109 C79 0.948 . S
H110 C81 0.947 . S
H111 C82 0.948 . S
H112 C88 0.982 . S
H113 C88 0.979 . S
H114 C88 0.977 . S
H115 C89 0.979 . S
H116 C89 0.980 . S
H117 C89 0.983 . S
H118 C62 0.947 . S
C119 C62 1.392 . S
C119 C63 1.419 . S
C119 H101 0.948 . S
C120 C121 1.391 . S
C120 C124 1.391 . S
C120 H162 0.948 . S
C121 C120 1.391 . S
C121 C122 1.391 . S
C122 C121 1.391 . S
C122 H178 0.947 . S
C122 C179 1.392 . S
C123 C124 1.391 . S
C123 C127 1.397 . S
C123 C179 1.419 . S
C124 C120 1.391 . S
C124 C123 1.391 . S
C124 C125 1.399 . S
C125 C124 1.399 . S
C125 C128 1.396 . S
C125 C137 1.453 . S
C125 C138 1.684 . S
H126 C150 0.948 . S
C127 C123 1.397 . S
C127 C128 1.394 . S
C127 C146 1.723 . S
C128 C125 1.396 . S
C128 C127 1.394 . S
C128 C158 1.723 . S
H129 C152 0.947 . S
H130 C153 0.948 . S
H131 C159 0.982 . S
H132 C160 0.979 . S
H133 C160 0.980 . S
H134 C160 0.983 . S
H135 C159 0.979 . S
H136 C159 0.977 . S
C137 C125 1.453 . S
C137 H166 0.982 . S
C137 H167 0.979 . S
C137 H168 0.977 . S
C138 C125 1.684 . S
C138 H163 0.979 . S
C138 H164 0.980 . S
C138 H165 0.983 . S
C139 C140 1.391 . S
C139 C144 1.391 . S
C139 H169 0.948 . S
C140 C139 1.391 . S
C140 C141 1.391 . S
C141 C140 1.391 . S
C141 C142 1.392 . S
C141 H170 0.947 . S
C142 C141 1.392 . S
C142 C143 1.419 . S
C142 H171 0.948 . S
C143 C142 1.419 . S
C143 C144 1.391 . S
C143 C147 1.397 . S
C144 C139 1.391 . S
C144 C143 1.391 . S
C144 C145 1.399 . S
C145 C144 1.399 . S
C145 C146 1.396 . S
C145 C148 1.453 . S
C145 C149 1.684 . S
C146 C127 1.723 . S
C146 C145 1.396 . S
C146 C147 1.394 . S
C147 C143 1.397 . S
C147 C146 1.394 . S
C147 C157 1.723 . S
C148 C145 1.453 . S
C148 H172 0.982 . S
C148 H173 0.979 . S
C148 H174 0.977 . S
C149 C145 1.684 . S
C149 H175 0.979 . S
C149 H176 0.980 . S
C149 H177 0.983 . S
C150 H126 0.948 . S
C150 C151 1.391 . S
C150 C155 1.391 . S
C151 C150 1.391 . S
C151 C152 1.391 . S
C152 H129 0.947 . S
C152 C151 1.391 . S
C152 C153 1.392 . S
C153 H130 0.948 . S
C153 C152 1.392 . S
C153 C154 1.419 . S
C154 C153 1.419 . S
C154 C155 1.391 . S
C154 C158 1.397 . S
C155 C150 1.391 . S
C155 C154 1.391 . S
C155 C156 1.399 . S
C156 C155 1.399 . S
C156 C157 1.396 . S
C156 C159 1.453 . S
C156 C160 1.684 . S
C157 C147 1.723 . S
C157 C156 1.396 . S
C157 C158 1.394 . S
C158 C128 1.723 . S
C158 C154 1.397 . S
C158 C157 1.394 . S
C159 H131 0.982 . S
C159 H135 0.979 . S
C159 H136 0.977 . S
C159 C156 1.453 . S
C160 H132 0.979 . S
C160 H133 0.980 . S
C160 H134 0.983 . S
C160 C156 1.684 . S
H161 C179 0.948 . S
H162 C120 0.948 . S
H163 C138 0.979 . S
H164 C138 0.980 . S
H165 C138 0.983 . S
H166 C137 0.982 . S
H167 C137 0.979 . S
H168 C137 0.977 . S
H169 C139 0.948 . S
H170 C141 0.947 . S
H171 C142 0.948 . S
H172 C148 0.982 . S
H173 C148 0.979 . S
H174 C148 0.977 . S
H175 C149 0.979 . S
H176 C149 0.980 . S
H177 C149 0.983 . S
H178 C122 0.947 . S
C179 C122 1.392 . S
C179 C123 1.419 . S
C179 H161 0.948 . S
C180 C181 1.391 . S
C180 C184 1.391 . S
C180 H222 0.948 . S
C181 C180 1.391 . S
C181 C182 1.391 . S
C182 C181 1.391 . S
C182 H238 0.947 . S
C182 C239 1.392 . S
C183 C184 1.391 . S
C183 C187 1.397 . S
C183 C239 1.419 . S
C184 C180 1.391 . S
C184 C183 1.391 . S
C184 C185 1.399 . S
C185 C184 1.399 . S
C185 C188 1.396 . S
C185 C197 1.453 . S
C185 C198 1.684 . S
H186 C210 0.948 . S
C187 C183 1.397 . S
C187 C188 1.394 . S
C187 C206 1.723 . S
C188 C185 1.396 . S
C188 C187 1.394 . S
C188 C218 1.723 . S
H189 C212 0.947 . S
H190 C213 0.948 . S
H191 C219 0.982 . S
H192 C220 0.979 . S
H193 C220 0.980 . S
H194 C220 0.983 . S
H195 C219 0.979 . S
H196 C219 0.977 . S
C197 C185 1.453 . S
C197 H226 0.982 . S
C197 H227 0.979 . S
C197 H228 0.977 . S
C198 C185 1.684 . S
C198 H223 0.979 . S
C198 H224 0.980 . S
C198 H225 0.983 . S
C199 C200 1.391 . S
C199 C204 1.391 . S
C199 H229 0.948 . S
C200 C199 1.391 . S
C200 C201 1.391 . S
C201 C200 1.391 . S
C201 C202 1.392 . S
C201 H230 0.947 . S
C202 C201 1.392 . S
C202 C203 1.419 . S
C202 H231 0.948 . S
C203 C202 1.419 . S
C203 C204 1.391 . S
C203 C207 1.397 . S
C204 C199 1.391 . S
C204 C203 1.391 . S
C204 C205 1.399 . S
C205 C204 1.399 . S
C205 C206 1.396 . S
C205 C208 1.453 . S
C205 C209 1.684 . S
C206 C187 1.723 . S
C206 C205 1.396 . S
C206 C207 1.394 . S
C207 C203 1.397 . S
C207 C206 1.394 . S
C207 C217 1.723 . S
C208 C205 1.453 . S
C208 H232 0.982 . S
C208 H233 0.979 . S
C208 H234 0.977 . S
C209 C205 1.684 . S
C209 H235 0.979 . S
C209 H236 0.980 . S
C209 H237 0.983 . S
C210 H186 0.948 . S
C210 C211 1.391 . S
C210 C215 1.391 . S
C211 C210 1.391 . S
C211 C212 1.391 . S
C212 H189 0.947 . S
C212 C211 1.391 . S
C212 C213 1.392 . S
C213 H190 0.948 . S
C213 C212 1.392 . S
C213 C214 1.419 . S
C214 C213 1.419 . S
C214 C215 1.391 . S
C214 C218 1.397 . S
C215 C210 1.391 . S
C215 C214 1.391 . S
C215 C216 1.399 . S
C216 C215 1.399 . S
C216 C217 1.396 . S
C216 C219 1.453 . S
C216 C220 1.684 . S
C217 C207 1.723 . S
C217 C216 1.396 . S
C217 C218 1.394 . S
C218 C188 1.723 . S
C218 C214 1.397 . S
C218 C217 1.394 . S
C219 H191 0.982 . S
C219 H195 0.979 . S
C219 H196 0.977 . S
C219 C216 1.453 . S
C220 H192 0.979 . S
C220 H193 0.980 . S
C220 H194 0.983 . S
C220 C216 1.684 . S
H221 C239 0.948 . S
H222 C180 0.948 . S
H223 C198 0.979 . S
H224 C198 0.980 . S
H225 C198 0.983 . S
H226 C197 0.982 . S
H227 C197 0.979 . S
H228 C197 0.977 . S
H229 C199 0.948 . S
H230 C201 0.947 . S
H231 C202 0.948 . S
H232 C208 0.982 . S
H233 C208 0.979 . S
H234 C208 0.977 . S
H235 C209 0.979 . S
H236 C209 0.980 . S
H237 C209 0.983 . S
H238 C182 0.947 . S
C239 C182 1.392 . S
C239 C183 1.419 . S
C239 H221 0.948 . S
C240 C241 1.391 . S
C240 C244 1.391 . S
C240 H282 0.948 . S
C241 C240 1.391 . S
C241 C242 1.391 . S
C242 C241 1.391 . S
C242 H298 0.947 . S
C242 C299 1.392 . S
C243 C244 1.391 . S
C243 C247 1.397 . S
C243 C299 1.419 . S
C244 C240 1.391 . S
C244 C243 1.391 . S
C244 C245 1.399 . S
C245 C244 1.399 . S
C245 C248 1.396 . S
C245 C257 1.453 . S
C245 C258 1.684 . S
H246 C270 0.948 . S
C247 C243 1.397 . S
C247 C248 1.394 . S
C247 C266 1.723 . S
C248 C245 1.396 . S
C248 C247 1.394 . S
C248 C278 1.723 . S
H249 C272 0.947 . S
H250 C273 0.948 . S
H251 C279 0.982 . S
H252 C280 0.979 . S
H253 C280 0.980 . S
H254 C280 0.983 . S
H255 C279 0.979 . S
H256 C279 0.977 . S
C257 C245 1.453 . S
C257 H286 0.982 . S
C257 H287 0.979 . S
C257 H288 0.977 . S
C258 C245 1.684 . S
C258 H283 0.979 . S
C258 H284 0.980 . S
C258 H285 0.983 . S
C259 C260 1.391 . S
C259 C264 1.391 . S
C259 H289 0.948 . S
C260 C259 1.391 . S
C260 C261 1.391 . S
C261 C260 1.391 . S
C261 C262 1.392 . S
C261 H290 0.947 . S
C262 C261 1.392 . S
C262 C263 1.419 . S
C262 H291 0.948 . S
C263 C262 1.419 . S
C263 C264 1.391 . S
C263 C267 1.397 . S
C264 C259 1.391 . S
C264 C263 1.391 . S
C264 C265 1.399 . S
C265 C264 1.399 . S
C265 C266 1.396 . S
C265 C268 1.453 . S
C265 C269 1.684 . S
C266 C247 1.723 . S
C266 C265 1.396 . S
C266 C267 1.394 . S
C267 C263 1.397 . S
C267 C266 1.394 . S
C267 C277 1.723 . S
C268 C265 1.453 . S
C268 H292 0.982 . S
C268 H293 0.979 . S
C268 H294 0.977 . S
C269 C265 1.684 . S
C269 H295 0.979 . S
C269 H296 0.980 . S
C269 H297 0.983 . S
C270 H246 0.948 . S
C270 C271 1.391 . S
C270 C275 1.391 . S
C271 C270 1.391 . S
C271 C272 1.391 . S
C272 H249 0.947 . S
C272 C271 1.391 . S
C272 C273 1.392 . S
C273 H250 0.948 . S
C273 C272 1.392 . S
C273 C274 1.419 . S
C274 C273 1.419 . S
C274 C275 1.391 . S
C274 C278 1.397 . S
C275 C270 1.391 . S
C275 C274 1.391 . S
C275 C276 1.399 . S
C276 C275 1.399 . S
C276 C277 1.396 . S
C276 C279 1.453 . S
C276 C280 1.684 . S
C277 C267 1.723 . S
C277 C276 1.396 . S
C277 C278 1.394 . S
C278 C248 1.723 . S
C278 C274 1.397 . S
C278 C277 1.394 . S
C279 H251 0.982 . S
C279 H255 0.979 . S
C279 H256 0.977 . S
C279 C276 1.453 . S
C280 H252 0.979 . S
C280 H253 0.980 . S
C280 H254 0.983 . S
C280 C276 1.684 . S
H281 C299 0.948 . S
H282 C240 0.948 . S
H283 C258 0.979 . S
H284 C258 0.980 . S
H285 C258 0.983 . S
H286 C257 0.982 . S
H287 C257 0.979 . S
H288 C257 0.977 . S
H289 C259 0.948 . S
H290 C261 0.947 . S
H291 C262 0.948 . S
H292 C268 0.982 . S
H293 C268 0.979 . S
H294 C268 0.977 . S
H295 C269 0.979 . S
H296 C269 0.980 . S
H297 C269 0.983 . S
H298 C242 0.947 . S
C299 C242 1.392 . S
C299 C243 1.419 . S
C299 H281 0.948 . S
C300 C301 1.391 . S
C300 C304 1.391 . S
C300 H342 0.948 . S
C301 C300 1.391 . S
C301 C302 1.391 . S
C302 C301 1.391 . S
C302 H358 0.947 . S
C302 C359 1.392 . S
C303 C304 1.391 . S
C303 C307 1.397 . S
C303 C359 1.419 . S
C304 C300 1.391 . S
C304 C303 1.391 . S
C304 C305 1.399 . S
C305 C304 1.399 . S
C305 C308 1.396 . S
C305 C317 1.453 . S
C305 C318 1.684 . S
H306 C330 0.948 . S
C307 C303 1.397 . S
C307 C308 1.394 . S
C307 C326 1.723 . S
C308 C305 1.396 . S
C308 C307 1.394 . S
C308 C338 1.723 . S
H309 C332 0.947 . S
H310 C333 0.948 . S
H311 C339 0.982 . S
H312 C340 0.979 . S
H313 C340 0.980 . S
H314 C340 0.983 . S
H315 C339 0.979 . S
H316 C339 0.977 . S
C317 C305 1.453 . S
C317 H346 0.982 . S
C317 H347 0.979 . S
C317 H348 0.977 . S
C318 C305 1.684 . S
C318 H343 0.979 . S
C318 H344 0.980 . S
C318 H345 0.983 . S
C319 C320 1.391 . S
C319 C324 1.391 . S
C319 H349 0.948 . S
C320 C319 1.391 . S
C320 C321 1.391 . S
C321 C320 1.391 . S
C321 C322 1.392 . S
C321 H350 0.947 . S
C322 C321 1.392 . S
C322 C323 1.419 . S
C322 H351 0.948 . S
C323 C322 1.419 . S
C323 C324 1.391 . S
C323 C327 1.397 . S
C324 C319 1.391 . S
C324 C323 1.391 . S
C324 C325 1.399 . S
C325 C324 1.399 . S
C325 C326 1.396 . S
C325 C328 1.453 . S
C325 C329 1.684 . S
C326 C307 1.723 . S
C326 C325 1.396 . S
C326 C327 1.394 . S
C327 C323 1.397 . S
C327 C326 1.394 . S
C327 C337 1.723 . S
C328 C325 1.453 . S
C328 H352 0.982 . S
C328 H353 0.979 . S
C328 H354 0.977 . S
C329 C325 1.684 . S
C329 H355 0.979 . S
C329 H356 0.980 . S
C329 H357 0.983 . S
C330 H306 0.948 . S
C330 C331 1.391 . S
C330 C335 1.391 . S
C331 C330 1.391 . S
C331 C332 1.391 . S
C332 H309 0.947 . S
C332 C331 1.391 . S
C332 C333 1.392 . S
C333 H310 0.948 . S
C333 C332 1.392 . S
C333 C334 1.419 . S
C334 C333 1.419 . S
C334 C335 1.391 . S
C334 C338 1.397 . S
C335 C330 1.391 . S
C335 C334 1.391 . S
C335 C336 1.399 . S
C336 C335 1.399 . S
C336 C337 1.396 . S
C336 C339 1.453 . S
C336 C340 1.684 . S
C337 C327 1.723 . S
C337 C336 1.396 . S
C337 C338 1.394 . S
C338 C308 1.723 . S
C338 C334 1.397 . S
C338 C337 1.394 . S
C339 H311 0.982 . S
C339 H315 0.979 . S
C339 H316 0.977 . S
C339 C336 1.453 . S
C340 H312 0.979 . S
C340 H313 0.980 . S
C340 H314 0.983 . S
C340 C336 1.684 . S
H341 C359 0.948 . S
H342 C300 0.948 . S
H343 C318 0.979 . S
H344 C318 0.980 . S
H345 C318 0.983 . S
H346 C317 0.982 . S
H347 C317 0.979 . S
H348 C317 0.977 . S
H349 C319 0.948 . S
H350 C321 0.947 . S
H351 C322 0.948 . S
H352 C328 0.982 . S
H353 C328 0.979 . S
H354 C328 0.977 . S
H355 C329 0.979 . S
H356 C329 0.980 . S
H357 C329 0.983 . S
H358 C302 0.947 . S
C359 C302 1.392 . S
C359 C303 1.419 . S
C359 H341 0.948 . S
C360 C361 1.391 . S
C360 C364 1.391 . S
C360 H402 0.948 . S
C361 C360 1.391 . S
C361 C362 1.391 . S
C362 C361 1.391 . S
C362 H418 0.947 . S
C362 C419 1.392 . S
C363 C364 1.391 . S
C363 C367 1.397 . S
C363 C419 1.419 . S
C364 C360 1.391 . S
C364 C363 1.391 . S
C364 C365 1.399 . S
C365 C364 1.399 . S
C365 C368 1.396 . S
C365 C377 1.453 . S
C365 C378 1.684 . S
H366 C390 0.948 . S
C367 C363 1.397 . S
C367 C368 1.394 . S
C367 C386 1.723 . S
C368 C365 1.396 . S
C368 C367 1.394 . S
C368 C398 1.723 . S
H369 C392 0.947 . S
H370 C393 0.948 . S
H371 C399 0.982 . S
H372 C400 0.979 . S
H373 C400 0.980 . S
H374 C400 0.983 . S
H375 C399 0.979 . S
H376 C399 0.977 . S
C377 C365 1.453 . S
C377 H406 0.982 . S
C377 H407 0.979 . S
C377 H408 0.977 . S
C378 C365 1.684 . S
C378 H403 0.979 . S
C378 H404 0.980 . S
C378 H405 0.983 . S
C379 C380 1.391 . S
C379 C384 1.391 . S
C379 H409 0.948 . S
C380 C379 1.391 . S
C380 C381 1.391 . S
C381 C380 1.391 . S
C381 C382 1.392 . S
C381 H410 0.947 . S
C382 C381 1.392 . S
C382 C383 1.419 . S
C382 H411 0.948 . S
C383 C382 1.419 . S
C383 C384 1.391 . S
C383 C387 1.397 . S
C384 C379 1.391 . S
C384 C383 1.391 . S
C384 C385 1.399 . S
C385 C384 1.399 . S
C385 C386 1.396 . S
C385 C388 1.453 . S
C385 C389 1.684 . S
C386 C367 1.723 . S
C386 C385 1.396 . S
C386 C387 1.394 . S
C387 C383 1.397 . S
C387 C386 1.394 . S
C387 C397 1.723 . S
C388 C385 1.453 . S
C388 H412 0.982 . S
C388 H413 0.979 . S
C388 H414 0.977 . S
C389 C385 1.684 . S
C389 H415 0.979 . S
C389 H416 0.980 . S
C389 H417 0.983 . S
C390 H366 0.948 . S
C390 C391 1.391 . S
C390 C395 1.391 . S
C391 C390 1.391 . S
C391 C392 1.391 . S
C392 H369 0.947 . S
C392 C391 1.391 . S
C392 C393 1.392 . S
C393 H370 0.948 . S
C393 C392 1.392 . S
C393 C394 1.419 . S
C394 C393 1.419 . S
C394 C395 1.391 . S
C394 C398 1.397 . S
C395 C390 1.391 . S
C395 C394 1.391 . S
C395 C396 1.399 . S
C396 C395 1.399 . S
C396 C397 1.396 . S
C396 C399 1.453 . S
C396 C400 1.684 . S
C397 C387 1.723 . S
C397 C396 1.396 . S
C397 C398 1.394 . S
C398 C368 1.723 . S
C398 C394 1.397 . S
C398 C397 1.394 . S
C399 H371 0.982 . S
C399 H375 0.979 . S
C399 H376 0.977 . S
C399 C396 1.453 . S
C400 H372 0.979 . S
C400 H373 0.980 . S
C400 H374 0.983 . S
C400 C396 1.684 . S
H401 C419 0.948 . S
H402 C360 0.948 . S
H403 C378 0.979 . S
H404 C378 0.980 . S
H405 C378 0.983 . S
H406 C377 0.982 . S
H407 C377 0.979 . S
H408 C377 0.977 . S
H409 C379 0.948 . S
H410 C381 0.947 . S
H411 C382 0.948 . S
H412 C388 0.982 . S
H413 C388 0.979 . S
H414 C388 0.977 . S
H415 C389 0.979 . S
H416 C389 0.980 . S
H417 C389 0.983 . S
H418 C362 0.947 . S
C419 C362 1.392 . S
C419 C363 1.419 . S
C419 H401 0.948 . S
C420 C421 1.391 . S
C420 C424 1.391 . S
C420 H462 0.948 . S
C421 C420 1.391 . S
C421 C422 1.391 . S
C422 C421 1.391 . S
C422 H478 0.947 . S
C422 C479 1.392 . S
C423 C424 1.391 . S
C423 C427 1.397 . S
C423 C479 1.419 . S
C424 C420 1.391 . S
C424 C423 1.391 . S
C424 C425 1.399 . S
C425 C424 1.399 . S
C425 C428 1.396 . S
C425 C437 1.453 . S
C425 C438 1.684 . S
H426 C450 0.948 . S
C427 C423 1.397 . S
C427 C428 1.394 . S
C427 C446 1.723 . S
C428 C425 1.396 . S
C428 C427 1.394 . S
C428 C458 1.723 . S
H429 C452 0.947 . S
H430 C453 0.948 . S
H431 C459 0.982 . S
H432 C460 0.979 . S
H433 C460 0.980 . S
H434 C460 0.983 . S
H435 C459 0.979 . S
H436 C459 0.977 . S
C437 C425 1.453 . S
C437 H466 0.982 . S
C437 H467 0.979 . S
C437 H468 0.977 . S
C438 C425 1.684 . S
C438 H463 0.979 . S
C438 H464 0.980 . S
C438 H465 0.983 . S
C439 C440 1.391 . S
C439 C444 1.391 . S
C439 H469 0.948 . S
C440 C439 1.391 . S
C440 C441 1.391 . S
C441 C440 1.391 . S
C441 C442 1.392 . S
C441 H470 0.947 . S
C442 C441 1.392 . S
C442 C443 1.419 . S
C442 H471 0.948 . S
C443 C442 1.419 . S
C443 C444 1.391 . S
C443 C447 1.397 . S
C444 C439 1.391 . S
C444 C443 1.391 . S
C444 C445 1.399 . S
C445 C444 1.399 . S
C445 C446 1.396 . S
C445 C448 1.453 . S
C445 C449 1.684 . S
C446 C427 1.723 . S
C446 C445 1.396 . S
C446 C447 1.394 . S
C447 C443 1.397 . S
C447 C446 1.394 . S
C447 C457 1.723 . S
C448 C445 1.453 . S
C448 H472 0.982 . S
C448 H473 0.979 . S
C448 H474 0.977 . S
C449 C445 1.684 . S
C449 H475 0.979 . S
C449 H476 0.980 . S
C449 H477 0.983 . S
C450 H426 0.948 . S
C450 C451 1.391 . S
C450 C455 1.391 . S
C451 C450 1.391 . S
C451 C452 1.391 . S
C452 H429 0.947 . S
C452 C451 1.391 . S
C452 C453 1.392 . S
C453 H430 0.948 . S
C453 C452 1.392 . S
C453 C454 1.419 . S
C454 C453 1.419 . S
C454 C455 1.391 . S
C454 C458 1.397 . S
C455 C450 1.391 . S
C455 C454 1.391 . S
C455 C456 1.399 . S
C456 C455 1.399 . S
C456 C457 1.396 . S
C456 C459 1.453 . S
C456 C460 1.684 . S
C457 C447 1.723 . S
C457 C456 1.396 . S
C457 C458 1.394 . S
C458 C428 1.723 . S
C458 C454 1.397 . S
C458 C457 1.394 . S
C459 H431 0.982 . S
C459 H435 0.979 . S
C459 H436 0.977 . S
C459 C456 1.453 . S
C460 H432 0.979 . S
C460 H433 0.980 . S
C460 H434 0.983 . S
C460 C456 1.684 . S
H461 C479 0.948 . S
H462 C420 0.948 . S
H463 C438 0.979 . S
H464 C438 0.980 . S
H465 C438 0.983 . S
H466 C437 0.982 . S
H467 C437 0.979 . S
H468 C437 0.977 . S
H469 C439 0.948 . S
H470 C441 0.947 . S
H471 C442 0.948 . S
H472 C448 0.982 . S
H473 C448 0.979 . S
H474 C448 0.977 . S
H475 C449 0.979 . S
H476 C449 0.980 . S
H477 C449 0.983 . S
H478 C422 0.947 . S
C479 C422 1.392 . S
C479 C423 1.419 . S
C479 H461 0.948 . S
C480 O482 1.247 . S
C480 O484 1.258 . S
C481 O488 1.247 . S
C481 O489 1.258 . S
O482 C480 1.247 . S
O482 Zn483 2.030 1_655 S
Zn483 O482 2.030 1_455 S
Zn483 O487 2.034 . S
Zn483 O489 2.034 . S
Zn483 O490 2.030 1_455 S
O484 C480 1.258 . S
O484 Zn485 2.022 1_655 S
Zn485 O484 2.022 1_455 S
Zn485 O486 2.041 . S
Zn485 O488 2.041 . S
Zn485 O491 2.022 1_455 S
O486 Zn485 2.041 . S
O486 C492 1.247 . S
O487 Zn483 2.034 . S
O487 C492 1.258 . S
O488 C481 1.247 . S
O488 Zn485 2.041 . S
O489 C481 1.258 . S
O489 Zn483 2.034 . S
O490 Zn483 2.030 1_655 S
O490 C493 1.247 . S
O491 Zn485 2.022 1_655 S
O491 C493 1.258 . S
C492 O486 1.247 . S
C492 O487 1.258 . S
C493 O490 1.247 . S
C493 O491 1.258 . S
C494 O496 1.247 . S
C494 O498 1.258 . S
C495 O502 1.247 . S
C495 O503 1.258 . S
O496 C494 1.247 . S
O496 Zn497 2.030 1_655 S
Zn497 O496 2.030 1_455 S
Zn497 O501 2.034 . S
Zn497 O503 2.034 . S
Zn497 O504 2.030 1_455 S
O498 C494 1.258 . S
O498 Zn499 2.022 1_655 S
Zn499 O498 2.022 1_455 S
Zn499 O500 2.041 . S
Zn499 O502 2.041 . S
Zn499 O505 2.022 1_455 S
O500 Zn499 2.041 . S
O500 C506 1.247 . S
O501 Zn497 2.034 . S
O501 C506 1.258 . S
O502 C495 1.247 . S
O502 Zn499 2.041 . S
O503 C495 1.258 . S
O503 Zn497 2.034 . S
O504 Zn497 2.030 1_655 S
O504 C507 1.247 . S
O505 Zn499 2.022 1_655 S
O505 C507 1.258 . S
C506 O500 1.247 . S
C506 O501 1.258 . S
C507 O504 1.247 . S
C507 O505 1.258 . S
C508 O510 1.247 . S
C508 O512 1.258 . S
C509 O516 1.247 . S
C509 O517 1.258 . S
O510 C508 1.247 . S
O510 Zn511 2.028 . S
Zn511 O510 2.028 . S
Zn511 O515 2.035 1_565 S
Zn511 O517 2.035 1_565 S
Zn511 O518 2.028 . S
O512 C508 1.258 . S
O512 Zn513 2.028 1_565 S
Zn513 O512 2.028 1_545 S
Zn513 O514 2.035 . S
Zn513 O516 2.035 . S
Zn513 O519 2.028 1_545 S
O514 Zn513 2.035 . S
O514 C520 1.247 . S
O515 Zn511 2.035 1_545 S
O515 C520 1.258 . S
O516 C509 1.247 . S
O516 Zn513 2.035 . S
O517 C509 1.258 . S
O517 Zn511 2.035 1_545 S
O518 Zn511 2.028 . S
O518 C521 1.247 . S
O519 Zn513 2.028 1_565 S
O519 C521 1.258 . S
C520 O514 1.247 . S
C520 O515 1.258 . S
C521 O518 1.247 . S
C521 O519 1.258 . S
C522 O524 1.247 . S
C522 O526 1.258 . S
C523 O530 1.247 . S
C523 O531 1.258 . S
O524 C522 1.247 . S
O524 Zn525 2.028 . S
Zn525 O524 2.028 . S
Zn525 O529 2.035 . S
Zn525 O531 2.035 1_554 S
Zn525 O532 2.028 1_554 S
O526 C522 1.258 . S
O526 Zn527 2.035 . S
Zn527 O526 2.035 . S
Zn527 O528 2.028 . S
Zn527 O530 2.028 1_554 S
Zn527 O533 2.035 1_554 S
O528 Zn527 2.028 . S
O528 C534 1.247 . S
O529 Zn525 2.035 . S
O529 C534 1.258 . S
O530 C523 1.247 . S
O530 Zn527 2.028 1_556 S
O531 C523 1.258 . S
O531 Zn525 2.035 1_556 S
O532 Zn525 2.028 1_556 S
O532 C535 1.247 . S
O533 Zn527 2.035 1_556 S
O533 C535 1.258 . S
C534 O528 1.247 . S
C534 O529 1.258 . S
C535 O532 1.247 . S
C535 O533 1.258 . S
C536 O538 1.247 . S
C536 O540 1.258 . S
C537 O544 1.247 . S
C537 O545 1.258 . S
O538 C536 1.247 . S
O538 Zn539 2.028 . S
Zn539 O538 2.028 . S
Zn539 O543 2.035 1_565 S
Zn539 O545 2.035 1_565 S
Zn539 O546 2.028 . S
O540 C536 1.258 . S
O540 Zn541 2.028 1_565 S
Zn541 O540 2.028 1_545 S
Zn541 O542 2.035 . S
Zn541 O544 2.035 . S
Zn541 O547 2.028 1_545 S
O542 Zn541 2.035 . S
O542 C548 1.247 . S
O543 Zn539 2.035 1_545 S
O543 C548 1.258 . S
O544 C537 1.247 . S
O544 Zn541 2.035 . S
O545 C537 1.258 . S
O545 Zn539 2.035 1_545 S
O546 Zn539 2.028 . S
O546 C549 1.247 . S
O547 Zn541 2.028 1_565 S
O547 C549 1.258 . S
C548 O542 1.247 . S
C548 O543 1.258 . S
C549 O546 1.247 . S
C549 O547 1.258 . S
C550 O552 1.247 . S
C550 O554 1.258 . S
C551 O558 1.247 . S
C551 O559 1.258 . S
O552 C550 1.247 . S
O552 Zn553 2.028 . S
Zn553 O552 2.028 . S
Zn553 O557 2.035 . S
Zn553 O559 2.035 1_554 S
Zn553 O560 2.028 1_554 S
O554 C550 1.258 . S
O554 Zn555 2.035 . S
Zn555 O554 2.035 . S
Zn555 O556 2.028 . S
Zn555 O558 2.028 1_554 S
Zn555 O561 2.035 1_554 S
O556 Zn555 2.028 . S
O556 C562 1.247 . S
O557 Zn553 2.035 . S
O557 C562 1.258 . S
O558 C551 1.247 . S
O558 Zn555 2.028 1_556 S
O559 C551 1.258 . S
O559 Zn553 2.035 1_556 S
O560 Zn553 2.028 1_556 S
O560 C563 1.247 . S
O561 Zn555 2.035 1_556 S
O561 C563 1.258 . S
C562 O556 1.247 . S
C562 O557 1.258 . S
C563 O560 1.247 . S
C563 O561 1.258 . S
H564 C576 0.930 . S
H565 C578 0.930 . S
H566 C579 0.930 . S
H567 C583 0.959 . S
H568 C583 0.959 . S
H569 C583 0.961 . S
H570 C584 0.960 . S
H571 C584 0.961 . S
H572 C584 0.959 . S
H573 C587 0.929 . S
H574 C588 0.931 . S
H575 C590 0.930 . S
C576 H564 0.930 . S
C576 C577 1.399 . S
C576 C581 1.399 . S
C577 C576 1.399 . S
C577 C578 1.376 . S
C578 H565 0.930 . S
C578 C577 1.376 . S
C578 C579 1.388 . S
C579 H566 0.930 . S
C579 C578 1.388 . S
C579 C580 1.390 . S
C580 C579 1.390 . S
C580 C581 1.394 . S
C580 C586 1.465 . S
C581 C576 1.399 . S
C581 C580 1.394 . S
C581 C582 1.516 . S
C582 C581 1.516 . S
C582 C583 1.502 . S
C582 C584 1.561 . S
C582 C585 1.526 . S
C583 H567 0.959 . S
C583 H568 0.959 . S
C583 H569 0.961 . S
C583 C582 1.502 . S
C584 H570 0.960 . S
C584 H571 0.961 . S
C584 H572 0.959 . S
C584 C582 1.561 . S
C585 C582 1.526 . S
C585 C586 1.396 . S
C585 C590 1.390 . S
C586 C580 1.465 . S
C586 C585 1.396 . S
C586 C587 1.399 . S
C587 H573 0.929 . S
C587 C586 1.399 . S
C587 C588 1.385 . S
C588 H574 0.931 . S
C588 C587 1.385 . S
C588 C589 1.389 . S
C589 C588 1.389 . S
C589 C590 1.387 . S
C590 H575 0.930 . S
C590 C585 1.390 . S
C590 C589 1.387 . S
H591 C603 0.930 . S
H592 C605 0.930 . S
H593 C606 0.930 . S
H594 C610 0.959 . S
H595 C610 0.959 . S
H596 C610 0.961 . S
H597 C611 0.960 . S
H598 C611 0.961 . S
H599 C611 0.959 . S
H600 C614 0.929 . S
H601 C615 0.931 . S
H602 C617 0.930 . S
C603 H591 0.930 . S
C603 C604 1.399 . S
C603 C608 1.399 . S
C604 C603 1.399 . S
C604 C605 1.376 . S
C605 H592 0.930 . S
C605 C604 1.376 . S
C605 C606 1.388 . S
C606 H593 0.930 . S
C606 C605 1.388 . S
C606 C607 1.390 . S
C607 C606 1.390 . S
C607 C608 1.394 . S
C607 C613 1.465 . S
C608 C603 1.399 . S
C608 C607 1.394 . S
C608 C609 1.516 . S
C609 C608 1.516 . S
C609 C610 1.502 . S
C609 C611 1.561 . S
C609 C612 1.526 . S
C610 H594 0.959 . S
C610 H595 0.959 . S
C610 H596 0.961 . S
C610 C609 1.502 . S
C611 H597 0.960 . S
C611 H598 0.961 . S
C611 H599 0.959 . S
C611 C609 1.561 . S
C612 C609 1.526 . S
C612 C613 1.396 . S
C612 C617 1.390 . S
C613 C607 1.465 . S
C613 C612 1.396 . S
C613 C614 1.399 . S
C614 H600 0.929 . S
C614 C613 1.399 . S
C614 C615 1.385 . S
C615 H601 0.931 . S
C615 C614 1.385 . S
C615 C616 1.389 . S
C616 C615 1.389 . S
C616 C617 1.387 . S
C617 H602 0.930 . S
C617 C612 1.390 . S
C617 C616 1.387 . S
H618 C630 0.930 . S
H619 C632 0.930 . S
H620 C633 0.930 . S
H621 C637 0.959 . S
H622 C637 0.959 . S
H623 C637 0.961 . S
H624 C638 0.960 . S
H625 C638 0.961 . S
H626 C638 0.959 . S
H627 C641 0.929 . S
H628 C642 0.931 . S
H629 C644 0.930 . S
C630 H618 0.930 . S
C630 C631 1.399 . S
C630 C635 1.399 . S
C631 C630 1.399 . S
C631 C632 1.376 . S
C632 H619 0.930 . S
C632 C631 1.376 . S
C632 C633 1.388 . S
C633 H620 0.930 . S
C633 C632 1.388 . S
C633 C634 1.390 . S
C634 C633 1.390 . S
C634 C635 1.394 . S
C634 C640 1.465 . S
C635 C630 1.399 . S
C635 C634 1.394 . S
C635 C636 1.516 . S
C636 C635 1.516 . S
C636 C637 1.502 . S
C636 C638 1.561 . S
C636 C639 1.526 . S
C637 H621 0.959 . S
C637 H622 0.959 . S
C637 H623 0.961 . S
C637 C636 1.502 . S
C638 H624 0.960 . S
C638 H625 0.961 . S
C638 H626 0.959 . S
C638 C636 1.561 . S
C639 C636 1.526 . S
C639 C640 1.396 . S
C639 C644 1.390 . S
C640 C634 1.465 . S
C640 C639 1.396 . S
C640 C641 1.399 . S
C641 H627 0.929 . S
C641 C640 1.399 . S
C641 C642 1.385 . S
C642 H628 0.931 . S
C642 C641 1.385 . S
C642 C643 1.389 . S
C643 C642 1.389 . S
C643 C644 1.387 . S
C644 H629 0.930 . S
C644 C639 1.390 . S
C644 C643 1.387 . S
H645 C657 0.930 . S
H646 C659 0.930 . S
H647 C660 0.930 . S
H648 C664 0.959 . S
H649 C664 0.959 . S
H650 C664 0.961 . S
H651 C665 0.960 . S
H652 C665 0.961 . S
H653 C665 0.959 . S
H654 C668 0.929 . S
H655 C669 0.931 . S
H656 C671 0.930 . S
C657 H645 0.930 . S
C657 C658 1.399 . S
C657 C662 1.399 . S
C658 C657 1.399 . S
C658 C659 1.376 . S
C659 H646 0.930 . S
C659 C658 1.376 . S
C659 C660 1.388 . S
C660 H647 0.930 . S
C660 C659 1.388 . S
C660 C661 1.390 . S
C661 C660 1.390 . S
C661 C662 1.394 . S
C661 C667 1.465 . S
C662 C657 1.399 . S
C662 C661 1.394 . S
C662 C663 1.516 . S
C663 C662 1.516 . S
C663 C664 1.502 . S
C663 C665 1.561 . S
C663 C666 1.526 . S
C664 H648 0.959 . S
C664 H649 0.959 . S
C664 H650 0.961 . S
C664 C663 1.502 . S
C665 H651 0.960 . S
C665 H652 0.961 . S
C665 H653 0.959 . S
C665 C663 1.561 . S
C666 C663 1.526 . S
C666 C667 1.396 . S
C666 C671 1.390 . S
C667 C661 1.465 . S
C667 C666 1.396 . S
C667 C668 1.399 . S
C668 H654 0.929 . S
C668 C667 1.399 . S
C668 C669 1.385 . S
C669 H655 0.931 . S
C669 C668 1.385 . S
C669 C670 1.389 . S
C670 C669 1.389 . S
C670 C671 1.387 . S
C671 H656 0.930 . S
C671 C666 1.390 . S
C671 C670 1.387 . S
H672 C684 0.930 . S
H673 C686 0.930 . S
H674 C687 0.930 . S
H675 C691 0.959 . S
H676 C691 0.959 . S
H677 C691 0.961 . S
H678 C692 0.960 . S
H679 C692 0.961 . S
H680 C692 0.959 . S
H681 C695 0.929 . S
H682 C696 0.931 . S
H683 C698 0.930 . S
C684 H672 0.930 . S
C684 C685 1.399 . S
C684 C689 1.399 . S
C685 C684 1.399 . S
C685 C686 1.376 . S
C686 H673 0.930 . S
C686 C685 1.376 . S
C686 C687 1.388 . S
C687 H674 0.930 . S
C687 C686 1.388 . S
C687 C688 1.390 . S
C688 C687 1.390 . S
C688 C689 1.394 . S
C688 C694 1.465 . S
C689 C684 1.399 . S
C689 C688 1.394 . S
C689 C690 1.516 . S
C690 C689 1.516 . S
C690 C691 1.502 . S
C690 C692 1.561 . S
C690 C693 1.526 . S
C691 H675 0.959 . S
C691 H676 0.959 . S
C691 H677 0.961 . S
C691 C690 1.502 . S
C692 H678 0.960 . S
C692 H679 0.961 . S
C692 H680 0.959 . S
C692 C690 1.561 . S
C693 C690 1.526 . S
C693 C694 1.396 . S
C693 C698 1.390 . S
C694 C688 1.465 . S
C694 C693 1.396 . S
C694 C695 1.399 . S
C695 H681 0.929 . S
C695 C694 1.399 . S
C695 C696 1.385 . S
C696 H682 0.931 . S
C696 C695 1.385 . S
C696 C697 1.389 . S
C697 C696 1.389 . S
C697 C698 1.387 . S
C698 H683 0.930 . S
C698 C693 1.390 . S
C698 C697 1.387 . S
H699 C711 0.930 . S
H700 C713 0.930 . S
H701 C714 0.930 . S
H702 C718 0.959 . S
H703 C718 0.959 . S
H704 C718 0.961 . S
H705 C719 0.960 . S
H706 C719 0.961 . S
H707 C719 0.959 . S
H708 C722 0.929 . S
H709 C723 0.931 . S
H710 C725 0.930 . S
C711 H699 0.930 . S
C711 C712 1.399 . S
C711 C716 1.399 . S
C712 C711 1.399 . S
C712 C713 1.376 . S
C713 H700 0.930 . S
C713 C712 1.376 . S
C713 C714 1.388 . S
C714 H701 0.930 . S
C714 C713 1.388 . S
C714 C715 1.390 . S
C715 C714 1.390 . S
C715 C716 1.394 . S
C715 C721 1.465 . S
C716 C711 1.399 . S
C716 C715 1.394 . S
C716 C717 1.516 . S
C717 C716 1.516 . S
C717 C718 1.502 . S
C717 C719 1.561 . S
C717 C720 1.526 . S
C718 H702 0.959 . S
C718 H703 0.959 . S
C718 H704 0.961 . S
C718 C717 1.502 . S
C719 H705 0.960 . S
C719 H706 0.961 . S
C719 H707 0.959 . S
C719 C717 1.561 . S
C720 C717 1.526 . S
C720 C721 1.396 . S
C720 C725 1.390 . S
C721 C715 1.465 . S
C721 C720 1.396 . S
C721 C722 1.399 . S
C722 H708 0.929 . S
C722 C721 1.399 . S
C722 C723 1.385 . S
C723 H709 0.931 . S
C723 C722 1.385 . S
C723 C724 1.389 . S
C724 C723 1.389 . S
C724 C725 1.387 . S
C725 H710 0.930 . S
C725 C720 1.390 . S
C725 C724 1.387 . S
H726 C738 0.930 . S
H727 C740 0.930 . S
H728 C741 0.930 . S
H729 C745 0.959 . S
H730 C745 0.959 . S
H731 C745 0.961 . S
H732 C746 0.960 . S
H733 C746 0.961 . S
H734 C746 0.959 . S
H735 C749 0.929 . S
H736 C750 0.931 . S
H737 C752 0.930 . S
C738 H726 0.930 . S
C738 C739 1.399 . S
C738 C743 1.399 . S
C739 C738 1.399 . S
C739 C740 1.376 . S
C740 H727 0.930 . S
C740 C739 1.376 . S
C740 C741 1.388 . S
C741 H728 0.930 . S
C741 C740 1.388 . S
C741 C742 1.390 . S
C742 C741 1.390 . S
C742 C743 1.394 . S
C742 C748 1.465 . S
C743 C738 1.399 . S
C743 C742 1.394 . S
C743 C744 1.516 . S
C744 C743 1.516 . S
C744 C745 1.502 . S
C744 C746 1.561 . S
C744 C747 1.526 . S
C745 H729 0.959 . S
C745 H730 0.959 . S
C745 H731 0.961 . S
C745 C744 1.502 . S
C746 H732 0.960 . S
C746 H733 0.961 . S
C746 H734 0.959 . S
C746 C744 1.561 . S
C747 C744 1.526 . S
C747 C748 1.396 . S
C747 C752 1.390 . S
C748 C742 1.465 . S
C748 C747 1.396 . S
C748 C749 1.399 . S
C749 H735 0.929 . S
C749 C748 1.399 . S
C749 C750 1.385 . S
C750 H736 0.931 . S
C750 C749 1.385 . S
C750 C751 1.389 . S
C751 C750 1.389 . S
C751 C752 1.387 . S
C752 H737 0.930 . S
C752 C747 1.390 . S
C752 C751 1.387 . S
H753 C765 0.930 . S
H754 C767 0.930 . S
H755 C768 0.930 . S
H756 C772 0.959 . S
H757 C772 0.959 . S
H758 C772 0.961 . S
H759 C773 0.960 . S
H760 C773 0.961 . S
H761 C773 0.959 . S
H762 C776 0.929 . S
H763 C777 0.931 . S
H764 C779 0.930 . S
C765 H753 0.930 . S
C765 C766 1.399 . S
C765 C770 1.399 . S
C766 C765 1.399 . S
C766 C767 1.376 . S
C767 H754 0.930 . S
C767 C766 1.376 . S
C767 C768 1.388 . S
C768 H755 0.930 . S
C768 C767 1.388 . S
C768 C769 1.390 . S
C769 C768 1.390 . S
C769 C770 1.394 . S
C769 C775 1.465 . S
C770 C765 1.399 . S
C770 C769 1.394 . S
C770 C771 1.516 . S
C771 C770 1.516 . S
C771 C772 1.502 . S
C771 C773 1.561 . S
C771 C774 1.526 . S
C772 H756 0.959 . S
C772 H757 0.959 . S
C772 H758 0.961 . S
C772 C771 1.502 . S
C773 H759 0.960 . S
C773 H760 0.961 . S
C773 H761 0.959 . S
C773 C771 1.561 . S
C774 C771 1.526 . S
C774 C775 1.396 . S
C774 C779 1.390 . S
C775 C769 1.465 . S
C775 C774 1.396 . S
C775 C776 1.399 . S
C776 H762 0.929 . S
C776 C775 1.399 . S
C776 C777 1.385 . S
C777 H763 0.931 . S
C777 C776 1.385 . S
C777 C778 1.389 . S
C778 C777 1.389 . S
C778 C779 1.387 . S
C779 H764 0.930 . S
C779 C774 1.390 . S
C779 C778 1.387 . S
H780 C792 0.930 . S
H781 C794 0.930 . S
H782 C795 0.930 . S
H783 C799 0.959 . S
H784 C799 0.959 . S
H785 C799 0.961 . S
H786 C800 0.960 . S
H787 C800 0.961 . S
H788 C800 0.959 . S
H789 C803 0.929 . S
H790 C804 0.931 . S
H791 C806 0.930 . S
C792 H780 0.930 . S
C792 C793 1.399 . S
C792 C797 1.399 . S
C793 C792 1.399 . S
C793 C794 1.376 . S
C794 H781 0.930 . S
C794 C793 1.376 . S
C794 C795 1.388 . S
C795 H782 0.930 . S
C795 C794 1.388 . S
C795 C796 1.390 . S
C796 C795 1.390 . S
C796 C797 1.394 . S
C796 C802 1.465 . S
C797 C792 1.399 . S
C797 C796 1.394 . S
C797 C798 1.516 . S
C798 C797 1.516 . S
C798 C799 1.502 . S
C798 C800 1.561 . S
C798 C801 1.526 . S
C799 H783 0.959 . S
C799 H784 0.959 . S
C799 H785 0.961 . S
C799 C798 1.502 . S
C800 H786 0.960 . S
C800 H787 0.961 . S
C800 H788 0.959 . S
C800 C798 1.561 . S
C801 C798 1.526 . S
C801 C802 1.396 . S
C801 C806 1.390 . S
C802 C796 1.465 . S
C802 C801 1.396 . S
C802 C803 1.399 . S
C803 H789 0.929 . S
C803 C802 1.399 . S
C803 C804 1.385 . S
C804 H790 0.931 . S
C804 C803 1.385 . S
C804 C805 1.389 . S
C805 C804 1.389 . S
C805 C806 1.387 . S
C806 H791 0.930 . S
C806 C801 1.390 . S
C806 C805 1.387 . S
H807 C819 0.930 . S
H808 C821 0.930 . S
H809 C822 0.930 . S
H810 C826 0.959 . S
H811 C826 0.959 . S
H812 C826 0.961 . S
H813 C827 0.960 . S
H814 C827 0.961 . S
H815 C827 0.959 . S
H816 C830 0.929 . S
H817 C831 0.931 . S
H818 C833 0.930 . S
C819 H807 0.930 . S
C819 C820 1.399 . S
C819 C824 1.399 . S
C820 C819 1.399 . S
C820 C821 1.376 . S
C821 H808 0.930 . S
C821 C820 1.376 . S
C821 C822 1.388 . S
C822 H809 0.930 . S
C822 C821 1.388 . S
C822 C823 1.390 . S
C823 C822 1.390 . S
C823 C824 1.394 . S
C823 C829 1.465 . S
C824 C819 1.399 . S
C824 C823 1.394 . S
C824 C825 1.516 . S
C825 C824 1.516 . S
C825 C826 1.502 . S
C825 C827 1.561 . S
C825 C828 1.526 . S
C826 H810 0.959 . S
C826 H811 0.959 . S
C826 H812 0.961 . S
C826 C825 1.502 . S
C827 H813 0.960 . S
C827 H814 0.961 . S
C827 H815 0.959 . S
C827 C825 1.561 . S
C828 C825 1.526 . S
C828 C829 1.396 . S
C828 C833 1.390 . S
C829 C823 1.465 . S
C829 C828 1.396 . S
C829 C830 1.399 . S
C830 H816 0.929 . S
C830 C829 1.399 . S
C830 C831 1.385 . S
C831 H817 0.931 . S
C831 C830 1.385 . S
C831 C832 1.389 . S
C832 C831 1.389 . S
C832 C833 1.387 . S
C833 H818 0.930 . S
C833 C828 1.390 . S
C833 C832 1.387 . S
H834 C846 0.930 . S
H835 C848 0.930 . S
H836 C849 0.930 . S
H837 C853 0.959 . S
H838 C853 0.959 . S
H839 C853 0.961 . S
H840 C854 0.960 . S
H841 C854 0.961 . S
H842 C854 0.959 . S
H843 C857 0.929 . S
H844 C858 0.931 . S
H845 C860 0.930 . S
C846 H834 0.930 . S
C846 C847 1.399 . S
C846 C851 1.399 . S
C847 C846 1.399 . S
C847 C848 1.376 . S
C848 H835 0.930 . S
C848 C847 1.376 . S
C848 C849 1.388 . S
C849 H836 0.930 . S
C849 C848 1.388 . S
C849 C850 1.390 . S
C850 C849 1.390 . S
C850 C851 1.394 . S
C850 C856 1.465 . S
C851 C846 1.399 . S
C851 C850 1.394 . S
C851 C852 1.516 . S
C852 C851 1.516 . S
C852 C853 1.502 . S
C852 C854 1.561 . S
C852 C855 1.526 . S
C853 H837 0.959 . S
C853 H838 0.959 . S
C853 H839 0.961 . S
C853 C852 1.502 . S
C854 H840 0.960 . S
C854 H841 0.961 . S
C854 H842 0.959 . S
C854 C852 1.561 . S
C855 C852 1.526 . S
C855 C856 1.396 . S
C855 C860 1.390 . S
C856 C850 1.465 . S
C856 C855 1.396 . S
C856 C857 1.399 . S
C857 H843 0.929 . S
C857 C856 1.399 . S
C857 C858 1.385 . S
C858 H844 0.931 . S
C858 C857 1.385 . S
C858 C859 1.389 . S
C859 C858 1.389 . S
C859 C860 1.387 . S
C860 H845 0.930 . S
C860 C855 1.390 . S
C860 C859 1.387 . S
H861 C873 0.930 . S
H862 C875 0.930 . S
H863 C876 0.930 . S
H864 C880 0.959 . S
H865 C880 0.959 . S
H866 C880 0.961 . S
H867 C881 0.960 . S
H868 C881 0.961 . S
H869 C881 0.959 . S
H870 C884 0.929 . S
H871 C885 0.931 . S
H872 C887 0.930 . S
C873 H861 0.930 . S
C873 C874 1.399 . S
C873 C878 1.399 . S
C874 C873 1.399 . S
C874 C875 1.376 . S
C875 H862 0.930 . S
C875 C874 1.376 . S
C875 C876 1.388 . S
C876 H863 0.930 . S
C876 C875 1.388 . S
C876 C877 1.390 . S
C877 C876 1.390 . S
C877 C878 1.394 . S
C877 C883 1.465 . S
C878 C873 1.399 . S
C878 C877 1.394 . S
C878 C879 1.516 . S
C879 C878 1.516 . S
C879 C880 1.502 . S
C879 C881 1.561 . S
C879 C882 1.526 . S
C880 H864 0.959 . S
C880 H865 0.959 . S
C880 H866 0.961 . S
C880 C879 1.502 . S
C881 H867 0.960 . S
C881 H868 0.961 . S
C881 H869 0.959 . S
C881 C879 1.561 . S
C882 C879 1.526 . S
C882 C883 1.396 . S
C882 C887 1.390 . S
C883 C877 1.465 . S
C883 C882 1.396 . S
C883 C884 1.399 . S
C884 H870 0.929 . S
C884 C883 1.399 . S
C884 C885 1.385 . S
C885 H871 0.931 . S
C885 C884 1.385 . S
C885 C886 1.389 . S
C886 C885 1.389 . S
C886 C887 1.387 . S
C887 H872 0.930 . S
C887 C882 1.390 . S
C887 C886 1.387 . S
H888 C900 0.930 . S
H889 C902 0.930 . S
H890 C903 0.930 . S
H891 C907 0.959 . S
H892 C907 0.959 . S
H893 C907 0.961 . S
H894 C908 0.960 . S
H895 C908 0.961 . S
H896 C908 0.959 . S
H897 C911 0.929 . S
H898 C912 0.931 . S
H899 C914 0.930 . S
C900 H888 0.930 . S
C900 C901 1.399 . S
C900 C905 1.399 . S
C901 C900 1.399 . S
C901 C902 1.376 . S
C902 H889 0.930 . S
C902 C901 1.376 . S
C902 C903 1.388 . S
C903 H890 0.930 . S
C903 C902 1.388 . S
C903 C904 1.390 . S
C904 C903 1.390 . S
C904 C905 1.394 . S
C904 C910 1.465 . S
C905 C900 1.399 . S
C905 C904 1.394 . S
C905 C906 1.516 . S
C906 C905 1.516 . S
C906 C907 1.502 . S
C906 C908 1.561 . S
C906 C909 1.526 . S
C907 H891 0.959 . S
C907 H892 0.959 . S
C907 H893 0.961 . S
C907 C906 1.502 . S
C908 H894 0.960 . S
C908 H895 0.961 . S
C908 H896 0.959 . S
C908 C906 1.561 . S
C909 C906 1.526 . S
C909 C910 1.396 . S
C909 C914 1.390 . S
C910 C904 1.465 . S
C910 C909 1.396 . S
C910 C911 1.399 . S
C911 H897 0.929 . S
C911 C910 1.399 . S
C911 C912 1.385 . S
C912 H898 0.931 . S
C912 C911 1.385 . S
C912 C913 1.389 . S
C913 C912 1.389 . S
C913 C914 1.387 . S
C914 H899 0.930 . S
C914 C909 1.390 . S
C914 C913 1.387 . S
H915 C927 0.930 . S
H916 C929 0.930 . S
H917 C930 0.930 . S
H918 C934 0.959 . S
H919 C934 0.959 . S
H920 C934 0.961 . S
H921 C935 0.960 . S
H922 C935 0.961 . S
H923 C935 0.959 . S
H924 C938 0.929 . S
H925 C939 0.931 . S
H926 C941 0.930 . S
C927 H915 0.930 . S
C927 C928 1.399 . S
C927 C932 1.399 . S
C928 C927 1.399 . S
C928 C929 1.376 . S
C929 H916 0.930 . S
C929 C928 1.376 . S
C929 C930 1.388 . S
C930 H917 0.930 . S
C930 C929 1.388 . S
C930 C931 1.390 . S
C931 C930 1.390 . S
C931 C932 1.394 . S
C931 C937 1.465 . S
C932 C927 1.399 . S
C932 C931 1.394 . S
C932 C933 1.516 . S
C933 C932 1.516 . S
C933 C934 1.502 . S
C933 C935 1.561 . S
C933 C936 1.526 . S
C934 H918 0.959 . S
C934 H919 0.959 . S
C934 H920 0.961 . S
C934 C933 1.502 . S
C935 H921 0.960 . S
C935 H922 0.961 . S
C935 H923 0.959 . S
C935 C933 1.561 . S
C936 C933 1.526 . S
C936 C937 1.396 . S
C936 C941 1.390 . S
C937 C931 1.465 . S
C937 C936 1.396 . S
C937 C938 1.399 . S
C938 H924 0.929 . S
C938 C937 1.399 . S
C938 C939 1.385 . S
C939 H925 0.931 . S
C939 C938 1.385 . S
C939 C940 1.389 . S
C940 C939 1.389 . S
C940 C941 1.387 . S
C941 H926 0.930 . S
C941 C936 1.390 . S
C941 C940 1.387 . S
H942 C954 0.930 . S
H943 C956 0.930 . S
H944 C957 0.930 . S
H945 C961 0.959 . S
H946 C961 0.959 . S
H947 C961 0.961 . S
H948 C962 0.960 . S
H949 C962 0.961 . S
H950 C962 0.959 . S
H951 C965 0.929 . S
H952 C966 0.931 . S
H953 C968 0.930 . S
C954 H942 0.930 . S
C954 C955 1.399 . S
C954 C959 1.399 . S
C955 C954 1.399 . S
C955 C956 1.376 . S
C956 H943 0.930 . S
C956 C955 1.376 . S
C956 C957 1.388 . S
C957 H944 0.930 . S
C957 C956 1.388 . S
C957 C958 1.390 . S
C958 C957 1.390 . S
C958 C959 1.394 . S
C958 C964 1.465 . S
C959 C954 1.399 . S
C959 C958 1.394 . S
C959 C960 1.516 . S
C960 C959 1.516 . S
C960 C961 1.502 . S
C960 C962 1.561 . S
C960 C963 1.526 . S
C961 H945 0.959 . S
C961 H946 0.959 . S
C961 H947 0.961 . S
C961 C960 1.502 . S
C962 H948 0.960 . S
C962 H949 0.961 . S
C962 H950 0.959 . S
C962 C960 1.561 . S
C963 C960 1.526 . S
C963 C964 1.396 . S
C963 C968 1.390 . S
C964 C958 1.465 . S
C964 C963 1.396 . S
C964 C965 1.399 . S
C965 H951 0.929 . S
C965 C964 1.399 . S
C965 C966 1.385 . S
C966 H952 0.931 . S
C966 C965 1.385 . S
C966 C967 1.389 . S
C967 C966 1.389 . S
C967 C968 1.387 . S
C968 H953 0.930 . S
C968 C963 1.390 . S
C968 C967 1.387 . S
H969 C981 0.930 . S
H970 C983 0.930 . S
H971 C984 0.930 . S
H972 C988 0.959 . S
H973 C988 0.959 . S
H974 C988 0.961 . S
H975 C989 0.960 . S
H976 C989 0.961 . S
H977 C989 0.959 . S
H978 C992 0.929 . S
H979 C993 0.931 . S
H980 C995 0.930 . S
C981 H969 0.930 . S
C981 C982 1.399 . S
C981 C986 1.399 . S
C982 C981 1.399 . S
C982 C983 1.376 . S
C983 H970 0.930 . S
C983 C982 1.376 . S
C983 C984 1.388 . S
C984 H971 0.930 . S
C984 C983 1.388 . S
C984 C985 1.390 . S
C985 C984 1.390 . S
C985 C986 1.394 . S
C985 C991 1.465 . S
C986 C981 1.399 . S
C986 C985 1.394 . S
C986 C987 1.516 . S
C987 C986 1.516 . S
C987 C988 1.502 . S
C987 C989 1.561 . S
C987 C990 1.526 . S
C988 H972 0.959 . S
C988 H973 0.959 . S
C988 H974 0.961 . S
C988 C987 1.502 . S
C989 H975 0.960 . S
C989 H976 0.961 . S
C989 H977 0.959 . S
C989 C987 1.561 . S
C990 C987 1.526 . S
C990 C991 1.396 . S
C990 C995 1.390 . S
C991 C985 1.465 . S
C991 C990 1.396 . S
C991 C992 1.399 . S
C992 H978 0.929 . S
C992 C991 1.399 . S
C992 C993 1.385 . S
C993 H979 0.931 . S
C993 C992 1.385 . S
C993 C994 1.389 . S
C994 C993 1.389 . S
C994 C995 1.387 . S
C995 H980 0.930 . S
C995 C990 1.390 . S
C995 C994 1.387 . S
H996 C1008 0.930 . S
H997 C1010 0.930 . S
H998 C1011 0.930 . S
H999 C1015 0.959 . S
H1000 C1015 0.959 . S
H1001 C1015 0.961 . S
H1002 C1016 0.960 . S
H1003 C1016 0.961 . S
H1004 C1016 0.959 . S
H1005 C1019 0.929 . S
H1006 C1020 0.931 . S
H1007 C1022 0.930 . S
C1008 H996 0.930 . S
C1008 C1009 1.399 . S
C1008 C1013 1.399 . S
C1009 C1008 1.399 . S
C1009 C1010 1.376 . S
C1010 H997 0.930 . S
C1010 C1009 1.376 . S
C1010 C1011 1.388 . S
C1011 H998 0.930 . S
C1011 C1010 1.388 . S
C1011 C1012 1.390 . S
C1012 C1011 1.390 . S
C1012 C1013 1.394 . S
C1012 C1018 1.465 . S
C1013 C1008 1.399 . S
C1013 C1012 1.394 . S
C1013 C1014 1.516 . S
C1014 C1013 1.516 . S
C1014 C1015 1.502 . S
C1014 C1016 1.561 . S
C1014 C1017 1.526 . S
C1015 H999 0.959 . S
C1015 H1000 0.959 . S
C1015 H1001 0.961 . S
C1015 C1014 1.502 . S
C1016 H1002 0.960 . S
C1016 H1003 0.961 . S
C1016 H1004 0.959 . S
C1016 C1014 1.561 . S
C1017 C1014 1.526 . S
C1017 C1018 1.396 . S
C1017 C1022 1.390 . S
C1018 C1012 1.465 . S
C1018 C1017 1.396 . S
C1018 C1019 1.399 . S
C1019 H1005 0.929 . S
C1019 C1018 1.399 . S
C1019 C1020 1.385 . S
C1020 H1006 0.931 . S
C1020 C1019 1.385 . S
C1020 C1021 1.389 . S
C1021 C1020 1.389 . S
C1021 C1022 1.387 . S
C1022 H1007 0.930 . S
C1022 C1017 1.390 . S
C1022 C1021 1.387 . S
H1023 C1035 0.930 . S
H1024 C1037 0.930 . S
H1025 C1038 0.930 . S
H1026 C1042 0.959 . S
H1027 C1042 0.959 . S
H1028 C1042 0.961 . S
H1029 C1043 0.960 . S
H1030 C1043 0.961 . S
H1031 C1043 0.959 . S
H1032 C1046 0.929 . S
H1033 C1047 0.931 . S
H1034 C1049 0.930 . S
C1035 H1023 0.930 . S
C1035 C1036 1.399 . S
C1035 C1040 1.399 . S
C1036 C1035 1.399 . S
C1036 C1037 1.376 . S
C1037 H1024 0.930 . S
C1037 C1036 1.376 . S
C1037 C1038 1.388 . S
C1038 H1025 0.930 . S
C1038 C1037 1.388 . S
C1038 C1039 1.390 . S
C1039 C1038 1.390 . S
C1039 C1040 1.394 . S
C1039 C1045 1.465 . S
C1040 C1035 1.399 . S
C1040 C1039 1.394 . S
C1040 C1041 1.516 . S
C1041 C1040 1.516 . S
C1041 C1042 1.502 . S
C1041 C1043 1.561 . S
C1041 C1044 1.526 . S
C1042 H1026 0.959 . S
C1042 H1027 0.959 . S
C1042 H1028 0.961 . S
C1042 C1041 1.502 . S
C1043 H1029 0.960 . S
C1043 H1030 0.961 . S
C1043 H1031 0.959 . S
C1043 C1041 1.561 . S
C1044 C1041 1.526 . S
C1044 C1045 1.396 . S
C1044 C1049 1.390 . S
C1045 C1039 1.465 . S
C1045 C1044 1.396 . S
C1045 C1046 1.399 . S
C1046 H1032 0.929 . S
C1046 C1045 1.399 . S
C1046 C1047 1.385 . S
C1047 H1033 0.931 . S
C1047 C1046 1.385 . S
C1047 C1048 1.389 . S
C1048 C1047 1.389 . S
C1048 C1049 1.387 . S
C1049 H1034 0.930 . S
C1049 C1044 1.390 . S
C1049 C1048 1.387 . S
H1050 C1062 0.930 . S
H1051 C1064 0.930 . S
H1052 C1065 0.930 . S
H1053 C1069 0.959 . S
H1054 C1069 0.959 . S
H1055 C1069 0.961 . S
H1056 C1070 0.960 . S
H1057 C1070 0.961 . S
H1058 C1070 0.959 . S
H1059 C1073 0.929 . S
H1060 C1074 0.931 . S
H1061 C1076 0.930 . S
C1062 H1050 0.930 . S
C1062 C1063 1.399 . S
C1062 C1067 1.399 . S
C1063 C1062 1.399 . S
C1063 C1064 1.376 . S
C1064 H1051 0.930 . S
C1064 C1063 1.376 . S
C1064 C1065 1.388 . S
C1065 H1052 0.930 . S
C1065 C1064 1.388 . S
C1065 C1066 1.390 . S
C1066 C1065 1.390 . S
C1066 C1067 1.394 . S
C1066 C1072 1.465 . S
C1067 C1062 1.399 . S
C1067 C1066 1.394 . S
C1067 C1068 1.516 . S
C1068 C1067 1.516 . S
C1068 C1069 1.502 . S
C1068 C1070 1.561 . S
C1068 C1071 1.526 . S
C1069 H1053 0.959 . S
C1069 H1054 0.959 . S
C1069 H1055 0.961 . S
C1069 C1068 1.502 . S
C1070 H1056 0.960 . S
C1070 H1057 0.961 . S
C1070 H1058 0.959 . S
C1070 C1068 1.561 . S
C1071 C1068 1.526 . S
C1071 C1072 1.396 . S
C1071 C1076 1.390 . S
C1072 C1066 1.465 . S
C1072 C1071 1.396 . S
C1072 C1073 1.399 . S
C1073 H1059 0.929 . S
C1073 C1072 1.399 . S
C1073 C1074 1.385 . S
C1074 H1060 0.931 . S
C1074 C1073 1.385 . S
C1074 C1075 1.389 . S
C1075 C1074 1.389 . S
C1075 C1076 1.387 . S
C1076 H1061 0.930 . S
C1076 C1071 1.390 . S
C1076 C1075 1.387 . S
H1077 C1089 0.930 . S
H1078 C1091 0.930 . S
H1079 C1092 0.930 . S
H1080 C1096 0.959 . S
H1081 C1096 0.959 . S
H1082 C1096 0.961 . S
H1083 C1097 0.960 . S
H1084 C1097 0.961 . S
H1085 C1097 0.959 . S
H1086 C1100 0.929 . S
H1087 C1101 0.931 . S
H1088 C1103 0.930 . S
C1089 H1077 0.930 . S
C1089 C1090 1.399 . S
C1089 C1094 1.399 . S
C1090 C1089 1.399 . S
C1090 C1091 1.376 . S
C1091 H1078 0.930 . S
C1091 C1090 1.376 . S
C1091 C1092 1.388 . S
C1092 H1079 0.930 . S
C1092 C1091 1.388 . S
C1092 C1093 1.390 . S
C1093 C1092 1.390 . S
C1093 C1094 1.394 . S
C1093 C1099 1.465 . S
C1094 C1089 1.399 . S
C1094 C1093 1.394 . S
C1094 C1095 1.516 . S
C1095 C1094 1.516 . S
C1095 C1096 1.502 . S
C1095 C1097 1.561 . S
C1095 C1098 1.526 . S
C1096 H1080 0.959 . S
C1096 H1081 0.959 . S
C1096 H1082 0.961 . S
C1096 C1095 1.502 . S
C1097 H1083 0.960 . S
C1097 H1084 0.961 . S
C1097 H1085 0.959 . S
C1097 C1095 1.561 . S
C1098 C1095 1.526 . S
C1098 C1099 1.396 . S
C1098 C1103 1.390 . S
C1099 C1093 1.465 . S
C1099 C1098 1.396 . S
C1099 C1100 1.399 . S
C1100 H1086 0.929 . S
C1100 C1099 1.399 . S
C1100 C1101 1.385 . S
C1101 H1087 0.931 . S
C1101 C1100 1.385 . S
C1101 C1102 1.389 . S
C1102 C1101 1.389 . S
C1102 C1103 1.387 . S
C1103 H1088 0.930 . S
C1103 C1098 1.390 . S
C1103 C1102 1.387 . S
H1104 C1116 0.930 . S
H1105 C1118 0.930 . S
H1106 C1119 0.930 . S
H1107 C1123 0.959 . S
H1108 C1123 0.959 . S
H1109 C1123 0.961 . S
H1110 C1124 0.960 . S
H1111 C1124 0.961 . S
H1112 C1124 0.959 . S
H1113 C1127 0.929 . S
H1114 C1128 0.931 . S
H1115 C1130 0.930 . S
C1116 H1104 0.930 . S
C1116 C1117 1.399 . S
C1116 C1121 1.399 . S
C1117 C1116 1.399 . S
C1117 C1118 1.376 . S
C1118 H1105 0.930 . S
C1118 C1117 1.376 . S
C1118 C1119 1.388 . S
C1119 H1106 0.930 . S
C1119 C1118 1.388 . S
C1119 C1120 1.390 . S
C1120 C1119 1.390 . S
C1120 C1121 1.394 . S
C1120 C1126 1.465 . S
C1121 C1116 1.399 . S
C1121 C1120 1.394 . S
C1121 C1122 1.516 . S
C1122 C1121 1.516 . S
C1122 C1123 1.502 . S
C1122 C1124 1.561 . S
C1122 C1125 1.526 . S
C1123 H1107 0.959 . S
C1123 H1108 0.959 . S
C1123 H1109 0.961 . S
C1123 C1122 1.502 . S
C1124 H1110 0.960 . S
C1124 H1111 0.961 . S
C1124 H1112 0.959 . S
C1124 C1122 1.561 . S
C1125 C1122 1.526 . S
C1125 C1126 1.396 . S
C1125 C1130 1.390 . S
C1126 C1120 1.465 . S
C1126 C1125 1.396 . S
C1126 C1127 1.399 . S
C1127 H1113 0.929 . S
C1127 C1126 1.399 . S
C1127 C1128 1.385 . S
C1128 H1114 0.931 . S
C1128 C1127 1.385 . S
C1128 C1129 1.389 . S
C1129 C1128 1.389 . S
C1129 C1130 1.387 . S
C1130 H1115 0.930 . S
C1130 C1125 1.390 . S
C1130 C1129 1.387 . S
H1131 C1143 0.930 . S
H1132 C1145 0.930 . S
H1133 C1146 0.930 . S
H1134 C1150 0.959 . S
H1135 C1150 0.959 . S
H1136 C1150 0.961 . S
H1137 C1151 0.960 . S
H1138 C1151 0.961 . S
H1139 C1151 0.959 . S
H1140 C1154 0.929 . S
H1141 C1155 0.931 . S
H1142 C1157 0.930 . S
C1143 H1131 0.930 . S
C1143 C1144 1.399 . S
C1143 C1148 1.399 . S
C1144 C1143 1.399 . S
C1144 C1145 1.376 . S
C1145 H1132 0.930 . S
C1145 C1144 1.376 . S
C1145 C1146 1.388 . S
C1146 H1133 0.930 . S
C1146 C1145 1.388 . S
C1146 C1147 1.390 . S
C1147 C1146 1.390 . S
C1147 C1148 1.394 . S
C1147 C1153 1.465 . S
C1148 C1143 1.399 . S
C1148 C1147 1.394 . S
C1148 C1149 1.516 . S
C1149 C1148 1.516 . S
C1149 C1150 1.502 . S
C1149 C1151 1.561 . S
C1149 C1152 1.526 . S
C1150 H1134 0.959 . S
C1150 H1135 0.959 . S
C1150 H1136 0.961 . S
C1150 C1149 1.502 . S
C1151 H1137 0.960 . S
C1151 H1138 0.961 . S
C1151 H1139 0.959 . S
C1151 C1149 1.561 . S
C1152 C1149 1.526 . S
C1152 C1153 1.396 . S
C1152 C1157 1.390 . S
C1153 C1147 1.465 . S
C1153 C1152 1.396 . S
C1153 C1154 1.399 . S
C1154 H1140 0.929 . S
C1154 C1153 1.399 . S
C1154 C1155 1.385 . S
C1155 H1141 0.931 . S
C1155 C1154 1.385 . S
C1155 C1156 1.389 . S
C1156 C1155 1.389 . S
C1156 C1157 1.387 . S
C1157 H1142 0.930 . S
C1157 C1152 1.390 . S
C1157 C1156 1.387 . S
H1158 C1170 0.930 . S
H1159 C1172 0.930 . S
H1160 C1173 0.930 . S
H1161 C1177 0.959 . S
H1162 C1177 0.959 . S
H1163 C1177 0.961 . S
H1164 C1178 0.960 . S
H1165 C1178 0.961 . S
H1166 C1178 0.959 . S
H1167 C1181 0.929 . S
H1168 C1182 0.931 . S
H1169 C1184 0.930 . S
C1170 H1158 0.930 . S
C1170 C1171 1.399 . S
C1170 C1175 1.399 . S
C1171 C1170 1.399 . S
C1171 C1172 1.376 . S
C1172 H1159 0.930 . S
C1172 C1171 1.376 . S
C1172 C1173 1.388 . S
C1173 H1160 0.930 . S
C1173 C1172 1.388 . S
C1173 C1174 1.390 . S
C1174 C1173 1.390 . S
C1174 C1175 1.394 . S
C1174 C1180 1.465 . S
C1175 C1170 1.399 . S
C1175 C1174 1.394 . S
C1175 C1176 1.516 . S
C1176 C1175 1.516 . S
C1176 C1177 1.502 . S
C1176 C1178 1.561 . S
C1176 C1179 1.526 . S
C1177 H1161 0.959 . S
C1177 H1162 0.959 . S
C1177 H1163 0.961 . S
C1177 C1176 1.502 . S
C1178 H1164 0.960 . S
C1178 H1165 0.961 . S
C1178 H1166 0.959 . S
C1178 C1176 1.561 . S
C1179 C1176 1.526 . S
C1179 C1180 1.396 . S
C1179 C1184 1.390 . S
C1180 C1174 1.465 . S
C1180 C1179 1.396 . S
C1180 C1181 1.399 . S
C1181 H1167 0.929 . S
C1181 C1180 1.399 . S
C1181 C1182 1.385 . S
C1182 H1168 0.931 . S
C1182 C1181 1.385 . S
C1182 C1183 1.389 . S
C1183 C1182 1.389 . S
C1183 C1184 1.387 . S
C1184 H1169 0.930 . S
C1184 C1179 1.390 . S
C1184 C1183 1.387 . S
H1185 C1197 0.930 . S
H1186 C1199 0.930 . S
H1187 C1200 0.930 . S
H1188 C1204 0.959 . S
H1189 C1204 0.959 . S
H1190 C1204 0.961 . S
H1191 C1205 0.960 . S
H1192 C1205 0.961 . S
H1193 C1205 0.959 . S
H1194 C1208 0.929 . S
H1195 C1209 0.931 . S
H1196 C1211 0.930 . S
C1197 H1185 0.930 . S
C1197 C1198 1.399 . S
C1197 C1202 1.399 . S
C1198 C1197 1.399 . S
C1198 C1199 1.376 . S
C1199 H1186 0.930 . S
C1199 C1198 1.376 . S
C1199 C1200 1.388 . S
C1200 H1187 0.930 . S
C1200 C1199 1.388 . S
C1200 C1201 1.390 . S
C1201 C1200 1.390 . S
C1201 C1202 1.394 . S
C1201 C1207 1.465 . S
C1202 C1197 1.399 . S
C1202 C1201 1.394 . S
C1202 C1203 1.516 . S
C1203 C1202 1.516 . S
C1203 C1204 1.502 . S
C1203 C1205 1.561 . S
C1203 C1206 1.526 . S
C1204 H1188 0.959 . S
C1204 H1189 0.959 . S
C1204 H1190 0.961 . S
C1204 C1203 1.502 . S
C1205 H1191 0.960 . S
C1205 H1192 0.961 . S
C1205 H1193 0.959 . S
C1205 C1203 1.561 . S
C1206 C1203 1.526 . S
C1206 C1207 1.396 . S
C1206 C1211 1.390 . S
C1207 C1201 1.465 . S
C1207 C1206 1.396 . S
C1207 C1208 1.399 . S
C1208 H1194 0.929 . S
C1208 C1207 1.399 . S
C1208 C1209 1.385 . S
C1209 H1195 0.931 . S
C1209 C1208 1.385 . S
C1209 C1210 1.389 . S
C1210 C1209 1.389 . S
C1210 C1211 1.387 . S
C1211 H1196 0.930 . S
C1211 C1206 1.390 . S
C1211 C1210 1.387 . S
C589 C492 1.507 . S
C577 C31 1.500 . S
C616 C495 1.507 . S
C604 C61 1.504 . S
C643 C493 1.493 . S
C631 C121 1.499 . S
C670 C494 1.506 . S
C658 C211 1.448 . S
C697 C509 1.500 . S
C685 C1 1.464 . S
C724 C523 1.493 . S
C712 C91 1.503 . S
C739 C151 1.494 . S
C751 C549 1.500 . S
C778 C563 1.490 . S
C766 C181 1.473 . S
C805 C508 1.502 . S
C793 C80 1.469 . S
C820 C140 1.494 . S
C832 C522 1.507 . S
C859 C548 1.491 . S
C847 C200 1.470 . S
C886 C562 1.507 . S
C874 C20 1.456 . S
C901 C271 1.472 . S
C913 C507 1.498 . S
C940 C480 1.501 . S
C928 C331 1.456 . S
C955 C380 1.484 . S
C967 C506 1.503 . S
C982 C421 1.458 . S
C994 C481 1.507 . S
C1021 C536 1.503 . S
C1009 C241 1.489 . S
C1048 C550 1.498 . S
C1036 C320 1.465 . S
C1075 C520 1.490 . S
C1063 C361 1.499 . S
C1090 C440 1.497 . S
C1102 C534 1.501 . S
C1129 C537 1.502 . S
C1117 C301 1.499 . S
C1156 C551 1.495 . S
C1144 C391 1.464 . S
C1183 C521 1.493 . S
C1171 C451 1.490 . S
C1198 C260 1.492 . S
C1210 C535 1.500 . S
