# Generated by pormake.
# Topology nom, (4,4)-cn, num edge types: 1
# Building blocks:
#     Node 0, Type 0, BuildingBlock: NAHDIM_clean_linker_0, # of connection points: 4
#     Node 1, Type 0, BuildingBlock: NAHDIM_clean_linker_0, # of connection points: 4
#     Node 2, Type 0, BuildingBlock: NAHDIM_clean_linker_0, # of connection points: 4
#     Node 3, Type 0, BuildingBlock: NAHDIM_clean_linker_0, # of connection points: 4
#     Node 4, Type 0, BuildingBlock: NAHDIM_clean_linker_0, # of connection points: 4
#     Node 5, Type 0, BuildingBlock: NAHDIM_clean_linker_0, # of connection points: 4
#     Node 6, Type 1, BuildingBlock: GALJAG_clean_sbu_0, # of connection points: 4
#     Node 7, Type 1, BuildingBlock: GALJAG_clean_sbu_0, # of connection points: 4
#     Node 8, Type 1, BuildingBlock: GALJAG_clean_sbu_0, # of connection points: 4
#     Node 9, Type 1, BuildingBlock: GALJAG_clean_sbu_0, # of connection points: 4
#     Node 10, Type 1, BuildingBlock: GALJAG_clean_sbu_0, # of connection points: 4
#     Node 11, Type 1, BuildingBlock: GALJAG_clean_sbu_0, # of connection points: 4
#     Edge 12, Type (0, 1), BuildingBlock: UVAHIK_clean_linker_0, # of connection points: 2
#     Edge 13, Type (0, 1), BuildingBlock: UVAHIK_clean_linker_0, # of connection points: 2
#     Edge 14, Type (0, 1), BuildingBlock: UVAHIK_clean_linker_0, # of connection points: 2
#     Edge 15, Type (0, 1), BuildingBlock: UVAHIK_clean_linker_0, # of connection points: 2
#     Edge 16, Type (0, 1), BuildingBlock: UVAHIK_clean_linker_0, # of connection points: 2
#     Edge 17, Type (0, 1), BuildingBlock: UVAHIK_clean_linker_0, # of connection points: 2
#     Edge 18, Type (0, 1), BuildingBlock: UVAHIK_clean_linker_0, # of connection points: 2
#     Edge 19, Type (0, 1), BuildingBlock: UVAHIK_clean_linker_0, # of connection points: 2
#     Edge 20, Type (0, 1), BuildingBlock: UVAHIK_clean_linker_0, # of connection points: 2
#     Edge 21, Type (0, 1), BuildingBlock: UVAHIK_clean_linker_0, # of connection points: 2
#     Edge 22, Type (0, 1), BuildingBlock: UVAHIK_clean_linker_0, # of connection points: 2
#     Edge 23, Type (0, 1), BuildingBlock: UVAHIK_clean_linker_0, # of connection points: 2
#     Edge 24, Type (0, 1), BuildingBlock: UVAHIK_clean_linker_0, # of connection points: 2
#     Edge 25, Type (0, 1), BuildingBlock: UVAHIK_clean_linker_0, # of connection points: 2
#     Edge 26, Type (0, 1), BuildingBlock: UVAHIK_clean_linker_0, # of connection points: 2
#     Edge 27, Type (0, 1), BuildingBlock: UVAHIK_clean_linker_0, # of connection points: 2
#     Edge 28, Type (0, 1), BuildingBlock: UVAHIK_clean_linker_0, # of connection points: 2
#     Edge 29, Type (0, 1), BuildingBlock: UVAHIK_clean_linker_0, # of connection points: 2
#     Edge 30, Type (0, 1), BuildingBlock: UVAHIK_clean_linker_0, # of connection points: 2
#     Edge 31, Type (0, 1), BuildingBlock: UVAHIK_clean_linker_0, # of connection points: 2
#     Edge 32, Type (0, 1), BuildingBlock: UVAHIK_clean_linker_0, # of connection points: 2
#     Edge 33, Type (0, 1), BuildingBlock: UVAHIK_clean_linker_0, # of connection points: 2
#     Edge 34, Type (0, 1), BuildingBlock: UVAHIK_clean_linker_0, # of connection points: 2
#     Edge 35, Type (0, 1), BuildingBlock: UVAHIK_clean_linker_0, # of connection points: 2
# Relax obj value: 0.026
# Max RMSD: 0.127
# Mean RMSD: 0.097
data_MOF--net-nom--node1-GALJAG_clean_sbu_0--node2-NAHDIM_clean_linker_0--edge1-UVAHIK_clean_linker_0
_symmetry_space_group_name_H-M    P1
_symmetry_Int_Tables_number       1
_symmetry_cell_setting            triclinic
loop_
_symmetry_equiv_pos_as_xyz
'x, y, z'
_cell_length_a     69.583248
_cell_length_b     69.437016
_cell_length_c     87.218988
_cell_angle_alpha  90.129047
_cell_angle_beta   90.123574
_cell_angle_gamma 120.05758
loop_
_atom_site_label
_atom_site_type_symbol
_atom_site_fract_x
_atom_site_fract_y
_atom_site_fract_z
_atom_type_partial_charge
C0 C 0.14116 0.66903 0.26803 0.0
C1 C 0.15172 0.65581 0.27423 0.0
C2 C 0.1266 0.63502 0.29456 0.0
C3 C 0.12136 0.6128 0.29472 0.0
C4 C 0.10017 0.59593 0.2992 0.0
C5 C 0.08389 0.60155 0.3033 0.0
C6 C 0.08938 0.62416 0.30331 0.0
C7 C 0.11089 0.64068 0.29925 0.0
C8 C 0.09508 0.5721 0.29925 0.0
C9 C 0.07239 0.63089 0.30715 0.0
C10 C 0.01189 0.54051 0.21996 0.0
C11 C 0.98856 0.5345 0.22525 0.0
C12 C 0.99149 0.52976 0.25265 0.0
C13 C 0.9938 0.54979 0.25824 0.0
C14 C 0.00388 0.55838 0.27249 0.0
C15 C 0.01179 0.5467 0.2813 0.0
C16 C 0.00858 0.52601 0.27601 0.0
C17 C 0.99817 0.51766 0.26179 0.0
C18 C 0.00649 0.5802 0.278 0.0
C19 C 0.01678 0.51312 0.28515 0.0
C20 C 0.91546 0.49922 0.35854 0.0
C21 C 0.9247 0.52215 0.35609 0.0
C22 C 0.94778 0.53616 0.35512 0.0
C23 C 0.96189 0.52708 0.35682 0.0
C24 C 0.95266 0.50417 0.36005 0.0
C25 C 0.9295 0.49055 0.36098 0.0
C26 C 0.95712 0.56063 0.35205 0.0
C27 C 0.96725 0.49404 0.36212 0.0
C28 C 0.11924 0.64955 0.41141 0.0
C29 C 0.10274 0.62472 0.41333 0.0
C30 C 0.06571 0.60671 0.40198 0.0
C31 C 0.05147 0.61287 0.39512 0.0
C32 C 0.03649 0.59966 0.38362 0.0
C33 C 0.03545 0.57952 0.37922 0.0
C34 C 0.04862 0.57236 0.38699 0.0
C35 C 0.06373 0.5861 0.39827 0.0
C36 C 0.02243 0.60764 0.37575 0.0
C37 C 0.04733 0.5506 0.38297 0.0
C38 C 0.06069 0.58376 0.30637 0.0
C39 C 0.04737 0.57249 0.29374 0.0
C40 C 0.02484 0.55697 0.29545 0.0
C41 C 0.01512 0.55251 0.31017 0.0
C42 C 0.99236 0.53754 0.31224 0.0
C43 C 0.98286 0.53371 0.32674 0.0
C44 C 0.99579 0.54469 0.33975 0.0
C45 C 0.98618 0.54138 0.35449 0.0
C46 C 0.99951 0.55252 0.36717 0.0
C47 C 0.0223 0.56719 0.36552 0.0
C48 C 0.03217 0.57086 0.35085 0.0
C49 C 0.055 0.58577 0.34876 0.0
C50 C 0.06446 0.5897 0.33425 0.0
C51 C 0.05145 0.57909 0.32125 0.0
C52 C 0.02851 0.5636 0.32312 0.0
C53 C 0.01885 0.55958 0.33794 0.0
C54 C 0.87066 0.46777 0.33688 0.0
C55 C 0.87765 0.48579 0.34921 0.0
O56 O 0.14671 0.6511 0.28963 0.0
O57 O 0.08134 0.62113 0.41193 0.0
O58 O 0.89317 0.48508 0.35887 0.0
O59 O 0.98311 0.52179 0.23848 0.0
H60 H 0.14496 0.63993 0.26765 0.0
H61 H 0.12278 0.65887 0.26865 0.0
H62 H 0.1468 0.68453 0.27481 0.0
H63 H 0.14567 0.67348 0.25581 0.0
H64 H 0.13383 0.60871 0.29119 0.0
H65 H 0.11532 0.65803 0.29916 0.0
H66 H 0.08385 0.56301 0.2895 0.0
H67 H 0.11033 0.57086 0.29815 0.0
H68 H 0.08638 0.56371 0.30998 0.0
H69 H 0.07845 0.64867 0.30452 0.0
H70 H 0.05676 0.62048 0.30066 0.0
H71 H 0.06843 0.62825 0.31954 0.0
H72 H 0.98846 0.55021 0.22744 0.0
H73 H 0.01622 0.55035 0.20921 0.0
H74 H 0.02432 0.55074 0.22886 0.0
H75 H 0.01289 0.52522 0.21793 0.0
H76 H 0.98773 0.55877 0.25157 0.0
H77 H 0.996 0.50204 0.25746 0.0
H78 H 0.02437 0.59307 0.27812 0.0
H79 H 0.99749 0.58609 0.27059 0.0
H80 H 0.00026 0.57848 0.28992 0.0
H81 H 0.01287 0.49721 0.27949 0.0
H82 H 0.03505 0.52336 0.28675 0.0
H83 H 0.00913 0.50944 0.29671 0.0
H84 H 0.88485 0.50194 0.34307 0.0
H85 H 0.91397 0.5292 0.35504 0.0
H86 H 0.92222 0.4729 0.36318 0.0
H87 H 0.96631 0.56513 0.34104 0.0
H88 H 0.94398 0.56524 0.35145 0.0
H89 H 0.9691 0.57061 0.36123 0.0
H90 H 0.95756 0.47609 0.36507 0.0
H91 H 0.97658 0.49592 0.35139 0.0
H92 H 0.97962 0.503 0.37135 0.0
H93 H 0.10639 0.61605 0.40399 0.0
H94 H 0.13656 0.65286 0.41247 0.0
H95 H 0.11719 0.65504 0.39987 0.0
H96 H 0.11642 0.6595 0.42018 0.0
H97 H 0.05285 0.62862 0.39831 0.0
H98 H 0.07412 0.58087 0.40407 0.0
H99 H 0.0259 0.60935 0.36325 0.0
H100 H 0.0046 0.59516 0.37726 0.0
H101 H 0.0255 0.62389 0.38034 0.0
H102 H 0.05637 0.54602 0.39138 0.0
H103 H 0.02973 0.53704 0.38242 0.0
H104 H 0.05469 0.55194 0.37146 0.0
H105 H 0.05451 0.57628 0.28234 0.0
H106 H 0.98159 0.52873 0.30263 0.0
H107 H 0.96522 0.5221 0.32761 0.0
H108 H 0.992 0.55006 0.37841 0.0
H109 H 0.06584 0.5947 0.35829 0.0
H110 H 0.0821 0.60134 0.33332 0.0
H111 H 0.85804 0.4679 0.32912 0.0
H112 H 0.88531 0.47099 0.32991 0.0
H113 H 0.86366 0.45103 0.34214 0.0
C114 C 0.36865 0.90267 0.55212 0.0
C115 C 0.3846 0.89481 0.54686 0.0
C116 C 0.40613 0.92069 0.52707 0.0
C117 C 0.42829 0.9259 0.52663 0.0
C118 C 0.44507 0.94721 0.52226 0.0
C119 C 0.43944 0.96361 0.51847 0.0
C120 C 0.41692 0.9582 0.51881 0.0
C121 C 0.40046 0.93661 0.52286 0.0
C122 C 0.46883 0.95227 0.52184 0.0
C123 C 0.41026 0.9753 0.51517 0.0
C124 C 0.53372 0.10649 0.59574 0.0
C125 C 0.52337 0.09691 0.5806 0.0
C126 C 0.51467 0.06515 0.56403 0.0
C127 C 0.49842 0.06663 0.55533 0.0
C128 C 0.48836 0.05267 0.54264 0.0
C129 C 0.49527 0.03746 0.53819 0.0
C130 C 0.51167 0.03597 0.54688 0.0
C131 C 0.52094 0.04967 0.55982 0.0
C132 C 0.47028 0.05419 0.53406 0.0
C133 C 0.51945 0.01996 0.5425 0.0
C134 C 0.54885 0.12631 0.45695 0.0
C135 C 0.52736 0.1195 0.4622 0.0
C136 C 0.51181 0.09683 0.46409 0.0
C137 C 0.51807 0.08072 0.46083 0.0
C138 C 0.53948 0.08756 0.45497 0.0
C139 C 0.55452 0.11032 0.45291 0.0
C140 C 0.48883 0.09014 0.46975 0.0
C141 C 0.54666 0.07087 0.45126 0.0
C142 C 0.38833 0.92461 0.40681 0.0
C143 C 0.41358 0.93953 0.40734 0.0
C144 C 0.43356 0.97684 0.4183 0.0
C145 C 0.42902 0.99275 0.42436 0.0
C146 C 0.44261 0.00762 0.43579 0.0
C147 C 0.46153 0.00686 0.44092 0.0
C148 C 0.4671 0.99185 0.434 0.0
C149 C 0.45293 0.97684 0.42283 0.0
C150 C 0.43631 0.02359 0.44278 0.0
C151 C 0.48763 0.99121 0.43875 0.0
C152 C 0.45715 0.98663 0.51479 0.0
C153 C 0.46865 0.00083 0.52703 0.0
C154 C 0.48505 0.02294 0.52456 0.0
C155 C 0.49036 0.03119 0.50942 0.0
C156 C 0.50714 0.05318 0.50647 0.0
C157 C 0.51137 0.06152 0.49162 0.0
C158 C 0.49903 0.04818 0.47911 0.0
C159 C 0.50244 0.05683 0.46406 0.0
C160 C 0.49026 0.04294 0.45184 0.0
C161 C 0.47449 0.02058 0.45426 0.0
C162 C 0.47056 0.01174 0.46928 0.0
C163 C 0.45452 0.98942 0.47217 0.0
C164 C 0.45044 0.98102 0.48702 0.0
C165 C 0.46192 0.9947 0.49959 0.0
C166 C 0.47845 0.01713 0.49692 0.0
C167 C 0.48279 0.02565 0.48175 0.0
C168 C 0.59173 0.17382 0.47285 0.0
C169 C 0.56834 0.16457 0.46628 0.0
O170 O 0.39014 0.90026 0.5316 0.0
O171 O 0.41878 0.96155 0.40831 0.0
O172 O 0.56441 0.14814 0.4556 0.0
O173 O 0.52451 0.07819 0.57654 0.0
H174 H 0.39993 0.90322 0.55406 0.0
H175 H 0.37697 0.92109 0.55161 0.0
H176 H 0.35363 0.89546 0.54468 0.0
H177 H 0.36348 0.89764 0.56418 0.0
H178 H 0.43236 0.91328 0.5298 0.0
H179 H 0.38317 0.9322 0.52309 0.0
H180 H 0.47838 0.96419 0.53117 0.0
H181 H 0.47014 0.93708 0.52333 0.0
H182 H 0.47663 0.96024 0.51079 0.0
H183 H 0.39245 0.96913 0.51761 0.0
H184 H 0.42049 0.99072 0.52193 0.0
H185 H 0.41328 0.97976 0.50285 0.0
H186 H 0.52833 0.10915 0.57105 0.0
H187 H 0.50699 0.10248 0.609 0.0
H188 H 0.54414 0.09884 0.59893 0.0
H189 H 0.54835 0.1233 0.59304 0.0
H190 H 0.49327 0.07845 0.55847 0.0
H191 H 0.53341 0.04856 0.56662 0.0
H192 H 0.47682 0.06253 0.5229 0.0
H193 H 0.45603 0.03732 0.53167 0.0
H194 H 0.46416 0.06384 0.54053 0.0
H195 H 0.53422 0.0228 0.54924 0.0
H196 H 0.50587 0.00266 0.54452 0.0
H197 H 0.5236 0.02152 0.53011 0.0
H198 H 0.55667 0.15753 0.47611 0.0
H199 H 0.5227 0.13189 0.46477 0.0
H200 H 0.57107 0.1158 0.44861 0.0
H201 H 0.48694 0.08401 0.4817 0.0
H202 H 0.48557 0.10426 0.46959 0.0
H203 H 0.47608 0.07638 0.46262 0.0
H204 H 0.56429 0.07897 0.44762 0.0
H205 H 0.54437 0.06035 0.46143 0.0
H206 H 0.53608 0.05971 0.44189 0.0
H207 H 0.41927 0.9347 0.41785 0.0
H208 H 0.38374 0.90683 0.40603 0.0
H209 H 0.38095 0.92695 0.41744 0.0
H210 H 0.38116 0.92877 0.39682 0.0
H211 H 0.41421 0.99282 0.42057 0.0
H212 H 0.45691 0.96504 0.41772 0.0
H213 H 0.43422 0.02096 0.45536 0.0
H214 H 0.44984 0.04096 0.44088 0.0
H215 H 0.42069 0.02161 0.43784 0.0
H216 H 0.49129 0.9809 0.43084 0.0
H217 H 0.5022 0.00833 0.43912 0.0
H218 H 0.48529 0.98416 0.45045 0.0
H219 H 0.46446 0.9947 0.53869 0.0
H220 H 0.51704 0.06427 0.51565 0.0
H221 H 0.52433 0.07864 0.49008 0.0
H222 H 0.49286 0.04969 0.44034 0.0
H223 H 0.44483 0.97817 0.46301 0.0
H224 H 0.43793 0.96371 0.48853 0.0
H225 H 0.60436 0.18101 0.46362 0.0
H226 H 0.59524 0.18691 0.48155 0.0
H227 H 0.59316 0.16026 0.4785 0.0
C228 C 0.48855 0.36882 0.71414 0.0
C229 C 0.51295 0.38528 0.71047 0.0
C230 C 0.51069 0.40846 0.69092 0.0
C231 C 0.52754 0.43072 0.69106 0.0
C232 C 0.52307 0.44762 0.68692 0.0
C233 C 0.50115 0.44196 0.68275 0.0
C234 C 0.48416 0.41931 0.6824 0.0
C235 C 0.48929 0.40278 0.6862 0.0
C236 C 0.54164 0.47151 0.68722 0.0
C237 C 0.46048 0.41255 0.67838 0.0
C238 C 0.45027 0.51696 0.7695 0.0
C239 C 0.45006 0.50464 0.75549 0.0
C240 C 0.47231 0.509 0.73277 0.0
C241 C 0.45555 0.49015 0.72515 0.0
C242 C 0.45981 0.483 0.71118 0.0
C243 C 0.48127 0.49485 0.70471 0.0
C244 C 0.49807 0.51405 0.71217 0.0
C245 C 0.49331 0.52095 0.7261 0.0
C246 C 0.44146 0.46251 0.70346 0.0
C247 C 0.5211 0.52702 0.70555 0.0
C248 C 0.45007 0.55618 0.62502 0.0
C249 C 0.43434 0.53451 0.6295 0.0
C250 C 0.44032 0.51806 0.63103 0.0
C251 C 0.46255 0.52356 0.62828 0.0
C252 C 0.47821 0.54521 0.62326 0.0
C253 C 0.47163 0.56117 0.6215 0.0
C254 C 0.42295 0.49488 0.63576 0.0
C255 C 0.50198 0.55163 0.62008 0.0
C256 C 0.48513 0.39299 0.57344 0.0
C257 C 0.4956 0.41827 0.5725 0.0
C258 C 0.47886 0.43854 0.58372 0.0
C259 C 0.45872 0.43377 0.59035 0.0
C260 C 0.45794 0.44744 0.60189 0.0
C261 C 0.4778 0.46666 0.60657 0.0
C262 C 0.49798 0.47249 0.59903 0.0
C263 C 0.49834 0.45825 0.58773 0.0
C264 C 0.43608 0.44088 0.60953 0.0
C265 C 0.51926 0.49332 0.60332 0.0
C266 C 0.4957 0.45973 0.67973 0.0
C267 C 0.4928 0.47035 0.69239 0.0
C268 C 0.48631 0.48626 0.69061 0.0
C269 C 0.48294 0.49217 0.67576 0.0
C270 C 0.47672 0.50835 0.67356 0.0
C271 C 0.47279 0.51355 0.65891 0.0
C272 C 0.4745 0.50244 0.64592 0.0
C273 C 0.46961 0.5069 0.63102 0.0
C274 C 0.47121 0.49532 0.6184 0.0
C275 C 0.47771 0.4794 0.62022 0.0
C276 C 0.48298 0.47494 0.63499 0.0
C277 C 0.4898 0.45917 0.6372 0.0
C278 C 0.49453 0.45458 0.65179 0.0
C279 C 0.49208 0.46514 0.66478 0.0
C280 C 0.48557 0.48135 0.66281 0.0
C281 C 0.48114 0.48634 0.64789 0.0
C282 C 0.44291 0.59954 0.63946 0.0
C283 C 0.43083 0.57557 0.63353 0.0
O284 O 0.51504 0.39239 0.6954 0.0
O285 O 0.47897 0.42365 0.57368 0.0
O286 O 0.445 0.57262 0.62391 0.0
O287 O 0.46894 0.516 0.74655 0.0
H288 H 0.51897 0.3999 0.71832 0.0
H289 H 0.47864 0.3773 0.71361 0.0
H290 H 0.48158 0.35475 0.70583 0.0
H291 H 0.48693 0.36213 0.72592 0.0
H292 H 0.54411 0.43481 0.69458 0.0
H293 H 0.4765 0.38539 0.68587 0.0
H294 H 0.53899 0.48039 0.69685 0.0
H295 H 0.55816 0.47291 0.68871 0.0
H296 H 0.54167 0.48001 0.67643 0.0
H297 H 0.44884 0.39463 0.6806 0.0
H298 H 0.455 0.42256 0.68507 0.0
H299 H 0.45939 0.41577 0.66604 0.0
H300 H 0.44527 0.4869 0.7574 0.0
H301 H 0.4505 0.50661 0.77934 0.0
H302 H 0.46797 0.53068 0.77128 0.0
H303 H 0.42408 0.52311 0.76581 0.0
H304 H 0.43913 0.48084 0.73007 0.0
H305 H 0.5061 0.53553 0.732 0.0
H306 H 0.43924 0.46644 0.69148 0.0
H307 H 0.44607 0.44936 0.70299 0.0
H308 H 0.42537 0.45582 0.70955 0.0
H309 H 0.53217 0.54196 0.71252 0.0
H310 H 0.52857 0.51617 0.70484 0.0
H311 H 0.5202 0.53235 0.6937 0.0
H312 H 0.42658 0.56461 0.64377 0.0
H313 H 0.41739 0.53041 0.63169 0.0
H314 H 0.48352 0.57787 0.61782 0.0
H315 H 0.42652 0.49164 0.64758 0.0
H316 H 0.40594 0.49253 0.63551 0.0
H317 H 0.42344 0.48236 0.62808 0.0
H318 H 0.51241 0.5695 0.61711 0.0
H319 H 0.50928 0.54807 0.63027 0.0
H320 H 0.50251 0.54147 0.61041 0.0
H321 H 0.50738 0.42534 0.58235 0.0
H322 H 0.49815 0.38822 0.57266 0.0
H323 H 0.47644 0.38699 0.58457 0.0
H324 H 0.47288 0.38468 0.56403 0.0
H325 H 0.44374 0.4187 0.58693 0.0
H326 H 0.51382 0.4624 0.58214 0.0
H327 H 0.43729 0.43838 0.62199 0.0
H328 H 0.43219 0.45448 0.60828 0.0
H329 H 0.42216 0.42537 0.6046 0.0
H330 H 0.53282 0.49705 0.59506 0.0
H331 H 0.51652 0.50776 0.60384 0.0
H332 H 0.52468 0.49128 0.61488 0.0
H333 H 0.495 0.46567 0.70385 0.0
H334 H 0.47482 0.51718 0.68315 0.0
H335 H 0.4681 0.52619 0.65792 0.0
H336 H 0.46713 0.49857 0.60705 0.0
H337 H 0.49155 0.45014 0.62769 0.0
H338 H 0.49981 0.44238 0.65278 0.0
H339 H 0.43214 0.60232 0.64748 0.0
H340 H 0.4582 0.60288 0.64573 0.0
H341 H 0.44768 0.61146 0.62979 0.0
C342 C 0.13462 0.48154 0.88466 0.0
C343 C 0.14318 0.5055 0.87937 0.0
C344 C 0.11839 0.50246 0.85908 0.0
C345 C 0.11423 0.52016 0.85894 0.0
C346 C 0.09345 0.51683 0.8543 0.0
C347 C 0.07651 0.49522 0.84996 0.0
C348 C 0.08088 0.47736 0.84997 0.0
C349 C 0.102 0.48134 0.85427 0.0
C350 C 0.08947 0.53628 0.85428 0.0
C351 C 0.06316 0.45398 0.84578 0.0
C352 C 0.9484 0.44255 0.93372 0.0
C353 C 0.9605 0.44326 0.91952 0.0
C354 C 0.97971 0.46724 0.89781 0.0
C355 C 0.98069 0.45051 0.88932 0.0
C356 C 0.99256 0.45547 0.87555 0.0
C357 C 0.00374 0.47763 0.87015 0.0
C358 C 0.00237 0.49442 0.87842 0.0
C359 C 0.99023 0.48896 0.89214 0.0
C360 C 0.99358 0.43709 0.86697 0.0
C361 C 0.01406 0.51817 0.8729 0.0
C362 C 0.91634 0.45482 0.7891 0.0
C363 C 0.92047 0.43817 0.79439 0.0
C364 C 0.94231 0.44237 0.79604 0.0
C365 C 0.96031 0.46385 0.79274 0.0
C366 C 0.95608 0.48037 0.78686 0.0
C367 C 0.93407 0.47547 0.78487 0.0
C368 C 0.94612 0.42396 0.80156 0.0
C369 C 0.97479 0.50338 0.78307 0.0
C370 C 0.11233 0.47771 0.7421 0.0
C371 C 0.09832 0.48899 0.74095 0.0
C372 C 0.06089 0.47367 0.75099 0.0
C373 C 0.04444 0.45386 0.75743 0.0
C374 C 0.02986 0.45396 0.76846 0.0
C375 C 0.03153 0.4744 0.77281 0.0
C376 C 0.04699 0.4943 0.7654 0.0
C377 C 0.06165 0.49376 0.75461 0.0
C378 C 0.01334 0.43238 0.77597 0.0
C379 C 0.0486 0.51622 0.76934 0.0
C380 C 0.05386 0.49103 0.84639 0.0
C381 C 0.04007 0.48857 0.85873 0.0
C382 C 0.01808 0.48323 0.85642 0.0
C383 C 0.00963 0.48086 0.84136 0.0
C384 C 0.9878 0.47617 0.83863 0.0
C385 C 0.97937 0.473 0.82377 0.0
C386 C 0.99227 0.47379 0.81111 0.0
C387 C 0.98348 0.46937 0.79602 0.0
C388 C 0.9967 0.47 0.78376 0.0
C389 C 0.01866 0.47518 0.78611 0.0
C390 C 0.02786 0.48002 0.80106 0.0
C391 C 0.05 0.48558 0.8038 0.0
C392 C 0.05875 0.48982 0.81857 0.0
C393 C 0.04554 0.48806 0.83124 0.0
C394 C 0.0233 0.48286 0.82873 0.0
C395 C 0.01451 0.47903 0.81361 0.0
C396 C 0.86873 0.45492 0.80275 0.0
C397 C 0.87888 0.44046 0.7988 0.0
O398 O 0.13822 0.50565 0.864 0.0
O399 O 0.07604 0.47292 0.74162 0.0
O400 O 0.89544 0.45148 0.78802 0.0
O401 O 0.96905 0.46309 0.9115 0.0
H402 H 0.13494 0.51279 0.88633 0.0
H403 H 0.11626 0.47173 0.88358 0.0
H404 H 0.14192 0.47349 0.87759 0.0
H405 H 0.13895 0.48124 0.89689 0.0
H406 H 0.12724 0.53649 0.86258 0.0
H407 H 0.10561 0.46786 0.85434 0.0
H408 H 0.07768 0.53412 0.86357 0.0
H409 H 0.10505 0.55238 0.85609 0.0
H410 H 0.08183 0.53692 0.84324 0.0
H411 H 0.06847 0.44162 0.84814 0.0
H412 H 0.04771 0.4492 0.85228 0.0
H413 H 0.05914 0.45317 0.8334 0.0
H414 H 0.97279 0.43751 0.92093 0.0
H415 H 0.95848 0.44126 0.94336 0.0
H416 H 0.95311 0.46026 0.93644 0.0
H417 H 0.91569 0.41766 0.92907 0.0
H418 H 0.97242 0.43354 0.89341 0.0
H419 H 0.98928 0.50174 0.89869 0.0
H420 H 0.9878 0.43624 0.85498 0.0
H421 H 0.01103 0.44074 0.86651 0.0
H422 H 0.98328 0.42057 0.87239 0.0
H423 H 0.01045 0.52909 0.8802 0.0
H424 H 0.03227 0.52479 0.87288 0.0
H425 H 0.00897 0.51881 0.86092 0.0
H426 H 0.88605 0.43819 0.80963 0.0
H427 H 0.90664 0.42193 0.7972 0.0
H428 H 0.9306 0.48805 0.78058 0.0
H429 H 0.95176 0.42712 0.81369 0.0
H430 H 0.93077 0.40742 0.80088 0.0
H431 H 0.9593 0.42347 0.79471 0.0
H432 H 0.96868 0.51479 0.77967 0.0
H433 H 0.98604 0.51063 0.79311 0.0
H434 H 0.98471 0.50233 0.77349 0.0
H435 H 0.10309 0.50043 0.75102 0.0
H436 H 0.13029 0.4903 0.74146 0.0
H437 H 0.10918 0.46893 0.75324 0.0
H438 H 0.10811 0.46533 0.73273 0.0
H439 H 0.04377 0.43841 0.75432 0.0
H440 H 0.07386 0.50903 0.74917 0.0
H441 H 0.01665 0.4334 0.7885 0.0
H442 H 0.99628 0.42953 0.77438 0.0
H443 H 0.01404 0.41788 0.77122 0.0
H444 H 0.05929 0.52956 0.76116 0.0
H445 H 0.03181 0.51442 0.76937 0.0
H446 H 0.05569 0.52143 0.78103 0.0
H447 H 0.04631 0.49003 0.87034 0.0
H448 H 0.977 0.47492 0.84796 0.0
H449 H 0.96248 0.46954 0.82238 0.0
H450 H 0.98977 0.46624 0.77226 0.0
H451 H 0.06086 0.48669 0.79456 0.0
H452 H 0.07591 0.4941 0.81997 0.0
H453 H 0.86126 0.45791 0.79239 0.0
H454 H 0.85569 0.44674 0.81164 0.0
H455 H 0.8818 0.47123 0.80734 0.0
C456 C 0.56067 0.91272 0.9286 0.0
C457 C 0.53743 0.90334 0.93545 0.0
C458 C 0.5415 0.92854 0.9558 0.0
C459 C 0.5233 0.93189 0.95587 0.0
C460 C 0.5257 0.95225 0.96079 0.0
C461 C 0.54688 0.96961 0.96547 0.0
C462 C 0.56528 0.96613 0.96541 0.0
C463 C 0.56222 0.9454 0.96083 0.0
C464 C 0.50571 0.95531 0.96082 0.0
C465 C 0.58825 0.9844 0.96987 0.0
C466 C 0.60055 0.10525 0.88729 0.0
C467 C 0.60003 0.09746 0.90326 0.0
C468 C 0.57394 0.07122 0.92186 0.0
C469 C 0.59052 0.07153 0.93129 0.0
C470 C 0.58495 0.05754 0.94406 0.0
C471 C 0.56234 0.04314 0.94766 0.0
C472 C 0.54559 0.04305 0.93839 0.0
C473 C 0.55164 0.05711 0.92557 0.0
C474 C 0.60332 0.05796 0.95359 0.0
C475 C 0.52134 0.02797 0.94197 0.0
C476 C 0.58103 0.12507 0.03001 0.0
C477 C 0.59771 0.1212 0.0245 0.0
C478 C 0.59373 0.09942 0.02264 0.0
C479 C 0.57241 0.08121 0.02596 0.0
C480 C 0.55589 0.08515 0.03216 0.0
C481 C 0.56059 0.10712 0.03434 0.0
C482 C 0.61217 0.09593 0.01679 0.0
C483 C 0.53308 0.06618 0.036 0.0
C484 C 0.57084 0.93622 0.07984 0.0
C485 C 0.55735 0.94808 0.07909 0.0
C486 C 0.56904 0.98359 0.06642 0.0
C487 C 0.58791 0.00089 0.05962 0.0
C488 C 0.5861 0.01409 0.04821 0.0
C489 C 0.56484 0.01021 0.04386 0.0
C490 C 0.54571 0.99353 0.05136 0.0
C491 C 0.54799 0.98022 0.0625 0.0
C492 C 0.6069 0.03183 0.04056 0.0
C493 C 0.52288 0.98955 0.04741 0.0
C494 C 0.54999 0.99172 0.9697 0.0
C495 C 0.55236 0.00618 0.9578 0.0
C496 C 0.55647 0.02768 0.96081 0.0
C497 C 0.5576 0.03486 0.97612 0.0
C498 C 0.56081 0.05606 0.97954 0.0
C499 C 0.56321 0.06348 0.99462 0.0
C500 C 0.56299 0.05017 0.00685 0.0
C501 C 0.56702 0.05818 0.02214 0.0
C502 C 0.56683 0.04455 0.03398 0.0
C503 C 0.56272 0.02301 0.031 0.0
C504 C 0.55843 0.01463 0.01581 0.0
C505 C 0.5541 0.993 0.0124 0.0
C506 C 0.55061 0.98518 0.99737 0.0
C507 C 0.55201 0.99893 0.98511 0.0
C508 C 0.55592 0.02063 0.98831 0.0
C509 C 0.55889 0.0284 0.00369 0.0
C510 C 0.58146 0.17378 0.01712 0.0
C511 C 0.59517 0.16261 0.02042 0.0
O512 O 0.53922 0.90906 0.95082 0.0
O513 O 0.57181 0.97056 0.07671 0.0
O514 O 0.58406 0.1459 0.0311 0.0
O515 O 0.57884 0.08395 0.90902 0.0
H516 H 0.52858 0.91056 0.92912 0.0
H517 H 0.56993 0.93115 0.92956 0.0
H518 H 0.5701 0.90609 0.93479 0.0
H519 H 0.55957 0.90826 0.91626 0.0
H520 H 0.50727 0.91854 0.95206 0.0
H521 H 0.57611 0.94245 0.96074 0.0
H522 H 0.50776 0.96758 0.95191 0.0
H523 H 0.49005 0.93949 0.95849 0.0
H524 H 0.50431 0.96203 0.97207 0.0
H525 H 0.60113 0.9798 0.96748 0.0
H526 H 0.59254 0.99991 0.96357 0.0
H527 H 0.58868 0.98801 0.9823 0.0
H528 H 0.61117 0.11067 0.91153 0.0
H529 H 0.61507 0.09004 0.87478 0.0
H530 H 0.58339 0.10231 0.88475 0.0
H531 H 0.60836 0.12385 0.88828 0.0
H532 H 0.60788 0.08247 0.9287 0.0
H533 H 0.53894 0.05699 0.91828 0.0
H534 H 0.60305 0.06409 0.96531 0.0
H535 H 0.6007 0.04088 0.95469 0.0
H536 H 0.62 0.06885 0.94859 0.0
H537 H 0.51036 0.03105 0.93435 0.0
H538 H 0.51707 0.01035 0.94062 0.0
H539 H 0.51804 0.03035 0.95407 0.0
H540 H 0.5966 0.15535 0.00935 0.0
H541 H 0.61381 0.13518 0.02161 0.0
H542 H 0.54797 0.11037 0.03882 0.0
H543 H 0.6091 0.0909 0.00454 0.0
H544 H 0.62865 0.11132 0.01772 0.0
H545 H 0.61269 0.08243 0.02324 0.0
H546 H 0.52172 0.07209 0.03991 0.0
H547 H 0.52566 0.05529 0.02581 0.0
H548 H 0.53442 0.05591 0.04522 0.0
H549 H 0.54569 0.94074 0.0692 0.0
H550 H 0.55969 0.91801 0.08132 0.0
H551 H 0.58023 0.93896 0.06902 0.0
H552 H 0.58284 0.94274 0.08955 0.0
H553 H 0.60408 0.00353 0.06293 0.0
H554 H 0.53338 0.96729 0.06816 0.0
H555 H 0.60557 0.02925 0.02794 0.0
H556 H 0.60881 0.04843 0.04287 0.0
H557 H 0.62205 0.0319 0.04468 0.0
H558 H 0.51002 0.97775 0.05545 0.0
H559 H 0.52284 0.00552 0.0476 0.0
H560 H 0.51835 0.98263 0.03563 0.0
H561 H 0.55178 0.00088 0.946 0.0
H562 H 0.56159 0.06717 0.97056 0.0
H563 H 0.56566 0.07997 0.99654 0.0
H564 H 0.57043 0.05097 0.04562 0.0
H565 H 0.5534 0.98184 0.02131 0.0
H566 H 0.54729 0.96838 0.99544 0.0
H567 H 0.57912 0.18123 0.02774 0.0
H568 H 0.58982 0.18703 0.00838 0.0
H569 H 0.56486 0.16127 0.0126 0.0
C570 C 0.64266 0.52819 0.09006 0.0
C571 C 0.63885 0.51287 0.10373 0.0
C572 C 0.62908 0.53061 0.12381 0.0
C573 C 0.60673 0.51486 0.12641 0.0
C574 C 0.59205 0.52141 0.13217 0.0
C575 C 0.59995 0.54417 0.13531 0.0
C576 C 0.62272 0.55993 0.13332 0.0
C577 C 0.6371 0.55284 0.12779 0.0
C578 C 0.56799 0.5041 0.13453 0.0
C579 C 0.63168 0.58434 0.13652 0.0
C580 C 0.52551 0.60161 0.05345 0.0
C581 C 0.53692 0.60187 0.06794 0.0
C582 C 0.53362 0.57788 0.08937 0.0
C583 C 0.55125 0.59481 0.09784 0.0
C584 C 0.55873 0.58995 0.11144 0.0
C585 C 0.54825 0.56776 0.11678 0.0
C586 C 0.53005 0.55081 0.10858 0.0
C587 C 0.52296 0.55613 0.09496 0.0
C588 C 0.57823 0.60845 0.1199 0.0
C589 C 0.51844 0.52703 0.11403 0.0
C590 C 0.49197 0.59627 0.20024 0.0
C591 C 0.51302 0.61191 0.1948 0.0
C592 C 0.52939 0.60603 0.19248 0.0
C593 C 0.52427 0.58386 0.19526 0.0
C594 C 0.50321 0.56827 0.2012 0.0
C595 C 0.48743 0.57484 0.20387 0.0
C596 C 0.55199 0.62344 0.18685 0.0
C597 C 0.49716 0.54454 0.2044 0.0
C598 C 0.65533 0.55624 0.24402 0.0
C599 C 0.63004 0.54537 0.24431 0.0
C600 C 0.6095 0.56305 0.23525 0.0
C601 C 0.61406 0.58387 0.22998 0.0
C602 C 0.60033 0.58582 0.21904 0.0
C603 C 0.58124 0.56641 0.21363 0.0
C604 C 0.57561 0.54543 0.21987 0.0
C605 C 0.58994 0.54393 0.23053 0.0
C606 C 0.6067 0.6085 0.2128 0.0
C607 C 0.55487 0.52452 0.21487 0.0
C608 C 0.58402 0.55163 0.13943 0.0
C609 C 0.57293 0.55528 0.12743 0.0
C610 C 0.55756 0.56218 0.13024 0.0
C611 C 0.55262 0.56508 0.14549 0.0
C612 C 0.53657 0.57111 0.14875 0.0
C613 C 0.53226 0.57449 0.1638 0.0
C614 C 0.54418 0.57242 0.17613 0.0
C615 C 0.5406 0.57675 0.19143 0.0
C616 C 0.55272 0.57445 0.20339 0.0
C617 C 0.56837 0.56788 0.20053 0.0
C618 C 0.57215 0.56345 0.18533 0.0
C619 C 0.5878 0.55683 0.18203 0.0
C620 C 0.59144 0.55255 0.16704 0.0
C621 C 0.57998 0.55528 0.15474 0.0
C622 C 0.56417 0.56198 0.15777 0.0
C623 C 0.5601 0.56588 0.1731 0.0
C624 C 0.4453 0.59441 0.18612 0.0
C625 C 0.46916 0.61108 0.19088 0.0
O626 O 0.64317 0.52483 0.1173 0.0
O627 O 0.62443 0.56192 0.24468 0.0
O628 O 0.47579 0.6015 0.2021 0.0
O629 O 0.5267 0.58182 0.07575 0.0
H630 H 0.62127 0.49916 0.10339 0.0
H631 H 0.6311 0.53483 0.09066 0.0
H632 H 0.65998 0.54242 0.09009 0.0
H633 H 0.63951 0.51883 0.07911 0.0
H634 H 0.60071 0.49748 0.12392 0.0
H635 H 0.65449 0.56478 0.12592 0.0
H636 H 0.55757 0.50671 0.12607 0.0
H637 H 0.56497 0.4869 0.13314 0.0
H638 H 0.56257 0.50587 0.14615 0.0
H639 H 0.64978 0.5945 0.13425 0.0
H640 H 0.62284 0.59059 0.12928 0.0
H641 H 0.62862 0.58671 0.14868 0.0
H642 H 0.55525 0.6091 0.06689 0.0
H643 H 0.53769 0.60418 0.0441 0.0
H644 H 0.51384 0.5836 0.0505 0.0
H645 H 0.51456 0.62421 0.05774 0.0
H646 H 0.55946 0.61182 0.09383 0.0
H647 H 0.50927 0.5432 0.08844 0.0
H648 H 0.57318 0.60992 0.1317 0.0
H649 H 0.5918 0.60449 0.12087 0.0
H650 H 0.58481 0.62477 0.1141 0.0
H651 H 0.50325 0.5162 0.10722 0.0
H652 H 0.52993 0.52035 0.11314 0.0
H653 H 0.51381 0.52628 0.12629 0.0
H654 H 0.47968 0.61485 0.18045 0.0
H655 H 0.51662 0.62871 0.19244 0.0
H656 H 0.47117 0.56302 0.20828 0.0
H657 H 0.55372 0.6203 0.17459 0.0
H658 H 0.55457 0.64052 0.18793 0.0
H659 H 0.56527 0.62256 0.19336 0.0
H660 H 0.47951 0.53404 0.20781 0.0
H661 H 0.50024 0.5371 0.19408 0.0
H662 H 0.50782 0.54426 0.21379 0.0
H663 H 0.6238 0.5354 0.23354 0.0
H664 H 0.66028 0.54331 0.2436 0.0
H665 H 0.66198 0.56685 0.23368 0.0
H666 H 0.66286 0.56683 0.25435 0.0
H667 H 0.62901 0.59854 0.23395 0.0
H668 H 0.58598 0.52785 0.23507 0.0
H669 H 0.60883 0.60865 0.20018 0.0
H670 H 0.59319 0.61221 0.21508 0.0
H671 H 0.62232 0.62189 0.21798 0.0
H672 H 0.55104 0.51022 0.22247 0.0
H673 H 0.54046 0.52727 0.21477 0.0
H674 H 0.5571 0.52013 0.20303 0.0
H675 H 0.57658 0.55304 0.11568 0.0
H676 H 0.52713 0.57324 0.13969 0.0
H677 H 0.51963 0.579 0.1656 0.0
H678 H 0.55003 0.57794 0.21508 0.0
H679 H 0.59744 0.55482 0.19099 0.0
H680 H 0.60358 0.54739 0.16521 0.0
H681 H 0.43391 0.59009 0.19606 0.0
H682 H 0.43967 0.60143 0.17686 0.0
H683 H 0.44439 0.57894 0.18173 0.0
In684 In 0.62091 0.41784 0.40936 0.0
O685 O 0.65643 0.44475 0.40338 0.0
O686 O 0.6523 0.41609 0.41474 0.0
C687 C 0.60605 0.432 0.43291 0.0
C688 C 0.60951 0.43033 0.38311 0.0
C689 C 0.60024 0.37325 0.41324 0.0
O690 O 0.62523 0.43422 0.43293 0.0
O691 O 0.5947 0.42292 0.42102 0.0
O692 O 0.6113 0.38259 0.40134 0.0
O693 O 0.59913 0.38628 0.4228 0.0
C694 C 0.66554 0.43441 0.40863 0.0
O695 O 0.60678 0.41106 0.38481 0.0
O696 O 0.61764 0.4429 0.39461 0.0
In697 In 0.22333 0.61513 0.57745 0.0
O698 O 0.24363 0.59956 0.56849 0.0
O699 O 0.2433 0.60468 0.59243 0.0
C700 C 0.19355 0.60494 0.55464 0.0
C701 C 0.19456 0.59855 0.60091 0.0
C702 C 0.25269 0.659 0.57349 0.0
O703 O 0.20568 0.59622 0.55558 0.0
O704 O 0.19628 0.61843 0.56527 0.0
O705 O 0.24463 0.65089 0.58641 0.0
O706 O 0.24608 0.64505 0.5627 0.0
C707 C 0.25027 0.59783 0.58161 0.0
O708 O 0.20802 0.61914 0.5994 0.0
O709 O 0.19545 0.58639 0.59045 0.0
In710 In 0.63107 0.22413 0.74245 0.0
O711 O 0.66841 0.24393 0.73699 0.0
O712 O 0.65776 0.24775 0.75899 0.0
C713 C 0.61548 0.19761 0.71753 0.0
C714 C 0.62068 0.19335 0.7644 0.0
C715 C 0.61375 0.2511 0.7386 0.0
O716 O 0.63513 0.21376 0.71835 0.0
O717 O 0.60392 0.19459 0.72936 0.0
O718 O 0.61135 0.24052 0.75085 0.0
O719 O 0.62474 0.24804 0.72843 0.0
C720 C 0.67378 0.2531 0.75001 0.0
O721 O 0.61055 0.2041 0.7629 0.0
O722 O 0.6357 0.19782 0.75461 0.0
In723 In 0.42214 0.62254 0.90999 0.0
O724 O 0.38662 0.60694 0.91913 0.0
O725 O 0.39206 0.61586 0.89563 0.0
C726 C 0.44002 0.61227 0.93384 0.0
C727 C 0.43218 0.60354 0.8867 0.0
C728 C 0.43779 0.66671 0.91305 0.0
O729 O 0.4193 0.60352 0.93196 0.0
O730 O 0.45163 0.62569 0.92347 0.0
O731 O 0.43724 0.65783 0.90031 0.0
O732 O 0.43044 0.65337 0.92413 0.0
C733 C 0.37831 0.60763 0.90642 0.0
O734 O 0.44257 0.62428 0.88907 0.0
O735 O 0.41715 0.59238 0.89633 0.0
In736 In 0.81297 0.40902 0.07339 0.0
O737 O 0.83118 0.40596 0.09437 0.0
O738 O 0.83634 0.43792 0.08862 0.0
C739 C 0.78544 0.36557 0.06673 0.0
C740 C 0.78393 0.42361 0.0775 0.0
C741 C 0.84201 0.4213 0.05007 0.0
O742 O 0.79156 0.3723 0.08028 0.0
O743 O 0.79317 0.38063 0.05674 0.0
O744 O 0.82752 0.42713 0.05094 0.0
O745 O 0.84211 0.40963 0.06113 0.0
C746 C 0.84072 0.42644 0.09761 0.0
O747 O 0.79836 0.43099 0.06706 0.0
O748 O 0.78403 0.40877 0.08574 0.0
In749 In 0.43019 0.8261 0.24303 0.0
O750 O 0.44528 0.80433 0.2494 0.0
O751 O 0.43226 0.80152 0.22693 0.0
C752 C 0.44278 0.85369 0.26745 0.0
C753 C 0.45071 0.85618 0.22065 0.0
C754 C 0.38597 0.79961 0.24717 0.0
O755 O 0.44875 0.83935 0.26576 0.0
O756 O 0.43094 0.85432 0.25671 0.0
O757 O 0.39409 0.80878 0.2345 0.0
O758 O 0.40006 0.80387 0.25763 0.0
C759 C 0.44161 0.79513 0.23638 0.0
O760 O 0.43016 0.84756 0.22323 0.0
O761 O 0.46085 0.84993 0.22954 0.0
C762 C 0.18546 0.66883 0.25746 0.0
C763 C 0.17662 0.66901 0.2719 0.0
C764 C 0.20814 0.68233 0.25461 0.0
C765 C 0.26249 0.71125 0.27296 0.0
H766 H 0.2805 0.75066 0.23788 0.0
C767 C 0.35358 0.77955 0.26462 0.0
C768 C 0.36195 0.78484 0.24966 0.0
C769 C 0.33095 0.76525 0.26713 0.0
C770 C 0.27585 0.73951 0.24757 0.0
H771 H 0.1847 0.68395 0.29461 0.0
H772 H 0.22449 0.70692 0.28976 0.0
H773 H 0.24115 0.72524 0.24258 0.0
H774 H 0.35334 0.77926 0.22555 0.0
H775 H 0.31391 0.75358 0.22985 0.0
H776 H 0.29701 0.72487 0.27781 0.0
C777 C 0.21377 0.69619 0.2807 0.0
C778 C 0.25328 0.72504 0.25029 0.0
C779 C 0.19102 0.68299 0.28347 0.0
C780 C 0.34727 0.77557 0.23721 0.0
C781 C 0.32465 0.76094 0.23971 0.0
C782 C 0.28507 0.72544 0.27012 0.0
C783 C 0.22249 0.69614 0.2662 0.0
C784 C 0.24641 0.71092 0.26307 0.0
C785 C 0.31617 0.75556 0.25472 0.0
C786 C 0.29208 0.73994 0.25746 0.0
H787 H 0.17469 0.65851 0.24828 0.0
H788 H 0.21449 0.68199 0.24334 0.0
H789 H 0.25759 0.70033 0.28281 0.0
H790 H 0.3645 0.78662 0.27444 0.0
H791 H 0.32506 0.76199 0.27884 0.0
C792 C 0.57485 0.1912 0.44436 0.0
C793 C 0.56606 0.18309 0.45897 0.0
C794 C 0.57494 0.20996 0.43845 0.0
C795 C 0.57538 0.26043 0.45162 0.0
H796 H 0.56422 0.26681 0.40887 0.0
C797 C 0.57934 0.34031 0.43021 0.0
C798 C 0.5912 0.34938 0.4166 0.0
C799 C 0.57318 0.31863 0.43452 0.0
C800 C 0.56751 0.26531 0.42081 0.0
H801 H 0.55044 0.18819 0.4788 0.0
H802 H 0.55037 0.22079 0.46845 0.0
H803 H 0.55907 0.23126 0.41804 0.0
H804 H 0.60502 0.34252 0.39648 0.0
H805 H 0.59445 0.30463 0.40409 0.0
H806 H 0.58428 0.29447 0.4544 0.0
C807 C 0.55722 0.21269 0.46156 0.0
C808 C 0.56455 0.24496 0.42607 0.0
C809 C 0.55709 0.19393 0.46744 0.0
C810 C 0.59588 0.33596 0.40703 0.0
C811 C 0.58974 0.31423 0.41137 0.0
C812 C 0.57837 0.28072 0.44638 0.0
C813 C 0.56648 0.22115 0.44711 0.0
C814 C 0.56855 0.24233 0.44152 0.0
C815 C 0.5788 0.30551 0.42536 0.0
C816 C 0.57457 0.28347 0.43091 0.0
H817 H 0.58224 0.18341 0.4377 0.0
H818 H 0.58246 0.21622 0.42737 0.0
H819 H 0.57905 0.25913 0.46352 0.0
H820 H 0.57535 0.35019 0.43778 0.0
H821 H 0.56437 0.31229 0.44522 0.0
C822 C 0.40997 0.57578 0.60957 0.0
C823 C 0.40977 0.57084 0.62521 0.0
C824 C 0.39103 0.57392 0.60253 0.0
C825 C 0.33041 0.55263 0.60857 0.0
H826 H 0.34093 0.60101 0.58135 0.0
C827 C 0.26855 0.58353 0.59915 0.0
C828 C 0.26568 0.58936 0.58426 0.0
C829 C 0.28431 0.57716 0.60208 0.0
C830 C 0.33769 0.58717 0.58871 0.0
H831 H 0.38971 0.56029 0.64573 0.0
H832 H 0.35688 0.55759 0.63365 0.0
H833 H 0.37214 0.59745 0.59032 0.0
H834 H 0.27656 0.59256 0.56068 0.0
H835 H 0.3046 0.58183 0.56589 0.0
H836 H 0.296 0.5432 0.60757 0.0
C837 C 0.37133 0.56213 0.62662 0.0
C838 C 0.35559 0.58506 0.59384 0.0
C839 C 0.39018 0.56378 0.6336 0.0
C840 C 0.27845 0.58813 0.57226 0.0
C841 C 0.29451 0.58208 0.57524 0.0
C842 C 0.31255 0.55492 0.60358 0.0
C843 C 0.37159 0.56751 0.61104 0.0
C844 C 0.35225 0.56805 0.60412 0.0
C845 C 0.29773 0.57677 0.59022 0.0
C846 C 0.31608 0.57248 0.59385 0.0
H847 H 0.42494 0.5816 0.60285 0.0
H848 H 0.39178 0.57792 0.59048 0.0
H849 H 0.32712 0.53904 0.61619 0.0
H850 H 0.25888 0.58425 0.60861 0.0
H851 H 0.28658 0.57339 0.61376 0.0
C852 C 0.84874 0.40085 0.80327 0.0
C853 C 0.86104 0.41805 0.79283 0.0
C854 C 0.83025 0.38108 0.79836 0.0
C855 C 0.80143 0.34596 0.76498 0.0
H856 H 0.74822 0.33036 0.78825 0.0
C857 C 0.71304 0.28144 0.74349 0.0
C858 C 0.69682 0.2692 0.75452 0.0
C859 C 0.73427 0.29812 0.74803 0.0
C860 C 0.76292 0.33408 0.78177 0.0
H861 H 0.86371 0.42797 0.76902 0.0
H862 H 0.83154 0.39313 0.76037 0.0
H863 H 0.78348 0.36156 0.79644 0.0
H864 H 0.69034 0.26367 0.77886 0.0
H865 H 0.72746 0.29184 0.78679 0.0
H866 H 0.7809 0.31827 0.75038 0.0
C867 C 0.83642 0.39493 0.77232 0.0
C868 C 0.78315 0.35208 0.78646 0.0
C869 C 0.8548 0.41484 0.77727 0.0
C870 C 0.70245 0.27313 0.77012 0.0
C871 C 0.72372 0.28942 0.77465 0.0
C872 C 0.78117 0.32766 0.76039 0.0
C873 C 0.82368 0.37808 0.78289 0.0
C874 C 0.80258 0.35828 0.7781 0.0
C875 C 0.73976 0.30259 0.7637 0.0
C876 C 0.76161 0.32154 0.7687 0.0
H877 H 0.85302 0.40302 0.81535 0.0
H878 H 0.82076 0.36831 0.80673 0.0
H879 H 0.81622 0.35037 0.75837 0.0
H880 H 0.70906 0.27873 0.73138 0.0
H881 H 0.74607 0.308 0.73925 0.0
C882 C 0.52371 0.86396 0.94511 0.0
C883 C 0.52444 0.8783 0.93346 0.0
C884 C 0.51268 0.84097 0.94269 0.0
C885 C 0.49753 0.79949 0.91274 0.0
H886 H 0.45498 0.75848 0.94205 0.0
C887 C 0.45051 0.70454 0.90221 0.0
C888 C 0.44654 0.69081 0.91498 0.0
C889 C 0.45879 0.72737 0.90415 0.0
C890 C 0.46705 0.76966 0.93384 0.0
H891 H 0.51488 0.87986 0.91005 0.0
H892 H 0.49594 0.83959 0.90573 0.0
H893 H 0.4719 0.79848 0.94623 0.0
H894 H 0.44833 0.6901 0.93977 0.0
H895 H 0.46353 0.72989 0.94316 0.0
H896 H 0.49348 0.77091 0.90062 0.0
C897 C 0.50355 0.84619 0.91679 0.0
C898 C 0.47662 0.79256 0.93622 0.0
C899 C 0.51425 0.86915 0.91929 0.0
C900 C 0.45108 0.70028 0.92971 0.0
C901 C 0.45964 0.72311 0.93165 0.0
C902 C 0.48823 0.7766 0.91047 0.0
C903 C 0.50268 0.83191 0.92848 0.0
C904 C 0.49199 0.80766 0.92571 0.0
C905 C 0.46357 0.73697 0.9189 0.0
C906 C 0.47293 0.76136 0.92103 0.0
H907 H 0.53183 0.87047 0.95604 0.0
H908 H 0.51249 0.8303 0.95181 0.0
H909 H 0.50954 0.81083 0.90456 0.0
H910 H 0.44702 0.69763 0.89072 0.0
H911 H 0.46125 0.73741 0.89408 0.0
C912 C 0.67607 0.51486 0.10712 0.0
C913 C 0.65374 0.50288 0.10243 0.0
C914 C 0.69003 0.50602 0.10496 0.0
C915 C 0.68933 0.45318 0.09698 0.0
H916 H 0.74985 0.49255 0.08379 0.0
C917 C 0.75387 0.42435 0.09267 0.0
C918 C 0.76856 0.43211 0.0802 0.0
C919 C 0.73977 0.43283 0.09553 0.0
C920 C 0.73294 0.48129 0.08734 0.0
H921 H 0.62875 0.47271 0.0913 0.0
H922 H 0.65313 0.45735 0.08734 0.0
H923 H 0.7254 0.50757 0.08852 0.0
H924 H 0.77984 0.45461 0.06084 0.0
H925 H 0.75495 0.46917 0.06567 0.0
H926 H 0.69668 0.4268 0.09538 0.0
C927 C 0.65972 0.47325 0.09312 0.0
C928 C 0.71901 0.48996 0.09026 0.0
C929 C 0.64576 0.48206 0.09534 0.0
C930 C 0.76874 0.44836 0.07056 0.0
C931 C 0.75459 0.45681 0.0734 0.0
C932 C 0.70324 0.4445 0.09402 0.0
C933 C 0.68205 0.48515 0.09787 0.0
C934 C 0.69702 0.47601 0.09509 0.0
C935 C 0.74001 0.44922 0.08596 0.0
C936 C 0.72521 0.45845 0.08913 0.0
H937 H 0.68278 0.53115 0.11236 0.0
H938 H 0.70709 0.51554 0.10887 0.0
H939 H 0.67256 0.442 0.10084 0.0
H940 H 0.75343 0.41188 0.10033 0.0
H941 H 0.72897 0.42682 0.10542 0.0
C942 C 0.36103 0.8548 0.5375 0.0
C943 C 0.37389 0.86991 0.54913 0.0
C944 C 0.34983 0.8319 0.54024 0.0
C945 C 0.32421 0.7917 0.57099 0.0
H946 H 0.3265 0.74979 0.54267 0.0
C947 C 0.2781 0.69745 0.58351 0.0
C948 C 0.26817 0.68295 0.57104 0.0
C949 C 0.29244 0.72019 0.58109 0.0
C950 C 0.32542 0.76122 0.55061 0.0
H951 H 0.38453 0.87289 0.57279 0.0
H952 H 0.36464 0.83281 0.57764 0.0
H953 H 0.34874 0.78963 0.53773 0.0
H954 H 0.26533 0.6808 0.54627 0.0
H955 H 0.28962 0.72043 0.54203 0.0
H956 H 0.30034 0.76351 0.5836 0.0
C957 C 0.36359 0.83873 0.56637 0.0
C958 C 0.33826 0.78404 0.54779 0.0
C959 C 0.37506 0.8616 0.56357 0.0
C960 C 0.27287 0.69158 0.55611 0.0
C961 C 0.28696 0.71432 0.55369 0.0
C962 C 0.31113 0.76889 0.5737 0.0
C963 C 0.35079 0.82367 0.55475 0.0
C964 C 0.33774 0.79949 0.55793 0.0
C965 C 0.29693 0.72896 0.56614 0.0
C966 C 0.31148 0.75331 0.56352 0.0
H967 H 0.35934 0.86068 0.52637 0.0
H968 H 0.33981 0.82064 0.53116 0.0
H969 H 0.32329 0.80327 0.57889 0.0
H970 H 0.27487 0.69122 0.59515 0.0
H971 H 0.30009 0.73084 0.59096 0.0
C972 C 0.53384 0.37351 0.72821 0.0
C973 C 0.52674 0.3743 0.71325 0.0
C974 C 0.54468 0.36161 0.73135 0.0
C975 C 0.57715 0.33912 0.71417 0.0
H976 H 0.55288 0.29509 0.7465 0.0
C977 C 0.60343 0.27316 0.7214 0.0
C978 C 0.60452 0.26593 0.73623 0.0
C979 C 0.59478 0.28721 0.719 0.0
C980 C 0.56019 0.30757 0.73762 0.0
H981 H 0.52515 0.36284 0.68985 0.0
H982 H 0.54479 0.34267 0.69527 0.0
H983 H 0.5371 0.3189 0.74166 0.0
H984 H 0.59774 0.26795 0.76022 0.0
H985 H 0.58334 0.29317 0.75616 0.0
H986 H 0.60055 0.32829 0.71027 0.0
C987 C 0.54206 0.35144 0.70453 0.0
C988 C 0.55104 0.32114 0.73482 0.0
C989 C 0.53087 0.36302 0.70143 0.0
C990 C 0.59693 0.27315 0.74865 0.0
C991 C 0.58857 0.28752 0.74629 0.0
C992 C 0.58654 0.32581 0.71712 0.0
C993 C 0.5488 0.35039 0.71954 0.0
C994 C 0.55928 0.33686 0.72297 0.0
C995 C 0.58731 0.2947 0.73141 0.0
C996 C 0.57801 0.30965 0.72876 0.0
H997 H 0.53053 0.38174 0.73756 0.0
H998 H 0.54976 0.36108 0.74302 0.0
H999 H 0.58394 0.35131 0.70506 0.0
H1000 H 0.60903 0.26772 0.71159 0.0
H1001 H 0.59366 0.29193 0.70735 0.0
C1002 C 0.18318 0.52169 0.87052 0.0
C1003 C 0.16799 0.51922 0.88204 0.0
C1004 C 0.20598 0.53323 0.87352 0.0
C1005 C 0.24588 0.5467 0.90428 0.0
H1006 H 0.28758 0.59242 0.87692 0.0
C1007 C 0.34012 0.59398 0.91678 0.0
C1008 C 0.35437 0.59913 0.90417 0.0
C1009 C 0.31741 0.58574 0.91453 0.0
C1010 C 0.27621 0.57949 0.88459 0.0
H1011 H 0.16473 0.52622 0.9058 0.0
H1012 H 0.2047 0.54608 0.91112 0.0
H1013 H 0.24782 0.57507 0.87194 0.0
H1014 H 0.35611 0.59958 0.87936 0.0
H1015 H 0.31652 0.58448 0.8754 0.0
H1016 H 0.27407 0.55032 0.91661 0.0
C1017 C 0.19889 0.53944 0.89972 0.0
C1018 C 0.25345 0.56967 0.88176 0.0
C1019 C 0.1761 0.52822 0.89666 0.0
C1020 C 0.34552 0.5959 0.8893 0.0
C1021 C 0.32281 0.58739 0.88704 0.0
C1022 C 0.26865 0.55627 0.907 0.0
C1023 C 0.21402 0.54201 0.88818 0.0
C1024 C 0.23809 0.55312 0.89153 0.0
C1025 C 0.30843 0.5822 0.89962 0.0
C1026 C 0.28414 0.5727 0.89713 0.0
H1027 H 0.17747 0.51449 0.85924 0.0
H1028 H 0.21732 0.53472 0.86449 0.0
H1029 H 0.23435 0.53378 0.9119 0.0
H1030 H 0.34655 0.59645 0.92838 0.0
H1031 H 0.30695 0.5823 0.92449 0.0
C1032 C 0.63556 0.19031 0.01572 0.0
C1033 C 0.61801 0.17967 0.02618 0.0
C1034 C 0.65595 0.20815 0.02041 0.0
C1035 C 0.69074 0.23795 0.05401 0.0
H1036 H 0.71177 0.28969 0.02789 0.0
C1037 C 0.75559 0.32714 0.07382 0.0
C1038 C 0.76967 0.34217 0.06273 0.0
C1039 C 0.73905 0.30569 0.06954 0.0
C1040 C 0.7065 0.27534 0.0352 0.0
H1041 H 0.6081 0.17917 0.04977 0.0
H1042 H 0.64388 0.21032 0.05803 0.0
H1043 H 0.67968 0.25482 0.02009 0.0
H1044 H 0.77859 0.34621 0.03868 0.0
H1045 H 0.75044 0.3087 0.03129 0.0
H1046 H 0.71762 0.25857 0.06916 0.0
C1047 C 0.64193 0.20463 0.04626 0.0
C1048 C 0.68801 0.25532 0.03072 0.0
C1049 C 0.62147 0.18684 0.04154 0.0
C1050 C 0.76773 0.33505 0.04744 0.0
C1051 C 0.75148 0.31358 0.0432 0.0
C1052 C 0.70945 0.25799 0.05845 0.0
C1053 C 0.65921 0.21578 0.03565 0.0
C1054 C 0.6798 0.23646 0.04012 0.0
C1055 C 0.73649 0.29881 0.05409 0.0
C1056 C 0.71744 0.27701 0.04914 0.0
H1057 H 0.63326 0.18526 0.00379 0.0
H1058 H 0.66903 0.21632 0.01202 0.0
H1059 H 0.68484 0.22361 0.06143 0.0
H1060 H 0.75674 0.33224 0.08569 0.0
H1061 H 0.72772 0.29488 0.07823 0.0
C1062 C 0.46719 0.63526 0.21216 0.0
C1063 C 0.47058 0.63235 0.19662 0.0
C1064 C 0.46637 0.65409 0.21694 0.0
C1065 C 0.45083 0.69354 0.20277 0.0
H1066 H 0.48343 0.73034 0.23761 0.0
C1067 C 0.44796 0.77268 0.21688 0.0
C1068 C 0.44743 0.77803 0.23234 0.0
C1069 C 0.45243 0.75588 0.21285 0.0
C1070 C 0.47397 0.72006 0.22798 0.0
H1071 H 0.47539 0.64665 0.17394 0.0
H1072 H 0.47366 0.67939 0.18226 0.0
H1073 H 0.48829 0.69906 0.23015 0.0
H1074 H 0.45149 0.77026 0.25573 0.0
H1075 H 0.45852 0.74022 0.24875 0.0
H1076 H 0.43586 0.71373 0.20079 0.0
C1077 C 0.47198 0.66727 0.19074 0.0
C1078 C 0.47686 0.70223 0.22369 0.0
C1079 C 0.47311 0.64864 0.18601 0.0
C1080 C 0.45185 0.76649 0.24372 0.0
C1081 C 0.45599 0.74936 0.23969 0.0
C1082 C 0.4477 0.71109 0.20718 0.0
C1083 C 0.46837 0.67006 0.20622 0.0
C1084 C 0.46543 0.68893 0.21096 0.0
C1085 C 0.45609 0.74367 0.22418 0.0
C1086 C 0.45935 0.72475 0.21976 0.0
H1087 H 0.4647 0.62277 0.22057 0.0
H1088 H 0.46331 0.65573 0.22891 0.0
H1089 H 0.4415 0.68328 0.19309 0.0
H1090 H 0.44489 0.78151 0.20785 0.0
H1091 H 0.45297 0.75245 0.20079 0.0
C1092 C 0.84861 0.49614 0.35602 0.0
C1093 C 0.8577 0.48229 0.35836 0.0
C1094 C 0.8293 0.49207 0.36366 0.0
C1095 C 0.77949 0.44672 0.38155 0.0
H1096 H 0.77163 0.49452 0.39746 0.0
C1097 C 0.69817 0.42866 0.41097 0.0
C1098 C 0.68934 0.44202 0.40635 0.0
C1099 C 0.71994 0.43453 0.40717 0.0
C1100 C 0.77353 0.481 0.393 0.0
H1101 H 0.85378 0.45342 0.37056 0.0
H1102 H 0.82001 0.44629 0.38397 0.0
H1103 H 0.80747 0.50295 0.38685 0.0
H1104 H 0.69663 0.47246 0.39467 0.0
H1105 H 0.73453 0.48264 0.38794 0.0
H1106 H 0.74548 0.42481 0.38734 0.0
C1107 C 0.8278 0.46027 0.3762 0.0
C1108 C 0.79405 0.48583 0.38692 0.0
C1109 C 0.84718 0.46441 0.36861 0.0
C1110 C 0.70299 0.46184 0.39841 0.0
C1111 C 0.72476 0.46772 0.39462 0.0
C1112 C 0.75897 0.44189 0.38759 0.0
C1113 C 0.81853 0.47394 0.3737 0.0
C1114 C 0.7972 0.46876 0.381 0.0
C1115 C 0.73335 0.4539 0.39867 0.0
C1116 C 0.75567 0.45899 0.39325 0.0
H1117 H 0.85625 0.50991 0.34807 0.0
H1118 H 0.82243 0.50272 0.36132 0.0
H1119 H 0.78124 0.43323 0.37686 0.0
H1120 H 0.68806 0.41331 0.41714 0.0
H1121 H 0.72616 0.4237 0.41069 0.0
C1122 C 0.11785 0.60555 0.42998 0.0
C1123 C 0.1059 0.61686 0.42879 0.0
C1124 C 0.123 0.60044 0.44435 0.0
C1125 C 0.13273 0.6211 0.4838 0.0
H1126 H 0.13323 0.5667 0.49286 0.0
C1127 C 0.16396 0.60958 0.54196 0.0
C1128 C 0.1785 0.60109 0.54157 0.0
C1129 C 0.15145 0.60821 0.52905 0.0
C1130 C 0.1333 0.58203 0.49047 0.0
H1131 H 0.08965 0.63138 0.44164 0.0
H1132 H 0.0985 0.62232 0.46678 0.0
H1133 H 0.11775 0.57023 0.46853 0.0
H1134 H 0.19069 0.58365 0.5276 0.0
H1135 H 0.16923 0.58169 0.50488 0.0
H1136 H 0.14887 0.63328 0.50538 0.0
C1137 C 0.10394 0.61745 0.45661 0.0
C1138 C 0.12439 0.58403 0.47656 0.0
C1139 C 0.09874 0.6225 0.44224 0.0
C1140 C 0.17959 0.59033 0.52823 0.0
C1141 C 0.16719 0.58911 0.51524 0.0
C1142 C 0.14169 0.61916 0.49764 0.0
C1143 C 0.11648 0.60673 0.45782 0.0
C1144 C 0.12423 0.60369 0.47302 0.0
C1145 C 0.15336 0.59851 0.51539 0.0
C1146 C 0.14229 0.59969 0.5011 0.0
H1147 H 0.12376 0.60123 0.41979 0.0
H1148 H 0.13292 0.59243 0.4449 0.0
H1149 H 0.13324 0.63663 0.48131 0.0
H1150 H 0.1626 0.61776 0.55215 0.0
H1151 H 0.1406 0.61517 0.52968 0.0
C1152 C 0.50331 0.07364 0.60398 0.0
C1153 C 0.50373 0.092 0.58831 0.0
C1154 C 0.52048 0.08813 0.62029 0.0
C1155 C 0.55087 0.15053 0.64032 0.0
H1156 H 0.5758 0.12134 0.66437 0.0
C1157 C 0.61527 0.19344 0.68908 0.0
C1158 C 0.60604 0.18442 0.70342 0.0
C1159 C 0.6047 0.18215 0.67559 0.0
C1160 C 0.56895 0.12963 0.65768 0.0
H1161 H 0.50917 0.1311 0.58257 0.0
H1162 H 0.53499 0.1521 0.60955 0.0
H1163 H 0.5545 0.10333 0.64123 0.0
H1164 H 0.57925 0.15613 0.71498 0.0
H1165 H 0.56121 0.13601 0.6913 0.0
H1166 H 0.56618 0.1772 0.65664 0.0
C1167 C 0.52773 0.13433 0.60821 0.0
C1168 C 0.55651 0.11925 0.64449 0.0
C1169 C 0.51076 0.12128 0.59157 0.0
C1170 C 0.58668 0.16344 0.70406 0.0
C1171 C 0.57641 0.15192 0.69057 0.0
C1172 C 0.56373 0.16109 0.65327 0.0
C1173 C 0.53313 0.11812 0.62208 0.0
C1174 C 0.54709 0.12946 0.63573 0.0
C1175 C 0.58508 0.16145 0.67626 0.0
C1176 C 0.57267 0.15064 0.66211 0.0
H1177 H 0.49694 0.05603 0.60224 0.0
H1178 H 0.52281 0.07857 0.62909 0.0
H1179 H 0.54356 0.15883 0.63425 0.0
H1180 H 0.63011 0.20964 0.68827 0.0
H1181 H 0.61158 0.18976 0.66462 0.0
C1182 C 0.41287 0.49134 0.76625 0.0
C1183 C 0.43288 0.50853 0.75111 0.0
C1184 C 0.41675 0.50529 0.78436 0.0
C1185 C 0.44219 0.56738 0.80232 0.0
H1186 H 0.43544 0.53363 0.83927 0.0
C1187 C 0.45223 0.60647 0.86226 0.0
C1188 C 0.43594 0.5933 0.87302 0.0
C1189 C 0.45421 0.59714 0.84855 0.0
C1190 C 0.43722 0.54323 0.82907 0.0
H1191 H 0.45742 0.5492 0.74153 0.0
H1192 H 0.46098 0.56971 0.77108 0.0
H1193 H 0.43354 0.51696 0.81428 0.0
H1194 H 0.40944 0.55991 0.87814 0.0
H1195 H 0.41266 0.54368 0.85419 0.0
H1196 H 0.44541 0.59351 0.81705 0.0
C1197 C 0.45029 0.55194 0.76975 0.0
C1198 C 0.43608 0.53366 0.81474 0.0
C1199 C 0.4475 0.53951 0.75113 0.0
C1200 C 0.4222 0.57047 0.87008 0.0
C1201 C 0.42412 0.56115 0.85637 0.0
C1202 C 0.44324 0.57694 0.81663 0.0
C1203 C 0.43576 0.53491 0.78614 0.0
C1204 C 0.43829 0.54555 0.80124 0.0
C1205 C 0.43989 0.57445 0.84532 0.0
C1206 C 0.4405 0.56488 0.83018 0.0
H1207 H 0.40303 0.47341 0.76536 0.0
H1208 H 0.40749 0.49576 0.79421 0.0
H1209 H 0.4436 0.57686 0.79212 0.0
H1210 H 0.46313 0.62411 0.86426 0.0
H1211 H 0.46677 0.60776 0.8404 0.0
C1212 C 0.92401 0.44287 0.91573 0.0
C1213 C 0.93922 0.42718 0.91449 0.0
C1214 C 0.91433 0.44409 0.93466 0.0
C1215 C 0.89799 0.40978 0.97495 0.0
H1216 H 0.90024 0.46414 0.9884 0.0
C1217 C 0.87101 0.41768 0.03562 0.0
C1218 C 0.85632 0.42597 0.0365 0.0
C1219 C 0.88262 0.41977 0.0221 0.0
C1220 C 0.89943 0.44883 0.98476 0.0
H1221 H 0.94273 0.39505 0.92677 0.0
H1222 H 0.92525 0.3974 0.95615 0.0
H1223 H 0.91536 0.46286 0.9634 0.0
H1224 H 0.84307 0.44391 0.02422 0.0
H1225 H 0.86326 0.44745 0.00057 0.0
H1226 H 0.88193 0.39565 0.99621 0.0
C1227 C 0.92516 0.40764 0.94687 0.0
C1228 C 0.908 0.44805 0.97042 0.0
C1229 C 0.93516 0.40524 0.92839 0.0
C1230 C 0.85426 0.43732 0.02386 0.0
C1231 C 0.8659 0.43944 0.01034 0.0
C1232 C 0.88951 0.41056 0.98927 0.0
C1233 C 0.91565 0.4273 0.95005 0.0
C1234 C 0.90725 0.42847 0.96536 0.0
C1235 C 0.87979 0.43021 0.0092 0.0
C1236 C 0.89002 0.43004 0.99432 0.0
H1237 H 0.9248 0.45393 0.90673 0.0
H1238 H 0.90749 0.45482 0.9367 0.0
H1239 H 0.89659 0.39423 0.9713 0.0
H1240 H 0.87305 0.40897 0.04521 0.0
H1241 H 0.89349 0.41281 0.02165 0.0
C1242 C 0.55322 0.95878 0.10634 0.0
C1243 C 0.54434 0.94417 0.09377 0.0
C1244 C 0.54208 0.95351 0.12037 0.0
C1245 C 0.52473 0.9312 0.15094 0.0
H1246 H 0.46086 0.89345 0.15377 0.0
C1247 C 0.48337 0.87646 0.20344 0.0
C1248 C 0.4618 0.87119 0.2076 0.0
C1249 C 0.49328 0.88897 0.19032 0.0
C1250 C 0.47868 0.90432 0.15329 0.0
H1251 H 0.51702 0.91263 0.08607 0.0
H1252 H 0.49795 0.90299 0.11061 0.0
H1253 H 0.47759 0.90945 0.12922 0.0
H1254 H 0.43403 0.87566 0.20168 0.0
H1255 H 0.45161 0.89815 0.17898 0.0
H1256 H 0.5258 0.92649 0.17506 0.0
C1257 C 0.51304 0.91892 0.10957 0.0
C1258 C 0.48834 0.91324 0.13912 0.0
C1259 C 0.52401 0.92435 0.0955 0.0
C1260 C 0.45064 0.87937 0.19868 0.0
C1261 C 0.46067 0.89213 0.18562 0.0
C1262 C 0.51505 0.92254 0.16514 0.0
C1263 C 0.52208 0.93327 0.12228 0.0
C1264 C 0.51154 0.92627 0.13766 0.0
C1265 C 0.48198 0.89676 0.18111 0.0
C1266 C 0.49196 0.90843 0.16644 0.0
H1267 H 0.56901 0.97406 0.10544 0.0
H1268 H 0.5494 0.96514 0.12981 0.0
H1269 H 0.54265 0.941 0.15033 0.0
H1270 H 0.49235 0.87029 0.21004 0.0
H1271 H 0.50951 0.89178 0.18712 0.0
C1272 C 0.62215 0.53932 0.27279 0.0
C1273 C 0.62077 0.53035 0.25811 0.0
C1274 C 0.61583 0.52565 0.28571 0.0
C1275 C 0.61146 0.47357 0.29901 0.0
H1276 H 0.5828 0.48259 0.33415 0.0
C1277 C 0.59848 0.42502 0.35533 0.0
C1278 C 0.60486 0.43826 0.36863 0.0
C1279 C 0.59603 0.43354 0.34139 0.0
C1280 C 0.59085 0.4799 0.32443 0.0
H1281 H 0.61158 0.50012 0.24539 0.0
H1282 H 0.60032 0.47613 0.26796 0.0
H1283 H 0.5865 0.50273 0.31042 0.0
H1284 H 0.6129 0.47046 0.37792 0.0
H1285 H 0.60886 0.48533 0.35371 0.0
H1286 H 0.61645 0.4513 0.31313 0.0
C1287 C 0.60632 0.49372 0.26949 0.0
C1288 C 0.59297 0.49144 0.31085 0.0
C1289 C 0.61261 0.5074 0.25657 0.0
C1290 C 0.60798 0.45984 0.36786 0.0
C1291 C 0.60549 0.46832 0.35398 0.0
C1292 C 0.60936 0.46206 0.31259 0.0
C1293 C 0.60819 0.50275 0.28423 0.0
C1294 C 0.60371 0.48875 0.29809 0.0
C1295 C 0.59983 0.45542 0.34052 0.0
C1296 C 0.59947 0.46545 0.32557 0.0
H1297 H 0.62874 0.55702 0.27432 0.0
H1298 H 0.61782 0.5332 0.29691 0.0
H1299 H 0.62006 0.47132 0.28945 0.0
H1300 H 0.5959 0.40829 0.35561 0.0
H1301 H 0.59142 0.4231 0.33125 0.0
C1302 C 0.43459 0.92322 0.39421 0.0
C1303 C 0.42395 0.93583 0.39323 0.0
C1304 C 0.44212 0.91771 0.38099 0.0
C1305 C 0.45322 0.93034 0.33938 0.0
H1306 H 0.43852 0.86867 0.33682 0.0
C1307 C 0.44094 0.88342 0.2824 0.0
C1308 C 0.44754 0.86737 0.28146 0.0
C1309 C 0.44298 0.8946 0.29617 0.0
C1310 C 0.44315 0.88606 0.33742 0.0
H1311 H 0.41322 0.95295 0.37774 0.0
H1312 H 0.42598 0.94302 0.35459 0.0
H1313 H 0.43299 0.88311 0.36079 0.0
H1314 H 0.46243 0.85117 0.29398 0.0
H1315 H 0.46599 0.87074 0.3181 0.0
H1316 H 0.4626 0.93293 0.31575 0.0
C1317 C 0.42896 0.93775 0.36558 0.0
C1318 C 0.43999 0.89437 0.35119 0.0
C1319 C 0.42153 0.94335 0.37881 0.0
C1320 C 0.45713 0.86341 0.29438 0.0
C1321 C 0.45906 0.87452 0.3082 0.0
C1322 C 0.45631 0.92198 0.32557 0.0
C1323 C 0.43898 0.92451 0.36648 0.0
C1324 C 0.4446 0.9165 0.35227 0.0
C1325 C 0.45158 0.8899 0.30932 0.0
C1326 C 0.45092 0.89963 0.32436 0.0
H1327 H 0.43664 0.91719 0.40519 0.0
H1328 H 0.45007 0.90778 0.38213 0.0
H1329 H 0.45729 0.94756 0.33989 0.0
H1330 H 0.43352 0.88686 0.27262 0.0
H1331 H 0.43685 0.90618 0.29668 0.0
C1332 C 0.53089 0.43444 0.55702 0.0
C1333 C 0.50798 0.42665 0.55756 0.0
C1334 C 0.54203 0.43963 0.543 0.0
C1335 C 0.53088 0.42446 0.50233 0.0
H1336 H 0.59174 0.47185 0.49691 0.0
C1337 C 0.57536 0.43509 0.44518 0.0
C1338 C 0.59667 0.43764 0.4462 0.0
C1339 C 0.56519 0.43776 0.45814 0.0
C1340 C 0.57477 0.45851 0.49828 0.0
H1341 H 0.47879 0.41842 0.5439 0.0
H1342 H 0.4983 0.42789 0.51941 0.0
H1343 H 0.57243 0.46939 0.52086 0.0
H1344 H 0.62451 0.4461 0.46138 0.0
H1345 H 0.6066 0.4505 0.48413 0.0
H1346 H 0.53326 0.41321 0.47999 0.0
C1347 C 0.50765 0.42987 0.52982 0.0
C1348 C 0.56371 0.4571 0.51198 0.0
C1349 C 0.49651 0.42464 0.54383 0.0
C1350 C 0.60806 0.44401 0.46027 0.0
C1351 C 0.59783 0.44663 0.47327 0.0
C1352 C 0.54189 0.42588 0.48867 0.0
C1353 C 0.53045 0.43699 0.52921 0.0
C1354 C 0.54172 0.43987 0.51423 0.0
C1355 C 0.57606 0.44296 0.47242 0.0
C1356 C 0.56404 0.44275 0.48654 0.0
H1357 H 0.54004 0.43582 0.56742 0.0
H1358 H 0.55951 0.44474 0.54294 0.0
H1359 H 0.51412 0.41072 0.50377 0.0
H1360 H 0.56625 0.4304 0.43445 0.0
H1361 H 0.54858 0.43525 0.45704 0.0
C1362 C 0.11533 0.52537 0.72651 0.0
C1363 C 0.10322 0.50202 0.7262 0.0
C1364 C 0.12177 0.53746 0.71287 0.0
C1365 C 0.11302 0.53255 0.6705 0.0
H1366 H 0.17395 0.58116 0.66994 0.0
C1367 C 0.16513 0.56626 0.61543 0.0
C1368 C 0.18001 0.58925 0.6144 0.0
C1369 C 0.15291 0.55716 0.6288 0.0
C1370 C 0.15678 0.56789 0.66995 0.0
H1371 H 0.08776 0.47299 0.71145 0.0
H1372 H 0.09949 0.49399 0.68759 0.0
H1373 H 0.15772 0.5624 0.69394 0.0
H1374 H 0.19307 0.62086 0.62627 0.0
H1375 H 0.17175 0.60492 0.64966 0.0
H1376 H 0.11254 0.53763 0.6463 0.0
C1377 C 0.10366 0.50306 0.69833 0.0
C1378 C 0.14743 0.55713 0.68373 0.0
C1379 C 0.09707 0.49099 0.71198 0.0
C1380 C 0.1818 0.60306 0.62676 0.0
C1381 C 0.16968 0.59394 0.64017 0.0
C1382 C 0.12245 0.54325 0.65667 0.0
C1383 C 0.11646 0.52644 0.69861 0.0
C1384 C 0.12554 0.53911 0.68416 0.0
C1385 C 0.15542 0.57084 0.64143 0.0
C1386 C 0.14454 0.56083 0.65623 0.0
H1387 H 0.12021 0.53428 0.73732 0.0
H1388 H 0.13125 0.55544 0.71351 0.0
H1389 H 0.096 0.51898 0.67046 0.0
H1390 H 0.16337 0.55521 0.60607 0.0
H1391 H 0.14221 0.53928 0.62948 0.0
C1392 C 0.58631 0.06772 0.88238 0.0
C1393 C 0.60881 0.08533 0.89624 0.0
C1394 C 0.58688 0.08149 0.86476 0.0
C1395 C 0.63055 0.13272 0.83798 0.0
H1396 H 0.57536 0.12376 0.82051 0.0
C1397 C 0.60139 0.17532 0.78889 0.0
C1398 C 0.61645 0.17793 0.77726 0.0
C1399 C 0.59908 0.16245 0.80182 0.0
C1400 C 0.59091 0.12646 0.82527 0.0
H1401 H 0.64917 0.11849 0.8983 0.0
H1402 H 0.64864 0.13782 0.86926 0.0
H1403 H 0.57484 0.10576 0.84469 0.0
H1404 H 0.64012 0.16831 0.76969 0.0
H1405 H 0.6359 0.14567 0.79212 0.0
H1406 H 0.64674 0.15377 0.81884 0.0
C1407 C 0.63462 0.12197 0.87246 0.0
C1408 C 0.59059 0.11598 0.83904 0.0
C1409 C 0.63563 0.10959 0.89029 0.0
C1410 C 0.6285 0.16674 0.77851 0.0
C1411 C 0.62617 0.15388 0.79141 0.0
C1412 C 0.63088 0.14311 0.82424 0.0
C1413 C 0.61034 0.10849 0.8602 0.0
C1414 C 0.61045 0.11916 0.84557 0.0
C1415 C 0.61179 0.15196 0.80336 0.0
C1416 C 0.61109 0.14018 0.81773 0.0
H1417 H 0.57174 0.05238 0.88577 0.0
H1418 H 0.57311 0.07337 0.85683 0.0
H1419 H 0.64611 0.13517 0.84251 0.0
H1420 H 0.59187 0.18376 0.78823 0.0
H1421 H 0.58798 0.16145 0.81087 0.0
C1422 C 0.49896 0.59846 0.07084 0.0
C1423 C 0.52966 0.61647 0.07273 0.0
C1424 C 0.4884 0.59645 0.05166 0.0
C1425 C 0.50509 0.63102 0.0115 0.0
H1426 H 0.45785 0.57389 0.99699 0.0
C1427 C 0.47312 0.61997 0.94964 0.0
C1428 C 0.44995 0.60892 0.94784 0.0
C1429 C 0.48257 0.61918 0.96359 0.0
C1430 C 0.47096 0.58997 0.00092 0.0
H1431 H 0.56413 0.6507 0.06109 0.0
H1432 H 0.5447 0.64683 0.03124 0.0
H1433 H 0.47352 0.57695 0.02258 0.0
H1434 H 0.4185 0.58748 0.95898 0.0
H1435 H 0.435 0.58624 0.98342 0.0
H1436 H 0.50247 0.64415 0.98996 0.0
C1437 C 0.5346 0.63597 0.04034 0.0
C1438 C 0.47988 0.59175 0.0156 0.0
C1439 C 0.54665 0.63926 0.05911 0.0
C1440 C 0.43642 0.59617 0.96004 0.0
C1441 C 0.44588 0.59539 0.97402 0.0
C1442 C 0.49622 0.62925 0.99686 0.0
C1443 C 0.50621 0.6144 0.0366 0.0
C1444 C 0.49699 0.61232 0.02103 0.0
C1445 C 0.46905 0.60735 0.97606 0.0
C1446 C 0.47902 0.60874 0.9914 0.0
H1447 H 0.48901 0.58681 0.07966 0.0
H1448 H 0.4712 0.58448 0.04925 0.0
H1449 H 0.51787 0.64723 0.01543 0.0
H1450 H 0.48397 0.62981 0.94041 0.0
H1451 H 0.50048 0.62822 0.96472 0.0
C1452 C 0.96394 0.49901 0.21028 0.0
C1453 C 0.97185 0.5218 0.21272 0.0
C1454 C 0.94955 0.48778 0.19806 0.0
C1455 C 0.93306 0.49803 0.1602 0.0
H1456 H 0.88093 0.43976 0.16531 0.0
C1457 C 0.86522 0.45923 0.11398 0.0
C1458 C 0.85576 0.4364 0.11088 0.0
C1459 C 0.87946 0.46889 0.12647 0.0
C1460 C 0.89559 0.45589 0.16366 0.0
H1461 H 0.97135 0.55078 0.2041 0.0
H1462 H 0.94608 0.53119 0.18287 0.0
H1463 H 0.90558 0.45802 0.18715 0.0
H1464 H 0.85371 0.40571 0.11845 0.0
H1465 H 0.8789 0.42268 0.14027 0.0
H1466 H 0.9232 0.496 0.13676 0.0
C1467 C 0.95096 0.52198 0.19039 0.0
C1468 C 0.90967 0.46636 0.17617 0.0
C1469 C 0.96526 0.53315 0.20262 0.0
C1470 C 0.86077 0.42336 0.12058 0.0
C1471 C 0.87508 0.43305 0.13311 0.0
C1472 C 0.91905 0.48757 0.14771 0.0
C1473 C 0.94305 0.49921 0.18792 0.0
C1474 C 0.92843 0.48764 0.1746 0.0
C1475 C 0.88465 0.45596 0.13615 0.0
C1476 C 0.90002 0.46649 0.14932 0.0
H1477 H 0.96913 0.48996 0.21771 0.0
H1478 H 0.94395 0.47031 0.19632 0.0
H1479 H 0.94764 0.51423 0.15855 0.0
H1480 H 0.86157 0.46969 0.10677 0.0
H1481 H 0.88623 0.48649 0.12864 0.0
loop_
_geom_bond_atom_site_label_1
_geom_bond_atom_site_label_2
_geom_bond_distance
_geom_bond_site_symmetry_2
_ccdc_geom_bond_type
C0 C1 1.560 . S
C0 H61 0.959 . S
C0 H62 0.959 . S
C0 H63 0.960 . S
C1 C0 1.560 . S
C1 O56 1.426 . S
C1 H60 0.980 . S
C2 C3 1.407 . S
C2 C7 1.418 . S
C2 O56 1.334 . S
C3 C2 1.407 . S
C3 C4 1.360 . S
C3 H64 0.929 . S
C4 C3 1.360 . S
C4 C5 1.401 . S
C4 C8 1.527 . S
C5 C4 1.401 . S
C5 C6 1.405 . S
C5 C38 1.587 . S
C6 C5 1.405 . S
C6 C7 1.332 . S
C6 C9 1.496 . S
C7 C2 1.418 . S
C7 C6 1.332 . S
C7 H65 0.929 . S
C8 C4 1.527 . S
C8 H66 0.959 . S
C8 H67 0.961 . S
C8 H68 0.961 . S
C9 C6 1.496 . S
C9 H69 0.960 . S
C9 H70 0.960 . S
C9 H71 0.961 . S
C10 C11 1.517 . S
C10 H73 0.961 . S
C10 H74 0.960 . S
C10 H75 0.959 . S
C11 C10 1.517 . S
C11 O59 1.468 . S
C11 H72 0.980 . S
C12 C13 1.349 . S
C12 C17 1.367 . S
C12 O59 1.408 . S
C13 C12 1.349 . S
C13 C14 1.407 1_655 S
C13 H76 0.930 . S
C14 C13 1.407 1_455 S
C14 C15 1.449 . S
C14 C18 1.535 . S
C15 C14 1.449 . S
C15 C16 1.384 . S
C15 C40 1.553 . S
C16 C15 1.384 . S
C16 C17 1.364 1_455 S
C16 C19 1.450 . S
C17 C12 1.367 . S
C17 C16 1.364 1_655 S
C17 H77 0.931 . S
C18 C14 1.535 . S
C18 H78 0.959 . S
C18 H79 0.961 . S
C18 H80 0.959 1_455 S
C19 C16 1.450 . S
C19 H81 0.960 . S
C19 H82 0.960 . S
C19 H83 0.960 . S
C20 C21 1.309 . S
C20 C25 1.304 . S
C20 O58 1.435 . S
C21 C20 1.309 . S
C21 C22 1.476 . S
C21 H85 0.930 . S
C22 C21 1.476 . S
C22 C23 1.400 . S
C22 C26 1.567 . S
C23 C22 1.400 . S
C23 C24 1.373 . S
C23 C45 1.432 . S
C24 C23 1.373 . S
C24 C25 1.339 . S
C24 C27 1.530 . S
C25 C20 1.304 . S
C25 C24 1.339 . S
C25 H86 0.930 . S
C26 C22 1.567 . S
C26 H87 0.961 . S
C26 H88 0.960 . S
C26 H89 0.958 . S
C27 C24 1.530 . S
C27 H90 0.961 . S
C27 H91 0.960 . S
C27 H92 0.960 . S
C28 C29 1.530 . S
C28 H94 0.961 . S
C28 H95 0.961 . S
C28 H96 0.959 . S
C29 C28 1.530 . S
C29 O57 1.412 . S
C29 H93 0.980 . S
C30 C31 1.288 . S
C30 C35 1.377 . S
C30 O57 1.393 . S
C31 C30 1.288 . S
C31 C32 1.369 . S
C31 H97 0.932 . S
C32 C31 1.369 . S
C32 C33 1.398 . S
C32 C36 1.527 . S
C33 C32 1.398 . S
C33 C34 1.380 . S
C33 C47 1.497 . S
C34 C33 1.380 . S
C34 C35 1.383 . S
C34 C37 1.603 . S
C35 C30 1.377 . S
C35 C34 1.383 . S
C35 H98 0.929 . S
C36 C32 1.527 . S
C36 H99 0.961 . S
C36 H100 0.959 . S
C36 H101 0.959 . S
C37 C34 1.603 . S
C37 H102 0.960 . S
C37 H103 0.962 . S
C37 H104 0.961 . S
C38 C5 1.587 . S
C38 C39 1.360 . S
C38 C51 1.412 . S
C39 C38 1.360 . S
C39 C40 1.365 . S
C39 H105 0.929 . S
C40 C15 1.553 . S
C40 C39 1.365 . S
C40 C41 1.404 . S
C41 C40 1.404 . S
C41 C42 1.395 1_455 S
C41 C52 1.451 . S
C42 C41 1.395 1_655 S
C42 C43 1.322 . S
C42 H106 0.930 . S
C43 C42 1.322 . S
C43 C44 1.459 . S
C43 H107 0.929 . S
C44 C43 1.459 . S
C44 C45 1.445 . S
C44 C53 1.395 1_655 S
C45 C23 1.432 . S
C45 C44 1.445 . S
C45 C46 1.345 1_655 S
C46 C45 1.345 1_455 S
C46 C47 1.482 . S
C46 H108 0.912 1_455 S
C47 C33 1.497 . S
C47 C46 1.482 . S
C47 C48 1.360 . S
C48 C47 1.360 . S
C48 C49 1.401 . S
C48 C53 1.446 . S
C49 C48 1.401 . S
C49 C50 1.347 . S
C49 H109 0.929 . S
C50 C49 1.347 . S
C50 C51 1.455 . S
C50 H110 0.930 . S
C51 C38 1.412 . S
C51 C50 1.455 . S
C51 C52 1.331 . S
C52 C41 1.451 . S
C52 C51 1.331 . S
C52 C53 1.497 . S
C53 C44 1.395 1_455 S
C53 C48 1.446 . S
C53 C52 1.497 . S
C54 C55 1.582 . S
C54 H111 0.962 . S
C54 H112 0.959 . S
C54 H113 0.958 . S
C55 C54 1.582 . S
C55 O58 1.458 . S
C55 H84 0.980 . S
O56 C1 1.426 . S
O56 C2 1.334 . S
O57 C29 1.412 . S
O57 C30 1.393 . S
O58 C20 1.435 . S
O58 C55 1.458 . S
O59 C11 1.468 . S
O59 C12 1.408 . S
H60 C1 0.980 . S
H61 C0 0.959 . S
H62 C0 0.959 . S
H63 C0 0.960 . S
H64 C3 0.929 . S
H65 C7 0.929 . S
H66 C8 0.959 . S
H67 C8 0.961 . S
H68 C8 0.961 . S
H69 C9 0.960 . S
H70 C9 0.960 . S
H71 C9 0.961 . S
H72 C11 0.980 . S
H73 C10 0.961 . S
H74 C10 0.960 . S
H75 C10 0.959 . S
H76 C13 0.930 . S
H77 C17 0.931 . S
H78 C18 0.959 . S
H79 C18 0.961 . S
H80 C18 0.959 1_655 S
H81 C19 0.960 . S
H82 C19 0.960 . S
H83 C19 0.960 . S
H84 C55 0.980 . S
H85 C21 0.930 . S
H86 C25 0.930 . S
H87 C26 0.961 . S
H88 C26 0.960 . S
H89 C26 0.958 . S
H90 C27 0.961 . S
H91 C27 0.960 . S
H92 C27 0.960 . S
H93 C29 0.980 . S
H94 C28 0.961 . S
H95 C28 0.961 . S
H96 C28 0.959 . S
H97 C31 0.932 . S
H98 C35 0.929 . S
H99 C36 0.961 . S
H100 C36 0.959 . S
H101 C36 0.959 . S
H102 C37 0.960 . S
H103 C37 0.962 . S
H104 C37 0.961 . S
H105 C39 0.929 . S
H106 C42 0.930 . S
H107 C43 0.929 . S
H108 C46 0.912 1_655 S
H109 C49 0.929 . S
H110 C50 0.930 . S
H111 C54 0.962 . S
H112 C54 0.959 . S
H113 C54 0.958 . S
C114 C115 1.560 . S
C114 H175 0.959 . S
C114 H176 0.959 . S
C114 H177 0.960 . S
C115 C114 1.560 . S
C115 O170 1.426 . S
C115 H174 0.980 . S
C116 C117 1.407 . S
C116 C121 1.418 . S
C116 O170 1.334 . S
C117 C116 1.407 . S
C117 C118 1.360 . S
C117 H178 0.929 . S
C118 C117 1.360 . S
C118 C119 1.401 . S
C118 C122 1.527 . S
C119 C118 1.401 . S
C119 C120 1.405 . S
C119 C152 1.587 . S
C120 C119 1.405 . S
C120 C121 1.332 . S
C120 C123 1.496 . S
C121 C116 1.418 . S
C121 C120 1.332 . S
C121 H179 0.929 . S
C122 C118 1.527 . S
C122 H180 0.959 . S
C122 H181 0.961 . S
C122 H182 0.961 . S
C123 C120 1.496 . S
C123 H183 0.960 . S
C123 H184 0.960 . S
C123 H185 0.961 . S
C124 C125 1.517 . S
C124 H187 0.961 . S
C124 H188 0.960 . S
C124 H189 0.959 . S
C125 C124 1.517 . S
C125 O173 1.468 . S
C125 H186 0.980 . S
C126 C127 1.349 . S
C126 C131 1.367 . S
C126 O173 1.408 . S
C127 C126 1.349 . S
C127 C128 1.407 . S
C127 H190 0.930 . S
C128 C127 1.407 . S
C128 C129 1.449 . S
C128 C132 1.535 . S
C129 C128 1.449 . S
C129 C130 1.384 . S
C129 C154 1.553 . S
C130 C129 1.384 . S
C130 C131 1.364 . S
C130 C133 1.450 . S
C131 C126 1.367 . S
C131 C130 1.364 . S
C131 H191 0.931 . S
C132 C128 1.535 . S
C132 H192 0.959 . S
C132 H193 0.961 . S
C132 H194 0.959 . S
C133 C130 1.450 . S
C133 H195 0.960 . S
C133 H196 0.960 . S
C133 H197 0.960 . S
C134 C135 1.309 . S
C134 C139 1.304 . S
C134 O172 1.435 . S
C135 C134 1.309 . S
C135 C136 1.476 . S
C135 H199 0.930 . S
C136 C135 1.476 . S
C136 C137 1.400 . S
C136 C140 1.567 . S
C137 C136 1.400 . S
C137 C138 1.373 . S
C137 C159 1.432 . S
C138 C137 1.373 . S
C138 C139 1.339 . S
C138 C141 1.530 . S
C139 C134 1.304 . S
C139 C138 1.339 . S
C139 H200 0.930 . S
C140 C136 1.567 . S
C140 H201 0.961 . S
C140 H202 0.960 . S
C140 H203 0.958 . S
C141 C138 1.530 . S
C141 H204 0.961 . S
C141 H205 0.960 . S
C141 H206 0.960 . S
C142 C143 1.530 . S
C142 H208 0.961 . S
C142 H209 0.961 . S
C142 H210 0.959 . S
C143 C142 1.530 . S
C143 O171 1.412 . S
C143 H207 0.980 . S
C144 C145 1.288 . S
C144 C149 1.377 . S
C144 O171 1.393 . S
C145 C144 1.288 . S
C145 C146 1.369 1_565 S
C145 H211 0.932 . S
C146 C145 1.369 1_545 S
C146 C147 1.398 . S
C146 C150 1.527 . S
C147 C146 1.398 . S
C147 C148 1.380 1_545 S
C147 C161 1.497 . S
C148 C147 1.380 1_565 S
C148 C149 1.383 . S
C148 C151 1.603 . S
C149 C144 1.377 . S
C149 C148 1.383 . S
C149 H212 0.929 . S
C150 C146 1.527 . S
C150 H213 0.961 . S
C150 H214 0.959 . S
C150 H215 0.959 . S
C151 C148 1.603 . S
C151 H216 0.960 . S
C151 H217 0.962 1_565 S
C151 H218 0.961 . S
C152 C119 1.587 . S
C152 C153 1.360 . S
C152 C165 1.412 . S
C153 C152 1.360 . S
C153 C154 1.365 1_565 S
C153 H219 0.929 . S
C154 C129 1.553 . S
C154 C153 1.365 1_545 S
C154 C155 1.404 . S
C155 C154 1.404 . S
C155 C156 1.395 . S
C155 C166 1.451 . S
C156 C155 1.395 . S
C156 C157 1.322 . S
C156 H220 0.930 . S
C157 C156 1.322 . S
C157 C158 1.459 . S
C157 H221 0.929 . S
C158 C157 1.459 . S
C158 C159 1.445 . S
C158 C167 1.395 . S
C159 C137 1.432 . S
C159 C158 1.445 . S
C159 C160 1.370 . S
C160 C159 1.370 . S
C160 C161 1.438 . S
C160 H222 0.930 . S
C161 C147 1.497 . S
C161 C160 1.438 . S
C161 C162 1.360 . S
C162 C161 1.360 . S
C162 C163 1.401 1_545 S
C162 C167 1.446 . S
C163 C162 1.401 1_565 S
C163 C164 1.347 . S
C163 H223 0.929 . S
C164 C163 1.347 . S
C164 C165 1.455 . S
C164 H224 0.930 . S
C165 C152 1.412 . S
C165 C164 1.455 . S
C165 C166 1.331 1_565 S
C166 C155 1.451 . S
C166 C165 1.331 1_545 S
C166 C167 1.497 . S
C167 C158 1.395 . S
C167 C162 1.446 . S
C167 C166 1.497 . S
C168 C169 1.582 . S
C168 H225 0.962 . S
C168 H226 0.959 . S
C168 H227 0.958 . S
C169 C168 1.582 . S
C169 O172 1.458 . S
C169 H198 0.980 . S
O170 C115 1.426 . S
O170 C116 1.334 . S
O171 C143 1.412 . S
O171 C144 1.393 . S
O172 C134 1.435 . S
O172 C169 1.458 . S
O173 C125 1.468 . S
O173 C126 1.408 . S
H174 C115 0.980 . S
H175 C114 0.959 . S
H176 C114 0.959 . S
H177 C114 0.960 . S
H178 C117 0.929 . S
H179 C121 0.929 . S
H180 C122 0.959 . S
H181 C122 0.961 . S
H182 C122 0.961 . S
H183 C123 0.960 . S
H184 C123 0.960 . S
H185 C123 0.961 . S
H186 C125 0.980 . S
H187 C124 0.961 . S
H188 C124 0.960 . S
H189 C124 0.959 . S
H190 C127 0.930 . S
H191 C131 0.931 . S
H192 C132 0.959 . S
H193 C132 0.961 . S
H194 C132 0.959 . S
H195 C133 0.960 . S
H196 C133 0.960 . S
H197 C133 0.960 . S
H198 C169 0.980 . S
H199 C135 0.930 . S
H200 C139 0.930 . S
H201 C140 0.961 . S
H202 C140 0.960 . S
H203 C140 0.958 . S
H204 C141 0.961 . S
H205 C141 0.960 . S
H206 C141 0.960 . S
H207 C143 0.980 . S
H208 C142 0.961 . S
H209 C142 0.961 . S
H210 C142 0.959 . S
H211 C145 0.932 . S
H212 C149 0.929 . S
H213 C150 0.961 . S
H214 C150 0.959 . S
H215 C150 0.959 . S
H216 C151 0.960 . S
H217 C151 0.962 1_545 S
H218 C151 0.961 . S
H219 C153 0.929 . S
H220 C156 0.930 . S
H221 C157 0.929 . S
H222 C160 0.930 . S
H223 C163 0.929 . S
H224 C164 0.930 . S
H225 C168 0.962 . S
H226 C168 0.959 . S
H227 C168 0.958 . S
C228 C229 1.560 . S
C228 H289 0.959 . S
C228 H290 0.959 . S
C228 H291 0.960 . S
C229 C228 1.560 . S
C229 O284 1.426 . S
C229 H288 0.980 . S
C230 C231 1.407 . S
C230 C235 1.418 . S
C230 O284 1.334 . S
C231 C230 1.407 . S
C231 C232 1.360 . S
C231 H292 0.929 . S
C232 C231 1.360 . S
C232 C233 1.401 . S
C232 C236 1.527 . S
C233 C232 1.401 . S
C233 C234 1.405 . S
C233 C266 1.587 . S
C234 C233 1.405 . S
C234 C235 1.332 . S
C234 C237 1.496 . S
C235 C230 1.418 . S
C235 C234 1.332 . S
C235 H293 0.929 . S
C236 C232 1.527 . S
C236 H294 0.959 . S
C236 H295 0.961 . S
C236 H296 0.961 . S
C237 C234 1.496 . S
C237 H297 0.960 . S
C237 H298 0.960 . S
C237 H299 0.961 . S
C238 C239 1.517 . S
C238 H301 0.961 . S
C238 H302 0.960 . S
C238 H303 0.959 . S
C239 C238 1.517 . S
C239 O287 1.468 . S
C239 H300 0.980 . S
C240 C241 1.349 . S
C240 C245 1.367 . S
C240 O287 1.408 . S
C241 C240 1.349 . S
C241 C242 1.407 . S
C241 H304 0.930 . S
C242 C241 1.407 . S
C242 C243 1.449 . S
C242 C246 1.535 . S
C243 C242 1.449 . S
C243 C244 1.384 . S
C243 C268 1.553 . S
C244 C243 1.384 . S
C244 C245 1.364 . S
C244 C247 1.450 . S
C245 C240 1.367 . S
C245 C244 1.364 . S
C245 H305 0.931 . S
C246 C242 1.535 . S
C246 H306 0.959 . S
C246 H307 0.961 . S
C246 H308 0.959 . S
C247 C244 1.450 . S
C247 H309 0.960 . S
C247 H310 0.960 . S
C247 H311 0.960 . S
C248 C249 1.309 . S
C248 C253 1.304 . S
C248 O286 1.435 . S
C249 C248 1.309 . S
C249 C250 1.476 . S
C249 H313 0.930 . S
C250 C249 1.476 . S
C250 C251 1.400 . S
C250 C254 1.567 . S
C251 C250 1.400 . S
C251 C252 1.373 . S
C251 C273 1.432 . S
C252 C251 1.373 . S
C252 C253 1.339 . S
C252 C255 1.530 . S
C253 C248 1.304 . S
C253 C252 1.339 . S
C253 H314 0.930 . S
C254 C250 1.567 . S
C254 H315 0.961 . S
C254 H316 0.960 . S
C254 H317 0.958 . S
C255 C252 1.530 . S
C255 H318 0.961 . S
C255 H319 0.960 . S
C255 H320 0.960 . S
C256 C257 1.530 . S
C256 H322 0.961 . S
C256 H323 0.961 . S
C256 H324 0.959 . S
C257 C256 1.530 . S
C257 O285 1.412 . S
C257 H321 0.980 . S
C258 C259 1.288 . S
C258 C263 1.377 . S
C258 O285 1.393 . S
C259 C258 1.288 . S
C259 C260 1.369 . S
C259 H325 0.932 . S
C260 C259 1.369 . S
C260 C261 1.398 . S
C260 C264 1.527 . S
C261 C260 1.398 . S
C261 C262 1.380 . S
C261 C275 1.497 . S
C262 C261 1.380 . S
C262 C263 1.383 . S
C262 C265 1.603 . S
C263 C258 1.377 . S
C263 C262 1.383 . S
C263 H326 0.929 . S
C264 C260 1.527 . S
C264 H327 0.961 . S
C264 H328 0.959 . S
C264 H329 0.959 . S
C265 C262 1.603 . S
C265 H330 0.960 . S
C265 H331 0.962 . S
C265 H332 0.961 . S
C266 C233 1.587 . S
C266 C267 1.360 . S
C266 C279 1.412 . S
C267 C266 1.360 . S
C267 C268 1.365 . S
C267 H333 0.929 . S
C268 C243 1.553 . S
C268 C267 1.365 . S
C268 C269 1.404 . S
C269 C268 1.404 . S
C269 C270 1.395 . S
C269 C280 1.451 . S
C270 C269 1.395 . S
C270 C271 1.322 . S
C270 H334 0.930 . S
C271 C270 1.322 . S
C271 C272 1.459 . S
C271 H335 0.929 . S
C272 C271 1.459 . S
C272 C273 1.445 . S
C272 C281 1.395 . S
C273 C251 1.432 . S
C273 C272 1.445 . S
C273 C274 1.370 . S
C274 C273 1.370 . S
C274 C275 1.438 . S
C274 H336 0.930 . S
C275 C261 1.497 . S
C275 C274 1.438 . S
C275 C276 1.360 . S
C276 C275 1.360 . S
C276 C277 1.401 . S
C276 C281 1.446 . S
C277 C276 1.401 . S
C277 C278 1.347 . S
C277 H337 0.929 . S
C278 C277 1.347 . S
C278 C279 1.455 . S
C278 H338 0.930 . S
C279 C266 1.412 . S
C279 C278 1.455 . S
C279 C280 1.331 . S
C280 C269 1.451 . S
C280 C279 1.331 . S
C280 C281 1.497 . S
C281 C272 1.395 . S
C281 C276 1.446 . S
C281 C280 1.497 . S
C282 C283 1.582 . S
C282 H339 0.962 . S
C282 H340 0.959 . S
C282 H341 0.958 . S
C283 C282 1.582 . S
C283 O286 1.458 . S
C283 H312 0.980 . S
O284 C229 1.426 . S
O284 C230 1.334 . S
O285 C257 1.412 . S
O285 C258 1.393 . S
O286 C248 1.435 . S
O286 C283 1.458 . S
O287 C239 1.468 . S
O287 C240 1.408 . S
H288 C229 0.980 . S
H289 C228 0.959 . S
H290 C228 0.959 . S
H291 C228 0.960 . S
H292 C231 0.929 . S
H293 C235 0.929 . S
H294 C236 0.959 . S
H295 C236 0.961 . S
H296 C236 0.961 . S
H297 C237 0.960 . S
H298 C237 0.960 . S
H299 C237 0.961 . S
H300 C239 0.980 . S
H301 C238 0.961 . S
H302 C238 0.960 . S
H303 C238 0.959 . S
H304 C241 0.930 . S
H305 C245 0.931 . S
H306 C246 0.959 . S
H307 C246 0.961 . S
H308 C246 0.959 . S
H309 C247 0.960 . S
H310 C247 0.960 . S
H311 C247 0.960 . S
H312 C283 0.980 . S
H313 C249 0.930 . S
H314 C253 0.930 . S
H315 C254 0.961 . S
H316 C254 0.960 . S
H317 C254 0.958 . S
H318 C255 0.961 . S
H319 C255 0.960 . S
H320 C255 0.960 . S
H321 C257 0.980 . S
H322 C256 0.961 . S
H323 C256 0.961 . S
H324 C256 0.959 . S
H325 C259 0.932 . S
H326 C263 0.929 . S
H327 C264 0.961 . S
H328 C264 0.959 . S
H329 C264 0.959 . S
H330 C265 0.960 . S
H331 C265 0.962 . S
H332 C265 0.961 . S
H333 C267 0.929 . S
H334 C270 0.930 . S
H335 C271 0.929 . S
H336 C274 0.930 . S
H337 C277 0.929 . S
H338 C278 0.930 . S
H339 C282 0.962 . S
H340 C282 0.959 . S
H341 C282 0.958 . S
C342 C343 1.560 . S
C342 H403 0.959 . S
C342 H404 0.959 . S
C342 H405 0.960 . S
C343 C342 1.560 . S
C343 O398 1.426 . S
C343 H402 0.980 . S
C344 C345 1.407 . S
C344 C349 1.418 . S
C344 O398 1.334 . S
C345 C344 1.407 . S
C345 C346 1.360 . S
C345 H406 0.929 . S
C346 C345 1.360 . S
C346 C347 1.401 . S
C346 C350 1.527 . S
C347 C346 1.401 . S
C347 C348 1.405 . S
C347 C380 1.587 . S
C348 C347 1.405 . S
C348 C349 1.332 . S
C348 C351 1.496 . S
C349 C344 1.418 . S
C349 C348 1.332 . S
C349 H407 0.929 . S
C350 C346 1.527 . S
C350 H408 0.959 . S
C350 H409 0.961 . S
C350 H410 0.961 . S
C351 C348 1.496 . S
C351 H411 0.960 . S
C351 H412 0.960 . S
C351 H413 0.961 . S
C352 C353 1.517 . S
C352 H415 0.961 . S
C352 H416 0.960 . S
C352 H417 0.959 . S
C353 C352 1.517 . S
C353 O401 1.468 . S
C353 H414 0.980 . S
C354 C355 1.349 . S
C354 C359 1.367 . S
C354 O401 1.408 . S
C355 C354 1.349 . S
C355 C356 1.407 1_655 S
C355 H418 0.930 . S
C356 C355 1.407 1_455 S
C356 C357 1.449 . S
C356 C360 1.535 . S
C357 C356 1.449 . S
C357 C358 1.384 . S
C357 C382 1.553 . S
C358 C357 1.384 . S
C358 C359 1.364 1_455 S
C358 C361 1.450 . S
C359 C354 1.367 . S
C359 C358 1.364 1_655 S
C359 H419 0.931 . S
C360 C356 1.535 . S
C360 H420 0.959 . S
C360 H421 0.961 . S
C360 H422 0.959 1_455 S
C361 C358 1.450 . S
C361 H423 0.960 . S
C361 H424 0.960 . S
C361 H425 0.960 . S
C362 C363 1.309 . S
C362 C367 1.304 . S
C362 O400 1.435 . S
C363 C362 1.309 . S
C363 C364 1.476 . S
C363 H427 0.930 . S
C364 C363 1.476 . S
C364 C365 1.400 . S
C364 C368 1.567 . S
C365 C364 1.400 . S
C365 C366 1.373 . S
C365 C387 1.432 . S
C366 C365 1.373 . S
C366 C367 1.339 . S
C366 C369 1.530 . S
C367 C362 1.304 . S
C367 C366 1.339 . S
C367 H428 0.930 . S
C368 C364 1.567 . S
C368 H429 0.961 . S
C368 H430 0.960 . S
C368 H431 0.958 . S
C369 C366 1.530 . S
C369 H432 0.961 . S
C369 H433 0.960 . S
C369 H434 0.960 . S
C370 C371 1.530 . S
C370 H436 0.961 . S
C370 H437 0.961 . S
C370 H438 0.959 . S
C371 C370 1.530 . S
C371 O399 1.412 . S
C371 H435 0.980 . S
C372 C373 1.288 . S
C372 C377 1.377 . S
C372 O399 1.393 . S
C373 C372 1.288 . S
C373 C374 1.369 . S
C373 H439 0.932 . S
C374 C373 1.369 . S
C374 C375 1.398 . S
C374 C378 1.527 . S
C375 C374 1.398 . S
C375 C376 1.380 . S
C375 C389 1.497 . S
C376 C375 1.380 . S
C376 C377 1.383 . S
C376 C379 1.603 . S
C377 C372 1.377 . S
C377 C376 1.383 . S
C377 H440 0.929 . S
C378 C374 1.527 . S
C378 H441 0.961 . S
C378 H442 0.959 . S
C378 H443 0.959 . S
C379 C376 1.603 . S
C379 H444 0.960 . S
C379 H445 0.962 . S
C379 H446 0.961 . S
C380 C347 1.587 . S
C380 C381 1.360 . S
C380 C393 1.412 . S
C381 C380 1.360 . S
C381 C382 1.365 . S
C381 H447 0.929 . S
C382 C357 1.553 . S
C382 C381 1.365 . S
C382 C383 1.404 . S
C383 C382 1.404 . S
C383 C384 1.395 1_455 S
C383 C394 1.451 . S
C384 C383 1.395 1_655 S
C384 C385 1.322 . S
C384 H448 0.930 . S
C385 C384 1.322 . S
C385 C386 1.459 . S
C385 H449 0.929 . S
C386 C385 1.459 . S
C386 C387 1.445 . S
C386 C395 1.395 1_655 S
C387 C365 1.432 . S
C387 C386 1.445 . S
C387 C388 1.374 1_655 S
C388 C387 1.374 1_455 S
C388 C389 1.432 . S
C388 H450 0.932 1_455 S
C389 C375 1.497 . S
C389 C388 1.432 . S
C389 C390 1.360 . S
C390 C389 1.360 . S
C390 C391 1.401 . S
C390 C395 1.446 . S
C391 C390 1.401 . S
C391 C392 1.347 . S
C391 H451 0.929 . S
C392 C391 1.347 . S
C392 C393 1.455 . S
C392 H452 0.930 . S
C393 C380 1.412 . S
C393 C392 1.455 . S
C393 C394 1.331 . S
C394 C383 1.451 . S
C394 C393 1.331 . S
C394 C395 1.497 . S
C395 C386 1.395 1_455 S
C395 C390 1.446 . S
C395 C394 1.497 . S
C396 C397 1.582 . S
C396 H453 0.962 . S
C396 H454 0.959 . S
C396 H455 0.958 . S
C397 C396 1.582 . S
C397 O400 1.458 . S
C397 H426 0.980 . S
O398 C343 1.426 . S
O398 C344 1.334 . S
O399 C371 1.412 . S
O399 C372 1.393 . S
O400 C362 1.435 . S
O400 C397 1.458 . S
O401 C353 1.468 . S
O401 C354 1.408 . S
H402 C343 0.980 . S
H403 C342 0.959 . S
H404 C342 0.959 . S
H405 C342 0.960 . S
H406 C345 0.929 . S
H407 C349 0.929 . S
H408 C350 0.959 . S
H409 C350 0.961 . S
H410 C350 0.961 . S
H411 C351 0.960 . S
H412 C351 0.960 . S
H413 C351 0.961 . S
H414 C353 0.980 . S
H415 C352 0.961 . S
H416 C352 0.960 . S
H417 C352 0.959 . S
H418 C355 0.930 . S
H419 C359 0.931 . S
H420 C360 0.959 . S
H421 C360 0.961 . S
H422 C360 0.959 1_655 S
H423 C361 0.960 . S
H424 C361 0.960 . S
H425 C361 0.960 . S
H426 C397 0.980 . S
H427 C363 0.930 . S
H428 C367 0.930 . S
H429 C368 0.961 . S
H430 C368 0.960 . S
H431 C368 0.958 . S
H432 C369 0.961 . S
H433 C369 0.960 . S
H434 C369 0.960 . S
H435 C371 0.980 . S
H436 C370 0.961 . S
H437 C370 0.961 . S
H438 C370 0.959 . S
H439 C373 0.932 . S
H440 C377 0.929 . S
H441 C378 0.961 . S
H442 C378 0.959 . S
H443 C378 0.959 . S
H444 C379 0.960 . S
H445 C379 0.962 . S
H446 C379 0.961 . S
H447 C381 0.929 . S
H448 C384 0.930 . S
H449 C385 0.929 . S
H450 C388 0.932 1_655 S
H451 C391 0.929 . S
H452 C392 0.930 . S
H453 C396 0.962 . S
H454 C396 0.959 . S
H455 C396 0.958 . S
C456 C457 1.560 . S
C456 H517 0.959 . S
C456 H518 0.959 . S
C456 H519 0.960 . S
C457 C456 1.560 . S
C457 O512 1.426 . S
C457 H516 0.980 . S
C458 C459 1.407 . S
C458 C463 1.418 . S
C458 O512 1.334 . S
C459 C458 1.407 . S
C459 C460 1.360 . S
C459 H520 0.929 . S
C460 C459 1.360 . S
C460 C461 1.401 . S
C460 C464 1.527 . S
C461 C460 1.401 . S
C461 C462 1.405 . S
C461 C494 1.587 . S
C462 C461 1.405 . S
C462 C463 1.332 . S
C462 C465 1.496 . S
C463 C458 1.418 . S
C463 C462 1.332 . S
C463 H521 0.929 . S
C464 C460 1.527 . S
C464 H522 0.959 . S
C464 H523 0.961 . S
C464 H524 0.961 . S
C465 C462 1.496 . S
C465 H525 0.960 . S
C465 H526 0.960 . S
C465 H527 0.961 . S
C466 C467 1.517 . S
C466 H529 0.961 . S
C466 H530 0.960 . S
C466 H531 0.959 . S
C467 C466 1.517 . S
C467 O515 1.468 . S
C467 H528 0.980 . S
C468 C469 1.349 . S
C468 C473 1.367 . S
C468 O515 1.408 . S
C469 C468 1.349 . S
C469 C470 1.407 . S
C469 H532 0.930 . S
C470 C469 1.407 . S
C470 C471 1.449 . S
C470 C474 1.535 . S
C471 C470 1.449 . S
C471 C472 1.384 . S
C471 C496 1.553 . S
C472 C471 1.384 . S
C472 C473 1.364 . S
C472 C475 1.450 . S
C473 C468 1.367 . S
C473 C472 1.364 . S
C473 H533 0.931 . S
C474 C470 1.535 . S
C474 H534 0.959 . S
C474 H535 0.961 . S
C474 H536 0.959 . S
C475 C472 1.450 . S
C475 H537 0.960 . S
C475 H538 0.960 . S
C475 H539 0.960 . S
C476 C477 1.309 . S
C476 C481 1.304 . S
C476 O514 1.435 . S
C477 C476 1.309 . S
C477 C478 1.476 . S
C477 H541 0.930 . S
C478 C477 1.476 . S
C478 C479 1.400 . S
C478 C482 1.567 . S
C479 C478 1.400 . S
C479 C480 1.373 . S
C479 C501 1.432 . S
C480 C479 1.373 . S
C480 C481 1.339 . S
C480 C483 1.530 . S
C481 C476 1.304 . S
C481 C480 1.339 . S
C481 H542 0.930 . S
C482 C478 1.567 . S
C482 H543 0.961 . S
C482 H544 0.960 . S
C482 H545 0.958 . S
C483 C480 1.530 . S
C483 H546 0.961 . S
C483 H547 0.960 . S
C483 H548 0.960 . S
C484 C485 1.530 . S
C484 H550 0.961 . S
C484 H551 0.961 . S
C484 H552 0.959 . S
C485 C484 1.530 . S
C485 O513 1.412 . S
C485 H549 0.980 . S
C486 C487 1.288 . S
C486 C491 1.377 . S
C486 O513 1.393 . S
C487 C486 1.288 . S
C487 C488 1.369 1_565 S
C487 H553 0.932 . S
C488 C487 1.369 1_545 S
C488 C489 1.398 . S
C488 C492 1.527 . S
C489 C488 1.398 . S
C489 C490 1.380 1_545 S
C489 C503 1.497 . S
C490 C489 1.380 1_565 S
C490 C491 1.383 . S
C490 C493 1.603 . S
C491 C486 1.377 . S
C491 C490 1.383 . S
C491 H554 0.929 . S
C492 C488 1.527 . S
C492 H555 0.961 . S
C492 H556 0.959 . S
C492 H557 0.959 . S
C493 C490 1.603 . S
C493 H558 0.960 . S
C493 H559 0.962 1_565 S
C493 H560 0.961 . S
C494 C461 1.587 . S
C494 C495 1.360 . S
C494 C507 1.412 . S
C495 C494 1.360 . S
C495 C496 1.365 1_565 S
C495 H561 0.929 . S
C496 C471 1.553 . S
C496 C495 1.365 1_545 S
C496 C497 1.404 . S
C497 C496 1.404 . S
C497 C498 1.395 . S
C497 C508 1.451 . S
C498 C497 1.395 . S
C498 C499 1.322 . S
C498 H562 0.930 . S
C499 C498 1.322 . S
C499 C500 1.459 . S
C499 H563 0.929 . S
C500 C499 1.459 . S
C500 C501 1.445 1_556 S
C500 C509 1.395 . S
C501 C479 1.432 . S
C501 C500 1.445 1_554 S
C501 C502 1.370 . S
C502 C501 1.370 . S
C502 C503 1.438 . S
C502 H564 0.930 . S
C503 C489 1.497 . S
C503 C502 1.438 . S
C503 C504 1.360 . S
C504 C503 1.360 . S
C504 C505 1.401 1_545 S
C504 C509 1.446 1_554 S
C505 C504 1.401 1_565 S
C505 C506 1.347 1_554 S
C505 H565 0.929 . S
C506 C505 1.347 1_556 S
C506 C507 1.455 . S
C506 H566 0.930 . S
C507 C494 1.412 . S
C507 C506 1.455 . S
C507 C508 1.331 1_565 S
C508 C497 1.451 . S
C508 C507 1.331 1_545 S
C508 C509 1.497 . S
C509 C500 1.395 . S
C509 C504 1.446 1_556 S
C509 C508 1.497 . S
C510 C511 1.582 . S
C510 H567 0.962 . S
C510 H568 0.959 . S
C510 H569 0.958 . S
C511 C510 1.582 . S
C511 O514 1.458 . S
C511 H540 0.980 . S
O512 C457 1.426 . S
O512 C458 1.334 . S
O513 C485 1.412 . S
O513 C486 1.393 . S
O514 C476 1.435 . S
O514 C511 1.458 . S
O515 C467 1.468 . S
O515 C468 1.408 . S
H516 C457 0.980 . S
H517 C456 0.959 . S
H518 C456 0.959 . S
H519 C456 0.960 . S
H520 C459 0.929 . S
H521 C463 0.929 . S
H522 C464 0.959 . S
H523 C464 0.961 . S
H524 C464 0.961 . S
H525 C465 0.960 . S
H526 C465 0.960 . S
H527 C465 0.961 . S
H528 C467 0.980 . S
H529 C466 0.961 . S
H530 C466 0.960 . S
H531 C466 0.959 . S
H532 C469 0.930 . S
H533 C473 0.931 . S
H534 C474 0.959 . S
H535 C474 0.961 . S
H536 C474 0.959 . S
H537 C475 0.960 . S
H538 C475 0.960 . S
H539 C475 0.960 . S
H540 C511 0.980 . S
H541 C477 0.930 . S
H542 C481 0.930 . S
H543 C482 0.961 . S
H544 C482 0.960 . S
H545 C482 0.958 . S
H546 C483 0.961 . S
H547 C483 0.960 . S
H548 C483 0.960 . S
H549 C485 0.980 . S
H550 C484 0.961 . S
H551 C484 0.961 . S
H552 C484 0.959 . S
H553 C487 0.932 . S
H554 C491 0.929 . S
H555 C492 0.961 . S
H556 C492 0.959 . S
H557 C492 0.959 . S
H558 C493 0.960 . S
H559 C493 0.962 1_545 S
H560 C493 0.961 . S
H561 C495 0.929 . S
H562 C498 0.930 . S
H563 C499 0.929 . S
H564 C502 0.930 . S
H565 C505 0.929 . S
H566 C506 0.930 . S
H567 C510 0.962 . S
H568 C510 0.959 . S
H569 C510 0.958 . S
C570 C571 1.560 . S
C570 H631 0.959 . S
C570 H632 0.959 . S
C570 H633 0.960 . S
C571 C570 1.560 . S
C571 O626 1.426 . S
C571 H630 0.980 . S
C572 C573 1.407 . S
C572 C577 1.418 . S
C572 O626 1.334 . S
C573 C572 1.407 . S
C573 C574 1.360 . S
C573 H634 0.929 . S
C574 C573 1.360 . S
C574 C575 1.401 . S
C574 C578 1.527 . S
C575 C574 1.401 . S
C575 C576 1.405 . S
C575 C608 1.587 . S
C576 C575 1.405 . S
C576 C577 1.332 . S
C576 C579 1.496 . S
C577 C572 1.418 . S
C577 C576 1.332 . S
C577 H635 0.929 . S
C578 C574 1.527 . S
C578 H636 0.959 . S
C578 H637 0.961 . S
C578 H638 0.961 . S
C579 C576 1.496 . S
C579 H639 0.960 . S
C579 H640 0.960 . S
C579 H641 0.961 . S
C580 C581 1.517 . S
C580 H643 0.961 . S
C580 H644 0.960 . S
C580 H645 0.959 . S
C581 C580 1.517 . S
C581 O629 1.468 . S
C581 H642 0.980 . S
C582 C583 1.349 . S
C582 C587 1.367 . S
C582 O629 1.408 . S
C583 C582 1.349 . S
C583 C584 1.407 . S
C583 H646 0.930 . S
C584 C583 1.407 . S
C584 C585 1.449 . S
C584 C588 1.535 . S
C585 C584 1.449 . S
C585 C586 1.384 . S
C585 C610 1.553 . S
C586 C585 1.384 . S
C586 C587 1.364 . S
C586 C589 1.450 . S
C587 C582 1.367 . S
C587 C586 1.364 . S
C587 H647 0.931 . S
C588 C584 1.535 . S
C588 H648 0.959 . S
C588 H649 0.961 . S
C588 H650 0.959 . S
C589 C586 1.450 . S
C589 H651 0.960 . S
C589 H652 0.960 . S
C589 H653 0.960 . S
C590 C591 1.309 . S
C590 C595 1.304 . S
C590 O628 1.435 . S
C591 C590 1.309 . S
C591 C592 1.476 . S
C591 H655 0.930 . S
C592 C591 1.476 . S
C592 C593 1.400 . S
C592 C596 1.567 . S
C593 C592 1.400 . S
C593 C594 1.373 . S
C593 C615 1.432 . S
C594 C593 1.373 . S
C594 C595 1.339 . S
C594 C597 1.530 . S
C595 C590 1.304 . S
C595 C594 1.339 . S
C595 H656 0.930 . S
C596 C592 1.567 . S
C596 H657 0.961 . S
C596 H658 0.960 . S
C596 H659 0.958 . S
C597 C594 1.530 . S
C597 H660 0.961 . S
C597 H661 0.960 . S
C597 H662 0.960 . S
C598 C599 1.530 . S
C598 H664 0.961 . S
C598 H665 0.961 . S
C598 H666 0.959 . S
C599 C598 1.530 . S
C599 O627 1.412 . S
C599 H663 0.980 . S
C600 C601 1.288 . S
C600 C605 1.377 . S
C600 O627 1.393 . S
C601 C600 1.288 . S
C601 C602 1.369 . S
C601 H667 0.932 . S
C602 C601 1.369 . S
C602 C603 1.398 . S
C602 C606 1.527 . S
C603 C602 1.398 . S
C603 C604 1.380 . S
C603 C617 1.497 . S
C604 C603 1.380 . S
C604 C605 1.383 . S
C604 C607 1.603 . S
C605 C600 1.377 . S
C605 C604 1.383 . S
C605 H668 0.929 . S
C606 C602 1.527 . S
C606 H669 0.961 . S
C606 H670 0.959 . S
C606 H671 0.959 . S
C607 C604 1.603 . S
C607 H672 0.960 . S
C607 H673 0.962 . S
C607 H674 0.961 . S
C608 C575 1.587 . S
C608 C609 1.360 . S
C608 C621 1.412 . S
C609 C608 1.360 . S
C609 C610 1.365 . S
C609 H675 0.929 . S
C610 C585 1.553 . S
C610 C609 1.365 . S
C610 C611 1.404 . S
C611 C610 1.404 . S
C611 C612 1.395 . S
C611 C622 1.451 . S
C612 C611 1.395 . S
C612 C613 1.322 . S
C612 H676 0.930 . S
C613 C612 1.322 . S
C613 C614 1.459 . S
C613 H677 0.929 . S
C614 C613 1.459 . S
C614 C615 1.445 . S
C614 C623 1.395 . S
C615 C593 1.432 . S
C615 C614 1.445 . S
C615 C616 1.370 . S
C616 C615 1.370 . S
C616 C617 1.438 . S
C616 H678 0.930 . S
C617 C603 1.497 . S
C617 C616 1.438 . S
C617 C618 1.360 . S
C618 C617 1.360 . S
C618 C619 1.401 . S
C618 C623 1.446 . S
C619 C618 1.401 . S
C619 C620 1.347 . S
C619 H679 0.929 . S
C620 C619 1.347 . S
C620 C621 1.455 . S
C620 H680 0.930 . S
C621 C608 1.412 . S
C621 C620 1.455 . S
C621 C622 1.331 . S
C622 C611 1.451 . S
C622 C621 1.331 . S
C622 C623 1.497 . S
C623 C614 1.395 . S
C623 C618 1.446 . S
C623 C622 1.497 . S
C624 C625 1.582 . S
C624 H681 0.962 . S
C624 H682 0.959 . S
C624 H683 0.958 . S
C625 C624 1.582 . S
C625 O628 1.458 . S
C625 H654 0.980 . S
O626 C571 1.426 . S
O626 C572 1.334 . S
O627 C599 1.412 . S
O627 C600 1.393 . S
O628 C590 1.435 . S
O628 C625 1.458 . S
O629 C581 1.468 . S
O629 C582 1.408 . S
H630 C571 0.980 . S
H631 C570 0.959 . S
H632 C570 0.959 . S
H633 C570 0.960 . S
H634 C573 0.929 . S
H635 C577 0.929 . S
H636 C578 0.959 . S
H637 C578 0.961 . S
H638 C578 0.961 . S
H639 C579 0.960 . S
H640 C579 0.960 . S
H641 C579 0.961 . S
H642 C581 0.980 . S
H643 C580 0.961 . S
H644 C580 0.960 . S
H645 C580 0.959 . S
H646 C583 0.930 . S
H647 C587 0.931 . S
H648 C588 0.959 . S
H649 C588 0.961 . S
H650 C588 0.959 . S
H651 C589 0.960 . S
H652 C589 0.960 . S
H653 C589 0.960 . S
H654 C625 0.980 . S
H655 C591 0.930 . S
H656 C595 0.930 . S
H657 C596 0.961 . S
H658 C596 0.960 . S
H659 C596 0.958 . S
H660 C597 0.961 . S
H661 C597 0.960 . S
H662 C597 0.960 . S
H663 C599 0.980 . S
H664 C598 0.961 . S
H665 C598 0.961 . S
H666 C598 0.959 . S
H667 C601 0.932 . S
H668 C605 0.929 . S
H669 C606 0.961 . S
H670 C606 0.959 . S
H671 C606 0.959 . S
H672 C607 0.960 . S
H673 C607 0.962 . S
H674 C607 0.961 . S
H675 C609 0.929 . S
H676 C612 0.930 . S
H677 C613 0.929 . S
H678 C616 0.930 . S
H679 C619 0.929 . S
H680 C620 0.930 . S
H681 C624 0.962 . S
H682 C624 0.959 . S
H683 C624 0.958 . S
In684 O685 2.294 . S
In684 O686 2.326 . S
In684 O690 2.266 . S
In684 O691 2.326 . S
In684 O692 2.266 . S
In684 O693 2.326 . S
In684 O695 2.294 . S
In684 O696 2.326 . S
O685 In684 2.294 . S
O685 C694 1.240 . S
O686 In684 2.326 . S
O686 C694 1.252 . S
C687 O690 1.252 . S
C687 O691 1.260 . S
C688 O695 1.240 . S
C688 O696 1.252 . S
C689 O692 1.252 . S
C689 O693 1.260 . S
O690 In684 2.266 . S
O690 C687 1.252 . S
O691 In684 2.326 . S
O691 C687 1.260 . S
O692 In684 2.266 . S
O692 C689 1.252 . S
O693 In684 2.326 . S
O693 C689 1.260 . S
C694 O685 1.240 . S
C694 O686 1.252 . S
O695 In684 2.294 . S
O695 C688 1.240 . S
O696 In684 2.326 . S
O696 C688 1.252 . S
In697 O698 2.294 . S
In697 O699 2.326 . S
In697 O703 2.266 . S
In697 O704 2.326 . S
In697 O705 2.266 . S
In697 O706 2.326 . S
In697 O708 2.294 . S
In697 O709 2.326 . S
O698 In697 2.294 . S
O698 C707 1.240 . S
O699 In697 2.326 . S
O699 C707 1.252 . S
C700 O703 1.252 . S
C700 O704 1.260 . S
C701 O708 1.240 . S
C701 O709 1.252 . S
C702 O705 1.252 . S
C702 O706 1.260 . S
O703 In697 2.266 . S
O703 C700 1.252 . S
O704 In697 2.326 . S
O704 C700 1.260 . S
O705 In697 2.266 . S
O705 C702 1.252 . S
O706 In697 2.326 . S
O706 C702 1.260 . S
C707 O698 1.240 . S
C707 O699 1.252 . S
O708 In697 2.294 . S
O708 C701 1.240 . S
O709 In697 2.326 . S
O709 C701 1.252 . S
In710 O711 2.294 . S
In710 O712 2.326 . S
In710 O716 2.266 . S
In710 O717 2.326 . S
In710 O718 2.266 . S
In710 O719 2.326 . S
In710 O721 2.294 . S
In710 O722 2.326 . S
O711 In710 2.294 . S
O711 C720 1.240 . S
O712 In710 2.326 . S
O712 C720 1.252 . S
C713 O716 1.252 . S
C713 O717 1.260 . S
C714 O721 1.240 . S
C714 O722 1.252 . S
C715 O718 1.252 . S
C715 O719 1.260 . S
O716 In710 2.266 . S
O716 C713 1.252 . S
O717 In710 2.326 . S
O717 C713 1.260 . S
O718 In710 2.266 . S
O718 C715 1.252 . S
O719 In710 2.326 . S
O719 C715 1.260 . S
C720 O711 1.240 . S
C720 O712 1.252 . S
O721 In710 2.294 . S
O721 C714 1.240 . S
O722 In710 2.326 . S
O722 C714 1.252 . S
In723 O724 2.294 . S
In723 O725 2.326 . S
In723 O729 2.266 . S
In723 O730 2.326 . S
In723 O731 2.266 . S
In723 O732 2.326 . S
In723 O734 2.294 . S
In723 O735 2.326 . S
O724 In723 2.294 . S
O724 C733 1.240 . S
O725 In723 2.326 . S
O725 C733 1.252 . S
C726 O729 1.252 . S
C726 O730 1.260 . S
C727 O734 1.240 . S
C727 O735 1.252 . S
C728 O731 1.252 . S
C728 O732 1.260 . S
O729 In723 2.266 . S
O729 C726 1.252 . S
O730 In723 2.326 . S
O730 C726 1.260 . S
O731 In723 2.266 . S
O731 C728 1.252 . S
O732 In723 2.326 . S
O732 C728 1.260 . S
C733 O724 1.240 . S
C733 O725 1.252 . S
O734 In723 2.294 . S
O734 C727 1.240 . S
O735 In723 2.326 . S
O735 C727 1.252 . S
In736 O737 2.294 . S
In736 O738 2.326 . S
In736 O742 2.266 . S
In736 O743 2.326 . S
In736 O744 2.266 . S
In736 O745 2.326 . S
In736 O747 2.294 . S
In736 O748 2.326 . S
O737 In736 2.294 . S
O737 C746 1.240 . S
O738 In736 2.326 . S
O738 C746 1.252 . S
C739 O742 1.252 . S
C739 O743 1.260 . S
C740 O747 1.240 . S
C740 O748 1.252 . S
C741 O744 1.252 . S
C741 O745 1.260 . S
O742 In736 2.266 . S
O742 C739 1.252 . S
O743 In736 2.326 . S
O743 C739 1.260 . S
O744 In736 2.266 . S
O744 C741 1.252 . S
O745 In736 2.326 . S
O745 C741 1.260 . S
C746 O737 1.240 . S
C746 O738 1.252 . S
O747 In736 2.294 . S
O747 C740 1.240 . S
O748 In736 2.326 . S
O748 C740 1.252 . S
In749 O750 2.294 . S
In749 O751 2.326 . S
In749 O755 2.266 . S
In749 O756 2.326 . S
In749 O757 2.266 . S
In749 O758 2.326 . S
In749 O760 2.294 . S
In749 O761 2.326 . S
O750 In749 2.294 . S
O750 C759 1.240 . S
O751 In749 2.326 . S
O751 C759 1.252 . S
C752 O755 1.252 . S
C752 O756 1.260 . S
C753 O760 1.240 . S
C753 O761 1.252 . S
C754 O757 1.252 . S
C754 O758 1.260 . S
O755 In749 2.266 . S
O755 C752 1.252 . S
O756 In749 2.326 . S
O756 C752 1.260 . S
O757 In749 2.266 . S
O757 C754 1.252 . S
O758 In749 2.326 . S
O758 C754 1.260 . S
C759 O750 1.240 . S
C759 O751 1.252 . S
O760 In749 2.294 . S
O760 C753 1.240 . S
O761 In749 2.326 . S
O761 C753 1.252 . S
C762 C763 1.349 . S
C762 C764 1.327 . S
C762 H787 0.950 . S
C763 C762 1.349 . S
C763 C779 1.349 . S
C764 C762 1.327 . S
C764 C783 1.429 . S
C764 H788 0.950 . S
C765 C782 1.574 . S
C765 C784 1.368 . S
C765 H789 0.949 . S
H766 C770 0.949 . S
C767 C768 1.349 . S
C767 C769 1.327 . S
C767 H790 0.950 . S
C768 C767 1.349 . S
C768 C780 1.349 . S
C769 C767 1.327 . S
C769 C785 1.429 . S
C769 H791 0.950 . S
C770 H766 0.949 . S
C770 C778 1.574 . S
C770 C786 1.368 . S
H771 C779 0.950 . S
H772 C777 0.950 . S
H773 C778 0.949 . S
H774 C780 0.950 . S
H775 C781 0.950 . S
H776 C782 0.949 . S
C777 H772 0.950 . S
C777 C779 1.327 . S
C777 C783 1.429 . S
C778 C770 1.574 . S
C778 H773 0.949 . S
C778 C784 1.368 . S
C779 C763 1.349 . S
C779 H771 0.950 . S
C779 C777 1.327 . S
C780 C768 1.349 . S
C780 H774 0.950 . S
C780 C781 1.327 . S
C781 H775 0.950 . S
C781 C780 1.327 . S
C781 C785 1.429 . S
C782 C765 1.574 . S
C782 H776 0.949 . S
C782 C786 1.368 . S
C783 C764 1.429 . S
C783 C777 1.429 . S
C783 C784 1.523 . S
C784 C765 1.368 . S
C784 C778 1.368 . S
C784 C783 1.523 . S
C785 C769 1.429 . S
C785 C781 1.429 . S
C785 C786 1.523 . S
C786 C770 1.368 . S
C786 C782 1.368 . S
C786 C785 1.523 . S
H787 C762 0.950 . S
H788 C764 0.950 . S
H789 C765 0.949 . S
H790 C767 0.950 . S
H791 C769 0.950 . S
C792 C793 1.349 . S
C792 C794 1.327 . S
C792 H817 0.950 . S
C793 C792 1.349 . S
C793 C809 1.349 . S
C794 C792 1.327 . S
C794 C813 1.429 . S
C794 H818 0.950 . S
C795 C812 1.574 . S
C795 C814 1.368 . S
C795 H819 0.949 . S
H796 C800 0.949 . S
C797 C798 1.349 . S
C797 C799 1.327 . S
C797 H820 0.950 . S
C798 C797 1.349 . S
C798 C810 1.349 . S
C799 C797 1.327 . S
C799 C815 1.429 . S
C799 H821 0.950 . S
C800 H796 0.949 . S
C800 C808 1.574 . S
C800 C816 1.368 . S
H801 C809 0.950 . S
H802 C807 0.950 . S
H803 C808 0.949 . S
H804 C810 0.950 . S
H805 C811 0.950 . S
H806 C812 0.949 . S
C807 H802 0.950 . S
C807 C809 1.327 . S
C807 C813 1.429 . S
C808 C800 1.574 . S
C808 H803 0.949 . S
C808 C814 1.368 . S
C809 C793 1.349 . S
C809 H801 0.950 . S
C809 C807 1.327 . S
C810 C798 1.349 . S
C810 H804 0.950 . S
C810 C811 1.327 . S
C811 H805 0.950 . S
C811 C810 1.327 . S
C811 C815 1.429 . S
C812 C795 1.574 . S
C812 H806 0.949 . S
C812 C816 1.368 . S
C813 C794 1.429 . S
C813 C807 1.429 . S
C813 C814 1.523 . S
C814 C795 1.368 . S
C814 C808 1.368 . S
C814 C813 1.523 . S
C815 C799 1.429 . S
C815 C811 1.429 . S
C815 C816 1.523 . S
C816 C800 1.368 . S
C816 C812 1.368 . S
C816 C815 1.523 . S
H817 C792 0.950 . S
H818 C794 0.950 . S
H819 C795 0.949 . S
H820 C797 0.950 . S
H821 C799 0.950 . S
C822 C823 1.349 . S
C822 C824 1.327 . S
C822 H847 0.950 . S
C823 C822 1.349 . S
C823 C839 1.349 . S
C824 C822 1.327 . S
C824 C843 1.429 . S
C824 H848 0.950 . S
C825 C842 1.574 . S
C825 C844 1.368 . S
C825 H849 0.949 . S
H826 C830 0.949 . S
C827 C828 1.349 . S
C827 C829 1.327 . S
C827 H850 0.950 . S
C828 C827 1.349 . S
C828 C840 1.349 . S
C829 C827 1.327 . S
C829 C845 1.429 . S
C829 H851 0.950 . S
C830 H826 0.949 . S
C830 C838 1.574 . S
C830 C846 1.368 . S
H831 C839 0.950 . S
H832 C837 0.950 . S
H833 C838 0.949 . S
H834 C840 0.950 . S
H835 C841 0.950 . S
H836 C842 0.949 . S
C837 H832 0.950 . S
C837 C839 1.327 . S
C837 C843 1.429 . S
C838 C830 1.574 . S
C838 H833 0.949 . S
C838 C844 1.368 . S
C839 C823 1.349 . S
C839 H831 0.950 . S
C839 C837 1.327 . S
C840 C828 1.349 . S
C840 H834 0.950 . S
C840 C841 1.327 . S
C841 H835 0.950 . S
C841 C840 1.327 . S
C841 C845 1.429 . S
C842 C825 1.574 . S
C842 H836 0.949 . S
C842 C846 1.368 . S
C843 C824 1.429 . S
C843 C837 1.429 . S
C843 C844 1.523 . S
C844 C825 1.368 . S
C844 C838 1.368 . S
C844 C843 1.523 . S
C845 C829 1.429 . S
C845 C841 1.429 . S
C845 C846 1.523 . S
C846 C830 1.368 . S
C846 C842 1.368 . S
C846 C845 1.523 . S
H847 C822 0.950 . S
H848 C824 0.950 . S
H849 C825 0.949 . S
H850 C827 0.950 . S
H851 C829 0.950 . S
C852 C853 1.349 . S
C852 C854 1.327 . S
C852 H877 0.950 . S
C853 C852 1.349 . S
C853 C869 1.349 . S
C854 C852 1.327 . S
C854 C873 1.429 . S
C854 H878 0.950 . S
C855 C872 1.574 . S
C855 C874 1.368 . S
C855 H879 0.949 . S
H856 C860 0.949 . S
C857 C858 1.349 . S
C857 C859 1.327 . S
C857 H880 0.950 . S
C858 C857 1.349 . S
C858 C870 1.349 . S
C859 C857 1.327 . S
C859 C875 1.429 . S
C859 H881 0.950 . S
C860 H856 0.949 . S
C860 C868 1.574 . S
C860 C876 1.368 . S
H861 C869 0.950 . S
H862 C867 0.950 . S
H863 C868 0.949 . S
H864 C870 0.950 . S
H865 C871 0.950 . S
H866 C872 0.949 . S
C867 H862 0.950 . S
C867 C869 1.327 . S
C867 C873 1.429 . S
C868 C860 1.574 . S
C868 H863 0.949 . S
C868 C874 1.368 . S
C869 C853 1.349 . S
C869 H861 0.950 . S
C869 C867 1.327 . S
C870 C858 1.349 . S
C870 H864 0.950 . S
C870 C871 1.327 . S
C871 H865 0.950 . S
C871 C870 1.327 . S
C871 C875 1.429 . S
C872 C855 1.574 . S
C872 H866 0.949 . S
C872 C876 1.368 . S
C873 C854 1.429 . S
C873 C867 1.429 . S
C873 C874 1.523 . S
C874 C855 1.368 . S
C874 C868 1.368 . S
C874 C873 1.523 . S
C875 C859 1.429 . S
C875 C871 1.429 . S
C875 C876 1.523 . S
C876 C860 1.368 . S
C876 C872 1.368 . S
C876 C875 1.523 . S
H877 C852 0.950 . S
H878 C854 0.950 . S
H879 C855 0.949 . S
H880 C857 0.950 . S
H881 C859 0.950 . S
C882 C883 1.349 . S
C882 C884 1.327 . S
C882 H907 0.950 . S
C883 C882 1.349 . S
C883 C899 1.349 . S
C884 C882 1.327 . S
C884 C903 1.429 . S
C884 H908 0.950 . S
C885 C902 1.574 . S
C885 C904 1.368 . S
C885 H909 0.949 . S
H886 C890 0.949 . S
C887 C888 1.349 . S
C887 C889 1.327 . S
C887 H910 0.950 . S
C888 C887 1.349 . S
C888 C900 1.349 . S
C889 C887 1.327 . S
C889 C905 1.429 . S
C889 H911 0.950 . S
C890 H886 0.949 . S
C890 C898 1.574 . S
C890 C906 1.368 . S
H891 C899 0.950 . S
H892 C897 0.950 . S
H893 C898 0.949 . S
H894 C900 0.950 . S
H895 C901 0.950 . S
H896 C902 0.949 . S
C897 H892 0.950 . S
C897 C899 1.327 . S
C897 C903 1.429 . S
C898 C890 1.574 . S
C898 H893 0.949 . S
C898 C904 1.368 . S
C899 C883 1.349 . S
C899 H891 0.950 . S
C899 C897 1.327 . S
C900 C888 1.349 . S
C900 H894 0.950 . S
C900 C901 1.327 . S
C901 H895 0.950 . S
C901 C900 1.327 . S
C901 C905 1.429 . S
C902 C885 1.574 . S
C902 H896 0.949 . S
C902 C906 1.368 . S
C903 C884 1.429 . S
C903 C897 1.429 . S
C903 C904 1.523 . S
C904 C885 1.368 . S
C904 C898 1.368 . S
C904 C903 1.523 . S
C905 C889 1.429 . S
C905 C901 1.429 . S
C905 C906 1.523 . S
C906 C890 1.368 . S
C906 C902 1.368 . S
C906 C905 1.523 . S
H907 C882 0.950 . S
H908 C884 0.950 . S
H909 C885 0.949 . S
H910 C887 0.950 . S
H911 C889 0.950 . S
C912 C913 1.349 . S
C912 C914 1.327 . S
C912 H937 0.950 . S
C913 C912 1.349 . S
C913 C929 1.349 . S
C914 C912 1.327 . S
C914 C933 1.429 . S
C914 H938 0.950 . S
C915 C932 1.574 . S
C915 C934 1.368 . S
C915 H939 0.949 . S
H916 C920 0.949 . S
C917 C918 1.349 . S
C917 C919 1.327 . S
C917 H940 0.950 . S
C918 C917 1.349 . S
C918 C930 1.349 . S
C919 C917 1.327 . S
C919 C935 1.429 . S
C919 H941 0.950 . S
C920 H916 0.949 . S
C920 C928 1.574 . S
C920 C936 1.368 . S
H921 C929 0.950 . S
H922 C927 0.950 . S
H923 C928 0.949 . S
H924 C930 0.950 . S
H925 C931 0.950 . S
H926 C932 0.949 . S
C927 H922 0.950 . S
C927 C929 1.327 . S
C927 C933 1.429 . S
C928 C920 1.574 . S
C928 H923 0.949 . S
C928 C934 1.368 . S
C929 C913 1.349 . S
C929 H921 0.950 . S
C929 C927 1.327 . S
C930 C918 1.349 . S
C930 H924 0.950 . S
C930 C931 1.327 . S
C931 H925 0.950 . S
C931 C930 1.327 . S
C931 C935 1.429 . S
C932 C915 1.574 . S
C932 H926 0.949 . S
C932 C936 1.368 . S
C933 C914 1.429 . S
C933 C927 1.429 . S
C933 C934 1.523 . S
C934 C915 1.368 . S
C934 C928 1.368 . S
C934 C933 1.523 . S
C935 C919 1.429 . S
C935 C931 1.429 . S
C935 C936 1.523 . S
C936 C920 1.368 . S
C936 C932 1.368 . S
C936 C935 1.523 . S
H937 C912 0.950 . S
H938 C914 0.950 . S
H939 C915 0.949 . S
H940 C917 0.950 . S
H941 C919 0.950 . S
C942 C943 1.349 . S
C942 C944 1.327 . S
C942 H967 0.950 . S
C943 C942 1.349 . S
C943 C959 1.349 . S
C944 C942 1.327 . S
C944 C963 1.429 . S
C944 H968 0.950 . S
C945 C962 1.574 . S
C945 C964 1.368 . S
C945 H969 0.949 . S
H946 C950 0.949 . S
C947 C948 1.349 . S
C947 C949 1.327 . S
C947 H970 0.950 . S
C948 C947 1.349 . S
C948 C960 1.349 . S
C949 C947 1.327 . S
C949 C965 1.429 . S
C949 H971 0.950 . S
C950 H946 0.949 . S
C950 C958 1.574 . S
C950 C966 1.368 . S
H951 C959 0.950 . S
H952 C957 0.950 . S
H953 C958 0.949 . S
H954 C960 0.950 . S
H955 C961 0.950 . S
H956 C962 0.949 . S
C957 H952 0.950 . S
C957 C959 1.327 . S
C957 C963 1.429 . S
C958 C950 1.574 . S
C958 H953 0.949 . S
C958 C964 1.368 . S
C959 C943 1.349 . S
C959 H951 0.950 . S
C959 C957 1.327 . S
C960 C948 1.349 . S
C960 H954 0.950 . S
C960 C961 1.327 . S
C961 H955 0.950 . S
C961 C960 1.327 . S
C961 C965 1.429 . S
C962 C945 1.574 . S
C962 H956 0.949 . S
C962 C966 1.368 . S
C963 C944 1.429 . S
C963 C957 1.429 . S
C963 C964 1.523 . S
C964 C945 1.368 . S
C964 C958 1.368 . S
C964 C963 1.523 . S
C965 C949 1.429 . S
C965 C961 1.429 . S
C965 C966 1.523 . S
C966 C950 1.368 . S
C966 C962 1.368 . S
C966 C965 1.523 . S
H967 C942 0.950 . S
H968 C944 0.950 . S
H969 C945 0.949 . S
H970 C947 0.950 . S
H971 C949 0.950 . S
C972 C973 1.349 . S
C972 C974 1.327 . S
C972 H997 0.950 . S
C973 C972 1.349 . S
C973 C989 1.349 . S
C974 C972 1.327 . S
C974 C993 1.429 . S
C974 H998 0.950 . S
C975 C992 1.574 . S
C975 C994 1.368 . S
C975 H999 0.949 . S
H976 C980 0.949 . S
C977 C978 1.349 . S
C977 C979 1.327 . S
C977 H1000 0.950 . S
C978 C977 1.349 . S
C978 C990 1.349 . S
C979 C977 1.327 . S
C979 C995 1.429 . S
C979 H1001 0.950 . S
C980 H976 0.949 . S
C980 C988 1.574 . S
C980 C996 1.368 . S
H981 C989 0.950 . S
H982 C987 0.950 . S
H983 C988 0.949 . S
H984 C990 0.950 . S
H985 C991 0.950 . S
H986 C992 0.949 . S
C987 H982 0.950 . S
C987 C989 1.327 . S
C987 C993 1.429 . S
C988 C980 1.574 . S
C988 H983 0.949 . S
C988 C994 1.368 . S
C989 C973 1.349 . S
C989 H981 0.950 . S
C989 C987 1.327 . S
C990 C978 1.349 . S
C990 H984 0.950 . S
C990 C991 1.327 . S
C991 H985 0.950 . S
C991 C990 1.327 . S
C991 C995 1.429 . S
C992 C975 1.574 . S
C992 H986 0.949 . S
C992 C996 1.368 . S
C993 C974 1.429 . S
C993 C987 1.429 . S
C993 C994 1.523 . S
C994 C975 1.368 . S
C994 C988 1.368 . S
C994 C993 1.523 . S
C995 C979 1.429 . S
C995 C991 1.429 . S
C995 C996 1.523 . S
C996 C980 1.368 . S
C996 C992 1.368 . S
C996 C995 1.523 . S
H997 C972 0.950 . S
H998 C974 0.950 . S
H999 C975 0.949 . S
H1000 C977 0.950 . S
H1001 C979 0.950 . S
C1002 C1003 1.349 . S
C1002 C1004 1.327 . S
C1002 H1027 0.950 . S
C1003 C1002 1.349 . S
C1003 C1019 1.349 . S
C1004 C1002 1.327 . S
C1004 C1023 1.429 . S
C1004 H1028 0.950 . S
C1005 C1022 1.574 . S
C1005 C1024 1.368 . S
C1005 H1029 0.949 . S
H1006 C1010 0.949 . S
C1007 C1008 1.349 . S
C1007 C1009 1.327 . S
C1007 H1030 0.950 . S
C1008 C1007 1.349 . S
C1008 C1020 1.349 . S
C1009 C1007 1.327 . S
C1009 C1025 1.429 . S
C1009 H1031 0.950 . S
C1010 H1006 0.949 . S
C1010 C1018 1.574 . S
C1010 C1026 1.368 . S
H1011 C1019 0.950 . S
H1012 C1017 0.950 . S
H1013 C1018 0.949 . S
H1014 C1020 0.950 . S
H1015 C1021 0.950 . S
H1016 C1022 0.949 . S
C1017 H1012 0.950 . S
C1017 C1019 1.327 . S
C1017 C1023 1.429 . S
C1018 C1010 1.574 . S
C1018 H1013 0.949 . S
C1018 C1024 1.368 . S
C1019 C1003 1.349 . S
C1019 H1011 0.950 . S
C1019 C1017 1.327 . S
C1020 C1008 1.349 . S
C1020 H1014 0.950 . S
C1020 C1021 1.327 . S
C1021 H1015 0.950 . S
C1021 C1020 1.327 . S
C1021 C1025 1.429 . S
C1022 C1005 1.574 . S
C1022 H1016 0.949 . S
C1022 C1026 1.368 . S
C1023 C1004 1.429 . S
C1023 C1017 1.429 . S
C1023 C1024 1.523 . S
C1024 C1005 1.368 . S
C1024 C1018 1.368 . S
C1024 C1023 1.523 . S
C1025 C1009 1.429 . S
C1025 C1021 1.429 . S
C1025 C1026 1.523 . S
C1026 C1010 1.368 . S
C1026 C1022 1.368 . S
C1026 C1025 1.523 . S
H1027 C1002 0.950 . S
H1028 C1004 0.950 . S
H1029 C1005 0.949 . S
H1030 C1007 0.950 . S
H1031 C1009 0.950 . S
C1032 C1033 1.349 . S
C1032 C1034 1.327 . S
C1032 H1057 0.950 . S
C1033 C1032 1.349 . S
C1033 C1049 1.349 . S
C1034 C1032 1.327 . S
C1034 C1053 1.429 . S
C1034 H1058 0.950 . S
C1035 C1052 1.574 . S
C1035 C1054 1.368 . S
C1035 H1059 0.949 . S
H1036 C1040 0.949 . S
C1037 C1038 1.349 . S
C1037 C1039 1.327 . S
C1037 H1060 0.950 . S
C1038 C1037 1.349 . S
C1038 C1050 1.349 . S
C1039 C1037 1.327 . S
C1039 C1055 1.429 . S
C1039 H1061 0.950 . S
C1040 H1036 0.949 . S
C1040 C1048 1.574 . S
C1040 C1056 1.368 . S
H1041 C1049 0.950 . S
H1042 C1047 0.950 . S
H1043 C1048 0.949 . S
H1044 C1050 0.950 . S
H1045 C1051 0.950 . S
H1046 C1052 0.949 . S
C1047 H1042 0.950 . S
C1047 C1049 1.327 . S
C1047 C1053 1.429 . S
C1048 C1040 1.574 . S
C1048 H1043 0.949 . S
C1048 C1054 1.368 . S
C1049 C1033 1.349 . S
C1049 H1041 0.950 . S
C1049 C1047 1.327 . S
C1050 C1038 1.349 . S
C1050 H1044 0.950 . S
C1050 C1051 1.327 . S
C1051 H1045 0.950 . S
C1051 C1050 1.327 . S
C1051 C1055 1.429 . S
C1052 C1035 1.574 . S
C1052 H1046 0.949 . S
C1052 C1056 1.368 . S
C1053 C1034 1.429 . S
C1053 C1047 1.429 . S
C1053 C1054 1.523 . S
C1054 C1035 1.368 . S
C1054 C1048 1.368 . S
C1054 C1053 1.523 . S
C1055 C1039 1.429 . S
C1055 C1051 1.429 . S
C1055 C1056 1.523 . S
C1056 C1040 1.368 . S
C1056 C1052 1.368 . S
C1056 C1055 1.523 . S
H1057 C1032 0.950 . S
H1058 C1034 0.950 . S
H1059 C1035 0.949 . S
H1060 C1037 0.950 . S
H1061 C1039 0.950 . S
C1062 C1063 1.349 . S
C1062 C1064 1.327 . S
C1062 H1087 0.950 . S
C1063 C1062 1.349 . S
C1063 C1079 1.349 . S
C1064 C1062 1.327 . S
C1064 C1083 1.429 . S
C1064 H1088 0.950 . S
C1065 C1082 1.574 . S
C1065 C1084 1.368 . S
C1065 H1089 0.949 . S
H1066 C1070 0.949 . S
C1067 C1068 1.349 . S
C1067 C1069 1.327 . S
C1067 H1090 0.950 . S
C1068 C1067 1.349 . S
C1068 C1080 1.349 . S
C1069 C1067 1.327 . S
C1069 C1085 1.429 . S
C1069 H1091 0.950 . S
C1070 H1066 0.949 . S
C1070 C1078 1.574 . S
C1070 C1086 1.368 . S
H1071 C1079 0.950 . S
H1072 C1077 0.950 . S
H1073 C1078 0.949 . S
H1074 C1080 0.950 . S
H1075 C1081 0.950 . S
H1076 C1082 0.949 . S
C1077 H1072 0.950 . S
C1077 C1079 1.327 . S
C1077 C1083 1.429 . S
C1078 C1070 1.574 . S
C1078 H1073 0.949 . S
C1078 C1084 1.368 . S
C1079 C1063 1.349 . S
C1079 H1071 0.950 . S
C1079 C1077 1.327 . S
C1080 C1068 1.349 . S
C1080 H1074 0.950 . S
C1080 C1081 1.327 . S
C1081 H1075 0.950 . S
C1081 C1080 1.327 . S
C1081 C1085 1.429 . S
C1082 C1065 1.574 . S
C1082 H1076 0.949 . S
C1082 C1086 1.368 . S
C1083 C1064 1.429 . S
C1083 C1077 1.429 . S
C1083 C1084 1.523 . S
C1084 C1065 1.368 . S
C1084 C1078 1.368 . S
C1084 C1083 1.523 . S
C1085 C1069 1.429 . S
C1085 C1081 1.429 . S
C1085 C1086 1.523 . S
C1086 C1070 1.368 . S
C1086 C1082 1.368 . S
C1086 C1085 1.523 . S
H1087 C1062 0.950 . S
H1088 C1064 0.950 . S
H1089 C1065 0.949 . S
H1090 C1067 0.950 . S
H1091 C1069 0.950 . S
C1092 C1093 1.349 . S
C1092 C1094 1.327 . S
C1092 H1117 0.950 . S
C1093 C1092 1.349 . S
C1093 C1109 1.349 . S
C1094 C1092 1.327 . S
C1094 C1113 1.429 . S
C1094 H1118 0.950 . S
C1095 C1112 1.574 . S
C1095 C1114 1.368 . S
C1095 H1119 0.949 . S
H1096 C1100 0.949 . S
C1097 C1098 1.349 . S
C1097 C1099 1.327 . S
C1097 H1120 0.950 . S
C1098 C1097 1.349 . S
C1098 C1110 1.349 . S
C1099 C1097 1.327 . S
C1099 C1115 1.429 . S
C1099 H1121 0.950 . S
C1100 H1096 0.949 . S
C1100 C1108 1.574 . S
C1100 C1116 1.368 . S
H1101 C1109 0.950 . S
H1102 C1107 0.950 . S
H1103 C1108 0.949 . S
H1104 C1110 0.950 . S
H1105 C1111 0.950 . S
H1106 C1112 0.949 . S
C1107 H1102 0.950 . S
C1107 C1109 1.327 . S
C1107 C1113 1.429 . S
C1108 C1100 1.574 . S
C1108 H1103 0.949 . S
C1108 C1114 1.368 . S
C1109 C1093 1.349 . S
C1109 H1101 0.950 . S
C1109 C1107 1.327 . S
C1110 C1098 1.349 . S
C1110 H1104 0.950 . S
C1110 C1111 1.327 . S
C1111 H1105 0.950 . S
C1111 C1110 1.327 . S
C1111 C1115 1.429 . S
C1112 C1095 1.574 . S
C1112 H1106 0.949 . S
C1112 C1116 1.368 . S
C1113 C1094 1.429 . S
C1113 C1107 1.429 . S
C1113 C1114 1.523 . S
C1114 C1095 1.368 . S
C1114 C1108 1.368 . S
C1114 C1113 1.523 . S
C1115 C1099 1.429 . S
C1115 C1111 1.429 . S
C1115 C1116 1.523 . S
C1116 C1100 1.368 . S
C1116 C1112 1.368 . S
C1116 C1115 1.523 . S
H1117 C1092 0.950 . S
H1118 C1094 0.950 . S
H1119 C1095 0.949 . S
H1120 C1097 0.950 . S
H1121 C1099 0.950 . S
C1122 C1123 1.349 . S
C1122 C1124 1.327 . S
C1122 H1147 0.950 . S
C1123 C1122 1.349 . S
C1123 C1139 1.349 . S
C1124 C1122 1.327 . S
C1124 C1143 1.429 . S
C1124 H1148 0.950 . S
C1125 C1142 1.574 . S
C1125 C1144 1.368 . S
C1125 H1149 0.949 . S
H1126 C1130 0.949 . S
C1127 C1128 1.349 . S
C1127 C1129 1.327 . S
C1127 H1150 0.950 . S
C1128 C1127 1.349 . S
C1128 C1140 1.349 . S
C1129 C1127 1.327 . S
C1129 C1145 1.429 . S
C1129 H1151 0.950 . S
C1130 H1126 0.949 . S
C1130 C1138 1.574 . S
C1130 C1146 1.368 . S
H1131 C1139 0.950 . S
H1132 C1137 0.950 . S
H1133 C1138 0.949 . S
H1134 C1140 0.950 . S
H1135 C1141 0.950 . S
H1136 C1142 0.949 . S
C1137 H1132 0.950 . S
C1137 C1139 1.327 . S
C1137 C1143 1.429 . S
C1138 C1130 1.574 . S
C1138 H1133 0.949 . S
C1138 C1144 1.368 . S
C1139 C1123 1.349 . S
C1139 H1131 0.950 . S
C1139 C1137 1.327 . S
C1140 C1128 1.349 . S
C1140 H1134 0.950 . S
C1140 C1141 1.327 . S
C1141 H1135 0.950 . S
C1141 C1140 1.327 . S
C1141 C1145 1.429 . S
C1142 C1125 1.574 . S
C1142 H1136 0.949 . S
C1142 C1146 1.368 . S
C1143 C1124 1.429 . S
C1143 C1137 1.429 . S
C1143 C1144 1.523 . S
C1144 C1125 1.368 . S
C1144 C1138 1.368 . S
C1144 C1143 1.523 . S
C1145 C1129 1.429 . S
C1145 C1141 1.429 . S
C1145 C1146 1.523 . S
C1146 C1130 1.368 . S
C1146 C1142 1.368 . S
C1146 C1145 1.523 . S
H1147 C1122 0.950 . S
H1148 C1124 0.950 . S
H1149 C1125 0.949 . S
H1150 C1127 0.950 . S
H1151 C1129 0.950 . S
C1152 C1153 1.349 . S
C1152 C1154 1.327 . S
C1152 H1177 0.950 . S
C1153 C1152 1.349 . S
C1153 C1169 1.349 . S
C1154 C1152 1.327 . S
C1154 C1173 1.429 . S
C1154 H1178 0.950 . S
C1155 C1172 1.574 . S
C1155 C1174 1.368 . S
C1155 H1179 0.949 . S
H1156 C1160 0.949 . S
C1157 C1158 1.349 . S
C1157 C1159 1.327 . S
C1157 H1180 0.950 . S
C1158 C1157 1.349 . S
C1158 C1170 1.349 . S
C1159 C1157 1.327 . S
C1159 C1175 1.429 . S
C1159 H1181 0.950 . S
C1160 H1156 0.949 . S
C1160 C1168 1.574 . S
C1160 C1176 1.368 . S
H1161 C1169 0.950 . S
H1162 C1167 0.950 . S
H1163 C1168 0.949 . S
H1164 C1170 0.950 . S
H1165 C1171 0.950 . S
H1166 C1172 0.949 . S
C1167 H1162 0.950 . S
C1167 C1169 1.327 . S
C1167 C1173 1.429 . S
C1168 C1160 1.574 . S
C1168 H1163 0.949 . S
C1168 C1174 1.368 . S
C1169 C1153 1.349 . S
C1169 H1161 0.950 . S
C1169 C1167 1.327 . S
C1170 C1158 1.349 . S
C1170 H1164 0.950 . S
C1170 C1171 1.327 . S
C1171 H1165 0.950 . S
C1171 C1170 1.327 . S
C1171 C1175 1.429 . S
C1172 C1155 1.574 . S
C1172 H1166 0.949 . S
C1172 C1176 1.368 . S
C1173 C1154 1.429 . S
C1173 C1167 1.429 . S
C1173 C1174 1.523 . S
C1174 C1155 1.368 . S
C1174 C1168 1.368 . S
C1174 C1173 1.523 . S
C1175 C1159 1.429 . S
C1175 C1171 1.429 . S
C1175 C1176 1.523 . S
C1176 C1160 1.368 . S
C1176 C1172 1.368 . S
C1176 C1175 1.523 . S
H1177 C1152 0.950 . S
H1178 C1154 0.950 . S
H1179 C1155 0.949 . S
H1180 C1157 0.950 . S
H1181 C1159 0.950 . S
C1182 C1183 1.349 . S
C1182 C1184 1.327 . S
C1182 H1207 0.950 . S
C1183 C1182 1.349 . S
C1183 C1199 1.349 . S
C1184 C1182 1.327 . S
C1184 C1203 1.429 . S
C1184 H1208 0.950 . S
C1185 C1202 1.574 . S
C1185 C1204 1.368 . S
C1185 H1209 0.949 . S
H1186 C1190 0.949 . S
C1187 C1188 1.349 . S
C1187 C1189 1.327 . S
C1187 H1210 0.950 . S
C1188 C1187 1.349 . S
C1188 C1200 1.349 . S
C1189 C1187 1.327 . S
C1189 C1205 1.429 . S
C1189 H1211 0.950 . S
C1190 H1186 0.949 . S
C1190 C1198 1.574 . S
C1190 C1206 1.368 . S
H1191 C1199 0.950 . S
H1192 C1197 0.950 . S
H1193 C1198 0.949 . S
H1194 C1200 0.950 . S
H1195 C1201 0.950 . S
H1196 C1202 0.949 . S
C1197 H1192 0.950 . S
C1197 C1199 1.327 . S
C1197 C1203 1.429 . S
C1198 C1190 1.574 . S
C1198 H1193 0.949 . S
C1198 C1204 1.368 . S
C1199 C1183 1.349 . S
C1199 H1191 0.950 . S
C1199 C1197 1.327 . S
C1200 C1188 1.349 . S
C1200 H1194 0.950 . S
C1200 C1201 1.327 . S
C1201 H1195 0.950 . S
C1201 C1200 1.327 . S
C1201 C1205 1.429 . S
C1202 C1185 1.574 . S
C1202 H1196 0.949 . S
C1202 C1206 1.368 . S
C1203 C1184 1.429 . S
C1203 C1197 1.429 . S
C1203 C1204 1.523 . S
C1204 C1185 1.368 . S
C1204 C1198 1.368 . S
C1204 C1203 1.523 . S
C1205 C1189 1.429 . S
C1205 C1201 1.429 . S
C1205 C1206 1.523 . S
C1206 C1190 1.368 . S
C1206 C1202 1.368 . S
C1206 C1205 1.523 . S
H1207 C1182 0.950 . S
H1208 C1184 0.950 . S
H1209 C1185 0.949 . S
H1210 C1187 0.950 . S
H1211 C1189 0.950 . S
C1212 C1213 1.349 . S
C1212 C1214 1.327 . S
C1212 H1237 0.950 . S
C1213 C1212 1.349 . S
C1213 C1229 1.349 . S
C1214 C1212 1.327 . S
C1214 C1233 1.429 . S
C1214 H1238 0.950 . S
C1215 C1232 1.574 . S
C1215 C1234 1.368 . S
C1215 H1239 0.949 . S
H1216 C1220 0.949 . S
C1217 C1218 1.349 . S
C1217 C1219 1.327 . S
C1217 H1240 0.950 . S
C1218 C1217 1.349 . S
C1218 C1230 1.349 . S
C1219 C1217 1.327 . S
C1219 C1235 1.429 . S
C1219 H1241 0.950 . S
C1220 H1216 0.949 . S
C1220 C1228 1.574 . S
C1220 C1236 1.368 . S
H1221 C1229 0.950 . S
H1222 C1227 0.950 . S
H1223 C1228 0.949 . S
H1224 C1230 0.950 . S
H1225 C1231 0.950 . S
H1226 C1232 0.949 . S
C1227 H1222 0.950 . S
C1227 C1229 1.327 . S
C1227 C1233 1.429 . S
C1228 C1220 1.574 . S
C1228 H1223 0.949 . S
C1228 C1234 1.368 . S
C1229 C1213 1.349 . S
C1229 H1221 0.950 . S
C1229 C1227 1.327 . S
C1230 C1218 1.349 . S
C1230 H1224 0.950 . S
C1230 C1231 1.327 . S
C1231 H1225 0.950 . S
C1231 C1230 1.327 . S
C1231 C1235 1.429 . S
C1232 C1215 1.574 . S
C1232 H1226 0.949 . S
C1232 C1236 1.368 . S
C1233 C1214 1.429 . S
C1233 C1227 1.429 . S
C1233 C1234 1.523 . S
C1234 C1215 1.368 . S
C1234 C1228 1.368 . S
C1234 C1233 1.523 . S
C1235 C1219 1.429 . S
C1235 C1231 1.429 . S
C1235 C1236 1.523 1_554 S
C1236 C1220 1.368 . S
C1236 C1232 1.368 . S
C1236 C1235 1.523 1_556 S
H1237 C1212 0.950 . S
H1238 C1214 0.950 . S
H1239 C1215 0.949 . S
H1240 C1217 0.950 . S
H1241 C1219 0.950 . S
C1242 C1243 1.349 . S
C1242 C1244 1.327 . S
C1242 H1267 0.950 . S
C1243 C1242 1.349 . S
C1243 C1259 1.349 . S
C1244 C1242 1.327 . S
C1244 C1263 1.429 . S
C1244 H1268 0.950 . S
C1245 C1262 1.574 . S
C1245 C1264 1.368 . S
C1245 H1269 0.949 . S
H1246 C1250 0.949 . S
C1247 C1248 1.349 . S
C1247 C1249 1.327 . S
C1247 H1270 0.950 . S
C1248 C1247 1.349 . S
C1248 C1260 1.349 . S
C1249 C1247 1.327 . S
C1249 C1265 1.429 . S
C1249 H1271 0.950 . S
C1250 H1246 0.949 . S
C1250 C1258 1.574 . S
C1250 C1266 1.368 . S
H1251 C1259 0.950 . S
H1252 C1257 0.950 . S
H1253 C1258 0.949 . S
H1254 C1260 0.950 . S
H1255 C1261 0.950 . S
H1256 C1262 0.949 . S
C1257 H1252 0.950 . S
C1257 C1259 1.327 . S
C1257 C1263 1.429 . S
C1258 C1250 1.574 . S
C1258 H1253 0.949 . S
C1258 C1264 1.368 . S
C1259 C1243 1.349 . S
C1259 H1251 0.950 . S
C1259 C1257 1.327 . S
C1260 C1248 1.349 . S
C1260 H1254 0.950 . S
C1260 C1261 1.327 . S
C1261 H1255 0.950 . S
C1261 C1260 1.327 . S
C1261 C1265 1.429 . S
C1262 C1245 1.574 . S
C1262 H1256 0.949 . S
C1262 C1266 1.368 . S
C1263 C1244 1.429 . S
C1263 C1257 1.429 . S
C1263 C1264 1.523 . S
C1264 C1245 1.368 . S
C1264 C1258 1.368 . S
C1264 C1263 1.523 . S
C1265 C1249 1.429 . S
C1265 C1261 1.429 . S
C1265 C1266 1.523 . S
C1266 C1250 1.368 . S
C1266 C1262 1.368 . S
C1266 C1265 1.523 . S
H1267 C1242 0.950 . S
H1268 C1244 0.950 . S
H1269 C1245 0.949 . S
H1270 C1247 0.950 . S
H1271 C1249 0.950 . S
C1272 C1273 1.349 . S
C1272 C1274 1.327 . S
C1272 H1297 0.950 . S
C1273 C1272 1.349 . S
C1273 C1289 1.349 . S
C1274 C1272 1.327 . S
C1274 C1293 1.429 . S
C1274 H1298 0.950 . S
C1275 C1292 1.574 . S
C1275 C1294 1.368 . S
C1275 H1299 0.949 . S
H1276 C1280 0.949 . S
C1277 C1278 1.349 . S
C1277 C1279 1.327 . S
C1277 H1300 0.950 . S
C1278 C1277 1.349 . S
C1278 C1290 1.349 . S
C1279 C1277 1.327 . S
C1279 C1295 1.429 . S
C1279 H1301 0.950 . S
C1280 H1276 0.949 . S
C1280 C1288 1.574 . S
C1280 C1296 1.368 . S
H1281 C1289 0.950 . S
H1282 C1287 0.950 . S
H1283 C1288 0.949 . S
H1284 C1290 0.950 . S
H1285 C1291 0.950 . S
H1286 C1292 0.949 . S
C1287 H1282 0.950 . S
C1287 C1289 1.327 . S
C1287 C1293 1.429 . S
C1288 C1280 1.574 . S
C1288 H1283 0.949 . S
C1288 C1294 1.368 . S
C1289 C1273 1.349 . S
C1289 H1281 0.950 . S
C1289 C1287 1.327 . S
C1290 C1278 1.349 . S
C1290 H1284 0.950 . S
C1290 C1291 1.327 . S
C1291 H1285 0.950 . S
C1291 C1290 1.327 . S
C1291 C1295 1.429 . S
C1292 C1275 1.574 . S
C1292 H1286 0.949 . S
C1292 C1296 1.368 . S
C1293 C1274 1.429 . S
C1293 C1287 1.429 . S
C1293 C1294 1.523 . S
C1294 C1275 1.368 . S
C1294 C1288 1.368 . S
C1294 C1293 1.523 . S
C1295 C1279 1.429 . S
C1295 C1291 1.429 . S
C1295 C1296 1.523 . S
C1296 C1280 1.368 . S
C1296 C1292 1.368 . S
C1296 C1295 1.523 . S
H1297 C1272 0.950 . S
H1298 C1274 0.950 . S
H1299 C1275 0.949 . S
H1300 C1277 0.950 . S
H1301 C1279 0.950 . S
C1302 C1303 1.349 . S
C1302 C1304 1.327 . S
C1302 H1327 0.950 . S
C1303 C1302 1.349 . S
C1303 C1319 1.349 . S
C1304 C1302 1.327 . S
C1304 C1323 1.429 . S
C1304 H1328 0.950 . S
C1305 C1322 1.574 . S
C1305 C1324 1.368 . S
C1305 H1329 0.949 . S
H1306 C1310 0.949 . S
C1307 C1308 1.349 . S
C1307 C1309 1.327 . S
C1307 H1330 0.950 . S
C1308 C1307 1.349 . S
C1308 C1320 1.349 . S
C1309 C1307 1.327 . S
C1309 C1325 1.429 . S
C1309 H1331 0.950 . S
C1310 H1306 0.949 . S
C1310 C1318 1.574 . S
C1310 C1326 1.368 . S
H1311 C1319 0.950 . S
H1312 C1317 0.950 . S
H1313 C1318 0.949 . S
H1314 C1320 0.950 . S
H1315 C1321 0.950 . S
H1316 C1322 0.949 . S
C1317 H1312 0.950 . S
C1317 C1319 1.327 . S
C1317 C1323 1.429 . S
C1318 C1310 1.574 . S
C1318 H1313 0.949 . S
C1318 C1324 1.368 . S
C1319 C1303 1.349 . S
C1319 H1311 0.950 . S
C1319 C1317 1.327 . S
C1320 C1308 1.349 . S
C1320 H1314 0.950 . S
C1320 C1321 1.327 . S
C1321 H1315 0.950 . S
C1321 C1320 1.327 . S
C1321 C1325 1.429 . S
C1322 C1305 1.574 . S
C1322 H1316 0.949 . S
C1322 C1326 1.368 . S
C1323 C1304 1.429 . S
C1323 C1317 1.429 . S
C1323 C1324 1.523 . S
C1324 C1305 1.368 . S
C1324 C1318 1.368 . S
C1324 C1323 1.523 . S
C1325 C1309 1.429 . S
C1325 C1321 1.429 . S
C1325 C1326 1.523 . S
C1326 C1310 1.368 . S
C1326 C1322 1.368 . S
C1326 C1325 1.523 . S
H1327 C1302 0.950 . S
H1328 C1304 0.950 . S
H1329 C1305 0.949 . S
H1330 C1307 0.950 . S
H1331 C1309 0.950 . S
C1332 C1333 1.349 . S
C1332 C1334 1.327 . S
C1332 H1357 0.950 . S
C1333 C1332 1.349 . S
C1333 C1349 1.349 . S
C1334 C1332 1.327 . S
C1334 C1353 1.429 . S
C1334 H1358 0.950 . S
C1335 C1352 1.574 . S
C1335 C1354 1.368 . S
C1335 H1359 0.949 . S
H1336 C1340 0.949 . S
C1337 C1338 1.349 . S
C1337 C1339 1.327 . S
C1337 H1360 0.950 . S
C1338 C1337 1.349 . S
C1338 C1350 1.349 . S
C1339 C1337 1.327 . S
C1339 C1355 1.429 . S
C1339 H1361 0.950 . S
C1340 H1336 0.949 . S
C1340 C1348 1.574 . S
C1340 C1356 1.368 . S
H1341 C1349 0.950 . S
H1342 C1347 0.950 . S
H1343 C1348 0.949 . S
H1344 C1350 0.950 . S
H1345 C1351 0.950 . S
H1346 C1352 0.949 . S
C1347 H1342 0.950 . S
C1347 C1349 1.327 . S
C1347 C1353 1.429 . S
C1348 C1340 1.574 . S
C1348 H1343 0.949 . S
C1348 C1354 1.368 . S
C1349 C1333 1.349 . S
C1349 H1341 0.950 . S
C1349 C1347 1.327 . S
C1350 C1338 1.349 . S
C1350 H1344 0.950 . S
C1350 C1351 1.327 . S
C1351 H1345 0.950 . S
C1351 C1350 1.327 . S
C1351 C1355 1.429 . S
C1352 C1335 1.574 . S
C1352 H1346 0.949 . S
C1352 C1356 1.368 . S
C1353 C1334 1.429 . S
C1353 C1347 1.429 . S
C1353 C1354 1.523 . S
C1354 C1335 1.368 . S
C1354 C1348 1.368 . S
C1354 C1353 1.523 . S
C1355 C1339 1.429 . S
C1355 C1351 1.429 . S
C1355 C1356 1.523 . S
C1356 C1340 1.368 . S
C1356 C1352 1.368 . S
C1356 C1355 1.523 . S
H1357 C1332 0.950 . S
H1358 C1334 0.950 . S
H1359 C1335 0.949 . S
H1360 C1337 0.950 . S
H1361 C1339 0.950 . S
C1362 C1363 1.349 . S
C1362 C1364 1.327 . S
C1362 H1387 0.950 . S
C1363 C1362 1.349 . S
C1363 C1379 1.349 . S
C1364 C1362 1.327 . S
C1364 C1383 1.429 . S
C1364 H1388 0.950 . S
C1365 C1382 1.574 . S
C1365 C1384 1.368 . S
C1365 H1389 0.949 . S
H1366 C1370 0.949 . S
C1367 C1368 1.349 . S
C1367 C1369 1.327 . S
C1367 H1390 0.950 . S
C1368 C1367 1.349 . S
C1368 C1380 1.349 . S
C1369 C1367 1.327 . S
C1369 C1385 1.429 . S
C1369 H1391 0.950 . S
C1370 H1366 0.949 . S
C1370 C1378 1.574 . S
C1370 C1386 1.368 . S
H1371 C1379 0.950 . S
H1372 C1377 0.950 . S
H1373 C1378 0.949 . S
H1374 C1380 0.950 . S
H1375 C1381 0.950 . S
H1376 C1382 0.949 . S
C1377 H1372 0.950 . S
C1377 C1379 1.327 . S
C1377 C1383 1.429 . S
C1378 C1370 1.574 . S
C1378 H1373 0.949 . S
C1378 C1384 1.368 . S
C1379 C1363 1.349 . S
C1379 H1371 0.950 . S
C1379 C1377 1.327 . S
C1380 C1368 1.349 . S
C1380 H1374 0.950 . S
C1380 C1381 1.327 . S
C1381 H1375 0.950 . S
C1381 C1380 1.327 . S
C1381 C1385 1.429 . S
C1382 C1365 1.574 . S
C1382 H1376 0.949 . S
C1382 C1386 1.368 . S
C1383 C1364 1.429 . S
C1383 C1377 1.429 . S
C1383 C1384 1.523 . S
C1384 C1365 1.368 . S
C1384 C1378 1.368 . S
C1384 C1383 1.523 . S
C1385 C1369 1.429 . S
C1385 C1381 1.429 . S
C1385 C1386 1.523 . S
C1386 C1370 1.368 . S
C1386 C1382 1.368 . S
C1386 C1385 1.523 . S
H1387 C1362 0.950 . S
H1388 C1364 0.950 . S
H1389 C1365 0.949 . S
H1390 C1367 0.950 . S
H1391 C1369 0.950 . S
C1392 C1393 1.349 . S
C1392 C1394 1.327 . S
C1392 H1417 0.950 . S
C1393 C1392 1.349 . S
C1393 C1409 1.349 . S
C1394 C1392 1.327 . S
C1394 C1413 1.429 . S
C1394 H1418 0.950 . S
C1395 C1412 1.574 . S
C1395 C1414 1.368 . S
C1395 H1419 0.949 . S
H1396 C1400 0.949 . S
C1397 C1398 1.349 . S
C1397 C1399 1.327 . S
C1397 H1420 0.950 . S
C1398 C1397 1.349 . S
C1398 C1410 1.349 . S
C1399 C1397 1.327 . S
C1399 C1415 1.429 . S
C1399 H1421 0.950 . S
C1400 H1396 0.949 . S
C1400 C1408 1.574 . S
C1400 C1416 1.368 . S
H1401 C1409 0.950 . S
H1402 C1407 0.950 . S
H1403 C1408 0.949 . S
H1404 C1410 0.950 . S
H1405 C1411 0.950 . S
H1406 C1412 0.949 . S
C1407 H1402 0.950 . S
C1407 C1409 1.327 . S
C1407 C1413 1.429 . S
C1408 C1400 1.574 . S
C1408 H1403 0.949 . S
C1408 C1414 1.368 . S
C1409 C1393 1.349 . S
C1409 H1401 0.950 . S
C1409 C1407 1.327 . S
C1410 C1398 1.349 . S
C1410 H1404 0.950 . S
C1410 C1411 1.327 . S
C1411 H1405 0.950 . S
C1411 C1410 1.327 . S
C1411 C1415 1.429 . S
C1412 C1395 1.574 . S
C1412 H1406 0.949 . S
C1412 C1416 1.368 . S
C1413 C1394 1.429 . S
C1413 C1407 1.429 . S
C1413 C1414 1.523 . S
C1414 C1395 1.368 . S
C1414 C1408 1.368 . S
C1414 C1413 1.523 . S
C1415 C1399 1.429 . S
C1415 C1411 1.429 . S
C1415 C1416 1.523 . S
C1416 C1400 1.368 . S
C1416 C1412 1.368 . S
C1416 C1415 1.523 . S
H1417 C1392 0.950 . S
H1418 C1394 0.950 . S
H1419 C1395 0.949 . S
H1420 C1397 0.950 . S
H1421 C1399 0.950 . S
C1422 C1423 1.349 . S
C1422 C1424 1.327 . S
C1422 H1447 0.950 . S
C1423 C1422 1.349 . S
C1423 C1439 1.349 . S
C1424 C1422 1.327 . S
C1424 C1443 1.429 . S
C1424 H1448 0.950 . S
C1425 C1442 1.574 1_554 S
C1425 C1444 1.368 . S
C1425 H1449 0.949 . S
H1426 C1430 0.971 . S
C1427 C1428 1.349 . S
C1427 C1429 1.327 . S
C1427 H1450 0.950 . S
C1428 C1427 1.349 . S
C1428 C1440 1.349 . S
C1429 C1427 1.327 . S
C1429 C1445 1.429 . S
C1429 H1451 0.950 . S
C1430 H1426 0.971 . S
C1430 C1438 1.524 1_556 S
C1430 C1446 1.397 . S
H1431 C1439 0.950 . S
H1432 C1437 0.950 . S
H1433 C1438 0.949 . S
H1434 C1440 0.950 . S
H1435 C1441 0.950 . S
H1436 C1442 0.949 . S
C1437 H1432 0.950 . S
C1437 C1439 1.327 . S
C1437 C1443 1.429 . S
C1438 C1430 1.524 1_554 S
C1438 H1433 0.949 . S
C1438 C1444 1.368 . S
C1439 C1423 1.349 . S
C1439 H1431 0.950 . S
C1439 C1437 1.327 . S
C1440 C1428 1.349 . S
C1440 H1434 0.950 . S
C1440 C1441 1.327 . S
C1441 H1435 0.950 . S
C1441 C1440 1.327 . S
C1441 C1445 1.429 . S
C1442 C1425 1.574 1_556 S
C1442 H1436 0.949 . S
C1442 C1446 1.368 . S
C1443 C1424 1.429 . S
C1443 C1437 1.429 . S
C1443 C1444 1.523 . S
C1444 C1425 1.368 . S
C1444 C1438 1.368 . S
C1444 C1443 1.523 . S
C1445 C1429 1.429 . S
C1445 C1441 1.429 . S
C1445 C1446 1.523 . S
C1446 C1430 1.397 . S
C1446 C1442 1.368 . S
C1446 C1445 1.523 . S
H1447 C1422 0.950 . S
H1448 C1424 0.950 . S
H1449 C1425 0.949 . S
H1450 C1427 0.950 . S
H1451 C1429 0.950 . S
C1452 C1453 1.349 . S
C1452 C1454 1.327 . S
C1452 H1477 0.950 . S
C1453 C1452 1.349 . S
C1453 C1469 1.349 . S
C1454 C1452 1.327 . S
C1454 C1473 1.429 . S
C1454 H1478 0.950 . S
C1455 C1472 1.574 . S
C1455 C1474 1.368 . S
C1455 H1479 0.949 . S
H1456 C1460 0.949 . S
C1457 C1458 1.349 . S
C1457 C1459 1.327 . S
C1457 H1480 0.950 . S
C1458 C1457 1.349 . S
C1458 C1470 1.349 . S
C1459 C1457 1.327 . S
C1459 C1475 1.429 . S
C1459 H1481 0.950 . S
C1460 H1456 0.949 . S
C1460 C1468 1.574 . S
C1460 C1476 1.368 . S
H1461 C1469 0.950 . S
H1462 C1467 0.950 . S
H1463 C1468 0.949 . S
H1464 C1470 0.950 . S
H1465 C1471 0.950 . S
H1466 C1472 0.949 . S
C1467 H1462 0.950 . S
C1467 C1469 1.327 . S
C1467 C1473 1.429 . S
C1468 C1460 1.574 . S
C1468 H1463 0.949 . S
C1468 C1474 1.368 . S
C1469 C1453 1.349 . S
C1469 H1461 0.950 . S
C1469 C1467 1.327 . S
C1470 C1458 1.349 . S
C1470 H1464 0.950 . S
C1470 C1471 1.327 . S
C1471 H1465 0.950 . S
C1471 C1470 1.327 . S
C1471 C1475 1.429 . S
C1472 C1455 1.574 . S
C1472 H1466 0.949 . S
C1472 C1476 1.368 . S
C1473 C1454 1.429 . S
C1473 C1467 1.429 . S
C1473 C1474 1.523 . S
C1474 C1455 1.368 . S
C1474 C1468 1.368 . S
C1474 C1473 1.523 . S
C1475 C1459 1.429 . S
C1475 C1471 1.429 . S
C1475 C1476 1.523 . S
C1476 C1460 1.368 . S
C1476 C1472 1.368 . S
C1476 C1475 1.523 . S
H1477 C1452 0.950 . S
H1478 C1454 0.950 . S
H1479 C1455 0.949 . S
H1480 C1457 0.950 . S
H1481 C1459 0.950 . S
C768 C754 1.576 . S
C763 C1 1.201 . S
C793 C169 1.358 . S
C798 C689 1.724 . S
C823 C283 1.333 . S
C828 C707 1.700 . S
C853 C397 1.187 . S
C858 C720 1.528 . S
C888 C728 1.400 . S
C883 C457 1.078 . S
C913 C571 1.086 . S
C918 C740 1.419 . S
C943 C115 1.200 . S
C948 C702 1.569 . S
C973 C229 1.088 . S
C978 C715 1.426 . S
C1003 C343 1.071 . S
C1008 C733 1.388 . S
C1038 C739 1.550 . S
C1033 C511 1.208 . S
C1068 C759 1.681 . S
C1063 C625 1.316 . S
C1098 C694 1.733 . S
C1093 C55 1.369 . S
C1123 C29 1.283 . S
C1128 C700 1.522 . S
C1153 C125 0.956 . S
C1158 C713 1.658 . S
C1188 C727 1.571 . S
C1183 C239 0.903 . S
C1213 C353 0.912 . S
C1218 C741 1.577 . S
C1248 C753 1.433 . S
C1243 C485 1.206 . S
C1278 C688 1.521 . S
C1273 C599 1.278 . S
C1308 C752 1.534 . S
C1303 C143 1.297 . S
C1333 C257 1.273 . S
C1338 C687 1.517 . S
C1368 C701 1.446 . S
C1363 C371 1.217 . S
C1393 C467 0.900 . S
C1398 C714 1.554 . S
C1423 C581 0.909 . S
C1428 C726 1.587 . S
C1453 C11 0.953 . S
C1458 C746 1.644 . S
