# Generated by pormake.
# Topology rtl, (3,6)-cn, num edge types: 1
# Building blocks:
#     Node 0, Type 0, BuildingBlock: QEWDON_clean_linker_0, # of connection points: 3
#     Node 1, Type 0, BuildingBlock: QEWDON_clean_linker_0, # of connection points: 3
#     Node 2, Type 0, BuildingBlock: QEWDON_clean_linker_0, # of connection points: 3
#     Node 3, Type 0, BuildingBlock: QEWDON_clean_linker_0, # of connection points: 3
#     Node 4, Type 1, BuildingBlock: FUNLAD_clean_sbu_0, # of connection points: 6
#     Node 5, Type 1, BuildingBlock: FUNLAD_clean_sbu_0, # of connection points: 6
#     Edge 6, Type (0, 1), BuildingBlock: AJUNOK_clean_linker_0, # of connection points: 2
#     Edge 7, Type (0, 1), BuildingBlock: AJUNOK_clean_linker_0, # of connection points: 2
#     Edge 8, Type (0, 1), BuildingBlock: AJUNOK_clean_linker_0, # of connection points: 2
#     Edge 9, Type (0, 1), BuildingBlock: AJUNOK_clean_linker_0, # of connection points: 2
#     Edge 10, Type (0, 1), BuildingBlock: AJUNOK_clean_linker_0, # of connection points: 2
#     Edge 11, Type (0, 1), BuildingBlock: AJUNOK_clean_linker_0, # of connection points: 2
#     Edge 12, Type (0, 1), BuildingBlock: AJUNOK_clean_linker_0, # of connection points: 2
#     Edge 13, Type (0, 1), BuildingBlock: AJUNOK_clean_linker_0, # of connection points: 2
#     Edge 14, Type (0, 1), BuildingBlock: AJUNOK_clean_linker_0, # of connection points: 2
#     Edge 15, Type (0, 1), BuildingBlock: AJUNOK_clean_linker_0, # of connection points: 2
#     Edge 16, Type (0, 1), BuildingBlock: AJUNOK_clean_linker_0, # of connection points: 2
#     Edge 17, Type (0, 1), BuildingBlock: AJUNOK_clean_linker_0, # of connection points: 2
# Relax obj value: 0.014
# Max RMSD: 0.071
# Mean RMSD: 0.062
data_MOF--net-rtl--node1-FUNLAD_clean_sbu_0--node2-QEWDON_clean_linker_0--edge1-AJUNOK_clean_linker_0
_symmetry_space_group_name_H-M    P1
_symmetry_Int_Tables_number       1
_symmetry_cell_setting            triclinic
loop_
_symmetry_equiv_pos_as_xyz
'x, y, z'
_cell_length_a     32.244467
_cell_length_b     32.048679
_cell_length_c     15.207012
_cell_angle_alpha  92.000747
_cell_angle_beta   92.976282
_cell_angle_gamma 90.165459
loop_
_atom_site_label
_atom_site_type_symbol
_atom_site_fract_x
_atom_site_fract_y
_atom_site_fract_z
_atom_type_partial_charge
H0 H 0.20068 0.88426 0.13531 0.0
C1 C 0.18374 0.88885 0.07296 0.0
C2 C 0.14299 0.90452 0.07179 0.0
C3 C 0.2038 0.88223 -0.0061 0.0
H4 H 0.09152 0.92612 0.98967 0.0
C5 C 0.12212 0.91209 -0.00933 0.0
C6 C 0.14206 0.90622 0.9115 0.0
C7 C 0.1827 0.89061 0.91348 0.0
C8 C 0.24899 0.87499 -0.00432 0.0
H9 H 0.1988 0.88709 0.8528 0.0
C10 C 0.2661 0.83543 0.01141 0.0
C11 C 0.30945 0.82969 0.01117 0.0
C12 C 0.27524 0.90857 0.97968 0.0
H13 H 0.26249 0.93919 0.96724 0.0
C14 C 0.31806 0.90298 0.97945 0.0
H15 H 0.24589 0.80936 0.02329 0.0
C16 C 0.33511 0.86382 -0.00524 0.0
H17 H 0.36841 0.86004 -0.00768 0.0
H18 H 0.33809 0.92901 0.96666 0.0
H19 H 0.70701 0.67087 0.41071 0.0
C20 C 0.69035 0.66495 0.46918 0.0
C21 C 0.64958 0.64918 0.46061 0.0
C22 C 0.7104 0.67084 0.5531 0.0
H23 H 0.59801 0.62619 0.52956 0.0
C24 C 0.62876 0.64015 0.53633 0.0
C25 C 0.64838 0.64555 0.62024 0.0
C26 C 0.68932 0.66071 0.62833 0.0
C27 C 0.75474 0.68316 0.56208 0.0
H28 H 0.70499 0.66405 0.69305 0.0
C29 C 0.76885 0.72086 0.5287 0.0
C30 C 0.81129 0.73172 0.53795 0.0
C31 C 0.78331 0.65661 0.60462 0.0
H32 H 0.77312 0.62743 0.63046 0.0
C33 C 0.82531 0.66719 0.61332 0.0
H34 H 0.74695 0.74172 0.4965 0.0
C35 C 0.83926 0.70448 0.5804 0.0
H36 H 0.87192 0.71244 0.58956 0.0
H37 H 0.8471 0.64653 0.64619 0.0
H38 H 0.83117 0.17162 0.1171 0.0
C39 C 0.84731 0.16717 0.05671 0.0
C40 C 0.88782 0.15101 0.0597 0.0
C41 C 0.82668 0.17508 0.97534 0.0
H42 H 0.938 0.12876 0.98281 0.0
C43 C 0.90762 0.14327 0.98086 0.0
C44 C 0.88702 0.15 0.89925 0.0
C45 C 0.84666 0.16641 0.89688 0.0
C46 C 0.78201 0.18514 0.97118 0.0
H47 H 0.83011 0.17082 0.834 0.0
C48 C 0.76753 0.22527 -0.0056 0.0
C49 C 0.72456 0.23341 -0.00934 0.0
C50 C 0.75347 0.1536 0.94362 0.0
H51 H 0.76415 0.12261 0.92538 0.0
C52 C 0.71098 0.16163 0.94014 0.0
H53 H 0.78943 0.24983 0.01522 0.0
C54 C 0.69655 0.20122 0.96361 0.0
H55 H 0.66341 0.20693 0.95961 0.0
H56 H 0.68916 0.13711 0.91901 0.0
H57 H 0.37 0.34337 0.63265 0.0
C58 C 0.37583 0.36052 0.5743 0.0
C59 C 0.39223 0.40125 0.5829 0.0
C60 C 0.36979 0.3408 0.49064 0.0
H61 H 0.41492 0.45339 0.51346 0.0
C62 C 0.40066 0.42265 0.50695 0.0
C63 C 0.39485 0.4033 0.42317 0.0
C64 C 0.37964 0.3622 0.4154 0.0
C65 C 0.3596 0.29589 0.48263 0.0
H66 H 0.3766 0.34642 0.35111 0.0
C67 C 0.31959 0.28097 0.49776 0.0
C68 C 0.31101 0.23782 0.49033 0.0
C69 C 0.39078 0.26762 0.46004 0.0
H70 H 0.42172 0.27866 0.4482 0.0
C71 C 0.38243 0.22489 0.45358 0.0
H72 H 0.29538 0.30271 0.51497 0.0
C73 C 0.34286 0.21001 0.46881 0.0
H74 H 0.3369 0.17672 0.46246 0.0
H75 H 0.40668 0.20325 0.43648 0.0
C76 C 0.05699 0.98228 0.36009 0.0
N77 N 0.08683 0.09503 0.49697 0.0
C78 C 0.12595 0.07915 0.49945 0.0
C79 C 0.16042 0.10554 0.50375 0.0
C80 C 0.15496 0.14897 0.5059 0.0
C81 C 0.11428 0.16476 0.50372 0.0
C82 C 0.08042 0.13703 0.49907 0.0
Zn83 Zn 0.03896 0.0523 0.48995 0.0
C84 C 0.97288 0.07134 0.3541 0.0
N85 N 0.94395 0.95788 0.47443 0.0
C86 C 0.93069 0.93881 0.39655 0.0
C87 C 0.92977 0.94538 0.55212 0.0
C88 C 0.90261 0.91144 0.55389 0.0
C89 C 0.89009 0.88982 0.47509 0.0
C90 C 0.90361 0.90452 0.39538 0.0
Zn91 Zn 0.98993 1.00268 0.47917 0.0
O92 O 0.07024 1.01698 0.39354 0.0
C93 C 0.05662 0.9843 0.61502 0.0
O94 O 0.02253 0.96804 0.38316 0.0
H95 H 0.94081 0.96071 0.6134 0.0
H96 H 0.13059 0.04576 0.49782 0.0
H97 H 0.94222 0.94927 0.33548 0.0
O98 O 0.07002 1.01887 0.58964 0.0
O99 O 0.02266 0.96964 0.58053 0.0
H100 H 0.04908 0.14905 0.49729 0.0
O101 O 0.95841 0.03814 0.57463 0.0
O102 O 1.00671 0.0867 0.58651 0.0
O103 O 0.95827 0.03684 0.37843 0.0
O104 O 1.00697 0.08514 0.38987 0.0
C105 C 0.97205 0.07255 0.60904 0.0
H106 H 0.19116 0.09197 0.50428 0.0
H107 H 0.10869 0.19806 0.50646 0.0
H108 H 0.89314 0.90096 0.6168 0.0
H109 H 0.89418 0.88904 0.33307 0.0
C110 C 0.46963 0.48712 0.89055 0.0
N111 N 0.58217 0.45704 0.025 0.0
C112 C 0.56615 0.41768 0.02394 0.0
C113 C 0.59226 0.38311 0.02564 0.0
C114 C 0.63549 0.38878 0.02911 0.0
C115 C 0.65139 0.42964 0.0288 0.0
C116 C 0.62399 0.46357 0.02711 0.0
Zn117 Zn 0.54035 0.5055 0.02375 0.0
C118 C 0.55963 0.57055 0.89793 0.0
N119 N 0.44941 0.60277 0.0209 0.0
C120 C 0.43615 0.62035 0.94431 0.0
C121 C 0.43634 0.61745 0.09983 0.0
C122 C 0.40984 0.65175 0.10406 0.0
C123 C 0.39702 0.67159 0.02646 0.0
C124 C 0.40983 0.65496 0.94561 0.0
Zn125 Zn 0.49175 0.55507 0.02012 0.0
O126 O 0.50396 0.47354 0.9227 0.0
C127 C 0.47245 0.49014 0.14591 0.0
O128 O 0.45631 0.52221 0.91841 0.0
H129 H 0.44714 0.60304 0.16001 0.0
H130 H 0.5329 0.41297 0.02167 0.0
H131 H 0.44677 0.60814 0.88224 0.0
O132 O 0.50646 0.4756 0.11969 0.0
O133 O 0.45856 0.52391 0.11487 0.0
H134 H 0.63613 0.49509 0.02768 0.0
O135 O 0.52797 0.5871 0.12174 0.0
O136 O 0.57578 0.53854 0.12453 0.0
O137 O 0.52586 0.58534 0.92511 0.0
O138 O 0.57338 0.53642 0.92806 0.0
C139 C 0.56232 0.57338 0.15356 0.0
H140 H 0.57864 0.35213 0.02325 0.0
H141 H 0.68457 0.43526 0.03083 0.0
H142 H 0.39998 0.66299 0.1676 0.0
H143 H 0.40073 0.66942 0.88427 0.0
C144 C 0.26405 0.18945 0.56365 0.0
C145 C 0.26897 0.22091 0.50292 0.0
C146 C 0.22632 0.16799 0.56726 0.0
C147 C 0.19211 0.17682 0.5096 0.0
H148 H 0.29004 0.18048 0.60688 0.0
H149 H 0.22433 0.14333 0.61384 0.0
S150 S 0.18889 0.25742 0.34002 0.0
N151 N 0.23632 0.26114 0.38625 0.0
N152 N 0.16541 0.22027 0.39165 0.0
C153 C 0.19612 0.20947 0.45099 0.0
C154 C 0.23458 0.2316 0.44791 0.0
C155 C 0.31572 0.75369 0.96916 0.0
C156 C 0.3285 0.78807 0.02406 0.0
C157 C 0.3374 0.71575 0.97166 0.0
C158 C 0.37234 0.71072 0.0298 0.0
H159 H 0.28986 0.75669 0.92143 0.0
H160 H 0.32714 0.69036 0.92678 0.0
S161 S 0.41666 0.79069 0.19083 0.0
N162 N 0.37671 0.81404 0.14153 0.0
N163 N 0.41781 0.74318 0.14543 0.0
C164 C 0.38442 0.74447 0.08723 0.0
C165 C 0.36244 0.78301 0.08451 0.0
C166 C 0.81143 0.80993 0.54333 0.0
C167 C 0.82686 0.77225 0.50822 0.0
C168 C 0.83088 0.84822 0.52902 0.0
C169 C 0.86608 0.85021 0.47814 0.0
H170 H 0.78555 0.80958 0.58599 0.0
H171 H 0.81908 0.87635 0.56026 0.0
S172 S 0.91625 0.76052 0.36572 0.0
N173 N 0.87747 0.73944 0.41566 0.0
N174 N 0.91407 0.81117 0.38884 0.0
C175 C 0.88035 0.81291 0.43885 0.0
C176 C 0.86076 0.774 0.45397 0.0
C177 C 0.71612 0.30931 0.95967 0.0
C178 C 0.7079 0.27536 0.01239 0.0
C179 C 0.69413 0.34696 0.96847 0.0
C180 C 0.66327 0.35176 0.03027 0.0
H181 H 0.73795 0.30594 0.90811 0.0
H182 H 0.69974 0.37158 0.92347 0.0
S183 S 0.6353 0.27432 0.19331 0.0
N184 N 0.67042 0.25042 0.13462 0.0
N185 N 0.62966 0.32114 0.15236 0.0
C186 C 0.65703 0.31896 0.08735 0.0
C187 C 0.6792 0.28076 0.07808 0.0
C188 C 0.08291 0.90849 0.16977 0.0
C189 C 0.12402 0.9196 0.15381 0.0
C190 C 0.06192 0.9278 0.23865 0.0
C191 C 0.08107 0.95943 0.29328 0.0
H192 H 0.06647 0.88555 0.12696 0.0
H193 H 0.02995 0.91893 0.24693 0.0
S194 S 0.18922 0.9984 0.28129 0.0
N195 N 0.18366 0.963 0.20002 0.0
N196 N 0.14455 0.99916 0.32958 0.0
C197 C 0.12275 0.9697 0.27988 0.0
C198 C 0.14415 0.9498 0.21021 0.0
C199 C 0.64569 0.59997 0.74977 0.0
C200 C 0.62714 0.63082 0.69755 0.0
C201 C 0.6238 0.58108 0.81517 0.0
C202 C 0.58267 0.59261 0.83132 0.0
H203 H 0.67675 0.58918 0.73764 0.0
H204 H 0.63911 0.55682 0.85246 0.0
S205 S 0.52138 0.67418 0.7159 0.0
N206 N 0.56634 0.67368 0.66865 0.0
N207 N 0.5251 0.63859 0.7918 0.0
C208 C 0.56438 0.62463 0.78148 0.0
C209 C 0.58662 0.64358 0.71451 0.0
C210 C 0.88813 0.10474 0.18833 0.0
C211 C 0.90769 0.13601 0.14266 0.0
C212 C 0.90922 0.08448 0.25753 0.0
C213 C 0.95054 0.09502 0.28415 0.0
H214 H 0.85696 0.0945 0.16774 0.0
H215 H 0.89319 0.05985 0.28926 0.0
S216 S 1.01428 0.17737 0.18919 0.0
N217 N 0.96959 0.17826 0.13115 0.0
N218 N 1.00931 0.14079 0.26179 0.0
C219 C 0.96977 0.12762 0.24119 0.0
C220 C 0.94835 0.14791 0.17027 0.0
C221 C 0.39612 0.4613 0.69276 0.0
C222 C 0.4066 0.4199 0.66983 0.0
C223 C 0.4154 0.4823 0.76642 0.0
C224 C 0.44634 0.46284 0.81915 0.0
H225 H 0.37386 0.47804 0.65158 0.0
H226 H 0.40719 0.51457 0.77984 0.0
S227 S 0.48301 0.35365 0.79008 0.0
N228 N 0.4483 0.35949 0.70782 0.0
N229 N 0.4844 0.39862 0.84646 0.0
C230 C 0.45574 0.42077 0.79903 0.0
C231 C 0.43588 0.39937 0.7244 0.0
C232 C 0.64871 0.60521 0.32213 0.0
C233 C 0.62998 0.63633 0.37373 0.0
C234 C 0.62698 0.58581 0.24951 0.0
C235 C 0.58584 0.5971 0.22549 0.0
H236 H 0.67953 0.59416 0.34089 0.0
H237 H 0.64221 0.56101 0.21346 0.0
S238 S 0.5246 0.68004 0.33525 0.0
N239 N 0.56938 0.67974 0.39306 0.0
N240 N 0.52847 0.64389 0.25609 0.0
C241 C 0.56766 0.62991 0.27398 0.0
C242 C 0.58974 0.64934 0.34826 0.0
C243 C 0.94706 0.14549 0.80135 0.0
C244 C 0.90605 0.13433 0.81785 0.0
C245 C 0.96771 0.12645 0.7317 0.0
C246 C 0.9483 0.09506 0.67684 0.0
H247 H 0.96363 0.1684 0.84402 0.0
H248 H 0.99959 0.13543 0.72283 0.0
S249 S 0.84039 0.05574 0.69101 0.0
N250 N 0.84629 0.09095 0.77257 0.0
N251 N 0.88478 0.05519 0.64161 0.0
C252 C 0.90676 0.08458 0.69118 0.0
C253 C 0.88571 0.10422 0.76163 0.0
C254 C 0.44052 0.40483 0.29588 0.0
C255 C 0.41024 0.42435 0.34602 0.0
C256 C 0.45998 0.4262 0.23049 0.0
C257 C 0.44963 0.4678 0.21226 0.0
H258 H 0.45044 0.37334 0.30964 0.0
H259 H 0.48376 0.4101 0.19485 0.0
S260 S 0.37005 0.5318 0.32174 0.0
N261 N 0.36922 0.48666 0.37081 0.0
N262 N 0.40547 0.52698 0.24746 0.0
C263 C 0.41822 0.48714 0.25994 0.0
C264 C 0.39867 0.46541 0.32701 0.0
C265 C 0.08138 0.91156 0.80262 0.0
C266 C 0.12246 0.92264 0.82949 0.0
C267 C 0.06066 0.93068 0.73136 0.0
C268 C 0.0801 0.96202 0.68534 0.0
H269 H 0.0649 0.88852 0.8381 0.0
H270 H 0.02877 0.92171 0.71408 0.0
S271 S 0.18799 1.00144 0.72878 0.0
N272 N 0.18212 0.96624 0.80386 0.0
N273 N 0.14357 1.00194 0.66985 0.0
C274 C 0.1216 0.97257 0.71036 0.0
C275 C 0.14269 0.95293 0.7824 0.0
loop_
_geom_bond_atom_site_label_1
_geom_bond_atom_site_label_2
_geom_bond_distance
_geom_bond_site_symmetry_2
_ccdc_geom_bond_type
H0 C1 0.949 . S
C1 H0 0.949 . S
C1 C2 1.395 . S
C1 C3 1.391 1_554 S
C2 C1 1.395 . S
C2 C5 1.390 . S
C3 C1 1.391 1_556 S
C3 C7 1.387 . S
C3 C8 1.491 . S
H4 C5 0.950 . S
C5 C2 1.390 . S
C5 H4 0.950 . S
C5 C6 1.378 1_554 S
C6 C5 1.378 1_556 S
C6 C7 1.409 . S
C7 C3 1.387 . S
C7 C6 1.409 . S
C7 H9 0.951 . S
C8 C3 1.491 . S
C8 C10 1.382 1_556 S
C8 C12 1.404 . S
H9 C7 0.951 . S
C10 C8 1.382 1_554 S
C10 C11 1.390 . S
C10 H15 0.949 . S
C11 C10 1.390 . S
C11 C16 1.399 1_554 S
C12 C8 1.404 . S
C12 H13 0.950 . S
C12 C14 1.375 . S
H13 C12 0.950 . S
C14 C12 1.375 . S
C14 C16 1.382 . S
C14 H18 0.950 . S
H15 C10 0.949 . S
C16 C11 1.399 1_556 S
C16 C14 1.382 . S
C16 H17 0.952 . S
H17 C16 0.952 . S
H18 C14 0.950 . S
H19 C20 0.949 . S
C20 H19 0.949 . S
C20 C21 1.395 . S
C20 C22 1.391 . S
C21 C20 1.395 . S
C21 C24 1.390 . S
C22 C20 1.391 . S
C22 C26 1.387 . S
C22 C27 1.491 . S
H23 C24 0.950 . S
C24 C21 1.390 . S
C24 H23 0.950 . S
C24 C25 1.378 . S
C25 C24 1.378 . S
C25 C26 1.409 . S
C26 C22 1.387 . S
C26 C25 1.409 . S
C26 H28 0.951 . S
C27 C22 1.491 . S
C27 C29 1.382 . S
C27 C31 1.404 . S
H28 C26 0.951 . S
C29 C27 1.382 . S
C29 C30 1.390 . S
C29 H34 0.949 . S
C30 C29 1.390 . S
C30 C35 1.399 . S
C31 C27 1.404 . S
C31 H32 0.950 . S
C31 C33 1.375 . S
H32 C31 0.950 . S
C33 C31 1.375 . S
C33 C35 1.382 . S
C33 H37 0.950 . S
H34 C29 0.949 . S
C35 C30 1.399 . S
C35 C33 1.382 . S
C35 H36 0.952 . S
H36 C35 0.952 . S
H37 C33 0.950 . S
H38 C39 0.949 . S
C39 H38 0.949 . S
C39 C40 1.395 . S
C39 C41 1.391 1_554 S
C40 C39 1.395 . S
C40 C43 1.390 . S
C41 C39 1.391 1_556 S
C41 C45 1.387 . S
C41 C46 1.491 . S
H42 C43 0.950 . S
C43 C40 1.390 . S
C43 H42 0.950 . S
C43 C44 1.378 1_554 S
C44 C43 1.378 1_556 S
C44 C45 1.409 . S
C45 C41 1.387 . S
C45 C44 1.409 . S
C45 H47 0.951 . S
C46 C41 1.491 . S
C46 C48 1.382 1_556 S
C46 C50 1.404 . S
H47 C45 0.951 . S
C48 C46 1.382 1_554 S
C48 C49 1.390 . S
C48 H53 0.949 . S
C49 C48 1.390 . S
C49 C54 1.399 1_554 S
C50 C46 1.404 . S
C50 H51 0.950 . S
C50 C52 1.375 . S
H51 C50 0.950 . S
C52 C50 1.375 . S
C52 C54 1.382 . S
C52 H56 0.950 . S
H53 C48 0.949 . S
C54 C49 1.399 1_556 S
C54 C52 1.382 . S
C54 H55 0.952 . S
H55 C54 0.952 . S
H56 C52 0.950 . S
H57 C58 0.949 . S
C58 H57 0.949 . S
C58 C59 1.395 . S
C58 C60 1.391 . S
C59 C58 1.395 . S
C59 C62 1.390 . S
C60 C58 1.391 . S
C60 C64 1.387 . S
C60 C65 1.491 . S
H61 C62 0.950 . S
C62 C59 1.390 . S
C62 H61 0.950 . S
C62 C63 1.378 . S
C63 C62 1.378 . S
C63 C64 1.409 . S
C64 C60 1.387 . S
C64 C63 1.409 . S
C64 H66 0.951 . S
C65 C60 1.491 . S
C65 C67 1.382 . S
C65 C69 1.404 . S
H66 C64 0.951 . S
C67 C65 1.382 . S
C67 C68 1.390 . S
C67 H72 0.949 . S
C68 C67 1.390 . S
C68 C73 1.399 . S
C69 C65 1.404 . S
C69 H70 0.950 . S
C69 C71 1.375 . S
H70 C69 0.950 . S
C71 C69 1.375 . S
C71 C73 1.382 . S
C71 H75 0.950 . S
H72 C67 0.949 . S
C73 C68 1.399 . S
C73 C71 1.382 . S
C73 H74 0.952 . S
H74 C73 0.952 . S
H75 C71 0.950 . S
C76 O92 1.261 . S
C76 O94 1.254 . S
N77 C78 1.333 . S
N77 C82 1.307 . S
N77 Zn83 2.020 . S
C78 N77 1.333 . S
C78 C79 1.379 . S
C78 H96 0.952 . S
C79 C78 1.379 . S
C79 C80 1.390 . S
C79 H106 0.949 . S
C80 C79 1.390 . S
C80 C81 1.357 . S
C81 C80 1.357 . S
C81 C82 1.370 . S
C81 H107 0.950 . S
C82 N77 1.307 . S
C82 C81 1.370 . S
C82 H100 0.948 . S
Zn83 N77 2.020 . S
Zn83 O92 2.032 1_545 S
Zn83 O98 2.034 1_545 S
Zn83 O102 2.025 1_455 S
Zn83 O104 2.024 1_455 S
C84 O103 1.246 . S
C84 O104 1.249 . S
N85 C86 1.307 . S
N85 C87 1.333 . S
N85 Zn91 2.020 . S
C86 N85 1.307 . S
C86 C90 1.370 . S
C86 H97 0.948 . S
C87 N85 1.333 . S
C87 C88 1.379 . S
C87 H95 0.952 . S
C88 C87 1.379 . S
C88 C89 1.390 . S
C88 H108 0.949 . S
C89 C88 1.390 . S
C89 C90 1.357 . S
C90 C86 1.370 . S
C90 C89 1.357 . S
C90 H109 0.950 . S
Zn91 N85 2.020 . S
Zn91 O94 2.025 1_655 S
Zn91 O99 2.024 1_655 S
Zn91 O101 2.039 1_565 S
Zn91 O103 2.034 1_565 S
O92 C76 1.261 . S
O92 Zn83 2.032 1_565 S
C93 O98 1.246 . S
C93 O99 1.249 . S
O94 C76 1.254 . S
O94 Zn91 2.025 1_455 S
H95 C87 0.952 . S
H96 C78 0.952 . S
H97 C86 0.948 . S
O98 Zn83 2.034 1_565 S
O98 C93 1.246 . S
O99 Zn91 2.024 1_455 S
O99 C93 1.249 . S
H100 C82 0.948 . S
O101 Zn91 2.039 1_545 S
O101 C105 1.251 . S
O102 Zn83 2.025 1_655 S
O102 C105 1.254 . S
O103 C84 1.246 . S
O103 Zn91 2.034 1_545 S
O104 Zn83 2.024 1_655 S
O104 C84 1.249 . S
C105 O101 1.251 . S
C105 O102 1.254 . S
H106 C79 0.949 . S
H107 C81 0.950 . S
H108 C88 0.949 . S
H109 C90 0.950 . S
C110 O126 1.251 . S
C110 O128 1.254 . S
N111 C112 1.333 . S
N111 C116 1.307 . S
N111 Zn117 2.020 . S
C112 N111 1.333 . S
C112 C113 1.379 . S
C112 H130 0.952 1_554 S
C113 C112 1.379 . S
C113 C114 1.390 . S
C113 H140 0.949 1_554 S
C114 C113 1.390 . S
C114 C115 1.357 . S
C115 C114 1.357 . S
C115 C116 1.370 . S
C115 H141 0.950 . S
C116 N111 1.307 . S
C116 C115 1.370 . S
C116 H134 0.948 . S
Zn117 N111 2.020 . S
Zn117 O126 2.039 1_554 S
Zn117 O132 2.034 . S
Zn117 O136 2.025 . S
Zn117 O138 2.024 1_554 S
C118 O137 1.246 . S
C118 O138 1.249 . S
N119 C120 1.307 . S
N119 C121 1.333 . S
N119 Zn125 2.020 . S
C120 N119 1.307 . S
C120 C124 1.370 . S
C120 H131 0.948 1_554 S
C121 N119 1.333 . S
C121 C122 1.379 . S
C121 H129 0.952 . S
C122 C121 1.379 . S
C122 C123 1.390 . S
C122 H142 0.949 . S
C123 C122 1.390 . S
C123 C124 1.357 . S
C124 C120 1.370 . S
C124 C123 1.357 . S
C124 H143 0.950 1_554 S
Zn125 N119 2.020 . S
Zn125 O128 2.025 1_554 S
Zn125 O133 2.024 . S
Zn125 O135 2.039 . S
Zn125 O137 2.034 1_554 S
O126 C110 1.251 . S
O126 Zn117 2.039 1_556 S
C127 O132 1.246 . S
C127 O133 1.249 . S
O128 C110 1.254 . S
O128 Zn125 2.025 1_556 S
H129 C121 0.952 . S
H130 C112 0.952 1_556 S
H131 C120 0.948 1_556 S
O132 Zn117 2.034 . S
O132 C127 1.246 . S
O133 Zn125 2.024 . S
O133 C127 1.249 . S
H134 C116 0.948 . S
O135 Zn125 2.039 . S
O135 C139 1.251 . S
O136 Zn117 2.025 . S
O136 C139 1.254 . S
O137 C118 1.246 . S
O137 Zn125 2.034 1_556 S
O138 Zn117 2.024 1_556 S
O138 C118 1.249 . S
C139 O135 1.251 . S
C139 O136 1.254 . S
H140 C113 0.949 1_556 S
H141 C115 0.950 . S
H142 C122 0.949 . S
H143 C124 0.950 1_556 S
C144 C145 1.369 . S
C144 C146 1.419 . S
C144 H148 0.930 . S
C145 C144 1.369 . S
C145 C154 1.429 . S
C146 C144 1.419 . S
C146 C147 1.363 . S
C146 H149 0.929 . S
C147 C146 1.363 . S
C147 C153 1.428 . S
H148 C144 0.930 . S
H149 C146 0.929 . S
S150 N151 1.613 . S
S150 N152 1.610 . S
N151 S150 1.613 . S
N151 C154 1.350 . S
N152 S150 1.610 . S
N152 C153 1.351 . S
C153 C147 1.428 . S
C153 N152 1.351 . S
C153 C154 1.434 . S
C154 C145 1.429 . S
C154 N151 1.350 . S
C154 C153 1.434 . S
C155 C156 1.369 . S
C155 C157 1.419 . S
C155 H159 0.930 . S
C156 C155 1.369 . S
C156 C165 1.429 . S
C157 C155 1.419 . S
C157 C158 1.363 . S
C157 H160 0.929 . S
C158 C157 1.363 . S
C158 C164 1.428 . S
H159 C155 0.930 . S
H160 C157 0.929 . S
S161 N162 1.613 . S
S161 N163 1.610 . S
N162 S161 1.613 . S
N162 C165 1.350 1_556 S
N163 S161 1.610 . S
N163 C164 1.351 1_556 S
C164 C158 1.428 . S
C164 N163 1.351 1_554 S
C164 C165 1.434 . S
C165 C156 1.429 . S
C165 N162 1.350 1_554 S
C165 C164 1.434 . S
C166 C167 1.369 . S
C166 C168 1.419 . S
C166 H170 0.930 . S
C167 C166 1.369 . S
C167 C176 1.429 . S
C168 C166 1.419 . S
C168 C169 1.363 . S
C168 H171 0.929 . S
C169 C168 1.363 . S
C169 C175 1.428 . S
H170 C166 0.930 . S
H171 C168 0.929 . S
S172 N173 1.613 . S
S172 N174 1.610 . S
N173 S172 1.613 . S
N173 C176 1.350 . S
N174 S172 1.610 . S
N174 C175 1.351 . S
C175 C169 1.428 . S
C175 N174 1.351 . S
C175 C176 1.434 . S
C176 C167 1.429 . S
C176 N173 1.350 . S
C176 C175 1.434 . S
C177 C178 1.364 1_556 S
C177 C179 1.419 . S
C177 H181 0.936 . S
C178 C177 1.364 1_554 S
C178 C187 1.429 . S
C179 C177 1.419 . S
C179 C180 1.363 1_556 S
C179 H182 0.929 . S
C180 C179 1.363 1_554 S
C180 C186 1.428 . S
H181 C177 0.936 . S
H182 C179 0.929 . S
S183 N184 1.613 . S
S183 N185 1.610 . S
N184 S183 1.613 . S
N184 C187 1.350 . S
N185 S183 1.610 . S
N185 C186 1.351 . S
C186 C180 1.428 . S
C186 N185 1.351 . S
C186 C187 1.434 . S
C187 C178 1.429 . S
C187 N184 1.350 . S
C187 C186 1.434 . S
C188 C189 1.369 . S
C188 C190 1.419 . S
C188 H192 0.930 . S
C189 C188 1.369 . S
C189 C198 1.429 . S
C190 C188 1.419 . S
C190 C191 1.363 . S
C190 H193 0.929 . S
C191 C190 1.363 . S
C191 C197 1.428 . S
H192 C188 0.930 . S
H193 C190 0.929 . S
S194 N195 1.613 1_545 S
S194 N196 1.610 . S
N195 S194 1.613 1_565 S
N195 C198 1.350 . S
N196 S194 1.610 . S
N196 C197 1.351 1_545 S
C197 C191 1.428 . S
C197 N196 1.351 1_565 S
C197 C198 1.434 . S
C198 C189 1.429 . S
C198 N195 1.350 . S
C198 C197 1.434 . S
C199 C200 1.369 . S
C199 C201 1.419 . S
C199 H203 0.930 . S
C200 C199 1.369 . S
C200 C209 1.429 . S
C201 C199 1.419 . S
C201 C202 1.363 . S
C201 H204 0.929 . S
C202 C201 1.363 . S
C202 C208 1.428 . S
H203 C199 0.930 . S
H204 C201 0.929 . S
S205 N206 1.613 . S
S205 N207 1.610 . S
N206 S205 1.613 . S
N206 C209 1.350 . S
N207 S205 1.610 . S
N207 C208 1.351 . S
C208 C202 1.428 . S
C208 N207 1.351 . S
C208 C209 1.434 . S
C209 C200 1.429 . S
C209 N206 1.350 . S
C209 C208 1.434 . S
C210 C211 1.369 . S
C210 C212 1.419 . S
C210 H214 0.930 . S
C211 C210 1.369 . S
C211 C220 1.429 . S
C212 C210 1.419 . S
C212 C213 1.363 . S
C212 H215 0.929 . S
C213 C212 1.363 . S
C213 C219 1.428 . S
H214 C210 0.930 . S
H215 C212 0.929 . S
S216 N217 1.613 . S
S216 N218 1.610 . S
N217 S216 1.613 . S
N217 C220 1.350 . S
N218 S216 1.610 . S
N218 C219 1.351 . S
C219 C213 1.428 . S
C219 N218 1.351 . S
C219 C220 1.434 . S
C220 C211 1.429 . S
C220 N217 1.350 . S
C220 C219 1.434 . S
C221 C222 1.369 . S
C221 C223 1.419 . S
C221 H225 0.930 . S
C222 C221 1.369 . S
C222 C231 1.429 . S
C223 C221 1.419 . S
C223 C224 1.363 . S
C223 H226 0.929 . S
C224 C223 1.363 . S
C224 C230 1.428 . S
H225 C221 0.930 . S
H226 C223 0.929 . S
S227 N228 1.613 . S
S227 N229 1.610 . S
N228 S227 1.613 . S
N228 C231 1.350 . S
N229 S227 1.610 . S
N229 C230 1.351 . S
C230 C224 1.428 . S
C230 N229 1.351 . S
C230 C231 1.434 . S
C231 C222 1.429 . S
C231 N228 1.350 . S
C231 C230 1.434 . S
C232 C233 1.369 . S
C232 C234 1.419 . S
C232 H236 0.930 . S
C233 C232 1.369 . S
C233 C242 1.429 . S
C234 C232 1.419 . S
C234 C235 1.363 . S
C234 H237 0.929 . S
C235 C234 1.363 . S
C235 C241 1.428 . S
H236 C232 0.930 . S
H237 C234 0.929 . S
S238 N239 1.613 . S
S238 N240 1.610 . S
N239 S238 1.613 . S
N239 C242 1.350 . S
N240 S238 1.610 . S
N240 C241 1.351 . S
C241 C235 1.428 . S
C241 N240 1.351 . S
C241 C242 1.434 . S
C242 C233 1.429 . S
C242 N239 1.350 . S
C242 C241 1.434 . S
C243 C244 1.369 . S
C243 C245 1.419 . S
C243 H247 0.930 . S
C244 C243 1.369 . S
C244 C253 1.429 . S
C245 C243 1.419 . S
C245 C246 1.363 . S
C245 H248 0.929 . S
C246 C245 1.363 . S
C246 C252 1.428 . S
H247 C243 0.930 . S
H248 C245 0.929 . S
S249 N250 1.613 . S
S249 N251 1.610 . S
N250 S249 1.613 . S
N250 C253 1.350 . S
N251 S249 1.610 . S
N251 C252 1.351 . S
C252 C246 1.428 . S
C252 N251 1.351 . S
C252 C253 1.434 . S
C253 C244 1.429 . S
C253 N250 1.350 . S
C253 C252 1.434 . S
C254 C255 1.369 . S
C254 C256 1.419 . S
C254 H258 0.930 . S
C255 C254 1.369 . S
C255 C264 1.429 . S
C256 C254 1.419 . S
C256 C257 1.363 . S
C256 H259 0.929 . S
C257 C256 1.363 . S
C257 C263 1.428 . S
H258 C254 0.930 . S
H259 C256 0.929 . S
S260 N261 1.613 . S
S260 N262 1.610 . S
N261 S260 1.613 . S
N261 C264 1.350 . S
N262 S260 1.610 . S
N262 C263 1.351 . S
C263 C257 1.428 . S
C263 N262 1.351 . S
C263 C264 1.434 . S
C264 C255 1.429 . S
C264 N261 1.350 . S
C264 C263 1.434 . S
C265 C266 1.369 . S
C265 C267 1.419 . S
C265 H269 0.930 . S
C266 C265 1.369 . S
C266 C275 1.429 . S
C267 C265 1.419 . S
C267 C268 1.363 . S
C267 H270 0.929 . S
C268 C267 1.363 . S
C268 C274 1.428 . S
H269 C265 0.930 . S
H270 C267 0.929 . S
S271 N272 1.613 . S
S271 N273 1.610 . S
N272 S271 1.613 . S
N272 C275 1.350 . S
N273 S271 1.610 . S
N273 C274 1.351 . S
C274 C268 1.428 . S
C274 N273 1.351 . S
C274 C275 1.434 . S
C275 C266 1.429 . S
C275 N272 1.350 . S
C275 C274 1.434 . S
C147 C80 1.530 . S
C145 C68 1.398 . S
C156 C11 1.397 . S
C158 C123 1.532 . S
C167 C30 1.407 . S
C169 C89 1.531 . S
C178 C49 1.404 . S
C180 C114 1.528 . S
C191 C76 1.615 . S
C189 C2 1.573 . S
C202 C118 1.589 . S
C200 C25 1.590 . S
C211 C40 1.571 . S
C213 C84 1.606 . S
C222 C59 1.554 . S
C224 C110 1.589 . S
C235 C139 1.502 . S
C233 C21 1.472 . S
C246 C105 1.491 . S
C244 C44 1.490 . S
C257 C127 1.508 . S
C255 C63 1.509 . S
C266 C6 1.491 . S
C268 C93 1.491 . S
