# Generated by pormake.
# Topology pyr, (3,6)-cn, num edge types: 1
# Building blocks:
#     Node 0, Type 0, BuildingBlock: VETTIZ_charged_linker_0, # of connection points: 3
#     Node 1, Type 0, BuildingBlock: VETTIZ_charged_linker_0, # of connection points: 3
#     Node 2, Type 0, BuildingBlock: VETTIZ_charged_linker_0, # of connection points: 3
#     Node 3, Type 0, BuildingBlock: VETTIZ_charged_linker_0, # of connection points: 3
#     Node 4, Type 0, BuildingBlock: VETTIZ_charged_linker_0, # of connection points: 3
#     Node 5, Type 0, BuildingBlock: VETTIZ_charged_linker_0, # of connection points: 3
#     Node 6, Type 0, BuildingBlock: VETTIZ_charged_linker_0, # of connection points: 3
#     Node 7, Type 0, BuildingBlock: VETTIZ_charged_linker_0, # of connection points: 3
#     Node 8, Type 1, BuildingBlock: GEDQOX_clean_sbu_0, # of connection points: 6
#     Node 9, Type 1, BuildingBlock: GEDQOX_clean_sbu_0, # of connection points: 6
#     Node 10, Type 1, BuildingBlock: GEDQOX_clean_sbu_0, # of connection points: 6
#     Node 11, Type 1, BuildingBlock: GEDQOX_clean_sbu_0, # of connection points: 6
#     Edge 12, Type (0, 1), BuildingBlock: ZUJKAS_clean_linker_0, # of connection points: 2
#     Edge 13, Type (0, 1), BuildingBlock: ZUJKAS_clean_linker_0, # of connection points: 2
#     Edge 14, Type (0, 1), BuildingBlock: ZUJKAS_clean_linker_0, # of connection points: 2
#     Edge 15, Type (0, 1), BuildingBlock: ZUJKAS_clean_linker_0, # of connection points: 2
#     Edge 16, Type (0, 1), BuildingBlock: ZUJKAS_clean_linker_0, # of connection points: 2
#     Edge 17, Type (0, 1), BuildingBlock: ZUJKAS_clean_linker_0, # of connection points: 2
#     Edge 18, Type (0, 1), BuildingBlock: ZUJKAS_clean_linker_0, # of connection points: 2
#     Edge 19, Type (0, 1), BuildingBlock: ZUJKAS_clean_linker_0, # of connection points: 2
#     Edge 20, Type (0, 1), BuildingBlock: ZUJKAS_clean_linker_0, # of connection points: 2
#     Edge 21, Type (0, 1), BuildingBlock: ZUJKAS_clean_linker_0, # of connection points: 2
#     Edge 22, Type (0, 1), BuildingBlock: ZUJKAS_clean_linker_0, # of connection points: 2
#     Edge 23, Type (0, 1), BuildingBlock: ZUJKAS_clean_linker_0, # of connection points: 2
#     Edge 24, Type (0, 1), BuildingBlock: ZUJKAS_clean_linker_0, # of connection points: 2
#     Edge 25, Type (0, 1), BuildingBlock: ZUJKAS_clean_linker_0, # of connection points: 2
#     Edge 26, Type (0, 1), BuildingBlock: ZUJKAS_clean_linker_0, # of connection points: 2
#     Edge 27, Type (0, 1), BuildingBlock: ZUJKAS_clean_linker_0, # of connection points: 2
#     Edge 28, Type (0, 1), BuildingBlock: ZUJKAS_clean_linker_0, # of connection points: 2
#     Edge 29, Type (0, 1), BuildingBlock: ZUJKAS_clean_linker_0, # of connection points: 2
#     Edge 30, Type (0, 1), BuildingBlock: ZUJKAS_clean_linker_0, # of connection points: 2
#     Edge 31, Type (0, 1), BuildingBlock: ZUJKAS_clean_linker_0, # of connection points: 2
#     Edge 32, Type (0, 1), BuildingBlock: ZUJKAS_clean_linker_0, # of connection points: 2
#     Edge 33, Type (0, 1), BuildingBlock: ZUJKAS_clean_linker_0, # of connection points: 2
#     Edge 34, Type (0, 1), BuildingBlock: ZUJKAS_clean_linker_0, # of connection points: 2
#     Edge 35, Type (0, 1), BuildingBlock: ZUJKAS_clean_linker_0, # of connection points: 2
# Relax obj value: 0.082
# Max RMSD: 0.146
# Mean RMSD: 0.059
data_MOF--net-pyr--node1-GEDQOX_clean_sbu_0--node2-VETTIZ_charged_linker_0--edge1-ZUJKAS_clean_linker_0
_symmetry_space_group_name_H-M    P1
_symmetry_Int_Tables_number       1
_symmetry_cell_setting            triclinic
loop_
_symmetry_equiv_pos_as_xyz
'x, y, z'
_cell_length_a     59.254811
_cell_length_b     59.533139
_cell_length_c     52.683402
_cell_angle_alpha  87.025395
_cell_angle_beta   90.747366
_cell_angle_gamma 86.981023
loop_
_atom_site_label
_atom_site_type_symbol
_atom_site_fract_x
_atom_site_fract_y
_atom_site_fract_z
_atom_type_partial_charge
C0 C 0.17101 0.1368 0.24117 0.0
C1 C 0.15059 0.14462 0.25226 0.0
C2 C 0.13944 0.16439 0.24119 0.0
C3 C 0.16881 0.16845 0.20969 0.0
C4 C 0.17971 0.14891 0.21997 0.0
C5 C 0.20104 0.14303 0.20567 0.0
H6 H 0.27315 0.16662 0.10884 0.0
C7 C 0.18215 0.17715 0.18788 0.0
C8 C 0.20107 0.16223 0.18526 0.0
H9 H 0.27815 0.11095 0.16504 0.0
H10 H 0.24383 0.1247 0.18428 0.0
H11 H 0.25745 0.2047 0.14936 0.0
H12 H 0.21752 0.16654 0.09943 0.0
H13 H 0.20792 0.19512 0.09717 0.0
H14 H 0.23617 0.18731 0.08749 0.0
H15 H 0.25811 0.20904 0.11538 0.0
H16 H 0.2365 0.22268 0.13381 0.0
C17 C 0.22138 0.14348 0.22433 0.0
C18 C 0.19832 0.11998 0.194 0.0
C19 C 0.15506 0.25083 0.14065 0.0
C20 C 0.16305 0.26367 0.11969 0.0
C21 C 0.18281 0.25535 0.10774 0.0
C22 C 0.19436 0.235 0.11656 0.0
C23 C 0.18619 0.22253 0.13764 0.0
C24 C 0.16674 0.23055 0.14917 0.0
C25 C 0.16009 0.21511 0.17101 0.0
C26 C 0.17885 0.19664 0.17108 0.0
C27 C 0.19426 0.20094 0.1515 0.0
C28 C 0.16066 0.2284 0.19551 0.0
C29 C 0.13671 0.20611 0.16452 0.0
C30 C 0.26676 0.1573 0.12517 0.0
C31 C 0.27872 0.13757 0.13534 0.0
C32 C 0.26971 0.12627 0.15687 0.0
C33 C 0.24958 0.13424 0.16802 0.0
C34 C 0.23797 0.15394 0.15781 0.0
C35 C 0.24663 0.16523 0.13677 0.0
C36 C 0.23219 0.18628 0.12904 0.0
C37 C 0.2134 0.18558 0.1486 0.0
C38 C 0.21685 0.16644 0.16544 0.0
C39 C 0.24673 0.20687 0.13182 0.0
C40 C 0.22299 0.18391 0.10178 0.0
H41 H 0.13892 0.19113 0.21306 0.0
H42 H 0.18022 0.12177 0.24896 0.0
H43 H 0.18075 0.11865 0.18674 0.0
H44 H 0.20915 0.11743 0.1774 0.0
H45 H 0.20193 0.10589 0.20838 0.0
H46 H 0.21884 0.15737 0.23751 0.0
H47 H 0.2236 0.12744 0.23605 0.0
H48 H 0.23737 0.14681 0.21467 0.0
H49 H 0.13977 0.25626 0.15013 0.0
H50 H 0.18962 0.26476 0.09173 0.0
H51 H 0.20928 0.22977 0.10663 0.0
H52 H 0.17532 0.23935 0.19548 0.0
H53 H 0.14507 0.23941 0.19708 0.0
H54 H 0.16288 0.21744 0.213 0.0
H55 H 0.13432 0.20502 0.14364 0.0
H56 H 0.13477 0.18874 0.17238 0.0
H57 H 0.12271 0.2173 0.17132 0.0
H58 H 0.12346 0.17068 0.24849 0.0
C59 C 0.14838 0.17626 0.22026 0.0
C60 C 0.27892 0.80028 0.72778 0.0
C61 C 0.26644 0.81801 0.73854 0.0
C62 C 0.27574 0.82834 0.75949 0.0
C63 C 0.31003 0.80446 0.75725 0.0
C64 C 0.30053 0.79385 0.73735 0.0
C65 C 0.31635 0.77616 0.72701 0.0
H66 H 0.4205 0.72504 0.72362 0.0
C67 C 0.33342 0.79486 0.76121 0.0
C68 C 0.33715 0.77822 0.74364 0.0
H69 H 0.36074 0.71239 0.67963 0.0
H70 H 0.33905 0.73979 0.70219 0.0
H71 H 0.4127 0.77871 0.7223 0.0
H72 H 0.39388 0.72807 0.77853 0.0
H73 H 0.40512 0.75043 0.79427 0.0
H74 H 0.42276 0.73454 0.77325 0.0
H75 H 0.43322 0.76331 0.74274 0.0
H76 H 0.41824 0.78846 0.75255 0.0
C77 C 0.3207 0.783 0.69874 0.0
C78 C 0.30584 0.75297 0.73147 0.0
C79 C 0.38451 0.82744 0.82617 0.0
C80 C 0.40749 0.82363 0.83273 0.0
C81 C 0.42044 0.80701 0.82041 0.0
C82 C 0.41057 0.79437 0.80183 0.0
C83 C 0.38759 0.79856 0.79531 0.0
C84 C 0.375 0.81489 0.80747 0.0
C85 C 0.35111 0.81783 0.79751 0.0
C86 C 0.35124 0.80032 0.77765 0.0
C87 C 0.37263 0.78904 0.77638 0.0
C88 C 0.34744 0.84213 0.78553 0.0
C89 C 0.33503 0.81207 0.81959 0.0
C90 C 0.4027 0.7281 0.71906 0.0
C91 C 0.3924 0.71678 0.69951 0.0
C92 C 0.3692 0.72124 0.69416 0.0
C93 C 0.35656 0.73709 0.70742 0.0
C94 C 0.36714 0.74878 0.72629 0.0
C95 C 0.38973 0.74403 0.73218 0.0
C96 C 0.39784 0.75811 0.75312 0.0
C97 C 0.37637 0.77208 0.75862 0.0
C98 C 0.35859 0.76659 0.74262 0.0
C99 C 0.41661 0.77289 0.74236 0.0
C100 C 0.40549 0.74209 0.77605 0.0
H101 H 0.30369 0.83034 0.78468 0.0
H102 H 0.27248 0.79217 0.71145 0.0
H103 H 0.29451 0.75281 0.74816 0.0
H104 H 0.31872 0.73916 0.73607 0.0
H105 H 0.29564 0.7487 0.71473 0.0
H106 H 0.32198 0.80155 0.69604 0.0
H107 H 0.30671 0.77814 0.68627 0.0
H108 H 0.33681 0.77575 0.69173 0.0
H109 H 0.37424 0.84041 0.83491 0.0
H110 H 0.43818 0.80376 0.82522 0.0
H111 H 0.42127 0.78197 0.79311 0.0
H112 H 0.3632 0.84796 0.7767 0.0
H113 H 0.34237 0.85418 0.80009 0.0
H114 H 0.3348 0.84353 0.76988 0.0
H115 H 0.34237 0.79776 0.83201 0.0
H116 H 0.3186 0.80646 0.81295 0.0
H117 H 0.33205 0.82667 0.83163 0.0
H118 H 0.26635 0.84185 0.76835 0.0
C119 C 0.29742 0.82162 0.76895 0.0
C120 C 0.67681 0.34385 0.92099 0.0
C121 C 0.65633 0.3351 0.91338 0.0
C122 C 0.64479 0.3449 0.89164 0.0
C123 C 0.67455 0.37067 0.88461 0.0
C124 C 0.68555 0.36164 0.90637 0.0
C125 C 0.70741 0.37261 0.91117 0.0
H126 H 0.78476 0.4461 0.87179 0.0
C127 C 0.68865 0.38794 0.87288 0.0
C128 C 0.70784 0.38936 0.88842 0.0
H129 H 0.78623 0.4026 0.9402 0.0
H130 H 0.75005 0.38903 0.92888 0.0
H131 H 0.73143 0.46265 0.87473 0.0
H132 H 0.7659 0.40965 0.83505 0.0
H133 H 0.74545 0.42322 0.8143 0.0
H134 H 0.76826 0.43891 0.82595 0.0
H135 H 0.74909 0.46834 0.84797 0.0
H136 H 0.7197 0.46268 0.84388 0.0
C137 C 0.70544 0.38454 0.93657 0.0
C138 C 0.72693 0.35426 0.91062 0.0
C139 C 0.66528 0.4243 0.78699 0.0
C140 C 0.6751 0.43996 0.77027 0.0
C141 C 0.69517 0.44967 0.77779 0.0
C142 C 0.70562 0.44327 0.80136 0.0
C143 C 0.69585 0.42705 0.81756 0.0
C144 C 0.67585 0.41812 0.81031 0.0
C145 C 0.66767 0.40123 0.8297 0.0
C146 C 0.6862 0.40117 0.84976 0.0
C147 C 0.70274 0.41622 0.8426 0.0
C148 C 0.64461 0.41041 0.83963 0.0
C149 C 0.66698 0.37826 0.81714 0.0
C150 C 0.77715 0.43382 0.88442 0.0
C151 C 0.78839 0.42534 0.90687 0.0
C152 C 0.77805 0.40915 0.92264 0.0
C153 C 0.75698 0.40137 0.9161 0.0
C154 C 0.74611 0.40973 0.89343 0.0
C155 C 0.75613 0.42576 0.87806 0.0
C156 C 0.74217 0.43248 0.85455 0.0
C157 C 0.72207 0.41796 0.85847 0.0
C158 C 0.72454 0.40463 0.88126 0.0
C159 C 0.73527 0.4579 0.85503 0.0
C160 C 0.75607 0.42593 0.8311 0.0
H161 H 0.64426 0.36902 0.86078 0.0
H162 H 0.68598 0.33685 0.93773 0.0
H163 H 0.7237 0.34219 0.89572 0.0
H164 H 0.74335 0.36111 0.90571 0.0
H165 H 0.72871 0.34448 0.92914 0.0
H166 H 0.6878 0.39112 0.93954 0.0
H167 H 0.71031 0.37276 0.95301 0.0
H168 H 0.71568 0.3995 0.93706 0.0
H169 H 0.64959 0.41692 0.78204 0.0
H170 H 0.703 0.46184 0.76522 0.0
H171 H 0.72101 0.45101 0.80594 0.0
H172 H 0.64349 0.42915 0.83891 0.0
H173 H 0.63033 0.40489 0.82803 0.0
H174 H 0.642 0.4054 0.85984 0.0
H175 H 0.68135 0.37591 0.80398 0.0
H176 H 0.66879 0.36364 0.83091 0.0
H177 H 0.6511 0.37718 0.80593 0.0
H178 H 0.62917 0.33831 0.88509 0.0
C179 C 0.65372 0.36264 0.87733 0.0
C180 C 0.90184 0.80523 0.35377 0.0
C181 C 0.90034 0.80676 0.38028 0.0
C182 C 0.88833 0.79063 0.39436 0.0
C183 C 0.87981 0.77199 0.35588 0.0
C184 C 0.89135 0.7879 0.34201 0.0
C185 C 0.89083 0.7842 0.31397 0.0
H186 H 0.85675 0.72181 0.21822 0.0
C187 C 0.87092 0.75624 0.33801 0.0
C188 C 0.87715 0.76339 0.31337 0.0
H189 H 0.89766 0.77976 0.21242 0.0
H190 H 0.89484 0.78374 0.25792 0.0
H191 H 0.8821 0.69923 0.26216 0.0
H192 H 0.82057 0.7408 0.261 0.0
H193 H 0.81684 0.71707 0.28158 0.0
H194 H 0.82297 0.71324 0.24865 0.0
H195 H 0.85529 0.68797 0.25564 0.0
H196 H 0.86644 0.68864 0.28766 0.0
C197 C 0.91542 0.7795 0.30526 0.0
C198 C 0.8784 0.80498 0.30018 0.0
C199 C 0.82764 0.68964 0.37137 0.0
C200 C 0.81804 0.67182 0.3593 0.0
C201 C 0.81986 0.67061 0.33279 0.0
C202 C 0.83072 0.68711 0.31839 0.0
C203 C 0.84005 0.70496 0.33064 0.0
C204 C 0.83866 0.70588 0.35672 0.0
C205 C 0.85007 0.72578 0.36647 0.0
C206 C 0.85845 0.73667 0.34189 0.0
C207 C 0.85232 0.72451 0.32103 0.0
C208 C 0.86982 0.71675 0.38439 0.0
C209 C 0.83198 0.74109 0.37914 0.0
C210 C 0.86447 0.73586 0.22656 0.0
C211 C 0.87695 0.75086 0.21169 0.0
C212 C 0.88769 0.76821 0.22351 0.0
C213 C 0.88612 0.77037 0.24989 0.0
C214 C 0.874 0.75478 0.26456 0.0
C215 C 0.86341 0.73795 0.25273 0.0
C216 C 0.85265 0.72185 0.27115 0.0
C217 C 0.8581 0.73199 0.2961 0.0
C218 C 0.8705 0.75131 0.29223 0.0
C219 C 0.86451 0.69812 0.26907 0.0
C220 C 0.8269 0.72307 0.26536 0.0
H221 H 0.86921 0.7616 0.39411 0.0
H222 H 0.91107 0.81718 0.34235 0.0
H223 H 0.86382 0.81115 0.31149 0.0
H224 H 0.87104 0.80125 0.28162 0.0
H225 H 0.88987 0.81903 0.29738 0.0
H226 H 0.92554 0.76954 0.32027 0.0
H227 H 0.92391 0.79546 0.30117 0.0
H228 H 0.91647 0.76925 0.2884 0.0
H229 H 0.82663 0.69087 0.39177 0.0
H230 H 0.81235 0.65716 0.32309 0.0
H231 H 0.83126 0.68539 0.29825 0.0
H232 H 0.87825 0.70128 0.37712 0.0
H233 H 0.86367 0.71238 0.40376 0.0
H234 H 0.88338 0.72865 0.38582 0.0
H235 H 0.81529 0.74061 0.36932 0.0
H236 H 0.83588 0.75905 0.37796 0.0
H237 H 0.82973 0.73557 0.39938 0.0
H238 H 0.88646 0.79162 0.41469 0.0
C239 C 0.87814 0.77327 0.38233 0.0
C240 C 0.87198 0.78599 0.90902 0.0
C241 C 0.89214 0.77513 0.9004 0.0
C242 C 0.90368 0.78611 0.8804 0.0
C243 C 0.87508 0.817 0.87722 0.0
C244 C 0.86383 0.80684 0.8972 0.0
C245 C 0.84287 0.8209 0.90387 0.0
H246 H 0.77227 0.91456 0.87923 0.0
C247 C 0.86221 0.83826 0.86869 0.0
C248 C 0.84322 0.84078 0.88429 0.0
H249 H 0.76674 0.86272 0.93904 0.0
H250 H 0.80067 0.84331 0.92464 0.0
H251 H 0.78681 0.88053 0.83497 0.0
H252 H 0.82666 0.91832 0.88508 0.0
H253 H 0.83753 0.92117 0.85423 0.0
H254 H 0.80908 0.93165 0.86002 0.0
H255 H 0.78757 0.91064 0.83154 0.0
H256 H 0.80855 0.89243 0.81726 0.0
C257 C 0.82206 0.80677 0.90007 0.0
C258 C 0.84594 0.82843 0.93131 0.0
C259 C 0.89075 0.88555 0.79314 0.0
C260 C 0.88262 0.90565 0.77986 0.0
C261 C 0.86219 0.91611 0.78812 0.0
C262 C 0.85036 0.90699 0.80894 0.0
C263 C 0.85881 0.88699 0.82196 0.0
C264 C 0.87866 0.87659 0.81385 0.0
C265 C 0.88503 0.85529 0.82961 0.0
C266 C 0.86586 0.8546 0.84858 0.0
C267 C 0.85049 0.87327 0.84414 0.0
C268 C 0.88488 0.83535 0.81183 0.0
C269 C 0.90811 0.85827 0.84287 0.0
C270 C 0.77821 0.89896 0.88917 0.0
C271 C 0.76652 0.89037 0.91048 0.0
C272 C 0.77534 0.87007 0.92287 0.0
C273 C 0.79509 0.85868 0.91438 0.0
C274 C 0.80658 0.86756 0.89321 0.0
C275 C 0.79808 0.88744 0.88103 0.0
C276 C 0.81264 0.89464 0.85907 0.0
C277 C 0.83128 0.87595 0.86007 0.0
C278 C 0.82765 0.85992 0.8801 0.0
C279 C 0.79825 0.89478 0.83432 0.0
C280 C 0.82194 0.91773 0.86462 0.0
H281 H 0.90508 0.81382 0.85376 0.0
H282 H 0.86256 0.77834 0.92433 0.0
H283 H 0.86375 0.83254 0.93496 0.0
H284 H 0.83577 0.84396 0.93498 0.0
H285 H 0.84167 0.81489 0.94547 0.0
H286 H 0.82346 0.79775 0.88214 0.0
H287 H 0.82065 0.79396 0.91599 0.0
H288 H 0.80607 0.81712 0.89827 0.0
H289 H 0.90643 0.87701 0.78782 0.0
H290 H 0.85504 0.93129 0.77824 0.0
H291 H 0.83499 0.91586 0.81406 0.0
H292 H 0.87103 0.83802 0.79734 0.0
H293 H 0.90106 0.83349 0.80154 0.0
H294 H 0.88158 0.81916 0.82191 0.0
H295 H 0.90984 0.87609 0.8477 0.0
H296 H 0.91015 0.84851 0.86125 0.0
H297 H 0.92238 0.85357 0.8304 0.0
H298 H 0.91953 0.77891 0.8737 0.0
C299 C 0.89532 0.80669 0.86885 0.0
C300 C 0.77238 0.24459 0.30585 0.0
C301 C 0.7856 0.22635 0.29709 0.0
C302 C 0.77638 0.2133 0.27828 0.0
C303 C 0.74103 0.23581 0.27865 0.0
C304 C 0.75024 0.24877 0.29671 0.0
C305 C 0.73356 0.26622 0.30596 0.0
H306 H 0.62808 0.31515 0.30387 0.0
C307 C 0.71722 0.24405 0.27426 0.0
C308 C 0.71278 0.26177 0.2903 0.0
H309 H 0.68508 0.32849 0.3517 0.0
H310 H 0.70832 0.30074 0.33112 0.0
H311 H 0.63581 0.26179 0.30948 0.0
H312 H 0.6568 0.30898 0.25073 0.0
H313 H 0.64616 0.28569 0.23618 0.0
H314 H 0.62776 0.30276 0.25525 0.0
H315 H 0.61621 0.27526 0.2865 0.0
H316 H 0.63217 0.24956 0.28019 0.0
C317 C 0.73011 0.26115 0.33485 0.0
C318 C 0.74247 0.28974 0.29902 0.0
C319 C 0.66804 0.20684 0.21079 0.0
C320 C 0.64521 0.21022 0.20328 0.0
C321 C 0.63188 0.22753 0.21397 0.0
C322 C 0.64114 0.24121 0.23189 0.0
C323 C 0.66394 0.23744 0.23941 0.0
C324 C 0.67698 0.22051 0.22883 0.0
C325 C 0.7007 0.21853 0.23948 0.0
C326 C 0.69984 0.23718 0.25803 0.0
C327 C 0.67826 0.24822 0.25796 0.0
C328 C 0.70463 0.19493 0.25319 0.0
C329 C 0.71711 0.22333 0.21745 0.0
C330 C 0.64564 0.31207 0.30961 0.0
C331 C 0.65494 0.32388 0.3293 0.0
C332 C 0.67769 0.31942 0.33662 0.0
C333 C 0.69112 0.3033 0.32464 0.0
C334 C 0.68163 0.29123 0.30532 0.0
C335 C 0.65926 0.29562 0.29806 0.0
C336 C 0.65202 0.28032 0.27789 0.0
C337 C 0.67377 0.26615 0.27429 0.0
C338 C 0.69098 0.27279 0.29035 0.0
C339 C 0.63295 0.26601 0.28882 0.0
C340 C 0.64514 0.29506 0.25369 0.0
H341 H 0.7481 0.20727 0.25494 0.0
H342 H 0.7789 0.25522 0.31999 0.0
H343 H 0.75031 0.29007 0.27993 0.0
H344 H 0.72899 0.30329 0.29768 0.0
H345 H 0.75553 0.29414 0.31297 0.0
H346 H 0.7337 0.24299 0.34031 0.0
H347 H 0.74146 0.2709 0.34649 0.0
H348 H 0.71244 0.26454 0.34065 0.0
H349 H 0.67863 0.19345 0.20325 0.0
H350 H 0.61429 0.23056 0.20833 0.0
H351 H 0.63015 0.2541 0.23931 0.0
H352 H 0.68877 0.18917 0.26186 0.0
H353 H 0.71048 0.18218 0.23974 0.0
H354 H 0.7168 0.19478 0.26926 0.0
H355 H 0.7101 0.23738 0.20445 0.0
H356 H 0.73361 0.22879 0.22402 0.0
H357 H 0.71995 0.20829 0.20604 0.0
H358 H 0.78599 0.19897 0.27135 0.0
C359 C 0.75424 0.218 0.26895 0.0
C360 C 0.38502 0.61144 0.24005 0.0
C361 C 0.37488 0.5968 0.25769 0.0
C362 C 0.35437 0.58748 0.25101 0.0
C363 C 0.35389 0.60852 0.21023 0.0
C364 C 0.37432 0.61704 0.21665 0.0
C365 C 0.38277 0.6329 0.1963 0.0
H366 H 0.36306 0.69644 0.08803 0.0
C367 C 0.34691 0.61868 0.18491 0.0
C368 C 0.36384 0.63289 0.17668 0.0
H369 H 0.42235 0.69258 0.13715 0.0
H370 H 0.40715 0.66241 0.16244 0.0
H371 H 0.32648 0.69155 0.13168 0.0
H372 H 0.36 0.64251 0.08601 0.0
H373 H 0.33249 0.6337 0.09064 0.0
H374 H 0.33659 0.66038 0.07387 0.0
H375 H 0.32111 0.68997 0.09822 0.0
H376 H 0.30612 0.67343 0.12136 0.0
C377 C 0.3845 0.65626 0.20771 0.0
C378 C 0.40536 0.62259 0.18634 0.0
C379 C 0.27117 0.60185 0.14558 0.0
C380 C 0.25976 0.60992 0.12307 0.0
C381 C 0.27013 0.62558 0.10664 0.0
C382 C 0.29144 0.63318 0.11253 0.0
C383 C 0.30253 0.62515 0.13518 0.0
C384 C 0.29244 0.60971 0.15126 0.0
C385 C 0.30668 0.6033 0.17465 0.0
C386 C 0.32713 0.61714 0.1697 0.0
C387 C 0.32451 0.62998 0.14659 0.0
C388 C 0.29339 0.61092 0.19811 0.0
C389 C 0.31288 0.5777 0.175 0.0
C390 C 0.37275 0.68897 0.10419 0.0
C391 C 0.39386 0.69698 0.11069 0.0
C392 C 0.40615 0.6866 0.1316 0.0
C393 C 0.39718 0.6692 0.14646 0.0
C394 C 0.37561 0.66211 0.1405 0.0
C395 C 0.36405 0.67143 0.11924 0.0
C396 C 0.34171 0.66104 0.11545 0.0
C397 C 0.34154 0.64452 0.13844 0.0
C398 C 0.36129 0.64554 0.15318 0.0
C399 C 0.32274 0.67987 0.11654 0.0
C400 C 0.3425 0.64886 0.09014 0.0
H401 H 0.32809 0.58588 0.22346 0.0
H402 H 0.40105 0.61845 0.24436 0.0
H403 H 0.40631 0.60389 0.18885 0.0
H404 H 0.40731 0.62606 0.16566 0.0
H405 H 0.4201 0.62879 0.19661 0.0
H406 H 0.36982 0.66002 0.22004 0.0
H407 H 0.40011 0.65677 0.21953 0.0
H408 H 0.38416 0.67035 0.19326 0.0
H409 H 0.26355 0.58999 0.15872 0.0
H410 H 0.26181 0.63182 0.08904 0.0
H411 H 0.29839 0.6451 0.09924 0.0
H412 H 0.28364 0.62717 0.19366 0.0
H413 H 0.28118 0.59827 0.20429 0.0
H414 H 0.30443 0.6142 0.21438 0.0
H415 H 0.31642 0.57231 0.15547 0.0
H416 H 0.32842 0.57278 0.18616 0.0
H417 H 0.29881 0.56783 0.18256 0.0
H418 H 0.34627 0.5761 0.2643 0.0
C419 C 0.3438 0.59328 0.22737 0.0
C420 C 0.14301 0.22454 0.68482 0.0
C421 C 0.1455 0.22064 0.65891 0.0
C422 C 0.16004 0.23381 0.6442 0.0
C423 C 0.16969 0.25407 0.68118 0.0
C424 C 0.15541 0.24112 0.69559 0.0
C425 C 0.15569 0.24665 0.72313 0.0
H426 H 0.1994 0.30633 0.81626 0.0
C427 C 0.18069 0.26922 0.69824 0.0
C428 C 0.17281 0.26473 0.72293 0.0
H429 H 0.14576 0.26016 0.8227 0.0
H430 H 0.14924 0.25259 0.77802 0.0
H431 H 0.17983 0.33101 0.76986 0.0
H432 H 0.23217 0.27827 0.77645 0.0
H433 H 0.24106 0.29898 0.75427 0.0
H434 H 0.23544 0.3063 0.78645 0.0
H435 H 0.20853 0.33677 0.77713 0.0
H436 H 0.19808 0.33681 0.74477 0.0
C437 C 0.13175 0.256 0.72995 0.0
C438 C 0.1641 0.22523 0.73916 0.0
C439 C 0.23414 0.32658 0.66245 0.0
C440 C 0.24699 0.34261 0.67391 0.0
C441 C 0.24659 0.34399 0.70052 0.0
C442 C 0.23351 0.32977 0.71548 0.0
C443 C 0.22058 0.314 0.70378 0.0
C444 C 0.22112 0.31248 0.67772 0.0
C445 C 0.20657 0.29439 0.66876 0.0
C446 C 0.19666 0.28588 0.69369 0.0
C447 C 0.205 0.29741 0.71405 0.0
C448 C 0.18817 0.30564 0.65044 0.0
C449 C 0.22207 0.27611 0.65678 0.0
C450 C 0.18894 0.29403 0.80819 0.0
C451 C 0.17275 0.2833 0.82294 0.0
C452 C 0.15861 0.26825 0.81162 0.0
C453 C 0.16057 0.26406 0.78572 0.0
C454 C 0.1765 0.27544 0.771 0.0
C455 C 0.19026 0.29019 0.78234 0.0
C456 C 0.20453 0.30259 0.76357 0.0
C457 C 0.19749 0.29253 0.73906 0.0
C458 C 0.18129 0.27647 0.74349 0.0
C459 C 0.19763 0.32813 0.76382 0.0
C460 C 0.22967 0.29645 0.77048 0.0
H461 H 0.1829 0.26001 0.64299 0.0
H462 H 0.13217 0.21445 0.69664 0.0
H463 H 0.17845 0.21641 0.72971 0.0
H464 H 0.17063 0.22888 0.75812 0.0
H465 H 0.15044 0.21325 0.74154 0.0
H466 H 0.12331 0.2654 0.71333 0.0
H467 H 0.12082 0.24219 0.73606 0.0
H468 H 0.13207 0.26835 0.74489 0.0
H469 H 0.2344 0.32486 0.64209 0.0
H470 H 0.25618 0.35633 0.70977 0.0
H471 H 0.2339 0.33173 0.73559 0.0
H472 H 0.18107 0.32157 0.65804 0.0
H473 H 0.19529 0.30982 0.63148 0.0
H474 H 0.17358 0.29515 0.6479 0.0
H475 H 0.23947 0.27548 0.66508 0.0
H476 H 0.21628 0.25892 0.66055 0.0
H477 H 0.22346 0.27947 0.63593 0.0
H478 H 0.16208 0.23113 0.62415 0.0
C479 C 0.17208 0.25056 0.65517 0.0
Nd480 Nd 0.03579 1.00098 0.51533 0.0
Nd481 Nd 0.99903 0.03828 0.51277 0.0
C482 C 0.06393 0.96544 0.51237 0.0
C483 C 0.07582 0.95065 0.53182 0.0
C484 C 0.09025 0.93269 0.5249 0.0
C485 C 0.10228 0.91927 0.54361 0.0
C486 C 0.10009 0.92381 0.56944 0.0
C487 C 0.08523 0.94161 0.57623 0.0
C488 C 0.07317 0.95489 0.55757 0.0
C489 C 0.04358 0.03588 0.5459 0.0
C490 C 0.99888 1.00209 0.5607 0.0
C491 C 0.97158 0.07478 0.50904 0.0
C492 C 0.96831 0.09626 0.49431 0.0
C493 C 0.98352 0.10257 0.4754 0.0
C494 C 0.97762 0.12043 0.45783 0.0
C495 C 0.95636 0.13208 0.45888 0.0
C496 C 0.94192 0.12651 0.47901 0.0
C497 C 0.94787 0.10877 0.49654 0.0
C498 C 0.98638 0.9975 0.49701 0.0
C499 C 0.03701 0.03828 0.46722 0.0
O500 O 0.04191 0.96429 0.51167 0.0
O501 O 0.0704 0.98616 0.51071 0.0
O502 O 0.04877 1.01495 0.55252 0.0
O503 O 0.03564 0.03778 0.52363 0.0
O504 O 1.01119 0.98876 0.54628 0.0
O505 O 0.99529 0.02376 0.554 0.0
O506 O 0.98852 0.07233 0.52536 0.0
O507 O 0.96894 0.05696 0.49606 0.0
O508 O 0.97408 1.00999 0.51142 0.0
O509 O 1.00443 1.0066 0.49133 0.0
O510 O 1.01975 0.04931 0.4776 0.0
O511 O 0.04531 0.01871 0.47729 0.0
H512 H 0.09244 0.92925 0.50506 0.0
H513 H 0.11374 0.90577 0.53784 0.0
H514 H 0.08299 0.9453 0.59599 0.0
H515 H 0.06195 0.96864 0.56321 0.0
H516 H 0.99938 0.09299 0.47345 0.0
H517 H 0.98928 0.12447 0.44282 0.0
H518 H 0.92527 0.13475 0.48029 0.0
H519 H 0.93586 0.10394 0.51089 0.0
Nd520 Nd 0.52604 1.00231 0.04071 0.0
Nd521 Nd 0.51961 0.03298 0.99798 0.0
C522 C 0.53208 0.96593 0.07151 0.0
C523 C 0.52269 0.94348 0.07173 0.0
C524 C 0.52417 0.9303 0.05034 0.0
C525 C 0.51316 0.91015 0.04988 0.0
C526 C 0.50031 0.90292 0.07067 0.0
C527 C 0.49928 0.91583 0.09226 0.0
C528 C 0.51044 0.93589 0.0928 0.0
C529 C 0.48937 0.03241 0.04684 0.0
C530 C 0.49665 0.98722 0.99187 0.0
C531 C 0.51292 0.06939 0.96737 0.0
C532 C 0.52566 0.08974 0.9641 0.0
C533 C 0.51512 0.10976 0.95366 0.0
C534 C 0.52688 0.12952 0.95221 0.0
C535 C 0.54935 0.12952 0.96127 0.0
C536 C 0.55986 0.10928 0.97154 0.0
C537 C 0.5481 0.08959 0.97299 0.0
C538 C 0.55646 1.00321 0.99161 0.0
C539 C 0.54982 0.04784 0.04683 0.0
O540 O 0.54588 0.97099 0.05319 0.0
O541 O 0.51768 0.98257 0.07589 0.0
O542 O 0.50488 0.02704 0.064 0.0
O543 O 0.49364 0.0223 0.02667 0.0
O544 O 0.51034 0.9805 1.01094 0.0
O545 O 0.4941 1.00868 0.98477 0.0
O546 O 0.50307 0.06682 0.98926 0.0
O547 O 0.52313 0.0508 0.96037 0.0
O548 O 0.54127 1.00908 0.97428 0.0
O549 O 0.55203 1.01304 1.01194 0.0
O550 O 0.53734 0.0545 0.02668 0.0
O551 O 0.55084 0.02665 0.05521 0.0
H552 H 0.53329 0.93582 0.03367 0.0
H553 H 0.51407 0.90061 0.03293 0.0
H554 H 0.48972 0.91048 0.10867 0.0
H555 H 0.50904 0.94578 0.10946 0.0
H556 H 0.49772 0.11018 0.94701 0.0
H557 H 0.51822 0.1449 0.9445 0.0
H558 H 0.57721 0.10863 0.97838 0.0
H559 H 0.55645 0.07427 0.98132 0.0
Nd560 Nd 0.50332 0.50743 0.51253 0.0
Nd561 Nd 0.54671 0.53396 0.51636 0.0
C562 C 0.46225 0.49461 0.5029 0.0
C563 C 0.44074 0.4913 0.51556 0.0
C564 C 0.4209 0.49127 0.50085 0.0
C565 C 0.4007 0.48536 0.51208 0.0
C566 C 0.40009 0.47926 0.53821 0.0
C567 C 0.41983 0.48051 0.55311 0.0
C568 C 0.44 0.48654 0.54187 0.0
C569 C 0.53144 0.4942 0.55287 0.0
C570 C 0.50304 0.5533 0.5455 0.0
C571 C 0.58805 0.54643 0.52493 0.0
C572 C 0.60927 0.54693 0.5111 0.0
C573 C 0.62932 0.55079 0.52412 0.0
C574 C 0.64937 0.553 0.51082 0.0
C575 C 0.64955 0.55149 0.48428 0.0
C576 C 0.62955 0.54671 0.47145 0.0
C577 C 0.60955 0.54436 0.4848 0.0
C578 C 0.51823 0.54697 0.47618 0.0
C579 C 0.54723 0.48824 0.48333 0.0
O580 O 0.46804 0.5154 0.49893 0.0
O581 O 0.47917 0.48067 0.51031 0.0
O582 O 0.51909 0.48028 0.54148 0.0
O583 O 0.52693 0.51405 0.54452 0.0
O584 O 0.49096 0.53968 0.53234 0.0
O585 O 0.52534 0.55186 0.54553 0.0
O586 O 0.58139 0.52642 0.53177 0.0
O587 O 0.57162 0.56026 0.51587 0.0
O588 O 0.53015 0.56113 0.48778 0.0
O589 O 0.52316 0.52719 0.48448 0.0
O590 O 0.55926 0.50218 0.49603 0.0
O591 O 0.52494 0.48928 0.48364 0.0
H592 H 0.4212 0.49508 0.48052 0.0
H593 H 0.3857 0.48492 0.50017 0.0
H594 H 0.42002 0.47571 0.57323 0.0
H595 H 0.4552 0.48659 0.55352 0.0
H596 H 0.62933 0.55271 0.54447 0.0
H597 H 0.66449 0.5569 0.52113 0.0
H598 H 0.6293 0.54527 0.45103 0.0
H599 H 0.59418 0.54112 0.47454 0.0
Nd600 Nd 1.0053 0.51542 0.03376 0.0
Nd601 Nd 0.04206 0.52229 0.99476 0.0
C602 C 0.96555 0.51453 0.05552 0.0
C603 C 0.94806 0.53266 0.05862 0.0
C604 C 0.94135 0.54758 0.03799 0.0
C605 C 0.92868 0.56747 0.04201 0.0
C606 C 0.9225 0.57279 0.0667 0.0
C607 C 0.92772 0.55703 0.08703 0.0
C608 C 0.94043 0.53714 0.083 0.0
C609 C 0.04286 0.53439 0.05186 0.0
C610 C 1.00442 0.56311 0.99632 0.0
C611 C 0.08109 0.52114 0.97138 0.0
C612 C 0.09547 0.50102 0.96667 0.0
C613 C 0.1181 0.50249 0.95966 0.0
C614 C 0.13157 0.48279 0.9564 0.0
C615 C 0.1226 0.46154 0.96073 0.0
C616 C 0.09996 0.46025 0.96779 0.0
C617 C 0.08649 0.47979 0.97047 0.0
C618 C 1.00461 0.50264 0.97713 0.0
C619 C 0.04385 0.47544 0.03343 0.0
O620 O 0.96899 0.50847 0.03229 0.0
O621 O 0.98438 0.51644 0.06832 0.0
O622 O 0.03156 0.52002 0.06527 0.0
O623 O 0.03353 0.53923 0.03049 0.0
O624 O 0.99332 0.5489 1.01117 0.0
O625 O 0.02535 0.55799 0.98928 0.0
O626 O 0.07918 0.52551 0.99536 0.0
O627 O 0.06163 0.52262 0.95922 0.0
O628 O 1.01552 0.51717 0.96359 0.0
O629 O 1.01422 0.49817 0.99835 0.0
O630 O 0.05481 0.49004 0.01902 0.0
O631 O 1.02261 0.47997 0.03971 0.0
H632 H 0.94692 0.54458 0.0189 0.0
H633 H 0.92463 0.5792 0.02598 0.0
H634 H 0.92333 0.56075 0.10632 0.0
H635 H 0.94546 0.52591 0.09917 0.0
H636 H 0.1253 0.51876 0.95674 0.0
H637 H 0.14898 0.48412 0.95073 0.0
H638 H 0.09252 0.44409 0.9707 0.0
H639 H 0.06896 0.47829 0.97552 0.0
H640 H 0.12722 0.16296 0.29187 0.0
H641 H 0.10848 0.14365 0.327 0.0
H642 H 0.13275 0.07956 0.30087 0.0
H643 H 0.15102 0.09872 0.2649 0.0
H644 H 0.0743 0.10967 0.32266 0.0
H645 H 0.15053 0.07762 0.3787 0.0
H646 H 0.15122 0.10079 0.35523 0.0
H647 H 0.15015 0.07248 0.34533 0.0
C648 C 0.12849 0.14474 0.29325 0.0
C649 C 0.14058 0.13254 0.27505 0.0
C650 C 0.11782 0.1337 0.31361 0.0
C651 C 0.11917 0.11011 0.31677 0.0
C652 C 0.1316 0.09779 0.29908 0.0
H653 H 0.06824 0.01826 0.43615 0.0
H654 H 0.0871 0.0351 0.39935 0.0
C655 C 0.14216 0.10884 0.27849 0.0
C656 C 0.10699 0.0986 0.33816 0.0
H657 H 0.11521 0.06749 0.39435 0.0
C658 C 0.08325 0.10043 0.33834 0.0
C659 C 0.11857 0.08639 0.35859 0.0
C660 C 0.14403 0.08422 0.35974 0.0
C661 C 0.07081 0.09027 0.3581 0.0
C662 C 0.08237 0.07847 0.37895 0.0
C663 C 0.10617 0.07651 0.3786 0.0
C664 C 0.07021 0.06809 0.40123 0.0
C665 C 0.04535 0.09182 0.35597 0.0
C666 C 0.05435 0.08085 0.415 0.0
C667 C 0.04325 0.07112 0.43596 0.0
C668 C 0.04798 0.04842 0.44412 0.0
C669 C 0.06403 0.03575 0.4305 0.0
C670 C 0.07494 0.04542 0.40939 0.0
H671 H 0.03953 0.09453 0.33585 0.0
H672 H 0.03798 0.07633 0.36414 0.0
H673 H 0.03869 0.10639 0.36642 0.0
H674 H 0.05077 0.09852 0.40984 0.0
H675 H 0.0313 0.08158 0.44608 0.0
H676 H 0.44713 0.84494 0.82904 0.0
H677 H 0.46216 0.87117 0.85845 0.0
H678 H 0.40622 0.86032 0.90843 0.0
H679 H 0.39094 0.8344 0.87888 0.0
H680 H 0.41206 0.9043 0.89948 0.0
H681 H 0.49443 0.86063 0.92624 0.0
H682 H 0.49063 0.86513 0.89249 0.0
H683 H 0.47238 0.84694 0.91001 0.0
C684 C 0.4383 0.84783 0.84655 0.0
C685 C 0.41788 0.83764 0.8517 0.0
C686 C 0.44692 0.86278 0.86337 0.0
C687 C 0.43546 0.86751 0.88581 0.0
C688 C 0.41535 0.85692 0.89124 0.0
H689 H 0.49191 0.94308 1.00626 0.0
H690 H 0.47566 0.91419 0.98149 0.0
C691 C 0.40663 0.84214 0.87435 0.0
C692 C 0.4436 0.88457 0.90282 0.0
H693 H 0.48947 0.89905 0.93697 0.0
C694 C 0.42893 0.90306 0.90784 0.0
C695 C 0.46551 0.88281 0.91398 0.0
C696 C 0.48157 0.86269 0.91064 0.0
C697 C 0.4357 0.92006 0.9233 0.0
C698 C 0.45796 0.91883 0.9335 0.0
C699 C 0.47248 0.90011 0.92892 0.0
C700 C 0.4666 0.93675 0.94898 0.0
C701 C 0.4188 0.93897 0.92885 0.0
C702 C 0.46683 0.95909 0.93901 0.0
C703 C 0.47591 0.97571 0.95326 0.0
C704 C 0.48529 0.9702 0.97757 0.0
C705 C 0.48489 0.94786 0.98757 0.0
C706 C 0.47563 0.93131 0.97342 0.0
H707 H 0.40115 0.93393 0.92634 0.0
H708 H 0.42099 0.94444 0.94852 0.0
H709 H 0.42128 0.95358 0.91542 0.0
H710 H 0.46046 0.96358 0.91996 0.0
H711 H 0.47619 0.99271 0.94492 0.0
H712 H 0.65836 0.41117 0.73719 0.0
H713 H 0.63645 0.42069 0.69816 0.0
H714 H 0.64506 0.49129 0.70752 0.0
H715 H 0.66701 0.48186 0.74682 0.0
H716 H 0.59587 0.44779 0.69707 0.0
H717 H 0.65963 0.48302 0.63183 0.0
H718 H 0.66739 0.46571 0.6601 0.0
H719 H 0.65823 0.49474 0.66258 0.0
C720 C 0.65574 0.42873 0.73084 0.0
C721 C 0.66422 0.44581 0.74514 0.0
C722 C 0.64331 0.43411 0.70851 0.0
C723 C 0.63924 0.45665 0.69993 0.0
C724 C 0.64833 0.47375 0.71364 0.0
H725 H 0.55524 0.5227 0.58004 0.0
H726 H 0.58156 0.51307 0.61552 0.0
C727 C 0.66084 0.46836 0.73605 0.0
C728 C 0.62397 0.46216 0.67781 0.0
H729 H 0.62143 0.48613 0.61752 0.0
C730 C 0.60146 0.45608 0.67961 0.0
C731 C 0.63134 0.47307 0.65519 0.0
C732 C 0.6555 0.47939 0.6521 0.0
C733 C 0.58598 0.46088 0.65947 0.0
C734 C 0.59337 0.47163 0.63674 0.0
C735 C 0.61588 0.47778 0.63495 0.0
C736 C 0.57781 0.47715 0.61485 0.0
C737 C 0.56173 0.45491 0.66296 0.0
C738 C 0.5672 0.46009 0.60252 0.0
C739 C 0.55204 0.46556 0.5823 0.0
C740 C 0.54745 0.48815 0.57403 0.0
C741 C 0.55841 0.50514 0.58611 0.0
C742 C 0.57349 0.49968 0.60631 0.0
H743 H 0.55762 0.45208 0.68336 0.0
H744 H 0.5499 0.46841 0.65444 0.0
H745 H 0.55885 0.43915 0.65333 0.0
H746 H 0.57066 0.44256 0.60853 0.0
H747 H 0.54396 0.45215 0.57314 0.0
H748 H 0.84596 0.74129 0.17563 0.0
H749 H 0.85412 0.71867 0.13914 0.0
H750 H 0.92547 0.72576 0.15088 0.0
H751 H 0.91746 0.74791 0.18784 0.0
H752 H 0.88248 0.7162 0.0928 0.0
H753 H 0.91118 0.65995 0.17615 0.0
H754 H 0.89535 0.68627 0.17965 0.0
H755 H 0.92485 0.68611 0.17217 0.0
C756 C 0.86334 0.73881 0.16976 0.0
C757 C 0.88112 0.74581 0.18489 0.0
C758 C 0.86796 0.72599 0.14884 0.0
C759 C 0.89039 0.72017 0.14277 0.0
C760 C 0.90804 0.72997 0.1555 0.0
H761 H 0.93735 0.61271 0.04785 0.0
H762 H 0.9274 0.65024 0.06226 0.0
C763 C 0.90344 0.74271 0.17655 0.0
C764 C 0.89509 0.70005 0.12805 0.0
H765 H 0.91187 0.64446 0.13633 0.0
C766 C 0.88911 0.70053 0.10214 0.0
C767 C 0.90324 0.67955 0.14057 0.0
C768 C 0.90889 0.67774 0.1687 0.0
C769 C 0.89116 0.6809 0.08839 0.0
C770 C 0.89934 0.66049 0.10101 0.0
C771 C 0.90548 0.66015 0.1268 0.0
C772 C 0.90184 0.639 0.08823 0.0
C773 C 0.88403 0.68194 0.06076 0.0
C774 C 0.89047 0.62031 0.09773 0.0
C775 C 0.89617 0.59883 0.08959 0.0
C776 C 0.91335 0.59572 0.07182 0.0
C777 C 0.92374 0.61466 0.0612 0.0
C778 C 0.91808 0.63614 0.06941 0.0
H779 H 0.87365 0.69758 0.05536 0.0
H780 H 0.89931 0.68156 0.0488 0.0
H781 H 0.87423 0.66715 0.05647 0.0
H782 H 0.87795 0.6222 0.11238 0.0
H783 H 0.8878 0.58455 0.09795 0.0
H784 H 0.28975 0.13406 0.08465 0.0
H785 H 0.32431 0.11673 0.06702 0.0
H786 H 0.35191 0.10397 0.14279 0.0
H787 H 0.31746 0.12074 0.1604 0.0
H788 H 0.36832 0.12485 0.06729 0.0
H789 H 0.36018 0.04214 0.11784 0.0
H790 H 0.33778 0.06387 0.11711 0.0
H791 H 0.36091 0.06422 0.13963 0.0
C792 C 0.30322 0.12764 0.09757 0.0
C793 C 0.30048 0.12856 0.12406 0.0
C794 C 0.32304 0.11763 0.08744 0.0
C795 C 0.34074 0.10828 0.10347 0.0
C796 C 0.33838 0.11015 0.12985 0.0
H797 H 0.47626 0.04773 0.09255 0.0
H798 H 0.4402 0.06604 0.10394 0.0
C799 C 0.31857 0.11991 0.13996 0.0
C800 C 0.36163 0.09668 0.09287 0.0
H801 H 0.39616 0.04853 0.09954 0.0
C802 C 0.37421 0.10806 0.07418 0.0
C803 C 0.36953 0.0746 0.10149 0.0
C804 C 0.35626 0.06041 0.1199 0.0
C805 C 0.39465 0.09845 0.06481 0.0
C806 C 0.40289 0.07675 0.07417 0.0
C807 C 0.39009 0.06521 0.0924 0.0
C808 C 0.4252 0.0661 0.06632 0.0
C809 C 0.40773 0.11191 0.04556 0.0
C810 C 0.42911 0.05979 0.04124 0.0
C811 C 0.44989 0.04902 0.03463 0.0
C812 C 0.4673 0.04439 0.05293 0.0
C813 C 0.46335 0.05096 0.07788 0.0
C814 C 0.44263 0.06148 0.08448 0.0
H815 H 0.40131 0.1298 0.04355 0.0
H816 H 0.42594 0.11131 0.05099 0.0
H817 H 0.40626 0.10447 0.02677 0.0
H818 H 0.41595 0.06283 0.02684 0.0
H819 H 0.45226 0.0442 1.01527 0.0
H820 H 0.23256 0.7939 0.71926 0.0
H821 H 0.19985 0.80866 0.69349 0.0
H822 H 0.21848 0.8765 0.70471 0.0
H823 H 0.25148 0.86199 0.72996 0.0
H824 H 0.16887 0.86645 0.70869 0.0
H825 H 0.21173 0.83978 0.62075 0.0
H826 H 0.21018 0.81918 0.64683 0.0
H827 H 0.22713 0.84299 0.65003 0.0
C828 C 0.22961 0.81197 0.71639 0.0
C829 C 0.24475 0.82678 0.72646 0.0
C830 C 0.21091 0.82034 0.70176 0.0
C831 C 0.207 0.84361 0.69707 0.0
C832 C 0.22129 0.85846 0.70821 0.0
H833 H 0.12354 0.93996 0.60871 0.0
H834 H 0.14722 0.91864 0.64072 0.0
C835 C 0.24005 0.85013 0.72275 0.0
C836 C 0.18904 0.85254 0.67907 0.0
H837 H 0.17641 0.85931 0.61571 0.0
C838 C 0.17035 0.86477 0.68837 0.0
C839 C 0.19108 0.85014 0.65264 0.0
C840 C 0.21113 0.83743 0.64178 0.0
C841 C 0.15367 0.87498 0.67179 0.0
C842 C 0.15617 0.87337 0.64524 0.0
C843 C 0.17455 0.86053 0.63605 0.0
C844 C 0.1408 0.88604 0.62658 0.0
C845 C 0.13355 0.88736 0.68288 0.0
C846 C 0.12984 0.87485 0.60752 0.0
C847 C 0.11647 0.88705 0.58898 0.0
C848 C 0.11386 0.91064 0.58924 0.0
C849 C 0.12487 0.92177 0.60834 0.0
C850 C 0.13833 0.90959 0.62672 0.0
H851 H 0.13027 0.88077 0.70253 0.0
H852 H 0.13702 0.90544 0.68378 0.0
H853 H 0.11807 0.88602 0.67107 0.0
H854 H 0.13171 0.85668 0.60694 0.0
H855 H 0.10809 0.87805 0.57454 0.0
H856 H 0.82541 0.3996 0.92429 0.0
H857 H 0.86249 0.41238 0.93628 0.0
H858 H 0.83957 0.48108 0.91656 0.0
H859 H 0.80229 0.46848 0.90482 0.0
H860 H 0.89246 0.43863 0.90426 0.0
H861 H 0.86512 0.48102 0.99124 0.0
H862 H 0.84862 0.46036 0.97668 0.0
H863 H 0.84872 0.48853 0.9628 0.0
C864 C 0.82821 0.41745 0.92271 0.0
C865 C 0.81092 0.43307 0.91377 0.0
C866 C 0.84941 0.42468 0.92942 0.0
C867 C 0.85361 0.44765 0.92752 0.0
C868 C 0.83651 0.46329 0.9184 0.0
H869 H 0.98054 0.51309 0.93338 0.0
H870 H 0.94418 0.49885 0.92094 0.0
C871 C 0.81532 0.45606 0.91153 0.0
C872 C 0.87601 0.45519 0.93491 0.0
H873 H 0.90289 0.48527 0.97849 0.0
C874 C 0.8948 0.44881 0.92048 0.0
C875 C 0.87892 0.46825 0.95624 0.0
C876 C 0.85935 0.47485 0.97283 0.0
C877 C 0.91647 0.45549 0.92664 0.0
C878 C 0.91929 0.46895 0.94765 0.0
C879 C 0.90057 0.47504 0.96231 0.0
C880 C 0.94158 0.47694 0.95474 0.0
C881 C 0.93623 0.44794 0.91084 0.0
C882 C 0.952 0.4694 0.97791 0.0
C883 C 0.97277 0.47743 0.98499 0.0
C884 C 0.98325 0.49334 0.96915 0.0
C885 C 0.97284 0.50077 0.9459 0.0
C886 C 0.95214 0.49264 0.93875 0.0
H887 H 0.93204 0.43393 0.89876 0.0
H888 H 0.94118 0.46229 0.8982 0.0
H889 H 0.95103 0.44238 0.92319 0.0
H890 H 0.94403 0.45732 0.99049 0.0
H891 H 0.98051 0.47135 1.00297 0.0
H892 H 0.82148 0.62597 0.35755 0.0
H893 H 0.79814 0.59868 0.37987 0.0
H894 H 0.76195 0.65298 0.41572 0.0
H895 H 0.78557 0.68015 0.39404 0.0
H896 H 0.77113 0.61733 0.44861 0.0
H897 H 0.73371 0.58913 0.35904 0.0
H898 H 0.76391 0.58529 0.3618 0.0
H899 H 0.75081 0.61327 0.35967 0.0
C900 C 0.80859 0.63199 0.37031 0.0
C901 C 0.8052 0.65513 0.37402 0.0
C902 C 0.79524 0.61643 0.38294 0.0
C903 C 0.77803 0.62385 0.39905 0.0
C904 C 0.77513 0.6469 0.40334 0.0
H905 H 0.65155 0.57945 0.44211 0.0
H906 H 0.68524 0.59279 0.42139 0.0
C907 C 0.78863 0.66239 0.391 0.0
C908 C 0.76242 0.60796 0.41096 0.0
H909 H 0.72049 0.5731 0.39731 0.0
C910 C 0.7602 0.60744 0.43747 0.0
C911 C 0.74814 0.5952 0.39627 0.0
C912 C 0.74905 0.59581 0.36761 0.0
C913 C 0.74338 0.59536 0.44963 0.0
C914 C 0.72886 0.58289 0.43489 0.0
C915 C 0.73178 0.58256 0.40852 0.0
C916 C 0.7088 0.57254 0.44595 0.0
C917 C 0.74047 0.5972 0.47789 0.0
C918 C 0.71085 0.55619 0.46614 0.0
C919 C 0.69154 0.54868 0.4782 0.0
C920 C 0.66995 0.5571 0.46988 0.0
C921 C 0.66796 0.5725 0.44876 0.0
C922 C 0.68721 0.58018 0.43695 0.0
H923 H 0.74995 0.61113 0.48534 0.0
H924 H 0.72236 0.60005 0.48254 0.0
H925 H 0.7469 0.58126 0.48795 0.0
H926 H 0.72735 0.54968 0.47297 0.0
H927 H 0.69349 0.53658 0.49426 0.0
H928 H 0.14259 0.29647 0.14805 0.0
H929 H 0.12216 0.33158 0.13313 0.0
H930 H 0.13574 0.31632 0.05559 0.0
H931 H 0.15576 0.28089 0.0703 0.0
H932 H 0.13663 0.36857 0.10485 0.0
H933 H 0.06746 0.33036 0.05307 0.0
H934 H 0.08623 0.31419 0.07518 0.0
H935 H 0.09533 0.32135 0.0435 0.0
C936 C 0.14105 0.30037 0.12778 0.0
C937 C 0.15082 0.28553 0.11046 0.0
C938 C 0.12944 0.32064 0.11926 0.0
C939 C 0.127 0.32665 0.09315 0.0
C940 C 0.13693 0.31203 0.0758 0.0
H941 H 0.08811 0.46143 0.02586 0.0
H942 H 0.10787 0.42582 0.03998 0.0
C943 C 0.14866 0.29179 0.08431 0.0
C944 C 0.11442 0.34832 0.08424 0.0
H945 H 0.06914 0.37009 0.04798 0.0
C946 C 0.12187 0.36885 0.09242 0.0
C947 C 0.09493 0.3489 0.06823 0.0
C948 C 0.08533 0.32754 0.05963 0.0
C949 C 0.11071 0.38972 0.08481 0.0
C950 C 0.09155 0.39033 0.0683 0.0
C951 C 0.08388 0.36979 0.06044 0.0
C952 C 0.07922 0.41207 0.05918 0.0
C953 C 0.11933 0.41096 0.09495 0.0
C954 C 0.05621 0.41628 0.06455 0.0
C955 C 0.04472 0.43675 0.05634 0.0
C956 C 0.05588 0.45352 0.04231 0.0
C957 C 0.07885 0.44908 0.03666 0.0
C958 C 0.0903 0.42867 0.0449 0.0
H959 H 0.13013 0.40734 0.11223 0.0
H960 H 0.12967 0.41936 0.08024 0.0
H961 H 0.10511 0.42287 0.09961 0.0
H962 H 0.04715 0.40379 0.07539 0.0
H963 H 0.02707 0.43939 0.061 0.0
H964 H 0.68041 0.29699 0.93151 0.0
H965 H 0.66529 0.26142 0.94693 0.0
H966 H 0.59752 0.29139 0.93934 0.0
H967 H 0.6125 0.32724 0.92501 0.0
H968 H 0.60335 0.26197 0.98181 0.0
H969 H 0.6359 0.22356 0.89451 0.0
H970 H 0.65691 0.23491 0.91434 0.0
H971 H 0.6356 0.25345 0.89862 0.0
C972 C 0.66233 0.29619 0.93381 0.0
C973 C 0.64761 0.31482 0.92664 0.0
C974 C 0.65372 0.27579 0.94235 0.0
C975 C 0.63029 0.27366 0.94364 0.0
C976 C 0.61566 0.29264 0.93824 0.0
H977 H 0.54921 0.16183 0.92246 0.0
H978 H 0.56964 0.19644 0.92055 0.0
C979 C 0.62424 0.31305 0.92986 0.0
C980 C 0.62075 0.25141 0.9485 0.0
H981 H 0.61568 0.20052 0.92259 0.0
C982 C 0.60618 0.24842 0.96904 0.0
C983 C 0.62426 0.23394 0.93152 0.0
C984 C 0.63885 0.23658 0.90837 0.0
C985 C 0.59468 0.22852 0.97284 0.0
C986 C 0.5982 0.21109 0.95584 0.0
C987 C 0.61313 0.21391 0.93562 0.0
C988 C 0.58556 0.19032 0.95765 0.0
C989 C 0.57819 0.2267 0.99434 0.0
C990 C 0.58783 0.17539 0.97911 0.0
C991 C 0.57597 0.15571 0.98039 0.0
C992 C 0.56178 0.15053 0.9601 0.0
C993 C 0.55971 0.16548 0.93856 0.0
C994 C 0.5715 0.18517 0.93736 0.0
H995 H 0.57366 0.24337 1.00198 0.0
H996 H 0.56246 0.21915 0.98804 0.0
H997 H 0.58595 0.21564 1.01004 0.0
H998 H 0.5989 0.17887 0.99479 0.0
H999 H 0.57777 0.14463 0.99735 0.0
H1000 H 0.92192 0.80486 0.4268 0.0
H1001 H 0.93713 0.83595 0.44892 0.0
H1002 H 0.91904 0.8814 0.38459 0.0
H1003 H 0.90257 0.8508 0.36298 0.0
H1004 H 0.97064 0.86338 0.43754 0.0
H1005 H 0.88958 0.91363 0.44181 0.0
H1006 H 0.89111 0.88483 0.43264 0.0
H1007 H 0.89679 0.90738 0.40989 0.0
C1008 C 0.92086 0.82153 0.41749 0.0
C1009 C 0.91077 0.82535 0.3932 0.0
C1010 C 0.92976 0.83924 0.43007 0.0
C1011 C 0.92881 0.86106 0.4186 0.0
C1012 C 0.91946 0.86479 0.39404 0.0
H1013 H 1.00547 0.97401 0.45903 0.0
H1014 H 0.99229 0.93961 0.4416 0.0
C1015 C 0.91034 0.84717 0.38156 0.0
C1016 C 0.93758 0.87996 0.43229 0.0
H1017 H 0.9229 0.93242 0.45165 0.0
C1018 C 0.96018 0.87843 0.44081 0.0
C1019 C 0.92377 0.89936 0.43701 0.0
C1020 C 0.89891 0.90133 0.43011 0.0
C1021 C 0.96953 0.89608 0.45334 0.0
C1022 C 0.95605 0.91599 0.45676 0.0
C1023 C 0.9333 0.91725 0.44879 0.0
C1024 C 0.96508 0.93591 0.46832 0.0
C1025 C 0.99362 0.89302 0.46308 0.0
C1026 C 0.95391 0.94552 0.48879 0.0
C1027 C 0.96107 0.96543 0.49835 0.0
C1028 C 0.97962 0.97597 0.48768 0.0
C1029 C 0.99115 0.9661 0.46763 0.0
C1030 C 0.98378 0.94636 0.45782 0.0
H1031 H 0.99887 0.87491 0.46646 0.0
H1032 H 1.00502 0.90028 0.44866 0.0
H1033 H 0.99593 0.90165 0.48106 0.0
H1034 H 0.93942 0.93778 0.49715 0.0
H1035 H 0.95199 0.97266 0.51392 0.0
H1036 H 0.39059 0.71339 0.6482 0.0
H1037 H 0.40984 0.68511 0.62308 0.0
H1038 H 0.44377 0.65575 0.69075 0.0
H1039 H 0.42396 0.68373 0.71627 0.0
H1040 H 0.45556 0.67568 0.61658 0.0
H1041 H 0.41401 0.602 0.66051 0.0
H1042 H 0.40387 0.63068 0.66469 0.0
H1043 H 0.4281 0.61885 0.68251 0.0
C1044 C 0.40202 0.70082 0.6578 0.0
C1045 C 0.40554 0.70058 0.68426 0.0
C1046 C 0.4131 0.68476 0.64339 0.0
C1047 C 0.4279 0.66812 0.65513 0.0
C1048 C 0.43205 0.66821 0.68143 0.0
H1049 H 0.52278 0.58168 0.57706 0.0
H1050 H 0.50429 0.60923 0.60357 0.0
C1051 C 0.42094 0.68433 0.69592 0.0
C1052 C 0.43891 0.65081 0.63959 0.0
H1053 H 0.44256 0.59434 0.63061 0.0
C1054 C 0.45276 0.65789 0.61965 0.0
C1055 C 0.43487 0.62768 0.64342 0.0
C1056 C 0.41925 0.61928 0.66378 0.0
C1057 C 0.4629 0.64242 0.60354 0.0
C1058 C 0.45936 0.61923 0.60779 0.0
C1059 C 0.44531 0.61214 0.62754 0.0
C1060 C 0.47036 0.60207 0.59206 0.0
C1061 C 0.47698 0.65108 0.58184 0.0
C1062 C 0.45735 0.58846 0.5773 0.0
C1063 C 0.46788 0.57252 0.56213 0.0
C1064 C 0.49159 0.56989 0.56162 0.0
C1065 C 0.50449 0.58335 0.57679 0.0
C1066 C 0.49397 0.5992 0.59192 0.0
H1067 H 0.47316 0.66931 0.57718 0.0
H1068 H 0.49514 0.64875 0.58728 0.0
H1069 H 0.47415 0.64168 0.56452 0.0
H1070 H 0.43906 0.59038 0.5773 0.0
H1071 H 0.45745 0.56237 0.55074 0.0
H1072 H 0.90729 0.88366 0.74343 0.0
H1073 H 0.92792 0.9 0.70771 0.0
H1074 H 0.90627 0.96663 0.7287 0.0
H1075 H 0.88663 0.95056 0.76519 0.0
H1076 H 0.9141 0.92519 0.66647 0.0
H1077 H 0.97236 0.97494 0.7209 0.0
H1078 H 0.9552 0.95418 0.73607 0.0
H1079 H 0.94326 0.98198 0.72724 0.0
C1080 C 0.9072 0.90182 0.74084 0.0
C1081 C 0.89523 0.91565 0.75762 0.0
C1082 C 0.91892 0.91118 0.72013 0.0
C1083 C 0.91914 0.93466 0.71552 0.0
C1084 C 0.90697 0.94851 0.73199 0.0
H1085 H 0.97268 0.02392 0.5957 0.0
H1086 H 0.95368 1.00741 0.63272 0.0
C1087 C 0.89535 0.93919 0.75277 0.0
C1088 C 0.93152 0.94458 0.69317 0.0
H1089 H 0.97099 0.98248 0.67603 0.0
C1090 C 0.92664 0.9376 0.66867 0.0
C1091 C 0.94798 0.96085 0.69573 0.0
C1092 C 0.9552 0.96827 0.72142 0.0
C1093 C 0.93726 0.94665 0.64687 0.0
C1094 C 0.95356 0.96304 0.64944 0.0
C1095 C 0.95848 0.97002 0.6739 0.0
C1096 C 0.96563 0.97311 0.62701 0.0
C1097 C 0.9305 0.93896 0.62115 0.0
C1098 C 0.97916 0.95952 0.61153 0.0
C1099 C 0.99014 0.96894 0.59033 0.0
C1100 C 0.98797 0.99227 0.584 0.0
C1101 C 0.97476 1.0059 0.59982 0.0
C1102 C 0.96384 0.99647 0.62109 0.0
H1103 H 0.91393 0.93104 0.62166 0.0
H1104 H 0.92947 0.95327 0.60672 0.0
H1105 H 0.94338 0.92626 0.61499 0.0
H1106 H 0.9813 0.94155 0.61587 0.0
H1107 H 1.0002 0.95784 0.57878 0.0
H1108 H 0.66331 0.19659 0.15881 0.0
H1109 H 0.64775 0.17065 0.12942 0.0
H1110 H 0.58965 0.16377 0.17716 0.0
H1111 H 0.60496 0.18996 0.20638 0.0
H1112 H 0.63884 0.12734 0.138 0.0
H1113 H 0.55982 0.1759 0.10831 0.0
H1114 H 0.58235 0.18819 0.12528 0.0
H1115 H 0.56237 0.17149 0.14219 0.0
C1116 C 0.64715 0.18963 0.16294 0.0
C1117 C 0.63529 0.19537 0.18483 0.0
C1118 C 0.63826 0.17486 0.14612 0.0
C1119 C 0.61737 0.16552 0.15086 0.0
C1120 C 0.6055 0.17123 0.17272 0.0
H1121 H 0.56961 0.04265 0.0941 0.0
H1122 H 0.58707 0.07137 0.11809 0.0
C1123 C 0.61429 0.18615 0.18944 0.0
C1124 C 0.60856 0.14895 0.13364 0.0
H1125 H 0.56226 0.13706 0.09857 0.0
C1126 C 0.62216 0.12956 0.1292 0.0
C1127 C 0.58696 0.152 0.12183 0.0
C1128 C 0.57213 0.17313 0.12441 0.0
C1129 C 0.61453 0.11286 0.11383 0.0
C1130 C 0.59245 0.11534 0.10314 0.0
C1131 C 0.57909 0.13503 0.10701 0.0
C1132 C 0.58271 0.09764 0.08817 0.0
C1133 C 0.63032 0.09287 0.10898 0.0
C1134 C 0.574 0.10295 0.06355 0.0
C1135 C 0.56369 0.08665 0.04994 0.0
C1136 C 0.56193 0.06468 0.06066 0.0
C1137 C 0.57091 0.05933 0.08519 0.0
C1138 C 0.58102 0.07571 0.09888 0.0
H1139 H 0.64829 0.0969 0.11148 0.0
H1140 H 0.62694 0.0788 0.12282 0.0
H1141 H 0.62788 0.08706 0.0895 0.0
H1142 H 0.57504 0.11978 0.05492 0.0
H1143 H 0.55693 0.09134 0.03109 0.0
H1144 H 0.38169 0.55561 0.28307 0.0
H1145 H 0.40308 0.54698 0.32291 0.0
H1146 H 0.41483 0.61747 0.3283 0.0
H1147 H 0.39315 0.62624 0.28899 0.0
H1148 H 0.44866 0.55633 0.32958 0.0
H1149 H 0.39516 0.59892 0.40024 0.0
H1150 H 0.38457 0.59248 0.36929 0.0
H1151 H 0.40118 0.61659 0.37277 0.0
C1152 C 0.38842 0.56928 0.29308 0.0
C1153 C 0.38586 0.59157 0.28289 0.0
C1154 C 0.4007 0.56434 0.31573 0.0
C1155 C 0.41032 0.58162 0.32865 0.0
C1156 C 0.40722 0.60393 0.31888 0.0
H1157 H 0.50616 0.58857 0.45401 0.0
H1158 H 0.47959 0.59711 0.41812 0.0
C1159 C 0.39505 0.60887 0.29627 0.0
C1160 C 0.42522 0.57625 0.35115 0.0
H1161 H 0.43279 0.58726 0.41357 0.0
C1162 C 0.4451 0.56289 0.34802 0.0
C1163 C 0.4206 0.58507 0.37506 0.0
C1164 C 0.39912 0.5989 0.37968 0.0
C1165 C 0.46075 0.55845 0.36806 0.0
C1166 C 0.45617 0.56729 0.39197 0.0
C1167 C 0.43626 0.5806 0.39516 0.0
C1168 C 0.47166 0.56239 0.41402 0.0
C1169 C 0.48231 0.54476 0.36331 0.0
C1170 C 0.47561 0.54016 0.42376 0.0
C1171 C 0.49073 0.53529 0.44401 0.0
C1172 C 0.50205 0.5526 0.45506 0.0
C1173 C 0.49773 0.57494 0.44571 0.0
C1174 C 0.48257 0.57982 0.42532 0.0
H1175 H 0.48592 0.54426 0.3427 0.0
H1176 H 0.49693 0.55167 0.37308 0.0
H1177 H 0.48065 0.52719 0.37089 0.0
H1178 H 0.46702 0.52655 0.41561 0.0
H1179 H 0.4936 0.51791 0.45097 0.0
H1180 H 0.20294 0.28231 0.86249 0.0
H1181 H 0.19926 0.30401 0.90063 0.0
H1182 H 0.13086 0.32518 0.87766 0.0
H1183 H 0.1342 0.30259 0.84057 0.0
H1184 H 0.19614 0.34631 0.89799 0.0
H1185 H 0.12196 0.32129 0.95139 0.0
H1186 H 0.13451 0.30366 0.92792 0.0
H1187 H 0.11334 0.32566 0.91878 0.0
C1188 C 0.18682 0.29079 0.86637 0.0
C1189 C 0.16878 0.29074 0.84884 0.0
C1190 C 0.18474 0.30327 0.88804 0.0
C1191 C 0.16473 0.31619 0.89224 0.0
C1192 C 0.14624 0.31488 0.87547 0.0
H1193 H 0.14513 0.45115 0.91807 0.0
H1194 H 0.16022 0.41402 0.90724 0.0
C1195 C 0.14816 0.30202 0.85413 0.0
C1196 C 0.16438 0.33403 0.91095 0.0
H1197 H 0.12856 0.36212 0.94988 0.0
C1198 C 0.18165 0.34937 0.90994 0.0
C1199 C 0.1459 0.33793 0.92717 0.0
C1200 C 0.12808 0.32104 0.93155 0.0
C1201 C 0.17984 0.36944 0.92271 0.0
C1202 C 0.15987 0.37474 0.93603 0.0
C1203 C 0.14367 0.35843 0.93912 0.0
C1204 C 0.15412 0.39781 0.94417 0.0
C1205 C 0.19913 0.38499 0.92111 0.0
C1206 C 0.14552 0.40118 0.96847 0.0
C1207 C 0.13642 0.42235 0.97444 0.0
C1208 C 0.13596 0.44052 0.95628 0.0
C1209 C 0.14568 0.43749 0.93251 0.0
C1210 C 0.15443 0.41626 0.9264 0.0
H1211 H 0.21558 0.3752 0.92045 0.0
H1212 H 0.19738 0.39575 0.90328 0.0
H1213 H 0.19949 0.39596 0.9375 0.0
H1214 H 0.145 0.38723 0.98246 0.0
H1215 H 0.12895 0.42434 0.99291 0.0
H1216 H 0.75326 0.89609 0.95994 0.0
H1217 H 0.71839 0.91462 0.975 0.0
H1218 H 0.69667 0.93081 0.89757 0.0
H1219 H 0.73136 0.91207 0.88232 0.0
H1220 H 0.70029 0.96014 0.9662 0.0
H1221 H 0.64231 0.89917 0.92873 0.0
H1222 H 0.67241 0.89308 0.93202 0.0
H1223 H 0.66117 0.91085 0.90575 0.0
C1224 C 0.74103 0.90341 0.94602 0.0
C1225 C 0.74529 0.90232 0.91979 0.0
C1226 C 0.72107 0.91418 0.95473 0.0
C1227 C 0.70456 0.92396 0.93753 0.0
C1228 C 0.70886 0.92317 0.91135 0.0
H1229 H 0.57043 0.98998 0.94536 0.0
H1230 H 0.60625 0.97138 0.93403 0.0
C1231 C 0.72891 0.91257 0.90262 0.0
C1232 C 0.68296 0.93498 0.94692 0.0
H1233 H 0.62536 0.932 0.94538 0.0
C1234 C 0.6839 0.95392 0.96175 0.0
C1235 C 0.66145 0.92699 0.94123 0.0
C1236 C 0.65914 0.9063 0.92625 0.0
C1237 C 0.6641 0.96543 0.97023 0.0
C1238 C 0.64251 0.95749 0.96446 0.0
C1239 C 0.64168 0.93831 0.94993 0.0
C1240 C 0.62056 0.96924 0.97213 0.0
C1241 C 0.6666 0.98654 0.98443 0.0
C1242 C 0.61605 0.97432 0.99754 0.0
C1243 C 0.59539 0.98536 1.00411 0.0
C1244 C 0.57855 0.99129 0.9855 0.0
C1245 C 0.58293 0.98579 0.96028 0.0
C1246 C 0.60354 0.97503 0.95372 0.0
H1247 H 0.68318 0.99389 0.98085 0.0
H1248 H 0.65299 0.99948 0.97898 0.0
H1249 H 0.66558 0.98236 1.00514 0.0
H1250 H 0.62839 0.96955 1.01243 0.0
H1251 H 0.59257 0.9891 0.02374 0.0
H1252 H 0.79841 0.2286 0.34692 0.0
H1253 H 0.83492 0.21762 0.36666 0.0
H1254 H 0.86046 0.1977 0.29452 0.0
H1255 H 0.82404 0.20967 0.27407 0.0
H1256 H 0.86346 0.16416 0.33966 0.0
H1257 H 0.89884 0.24638 0.35805 0.0
H1258 H 0.86942 0.24411 0.36525 0.0
H1259 H 0.87842 0.24298 0.3329 0.0
C1260 C 0.81189 0.22253 0.33496 0.0
C1261 C 0.80825 0.22024 0.30877 0.0
C1262 C 0.83276 0.21619 0.34636 0.0
C1263 C 0.85041 0.20723 0.33194 0.0
C1264 C 0.84703 0.20485 0.30585 0.0
H1265 H 0.96328 0.12848 0.40782 0.0
H1266 H 0.94258 0.14921 0.37296 0.0
C1267 C 0.82615 0.21148 0.29429 0.0
C1268 C 0.87148 0.19839 0.34499 0.0
H1269 H 0.9148 0.21419 0.38223 0.0
C1270 C 0.87507 0.175 0.34852 0.0
C1271 C 0.88629 0.21271 0.35664 0.0
C1272 C 0.88324 0.23797 0.35293 0.0
C1273 C 0.89226 0.16546 0.36485 0.0
C1274 C 0.90674 0.1798 0.37725 0.0
C1275 C 0.9038 0.20323 0.37263 0.0
C1276 C 0.92313 0.17086 0.39726 0.0
C1277 C 0.89364 0.14023 0.37004 0.0
C1278 C 0.92049 0.17749 0.42226 0.0
C1279 C 0.9328 0.16614 0.44222 0.0
C1280 C 0.94778 0.14773 0.43757 0.0
C1281 C 0.95189 0.14252 0.41221 0.0
C1282 C 0.93981 0.15415 0.39222 0.0
H1283 H 0.87821 0.13232 0.36337 0.0
H1284 H 0.90827 0.13276 0.35988 0.0
H1285 H 0.89605 0.13583 0.39067 0.0
H1286 H 0.90793 0.19058 0.42657 0.0
H1287 H 0.92967 0.17101 0.46143 0.0
H1288 H 0.24549 0.56692 0.12679 0.0
H1289 H 0.20815 0.55424 0.11541 0.0
H1290 H 0.18567 0.62263 0.09343 0.0
H1291 H 0.2228 0.63549 0.10508 0.0
H1292 H 0.15517 0.59742 0.12561 0.0
H1293 H 0.18345 0.55246 0.04069 0.0
H1294 H 0.19935 0.54551 0.0696 0.0
H1295 H 0.19995 0.57333 0.05487 0.0
C1296 C 0.23253 0.57926 0.1197 0.0
C1297 C 0.23709 0.60218 0.11669 0.0
C1298 C 0.21131 0.57198 0.11303 0.0
C1299 C 0.19432 0.58749 0.10333 0.0
C1300 C 0.19866 0.61041 0.10075 0.0
H1301 H 0.06874 0.56382 0.02556 0.0
H1302 H 0.10534 0.57715 0.03864 0.0
C1303 C 0.21989 0.61769 0.10726 0.0
C1304 C 0.17195 0.57988 0.09588 0.0
H1305 H 0.14542 0.54905 0.05274 0.0
C1306 C 0.15299 0.58683 0.1097 0.0
C1307 C 0.16924 0.56629 0.07495 0.0
C1308 C 0.18901 0.55905 0.05897 0.0
C1309 C 0.13131 0.58029 0.10329 0.0
C1310 C 0.12866 0.56636 0.08265 0.0
C1311 C 0.14759 0.55963 0.06864 0.0
C1312 C 0.10632 0.5587 0.07515 0.0
C1313 C 0.11136 0.58858 0.11838 0.0
C1314 C 0.09489 0.54385 0.09133 0.0
C1315 C 0.07407 0.53614 0.08387 0.0
C1316 C 0.06441 0.54316 0.0601 0.0
C1317 C 0.07583 0.55814 0.04399 0.0
C1318 C 0.0967 0.56575 0.05141 0.0
H1319 H 0.11554 0.60286 0.13004 0.0
H1320 H 0.09684 0.594 0.10557 0.0
H1321 H 0.10601 0.57465 0.13137 0.0
H1322 H 0.10223 0.53798 0.10958 0.0
H1323 H 0.06567 0.52451 0.09659 0.0
H1324 H 0.23522 0.36555 0.62894 0.0
H1325 H 0.25841 0.39076 0.60331 0.0
H1326 H 0.31285 0.3797 0.6584 0.0
H1327 H 0.29005 0.35418 0.6838 0.0
H1328 H 0.27975 0.4311 0.61886 0.0
H1329 H 0.34091 0.36391 0.58911 0.0
H1330 H 0.31356 0.35797 0.60178 0.0
H1331 H 0.33635 0.36401 0.62276 0.0
C1332 C 0.25222 0.36835 0.63544 0.0
C1333 C 0.26088 0.35784 0.65831 0.0
C1334 C 0.26533 0.38285 0.62092 0.0
C1335 C 0.28733 0.38688 0.62894 0.0
C1336 C 0.29595 0.37659 0.65183 0.0
H1337 H 0.38166 0.48619 0.58489 0.0
H1338 H 0.35173 0.46535 0.60537 0.0
C1339 C 0.28286 0.36216 0.66638 0.0
C1340 C 0.30149 0.40168 0.61333 0.0
H1341 H 0.35061 0.40167 0.58042 0.0
C1342 C 0.29517 0.42472 0.61026 0.0
C1343 C 0.3214 0.39315 0.60197 0.0
C1344 C 0.32843 0.36838 0.60383 0.0
C1345 C 0.3087 0.43964 0.59663 0.0
C1346 C 0.32906 0.43122 0.5861 0.0
C1347 C 0.33501 0.40808 0.58864 0.0
C1348 C 0.34485 0.44599 0.57275 0.0
C1349 C 0.3011 0.46423 0.59354 0.0
C1350 C 0.35079 0.44205 0.54764 0.0
C1351 C 0.36804 0.45367 0.53604 0.0
C1352 C 0.37974 0.46943 0.54939 0.0
C1353 C 0.37309 0.47402 0.5742 0.0
C1354 C 0.35583 0.46233 0.58582 0.0
H1355 H 0.28268 0.46689 0.59673 0.0
H1356 H 0.3102 0.47372 0.6077 0.0
H1357 H 0.30502 0.47131 0.57429 0.0
H1358 H 0.34261 0.42937 0.53733 0.0
H1359 H 0.37295 0.44944 0.51707 0.0
H1360 H 0.91443 0.74064 0.87622 0.0
H1361 H 0.93254 0.70574 0.89472 0.0
H1362 H 0.90886 0.72231 0.9687 0.0
H1363 H 0.89129 0.758 0.95052 0.0
H1364 H 0.96675 0.704 0.94172 0.0
H1365 H 0.89048 0.65384 0.95287 0.0
H1366 H 0.89162 0.67658 0.92888 0.0
H1367 H 0.88927 0.68276 0.96169 0.0
C1368 C 0.91318 0.73719 0.89651 0.0
C1369 C 0.90152 0.75265 0.91179 0.0
C1370 C 0.92347 0.71699 0.90704 0.0
C1371 C 0.92218 0.7113 0.93313 0.0
C1372 C 0.91007 0.72624 0.94847 0.0
H1373 H 0.96876 0.58582 0.01815 0.0
H1374 H 0.94954 0.62176 1.00384 0.0
C1375 C 0.89989 0.74666 0.93797 0.0
C1376 C 0.93409 0.69005 0.94413 0.0
H1377 H 0.92552 0.63566 0.96456 0.0
C1378 C 0.95774 0.68906 0.94681 0.0
C1379 C 0.9224 0.67059 0.95101 0.0
C1380 C 0.89703 0.67073 0.94849 0.0
C1381 C 0.96998 0.66928 0.9562 0.0
C1382 C 0.95841 0.64942 0.96223 0.0
C1383 C 0.93463 0.65061 0.95986 0.0
C1384 C 0.97052 0.62736 0.97104 0.0
C1385 C 0.99517 0.67022 0.9602 0.0
C1386 C 0.98872 0.61798 0.95741 0.0
C1387 C 0.99996 0.59745 0.96579 0.0
C1388 C 0.99297 0.58533 0.98771 0.0
C1389 C 0.97453 0.5945 1.00109 0.0
C1390 C 0.96351 0.61518 0.99291 0.0
H1391 H 1.00001 0.68768 0.96321 0.0
H1392 H 1.00127 0.65923 0.97681 0.0
H1393 H 1.00394 0.66457 0.94299 0.0
H1394 H 0.99414 0.62638 0.94001 0.0
H1395 H 1.01386 0.59083 0.95477 0.0
H1396 H 0.43678 0.70359 0.09451 0.0
H1397 H 0.45218 0.73954 0.08065 0.0
H1398 H 0.38575 0.77235 0.0838 0.0
H1399 H 0.37022 0.73655 0.09789 0.0
H1400 H 0.43596 0.77671 0.0381 0.0
H1401 H 0.43047 0.79865 0.13954 0.0
H1402 H 0.43106 0.76985 0.13027 0.0
H1403 H 0.406 0.78776 0.12486 0.0
C1404 C 0.4254 0.71839 0.09177 0.0
C1405 C 0.40235 0.71735 0.0975 0.0
C1406 C 0.43419 0.73883 0.08373 0.0
C1407 C 0.42008 0.75848 0.08141 0.0
C1408 C 0.39683 0.75726 0.08549 0.0
H1409 H 0.4565 0.89762 0.08366 0.0
H1410 H 0.43569 0.86322 0.08331 0.0
C1411 C 0.388 0.73681 0.09342 0.0
C1412 C 0.4301 0.78055 0.07789 0.0
H1413 H 0.44561 0.8251 0.11098 0.0
C1414 C 0.438 0.78742 0.05392 0.0
C1415 C 0.43266 0.79433 0.09865 0.0
C1416 C 0.42474 0.78736 0.12488 0.0
C1417 C 0.44841 0.80797 0.05013 0.0
C1418 C 0.45144 0.82156 0.07107 0.0
C1419 C 0.44325 0.81469 0.09495 0.0
C1420 C 0.46351 0.84273 0.06903 0.0
C1421 C 0.45578 0.81505 0.02374 0.0
C1422 C 0.48606 0.84261 0.06114 0.0
C1423 C 0.49794 0.86227 0.06123 0.0
C1424 C 0.48758 0.88226 0.06966 0.0
C1425 C 0.46497 0.88237 0.07738 0.0
C1426 C 0.45305 0.86279 0.07704 0.0
H1427 H 0.44618 0.8067 1.00897 0.0
H1428 H 0.45351 0.83358 0.02013 0.0
H1429 H 0.47395 0.81007 0.02171 0.0
H1430 H 0.49468 0.82719 0.05557 0.0
H1431 H 0.51542 0.86169 0.05543 0.0
H1432 H 0.10084 0.21189 0.66243 0.0
H1433 H 0.08152 0.18105 0.64396 0.0
H1434 H 0.14436 0.15692 0.61193 0.0
H1435 H 0.16352 0.18809 0.62969 0.0
H1436 H 0.11094 0.15663 0.57827 0.0
H1437 H 0.08391 0.11622 0.66923 0.0
H1438 H 0.07368 0.14506 0.6647 0.0
H1439 H 0.10359 0.13833 0.66793 0.0
C1440 C 0.11048 0.19993 0.65149 0.0
C1441 C 0.13364 0.20229 0.64749 0.0
C1442 C 0.09948 0.18227 0.64109 0.0
C1443 C 0.11159 0.16641 0.627 0.0
C1444 C 0.13469 0.16892 0.6228 0.0
H1445 H 0.0713 0.03471 0.58775 0.0
H1446 H 0.087 0.06688 0.60764 0.0
C1447 C 0.14561 0.18673 0.63288 0.0
C1448 C 0.10022 0.14742 0.61612 0.0
H1449 H 0.0691 0.10212 0.63141 0.0
C1450 C 0.10183 0.14468 0.5899 0.0
C1451 C 0.08861 0.13166 0.63138 0.0
C1452 C 0.08751 0.13279 0.6599 0.0
C1453 C 0.09217 0.12665 0.57848 0.0
C1454 C 0.07986 0.11135 0.59358 0.0
C1455 C 0.0783 0.11403 0.61983 0.0
C1456 C 0.06915 0.09203 0.58261 0.0
C1457 C 0.09587 0.12384 0.55049 0.0
C1458 C 0.05341 0.09551 0.56246 0.0
C1459 C 0.04475 0.07719 0.55086 0.0
C1460 C 0.05126 0.05508 0.5596 0.0
C1461 C 0.06607 0.05159 0.58061 0.0
C1462 C 0.07502 0.06995 0.59197 0.0
H1463 H 0.11083 0.13274 0.54362 0.0
H1464 H 0.09831 0.10578 0.54634 0.0
H1465 H 0.08088 0.13113 0.53954 0.0
H1466 H 0.04813 0.11241 0.55541 0.0
H1467 H 0.03322 0.08033 0.53478 0.0
H1468 H 0.63527 0.36368 0.31015 0.0
H1469 H 0.61715 0.39366 0.33446 0.0
H1470 H 0.62533 0.35101 0.40312 0.0
H1471 H 0.64429 0.32161 0.37906 0.0
H1472 H 0.5807 0.39754 0.36256 0.0
H1473 H 0.6556 0.40557 0.42433 0.0
H1474 H 0.65653 0.38894 0.39667 0.0
H1475 H 0.64634 0.37737 0.42641 0.0
C1476 C 0.63295 0.36078 0.3304 0.0
C1477 C 0.64121 0.34058 0.34291 0.0
C1478 C 0.62271 0.37785 0.34427 0.0
C1479 C 0.6205 0.37482 0.37075 0.0
C1480 C 0.62758 0.35404 0.38289 0.0
H1481 H 0.53123 0.44951 0.46689 0.0
H1482 H 0.54952 0.42325 0.43859 0.0
C1483 C 0.63815 0.33719 0.36915 0.0
C1484 C 0.61095 0.39333 0.3858 0.0
H1485 H 0.62072 0.4225 0.43858 0.0
C1486 C 0.58954 0.40316 0.37904 0.0
C1487 C 0.62274 0.40113 0.40689 0.0
C1488 C 0.64667 0.39288 0.41382 0.0
C1489 C 0.5792 0.41993 0.39339 0.0
C1490 C 0.59026 0.42644 0.41564 0.0
C1491 C 0.61206 0.41725 0.4218 0.0
C1492 C 0.57936 0.44233 0.43313 0.0
C1493 C 0.55668 0.43063 0.38432 0.0
C1494 C 0.59054 0.46122 0.44059 0.0
C1495 C 0.58036 0.47597 0.45739 0.0
C1496 C 0.55874 0.47215 0.46679 0.0
C1497 C 0.54777 0.45305 0.45964 0.0
C1498 C 0.55811 0.43813 0.44326 0.0
H1499 H 0.55455 0.42983 0.36341 0.0
H1500 H 0.54291 0.42131 0.39338 0.0
H1501 H 0.55474 0.44853 0.38926 0.0
H1502 H 0.60705 0.46469 0.43322 0.0
H1503 H 0.58919 0.49059 0.46255 0.0
loop_
_geom_bond_atom_site_label_1
_geom_bond_atom_site_label_2
_geom_bond_distance
_geom_bond_site_symmetry_2
_ccdc_geom_bond_type
C0 C1 1.391 . S
C0 C4 1.391 . S
C0 H42 0.948 . S
C1 C0 1.391 . S
C1 C2 1.391 . S
C2 C1 1.391 . S
C2 H58 0.947 . S
C2 C59 1.392 . S
C3 C4 1.391 . S
C3 C7 1.397 . S
C3 C59 1.419 . S
C4 C0 1.391 . S
C4 C3 1.391 . S
C4 C5 1.399 . S
C5 C4 1.399 . S
C5 C8 1.396 . S
C5 C17 1.453 . S
C5 C18 1.684 . S
H6 C30 0.948 . S
C7 C3 1.397 . S
C7 C8 1.394 . S
C7 C26 1.723 . S
C8 C5 1.396 . S
C8 C7 1.394 . S
C8 C38 1.723 . S
H9 C32 0.947 . S
H10 C33 0.948 . S
H11 C39 0.982 . S
H12 C40 0.979 . S
H13 C40 0.980 . S
H14 C40 0.983 . S
H15 C39 0.979 . S
H16 C39 0.977 . S
C17 C5 1.453 . S
C17 H46 0.982 . S
C17 H47 0.979 . S
C17 H48 0.977 . S
C18 C5 1.684 . S
C18 H43 0.979 . S
C18 H44 0.980 . S
C18 H45 0.983 . S
C19 C20 1.391 . S
C19 C24 1.391 . S
C19 H49 0.948 . S
C20 C19 1.391 . S
C20 C21 1.391 . S
C21 C20 1.391 . S
C21 C22 1.392 . S
C21 H50 0.947 . S
C22 C21 1.392 . S
C22 C23 1.419 . S
C22 H51 0.948 . S
C23 C22 1.419 . S
C23 C24 1.391 . S
C23 C27 1.397 . S
C24 C19 1.391 . S
C24 C23 1.391 . S
C24 C25 1.399 . S
C25 C24 1.399 . S
C25 C26 1.396 . S
C25 C28 1.453 . S
C25 C29 1.684 . S
C26 C7 1.723 . S
C26 C25 1.396 . S
C26 C27 1.394 . S
C27 C23 1.397 . S
C27 C26 1.394 . S
C27 C37 1.723 . S
C28 C25 1.453 . S
C28 H52 0.982 . S
C28 H53 0.979 . S
C28 H54 0.977 . S
C29 C25 1.684 . S
C29 H55 0.979 . S
C29 H56 0.980 . S
C29 H57 0.983 . S
C30 H6 0.948 . S
C30 C31 1.391 . S
C30 C35 1.391 . S
C31 C30 1.391 . S
C31 C32 1.391 . S
C32 H9 0.947 . S
C32 C31 1.391 . S
C32 C33 1.392 . S
C33 H10 0.948 . S
C33 C32 1.392 . S
C33 C34 1.419 . S
C34 C33 1.419 . S
C34 C35 1.391 . S
C34 C38 1.397 . S
C35 C30 1.391 . S
C35 C34 1.391 . S
C35 C36 1.399 . S
C36 C35 1.399 . S
C36 C37 1.396 . S
C36 C39 1.453 . S
C36 C40 1.684 . S
C37 C27 1.723 . S
C37 C36 1.396 . S
C37 C38 1.394 . S
C38 C8 1.723 . S
C38 C34 1.397 . S
C38 C37 1.394 . S
C39 H11 0.982 . S
C39 H15 0.979 . S
C39 H16 0.977 . S
C39 C36 1.453 . S
C40 H12 0.979 . S
C40 H13 0.980 . S
C40 H14 0.983 . S
C40 C36 1.684 . S
H41 C59 0.948 . S
H42 C0 0.948 . S
H43 C18 0.979 . S
H44 C18 0.980 . S
H45 C18 0.983 . S
H46 C17 0.982 . S
H47 C17 0.979 . S
H48 C17 0.977 . S
H49 C19 0.948 . S
H50 C21 0.947 . S
H51 C22 0.948 . S
H52 C28 0.982 . S
H53 C28 0.979 . S
H54 C28 0.977 . S
H55 C29 0.979 . S
H56 C29 0.980 . S
H57 C29 0.983 . S
H58 C2 0.947 . S
C59 C2 1.392 . S
C59 C3 1.419 . S
C59 H41 0.948 . S
C60 C61 1.391 . S
C60 C64 1.391 . S
C60 H102 0.948 . S
C61 C60 1.391 . S
C61 C62 1.391 . S
C62 C61 1.391 . S
C62 H118 0.947 . S
C62 C119 1.392 . S
C63 C64 1.391 . S
C63 C67 1.397 . S
C63 C119 1.419 . S
C64 C60 1.391 . S
C64 C63 1.391 . S
C64 C65 1.399 . S
C65 C64 1.399 . S
C65 C68 1.396 . S
C65 C77 1.453 . S
C65 C78 1.684 . S
H66 C90 0.948 . S
C67 C63 1.397 . S
C67 C68 1.394 . S
C67 C86 1.723 . S
C68 C65 1.396 . S
C68 C67 1.394 . S
C68 C98 1.723 . S
H69 C92 0.947 . S
H70 C93 0.948 . S
H71 C99 0.982 . S
H72 C100 0.979 . S
H73 C100 0.980 . S
H74 C100 0.983 . S
H75 C99 0.979 . S
H76 C99 0.977 . S
C77 C65 1.453 . S
C77 H106 0.982 . S
C77 H107 0.979 . S
C77 H108 0.977 . S
C78 C65 1.684 . S
C78 H103 0.979 . S
C78 H104 0.980 . S
C78 H105 0.983 . S
C79 C80 1.391 . S
C79 C84 1.391 . S
C79 H109 0.948 . S
C80 C79 1.391 . S
C80 C81 1.391 . S
C81 C80 1.391 . S
C81 C82 1.392 . S
C81 H110 0.947 . S
C82 C81 1.392 . S
C82 C83 1.419 . S
C82 H111 0.948 . S
C83 C82 1.419 . S
C83 C84 1.391 . S
C83 C87 1.397 . S
C84 C79 1.391 . S
C84 C83 1.391 . S
C84 C85 1.399 . S
C85 C84 1.399 . S
C85 C86 1.396 . S
C85 C88 1.453 . S
C85 C89 1.684 . S
C86 C67 1.723 . S
C86 C85 1.396 . S
C86 C87 1.394 . S
C87 C83 1.397 . S
C87 C86 1.394 . S
C87 C97 1.723 . S
C88 C85 1.453 . S
C88 H112 0.982 . S
C88 H113 0.979 . S
C88 H114 0.977 . S
C89 C85 1.684 . S
C89 H115 0.979 . S
C89 H116 0.980 . S
C89 H117 0.983 . S
C90 H66 0.948 . S
C90 C91 1.391 . S
C90 C95 1.391 . S
C91 C90 1.391 . S
C91 C92 1.391 . S
C92 H69 0.947 . S
C92 C91 1.391 . S
C92 C93 1.392 . S
C93 H70 0.948 . S
C93 C92 1.392 . S
C93 C94 1.419 . S
C94 C93 1.419 . S
C94 C95 1.391 . S
C94 C98 1.397 . S
C95 C90 1.391 . S
C95 C94 1.391 . S
C95 C96 1.399 . S
C96 C95 1.399 . S
C96 C97 1.396 . S
C96 C99 1.453 . S
C96 C100 1.684 . S
C97 C87 1.723 . S
C97 C96 1.396 . S
C97 C98 1.394 . S
C98 C68 1.723 . S
C98 C94 1.397 . S
C98 C97 1.394 . S
C99 H71 0.982 . S
C99 H75 0.979 . S
C99 H76 0.977 . S
C99 C96 1.453 . S
C100 H72 0.979 . S
C100 H73 0.980 . S
C100 H74 0.983 . S
C100 C96 1.684 . S
H101 C119 0.948 . S
H102 C60 0.948 . S
H103 C78 0.979 . S
H104 C78 0.980 . S
H105 C78 0.983 . S
H106 C77 0.982 . S
H107 C77 0.979 . S
H108 C77 0.977 . S
H109 C79 0.948 . S
H110 C81 0.947 . S
H111 C82 0.948 . S
H112 C88 0.982 . S
H113 C88 0.979 . S
H114 C88 0.977 . S
H115 C89 0.979 . S
H116 C89 0.980 . S
H117 C89 0.983 . S
H118 C62 0.947 . S
C119 C62 1.392 . S
C119 C63 1.419 . S
C119 H101 0.948 . S
C120 C121 1.391 . S
C120 C124 1.391 . S
C120 H162 0.948 . S
C121 C120 1.391 . S
C121 C122 1.391 . S
C122 C121 1.391 . S
C122 H178 0.947 . S
C122 C179 1.392 . S
C123 C124 1.391 . S
C123 C127 1.397 . S
C123 C179 1.419 . S
C124 C120 1.391 . S
C124 C123 1.391 . S
C124 C125 1.399 . S
C125 C124 1.399 . S
C125 C128 1.396 . S
C125 C137 1.453 . S
C125 C138 1.684 . S
H126 C150 0.948 . S
C127 C123 1.397 . S
C127 C128 1.394 . S
C127 C146 1.723 . S
C128 C125 1.396 . S
C128 C127 1.394 . S
C128 C158 1.723 . S
H129 C152 0.947 . S
H130 C153 0.948 . S
H131 C159 0.982 . S
H132 C160 0.979 . S
H133 C160 0.980 . S
H134 C160 0.983 . S
H135 C159 0.979 . S
H136 C159 0.977 . S
C137 C125 1.453 . S
C137 H166 0.982 . S
C137 H167 0.979 . S
C137 H168 0.977 . S
C138 C125 1.684 . S
C138 H163 0.979 . S
C138 H164 0.980 . S
C138 H165 0.983 . S
C139 C140 1.391 . S
C139 C144 1.391 . S
C139 H169 0.948 . S
C140 C139 1.391 . S
C140 C141 1.391 . S
C141 C140 1.391 . S
C141 C142 1.392 . S
C141 H170 0.947 . S
C142 C141 1.392 . S
C142 C143 1.419 . S
C142 H171 0.948 . S
C143 C142 1.419 . S
C143 C144 1.391 . S
C143 C147 1.397 . S
C144 C139 1.391 . S
C144 C143 1.391 . S
C144 C145 1.399 . S
C145 C144 1.399 . S
C145 C146 1.396 . S
C145 C148 1.453 . S
C145 C149 1.684 . S
C146 C127 1.723 . S
C146 C145 1.396 . S
C146 C147 1.394 . S
C147 C143 1.397 . S
C147 C146 1.394 . S
C147 C157 1.723 . S
C148 C145 1.453 . S
C148 H172 0.982 . S
C148 H173 0.979 . S
C148 H174 0.977 . S
C149 C145 1.684 . S
C149 H175 0.979 . S
C149 H176 0.980 . S
C149 H177 0.983 . S
C150 H126 0.948 . S
C150 C151 1.391 . S
C150 C155 1.391 . S
C151 C150 1.391 . S
C151 C152 1.391 . S
C152 H129 0.947 . S
C152 C151 1.391 . S
C152 C153 1.392 . S
C153 H130 0.948 . S
C153 C152 1.392 . S
C153 C154 1.419 . S
C154 C153 1.419 . S
C154 C155 1.391 . S
C154 C158 1.397 . S
C155 C150 1.391 . S
C155 C154 1.391 . S
C155 C156 1.399 . S
C156 C155 1.399 . S
C156 C157 1.396 . S
C156 C159 1.453 . S
C156 C160 1.684 . S
C157 C147 1.723 . S
C157 C156 1.396 . S
C157 C158 1.394 . S
C158 C128 1.723 . S
C158 C154 1.397 . S
C158 C157 1.394 . S
C159 H131 0.982 . S
C159 H135 0.979 . S
C159 H136 0.977 . S
C159 C156 1.453 . S
C160 H132 0.979 . S
C160 H133 0.980 . S
C160 H134 0.983 . S
C160 C156 1.684 . S
H161 C179 0.948 . S
H162 C120 0.948 . S
H163 C138 0.979 . S
H164 C138 0.980 . S
H165 C138 0.983 . S
H166 C137 0.982 . S
H167 C137 0.979 . S
H168 C137 0.977 . S
H169 C139 0.948 . S
H170 C141 0.947 . S
H171 C142 0.948 . S
H172 C148 0.982 . S
H173 C148 0.979 . S
H174 C148 0.977 . S
H175 C149 0.979 . S
H176 C149 0.980 . S
H177 C149 0.983 . S
H178 C122 0.947 . S
C179 C122 1.392 . S
C179 C123 1.419 . S
C179 H161 0.948 . S
C180 C181 1.391 . S
C180 C184 1.391 . S
C180 H222 0.948 . S
C181 C180 1.391 . S
C181 C182 1.391 . S
C182 C181 1.391 . S
C182 H238 0.947 . S
C182 C239 1.392 . S
C183 C184 1.391 . S
C183 C187 1.397 . S
C183 C239 1.419 . S
C184 C180 1.391 . S
C184 C183 1.391 . S
C184 C185 1.399 . S
C185 C184 1.399 . S
C185 C188 1.396 . S
C185 C197 1.453 . S
C185 C198 1.684 . S
H186 C210 0.948 . S
C187 C183 1.397 . S
C187 C188 1.394 . S
C187 C206 1.723 . S
C188 C185 1.396 . S
C188 C187 1.394 . S
C188 C218 1.723 . S
H189 C212 0.947 . S
H190 C213 0.948 . S
H191 C219 0.982 . S
H192 C220 0.979 . S
H193 C220 0.980 . S
H194 C220 0.983 . S
H195 C219 0.979 . S
H196 C219 0.977 . S
C197 C185 1.453 . S
C197 H226 0.982 . S
C197 H227 0.979 . S
C197 H228 0.977 . S
C198 C185 1.684 . S
C198 H223 0.979 . S
C198 H224 0.980 . S
C198 H225 0.983 . S
C199 C200 1.391 . S
C199 C204 1.391 . S
C199 H229 0.948 . S
C200 C199 1.391 . S
C200 C201 1.391 . S
C201 C200 1.391 . S
C201 C202 1.392 . S
C201 H230 0.947 . S
C202 C201 1.392 . S
C202 C203 1.419 . S
C202 H231 0.948 . S
C203 C202 1.419 . S
C203 C204 1.391 . S
C203 C207 1.397 . S
C204 C199 1.391 . S
C204 C203 1.391 . S
C204 C205 1.399 . S
C205 C204 1.399 . S
C205 C206 1.396 . S
C205 C208 1.453 . S
C205 C209 1.684 . S
C206 C187 1.723 . S
C206 C205 1.396 . S
C206 C207 1.394 . S
C207 C203 1.397 . S
C207 C206 1.394 . S
C207 C217 1.723 . S
C208 C205 1.453 . S
C208 H232 0.982 . S
C208 H233 0.979 . S
C208 H234 0.977 . S
C209 C205 1.684 . S
C209 H235 0.979 . S
C209 H236 0.980 . S
C209 H237 0.983 . S
C210 H186 0.948 . S
C210 C211 1.391 . S
C210 C215 1.391 . S
C211 C210 1.391 . S
C211 C212 1.391 . S
C212 H189 0.947 . S
C212 C211 1.391 . S
C212 C213 1.392 . S
C213 H190 0.948 . S
C213 C212 1.392 . S
C213 C214 1.419 . S
C214 C213 1.419 . S
C214 C215 1.391 . S
C214 C218 1.397 . S
C215 C210 1.391 . S
C215 C214 1.391 . S
C215 C216 1.399 . S
C216 C215 1.399 . S
C216 C217 1.396 . S
C216 C219 1.453 . S
C216 C220 1.684 . S
C217 C207 1.723 . S
C217 C216 1.396 . S
C217 C218 1.394 . S
C218 C188 1.723 . S
C218 C214 1.397 . S
C218 C217 1.394 . S
C219 H191 0.982 . S
C219 H195 0.979 . S
C219 H196 0.977 . S
C219 C216 1.453 . S
C220 H192 0.979 . S
C220 H193 0.980 . S
C220 H194 0.983 . S
C220 C216 1.684 . S
H221 C239 0.948 . S
H222 C180 0.948 . S
H223 C198 0.979 . S
H224 C198 0.980 . S
H225 C198 0.983 . S
H226 C197 0.982 . S
H227 C197 0.979 . S
H228 C197 0.977 . S
H229 C199 0.948 . S
H230 C201 0.947 . S
H231 C202 0.948 . S
H232 C208 0.982 . S
H233 C208 0.979 . S
H234 C208 0.977 . S
H235 C209 0.979 . S
H236 C209 0.980 . S
H237 C209 0.983 . S
H238 C182 0.947 . S
C239 C182 1.392 . S
C239 C183 1.419 . S
C239 H221 0.948 . S
C240 C241 1.391 . S
C240 C244 1.391 . S
C240 H282 0.948 . S
C241 C240 1.391 . S
C241 C242 1.391 . S
C242 C241 1.391 . S
C242 H298 0.947 . S
C242 C299 1.392 . S
C243 C244 1.391 . S
C243 C247 1.397 . S
C243 C299 1.419 . S
C244 C240 1.391 . S
C244 C243 1.391 . S
C244 C245 1.399 . S
C245 C244 1.399 . S
C245 C248 1.396 . S
C245 C257 1.453 . S
C245 C258 1.684 . S
H246 C270 0.948 . S
C247 C243 1.397 . S
C247 C248 1.394 . S
C247 C266 1.723 . S
C248 C245 1.396 . S
C248 C247 1.394 . S
C248 C278 1.723 . S
H249 C272 0.947 . S
H250 C273 0.948 . S
H251 C279 0.982 . S
H252 C280 0.979 . S
H253 C280 0.980 . S
H254 C280 0.983 . S
H255 C279 0.979 . S
H256 C279 0.977 . S
C257 C245 1.453 . S
C257 H286 0.982 . S
C257 H287 0.979 . S
C257 H288 0.977 . S
C258 C245 1.684 . S
C258 H283 0.979 . S
C258 H284 0.980 . S
C258 H285 0.983 . S
C259 C260 1.391 . S
C259 C264 1.391 . S
C259 H289 0.948 . S
C260 C259 1.391 . S
C260 C261 1.391 . S
C261 C260 1.391 . S
C261 C262 1.392 . S
C261 H290 0.947 . S
C262 C261 1.392 . S
C262 C263 1.419 . S
C262 H291 0.948 . S
C263 C262 1.419 . S
C263 C264 1.391 . S
C263 C267 1.397 . S
C264 C259 1.391 . S
C264 C263 1.391 . S
C264 C265 1.399 . S
C265 C264 1.399 . S
C265 C266 1.396 . S
C265 C268 1.453 . S
C265 C269 1.684 . S
C266 C247 1.723 . S
C266 C265 1.396 . S
C266 C267 1.394 . S
C267 C263 1.397 . S
C267 C266 1.394 . S
C267 C277 1.723 . S
C268 C265 1.453 . S
C268 H292 0.982 . S
C268 H293 0.979 . S
C268 H294 0.977 . S
C269 C265 1.684 . S
C269 H295 0.979 . S
C269 H296 0.980 . S
C269 H297 0.983 . S
C270 H246 0.948 . S
C270 C271 1.391 . S
C270 C275 1.391 . S
C271 C270 1.391 . S
C271 C272 1.391 . S
C272 H249 0.947 . S
C272 C271 1.391 . S
C272 C273 1.392 . S
C273 H250 0.948 . S
C273 C272 1.392 . S
C273 C274 1.419 . S
C274 C273 1.419 . S
C274 C275 1.391 . S
C274 C278 1.397 . S
C275 C270 1.391 . S
C275 C274 1.391 . S
C275 C276 1.399 . S
C276 C275 1.399 . S
C276 C277 1.396 . S
C276 C279 1.453 . S
C276 C280 1.684 . S
C277 C267 1.723 . S
C277 C276 1.396 . S
C277 C278 1.394 . S
C278 C248 1.723 . S
C278 C274 1.397 . S
C278 C277 1.394 . S
C279 H251 0.982 . S
C279 H255 0.979 . S
C279 H256 0.977 . S
C279 C276 1.453 . S
C280 H252 0.979 . S
C280 H253 0.980 . S
C280 H254 0.983 . S
C280 C276 1.684 . S
H281 C299 0.948 . S
H282 C240 0.948 . S
H283 C258 0.979 . S
H284 C258 0.980 . S
H285 C258 0.983 . S
H286 C257 0.982 . S
H287 C257 0.979 . S
H288 C257 0.977 . S
H289 C259 0.948 . S
H290 C261 0.947 . S
H291 C262 0.948 . S
H292 C268 0.982 . S
H293 C268 0.979 . S
H294 C268 0.977 . S
H295 C269 0.979 . S
H296 C269 0.980 . S
H297 C269 0.983 . S
H298 C242 0.947 . S
C299 C242 1.392 . S
C299 C243 1.419 . S
C299 H281 0.948 . S
C300 C301 1.391 . S
C300 C304 1.391 . S
C300 H342 0.948 . S
C301 C300 1.391 . S
C301 C302 1.391 . S
C302 C301 1.391 . S
C302 H358 0.947 . S
C302 C359 1.392 . S
C303 C304 1.391 . S
C303 C307 1.397 . S
C303 C359 1.419 . S
C304 C300 1.391 . S
C304 C303 1.391 . S
C304 C305 1.399 . S
C305 C304 1.399 . S
C305 C308 1.396 . S
C305 C317 1.453 . S
C305 C318 1.684 . S
H306 C330 0.948 . S
C307 C303 1.397 . S
C307 C308 1.394 . S
C307 C326 1.723 . S
C308 C305 1.396 . S
C308 C307 1.394 . S
C308 C338 1.723 . S
H309 C332 0.947 . S
H310 C333 0.948 . S
H311 C339 0.982 . S
H312 C340 0.979 . S
H313 C340 0.980 . S
H314 C340 0.983 . S
H315 C339 0.979 . S
H316 C339 0.977 . S
C317 C305 1.453 . S
C317 H346 0.982 . S
C317 H347 0.979 . S
C317 H348 0.977 . S
C318 C305 1.684 . S
C318 H343 0.979 . S
C318 H344 0.980 . S
C318 H345 0.983 . S
C319 C320 1.391 . S
C319 C324 1.391 . S
C319 H349 0.948 . S
C320 C319 1.391 . S
C320 C321 1.391 . S
C321 C320 1.391 . S
C321 C322 1.392 . S
C321 H350 0.947 . S
C322 C321 1.392 . S
C322 C323 1.419 . S
C322 H351 0.948 . S
C323 C322 1.419 . S
C323 C324 1.391 . S
C323 C327 1.397 . S
C324 C319 1.391 . S
C324 C323 1.391 . S
C324 C325 1.399 . S
C325 C324 1.399 . S
C325 C326 1.396 . S
C325 C328 1.453 . S
C325 C329 1.684 . S
C326 C307 1.723 . S
C326 C325 1.396 . S
C326 C327 1.394 . S
C327 C323 1.397 . S
C327 C326 1.394 . S
C327 C337 1.723 . S
C328 C325 1.453 . S
C328 H352 0.982 . S
C328 H353 0.979 . S
C328 H354 0.977 . S
C329 C325 1.684 . S
C329 H355 0.979 . S
C329 H356 0.980 . S
C329 H357 0.983 . S
C330 H306 0.948 . S
C330 C331 1.391 . S
C330 C335 1.391 . S
C331 C330 1.391 . S
C331 C332 1.391 . S
C332 H309 0.947 . S
C332 C331 1.391 . S
C332 C333 1.392 . S
C333 H310 0.948 . S
C333 C332 1.392 . S
C333 C334 1.419 . S
C334 C333 1.419 . S
C334 C335 1.391 . S
C334 C338 1.397 . S
C335 C330 1.391 . S
C335 C334 1.391 . S
C335 C336 1.399 . S
C336 C335 1.399 . S
C336 C337 1.396 . S
C336 C339 1.453 . S
C336 C340 1.684 . S
C337 C327 1.723 . S
C337 C336 1.396 . S
C337 C338 1.394 . S
C338 C308 1.723 . S
C338 C334 1.397 . S
C338 C337 1.394 . S
C339 H311 0.982 . S
C339 H315 0.979 . S
C339 H316 0.977 . S
C339 C336 1.453 . S
C340 H312 0.979 . S
C340 H313 0.980 . S
C340 H314 0.983 . S
C340 C336 1.684 . S
H341 C359 0.948 . S
H342 C300 0.948 . S
H343 C318 0.979 . S
H344 C318 0.980 . S
H345 C318 0.983 . S
H346 C317 0.982 . S
H347 C317 0.979 . S
H348 C317 0.977 . S
H349 C319 0.948 . S
H350 C321 0.947 . S
H351 C322 0.948 . S
H352 C328 0.982 . S
H353 C328 0.979 . S
H354 C328 0.977 . S
H355 C329 0.979 . S
H356 C329 0.980 . S
H357 C329 0.983 . S
H358 C302 0.947 . S
C359 C302 1.392 . S
C359 C303 1.419 . S
C359 H341 0.948 . S
C360 C361 1.391 . S
C360 C364 1.391 . S
C360 H402 0.948 . S
C361 C360 1.391 . S
C361 C362 1.391 . S
C362 C361 1.391 . S
C362 H418 0.947 . S
C362 C419 1.392 . S
C363 C364 1.391 . S
C363 C367 1.397 . S
C363 C419 1.419 . S
C364 C360 1.391 . S
C364 C363 1.391 . S
C364 C365 1.399 . S
C365 C364 1.399 . S
C365 C368 1.396 . S
C365 C377 1.453 . S
C365 C378 1.684 . S
H366 C390 0.948 . S
C367 C363 1.397 . S
C367 C368 1.394 . S
C367 C386 1.723 . S
C368 C365 1.396 . S
C368 C367 1.394 . S
C368 C398 1.723 . S
H369 C392 0.947 . S
H370 C393 0.948 . S
H371 C399 0.982 . S
H372 C400 0.979 . S
H373 C400 0.980 . S
H374 C400 0.983 . S
H375 C399 0.979 . S
H376 C399 0.977 . S
C377 C365 1.453 . S
C377 H406 0.982 . S
C377 H407 0.979 . S
C377 H408 0.977 . S
C378 C365 1.684 . S
C378 H403 0.979 . S
C378 H404 0.980 . S
C378 H405 0.983 . S
C379 C380 1.391 . S
C379 C384 1.391 . S
C379 H409 0.948 . S
C380 C379 1.391 . S
C380 C381 1.391 . S
C381 C380 1.391 . S
C381 C382 1.392 . S
C381 H410 0.947 . S
C382 C381 1.392 . S
C382 C383 1.419 . S
C382 H411 0.948 . S
C383 C382 1.419 . S
C383 C384 1.391 . S
C383 C387 1.397 . S
C384 C379 1.391 . S
C384 C383 1.391 . S
C384 C385 1.399 . S
C385 C384 1.399 . S
C385 C386 1.396 . S
C385 C388 1.453 . S
C385 C389 1.684 . S
C386 C367 1.723 . S
C386 C385 1.396 . S
C386 C387 1.394 . S
C387 C383 1.397 . S
C387 C386 1.394 . S
C387 C397 1.723 . S
C388 C385 1.453 . S
C388 H412 0.982 . S
C388 H413 0.979 . S
C388 H414 0.977 . S
C389 C385 1.684 . S
C389 H415 0.979 . S
C389 H416 0.980 . S
C389 H417 0.983 . S
C390 H366 0.948 . S
C390 C391 1.391 . S
C390 C395 1.391 . S
C391 C390 1.391 . S
C391 C392 1.391 . S
C392 H369 0.947 . S
C392 C391 1.391 . S
C392 C393 1.392 . S
C393 H370 0.948 . S
C393 C392 1.392 . S
C393 C394 1.419 . S
C394 C393 1.419 . S
C394 C395 1.391 . S
C394 C398 1.397 . S
C395 C390 1.391 . S
C395 C394 1.391 . S
C395 C396 1.399 . S
C396 C395 1.399 . S
C396 C397 1.396 . S
C396 C399 1.453 . S
C396 C400 1.684 . S
C397 C387 1.723 . S
C397 C396 1.396 . S
C397 C398 1.394 . S
C398 C368 1.723 . S
C398 C394 1.397 . S
C398 C397 1.394 . S
C399 H371 0.982 . S
C399 H375 0.979 . S
C399 H376 0.977 . S
C399 C396 1.453 . S
C400 H372 0.979 . S
C400 H373 0.980 . S
C400 H374 0.983 . S
C400 C396 1.684 . S
H401 C419 0.948 . S
H402 C360 0.948 . S
H403 C378 0.979 . S
H404 C378 0.980 . S
H405 C378 0.983 . S
H406 C377 0.982 . S
H407 C377 0.979 . S
H408 C377 0.977 . S
H409 C379 0.948 . S
H410 C381 0.947 . S
H411 C382 0.948 . S
H412 C388 0.982 . S
H413 C388 0.979 . S
H414 C388 0.977 . S
H415 C389 0.979 . S
H416 C389 0.980 . S
H417 C389 0.983 . S
H418 C362 0.947 . S
C419 C362 1.392 . S
C419 C363 1.419 . S
C419 H401 0.948 . S
C420 C421 1.391 . S
C420 C424 1.391 . S
C420 H462 0.948 . S
C421 C420 1.391 . S
C421 C422 1.391 . S
C422 C421 1.391 . S
C422 H478 0.947 . S
C422 C479 1.392 . S
C423 C424 1.391 . S
C423 C427 1.397 . S
C423 C479 1.419 . S
C424 C420 1.391 . S
C424 C423 1.391 . S
C424 C425 1.399 . S
C425 C424 1.399 . S
C425 C428 1.396 . S
C425 C437 1.453 . S
C425 C438 1.684 . S
H426 C450 0.948 . S
C427 C423 1.397 . S
C427 C428 1.394 . S
C427 C446 1.723 . S
C428 C425 1.396 . S
C428 C427 1.394 . S
C428 C458 1.723 . S
H429 C452 0.947 . S
H430 C453 0.948 . S
H431 C459 0.982 . S
H432 C460 0.979 . S
H433 C460 0.980 . S
H434 C460 0.983 . S
H435 C459 0.979 . S
H436 C459 0.977 . S
C437 C425 1.453 . S
C437 H466 0.982 . S
C437 H467 0.979 . S
C437 H468 0.977 . S
C438 C425 1.684 . S
C438 H463 0.979 . S
C438 H464 0.980 . S
C438 H465 0.983 . S
C439 C440 1.391 . S
C439 C444 1.391 . S
C439 H469 0.948 . S
C440 C439 1.391 . S
C440 C441 1.391 . S
C441 C440 1.391 . S
C441 C442 1.392 . S
C441 H470 0.947 . S
C442 C441 1.392 . S
C442 C443 1.419 . S
C442 H471 0.948 . S
C443 C442 1.419 . S
C443 C444 1.391 . S
C443 C447 1.397 . S
C444 C439 1.391 . S
C444 C443 1.391 . S
C444 C445 1.399 . S
C445 C444 1.399 . S
C445 C446 1.396 . S
C445 C448 1.453 . S
C445 C449 1.684 . S
C446 C427 1.723 . S
C446 C445 1.396 . S
C446 C447 1.394 . S
C447 C443 1.397 . S
C447 C446 1.394 . S
C447 C457 1.723 . S
C448 C445 1.453 . S
C448 H472 0.982 . S
C448 H473 0.979 . S
C448 H474 0.977 . S
C449 C445 1.684 . S
C449 H475 0.979 . S
C449 H476 0.980 . S
C449 H477 0.983 . S
C450 H426 0.948 . S
C450 C451 1.391 . S
C450 C455 1.391 . S
C451 C450 1.391 . S
C451 C452 1.391 . S
C452 H429 0.947 . S
C452 C451 1.391 . S
C452 C453 1.392 . S
C453 H430 0.948 . S
C453 C452 1.392 . S
C453 C454 1.419 . S
C454 C453 1.419 . S
C454 C455 1.391 . S
C454 C458 1.397 . S
C455 C450 1.391 . S
C455 C454 1.391 . S
C455 C456 1.399 . S
C456 C455 1.399 . S
C456 C457 1.396 . S
C456 C459 1.453 . S
C456 C460 1.684 . S
C457 C447 1.723 . S
C457 C456 1.396 . S
C457 C458 1.394 . S
C458 C428 1.723 . S
C458 C454 1.397 . S
C458 C457 1.394 . S
C459 H431 0.982 . S
C459 H435 0.979 . S
C459 H436 0.977 . S
C459 C456 1.453 . S
C460 H432 0.979 . S
C460 H433 0.980 . S
C460 H434 0.983 . S
C460 C456 1.684 . S
H461 C479 0.948 . S
H462 C420 0.948 . S
H463 C438 0.979 . S
H464 C438 0.980 . S
H465 C438 0.983 . S
H466 C437 0.982 . S
H467 C437 0.979 . S
H468 C437 0.977 . S
H469 C439 0.948 . S
H470 C441 0.947 . S
H471 C442 0.948 . S
H472 C448 0.982 . S
H473 C448 0.979 . S
H474 C448 0.977 . S
H475 C449 0.979 . S
H476 C449 0.980 . S
H477 C449 0.983 . S
H478 C422 0.947 . S
C479 C422 1.392 . S
C479 C423 1.419 . S
C479 H461 0.948 . S
Nd480 C482 2.836 . S
Nd480 O500 2.500 . S
Nd480 O501 2.492 . S
Nd480 O502 2.487 1_565 S
Nd480 O503 2.682 1_565 S
Nd480 O504 2.410 . S
Nd480 O509 2.414 1_455 S
Nd480 O511 2.424 1_565 S
Nd481 C491 2.836 . S
Nd481 O503 2.414 1_655 S
Nd481 O505 2.424 1_545 S
Nd481 O506 2.500 . S
Nd481 O507 2.492 . S
Nd481 O508 2.487 1_545 S
Nd481 O509 2.682 1_545 S
Nd481 O510 2.410 . S
C482 Nd480 2.836 . S
C482 C483 1.498 . S
C482 O500 1.258 . S
C482 O501 1.239 . S
C483 C482 1.498 . S
C483 C484 1.366 . S
C483 C488 1.407 . S
C484 C483 1.366 . S
C484 C485 1.392 . S
C484 H512 0.930 . S
C485 C484 1.392 . S
C485 C486 1.398 . S
C485 H513 0.929 . S
C486 C485 1.398 . S
C486 C487 1.352 . S
C487 C486 1.352 . S
C487 C488 1.384 . S
C487 H514 0.930 . S
C488 C483 1.407 . S
C488 C487 1.384 . S
C488 H515 0.929 . S
C489 O502 1.241 . S
C489 O503 1.273 . S
C490 O504 1.251 1_655 S
C490 O505 1.268 . S
C491 Nd481 2.836 . S
C491 C492 1.498 . S
C491 O506 1.258 . S
C491 O507 1.239 . S
C492 C491 1.498 . S
C492 C493 1.366 . S
C492 C497 1.407 . S
C493 C492 1.366 . S
C493 C494 1.392 . S
C493 H516 0.930 . S
C494 C493 1.392 . S
C494 C495 1.398 . S
C494 H517 0.929 . S
C495 C494 1.398 . S
C495 C496 1.352 . S
C496 C495 1.352 . S
C496 C497 1.384 . S
C496 H518 0.930 . S
C497 C492 1.407 . S
C497 C496 1.384 . S
C497 H519 0.929 . S
C498 O508 1.241 . S
C498 O509 1.273 . S
C499 O510 1.251 1_455 S
C499 O511 1.268 . S
O500 Nd480 2.500 . S
O500 C482 1.258 . S
O501 Nd480 2.492 . S
O501 C482 1.239 . S
O502 Nd480 2.487 1_545 S
O502 C489 1.241 . S
O503 Nd480 2.682 1_545 S
O503 Nd481 2.414 1_455 S
O503 C489 1.273 . S
O504 Nd480 2.410 . S
O504 C490 1.251 1_455 S
O505 Nd481 2.424 1_565 S
O505 C490 1.268 . S
O506 Nd481 2.500 . S
O506 C491 1.258 . S
O507 Nd481 2.492 . S
O507 C491 1.239 . S
O508 Nd481 2.487 1_565 S
O508 C498 1.241 . S
O509 Nd480 2.414 1_655 S
O509 Nd481 2.682 1_565 S
O509 C498 1.273 . S
O510 Nd481 2.410 . S
O510 C499 1.251 1_655 S
O511 Nd480 2.424 1_545 S
O511 C499 1.268 . S
H512 C484 0.930 . S
H513 C485 0.929 . S
H514 C487 0.930 . S
H515 C488 0.929 . S
H516 C493 0.930 . S
H517 C494 0.929 . S
H518 C496 0.930 . S
H519 C497 0.929 . S
Nd520 C522 2.836 . S
Nd520 O540 2.500 . S
Nd520 O541 2.492 . S
Nd520 O542 2.487 1_565 S
Nd520 O543 2.682 1_565 S
Nd520 O544 2.410 1_554 S
Nd520 O549 2.414 1_554 S
Nd520 O551 2.424 1_565 S
Nd521 C531 2.836 . S
Nd521 O543 2.414 1_556 S
Nd521 O545 2.424 1_545 S
Nd521 O546 2.500 . S
Nd521 O547 2.492 . S
Nd521 O548 2.487 1_545 S
Nd521 O549 2.682 1_545 S
Nd521 O550 2.410 1_556 S
C522 Nd520 2.836 . S
C522 C523 1.498 . S
C522 O540 1.258 . S
C522 O541 1.239 . S
C523 C522 1.498 . S
C523 C524 1.366 . S
C523 C528 1.407 . S
C524 C523 1.366 . S
C524 C525 1.392 . S
C524 H552 0.930 . S
C525 C524 1.392 . S
C525 C526 1.398 . S
C525 H553 0.929 . S
C526 C525 1.398 . S
C526 C527 1.352 . S
C527 C526 1.352 . S
C527 C528 1.384 . S
C527 H554 0.930 . S
C528 C523 1.407 . S
C528 C527 1.384 . S
C528 H555 0.929 . S
C529 O542 1.241 . S
C529 O543 1.273 . S
C530 O544 1.251 . S
C530 O545 1.268 . S
C531 Nd521 2.836 . S
C531 C532 1.498 . S
C531 O546 1.258 . S
C531 O547 1.239 . S
C532 C531 1.498 . S
C532 C533 1.366 . S
C532 C537 1.407 . S
C533 C532 1.366 . S
C533 C534 1.392 . S
C533 H556 0.930 . S
C534 C533 1.392 . S
C534 C535 1.398 . S
C534 H557 0.929 . S
C535 C534 1.398 . S
C535 C536 1.352 . S
C536 C535 1.352 . S
C536 C537 1.384 . S
C536 H558 0.930 . S
C537 C532 1.407 . S
C537 C536 1.384 . S
C537 H559 0.929 . S
C538 O548 1.241 . S
C538 O549 1.273 . S
C539 O550 1.251 . S
C539 O551 1.268 . S
O540 Nd520 2.500 . S
O540 C522 1.258 . S
O541 Nd520 2.492 . S
O541 C522 1.239 . S
O542 Nd520 2.487 1_545 S
O542 C529 1.241 . S
O543 Nd520 2.682 1_545 S
O543 Nd521 2.414 1_554 S
O543 C529 1.273 . S
O544 Nd520 2.410 1_556 S
O544 C530 1.251 . S
O545 Nd521 2.424 1_565 S
O545 C530 1.268 . S
O546 Nd521 2.500 . S
O546 C531 1.258 . S
O547 Nd521 2.492 . S
O547 C531 1.239 . S
O548 Nd521 2.487 1_565 S
O548 C538 1.241 . S
O549 Nd520 2.414 1_556 S
O549 Nd521 2.682 1_565 S
O549 C538 1.273 . S
O550 Nd521 2.410 1_554 S
O550 C539 1.251 . S
O551 Nd520 2.424 1_545 S
O551 C539 1.268 . S
H552 C524 0.930 . S
H553 C525 0.929 . S
H554 C527 0.930 . S
H555 C528 0.929 . S
H556 C533 0.930 . S
H557 C534 0.929 . S
H558 C536 0.930 . S
H559 C537 0.929 . S
Nd560 C562 2.836 . S
Nd560 O580 2.500 . S
Nd560 O581 2.492 . S
Nd560 O582 2.487 . S
Nd560 O583 2.682 . S
Nd560 O584 2.410 . S
Nd560 O589 2.414 . S
Nd560 O591 2.424 . S
Nd561 C571 2.836 . S
Nd561 O583 2.414 . S
Nd561 O585 2.424 . S
Nd561 O586 2.500 . S
Nd561 O587 2.492 . S
Nd561 O588 2.487 . S
Nd561 O589 2.682 . S
Nd561 O590 2.410 . S
C562 Nd560 2.836 . S
C562 C563 1.498 . S
C562 O580 1.258 . S
C562 O581 1.239 . S
C563 C562 1.498 . S
C563 C564 1.366 . S
C563 C568 1.407 . S
C564 C563 1.366 . S
C564 C565 1.392 . S
C564 H592 0.930 . S
C565 C564 1.392 . S
C565 C566 1.398 . S
C565 H593 0.929 . S
C566 C565 1.398 . S
C566 C567 1.352 . S
C567 C566 1.352 . S
C567 C568 1.384 . S
C567 H594 0.930 . S
C568 C563 1.407 . S
C568 C567 1.384 . S
C568 H595 0.929 . S
C569 O582 1.241 . S
C569 O583 1.273 . S
C570 O584 1.251 . S
C570 O585 1.268 . S
C571 Nd561 2.836 . S
C571 C572 1.498 . S
C571 O586 1.258 . S
C571 O587 1.239 . S
C572 C571 1.498 . S
C572 C573 1.366 . S
C572 C577 1.407 . S
C573 C572 1.366 . S
C573 C574 1.392 . S
C573 H596 0.930 . S
C574 C573 1.392 . S
C574 C575 1.398 . S
C574 H597 0.929 . S
C575 C574 1.398 . S
C575 C576 1.352 . S
C576 C575 1.352 . S
C576 C577 1.384 . S
C576 H598 0.930 . S
C577 C572 1.407 . S
C577 C576 1.384 . S
C577 H599 0.929 . S
C578 O588 1.241 . S
C578 O589 1.273 . S
C579 O590 1.251 . S
C579 O591 1.268 . S
O580 Nd560 2.500 . S
O580 C562 1.258 . S
O581 Nd560 2.492 . S
O581 C562 1.239 . S
O582 Nd560 2.487 . S
O582 C569 1.241 . S
O583 Nd560 2.682 . S
O583 Nd561 2.414 . S
O583 C569 1.273 . S
O584 Nd560 2.410 . S
O584 C570 1.251 . S
O585 Nd561 2.424 . S
O585 C570 1.268 . S
O586 Nd561 2.500 . S
O586 C571 1.258 . S
O587 Nd561 2.492 . S
O587 C571 1.239 . S
O588 Nd561 2.487 . S
O588 C578 1.241 . S
O589 Nd560 2.414 . S
O589 Nd561 2.682 . S
O589 C578 1.273 . S
O590 Nd561 2.410 . S
O590 C579 1.251 . S
O591 Nd560 2.424 . S
O591 C579 1.268 . S
H592 C564 0.930 . S
H593 C565 0.929 . S
H594 C567 0.930 . S
H595 C568 0.929 . S
H596 C573 0.930 . S
H597 C574 0.929 . S
H598 C576 0.930 . S
H599 C577 0.929 . S
Nd600 C602 2.836 . S
Nd600 O620 2.500 . S
Nd600 O621 2.492 . S
Nd600 O622 2.487 1_655 S
Nd600 O623 2.682 1_655 S
Nd600 O624 2.410 . S
Nd600 O629 2.414 1_554 S
Nd600 O631 2.424 1_655 S
Nd601 C611 2.836 . S
Nd601 O623 2.414 1_556 S
Nd601 O625 2.424 1_455 S
Nd601 O626 2.500 . S
Nd601 O627 2.492 . S
Nd601 O628 2.487 1_455 S
Nd601 O629 2.682 1_455 S
Nd601 O630 2.410 . S
C602 Nd600 2.836 . S
C602 C603 1.498 . S
C602 O620 1.258 . S
C602 O621 1.239 . S
C603 C602 1.498 . S
C603 C604 1.366 . S
C603 C608 1.407 . S
C604 C603 1.366 . S
C604 C605 1.392 . S
C604 H632 0.930 . S
C605 C604 1.392 . S
C605 C606 1.398 . S
C605 H633 0.929 . S
C606 C605 1.398 . S
C606 C607 1.352 . S
C607 C606 1.352 . S
C607 C608 1.384 . S
C607 H634 0.930 . S
C608 C603 1.407 . S
C608 C607 1.384 . S
C608 H635 0.929 . S
C609 O622 1.241 . S
C609 O623 1.273 . S
C610 O624 1.251 1_556 S
C610 O625 1.268 . S
C611 Nd601 2.836 . S
C611 C612 1.498 . S
C611 O626 1.258 . S
C611 O627 1.239 . S
C612 C611 1.498 . S
C612 C613 1.366 . S
C612 C617 1.407 . S
C613 C612 1.366 . S
C613 C614 1.392 . S
C613 H636 0.930 . S
C614 C613 1.392 . S
C614 C615 1.398 . S
C614 H637 0.929 . S
C615 C614 1.398 . S
C615 C616 1.352 . S
C616 C615 1.352 . S
C616 C617 1.384 . S
C616 H638 0.930 . S
C617 C612 1.407 . S
C617 C616 1.384 . S
C617 H639 0.929 . S
C618 O628 1.241 . S
C618 O629 1.273 . S
C619 O630 1.251 1_554 S
C619 O631 1.268 . S
O620 Nd600 2.500 . S
O620 C602 1.258 . S
O621 Nd600 2.492 . S
O621 C602 1.239 . S
O622 Nd600 2.487 1_455 S
O622 C609 1.241 . S
O623 Nd600 2.682 1_455 S
O623 Nd601 2.414 1_554 S
O623 C609 1.273 . S
O624 Nd600 2.410 . S
O624 C610 1.251 1_554 S
O625 Nd601 2.424 1_655 S
O625 C610 1.268 . S
O626 Nd601 2.500 . S
O626 C611 1.258 . S
O627 Nd601 2.492 . S
O627 C611 1.239 . S
O628 Nd601 2.487 1_655 S
O628 C618 1.241 . S
O629 Nd600 2.414 1_556 S
O629 Nd601 2.682 1_655 S
O629 C618 1.273 . S
O630 Nd601 2.410 . S
O630 C619 1.251 1_556 S
O631 Nd600 2.424 1_455 S
O631 C619 1.268 . S
H632 C604 0.930 . S
H633 C605 0.929 . S
H634 C607 0.930 . S
H635 C608 0.929 . S
H636 C613 0.930 . S
H637 C614 0.929 . S
H638 C616 0.930 . S
H639 C617 0.929 . S
H640 C648 0.929 . S
H641 C650 0.930 . S
H642 C652 0.930 . S
H643 C655 0.929 . S
H644 C658 0.930 . S
H645 C660 0.960 . S
H646 C660 0.960 . S
H647 C660 0.960 . S
C648 H640 0.929 . S
C648 C649 1.377 . S
C648 C650 1.384 . S
C649 C648 1.377 . S
C649 C655 1.390 . S
C650 H641 0.930 . S
C650 C648 1.384 . S
C650 C651 1.372 . S
C651 C650 1.372 . S
C651 C652 1.400 . S
C651 C656 1.490 . S
C652 H642 0.930 . S
C652 C651 1.400 . S
C652 C655 1.386 . S
H653 C669 0.930 . S
H654 C670 0.931 . S
C655 H643 0.929 . S
C655 C649 1.390 . S
C655 C652 1.386 . S
C656 C651 1.490 . S
C656 C658 1.395 . S
C656 C659 1.403 . S
H657 C663 0.930 . S
C658 H644 0.930 . S
C658 C656 1.395 . S
C658 C661 1.403 . S
C659 C656 1.403 . S
C659 C660 1.524 . S
C659 C663 1.400 . S
C660 H645 0.960 . S
C660 H646 0.960 . S
C660 H647 0.960 . S
C660 C659 1.524 . S
C661 C658 1.403 . S
C661 C662 1.392 . S
C661 C665 1.495 . S
C662 C661 1.392 . S
C662 C663 1.385 . S
C662 C664 1.478 . S
C663 H657 0.930 . S
C663 C659 1.400 . S
C663 C662 1.385 . S
C664 C662 1.478 . S
C664 C666 1.381 . S
C664 C670 1.383 . S
C665 C661 1.495 . S
C665 H671 0.959 . S
C665 H672 0.961 . S
C665 H673 0.960 . S
C666 C664 1.381 . S
C666 C667 1.394 . S
C666 H674 0.930 . S
C667 C666 1.394 . S
C667 C668 1.383 . S
C667 H675 0.929 . S
C668 C667 1.383 . S
C668 C669 1.377 . S
C669 H653 0.930 . S
C669 C668 1.377 . S
C669 C670 1.379 . S
C670 H654 0.931 . S
C670 C664 1.383 . S
C670 C669 1.379 . S
H671 C665 0.959 . S
H672 C665 0.961 . S
H673 C665 0.960 . S
H674 C666 0.930 . S
H675 C667 0.929 . S
H676 C684 0.929 . S
H677 C686 0.930 . S
H678 C688 0.930 . S
H679 C691 0.929 . S
H680 C694 0.930 . S
H681 C696 0.960 . S
H682 C696 0.960 . S
H683 C696 0.960 . S
C684 H676 0.929 . S
C684 C685 1.377 . S
C684 C686 1.384 . S
C685 C684 1.377 . S
C685 C691 1.390 . S
C686 H677 0.930 . S
C686 C684 1.384 . S
C686 C687 1.372 . S
C687 C686 1.372 . S
C687 C688 1.400 . S
C687 C692 1.490 . S
C688 H678 0.930 . S
C688 C687 1.400 . S
C688 C691 1.386 . S
H689 C705 0.930 . S
H690 C706 0.931 . S
C691 H679 0.929 . S
C691 C685 1.390 . S
C691 C688 1.386 . S
C692 C687 1.490 . S
C692 C694 1.395 . S
C692 C695 1.403 . S
H693 C699 0.930 . S
C694 H680 0.930 . S
C694 C692 1.395 . S
C694 C697 1.403 . S
C695 C692 1.403 . S
C695 C696 1.524 . S
C695 C699 1.400 . S
C696 H681 0.960 . S
C696 H682 0.960 . S
C696 H683 0.960 . S
C696 C695 1.524 . S
C697 C694 1.403 . S
C697 C698 1.392 . S
C697 C701 1.495 . S
C698 C697 1.392 . S
C698 C699 1.385 . S
C698 C700 1.478 . S
C699 H693 0.930 . S
C699 C695 1.400 . S
C699 C698 1.385 . S
C700 C698 1.478 . S
C700 C702 1.381 . S
C700 C706 1.383 . S
C701 C697 1.495 . S
C701 H707 0.959 . S
C701 H708 0.961 . S
C701 H709 0.960 . S
C702 C700 1.381 . S
C702 C703 1.394 . S
C702 H710 0.930 . S
C703 C702 1.394 . S
C703 C704 1.383 . S
C703 H711 0.929 . S
C704 C703 1.383 . S
C704 C705 1.377 . S
C705 H689 0.930 . S
C705 C704 1.377 . S
C705 C706 1.379 . S
C706 H690 0.931 . S
C706 C700 1.383 . S
C706 C705 1.379 . S
H707 C701 0.959 . S
H708 C701 0.961 . S
H709 C701 0.960 . S
H710 C702 0.930 . S
H711 C703 0.929 . S
H712 C720 0.929 . S
H713 C722 0.930 . S
H714 C724 0.930 . S
H715 C727 0.929 . S
H716 C730 0.930 . S
H717 C732 0.960 . S
H718 C732 0.960 . S
H719 C732 0.960 . S
C720 H712 0.929 . S
C720 C721 1.377 . S
C720 C722 1.384 . S
C721 C720 1.377 . S
C721 C727 1.390 . S
C722 H713 0.930 . S
C722 C720 1.384 . S
C722 C723 1.372 . S
C723 C722 1.372 . S
C723 C724 1.400 . S
C723 C728 1.490 . S
C724 H714 0.930 . S
C724 C723 1.400 . S
C724 C727 1.386 . S
H725 C741 0.930 . S
H726 C742 0.931 . S
C727 H715 0.929 . S
C727 C721 1.390 . S
C727 C724 1.386 . S
C728 C723 1.490 . S
C728 C730 1.395 . S
C728 C731 1.403 . S
H729 C735 0.930 . S
C730 H716 0.930 . S
C730 C728 1.395 . S
C730 C733 1.403 . S
C731 C728 1.403 . S
C731 C732 1.524 . S
C731 C735 1.400 . S
C732 H717 0.960 . S
C732 H718 0.960 . S
C732 H719 0.960 . S
C732 C731 1.524 . S
C733 C730 1.403 . S
C733 C734 1.392 . S
C733 C737 1.495 . S
C734 C733 1.392 . S
C734 C735 1.385 . S
C734 C736 1.478 . S
C735 H729 0.930 . S
C735 C731 1.400 . S
C735 C734 1.385 . S
C736 C734 1.478 . S
C736 C738 1.381 . S
C736 C742 1.383 . S
C737 C733 1.495 . S
C737 H743 0.959 . S
C737 H744 0.961 . S
C737 H745 0.960 . S
C738 C736 1.381 . S
C738 C739 1.394 . S
C738 H746 0.930 . S
C739 C738 1.394 . S
C739 C740 1.383 . S
C739 H747 0.929 . S
C740 C739 1.383 . S
C740 C741 1.377 . S
C741 H725 0.930 . S
C741 C740 1.377 . S
C741 C742 1.379 . S
C742 H726 0.931 . S
C742 C736 1.383 . S
C742 C741 1.379 . S
H743 C737 0.959 . S
H744 C737 0.961 . S
H745 C737 0.960 . S
H746 C738 0.930 . S
H747 C739 0.929 . S
H748 C756 0.929 . S
H749 C758 0.930 . S
H750 C760 0.930 . S
H751 C763 0.929 . S
H752 C766 0.930 . S
H753 C768 0.960 . S
H754 C768 0.960 . S
H755 C768 0.960 . S
C756 H748 0.929 . S
C756 C757 1.377 . S
C756 C758 1.384 . S
C757 C756 1.377 . S
C757 C763 1.390 . S
C758 H749 0.930 . S
C758 C756 1.384 . S
C758 C759 1.372 . S
C759 C758 1.372 . S
C759 C760 1.400 . S
C759 C764 1.490 . S
C760 H750 0.930 . S
C760 C759 1.400 . S
C760 C763 1.386 . S
H761 C777 0.930 . S
H762 C778 0.931 . S
C763 H751 0.929 . S
C763 C757 1.390 . S
C763 C760 1.386 . S
C764 C759 1.490 . S
C764 C766 1.395 . S
C764 C767 1.403 . S
H765 C771 0.930 . S
C766 H752 0.930 . S
C766 C764 1.395 . S
C766 C769 1.403 . S
C767 C764 1.403 . S
C767 C768 1.524 . S
C767 C771 1.400 . S
C768 H753 0.960 . S
C768 H754 0.960 . S
C768 H755 0.960 . S
C768 C767 1.524 . S
C769 C766 1.403 . S
C769 C770 1.392 . S
C769 C773 1.495 . S
C770 C769 1.392 . S
C770 C771 1.385 . S
C770 C772 1.478 . S
C771 H765 0.930 . S
C771 C767 1.400 . S
C771 C770 1.385 . S
C772 C770 1.478 . S
C772 C774 1.381 . S
C772 C778 1.383 . S
C773 C769 1.495 . S
C773 H779 0.959 . S
C773 H780 0.961 . S
C773 H781 0.960 . S
C774 C772 1.381 . S
C774 C775 1.394 . S
C774 H782 0.930 . S
C775 C774 1.394 . S
C775 C776 1.383 . S
C775 H783 0.929 . S
C776 C775 1.383 . S
C776 C777 1.377 . S
C777 H761 0.930 . S
C777 C776 1.377 . S
C777 C778 1.379 . S
C778 H762 0.931 . S
C778 C772 1.383 . S
C778 C777 1.379 . S
H779 C773 0.959 . S
H780 C773 0.961 . S
H781 C773 0.960 . S
H782 C774 0.930 . S
H783 C775 0.929 . S
H784 C792 0.929 . S
H785 C794 0.930 . S
H786 C796 0.930 . S
H787 C799 0.929 . S
H788 C802 0.930 . S
H789 C804 0.960 . S
H790 C804 0.960 . S
H791 C804 0.960 . S
C792 H784 0.929 . S
C792 C793 1.377 . S
C792 C794 1.384 . S
C793 C792 1.377 . S
C793 C799 1.390 . S
C794 H785 0.930 . S
C794 C792 1.384 . S
C794 C795 1.372 . S
C795 C794 1.372 . S
C795 C796 1.400 . S
C795 C800 1.490 . S
C796 H786 0.930 . S
C796 C795 1.400 . S
C796 C799 1.386 . S
H797 C813 0.930 . S
H798 C814 0.931 . S
C799 H787 0.929 . S
C799 C793 1.390 . S
C799 C796 1.386 . S
C800 C795 1.490 . S
C800 C802 1.395 . S
C800 C803 1.403 . S
H801 C807 0.930 . S
C802 H788 0.930 . S
C802 C800 1.395 . S
C802 C805 1.403 . S
C803 C800 1.403 . S
C803 C804 1.524 . S
C803 C807 1.400 . S
C804 H789 0.960 . S
C804 H790 0.960 . S
C804 H791 0.960 . S
C804 C803 1.524 . S
C805 C802 1.403 . S
C805 C806 1.392 . S
C805 C809 1.495 . S
C806 C805 1.392 . S
C806 C807 1.385 . S
C806 C808 1.478 . S
C807 H801 0.930 . S
C807 C803 1.400 . S
C807 C806 1.385 . S
C808 C806 1.478 . S
C808 C810 1.381 . S
C808 C814 1.383 . S
C809 C805 1.495 . S
C809 H815 0.959 . S
C809 H816 0.961 . S
C809 H817 0.960 . S
C810 C808 1.381 . S
C810 C811 1.394 . S
C810 H818 0.930 . S
C811 C810 1.394 . S
C811 C812 1.383 . S
C811 H819 0.929 1_554 S
C812 C811 1.383 . S
C812 C813 1.377 . S
C813 H797 0.930 . S
C813 C812 1.377 . S
C813 C814 1.379 . S
C814 H798 0.931 . S
C814 C808 1.383 . S
C814 C813 1.379 . S
H815 C809 0.959 . S
H816 C809 0.961 . S
H817 C809 0.960 . S
H818 C810 0.930 . S
H819 C811 0.929 1_556 S
H820 C828 0.929 . S
H821 C830 0.930 . S
H822 C832 0.930 . S
H823 C835 0.929 . S
H824 C838 0.930 . S
H825 C840 0.960 . S
H826 C840 0.960 . S
H827 C840 0.960 . S
C828 H820 0.929 . S
C828 C829 1.377 . S
C828 C830 1.384 . S
C829 C828 1.377 . S
C829 C835 1.390 . S
C830 H821 0.930 . S
C830 C828 1.384 . S
C830 C831 1.372 . S
C831 C830 1.372 . S
C831 C832 1.400 . S
C831 C836 1.490 . S
C832 H822 0.930 . S
C832 C831 1.400 . S
C832 C835 1.386 . S
H833 C849 0.930 . S
H834 C850 0.931 . S
C835 H823 0.929 . S
C835 C829 1.390 . S
C835 C832 1.386 . S
C836 C831 1.490 . S
C836 C838 1.395 . S
C836 C839 1.403 . S
H837 C843 0.930 . S
C838 H824 0.930 . S
C838 C836 1.395 . S
C838 C841 1.403 . S
C839 C836 1.403 . S
C839 C840 1.524 . S
C839 C843 1.400 . S
C840 H825 0.960 . S
C840 H826 0.960 . S
C840 H827 0.960 . S
C840 C839 1.524 . S
C841 C838 1.403 . S
C841 C842 1.392 . S
C841 C845 1.495 . S
C842 C841 1.392 . S
C842 C843 1.385 . S
C842 C844 1.478 . S
C843 H837 0.930 . S
C843 C839 1.400 . S
C843 C842 1.385 . S
C844 C842 1.478 . S
C844 C846 1.381 . S
C844 C850 1.383 . S
C845 C841 1.495 . S
C845 H851 0.959 . S
C845 H852 0.961 . S
C845 H853 0.960 . S
C846 C844 1.381 . S
C846 C847 1.394 . S
C846 H854 0.930 . S
C847 C846 1.394 . S
C847 C848 1.383 . S
C847 H855 0.929 . S
C848 C847 1.383 . S
C848 C849 1.377 . S
C849 H833 0.930 . S
C849 C848 1.377 . S
C849 C850 1.379 . S
C850 H834 0.931 . S
C850 C844 1.383 . S
C850 C849 1.379 . S
H851 C845 0.959 . S
H852 C845 0.961 . S
H853 C845 0.960 . S
H854 C846 0.930 . S
H855 C847 0.929 . S
H856 C864 0.929 . S
H857 C866 0.930 . S
H858 C868 0.930 . S
H859 C871 0.929 . S
H860 C874 0.930 . S
H861 C876 0.960 . S
H862 C876 0.960 . S
H863 C876 0.960 . S
C864 H856 0.929 . S
C864 C865 1.377 . S
C864 C866 1.384 . S
C865 C864 1.377 . S
C865 C871 1.390 . S
C866 H857 0.930 . S
C866 C864 1.384 . S
C866 C867 1.372 . S
C867 C866 1.372 . S
C867 C868 1.400 . S
C867 C872 1.490 . S
C868 H858 0.930 . S
C868 C867 1.400 . S
C868 C871 1.386 . S
H869 C885 0.930 . S
H870 C886 0.931 . S
C871 H859 0.929 . S
C871 C865 1.390 . S
C871 C868 1.386 . S
C872 C867 1.490 . S
C872 C874 1.395 . S
C872 C875 1.403 . S
H873 C879 0.930 . S
C874 H860 0.930 . S
C874 C872 1.395 . S
C874 C877 1.403 . S
C875 C872 1.403 . S
C875 C876 1.524 . S
C875 C879 1.400 . S
C876 H861 0.960 . S
C876 H862 0.960 . S
C876 H863 0.960 . S
C876 C875 1.524 . S
C877 C874 1.403 . S
C877 C878 1.392 . S
C877 C881 1.495 . S
C878 C877 1.392 . S
C878 C879 1.385 . S
C878 C880 1.478 . S
C879 H873 0.930 . S
C879 C875 1.400 . S
C879 C878 1.385 . S
C880 C878 1.478 . S
C880 C882 1.381 . S
C880 C886 1.383 . S
C881 C877 1.495 . S
C881 H887 0.959 . S
C881 H888 0.961 . S
C881 H889 0.960 . S
C882 C880 1.381 . S
C882 C883 1.394 . S
C882 H890 0.930 . S
C883 C882 1.394 . S
C883 C884 1.383 . S
C883 H891 0.929 . S
C884 C883 1.383 . S
C884 C885 1.377 . S
C885 H869 0.930 . S
C885 C884 1.377 . S
C885 C886 1.379 . S
C886 H870 0.931 . S
C886 C880 1.383 . S
C886 C885 1.379 . S
H887 C881 0.959 . S
H888 C881 0.961 . S
H889 C881 0.960 . S
H890 C882 0.930 . S
H891 C883 0.929 . S
H892 C900 0.929 . S
H893 C902 0.930 . S
H894 C904 0.930 . S
H895 C907 0.929 . S
H896 C910 0.930 . S
H897 C912 0.960 . S
H898 C912 0.960 . S
H899 C912 0.960 . S
C900 H892 0.929 . S
C900 C901 1.377 . S
C900 C902 1.384 . S
C901 C900 1.377 . S
C901 C907 1.390 . S
C902 H893 0.930 . S
C902 C900 1.384 . S
C902 C903 1.372 . S
C903 C902 1.372 . S
C903 C904 1.400 . S
C903 C908 1.490 . S
C904 H894 0.930 . S
C904 C903 1.400 . S
C904 C907 1.386 . S
H905 C921 0.930 . S
H906 C922 0.931 . S
C907 H895 0.929 . S
C907 C901 1.390 . S
C907 C904 1.386 . S
C908 C903 1.490 . S
C908 C910 1.395 . S
C908 C911 1.403 . S
H909 C915 0.930 . S
C910 H896 0.930 . S
C910 C908 1.395 . S
C910 C913 1.403 . S
C911 C908 1.403 . S
C911 C912 1.524 . S
C911 C915 1.400 . S
C912 H897 0.960 . S
C912 H898 0.960 . S
C912 H899 0.960 . S
C912 C911 1.524 . S
C913 C910 1.403 . S
C913 C914 1.392 . S
C913 C917 1.495 . S
C914 C913 1.392 . S
C914 C915 1.385 . S
C914 C916 1.478 . S
C915 H909 0.930 . S
C915 C911 1.400 . S
C915 C914 1.385 . S
C916 C914 1.478 . S
C916 C918 1.381 . S
C916 C922 1.383 . S
C917 C913 1.495 . S
C917 H923 0.959 . S
C917 H924 0.961 . S
C917 H925 0.960 . S
C918 C916 1.381 . S
C918 C919 1.394 . S
C918 H926 0.930 . S
C919 C918 1.394 . S
C919 C920 1.383 . S
C919 H927 0.929 . S
C920 C919 1.383 . S
C920 C921 1.377 . S
C921 H905 0.930 . S
C921 C920 1.377 . S
C921 C922 1.379 . S
C922 H906 0.931 . S
C922 C916 1.383 . S
C922 C921 1.379 . S
H923 C917 0.959 . S
H924 C917 0.961 . S
H925 C917 0.960 . S
H926 C918 0.930 . S
H927 C919 0.929 . S
H928 C936 0.929 . S
H929 C938 0.930 . S
H930 C940 0.930 . S
H931 C943 0.929 . S
H932 C946 0.930 . S
H933 C948 0.960 . S
H934 C948 0.960 . S
H935 C948 0.960 . S
C936 H928 0.929 . S
C936 C937 1.377 . S
C936 C938 1.384 . S
C937 C936 1.377 . S
C937 C943 1.390 . S
C938 H929 0.930 . S
C938 C936 1.384 . S
C938 C939 1.372 . S
C939 C938 1.372 . S
C939 C940 1.400 . S
C939 C944 1.490 . S
C940 H930 0.930 . S
C940 C939 1.400 . S
C940 C943 1.386 . S
H941 C957 0.930 1_556 S
H942 C958 0.931 1_556 S
C943 H931 0.929 . S
C943 C937 1.390 . S
C943 C940 1.386 . S
C944 C939 1.490 . S
C944 C946 1.395 . S
C944 C947 1.403 . S
H945 C951 0.930 . S
C946 H932 0.930 . S
C946 C944 1.395 . S
C946 C949 1.403 . S
C947 C944 1.403 . S
C947 C948 1.524 . S
C947 C951 1.400 . S
C948 H933 0.960 . S
C948 H934 0.960 . S
C948 H935 0.960 . S
C948 C947 1.524 . S
C949 C946 1.403 . S
C949 C950 1.392 . S
C949 C953 1.495 . S
C950 C949 1.392 . S
C950 C951 1.385 . S
C950 C952 1.478 . S
C951 H945 0.930 . S
C951 C947 1.400 . S
C951 C950 1.385 . S
C952 C950 1.478 . S
C952 C954 1.381 . S
C952 C958 1.383 . S
C953 C949 1.495 . S
C953 H959 0.959 . S
C953 H960 0.961 . S
C953 H961 0.960 . S
C954 C952 1.381 . S
C954 C955 1.394 . S
C954 H962 0.930 . S
C955 C954 1.394 . S
C955 C956 1.383 . S
C955 H963 0.929 . S
C956 C955 1.383 . S
C956 C957 1.377 . S
C957 H941 0.930 1_554 S
C957 C956 1.377 . S
C957 C958 1.379 . S
C958 H942 0.931 1_554 S
C958 C952 1.383 . S
C958 C957 1.379 . S
H959 C953 0.959 . S
H960 C953 0.961 . S
H961 C953 0.960 . S
H962 C954 0.930 . S
H963 C955 0.929 . S
H964 C972 0.929 . S
H965 C974 0.930 . S
H966 C976 0.930 . S
H967 C979 0.929 . S
H968 C982 0.930 . S
H969 C984 0.960 . S
H970 C984 0.960 . S
H971 C984 0.960 . S
C972 H964 0.929 . S
C972 C973 1.377 . S
C972 C974 1.384 . S
C973 C972 1.377 . S
C973 C979 1.390 . S
C974 H965 0.930 . S
C974 C972 1.384 . S
C974 C975 1.372 . S
C975 C974 1.372 . S
C975 C976 1.400 . S
C975 C980 1.490 . S
C976 H966 0.930 . S
C976 C975 1.400 . S
C976 C979 1.386 . S
H977 C993 0.930 . S
H978 C994 0.931 . S
C979 H967 0.929 . S
C979 C973 1.390 . S
C979 C976 1.386 . S
C980 C975 1.490 . S
C980 C982 1.395 . S
C980 C983 1.403 . S
H981 C987 0.930 . S
C982 H968 0.930 . S
C982 C980 1.395 . S
C982 C985 1.403 . S
C983 C980 1.403 . S
C983 C984 1.524 . S
C983 C987 1.400 . S
C984 H969 0.960 . S
C984 H970 0.960 . S
C984 H971 0.960 . S
C984 C983 1.524 . S
C985 C982 1.403 . S
C985 C986 1.392 . S
C985 C989 1.495 . S
C986 C985 1.392 . S
C986 C987 1.385 . S
C986 C988 1.478 . S
C987 H981 0.930 . S
C987 C983 1.400 . S
C987 C986 1.385 . S
C988 C986 1.478 . S
C988 C990 1.381 . S
C988 C994 1.383 . S
C989 C985 1.495 . S
C989 H995 0.959 . S
C989 H996 0.961 . S
C989 H997 0.960 . S
C990 C988 1.381 . S
C990 C991 1.394 . S
C990 H998 0.930 . S
C991 C990 1.394 . S
C991 C992 1.383 . S
C991 H999 0.929 . S
C992 C991 1.383 . S
C992 C993 1.377 . S
C993 H977 0.930 . S
C993 C992 1.377 . S
C993 C994 1.379 . S
C994 H978 0.931 . S
C994 C988 1.383 . S
C994 C993 1.379 . S
H995 C989 0.959 . S
H996 C989 0.961 . S
H997 C989 0.960 . S
H998 C990 0.930 . S
H999 C991 0.929 . S
H1000 C1008 0.929 . S
H1001 C1010 0.930 . S
H1002 C1012 0.930 . S
H1003 C1015 0.929 . S
H1004 C1018 0.930 . S
H1005 C1020 0.960 . S
H1006 C1020 0.960 . S
H1007 C1020 0.960 . S
C1008 H1000 0.929 . S
C1008 C1009 1.377 . S
C1008 C1010 1.384 . S
C1009 C1008 1.377 . S
C1009 C1015 1.390 . S
C1010 H1001 0.930 . S
C1010 C1008 1.384 . S
C1010 C1011 1.372 . S
C1011 C1010 1.372 . S
C1011 C1012 1.400 . S
C1011 C1016 1.490 . S
C1012 H1002 0.930 . S
C1012 C1011 1.400 . S
C1012 C1015 1.386 . S
H1013 C1029 0.930 . S
H1014 C1030 0.931 . S
C1015 H1003 0.929 . S
C1015 C1009 1.390 . S
C1015 C1012 1.386 . S
C1016 C1011 1.490 . S
C1016 C1018 1.395 . S
C1016 C1019 1.403 . S
H1017 C1023 0.930 . S
C1018 H1004 0.930 . S
C1018 C1016 1.395 . S
C1018 C1021 1.403 . S
C1019 C1016 1.403 . S
C1019 C1020 1.524 . S
C1019 C1023 1.400 . S
C1020 H1005 0.960 . S
C1020 H1006 0.960 . S
C1020 H1007 0.960 . S
C1020 C1019 1.524 . S
C1021 C1018 1.403 . S
C1021 C1022 1.392 . S
C1021 C1025 1.495 . S
C1022 C1021 1.392 . S
C1022 C1023 1.385 . S
C1022 C1024 1.478 . S
C1023 H1017 0.930 . S
C1023 C1019 1.400 . S
C1023 C1022 1.385 . S
C1024 C1022 1.478 . S
C1024 C1026 1.381 . S
C1024 C1030 1.383 . S
C1025 C1021 1.495 . S
C1025 H1031 0.959 . S
C1025 H1032 0.961 . S
C1025 H1033 0.960 . S
C1026 C1024 1.381 . S
C1026 C1027 1.394 . S
C1026 H1034 0.930 . S
C1027 C1026 1.394 . S
C1027 C1028 1.383 . S
C1027 H1035 0.929 . S
C1028 C1027 1.383 . S
C1028 C1029 1.377 . S
C1029 H1013 0.930 . S
C1029 C1028 1.377 . S
C1029 C1030 1.379 . S
C1030 H1014 0.931 . S
C1030 C1024 1.383 . S
C1030 C1029 1.379 . S
H1031 C1025 0.959 . S
H1032 C1025 0.961 . S
H1033 C1025 0.960 . S
H1034 C1026 0.930 . S
H1035 C1027 0.929 . S
H1036 C1044 0.929 . S
H1037 C1046 0.930 . S
H1038 C1048 0.930 . S
H1039 C1051 0.929 . S
H1040 C1054 0.930 . S
H1041 C1056 0.960 . S
H1042 C1056 0.960 . S
H1043 C1056 0.960 . S
C1044 H1036 0.929 . S
C1044 C1045 1.377 . S
C1044 C1046 1.384 . S
C1045 C1044 1.377 . S
C1045 C1051 1.390 . S
C1046 H1037 0.930 . S
C1046 C1044 1.384 . S
C1046 C1047 1.372 . S
C1047 C1046 1.372 . S
C1047 C1048 1.400 . S
C1047 C1052 1.490 . S
C1048 H1038 0.930 . S
C1048 C1047 1.400 . S
C1048 C1051 1.386 . S
H1049 C1065 0.930 . S
H1050 C1066 0.931 . S
C1051 H1039 0.929 . S
C1051 C1045 1.390 . S
C1051 C1048 1.386 . S
C1052 C1047 1.490 . S
C1052 C1054 1.395 . S
C1052 C1055 1.403 . S
H1053 C1059 0.930 . S
C1054 H1040 0.930 . S
C1054 C1052 1.395 . S
C1054 C1057 1.403 . S
C1055 C1052 1.403 . S
C1055 C1056 1.524 . S
C1055 C1059 1.400 . S
C1056 H1041 0.960 . S
C1056 H1042 0.960 . S
C1056 H1043 0.960 . S
C1056 C1055 1.524 . S
C1057 C1054 1.403 . S
C1057 C1058 1.392 . S
C1057 C1061 1.495 . S
C1058 C1057 1.392 . S
C1058 C1059 1.385 . S
C1058 C1060 1.478 . S
C1059 H1053 0.930 . S
C1059 C1055 1.400 . S
C1059 C1058 1.385 . S
C1060 C1058 1.478 . S
C1060 C1062 1.381 . S
C1060 C1066 1.383 . S
C1061 C1057 1.495 . S
C1061 H1067 0.959 . S
C1061 H1068 0.961 . S
C1061 H1069 0.960 . S
C1062 C1060 1.381 . S
C1062 C1063 1.394 . S
C1062 H1070 0.930 . S
C1063 C1062 1.394 . S
C1063 C1064 1.383 . S
C1063 H1071 0.929 . S
C1064 C1063 1.383 . S
C1064 C1065 1.377 . S
C1065 H1049 0.930 . S
C1065 C1064 1.377 . S
C1065 C1066 1.379 . S
C1066 H1050 0.931 . S
C1066 C1060 1.383 . S
C1066 C1065 1.379 . S
H1067 C1061 0.959 . S
H1068 C1061 0.961 . S
H1069 C1061 0.960 . S
H1070 C1062 0.930 . S
H1071 C1063 0.929 . S
H1072 C1080 0.929 . S
H1073 C1082 0.930 . S
H1074 C1084 0.930 . S
H1075 C1087 0.929 . S
H1076 C1090 0.930 . S
H1077 C1092 0.960 . S
H1078 C1092 0.960 . S
H1079 C1092 0.960 . S
C1080 H1072 0.929 . S
C1080 C1081 1.377 . S
C1080 C1082 1.384 . S
C1081 C1080 1.377 . S
C1081 C1087 1.390 . S
C1082 H1073 0.930 . S
C1082 C1080 1.384 . S
C1082 C1083 1.372 . S
C1083 C1082 1.372 . S
C1083 C1084 1.400 . S
C1083 C1088 1.490 . S
C1084 H1074 0.930 . S
C1084 C1083 1.400 . S
C1084 C1087 1.386 . S
H1085 C1101 0.930 . S
H1086 C1102 0.931 . S
C1087 H1075 0.929 . S
C1087 C1081 1.390 . S
C1087 C1084 1.386 . S
C1088 C1083 1.490 . S
C1088 C1090 1.395 . S
C1088 C1091 1.403 . S
H1089 C1095 0.930 . S
C1090 H1076 0.930 . S
C1090 C1088 1.395 . S
C1090 C1093 1.403 . S
C1091 C1088 1.403 . S
C1091 C1092 1.524 . S
C1091 C1095 1.400 . S
C1092 H1077 0.960 . S
C1092 H1078 0.960 . S
C1092 H1079 0.960 . S
C1092 C1091 1.524 . S
C1093 C1090 1.403 . S
C1093 C1094 1.392 . S
C1093 C1097 1.495 . S
C1094 C1093 1.392 . S
C1094 C1095 1.385 . S
C1094 C1096 1.478 . S
C1095 H1089 0.930 . S
C1095 C1091 1.400 . S
C1095 C1094 1.385 . S
C1096 C1094 1.478 . S
C1096 C1098 1.381 . S
C1096 C1102 1.383 . S
C1097 C1093 1.495 . S
C1097 H1103 0.959 . S
C1097 H1104 0.961 . S
C1097 H1105 0.960 . S
C1098 C1096 1.381 . S
C1098 C1099 1.394 . S
C1098 H1106 0.930 . S
C1099 C1098 1.394 . S
C1099 C1100 1.383 . S
C1099 H1107 0.929 . S
C1100 C1099 1.383 . S
C1100 C1101 1.377 . S
C1101 H1085 0.930 . S
C1101 C1100 1.377 . S
C1101 C1102 1.379 . S
C1102 H1086 0.931 . S
C1102 C1096 1.383 . S
C1102 C1101 1.379 . S
H1103 C1097 0.959 . S
H1104 C1097 0.961 . S
H1105 C1097 0.960 . S
H1106 C1098 0.930 . S
H1107 C1099 0.929 . S
H1108 C1116 0.929 . S
H1109 C1118 0.930 . S
H1110 C1120 0.930 . S
H1111 C1123 0.929 . S
H1112 C1126 0.930 . S
H1113 C1128 0.960 . S
H1114 C1128 0.960 . S
H1115 C1128 0.960 . S
C1116 H1108 0.929 . S
C1116 C1117 1.377 . S
C1116 C1118 1.384 . S
C1117 C1116 1.377 . S
C1117 C1123 1.390 . S
C1118 H1109 0.930 . S
C1118 C1116 1.384 . S
C1118 C1119 1.372 . S
C1119 C1118 1.372 . S
C1119 C1120 1.400 . S
C1119 C1124 1.490 . S
C1120 H1110 0.930 . S
C1120 C1119 1.400 . S
C1120 C1123 1.386 . S
H1121 C1137 0.930 . S
H1122 C1138 0.931 . S
C1123 H1111 0.929 . S
C1123 C1117 1.390 . S
C1123 C1120 1.386 . S
C1124 C1119 1.490 . S
C1124 C1126 1.395 . S
C1124 C1127 1.403 . S
H1125 C1131 0.930 . S
C1126 H1112 0.930 . S
C1126 C1124 1.395 . S
C1126 C1129 1.403 . S
C1127 C1124 1.403 . S
C1127 C1128 1.524 . S
C1127 C1131 1.400 . S
C1128 H1113 0.960 . S
C1128 H1114 0.960 . S
C1128 H1115 0.960 . S
C1128 C1127 1.524 . S
C1129 C1126 1.403 . S
C1129 C1130 1.392 . S
C1129 C1133 1.495 . S
C1130 C1129 1.392 . S
C1130 C1131 1.385 . S
C1130 C1132 1.478 . S
C1131 H1125 0.930 . S
C1131 C1127 1.400 . S
C1131 C1130 1.385 . S
C1132 C1130 1.478 . S
C1132 C1134 1.381 . S
C1132 C1138 1.383 . S
C1133 C1129 1.495 . S
C1133 H1139 0.959 . S
C1133 H1140 0.961 . S
C1133 H1141 0.960 . S
C1134 C1132 1.381 . S
C1134 C1135 1.394 . S
C1134 H1142 0.930 . S
C1135 C1134 1.394 . S
C1135 C1136 1.383 . S
C1135 H1143 0.929 . S
C1136 C1135 1.383 . S
C1136 C1137 1.377 . S
C1137 H1121 0.930 . S
C1137 C1136 1.377 . S
C1137 C1138 1.379 . S
C1138 H1122 0.931 . S
C1138 C1132 1.383 . S
C1138 C1137 1.379 . S
H1139 C1133 0.959 . S
H1140 C1133 0.961 . S
H1141 C1133 0.960 . S
H1142 C1134 0.930 . S
H1143 C1135 0.929 . S
H1144 C1152 0.929 . S
H1145 C1154 0.930 . S
H1146 C1156 0.930 . S
H1147 C1159 0.929 . S
H1148 C1162 0.930 . S
H1149 C1164 0.960 . S
H1150 C1164 0.960 . S
H1151 C1164 0.960 . S
C1152 H1144 0.929 . S
C1152 C1153 1.377 . S
C1152 C1154 1.384 . S
C1153 C1152 1.377 . S
C1153 C1159 1.390 . S
C1154 H1145 0.930 . S
C1154 C1152 1.384 . S
C1154 C1155 1.372 . S
C1155 C1154 1.372 . S
C1155 C1156 1.400 . S
C1155 C1160 1.490 . S
C1156 H1146 0.930 . S
C1156 C1155 1.400 . S
C1156 C1159 1.386 . S
H1157 C1173 0.930 . S
H1158 C1174 0.931 . S
C1159 H1147 0.929 . S
C1159 C1153 1.390 . S
C1159 C1156 1.386 . S
C1160 C1155 1.490 . S
C1160 C1162 1.395 . S
C1160 C1163 1.403 . S
H1161 C1167 0.930 . S
C1162 H1148 0.930 . S
C1162 C1160 1.395 . S
C1162 C1165 1.403 . S
C1163 C1160 1.403 . S
C1163 C1164 1.524 . S
C1163 C1167 1.400 . S
C1164 H1149 0.960 . S
C1164 H1150 0.960 . S
C1164 H1151 0.960 . S
C1164 C1163 1.524 . S
C1165 C1162 1.403 . S
C1165 C1166 1.392 . S
C1165 C1169 1.495 . S
C1166 C1165 1.392 . S
C1166 C1167 1.385 . S
C1166 C1168 1.478 . S
C1167 H1161 0.930 . S
C1167 C1163 1.400 . S
C1167 C1166 1.385 . S
C1168 C1166 1.478 . S
C1168 C1170 1.381 . S
C1168 C1174 1.383 . S
C1169 C1165 1.495 . S
C1169 H1175 0.959 . S
C1169 H1176 0.961 . S
C1169 H1177 0.960 . S
C1170 C1168 1.381 . S
C1170 C1171 1.394 . S
C1170 H1178 0.930 . S
C1171 C1170 1.394 . S
C1171 C1172 1.383 . S
C1171 H1179 0.929 . S
C1172 C1171 1.383 . S
C1172 C1173 1.377 . S
C1173 H1157 0.930 . S
C1173 C1172 1.377 . S
C1173 C1174 1.379 . S
C1174 H1158 0.931 . S
C1174 C1168 1.383 . S
C1174 C1173 1.379 . S
H1175 C1169 0.959 . S
H1176 C1169 0.961 . S
H1177 C1169 0.960 . S
H1178 C1170 0.930 . S
H1179 C1171 0.929 . S
H1180 C1188 0.929 . S
H1181 C1190 0.930 . S
H1182 C1192 0.930 . S
H1183 C1195 0.929 . S
H1184 C1198 0.930 . S
H1185 C1200 0.960 . S
H1186 C1200 0.960 . S
H1187 C1200 0.960 . S
C1188 H1180 0.929 . S
C1188 C1189 1.377 . S
C1188 C1190 1.384 . S
C1189 C1188 1.377 . S
C1189 C1195 1.390 . S
C1190 H1181 0.930 . S
C1190 C1188 1.384 . S
C1190 C1191 1.372 . S
C1191 C1190 1.372 . S
C1191 C1192 1.400 . S
C1191 C1196 1.490 . S
C1192 H1182 0.930 . S
C1192 C1191 1.400 . S
C1192 C1195 1.386 . S
H1193 C1209 0.930 . S
H1194 C1210 0.931 . S
C1195 H1183 0.929 . S
C1195 C1189 1.390 . S
C1195 C1192 1.386 . S
C1196 C1191 1.490 . S
C1196 C1198 1.395 . S
C1196 C1199 1.403 . S
H1197 C1203 0.930 . S
C1198 H1184 0.930 . S
C1198 C1196 1.395 . S
C1198 C1201 1.403 . S
C1199 C1196 1.403 . S
C1199 C1200 1.524 . S
C1199 C1203 1.400 . S
C1200 H1185 0.960 . S
C1200 H1186 0.960 . S
C1200 H1187 0.960 . S
C1200 C1199 1.524 . S
C1201 C1198 1.403 . S
C1201 C1202 1.392 . S
C1201 C1205 1.495 . S
C1202 C1201 1.392 . S
C1202 C1203 1.385 . S
C1202 C1204 1.478 . S
C1203 H1197 0.930 . S
C1203 C1199 1.400 . S
C1203 C1202 1.385 . S
C1204 C1202 1.478 . S
C1204 C1206 1.381 . S
C1204 C1210 1.383 . S
C1205 C1201 1.495 . S
C1205 H1211 0.959 . S
C1205 H1212 0.961 . S
C1205 H1213 0.960 . S
C1206 C1204 1.381 . S
C1206 C1207 1.394 . S
C1206 H1214 0.930 . S
C1207 C1206 1.394 . S
C1207 C1208 1.383 . S
C1207 H1215 0.929 . S
C1208 C1207 1.383 . S
C1208 C1209 1.377 . S
C1209 H1193 0.930 . S
C1209 C1208 1.377 . S
C1209 C1210 1.379 . S
C1210 H1194 0.931 . S
C1210 C1204 1.383 . S
C1210 C1209 1.379 . S
H1211 C1205 0.959 . S
H1212 C1205 0.961 . S
H1213 C1205 0.960 . S
H1214 C1206 0.930 . S
H1215 C1207 0.929 . S
H1216 C1224 0.929 . S
H1217 C1226 0.930 . S
H1218 C1228 0.930 . S
H1219 C1231 0.929 . S
H1220 C1234 0.930 . S
H1221 C1236 0.960 . S
H1222 C1236 0.960 . S
H1223 C1236 0.960 . S
C1224 H1216 0.929 . S
C1224 C1225 1.377 . S
C1224 C1226 1.384 . S
C1225 C1224 1.377 . S
C1225 C1231 1.390 . S
C1226 H1217 0.930 . S
C1226 C1224 1.384 . S
C1226 C1227 1.372 . S
C1227 C1226 1.372 . S
C1227 C1228 1.400 . S
C1227 C1232 1.490 . S
C1228 H1218 0.930 . S
C1228 C1227 1.400 . S
C1228 C1231 1.386 . S
H1229 C1245 0.930 . S
H1230 C1246 0.931 . S
C1231 H1219 0.929 . S
C1231 C1225 1.390 . S
C1231 C1228 1.386 . S
C1232 C1227 1.490 . S
C1232 C1234 1.395 . S
C1232 C1235 1.403 . S
H1233 C1239 0.930 . S
C1234 H1220 0.930 . S
C1234 C1232 1.395 . S
C1234 C1237 1.403 . S
C1235 C1232 1.403 . S
C1235 C1236 1.524 . S
C1235 C1239 1.400 . S
C1236 H1221 0.960 . S
C1236 H1222 0.960 . S
C1236 H1223 0.960 . S
C1236 C1235 1.524 . S
C1237 C1234 1.403 . S
C1237 C1238 1.392 . S
C1237 C1241 1.495 . S
C1238 C1237 1.392 . S
C1238 C1239 1.385 . S
C1238 C1240 1.478 . S
C1239 H1233 0.930 . S
C1239 C1235 1.400 . S
C1239 C1238 1.385 . S
C1240 C1238 1.478 . S
C1240 C1242 1.381 . S
C1240 C1246 1.383 . S
C1241 C1237 1.495 . S
C1241 H1247 0.958 . S
C1241 H1248 0.961 . S
C1241 H1249 0.960 1_556 S
C1242 C1240 1.381 . S
C1242 C1243 1.394 . S
C1242 H1250 0.930 1_556 S
C1243 C1242 1.394 . S
C1243 C1244 1.383 . S
C1243 H1251 0.929 1_556 S
C1244 C1243 1.383 . S
C1244 C1245 1.377 . S
C1245 H1229 0.930 . S
C1245 C1244 1.377 . S
C1245 C1246 1.379 . S
C1246 H1230 0.931 . S
C1246 C1240 1.383 . S
C1246 C1245 1.379 . S
H1247 C1241 0.958 . S
H1248 C1241 0.961 . S
H1249 C1241 0.960 1_554 S
H1250 C1242 0.930 1_554 S
H1251 C1243 0.929 1_554 S
H1252 C1260 0.929 . S
H1253 C1262 0.930 . S
H1254 C1264 0.930 . S
H1255 C1267 0.929 . S
H1256 C1270 0.930 . S
H1257 C1272 0.960 . S
H1258 C1272 0.960 . S
H1259 C1272 0.960 . S
C1260 H1252 0.929 . S
C1260 C1261 1.377 . S
C1260 C1262 1.384 . S
C1261 C1260 1.377 . S
C1261 C1267 1.390 . S
C1262 H1253 0.930 . S
C1262 C1260 1.384 . S
C1262 C1263 1.372 . S
C1263 C1262 1.372 . S
C1263 C1264 1.400 . S
C1263 C1268 1.490 . S
C1264 H1254 0.930 . S
C1264 C1263 1.400 . S
C1264 C1267 1.386 . S
H1265 C1281 0.930 . S
H1266 C1282 0.931 . S
C1267 H1255 0.929 . S
C1267 C1261 1.390 . S
C1267 C1264 1.386 . S
C1268 C1263 1.490 . S
C1268 C1270 1.395 . S
C1268 C1271 1.403 . S
H1269 C1275 0.930 . S
C1270 H1256 0.930 . S
C1270 C1268 1.395 . S
C1270 C1273 1.403 . S
C1271 C1268 1.403 . S
C1271 C1272 1.524 . S
C1271 C1275 1.400 . S
C1272 H1257 0.960 . S
C1272 H1258 0.960 . S
C1272 H1259 0.960 . S
C1272 C1271 1.524 . S
C1273 C1270 1.403 . S
C1273 C1274 1.392 . S
C1273 C1277 1.495 . S
C1274 C1273 1.392 . S
C1274 C1275 1.385 . S
C1274 C1276 1.478 . S
C1275 H1269 0.930 . S
C1275 C1271 1.400 . S
C1275 C1274 1.385 . S
C1276 C1274 1.478 . S
C1276 C1278 1.381 . S
C1276 C1282 1.383 . S
C1277 C1273 1.495 . S
C1277 H1283 0.959 . S
C1277 H1284 0.961 . S
C1277 H1285 0.960 . S
C1278 C1276 1.381 . S
C1278 C1279 1.394 . S
C1278 H1286 0.930 . S
C1279 C1278 1.394 . S
C1279 C1280 1.383 . S
C1279 H1287 0.929 . S
C1280 C1279 1.383 . S
C1280 C1281 1.377 . S
C1281 H1265 0.930 . S
C1281 C1280 1.377 . S
C1281 C1282 1.379 . S
C1282 H1266 0.931 . S
C1282 C1276 1.383 . S
C1282 C1281 1.379 . S
H1283 C1277 0.959 . S
H1284 C1277 0.961 . S
H1285 C1277 0.960 . S
H1286 C1278 0.930 . S
H1287 C1279 0.929 . S
H1288 C1296 0.929 . S
H1289 C1298 0.930 . S
H1290 C1300 0.930 . S
H1291 C1303 0.929 . S
H1292 C1306 0.930 . S
H1293 C1308 0.960 . S
H1294 C1308 0.960 . S
H1295 C1308 0.960 . S
C1296 H1288 0.929 . S
C1296 C1297 1.377 . S
C1296 C1298 1.384 . S
C1297 C1296 1.377 . S
C1297 C1303 1.390 . S
C1298 H1289 0.930 . S
C1298 C1296 1.384 . S
C1298 C1299 1.372 . S
C1299 C1298 1.372 . S
C1299 C1300 1.400 . S
C1299 C1304 1.490 . S
C1300 H1290 0.930 . S
C1300 C1299 1.400 . S
C1300 C1303 1.386 . S
H1301 C1317 0.930 . S
H1302 C1318 0.931 . S
C1303 H1291 0.929 . S
C1303 C1297 1.390 . S
C1303 C1300 1.386 . S
C1304 C1299 1.490 . S
C1304 C1306 1.395 . S
C1304 C1307 1.403 . S
H1305 C1311 0.930 . S
C1306 H1292 0.930 . S
C1306 C1304 1.395 . S
C1306 C1309 1.403 . S
C1307 C1304 1.403 . S
C1307 C1308 1.524 . S
C1307 C1311 1.400 . S
C1308 H1293 0.960 . S
C1308 H1294 0.960 . S
C1308 H1295 0.960 . S
C1308 C1307 1.524 . S
C1309 C1306 1.403 . S
C1309 C1310 1.392 . S
C1309 C1313 1.495 . S
C1310 C1309 1.392 . S
C1310 C1311 1.385 . S
C1310 C1312 1.478 . S
C1311 H1305 0.930 . S
C1311 C1307 1.400 . S
C1311 C1310 1.385 . S
C1312 C1310 1.478 . S
C1312 C1314 1.381 . S
C1312 C1318 1.383 . S
C1313 C1309 1.495 . S
C1313 H1319 0.959 . S
C1313 H1320 0.961 . S
C1313 H1321 0.960 . S
C1314 C1312 1.381 . S
C1314 C1315 1.394 . S
C1314 H1322 0.930 . S
C1315 C1314 1.394 . S
C1315 C1316 1.383 . S
C1315 H1323 0.929 1_554 S
C1316 C1315 1.383 . S
C1316 C1317 1.377 . S
C1317 H1301 0.930 . S
C1317 C1316 1.377 . S
C1317 C1318 1.379 . S
C1318 H1302 0.931 . S
C1318 C1312 1.383 . S
C1318 C1317 1.379 . S
H1319 C1313 0.959 . S
H1320 C1313 0.961 . S
H1321 C1313 0.960 . S
H1322 C1314 0.930 . S
H1323 C1315 0.929 1_556 S
H1324 C1332 0.929 . S
H1325 C1334 0.930 . S
H1326 C1336 0.930 . S
H1327 C1339 0.929 . S
H1328 C1342 0.930 . S
H1329 C1344 0.960 . S
H1330 C1344 0.960 . S
H1331 C1344 0.960 . S
C1332 H1324 0.929 . S
C1332 C1333 1.377 . S
C1332 C1334 1.384 . S
C1333 C1332 1.377 . S
C1333 C1339 1.390 . S
C1334 H1325 0.930 . S
C1334 C1332 1.384 . S
C1334 C1335 1.372 . S
C1335 C1334 1.372 . S
C1335 C1336 1.400 . S
C1335 C1340 1.490 . S
C1336 H1326 0.930 . S
C1336 C1335 1.400 . S
C1336 C1339 1.386 . S
H1337 C1353 0.930 . S
H1338 C1354 0.931 . S
C1339 H1327 0.929 . S
C1339 C1333 1.390 . S
C1339 C1336 1.386 . S
C1340 C1335 1.490 . S
C1340 C1342 1.395 . S
C1340 C1343 1.403 . S
H1341 C1347 0.930 . S
C1342 H1328 0.930 . S
C1342 C1340 1.395 . S
C1342 C1345 1.403 . S
C1343 C1340 1.403 . S
C1343 C1344 1.524 . S
C1343 C1347 1.400 . S
C1344 H1329 0.960 . S
C1344 H1330 0.960 . S
C1344 H1331 0.960 . S
C1344 C1343 1.524 . S
C1345 C1342 1.403 . S
C1345 C1346 1.392 . S
C1345 C1349 1.495 . S
C1346 C1345 1.392 . S
C1346 C1347 1.385 . S
C1346 C1348 1.478 . S
C1347 H1341 0.930 . S
C1347 C1343 1.400 . S
C1347 C1346 1.385 . S
C1348 C1346 1.478 . S
C1348 C1350 1.381 . S
C1348 C1354 1.383 . S
C1349 C1345 1.495 . S
C1349 H1355 0.959 . S
C1349 H1356 0.961 . S
C1349 H1357 0.960 . S
C1350 C1348 1.381 . S
C1350 C1351 1.394 . S
C1350 H1358 0.930 . S
C1351 C1350 1.394 . S
C1351 C1352 1.383 . S
C1351 H1359 0.929 . S
C1352 C1351 1.383 . S
C1352 C1353 1.377 . S
C1353 H1337 0.930 . S
C1353 C1352 1.377 . S
C1353 C1354 1.379 . S
C1354 H1338 0.931 . S
C1354 C1348 1.383 . S
C1354 C1353 1.379 . S
H1355 C1349 0.959 . S
H1356 C1349 0.961 . S
H1357 C1349 0.960 . S
H1358 C1350 0.930 . S
H1359 C1351 0.929 . S
H1360 C1368 0.929 . S
H1361 C1370 0.930 . S
H1362 C1372 0.930 . S
H1363 C1375 0.929 . S
H1364 C1378 0.930 . S
H1365 C1380 0.960 . S
H1366 C1380 0.960 . S
H1367 C1380 0.960 . S
C1368 H1360 0.929 . S
C1368 C1369 1.377 . S
C1368 C1370 1.384 . S
C1369 C1368 1.377 . S
C1369 C1375 1.390 . S
C1370 H1361 0.930 . S
C1370 C1368 1.384 . S
C1370 C1371 1.372 . S
C1371 C1370 1.372 . S
C1371 C1372 1.400 . S
C1371 C1376 1.490 . S
C1372 H1362 0.930 . S
C1372 C1371 1.400 . S
C1372 C1375 1.386 . S
H1373 C1389 0.899 1_554 S
H1374 C1390 0.931 1_554 S
C1375 H1363 0.929 . S
C1375 C1369 1.390 . S
C1375 C1372 1.386 . S
C1376 C1371 1.490 . S
C1376 C1378 1.395 . S
C1376 C1379 1.403 . S
H1377 C1383 0.930 . S
C1378 H1364 0.930 . S
C1378 C1376 1.395 . S
C1378 C1381 1.403 . S
C1379 C1376 1.403 . S
C1379 C1380 1.524 . S
C1379 C1383 1.400 . S
C1380 H1365 0.960 . S
C1380 H1366 0.960 . S
C1380 H1367 0.960 . S
C1380 C1379 1.524 . S
C1381 C1378 1.403 . S
C1381 C1382 1.392 . S
C1381 C1385 1.495 . S
C1382 C1381 1.392 . S
C1382 C1383 1.385 . S
C1382 C1384 1.478 . S
C1383 H1377 0.930 . S
C1383 C1379 1.400 . S
C1383 C1382 1.385 . S
C1384 C1382 1.478 . S
C1384 C1386 1.381 . S
C1384 C1390 1.383 . S
C1385 C1381 1.495 . S
C1385 H1391 0.959 . S
C1385 H1392 0.961 . S
C1385 H1393 0.960 . S
C1386 C1384 1.381 . S
C1386 C1387 1.394 . S
C1386 H1394 0.930 . S
C1387 C1386 1.394 . S
C1387 C1388 1.383 . S
C1387 H1395 0.929 . S
C1388 C1387 1.383 . S
C1388 C1389 1.400 . S
C1389 H1373 0.899 1_556 S
C1389 C1388 1.400 . S
C1389 C1390 1.387 . S
C1390 H1374 0.931 1_556 S
C1390 C1384 1.383 . S
C1390 C1389 1.387 . S
H1391 C1385 0.959 . S
H1392 C1385 0.961 . S
H1393 C1385 0.960 . S
H1394 C1386 0.930 . S
H1395 C1387 0.929 . S
H1396 C1404 0.929 . S
H1397 C1406 0.930 . S
H1398 C1408 0.930 . S
H1399 C1411 0.929 . S
H1400 C1414 0.930 . S
H1401 C1416 0.960 . S
H1402 C1416 0.960 . S
H1403 C1416 0.960 . S
C1404 H1396 0.929 . S
C1404 C1405 1.377 . S
C1404 C1406 1.384 . S
C1405 C1404 1.377 . S
C1405 C1411 1.390 . S
C1406 H1397 0.930 . S
C1406 C1404 1.384 . S
C1406 C1407 1.372 . S
C1407 C1406 1.372 . S
C1407 C1408 1.400 . S
C1407 C1412 1.490 . S
C1408 H1398 0.930 . S
C1408 C1407 1.400 . S
C1408 C1411 1.386 . S
H1409 C1425 0.930 . S
H1410 C1426 0.931 . S
C1411 H1399 0.929 . S
C1411 C1405 1.390 . S
C1411 C1408 1.386 . S
C1412 C1407 1.490 . S
C1412 C1414 1.395 . S
C1412 C1415 1.403 . S
H1413 C1419 0.930 . S
C1414 H1400 0.930 . S
C1414 C1412 1.395 . S
C1414 C1417 1.403 . S
C1415 C1412 1.403 . S
C1415 C1416 1.524 . S
C1415 C1419 1.400 . S
C1416 H1401 0.960 . S
C1416 H1402 0.960 . S
C1416 H1403 0.960 . S
C1416 C1415 1.524 . S
C1417 C1414 1.403 . S
C1417 C1418 1.392 . S
C1417 C1421 1.495 . S
C1418 C1417 1.392 . S
C1418 C1419 1.385 . S
C1418 C1420 1.478 . S
C1419 H1413 0.930 . S
C1419 C1415 1.400 . S
C1419 C1418 1.385 . S
C1420 C1418 1.478 . S
C1420 C1422 1.381 . S
C1420 C1426 1.383 . S
C1421 C1417 1.495 . S
C1421 H1427 0.959 . S
C1421 H1428 0.961 . S
C1421 H1429 0.960 . S
C1422 C1420 1.381 . S
C1422 C1423 1.394 . S
C1422 H1430 0.930 . S
C1423 C1422 1.394 . S
C1423 C1424 1.383 . S
C1423 H1431 0.929 . S
C1424 C1423 1.383 . S
C1424 C1425 1.377 . S
C1425 H1409 0.930 . S
C1425 C1424 1.377 . S
C1425 C1426 1.379 . S
C1426 H1410 0.931 . S
C1426 C1420 1.383 . S
C1426 C1425 1.379 . S
H1427 C1421 0.959 . S
H1428 C1421 0.961 . S
H1429 C1421 0.960 . S
H1430 C1422 0.930 . S
H1431 C1423 0.929 . S
H1432 C1440 0.929 . S
H1433 C1442 0.930 . S
H1434 C1444 0.930 . S
H1435 C1447 0.929 . S
H1436 C1450 0.930 . S
H1437 C1452 0.960 . S
H1438 C1452 0.960 . S
H1439 C1452 0.960 . S
C1440 H1432 0.929 . S
C1440 C1441 1.377 . S
C1440 C1442 1.384 . S
C1441 C1440 1.377 . S
C1441 C1447 1.390 . S
C1442 H1433 0.930 . S
C1442 C1440 1.384 . S
C1442 C1443 1.372 . S
C1443 C1442 1.372 . S
C1443 C1444 1.400 . S
C1443 C1448 1.490 . S
C1444 H1434 0.930 . S
C1444 C1443 1.400 . S
C1444 C1447 1.386 . S
H1445 C1461 0.930 . S
H1446 C1462 0.931 . S
C1447 H1435 0.929 . S
C1447 C1441 1.390 . S
C1447 C1444 1.386 . S
C1448 C1443 1.490 . S
C1448 C1450 1.395 . S
C1448 C1451 1.403 . S
H1449 C1455 0.930 . S
C1450 H1436 0.930 . S
C1450 C1448 1.395 . S
C1450 C1453 1.403 . S
C1451 C1448 1.403 . S
C1451 C1452 1.524 . S
C1451 C1455 1.400 . S
C1452 H1437 0.960 . S
C1452 H1438 0.960 . S
C1452 H1439 0.960 . S
C1452 C1451 1.524 . S
C1453 C1450 1.403 . S
C1453 C1454 1.392 . S
C1453 C1457 1.495 . S
C1454 C1453 1.392 . S
C1454 C1455 1.385 . S
C1454 C1456 1.478 . S
C1455 H1449 0.930 . S
C1455 C1451 1.400 . S
C1455 C1454 1.385 . S
C1456 C1454 1.478 . S
C1456 C1458 1.381 . S
C1456 C1462 1.383 . S
C1457 C1453 1.495 . S
C1457 H1463 0.959 . S
C1457 H1464 0.961 . S
C1457 H1465 0.960 . S
C1458 C1456 1.381 . S
C1458 C1459 1.394 . S
C1458 H1466 0.930 . S
C1459 C1458 1.394 . S
C1459 C1460 1.383 . S
C1459 H1467 0.929 1_455 S
C1460 C1459 1.383 . S
C1460 C1461 1.377 . S
C1461 H1445 0.930 . S
C1461 C1460 1.377 . S
C1461 C1462 1.379 . S
C1462 H1446 0.931 . S
C1462 C1456 1.383 . S
C1462 C1461 1.379 . S
H1463 C1457 0.959 . S
H1464 C1457 0.961 . S
H1465 C1457 0.960 . S
H1466 C1458 0.930 . S
H1467 C1459 0.929 1_655 S
H1468 C1476 0.929 . S
H1469 C1478 0.930 . S
H1470 C1480 0.930 . S
H1471 C1483 0.929 . S
H1472 C1486 0.930 . S
H1473 C1488 0.960 . S
H1474 C1488 0.960 . S
H1475 C1488 0.960 . S
C1476 H1468 0.929 . S
C1476 C1477 1.377 . S
C1476 C1478 1.384 . S
C1477 C1476 1.377 . S
C1477 C1483 1.390 . S
C1478 H1469 0.930 . S
C1478 C1476 1.384 . S
C1478 C1479 1.372 . S
C1479 C1478 1.372 . S
C1479 C1480 1.400 . S
C1479 C1484 1.490 . S
C1480 H1470 0.930 . S
C1480 C1479 1.400 . S
C1480 C1483 1.386 . S
H1481 C1497 0.930 . S
H1482 C1498 0.931 . S
C1483 H1471 0.929 . S
C1483 C1477 1.390 . S
C1483 C1480 1.386 . S
C1484 C1479 1.490 . S
C1484 C1486 1.395 . S
C1484 C1487 1.403 . S
H1485 C1491 0.930 . S
C1486 H1472 0.930 . S
C1486 C1484 1.395 . S
C1486 C1489 1.403 . S
C1487 C1484 1.403 . S
C1487 C1488 1.524 . S
C1487 C1491 1.400 . S
C1488 H1473 0.960 . S
C1488 H1474 0.960 . S
C1488 H1475 0.960 . S
C1488 C1487 1.524 . S
C1489 C1486 1.403 . S
C1489 C1490 1.392 . S
C1489 C1493 1.495 . S
C1490 C1489 1.392 . S
C1490 C1491 1.385 . S
C1490 C1492 1.478 . S
C1491 H1485 0.930 . S
C1491 C1487 1.400 . S
C1491 C1490 1.385 . S
C1492 C1490 1.478 . S
C1492 C1494 1.381 . S
C1492 C1498 1.383 . S
C1493 C1489 1.495 . S
C1493 H1499 0.959 . S
C1493 H1500 0.961 . S
C1493 H1501 0.960 . S
C1494 C1492 1.381 . S
C1494 C1495 1.394 . S
C1494 H1502 0.930 . S
C1495 C1494 1.394 . S
C1495 C1496 1.383 . S
C1495 H1503 0.929 . S
C1496 C1495 1.383 . S
C1496 C1497 1.377 . S
C1497 H1481 0.930 . S
C1497 C1496 1.377 . S
C1497 C1498 1.379 . S
C1498 H1482 0.931 . S
C1498 C1492 1.383 . S
C1498 C1497 1.379 . S
H1499 C1493 0.959 . S
H1500 C1493 0.961 . S
H1501 C1493 0.960 . S
H1502 C1494 0.930 . S
H1503 C1495 0.929 . S
C649 C1 2.902 . S
C668 C499 2.913 . S
C685 C80 2.458 . S
C704 C530 2.471 . S
C740 C569 1.259 . S
C721 C140 1.308 . S
C757 C211 0.392 . S
C776 C606 0.452 . S
C812 C529 2.845 . S
C793 C31 2.884 . S
C848 C486 1.622 . S
C829 C61 1.581 . S
C884 C618 1.290 . S
C865 C151 1.320 . S
C920 C575 0.904 . S
C901 C200 0.890 . S
C937 C20 2.280 . S
C956 C619 2.280 . S
C992 C535 1.278 . S
C973 C121 1.241 . S
C1009 C181 0.570 . S
C1028 C498 0.672 . S
C1045 C91 2.599 . S
C1064 C570 2.611 . S
C1100 C490 2.911 . S
C1081 C260 2.920 . S
C1117 C320 2.460 . S
C1136 C539 2.463 . S
C1153 C361 1.336 . S
C1172 C578 1.284 . S
C1189 C451 0.375 . S
C1208 C615 0.450 . S
C1225 C271 2.916 . S
C1244 C538 2.834 . S
C1280 C495 1.610 . S
C1261 C301 1.581 . S
C1316 C609 1.313 . S
C1297 C380 1.342 . S
C1352 C566 0.943 . S
C1333 C440 0.909 . S
C1369 C241 2.236 . S
C1388 C610 2.270 . S
C1424 C526 1.279 . S
C1405 C391 1.248 . S
C1460 C489 0.641 . S
C1441 C421 0.583 . S
C1477 C331 2.600 . S
C1496 C579 2.599 . S
