# Generated by pormake.
# Topology rtl, (3,6)-cn, num edge types: 1
# Building blocks:
#     Node 0, Type 0, BuildingBlock: BETDIP_clean_linker_0, # of connection points: 3
#     Node 1, Type 0, BuildingBlock: BETDIP_clean_linker_0, # of connection points: 3
#     Node 2, Type 0, BuildingBlock: BETDIP_clean_linker_0, # of connection points: 3
#     Node 3, Type 0, BuildingBlock: BETDIP_clean_linker_0, # of connection points: 3
#     Node 4, Type 1, BuildingBlock: KUMBOL_clean_sbu_1, # of connection points: 6
#     Node 5, Type 1, BuildingBlock: KUMBOL_clean_sbu_1, # of connection points: 6
#     Edge 6, Type (0, 1), BuildingBlock: CIFDUS_clean_linker_0, # of connection points: 2
#     Edge 7, Type (0, 1), BuildingBlock: CIFDUS_clean_linker_0, # of connection points: 2
#     Edge 8, Type (0, 1), BuildingBlock: CIFDUS_clean_linker_0, # of connection points: 2
#     Edge 9, Type (0, 1), BuildingBlock: CIFDUS_clean_linker_0, # of connection points: 2
#     Edge 10, Type (0, 1), BuildingBlock: CIFDUS_clean_linker_0, # of connection points: 2
#     Edge 11, Type (0, 1), BuildingBlock: CIFDUS_clean_linker_0, # of connection points: 2
#     Edge 12, Type (0, 1), BuildingBlock: CIFDUS_clean_linker_0, # of connection points: 2
#     Edge 13, Type (0, 1), BuildingBlock: CIFDUS_clean_linker_0, # of connection points: 2
#     Edge 14, Type (0, 1), BuildingBlock: CIFDUS_clean_linker_0, # of connection points: 2
#     Edge 15, Type (0, 1), BuildingBlock: CIFDUS_clean_linker_0, # of connection points: 2
#     Edge 16, Type (0, 1), BuildingBlock: CIFDUS_clean_linker_0, # of connection points: 2
#     Edge 17, Type (0, 1), BuildingBlock: CIFDUS_clean_linker_0, # of connection points: 2
# Relax obj value: 0.053
# Max RMSD: 0.228
# Mean RMSD: 0.165
data_MOF--net-rtl--node1-KUMBOL_clean_sbu_1--node2-BETDIP_clean_linker_0--edge1-CIFDUS_clean_linker_0
_symmetry_space_group_name_H-M    P1
_symmetry_Int_Tables_number       1
_symmetry_cell_setting            triclinic
loop_
_symmetry_equiv_pos_as_xyz
'x, y, z'
_cell_length_a     31.241413
_cell_length_b     31.448114
_cell_length_c     24.145974
_cell_angle_alpha  76.761262
_cell_angle_beta   100.23698
_cell_angle_gamma 91.430035
loop_
_atom_site_label
_atom_site_type_symbol
_atom_site_fract_x
_atom_site_fract_y
_atom_site_fract_z
_atom_type_partial_charge
H0 H 0.21761 0.82177 0.9321 0.0
H1 H 0.24933 0.80728 0.11567 0.0
H2 H 0.14524 0.89466 0.01644 0.0
H3 H 0.31401 0.78635 0.1059 0.0
C4 C 0.30863 0.77045 0.06989 0.0
C5 C 0.21178 0.83051 0.97108 0.0
C6 C 0.17797 0.86 0.96807 0.0
C7 C 0.23873 0.81264 0.02359 0.0
C8 C 0.23062 0.8232 0.07432 0.0
C9 C 0.19717 0.85298 0.07254 0.0
C10 C 0.17109 0.87162 0.01881 0.0
N11 N 0.27277 0.78324 0.02393 0.0
H12 H 0.70821 0.72574 0.74032 0.0
H13 H 0.7018 0.7336 0.55831 0.0
H14 H 0.61292 0.65271 0.65053 0.0
H15 H 0.77226 0.75289 0.57814 0.0
C16 C 0.77315 0.77243 0.61001 0.0
C17 C 0.69341 0.71622 0.70095 0.0
C18 C 0.65815 0.68753 0.70149 0.0
C19 C 0.70991 0.73272 0.64988 0.0
C20 C 0.69044 0.72046 0.59851 0.0
C21 C 0.65487 0.69215 0.59849 0.0
C22 C 0.63924 0.67586 0.65007 0.0
N23 N 0.74507 0.76247 0.65152 0.0
H24 H 0.80357 0.2412 1.00219 0.0
H25 H 0.82594 0.21193 0.18865 0.0
H26 H 0.90516 0.15075 0.0999 0.0
H27 H 0.76208 0.29561 0.00781 0.0
C28 C 0.75386 0.29071 0.05059 0.0
C29 C 0.82144 0.22433 0.04365 0.0
C30 C 0.8551 0.19492 0.04517 0.0
C31 C 0.81074 0.23052 0.09578 0.0
C32 C 0.834 0.20718 0.1486 0.0
C33 C 0.86836 0.17893 0.15023 0.0
C34 C 0.87862 0.17279 0.09855 0.0
N35 N 0.77693 0.25935 0.09777 0.0
H36 H 0.30678 0.31449 0.3407 0.0
H37 H 0.30327 0.30801 0.51958 0.0
H38 H 0.39341 0.39271 0.43495 0.0
H39 H 0.28177 0.24082 0.52061 0.0
C40 C 0.25985 0.24372 0.4796 0.0
C41 C 0.3192 0.32448 0.38055 0.0
C42 C 0.35219 0.3559 0.38178 0.0
C43 C 0.30263 0.30538 0.43082 0.0
C44 C 0.318 0.31969 0.48174 0.0
C45 C 0.35099 0.35071 0.48399 0.0
C46 C 0.36819 0.36846 0.43384 0.0
N47 N 0.26973 0.27303 0.42905 0.0
C48 C 0.93534 0.13369 0.4959 0.0
C49 C 0.86157 0.11581 0.45743 0.0
C50 C 0.90153 0.10423 0.49514 0.0
C51 C 0.85687 0.15663 0.41815 0.0
C52 C 0.92979 0.17565 0.45871 0.0
C53 C 0.89096 0.18643 0.41865 0.0
N54 N 0.97227 0.12251 0.53581 0.0
C55 C 1.002 0.15376 0.54574 0.0
C56 C 0.96262 0.2062 0.46462 0.0
C57 C 0.99838 0.19552 0.50925 0.0
Gd58 Gd 0.05568 0.97922 0.52763 0.0
Gd59 Gd 0.97597 0.04965 0.59059 0.0
N60 N 0.90734 0.06453 0.53251 0.0
C61 C 0.82742 0.08611 0.46079 0.0
C62 C 0.8737 0.03625 0.53808 0.0
C63 C 0.83334 0.04641 0.50186 0.0
H64 H 0.8784 1.00561 0.56984 0.0
H65 H 0.80692 0.0236 0.50547 0.0
H66 H 0.13977 0.04667 0.50484 0.0
H67 H 0.02843 0.14703 0.58215 0.0
H68 H 0.21398 0.05719 0.5544 0.0
H69 H 0.79621 0.0938 0.43255 0.0
H70 H 0.82669 0.16583 0.38808 0.0
H71 H 0.02945 0.87677 0.58137 0.0
H72 H 0.95963 0.23876 0.43689 0.0
H73 H 0.0228 0.21967 0.51625 0.0
H74 H 0.24252 0.92837 0.70768 0.0
H75 H 0.88642 0.21828 0.38922 0.0
H76 H 0.13454 0.81698 0.71396 0.0
H77 H 0.06122 0.81259 0.65655 0.0
N78 N 0.08395 0.91679 0.59717 0.0
C79 C 0.125 0.9192 0.62621 0.0
C80 C 0.06141 0.8788 0.60639 0.0
C81 C 0.12082 0.84506 0.68095 0.0
C82 C 0.07938 0.84247 0.6487 0.0
C83 C 0.14432 0.88366 0.66964 0.0
H84 H 0.20165 0.86096 0.73397 0.0
N85 N 0.12871 0.98973 0.56724 0.0
C86 C 0.14775 0.95723 0.61154 0.0
C87 C 0.21424 0.99794 0.62033 0.0
C88 C 0.19084 0.96064 0.63981 0.0
C89 C 0.15288 0.02392 0.54458 0.0
C90 C 0.19545 0.02929 0.57169 0.0
O91 O 0.95421 0.03008 0.50575 0.0
O92 O 0.0167 0.03652 0.46853 0.0
O93 O 0.09679 0.97238 0.46671 0.0
O94 O 0.03644 0.93771 0.4665 0.0
O95 O 0.96039 0.97703 0.60256 0.0
O96 O 0.98859 0.95113 0.53249 0.0
O97 O 0.0477 0.96254 0.62206 0.0
O98 O 0.04274 0.0296 0.64123 0.0
O99 O 0.95792 0.02473 0.67523 0.0
O100 O 0.94682 0.0925 0.63249 0.0
O101 O 0.06225 0.05311 0.5075 0.0
O102 O 0.0453 0.07285 0.5874 0.0
C103 C 0.97438 0.04068 0.46161 0.0
C104 C 0.96218 0.94813 0.57053 0.0
C105 C 0.09364 0.90785 0.43323 0.0
C106 C 0.12231 0.87457 0.36506 0.0
C107 C 0.13904 0.84241 0.46827 0.0
C108 C 0.11472 0.87528 0.47915 0.0
C109 C 0.14316 0.84218 0.41166 0.0
C110 C 0.09709 0.90709 0.37615 0.0
C111 C 0.07157 0.94514 0.44401 0.0
C112 C 0.20964 0.92613 0.68501 0.0
C113 C 0.18644 0.88768 0.69984 0.0
H114 H 0.2474 1.00188 0.64087 0.0
C115 C 0.05585 0.98875 0.65773 0.0
C116 C 0.06697 0.07881 0.54412 0.0
C117 C 0.96629 0.07712 0.73259 0.0
C118 C 0.95798 0.10515 0.81625 0.0
C119 C 0.02907 0.10366 0.78907 0.0
C120 C 0.01093 0.08582 0.74249 0.0
C121 C 1.00272 0.11367 0.82552 0.0
C122 C 0.93992 0.08635 0.76997 0.0
C123 C 0.94657 0.06315 0.67988 0.0
H124 H 0.15536 0.81744 0.50391 0.0
H125 H 0.11319 0.87571 0.52333 0.0
H126 H 0.16265 0.81672 0.40421 0.0
H127 H 0.08159 0.93274 0.34061 0.0
H128 H 0.0635 0.11041 0.79635 0.0
H129 H 0.03147 0.0799 0.7133 0.0
H130 H 0.01725 0.12791 0.86114 0.0
H131 H 0.90528 0.08038 0.76194 0.0
C132 C 0.64739 0.56812 0.06559 0.0
C133 C 0.64031 0.64332 0.01026 0.0
C134 C 0.62187 0.60538 0.03985 0.0
C135 C 0.68472 0.64323 0.00683 0.0
C136 C 0.69198 0.56794 0.06229 0.0
C137 C 0.71046 0.60564 0.03269 0.0
N138 N 0.62853 0.53197 0.09341 0.0
C139 C 0.65263 0.49514 0.12072 0.0
C140 C 0.71667 0.5298 0.08879 0.0
C141 C 0.69693 0.49332 0.11835 0.0
Gd142 Gd 0.46056 0.48937 0.98778 0.0
Gd143 Gd 0.55401 0.53814 0.09362 0.0
N144 N 0.57856 0.60386 0.04174 0.0
C145 C 0.61341 0.68002 0.9844 0.0
C146 C 0.55253 0.64001 0.01858 0.0
C147 C 0.56941 0.67844 0.98897 0.0
H148 H 0.51876 0.6393 0.0227 0.0
H149 H 0.5485 0.70685 0.96982 0.0
H150 H 0.51375 0.3908 0.02471 0.0
H151 H 0.6378 0.46737 0.14512 0.0
H152 H 0.50412 0.31691 0.08093 0.0
H153 H 0.62631 0.70975 0.96112 0.0
H154 H 0.69942 0.672 0.984 0.0
H155 H 0.36855 0.54392 0.97843 0.0
H156 H 0.75102 0.52832 0.08712 0.0
H157 H 0.71586 0.4639 0.13966 0.0
H158 H 0.36271 0.32165 0.13038 0.0
H159 H 0.74464 0.60606 0.02954 0.0
H160 H 0.2811 0.45618 0.06369 0.0
H161 H 0.29724 0.52988 0.00952 0.0
N162 N 0.39249 0.47932 0.01576 0.0
C163 C 0.38416 0.43835 0.04465 0.0
C164 C 0.3619 0.51191 1.00271 0.0
C165 C 0.31241 0.46222 0.05023 0.0
C166 C 0.32145 0.50392 0.01986 0.0
C167 C 0.34387 0.42879 0.06298 0.0
H168 H 0.30591 0.37871 0.10894 0.0
N169 N 0.45526 0.41651 0.03893 0.0
C170 C 0.41655 0.40622 0.05704 0.0
C171 C 0.4414 0.3316 0.09775 0.0
C172 C 0.40891 0.36363 0.08767 0.0
C173 C 0.48556 0.38449 0.04494 0.0
C174 C 0.47959 0.34194 0.07551 0.0
O175 O 0.56117 0.55022 0.9995 0.0
O176 O 0.49202 0.55095 0.94565 0.0
O177 O 0.46393 0.4562 0.91888 0.0
O178 O 0.40932 0.49892 0.91206 0.0
O179 O 0.48547 0.56677 0.07557 0.0
O180 O 0.45078 0.56061 0.98447 0.0
O181 O 0.4527 0.48729 0.08045 0.0
O182 O 0.52204 0.47583 0.13159 0.0
O183 O 0.54166 0.58039 0.14843 0.0
O184 O 0.59499 0.53344 0.17783 0.0
O185 O 0.53064 0.46869 0.99615 0.0
O186 O 0.56085 0.4676 0.09053 0.0
C187 C 0.53347 0.5609 0.95052 0.0
C188 C 0.45612 0.5798 0.02831 0.0
C189 C 0.39666 0.43818 0.86889 0.0
C190 C 0.37556 0.39195 0.80017 0.0
C191 C 0.33722 0.38757 0.88052 0.0
C192 C 0.36363 0.41983 0.89895 0.0
C193 C 0.34318 0.37354 0.83163 0.0
C194 C 0.40227 0.42442 0.81909 0.0
C195 C 0.42607 0.47085 0.88954 0.0
C196 C 0.36897 0.35413 0.10652 0.0
C197 C 0.33654 0.38658 0.09412 0.0
H198 H 0.43679 0.29851 0.1211 0.0
C199 C 0.47991 0.47099 0.12844 0.0
C200 C 0.56153 0.45636 0.04153 0.0
C201 C 0.56233 0.55451 0.24866 0.0
C202 C 0.57303 0.57088 0.34407 0.0
C203 C 0.51709 0.52023 0.31766 0.0
C204 C 0.52841 0.52651 0.263 0.0
C205 C 0.53908 0.54241 0.35795 0.0
C206 C 0.58475 0.57639 0.2893 0.0
C207 C 0.57302 0.56346 0.19043 0.0
H208 H 0.3119 0.37353 0.90408 0.0
H209 H 0.35801 0.43044 0.93645 0.0
H210 H 0.32187 0.34883 0.81773 0.0
H211 H 0.42767 0.43853 0.7956 0.0
H212 H 0.49089 0.49851 0.32857 0.0
H213 H 0.51038 0.51019 0.23164 0.0
H214 H 0.52964 0.53722 0.40002 0.0
H215 H 0.61037 0.59875 0.2776 0.0
H216 H 0.22663 0.20328 0.57235 0.0
H217 H 0.20446 0.2237 0.38677 0.0
H218 H 0.14136 0.17564 0.39015 0.0
H219 H 0.09424 0.12536 0.44696 0.0
H220 H 0.11605 0.10757 0.63238 0.0
H221 H 0.17712 0.15751 0.62804 0.0
C222 C 0.20782 0.19732 0.53261 0.0
C223 C 0.22027 0.21669 0.47947 0.0
C224 C 0.17147 0.17023 0.53495 0.0
C225 C 0.19551 0.20913 0.42822 0.0
C226 C 0.15949 0.18161 0.4302 0.0
C227 C 0.11223 0.13279 0.48626 0.0
C228 C 0.10088 0.11261 0.53998 0.0
C229 C 0.1474 0.16167 0.48341 0.0
C230 C 0.12407 0.12277 0.59056 0.0
C231 C 0.15917 0.1511 0.58813 0.0
H232 H 0.31356 0.72905 0.98287 0.0
H233 H 0.37412 0.73504 0.15592 0.0
H234 H 0.42566 0.67709 0.15835 0.0
H235 H 0.45238 0.62389 0.11223 0.0
H236 H 0.39327 0.61925 0.93787 0.0
H237 H 0.34234 0.67752 0.93516 0.0
C238 C 0.33803 0.71768 0.02109 0.0
C239 C 0.33993 0.73604 0.06939 0.0
C240 C 0.36774 0.68455 0.02203 0.0
C241 C 0.37204 0.72123 0.11834 0.0
C242 C 0.40146 0.68814 0.11975 0.0
C243 C 0.42848 0.63559 0.07348 0.0
C244 C 0.4264 0.6166 0.02566 0.0
C245 C 0.39947 0.6694 0.07196 0.0
C246 C 0.39536 0.6327 0.97571 0.0
C247 C 0.3662 0.66616 0.97401 0.0
H248 H 0.83562 0.79077 0.54476 0.0
H249 H 0.78494 0.83172 0.6794 0.0
H250 H 0.83933 0.8891 0.67994 0.0
H251 H 0.90093 0.92835 0.64102 0.0
H252 H 0.95126 0.88619 0.50645 0.0
H253 H 0.89779 0.82871 0.50751 0.0
C254 C 0.83658 0.81224 0.57429 0.0
C255 C 0.80631 0.80699 0.61187 0.0
C256 C 0.868 0.84503 0.57448 0.0
C257 C 0.80791 0.83497 0.65002 0.0
C258 C 0.83902 0.86784 0.65032 0.0
C259 C 0.90032 0.90659 0.61197 0.0
C260 C 0.93024 0.91204 0.57356 0.0
C261 C 0.8692 0.87329 0.61259 0.0
C262 C 0.92882 0.88316 0.5365 0.0
C263 C 0.89811 0.85013 0.53693 0.0
H264 H 0.70574 0.35327 0.97025 0.0
H265 H 0.72513 0.29109 0.15182 0.0
H266 H 0.66821 0.33755 0.16556 0.0
H267 H 0.61145 0.39514 0.12537 0.0
H268 H 0.59234 0.45671 0.94357 0.0
H269 H 0.65018 0.41127 0.93055 0.0
C270 C 0.69747 0.34998 0.0128 0.0
C271 C 0.71954 0.31879 0.05975 0.0
C272 C 0.66462 0.3767 0.0204 0.0
C273 C 0.70861 0.3148 0.11477 0.0
C274 C 0.67603 0.3414 0.12273 0.0
C275 C 0.62036 0.39884 0.08313 0.0
C276 C 0.59778 0.42932 0.03559 0.0
C277 C 0.65369 0.3724 0.07582 0.0
C278 C 0.6091 0.43331 0.98084 0.0
C279 C 0.64225 0.40742 0.97333 0.0
H280 H 0.11923 0.86302 0.10623 0.0
H281 H 0.25815 0.86611 0.16291 0.0
H282 H 0.24714 0.87332 0.25766 0.0
H283 H 0.19845 0.87483 0.32655 0.0
H284 H 0.05966 0.87574 0.26999 0.0
H285 H 0.07011 0.87162 0.17296 0.0
C286 C 0.14708 0.86608 0.1389 0.0
C287 C 0.18951 0.86314 0.12751 0.0
C288 C 0.14054 0.8707 0.19354 0.0
C289 C 0.22515 0.86708 0.17072 0.0
C290 C 0.21892 0.87141 0.22498 0.0
C291 C 0.17055 0.87425 0.29282 0.0
C292 C 0.12839 0.87504 0.30535 0.0
C293 C 0.17685 0.87238 0.23725 0.0
C294 C 0.09242 0.87506 0.2612 0.0
C295 C 0.09842 0.87261 0.20586 0.0
H296 H 0.57395 0.67895 0.71673 0.0
H297 H 0.70567 0.65058 0.80738 0.0
H298 H 0.67856 0.60889 0.89247 0.0
H299 H 0.61773 0.57584 0.93768 0.0
H300 H 0.48577 0.60574 0.84831 0.0
H301 H 0.51282 0.65006 0.76494 0.0
C302 C 0.5967 0.66383 0.75528 0.0
C303 C 0.64177 0.6676 0.75562 0.0
C304 C 0.5809 0.63951 0.80366 0.0
C305 C 0.67087 0.64845 0.80614 0.0
C306 C 0.65538 0.62425 0.85457 0.0
C307 C 0.59475 0.59276 0.90059 0.0
C308 C 0.54971 0.58773 0.8997 0.0
C309 C 0.61049 0.61891 0.85335 0.0
C310 C 0.52058 0.60887 0.85027 0.0
C311 C 0.53602 0.63444 0.80266 0.0
H312 H 0.8398 0.12095 0.2365 0.0
H313 H 0.95476 0.18621 0.18728 0.0
H314 H 0.9984 0.14856 0.27941 0.0
H315 H 1.00337 0.09767 0.3743 0.0
H316 H 0.88934 0.02845 0.42052 0.0
H317 H 0.84564 0.06688 0.32932 0.0
C318 C 0.87439 0.12684 0.24631 0.0
C319 C 0.89423 0.15628 0.2059 0.0
C320 C 0.89929 0.10437 0.29859 0.0
C321 C 0.93907 0.16354 0.21818 0.0
C322 C 0.96391 0.14207 0.27065 0.0
C323 C 0.96906 0.0907 0.36403 0.0
C324 C 0.9493 0.06098 0.40435 0.0
C325 C 0.94437 0.11238 0.31114 0.0
C326 C 0.90494 0.05201 0.39054 0.0
C327 C 0.88 0.07382 0.33837 0.0
H328 H 0.36876 0.30042 0.59305 0.0
H329 H 0.36492 0.43452 0.49739 0.0
H330 H 0.37746 0.45922 0.5879 0.0
H331 H 0.38065 0.44277 0.69378 0.0
H332 H 0.38052 0.3085 0.78788 0.0
H333 H 0.37806 0.2838 0.69858 0.0
C334 C 0.37093 0.33507 0.59202 0.0
C335 C 0.36533 0.36558 0.53853 0.0
C336 C 0.37692 0.34901 0.64401 0.0
C337 C 0.36922 0.41032 0.53794 0.0
C338 C 0.37602 0.42448 0.5897 0.0
C339 C 0.38094 0.40813 0.69474 0.0
C340 C 0.3803 0.37748 0.74717 0.0
C341 C 0.37867 0.39416 0.64293 0.0
C342 C 0.3804 0.33268 0.74787 0.0
C343 C 0.37904 0.31855 0.69688 0.0
H344 H 0.6938 0.65883 0.52471 0.0
H345 H 0.56851 0.69308 0.55492 0.0
H346 H 0.53215 0.65964 0.4777 0.0
H347 H 0.53575 0.61634 0.4062 0.0
H348 H 0.66052 0.58118 0.37553 0.0
H349 H 0.69732 0.61953 0.44775 0.0
C350 C 0.65859 0.65968 0.51347 0.0
C351 C 0.63384 0.6781 0.54563 0.0
C352 C 0.63781 0.63979 0.46943 0.0
C353 C 0.5882 0.67871 0.53105 0.0
C354 C 0.5674 0.65952 0.48703 0.0
C355 C 0.57101 0.61702 0.41547 0.0
C356 C 0.5954 0.59555 0.38616 0.0
C357 C 0.59184 0.63907 0.4569 0.0
C358 C 0.64105 0.59748 0.3976 0.0
C359 C 0.66208 0.61932 0.43895 0.0
H360 H 0.85395 0.11831 0.01242 0.0
H361 H 0.88487 0.25422 0.96009 0.0
H362 H 0.91785 0.23884 0.88167 0.0
H363 H 0.9441 0.1851 0.83443 0.0
H364 H 0.91093 0.04963 0.88491 0.0
H365 H 0.87234 0.06619 0.95763 0.0
C366 C 0.8672 0.14458 0.983 0.0
C367 C 0.86726 0.18726 0.99176 0.0
C368 C 0.88604 0.1354 0.93832 0.0
C369 C 0.88432 0.22121 0.95365 0.0
C370 C 0.90345 0.21233 0.90925 0.0
C371 C 0.92791 0.15944 0.86102 0.0
C372 C 0.93053 0.11619 0.85509 0.0
C373 C 0.90549 0.16936 0.90217 0.0
C374 C 0.90921 0.08311 0.88904 0.0
C375 C 0.88733 0.09256 0.9306 0.0
H376 H 0.4362 0.35934 0.36524 0.0
H377 H 0.30592 0.40028 0.27935 0.0
H378 H 0.33391 0.44068 0.19406 0.0
H379 H 0.3959 0.46739 0.14639 0.0
H380 H 0.5255 0.42017 0.2279 0.0
H381 H 0.49766 0.38059 0.31331 0.0
C382 C 0.41403 0.3769 0.32759 0.0
C383 C 0.36911 0.37705 0.32851 0.0
C384 C 0.43031 0.39939 0.27838 0.0
C385 C 0.34058 0.39958 0.27943 0.0
C386 C 0.35661 0.42286 0.23087 0.0
C387 C 0.41793 0.44737 0.18194 0.0
C388 C 0.46267 0.44628 0.17997 0.0
C389 C 0.40145 0.42328 0.23006 0.0
C390 C 0.4909 0.42161 0.2279 0.0
C391 C 0.47498 0.39881 0.2768 0.0
H392 H 0.1628 0.94543 0.9131 0.0
H393 H 0.13165 0.81431 0.89581 0.0
H394 H 0.08965 0.84255 0.79908 0.0
H395 H 0.06311 0.90442 0.71873 0.0
H396 H 0.09877 0.0354 0.73238 0.0
H397 H 0.1367 0.00768 0.83143 0.0
C398 C 0.14633 0.92324 0.88824 0.0
C399 C 0.14999 0.87794 0.91144 0.0
C400 C 0.12312 0.9397 0.83203 0.0
C401 C 0.12917 0.84932 0.87866 0.0
C402 C 0.10525 0.86544 0.82341 0.0
C403 C 0.07969 0.92682 0.74307 0.0
C404 C 0.0784 0.97183 0.71796 0.0
C405 C 0.10239 0.91052 0.79942 0.0
C406 C 0.099 1.00059 0.75075 0.0
C407 C 0.12093 0.98473 0.80734 0.0
loop_
_geom_bond_atom_site_label_1
_geom_bond_atom_site_label_2
_geom_bond_distance
_geom_bond_site_symmetry_2
_ccdc_geom_bond_type
H0 C5 0.930 . S
H1 C8 0.930 . S
H2 C10 0.930 . S
H3 C4 1.016 . S
C4 H3 1.016 . S
C4 N11 1.286 . S
C5 H0 0.930 . S
C5 C6 1.397 . S
C5 C7 1.361 1_556 S
C6 C5 1.397 . S
C6 C10 1.390 1_556 S
C7 C5 1.361 1_554 S
C7 C8 1.393 . S
C7 N11 1.413 . S
C8 H1 0.930 . S
C8 C7 1.393 . S
C8 C9 1.399 . S
C9 C8 1.399 . S
C9 C10 1.381 . S
C10 H2 0.930 . S
C10 C6 1.390 1_554 S
C10 C9 1.381 . S
N11 C4 1.286 . S
N11 C7 1.413 . S
H12 C17 0.930 . S
H13 C20 0.930 . S
H14 C22 0.930 . S
H15 C16 1.016 . S
C16 H15 1.016 . S
C16 N23 1.286 . S
C17 H12 0.930 . S
C17 C18 1.397 . S
C17 C19 1.361 . S
C18 C17 1.397 . S
C18 C22 1.390 . S
C19 C17 1.361 . S
C19 C20 1.393 . S
C19 N23 1.413 . S
C20 H13 0.930 . S
C20 C19 1.393 . S
C20 C21 1.399 . S
C21 C20 1.399 . S
C21 C22 1.381 . S
C22 H14 0.930 . S
C22 C18 1.390 . S
C22 C21 1.381 . S
N23 C16 1.286 . S
N23 C19 1.413 . S
H24 C29 0.930 1_556 S
H25 C32 0.930 . S
H26 C34 0.930 . S
H27 C28 1.016 . S
C28 H27 1.016 . S
C28 N35 1.286 . S
C29 H24 0.930 1_554 S
C29 C30 1.397 . S
C29 C31 1.361 . S
C30 C29 1.397 . S
C30 C34 1.390 . S
C31 C29 1.361 . S
C31 C32 1.393 . S
C31 N35 1.413 . S
C32 H25 0.930 . S
C32 C31 1.393 . S
C32 C33 1.399 . S
C33 C32 1.399 . S
C33 C34 1.381 . S
C34 H26 0.930 . S
C34 C30 1.390 . S
C34 C33 1.381 . S
N35 C28 1.286 . S
N35 C31 1.413 . S
H36 C41 0.930 . S
H37 C44 0.930 . S
H38 C46 0.930 . S
H39 C40 1.016 . S
C40 H39 1.016 . S
C40 N47 1.286 . S
C41 H36 0.930 . S
C41 C42 1.397 . S
C41 C43 1.361 . S
C42 C41 1.397 . S
C42 C46 1.390 . S
C43 C41 1.361 . S
C43 C44 1.393 . S
C43 N47 1.413 . S
C44 H37 0.930 . S
C44 C43 1.393 . S
C44 C45 1.399 . S
C45 C44 1.399 . S
C45 C46 1.381 . S
C46 H38 0.930 . S
C46 C42 1.390 . S
C46 C45 1.381 . S
N47 C40 1.286 . S
N47 C43 1.413 . S
C48 C50 1.422 . S
C48 C52 1.415 . S
C48 N54 1.369 . S
C49 C50 1.421 . S
C49 C51 1.417 . S
C49 C61 1.422 . S
C50 C48 1.422 . S
C50 C49 1.421 . S
C50 N60 1.359 . S
C51 C49 1.417 . S
C51 C53 1.329 . S
C51 H70 0.930 . S
C52 C48 1.415 . S
C52 C53 1.437 . S
C52 C56 1.413 . S
C53 C51 1.329 . S
C53 C52 1.437 . S
C53 H75 0.929 . S
N54 C48 1.369 . S
N54 C55 1.338 1_655 S
N54 Gd59 2.622 . S
C55 N54 1.338 1_455 S
C55 C57 1.378 . S
C55 H67 0.929 . S
C56 C52 1.413 . S
C56 C57 1.348 1_655 S
C56 H72 0.931 . S
C57 C55 1.378 . S
C57 C56 1.348 1_455 S
C57 H73 0.930 . S
Gd58 N78 2.622 . S
Gd58 N85 2.570 . S
Gd58 O92 2.353 1_465 S
Gd58 O93 2.468 . S
Gd58 O94 2.427 . S
Gd58 O96 2.388 1_455 S
Gd58 O97 2.386 . S
Gd58 O101 2.307 1_565 S
Gd58 C111 2.805 . S
Gd59 N54 2.622 . S
Gd59 N60 2.570 . S
Gd59 O91 2.386 . S
Gd59 O95 2.307 1_545 S
Gd59 O98 2.353 1_655 S
Gd59 O99 2.468 . S
Gd59 O100 2.427 . S
Gd59 O102 2.388 1_655 S
Gd59 C123 2.805 . S
N60 C50 1.359 . S
N60 Gd59 2.570 . S
N60 C62 1.343 . S
C61 C49 1.422 . S
C61 C63 1.321 . S
C61 H69 0.931 . S
C62 N60 1.343 . S
C62 C63 1.390 . S
C62 H64 0.931 . S
C63 C61 1.321 . S
C63 C62 1.390 . S
C63 H65 0.930 . S
H64 C62 0.931 . S
H65 C63 0.930 . S
H66 C89 0.931 . S
H67 C55 0.929 . S
H68 C90 0.930 . S
H69 C61 0.931 . S
H70 C51 0.930 . S
H71 C80 0.929 1_655 S
H72 C56 0.931 . S
H73 C57 0.930 . S
H74 C112 0.930 . S
H75 C53 0.929 . S
H76 C81 0.931 . S
H77 C82 0.930 1_655 S
N78 Gd58 2.622 . S
N78 C79 1.369 . S
N78 C80 1.338 . S
C79 N78 1.369 . S
C79 C83 1.415 . S
C79 C86 1.422 . S
C80 H71 0.929 1_455 S
C80 N78 1.338 . S
C80 C82 1.378 . S
C81 H76 0.931 . S
C81 C82 1.348 . S
C81 C83 1.413 . S
C82 H77 0.930 1_455 S
C82 C80 1.378 . S
C82 C81 1.348 . S
C83 C79 1.415 . S
C83 C81 1.413 . S
C83 C113 1.437 . S
H84 C113 0.929 . S
N85 Gd58 2.570 . S
N85 C86 1.359 . S
N85 C89 1.343 . S
C86 C79 1.422 . S
C86 N85 1.359 . S
C86 C88 1.421 . S
C87 C88 1.422 . S
C87 C90 1.321 . S
C87 H114 0.931 . S
C88 C86 1.421 . S
C88 C87 1.422 . S
C88 C112 1.417 . S
C89 H66 0.931 . S
C89 N85 1.343 . S
C89 C90 1.390 . S
C90 H68 0.930 . S
C90 C87 1.321 . S
C90 C89 1.390 . S
O91 Gd59 2.386 . S
O91 C103 1.265 . S
O92 Gd58 2.353 1_645 S
O92 C103 1.242 . S
O93 Gd58 2.468 . S
O93 C111 1.263 . S
O94 Gd58 2.427 . S
O94 C111 1.252 . S
O95 Gd59 2.307 1_565 S
O95 C104 1.261 . S
O96 Gd58 2.388 1_655 S
O96 C104 1.252 . S
O97 Gd58 2.386 . S
O97 C115 1.265 . S
O98 Gd59 2.353 1_455 S
O98 C115 1.242 1_545 S
O99 Gd59 2.468 . S
O99 C123 1.263 . S
O100 Gd59 2.427 . S
O100 C123 1.252 . S
O101 Gd58 2.307 1_545 S
O101 C116 1.261 . S
O102 Gd59 2.388 1_455 S
O102 C116 1.252 . S
C103 O91 1.265 . S
C103 O92 1.242 . S
C104 O95 1.261 . S
C104 O96 1.252 . S
C105 C108 1.394 . S
C105 C110 1.370 . S
C105 C111 1.500 . S
C106 C109 1.383 . S
C106 C110 1.395 . S
C107 C108 1.396 . S
C107 C109 1.365 . S
C107 H124 0.929 . S
C108 C105 1.394 . S
C108 C107 1.396 . S
C108 H125 0.930 . S
C109 C106 1.383 . S
C109 C107 1.365 . S
C109 H126 0.931 . S
C110 C105 1.370 . S
C110 C106 1.395 . S
C110 H127 0.930 . S
C111 Gd58 2.805 . S
C111 O93 1.263 . S
C111 O94 1.252 . S
C111 C105 1.500 . S
C112 H74 0.930 . S
C112 C88 1.417 . S
C112 C113 1.329 . S
C113 C83 1.437 . S
C113 H84 0.929 . S
C113 C112 1.329 . S
H114 C87 0.931 . S
C115 O97 1.265 . S
C115 O98 1.242 1_565 S
C116 O101 1.261 . S
C116 O102 1.252 . S
C117 C120 1.394 . S
C117 C122 1.370 . S
C117 C123 1.500 . S
C118 C121 1.383 . S
C118 C122 1.395 . S
C119 C120 1.396 . S
C119 C121 1.365 . S
C119 H128 0.929 . S
C120 C117 1.394 . S
C120 C119 1.396 . S
C120 H129 0.930 . S
C121 C118 1.383 . S
C121 C119 1.365 . S
C121 H130 0.931 . S
C122 C117 1.370 . S
C122 C118 1.395 . S
C122 H131 0.930 . S
C123 Gd59 2.805 . S
C123 O99 1.263 . S
C123 O100 1.252 . S
C123 C117 1.500 . S
H124 C107 0.929 . S
H125 C108 0.930 . S
H126 C109 0.931 . S
H127 C110 0.930 . S
H128 C119 0.929 . S
H129 C120 0.930 . S
H130 C121 0.931 . S
H131 C122 0.930 . S
C132 C134 1.422 . S
C132 C136 1.415 . S
C132 N138 1.369 . S
C133 C134 1.421 . S
C133 C135 1.417 . S
C133 C145 1.422 . S
C134 C132 1.422 . S
C134 C133 1.421 . S
C134 N144 1.359 . S
C135 C133 1.417 . S
C135 C137 1.329 . S
C135 H154 0.930 . S
C136 C132 1.415 . S
C136 C137 1.437 . S
C136 C140 1.413 . S
C137 C135 1.329 . S
C137 C136 1.437 . S
C137 H159 0.929 . S
N138 C132 1.369 . S
N138 C139 1.338 . S
N138 Gd143 2.622 . S
C139 N138 1.338 . S
C139 C141 1.378 . S
C139 H151 0.929 . S
C140 C136 1.413 . S
C140 C141 1.348 . S
C140 H156 0.931 . S
C141 C139 1.378 . S
C141 C140 1.348 . S
C141 H157 0.930 . S
Gd142 N162 2.622 . S
Gd142 N169 2.570 . S
Gd142 O176 2.353 1_554 S
Gd142 O177 2.468 1_554 S
Gd142 O178 2.427 1_554 S
Gd142 O180 2.388 . S
Gd142 O181 2.386 . S
Gd142 O185 2.307 . S
Gd142 C195 2.805 1_554 S
Gd143 N138 2.622 . S
Gd143 N144 2.570 . S
Gd143 O175 2.386 . S
Gd143 O179 2.307 . S
Gd143 O182 2.353 . S
Gd143 O183 2.468 . S
Gd143 O184 2.427 . S
Gd143 O186 2.388 . S
Gd143 C207 2.805 . S
N144 C134 1.359 . S
N144 Gd143 2.570 . S
N144 C146 1.343 . S
C145 C133 1.422 . S
C145 C147 1.321 . S
C145 H153 0.931 . S
C146 N144 1.343 . S
C146 C147 1.390 . S
C146 H148 0.931 . S
C147 C145 1.321 . S
C147 C146 1.390 . S
C147 H149 0.930 . S
H148 C146 0.931 . S
H149 C147 0.930 . S
H150 C173 0.931 . S
H151 C139 0.929 . S
H152 C174 0.930 . S
H153 C145 0.931 . S
H154 C135 0.930 . S
H155 C164 0.929 . S
H156 C140 0.931 . S
H157 C141 0.930 . S
H158 C196 0.930 . S
H159 C137 0.929 . S
H160 C165 0.931 . S
H161 C166 0.930 . S
N162 Gd142 2.622 . S
N162 C163 1.369 . S
N162 C164 1.338 1_554 S
C163 N162 1.369 . S
C163 C167 1.415 . S
C163 C170 1.422 . S
C164 H155 0.929 . S
C164 N162 1.338 1_556 S
C164 C166 1.378 . S
C165 H160 0.931 . S
C165 C166 1.348 1_554 S
C165 C167 1.413 . S
C166 H161 0.930 . S
C166 C164 1.378 . S
C166 C165 1.348 1_556 S
C167 C163 1.415 . S
C167 C165 1.413 . S
C167 C197 1.437 . S
H168 C197 0.929 . S
N169 Gd142 2.570 . S
N169 C170 1.359 . S
N169 C173 1.343 . S
C170 C163 1.422 . S
C170 N169 1.359 . S
C170 C172 1.421 . S
C171 C172 1.422 . S
C171 C174 1.321 . S
C171 H198 0.931 . S
C172 C170 1.421 . S
C172 C171 1.422 . S
C172 C196 1.417 . S
C173 H150 0.931 . S
C173 N169 1.343 . S
C173 C174 1.390 . S
C174 H152 0.930 . S
C174 C171 1.321 . S
C174 C173 1.390 . S
O175 Gd143 2.386 . S
O175 C187 1.265 1_554 S
O176 Gd142 2.353 1_556 S
O176 C187 1.242 . S
O177 Gd142 2.468 1_556 S
O177 C195 1.263 . S
O178 Gd142 2.427 1_556 S
O178 C195 1.252 . S
O179 Gd143 2.307 . S
O179 C188 1.261 . S
O180 Gd142 2.388 . S
O180 C188 1.252 . S
O181 Gd142 2.386 . S
O181 C199 1.265 . S
O182 Gd143 2.353 . S
O182 C199 1.242 . S
O183 Gd143 2.468 . S
O183 C207 1.263 . S
O184 Gd143 2.427 . S
O184 C207 1.252 . S
O185 Gd142 2.307 . S
O185 C200 1.261 . S
O186 Gd143 2.388 . S
O186 C200 1.252 . S
C187 O175 1.265 1_556 S
C187 O176 1.242 . S
C188 O179 1.261 . S
C188 O180 1.252 . S
C189 C192 1.394 . S
C189 C194 1.370 . S
C189 C195 1.500 . S
C190 C193 1.383 . S
C190 C194 1.395 . S
C191 C192 1.396 . S
C191 C193 1.365 . S
C191 H208 0.929 . S
C192 C189 1.394 . S
C192 C191 1.396 . S
C192 H209 0.930 . S
C193 C190 1.383 . S
C193 C191 1.365 . S
C193 H210 0.931 . S
C194 C189 1.370 . S
C194 C190 1.395 . S
C194 H211 0.930 . S
C195 Gd142 2.805 1_556 S
C195 O177 1.263 . S
C195 O178 1.252 . S
C195 C189 1.500 . S
C196 H158 0.930 . S
C196 C172 1.417 . S
C196 C197 1.329 . S
C197 C167 1.437 . S
C197 H168 0.929 . S
C197 C196 1.329 . S
H198 C171 0.931 . S
C199 O181 1.265 . S
C199 O182 1.242 . S
C200 O185 1.261 . S
C200 O186 1.252 . S
C201 C204 1.394 . S
C201 C206 1.370 . S
C201 C207 1.500 . S
C202 C205 1.383 . S
C202 C206 1.395 . S
C203 C204 1.396 . S
C203 C205 1.365 . S
C203 H212 0.929 . S
C204 C201 1.394 . S
C204 C203 1.396 . S
C204 H213 0.930 . S
C205 C202 1.383 . S
C205 C203 1.365 . S
C205 H214 0.931 . S
C206 C201 1.370 . S
C206 C202 1.395 . S
C206 H215 0.930 . S
C207 Gd143 2.805 . S
C207 O183 1.263 . S
C207 O184 1.252 . S
C207 C201 1.500 . S
H208 C191 0.929 . S
H209 C192 0.930 . S
H210 C193 0.931 . S
H211 C194 0.930 . S
H212 C203 0.929 . S
H213 C204 0.930 . S
H214 C205 0.931 . S
H215 C206 0.930 . S
H216 C222 0.930 . S
H217 C225 0.930 . S
H218 C226 0.930 . S
H219 C227 0.930 . S
H220 C230 0.930 . S
H221 C231 0.930 . S
C222 H216 0.930 . S
C222 C223 1.355 . S
C222 C224 1.415 . S
C223 C222 1.355 . S
C223 C225 1.419 . S
C224 C222 1.415 . S
C224 C229 1.425 . S
C224 C231 1.409 . S
C225 H217 0.930 . S
C225 C223 1.419 . S
C225 C226 1.362 . S
C226 H218 0.930 . S
C226 C225 1.362 . S
C226 C229 1.409 . S
C227 H219 0.930 . S
C227 C228 1.355 . S
C227 C229 1.415 . S
C228 C227 1.355 . S
C228 C230 1.419 . S
C229 C224 1.425 . S
C229 C226 1.409 . S
C229 C227 1.415 . S
C230 H220 0.930 . S
C230 C228 1.419 . S
C230 C231 1.362 . S
C231 H221 0.930 . S
C231 C224 1.409 . S
C231 C230 1.362 . S
H232 C238 0.930 . S
H233 C241 0.930 . S
H234 C242 0.930 . S
H235 C243 0.930 . S
H236 C246 0.930 . S
H237 C247 0.930 . S
C238 H232 0.930 . S
C238 C239 1.355 . S
C238 C240 1.415 . S
C239 C238 1.355 . S
C239 C241 1.419 . S
C240 C238 1.415 . S
C240 C245 1.425 . S
C240 C247 1.409 . S
C241 H233 0.930 . S
C241 C239 1.419 . S
C241 C242 1.362 . S
C242 H234 0.930 . S
C242 C241 1.362 . S
C242 C245 1.409 . S
C243 H235 0.930 . S
C243 C244 1.355 . S
C243 C245 1.415 . S
C244 C243 1.355 . S
C244 C246 1.419 . S
C245 C240 1.425 . S
C245 C242 1.409 . S
C245 C243 1.415 . S
C246 H236 0.930 . S
C246 C244 1.419 . S
C246 C247 1.362 . S
C247 H237 0.930 . S
C247 C240 1.409 . S
C247 C246 1.362 . S
H248 C254 0.930 . S
H249 C257 0.930 . S
H250 C258 0.930 . S
H251 C259 0.930 . S
H252 C262 0.930 . S
H253 C263 0.930 . S
C254 H248 0.930 . S
C254 C255 1.355 . S
C254 C256 1.415 . S
C255 C254 1.355 . S
C255 C257 1.419 . S
C256 C254 1.415 . S
C256 C261 1.425 . S
C256 C263 1.409 . S
C257 H249 0.930 . S
C257 C255 1.419 . S
C257 C258 1.362 . S
C258 H250 0.930 . S
C258 C257 1.362 . S
C258 C261 1.409 . S
C259 H251 0.930 . S
C259 C260 1.355 . S
C259 C261 1.415 . S
C260 C259 1.355 . S
C260 C262 1.419 . S
C261 C256 1.425 . S
C261 C258 1.409 . S
C261 C259 1.415 . S
C262 H252 0.930 . S
C262 C260 1.419 . S
C262 C263 1.362 . S
C263 H253 0.930 . S
C263 C256 1.409 . S
C263 C262 1.362 . S
H264 C270 0.930 . S
H265 C273 0.930 . S
H266 C274 0.930 . S
H267 C275 0.930 . S
H268 C278 0.930 . S
H269 C279 0.930 . S
C270 H264 0.930 . S
C270 C271 1.355 . S
C270 C272 1.415 . S
C271 C270 1.355 . S
C271 C273 1.419 . S
C272 C270 1.415 . S
C272 C277 1.425 . S
C272 C279 1.409 . S
C273 H265 0.930 . S
C273 C271 1.419 . S
C273 C274 1.362 . S
C274 H266 0.930 . S
C274 C273 1.362 . S
C274 C277 1.409 . S
C275 H267 0.930 . S
C275 C276 1.355 . S
C275 C277 1.415 . S
C276 C275 1.355 . S
C276 C278 1.419 . S
C277 C272 1.425 . S
C277 C274 1.409 . S
C277 C275 1.415 . S
C278 H268 0.930 . S
C278 C276 1.419 . S
C278 C279 1.362 . S
C279 H269 0.930 . S
C279 C272 1.409 . S
C279 C278 1.362 . S
H280 C286 0.930 . S
H281 C289 0.930 . S
H282 C290 0.930 . S
H283 C291 0.930 . S
H284 C294 0.930 . S
H285 C295 0.930 . S
C286 H280 0.930 . S
C286 C287 1.355 . S
C286 C288 1.415 . S
C287 C286 1.355 . S
C287 C289 1.419 . S
C288 C286 1.415 . S
C288 C293 1.425 . S
C288 C295 1.409 . S
C289 H281 0.930 . S
C289 C287 1.419 . S
C289 C290 1.362 . S
C290 H282 0.930 . S
C290 C289 1.362 . S
C290 C293 1.409 . S
C291 H283 0.930 . S
C291 C292 1.355 . S
C291 C293 1.415 . S
C292 C291 1.355 . S
C292 C294 1.419 . S
C293 C288 1.425 . S
C293 C290 1.409 . S
C293 C291 1.415 . S
C294 H284 0.930 . S
C294 C292 1.419 . S
C294 C295 1.362 . S
C295 H285 0.930 . S
C295 C288 1.409 . S
C295 C294 1.362 . S
H296 C302 0.930 . S
H297 C305 0.930 . S
H298 C306 0.930 . S
H299 C307 0.930 . S
H300 C310 0.930 . S
H301 C311 0.930 . S
C302 H296 0.930 . S
C302 C303 1.355 . S
C302 C304 1.415 . S
C303 C302 1.355 . S
C303 C305 1.419 . S
C304 C302 1.415 . S
C304 C309 1.425 . S
C304 C311 1.409 . S
C305 H297 0.930 . S
C305 C303 1.419 . S
C305 C306 1.362 . S
C306 H298 0.930 . S
C306 C305 1.362 . S
C306 C309 1.409 . S
C307 H299 0.930 . S
C307 C308 1.355 . S
C307 C309 1.415 . S
C308 C307 1.355 . S
C308 C310 1.419 . S
C309 C304 1.425 . S
C309 C306 1.409 . S
C309 C307 1.415 . S
C310 H300 0.930 . S
C310 C308 1.419 . S
C310 C311 1.362 . S
C311 H301 0.930 . S
C311 C304 1.409 . S
C311 C310 1.362 . S
H312 C318 0.930 . S
H313 C321 0.930 . S
H314 C322 0.930 . S
H315 C323 0.930 . S
H316 C326 0.930 . S
H317 C327 0.930 . S
C318 H312 0.930 . S
C318 C319 1.355 . S
C318 C320 1.415 . S
C319 C318 1.355 . S
C319 C321 1.419 . S
C320 C318 1.415 . S
C320 C325 1.425 . S
C320 C327 1.409 . S
C321 H313 0.930 . S
C321 C319 1.419 . S
C321 C322 1.362 . S
C322 H314 0.930 . S
C322 C321 1.362 . S
C322 C325 1.409 . S
C323 H315 0.930 . S
C323 C324 1.355 . S
C323 C325 1.415 . S
C324 C323 1.355 . S
C324 C326 1.419 . S
C325 C320 1.425 . S
C325 C322 1.409 . S
C325 C323 1.415 . S
C326 H316 0.930 . S
C326 C324 1.419 . S
C326 C327 1.362 . S
C327 H317 0.930 . S
C327 C320 1.409 . S
C327 C326 1.362 . S
H328 C334 0.930 . S
H329 C337 0.930 . S
H330 C338 0.930 . S
H331 C339 0.930 . S
H332 C342 0.930 . S
H333 C343 0.930 . S
C334 H328 0.930 . S
C334 C335 1.355 . S
C334 C336 1.415 . S
C335 C334 1.355 . S
C335 C337 1.419 . S
C336 C334 1.415 . S
C336 C341 1.425 . S
C336 C343 1.409 . S
C337 H329 0.930 . S
C337 C335 1.419 . S
C337 C338 1.362 . S
C338 H330 0.930 . S
C338 C337 1.362 . S
C338 C341 1.409 . S
C339 H331 0.930 . S
C339 C340 1.355 . S
C339 C341 1.415 . S
C340 C339 1.355 . S
C340 C342 1.419 . S
C341 C336 1.425 . S
C341 C338 1.409 . S
C341 C339 1.415 . S
C342 H332 0.930 . S
C342 C340 1.419 . S
C342 C343 1.362 . S
C343 H333 0.930 . S
C343 C336 1.409 . S
C343 C342 1.362 . S
H344 C350 0.930 . S
H345 C353 0.930 . S
H346 C354 0.930 . S
H347 C355 0.930 . S
H348 C358 0.930 . S
H349 C359 0.930 . S
C350 H344 0.930 . S
C350 C351 1.355 . S
C350 C352 1.415 . S
C351 C350 1.355 . S
C351 C353 1.419 . S
C352 C350 1.415 . S
C352 C357 1.425 . S
C352 C359 1.409 . S
C353 H345 0.930 . S
C353 C351 1.419 . S
C353 C354 1.362 . S
C354 H346 0.930 . S
C354 C353 1.362 . S
C354 C357 1.409 . S
C355 H347 0.930 . S
C355 C356 1.355 . S
C355 C357 1.415 . S
C356 C355 1.355 . S
C356 C358 1.419 . S
C357 C352 1.425 . S
C357 C354 1.409 . S
C357 C355 1.415 . S
C358 H348 0.930 . S
C358 C356 1.419 . S
C358 C359 1.362 . S
C359 H349 0.930 . S
C359 C352 1.409 . S
C359 C358 1.362 . S
H360 C366 0.930 1_554 S
H361 C369 0.930 . S
H362 C370 0.930 . S
H363 C371 0.930 . S
H364 C374 0.930 . S
H365 C375 0.930 . S
C366 H360 0.930 1_556 S
C366 C367 1.355 . S
C366 C368 1.415 . S
C367 C366 1.355 . S
C367 C369 1.419 . S
C368 C366 1.415 . S
C368 C373 1.425 . S
C368 C375 1.409 . S
C369 H361 0.930 . S
C369 C367 1.419 . S
C369 C370 1.362 . S
C370 H362 0.930 . S
C370 C369 1.362 . S
C370 C373 1.409 . S
C371 H363 0.930 . S
C371 C372 1.355 . S
C371 C373 1.415 . S
C372 C371 1.355 . S
C372 C374 1.419 . S
C373 C368 1.425 . S
C373 C370 1.409 . S
C373 C371 1.415 . S
C374 H364 0.930 . S
C374 C372 1.419 . S
C374 C375 1.362 . S
C375 H365 0.930 . S
C375 C368 1.409 . S
C375 C374 1.362 . S
H376 C382 0.930 . S
H377 C385 0.930 . S
H378 C386 0.930 . S
H379 C387 0.930 . S
H380 C390 0.930 . S
H381 C391 0.930 . S
C382 H376 0.930 . S
C382 C383 1.355 . S
C382 C384 1.415 . S
C383 C382 1.355 . S
C383 C385 1.419 . S
C384 C382 1.415 . S
C384 C389 1.425 . S
C384 C391 1.409 . S
C385 H377 0.930 . S
C385 C383 1.419 . S
C385 C386 1.362 . S
C386 H378 0.930 . S
C386 C385 1.362 . S
C386 C389 1.409 . S
C387 H379 0.930 . S
C387 C388 1.355 . S
C387 C389 1.415 . S
C388 C387 1.355 . S
C388 C390 1.419 . S
C389 C384 1.425 . S
C389 C386 1.409 . S
C389 C387 1.415 . S
C390 H380 0.930 . S
C390 C388 1.419 . S
C390 C391 1.362 . S
C391 H381 0.930 . S
C391 C384 1.409 . S
C391 C390 1.362 . S
H392 C398 0.930 . S
H393 C401 0.930 . S
H394 C402 0.930 . S
H395 C403 0.930 . S
H396 C406 0.930 1_545 S
H397 C407 0.930 1_545 S
C398 H392 0.930 . S
C398 C399 1.355 . S
C398 C400 1.415 . S
C399 C398 1.355 . S
C399 C401 1.419 . S
C400 C398 1.415 . S
C400 C405 1.425 . S
C400 C407 1.409 . S
C401 H393 0.930 . S
C401 C399 1.419 . S
C401 C402 1.362 . S
C402 H394 0.930 . S
C402 C401 1.362 . S
C402 C405 1.409 . S
C403 H395 0.930 . S
C403 C404 1.355 . S
C403 C405 1.415 . S
C404 C403 1.355 . S
C404 C406 1.419 . S
C405 C400 1.425 . S
C405 C402 1.409 . S
C405 C403 1.415 . S
C406 H396 0.930 1_565 S
C406 C404 1.419 . S
C406 C407 1.362 . S
C407 H397 0.930 1_565 S
C407 C400 1.409 . S
C407 C406 1.362 . S
C228 C116 1.624 . S
C223 C40 1.648 . S
C239 C4 1.652 . S
C244 C188 1.621 . S
C255 C16 1.644 . S
C260 C104 1.641 . S
C271 C28 1.601 . S
C276 C200 1.611 . S
C292 C106 1.374 . S
C287 C9 1.608 . S
C308 C187 1.699 . S
C303 C18 1.691 . S
C319 C33 1.607 . S
C324 C103 1.640 . S
C335 C45 1.580 . S
C340 C190 1.450 . S
C356 C202 1.358 . S
C351 C21 1.550 . S
C372 C118 1.399 . S
C367 C30 1.555 1_556 S
C388 C199 1.634 . S
C383 C42 1.616 . S
C399 C6 1.548 . S
C404 C115 1.589 . S
