# Generated by pormake.
# Topology zzz, (3,6)-cn, num edge types: 1
# Building blocks:
#     Node 0, Type 0, BuildingBlock: QEWDON_clean_linker_0, # of connection points: 3
#     Node 1, Type 0, BuildingBlock: QEWDON_clean_linker_0, # of connection points: 3
#     Node 2, Type 0, BuildingBlock: QEWDON_clean_linker_0, # of connection points: 3
#     Node 3, Type 0, BuildingBlock: QEWDON_clean_linker_0, # of connection points: 3
#     Node 4, Type 0, BuildingBlock: QEWDON_clean_linker_0, # of connection points: 3
#     Node 5, Type 0, BuildingBlock: QEWDON_clean_linker_0, # of connection points: 3
#     Node 6, Type 0, BuildingBlock: QEWDON_clean_linker_0, # of connection points: 3
#     Node 7, Type 0, BuildingBlock: QEWDON_clean_linker_0, # of connection points: 3
#     Node 8, Type 1, BuildingBlock: FUNLAD_clean_sbu_0, # of connection points: 6
#     Node 9, Type 1, BuildingBlock: FUNLAD_clean_sbu_0, # of connection points: 6
#     Node 10, Type 1, BuildingBlock: FUNLAD_clean_sbu_0, # of connection points: 6
#     Node 11, Type 1, BuildingBlock: FUNLAD_clean_sbu_0, # of connection points: 6
#     Edge 12, Type (0, 1), BuildingBlock: EZIPEK_clean_linker_0, # of connection points: 2
#     Edge 13, Type (0, 1), BuildingBlock: EZIPEK_clean_linker_0, # of connection points: 2
#     Edge 14, Type (0, 1), BuildingBlock: EZIPEK_clean_linker_0, # of connection points: 2
#     Edge 15, Type (0, 1), BuildingBlock: EZIPEK_clean_linker_0, # of connection points: 2
#     Edge 16, Type (0, 1), BuildingBlock: EZIPEK_clean_linker_0, # of connection points: 2
#     Edge 17, Type (0, 1), BuildingBlock: EZIPEK_clean_linker_0, # of connection points: 2
#     Edge 18, Type (0, 1), BuildingBlock: EZIPEK_clean_linker_0, # of connection points: 2
#     Edge 19, Type (0, 1), BuildingBlock: EZIPEK_clean_linker_0, # of connection points: 2
#     Edge 20, Type (0, 1), BuildingBlock: EZIPEK_clean_linker_0, # of connection points: 2
#     Edge 21, Type (0, 1), BuildingBlock: EZIPEK_clean_linker_0, # of connection points: 2
#     Edge 22, Type (0, 1), BuildingBlock: EZIPEK_clean_linker_0, # of connection points: 2
#     Edge 23, Type (0, 1), BuildingBlock: EZIPEK_clean_linker_0, # of connection points: 2
#     Edge 24, Type (0, 1), BuildingBlock: EZIPEK_clean_linker_0, # of connection points: 2
#     Edge 25, Type (0, 1), BuildingBlock: EZIPEK_clean_linker_0, # of connection points: 2
#     Edge 26, Type (0, 1), BuildingBlock: EZIPEK_clean_linker_0, # of connection points: 2
#     Edge 27, Type (0, 1), BuildingBlock: EZIPEK_clean_linker_0, # of connection points: 2
#     Edge 28, Type (0, 1), BuildingBlock: EZIPEK_clean_linker_0, # of connection points: 2
#     Edge 29, Type (0, 1), BuildingBlock: EZIPEK_clean_linker_0, # of connection points: 2
#     Edge 30, Type (0, 1), BuildingBlock: EZIPEK_clean_linker_0, # of connection points: 2
#     Edge 31, Type (0, 1), BuildingBlock: EZIPEK_clean_linker_0, # of connection points: 2
#     Edge 32, Type (0, 1), BuildingBlock: EZIPEK_clean_linker_0, # of connection points: 2
#     Edge 33, Type (0, 1), BuildingBlock: EZIPEK_clean_linker_0, # of connection points: 2
#     Edge 34, Type (0, 1), BuildingBlock: EZIPEK_clean_linker_0, # of connection points: 2
#     Edge 35, Type (0, 1), BuildingBlock: EZIPEK_clean_linker_0, # of connection points: 2
# Relax obj value: 0.077
# Max RMSD: 0.173
# Mean RMSD: 0.066
data_MOF--net-zzz--node1-FUNLAD_clean_sbu_0--node2-QEWDON_clean_linker_0--edge1-EZIPEK_clean_linker_0
_symmetry_space_group_name_H-M    P1
_symmetry_Int_Tables_number       1
_symmetry_cell_setting            triclinic
loop_
_symmetry_equiv_pos_as_xyz
'x, y, z'
_cell_length_a     40.47067
_cell_length_b     46.658761
_cell_length_c     13.384943
_cell_angle_alpha  83.23348
_cell_angle_beta   82.270455
_cell_angle_gamma 87.277636
loop_
_atom_site_label
_atom_site_type_symbol
_atom_site_fract_x
_atom_site_fract_y
_atom_site_fract_z
_atom_type_partial_charge
H0 H 0.84104 0.51908 0.19663 0.0
C1 C 0.84896 0.51887 0.27071 0.0
C2 C 0.8829 0.51357 0.27822 0.0
C3 C 0.82667 0.52672 0.35445 0.0
H4 H 0.92144 0.51181 0.37382 0.0
C5 C 0.89487 0.51502 0.3697 0.0
C6 C 0.87385 0.52309 0.4534 0.0
C7 C 0.83963 0.52845 0.44711 0.0
C8 C 0.79128 0.53588 0.34055 0.0
H9 H 0.82385 0.53464 0.51339 0.0
C10 C 0.77585 0.52675 0.26113 0.0
C11 C 0.74435 0.53803 0.24052 0.0
C12 C 0.77337 0.55567 0.40123 0.0
H13 H 0.7841 0.56418 0.46085 0.0
C14 C 0.74146 0.5659 0.38334 0.0
H15 H 0.78811 0.51116 0.21365 0.0
C16 C 0.72711 0.55737 0.30303 0.0
H17 H 0.70276 0.56622 0.28847 0.0
H18 H 0.72815 0.58116 0.4304 0.0
H19 H 0.99394 0.82187 0.01127 0.0
C20 C 0.99789 0.82667 0.08593 0.0
C21 C 1.00686 0.85454 0.09905 0.0
C22 C 0.99312 0.80543 0.17075 0.0
H23 H 1.01723 0.88297 0.20444 0.0
C24 C 1.01075 0.86118 0.195 0.0
C25 C 1.00683 0.84052 0.27894 0.0
C26 C 0.99831 0.8125 0.26733 0.0
C27 C 0.98181 0.77623 0.16028 0.0
H28 H 0.99572 0.79644 0.33306 0.0
C29 C 0.99519 0.76118 0.07782 0.0
C30 C 0.98543 0.73288 0.07266 0.0
C31 C 0.95766 0.76299 0.2348 0.0
H32 H 0.94636 0.77422 0.29784 0.0
C33 C 0.94759 0.73517 0.22864 0.0
H34 H 1.01386 0.77093 0.01968 0.0
C35 C 0.9615 0.72012 0.14848 0.0
H36 H 0.95363 0.69838 0.14555 0.0
H37 H 0.92905 0.72519 0.28651 0.0
H38 H 0.74542 1.00621 0.02357 0.0
C39 C 0.73203 1.00615 0.09926 0.0
C40 C 0.69719 0.01093 0.11045 0.0
C41 C 0.74885 0.99948 0.18568 0.0
H42 H 0.65232 0.0133 0.2152 0.0
C43 C 0.67926 1.00998 0.20711 0.0
C44 C 0.69489 1.00393 0.2937 0.0
C45 C 0.72972 0.99894 0.28346 0.0
C46 C 0.78543 0.99073 0.17445 0.0
H47 H 0.74151 0.99434 0.35176 0.0
C48 C 0.80842 1.00128 0.08934 0.0
C49 C 0.84236 0.99168 0.08055 0.0
C50 C 0.79741 0.97029 0.24849 0.0
H51 H 0.78087 0.96057 0.31245 0.0
C52 C 0.83086 0.9612 0.24027 0.0
H53 H 0.80027 0.01686 0.03042 0.0
C54 C 0.85314 0.97177 0.15731 0.0
H55 H 0.87895 0.9641 0.1522 0.0
H56 H 0.83948 0.94549 0.29808 0.0
H57 H 0.54688 0.6896 0.03745 0.0
C58 C 0.54266 0.67972 0.1153 0.0
C59 C 0.53189 0.65112 0.136 0.0
C60 C 0.55022 0.69465 0.19518 0.0
H61 H 0.52144 0.61551 0.25054 0.0
C62 C 0.52871 0.63787 0.23579 0.0
C63 C 0.53832 0.65128 0.31455 0.0
C64 C 0.54736 0.68025 0.29521 0.0
C65 C 0.56504 0.72378 0.17393 0.0
H66 H 0.55366 0.69104 0.35719 0.0
C67 C 0.55214 0.74618 0.10775 0.0
C68 C 0.56634 0.77372 0.09264 0.0
C69 C 0.5928 0.72919 0.22126 0.0
H70 H 0.6039 0.71235 0.27023 0.0
C71 C 0.60694 0.75625 0.20539 0.0
H72 H 0.5309 0.7425 0.07008 0.0
C73 C 0.59375 0.7784 0.14202 0.0
H74 H 0.60502 0.79933 0.13116 0.0
H75 H 0.62823 0.76006 0.24249 0.0
H76 H 0.22685 0.49515 0.37935 0.0
C77 C 0.2196 0.49837 0.3038 0.0
C78 C 0.18592 0.50416 0.2943 0.0
C79 C 0.24343 0.49715 0.21679 0.0
H80 H 0.14894 0.5103 0.19335 0.0
C81 C 0.17531 0.50638 0.1994 0.0
C82 C 0.1978 0.50415 0.11209 0.0
C83 C 0.2321 0.50026 0.11994 0.0
C84 C 0.27967 0.49275 0.22854 0.0
H85 H 0.24951 0.5001 0.05115 0.0
C86 C 0.29246 0.50196 0.31244 0.0
C87 C 0.32587 0.4961 0.32744 0.0
C88 C 0.30163 0.47838 0.15848 0.0
H89 H 0.29292 0.47035 0.09439 0.0
C90 C 0.33515 0.47337 0.17184 0.0
H91 H 0.27673 0.51362 0.36705 0.0
C92 C 0.34722 0.48199 0.25614 0.0
H93 H 0.37308 0.47727 0.26669 0.0
H94 H 0.35171 0.46222 0.11761 0.0
H95 H 1.01848 0.21425 0.55102 0.0
C96 C 0.02656 0.20905 0.47454 0.0
C97 C 0.03731 0.18068 0.45852 0.0
C98 C 0.02266 0.22965 0.39044 0.0
H99 H 0.0539 0.1515 0.34886 0.0
C100 C 0.04665 0.17374 0.36039 0.0
C101 C 0.04036 0.19302 0.27736 0.0
C102 C 0.02939 0.22135 0.29144 0.0
C103 C 1.00618 0.25807 0.40585 0.0
H104 H 0.02356 0.23601 0.22669 0.0
C105 C 1.01862 0.27677 0.46609 0.0
C106 C 1.00267 0.30382 0.47842 0.0
C107 C 0.97747 0.26653 0.35975 0.0
H108 H 0.96719 0.25234 0.31412 0.0
C109 C 0.96151 0.29322 0.37296 0.0
H110 H 0.04088 0.27062 0.50141 0.0
C111 C 0.97407 0.31184 0.43172 0.0
H112 H 0.96161 0.33265 0.44032 0.0
H113 H 0.93943 0.29953 0.33719 0.0
H114 H 0.32519 0.0284 0.52283 0.0
C115 C 0.33819 0.02422 0.44955 0.0
C116 C 0.37289 0.01893 0.43906 0.0
C117 C 0.32086 0.02571 0.36394 0.0
H118 H 0.41722 0.01225 0.33648 0.0
C119 C 0.39027 0.01545 0.34397 0.0
C120 C 0.3743 0.01753 0.25762 0.0
C121 C 0.33934 0.02174 0.2679 0.0
C122 C 0.28442 0.03428 0.37248 0.0
H123 H 0.32687 0.02269 0.20083 0.0
C124 C 0.26148 0.02518 0.45925 0.0
C125 C 0.22753 0.0346 0.46533 0.0
C126 C 0.27259 0.05303 0.29368 0.0
H127 H 0.28932 0.06126 0.22759 0.0
C128 C 0.23917 0.06219 0.29985 0.0
H129 H 0.26974 0.01078 0.52121 0.0
C130 C 0.21682 0.05309 0.38481 0.0
H131 H 0.19098 0.06058 0.38798 0.0
H132 H 0.23059 0.07665 0.23861 0.0
H133 H 0.56044 0.33363 0.50383 0.0
C134 C 0.55034 0.34601 0.44051 0.0
C135 C 0.54581 0.37614 0.43898 0.0
C136 C 0.54323 0.33229 0.35768 0.0
H137 H 0.53185 0.41576 0.35357 0.0
C138 C 0.53425 0.39242 0.35573 0.0
C139 C 0.52745 0.37934 0.27293 0.0
C140 C 0.531 0.34921 0.27493 0.0
C141 C 0.55209 0.30113 0.35105 0.0
H142 H 0.52605 0.33928 0.20947 0.0
C143 C 0.5445 0.27976 0.43414 0.0
C144 C 0.55325 0.25047 0.4241 0.0
C145 C 0.56901 0.29272 0.25959 0.0
H146 H 0.57591 0.30859 0.19521 0.0
C147 C 0.57778 0.26383 0.25025 0.0
H148 H 0.53153 0.2857 0.50531 0.0
C149 C 0.56992 0.24283 0.33177 0.0
H150 H 0.57687 0.22046 0.32293 0.0
H151 H 0.59081 0.25772 0.17948 0.0
C152 C 0.03552 0.96534 0.89894 0.0
N153 N 0.03048 0.97807 0.59469 0.0
C154 C 0.05311 0.95586 0.60853 0.0
C155 C 0.05054 0.9302 0.56815 0.0
C156 C 0.02571 0.92771 0.50706 0.0
C157 C 1.004 0.95157 0.487 0.0
C158 C 1.00643 0.97664 0.53368 0.0
Zn159 Zn 0.03007 1.00661 0.69949 0.0
C160 C 0.96473 0.01355 0.81852 0.0
N161 N 0.03764 0.05239 0.94589 0.0
C162 C 0.06117 0.05421 0.00841 0.0
C163 C 1.01409 0.0739 0.93304 0.0
C164 C 1.01457 0.09895 0.97835 0.0
C165 C 0.03841 0.10164 0.04243 0.0
C166 C 0.06168 0.07878 0.05939 0.0
Zn167 Zn 0.03833 0.02378 0.84141 0.0
O168 O 0.03186 0.96958 0.80601 0.0
C169 C 0.10393 0.01644 0.72306 0.0
O170 O 0.04037 0.98652 0.94634 0.0
H171 H 0.99598 0.07268 0.88172 0.0
H172 H 0.07164 0.95693 0.65856 0.0
H173 H 0.08016 0.03725 0.0157 0.0
O174 O 0.08401 1.00817 0.66699 0.0
O175 O 0.09191 0.02382 0.80952 0.0
H176 H 0.98818 0.99418 0.52562 0.0
O177 O 0.03645 0.06079 0.73548 0.0
O178 O 0.02683 0.04423 0.5956 0.0
O179 O 0.98457 0.02239 0.87342 0.0
O180 O 0.97659 1.00594 0.73231 0.0
C181 C 0.0315 0.06533 0.64369 0.0
H182 H 0.06746 0.9122 0.5861 0.0
H183 H 0.98443 0.95024 0.44006 0.0
H184 H 0.99641 0.11622 0.96335 0.0
H185 H 0.08047 0.08037 0.10877 0.0
C186 C 0.48349 0.01099 0.6638 0.0
N187 N 0.53459 0.08161 0.72227 0.0
C188 C 0.53507 0.09117 0.62198 0.0
C189 C 0.5358 0.12064 0.58852 0.0
C190 C 0.53607 0.14061 0.65869 0.0
C191 C 0.53498 0.13043 0.76205 0.0
C192 C 0.53437 0.1006 0.79239 0.0
Zn193 Zn 0.53529 0.03742 0.76207 0.0
C194 C 0.48504 0.01822 0.93616 0.0
N195 N 0.53533 0.94504 0.82986 0.0
C196 C 0.53234 0.926 0.762 0.0
C197 C 0.53906 0.9355 0.92798 0.0
C198 C 0.54079 0.90599 0.9606 0.0
C199 C 0.53832 0.8859 0.89218 0.0
C200 C 0.53347 0.89613 0.79201 0.0
Zn201 Zn 0.53504 0.98927 0.78899 0.0
O202 O 0.49487 0.03429 0.68328 0.0
C203 C 0.58512 1.0071 0.61537 0.0
O204 O 0.49769 0.98695 0.6916 0.0
H205 H 0.54107 0.9508 -0.01873 0.0
H206 H 0.53529 0.07588 0.56731 0.0
H207 H 0.52939 0.93393 0.68437 0.0
O208 O 0.57149 0.03168 0.63084 0.0
O209 O 0.57415 0.98467 0.6707 0.0
H210 H 0.53406 0.09261 0.8717 0.0
O211 O 0.57274 0.9935 0.88471 0.0
O212 O 0.57558 0.04024 0.8408 0.0
O213 O 0.49572 0.99426 0.90607 0.0
O214 O 0.49933 0.0413 0.89517 0.0
C215 C 0.58695 0.01723 0.88607 0.0
H216 H 0.53657 0.1278 0.50827 0.0
H217 H 0.5351 0.14536 0.81812 0.0
H218 H 0.54435 0.89887 0.03855 0.0
H219 H 0.53129 0.88118 0.73737 0.0
C220 C 0.55232 0.4679 0.67702 0.0
N221 N 0.46004 0.51282 0.73386 0.0
C222 C 0.46255 0.50706 0.63557 0.0
C223 C 0.4345 0.50645 0.58697 0.0
C224 C 0.40309 0.5123 0.63836 0.0
C225 C 0.40051 0.5187 0.73932 0.0
C226 C 0.42965 0.51863 0.7864 0.0
Zn227 Zn 0.50596 0.51348 0.78681 0.0
C228 C 0.51895 0.47099 0.94884 0.0
N229 N 0.60712 0.51524 0.842 0.0
C230 C 0.63764 0.51691 0.78464 0.0
C231 C 0.60429 0.51519 0.94452 0.0
C232 C 0.632 0.51741 -0.00668 0.0
C233 C 0.66355 0.51942 0.93706 0.0
C234 C 0.66656 0.51887 0.83125 0.0
Zn235 Zn 0.56114 0.51333 0.79095 0.0
O236 O 0.52351 0.47962 0.69523 0.0
C237 C 0.54709 0.55634 0.6294 0.0
O238 O 0.57695 0.47838 0.70831 0.0
H239 H 0.5803 0.51359 -0.01036 0.0
H240 H 0.48646 0.50335 0.59255 0.0
H241 H 0.63956 0.51688 0.70325 0.0
O242 O 0.51897 0.54673 0.66958 0.0
O243 O 0.57337 0.54438 0.66071 0.0
H244 H 0.42799 0.52349 0.86399 0.0
O245 O 0.5448 0.54803 0.87349 0.0
O246 O 0.49029 0.54688 0.88194 0.0
O247 O 0.54702 0.48225 0.91824 0.0
O248 O 0.49361 0.48041 0.90654 0.0
C249 C 0.51607 0.55847 0.90269 0.0
H250 H 0.43739 0.50182 0.50872 0.0
H251 H 0.37644 0.52358 0.78077 0.0
H252 H 0.62876 0.51768 0.07494 0.0
H253 H 0.69077 0.52029 0.78566 0.0
C254 C 0.07881 0.52316 0.60844 0.0
N255 N 0.03516 0.44996 0.76611 0.0
C256 C 0.06409 0.43585 0.73302 0.0
C257 C 0.06335 0.40891 0.69759 0.0
C258 C 0.0325 0.39675 0.69496 0.0
C259 C 1.00324 0.41077 0.73546 0.0
C260 C 1.00515 0.43749 0.7711 0.0
Zn261 Zn 0.03509 0.49298 0.78574 0.0
C262 C 0.0917 0.50972 0.88032 0.0
N263 N 0.03541 0.58396 0.79692 0.0
C264 C 0.03307 0.6055 0.71974 0.0
C265 C 0.03493 0.59005 0.89405 0.0
C266 C 0.03055 0.61828 0.91769 0.0
C267 C 0.02686 0.64077 0.84079 0.0
C268 C 0.02913 0.6344 0.74003 0.0
Zn269 Zn 0.03582 0.54081 0.77789 0.0
O270 O 0.0695 0.49945 0.65779 0.0
C271 C 0.9801 0.52555 0.68136 0.0
O272 O 0.06634 0.5469 0.63663 0.0
H273 H 0.03672 0.57289 0.9546 0.0
H274 H 0.08761 0.44622 0.72809 0.0
H275 H 0.03329 0.60024 0.64308 0.0
O276 O 0.99425 0.50079 0.69757 0.0
O277 O 0.9925 0.5474 0.70849 0.0
H278 H 0.98241 0.44903 0.79698 0.0
O279 O 1.00452 0.53316 0.91906 0.0
O280 O 1.00035 0.48669 0.91375 0.0
O281 O 0.07978 0.53397 0.84585 0.0
O282 O 0.07623 0.4869 0.87406 0.0
C283 C 0.99137 0.50931 0.95513 0.0
H284 H 0.08635 0.39854 0.66662 0.0
H285 H 0.97907 0.40186 0.7345 0.0
H286 H 0.02911 0.62248 -0.00387 0.0
H287 H 0.02659 0.6514 0.67883 0.0
C288 C 0.18503 0.99983 0.56001 0.0
C289 C 0.2021 0.02589 0.55462 0.0
C290 C 0.15848 0.04377 0.68123 0.0
C291 C 0.14049 0.01808 0.68311 0.0
N292 N 0.14328 0.96803 0.65449 0.0
N293 N 0.21084 0.06846 0.63103 0.0
C294 C 0.15599 0.99494 0.63198 0.0
C295 C 0.19074 0.04637 0.62295 0.0
N296 N 0.19563 0.98029 0.49322 0.0
N297 N 0.1442 0.0665 0.72894 0.0
H298 H 0.23439 0.07076 0.58876 0.0
H299 H 0.20579 0.08265 0.68604 0.0
H300 H 0.12099 0.06598 0.77293 0.0
H301 H 0.15436 0.08687 0.71929 0.0
H302 H 0.18186 0.96263 0.48478 0.0
H303 H 0.21741 0.98268 0.442 0.0
H304 H 0.15476 0.94968 0.62607 0.0
H305 H 0.12333 0.96364 0.7113 0.0
C306 C 0.57178 0.21449 0.56077 0.0
C307 C 0.54548 0.22693 0.50835 0.0
C308 C 0.50993 0.18683 0.58488 0.0
C309 C 0.5381 0.17199 0.62144 0.0
N310 N 0.59642 0.17107 0.64276 0.0
N311 N 0.48927 0.22548 0.4692 0.0
C312 C 0.56908 0.18586 0.61076 0.0
C313 C 0.51422 0.2135 0.52154 0.0
N314 N 0.59941 0.23013 0.5617 0.0
N315 N 0.47913 0.1753 0.61107 0.0
H316 H 0.4912 0.24546 0.42508 0.0
H317 H 0.46736 0.21508 0.46526 0.0
H318 H 0.47537 0.15583 0.65748 0.0
H319 H 0.45707 0.18612 0.59471 0.0
H320 H 0.6183 0.2235 0.60577 0.0
H321 H 0.60186 0.25113 0.52541 0.0
H322 H 0.62053 0.17867 0.62629 0.0
H323 H 0.59542 0.15023 0.68067 0.0
C324 C 0.33998 0.48103 0.5036 0.0
C325 C 0.33835 0.50304 0.42127 0.0
C326 C 0.36995 0.53501 0.50337 0.0
C327 C 0.37402 0.51215 0.58114 0.0
N328 N 0.35692 0.46645 0.67042 0.0
N329 N 0.34456 0.55279 0.35221 0.0
C330 C 0.35673 0.4862 0.58652 0.0
C331 C 0.35081 0.53076 0.42474 0.0
N332 N 0.32667 0.45482 0.49998 0.0
N333 N 0.386 0.56019 0.50259 0.0
H334 H 0.33135 0.55007 0.29243 0.0
H335 H 0.35041 0.57416 0.35426 0.0
H336 H 0.39855 0.56434 0.56234 0.0
H337 H 0.38779 0.57661 0.44258 0.0
H338 H 0.33005 0.43665 0.55099 0.0
H339 H 0.3129 0.45081 0.44285 0.0
H340 H 0.34293 0.44794 0.68387 0.0
H341 H 0.36931 0.46973 0.73138 0.0
C342 C 1.00992 0.32218 0.64356 0.0
C343 C 1.01627 0.32485 0.53606 0.0
C344 C 0.03581 0.37385 0.53294 0.0
C345 C 0.03017 0.37104 0.64072 0.0
N346 N 1.01915 0.34075 0.79926 0.0
N347 N 0.04316 0.34963 0.38053 0.0
C348 C 1.01959 0.34454 0.69629 0.0
C349 C 0.03193 0.34954 0.48156 0.0
N350 N 0.99328 0.29895 0.69481 0.0
N351 N 0.04286 0.40013 0.47927 0.0
H352 H 0.04069 0.33207 0.34077 0.0
H353 H 0.05773 0.36581 0.33874 0.0
H354 H 0.04549 0.41873 0.51329 0.0
H355 H 0.04336 0.40414 0.40089 0.0
H356 H 0.98441 0.2974 0.77189 0.0
H357 H 0.98645 0.2819 0.65889 0.0
H358 H 1.01472 0.32105 0.84331 0.0
H359 H 0.02619 0.35676 0.83972 0.0
C360 C 0.8827 0.02799 -0.01894 0.0
C361 C 0.86752 1.00083 -0.00926 0.0
C362 C 0.91315 0.98323 0.87 0.0
C363 C 0.92867 0.01036 0.8611 0.0
N364 N 0.92252 0.06094 0.88195 0.0
N365 N 0.86258 0.95628 0.92116 0.0
C366 C 0.91148 0.03353 0.9082 0.0
C367 C 0.88083 0.9798 0.92661 0.0
N368 N 0.87078 0.04793 0.04498 0.0
N369 N 0.93005 0.95999 0.83192 0.0
H370 H 0.83886 0.95335 0.9618 0.0
H371 H 0.86936 0.94145 0.86904 0.0
H372 H 0.95393 0.96088 0.79192 0.0
H373 H 0.92151 0.93902 0.84766 0.0
H374 H 0.8832 0.06666 0.05 0.0
H375 H 0.84943 0.0449 0.09762 0.0
H376 H 0.90969 0.07914 0.90729 0.0
H377 H 0.94262 0.06566 0.82575 0.0
C378 C 0.5745 0.80883 0.93582 0.0
C379 C 0.55363 0.79841 0.02513 0.0
C380 C 0.51706 0.8416 0.00356 0.0
C381 C 0.54147 0.85436 0.9271 0.0
N382 N 0.59513 0.85071 0.8248 0.0
N383 N 0.50531 0.80524 0.14763 0.0
C384 C 0.57042 0.83797 0.89294 0.0
C385 C 0.5246 0.81466 0.05914 0.0
N386 N 0.59846 0.7908 0.89281 0.0
N387 N 0.48664 0.85528 0.02258 0.0
H388 H 0.50965 0.78544 0.18946 0.0
H389 H 0.48626 0.8178 0.18285 0.0
H390 H 0.48037 0.87488 -0.01767 0.0
H391 H 0.4667 0.84595 0.0708 0.0
H392 H 0.61257 0.79618 0.82264 0.0
H393 H 0.60179 0.76933 0.92282 0.0
H394 H 0.61839 0.8408 0.8063 0.0
H395 H 0.59353 0.87208 0.79244 0.0
C396 C 0.71691 0.50357 0.14716 0.0
C397 C 0.72992 0.53116 0.14962 0.0
C398 C 0.70575 0.54961 -0.00502 0.0
C399 C 0.6924 0.52214 -0.00675 0.0
N400 N 0.69296 0.47123 0.04876 0.0
N401 N 0.74532 0.57754 0.06068 0.0
C402 C 0.70083 0.49849 0.06297 0.0
C403 C 0.72719 0.55322 0.06819 0.0
N404 N 0.71812 0.48282 0.22779 0.0
N405 N 0.69634 0.57267 0.931 0.0
H406 H 0.76149 0.58069 0.11263 0.0
H407 H 0.74683 0.59318 -0.00192 0.0
H408 H 0.68129 0.57081 0.87486 0.0
H409 H 0.7018 0.59391 0.93754 0.0
H410 H 0.7057 0.46348 0.23553 0.0
H411 H 0.72955 0.48575 0.29099 0.0
H412 H 0.70082 0.45269 0.0916 0.0
H413 H 0.68127 0.4671 -0.01278 0.0
C414 C 0.03285 0.70409 -0.01497 0.0
C415 C 0.99975 0.71585 -0.01109 0.0
C416 C 0.98663 0.68271 0.87191 0.0
C417 C 1.01944 0.6704 0.87024 0.0
N418 N 0.07636 0.67517 0.89719 0.0
N419 N 0.94926 0.72321 0.91148 0.0
C420 C 0.04348 0.68331 0.91689 0.0
C421 C 0.97812 0.70753 0.92328 0.0
N422 N 0.05332 0.71109 0.05115 0.0
N423 N 0.96288 0.66959 0.83136 0.0
H424 H 0.94266 0.74159 0.94816 0.0
H425 H 0.9338 0.71976 0.8581 0.0
H426 H 0.96789 0.65139 0.79297 0.0
H427 H 0.93765 0.67561 0.84173 0.0
H428 H 0.07621 0.70056 0.05975 0.0
H429 H 0.04653 0.72607 0.10275 0.0
H430 H 0.09554 0.68543 0.92206 0.0
H431 H 0.08457 0.65998 0.84715 0.0
C432 C 0.06229 0.14082 0.56394 0.0
C433 C 0.03294 0.15558 0.53709 0.0
C434 C 1.00185 0.11102 0.58378 0.0
C435 C 0.03215 0.09557 0.59716 0.0
N436 N 0.092 0.09478 0.58898 0.0
N437 N 0.9734 0.15463 0.52827 0.0
C438 C 0.0626 0.11027 0.58545 0.0
C439 C 1.00241 0.14087 0.55027 0.0
N440 N 0.08991 0.15627 0.56667 0.0
N441 N 0.97223 0.09725 0.60169 0.0
H442 H 0.97121 0.17662 0.5037 0.0
H443 H 0.97121 0.17662 0.5037 0.0
H444 H 0.97048 0.0752 0.62564 0.0
H445 H 0.94943 0.10809 0.59315 0.0
H446 H 0.11157 0.14736 0.59341 0.0
H447 H 0.08969 0.17874 0.55095 0.0
H448 H 0.11534 0.1039 0.5713 0.0
H449 H 0.0931 0.07227 0.60011 0.0
C450 C 0.39775 0.99611 0.59321 0.0
C451 C 0.39369 0.02041 0.52135 0.0
C452 C 0.4491 0.03605 0.53621 0.0
C453 C 0.45288 0.01283 0.61296 0.0
N454 N 0.42559 0.97618 0.73615 0.0
N455 N 0.4103 0.06822 0.45205 0.0
C456 C 0.42567 0.99437 0.64833 0.0
C457 C 0.41744 0.04226 0.50436 0.0
N458 N 0.37575 0.97429 0.60623 0.0
N459 N 0.47618 0.05077 0.48787 0.0
H460 H 0.38706 0.07297 0.42715 0.0
H461 H 0.42603 0.08566 0.44319 0.0
H462 H 0.50053 0.04463 0.50028 0.0
H463 H 0.47484 0.06647 0.42622 0.0
H464 H 0.37973 0.95457 0.64892 0.0
H465 H 0.35445 0.97548 0.56967 0.0
H466 H 0.40497 0.96425 0.76881 0.0
H467 H 0.44446 0.97534 0.78229 0.0
C468 C 0.52911 0.39592 0.60391 0.0
C469 C 0.55384 0.39227 0.52105 0.0
C470 C 0.5807 0.43633 0.54683 0.0
C471 C 0.55553 0.44045 0.62929 0.0
N472 N 0.51185 0.4192 0.75463 0.0
N473 N 0.60805 0.40326 0.43199 0.0
C474 C 0.53173 0.41861 0.66384 0.0
C475 C 0.58153 0.41046 0.49982 0.0
N476 N 0.50197 0.3788 0.62158 0.0
N477 N 0.60202 0.45791 0.50775 0.0
H478 H 0.60877 0.38444 0.3964 0.0
H479 H 0.63033 0.41421 0.41896 0.0
H480 H 0.60145 0.47777 0.5363 0.0
H481 H 0.6184 0.45719 0.44102 0.0
H482 H 0.48068 0.38308 0.67127 0.0
H483 H 0.49997 0.3611 0.58217 0.0
H484 H 0.49698 0.40218 0.78838 0.0
H485 H 0.51247 0.43531 0.80155 0.0
C486 C 0.16098 0.53295 0.43523 0.0
C487 C 0.16057 0.50839 0.38209 0.0
C488 C 0.10333 0.49985 0.45813 0.0
C489 C 0.10527 0.52168 0.52212 0.0
N490 N 0.13965 0.55456 0.58709 0.0
N491 N 0.13431 0.46437 0.36256 0.0
C492 C 0.13506 0.53716 0.51516 0.0
C493 C 0.13265 0.49047 0.4001 0.0
N494 N 0.18521 0.55283 0.40749 0.0
N495 N 0.07328 0.48853 0.45106 0.0
H496 H 0.15598 0.45646 0.3219 0.0
H497 H 0.11546 0.44945 0.38105 0.0
H498 H 0.05084 0.49606 0.48866 0.0
H499 H 0.07028 0.47413 0.39931 0.0
H500 H 0.18435 0.57252 0.43744 0.0
H501 H 0.20448 0.55093 0.34839 0.0
H502 H 0.16246 0.56368 0.59015 0.0
H503 H 0.122 0.55774 0.64926 0.0
C504 C 0.04512 0.88468 0.97348 0.0
C505 C 1.01197 0.87858 0.01691 0.0
C506 C 0.9958 0.92975 -0.00673 0.0
C507 C 0.02901 0.9361 0.95032 0.0
N508 N 0.08386 0.91971 0.8818 0.0
N509 N 0.95417 0.89312 0.04173 0.0
C510 C 0.05322 0.91351 0.93426 0.0
C511 C 0.98673 0.90052 0.01671 0.0
N512 N 0.06907 0.86305 0.97536 0.0
N513 N 0.97325 0.95165 0.01455 0.0
H514 H 0.94743 0.8716 0.05925 0.0
H515 H 0.93407 0.9077 0.0355 0.0
H516 H 0.97923 0.97335 0.00036 0.0
H517 H 0.94951 0.94839 0.05403 0.0
H518 H 0.0945 0.86645 0.95685 0.0
H519 H 0.06326 0.84156 -0.00083 0.0
H520 H 0.10125 0.90404 0.85724 0.0
H521 H 0.09131 0.94082 0.85891 0.0
C522 C 0.65684 0.0414 0.01852 0.0
C523 C 0.67724 0.01591 0.02435 0.0
C524 C 0.6437 0.99558 0.91292 0.0
C525 C 0.61871 0.01762 0.9301 0.0
N526 N 0.60057 0.06035 0.01204 0.0
N527 N 0.68851 0.96716 -0.01831 0.0
C528 C 0.62518 0.04059 -0.0151 0.0
C529 C 0.67059 0.99264 0.97165 0.0
N530 N 0.66721 0.06583 0.05021 0.0
N531 N 0.64264 0.97818 0.83827 0.0
H532 H 0.70871 0.96403 0.02286 0.0
H533 H 0.68178 0.94854 0.95435 0.0
H534 H 0.62484 0.98093 0.78821 0.0
H535 H 0.66186 0.96345 0.81804 0.0
H536 H 0.65451 0.08573 0.04101 0.0
H537 H 0.69039 0.06656 0.07588 0.0
H538 H 0.60351 0.0759 0.05973 0.0
H539 H 0.57609 0.05929 -0.00294 0.0
C540 C 0.50323 0.63345 -0.00314 0.0
C541 C 0.52995 0.63156 0.05657 0.0
C542 C 0.5378 0.58064 0.03693 0.0
C543 C 0.5149 0.58283 0.96547 0.0
N544 N 0.47924 0.61346 0.86398 0.0
N545 N 0.57977 0.60542 0.10126 0.0
C546 C 0.49842 0.60989 0.94115 0.0
C547 C 0.54998 0.60592 0.06375 0.0
N548 N 0.48202 0.65705 -0.00433 0.0
N549 N 0.54661 0.55433 0.08332 0.0
H550 H 0.58958 0.62403 0.12049 0.0
H551 H 0.59582 0.58724 0.1029 0.0
H552 H 0.53502 0.53557 0.07285 0.0
H553 H 0.56189 0.5519 0.14083 0.0
H554 H 0.46021 0.6582 0.96172 0.0
H555 H 0.48537 0.67471 0.0339 0.0
H556 H 0.4694 0.63351 0.83719 0.0
H557 H 0.47514 0.59676 0.82229 0.0
C558 C 0.91281 0.53411 0.11123 0.0
C559 C 0.90759 0.51055 0.18794 0.0
C560 C 0.95905 0.4867 0.11689 0.0
C561 C 0.96231 0.50899 0.03471 0.0
N562 N 0.93478 0.54807 0.9376 0.0
N563 N 0.92127 0.4614 0.25045 0.0
C564 C 0.93694 0.53095 0.02674 0.0
C565 C 0.92923 0.48575 0.18608 0.0
N566 N 0.89627 0.56009 0.12077 0.0
N567 N 0.9849 0.46748 0.13242 0.0
H568 H 0.89927 0.46002 0.30112 0.0
H569 H 0.93475 0.44189 0.24629 0.0
H570 H 1.00788 0.46837 0.08665 0.0
H571 H 0.98473 0.45257 0.19685 0.0
H572 H 0.90212 0.57852 0.07053 0.0
H573 H 0.87941 0.56421 0.18379 0.0
H574 H 0.91483 0.56261 0.92711 0.0
H575 H 0.95027 0.5452 0.87078 0.0
C576 C 1.00696 0.16323 0.19368 0.0
C577 C 0.03605 0.17948 0.18593 0.0
C578 C 0.06486 0.14786 0.06616 0.0
C579 C 0.03804 0.12856 0.09127 0.0
N580 N 0.98341 0.11775 0.1833 0.0
N581 N 0.09261 0.18834 0.11383 0.0
C582 C 1.00897 0.13638 0.15523 0.0
C583 C 0.06483 0.17242 0.11999 0.0
N584 N 0.97764 0.1716 0.24648 0.0
N585 N 0.08977 0.1431 -0.01029 0.0
H586 H 0.09231 0.20713 0.14944 0.0
H587 H 0.11586 0.18241 0.07733 0.0
H588 H 0.09029 0.12558 0.94773 0.0
H589 H 0.10834 0.15777 0.96221 0.0
H590 H 0.97396 0.19112 0.27786 0.0
H591 H 0.97396 0.19112 0.27786 0.0
H592 H 0.96176 0.12304 0.23017 0.0
H593 H 0.98459 0.09657 0.16507 0.0
C594 C 0.41864 0.9917 0.15203 0.0
C595 C 0.39632 0.0159 0.15897 0.0
C596 C 0.42877 0.03997 0.0062 0.0
C597 C 0.45484 0.01848 0.01434 0.0
N598 N 0.47641 0.97698 0.1149 0.0
N599 N 0.38303 0.0654 0.09769 0.0
C600 C 0.45019 0.995 0.09231 0.0
C601 C 0.40199 0.04069 0.08704 0.0
N602 N 0.41016 0.96585 0.20612 0.0
N603 N 0.42845 0.05884 0.92019 0.0
H604 H 0.36315 0.06701 0.15506 0.0
H605 H 0.38877 0.0849 0.0536 0.0
H606 H 0.44601 0.05795 0.85608 0.0
H607 H 0.40842 0.07315 0.90821 0.0
H608 H 0.42459 0.94694 0.19825 0.0
H609 H 0.38699 0.96296 0.25031 0.0
H610 H 0.47458 0.9609 0.17627 0.0
H611 H 0.50086 0.98055 0.08144 0.0
C612 C 0.54792 0.40247 0.09877 0.0
C613 C 0.52161 0.39844 0.17973 0.0
C614 C 0.49214 0.44178 0.10909 0.0
C615 C 0.51769 0.44488 0.0249 0.0
N616 N 0.56449 0.42226 0.92633 0.0
N617 N 0.46541 0.40994 0.25062 0.0
C618 C 0.54381 0.42335 0.01546 0.0
C619 C 0.4925 0.41663 0.18055 0.0
N620 N 0.57784 0.38777 0.10373 0.0
N621 N 0.46895 0.46358 0.12522 0.0
H622 H 0.46521 0.39165 0.30373 0.0
H623 H 0.44237 0.42084 0.24967 0.0
H624 H 0.4686 0.48295 0.07788 0.0
H625 H 0.45194 0.46363 0.19092 0.0
H626 H 0.59911 0.39283 0.0527 0.0
H627 H 0.58253 0.37231 0.16333 0.0
H628 H 0.58124 0.40504 0.91289 0.0
H629 H 0.56266 0.43666 0.86188 0.0
C630 C 0.17516 0.48355 0.97118 0.0
C631 C 0.18318 0.50804 0.01522 0.0
C632 C 0.13232 0.5329 0.97149 0.0
C633 C 0.12392 0.50889 0.92433 0.0
N634 N 0.14556 0.46642 0.84557 0.0
N635 N 0.17699 0.55928 0.01776 0.0
C636 C 0.14785 0.48564 0.91341 0.0
C637 C 0.16488 0.53414 -0.00271 0.0
N638 N 0.19258 0.45809 -0.01207 0.0
N639 N 0.10854 0.55278 0.00295 0.0
H640 H 0.20055 0.5599 0.0411 0.0
H641 H 0.16509 0.5793 0.00184 0.0
H642 H 0.0832 0.54973 0.00408 0.0
H643 H 0.11351 0.56962 0.04294 0.0
H644 H 0.18527 0.43872 0.96728 0.0
H645 H 0.21344 0.45635 0.02656 0.0
H646 H 0.16373 0.45032 0.83095 0.0
H647 H 0.1281 0.46901 0.79458 0.0
C648 C 0.04541 0.85935 0.37764 0.0
C649 C 1.01288 0.8501 0.376 0.0
C650 C 0.99125 0.88517 0.49228 0.0
C651 C 0.02197 0.89962 0.46829 0.0
N652 N 0.07804 0.90123 0.37745 0.0
N653 N 0.95441 0.85227 0.43782 0.0
C654 C 0.04939 0.88661 0.41 0.0
C655 C 0.98571 0.86194 0.43747 0.0
N656 N 0.072 0.84324 0.33869 0.0
N657 N 0.96777 0.89334 0.56768 0.0
H658 H 0.95012 0.83451 0.40123 0.0
H659 H 0.93292 0.8625 0.47076 0.0
H660 H 0.97159 0.9096 0.61172 0.0
H661 H 0.94608 0.88205 0.59318 0.0
H662 H 0.09667 0.84796 0.34281 0.0
H663 H 0.06874 0.8236 0.31154 0.0
H664 H 0.09742 0.8935 0.32724 0.0
H665 H 0.0811 0.92238 0.39143 0.0
C666 C 0.64884 0.97902 0.40895 0.0
C667 C 0.67266 1.001 0.39269 0.0
C668 C 0.64273 0.0232 0.53741 0.0
C669 C 0.61551 1.00472 0.53953 0.0
N670 N 0.59134 0.96712 0.46556 0.0
N671 N 0.69091 0.04573 0.43677 0.0
C672 C 0.61834 0.98291 0.47295 0.0
C673 C 0.66942 0.02347 0.45621 0.0
N674 N 0.65527 0.95466 0.36126 0.0
N675 N 0.64397 0.03956 0.61495 0.0
H676 H 0.71124 0.04629 0.37984 0.0
H677 H 0.68723 0.06443 0.47297 0.0
H678 H 0.62603 0.03889 0.67868 0.0
H679 H 0.66471 0.05127 0.62152 0.0
H680 H 0.64021 0.93676 0.37656 0.0
H681 H 0.67757 0.95132 0.31432 0.0
H682 H 0.59123 0.95294 0.41105 0.0
H683 H 0.5679 0.97038 0.50624 0.0
C684 C 0.57113 0.62586 0.45214 0.0
C685 C 0.54027 0.63287 0.41322 0.0
C686 C 0.51867 0.58767 0.49891 0.0
C687 C 0.54724 0.5821 0.55045 0.0
N688 N 0.59661 0.60274 0.59546 0.0
N689 N 0.48127 0.62475 0.43355 0.0
C690 C 0.57238 0.60322 0.53349 0.0
C691 C 0.51269 0.61557 0.45106 0.0
N692 N 0.59963 0.63934 0.40923 0.0
N693 N 0.49896 0.56583 0.48624 0.0
H694 H 0.47638 0.64535 0.39772 0.0
H695 H 0.46028 0.6129 0.46367 0.0
H696 H 0.50636 0.54428 0.50188 0.0
H697 H 0.47876 0.56904 0.44481 0.0
H698 H 0.62303 0.63261 0.4293 0.0
H699 H 0.60047 0.65543 0.34822 0.0
H700 H 0.6136 0.61919 0.58883 0.0
H701 H 0.59738 0.58824 0.66038 0.0
C702 C 0.91156 0.5534 0.52152 0.0
C703 C 0.89055 0.52948 0.53984 0.0
C704 C 0.9223 0.50873 0.67519 0.0
C705 C 0.94801 0.52855 0.638 0.0
N706 N 0.96782 0.56892 0.51728 0.0
N707 N 0.87482 0.48433 0.63583 0.0
C708 C 0.94261 0.55117 0.56037 0.0
C709 C 0.89523 0.50733 0.6186 0.0
N710 N 0.90248 0.57745 0.46173 0.0
N711 N 0.9232 0.49192 0.76558 0.0
H712 H 0.85399 0.48353 0.59805 0.0
H713 H 0.87948 0.46573 0.68376 0.0
H714 H 0.94159 0.49356 0.81201 0.0
H715 H 0.90376 0.4788 0.79969 0.0
H716 H 0.91551 0.59654 0.4513 0.0
H717 H 0.87991 0.57901 0.43143 0.0
H718 H 0.96589 0.58385 0.45387 0.0
H719 H 0.99187 0.56685 0.53736 0.0
loop_
_geom_bond_atom_site_label_1
_geom_bond_atom_site_label_2
_geom_bond_distance
_geom_bond_site_symmetry_2
_ccdc_geom_bond_type
H0 C1 0.949 . S
C1 H0 0.949 . S
C1 C2 1.395 . S
C1 C3 1.391 . S
C2 C1 1.395 . S
C2 C5 1.390 . S
C3 C1 1.391 . S
C3 C7 1.387 . S
C3 C8 1.491 . S
H4 C5 0.950 . S
C5 C2 1.390 . S
C5 H4 0.950 . S
C5 C6 1.378 . S
C6 C5 1.378 . S
C6 C7 1.409 . S
C7 C3 1.387 . S
C7 C6 1.409 . S
C7 H9 0.951 . S
C8 C3 1.491 . S
C8 C10 1.382 . S
C8 C12 1.404 . S
H9 C7 0.951 . S
C10 C8 1.382 . S
C10 C11 1.390 . S
C10 H15 0.949 . S
C11 C10 1.390 . S
C11 C16 1.399 . S
C12 C8 1.404 . S
C12 H13 0.950 . S
C12 C14 1.375 . S
H13 C12 0.950 . S
C14 C12 1.375 . S
C14 C16 1.382 . S
C14 H18 0.950 . S
H15 C10 0.949 . S
C16 C11 1.399 . S
C16 C14 1.382 . S
C16 H17 0.952 . S
H17 C16 0.952 . S
H18 C14 0.950 . S
H19 C20 0.949 . S
C20 H19 0.949 . S
C20 C21 1.395 . S
C20 C22 1.391 1_556 S
C21 C20 1.395 . S
C21 C24 1.391 1_556 S
C22 C20 1.391 1_554 S
C22 C26 1.387 . S
C22 C27 1.491 . S
H23 C24 0.949 1_455 S
C24 C21 1.391 1_554 S
C24 H23 0.949 1_655 S
C24 C25 1.378 . S
C25 C24 1.378 . S
C25 C26 1.409 . S
C26 C22 1.387 . S
C26 C25 1.409 . S
C26 H28 0.951 . S
C27 C22 1.491 . S
C27 C29 1.382 1_554 S
C27 C31 1.404 . S
H28 C26 0.951 . S
C29 C27 1.382 1_556 S
C29 C30 1.390 . S
C29 H34 0.949 1_655 S
C30 C29 1.390 . S
C30 C35 1.399 1_556 S
C31 C27 1.404 . S
C31 H32 0.950 . S
C31 C33 1.375 . S
H32 C31 0.950 . S
C33 C31 1.375 . S
C33 C35 1.382 . S
C33 H37 0.950 . S
H34 C29 0.949 1_455 S
C35 C30 1.399 1_554 S
C35 C33 1.382 . S
C35 H36 0.952 . S
H36 C35 0.952 . S
H37 C33 0.950 . S
H38 C39 0.949 . S
C39 H38 0.949 . S
C39 C40 1.395 . S
C39 C41 1.391 . S
C40 C39 1.395 . S
C40 C43 1.390 . S
C41 C39 1.391 . S
C41 C45 1.387 . S
C41 C46 1.491 . S
H42 C43 0.950 . S
C43 C40 1.390 . S
C43 H42 0.950 . S
C43 C44 1.378 . S
C44 C43 1.378 . S
C44 C45 1.409 . S
C45 C41 1.387 . S
C45 C44 1.409 . S
C45 H47 0.951 . S
C46 C41 1.491 . S
C46 C48 1.382 . S
C46 C50 1.404 . S
H47 C45 0.951 . S
C48 C46 1.382 . S
C48 C49 1.390 . S
C48 H53 0.949 1_565 S
C49 C48 1.390 . S
C49 C54 1.399 . S
C50 C46 1.404 . S
C50 H51 0.950 . S
C50 C52 1.375 . S
H51 C50 0.950 . S
C52 C50 1.375 . S
C52 C54 1.382 . S
C52 H56 0.950 . S
H53 C48 0.949 1_545 S
C54 C49 1.399 . S
C54 C52 1.382 . S
C54 H55 0.952 . S
H55 C54 0.952 . S
H56 C52 0.950 . S
H57 C58 0.949 . S
C58 H57 0.949 . S
C58 C59 1.395 . S
C58 C60 1.391 . S
C59 C58 1.395 . S
C59 C62 1.390 . S
C60 C58 1.391 . S
C60 C64 1.387 . S
C60 C65 1.491 . S
H61 C62 0.950 . S
C62 C59 1.390 . S
C62 H61 0.950 . S
C62 C63 1.378 . S
C63 C62 1.378 . S
C63 C64 1.409 . S
C64 C60 1.387 . S
C64 C63 1.409 . S
C64 H66 0.951 . S
C65 C60 1.491 . S
C65 C67 1.382 . S
C65 C69 1.404 . S
H66 C64 0.951 . S
C67 C65 1.382 . S
C67 C68 1.390 . S
C67 H72 0.949 . S
C68 C67 1.390 . S
C68 C73 1.399 . S
C69 C65 1.404 . S
C69 H70 0.950 . S
C69 C71 1.375 . S
H70 C69 0.950 . S
C71 C69 1.375 . S
C71 C73 1.382 . S
C71 H75 0.950 . S
H72 C67 0.949 . S
C73 C68 1.399 . S
C73 C71 1.382 . S
C73 H74 0.952 . S
H74 C73 0.952 . S
H75 C71 0.950 . S
H76 C77 0.949 . S
C77 H76 0.949 . S
C77 C78 1.395 . S
C77 C79 1.391 . S
C78 C77 1.395 . S
C78 C81 1.390 . S
C79 C77 1.391 . S
C79 C83 1.387 . S
C79 C84 1.491 . S
H80 C81 0.950 . S
C81 C78 1.390 . S
C81 H80 0.950 . S
C81 C82 1.378 . S
C82 C81 1.378 . S
C82 C83 1.409 . S
C83 C79 1.387 . S
C83 C82 1.409 . S
C83 H85 0.951 . S
C84 C79 1.491 . S
C84 C86 1.382 . S
C84 C88 1.404 . S
H85 C83 0.951 . S
C86 C84 1.382 . S
C86 C87 1.390 . S
C86 H91 0.949 . S
C87 C86 1.390 . S
C87 C92 1.399 . S
C88 C84 1.404 . S
C88 H89 0.950 . S
C88 C90 1.375 . S
H89 C88 0.950 . S
C90 C88 1.375 . S
C90 C92 1.382 . S
C90 H94 0.950 . S
H91 C86 0.949 . S
C92 C87 1.399 . S
C92 C90 1.382 . S
C92 H93 0.952 . S
H93 C92 0.952 . S
H94 C90 0.950 . S
H95 C96 0.949 . S
C96 H95 0.949 . S
C96 C97 1.395 . S
C96 C98 1.391 . S
C97 C96 1.395 . S
C97 C100 1.390 . S
C98 C96 1.391 . S
C98 C102 1.387 . S
C98 C103 1.491 . S
H99 C100 0.950 . S
C100 C97 1.390 . S
C100 H99 0.950 . S
C100 C101 1.378 . S
C101 C100 1.378 . S
C101 C102 1.409 . S
C102 C98 1.387 . S
C102 C101 1.409 . S
C102 H104 0.951 . S
C103 C98 1.491 . S
C103 C105 1.382 . S
C103 C107 1.404 1_455 S
H104 C102 0.951 . S
C105 C103 1.382 . S
C105 C106 1.390 . S
C105 H110 0.949 . S
C106 C105 1.390 . S
C106 C111 1.399 1_455 S
C107 C103 1.404 1_655 S
C107 H108 0.950 . S
C107 C109 1.375 . S
H108 C107 0.950 . S
C109 C107 1.375 . S
C109 C111 1.382 . S
C109 H113 0.950 . S
H110 C105 0.949 . S
C111 C106 1.399 1_655 S
C111 C109 1.382 . S
C111 H112 0.952 . S
H112 C111 0.952 . S
H113 C109 0.950 . S
H114 C115 0.949 . S
C115 H114 0.949 . S
C115 C116 1.395 . S
C115 C117 1.391 . S
C116 C115 1.395 . S
C116 C119 1.390 . S
C117 C115 1.391 . S
C117 C121 1.387 . S
C117 C122 1.491 . S
H118 C119 0.950 . S
C119 C116 1.390 . S
C119 H118 0.950 . S
C119 C120 1.378 . S
C120 C119 1.378 . S
C120 C121 1.409 . S
C121 C117 1.387 . S
C121 C120 1.409 . S
C121 H123 0.951 . S
C122 C117 1.491 . S
C122 C124 1.382 . S
C122 C126 1.404 1_545 S
H123 C121 0.951 . S
C124 C122 1.382 . S
C124 C125 1.390 . S
C124 H129 0.949 . S
C125 C124 1.390 . S
C125 C130 1.399 1_545 S
C126 C122 1.404 1_565 S
C126 H127 0.950 . S
C126 C128 1.375 . S
H127 C126 0.950 . S
C128 C126 1.375 . S
C128 C130 1.382 . S
C128 H132 0.950 . S
H129 C124 0.949 . S
C130 C125 1.399 1_565 S
C130 C128 1.382 . S
C130 H131 0.952 . S
H131 C130 0.952 . S
H132 C128 0.950 . S
H133 C134 0.949 . S
C134 H133 0.949 . S
C134 C135 1.395 . S
C134 C136 1.391 . S
C135 C134 1.395 . S
C135 C138 1.390 . S
C136 C134 1.391 . S
C136 C140 1.387 . S
C136 C141 1.491 . S
H137 C138 0.950 . S
C138 C135 1.390 . S
C138 H137 0.950 . S
C138 C139 1.378 . S
C139 C138 1.378 . S
C139 C140 1.409 . S
C140 C136 1.387 . S
C140 C139 1.409 . S
C140 H142 0.951 . S
C141 C136 1.491 . S
C141 C143 1.382 . S
C141 C145 1.404 . S
H142 C140 0.951 . S
C143 C141 1.382 . S
C143 C144 1.390 . S
C143 H148 0.949 . S
C144 C143 1.390 . S
C144 C149 1.399 . S
C145 C141 1.404 . S
C145 H146 0.950 . S
C145 C147 1.375 . S
H146 C145 0.950 . S
C147 C145 1.375 . S
C147 C149 1.382 . S
C147 H151 0.950 . S
H148 C143 0.949 . S
C149 C144 1.399 . S
C149 C147 1.382 . S
C149 H150 0.952 . S
H150 C149 0.952 . S
H151 C147 0.950 . S
C152 O168 1.251 . S
C152 O170 1.254 . S
N153 C154 1.333 . S
N153 C158 1.307 1_455 S
N153 Zn159 2.020 . S
C154 N153 1.333 . S
C154 C155 1.379 . S
C154 H172 0.952 . S
C155 C154 1.379 . S
C155 C156 1.390 1_455 S
C155 H182 0.949 . S
C156 C155 1.390 1_655 S
C156 C157 1.357 . S
C157 C156 1.357 . S
C157 C158 1.370 . S
C157 H183 0.950 . S
C158 N153 1.307 1_655 S
C158 C157 1.370 . S
C158 H176 0.948 1_565 S
Zn159 N153 2.020 . S
Zn159 O168 2.039 . S
Zn159 O174 2.034 . S
Zn159 O178 2.025 1_565 S
Zn159 O180 2.024 1_455 S
C160 O179 1.246 . S
C160 O180 1.249 1_545 S
N161 C162 1.307 . S
N161 C163 1.333 . S
N161 Zn167 2.020 1_554 S
C162 N161 1.307 . S
C162 C166 1.370 . S
C162 H173 0.948 . S
C163 N161 1.333 . S
C163 C164 1.379 . S
C163 H171 0.952 1_554 S
C164 C163 1.379 . S
C164 C165 1.390 . S
C164 H184 0.949 . S
C165 C164 1.390 . S
C165 C166 1.357 . S
C166 C162 1.370 . S
C166 C165 1.357 . S
C166 H185 0.950 . S
Zn167 N161 2.020 1_556 S
Zn167 O170 2.025 1_545 S
Zn167 O175 2.024 . S
Zn167 O177 2.039 . S
Zn167 O179 2.034 1_455 S
O168 C152 1.251 . S
O168 Zn159 2.039 . S
C169 O174 1.246 1_545 S
C169 O175 1.249 . S
O170 C152 1.254 . S
O170 Zn167 2.025 1_565 S
H171 C163 0.952 1_556 S
H172 C154 0.952 . S
H173 C162 0.948 . S
O174 Zn159 2.034 . S
O174 C169 1.246 1_565 S
O175 Zn167 2.024 . S
O175 C169 1.249 . S
H176 C158 0.948 1_545 S
O177 Zn167 2.039 . S
O177 C181 1.251 . S
O178 Zn159 2.025 1_545 S
O178 C181 1.254 . S
O179 C160 1.246 . S
O179 Zn167 2.034 1_655 S
O180 Zn159 2.024 1_655 S
O180 C160 1.249 1_565 S
C181 O177 1.251 . S
C181 O178 1.254 . S
H182 C155 0.949 . S
H183 C157 0.950 . S
H184 C164 0.949 . S
H185 C166 0.950 . S
C186 O202 1.251 . S
C186 O204 1.254 1_545 S
N187 C188 1.333 . S
N187 C192 1.307 . S
N187 Zn193 2.020 . S
C188 N187 1.333 . S
C188 C189 1.379 . S
C188 H206 0.952 . S
C189 C188 1.379 . S
C189 C190 1.390 . S
C189 H216 0.949 . S
C190 C189 1.390 . S
C190 C191 1.357 . S
C191 C190 1.357 . S
C191 C192 1.370 . S
C191 H217 0.950 . S
C192 N187 1.307 . S
C192 C191 1.370 . S
C192 H210 0.948 . S
Zn193 N187 2.020 . S
Zn193 O202 2.039 . S
Zn193 O208 2.034 . S
Zn193 O212 2.025 . S
Zn193 O214 2.024 . S
C194 O213 1.246 1_545 S
C194 O214 1.249 . S
N195 C196 1.307 . S
N195 C197 1.333 . S
N195 Zn201 2.020 . S
C196 N195 1.307 . S
C196 C200 1.370 . S
C196 H207 0.948 . S
C197 N195 1.333 . S
C197 C198 1.379 . S
C197 H205 0.952 . S
C198 C197 1.379 . S
C198 C199 1.390 . S
C198 H218 0.949 1_556 S
C199 C198 1.390 . S
C199 C200 1.357 . S
C200 C196 1.370 . S
C200 C199 1.357 . S
C200 H219 0.950 . S
Zn201 N195 2.020 . S
Zn201 O204 2.025 . S
Zn201 O209 2.024 . S
Zn201 O211 2.039 . S
Zn201 O213 2.034 . S
O202 C186 1.251 . S
O202 Zn193 2.039 . S
C203 O208 1.246 1_565 S
C203 O209 1.249 . S
O204 C186 1.254 1_565 S
O204 Zn201 2.025 . S
H205 C197 0.952 . S
H206 C188 0.952 . S
H207 C196 0.948 . S
O208 Zn193 2.034 . S
O208 C203 1.246 1_545 S
O209 Zn201 2.024 . S
O209 C203 1.249 . S
H210 C192 0.948 . S
O211 Zn201 2.039 . S
O211 C215 1.251 1_565 S
O212 Zn193 2.025 . S
O212 C215 1.254 . S
O213 C194 1.246 1_565 S
O213 Zn201 2.034 . S
O214 Zn193 2.024 . S
O214 C194 1.249 . S
C215 O211 1.251 1_545 S
C215 O212 1.254 . S
H216 C189 0.949 . S
H217 C191 0.950 . S
H218 C198 0.949 1_554 S
H219 C200 0.950 . S
C220 O236 1.251 . S
C220 O238 1.254 . S
N221 C222 1.333 . S
N221 C226 1.307 . S
N221 Zn227 2.020 . S
C222 N221 1.333 . S
C222 C223 1.379 . S
C222 H240 0.952 . S
C223 C222 1.379 . S
C223 C224 1.390 . S
C223 H250 0.949 . S
C224 C223 1.390 . S
C224 C225 1.357 . S
C225 C224 1.357 . S
C225 C226 1.370 . S
C225 H251 0.950 . S
C226 N221 1.307 . S
C226 C225 1.370 . S
C226 H244 0.948 . S
Zn227 N221 2.020 . S
Zn227 O236 2.039 . S
Zn227 O242 2.034 . S
Zn227 O246 2.025 . S
Zn227 O248 2.024 . S
C228 O247 1.246 . S
C228 O248 1.249 . S
N229 C230 1.307 . S
N229 C231 1.333 . S
N229 Zn235 2.020 . S
C230 N229 1.307 . S
C230 C234 1.370 . S
C230 H241 0.948 . S
C231 N229 1.333 . S
C231 C232 1.379 . S
C231 H239 0.952 . S
C232 C231 1.379 . S
C232 C233 1.390 . S
C232 H252 0.949 1_556 S
C233 C232 1.390 . S
C233 C234 1.357 . S
C234 C230 1.370 . S
C234 C233 1.357 . S
C234 H253 0.950 . S
Zn235 N229 2.020 . S
Zn235 O238 2.025 . S
Zn235 O243 2.024 . S
Zn235 O245 2.039 . S
Zn235 O247 2.034 . S
O236 C220 1.251 . S
O236 Zn227 2.039 . S
C237 O242 1.246 . S
C237 O243 1.249 . S
O238 C220 1.254 . S
O238 Zn235 2.025 . S
H239 C231 0.952 . S
H240 C222 0.952 . S
H241 C230 0.948 . S
O242 Zn227 2.034 . S
O242 C237 1.246 . S
O243 Zn235 2.024 . S
O243 C237 1.249 . S
H244 C226 0.948 . S
O245 Zn235 2.039 . S
O245 C249 1.251 . S
O246 Zn227 2.025 . S
O246 C249 1.254 . S
O247 C228 1.246 . S
O247 Zn235 2.034 . S
O248 Zn227 2.024 . S
O248 C228 1.249 . S
C249 O245 1.251 . S
C249 O246 1.254 . S
H250 C223 0.949 . S
H251 C225 0.950 . S
H252 C232 0.949 1_554 S
H253 C234 0.950 . S
C254 O270 1.251 . S
C254 O272 1.254 . S
N255 C256 1.333 . S
N255 C260 1.297 1_455 S
N255 Zn261 2.020 . S
C256 N255 1.333 . S
C256 C257 1.379 . S
C256 H274 0.952 . S
C257 C256 1.379 . S
C257 C258 1.390 . S
C257 H284 0.949 . S
C258 C257 1.390 . S
C258 C259 1.348 1_455 S
C259 C258 1.348 1_655 S
C259 C260 1.370 . S
C259 H285 0.962 . S
C260 N255 1.297 1_655 S
C260 C259 1.370 . S
C260 H278 0.958 . S
Zn261 N255 2.020 . S
Zn261 O270 2.039 . S
Zn261 O276 2.034 1_455 S
Zn261 O280 2.025 1_455 S
Zn261 O282 2.024 . S
C262 O281 1.246 . S
C262 O282 1.249 . S
N263 C264 1.307 . S
N263 C265 1.333 . S
N263 Zn269 2.020 . S
C264 N263 1.307 . S
C264 C268 1.370 . S
C264 H275 0.948 . S
C265 N263 1.333 . S
C265 C266 1.379 . S
C265 H273 0.952 1_455 S
C266 C265 1.379 . S
C266 C267 1.397 . S
C266 H286 0.943 1_455 S
C267 C266 1.397 . S
C267 C268 1.357 . S
C268 C264 1.370 . S
C268 C267 1.357 . S
C268 H287 0.950 . S
Zn269 N263 2.020 . S
Zn269 O272 2.025 . S
Zn269 O277 2.024 1_455 S
Zn269 O279 2.039 1_455 S
Zn269 O281 2.034 . S
O270 C254 1.251 . S
O270 Zn261 2.039 . S
C271 O276 1.246 . S
C271 O277 1.249 . S
O272 C254 1.254 . S
O272 Zn269 2.025 . S
H273 C265 0.952 1_655 S
H274 C256 0.952 . S
H275 C264 0.948 . S
O276 Zn261 2.034 1_655 S
O276 C271 1.246 . S
O277 Zn269 2.024 1_655 S
O277 C271 1.249 . S
H278 C260 0.958 . S
O279 Zn269 2.039 1_655 S
O279 C283 1.251 . S
O280 Zn261 2.025 1_655 S
O280 C283 1.254 . S
O281 C262 1.246 . S
O281 Zn269 2.034 . S
O282 Zn261 2.024 . S
O282 C262 1.249 . S
C283 O279 1.251 . S
C283 O280 1.254 . S
H284 C257 0.949 . S
H285 C259 0.962 . S
H286 C266 0.943 1_655 S
H287 C268 0.950 . S
C288 C289 1.363 1_565 S
C288 C294 1.379 . S
C288 N296 1.356 . S
C289 C288 1.363 1_545 S
C289 C295 1.363 . S
C290 C291 1.363 . S
C290 C295 1.379 . S
C290 N297 1.356 . S
C291 C290 1.363 . S
C291 C294 1.363 1_545 S
N292 C294 1.356 . S
N292 H304 0.984 . S
N292 H305 0.985 . S
N293 C295 1.356 . S
N293 H298 0.984 . S
N293 H299 0.985 . S
C294 C288 1.379 . S
C294 C291 1.363 1_565 S
C294 N292 1.356 . S
C295 C289 1.363 . S
C295 C290 1.379 . S
C295 N293 1.356 . S
N296 C288 1.356 . S
N296 H302 0.984 . S
N296 H303 0.984 . S
N297 C290 1.356 . S
N297 H300 0.984 . S
N297 H301 0.985 . S
H298 N293 0.984 . S
H299 N293 0.985 . S
H300 N297 0.984 . S
H301 N297 0.985 . S
H302 N296 0.984 . S
H303 N296 0.984 . S
H304 N292 0.984 . S
H305 N292 0.985 . S
C306 C307 1.363 . S
C306 C312 1.379 . S
C306 N314 1.356 . S
C307 C306 1.363 . S
C307 C313 1.363 . S
C308 C309 1.363 . S
C308 C313 1.379 . S
C308 N315 1.356 . S
C309 C308 1.363 . S
C309 C312 1.363 . S
N310 C312 1.356 . S
N310 H322 0.984 . S
N310 H323 0.985 . S
N311 C313 1.356 . S
N311 H316 0.984 . S
N311 H317 0.985 . S
C312 C306 1.379 . S
C312 C309 1.363 . S
C312 N310 1.356 . S
C313 C307 1.363 . S
C313 C308 1.379 . S
C313 N311 1.356 . S
N314 C306 1.356 . S
N314 H320 0.984 . S
N314 H321 0.984 . S
N315 C308 1.356 . S
N315 H318 0.984 . S
N315 H319 0.985 . S
H316 N311 0.984 . S
H317 N311 0.985 . S
H318 N315 0.984 . S
H319 N315 0.985 . S
H320 N314 0.984 . S
H321 N314 0.984 . S
H322 N310 0.984 . S
H323 N310 0.985 . S
C324 C325 1.363 . S
C324 C330 1.379 . S
C324 N332 1.356 . S
C325 C324 1.363 . S
C325 C331 1.363 . S
C326 C327 1.363 . S
C326 C331 1.379 . S
C326 N333 1.356 . S
C327 C326 1.363 . S
C327 C330 1.363 . S
N328 C330 1.356 . S
N328 H340 0.984 . S
N328 H341 0.985 . S
N329 C331 1.356 . S
N329 H334 0.984 . S
N329 H335 0.985 . S
C330 C324 1.379 . S
C330 C327 1.363 . S
C330 N328 1.356 . S
C331 C325 1.363 . S
C331 C326 1.379 . S
C331 N329 1.356 . S
N332 C324 1.356 . S
N332 H338 0.984 . S
N332 H339 0.984 . S
N333 C326 1.356 . S
N333 H336 0.984 . S
N333 H337 0.985 . S
H334 N329 0.984 . S
H335 N329 0.985 . S
H336 N333 0.984 . S
H337 N333 0.985 . S
H338 N332 0.984 . S
H339 N332 0.984 . S
H340 N328 0.984 . S
H341 N328 0.985 . S
C342 C343 1.363 . S
C342 C348 1.379 . S
C342 N350 1.356 . S
C343 C342 1.363 . S
C343 C349 1.363 . S
C344 C345 1.363 . S
C344 C349 1.379 . S
C344 N351 1.356 . S
C345 C344 1.363 . S
C345 C348 1.363 . S
N346 C348 1.356 1_655 S
N346 H358 0.984 . S
N346 H359 0.985 . S
N347 C349 1.356 . S
N347 H352 0.984 . S
N347 H353 0.985 . S
C348 C342 1.379 . S
C348 C345 1.363 . S
C348 N346 1.356 1_455 S
C349 C343 1.363 . S
C349 C344 1.379 . S
C349 N347 1.356 . S
N350 C342 1.356 . S
N350 H356 0.984 1_455 S
N350 H357 0.984 . S
N351 C344 1.356 . S
N351 H354 0.984 . S
N351 H355 0.985 . S
H352 N347 0.984 . S
H353 N347 0.985 . S
H354 N351 0.984 . S
H355 N351 0.985 . S
H356 N350 0.984 1_655 S
H357 N350 0.984 . S
H358 N346 0.984 . S
H359 N346 0.985 . S
C360 C361 1.363 1_545 S
C360 C366 1.379 . S
C360 N368 1.356 . S
C361 C360 1.363 1_565 S
C361 C367 1.363 1_556 S
C362 C363 1.363 1_565 S
C362 C367 1.379 1_556 S
C362 N369 1.356 . S
C363 C362 1.363 1_545 S
C363 C366 1.363 . S
N364 C366 1.356 . S
N364 H376 0.984 . S
N364 H377 0.985 . S
N365 C367 1.356 . S
N365 H370 0.984 . S
N365 H371 0.985 . S
C366 C360 1.379 . S
C366 C363 1.363 . S
C366 N364 1.356 . S
C367 C361 1.363 1_554 S
C367 C362 1.379 1_554 S
C367 N365 1.356 . S
N368 C360 1.356 . S
N368 H374 0.984 . S
N368 H375 0.984 . S
N369 C362 1.356 . S
N369 H372 0.984 . S
N369 H373 0.985 1_556 S
H370 N365 0.984 . S
H371 N365 0.985 . S
H372 N369 0.984 . S
H373 N369 0.985 1_554 S
H374 N368 0.984 . S
H375 N368 0.984 . S
H376 N364 0.984 . S
H377 N364 0.985 . S
C378 C379 1.363 1_556 S
C378 C384 1.379 . S
C378 N386 1.356 . S
C379 C378 1.363 1_554 S
C379 C385 1.363 . S
C380 C381 1.363 1_554 S
C380 C385 1.379 . S
C380 N387 1.356 . S
C381 C380 1.363 1_556 S
C381 C384 1.363 . S
N382 C384 1.356 . S
N382 H394 0.984 . S
N382 H395 0.985 . S
N383 C385 1.356 . S
N383 H388 0.984 . S
N383 H389 0.985 . S
C384 C378 1.379 . S
C384 C381 1.363 . S
C384 N382 1.356 . S
C385 C379 1.363 . S
C385 C380 1.379 . S
C385 N383 1.356 . S
N386 C378 1.356 . S
N386 H392 0.984 . S
N386 H393 0.984 . S
N387 C380 1.356 . S
N387 H390 0.984 . S
N387 H391 0.985 . S
H388 N383 0.984 . S
H389 N383 0.985 . S
H390 N387 0.984 . S
H391 N387 0.985 . S
H392 N386 0.984 . S
H393 N386 0.984 . S
H394 N382 0.984 . S
H395 N382 0.985 . S
C396 C397 1.363 . S
C396 C402 1.379 1_554 S
C396 N404 1.356 . S
C397 C396 1.363 . S
C397 C403 1.363 . S
C398 C399 1.363 . S
C398 C403 1.379 1_556 S
C398 N405 1.356 . S
C399 C398 1.363 . S
C399 C402 1.363 . S
N400 C402 1.356 . S
N400 H412 0.984 . S
N400 H413 0.985 . S
N401 C403 1.356 . S
N401 H406 0.984 . S
N401 H407 0.985 . S
C402 C396 1.379 1_556 S
C402 C399 1.363 . S
C402 N400 1.356 . S
C403 C397 1.363 . S
C403 C398 1.379 1_554 S
C403 N401 1.356 . S
N404 C396 1.356 . S
N404 H410 0.984 . S
N404 H411 0.984 . S
N405 C398 1.356 . S
N405 H408 0.984 . S
N405 H409 0.985 . S
H406 N401 0.984 . S
H407 N401 0.985 . S
H408 N405 0.984 . S
H409 N405 0.985 . S
H410 N404 0.984 . S
H411 N404 0.984 . S
H412 N400 0.984 . S
H413 N400 0.985 . S
C414 C415 1.374 . S
C414 C420 1.379 . S
C414 N422 1.356 1_556 S
C415 C414 1.374 . S
C415 C421 1.354 1_455 S
C416 C417 1.363 1_655 S
C416 C421 1.379 . S
C416 N423 1.356 . S
C417 C416 1.363 1_455 S
C417 C420 1.363 . S
N418 C420 1.356 . S
N418 H430 0.984 1_556 S
N418 H431 0.985 . S
N419 C421 1.356 . S
N419 H424 0.984 . S
N419 H425 0.985 . S
C420 C414 1.379 . S
C420 C417 1.363 . S
C420 N418 1.356 . S
C421 C415 1.354 1_655 S
C421 C416 1.379 . S
C421 N419 1.356 . S
N422 C414 1.356 1_554 S
N422 H428 0.984 . S
N422 H429 0.984 . S
N423 C416 1.356 . S
N423 H426 0.984 . S
N423 H427 0.985 . S
H424 N419 0.984 . S
H425 N419 0.985 . S
H426 N423 0.984 . S
H427 N423 0.985 . S
H428 N422 0.984 . S
H429 N422 0.984 . S
H430 N418 0.984 1_554 S
H431 N418 0.985 . S
C432 C433 1.363 . S
C432 C438 1.379 . S
C432 N440 1.356 . S
C433 C432 1.363 . S
C433 C439 1.363 . S
C434 C435 1.363 . S
C434 C439 1.379 . S
C434 N441 1.356 1_455 S
C435 C434 1.363 . S
C435 C438 1.363 . S
N436 C438 1.356 . S
N436 H448 0.984 . S
N436 H449 0.985 . S
N437 C439 1.356 . S
N437 H442 0.984 . S
N437 H443 0.985 1_455 S
C438 C432 1.379 . S
C438 C435 1.363 . S
C438 N436 1.356 . S
C439 C433 1.363 . S
C439 C434 1.379 . S
C439 N437 1.356 . S
N440 C432 1.356 . S
N440 H446 0.984 . S
N440 H447 0.984 . S
N441 C434 1.356 1_655 S
N441 H444 0.984 . S
N441 H445 0.985 . S
H442 N437 0.984 . S
H443 N437 0.985 1_655 S
H444 N441 0.984 . S
H445 N441 0.985 . S
H446 N440 0.984 . S
H447 N440 0.984 . S
H448 N436 0.984 . S
H449 N436 0.985 . S
C450 C451 1.363 1_565 S
C450 C456 1.379 . S
C450 N458 1.356 . S
C451 C450 1.363 1_545 S
C451 C457 1.363 . S
C452 C453 1.363 . S
C452 C457 1.379 . S
C452 N459 1.356 . S
C453 C452 1.363 . S
C453 C456 1.363 1_545 S
N454 C456 1.356 . S
N454 H466 0.984 . S
N454 H467 0.985 . S
N455 C457 1.356 . S
N455 H460 0.984 . S
N455 H461 0.985 . S
C456 C450 1.379 . S
C456 C453 1.363 1_565 S
C456 N454 1.356 . S
C457 C451 1.363 . S
C457 C452 1.379 . S
C457 N455 1.356 . S
N458 C450 1.356 . S
N458 H464 0.984 . S
N458 H465 0.984 . S
N459 C452 1.356 . S
N459 H462 0.984 . S
N459 H463 0.985 . S
H460 N455 0.984 . S
H461 N455 0.985 . S
H462 N459 0.984 . S
H463 N459 0.985 . S
H464 N458 0.984 . S
H465 N458 0.984 . S
H466 N454 0.984 . S
H467 N454 0.985 . S
C468 C469 1.363 . S
C468 C474 1.379 . S
C468 N476 1.356 . S
C469 C468 1.363 . S
C469 C475 1.363 . S
C470 C471 1.363 . S
C470 C475 1.379 . S
C470 N477 1.356 . S
C471 C470 1.363 . S
C471 C474 1.363 . S
N472 C474 1.356 . S
N472 H484 0.984 . S
N472 H485 0.985 . S
N473 C475 1.356 . S
N473 H478 0.984 . S
N473 H479 0.985 . S
C474 C468 1.379 . S
C474 C471 1.363 . S
C474 N472 1.356 . S
C475 C469 1.363 . S
C475 C470 1.379 . S
C475 N473 1.356 . S
N476 C468 1.356 . S
N476 H482 0.984 . S
N476 H483 0.984 . S
N477 C470 1.356 . S
N477 H480 0.984 . S
N477 H481 0.985 . S
H478 N473 0.984 . S
H479 N473 0.985 . S
H480 N477 0.984 . S
H481 N477 0.985 . S
H482 N476 0.984 . S
H483 N476 0.984 . S
H484 N472 0.984 . S
H485 N472 0.985 . S
C486 C487 1.363 . S
C486 C492 1.379 . S
C486 N494 1.356 . S
C487 C486 1.363 . S
C487 C493 1.363 . S
C488 C489 1.363 . S
C488 C493 1.379 . S
C488 N495 1.356 . S
C489 C488 1.363 . S
C489 C492 1.363 . S
N490 C492 1.356 . S
N490 H502 0.984 . S
N490 H503 0.985 . S
N491 C493 1.356 . S
N491 H496 0.984 . S
N491 H497 0.985 . S
C492 C486 1.379 . S
C492 C489 1.363 . S
C492 N490 1.356 . S
C493 C487 1.363 . S
C493 C488 1.379 . S
C493 N491 1.356 . S
N494 C486 1.356 . S
N494 H500 0.984 . S
N494 H501 0.984 . S
N495 C488 1.356 . S
N495 H498 0.984 . S
N495 H499 0.985 . S
H496 N491 0.984 . S
H497 N491 0.985 . S
H498 N495 0.984 . S
H499 N495 0.985 . S
H500 N494 0.984 . S
H501 N494 0.984 . S
H502 N490 0.984 . S
H503 N490 0.985 . S
C504 C505 1.363 1_455 S
C504 C510 1.379 . S
C504 N512 1.356 . S
C505 C504 1.363 1_655 S
C505 C511 1.363 . S
C506 C507 1.363 1_655 S
C506 C511 1.379 . S
C506 N513 1.356 1_556 S
C507 C506 1.363 1_455 S
C507 C510 1.363 . S
N508 C510 1.356 . S
N508 H520 0.984 . S
N508 H521 0.985 . S
N509 C511 1.356 1_554 S
N509 H514 0.984 . S
N509 H515 0.985 . S
C510 C504 1.379 . S
C510 C507 1.363 . S
C510 N508 1.356 . S
C511 C505 1.363 . S
C511 C506 1.379 . S
C511 N509 1.356 1_556 S
N512 C504 1.356 . S
N512 H518 0.984 . S
N512 H519 0.984 . S
N513 C506 1.356 1_554 S
N513 H516 0.984 . S
N513 H517 0.985 . S
H514 N509 0.984 . S
H515 N509 0.985 . S
H516 N513 0.984 . S
H517 N513 0.985 . S
H518 N512 0.984 . S
H519 N512 0.984 . S
H520 N508 0.984 . S
H521 N508 0.985 . S
C522 C523 1.363 1_545 S
C522 C528 1.379 . S
C522 N530 1.356 . S
C523 C522 1.363 1_565 S
C523 C529 1.363 1_554 S
C524 C525 1.363 1_565 S
C524 C529 1.379 . S
C524 N531 1.356 . S
C525 C524 1.363 1_545 S
C525 C528 1.363 1_556 S
N526 C528 1.356 . S
N526 H538 0.984 . S
N526 H539 0.985 . S
N527 C529 1.356 . S
N527 H532 0.984 . S
N527 H533 0.985 . S
C528 C522 1.379 . S
C528 C525 1.363 1_554 S
C528 N526 1.356 . S
C529 C523 1.363 1_556 S
C529 C524 1.379 . S
C529 N527 1.356 . S
N530 C522 1.356 . S
N530 H536 0.984 . S
N530 H537 0.984 . S
N531 C524 1.356 . S
N531 H534 0.984 . S
N531 H535 0.985 . S
H532 N527 0.984 . S
H533 N527 0.985 . S
H534 N531 0.984 . S
H535 N531 0.985 . S
H536 N530 0.984 . S
H537 N530 0.984 . S
H538 N526 0.984 . S
H539 N526 0.985 . S
C540 C541 1.363 1_556 S
C540 C546 1.379 . S
C540 N548 1.356 . S
C541 C540 1.363 1_554 S
C541 C547 1.363 . S
C542 C543 1.363 1_554 S
C542 C547 1.379 . S
C542 N549 1.356 . S
C543 C542 1.363 1_556 S
C543 C546 1.363 . S
N544 C546 1.356 . S
N544 H556 0.984 . S
N544 H557 0.985 . S
N545 C547 1.356 . S
N545 H550 0.984 . S
N545 H551 0.985 . S
C546 C540 1.379 . S
C546 C543 1.363 . S
C546 N544 1.356 . S
C547 C541 1.363 . S
C547 C542 1.379 . S
C547 N545 1.356 . S
N548 C540 1.356 . S
N548 H554 0.984 . S
N548 H555 0.984 . S
N549 C542 1.356 . S
N549 H552 0.984 1_554 S
N549 H553 0.985 . S
H550 N545 0.984 . S
H551 N545 0.985 . S
H552 N549 0.984 1_556 S
H553 N549 0.985 . S
H554 N548 0.984 . S
H555 N548 0.984 . S
H556 N544 0.984 . S
H557 N544 0.985 . S
C558 C559 1.363 1_556 S
C558 C564 1.379 . S
C558 N566 1.356 . S
C559 C558 1.363 1_554 S
C559 C565 1.363 . S
C560 C561 1.363 1_554 S
C560 C565 1.379 . S
C560 N567 1.356 . S
C561 C560 1.363 1_556 S
C561 C564 1.363 . S
N562 C564 1.356 . S
N562 H574 0.984 . S
N562 H575 0.985 . S
N563 C565 1.356 . S
N563 H568 0.984 . S
N563 H569 0.985 . S
C564 C558 1.379 . S
C564 C561 1.363 . S
C564 N562 1.356 . S
C565 C559 1.363 . S
C565 C560 1.379 . S
C565 N563 1.356 . S
N566 C558 1.356 . S
N566 H572 0.984 . S
N566 H573 0.984 1_556 S
N567 C560 1.356 . S
N567 H570 0.984 . S
N567 H571 0.985 . S
H568 N563 0.984 . S
H569 N563 0.985 . S
H570 N567 0.984 . S
H571 N567 0.985 . S
H572 N566 0.984 . S
H573 N566 0.984 1_554 S
H574 N562 0.984 . S
H575 N562 0.985 . S
C576 C577 1.363 . S
C576 C582 1.379 . S
C576 N584 1.356 1_455 S
C577 C576 1.363 . S
C577 C583 1.363 . S
C578 C579 1.363 . S
C578 C583 1.379 . S
C578 N585 1.356 . S
C579 C578 1.363 . S
C579 C582 1.363 . S
N580 C582 1.365 . S
N580 H592 0.974 1_455 S
N580 H593 0.987 . S
N581 C583 1.356 . S
N581 H586 0.984 . S
N581 H587 0.985 . S
C582 C576 1.379 . S
C582 C579 1.363 . S
C582 N580 1.365 . S
C583 C577 1.363 . S
C583 C578 1.379 . S
C583 N581 1.356 . S
N584 C576 1.356 1_655 S
N584 H590 0.984 . S
N584 H591 0.984 1_655 S
N585 C578 1.356 . S
N585 H588 0.984 . S
N585 H589 0.985 . S
H586 N581 0.984 . S
H587 N581 0.985 . S
H588 N585 0.984 . S
H589 N585 0.985 . S
H590 N584 0.984 . S
H591 N584 0.984 1_455 S
H592 N580 0.974 1_655 S
H593 N580 0.987 . S
C594 C595 1.363 1_565 S
C594 C600 1.379 . S
C594 N602 1.356 . S
C595 C594 1.363 1_545 S
C595 C601 1.363 . S
C596 C597 1.363 . S
C596 C601 1.379 . S
C596 N603 1.356 1_554 S
C597 C596 1.363 . S
C597 C600 1.363 1_545 S
N598 C600 1.356 . S
N598 H610 0.984 . S
N598 H611 0.985 . S
N599 C601 1.356 . S
N599 H604 0.984 . S
N599 H605 0.985 . S
C600 C594 1.379 . S
C600 C597 1.363 1_565 S
C600 N598 1.356 . S
C601 C595 1.363 . S
C601 C596 1.379 . S
C601 N599 1.356 . S
N602 C594 1.356 . S
N602 H608 0.984 . S
N602 H609 0.984 . S
N603 C596 1.356 1_556 S
N603 H606 0.984 . S
N603 H607 0.985 . S
H604 N599 0.984 . S
H605 N599 0.985 . S
H606 N603 0.984 . S
H607 N603 0.985 . S
H608 N602 0.984 . S
H609 N602 0.984 . S
H610 N598 0.984 . S
H611 N598 0.985 . S
C612 C613 1.363 . S
C612 C618 1.379 . S
C612 N620 1.356 . S
C613 C612 1.363 . S
C613 C619 1.363 . S
C614 C615 1.363 . S
C614 C619 1.379 . S
C614 N621 1.356 . S
C615 C614 1.363 . S
C615 C618 1.363 . S
N616 C618 1.356 . S
N616 H628 0.984 . S
N616 H629 0.985 1_554 S
N617 C619 1.356 . S
N617 H622 0.984 . S
N617 H623 0.985 . S
C618 C612 1.379 . S
C618 C615 1.363 . S
C618 N616 1.356 . S
C619 C613 1.363 . S
C619 C614 1.379 . S
C619 N617 1.356 . S
N620 C612 1.356 . S
N620 H626 0.984 . S
N620 H627 0.984 . S
N621 C614 1.356 . S
N621 H624 0.991 . S
N621 H625 0.985 . S
H622 N617 0.984 . S
H623 N617 0.985 . S
H624 N621 0.991 . S
H625 N621 0.985 . S
H626 N620 0.984 . S
H627 N620 0.984 . S
H628 N616 0.984 . S
H629 N616 0.985 1_556 S
C630 C631 1.363 . S
C630 C636 1.379 . S
C630 N638 1.356 . S
C631 C630 1.363 . S
C631 C637 1.363 . S
C632 C633 1.363 . S
C632 C637 1.379 . S
C632 N639 1.356 . S
C633 C632 1.363 . S
C633 C636 1.363 . S
N634 C636 1.356 1_556 S
N634 H646 0.984 . S
N634 H647 0.985 . S
N635 C637 1.356 . S
N635 H640 0.984 . S
N635 H641 0.985 . S
C636 C630 1.379 . S
C636 C633 1.363 . S
C636 N634 1.356 1_554 S
C637 C631 1.363 . S
C637 C632 1.379 . S
C637 N635 1.356 . S
N638 C630 1.356 . S
N638 H644 0.984 . S
N638 H645 0.984 . S
N639 C632 1.356 . S
N639 H642 0.984 . S
N639 H643 0.985 . S
H640 N635 0.984 . S
H641 N635 0.985 . S
H642 N639 0.984 . S
H643 N639 0.985 . S
H644 N638 0.984 . S
H645 N638 0.984 . S
H646 N634 0.984 . S
H647 N634 0.985 . S
C648 C649 1.363 1_455 S
C648 C654 1.379 . S
C648 N656 1.356 . S
C649 C648 1.363 1_655 S
C649 C655 1.363 . S
C650 C651 1.363 . S
C650 C655 1.379 . S
C650 N657 1.356 . S
C651 C650 1.363 . S
C651 C654 1.363 1_655 S
N652 C654 1.356 . S
N652 H664 0.984 . S
N652 H665 0.985 . S
N653 C655 1.356 . S
N653 H658 0.984 . S
N653 H659 0.985 . S
C654 C648 1.379 . S
C654 C651 1.363 1_455 S
C654 N652 1.356 . S
C655 C649 1.363 . S
C655 C650 1.379 . S
C655 N653 1.356 . S
N656 C648 1.356 . S
N656 H662 0.984 . S
N656 H663 0.984 . S
N657 C650 1.356 . S
N657 H660 0.984 . S
N657 H661 0.985 . S
H658 N653 0.984 . S
H659 N653 0.985 . S
H660 N657 0.984 . S
H661 N657 0.985 . S
H662 N656 0.984 . S
H663 N656 0.984 . S
H664 N652 0.984 . S
H665 N652 0.985 . S
C666 C667 1.363 . S
C666 C672 1.379 . S
C666 N674 1.356 . S
C667 C666 1.363 . S
C667 C673 1.363 1_565 S
C668 C669 1.363 1_545 S
C668 C673 1.379 . S
C668 N675 1.356 . S
C669 C668 1.363 1_565 S
C669 C672 1.363 . S
N670 C672 1.356 . S
N670 H682 0.984 . S
N670 H683 0.985 . S
N671 C673 1.356 . S
N671 H676 0.984 . S
N671 H677 0.985 . S
C672 C666 1.379 . S
C672 C669 1.363 . S
C672 N670 1.356 . S
C673 C667 1.363 1_545 S
C673 C668 1.379 . S
C673 N671 1.356 . S
N674 C666 1.356 . S
N674 H680 0.984 . S
N674 H681 0.984 . S
N675 C668 1.356 . S
N675 H678 0.984 . S
N675 H679 0.985 . S
H676 N671 0.984 . S
H677 N671 0.985 . S
H678 N675 0.984 . S
H679 N675 0.985 . S
H680 N674 0.984 . S
H681 N674 0.984 . S
H682 N670 0.984 . S
H683 N670 0.985 . S
C684 C685 1.363 . S
C684 C690 1.379 . S
C684 N692 1.356 . S
C685 C684 1.363 . S
C685 C691 1.363 . S
C686 C687 1.363 . S
C686 C691 1.379 . S
C686 N693 1.356 . S
C687 C686 1.363 . S
C687 C690 1.363 . S
N688 C690 1.356 . S
N688 H700 0.984 . S
N688 H701 0.985 . S
N689 C691 1.356 . S
N689 H694 0.984 . S
N689 H695 0.985 . S
C690 C684 1.379 . S
C690 C687 1.363 . S
C690 N688 1.356 . S
C691 C685 1.363 . S
C691 C686 1.379 . S
C691 N689 1.356 . S
N692 C684 1.356 . S
N692 H698 0.984 . S
N692 H699 0.984 . S
N693 C686 1.356 . S
N693 H696 0.984 . S
N693 H697 0.985 . S
H694 N689 0.984 . S
H695 N689 0.985 . S
H696 N693 0.984 . S
H697 N693 0.985 . S
H698 N692 0.984 . S
H699 N692 0.984 . S
H700 N688 0.984 . S
H701 N688 0.985 . S
C702 C703 1.363 . S
C702 C708 1.379 . S
C702 N710 1.356 . S
C703 C702 1.363 . S
C703 C709 1.363 . S
C704 C705 1.363 . S
C704 C709 1.379 . S
C704 N711 1.356 . S
C705 C704 1.363 . S
C705 C708 1.363 . S
N706 C708 1.356 . S
N706 H718 0.984 . S
N706 H719 0.985 . S
N707 C709 1.356 . S
N707 H712 0.984 . S
N707 H713 0.985 . S
C708 C702 1.379 . S
C708 C705 1.363 . S
C708 N706 1.356 . S
C709 C703 1.363 . S
C709 C704 1.379 . S
C709 N707 1.356 . S
N710 C702 1.356 . S
N710 H716 0.984 . S
N710 H717 0.984 . S
N711 C704 1.356 . S
N711 H714 0.984 . S
N711 H715 0.985 . S
H712 N707 0.984 . S
H713 N707 0.985 . S
H714 N711 0.984 . S
H715 N711 0.985 . S
H716 N710 0.984 . S
H717 N710 0.984 . S
H718 N706 0.984 . S
H719 N706 0.985 . S
C289 C125 1.764 . S
C291 C169 1.894 . S
C309 C190 1.537 . S
C307 C144 1.444 . S
C327 C224 1.464 . S
C325 C87 1.444 . S
C345 C258 1.533 . S
C343 C106 1.409 . S
C363 C160 1.894 . S
C361 C49 1.813 1_556 S
C379 C68 1.446 . S
C381 C199 1.536 . S
C397 C11 1.498 . S
C399 C233 1.464 . S
C415 C30 1.460 1_455 S
C417 C267 1.533 . S
C435 C181 0.931 . S
C433 C97 0.861 . S
C453 C186 1.389 . S
C451 C116 1.331 . S
C471 C220 1.273 . S
C469 C135 1.237 . S
C487 C78 0.717 . S
C489 C254 0.716 . S
C505 C21 0.862 . S
C507 C152 0.931 . S
C525 C215 1.389 . S
C523 C40 1.331 . S
C543 C249 1.273 . S
C541 C59 1.238 . S
C559 C2 0.717 . S
C561 C283 0.716 . S
C577 C101 1.351 . S
C579 C165 1.378 . S
C595 C120 1.722 . S
C597 C194 1.757 1_554 S
C615 C228 1.557 1_554 S
C613 C139 1.541 . S
C633 C262 1.654 1_554 S
C631 C82 1.618 . S
C649 C25 1.350 . S
C651 C156 1.378 . S
C669 C203 1.757 . S
C667 C44 1.724 . S
C687 C237 1.558 . S
C685 C63 1.539 . S
C703 C6 1.620 . S
C705 C271 1.654 . S
