# Generated by pormake.
# Topology eea, (3,6)-cn, num edge types: 1
# Building blocks:
#     Node 0, Type 0, BuildingBlock: BELTOD_clean_linker_0, # of connection points: 3
#     Node 1, Type 0, BuildingBlock: BELTOD_clean_linker_0, # of connection points: 3
#     Node 2, Type 0, BuildingBlock: BELTOD_clean_linker_0, # of connection points: 3
#     Node 3, Type 0, BuildingBlock: BELTOD_clean_linker_0, # of connection points: 3
#     Node 4, Type 0, BuildingBlock: BELTOD_clean_linker_0, # of connection points: 3
#     Node 5, Type 0, BuildingBlock: BELTOD_clean_linker_0, # of connection points: 3
#     Node 6, Type 0, BuildingBlock: BELTOD_clean_linker_0, # of connection points: 3
#     Node 7, Type 0, BuildingBlock: BELTOD_clean_linker_0, # of connection points: 3
#     Node 8, Type 0, BuildingBlock: BELTOD_clean_linker_0, # of connection points: 3
#     Node 9, Type 0, BuildingBlock: BELTOD_clean_linker_0, # of connection points: 3
#     Node 10, Type 0, BuildingBlock: BELTOD_clean_linker_0, # of connection points: 3
#     Node 11, Type 0, BuildingBlock: BELTOD_clean_linker_0, # of connection points: 3
#     Node 12, Type 0, BuildingBlock: BELTOD_clean_linker_0, # of connection points: 3
#     Node 13, Type 0, BuildingBlock: BELTOD_clean_linker_0, # of connection points: 3
#     Node 14, Type 0, BuildingBlock: BELTOD_clean_linker_0, # of connection points: 3
#     Node 15, Type 0, BuildingBlock: BELTOD_clean_linker_0, # of connection points: 3
#     Node 16, Type 0, BuildingBlock: BELTOD_clean_linker_0, # of connection points: 3
#     Node 17, Type 0, BuildingBlock: BELTOD_clean_linker_0, # of connection points: 3
#     Node 18, Type 1, BuildingBlock: CUKXOW_clean_sbu_0, # of connection points: 6
#     Node 19, Type 1, BuildingBlock: CUKXOW_clean_sbu_0, # of connection points: 6
#     Node 20, Type 1, BuildingBlock: CUKXOW_clean_sbu_0, # of connection points: 6
#     Node 21, Type 1, BuildingBlock: CUKXOW_clean_sbu_0, # of connection points: 6
#     Node 22, Type 1, BuildingBlock: CUKXOW_clean_sbu_0, # of connection points: 6
#     Node 23, Type 1, BuildingBlock: CUKXOW_clean_sbu_0, # of connection points: 6
#     Node 24, Type 1, BuildingBlock: CUKXOW_clean_sbu_0, # of connection points: 6
#     Node 25, Type 1, BuildingBlock: CUKXOW_clean_sbu_0, # of connection points: 6
#     Node 26, Type 1, BuildingBlock: CUKXOW_clean_sbu_0, # of connection points: 6
#     Edge 27, Type (0, 1), None
#     Edge 28, Type (0, 1), None
#     Edge 29, Type (0, 1), None
#     Edge 30, Type (0, 1), None
#     Edge 31, Type (0, 1), None
#     Edge 32, Type (0, 1), None
#     Edge 33, Type (0, 1), None
#     Edge 34, Type (0, 1), None
#     Edge 35, Type (0, 1), None
#     Edge 36, Type (0, 1), None
#     Edge 37, Type (0, 1), None
#     Edge 38, Type (0, 1), None
#     Edge 39, Type (0, 1), None
#     Edge 40, Type (0, 1), None
#     Edge 41, Type (0, 1), None
#     Edge 42, Type (0, 1), None
#     Edge 43, Type (0, 1), None
#     Edge 44, Type (0, 1), None
#     Edge 45, Type (0, 1), None
#     Edge 46, Type (0, 1), None
#     Edge 47, Type (0, 1), None
#     Edge 48, Type (0, 1), None
#     Edge 49, Type (0, 1), None
#     Edge 50, Type (0, 1), None
#     Edge 51, Type (0, 1), None
#     Edge 52, Type (0, 1), None
#     Edge 53, Type (0, 1), None
#     Edge 54, Type (0, 1), None
#     Edge 55, Type (0, 1), None
#     Edge 56, Type (0, 1), None
#     Edge 57, Type (0, 1), None
#     Edge 58, Type (0, 1), None
#     Edge 59, Type (0, 1), None
#     Edge 60, Type (0, 1), None
#     Edge 61, Type (0, 1), None
#     Edge 62, Type (0, 1), None
#     Edge 63, Type (0, 1), None
#     Edge 64, Type (0, 1), None
#     Edge 65, Type (0, 1), None
#     Edge 66, Type (0, 1), None
#     Edge 67, Type (0, 1), None
#     Edge 68, Type (0, 1), None
#     Edge 69, Type (0, 1), None
#     Edge 70, Type (0, 1), None
#     Edge 71, Type (0, 1), None
#     Edge 72, Type (0, 1), None
#     Edge 73, Type (0, 1), None
#     Edge 74, Type (0, 1), None
#     Edge 75, Type (0, 1), None
#     Edge 76, Type (0, 1), None
#     Edge 77, Type (0, 1), None
#     Edge 78, Type (0, 1), None
#     Edge 79, Type (0, 1), None
#     Edge 80, Type (0, 1), None
# Relax obj value: 0.017
# Max RMSD: 0.118
# Mean RMSD: 0.065
data_MOF--net-eea--node1-CUKXOW_clean_sbu_0--node2-BELTOD_clean_linker_0--edge1-none
_symmetry_space_group_name_H-M    P1
_symmetry_Int_Tables_number       1
_symmetry_cell_setting            triclinic
loop_
_symmetry_equiv_pos_as_xyz
'x, y, z'
_cell_length_a     34.223154
_cell_length_b     30.753295
_cell_length_c     32.792358
_cell_angle_alpha  94.156803
_cell_angle_beta   93.698204
_cell_angle_gamma 119.86406
loop_
_atom_site_label
_atom_site_type_symbol
_atom_site_fract_x
_atom_site_fract_y
_atom_site_fract_z
_atom_type_partial_charge
P0 P 0.30112 0.15762 0.42307 0.0
H1 H 0.29791 0.10192 0.34625 0.0
H2 H 0.25632 0.01238 0.32024 0.0
H3 H 0.18429 0.97963 0.42768 0.0
H4 H 0.22657 0.06954 0.45394 0.0
H5 H 0.33464 0.26028 0.40626 0.0
H6 H 0.29798 0.30462 0.38111 0.0
H7 H 0.16639 0.17387 0.38794 0.0
H8 H 0.20408 0.12903 0.41297 0.0
H9 H 0.38704 0.17998 0.4673 0.0
H10 H 0.25583 0.1499 0.49794 0.0
O11 O 0.34753 0.18178 0.39865 0.0
H12 H 0.41119 0.18281 0.53954 0.0
H13 H 0.27925 0.15023 0.57034 0.0
C14 C 0.26651 0.09216 0.40272 0.0
C15 C 0.27308 0.07564 0.36422 0.0
C16 C 0.249 0.0245 0.34917 0.0
C17 C 0.2173 0.98914 0.37206 0.0
C18 C 0.20837 0.00616 0.4093 0.0
C19 C 0.23299 0.05745 0.42461 0.0
C20 C 0.27222 0.19119 0.41085 0.0
C21 C 0.29792 0.24104 0.4025 0.0
C22 C 0.27667 0.26622 0.38772 0.0
C23 C 0.22899 0.24236 0.3815 0.0
C24 C 0.20309 0.19298 0.39176 0.0
C25 C 0.22464 0.16747 0.40629 0.0
C26 C 0.3196 0.16486 0.47717 0.0
C27 C 0.3635 0.1745 0.48961 0.0
C28 C 0.37734 0.17604 0.53097 0.0
C29 C 0.34719 0.16687 0.56059 0.0
C30 C 0.30338 0.1579 0.54822 0.0
C31 C 0.28984 0.15739 0.50685 0.0
P32 P 0.88628 0.11502 0.46548 0.0
H33 H 0.89102 0.03314 0.42214 0.0
H34 H 0.83602 0.95771 0.3773 0.0
H35 H 0.73867 0.00836 0.38018 0.0
H36 H 0.79531 0.08545 0.42415 0.0
H37 H 0.97543 0.20037 0.49663 0.0
H38 H 0.04191 0.25285 0.46251 0.0
H39 H 0.96424 0.18013 0.34409 0.0
H40 H 0.89699 0.1299 0.37809 0.0
H41 H 0.80065 0.06294 0.4998 0.0
H42 H 0.91455 0.21506 0.51024 0.0
O43 O 0.91069 0.0917 0.49565 0.0
H44 H 0.77363 0.08585 0.55994 0.0
H45 H 0.88853 0.23702 0.57209 0.0
C46 C 0.84634 0.06339 0.42807 0.0
C47 C 0.858 0.02828 0.41282 0.0
C48 C 0.82649 0.98526 0.3869 0.0
C49 C 0.78244 0.97631 0.37596 0.0
C50 C 0.77213 0.01387 0.38835 0.0
C51 C 0.80421 0.05756 0.41395 0.0
C52 C 0.93099 0.16157 0.44008 0.0
C53 C 0.97208 0.19714 0.46333 0.0
C54 C 0.01019 0.22668 0.4438 0.0
C55 C 0.00808 0.21989 0.40075 0.0
C56 C 0.96665 0.18561 0.37736 0.0
C57 C 0.92818 0.15707 0.3969 0.0
C58 C 0.85915 0.13751 0.49957 0.0
C59 C 0.81865 0.10195 0.51354 0.0
C60 C 0.80317 0.11497 0.54807 0.0
C61 C 0.82854 0.16342 0.56984 0.0
C62 C 0.86782 0.19984 0.55493 0.0
C63 C 0.88285 0.18708 0.51974 0.0
P64 P 0.85714 0.66188 0.43138 0.0
H65 H 0.80548 0.64995 0.35293 0.0
H66 H 0.76693 0.69325 0.32727 0.0
H67 H 0.79935 0.77998 0.44665 0.0
H68 H 0.8383 0.73723 0.47199 0.0
H69 H 0.94201 0.66643 0.46046 0.0
H70 H 0.01896 0.71283 0.44024 0.0
H71 H 0.97607 0.78962 0.35929 0.0
H72 H 0.89992 0.74379 0.3794 0.0
H73 H 0.80195 0.5712 0.4707 0.0
H74 H 0.89893 0.72848 0.50911 0.0
O75 O 0.83765 0.60645 0.40279 0.0
H76 H 0.78868 0.55762 0.54241 0.0
H77 H 0.88372 0.71587 0.58033 0.0
C78 C 0.8239 0.68938 0.41468 0.0
C79 C 0.80371 0.67771 0.37379 0.0
C80 C 0.78208 0.70279 0.35902 0.0
C81 C 0.78036 0.74002 0.38496 0.0
C82 C 0.80027 0.75144 0.42598 0.0
C83 C 0.82222 0.72662 0.44062 0.0
C84 C 0.9152 0.70195 0.42197 0.0
C85 C 0.94944 0.69398 0.43899 0.0
C86 C 0.99328 0.72031 0.42728 0.0
C87 C 0.00329 0.75459 0.39803 0.0
C88 C 0.96927 0.7634 0.38185 0.0
C89 C 0.9256 0.73718 0.39357 0.0
C90 C 0.85167 0.65085 0.48459 0.0
C91 C 0.82085 0.6027 0.4946 0.0
C92 C 0.8132 0.59493 0.53559 0.0
C93 C 0.8355 0.6355 0.56711 0.0
C94 C 0.86673 0.68355 0.55695 0.0
C95 C 0.87519 0.69098 0.51615 0.0
P96 P 0.16616 0.33589 0.59479 0.0
H97 H 0.13281 0.34279 0.67275 0.0
H98 H 0.05809 0.2987 0.69682 0.0
H99 H 0.99974 0.21877 0.57506 0.0
H100 H 0.07491 0.26286 0.55102 0.0
H101 H 0.24701 0.33703 0.5698 0.0
H102 H 0.28481 0.29015 0.58832 0.0
H103 H 0.17944 0.20543 0.66374 0.0
H104 H 0.1416 0.25175 0.64501 0.0
H105 H 0.20112 0.42836 0.55393 0.0
H106 H 0.14002 0.2682 0.51822 0.0
O107 O 0.19771 0.39136 0.62394 0.0
H108 H 0.21489 0.44394 0.48243 0.0
H109 H 0.15293 0.28337 0.4471 0.0
C110 C 0.10947 0.30703 0.60985 0.0
C111 C 0.10391 0.31636 0.65098 0.0
C112 C 0.06123 0.29077 0.66485 0.0
C113 C 0.02319 0.25522 0.63785 0.0
C114 C 0.02859 0.246 0.59653 0.0
C115 C 0.07152 0.27145 0.5827 0.0
C116 C 0.19114 0.29763 0.60551 0.0
C117 C 0.23166 0.30784 0.58982 0.0
C118 C 0.25328 0.28114 0.60049 0.0
C119 C 0.23499 0.24421 0.62747 0.0
C120 C 0.19421 0.23364 0.64282 0.0
C121 C 0.17251 0.2602 0.63201 0.0
C122 C 0.16929 0.34698 0.5414 0.0
C123 C 0.18986 0.39645 0.53064 0.0
C124 C 0.19785 0.40543 0.48981 0.0
C125 C 0.185 0.36499 0.45913 0.0
C126 C 0.16295 0.31543 0.46989 0.0
C127 C 0.15533 0.30656 0.5106 0.0
P128 P 0.7785 0.87591 0.56474 0.0
H129 H 0.86157 0.95497 0.61103 0.0
H130 H 0.88093 0.0333 0.6525 0.0
H131 H 0.73899 0.98912 0.643 0.0
H132 H 0.71987 0.90982 0.60182 0.0
H133 H 0.80261 0.80152 0.53883 0.0
H134 H 0.81781 0.74491 0.57612 0.0
H135 H 0.7708 0.78374 0.68427 0.0
H136 H 0.75565 0.84142 0.64655 0.0
H137 H 0.73703 0.92861 0.52707 0.0
H138 H 0.71775 0.77829 0.5154 0.0
O139 O 0.82271 0.89807 0.5375 0.0
H140 H 0.68729 0.90701 0.4631 0.0
H141 H 0.6695 0.75761 0.45029 0.0
C142 C 0.78958 0.92786 0.60187 0.0
C143 C 0.83452 0.9618 0.61832 0.0
C144 C 0.84551 0.00655 0.6422 0.0
C145 C 0.81163 0.01808 0.65025 0.0
C146 C 0.76596 0.98161 0.63706 0.0
C147 C 0.75499 0.9365 0.61317 0.0
C148 C 0.77882 0.82626 0.59015 0.0
C149 C 0.79471 0.79733 0.57029 0.0
C150 C 0.80343 0.76507 0.59161 0.0
C151 C 0.79594 0.76074 0.63307 0.0
C152 C 0.77675 0.78668 0.65228 0.0
C153 C 0.76826 0.81957 0.6308 0.0
C154 C 0.73001 0.85459 0.52708 0.0
C155 C 0.72025 0.89016 0.51213 0.0
C156 C 0.69197 0.87793 0.4754 0.0
C157 C 0.67395 0.83036 0.45256 0.0
C158 C 0.68207 0.79402 0.46815 0.0
C159 C 0.70972 0.80596 0.50535 0.0
P160 P 0.16044 0.83842 0.59587 0.0
H161 H 0.23198 0.89392 0.66416 0.0
H162 H 0.27488 0.98268 0.6918 0.0
H163 H 0.20378 0.01715 0.59736 0.0
H164 H 0.16023 0.9275 0.57017 0.0
H165 H 0.07211 0.75291 0.5603 0.0
H166 H 0.99594 0.7193 0.58186 0.0
H167 H 0.04817 0.84425 0.67841 0.0
H168 H 0.12372 0.877 0.65756 0.0
H169 H 0.21802 0.80848 0.55482 0.0
H170 H 0.11991 0.85201 0.51967 0.0
O171 O 0.17853 0.80614 0.62227 0.0
H172 H 0.2354 0.80742 0.48365 0.0
H173 H 0.13852 0.85309 0.44882 0.0
C174 C 0.19405 0.90445 0.61434 0.0
C175 C 0.22575 0.92049 0.64921 0.0
C176 C 0.24989 0.97127 0.66525 0.0
C177 C 0.2427 0.00696 0.64671 0.0
C178 C 0.20982 0.99052 0.61247 0.0
C179 C 0.1856 0.93949 0.59643 0.0
C180 C 0.10342 0.81802 0.60659 0.0
C181 C 0.06692 0.77353 0.58553 0.0
C182 C 0.02359 0.75434 0.598 0.0
C183 C 0.01646 0.77938 0.6318 0.0
C184 C 0.05278 0.8245 0.65213 0.0
C185 C 0.09601 0.84334 0.63993 0.0
C186 C 0.16724 0.82972 0.54242 0.0
C187 C 0.1996 0.81694 0.53165 0.0
C188 C 0.20972 0.81657 0.49101 0.0
C189 C 0.18821 0.82995 0.46068 0.0
C190 C 0.15527 0.84199 0.47144 0.0
C191 C 0.14468 0.84158 0.51196 0.0
P192 P 0.96778 0.49095 0.7564 0.0
H193 H 0.96457 0.43526 0.67959 0.0
H194 H 0.92299 0.34572 0.65357 0.0
H195 H 0.85096 0.31296 0.76101 0.0
H196 H 0.89324 0.40287 0.78728 0.0
H197 H 0.0013 0.59362 0.73961 0.0
H198 H 0.96465 0.63796 0.71446 0.0
H199 H 0.83305 0.5072 0.72126 0.0
H200 H 0.87074 0.46235 0.74629 0.0
H201 H 0.05371 0.51331 0.80064 0.0
H202 H 0.9225 0.48323 0.83128 0.0
O203 O 0.01419 0.51511 0.73199 0.0
H204 H 0.07785 0.51614 0.87287 0.0
H205 H 0.94591 0.48356 0.90368 0.0
C206 C 0.93317 0.4255 0.73605 0.0
C207 C 0.93975 0.40897 0.69756 0.0
C208 C 0.91566 0.35783 0.68251 0.0
C209 C 0.88397 0.32248 0.7054 0.0
C210 C 0.87503 0.3395 0.74263 0.0
C211 C 0.89966 0.39079 0.75794 0.0
C212 C 0.93888 0.52452 0.74419 0.0
C213 C 0.96459 0.57438 0.73585 0.0
C214 C 0.94333 0.59956 0.72107 0.0
C215 C 0.89566 0.57569 0.71483 0.0
C216 C 0.86976 0.52631 0.72509 0.0
C217 C 0.8913 0.5008 0.73961 0.0
C218 C 0.98626 0.49819 0.81051 0.0
C219 C 0.03016 0.50783 0.82294 0.0
C220 C 0.04401 0.50937 0.86431 0.0
C221 C 0.01385 0.5002 0.89392 0.0
C222 C 0.97004 0.49124 0.88156 0.0
C223 C 0.95651 0.49073 0.84019 0.0
P224 P 0.55295 0.44835 0.79881 0.0
H225 H 0.55769 0.36647 0.75547 0.0
H226 H 0.50269 0.29104 0.71063 0.0
H227 H 0.40533 0.3417 0.71351 0.0
H228 H 0.46198 0.41878 0.75749 0.0
H229 H 0.64209 0.53371 0.82996 0.0
H230 H 0.70857 0.58619 0.79584 0.0
H231 H 0.63091 0.51347 0.67742 0.0
H232 H 0.56366 0.46323 0.71142 0.0
H233 H 0.46732 0.39627 0.83313 0.0
H234 H 0.58121 0.54839 0.84357 0.0
O235 O 0.57736 0.42503 0.82899 0.0
H236 H 0.4403 0.41918 0.89328 0.0
H237 H 0.55519 0.57035 0.90542 0.0
C238 C 0.513 0.39673 0.76141 0.0
C239 C 0.52466 0.36161 0.74615 0.0
C240 C 0.49316 0.31859 0.72023 0.0
C241 C 0.44911 0.30964 0.70929 0.0
C242 C 0.4388 0.3472 0.72168 0.0
C243 C 0.47088 0.3909 0.74728 0.0
C244 C 0.59765 0.4949 0.77341 0.0
C245 C 0.63875 0.53047 0.79666 0.0
C246 C 0.67686 0.56002 0.77713 0.0
C247 C 0.67474 0.55323 0.73408 0.0
C248 C 0.63332 0.51894 0.7107 0.0
C249 C 0.59484 0.4904 0.73023 0.0
C250 C 0.52581 0.47084 0.83291 0.0
C251 C 0.48532 0.43528 0.84688 0.0
C252 C 0.46984 0.4483 0.8814 0.0
C253 C 0.49521 0.49675 0.90317 0.0
C254 C 0.53448 0.53317 0.88826 0.0
C255 C 0.54951 0.52041 0.85307 0.0
P256 P 0.52381 0.99521 0.76471 0.0
H257 H 0.47215 0.98329 0.68626 0.0
H258 H 0.4336 0.02659 0.6606 0.0
H259 H 0.46602 0.11331 0.77998 0.0
H260 H 0.50496 0.07056 0.80532 0.0
H261 H 0.60868 -0.00025 0.79378 0.0
H262 H 0.68562 0.04615 0.77356 0.0
H263 H 0.64274 0.12296 0.69263 0.0
H264 H 0.56659 0.07712 0.71274 0.0
H265 H 0.46861 0.90453 0.80403 0.0
H266 H 0.56559 0.06181 0.84245 0.0
O267 O 0.50431 0.93978 0.73612 0.0
H268 H 0.45535 0.89095 0.87574 0.0
H269 H 0.55038 0.0492 0.91366 0.0
C270 C 0.49056 0.02271 0.74801 0.0
C271 C 0.47038 0.01104 0.70712 0.0
C272 C 0.44874 0.03613 0.69236 0.0
C273 C 0.44703 0.07335 0.71829 0.0
C274 C 0.46694 0.08477 0.75932 0.0
C275 C 0.48889 0.05995 0.77395 0.0
C276 C 0.58186 0.03528 0.75531 0.0
C277 C 0.6161 0.02731 0.77232 0.0
C278 C 0.65994 0.05364 0.76061 0.0
C279 C 0.66995 0.08792 0.73136 0.0
C280 C 0.63594 0.09674 0.71519 0.0
C281 C 0.59227 0.07052 0.7269 0.0
C282 C 0.51834 0.98418 0.81792 0.0
C283 C 0.48752 0.93603 0.82793 0.0
C284 C 0.47986 0.92827 0.86893 0.0
C285 C 0.50216 0.96883 0.90044 0.0
C286 C 0.5334 0.01688 0.89028 0.0
C287 C 0.54185 0.02431 0.84948 0.0
P288 P 0.83283 0.66922 0.92813 0.0
H289 H 0.79947 0.67612 0.00608 0.0
H290 H 0.72476 0.63203 0.03016 0.0
H291 H 0.6664 0.55211 0.90839 0.0
H292 H 0.74157 0.5962 0.88435 0.0
H293 H 0.91368 0.67037 0.90314 0.0
H294 H 0.95148 0.62349 0.92166 0.0
H295 H 0.8461 0.53876 0.99707 0.0
H296 H 0.80826 0.58508 0.97834 0.0
H297 H 0.86779 0.76169 0.88726 0.0
H298 H 0.80668 0.60153 0.85155 0.0
O299 O 0.86437 0.72469 0.95727 0.0
H300 H 0.88155 0.77727 0.81577 0.0
H301 H 0.81959 0.6167 0.78043 0.0
C302 C 0.77613 0.64036 0.94319 0.0
C303 C 0.77057 0.64969 0.98431 0.0
C304 C 0.7279 0.6241 0.99819 0.0
C305 C 0.68985 0.58855 0.97118 0.0
C306 C 0.69525 0.57933 0.92987 0.0
C307 C 0.73818 0.60479 0.91603 0.0
C308 C 0.8578 0.63096 0.93885 0.0
C309 C 0.89832 0.64118 0.92316 0.0
C310 C 0.91995 0.61448 0.93383 0.0
C311 C 0.90166 0.57754 0.9608 0.0
C312 C 0.86087 0.56697 0.97614 0.0
C313 C 0.83917 0.59353 0.96534 0.0
C314 C 0.83596 0.68032 0.87474 0.0
C315 C 0.85653 0.72978 0.86398 0.0
C316 C 0.86452 0.73876 0.82315 0.0
C317 C 0.85167 0.69833 0.79247 0.0
C318 C 0.82962 0.64876 0.80322 0.0
C319 C 0.822 0.6399 0.84393 0.0
P320 P 0.44516 0.20924 0.89807 0.0
H321 H 0.52823 0.2883 0.94437 0.0
H322 H 0.54759 0.36663 0.98584 0.0
H323 H 0.40565 0.32245 0.97634 0.0
H324 H 0.38654 0.24315 0.93515 0.0
H325 H 0.46926 0.13484 0.87217 0.0
H326 H 0.48447 0.07823 0.90945 0.0
H327 H 0.43747 0.11707 0.0176 0.0
H328 H 0.42232 0.17475 0.97988 0.0
H329 H 0.4037 0.26194 0.8604 0.0
H330 H 0.38441 0.11162 0.84873 0.0
O331 O 0.48938 0.2314 0.87084 0.0
H332 H 0.35396 0.24035 0.79643 0.0
H333 H 0.33616 0.09094 0.78362 0.0
C334 C 0.45625 0.26119 0.93521 0.0
C335 C 0.50118 0.29512 0.95166 0.0
C336 C 0.51218 0.33988 0.97554 0.0
C337 C 0.4783 0.35141 0.98358 0.0
C338 C 0.43263 0.31494 0.97039 0.0
C339 C 0.42165 0.26983 0.9465 0.0
C340 C 0.44548 0.15959 0.92349 0.0
C341 C 0.46137 0.13066 0.90362 0.0
C342 C 0.47009 0.0984 0.92495 0.0
C343 C 0.4626 0.09407 0.9664 0.0
C344 C 0.44341 0.12001 0.98561 0.0
C345 C 0.43493 0.1529 0.96414 0.0
C346 C 0.39667 0.18792 0.86042 0.0
C347 C 0.38692 0.22349 0.84546 0.0
C348 C 0.35864 0.21127 0.80873 0.0
C349 C 0.34061 0.16369 0.7859 0.0
C350 C 0.34874 0.12735 0.80148 0.0
C351 C 0.37638 0.13929 0.83869 0.0
P352 P 0.82711 0.17175 0.9292 0.0
H353 H 0.89864 0.22725 0.9975 0.0
H354 H 0.94154 0.31601 0.02514 0.0
H355 H 0.87045 0.35048 0.93069 0.0
H356 H 0.8269 0.26083 0.9035 0.0
H357 H 0.73878 0.08624 0.89363 0.0
H358 H 0.66261 0.05263 0.91519 0.0
H359 H 0.71483 0.17758 0.01174 0.0
H360 H 0.79038 0.21034 0.99089 0.0
H361 H 0.88468 0.14181 0.88815 0.0
H362 H 0.78657 0.18534 0.853 0.0
O363 O 0.8452 0.13947 0.9556 0.0
H364 H 0.90207 0.14076 0.81698 0.0
H365 H 0.80519 0.18642 0.78215 0.0
C366 C 0.86072 0.23778 0.94767 0.0
C367 C 0.89241 0.25382 0.98254 0.0
C368 C 0.91655 0.3046 0.99859 0.0
C369 C 0.90936 0.34029 0.98005 0.0
C370 C 0.87649 0.32385 0.9458 0.0
C371 C 0.85227 0.27283 0.92976 0.0
C372 C 0.77009 0.15135 0.93992 0.0
C373 C 0.73359 0.10686 0.91886 0.0
C374 C 0.69026 0.08767 0.93133 0.0
C375 C 0.68312 0.11271 0.96513 0.0
C376 C 0.71945 0.15783 0.98546 0.0
C377 C 0.76268 0.17668 0.97326 0.0
C378 C 0.8339 0.16306 0.87575 0.0
C379 C 0.86627 0.15027 0.86498 0.0
C380 C 0.87639 0.1499 0.82434 0.0
C381 C 0.85488 0.16329 0.79401 0.0
C382 C 0.82193 0.17532 0.80477 0.0
C383 C 0.81135 0.17491 0.84529 0.0
P384 P 0.63445 0.82428 0.08973 0.0
H385 H 0.63124 0.76859 0.01292 0.0
H386 H 0.58965 0.67905 0.9869 0.0
H387 H 0.51762 0.64629 0.09434 0.0
H388 H 0.55991 0.73621 0.12061 0.0
H389 H 0.66797 0.92695 0.07293 0.0
H390 H 0.63131 0.97129 0.04778 0.0
H391 H 0.49972 0.84053 0.05461 0.0
H392 H 0.53741 0.79569 0.07963 0.0
H393 H 0.72038 0.84665 0.13397 0.0
H394 H 0.58916 0.81656 0.16461 0.0
O395 O 0.68086 0.84844 0.06532 0.0
H396 H 0.74452 0.84947 0.2062 0.0
H397 H 0.61258 0.8169 0.23701 0.0
C398 C 0.59984 0.75883 0.06939 0.0
C399 C 0.60641 0.7423 0.03089 0.0
C400 C 0.58233 0.69116 0.01584 0.0
C401 C 0.55063 0.65581 0.03873 0.0
C402 C 0.5417 0.67283 0.07596 0.0
C403 C 0.56632 0.72412 0.09128 0.0
C404 C 0.60555 0.85785 0.07752 0.0
C405 C 0.63125 0.90771 0.06917 0.0
C406 C 0.61 0.93289 0.05439 0.0
C407 C 0.56233 0.90902 0.04816 0.0
C408 C 0.53643 0.85965 0.05842 0.0
C409 C 0.55797 0.83413 0.07295 0.0
C410 C 0.65293 0.83152 0.14384 0.0
C411 C 0.69683 0.84117 0.15627 0.0
C412 C 0.71068 0.8427 0.19764 0.0
C413 C 0.68052 0.83353 0.22725 0.0
C414 C 0.63671 0.82457 0.21489 0.0
C415 C 0.62318 0.82406 0.17352 0.0
P416 P 0.21961 0.78168 0.13214 0.0
H417 H 0.22435 0.6998 0.08881 0.0
H418 H 0.16935 0.62437 0.04396 0.0
H419 H 0.072 0.67503 0.04685 0.0
H420 H 0.12864 0.75211 0.09082 0.0
H421 H 0.30876 0.86704 0.16329 0.0
H422 H 0.37524 0.91952 0.12917 0.0
H423 H 0.29757 0.84679 0.01075 0.0
H424 H 0.23032 0.79656 0.04476 0.0
H425 H 0.13399 0.7296 0.16647 0.0
H426 H 0.24788 0.88172 0.17691 0.0
O427 O 0.24403 0.75836 0.16232 0.0
H428 H 0.10697 0.75251 0.22661 0.0
H429 H 0.22186 0.90369 0.23875 0.0
C430 C 0.17967 0.73006 0.09474 0.0
C431 C 0.19133 0.69494 0.07949 0.0
C432 C 0.15982 0.65192 0.05356 0.0
C433 C 0.11577 0.64297 0.04262 0.0
C434 C 0.10546 0.68053 0.05501 0.0
C435 C 0.13755 0.72423 0.08062 0.0
C436 C 0.26432 0.82823 0.10675 0.0
C437 C 0.30541 0.8638 0.12999 0.0
C438 C 0.34352 0.89334 0.11047 0.0
C439 C 0.34141 0.88656 0.06741 0.0
C440 C 0.29998 0.85227 0.04403 0.0
C441 C 0.26151 0.82373 0.06356 0.0
C442 C 0.19248 0.80417 0.16624 0.0
C443 C 0.15199 0.76861 0.18021 0.0
C444 C 0.1365 0.78163 0.21473 0.0
C445 C 0.16187 0.83008 0.2365 0.0
C446 C 0.20115 0.86651 0.2216 0.0
C447 C 0.21618 0.85374 0.18641 0.0
P448 P 0.19047 0.32854 0.09805 0.0
H449 H 0.13881 0.31661 0.0196 0.0
H450 H 0.10026 0.35992 0.99394 0.0
H451 H 0.13269 0.44664 0.11331 0.0
H452 H 0.17163 0.4039 0.13866 0.0
H453 H 0.27534 0.3331 0.12712 0.0
H454 H 0.35229 0.3795 0.1069 0.0
H455 H 0.3094 0.45628 0.02595 0.0
H456 H 0.23325 0.41045 0.04606 0.0
H457 H 0.13528 0.23786 0.13736 0.0
H458 H 0.23226 0.39515 0.17578 0.0
O459 O 0.17098 0.27311 0.06945 0.0
H460 H 0.12202 0.22429 0.20908 0.0
H461 H 0.21705 0.38253 0.24699 0.0
C462 C 0.15723 0.35604 0.08135 0.0
C463 C 0.13704 0.34437 0.04045 0.0
C464 C 0.1154 0.36946 0.02569 0.0
C465 C 0.11369 0.40669 0.05163 0.0
C466 C 0.1336 0.41811 0.09265 0.0
C467 C 0.15555 0.39329 0.10728 0.0
C468 C 0.24853 0.36861 0.08864 0.0
C469 C 0.28277 0.36064 0.10566 0.0
C470 C 0.32661 0.38698 0.09394 0.0
C471 C 0.33662 0.42125 0.0647 0.0
C472 C 0.3026 0.43007 0.04852 0.0
C473 C 0.25893 0.40384 0.06023 0.0
C474 C 0.185 0.31751 0.15126 0.0
C475 C 0.15418 0.26937 0.16126 0.0
C476 C 0.14653 0.2616 0.20226 0.0
C477 C 0.16883 0.30217 0.23378 0.0
C478 C 0.20006 0.35022 0.22362 0.0
C479 C 0.20852 0.35764 0.18281 0.0
P480 P 0.4995 0.00255 0.26146 0.0
H481 H 0.46614 0.00945 0.33941 0.0
H482 H 0.39143 0.96536 0.36349 0.0
H483 H 0.33307 0.88544 0.24172 0.0
H484 H 0.40824 0.92953 0.21768 0.0
H485 H 0.58035 0.0037 0.23648 0.0
H486 H 0.61814 0.95683 0.25499 0.0
H487 H 0.51277 0.87209 0.3304 0.0
H488 H 0.47493 0.91841 0.31167 0.0
H489 H 0.53445 0.09502 0.22059 0.0
H490 H 0.47335 0.93486 0.18488 0.0
O491 O 0.53104 0.05802 0.2906 0.0
H492 H 0.54822 0.1106 0.1491 0.0
H493 H 0.48626 0.95003 0.11376 0.0
C494 C 0.4428 0.97369 0.27652 0.0
C495 C 0.43724 0.98303 0.31765 0.0
C496 C 0.39457 0.95743 0.33152 0.0
C497 C 0.35652 0.92188 0.30451 0.0
C498 C 0.36192 0.91266 0.2632 0.0
C499 C 0.40485 0.93812 0.24936 0.0
C500 C 0.52447 0.96429 0.27218 0.0
C501 C 0.56499 0.97451 0.25649 0.0
C502 C 0.58662 0.94781 0.26716 0.0
C503 C 0.56833 0.91088 0.29413 0.0
C504 C 0.52754 0.9003 0.30948 0.0
C505 C 0.50584 0.92687 0.29868 0.0
C506 C 0.50262 0.01365 0.20807 0.0
C507 C 0.52319 0.06311 0.19731 0.0
C508 C 0.53118 0.07209 0.15648 0.0
C509 C 0.51833 0.03166 0.1258 0.0
C510 C 0.49628 0.98209 0.13655 0.0
C511 C 0.48866 0.97323 0.17726 0.0
P512 P 0.11183 0.54257 0.23141 0.0
H513 H 0.1949 0.62163 0.2777 0.0
H514 H 0.21426 0.69997 0.31917 0.0
H515 H 0.07232 0.65578 0.30967 0.0
H516 H 0.0532 0.57648 0.26849 0.0
H517 H 0.13593 0.46818 0.2055 0.0
H518 H 0.15114 0.41157 0.24279 0.0
H519 H 0.10414 0.4504 0.35094 0.0
H520 H 0.08898 0.50808 0.31322 0.0
H521 H 0.07036 0.59527 0.19374 0.0
H522 H 0.05108 0.44495 0.18207 0.0
O523 O 0.15604 0.56474 0.20417 0.0
H524 H 0.02062 0.57368 0.12977 0.0
H525 H 0.00283 0.42427 0.11696 0.0
C526 C 0.12291 0.59453 0.26854 0.0
C527 C 0.16785 0.62846 0.28499 0.0
C528 C 0.17884 0.67322 0.30887 0.0
C529 C 0.14496 0.68474 0.31692 0.0
C530 C 0.0993 0.64827 0.30373 0.0
C531 C 0.08832 0.60316 0.27984 0.0
C532 C 0.11215 0.49292 0.25682 0.0
C533 C 0.12804 0.464 0.23695 0.0
C534 C 0.13676 0.43174 0.25828 0.0
C535 C 0.12927 0.4274 0.29974 0.0
C536 C 0.11008 0.45334 0.31894 0.0
C537 C 0.10159 0.48623 0.29747 0.0
C538 C 0.06334 0.52125 0.19375 0.0
C539 C 0.05358 0.55682 0.1788 0.0
C540 C 0.0253 0.5446 0.14206 0.0
C541 C 0.00728 0.49702 0.11923 0.0
C542 C 0.0154 0.46068 0.13481 0.0
C543 C 0.04305 0.47262 0.17202 0.0
P544 P 0.49378 0.50509 0.26254 0.0
H545 H 0.56531 0.56059 0.33083 0.0
H546 H 0.60822 0.64934 0.35847 0.0
H547 H 0.53711 0.68381 0.26403 0.0
H548 H 0.49356 0.59417 0.23683 0.0
H549 H 0.40544 0.41958 0.22696 0.0
H550 H 0.32927 0.38597 0.24852 0.0
H551 H 0.3815 0.51092 0.34508 0.0
H552 H 0.45705 0.54367 0.32422 0.0
H553 H 0.55135 0.47514 0.22148 0.0
H554 H 0.45324 0.51868 0.18633 0.0
O555 O 0.51186 0.47281 0.28894 0.0
H556 H 0.56873 0.47409 0.15031 0.0
H557 H 0.47185 0.51976 0.11549 0.0
C558 C 0.52738 0.57111 0.28101 0.0
C559 C 0.55908 0.58715 0.31588 0.0
C560 C 0.58322 0.63793 0.33192 0.0
C561 C 0.57603 0.67363 0.31338 0.0
C562 C 0.54315 0.65719 0.27914 0.0
C563 C 0.51893 0.60616 0.2631 0.0
C564 C 0.43675 0.48468 0.27325 0.0
C565 C 0.40026 0.44019 0.2522 0.0
C566 C 0.35693 0.42101 0.26466 0.0
C567 C 0.34979 0.44605 0.29847 0.0
C568 C 0.38612 0.49117 0.31879 0.0
C569 C 0.42935 0.51001 0.30659 0.0
C570 C 0.50057 0.49639 0.20909 0.0
C571 C 0.53293 0.4836 0.19831 0.0
C572 C 0.54305 0.48323 0.15768 0.0
C573 C 0.52155 0.49662 0.12734 0.0
C574 C 0.4886 0.50865 0.13811 0.0
C575 C 0.47801 0.50825 0.17862 0.0
Tb576 Tb 0.55913 0.04516 0.01041 0.0
C577 C 0.54117 0.9374 0.03251 0.0
Tb578 Tb 0.4611 0.95981 0.01538 0.0
O579 O 0.56208 0.08186 0.07207 0.0
O580 O 0.52054 0.00494 0.05577 0.0
O581 O 0.56901 0.98176 0.02023 0.0
C582 C 0.38299 0.91345 0.04757 0.0
O583 O 0.49759 0.92172 0.03591 0.0
C584 C 0.49051 0.96244 0.94313 0.0
C585 C 0.48021 0.06695 0.98919 0.0
O586 O 0.39019 0.89893 0.01195 0.0
O587 O 0.41957 0.95356 0.06474 0.0
O588 O 0.45822 0.92132 0.95495 0.0
O589 O 0.49999 -0.00114 0.96964 0.0
O590 O 0.45127 0.02407 1.00332 0.0
O591 O 0.52292 0.08 0.98522 0.0
C592 C 0.63865 0.09006 0.98066 0.0
O593 O 0.62729 0.1104 0.01042 0.0
O594 O 0.60556 0.04481 0.9682 0.0
C595 C 0.52994 0.04023 0.08324 0.0
Tb596 Tb 0.973 0.50983 1.00221 0.0
C597 C 0.07982 0.5917 0.0247 0.0
Tb598 Tb 0.0437 0.47561 0.00997 0.0
O599 O 0.95286 0.49037 0.06379 0.0
O600 O 0.01637 0.50805 0.04928 0.0
O601 O 0.03789 0.5827 0.01382 0.0
C602 C 0.09062 0.43292 0.03621 0.0
O603 O 0.08956 0.5552 0.02712 0.0
C604 C 0.02708 0.49675 0.93685 0.0
C605 C 0.94044 0.39454 0.99333 0.0
O606 O 0.08371 0.46449 0.05853 0.0
O607 O 0.07195 0.42619 0.99879 0.0
O608 O 0.06556 0.50083 0.95029 0.0
O609 O 0.99935 0.47662 0.96239 0.0
O610 O 0.98 0.40706 0.01351 0.0
O611 O 0.93201 0.42911 0.97964 0.0
C612 C 0.92603 0.55182 0.97431 0.0
O613 O 0.91413 0.52029 1.00164 0.0
O614 O 0.96425 0.55945 0.96258 0.0
C615 C 0.98971 0.49016 0.0759 0.0
Tb616 Tb 0.46147 0.48657 0.01958 0.0
C617 C 0.49149 0.40368 0.99963 0.0
Tb618 Tb 0.5626 0.52011 0.01231 0.0
O619 O 0.4513 0.50344 0.95675 0.0
O620 O 0.50122 0.48726 0.97354 0.0
O621 O 0.45933 0.41353 0.01003 0.0
C622 C 0.64478 0.56213 0.98612 0.0
O623 O 0.53379 0.4396 0.99648 0.0
C624 C 0.53525 0.50119 0.08534 0.0
C625 C 0.53286 0.60162 0.02691 0.0
O626 O 0.60664 0.53223 0.9634 0.0
O627 O 0.63668 0.56744 0.02378 0.0
O628 O 0.56855 0.49644 0.07307 0.0
O629 O 0.52284 0.52055 0.05877 0.0
O630 O 0.55997 0.58919 0.00858 0.0
O631 O 0.49488 0.56742 0.04034 0.0
C632 C 0.38155 0.44588 0.04956 0.0
O633 O 0.39319 0.47556 0.0208 0.0
O634 O 0.41487 0.43908 0.06128 0.0
C635 C 0.48751 0.5041 0.94588 0.0
Tb636 Tb 0.2258 0.3785 0.34374 0.0
C637 C 0.20784 0.27073 0.36584 0.0
Tb638 Tb 0.12777 0.29314 0.34871 0.0
O639 O 0.22875 0.4152 0.40541 0.0
O640 O 0.18721 0.33828 0.38911 0.0
O641 O 0.23568 0.31509 0.35357 0.0
C642 C 0.04966 0.24679 0.3809 0.0
O643 O 0.16426 0.25505 0.36925 0.0
C644 C 0.15718 0.29577 0.27647 0.0
C645 C 0.14688 0.40029 0.32252 0.0
O646 O 0.05685 0.23227 0.34528 0.0
O647 O 0.08623 0.2869 0.39808 0.0
O648 O 0.12488 0.25465 0.28829 0.0
O649 O 0.16666 0.3322 0.30297 0.0
O650 O 0.11794 0.35741 0.33666 0.0
O651 O 0.18958 0.41333 0.31855 0.0
C652 C 0.30532 0.4234 0.31399 0.0
O653 O 0.29396 0.44373 0.34375 0.0
O654 O 0.27223 0.37815 0.30154 0.0
C655 C 0.1966 0.37356 0.41657 0.0
Tb656 Tb 0.63967 0.84316 0.33554 0.0
C657 C 0.74649 0.92503 0.35803 0.0
Tb658 Tb 0.71037 0.80895 0.3433 0.0
O659 O 0.61953 0.8237 0.39712 0.0
O660 O 0.68304 0.84139 0.38261 0.0
O661 O 0.70456 0.91604 0.34715 0.0
C662 C 0.75729 0.76626 0.36954 0.0
O663 O 0.75623 0.88854 0.36045 0.0
C664 C 0.69375 0.83009 0.27018 0.0
C665 C 0.60711 0.72787 0.32666 0.0
O666 O 0.75038 0.79783 0.39186 0.0
O667 O 0.73862 0.75953 0.33212 0.0
O668 O 0.73223 0.83417 0.28362 0.0
O669 O 0.66602 0.80996 0.29572 0.0
O670 O 0.64667 0.74039 0.34684 0.0
O671 O 0.59868 0.76245 0.31298 0.0
C672 C 0.5927 0.88515 0.30764 0.0
O673 O 0.5808 0.85362 0.33498 0.0
O674 O 0.63092 0.89279 0.29592 0.0
C675 C 0.65638 0.82349 0.40923 0.0
Tb676 Tb 0.12814 0.81991 0.35291 0.0
C677 C 0.15816 0.73702 0.33296 0.0
Tb678 Tb 0.22927 0.85345 0.34565 0.0
O679 O 0.11797 0.83678 0.29008 0.0
O680 O 0.16789 0.8206 0.30687 0.0
O681 O 0.126 0.74687 0.34336 0.0
C682 C 0.31145 0.89547 0.31945 0.0
O683 O 0.20046 0.77294 0.32982 0.0
C684 C 0.20192 0.83452 0.41867 0.0
C685 C 0.19953 0.93495 0.36025 0.0
O686 O 0.27331 0.86556 0.29673 0.0
O687 O 0.30335 0.90077 0.35712 0.0
O688 O 0.23522 0.82978 0.40641 0.0
O689 O 0.18951 0.85388 0.39211 0.0
O690 O 0.22664 0.92252 0.34192 0.0
O691 O 0.16154 0.90076 0.37367 0.0
C692 C 0.04822 0.77922 0.3829 0.0
O693 O 0.05986 0.80889 0.35413 0.0
O694 O 0.08154 0.77242 0.39461 0.0
C695 C 0.15418 0.83743 0.27921 0.0
Tb696 Tb 0.89247 0.71183 0.67708 0.0
C697 C 0.8745 0.60407 0.69918 0.0
Tb698 Tb 0.79443 0.62648 0.68205 0.0
O699 O 0.89541 0.74853 0.73874 0.0
O700 O 0.85387 0.67161 0.72244 0.0
O701 O 0.90235 0.64843 0.6869 0.0
C702 C 0.71632 0.58012 0.71423 0.0
O703 O 0.83093 0.58839 0.70258 0.0
C704 C 0.82385 0.62911 0.6098 0.0
C705 C 0.81355 0.73362 0.65586 0.0
O706 O 0.72352 0.56561 0.67862 0.0
O707 O 0.7529 0.62023 0.73141 0.0
O708 O 0.79155 0.58799 0.62162 0.0
O709 O 0.83333 0.66553 0.63631 0.0
O710 O 0.78461 0.69074 0.66999 0.0
O711 O 0.85625 0.74667 0.65188 0.0
C712 C 0.97199 0.75673 0.64733 0.0
O713 O 0.96062 0.77707 0.67709 0.0
O714 O 0.93889 0.71148 0.63487 0.0
C715 C 0.86327 0.7069 0.74991 0.0
Tb716 Tb 0.30634 0.1765 0.66887 0.0
C717 C 0.41316 0.25837 0.69137 0.0
Tb718 Tb 0.37704 0.14228 0.67663 0.0
O719 O 0.2862 0.15704 0.73046 0.0
O720 O 0.34971 0.17472 0.71595 0.0
O721 O 0.37122 0.24937 0.68048 0.0
C722 C 0.42395 0.09959 0.70288 0.0
O723 O 0.4229 0.22187 0.69379 0.0
C724 C 0.36041 0.16342 0.60352 0.0
C725 C 0.27378 0.06121 0.65999 0.0
O726 O 0.41704 0.13116 0.72519 0.0
O727 O 0.40529 0.09287 0.66546 0.0
O728 O 0.39889 0.1675 0.61696 0.0
O729 O 0.33269 0.14329 0.62905 0.0
O730 O 0.31334 0.07373 0.68017 0.0
O731 O 0.26534 0.09578 0.64631 0.0
C732 C 0.25937 0.21848 0.64098 0.0
O733 O 0.24746 0.18696 0.66831 0.0
O734 O 0.29758 0.22612 0.62925 0.0
C735 C 0.32304 0.15683 0.74257 0.0
Tb736 Tb 0.7948 0.15324 0.68624 0.0
C737 C 0.82483 0.07035 0.66629 0.0
Tb738 Tb 0.89594 0.18678 0.67898 0.0
O739 O 0.78463 0.17011 0.62341 0.0
O740 O 0.83455 0.15393 0.64021 0.0
O741 O 0.79267 0.0802 0.67669 0.0
C742 C 0.97811 0.2288 0.65279 0.0
O743 O 0.86713 0.10627 0.66315 0.0
C744 C 0.86858 0.16786 0.75201 0.0
C745 C 0.8662 0.26828 0.69358 0.0
O746 O 0.93998 0.19889 0.63006 0.0
O747 O 0.97001 0.23411 0.69045 0.0
O748 O 0.90189 0.16311 0.73974 0.0
O749 O 0.85617 0.18722 0.72544 0.0
O750 O 0.8933 0.25586 0.67525 0.0
O751 O 0.82821 0.23409 0.70701 0.0
C752 C 0.71489 0.11255 0.71623 0.0
O753 O 0.72652 0.14223 0.68746 0.0
O754 O 0.7482 0.10575 0.72794 0.0
C755 C 0.82084 0.17077 0.61255 0.0
loop_
_geom_bond_atom_site_label_1
_geom_bond_atom_site_label_2
_geom_bond_distance
_geom_bond_site_symmetry_2
_ccdc_geom_bond_type
P0 O11 1.490 . S
P0 C14 1.812 . S
P0 C20 1.803 . S
P0 C26 1.819 . S
H1 C15 0.941 . S
H2 C16 0.939 . S
H3 C18 0.940 1_565 S
H4 C19 0.940 . S
H5 C21 0.939 . S
H6 C22 0.942 . S
H7 C24 0.940 . S
H8 C25 0.939 . S
H9 C27 0.941 . S
H10 C31 0.939 . S
O11 P0 1.490 . S
H12 C28 0.939 . S
H13 C30 0.940 . S
C14 P0 1.812 . S
C14 C15 1.389 . S
C14 C19 1.391 . S
C15 H1 0.941 . S
C15 C14 1.389 . S
C15 C16 1.397 . S
C16 H2 0.939 . S
C16 C15 1.397 . S
C16 C17 1.376 1_545 S
C17 C16 1.376 1_565 S
C17 C18 1.375 1_565 S
C18 H3 0.940 1_545 S
C18 C17 1.375 1_545 S
C18 C19 1.396 . S
C19 H4 0.940 . S
C19 C14 1.391 . S
C19 C18 1.396 . S
C20 P0 1.803 . S
C20 C21 1.378 . S
C20 C25 1.400 . S
C21 H5 0.939 . S
C21 C20 1.378 . S
C21 C22 1.361 . S
C22 H6 0.942 . S
C22 C21 1.361 . S
C22 C23 1.369 . S
C23 C22 1.369 . S
C23 C24 1.404 . S
C24 H7 0.940 . S
C24 C23 1.404 . S
C24 C25 1.389 . S
C25 H8 0.939 . S
C25 C20 1.400 . S
C25 C24 1.389 . S
C26 P0 1.819 . S
C26 C27 1.391 . S
C26 C31 1.391 . S
C27 H9 0.941 . S
C27 C26 1.391 . S
C27 C28 1.396 . S
C28 H12 0.939 . S
C28 C27 1.396 . S
C28 C29 1.397 . S
C29 C28 1.397 . S
C29 C30 1.385 . S
C30 H13 0.940 . S
C30 C29 1.385 . S
C30 C31 1.388 . S
C31 H10 0.939 . S
C31 C26 1.391 . S
C31 C30 1.388 . S
P32 O43 1.490 . S
P32 C46 1.812 . S
P32 C52 1.803 . S
P32 C58 1.819 . S
H33 C47 0.941 . S
H34 C48 0.939 . S
H35 C50 0.940 . S
H36 C51 0.940 . S
H37 C53 0.939 . S
H38 C54 0.942 . S
H39 C56 0.940 . S
H40 C57 0.939 . S
H41 C59 0.941 . S
H42 C63 0.939 . S
O43 P32 1.490 . S
H44 C60 0.939 . S
H45 C62 0.940 . S
C46 P32 1.812 . S
C46 C47 1.389 . S
C46 C51 1.391 . S
C47 H33 0.941 . S
C47 C46 1.389 . S
C47 C48 1.397 1_545 S
C48 H34 0.939 . S
C48 C47 1.397 1_565 S
C48 C49 1.378 . S
C49 C48 1.378 . S
C49 C50 1.378 1_565 S
C50 H35 0.940 . S
C50 C49 1.378 1_545 S
C50 C51 1.396 . S
C51 H36 0.940 . S
C51 C46 1.391 . S
C51 C50 1.396 . S
C52 P32 1.803 . S
C52 C53 1.378 . S
C52 C57 1.400 . S
C53 H37 0.939 . S
C53 C52 1.378 . S
C53 C54 1.361 1_655 S
C54 H38 0.942 . S
C54 C53 1.361 1_455 S
C54 C55 1.368 1_455 S
C55 C54 1.368 1_655 S
C55 C56 1.406 . S
C56 H39 0.940 . S
C56 C55 1.406 . S
C56 C57 1.389 . S
C57 H40 0.939 . S
C57 C52 1.400 . S
C57 C56 1.389 . S
C58 P32 1.819 . S
C58 C59 1.391 . S
C58 C63 1.391 . S
C59 H41 0.941 . S
C59 C58 1.391 . S
C59 C60 1.396 . S
C60 H44 0.939 . S
C60 C59 1.396 . S
C60 C61 1.397 . S
C61 C60 1.397 . S
C61 C62 1.385 . S
C62 H45 0.940 . S
C62 C61 1.385 . S
C62 C63 1.388 . S
C63 H42 0.939 . S
C63 C58 1.391 . S
C63 C62 1.388 . S
P64 O75 1.490 . S
P64 C78 1.812 . S
P64 C84 1.803 . S
P64 C90 1.819 . S
H65 C79 0.941 . S
H66 C80 0.939 . S
H67 C82 0.940 . S
H68 C83 0.940 . S
H69 C85 0.939 . S
H70 C86 0.942 . S
H71 C88 0.940 . S
H72 C89 0.939 . S
H73 C91 0.941 . S
H74 C95 0.939 . S
O75 P64 1.490 . S
H76 C92 0.939 . S
H77 C94 0.940 . S
C78 P64 1.812 . S
C78 C79 1.389 . S
C78 C83 1.391 . S
C79 H65 0.941 . S
C79 C78 1.389 . S
C79 C80 1.397 . S
C80 H66 0.939 . S
C80 C79 1.397 . S
C80 C81 1.378 . S
C81 C80 1.378 . S
C81 C82 1.378 . S
C82 H67 0.940 . S
C82 C81 1.378 . S
C82 C83 1.396 . S
C83 H68 0.940 . S
C83 C78 1.391 . S
C83 C82 1.396 . S
C84 P64 1.803 . S
C84 C85 1.378 . S
C84 C89 1.400 . S
C85 H69 0.939 . S
C85 C84 1.378 . S
C85 C86 1.361 . S
C86 H70 0.942 . S
C86 C85 1.361 . S
C86 C87 1.369 1_655 S
C87 C86 1.369 1_455 S
C87 C88 1.406 1_455 S
C88 H71 0.940 . S
C88 C87 1.406 1_655 S
C88 C89 1.389 . S
C89 H72 0.939 . S
C89 C84 1.400 . S
C89 C88 1.389 . S
C90 P64 1.819 . S
C90 C91 1.391 . S
C90 C95 1.391 . S
C91 H73 0.941 . S
C91 C90 1.391 . S
C91 C92 1.396 . S
C92 H76 0.939 . S
C92 C91 1.396 . S
C92 C93 1.397 . S
C93 C92 1.397 . S
C93 C94 1.385 . S
C94 H77 0.940 . S
C94 C93 1.385 . S
C94 C95 1.388 . S
C95 H74 0.939 . S
C95 C90 1.391 . S
C95 C94 1.388 . S
P96 O107 1.490 . S
P96 C110 1.812 . S
P96 C116 1.803 . S
P96 C122 1.819 . S
H97 C111 0.941 . S
H98 C112 0.939 . S
H99 C114 0.939 1_655 S
H100 C115 0.940 . S
H101 C117 0.939 . S
H102 C118 0.942 . S
H103 C120 0.940 . S
H104 C121 0.939 . S
H105 C123 0.941 . S
H106 C127 0.939 . S
O107 P96 1.490 . S
H108 C124 0.939 . S
H109 C126 0.940 . S
C110 P96 1.812 . S
C110 C111 1.389 . S
C110 C115 1.391 . S
C111 H97 0.941 . S
C111 C110 1.389 . S
C111 C112 1.397 . S
C112 H98 0.939 . S
C112 C111 1.397 . S
C112 C113 1.378 . S
C113 C112 1.378 . S
C113 C114 1.378 . S
C114 H99 0.939 1_455 S
C114 C113 1.378 . S
C114 C115 1.396 . S
C115 H100 0.940 . S
C115 C110 1.391 . S
C115 C114 1.396 . S
C116 P96 1.803 . S
C116 C117 1.378 . S
C116 C121 1.400 . S
C117 H101 0.939 . S
C117 C116 1.378 . S
C117 C118 1.361 . S
C118 H102 0.942 . S
C118 C117 1.361 . S
C118 C119 1.369 . S
C119 C118 1.369 . S
C119 C120 1.404 . S
C120 H103 0.940 . S
C120 C119 1.404 . S
C120 C121 1.389 . S
C121 H104 0.939 . S
C121 C116 1.400 . S
C121 C120 1.389 . S
C122 P96 1.819 . S
C122 C123 1.391 . S
C122 C127 1.391 . S
C123 H105 0.941 . S
C123 C122 1.391 . S
C123 C124 1.396 . S
C124 H108 0.939 . S
C124 C123 1.396 . S
C124 C125 1.397 . S
C125 C124 1.397 . S
C125 C126 1.385 . S
C126 H109 0.940 . S
C126 C125 1.385 . S
C126 C127 1.388 . S
C127 H106 0.939 . S
C127 C122 1.391 . S
C127 C126 1.388 . S
P128 O139 1.490 . S
P128 C142 1.812 . S
P128 C148 1.803 . S
P128 C154 1.819 . S
H129 C143 0.941 . S
H130 C144 0.939 . S
H131 C146 0.940 . S
H132 C147 0.940 . S
H133 C149 0.939 . S
H134 C150 0.942 . S
H135 C152 0.940 . S
H136 C153 0.939 . S
H137 C155 0.941 . S
H138 C159 0.939 . S
O139 P128 1.490 . S
H140 C156 0.939 . S
H141 C158 0.940 . S
C142 P128 1.812 . S
C142 C143 1.389 . S
C142 C147 1.391 . S
C143 H129 0.941 . S
C143 C142 1.389 . S
C143 C144 1.397 1_565 S
C144 H130 0.939 . S
C144 C143 1.397 1_545 S
C144 C145 1.378 . S
C145 C144 1.378 . S
C145 C146 1.378 1_545 S
C146 H131 0.940 . S
C146 C145 1.378 1_565 S
C146 C147 1.396 . S
C147 H132 0.940 . S
C147 C142 1.391 . S
C147 C146 1.396 . S
C148 P128 1.803 . S
C148 C149 1.378 . S
C148 C153 1.400 . S
C149 H133 0.939 . S
C149 C148 1.378 . S
C149 C150 1.361 . S
C150 H134 0.942 . S
C150 C149 1.361 . S
C150 C151 1.369 . S
C151 C150 1.369 . S
C151 C152 1.404 . S
C152 H135 0.940 . S
C152 C151 1.404 . S
C152 C153 1.389 . S
C153 H136 0.939 . S
C153 C148 1.400 . S
C153 C152 1.389 . S
C154 P128 1.819 . S
C154 C155 1.391 . S
C154 C159 1.391 . S
C155 H137 0.941 . S
C155 C154 1.391 . S
C155 C156 1.396 . S
C156 H140 0.939 . S
C156 C155 1.396 . S
C156 C157 1.397 . S
C157 C156 1.397 . S
C157 C158 1.385 . S
C158 H141 0.940 . S
C158 C157 1.385 . S
C158 C159 1.388 . S
C159 H138 0.939 . S
C159 C154 1.391 . S
C159 C158 1.388 . S
P160 O171 1.490 . S
P160 C174 1.812 . S
P160 C180 1.803 . S
P160 C186 1.819 . S
H161 C175 0.941 . S
H162 C176 0.939 . S
H163 C178 0.940 1_545 S
H164 C179 0.940 . S
H165 C181 0.939 . S
H166 C182 0.942 . S
H167 C184 0.940 . S
H168 C185 0.939 . S
H169 C187 0.941 . S
H170 C191 0.939 . S
O171 P160 1.490 . S
H172 C188 0.939 . S
H173 C190 0.940 . S
C174 P160 1.812 . S
C174 C175 1.389 . S
C174 C179 1.391 . S
C175 H161 0.941 . S
C175 C174 1.389 . S
C175 C176 1.397 . S
C176 H162 0.939 . S
C176 C175 1.397 . S
C176 C177 1.378 1_565 S
C177 C176 1.378 1_545 S
C177 C178 1.378 1_545 S
C178 H163 0.940 1_565 S
C178 C177 1.378 1_565 S
C178 C179 1.396 . S
C179 H164 0.940 . S
C179 C174 1.391 . S
C179 C178 1.396 . S
C180 P160 1.803 . S
C180 C181 1.378 . S
C180 C185 1.400 . S
C181 H165 0.939 . S
C181 C180 1.378 . S
C181 C182 1.361 . S
C182 H166 0.942 . S
C182 C181 1.361 . S
C182 C183 1.369 . S
C183 C182 1.369 . S
C183 C184 1.404 . S
C184 H167 0.940 . S
C184 C183 1.404 . S
C184 C185 1.389 . S
C185 H168 0.939 . S
C185 C180 1.400 . S
C185 C184 1.389 . S
C186 P160 1.819 . S
C186 C187 1.391 . S
C186 C191 1.391 . S
C187 H169 0.941 . S
C187 C186 1.391 . S
C187 C188 1.396 . S
C188 H172 0.939 . S
C188 C187 1.396 . S
C188 C189 1.397 . S
C189 C188 1.397 . S
C189 C190 1.385 . S
C190 H173 0.940 . S
C190 C189 1.385 . S
C190 C191 1.388 . S
C191 H170 0.939 . S
C191 C186 1.391 . S
C191 C190 1.388 . S
P192 O203 1.490 1_655 S
P192 C206 1.812 . S
P192 C212 1.803 . S
P192 C218 1.819 . S
H193 C207 0.941 . S
H194 C208 0.939 . S
H195 C210 0.940 . S
H196 C211 0.940 . S
H197 C213 0.939 1_455 S
H198 C214 0.942 . S
H199 C216 0.940 . S
H200 C217 0.939 . S
H201 C219 0.941 . S
H202 C223 0.939 . S
O203 P192 1.490 1_455 S
H204 C220 0.939 . S
H205 C222 0.940 . S
C206 P192 1.812 . S
C206 C207 1.389 . S
C206 C211 1.391 . S
C207 H193 0.941 . S
C207 C206 1.389 . S
C207 C208 1.397 . S
C208 H194 0.939 . S
C208 C207 1.397 . S
C208 C209 1.378 . S
C209 C208 1.378 . S
C209 C210 1.378 . S
C210 H195 0.940 . S
C210 C209 1.378 . S
C210 C211 1.396 . S
C211 H196 0.940 . S
C211 C206 1.391 . S
C211 C210 1.396 . S
C212 P192 1.803 . S
C212 C213 1.378 . S
C212 C217 1.400 . S
C213 H197 0.939 1_655 S
C213 C212 1.378 . S
C213 C214 1.361 . S
C214 H198 0.942 . S
C214 C213 1.361 . S
C214 C215 1.369 . S
C215 C214 1.369 . S
C215 C216 1.404 . S
C216 H199 0.940 . S
C216 C215 1.404 . S
C216 C217 1.389 . S
C217 H200 0.939 . S
C217 C212 1.400 . S
C217 C216 1.389 . S
C218 P192 1.819 . S
C218 C219 1.391 1_655 S
C218 C223 1.391 . S
C219 H201 0.941 . S
C219 C218 1.391 1_455 S
C219 C220 1.396 . S
C220 H204 0.939 . S
C220 C219 1.396 . S
C220 C221 1.397 1_455 S
C221 C220 1.397 1_655 S
C221 C222 1.385 . S
C222 H205 0.940 . S
C222 C221 1.385 . S
C222 C223 1.388 . S
C223 H202 0.939 . S
C223 C218 1.391 . S
C223 C222 1.388 . S
P224 O235 1.490 . S
P224 C238 1.812 . S
P224 C244 1.803 . S
P224 C250 1.819 . S
H225 C239 0.941 . S
H226 C240 0.939 . S
H227 C242 0.940 . S
H228 C243 0.940 . S
H229 C245 0.939 . S
H230 C246 0.942 . S
H231 C248 0.940 . S
H232 C249 0.939 . S
H233 C251 0.941 . S
H234 C255 0.939 . S
O235 P224 1.490 . S
H236 C252 0.939 . S
H237 C254 0.940 . S
C238 P224 1.812 . S
C238 C239 1.389 . S
C238 C243 1.391 . S
C239 H225 0.941 . S
C239 C238 1.389 . S
C239 C240 1.397 . S
C240 H226 0.939 . S
C240 C239 1.397 . S
C240 C241 1.378 . S
C241 C240 1.378 . S
C241 C242 1.378 . S
C242 H227 0.940 . S
C242 C241 1.378 . S
C242 C243 1.396 . S
C243 H228 0.940 . S
C243 C238 1.391 . S
C243 C242 1.396 . S
C244 P224 1.803 . S
C244 C245 1.378 . S
C244 C249 1.400 . S
C245 H229 0.939 . S
C245 C244 1.378 . S
C245 C246 1.361 . S
C246 H230 0.942 . S
C246 C245 1.361 . S
C246 C247 1.369 . S
C247 C246 1.369 . S
C247 C248 1.404 . S
C248 H231 0.940 . S
C248 C247 1.404 . S
C248 C249 1.389 . S
C249 H232 0.939 . S
C249 C244 1.400 . S
C249 C248 1.389 . S
C250 P224 1.819 . S
C250 C251 1.391 . S
C250 C255 1.391 . S
C251 H233 0.941 . S
C251 C250 1.391 . S
C251 C252 1.396 . S
C252 H236 0.939 . S
C252 C251 1.396 . S
C252 C253 1.397 . S
C253 C252 1.397 . S
C253 C254 1.385 . S
C254 H237 0.940 . S
C254 C253 1.385 . S
C254 C255 1.388 . S
C255 H234 0.939 . S
C255 C250 1.391 . S
C255 C254 1.388 . S
P256 O267 1.490 . S
P256 C270 1.812 1_565 S
P256 C276 1.803 1_565 S
P256 C282 1.817 . S
H257 C271 0.941 1_565 S
H258 C272 0.939 . S
H259 C274 0.940 . S
H260 C275 0.940 . S
H261 C277 0.939 1_565 S
H262 C278 0.942 . S
H263 C280 0.940 . S
H264 C281 0.939 . S
H265 C283 0.941 . S
H266 C287 0.939 . S
O267 P256 1.490 . S
H268 C284 0.939 . S
H269 C286 0.940 . S
C270 P256 1.812 1_545 S
C270 C271 1.389 . S
C270 C275 1.391 . S
C271 H257 0.941 1_545 S
C271 C270 1.389 . S
C271 C272 1.397 . S
C272 H258 0.939 . S
C272 C271 1.397 . S
C272 C273 1.378 . S
C273 C272 1.378 . S
C273 C274 1.378 . S
C274 H259 0.940 . S
C274 C273 1.378 . S
C274 C275 1.396 . S
C275 H260 0.940 . S
C275 C270 1.391 . S
C275 C274 1.396 . S
C276 P256 1.803 1_545 S
C276 C277 1.378 . S
C276 C281 1.400 . S
C277 H261 0.939 1_545 S
C277 C276 1.378 . S
C277 C278 1.361 . S
C278 H262 0.942 . S
C278 C277 1.361 . S
C278 C279 1.369 . S
C279 C278 1.369 . S
C279 C280 1.404 . S
C280 H263 0.940 . S
C280 C279 1.404 . S
C280 C281 1.389 . S
C281 H264 0.939 . S
C281 C276 1.400 . S
C281 C280 1.389 . S
C282 P256 1.817 . S
C282 C283 1.396 . S
C282 C287 1.389 1_565 S
C283 H265 0.941 . S
C283 C282 1.396 . S
C283 C284 1.396 . S
C284 H268 0.939 . S
C284 C283 1.396 . S
C284 C285 1.397 . S
C285 C284 1.397 . S
C285 C286 1.385 1_565 S
C286 H269 0.940 . S
C286 C285 1.385 1_545 S
C286 C287 1.388 . S
C287 H266 0.939 . S
C287 C282 1.389 1_545 S
C287 C286 1.388 . S
P288 O299 1.490 . S
P288 C302 1.812 . S
P288 C308 1.803 . S
P288 C314 1.819 . S
H289 C303 0.941 . S
H290 C304 0.939 1_554 S
H291 C306 0.940 . S
H292 C307 0.940 . S
H293 C309 0.939 . S
H294 C310 0.942 . S
H295 C312 0.940 . S
H296 C313 0.939 . S
H297 C315 0.941 . S
H298 C319 0.939 . S
O299 P288 1.490 . S
H300 C316 0.939 . S
H301 C318 0.940 . S
C302 P288 1.812 . S
C302 C303 1.389 . S
C302 C307 1.391 . S
C303 H289 0.941 . S
C303 C302 1.389 . S
C303 C304 1.397 . S
C304 H290 0.939 1_556 S
C304 C303 1.397 . S
C304 C305 1.378 . S
C305 C304 1.378 . S
C305 C306 1.378 . S
C306 H291 0.940 . S
C306 C305 1.378 . S
C306 C307 1.396 . S
C307 H292 0.940 . S
C307 C302 1.391 . S
C307 C306 1.396 . S
C308 P288 1.803 . S
C308 C309 1.378 . S
C308 C313 1.400 . S
C309 H293 0.939 . S
C309 C308 1.378 . S
C309 C310 1.361 . S
C310 H294 0.942 . S
C310 C309 1.361 . S
C310 C311 1.369 . S
C311 C310 1.369 . S
C311 C312 1.404 . S
C312 H295 0.940 . S
C312 C311 1.404 . S
C312 C313 1.389 . S
C313 H296 0.939 . S
C313 C308 1.400 . S
C313 C312 1.389 . S
C314 P288 1.819 . S
C314 C315 1.391 . S
C314 C319 1.391 . S
C315 H297 0.941 . S
C315 C314 1.391 . S
C315 C316 1.396 . S
C316 H300 0.939 . S
C316 C315 1.396 . S
C316 C317 1.397 . S
C317 C316 1.397 . S
C317 C318 1.385 . S
C318 H301 0.940 . S
C318 C317 1.385 . S
C318 C319 1.388 . S
C319 H298 0.939 . S
C319 C314 1.391 . S
C319 C318 1.388 . S
P320 O331 1.490 . S
P320 C334 1.812 . S
P320 C340 1.803 . S
P320 C346 1.819 . S
H321 C335 0.941 . S
H322 C336 0.939 . S
H323 C338 0.940 . S
H324 C339 0.940 . S
H325 C341 0.939 . S
H326 C342 0.942 . S
H327 C344 0.940 . S
H328 C345 0.939 . S
H329 C347 0.941 . S
H330 C351 0.939 . S
O331 P320 1.490 . S
H332 C348 0.939 . S
H333 C350 0.940 . S
C334 P320 1.812 . S
C334 C335 1.389 . S
C334 C339 1.391 . S
C335 H321 0.941 . S
C335 C334 1.389 . S
C335 C336 1.397 . S
C336 H322 0.939 . S
C336 C335 1.397 . S
C336 C337 1.378 . S
C337 C336 1.378 . S
C337 C338 1.378 . S
C338 H323 0.940 . S
C338 C337 1.378 . S
C338 C339 1.396 . S
C339 H324 0.940 . S
C339 C334 1.391 . S
C339 C338 1.396 . S
C340 P320 1.803 . S
C340 C341 1.378 . S
C340 C345 1.400 . S
C341 H325 0.939 . S
C341 C340 1.378 . S
C341 C342 1.361 . S
C342 H326 0.942 . S
C342 C341 1.361 . S
C342 C343 1.369 . S
C343 C342 1.369 . S
C343 C344 1.404 . S
C344 H327 0.940 . S
C344 C343 1.404 . S
C344 C345 1.389 . S
C345 H328 0.939 . S
C345 C340 1.400 . S
C345 C344 1.389 . S
C346 P320 1.819 . S
C346 C347 1.391 . S
C346 C351 1.391 . S
C347 H329 0.941 . S
C347 C346 1.391 . S
C347 C348 1.396 . S
C348 H332 0.939 . S
C348 C347 1.396 . S
C348 C349 1.397 . S
C349 C348 1.397 . S
C349 C350 1.385 . S
C350 H333 0.940 . S
C350 C349 1.385 . S
C350 C351 1.388 . S
C351 H330 0.939 . S
C351 C346 1.391 . S
C351 C350 1.388 . S
P352 O363 1.490 . S
P352 C366 1.812 . S
P352 C372 1.803 . S
P352 C378 1.819 . S
H353 C367 0.941 1_554 S
H354 C368 0.919 1_554 S
H355 C370 0.940 . S
H356 C371 0.940 . S
H357 C373 0.939 . S
H358 C374 0.942 . S
H359 C376 0.940 . S
H360 C377 0.939 . S
H361 C379 0.941 . S
H362 C383 0.939 . S
O363 P352 1.490 . S
H364 C380 0.939 . S
H365 C382 0.940 . S
C366 P352 1.812 . S
C366 C367 1.389 . S
C366 C371 1.391 . S
C367 H353 0.941 1_556 S
C367 C366 1.389 . S
C367 C368 1.402 . S
C368 H354 0.919 1_556 S
C368 C367 1.402 . S
C368 C369 1.393 . S
C369 C368 1.393 . S
C369 C370 1.378 . S
C370 H355 0.940 . S
C370 C369 1.378 . S
C370 C371 1.396 . S
C371 H356 0.940 . S
C371 C366 1.391 . S
C371 C370 1.396 . S
C372 P352 1.803 . S
C372 C373 1.378 . S
C372 C377 1.400 . S
C373 H357 0.939 . S
C373 C372 1.378 . S
C373 C374 1.361 . S
C374 H358 0.942 . S
C374 C373 1.361 . S
C374 C375 1.369 . S
C375 C374 1.369 . S
C375 C376 1.404 . S
C376 H359 0.940 . S
C376 C375 1.404 . S
C376 C377 1.389 . S
C377 H360 0.939 . S
C377 C372 1.400 . S
C377 C376 1.389 . S
C378 P352 1.819 . S
C378 C379 1.391 . S
C378 C383 1.391 . S
C379 H361 0.941 . S
C379 C378 1.391 . S
C379 C380 1.396 . S
C380 H364 0.939 . S
C380 C379 1.396 . S
C380 C381 1.397 . S
C381 C380 1.397 . S
C381 C382 1.385 . S
C382 H365 0.940 . S
C382 C381 1.385 . S
C382 C383 1.388 . S
C383 H362 0.939 . S
C383 C378 1.391 . S
C383 C382 1.388 . S
P384 O395 1.490 . S
P384 C398 1.812 . S
P384 C404 1.803 . S
P384 C410 1.819 . S
H385 C399 0.941 . S
H386 C400 0.939 1_556 S
H387 C402 0.940 . S
H388 C403 0.940 . S
H389 C405 0.939 . S
H390 C406 0.942 . S
H391 C408 0.940 . S
H392 C409 0.939 . S
H393 C411 0.941 . S
H394 C415 0.939 . S
O395 P384 1.490 . S
H396 C412 0.939 . S
H397 C414 0.940 . S
C398 P384 1.812 . S
C398 C399 1.389 . S
C398 C403 1.391 . S
C399 H385 0.941 . S
C399 C398 1.389 . S
C399 C400 1.397 . S
C400 H386 0.939 1_554 S
C400 C399 1.397 . S
C400 C401 1.378 . S
C401 C400 1.378 . S
C401 C402 1.378 . S
C402 H387 0.940 . S
C402 C401 1.378 . S
C402 C403 1.396 . S
C403 H388 0.940 . S
C403 C398 1.391 . S
C403 C402 1.396 . S
C404 P384 1.803 . S
C404 C405 1.378 . S
C404 C409 1.400 . S
C405 H389 0.939 . S
C405 C404 1.378 . S
C405 C406 1.361 . S
C406 H390 0.942 . S
C406 C405 1.361 . S
C406 C407 1.369 . S
C407 C406 1.369 . S
C407 C408 1.404 . S
C408 H391 0.940 . S
C408 C407 1.404 . S
C408 C409 1.389 . S
C409 H392 0.939 . S
C409 C404 1.400 . S
C409 C408 1.389 . S
C410 P384 1.819 . S
C410 C411 1.391 . S
C410 C415 1.391 . S
C411 H393 0.941 . S
C411 C410 1.391 . S
C411 C412 1.396 . S
C412 H396 0.939 . S
C412 C411 1.396 . S
C412 C413 1.397 . S
C413 C412 1.397 . S
C413 C414 1.385 . S
C414 H397 0.940 . S
C414 C413 1.385 . S
C414 C415 1.388 . S
C415 H394 0.939 . S
C415 C410 1.391 . S
C415 C414 1.388 . S
P416 O427 1.490 . S
P416 C430 1.812 . S
P416 C436 1.803 . S
P416 C442 1.819 . S
H417 C431 0.941 . S
H418 C432 0.939 . S
H419 C434 0.940 . S
H420 C435 0.940 . S
H421 C437 0.939 . S
H422 C438 0.942 . S
H423 C440 0.940 . S
H424 C441 0.939 . S
H425 C443 0.941 . S
H426 C447 0.939 . S
O427 P416 1.490 . S
H428 C444 0.939 . S
H429 C446 0.940 . S
C430 P416 1.812 . S
C430 C431 1.389 . S
C430 C435 1.391 . S
C431 H417 0.941 . S
C431 C430 1.389 . S
C431 C432 1.397 . S
C432 H418 0.939 . S
C432 C431 1.397 . S
C432 C433 1.378 . S
C433 C432 1.378 . S
C433 C434 1.378 . S
C434 H419 0.940 . S
C434 C433 1.378 . S
C434 C435 1.396 . S
C435 H420 0.940 . S
C435 C430 1.391 . S
C435 C434 1.396 . S
C436 P416 1.803 . S
C436 C437 1.378 . S
C436 C441 1.400 . S
C437 H421 0.939 . S
C437 C436 1.378 . S
C437 C438 1.361 . S
C438 H422 0.942 . S
C438 C437 1.361 . S
C438 C439 1.369 . S
C439 C438 1.369 . S
C439 C440 1.404 . S
C440 H423 0.940 . S
C440 C439 1.404 . S
C440 C441 1.389 . S
C441 H424 0.939 . S
C441 C436 1.400 . S
C441 C440 1.389 . S
C442 P416 1.819 . S
C442 C443 1.391 . S
C442 C447 1.391 . S
C443 H425 0.941 . S
C443 C442 1.391 . S
C443 C444 1.396 . S
C444 H428 0.939 . S
C444 C443 1.396 . S
C444 C445 1.397 . S
C445 C444 1.397 . S
C445 C446 1.385 . S
C446 H429 0.940 . S
C446 C445 1.385 . S
C446 C447 1.388 . S
C447 H426 0.939 . S
C447 C442 1.391 . S
C447 C446 1.388 . S
P448 O459 1.490 . S
P448 C462 1.812 . S
P448 C468 1.803 . S
P448 C474 1.819 . S
H449 C463 0.941 . S
H450 C464 0.939 . S
H451 C466 0.940 . S
H452 C467 0.940 . S
H453 C469 0.939 . S
H454 C470 0.942 . S
H455 C472 0.940 . S
H456 C473 0.939 . S
H457 C475 0.941 . S
H458 C479 0.939 . S
O459 P448 1.490 . S
H460 C476 0.939 . S
H461 C478 0.940 . S
C462 P448 1.812 . S
C462 C463 1.389 . S
C462 C467 1.391 . S
C463 H449 0.941 . S
C463 C462 1.389 . S
C463 C464 1.397 . S
C464 H450 0.939 . S
C464 C463 1.397 . S
C464 C465 1.378 . S
C465 C464 1.378 . S
C465 C466 1.378 . S
C466 H451 0.940 . S
C466 C465 1.378 . S
C466 C467 1.396 . S
C467 H452 0.940 . S
C467 C462 1.391 . S
C467 C466 1.396 . S
C468 P448 1.803 . S
C468 C469 1.378 . S
C468 C473 1.400 . S
C469 H453 0.939 . S
C469 C468 1.378 . S
C469 C470 1.361 . S
C470 H454 0.942 . S
C470 C469 1.361 . S
C470 C471 1.369 . S
C471 C470 1.369 . S
C471 C472 1.404 . S
C472 H455 0.940 . S
C472 C471 1.404 . S
C472 C473 1.389 . S
C473 H456 0.939 . S
C473 C468 1.400 . S
C473 C472 1.389 . S
C474 P448 1.819 . S
C474 C475 1.391 . S
C474 C479 1.391 . S
C475 H457 0.941 . S
C475 C474 1.391 . S
C475 C476 1.396 . S
C476 H460 0.939 . S
C476 C475 1.396 . S
C476 C477 1.397 . S
C477 C476 1.397 . S
C477 C478 1.385 . S
C478 H461 0.940 . S
C478 C477 1.385 . S
C478 C479 1.388 . S
C479 H458 0.939 . S
C479 C474 1.391 . S
C479 C478 1.388 . S
P480 O491 1.490 . S
P480 C494 1.812 1_545 S
P480 C500 1.803 1_545 S
P480 C506 1.819 . S
H481 C495 0.941 1_545 S
H482 C496 0.939 . S
H483 C498 0.940 . S
H484 C499 0.940 . S
H485 C501 0.939 1_545 S
H486 C502 0.942 . S
H487 C504 0.940 . S
H488 C505 0.939 . S
H489 C507 0.941 . S
H490 C511 0.939 . S
O491 P480 1.490 . S
H492 C508 0.939 . S
H493 C510 0.940 . S
C494 P480 1.812 1_565 S
C494 C495 1.389 . S
C494 C499 1.391 . S
C495 H481 0.941 1_565 S
C495 C494 1.389 . S
C495 C496 1.397 . S
C496 H482 0.939 . S
C496 C495 1.397 . S
C496 C497 1.378 . S
C497 C496 1.378 . S
C497 C498 1.378 . S
C498 H483 0.940 . S
C498 C497 1.378 . S
C498 C499 1.396 . S
C499 H484 0.940 . S
C499 C494 1.391 . S
C499 C498 1.396 . S
C500 P480 1.803 1_565 S
C500 C501 1.378 . S
C500 C505 1.400 . S
C501 H485 0.939 1_565 S
C501 C500 1.378 . S
C501 C502 1.361 . S
C502 H486 0.942 . S
C502 C501 1.361 . S
C502 C503 1.369 . S
C503 C502 1.369 . S
C503 C504 1.404 . S
C504 H487 0.940 . S
C504 C503 1.404 . S
C504 C505 1.389 . S
C505 H488 0.939 . S
C505 C500 1.400 . S
C505 C504 1.389 . S
C506 P480 1.819 . S
C506 C507 1.391 . S
C506 C511 1.391 1_545 S
C507 H489 0.941 . S
C507 C506 1.391 . S
C507 C508 1.396 . S
C508 H492 0.939 . S
C508 C507 1.396 . S
C508 C509 1.397 . S
C509 C508 1.397 . S
C509 C510 1.385 1_545 S
C510 H493 0.940 . S
C510 C509 1.385 1_565 S
C510 C511 1.388 . S
C511 H490 0.939 . S
C511 C506 1.391 1_565 S
C511 C510 1.388 . S
P512 O523 1.490 . S
P512 C526 1.812 . S
P512 C532 1.803 . S
P512 C538 1.819 . S
H513 C527 0.941 . S
H514 C528 0.939 . S
H515 C530 0.940 . S
H516 C531 0.940 . S
H517 C533 0.939 . S
H518 C534 0.942 . S
H519 C536 0.940 . S
H520 C537 0.939 . S
H521 C539 0.941 . S
H522 C543 0.939 . S
O523 P512 1.490 . S
H524 C540 0.939 . S
H525 C542 0.940 . S
C526 P512 1.812 . S
C526 C527 1.389 . S
C526 C531 1.391 . S
C527 H513 0.941 . S
C527 C526 1.389 . S
C527 C528 1.397 . S
C528 H514 0.939 . S
C528 C527 1.397 . S
C528 C529 1.378 . S
C529 C528 1.378 . S
C529 C530 1.378 . S
C530 H515 0.940 . S
C530 C529 1.378 . S
C530 C531 1.396 . S
C531 H516 0.940 . S
C531 C526 1.391 . S
C531 C530 1.396 . S
C532 P512 1.803 . S
C532 C533 1.378 . S
C532 C537 1.400 . S
C533 H517 0.939 . S
C533 C532 1.378 . S
C533 C534 1.361 . S
C534 H518 0.942 . S
C534 C533 1.361 . S
C534 C535 1.369 . S
C535 C534 1.369 . S
C535 C536 1.404 . S
C536 H519 0.940 . S
C536 C535 1.404 . S
C536 C537 1.389 . S
C537 H520 0.939 . S
C537 C532 1.400 . S
C537 C536 1.389 . S
C538 P512 1.819 . S
C538 C539 1.391 . S
C538 C543 1.391 . S
C539 H521 0.941 . S
C539 C538 1.391 . S
C539 C540 1.396 . S
C540 H524 0.939 . S
C540 C539 1.396 . S
C540 C541 1.397 . S
C541 C540 1.397 . S
C541 C542 1.385 . S
C542 H525 0.940 . S
C542 C541 1.385 . S
C542 C543 1.388 . S
C543 H522 0.939 . S
C543 C538 1.391 . S
C543 C542 1.388 . S
P544 O555 1.490 . S
P544 C558 1.812 . S
P544 C564 1.803 . S
P544 C570 1.819 . S
H545 C559 0.941 . S
H546 C560 0.939 . S
H547 C562 0.940 . S
H548 C563 0.940 . S
H549 C565 0.939 . S
H550 C566 0.942 . S
H551 C568 0.940 . S
H552 C569 0.939 . S
H553 C571 0.941 . S
H554 C575 0.939 . S
O555 P544 1.490 . S
H556 C572 0.939 . S
H557 C574 0.940 . S
C558 P544 1.812 . S
C558 C559 1.389 . S
C558 C563 1.391 . S
C559 H545 0.941 . S
C559 C558 1.389 . S
C559 C560 1.397 . S
C560 H546 0.939 . S
C560 C559 1.397 . S
C560 C561 1.378 . S
C561 C560 1.378 . S
C561 C562 1.378 . S
C562 H547 0.940 . S
C562 C561 1.378 . S
C562 C563 1.396 . S
C563 H548 0.940 . S
C563 C558 1.391 . S
C563 C562 1.396 . S
C564 P544 1.803 . S
C564 C565 1.378 . S
C564 C569 1.400 . S
C565 H549 0.939 . S
C565 C564 1.378 . S
C565 C566 1.361 . S
C566 H550 0.942 . S
C566 C565 1.361 . S
C566 C567 1.369 . S
C567 C566 1.369 . S
C567 C568 1.404 . S
C568 H551 0.940 . S
C568 C567 1.404 . S
C568 C569 1.389 . S
C569 H552 0.939 . S
C569 C564 1.400 . S
C569 C568 1.389 . S
C570 P544 1.819 . S
C570 C571 1.391 . S
C570 C575 1.391 . S
C571 H553 0.941 . S
C571 C570 1.391 . S
C571 C572 1.396 . S
C572 H556 0.939 . S
C572 C571 1.396 . S
C572 C573 1.397 . S
C573 C572 1.397 . S
C573 C574 1.385 . S
C574 H557 0.940 . S
C574 C573 1.385 . S
C574 C575 1.388 . S
C575 H554 0.939 . S
C575 C570 1.391 . S
C575 C574 1.388 . S
Tb576 O579 2.453 . S
Tb576 O580 2.596 1_545 S
Tb576 O581 2.374 1_545 S
Tb576 O589 2.343 1_554 S
Tb576 O591 2.353 . S
Tb576 O593 2.427 1_554 S
Tb576 O594 2.513 1_554 S
C577 O581 1.251 . S
C577 O583 1.254 1_554 S
Tb578 O580 2.343 1_556 S
Tb578 O583 2.357 . S
Tb578 O586 2.427 1_556 S
Tb578 O587 2.513 1_556 S
Tb578 O588 2.453 . S
Tb578 O589 2.596 1_565 S
Tb578 O590 2.374 1_565 S
O579 Tb576 2.453 . S
O579 C595 1.245 . S
O580 Tb576 2.596 1_565 S
O580 Tb578 2.343 1_554 S
O580 C595 1.259 1_565 S
O581 Tb576 2.374 1_565 S
O581 C577 1.251 . S
C582 O586 1.275 . S
C582 O587 1.246 . S
O583 C577 1.254 1_556 S
O583 Tb578 2.357 . S
C584 O588 1.245 . S
C584 O589 1.259 1_565 S
C585 O590 1.250 . S
C585 O591 1.263 1_556 S
O586 Tb578 2.427 1_554 S
O586 C582 1.275 . S
O587 Tb578 2.513 1_554 S
O587 C582 1.246 . S
O588 Tb578 2.453 . S
O588 C584 1.245 . S
O589 Tb576 2.343 1_556 S
O589 Tb578 2.596 1_545 S
O589 C584 1.259 1_545 S
O590 Tb578 2.374 1_545 S
O590 C585 1.250 . S
O591 Tb576 2.353 . S
O591 C585 1.263 1_554 S
C592 O593 1.275 . S
C592 O594 1.246 . S
O593 Tb576 2.427 1_556 S
O593 C592 1.275 . S
O594 Tb576 2.513 1_556 S
O594 C592 1.246 . S
C595 O579 1.245 . S
C595 O580 1.259 1_545 S
Tb596 O599 2.453 . S
Tb596 O600 2.596 1_655 S
Tb596 O601 2.374 1_655 S
Tb596 O609 2.343 1_554 S
Tb596 O611 2.353 . S
Tb596 O613 2.427 1_554 S
Tb596 O614 2.513 1_554 S
C597 O601 1.251 . S
C597 O603 1.263 . S
Tb598 O600 2.343 1_556 S
Tb598 O603 2.353 1_556 S
Tb598 O606 2.427 1_556 S
Tb598 O607 2.513 1_556 S
Tb598 O608 2.453 . S
Tb598 O609 2.596 1_455 S
Tb598 O610 2.374 1_455 S
O599 Tb596 2.453 . S
O599 C615 1.245 1_655 S
O600 Tb596 2.596 1_455 S
O600 Tb598 2.343 1_554 S
O600 C615 1.259 . S
O601 Tb596 2.374 1_455 S
O601 C597 1.251 . S
C602 O606 1.275 . S
C602 O607 1.246 . S
O603 C597 1.263 . S
O603 Tb598 2.353 1_554 S
C604 O608 1.245 1_655 S
C604 O609 1.259 . S
C605 O610 1.250 . S
C605 O611 1.263 1_556 S
O606 Tb598 2.427 1_554 S
O606 C602 1.275 . S
O607 Tb598 2.513 1_554 S
O607 C602 1.246 . S
O608 Tb598 2.453 . S
O608 C604 1.245 1_455 S
O609 Tb596 2.343 1_556 S
O609 Tb598 2.596 1_655 S
O609 C604 1.259 . S
O610 Tb598 2.374 1_655 S
O610 C605 1.250 . S
O611 Tb596 2.353 . S
O611 C605 1.263 1_554 S
C612 O613 1.275 . S
C612 O614 1.246 . S
O613 Tb596 2.427 1_556 S
O613 C612 1.275 . S
O614 Tb596 2.513 1_556 S
O614 C612 1.246 . S
C615 O599 1.245 1_455 S
C615 O600 1.259 . S
Tb616 O619 2.453 . S
Tb616 O620 2.596 . S
Tb616 O621 2.374 . S
Tb616 O629 2.343 1_556 S
Tb616 O631 2.353 1_556 S
Tb616 O633 2.427 1_556 S
Tb616 O634 2.513 1_556 S
C617 O621 1.251 . S
C617 O623 1.263 1_556 S
Tb618 O620 2.343 1_554 S
Tb618 O623 2.353 . S
Tb618 O626 2.427 1_554 S
Tb618 O627 2.513 1_554 S
Tb618 O628 2.453 . S
Tb618 O629 2.596 . S
Tb618 O630 2.374 . S
O619 Tb616 2.453 . S
O619 C635 1.245 . S
O620 Tb616 2.596 . S
O620 Tb618 2.343 1_556 S
O620 C635 1.259 . S
O621 Tb616 2.374 . S
O621 C617 1.251 . S
C622 O626 1.275 . S
C622 O627 1.246 . S
O623 C617 1.263 1_554 S
O623 Tb618 2.353 . S
C624 O628 1.245 . S
C624 O629 1.259 . S
C625 O630 1.250 . S
C625 O631 1.263 . S
O626 Tb618 2.427 1_556 S
O626 C622 1.275 . S
O627 Tb618 2.513 1_556 S
O627 C622 1.246 . S
O628 Tb618 2.453 . S
O628 C624 1.245 . S
O629 Tb616 2.343 1_554 S
O629 Tb618 2.596 . S
O629 C624 1.259 . S
O630 Tb618 2.374 . S
O630 C625 1.250 . S
O631 Tb616 2.353 1_554 S
O631 C625 1.263 . S
C632 O633 1.275 . S
C632 O634 1.246 . S
O633 Tb616 2.427 1_554 S
O633 C632 1.275 . S
O634 Tb616 2.513 1_554 S
O634 C632 1.246 . S
C635 O619 1.245 . S
C635 O620 1.259 . S
Tb636 O639 2.453 . S
Tb636 O640 2.596 . S
Tb636 O641 2.374 . S
Tb636 O649 2.343 . S
Tb636 O651 2.353 . S
Tb636 O653 2.427 . S
Tb636 O654 2.513 . S
C637 O641 1.251 . S
C637 O643 1.263 . S
Tb638 O640 2.343 . S
Tb638 O643 2.353 . S
Tb638 O646 2.427 . S
Tb638 O647 2.513 . S
Tb638 O648 2.453 . S
Tb638 O649 2.596 . S
Tb638 O650 2.374 . S
O639 Tb636 2.453 . S
O639 C655 1.245 . S
O640 Tb636 2.596 . S
O640 Tb638 2.343 . S
O640 C655 1.259 . S
O641 Tb636 2.374 . S
O641 C637 1.251 . S
C642 O646 1.275 . S
C642 O647 1.246 . S
O643 C637 1.263 . S
O643 Tb638 2.353 . S
C644 O648 1.245 . S
C644 O649 1.259 . S
C645 O650 1.250 . S
C645 O651 1.263 . S
O646 Tb638 2.427 . S
O646 C642 1.275 . S
O647 Tb638 2.513 . S
O647 C642 1.246 . S
O648 Tb638 2.453 . S
O648 C644 1.245 . S
O649 Tb636 2.343 . S
O649 Tb638 2.596 . S
O649 C644 1.259 . S
O650 Tb638 2.374 . S
O650 C645 1.250 . S
O651 Tb636 2.353 . S
O651 C645 1.263 . S
C652 O653 1.275 . S
C652 O654 1.246 . S
O653 Tb636 2.427 . S
O653 C652 1.275 . S
O654 Tb636 2.513 . S
O654 C652 1.246 . S
C655 O639 1.245 . S
C655 O640 1.259 . S
Tb656 O659 2.453 . S
Tb656 O660 2.596 . S
Tb656 O661 2.374 . S
Tb656 O669 2.343 . S
Tb656 O671 2.353 . S
Tb656 O673 2.427 . S
Tb656 O674 2.513 . S
C657 O661 1.251 . S
C657 O663 1.263 . S
Tb658 O660 2.343 . S
Tb658 O663 2.353 . S
Tb658 O666 2.427 . S
Tb658 O667 2.513 . S
Tb658 O668 2.453 . S
Tb658 O669 2.596 . S
Tb658 O670 2.374 . S
O659 Tb656 2.453 . S
O659 C675 1.245 . S
O660 Tb656 2.596 . S
O660 Tb658 2.343 . S
O660 C675 1.259 . S
O661 Tb656 2.374 . S
O661 C657 1.251 . S
C662 O666 1.275 . S
C662 O667 1.246 . S
O663 C657 1.263 . S
O663 Tb658 2.353 . S
C664 O668 1.245 . S
C664 O669 1.259 . S
C665 O670 1.250 . S
C665 O671 1.263 . S
O666 Tb658 2.427 . S
O666 C662 1.275 . S
O667 Tb658 2.513 . S
O667 C662 1.246 . S
O668 Tb658 2.453 . S
O668 C664 1.245 . S
O669 Tb656 2.343 . S
O669 Tb658 2.596 . S
O669 C664 1.259 . S
O670 Tb658 2.374 . S
O670 C665 1.250 . S
O671 Tb656 2.353 . S
O671 C665 1.263 . S
C672 O673 1.275 . S
C672 O674 1.246 . S
O673 Tb656 2.427 . S
O673 C672 1.275 . S
O674 Tb656 2.513 . S
O674 C672 1.246 . S
C675 O659 1.245 . S
C675 O660 1.259 . S
Tb676 O679 2.453 . S
Tb676 O680 2.596 . S
Tb676 O681 2.374 . S
Tb676 O689 2.343 . S
Tb676 O691 2.353 . S
Tb676 O693 2.427 . S
Tb676 O694 2.513 . S
C677 O681 1.251 . S
C677 O683 1.263 . S
Tb678 O680 2.343 . S
Tb678 O683 2.353 . S
Tb678 O686 2.427 . S
Tb678 O687 2.513 . S
Tb678 O688 2.453 . S
Tb678 O689 2.596 . S
Tb678 O690 2.374 . S
O679 Tb676 2.453 . S
O679 C695 1.245 . S
O680 Tb676 2.596 . S
O680 Tb678 2.343 . S
O680 C695 1.259 . S
O681 Tb676 2.374 . S
O681 C677 1.251 . S
C682 O686 1.275 . S
C682 O687 1.246 . S
O683 C677 1.263 . S
O683 Tb678 2.353 . S
C684 O688 1.245 . S
C684 O689 1.259 . S
C685 O690 1.250 . S
C685 O691 1.263 . S
O686 Tb678 2.427 . S
O686 C682 1.275 . S
O687 Tb678 2.513 . S
O687 C682 1.246 . S
O688 Tb678 2.453 . S
O688 C684 1.245 . S
O689 Tb676 2.343 . S
O689 Tb678 2.596 . S
O689 C684 1.259 . S
O690 Tb678 2.374 . S
O690 C685 1.250 . S
O691 Tb676 2.353 . S
O691 C685 1.263 . S
C692 O693 1.275 . S
C692 O694 1.246 . S
O693 Tb676 2.427 . S
O693 C692 1.275 . S
O694 Tb676 2.513 . S
O694 C692 1.246 . S
C695 O679 1.245 . S
C695 O680 1.259 . S
Tb696 O699 2.453 . S
Tb696 O700 2.596 . S
Tb696 O701 2.374 . S
Tb696 O709 2.343 . S
Tb696 O711 2.353 . S
Tb696 O713 2.427 . S
Tb696 O714 2.513 . S
C697 O701 1.251 . S
C697 O703 1.263 . S
Tb698 O700 2.343 . S
Tb698 O703 2.353 . S
Tb698 O706 2.427 . S
Tb698 O707 2.513 . S
Tb698 O708 2.453 . S
Tb698 O709 2.596 . S
Tb698 O710 2.374 . S
O699 Tb696 2.453 . S
O699 C715 1.245 . S
O700 Tb696 2.596 . S
O700 Tb698 2.343 . S
O700 C715 1.259 . S
O701 Tb696 2.374 . S
O701 C697 1.251 . S
C702 O706 1.275 . S
C702 O707 1.246 . S
O703 C697 1.263 . S
O703 Tb698 2.353 . S
C704 O708 1.245 . S
C704 O709 1.259 . S
C705 O710 1.250 . S
C705 O711 1.263 . S
O706 Tb698 2.427 . S
O706 C702 1.275 . S
O707 Tb698 2.513 . S
O707 C702 1.246 . S
O708 Tb698 2.453 . S
O708 C704 1.245 . S
O709 Tb696 2.343 . S
O709 Tb698 2.596 . S
O709 C704 1.259 . S
O710 Tb698 2.374 . S
O710 C705 1.250 . S
O711 Tb696 2.353 . S
O711 C705 1.263 . S
C712 O713 1.275 . S
C712 O714 1.246 . S
O713 Tb696 2.427 . S
O713 C712 1.275 . S
O714 Tb696 2.513 . S
O714 C712 1.246 . S
C715 O699 1.245 . S
C715 O700 1.259 . S
Tb716 O719 2.453 . S
Tb716 O720 2.596 . S
Tb716 O721 2.374 . S
Tb716 O729 2.343 . S
Tb716 O731 2.353 . S
Tb716 O733 2.427 . S
Tb716 O734 2.513 . S
C717 O721 1.251 . S
C717 O723 1.263 . S
Tb718 O720 2.343 . S
Tb718 O723 2.353 . S
Tb718 O726 2.427 . S
Tb718 O727 2.513 . S
Tb718 O728 2.453 . S
Tb718 O729 2.596 . S
Tb718 O730 2.374 . S
O719 Tb716 2.453 . S
O719 C735 1.245 . S
O720 Tb716 2.596 . S
O720 Tb718 2.343 . S
O720 C735 1.259 . S
O721 Tb716 2.374 . S
O721 C717 1.251 . S
C722 O726 1.275 . S
C722 O727 1.246 . S
O723 C717 1.263 . S
O723 Tb718 2.353 . S
C724 O728 1.245 . S
C724 O729 1.259 . S
C725 O730 1.250 . S
C725 O731 1.263 . S
O726 Tb718 2.427 . S
O726 C722 1.275 . S
O727 Tb718 2.513 . S
O727 C722 1.246 . S
O728 Tb718 2.453 . S
O728 C724 1.245 . S
O729 Tb716 2.343 . S
O729 Tb718 2.596 . S
O729 C724 1.259 . S
O730 Tb718 2.374 . S
O730 C725 1.250 . S
O731 Tb716 2.353 . S
O731 C725 1.263 . S
C732 O733 1.275 . S
C732 O734 1.246 . S
O733 Tb716 2.427 . S
O733 C732 1.275 . S
O734 Tb716 2.513 . S
O734 C732 1.246 . S
C735 O719 1.245 . S
C735 O720 1.259 . S
Tb736 O739 2.453 . S
Tb736 O740 2.596 . S
Tb736 O741 2.374 . S
Tb736 O749 2.343 . S
Tb736 O751 2.353 . S
Tb736 O753 2.427 . S
Tb736 O754 2.513 . S
C737 O741 1.251 . S
C737 O743 1.263 . S
Tb738 O740 2.343 . S
Tb738 O743 2.353 . S
Tb738 O746 2.427 . S
Tb738 O747 2.513 . S
Tb738 O748 2.453 . S
Tb738 O749 2.596 . S
Tb738 O750 2.374 . S
O739 Tb736 2.453 . S
O739 C755 1.245 . S
O740 Tb736 2.596 . S
O740 Tb738 2.343 . S
O740 C755 1.259 . S
O741 Tb736 2.374 . S
O741 C737 1.251 . S
C742 O746 1.275 . S
C742 O747 1.246 . S
O743 C737 1.263 . S
O743 Tb738 2.353 . S
C744 O748 1.245 . S
C744 O749 1.259 . S
C745 O750 1.250 . S
C745 O751 1.263 . S
O746 Tb738 2.427 . S
O746 C742 1.275 . S
O747 Tb738 2.513 . S
O747 C742 1.246 . S
O748 Tb738 2.453 . S
O748 C744 1.245 . S
O749 Tb736 2.343 . S
O749 Tb738 2.596 . S
O749 C744 1.259 . S
O750 Tb738 2.374 . S
O750 C745 1.250 . S
O751 Tb736 2.353 . S
O751 C745 1.263 . S
C752 O753 1.275 . S
C752 O754 1.246 . S
O753 Tb736 2.427 . S
O753 C752 1.275 . S
O754 Tb736 2.513 . S
O754 C752 1.246 . S
C755 O739 1.245 . S
C755 O740 1.259 . S
C439 C582 1.524 . S
C465 C602 1.610 . S
C401 C625 1.656 . S
C369 C605 1.595 . S
C622 C305 1.729 . S
C343 C585 1.438 . S
C592 C375 1.865 . S
C612 C311 1.590 . S
C337 C617 1.464 . S
C433 C597 1.377 . S
C471 C632 1.699 . S
C577 C407 1.703 . S
C642 C55 1.522 1_455 S
C81 C662 1.611 . S
C17 C685 1.661 . S
C561 C665 1.596 . S
C497 C682 1.729 . S
C535 C645 1.439 . S
C567 C652 1.864 . S
C503 C672 1.589 . S
C677 C529 1.463 . S
C49 C657 1.378 . S
C692 C87 1.697 . S
C23 C637 1.702 . S
C702 C247 1.524 . S
C273 C722 1.611 . S
C745 C209 1.657 . S
C725 C177 1.595 . S
C742 C113 1.729 1_655 S
C151 C705 1.439 . S
C183 C712 1.865 1_455 S
C119 C732 1.589 . S
C737 C145 1.464 . S
C241 C717 1.377 . S
C279 C752 1.699 . S
C215 C697 1.702 . S
C509 C595 1.312 . S
C615 C541 1.509 . S
C573 C624 1.518 . S
C221 C604 1.636 . S
C253 C635 1.355 . S
C584 C285 1.308 . S
C125 C655 1.311 . S
C157 C675 1.510 . S
C189 C684 1.517 . S
C413 C664 1.635 . S
C695 C445 1.355 . S
C477 C644 1.308 . S
C317 C715 1.312 . S
C349 C735 1.510 . S
C744 C381 1.518 . S
C29 C724 1.635 . S
C61 C755 1.355 . S
C93 C704 1.308 . S
