# Generated by pormake.
# Topology apo, (3,6)-cn, num edge types: 1
# Building blocks:
#     Node 0, Type 0, BuildingBlock: CUQRIR_clean_linker_1, # of connection points: 3
#     Node 1, Type 0, BuildingBlock: CUQRIR_clean_linker_1, # of connection points: 3
#     Node 2, Type 0, BuildingBlock: CUQRIR_clean_linker_1, # of connection points: 3
#     Node 3, Type 0, BuildingBlock: CUQRIR_clean_linker_1, # of connection points: 3
#     Node 4, Type 0, BuildingBlock: CUQRIR_clean_linker_1, # of connection points: 3
#     Node 5, Type 0, BuildingBlock: CUQRIR_clean_linker_1, # of connection points: 3
#     Node 6, Type 0, BuildingBlock: CUQRIR_clean_linker_1, # of connection points: 3
#     Node 7, Type 0, BuildingBlock: CUQRIR_clean_linker_1, # of connection points: 3
#     Node 8, Type 1, BuildingBlock: KUMBUR_clean_sbu_1, # of connection points: 6
#     Node 9, Type 1, BuildingBlock: KUMBUR_clean_sbu_1, # of connection points: 6
#     Node 10, Type 1, BuildingBlock: KUMBUR_clean_sbu_1, # of connection points: 6
#     Node 11, Type 1, BuildingBlock: KUMBUR_clean_sbu_1, # of connection points: 6
#     Edge 12, Type (0, 1), BuildingBlock: KIFKEQ_clean_linker_1, # of connection points: 2
#     Edge 13, Type (0, 1), BuildingBlock: KIFKEQ_clean_linker_1, # of connection points: 2
#     Edge 14, Type (0, 1), BuildingBlock: KIFKEQ_clean_linker_1, # of connection points: 2
#     Edge 15, Type (0, 1), BuildingBlock: KIFKEQ_clean_linker_1, # of connection points: 2
#     Edge 16, Type (0, 1), BuildingBlock: KIFKEQ_clean_linker_1, # of connection points: 2
#     Edge 17, Type (0, 1), BuildingBlock: KIFKEQ_clean_linker_1, # of connection points: 2
#     Edge 18, Type (0, 1), BuildingBlock: KIFKEQ_clean_linker_1, # of connection points: 2
#     Edge 19, Type (0, 1), BuildingBlock: KIFKEQ_clean_linker_1, # of connection points: 2
#     Edge 20, Type (0, 1), BuildingBlock: KIFKEQ_clean_linker_1, # of connection points: 2
#     Edge 21, Type (0, 1), BuildingBlock: KIFKEQ_clean_linker_1, # of connection points: 2
#     Edge 22, Type (0, 1), BuildingBlock: KIFKEQ_clean_linker_1, # of connection points: 2
#     Edge 23, Type (0, 1), BuildingBlock: KIFKEQ_clean_linker_1, # of connection points: 2
#     Edge 24, Type (0, 1), BuildingBlock: KIFKEQ_clean_linker_1, # of connection points: 2
#     Edge 25, Type (0, 1), BuildingBlock: KIFKEQ_clean_linker_1, # of connection points: 2
#     Edge 26, Type (0, 1), BuildingBlock: KIFKEQ_clean_linker_1, # of connection points: 2
#     Edge 27, Type (0, 1), BuildingBlock: KIFKEQ_clean_linker_1, # of connection points: 2
#     Edge 28, Type (0, 1), BuildingBlock: KIFKEQ_clean_linker_1, # of connection points: 2
#     Edge 29, Type (0, 1), BuildingBlock: KIFKEQ_clean_linker_1, # of connection points: 2
#     Edge 30, Type (0, 1), BuildingBlock: KIFKEQ_clean_linker_1, # of connection points: 2
#     Edge 31, Type (0, 1), BuildingBlock: KIFKEQ_clean_linker_1, # of connection points: 2
#     Edge 32, Type (0, 1), BuildingBlock: KIFKEQ_clean_linker_1, # of connection points: 2
#     Edge 33, Type (0, 1), BuildingBlock: KIFKEQ_clean_linker_1, # of connection points: 2
#     Edge 34, Type (0, 1), BuildingBlock: KIFKEQ_clean_linker_1, # of connection points: 2
#     Edge 35, Type (0, 1), BuildingBlock: KIFKEQ_clean_linker_1, # of connection points: 2
# Relax obj value: 0.045
# Max RMSD: 0.225
# Mean RMSD: 0.177
data_MOF--net-apo--node1-KUMBUR_clean_sbu_1--node2-CUQRIR_clean_linker_1--edge1-KIFKEQ_clean_linker_1
_symmetry_space_group_name_H-M    P1
_symmetry_Int_Tables_number       1
_symmetry_cell_setting            triclinic
loop_
_symmetry_equiv_pos_as_xyz
'x, y, z'
_cell_length_a     26.32271
_cell_length_b     39.786787
_cell_length_c     47.451212
_cell_angle_alpha  90.059522
_cell_angle_beta   89.962596
_cell_angle_gamma 90.629001
loop_
_atom_site_label
_atom_site_type_symbol
_atom_site_fract_x
_atom_site_fract_y
_atom_site_fract_z
_atom_type_partial_charge
C0 C 0.25587 0.35145 0.43527 0.0
N1 N 0.28578 0.37928 0.43822 0.0
N2 N 0.24853 0.34414 0.40768 0.0
C3 C 0.23787 0.32949 0.45917 0.0
C4 C 0.27508 0.36833 0.39391 0.0
N5 N 0.2983 0.38942 0.41238 0.0
C6 C 0.27514 0.37284 0.36239 0.0
H7 H 0.26459 0.33085 0.47722 0.0
H8 H 0.23395 0.30293 0.45228 0.0
H9 H 0.20011 0.3382 0.46633 0.0
H10 H 0.27865 0.39982 0.35672 0.0
H11 H 0.23984 0.36237 0.3529 0.0
H12 H 0.30804 0.35941 0.35329 0.0
C13 C 0.24472 0.17671 0.92969 0.0
N14 N 0.21725 0.1479 0.93235 0.0
N15 N 0.2543 0.18335 0.90219 0.0
C16 C 0.26057 0.19893 0.95383 0.0
C17 C 0.23202 0.15742 0.88823 0.0
N18 N 0.20945 0.13587 0.90656 0.0
C19 C 0.23188 0.15362 0.85664 0.0
H20 H 0.23227 0.19765 0.97115 0.0
H21 H 0.26536 0.22539 0.94686 0.0
H22 H 0.29746 0.19005 0.96213 0.0
H23 H 0.26807 0.16325 0.84757 0.0
H24 H 0.20042 0.16867 0.84785 0.0
H25 H 0.22597 0.12721 0.84994 0.0
C26 C 0.75659 0.17894 0.62609 0.0
N27 N 0.78609 0.15149 0.62224 0.0
N28 N 0.74202 0.18153 0.65338 0.0
C29 C 0.73769 0.20138 0.60292 0.0
C30 C 0.7633 0.15477 0.66604 0.0
N31 N 0.7896 0.13641 0.64716 0.0
C32 C 0.75965 0.14705 0.69704 0.0
H33 H 0.76529 0.2223 0.59972 0.0
H34 H 0.70046 0.21235 0.60855 0.0
H35 H 0.73365 0.18728 0.58284 0.0
H36 H 0.75487 0.17038 0.70955 0.0
H37 H 0.79387 0.13376 0.70458 0.0
H38 H 0.72615 0.13045 0.7007 0.0
C39 C 0.74496 0.33554 0.12716 0.0
N40 N 0.71461 0.36258 0.12416 0.0
N41 N 0.76795 0.33593 0.1527 0.0
C42 C 0.75441 0.30986 0.10452 0.0
C43 C 0.75058 0.36429 0.16507 0.0
N44 N 0.71864 0.38064 0.14761 0.0
C45 C 0.7621 0.37484 0.19489 0.0
H46 H 0.72509 0.2897 0.10602 0.0
H47 H 0.7924 0.29842 0.10701 0.0
H48 H 0.75176 0.32143 0.08331 0.0
H49 H 0.79732 0.39042 0.19497 0.0
H50 H 0.76822 0.3526 0.2085 0.0
H51 H 0.73102 0.39008 0.20391 0.0
C52 C 0.74017 0.67723 0.62074 0.0
N53 N 0.7111 0.64903 0.61815 0.0
N54 N 0.74847 0.68458 0.64829 0.0
C55 C 0.75673 0.69913 0.59651 0.0
C56 C 0.72335 0.65985 0.66231 0.0
N57 N 0.70011 0.6386 0.64404 0.0
C58 C 0.72502 0.6547 0.69374 0.0
H59 H 0.79415 0.69048 0.58875 0.0
H60 H 0.76064 0.72575 0.60322 0.0
H61 H 0.72914 0.69744 0.57888 0.0
H62 H 0.69213 0.66746 0.70351 0.0
H63 H 0.76052 0.66531 0.70287 0.0
H64 H 0.72246 0.62758 0.69907 0.0
C65 C 0.75674 0.84778 0.12118 0.0
N66 N 0.78671 0.87573 0.1202 0.0
N67 N 0.74576 0.83947 0.14823 0.0
C68 C 0.74172 0.8271 0.09592 0.0
C69 C 0.76999 0.86342 0.16362 0.0
N70 N 0.7955 0.88513 0.14666 0.0
C71 C 0.76491 0.8674 0.19508 0.0
H72 H 0.70517 0.83649 0.08757 0.0
H73 H 0.73665 0.80025 0.10167 0.0
H74 H 0.77072 0.82924 0.07901 0.0
H75 H 0.79615 0.85379 0.20562 0.0
H76 H 0.72816 0.85685 0.20263 0.0
H77 H 0.76748 0.89428 0.20123 0.0
C78 C 0.25298 0.84191 0.42936 0.0
N79 N 0.22353 0.86926 0.43327 0.0
N80 N 0.25603 0.83404 0.40166 0.0
C81 C 0.2762 0.82165 0.45271 0.0
C82 C 0.22727 0.85748 0.38883 0.0
N83 N 0.20684 0.87862 0.40806 0.0
C84 C 0.22331 0.86172 0.35735 0.0
H85 H 0.31372 0.83279 0.45822 0.0
H86 H 0.2818 0.7952 0.4461 0.0
H87 H 0.25185 0.82211 0.47181 0.0
H88 H 0.18862 0.84845 0.34978 0.0
H89 H 0.25671 0.85099 0.34644 0.0
H90 H 0.22038 0.88865 0.35161 0.0
C91 C 0.26206 0.68296 0.92738 0.0
N92 N 0.29191 0.65587 0.93143 0.0
N93 N 0.24731 0.68495 0.90008 0.0
C94 C 0.24495 0.70627 0.9504 0.0
C95 C 0.26933 0.65813 0.88769 0.0
N96 N 0.29602 0.64035 0.90678 0.0
C97 C 0.26583 0.6498 0.85676 0.0
H98 H 0.208 0.71781 0.94509 0.0
H99 H 0.27376 0.72659 0.95304 0.0
H100 H 0.24134 0.69269 0.97073 0.0
H101 H 0.26186 0.67296 0.84399 0.0
H102 H 0.23187 0.63359 0.85321 0.0
H103 H 0.29957 0.6359 0.84936 0.0
Tb104 Tb 0.07572 0.11666 0.25156 0.0
C105 C 0.84795 0.09375 0.28336 0.0
N106 N 0.87558 0.1226 0.2863 0.0
C107 C 0.8061 0.15453 0.26824 0.0
C108 C 0.79835 0.09411 0.27224 0.0
C109 C 0.85516 0.15288 0.27941 0.0
C110 C 0.77763 0.12501 0.2645 0.0
C111 C 0.84262 0.0332 0.28872 0.0
C112 C 0.8698 0.06372 0.29151 0.0
C113 C 0.79327 0.03335 0.27745 0.0
C114 C 0.77119 0.06373 0.26924 0.0
Tb115 Tb 0.95527 0.11671 0.30434 0.0
N116 N 0.91824 0.0645 0.30158 0.0
C117 C 0.86587 1.0035 0.29737 0.0
C118 C 0.93993 0.03584 0.31144 0.0
C119 C 0.91451 1.0049 0.30907 0.0
H120 H 0.87624 0.17587 0.28307 0.0
H121 H 0.93225 0.9822 0.31659 0.0
H122 H 0.15574 0.05745 0.27185 0.0
H123 H 0.09509 0.25205 0.24362 0.0
H124 H 0.97617 0.03659 0.32175 0.0
H125 H 0.8463 0.9795 0.29557 0.0
H126 H 0.05192 0.19769 0.2374 0.0
H127 H 0.79014 0.1786 0.2627 0.0
H128 H 0.77183 1.01012 0.27505 0.0
H129 H 0.73304 0.06345 0.26067 0.0
H130 H 0.2432 0.05486 0.29034 0.0
H131 H 0.7396 0.12638 0.25588 0.0
H132 H 0.18243 0.25447 0.26274 0.0
N133 N 0.15641 0.11075 0.26809 0.0
C134 C 0.18394 0.13968 0.27082 0.0
C135 C 0.22688 0.07889 0.28506 0.0
C136 C 0.23407 0.13936 0.2812 0.0
C137 C 0.17714 0.08049 0.27485 0.0
C138 C 0.25546 0.10844 0.2883 0.0
N139 N 0.11168 0.16917 0.25529 0.0
C140 C 0.0888 0.19813 0.24694 0.0
C141 C 0.1877 0.2005 0.26741 0.0
C142 C 0.16095 0.16987 0.26409 0.0
C143 C 0.16324 0.2304 0.26046 0.0
C144 C 0.1138 0.22914 0.24987 0.0
H145 H 0.29391 0.10711 0.29633 0.0
H146 H 0.29943 0.17011 0.29252 0.0
H147 H 0.25884 0.22362 0.28045 0.0
O148 O 0.07394 0.1299 0.20857 0.0
O149 O 0.08586 0.13807 0.294 0.0
O150 O 0.00809 0.15955 0.30643 0.0
O151 O 0.12602 0.09295 0.22356 0.0
O152 O 0.00542 0.14202 0.23846 0.0
O153 O 0.96916 0.16185 0.2795 0.0
O154 O 0.9545 0.10441 0.34764 0.0
O155 O 0.94638 0.0941 0.26198 0.0
O156 O 0.02482 0.07302 0.25013 0.0
O157 O 0.90835 0.14421 0.33152 0.0
O158 O 0.02491 0.09117 0.31761 0.0
O159 O 0.06453 0.07131 0.27725 0.0
C160 C 0.05779 0.15875 0.30875 0.0
C161 C 0.09648 0.08696 0.17681 0.0
C162 C 0.09959 0.07753 0.12579 0.0
C163 C 0.07389 0.04667 0.12979 0.0
C164 C 0.07139 0.05601 0.18016 0.0
C165 C 0.0599 0.03609 0.15677 0.0
C166 C 0.11055 0.09767 0.14961 0.0
C167 C 0.97445 0.16228 0.25197 0.0
C168 C 0.10827 0.10817 0.20151 0.0
C169 C 0.26088 0.16983 0.28452 0.0
C170 C 0.23775 0.20032 0.27766 0.0
C171 C 0.97505 0.0728 0.24813 0.0
C172 C 0.87672 0.11476 0.37121 0.0
C173 C 0.84079 0.10543 0.41834 0.0
C174 C 0.79356 0.09802 0.4056 0.0
C175 C 0.82931 0.107 0.35927 0.0
C176 C 0.8825 0.11345 0.40069 0.0
C177 C 0.78819 0.09845 0.37637 0.0
C178 C 0.05619 0.07057 0.30471 0.0
C179 C 0.91959 0.12628 0.35347 0.0
H180 H 0.06549 0.03029 0.11211 0.0
H181 H 0.06123 0.04722 0.20092 0.0
H182 H 0.04053 0.01218 0.1596 0.0
H183 H 0.12971 0.12172 0.14705 0.0
H184 H 0.76001 0.09281 0.4181 0.0
H185 H 0.82355 0.1083 0.33681 0.0
H186 H 0.9194 0.11911 0.4097 0.0
H187 H 0.75159 0.09293 0.36696 0.0
Tb188 Tb 0.4466 0.40743 0.74715 0.0
C189 C 0.66319 0.42893 0.78322 0.0
N190 N 0.63494 0.40042 0.78677 0.0
C191 C 0.70309 0.36782 0.7676 0.0
C192 C 0.71151 0.4282 0.77042 0.0
C193 C 0.65577 0.36987 0.7809 0.0
C194 C 0.73068 0.39718 0.76181 0.0
C195 C 0.67411 0.48846 0.79284 0.0
C196 C 0.64505 0.4586 0.79429 0.0
C197 C 0.7212 0.48827 0.77889 0.0
C198 C 0.73984 0.45818 0.76766 0.0
Tb199 Tb 0.55661 0.40758 0.80714 0.0
N200 N 0.59889 0.45794 0.80704 0.0
C201 C 0.65536 0.51734 0.80597 0.0
C202 C 0.58172 0.48539 0.82138 0.0
C203 C 0.60934 0.51565 0.8207 0.0
H204 H 0.63665 0.34686 0.78693 0.0
H205 H 0.59508 0.53762 0.83144 0.0
H206 H 0.3523 0.44592 0.77882 0.0
H207 H 0.45353 0.28709 0.6936 0.0
H208 H 0.54616 0.48404 0.83274 0.0
H209 H 0.67658 0.54082 0.80539 0.0
H210 H 0.48111 0.34518 0.70344 0.0
H211 H 0.71868 0.34354 0.76234 0.0
H212 H 0.74397 0.51103 0.77725 0.0
H213 H 0.77683 0.45819 0.75764 0.0
H214 H 0.2668 0.43118 0.79701 0.0
H215 H 0.76763 0.39549 0.75188 0.0
H216 H 0.3747 0.26451 0.71523 0.0
N217 N 0.36676 0.39668 0.76359 0.0
C218 C 0.34774 0.36536 0.75884 0.0
C219 C 0.28936 0.41235 0.7865 0.0
C220 C 0.29939 0.35572 0.76887 0.0
C221 C 0.33781 0.4206 0.77629 0.0
C222 C 0.27029 0.37964 0.78309 0.0
N223 N 0.42229 0.35437 0.73326 0.0
C224 C 0.4483 0.3352 0.71431 0.0
C225 C 0.35856 0.31057 0.7377 0.0
C226 C 0.37701 0.34321 0.7436 0.0
C227 C 0.38746 0.28979 0.72029 0.0
C228 C 0.43206 0.30241 0.70811 0.0
H229 H 0.23287 0.37327 0.79113 0.0
H230 H 0.24485 0.31467 0.77196 0.0
H231 H 0.29666 0.27509 0.74456 0.0
O232 O 0.41603 0.4075 0.70579 0.0
O233 O 0.42975 0.38789 0.78952 0.0
O234 O 0.50414 0.36433 0.80526 0.0
O235 O 0.42644 0.45397 0.72952 0.0
O236 O 0.51834 0.38124 0.73841 0.0
O237 O 0.54973 0.36185 0.78102 0.0
O238 O 0.54322 0.41611 0.85021 0.0
O239 O 0.54841 0.44889 0.7765 0.0
O240 O 0.52483 0.42063 0.73708 0.0
O241 O 0.6078 0.38804 0.83695 0.0
O242 O 0.48426 0.43032 0.81806 0.0
O243 O 0.44883 0.45069 0.77652 0.0
C244 C 0.4542 0.36449 0.80336 0.0
C245 C 0.39235 0.45964 0.68195 0.0
C246 C 0.37163 0.46487 0.6318 0.0
C247 C 0.36274 0.49928 0.63594 0.0
C248 C 0.38291 0.49408 0.68545 0.0
C249 C 0.36801 0.51366 0.6626 0.0
C250 C 0.38592 0.44499 0.65505 0.0
C251 C 0.54354 0.35907 0.75349 0.0
C252 C 0.41243 0.44004 0.70591 0.0
C253 C 0.28167 0.32277 0.76413 0.0
C254 C 0.31125 0.3002 0.7486 0.0
C255 C 0.54765 0.44617 0.74898 0.0
C256 C 0.57095 0.37411 0.88084 0.0
C257 C 0.57195 0.35953 0.93086 0.0
C258 C 0.54601 0.32936 0.92441 0.0
C259 C 0.54546 0.34383 0.87486 0.0
C260 C 0.58431 0.38184 0.90879 0.0
C261 C 0.53298 0.32161 0.89659 0.0
C262 C 0.45659 0.45204 0.80409 0.0
C263 C 0.58171 0.39856 0.85838 0.0
H264 H 0.35114 0.51503 0.61853 0.0
H265 H 0.38761 0.50604 0.70581 0.0
H266 H 0.36092 0.54018 0.66553 0.0
H267 H 0.39359 0.41852 0.65197 0.0
H268 H 0.53651 0.31146 0.94082 0.0
H269 H 0.53511 0.33748 0.85346 0.0
H270 H 0.60354 0.40546 0.91337 0.0
H271 H 0.51321 0.29828 0.89185 0.0
Tb272 Tb 0.05101 0.90754 0.74568 0.0
C273 C 0.83242 0.8817 0.78654 0.0
N274 N 0.86108 0.91018 0.78888 0.0
C275 C 0.791 0.94265 0.7719 0.0
C276 C 0.78266 0.88235 0.77559 0.0
C277 C 0.83973 0.94072 0.78349 0.0
C278 C 0.76268 0.91326 0.76739 0.0
C279 C 0.8218 0.82264 0.79791 0.0
C280 C 0.85156 0.85226 0.79738 0.0
C281 C 0.77326 0.82264 0.78563 0.0
C282 C 0.75378 0.85244 0.77439 0.0
Tb283 Tb 0.94172 0.90305 0.80629 0.0
N284 N 0.89894 0.85311 0.80855 0.0
C285 C 0.8413 0.79428 0.81143 0.0
C286 C 0.91714 0.82623 0.82317 0.0
C287 C 0.88886 0.79626 0.82453 0.0
H288 H 0.85977 0.96384 0.78834 0.0
H289 H 0.90378 0.77473 0.83557 0.0
H290 H 0.14584 0.87003 0.77789 0.0
H291 H 0.03275 0.03364 0.70401 0.0
H292 H 0.95388 0.82786 0.83329 0.0
H293 H 0.81956 0.77103 0.8124 0.0
H294 H 0.01058 0.97374 0.70847 0.0
H295 H 0.77495 0.96687 0.76694 0.0
H296 H 0.74999 0.80001 0.7854 0.0
H297 H 0.71568 0.85236 0.76575 0.0
H298 H 0.22857 0.88617 0.79878 0.0
H299 H 0.72463 0.91488 0.75883 0.0
H300 H 0.10972 0.05632 0.72754 0.0
N301 N 0.12843 0.91973 0.76495 0.0
C302 C 0.14515 0.952 0.76246 0.0
C303 C 0.20526 0.90499 0.78883 0.0
C304 C 0.19197 0.9624 0.77405 0.0
C305 C 0.15823 0.89596 0.7772 0.0
C306 C 0.22203 0.93841 0.78748 0.0
N307 N 0.0696 0.96323 0.73772 0.0
C308 C 0.04203 0.98361 0.72051 0.0
C309 C 0.12982 1.00845 0.74584 0.0
C310 C 0.1142 0.97465 0.74882 0.0
C311 C 0.09912 0.03014 0.73035 0.0
C312 C 0.0555 0.01749 0.71719 0.0
H313 H 0.25835 0.94536 0.79663 0.0
H314 H 0.2428 1.00486 0.78081 0.0
H315 H 0.18852 0.0452 0.75593 0.0
O316 O 0.06922 0.91434 0.70304 0.0
O317 O 0.06351 0.92634 0.78898 0.0
O318 O 0.98743 0.94881 0.80193 0.0
O319 O 0.09271 0.86985 0.72465 0.0
O320 O 0.97563 0.92726 0.73571 0.0
O321 O 0.94407 0.94706 0.77802 0.0
O322 O 0.96523 0.89943 0.84852 0.0
O323 O 0.94932 0.86102 0.77649 0.0
O324 O 0.97691 0.88523 0.73519 0.0
O325 O 0.89177 0.91861 0.83839 0.0
O326 O 0.01482 0.87867 0.81436 0.0
O327 O 0.04969 0.86172 0.77139 0.0
C328 C 0.03721 0.94941 0.8021 0.0
C329 C 0.14247 0.8891 0.68548 0.0
C330 C 0.18571 0.89584 0.64009 0.0
C331 C 0.23233 0.89836 0.65447 0.0
C332 C 0.18936 0.8916 0.69935 0.0
C333 C 0.23403 0.89612 0.68385 0.0
C334 C 0.1409 0.89101 0.65587 0.0
C335 C 0.94607 0.9473 0.75026 0.0
C336 C 0.09418 0.88658 0.70108 0.0
C337 C 0.20706 0.99626 0.77189 0.0
C338 C 0.17605 0.01925 0.75781 0.0
C339 C 0.95109 0.862 0.74885 0.0
C340 C 0.929 0.93685 0.88114 0.0
C341 C 0.91763 0.95135 0.9309 0.0
C342 C 0.93971 0.98309 0.92545 0.0
C343 C 0.95057 0.96861 0.87613 0.0
C344 C 0.91282 0.9283 0.90844 0.0
C345 C 0.95607 0.99156 0.89827 0.0
C346 C 0.04392 0.85887 0.79899 0.0
C347 C 0.92352 0.91188 0.85847 0.0
H348 H 0.26758 0.90167 0.64296 0.0
H349 H 0.19153 0.89033 0.72206 0.0
H350 H 0.27015 0.89803 0.69467 0.0
H351 H 0.10455 0.88957 0.64516 0.0
H352 H 0.94354 1.00162 0.94206 0.0
H353 H 0.96302 0.97559 0.85519 0.0
H354 H 0.89694 0.90344 0.91216 0.0
H355 H 0.9728 0.01608 0.89431 0.0
Tb356 Tb 0.45061 0.61001 0.24544 0.0
C357 C 0.66874 0.64347 0.27522 0.0
N358 N 0.64312 0.61418 0.27998 0.0
C359 C 0.71252 0.5834 0.26004 0.0
C360 C 0.71618 0.64402 0.26142 0.0
C361 C 0.66606 0.58421 0.27435 0.0
C362 C 0.73722 0.61347 0.253 0.0
C363 C 0.67642 0.70326 0.28437 0.0
C364 C 0.6493 0.67266 0.28642 0.0
C365 C 0.72226 0.70438 0.26921 0.0
C366 C 0.74205 0.6748 0.25767 0.0
Tb367 Tb 0.56555 0.6193 0.30177 0.0
N368 N 0.60451 0.67066 0.30045 0.0
C369 C 0.6572 0.73151 0.29824 0.0
C370 C 0.58699 0.69752 0.31542 0.0
C371 C 0.61272 0.72847 0.31424 0.0
H372 H 0.64908 0.56073 0.28108 0.0
H373 H 0.59819 0.74994 0.32556 0.0
H374 H 0.35147 0.63838 0.27971 0.0
H375 H 0.47947 0.4913 0.19183 0.0
H376 H 0.55263 0.69509 0.32777 0.0
H377 H 0.67697 0.75551 0.29726 0.0
H378 H 0.49258 0.55188 0.19997 0.0
H379 H 0.72969 0.55956 0.25493 0.0
H380 H 0.74336 0.72776 0.26697 0.0
H381 H 0.77826 0.6758 0.24682 0.0
H382 H 0.27256 0.6152 0.30095 0.0
H383 H 0.77359 0.61276 0.24232 0.0
H384 H 0.41168 0.46058 0.21762 0.0
N385 N 0.37714 0.59086 0.26549 0.0
C386 C 0.36593 0.55777 0.26198 0.0
C387 C 0.29875 0.59871 0.29026 0.0
C388 C 0.32171 0.54334 0.27376 0.0
C389 C 0.34343 0.61176 0.27834 0.0
C390 C 0.28818 0.56425 0.28833 0.0
N391 N 0.43863 0.55457 0.23335 0.0
C392 C 0.46537 0.5384 0.2128 0.0
C393 C 0.38765 0.50453 0.24081 0.0
C394 C 0.39852 0.53878 0.24585 0.0
C395 C 0.41863 0.48695 0.22205 0.0
C396 C 0.457 0.50417 0.20752 0.0
H397 H 0.25365 0.55418 0.29764 0.0
H398 H 0.27854 0.4971 0.27923 0.0
H399 H 0.33632 0.46304 0.2503 0.0
O400 O 0.41537 0.60522 0.20528 0.0
O401 O 0.44201 0.59187 0.28928 0.0
O402 O 0.52113 0.57273 0.30045 0.0
O403 O 0.41229 0.65185 0.22926 0.0
O404 O 0.52636 0.59218 0.2333 0.0
O405 O 0.56169 0.57385 0.27502 0.0
O406 O 0.54954 0.62318 0.34511 0.0
O407 O 0.54797 0.6599 0.27199 0.0
O408 O 0.52237 0.63308 0.2316 0.0
O409 O 0.62233 0.6066 0.33102 0.0
O410 O 0.49292 0.64193 0.31393 0.0
O411 O 0.4483 0.65449 0.27276 0.0
C412 C 0.47157 0.57117 0.30308 0.0
C413 C 0.36852 0.65178 0.18423 0.0
C414 C 0.33888 0.65514 0.13551 0.0
C415 C 0.30665 0.68151 0.14332 0.0
C416 C 0.33643 0.67843 0.1914 0.0
C417 C 0.30567 0.69312 0.17105 0.0
C418 C 0.36998 0.64032 0.15611 0.0
C419 C 0.55667 0.57217 0.24738 0.0
C420 C 0.39928 0.6359 0.20643 0.0
C421 C 0.31202 0.50883 0.27007 0.0
C422 C 0.34501 0.48942 0.25367 0.0
C423 C 0.54635 0.65785 0.24441 0.0
C424 C 0.5935 0.5866 0.37509 0.0
C425 C 0.60373 0.57254 0.42492 0.0
C426 C 0.59247 0.53874 0.41845 0.0
C427 C 0.58354 0.55273 0.369 0.0
C428 C 0.60352 0.59641 0.40298 0.0
C429 C 0.58248 0.52898 0.39066 0.0
C430 C 0.45814 0.65882 0.29986 0.0
C431 C 0.59363 0.61214 0.35275 0.0
H432 H 0.2827 0.6935 0.12782 0.0
H433 H 0.33461 0.68765 0.21287 0.0
H434 H 0.2809 0.71356 0.17678 0.0
H435 H 0.39479 0.61987 0.15031 0.0
H436 H 0.59272 0.51968 0.43473 0.0
H437 H 0.57704 0.54479 0.34752 0.0
H438 H 0.61112 0.62269 0.40756 0.0
H439 H 0.57454 0.50285 0.38584 0.0
H440 H 0.11782 0.87876 0.38085 0.0
H441 H 0.23059 0.9435 0.41884 0.0
H442 H 0.08016 0.9271 0.35716 0.0
H443 H 0.19256 0.99237 0.39552 0.0
H444 H 0.07703 0.07244 0.36095 0.0
H445 H 0.10942 0.02703 0.39045 0.0
H446 H 0.11915 0.96299 0.31721 0.0
H447 H 0.08715 1.00842 0.28764 0.0
C448 C 0.13333 0.90364 0.3848 0.0
C449 C 0.17693 0.90762 0.40151 0.0
C450 C 0.11231 0.93117 0.37104 0.0
C451 C 0.13414 0.96333 0.37404 0.0
C452 C 0.1751 0.9678 0.39278 0.0
C453 C 0.19653 0.94004 0.40633 0.0
C454 C 0.08642 0.0487 0.35113 0.0
C455 C 0.0796 0.04394 0.32198 0.0
C456 C 0.10501 0.0228 0.36803 0.0
C457 C 0.11623 0.99142 0.35618 0.0
C458 C 0.11012 0.98683 0.32696 0.0
C459 C 0.09233 0.01289 0.30999 0.0
H460 H 0.3906 0.64066 0.88638 0.0
H461 H 0.26618 0.57596 0.91066 0.0
H462 H 0.43147 0.59344 0.86227 0.0
H463 H 0.30713 0.52829 0.88718 0.0
H464 H 0.42588 0.44811 0.85863 0.0
H465 H 0.39094 0.49284 0.88788 0.0
H466 H 0.39875 0.56083 0.81715 0.0
H467 H 0.43316 0.51583 0.78761 0.0
C468 C 0.37333 0.61587 0.8875 0.0
C469 C 0.32601 0.61145 0.90061 0.0
C470 C 0.39607 0.58911 0.87341 0.0
C471 C 0.37203 0.55743 0.87262 0.0
C472 C 0.32644 0.55247 0.88757 0.0
C473 C 0.30333 0.57945 0.90123 0.0
C474 C 0.41991 0.47258 0.84928 0.0
C475 C 0.43217 0.47859 0.82085 0.0
C476 C 0.39991 0.49808 0.86603 0.0
C477 C 0.39274 0.53026 0.85483 0.0
C478 C 0.40459 0.53626 0.82634 0.0
C479 C 0.42371 0.51052 0.80939 0.0
H480 H 0.61209 0.63927 0.67199 0.0
H481 H 0.72213 0.57358 0.63468 0.0
H482 H 0.57067 0.59128 0.695 0.0
H483 H 0.68155 0.5251 0.65802 0.0
H484 H 0.5726 0.44331 0.6932 0.0
H485 H 0.60408 0.4891 0.66332 0.0
H486 H 0.59873 0.55668 0.73457 0.0
H487 H 0.5659 0.51135 0.76401 0.0
C488 C 0.62641 0.61424 0.66825 0.0
C489 C 0.66992 0.60977 0.65172 0.0
C490 C 0.60327 0.58689 0.68161 0.0
C491 C 0.62347 0.5545 0.67878 0.0
C492 C 0.66504 0.54974 0.66056 0.0
C493 C 0.68815 0.57728 0.64712 0.0
C494 C 0.57802 0.46803 0.7024 0.0
C495 C 0.56727 0.47372 0.73104 0.0
C496 C 0.59626 0.49415 0.68533 0.0
C497 C 0.60362 0.52654 0.69652 0.0
C498 C 0.59276 0.53214 0.72517 0.0
C499 C 0.57469 0.50604 0.7422 0.0
H500 H 0.78798 0.95089 0.13278 0.0
H501 H 0.87394 0.88091 0.18216 0.0
H502 H 0.83437 0.99795 0.15479 0.0
H503 H 0.9179 0.92708 0.20552 0.0
H504 H 0.01503 0.01285 0.23238 0.0
H505 H 0.97708 0.96978 0.20281 0.0
H506 H 0.83861 0.02708 0.19833 0.0
H507 H 0.87897 0.07192 0.22571 0.0
C508 C 0.8174 0.94572 0.14806 0.0
C509 C 0.82751 0.91253 0.15597 0.0
C510 C 0.84339 0.97254 0.16104 0.0
C511 C 0.8797 0.96652 0.18225 0.0
C512 C 0.89093 0.933 0.18909 0.0
C513 C 0.86552 0.90642 0.17591 0.0
C514 C 0.97692 0.01669 0.22451 0.0
C515 C 0.95038 0.0461 0.23103 0.0
C516 C 0.9547 0.99163 0.20789 0.0
C517 C 0.90451 0.99467 0.19811 0.0
C518 C 0.87763 0.02402 0.20494 0.0
C519 C 0.90046 0.04954 0.22106 0.0
H520 H 0.88757 0.13209 0.66176 0.0
H521 H 0.74982 0.07455 0.65043 0.0
H522 H 0.9262 0.08435 0.68639 0.0
H523 H 0.78824 0.02643 0.67431 0.0
H524 H 0.90059 0.94058 0.69938 0.0
H525 H 0.86544 0.98522 0.66998 0.0
H526 H 0.89883 0.05768 0.73536 0.0
H527 H 0.93325 0.01285 0.76498 0.0
C528 C 0.86661 0.10861 0.66353 0.0
C529 C 0.81651 0.10632 0.65374 0.0
C530 C 0.88816 0.08163 0.67792 0.0
C531 C 0.85992 0.05191 0.68236 0.0
C532 C 0.81086 0.04899 0.67098 0.0
C533 C 0.7891 0.0762 0.65712 0.0
C534 C 0.89969 0.96601 0.70755 0.0
C535 C 0.91919 0.97341 0.73441 0.0
C536 C 0.87985 0.99146 0.69074 0.0
C537 C 0.88015 0.02483 0.70031 0.0
C538 C 0.89887 0.03215 0.7274 0.0
C539 C 0.91781 1.00655 0.74447 0.0
H540 H 0.62451 0.38138 0.16893 0.0
H541 H 0.75057 0.44468 0.14473 0.0
H542 H 0.58407 0.42934 0.19229 0.0
H543 H 0.71047 0.49298 0.16773 0.0
H544 H 0.59593 0.57595 0.19447 0.0
H545 H 0.63195 0.5303 0.16642 0.0
H546 H 0.6104 0.4623 0.23639 0.0
H547 H 0.57468 0.50805 0.26445 0.0
C548 C 0.64247 0.40597 0.16786 0.0
C549 C 0.6899 0.40984 0.15481 0.0
C550 C 0.61993 0.43319 0.1815 0.0
C551 C 0.64443 0.46479 0.18207 0.0
C552 C 0.69062 0.46899 0.16751 0.0
C553 C 0.71339 0.4416 0.15422 0.0
C554 C 0.59936 0.55127 0.20386 0.0
C555 C 0.58264 0.54541 0.23156 0.0
C556 C 0.61987 0.52521 0.18784 0.0
C557 C 0.62339 0.49269 0.19911 0.0
C558 C 0.60741 0.48701 0.22702 0.0
C559 C 0.5876 0.51321 0.24319 0.0
H560 H 0.38326 0.38463 0.38211 0.0
H561 H 0.28713 0.45552 0.42425 0.0
H562 H 0.42737 0.42999 0.35807 0.0
H563 H 0.33373 0.50213 0.4018 0.0
H564 H 0.37715 0.57111 0.32759 0.0
H565 H 0.33988 0.52841 0.35824 0.0
H566 H 0.48162 0.4743 0.35659 0.0
H567 H 0.51568 0.51451 0.32313 0.0
C568 C 0.373 0.4103 0.3869 0.0
C569 C 0.33181 0.41674 0.40473 0.0
C570 C 0.39842 0.43651 0.37325 0.0
C571 C 0.38409 0.47012 0.37759 0.0
C572 C 0.34517 0.47664 0.3973 0.0
C573 C 0.31903 0.45011 0.41062 0.0
C574 C 0.3998 0.54969 0.33336 0.0
C575 C 0.44925 0.54614 0.32274 0.0
C576 C 0.37889 0.52549 0.35153 0.0
C577 C 0.40747 0.49754 0.36012 0.0
C578 C 0.45768 0.49484 0.35015 0.0
C579 C 0.47781 0.51839 0.3313 0.0
H580 H 0.25438 0.07996 0.8882 0.0
H581 H 0.10896 0.12281 0.9069 0.0
H582 H 0.21283 0.03269 0.86452 0.0
H583 H 0.06629 0.07431 0.88554 0.0
H584 H 0.00835 0.01359 0.81116 0.0
H585 H 0.04957 0.05582 0.84054 0.0
H586 H 0.16484 0.98396 0.86326 0.0
H587 H 0.12456 0.94242 0.83241 0.0
C588 C 0.21328 0.07831 0.88819 0.0
C589 C 0.18467 0.10467 0.89935 0.0
C590 C 0.18927 0.05125 0.87467 0.0
C591 C 0.13591 0.0497 0.87255 0.0
C592 C 0.1074 0.07499 0.8859 0.0
C593 C 0.13161 0.10244 0.89879 0.0
C594 C 0.04257 1.00696 0.82246 0.0
C595 C 0.06333 0.97486 0.81958 0.0
C596 C 0.06601 0.03103 0.83963 0.0
C597 C 0.11042 0.02342 0.8548 0.0
C598 C 0.13112 0.99107 0.85178 0.0
C599 C 0.10806 0.96716 0.83415 0.0
H600 H 0.12159 0.14968 0.95189 0.0
H601 H 0.2723 0.11659 0.97178 0.0
H602 H 0.09194 0.13222 0.99861 0.0
H603 H 0.24331 0.09855 1.0186 0.0
H604 H 0.18905 0.10808 0.10974 0.0
H605 H 0.21634 0.12354 0.06235 0.0
H606 H 0.07492 0.08474 0.02873 0.0
H607 H 0.04674 0.07066 0.07622 0.0
C608 C 0.14785 0.13763 0.9661 0.0
C609 C 0.19873 0.1336 0.95826 0.0
C610 C 0.13114 0.12782 0.9929 0.0
C611 C 0.16522 0.11399 1.0125 0.0
C612 C 0.21613 0.10949 1.00425 0.0
C613 C 0.2327 0.11935 0.97744 0.0
C614 C 0.16346 0.10326 0.09231 0.0
C615 C 0.11568 0.08806 0.0969 0.0
C616 C 0.17943 0.11168 0.06503 0.0
C617 C 0.14805 0.10514 0.04159 0.0
C618 C 0.10001 0.09034 0.04623 0.0
C619 C 0.08404 0.08194 0.0735 0.0
H620 H 0.38151 0.39503 0.45534 0.0
H621 H 0.22435 0.39777 0.48054 0.0
H622 H 0.40697 0.41514 0.50239 0.0
H623 H 0.24943 0.4166 0.52763 0.0
H624 H 0.31637 0.40924 0.61647 0.0
H625 H 0.2984 0.38921 0.56859 0.0
H626 H 0.39479 0.46772 0.5346 0.0
H627 H 0.41239 0.4879 0.58244 0.0
C628 C 0.3525 0.40041 0.47083 0.0
C629 C 0.30102 0.3947 0.46449 0.0
C630 C 0.36698 0.41162 0.49775 0.0
C631 C 0.33019 0.41682 0.51882 0.0
C632 C 0.27868 0.41211 0.51204 0.0
C633 C 0.2643 0.40148 0.48513 0.0
C634 C 0.33426 0.42187 0.59878 0.0
C635 C 0.36549 0.45023 0.60315 0.0
C636 C 0.32371 0.41061 0.5714 0.0
C637 C 0.34487 0.42712 0.54786 0.0
C638 C 0.37803 0.45449 0.55231 0.0
C639 C 0.38788 0.4661 0.57966 0.0
H640 H 0.63849 0.32438 0.10414 0.0
H641 H 0.72241 0.41613 0.08963 0.0
H642 H 0.59821 0.32933 0.05806 0.0
H643 H 0.68143 0.42197 0.04338 0.0
H644 H 0.66264 0.38496 0.95009 0.0
H645 H 0.68978 0.39217 0.99886 0.0
H646 H 0.54167 0.35898 0.02746 0.0
H647 H 0.51482 0.35141 0.97865 0.0
C648 C 0.64697 0.34617 0.09123 0.0
C649 C 0.68331 0.36985 0.10016 0.0
C650 C 0.62391 0.34915 0.06489 0.0
C651 C 0.63683 0.37594 0.04682 0.0
C652 C 0.67112 0.40079 0.05659 0.0
C653 C 0.69409 0.39778 0.08311 0.0
C654 C 0.63559 0.37978 0.96678 0.0
C655 C 0.58678 0.3672 0.96048 0.0
C656 C 0.65108 0.38404 0.99479 0.0
C657 C 0.61804 0.37594 1.01717 0.0
C658 C 0.56842 0.36487 1.01078 0.0
C659 C 0.55304 0.36049 0.9828 0.0
H660 H 0.78162 0.08899 0.59936 0.0
H661 H 0.84007 0.1891 0.58553 0.0
H662 H 0.80896 0.0726 0.55247 0.0
H663 H 0.86137 0.17464 0.53741 0.0
H664 H 0.90348 0.14555 0.45135 0.0
H665 H 0.90411 0.15087 0.50208 0.0
H666 H 0.78391 0.07603 0.50767 0.0
H667 H 0.78837 0.06753 0.45757 0.0
C668 C 0.80097 0.10739 0.58638 0.0
C669 C 0.80827 0.14041 0.59602 0.0
C670 C 0.81561 0.09831 0.55905 0.0
C671 C 0.83628 0.12238 0.54029 0.0
C672 C 0.84607 0.15499 0.55077 0.0
C673 C 0.83305 0.16363 0.57837 0.0
C674 C 0.87833 0.12935 0.46337 0.0
C675 C 0.84509 0.10655 0.44985 0.0
C676 C 0.87788 0.13295 0.49275 0.0
C677 C 0.84308 0.11463 0.50952 0.0
C678 C 0.81167 0.09066 0.49603 0.0
C679 C 0.81332 0.0863 0.46683 0.0
H680 H 0.88528 0.88519 0.10618 0.0
H681 H 0.7323 0.90136 0.07778 0.0
H682 H 0.91818 0.90554 0.06081 0.0
H683 H 0.76434 0.92253 0.03274 0.0
H684 H 0.83181 0.91557 0.94503 0.0
H685 H 0.802 0.89971 0.99161 0.0
H686 H 0.9295 0.95235 0.02914 0.0
H687 H 0.96095 0.96677 0.98222 0.0
C688 C 0.85891 0.89384 0.09033 0.0
C689 C 0.80643 0.89167 0.09517 0.0
C690 C 0.87755 0.90549 0.06438 0.0
C691 C 0.84392 0.9153 0.04286 0.0
C692 C 0.79138 0.91445 0.04846 0.0
C693 C 0.77292 0.90264 0.07426 0.0
C694 C 0.85395 0.92347 0.96313 0.0
C695 C 0.899 0.94237 0.95971 0.0
C696 C 0.83636 0.91479 0.98998 0.0
C697 C 0.86305 0.92494 1.0143 0.0
C698 C 0.9081 0.94389 1.01094 0.0
C699 C 0.92584 0.9525 0.98399 0.0
H700 H 0.77075 0.62806 0.57594 0.0
H701 H 0.61462 0.63536 0.60208 0.0
H702 H 0.74363 0.60762 0.52967 0.0
H703 H 0.58674 0.6151 0.55563 0.0
H704 H 0.56029 0.55175 0.47479 0.0
H705 H 0.58578 0.56712 0.52271 0.0
H706 H 0.70304 0.63237 0.48897 0.0
H707 H 0.67889 0.61619 0.44136 0.0
C708 C 0.73055 0.62503 0.57166 0.0
C709 C 0.69468 0.63342 0.59227 0.0
C710 C 0.71493 0.61354 0.54521 0.0
C711 C 0.66296 0.6102 0.53876 0.0
C712 C 0.62704 0.61723 0.55992 0.0
C713 C 0.64284 0.62877 0.58647 0.0
C714 C 0.59174 0.56919 0.47765 0.0
C715 C 0.61758 0.5827 0.45419 0.0
C716 C 0.60603 0.57823 0.5051 0.0
C717 C 0.64669 0.60079 0.50971 0.0
C718 C 0.67209 0.6145 0.48623 0.0
C719 C 0.65777 0.60557 0.45887 0.0
H720 H 0.36407 0.68796 0.96119 0.0
H721 H 0.26439 0.60159 0.96167 0.0
H722 H 0.38397 0.67882 1.01097 0.0
H723 H 0.28404 0.59196 1.01159 0.0
H724 H 0.25862 0.6356 0.10325 0.0
H725 H 0.25708 0.627 0.05237 0.0
H726 H 0.41969 0.64226 0.0491 0.0
H727 H 0.42102 0.65084 0.10036 0.0
C728 C 0.34805 0.66624 0.97185 0.0
C729 C 0.31311 0.64531 0.95785 0.0
C730 C 0.35934 0.66094 1.00028 0.0
C731 C 0.33528 0.63478 1.01531 0.0
C732 C 0.30291 0.61245 1.00064 0.0
C733 C 0.29203 0.61765 0.97209 0.0
C734 C 0.29415 0.63638 0.09171 0.0
C735 C 0.33987 0.64407 0.10565 0.0
C736 C 0.29338 0.63122 0.06259 0.0
C737 C 0.33827 0.63404 0.04664 0.0
C738 C 0.38447 0.64008 0.0608 0.0
C739 C 0.38531 0.64479 0.0901 0.0
H740 H 0.13151 0.87249 0.45808 0.0
H741 H 0.28956 0.89756 0.46917 0.0
H742 H 0.11553 0.88498 0.50804 0.0
H743 H 0.27486 0.90924 0.51893 0.0
H744 H 0.23559 0.94096 0.6062 0.0
H745 H 0.23797 0.9425 0.55485 0.0
H746 H 0.13516 0.85715 0.5517 0.0
H747 H 0.13204 0.85619 0.60308 0.0
C748 C 0.16239 0.88169 0.47114 0.0
C749 C 0.21164 0.88426 0.46005 0.0
C750 C 0.15359 0.88835 0.49978 0.0
C751 C 0.19401 0.89776 0.51774 0.0
C752 C 0.24262 0.90245 0.50588 0.0
C753 C 0.25124 0.89577 0.47739 0.0
C754 C 0.21335 0.92262 0.59451 0.0
C755 C 0.18411 0.89821 0.60875 0.0
C756 C 0.21466 0.9235 0.56504 0.0
C757 C 0.18711 0.89979 0.54897 0.0
C758 C 0.15635 0.87613 0.56325 0.0
C759 C 0.15474 0.87544 0.59277 0.0
H760 H 0.15135 0.32578 0.41805 0.0
H761 H 0.28392 0.2999 0.36978 0.0
H762 H 0.10383 0.27937 0.39605 0.0
H763 H 0.23642 0.2546 0.34667 0.0
H764 H 0.15376 0.15653 0.33002 0.0
H765 H 0.19954 0.20046 0.35549 0.0
H766 H 0.0675 0.26388 0.35108 0.0
H767 H 0.02146 0.2196 0.32585 0.0
C768 C 0.17017 0.30999 0.40277 0.0
C769 C 0.22104 0.31624 0.39549 0.0
C770 C 0.14299 0.28371 0.38993 0.0
C771 C 0.16626 0.26326 0.36953 0.0
C772 C 0.21746 0.2695 0.36255 0.0
C773 C 0.24456 0.29561 0.37549 0.0
C774 C 0.13449 0.17985 0.33451 0.0
C775 C 0.08414 0.18471 0.32577 0.0
C776 C 0.16078 0.20509 0.34905 0.0
C777 C 0.13733 0.23582 0.35523 0.0
C778 C 0.08652 0.24038 0.347 0.0
C779 C 0.06015 0.21504 0.33248 0.0
H780 H 0.35114 0.20148 0.91312 0.0
H781 H 0.21974 0.22765 0.86416 0.0
H782 H 0.40014 0.24677 0.89042 0.0
H783 H 0.26854 0.27222 0.84068 0.0
H784 H 0.35789 0.36936 0.82411 0.0
H785 H 0.30888 0.32659 0.84935 0.0
H786 H 0.43586 0.25896 0.84389 0.0
H787 H 0.48451 0.30169 0.81829 0.0
C788 C 0.33286 0.21719 0.8976 0.0
C789 C 0.28199 0.21125 0.89021 0.0
C790 C 0.36085 0.24281 0.88439 0.0
C791 C 0.33832 0.26299 0.86361 0.0
C792 C 0.28694 0.25737 0.85676 0.0
C793 C 0.25909 0.23176 0.86996 0.0
C794 C 0.37505 0.34521 0.82801 0.0
C795 C 0.42481 0.33875 0.819 0.0
C796 C 0.34707 0.32074 0.84256 0.0
C797 C 0.36844 0.28933 0.84866 0.0
C798 C 0.4185 0.28304 0.83989 0.0
C799 C 0.44634 0.30747 0.82517 0.0
H800 H 0.75916 0.24822 0.65228 0.0
H801 H 0.65659 0.17187 0.68358 0.0
H802 H 0.71004 0.29151 0.67651 0.0
H803 H 0.60706 0.21487 0.70789 0.0
H804 H 0.56955 0.2971 0.77298 0.0
H805 H 0.61722 0.25383 0.74798 0.0
H806 H 0.62657 0.31812 0.67477 0.0
H807 H 0.5802 0.3615 0.69997 0.0
C808 C 0.72565 0.24093 0.66413 0.0
C809 C 0.71144 0.20698 0.66625 0.0
C810 C 0.69758 0.26554 0.67798 0.0
C811 C 0.65479 0.25655 0.69421 0.0
C812 C 0.64028 0.22251 0.69593 0.0
C813 C 0.66834 0.19796 0.68201 0.0
C814 C 0.58195 0.30189 0.75157 0.0
C815 C 0.57122 0.33255 0.73838 0.0
C816 C 0.60886 0.2771 0.73719 0.0
C817 C 0.62561 0.28259 0.7094 0.0
C818 C 0.61465 0.31328 0.69625 0.0
C819 C 0.58772 0.33798 0.71059 0.0
H820 H 0.74959 0.2692 0.15543 0.0
H821 H 0.85904 0.3462 0.17738 0.0
H822 H 0.80296 0.22671 0.1777 0.0
H823 H 0.91188 0.304 0.20047 0.0
H824 H 0.94772 0.22459 0.26979 0.0
H825 H 0.8998 0.26677 0.24394 0.0
H826 H 0.89154 0.20046 0.17196 0.0
H827 H 0.93986 0.15815 0.19788 0.0
C828 C 0.78541 0.27687 0.16475 0.0
C829 C 0.80038 0.31084 0.16477 0.0
C830 C 0.81584 0.25267 0.1775 0.0
C831 C 0.86145 0.26212 0.19084 0.0
C832 C 0.87665 0.2961 0.19057 0.0
C833 C 0.84653 0.32019 0.17747 0.0
C834 C 0.93577 0.21908 0.24842 0.0
C835 C 0.94721 0.18811 0.23583 0.0
C836 C 0.90868 0.24328 0.23359 0.0
C837 C 0.89202 0.23685 0.20597 0.0
C838 C 0.90374 0.20594 0.19329 0.0
C839 C 0.93156 0.18188 0.20801 0.0
H840 H 0.84342 0.70503 0.6341 0.0
H841 H 0.71793 0.72636 0.68955 0.0
H842 H 0.89373 0.74996 0.65672 0.0
H843 H 0.76915 0.76979 0.71321 0.0
H844 H 0.91773 0.80051 0.7668 0.0
H845 H 0.86614 0.75955 0.74093 0.0
H846 H 0.87503 0.82179 0.66672 0.0
H847 H 0.92375 0.86416 0.69322 0.0
C848 C 0.82653 0.71958 0.65089 0.0
C849 C 0.777 0.71222 0.66024 0.0
C850 C 0.85526 0.74504 0.66386 0.0
C851 C 0.83513 0.76296 0.68668 0.0
C852 C 0.78539 0.75604 0.69572 0.0
C853 C 0.75635 0.73118 0.68235 0.0
C854 C 0.90753 0.80596 0.74527 0.0
C855 C 0.92329 0.83609 0.73243 0.0
C856 C 0.87864 0.78232 0.73038 0.0
C857 C 0.86651 0.78784 0.70201 0.0
C858 C 0.88397 0.81719 0.68865 0.0
C859 C 0.91184 0.84129 0.70381 0.0
H860 H 0.65156 0.81932 0.13219 0.0
H861 H 0.77527 0.79558 0.188 0.0
H862 H 0.60062 0.77324 0.15286 0.0
H863 H 0.72366 0.75074 0.20949 0.0
H864 H 0.56528 0.7227 0.25959 0.0
H865 H 0.61498 0.76492 0.23388 0.0
H866 H 0.63079 0.69625 0.16418 0.0
H867 H 0.58324 0.65303 0.19059 0.0
C868 C 0.66794 0.80397 0.1486 0.0
C869 C 0.71708 0.81103 0.1587 0.0
C870 C 0.6389 0.77784 0.16042 0.0
C871 C 0.65851 0.75877 0.18268 0.0
C872 C 0.70795 0.76528 0.19233 0.0
C873 C 0.73718 0.79095 0.18023 0.0
C874 C 0.57996 0.7164 0.23899 0.0
C875 C 0.57169 0.68429 0.22746 0.0
C876 C 0.60782 0.74065 0.22421 0.0
C877 C 0.62663 0.73356 0.19725 0.0
C878 C 0.6165 0.70209 0.18501 0.0
C879 C 0.58929 0.67753 0.20006 0.0
H880 H 0.35575 0.82165 0.40823 0.0
H881 H 0.22052 0.78743 0.3654 0.0
H882 H 0.40531 0.7785 0.38408 0.0
H883 H 0.26965 0.74431 0.341 0.0
H884 H 0.38541 0.70077 0.27899 0.0
H885 H 0.33648 0.74242 0.30457 0.0
H886 H 0.41463 0.71672 0.38144 0.0
H887 H 0.46402 0.6751 0.35594 0.0
C888 C 0.33671 0.80452 0.39387 0.0
C889 C 0.28457 0.80765 0.38856 0.0
C890 C 0.3649 0.77991 0.38004 0.0
C891 C 0.3414 0.7581 0.36054 0.0
C892 C 0.28897 0.76105 0.35559 0.0
C893 C 0.26084 0.78554 0.36953 0.0
C894 C 0.39222 0.70386 0.30136 0.0
C895 C 0.42864 0.68442 0.31538 0.0
C896 C 0.36393 0.72767 0.31604 0.0
C897 C 0.37155 0.73275 0.34504 0.0
C898 C 0.40821 0.71356 0.35905 0.0
C899 C 0.43636 0.68961 0.3444 0.0
H900 H 0.26095 0.75209 0.90225 0.0
H901 H 0.16412 0.67405 0.86817 0.0
H902 H 0.21055 0.79468 0.87794 0.0
H903 H 0.1146 0.71637 0.84306 0.0
H904 H 0.0847 0.80135 0.77743 0.0
H905 H 0.13326 0.75885 0.8028 0.0
H906 H 0.11837 0.81601 0.87968 0.0
H907 H 0.06967 0.8583 0.85456 0.0
C908 C 0.22858 0.74421 0.88972 0.0
C909 C 0.21631 0.70998 0.88692 0.0
C910 C 0.19996 0.76842 0.87577 0.0
C911 C 0.15899 0.7587 0.8585 0.0
C912 C 0.14646 0.72444 0.85593 0.0
C913 C 0.17464 0.70032 0.87022 0.0
C914 C 0.09182 0.80481 0.79974 0.0
C915 C 0.07329 0.83308 0.81402 0.0
C916 C 0.11932 0.78045 0.81424 0.0
C917 C 0.12945 0.78424 0.84315 0.0
C918 C 0.1113 0.81263 0.85736 0.0
C919 C 0.08318 0.83668 0.84299 0.0
loop_
_geom_bond_atom_site_label_1
_geom_bond_atom_site_label_2
_geom_bond_distance
_geom_bond_site_symmetry_2
_ccdc_geom_bond_type
C0 N1 1.317 . S
C0 N2 1.348 . S
C0 C3 1.485 . S
N1 C0 1.317 . S
N1 N5 1.370 . S
N2 C0 1.348 . S
N2 C4 1.346 . S
C3 C0 1.485 . S
C3 H7 0.960 . S
C3 H8 0.961 . S
C3 H9 0.960 . S
C4 N2 1.346 . S
C4 N5 1.307 . S
C4 C6 1.486 . S
N5 N1 1.370 . S
N5 C4 1.307 . S
C6 C4 1.486 . S
C6 H10 0.960 . S
C6 H11 0.960 . S
C6 H12 0.959 . S
H7 C3 0.960 . S
H8 C3 0.961 . S
H9 C3 0.960 . S
H10 C6 0.960 . S
H11 C6 0.960 . S
H12 C6 0.959 . S
C13 N14 1.317 . S
C13 N15 1.348 . S
C13 C16 1.485 . S
N14 C13 1.317 . S
N14 N18 1.370 . S
N15 C13 1.348 . S
N15 C17 1.346 . S
C16 C13 1.485 . S
C16 H20 0.960 . S
C16 H21 0.961 . S
C16 H22 0.960 . S
C17 N15 1.346 . S
C17 N18 1.307 . S
C17 C19 1.486 . S
N18 N14 1.370 . S
N18 C17 1.307 . S
C19 C17 1.486 . S
C19 H23 0.960 . S
C19 H24 0.960 . S
C19 H25 0.959 . S
H20 C16 0.960 . S
H21 C16 0.961 . S
H22 C16 0.960 . S
H23 C19 0.960 . S
H24 C19 0.960 . S
H25 C19 0.959 . S
C26 N27 1.317 . S
C26 N28 1.348 . S
C26 C29 1.485 . S
N27 C26 1.317 . S
N27 N31 1.370 . S
N28 C26 1.348 . S
N28 C30 1.346 . S
C29 C26 1.485 . S
C29 H33 0.960 . S
C29 H34 0.961 . S
C29 H35 0.960 . S
C30 N28 1.346 . S
C30 N31 1.307 . S
C30 C32 1.486 . S
N31 N27 1.370 . S
N31 C30 1.307 . S
C32 C30 1.486 . S
C32 H36 0.960 . S
C32 H37 0.960 . S
C32 H38 0.959 . S
H33 C29 0.960 . S
H34 C29 0.961 . S
H35 C29 0.960 . S
H36 C32 0.960 . S
H37 C32 0.960 . S
H38 C32 0.959 . S
C39 N40 1.317 . S
C39 N41 1.348 . S
C39 C42 1.485 . S
N40 C39 1.317 . S
N40 N44 1.370 . S
N41 C39 1.348 . S
N41 C43 1.346 . S
C42 C39 1.485 . S
C42 H46 0.960 . S
C42 H47 0.961 . S
C42 H48 0.960 . S
C43 N41 1.346 . S
C43 N44 1.307 . S
C43 C45 1.486 . S
N44 N40 1.370 . S
N44 C43 1.307 . S
C45 C43 1.486 . S
C45 H49 0.960 . S
C45 H50 0.960 . S
C45 H51 0.959 . S
H46 C42 0.960 . S
H47 C42 0.961 . S
H48 C42 0.960 . S
H49 C45 0.960 . S
H50 C45 0.960 . S
H51 C45 0.959 . S
C52 N53 1.317 . S
C52 N54 1.348 . S
C52 C55 1.485 . S
N53 C52 1.317 . S
N53 N57 1.370 . S
N54 C52 1.348 . S
N54 C56 1.346 . S
C55 C52 1.485 . S
C55 H59 0.960 . S
C55 H60 0.961 . S
C55 H61 0.960 . S
C56 N54 1.346 . S
C56 N57 1.307 . S
C56 C58 1.486 . S
N57 N53 1.370 . S
N57 C56 1.307 . S
C58 C56 1.486 . S
C58 H62 0.960 . S
C58 H63 0.960 . S
C58 H64 0.959 . S
H59 C55 0.960 . S
H60 C55 0.961 . S
H61 C55 0.960 . S
H62 C58 0.960 . S
H63 C58 0.960 . S
H64 C58 0.959 . S
C65 N66 1.317 . S
C65 N67 1.348 . S
C65 C68 1.485 . S
N66 C65 1.317 . S
N66 N70 1.370 . S
N67 C65 1.348 . S
N67 C69 1.346 . S
C68 C65 1.485 . S
C68 H72 0.960 . S
C68 H73 0.961 . S
C68 H74 0.960 . S
C69 N67 1.346 . S
C69 N70 1.307 . S
C69 C71 1.486 . S
N70 N66 1.370 . S
N70 C69 1.307 . S
C71 C69 1.486 . S
C71 H75 0.960 . S
C71 H76 0.960 . S
C71 H77 0.959 . S
H72 C68 0.960 . S
H73 C68 0.961 . S
H74 C68 0.960 . S
H75 C71 0.960 . S
H76 C71 0.960 . S
H77 C71 0.959 . S
C78 N79 1.317 . S
C78 N80 1.348 . S
C78 C81 1.485 . S
N79 C78 1.317 . S
N79 N83 1.370 . S
N80 C78 1.348 . S
N80 C82 1.346 . S
C81 C78 1.485 . S
C81 H85 0.960 . S
C81 H86 0.961 . S
C81 H87 0.960 . S
C82 N80 1.346 . S
C82 N83 1.307 . S
C82 C84 1.486 . S
N83 N79 1.370 . S
N83 C82 1.307 . S
C84 C82 1.486 . S
C84 H88 0.960 . S
C84 H89 0.960 . S
C84 H90 0.959 . S
H85 C81 0.960 . S
H86 C81 0.961 . S
H87 C81 0.960 . S
H88 C84 0.960 . S
H89 C84 0.960 . S
H90 C84 0.959 . S
C91 N92 1.317 . S
C91 N93 1.348 . S
C91 C94 1.485 . S
N92 C91 1.317 . S
N92 N96 1.370 . S
N93 C91 1.348 . S
N93 C95 1.346 . S
C94 C91 1.485 . S
C94 H98 0.960 . S
C94 H99 0.961 . S
C94 H100 0.960 . S
C95 N93 1.346 . S
C95 N96 1.307 . S
C95 C97 1.486 . S
N96 N92 1.370 . S
N96 C95 1.307 . S
C97 C95 1.486 . S
C97 H101 0.960 . S
C97 H102 0.960 . S
C97 H103 0.959 . S
H98 C94 0.960 . S
H99 C94 0.961 . S
H100 C94 0.960 . S
H101 C97 0.960 . S
H102 C97 0.960 . S
H103 C97 0.959 . S
Tb104 N133 2.617 . S
Tb104 N139 2.572 . S
Tb104 O148 2.465 . S
Tb104 O149 2.387 . S
Tb104 O151 2.428 . S
Tb104 O152 2.308 1_455 S
Tb104 O156 2.332 1_455 S
Tb104 O159 2.393 . S
Tb104 C168 2.802 . S
C105 N106 1.379 . S
C105 C108 1.416 . S
C105 C112 1.424 . S
N106 C105 1.379 . S
N106 C109 1.334 . S
N106 Tb115 2.617 . S
C107 C109 1.390 . S
C107 C110 1.339 . S
C107 H127 0.930 . S
C108 C105 1.416 . S
C108 C110 1.416 . S
C108 C114 1.448 . S
C109 N106 1.334 . S
C109 C107 1.390 . S
C109 H120 0.930 . S
C110 C107 1.339 . S
C110 C108 1.416 . S
C110 H131 0.930 . S
C111 C112 1.413 . S
C111 C113 1.427 . S
C111 C117 1.416 1_545 S
C112 C105 1.424 . S
C112 C111 1.413 . S
C112 N116 1.361 . S
C113 C111 1.427 . S
C113 C114 1.328 . S
C113 H128 0.929 1_545 S
C114 C108 1.448 . S
C114 C113 1.328 . S
C114 H129 0.930 . S
Tb115 N106 2.617 . S
Tb115 N116 2.572 . S
Tb115 O150 2.349 1_655 S
Tb115 O153 2.393 . S
Tb115 O154 2.465 . S
Tb115 O155 2.387 . S
Tb115 O157 2.428 . S
Tb115 O158 2.308 1_655 S
Tb115 C179 2.802 . S
N116 C112 1.361 . S
N116 Tb115 2.572 . S
N116 C118 1.340 . S
C117 C111 1.416 1_565 S
C117 C119 1.332 . S
C117 H125 0.931 . S
C118 N116 1.340 . S
C118 C119 1.407 1_545 S
C118 H124 0.930 . S
C119 C117 1.332 . S
C119 C118 1.407 1_565 S
C119 H121 0.929 . S
H120 C109 0.930 . S
H121 C119 0.929 . S
H122 C137 0.930 . S
H123 C144 0.929 . S
H124 C118 0.930 . S
H125 C117 0.931 . S
H126 C140 0.930 . S
H127 C107 0.930 . S
H128 C113 0.929 1_565 S
H129 C114 0.930 . S
H130 C135 0.930 . S
H131 C110 0.930 . S
H132 C143 0.931 . S
N133 Tb104 2.617 . S
N133 C134 1.379 . S
N133 C137 1.334 . S
C134 N133 1.379 . S
C134 C136 1.416 . S
C134 C142 1.424 . S
C135 H130 0.930 . S
C135 C137 1.390 . S
C135 C138 1.339 . S
C136 C134 1.416 . S
C136 C138 1.416 . S
C136 C169 1.448 . S
C137 H122 0.930 . S
C137 N133 1.334 . S
C137 C135 1.390 . S
C138 C135 1.339 . S
C138 C136 1.416 . S
C138 H145 0.930 . S
N139 Tb104 2.572 . S
N139 C140 1.340 . S
N139 C142 1.361 . S
C140 H126 0.930 . S
C140 N139 1.340 . S
C140 C144 1.407 . S
C141 C142 1.413 . S
C141 C143 1.416 . S
C141 C170 1.427 . S
C142 C134 1.424 . S
C142 N139 1.361 . S
C142 C141 1.413 . S
C143 H132 0.931 . S
C143 C141 1.416 . S
C143 C144 1.332 . S
C144 H123 0.929 . S
C144 C140 1.407 . S
C144 C143 1.332 . S
H145 C138 0.930 . S
H146 C169 0.930 . S
H147 C170 0.929 . S
O148 Tb104 2.465 . S
O148 C168 1.264 . S
O149 Tb104 2.387 . S
O149 C160 1.264 . S
O150 Tb115 2.349 1_455 S
O150 C160 1.243 . S
O151 Tb104 2.428 . S
O151 C168 1.256 . S
O152 Tb104 2.308 1_655 S
O152 C167 1.266 . S
O153 Tb115 2.393 . S
O153 C167 1.248 . S
O154 Tb115 2.465 . S
O154 C179 1.264 . S
O155 Tb115 2.387 . S
O155 C171 1.264 . S
O156 Tb104 2.332 1_655 S
O156 C171 1.265 . S
O157 Tb115 2.428 . S
O157 C179 1.256 . S
O158 Tb115 2.308 1_455 S
O158 C178 1.266 . S
O159 Tb104 2.393 . S
O159 C178 1.248 . S
C160 O149 1.264 . S
C160 O150 1.243 . S
C161 C164 1.399 . S
C161 C166 1.383 . S
C161 C168 1.496 . S
C162 C163 1.399 . S
C162 C166 1.389 . S
C163 C162 1.399 . S
C163 C165 1.380 . S
C163 H180 0.929 . S
C164 C161 1.399 . S
C164 C165 1.392 . S
C164 H181 0.929 . S
C165 C163 1.380 . S
C165 C164 1.392 . S
C165 H182 0.929 . S
C166 C161 1.383 . S
C166 C162 1.389 . S
C166 H183 0.931 . S
C167 O152 1.266 . S
C167 O153 1.248 . S
C168 Tb104 2.802 . S
C168 O148 1.264 . S
C168 O151 1.256 . S
C168 C161 1.496 . S
C169 C136 1.448 . S
C169 H146 0.930 . S
C169 C170 1.328 . S
C170 C141 1.427 . S
C170 H147 0.929 . S
C170 C169 1.328 . S
C171 O155 1.264 . S
C171 O156 1.265 . S
C172 C175 1.399 . S
C172 C176 1.383 . S
C172 C179 1.496 . S
C173 C174 1.399 . S
C173 C176 1.389 . S
C174 C173 1.399 . S
C174 C177 1.380 . S
C174 H184 0.929 . S
C175 C172 1.399 . S
C175 C177 1.392 . S
C175 H185 0.929 . S
C176 C172 1.383 . S
C176 C173 1.389 . S
C176 H186 0.931 . S
C177 C174 1.380 . S
C177 C175 1.392 . S
C177 H187 0.929 . S
C178 O158 1.266 . S
C178 O159 1.248 . S
C179 Tb115 2.802 . S
C179 O154 1.264 . S
C179 O157 1.256 . S
C179 C172 1.496 . S
H180 C163 0.929 . S
H181 C164 0.929 . S
H182 C165 0.929 . S
H183 C166 0.931 . S
H184 C174 0.929 . S
H185 C175 0.929 . S
H186 C176 0.931 . S
H187 C177 0.929 . S
Tb188 N217 2.617 . S
Tb188 N223 2.572 . S
Tb188 O232 2.465 . S
Tb188 O233 2.387 . S
Tb188 O235 2.428 . S
Tb188 O236 2.308 . S
Tb188 O240 2.349 . S
Tb188 O243 2.393 . S
Tb188 C252 2.802 . S
C189 N190 1.379 . S
C189 C192 1.416 . S
C189 C196 1.424 . S
N190 C189 1.379 . S
N190 C193 1.334 . S
N190 Tb199 2.617 . S
C191 C193 1.390 . S
C191 C194 1.339 . S
C191 H211 0.930 . S
C192 C189 1.416 . S
C192 C194 1.416 . S
C192 C198 1.448 . S
C193 N190 1.334 . S
C193 C191 1.390 . S
C193 H204 0.930 . S
C194 C191 1.339 . S
C194 C192 1.416 . S
C194 H215 0.930 . S
C195 C196 1.413 . S
C195 C197 1.427 . S
C195 C201 1.416 . S
C196 C189 1.424 . S
C196 C195 1.413 . S
C196 N200 1.361 . S
C197 C195 1.427 . S
C197 C198 1.328 . S
C197 H212 0.929 . S
C198 C192 1.448 . S
C198 C197 1.328 . S
C198 H213 0.930 . S
Tb199 N190 2.617 . S
Tb199 N200 2.572 . S
Tb199 O234 2.349 . S
Tb199 O237 2.393 . S
Tb199 O238 2.465 . S
Tb199 O239 2.387 . S
Tb199 O241 2.428 . S
Tb199 O242 2.308 . S
Tb199 C263 2.802 . S
N200 C196 1.361 . S
N200 Tb199 2.572 . S
N200 C202 1.340 . S
C201 C195 1.416 . S
C201 C203 1.332 . S
C201 H209 0.931 . S
C202 N200 1.340 . S
C202 C203 1.407 . S
C202 H208 0.930 . S
C203 C201 1.332 . S
C203 C202 1.407 . S
C203 H205 0.929 . S
H204 C193 0.930 . S
H205 C203 0.929 . S
H206 C221 0.930 . S
H207 C228 0.929 . S
H208 C202 0.930 . S
H209 C201 0.931 . S
H210 C224 0.930 . S
H211 C191 0.930 . S
H212 C197 0.929 . S
H213 C198 0.930 . S
H214 C219 0.930 . S
H215 C194 0.930 . S
H216 C227 0.931 . S
N217 Tb188 2.617 . S
N217 C218 1.379 . S
N217 C221 1.334 . S
C218 N217 1.379 . S
C218 C220 1.416 . S
C218 C226 1.424 . S
C219 H214 0.930 . S
C219 C221 1.390 . S
C219 C222 1.339 . S
C220 C218 1.416 . S
C220 C222 1.416 . S
C220 C253 1.448 . S
C221 H206 0.930 . S
C221 N217 1.334 . S
C221 C219 1.390 . S
C222 C219 1.339 . S
C222 C220 1.416 . S
C222 H229 0.930 . S
N223 Tb188 2.572 . S
N223 C224 1.340 . S
N223 C226 1.361 . S
C224 H210 0.930 . S
C224 N223 1.340 . S
C224 C228 1.407 . S
C225 C226 1.413 . S
C225 C227 1.416 . S
C225 C254 1.427 . S
C226 C218 1.424 . S
C226 N223 1.361 . S
C226 C225 1.413 . S
C227 H216 0.931 . S
C227 C225 1.416 . S
C227 C228 1.332 . S
C228 H207 0.929 . S
C228 C224 1.407 . S
C228 C227 1.332 . S
H229 C222 0.930 . S
H230 C253 0.930 . S
H231 C254 0.929 . S
O232 Tb188 2.465 . S
O232 C252 1.264 . S
O233 Tb188 2.387 . S
O233 C244 1.264 . S
O234 Tb199 2.349 . S
O234 C244 1.243 . S
O235 Tb188 2.428 . S
O235 C252 1.256 . S
O236 Tb188 2.308 . S
O236 C251 1.266 . S
O237 Tb199 2.393 . S
O237 C251 1.248 . S
O238 Tb199 2.465 . S
O238 C263 1.264 . S
O239 Tb199 2.387 . S
O239 C255 1.264 . S
O240 Tb188 2.349 . S
O240 C255 1.243 . S
O241 Tb199 2.428 . S
O241 C263 1.256 . S
O242 Tb199 2.308 . S
O242 C262 1.266 . S
O243 Tb188 2.393 . S
O243 C262 1.248 . S
C244 O233 1.264 . S
C244 O234 1.243 . S
C245 C248 1.399 . S
C245 C250 1.383 . S
C245 C252 1.496 . S
C246 C247 1.399 . S
C246 C250 1.389 . S
C247 C246 1.399 . S
C247 C249 1.380 . S
C247 H264 0.929 . S
C248 C245 1.399 . S
C248 C249 1.392 . S
C248 H265 0.929 . S
C249 C247 1.380 . S
C249 C248 1.392 . S
C249 H266 0.929 . S
C250 C245 1.383 . S
C250 C246 1.389 . S
C250 H267 0.931 . S
C251 O236 1.266 . S
C251 O237 1.248 . S
C252 Tb188 2.802 . S
C252 O232 1.264 . S
C252 O235 1.256 . S
C252 C245 1.496 . S
C253 C220 1.448 . S
C253 H230 0.930 . S
C253 C254 1.328 . S
C254 C225 1.427 . S
C254 H231 0.929 . S
C254 C253 1.328 . S
C255 O239 1.264 . S
C255 O240 1.243 . S
C256 C259 1.399 . S
C256 C260 1.383 . S
C256 C263 1.496 . S
C257 C258 1.399 . S
C257 C260 1.389 . S
C258 C257 1.399 . S
C258 C261 1.380 . S
C258 H268 0.929 . S
C259 C256 1.399 . S
C259 C261 1.392 . S
C259 H269 0.929 . S
C260 C256 1.383 . S
C260 C257 1.389 . S
C260 H270 0.931 . S
C261 C258 1.380 . S
C261 C259 1.392 . S
C261 H271 0.929 . S
C262 O242 1.266 . S
C262 O243 1.248 . S
C263 Tb199 2.802 . S
C263 O238 1.264 . S
C263 O241 1.256 . S
C263 C256 1.496 . S
H264 C247 0.929 . S
H265 C248 0.929 . S
H266 C249 0.929 . S
H267 C250 0.931 . S
H268 C258 0.929 . S
H269 C259 0.929 . S
H270 C260 0.931 . S
H271 C261 0.929 . S
Tb272 N301 2.617 . S
Tb272 N307 2.572 . S
Tb272 O316 2.465 . S
Tb272 O317 2.387 . S
Tb272 O319 2.428 . S
Tb272 O320 2.319 . S
Tb272 O324 2.349 . S
Tb272 O327 2.393 . S
Tb272 C336 2.802 . S
C273 N274 1.379 . S
C273 C276 1.416 . S
C273 C280 1.424 . S
N274 C273 1.379 . S
N274 C277 1.334 . S
N274 Tb283 2.617 . S
C275 C277 1.390 . S
C275 C278 1.339 . S
C275 H295 0.930 . S
C276 C273 1.416 . S
C276 C278 1.416 . S
C276 C282 1.448 . S
C277 N274 1.334 . S
C277 C275 1.390 . S
C277 H288 0.930 . S
C278 C275 1.339 . S
C278 C276 1.416 . S
C278 H299 0.930 . S
C279 C280 1.413 . S
C279 C281 1.427 . S
C279 C285 1.416 . S
C280 C273 1.424 . S
C280 C279 1.413 . S
C280 N284 1.361 . S
C281 C279 1.427 . S
C281 C282 1.328 . S
C281 H296 0.929 . S
C282 C276 1.448 . S
C282 C281 1.328 . S
C282 H297 0.930 . S
Tb283 N274 2.617 . S
Tb283 N284 2.572 . S
Tb283 O318 2.349 1_655 S
Tb283 O321 2.393 . S
Tb283 O322 2.465 . S
Tb283 O323 2.387 . S
Tb283 O325 2.428 . S
Tb283 O326 2.308 1_655 S
Tb283 C347 2.802 . S
N284 C280 1.361 . S
N284 Tb283 2.572 . S
N284 C286 1.340 . S
C285 C279 1.416 . S
C285 C287 1.332 . S
C285 H293 0.931 . S
C286 N284 1.340 . S
C286 C287 1.407 . S
C286 H292 0.930 . S
C287 C285 1.332 . S
C287 C286 1.407 . S
C287 H289 0.929 . S
H288 C277 0.930 . S
H289 C287 0.929 . S
H290 C305 0.930 . S
H291 C312 0.929 . S
H292 C286 0.930 . S
H293 C285 0.931 . S
H294 C308 0.930 . S
H295 C275 0.930 . S
H296 C281 0.929 . S
H297 C282 0.930 . S
H298 C303 0.930 . S
H299 C278 0.930 . S
H300 C311 0.931 . S
N301 Tb272 2.617 . S
N301 C302 1.379 . S
N301 C305 1.334 . S
C302 N301 1.379 . S
C302 C304 1.416 . S
C302 C310 1.424 . S
C303 H298 0.930 . S
C303 C305 1.390 . S
C303 C306 1.339 . S
C304 C302 1.416 . S
C304 C306 1.416 . S
C304 C337 1.448 . S
C305 H290 0.930 . S
C305 N301 1.334 . S
C305 C303 1.390 . S
C306 C303 1.339 . S
C306 C304 1.416 . S
C306 H313 0.930 . S
N307 Tb272 2.572 . S
N307 C308 1.340 . S
N307 C310 1.361 . S
C308 H294 0.930 . S
C308 N307 1.340 . S
C308 C312 1.407 1_565 S
C309 C310 1.413 . S
C309 C311 1.416 1_565 S
C309 C338 1.427 . S
C310 C302 1.424 . S
C310 N307 1.361 . S
C310 C309 1.413 . S
C311 H300 0.931 . S
C311 C309 1.416 1_545 S
C311 C312 1.332 . S
C312 H291 0.929 . S
C312 C308 1.407 1_545 S
C312 C311 1.332 . S
H313 C306 0.930 . S
H314 C337 0.930 . S
H315 C338 0.929 1_545 S
O316 Tb272 2.465 . S
O316 C336 1.264 . S
O317 Tb272 2.387 . S
O317 C328 1.264 . S
O318 Tb283 2.349 1_455 S
O318 C328 1.243 . S
O319 Tb272 2.428 . S
O319 C336 1.256 . S
O320 Tb272 2.319 . S
O320 C335 1.253 1_455 S
O321 Tb283 2.393 . S
O321 C335 1.248 . S
O322 Tb283 2.465 . S
O322 C347 1.264 . S
O323 Tb283 2.387 . S
O323 C339 1.264 . S
O324 Tb272 2.349 . S
O324 C339 1.243 1_455 S
O325 Tb283 2.428 . S
O325 C347 1.256 . S
O326 Tb283 2.308 1_455 S
O326 C346 1.266 . S
O327 Tb272 2.393 . S
O327 C346 1.248 . S
C328 O317 1.264 . S
C328 O318 1.243 . S
C329 C332 1.399 . S
C329 C334 1.383 . S
C329 C336 1.496 . S
C330 C331 1.399 . S
C330 C334 1.389 . S
C331 C330 1.399 . S
C331 C333 1.380 . S
C331 H348 0.929 . S
C332 C329 1.399 . S
C332 C333 1.392 . S
C332 H349 0.929 . S
C333 C331 1.380 . S
C333 C332 1.392 . S
C333 H350 0.929 . S
C334 C329 1.383 . S
C334 C330 1.389 . S
C334 H351 0.931 . S
C335 O320 1.253 1_655 S
C335 O321 1.248 . S
C336 Tb272 2.802 . S
C336 O316 1.264 . S
C336 O319 1.256 . S
C336 C329 1.496 . S
C337 C304 1.448 . S
C337 H314 0.930 . S
C337 C338 1.328 . S
C338 C309 1.427 . S
C338 H315 0.929 1_565 S
C338 C337 1.328 . S
C339 O323 1.264 . S
C339 O324 1.243 1_655 S
C340 C343 1.399 . S
C340 C344 1.383 . S
C340 C347 1.496 . S
C341 C342 1.399 . S
C341 C344 1.389 . S
C342 C341 1.399 . S
C342 C345 1.380 . S
C342 H352 0.929 . S
C343 C340 1.399 . S
C343 C345 1.392 . S
C343 H353 0.929 . S
C344 C340 1.383 . S
C344 C341 1.389 . S
C344 H354 0.931 . S
C345 C342 1.380 . S
C345 C343 1.392 . S
C345 H355 0.929 . S
C346 O326 1.266 . S
C346 O327 1.248 . S
C347 Tb283 2.802 . S
C347 O322 1.264 . S
C347 O325 1.256 . S
C347 C340 1.496 . S
H348 C331 0.929 . S
H349 C332 0.929 . S
H350 C333 0.929 . S
H351 C334 0.931 . S
H352 C342 0.929 . S
H353 C343 0.929 . S
H354 C344 0.931 . S
H355 C345 0.929 . S
Tb356 N385 2.617 . S
Tb356 N391 2.572 . S
Tb356 O400 2.465 . S
Tb356 O401 2.387 . S
Tb356 O403 2.428 . S
Tb356 O404 2.308 . S
Tb356 O408 2.349 . S
Tb356 O411 2.393 . S
Tb356 C420 2.802 . S
C357 N358 1.379 . S
C357 C360 1.416 . S
C357 C364 1.424 . S
N358 C357 1.379 . S
N358 C361 1.334 . S
N358 Tb367 2.617 . S
C359 C361 1.390 . S
C359 C362 1.339 . S
C359 H379 0.930 . S
C360 C357 1.416 . S
C360 C362 1.416 . S
C360 C366 1.448 . S
C361 N358 1.334 . S
C361 C359 1.390 . S
C361 H372 0.930 . S
C362 C359 1.339 . S
C362 C360 1.416 . S
C362 H383 0.930 . S
C363 C364 1.413 . S
C363 C365 1.427 . S
C363 C369 1.416 . S
C364 C357 1.424 . S
C364 C363 1.413 . S
C364 N368 1.361 . S
C365 C363 1.427 . S
C365 C366 1.328 . S
C365 H380 0.929 . S
C366 C360 1.448 . S
C366 C365 1.328 . S
C366 H381 0.930 . S
Tb367 N358 2.617 . S
Tb367 N368 2.572 . S
Tb367 O402 2.349 . S
Tb367 O405 2.393 . S
Tb367 O406 2.465 . S
Tb367 O407 2.387 . S
Tb367 O409 2.428 . S
Tb367 O410 2.308 . S
Tb367 C431 2.802 . S
N368 C364 1.361 . S
N368 Tb367 2.572 . S
N368 C370 1.340 . S
C369 C363 1.416 . S
C369 C371 1.332 . S
C369 H377 0.931 . S
C370 N368 1.340 . S
C370 C371 1.407 . S
C370 H376 0.930 . S
C371 C369 1.332 . S
C371 C370 1.407 . S
C371 H373 0.929 . S
H372 C361 0.930 . S
H373 C371 0.929 . S
H374 C389 0.930 . S
H375 C396 0.929 . S
H376 C370 0.930 . S
H377 C369 0.931 . S
H378 C392 0.930 . S
H379 C359 0.930 . S
H380 C365 0.929 . S
H381 C366 0.930 . S
H382 C387 0.930 . S
H383 C362 0.930 . S
H384 C395 0.931 . S
N385 Tb356 2.617 . S
N385 C386 1.379 . S
N385 C389 1.334 . S
C386 N385 1.379 . S
C386 C388 1.416 . S
C386 C394 1.424 . S
C387 H382 0.930 . S
C387 C389 1.390 . S
C387 C390 1.339 . S
C388 C386 1.416 . S
C388 C390 1.416 . S
C388 C421 1.448 . S
C389 H374 0.930 . S
C389 N385 1.334 . S
C389 C387 1.390 . S
C390 C387 1.339 . S
C390 C388 1.416 . S
C390 H397 0.930 . S
N391 Tb356 2.572 . S
N391 C392 1.340 . S
N391 C394 1.361 . S
C392 H378 0.930 . S
C392 N391 1.340 . S
C392 C396 1.407 . S
C393 C394 1.413 . S
C393 C395 1.416 . S
C393 C422 1.427 . S
C394 C386 1.424 . S
C394 N391 1.361 . S
C394 C393 1.413 . S
C395 H384 0.931 . S
C395 C393 1.416 . S
C395 C396 1.332 . S
C396 H375 0.929 . S
C396 C392 1.407 . S
C396 C395 1.332 . S
H397 C390 0.930 . S
H398 C421 0.930 . S
H399 C422 0.929 . S
O400 Tb356 2.465 . S
O400 C420 1.264 . S
O401 Tb356 2.387 . S
O401 C412 1.264 . S
O402 Tb367 2.349 . S
O402 C412 1.243 . S
O403 Tb356 2.428 . S
O403 C420 1.256 . S
O404 Tb356 2.308 . S
O404 C419 1.266 . S
O405 Tb367 2.393 . S
O405 C419 1.248 . S
O406 Tb367 2.465 . S
O406 C431 1.264 . S
O407 Tb367 2.387 . S
O407 C423 1.264 . S
O408 Tb356 2.349 . S
O408 C423 1.243 . S
O409 Tb367 2.428 . S
O409 C431 1.256 . S
O410 Tb367 2.308 . S
O410 C430 1.266 . S
O411 Tb356 2.393 . S
O411 C430 1.248 . S
C412 O401 1.264 . S
C412 O402 1.243 . S
C413 C416 1.399 . S
C413 C418 1.383 . S
C413 C420 1.496 . S
C414 C415 1.399 . S
C414 C418 1.389 . S
C415 C414 1.399 . S
C415 C417 1.380 . S
C415 H432 0.929 . S
C416 C413 1.399 . S
C416 C417 1.392 . S
C416 H433 0.929 . S
C417 C415 1.380 . S
C417 C416 1.392 . S
C417 H434 0.929 . S
C418 C413 1.383 . S
C418 C414 1.389 . S
C418 H435 0.931 . S
C419 O404 1.266 . S
C419 O405 1.248 . S
C420 Tb356 2.802 . S
C420 O400 1.264 . S
C420 O403 1.256 . S
C420 C413 1.496 . S
C421 C388 1.448 . S
C421 H398 0.930 . S
C421 C422 1.328 . S
C422 C393 1.427 . S
C422 H399 0.929 . S
C422 C421 1.328 . S
C423 O407 1.264 . S
C423 O408 1.243 . S
C424 C427 1.399 . S
C424 C428 1.383 . S
C424 C431 1.496 . S
C425 C426 1.399 . S
C425 C428 1.389 . S
C426 C425 1.399 . S
C426 C429 1.380 . S
C426 H436 0.929 . S
C427 C424 1.399 . S
C427 C429 1.392 . S
C427 H437 0.929 . S
C428 C424 1.383 . S
C428 C425 1.389 . S
C428 H438 0.931 . S
C429 C426 1.380 . S
C429 C427 1.392 . S
C429 H439 0.929 . S
C430 O410 1.266 . S
C430 O411 1.248 . S
C431 Tb367 2.802 . S
C431 O406 1.264 . S
C431 O409 1.256 . S
C431 C424 1.496 . S
H432 C415 0.929 . S
H433 C416 0.929 . S
H434 C417 0.929 . S
H435 C418 0.931 . S
H436 C426 0.929 . S
H437 C427 0.929 . S
H438 C428 0.931 . S
H439 C429 0.929 . S
H440 C448 0.950 . S
H441 C453 0.950 . S
H442 C450 0.950 . S
H443 C452 0.950 . S
H444 C454 0.950 . S
H445 C456 0.950 . S
H446 C458 0.950 . S
H447 C459 0.948 1_565 S
C448 H440 0.950 . S
C448 C449 1.386 . S
C448 C450 1.391 . S
C449 C448 1.386 . S
C449 C453 1.393 . S
C450 H442 0.950 . S
C450 C448 1.391 . S
C450 C451 1.400 . S
C451 C450 1.400 . S
C451 C452 1.398 . S
C451 C457 1.491 . S
C452 H443 0.950 . S
C452 C451 1.398 . S
C452 C453 1.391 . S
C453 H441 0.950 . S
C453 C449 1.393 . S
C453 C452 1.391 . S
C454 H444 0.950 . S
C454 C455 1.386 . S
C454 C456 1.391 . S
C455 C454 1.386 . S
C455 C459 1.408 . S
C456 H445 0.950 . S
C456 C454 1.391 . S
C456 C457 1.400 1_545 S
C457 C451 1.491 . S
C457 C456 1.400 1_565 S
C457 C458 1.398 . S
C458 H446 0.950 . S
C458 C457 1.398 . S
C458 C459 1.377 1_565 S
C459 H447 0.948 1_545 S
C459 C455 1.408 . S
C459 C458 1.377 1_545 S
H460 C468 0.950 . S
H461 C473 0.950 . S
H462 C470 0.950 . S
H463 C472 0.950 . S
H464 C474 0.950 . S
H465 C476 0.950 . S
H466 C478 0.950 . S
H467 C479 0.950 . S
C468 H460 0.950 . S
C468 C469 1.386 . S
C468 C470 1.391 . S
C469 C468 1.386 . S
C469 C473 1.393 . S
C470 H462 0.950 . S
C470 C468 1.391 . S
C470 C471 1.400 . S
C471 C470 1.400 . S
C471 C472 1.398 . S
C471 C477 1.491 . S
C472 H463 0.950 . S
C472 C471 1.398 . S
C472 C473 1.391 . S
C473 H461 0.950 . S
C473 C469 1.393 . S
C473 C472 1.391 . S
C474 H464 0.950 . S
C474 C475 1.386 . S
C474 C476 1.391 . S
C475 C474 1.386 . S
C475 C479 1.393 . S
C476 H465 0.950 . S
C476 C474 1.391 . S
C476 C477 1.400 . S
C477 C471 1.491 . S
C477 C476 1.400 . S
C477 C478 1.398 . S
C478 H466 0.950 . S
C478 C477 1.398 . S
C478 C479 1.391 . S
C479 H467 0.950 . S
C479 C475 1.393 . S
C479 C478 1.391 . S
H480 C488 0.950 . S
H481 C493 0.950 . S
H482 C490 0.950 . S
H483 C492 0.950 . S
H484 C494 0.950 . S
H485 C496 0.950 . S
H486 C498 0.950 . S
H487 C499 0.950 . S
C488 H480 0.950 . S
C488 C489 1.386 . S
C488 C490 1.391 . S
C489 C488 1.386 . S
C489 C493 1.393 . S
C490 H482 0.950 . S
C490 C488 1.391 . S
C490 C491 1.400 . S
C491 C490 1.400 . S
C491 C492 1.398 . S
C491 C497 1.491 . S
C492 H483 0.950 . S
C492 C491 1.398 . S
C492 C493 1.391 . S
C493 H481 0.950 . S
C493 C489 1.393 . S
C493 C492 1.391 . S
C494 H484 0.950 . S
C494 C495 1.386 . S
C494 C496 1.391 . S
C495 C494 1.386 . S
C495 C499 1.393 . S
C496 H485 0.950 . S
C496 C494 1.391 . S
C496 C497 1.400 . S
C497 C491 1.491 . S
C497 C496 1.400 . S
C497 C498 1.398 . S
C498 H486 0.950 . S
C498 C497 1.398 . S
C498 C499 1.391 . S
C499 H487 0.950 . S
C499 C495 1.393 . S
C499 C498 1.391 . S
H500 C508 0.950 . S
H501 C513 0.950 . S
H502 C510 0.950 . S
H503 C512 0.950 . S
H504 C514 0.950 . S
H505 C516 0.950 . S
H506 C518 0.950 . S
H507 C519 0.950 . S
C508 H500 0.950 . S
C508 C509 1.386 . S
C508 C510 1.391 . S
C509 C508 1.386 . S
C509 C513 1.393 . S
C510 H502 0.950 . S
C510 C508 1.391 . S
C510 C511 1.400 . S
C511 C510 1.400 . S
C511 C512 1.398 . S
C511 C517 1.491 . S
C512 H503 0.950 . S
C512 C511 1.398 . S
C512 C513 1.391 . S
C513 H501 0.950 . S
C513 C509 1.393 . S
C513 C512 1.391 . S
C514 H504 0.950 . S
C514 C515 1.386 1_565 S
C514 C516 1.391 . S
C515 C514 1.386 1_545 S
C515 C519 1.393 . S
C516 H505 0.950 . S
C516 C514 1.391 . S
C516 C517 1.400 . S
C517 C511 1.491 . S
C517 C516 1.400 . S
C517 C518 1.398 1_565 S
C518 H506 0.950 . S
C518 C517 1.398 1_545 S
C518 C519 1.391 . S
C519 H507 0.950 . S
C519 C515 1.393 . S
C519 C518 1.391 . S
H520 C528 0.950 . S
H521 C533 0.950 . S
H522 C530 0.950 . S
H523 C532 0.950 . S
H524 C534 0.950 . S
H525 C536 0.950 . S
H526 C538 0.950 . S
H527 C539 0.950 . S
C528 H520 0.950 . S
C528 C529 1.386 . S
C528 C530 1.391 . S
C529 C528 1.386 . S
C529 C533 1.393 . S
C530 H522 0.950 . S
C530 C528 1.391 . S
C530 C531 1.400 . S
C531 C530 1.400 . S
C531 C532 1.398 . S
C531 C537 1.491 . S
C532 H523 0.950 . S
C532 C531 1.398 . S
C532 C533 1.391 . S
C533 H521 0.950 . S
C533 C529 1.393 . S
C533 C532 1.391 . S
C534 H524 0.950 . S
C534 C535 1.386 . S
C534 C536 1.391 . S
C535 C534 1.386 . S
C535 C539 1.393 1_565 S
C536 H525 0.950 . S
C536 C534 1.391 . S
C536 C537 1.400 1_565 S
C537 C531 1.491 . S
C537 C536 1.400 1_545 S
C537 C538 1.398 . S
C538 H526 0.950 . S
C538 C537 1.398 . S
C538 C539 1.391 . S
C539 H527 0.950 . S
C539 C535 1.393 1_545 S
C539 C538 1.391 . S
H540 C548 0.950 . S
H541 C553 0.950 . S
H542 C550 0.950 . S
H543 C552 0.950 . S
H544 C554 0.950 . S
H545 C556 0.950 . S
H546 C558 0.950 . S
H547 C559 0.950 . S
C548 H540 0.950 . S
C548 C549 1.386 . S
C548 C550 1.391 . S
C549 C548 1.386 . S
C549 C553 1.393 . S
C550 H542 0.950 . S
C550 C548 1.391 . S
C550 C551 1.400 . S
C551 C550 1.400 . S
C551 C552 1.398 . S
C551 C557 1.491 . S
C552 H543 0.950 . S
C552 C551 1.398 . S
C552 C553 1.391 . S
C553 H541 0.950 . S
C553 C549 1.393 . S
C553 C552 1.391 . S
C554 H544 0.950 . S
C554 C555 1.386 . S
C554 C556 1.391 . S
C555 C554 1.386 . S
C555 C559 1.393 . S
C556 H545 0.950 . S
C556 C554 1.391 . S
C556 C557 1.400 . S
C557 C551 1.491 . S
C557 C556 1.400 . S
C557 C558 1.398 . S
C558 H546 0.950 . S
C558 C557 1.398 . S
C558 C559 1.391 . S
C559 H547 0.950 . S
C559 C555 1.393 . S
C559 C558 1.391 . S
H560 C568 0.950 . S
H561 C573 0.950 . S
H562 C570 0.950 . S
H563 C572 0.950 . S
H564 C574 0.950 . S
H565 C576 0.950 . S
H566 C578 0.950 . S
H567 C579 0.950 . S
C568 H560 0.950 . S
C568 C569 1.386 . S
C568 C570 1.391 . S
C569 C568 1.386 . S
C569 C573 1.393 . S
C570 H562 0.950 . S
C570 C568 1.391 . S
C570 C571 1.400 . S
C571 C570 1.400 . S
C571 C572 1.398 . S
C571 C577 1.491 . S
C572 H563 0.950 . S
C572 C571 1.398 . S
C572 C573 1.391 . S
C573 H561 0.950 . S
C573 C569 1.393 . S
C573 C572 1.391 . S
C574 H564 0.950 . S
C574 C575 1.386 . S
C574 C576 1.391 . S
C575 C574 1.386 . S
C575 C579 1.393 . S
C576 H565 0.950 . S
C576 C574 1.391 . S
C576 C577 1.400 . S
C577 C571 1.491 . S
C577 C576 1.400 . S
C577 C578 1.398 . S
C578 H566 0.950 . S
C578 C577 1.398 . S
C578 C579 1.391 . S
C579 H567 0.950 . S
C579 C575 1.393 . S
C579 C578 1.391 . S
H580 C588 0.950 . S
H581 C593 0.950 . S
H582 C590 0.950 . S
H583 C592 0.950 . S
H584 C594 0.950 . S
H585 C596 0.950 . S
H586 C598 0.950 . S
H587 C599 0.950 . S
C588 H580 0.950 . S
C588 C589 1.386 . S
C588 C590 1.391 . S
C589 C588 1.386 . S
C589 C593 1.393 . S
C590 H582 0.950 . S
C590 C588 1.391 . S
C590 C591 1.400 . S
C591 C590 1.400 . S
C591 C592 1.398 . S
C591 C597 1.491 . S
C592 H583 0.950 . S
C592 C591 1.398 . S
C592 C593 1.391 . S
C593 H581 0.950 . S
C593 C589 1.393 . S
C593 C592 1.391 . S
C594 H584 0.950 . S
C594 C595 1.386 1_545 S
C594 C596 1.391 . S
C595 C594 1.386 1_565 S
C595 C599 1.393 . S
C596 H585 0.950 . S
C596 C594 1.391 . S
C596 C597 1.400 . S
C597 C591 1.491 . S
C597 C596 1.400 . S
C597 C598 1.398 1_545 S
C598 H586 0.950 . S
C598 C597 1.398 1_565 S
C598 C599 1.391 . S
C599 H587 0.950 . S
C599 C595 1.393 . S
C599 C598 1.391 . S
H600 C608 0.950 . S
H601 C613 0.950 . S
H602 C610 0.950 . S
H603 C612 0.950 1_554 S
H604 C614 0.950 . S
H605 C616 0.950 . S
H606 C618 0.950 . S
H607 C619 0.950 . S
C608 H600 0.950 . S
C608 C609 1.386 . S
C608 C610 1.391 . S
C609 C608 1.386 . S
C609 C613 1.393 . S
C610 H602 0.950 . S
C610 C608 1.391 . S
C610 C611 1.400 . S
C611 C610 1.400 . S
C611 C612 1.398 . S
C611 C617 1.491 1_556 S
C612 H603 0.950 1_556 S
C612 C611 1.398 . S
C612 C613 1.391 . S
C613 H601 0.950 . S
C613 C609 1.393 . S
C613 C612 1.391 . S
C614 H604 0.950 . S
C614 C615 1.386 . S
C614 C616 1.391 . S
C615 C614 1.386 . S
C615 C619 1.393 . S
C616 H605 0.950 . S
C616 C614 1.391 . S
C616 C617 1.400 . S
C617 C611 1.491 1_554 S
C617 C616 1.400 . S
C617 C618 1.398 . S
C618 H606 0.950 . S
C618 C617 1.398 . S
C618 C619 1.391 . S
C619 H607 0.950 . S
C619 C615 1.393 . S
C619 C618 1.391 . S
H620 C628 0.950 . S
H621 C633 0.950 . S
H622 C630 0.950 . S
H623 C632 0.950 . S
H624 C634 0.950 . S
H625 C636 0.950 . S
H626 C638 0.950 . S
H627 C639 0.950 . S
C628 H620 0.950 . S
C628 C629 1.386 . S
C628 C630 1.391 . S
C629 C628 1.386 . S
C629 C633 1.393 . S
C630 H622 0.950 . S
C630 C628 1.391 . S
C630 C631 1.400 . S
C631 C630 1.400 . S
C631 C632 1.398 . S
C631 C637 1.491 . S
C632 H623 0.950 . S
C632 C631 1.398 . S
C632 C633 1.391 . S
C633 H621 0.950 . S
C633 C629 1.393 . S
C633 C632 1.391 . S
C634 H624 0.950 . S
C634 C635 1.386 . S
C634 C636 1.391 . S
C635 C634 1.386 . S
C635 C639 1.393 . S
C636 H625 0.950 . S
C636 C634 1.391 . S
C636 C637 1.400 . S
C637 C631 1.491 . S
C637 C636 1.400 . S
C637 C638 1.398 . S
C638 H626 0.950 . S
C638 C637 1.398 . S
C638 C639 1.391 . S
C639 H627 0.950 . S
C639 C635 1.393 . S
C639 C638 1.391 . S
H640 C648 0.950 . S
H641 C653 0.950 . S
H642 C650 0.950 . S
H643 C652 0.950 . S
H644 C654 0.950 . S
H645 C656 0.950 . S
H646 C658 0.950 . S
H647 C659 0.950 . S
C648 H640 0.950 . S
C648 C649 1.386 . S
C648 C650 1.391 . S
C649 C648 1.386 . S
C649 C653 1.393 . S
C650 H642 0.950 . S
C650 C648 1.391 . S
C650 C651 1.400 . S
C651 C650 1.400 . S
C651 C652 1.398 . S
C651 C657 1.491 1_554 S
C652 H643 0.950 . S
C652 C651 1.398 . S
C652 C653 1.391 . S
C653 H641 0.950 . S
C653 C649 1.393 . S
C653 C652 1.391 . S
C654 H644 0.950 . S
C654 C655 1.386 . S
C654 C656 1.391 . S
C655 C654 1.386 . S
C655 C659 1.393 . S
C656 H645 0.950 . S
C656 C654 1.391 . S
C656 C657 1.400 . S
C657 C651 1.491 1_556 S
C657 C656 1.400 . S
C657 C658 1.398 . S
C658 H646 0.950 . S
C658 C657 1.398 . S
C658 C659 1.391 . S
C659 H647 0.950 . S
C659 C655 1.393 . S
C659 C658 1.391 . S
H660 C668 0.950 . S
H661 C673 0.950 . S
H662 C670 0.950 . S
H663 C672 0.950 . S
H664 C674 0.950 . S
H665 C676 0.950 . S
H666 C678 0.950 . S
H667 C679 0.950 . S
C668 H660 0.950 . S
C668 C669 1.386 . S
C668 C670 1.391 . S
C669 C668 1.386 . S
C669 C673 1.393 . S
C670 H662 0.950 . S
C670 C668 1.391 . S
C670 C671 1.400 . S
C671 C670 1.400 . S
C671 C672 1.398 . S
C671 C677 1.491 . S
C672 H663 0.950 . S
C672 C671 1.398 . S
C672 C673 1.391 . S
C673 H661 0.950 . S
C673 C669 1.393 . S
C673 C672 1.391 . S
C674 H664 0.950 . S
C674 C675 1.386 . S
C674 C676 1.391 . S
C675 C674 1.386 . S
C675 C679 1.393 . S
C676 H665 0.950 . S
C676 C674 1.391 . S
C676 C677 1.400 . S
C677 C671 1.491 . S
C677 C676 1.400 . S
C677 C678 1.398 . S
C678 H666 0.950 . S
C678 C677 1.398 . S
C678 C679 1.391 . S
C679 H667 0.950 . S
C679 C675 1.393 . S
C679 C678 1.391 . S
H680 C688 0.950 . S
H681 C693 0.950 . S
H682 C690 0.950 . S
H683 C692 0.950 1_556 S
H684 C694 0.950 . S
H685 C696 0.950 . S
H686 C698 0.950 . S
H687 C699 0.950 . S
C688 H680 0.950 . S
C688 C689 1.386 . S
C688 C690 1.391 . S
C689 C688 1.386 . S
C689 C693 1.393 . S
C690 H682 0.950 . S
C690 C688 1.391 . S
C690 C691 1.400 . S
C691 C690 1.400 . S
C691 C692 1.398 . S
C691 C697 1.491 1_554 S
C692 H683 0.950 1_554 S
C692 C691 1.398 . S
C692 C693 1.391 . S
C693 H681 0.950 . S
C693 C689 1.393 . S
C693 C692 1.391 . S
C694 H684 0.950 . S
C694 C695 1.386 . S
C694 C696 1.391 . S
C695 C694 1.386 . S
C695 C699 1.393 . S
C696 H685 0.950 . S
C696 C694 1.391 . S
C696 C697 1.400 . S
C697 C691 1.491 1_556 S
C697 C696 1.400 . S
C697 C698 1.398 . S
C698 H686 0.950 . S
C698 C697 1.398 . S
C698 C699 1.391 . S
C699 H687 0.950 . S
C699 C695 1.393 . S
C699 C698 1.391 . S
H700 C708 0.950 . S
H701 C713 0.950 . S
H702 C710 0.950 . S
H703 C712 0.950 . S
H704 C714 0.950 . S
H705 C716 0.950 . S
H706 C718 0.950 . S
H707 C719 0.950 . S
C708 H700 0.950 . S
C708 C709 1.386 . S
C708 C710 1.391 . S
C709 C708 1.386 . S
C709 C713 1.393 . S
C710 H702 0.950 . S
C710 C708 1.391 . S
C710 C711 1.400 . S
C711 C710 1.400 . S
C711 C712 1.398 . S
C711 C717 1.491 . S
C712 H703 0.950 . S
C712 C711 1.398 . S
C712 C713 1.391 . S
C713 H701 0.950 . S
C713 C709 1.393 . S
C713 C712 1.391 . S
C714 H704 0.950 . S
C714 C715 1.386 . S
C714 C716 1.391 . S
C715 C714 1.386 . S
C715 C719 1.393 . S
C716 H705 0.950 . S
C716 C714 1.391 . S
C716 C717 1.400 . S
C717 C711 1.491 . S
C717 C716 1.400 . S
C717 C718 1.398 . S
C718 H706 0.950 . S
C718 C717 1.398 . S
C718 C719 1.391 . S
C719 H707 0.950 . S
C719 C715 1.393 . S
C719 C718 1.391 . S
H720 C728 0.950 . S
H721 C733 0.950 . S
H722 C730 0.950 . S
H723 C732 0.950 . S
H724 C734 0.950 . S
H725 C736 0.950 . S
H726 C738 0.950 . S
H727 C739 0.950 . S
C728 H720 0.950 . S
C728 C729 1.386 . S
C728 C730 1.391 . S
C729 C728 1.386 . S
C729 C733 1.393 . S
C730 H722 0.950 . S
C730 C728 1.391 . S
C730 C731 1.400 . S
C731 C730 1.400 . S
C731 C732 1.398 . S
C731 C737 1.491 1_556 S
C732 H723 0.950 . S
C732 C731 1.398 . S
C732 C733 1.391 . S
C733 H721 0.950 . S
C733 C729 1.393 . S
C733 C732 1.391 . S
C734 H724 0.950 . S
C734 C735 1.386 . S
C734 C736 1.391 . S
C735 C734 1.386 . S
C735 C739 1.393 . S
C736 H725 0.950 . S
C736 C734 1.391 . S
C736 C737 1.400 . S
C737 C731 1.491 1_554 S
C737 C736 1.400 . S
C737 C738 1.398 . S
C738 H726 0.950 . S
C738 C737 1.398 . S
C738 C739 1.391 . S
C739 H727 0.950 . S
C739 C735 1.393 . S
C739 C738 1.391 . S
H740 C748 0.950 . S
H741 C753 0.950 . S
H742 C750 0.950 . S
H743 C752 0.950 . S
H744 C754 0.950 . S
H745 C756 0.950 . S
H746 C758 0.950 . S
H747 C759 0.950 . S
C748 H740 0.950 . S
C748 C749 1.386 . S
C748 C750 1.391 . S
C749 C748 1.386 . S
C749 C753 1.393 . S
C750 H742 0.950 . S
C750 C748 1.391 . S
C750 C751 1.400 . S
C751 C750 1.400 . S
C751 C752 1.398 . S
C751 C757 1.491 . S
C752 H743 0.950 . S
C752 C751 1.398 . S
C752 C753 1.391 . S
C753 H741 0.950 . S
C753 C749 1.393 . S
C753 C752 1.391 . S
C754 H744 0.950 . S
C754 C755 1.386 . S
C754 C756 1.391 . S
C755 C754 1.386 . S
C755 C759 1.393 . S
C756 H745 0.950 . S
C756 C754 1.391 . S
C756 C757 1.400 . S
C757 C751 1.491 . S
C757 C756 1.400 . S
C757 C758 1.398 . S
C758 H746 0.950 . S
C758 C757 1.398 . S
C758 C759 1.391 . S
C759 H747 0.950 . S
C759 C755 1.393 . S
C759 C758 1.391 . S
H760 C768 0.950 . S
H761 C773 0.950 . S
H762 C770 0.950 . S
H763 C772 0.950 . S
H764 C774 0.950 . S
H765 C776 0.950 . S
H766 C778 0.950 . S
H767 C779 0.950 . S
C768 H760 0.950 . S
C768 C769 1.386 . S
C768 C770 1.391 . S
C769 C768 1.386 . S
C769 C773 1.393 . S
C770 H762 0.950 . S
C770 C768 1.391 . S
C770 C771 1.400 . S
C771 C770 1.400 . S
C771 C772 1.398 . S
C771 C777 1.491 . S
C772 H763 0.950 . S
C772 C771 1.398 . S
C772 C773 1.391 . S
C773 H761 0.950 . S
C773 C769 1.393 . S
C773 C772 1.391 . S
C774 H764 0.950 . S
C774 C775 1.386 . S
C774 C776 1.391 . S
C775 C774 1.386 . S
C775 C779 1.393 . S
C776 H765 0.950 . S
C776 C774 1.391 . S
C776 C777 1.400 . S
C777 C771 1.491 . S
C777 C776 1.400 . S
C777 C778 1.398 . S
C778 H766 0.950 . S
C778 C777 1.398 . S
C778 C779 1.391 . S
C779 H767 0.950 . S
C779 C775 1.393 . S
C779 C778 1.391 . S
H780 C788 0.950 . S
H781 C793 0.950 . S
H782 C790 0.950 . S
H783 C792 0.950 . S
H784 C794 0.950 . S
H785 C796 0.950 . S
H786 C798 0.950 . S
H787 C799 0.950 . S
C788 H780 0.950 . S
C788 C789 1.386 . S
C788 C790 1.391 . S
C789 C788 1.386 . S
C789 C793 1.393 . S
C790 H782 0.950 . S
C790 C788 1.391 . S
C790 C791 1.400 . S
C791 C790 1.400 . S
C791 C792 1.398 . S
C791 C797 1.491 . S
C792 H783 0.950 . S
C792 C791 1.398 . S
C792 C793 1.391 . S
C793 H781 0.950 . S
C793 C789 1.393 . S
C793 C792 1.391 . S
C794 H784 0.950 . S
C794 C795 1.386 . S
C794 C796 1.391 . S
C795 C794 1.386 . S
C795 C799 1.393 . S
C796 H785 0.950 . S
C796 C794 1.391 . S
C796 C797 1.400 . S
C797 C791 1.491 . S
C797 C796 1.400 . S
C797 C798 1.398 . S
C798 H786 0.950 . S
C798 C797 1.398 . S
C798 C799 1.391 . S
C799 H787 0.950 . S
C799 C795 1.393 . S
C799 C798 1.391 . S
H800 C808 0.950 . S
H801 C813 0.950 . S
H802 C810 0.950 . S
H803 C812 0.950 . S
H804 C814 0.950 . S
H805 C816 0.950 . S
H806 C818 0.950 . S
H807 C819 0.950 . S
C808 H800 0.950 . S
C808 C809 1.386 . S
C808 C810 1.391 . S
C809 C808 1.386 . S
C809 C813 1.393 . S
C810 H802 0.950 . S
C810 C808 1.391 . S
C810 C811 1.400 . S
C811 C810 1.400 . S
C811 C812 1.398 . S
C811 C817 1.491 . S
C812 H803 0.950 . S
C812 C811 1.398 . S
C812 C813 1.391 . S
C813 H801 0.950 . S
C813 C809 1.393 . S
C813 C812 1.391 . S
C814 H804 0.950 . S
C814 C815 1.386 . S
C814 C816 1.391 . S
C815 C814 1.386 . S
C815 C819 1.393 . S
C816 H805 0.950 . S
C816 C814 1.391 . S
C816 C817 1.400 . S
C817 C811 1.491 . S
C817 C816 1.400 . S
C817 C818 1.398 . S
C818 H806 0.950 . S
C818 C817 1.398 . S
C818 C819 1.391 . S
C819 H807 0.950 . S
C819 C815 1.393 . S
C819 C818 1.391 . S
H820 C828 0.950 . S
H821 C833 0.950 . S
H822 C830 0.950 . S
H823 C832 0.950 . S
H824 C834 0.950 . S
H825 C836 0.950 . S
H826 C838 0.950 . S
H827 C839 0.950 . S
C828 H820 0.950 . S
C828 C829 1.386 . S
C828 C830 1.391 . S
C829 C828 1.386 . S
C829 C833 1.393 . S
C830 H822 0.950 . S
C830 C828 1.391 . S
C830 C831 1.400 . S
C831 C830 1.400 . S
C831 C832 1.398 . S
C831 C837 1.491 . S
C832 H823 0.950 . S
C832 C831 1.398 . S
C832 C833 1.391 . S
C833 H821 0.950 . S
C833 C829 1.393 . S
C833 C832 1.391 . S
C834 H824 0.950 . S
C834 C835 1.386 . S
C834 C836 1.391 . S
C835 C834 1.386 . S
C835 C839 1.393 . S
C836 H825 0.950 . S
C836 C834 1.391 . S
C836 C837 1.400 . S
C837 C831 1.491 . S
C837 C836 1.400 . S
C837 C838 1.398 . S
C838 H826 0.950 . S
C838 C837 1.398 . S
C838 C839 1.391 . S
C839 H827 0.950 . S
C839 C835 1.393 . S
C839 C838 1.391 . S
H840 C848 0.950 . S
H841 C853 0.950 . S
H842 C850 0.950 . S
H843 C852 0.950 . S
H844 C854 0.950 . S
H845 C856 0.950 . S
H846 C858 0.950 . S
H847 C859 0.950 . S
C848 H840 0.950 . S
C848 C849 1.386 . S
C848 C850 1.391 . S
C849 C848 1.386 . S
C849 C853 1.393 . S
C850 H842 0.950 . S
C850 C848 1.391 . S
C850 C851 1.400 . S
C851 C850 1.400 . S
C851 C852 1.398 . S
C851 C857 1.491 . S
C852 H843 0.950 . S
C852 C851 1.398 . S
C852 C853 1.391 . S
C853 H841 0.950 . S
C853 C849 1.393 . S
C853 C852 1.391 . S
C854 H844 0.950 . S
C854 C855 1.386 . S
C854 C856 1.391 . S
C855 C854 1.386 . S
C855 C859 1.393 . S
C856 H845 0.950 . S
C856 C854 1.391 . S
C856 C857 1.400 . S
C857 C851 1.491 . S
C857 C856 1.400 . S
C857 C858 1.398 . S
C858 H846 0.950 . S
C858 C857 1.398 . S
C858 C859 1.391 . S
C859 H847 0.950 . S
C859 C855 1.393 . S
C859 C858 1.391 . S
H860 C868 0.950 . S
H861 C873 0.950 . S
H862 C870 0.950 . S
H863 C872 0.950 . S
H864 C874 0.950 . S
H865 C876 0.950 . S
H866 C878 0.950 . S
H867 C879 0.950 . S
C868 H860 0.950 . S
C868 C869 1.386 . S
C868 C870 1.391 . S
C869 C868 1.386 . S
C869 C873 1.393 . S
C870 H862 0.950 . S
C870 C868 1.391 . S
C870 C871 1.400 . S
C871 C870 1.400 . S
C871 C872 1.398 . S
C871 C877 1.491 . S
C872 H863 0.950 . S
C872 C871 1.398 . S
C872 C873 1.391 . S
C873 H861 0.950 . S
C873 C869 1.393 . S
C873 C872 1.391 . S
C874 H864 0.950 . S
C874 C875 1.386 . S
C874 C876 1.391 . S
C875 C874 1.386 . S
C875 C879 1.393 . S
C876 H865 0.950 . S
C876 C874 1.391 . S
C876 C877 1.400 . S
C877 C871 1.491 . S
C877 C876 1.400 . S
C877 C878 1.398 . S
C878 H866 0.950 . S
C878 C877 1.398 . S
C878 C879 1.391 . S
C879 H867 0.950 . S
C879 C875 1.393 . S
C879 C878 1.391 . S
H880 C888 0.950 . S
H881 C893 0.950 . S
H882 C890 0.950 . S
H883 C892 0.950 . S
H884 C894 0.950 . S
H885 C896 0.950 . S
H886 C898 0.950 . S
H887 C899 0.950 . S
C888 H880 0.950 . S
C888 C889 1.386 . S
C888 C890 1.391 . S
C889 C888 1.386 . S
C889 C893 1.393 . S
C890 H882 0.950 . S
C890 C888 1.391 . S
C890 C891 1.400 . S
C891 C890 1.400 . S
C891 C892 1.398 . S
C891 C897 1.491 . S
C892 H883 0.950 . S
C892 C891 1.398 . S
C892 C893 1.391 . S
C893 H881 0.950 . S
C893 C889 1.393 . S
C893 C892 1.391 . S
C894 H884 0.950 . S
C894 C895 1.386 . S
C894 C896 1.391 . S
C895 C894 1.386 . S
C895 C899 1.393 . S
C896 H885 0.950 . S
C896 C894 1.391 . S
C896 C897 1.400 . S
C897 C891 1.491 . S
C897 C896 1.400 . S
C897 C898 1.398 . S
C898 H886 0.950 . S
C898 C897 1.398 . S
C898 C899 1.391 . S
C899 H887 0.950 . S
C899 C895 1.393 . S
C899 C898 1.391 . S
H900 C908 0.950 . S
H901 C913 0.950 . S
H902 C910 0.950 . S
H903 C912 0.950 . S
H904 C914 0.950 . S
H905 C916 0.950 . S
H906 C918 0.950 . S
H907 C919 0.950 . S
C908 H900 0.950 . S
C908 C909 1.386 . S
C908 C910 1.391 . S
C909 C908 1.386 . S
C909 C913 1.393 . S
C910 H902 0.950 . S
C910 C908 1.391 . S
C910 C911 1.400 . S
C911 C910 1.400 . S
C911 C912 1.398 . S
C911 C917 1.491 . S
C912 H903 0.950 . S
C912 C911 1.398 . S
C912 C913 1.391 . S
C913 H901 0.950 . S
C913 C909 1.393 . S
C913 C912 1.391 . S
C914 H904 0.950 . S
C914 C915 1.386 . S
C914 C916 1.391 . S
C915 C914 1.386 . S
C915 C919 1.393 . S
C916 H905 0.950 . S
C916 C914 1.391 . S
C916 C917 1.400 . S
C917 C911 1.491 . S
C917 C916 1.400 . S
C917 C918 1.398 . S
C918 H906 0.950 . S
C918 C917 1.398 . S
C918 C919 1.391 . S
C919 H907 0.950 . S
C919 C915 1.393 . S
C919 C918 1.391 . S
C449 N83 1.641 . S
C455 C178 1.636 . S
C475 C262 1.631 . S
C469 N96 1.647 . S
C495 C255 1.651 . S
C489 N57 1.634 . S
C509 N70 1.624 . S
C515 C171 1.652 . S
C535 C335 1.640 . S
C529 N31 1.643 . S
C555 C419 1.646 . S
C549 N44 1.635 . S
C569 N5 1.628 . S
C575 C412 1.650 . S
C589 N18 1.639 . S
C595 C328 1.652 . S
C615 C162 1.472 . S
C609 N14 1.617 . S
C635 C246 1.472 . S
C629 N1 1.617 . S
C655 C257 1.366 . S
C649 N40 1.620 . S
C675 C173 1.399 . S
C669 N27 1.615 . S
C695 C341 1.433 . S
C689 N66 1.602 . S
C709 N53 1.610 . S
C715 C425 1.448 . S
C735 C414 1.413 . S
C729 N92 1.607 . S
C749 N79 1.611 . S
C755 C330 1.406 . S
C775 C160 1.544 . S
C769 N2 1.544 . S
C795 C244 1.544 . S
C789 N15 1.544 . S
C809 N28 1.544 . S
C815 C251 1.506 . S
C835 C167 1.506 . S
C829 N41 1.544 . S
C855 C339 1.548 . S
C849 N54 1.537 . S
C869 N67 1.537 . S
C875 C423 1.548 . S
C889 N80 1.534 . S
C895 C430 1.519 . S
C909 N93 1.534 . S
C915 C346 1.523 . S
