# Generated by pormake.
# Topology zzz, (3,6)-cn, num edge types: 1
# Building blocks:
#     Node 0, Type 0, BuildingBlock: VETTIZ_charged_linker_0, # of connection points: 3
#     Node 1, Type 0, BuildingBlock: VETTIZ_charged_linker_0, # of connection points: 3
#     Node 2, Type 0, BuildingBlock: VETTIZ_charged_linker_0, # of connection points: 3
#     Node 3, Type 0, BuildingBlock: VETTIZ_charged_linker_0, # of connection points: 3
#     Node 4, Type 0, BuildingBlock: VETTIZ_charged_linker_0, # of connection points: 3
#     Node 5, Type 0, BuildingBlock: VETTIZ_charged_linker_0, # of connection points: 3
#     Node 6, Type 0, BuildingBlock: VETTIZ_charged_linker_0, # of connection points: 3
#     Node 7, Type 0, BuildingBlock: VETTIZ_charged_linker_0, # of connection points: 3
#     Node 8, Type 1, BuildingBlock: CUKXOW_clean_sbu_0, # of connection points: 6
#     Node 9, Type 1, BuildingBlock: CUKXOW_clean_sbu_0, # of connection points: 6
#     Node 10, Type 1, BuildingBlock: CUKXOW_clean_sbu_0, # of connection points: 6
#     Node 11, Type 1, BuildingBlock: CUKXOW_clean_sbu_0, # of connection points: 6
#     Edge 12, Type (0, 1), BuildingBlock: AJUNOK_clean_linker_0, # of connection points: 2
#     Edge 13, Type (0, 1), BuildingBlock: AJUNOK_clean_linker_0, # of connection points: 2
#     Edge 14, Type (0, 1), BuildingBlock: AJUNOK_clean_linker_0, # of connection points: 2
#     Edge 15, Type (0, 1), BuildingBlock: AJUNOK_clean_linker_0, # of connection points: 2
#     Edge 16, Type (0, 1), BuildingBlock: AJUNOK_clean_linker_0, # of connection points: 2
#     Edge 17, Type (0, 1), BuildingBlock: AJUNOK_clean_linker_0, # of connection points: 2
#     Edge 18, Type (0, 1), BuildingBlock: AJUNOK_clean_linker_0, # of connection points: 2
#     Edge 19, Type (0, 1), BuildingBlock: AJUNOK_clean_linker_0, # of connection points: 2
#     Edge 20, Type (0, 1), BuildingBlock: AJUNOK_clean_linker_0, # of connection points: 2
#     Edge 21, Type (0, 1), BuildingBlock: AJUNOK_clean_linker_0, # of connection points: 2
#     Edge 22, Type (0, 1), BuildingBlock: AJUNOK_clean_linker_0, # of connection points: 2
#     Edge 23, Type (0, 1), BuildingBlock: AJUNOK_clean_linker_0, # of connection points: 2
#     Edge 24, Type (0, 1), BuildingBlock: AJUNOK_clean_linker_0, # of connection points: 2
#     Edge 25, Type (0, 1), BuildingBlock: AJUNOK_clean_linker_0, # of connection points: 2
#     Edge 26, Type (0, 1), BuildingBlock: AJUNOK_clean_linker_0, # of connection points: 2
#     Edge 27, Type (0, 1), BuildingBlock: AJUNOK_clean_linker_0, # of connection points: 2
#     Edge 28, Type (0, 1), BuildingBlock: AJUNOK_clean_linker_0, # of connection points: 2
#     Edge 29, Type (0, 1), BuildingBlock: AJUNOK_clean_linker_0, # of connection points: 2
#     Edge 30, Type (0, 1), BuildingBlock: AJUNOK_clean_linker_0, # of connection points: 2
#     Edge 31, Type (0, 1), BuildingBlock: AJUNOK_clean_linker_0, # of connection points: 2
#     Edge 32, Type (0, 1), BuildingBlock: AJUNOK_clean_linker_0, # of connection points: 2
#     Edge 33, Type (0, 1), BuildingBlock: AJUNOK_clean_linker_0, # of connection points: 2
#     Edge 34, Type (0, 1), BuildingBlock: AJUNOK_clean_linker_0, # of connection points: 2
#     Edge 35, Type (0, 1), BuildingBlock: AJUNOK_clean_linker_0, # of connection points: 2
# Relax obj value: 0.217
# Max RMSD: 0.232
# Mean RMSD: 0.188
data_MOF--net-zzz--node1-CUKXOW_clean_sbu_0--node2-VETTIZ_charged_linker_0--edge1-AJUNOK_clean_linker_0
_symmetry_space_group_name_H-M    P1
_symmetry_Int_Tables_number       1
_symmetry_cell_setting            triclinic
loop_
_symmetry_equiv_pos_as_xyz
'x, y, z'
_cell_length_a     44.662499
_cell_length_b     44.76855
_cell_length_c     16.178805
_cell_angle_alpha  92.850754
_cell_angle_beta   87.373153
_cell_angle_gamma 95.713966
loop_
_atom_site_label
_atom_site_type_symbol
_atom_site_fract_x
_atom_site_fract_y
_atom_site_fract_z
_atom_type_partial_charge
C0 C 0.80276 0.48883 0.35961 0.0
C1 C 0.8234 0.47122 0.39455 0.0
C2 C 0.82489 0.44133 0.36342 0.0
C3 C 0.79318 0.44984 0.25291 0.0
C4 C 0.78665 0.47681 0.28999 0.0
C5 C 0.76359 0.49036 0.24037 0.0
H6 H 0.69548 0.48746 0.86913 0.0
C7 C 0.78163 0.44699 0.1697 0.0
C8 C 0.75987 0.46746 0.16626 0.0
H9 H 0.64474 0.48788 0.10299 0.0
H10 H 0.69044 0.47966 0.17472 0.0
H11 H 0.7567 0.52335 0.92279 0.0
H12 H 0.72769 0.42926 0.90436 0.0
H13 H 0.7638 0.437 0.85483 0.0
H14 H 0.73261 0.45453 0.82062 0.0
H15 H 0.76603 0.50095 0.83245 0.0
H16 H 0.79036 0.50574 0.91925 0.0
C17 C 0.77645 0.52154 0.21171 0.0
C18 C 0.73435 0.49252 0.29324 0.0
C19 C 0.86446 0.42595 0.95881 0.0
C20 C 0.87253 0.43995 0.88458 0.0
C21 C 0.85085 0.45383 0.84393 0.0
C22 C 0.82184 0.4553 0.87984 0.0
C23 C 0.81502 0.44387 0.95858 0.0
C24 C 0.8363 0.42968 0.99724 0.0
C25 C 0.82738 0.42373 0.08617 0.0
C26 C 0.79784 0.43845 0.09578 0.0
C27 C 0.79037 0.44896 0.0197 0.0
C28 C 0.85238 0.43862 0.14328 0.0
C29 C 0.822 0.3894 0.09389 0.0
C30 C 0.69419 0.48695 0.93605 0.0
C31 C 0.66653 0.48924 0.98017 0.0
C32 C 0.66588 0.48762 0.06757 0.0
C33 C 0.69221 0.48359 0.10946 0.0
C34 C 0.71956 0.48211 0.06401 0.0
C35 C 0.72 0.48259 0.97845 0.0
C36 C 0.74946 0.47405 0.93944 0.0
C37 C 0.76461 0.46476 0.01508 0.0
C38 C 0.74846 0.47234 0.08792 0.0
C39 C 0.76656 0.50232 0.90113 0.0
C40 C 0.7432 0.44731 0.87614 0.0
H41 H 0.81142 0.40779 0.27043 0.0
H42 H 0.80006 0.51138 0.38413 0.0
H43 H 0.72244 0.46985 0.3024 0.0
H44 H 0.7192 0.5067 0.26403 0.0
H45 H 0.73929 0.50332 0.35512 0.0
H46 H 0.7981 0.52003 0.17564 0.0
H47 H 0.78054 0.53753 0.26569 0.0
H48 H 0.76043 0.53085 0.17164 0.0
H49 H 0.88112 0.41532 0.99061 0.0
H50 H 0.85702 0.46554 0.78783 0.0
H51 H 0.80641 0.46682 0.84744 0.0
H52 H 0.87509 0.44099 0.11245 0.0
H53 H 0.85523 0.42487 0.1968 0.0
H54 H 0.84775 0.46169 0.16518 0.0
H55 H 0.80732 0.37899 0.04439 0.0
H56 H 0.81058 0.38327 0.15346 0.0
H57 H 0.8437 0.37914 0.08816 0.0
H58 H 0.83986 0.42695 0.38916 0.0
C59 C 0.80925 0.43039 0.29381 0.0
C60 C 0.94498 0.82247 0.83761 0.0
C61 C 0.93688 0.852 0.84888 0.0
C62 C 0.91074 0.85744 0.89767 0.0
C63 C 0.90898 0.8078 0.94682 0.0
C64 C 0.92981 0.80021 0.88613 0.0
C65 C 0.93667 0.76826 0.89243 0.0
H66 H 0.97251 0.66058 0.10377 0.0
C67 C 0.90763 0.78592 0.01103 0.0
C68 C 0.91983 0.76062 0.97466 0.0
H69 H 0.92623 0.64777 0.87257 0.0
H70 H 0.9083 0.69747 0.89502 0.0
H71 H 0.99686 0.73643 0.08396 0.0
H72 H 0.91416 0.69801 0.20675 0.0
H73 H 0.93711 0.72408 0.26968 0.0
H74 H 0.95034 0.68871 0.2365 0.0
H75 H 0.99811 0.71342 0.17157 0.0
H76 H 0.99026 0.752 0.18504 0.0
C77 C 0.97097 0.76658 0.89679 0.0
C78 C 0.92405 0.74957 0.81704 0.0
C79 C 0.92052 0.83751 0.29342 0.0
C80 C 0.94266 0.83603 0.3513 0.0
C81 C 0.95797 0.80971 0.34943 0.0
C82 C 0.95213 0.78637 0.2885 0.0
C83 C 0.93225 0.79012 0.22576 0.0
C84 C 0.91757 0.81597 0.22809 0.0
C85 C 0.90413 0.82105 0.14738 0.0
C86 C 0.91118 0.79268 0.09736 0.0
C87 C 0.92686 0.77397 0.14459 0.0
C88 C 0.92032 0.85058 0.11229 0.0
C89 C 0.86988 0.8222 0.1615 0.0
C90 C 0.95927 0.66873 0.05681 0.0
C91 C 0.95172 0.65063 0.98468 0.0
C92 C 0.93312 0.66142 0.92687 0.0
C93 C 0.92388 0.6902 0.93707 0.0
C94 C 0.93425 0.70859 0.00356 0.0
C95 C 0.94928 0.69772 0.06608 0.0
C96 C 0.95242 0.72096 0.1383 0.0
C97 C 0.93499 0.746 0.10805 0.0
C98 C 0.9274 0.73869 0.02648 0.0
C99 C 0.98621 0.7313 0.14583 0.0
C100 C 0.93777 0.70727 0.21751 0.0
H101 H 0.87718 0.83962 0.98582 0.0
H102 H 0.96401 0.81756 0.79712 0.0
H103 H 0.89913 0.74518 0.82334 0.0
H104 H 0.93421 0.72799 0.80834 0.0
H105 H 0.92977 0.76162 0.75906 0.0
H106 H 0.98021 0.78117 0.9491 0.0
H107 H 0.98299 0.77378 0.83842 0.0
H108 H 0.97603 0.74321 0.90584 0.0
H109 H 0.90795 0.85697 0.29309 0.0
H110 H 0.97561 0.80767 0.39182 0.0
H111 H 0.96457 0.76711 0.28934 0.0
H112 H 0.93163 0.86589 0.15981 0.0
H113 H 0.90427 0.86449 0.08598 0.0
H114 H 0.93842 0.84581 0.06552 0.0
H115 H 0.85982 0.80276 0.19702 0.0
H116 H 0.85833 0.82116 0.10223 0.0
H117 H 0.86494 0.8432 0.19681 0.0
H118 H 0.9034 0.87978 0.9054 0.0
C119 C 0.89614 0.83484 0.94555 0.0
C120 C 0.83897 0.00753 0.06589 0.0
C121 C 0.85044 0.00299 0.98255 0.0
C122 C 0.83149 0.98717 0.92446 0.0
C123 C 0.78974 0.98792 0.02199 0.0
C124 C 0.80795 0.99885 0.08476 0.0
C125 C 0.78913 0.99936 0.16706 0.0
H126 H 0.6448 0.96 0.33921 0.0
C127 C 0.75921 0.98273 0.05329 0.0
C128 C 0.75762 0.9862 0.13944 0.0
H129 H 0.71703 0.01021 0.46785 0.0
H130 H 0.75117 0.00437 0.34478 0.0
H131 H 0.63909 0.99045 0.22802 0.0
H132 H 0.68189 0.91363 0.20191 0.0
H133 H 0.66095 0.91915 0.11379 0.0
H134 H 0.64332 0.92211 0.21561 0.0
H135 H 0.63068 0.96846 0.13843 0.0
H136 H 0.65826 0.00112 0.13478 0.0
C137 C 0.78898 0.03217 0.20012 0.0
C138 C 0.80196 0.97947 0.22876 0.0
C139 C 0.67531 0.01496 0.89722 0.0
C140 C 0.64405 0.00672 0.90325 0.0
C141 C 0.63338 0.98034 0.94424 0.0
C142 C 0.65279 0.96472 0.98701 0.0
C143 C 0.68274 0.97637 0.99091 0.0
C144 C 0.69435 0.99846 0.93915 0.0
C145 C 0.72804 0.00249 0.93992 0.0
C146 C 0.73337 0.98092 0.00735 0.0
C147 C 0.70621 0.96954 0.04463 0.0
C148 C 0.73897 0.03537 0.9651 0.0
C149 C 0.74093 0.99356 0.8532 0.0
C150 C 0.66822 0.96899 0.34189 0.0
C151 C 0.67832 0.98501 0.41298 0.0
C152 C 0.70878 0.99733 0.41372 0.0
C153 C 0.72832 0.99438 0.34235 0.0
C154 C 0.71675 0.98039 0.26888 0.0
C155 C 0.68675 0.96867 0.26998 0.0
C156 C 0.67531 0.96098 0.18542 0.0
C157 C 0.7038 0.96832 0.1324 0.0
C158 C 0.72873 0.97884 0.18102 0.0
C159 C 0.6497 0.98119 0.17024 0.0
C160 C 0.66467 0.9271 0.17865 0.0
H161 H 0.78757 0.96576 0.90066 0.0
H162 H 0.85335 0.01798 0.11337 0.0
H163 H 0.80287 0.95626 0.20158 0.0
H164 H 0.78787 0.9781 0.28675 0.0
H165 H 0.82515 0.9886 0.24459 0.0
H166 H 0.78132 0.04629 0.15205 0.0
H167 H 0.81196 0.04152 0.21729 0.0
H168 H 0.77365 0.03428 0.25509 0.0
H169 H 0.68473 0.03444 0.86467 0.0
H170 H 0.60977 0.97258 0.94613 0.0
H171 H 0.64403 0.94488 0.0184 0.0
H172 H 0.72871 0.04206 0.02633 0.0
H173 H 0.73296 0.05097 0.91861 0.0
H174 H 0.76384 0.03829 0.96941 0.0
H175 H 0.72908 0.00364 0.80413 0.0
H176 H 0.73836 0.96876 0.84198 0.0
H177 H 0.76493 0.00225 0.84487 0.0
H178 H 0.84006 0.98116 0.86273 0.0
C179 C 0.80134 0.97912 0.94455 0.0
C180 C 0.59996 0.7052 0.3865 0.0
C181 C 0.61098 0.67656 0.39204 0.0
C182 C 0.63269 0.66766 0.33178 0.0
C183 C 0.62376 0.70881 0.25083 0.0
C184 C 0.60793 0.72173 0.31508 0.0
C185 C 0.6011 0.75296 0.29199 0.0
H186 H 0.57673 0.83577 0.95759 0.0
C187 C 0.62002 0.72418 0.17614 0.0
C188 C 0.60903 0.75193 0.19822 0.0
H189 H 0.58437 0.87262 0.20813 0.0
H190 H 0.59343 0.82278 0.25398 0.0
H191 H 0.63379 0.80043 0.94965 0.0
H192 H 0.54004 0.78267 0.98768 0.0
H193 H 0.54956 0.74553 0.97508 0.0
H194 H 0.55704 0.77104 0.89171 0.0
H195 H 0.60533 0.79887 0.87412 0.0
H196 H 0.62347 0.76603 0.89534 0.0
C197 C 0.62259 0.77599 0.33982 0.0
C198 C 0.56779 0.75751 0.31125 0.0
C199 C 0.58061 0.65377 0.94702 0.0
C200 C 0.56599 0.65922 0.87558 0.0
C201 C 0.56936 0.68787 0.84327 0.0
C202 C 0.58513 0.71173 0.8871 0.0
C203 C 0.59622 0.70673 0.9648 0.0
C204 C 0.59546 0.67786 0.9913 0.0
C205 C 0.60791 0.67668 0.07551 0.0
C206 C 0.61484 0.71032 0.097 0.0
C207 C 0.60619 0.72741 0.03383 0.0
C208 C 0.63615 0.65911 0.0677 0.0
C209 C 0.58289 0.66163 0.1338 0.0
C210 C 0.58096 0.8336 0.02237 0.0
C211 C 0.58064 0.85831 0.07852 0.0
C212 C 0.58487 0.85394 0.16311 0.0
C213 C 0.59058 0.8253 0.18941 0.0
C214 C 0.5923 0.80119 0.13041 0.0
C215 C 0.58728 0.80595 0.04863 0.0
C216 C 0.58959 0.77885 0.99241 0.0
C217 C 0.59983 0.7574 0.05181 0.0
C218 C 0.60074 0.76988 0.13366 0.0
C219 C 0.61419 0.78632 0.9237 0.0
C220 C 0.55763 0.7689 0.95968 0.0
H221 H 0.65609 0.67733 0.21588 0.0
H222 H 0.58473 0.71357 0.43414 0.0
H223 H 0.553 0.73971 0.27857 0.0
H224 H 0.56245 0.77959 0.29114 0.0
H225 H 0.56233 0.75659 0.37881 0.0
H226 H 0.64632 0.7707 0.32943 0.0
H227 H 0.61695 0.77557 0.40742 0.0
H228 H 0.62176 0.79909 0.32058 0.0
H229 H 0.57888 0.63135 0.97026 0.0
H230 H 0.55899 0.69192 0.78617 0.0
H231 H 0.58705 0.73332 0.86068 0.0
H232 H 0.63566 0.64308 0.01291 0.0
H233 H 0.63758 0.64497 0.12147 0.0
H234 H 0.65711 0.67456 0.06129 0.0
H235 H 0.56275 0.67447 0.13735 0.0
H236 H 0.59029 0.65996 0.19733 0.0
H237 H 0.57586 0.63822 0.11174 0.0
H238 H 0.64236 0.64653 0.33462 0.0
C239 C 0.63966 0.68428 0.26175 0.0
C240 C 0.3391 0.53302 0.37495 0.0
C241 C 0.35034 0.54276 0.45345 0.0
C242 C 0.33295 0.56036 0.50742 0.0
C243 C 0.29415 0.55855 0.40753 0.0
C244 C 0.31098 0.5417 0.35264 0.0
C245 C 0.29525 0.53549 0.27109 0.0
H246 H 0.17789 0.56825 0.03889 0.0
C247 C 0.26747 0.56616 0.36648 0.0
C248 C 0.26838 0.55427 0.28431 0.0
H249 H 0.23737 0.49983 0.97649 0.0
H250 H 0.26614 0.51512 0.09979 0.0
H251 H 0.17079 0.54505 0.23817 0.0
H252 H 0.21383 0.61926 0.10446 0.0
H253 H 0.21247 0.63265 0.20882 0.0
H254 H 0.17789 0.62168 0.15658 0.0
H255 H 0.15359 0.56801 0.16946 0.0
H256 H 0.15845 0.58012 0.27298 0.0
C257 C 0.28503 0.50155 0.26334 0.0
C258 C 0.3166 0.54646 0.19901 0.0
C259 C 0.17408 0.59595 0.52085 0.0
C260 C 0.148 0.60602 0.49004 0.0
C261 C 0.15045 0.62176 0.41638 0.0
C262 C 0.17664 0.62188 0.3658 0.0
C263 C 0.19958 0.60528 0.38886 0.0
C264 C 0.2002 0.59654 0.46896 0.0
C265 C 0.23041 0.58618 0.48562 0.0
C266 C 0.24371 0.58297 0.39678 0.0
C267 C 0.22427 0.59267 0.34064 0.0
C268 C 0.22625 0.55582 0.5281 0.0
C269 C 0.24782 0.61147 0.53881 0.0
C270 C 0.1975 0.5569 0.05075 0.0
C271 C 0.20556 0.53323 0.99768 0.0
C272 C 0.23073 0.51834 0.01655 0.0
C273 C 0.24711 0.52697 0.08851 0.0
C274 C 0.23735 0.54976 0.14387 0.0
C275 C 0.21259 0.5639 0.12401 0.0
C276 C 0.20115 0.58337 0.19369 0.0
C277 C 0.22448 0.58073 0.25769 0.0
C278 C 0.2458 0.56086 0.22935 0.0
C279 C 0.16943 0.56857 0.22055 0.0
C280 C 0.20117 0.6159 0.16467 0.0
H281 H 0.29319 0.58199 0.52778 0.0
H282 H 0.35211 0.51964 0.33192 0.0
H283 H 0.32572 0.5702 0.21165 0.0
H284 H 0.30504 0.54559 0.13995 0.0
H285 H 0.33587 0.53255 0.19054 0.0
H286 H 0.27459 0.49352 0.323 0.0
H287 H 0.30451 0.48848 0.2469 0.0
H288 H 0.26778 0.49603 0.21702 0.0
H289 H 0.17315 0.58518 0.57947 0.0
H290 H 0.13099 0.63092 0.39358 0.0
H291 H 0.17696 0.63209 0.30716 0.0
H292 H 0.21191 0.53892 0.49099 0.0
H293 H 0.21549 0.55836 0.59098 0.0
H294 H 0.24813 0.54677 0.53526 0.0
H295 H 0.23368 0.6297 0.56011 0.0
H296 H 0.26744 0.62246 0.50334 0.0
H297 H 0.25579 0.60282 0.59625 0.0
H298 H 0.34098 0.56804 0.5678 0.0
C299 C 0.30515 0.56832 0.48475 0.0
C300 C 0.08295 0.19276 0.59316 0.0
C301 C 0.09209 0.1635 0.59047 0.0
C302 C 0.11832 0.15732 0.54301 0.0
C303 C 0.11924 0.20502 0.48223 0.0
C304 C 0.0977 0.21365 0.5395 0.0
C305 C 0.09077 0.24525 0.52678 0.0
H306 H 0.06576 0.3519 0.29065 0.0
C307 C 0.12226 0.22606 0.41574 0.0
C308 C 0.10959 0.25181 0.44667 0.0
H309 H 0.10055 0.36583 0.53697 0.0
H310 H 0.11835 0.31589 0.52509 0.0
H311 H 0.12824 0.31672 0.22089 0.0
H312 H 0.03988 0.27546 0.29926 0.0
H313 H 0.05279 0.26143 0.20105 0.0
H314 H 0.0444 0.29984 0.2135 0.0
H315 H 0.09507 0.32327 0.16804 0.0
H316 H 0.11266 0.28908 0.14831 0.0
C317 C 0.1009 0.26528 0.60259 0.0
C318 C 0.05679 0.24601 0.51423 0.0
C319 C 0.1152 0.17126 0.13676 0.0
C320 C 0.10073 0.17618 0.06451 0.0
C321 C 0.09064 0.20478 0.05549 0.0
C322 C 0.09413 0.22751 0.11913 0.0
C323 C 0.10703 0.22128 0.19339 0.0
C324 C 0.11727 0.1934 0.20063 0.0
C325 C 0.12768 0.18878 0.28523 0.0
C326 C 0.12189 0.21865 0.32911 0.0
C327 C 0.11015 0.23799 0.27479 0.0
C328 C 0.16169 0.18487 0.27782 0.0
C329 C 0.10836 0.16118 0.32189 0.0
C330 C 0.07602 0.34376 0.34343 0.0
C331 C 0.08046 0.36224 0.41648 0.0
C332 C 0.09576 0.35169 0.48191 0.0
C333 C 0.10466 0.32272 0.47765 0.0
C334 C 0.09696 0.30384 0.40949 0.0
C335 C 0.08551 0.31455 0.34057 0.0
C336 C 0.08682 0.29163 0.26788 0.0
C337 C 0.10156 0.2664 0.3067 0.0
C338 C 0.10464 0.27366 0.39099 0.0
C339 C 0.10667 0.30584 0.19696 0.0
C340 C 0.05428 0.2815 0.24345 0.0
H341 H 0.15162 0.17284 0.45215 0.0
H342 H 0.0637 0.19842 0.63176 0.0
H343 H 0.04932 0.23048 0.46172 0.0
H344 H 0.05172 0.269 0.50059 0.0
H345 H 0.04326 0.23936 0.57087 0.0
H346 H 0.09427 0.25386 0.66108 0.0
H347 H 0.08971 0.28634 0.60703 0.0
H348 H 0.12576 0.2706 0.60057 0.0
H349 H 0.12246 0.14945 0.14716 0.0
H350 H 0.07938 0.20928 1.0002 0.0
H351 H 0.08584 0.24868 0.10942 0.0
H352 H 0.17379 0.20184 0.23711 0.0
H353 H 0.16555 0.16217 0.25094 0.0
H354 H 0.17239 0.18813 0.33821 0.0
H355 H 0.09711 0.14585 0.27432 0.0
H356 H 0.08984 0.1682 0.36437 0.0
H357 H 0.12231 0.14668 0.35419 0.0
H358 H 0.12627 0.1352 0.54047 0.0
C359 C 0.13245 0.17849 0.49012 0.0
C360 C 0.33061 0.00011 0.04012 0.0
C361 C 0.35282 0.9851 0.99325 0.0
C362 C 0.35447 0.95433 0.00415 0.0
C363 C 0.31949 0.95617 0.12141 0.0
C364 C 0.31295 0.98433 0.10222 0.0
C365 C 0.28724 0.99417 0.15925 0.0
H366 H 0.20902 0.97816 0.52623 0.0
C367 C 0.30425 0.94813 0.20025 0.0
C368 C 0.2817 0.96766 0.21717 0.0
H369 H 0.16444 0.99072 0.30081 0.0
H370 H 0.21135 0.98275 0.22011 0.0
H371 H 0.22713 0.92122 0.45819 0.0
H372 H 0.28017 0.00664 0.47455 0.0
H373 H 0.30332 0.97961 0.50193 0.0
H374 H 0.26918 0.98467 0.56264 0.0
H375 H 0.2439 0.93546 0.55271 0.0
H376 H 0.26363 0.91291 0.47671 0.0
C377 C 0.25993 0.99819 0.10782 0.0
C378 C 0.29761 0.02353 0.20796 0.0
C379 C 0.37581 0.91385 0.40086 0.0
C380 C 0.37636 0.91797 0.48713 0.0
C381 C 0.34975 0.92299 0.533 0.0
C382 C 0.32364 0.92731 0.49258 0.0
C383 C 0.32447 0.92718 0.40554 0.0
C384 C 0.34987 0.91941 0.36082 0.0
C385 C 0.34658 0.92055 0.26879 0.0
C386 C 0.31635 0.93391 0.26646 0.0
C387 C 0.30365 0.93735 0.34702 0.0
C388 C 0.34466 0.88786 0.23283 0.0
C389 C 0.3734 0.94078 0.23007 0.0
C390 C 0.20912 0.98019 0.45983 0.0
C391 C 0.18278 0.98526 0.42063 0.0
C392 C 0.18449 0.98768 0.33335 0.0
C393 C 0.21165 0.98396 0.28672 0.0
C394 C 0.23749 0.97855 0.32777 0.0
C395 C 0.23529 0.97519 0.41243 0.0
C396 C 0.26116 0.96029 0.44252 0.0
C397 C 0.27807 0.95352 0.36144 0.0
C398 C 0.26586 0.9668 0.29569 0.0
C399 C 0.24855 0.93106 0.4854 0.0
C400 C 0.27947 0.98374 0.49886 0.0
H401 H 0.33976 0.91638 0.07499 0.0
H402 H 0.32786 0.02341 0.03041 0.0
H403 H 0.31796 0.02078 0.24288 0.0
H404 H 0.27957 0.02997 0.253 0.0
H405 H 0.3031 0.04221 0.1654 0.0
H406 H 0.24876 0.97607 0.08617 0.0
H407 H 0.26698 0.01139 0.05261 0.0
H408 H 0.24344 0.01099 0.14409 0.0
H409 H 0.39621 0.90945 0.36554 0.0
H410 H 0.34999 0.92639 0.59976 0.0
H411 H 0.30451 0.93258 0.53095 0.0
H412 H 0.32885 0.87292 0.2712 0.0
H413 H 0.36714 0.87917 0.23134 0.0
H414 H 0.33612 0.8856 0.16982 0.0
H415 H 0.39471 0.93988 0.26183 0.0
H416 H 0.36876 0.96475 0.23273 0.0
H417 H 0.37885 0.93346 0.16539 0.0
H418 H 0.37036 0.94206 0.96683 0.0
C419 C 0.33751 0.93969 0.06739 0.0
C420 C 0.42511 0.30154 0.00184 0.0
C421 C 0.41335 0.32994 0.99707 0.0
C422 C 0.39 0.33723 0.0545 0.0
C423 C 0.39918 0.2959 0.13376 0.0
C424 C 0.41665 0.28412 0.0713 0.0
C425 C 0.42676 0.25445 0.09763 0.0
H426 H 0.44129 0.17185 0.44114 0.0
C427 C 0.40355 0.28166 0.20932 0.0
C428 C 0.41684 0.25503 0.19014 0.0
H429 H 0.46387 0.14327 0.18931 0.0
H430 H 0.44605 0.18929 0.1402 0.0
H431 H 0.47575 0.22226 0.43724 0.0
H432 H 0.38234 0.20905 0.42921 0.0
H433 H 0.39338 0.24134 0.49351 0.0
H434 H 0.40761 0.20613 0.5114 0.0
H435 H 0.45498 0.2411 0.51481 0.0
H436 H 0.46994 0.25993 0.42286 0.0
C437 C 0.46112 0.25453 0.0847 0.0
C438 C 0.40934 0.22866 0.04801 0.0
C439 C 0.45014 0.35264 0.42433 0.0
C440 C 0.46095 0.34805 0.50195 0.0
C441 C 0.45162 0.32133 0.54203 0.0
C442 C 0.43403 0.29812 0.5004 0.0
C443 C 0.42684 0.30174 0.41821 0.0
C444 C 0.43268 0.32935 0.38402 0.0
C445 C 0.41991 0.33003 0.30028 0.0
C446 C 0.40839 0.29678 0.28667 0.0
C447 C 0.41481 0.28028 0.3537 0.0
C448 C 0.44562 0.34048 0.23742 0.0
C449 C 0.39466 0.35139 0.30573 0.0
C450 C 0.44193 0.17494 0.37502 0.0
C451 C 0.45386 0.1539 0.31937 0.0
C452 C 0.45444 0.15905 0.23367 0.0
C453 C 0.4442 0.18563 0.20536 0.0
C454 C 0.43398 0.20723 0.2636 0.0
C455 C 0.43377 0.20165 0.34698 0.0
C456 C 0.42874 0.22853 0.40231 0.0
C457 C 0.42128 0.2501 0.33914 0.0
C458 C 0.42416 0.23779 0.2573 0.0
C459 C 0.45865 0.23866 0.44665 0.0
C460 C 0.40158 0.22089 0.46279 0.0
H461 H 0.36582 0.32622 0.16875 0.0
H462 H 0.44153 0.29418 0.95601 0.0
H463 H 0.38472 0.23076 0.05365 0.0
H464 H 0.41282 0.20642 0.07002 0.0
H465 H 0.41642 0.2292 0.98129 0.0
H466 H 0.47276 0.2747 0.11659 0.0
H467 H 0.46783 0.25482 0.01775 0.0
H468 H 0.4693 0.23447 0.10997 0.0
H469 H 0.45507 0.37415 0.39626 0.0
H470 H 0.45783 0.31859 0.60495 0.0
H471 H 0.4264 0.27825 0.53275 0.0
H472 H 0.46324 0.32451 0.23316 0.0
H473 H 0.45636 0.36313 0.25561 0.0
H474 H 0.43742 0.34244 0.17474 0.0
H475 H 0.40011 0.37102 0.34912 0.0
H476 H 0.37289 0.33962 0.32781 0.0
H477 H 0.39176 0.36122 0.24551 0.0
H478 H 0.37955 0.35794 0.05202 0.0
C479 C 0.38261 0.31987 0.12276 0.0
Tb480 Tb 0.99948 0.99467 0.6393 0.0
C481 C 0.07197 0.99273 0.62657 0.0
Tb482 Tb 0.03855 0.01719 0.7924 0.0
O483 O 0.99882 0.04084 0.59746 0.0
O484 O 0.03235 0.02868 0.67101 0.0
O485 O 0.04552 0.98775 0.59047 0.0
C486 C 0.05904 0.06517 0.88511 0.0
O487 O 0.07479 0.00446 0.70377 0.0
C488 C 0.01425 0.96136 0.79277 0.0
C489 C 0.96617 0.01981 0.80518 0.0
O490 O 0.07039 0.03926 0.88201 0.0
O491 O 0.03628 0.06346 0.83772 0.0
O492 O 0.03699 0.97113 0.8388 0.0
O493 O 1.00551 0.98364 0.76076 0.0
O494 O 0.9927 0.02482 0.84096 0.0
O495 O 0.96337 0.00855 0.72726 0.0
C496 C 0.97974 0.94581 0.54819 0.0
O497 O 0.97247 0.97298 0.53779 0.0
O498 O 0.99795 0.94669 0.60844 0.0
C499 C 0.02185 0.05076 0.64222 0.0
Tb500 Tb 0.50675 0.02818 0.64016 0.0
C501 C 0.5685 0.9995 0.6142 0.0
Tb502 Tb 0.52301 0.98307 0.76678 0.0
O503 O 0.54514 0.05961 0.67869 0.0
O504 O 0.52358 0.03008 0.76022 0.0
O505 O 0.54641 0.01094 0.5776 0.0
C506 C 0.5469 0.9523 0.88171 0.0
O507 O 0.56523 0.99022 0.69127 0.0
C508 C 0.48341 0.96017 0.66091 0.0
C509 C 0.46179 0.01211 0.79506 0.0
O510 O 0.55068 0.94843 0.8021 0.0
O511 O 0.52988 0.97397 0.89717 0.0
O512 O 0.48729 0.94875 0.73117 0.0
O513 O 0.5045 0.98057 0.64711 0.0
O514 O 0.48409 0.00089 0.83139 0.0
O515 O 0.4646 0.02136 0.7176 0.0
C516 C 0.48952 0.06268 0.52356 0.0
O517 O 0.49038 0.06961 0.60236 0.0
O518 O 0.49749 0.0357 0.51001 0.0
C519 C 0.54568 0.04942 0.75196 0.0
Tb520 Tb 0.53059 0.52209 0.63025 0.0
C521 C 0.45848 0.51782 0.61634 0.0
Tb522 Tb 0.48777 0.48867 0.76712 0.0
O523 O 0.5382 0.47879 0.56338 0.0
O524 O 0.50096 0.48338 0.64174 0.0
O525 O 0.48546 0.53103 0.59281 0.0
C526 C 0.46601 0.43914 0.84481 0.0
O527 O 0.45453 0.49863 0.67756 0.0
C528 C 0.5025 0.54612 0.79326 0.0
C529 C 0.5601 0.49616 0.78537 0.0
O530 O 0.45246 0.46365 0.84314 0.0
O531 O 0.49152 0.44279 0.8032 0.0
O532 O 0.47962 0.53202 0.8334 0.0
O533 O 0.51673 0.52704 0.75441 0.0
O534 O 0.53319 0.48333 0.81099 0.0
O535 O 0.5638 0.51423 0.72171 0.0
C536 C 0.5558 0.57087 0.55422 0.0
O537 O 0.56842 0.5461 0.56085 0.0
O538 O 0.52883 0.56763 0.58785 0.0
C539 C 0.5152 0.46439 0.60211 0.0
Tb540 Tb 0.9864 0.50898 0.64253 0.0
C541 C 0.03522 0.46771 0.569 0.0
Tb542 Tb 0.04528 0.50575 0.74012 0.0
O543 O 0.01293 0.53401 0.54684 0.0
O544 O 0.02631 0.5369 0.66901 0.0
O545 O 1.00624 0.47248 0.57212 0.0
C546 C 0.10161 0.50812 0.79611 0.0
O547 O 0.05474 0.48117 0.62232 0.0
C548 C 0.99734 0.47139 0.78807 0.0
C549 C 0.99676 0.54749 0.81391 0.0
O550 O 0.08005 0.48694 0.80858 0.0
O551 O 0.09137 0.52793 0.75158 0.0
O552 O 0.01842 0.48202 0.83728 0.0
O553 O 1.00514 0.47829 0.71532 0.0
O554 O 0.02556 0.54193 0.81221 0.0
O555 O 0.97727 0.53493 0.75888 0.0
C556 C 0.92981 0.5036 0.58619 0.0
O557 O 0.95143 0.52385 0.5658 0.0
O558 O 0.94012 0.48673 0.63919 0.0
C559 C 0.03375 0.54463 0.59688 0.0
C560 C 0.13355 0.00742 0.45823 0.0
C561 C 0.15358 0.98579 0.47086 0.0
C562 C 0.10705 0.00928 0.5084 0.0
C563 C 0.09967 0.98982 0.57367 0.0
H564 H 0.13869 0.02346 0.41044 0.0
H565 H 0.09249 0.02649 0.4971 0.0
S566 S 0.142 0.92709 0.62764 0.0
N567 N 0.16191 0.94238 0.5493 0.0
N568 N 0.11315 0.94724 0.64522 0.0
C569 C 0.11891 0.96777 0.58604 0.0
C570 C 0.14553 0.96539 0.53422 0.0
C571 C 0.48648 0.13649 0.42414 0.0
C572 C 0.46814 0.12914 0.35592 0.0
C573 C 0.49372 0.11457 0.4762 0.0
C574 C 0.48422 0.08413 0.46037 0.0
H575 H 0.49373 0.15976 0.44068 0.0
H576 H 0.50636 0.12167 0.53056 0.0
S577 S 0.4412 0.05202 0.28071 0.0
N578 N 0.44356 0.08873 0.26998 0.0
N579 N 0.45963 0.047 0.36447 0.0
C580 C 0.4688 0.07591 0.38743 0.0
C581 C 0.4603 0.09854 0.33568 0.0
C582 C 0.40147 0.55869 0.50837 0.0
C583 C 0.37991 0.53534 0.48224 0.0
C584 C 0.42721 0.55277 0.54951 0.0
C585 C 0.43202 0.52333 0.5683 0.0
H586 H 0.39795 0.58184 0.49883 0.0
H587 H 0.44287 0.5715 0.56949 0.0
S588 S 0.38388 0.45404 0.50731 0.0
N589 N 0.36629 0.4815 0.47329 0.0
N590 N 0.41429 0.47039 0.55145 0.0
C591 C 0.41121 0.49973 0.54 0.0
C592 C 0.3853 0.50571 0.4967 0.0
C593 C 0.08822 0.4168 0.45695 0.0
C594 C 0.0687 0.39203 0.42964 0.0
C595 C 0.07708 0.4422 0.49661 0.0
C596 C 0.04592 0.44388 0.51059 0.0
H597 H 0.11237 0.41558 0.45307 0.0
H598 H 0.09312 0.45989 0.52059 0.0
S599 S 0.98533 0.38661 0.4399 0.0
N600 N 0.01687 0.37197 0.41085 0.0
N601 N 0.99565 0.4198 0.48447 0.0
C602 C 0.02612 0.42042 0.47646 0.0
C603 C 0.03758 0.39447 0.43612 0.0
C604 C 0.88483 0.02819 0.8748 0.0
C605 C 0.88151 0.01372 0.95092 0.0
C606 C 0.91249 0.03125 0.82948 0.0
C607 C 0.93835 0.02084 0.85941 0.0
H608 H 0.8653 0.03557 0.84736 0.0
H609 H 0.9134 0.041 0.76935 0.0
S610 S 0.94262 0.98298 0.05725 0.0
N611 N 0.90702 0.98991 0.05521 0.0
N612 N 0.95933 0.99673 0.97215 0.0
C613 C 0.93593 0.00812 0.93795 0.0
C614 C 0.9075 0.00444 0.98338 0.0
C615 C 0.59231 0.8955 0.96949 0.0
C616 C 0.57631 0.88776 0.04378 0.0
C617 C 0.58295 0.91693 0.91899 0.0
C618 C 0.55824 0.93292 0.9426 0.0
H619 H 0.61101 0.88322 0.94705 0.0
H620 H 0.59491 0.92062 0.86001 0.0
S621 S 0.51133 0.92476 0.13682 0.0
N622 N 0.53588 0.89965 0.14172 0.0
N623 N 0.51971 0.94196 0.04947 0.0
C624 C 0.54375 0.92766 0.0204 0.0
C625 C 0.55261 0.90479 0.07075 0.0
C626 C 0.63297 0.47195 0.86187 0.0
C627 C 0.6384 0.49078 0.9335 0.0
C628 C 0.6075 0.47357 0.81462 0.0
C629 C 0.58628 0.49392 0.83725 0.0
H630 H 0.64855 0.45571 0.84203 0.0
H631 H 0.60444 0.45882 0.75987 0.0
S632 S 0.58984 0.54899 0.01618 0.0
N633 N 0.62024 0.53109 0.02257 0.0
N634 N 0.57234 0.53369 0.93437 0.0
C635 C 0.59116 0.51277 0.90844 0.0
C636 C 0.61714 0.51125 0.95652 0.0
C637 C 0.94436 0.59664 0.93591 0.0
C638 C 0.96393 0.62134 0.96382 0.0
C639 C 0.95532 0.57199 0.89175 0.0
C640 C 0.98635 0.57089 0.87413 0.0
H641 H 0.9202 0.5973 0.94356 0.0
H642 H 0.9392 0.55429 0.86805 0.0
S643 S 0.04727 0.62809 0.94309 0.0
N644 N 0.0159 0.64191 0.97771 0.0
N645 N 0.03673 0.59534 0.89639 0.0
C646 C 1.00633 0.59421 0.90814 0.0
C647 C 0.99507 0.61947 0.95271 0.0
C648 C 0.0422 0.13304 0.59876 0.0
C649 C 0.0722 0.13808 0.62353 0.0
C650 C 0.02545 0.10504 0.60796 0.0
C651 C 0.03827 0.0812 0.64169 0.0
H652 H 0.03228 0.15013 0.56682 0.0
H653 H 1.0029 0.10169 0.58531 0.0
S654 S 0.11538 0.08417 0.72203 0.0
N655 N 0.11285 0.11829 0.69094 0.0
N656 N 0.08262 0.0653 0.70307 0.0
C657 C 0.06777 0.08666 0.67046 0.0
C658 C 0.08438 0.11525 0.66303 0.0
C659 C 0.42077 0.90788 0.56734 0.0
C660 C 0.40525 0.92754 0.52459 0.0
C661 C 0.44702 0.9186 0.60839 0.0
C662 C 0.45849 0.94912 0.6071 0.0
H663 H 0.41223 0.88445 0.57069 0.0
H664 H 0.45807 0.90302 0.64288 0.0
S665 S 0.42363 0.00942 0.50898 0.0
N666 N 0.40176 0.97858 0.48587 0.0
N667 N 0.45088 0.99861 0.56259 0.0
C668 C 0.44305 0.96865 0.56355 0.0
C669 C 0.41639 0.95785 0.52251 0.0
C670 C 0.50696 0.38375 0.51621 0.0
C671 C 0.47761 0.37363 0.54429 0.0
C672 C 0.51975 0.41281 0.5384 0.0
C673 C 0.50315 0.43267 0.58738 0.0
H674 H 0.5194 0.36969 0.47342 0.0
H675 H 0.54208 0.42019 0.51398 0.0
S676 S 0.42462 0.41607 0.67248 0.0
N677 N 0.43259 0.3846 0.62329 0.0
N678 N 0.45534 0.43948 0.66168 0.0
C679 C 0.47394 0.42212 0.61699 0.0
C680 C 0.46148 0.39245 0.59633 0.0
C681 C 0.09934 0.57637 0.46309 0.0
C682 C 0.11789 0.5933 0.51995 0.0
C683 C 0.07191 0.56122 0.48866 0.0
C684 C 0.062 0.56236 0.57211 0.0
H685 H 0.10656 0.57396 0.3984 0.0
H686 H 0.05877 0.54788 0.44296 0.0
S687 S 0.10057 0.6062 0.74403 0.0
N688 N 0.12372 0.6118 0.66242 0.0
N689 N 0.07136 0.58405 0.71062 0.0
C690 C 0.07971 0.58012 0.62934 0.0
C691 C 0.10793 0.59534 0.60328 0.0
C692 C 0.98777 0.88093 0.84611 0.0
C693 C 0.95764 0.87773 0.8219 0.0
C694 C 1.00632 0.90781 0.83489 0.0
C695 C 0.99535 0.93224 0.79891 0.0
H696 H 0.99661 0.86309 0.87746 0.0
H697 H 0.0291 0.9097 0.85629 0.0
S698 S 0.91848 0.93366 0.71912 0.0
N699 N 0.91837 0.89991 0.75534 0.0
N700 N 0.95236 0.95038 0.73583 0.0
C701 C 0.96543 0.92863 0.77211 0.0
C702 C 0.94681 0.90137 0.78312 0.0
C703 C 0.59427 0.02743 0.9144 0.0
C704 C 0.62191 0.02513 0.87 0.0
C705 C 0.57018 0.0385 0.87827 0.0
C706 C 0.57317 0.04864 0.79762 0.0
H707 H 0.59052 0.01887 0.97592 0.0
H708 H 0.54851 0.03718 0.9115 0.0
S709 S 0.64312 0.05657 0.66487 0.0
N710 N 0.65234 0.03931 0.74644 0.0
N711 N 0.60745 0.0627 0.68175 0.0
C712 C 0.6018 0.05098 0.75742 0.0
C713 C 0.62618 0.03854 0.79285 0.0
C714 C 0.55903 0.61403 0.78435 0.0
C715 C 0.54625 0.63467 0.83907 0.0
C716 C 0.54382 0.58588 0.76787 0.0
C717 C 0.51516 0.57754 0.80477 0.0
H718 H 0.58181 0.61883 0.75884 0.0
H719 H 0.55554 0.57007 0.72953 0.0
S720 S 0.47148 0.62518 0.9485 0.0
N721 N 0.50317 0.64629 0.92769 0.0
N722 N 0.4739 0.59311 0.89452 0.0
C723 C 0.50142 0.59875 0.85607 0.0
C724 C 0.51714 0.62748 0.87363 0.0
C725 C 0.91732 0.43438 0.78781 0.0
C726 C 0.90473 0.44638 0.86169 0.0
C727 C 0.94774 0.442 0.76503 0.0
C728 C 0.96627 0.46166 0.81582 0.0
H729 H 0.90359 0.41921 0.74753 0.0
H730 H 0.95673 0.43277 0.70697 0.0
S731 S 0.94362 0.49891 0.01553 0.0
N732 N 0.91276 0.47874 0.98531 0.0
N733 N 0.96991 0.49262 0.94345 0.0
C734 C 0.954 0.47316 0.89074 0.0
C735 C 0.92316 0.46566 0.91338 0.0
C736 C 0.06237 0.14416 0.98248 0.0
C737 C 0.09229 0.14982 0.00708 0.0
C738 C 0.05205 0.1167 0.94302 0.0
C739 C 0.071 0.09354 0.92792 0.0
H740 H 0.04638 0.1605 0.99708 0.0
H741 H 0.02871 0.1133 0.92616 0.0
S742 S 0.15228 0.09827 0.96892 0.0
N743 N 0.14175 0.1311 0.0036 0.0
N744 N 0.12171 0.07894 0.9335 0.0
C745 C 0.1012 0.09917 0.94906 0.0
C746 C 0.11198 0.12745 0.98737 0.0
C747 C 0.40443 0.01131 0.97696 0.0
C748 C 0.37718 0.00065 0.94037 0.0
C749 C 0.43137 0.01668 0.92897 0.0
C750 C 0.43216 0.01204 0.84212 0.0
H751 H 0.40541 0.01329 0.04384 0.0
H752 H 0.45203 0.02323 0.9606 0.0
S753 S 0.36655 0.98582 0.71563 0.0
N754 N 0.35244 0.9866 0.81187 0.0
N755 N 0.40266 0.99771 0.72139 0.0
C756 C 0.40466 0.00324 0.80433 0.0
C757 C 0.37731 0.99723 0.85348 0.0
C758 C 0.40941 0.37506 0.91252 0.0
C759 C 0.42753 0.35441 0.94382 0.0
C760 C 0.42192 0.40264 0.88241 0.0
C761 C 0.45318 0.41021 0.87856 0.0
H762 H 0.38513 0.37047 0.91444 0.0
H763 H 0.40695 0.41809 0.86169 0.0
S764 S 0.5111 0.36392 0.94644 0.0
N765 N 0.47883 0.34381 0.96701 0.0
N766 N 0.50227 0.39447 0.9039 0.0
C767 C 0.47176 0.38921 0.9046 0.0
C768 C 0.459 0.36154 0.93817 0.0
C769 C 0.17672 0.54361 0.87442 0.0
C770 C 0.18456 0.52284 0.93051 0.0
C771 C 0.15082 0.53789 0.82749 0.0
C772 C 0.13144 0.5113 0.83545 0.0
H773 H 0.18975 0.56529 0.87057 0.0
H774 H 0.14513 0.55517 0.78806 0.0
S775 S 0.14318 0.44848 0.9681 0.0
N776 N 0.17195 0.4737 0.9866 0.0
N777 N 0.12338 0.46287 0.89881 0.0
C778 C 0.14004 0.48953 0.88731 0.0
C779 C 0.16656 0.4953 0.93463 0.0
C780 C 0.95164 0.89249 0.37233 0.0
C781 C 0.95177 0.86362 0.40458 0.0
C782 C 0.95977 0.91894 0.41968 0.0
C783 C 0.96948 0.91779 0.50042 0.0
H784 H 0.94569 0.89489 0.30904 0.0
H785 H 0.95929 0.94039 0.3919 0.0
S786 S 0.97424 0.84875 0.61554 0.0
N787 N 0.96143 0.83617 0.52496 0.0
N788 N 0.97921 0.88567 0.61107 0.0
C789 C 0.97028 0.88932 0.53339 0.0
C790 C 0.96096 0.86234 0.48622 0.0
C791 C 0.64621 0.97521 0.54364 0.0
C792 C 0.65457 0.99318 0.47578 0.0
C793 C 0.61883 0.97791 0.58969 0.0
C794 C 0.59829 0.99801 0.56797 0.0
H795 H 0.66027 0.95807 0.55893 0.0
H796 H 0.61319 0.96328 0.6406 0.0
S797 S 0.61089 0.05146 0.39835 0.0
N798 N 0.64113 0.03293 0.39244 0.0
N799 N 0.58979 0.03763 0.47655 0.0
C800 C 0.60703 0.01669 0.50166 0.0
C801 C 0.63507 0.01437 0.45637 0.0
C802 C 0.56577 0.64658 0.454 0.0
C803 C 0.59725 0.65357 0.45008 0.0
C804 C 0.55253 0.6201 0.48946 0.0
C805 C 0.57027 0.59931 0.52086 0.0
H806 H 0.55135 0.66074 0.42514 0.0
H807 H 0.52827 0.61526 0.48909 0.0
S808 S 0.65308 0.60947 0.53945 0.0
N809 N 0.64533 0.6395 0.49231 0.0
N810 N 0.6205 0.58929 0.55543 0.0
C811 C 0.60151 0.60684 0.522 0.0
C812 C 0.61495 0.63408 0.4877 0.0
C813 C 0.86616 0.5089 0.43847 0.0
C814 C 0.84593 0.48362 0.45643 0.0
C815 C 0.89255 0.51609 0.48321 0.0
C816 C 0.89982 0.49825 0.5475 0.0
H817 H 0.86264 0.52206 0.38598 0.0
H818 H 0.90805 0.53496 0.46462 0.0
S819 S 0.85264 0.43156 0.62457 0.0
N820 N 0.83356 0.44262 0.54861 0.0
N821 N 0.88318 0.45549 0.63044 0.0
C822 C 0.87884 0.47404 0.56912 0.0
C823 C 0.85193 0.46693 0.52431 0.0
loop_
_geom_bond_atom_site_label_1
_geom_bond_atom_site_label_2
_geom_bond_distance
_geom_bond_site_symmetry_2
_ccdc_geom_bond_type
C0 C1 1.391 . S
C0 C4 1.391 . S
C0 H42 0.948 . S
C1 C0 1.391 . S
C1 C2 1.391 . S
C2 C1 1.391 . S
C2 H58 0.947 . S
C2 C59 1.392 . S
C3 C4 1.391 . S
C3 C7 1.397 . S
C3 C59 1.419 . S
C4 C0 1.391 . S
C4 C3 1.391 . S
C4 C5 1.399 . S
C5 C4 1.399 . S
C5 C8 1.396 . S
C5 C17 1.453 . S
C5 C18 1.684 . S
H6 C30 0.948 . S
C7 C3 1.397 . S
C7 C8 1.394 . S
C7 C26 1.723 . S
C8 C5 1.396 . S
C8 C7 1.394 . S
C8 C38 1.723 . S
H9 C32 0.947 . S
H10 C33 0.948 . S
H11 C39 0.982 . S
H12 C40 0.979 . S
H13 C40 0.980 . S
H14 C40 0.983 . S
H15 C39 0.979 . S
H16 C39 0.977 . S
C17 C5 1.453 . S
C17 H46 0.982 . S
C17 H47 0.979 . S
C17 H48 0.977 . S
C18 C5 1.684 . S
C18 H43 0.979 . S
C18 H44 0.980 . S
C18 H45 0.983 . S
C19 C20 1.391 . S
C19 C24 1.391 . S
C19 H49 0.948 . S
C20 C19 1.391 . S
C20 C21 1.391 . S
C21 C20 1.391 . S
C21 C22 1.392 . S
C21 H50 0.947 . S
C22 C21 1.392 . S
C22 C23 1.419 . S
C22 H51 0.948 . S
C23 C22 1.419 . S
C23 C24 1.391 . S
C23 C27 1.397 . S
C24 C19 1.391 . S
C24 C23 1.391 . S
C24 C25 1.399 1_556 S
C25 C24 1.399 1_554 S
C25 C26 1.396 . S
C25 C28 1.453 . S
C25 C29 1.684 . S
C26 C7 1.723 . S
C26 C25 1.396 . S
C26 C27 1.394 1_554 S
C27 C23 1.397 . S
C27 C26 1.394 1_556 S
C27 C37 1.723 . S
C28 C25 1.453 . S
C28 H52 0.982 . S
C28 H53 0.979 . S
C28 H54 0.977 . S
C29 C25 1.684 . S
C29 H55 0.979 . S
C29 H56 0.980 . S
C29 H57 0.983 . S
C30 H6 0.948 . S
C30 C31 1.391 . S
C30 C35 1.391 . S
C31 C30 1.391 . S
C31 C32 1.391 1_556 S
C32 H9 0.947 . S
C32 C31 1.391 1_554 S
C32 C33 1.392 . S
C33 H10 0.948 . S
C33 C32 1.392 . S
C33 C34 1.419 . S
C34 C33 1.419 . S
C34 C35 1.391 1_554 S
C34 C38 1.397 . S
C35 C30 1.391 . S
C35 C34 1.391 1_556 S
C35 C36 1.399 . S
C36 C35 1.399 . S
C36 C37 1.396 . S
C36 C39 1.453 . S
C36 C40 1.684 . S
C37 C27 1.723 . S
C37 C36 1.396 . S
C37 C38 1.394 1_556 S
C38 C8 1.723 . S
C38 C34 1.397 . S
C38 C37 1.394 1_554 S
C39 H11 0.982 . S
C39 H15 0.979 . S
C39 H16 0.977 . S
C39 C36 1.453 . S
C40 H12 0.979 . S
C40 H13 0.980 . S
C40 H14 0.983 . S
C40 C36 1.684 . S
H41 C59 0.948 . S
H42 C0 0.948 . S
H43 C18 0.979 . S
H44 C18 0.980 . S
H45 C18 0.983 . S
H46 C17 0.982 . S
H47 C17 0.979 . S
H48 C17 0.977 . S
H49 C19 0.948 . S
H50 C21 0.947 . S
H51 C22 0.948 . S
H52 C28 0.982 . S
H53 C28 0.979 . S
H54 C28 0.977 . S
H55 C29 0.979 . S
H56 C29 0.980 . S
H57 C29 0.983 . S
H58 C2 0.947 . S
C59 C2 1.392 . S
C59 C3 1.419 . S
C59 H41 0.948 . S
C60 C61 1.391 . S
C60 C64 1.391 . S
C60 H102 0.948 . S
C61 C60 1.391 . S
C61 C62 1.391 . S
C62 C61 1.391 . S
C62 H118 0.947 . S
C62 C119 1.392 . S
C63 C64 1.391 . S
C63 C67 1.397 . S
C63 C119 1.419 . S
C64 C60 1.391 . S
C64 C63 1.391 . S
C64 C65 1.399 . S
C65 C64 1.399 . S
C65 C68 1.396 . S
C65 C77 1.453 . S
C65 C78 1.684 . S
H66 C90 0.948 . S
C67 C63 1.397 . S
C67 C68 1.394 . S
C67 C86 1.723 1_556 S
C68 C65 1.396 . S
C68 C67 1.394 . S
C68 C98 1.723 . S
H69 C92 0.947 . S
H70 C93 0.948 . S
H71 C99 0.982 . S
H72 C100 0.979 . S
H73 C100 0.980 . S
H74 C100 0.983 . S
H75 C99 0.979 . S
H76 C99 0.977 . S
C77 C65 1.453 . S
C77 H106 0.982 . S
C77 H107 0.979 . S
C77 H108 0.977 . S
C78 C65 1.684 . S
C78 H103 0.979 . S
C78 H104 0.980 . S
C78 H105 0.983 . S
C79 C80 1.391 . S
C79 C84 1.391 . S
C79 H109 0.948 . S
C80 C79 1.391 . S
C80 C81 1.391 . S
C81 C80 1.391 . S
C81 C82 1.392 . S
C81 H110 0.947 . S
C82 C81 1.392 . S
C82 C83 1.419 . S
C82 H111 0.948 . S
C83 C82 1.419 . S
C83 C84 1.391 . S
C83 C87 1.397 . S
C84 C79 1.391 . S
C84 C83 1.391 . S
C84 C85 1.399 . S
C85 C84 1.399 . S
C85 C86 1.396 . S
C85 C88 1.453 . S
C85 C89 1.684 . S
C86 C67 1.723 1_554 S
C86 C85 1.396 . S
C86 C87 1.394 . S
C87 C83 1.397 . S
C87 C86 1.394 . S
C87 C97 1.723 . S
C88 C85 1.453 . S
C88 H112 0.982 . S
C88 H113 0.979 . S
C88 H114 0.977 . S
C89 C85 1.684 . S
C89 H115 0.979 . S
C89 H116 0.980 . S
C89 H117 0.983 . S
C90 H66 0.948 . S
C90 C91 1.391 1_554 S
C90 C95 1.391 . S
C91 C90 1.391 1_556 S
C91 C92 1.391 . S
C92 H69 0.947 . S
C92 C91 1.391 . S
C92 C93 1.392 . S
C93 H70 0.948 . S
C93 C92 1.392 . S
C93 C94 1.419 . S
C94 C93 1.419 . S
C94 C95 1.391 1_556 S
C94 C98 1.397 . S
C95 C90 1.391 . S
C95 C94 1.391 1_554 S
C95 C96 1.399 . S
C96 C95 1.399 . S
C96 C97 1.396 . S
C96 C99 1.453 . S
C96 C100 1.684 . S
C97 C87 1.723 . S
C97 C96 1.396 . S
C97 C98 1.394 1_554 S
C98 C68 1.723 . S
C98 C94 1.397 . S
C98 C97 1.394 1_556 S
C99 H71 0.982 . S
C99 H75 0.979 . S
C99 H76 0.977 . S
C99 C96 1.453 . S
C100 H72 0.979 . S
C100 H73 0.980 . S
C100 H74 0.983 . S
C100 C96 1.684 . S
H101 C119 0.948 . S
H102 C60 0.948 . S
H103 C78 0.979 . S
H104 C78 0.980 . S
H105 C78 0.983 . S
H106 C77 0.982 . S
H107 C77 0.979 . S
H108 C77 0.977 . S
H109 C79 0.948 . S
H110 C81 0.947 . S
H111 C82 0.948 . S
H112 C88 0.982 . S
H113 C88 0.979 . S
H114 C88 0.977 . S
H115 C89 0.979 . S
H116 C89 0.980 . S
H117 C89 0.983 . S
H118 C62 0.947 . S
C119 C62 1.392 . S
C119 C63 1.419 . S
C119 H101 0.948 . S
C120 C121 1.391 . S
C120 C124 1.391 . S
C120 H162 0.948 . S
C121 C120 1.391 . S
C121 C122 1.391 1_554 S
C122 C121 1.391 1_556 S
C122 H178 0.947 . S
C122 C179 1.392 . S
C123 C124 1.391 . S
C123 C127 1.397 1_565 S
C123 C179 1.419 1_554 S
C124 C120 1.391 . S
C124 C123 1.391 . S
C124 C125 1.399 . S
C125 C124 1.399 . S
C125 C128 1.396 1_565 S
C125 C137 1.453 1_565 S
C125 C138 1.684 . S
H126 C150 0.948 . S
C127 C123 1.397 1_545 S
C127 C128 1.394 . S
C127 C146 1.723 . S
C128 C125 1.396 1_545 S
C128 C127 1.394 . S
C128 C158 1.723 . S
H129 C152 0.947 . S
H130 C153 0.948 . S
H131 C159 0.982 . S
H132 C160 0.979 . S
H133 C160 0.980 . S
H134 C160 0.983 . S
H135 C159 0.979 . S
H136 C159 0.977 . S
C137 C125 1.453 1_545 S
C137 H166 0.982 . S
C137 H167 0.979 . S
C137 H168 0.977 . S
C138 C125 1.684 . S
C138 H163 0.979 . S
C138 H164 0.980 . S
C138 H165 0.983 . S
C139 C140 1.391 . S
C139 C144 1.391 . S
C139 H169 0.948 . S
C140 C139 1.391 . S
C140 C141 1.391 . S
C141 C140 1.391 . S
C141 C142 1.392 1_556 S
C141 H170 0.947 . S
C142 C141 1.392 1_554 S
C142 C143 1.418 1_554 S
C142 H171 0.948 . S
C143 C142 1.418 1_556 S
C143 C144 1.398 . S
C143 C147 1.392 1_566 S
C144 C139 1.391 . S
C144 C143 1.398 . S
C144 C145 1.399 . S
C145 C144 1.399 . S
C145 C146 1.396 1_566 S
C145 C148 1.453 1_565 S
C145 C149 1.684 . S
C146 C127 1.723 . S
C146 C145 1.396 1_544 S
C146 C147 1.394 . S
C147 C143 1.392 1_544 S
C147 C146 1.394 . S
C147 C157 1.723 . S
C148 C145 1.453 1_545 S
C148 H172 0.982 . S
C148 H173 0.979 . S
C148 H174 0.977 . S
C149 C145 1.684 . S
C149 H175 0.979 . S
C149 H176 0.980 . S
C149 H177 0.983 . S
C150 H126 0.948 . S
C150 C151 1.391 . S
C150 C155 1.391 . S
C151 C150 1.391 . S
C151 C152 1.391 . S
C152 H129 0.947 . S
C152 C151 1.391 . S
C152 C153 1.392 . S
C153 H130 0.948 . S
C153 C152 1.392 . S
C153 C154 1.419 . S
C154 C153 1.419 . S
C154 C155 1.391 . S
C154 C158 1.397 1_565 S
C155 C150 1.391 . S
C155 C154 1.391 . S
C155 C156 1.399 . S
C156 C155 1.399 . S
C156 C157 1.396 1_565 S
C156 C159 1.453 1_565 S
C156 C160 1.684 . S
C157 C147 1.723 . S
C157 C156 1.396 1_545 S
C157 C158 1.394 . S
C158 C128 1.723 . S
C158 C154 1.397 1_545 S
C158 C157 1.394 . S
C159 H131 0.982 . S
C159 H135 0.979 . S
C159 H136 0.977 . S
C159 C156 1.453 1_545 S
C160 H132 0.979 . S
C160 H133 0.980 . S
C160 H134 0.983 . S
C160 C156 1.684 . S
H161 C179 0.948 . S
H162 C120 0.948 . S
H163 C138 0.979 . S
H164 C138 0.980 . S
H165 C138 0.983 . S
H166 C137 0.982 . S
H167 C137 0.979 . S
H168 C137 0.977 . S
H169 C139 0.948 . S
H170 C141 0.947 . S
H171 C142 0.948 . S
H172 C148 0.982 . S
H173 C148 0.979 . S
H174 C148 0.977 . S
H175 C149 0.979 . S
H176 C149 0.980 . S
H177 C149 0.983 . S
H178 C122 0.947 . S
C179 C122 1.392 . S
C179 C123 1.419 1_556 S
C179 H161 0.948 . S
C180 C181 1.391 . S
C180 C184 1.391 . S
C180 H222 0.948 . S
C181 C180 1.391 . S
C181 C182 1.391 . S
C182 C181 1.391 . S
C182 H238 0.947 . S
C182 C239 1.392 . S
C183 C184 1.391 . S
C183 C187 1.397 . S
C183 C239 1.419 . S
C184 C180 1.391 . S
C184 C183 1.391 . S
C184 C185 1.399 . S
C185 C184 1.399 . S
C185 C188 1.396 . S
C185 C197 1.453 . S
C185 C198 1.684 . S
H186 C210 0.948 . S
C187 C183 1.397 . S
C187 C188 1.394 . S
C187 C206 1.723 . S
C188 C185 1.396 . S
C188 C187 1.394 . S
C188 C218 1.723 . S
H189 C212 0.947 . S
H190 C213 0.948 . S
H191 C219 0.982 . S
H192 C220 0.979 . S
H193 C220 0.980 . S
H194 C220 0.983 . S
H195 C219 0.979 . S
H196 C219 0.977 . S
C197 C185 1.453 . S
C197 H226 0.982 . S
C197 H227 0.979 . S
C197 H228 0.977 . S
C198 C185 1.684 . S
C198 H223 0.979 . S
C198 H224 0.980 . S
C198 H225 0.983 . S
C199 C200 1.391 . S
C199 C204 1.391 . S
C199 H229 0.948 . S
C200 C199 1.391 . S
C200 C201 1.391 . S
C201 C200 1.391 . S
C201 C202 1.392 . S
C201 H230 0.947 . S
C202 C201 1.392 . S
C202 C203 1.419 . S
C202 H231 0.948 . S
C203 C202 1.419 . S
C203 C204 1.391 . S
C203 C207 1.397 1_556 S
C204 C199 1.391 . S
C204 C203 1.391 . S
C204 C205 1.399 1_556 S
C205 C204 1.399 1_554 S
C205 C206 1.396 . S
C205 C208 1.453 . S
C205 C209 1.684 . S
C206 C187 1.723 . S
C206 C205 1.396 . S
C206 C207 1.394 . S
C207 C203 1.397 1_554 S
C207 C206 1.394 . S
C207 C217 1.723 1_554 S
C208 C205 1.453 . S
C208 H232 0.982 . S
C208 H233 0.979 . S
C208 H234 0.977 . S
C209 C205 1.684 . S
C209 H235 0.979 . S
C209 H236 0.980 . S
C209 H237 0.983 . S
C210 H186 0.948 . S
C210 C211 1.391 1_556 S
C210 C215 1.391 . S
C211 C210 1.391 1_554 S
C211 C212 1.391 . S
C212 H189 0.947 . S
C212 C211 1.391 . S
C212 C213 1.392 . S
C213 H190 0.948 . S
C213 C212 1.392 . S
C213 C214 1.419 . S
C214 C213 1.419 . S
C214 C215 1.391 1_554 S
C214 C218 1.397 . S
C215 C210 1.391 . S
C215 C214 1.391 1_556 S
C215 C216 1.399 . S
C216 C215 1.399 . S
C216 C217 1.396 . S
C216 C219 1.453 . S
C216 C220 1.684 . S
C217 C207 1.723 1_556 S
C217 C216 1.396 . S
C217 C218 1.394 1_556 S
C218 C188 1.723 . S
C218 C214 1.397 . S
C218 C217 1.394 1_554 S
C219 H191 0.982 . S
C219 H195 0.979 . S
C219 H196 0.977 . S
C219 C216 1.453 . S
C220 H192 0.979 . S
C220 H193 0.980 . S
C220 H194 0.983 . S
C220 C216 1.684 . S
H221 C239 0.948 . S
H222 C180 0.948 . S
H223 C198 0.979 . S
H224 C198 0.980 . S
H225 C198 0.983 . S
H226 C197 0.982 . S
H227 C197 0.979 . S
H228 C197 0.977 . S
H229 C199 0.948 . S
H230 C201 0.947 . S
H231 C202 0.948 . S
H232 C208 0.982 . S
H233 C208 0.979 . S
H234 C208 0.977 . S
H235 C209 0.979 . S
H236 C209 0.980 . S
H237 C209 0.983 . S
H238 C182 0.947 . S
C239 C182 1.392 . S
C239 C183 1.419 . S
C239 H221 0.948 . S
C240 C241 1.391 . S
C240 C244 1.391 . S
C240 H282 0.948 . S
C241 C240 1.391 . S
C241 C242 1.391 . S
C242 C241 1.391 . S
C242 H298 0.947 . S
C242 C299 1.392 . S
C243 C244 1.391 . S
C243 C247 1.397 . S
C243 C299 1.419 . S
C244 C240 1.391 . S
C244 C243 1.391 . S
C244 C245 1.399 . S
C245 C244 1.399 . S
C245 C248 1.396 . S
C245 C257 1.453 . S
C245 C258 1.684 . S
H246 C270 0.948 . S
C247 C243 1.397 . S
C247 C248 1.394 . S
C247 C266 1.723 . S
C248 C245 1.396 . S
C248 C247 1.394 . S
C248 C278 1.723 . S
H249 C272 0.947 1_556 S
H250 C273 0.948 . S
H251 C279 0.982 . S
H252 C280 0.979 . S
H253 C280 0.980 . S
H254 C280 0.983 . S
H255 C279 0.979 . S
H256 C279 0.977 . S
C257 C245 1.453 . S
C257 H286 0.982 . S
C257 H287 0.979 . S
C257 H288 0.977 . S
C258 C245 1.684 . S
C258 H283 0.979 . S
C258 H284 0.980 . S
C258 H285 0.983 . S
C259 C260 1.391 . S
C259 C264 1.391 . S
C259 H289 0.948 . S
C260 C259 1.391 . S
C260 C261 1.391 . S
C261 C260 1.391 . S
C261 C262 1.392 . S
C261 H290 0.947 . S
C262 C261 1.392 . S
C262 C263 1.419 . S
C262 H291 0.948 . S
C263 C262 1.419 . S
C263 C264 1.391 . S
C263 C267 1.397 . S
C264 C259 1.391 . S
C264 C263 1.391 . S
C264 C265 1.399 . S
C265 C264 1.399 . S
C265 C266 1.396 . S
C265 C268 1.453 . S
C265 C269 1.684 . S
C266 C247 1.723 . S
C266 C265 1.396 . S
C266 C267 1.394 . S
C267 C263 1.397 . S
C267 C266 1.394 . S
C267 C277 1.723 . S
C268 C265 1.453 . S
C268 H292 0.982 . S
C268 H293 0.979 . S
C268 H294 0.977 . S
C269 C265 1.684 . S
C269 H295 0.979 . S
C269 H296 0.980 . S
C269 H297 0.983 . S
C270 H246 0.948 . S
C270 C271 1.391 . S
C270 C275 1.391 . S
C271 C270 1.391 . S
C271 C272 1.391 . S
C272 H249 0.947 1_554 S
C272 C271 1.391 . S
C272 C273 1.392 . S
C273 H250 0.948 . S
C273 C272 1.392 . S
C273 C274 1.419 . S
C274 C273 1.419 . S
C274 C275 1.391 . S
C274 C278 1.397 . S
C275 C270 1.391 . S
C275 C274 1.391 . S
C275 C276 1.399 . S
C276 C275 1.399 . S
C276 C277 1.396 . S
C276 C279 1.453 . S
C276 C280 1.684 . S
C277 C267 1.723 . S
C277 C276 1.396 . S
C277 C278 1.394 . S
C278 C248 1.723 . S
C278 C274 1.397 . S
C278 C277 1.394 . S
C279 H251 0.982 . S
C279 H255 0.979 . S
C279 H256 0.977 . S
C279 C276 1.453 . S
C280 H252 0.979 . S
C280 H253 0.980 . S
C280 H254 0.983 . S
C280 C276 1.684 . S
H281 C299 0.948 . S
H282 C240 0.948 . S
H283 C258 0.979 . S
H284 C258 0.980 . S
H285 C258 0.983 . S
H286 C257 0.982 . S
H287 C257 0.979 . S
H288 C257 0.977 . S
H289 C259 0.948 . S
H290 C261 0.947 . S
H291 C262 0.948 . S
H292 C268 0.982 . S
H293 C268 0.979 . S
H294 C268 0.977 . S
H295 C269 0.979 . S
H296 C269 0.980 . S
H297 C269 0.983 . S
H298 C242 0.947 . S
C299 C242 1.392 . S
C299 C243 1.419 . S
C299 H281 0.948 . S
C300 C301 1.391 . S
C300 C304 1.391 . S
C300 H342 0.948 . S
C301 C300 1.391 . S
C301 C302 1.391 . S
C302 C301 1.391 . S
C302 H358 0.947 . S
C302 C359 1.392 . S
C303 C304 1.391 . S
C303 C307 1.397 . S
C303 C359 1.419 . S
C304 C300 1.391 . S
C304 C303 1.391 . S
C304 C305 1.399 . S
C305 C304 1.399 . S
C305 C308 1.396 . S
C305 C317 1.453 . S
C305 C318 1.684 . S
H306 C330 0.948 . S
C307 C303 1.397 . S
C307 C308 1.394 . S
C307 C326 1.723 . S
C308 C305 1.396 . S
C308 C307 1.394 . S
C308 C338 1.723 . S
H309 C332 0.947 . S
H310 C333 0.948 . S
H311 C339 0.982 . S
H312 C340 0.979 . S
H313 C340 0.980 . S
H314 C340 0.983 . S
H315 C339 0.979 . S
H316 C339 0.977 . S
C317 C305 1.453 . S
C317 H346 0.982 . S
C317 H347 0.979 . S
C317 H348 0.977 . S
C318 C305 1.684 . S
C318 H343 0.979 . S
C318 H344 0.980 . S
C318 H345 0.983 . S
C319 C320 1.391 . S
C319 C324 1.391 . S
C319 H349 0.948 . S
C320 C319 1.391 . S
C320 C321 1.391 . S
C321 C320 1.391 . S
C321 C322 1.392 . S
C321 H350 0.947 . S
C322 C321 1.392 . S
C322 C323 1.419 . S
C322 H351 0.948 . S
C323 C322 1.419 . S
C323 C324 1.391 . S
C323 C327 1.397 . S
C324 C319 1.391 . S
C324 C323 1.391 . S
C324 C325 1.399 . S
C325 C324 1.399 . S
C325 C326 1.396 . S
C325 C328 1.453 . S
C325 C329 1.684 . S
C326 C307 1.723 . S
C326 C325 1.396 . S
C326 C327 1.394 . S
C327 C323 1.397 . S
C327 C326 1.394 . S
C327 C337 1.723 . S
C328 C325 1.453 . S
C328 H352 0.982 . S
C328 H353 0.979 . S
C328 H354 0.977 . S
C329 C325 1.684 . S
C329 H355 0.979 . S
C329 H356 0.980 . S
C329 H357 0.983 . S
C330 H306 0.948 . S
C330 C331 1.391 . S
C330 C335 1.391 . S
C331 C330 1.391 . S
C331 C332 1.391 . S
C332 H309 0.947 . S
C332 C331 1.391 . S
C332 C333 1.392 . S
C333 H310 0.948 . S
C333 C332 1.392 . S
C333 C334 1.419 . S
C334 C333 1.419 . S
C334 C335 1.391 . S
C334 C338 1.397 . S
C335 C330 1.391 . S
C335 C334 1.391 . S
C335 C336 1.399 . S
C336 C335 1.399 . S
C336 C337 1.396 . S
C336 C339 1.453 . S
C336 C340 1.684 . S
C337 C327 1.723 . S
C337 C336 1.396 . S
C337 C338 1.394 . S
C338 C308 1.723 . S
C338 C334 1.397 . S
C338 C337 1.394 . S
C339 H311 0.982 . S
C339 H315 0.979 . S
C339 H316 0.977 . S
C339 C336 1.453 . S
C340 H312 0.979 . S
C340 H313 0.980 . S
C340 H314 0.983 . S
C340 C336 1.684 . S
H341 C359 0.948 . S
H342 C300 0.948 . S
H343 C318 0.979 . S
H344 C318 0.980 . S
H345 C318 0.983 . S
H346 C317 0.982 . S
H347 C317 0.979 . S
H348 C317 0.977 . S
H349 C319 0.948 . S
H350 C321 0.947 . S
H351 C322 0.948 . S
H352 C328 0.982 . S
H353 C328 0.979 . S
H354 C328 0.977 . S
H355 C329 0.979 . S
H356 C329 0.980 . S
H357 C329 0.983 . S
H358 C302 0.947 . S
C359 C302 1.392 . S
C359 C303 1.419 . S
C359 H341 0.948 . S
C360 C361 1.391 . S
C360 C364 1.391 1_556 S
C360 H402 0.948 . S
C361 C360 1.391 . S
C361 C362 1.391 1_556 S
C362 C361 1.391 1_554 S
C362 H418 0.947 . S
C362 C419 1.392 . S
C363 C364 1.391 . S
C363 C367 1.397 . S
C363 C419 1.419 . S
C364 C360 1.391 1_554 S
C364 C363 1.391 . S
C364 C365 1.399 . S
C365 C364 1.399 . S
C365 C368 1.396 . S
C365 C377 1.453 1_545 S
C365 C378 1.684 . S
H366 C390 0.948 . S
C367 C363 1.397 . S
C367 C368 1.394 . S
C367 C386 1.723 . S
C368 C365 1.396 . S
C368 C367 1.394 . S
C368 C398 1.723 . S
H369 C392 0.947 . S
H370 C393 0.948 . S
H371 C399 0.982 . S
H372 C400 0.979 . S
H373 C400 0.980 . S
H374 C400 0.983 . S
H375 C399 0.979 . S
H376 C399 0.977 . S
C377 C365 1.453 1_565 S
C377 H406 0.982 . S
C377 H407 0.979 . S
C377 H408 0.977 . S
C378 C365 1.684 . S
C378 H403 0.979 . S
C378 H404 0.980 . S
C378 H405 0.983 . S
C379 C380 1.391 . S
C379 C384 1.391 . S
C379 H409 0.948 . S
C380 C379 1.391 . S
C380 C381 1.391 . S
C381 C380 1.391 . S
C381 C382 1.392 . S
C381 H410 0.947 . S
C382 C381 1.392 . S
C382 C383 1.419 . S
C382 H411 0.948 . S
C383 C382 1.419 . S
C383 C384 1.391 . S
C383 C387 1.397 . S
C384 C379 1.391 . S
C384 C383 1.391 . S
C384 C385 1.399 . S
C385 C384 1.399 . S
C385 C386 1.396 . S
C385 C388 1.453 1_545 S
C385 C389 1.684 . S
C386 C367 1.723 . S
C386 C385 1.396 . S
C386 C387 1.394 . S
C387 C383 1.397 . S
C387 C386 1.394 . S
C387 C397 1.723 . S
C388 C385 1.453 1_565 S
C388 H412 0.982 . S
C388 H413 0.979 . S
C388 H414 0.977 . S
C389 C385 1.684 . S
C389 H415 0.979 . S
C389 H416 0.980 . S
C389 H417 0.983 . S
C390 H366 0.948 . S
C390 C391 1.391 . S
C390 C395 1.391 . S
C391 C390 1.391 . S
C391 C392 1.391 . S
C392 H369 0.947 . S
C392 C391 1.391 . S
C392 C393 1.392 . S
C393 H370 0.948 . S
C393 C392 1.392 . S
C393 C394 1.419 . S
C394 C393 1.419 . S
C394 C395 1.391 . S
C394 C398 1.397 . S
C395 C390 1.391 . S
C395 C394 1.391 . S
C395 C396 1.399 . S
C396 C395 1.399 . S
C396 C397 1.396 . S
C396 C399 1.453 1_545 S
C396 C400 1.684 . S
C397 C387 1.723 . S
C397 C396 1.396 . S
C397 C398 1.394 . S
C398 C368 1.723 . S
C398 C394 1.397 . S
C398 C397 1.394 . S
C399 H371 0.982 . S
C399 H375 0.979 . S
C399 H376 0.977 . S
C399 C396 1.453 1_565 S
C400 H372 0.979 . S
C400 H373 0.980 . S
C400 H374 0.983 . S
C400 C396 1.684 . S
H401 C419 0.948 . S
H402 C360 0.948 . S
H403 C378 0.979 . S
H404 C378 0.980 . S
H405 C378 0.983 . S
H406 C377 0.982 . S
H407 C377 0.979 . S
H408 C377 0.977 . S
H409 C379 0.948 . S
H410 C381 0.947 . S
H411 C382 0.948 . S
H412 C388 0.982 . S
H413 C388 0.979 . S
H414 C388 0.977 . S
H415 C389 0.979 . S
H416 C389 0.980 . S
H417 C389 0.983 . S
H418 C362 0.947 . S
C419 C362 1.392 . S
C419 C363 1.419 . S
C419 H401 0.948 . S
C420 C421 1.391 1_554 S
C420 C424 1.391 . S
C420 H462 0.948 1_554 S
C421 C420 1.391 1_556 S
C421 C422 1.391 1_556 S
C422 C421 1.391 1_554 S
C422 H478 0.947 . S
C422 C479 1.392 . S
C423 C424 1.391 . S
C423 C427 1.397 . S
C423 C479 1.419 . S
C424 C420 1.391 . S
C424 C423 1.391 . S
C424 C425 1.399 . S
C425 C424 1.399 . S
C425 C428 1.396 . S
C425 C437 1.453 . S
C425 C438 1.684 . S
H426 C450 0.948 . S
C427 C423 1.397 . S
C427 C428 1.394 . S
C427 C446 1.723 . S
C428 C425 1.396 . S
C428 C427 1.394 . S
C428 C458 1.723 . S
H429 C452 0.947 . S
H430 C453 0.948 . S
H431 C459 0.982 . S
H432 C460 0.979 . S
H433 C460 0.980 . S
H434 C460 0.983 . S
H435 C459 0.979 . S
H436 C459 0.977 . S
C437 C425 1.453 . S
C437 H466 0.982 . S
C437 H467 0.979 . S
C437 H468 0.977 . S
C438 C425 1.684 . S
C438 H463 0.979 . S
C438 H464 0.980 . S
C438 H465 0.983 . S
C439 C440 1.391 . S
C439 C444 1.391 . S
C439 H469 0.948 . S
C440 C439 1.391 . S
C440 C441 1.391 . S
C441 C440 1.391 . S
C441 C442 1.392 . S
C441 H470 0.947 . S
C442 C441 1.392 . S
C442 C443 1.419 . S
C442 H471 0.948 . S
C443 C442 1.419 . S
C443 C444 1.391 . S
C443 C447 1.397 . S
C444 C439 1.391 . S
C444 C443 1.391 . S
C444 C445 1.399 . S
C445 C444 1.399 . S
C445 C446 1.396 . S
C445 C448 1.453 . S
C445 C449 1.684 . S
C446 C427 1.723 . S
C446 C445 1.396 . S
C446 C447 1.394 . S
C447 C443 1.397 . S
C447 C446 1.394 . S
C447 C457 1.723 . S
C448 C445 1.453 . S
C448 H472 0.982 . S
C448 H473 0.979 . S
C448 H474 0.977 . S
C449 C445 1.684 . S
C449 H475 0.979 . S
C449 H476 0.980 . S
C449 H477 0.983 . S
C450 H426 0.948 . S
C450 C451 1.391 . S
C450 C455 1.391 . S
C451 C450 1.391 . S
C451 C452 1.391 . S
C452 H429 0.947 . S
C452 C451 1.391 . S
C452 C453 1.392 . S
C453 H430 0.948 . S
C453 C452 1.392 . S
C453 C454 1.419 . S
C454 C453 1.419 . S
C454 C455 1.391 . S
C454 C458 1.397 . S
C455 C450 1.391 . S
C455 C454 1.391 . S
C455 C456 1.399 . S
C456 C455 1.399 . S
C456 C457 1.396 . S
C456 C459 1.453 . S
C456 C460 1.684 . S
C457 C447 1.723 . S
C457 C456 1.396 . S
C457 C458 1.394 . S
C458 C428 1.723 . S
C458 C454 1.397 . S
C458 C457 1.394 . S
C459 H431 0.982 . S
C459 H435 0.979 . S
C459 H436 0.977 . S
C459 C456 1.453 . S
C460 H432 0.979 . S
C460 H433 0.980 . S
C460 H434 0.983 . S
C460 C456 1.684 . S
H461 C479 0.948 . S
H462 C420 0.948 1_556 S
H463 C438 0.979 . S
H464 C438 0.980 . S
H465 C438 0.983 . S
H466 C437 0.982 . S
H467 C437 0.979 . S
H468 C437 0.977 . S
H469 C439 0.948 . S
H470 C441 0.947 . S
H471 C442 0.948 . S
H472 C448 0.982 . S
H473 C448 0.979 . S
H474 C448 0.977 . S
H475 C449 0.979 . S
H476 C449 0.980 . S
H477 C449 0.983 . S
H478 C422 0.947 . S
C479 C422 1.392 . S
C479 C423 1.419 . S
C479 H461 0.948 . S
Tb480 O483 2.453 1_665 S
Tb480 O484 2.596 1_665 S
Tb480 O485 2.374 1_655 S
Tb480 O493 2.343 . S
Tb480 O495 2.353 1_565 S
Tb480 O497 2.427 . S
Tb480 O498 2.513 . S
C481 O485 1.251 . S
C481 O487 1.263 . S
Tb482 O484 2.343 . S
Tb482 O487 2.353 1_545 S
Tb482 O490 2.427 . S
Tb482 O491 2.513 . S
Tb482 O492 2.453 1_545 S
Tb482 O493 2.596 1_445 S
Tb482 O494 2.374 1_455 S
O483 Tb480 2.453 1_445 S
O483 C499 1.245 . S
O484 Tb480 2.596 1_445 S
O484 Tb482 2.343 . S
O484 C499 1.259 . S
O485 Tb480 2.374 1_455 S
O485 C481 1.251 . S
C486 O490 1.275 . S
C486 O491 1.246 . S
O487 C481 1.263 . S
O487 Tb482 2.353 1_565 S
C488 O492 1.245 1_655 S
C488 O493 1.259 . S
C489 O494 1.250 . S
C489 O495 1.263 . S
O490 Tb482 2.427 . S
O490 C486 1.275 . S
O491 Tb482 2.513 . S
O491 C486 1.246 . S
O492 Tb482 2.453 1_565 S
O492 C488 1.245 1_455 S
O493 Tb480 2.343 . S
O493 Tb482 2.596 1_665 S
O493 C488 1.259 . S
O494 Tb482 2.374 1_655 S
O494 C489 1.250 . S
O495 Tb480 2.353 1_545 S
O495 C489 1.263 . S
C496 O497 1.275 . S
C496 O498 1.246 . S
O497 Tb480 2.427 . S
O497 C496 1.275 . S
O498 Tb480 2.513 . S
O498 C496 1.246 . S
C499 O483 1.245 . S
C499 O484 1.259 . S
Tb500 O503 2.453 . S
Tb500 O504 2.596 1_545 S
Tb500 O505 2.374 . S
Tb500 O513 2.343 . S
Tb500 O515 2.353 . S
Tb500 O517 2.427 . S
Tb500 O518 2.513 . S
C501 O505 1.251 . S
C501 O507 1.263 1_545 S
Tb502 O504 2.343 . S
Tb502 O507 2.353 . S
Tb502 O510 2.427 . S
Tb502 O511 2.513 . S
Tb502 O512 2.453 . S
Tb502 O513 2.596 1_565 S
Tb502 O514 2.374 . S
O503 Tb500 2.453 . S
O503 C519 1.245 . S
O504 Tb500 2.596 1_565 S
O504 Tb502 2.343 . S
O504 C519 1.259 1_565 S
O505 Tb500 2.374 . S
O505 C501 1.251 . S
C506 O510 1.275 . S
C506 O511 1.246 . S
O507 C501 1.263 1_565 S
O507 Tb502 2.353 . S
C508 O512 1.245 . S
C508 O513 1.259 1_565 S
C509 O514 1.250 1_545 S
C509 O515 1.263 . S
O510 Tb502 2.427 . S
O510 C506 1.275 . S
O511 Tb502 2.513 . S
O511 C506 1.246 . S
O512 Tb502 2.453 . S
O512 C508 1.245 . S
O513 Tb500 2.343 . S
O513 Tb502 2.596 1_545 S
O513 C508 1.259 1_545 S
O514 Tb502 2.374 . S
O514 C509 1.250 1_565 S
O515 Tb500 2.353 . S
O515 C509 1.263 . S
C516 O517 1.275 . S
C516 O518 1.246 . S
O517 Tb500 2.427 . S
O517 C516 1.275 . S
O518 Tb500 2.513 . S
O518 C516 1.246 . S
C519 O503 1.245 . S
C519 O504 1.259 1_545 S
Tb520 O523 2.453 . S
Tb520 O524 2.596 . S
Tb520 O525 2.374 . S
Tb520 O533 2.343 . S
Tb520 O535 2.353 . S
Tb520 O537 2.427 . S
Tb520 O538 2.513 . S
C521 O525 1.251 . S
C521 O527 1.263 . S
Tb522 O524 2.343 . S
Tb522 O527 2.353 . S
Tb522 O530 2.427 . S
Tb522 O531 2.513 . S
Tb522 O532 2.453 . S
Tb522 O533 2.596 . S
Tb522 O534 2.374 . S
O523 Tb520 2.453 . S
O523 C539 1.245 . S
O524 Tb520 2.596 . S
O524 Tb522 2.343 . S
O524 C539 1.259 . S
O525 Tb520 2.374 . S
O525 C521 1.251 . S
C526 O530 1.275 . S
C526 O531 1.246 . S
O527 C521 1.263 . S
O527 Tb522 2.353 . S
C528 O532 1.245 . S
C528 O533 1.259 . S
C529 O534 1.250 . S
C529 O535 1.263 . S
O530 Tb522 2.427 . S
O530 C526 1.275 . S
O531 Tb522 2.513 . S
O531 C526 1.246 . S
O532 Tb522 2.453 . S
O532 C528 1.245 . S
O533 Tb520 2.343 . S
O533 Tb522 2.596 . S
O533 C528 1.259 . S
O534 Tb522 2.374 . S
O534 C529 1.250 . S
O535 Tb520 2.353 . S
O535 C529 1.263 . S
C536 O537 1.275 . S
C536 O538 1.246 . S
O537 Tb520 2.427 . S
O537 C536 1.275 . S
O538 Tb520 2.513 . S
O538 C536 1.246 . S
C539 O523 1.245 . S
C539 O524 1.259 . S
Tb540 O543 2.453 1_655 S
Tb540 O544 2.596 1_655 S
Tb540 O545 2.374 1_655 S
Tb540 O553 2.343 . S
Tb540 O555 2.353 . S
Tb540 O557 2.427 . S
Tb540 O558 2.513 . S
C541 O545 1.251 . S
C541 O547 1.263 . S
Tb542 O544 2.343 . S
Tb542 O547 2.353 . S
Tb542 O550 2.427 . S
Tb542 O551 2.513 . S
Tb542 O552 2.453 1_455 S
Tb542 O553 2.596 1_455 S
Tb542 O554 2.378 . S
O543 Tb540 2.453 1_455 S
O543 C559 1.245 . S
O544 Tb540 2.596 1_455 S
O544 Tb542 2.343 . S
O544 C559 1.259 . S
O545 Tb540 2.374 1_455 S
O545 C541 1.251 . S
C546 O550 1.275 . S
C546 O551 1.246 . S
O547 C541 1.263 . S
O547 Tb542 2.353 . S
C548 O552 1.245 . S
C548 O553 1.259 . S
C549 O554 1.245 1_655 S
C549 O555 1.263 . S
O550 Tb542 2.427 . S
O550 C546 1.275 . S
O551 Tb542 2.513 . S
O551 C546 1.246 . S
O552 Tb542 2.453 1_655 S
O552 C548 1.245 . S
O553 Tb540 2.343 . S
O553 Tb542 2.596 1_655 S
O553 C548 1.259 . S
O554 Tb542 2.378 . S
O554 C549 1.245 1_455 S
O555 Tb540 2.353 . S
O555 C549 1.263 . S
C556 O557 1.275 . S
C556 O558 1.246 . S
O557 Tb540 2.427 . S
O557 C556 1.275 . S
O558 Tb540 2.513 . S
O558 C556 1.246 . S
C559 O543 1.245 . S
C559 O544 1.259 . S
C560 C561 1.369 . S
C560 C562 1.419 . S
C560 H564 0.930 . S
C561 C560 1.369 . S
C561 C570 1.429 1_545 S
C562 C560 1.419 . S
C562 C563 1.363 1_545 S
C562 H565 0.929 . S
C563 C562 1.363 1_565 S
C563 C569 1.428 . S
H564 C560 0.930 . S
H565 C562 0.929 . S
S566 N567 1.613 . S
S566 N568 1.610 . S
N567 S566 1.613 . S
N567 C570 1.350 . S
N568 S566 1.610 . S
N568 C569 1.351 . S
C569 C563 1.428 . S
C569 N568 1.351 . S
C569 C570 1.434 . S
C570 C561 1.429 1_565 S
C570 N567 1.350 . S
C570 C569 1.434 . S
C571 C572 1.369 . S
C571 C573 1.419 . S
C571 H575 0.930 . S
C572 C571 1.369 . S
C572 C581 1.429 . S
C573 C571 1.419 . S
C573 C574 1.363 . S
C573 H576 0.929 . S
C574 C573 1.363 . S
C574 C580 1.428 . S
H575 C571 0.930 . S
H576 C573 0.929 . S
S577 N578 1.613 . S
S577 N579 1.610 . S
N578 S577 1.613 . S
N578 C581 1.350 . S
N579 S577 1.610 . S
N579 C580 1.351 . S
C580 C574 1.428 . S
C580 N579 1.351 . S
C580 C581 1.434 . S
C581 C572 1.429 . S
C581 N578 1.350 . S
C581 C580 1.434 . S
C582 C583 1.369 . S
C582 C584 1.419 . S
C582 H586 0.930 . S
C583 C582 1.369 . S
C583 C592 1.429 . S
C584 C582 1.419 . S
C584 C585 1.363 . S
C584 H587 0.929 . S
C585 C584 1.363 . S
C585 C591 1.428 . S
H586 C582 0.930 . S
H587 C584 0.929 . S
S588 N589 1.613 . S
S588 N590 1.610 . S
N589 S588 1.613 . S
N589 C592 1.350 . S
N590 S588 1.610 . S
N590 C591 1.351 . S
C591 C585 1.428 . S
C591 N590 1.351 . S
C591 C592 1.434 . S
C592 C583 1.429 . S
C592 N589 1.350 . S
C592 C591 1.434 . S
C593 C594 1.369 . S
C593 C595 1.419 . S
C593 H597 0.930 . S
C594 C593 1.369 . S
C594 C603 1.429 . S
C595 C593 1.419 . S
C595 C596 1.363 . S
C595 H598 0.929 . S
C596 C595 1.363 . S
C596 C602 1.428 . S
H597 C593 0.930 . S
H598 C595 0.929 . S
S599 N600 1.613 . S
S599 N601 1.610 . S
N600 S599 1.613 . S
N600 C603 1.350 . S
N601 S599 1.610 . S
N601 C602 1.351 . S
C602 C596 1.428 . S
C602 N601 1.351 . S
C602 C603 1.434 . S
C603 C594 1.429 . S
C603 N600 1.350 . S
C603 C602 1.434 . S
C604 C605 1.369 . S
C604 C606 1.419 . S
C604 H608 0.930 . S
C605 C604 1.369 . S
C605 C614 1.429 1_545 S
C606 C604 1.419 . S
C606 C607 1.363 . S
C606 H609 0.929 . S
C607 C606 1.363 . S
C607 C613 1.428 1_545 S
H608 C604 0.930 . S
H609 C606 0.929 . S
S610 N611 1.613 . S
S610 N612 1.610 1_554 S
N611 S610 1.613 . S
N611 C614 1.350 1_554 S
N612 S610 1.610 1_556 S
N612 C613 1.351 . S
C613 C607 1.428 1_565 S
C613 N612 1.351 . S
C613 C614 1.434 . S
C614 C605 1.429 1_565 S
C614 N611 1.350 1_556 S
C614 C613 1.434 . S
C615 C616 1.369 . S
C615 C617 1.419 . S
C615 H619 0.930 . S
C616 C615 1.369 . S
C616 C625 1.429 . S
C617 C615 1.419 . S
C617 C618 1.363 . S
C617 H620 0.929 . S
C618 C617 1.363 . S
C618 C624 1.428 . S
H619 C615 0.930 . S
H620 C617 0.929 . S
S621 N622 1.613 . S
S621 N623 1.610 1_554 S
N622 S621 1.613 . S
N622 C625 1.350 1_554 S
N623 S621 1.610 1_556 S
N623 C624 1.351 . S
C624 C618 1.428 . S
C624 N623 1.351 . S
C624 C625 1.434 . S
C625 C616 1.429 . S
C625 N622 1.350 1_556 S
C625 C624 1.434 . S
C626 C627 1.369 . S
C626 C628 1.419 . S
C626 H630 0.930 . S
C627 C626 1.369 . S
C627 C636 1.429 . S
C628 C626 1.419 . S
C628 C629 1.363 . S
C628 H631 0.929 . S
C629 C628 1.363 . S
C629 C635 1.428 . S
H630 C626 0.930 . S
H631 C628 0.929 . S
S632 N633 1.613 . S
S632 N634 1.610 1_554 S
N633 S632 1.613 . S
N633 C636 1.350 1_554 S
N634 S632 1.610 1_556 S
N634 C635 1.351 . S
C635 C629 1.428 . S
C635 N634 1.351 . S
C635 C636 1.434 . S
C636 C627 1.429 . S
C636 N633 1.350 1_556 S
C636 C635 1.434 . S
C637 C638 1.369 . S
C637 C639 1.419 . S
C637 H641 0.930 . S
C638 C637 1.369 . S
C638 C647 1.429 . S
C639 C637 1.419 . S
C639 C640 1.363 . S
C639 H642 0.929 . S
C640 C639 1.363 . S
C640 C646 1.428 . S
H641 C637 0.930 . S
H642 C639 0.929 . S
S643 N644 1.613 . S
S643 N645 1.610 . S
N644 S643 1.613 . S
N644 C647 1.350 . S
N645 S643 1.610 . S
N645 C646 1.351 . S
C646 C640 1.428 . S
C646 N645 1.351 . S
C646 C647 1.434 . S
C647 C638 1.429 . S
C647 N644 1.350 . S
C647 C646 1.434 . S
C648 C649 1.369 . S
C648 C650 1.419 . S
C648 H652 0.930 . S
C649 C648 1.369 . S
C649 C658 1.429 . S
C650 C648 1.419 . S
C650 C651 1.363 . S
C650 H653 0.929 . S
C651 C650 1.363 . S
C651 C657 1.428 . S
H652 C648 0.930 . S
H653 C650 0.929 . S
S654 N655 1.613 . S
S654 N656 1.610 . S
N655 S654 1.613 . S
N655 C658 1.350 . S
N656 S654 1.610 . S
N656 C657 1.351 . S
C657 C651 1.428 . S
C657 N656 1.351 . S
C657 C658 1.434 . S
C658 C649 1.429 . S
C658 N655 1.350 . S
C658 C657 1.434 . S
C659 C660 1.369 1_565 S
C659 C661 1.419 . S
C659 H663 0.930 . S
C660 C659 1.369 1_545 S
C660 C669 1.429 . S
C661 C659 1.419 . S
C661 C662 1.361 . S
C661 H664 0.929 . S
C662 C661 1.361 . S
C662 C668 1.431 1_565 S
H663 C659 0.930 . S
H664 C661 0.929 . S
S665 N666 1.613 . S
S665 N667 1.610 . S
N666 S665 1.613 . S
N666 C669 1.350 . S
N667 S665 1.610 . S
N667 C668 1.351 . S
C668 C662 1.431 1_545 S
C668 N667 1.351 . S
C668 C669 1.434 . S
C669 C660 1.429 . S
C669 N666 1.350 . S
C669 C668 1.434 . S
C670 C671 1.369 . S
C670 C672 1.419 . S
C670 H674 0.930 . S
C671 C670 1.369 . S
C671 C680 1.429 . S
C672 C670 1.419 . S
C672 C673 1.363 . S
C672 H675 0.929 . S
C673 C672 1.363 . S
C673 C679 1.428 . S
H674 C670 0.930 . S
H675 C672 0.929 . S
S676 N677 1.613 . S
S676 N678 1.610 . S
N677 S676 1.613 . S
N677 C680 1.350 . S
N678 S676 1.610 . S
N678 C679 1.351 . S
C679 C673 1.428 . S
C679 N678 1.351 . S
C679 C680 1.434 . S
C680 C671 1.429 . S
C680 N677 1.350 . S
C680 C679 1.434 . S
C681 C682 1.369 . S
C681 C683 1.419 . S
C681 H685 0.930 . S
C682 C681 1.369 . S
C682 C691 1.429 . S
C683 C681 1.419 . S
C683 C684 1.363 . S
C683 H686 0.929 . S
C684 C683 1.363 . S
C684 C690 1.428 . S
H685 C681 0.930 . S
H686 C683 0.929 . S
S687 N688 1.613 . S
S687 N689 1.610 . S
N688 S687 1.613 . S
N688 C691 1.350 . S
N689 S687 1.610 . S
N689 C690 1.351 . S
C690 C684 1.428 . S
C690 N689 1.351 . S
C690 C691 1.434 . S
C691 C682 1.429 . S
C691 N688 1.350 . S
C691 C690 1.434 . S
C692 C693 1.369 . S
C692 C694 1.419 . S
C692 H696 0.930 . S
C693 C692 1.369 . S
C693 C702 1.429 . S
C694 C692 1.419 . S
C694 C695 1.363 . S
C694 H697 0.929 . S
C695 C694 1.363 . S
C695 C701 1.428 . S
H696 C692 0.930 . S
H697 C694 0.929 . S
S698 N699 1.613 . S
S698 N700 1.610 . S
N699 S698 1.613 . S
N699 C702 1.350 . S
N700 S698 1.610 . S
N700 C701 1.351 . S
C701 C695 1.428 . S
C701 N700 1.351 . S
C701 C702 1.434 . S
C702 C693 1.429 . S
C702 N699 1.350 . S
C702 C701 1.434 . S
C703 C704 1.348 1_565 S
C703 C705 1.419 . S
C703 H707 0.930 . S
C704 C703 1.348 1_545 S
C704 C713 1.456 . S
C705 C703 1.419 . S
C705 C706 1.363 1_565 S
C705 H708 0.929 . S
C706 C705 1.363 1_545 S
C706 C712 1.428 . S
H707 C703 0.930 . S
H708 C705 0.929 . S
S709 N710 1.613 . S
S709 N711 1.610 . S
N710 S709 1.613 . S
N710 C713 1.350 . S
N711 S709 1.610 . S
N711 C712 1.351 . S
C712 C706 1.428 . S
C712 N711 1.351 . S
C712 C713 1.434 . S
C713 C704 1.456 . S
C713 N710 1.350 . S
C713 C712 1.434 . S
C714 C715 1.369 . S
C714 C716 1.419 . S
C714 H718 0.930 . S
C715 C714 1.369 . S
C715 C724 1.429 . S
C716 C714 1.419 . S
C716 C717 1.363 . S
C716 H719 0.929 . S
C717 C716 1.363 . S
C717 C723 1.428 . S
H718 C714 0.930 . S
H719 C716 0.929 . S
S720 N721 1.613 . S
S720 N722 1.610 . S
N721 S720 1.613 . S
N721 C724 1.350 . S
N722 S720 1.610 . S
N722 C723 1.351 . S
C723 C717 1.428 . S
C723 N722 1.351 . S
C723 C724 1.434 . S
C724 C715 1.429 . S
C724 N721 1.350 . S
C724 C723 1.434 . S
C725 C726 1.369 . S
C725 C727 1.419 . S
C725 H729 0.930 . S
C726 C725 1.369 . S
C726 C735 1.429 . S
C727 C725 1.419 . S
C727 C728 1.363 . S
C727 H730 0.929 . S
C728 C727 1.363 . S
C728 C734 1.428 . S
H729 C725 0.930 . S
H730 C727 0.929 . S
S731 N732 1.613 . S
S731 N733 1.610 . S
N732 S731 1.613 . S
N732 C735 1.350 . S
N733 S731 1.610 . S
N733 C734 1.351 . S
C734 C728 1.428 . S
C734 N733 1.351 . S
C734 C735 1.434 . S
C735 C726 1.429 . S
C735 N732 1.350 . S
C735 C734 1.434 . S
C736 C737 1.369 1_554 S
C736 C738 1.419 1_554 S
C736 H740 0.930 . S
C737 C736 1.369 1_556 S
C737 C746 1.429 . S
C738 C736 1.419 1_556 S
C738 C739 1.363 . S
C738 H741 0.929 1_556 S
C739 C738 1.363 . S
C739 C745 1.428 . S
H740 C736 0.930 . S
H741 C738 0.929 1_554 S
S742 N743 1.613 . S
S742 N744 1.610 . S
N743 S742 1.613 . S
N743 C746 1.350 . S
N744 S742 1.610 . S
N744 C745 1.351 . S
C745 C739 1.428 . S
C745 N744 1.351 . S
C745 C746 1.434 . S
C746 C737 1.429 . S
C746 N743 1.350 . S
C746 C745 1.434 . S
C747 C748 1.369 . S
C747 C749 1.419 . S
C747 H751 0.930 . S
C748 C747 1.369 . S
C748 C757 1.429 1_545 S
C749 C747 1.419 . S
C749 C750 1.363 . S
C749 H752 0.929 . S
C750 C749 1.363 . S
C750 C756 1.428 1_545 S
H751 C747 0.930 . S
H752 C749 0.929 . S
S753 N754 1.613 . S
S753 N755 1.610 . S
N754 S753 1.613 . S
N754 C757 1.350 . S
N755 S753 1.610 . S
N755 C756 1.351 . S
C756 C750 1.428 1_565 S
C756 N755 1.351 . S
C756 C757 1.434 . S
C757 C748 1.429 1_565 S
C757 N754 1.350 . S
C757 C756 1.434 . S
C758 C759 1.369 . S
C758 C760 1.419 . S
C758 H762 0.930 . S
C759 C758 1.369 . S
C759 C768 1.429 . S
C760 C758 1.419 . S
C760 C761 1.363 . S
C760 H763 0.929 . S
C761 C760 1.363 . S
C761 C767 1.428 . S
H762 C758 0.930 . S
H763 C760 0.929 . S
S764 N765 1.613 . S
S764 N766 1.610 . S
N765 S764 1.613 . S
N765 C768 1.350 . S
N766 S764 1.610 . S
N766 C767 1.351 . S
C767 C761 1.428 . S
C767 N766 1.351 . S
C767 C768 1.434 . S
C768 C759 1.429 . S
C768 N765 1.350 . S
C768 C767 1.434 . S
C769 C770 1.369 . S
C769 C771 1.419 . S
C769 H773 0.930 . S
C770 C769 1.369 . S
C770 C779 1.429 . S
C771 C769 1.419 . S
C771 C772 1.363 . S
C771 H774 0.929 . S
C772 C771 1.363 . S
C772 C778 1.428 . S
H773 C769 0.930 . S
H774 C771 0.929 . S
S775 N776 1.613 . S
S775 N777 1.610 . S
N776 S775 1.613 . S
N776 C779 1.350 . S
N777 S775 1.610 . S
N777 C778 1.351 . S
C778 C772 1.428 . S
C778 N777 1.351 . S
C778 C779 1.434 . S
C779 C770 1.429 . S
C779 N776 1.350 . S
C779 C778 1.434 . S
C780 C781 1.369 . S
C780 C782 1.419 . S
C780 H784 0.930 . S
C781 C780 1.369 . S
C781 C790 1.429 . S
C782 C780 1.419 . S
C782 C783 1.363 . S
C782 H785 0.929 . S
C783 C782 1.363 . S
C783 C789 1.428 . S
H784 C780 0.930 . S
H785 C782 0.929 . S
S786 N787 1.613 . S
S786 N788 1.610 . S
N787 S786 1.613 . S
N787 C790 1.350 . S
N788 S786 1.610 . S
N788 C789 1.351 . S
C789 C783 1.428 . S
C789 N788 1.351 . S
C789 C790 1.434 . S
C790 C781 1.429 . S
C790 N787 1.350 . S
C790 C789 1.434 . S
C791 C792 1.366 1_565 S
C791 C793 1.419 . S
C791 H795 0.930 . S
C792 C791 1.366 1_545 S
C792 C801 1.433 . S
C793 C791 1.419 . S
C793 C794 1.358 1_565 S
C793 H796 0.929 . S
C794 C793 1.358 1_545 S
C794 C800 1.433 . S
H795 C791 0.930 . S
H796 C793 0.929 . S
S797 N798 1.613 . S
S797 N799 1.610 . S
N798 S797 1.613 . S
N798 C801 1.350 . S
N799 S797 1.610 . S
N799 C800 1.351 . S
C800 C794 1.433 . S
C800 N799 1.351 . S
C800 C801 1.434 . S
C801 C792 1.433 . S
C801 N798 1.350 . S
C801 C800 1.434 . S
C802 C803 1.369 . S
C802 C804 1.419 . S
C802 H806 0.930 . S
C803 C802 1.369 . S
C803 C812 1.429 . S
C804 C802 1.419 . S
C804 C805 1.363 . S
C804 H807 0.929 . S
C805 C804 1.363 . S
C805 C811 1.428 . S
H806 C802 0.930 . S
H807 C804 0.929 . S
S808 N809 1.613 . S
S808 N810 1.610 . S
N809 S808 1.613 . S
N809 C812 1.350 . S
N810 S808 1.610 . S
N810 C811 1.351 . S
C811 C805 1.428 . S
C811 N810 1.351 . S
C811 C812 1.434 . S
C812 C803 1.429 . S
C812 N809 1.350 . S
C812 C811 1.434 . S
C813 C814 1.369 . S
C813 C815 1.419 . S
C813 H817 0.930 . S
C814 C813 1.369 . S
C814 C823 1.429 . S
C815 C813 1.419 . S
C815 C816 1.363 . S
C815 H818 0.929 . S
C816 C815 1.363 . S
C816 C822 1.428 . S
H817 C813 0.930 . S
H818 C815 0.929 . S
S819 N820 1.613 . S
S819 N821 1.610 . S
N820 S819 1.613 . S
N820 C823 1.350 . S
N821 S819 1.610 . S
N821 C822 1.351 . S
C822 C816 1.428 . S
C822 N821 1.351 . S
C822 C823 1.434 . S
C823 C814 1.429 . S
C823 N820 1.350 . S
C823 C822 1.434 . S
C561 C391 1.663 . S
C563 C481 1.642 . S
C574 C516 2.348 . S
C572 C451 2.240 . S
C585 C521 1.539 . S
C583 C241 1.442 . S
C596 C541 2.096 . S
C594 C331 1.762 . S
C607 C489 1.638 . S
C605 C121 1.511 1_546 S
C616 C211 2.086 1_556 S
C618 C506 2.349 . S
C627 C31 1.602 . S
C629 C529 1.532 . S
C638 C91 1.916 . S
C640 C549 2.096 . S
C651 C499 1.971 . S
C649 C301 1.476 . S
C662 C508 0.969 . S
C660 C380 0.973 . S
C673 C539 2.059 . S
C671 C440 1.879 . S
C682 C260 1.073 . S
C684 C559 1.211 . S
C693 C61 1.665 . S
C695 C488 1.972 . S
C706 C519 0.964 . S
C704 C140 0.894 1_545 S
C717 C528 2.059 . S
C715 C200 1.686 . S
C726 C20 1.204 . S
C728 C548 1.216 . S
C737 C320 2.094 1_556 S
C739 C486 2.302 . S
C748 C361 1.707 . S
C750 C509 2.127 . S
C761 C526 2.497 . S
C759 C421 2.104 . S
C772 C546 2.226 . S
C770 C271 2.124 1_556 S
C781 C80 2.203 . S
C783 C496 2.302 . S
C794 C501 2.131 . S
C792 C151 1.999 1_545 S
C805 C536 2.496 . S
C803 C181 1.967 . S
C814 C1 1.856 . S
C816 C556 2.224 . S
