# Generated by pormake.
# Topology pyr, (3,6)-cn, num edge types: 1
# Building blocks:
#     Node 0, Type 0, BuildingBlock: BETDIP_clean_linker_0, # of connection points: 3
#     Node 1, Type 0, BuildingBlock: BETDIP_clean_linker_0, # of connection points: 3
#     Node 2, Type 0, BuildingBlock: BETDIP_clean_linker_0, # of connection points: 3
#     Node 3, Type 0, BuildingBlock: BETDIP_clean_linker_0, # of connection points: 3
#     Node 4, Type 0, BuildingBlock: BETDIP_clean_linker_0, # of connection points: 3
#     Node 5, Type 0, BuildingBlock: BETDIP_clean_linker_0, # of connection points: 3
#     Node 6, Type 0, BuildingBlock: BETDIP_clean_linker_0, # of connection points: 3
#     Node 7, Type 0, BuildingBlock: BETDIP_clean_linker_0, # of connection points: 3
#     Node 8, Type 1, BuildingBlock: JUFBIX_clean_sbu_0, # of connection points: 6
#     Node 9, Type 1, BuildingBlock: JUFBIX_clean_sbu_0, # of connection points: 6
#     Node 10, Type 1, BuildingBlock: JUFBIX_clean_sbu_0, # of connection points: 6
#     Node 11, Type 1, BuildingBlock: JUFBIX_clean_sbu_0, # of connection points: 6
#     Edge 12, Type (0, 1), BuildingBlock: XUDNAN_clean_linker_2, # of connection points: 2
#     Edge 13, Type (0, 1), BuildingBlock: XUDNAN_clean_linker_2, # of connection points: 2
#     Edge 14, Type (0, 1), BuildingBlock: XUDNAN_clean_linker_2, # of connection points: 2
#     Edge 15, Type (0, 1), BuildingBlock: XUDNAN_clean_linker_2, # of connection points: 2
#     Edge 16, Type (0, 1), BuildingBlock: XUDNAN_clean_linker_2, # of connection points: 2
#     Edge 17, Type (0, 1), BuildingBlock: XUDNAN_clean_linker_2, # of connection points: 2
#     Edge 18, Type (0, 1), BuildingBlock: XUDNAN_clean_linker_2, # of connection points: 2
#     Edge 19, Type (0, 1), BuildingBlock: XUDNAN_clean_linker_2, # of connection points: 2
#     Edge 20, Type (0, 1), BuildingBlock: XUDNAN_clean_linker_2, # of connection points: 2
#     Edge 21, Type (0, 1), BuildingBlock: XUDNAN_clean_linker_2, # of connection points: 2
#     Edge 22, Type (0, 1), BuildingBlock: XUDNAN_clean_linker_2, # of connection points: 2
#     Edge 23, Type (0, 1), BuildingBlock: XUDNAN_clean_linker_2, # of connection points: 2
#     Edge 24, Type (0, 1), BuildingBlock: XUDNAN_clean_linker_2, # of connection points: 2
#     Edge 25, Type (0, 1), BuildingBlock: XUDNAN_clean_linker_2, # of connection points: 2
#     Edge 26, Type (0, 1), BuildingBlock: XUDNAN_clean_linker_2, # of connection points: 2
#     Edge 27, Type (0, 1), BuildingBlock: XUDNAN_clean_linker_2, # of connection points: 2
#     Edge 28, Type (0, 1), BuildingBlock: XUDNAN_clean_linker_2, # of connection points: 2
#     Edge 29, Type (0, 1), BuildingBlock: XUDNAN_clean_linker_2, # of connection points: 2
#     Edge 30, Type (0, 1), BuildingBlock: XUDNAN_clean_linker_2, # of connection points: 2
#     Edge 31, Type (0, 1), BuildingBlock: XUDNAN_clean_linker_2, # of connection points: 2
#     Edge 32, Type (0, 1), BuildingBlock: XUDNAN_clean_linker_2, # of connection points: 2
#     Edge 33, Type (0, 1), BuildingBlock: XUDNAN_clean_linker_2, # of connection points: 2
#     Edge 34, Type (0, 1), BuildingBlock: XUDNAN_clean_linker_2, # of connection points: 2
#     Edge 35, Type (0, 1), BuildingBlock: XUDNAN_clean_linker_2, # of connection points: 2
# Relax obj value: 0.162
# Max RMSD: 0.200
# Mean RMSD: 0.129
data_MOF--net-pyr--node1-JUFBIX_clean_sbu_0--node2-BETDIP_clean_linker_0--edge1-XUDNAN_clean_linker_2
_symmetry_space_group_name_H-M    P1
_symmetry_Int_Tables_number       1
_symmetry_cell_setting            triclinic
loop_
_symmetry_equiv_pos_as_xyz
'x, y, z'
_cell_length_a     36.915493
_cell_length_b     34.05199
_cell_length_c     38.257527
_cell_angle_alpha  87.544593
_cell_angle_beta   86.14195
_cell_angle_gamma 97.603029
loop_
_atom_site_label
_atom_site_type_symbol
_atom_site_fract_x
_atom_site_fract_y
_atom_site_fract_z
_atom_type_partial_charge
H0 H 0.15429 0.17685 0.24126 0.0
H1 H 0.23512 0.18716 0.15352 0.0
H2 H 0.24237 0.10569 0.24172 0.0
H3 H 0.203 0.23966 0.13292 0.0
C4 C 0.17879 0.24102 0.15032 0.0
C5 C 0.17844 0.16712 0.22862 0.0
C6 C 0.19607 0.13862 0.24629 0.0
C7 C 0.19185 0.18504 0.19543 0.0
C8 C 0.22423 0.17342 0.17873 0.0
C9 C 0.24325 0.14473 0.19542 0.0
C10 C 0.22846 0.12781 0.22903 0.0
N11 N 0.17151 0.21477 0.18121 0.0
H12 H 0.41182 0.93784 0.66241 0.0
H13 H 0.43065 0.83978 0.60019 0.0
H14 H 0.45002 0.83534 0.70985 0.0
H15 H 0.39183 0.8637 0.56442 0.0
C16 C 0.38384 0.89086 0.57446 0.0
C17 C 0.42087 0.90895 0.66034 0.0
C18 C 0.43106 0.88892 0.6902 0.0
C19 C 0.41964 0.8912 0.62819 0.0
C20 C 0.43129 0.85384 0.62501 0.0
C21 C 0.44295 0.83384 0.65426 0.0
C22 C 0.44246 0.85135 0.68694 0.0
N23 N 0.40329 0.91046 0.60093 0.0
H24 H 0.74926 0.43334 0.86053 0.0
H25 H 0.65665 0.34641 0.84583 0.0
H26 H 0.72696 0.32685 0.92786 0.0
H27 H 0.63416 0.39906 0.82297 0.0
C28 C 0.65779 0.41341 0.8066 0.0
C29 C 0.73286 0.40509 0.86806 0.0
C30 C 0.74148 0.3822 0.89736 0.0
C31 C 0.70196 0.39251 0.84942 0.0
C32 C 0.68032 0.35617 0.85991 0.0
C33 C 0.68884 0.33214 0.88826 0.0
C34 C 0.71964 0.34542 0.90648 0.0
N35 N 0.6934 0.41615 0.8199 0.0
H36 H 0.92697 0.56346 0.4798 0.0
H37 H 0.02033 0.64596 0.43957 0.0
H38 H 0.93815 0.68423 0.51002 0.0
H39 H 0.04417 0.58457 0.42401 0.0
C40 C 1.01795 0.57248 0.4149 0.0
C41 C 0.94318 0.5924 0.48019 0.0
C42 C 0.92902 0.62267 0.49811 0.0
C43 C 0.97623 0.60017 0.45943 0.0
C44 C 0.99588 0.63872 0.45715 0.0
C45 C 0.98249 0.66877 0.47615 0.0
C46 C 0.94944 0.66041 0.49694 0.0
N47 N 0.98545 0.57024 0.43717 0.0
H48 H 0.79328 0.8639 0.92006 0.0
H49 H 0.88166 0.85694 0.84278 0.0
H50 H 0.79931 0.93136 0.82084 0.0
H51 H 0.89095 0.8024 0.87231 0.0
C52 C 0.87911 0.802 0.89905 0.0
C53 C 0.807 0.87324 0.89457 0.0
C54 C 0.79195 0.90059 0.87251 0.0
C55 C 0.83872 0.85626 0.88391 0.0
C56 C 0.85648 0.86819 0.85049 0.0
C57 C 0.84263 0.89493 0.82683 0.0
C58 C 0.81036 0.91106 0.83848 0.0
N59 N 0.85174 0.82746 0.90739 0.0
H60 H 0.64285 0.12443 0.38834 0.0
H61 H 0.63056 0.22347 0.4514 0.0
H62 H 0.60274 0.22749 0.34399 0.0
H63 H 0.66844 0.19805 0.4859 0.0
C64 C 0.6752 0.17013 0.47648 0.0
C65 C 0.63456 0.15361 0.39098 0.0
C66 C 0.62232 0.17356 0.36205 0.0
C67 C 0.63872 0.17158 0.42279 0.0
C68 C 0.62782 0.20917 0.42684 0.0
C69 C 0.61417 0.22922 0.39871 0.0
C70 C 0.61182 0.21148 0.36614 0.0
N71 N 0.65685 0.152 0.44862 0.0
H72 H 0.29737 0.62205 0.23045 0.0
H73 H 0.39524 0.70662 0.2129 0.0
H74 H 0.31168 0.70386 0.13988 0.0
H75 H 0.41968 0.65583 0.23804 0.0
C76 C 0.40024 0.64623 0.26032 0.0
C77 C 0.31359 0.64612 0.21467 0.0
C78 C 0.30011 0.66092 0.18365 0.0
C79 C 0.34839 0.66142 0.22501 0.0
C80 C 0.36903 0.69345 0.20481 0.0
C81 C 0.35627 0.7086 0.17385 0.0
C82 C 0.32198 0.69182 0.16336 0.0
N83 N 0.36199 0.6447 0.2558 0.0
H84 H 0.04121 0.38261 0.63739 0.0
H85 H 0.13183 0.47487 0.61176 0.0
H86 H 0.1344 0.35918 0.57215 0.0
H87 H 0.11125 0.50218 0.65822 0.0
C88 C 0.08498 0.4868 0.66887 0.0
C89 C 0.06724 0.39315 0.623 0.0
C90 C 0.0853 0.36692 0.60327 0.0
C91 C 0.08374 0.43204 0.62657 0.0
C92 C 0.1183 0.44513 0.60906 0.0
C93 C 0.13676 0.41892 0.58946 0.0
C94 C 0.11984 0.37998 0.58628 0.0
N95 N 0.06655 0.45516 0.65109 0.0
Co96 Co 0.99777 0.02386 0.52519 0.0
C97 C 1.01533 0.94846 0.51477 0.0
Co98 Co 0.04658 0.01077 0.55108 0.0
C99 C 0.92864 0.05291 0.51841 0.0
C100 C 0.94623 0.02507 0.47232 0.0
N101 N 0.95588 0.03418 0.50464 0.0
N102 N 0.90229 0.05589 0.49596 0.0
C103 C 0.91332 0.03832 0.46691 0.0
H104 H 0.92817 0.06395 0.54453 0.0
H105 H 0.96229 0.01008 0.45376 0.0
C106 C 0.02956 0.08615 0.56139 0.0
N107 N 0.08861 1.00049 0.57128 0.0
C108 C 0.11628 0.98349 0.55614 0.0
C109 C 0.09867 1.00855 0.6037 0.0
N110 N 0.14334 0.98063 0.57775 0.0
C111 C 0.13236 0.99644 0.60774 0.0
C112 C 0.06267 0.04392 0.48044 0.0
O113 O 1.00402 0.0759 0.54168 0.0
O114 O 0.05142 0.06188 0.56914 0.0
O115 O 0.07613 0.03183 0.50822 0.0
O116 O 0.02793 0.04339 0.48145 0.0
O117 O 0.04148 0.95977 0.53339 0.0
H118 H 0.08256 0.02236 0.6231 0.0
H119 H 0.11676 0.97398 0.5295 0.0
O120 O 0.99213 0.9717 0.50822 0.0
O121 O 0.96781 1.00395 0.56963 0.0
O122 O 1.01703 0.98953 0.59334 0.0
C123 C 0.98249 0.99015 0.59612 0.0
H124 H 0.89911 0.03597 0.4431 0.0
H125 H 0.14735 0.99866 0.6311 0.0
Co126 Co 0.49697 0.01781 1.00894 0.0
C127 C 0.49257 0.95461 0.05968 0.0
Co128 Co 0.53436 0.0281 0.05113 0.0
C129 C 0.4694 1.00171 0.94057 0.0
C130 C 0.42722 0.99614 0.98242 0.0
N131 N 0.46373 1.00568 0.97545 0.0
N132 N 0.43777 0.99039 0.92567 0.0
C133 C 0.41124 0.98699 0.95196 0.0
H134 H 0.49613 1.00674 0.92642 0.0
H135 H 0.41308 0.99473 1.00823 0.0
C136 C 0.53909 0.08999 0.99822 0.0
N137 N 0.56797 0.04058 0.08455 0.0
C138 C 0.56342 0.04656 0.11928 0.0
C139 C 0.60439 0.04942 0.07654 0.0
N140 N 0.59573 0.05819 0.13301 0.0
C141 C 0.62141 0.05991 0.1061 0.0
C142 C 0.56677 0.99241 0.99206 0.0
O143 O 0.51315 0.06763 0.98601 0.0
O144 O 0.55166 0.07901 0.02674 0.0
O145 O 0.57195 1.00384 0.02288 0.0
O146 O 0.53538 0.99531 0.98064 0.0
O147 O 0.51672 0.97674 0.07487 0.0
H148 H 0.61784 0.04968 0.05053 0.0
H149 H 0.53705 0.04288 0.13409 0.0
O150 O 0.48123 0.96755 0.03138 0.0
O151 O 0.45887 0.04102 0.03772 0.0
O152 O 0.49656 0.05184 0.07883 0.0
C153 C 0.46478 0.05389 0.06797 0.0
H154 H 0.38244 0.97718 0.94955 0.0
H155 H 0.65042 0.06952 0.10741 0.0
Co156 Co 0.55978 0.55109 0.5228 0.0
C157 C 0.50712 0.56163 0.47701 0.0
Co158 Co 0.50829 0.51278 0.53925 0.0
C159 C 0.63698 0.57136 0.51572 0.0
C160 C 0.61053 0.6221 0.50409 0.0
N161 N 0.60386 0.5827 0.5118 0.0
N162 N 0.66417 0.60213 0.51182 0.0
C163 C 0.64768 0.63416 0.50405 0.0
H164 H 0.64076 0.54111 0.52261 0.0
H165 H 0.5896 0.64109 0.50067 0.0
C166 C 0.56274 0.50408 0.58488 0.0
N167 N 0.46434 0.48092 0.55062 0.0
C168 C 0.43056 0.49135 0.54845 0.0
C169 C 0.45879 0.44189 0.55994 0.0
N170 N 0.40389 0.46031 0.55571 0.0
C171 C 0.42169 0.42912 0.56308 0.0
C172 C 0.55532 0.47744 0.49426 0.0
O173 O 0.57983 0.52956 0.56244 0.0
O174 O 0.52932 0.49129 0.58063 0.0
O175 O 0.52466 0.47214 0.51213 0.0
O176 O 0.57568 0.51053 0.49485 0.0
O177 O 0.48784 0.53509 0.49751 0.0
H178 H 0.48034 0.4237 0.56326 0.0
H179 H 0.42586 0.52123 0.54133 0.0
O180 O 0.54002 0.57275 0.48362 0.0
O181 O 0.54359 0.5915 0.55037 0.0
O182 O 0.49212 0.55334 0.56656 0.0
C183 C 0.51258 0.58625 0.56763 0.0
H184 H 0.66113 0.66443 0.50047 0.0
H185 H 0.40907 0.3989 0.56926 0.0
Co186 Co 0.0326 0.52535 0.02195 0.0
C187 C 0.96031 0.48437 0.02161 0.0
Co188 Co 0.99916 0.52386 0.07173 0.0
C189 C 0.05122 0.50796 0.95013 0.0
C190 C 0.08486 0.55896 0.96637 0.0
N191 N 0.05865 0.52915 0.97843 0.0
N192 N 0.07117 0.52378 0.92078 0.0
C193 C 0.09268 0.55568 0.9311 0.0
H194 H 0.03036 0.48242 0.95071 0.0
H195 H 0.09583 0.58323 0.98154 0.0
C196 C 0.07031 0.56455 0.07421 0.0
N197 N 0.97436 0.52095 0.11555 0.0
C198 C 0.99065 0.51515 0.14544 0.0
C199 C 0.93946 0.52472 0.12595 0.0
N200 N 0.96778 0.51546 0.17435 0.0
C201 C 0.93533 0.52149 0.1622 0.0
C202 C 0.04273 0.4601 0.06607 0.0
O203 O 0.07452 0.55531 0.04243 0.0
O204 O 0.03903 0.55509 0.09024 0.0
O205 O 1.01966 0.47623 0.08497 0.0
O206 O 0.05245 0.47587 0.03535 0.0
O207 O 0.95917 0.49286 0.05364 0.0
H208 H 0.91863 0.53011 0.10843 0.0
H209 H 1.01941 0.5122 0.14579 0.0
O210 O 0.98998 0.49513 1.00255 0.0
O211 O 1.01263 0.5746 1.00872 0.0
O212 O 0.97862 0.57136 0.05808 0.0
C213 C 0.98834 0.5887 0.02802 0.0
H214 H 0.11084 0.57688 0.914 0.0
H215 H 0.9105 0.52389 0.17819 0.0
H216 H 0.12327 0.12416 0.2774 0.0
H217 H 0.2355 0.11564 0.30111 0.0
H218 H 0.21361 0.09079 0.36119 0.0
H219 H 0.09412 0.15834 0.36214 0.0
H220 H 0.04884 0.13067 0.36395 0.0
H221 H 0.07278 0.14677 0.32213 0.0
H222 H 0.0649 0.07443 0.30299 0.0
H223 H 0.0409 0.05811 0.34475 0.0
H224 H 0.08078 0.03638 0.32991 0.0
H225 H 0.17976 0.06757 0.42039 0.0
H226 H 0.13737 0.04734 0.4724 0.0
H227 H 0.0458 0.07118 0.41308 0.0
C228 C 0.14349 0.11731 0.29509 0.0
C229 C 0.18161 0.12198 0.28334 0.0
C230 C 0.20632 0.11189 0.30817 0.0
C231 C 0.19408 0.09794 0.34287 0.0
C232 C 0.15668 0.09393 0.35335 0.0
C233 C 0.13166 0.10328 0.33016 0.0
C234 C 0.0929 0.09637 0.34844 0.0
C235 C 0.07617 0.13536 0.3492 0.0
C236 C 0.06842 0.06442 0.33044 0.0
C237 C 0.10002 0.08181 0.38549 0.0
C238 C 0.13712 0.0807 0.38757 0.0
C239 C 0.15071 0.0684 0.41884 0.0
C240 C 0.12615 0.05689 0.44852 0.0
C241 C 0.08777 0.05745 0.4476 0.0
C242 C 0.07477 0.07028 0.41522 0.0
H243 H 0.4788 0.89421 0.7431 0.0
H244 H 0.37245 0.92219 0.71591 0.0
H245 H 0.36458 0.95387 0.77198 0.0
H246 H 0.45278 0.8709 0.83538 0.0
H247 H 0.4962 0.89243 0.8497 0.0
H248 H 0.494 0.87227 0.80701 0.0
H249 H 0.52565 0.93959 0.77852 0.0
H250 H 0.52762 0.96003 0.82113 0.0
H251 H 0.5058 0.98416 0.78703 0.0
H252 H 0.36738 0.982 0.83021 0.0
H253 H 0.37973 1.00283 0.88965 0.0
H254 H 0.48388 0.95681 0.88083 0.0
C255 C 0.45384 0.90686 0.74911 0.0
C256 C 0.42646 0.90625 0.72491 0.0
C257 C 0.39414 0.92308 0.73369 0.0
C258 C 0.38932 0.94102 0.76554 0.0
C259 C 0.41701 0.94183 0.78849 0.0
C260 C 0.44856 0.92506 0.78095 0.0
C261 C 0.47364 0.92964 0.8108 0.0
C262 C 0.47948 0.88888 0.82666 0.0
C263 C 0.51035 0.95486 0.79863 0.0
C264 C 0.45109 0.95142 0.8362 0.0
C265 C 0.41859 0.95816 0.82261 0.0
C266 C 0.39272 0.97692 0.84121 0.0
C267 C 0.3999 0.98853 0.87494 0.0
C268 C 0.43267 0.98139 0.8898 0.0
C269 C 0.45884 0.96311 0.8699 0.0
H270 H 0.59239 0.40957 0.77659 0.0
H271 H 0.70785 0.45404 0.7563 0.0
H272 H 0.69562 0.48007 0.69744 0.0
H273 H 0.5767 0.37918 0.68856 0.0
H274 H 0.53152 0.39383 0.68895 0.0
H275 H 0.54919 0.37856 0.7294 0.0
H276 H 0.53784 0.44501 0.75577 0.0
H277 H 0.52004 0.46043 0.71545 0.0
H278 H 0.55747 0.49111 0.73291 0.0
H279 H 0.67084 0.50178 0.64122 0.0
H280 H 0.636 0.5188 0.59168 0.0
H281 H 0.53549 0.46008 0.64701 0.0
C282 C 0.61509 0.42485 0.75972 0.0
C283 C 0.65114 0.42985 0.77113 0.0
C284 C 0.68009 0.44988 0.74828 0.0
C285 C 0.67334 0.46471 0.71474 0.0
C286 C 0.63752 0.4592 0.70432 0.0
C287 C 0.60882 0.43976 0.72611 0.0
C288 C 0.57285 0.43802 0.7085 0.0
C289 C 0.55661 0.39483 0.70356 0.0
C290 C 0.54544 0.45995 0.7294 0.0
C291 C 0.5857 0.4598 0.6734 0.0
C292 C 0.62316 0.4716 0.67168 0.0
C293 C 0.64155 0.49261 0.64234 0.0
C294 C 0.62131 0.50216 0.61421 0.0
C295 C 0.58277 0.49087 0.61511 0.0
C296 C 0.56484 0.469 0.64522 0.0
H297 H 0.96112 0.57286 0.37318 0.0
H298 H 0.07022 0.53961 0.3768 0.0
H299 H 0.06627 0.51469 0.31695 0.0
H300 H 0.92112 0.49254 0.32185 0.0
H301 H 0.89601 0.52437 0.2968 0.0
H302 H 0.90585 0.53547 0.34109 0.0
H303 H 0.93723 0.60573 0.31942 0.0
H304 H 0.92727 0.59494 0.27517 0.0
H305 H 0.9738 0.6108 0.28517 0.0
H306 H 0.05009 0.4938 0.25717 0.0
H307 H 0.02761 0.48688 0.19859 0.0
H308 H 0.93141 0.5405 0.23215 0.0
C309 C 0.9839 0.55965 0.36158 0.0
C310 C 1.01572 0.55721 0.3796 0.0
C311 C 0.04553 0.54118 0.36331 0.0
C312 C 0.0434 0.52684 0.32954 0.0
C313 C 1.01151 0.52954 0.31246 0.0
C314 C 0.98255 0.54614 0.3277 0.0
C315 C 0.95296 0.54921 0.30254 0.0
C316 C 0.91685 0.52388 0.31641 0.0
C317 C 0.94752 0.59275 0.29513 0.0
C318 C 0.9699 0.53197 0.27057 0.0
C319 C 1.00329 0.52008 0.27712 0.0
C320 C 0.02418 0.50343 0.25162 0.0
C321 C 1.01119 0.49997 0.2182 0.0
C322 C 0.978 0.51404 0.21014 0.0
C323 C 0.95677 0.52935 0.23715 0.0
H324 H 0.26485 0.12322 0.12657 0.0
H325 H 0.30596 0.14121 0.22904 0.0
H326 H 0.36511 0.12172 0.20758 0.0
H327 H 0.30957 0.03601 0.10933 0.0
H328 H 0.32019 0.0484 0.06318 0.0
H329 H 0.28108 0.06529 0.08563 0.0
H330 H 0.30608 0.13767 0.0651 0.0
H331 H 0.34525 0.12096 0.04255 0.0
H332 H 0.35174 0.15801 0.07465 0.0
H333 H 0.42115 0.09995 0.17539 0.0
H334 H 0.46806 0.07585 0.13603 0.0
H335 H 0.39304 0.06832 0.05323 0.0
C336 C 0.2864 0.1234 0.14442 0.0
C337 C 0.27997 0.13402 0.17994 0.0
C338 C 0.30934 0.13314 0.20205 0.0
C339 C 0.34341 0.12213 0.18996 0.0
C340 C 0.34866 0.11146 0.1553 0.0
C341 C 0.32094 0.1118 0.13275 0.0
C342 C 0.33394 0.09767 0.09697 0.0
C343 C 0.30975 0.05958 0.08826 0.0
C344 C 0.33426 0.13054 0.0681 0.0
C345 C 0.37309 0.08948 0.10297 0.0
C346 C 0.38089 0.09798 0.13686 0.0
C347 C 0.41511 0.09321 0.14884 0.0
C348 C 0.44187 0.0794 0.12603 0.0
C349 C 0.43504 0.06985 0.09106 0.0
C350 C 0.39972 0.07516 0.07961 0.0
H351 H 0.34933 0.95041 0.60225 0.0
H352 H 0.33717 0.85688 0.52868 0.0
H353 H 0.27457 0.87183 0.51895 0.0
H354 H 0.26054 0.93072 0.6426 0.0
H355 H 0.25539 0.98194 0.64868 0.0
H356 H 0.30027 0.96662 0.64702 0.0
H357 H 0.32234 0.01888 0.59619 0.0
H358 H 0.27758 0.03465 0.59789 0.0
H359 H 0.2974 0.01913 0.55727 0.0
H360 H 0.21187 0.89451 0.52046 0.0
H361 H 0.15447 0.92304 0.53271 0.0
H362 H 0.20839 1.00089 0.60591 0.0
C363 C 0.33387 0.93346 0.58359 0.0
C364 C 0.34813 0.90259 0.56596 0.0
C365 C 0.32672 0.88084 0.54218 0.0
C366 C 0.29121 0.88909 0.53656 0.0
C367 C 0.27768 0.9192 0.55496 0.0
C368 C 0.29845 0.94113 0.57787 0.0
C369 C 0.27701 0.9704 0.5959 0.0
C370 C 0.27307 0.96189 0.63591 0.0
C371 C 0.29464 0.01331 0.58622 0.0
C372 C 0.24067 0.96116 0.57997 0.0
C373 C 0.24163 0.9318 0.5562 0.0
C374 C 0.21095 0.91779 0.53877 0.0
C375 C 0.1785 0.93428 0.54581 0.0
C376 C 0.17691 0.96428 0.57024 0.0
C377 C 0.20857 0.9778 0.58736 0.0
H378 H 0.81303 0.42034 0.87884 0.0
H379 H 0.73765 0.37791 0.96869 0.0
H380 H 0.78591 0.39672 1.00822 0.0
H381 H 0.89434 0.38921 0.91344 0.0
H382 H 0.92493 0.43257 0.8966 0.0
H383 H 0.88471 0.41596 0.87419 0.0
H384 H 0.86348 0.48512 0.87883 0.0
H385 H 0.9038 0.50194 0.90099 0.0
H386 H 0.85899 0.50591 0.92121 0.0
H387 H 0.84108 0.41842 0.03871 0.0
H388 H 0.90004 0.44638 0.05936 0.0
H389 H 0.94266 0.47738 0.95166 0.0
C390 C 0.80667 0.4153 0.90683 0.0
C391 C 0.77138 0.39683 0.92042 0.0
C392 C 0.76444 0.39096 0.95734 0.0
C393 C 0.79172 0.40175 0.98017 0.0
C394 C 0.82621 0.41885 0.96606 0.0
C395 C 0.83392 0.42607 0.93035 0.0
C396 C 0.87358 0.44555 0.92272 0.0
C397 C 0.89569 0.41925 0.90041 0.0
C398 C 0.87504 0.4871 0.90488 0.0
C399 C 0.88665 0.44794 0.95971 0.0
C400 C 0.85864 0.43214 0.98409 0.0
C401 C 0.86323 0.43096 0.0199 0.0
C402 C 0.89703 0.44695 0.03137 0.0
C403 C 0.92632 0.46416 1.00731 0.0
C404 C 0.92107 0.46416 0.9708 0.0
H405 H 0.87765 0.669 0.48215 0.0
H406 H 0.89274 0.56221 0.54212 0.0
H407 H 0.82569 0.54851 0.55694 0.0
H408 H 0.79891 0.69608 0.53762 0.0
H409 H 0.77731 0.7125 0.49978 0.0
H410 H 0.82656 0.71693 0.49895 0.0
H411 H 0.82762 0.67702 0.44279 0.0
H412 H 0.77847 0.67201 0.44365 0.0
H413 H 0.80133 0.62841 0.44334 0.0
H414 H 0.75716 0.5436 0.56027 0.0
H415 H 0.69226 0.54676 0.55167 0.0
H416 H 0.72251 0.65535 0.48659 0.0
C417 C 0.86698 0.64354 0.49952 0.0
C418 C 0.89022 0.61703 0.5117 0.0
C419 C 0.87523 0.58304 0.53301 0.0
C420 C 0.83732 0.57515 0.54156 0.0
C421 C 0.81505 0.60149 0.52838 0.0
C422 C 0.82936 0.63507 0.50789 0.0
C423 C 0.79948 0.65642 0.49394 0.0
C424 C 0.80064 0.69794 0.50845 0.0
C425 C 0.80188 0.65856 0.45355 0.0
C426 C 0.76601 0.62907 0.50903 0.0
C427 C 0.77555 0.5979 0.52921 0.0
C428 C 0.74938 0.56798 0.54468 0.0
C429 C 0.71251 0.56985 0.53924 0.0
C430 C 0.7021 0.60118 0.51811 0.0
C431 C 0.72938 0.63129 0.50317 0.0
H432 H 0.18401 0.29687 0.09368 0.0
H433 H 0.1157 0.25479 0.18804 0.0
H434 H 0.07443 0.30414 0.17554 0.0
H435 H 0.17465 0.40141 0.10021 0.0
H436 H 0.17295 0.41124 0.05372 0.0
H437 H 0.19734 0.37234 0.06947 0.0
H438 H 0.15853 0.32191 0.03374 0.0
H439 H 0.13398 0.36065 0.01793 0.0
H440 H 0.10924 0.31632 0.04004 0.0
H441 H 0.04043 0.35899 0.15383 0.0
H442 H 1.01618 0.41479 0.12497 0.0
H443 H 0.1045 0.42374 0.04295 0.0
C444 C 0.1603 0.29799 0.11168 0.0
C445 C 0.15344 0.27141 0.14203 0.0
C446 C 0.12198 0.2743 0.16472 0.0
C447 C 0.09819 0.30245 0.15777 0.0
C448 C 0.10571 0.32804 0.12784 0.0
C449 C 0.13599 0.32616 0.10505 0.0
C450 C 0.13758 0.3576 0.07484 0.0
C451 C 0.17272 0.38741 0.07455 0.0
C452 C 0.13466 0.33794 0.03954 0.0
C453 C 0.10357 0.37746 0.08427 0.0
C454 C 0.08576 0.35972 0.11504 0.0
C455 C 0.05418 0.37287 0.12967 0.0
C456 C 0.04052 0.40488 0.11288 0.0
C457 C 0.05792 0.42417 0.08127 0.0
C458 C 0.09002 0.40976 0.06675 0.0
H459 H 0.67194 0.29575 0.95514 0.0
H460 H 0.65226 0.27959 0.84552 0.0
H461 H 0.60991 0.21903 0.86265 0.0
H462 H 0.67345 0.1905 0.97646 0.0
H463 H 0.65217 0.19221 0.02007 0.0
H464 H 0.67995 0.23565 0.99957 0.0
H465 H 0.62569 0.27591 1.00955 0.0
H466 H 0.59762 0.23249 0.02975 0.0
H467 H 0.58224 0.25865 0.9928 0.0
H468 H 0.56765 0.1618 0.89122 0.0
H469 H 0.5342 0.10634 0.92863 0.0
H470 H 0.58533 0.15425 0.01949 0.0
C471 C 0.65921 0.27936 0.93455 0.0
C472 C 0.66516 0.29353 0.89886 0.0
C473 C 0.64747 0.27071 0.87312 0.0
C474 C 0.62346 0.23587 0.88255 0.0
C475 C 0.61778 0.22337 0.91783 0.0
C476 C 0.63567 0.24388 0.94342 0.0
C477 C 0.62577 0.22272 0.9793 0.0
C478 C 0.65987 0.20948 0.99475 0.0
C479 C 0.6067 0.24902 1.00432 0.0
C480 C 0.59935 0.18733 0.9698 0.0
C481 C 0.59484 0.18875 0.93422 0.0
C482 C 0.57118 0.16018 0.91907 0.0
C483 C 0.55208 0.12886 0.94067 0.0
C484 C 0.55705 0.12582 0.97707 0.0
C485 C 0.58096 0.15568 0.99179 0.0
H486 H 1.01707 0.71603 0.52257 0.0
H487 H 0.97973 0.71546 0.41774 0.0
H488 H 0.98896 0.78888 0.41389 0.0
H489 H 0.97397 0.79051 0.55172 0.0
H490 H 1.00948 0.81397 0.57697 0.0
H491 H 1.00701 0.762 0.56934 0.0
H492 H 0.07382 0.77239 0.54172 0.0
H493 H 0.07698 0.82439 0.55011 0.0
H494 H 0.08698 0.80927 0.50633 0.0
H495 H 0.98926 0.86053 0.4268 0.0
H496 H 0.99146 0.92688 0.45144 0.0
H497 H 0.03306 0.88123 0.54612 0.0
C498 C 1.0127 0.73156 0.49824 0.0
C499 C 0.9985 0.71058 0.47015 0.0
C500 C 0.99157 0.73138 0.43907 0.0
C501 C 0.99645 0.77296 0.43682 0.0
C502 C 1.00892 0.79299 0.46564 0.0
C503 C 1.01809 0.77303 0.49536 0.0
C504 C 0.02846 0.80136 0.52358 0.0
C505 C 1.00322 0.79135 0.55738 0.0
C506 C 0.06897 0.80189 0.53085 0.0
C507 C 0.02195 0.84004 0.50579 0.0
C508 C 1.01059 0.83466 0.47242 0.0
C509 C 0.99919 0.86538 0.45245 0.0
C510 C 1.00013 0.90274 0.46674 0.0
C511 C 1.01279 0.90896 0.50039 0.0
C512 C 0.02396 0.87728 0.52 0.0
H513 H 0.49292 0.8105 0.60637 0.0
H514 H 0.41479 0.76634 0.69334 0.0
H515 H 0.42628 0.69764 0.68269 0.0
H516 H 0.46983 0.73454 0.55003 0.0
H517 H 0.51601 0.73223 0.53249 0.0
H518 H 0.5038 0.7779 0.54872 0.0
H519 H 0.55575 0.78036 0.59124 0.0
H520 H 0.56834 0.73479 0.57491 0.0
H521 H 0.55762 0.73849 0.62122 0.0
H522 H 0.44109 0.63352 0.65783 0.0
H523 H 0.4627 0.57924 0.62453 0.0
H524 H 0.53386 0.66588 0.55612 0.0
C525 C 0.47873 0.78634 0.62348 0.0
C526 C 0.45307 0.79349 0.6507 0.0
C527 C 0.43486 0.76134 0.6726 0.0
C528 C 0.44109 0.72231 0.66663 0.0
C529 C 0.46605 0.71615 0.63904 0.0
C530 C 0.48506 0.74737 0.61823 0.0
C531 C 0.50979 0.7328 0.58984 0.0
C532 C 0.4992 0.7451 0.55311 0.0
C533 C 0.55028 0.74748 0.5946 0.0
C534 C 0.50105 0.68845 0.59732 0.0
C535 C 0.47565 0.67938 0.6257 0.0
C536 C 0.46149 0.64027 0.63599 0.0
C537 C 0.47376 0.60968 0.61686 0.0
C538 C 0.50022 0.61843 0.58808 0.0
C539 C 0.51413 0.65833 0.57844 0.0
H540 H 0.85479 0.96595 0.78224 0.0
H541 H 0.87365 0.84265 0.78528 0.0
H542 H 0.90934 0.85417 0.72861 0.0
H543 H 0.84496 0.97276 0.68616 0.0
H544 H 0.86769 0.02304 0.68012 0.0
H545 H 0.84305 1.00604 0.72145 0.0
H546 H 0.9013 0.02686 0.75369 0.0
H547 H 0.92612 0.04382 0.71246 0.0
H548 H 0.94314 1.00771 0.74062 0.0
H549 H 0.94727 0.87879 0.673 0.0
H550 H 0.98012 0.91389 0.61995 0.0
H551 H 0.93499 0.02093 0.6464 0.0
C552 C 0.86608 0.94122 0.77089 0.0
C553 C 0.86165 0.90334 0.78971 0.0
C554 C 0.87716 0.87225 0.77297 0.0
C555 C 0.89748 0.8784 0.74023 0.0
C556 C 0.90215 0.91589 0.72309 0.0
C557 C 0.88649 0.94678 0.73744 0.0
C558 C 0.89584 0.98401 0.71262 0.0
C559 C 0.86079 0.99725 0.6993 0.0
C560 C 0.91791 0.0176 0.73095 0.0
C561 C 0.91939 0.96919 0.68255 0.0
C562 C 0.9227 0.92973 0.68956 0.0
C563 C 0.94434 0.90952 0.66709 0.0
C564 C 0.96303 0.92979 0.63683 0.0
C565 C 0.95994 0.97004 0.62819 0.0
C566 C 0.93747 0.98994 0.65157 0.0
H567 H 0.57044 0.16771 0.31237 0.0
H568 H 0.67841 0.13888 0.333 0.0
H569 H 0.68077 0.10335 0.27857 0.0
H570 H 0.53747 0.07585 0.27452 0.0
H571 H 0.51378 0.0983 0.24088 0.0
H572 H 0.51968 0.12189 0.28178 0.0
H573 H 0.55115 0.18644 0.24827 0.0
H574 H 0.5449 0.1632 0.20727 0.0
H575 H 0.59005 0.18442 0.21759 0.0
H576 H 0.67189 0.06976 0.22385 0.0
H577 H 0.65461 0.04482 0.16706 0.0
H578 H 0.55319 0.09602 0.17845 0.0
C579 C 0.59463 0.15418 0.30518 0.0
C580 C 0.62395 0.15543 0.32736 0.0
C581 C 0.65523 0.13748 0.31697 0.0
C582 C 0.65691 0.1173 0.28602 0.0
C583 C 0.62727 0.11554 0.26534 0.0
C584 C 0.59689 0.13385 0.27401 0.0
C585 C 0.56936 0.12786 0.24621 0.0
C586 C 0.53291 0.10459 0.26179 0.0
C587 C 0.56353 0.16786 0.2288 0.0
C588 C 0.58917 0.10337 0.22076 0.0
C589 C 0.6224 0.09653 0.23268 0.0
C590 C 0.64605 0.07508 0.21406 0.0
C591 C 0.63603 0.06109 0.18182 0.0
C592 C 0.60274 0.06868 0.16825 0.0
C593 C 0.57862 0.08945 0.18836 0.0
H594 H 0.37731 0.59132 0.31712 0.0
H595 H 0.46016 0.68946 0.28042 0.0
H596 H 0.49293 0.68062 0.33348 0.0
H597 H 0.37952 0.60841 0.41286 0.0
H598 H 0.37501 0.55631 0.42558 0.0
H599 H 0.35501 0.57254 0.38666 0.0
H600 H 0.39088 0.52635 0.34992 0.0
H601 H 0.4111 0.51015 0.38865 0.0
H602 H 0.44003 0.53085 0.35071 0.0
H603 H 0.51925 0.65991 0.38699 0.0
H604 H 0.53928 0.62759 0.43924 0.0
H605 H 0.442 0.53973 0.44403 0.0
C606 C 0.40182 0.61146 0.32089 0.0
C607 C 0.41593 0.64167 0.2949 0.0
C608 C 0.44873 0.66653 0.30011 0.0
C609 C 0.46755 0.66174 0.3302 0.0
C610 C 0.45359 0.63147 0.35499 0.0
C611 C 0.42157 0.60658 0.35091 0.0
C612 C 0.41465 0.57467 0.38084 0.0
C613 C 0.37892 0.5782 0.40279 0.0
C614 C 0.41414 0.53304 0.36667 0.0
C615 C 0.448 0.58542 0.40184 0.0
C616 C 0.4697 0.61857 0.3863 0.0
C617 C 0.50243 0.63405 0.39955 0.0
C618 C 0.51364 0.61521 0.42935 0.0
C619 C 0.49243 0.58087 0.44603 0.0
C620 C 0.45882 0.56599 0.43213 0.0
H621 H 0.1264 0.52446 0.71651 0.0
H622 H 1.01921 0.45884 0.70512 0.0
H623 H 1.00386 0.46133 0.76881 0.0
H624 H 0.14163 0.47582 0.79676 0.0
H625 H 0.16489 0.51939 0.81485 0.0
H626 H 0.16651 0.51508 0.76805 0.0
H627 H 0.14051 0.58178 0.76051 0.0
H628 H 0.13918 0.58651 0.80728 0.0
H629 H 0.09819 0.58834 0.78453 0.0
H630 H 1.00117 0.46906 0.83401 0.0
H631 H 1.01039 0.48328 0.89556 0.0
H632 H 0.12064 0.54104 0.86449 0.0
C633 C 0.09948 0.51125 0.7274 0.0
C634 C 0.07393 0.49164 0.70604 0.0
C635 C 0.03916 0.47407 0.72112 0.0
C636 C 0.03022 0.4753 0.75723 0.0
C637 C 0.05641 0.49406 0.77776 0.0
C638 C 0.09028 0.51186 0.76338 0.0
C639 C 0.11402 0.52876 0.79133 0.0
C640 C 0.14881 0.50854 0.79283 0.0
C641 C 0.12352 0.57404 0.78556 0.0
C642 C 0.08824 0.51765 0.8237 0.0
C643 C 0.05515 0.49773 0.81533 0.0
C644 C 0.02702 0.48457 0.8409 0.0
C645 C 0.03271 0.49248 0.87592 0.0
C646 C 0.06637 0.51322 0.88511 0.0
C647 C 0.09449 0.52551 0.85847 0.0
H648 H 0.76634 0.92146 0.9398 0.0
H649 H 0.73423 0.9144 0.83299 0.0
H650 H 0.67496 0.93596 0.85165 0.0
H651 H 0.67701 0.88602 0.98339 0.0
H652 H 0.68154 0.91941 0.01862 0.0
H653 H 0.72176 0.90373 0.99713 0.0
H654 H 0.74927 0.97697 0.98306 0.0
H655 H 0.70918 0.99286 1.0046 0.0
H656 H 0.72331 0.00953 0.95981 0.0
H657 H 0.61644 0.95627 0.8828 0.0
H658 H 0.56739 0.97736 0.92186 0.0
H659 H 0.63636 0.97421 1.00908 0.0
C660 C 0.74694 0.92435 0.92018 0.0
C661 C 0.75594 0.91597 0.88446 0.0
C662 C 0.72914 0.92089 0.86019 0.0
C663 C 0.69491 0.93294 0.87072 0.0
C664 C 0.68702 0.94065 0.90589 0.0
C665 C 0.7125 0.93691 0.93024 0.0
C666 C 0.69726 0.94774 0.96636 0.0
C667 C 0.69422 0.9121 0.99295 0.0
C668 C 0.72118 0.98392 0.97922 0.0
C669 C 0.65922 0.95786 0.95866 0.0
C670 C 0.65385 0.95326 0.92357 0.0
C671 C 0.62071 0.96008 0.91023 0.0
C672 C 0.59269 0.97206 0.93286 0.0
C673 C 0.59726 0.97777 0.96898 0.0
C674 C 0.63142 0.97037 0.98178 0.0
H675 H 0.70564 0.10535 0.45388 0.0
H676 H 0.71969 0.20072 0.52546 0.0
H677 H 0.7782 0.17915 0.54158 0.0
H678 H 0.74597 0.03173 0.50638 0.0
H679 H 0.76725 0.01257 0.46811 0.0
H680 H 0.725 0.03323 0.4652 0.0
H681 H 0.75546 0.08191 0.41445 0.0
H682 H 0.79783 0.06167 0.41736 0.0
H683 H 0.79699 0.11413 0.42113 0.0
H684 H 0.83747 0.14989 0.54621 0.0
H685 H 0.89224 0.11563 0.5392 0.0
H686 H 0.83856 0.03975 0.46442 0.0
C687 C 0.72059 0.12135 0.47343 0.0
C688 C 0.70808 0.15465 0.48864 0.0
C689 C 0.72878 0.17497 0.51375 0.0
C690 C 0.76198 0.16294 0.52301 0.0
C691 C 0.77393 0.13046 0.50695 0.0
C692 C 0.75373 0.10985 0.48283 0.0
C693 C 0.77345 0.07743 0.4678 0.0
C694 C 0.75162 0.03631 0.47747 0.0
C695 C 0.7814 0.08422 0.42783 0.0
C696 C 0.8083 0.08349 0.48667 0.0
C697 C 0.80799 0.11393 0.50939 0.0
C698 C 0.83781 0.1257 0.5288 0.0
C699 C 0.86877 0.10593 0.52474 0.0
C700 C 0.86979 0.07488 0.50128 0.0
C701 C 0.83888 0.0635 0.48232 0.0
H702 H 0.27896 0.64099 0.11756 0.0
H703 H 0.23623 0.64653 0.22545 0.0
H704 H 0.17374 0.62489 0.20824 0.0
H705 H 0.2034 0.67605 0.0762 0.0
H706 H 0.20385 0.64276 0.04083 0.0
H707 H 0.24555 0.65873 0.06119 0.0
H708 H 0.25416 0.58556 0.07477 0.0
H709 H 0.21264 0.56937 0.05422 0.0
H710 H 0.21774 0.55267 0.09875 0.0
H711 H 0.11586 0.60528 0.17957 0.0
H712 H 0.06623 0.58254 0.14281 0.0
H713 H 0.14481 0.58621 0.05248 0.0
C714 C 0.25642 0.63763 0.13755 0.0
C715 C 0.26267 0.64553 0.17302 0.0
C716 C 0.23238 0.64033 0.19832 0.0
C717 C 0.19668 0.62831 0.1887 0.0
C718 C 0.19147 0.62116 0.15363 0.0
C719 C 0.22048 0.62508 0.12844 0.0
C720 C 0.20711 0.61436 0.09274 0.0
C721 C 0.21548 0.65011 0.06617 0.0
C722 C 0.22391 0.57835 0.07933 0.0
C723 C 0.16602 0.60403 0.10179 0.0
C724 C 0.15782 0.6086 0.13707 0.0
C725 C 0.12201 0.60141 0.15198 0.0
C726 C 0.09387 0.58854 0.13062 0.0
C727 C 0.10124 0.58241 0.09446 0.0
C728 C 0.13803 0.59068 0.07987 0.0
H729 H 0.19392 0.37905 0.60225 0.0
H730 H 0.16706 0.48557 0.54961 0.0
H731 H 0.23304 0.50668 0.53259 0.0
H732 H 0.27279 0.42483 0.63852 0.0
H733 H 0.29807 0.38332 0.63381 0.0
H734 H 0.24879 0.37511 0.63882 0.0
H735 H 0.24709 0.3381 0.581 0.0
H736 H 0.29643 0.34602 0.57589 0.0
H737 H 0.27023 0.36233 0.54128 0.0
H738 H 0.3022 0.51659 0.52316 0.0
H739 H 0.36873 0.51605 0.52338 0.0
H740 H 0.34954 0.40439 0.58548 0.0
C741 C 0.20189 0.40637 0.58643 0.0
C742 C 0.17556 0.43046 0.57666 0.0
C743 C 0.18698 0.46666 0.55702 0.0
C744 C 0.22427 0.47876 0.54724 0.0
C745 C 0.24961 0.45443 0.55763 0.0
C746 C 0.23887 0.41904 0.57687 0.0
C747 C 0.27149 0.39951 0.58675 0.0
C748 C 0.27285 0.39548 0.62685 0.0
C749 C 0.27129 0.3591 0.57023 0.0
C750 C 0.30239 0.42955 0.57026 0.0
C751 C 0.28927 0.46082 0.55332 0.0
C752 C 0.31277 0.49228 0.53644 0.0
C753 C 0.35067 0.49182 0.537 0.0
C754 C 0.36482 0.46029 0.55469 0.0
C755 C 0.34004 0.42878 0.57138 0.0
H756 H 0.92941 0.75009 0.88731 0.0
H757 H 0.8569 0.78644 0.96999 0.0
H758 H 0.87759 0.73751 1.01156 0.0
H759 H 0.91639 0.64542 0.91318 0.0
H760 H 0.96334 0.6389 0.90193 0.0
H761 H 0.94307 0.67687 0.87904 0.0
H762 H 0.99521 0.72976 0.89557 0.0
H763 H 1.01559 0.69195 0.91857 0.0
H764 H 1.00419 0.73463 0.94103 0.0
H765 H 0.90645 0.68268 0.04449 0.0
H766 H 0.93949 0.62858 0.06509 0.0
H767 H 0.99417 0.62752 0.96125 0.0
C768 C 0.91786 0.74784 0.91422 0.0
C769 C 0.89133 0.7725 0.92516 0.0
C770 C 0.8771 0.76825 0.96068 0.0
C771 C 0.88881 0.74038 0.98456 0.0
C772 C 0.91496 0.7166 0.97286 0.0
C773 C 0.9293 0.72013 0.93841 0.0
C774 C 0.95692 0.69094 0.93231 0.0
C775 C 0.94416 0.66128 0.90499 0.0
C776 C 0.99525 0.71315 0.92121 0.0
C777 C 0.95599 0.6703 0.96863 0.0
C778 C 0.93157 0.68555 0.99165 0.0
C779 C 0.92564 0.67082 0.02653 0.0
C780 C 0.94473 0.63989 0.03808 0.0
C781 C 0.96993 0.62341 1.01515 0.0
C782 C 0.97553 0.63933 0.97983 0.0
H783 H 0.39344 0.77901 0.19477 0.0
H784 H 0.37073 0.71204 0.10289 0.0
H785 H 0.40718 0.76567 0.06532 0.0
H786 H 0.38662 0.87412 0.15462 0.0
H787 H 0.42315 0.90049 0.17686 0.0
H788 H 0.39719 0.85588 0.19717 0.0
H789 H 0.45716 0.82524 0.20317 0.0
H790 H 0.48332 0.86976 0.18274 0.0
H791 H 0.48758 0.82238 0.16474 0.0
H792 H 0.44306 0.82654 0.03731 0.0
H793 H 0.47473 0.89314 0.01944 0.0
H794 H 0.47595 0.92318 0.12851 0.0
C795 C 0.39657 0.77549 0.16678 0.0
C796 C 0.37913 0.74119 0.15176 0.0
C797 C 0.38344 0.73806 0.11497 0.0
C798 C 0.40435 0.76827 0.09343 0.0
C799 C 0.42092 0.80166 0.10895 0.0
C800 C 0.41728 0.80568 0.14472 0.0
C801 C 0.43664 0.84577 0.15417 0.0
C802 C 0.40926 0.87052 0.17174 0.0
C803 C 0.46804 0.84046 0.1776 0.0
C804 C 0.45129 0.86377 0.11804 0.0
C805 C 0.44199 0.83742 0.09252 0.0
C806 C 0.45073 0.84729 0.05705 0.0
C807 C 0.46873 0.88529 0.04718 0.0
C808 C 0.47808 0.91335 0.07253 0.0
C809 C 0.46981 0.90215 0.10859 0.0
H810 H 0.06217 0.32195 0.54941 0.0
H811 H 0.07806 0.31662 0.6606 0.0
H812 H 0.06168 0.24365 0.66292 0.0
H813 H 0.98287 0.24131 0.55456 0.0
H814 H 0.99691 0.22306 0.51294 0.0
H815 H 1.00727 0.27505 0.5207 0.0
H816 H 0.07612 0.27184 0.50469 0.0
H817 H 0.06605 0.21987 0.49717 0.0
H818 H 0.09894 0.23628 0.52802 0.0
H819 H 0.05241 0.17163 0.65129 0.0
H820 H 0.04307 0.10462 0.62794 0.0
H821 H 0.02714 0.15652 0.52561 0.0
C822 C 0.06136 0.30529 0.57428 0.0
C823 C 0.07104 0.32442 0.60491 0.0
C824 C 0.07023 0.30214 0.63705 0.0
C825 C 0.06109 0.26084 0.63856 0.0
C826 C 0.05219 0.2426 0.60779 0.0
C827 C 0.05146 0.2641 0.57639 0.0
C828 C 0.04163 0.23706 0.54707 0.0
C829 C 1.00499 0.24457 0.533 0.0
C830 C 0.07254 0.24154 0.51751 0.0
C831 C 0.03822 0.19699 0.56664 0.0
C832 C 0.04464 0.20088 0.60159 0.0
C833 C 0.04641 0.16812 0.62421 0.0
C834 C 0.0413 0.13033 0.61076 0.0
C835 C 0.03387 0.12579 0.57529 0.0
C836 C 0.03193 0.15943 0.55307 0.0
H837 H 0.56698 0.25296 0.44902 0.0
H838 H 0.64211 0.297 0.35982 0.0
H839 H 0.6338 0.36603 0.3731 0.0
H840 H 0.50445 0.32851 0.43951 0.0
H841 H 0.49614 0.33084 0.4863 0.0
H842 H 0.50619 0.28529 0.46795 0.0
H843 H 0.56002 0.28396 0.50794 0.0
H844 H 0.55042 0.32969 0.5261 0.0
H845 H 0.59547 0.32599 0.50631 0.0
H846 H 0.62264 0.43029 0.40076 0.0
H847 H 0.60394 0.48441 0.43623 0.0
H848 H 0.5333 0.3978 0.50509 0.0
C849 C 0.58108 0.27719 0.43192 0.0
C850 C 0.60506 0.26987 0.40333 0.0
C851 C 0.62328 0.30213 0.38158 0.0
C852 C 0.61888 0.34135 0.38907 0.0
C853 C 0.5957 0.34763 0.41804 0.0
C854 C 0.57653 0.31636 0.43869 0.0
C855 C 0.55382 0.33097 0.46864 0.0
C856 C 0.51271 0.31815 0.46539 0.0
C857 C 0.56566 0.31681 0.50435 0.0
C858 C 0.56383 0.37535 0.46218 0.0
C859 C 0.58819 0.38445 0.43301 0.0
C860 C 0.60307 0.42351 0.42326 0.0
C861 C 0.59248 0.45402 0.44365 0.0
C862 C 0.56693 0.44529 0.47314 0.0
C863 C 0.55244 0.40541 0.48233 0.0
loop_
_geom_bond_atom_site_label_1
_geom_bond_atom_site_label_2
_geom_bond_distance
_geom_bond_site_symmetry_2
_ccdc_geom_bond_type
H0 C5 0.930 . S
H1 C8 0.930 . S
H2 C10 0.930 . S
H3 C4 1.016 . S
C4 H3 1.016 . S
C4 N11 1.286 . S
C5 H0 0.930 . S
C5 C6 1.397 . S
C5 C7 1.361 . S
C6 C5 1.397 . S
C6 C10 1.390 . S
C7 C5 1.361 . S
C7 C8 1.393 . S
C7 N11 1.413 . S
C8 H1 0.930 . S
C8 C7 1.393 . S
C8 C9 1.399 . S
C9 C8 1.399 . S
C9 C10 1.381 . S
C10 H2 0.930 . S
C10 C6 1.390 . S
C10 C9 1.381 . S
N11 C4 1.286 . S
N11 C7 1.413 . S
H12 C17 0.930 . S
H13 C20 0.930 . S
H14 C22 0.930 . S
H15 C16 1.016 . S
C16 H15 1.016 . S
C16 N23 1.286 . S
C17 H12 0.930 . S
C17 C18 1.397 . S
C17 C19 1.361 . S
C18 C17 1.397 . S
C18 C22 1.390 . S
C19 C17 1.361 . S
C19 C20 1.393 . S
C19 N23 1.413 . S
C20 H13 0.930 . S
C20 C19 1.393 . S
C20 C21 1.399 . S
C21 C20 1.399 . S
C21 C22 1.381 . S
C22 H14 0.930 . S
C22 C18 1.390 . S
C22 C21 1.381 . S
N23 C16 1.286 . S
N23 C19 1.413 . S
H24 C29 0.930 . S
H25 C32 0.930 . S
H26 C34 0.930 . S
H27 C28 1.016 . S
C28 H27 1.016 . S
C28 N35 1.286 . S
C29 H24 0.930 . S
C29 C30 1.397 . S
C29 C31 1.361 . S
C30 C29 1.397 . S
C30 C34 1.390 . S
C31 C29 1.361 . S
C31 C32 1.393 . S
C31 N35 1.413 . S
C32 H25 0.930 . S
C32 C31 1.393 . S
C32 C33 1.399 . S
C33 C32 1.399 . S
C33 C34 1.381 . S
C34 H26 0.930 . S
C34 C30 1.390 . S
C34 C33 1.381 . S
N35 C28 1.286 . S
N35 C31 1.413 . S
H36 C41 0.930 . S
H37 C44 0.930 . S
H38 C46 0.930 . S
H39 C40 1.016 . S
C40 H39 1.016 . S
C40 N47 1.286 . S
C41 H36 0.930 . S
C41 C42 1.397 . S
C41 C43 1.361 . S
C42 C41 1.397 . S
C42 C46 1.390 . S
C43 C41 1.361 . S
C43 C44 1.393 . S
C43 N47 1.413 . S
C44 H37 0.930 . S
C44 C43 1.393 . S
C44 C45 1.399 . S
C45 C44 1.399 . S
C45 C46 1.381 . S
C46 H38 0.930 . S
C46 C42 1.390 . S
C46 C45 1.381 . S
N47 C40 1.286 . S
N47 C43 1.413 . S
H48 C53 0.930 . S
H49 C56 0.930 . S
H50 C58 0.930 . S
H51 C52 1.016 . S
C52 H51 1.016 . S
C52 N59 1.286 . S
C53 H48 0.930 . S
C53 C54 1.397 . S
C53 C55 1.361 . S
C54 C53 1.397 . S
C54 C58 1.390 . S
C55 C53 1.361 . S
C55 C56 1.393 . S
C55 N59 1.413 . S
C56 H49 0.930 . S
C56 C55 1.393 . S
C56 C57 1.399 . S
C57 C56 1.399 . S
C57 C58 1.381 . S
C58 H50 0.930 . S
C58 C54 1.390 . S
C58 C57 1.381 . S
N59 C52 1.286 . S
N59 C55 1.413 . S
H60 C65 0.930 . S
H61 C68 0.930 . S
H62 C70 0.930 . S
H63 C64 1.016 . S
C64 H63 1.016 . S
C64 N71 1.286 . S
C65 H60 0.930 . S
C65 C66 1.397 . S
C65 C67 1.361 . S
C66 C65 1.397 . S
C66 C70 1.390 . S
C67 C65 1.361 . S
C67 C68 1.393 . S
C67 N71 1.413 . S
C68 H61 0.930 . S
C68 C67 1.393 . S
C68 C69 1.399 . S
C69 C68 1.399 . S
C69 C70 1.381 . S
C70 H62 0.930 . S
C70 C66 1.390 . S
C70 C69 1.381 . S
N71 C64 1.286 . S
N71 C67 1.413 . S
H72 C77 0.930 . S
H73 C80 0.930 . S
H74 C82 0.930 . S
H75 C76 1.016 . S
C76 H75 1.016 . S
C76 N83 1.286 . S
C77 H72 0.930 . S
C77 C78 1.397 . S
C77 C79 1.361 . S
C78 C77 1.397 . S
C78 C82 1.390 . S
C79 C77 1.361 . S
C79 C80 1.393 . S
C79 N83 1.413 . S
C80 H73 0.930 . S
C80 C79 1.393 . S
C80 C81 1.399 . S
C81 C80 1.399 . S
C81 C82 1.381 . S
C82 H74 0.930 . S
C82 C78 1.390 . S
C82 C81 1.381 . S
N83 C76 1.286 . S
N83 C79 1.413 . S
H84 C89 0.930 . S
H85 C92 0.930 . S
H86 C94 0.930 . S
H87 C88 1.016 . S
C88 H87 1.016 . S
C88 N95 1.286 . S
C89 H84 0.930 . S
C89 C90 1.397 . S
C89 C91 1.361 . S
C90 C89 1.397 . S
C90 C94 1.390 . S
C91 C89 1.361 . S
C91 C92 1.393 . S
C91 N95 1.413 . S
C92 H85 0.930 . S
C92 C91 1.393 . S
C92 C93 1.399 . S
C93 C92 1.399 . S
C93 C94 1.381 . S
C94 H86 0.930 . S
C94 C90 1.390 . S
C94 C93 1.381 . S
N95 C88 1.286 . S
N95 C91 1.413 . S
Co96 N101 2.057 . S
Co96 O113 2.021 . S
Co96 O116 2.062 . S
Co96 O120 2.117 1_545 S
Co96 O121 2.015 1_545 S
C97 O117 1.259 1_655 S
C97 O120 1.258 . S
Co98 N107 2.057 . S
Co98 O114 2.117 1_565 S
Co98 O115 2.020 1_565 S
Co98 O117 2.021 . S
Co98 O122 2.062 . S
C99 N101 1.316 . S
C99 N102 1.347 . S
C99 H104 0.931 . S
C100 N101 1.375 1_565 S
C100 C103 1.350 1_565 S
C100 H105 0.930 . S
N101 Co96 2.057 . S
N101 C99 1.316 . S
N101 C100 1.375 1_545 S
N102 C99 1.347 . S
N102 C103 1.373 . S
C103 C100 1.350 1_545 S
C103 N102 1.373 . S
C103 H124 0.931 1_545 S
H104 C99 0.931 . S
H105 C100 0.930 . S
C106 O113 1.259 1_455 S
C106 O114 1.258 . S
N107 Co98 2.057 . S
N107 C108 1.316 . S
N107 C109 1.375 1_565 S
C108 N107 1.316 . S
C108 N110 1.347 . S
C108 H119 0.931 . S
C109 N107 1.375 1_545 S
C109 C111 1.350 . S
C109 H118 0.930 . S
N110 C108 1.347 . S
N110 C111 1.373 1_565 S
C111 C109 1.350 . S
C111 N110 1.373 1_545 S
C111 H125 0.931 . S
C112 O115 1.256 . S
C112 O116 1.255 1_455 S
O113 Co96 2.021 . S
O113 C106 1.259 1_655 S
O114 Co98 2.117 1_545 S
O114 C106 1.258 . S
O115 Co98 2.020 1_545 S
O115 C112 1.256 . S
O116 Co96 2.062 . S
O116 C112 1.255 1_655 S
O117 C97 1.259 1_455 S
O117 Co98 2.021 . S
H118 C109 0.930 . S
H119 C108 0.931 . S
O120 Co96 2.117 1_565 S
O120 C97 1.258 . S
O121 Co96 2.015 1_565 S
O121 C123 1.263 . S
O122 Co98 2.062 . S
O122 C123 1.255 1_455 S
C123 O121 1.263 . S
C123 O122 1.255 1_655 S
H124 C103 0.931 1_565 S
H125 C111 0.931 . S
Co126 N131 2.057 1_545 S
Co126 O143 2.021 . S
Co126 O146 2.057 1_545 S
Co126 O150 2.117 1_546 S
Co126 O151 2.020 1_556 S
C127 O147 1.259 . S
C127 O150 1.258 . S
Co128 N137 2.057 . S
Co128 O144 2.117 . S
Co128 O145 2.020 . S
Co128 O147 2.021 1_545 S
Co128 O152 2.062 . S
C129 N131 1.316 . S
C129 N132 1.347 . S
C129 H134 0.931 1_565 S
C130 N131 1.375 . S
C130 C133 1.350 . S
C130 H135 0.930 . S
N131 Co126 2.057 1_565 S
N131 C129 1.316 . S
N131 C130 1.375 . S
N132 C129 1.347 . S
N132 C133 1.373 . S
C133 C130 1.350 . S
C133 N132 1.373 . S
C133 H154 0.931 . S
H134 C129 0.931 1_545 S
H135 C130 0.930 . S
C136 O143 1.259 . S
C136 O144 1.258 1_556 S
N137 Co128 2.057 . S
N137 C138 1.316 . S
N137 C139 1.375 . S
C138 N137 1.316 . S
C138 N140 1.347 . S
C138 H149 0.931 . S
C139 N137 1.375 . S
C139 C141 1.350 . S
C139 H148 0.930 . S
N140 C138 1.347 . S
N140 C141 1.373 . S
C141 C139 1.350 . S
C141 N140 1.373 . S
C141 H155 0.931 . S
C142 O145 1.260 1_556 S
C142 O146 1.258 1_545 S
O143 Co126 2.021 . S
O143 C136 1.259 . S
O144 Co128 2.117 . S
O144 C136 1.258 1_554 S
O145 Co128 2.020 . S
O145 C142 1.260 1_554 S
O146 Co126 2.057 1_565 S
O146 C142 1.258 1_565 S
O147 C127 1.259 . S
O147 Co128 2.021 1_565 S
H148 C139 0.930 . S
H149 C138 0.931 . S
O150 Co126 2.117 1_564 S
O150 C127 1.258 . S
O151 Co126 2.020 1_554 S
O151 C153 1.256 . S
O152 Co128 2.062 . S
O152 C153 1.255 . S
C153 O151 1.256 . S
C153 O152 1.255 . S
H154 C133 0.931 . S
H155 C141 0.931 . S
Co156 N161 2.057 . S
Co156 O173 2.021 . S
Co156 O176 2.062 . S
Co156 O180 2.117 . S
Co156 O181 2.020 . S
C157 O177 1.259 . S
C157 O180 1.258 . S
Co158 N167 2.057 . S
Co158 O174 2.117 . S
Co158 O175 2.020 . S
Co158 O177 2.021 . S
Co158 O182 2.062 . S
C159 N161 1.316 . S
C159 N162 1.347 . S
C159 H164 0.931 . S
C160 N161 1.375 . S
C160 C163 1.350 . S
C160 H165 0.930 . S
N161 Co156 2.057 . S
N161 C159 1.316 . S
N161 C160 1.375 . S
N162 C159 1.347 . S
N162 C163 1.373 . S
C163 C160 1.350 . S
C163 N162 1.373 . S
C163 H184 0.931 . S
H164 C159 0.931 . S
H165 C160 0.930 . S
C166 O173 1.259 . S
C166 O174 1.258 . S
N167 Co158 2.057 . S
N167 C168 1.316 . S
N167 C169 1.375 . S
C168 N167 1.316 . S
C168 N170 1.347 . S
C168 H179 0.931 . S
C169 N167 1.375 . S
C169 C171 1.350 . S
C169 H178 0.930 . S
N170 C168 1.347 . S
N170 C171 1.373 . S
C171 C169 1.350 . S
C171 N170 1.373 . S
C171 H185 0.931 . S
C172 O175 1.256 . S
C172 O176 1.255 . S
O173 Co156 2.021 . S
O173 C166 1.259 . S
O174 Co158 2.117 . S
O174 C166 1.258 . S
O175 Co158 2.020 . S
O175 C172 1.256 . S
O176 Co156 2.062 . S
O176 C172 1.255 . S
O177 C157 1.259 . S
O177 Co158 2.021 . S
H178 C169 0.930 . S
H179 C168 0.931 . S
O180 Co156 2.117 . S
O180 C157 1.258 . S
O181 Co156 2.020 . S
O181 C183 1.256 . S
O182 Co158 2.062 . S
O182 C183 1.255 . S
C183 O181 1.256 . S
C183 O182 1.255 . S
H184 C163 0.931 . S
H185 C171 0.931 . S
Co186 N191 2.057 . S
Co186 O203 2.021 . S
Co186 O206 2.049 1_556 S
Co186 O210 2.117 1_455 S
Co186 O211 2.020 . S
C187 O207 1.259 . S
C187 O210 1.258 1_554 S
Co188 N197 2.057 . S
Co188 O204 2.117 1_655 S
Co188 O205 2.020 1_655 S
Co188 O207 2.021 . S
Co188 O212 2.062 . S
C189 N191 1.316 . S
C189 N192 1.347 . S
C189 H194 0.931 . S
C190 N191 1.375 . S
C190 C193 1.350 . S
C190 H195 0.930 1_455 S
N191 Co186 2.057 . S
N191 C189 1.316 . S
N191 C190 1.375 . S
N192 C189 1.347 . S
N192 C193 1.373 . S
C193 C190 1.350 . S
C193 N192 1.373 . S
C193 H214 0.931 . S
H194 C189 0.931 . S
H195 C190 0.930 1_655 S
C196 O203 1.259 1_554 S
C196 O204 1.258 . S
N197 Co188 2.057 . S
N197 C198 1.316 . S
N197 C199 1.375 1_655 S
C198 N197 1.316 . S
C198 N200 1.347 . S
C198 H209 0.931 . S
C199 N197 1.375 1_455 S
C199 C201 1.350 . S
C199 H208 0.930 . S
N200 C198 1.347 . S
N200 C201 1.373 1_655 S
C201 C199 1.350 . S
C201 N200 1.373 1_455 S
C201 H215 0.931 . S
C202 O205 1.256 . S
C202 O206 1.284 . S
O203 Co186 2.021 . S
O203 C196 1.259 1_556 S
O204 Co188 2.117 1_455 S
O204 C196 1.258 . S
O205 Co188 2.020 1_455 S
O205 C202 1.256 . S
O206 Co186 2.049 1_554 S
O206 C202 1.284 . S
O207 C187 1.259 . S
O207 Co188 2.021 . S
H208 C199 0.930 . S
H209 C198 0.931 . S
O210 Co186 2.117 1_655 S
O210 C187 1.258 1_556 S
O211 Co186 2.020 . S
O211 C213 1.256 1_455 S
O212 Co188 2.062 . S
O212 C213 1.255 1_554 S
C213 O211 1.256 1_655 S
C213 O212 1.255 1_556 S
H214 C193 0.931 . S
H215 C201 0.931 . S
H216 C228 0.930 . S
H217 C230 0.930 . S
H218 C231 0.930 . S
H219 C235 0.959 1_545 S
H220 C235 0.959 . S
H221 C235 0.961 . S
H222 C236 0.960 . S
H223 C236 0.961 . S
H224 C236 0.959 . S
H225 C239 0.929 . S
H226 C240 0.931 . S
H227 C242 0.906 1_565 S
C228 H216 0.930 . S
C228 C229 1.399 . S
C228 C233 1.399 . S
C229 C228 1.399 . S
C229 C230 1.376 . S
C230 H217 0.930 . S
C230 C229 1.376 . S
C230 C231 1.388 . S
C231 H218 0.930 . S
C231 C230 1.388 . S
C231 C232 1.390 . S
C232 C231 1.390 . S
C232 C233 1.394 . S
C232 C238 1.465 . S
C233 C228 1.399 . S
C233 C232 1.394 . S
C233 C234 1.516 . S
C234 C233 1.516 . S
C234 C235 1.502 1_545 S
C234 C236 1.561 1_545 S
C234 C237 1.526 . S
C235 H219 0.959 1_565 S
C235 H220 0.959 . S
C235 H221 0.961 . S
C235 C234 1.502 1_565 S
C236 H222 0.960 . S
C236 H223 0.961 . S
C236 H224 0.959 . S
C236 C234 1.561 1_565 S
C237 C234 1.526 . S
C237 C238 1.396 . S
C237 C242 1.390 . S
C238 C232 1.465 . S
C238 C237 1.396 . S
C238 C239 1.399 . S
C239 H225 0.929 . S
C239 C238 1.399 . S
C239 C240 1.385 . S
C240 H226 0.931 . S
C240 C239 1.385 . S
C240 C241 1.389 . S
C241 C240 1.389 . S
C241 C242 1.387 . S
C242 H227 0.906 1_545 S
C242 C237 1.390 . S
C242 C241 1.387 . S
H243 C255 0.930 . S
H244 C257 0.930 . S
H245 C258 0.930 . S
H246 C262 0.959 . S
H247 C262 0.959 . S
H248 C262 0.961 . S
H249 C263 0.960 . S
H250 C263 0.961 . S
H251 C263 0.959 . S
H252 C266 0.929 . S
H253 C267 0.931 . S
H254 C269 0.930 . S
C255 H243 0.930 . S
C255 C256 1.399 . S
C255 C260 1.399 . S
C256 C255 1.399 . S
C256 C257 1.376 . S
C257 H244 0.930 . S
C257 C256 1.376 . S
C257 C258 1.388 . S
C258 H245 0.930 . S
C258 C257 1.388 . S
C258 C259 1.390 . S
C259 C258 1.390 . S
C259 C260 1.394 . S
C259 C265 1.465 . S
C260 C255 1.399 . S
C260 C259 1.394 . S
C260 C261 1.516 . S
C261 C260 1.516 . S
C261 C262 1.502 . S
C261 C263 1.561 1_565 S
C261 C264 1.526 . S
C262 H246 0.959 . S
C262 H247 0.959 . S
C262 H248 0.961 . S
C262 C261 1.502 . S
C263 H249 0.960 . S
C263 H250 0.961 . S
C263 H251 0.959 . S
C263 C261 1.561 1_545 S
C264 C261 1.526 . S
C264 C265 1.396 . S
C264 C269 1.390 . S
C265 C259 1.465 . S
C265 C264 1.396 . S
C265 C266 1.399 . S
C266 H252 0.929 . S
C266 C265 1.399 . S
C266 C267 1.385 . S
C267 H253 0.931 . S
C267 C266 1.385 . S
C267 C268 1.389 . S
C268 C267 1.389 . S
C268 C269 1.387 . S
C269 H254 0.930 . S
C269 C264 1.390 . S
C269 C268 1.387 . S
H270 C282 0.930 . S
H271 C284 0.930 . S
H272 C285 0.930 . S
H273 C289 0.959 . S
H274 C289 0.959 . S
H275 C289 0.961 . S
H276 C290 0.960 . S
H277 C290 0.961 . S
H278 C290 0.959 . S
H279 C293 0.929 . S
H280 C294 0.931 . S
H281 C296 0.930 . S
C282 H270 0.930 . S
C282 C283 1.399 . S
C282 C287 1.399 . S
C283 C282 1.399 . S
C283 C284 1.376 . S
C284 H271 0.930 . S
C284 C283 1.376 . S
C284 C285 1.388 . S
C285 H272 0.930 . S
C285 C284 1.388 . S
C285 C286 1.390 . S
C286 C285 1.390 . S
C286 C287 1.394 . S
C286 C292 1.465 . S
C287 C282 1.399 . S
C287 C286 1.394 . S
C287 C288 1.516 . S
C288 C287 1.516 . S
C288 C289 1.502 . S
C288 C290 1.561 . S
C288 C291 1.526 . S
C289 H273 0.959 . S
C289 H274 0.959 . S
C289 H275 0.961 . S
C289 C288 1.502 . S
C290 H276 0.960 . S
C290 H277 0.961 . S
C290 H278 0.959 . S
C290 C288 1.561 . S
C291 C288 1.526 . S
C291 C292 1.396 . S
C291 C296 1.390 . S
C292 C286 1.465 . S
C292 C291 1.396 . S
C292 C293 1.399 . S
C293 H279 0.929 . S
C293 C292 1.399 . S
C293 C294 1.385 . S
C294 H280 0.931 . S
C294 C293 1.385 . S
C294 C295 1.389 . S
C295 C294 1.389 . S
C295 C296 1.387 . S
C296 H281 0.930 . S
C296 C291 1.390 . S
C296 C295 1.387 . S
H297 C309 0.930 . S
H298 C311 0.930 . S
H299 C312 0.930 . S
H300 C316 0.959 . S
H301 C316 0.959 . S
H302 C316 0.961 . S
H303 C317 0.960 . S
H304 C317 0.961 . S
H305 C317 0.959 . S
H306 C320 0.929 . S
H307 C321 0.931 . S
H308 C323 0.930 . S
C309 H297 0.930 . S
C309 C310 1.399 . S
C309 C314 1.399 . S
C310 C309 1.399 . S
C310 C311 1.376 . S
C311 H298 0.930 . S
C311 C310 1.376 . S
C311 C312 1.388 . S
C312 H299 0.930 . S
C312 C311 1.388 . S
C312 C313 1.390 . S
C313 C312 1.390 . S
C313 C314 1.394 . S
C313 C319 1.465 . S
C314 C309 1.399 . S
C314 C313 1.394 . S
C314 C315 1.516 . S
C315 C314 1.516 . S
C315 C316 1.502 . S
C315 C317 1.561 . S
C315 C318 1.526 . S
C316 H300 0.959 . S
C316 H301 0.959 . S
C316 H302 0.961 . S
C316 C315 1.502 . S
C317 H303 0.960 . S
C317 H304 0.961 . S
C317 H305 0.959 . S
C317 C315 1.561 . S
C318 C315 1.526 . S
C318 C319 1.396 . S
C318 C323 1.390 . S
C319 C313 1.465 . S
C319 C318 1.396 . S
C319 C320 1.399 . S
C320 H306 0.929 . S
C320 C319 1.399 . S
C320 C321 1.385 . S
C321 H307 0.931 . S
C321 C320 1.385 . S
C321 C322 1.389 . S
C322 C321 1.389 . S
C322 C323 1.387 . S
C323 H308 0.930 . S
C323 C318 1.390 . S
C323 C322 1.387 . S
H324 C336 0.930 . S
H325 C338 0.930 . S
H326 C339 0.930 . S
H327 C343 0.959 1_565 S
H328 C343 0.959 1_565 S
H329 C343 0.961 1_565 S
H330 C344 0.960 . S
H331 C344 0.961 1_556 S
H332 C344 0.959 . S
H333 C347 0.929 . S
H334 C348 0.931 . S
H335 C350 0.930 . S
C336 H324 0.930 . S
C336 C337 1.399 . S
C336 C341 1.399 . S
C337 C336 1.399 . S
C337 C338 1.376 . S
C338 H325 0.930 . S
C338 C337 1.376 . S
C338 C339 1.388 . S
C339 H326 0.930 . S
C339 C338 1.388 . S
C339 C340 1.390 . S
C340 C339 1.390 . S
C340 C341 1.394 . S
C340 C346 1.465 . S
C341 C336 1.399 . S
C341 C340 1.394 . S
C341 C342 1.516 . S
C342 C341 1.516 . S
C342 C343 1.502 . S
C342 C344 1.561 . S
C342 C345 1.526 . S
C343 H327 0.959 1_545 S
C343 H328 0.959 1_545 S
C343 H329 0.961 1_545 S
C343 C342 1.502 . S
C344 H330 0.960 . S
C344 H331 0.961 1_554 S
C344 H332 0.959 . S
C344 C342 1.561 . S
C345 C342 1.526 . S
C345 C346 1.396 . S
C345 C350 1.390 . S
C346 C340 1.465 . S
C346 C345 1.396 . S
C346 C347 1.399 . S
C347 H333 0.929 . S
C347 C346 1.399 . S
C347 C348 1.385 . S
C348 H334 0.931 . S
C348 C347 1.385 . S
C348 C349 1.389 . S
C349 C348 1.389 . S
C349 C350 1.387 . S
C350 H335 0.930 . S
C350 C345 1.390 . S
C350 C349 1.387 . S
H351 C363 0.930 . S
H352 C365 0.930 . S
H353 C366 0.930 . S
H354 C370 0.959 . S
H355 C370 0.959 . S
H356 C370 0.961 . S
H357 C371 0.960 . S
H358 C371 0.961 . S
H359 C371 0.959 . S
H360 C374 0.929 . S
H361 C375 0.931 . S
H362 C377 0.930 . S
C363 H351 0.930 . S
C363 C364 1.399 . S
C363 C368 1.399 . S
C364 C363 1.399 . S
C364 C365 1.376 . S
C365 H352 0.930 . S
C365 C364 1.376 . S
C365 C366 1.388 . S
C366 H353 0.930 . S
C366 C365 1.388 . S
C366 C367 1.390 . S
C367 C366 1.390 . S
C367 C368 1.394 . S
C367 C373 1.465 . S
C368 C363 1.399 . S
C368 C367 1.394 . S
C368 C369 1.516 . S
C369 C368 1.516 . S
C369 C370 1.502 . S
C369 C371 1.561 . S
C369 C372 1.526 . S
C370 H354 0.959 . S
C370 H355 0.959 . S
C370 H356 0.961 . S
C370 C369 1.502 . S
C371 H357 0.960 . S
C371 H358 0.961 . S
C371 H359 0.959 . S
C371 C369 1.561 . S
C372 C369 1.526 . S
C372 C373 1.396 . S
C372 C377 1.390 . S
C373 C367 1.465 . S
C373 C372 1.396 . S
C373 C374 1.399 . S
C374 H360 0.929 . S
C374 C373 1.399 . S
C374 C375 1.385 . S
C375 H361 0.931 . S
C375 C374 1.385 . S
C375 C376 1.389 . S
C376 C375 1.389 . S
C376 C377 1.387 . S
C377 H362 0.930 . S
C377 C372 1.390 . S
C377 C376 1.387 . S
H378 C390 0.930 . S
H379 C392 0.930 . S
H380 C393 0.930 1_554 S
H381 C397 0.959 . S
H382 C397 0.959 . S
H383 C397 0.961 . S
H384 C398 0.960 . S
H385 C398 0.961 . S
H386 C398 0.959 . S
H387 C401 0.929 . S
H388 C402 0.931 . S
H389 C404 0.930 . S
C390 H378 0.930 . S
C390 C391 1.399 . S
C390 C395 1.399 . S
C391 C390 1.399 . S
C391 C392 1.376 . S
C392 H379 0.930 . S
C392 C391 1.376 . S
C392 C393 1.388 . S
C393 H380 0.930 1_556 S
C393 C392 1.388 . S
C393 C394 1.390 . S
C394 C393 1.390 . S
C394 C395 1.394 . S
C394 C400 1.465 . S
C395 C390 1.399 . S
C395 C394 1.394 . S
C395 C396 1.516 . S
C396 C395 1.516 . S
C396 C397 1.502 . S
C396 C398 1.561 . S
C396 C399 1.526 . S
C397 H381 0.959 . S
C397 H382 0.959 . S
C397 H383 0.961 . S
C397 C396 1.502 . S
C398 H384 0.960 . S
C398 H385 0.961 . S
C398 H386 0.959 . S
C398 C396 1.561 . S
C399 C396 1.526 . S
C399 C400 1.396 . S
C399 C404 1.390 . S
C400 C394 1.465 . S
C400 C399 1.396 . S
C400 C401 1.399 1_556 S
C401 H387 0.929 . S
C401 C400 1.399 1_554 S
C401 C402 1.385 . S
C402 H388 0.931 . S
C402 C401 1.385 . S
C402 C403 1.389 1_554 S
C403 C402 1.389 1_556 S
C403 C404 1.387 . S
C404 H389 0.930 . S
C404 C399 1.390 . S
C404 C403 1.387 . S
H405 C417 0.930 . S
H406 C419 0.930 . S
H407 C420 0.930 . S
H408 C424 0.959 . S
H409 C424 0.959 . S
H410 C424 0.961 . S
H411 C425 0.960 . S
H412 C425 0.961 . S
H413 C425 0.959 . S
H414 C428 0.929 . S
H415 C429 0.931 . S
H416 C431 0.930 . S
C417 H405 0.930 . S
C417 C418 1.399 . S
C417 C422 1.399 . S
C418 C417 1.399 . S
C418 C419 1.376 . S
C419 H406 0.930 . S
C419 C418 1.376 . S
C419 C420 1.388 . S
C420 H407 0.930 . S
C420 C419 1.388 . S
C420 C421 1.390 . S
C421 C420 1.390 . S
C421 C422 1.394 . S
C421 C427 1.465 . S
C422 C417 1.399 . S
C422 C421 1.394 . S
C422 C423 1.516 . S
C423 C422 1.516 . S
C423 C424 1.502 . S
C423 C425 1.561 . S
C423 C426 1.526 . S
C424 H408 0.959 . S
C424 H409 0.959 . S
C424 H410 0.961 . S
C424 C423 1.502 . S
C425 H411 0.960 . S
C425 H412 0.961 . S
C425 H413 0.959 . S
C425 C423 1.561 . S
C426 C423 1.526 . S
C426 C427 1.396 . S
C426 C431 1.390 . S
C427 C421 1.465 . S
C427 C426 1.396 . S
C427 C428 1.399 . S
C428 H414 0.929 . S
C428 C427 1.399 . S
C428 C429 1.385 . S
C429 H415 0.931 . S
C429 C428 1.385 . S
C429 C430 1.389 . S
C430 C429 1.389 . S
C430 C431 1.387 . S
C431 H416 0.930 . S
C431 C426 1.390 . S
C431 C430 1.387 . S
H432 C444 0.930 . S
H433 C446 0.930 . S
H434 C447 0.930 . S
H435 C451 0.959 . S
H436 C451 0.959 1_556 S
H437 C451 0.961 . S
H438 C452 0.960 . S
H439 C452 0.961 . S
H440 C452 0.956 1_554 S
H441 C455 0.929 . S
H442 C456 0.929 1_655 S
H443 C458 0.930 . S
C444 H432 0.930 . S
C444 C445 1.399 . S
C444 C449 1.399 . S
C445 C444 1.399 . S
C445 C446 1.376 . S
C446 H433 0.930 . S
C446 C445 1.376 . S
C446 C447 1.388 . S
C447 H434 0.930 . S
C447 C446 1.388 . S
C447 C448 1.390 . S
C448 C447 1.390 . S
C448 C449 1.394 . S
C448 C454 1.465 . S
C449 C444 1.399 . S
C449 C448 1.394 . S
C449 C450 1.516 . S
C450 C449 1.516 . S
C450 C451 1.502 . S
C450 C452 1.561 1_554 S
C450 C453 1.526 . S
C451 H435 0.959 . S
C451 H436 0.959 1_554 S
C451 H437 0.961 . S
C451 C450 1.502 . S
C452 H438 0.960 . S
C452 H439 0.961 . S
C452 H440 0.956 1_556 S
C452 C450 1.561 1_556 S
C453 C450 1.526 . S
C453 C454 1.396 . S
C453 C458 1.390 . S
C454 C448 1.465 . S
C454 C453 1.396 . S
C454 C455 1.399 . S
C455 H441 0.929 . S
C455 C454 1.399 . S
C455 C456 1.385 . S
C456 H442 0.929 1_455 S
C456 C455 1.385 . S
C456 C457 1.389 . S
C457 C456 1.389 . S
C457 C458 1.387 . S
C458 H443 0.930 . S
C458 C453 1.390 . S
C458 C457 1.387 . S
H459 C471 0.930 . S
H460 C473 0.930 . S
H461 C474 0.930 . S
H462 C478 0.959 1_556 S
H463 C478 0.959 . S
H464 C478 0.961 . S
H465 C479 0.960 . S
H466 C479 0.961 . S
H467 C479 0.959 . S
H468 C482 0.929 . S
H469 C483 0.931 . S
H470 C485 0.930 1_554 S
C471 H459 0.930 . S
C471 C472 1.399 . S
C471 C476 1.399 . S
C472 C471 1.399 . S
C472 C473 1.376 . S
C473 H460 0.930 . S
C473 C472 1.376 . S
C473 C474 1.388 . S
C474 H461 0.930 . S
C474 C473 1.388 . S
C474 C475 1.390 . S
C475 C474 1.390 . S
C475 C476 1.394 . S
C475 C481 1.465 . S
C476 C471 1.399 . S
C476 C475 1.394 . S
C476 C477 1.516 . S
C477 C476 1.516 . S
C477 C478 1.502 1_556 S
C477 C479 1.561 1_556 S
C477 C480 1.526 . S
C478 H462 0.959 1_554 S
C478 H463 0.959 . S
C478 H464 0.961 . S
C478 C477 1.502 1_554 S
C479 H465 0.960 . S
C479 H466 0.961 . S
C479 H467 0.959 . S
C479 C477 1.561 1_554 S
C480 C477 1.526 . S
C480 C481 1.396 . S
C480 C485 1.390 . S
C481 C475 1.465 . S
C481 C480 1.396 . S
C481 C482 1.399 . S
C482 H468 0.929 . S
C482 C481 1.399 . S
C482 C483 1.385 . S
C483 H469 0.931 . S
C483 C482 1.385 . S
C483 C484 1.389 . S
C484 C483 1.389 . S
C484 C485 1.387 . S
C485 H470 0.930 1_556 S
C485 C480 1.390 . S
C485 C484 1.387 . S
H486 C498 0.930 . S
H487 C500 0.930 . S
H488 C501 0.930 . S
H489 C505 0.959 . S
H490 C505 0.959 . S
H491 C505 0.961 . S
H492 C506 0.960 . S
H493 C506 0.961 . S
H494 C506 0.947 1_455 S
H495 C509 0.929 . S
H496 C510 0.931 . S
H497 C512 0.930 . S
C498 H486 0.930 . S
C498 C499 1.399 . S
C498 C503 1.399 . S
C499 C498 1.399 . S
C499 C500 1.376 . S
C500 H487 0.930 . S
C500 C499 1.376 . S
C500 C501 1.388 . S
C501 H488 0.930 . S
C501 C500 1.388 . S
C501 C502 1.390 . S
C502 C501 1.390 . S
C502 C503 1.394 . S
C502 C508 1.465 . S
C503 C498 1.399 . S
C503 C502 1.394 . S
C503 C504 1.516 . S
C504 C503 1.516 . S
C504 C505 1.502 . S
C504 C506 1.561 . S
C504 C507 1.526 . S
C505 H489 0.959 . S
C505 H490 0.959 . S
C505 H491 0.961 . S
C505 C504 1.502 . S
C506 H492 0.960 . S
C506 H493 0.961 . S
C506 H494 0.947 1_655 S
C506 C504 1.561 . S
C507 C504 1.526 . S
C507 C508 1.396 . S
C507 C512 1.390 . S
C508 C502 1.465 . S
C508 C507 1.396 . S
C508 C509 1.399 . S
C509 H495 0.929 . S
C509 C508 1.399 . S
C509 C510 1.385 . S
C510 H496 0.931 . S
C510 C509 1.385 . S
C510 C511 1.389 . S
C511 C510 1.389 . S
C511 C512 1.387 . S
C512 H497 0.930 . S
C512 C507 1.390 . S
C512 C511 1.387 . S
H513 C525 0.930 . S
H514 C527 0.930 . S
H515 C528 0.930 . S
H516 C532 0.959 . S
H517 C532 0.959 . S
H518 C532 0.961 . S
H519 C533 0.960 . S
H520 C533 0.961 . S
H521 C533 0.959 . S
H522 C536 0.929 . S
H523 C537 0.931 . S
H524 C539 0.930 . S
C525 H513 0.930 . S
C525 C526 1.399 . S
C525 C530 1.399 . S
C526 C525 1.399 . S
C526 C527 1.376 . S
C527 H514 0.930 . S
C527 C526 1.376 . S
C527 C528 1.388 . S
C528 H515 0.930 . S
C528 C527 1.388 . S
C528 C529 1.390 . S
C529 C528 1.390 . S
C529 C530 1.394 . S
C529 C535 1.465 . S
C530 C525 1.399 . S
C530 C529 1.394 . S
C530 C531 1.516 . S
C531 C530 1.516 . S
C531 C532 1.502 . S
C531 C533 1.561 . S
C531 C534 1.526 . S
C532 H516 0.959 . S
C532 H517 0.959 . S
C532 H518 0.961 . S
C532 C531 1.502 . S
C533 H519 0.960 . S
C533 H520 0.961 . S
C533 H521 0.959 . S
C533 C531 1.561 . S
C534 C531 1.526 . S
C534 C535 1.396 . S
C534 C539 1.390 . S
C535 C529 1.465 . S
C535 C534 1.396 . S
C535 C536 1.399 . S
C536 H522 0.929 . S
C536 C535 1.399 . S
C536 C537 1.385 . S
C537 H523 0.931 . S
C537 C536 1.385 . S
C537 C538 1.389 . S
C538 C537 1.389 . S
C538 C539 1.387 . S
C539 H524 0.930 . S
C539 C534 1.390 . S
C539 C538 1.387 . S
H540 C552 0.930 . S
H541 C554 0.930 . S
H542 C555 0.930 . S
H543 C559 0.959 1_565 S
H544 C559 0.959 . S
H545 C559 0.961 . S
H546 C560 0.960 . S
H547 C560 0.961 . S
H548 C560 0.959 . S
H549 C563 0.929 . S
H550 C564 0.931 . S
H551 C566 0.930 1_545 S
C552 H540 0.930 . S
C552 C553 1.399 . S
C552 C557 1.399 . S
C553 C552 1.399 . S
C553 C554 1.376 . S
C554 H541 0.930 . S
C554 C553 1.376 . S
C554 C555 1.388 . S
C555 H542 0.930 . S
C555 C554 1.388 . S
C555 C556 1.390 . S
C556 C555 1.390 . S
C556 C557 1.394 . S
C556 C562 1.465 . S
C557 C552 1.399 . S
C557 C556 1.394 . S
C557 C558 1.498 1_565 S
C558 C557 1.498 1_545 S
C558 C559 1.515 . S
C558 C560 1.579 . S
C558 C561 1.511 1_545 S
C559 H543 0.959 1_545 S
C559 H544 0.959 . S
C559 H545 0.961 . S
C559 C558 1.515 . S
C560 H546 0.960 . S
C560 H547 0.961 . S
C560 H548 0.959 . S
C560 C558 1.579 . S
C561 C558 1.511 1_565 S
C561 C562 1.396 . S
C561 C566 1.390 . S
C562 C556 1.465 . S
C562 C561 1.396 . S
C562 C563 1.399 . S
C563 H549 0.929 . S
C563 C562 1.399 . S
C563 C564 1.385 . S
C564 H550 0.931 . S
C564 C563 1.385 . S
C564 C565 1.389 . S
C565 C564 1.389 . S
C565 C566 1.387 . S
C566 H551 0.930 1_565 S
C566 C561 1.390 . S
C566 C565 1.387 . S
H567 C579 0.930 . S
H568 C581 0.930 . S
H569 C582 0.930 . S
H570 C586 0.959 . S
H571 C586 0.959 . S
H572 C586 0.961 . S
H573 C587 0.960 . S
H574 C587 0.961 . S
H575 C587 0.959 . S
H576 C590 0.929 . S
H577 C591 0.931 . S
H578 C593 0.930 . S
C579 H567 0.930 . S
C579 C580 1.399 . S
C579 C584 1.399 . S
C580 C579 1.399 . S
C580 C581 1.376 . S
C581 H568 0.930 . S
C581 C580 1.376 . S
C581 C582 1.388 . S
C582 H569 0.930 . S
C582 C581 1.388 . S
C582 C583 1.390 . S
C583 C582 1.390 . S
C583 C584 1.394 . S
C583 C589 1.465 . S
C584 C579 1.399 . S
C584 C583 1.394 . S
C584 C585 1.516 . S
C585 C584 1.516 . S
C585 C586 1.502 . S
C585 C587 1.561 . S
C585 C588 1.526 . S
C586 H570 0.959 . S
C586 H571 0.959 . S
C586 H572 0.961 . S
C586 C585 1.502 . S
C587 H573 0.960 . S
C587 H574 0.961 . S
C587 H575 0.959 . S
C587 C585 1.561 . S
C588 C585 1.526 . S
C588 C589 1.396 . S
C588 C593 1.390 . S
C589 C583 1.465 . S
C589 C588 1.396 . S
C589 C590 1.399 . S
C590 H576 0.929 . S
C590 C589 1.399 . S
C590 C591 1.385 . S
C591 H577 0.931 . S
C591 C590 1.385 . S
C591 C592 1.389 . S
C592 C591 1.389 . S
C592 C593 1.387 . S
C593 H578 0.930 . S
C593 C588 1.390 . S
C593 C592 1.387 . S
H594 C606 0.930 . S
H595 C608 0.930 . S
H596 C609 0.930 . S
H597 C613 0.959 . S
H598 C613 0.959 . S
H599 C613 0.961 . S
H600 C614 0.960 . S
H601 C614 0.961 . S
H602 C614 0.959 . S
H603 C617 0.929 . S
H604 C618 0.931 . S
H605 C620 0.930 . S
C606 H594 0.930 . S
C606 C607 1.399 . S
C606 C611 1.399 . S
C607 C606 1.399 . S
C607 C608 1.376 . S
C608 H595 0.930 . S
C608 C607 1.376 . S
C608 C609 1.388 . S
C609 H596 0.930 . S
C609 C608 1.388 . S
C609 C610 1.390 . S
C610 C609 1.390 . S
C610 C611 1.394 . S
C610 C616 1.465 . S
C611 C606 1.399 . S
C611 C610 1.394 . S
C611 C612 1.516 . S
C612 C611 1.516 . S
C612 C613 1.502 . S
C612 C614 1.561 . S
C612 C615 1.526 . S
C613 H597 0.959 . S
C613 H598 0.959 . S
C613 H599 0.961 . S
C613 C612 1.502 . S
C614 H600 0.960 . S
C614 H601 0.961 . S
C614 H602 0.959 . S
C614 C612 1.561 . S
C615 C612 1.526 . S
C615 C616 1.396 . S
C615 C620 1.390 . S
C616 C610 1.465 . S
C616 C615 1.396 . S
C616 C617 1.399 . S
C617 H603 0.929 . S
C617 C616 1.399 . S
C617 C618 1.385 . S
C618 H604 0.931 . S
C618 C617 1.385 . S
C618 C619 1.389 . S
C619 C618 1.389 . S
C619 C620 1.387 . S
C620 H605 0.930 . S
C620 C615 1.390 . S
C620 C619 1.387 . S
H621 C633 0.930 . S
H622 C635 0.930 . S
H623 C636 0.930 . S
H624 C640 0.959 . S
H625 C640 0.959 . S
H626 C640 0.961 . S
H627 C641 0.960 . S
H628 C641 0.961 . S
H629 C641 0.959 . S
H630 C644 0.929 . S
H631 C645 0.931 . S
H632 C647 0.930 . S
C633 H621 0.930 . S
C633 C634 1.399 . S
C633 C638 1.399 . S
C634 C633 1.399 . S
C634 C635 1.376 . S
C635 H622 0.930 . S
C635 C634 1.376 . S
C635 C636 1.388 . S
C636 H623 0.930 . S
C636 C635 1.388 . S
C636 C637 1.390 . S
C637 C636 1.390 . S
C637 C638 1.394 . S
C637 C643 1.465 . S
C638 C633 1.399 . S
C638 C637 1.394 . S
C638 C639 1.516 . S
C639 C638 1.516 . S
C639 C640 1.502 . S
C639 C641 1.561 . S
C639 C642 1.526 . S
C640 H624 0.959 . S
C640 H625 0.959 . S
C640 H626 0.961 . S
C640 C639 1.502 . S
C641 H627 0.960 . S
C641 H628 0.961 . S
C641 H629 0.959 . S
C641 C639 1.561 . S
C642 C639 1.526 . S
C642 C643 1.396 . S
C642 C647 1.390 . S
C643 C637 1.465 . S
C643 C642 1.396 . S
C643 C644 1.399 . S
C644 H630 0.929 . S
C644 C643 1.399 . S
C644 C645 1.385 . S
C645 H631 0.931 . S
C645 C644 1.385 . S
C645 C646 1.389 . S
C646 C645 1.389 . S
C646 C647 1.387 . S
C647 H632 0.930 . S
C647 C642 1.390 . S
C647 C646 1.387 . S
H648 C660 0.930 . S
H649 C662 0.930 1_545 S
H650 C663 0.930 . S
H651 C667 0.959 . S
H652 C667 0.959 . S
H653 C667 0.961 . S
H654 C668 0.960 . S
H655 C668 0.961 . S
H656 C668 0.959 . S
H657 C671 0.929 . S
H658 C672 0.931 . S
H659 C674 0.930 . S
C660 H648 0.930 . S
C660 C661 1.399 . S
C660 C665 1.399 . S
C661 C660 1.399 . S
C661 C662 1.376 . S
C662 H649 0.930 1_565 S
C662 C661 1.376 . S
C662 C663 1.388 1_565 S
C663 H650 0.930 . S
C663 C662 1.388 1_545 S
C663 C664 1.390 1_545 S
C664 C663 1.390 1_565 S
C664 C665 1.394 . S
C664 C670 1.465 . S
C665 C660 1.399 . S
C665 C664 1.394 . S
C665 C666 1.516 . S
C666 C665 1.516 . S
C666 C667 1.502 . S
C666 C668 1.561 1_556 S
C666 C669 1.526 . S
C667 H651 0.959 . S
C667 H652 0.959 . S
C667 H653 0.961 . S
C667 C666 1.502 . S
C668 H654 0.960 . S
C668 H655 0.961 . S
C668 H656 0.959 . S
C668 C666 1.561 1_554 S
C669 C666 1.526 . S
C669 C670 1.396 . S
C669 C674 1.390 . S
C670 C664 1.465 . S
C670 C669 1.396 . S
C670 C671 1.399 1_565 S
C671 H657 0.929 . S
C671 C670 1.399 1_545 S
C671 C672 1.385 . S
C672 H658 0.931 . S
C672 C671 1.385 . S
C672 C673 1.389 1_545 S
C673 C672 1.389 1_565 S
C673 C674 1.387 . S
C674 H659 0.930 . S
C674 C669 1.390 . S
C674 C673 1.387 . S
H675 C687 0.930 . S
H676 C689 0.930 . S
H677 C690 0.930 . S
H678 C694 0.959 . S
H679 C694 0.959 . S
H680 C694 0.961 . S
H681 C695 0.960 . S
H682 C695 0.961 . S
H683 C695 0.959 . S
H684 C698 0.929 . S
H685 C699 0.931 . S
H686 C701 0.930 . S
C687 H675 0.930 . S
C687 C688 1.399 . S
C687 C692 1.399 . S
C688 C687 1.399 . S
C688 C689 1.376 . S
C689 H676 0.930 . S
C689 C688 1.376 . S
C689 C690 1.388 . S
C690 H677 0.930 . S
C690 C689 1.388 . S
C690 C691 1.390 . S
C691 C690 1.390 . S
C691 C692 1.394 . S
C691 C697 1.465 . S
C692 C687 1.399 . S
C692 C691 1.394 . S
C692 C693 1.516 . S
C693 C692 1.516 . S
C693 C694 1.502 . S
C693 C695 1.561 . S
C693 C696 1.526 . S
C694 H678 0.959 . S
C694 H679 0.959 . S
C694 H680 0.961 . S
C694 C693 1.502 . S
C695 H681 0.960 . S
C695 H682 0.961 . S
C695 H683 0.959 . S
C695 C693 1.561 . S
C696 C693 1.526 . S
C696 C697 1.396 . S
C696 C701 1.390 . S
C697 C691 1.465 . S
C697 C696 1.396 . S
C697 C698 1.399 . S
C698 H684 0.929 . S
C698 C697 1.399 . S
C698 C699 1.385 . S
C699 H685 0.931 . S
C699 C698 1.385 . S
C699 C700 1.389 . S
C700 C699 1.389 . S
C700 C701 1.387 . S
C701 H686 0.930 . S
C701 C696 1.390 . S
C701 C700 1.387 . S
H702 C714 0.930 . S
H703 C716 0.930 . S
H704 C717 0.930 . S
H705 C721 0.959 . S
H706 C721 0.959 . S
H707 C721 0.961 . S
H708 C722 0.960 . S
H709 C722 0.961 . S
H710 C722 0.959 . S
H711 C725 0.929 . S
H712 C726 0.931 . S
H713 C728 0.930 . S
C714 H702 0.930 . S
C714 C715 1.399 . S
C714 C719 1.399 . S
C715 C714 1.399 . S
C715 C716 1.376 . S
C716 H703 0.930 . S
C716 C715 1.376 . S
C716 C717 1.388 . S
C717 H704 0.930 . S
C717 C716 1.388 . S
C717 C718 1.390 . S
C718 C717 1.390 . S
C718 C719 1.394 . S
C718 C724 1.465 . S
C719 C714 1.399 . S
C719 C718 1.394 . S
C719 C720 1.516 . S
C720 C719 1.516 . S
C720 C721 1.502 . S
C720 C722 1.561 . S
C720 C723 1.526 . S
C721 H705 0.959 . S
C721 H706 0.959 . S
C721 H707 0.961 . S
C721 C720 1.502 . S
C722 H708 0.960 . S
C722 H709 0.961 . S
C722 H710 0.959 . S
C722 C720 1.561 . S
C723 C720 1.526 . S
C723 C724 1.396 . S
C723 C728 1.390 . S
C724 C718 1.465 . S
C724 C723 1.396 . S
C724 C725 1.399 . S
C725 H711 0.929 . S
C725 C724 1.399 . S
C725 C726 1.385 . S
C726 H712 0.931 . S
C726 C725 1.385 . S
C726 C727 1.389 . S
C727 C726 1.389 . S
C727 C728 1.387 . S
C728 H713 0.930 . S
C728 C723 1.390 . S
C728 C727 1.387 . S
H729 C741 0.930 . S
H730 C743 0.930 . S
H731 C744 0.930 . S
H732 C748 0.959 . S
H733 C748 0.959 . S
H734 C748 0.961 . S
H735 C749 0.960 . S
H736 C749 0.961 . S
H737 C749 0.959 . S
H738 C752 0.929 . S
H739 C753 0.931 . S
H740 C755 0.930 . S
C741 H729 0.930 . S
C741 C742 1.399 . S
C741 C746 1.399 . S
C742 C741 1.399 . S
C742 C743 1.376 . S
C743 H730 0.930 . S
C743 C742 1.376 . S
C743 C744 1.388 . S
C744 H731 0.930 . S
C744 C743 1.388 . S
C744 C745 1.390 . S
C745 C744 1.390 . S
C745 C746 1.394 . S
C745 C751 1.465 . S
C746 C741 1.399 . S
C746 C745 1.394 . S
C746 C747 1.516 . S
C747 C746 1.516 . S
C747 C748 1.502 . S
C747 C749 1.561 . S
C747 C750 1.526 . S
C748 H732 0.959 . S
C748 H733 0.959 . S
C748 H734 0.961 . S
C748 C747 1.502 . S
C749 H735 0.960 . S
C749 H736 0.961 . S
C749 H737 0.959 . S
C749 C747 1.561 . S
C750 C747 1.526 . S
C750 C751 1.396 . S
C750 C755 1.390 . S
C751 C745 1.465 . S
C751 C750 1.396 . S
C751 C752 1.399 . S
C752 H738 0.929 . S
C752 C751 1.399 . S
C752 C753 1.385 . S
C753 H739 0.931 . S
C753 C752 1.385 . S
C753 C754 1.389 . S
C754 C753 1.389 . S
C754 C755 1.387 . S
C755 H740 0.930 . S
C755 C750 1.390 . S
C755 C754 1.387 . S
H756 C768 0.930 . S
H757 C770 0.930 . S
H758 C771 0.930 . S
H759 C775 0.959 1_556 S
H760 C775 0.959 . S
H761 C775 0.961 1_655 S
H762 C776 0.960 . S
H763 C776 0.961 . S
H764 C776 0.959 . S
H765 C779 0.929 . S
H766 C780 0.931 . S
H767 C782 0.947 . S
C768 H756 0.930 . S
C768 C769 1.399 . S
C768 C773 1.399 . S
C769 C768 1.399 . S
C769 C770 1.376 . S
C770 H757 0.930 . S
C770 C769 1.376 . S
C770 C771 1.388 . S
C771 H758 0.930 . S
C771 C770 1.388 . S
C771 C772 1.390 . S
C772 C771 1.390 . S
C772 C773 1.394 . S
C772 C778 1.465 . S
C773 C768 1.399 . S
C773 C772 1.394 . S
C773 C774 1.515 1_556 S
C774 C773 1.515 1_554 S
C774 C775 1.502 1_655 S
C774 C776 1.562 . S
C774 C777 1.525 1_554 S
C775 H759 0.959 1_554 S
C775 H760 0.959 . S
C775 H761 0.961 1_455 S
C775 C774 1.502 1_455 S
C776 H762 0.960 . S
C776 H763 0.961 . S
C776 H764 0.959 . S
C776 C774 1.562 . S
C777 C774 1.525 1_556 S
C777 C778 1.396 . S
C777 C782 1.381 1_556 S
C778 C772 1.465 . S
C778 C777 1.396 . S
C778 C779 1.399 . S
C779 H765 0.929 . S
C779 C778 1.399 . S
C779 C780 1.385 . S
C780 H766 0.931 . S
C780 C779 1.385 . S
C780 C781 1.389 . S
C781 C780 1.389 . S
C781 C782 1.377 1_556 S
C782 H767 0.947 . S
C782 C777 1.381 1_554 S
C782 C781 1.377 1_554 S
H783 C795 0.930 . S
H784 C797 0.930 . S
H785 C798 0.930 . S
H786 C802 0.959 . S
H787 C802 0.959 . S
H788 C802 0.961 . S
H789 C803 0.960 . S
H790 C803 0.961 . S
H791 C803 0.959 . S
H792 C806 0.929 . S
H793 C807 0.931 . S
H794 C809 0.930 . S
C795 H783 0.930 . S
C795 C796 1.399 . S
C795 C800 1.399 . S
C796 C795 1.399 . S
C796 C797 1.376 . S
C797 H784 0.930 . S
C797 C796 1.376 . S
C797 C798 1.388 . S
C798 H785 0.930 . S
C798 C797 1.388 . S
C798 C799 1.390 . S
C799 C798 1.390 . S
C799 C800 1.394 . S
C799 C805 1.465 . S
C800 C795 1.399 . S
C800 C799 1.394 . S
C800 C801 1.516 . S
C801 C800 1.516 . S
C801 C802 1.502 . S
C801 C803 1.561 . S
C801 C804 1.526 . S
C802 H786 0.959 . S
C802 H787 0.959 . S
C802 H788 0.961 . S
C802 C801 1.502 . S
C803 H789 0.960 . S
C803 H790 0.961 . S
C803 H791 0.959 . S
C803 C801 1.561 . S
C804 C801 1.526 . S
C804 C805 1.396 . S
C804 C809 1.390 . S
C805 C799 1.465 . S
C805 C804 1.396 . S
C805 C806 1.399 . S
C806 H792 0.929 . S
C806 C805 1.399 . S
C806 C807 1.385 . S
C807 H793 0.931 . S
C807 C806 1.385 . S
C807 C808 1.389 . S
C808 C807 1.389 . S
C808 C809 1.387 . S
C809 H794 0.930 . S
C809 C804 1.390 . S
C809 C808 1.387 . S
H810 C822 0.930 . S
H811 C824 0.930 . S
H812 C825 0.930 . S
H813 C829 0.959 . S
H814 C829 0.959 . S
H815 C829 0.961 . S
H816 C830 0.960 . S
H817 C830 0.961 . S
H818 C830 0.959 . S
H819 C833 0.929 . S
H820 C834 0.931 . S
H821 C836 0.930 . S
C822 H810 0.930 . S
C822 C823 1.399 . S
C822 C827 1.399 . S
C823 C822 1.399 . S
C823 C824 1.376 . S
C824 H811 0.930 . S
C824 C823 1.376 . S
C824 C825 1.388 . S
C825 H812 0.930 . S
C825 C824 1.388 . S
C825 C826 1.390 . S
C826 C825 1.390 . S
C826 C827 1.394 . S
C826 C832 1.465 . S
C827 C822 1.399 . S
C827 C826 1.394 . S
C827 C828 1.516 . S
C828 C827 1.516 . S
C828 C829 1.502 . S
C828 C830 1.561 . S
C828 C831 1.526 . S
C829 H813 0.959 . S
C829 H814 0.959 . S
C829 H815 0.961 . S
C829 C828 1.502 . S
C830 H816 0.960 . S
C830 H817 0.961 . S
C830 H818 0.959 . S
C830 C828 1.561 . S
C831 C828 1.526 . S
C831 C832 1.396 . S
C831 C836 1.390 . S
C832 C826 1.465 . S
C832 C831 1.396 . S
C832 C833 1.399 . S
C833 H819 0.929 . S
C833 C832 1.399 . S
C833 C834 1.385 . S
C834 H820 0.931 . S
C834 C833 1.385 . S
C834 C835 1.389 . S
C835 C834 1.389 . S
C835 C836 1.387 . S
C836 H821 0.930 . S
C836 C831 1.390 . S
C836 C835 1.387 . S
H837 C849 0.930 . S
H838 C851 0.930 . S
H839 C852 0.930 . S
H840 C856 0.959 . S
H841 C856 0.959 . S
H842 C856 0.961 . S
H843 C857 0.960 . S
H844 C857 0.961 . S
H845 C857 0.959 . S
H846 C860 0.929 . S
H847 C861 0.931 . S
H848 C863 0.930 . S
C849 H837 0.930 . S
C849 C850 1.399 . S
C849 C854 1.399 . S
C850 C849 1.399 . S
C850 C851 1.376 . S
C851 H838 0.930 . S
C851 C850 1.376 . S
C851 C852 1.388 . S
C852 H839 0.930 . S
C852 C851 1.388 . S
C852 C853 1.390 . S
C853 C852 1.390 . S
C853 C854 1.394 . S
C853 C859 1.465 . S
C854 C849 1.399 . S
C854 C853 1.394 . S
C854 C855 1.516 . S
C855 C854 1.516 . S
C855 C856 1.502 . S
C855 C857 1.561 . S
C855 C858 1.526 . S
C856 H840 0.959 . S
C856 H841 0.959 . S
C856 H842 0.961 . S
C856 C855 1.502 . S
C857 H843 0.960 . S
C857 H844 0.961 . S
C857 H845 0.959 . S
C857 C855 1.561 . S
C858 C855 1.526 . S
C858 C859 1.396 . S
C858 C863 1.390 . S
C859 C853 1.465 . S
C859 C858 1.396 . S
C859 C860 1.399 . S
C860 H846 0.929 . S
C860 C859 1.399 . S
C860 C861 1.385 . S
C861 H847 0.931 . S
C861 C860 1.385 . S
C861 C862 1.389 . S
C862 C861 1.389 . S
C862 C863 1.387 . S
C863 H848 0.930 . S
C863 C858 1.390 . S
C863 C862 1.387 . S
C229 C6 2.303 . S
C241 C112 2.324 . S
C256 C18 1.322 . S
C268 N132 1.319 . S
C295 C166 2.009 . S
C283 C28 1.960 . S
C310 C40 0.925 . S
C322 N200 0.779 . S
C349 C153 2.563 . S
C337 C9 2.543 . S
C376 N110 1.058 . S
C364 C16 1.144 . S
C403 C187 2.007 1_556 S
C391 C30 2.010 . S
C430 N162 0.846 . S
C418 C42 0.846 . S
C445 C4 1.777 . S
C457 C202 1.784 . S
C484 C136 1.711 . S
C472 C33 1.710 . S
C499 C45 1.121 . S
C511 C97 1.119 . S
C526 C21 1.661 . S
C538 C183 1.693 . S
C565 C123 2.373 . S
C553 C57 2.361 . S
C580 C66 1.333 . S
C592 N140 1.305 . S
C607 C76 2.020 . S
C619 C157 2.052 . S
C634 C88 0.885 . S
C646 N192 0.762 . S
C661 C54 2.525 . S
C673 C142 2.515 1_565 S
C700 N102 1.152 . S
C688 C64 1.142 . S
C727 C196 1.910 . S
C715 C78 1.868 . S
C754 N170 0.818 . S
C742 C93 0.815 . S
C769 C52 1.689 . S
C781 C213 1.723 . S
C808 C127 1.723 . S
C796 C81 1.719 . S
C835 C106 1.131 . S
C823 C90 1.092 . S
C850 C69 1.703 . S
C862 C172 1.735 . S
