# Generated by pormake.
# Topology eea, (3,6)-cn, num edge types: 1
# Building blocks:
#     Node 0, Type 0, BuildingBlock: QEWDON_clean_linker_0, # of connection points: 3
#     Node 1, Type 0, BuildingBlock: QEWDON_clean_linker_0, # of connection points: 3
#     Node 2, Type 0, BuildingBlock: QEWDON_clean_linker_0, # of connection points: 3
#     Node 3, Type 0, BuildingBlock: QEWDON_clean_linker_0, # of connection points: 3
#     Node 4, Type 0, BuildingBlock: QEWDON_clean_linker_0, # of connection points: 3
#     Node 5, Type 0, BuildingBlock: QEWDON_clean_linker_0, # of connection points: 3
#     Node 6, Type 0, BuildingBlock: QEWDON_clean_linker_0, # of connection points: 3
#     Node 7, Type 0, BuildingBlock: QEWDON_clean_linker_0, # of connection points: 3
#     Node 8, Type 0, BuildingBlock: QEWDON_clean_linker_0, # of connection points: 3
#     Node 9, Type 0, BuildingBlock: QEWDON_clean_linker_0, # of connection points: 3
#     Node 10, Type 0, BuildingBlock: QEWDON_clean_linker_0, # of connection points: 3
#     Node 11, Type 0, BuildingBlock: QEWDON_clean_linker_0, # of connection points: 3
#     Node 12, Type 0, BuildingBlock: QEWDON_clean_linker_0, # of connection points: 3
#     Node 13, Type 0, BuildingBlock: QEWDON_clean_linker_0, # of connection points: 3
#     Node 14, Type 0, BuildingBlock: QEWDON_clean_linker_0, # of connection points: 3
#     Node 15, Type 0, BuildingBlock: QEWDON_clean_linker_0, # of connection points: 3
#     Node 16, Type 0, BuildingBlock: QEWDON_clean_linker_0, # of connection points: 3
#     Node 17, Type 0, BuildingBlock: QEWDON_clean_linker_0, # of connection points: 3
#     Node 18, Type 1, BuildingBlock: KUMBUR_clean_sbu_0, # of connection points: 6
#     Node 19, Type 1, BuildingBlock: KUMBUR_clean_sbu_0, # of connection points: 6
#     Node 20, Type 1, BuildingBlock: KUMBUR_clean_sbu_0, # of connection points: 6
#     Node 21, Type 1, BuildingBlock: KUMBUR_clean_sbu_0, # of connection points: 6
#     Node 22, Type 1, BuildingBlock: KUMBUR_clean_sbu_0, # of connection points: 6
#     Node 23, Type 1, BuildingBlock: KUMBUR_clean_sbu_0, # of connection points: 6
#     Node 24, Type 1, BuildingBlock: KUMBUR_clean_sbu_0, # of connection points: 6
#     Node 25, Type 1, BuildingBlock: KUMBUR_clean_sbu_0, # of connection points: 6
#     Node 26, Type 1, BuildingBlock: KUMBUR_clean_sbu_0, # of connection points: 6
#     Edge 27, Type (0, 1), BuildingBlock: MIFKUJ_clean_linker_0, # of connection points: 2
#     Edge 28, Type (0, 1), BuildingBlock: MIFKUJ_clean_linker_0, # of connection points: 2
#     Edge 29, Type (0, 1), BuildingBlock: MIFKUJ_clean_linker_0, # of connection points: 2
#     Edge 30, Type (0, 1), BuildingBlock: MIFKUJ_clean_linker_0, # of connection points: 2
#     Edge 31, Type (0, 1), BuildingBlock: MIFKUJ_clean_linker_0, # of connection points: 2
#     Edge 32, Type (0, 1), BuildingBlock: MIFKUJ_clean_linker_0, # of connection points: 2
#     Edge 33, Type (0, 1), BuildingBlock: MIFKUJ_clean_linker_0, # of connection points: 2
#     Edge 34, Type (0, 1), BuildingBlock: MIFKUJ_clean_linker_0, # of connection points: 2
#     Edge 35, Type (0, 1), BuildingBlock: MIFKUJ_clean_linker_0, # of connection points: 2
#     Edge 36, Type (0, 1), BuildingBlock: MIFKUJ_clean_linker_0, # of connection points: 2
#     Edge 37, Type (0, 1), BuildingBlock: MIFKUJ_clean_linker_0, # of connection points: 2
#     Edge 38, Type (0, 1), BuildingBlock: MIFKUJ_clean_linker_0, # of connection points: 2
#     Edge 39, Type (0, 1), BuildingBlock: MIFKUJ_clean_linker_0, # of connection points: 2
#     Edge 40, Type (0, 1), BuildingBlock: MIFKUJ_clean_linker_0, # of connection points: 2
#     Edge 41, Type (0, 1), BuildingBlock: MIFKUJ_clean_linker_0, # of connection points: 2
#     Edge 42, Type (0, 1), BuildingBlock: MIFKUJ_clean_linker_0, # of connection points: 2
#     Edge 43, Type (0, 1), BuildingBlock: MIFKUJ_clean_linker_0, # of connection points: 2
#     Edge 44, Type (0, 1), BuildingBlock: MIFKUJ_clean_linker_0, # of connection points: 2
#     Edge 45, Type (0, 1), BuildingBlock: MIFKUJ_clean_linker_0, # of connection points: 2
#     Edge 46, Type (0, 1), BuildingBlock: MIFKUJ_clean_linker_0, # of connection points: 2
#     Edge 47, Type (0, 1), BuildingBlock: MIFKUJ_clean_linker_0, # of connection points: 2
#     Edge 48, Type (0, 1), BuildingBlock: MIFKUJ_clean_linker_0, # of connection points: 2
#     Edge 49, Type (0, 1), BuildingBlock: MIFKUJ_clean_linker_0, # of connection points: 2
#     Edge 50, Type (0, 1), BuildingBlock: MIFKUJ_clean_linker_0, # of connection points: 2
#     Edge 51, Type (0, 1), BuildingBlock: MIFKUJ_clean_linker_0, # of connection points: 2
#     Edge 52, Type (0, 1), BuildingBlock: MIFKUJ_clean_linker_0, # of connection points: 2
#     Edge 53, Type (0, 1), BuildingBlock: MIFKUJ_clean_linker_0, # of connection points: 2
#     Edge 54, Type (0, 1), BuildingBlock: MIFKUJ_clean_linker_0, # of connection points: 2
#     Edge 55, Type (0, 1), BuildingBlock: MIFKUJ_clean_linker_0, # of connection points: 2
#     Edge 56, Type (0, 1), BuildingBlock: MIFKUJ_clean_linker_0, # of connection points: 2
#     Edge 57, Type (0, 1), BuildingBlock: MIFKUJ_clean_linker_0, # of connection points: 2
#     Edge 58, Type (0, 1), BuildingBlock: MIFKUJ_clean_linker_0, # of connection points: 2
#     Edge 59, Type (0, 1), BuildingBlock: MIFKUJ_clean_linker_0, # of connection points: 2
#     Edge 60, Type (0, 1), BuildingBlock: MIFKUJ_clean_linker_0, # of connection points: 2
#     Edge 61, Type (0, 1), BuildingBlock: MIFKUJ_clean_linker_0, # of connection points: 2
#     Edge 62, Type (0, 1), BuildingBlock: MIFKUJ_clean_linker_0, # of connection points: 2
#     Edge 63, Type (0, 1), BuildingBlock: MIFKUJ_clean_linker_0, # of connection points: 2
#     Edge 64, Type (0, 1), BuildingBlock: MIFKUJ_clean_linker_0, # of connection points: 2
#     Edge 65, Type (0, 1), BuildingBlock: MIFKUJ_clean_linker_0, # of connection points: 2
#     Edge 66, Type (0, 1), BuildingBlock: MIFKUJ_clean_linker_0, # of connection points: 2
#     Edge 67, Type (0, 1), BuildingBlock: MIFKUJ_clean_linker_0, # of connection points: 2
#     Edge 68, Type (0, 1), BuildingBlock: MIFKUJ_clean_linker_0, # of connection points: 2
#     Edge 69, Type (0, 1), BuildingBlock: MIFKUJ_clean_linker_0, # of connection points: 2
#     Edge 70, Type (0, 1), BuildingBlock: MIFKUJ_clean_linker_0, # of connection points: 2
#     Edge 71, Type (0, 1), BuildingBlock: MIFKUJ_clean_linker_0, # of connection points: 2
#     Edge 72, Type (0, 1), BuildingBlock: MIFKUJ_clean_linker_0, # of connection points: 2
#     Edge 73, Type (0, 1), BuildingBlock: MIFKUJ_clean_linker_0, # of connection points: 2
#     Edge 74, Type (0, 1), BuildingBlock: MIFKUJ_clean_linker_0, # of connection points: 2
#     Edge 75, Type (0, 1), BuildingBlock: MIFKUJ_clean_linker_0, # of connection points: 2
#     Edge 76, Type (0, 1), BuildingBlock: MIFKUJ_clean_linker_0, # of connection points: 2
#     Edge 77, Type (0, 1), BuildingBlock: MIFKUJ_clean_linker_0, # of connection points: 2
#     Edge 78, Type (0, 1), BuildingBlock: MIFKUJ_clean_linker_0, # of connection points: 2
#     Edge 79, Type (0, 1), BuildingBlock: MIFKUJ_clean_linker_0, # of connection points: 2
#     Edge 80, Type (0, 1), BuildingBlock: MIFKUJ_clean_linker_0, # of connection points: 2
# Relax obj value: 0.043
# Max RMSD: 0.201
# Mean RMSD: 0.144
data_MOF--net-eea--node1-KUMBUR_clean_sbu_0--node2-QEWDON_clean_linker_0--edge1-MIFKUJ_clean_linker_0
_symmetry_space_group_name_H-M    P1
_symmetry_Int_Tables_number       1
_symmetry_cell_setting            triclinic
loop_
_symmetry_equiv_pos_as_xyz
'x, y, z'
_cell_length_a     75.010769
_cell_length_b     76.480177
_cell_length_c     78.658616
_cell_angle_alpha  90.230535
_cell_angle_beta   90.17898
_cell_angle_gamma 120.00163
loop_
_atom_site_label
_atom_site_type_symbol
_atom_site_fract_x
_atom_site_fract_y
_atom_site_fract_z
_atom_type_partial_charge
H0 H 0.1947 0.10859 0.43143 0.0
C1 C 0.19496 0.0959 0.4255 0.0
C2 C 0.20788 0.08918 0.43216 0.0
C3 C 0.18198 0.08595 0.41154 0.0
H4 H 0.21713 0.06675 0.43033 0.0
C5 C 0.20778 0.07241 0.42473 0.0
C6 C 0.19486 0.06216 0.41086 0.0
C7 C 0.18212 0.06915 0.40427 0.0
C8 C 0.16737 0.09228 0.40515 0.0
H9 H 0.17231 0.06152 0.39341 0.0
C10 C 0.17356 0.11285 0.40289 0.0
C11 C 0.1594 0.11859 0.39712 0.0
C12 C 0.14686 0.07756 0.40153 0.0
H13 H 0.14155 0.06168 0.40338 0.0
C14 C 0.13285 0.08317 0.39579 0.0
H15 H 0.18932 0.12434 0.40564 0.0
C16 C 0.13901 0.10348 0.39359 0.0
H17 H 0.12785 0.10736 0.3889 0.0
H18 H 0.1171 0.07169 0.39305 0.0
H19 H 0.90841 0.09713 0.42633 0.0
C20 C 0.92118 0.11012 0.42043 0.0
C21 C 0.92863 0.12945 0.4276 0.0
C22 C 0.93055 0.10738 0.40602 0.0
H23 H 0.9517 0.16092 0.42593 0.0
C24 C 0.94549 0.14616 0.42004 0.0
C25 C 0.95509 0.14383 0.40555 0.0
C26 C 0.94736 0.12435 0.3986 0.0
C27 C 0.92402 0.08668 0.39952 0.0
H28 H 0.95444 0.12232 0.38734 0.0
C29 C 0.90303 0.07196 0.39721 0.0
C30 C 0.89738 0.0525 0.39093 0.0
C31 C 0.93915 0.08152 0.39586 0.0
H32 H 0.95533 0.09232 0.39781 0.0
C33 C 0.93363 0.06226 0.38999 0.0
H34 H 0.89123 0.07583 0.39979 0.0
C35 C 0.91298 0.04787 0.38754 0.0
H36 H 0.90922 0.03298 0.3831 0.0
H37 H 0.94544 0.05844 0.38737 0.0
H38 H 0.92523 0.8125 0.4224 0.0
C39 C 0.91174 0.81222 0.41708 0.0
C40 C 0.89293 0.80229 0.4259 0.0
C41 C 0.91356 0.82302 0.40212 0.0
H42 H 0.86118 0.79495 0.42601 0.0
C43 C 0.87571 0.80282 0.41935 0.0
C44 C 0.87694 0.81314 0.40425 0.0
C45 C 0.89591 0.823 0.39567 0.0
C46 C 0.93419 0.83635 0.39429 0.0
H47 H 0.89715 0.83134 0.38421 0.0
C48 C 0.94889 0.83008 0.39163 0.0
C49 C 0.96808 0.84325 0.3839 0.0
C50 C 0.93933 0.85607 0.38966 0.0
H51 H 0.92877 0.8616 0.39192 0.0
C52 C 0.95828 0.86913 0.38238 0.0
H53 H 0.94522 0.81494 0.39508 0.0
C54 C 0.97248 0.86282 0.37948 0.0
H55 H 0.98713 0.87343 0.37389 0.0
H56 H 0.96201 0.88429 0.379 0.0
H57 H 0.11778 0.20173 0.59797 0.0
C58 C 0.10486 0.20224 0.60355 0.0
C59 C 0.0962 0.21237 0.59492 0.0
C60 C 0.09617 0.19174 0.61873 0.0
H61 H 0.07187 0.21969 0.59511 0.0
C62 C 0.07856 0.21186 0.60163 0.0
C63 C 0.06966 0.2017 0.61684 0.0
C64 C 0.07887 0.19211 0.62546 0.0
C65 C 0.10364 0.17871 0.62667 0.0
H66 H 0.07205 0.18431 0.6372 0.0
C67 C 0.12473 0.18404 0.62683 0.0
C68 C 0.13087 0.17076 0.63378 0.0
C69 C 0.08908 0.16001 0.63361 0.0
H70 H 0.07278 0.15494 0.63324 0.0
C71 C 0.09514 0.14721 0.6408 0.0
H72 H 0.13624 0.19825 0.62146 0.0
C73 C 0.11576 0.1525 0.64095 0.0
H74 H 0.1199 0.14221 0.64678 0.0
H75 H 0.08371 0.13297 0.64618 0.0
H76 H 0.82373 0.92199 0.59605 0.0
C77 C 0.8227 0.90873 0.60195 0.0
C78 C 0.8086 0.88949 0.59558 0.0
C79 C 0.83596 0.91099 0.61549 0.0
H80 H 0.79653 0.85755 0.5982 0.0
C81 C 0.80752 0.87237 0.60311 0.0
C82 C 0.82092 0.87424 0.61645 0.0
C83 C 0.83505 0.89369 0.62259 0.0
C84 C 0.85175 0.93151 0.62134 0.0
H85 H 0.84572 0.89549 0.63267 0.0
C86 C 0.8466 0.94666 0.62432 0.0
C87 C 0.86193 0.96636 0.62892 0.0
C88 C 0.87233 0.93626 0.62334 0.0
H89 H 0.87677 0.925 0.62096 0.0
C90 C 0.88751 0.95575 0.62795 0.0
H91 H 0.83079 0.94321 0.6229 0.0
C92 C 0.8824 0.97076 0.63064 0.0
H93 H 0.89443 0.98579 0.63424 0.0
H94 H 0.90333 0.95928 0.62935 0.0
H95 H 0.09022 0.89511 0.59953 0.0
C96 C 0.10333 0.90801 0.60536 0.0
C97 C 0.12291 0.91613 0.59788 0.0
C98 C 0.10027 0.91746 0.61954 0.0
H99 H 0.15478 0.93966 0.59959 0.0
C100 C 0.13966 0.93334 0.60524 0.0
C101 C 0.13697 0.94296 0.61944 0.0
C102 C 0.11721 0.93495 0.62646 0.0
C103 C 0.07911 0.91058 0.62592 0.0
H104 H 0.11497 0.94242 0.6373 0.0
C105 C 0.06518 0.8901 0.62974 0.0
C106 C 0.04517 0.88413 0.63579 0.0
C107 C 0.07269 0.92485 0.62789 0.0
H108 H 0.08291 0.94058 0.62482 0.0
C109 C 0.0529 0.919 0.63345 0.0
H110 H 0.07011 0.87904 0.62846 0.0
C111 C 0.03925 0.89888 0.63732 0.0
H112 H 0.02389 0.89487 0.64137 0.0
H113 H 0.04808 0.93012 0.6347 0.0
H114 H 0.86433 0.4421 0.76117 0.0
C115 C 0.86462 0.42922 0.75572 0.0
C116 C 0.87754 0.42273 0.76287 0.0
C117 C 0.85159 0.41876 0.74189 0.0
H118 H 0.88694 0.40025 0.76149 0.0
C119 C 0.87759 0.40584 0.75579 0.0
C120 C 0.86474 0.39526 0.74203 0.0
C121 C 0.85176 0.40175 0.73516 0.0
C122 C 0.83692 0.42481 0.7351 0.0
H123 H 0.84186 0.39356 0.72449 0.0
C124 C 0.84297 0.44529 0.7325 0.0
C125 C 0.82873 0.45077 0.72642 0.0
C126 C 0.81647 0.40992 0.73148 0.0
H127 H 0.81124 0.3941 0.7336 0.0
C128 C 0.80239 0.41527 0.7254 0.0
H129 H 0.85867 0.45693 0.73524 0.0
C130 C 0.80842 0.43551 0.72289 0.0
H131 H 0.79721 0.43921 0.71798 0.0
H132 H 0.7867 0.40367 0.72265 0.0
H133 H 0.57344 0.43084 0.75994 0.0
C134 C 0.5864 0.44401 0.75442 0.0
C135 C 0.59385 0.46303 0.76219 0.0
C136 C 0.59598 0.4418 0.73989 0.0
H137 H 0.61708 0.49461 0.76137 0.0
C138 C 0.61106 0.47997 0.75527 0.0
C139 C 0.62081 0.47813 0.74071 0.0
C140 C 0.613 0.45905 0.73299 0.0
C141 C 0.58952 0.42132 0.73287 0.0
H142 H 0.62061 0.45753 0.72185 0.0
C143 C 0.56854 0.40659 0.73041 0.0
C144 C 0.56295 0.38722 0.72389 0.0
C145 C 0.6047 0.41629 0.72903 0.0
H146 H 0.62086 0.42707 0.73109 0.0
C147 C 0.59927 0.39716 0.72289 0.0
H148 H 0.55671 0.41036 0.73314 0.0
C149 C 0.57864 0.38274 0.72037 0.0
H150 H 0.57499 0.36792 0.71582 0.0
H151 H 0.61112 0.39343 0.72017 0.0
H152 H 0.58992 0.1461 0.7561 0.0
C153 C 0.57623 0.14462 0.75009 0.0
C154 C 0.557 0.13377 0.7583 0.0
C155 C 0.57813 0.15469 0.73464 0.0
H156 H 0.5246 0.12404 0.7563 0.0
C157 C 0.53959 0.13294 0.75057 0.0
C158 C 0.54113 0.14348 0.73554 0.0
C159 C 0.56037 0.15382 0.72747 0.0
C160 C 0.59883 0.16785 0.72675 0.0
H161 H 0.56167 0.16183 0.7158 0.0
C162 C 0.61436 0.16237 0.7261 0.0
C163 C 0.63369 0.17535 0.71846 0.0
C164 C 0.60318 0.18655 0.7199 0.0
H165 H 0.59211 0.19168 0.72065 0.0
C166 C 0.6219 0.19909 0.71211 0.0
H167 H 0.61144 0.14819 0.73151 0.0
C168 C 0.63691 0.19353 0.71125 0.0
H169 H 0.65112 0.20356 0.70477 0.0
H170 H 0.62482 0.21327 0.7067 0.0
H171 H 0.78284 0.53291 0.93253 0.0
C172 C 0.76993 0.53317 0.93841 0.0
C173 C 0.76119 0.54366 0.93047 0.0
C174 C 0.76163 0.52241 0.95355 0.0
H175 H 0.73661 0.55051 0.93146 0.0
C176 C 0.74398 0.54332 0.93795 0.0
C177 C 0.7355 0.53294 0.9532 0.0
C178 C 0.74467 0.52278 0.96097 0.0
C179 C 0.76912 0.50907 0.96071 0.0
H180 H 0.73846 0.51496 0.97283 0.0
C181 C 0.79028 0.5147 0.9611 0.0
C182 C 0.79643 0.50107 0.96713 0.0
C183 C 0.75452 0.48978 0.96659 0.0
H184 H 0.7382 0.48467 0.96612 0.0
C185 C 0.76059 0.47651 0.97274 0.0
H186 H 0.80182 0.52943 0.9566 0.0
C187 C 0.7813 0.48204 0.97299 0.0
H188 H 0.78554 0.47138 0.97788 0.0
H189 H 0.74913 0.46174 0.97721 0.0
H190 H 0.50108 0.262 0.92708 0.0
C191 C 0.5007 0.24888 0.93266 0.0
C192 C 0.48807 0.22968 0.92542 0.0
C193 C 0.51382 0.25141 0.9464 0.0
H194 H 0.47845 0.19802 0.92695 0.0
C195 C 0.48817 0.21287 0.93246 0.0
C196 C 0.50102 0.21507 0.94629 0.0
C197 C 0.51388 0.23442 0.95313 0.0
C198 C 0.52841 0.27192 0.95305 0.0
H199 H 0.52385 0.23626 0.96382 0.0
C200 C 0.52183 0.28585 0.95684 0.0
C201 C 0.53588 0.30531 0.96311 0.0
C202 C 0.54921 0.27771 0.95545 0.0
H203 H 0.55473 0.2674 0.95244 0.0
C204 C 0.56322 0.29701 0.96139 0.0
H205 H 0.50572 0.28131 0.95532 0.0
C206 C 0.55668 0.31073 0.96516 0.0
H207 H 0.56801 0.32569 0.96954 0.0
H208 H 0.57926 0.30139 0.96301 0.0
H209 H 0.75573 0.23145 0.93188 0.0
C210 C 0.76901 0.24467 0.93715 0.0
C211 C 0.78825 0.25267 0.929 0.0
C212 C 0.7667 0.25403 0.9518 0.0
H213 H 0.81993 0.27703 0.92937 0.0
C214 C 0.80525 0.27014 0.93584 0.0
C215 C 0.80336 0.27956 0.95049 0.0
C216 C 0.78414 0.27132 0.95845 0.0
C217 C 0.74602 0.24685 0.95963 0.0
H218 H 0.78281 0.27851 0.9699 0.0
C219 C 0.7312 0.22607 0.96119 0.0
C220 C 0.71188 0.21992 0.96887 0.0
C221 C 0.74102 0.26124 0.9656 0.0
H222 H 0.75161 0.27725 0.96418 0.0
C223 C 0.72224 0.25528 0.97339 0.0
H224 H 0.73468 0.2148 0.95647 0.0
C225 C 0.7079 0.23489 0.97516 0.0
H226 H 0.69365 0.23089 0.98164 0.0
H227 H 0.71878 0.26656 0.97812 0.0
H228 H 0.53324 0.77731 0.09469 0.0
C229 C 0.53334 0.76452 0.08881 0.0
C230 C 0.5457 0.75725 0.09571 0.0
C231 C 0.52055 0.75493 0.07469 0.0
H232 H 0.55397 0.73408 0.09392 0.0
C233 C 0.54527 0.74035 0.08815 0.0
C234 C 0.53296 0.73081 0.07379 0.0
C235 C 0.52068 0.73829 0.06713 0.0
C236 C 0.50584 0.76124 0.06864 0.0
H237 H 0.51114 0.73118 0.05602 0.0
C238 C 0.51202 0.78178 0.06634 0.0
C239 C 0.49754 0.78747 0.06154 0.0
C240 C 0.48511 0.74654 0.06581 0.0
H241 H 0.47987 0.73067 0.06767 0.0
C242 C 0.47079 0.75217 0.06101 0.0
H243 H 0.52795 0.79329 0.0684 0.0
C244 C 0.4769 0.7725 0.05897 0.0
H245 H 0.46553 0.77655 0.0552 0.0
H246 H 0.45485 0.74074 0.05897 0.0
H247 H 0.24403 0.76537 0.09359 0.0
C248 C 0.25604 0.77847 0.08718 0.0
C249 C 0.26391 0.79769 0.09465 0.0
C250 C 0.26399 0.77602 0.07177 0.0
H251 H 0.28673 0.82915 0.0929 0.0
C252 C 0.28005 0.81457 0.08663 0.0
C253 C 0.28829 0.81258 0.07116 0.0
C254 C 0.27979 0.79323 0.06371 0.0
C255 C 0.25714 0.75542 0.06478 0.0
H256 H 0.28555 0.79146 0.0516 0.0
C257 C 0.23623 0.73996 0.06492 0.0
C258 C 0.23037 0.72036 0.05892 0.0
C259 C 0.27194 0.75096 0.05844 0.0
H260 H 0.28814 0.76228 0.05845 0.0
C261 C 0.26618 0.73172 0.05234 0.0
H262 H 0.2246 0.7431 0.06976 0.0
C263 C 0.2456 0.71653 0.05258 0.0
H264 H 0.24158 0.70177 0.0476 0.0
H265 H 0.27774 0.72852 0.04748 0.0
H266 H 0.25392 0.47318 0.09027 0.0
C267 C 0.24098 0.47368 0.08464 0.0
C268 C 0.22151 0.46313 0.09239 0.0
C269 C 0.24401 0.48542 0.07003 0.0
H270 H 0.19006 0.45678 0.09142 0.0
C271 C 0.20496 0.46449 0.08533 0.0
C272 C 0.20746 0.47598 0.07071 0.0
C273 C 0.22696 0.48608 0.06299 0.0
C274 C 0.26525 0.49871 0.06318 0.0
H275 H 0.22902 0.49506 0.05178 0.0
C276 C 0.2802 0.49251 0.06232 0.0
C277 C 0.30046 0.50606 0.05676 0.0
C278 C 0.27097 0.51849 0.05818 0.0
H279 H 0.26025 0.52403 0.05904 0.0
C280 C 0.29079 0.53169 0.05246 0.0
H281 H 0.27623 0.4774 0.06613 0.0
C282 C 0.30542 0.5256 0.0518 0.0
H283 H 0.32072 0.53622 0.04731 0.0
H284 H 0.29491 0.54685 0.04869 0.0
H285 H 0.45245 0.87004 0.26485 0.0
C286 C 0.43945 0.87015 0.2707 0.0
C287 C 0.43127 0.88136 0.26319 0.0
C288 C 0.43049 0.85854 0.28536 0.0
H289 H 0.40716 0.88893 0.26451 0.0
C290 C 0.41383 0.88075 0.27046 0.0
C291 C 0.40461 0.86937 0.28511 0.0
C292 C 0.41332 0.85868 0.29265 0.0
C293 C 0.4374 0.84449 0.29198 0.0
H294 H 0.4062 0.84981 0.3039 0.0
C295 C 0.45846 0.8498 0.29282 0.0
C296 C 0.46408 0.83555 0.29831 0.0
C297 C 0.42235 0.82489 0.29684 0.0
H298 H 0.40611 0.82003 0.29597 0.0
C299 C 0.42788 0.81102 0.30245 0.0
H300 H 0.47035 0.86475 0.28909 0.0
C301 C 0.44849 0.81624 0.30316 0.0
H302 H 0.45228 0.8051 0.30763 0.0
H303 H 0.41607 0.79602 0.30614 0.0
H304 H 0.1653 0.59389 0.26159 0.0
C305 C 0.16432 0.58027 0.26664 0.0
C306 C 0.15364 0.56207 0.25745 0.0
C307 C 0.17458 0.58123 0.28187 0.0
H308 H 0.14545 0.5308 0.25642 0.0
C309 C 0.15335 0.5447 0.26369 0.0
C310 C 0.16315 0.54517 0.27913 0.0
C311 C 0.17353 0.56355 0.28817 0.0
C312 C 0.18748 0.60087 0.29072 0.0
H313 H 0.18076 0.56421 0.30027 0.0
C314 C 0.18046 0.61472 0.29319 0.0
C315 C 0.193 0.63333 0.30155 0.0
C316 C 0.20725 0.60596 0.29653 0.0
H317 H 0.21319 0.5958 0.29457 0.0
C318 C 0.21977 0.6244 0.3046 0.0
H319 H 0.16512 0.61078 0.28901 0.0
C320 C 0.21278 0.63801 0.30708 0.0
H321 H 0.22301 0.65235 0.31317 0.0
H322 H 0.23504 0.62823 0.30888 0.0
H323 H 0.42195 0.56191 0.26382 0.0
C324 C 0.4352 0.57494 0.26935 0.0
C325 C 0.45473 0.58202 0.26207 0.0
C326 C 0.43266 0.58491 0.28343 0.0
H327 H 0.48678 0.60468 0.26333 0.0
C328 C 0.47181 0.59927 0.26901 0.0
C329 C 0.46974 0.60987 0.2828 0.0
C330 C 0.4501 0.60229 0.29007 0.0
C331 C 0.41172 0.57814 0.29059 0.0
H332 H 0.44826 0.61022 0.30072 0.0
C333 C 0.39664 0.55743 0.29214 0.0
C334 C 0.377 0.55155 0.29906 0.0
C335 C 0.40667 0.59274 0.29583 0.0
H336 H 0.41744 0.60871 0.29436 0.0
C337 C 0.38757 0.58706 0.3029 0.0
H338 H 0.40015 0.54599 0.28799 0.0
C339 C 0.37295 0.56673 0.30464 0.0
H340 H 0.35845 0.56296 0.31054 0.0
H341 H 0.38406 0.5985 0.30707 0.0
Tb342 Tb 0.50173 0.99708 0.9885 0.0
C343 C 0.5393 0.0602 0.0448 0.0
C344 C 0.57512 0.06943 0.04365 0.0
C345 C 0.56578 0.09434 0.05228 0.0
C346 C 0.5541 0.05514 0.04134 0.0
C347 C 0.54485 0.07963 0.05085 0.0
C348 C 0.58092 0.08926 0.04861 0.0
C349 C 0.50877 0.06768 0.0556 0.0
N350 N 0.51934 0.04547 0.04343 0.0
C351 C 0.5041 0.04861 0.04953 0.0
C352 C 0.52921 0.08339 0.05594 0.0
Tb353 Tb 0.51295 0.01508 0.03232 0.0
N354 N 0.54775 0.03578 0.03678 0.0
C355 C 0.56174 0.0293 0.03577 0.0
C356 C 0.58958 0.06316 0.04152 0.0
C357 C 0.58281 0.04291 0.03791 0.0
H358 H 0.48823 0.0366 0.04908 0.0
H359 H 0.59382 0.03777 0.03661 0.0
H360 H 0.59701 0.10055 0.05023 0.0
H361 H 0.49659 0.07027 0.05991 0.0
H362 H 0.55696 0.01381 0.03278 0.0
H363 H 0.42097 0.97289 0.98092 0.0
H364 H 0.60589 0.07367 0.04313 0.0
H365 H 0.52864 0.97741 0.97262 0.0
H366 H 0.45712 0.99678 0.9878 0.0
H367 H 0.522 0.94479 0.96062 0.0
H368 H 0.57042 0.10943 0.05677 0.0
H369 H 0.41056 0.93814 0.97141 0.0
H370 H 0.4206 0.91221 0.96437 0.0
H371 H 0.53279 0.09813 0.06067 0.0
H372 H 0.44822 0.90436 0.95914 0.0
N373 N 0.46737 0.97574 0.98304 0.0
C374 C 0.45295 0.98168 0.98388 0.0
C375 C 0.42643 0.94848 0.97483 0.0
C376 C 0.4413 0.94269 0.97335 0.0
C377 C 0.4323 0.96811 0.98001 0.0
C378 C 0.46191 0.95694 0.97735 0.0
H379 H 0.4862 0.91658 0.95738 0.0
N380 N 0.49698 0.96753 0.9768 0.0
C381 C 0.50926 0.94673 0.96449 0.0
C382 C 0.47731 0.95262 0.97423 0.0
C383 C 0.51296 0.96521 0.97126 0.0
C384 C 0.48905 0.93082 0.96275 0.0
C385 C 0.47273 0.93381 0.96726 0.0
O386 O 0.5196 0.00707 0.96617 0.0
O387 O 0.52319 0.01877 0.00638 0.0
O388 O 0.51019 0.03809 0.0181 0.0
O389 O 0.4927 0.02001 0.99359 0.0
O390 O 0.53522 0.00953 0.98775 0.0
O391 O 0.49329 0.01083 0.96952 0.0
O392 O 0.49458 0.00524 0.05435 0.0
O393 O 0.49113 0.99308 0.01452 0.0
O394 O 0.50451 0.97399 0.00258 0.0
O395 O 0.52132 0.99165 0.02746 0.0
O396 O 0.47979 0.00384 0.03272 0.0
O397 O 0.52148 1.00228 0.05214 0.0
C398 C 0.54003 0.02178 1.0004 0.0
C399 C 0.50173 0.00735 0.94138 0.0
C400 C 0.5039 0.01693 0.91152 0.0
C401 C 0.51089 0.02184 0.92846 0.0
C402 C 0.48798 0.99731 0.90763 0.0
C403 C 0.48598 0.98781 0.93717 0.0
C404 C 0.47922 0.98282 0.92037 0.0
C405 C 0.49996 0.03604 0.00378 0.0
C406 C 0.50788 0.01314 0.95925 0.0
C407 C 0.45211 0.919 0.96431 0.0
C408 C 0.4364 0.92347 0.96729 0.0
C409 C 0.47456 0.99116 0.02034 0.0
C410 C 0.51214 0.00679 0.07977 0.0
C411 C 0.50232 0.99322 0.09323 0.0
C412 C 0.50748 0.99963 0.1103 0.0
C413 C 0.52271 0.01979 0.1136 0.0
C414 C 0.5273 0.02674 0.08346 0.0
C415 C 0.5325 0.03318 0.10027 0.0
C416 C 0.51477 0.97604 0.01688 0.0
C417 C 0.50654 0.99996 0.062 0.0
H418 H 0.52295 0.03703 0.93164 0.0
H419 H 0.48239 0.99318 0.89469 0.0
H420 H 0.47869 0.97651 0.94686 0.0
H421 H 0.46699 0.96773 0.91725 0.0
H422 H 0.49055 0.97781 0.09039 0.0
H423 H 0.52732 0.02516 0.12652 0.0
H424 H 0.53519 0.03731 0.07336 0.0
H425 H 0.54427 0.0486 0.10299 0.0
Tb426 Tb 0.01958 0.50555 0.99145 0.0
C427 C 0.95758 0.47913 0.05042 0.0
C428 C 0.94648 0.50384 0.0515 0.0
C429 C 0.92452 0.47028 0.06289 0.0
C430 C 0.96105 0.49818 0.04684 0.0
C431 C 0.93936 0.46496 0.05862 0.0
C432 C 0.92801 0.48966 0.05922 0.0
C433 C 0.95273 0.44208 0.05923 0.0
N434 N 0.97274 0.47497 0.04684 0.0
C435 C 0.97075 0.45683 0.05148 0.0
C436 C 0.93692 0.44612 0.06276 0.0
Tb437 Tb 1.0021 0.50036 0.03479 0.0
N438 N 0.97953 0.51169 0.0402 0.0
C439 C 0.98486 0.53153 0.03885 0.0
C440 C 0.95139 0.52385 0.04911 0.0
C441 C 0.97081 0.53783 0.04303 0.0
H442 H 0.98286 0.45349 0.04896 0.0
H443 H 0.97501 0.5535 0.04157 0.0
H444 H 0.9166 0.4937 0.06284 0.0
H445 H 0.95113 0.42766 0.0626 0.0
H446 H 0.99983 0.54264 0.03431 0.0
H447 H 0.04485 0.45119 0.98344 0.0
H448 H 0.94062 0.52881 0.05249 0.0
H449 H 0.04012 0.55289 0.97821 0.0
H450 H 0.02043 0.46249 0.99079 0.0
H451 H 0.07334 0.57932 0.96686 0.0
H452 H 0.9104 0.45961 0.06918 0.0
H453 H 0.07992 0.47592 0.97363 0.0
H454 H 0.10596 0.5118 0.96672 0.0
H455 H 0.9231 0.43477 0.06898 0.0
H456 H 0.11387 0.54684 0.96247 0.0
N457 N 0.04148 0.49355 0.98584 0.0
C458 C 0.03568 0.47355 0.98674 0.0
C459 C 0.06935 0.48102 0.97722 0.0
C460 C 0.07505 0.50137 0.97591 0.0
C461 C 0.04955 0.46703 0.9826 0.0
C462 C 0.0605 0.50717 0.98019 0.0
H463 H 0.10169 0.57214 0.96228 0.0
N464 N 0.04977 0.53112 0.98071 0.0
C465 C 0.0712 0.56461 0.9699 0.0
C466 C 0.06489 0.52673 0.97766 0.0
C467 C 0.05237 0.54956 0.97631 0.0
C468 C 0.08719 0.56052 0.96739 0.0
C469 C 0.08402 0.54126 0.97097 0.0
O470 O 0.00908 0.51256 0.96908 0.0
O471 O 0.99752 0.50569 0.00875 0.0
O472 O 0.9774 0.47557 0.02032 0.0
O473 O 0.99644 0.47384 0.99761 0.0
O474 O 1.00709 0.52617 0.99009 0.0
O475 O 1.00632 0.48336 0.97227 0.0
O476 O 0.01306 0.49468 0.05762 0.0
O477 O 0.02393 0.49968 0.01738 0.0
O478 O 0.04398 0.53002 0.00633 0.0
O479 O 0.02446 0.53211 0.02831 0.0
O480 O 0.01432 0.47956 0.03652 0.0
O481 O 0.01668 0.52395 0.05259 0.0
C482 C 0.99451 0.51918 0.0026 0.0
C483 C 0.01025 0.49577 0.9443 0.0
C484 C 1.00146 0.48846 0.91418 0.0
C485 C 0.99542 0.48759 0.93126 0.0
C486 C 0.0226 0.49768 0.91045 0.0
C487 C 0.03115 0.50468 0.94026 0.0
C488 C 0.03728 0.50563 0.92343 0.0
C489 C 0.97951 0.46597 0.00707 0.0
C490 C 1.00366 0.49518 0.96199 0.0
C491 C 0.09901 0.53587 0.9675 0.0
C492 C 0.0945 0.51592 0.96992 0.0
C493 C 0.02647 0.48596 0.02374 0.0
C494 C 0.01413 0.51435 0.08126 0.0
C495 C 0.02961 0.5217 0.09379 0.0
C496 C 0.02504 0.52382 0.11077 0.0
C497 C 1.00472 0.51844 0.11498 0.0
C498 C 0.994 0.50909 0.08574 0.0
C499 C 0.98933 0.51112 0.10253 0.0
C500 C 0.04165 0.53978 0.01929 0.0
C501 C 0.01941 0.5128 0.06356 0.0
H502 H 0.97923 0.48045 0.93445 0.0
H503 H 0.02787 0.49907 0.89747 0.0
H504 H 0.04276 0.51101 0.95002 0.0
H505 H 0.05349 0.51269 0.92042 0.0
H506 H 0.04524 0.52601 0.09027 0.0
H507 H 1.00063 0.51959 0.12797 0.0
H508 H 0.98192 0.50352 0.07633 0.0
H509 H 0.97373 0.50697 0.1059 0.0
Tb510 Tb 0.5223 0.5082 0.03401 0.0
C511 C 0.47839 0.52794 0.9786 0.0
C512 C 0.44271 0.50208 0.98155 0.0
C513 C 0.45137 0.53539 0.97141 0.0
C514 C 0.46386 0.50862 0.98311 0.0
C515 C 0.4724 0.54146 0.97231 0.0
C516 C 0.43653 0.51572 0.97606 0.0
C517 C 0.50827 0.56523 0.96702 0.0
N518 N 0.49848 0.53313 0.97963 0.0
C519 C 0.51341 0.55121 0.97329 0.0
C520 C 0.48769 0.56044 0.96673 0.0
Tb521 Tb 0.5055 0.50964 0.99098 0.0
N522 N 0.47052 0.49597 0.98832 0.0
C523 C 0.45667 0.47601 0.99099 0.0
C524 C 0.42846 0.48196 0.98523 0.0
C525 C 0.43549 0.46879 0.98972 0.0
H526 H 0.52937 0.55508 0.9736 0.0
H527 H 0.42461 0.4531 0.9923 0.0
H528 H 0.42035 0.51107 0.97498 0.0
H529 H 0.52018 0.57971 0.96243 0.0
H530 H 0.46175 0.46562 0.99462 0.0
H531 H 0.60379 0.56288 0.03427 0.0
H532 H 0.41206 0.47634 0.98429 0.0
H533 H 0.49659 0.46228 0.05074 0.0
H534 H 0.56698 0.5514 0.03093 0.0
H535 H 0.5044 0.43692 0.06226 0.0
H536 H 0.44642 0.54562 0.96679 0.0
H537 H 0.615 0.53887 0.04316 0.0
H538 H 0.60531 0.50388 0.05279 0.0
H539 H 0.48374 0.5713 0.96182 0.0
H540 H 0.57823 0.46955 0.06047 0.0
N541 N 0.55704 0.52086 0.03752 0.0
C542 C 0.57146 0.54067 0.03492 0.0
C543 C 0.59873 0.53371 0.04176 0.0
C544 C 0.5839 0.51372 0.0453 0.0
C545 C 0.59246 0.5473 0.03678 0.0
C546 C 0.56295 0.50778 0.04315 0.0
H547 H 0.5405 0.44446 0.06419 0.0
N548 N 0.52795 0.48393 0.04574 0.0
C549 C 0.51678 0.45138 0.05808 0.0
C550 C 0.54785 0.48859 0.04743 0.0
C551 C 0.51242 0.46585 0.05158 0.0
C552 C 0.53717 0.45568 0.05913 0.0
C553 C 0.55305 0.47461 0.05402 0.0
O554 O 0.50568 0.5034 0.05666 0.0
O555 O 0.49819 0.50612 0.01763 0.0
O556 O 0.50788 0.53557 0.0047 0.0
O557 O 0.53098 0.53925 0.02626 0.0
O558 O 0.48928 0.48696 0.03755 0.0
O559 O 0.53361 0.5315 0.05238 0.0
O560 O 0.52118 0.51539 0.96771 0.0
O561 O 0.52963 0.51202 0.00738 0.0
O562 O 0.52087 0.4828 0.02023 0.0
O563 O 0.49818 0.47875 0.99819 0.0
O564 O 0.53861 0.53058 0.98705 0.0
O565 O 0.49466 0.48634 0.97269 0.0
C566 C 0.48242 0.49273 0.02509 0.0
C567 C 0.52508 0.52059 0.08082 0.0
C568 C 0.5217 0.52586 0.11111 0.0
C569 C 0.51704 0.52716 0.09391 0.0
C570 C 0.53452 0.51776 0.11482 0.0
C571 C 0.53813 0.51303 0.08489 0.0
C572 C 0.54277 0.51159 0.1018 0.0
C573 C 0.52103 0.54618 0.01699 0.0
C574 C 0.51895 0.52086 0.06309 0.0
C575 C 0.57388 0.48013 0.05559 0.0
C576 C 0.58929 0.49967 0.05122 0.0
C577 C 0.54544 0.52512 0.99978 0.0
C578 C 0.5009 0.49721 0.94412 0.0
C579 C 0.50975 0.49249 0.93038 0.0
C580 C 0.50326 0.49263 0.91354 0.0
C581 C 0.48782 0.4977 0.91079 0.0
C582 C 0.48536 0.50188 0.94103 0.0
C583 C 0.47891 0.50216 0.92445 0.0
C584 C 0.50852 0.47226 0.00749 0.0
C585 C 0.50838 0.49761 0.96152 0.0
H586 H 0.50726 0.53332 0.09061 0.0
H587 H 0.53801 0.51588 0.12782 0.0
H588 H 0.54457 0.50806 0.07504 0.0
H589 H 0.55265 0.50547 0.10485 0.0
H590 H 0.52153 0.48856 0.93289 0.0
H591 H 0.48277 0.49849 0.89806 0.0
H592 H 0.47824 0.50536 0.95137 0.0
H593 H 0.46703 0.50598 0.92215 0.0
Tb594 Tb 0.16508 0.32919 0.32307 0.0
C595 C 0.20629 0.39262 0.37906 0.0
C596 C 0.24227 0.40299 0.37604 0.0
C597 C 0.23242 0.42704 0.38614 0.0
C598 C 0.22129 0.38822 0.37451 0.0
C599 C 0.21159 0.41191 0.38535 0.0
C600 C 0.24776 0.42259 0.38145 0.0
C601 C 0.1755 0.39926 0.39076 0.0
N602 N 0.18643 0.37758 0.37806 0.0
C603 C 0.17106 0.38037 0.38443 0.0
C604 C 0.19583 0.41519 0.39101 0.0
Tb605 Tb 0.18043 0.34756 0.36641 0.0
N606 N 0.21526 0.36909 0.36942 0.0
C607 C 0.22963 0.36331 0.367 0.0
C608 C 0.25704 0.39744 0.37253 0.0
C609 C 0.25067 0.37741 0.36829 0.0
H610 H 0.15527 0.3682 0.38411 0.0
H611 H 0.26196 0.37284 0.36589 0.0
H612 H 0.26379 0.43424 0.38249 0.0
H613 H 0.16323 0.40154 0.3954 0.0
H614 H 0.2251 0.34799 0.36353 0.0
H615 H 0.08338 0.30269 0.32097 0.0
H616 H 0.27333 0.40834 0.37348 0.0
H617 H 0.19183 0.30893 0.30755 0.0
H618 H 0.12001 0.32791 0.32463 0.0
H619 H 0.1849 0.27571 0.29684 0.0
H620 H 0.23684 0.44205 0.39073 0.0
H621 H 0.07294 0.26751 0.31304 0.0
H622 H 0.08345 0.24213 0.30465 0.0
H623 H 0.19924 0.4298 0.39594 0.0
H624 H 0.11112 0.23476 0.29804 0.0
N625 N 0.13054 0.30726 0.31917 0.0
C626 C 0.11584 0.3127 0.32106 0.0
C627 C 0.08912 0.27855 0.31458 0.0
C628 C 0.10428 0.27334 0.31173 0.0
C629 C 0.09496 0.2984 0.31901 0.0
C630 C 0.12508 0.28827 0.31402 0.0
H631 H 0.14908 0.24726 0.29493 0.0
N632 N 0.16026 0.29929 0.31206 0.0
C633 C 0.17227 0.27785 0.30065 0.0
C634 C 0.14051 0.28412 0.31031 0.0
C635 C 0.17613 0.29668 0.30667 0.0
C636 C 0.15203 0.26181 0.29962 0.0
C637 C 0.1358 0.26493 0.30421 0.0
O638 O 0.18177 0.33966 0.30033 0.0
O639 O 0.18822 0.35115 0.33986 0.0
O640 O 0.17717 0.37053 0.35274 0.0
O641 O 0.15593 0.35172 0.33001 0.0
O642 O 0.19844 0.34157 0.32017 0.0
O643 O 0.15412 0.34105 0.30425 0.0
O644 O 0.1643 0.33745 0.38947 0.0
O645 O 0.15703 0.32605 0.34955 0.0
O646 O 0.1668 0.30574 0.33738 0.0
O647 O 0.18918 0.3248 0.35929 0.0
O648 O 0.14718 0.33558 0.36958 0.0
O649 O 0.19093 0.3346 0.38455 0.0
C650 C 0.20446 0.35405 0.33273 0.0
C651 C 0.16238 0.33729 0.27595 0.0
C652 C 0.16421 0.34491 0.24556 0.0
C653 C 0.16976 0.35134 0.26259 0.0
C654 C 0.15139 0.32412 0.24224 0.0
C655 C 0.14939 0.31677 0.27227 0.0
C656 C 0.144 0.31024 0.2555 0.0
C657 C 0.16488 0.36822 0.33974 0.0
C658 C 0.1687 0.34416 0.29361 0.0
C659 C 0.1151 0.24968 0.30255 0.0
C660 C 0.09935 0.25388 0.30632 0.0
C661 C 0.14093 0.32352 0.35673 0.0
C662 C 0.18419 0.33863 0.41317 0.0
C663 C 0.17541 0.32486 0.42662 0.0
C664 C 0.18229 0.33082 0.4435 0.0
C665 C 0.19792 0.35086 0.44663 0.0
C666 C 0.1998 0.35846 0.41663 0.0
C667 C 0.20657 0.36452 0.43328 0.0
C668 C 0.17923 0.30791 0.35019 0.0
C669 C 0.17697 0.3321 0.39562 0.0
H670 H 0.17958 0.36724 0.26551 0.0
H671 H 0.14719 0.31848 0.22935 0.0
H672 H 0.14348 0.30578 0.28229 0.0
H673 H 0.13411 0.29433 0.25277 0.0
H674 H 0.16348 0.30947 0.42389 0.0
H675 H 0.20332 0.35609 0.45945 0.0
H676 H 0.20679 0.36923 0.40649 0.0
H677 H 0.21858 0.37989 0.43587 0.0
Tb678 Tb 0.68646 0.83814 0.32453 0.0
C679 C 0.62259 0.81003 0.3818 0.0
C680 C 0.6115 0.83475 0.3827 0.0
C681 C 0.58896 0.80086 0.39322 0.0
C682 C 0.62624 0.82918 0.37838 0.0
C683 C 0.60401 0.79566 0.38942 0.0
C684 C 0.59264 0.82034 0.38975 0.0
C685 C 0.61743 0.77282 0.39053 0.0
N686 N 0.6379 0.80594 0.37867 0.0
C687 C 0.63577 0.78774 0.3833 0.0
C688 C 0.60143 0.77675 0.39352 0.0
Tb689 Tb 0.66775 0.8316 0.36754 0.0
N690 N 0.64508 0.84291 0.37247 0.0
C691 C 0.65062 0.86284 0.3717 0.0
C692 C 0.61665 0.8549 0.38081 0.0
C693 C 0.63645 0.86908 0.37561 0.0
H694 H 0.64803 0.78451 0.38118 0.0
H695 H 0.64083 0.88483 0.37459 0.0
H696 H 0.58109 0.8243 0.39307 0.0
H697 H 0.61572 0.75835 0.39389 0.0
H698 H 0.66587 0.87408 0.3678 0.0
H699 H 0.71168 0.78369 0.3169 0.0
H700 H 0.60578 0.8598 0.38397 0.0
H701 H 0.70732 0.88551 0.31144 0.0
H702 H 0.68713 0.79499 0.3238 0.0
H703 H 0.74078 0.91197 0.30045 0.0
H704 H 0.57456 0.79003 0.39904 0.0
H705 H 0.74704 0.80848 0.30777 0.0
H706 H 0.77335 0.84443 0.30136 0.0
H707 H 0.58734 0.76526 0.39931 0.0
H708 H 0.78142 0.87953 0.29714 0.0
N709 N 0.70842 0.82611 0.31934 0.0
C710 C 0.70252 0.80607 0.32007 0.0
C711 C 0.73642 0.81358 0.3112 0.0
C712 C 0.74223 0.83397 0.31003 0.0
C713 C 0.71645 0.79956 0.31618 0.0
C714 C 0.72762 0.83978 0.31406 0.0
H715 H 0.76924 0.90482 0.29651 0.0
N716 N 0.71695 0.86378 0.31435 0.0
C717 C 0.73858 0.89726 0.30361 0.0
C718 C 0.73213 0.85939 0.31162 0.0
C719 C 0.71963 0.88221 0.30982 0.0
C720 C 0.75464 0.8932 0.30147 0.0
C721 C 0.7514 0.87394 0.30516 0.0
O722 O 0.67662 0.84585 0.30213 0.0
O723 O 0.66392 0.83775 0.34156 0.0
O724 O 0.64342 0.80723 0.35246 0.0
O725 O 0.66284 0.80624 0.32974 0.0
O726 O 0.67403 0.85882 0.32336 0.0
O727 O 0.67408 0.81667 0.30472 0.0
O728 O 0.67769 0.82475 0.39038 0.0
O729 O 0.69029 0.83171 0.35046 0.0
O730 O 0.71041 0.86252 0.33985 0.0
O731 O 0.69076 0.86359 0.36227 0.0
O732 O 0.67993 0.81075 0.36895 0.0
O733 O 0.68104 0.8541 0.38639 0.0
C734 C 0.6611 0.85145 0.3356 0.0
C735 C 0.67894 0.83014 0.27704 0.0
C736 C 0.67138 0.8244 0.2466 0.0
C737 C 0.66467 0.82295 0.26355 0.0
C738 C 0.69263 0.83331 0.24346 0.0
C739 C 0.69996 0.8387 0.27355 0.0
C740 C 0.70676 0.84032 0.25687 0.0
C741 C 0.64572 0.79809 0.33898 0.0
C742 C 0.67167 0.8288 0.29462 0.0
C743 C 0.76644 0.86854 0.30197 0.0
C744 C 0.76184 0.84856 0.30436 0.0
C745 C 0.69268 0.8178 0.35658 0.0
C746 C 0.67628 0.84234 0.41461 0.0
C747 C 0.68966 0.84544 0.42827 0.0
C748 C 0.68364 0.84607 0.44512 0.0
C749 C 0.66392 0.84341 0.44803 0.0
C750 C 0.65676 0.83981 0.41785 0.0
C751 C 0.6506 0.84025 0.43446 0.0
C752 C 0.70797 0.8717 0.35322 0.0
C753 C 0.68315 0.84232 0.39711 0.0
H754 H 0.64839 0.81604 0.26628 0.0
H755 H 0.6984 0.8351 0.23061 0.0
H756 H 0.71115 0.8442 0.28364 0.0
H757 H 0.72305 0.84711 0.25431 0.0
H758 H 0.70471 0.8473 0.42574 0.0
H759 H 0.65892 0.84417 0.46077 0.0
H760 H 0.64637 0.83775 0.40759 0.0
H761 H 0.63554 0.83838 0.43682 0.0
Tb762 Tb 0.18632 0.83851 0.36891 0.0
C763 C 0.15434 0.869 0.31202 0.0
C764 C 0.11825 0.84381 0.3109 0.0
C765 C 0.12927 0.87849 0.30325 0.0
C766 C 0.13889 0.84945 0.31442 0.0
C767 C 0.14988 0.88367 0.30585 0.0
C768 C 0.11344 0.85858 0.30585 0.0
C769 C 0.18646 0.90648 0.30325 0.0
N770 N 0.17397 0.87316 0.31437 0.0
C771 C 0.19005 0.89133 0.30934 0.0
C772 C 0.16629 0.90275 0.30176 0.0
Tb773 Tb 0.17856 0.84787 0.3252 0.0
N774 N 0.14433 0.83567 0.31893 0.0
C775 C 0.12989 0.81554 0.31872 0.0
C776 C 0.10323 0.8234 0.31187 0.0
C777 C 0.10916 0.80916 0.31544 0.0
H778 H 0.20569 0.89439 0.31059 0.0
H779 H 0.09776 0.79326 0.3158 0.0
H780 H 0.09765 0.8546 0.30328 0.0
H781 H 0.19925 0.92102 0.29973 0.0
H782 H 0.13404 0.80427 0.32161 0.0
H783 H 0.26695 0.88914 0.38185 0.0
H784 H 0.08718 0.81842 0.30933 0.0
H785 H 0.15545 0.79004 0.37834 0.0
H786 H 0.23216 0.87991 0.37195 0.0
H787 H 0.15876 0.76217 0.3904 0.0
H788 H 0.12544 0.88955 0.29864 0.0
H789 H 0.27374 0.86299 0.39334 0.0
H790 H 0.25967 0.82689 0.40232 0.0
H791 H 0.16356 0.91444 0.29689 0.0
H792 H 0.23065 0.79216 0.40368 0.0
N793 N 0.21953 0.84847 0.3765 0.0
C794 C 0.23495 0.86819 0.37649 0.0
C795 C 0.25853 0.85872 0.38858 0.0
C796 C 0.24248 0.83868 0.38926 0.0
C797 C 0.25473 0.87354 0.38218 0.0
C798 C 0.22298 0.83396 0.38289 0.0
H799 H 0.19293 0.76779 0.39916 0.0
N800 N 0.18768 0.81122 0.3793 0.0
C801 C 0.17232 0.77684 0.38872 0.0
C802 C 0.20648 0.81461 0.38427 0.0
C803 C 0.17053 0.79275 0.38189 0.0
C804 C 0.19164 0.78005 0.39359 0.0
C805 C 0.20897 0.79922 0.39171 0.0
O806 O 0.16604 0.8308 0.38958 0.0
O807 O 0.1662 0.8407 0.35048 0.0
O808 O 0.18073 0.87304 0.34015 0.0
O809 O 0.19668 0.8708 0.36508 0.0
O810 O 0.15284 0.81818 0.36763 0.0
O811 O 0.19513 0.85855 0.38978 0.0
O812 O 0.19774 0.85643 0.30369 0.0
O813 O 0.1991 0.84653 0.34372 0.0
O814 O 0.1874 0.81544 0.35345 0.0
O815 O 0.16886 0.81569 0.32973 0.0
O816 O 0.21201 0.86861 0.32618 0.0
O817 O 0.171 0.82687 0.30527 0.0
C818 C 0.14894 0.82667 0.35528 0.0
C819 C 0.18119 0.8436 0.41639 0.0
C820 C 0.17329 0.84522 0.44627 0.0
C821 C 0.17179 0.84929 0.42903 0.0
C822 C 0.18443 0.83559 0.45069 0.0
C823 C 0.19247 0.8343 0.42115 0.0
C824 C 0.19404 0.8303 0.4382 0.0
C825 C 0.19031 0.88039 0.35487 0.0
C826 C 0.17852 0.84685 0.39832 0.0
C827 C 0.22844 0.80369 0.39773 0.0
C828 C 0.24506 0.82345 0.39676 0.0
C829 C 0.21628 0.86073 0.33884 0.0
C830 C 0.18097 0.84086 0.27795 0.0
C831 C 0.1897 0.83516 0.26478 0.0
C832 C 0.18465 0.83611 0.24764 0.0
C833 C 0.17089 0.84308 0.24397 0.0
C834 C 0.16715 0.84754 0.27395 0.0
C835 C 0.16222 0.84872 0.25705 0.0
C836 C 0.17686 0.80705 0.33935 0.0
C837 C 0.18615 0.83944 0.29576 0.0
H838 H 0.16306 0.85652 0.42545 0.0
H839 H 0.18596 0.83247 0.46387 0.0
H840 H 0.20002 0.83008 0.41177 0.0
H841 H 0.20275 0.82306 0.44173 0.0
H842 H 0.20011 0.82967 0.26792 0.0
H843 H 0.16696 0.84438 0.23096 0.0
H844 H 0.16012 0.85179 0.28383 0.0
H845 H 0.15162 0.85401 0.25407 0.0
Tb846 Tb 0.83452 0.66282 0.6551 0.0
C847 C 0.86824 0.72167 0.71522 0.0
C848 C 0.90454 0.7326 0.71502 0.0
C849 C 0.89301 0.75517 0.72565 0.0
C850 C 0.88392 0.71794 0.71147 0.0
C851 C 0.87247 0.74007 0.72281 0.0
C852 C 0.90905 0.75145 0.72171 0.0
C853 C 0.8358 0.72646 0.72562 0.0
N854 N 0.84867 0.70663 0.71236 0.0
C855 C 0.83244 0.70846 0.71802 0.0
C856 C 0.85591 0.74246 0.7278 0.0
Tb857 Tb 0.84454 0.6779 0.69942 0.0
N858 N 0.87881 0.69945 0.70524 0.0
C859 C 0.89362 0.69412 0.70354 0.0
C860 C 0.91989 0.72764 0.71221 0.0
C861 C 0.91435 0.7082 0.7067 0.0
H862 H 0.81684 0.69625 0.71629 0.0
H863 H 0.92604 0.70404 0.70484 0.0
H864 H 0.92482 0.76302 0.72434 0.0
H865 H 0.8229 0.72799 0.72973 0.0
H866 H 0.88973 0.67923 0.69921 0.0
H867 H 0.75363 0.63572 0.64498 0.0
H868 H 0.93593 0.7385 0.71468 0.0
H869 H 0.86439 0.64435 0.6429 0.0
H870 H 0.78891 0.66001 0.65427 0.0
H871 H 0.86006 0.61332 0.62954 0.0
H872 H 0.89663 0.76953 0.73129 0.0
H873 H 0.74583 0.60304 0.63223 0.0
H874 H 0.75902 0.58063 0.62132 0.0
H875 H 0.85848 0.75636 0.7337 0.0
H876 H 0.78758 0.57388 0.61812 0.0
N877 N 0.80092 0.64076 0.64805 0.0
C878 C 0.78573 0.64562 0.64913 0.0
C879 C 0.76129 0.61343 0.63669 0.0
C880 C 0.77708 0.60888 0.63492 0.0
C881 C 0.76565 0.63191 0.6438 0.0
C882 C 0.79692 0.62294 0.64096 0.0
H883 H 0.82535 0.5859 0.6213 0.0
N884 N 0.83225 0.63434 0.64316 0.0
C885 C 0.84672 0.61486 0.63201 0.0
C886 C 0.81316 0.61957 0.63846 0.0
C887 C 0.8491 0.63248 0.63957 0.0
C888 C 0.8271 0.59939 0.62743 0.0
C889 C 0.81006 0.60181 0.6303 0.0
O890 O 0.85378 0.67543 0.63386 0.0
O891 O 0.85562 0.68384 0.67367 0.0
O892 O 0.84247 0.70189 0.68615 0.0
O893 O 0.82439 0.68472 0.66158 0.0
O894 O 0.86795 0.67513 0.65491 0.0
O895 O 0.82525 0.67556 0.6357 0.0
O896 O 0.82579 0.66548 0.72099 0.0
O897 O 0.82312 0.6574 0.68074 0.0
O898 O 0.83393 0.63804 0.66915 0.0
O899 O 0.85434 0.65587 0.6924 0.0
O900 O 0.81111 0.66599 0.6998 0.0
O901 O 0.85353 0.66412 0.71806 0.0
C902 C 0.87256 0.68696 0.66781 0.0
C903 C 0.8373 0.67464 0.60804 0.0
C904 C 0.84435 0.68429 0.5781 0.0
C905 C 0.84731 0.68956 0.59553 0.0
C906 C 0.83116 0.66401 0.57344 0.0
C907 C 0.82405 0.65461 0.60298 0.0
C908 C 0.82104 0.64933 0.58581 0.0
C909 C 0.83182 0.70045 0.67218 0.0
C910 C 0.84122 0.68 0.62627 0.0
C911 C 0.79026 0.58751 0.62463 0.0
C912 C 0.77391 0.59122 0.62666 0.0
C913 C 0.80626 0.65467 0.68651 0.0
C914 C 0.84341 0.66618 0.7461 0.0
C915 C 0.83297 0.65198 0.75902 0.0
C916 C 0.83744 0.65761 0.7763 0.0
C917 C 0.85256 0.67755 0.7804 0.0
C918 C 0.85856 0.68587 0.75057 0.0
C919 C 0.86306 0.69151 0.76761 0.0
C920 C 0.84542 0.63955 0.6825 0.0
C921 C 0.83824 0.66041 0.72806 0.0
H922 H 0.85757 0.70511 0.59932 0.0
H923 H 0.82842 0.65955 0.56017 0.0
H924 H 0.81603 0.64301 0.61226 0.0
H925 H 0.81078 0.6338 0.58206 0.0
H926 H 0.82123 0.63673 0.75565 0.0
H927 H 0.8565 0.68227 0.79353 0.0
H928 H 0.86696 0.6969 0.74093 0.0
H929 H 0.87479 0.70676 0.77091 0.0
Tb930 Tb 0.3507 0.17166 0.66068 0.0
C931 C 0.28911 0.14187 0.72018 0.0
C932 C 0.27701 0.16569 0.72299 0.0
C933 C 0.25652 0.1317 0.73409 0.0
C934 C 0.29172 0.16076 0.71717 0.0
C935 C 0.27144 0.12705 0.72858 0.0
C936 C 0.25953 0.15111 0.73161 0.0
C937 C 0.2859 0.1051 0.72756 0.0
N938 N 0.30462 0.1385 0.71585 0.0
C939 C 0.30344 0.1205 0.71977 0.0
C940 C 0.26979 0.10836 0.73196 0.0
Tb941 Tb 0.33329 0.16514 0.70417 0.0
N942 N 0.30964 0.17487 0.71011 0.0
C943 C 0.31398 0.19444 0.70887 0.0
C944 C 0.28087 0.18542 0.72084 0.0
C945 C 0.29949 0.19988 0.71378 0.0
H946 H 0.3158 0.11774 0.71664 0.0
H947 H 0.30286 0.21531 0.7124 0.0
H948 H 0.24858 0.15486 0.73693 0.0
H949 H 0.28493 0.09081 0.73035 0.0
H950 H 0.32855 0.20594 0.70392 0.0
H951 H 0.37789 0.11855 0.65332 0.0
H952 H 0.26988 0.18977 0.72502 0.0
H953 H 0.37068 0.21897 0.64754 0.0
H954 H 0.35224 0.12885 0.65907 0.0
H955 H 0.40399 0.24596 0.63682 0.0
H956 H 0.243 0.12067 0.74085 0.0
H957 H 0.41346 0.14408 0.64551 0.0
H958 H 0.43897 0.18026 0.63855 0.0
H959 H 0.2564 0.09655 0.73833 0.0
H960 H 0.44614 0.21505 0.63409 0.0
N961 N 0.37306 0.16017 0.65494 0.0
C962 C 0.36762 0.14023 0.65559 0.0
C963 C 0.40223 0.14873 0.64799 0.0
C964 C 0.40741 0.16894 0.64643 0.0
C965 C 0.38216 0.13428 0.65236 0.0
C966 C 0.39224 0.17418 0.64992 0.0
H967 H 0.43308 0.23969 0.63318 0.0
N968 N 0.38089 0.19766 0.65034 0.0
C969 C 0.4021 0.23137 0.63991 0.0
C970 C 0.39634 0.19367 0.64756 0.0
C971 C 0.38321 0.216 0.64594 0.0
C972 C 0.41849 0.22776 0.63789 0.0
C973 C 0.41562 0.20861 0.64145 0.0
O974 O 0.33948 0.17882 0.63883 0.0
O975 O 0.32836 0.17091 0.67831 0.0
O976 O 0.30894 0.14029 0.6895 0.0
O977 O 0.32792 0.13966 0.66627 0.0
O978 O 0.33795 0.19209 0.65998 0.0
O979 O 0.33868 0.15037 0.64067 0.0
O980 O 0.34492 0.1596 0.72669 0.0
O981 O 0.35522 0.16544 0.68642 0.0
O982 O 0.37479 0.19614 0.67578 0.0
O983 O 0.35544 0.19729 0.69838 0.0
O984 O 0.34665 0.1453 0.70547 0.0
O985 O 0.34647 0.18818 0.72262 0.0
C986 C 0.32544 0.18462 0.6725 0.0
C987 C 0.34226 0.16429 0.61326 0.0
C988 C 0.33414 0.15801 0.5829 0.0
C989 C 0.32778 0.15515 0.60004 0.0
C990 C 0.35529 0.17015 0.57936 0.0
C991 C 0.36319 0.17597 0.60933 0.0
C992 C 0.36965 0.17887 0.59249 0.0
C993 C 0.31115 0.13122 0.67593 0.0
C994 C 0.33523 0.16215 0.63098 0.0
C995 C 0.43113 0.20374 0.63861 0.0
C996 C 0.42703 0.18393 0.64113 0.0
C997 C 0.35844 0.15206 0.69251 0.0
C998 C 0.34428 0.17754 0.75102 0.0
C999 C 0.35947 0.18436 0.7638 0.0
C1000 C 0.3544 0.18546 0.78085 0.0
C1001 C 0.33388 0.17941 0.78494 0.0
C1002 C 0.32396 0.17165 0.75541 0.0
C1003 C 0.31879 0.17252 0.77227 0.0
C1004 C 0.37252 0.2054 0.68915 0.0
C1005 C 0.35004 0.1772 0.7332 0.0
H1006 H 0.31164 0.14585 0.60317 0.0
H1007 H 0.36081 0.17327 0.56641 0.0
H1008 H 0.37456 0.18307 0.61919 0.0
H1009 H 0.38584 0.18815 0.5896 0.0
H1010 H 0.37525 0.18915 0.76041 0.0
H1011 H 0.32944 0.17978 0.79797 0.0
H1012 H 0.3121 0.1665 0.74588 0.0
H1013 H 0.30303 0.16788 0.77552 0.0
Tb1014 Tb 0.85212 0.17106 0.70176 0.0
C1015 C 0.81596 0.1971 0.6454 0.0
C1016 C 0.78006 0.17117 0.64528 0.0
C1017 C 0.78986 0.20553 0.6374 0.0
C1018 C 0.80096 0.17739 0.64818 0.0
C1019 C 0.81072 0.21131 0.63948 0.0
C1020 C 0.77454 0.18548 0.64034 0.0
C1021 C 0.84705 0.23515 0.63654 0.0
N1022 N 0.83588 0.20197 0.64743 0.0
C1023 C 0.85145 0.22045 0.64241 0.0
C1024 C 0.8266 0.23066 0.63531 0.0
Tb1025 Tb 0.84153 0.17723 0.65795 0.0
N1026 N 0.80701 0.16407 0.6528 0.0
C1027 C 0.79293 0.14388 0.65347 0.0
C1028 C 0.76546 0.1507 0.64695 0.0
C1029 C 0.77198 0.13695 0.65076 0.0
H1030 H 0.8673 0.22407 0.64349 0.0
H1031 H 0.76086 0.12102 0.65176 0.0
H1032 H 0.75854 0.18107 0.63828 0.0
H1033 H 0.85943 0.24992 0.63302 0.0
H1034 H 0.79762 0.13305 0.6566 0.0
H1035 H 0.93366 0.22273 0.70974 0.0
H1036 H 0.74924 0.1453 0.6449 0.0
H1037 H 0.82224 0.12511 0.71717 0.0
H1038 H 0.8982 0.21266 0.70153 0.0
H1039 H 0.82636 0.09899 0.73175 0.0
H1040 H 0.78546 0.21628 0.63309 0.0
H1041 H 0.94153 0.19783 0.72242 0.0
H1042 H 0.92824 0.16301 0.73432 0.0
H1043 H 0.82323 0.24204 0.63072 0.0
H1044 H 0.89928 0.12897 0.73943 0.0
N1045 N 0.88595 0.18169 0.70805 0.0
C1046 C 0.9013 0.20136 0.70659 0.0
C1047 C 0.92594 0.19312 0.71839 0.0
C1048 C 0.90999 0.17331 0.72082 0.0
C1049 C 0.92153 0.20724 0.71133 0.0
C1050 C 0.88999 0.16798 0.7153 0.0
H1051 H 0.86116 0.10491 0.73857 0.0
N1052 N 0.85449 0.14547 0.71472 0.0
C1053 C 0.83981 0.113 0.72811 0.0
C1054 C 0.87363 0.14912 0.71875 0.0
C1055 C 0.83757 0.12792 0.71979 0.0
C1056 C 0.85947 0.11635 0.73186 0.0
C1057 C 0.87667 0.13477 0.72753 0.0
O1058 O 0.83352 0.16585 0.72335 0.0
O1059 O 0.8306 0.17123 0.68364 0.0
O1060 O 0.84275 0.20202 0.67271 0.0
O1061 O 0.86306 0.20301 0.69553 0.0
O1062 O 0.81864 0.15052 0.70227 0.0
O1063 O 0.86171 0.19399 0.72029 0.0
O1064 O 0.85963 0.18562 0.63581 0.0
O1065 O 0.86315 0.17672 0.67586 0.0
O1066 O 0.85045 0.14537 0.68813 0.0
O1067 O 0.8336 0.14568 0.66302 0.0
O1068 O 0.8749 0.19817 0.65756 0.0
O1069 O 0.83287 0.15608 0.63797 0.0
C1070 C 0.81374 0.15755 0.68943 0.0
C1071 C 0.851 0.18317 0.74836 0.0
C1072 C 0.84698 0.19034 0.77798 0.0
C1073 C 0.84193 0.1897 0.76062 0.0
C1074 C 0.8609 0.18398 0.78286 0.0
C1075 C 0.86492 0.17706 0.75355 0.0
C1076 C 0.86975 0.17736 0.77071 0.0
C1077 C 0.85451 0.21123 0.6861 0.0
C1078 C 0.84617 0.18326 0.73021 0.0
C1079 C 0.89662 0.1397 0.73253 0.0
C1080 C 0.91319 0.15903 0.72941 0.0
C1081 C 0.87992 0.19071 0.67008 0.0
C1082 C 0.84177 0.16996 0.61044 0.0
C1083 C 0.85014 0.16446 0.59684 0.0
C1084 C 0.84479 0.16587 0.57987 0.0
C1085 C 0.83111 0.1731 0.57684 0.0
C1086 C 0.82791 0.17676 0.60703 0.0
C1087 C 0.8227 0.1784 0.59034 0.0
C1088 C 0.84054 0.13699 0.67373 0.0
C1089 C 0.84763 0.16858 0.62807 0.0
H1090 H 0.83135 0.19468 0.75661 0.0
H1091 H 0.86488 0.18402 0.79612 0.0
H1092 H 0.87218 0.17219 0.74438 0.0
H1093 H 0.88048 0.17256 0.77461 0.0
H1094 H 0.86057 0.15886 0.59952 0.0
H1095 H 0.82702 0.1749 0.56402 0.0
H1096 H 0.82111 0.1808 0.61722 0.0
H1097 H 0.81213 0.18386 0.58784 0.0
H1098 H 0.32045 0.81366 0.05338 0.0
H1099 H 0.35028 0.84278 0.04135 0.0
H1100 H 0.32844 0.8817 0.06022 0.0
H1101 H 0.29756 0.85238 0.07102 0.0
H1102 H 0.3443 0.89441 0.03071 0.0
H1103 H 0.37086 0.87881 0.08142 0.0
H1104 H 0.37545 0.85566 0.10036 0.0
H1105 H 0.40239 0.83964 0.0594 0.0
H1106 H 0.3977 0.86252 0.04022 0.0
H1107 H 0.43835 0.98755 0.02979 0.0
H1108 H 0.40597 0.95677 0.03543 0.0
H1109 H 0.43219 0.92115 0.01754 0.0
H1110 H 0.46529 0.95202 0.0135 0.0
H1111 H 0.41372 0.90571 0.04512 0.0
H1112 H 0.38782 0.9229 0.99462 0.0
H1113 H 0.38163 0.94535 0.97594 0.0
H1114 H 0.3521 0.95792 0.01703 0.0
H1115 H 0.35803 0.93549 0.0358 0.0
C1116 C 0.32165 0.8283 0.05471 0.0
C1117 C 0.30641 0.83048 0.06332 0.0
C1118 C 0.33904 0.84509 0.04807 0.0
C1119 C 0.34204 0.86464 0.05024 0.0
C1120 C 0.32668 0.86685 0.05847 0.0
C1121 C 0.30907 0.85001 0.06485 0.0
C1122 C 0.36119 0.88274 0.04406 0.0
C1123 C 0.35948 0.89695 0.03399 0.0
C1124 C 0.38108 0.88601 0.04795 0.0
C1125 C 0.38408 0.87243 0.05946 0.0
C1126 C 0.37777 0.87034 0.07649 0.0
C1127 C 0.38035 0.85725 0.08725 0.0
C1128 C 0.38924 0.84621 0.0811 0.0
C1129 C 0.39554 0.84822 0.06417 0.0
C1130 C 0.39299 0.86128 0.05336 0.0
C1131 C 0.4371 0.97313 0.02683 0.0
C1132 C 0.45427 0.97227 0.02081 0.0
C1133 C 0.41843 0.95545 0.02988 0.0
C1134 C 0.41624 0.93637 0.02666 0.0
C1135 C 0.43331 0.93554 0.0202 0.0
C1136 C 0.45221 0.95326 0.0176 0.0
C1137 C 0.39693 0.91746 0.03157 0.0
C1138 C 0.39859 0.90311 0.04157 0.0
C1139 C 0.37697 0.91413 0.02769 0.0
C1140 C 0.37369 0.92785 0.0166 0.0
C1141 C 0.38025 0.93069 0.99964 0.0
C1142 C 0.37669 0.94329 0.98905 0.0
C1143 C 0.36665 0.95318 0.99534 0.0
C1144 C 0.35996 0.95032 0.01219 0.0
C1145 C 0.36333 0.93761 0.02278 0.0
H1146 H 0.36396 0.96296 0.98714 0.0
H1147 H 0.39122 0.83608 0.08944 0.0
H1148 H 0.19509 0.47463 0.03748 0.0
H1149 H 0.16587 0.47753 0.02689 0.0
H1150 H 0.15056 0.48456 0.0783 0.0
H1151 H 0.17986 0.48209 0.0889 0.0
H1152 H 0.12512 0.45423 0.03223 0.0
H1153 H 0.12938 0.51525 0.07849 0.0
H1154 H 0.15545 0.54482 0.09461 0.0
H1155 H 0.2016 0.55285 0.05837 0.0
H1156 H 0.17576 0.52352 0.0419 0.0
H1157 H 0.03022 0.45398 0.03294 0.0
H1158 H 0.06162 0.45275 0.03819 0.0
H1159 H 0.0979 0.51409 0.02067 0.0
H1160 H 0.06645 0.51576 0.01669 0.0
H1161 H 0.11483 0.51161 0.04721 0.0
H1162 H 0.09525 0.46821 0.99683 0.0
H1163 H 0.07161 0.4395 0.97839 0.0
H1164 H 0.05926 0.39857 0.01972 0.0
H1165 H 0.08295 0.427 0.03824 0.0
C1166 C 0.18562 0.47699 0.04652 0.0
C1167 C 0.18986 0.47805 0.06406 0.0
C1168 C 0.16882 0.47852 0.04045 0.0
C1169 C 0.15601 0.48141 0.05176 0.0
C1170 C 0.16027 0.48256 0.06926 0.0
C1171 C 0.17697 0.48094 0.07533 0.0
C1172 C 0.13794 0.48278 0.04533 0.0
C1173 C 0.12293 0.46683 0.03547 0.0
C1174 C 0.13502 0.49926 0.04934 0.0
C1175 C 0.15066 0.51705 0.05906 0.0
C1176 C 0.14507 0.52337 0.07393 0.0
C1177 C 0.15981 0.54009 0.08313 0.0
C1178 C 0.18018 0.55067 0.07755 0.0
C1179 C 0.18584 0.5446 0.06272 0.0
C1180 C 0.17115 0.52791 0.05346 0.0
C1181 C 0.04489 0.46709 0.02989 0.0
C1182 C 0.04571 0.48478 0.02393 0.0
C1183 C 0.06294 0.46632 0.03276 0.0
C1184 C 0.08241 0.48316 0.02951 0.0
C1185 C 0.08321 0.50078 0.02322 0.0
C1186 C 0.06512 0.50166 0.02068 0.0
C1187 C 0.10181 0.48297 0.0341 0.0
C1188 C 0.11703 0.49907 0.04379 0.0
C1189 C 0.10506 0.46673 0.02979 0.0
C1190 C 0.09051 0.4497 0.0189 0.0
C1191 C 0.08725 0.45308 1.00196 0.0
C1192 C 0.07397 0.43688 0.9915 0.0
C1193 C 0.0638 0.41726 0.99793 0.0
C1194 C 0.06707 0.41378 0.01478 0.0
C1195 C 0.08049 0.42991 0.02522 0.0
H1196 H 0.05349 0.40475 0.98983 0.0
H1197 H 0.19157 0.5636 0.0847 0.0
H1198 H 0.56497 0.7234 0.07 0.0
H1199 H 0.56357 0.6927 0.05955 0.0
H1200 H 0.4986 0.6665 0.04928 0.0
H1201 H 0.49958 0.69666 0.06078 0.0
H1202 H 0.5048 0.63965 0.06351 0.0
H1203 H 0.53628 0.68486 0.01708 0.0
H1204 H 0.56145 0.71627 0.00288 0.0
H1205 H 0.61058 0.70623 0.01824 0.0
H1206 H 0.58572 0.67489 0.03273 0.0
H1207 H 0.4954 0.56066 0.00902 0.0
H1208 H 0.49857 0.59278 0.01779 0.0
H1209 H 0.55605 0.60943 0.043 0.0
H1210 H 0.55283 0.57704 0.03461 0.0
H1211 H 0.55389 0.64078 0.02078 0.0
H1212 H 0.52101 0.59523 0.06763 0.0
H1213 H 0.49482 0.56351 0.08081 0.0
H1214 H 0.44694 0.57403 0.06274 0.0
H1215 H 0.47283 0.60566 0.04921 0.0
C1216 C 0.55032 0.71107 0.06565 0.0
C1217 C 0.53238 0.71258 0.06629 0.0
C1218 C 0.54961 0.69358 0.05944 0.0
C1219 C 0.53104 0.67733 0.05337 0.0
C1220 C 0.51314 0.67884 0.05383 0.0
C1221 C 0.51378 0.69624 0.06024 0.0
C1222 C 0.53014 0.65851 0.04707 0.0
C1223 C 0.51537 0.63995 0.05398 0.0
C1224 C 0.54416 0.6588 0.03486 0.0
C1225 C 0.55915 0.67762 0.02613 0.0
C1226 C 0.55247 0.68943 0.01754 0.0
C1227 C 0.56668 0.70721 0.00942 0.0
C1228 C 0.58761 0.71327 0.0097 0.0
C1229 C 0.59437 0.70153 0.01806 0.0
C1230 C 0.58022 0.68375 0.02621 0.0
C1231 C 0.50884 0.57119 0.01629 0.0
C1232 C 0.52386 0.56628 0.02116 0.0
C1233 C 0.51057 0.58951 0.02132 0.0
C1234 C 0.52749 0.60337 0.03107 0.0
C1235 C 0.54289 0.59888 0.03546 0.0
C1236 C 0.54098 0.58037 0.0307 0.0
C1237 C 0.52861 0.6222 0.03722 0.0
C1238 C 0.54337 0.64065 0.03028 0.0
C1239 C 0.51446 0.62181 0.04924 0.0
C1240 C 0.49885 0.60272 0.05727 0.0
C1241 C 0.50488 0.59067 0.0663 0.0
C1242 C 0.4901 0.57273 0.07387 0.0
C1243 C 0.46924 0.56677 0.07261 0.0
C1244 C 0.46311 0.57868 0.06371 0.0
C1245 C 0.47783 0.59662 0.0561 0.0
H1246 H 0.45783 0.553 0.07861 0.0
H1247 H 0.59859 0.72704 0.00341 0.0
H1248 H 0.84249 0.28704 0.95667 0.0
H1249 H 0.87226 0.31862 0.96675 0.0
H1250 H 0.83475 0.34669 0.96855 0.0
H1251 H 0.80486 0.31505 0.9587 0.0
H1252 H 0.87462 0.3706 0.95229 0.0
H1253 H 0.84437 0.33387 0.00395 0.0
H1254 H 0.83094 0.3043 0.02278 0.0
H1255 H 0.88976 0.30752 0.02248 0.0
H1256 H 0.90345 0.33695 0.00343 0.0
H1257 H 0.94173 0.4451 0.02236 0.0
H1258 H 0.91218 0.41306 0.01345 0.0
H1259 H 0.94673 0.41001 0.97101 0.0
H1260 H 0.9767 0.44178 0.98011 0.0
H1261 H 0.90753 0.37405 0.00801 0.0
H1262 H 0.91119 0.39242 0.93662 0.0
H1263 H 0.92522 0.42246 0.91824 0.0
H1264 H 0.91906 0.45678 0.9588 0.0
H1265 H 0.90487 0.42694 0.97733 0.0
C1266 C 0.84061 0.29995 0.95923 0.0
C1267 C 0.82133 0.29855 0.95698 0.0
C1268 C 0.8576 0.31796 0.96499 0.0
C1269 C 0.85572 0.33501 0.96838 0.0
C1270 C 0.83655 0.33373 0.96597 0.0
C1271 C 0.81947 0.31562 0.96049 0.0
C1272 C 0.87369 0.35407 0.9747 0.0
C1273 C 0.88184 0.37135 0.96445 0.0
C1274 C 0.88304 0.35509 0.99061 0.0
C1275 C 0.87487 0.33748 1.00213 0.0
C1276 C 0.85439 0.32816 0.00778 0.0
C1277 C 0.84674 0.31145 0.01852 0.0
C1278 C 0.85947 0.304 0.02379 0.0
C1279 C 0.8799 0.31329 0.01837 0.0
C1280 C 0.88762 0.33 0.00761 0.0
C1281 C 0.94328 0.4375 0.01133 0.0
C1282 C 0.96178 0.44603 1.00208 0.0
C1283 C 0.92628 0.41918 0.00622 0.0
C1284 C 0.92722 0.4092 0.99154 0.0
C1285 C 0.94566 0.41751 0.98235 0.0
C1286 C 0.96279 0.4357 0.98759 0.0
C1287 C 0.90864 0.39049 0.98551 0.0
C1288 C 0.90038 0.37328 0.99581 0.0
C1289 C 0.8992 0.38956 0.96966 0.0
C1290 C 0.90707 0.40745 0.95841 0.0
C1291 C 0.9127 0.40634 0.94158 0.0
C1292 C 0.92074 0.42335 0.93114 0.0
C1293 C 0.92309 0.44154 0.93736 0.0
C1294 C 0.9173 0.44272 0.954 0.0
C1295 C 0.90927 0.42576 0.96448 0.0
H1296 H 0.92939 0.4547 0.92928 0.0
H1297 H 0.85353 0.29106 0.0321 0.0
H1298 H 0.7253 0.56288 0.95422 0.0
H1299 H 0.69354 0.5607 0.96433 0.0
H1300 H 0.67094 0.49898 0.9793 0.0
H1301 H 0.7023 0.50073 0.96842 0.0
H1302 H 0.64106 0.50137 0.96453 0.0
H1303 H 0.68856 0.53895 0.00886 0.0
H1304 H 0.72063 0.56603 0.02168 0.0
H1305 H 0.70714 0.61061 1.00239 0.0
H1306 H 0.67511 0.58381 0.98924 0.0
H1307 H 0.55472 0.49514 0.00659 0.0
H1308 H 0.58737 0.49617 1.00222 0.0
H1309 H 0.61415 0.55729 0.98406 0.0
H1310 H 0.58161 0.55659 0.98934 0.0
H1311 H 0.64167 0.55353 0.00262 0.0
H1312 H 0.59486 0.5148 0.9566 0.0
H1313 H 0.56192 0.48704 0.94558 0.0
H1314 H 0.57374 0.44368 0.96994 0.0
H1315 H 0.60668 0.47122 0.98125 0.0
C1316 C 0.71357 0.54877 0.95957 0.0
C1317 C 0.71653 0.532 0.96046 0.0
C1318 C 0.69543 0.54761 0.96557 0.0
C1319 C 0.67979 0.52974 0.97285 0.0
C1320 C 0.68271 0.51299 0.97382 0.0
C1321 C 0.70083 0.5141 0.96774 0.0
C1322 C 0.66026 0.52844 0.97902 0.0
C1323 C 0.64126 0.51264 0.97306 0.0
C1324 C 0.66028 0.54319 0.99003 0.0
C1325 C 0.67952 0.55937 0.99793 0.0
C1326 C 0.69251 0.55454 0.00724 0.0
C1327 C 0.71067 0.56984 0.01458 0.0
C1328 C 0.71595 0.59003 0.01282 0.0
C1329 C 0.70305 0.59497 0.00373 0.0
C1330 C 0.68488 0.57972 0.99634 0.0
C1331 C 0.56764 0.50899 1.00215 0.0
C1332 C 0.56564 0.52597 0.99873 0.0
C1333 C 0.58633 0.50948 0.99938 0.0
C1334 C 0.60327 0.52671 0.99252 0.0
C1335 C 0.60139 0.5438 0.98937 0.0
C1336 C 0.58276 0.54338 0.99234 0.0
C1337 C 0.62262 0.52672 0.98788 0.0
C1338 C 0.64155 0.54225 0.99413 0.0
C1339 C 0.62252 0.51165 0.97725 0.0
C1340 C 0.60316 0.49507 0.96985 0.0
C1341 C 0.59042 0.49935 0.95961 0.0
C1342 C 0.57175 0.48366 0.95333 0.0
C1343 C 0.56572 0.46361 0.95709 0.0
C1344 C 0.57843 0.45921 0.96705 0.0
C1345 C 0.59712 0.47485 0.97337 0.0
H1346 H 0.55123 0.45149 0.95228 0.0
H1347 H 0.73001 0.60186 0.01852 0.0
H1348 H 0.53467 0.21165 0.95439 0.0
H1349 H 0.53518 0.18146 0.96396 0.0
H1350 H 0.46876 0.14802 0.96339 0.0
H1351 H 0.4682 0.17804 0.95362 0.0
H1352 H 0.52251 0.15831 0.99052 0.0
H1353 H 0.45095 0.10067 0.95111 0.0
H1354 H 0.43434 0.09887 0.92352 0.0
H1355 H 0.49185 0.14571 0.90396 0.0
H1356 H 0.50881 0.14769 0.93139 0.0
H1357 H 0.49071 0.0609 0.02214 0.0
H1358 H 0.49147 0.09158 0.01233 0.0
H1359 H 0.50729 0.08146 0.96193 0.0
H1360 H 0.50619 0.05069 0.97172 0.0
H1361 H 0.48165 0.09385 0.95891 0.0
H1362 H 0.54366 0.11646 0.98997 0.0
H1363 H 0.56579 0.11918 0.01428 0.0
H1364 H 0.53693 0.14438 0.04508 0.0
H1365 H 0.51439 0.14151 0.02104 0.0
C1366 C 0.52019 0.1979 0.95647 0.0
C1367 C 0.5014 0.19717 0.95314 0.0
C1368 C 0.5205 0.18064 0.96191 0.0
C1369 C 0.50202 0.16235 0.96414 0.0
C1370 C 0.48323 0.16181 0.96138 0.0
C1371 C 0.48292 0.17898 0.95582 0.0
C1372 C 0.5023 0.14374 0.96915 0.0
C1373 C 0.51356 0.14422 0.98362 0.0
C1374 C 0.49122 0.12547 0.95985 0.0
C1375 C 0.48107 0.12446 0.94336 0.0
C1376 C 0.46004 0.11057 0.94092 0.0
C1377 C 0.45057 0.10953 0.92531 0.0
C1378 C 0.46202 0.12222 0.91202 0.0
C1379 C 0.48297 0.13597 0.9143 0.0
C1380 C 0.49251 0.13709 0.92988 0.0
C1381 C 0.49441 0.06529 0.00903 0.0
C1382 C 0.49852 0.05352 0.99775 0.0
C1383 C 0.49484 0.08281 0.00339 0.0
C1384 C 0.4998 0.08907 0.98643 0.0
C1385 C 0.50339 0.07698 0.97506 0.0
C1386 C 0.50268 0.05934 0.98065 0.0
C1387 C 0.50142 0.10826 0.98054 0.0
C1388 C 0.49055 0.10792 0.96587 0.0
C1389 C 0.51364 0.12682 0.98922 0.0
C1390 C 0.52722 0.12864 0.00372 0.0
C1391 C 0.54193 0.12246 1.00196 0.0
C1392 C 0.55456 0.12404 0.01568 0.0
C1393 C 0.55276 0.13197 0.0312 0.0
C1394 C 0.5383 0.13826 0.03304 0.0
C1395 C 0.52561 0.13667 0.01937 0.0
H1396 H 0.56262 0.1333 0.04178 0.0
H1397 H 0.45466 0.12138 0.89994 0.0
H1398 H 0.67006 0.20314 0.96574 0.0
H1399 H 0.64334 0.16886 0.97246 0.0
H1400 H 0.68955 0.1523 0.98189 0.0
H1401 H 0.71674 0.18712 0.97608 0.0
H1402 H 0.6503 0.12411 0.95962 0.0
H1403 H 0.67324 0.15827 0.01419 0.0
H1404 H 0.68166 0.18601 0.03449 0.0
H1405 H 0.61991 0.17541 0.03049 0.0
H1406 H 0.61124 0.14787 0.00989 0.0
H1407 H 0.57871 0.02909 0.99436 0.0
H1408 H 0.60991 0.06183 0.99001 0.0
H1409 H 0.5751 0.09198 0.99874 0.0
H1410 H 0.54422 0.05947 0.00334 0.0
H1411 H 0.61098 0.11305 0.01298 0.0
H1412 H 0.58722 0.08349 0.95833 0.0
H1413 H 0.57573 0.05725 0.93603 0.0
H1414 H 0.63462 0.06064 0.93743 0.0
H1415 H 0.64637 0.08673 0.95993 0.0
C1416 C 0.6747 0.19236 0.96939 0.0
C1417 C 0.69571 0.19816 0.9707 0.0
C1418 C 0.65932 0.17268 0.9731 0.0
C1419 C 0.66446 0.15813 0.97787 0.0
C1420 C 0.68529 0.16339 0.97829 0.0
C1421 C 0.7008 0.18328 0.97486 0.0
C1422 C 0.64789 0.13767 0.98286 0.0
C1423 C 0.64197 0.12153 0.97145 0.0
C1424 C 0.63646 0.13458 0.99794 0.0
C1425 C 0.64168 0.15117 0.01032 0.0
C1426 C 0.66154 0.16202 0.01746 0.0
C1427 C 0.66633 0.17768 0.02906 0.0
C1428 C 0.65135 0.18252 0.03373 0.0
C1429 C 0.63152 0.17168 0.02683 0.0
C1430 C 0.62666 0.15604 0.0152 0.0
C1431 C 0.57787 0.04277 0.99559 0.0
C1432 C 0.55912 0.04171 0.99959 0.0
C1433 C 0.59564 0.06146 0.99299 0.0
C1434 C 0.59489 0.07945 0.99385 0.0
C1435 C 0.57619 0.07839 0.99808 0.0
C1436 C 0.55848 0.05973 1.0008 0.0
C1437 C 0.61331 0.09931 0.98977 0.0
C1438 C 0.61948 0.11543 1.00127 0.0
C1439 C 0.62455 0.10253 0.9745 0.0
C1440 C 0.61759 0.08688 0.96096 0.0
C1441 C 0.59766 0.07852 0.95398 0.0
C1442 C 0.59111 0.06369 0.94129 0.0
C1443 C 0.60442 0.05723 0.93536 0.0
C1444 C 0.62432 0.06563 0.94207 0.0
C1445 C 0.63094 0.08045 0.95479 0.0
H1446 H 0.59932 0.04576 0.92553 0.0
H1447 H 0.6551 0.19464 0.04273 0.0
H1448 H 0.83004 0.534 0.98152 0.0
H1449 H 0.86434 0.53818 0.98653 0.0
H1450 H 0.84627 0.48288 0.95892 0.0
H1451 H 0.81211 0.47858 0.95419 0.0
H1452 H 0.86273 0.48175 0.98754 0.0
H1453 H 0.88202 0.53051 0.9433 0.0
H1454 H 0.88495 0.56041 0.92889 0.0
H1455 H 0.92022 0.59797 0.9709 0.0
H1456 H 0.91726 0.56824 0.98567 0.0
H1457 H 0.95981 0.48613 0.99094 0.0
H1458 H 0.92749 0.48386 0.98249 0.0
H1459 H 0.94989 0.54473 1.00083 0.0
H1460 H 0.98346 0.54793 0.00636 0.0
H1461 H 0.93024 0.54253 0.97658 0.0
H1462 H 0.90988 0.49021 0.02071 0.0
H1463 H 0.90619 0.45858 0.03229 0.0
H1464 H 0.87167 0.42592 0.98827 0.0
H1465 H 0.87567 0.45728 0.97605 0.0
C1466 C 0.83361 0.52303 0.97619 0.0
C1467 C 0.81835 0.50594 0.96751 0.0
C1468 C 0.85321 0.52538 0.9791 0.0
C1469 C 0.85801 0.51079 0.97318 0.0
C1470 C 0.84302 0.49426 0.9638 0.0
C1471 C 0.82349 0.49187 0.96101 0.0
C1472 C 0.87803 0.51189 0.97755 0.0
C1473 C 0.87753 0.49503 0.98507 0.0
C1474 C 0.8974 0.52921 0.97453 0.0
C1475 C 0.89923 0.54711 0.96567 0.0
C1476 C 0.89025 0.54512 0.94953 0.0
C1477 C 0.89195 0.56204 0.94128 0.0
C1478 C 0.90272 0.58107 0.94899 0.0
C1479 C 0.91186 0.58322 0.96495 0.0
C1480 C 0.91019 0.56634 0.97326 0.0
C1481 C 0.95762 0.49885 0.9935 0.0
C1482 C 0.97378 0.51685 1.00031 0.0
C1483 C 0.93893 0.49752 0.98877 0.0
C1484 C 0.93536 0.51373 0.99172 0.0
C1485 C 0.95174 0.53177 0.99849 0.0
C1486 C 0.9709 0.53352 1.00206 0.0
C1487 C 0.91517 0.51247 0.98711 0.0
C1488 C 0.91555 0.52931 0.97941 0.0
C1489 C 0.89563 0.49496 0.98982 0.0
C1490 C 0.89318 0.47616 0.99743 0.0
C1491 C 0.90158 0.47631 0.01346 0.0
C1492 C 0.89951 0.45845 0.02011 0.0
C1493 C 0.88876 0.44033 0.01106 0.0
C1494 C 0.88004 0.43998 0.99528 0.0
C1495 C 0.88226 0.45779 0.98844 0.0
H1496 H 0.88714 0.42655 0.0163 0.0
H1497 H 0.90401 0.59415 0.94259 0.0
H1498 H 0.50783 0.31255 0.9465 0.0
H1499 H 0.49825 0.33799 0.95353 0.0
H1500 H 0.53974 0.35738 0.99656 0.0
H1501 H 0.54848 0.33142 0.99019 0.0
H1502 H 0.50661 0.35729 0.00534 0.0
H1503 H 0.55225 0.38296 0.95737 0.0
H1504 H 0.56404 0.38259 0.92821 0.0
H1505 H 0.50887 0.37858 0.90795 0.0
H1506 H 0.49664 0.37867 0.93703 0.0
H1507 H 0.53263 0.45769 0.01959 0.0
H1508 H 0.53257 0.42711 0.01119 0.0
H1509 H 0.48315 0.41277 0.97567 0.0
H1510 H 0.48309 0.44372 0.98404 0.0
H1511 H 0.51493 0.40787 0.9621 0.0
H1512 H 0.47244 0.38706 0.012 0.0
H1513 H 0.4648 0.39151 0.04166 0.0
H1514 H 0.51814 0.38951 0.05883 0.0
H1515 H 0.52626 0.38532 0.02925 0.0
C1516 C 0.51466 0.32202 0.95761 0.0
C1517 C 0.52913 0.32005 0.96765 0.0
C1518 C 0.50934 0.33672 0.96151 0.0
C1519 C 0.51853 0.34988 0.97542 0.0
C1520 C 0.53248 0.34752 0.98572 0.0
C1521 C 0.53766 0.33277 0.98193 0.0
C1522 C 0.51409 0.36642 0.97922 0.0
C1523 C 0.50848 0.36834 0.99586 0.0
C1524 C 0.51615 0.38073 0.96683 0.0
C1525 C 0.52341 0.38054 0.94937 0.0
C1526 C 0.54255 0.38181 0.9467 0.0
C1527 C 0.54933 0.38169 0.93019 0.0
C1528 C 0.53717 0.38048 0.91624 0.0
C1529 C 0.51824 0.37946 0.91877 0.0
C1530 C 0.51138 0.37955 0.93526 0.0
C1531 C 0.52147 0.44797 0.01019 0.0
C1532 C 0.50759 0.45305 0.00273 0.0
C1533 C 0.52153 0.43047 0.00535 0.0
C1534 C 0.50764 0.4175 0.993 0.0
C1535 C 0.49391 0.42255 0.98531 0.0
C1536 C 0.49384 0.44017 0.99017 0.0
C1537 C 0.50779 0.39879 0.9882 0.0
C1538 C 0.51262 0.39652 0.97143 0.0
C1539 C 0.50536 0.38434 1.00052 0.0
C1540 C 0.49997 0.38591 0.01839 0.0
C1541 C 0.48254 0.38758 0.0221 0.0
C1542 C 0.47814 0.39008 0.0389 0.0
C1543 C 0.49098 0.3908 0.05212 0.0
C1544 C 0.50819 0.38892 0.04858 0.0
C1545 C 0.51267 0.38643 0.0318 0.0
H1546 H 0.48759 0.39282 0.06511 0.0
H1547 H 0.54245 0.3804 0.90346 0.0
H1548 H 0.21537 0.68151 0.0693 0.0
H1549 H 0.18078 0.6528 0.0649 0.0
H1550 H 0.16113 0.69257 0.04412 0.0
H1551 H 0.19601 0.72142 0.04818 0.0
H1552 H 0.14202 0.64074 0.07452 0.0
H1553 H 0.12956 0.66823 0.00996 0.0
H1554 H 0.14988 0.69132 0.98686 0.0
H1555 H 0.20094 0.683 0.99926 0.0
H1556 H 0.18082 0.65967 0.02227 0.0
H1557 H 0.04241 0.56706 0.04259 0.0
H1558 H 0.07206 0.59942 0.05122 0.0
H1559 H 0.1104 0.58991 0.01599 0.0
H1560 H 0.08106 0.55773 0.00736 0.0
H1561 H 0.11834 0.62793 0.01443 0.0
H1562 H 0.11066 0.58093 0.05835 0.0
H1563 H 0.09177 0.5558 0.08061 0.0
H1564 H 0.08392 0.59976 0.10861 0.0
H1565 H 0.10248 0.62508 0.08637 0.0
C1566 C 0.20363 0.68419 0.06395 0.0
C1567 C 0.20851 0.7037 0.05885 0.0
C1568 C 0.1838 0.66777 0.06156 0.0
C1569 C 0.16838 0.67043 0.05396 0.0
C1570 C 0.17284 0.6901 0.04983 0.0
C1571 C 0.19274 0.7066 0.05225 0.0
C1572 C 0.14842 0.65239 0.04901 0.0
C1573 C 0.13671 0.63805 0.06142 0.0
C1574 C 0.14162 0.64862 0.03187 0.0
C1575 C 0.15378 0.66244 0.01796 0.0
C1576 C 0.14511 0.67131 0.00772 0.0
C1577 C 0.15659 0.68443 0.99465 0.0
C1578 C 0.17672 0.68868 0.99164 0.0
C1579 C 0.18538 0.67976 1.00165 0.0
C1580 C 0.17395 0.6666 0.01471 0.0
C1581 C 0.05713 0.57189 0.03662 0.0
C1582 C 0.05927 0.55979 0.02418 0.0
C1583 C 0.07408 0.59039 0.04161 0.0
C1584 C 0.09351 0.59708 0.03432 0.0
C1585 C 0.09557 0.58516 0.02174 0.0
C1586 C 0.0787 0.56671 0.01678 0.0
C1587 C 0.11191 0.61627 0.03993 0.0
C1588 C 0.12337 0.6308 0.02761 0.0
C1589 C 0.11867 0.61996 0.05709 0.0
C1590 C 0.10777 0.60484 0.0706 0.0
C1591 C 0.10478 0.5852 0.06919 0.0
C1592 C 0.09414 0.57093 0.08181 0.0
C1593 C 0.0866 0.57617 0.09599 0.0
C1594 C 0.08974 0.59572 0.0976 0.0
C1595 C 0.10032 0.61004 0.085 0.0
H1596 H 0.07839 0.56512 0.10575 0.0
H1597 H 0.18558 0.69886 0.98153 0.0
H1598 H 0.33857 0.5263 0.07116 0.0
H1599 H 0.36787 0.52132 0.06611 0.0
H1600 H 0.32943 0.46896 0.03518 0.0
H1601 H 0.29992 0.47402 0.04021 0.0
H1602 H 0.37735 0.4924 0.0718 0.0
H1603 H 0.35975 0.46965 1.00097 0.0
H1604 H 0.34089 0.47358 0.9769 0.0
H1605 H 0.34821 0.52812 0.99927 0.0
H1606 H 0.36737 0.52468 0.02332 0.0
H1607 H 0.44663 0.46217 0.03723 0.0
H1608 H 0.41452 0.46221 0.04317 0.0
H1609 H 0.44127 0.52266 0.02358 0.0
H1610 H 0.47357 0.52303 0.01844 0.0
H1611 H 0.39909 0.49452 0.01196 0.0
H1612 H 0.44071 0.51971 0.06194 0.0
H1613 H 0.4617 0.51982 0.08612 0.0
H1614 H 0.40969 0.46653 0.10589 0.0
H1615 H 0.38849 0.46582 0.08154 0.0
C1616 C 0.33626 0.51351 0.06352 0.0
C1617 C 0.31694 0.50057 0.05605 0.0
C1618 C 0.35304 0.51065 0.06065 0.0
C1619 C 0.35103 0.49493 0.05008 0.0
C1620 C 0.33147 0.48136 0.04324 0.0
C1621 C 0.31456 0.48412 0.04624 0.0
C1622 C 0.3697 0.49362 0.04558 0.0
C1623 C 0.38193 0.49261 0.0587 0.0
C1624 C 0.3761 0.49442 0.02851 0.0
C1625 C 0.36472 0.49673 0.01406 0.0
C1626 C 0.35735 0.48249 1.00073 0.0
C1627 C 0.34662 0.48464 0.98709 0.0
C1628 C 0.34327 0.50104 0.98659 0.0
C1629 C 0.35073 0.51537 0.9997 0.0
C1630 C 0.3615 0.51331 0.01336 0.0
C1631 C 0.44556 0.47538 0.03403 0.0
C1632 C 0.46249 0.49237 0.02686 0.0
C1633 C 0.42723 0.47539 0.03744 0.0
C1634 C 0.42543 0.49238 0.03372 0.0
C1635 C 0.44221 0.50929 0.02638 0.0
C1636 C 0.46068 0.50943 0.02331 0.0
C1637 C 0.40639 0.49287 0.03816 0.0
C1638 C 0.39422 0.49386 0.02503 0.0
C1639 C 0.40025 0.4924 0.05525 0.0
C1640 C 0.41307 0.49255 0.06975 0.0
C1641 C 0.43381 0.50783 0.07129 0.0
C1642 C 0.44574 0.50804 0.08506 0.0
C1643 C 0.43705 0.49315 0.09752 0.0
C1644 C 0.41642 0.47802 0.0962 0.0
C1645 C 0.40444 0.47769 0.0824 0.0
H1646 H 0.44627 0.49338 0.10822 0.0
H1647 H 0.33495 0.50267 0.97602 0.0
H1648 H 0.52684 0.81466 0.0402 0.0
H1649 H 0.53358 0.84873 0.03353 0.0
H1650 H 0.48885 0.8426 0.07098 0.0
H1651 H 0.48149 0.80828 0.077 0.0
H1652 H 0.48175 0.85622 0.04423 0.0
H1653 H 0.54345 0.87489 0.07575 0.0
H1654 H 0.57545 0.87509 0.08339 0.0
H1655 H 0.60035 0.89833 0.03414 0.0
H1656 H 0.56837 0.89802 0.02611 0.0
H1657 H 0.50721 0.95883 0.04797 0.0
H1658 H 0.50857 0.92869 0.05643 0.0
H1659 H 0.53026 0.9252 0.00653 0.0
H1660 H 0.52894 0.95538 0.99805 0.0
H1661 H 0.55044 0.91774 0.03912 0.0
H1662 H 0.4855 0.89489 0.00776 0.0
H1663 H 0.45376 0.89613 1.00207 0.0
H1664 H 0.43669 0.88334 0.05455 0.0
H1665 H 0.46814 0.88178 0.06045 0.0
C1666 C 0.51874 0.82079 0.04715 0.0
C1667 C 0.50365 0.80893 0.05908 0.0
C1668 C 0.52262 0.84028 0.0434 0.0
C1669 C 0.51184 0.8484 0.05182 0.0
C1670 C 0.49731 0.83671 0.06422 0.0
C1671 C 0.49316 0.81714 0.06771 0.0
C1672 C 0.51455 0.86841 0.047 0.0
C1673 C 0.49684 0.86963 0.04335 0.0
C1674 C 0.53417 0.88603 0.04549 0.0
C1675 C 0.55342 0.88623 0.05027 0.0
C1676 C 0.55568 0.87989 0.0665 0.0
C1677 C 0.57383 0.88005 0.07091 0.0
C1678 C 0.5899 0.88666 0.05924 0.0
C1679 C 0.58788 0.89318 0.04315 0.0
C1680 C 0.56975 0.89304 0.03867 0.0
C1681 C 0.51256 0.9518 0.0389 0.0
C1682 C 0.51761 0.95915 0.02225 0.0
C1683 C 0.51335 0.93464 0.04374 0.0
C1684 C 0.51952 0.92479 0.03208 0.0
C1685 C 0.5255 0.93265 0.01569 0.0
C1686 C 0.52442 0.94967 0.01078 0.0
C1687 C 0.51773 0.90521 0.03657 0.0
C1688 C 0.5355 0.90416 0.04006 0.0
C1689 C 0.49823 0.88776 0.03819 0.0
C1690 C 0.47908 0.88817 0.03453 0.0
C1691 C 0.47491 0.89229 0.01805 0.0
C1692 C 0.45695 0.89298 0.01477 0.0
C1693 C 0.44308 0.88956 0.02789 0.0
C1694 C 0.44724 0.88565 0.04433 0.0
C1695 C 0.46509 0.88479 0.04764 0.0
H1696 H 0.42909 0.88989 0.02531 0.0
H1697 H 0.60394 0.88678 0.06268 0.0
H1698 H 0.96263 0.1827 0.40186 0.0
H1699 H 0.99369 0.212 0.3912 0.0
H1700 H 0.02062 0.17466 0.38136 0.0
H1701 H 0.98998 0.14545 0.39277 0.0
H1702 H 0.04829 0.20849 0.39554 0.0
H1703 H 1.00175 0.19209 0.34882 0.0
H1704 H 0.96944 0.18429 0.33422 0.0
H1705 H 0.97839 0.24242 0.34847 0.0
H1706 H 0.01063 0.25046 0.36336 0.0
H1707 H 0.13317 0.28473 0.35138 0.0
H1708 H 0.101 0.25338 0.3561 0.0
H1709 H 0.07179 0.28746 0.37063 0.0
H1710 H 0.10395 0.319 0.3652 0.0
H1711 H 0.04561 0.2541 0.3522 0.0
H1712 H 0.09127 0.26899 0.40063 0.0
H1713 H 0.1244 0.27697 0.41384 0.0
H1714 H 0.11747 0.22116 0.39488 0.0
H1715 H 0.08438 0.21295 0.38141 0.0
C1716 C 0.97518 0.18069 0.39753 0.0
C1717 C 0.97367 0.1616 0.39819 0.0
C1718 C 0.99289 0.19747 0.39123 0.0
C1719 C 0.00949 0.19558 0.38522 0.0
C1720 C 0.00804 0.17656 0.38583 0.0
C1721 C 0.99036 0.15978 0.39221 0.0
C1722 C 0.02854 0.21355 0.37877 0.0
C1723 C 0.04767 0.21824 0.38587 0.0
C1724 C 0.02789 0.22657 0.3663 0.0
C1725 C 0.00851 0.2218 0.35734 0.0
C1726 C 0.99675 0.20315 0.34895 0.0
C1727 C 0.97846 0.1987 0.34061 0.0
C1728 C 0.97184 0.21283 0.34045 0.0
C1729 C 0.98353 0.23147 0.34861 0.0
C1730 C 1.00182 0.236 0.35699 0.0
C1731 C 0.11981 0.28561 0.35504 0.0
C1732 C 0.121 0.30438 0.35751 0.0
C1733 C 0.10141 0.26761 0.35797 0.0
C1734 C 0.08398 0.26801 0.36394 0.0
C1735 C 0.08499 0.28673 0.366 0.0
C1736 C 0.10337 0.30474 0.36295 0.0
C1737 C 0.06516 0.24906 0.36912 0.0
C1738 C 0.04614 0.24422 0.3618 0.0
C1739 C 0.06591 0.23584 0.38131 0.0
C1740 C 0.08542 0.24042 0.38992 0.0
C1741 C 0.09683 0.25844 0.39926 0.0
C1742 C 0.1156 0.26301 0.40678 0.0
C1743 C 0.12305 0.24959 0.40517 0.0
C1744 C 0.11168 0.23153 0.39611 0.0
C1745 C 0.0929 0.22689 0.38856 0.0
H1746 H 0.13761 0.25318 0.41096 0.0
H1747 H 0.95768 0.20936 0.33398 0.0
H1748 H 0.86305 0.80992 0.37128 0.0
H1749 H 0.83306 0.81165 0.36107 0.0
H1750 H 0.81906 0.82007 0.41253 0.0
H1751 H 0.84921 0.81882 0.42277 0.0
H1752 H 0.79278 0.78822 0.36694 0.0
H1753 H 0.79649 0.84974 0.41241 0.0
H1754 H 0.82243 0.87999 0.42791 0.0
H1755 H 0.86831 0.88792 0.39142 0.0
H1756 H 0.84259 0.85792 0.37556 0.0
H1757 H 0.69697 0.78624 0.3663 0.0
H1758 H 0.72858 0.78565 0.37225 0.0
H1759 H 0.76436 0.84713 0.3549 0.0
H1760 H 0.73268 0.84818 0.35036 0.0
H1761 H 0.78144 0.84511 0.38125 0.0
H1762 H 0.76203 0.80114 0.33141 0.0
H1763 H 0.73854 0.77209 0.31322 0.0
H1764 H 0.72742 0.73172 0.35477 0.0
H1765 H 0.75094 0.76051 0.37304 0.0
C1766 C 0.85371 0.81234 0.38042 0.0
C1767 C 0.85863 0.81421 0.39788 0.0
C1768 C 0.83645 0.81318 0.37457 0.0
C1769 C 0.82377 0.81615 0.38597 0.0
C1770 C 0.82864 0.81801 0.4034 0.0
C1771 C 0.84583 0.81708 0.40927 0.0
C1772 C 0.80531 0.81695 0.37971 0.0
C1773 C 0.79035 0.80071 0.37006 0.0
C1774 C 0.80207 0.83329 0.38352 0.0
C1775 C 0.81765 0.85144 0.39291 0.0
C1776 C 0.8121 0.85798 0.40766 0.0
C1777 C 0.82677 0.87508 0.41651 0.0
C1778 C 0.84702 0.88583 0.41069 0.0
C1779 C 0.85264 0.87953 0.39596 0.0
C1780 C 0.83802 0.86246 0.38705 0.0
C1781 C 0.71159 0.79953 0.36348 0.0
C1782 C 0.71218 0.81707 0.35738 0.0
C1783 C 0.72978 0.79913 0.36673 0.0
C1784 C 0.74918 0.81617 0.3637 0.0
C1785 C 0.74975 0.83365 0.35732 0.0
C1786 C 0.73152 0.83419 0.35444 0.0
C1787 C 0.76872 0.8163 0.36846 0.0
C1788 C 0.78386 0.83266 0.37799 0.0
C1789 C 0.77228 0.80021 0.36435 0.0
C1790 C 0.75789 0.78295 0.35358 0.0
C1791 C 0.75433 0.78606 0.33664 0.0
C1792 C 0.74113 0.76967 0.32632 0.0
C1793 C 0.73135 0.75011 0.33289 0.0
C1794 C 0.73492 0.74688 0.34972 0.0
C1795 C 0.74826 0.76321 0.36003 0.0
H1796 H 0.72109 0.73745 0.3249 0.0
H1797 H 0.85835 0.89905 0.41757 0.0
H1798 H 0.16079 0.02669 0.40102 0.0
H1799 H 0.1593 0.99545 0.39164 0.0
H1800 H 0.22538 0.02416 0.39595 0.0
H1801 H 0.22702 0.05549 0.40517 0.0
H1802 H 0.174 0.9847 0.36563 0.0
H1803 H 0.23826 0.99032 0.41156 0.0
H1804 H 0.25139 0.00249 0.44056 0.0
H1805 H 0.19392 0.99821 0.45402 0.0
H1806 H 0.18034 0.98573 0.42523 0.0
H1807 H 0.20379 0.91558 0.33749 0.0
H1808 H 0.20386 0.94604 0.34715 0.0
H1809 H 0.18071 0.91839 0.39593 0.0
H1810 H 0.18108 0.88809 0.3863 0.0
H1811 H 0.20738 0.95548 0.40104 0.0
H1812 H 0.14932 0.92137 0.36481 0.0
H1813 H 0.1296 0.90433 0.33888 0.0
H1814 H 0.16441 0.95896 0.31057 0.0
H1815 H 0.18467 0.97623 0.33625 0.0
C1816 C 0.17504 0.02647 0.39971 0.0
C1817 C 0.19402 0.04359 0.40394 0.0
C1818 C 0.17415 0.00856 0.39441 0.0
C1819 C 0.19219 0.00735 0.39331 0.0
C1820 C 0.21121 0.0246 0.39701 0.0
C1821 C 0.21212 0.0425 0.4023 0.0
C1822 C 0.19117 0.98802 0.38858 0.0
C1823 C 0.18135 0.97834 0.37334 0.0
C1824 C 0.20008 0.97928 0.39894 0.0
C1825 C 0.20837 0.98728 0.41616 0.0
C1826 C 0.22843 0.99198 0.42071 0.0
C1827 C 0.23594 0.99891 0.43712 0.0
C1828 C 0.22349 1.00111 0.44911 0.0
C1829 C 0.20356 0.99653 0.4447 0.0
C1830 C 0.19597 0.98957 0.42833 0.0
C1831 C 0.19864 0.91601 0.3502 0.0
C1832 C 0.19221 0.89946 0.36106 0.0
C1833 C 0.19869 0.93342 0.35575 0.0
C1834 C 0.1919 0.93442 0.37218 0.0
C1835 C 0.18602 0.91804 0.38321 0.0
C1836 C 0.18627 0.90075 0.37772 0.0
C1837 C 0.19078 0.95246 0.37779 0.0
C1838 C 0.20014 0.96189 0.39324 0.0
C1839 C 0.18067 0.96046 0.36797 0.0
C1840 C 0.16862 0.95007 0.35245 0.0
C1841 C 0.1529 0.92971 0.35303 0.0
C1842 C 0.1416 0.92002 0.33838 0.0
C1843 C 0.14571 0.93059 0.32312 0.0
C1844 C 0.16122 0.95082 0.32243 0.0
C1845 C 0.17263 0.96057 0.33702 0.0
H1846 H 0.13685 0.92314 0.31182 0.0
H1847 H 0.22921 0.00622 0.46187 0.0
H1848 H 0.47888 0.62545 0.31559 0.0
H1849 H 0.5082 0.65744 0.32522 0.0
H1850 H 0.53191 0.66988 0.27423 0.0
H1851 H 0.5021 0.63883 0.26416 0.0
H1852 H 0.56111 0.6739 0.30279 0.0
H1853 H 0.51236 0.69417 0.28472 0.0
H1854 H 0.47905 0.69325 0.28478 0.0
H1855 H 0.48646 0.70845 0.33793 0.0
H1856 H 0.51965 0.70906 0.33826 0.0
H1857 H 0.64262 0.77509 0.31096 0.0
H1858 H 0.61291 0.74338 0.30164 0.0
H1859 H 0.57907 0.74415 0.34563 0.0
H1860 H 0.60804 0.7765 0.35427 0.0
H1861 H 0.5545 0.73256 0.32098 0.0
H1862 H 0.60144 0.71203 0.3408 0.0
H1863 H 0.6344 0.71233 0.34283 0.0
H1864 H 0.63015 0.69648 0.28995 0.0
H1865 H 0.59729 0.69636 0.28754 0.0
C1866 C 0.49007 0.63506 0.3063 0.0
C1867 C 0.48791 0.62923 0.28903 0.0
C1868 C 0.50696 0.65331 0.3119 0.0
C1869 C 0.52226 0.66599 0.30044 0.0
C1870 C 0.52036 0.66023 0.2833 0.0
C1871 C 0.5033 0.64227 0.27762 0.0
C1872 C 0.54031 0.68528 0.30627 0.0
C1873 C 0.55975 0.68683 0.30664 0.0
C1874 C 0.5384 0.70189 0.31176 0.0
C1875 C 0.51833 0.7013 0.31158 0.0
C1876 C 0.50675 0.697 0.29648 0.0
C1877 C 0.48792 0.69662 0.29643 0.0
C1878 C 0.48059 0.70069 0.31137 0.0
C1879 C 0.49211 0.70522 0.32638 0.0
C1880 C 0.51093 0.70558 0.32651 0.0
C1881 C 0.62889 0.76851 0.3187 0.0
C1882 C 0.628 0.77828 0.3336 0.0
C1883 C 0.61189 0.75021 0.3134 0.0
C1884 C 0.59374 0.74096 0.32309 0.0
C1885 C 0.59282 0.7508 0.33791 0.0
C1886 C 0.60961 0.76928 0.34299 0.0
C1887 C 0.57554 0.72135 0.31764 0.0
C1888 C 0.556 0.71968 0.31728 0.0
C1889 C 0.5773 0.70445 0.31254 0.0
C1890 C 0.59699 0.70438 0.31396 0.0
C1891 C 0.6076 0.70874 0.32958 0.0
C1892 C 0.62626 0.70886 0.3308 0.0
C1893 C 0.63439 0.70448 0.31652 0.0
C1894 C 0.62385 0.6999 0.301 0.0
C1895 C 0.60519 0.69978 0.2997 0.0
H1896 H 0.64884 0.70459 0.31749 0.0
H1897 H 0.46602 0.70042 0.3113 0.0
H1898 H 0.37011 0.86234 0.26742 0.0
H1899 H 0.33856 0.86006 0.27837 0.0
H1900 H 0.36382 0.87113 0.3292 0.0
H1901 H 0.39521 0.87277 0.31829 0.0
H1902 H 0.32569 0.84393 0.33091 0.0
H1903 H 0.36094 0.90851 0.30351 0.0
H1904 H 0.37828 0.93162 0.27964 0.0
H1905 H 0.32307 0.90069 0.24957 0.0
H1906 H 0.30547 0.87722 0.2732 0.0
H1907 H 0.25435 0.89341 0.33711 0.0
H1908 H 0.28682 0.8944 0.33125 0.0
H1909 H 0.2554 0.82929 0.33254 0.0
H1910 H 0.22322 0.82846 0.33928 0.0
H1911 H 0.29716 0.8838 0.30507 0.0
H1912 H 0.28087 0.81058 0.3345 0.0
H1913 H 0.27002 0.79045 0.36084 0.0
H1914 H 0.29467 0.84494 0.39059 0.0
H1915 H 0.30464 0.86522 0.36439 0.0
C1916 C 0.369 0.8644 0.28093 0.0
C1917 C 0.38531 0.86793 0.29195 0.0
C1918 C 0.35091 0.86314 0.2872 0.0
C1919 C 0.34877 0.86581 0.30463 0.0
C1920 C 0.36496 0.86904 0.3157 0.0
C1921 C 0.38295 0.87 0.30945 0.0
C1922 C 0.32973 0.86518 0.31134 0.0
C1923 C 0.31951 0.85271 0.32522 0.0
C1924 C 0.32153 0.87668 0.30417 0.0
C1925 C 0.33195 0.89101 0.29007 0.0
C1926 C 0.35253 0.90659 0.29178 0.0
C1927 C 0.3624 0.91975 0.27829 0.0
C1928 C 0.3518 0.91759 0.26308 0.0
C1929 C 0.33127 0.90233 0.26135 0.0
C1930 C 0.32133 0.88911 0.27479 0.0
C1931 C 0.25456 0.87935 0.33671 0.0
C1932 C 0.23624 0.86091 0.33894 0.0
C1933 C 0.27313 0.87988 0.3332 0.0
C1934 C 0.27391 0.86194 0.3314 0.0
C1935 C 0.25566 0.84346 0.33425 0.0
C1936 C 0.23709 0.84296 0.3381 0.0
C1937 C 0.29317 0.86272 0.32489 0.0
C1938 C 0.30334 0.87508 0.31084 0.0
C1939 C 0.3016 0.85146 0.3321 0.0
C1940 C 0.29318 0.83931 0.34758 0.0
C1941 C 0.28354 0.81817 0.34668 0.0
C1942 C 0.2775 0.80675 0.36156 0.0
C1943 C 0.28154 0.8164 0.37738 0.0
C1944 C 0.2913 0.83746 0.37833 0.0
C1945 C 0.29687 0.84891 0.36348 0.0
H1946 H 0.27717 0.80756 0.3889 0.0
H1947 H 0.35948 0.92777 0.25264 0.0
H1948 H 0.1324 0.50536 0.27564 0.0
H1949 H 0.13239 0.47534 0.28554 0.0
H1950 H 0.19194 0.51249 0.30892 0.0
H1951 H 0.19314 0.54251 0.29743 0.0
H1952 H 0.19232 0.4826 0.29689 0.0
H1953 H 0.14328 0.488 0.33165 0.0
H1954 H 0.11303 0.49137 0.33831 0.0
H1955 H 0.07366 0.43541 0.31242 0.0
H1956 H 0.10372 0.43183 0.30541 0.0
H1957 H 0.18701 0.40698 0.35164 0.0
H1958 H 0.18539 0.4364 0.34205 0.0
H1959 H 0.13632 0.39893 0.30722 0.0
H1960 H 0.13766 0.36917 0.31686 0.0
H1961 H 0.13057 0.4284 0.32544 0.0
H1962 H 0.18315 0.42429 0.2925 0.0
H1963 H 0.21449 0.42162 0.29018 0.0
H1964 H 0.24892 0.47726 0.3179 0.0
H1965 H 0.21769 0.4801 0.32063 0.0
C1966 C 0.14574 0.50726 0.28258 0.0
C1967 C 0.16275 0.52661 0.2857 0.0
C1968 C 0.14552 0.48996 0.28856 0.0
C1969 C 0.16193 0.49152 0.2984 0.0
C1970 C 0.17898 0.51077 0.30147 0.0
C1971 C 0.17948 0.52805 0.29508 0.0
C1972 C 0.16145 0.47314 0.30533 0.0
C1973 C 0.17887 0.47093 0.30331 0.0
C1974 C 0.14391 0.45766 0.31366 0.0
C1975 C 0.12578 0.45975 0.31786 0.0
C1976 C 0.12819 0.47648 0.32727 0.0
C1977 C 0.11107 0.47842 0.33112 0.0
C1978 C 0.09144 0.46364 0.32575 0.0
C1979 C 0.08888 0.44686 0.31655 0.0
C1980 C 0.10594 0.44486 0.31264 0.0
C1981 C 0.17559 0.40483 0.34216 0.0
C1982 C 0.16244 0.38565 0.33503 0.0
C1983 C 0.17481 0.42174 0.33661 0.0
C1984 C 0.1609 0.41985 0.3238 0.0
C1985 C 0.14719 0.40067 0.3171 0.0
C1986 C 0.14803 0.3837 0.32259 0.0
C1987 C 0.16131 0.43806 0.31693 0.0
C1988 C 0.14393 0.44016 0.31898 0.0
C1989 C 0.17907 0.45368 0.30909 0.0
C1990 C 0.19803 0.45235 0.30685 0.0
C1991 C 0.19738 0.43593 0.29815 0.0
C1992 C 0.21513 0.43438 0.29676 0.0
C1993 C 0.23369 0.44927 0.30389 0.0
C1994 C 0.23454 0.46576 0.31237 0.0
C1995 C 0.21683 0.46735 0.31382 0.0
H1996 H 0.24741 0.44804 0.30285 0.0
H1997 H 0.07821 0.46517 0.32875 0.0
H1998 H 0.33531 0.53502 0.29464 0.0
H1999 H 0.30809 0.50079 0.30098 0.0
H2000 H 0.3535 0.48384 0.31273 0.0
H2001 H 0.38113 0.51857 0.30734 0.0
H2002 H 0.31143 0.4567 0.28782 0.0
H2003 H 0.33922 0.48665 0.34419 0.0
H2004 H 0.35026 0.51407 0.36536 0.0
H2005 H 0.29072 0.50915 0.36285 0.0
H2006 H 0.27946 0.48193 0.34142 0.0
H2007 H 0.24224 0.36115 0.32328 0.0
H2008 H 0.27307 0.39382 0.31769 0.0
H2009 H 0.24001 0.42435 0.33175 0.0
H2010 H 0.20946 0.39195 0.33726 0.0
H2011 H 0.27735 0.44467 0.34397 0.0
H2012 H 0.24769 0.41713 0.29034 0.0
H2013 H 0.2333 0.39211 0.26708 0.0
H2014 H 0.29138 0.39444 0.26146 0.0
H2015 H 0.30606 0.41932 0.28489 0.0
C2016 C 0.33967 0.52417 0.29873 0.0
C2017 C 0.36058 0.52984 0.3008 0.0
C2018 C 0.324 0.50451 0.30219 0.0
C2019 C 0.32877 0.48986 0.30747 0.0
C2020 C 0.34952 0.495 0.3087 0.0
C2021 C 0.3653 0.51485 0.30551 0.0
C2022 C 0.3119 0.4695 0.31231 0.0
C2023 C 0.30426 0.45385 0.30022 0.0
C2024 C 0.30187 0.46618 0.32815 0.0
C2025 C 0.30861 0.48246 0.34106 0.0
C2026 C 0.32858 0.49159 0.348 0.0
C2027 C 0.33485 0.50705 0.36008 0.0
C2028 C 0.32123 0.5134 0.3654 0.0
C2029 C 0.30127 0.50425 0.35869 0.0
C2030 C 0.29494 0.48881 0.34659 0.0
C2031 C 0.2417 0.37489 0.32537 0.0
C2032 C 0.22353 0.37394 0.33113 0.0
C2033 C 0.25926 0.39354 0.32208 0.0
C2034 C 0.25888 0.41162 0.32414 0.0
C2035 C 0.2408 0.41068 0.33012 0.0
C2036 C 0.22328 0.39206 0.33341 0.0
C2037 C 0.27706 0.43147 0.31964 0.0
C2038 C 0.28474 0.44721 0.33168 0.0
C2039 C 0.2867 0.43502 0.30353 0.0
C2040 C 0.27792 0.41994 0.28952 0.0
C2041 C 0.25736 0.41219 0.28426 0.0
C2042 C 0.24915 0.39806 0.27102 0.0
C2043 C 0.2614 0.39165 0.26282 0.0
C2044 C 0.28189 0.3994 0.26784 0.0
C2045 C 0.29017 0.41352 0.2811 0.0
H2046 H 0.25503 0.38073 0.25255 0.0
H2047 H 0.32611 0.52536 0.37477 0.0
H2048 H 0.49733 0.86737 0.31422 0.0
H2049 H 0.53124 0.87082 0.31972 0.0
H2050 H 0.51365 0.81693 0.29013 0.0
H2051 H 0.47987 0.81333 0.2849 0.0
H2052 H 0.52945 0.81414 0.31851 0.0
H2053 H 0.55013 0.86539 0.2763 0.0
H2054 H 0.55357 0.89609 0.26304 0.0
H2055 H 0.5874 0.93124 0.30657 0.0
H2056 H 0.58393 0.90069 0.32019 0.0
H2057 H 0.62673 0.81872 0.32304 0.0
H2058 H 0.59457 0.81659 0.31432 0.0
H2059 H 0.61632 0.87682 0.33401 0.0
H2060 H 0.64986 0.88004 0.33961 0.0
H2061 H 0.59722 0.87554 0.31004 0.0
H2062 H 0.57496 0.82051 0.35228 0.0
H2063 H 0.57093 0.7882 0.36253 0.0
H2064 H 0.53935 0.75855 0.31655 0.0
H2065 H 0.54345 0.7906 0.30578 0.0
C2066 C 0.50093 0.85656 0.30858 0.0
C2067 C 0.48589 0.84007 0.29916 0.0
C2068 C 0.52031 0.85848 0.31177 0.0
C2069 C 0.52514 0.84408 0.30541 0.0
C2070 C 0.51038 0.82814 0.29536 0.0
C2071 C 0.49106 0.82616 0.29229 0.0
C2072 C 0.54501 0.84487 0.30982 0.0
C2073 C 0.54432 0.82757 0.31662 0.0
C2074 C 0.56446 0.86233 0.3075 0.0
C2075 C 0.56657 0.88071 0.29934 0.0
C2076 C 0.55816 0.87964 0.2831 0.0
C2077 C 0.56014 0.89702 0.27551 0.0
C2078 C 0.57065 0.9156 0.28398 0.0
C2079 C 0.57924 0.91684 0.30004 0.0
C2080 C 0.57728 0.8995 0.30769 0.0
C2081 C 0.62442 0.83133 0.32581 0.0
C2082 C 0.64041 0.84915 0.33302 0.0
C2083 C 0.60578 0.83005 0.32097 0.0
C2084 C 0.60203 0.84609 0.32423 0.0
C2085 C 0.61826 0.86396 0.3314 0.0
C2086 C 0.63742 0.86573 0.33501 0.0
C2087 C 0.58191 0.84494 0.31945 0.0
C2088 C 0.58248 0.86216 0.31238 0.0
C2089 C 0.56229 0.82726 0.32141 0.0
C2090 C 0.55963 0.80801 0.32819 0.0
C2091 C 0.56719 0.80712 0.34434 0.0
C2092 C 0.56495 0.78888 0.35023 0.0
C2093 C 0.55494 0.77142 0.34023 0.0
C2094 C 0.54712 0.7721 0.32428 0.0
C2095 C 0.54941 0.79028 0.31827 0.0
H2096 H 0.55319 0.75735 0.34488 0.0
H2097 H 0.57218 0.92903 0.27808 0.0
H2098 H 0.17089 0.64385 0.28002 0.0
H2099 H 0.16168 0.67008 0.28455 0.0
H2100 H 0.19046 0.68281 0.33411 0.0
H2101 H 0.1987 0.6561 0.33005 0.0
H2102 H 0.15731 0.685 0.3361 0.0
H2103 H 0.21467 0.71068 0.29728 0.0
H2104 H 0.23284 0.71158 0.27093 0.0
H2105 H 0.18729 0.71637 0.24131 0.0
H2106 H 0.16865 0.71515 0.26749 0.0
H2107 H 0.19478 0.78713 0.35364 0.0
H2108 H 0.19109 0.75491 0.34522 0.0
H2109 H 0.151 0.75029 0.30392 0.0
H2110 H 0.15424 0.78267 0.31253 0.0
H2111 H 0.18289 0.74144 0.29501 0.0
H2112 H 0.1291 0.72123 0.33594 0.0
H2113 H 0.11473 0.72389 0.36333 0.0
H2114 H 0.15729 0.71168 0.39004 0.0
H2115 H 0.17212 0.70921 0.36281 0.0
C2116 C 0.1749 0.65199 0.29201 0.0
C2117 C 0.18581 0.64805 0.30457 0.0
C2118 C 0.16981 0.66714 0.29451 0.0
C2119 C 0.1757 0.67873 0.30956 0.0
C2120 C 0.18582 0.6742 0.32236 0.0
C2121 C 0.19074 0.65903 0.31993 0.0
C2122 C 0.17219 0.6961 0.31196 0.0
C2123 C 0.16292 0.69731 0.32708 0.0
C2124 C 0.17905 0.71205 0.30006 0.0
C2125 C 0.19009 0.71249 0.28431 0.0
C2126 C 0.2084 0.71169 0.28513 0.0
C2127 C 0.21881 0.7123 0.27023 0.0
C2128 C 0.21117 0.71393 0.25445 0.0
C2129 C 0.19314 0.71501 0.25354 0.0
C2130 C 0.18264 0.71435 0.2684 0.0
C2131 C 0.18488 0.77923 0.34293 0.0
C2132 C 0.17448 0.78738 0.33398 0.0
C2133 C 0.18288 0.76079 0.33808 0.0
C2134 C 0.17056 0.75009 0.32409 0.0
C2135 C 0.16049 0.7583 0.31482 0.0
C2136 C 0.16233 0.77676 0.31979 0.0
C2137 C 0.1686 0.73044 0.31928 0.0
C2138 C 0.17683 0.72885 0.30377 0.0
C2139 C 0.16109 0.71428 0.33091 0.0
C2140 C 0.15175 0.71507 0.34731 0.0
C2141 C 0.13543 0.71916 0.34765 0.0
C2142 C 0.1272 0.72064 0.36315 0.0
C2143 C 0.13508 0.71794 0.37842 0.0
C2144 C 0.15117 0.71372 0.37821 0.0
C2145 C 0.15947 0.71223 0.36274 0.0
H2146 H 0.12872 0.71915 0.39041 0.0
H2147 H 0.21927 0.71444 0.24294 0.0
H2148 H 0.88191 0.02719 0.36355 0.0
H2149 H 0.84718 0.99914 0.35918 0.0
H2150 H 0.82792 0.01415 0.40597 0.0
H2151 H 0.86324 0.04207 0.41079 0.0
H2152 H 0.8131 0.97445 0.40412 0.0
H2153 H 0.81215 0.02251 0.36695 0.0
H2154 H 0.82453 0.04855 0.34472 0.0
H2155 H 0.82249 0.00579 0.30811 0.0
H2156 H 0.81038 0.97954 0.33017 0.0
H2157 H 0.70941 0.89725 0.37873 0.0
H2158 H 0.73883 0.92999 0.38715 0.0
H2159 H 0.77557 0.92409 0.34797 0.0
H2160 H 0.74676 0.89132 0.33992 0.0
H2161 H 0.77755 0.96194 0.34836 0.0
H2162 H 0.78238 0.91544 0.3874 0.0
H2163 H 0.77025 0.89002 0.41015 0.0
H2164 H 0.76384 0.93089 0.44377 0.0
H2165 H 0.77567 0.95648 0.42111 0.0
C2166 C 0.87034 0.02459 0.37295 0.0
C2167 C 0.87546 0.03683 0.3876 0.0
C2168 C 0.85035 0.00862 0.37033 0.0
C2169 C 0.83475 0.00456 0.38212 0.0
C2170 C 0.83965 0.01698 0.39664 0.0
C2171 C 0.85979 0.03304 0.39932 0.0
C2172 C 0.81371 0.98681 0.3794 0.0
C2173 C 0.8051 0.97196 0.39207 0.0
C2174 C 0.80323 0.98336 0.36364 0.0
C2175 C 0.81046 0.99907 0.35027 0.0
C2176 C 0.81447 0.01868 0.35419 0.0
C2177 C 0.82143 0.03348 0.34161 0.0
C2178 C 0.82432 0.02883 0.32502 0.0
C2179 C 0.82024 0.00936 0.32097 0.0
C2180 C 0.8133 0.99451 0.3335 0.0
C2181 C 0.72375 0.90291 0.37191 0.0
C2182 C 0.72551 0.89171 0.3584 0.0
C2183 C 0.74056 0.92162 0.37677 0.0
C2184 C 0.75938 0.92954 0.36814 0.0
C2185 C 0.76115 0.91839 0.35471 0.0
C2186 C 0.74454 0.89965 0.35003 0.0
C2187 C 0.77738 0.94945 0.37284 0.0
C2188 C 0.78538 0.96468 0.36053 0.0
C2189 C 0.78712 0.9533 0.38897 0.0
C2190 C 0.77964 0.93778 0.40248 0.0
C2191 C 0.77814 0.91892 0.39957 0.0
C2192 C 0.77137 0.90451 0.41247 0.0
C2193 C 0.76623 0.90883 0.42838 0.0
C2194 C 0.76779 0.92756 0.43143 0.0
C2195 C 0.77453 0.94202 0.41856 0.0
H2196 H 0.76116 0.89772 0.43839 0.0
H2197 H 0.82971 0.04031 0.3153 0.0
H2198 H 0.98945 0.84913 0.35449 0.0
H2199 H 0.01876 0.84438 0.34929 0.0
H2200 H 0.01233 0.81929 0.39939 0.0
H2201 H 0.98303 0.82456 0.40485 0.0
H2202 H 0.05235 0.84673 0.393 0.0
H2203 H 0.99863 0.78935 0.36316 0.0
H2204 H 0.96979 0.77196 0.34286 0.0
H2205 H 0.00921 0.80647 0.30185 0.0
H2206 H 0.03822 0.82427 0.32193 0.0
H2207 H 0.11031 0.79506 0.35857 0.0
H2208 H 0.07823 0.79583 0.36227 0.0
H2209 H 0.11177 0.86062 0.35731 0.0
H2210 H 0.14382 0.85986 0.3535 0.0
H2211 H 0.05751 0.81112 0.34198 0.0
H2212 H 0.09216 0.87823 0.38831 0.0
H2213 H 0.12186 0.89514 0.40792 0.0
H2214 H 0.12006 0.83884 0.41633 0.0
H2215 H 0.09021 0.82158 0.39695 0.0
C2216 C 0.99413 0.84244 0.3644 0.0
C2217 C 0.98388 0.83729 0.38013 0.0
C2218 C 0.0109 0.83964 0.36136 0.0
C2219 C 0.01784 0.83138 0.37389 0.0
C2220 C 0.00733 0.82572 0.3895 0.0
C2221 C 0.99043 0.82851 0.39256 0.0
C2222 C 0.03639 0.8293 0.37072 0.0
C2223 C 0.05336 0.83885 0.38187 0.0
C2224 C 0.03795 0.81908 0.35619 0.0
C2225 C 0.02056 0.80824 0.34408 0.0
C2226 C 1.00112 0.79332 0.34983 0.0
C2227 C 0.98474 0.78338 0.33836 0.0
C2228 C 0.98765 0.78813 0.32108 0.0
C2229 C 1.00697 0.80281 0.31523 0.0
C2230 C 0.02339 0.81281 0.32665 0.0
C2231 C 0.11074 0.80942 0.35798 0.0
C2232 C 0.1295 0.82734 0.35541 0.0
C2233 C 0.09242 0.80984 0.36006 0.0
C2234 C 0.09256 0.82827 0.36013 0.0
C2235 C 0.11127 0.84621 0.35734 0.0
C2236 C 0.12957 0.84576 0.35503 0.0
C2237 C 0.07336 0.82873 0.36411 0.0
C2238 C 0.05637 0.81894 0.3531 0.0
C2239 C 0.07175 0.83862 0.37878 0.0
C2240 C 0.08904 0.84866 0.3911 0.0
C2241 C 0.098 0.86944 0.39446 0.0
C2242 C 0.11489 0.87909 0.4055 0.0
C2243 C 0.12287 0.86807 0.41334 0.0
C2244 C 0.1139 0.84736 0.41023 0.0
C2245 C 0.09701 0.83765 0.39921 0.0
H2246 H 0.13598 0.87557 0.42184 0.0
H2247 H 0.97495 0.78043 0.31222 0.0
H2248 H 0.1943 0.14807 0.38178 0.0
H2249 H 0.20287 0.18277 0.37535 0.0
H2250 H 0.14679 0.1722 0.39946 0.0
H2251 H 0.13843 0.13781 0.40624 0.0
H2252 H 0.18198 0.19497 0.35546 0.0
H2253 H 0.15308 0.21572 0.41653 0.0
H2254 H 0.15091 0.20917 0.44734 0.0
H2255 H 0.20165 0.19824 0.44417 0.0
H2256 H 0.20434 0.20501 0.41339 0.0
H2257 H 0.15461 0.26881 0.34005 0.0
H2258 H 0.15589 0.23916 0.3492 0.0
H2259 H 0.20847 0.27652 0.38106 0.0
H2260 H 0.20703 0.30649 0.37218 0.0
H2261 H 0.18152 0.24328 0.39754 0.0
H2262 H 0.21399 0.25709 0.34301 0.0
H2263 H 0.2163 0.26489 0.31243 0.0
H2264 H 0.16118 0.20836 0.30285 0.0
H2265 H 0.15837 0.20034 0.33341 0.0
C2266 C 0.18402 0.15329 0.38599 0.0
C2267 C 0.16566 0.14017 0.39447 0.0
C2268 C 0.18885 0.17307 0.3822 0.0
C2269 C 0.17554 0.18015 0.38699 0.0
C2270 C 0.15744 0.1672 0.39581 0.0
C2271 C 0.15259 0.14747 0.39954 0.0
C2272 C 0.17985 0.20065 0.38202 0.0
C2273 C 0.18207 0.2056 0.36469 0.0
C2274 C 0.18015 0.21464 0.39405 0.0
C2275 C 0.17879 0.21072 0.41261 0.0
C2276 C 0.16384 0.21201 0.42241 0.0
C2277 C 0.1625 0.20824 0.43987 0.0
C2278 C 0.17609 0.20324 0.4477 0.0
C2279 C 0.19109 0.20204 0.43808 0.0
C2280 C 0.1925 0.20582 0.42062 0.0
C2281 C 0.16666 0.27087 0.34883 0.0
C2282 C 0.18091 0.29013 0.35519 0.0
C2283 C 0.16734 0.25382 0.35407 0.0
C2284 C 0.1825 0.25562 0.36559 0.0
C2285 C 0.1967 0.27479 0.37209 0.0
C2286 C 0.19591 0.29191 0.36694 0.0
C2287 C 0.18317 0.23734 0.37098 0.0
C2288 C 0.18177 0.23278 0.38836 0.0
C2289 C 0.1838 0.22377 0.35902 0.0
C2290 C 0.18595 0.22814 0.34052 0.0
C2291 C 0.20236 0.24633 0.33438 0.0
C2292 C 0.20374 0.25079 0.31706 0.0
C2293 C 0.18889 0.23713 0.30571 0.0
C2294 C 0.17268 0.21891 0.31165 0.0
C2295 C 0.17121 0.21438 0.32898 0.0
H2296 H 0.18994 0.24065 0.29231 0.0
H2297 H 0.17503 0.20031 0.46121 0.0
H2298 H 0.65557 0.50457 0.75823 0.0
H2299 H 0.68672 0.53362 0.74719 0.0
H2300 H 0.65939 0.5215 0.69705 0.0
H2301 H 0.62861 0.49186 0.70798 0.0
H2302 H 0.6967 0.53119 0.69361 0.0
H2303 H 0.66412 0.56137 0.72559 0.0
H2304 H 0.64898 0.5677 0.75103 0.0
H2305 H 0.70611 0.58938 0.77806 0.0
H2306 H 0.72151 0.58295 0.75284 0.0
H2307 H 0.76853 0.65046 0.68961 0.0
H2308 H 0.7361 0.61956 0.69537 0.0
H2309 H 0.76692 0.58491 0.69062 0.0
H2310 H 0.799 0.61569 0.68402 0.0
H2311 H 0.72766 0.59845 0.72138 0.0
H2312 H 0.74089 0.54134 0.68733 0.0
H2313 H 0.74979 0.53233 0.65968 0.0
H2314 H 0.72413 0.56404 0.63369 0.0
H2315 H 0.71608 0.57405 0.66119 0.0
C2316 C 0.65621 0.50818 0.74486 0.0
C2317 C 0.6396 0.49601 0.73398 0.0
C2318 C 0.67401 0.52488 0.73855 0.0
C2319 C 0.67542 0.53014 0.72129 0.0
C2320 C 0.65881 0.51787 0.71041 0.0
C2321 C 0.64118 0.50094 0.71665 0.0
C2322 C 0.69421 0.54819 0.71446 0.0
C2323 C 0.70339 0.5459 0.69972 0.0
C2324 C 0.70311 0.56753 0.72224 0.0
C2325 C 0.6939 0.5715 0.73738 0.0
C2326 C 0.67341 0.56737 0.73699 0.0
C2327 C 0.66479 0.57099 0.75137 0.0
C2328 C 0.67656 0.57889 0.76616 0.0
C2329 C 0.697 0.58324 0.7666 0.0
C2330 C 0.70569 0.57963 0.75227 0.0
C2331 C 0.76815 0.63612 0.68919 0.0
C2332 C 0.78624 0.6355 0.68608 0.0
C2333 C 0.74963 0.61843 0.69263 0.0
C2334 C 0.7488 0.59965 0.69348 0.0
C2335 C 0.76676 0.59893 0.68965 0.0
C2336 C 0.78525 0.61665 0.68587 0.0
C2337 C 0.72992 0.58158 0.70026 0.0
C2338 C 0.72089 0.58379 0.71519 0.0
C2339 C 0.72088 0.56226 0.69251 0.0
C2340 C 0.72819 0.55865 0.67622 0.0
C2341 C 0.73758 0.54671 0.67568 0.0
C2342 C 0.7425 0.54147 0.66007 0.0
C2343 C 0.73761 0.54767 0.64494 0.0
C2344 C 0.72813 0.55943 0.64541 0.0
C2345 C 0.72366 0.56515 0.661 0.0
H2346 H 0.74113 0.54333 0.63284 0.0
H2347 H 0.66985 0.58168 0.77728 0.0
H2348 H 0.51183 0.14646 0.75414 0.0
H2349 H 0.48215 0.14834 0.74402 0.0
H2350 H 0.49992 0.14697 0.69217 0.0
H2351 H 0.52915 0.14391 0.70223 0.0
H2352 H 0.47747 0.17451 0.72737 0.0
H2353 H 0.45738 0.12587 0.66629 0.0
H2354 H 0.46039 0.09738 0.65479 0.0
H2355 H 0.46066 0.07681 0.70545 0.0
H2356 H 0.4574 0.10501 0.71723 0.0
H2357 H 0.39801 0.18346 0.68704 0.0
H2358 H 0.43008 0.18279 0.69038 0.0
H2359 H 0.39534 0.1196 0.70318 0.0
H2360 H 0.36326 0.12006 0.69892 0.0
H2361 H 0.42728 0.12553 0.68583 0.0
H2362 H 0.41667 0.15832 0.73409 0.0
H2363 H 0.41055 0.1839 0.74783 0.0
H2364 H 0.46729 0.23122 0.72755 0.0
H2365 H 0.47363 0.20589 0.71354 0.0
C2366 C 0.5093 0.14614 0.74056 0.0
C2367 C 0.52291 0.14472 0.72905 0.0
C2368 C 0.49238 0.14752 0.73477 0.0
C2369 C 0.48852 0.14764 0.71729 0.0
C2370 C 0.50225 0.14659 0.70572 0.0
C2371 C 0.51915 0.14504 0.71152 0.0
C2372 C 0.47009 0.14877 0.71139 0.0
C2373 C 0.4666 0.16383 0.71821 0.0
C2374 C 0.4556 0.13478 0.69956 0.0
C2375 C 0.45741 0.11769 0.69263 0.0
C2376 C 0.45805 0.11523 0.67496 0.0
C2377 C 0.4598 0.09914 0.6684 0.0
C2378 C 0.4608 0.08534 0.67938 0.0
C2379 C 0.45997 0.08756 0.69696 0.0
C2380 C 0.4582 0.1036 0.70358 0.0
C2381 C 0.39717 0.16929 0.69001 0.0
C2382 C 0.37805 0.15168 0.69231 0.0
C2383 C 0.41558 0.16897 0.69217 0.0
C2384 C 0.41528 0.1512 0.6973 0.0
C2385 C 0.39613 0.1335 0.69917 0.0
C2386 C 0.37777 0.13378 0.6968 0.0
C2387 C 0.43467 0.15118 0.70188 0.0
C2388 C 0.43833 0.13635 0.69482 0.0
C2389 C 0.44901 0.16501 0.71385 0.0
C2390 C 0.44554 0.18023 0.72266 0.0
C2391 C 0.42781 0.17418 0.73253 0.0
C2392 C 0.4243 0.18863 0.74036 0.0
C2393 C 0.4385 0.20917 0.73852 0.0
C2394 C 0.4563 0.2153 0.72894 0.0
C2395 C 0.45987 0.20091 0.72107 0.0
H2396 H 0.43574 0.22033 0.74455 0.0
H2397 H 0.46217 0.07291 0.67428 0.0
H2398 H 0.89722 0.39131 0.73167 0.0
H2399 H 0.89658 0.36044 0.72192 0.0
H2400 H 0.83078 0.32676 0.72867 0.0
H2401 H 0.83128 0.35768 0.73806 0.0
H2402 H 0.85551 0.30915 0.74348 0.0
H2403 H 0.84348 0.33615 0.69156 0.0
H2404 H 0.85204 0.36294 0.67047 0.0
H2405 H 0.91024 0.36667 0.66129 0.0
H2406 H 0.90214 0.3401 0.68254 0.0
H2407 H 0.83403 0.22981 0.67405 0.0
H2408 H 0.83758 0.26185 0.68327 0.0
H2409 H 0.88475 0.26985 0.71912 0.0
H2410 H 0.88139 0.23773 0.70988 0.0
H2411 H 0.87006 0.3007 0.68341 0.0
H2412 H 0.87956 0.29199 0.7541 0.0
H2413 H 0.8718 0.26499 0.77484 0.0
H2414 H 0.81793 0.22417 0.74617 0.0
H2415 H 0.82545 0.25091 0.7252 0.0
C2416 C 0.88263 0.37732 0.73098 0.0
C2417 C 0.86428 0.37684 0.73549 0.0
C2418 C 0.88229 0.35974 0.72547 0.0
C2419 C 0.86365 0.34137 0.72467 0.0
C2420 C 0.84532 0.34082 0.72928 0.0
C2421 C 0.8456 0.35846 0.73448 0.0
C2422 C 0.86321 0.32278 0.71869 0.0
C2423 C 0.85872 0.3073 0.73036 0.0
C2424 C 0.86748 0.32044 0.70161 0.0
C2425 C 0.8723 0.33631 0.68877 0.0
C2426 C 0.85818 0.34282 0.68516 0.0
C2427 C 0.86293 0.35793 0.67315 0.0
C2428 C 0.8817 0.36654 0.66458 0.0
C2429 C 0.89573 0.36001 0.66796 0.0
C2430 C 0.89106 0.34492 0.67998 0.0
C2431 C 0.84543 0.23849 0.68369 0.0
C2432 C 0.85753 0.23122 0.69113 0.0
C2433 C 0.84738 0.25681 0.68898 0.0
C2434 C 0.86131 0.26817 0.70195 0.0
C2435 C 0.87373 0.2612 0.70921 0.0
C2436 C 0.87181 0.24285 0.70389 0.0
C2437 C 0.86228 0.28698 0.70816 0.0
C2438 C 0.86695 0.30256 0.69655 0.0
C2439 C 0.8582 0.28941 0.7253 0.0
C2440 C 0.85311 0.27342 0.73809 0.0
C2441 C 0.86601 0.27728 0.75228 0.0
C2442 C 0.86172 0.262 0.76401 0.0
C2443 C 0.84437 0.24291 0.76183 0.0
C2444 C 0.83135 0.23899 0.74784 0.0
C2445 C 0.83566 0.25417 0.736 0.0
H2446 H 0.84099 0.23118 0.77101 0.0
H2447 H 0.88535 0.37824 0.65528 0.0
H2448 H 0.17575 0.95041 0.62731 0.0
H2449 H 0.20522 0.98217 0.63741 0.0
H2450 H 0.16784 0.01041 0.63654 0.0
H2451 H 0.13825 0.97862 0.62659 0.0
H2452 H 0.20753 0.03392 0.62111 0.0
H2453 H 0.17714 0.99818 0.67306 0.0
H2454 H 0.16383 0.96912 0.69246 0.0
H2455 H 0.22297 0.97305 0.69325 0.0
H2456 H 0.23656 1.00197 0.67365 0.0
H2457 H 0.27349 0.10958 0.69124 0.0
H2458 H 0.24436 0.07729 0.68229 0.0
H2459 H 0.27936 0.07518 0.63977 0.0
H2460 H 0.30886 0.10736 0.64882 0.0
H2461 H 0.24023 0.03892 0.67725 0.0
H2462 H 0.24502 0.05603 0.6058 0.0
H2463 H 0.25887 0.08569 0.58699 0.0
H2464 H 0.2501 0.11989 0.62617 0.0
H2465 H 0.23593 0.09037 0.64509 0.0
C2466 C 0.17381 0.96338 0.62931 0.0
C2467 C 0.15465 0.96199 0.62624 0.0
C2468 C 0.19065 0.9815 0.6351 0.0
C2469 C 0.18874 0.99867 0.63772 0.0
C2470 C 0.16967 0.99736 0.63457 0.0
C2471 C 0.15274 0.97916 0.62903 0.0
C2472 C 0.20661 0.01794 0.64389 0.0
C2473 C 0.21469 0.035 0.63337 0.0
C2474 C 0.21592 0.01942 0.65992 0.0
C2475 C 0.2078 1.00211 0.67176 0.0
C2476 C 0.18726 0.99274 0.67726 0.0
C2477 C 0.17967 0.97632 0.68831 0.0
C2478 C 0.19253 0.96921 0.69405 0.0
C2479 C 0.21302 0.97855 0.68878 0.0
C2480 C 0.22068 0.99497 0.67771 0.0
C2481 C 0.27523 0.10216 0.68016 0.0
C2482 C 0.2937 0.11111 0.67087 0.0
C2483 C 0.25847 0.08367 0.67503 0.0
C2484 C 0.25963 0.07384 0.66034 0.0
C2485 C 0.27808 0.08255 0.65111 0.0
C2486 C 0.29495 0.10097 0.65633 0.0
C2487 C 0.2413 0.05482 0.6544 0.0
C2488 C 0.23313 0.03782 0.66495 0.0
C2489 C 0.23188 0.05341 0.63842 0.0
C2490 C 0.23959 0.07103 0.62691 0.0
C2491 C 0.24592 0.06984 0.61035 0.0
C2492 C 0.25385 0.08664 0.59968 0.0
C2493 C 0.25543 0.10468 0.6054 0.0
C2494 C 0.24894 0.10593 0.62176 0.0
C2495 C 0.24096 0.08917 0.63247 0.0
H2496 H 0.26165 0.11769 0.59714 0.0
H2497 H 0.18663 0.9565 0.70261 0.0
H2498 H 0.03497 0.19338 0.59874 0.0
H2499 H 1.00304 0.19068 0.60921 0.0
H2500 H 0.02839 0.20446 0.66001 0.0
H2501 H 0.06021 0.2067 0.64961 0.0
H2502 H 0.99064 0.17606 0.66198 0.0
H2503 H 0.02385 0.23981 0.63332 0.0
H2504 H 0.04039 0.26288 0.60926 0.0
H2505 H 0.9853 0.2298 0.57938 0.0
H2506 H 0.96852 0.20637 0.60319 0.0
H2507 H 0.91758 0.22352 0.66658 0.0
H2508 H 0.95007 0.22469 0.66051 0.0
H2509 H 0.91948 0.15973 0.66404 0.0
H2510 H 0.88731 0.15882 0.67127 0.0
H2511 H 0.95993 0.21326 0.63479 0.0
H2512 H 0.94422 0.14181 0.66596 0.0
H2513 H 0.93413 0.12246 0.69273 0.0
H2514 H 0.96187 0.17787 0.72142 0.0
H2515 H 0.97101 0.19739 0.69483 0.0
C2516 C 0.03382 0.19601 0.61212 0.0
C2517 C 0.05027 0.2004 0.6233 0.0
C2518 C 0.01551 0.19448 0.61812 0.0
C2519 C 0.01324 0.19766 0.63542 0.0
C2520 C 0.02961 0.2019 0.64662 0.0
C2521 C 0.04785 0.2032 0.64066 0.0
C2522 C 0.99384 0.19644 0.64188 0.0
C2523 C 0.98398 0.18425 0.65599 0.0
C2524 C 0.98499 0.20713 0.63429 0.0
C2525 C 0.99501 0.22123 0.61998 0.0
C2526 C 0.01532 0.23738 0.62157 0.0
C2527 C 0.02473 0.25052 0.60799 0.0
C2528 C 0.01392 0.24777 0.59279 0.0
C2529 C 0.99366 0.23189 0.59115 0.0
C2530 C 0.98419 0.21868 0.60469 0.0
C2531 C 0.918 0.20956 0.66661 0.0
C2532 C 0.89996 0.19114 0.66964 0.0
C2533 C 0.93658 0.21018 0.66299 0.0
C2534 C 0.93759 0.19232 0.66177 0.0
C2535 C 0.91959 0.17387 0.66533 0.0
C2536 C 0.90104 0.1733 0.6694 0.0
C2537 C 0.95683 0.19314 0.65518 0.0
C2538 C 0.96657 0.2051 0.64084 0.0
C2539 C 0.96585 0.18261 0.66276 0.0
C2540 C 0.95791 0.17096 0.67852 0.0
C2541 C 0.9477 0.14977 0.67802 0.0
C2542 C 0.9421 0.13879 0.69314 0.0
C2543 C 0.94719 0.14891 0.70878 0.0
C2544 C 0.95763 0.17002 0.70932 0.0
C2545 C 0.96274 0.18104 0.69424 0.0
H2546 H 0.94314 0.14041 0.72048 0.0
H2547 H 0.02123 0.25797 0.58228 0.0
H2548 H 0.82742 0.86661 0.64947 0.0
H2549 H 0.82832 0.83705 0.66019 0.0
H2550 H 0.81421 0.81052 0.61004 0.0
H2551 H 0.81436 0.8403 0.59896 0.0
H2552 H 0.79 0.78372 0.63765 0.0
H2553 H 0.86059 0.8304 0.62159 0.0
H2554 H 0.89284 0.86321 0.62243 0.0
H2555 H 0.89761 0.85747 0.67631 0.0
H2556 H 0.86519 0.82474 0.67581 0.0
H2557 H 0.81224 0.70447 0.64421 0.0
H2558 H 0.80931 0.73365 0.63615 0.0
H2559 H 0.84113 0.76452 0.68219 0.0
H2560 H 0.84538 0.73599 0.68971 0.0
H2561 H 0.85539 0.78968 0.65828 0.0
H2562 H 0.78685 0.74332 0.67551 0.0
H2563 H 0.75405 0.71104 0.67634 0.0
H2564 H 0.74408 0.71646 0.62331 0.0
H2565 H 0.77698 0.74865 0.62209 0.0
C2566 C 0.82473 0.85463 0.64064 0.0
C2567 C 0.82077 0.85596 0.62331 0.0
C2568 C 0.82509 0.83767 0.64685 0.0
C2569 C 0.82128 0.82161 0.6359 0.0
C2570 C 0.817 0.82269 0.61871 0.0
C2571 C 0.81697 0.83973 0.61244 0.0
C2572 C 0.82228 0.80388 0.6422 0.0
C2573 C 0.8043 0.78491 0.64204 0.0
C2574 C 0.84081 0.80564 0.64841 0.0
C2575 C 0.86035 0.82524 0.64869 0.0
C2576 C 0.86841 0.83622 0.63364 0.0
C2577 C 0.88674 0.85479 0.63405 0.0
C2578 C 0.89723 0.86245 0.64942 0.0
C2579 C 0.88945 0.85153 0.66441 0.0
C2580 C 0.8711 0.83297 0.66407 0.0
C2581 C 0.81853 0.71739 0.6527 0.0
C2582 C 0.82876 0.71765 0.6678 0.0
C2583 C 0.81669 0.73408 0.64812 0.0
C2584 C 0.8246 0.75124 0.65871 0.0
C2585 C 0.83476 0.75148 0.67381 0.0
C2586 C 0.83696 0.73497 0.67823 0.0
C2587 C 0.82305 0.76923 0.65372 0.0
C2588 C 0.84097 0.78833 0.65407 0.0
C2589 C 0.80433 0.76762 0.64799 0.0
C2590 C 0.78447 0.74832 0.64868 0.0
C2591 C 0.77773 0.73756 0.66399 0.0
C2592 C 0.75911 0.71929 0.66454 0.0
C2593 C 0.74701 0.71168 0.64988 0.0
C2594 C 0.75348 0.72236 0.63465 0.0
C2595 C 0.7721 0.74063 0.63403 0.0
H2596 H 0.7326 0.69753 0.65032 0.0
H2597 H 0.91143 0.87682 0.64971 0.0
H2598 H 0.01838 0.87107 0.66252 0.0
H2599 H 0.99126 0.83697 0.66875 0.0
H2600 H 0.01115 0.8141 0.6271 0.0
H2601 H 0.03777 0.84869 0.62008 0.0
H2602 H 0.9714 0.79635 0.62623 0.0
H2603 H 0.01911 0.80717 0.67056 0.0
H2604 H 0.04285 0.82464 0.69448 0.0
H2605 H 0.99297 0.821 0.72385 0.0
H2606 H 0.96896 0.80377 0.70002 0.0
H2607 H 0.91005 0.69409 0.65775 0.0
H2608 H 0.94132 0.72686 0.6535 0.0
H2609 H 0.91012 0.75723 0.6726 0.0
H2610 H 0.87857 0.72471 0.67591 0.0
H2611 H 0.95681 0.76919 0.6849 0.0
H2612 H 0.9106 0.76174 0.63772 0.0
H2613 H 0.88732 0.74191 0.61419 0.0
H2614 H 0.93627 0.73718 0.59054 0.0
H2615 H 0.95973 0.75664 0.61416 0.0
C2616 C 0.01701 0.85887 0.65457 0.0
C2617 C 0.03021 0.86279 0.64063 0.0
C2618 C 1.00159 0.83922 0.65834 0.0
C2619 C 0.99918 0.82275 0.64858 0.0
C2620 C 0.01265 0.82649 0.63488 0.0
C2621 C 0.02803 0.84628 0.63097 0.0
C2622 C 0.982 0.8019 0.6523 0.0
C2623 C 0.96851 0.79039 0.63904 0.0
C2624 C 0.97787 0.79393 0.66904 0.0
C2625 C 0.99226 0.80433 0.68342 0.0
C2626 C 0.01323 0.81024 0.68206 0.0
C2627 C 0.02673 0.82008 0.69562 0.0
C2628 C 0.01943 0.82397 0.71066 0.0
C2629 C 0.9986 0.81799 0.71219 0.0
C2630 C 0.98503 0.80817 0.69866 0.0
C2631 C 0.90995 0.70776 0.66123 0.0
C2632 C 0.89194 0.70674 0.66757 0.0
C2633 C 0.92779 0.72643 0.65881 0.0
C2634 C 0.92801 0.74441 0.66281 0.0
C2635 C 0.91028 0.74348 0.66957 0.0
C2636 C 0.89227 0.72484 0.67159 0.0
C2637 C 0.94637 0.7642 0.65895 0.0
C2638 C 0.95997 0.77532 0.67214 0.0
C2639 C 0.95076 0.77171 0.64218 0.0
C2640 C 0.93683 0.76041 0.62781 0.0
C2641 C 0.91633 0.75629 0.6276 0.0
C2642 C 0.90312 0.74515 0.61423 0.0
C2643 C 0.91029 0.73823 0.6009 0.0
C2644 C 0.93072 0.74251 0.60089 0.0
C2645 C 0.94398 0.75359 0.61426 0.0
H2646 H 0.90003 0.7296 0.59056 0.0
H2647 H 0.02991 0.83158 0.72115 0.0
H2648 H 0.16633 0.20635 0.6423 0.0
H2649 H 0.20082 0.21088 0.64743 0.0
H2650 H 0.17896 0.1495 0.63134 0.0
H2651 H 0.14495 0.14508 0.62577 0.0
H2652 H 0.19612 0.15906 0.66476 0.0
H2653 H 0.21218 0.18447 0.60766 0.0
H2654 H 0.21583 0.20722 0.58414 0.0
H2655 H 0.25951 0.25831 0.61357 0.0
H2656 H 0.2559 0.23587 0.63738 0.0
H2657 H 0.28657 0.15137 0.67173 0.0
H2658 H 0.25452 0.15047 0.66471 0.0
H2659 H 0.28644 0.21562 0.66417 0.0
H2660 H 0.31892 0.21634 0.66982 0.0
H2661 H 0.26391 0.20513 0.63913 0.0
H2662 H 0.23495 0.18299 0.69801 0.0
H2663 H 0.22465 0.16231 0.72394 0.0
H2664 H 0.20548 0.10877 0.69383 0.0
H2665 H 0.21428 0.12911 0.66762 0.0
C2666 C 0.16906 0.19404 0.63939 0.0
C2667 C 0.15274 0.17524 0.63389 0.0
C2668 C 0.18876 0.19661 0.64239 0.0
C2669 C 0.19244 0.18044 0.63993 0.0
C2670 C 0.17649 0.16213 0.63347 0.0
C2671 C 0.157 0.15963 0.63035 0.0
C2672 C 0.212 0.18162 0.64571 0.0
C2673 C 0.21093 0.169 0.659 0.0
C2674 C 0.23144 0.19502 0.63866 0.0
C2675 C 0.23358 0.20851 0.62438 0.0
C2676 C 0.2224 0.20058 0.60919 0.0
C2677 C 0.2245 0.21341 0.59579 0.0
C2678 C 0.23784 0.2342 0.59738 0.0
C2679 C 0.24915 0.2422 0.61237 0.0
C2680 C 0.24709 0.22943 0.62581 0.0
C2681 C 0.28668 0.1655 0.67061 0.0
C2682 C 0.30527 0.18396 0.67168 0.0
C2683 C 0.26815 0.16501 0.6667 0.0
C2684 C 0.26757 0.18298 0.66424 0.0
C2685 C 0.28617 0.20145 0.66593 0.0
C2686 C 0.30478 0.20191 0.66932 0.0
C2687 C 0.24818 0.18256 0.65844 0.0
C2688 C 0.2492 0.19526 0.64502 0.0
C2689 C 0.22862 0.16949 0.66556 0.0
C2690 C 0.22589 0.15759 0.681 0.0
C2691 C 0.22886 0.16685 0.69698 0.0
C2692 C 0.22296 0.15516 0.71168 0.0
C2693 C 0.21472 0.13426 0.71057 0.0
C2694 C 0.21201 0.12497 0.69469 0.0
C2695 C 0.21721 0.13654 0.6799 0.0
H2696 H 0.21033 0.12525 0.722 0.0
H2697 H 0.23946 0.24411 0.58698 0.0
H2698 H 0.87875 0.00307 0.61377 0.0
H2699 H 0.87251 0.03083 0.62034 0.0
H2700 H 0.82822 0.99413 0.65831 0.0
H2701 H 0.83378 0.96597 0.65109 0.0
H2702 H 0.81484 0.01527 0.64385 0.0
H2703 H 0.87959 0.0316 0.66812 0.0
H2704 H 0.91495 0.03727 0.6692 0.0
H2705 H 0.93436 0.08525 0.63305 0.0
H2706 H 0.89903 0.07966 0.63155 0.0
H2707 H 0.82867 0.10281 0.69234 0.0
H2708 H 0.82973 0.07249 0.68364 0.0
H2709 H 0.85129 0.09826 0.63412 0.0
H2710 H 0.8499 0.12845 0.6427 0.0
H2711 H 0.8756 0.08278 0.65515 0.0
H2712 H 0.80831 0.06474 0.63226 0.0
H2713 H 0.77308 0.0592 0.63455 0.0
H2714 H 0.75902 0.01423 0.67274 0.0
H2715 H 0.79431 0.01976 0.67087 0.0
C2716 C 0.86755 1.00092 0.62341 0.0
C2717 C 0.85683 0.98248 0.63202 0.0
C2718 C 0.86408 0.01682 0.62725 0.0
C2719 C 0.85028 0.01484 0.64017 0.0
C2720 C 0.83902 0.99613 0.64837 0.0
C2721 C 0.84219 0.98005 0.64426 0.0
C2722 C 0.848 0.03241 0.64533 0.0
C2723 C 0.82816 0.02994 0.64648 0.0
C2724 C 0.86533 0.05169 0.64878 0.0
C2725 C 0.8866 0.05506 0.64958 0.0
C2726 C 0.89135 0.04325 0.66029 0.0
C2727 C 0.9114 0.04646 0.66099 0.0
C2728 C 0.92688 0.06157 0.65116 0.0
C2729 C 0.92235 0.07353 0.64063 0.0
C2730 C 0.90231 0.07034 0.63985 0.0
C2731 C 0.83356 0.10195 0.67962 0.0
C2732 C 0.83927 0.11795 0.66823 0.0
C2733 C 0.83404 0.08462 0.67463 0.0
C2734 C 0.84059 0.0832 0.65825 0.0
C2735 C 0.84613 0.09909 0.64679 0.0
C2736 C 0.84522 0.11622 0.65167 0.0
C2737 C 0.8426 0.06556 0.65336 0.0
C2738 C 0.86238 0.06805 0.65241 0.0
C2739 C 0.82526 0.04627 0.65052 0.0
C2740 C 0.80402 0.04283 0.65156 0.0
C2741 C 0.79778 0.05382 0.64127 0.0
C2742 C 0.77778 0.05065 0.64246 0.0
C2743 C 0.76384 0.03641 0.65382 0.0
C2744 C 0.76985 0.02528 0.66397 0.0
C2745 C 0.78984 0.02841 0.66284 0.0
H2746 H 0.74836 0.03398 0.65473 0.0
H2747 H 0.94239 0.06405 0.65174 0.0
H2748 H 0.52856 0.37733 0.74332 0.0
H2749 H 0.4934 0.3492 0.73875 0.0
H2750 H 0.513 0.33276 0.69286 0.0
H2751 H 0.54754 0.36125 0.69683 0.0
H2752 H 0.47728 0.32775 0.68735 0.0
H2753 H 0.50717 0.30871 0.73315 0.0
H2754 H 0.52315 0.31212 0.76134 0.0
H2755 H 0.47052 0.30952 0.78531 0.0
H2756 H 0.45434 0.30632 0.75723 0.0
H2757 H 0.41161 0.22361 0.67664 0.0
H2758 H 0.44059 0.25656 0.68387 0.0
H2759 H 0.40346 0.2656 0.7207 0.0
H2760 H 0.37389 0.23246 0.7132 0.0
H2761 H 0.44403 0.27647 0.73253 0.0
H2762 H 0.41262 0.29033 0.68517 0.0
H2763 H 0.39742 0.28459 0.65642 0.0
H2764 H 0.45431 0.29487 0.63476 0.0
H2765 H 0.46978 0.30041 0.6634 0.0
C2766 C 0.52525 0.36794 0.7321 0.0
C2767 C 0.54103 0.37143 0.7206 0.0
C2768 C 0.50518 0.35167 0.7296 0.0
C2769 C 0.50051 0.33847 0.71562 0.0
C2770 C 0.51608 0.34253 0.7038 0.0
C2771 C 0.53597 0.35879 0.7062 0.0
C2772 C 0.47975 0.32012 0.71328 0.0
C2773 C 0.47011 0.31656 0.69727 0.0
C2774 C 0.46995 0.30556 0.72624 0.0
C2775 C 0.47968 0.30755 0.7431 0.0
C2776 C 0.49909 0.30903 0.74443 0.0
C2777 C 0.50816 0.3109 0.76039 0.0
C2778 C 0.49789 0.31111 0.7751 0.0
C2779 C 0.47849 0.3094 0.7739 0.0
C2780 C 0.46935 0.30756 0.75797 0.0
C2781 C 0.40935 0.23263 0.68608 0.0
C2782 C 0.39016 0.22548 0.69402 0.0
C2783 C 0.42607 0.25149 0.69029 0.0
C2784 C 0.42415 0.26371 0.70266 0.0
C2785 C 0.40525 0.25646 0.71104 0.0
C2786 C 0.38835 0.23754 0.70671 0.0
C2787 C 0.44204 0.28403 0.70655 0.0
C2788 C 0.45108 0.2879 0.72278 0.0
C2789 C 0.45149 0.29875 0.69372 0.0
C2790 C 0.44234 0.29574 0.67645 0.0
C2791 C 0.42186 0.29128 0.67428 0.0
C2792 C 0.41321 0.28809 0.65801 0.0
C2793 C 0.42491 0.28942 0.64377 0.0
C2794 C 0.44529 0.29391 0.64579 0.0
C2795 C 0.45402 0.29712 0.66205 0.0
H2796 H 0.41818 0.28692 0.63118 0.0
H2797 H 0.50493 0.31255 0.78744 0.0
H2798 H 0.67505 0.20136 0.72252 0.0
H2799 H 0.70337 0.1953 0.71657 0.0
H2800 H 0.66021 0.1324 0.70723 0.0
H2801 H 0.63139 0.13851 0.71235 0.0
H2802 H 0.70098 0.14638 0.73001 0.0
H2803 H 0.67519 0.1523 0.67483 0.0
H2804 H 0.66387 0.16891 0.65411 0.0
H2805 H 0.72287 0.22298 0.6575 0.0
H2806 H 0.73442 0.20679 0.67849 0.0
H2807 H 0.77567 0.12593 0.69509 0.0
H2808 H 0.74354 0.12636 0.69934 0.0
H2809 H 0.77557 0.19052 0.69027 0.0
H2810 H 0.80759 0.19005 0.68598 0.0
H2811 H 0.73853 0.1737 0.67593 0.0
H2812 H 0.76482 0.17181 0.73055 0.0
H2813 H 0.77846 0.15925 0.75301 0.0
H2814 H 0.72179 0.10254 0.75302 0.0
H2815 H 0.70791 0.11468 0.73036 0.0
C2816 C 0.67142 0.18619 0.71912 0.0
C2817 C 0.65077 0.17052 0.71756 0.0
C2818 C 0.68772 0.18276 0.71583 0.0
C2819 C 0.68394 0.16349 0.71124 0.0
C2820 C 0.66347 0.14744 0.71069 0.0
C2821 C 0.64701 0.15094 0.71372 0.0
C2822 C 0.70152 0.16064 0.70636 0.0
C2823 C 0.70892 0.1519 0.71802 0.0
C2824 C 0.71246 0.1687 0.69107 0.0
C2825 C 0.70557 0.1784 0.67838 0.0
C2826 C 0.68567 0.1678 0.67131 0.0
C2827 C 0.67923 0.17712 0.65948 0.0
C2828 C 0.69262 0.19701 0.65453 0.0
C2829 C 0.7125 0.20759 0.66137 0.0
C2830 C 0.719 0.19834 0.67322 0.0
C2831 C 0.77574 0.14005 0.69375 0.0
C2832 C 0.79408 0.15784 0.6898 0.0
C2833 C 0.7574 0.14033 0.69628 0.0
C2834 C 0.75707 0.15852 0.69533 0.0
C2835 C 0.77532 0.17626 0.69103 0.0
C2836 C 0.79367 0.17597 0.68846 0.0
C2837 C 0.73795 0.15918 0.69949 0.0
C2838 C 0.73041 0.16777 0.68779 0.0
C2839 C 0.72718 0.15143 0.71495 0.0
C2840 C 0.73541 0.14407 0.72862 0.0
C2841 C 0.75532 0.1566 0.73524 0.0
C2842 C 0.76309 0.14957 0.74803 0.0
C2843 C 0.75102 0.13008 0.7544 0.0
C2844 C 0.73114 0.11761 0.74804 0.0
C2845 C 0.7233 0.12457 0.73524 0.0
H2846 H 0.75706 0.12466 0.7643 0.0
H2847 H 0.6876 0.20419 0.64537 0.0
H2848 H 0.86341 0.48031 0.71084 0.0
H2849 H 0.87173 0.51497 0.7044 0.0
H2850 H 0.81567 0.50407 0.72876 0.0
H2851 H 0.80752 0.46973 0.73546 0.0
H2852 H 0.8507 0.52754 0.68479 0.0
H2853 H 0.82238 0.54696 0.74707 0.0
H2854 H 0.82118 0.54014 0.77779 0.0
H2855 H 0.87231 0.53002 0.77283 0.0
H2856 H 0.87403 0.53709 0.74214 0.0
H2857 H 0.82238 0.60095 0.67061 0.0
H2858 H 0.82446 0.5714 0.67881 0.0
H2859 H 0.87526 0.60821 0.71252 0.0
H2860 H 0.87281 0.63793 0.70475 0.0
H2861 H 0.84993 0.57481 0.72779 0.0
H2862 H 0.88228 0.59006 0.67346 0.0
H2863 H 0.88502 0.5985 0.643 0.0
H2864 H 0.83055 0.54178 0.63238 0.0
H2865 H 0.82733 0.53309 0.66281 0.0
C2866 C 0.85306 0.48545 0.71506 0.0
C2867 C 0.83478 0.47227 0.72362 0.0
C2868 C 0.85775 0.50519 0.71127 0.0
C2869 C 0.84439 0.51217 0.71617 0.0
C2870 C 0.82635 0.49914 0.72501 0.0
C2871 C 0.82162 0.47944 0.72872 0.0
C2872 C 0.84865 0.53273 0.71147 0.0
C2873 C 0.85071 0.53795 0.6942 0.0
C2874 C 0.84901 0.54649 0.72376 0.0
C2875 C 0.84822 0.5424 0.74226 0.0
C2876 C 0.83343 0.54338 0.75255 0.0
C2877 C 0.83265 0.53945 0.76996 0.0
C2878 C 0.84662 0.5346 0.77725 0.0
C2879 C 0.86145 0.53372 0.76715 0.0
C2880 C 0.86232 0.53765 0.74975 0.0
C2881 C 0.83415 0.60287 0.67965 0.0
C2882 C 0.84754 0.62187 0.68693 0.0
C2883 C 0.83537 0.58591 0.6843 0.0
C2884 C 0.85027 0.58758 0.69607 0.0
C2885 C 0.86368 0.60654 0.70336 0.0
C2886 C 0.8623 0.62352 0.69887 0.0
C2887 C 0.85135 0.56937 0.70107 0.0
C2888 C 0.85024 0.56455 0.71839 0.0
C2889 C 0.8522 0.55614 0.68885 0.0
C2890 C 0.85454 0.56096 0.67044 0.0
C2891 C 0.87088 0.57939 0.66463 0.0
C2892 C 0.87251 0.58422 0.64737 0.0
C2893 C 0.85796 0.57069 0.63577 0.0
C2894 C 0.84182 0.55224 0.64138 0.0
C2895 C 0.84011 0.54733 0.65863 0.0
H2896 H 0.8592 0.57451 0.62242 0.0
H2897 H 0.84597 0.53155 0.79073 0.0
H2898 H 0.43932 0.91956 0.2559 0.0
H2899 H 0.45143 0.93781 0.22914 0.0
H2900 H 0.45513 0.8878 0.20752 0.0
H2901 H 0.44319 0.86953 0.23441 0.0
H2902 H 0.48742 0.92257 0.19797 0.0
H2903 H 0.41454 0.8955 0.19821 0.0
H2904 H 0.38137 0.8888 0.21017 0.0
H2905 H 0.4028 0.95241 0.21158 0.0
H2906 H 0.43622 0.95951 0.19985 0.0
H2907 H 0.49832 0.96016 0.11335 0.0
H2908 H 0.48412 0.93815 0.13814 0.0
H2909 H 0.48016 0.9854 0.16491 0.0
H2910 H 0.49379 0.0072 0.14012 0.0
H2911 H 0.44651 0.94949 0.17054 0.0
H2912 H 0.52004 0.97637 0.17196 0.0
H2913 H 0.55339 0.983 0.16044 0.0
H2914 H 0.53037 0.91926 0.15582 0.0
H2915 H 0.49678 0.91226 0.16711 0.0
C2916 C 0.44272 0.91244 0.24545 0.0
C2917 C 0.44014 0.89301 0.24727 0.0
C2918 C 0.4496 0.92287 0.23012 0.0
C2919 C 0.45381 0.91404 0.21613 0.0
C2920 C 0.45192 0.89492 0.21808 0.0
C2921 C 0.44515 0.88451 0.23348 0.0
C2922 C 0.45991 0.9247 0.19948 0.0
C2923 C 0.47829 0.92815 0.19184 0.0
C2924 C 0.44818 0.93227 0.19152 0.0
C2925 C 0.42795 0.92804 0.19827 0.0
C2926 C 0.41222 0.90807 0.20115 0.0
C2927 C 0.39337 0.9042 0.20789 0.0
C2928 C 0.39 0.92017 0.21168 0.0
C2929 C 0.40544 0.94005 0.20866 0.0
C2930 C 0.42433 0.94401 0.20195 0.0
C2931 C 0.49414 0.96575 0.12443 0.0
C2932 C 0.49738 0.98554 0.12478 0.0
C2933 C 0.48619 0.95321 0.13866 0.0
C2934 C 0.48134 0.9602 0.15353 0.0
C2935 C 0.48386 0.97966 0.15366 0.0
C2936 C 0.49182 0.99219 0.13949 0.0
C2937 C 0.47416 0.94758 0.16917 0.0
C2938 C 0.45555 0.94375 0.17661 0.0
C2939 C 0.48564 0.93961 0.17691 0.0
C2940 C 0.50584 0.9438 0.1702 0.0
C2941 C 0.52205 0.96377 0.16837 0.0
C2942 C 0.54099 0.96759 0.1619 0.0
C2943 C 0.54397 0.95156 0.15736 0.0
C2944 C 0.52803 0.93167 0.15932 0.0
C2945 C 0.50904 0.92776 0.16576 0.0
H2946 H 0.55866 0.95455 0.15236 0.0
H2947 H 0.37541 0.91715 0.21692 0.0
H2948 H 0.15309 0.54306 0.22767 0.0
H2949 H 0.13361 0.53986 0.20175 0.0
H2950 H 0.11069 0.57613 0.22454 0.0
H2951 H 0.12964 0.57886 0.25072 0.0
H2952 H 0.08023 0.54291 0.21018 0.0
H2953 H 0.14701 0.59496 0.19317 0.0
H2954 H 0.18443 0.61102 0.18859 0.0
H2955 H 0.17477 0.56336 0.15411 0.0
H2956 H 0.1373 0.54683 0.15868 0.0
H2957 H 0.03199 0.55109 0.13612 0.0
H2958 H 0.05639 0.56084 0.15979 0.0
H2959 H 0.07911 0.52325 0.13947 0.0
H2960 H 0.05469 0.5134 0.11573 0.0
H2961 H 0.1103 0.55877 0.15235 0.0
H2962 H 0.04404 0.50584 0.1707 0.0
H2963 H 1.00658 0.48953 0.17521 0.0
H2964 H 0.01553 0.53885 0.20732 0.0
H2965 H 0.05304 0.5556 0.20279 0.0
C2966 C 0.14386 0.55032 0.22718 0.0
C2967 C 0.14283 0.56114 0.2413 0.0
C2968 C 0.13292 0.54867 0.21228 0.0
C2969 C 0.12083 0.55792 0.21113 0.0
C2970 C 0.11997 0.56893 0.22512 0.0
C2971 C 0.13092 0.57059 0.24003 0.0
C2972 C 0.10822 0.55518 0.19569 0.0
C2973 C 0.08689 0.54673 0.19757 0.0
C2974 C 0.11681 0.55965 0.17918 0.0
C2975 C 0.13935 0.56955 0.1764 0.0
C2976 C 0.15287 0.5878 0.18473 0.0
C2977 C 0.17409 0.59701 0.18211 0.0
C2978 C 0.18198 0.58819 0.1711 0.0
C2979 C 0.16865 0.57016 0.16265 0.0
C2980 C 0.14741 0.56088 0.16524 0.0
C2981 C 0.04221 0.54492 0.13667 0.0
C2982 C 0.0412 0.53124 0.12419 0.0
C2983 C 0.05618 0.55056 0.15017 0.0
C2984 C 0.06931 0.54249 0.15155 0.0
C2985 C 0.06907 0.52961 0.13868 0.0
C2986 C 0.05512 0.52401 0.12512 0.0
C2987 C 0.0824 0.54656 0.1669 0.0
C2988 C 0.10375 0.55514 0.16499 0.0
C2989 C 0.07385 0.54218 0.18342 0.0
C2990 C 0.05132 0.53206 0.18626 0.0
C2991 C 0.038 0.51327 0.17862 0.0
C2992 C 0.01677 0.50394 0.18119 0.0
C2993 C 0.00868 0.51318 0.19151 0.0
C2994 C 0.02182 0.53173 0.19931 0.0
C2995 C 0.04307 0.54115 0.19675 0.0
H2996 H 0.99223 0.50593 0.19349 0.0
H2997 H 0.19841 0.59535 0.16908 0.0
H2998 H 0.48495 0.57286 0.25581 0.0
H2999 H 0.4928 0.56235 0.22882 0.0
H3000 H 0.43884 0.55905 0.20605 0.0
H3001 H 0.43095 0.5698 0.23308 0.0
H3002 H 0.44613 0.5276 0.19512 0.0
H3003 H 0.48218 0.5997 0.19959 0.0
H3004 H 0.504 0.63243 0.21389 0.0
H3005 H 0.55414 0.62048 0.21567 0.0
H3006 H 0.53249 0.58749 0.20164 0.0
H3007 H 0.48398 0.52404 0.11279 0.0
H3008 H 0.46995 0.53404 0.13641 0.0
H3009 H 0.52527 0.55158 0.16555 0.0
H3010 H 0.5401 0.54343 0.14156 0.0
H3011 H 0.51404 0.57726 0.17135 0.0
H3012 H 0.47676 0.50355 0.17001 0.0
H3013 H 0.45515 0.47078 0.15562 0.0
H3014 H 0.40775 0.48582 0.14763 0.0
H3015 H 0.42915 0.51874 0.16188 0.0
C3016 C 0.47463 0.56972 0.24511 0.0
C3017 C 0.45748 0.57244 0.24653 0.0
C3018 C 0.47911 0.56367 0.22971 0.0
C3019 C 0.4666 0.56025 0.21535 0.0
C3020 C 0.44872 0.56166 0.21697 0.0
C3021 C 0.44421 0.56775 0.23243 0.0
C3022 C 0.47322 0.55677 0.19849 0.0
C3023 C 0.46085 0.53854 0.18978 0.0
C3024 C 0.49244 0.57103 0.19155 0.0
C3025 C 0.50565 0.59105 0.19968 0.0
C3026 C 0.49782 0.60399 0.20313 0.0
C3027 C 0.51016 0.62259 0.21118 0.0
C3028 C 0.53043 0.62851 0.21571 0.0
C3029 C 0.53843 0.61586 0.21216 0.0
C3030 C 0.52613 0.59722 0.20414 0.0
C3031 C 0.49337 0.53039 0.12407 0.0
C3032 C 0.51315 0.5326 0.12522 0.0
C3033 C 0.48515 0.53583 0.13773 0.0
C3034 C 0.49629 0.5431 0.15303 0.0
C3035 C 0.51622 0.54585 0.154 0.0
C3036 C 0.5246 0.54086 0.14027 0.0
C3037 C 0.48738 0.54768 0.16819 0.0
C3038 C 0.49927 0.56628 0.17658 0.0
C3039 C 0.46777 0.53371 0.17482 0.0
C3040 C 0.4546 0.51363 0.16689 0.0
C3041 C 0.46172 0.49985 0.16517 0.0
C3042 C 0.44952 0.48127 0.15704 0.0
C3043 C 0.43011 0.47625 0.15068 0.0
C3044 C 0.42279 0.48973 0.15256 0.0
C3045 C 0.43493 0.50833 0.16069 0.0
H3046 H 0.42072 0.46189 0.14432 0.0
H3047 H 0.53996 0.64292 0.22196 0.0
H3048 H 0.91677 0.43107 0.77 0.0
H3049 H 0.9352 0.44241 0.79706 0.0
H3050 H 0.88535 0.4482 0.818 0.0
H3051 H 0.86641 0.43623 0.79109 0.0
H3052 H 0.92657 0.48077 0.82668 0.0
H3053 H 0.88549 0.40839 0.82783 0.0
H3054 H 0.87226 0.374 0.81637 0.0
H3055 H 0.93349 0.38289 0.81625 0.0
H3056 H 0.94715 0.41748 0.82745 0.0
H3057 H 0.96565 0.48985 0.91084 0.0
H3058 H 0.9417 0.47816 0.88673 0.0
H3059 H 0.97881 0.45752 0.86138 0.0
H3060 H 1.00207 0.46807 0.88574 0.0
H3061 H 0.94014 0.43143 0.85641 0.0
H3062 H 0.98201 0.50389 0.85233 0.0
H3063 H 0.99674 0.53905 0.86239 0.0
H3064 H 0.93601 0.53093 0.86685 0.0
H3065 H 0.92091 0.49562 0.85702 0.0
C3066 C 0.9097 0.43479 0.78033 0.0
C3067 C 0.88998 0.43248 0.77842 0.0
C3068 C 0.92031 0.44135 0.79575 0.0
C3069 C 0.91148 0.44587 0.80955 0.0
C3070 C 0.89237 0.44475 0.80747 0.0
C3071 C 0.88163 0.438 0.79205 0.0
C3072 C 0.92181 0.4506 0.82638 0.0
C3073 C 0.92926 0.46992 0.83337 0.0
C3074 C 0.92556 0.43648 0.83488 0.0
C3075 C 0.91736 0.41559 0.82835 0.0
C3076 C 0.89616 0.40307 0.82524 0.0
C3077 C 0.88858 0.38353 0.81881 0.0
C3078 C 0.90203 0.37628 0.81555 0.0
C3079 C 0.92309 0.38854 0.81876 0.0
C3080 C 0.93076 0.4081 0.82517 0.0
C3081 C 0.96851 0.48249 0.90028 0.0
C3082 C 0.98598 0.48017 0.90015 0.0
C3083 C 0.95492 0.47602 0.8864 0.0
C3084 C 0.95868 0.46735 0.87207 0.0
C3085 C 0.97565 0.46431 0.87222 0.0
C3086 C 0.98909 0.47057 0.88611 0.0
C3087 C 0.9454 0.46184 0.85665 0.0
C3088 C 0.93731 0.44229 0.84989 0.0
C3089 C 0.94129 0.47584 0.84828 0.0
C3090 C 0.95033 0.49706 0.85414 0.0
C3091 C 0.9718 0.50956 0.85558 0.0
C3092 C 0.98021 0.52952 0.86122 0.0
C3093 C 0.96731 0.5372 0.86531 0.0
C3094 C 0.94598 0.52495 0.86372 0.0
C3095 C 0.93749 0.50497 0.85811 0.0
H3096 H 0.97385 0.55266 0.86967 0.0
H3097 H 0.89613 0.36115 0.81057 0.0
H3098 H 0.58378 0.44009 0.79092 0.0
H3099 H 0.56871 0.44427 0.8171 0.0
H3100 H 0.5667 0.49482 0.79499 0.0
H3101 H 0.58235 0.49103 0.769 0.0
H3102 H 0.57915 0.50388 0.82584 0.0
H3103 H 0.52282 0.44636 0.79911 0.0
H3104 H 0.50477 0.41261 0.7857 0.0
H3105 H 0.51169 0.38621 0.83153 0.0
H3106 H 0.53004 0.41986 0.84514 0.0
H3107 H 0.48416 0.47202 0.88425 0.0
H3108 H 0.49981 0.46664 0.85919 0.0
H3109 H 0.55886 0.49536 0.88456 0.0
H3110 H 0.54359 0.50207 0.90932 0.0
H3111 H 0.51774 0.44659 0.85202 0.0
H3112 H 0.59722 0.51951 0.85624 0.0
H3113 H 0.61257 0.5543 0.86743 0.0
H3114 H 0.55424 0.55169 0.86263 0.0
H3115 H 0.53863 0.517 0.85122 0.0
C3116 C 0.57997 0.45199 0.79163 0.0
C3117 C 0.58414 0.46518 0.7779 0.0
C3118 C 0.57133 0.45436 0.80659 0.0
C3119 C 0.56628 0.46971 0.808 0.0
C3120 C 0.57048 0.4829 0.79427 0.0
C3121 C 0.57938 0.48071 0.77941 0.0
C3122 C 0.5568 0.47218 0.82379 0.0
C3123 C 0.56573 0.49132 0.83155 0.0
C3124 C 0.5391 0.45592 0.8312 0.0
C3125 C 0.52799 0.43565 0.82308 0.0
C3126 C 0.52062 0.43337 0.80628 0.0
C3127 C 0.51032 0.41426 0.79865 0.0
C3128 C 0.50714 0.39728 0.80774 0.0
C3129 C 0.5142 0.39938 0.8245 0.0
C3130 C 0.52454 0.41846 0.83218 0.0
C3131 C 0.50055 0.47748 0.88448 0.0
C3132 C 0.51262 0.48782 0.89879 0.0
C3133 C 0.50944 0.47413 0.87016 0.0
C3134 C 0.53061 0.48086 0.86981 0.0
C3135 C 0.54257 0.49038 0.88435 0.0
C3136 C 0.53373 0.49398 0.89862 0.0
C3137 C 0.54009 0.47829 0.85406 0.0
C3138 C 0.53121 0.45912 0.84634 0.0
C3139 C 0.55745 0.49466 0.84638 0.0
C3140 C 0.56673 0.51559 0.85306 0.0
C3141 C 0.5877 0.5264 0.85753 0.0
C3142 C 0.59644 0.54609 0.86392 0.0
C3143 C 0.58437 0.55517 0.8658 0.0
C3144 C 0.56355 0.54461 0.86123 0.0
C3145 C 0.55475 0.52493 0.85482 0.0
H3146 H 0.59116 0.57041 0.87076 0.0
H3147 H 0.49916 0.3825 0.80181 0.0
H3148 H 0.57896 0.11644 0.77131 0.0
H3149 H 0.57491 0.10038 0.79886 0.0
H3150 H 0.52535 0.1115 0.81094 0.0
H3151 H 0.53081 0.12946 0.78448 0.0
H3152 H 0.54374 0.11582 0.83786 0.0
H3153 H 0.51946 0.06318 0.79566 0.0
H3154 H 0.52137 0.04538 0.77012 0.0
H3155 H 0.57119 0.0409 0.79256 0.0
H3156 H 0.56972 0.05889 0.81816 0.0
H3157 H 0.48344 0.02966 0.89109 0.0
H3158 H 0.49705 0.05281 0.86692 0.0
H3159 H 0.55737 0.06087 0.87629 0.0
H3160 H 0.54388 0.03812 0.90089 0.0
H3161 H 0.53769 0.04827 0.84024 0.0
H3162 H 0.55604 0.09818 0.88496 0.0
H3163 H 0.5485 0.1126 0.91016 0.0
H3164 H 0.50266 0.11831 0.88186 0.0
H3165 H 0.5097 0.10362 0.85654 0.0
C3166 C 0.56744 0.11584 0.77992 0.0
C3167 C 0.55497 0.12403 0.77528 0.0
C3168 C 0.5649 0.10629 0.79566 0.0
C3169 C 0.5494 0.10411 0.80697 0.0
C3170 C 0.53734 0.11273 0.80254 0.0
C3171 C 0.54024 0.12274 0.78709 0.0
C3172 C 0.54537 0.09268 0.82327 0.0
C3173 C 0.54232 0.101 0.83825 0.0
C3174 C 0.5437 0.07337 0.8241 0.0
C3175 C 0.54465 0.0626 0.80872 0.0
C3176 C 0.53092 0.05853 0.79509 0.0
C3177 C 0.5319 0.04839 0.78061 0.0
C3178 C 0.54644 0.04208 0.77969 0.0
C3179 C 0.55997 0.04584 0.79327 0.0
C3180 C 0.55907 0.056 0.80777 0.0
C3181 C 0.49965 0.03659 0.8881 0.0
C3182 C 0.51265 0.03217 0.89782 0.0
C3183 C 0.5074 0.04978 0.87433 0.0
C3184 C 0.52819 0.05852 0.86983 0.0
C3185 C 0.54128 0.05428 0.87959 0.0
C3186 C 0.53362 0.0414 0.89364 0.0
C3187 C 0.53585 0.07137 0.85447 0.0
C3188 C 0.53946 0.06324 0.83974 0.0
C3189 C 0.53733 0.0905 0.85374 0.0
C3190 C 0.53329 0.09963 0.86889 0.0
C3191 C 0.54424 0.10235 0.88414 0.0
C3192 C 0.54007 0.11061 0.89844 0.0
C3193 C 0.52508 0.11633 0.89763 0.0
C3194 C 0.51426 0.11386 0.88248 0.0
C3195 C 0.51836 0.10559 0.86814 0.0
H3196 H 0.52186 0.1227 0.90872 0.0
H3197 H 0.54717 0.03422 0.76847 0.0
H3198 H 0.07582 0.21226 0.56586 0.0
H3199 H 0.0905 0.23084 0.53959 0.0
H3200 H 0.1516 0.25495 0.56056 0.0
H3201 H 0.13696 0.23677 0.58708 0.0
H3202 H 0.14695 0.28408 0.54576 0.0
H3203 H 0.1333 0.21786 0.53016 0.0
H3204 H 0.1123 0.18093 0.52662 0.0
H3205 H 0.07142 0.18824 0.49287 0.0
H3206 H 0.09202 0.22522 0.4964 0.0
H3207 H 0.20256 0.3262 0.47056 0.0
H3208 H 0.18778 0.30467 0.49534 0.0
H3209 H 0.12692 0.28108 0.47403 0.0
H3210 H 0.14165 0.3027 0.4491 0.0
H3211 H 0.13128 0.2514 0.48882 0.0
H3212 H 0.14435 0.31736 0.50476 0.0
H3213 H 0.16518 0.35432 0.50821 0.0
H3214 H 0.20679 0.34744 0.54142 0.0
H3215 H 0.18635 0.31043 0.53796 0.0
C3216 C 0.09238 0.22159 0.56493 0.0
C3217 C 0.10521 0.22307 0.57863 0.0
C3218 C 0.10077 0.23205 0.54982 0.0
C3219 C 0.12218 0.24418 0.548 0.0
C3220 C 0.13504 0.24565 0.56162 0.0
C3221 C 0.12666 0.23514 0.57674 0.0
C3222 C 0.13111 0.25584 0.53212 0.0
C3223 C 0.14377 0.27688 0.53334 0.0
C3224 C 0.12652 0.24655 0.51583 0.0
C3225 C 0.1141 0.22431 0.51369 0.0
C3226 C 0.11973 0.21159 0.5221 0.0
C3227 C 0.10792 0.19064 0.52007 0.0
C3228 C 0.0905 0.18224 0.50956 0.0
C3229 C 0.0849 0.19477 0.50103 0.0
C3230 C 0.09665 0.21572 0.50303 0.0
C3231 C 0.18601 0.31649 0.47113 0.0
C3232 C 0.17328 0.31642 0.45792 0.0
C3233 C 0.17758 0.30414 0.48532 0.0
C3234 C 0.15619 0.29152 0.48674 0.0
C3235 C 0.14346 0.29076 0.47327 0.0
C3236 C 0.15191 0.3031 0.459 0.0
C3237 C 0.14718 0.27961 0.5025 0.0
C3238 C 0.13448 0.25857 0.50125 0.0
C3239 C 0.15168 0.28888 0.51878 0.0
C3240 C 0.16393 0.31113 0.52097 0.0
C3241 C 0.15803 0.32374 0.51269 0.0
C3242 C 0.16975 0.34469 0.51467 0.0
C3243 C 0.18733 0.35323 0.52499 0.0
C3244 C 0.19318 0.34081 0.5334 0.0
C3245 C 0.18153 0.31984 0.53145 0.0
H3246 H 0.19638 0.36946 0.52651 0.0
H3247 H 0.08138 0.16602 0.508 0.0
H3248 H 0.76744 0.86359 0.59081 0.0
H3249 H 0.74758 0.85732 0.56451 0.0
H3250 H 0.80169 0.90332 0.53924 0.0
H3251 H 0.82149 0.90989 0.56564 0.0
H3252 H 0.76901 0.90506 0.52911 0.0
H3253 H 0.78605 0.85303 0.53439 0.0
H3254 H 0.78855 0.82567 0.54864 0.0
H3255 H 0.72267 0.7909 0.55213 0.0
H3256 H 0.71979 0.8182 0.53814 0.0
H3257 H 0.72519 0.8726 0.44666 0.0
H3258 H 0.74822 0.88027 0.47111 0.0
H3259 H 0.69726 0.83687 0.50108 0.0
H3260 H 0.67444 0.82841 0.47649 0.0
H3261 H 0.73085 0.83455 0.50747 0.0
H3262 H 0.71501 0.88888 0.50343 0.0
H3263 H 0.71362 0.91624 0.48805 0.0
H3264 H 0.77905 0.94653 0.48073 0.0
H3265 H 0.78079 0.91926 0.49597 0.0
C3266 C 0.77503 0.87245 0.57967 0.0
C3267 C 0.79602 0.88714 0.58023 0.0
C3268 C 0.76371 0.86883 0.56464 0.0
C3269 C 0.77325 0.87955 0.54979 0.0
C3270 C 0.79401 0.89481 0.55051 0.0
C3271 C 0.80529 0.89859 0.56561 0.0
C3272 C 0.76173 0.87438 0.53342 0.0
C3273 C 0.76088 0.88968 0.52428 0.0
C3274 C 0.75106 0.85431 0.52709 0.0
C3275 C 0.75272 0.83774 0.53534 0.0
C3276 C 0.7721 0.8396 0.5383 0.0
C3277 C 0.77359 0.8241 0.54632 0.0
C3278 C 0.75578 0.80658 0.55132 0.0
C3279 C 0.73645 0.8045 0.54826 0.0
C3280 C 0.73488 0.81997 0.54028 0.0
C3281 C 0.71898 0.86443 0.45836 0.0
C3282 C 0.69793 0.85 0.45964 0.0
C3283 C 0.73211 0.869 0.47239 0.0
C3284 C 0.72438 0.85942 0.48803 0.0
C3285 C 0.70354 0.84455 0.48918 0.0
C3286 C 0.69046 0.83988 0.47514 0.0
C3287 C 0.73775 0.86512 0.5034 0.0
C3288 C 0.73902 0.84992 0.5123 0.0
C3289 C 0.74897 0.8853 0.5094 0.0
C3290 C 0.748 0.90199 0.50073 0.0
C3291 C 0.72909 0.90137 0.49851 0.0
C3292 C 0.72824 0.91685 0.48982 0.0
C3293 C 0.74623 0.93309 0.48339 0.0
C3294 C 0.76513 0.93394 0.48572 0.0
C3295 C 0.76606 0.9185 0.49441 0.0
H3296 H 0.74554 0.94503 0.47663 0.0
H3297 H 0.75697 0.79459 0.55753 0.0
H3298 H 0.14453 0.93682 0.5699 0.0
H3299 H 0.14968 0.92322 0.54344 0.0
H3300 H 0.11235 0.86268 0.56234 0.0
H3301 H 0.10747 0.87628 0.58913 0.0
H3302 H 0.14803 0.86847 0.54796 0.0
H3303 H 0.09346 0.88093 0.53242 0.0
H3304 H 0.07646 0.90128 0.52965 0.0
H3305 H 0.12547 0.9433 0.49778 0.0
H3306 H 0.14292 0.92336 0.50054 0.0
H3307 H 0.14734 0.82138 0.47101 0.0
H3308 H 0.13497 0.83189 0.49558 0.0
H3309 H 0.16617 0.89319 0.47728 0.0
H3310 H 0.17784 0.88246 0.45228 0.0
H3311 H 0.13163 0.88566 0.49145 0.0
H3312 H 0.18757 0.87582 0.50827 0.0
H3313 H 0.20616 0.85698 0.51123 0.0
H3314 H 0.15669 0.81204 0.54103 0.0
H3315 H 0.13768 0.83048 0.53804 0.0
C3316 C 0.13753 0.9206 0.56851 0.0
C3317 C 0.1257 0.90763 0.5817 0.0
C3318 C 0.1403 0.91284 0.55327 0.0
C3319 C 0.13123 0.89192 0.55081 0.0
C3320 C 0.11943 0.87888 0.56394 0.0
C3321 C 0.11657 0.88666 0.5792 0.0
C3322 C 0.13467 0.88377 0.53472 0.0
C3323 C 0.14409 0.87192 0.53561 0.0
C3324 C 0.13013 0.88879 0.51858 0.0
C3325 C 0.11958 0.90073 0.5168 0.0
C3326 C 0.10069 0.89459 0.52492 0.0
C3327 C 0.09096 0.90604 0.52333 0.0
C3328 C 0.0999 0.92359 0.51358 0.0
C3329 C 0.11856 0.9297 0.50534 0.0
C3330 C 0.12837 0.91832 0.5069 0.0
C3331 C 0.1513 0.83704 0.47215 0.0
C3332 C 0.16369 0.85117 0.45987 0.0
C3333 C 0.14433 0.84307 0.48623 0.0
C3334 C 0.15011 0.86346 0.48858 0.0
C3335 C 0.16161 0.8774 0.47584 0.0
C3336 C 0.16827 0.87128 0.46156 0.0
C3337 C 0.14504 0.87037 0.50466 0.0
C3338 C 0.1354 0.88206 0.50379 0.0
C3339 C 0.14962 0.86543 0.52085 0.0
C3340 C 0.16112 0.85442 0.52279 0.0
C3341 C 0.18061 0.86185 0.51537 0.0
C3342 C 0.19122 0.85125 0.51705 0.0
C3343 C 0.18259 0.8333 0.52627 0.0
C3344 C 0.16335 0.82594 0.53387 0.0
C3345 C 0.15265 0.83646 0.53219 0.0
H3346 H 0.19083 0.82511 0.52756 0.0
H3347 H 0.09234 0.93244 0.51237 0.0
H3348 H 0.58449 0.76417 0.10261 0.0
H3349 H 0.60367 0.77585 0.12932 0.0
H3350 H 0.55512 0.78341 0.15079 0.0
H3351 H 0.53544 0.77111 0.12425 0.0
H3352 H 0.59632 0.81583 0.1582 0.0
H3353 H 0.55556 0.74357 0.16146 0.0
H3354 H 0.54203 0.70873 0.15101 0.0
H3355 H 0.60331 0.71776 0.14989 0.0
H3356 H 0.61724 0.75278 0.16009 0.0
H3357 H 0.6363 0.8269 0.2424 0.0
H3358 H 0.61274 0.81539 0.21802 0.0
H3359 H 0.64972 0.79407 0.19345 0.0
H3360 H 0.67259 0.80447 0.21807 0.0
H3361 H 0.6111 0.76783 0.18884 0.0
H3362 H 0.65252 0.84005 0.18319 0.0
H3363 H 0.66731 0.87553 0.19237 0.0
H3364 H 0.60659 0.86742 0.1969 0.0
H3365 H 0.59144 0.8318 0.18794 0.0
C3366 C 0.57783 0.76827 0.113 0.0
C3367 C 0.5583 0.76647 0.11132 0.0
C3368 C 0.58887 0.77503 0.12822 0.0
C3369 C 0.58068 0.78026 0.14205 0.0
C3370 C 0.56167 0.77943 0.14023 0.0
C3371 C 0.5505 0.77248 0.12502 0.0
C3372 C 0.59168 0.7857 0.1586 0.0
C3373 C 0.5993 0.80528 0.16509 0.0
C3374 C 0.59582 0.77199 0.16735 0.0
C3375 C 0.58746 0.75085 0.16141 0.0
C3376 C 0.56617 0.73818 0.15887 0.0
C3377 C 0.55842 0.71839 0.153 0.0
C3378 C 0.57181 0.71105 0.14975 0.0
C3379 C 0.59296 0.72347 0.1524 0.0
C3380 C 0.60079 0.74328 0.15824 0.0
C3381 C 0.63923 0.81948 0.23192 0.0
C3382 C 0.65647 0.81678 0.23216 0.0
C3383 C 0.62588 0.81312 0.21789 0.0
C3384 C 0.62965 0.80418 0.20374 0.0
C3385 C 0.64653 0.80103 0.20415 0.0
C3386 C 0.65975 0.80719 0.21819 0.0
C3387 C 0.61621 0.79818 0.18839 0.0
C3388 C 0.60804 0.77841 0.1821 0.0
C3389 C 0.61177 0.81181 0.17975 0.0
C3390 C 0.62085 0.83321 0.18509 0.0
C3391 C 0.64233 0.8458 0.18627 0.0
C3392 C 0.65077 0.86593 0.19141 0.0
C3393 C 0.6379 0.87371 0.19527 0.0
C3394 C 0.61655 0.86137 0.19394 0.0
C3395 C 0.60802 0.84121 0.18882 0.0
H3396 H 0.64446 0.8893 0.19924 0.0
H3397 H 0.56578 0.69572 0.14521 0.0
H3398 H 0.2529 0.8256 0.10321 0.0
H3399 H 0.24075 0.83037 0.13071 0.0
H3400 H 0.2453 0.78047 0.15119 0.0
H3401 H 0.25699 0.77536 0.12354 0.0
H3402 H 0.21202 0.77832 0.16242 0.0
H3403 H 0.28184 0.83057 0.16032 0.0
H3404 H 0.31291 0.85937 0.14826 0.0
H3405 H 0.28298 0.89475 0.14823 0.0
H3406 H 0.25161 0.86605 0.16007 0.0
H3407 H 0.22437 0.84374 0.24438 0.0
H3408 H 0.23922 0.83482 0.22049 0.0
H3409 H 0.18031 0.80646 0.19488 0.0
H3410 H 0.16524 0.8146 0.21891 0.0
H3411 H 0.24429 0.84647 0.18887 0.0
H3412 H 0.17415 0.76819 0.17013 0.0
H3413 H 0.14628 0.73834 0.18429 0.0
H3414 H 0.18254 0.75323 0.23002 0.0
H3415 H 0.2107 0.78305 0.21609 0.0
C3416 C 0.25132 0.81567 0.1136 0.0
C3417 C 0.25595 0.80015 0.11124 0.0
C3418 C 0.24445 0.81844 0.12933 0.0
C3419 C 0.24244 0.80602 0.14317 0.0
C3420 C 0.24673 0.79027 0.14075 0.0
C3421 C 0.25338 0.78734 0.12494 0.0
C3422 C 0.23581 0.80945 0.16009 0.0
C3423 C 0.21912 0.79321 0.16821 0.0
C3424 C 0.24545 0.82874 0.168 0.0
C3425 C 0.26432 0.8461 0.16096 0.0
C3426 C 0.28184 0.84445 0.15764 0.0
C3427 C 0.29951 0.86076 0.15085 0.0
C3428 C 0.2999 0.87887 0.14745 0.0
C3429 C 0.28264 0.88071 0.15086 0.0
C3430 C 0.26492 0.86443 0.15762 0.0
C3431 C 0.21449 0.83528 0.2338 0.0
C3432 C 0.19361 0.82994 0.23356 0.0
C3433 C 0.22304 0.83033 0.22008 0.0
C3434 C 0.21087 0.81983 0.20591 0.0
C3435 C 0.18998 0.81429 0.20575 0.0
C3436 C 0.18143 0.81918 0.21944 0.0
C3437 C 0.2201 0.81548 0.1909 0.0
C3438 C 0.23728 0.83154 0.18314 0.0
C3439 C 0.21134 0.79591 0.18363 0.0
C3440 C 0.19447 0.77796 0.19209 0.0
C3441 C 0.1762 0.76506 0.18319 0.0
C3442 C 0.16034 0.74816 0.19118 0.0
C3443 C 0.16261 0.74393 0.20806 0.0
C3444 C 0.18076 0.75658 0.21697 0.0
C3445 C 0.19666 0.77351 0.20904 0.0
H3446 H 0.15032 0.73083 0.21422 0.0
H3447 H 0.3136 0.89148 0.14219 0.0
H3448 H 0.18874 0.42632 0.10071 0.0
H3449 H 0.18178 0.40884 0.12789 0.0
H3450 H 0.24014 0.45559 0.14748 0.0
H3451 H 0.24709 0.47348 0.12035 0.0
H3452 H 0.23109 0.41645 0.15686 0.0
H3453 H 0.19886 0.45691 0.15849 0.0
H3454 H 0.17705 0.4701 0.14759 0.0
H3455 H 0.12435 0.41037 0.14813 0.0
H3456 H 0.14592 0.39677 0.15877 0.0
H3457 H 0.20224 0.37909 0.24148 0.0
H3458 H 0.21438 0.4019 0.21711 0.0
H3459 H 0.15547 0.36611 0.19237 0.0
H3460 H 0.14289 0.34411 0.21696 0.0
H3461 H 0.16781 0.40367 0.18719 0.0
H3462 H 0.20017 0.36265 0.18273 0.0
H3463 H 0.2217 0.34882 0.193 0.0
H3464 H 0.27363 0.40878 0.19744 0.0
H3465 H 0.25233 0.42298 0.18736 0.0
C3466 C 0.20012 0.43295 0.11078 0.0
C3467 C 0.21838 0.45146 0.10836 0.0
C3468 C 0.19614 0.42288 0.12631 0.0
C3469 C 0.2103 0.43105 0.13981 0.0
C3470 C 0.22898 0.44903 0.13724 0.0
C3471 C 0.23295 0.45919 0.12169 0.0
C3472 C 0.20507 0.42113 0.15673 0.0
C3473 C 0.21743 0.41392 0.16365 0.0
C3474 C 0.18714 0.41763 0.1655 0.0
C3475 C 0.17405 0.4258 0.15931 0.0
C3476 C 0.18265 0.44656 0.15618 0.0
C3477 C 0.17032 0.45412 0.15005 0.0
C3478 C 0.14933 0.44108 0.14714 0.0
C3479 C 0.14061 0.42046 0.15038 0.0
C3480 C 0.15288 0.41282 0.15647 0.0
C3481 C 0.19175 0.37626 0.23097 0.0
C3482 C 0.17162 0.35955 0.23117 0.0
C3483 C 0.19882 0.38919 0.21692 0.0
C3484 C 0.186 0.38555 0.20268 0.0
C3485 C 0.16575 0.36924 0.2031 0.0
C3486 C 0.15863 0.35648 0.21715 0.0
C3487 C 0.19348 0.39841 0.18718 0.0
C3488 C 0.18156 0.40629 0.18052 0.0
C3489 C 0.21175 0.4024 0.17863 0.0
C3490 C 0.22462 0.39387 0.18446 0.0
C3491 C 0.21616 0.37288 0.18598 0.0
C3492 C 0.22831 0.36498 0.19176 0.0
C3493 C 0.249 0.37791 0.19592 0.0
C3494 C 0.2576 0.39878 0.19424 0.0
C3495 C 0.2455 0.40676 0.18848 0.0
H3496 H 0.25839 0.37177 0.2004 0.0
H3497 H 0.13982 0.44695 0.14239 0.0
H3498 H 0.7743 0.53106 0.90278 0.0
H3499 H 0.78599 0.54784 0.87532 0.0
H3500 H 0.77757 0.59665 0.89301 0.0
H3501 H 0.76617 0.58015 0.92055 0.0
H3502 H 0.76119 0.58402 0.86149 0.0
H3503 H 0.82536 0.60216 0.88986 0.0
H3504 H 0.85009 0.59532 0.90492 0.0
H3505 H 0.85147 0.56105 0.86208 0.0
H3506 H 0.82651 0.56746 0.84685 0.0
H3507 H 0.82019 0.66337 0.80468 0.0
H3508 H 0.80541 0.64088 0.82897 0.0
H3509 H 0.81568 0.5964 0.80401 0.0
H3510 H 0.83065 0.61903 0.77957 0.0
H3511 H 0.82953 0.60327 0.83726 0.0
H3512 H 0.76773 0.58719 0.80788 0.0
H3513 H 0.74283 0.59359 0.79259 0.0
H3514 H 0.73656 0.62317 0.83678 0.0
H3515 H 0.76164 0.61719 0.85228 0.0
C3516 C 0.77523 0.54552 0.90094 0.0
C3517 C 0.76928 0.55424 0.91395 0.0
C3518 C 0.78183 0.55506 0.88518 0.0
C3519 C 0.78272 0.57356 0.88208 0.0
C3520 C 0.7769 0.58233 0.89504 0.0
C3521 C 0.77035 0.57285 0.9108 0.0
C3522 C 0.7895 0.58378 0.86531 0.0
C3523 C 0.77621 0.5884 0.85628 0.0
C3524 C 0.80882 0.58889 0.85818 0.0
C3525 C 0.82389 0.5851 0.86729 0.0
C3526 C 0.83081 0.59303 0.88371 0.0
C3527 C 0.84489 0.58925 0.89226 0.0
C3528 C 0.8523 0.5777 0.88448 0.0
C3529 C 0.84569 0.56996 0.8681 0.0
C3530 C 0.83158 0.57367 0.8595 0.0
C3531 C 0.81917 0.64874 0.8043 0.0
C3532 C 0.82663 0.64299 0.79023 0.0
C3533 C 0.81061 0.63584 0.81816 0.0
C3534 C 0.80934 0.61689 0.81831 0.0
C3535 C 0.81648 0.61094 0.80416 0.0
C3536 C 0.82488 0.6238 0.79017 0.0
C3537 C 0.80136 0.60386 0.83362 0.0
C3538 C 0.81442 0.59871 0.84238 0.0
C3539 C 0.78179 0.59819 0.84048 0.0
C3540 C 0.76672 0.60188 0.8312 0.0
C3541 C 0.76118 0.59522 0.8143 0.0
C3542 C 0.747 0.59873 0.8056 0.0
C3543 C 0.73815 0.60882 0.81369 0.0
C3544 C 0.74344 0.61537 0.83052 0.0
C3545 C 0.75762 0.6119 0.83928 0.0
H3546 H 0.72717 0.61152 0.80694 0.0
H3547 H 0.8632 0.5748 0.89113 0.0
H3548 H 0.48402 0.20747 0.89693 0.0
H3549 H 0.46278 0.20265 0.87182 0.0
H3550 H 0.44274 0.24171 0.89368 0.0
H3551 H 0.46374 0.24631 0.91909 0.0
H3552 H 0.4107 0.20688 0.88065 0.0
H3553 H 0.47686 0.25849 0.86181 0.0
H3554 H 0.51416 0.27435 0.85667 0.0
H3555 H 0.5037 0.22525 0.82363 0.0
H3556 H 0.46634 0.20893 0.82876 0.0
H3557 H 0.36023 0.21186 0.80661 0.0
H3558 H 0.38451 0.22185 0.83037 0.0
H3559 H 0.40868 0.18557 0.80981 0.0
H3560 H 0.38449 0.17565 0.78586 0.0
H3561 H 0.43913 0.22068 0.82222 0.0
H3562 H 0.37366 0.16814 0.8421 0.0
H3563 H 0.33632 0.15158 0.84731 0.0
H3564 H 0.34549 0.20159 0.87859 0.0
H3565 H 0.38288 0.2186 0.87336 0.0
C3566 C 0.47501 0.21496 0.89645 0.0
C3567 C 0.47547 0.2272 0.91003 0.0
C3568 C 0.46304 0.21235 0.88201 0.0
C3569 C 0.45134 0.22198 0.88081 0.0
C3570 C 0.45173 0.23421 0.89434 0.0
C3571 C 0.4638 0.2369 0.90879 0.0
C3572 C 0.43823 0.21872 0.86562 0.0
C3573 C 0.41695 0.21023 0.86789 0.0
C3574 C 0.44635 0.22259 0.84896 0.0
C3575 C 0.46881 0.2324 0.8458 0.0
C3576 C 0.48252 0.25099 0.85356 0.0
C3577 C 0.50367 0.26008 0.85063 0.0
C3578 C 0.5113 0.2508 0.83986 0.0
C3579 C 0.49777 0.23242 0.83198 0.0
C3580 C 0.47661 0.22325 0.83488 0.0
C3581 C 0.37073 0.20602 0.80715 0.0
C3582 C 0.37029 0.19277 0.79449 0.0
C3583 C 0.3846 0.21175 0.82072 0.0
C3584 C 0.39814 0.20415 0.82205 0.0
C3585 C 0.39832 0.19156 0.80907 0.0
C3586 C 0.38452 0.18593 0.79539 0.0
C3587 C 0.41159 0.20878 0.83725 0.0
C3588 C 0.4329 0.21747 0.83499 0.0
C3589 C 0.4035 0.20499 0.85394 0.0
C3590 C 0.38104 0.19473 0.85719 0.0
C3591 C 0.3677 0.17568 0.84998 0.0
C3592 C 0.34653 0.1662 0.85296 0.0
C3593 C 0.33853 0.17555 0.86324 0.0
C3594 C 0.35171 0.19438 0.87061 0.0
C3595 C 0.37289 0.20394 0.86765 0.0
H3596 H 0.32214 0.16819 0.86552 0.0
H3597 H 0.52768 0.25786 0.83761 0.0
H3598 H 0.76081 0.23577 0.90222 0.0
H3599 H 0.76654 0.22395 0.87486 0.0
H3600 H 0.82727 0.2385 0.89134 0.0
H3601 H 0.82139 0.24923 0.91898 0.0
H3602 H 0.82292 0.25611 0.85801 0.0
H3603 H 0.79682 0.19347 0.8901 0.0
H3604 H 0.77049 0.16547 0.90708 0.0
H3605 H 0.72666 0.14982 0.86642 0.0
H3606 H 0.75268 0.17795 0.84929 0.0
H3607 H 0.86746 0.21668 0.80384 0.0
H3608 H 0.85314 0.22708 0.82691 0.0
H3609 H 0.79242 0.19191 0.805 0.0
H3610 H 0.80676 0.18106 0.78187 0.0
H3611 H 0.79143 0.18495 0.83842 0.0
H3612 H 0.81482 0.24355 0.80528 0.0
H3613 H 0.83779 0.27241 0.78732 0.0
H3614 H 0.88281 0.29621 0.82748 0.0
H3615 H 0.85993 0.26761 0.8458 0.0
C3616 C 0.77521 0.23601 0.90023 0.0
C3617 C 0.79071 0.24369 0.91286 0.0
C3618 C 0.7785 0.2294 0.88451 0.0
C3619 C 0.7974 0.23056 0.88106 0.0
C3620 C 0.81266 0.23769 0.89371 0.0
C3621 C 0.80928 0.24394 0.90949 0.0
C3622 C 0.80176 0.22507 0.8641 0.0
C3623 C 0.81615 0.24055 0.85374 0.0
C3624 C 0.79217 0.20488 0.85823 0.0
C3625 C 0.7766 0.18797 0.86851 0.0
C3626 C 0.7815 0.1842 0.88485 0.0
C3627 C 0.76666 0.16827 0.89449 0.0
C3628 C 0.74689 0.15592 0.88786 0.0
C3629 C 0.74196 0.15943 0.87156 0.0
C3630 C 0.75675 0.17536 0.86188 0.0
C3631 C 0.85106 0.21117 0.80389 0.0
C3632 C 0.83821 0.19789 0.79112 0.0
C3633 C 0.8429 0.21731 0.817 0.0
C3634 C 0.8217 0.21043 0.81767 0.0
C3635 C 0.80883 0.19745 0.80475 0.0
C3636 C 0.81704 0.19136 0.7915 0.0
C3637 C 0.81318 0.21598 0.83248 0.0
C3638 C 0.79801 0.20056 0.84248 0.0
C3639 C 0.82167 0.2363 0.83786 0.0
C3640 C 0.83572 0.25336 0.82686 0.0
C3641 C 0.82967 0.25487 0.81024 0.0
C3642 C 0.84264 0.27122 0.80003 0.0
C3643 C 0.86181 0.28606 0.80621 0.0
C3644 C 0.86797 0.28468 0.8227 0.0
C3645 C 0.85495 0.26846 0.83305 0.0
H3646 H 0.87187 0.29866 0.79823 0.0
H3647 H 0.73542 0.14359 0.89533 0.0
H3648 H 0.24847 0.1014 0.43685 0.0
H3649 H 0.26848 0.11339 0.46322 0.0
H3650 H 0.21587 0.10968 0.48874 0.0
H3651 H 0.19593 0.09811 0.46222 0.0
H3652 H 0.25129 0.14282 0.49883 0.0
H3653 H 0.22777 0.07144 0.49146 0.0
H3654 H 0.22426 0.04218 0.47521 0.0
H3655 H 0.29004 0.06925 0.47359 0.0
H3656 H 0.29395 0.09878 0.48957 0.0
H3657 H 0.29451 0.15152 0.58092 0.0
H3658 H 0.27086 0.13851 0.55674 0.0
H3659 H 0.31627 0.13227 0.52794 0.0
H3660 H 0.33915 0.14344 0.55244 0.0
H3661 H 0.2817 0.10263 0.52059 0.0
H3662 H 0.30699 0.17415 0.52427 0.0
H3663 H 0.31344 0.2058 0.53812 0.0
H3664 H 0.24843 0.18143 0.54458 0.0
H3665 H 0.24162 0.14953 0.53093 0.0
C3666 C 0.24127 0.10335 0.44806 0.0
C3667 C 0.22062 0.09869 0.44755 0.0
C3668 C 0.25266 0.11012 0.46312 0.0
C3669 C 0.24351 0.11196 0.47807 0.0
C3670 C 0.2232 0.10825 0.47739 0.0
C3671 C 0.21184 0.10169 0.46224 0.0
C3672 C 0.25487 0.11693 0.4945 0.0
C3673 C 0.2577 0.13388 0.50373 0.0
C3674 C 0.26361 0.10552 0.50072 0.0
C3675 C 0.26115 0.08738 0.49162 0.0
C3676 C 0.24148 0.07117 0.4876 0.0
C3677 C 0.23942 0.05455 0.47842 0.0
C3678 C 0.25693 0.0539 0.47335 0.0
C3679 C 0.2765 0.06979 0.47752 0.0
C3680 C 0.27865 0.08646 0.48665 0.0
C3681 C 0.29933 0.14697 0.56959 0.0
C3682 C 0.31899 0.1489 0.56864 0.0
C3683 C 0.28587 0.13982 0.55563 0.0
C3684 C 0.29195 0.13491 0.54028 0.0
C3685 C 0.31122 0.13612 0.53954 0.0
C3686 C 0.32447 0.14282 0.55355 0.0
C3687 C 0.27858 0.12883 0.52484 0.0
C3688 C 0.27522 0.11155 0.51581 0.0
C3689 C 0.26976 0.14021 0.51863 0.0
C3690 C 0.27381 0.15939 0.52675 0.0
C3691 C 0.29408 0.17551 0.52874 0.0
C3692 C 0.2978 0.19349 0.53654 0.0
C3693 C 0.28136 0.1956 0.54227 0.0
C3694 C 0.26116 0.17975 0.54016 0.0
C3695 C 0.25735 0.16173 0.53239 0.0
H3696 H 0.28427 0.20953 0.54831 0.0
H3697 H 0.25537 0.04112 0.46618 0.0
H3698 H 0.9184 0.1067 0.45651 0.0
H3699 H 0.90445 0.11183 0.48293 0.0
H3700 H 0.90436 0.16343 0.46104 0.0
H3701 H 0.91859 0.15852 0.43468 0.0
H3702 H 0.91843 0.17213 0.49216 0.0
H3703 H 0.85957 0.11694 0.46541 0.0
H3704 H 0.83962 0.08343 0.45182 0.0
H3705 H 0.84494 0.05526 0.49716 0.0
H3706 H 0.86517 0.08864 0.51096 0.0
H3707 H 0.82507 0.1464 0.55045 0.0
H3708 H 0.83973 0.13962 0.52543 0.0
H3709 H 0.89825 0.16387 0.55128 0.0
H3710 H 0.88397 0.17185 0.57608 0.0
H3711 H 0.85518 0.11711 0.51831 0.0
H3712 H 0.93715 0.18612 0.52297 0.0
H3713 H 0.95488 0.22076 0.53473 0.0
H3714 H 0.89918 0.22333 0.53017 0.0
H3715 H 0.8812 0.18881 0.5182 0.0
C3716 C 0.91519 0.11901 0.45727 0.0
C3717 C 0.91949 0.13214 0.44347 0.0
C3718 C 0.90725 0.12195 0.4724 0.0
C3719 C 0.90314 0.13791 0.47396 0.0
C3720 C 0.90745 0.15105 0.46019 0.0
C3721 C 0.91556 0.14822 0.44512 0.0
C3722 C 0.89445 0.14101 0.48995 0.0
C3723 C 0.90462 0.16007 0.49788 0.0
C3724 C 0.8763 0.12539 0.49738 0.0
C3725 C 0.86406 0.1053 0.48915 0.0
C3726 C 0.85661 0.10361 0.47244 0.0
C3727 C 0.84524 0.08464 0.46471 0.0
C3728 C 0.84106 0.06723 0.47361 0.0
C3729 C 0.84821 0.06876 0.49028 0.0
C3730 C 0.85962 0.08769 0.49806 0.0
C3731 C 0.84113 0.15053 0.5508 0.0
C3732 C 0.8534 0.16002 0.56524 0.0
C3733 C 0.84945 0.1464 0.53651 0.0
C3734 C 0.8702 0.1515 0.5363 0.0
C3735 C 0.88229 0.16014 0.55097 0.0
C3736 C 0.87403 0.16449 0.56524 0.0
C3737 C 0.87915 0.14824 0.52052 0.0
C3738 C 0.86907 0.12914 0.51265 0.0
C3739 C 0.89708 0.16396 0.5129 0.0
C3740 C 0.9078 0.18482 0.51987 0.0
C3741 C 0.92872 0.19411 0.52443 0.0
C3742 C 0.93881 0.21372 0.53114 0.0
C3743 C 0.92815 0.22421 0.53325 0.0
C3744 C 0.9074 0.21516 0.52859 0.0
C3745 C 0.89725 0.19557 0.52186 0.0
H3746 H 0.93597 0.23937 0.53846 0.0
H3747 H 0.83225 0.05256 0.4676 0.0
H3748 H 0.8759 0.80578 0.45545 0.0
H3749 H 0.8716 0.78787 0.48219 0.0
H3750 H 0.90176 0.75766 0.46048 0.0
H3751 H 0.90614 0.77563 0.43361 0.0
H3752 H 0.8646 0.73146 0.47664 0.0
H3753 H 0.92672 0.79343 0.48921 0.0
H3754 H 0.94879 0.83039 0.49153 0.0
H3755 H 0.90691 0.83266 0.52736 0.0
H3756 H 0.88442 0.79573 0.52507 0.0
H3757 H 0.86642 0.68277 0.55128 0.0
H3758 H 0.8786 0.70506 0.52665 0.0
H3759 H 0.85651 0.74217 0.54914 0.0
H3760 H 0.84485 0.72013 0.57414 0.0
H3761 H 0.89095 0.76535 0.53245 0.0
H3762 H 0.82787 0.70497 0.5191 0.0
H3763 H 0.80425 0.66824 0.51674 0.0
H3764 H 0.84571 0.66324 0.48218 0.0
H3765 H 0.86973 0.69992 0.48454 0.0
C3766 C 0.88165 0.79535 0.45638 0.0
C3767 C 0.89128 0.79205 0.44239 0.0
C3768 C 0.87931 0.78523 0.47171 0.0
C3769 C 0.88645 0.77149 0.47339 0.0
C3770 C 0.89618 0.76823 0.45949 0.0
C3771 C 0.89876 0.77856 0.44418 0.0
C3772 C 0.88292 0.75994 0.48944 0.0
C3773 C 0.87068 0.73884 0.4888 0.0
C3774 C 0.89026 0.76961 0.5054 0.0
C3775 C 0.90379 0.79182 0.50684 0.0
C3776 C 0.92212 0.80182 0.49748 0.0
C3777 C 0.93473 0.82277 0.49881 0.0
C3778 C 0.92923 0.83387 0.50956 0.0
C3779 C 0.91114 0.82404 0.51903 0.0
C3780 C 0.89847 0.8031 0.51773 0.0
C3781 C 0.86443 0.69585 0.55107 0.0
C3782 C 0.85448 0.69959 0.56453 0.0
C3783 C 0.87131 0.70854 0.53694 0.0
C3784 C 0.86798 0.72502 0.53576 0.0
C3785 C 0.85914 0.72949 0.54966 0.0
C3786 C 0.85251 0.71691 0.56396 0.0
C3787 C 0.87266 0.7368 0.51967 0.0
C3788 C 0.885 0.75794 0.52029 0.0
C3789 C 0.86517 0.7272 0.50367 0.0
C3790 C 0.85069 0.70516 0.50213 0.0
C3791 C 0.83202 0.69601 0.51109 0.0
C3792 C 0.81855 0.67521 0.50974 0.0
C3793 C 0.8235 0.6634 0.49935 0.0
C3794 C 0.84191 0.6724 0.49025 0.0
C3795 C 0.85545 0.69319 0.49158 0.0
H3796 H 0.81305 0.6473 0.49832 0.0
H3797 H 0.93902 0.85009 0.51057 0.0
loop_
_geom_bond_atom_site_label_1
_geom_bond_atom_site_label_2
_geom_bond_distance
_geom_bond_site_symmetry_2
_ccdc_geom_bond_type
H0 C1 0.949 . S
C1 H0 0.949 . S
C1 C2 1.395 . S
C1 C3 1.391 . S
C2 C1 1.395 . S
C2 C5 1.390 . S
C3 C1 1.391 . S
C3 C7 1.387 . S
C3 C8 1.491 . S
H4 C5 0.950 . S
C5 C2 1.390 . S
C5 H4 0.950 . S
C5 C6 1.378 . S
C6 C5 1.378 . S
C6 C7 1.409 . S
C7 C3 1.387 . S
C7 C6 1.409 . S
C7 H9 0.951 . S
C8 C3 1.491 . S
C8 C10 1.382 . S
C8 C12 1.404 . S
H9 C7 0.951 . S
C10 C8 1.382 . S
C10 C11 1.390 . S
C10 H15 0.949 . S
C11 C10 1.390 . S
C11 C16 1.399 . S
C12 C8 1.404 . S
C12 H13 0.950 . S
C12 C14 1.375 . S
H13 C12 0.950 . S
C14 C12 1.375 . S
C14 C16 1.382 . S
C14 H18 0.950 . S
H15 C10 0.949 . S
C16 C11 1.399 . S
C16 C14 1.382 . S
C16 H17 0.952 . S
H17 C16 0.952 . S
H18 C14 0.950 . S
H19 C20 0.949 . S
C20 H19 0.949 . S
C20 C21 1.395 . S
C20 C22 1.391 . S
C21 C20 1.395 . S
C21 C24 1.390 . S
C22 C20 1.391 . S
C22 C26 1.387 . S
C22 C27 1.491 . S
H23 C24 0.950 . S
C24 C21 1.390 . S
C24 H23 0.950 . S
C24 C25 1.378 . S
C25 C24 1.378 . S
C25 C26 1.409 . S
C26 C22 1.387 . S
C26 C25 1.409 . S
C26 H28 0.951 . S
C27 C22 1.491 . S
C27 C29 1.382 . S
C27 C31 1.404 . S
H28 C26 0.951 . S
C29 C27 1.382 . S
C29 C30 1.390 . S
C29 H34 0.949 . S
C30 C29 1.390 . S
C30 C35 1.399 . S
C31 C27 1.404 . S
C31 H32 0.950 . S
C31 C33 1.375 . S
H32 C31 0.950 . S
C33 C31 1.375 . S
C33 C35 1.382 . S
C33 H37 0.950 . S
H34 C29 0.949 . S
C35 C30 1.399 . S
C35 C33 1.382 . S
C35 H36 0.952 . S
H36 C35 0.952 . S
H37 C33 0.950 . S
H38 C39 0.949 . S
C39 H38 0.949 . S
C39 C40 1.395 . S
C39 C41 1.391 . S
C40 C39 1.395 . S
C40 C43 1.390 . S
C41 C39 1.391 . S
C41 C45 1.387 . S
C41 C46 1.491 . S
H42 C43 0.950 . S
C43 C40 1.390 . S
C43 H42 0.950 . S
C43 C44 1.378 . S
C44 C43 1.378 . S
C44 C45 1.409 . S
C45 C41 1.387 . S
C45 C44 1.409 . S
C45 H47 0.951 . S
C46 C41 1.491 . S
C46 C48 1.382 . S
C46 C50 1.404 . S
H47 C45 0.951 . S
C48 C46 1.382 . S
C48 C49 1.390 . S
C48 H53 0.949 . S
C49 C48 1.390 . S
C49 C54 1.399 . S
C50 C46 1.404 . S
C50 H51 0.950 . S
C50 C52 1.375 . S
H51 C50 0.950 . S
C52 C50 1.375 . S
C52 C54 1.382 . S
C52 H56 0.950 . S
H53 C48 0.949 . S
C54 C49 1.399 . S
C54 C52 1.382 . S
C54 H55 0.952 . S
H55 C54 0.952 . S
H56 C52 0.950 . S
H57 C58 0.949 . S
C58 H57 0.949 . S
C58 C59 1.395 . S
C58 C60 1.391 . S
C59 C58 1.395 . S
C59 C62 1.390 . S
C60 C58 1.391 . S
C60 C64 1.387 . S
C60 C65 1.491 . S
H61 C62 0.950 . S
C62 C59 1.390 . S
C62 H61 0.950 . S
C62 C63 1.378 . S
C63 C62 1.378 . S
C63 C64 1.409 . S
C64 C60 1.387 . S
C64 C63 1.409 . S
C64 H66 0.951 . S
C65 C60 1.491 . S
C65 C67 1.382 . S
C65 C69 1.404 . S
H66 C64 0.951 . S
C67 C65 1.382 . S
C67 C68 1.390 . S
C67 H72 0.949 . S
C68 C67 1.390 . S
C68 C73 1.399 . S
C69 C65 1.404 . S
C69 H70 0.950 . S
C69 C71 1.375 . S
H70 C69 0.950 . S
C71 C69 1.375 . S
C71 C73 1.382 . S
C71 H75 0.950 . S
H72 C67 0.949 . S
C73 C68 1.399 . S
C73 C71 1.382 . S
C73 H74 0.952 . S
H74 C73 0.952 . S
H75 C71 0.950 . S
H76 C77 0.949 . S
C77 H76 0.949 . S
C77 C78 1.395 . S
C77 C79 1.391 . S
C78 C77 1.395 . S
C78 C81 1.390 . S
C79 C77 1.391 . S
C79 C83 1.387 . S
C79 C84 1.491 . S
H80 C81 0.950 . S
C81 C78 1.390 . S
C81 H80 0.950 . S
C81 C82 1.378 . S
C82 C81 1.378 . S
C82 C83 1.409 . S
C83 C79 1.387 . S
C83 C82 1.409 . S
C83 H85 0.951 . S
C84 C79 1.491 . S
C84 C86 1.382 . S
C84 C88 1.404 . S
H85 C83 0.951 . S
C86 C84 1.382 . S
C86 C87 1.390 . S
C86 H91 0.949 . S
C87 C86 1.390 . S
C87 C92 1.399 . S
C88 C84 1.404 . S
C88 H89 0.950 . S
C88 C90 1.375 . S
H89 C88 0.950 . S
C90 C88 1.375 . S
C90 C92 1.382 . S
C90 H94 0.950 . S
H91 C86 0.949 . S
C92 C87 1.399 . S
C92 C90 1.382 . S
C92 H93 0.952 . S
H93 C92 0.952 . S
H94 C90 0.950 . S
H95 C96 0.949 . S
C96 H95 0.949 . S
C96 C97 1.395 . S
C96 C98 1.391 . S
C97 C96 1.395 . S
C97 C100 1.390 . S
C98 C96 1.391 . S
C98 C102 1.387 . S
C98 C103 1.491 . S
H99 C100 0.950 . S
C100 C97 1.390 . S
C100 H99 0.950 . S
C100 C101 1.378 . S
C101 C100 1.378 . S
C101 C102 1.409 . S
C102 C98 1.387 . S
C102 C101 1.409 . S
C102 H104 0.951 . S
C103 C98 1.491 . S
C103 C105 1.382 . S
C103 C107 1.404 . S
H104 C102 0.951 . S
C105 C103 1.382 . S
C105 C106 1.390 . S
C105 H110 0.949 . S
C106 C105 1.390 . S
C106 C111 1.399 . S
C107 C103 1.404 . S
C107 H108 0.950 . S
C107 C109 1.375 . S
H108 C107 0.950 . S
C109 C107 1.375 . S
C109 C111 1.382 . S
C109 H113 0.950 . S
H110 C105 0.949 . S
C111 C106 1.399 . S
C111 C109 1.382 . S
C111 H112 0.952 . S
H112 C111 0.952 . S
H113 C109 0.950 . S
H114 C115 0.949 . S
C115 H114 0.949 . S
C115 C116 1.395 . S
C115 C117 1.391 . S
C116 C115 1.395 . S
C116 C119 1.390 . S
C117 C115 1.391 . S
C117 C121 1.387 . S
C117 C122 1.491 . S
H118 C119 0.950 . S
C119 C116 1.390 . S
C119 H118 0.950 . S
C119 C120 1.378 . S
C120 C119 1.378 . S
C120 C121 1.409 . S
C121 C117 1.387 . S
C121 C120 1.409 . S
C121 H123 0.951 . S
C122 C117 1.491 . S
C122 C124 1.382 . S
C122 C126 1.404 . S
H123 C121 0.951 . S
C124 C122 1.382 . S
C124 C125 1.390 . S
C124 H129 0.949 . S
C125 C124 1.390 . S
C125 C130 1.399 . S
C126 C122 1.404 . S
C126 H127 0.950 . S
C126 C128 1.375 . S
H127 C126 0.950 . S
C128 C126 1.375 . S
C128 C130 1.382 . S
C128 H132 0.950 . S
H129 C124 0.949 . S
C130 C125 1.399 . S
C130 C128 1.382 . S
C130 H131 0.952 . S
H131 C130 0.952 . S
H132 C128 0.950 . S
H133 C134 0.949 . S
C134 H133 0.949 . S
C134 C135 1.395 . S
C134 C136 1.391 . S
C135 C134 1.395 . S
C135 C138 1.390 . S
C136 C134 1.391 . S
C136 C140 1.387 . S
C136 C141 1.491 . S
H137 C138 0.950 . S
C138 C135 1.390 . S
C138 H137 0.950 . S
C138 C139 1.378 . S
C139 C138 1.378 . S
C139 C140 1.409 . S
C140 C136 1.387 . S
C140 C139 1.409 . S
C140 H142 0.951 . S
C141 C136 1.491 . S
C141 C143 1.382 . S
C141 C145 1.404 . S
H142 C140 0.951 . S
C143 C141 1.382 . S
C143 C144 1.390 . S
C143 H148 0.949 . S
C144 C143 1.390 . S
C144 C149 1.399 . S
C145 C141 1.404 . S
C145 H146 0.950 . S
C145 C147 1.375 . S
H146 C145 0.950 . S
C147 C145 1.375 . S
C147 C149 1.382 . S
C147 H151 0.950 . S
H148 C143 0.949 . S
C149 C144 1.399 . S
C149 C147 1.382 . S
C149 H150 0.952 . S
H150 C149 0.952 . S
H151 C147 0.950 . S
H152 C153 0.949 . S
C153 H152 0.949 . S
C153 C154 1.395 . S
C153 C155 1.391 . S
C154 C153 1.395 . S
C154 C157 1.390 . S
C155 C153 1.391 . S
C155 C159 1.387 . S
C155 C160 1.491 . S
H156 C157 0.950 . S
C157 C154 1.390 . S
C157 H156 0.950 . S
C157 C158 1.378 . S
C158 C157 1.378 . S
C158 C159 1.409 . S
C159 C155 1.387 . S
C159 C158 1.409 . S
C159 H161 0.951 . S
C160 C155 1.491 . S
C160 C162 1.382 . S
C160 C164 1.404 . S
H161 C159 0.951 . S
C162 C160 1.382 . S
C162 C163 1.390 . S
C162 H167 0.949 . S
C163 C162 1.390 . S
C163 C168 1.399 . S
C164 C160 1.404 . S
C164 H165 0.950 . S
C164 C166 1.375 . S
H165 C164 0.950 . S
C166 C164 1.375 . S
C166 C168 1.382 . S
C166 H170 0.950 . S
H167 C162 0.949 . S
C168 C163 1.399 . S
C168 C166 1.382 . S
C168 H169 0.952 . S
H169 C168 0.952 . S
H170 C166 0.950 . S
H171 C172 0.949 . S
C172 H171 0.949 . S
C172 C173 1.395 . S
C172 C174 1.391 . S
C173 C172 1.395 . S
C173 C176 1.390 . S
C174 C172 1.391 . S
C174 C178 1.387 . S
C174 C179 1.491 . S
H175 C176 0.950 . S
C176 C173 1.390 . S
C176 H175 0.950 . S
C176 C177 1.378 . S
C177 C176 1.378 . S
C177 C178 1.409 . S
C178 C174 1.387 . S
C178 C177 1.409 . S
C178 H180 0.951 . S
C179 C174 1.491 . S
C179 C181 1.382 . S
C179 C183 1.404 . S
H180 C178 0.951 . S
C181 C179 1.382 . S
C181 C182 1.390 . S
C181 H186 0.949 . S
C182 C181 1.390 . S
C182 C187 1.399 . S
C183 C179 1.404 . S
C183 H184 0.950 . S
C183 C185 1.375 . S
H184 C183 0.950 . S
C185 C183 1.375 . S
C185 C187 1.382 . S
C185 H189 0.950 . S
H186 C181 0.949 . S
C187 C182 1.399 . S
C187 C185 1.382 . S
C187 H188 0.952 . S
H188 C187 0.952 . S
H189 C185 0.950 . S
H190 C191 0.949 . S
C191 H190 0.949 . S
C191 C192 1.395 . S
C191 C193 1.391 . S
C192 C191 1.395 . S
C192 C195 1.390 . S
C193 C191 1.391 . S
C193 C197 1.387 . S
C193 C198 1.491 . S
H194 C195 0.950 . S
C195 C192 1.390 . S
C195 H194 0.950 . S
C195 C196 1.378 . S
C196 C195 1.378 . S
C196 C197 1.409 . S
C197 C193 1.387 . S
C197 C196 1.409 . S
C197 H199 0.951 . S
C198 C193 1.491 . S
C198 C200 1.382 . S
C198 C202 1.404 . S
H199 C197 0.951 . S
C200 C198 1.382 . S
C200 C201 1.390 . S
C200 H205 0.949 . S
C201 C200 1.390 . S
C201 C206 1.399 . S
C202 C198 1.404 . S
C202 H203 0.950 . S
C202 C204 1.375 . S
H203 C202 0.950 . S
C204 C202 1.375 . S
C204 C206 1.382 . S
C204 H208 0.950 . S
H205 C200 0.949 . S
C206 C201 1.399 . S
C206 C204 1.382 . S
C206 H207 0.952 . S
H207 C206 0.952 . S
H208 C204 0.950 . S
H209 C210 0.949 . S
C210 H209 0.949 . S
C210 C211 1.395 . S
C210 C212 1.391 . S
C211 C210 1.395 . S
C211 C214 1.390 . S
C212 C210 1.391 . S
C212 C216 1.387 . S
C212 C217 1.491 . S
H213 C214 0.950 . S
C214 C211 1.390 . S
C214 H213 0.950 . S
C214 C215 1.378 . S
C215 C214 1.378 . S
C215 C216 1.409 . S
C216 C212 1.387 . S
C216 C215 1.409 . S
C216 H218 0.951 . S
C217 C212 1.491 . S
C217 C219 1.382 . S
C217 C221 1.404 . S
H218 C216 0.951 . S
C219 C217 1.382 . S
C219 C220 1.390 . S
C219 H224 0.949 . S
C220 C219 1.390 . S
C220 C225 1.399 . S
C221 C217 1.404 . S
C221 H222 0.950 . S
C221 C223 1.375 . S
H222 C221 0.950 . S
C223 C221 1.375 . S
C223 C225 1.382 . S
C223 H227 0.950 . S
H224 C219 0.949 . S
C225 C220 1.399 . S
C225 C223 1.382 . S
C225 H226 0.952 . S
H226 C225 0.952 . S
H227 C223 0.950 . S
H228 C229 0.949 . S
C229 H228 0.949 . S
C229 C230 1.395 . S
C229 C231 1.391 . S
C230 C229 1.395 . S
C230 C233 1.390 . S
C231 C229 1.391 . S
C231 C235 1.387 . S
C231 C236 1.491 . S
H232 C233 0.950 . S
C233 C230 1.390 . S
C233 H232 0.950 . S
C233 C234 1.378 . S
C234 C233 1.378 . S
C234 C235 1.409 . S
C235 C231 1.387 . S
C235 C234 1.409 . S
C235 H237 0.951 . S
C236 C231 1.491 . S
C236 C238 1.382 . S
C236 C240 1.404 . S
H237 C235 0.951 . S
C238 C236 1.382 . S
C238 C239 1.390 . S
C238 H243 0.949 . S
C239 C238 1.390 . S
C239 C244 1.399 . S
C240 C236 1.404 . S
C240 H241 0.950 . S
C240 C242 1.375 . S
H241 C240 0.950 . S
C242 C240 1.375 . S
C242 C244 1.382 . S
C242 H246 0.950 . S
H243 C238 0.949 . S
C244 C239 1.399 . S
C244 C242 1.382 . S
C244 H245 0.952 . S
H245 C244 0.952 . S
H246 C242 0.950 . S
H247 C248 0.949 . S
C248 H247 0.949 . S
C248 C249 1.395 . S
C248 C250 1.391 . S
C249 C248 1.395 . S
C249 C252 1.390 . S
C250 C248 1.391 . S
C250 C254 1.387 . S
C250 C255 1.491 . S
H251 C252 0.950 . S
C252 C249 1.390 . S
C252 H251 0.950 . S
C252 C253 1.378 . S
C253 C252 1.378 . S
C253 C254 1.409 . S
C254 C250 1.387 . S
C254 C253 1.409 . S
C254 H256 0.951 . S
C255 C250 1.491 . S
C255 C257 1.382 . S
C255 C259 1.404 . S
H256 C254 0.951 . S
C257 C255 1.382 . S
C257 C258 1.390 . S
C257 H262 0.949 . S
C258 C257 1.390 . S
C258 C263 1.399 . S
C259 C255 1.404 . S
C259 H260 0.950 . S
C259 C261 1.375 . S
H260 C259 0.950 . S
C261 C259 1.375 . S
C261 C263 1.382 . S
C261 H265 0.950 . S
H262 C257 0.949 . S
C263 C258 1.399 . S
C263 C261 1.382 . S
C263 H264 0.952 . S
H264 C263 0.952 . S
H265 C261 0.950 . S
H266 C267 0.949 . S
C267 H266 0.949 . S
C267 C268 1.395 . S
C267 C269 1.391 . S
C268 C267 1.395 . S
C268 C271 1.390 . S
C269 C267 1.391 . S
C269 C273 1.387 . S
C269 C274 1.491 . S
H270 C271 0.950 . S
C271 C268 1.390 . S
C271 H270 0.950 . S
C271 C272 1.378 . S
C272 C271 1.378 . S
C272 C273 1.409 . S
C273 C269 1.387 . S
C273 C272 1.409 . S
C273 H275 0.951 . S
C274 C269 1.491 . S
C274 C276 1.382 . S
C274 C278 1.404 . S
H275 C273 0.951 . S
C276 C274 1.382 . S
C276 C277 1.390 . S
C276 H281 0.949 . S
C277 C276 1.390 . S
C277 C282 1.399 . S
C278 C274 1.404 . S
C278 H279 0.950 . S
C278 C280 1.375 . S
H279 C278 0.950 . S
C280 C278 1.375 . S
C280 C282 1.382 . S
C280 H284 0.950 . S
H281 C276 0.949 . S
C282 C277 1.399 . S
C282 C280 1.382 . S
C282 H283 0.952 . S
H283 C282 0.952 . S
H284 C280 0.950 . S
H285 C286 0.949 . S
C286 H285 0.949 . S
C286 C287 1.395 . S
C286 C288 1.391 . S
C287 C286 1.395 . S
C287 C290 1.390 . S
C288 C286 1.391 . S
C288 C292 1.387 . S
C288 C293 1.491 . S
H289 C290 0.950 . S
C290 C287 1.390 . S
C290 H289 0.950 . S
C290 C291 1.378 . S
C291 C290 1.378 . S
C291 C292 1.409 . S
C292 C288 1.387 . S
C292 C291 1.409 . S
C292 H294 0.951 . S
C293 C288 1.491 . S
C293 C295 1.382 . S
C293 C297 1.404 . S
H294 C292 0.951 . S
C295 C293 1.382 . S
C295 C296 1.390 . S
C295 H300 0.949 . S
C296 C295 1.390 . S
C296 C301 1.399 . S
C297 C293 1.404 . S
C297 H298 0.950 . S
C297 C299 1.375 . S
H298 C297 0.950 . S
C299 C297 1.375 . S
C299 C301 1.382 . S
C299 H303 0.950 . S
H300 C295 0.949 . S
C301 C296 1.399 . S
C301 C299 1.382 . S
C301 H302 0.952 . S
H302 C301 0.952 . S
H303 C299 0.950 . S
H304 C305 0.949 . S
C305 H304 0.949 . S
C305 C306 1.395 . S
C305 C307 1.391 . S
C306 C305 1.395 . S
C306 C309 1.390 . S
C307 C305 1.391 . S
C307 C311 1.387 . S
C307 C312 1.491 . S
H308 C309 0.950 . S
C309 C306 1.390 . S
C309 H308 0.950 . S
C309 C310 1.378 . S
C310 C309 1.378 . S
C310 C311 1.409 . S
C311 C307 1.387 . S
C311 C310 1.409 . S
C311 H313 0.951 . S
C312 C307 1.491 . S
C312 C314 1.382 . S
C312 C316 1.404 . S
H313 C311 0.951 . S
C314 C312 1.382 . S
C314 C315 1.390 . S
C314 H319 0.949 . S
C315 C314 1.390 . S
C315 C320 1.399 . S
C316 C312 1.404 . S
C316 H317 0.950 . S
C316 C318 1.375 . S
H317 C316 0.950 . S
C318 C316 1.375 . S
C318 C320 1.382 . S
C318 H322 0.950 . S
H319 C314 0.949 . S
C320 C315 1.399 . S
C320 C318 1.382 . S
C320 H321 0.952 . S
H321 C320 0.952 . S
H322 C318 0.950 . S
H323 C324 0.949 . S
C324 H323 0.949 . S
C324 C325 1.395 . S
C324 C326 1.391 . S
C325 C324 1.395 . S
C325 C328 1.390 . S
C326 C324 1.391 . S
C326 C330 1.387 . S
C326 C331 1.491 . S
H327 C328 0.950 . S
C328 C325 1.390 . S
C328 H327 0.950 . S
C328 C329 1.378 . S
C329 C328 1.378 . S
C329 C330 1.409 . S
C330 C326 1.387 . S
C330 C329 1.409 . S
C330 H332 0.951 . S
C331 C326 1.491 . S
C331 C333 1.382 . S
C331 C335 1.404 . S
H332 C330 0.951 . S
C333 C331 1.382 . S
C333 C334 1.390 . S
C333 H338 0.949 . S
C334 C333 1.390 . S
C334 C339 1.399 . S
C335 C331 1.404 . S
C335 H336 0.950 . S
C335 C337 1.375 . S
H336 C335 0.950 . S
C337 C335 1.375 . S
C337 C339 1.382 . S
C337 H341 0.950 . S
H338 C333 0.949 . S
C339 C334 1.399 . S
C339 C337 1.382 . S
C339 H340 0.952 . S
H340 C339 0.952 . S
H341 C337 0.950 . S
Tb342 N373 2.660 . S
Tb342 N380 2.600 . S
Tb342 O386 2.546 . S
Tb342 O387 2.610 1_566 S
Tb342 O389 2.320 1_565 S
Tb342 O390 2.552 1_565 S
Tb342 O391 2.413 1_565 S
Tb342 O393 2.362 1_556 S
Tb342 O394 2.421 . S
Tb342 C406 2.833 1_565 S
C343 C346 1.432 . S
C343 C347 1.414 . S
C343 N350 1.359 . S
C344 C346 1.417 . S
C344 C348 1.432 . S
C344 C356 1.410 . S
C345 C347 1.444 . S
C345 C348 1.317 . S
C345 H368 0.929 . S
C346 C343 1.432 . S
C346 C344 1.417 . S
C346 N354 1.360 . S
C347 C343 1.414 . S
C347 C345 1.444 . S
C347 C352 1.385 . S
C348 C344 1.432 . S
C348 C345 1.317 . S
C348 H360 0.930 . S
C349 C351 1.392 . S
C349 C352 1.370 . S
C349 H361 0.931 . S
N350 C343 1.359 . S
N350 C351 1.327 . S
N350 Tb353 2.600 . S
C351 C349 1.392 . S
C351 N350 1.327 . S
C351 H358 0.930 . S
C352 C347 1.385 . S
C352 C349 1.370 . S
C352 H371 0.930 . S
Tb353 N350 2.600 . S
Tb353 N354 2.660 . S
Tb353 O387 2.362 . S
Tb353 O388 2.421 . S
Tb353 O392 2.546 . S
Tb353 O393 2.610 1_545 S
Tb353 O395 2.320 1_545 S
Tb353 O396 2.552 1_545 S
Tb353 O397 2.413 1_545 S
Tb353 C417 2.835 . S
N354 C346 1.360 . S
N354 Tb353 2.660 . S
N354 C355 1.305 . S
C355 N354 1.305 . S
C355 C357 1.407 . S
C355 H362 0.930 . S
C356 C344 1.410 . S
C356 C357 1.345 . S
C356 H364 0.930 . S
C357 C355 1.407 . S
C357 C356 1.345 . S
C357 H359 0.930 . S
H358 C351 0.930 . S
H359 C357 0.930 . S
H360 C348 0.930 . S
H361 C349 0.931 . S
H362 C355 0.930 . S
H363 C377 0.930 . S
H364 C356 0.930 . S
H365 C383 0.930 . S
H366 C374 0.930 1_545 S
H367 C381 0.931 . S
H368 C345 0.929 . S
H369 C375 0.930 . S
H370 C408 0.930 . S
H371 C352 0.930 . S
H372 C407 0.929 . S
N373 Tb342 2.660 . S
N373 C374 1.305 . S
N373 C378 1.360 . S
C374 H366 0.930 1_565 S
C374 N373 1.305 . S
C374 C377 1.407 . S
C375 H369 0.930 . S
C375 C376 1.410 . S
C375 C377 1.345 . S
C376 C375 1.410 . S
C376 C378 1.417 . S
C376 C408 1.432 . S
C377 H363 0.930 . S
C377 C374 1.407 . S
C377 C375 1.345 . S
C378 N373 1.360 . S
C378 C376 1.417 . S
C378 C382 1.432 . S
H379 C384 0.930 . S
N380 Tb342 2.600 . S
N380 C382 1.359 . S
N380 C383 1.327 . S
C381 H367 0.931 . S
C381 C383 1.392 . S
C381 C384 1.370 . S
C382 C378 1.432 . S
C382 N380 1.359 . S
C382 C385 1.414 . S
C383 H365 0.930 . S
C383 N380 1.327 . S
C383 C381 1.392 . S
C384 H379 0.930 . S
C384 C381 1.370 . S
C384 C385 1.385 . S
C385 C382 1.414 . S
C385 C384 1.385 . S
C385 C407 1.444 . S
O386 Tb342 2.546 . S
O386 C406 1.251 1_565 S
O387 Tb342 2.610 1_544 S
O387 Tb353 2.362 . S
O387 C398 1.283 1_554 S
O388 Tb353 2.421 . S
O388 C405 1.262 . S
O389 Tb342 2.320 1_545 S
O389 C405 1.260 1_556 S
O390 Tb342 2.552 1_545 S
O390 C398 1.243 . S
O391 Tb342 2.413 1_545 S
O391 C406 1.256 . S
O392 Tb353 2.546 . S
O392 C417 1.264 . S
O393 Tb342 2.362 1_554 S
O393 Tb353 2.610 1_565 S
O393 C409 1.283 . S
O394 Tb342 2.421 . S
O394 C416 1.262 1_556 S
O395 Tb353 2.320 1_565 S
O395 C416 1.260 . S
O396 Tb353 2.552 1_565 S
O396 C409 1.243 . S
O397 Tb353 2.413 1_565 S
O397 C417 1.246 1_565 S
C398 O387 1.283 1_556 S
C398 O390 1.243 . S
C399 C401 1.382 . S
C399 C403 1.435 . S
C399 C406 1.500 . S
C400 C401 1.400 . S
C400 C402 1.384 . S
C401 C399 1.382 . S
C401 C400 1.400 . S
C401 H418 0.930 . S
C402 C400 1.384 . S
C402 C404 1.392 . S
C402 H419 0.931 . S
C403 C399 1.435 . S
C403 C404 1.415 . S
C403 H420 0.877 1_545 S
C404 C402 1.392 . S
C404 C403 1.415 . S
C404 H421 0.916 1_545 S
C405 O388 1.262 . S
C405 O389 1.260 1_554 S
C406 Tb342 2.833 1_545 S
C406 O386 1.251 1_545 S
C406 O391 1.256 . S
C406 C399 1.500 . S
C407 H372 0.929 . S
C407 C385 1.444 . S
C407 C408 1.317 . S
C408 H370 0.930 . S
C408 C376 1.432 . S
C408 C407 1.317 . S
C409 O393 1.283 . S
C409 O396 1.243 . S
C410 C411 1.382 . S
C410 C414 1.393 1_565 S
C410 C417 1.497 1_565 S
C411 C410 1.382 . S
C411 C412 1.400 . S
C411 H422 0.930 . S
C412 C411 1.400 . S
C412 C413 1.384 . S
C413 C412 1.384 . S
C413 C415 1.392 . S
C413 H423 0.931 . S
C414 C410 1.393 1_545 S
C414 C415 1.401 1_545 S
C414 H424 0.930 . S
C415 C413 1.392 . S
C415 C414 1.401 1_565 S
C415 H425 0.930 1_565 S
C416 O394 1.262 1_554 S
C416 O395 1.260 . S
C417 Tb353 2.835 . S
C417 O392 1.264 . S
C417 O397 1.246 1_545 S
C417 C410 1.497 1_545 S
H418 C401 0.930 . S
H419 C402 0.931 . S
H420 C403 0.877 1_565 S
H421 C404 0.916 1_565 S
H422 C411 0.930 . S
H423 C413 0.931 . S
H424 C414 0.930 . S
H425 C415 0.930 1_545 S
Tb426 N457 2.660 . S
Tb426 N464 2.600 . S
Tb426 O470 2.546 . S
Tb426 O471 2.610 1_456 S
Tb426 O473 2.320 1_455 S
Tb426 O474 2.552 1_455 S
Tb426 O475 2.413 1_455 S
Tb426 O477 2.362 1_556 S
Tb426 O478 2.421 . S
Tb426 C490 2.833 . S
C427 C430 1.432 . S
C427 C431 1.414 . S
C427 N434 1.359 . S
C428 C430 1.417 . S
C428 C432 1.432 . S
C428 C440 1.410 . S
C429 C431 1.444 . S
C429 C432 1.317 . S
C429 H452 0.929 . S
C430 C427 1.432 . S
C430 C428 1.417 . S
C430 N438 1.360 . S
C431 C427 1.414 . S
C431 C429 1.444 . S
C431 C436 1.385 . S
C432 C428 1.432 . S
C432 C429 1.317 . S
C432 H444 0.930 . S
C433 C435 1.392 . S
C433 C436 1.370 . S
C433 H445 0.931 . S
N434 C427 1.359 . S
N434 C435 1.327 . S
N434 Tb437 2.600 . S
C435 C433 1.392 . S
C435 N434 1.327 . S
C435 H442 0.930 . S
C436 C431 1.385 . S
C436 C433 1.370 . S
C436 H455 0.930 . S
Tb437 N434 2.600 . S
Tb437 N438 2.660 . S
Tb437 O471 2.362 . S
Tb437 O472 2.421 . S
Tb437 O476 2.546 . S
Tb437 O477 2.610 1_655 S
Tb437 O479 2.320 1_655 S
Tb437 O480 2.552 1_655 S
Tb437 O481 2.413 1_655 S
Tb437 C501 2.833 1_655 S
N438 C430 1.360 . S
N438 Tb437 2.660 . S
N438 C439 1.305 . S
C439 N438 1.305 . S
C439 C441 1.407 . S
C439 H446 0.930 1_655 S
C440 C428 1.410 . S
C440 C441 1.345 . S
C440 H448 0.930 . S
C441 C439 1.407 . S
C441 C440 1.345 . S
C441 H443 0.930 . S
H442 C435 0.930 . S
H443 C441 0.930 . S
H444 C432 0.930 . S
H445 C433 0.931 . S
H446 C439 0.930 1_455 S
H447 C461 0.930 . S
H448 C440 0.930 . S
H449 C467 0.930 . S
H450 C458 0.930 . S
H451 C465 0.931 . S
H452 C429 0.929 . S
H453 C459 0.930 . S
H454 C492 0.930 . S
H455 C436 0.930 . S
H456 C491 0.929 . S
N457 Tb426 2.660 . S
N457 C458 1.305 . S
N457 C462 1.360 . S
C458 H450 0.930 . S
C458 N457 1.305 . S
C458 C461 1.407 . S
C459 H453 0.930 . S
C459 C460 1.410 . S
C459 C461 1.345 . S
C460 C459 1.410 . S
C460 C462 1.417 . S
C460 C492 1.432 . S
C461 H447 0.930 . S
C461 C458 1.407 . S
C461 C459 1.345 . S
C462 N457 1.360 . S
C462 C460 1.417 . S
C462 C466 1.432 . S
H463 C468 0.930 . S
N464 Tb426 2.600 . S
N464 C466 1.359 . S
N464 C467 1.327 . S
C465 H451 0.931 . S
C465 C467 1.392 . S
C465 C468 1.370 . S
C466 C462 1.432 . S
C466 N464 1.359 . S
C466 C469 1.414 . S
C467 H449 0.930 . S
C467 N464 1.327 . S
C467 C465 1.392 . S
C468 H463 0.930 . S
C468 C465 1.370 . S
C468 C469 1.385 . S
C469 C466 1.414 . S
C469 C468 1.385 . S
C469 C491 1.444 . S
O470 Tb426 2.546 . S
O470 C490 1.251 . S
O471 Tb426 2.610 1_654 S
O471 Tb437 2.362 . S
O471 C482 1.283 1_554 S
O472 Tb437 2.421 . S
O472 C489 1.262 . S
O473 Tb426 2.320 1_655 S
O473 C489 1.260 1_556 S
O474 Tb426 2.552 1_655 S
O474 C482 1.243 . S
O475 Tb426 2.413 1_655 S
O475 C490 1.256 1_655 S
O476 Tb437 2.546 . S
O476 C501 1.251 1_655 S
O477 Tb426 2.362 1_554 S
O477 Tb437 2.610 1_455 S
O477 C493 1.283 . S
O478 Tb426 2.421 . S
O478 C500 1.262 1_556 S
O479 Tb437 2.320 1_455 S
O479 C500 1.260 . S
O480 Tb437 2.552 1_455 S
O480 C493 1.243 . S
O481 Tb437 2.413 1_455 S
O481 C501 1.256 . S
C482 O471 1.283 1_556 S
C482 O474 1.243 . S
C483 C485 1.382 . S
C483 C487 1.393 1_655 S
C483 C490 1.500 1_655 S
C484 C485 1.400 . S
C484 C486 1.384 . S
C485 C483 1.382 . S
C485 C484 1.400 . S
C485 H502 0.930 . S
C486 C484 1.384 . S
C486 C488 1.392 1_655 S
C486 H503 0.931 . S
C487 C483 1.393 1_455 S
C487 C488 1.401 . S
C487 H504 0.930 . S
C488 C486 1.392 1_455 S
C488 C487 1.401 . S
C488 H505 0.930 . S
C489 O472 1.262 . S
C489 O473 1.260 1_554 S
C490 Tb426 2.833 . S
C490 O470 1.251 . S
C490 O475 1.256 1_455 S
C490 C483 1.500 1_455 S
C491 H456 0.929 . S
C491 C469 1.444 . S
C491 C492 1.317 . S
C492 H454 0.930 . S
C492 C460 1.432 . S
C492 C491 1.317 . S
C493 O477 1.283 . S
C493 O480 1.243 . S
C494 C495 1.382 . S
C494 C498 1.385 1_455 S
C494 C501 1.500 . S
C495 C494 1.382 . S
C495 C496 1.400 . S
C495 H506 0.930 . S
C496 C495 1.400 . S
C496 C497 1.384 . S
C497 C496 1.384 . S
C497 C499 1.392 . S
C497 H507 0.931 . S
C498 C494 1.385 1_655 S
C498 C499 1.392 1_655 S
C498 H508 0.949 . S
C499 C497 1.392 . S
C499 C498 1.392 1_455 S
C499 H509 0.930 1_455 S
C500 O478 1.262 1_554 S
C500 O479 1.260 . S
C501 Tb437 2.833 1_455 S
C501 O476 1.251 1_455 S
C501 O481 1.256 . S
C501 C494 1.500 . S
H502 C485 0.930 . S
H503 C486 0.931 . S
H504 C487 0.930 . S
H505 C488 0.930 . S
H506 C495 0.930 . S
H507 C497 0.931 . S
H508 C498 0.949 . S
H509 C499 0.930 1_655 S
Tb510 N541 2.660 . S
Tb510 N548 2.600 . S
Tb510 O554 2.546 . S
Tb510 O555 2.610 . S
Tb510 O557 2.320 . S
Tb510 O558 2.552 . S
Tb510 O559 2.413 . S
Tb510 O561 2.362 . S
Tb510 O562 2.421 . S
Tb510 C574 2.833 . S
C511 C514 1.432 . S
C511 C515 1.414 . S
C511 N518 1.359 . S
C512 C514 1.417 . S
C512 C516 1.432 . S
C512 C524 1.410 . S
C513 C515 1.444 . S
C513 C516 1.317 . S
C513 H536 0.929 . S
C514 C511 1.432 . S
C514 C512 1.417 . S
C514 N522 1.360 . S
C515 C511 1.414 . S
C515 C513 1.444 . S
C515 C520 1.385 . S
C516 C512 1.432 . S
C516 C513 1.317 . S
C516 H528 0.930 . S
C517 C519 1.392 . S
C517 C520 1.370 . S
C517 H529 0.931 . S
N518 C511 1.359 . S
N518 C519 1.327 . S
N518 Tb521 2.600 . S
C519 C517 1.392 . S
C519 N518 1.327 . S
C519 H526 0.930 . S
C520 C515 1.385 . S
C520 C517 1.370 . S
C520 H539 0.930 . S
Tb521 N518 2.600 . S
Tb521 N522 2.660 . S
Tb521 O555 2.362 1_556 S
Tb521 O556 2.418 1_556 S
Tb521 O560 2.546 . S
Tb521 O561 2.610 1_556 S
Tb521 O563 2.320 . S
Tb521 O564 2.552 . S
Tb521 O565 2.413 . S
Tb521 C585 2.833 . S
N522 C514 1.360 . S
N522 Tb521 2.660 . S
N522 C523 1.305 . S
C523 N522 1.305 . S
C523 C525 1.407 . S
C523 H530 0.930 . S
C524 C512 1.410 . S
C524 C525 1.345 . S
C524 H532 0.930 . S
C525 C523 1.407 . S
C525 C524 1.345 . S
C525 H527 0.930 . S
H526 C519 0.930 . S
H527 C525 0.930 . S
H528 C516 0.930 . S
H529 C517 0.931 . S
H530 C523 0.930 . S
H531 C545 0.930 . S
H532 C524 0.930 . S
H533 C551 0.930 . S
H534 C542 0.930 . S
H535 C549 0.931 . S
H536 C513 0.929 . S
H537 C543 0.930 . S
H538 C576 0.930 . S
H539 C520 0.930 . S
H540 C575 0.929 . S
N541 Tb510 2.660 . S
N541 C542 1.305 . S
N541 C546 1.360 . S
C542 H534 0.930 . S
C542 N541 1.305 . S
C542 C545 1.407 . S
C543 H537 0.930 . S
C543 C544 1.410 . S
C543 C545 1.345 . S
C544 C543 1.410 . S
C544 C546 1.417 . S
C544 C576 1.432 . S
C545 H531 0.930 . S
C545 C542 1.407 . S
C545 C543 1.345 . S
C546 N541 1.360 . S
C546 C544 1.417 . S
C546 C550 1.432 . S
H547 C552 0.930 . S
N548 Tb510 2.600 . S
N548 C550 1.359 . S
N548 C551 1.327 . S
C549 H535 0.931 . S
C549 C551 1.392 . S
C549 C552 1.370 . S
C550 C546 1.432 . S
C550 N548 1.359 . S
C550 C553 1.414 . S
C551 H533 0.930 . S
C551 N548 1.327 . S
C551 C549 1.392 . S
C552 H547 0.930 . S
C552 C549 1.370 . S
C552 C553 1.385 . S
C553 C550 1.414 . S
C553 C552 1.385 . S
C553 C575 1.444 . S
O554 Tb510 2.546 . S
O554 C574 1.251 . S
O555 Tb510 2.610 . S
O555 Tb521 2.362 1_554 S
O555 C566 1.283 . S
O556 Tb521 2.418 1_554 S
O556 C573 1.269 . S
O557 Tb510 2.320 . S
O557 C573 1.260 . S
O558 Tb510 2.552 . S
O558 C566 1.243 . S
O559 Tb510 2.413 . S
O559 C574 1.256 . S
O560 Tb521 2.546 . S
O560 C585 1.251 . S
O561 Tb510 2.362 . S
O561 Tb521 2.610 1_554 S
O561 C577 1.283 1_554 S
O562 Tb510 2.421 . S
O562 C584 1.262 . S
O563 Tb521 2.320 . S
O563 C584 1.260 1_556 S
O564 Tb521 2.552 . S
O564 C577 1.243 . S
O565 Tb521 2.413 . S
O565 C585 1.256 . S
C566 O555 1.283 . S
C566 O558 1.243 . S
C567 C569 1.382 . S
C567 C571 1.393 . S
C567 C574 1.500 . S
C568 C569 1.400 . S
C568 C570 1.384 . S
C569 C567 1.382 . S
C569 C568 1.400 . S
C569 H586 0.930 . S
C570 C568 1.384 . S
C570 C572 1.392 . S
C570 H587 0.931 . S
C571 C567 1.393 . S
C571 C572 1.401 . S
C571 H588 0.930 . S
C572 C570 1.392 . S
C572 C571 1.401 . S
C572 H589 0.930 . S
C573 O556 1.269 . S
C573 O557 1.260 . S
C574 Tb510 2.833 . S
C574 O554 1.251 . S
C574 O559 1.256 . S
C574 C567 1.500 . S
C575 H540 0.929 . S
C575 C553 1.444 . S
C575 C576 1.317 . S
C576 H538 0.930 . S
C576 C544 1.432 . S
C576 C575 1.317 . S
C577 O561 1.283 1_556 S
C577 O564 1.243 . S
C578 C579 1.382 . S
C578 C582 1.393 . S
C578 C585 1.500 . S
C579 C578 1.382 . S
C579 C580 1.400 . S
C579 H590 0.930 . S
C580 C579 1.400 . S
C580 C581 1.384 . S
C581 C580 1.384 . S
C581 C583 1.392 . S
C581 H591 0.931 . S
C582 C578 1.393 . S
C582 C583 1.401 . S
C582 H592 0.930 . S
C583 C581 1.392 . S
C583 C582 1.401 . S
C583 H593 0.930 . S
C584 O562 1.262 . S
C584 O563 1.260 1_554 S
C585 Tb521 2.833 . S
C585 O560 1.251 . S
C585 O565 1.256 . S
C585 C578 1.500 . S
H586 C569 0.930 . S
H587 C570 0.931 . S
H588 C571 0.930 . S
H589 C572 0.930 . S
H590 C579 0.930 . S
H591 C581 0.931 . S
H592 C582 0.930 . S
H593 C583 0.930 . S
Tb594 N625 2.660 . S
Tb594 N632 2.600 . S
Tb594 O638 2.546 . S
Tb594 O639 2.610 . S
Tb594 O641 2.320 . S
Tb594 O642 2.552 . S
Tb594 O643 2.413 . S
Tb594 O645 2.362 . S
Tb594 O646 2.421 . S
Tb594 C658 2.833 . S
C595 C598 1.432 . S
C595 C599 1.414 . S
C595 N602 1.359 . S
C596 C598 1.417 . S
C596 C600 1.432 . S
C596 C608 1.410 . S
C597 C599 1.444 . S
C597 C600 1.317 . S
C597 H620 0.929 . S
C598 C595 1.432 . S
C598 C596 1.417 . S
C598 N606 1.360 . S
C599 C595 1.414 . S
C599 C597 1.444 . S
C599 C604 1.385 . S
C600 C596 1.432 . S
C600 C597 1.317 . S
C600 H612 0.930 . S
C601 C603 1.392 . S
C601 C604 1.370 . S
C601 H613 0.931 . S
N602 C595 1.359 . S
N602 C603 1.327 . S
N602 Tb605 2.600 . S
C603 C601 1.392 . S
C603 N602 1.327 . S
C603 H610 0.930 . S
C604 C599 1.385 . S
C604 C601 1.370 . S
C604 H623 0.930 . S
Tb605 N602 2.600 . S
Tb605 N606 2.660 . S
Tb605 O639 2.362 . S
Tb605 O640 2.421 . S
Tb605 O644 2.546 . S
Tb605 O645 2.610 . S
Tb605 O647 2.320 . S
Tb605 O648 2.552 . S
Tb605 O649 2.413 . S
Tb605 C669 2.833 . S
N606 C598 1.360 . S
N606 Tb605 2.660 . S
N606 C607 1.305 . S
C607 N606 1.305 . S
C607 C609 1.407 . S
C607 H614 0.930 . S
C608 C596 1.410 . S
C608 C609 1.345 . S
C608 H616 0.930 . S
C609 C607 1.407 . S
C609 C608 1.345 . S
C609 H611 0.930 . S
H610 C603 0.930 . S
H611 C609 0.930 . S
H612 C600 0.930 . S
H613 C601 0.931 . S
H614 C607 0.930 . S
H615 C629 0.930 . S
H616 C608 0.930 . S
H617 C635 0.930 . S
H618 C626 0.930 . S
H619 C633 0.931 . S
H620 C597 0.929 . S
H621 C627 0.930 . S
H622 C660 0.930 . S
H623 C604 0.930 . S
H624 C659 0.929 . S
N625 Tb594 2.660 . S
N625 C626 1.305 . S
N625 C630 1.360 . S
C626 H618 0.930 . S
C626 N625 1.305 . S
C626 C629 1.407 . S
C627 H621 0.930 . S
C627 C628 1.410 . S
C627 C629 1.345 . S
C628 C627 1.410 . S
C628 C630 1.417 . S
C628 C660 1.432 . S
C629 H615 0.930 . S
C629 C626 1.407 . S
C629 C627 1.345 . S
C630 N625 1.360 . S
C630 C628 1.417 . S
C630 C634 1.432 . S
H631 C636 0.930 . S
N632 Tb594 2.600 . S
N632 C634 1.359 . S
N632 C635 1.327 . S
C633 H619 0.931 . S
C633 C635 1.392 . S
C633 C636 1.370 . S
C634 C630 1.432 . S
C634 N632 1.359 . S
C634 C637 1.414 . S
C635 H617 0.930 . S
C635 N632 1.327 . S
C635 C633 1.392 . S
C636 H631 0.930 . S
C636 C633 1.370 . S
C636 C637 1.385 . S
C637 C634 1.414 . S
C637 C636 1.385 . S
C637 C659 1.444 . S
O638 Tb594 2.546 . S
O638 C658 1.251 . S
O639 Tb594 2.610 . S
O639 Tb605 2.362 . S
O639 C650 1.283 . S
O640 Tb605 2.421 . S
O640 C657 1.262 . S
O641 Tb594 2.320 . S
O641 C657 1.260 . S
O642 Tb594 2.552 . S
O642 C650 1.243 . S
O643 Tb594 2.413 . S
O643 C658 1.256 . S
O644 Tb605 2.546 . S
O644 C669 1.251 . S
O645 Tb594 2.362 . S
O645 Tb605 2.610 . S
O645 C661 1.283 . S
O646 Tb594 2.421 . S
O646 C668 1.262 . S
O647 Tb605 2.320 . S
O647 C668 1.260 . S
O648 Tb605 2.552 . S
O648 C661 1.243 . S
O649 Tb605 2.413 . S
O649 C669 1.256 . S
C650 O639 1.283 . S
C650 O642 1.243 . S
C651 C653 1.382 . S
C651 C655 1.393 . S
C651 C658 1.500 . S
C652 C653 1.400 . S
C652 C654 1.384 . S
C653 C651 1.382 . S
C653 C652 1.400 . S
C653 H670 0.930 . S
C654 C652 1.384 . S
C654 C656 1.392 . S
C654 H671 0.931 . S
C655 C651 1.393 . S
C655 C656 1.401 . S
C655 H672 0.930 . S
C656 C654 1.392 . S
C656 C655 1.401 . S
C656 H673 0.930 . S
C657 O640 1.262 . S
C657 O641 1.260 . S
C658 Tb594 2.833 . S
C658 O638 1.251 . S
C658 O643 1.256 . S
C658 C651 1.500 . S
C659 H624 0.929 . S
C659 C637 1.444 . S
C659 C660 1.317 . S
C660 H622 0.930 . S
C660 C628 1.432 . S
C660 C659 1.317 . S
C661 O645 1.283 . S
C661 O648 1.243 . S
C662 C663 1.382 . S
C662 C666 1.393 . S
C662 C669 1.500 . S
C663 C662 1.382 . S
C663 C664 1.400 . S
C663 H674 0.930 . S
C664 C663 1.400 . S
C664 C665 1.384 . S
C665 C664 1.384 . S
C665 C667 1.392 . S
C665 H675 0.931 . S
C666 C662 1.393 . S
C666 C667 1.401 . S
C666 H676 0.930 . S
C667 C665 1.392 . S
C667 C666 1.401 . S
C667 H677 0.930 . S
C668 O646 1.262 . S
C668 O647 1.260 . S
C669 Tb605 2.833 . S
C669 O644 1.251 . S
C669 O649 1.256 . S
C669 C662 1.500 . S
H670 C653 0.930 . S
H671 C654 0.931 . S
H672 C655 0.930 . S
H673 C656 0.930 . S
H674 C663 0.930 . S
H675 C665 0.931 . S
H676 C666 0.930 . S
H677 C667 0.930 . S
Tb678 N709 2.660 . S
Tb678 N716 2.600 . S
Tb678 O722 2.546 . S
Tb678 O723 2.610 . S
Tb678 O725 2.320 . S
Tb678 O726 2.552 . S
Tb678 O727 2.413 . S
Tb678 O729 2.362 . S
Tb678 O730 2.421 . S
Tb678 C742 2.833 . S
C679 C682 1.432 . S
C679 C683 1.414 . S
C679 N686 1.359 . S
C680 C682 1.417 . S
C680 C684 1.432 . S
C680 C692 1.410 . S
C681 C683 1.444 . S
C681 C684 1.317 . S
C681 H704 0.929 . S
C682 C679 1.432 . S
C682 C680 1.417 . S
C682 N690 1.360 . S
C683 C679 1.414 . S
C683 C681 1.444 . S
C683 C688 1.385 . S
C684 C680 1.432 . S
C684 C681 1.317 . S
C684 H696 0.930 . S
C685 C687 1.392 . S
C685 C688 1.370 . S
C685 H697 0.931 . S
N686 C679 1.359 . S
N686 C687 1.327 . S
N686 Tb689 2.600 . S
C687 C685 1.392 . S
C687 N686 1.327 . S
C687 H694 0.930 . S
C688 C683 1.385 . S
C688 C685 1.370 . S
C688 H707 0.930 . S
Tb689 N686 2.600 . S
Tb689 N690 2.660 . S
Tb689 O723 2.362 . S
Tb689 O724 2.421 . S
Tb689 O728 2.546 . S
Tb689 O729 2.610 . S
Tb689 O731 2.320 . S
Tb689 O732 2.552 . S
Tb689 O733 2.413 . S
Tb689 C753 2.833 . S
N690 C682 1.360 . S
N690 Tb689 2.660 . S
N690 C691 1.305 . S
C691 N690 1.305 . S
C691 C693 1.407 . S
C691 H698 0.930 . S
C692 C680 1.410 . S
C692 C693 1.345 . S
C692 H700 0.930 . S
C693 C691 1.407 . S
C693 C692 1.345 . S
C693 H695 0.930 . S
H694 C687 0.930 . S
H695 C693 0.930 . S
H696 C684 0.930 . S
H697 C685 0.931 . S
H698 C691 0.930 . S
H699 C713 0.930 . S
H700 C692 0.930 . S
H701 C719 0.930 . S
H702 C710 0.930 . S
H703 C717 0.931 . S
H704 C681 0.929 . S
H705 C711 0.930 . S
H706 C744 0.930 . S
H707 C688 0.930 . S
H708 C743 0.929 . S
N709 Tb678 2.660 . S
N709 C710 1.305 . S
N709 C714 1.360 . S
C710 H702 0.930 . S
C710 N709 1.305 . S
C710 C713 1.407 . S
C711 H705 0.930 . S
C711 C712 1.410 . S
C711 C713 1.345 . S
C712 C711 1.410 . S
C712 C714 1.417 . S
C712 C744 1.432 . S
C713 H699 0.930 . S
C713 C710 1.407 . S
C713 C711 1.345 . S
C714 N709 1.360 . S
C714 C712 1.417 . S
C714 C718 1.432 . S
H715 C720 0.930 . S
N716 Tb678 2.600 . S
N716 C718 1.359 . S
N716 C719 1.327 . S
C717 H703 0.931 . S
C717 C719 1.392 . S
C717 C720 1.370 . S
C718 C714 1.432 . S
C718 N716 1.359 . S
C718 C721 1.414 . S
C719 H701 0.930 . S
C719 N716 1.327 . S
C719 C717 1.392 . S
C720 H715 0.930 . S
C720 C717 1.370 . S
C720 C721 1.385 . S
C721 C718 1.414 . S
C721 C720 1.385 . S
C721 C743 1.444 . S
O722 Tb678 2.546 . S
O722 C742 1.251 . S
O723 Tb678 2.610 . S
O723 Tb689 2.362 . S
O723 C734 1.283 . S
O724 Tb689 2.421 . S
O724 C741 1.262 . S
O725 Tb678 2.320 . S
O725 C741 1.260 . S
O726 Tb678 2.552 . S
O726 C734 1.243 . S
O727 Tb678 2.413 . S
O727 C742 1.256 . S
O728 Tb689 2.546 . S
O728 C753 1.251 . S
O729 Tb678 2.362 . S
O729 Tb689 2.610 . S
O729 C745 1.283 . S
O730 Tb678 2.421 . S
O730 C752 1.262 . S
O731 Tb689 2.320 . S
O731 C752 1.260 . S
O732 Tb689 2.552 . S
O732 C745 1.243 . S
O733 Tb689 2.413 . S
O733 C753 1.256 . S
C734 O723 1.283 . S
C734 O726 1.243 . S
C735 C737 1.382 . S
C735 C739 1.393 . S
C735 C742 1.500 . S
C736 C737 1.400 . S
C736 C738 1.384 . S
C737 C735 1.382 . S
C737 C736 1.400 . S
C737 H754 0.930 . S
C738 C736 1.384 . S
C738 C740 1.392 . S
C738 H755 0.931 . S
C739 C735 1.393 . S
C739 C740 1.401 . S
C739 H756 0.930 . S
C740 C738 1.392 . S
C740 C739 1.401 . S
C740 H757 0.930 . S
C741 O724 1.262 . S
C741 O725 1.260 . S
C742 Tb678 2.833 . S
C742 O722 1.251 . S
C742 O727 1.256 . S
C742 C735 1.500 . S
C743 H708 0.929 . S
C743 C721 1.444 . S
C743 C744 1.317 . S
C744 H706 0.930 . S
C744 C712 1.432 . S
C744 C743 1.317 . S
C745 O729 1.283 . S
C745 O732 1.243 . S
C746 C747 1.382 . S
C746 C750 1.393 . S
C746 C753 1.500 . S
C747 C746 1.382 . S
C747 C748 1.400 . S
C747 H758 0.930 . S
C748 C747 1.400 . S
C748 C749 1.384 . S
C749 C748 1.384 . S
C749 C751 1.392 . S
C749 H759 0.931 . S
C750 C746 1.393 . S
C750 C751 1.401 . S
C750 H760 0.930 . S
C751 C749 1.392 . S
C751 C750 1.401 . S
C751 H761 0.930 . S
C752 O730 1.262 . S
C752 O731 1.260 . S
C753 Tb689 2.833 . S
C753 O728 1.251 . S
C753 O733 1.256 . S
C753 C746 1.500 . S
H754 C737 0.930 . S
H755 C738 0.931 . S
H756 C739 0.930 . S
H757 C740 0.930 . S
H758 C747 0.930 . S
H759 C749 0.931 . S
H760 C750 0.930 . S
H761 C751 0.930 . S
Tb762 N793 2.660 . S
Tb762 N800 2.600 . S
Tb762 O806 2.546 . S
Tb762 O807 2.610 . S
Tb762 O809 2.320 . S
Tb762 O810 2.552 . S
Tb762 O811 2.413 . S
Tb762 O813 2.362 . S
Tb762 O814 2.421 . S
Tb762 C826 2.833 . S
C763 C766 1.432 . S
C763 C767 1.414 . S
C763 N770 1.359 . S
C764 C766 1.417 . S
C764 C768 1.432 . S
C764 C776 1.410 . S
C765 C767 1.444 . S
C765 C768 1.317 . S
C765 H788 0.929 . S
C766 C763 1.432 . S
C766 C764 1.417 . S
C766 N774 1.360 . S
C767 C763 1.414 . S
C767 C765 1.444 . S
C767 C772 1.385 . S
C768 C764 1.432 . S
C768 C765 1.317 . S
C768 H780 0.930 . S
C769 C771 1.392 . S
C769 C772 1.370 . S
C769 H781 0.931 . S
N770 C763 1.359 . S
N770 C771 1.327 . S
N770 Tb773 2.600 . S
C771 C769 1.392 . S
C771 N770 1.327 . S
C771 H778 0.930 . S
C772 C767 1.385 . S
C772 C769 1.370 . S
C772 H791 0.930 . S
Tb773 N770 2.600 . S
Tb773 N774 2.660 . S
Tb773 O807 2.362 . S
Tb773 O808 2.421 . S
Tb773 O812 2.546 . S
Tb773 O813 2.610 . S
Tb773 O815 2.320 . S
Tb773 O816 2.552 . S
Tb773 O817 2.413 . S
Tb773 C837 2.833 . S
N774 C766 1.360 . S
N774 Tb773 2.660 . S
N774 C775 1.305 . S
C775 N774 1.305 . S
C775 C777 1.407 . S
C775 H782 0.930 . S
C776 C764 1.410 . S
C776 C777 1.345 . S
C776 H784 0.930 . S
C777 C775 1.407 . S
C777 C776 1.345 . S
C777 H779 0.930 . S
H778 C771 0.930 . S
H779 C777 0.930 . S
H780 C768 0.930 . S
H781 C769 0.931 . S
H782 C775 0.930 . S
H783 C797 0.930 . S
H784 C776 0.930 . S
H785 C803 0.930 . S
H786 C794 0.930 . S
H787 C801 0.931 . S
H788 C765 0.929 . S
H789 C795 0.930 . S
H790 C828 0.930 . S
H791 C772 0.930 . S
H792 C827 0.929 . S
N793 Tb762 2.660 . S
N793 C794 1.305 . S
N793 C798 1.360 . S
C794 H786 0.930 . S
C794 N793 1.305 . S
C794 C797 1.407 . S
C795 H789 0.930 . S
C795 C796 1.410 . S
C795 C797 1.345 . S
C796 C795 1.410 . S
C796 C798 1.417 . S
C796 C828 1.432 . S
C797 H783 0.930 . S
C797 C794 1.407 . S
C797 C795 1.345 . S
C798 N793 1.360 . S
C798 C796 1.417 . S
C798 C802 1.432 . S
H799 C804 0.930 . S
N800 Tb762 2.600 . S
N800 C802 1.359 . S
N800 C803 1.327 . S
C801 H787 0.931 . S
C801 C803 1.392 . S
C801 C804 1.370 . S
C802 C798 1.432 . S
C802 N800 1.359 . S
C802 C805 1.414 . S
C803 H785 0.930 . S
C803 N800 1.327 . S
C803 C801 1.392 . S
C804 H799 0.930 . S
C804 C801 1.370 . S
C804 C805 1.385 . S
C805 C802 1.414 . S
C805 C804 1.385 . S
C805 C827 1.444 . S
O806 Tb762 2.546 . S
O806 C826 1.251 . S
O807 Tb762 2.610 . S
O807 Tb773 2.362 . S
O807 C818 1.283 . S
O808 Tb773 2.421 . S
O808 C825 1.262 . S
O809 Tb762 2.320 . S
O809 C825 1.260 . S
O810 Tb762 2.552 . S
O810 C818 1.243 . S
O811 Tb762 2.413 . S
O811 C826 1.256 . S
O812 Tb773 2.546 . S
O812 C837 1.251 . S
O813 Tb762 2.362 . S
O813 Tb773 2.610 . S
O813 C829 1.283 . S
O814 Tb762 2.421 . S
O814 C836 1.262 . S
O815 Tb773 2.320 . S
O815 C836 1.260 . S
O816 Tb773 2.552 . S
O816 C829 1.243 . S
O817 Tb773 2.413 . S
O817 C837 1.256 . S
C818 O807 1.283 . S
C818 O810 1.243 . S
C819 C821 1.382 . S
C819 C823 1.393 . S
C819 C826 1.500 . S
C820 C821 1.400 . S
C820 C822 1.384 . S
C821 C819 1.382 . S
C821 C820 1.400 . S
C821 H838 0.930 . S
C822 C820 1.384 . S
C822 C824 1.392 . S
C822 H839 0.931 . S
C823 C819 1.393 . S
C823 C824 1.401 . S
C823 H840 0.930 . S
C824 C822 1.392 . S
C824 C823 1.401 . S
C824 H841 0.930 . S
C825 O808 1.262 . S
C825 O809 1.260 . S
C826 Tb762 2.833 . S
C826 O806 1.251 . S
C826 O811 1.256 . S
C826 C819 1.500 . S
C827 H792 0.929 . S
C827 C805 1.444 . S
C827 C828 1.317 . S
C828 H790 0.930 . S
C828 C796 1.432 . S
C828 C827 1.317 . S
C829 O813 1.283 . S
C829 O816 1.243 . S
C830 C831 1.382 . S
C830 C834 1.393 . S
C830 C837 1.500 . S
C831 C830 1.382 . S
C831 C832 1.400 . S
C831 H842 0.930 . S
C832 C831 1.400 . S
C832 C833 1.384 . S
C833 C832 1.384 . S
C833 C835 1.392 . S
C833 H843 0.931 . S
C834 C830 1.393 . S
C834 C835 1.401 . S
C834 H844 0.930 . S
C835 C833 1.392 . S
C835 C834 1.401 . S
C835 H845 0.930 . S
C836 O814 1.262 . S
C836 O815 1.260 . S
C837 Tb773 2.833 . S
C837 O812 1.251 . S
C837 O817 1.256 . S
C837 C830 1.500 . S
H838 C821 0.930 . S
H839 C822 0.931 . S
H840 C823 0.930 . S
H841 C824 0.930 . S
H842 C831 0.930 . S
H843 C833 0.931 . S
H844 C834 0.930 . S
H845 C835 0.930 . S
Tb846 N877 2.660 . S
Tb846 N884 2.600 . S
Tb846 O890 2.546 . S
Tb846 O891 2.610 . S
Tb846 O893 2.320 . S
Tb846 O894 2.552 . S
Tb846 O895 2.413 . S
Tb846 O897 2.362 . S
Tb846 O898 2.421 . S
Tb846 C910 2.833 . S
C847 C850 1.432 . S
C847 C851 1.414 . S
C847 N854 1.359 . S
C848 C850 1.417 . S
C848 C852 1.432 . S
C848 C860 1.410 . S
C849 C851 1.444 . S
C849 C852 1.317 . S
C849 H872 0.929 . S
C850 C847 1.432 . S
C850 C848 1.417 . S
C850 N858 1.360 . S
C851 C847 1.414 . S
C851 C849 1.444 . S
C851 C856 1.385 . S
C852 C848 1.432 . S
C852 C849 1.317 . S
C852 H864 0.930 . S
C853 C855 1.392 . S
C853 C856 1.370 . S
C853 H865 0.931 . S
N854 C847 1.359 . S
N854 C855 1.327 . S
N854 Tb857 2.600 . S
C855 C853 1.392 . S
C855 N854 1.327 . S
C855 H862 0.930 . S
C856 C851 1.385 . S
C856 C853 1.370 . S
C856 H875 0.930 . S
Tb857 N854 2.600 . S
Tb857 N858 2.660 . S
Tb857 O891 2.362 . S
Tb857 O892 2.421 . S
Tb857 O896 2.546 . S
Tb857 O897 2.610 . S
Tb857 O899 2.320 . S
Tb857 O900 2.552 . S
Tb857 O901 2.413 . S
Tb857 C921 2.833 . S
N858 C850 1.360 . S
N858 Tb857 2.660 . S
N858 C859 1.305 . S
C859 N858 1.305 . S
C859 C861 1.407 . S
C859 H866 0.930 . S
C860 C848 1.410 . S
C860 C861 1.345 . S
C860 H868 0.930 . S
C861 C859 1.407 . S
C861 C860 1.345 . S
C861 H863 0.930 . S
H862 C855 0.930 . S
H863 C861 0.930 . S
H864 C852 0.930 . S
H865 C853 0.931 . S
H866 C859 0.930 . S
H867 C881 0.930 . S
H868 C860 0.930 . S
H869 C887 0.930 . S
H870 C878 0.930 . S
H871 C885 0.931 . S
H872 C849 0.929 . S
H873 C879 0.930 . S
H874 C912 0.930 . S
H875 C856 0.930 . S
H876 C911 0.929 . S
N877 Tb846 2.660 . S
N877 C878 1.305 . S
N877 C882 1.360 . S
C878 H870 0.930 . S
C878 N877 1.305 . S
C878 C881 1.407 . S
C879 H873 0.930 . S
C879 C880 1.410 . S
C879 C881 1.345 . S
C880 C879 1.410 . S
C880 C882 1.417 . S
C880 C912 1.432 . S
C881 H867 0.930 . S
C881 C878 1.407 . S
C881 C879 1.345 . S
C882 N877 1.360 . S
C882 C880 1.417 . S
C882 C886 1.432 . S
H883 C888 0.930 . S
N884 Tb846 2.600 . S
N884 C886 1.359 . S
N884 C887 1.327 . S
C885 H871 0.931 . S
C885 C887 1.392 . S
C885 C888 1.370 . S
C886 C882 1.432 . S
C886 N884 1.359 . S
C886 C889 1.414 . S
C887 H869 0.930 . S
C887 N884 1.327 . S
C887 C885 1.392 . S
C888 H883 0.930 . S
C888 C885 1.370 . S
C888 C889 1.385 . S
C889 C886 1.414 . S
C889 C888 1.385 . S
C889 C911 1.444 . S
O890 Tb846 2.546 . S
O890 C910 1.251 . S
O891 Tb846 2.610 . S
O891 Tb857 2.362 . S
O891 C902 1.283 . S
O892 Tb857 2.421 . S
O892 C909 1.262 . S
O893 Tb846 2.320 . S
O893 C909 1.260 . S
O894 Tb846 2.552 . S
O894 C902 1.243 . S
O895 Tb846 2.413 . S
O895 C910 1.256 . S
O896 Tb857 2.546 . S
O896 C921 1.251 . S
O897 Tb846 2.362 . S
O897 Tb857 2.610 . S
O897 C913 1.283 . S
O898 Tb846 2.421 . S
O898 C920 1.262 . S
O899 Tb857 2.320 . S
O899 C920 1.260 . S
O900 Tb857 2.552 . S
O900 C913 1.243 . S
O901 Tb857 2.413 . S
O901 C921 1.256 . S
C902 O891 1.283 . S
C902 O894 1.243 . S
C903 C905 1.382 . S
C903 C907 1.393 . S
C903 C910 1.500 . S
C904 C905 1.400 . S
C904 C906 1.384 . S
C905 C903 1.382 . S
C905 C904 1.400 . S
C905 H922 0.930 . S
C906 C904 1.384 . S
C906 C908 1.392 . S
C906 H923 0.931 . S
C907 C903 1.393 . S
C907 C908 1.401 . S
C907 H924 0.930 . S
C908 C906 1.392 . S
C908 C907 1.401 . S
C908 H925 0.930 . S
C909 O892 1.262 . S
C909 O893 1.260 . S
C910 Tb846 2.833 . S
C910 O890 1.251 . S
C910 O895 1.256 . S
C910 C903 1.500 . S
C911 H876 0.929 . S
C911 C889 1.444 . S
C911 C912 1.317 . S
C912 H874 0.930 . S
C912 C880 1.432 . S
C912 C911 1.317 . S
C913 O897 1.283 . S
C913 O900 1.243 . S
C914 C915 1.382 . S
C914 C918 1.393 . S
C914 C921 1.500 . S
C915 C914 1.382 . S
C915 C916 1.400 . S
C915 H926 0.930 . S
C916 C915 1.400 . S
C916 C917 1.384 . S
C917 C916 1.384 . S
C917 C919 1.392 . S
C917 H927 0.931 . S
C918 C914 1.393 . S
C918 C919 1.401 . S
C918 H928 0.930 . S
C919 C917 1.392 . S
C919 C918 1.401 . S
C919 H929 0.930 . S
C920 O898 1.262 . S
C920 O899 1.260 . S
C921 Tb857 2.833 . S
C921 O896 1.251 . S
C921 O901 1.256 . S
C921 C914 1.500 . S
H922 C905 0.930 . S
H923 C906 0.931 . S
H924 C907 0.930 . S
H925 C908 0.930 . S
H926 C915 0.930 . S
H927 C917 0.931 . S
H928 C918 0.930 . S
H929 C919 0.930 . S
Tb930 N961 2.660 . S
Tb930 N968 2.600 . S
Tb930 O974 2.546 . S
Tb930 O975 2.610 . S
Tb930 O977 2.320 . S
Tb930 O978 2.552 . S
Tb930 O979 2.413 . S
Tb930 O981 2.362 . S
Tb930 O982 2.421 . S
Tb930 C994 2.833 . S
C931 C934 1.432 . S
C931 C935 1.414 . S
C931 N938 1.359 . S
C932 C934 1.417 . S
C932 C936 1.432 . S
C932 C944 1.410 . S
C933 C935 1.444 . S
C933 C936 1.317 . S
C933 H956 0.929 . S
C934 C931 1.432 . S
C934 C932 1.417 . S
C934 N942 1.360 . S
C935 C931 1.414 . S
C935 C933 1.444 . S
C935 C940 1.385 . S
C936 C932 1.432 . S
C936 C933 1.317 . S
C936 H948 0.930 . S
C937 C939 1.392 . S
C937 C940 1.370 . S
C937 H949 0.931 . S
N938 C931 1.359 . S
N938 C939 1.327 . S
N938 Tb941 2.600 . S
C939 C937 1.392 . S
C939 N938 1.327 . S
C939 H946 0.930 . S
C940 C935 1.385 . S
C940 C937 1.370 . S
C940 H959 0.930 . S
Tb941 N938 2.600 . S
Tb941 N942 2.660 . S
Tb941 O975 2.362 . S
Tb941 O976 2.421 . S
Tb941 O980 2.546 . S
Tb941 O981 2.610 . S
Tb941 O983 2.320 . S
Tb941 O984 2.552 . S
Tb941 O985 2.413 . S
Tb941 C1005 2.833 . S
N942 C934 1.360 . S
N942 Tb941 2.660 . S
N942 C943 1.305 . S
C943 N942 1.305 . S
C943 C945 1.407 . S
C943 H950 0.930 . S
C944 C932 1.410 . S
C944 C945 1.345 . S
C944 H952 0.930 . S
C945 C943 1.407 . S
C945 C944 1.345 . S
C945 H947 0.930 . S
H946 C939 0.930 . S
H947 C945 0.930 . S
H948 C936 0.930 . S
H949 C937 0.931 . S
H950 C943 0.930 . S
H951 C965 0.930 . S
H952 C944 0.930 . S
H953 C971 0.930 . S
H954 C962 0.930 . S
H955 C969 0.931 . S
H956 C933 0.929 . S
H957 C963 0.930 . S
H958 C996 0.930 . S
H959 C940 0.930 . S
H960 C995 0.929 . S
N961 Tb930 2.660 . S
N961 C962 1.305 . S
N961 C966 1.360 . S
C962 H954 0.930 . S
C962 N961 1.305 . S
C962 C965 1.407 . S
C963 H957 0.930 . S
C963 C964 1.410 . S
C963 C965 1.345 . S
C964 C963 1.410 . S
C964 C966 1.417 . S
C964 C996 1.432 . S
C965 H951 0.930 . S
C965 C962 1.407 . S
C965 C963 1.345 . S
C966 N961 1.360 . S
C966 C964 1.417 . S
C966 C970 1.432 . S
H967 C972 0.930 . S
N968 Tb930 2.600 . S
N968 C970 1.359 . S
N968 C971 1.327 . S
C969 H955 0.931 . S
C969 C971 1.392 . S
C969 C972 1.370 . S
C970 C966 1.432 . S
C970 N968 1.359 . S
C970 C973 1.414 . S
C971 H953 0.930 . S
C971 N968 1.327 . S
C971 C969 1.392 . S
C972 H967 0.930 . S
C972 C969 1.370 . S
C972 C973 1.385 . S
C973 C970 1.414 . S
C973 C972 1.385 . S
C973 C995 1.444 . S
O974 Tb930 2.546 . S
O974 C994 1.251 . S
O975 Tb930 2.610 . S
O975 Tb941 2.362 . S
O975 C986 1.283 . S
O976 Tb941 2.421 . S
O976 C993 1.262 . S
O977 Tb930 2.320 . S
O977 C993 1.260 . S
O978 Tb930 2.552 . S
O978 C986 1.243 . S
O979 Tb930 2.413 . S
O979 C994 1.256 . S
O980 Tb941 2.546 . S
O980 C1005 1.251 . S
O981 Tb930 2.362 . S
O981 Tb941 2.610 . S
O981 C997 1.283 . S
O982 Tb930 2.421 . S
O982 C1004 1.262 . S
O983 Tb941 2.320 . S
O983 C1004 1.260 . S
O984 Tb941 2.552 . S
O984 C997 1.243 . S
O985 Tb941 2.413 . S
O985 C1005 1.256 . S
C986 O975 1.283 . S
C986 O978 1.243 . S
C987 C989 1.382 . S
C987 C991 1.393 . S
C987 C994 1.500 . S
C988 C989 1.400 . S
C988 C990 1.384 . S
C989 C987 1.382 . S
C989 C988 1.400 . S
C989 H1006 0.930 . S
C990 C988 1.384 . S
C990 C992 1.392 . S
C990 H1007 0.931 . S
C991 C987 1.393 . S
C991 C992 1.401 . S
C991 H1008 0.930 . S
C992 C990 1.392 . S
C992 C991 1.401 . S
C992 H1009 0.930 . S
C993 O976 1.262 . S
C993 O977 1.260 . S
C994 Tb930 2.833 . S
C994 O974 1.251 . S
C994 O979 1.256 . S
C994 C987 1.500 . S
C995 H960 0.929 . S
C995 C973 1.444 . S
C995 C996 1.317 . S
C996 H958 0.930 . S
C996 C964 1.432 . S
C996 C995 1.317 . S
C997 O981 1.283 . S
C997 O984 1.243 . S
C998 C999 1.382 . S
C998 C1002 1.393 . S
C998 C1005 1.500 . S
C999 C998 1.382 . S
C999 C1000 1.400 . S
C999 H1010 0.930 . S
C1000 C999 1.400 . S
C1000 C1001 1.384 . S
C1001 C1000 1.384 . S
C1001 C1003 1.392 . S
C1001 H1011 0.931 . S
C1002 C998 1.393 . S
C1002 C1003 1.401 . S
C1002 H1012 0.930 . S
C1003 C1001 1.392 . S
C1003 C1002 1.401 . S
C1003 H1013 0.930 . S
C1004 O982 1.262 . S
C1004 O983 1.260 . S
C1005 Tb941 2.833 . S
C1005 O980 1.251 . S
C1005 O985 1.256 . S
C1005 C998 1.500 . S
H1006 C989 0.930 . S
H1007 C990 0.931 . S
H1008 C991 0.930 . S
H1009 C992 0.930 . S
H1010 C999 0.930 . S
H1011 C1001 0.931 . S
H1012 C1002 0.930 . S
H1013 C1003 0.930 . S
Tb1014 N1045 2.660 . S
Tb1014 N1052 2.600 . S
Tb1014 O1058 2.546 . S
Tb1014 O1059 2.610 . S
Tb1014 O1061 2.320 . S
Tb1014 O1062 2.552 . S
Tb1014 O1063 2.413 . S
Tb1014 O1065 2.362 . S
Tb1014 O1066 2.421 . S
Tb1014 C1078 2.833 . S
C1015 C1018 1.432 . S
C1015 C1019 1.414 . S
C1015 N1022 1.359 . S
C1016 C1018 1.417 . S
C1016 C1020 1.432 . S
C1016 C1028 1.410 . S
C1017 C1019 1.444 . S
C1017 C1020 1.317 . S
C1017 H1040 0.929 . S
C1018 C1015 1.432 . S
C1018 C1016 1.417 . S
C1018 N1026 1.360 . S
C1019 C1015 1.414 . S
C1019 C1017 1.444 . S
C1019 C1024 1.385 . S
C1020 C1016 1.432 . S
C1020 C1017 1.317 . S
C1020 H1032 0.930 . S
C1021 C1023 1.392 . S
C1021 C1024 1.370 . S
C1021 H1033 0.931 . S
N1022 C1015 1.359 . S
N1022 C1023 1.327 . S
N1022 Tb1025 2.600 . S
C1023 C1021 1.392 . S
C1023 N1022 1.327 . S
C1023 H1030 0.930 . S
C1024 C1019 1.385 . S
C1024 C1021 1.370 . S
C1024 H1043 0.930 . S
Tb1025 N1022 2.600 . S
Tb1025 N1026 2.660 . S
Tb1025 O1059 2.362 . S
Tb1025 O1060 2.421 . S
Tb1025 O1064 2.546 . S
Tb1025 O1065 2.610 . S
Tb1025 O1067 2.320 . S
Tb1025 O1068 2.552 . S
Tb1025 O1069 2.413 . S
Tb1025 C1089 2.833 . S
N1026 C1018 1.360 . S
N1026 Tb1025 2.660 . S
N1026 C1027 1.305 . S
C1027 N1026 1.305 . S
C1027 C1029 1.407 . S
C1027 H1034 0.930 . S
C1028 C1016 1.410 . S
C1028 C1029 1.345 . S
C1028 H1036 0.930 . S
C1029 C1027 1.407 . S
C1029 C1028 1.345 . S
C1029 H1031 0.930 . S
H1030 C1023 0.930 . S
H1031 C1029 0.930 . S
H1032 C1020 0.930 . S
H1033 C1021 0.931 . S
H1034 C1027 0.930 . S
H1035 C1049 0.930 . S
H1036 C1028 0.930 . S
H1037 C1055 0.930 . S
H1038 C1046 0.930 . S
H1039 C1053 0.931 . S
H1040 C1017 0.929 . S
H1041 C1047 0.930 . S
H1042 C1080 0.930 . S
H1043 C1024 0.930 . S
H1044 C1079 0.929 . S
N1045 Tb1014 2.660 . S
N1045 C1046 1.305 . S
N1045 C1050 1.360 . S
C1046 H1038 0.930 . S
C1046 N1045 1.305 . S
C1046 C1049 1.407 . S
C1047 H1041 0.930 . S
C1047 C1048 1.410 . S
C1047 C1049 1.345 . S
C1048 C1047 1.410 . S
C1048 C1050 1.417 . S
C1048 C1080 1.432 . S
C1049 H1035 0.930 . S
C1049 C1046 1.407 . S
C1049 C1047 1.345 . S
C1050 N1045 1.360 . S
C1050 C1048 1.417 . S
C1050 C1054 1.432 . S
H1051 C1056 0.930 . S
N1052 Tb1014 2.600 . S
N1052 C1054 1.359 . S
N1052 C1055 1.327 . S
C1053 H1039 0.931 . S
C1053 C1055 1.392 . S
C1053 C1056 1.370 . S
C1054 C1050 1.432 . S
C1054 N1052 1.359 . S
C1054 C1057 1.414 . S
C1055 H1037 0.930 . S
C1055 N1052 1.327 . S
C1055 C1053 1.392 . S
C1056 H1051 0.930 . S
C1056 C1053 1.370 . S
C1056 C1057 1.385 . S
C1057 C1054 1.414 . S
C1057 C1056 1.385 . S
C1057 C1079 1.444 . S
O1058 Tb1014 2.546 . S
O1058 C1078 1.251 . S
O1059 Tb1014 2.610 . S
O1059 Tb1025 2.362 . S
O1059 C1070 1.283 . S
O1060 Tb1025 2.421 . S
O1060 C1077 1.262 . S
O1061 Tb1014 2.320 . S
O1061 C1077 1.260 . S
O1062 Tb1014 2.552 . S
O1062 C1070 1.243 . S
O1063 Tb1014 2.413 . S
O1063 C1078 1.256 . S
O1064 Tb1025 2.546 . S
O1064 C1089 1.251 . S
O1065 Tb1014 2.362 . S
O1065 Tb1025 2.610 . S
O1065 C1081 1.283 . S
O1066 Tb1014 2.421 . S
O1066 C1088 1.262 . S
O1067 Tb1025 2.320 . S
O1067 C1088 1.260 . S
O1068 Tb1025 2.552 . S
O1068 C1081 1.243 . S
O1069 Tb1025 2.413 . S
O1069 C1089 1.256 . S
C1070 O1059 1.283 . S
C1070 O1062 1.243 . S
C1071 C1073 1.382 . S
C1071 C1075 1.393 . S
C1071 C1078 1.500 . S
C1072 C1073 1.400 . S
C1072 C1074 1.384 . S
C1073 C1071 1.382 . S
C1073 C1072 1.400 . S
C1073 H1090 0.930 . S
C1074 C1072 1.384 . S
C1074 C1076 1.392 . S
C1074 H1091 0.931 . S
C1075 C1071 1.393 . S
C1075 C1076 1.401 . S
C1075 H1092 0.930 . S
C1076 C1074 1.392 . S
C1076 C1075 1.401 . S
C1076 H1093 0.930 . S
C1077 O1060 1.262 . S
C1077 O1061 1.260 . S
C1078 Tb1014 2.833 . S
C1078 O1058 1.251 . S
C1078 O1063 1.256 . S
C1078 C1071 1.500 . S
C1079 H1044 0.929 . S
C1079 C1057 1.444 . S
C1079 C1080 1.317 . S
C1080 H1042 0.930 . S
C1080 C1048 1.432 . S
C1080 C1079 1.317 . S
C1081 O1065 1.283 . S
C1081 O1068 1.243 . S
C1082 C1083 1.382 . S
C1082 C1086 1.393 . S
C1082 C1089 1.500 . S
C1083 C1082 1.382 . S
C1083 C1084 1.400 . S
C1083 H1094 0.930 . S
C1084 C1083 1.400 . S
C1084 C1085 1.384 . S
C1085 C1084 1.384 . S
C1085 C1087 1.392 . S
C1085 H1095 0.931 . S
C1086 C1082 1.393 . S
C1086 C1087 1.401 . S
C1086 H1096 0.930 . S
C1087 C1085 1.392 . S
C1087 C1086 1.401 . S
C1087 H1097 0.930 . S
C1088 O1066 1.262 . S
C1088 O1067 1.260 . S
C1089 Tb1025 2.833 . S
C1089 O1064 1.251 . S
C1089 O1069 1.256 . S
C1089 C1082 1.500 . S
H1090 C1073 0.930 . S
H1091 C1074 0.931 . S
H1092 C1075 0.930 . S
H1093 C1076 0.930 . S
H1094 C1083 0.930 . S
H1095 C1085 0.931 . S
H1096 C1086 0.930 . S
H1097 C1087 0.930 . S
H1098 C1116 0.951 . S
H1099 C1118 0.951 . S
H1100 C1120 0.950 . S
H1101 C1121 0.950 . S
H1102 C1123 0.950 . S
H1103 C1126 0.950 . S
H1104 C1127 0.950 . S
H1105 C1129 0.950 . S
H1106 C1130 0.950 . S
H1107 C1131 0.951 . S
H1108 C1133 0.951 . S
H1109 C1135 0.950 . S
H1110 C1136 0.950 . S
H1111 C1138 0.950 . S
H1112 C1141 0.950 . S
H1113 C1142 0.950 1_556 S
H1114 C1144 0.950 . S
H1115 C1145 0.950 . S
C1116 H1098 0.951 . S
C1116 C1117 1.366 . S
C1116 C1118 1.388 . S
C1117 C1116 1.366 . S
C1117 C1121 1.385 . S
C1118 H1099 0.951 . S
C1118 C1116 1.388 . S
C1118 C1119 1.366 . S
C1119 C1118 1.366 . S
C1119 C1120 1.414 . S
C1119 C1122 1.499 . S
C1120 H1100 0.950 . S
C1120 C1119 1.414 . S
C1120 C1121 1.374 . S
C1121 H1101 0.950 . S
C1121 C1117 1.385 . S
C1121 C1120 1.374 . S
C1122 C1119 1.499 . S
C1122 C1123 1.373 . S
C1122 C1124 1.389 . S
C1123 H1102 0.950 . S
C1123 C1122 1.373 . S
C1123 C1139 1.377 . S
C1124 C1122 1.389 . S
C1124 C1125 1.524 . S
C1124 C1138 1.377 . S
C1125 C1124 1.524 . S
C1125 C1126 1.397 . S
C1125 C1130 1.363 . S
C1126 H1103 0.950 . S
C1126 C1125 1.397 . S
C1126 C1127 1.334 . S
C1127 H1104 0.950 . S
C1127 C1126 1.334 . S
C1127 C1128 1.287 . S
C1128 C1127 1.287 . S
C1128 C1129 1.524 . S
C1128 H1147 0.913 . S
C1129 H1105 0.950 . S
C1129 C1128 1.524 . S
C1129 C1130 1.415 . S
C1130 H1106 0.950 . S
C1130 C1125 1.363 . S
C1130 C1129 1.415 . S
C1131 H1107 0.951 . S
C1131 C1132 1.366 . S
C1131 C1133 1.388 . S
C1132 C1131 1.366 . S
C1132 C1136 1.385 . S
C1133 H1108 0.951 . S
C1133 C1131 1.388 . S
C1133 C1134 1.366 . S
C1134 C1133 1.366 . S
C1134 C1135 1.414 . S
C1134 C1137 1.499 . S
C1135 H1109 0.950 . S
C1135 C1134 1.414 . S
C1135 C1136 1.374 . S
C1136 H1110 0.950 . S
C1136 C1132 1.385 . S
C1136 C1135 1.374 . S
C1137 C1134 1.499 . S
C1137 C1138 1.373 . S
C1137 C1139 1.389 . S
C1138 H1111 0.950 . S
C1138 C1124 1.377 . S
C1138 C1137 1.373 . S
C1139 C1123 1.377 . S
C1139 C1137 1.389 . S
C1139 C1140 1.524 . S
C1140 C1139 1.524 . S
C1140 C1141 1.397 . S
C1140 C1145 1.363 . S
C1141 H1112 0.950 . S
C1141 C1140 1.397 . S
C1141 C1142 1.334 . S
C1142 H1113 0.950 1_554 S
C1142 C1141 1.334 . S
C1142 C1143 1.287 . S
C1143 C1142 1.287 . S
C1143 C1144 1.524 . S
C1143 H1146 0.999 . S
C1144 H1114 0.950 . S
C1144 C1143 1.524 . S
C1144 C1145 1.415 . S
C1145 H1115 0.950 . S
C1145 C1140 1.363 . S
C1145 C1144 1.415 . S
H1146 C1143 0.999 . S
H1147 C1128 0.913 . S
H1148 C1166 0.951 . S
H1149 C1168 0.951 . S
H1150 C1170 0.950 . S
H1151 C1171 0.950 . S
H1152 C1173 0.950 . S
H1153 C1176 0.950 . S
H1154 C1177 0.950 . S
H1155 C1179 0.950 1_556 S
H1156 C1180 0.950 . S
H1157 C1181 0.951 . S
H1158 C1183 0.951 . S
H1159 C1185 0.950 . S
H1160 C1186 0.950 1_556 S
H1161 C1188 0.950 . S
H1162 C1191 0.950 . S
H1163 C1192 0.950 . S
H1164 C1194 0.950 . S
H1165 C1195 0.950 . S
C1166 H1148 0.951 . S
C1166 C1167 1.366 . S
C1166 C1168 1.388 . S
C1167 C1166 1.366 . S
C1167 C1171 1.385 . S
C1168 H1149 0.951 . S
C1168 C1166 1.388 . S
C1168 C1169 1.366 . S
C1169 C1168 1.366 . S
C1169 C1170 1.414 . S
C1169 C1172 1.499 . S
C1170 H1150 0.950 . S
C1170 C1169 1.414 . S
C1170 C1171 1.374 . S
C1171 H1151 0.950 . S
C1171 C1167 1.385 . S
C1171 C1170 1.374 . S
C1172 C1169 1.499 . S
C1172 C1173 1.373 . S
C1172 C1174 1.389 . S
C1173 H1152 0.950 . S
C1173 C1172 1.373 . S
C1173 C1189 1.377 . S
C1174 C1172 1.389 . S
C1174 C1175 1.524 . S
C1174 C1188 1.377 . S
C1175 C1174 1.524 . S
C1175 C1176 1.397 . S
C1175 C1180 1.363 . S
C1176 H1153 0.950 . S
C1176 C1175 1.397 . S
C1176 C1177 1.334 . S
C1177 H1154 0.950 . S
C1177 C1176 1.334 . S
C1177 C1178 1.287 . S
C1178 C1177 1.287 . S
C1178 C1179 1.524 . S
C1178 H1197 0.913 . S
C1179 H1155 0.950 1_554 S
C1179 C1178 1.524 . S
C1179 C1180 1.415 . S
C1180 H1156 0.950 . S
C1180 C1175 1.363 . S
C1180 C1179 1.415 . S
C1181 H1157 0.951 . S
C1181 C1182 1.366 . S
C1181 C1183 1.388 . S
C1182 C1181 1.366 . S
C1182 C1186 1.385 . S
C1183 H1158 0.951 . S
C1183 C1181 1.388 . S
C1183 C1184 1.366 . S
C1184 C1183 1.366 . S
C1184 C1185 1.414 . S
C1184 C1187 1.499 . S
C1185 H1159 0.950 . S
C1185 C1184 1.414 . S
C1185 C1186 1.374 . S
C1186 H1160 0.950 1_554 S
C1186 C1182 1.385 . S
C1186 C1185 1.374 . S
C1187 C1184 1.499 . S
C1187 C1188 1.373 . S
C1187 C1189 1.389 . S
C1188 H1161 0.950 . S
C1188 C1174 1.377 . S
C1188 C1187 1.373 . S
C1189 C1173 1.377 . S
C1189 C1187 1.389 . S
C1189 C1190 1.524 . S
C1190 C1189 1.524 . S
C1190 C1191 1.397 . S
C1190 C1195 1.363 . S
C1191 H1162 0.950 . S
C1191 C1190 1.397 . S
C1191 C1192 1.334 . S
C1192 H1163 0.950 . S
C1192 C1191 1.334 . S
C1192 C1193 1.287 . S
C1193 C1192 1.287 . S
C1193 C1194 1.524 . S
C1193 H1196 0.999 . S
C1194 H1164 0.950 . S
C1194 C1193 1.524 . S
C1194 C1195 1.415 . S
C1195 H1165 0.950 . S
C1195 C1190 1.363 . S
C1195 C1194 1.415 . S
H1196 C1193 0.999 . S
H1197 C1178 0.913 . S
H1198 C1216 0.951 . S
H1199 C1218 0.951 . S
H1200 C1220 0.950 . S
H1201 C1221 0.950 . S
H1202 C1223 0.950 . S
H1203 C1226 0.950 . S
H1204 C1227 0.950 . S
H1205 C1229 0.950 . S
H1206 C1230 0.950 . S
H1207 C1231 0.951 . S
H1208 C1233 0.951 . S
H1209 C1235 0.950 . S
H1210 C1236 0.950 . S
H1211 C1238 0.950 . S
H1212 C1241 0.950 . S
H1213 C1242 0.950 . S
H1214 C1244 0.950 . S
H1215 C1245 0.950 . S
C1216 H1198 0.951 . S
C1216 C1217 1.366 . S
C1216 C1218 1.388 . S
C1217 C1216 1.366 . S
C1217 C1221 1.385 . S
C1218 H1199 0.951 . S
C1218 C1216 1.388 . S
C1218 C1219 1.366 . S
C1219 C1218 1.366 . S
C1219 C1220 1.414 . S
C1219 C1222 1.499 . S
C1220 H1200 0.950 . S
C1220 C1219 1.414 . S
C1220 C1221 1.374 . S
C1221 H1201 0.950 . S
C1221 C1217 1.385 . S
C1221 C1220 1.374 . S
C1222 C1219 1.499 . S
C1222 C1223 1.373 . S
C1222 C1224 1.389 . S
C1223 H1202 0.950 . S
C1223 C1222 1.373 . S
C1223 C1239 1.377 . S
C1224 C1222 1.389 . S
C1224 C1225 1.524 . S
C1224 C1238 1.377 . S
C1225 C1224 1.524 . S
C1225 C1226 1.397 . S
C1225 C1230 1.363 . S
C1226 H1203 0.950 . S
C1226 C1225 1.397 . S
C1226 C1227 1.334 1_554 S
C1227 H1204 0.950 . S
C1227 C1226 1.334 1_556 S
C1227 C1228 1.287 . S
C1228 C1227 1.287 . S
C1228 C1229 1.524 1_556 S
C1228 H1247 0.913 . S
C1229 H1205 0.950 . S
C1229 C1228 1.524 1_554 S
C1229 C1230 1.415 . S
C1230 H1206 0.950 . S
C1230 C1225 1.363 . S
C1230 C1229 1.415 . S
C1231 H1207 0.951 . S
C1231 C1232 1.366 . S
C1231 C1233 1.388 . S
C1232 C1231 1.366 . S
C1232 C1236 1.385 . S
C1233 H1208 0.951 . S
C1233 C1231 1.388 . S
C1233 C1234 1.366 . S
C1234 C1233 1.366 . S
C1234 C1235 1.414 . S
C1234 C1237 1.499 . S
C1235 H1209 0.950 . S
C1235 C1234 1.414 . S
C1235 C1236 1.374 . S
C1236 H1210 0.950 . S
C1236 C1232 1.385 . S
C1236 C1235 1.374 . S
C1237 C1234 1.499 . S
C1237 C1238 1.373 . S
C1237 C1239 1.389 . S
C1238 H1211 0.950 . S
C1238 C1224 1.377 . S
C1238 C1237 1.373 . S
C1239 C1223 1.377 . S
C1239 C1237 1.389 . S
C1239 C1240 1.524 . S
C1240 C1239 1.524 . S
C1240 C1241 1.397 . S
C1240 C1245 1.363 . S
C1241 H1212 0.950 . S
C1241 C1240 1.397 . S
C1241 C1242 1.334 . S
C1242 H1213 0.950 . S
C1242 C1241 1.334 . S
C1242 C1243 1.287 . S
C1243 C1242 1.287 . S
C1243 C1244 1.524 . S
C1243 H1246 0.999 . S
C1244 H1214 0.950 . S
C1244 C1243 1.524 . S
C1244 C1245 1.415 . S
C1245 H1215 0.950 . S
C1245 C1240 1.363 . S
C1245 C1244 1.415 . S
H1246 C1243 0.999 . S
H1247 C1228 0.913 . S
H1248 C1266 0.951 . S
H1249 C1268 0.951 . S
H1250 C1270 0.950 . S
H1251 C1271 0.950 . S
H1252 C1273 0.950 . S
H1253 C1276 0.950 . S
H1254 C1277 0.950 . S
H1255 C1279 0.950 . S
H1256 C1280 0.950 . S
H1257 C1281 0.951 . S
H1258 C1283 0.951 . S
H1259 C1285 0.950 . S
H1260 C1286 0.970 . S
H1261 C1288 0.950 1_554 S
H1262 C1291 0.950 . S
H1263 C1292 0.950 . S
H1264 C1294 0.950 . S
H1265 C1295 0.950 . S
C1266 H1248 0.951 . S
C1266 C1267 1.366 . S
C1266 C1268 1.388 . S
C1267 C1266 1.366 . S
C1267 C1271 1.385 . S
C1268 H1249 0.951 . S
C1268 C1266 1.388 . S
C1268 C1269 1.366 . S
C1269 C1268 1.366 . S
C1269 C1270 1.414 . S
C1269 C1272 1.499 . S
C1270 H1250 0.950 . S
C1270 C1269 1.414 . S
C1270 C1271 1.374 . S
C1271 H1251 0.950 . S
C1271 C1267 1.385 . S
C1271 C1270 1.374 . S
C1272 C1269 1.499 . S
C1272 C1273 1.373 . S
C1272 C1274 1.389 . S
C1273 H1252 0.950 . S
C1273 C1272 1.373 . S
C1273 C1289 1.377 . S
C1274 C1272 1.389 . S
C1274 C1275 1.524 1_556 S
C1274 C1288 1.377 . S
C1275 C1274 1.524 1_554 S
C1275 C1276 1.397 . S
C1275 C1280 1.363 . S
C1276 H1253 0.950 . S
C1276 C1275 1.397 . S
C1276 C1277 1.334 . S
C1277 H1254 0.950 . S
C1277 C1276 1.334 . S
C1277 C1278 1.287 . S
C1278 C1277 1.287 . S
C1278 C1279 1.524 . S
C1278 H1297 0.913 . S
C1279 H1255 0.950 . S
C1279 C1278 1.524 . S
C1279 C1280 1.415 . S
C1280 H1256 0.950 . S
C1280 C1275 1.363 . S
C1280 C1279 1.415 . S
C1281 H1257 0.951 . S
C1281 C1282 1.366 . S
C1281 C1283 1.388 . S
C1282 C1281 1.366 . S
C1282 C1286 1.378 1_556 S
C1283 H1258 0.951 . S
C1283 C1281 1.388 . S
C1283 C1284 1.366 . S
C1284 C1283 1.366 . S
C1284 C1285 1.414 . S
C1284 C1287 1.499 . S
C1285 H1259 0.950 . S
C1285 C1284 1.414 . S
C1285 C1286 1.363 1_556 S
C1286 H1260 0.970 . S
C1286 C1282 1.378 1_554 S
C1286 C1285 1.363 1_554 S
C1287 C1284 1.499 . S
C1287 C1288 1.373 . S
C1287 C1289 1.389 . S
C1288 H1261 0.950 1_556 S
C1288 C1274 1.377 . S
C1288 C1287 1.373 . S
C1289 C1273 1.377 . S
C1289 C1287 1.389 . S
C1289 C1290 1.524 . S
C1290 C1289 1.524 . S
C1290 C1291 1.397 . S
C1290 C1295 1.363 . S
C1291 H1262 0.950 . S
C1291 C1290 1.397 . S
C1291 C1292 1.334 . S
C1292 H1263 0.950 . S
C1292 C1291 1.334 . S
C1292 C1293 1.287 . S
C1293 C1292 1.287 . S
C1293 C1294 1.524 . S
C1293 H1296 0.999 . S
C1294 H1264 0.950 . S
C1294 C1293 1.524 . S
C1294 C1295 1.415 . S
C1295 H1265 0.950 . S
C1295 C1290 1.363 . S
C1295 C1294 1.415 . S
H1296 C1293 0.999 . S
H1297 C1278 0.913 . S
H1298 C1316 0.951 . S
H1299 C1318 0.951 . S
H1300 C1320 0.950 . S
H1301 C1321 0.950 . S
H1302 C1323 0.950 . S
H1303 C1326 0.950 . S
H1304 C1327 0.950 1_554 S
H1305 C1329 0.950 . S
H1306 C1330 0.950 . S
H1307 C1331 0.951 . S
H1308 C1333 0.951 . S
H1309 C1335 0.950 . S
H1310 C1336 0.950 . S
H1311 C1338 0.950 . S
H1312 C1341 0.950 . S
H1313 C1342 0.950 . S
H1314 C1344 0.950 . S
H1315 C1345 0.950 . S
C1316 H1298 0.951 . S
C1316 C1317 1.366 . S
C1316 C1318 1.388 . S
C1317 C1316 1.366 . S
C1317 C1321 1.385 . S
C1318 H1299 0.951 . S
C1318 C1316 1.388 . S
C1318 C1319 1.366 . S
C1319 C1318 1.366 . S
C1319 C1320 1.414 . S
C1319 C1322 1.499 . S
C1320 H1300 0.950 . S
C1320 C1319 1.414 . S
C1320 C1321 1.374 . S
C1321 H1301 0.950 . S
C1321 C1317 1.385 . S
C1321 C1320 1.374 . S
C1322 C1319 1.499 . S
C1322 C1323 1.373 . S
C1322 C1324 1.389 . S
C1323 H1302 0.950 . S
C1323 C1322 1.373 . S
C1323 C1339 1.377 . S
C1324 C1322 1.389 . S
C1324 C1325 1.524 . S
C1324 C1338 1.377 . S
C1325 C1324 1.524 . S
C1325 C1326 1.397 . S
C1325 C1330 1.363 . S
C1326 H1303 0.950 . S
C1326 C1325 1.397 . S
C1326 C1327 1.334 . S
C1327 H1304 0.950 1_556 S
C1327 C1326 1.334 . S
C1327 C1328 1.287 . S
C1328 C1327 1.287 . S
C1328 C1329 1.524 . S
C1328 H1347 0.913 . S
C1329 H1305 0.950 . S
C1329 C1328 1.524 . S
C1329 C1330 1.415 . S
C1330 H1306 0.950 . S
C1330 C1325 1.363 . S
C1330 C1329 1.415 . S
C1331 H1307 0.951 . S
C1331 C1332 1.343 1_554 S
C1331 C1333 1.388 . S
C1332 C1331 1.343 1_556 S
C1332 C1336 1.426 . S
C1333 H1308 0.951 . S
C1333 C1331 1.388 . S
C1333 C1334 1.366 1_554 S
C1334 C1333 1.366 1_556 S
C1334 C1335 1.414 . S
C1334 C1337 1.499 . S
C1335 H1309 0.950 . S
C1335 C1334 1.414 . S
C1335 C1336 1.374 . S
C1336 H1310 0.950 . S
C1336 C1332 1.426 . S
C1336 C1335 1.374 . S
C1337 C1334 1.499 . S
C1337 C1338 1.373 . S
C1337 C1339 1.389 . S
C1338 H1311 0.950 . S
C1338 C1324 1.377 . S
C1338 C1337 1.373 . S
C1339 C1323 1.377 . S
C1339 C1337 1.389 . S
C1339 C1340 1.524 . S
C1340 C1339 1.524 . S
C1340 C1341 1.397 . S
C1340 C1345 1.363 . S
C1341 H1312 0.950 . S
C1341 C1340 1.397 . S
C1341 C1342 1.334 . S
C1342 H1313 0.950 . S
C1342 C1341 1.334 . S
C1342 C1343 1.287 . S
C1343 C1342 1.287 . S
C1343 C1344 1.524 . S
C1343 H1346 0.999 . S
C1344 H1314 0.950 . S
C1344 C1343 1.524 . S
C1344 C1345 1.415 . S
C1345 H1315 0.950 . S
C1345 C1340 1.363 . S
C1345 C1344 1.415 . S
H1346 C1343 0.999 . S
H1347 C1328 0.913 . S
H1348 C1366 0.951 . S
H1349 C1368 0.951 . S
H1350 C1370 0.950 . S
H1351 C1371 0.950 . S
H1352 C1373 0.950 1_554 S
H1353 C1376 0.950 . S
H1354 C1377 0.950 . S
H1355 C1379 0.950 . S
H1356 C1380 0.950 . S
H1357 C1381 0.951 . S
H1358 C1383 0.951 . S
H1359 C1385 0.950 . S
H1360 C1386 0.950 . S
H1361 C1388 0.950 . S
H1362 C1391 0.950 . S
H1363 C1392 0.950 . S
H1364 C1394 0.950 . S
H1365 C1395 0.950 . S
C1366 H1348 0.951 . S
C1366 C1367 1.366 . S
C1366 C1368 1.388 . S
C1367 C1366 1.366 . S
C1367 C1371 1.385 . S
C1368 H1349 0.951 . S
C1368 C1366 1.388 . S
C1368 C1369 1.366 . S
C1369 C1368 1.366 . S
C1369 C1370 1.414 . S
C1369 C1372 1.499 . S
C1370 H1350 0.950 . S
C1370 C1369 1.414 . S
C1370 C1371 1.374 . S
C1371 H1351 0.950 . S
C1371 C1367 1.385 . S
C1371 C1370 1.374 . S
C1372 C1369 1.499 . S
C1372 C1373 1.373 . S
C1372 C1374 1.389 . S
C1373 H1352 0.950 1_556 S
C1373 C1372 1.373 . S
C1373 C1389 1.361 1_556 S
C1374 C1372 1.389 . S
C1374 C1375 1.524 . S
C1374 C1388 1.377 . S
C1375 C1374 1.524 . S
C1375 C1376 1.397 . S
C1375 C1380 1.363 . S
C1376 H1353 0.950 . S
C1376 C1375 1.397 . S
C1376 C1377 1.334 . S
C1377 H1354 0.950 . S
C1377 C1376 1.334 . S
C1377 C1378 1.287 . S
C1378 C1377 1.287 . S
C1378 C1379 1.524 . S
C1378 H1397 0.913 . S
C1379 H1355 0.950 . S
C1379 C1378 1.524 . S
C1379 C1380 1.415 . S
C1380 H1356 0.950 . S
C1380 C1375 1.363 . S
C1380 C1379 1.415 . S
C1381 H1357 0.951 . S
C1381 C1382 1.363 1_554 S
C1381 C1383 1.388 . S
C1382 C1381 1.363 1_556 S
C1382 C1386 1.390 . S
C1383 H1358 0.951 . S
C1383 C1381 1.388 . S
C1383 C1384 1.366 1_554 S
C1384 C1383 1.366 1_556 S
C1384 C1385 1.414 . S
C1384 C1387 1.499 . S
C1385 H1359 0.950 . S
C1385 C1384 1.414 . S
C1385 C1386 1.374 . S
C1386 H1360 0.950 . S
C1386 C1382 1.390 . S
C1386 C1385 1.374 . S
C1387 C1384 1.499 . S
C1387 C1388 1.373 . S
C1387 C1389 1.342 1_556 S
C1388 H1361 0.950 . S
C1388 C1374 1.377 . S
C1388 C1387 1.373 . S
C1389 C1373 1.361 1_554 S
C1389 C1387 1.342 1_554 S
C1389 C1390 1.593 . S
C1390 C1389 1.593 . S
C1390 C1391 1.397 . S
C1390 C1395 1.363 . S
C1391 H1362 0.950 . S
C1391 C1390 1.397 . S
C1391 C1392 1.334 . S
C1392 H1363 0.950 . S
C1392 C1391 1.334 . S
C1392 C1393 1.287 . S
C1393 C1392 1.287 . S
C1393 C1394 1.524 . S
C1393 H1396 0.999 . S
C1394 H1364 0.950 . S
C1394 C1393 1.524 . S
C1394 C1395 1.415 . S
C1395 H1365 0.950 . S
C1395 C1390 1.363 . S
C1395 C1394 1.415 . S
H1396 C1393 0.999 . S
H1397 C1378 0.913 . S
H1398 C1416 0.951 . S
H1399 C1418 0.951 . S
H1400 C1420 0.950 . S
H1401 C1421 0.950 . S
H1402 C1423 0.950 . S
H1403 C1426 0.950 . S
H1404 C1427 0.950 . S
H1405 C1429 0.950 . S
H1406 C1430 0.950 . S
H1407 C1431 0.951 . S
H1408 C1433 0.967 . S
H1409 C1435 0.950 . S
H1410 C1436 0.950 . S
H1411 C1438 0.950 . S
H1412 C1441 0.950 . S
H1413 C1442 0.950 . S
H1414 C1444 0.950 . S
H1415 C1445 0.950 . S
C1416 H1398 0.951 . S
C1416 C1417 1.366 . S
C1416 C1418 1.388 . S
C1417 C1416 1.366 . S
C1417 C1421 1.385 . S
C1418 H1399 0.951 . S
C1418 C1416 1.388 . S
C1418 C1419 1.366 . S
C1419 C1418 1.366 . S
C1419 C1420 1.414 . S
C1419 C1422 1.499 . S
C1420 H1400 0.950 . S
C1420 C1419 1.414 . S
C1420 C1421 1.374 . S
C1421 H1401 0.950 . S
C1421 C1417 1.385 . S
C1421 C1420 1.374 . S
C1422 C1419 1.499 . S
C1422 C1423 1.373 . S
C1422 C1424 1.389 . S
C1423 H1402 0.950 . S
C1423 C1422 1.373 . S
C1423 C1439 1.377 . S
C1424 C1422 1.389 . S
C1424 C1425 1.524 . S
C1424 C1438 1.377 . S
C1425 C1424 1.524 . S
C1425 C1426 1.397 1_556 S
C1425 C1430 1.363 . S
C1426 H1403 0.950 . S
C1426 C1425 1.397 1_554 S
C1426 C1427 1.334 . S
C1427 H1404 0.950 . S
C1427 C1426 1.334 . S
C1427 C1428 1.287 . S
C1428 C1427 1.287 . S
C1428 C1429 1.524 1_554 S
C1428 H1447 0.913 . S
C1429 H1405 0.950 . S
C1429 C1428 1.524 1_556 S
C1429 C1430 1.415 . S
C1430 H1406 0.950 . S
C1430 C1425 1.363 . S
C1430 C1429 1.415 . S
C1431 H1407 0.951 . S
C1431 C1432 1.366 1_554 S
C1431 C1433 1.398 . S
C1432 C1431 1.366 1_556 S
C1432 C1436 1.385 . S
C1433 H1408 0.967 . S
C1433 C1431 1.398 . S
C1433 C1434 1.341 1_554 S
C1434 C1433 1.341 1_556 S
C1434 C1435 1.414 . S
C1434 C1437 1.499 . S
C1435 H1409 0.950 . S
C1435 C1434 1.414 . S
C1435 C1436 1.374 . S
C1436 H1410 0.950 . S
C1436 C1432 1.385 . S
C1436 C1435 1.374 . S
C1437 C1434 1.499 . S
C1437 C1438 1.373 . S
C1437 C1439 1.389 . S
C1438 H1411 0.950 . S
C1438 C1424 1.377 . S
C1438 C1437 1.373 . S
C1439 C1423 1.377 . S
C1439 C1437 1.389 . S
C1439 C1440 1.524 . S
C1440 C1439 1.524 . S
C1440 C1441 1.397 . S
C1440 C1445 1.363 . S
C1441 H1412 0.950 . S
C1441 C1440 1.397 . S
C1441 C1442 1.334 . S
C1442 H1413 0.950 . S
C1442 C1441 1.334 . S
C1442 C1443 1.287 . S
C1443 C1442 1.287 . S
C1443 C1444 1.524 . S
C1443 H1446 0.999 . S
C1444 H1414 0.950 . S
C1444 C1443 1.524 . S
C1444 C1445 1.415 . S
C1445 H1415 0.950 . S
C1445 C1440 1.363 . S
C1445 C1444 1.415 . S
H1446 C1443 0.999 . S
H1447 C1428 0.913 . S
H1448 C1466 0.951 . S
H1449 C1468 0.951 . S
H1450 C1470 0.950 . S
H1451 C1471 0.950 . S
H1452 C1473 0.950 . S
H1453 C1476 0.950 . S
H1454 C1477 0.950 . S
H1455 C1479 0.950 . S
H1456 C1480 0.950 . S
H1457 C1481 0.951 . S
H1458 C1483 0.951 . S
H1459 C1485 0.978 . S
H1460 C1486 0.950 . S
H1461 C1488 0.950 . S
H1462 C1491 0.950 . S
H1463 C1492 0.950 . S
H1464 C1494 0.950 . S
H1465 C1495 0.950 . S
C1466 H1448 0.951 . S
C1466 C1467 1.366 . S
C1466 C1468 1.388 . S
C1467 C1466 1.366 . S
C1467 C1471 1.385 . S
C1468 H1449 0.951 . S
C1468 C1466 1.388 . S
C1468 C1469 1.366 . S
C1469 C1468 1.366 . S
C1469 C1470 1.414 . S
C1469 C1472 1.499 . S
C1470 H1450 0.950 . S
C1470 C1469 1.414 . S
C1470 C1471 1.374 . S
C1471 H1451 0.950 . S
C1471 C1467 1.385 . S
C1471 C1470 1.374 . S
C1472 C1469 1.499 . S
C1472 C1473 1.373 . S
C1472 C1474 1.389 . S
C1473 H1452 0.950 . S
C1473 C1472 1.373 . S
C1473 C1489 1.377 . S
C1474 C1472 1.389 . S
C1474 C1475 1.524 . S
C1474 C1488 1.377 . S
C1475 C1474 1.524 . S
C1475 C1476 1.397 . S
C1475 C1480 1.363 . S
C1476 H1453 0.950 . S
C1476 C1475 1.397 . S
C1476 C1477 1.334 . S
C1477 H1454 0.950 . S
C1477 C1476 1.334 . S
C1477 C1478 1.287 . S
C1478 C1477 1.287 . S
C1478 C1479 1.524 . S
C1478 H1497 0.913 . S
C1479 H1455 0.950 . S
C1479 C1478 1.524 . S
C1479 C1480 1.415 . S
C1480 H1456 0.950 . S
C1480 C1475 1.363 . S
C1480 C1479 1.415 . S
C1481 H1457 0.951 . S
C1481 C1482 1.366 . S
C1481 C1483 1.388 . S
C1482 C1481 1.366 . S
C1482 C1486 1.385 1_556 S
C1483 H1458 0.951 . S
C1483 C1481 1.388 . S
C1483 C1484 1.366 . S
C1484 C1483 1.366 . S
C1484 C1485 1.378 1_556 S
C1484 C1487 1.499 . S
C1485 H1459 0.978 . S
C1485 C1484 1.378 1_554 S
C1485 C1486 1.387 . S
C1486 H1460 0.950 . S
C1486 C1482 1.385 1_554 S
C1486 C1485 1.387 . S
C1487 C1484 1.499 . S
C1487 C1488 1.373 . S
C1487 C1489 1.389 . S
C1488 H1461 0.950 . S
C1488 C1474 1.377 . S
C1488 C1487 1.373 . S
C1489 C1473 1.377 . S
C1489 C1487 1.389 . S
C1489 C1490 1.524 . S
C1490 C1489 1.524 . S
C1490 C1491 1.397 1_556 S
C1490 C1495 1.363 . S
C1491 H1462 0.950 . S
C1491 C1490 1.397 1_554 S
C1491 C1492 1.334 . S
C1492 H1463 0.950 . S
C1492 C1491 1.334 . S
C1492 C1493 1.287 . S
C1493 C1492 1.287 . S
C1493 C1494 1.524 1_554 S
C1493 H1496 0.999 . S
C1494 H1464 0.950 . S
C1494 C1493 1.524 1_556 S
C1494 C1495 1.415 . S
C1495 H1465 0.950 . S
C1495 C1490 1.363 . S
C1495 C1494 1.415 . S
H1496 C1493 0.999 . S
H1497 C1478 0.913 . S
H1498 C1516 0.951 . S
H1499 C1518 0.951 . S
H1500 C1520 0.950 1_554 S
H1501 C1521 0.950 1_554 S
H1502 C1523 0.950 . S
H1503 C1526 0.950 . S
H1504 C1527 0.950 . S
H1505 C1529 0.950 . S
H1506 C1530 0.950 . S
H1507 C1531 0.951 . S
H1508 C1533 0.951 . S
H1509 C1535 0.950 . S
H1510 C1536 0.950 . S
H1511 C1538 0.950 . S
H1512 C1541 0.950 . S
H1513 C1542 0.950 . S
H1514 C1544 0.950 . S
H1515 C1545 0.950 . S
C1516 H1498 0.951 . S
C1516 C1517 1.366 . S
C1516 C1518 1.388 . S
C1517 C1516 1.366 . S
C1517 C1521 1.385 . S
C1518 H1499 0.951 . S
C1518 C1516 1.388 . S
C1518 C1519 1.366 . S
C1519 C1518 1.366 . S
C1519 C1520 1.414 . S
C1519 C1522 1.499 . S
C1520 H1500 0.950 1_556 S
C1520 C1519 1.414 . S
C1520 C1521 1.374 . S
C1521 H1501 0.950 1_556 S
C1521 C1517 1.385 . S
C1521 C1520 1.374 . S
C1522 C1519 1.499 . S
C1522 C1523 1.373 1_556 S
C1522 C1524 1.389 . S
C1523 H1502 0.950 . S
C1523 C1522 1.373 1_554 S
C1523 C1539 1.377 . S
C1524 C1522 1.389 . S
C1524 C1525 1.524 . S
C1524 C1538 1.377 . S
C1525 C1524 1.524 . S
C1525 C1526 1.397 . S
C1525 C1530 1.363 . S
C1526 H1503 0.950 . S
C1526 C1525 1.397 . S
C1526 C1527 1.334 . S
C1527 H1504 0.950 . S
C1527 C1526 1.334 . S
C1527 C1528 1.287 . S
C1528 C1527 1.287 . S
C1528 C1529 1.524 . S
C1528 H1547 0.913 . S
C1529 H1505 0.950 . S
C1529 C1528 1.524 . S
C1529 C1530 1.415 . S
C1530 H1506 0.950 . S
C1530 C1525 1.363 . S
C1530 C1529 1.415 . S
C1531 H1507 0.951 . S
C1531 C1532 1.366 . S
C1531 C1533 1.388 . S
C1532 C1531 1.366 . S
C1532 C1536 1.385 1_554 S
C1533 H1508 0.951 . S
C1533 C1531 1.388 . S
C1533 C1534 1.366 1_554 S
C1534 C1533 1.366 1_556 S
C1534 C1535 1.414 . S
C1534 C1537 1.499 . S
C1535 H1509 0.950 . S
C1535 C1534 1.414 . S
C1535 C1536 1.374 . S
C1536 H1510 0.950 . S
C1536 C1532 1.385 1_556 S
C1536 C1535 1.374 . S
C1537 C1534 1.499 . S
C1537 C1538 1.373 . S
C1537 C1539 1.389 1_556 S
C1538 H1511 0.950 . S
C1538 C1524 1.377 . S
C1538 C1537 1.373 . S
C1539 C1523 1.377 . S
C1539 C1537 1.389 1_554 S
C1539 C1540 1.524 . S
C1540 C1539 1.524 . S
C1540 C1541 1.397 . S
C1540 C1545 1.363 . S
C1541 H1512 0.950 . S
C1541 C1540 1.397 . S
C1541 C1542 1.334 . S
C1542 H1513 0.950 . S
C1542 C1541 1.334 . S
C1542 C1543 1.287 . S
C1543 C1542 1.287 . S
C1543 C1544 1.524 . S
C1543 H1546 0.999 . S
C1544 H1514 0.950 . S
C1544 C1543 1.524 . S
C1544 C1545 1.415 . S
C1545 H1515 0.950 . S
C1545 C1540 1.363 . S
C1545 C1544 1.415 . S
H1546 C1543 0.999 . S
H1547 C1528 0.913 . S
H1548 C1566 0.951 . S
H1549 C1568 0.951 . S
H1550 C1570 0.950 . S
H1551 C1571 0.950 . S
H1552 C1573 0.950 . S
H1553 C1576 0.950 . S
H1554 C1577 0.950 . S
H1555 C1579 0.950 . S
H1556 C1580 0.950 . S
H1557 C1581 0.951 . S
H1558 C1583 0.951 . S
H1559 C1585 0.950 . S
H1560 C1586 0.950 . S
H1561 C1588 0.950 . S
H1562 C1591 0.950 . S
H1563 C1592 0.950 . S
H1564 C1594 0.950 . S
H1565 C1595 0.950 . S
C1566 H1548 0.951 . S
C1566 C1567 1.366 . S
C1566 C1568 1.388 . S
C1567 C1566 1.366 . S
C1567 C1571 1.385 . S
C1568 H1549 0.951 . S
C1568 C1566 1.388 . S
C1568 C1569 1.366 . S
C1569 C1568 1.366 . S
C1569 C1570 1.414 . S
C1569 C1572 1.499 . S
C1570 H1550 0.950 . S
C1570 C1569 1.414 . S
C1570 C1571 1.374 . S
C1571 H1551 0.950 . S
C1571 C1567 1.385 . S
C1571 C1570 1.374 . S
C1572 C1569 1.499 . S
C1572 C1573 1.373 . S
C1572 C1574 1.389 . S
C1573 H1552 0.950 . S
C1573 C1572 1.373 . S
C1573 C1589 1.377 . S
C1574 C1572 1.389 . S
C1574 C1575 1.524 . S
C1574 C1588 1.377 . S
C1575 C1574 1.524 . S
C1575 C1576 1.397 . S
C1575 C1580 1.363 . S
C1576 H1553 0.950 . S
C1576 C1575 1.397 . S
C1576 C1577 1.334 1_554 S
C1577 H1554 0.950 . S
C1577 C1576 1.334 1_556 S
C1577 C1578 1.287 1_556 S
C1578 C1577 1.287 1_554 S
C1578 C1579 1.524 . S
C1578 H1597 0.913 1_554 S
C1579 H1555 0.950 . S
C1579 C1578 1.524 . S
C1579 C1580 1.415 . S
C1580 H1556 0.950 . S
C1580 C1575 1.363 . S
C1580 C1579 1.415 . S
C1581 H1557 0.951 . S
C1581 C1582 1.366 . S
C1581 C1583 1.388 . S
C1582 C1581 1.366 . S
C1582 C1586 1.385 . S
C1583 H1558 0.951 . S
C1583 C1581 1.388 . S
C1583 C1584 1.366 . S
C1584 C1583 1.366 . S
C1584 C1585 1.414 . S
C1584 C1587 1.499 . S
C1585 H1559 0.950 . S
C1585 C1584 1.414 . S
C1585 C1586 1.374 . S
C1586 H1560 0.950 . S
C1586 C1582 1.385 . S
C1586 C1585 1.374 . S
C1587 C1584 1.499 . S
C1587 C1588 1.373 . S
C1587 C1589 1.389 . S
C1588 H1561 0.950 . S
C1588 C1574 1.377 . S
C1588 C1587 1.373 . S
C1589 C1573 1.377 . S
C1589 C1587 1.389 . S
C1589 C1590 1.524 . S
C1590 C1589 1.524 . S
C1590 C1591 1.397 . S
C1590 C1595 1.363 . S
C1591 H1562 0.950 . S
C1591 C1590 1.397 . S
C1591 C1592 1.334 . S
C1592 H1563 0.950 . S
C1592 C1591 1.334 . S
C1592 C1593 1.287 . S
C1593 C1592 1.287 . S
C1593 C1594 1.524 . S
C1593 H1596 0.999 . S
C1594 H1564 0.950 . S
C1594 C1593 1.524 . S
C1594 C1595 1.415 . S
C1595 H1565 0.950 . S
C1595 C1590 1.363 . S
C1595 C1594 1.415 . S
H1596 C1593 0.999 . S
H1597 C1578 0.913 1_556 S
H1598 C1616 0.951 . S
H1599 C1618 0.951 . S
H1600 C1620 0.950 . S
H1601 C1621 0.950 . S
H1602 C1623 0.950 . S
H1603 C1626 0.950 . S
H1604 C1627 0.977 . S
H1605 C1629 0.950 . S
H1606 C1630 0.950 . S
H1607 C1631 0.951 . S
H1608 C1633 0.951 . S
H1609 C1635 0.950 . S
H1610 C1636 0.950 . S
H1611 C1638 0.950 . S
H1612 C1641 0.950 . S
H1613 C1642 0.950 . S
H1614 C1644 0.950 . S
H1615 C1645 0.950 . S
C1616 H1598 0.951 . S
C1616 C1617 1.366 . S
C1616 C1618 1.388 . S
C1617 C1616 1.366 . S
C1617 C1621 1.385 . S
C1618 H1599 0.951 . S
C1618 C1616 1.388 . S
C1618 C1619 1.366 . S
C1619 C1618 1.366 . S
C1619 C1620 1.414 . S
C1619 C1622 1.499 . S
C1620 H1600 0.950 . S
C1620 C1619 1.414 . S
C1620 C1621 1.374 . S
C1621 H1601 0.950 . S
C1621 C1617 1.385 . S
C1621 C1620 1.374 . S
C1622 C1619 1.499 . S
C1622 C1623 1.373 . S
C1622 C1624 1.389 . S
C1623 H1602 0.950 . S
C1623 C1622 1.373 . S
C1623 C1639 1.377 . S
C1624 C1622 1.389 . S
C1624 C1625 1.524 . S
C1624 C1638 1.377 . S
C1625 C1624 1.524 . S
C1625 C1626 1.397 . S
C1625 C1630 1.363 . S
C1626 H1603 0.950 . S
C1626 C1625 1.397 . S
C1626 C1627 1.310 1_554 S
C1627 H1604 0.977 . S
C1627 C1626 1.310 1_556 S
C1627 C1628 1.286 1_556 S
C1628 C1627 1.286 1_554 S
C1628 C1629 1.522 . S
C1628 H1647 0.915 1_554 S
C1629 H1605 0.950 . S
C1629 C1628 1.522 . S
C1629 C1630 1.415 . S
C1630 H1606 0.950 . S
C1630 C1625 1.363 . S
C1630 C1629 1.415 . S
C1631 H1607 0.951 . S
C1631 C1632 1.366 . S
C1631 C1633 1.388 . S
C1632 C1631 1.366 . S
C1632 C1636 1.385 . S
C1633 H1608 0.951 . S
C1633 C1631 1.388 . S
C1633 C1634 1.366 . S
C1634 C1633 1.366 . S
C1634 C1635 1.414 . S
C1634 C1637 1.499 . S
C1635 H1609 0.950 . S
C1635 C1634 1.414 . S
C1635 C1636 1.374 . S
C1636 H1610 0.950 . S
C1636 C1632 1.385 . S
C1636 C1635 1.374 . S
C1637 C1634 1.499 . S
C1637 C1638 1.373 . S
C1637 C1639 1.389 . S
C1638 H1611 0.950 . S
C1638 C1624 1.377 . S
C1638 C1637 1.373 . S
C1639 C1623 1.377 . S
C1639 C1637 1.389 . S
C1639 C1640 1.524 . S
C1640 C1639 1.524 . S
C1640 C1641 1.397 . S
C1640 C1645 1.363 . S
C1641 H1612 0.950 . S
C1641 C1640 1.397 . S
C1641 C1642 1.334 . S
C1642 H1613 0.950 . S
C1642 C1641 1.334 . S
C1642 C1643 1.287 . S
C1643 C1642 1.287 . S
C1643 C1644 1.524 . S
C1643 H1646 0.999 . S
C1644 H1614 0.950 . S
C1644 C1643 1.524 . S
C1644 C1645 1.415 . S
C1645 H1615 0.950 . S
C1645 C1640 1.363 . S
C1645 C1644 1.415 . S
H1646 C1643 0.999 . S
H1647 C1628 0.915 1_556 S
H1648 C1666 0.951 . S
H1649 C1668 0.951 . S
H1650 C1670 0.950 . S
H1651 C1671 0.950 . S
H1652 C1673 0.950 . S
H1653 C1676 0.950 . S
H1654 C1677 0.950 . S
H1655 C1679 0.950 . S
H1656 C1680 0.950 . S
H1657 C1681 0.951 . S
H1658 C1683 0.951 . S
H1659 C1685 0.950 . S
H1660 C1686 0.950 . S
H1661 C1688 0.950 . S
H1662 C1691 0.950 . S
H1663 C1692 0.950 . S
H1664 C1694 0.950 . S
H1665 C1695 0.950 . S
C1666 H1648 0.951 . S
C1666 C1667 1.366 . S
C1666 C1668 1.388 . S
C1667 C1666 1.366 . S
C1667 C1671 1.385 . S
C1668 H1649 0.951 . S
C1668 C1666 1.388 . S
C1668 C1669 1.366 . S
C1669 C1668 1.366 . S
C1669 C1670 1.414 . S
C1669 C1672 1.499 . S
C1670 H1650 0.950 . S
C1670 C1669 1.414 . S
C1670 C1671 1.374 . S
C1671 H1651 0.950 . S
C1671 C1667 1.385 . S
C1671 C1670 1.374 . S
C1672 C1669 1.499 . S
C1672 C1673 1.373 . S
C1672 C1674 1.389 . S
C1673 H1652 0.950 . S
C1673 C1672 1.373 . S
C1673 C1689 1.377 . S
C1674 C1672 1.389 . S
C1674 C1675 1.524 . S
C1674 C1688 1.377 . S
C1675 C1674 1.524 . S
C1675 C1676 1.397 . S
C1675 C1680 1.363 . S
C1676 H1653 0.950 . S
C1676 C1675 1.397 . S
C1676 C1677 1.334 . S
C1677 H1654 0.950 . S
C1677 C1676 1.334 . S
C1677 C1678 1.287 . S
C1678 C1677 1.287 . S
C1678 C1679 1.524 . S
C1678 H1697 0.913 . S
C1679 H1655 0.950 . S
C1679 C1678 1.524 . S
C1679 C1680 1.415 . S
C1680 H1656 0.950 . S
C1680 C1675 1.363 . S
C1680 C1679 1.415 . S
C1681 H1657 0.951 . S
C1681 C1682 1.366 . S
C1681 C1683 1.388 . S
C1682 C1681 1.366 . S
C1682 C1686 1.385 . S
C1683 H1658 0.951 . S
C1683 C1681 1.388 . S
C1683 C1684 1.366 . S
C1684 C1683 1.366 . S
C1684 C1685 1.414 . S
C1684 C1687 1.499 . S
C1685 H1659 0.950 . S
C1685 C1684 1.414 . S
C1685 C1686 1.374 . S
C1686 H1660 0.950 . S
C1686 C1682 1.385 . S
C1686 C1685 1.374 . S
C1687 C1684 1.499 . S
C1687 C1688 1.373 . S
C1687 C1689 1.389 . S
C1688 H1661 0.950 . S
C1688 C1674 1.377 . S
C1688 C1687 1.373 . S
C1689 C1673 1.377 . S
C1689 C1687 1.389 . S
C1689 C1690 1.524 . S
C1690 C1689 1.524 . S
C1690 C1691 1.397 1_554 S
C1690 C1695 1.363 . S
C1691 H1662 0.950 . S
C1691 C1690 1.397 1_556 S
C1691 C1692 1.334 . S
C1692 H1663 0.950 . S
C1692 C1691 1.334 . S
C1692 C1693 1.287 . S
C1693 C1692 1.287 . S
C1693 C1694 1.524 1_556 S
C1693 H1696 0.999 . S
C1694 H1664 0.950 . S
C1694 C1693 1.524 1_554 S
C1694 C1695 1.415 . S
C1695 H1665 0.950 . S
C1695 C1690 1.363 . S
C1695 C1694 1.415 . S
H1696 C1693 0.999 . S
H1697 C1678 0.913 . S
H1698 C1716 0.951 . S
H1699 C1718 0.951 . S
H1700 C1720 0.950 . S
H1701 C1721 0.950 . S
H1702 C1723 0.950 . S
H1703 C1726 0.950 . S
H1704 C1727 0.950 . S
H1705 C1729 0.950 . S
H1706 C1730 0.950 . S
H1707 C1731 0.951 . S
H1708 C1733 0.951 . S
H1709 C1735 0.950 . S
H1710 C1736 0.950 . S
H1711 C1738 0.950 . S
H1712 C1741 0.950 . S
H1713 C1742 0.950 . S
H1714 C1744 0.950 . S
H1715 C1745 0.950 . S
C1716 H1698 0.951 . S
C1716 C1717 1.366 . S
C1716 C1718 1.388 . S
C1717 C1716 1.366 . S
C1717 C1721 1.385 . S
C1718 H1699 0.951 . S
C1718 C1716 1.388 . S
C1718 C1719 1.366 . S
C1719 C1718 1.366 . S
C1719 C1720 1.414 . S
C1719 C1722 1.499 . S
C1720 H1700 0.950 . S
C1720 C1719 1.414 . S
C1720 C1721 1.374 . S
C1721 H1701 0.950 . S
C1721 C1717 1.385 . S
C1721 C1720 1.374 . S
C1722 C1719 1.499 . S
C1722 C1723 1.373 1_655 S
C1722 C1724 1.389 . S
C1723 H1702 0.950 . S
C1723 C1722 1.373 1_455 S
C1723 C1739 1.377 . S
C1724 C1722 1.389 . S
C1724 C1725 1.524 . S
C1724 C1738 1.377 1_655 S
C1725 C1724 1.524 . S
C1725 C1726 1.397 . S
C1725 C1730 1.363 . S
C1726 H1703 0.950 . S
C1726 C1725 1.397 . S
C1726 C1727 1.334 . S
C1727 H1704 0.950 . S
C1727 C1726 1.334 . S
C1727 C1728 1.287 . S
C1728 C1727 1.287 . S
C1728 C1729 1.524 . S
C1728 H1747 0.913 . S
C1729 H1705 0.950 . S
C1729 C1728 1.524 . S
C1729 C1730 1.415 . S
C1730 H1706 0.950 . S
C1730 C1725 1.363 . S
C1730 C1729 1.415 . S
C1731 H1707 0.951 . S
C1731 C1732 1.366 . S
C1731 C1733 1.388 . S
C1732 C1731 1.366 . S
C1732 C1736 1.385 . S
C1733 H1708 0.951 . S
C1733 C1731 1.388 . S
C1733 C1734 1.366 . S
C1734 C1733 1.366 . S
C1734 C1735 1.414 . S
C1734 C1737 1.499 . S
C1735 H1709 0.950 . S
C1735 C1734 1.414 . S
C1735 C1736 1.374 . S
C1736 H1710 0.950 . S
C1736 C1732 1.385 . S
C1736 C1735 1.374 . S
C1737 C1734 1.499 . S
C1737 C1738 1.373 . S
C1737 C1739 1.389 . S
C1738 H1711 0.950 . S
C1738 C1724 1.377 1_455 S
C1738 C1737 1.373 . S
C1739 C1723 1.377 . S
C1739 C1737 1.389 . S
C1739 C1740 1.524 . S
C1740 C1739 1.524 . S
C1740 C1741 1.397 . S
C1740 C1745 1.363 . S
C1741 H1712 0.950 . S
C1741 C1740 1.397 . S
C1741 C1742 1.334 . S
C1742 H1713 0.950 . S
C1742 C1741 1.334 . S
C1742 C1743 1.287 . S
C1743 C1742 1.287 . S
C1743 C1744 1.524 . S
C1743 H1746 0.999 . S
C1744 H1714 0.950 . S
C1744 C1743 1.524 . S
C1744 C1745 1.415 . S
C1745 H1715 0.950 . S
C1745 C1740 1.363 . S
C1745 C1744 1.415 . S
H1746 C1743 0.999 . S
H1747 C1728 0.913 . S
H1748 C1766 0.951 . S
H1749 C1768 0.951 . S
H1750 C1770 0.950 . S
H1751 C1771 0.950 . S
H1752 C1773 0.950 . S
H1753 C1776 0.950 . S
H1754 C1777 0.950 . S
H1755 C1779 0.950 . S
H1756 C1780 0.950 . S
H1757 C1781 0.951 . S
H1758 C1783 0.951 . S
H1759 C1785 0.950 . S
H1760 C1786 0.950 . S
H1761 C1788 0.950 . S
H1762 C1791 0.950 . S
H1763 C1792 0.950 . S
H1764 C1794 0.950 . S
H1765 C1795 0.950 . S
C1766 H1748 0.951 . S
C1766 C1767 1.366 . S
C1766 C1768 1.388 . S
C1767 C1766 1.366 . S
C1767 C1771 1.385 . S
C1768 H1749 0.951 . S
C1768 C1766 1.388 . S
C1768 C1769 1.366 . S
C1769 C1768 1.366 . S
C1769 C1770 1.414 . S
C1769 C1772 1.499 . S
C1770 H1750 0.950 . S
C1770 C1769 1.414 . S
C1770 C1771 1.374 . S
C1771 H1751 0.950 . S
C1771 C1767 1.385 . S
C1771 C1770 1.374 . S
C1772 C1769 1.499 . S
C1772 C1773 1.373 . S
C1772 C1774 1.389 . S
C1773 H1752 0.950 . S
C1773 C1772 1.373 . S
C1773 C1789 1.377 . S
C1774 C1772 1.389 . S
C1774 C1775 1.524 . S
C1774 C1788 1.377 . S
C1775 C1774 1.524 . S
C1775 C1776 1.397 . S
C1775 C1780 1.363 . S
C1776 H1753 0.950 . S
C1776 C1775 1.397 . S
C1776 C1777 1.334 . S
C1777 H1754 0.950 . S
C1777 C1776 1.334 . S
C1777 C1778 1.287 . S
C1778 C1777 1.287 . S
C1778 C1779 1.524 . S
C1778 H1797 0.913 . S
C1779 H1755 0.950 . S
C1779 C1778 1.524 . S
C1779 C1780 1.415 . S
C1780 H1756 0.950 . S
C1780 C1775 1.363 . S
C1780 C1779 1.415 . S
C1781 H1757 0.951 . S
C1781 C1782 1.366 . S
C1781 C1783 1.388 . S
C1782 C1781 1.366 . S
C1782 C1786 1.385 . S
C1783 H1758 0.951 . S
C1783 C1781 1.388 . S
C1783 C1784 1.366 . S
C1784 C1783 1.366 . S
C1784 C1785 1.414 . S
C1784 C1787 1.499 . S
C1785 H1759 0.950 . S
C1785 C1784 1.414 . S
C1785 C1786 1.374 . S
C1786 H1760 0.950 . S
C1786 C1782 1.385 . S
C1786 C1785 1.374 . S
C1787 C1784 1.499 . S
C1787 C1788 1.373 . S
C1787 C1789 1.389 . S
C1788 H1761 0.950 . S
C1788 C1774 1.377 . S
C1788 C1787 1.373 . S
C1789 C1773 1.377 . S
C1789 C1787 1.389 . S
C1789 C1790 1.524 . S
C1790 C1789 1.524 . S
C1790 C1791 1.397 . S
C1790 C1795 1.363 . S
C1791 H1762 0.950 . S
C1791 C1790 1.397 . S
C1791 C1792 1.334 . S
C1792 H1763 0.950 . S
C1792 C1791 1.334 . S
C1792 C1793 1.287 . S
C1793 C1792 1.287 . S
C1793 C1794 1.524 . S
C1793 H1796 0.999 . S
C1794 H1764 0.950 . S
C1794 C1793 1.524 . S
C1794 C1795 1.415 . S
C1795 H1765 0.950 . S
C1795 C1790 1.363 . S
C1795 C1794 1.415 . S
H1796 C1793 0.999 . S
H1797 C1778 0.913 . S
H1798 C1816 0.951 . S
H1799 C1818 0.951 . S
H1800 C1820 0.950 . S
H1801 C1821 0.950 . S
H1802 C1823 0.950 . S
H1803 C1826 0.950 . S
H1804 C1827 0.950 . S
H1805 C1829 0.950 . S
H1806 C1830 0.950 . S
H1807 C1831 0.951 . S
H1808 C1833 0.951 . S
H1809 C1835 0.950 . S
H1810 C1836 0.950 . S
H1811 C1838 0.950 . S
H1812 C1841 0.950 . S
H1813 C1842 0.950 . S
H1814 C1844 0.950 . S
H1815 C1845 0.950 . S
C1816 H1798 0.951 . S
C1816 C1817 1.366 . S
C1816 C1818 1.388 . S
C1817 C1816 1.366 . S
C1817 C1821 1.385 . S
C1818 H1799 0.951 . S
C1818 C1816 1.388 . S
C1818 C1819 1.366 . S
C1819 C1818 1.366 . S
C1819 C1820 1.414 . S
C1819 C1822 1.499 . S
C1820 H1800 0.950 . S
C1820 C1819 1.414 . S
C1820 C1821 1.374 . S
C1821 H1801 0.950 . S
C1821 C1817 1.385 . S
C1821 C1820 1.374 . S
C1822 C1819 1.499 . S
C1822 C1823 1.373 . S
C1822 C1824 1.389 . S
C1823 H1802 0.950 . S
C1823 C1822 1.373 . S
C1823 C1839 1.377 . S
C1824 C1822 1.389 . S
C1824 C1825 1.524 . S
C1824 C1838 1.377 1_545 S
C1825 C1824 1.524 . S
C1825 C1826 1.397 . S
C1825 C1830 1.363 1_545 S
C1826 H1803 0.950 . S
C1826 C1825 1.397 . S
C1826 C1827 1.334 . S
C1827 H1804 0.950 . S
C1827 C1826 1.334 . S
C1827 C1828 1.287 . S
C1828 C1827 1.287 . S
C1828 C1829 1.524 1_545 S
C1828 H1847 0.913 . S
C1829 H1805 0.950 . S
C1829 C1828 1.524 1_565 S
C1829 C1830 1.415 . S
C1830 H1806 0.950 . S
C1830 C1825 1.363 1_565 S
C1830 C1829 1.415 . S
C1831 H1807 0.951 . S
C1831 C1832 1.366 . S
C1831 C1833 1.388 . S
C1832 C1831 1.366 . S
C1832 C1836 1.385 . S
C1833 H1808 0.951 . S
C1833 C1831 1.388 . S
C1833 C1834 1.366 . S
C1834 C1833 1.366 . S
C1834 C1835 1.414 . S
C1834 C1837 1.499 . S
C1835 H1809 0.950 . S
C1835 C1834 1.414 . S
C1835 C1836 1.374 . S
C1836 H1810 0.950 . S
C1836 C1832 1.385 . S
C1836 C1835 1.374 . S
C1837 C1834 1.499 . S
C1837 C1838 1.373 . S
C1837 C1839 1.389 1_565 S
C1838 H1811 0.950 . S
C1838 C1824 1.377 1_565 S
C1838 C1837 1.373 . S
C1839 C1823 1.377 . S
C1839 C1837 1.389 1_545 S
C1839 C1840 1.528 . S
C1840 C1839 1.528 . S
C1840 C1841 1.387 1_545 S
C1840 C1845 1.370 . S
C1841 H1812 0.950 . S
C1841 C1840 1.387 1_565 S
C1841 C1842 1.334 . S
C1842 H1813 0.950 . S
C1842 C1841 1.334 . S
C1842 C1843 1.287 . S
C1843 C1842 1.287 . S
C1843 C1844 1.524 1_565 S
C1843 H1846 0.999 . S
C1844 H1814 0.950 . S
C1844 C1843 1.524 1_545 S
C1844 C1845 1.415 . S
C1845 H1815 0.950 . S
C1845 C1840 1.370 . S
C1845 C1844 1.415 . S
H1846 C1843 0.999 . S
H1847 C1828 0.913 . S
H1848 C1866 0.951 . S
H1849 C1868 0.951 . S
H1850 C1870 0.950 . S
H1851 C1871 0.950 . S
H1852 C1873 0.950 . S
H1853 C1876 0.950 . S
H1854 C1877 0.950 . S
H1855 C1879 0.950 . S
H1856 C1880 0.950 . S
H1857 C1881 0.951 . S
H1858 C1883 0.951 . S
H1859 C1885 0.950 . S
H1860 C1886 0.950 . S
H1861 C1888 0.950 . S
H1862 C1891 0.950 . S
H1863 C1892 0.950 . S
H1864 C1894 0.950 . S
H1865 C1895 0.950 . S
C1866 H1848 0.951 . S
C1866 C1867 1.366 . S
C1866 C1868 1.388 . S
C1867 C1866 1.366 . S
C1867 C1871 1.385 . S
C1868 H1849 0.951 . S
C1868 C1866 1.388 . S
C1868 C1869 1.366 . S
C1869 C1868 1.366 . S
C1869 C1870 1.414 . S
C1869 C1872 1.499 . S
C1870 H1850 0.950 . S
C1870 C1869 1.414 . S
C1870 C1871 1.374 . S
C1871 H1851 0.950 . S
C1871 C1867 1.385 . S
C1871 C1870 1.374 . S
C1872 C1869 1.499 . S
C1872 C1873 1.373 . S
C1872 C1874 1.389 . S
C1873 H1852 0.950 . S
C1873 C1872 1.373 . S
C1873 C1889 1.377 . S
C1874 C1872 1.389 . S
C1874 C1875 1.524 . S
C1874 C1888 1.377 . S
C1875 C1874 1.524 . S
C1875 C1876 1.397 . S
C1875 C1880 1.363 . S
C1876 H1853 0.950 . S
C1876 C1875 1.397 . S
C1876 C1877 1.334 . S
C1877 H1854 0.950 . S
C1877 C1876 1.334 . S
C1877 C1878 1.287 . S
C1878 C1877 1.287 . S
C1878 C1879 1.524 . S
C1878 H1897 0.913 . S
C1879 H1855 0.950 . S
C1879 C1878 1.524 . S
C1879 C1880 1.415 . S
C1880 H1856 0.950 . S
C1880 C1875 1.363 . S
C1880 C1879 1.415 . S
C1881 H1857 0.951 . S
C1881 C1882 1.366 . S
C1881 C1883 1.388 . S
C1882 C1881 1.366 . S
C1882 C1886 1.385 . S
C1883 H1858 0.951 . S
C1883 C1881 1.388 . S
C1883 C1884 1.366 . S
C1884 C1883 1.366 . S
C1884 C1885 1.414 . S
C1884 C1887 1.499 . S
C1885 H1859 0.950 . S
C1885 C1884 1.414 . S
C1885 C1886 1.374 . S
C1886 H1860 0.950 . S
C1886 C1882 1.385 . S
C1886 C1885 1.374 . S
C1887 C1884 1.499 . S
C1887 C1888 1.373 . S
C1887 C1889 1.389 . S
C1888 H1861 0.950 . S
C1888 C1874 1.377 . S
C1888 C1887 1.373 . S
C1889 C1873 1.377 . S
C1889 C1887 1.389 . S
C1889 C1890 1.524 . S
C1890 C1889 1.524 . S
C1890 C1891 1.397 . S
C1890 C1895 1.363 . S
C1891 H1862 0.950 . S
C1891 C1890 1.397 . S
C1891 C1892 1.334 . S
C1892 H1863 0.950 . S
C1892 C1891 1.334 . S
C1892 C1893 1.287 . S
C1893 C1892 1.287 . S
C1893 C1894 1.524 . S
C1893 H1896 0.999 . S
C1894 H1864 0.950 . S
C1894 C1893 1.524 . S
C1894 C1895 1.415 . S
C1895 H1865 0.950 . S
C1895 C1890 1.363 . S
C1895 C1894 1.415 . S
H1896 C1893 0.999 . S
H1897 C1878 0.913 . S
H1898 C1916 0.951 . S
H1899 C1918 0.951 . S
H1900 C1920 0.950 . S
H1901 C1921 0.950 . S
H1902 C1923 0.950 . S
H1903 C1926 0.950 . S
H1904 C1927 0.950 . S
H1905 C1929 0.950 . S
H1906 C1930 0.950 . S
H1907 C1931 0.951 . S
H1908 C1933 0.951 . S
H1909 C1935 0.950 . S
H1910 C1936 0.950 . S
H1911 C1938 0.950 . S
H1912 C1941 0.950 . S
H1913 C1942 0.950 . S
H1914 C1944 0.950 . S
H1915 C1945 0.950 . S
C1916 H1898 0.951 . S
C1916 C1917 1.366 . S
C1916 C1918 1.388 . S
C1917 C1916 1.366 . S
C1917 C1921 1.385 . S
C1918 H1899 0.951 . S
C1918 C1916 1.388 . S
C1918 C1919 1.366 . S
C1919 C1918 1.366 . S
C1919 C1920 1.414 . S
C1919 C1922 1.499 . S
C1920 H1900 0.950 . S
C1920 C1919 1.414 . S
C1920 C1921 1.374 . S
C1921 H1901 0.950 . S
C1921 C1917 1.385 . S
C1921 C1920 1.374 . S
C1922 C1919 1.499 . S
C1922 C1923 1.373 . S
C1922 C1924 1.389 . S
C1923 H1902 0.950 . S
C1923 C1922 1.373 . S
C1923 C1939 1.377 . S
C1924 C1922 1.389 . S
C1924 C1925 1.524 . S
C1924 C1938 1.377 . S
C1925 C1924 1.524 . S
C1925 C1926 1.397 . S
C1925 C1930 1.363 . S
C1926 H1903 0.950 . S
C1926 C1925 1.397 . S
C1926 C1927 1.334 . S
C1927 H1904 0.950 . S
C1927 C1926 1.334 . S
C1927 C1928 1.287 . S
C1928 C1927 1.287 . S
C1928 C1929 1.524 . S
C1928 H1947 0.913 . S
C1929 H1905 0.950 . S
C1929 C1928 1.524 . S
C1929 C1930 1.415 . S
C1930 H1906 0.950 . S
C1930 C1925 1.363 . S
C1930 C1929 1.415 . S
C1931 H1907 0.951 . S
C1931 C1932 1.366 . S
C1931 C1933 1.388 . S
C1932 C1931 1.366 . S
C1932 C1936 1.385 . S
C1933 H1908 0.951 . S
C1933 C1931 1.388 . S
C1933 C1934 1.366 . S
C1934 C1933 1.366 . S
C1934 C1935 1.414 . S
C1934 C1937 1.499 . S
C1935 H1909 0.950 . S
C1935 C1934 1.414 . S
C1935 C1936 1.374 . S
C1936 H1910 0.950 . S
C1936 C1932 1.385 . S
C1936 C1935 1.374 . S
C1937 C1934 1.499 . S
C1937 C1938 1.373 . S
C1937 C1939 1.389 . S
C1938 H1911 0.950 . S
C1938 C1924 1.377 . S
C1938 C1937 1.373 . S
C1939 C1923 1.377 . S
C1939 C1937 1.389 . S
C1939 C1940 1.524 . S
C1940 C1939 1.524 . S
C1940 C1941 1.397 . S
C1940 C1945 1.363 . S
C1941 H1912 0.950 . S
C1941 C1940 1.397 . S
C1941 C1942 1.334 . S
C1942 H1913 0.950 . S
C1942 C1941 1.334 . S
C1942 C1943 1.287 . S
C1943 C1942 1.287 . S
C1943 C1944 1.524 . S
C1943 H1946 0.999 . S
C1944 H1914 0.950 . S
C1944 C1943 1.524 . S
C1944 C1945 1.415 . S
C1945 H1915 0.950 . S
C1945 C1940 1.363 . S
C1945 C1944 1.415 . S
H1946 C1943 0.999 . S
H1947 C1928 0.913 . S
H1948 C1966 0.951 . S
H1949 C1968 0.951 . S
H1950 C1970 0.950 . S
H1951 C1971 0.950 . S
H1952 C1973 0.950 . S
H1953 C1976 0.950 . S
H1954 C1977 0.950 . S
H1955 C1979 0.950 . S
H1956 C1980 0.950 . S
H1957 C1981 0.951 . S
H1958 C1983 0.951 . S
H1959 C1985 0.950 . S
H1960 C1986 0.950 . S
H1961 C1988 0.950 . S
H1962 C1991 0.950 . S
H1963 C1992 0.950 . S
H1964 C1994 0.950 . S
H1965 C1995 0.950 . S
C1966 H1948 0.951 . S
C1966 C1967 1.366 . S
C1966 C1968 1.388 . S
C1967 C1966 1.366 . S
C1967 C1971 1.385 . S
C1968 H1949 0.951 . S
C1968 C1966 1.388 . S
C1968 C1969 1.366 . S
C1969 C1968 1.366 . S
C1969 C1970 1.414 . S
C1969 C1972 1.499 . S
C1970 H1950 0.950 . S
C1970 C1969 1.414 . S
C1970 C1971 1.374 . S
C1971 H1951 0.950 . S
C1971 C1967 1.385 . S
C1971 C1970 1.374 . S
C1972 C1969 1.499 . S
C1972 C1973 1.373 . S
C1972 C1974 1.389 . S
C1973 H1952 0.950 . S
C1973 C1972 1.373 . S
C1973 C1989 1.377 . S
C1974 C1972 1.389 . S
C1974 C1975 1.524 . S
C1974 C1988 1.377 . S
C1975 C1974 1.524 . S
C1975 C1976 1.397 . S
C1975 C1980 1.363 . S
C1976 H1953 0.950 . S
C1976 C1975 1.397 . S
C1976 C1977 1.334 . S
C1977 H1954 0.950 . S
C1977 C1976 1.334 . S
C1977 C1978 1.287 . S
C1978 C1977 1.287 . S
C1978 C1979 1.524 . S
C1978 H1997 0.913 . S
C1979 H1955 0.950 . S
C1979 C1978 1.524 . S
C1979 C1980 1.415 . S
C1980 H1956 0.950 . S
C1980 C1975 1.363 . S
C1980 C1979 1.415 . S
C1981 H1957 0.951 . S
C1981 C1982 1.366 . S
C1981 C1983 1.388 . S
C1982 C1981 1.366 . S
C1982 C1986 1.385 . S
C1983 H1958 0.951 . S
C1983 C1981 1.388 . S
C1983 C1984 1.366 . S
C1984 C1983 1.366 . S
C1984 C1985 1.414 . S
C1984 C1987 1.499 . S
C1985 H1959 0.950 . S
C1985 C1984 1.414 . S
C1985 C1986 1.374 . S
C1986 H1960 0.950 . S
C1986 C1982 1.385 . S
C1986 C1985 1.374 . S
C1987 C1984 1.499 . S
C1987 C1988 1.373 . S
C1987 C1989 1.389 . S
C1988 H1961 0.950 . S
C1988 C1974 1.377 . S
C1988 C1987 1.373 . S
C1989 C1973 1.377 . S
C1989 C1987 1.389 . S
C1989 C1990 1.524 . S
C1990 C1989 1.524 . S
C1990 C1991 1.397 . S
C1990 C1995 1.363 . S
C1991 H1962 0.950 . S
C1991 C1990 1.397 . S
C1991 C1992 1.334 . S
C1992 H1963 0.950 . S
C1992 C1991 1.334 . S
C1992 C1993 1.287 . S
C1993 C1992 1.287 . S
C1993 C1994 1.524 . S
C1993 H1996 0.999 . S
C1994 H1964 0.950 . S
C1994 C1993 1.524 . S
C1994 C1995 1.415 . S
C1995 H1965 0.950 . S
C1995 C1990 1.363 . S
C1995 C1994 1.415 . S
H1996 C1993 0.999 . S
H1997 C1978 0.913 . S
H1998 C2016 0.951 . S
H1999 C2018 0.951 . S
H2000 C2020 0.950 . S
H2001 C2021 0.950 . S
H2002 C2023 0.950 . S
H2003 C2026 0.950 . S
H2004 C2027 0.950 . S
H2005 C2029 0.950 . S
H2006 C2030 0.950 . S
H2007 C2031 0.951 . S
H2008 C2033 0.951 . S
H2009 C2035 0.950 . S
H2010 C2036 0.950 . S
H2011 C2038 0.950 . S
H2012 C2041 0.950 . S
H2013 C2042 0.950 . S
H2014 C2044 0.950 . S
H2015 C2045 0.950 . S
C2016 H1998 0.951 . S
C2016 C2017 1.366 . S
C2016 C2018 1.388 . S
C2017 C2016 1.366 . S
C2017 C2021 1.385 . S
C2018 H1999 0.951 . S
C2018 C2016 1.388 . S
C2018 C2019 1.366 . S
C2019 C2018 1.366 . S
C2019 C2020 1.414 . S
C2019 C2022 1.499 . S
C2020 H2000 0.950 . S
C2020 C2019 1.414 . S
C2020 C2021 1.374 . S
C2021 H2001 0.950 . S
C2021 C2017 1.385 . S
C2021 C2020 1.374 . S
C2022 C2019 1.499 . S
C2022 C2023 1.373 . S
C2022 C2024 1.389 . S
C2023 H2002 0.950 . S
C2023 C2022 1.373 . S
C2023 C2039 1.377 . S
C2024 C2022 1.389 . S
C2024 C2025 1.524 . S
C2024 C2038 1.377 . S
C2025 C2024 1.524 . S
C2025 C2026 1.397 . S
C2025 C2030 1.363 . S
C2026 H2003 0.950 . S
C2026 C2025 1.397 . S
C2026 C2027 1.334 . S
C2027 H2004 0.950 . S
C2027 C2026 1.334 . S
C2027 C2028 1.287 . S
C2028 C2027 1.287 . S
C2028 C2029 1.524 . S
C2028 H2047 0.913 . S
C2029 H2005 0.950 . S
C2029 C2028 1.524 . S
C2029 C2030 1.415 . S
C2030 H2006 0.950 . S
C2030 C2025 1.363 . S
C2030 C2029 1.415 . S
C2031 H2007 0.951 . S
C2031 C2032 1.366 . S
C2031 C2033 1.388 . S
C2032 C2031 1.366 . S
C2032 C2036 1.385 . S
C2033 H2008 0.951 . S
C2033 C2031 1.388 . S
C2033 C2034 1.366 . S
C2034 C2033 1.366 . S
C2034 C2035 1.414 . S
C2034 C2037 1.499 . S
C2035 H2009 0.950 . S
C2035 C2034 1.414 . S
C2035 C2036 1.374 . S
C2036 H2010 0.950 . S
C2036 C2032 1.385 . S
C2036 C2035 1.374 . S
C2037 C2034 1.499 . S
C2037 C2038 1.373 . S
C2037 C2039 1.389 . S
C2038 H2011 0.950 . S
C2038 C2024 1.377 . S
C2038 C2037 1.373 . S
C2039 C2023 1.377 . S
C2039 C2037 1.389 . S
C2039 C2040 1.524 . S
C2040 C2039 1.524 . S
C2040 C2041 1.397 . S
C2040 C2045 1.363 . S
C2041 H2012 0.950 . S
C2041 C2040 1.397 . S
C2041 C2042 1.334 . S
C2042 H2013 0.950 . S
C2042 C2041 1.334 . S
C2042 C2043 1.287 . S
C2043 C2042 1.287 . S
C2043 C2044 1.524 . S
C2043 H2046 0.999 . S
C2044 H2014 0.950 . S
C2044 C2043 1.524 . S
C2044 C2045 1.415 . S
C2045 H2015 0.950 . S
C2045 C2040 1.363 . S
C2045 C2044 1.415 . S
H2046 C2043 0.999 . S
H2047 C2028 0.913 . S
H2048 C2066 0.951 . S
H2049 C2068 0.951 . S
H2050 C2070 0.950 . S
H2051 C2071 0.950 . S
H2052 C2073 0.950 . S
H2053 C2076 0.950 . S
H2054 C2077 0.950 . S
H2055 C2079 0.950 . S
H2056 C2080 0.950 . S
H2057 C2081 0.951 . S
H2058 C2083 0.951 . S
H2059 C2085 0.950 . S
H2060 C2086 0.950 . S
H2061 C2088 0.950 . S
H2062 C2091 0.950 . S
H2063 C2092 0.950 . S
H2064 C2094 0.950 . S
H2065 C2095 0.950 . S
C2066 H2048 0.951 . S
C2066 C2067 1.366 . S
C2066 C2068 1.388 . S
C2067 C2066 1.366 . S
C2067 C2071 1.385 . S
C2068 H2049 0.951 . S
C2068 C2066 1.388 . S
C2068 C2069 1.366 . S
C2069 C2068 1.366 . S
C2069 C2070 1.414 . S
C2069 C2072 1.499 . S
C2070 H2050 0.950 . S
C2070 C2069 1.414 . S
C2070 C2071 1.374 . S
C2071 H2051 0.950 . S
C2071 C2067 1.385 . S
C2071 C2070 1.374 . S
C2072 C2069 1.499 . S
C2072 C2073 1.373 . S
C2072 C2074 1.389 . S
C2073 H2052 0.950 . S
C2073 C2072 1.373 . S
C2073 C2089 1.377 . S
C2074 C2072 1.389 . S
C2074 C2075 1.524 . S
C2074 C2088 1.377 . S
C2075 C2074 1.524 . S
C2075 C2076 1.397 . S
C2075 C2080 1.363 . S
C2076 H2053 0.950 . S
C2076 C2075 1.397 . S
C2076 C2077 1.334 . S
C2077 H2054 0.950 . S
C2077 C2076 1.334 . S
C2077 C2078 1.287 . S
C2078 C2077 1.287 . S
C2078 C2079 1.524 . S
C2078 H2097 0.913 . S
C2079 H2055 0.950 . S
C2079 C2078 1.524 . S
C2079 C2080 1.415 . S
C2080 H2056 0.950 . S
C2080 C2075 1.363 . S
C2080 C2079 1.415 . S
C2081 H2057 0.951 . S
C2081 C2082 1.366 . S
C2081 C2083 1.388 . S
C2082 C2081 1.366 . S
C2082 C2086 1.385 . S
C2083 H2058 0.951 . S
C2083 C2081 1.388 . S
C2083 C2084 1.366 . S
C2084 C2083 1.366 . S
C2084 C2085 1.414 . S
C2084 C2087 1.499 . S
C2085 H2059 0.950 . S
C2085 C2084 1.414 . S
C2085 C2086 1.374 . S
C2086 H2060 0.950 . S
C2086 C2082 1.385 . S
C2086 C2085 1.374 . S
C2087 C2084 1.499 . S
C2087 C2088 1.373 . S
C2087 C2089 1.389 . S
C2088 H2061 0.950 . S
C2088 C2074 1.377 . S
C2088 C2087 1.373 . S
C2089 C2073 1.377 . S
C2089 C2087 1.389 . S
C2089 C2090 1.524 . S
C2090 C2089 1.524 . S
C2090 C2091 1.397 . S
C2090 C2095 1.363 . S
C2091 H2062 0.950 . S
C2091 C2090 1.397 . S
C2091 C2092 1.334 . S
C2092 H2063 0.950 . S
C2092 C2091 1.334 . S
C2092 C2093 1.287 . S
C2093 C2092 1.287 . S
C2093 C2094 1.524 . S
C2093 H2096 0.999 . S
C2094 H2064 0.950 . S
C2094 C2093 1.524 . S
C2094 C2095 1.415 . S
C2095 H2065 0.950 . S
C2095 C2090 1.363 . S
C2095 C2094 1.415 . S
H2096 C2093 0.999 . S
H2097 C2078 0.913 . S
H2098 C2116 0.951 . S
H2099 C2118 0.951 . S
H2100 C2120 0.950 . S
H2101 C2121 0.950 . S
H2102 C2123 0.950 . S
H2103 C2126 0.950 . S
H2104 C2127 0.950 . S
H2105 C2129 0.950 . S
H2106 C2130 0.950 . S
H2107 C2131 0.951 . S
H2108 C2133 0.951 . S
H2109 C2135 0.950 . S
H2110 C2136 0.950 . S
H2111 C2138 0.950 . S
H2112 C2141 0.950 . S
H2113 C2142 0.950 . S
H2114 C2144 0.950 . S
H2115 C2145 0.950 . S
C2116 H2098 0.951 . S
C2116 C2117 1.366 . S
C2116 C2118 1.388 . S
C2117 C2116 1.366 . S
C2117 C2121 1.385 . S
C2118 H2099 0.951 . S
C2118 C2116 1.388 . S
C2118 C2119 1.366 . S
C2119 C2118 1.366 . S
C2119 C2120 1.414 . S
C2119 C2122 1.499 . S
C2120 H2100 0.950 . S
C2120 C2119 1.414 . S
C2120 C2121 1.374 . S
C2121 H2101 0.950 . S
C2121 C2117 1.385 . S
C2121 C2120 1.374 . S
C2122 C2119 1.499 . S
C2122 C2123 1.373 . S
C2122 C2124 1.389 . S
C2123 H2102 0.950 . S
C2123 C2122 1.373 . S
C2123 C2139 1.377 . S
C2124 C2122 1.389 . S
C2124 C2125 1.524 . S
C2124 C2138 1.377 . S
C2125 C2124 1.524 . S
C2125 C2126 1.397 . S
C2125 C2130 1.363 . S
C2126 H2103 0.950 . S
C2126 C2125 1.397 . S
C2126 C2127 1.334 . S
C2127 H2104 0.950 . S
C2127 C2126 1.334 . S
C2127 C2128 1.287 . S
C2128 C2127 1.287 . S
C2128 C2129 1.524 . S
C2128 H2147 0.913 . S
C2129 H2105 0.950 . S
C2129 C2128 1.524 . S
C2129 C2130 1.415 . S
C2130 H2106 0.950 . S
C2130 C2125 1.363 . S
C2130 C2129 1.415 . S
C2131 H2107 0.951 . S
C2131 C2132 1.366 . S
C2131 C2133 1.388 . S
C2132 C2131 1.366 . S
C2132 C2136 1.385 . S
C2133 H2108 0.951 . S
C2133 C2131 1.388 . S
C2133 C2134 1.366 . S
C2134 C2133 1.366 . S
C2134 C2135 1.414 . S
C2134 C2137 1.499 . S
C2135 H2109 0.950 . S
C2135 C2134 1.414 . S
C2135 C2136 1.374 . S
C2136 H2110 0.950 . S
C2136 C2132 1.385 . S
C2136 C2135 1.374 . S
C2137 C2134 1.499 . S
C2137 C2138 1.373 . S
C2137 C2139 1.389 . S
C2138 H2111 0.950 . S
C2138 C2124 1.377 . S
C2138 C2137 1.373 . S
C2139 C2123 1.377 . S
C2139 C2137 1.389 . S
C2139 C2140 1.524 . S
C2140 C2139 1.524 . S
C2140 C2141 1.397 . S
C2140 C2145 1.363 . S
C2141 H2112 0.950 . S
C2141 C2140 1.397 . S
C2141 C2142 1.334 . S
C2142 H2113 0.950 . S
C2142 C2141 1.334 . S
C2142 C2143 1.287 . S
C2143 C2142 1.287 . S
C2143 C2144 1.524 . S
C2143 H2146 0.999 . S
C2144 H2114 0.950 . S
C2144 C2143 1.524 . S
C2144 C2145 1.415 . S
C2145 H2115 0.950 . S
C2145 C2140 1.363 . S
C2145 C2144 1.415 . S
H2146 C2143 0.999 . S
H2147 C2128 0.913 . S
H2148 C2166 0.951 . S
H2149 C2168 0.951 . S
H2150 C2170 0.950 . S
H2151 C2171 0.950 . S
H2152 C2173 0.950 . S
H2153 C2176 0.950 . S
H2154 C2177 0.945 . S
H2155 C2179 0.950 . S
H2156 C2180 0.950 . S
H2157 C2181 0.951 . S
H2158 C2183 0.951 . S
H2159 C2185 0.950 . S
H2160 C2186 0.950 . S
H2161 C2188 0.950 . S
H2162 C2191 0.950 . S
H2163 C2192 0.950 . S
H2164 C2194 0.950 . S
H2165 C2195 0.950 . S
C2166 H2148 0.951 . S
C2166 C2167 1.366 . S
C2166 C2168 1.388 1_545 S
C2167 C2166 1.366 . S
C2167 C2171 1.385 . S
C2168 H2149 0.951 . S
C2168 C2166 1.388 1_565 S
C2168 C2169 1.366 . S
C2169 C2168 1.366 . S
C2169 C2170 1.414 . S
C2169 C2172 1.499 . S
C2170 H2150 0.950 . S
C2170 C2169 1.414 . S
C2170 C2171 1.374 1_565 S
C2171 H2151 0.950 . S
C2171 C2167 1.385 . S
C2171 C2170 1.374 1_545 S
C2172 C2169 1.499 . S
C2172 C2173 1.373 . S
C2172 C2174 1.389 . S
C2173 H2152 0.950 . S
C2173 C2172 1.373 . S
C2173 C2189 1.377 . S
C2174 C2172 1.389 . S
C2174 C2175 1.524 . S
C2174 C2188 1.377 . S
C2175 C2174 1.524 . S
C2175 C2176 1.397 . S
C2175 C2180 1.363 . S
C2176 H2153 0.950 . S
C2176 C2175 1.397 . S
C2176 C2177 1.334 . S
C2177 H2154 0.945 . S
C2177 C2176 1.334 . S
C2177 C2178 1.287 . S
C2178 C2177 1.287 . S
C2178 C2179 1.524 . S
C2178 H2197 0.913 . S
C2179 H2155 0.950 . S
C2179 C2178 1.524 . S
C2179 C2180 1.415 . S
C2180 H2156 0.950 . S
C2180 C2175 1.363 . S
C2180 C2179 1.415 . S
C2181 H2157 0.951 . S
C2181 C2182 1.366 . S
C2181 C2183 1.388 . S
C2182 C2181 1.366 . S
C2182 C2186 1.385 . S
C2183 H2158 0.951 . S
C2183 C2181 1.388 . S
C2183 C2184 1.366 . S
C2184 C2183 1.366 . S
C2184 C2185 1.414 . S
C2184 C2187 1.499 . S
C2185 H2159 0.950 . S
C2185 C2184 1.414 . S
C2185 C2186 1.374 . S
C2186 H2160 0.950 . S
C2186 C2182 1.385 . S
C2186 C2185 1.374 . S
C2187 C2184 1.499 . S
C2187 C2188 1.373 . S
C2187 C2189 1.389 . S
C2188 H2161 0.950 . S
C2188 C2174 1.377 . S
C2188 C2187 1.373 . S
C2189 C2173 1.377 . S
C2189 C2187 1.389 . S
C2189 C2190 1.524 . S
C2190 C2189 1.524 . S
C2190 C2191 1.397 . S
C2190 C2195 1.363 . S
C2191 H2162 0.950 . S
C2191 C2190 1.397 . S
C2191 C2192 1.334 . S
C2192 H2163 0.950 . S
C2192 C2191 1.334 . S
C2192 C2193 1.287 . S
C2193 C2192 1.287 . S
C2193 C2194 1.524 . S
C2193 H2196 0.999 . S
C2194 H2164 0.950 . S
C2194 C2193 1.524 . S
C2194 C2195 1.415 . S
C2195 H2165 0.950 . S
C2195 C2190 1.363 . S
C2195 C2194 1.415 . S
H2196 C2193 0.999 . S
H2197 C2178 0.913 . S
H2198 C2216 0.951 . S
H2199 C2218 0.951 . S
H2200 C2220 0.950 . S
H2201 C2221 0.950 1_655 S
H2202 C2223 0.950 . S
H2203 C2226 0.950 . S
H2204 C2227 0.950 . S
H2205 C2229 0.950 . S
H2206 C2230 0.950 . S
H2207 C2231 0.951 . S
H2208 C2233 0.951 . S
H2209 C2235 0.950 . S
H2210 C2236 0.950 . S
H2211 C2238 0.950 . S
H2212 C2241 0.950 . S
H2213 C2242 0.950 . S
H2214 C2244 0.950 . S
H2215 C2245 0.950 . S
C2216 H2198 0.951 . S
C2216 C2217 1.366 1_455 S
C2216 C2218 1.388 . S
C2217 C2216 1.366 1_655 S
C2217 C2221 1.385 1_655 S
C2218 H2199 0.951 . S
C2218 C2216 1.388 . S
C2218 C2219 1.366 . S
C2219 C2218 1.366 . S
C2219 C2220 1.414 . S
C2219 C2222 1.499 . S
C2220 H2200 0.950 . S
C2220 C2219 1.414 . S
C2220 C2221 1.374 . S
C2221 H2201 0.950 1_455 S
C2221 C2217 1.385 1_455 S
C2221 C2220 1.374 . S
C2222 C2219 1.499 . S
C2222 C2223 1.373 . S
C2222 C2224 1.389 . S
C2223 H2202 0.950 . S
C2223 C2222 1.373 . S
C2223 C2239 1.377 . S
C2224 C2222 1.389 . S
C2224 C2225 1.524 . S
C2224 C2238 1.377 . S
C2225 C2224 1.524 . S
C2225 C2226 1.397 . S
C2225 C2230 1.363 . S
C2226 H2203 0.950 . S
C2226 C2225 1.397 . S
C2226 C2227 1.334 . S
C2227 H2204 0.950 . S
C2227 C2226 1.334 . S
C2227 C2228 1.287 . S
C2228 C2227 1.287 . S
C2228 C2229 1.524 . S
C2228 H2247 0.913 . S
C2229 H2205 0.950 . S
C2229 C2228 1.524 . S
C2229 C2230 1.415 . S
C2230 H2206 0.950 . S
C2230 C2225 1.363 . S
C2230 C2229 1.415 . S
C2231 H2207 0.951 . S
C2231 C2232 1.366 . S
C2231 C2233 1.388 . S
C2232 C2231 1.366 . S
C2232 C2236 1.385 . S
C2233 H2208 0.951 . S
C2233 C2231 1.388 . S
C2233 C2234 1.366 . S
C2234 C2233 1.366 . S
C2234 C2235 1.414 . S
C2234 C2237 1.499 . S
C2235 H2209 0.950 . S
C2235 C2234 1.414 . S
C2235 C2236 1.374 . S
C2236 H2210 0.950 . S
C2236 C2232 1.385 . S
C2236 C2235 1.374 . S
C2237 C2234 1.499 . S
C2237 C2238 1.373 . S
C2237 C2239 1.389 . S
C2238 H2211 0.950 . S
C2238 C2224 1.377 . S
C2238 C2237 1.373 . S
C2239 C2223 1.377 . S
C2239 C2237 1.389 . S
C2239 C2240 1.524 . S
C2240 C2239 1.524 . S
C2240 C2241 1.397 . S
C2240 C2245 1.363 . S
C2241 H2212 0.950 . S
C2241 C2240 1.397 . S
C2241 C2242 1.334 . S
C2242 H2213 0.950 . S
C2242 C2241 1.334 . S
C2242 C2243 1.287 . S
C2243 C2242 1.287 . S
C2243 C2244 1.524 . S
C2243 H2246 0.999 . S
C2244 H2214 0.950 . S
C2244 C2243 1.524 . S
C2244 C2245 1.415 . S
C2245 H2215 0.950 . S
C2245 C2240 1.363 . S
C2245 C2244 1.415 . S
H2246 C2243 0.999 . S
H2247 C2228 0.913 . S
H2248 C2266 0.951 . S
H2249 C2268 0.951 . S
H2250 C2270 0.950 . S
H2251 C2271 0.950 . S
H2252 C2273 0.950 . S
H2253 C2276 0.950 . S
H2254 C2277 0.950 . S
H2255 C2279 0.950 . S
H2256 C2280 0.950 . S
H2257 C2281 0.951 . S
H2258 C2283 0.951 . S
H2259 C2285 0.950 . S
H2260 C2286 0.950 . S
H2261 C2288 0.950 . S
H2262 C2291 0.950 . S
H2263 C2292 0.950 . S
H2264 C2294 0.950 . S
H2265 C2295 0.950 . S
C2266 H2248 0.951 . S
C2266 C2267 1.366 . S
C2266 C2268 1.388 . S
C2267 C2266 1.366 . S
C2267 C2271 1.385 . S
C2268 H2249 0.951 . S
C2268 C2266 1.388 . S
C2268 C2269 1.366 . S
C2269 C2268 1.366 . S
C2269 C2270 1.414 . S
C2269 C2272 1.499 . S
C2270 H2250 0.950 . S
C2270 C2269 1.414 . S
C2270 C2271 1.374 . S
C2271 H2251 0.950 . S
C2271 C2267 1.385 . S
C2271 C2270 1.374 . S
C2272 C2269 1.499 . S
C2272 C2273 1.373 . S
C2272 C2274 1.389 . S
C2273 H2252 0.950 . S
C2273 C2272 1.373 . S
C2273 C2289 1.377 . S
C2274 C2272 1.389 . S
C2274 C2275 1.524 . S
C2274 C2288 1.377 . S
C2275 C2274 1.524 . S
C2275 C2276 1.397 . S
C2275 C2280 1.363 . S
C2276 H2253 0.950 . S
C2276 C2275 1.397 . S
C2276 C2277 1.334 . S
C2277 H2254 0.950 . S
C2277 C2276 1.334 . S
C2277 C2278 1.287 . S
C2278 C2277 1.287 . S
C2278 C2279 1.524 . S
C2278 H2297 0.913 . S
C2279 H2255 0.950 . S
C2279 C2278 1.524 . S
C2279 C2280 1.415 . S
C2280 H2256 0.950 . S
C2280 C2275 1.363 . S
C2280 C2279 1.415 . S
C2281 H2257 0.951 . S
C2281 C2282 1.366 . S
C2281 C2283 1.388 . S
C2282 C2281 1.366 . S
C2282 C2286 1.385 . S
C2283 H2258 0.951 . S
C2283 C2281 1.388 . S
C2283 C2284 1.366 . S
C2284 C2283 1.366 . S
C2284 C2285 1.414 . S
C2284 C2287 1.499 . S
C2285 H2259 0.950 . S
C2285 C2284 1.414 . S
C2285 C2286 1.374 . S
C2286 H2260 0.950 . S
C2286 C2282 1.385 . S
C2286 C2285 1.374 . S
C2287 C2284 1.499 . S
C2287 C2288 1.373 . S
C2287 C2289 1.389 . S
C2288 H2261 0.950 . S
C2288 C2274 1.377 . S
C2288 C2287 1.373 . S
C2289 C2273 1.377 . S
C2289 C2287 1.389 . S
C2289 C2290 1.524 . S
C2290 C2289 1.524 . S
C2290 C2291 1.397 . S
C2290 C2295 1.363 . S
C2291 H2262 0.950 . S
C2291 C2290 1.397 . S
C2291 C2292 1.334 . S
C2292 H2263 0.950 . S
C2292 C2291 1.334 . S
C2292 C2293 1.287 . S
C2293 C2292 1.287 . S
C2293 C2294 1.524 . S
C2293 H2296 0.999 . S
C2294 H2264 0.950 . S
C2294 C2293 1.524 . S
C2294 C2295 1.415 . S
C2295 H2265 0.950 . S
C2295 C2290 1.363 . S
C2295 C2294 1.415 . S
H2296 C2293 0.999 . S
H2297 C2278 0.913 . S
H2298 C2316 0.951 . S
H2299 C2318 0.951 . S
H2300 C2320 0.950 . S
H2301 C2321 0.950 . S
H2302 C2323 0.950 . S
H2303 C2326 0.950 . S
H2304 C2327 0.950 . S
H2305 C2329 0.950 . S
H2306 C2330 0.950 . S
H2307 C2331 0.951 . S
H2308 C2333 0.951 . S
H2309 C2335 0.950 . S
H2310 C2336 0.950 . S
H2311 C2338 0.950 . S
H2312 C2341 0.950 . S
H2313 C2342 0.950 . S
H2314 C2344 0.950 . S
H2315 C2345 0.950 . S
C2316 H2298 0.951 . S
C2316 C2317 1.366 . S
C2316 C2318 1.388 . S
C2317 C2316 1.366 . S
C2317 C2321 1.385 . S
C2318 H2299 0.951 . S
C2318 C2316 1.388 . S
C2318 C2319 1.366 . S
C2319 C2318 1.366 . S
C2319 C2320 1.414 . S
C2319 C2322 1.499 . S
C2320 H2300 0.950 . S
C2320 C2319 1.414 . S
C2320 C2321 1.374 . S
C2321 H2301 0.950 . S
C2321 C2317 1.385 . S
C2321 C2320 1.374 . S
C2322 C2319 1.499 . S
C2322 C2323 1.373 . S
C2322 C2324 1.389 . S
C2323 H2302 0.950 . S
C2323 C2322 1.373 . S
C2323 C2339 1.377 . S
C2324 C2322 1.389 . S
C2324 C2325 1.524 . S
C2324 C2338 1.377 . S
C2325 C2324 1.524 . S
C2325 C2326 1.397 . S
C2325 C2330 1.363 . S
C2326 H2303 0.950 . S
C2326 C2325 1.397 . S
C2326 C2327 1.334 . S
C2327 H2304 0.950 . S
C2327 C2326 1.334 . S
C2327 C2328 1.287 . S
C2328 C2327 1.287 . S
C2328 C2329 1.524 . S
C2328 H2347 0.913 . S
C2329 H2305 0.950 . S
C2329 C2328 1.524 . S
C2329 C2330 1.415 . S
C2330 H2306 0.950 . S
C2330 C2325 1.363 . S
C2330 C2329 1.415 . S
C2331 H2307 0.951 . S
C2331 C2332 1.366 . S
C2331 C2333 1.388 . S
C2332 C2331 1.366 . S
C2332 C2336 1.385 . S
C2333 H2308 0.951 . S
C2333 C2331 1.388 . S
C2333 C2334 1.366 . S
C2334 C2333 1.366 . S
C2334 C2335 1.414 . S
C2334 C2337 1.499 . S
C2335 H2309 0.950 . S
C2335 C2334 1.414 . S
C2335 C2336 1.374 . S
C2336 H2310 0.950 . S
C2336 C2332 1.385 . S
C2336 C2335 1.374 . S
C2337 C2334 1.499 . S
C2337 C2338 1.373 . S
C2337 C2339 1.389 . S
C2338 H2311 0.950 . S
C2338 C2324 1.377 . S
C2338 C2337 1.373 . S
C2339 C2323 1.377 . S
C2339 C2337 1.389 . S
C2339 C2340 1.524 . S
C2340 C2339 1.524 . S
C2340 C2341 1.397 . S
C2340 C2345 1.363 . S
C2341 H2312 0.950 . S
C2341 C2340 1.397 . S
C2341 C2342 1.334 . S
C2342 H2313 0.950 . S
C2342 C2341 1.334 . S
C2342 C2343 1.287 . S
C2343 C2342 1.287 . S
C2343 C2344 1.524 . S
C2343 H2346 0.999 . S
C2344 H2314 0.950 . S
C2344 C2343 1.524 . S
C2344 C2345 1.415 . S
C2345 H2315 0.950 . S
C2345 C2340 1.363 . S
C2345 C2344 1.415 . S
H2346 C2343 0.999 . S
H2347 C2328 0.913 . S
H2348 C2366 0.951 . S
H2349 C2368 0.951 . S
H2350 C2370 0.950 . S
H2351 C2371 0.950 . S
H2352 C2373 0.950 . S
H2353 C2376 0.950 . S
H2354 C2377 0.950 . S
H2355 C2379 0.950 . S
H2356 C2380 0.950 . S
H2357 C2381 0.951 . S
H2358 C2383 0.951 . S
H2359 C2385 0.950 . S
H2360 C2386 0.950 . S
H2361 C2388 0.950 . S
H2362 C2391 0.950 . S
H2363 C2392 0.950 . S
H2364 C2394 0.950 . S
H2365 C2395 0.950 . S
C2366 H2348 0.951 . S
C2366 C2367 1.366 . S
C2366 C2368 1.388 . S
C2367 C2366 1.366 . S
C2367 C2371 1.385 . S
C2368 H2349 0.951 . S
C2368 C2366 1.388 . S
C2368 C2369 1.366 . S
C2369 C2368 1.366 . S
C2369 C2370 1.414 . S
C2369 C2372 1.499 . S
C2370 H2350 0.950 . S
C2370 C2369 1.414 . S
C2370 C2371 1.374 . S
C2371 H2351 0.950 . S
C2371 C2367 1.385 . S
C2371 C2370 1.374 . S
C2372 C2369 1.499 . S
C2372 C2373 1.373 . S
C2372 C2374 1.389 . S
C2373 H2352 0.950 . S
C2373 C2372 1.373 . S
C2373 C2389 1.377 . S
C2374 C2372 1.389 . S
C2374 C2375 1.524 . S
C2374 C2388 1.377 . S
C2375 C2374 1.524 . S
C2375 C2376 1.397 . S
C2375 C2380 1.363 . S
C2376 H2353 0.950 . S
C2376 C2375 1.397 . S
C2376 C2377 1.334 . S
C2377 H2354 0.950 . S
C2377 C2376 1.334 . S
C2377 C2378 1.287 . S
C2378 C2377 1.287 . S
C2378 C2379 1.524 . S
C2378 H2397 0.913 . S
C2379 H2355 0.950 . S
C2379 C2378 1.524 . S
C2379 C2380 1.415 . S
C2380 H2356 0.950 . S
C2380 C2375 1.363 . S
C2380 C2379 1.415 . S
C2381 H2357 0.951 . S
C2381 C2382 1.366 . S
C2381 C2383 1.388 . S
C2382 C2381 1.366 . S
C2382 C2386 1.385 . S
C2383 H2358 0.951 . S
C2383 C2381 1.388 . S
C2383 C2384 1.366 . S
C2384 C2383 1.366 . S
C2384 C2385 1.414 . S
C2384 C2387 1.499 . S
C2385 H2359 0.950 . S
C2385 C2384 1.414 . S
C2385 C2386 1.374 . S
C2386 H2360 0.950 . S
C2386 C2382 1.385 . S
C2386 C2385 1.374 . S
C2387 C2384 1.499 . S
C2387 C2388 1.373 . S
C2387 C2389 1.389 . S
C2388 H2361 0.950 . S
C2388 C2374 1.377 . S
C2388 C2387 1.373 . S
C2389 C2373 1.377 . S
C2389 C2387 1.389 . S
C2389 C2390 1.524 . S
C2390 C2389 1.524 . S
C2390 C2391 1.397 . S
C2390 C2395 1.363 . S
C2391 H2362 0.950 . S
C2391 C2390 1.397 . S
C2391 C2392 1.334 . S
C2392 H2363 0.950 . S
C2392 C2391 1.334 . S
C2392 C2393 1.287 . S
C2393 C2392 1.287 . S
C2393 C2394 1.524 . S
C2393 H2396 0.999 . S
C2394 H2364 0.950 . S
C2394 C2393 1.524 . S
C2394 C2395 1.415 . S
C2395 H2365 0.950 . S
C2395 C2390 1.363 . S
C2395 C2394 1.415 . S
H2396 C2393 0.999 . S
H2397 C2378 0.913 . S
H2398 C2416 0.951 . S
H2399 C2418 0.951 . S
H2400 C2420 0.950 . S
H2401 C2421 0.950 . S
H2402 C2423 0.950 . S
H2403 C2426 0.950 . S
H2404 C2427 0.950 . S
H2405 C2429 0.950 . S
H2406 C2430 0.950 . S
H2407 C2431 0.951 . S
H2408 C2433 0.951 . S
H2409 C2435 0.950 . S
H2410 C2436 0.950 . S
H2411 C2438 0.950 . S
H2412 C2441 0.950 . S
H2413 C2442 0.950 . S
H2414 C2444 0.950 . S
H2415 C2445 0.950 . S
C2416 H2398 0.951 . S
C2416 C2417 1.366 . S
C2416 C2418 1.388 . S
C2417 C2416 1.366 . S
C2417 C2421 1.385 . S
C2418 H2399 0.951 . S
C2418 C2416 1.388 . S
C2418 C2419 1.366 . S
C2419 C2418 1.366 . S
C2419 C2420 1.414 . S
C2419 C2422 1.499 . S
C2420 H2400 0.950 . S
C2420 C2419 1.414 . S
C2420 C2421 1.374 . S
C2421 H2401 0.950 . S
C2421 C2417 1.385 . S
C2421 C2420 1.374 . S
C2422 C2419 1.499 . S
C2422 C2423 1.373 . S
C2422 C2424 1.389 . S
C2423 H2402 0.950 . S
C2423 C2422 1.373 . S
C2423 C2439 1.377 . S
C2424 C2422 1.389 . S
C2424 C2425 1.524 . S
C2424 C2438 1.377 . S
C2425 C2424 1.524 . S
C2425 C2426 1.397 . S
C2425 C2430 1.363 . S
C2426 H2403 0.950 . S
C2426 C2425 1.397 . S
C2426 C2427 1.334 . S
C2427 H2404 0.950 . S
C2427 C2426 1.334 . S
C2427 C2428 1.287 . S
C2428 C2427 1.287 . S
C2428 C2429 1.524 . S
C2428 H2447 0.913 . S
C2429 H2405 0.950 . S
C2429 C2428 1.524 . S
C2429 C2430 1.415 . S
C2430 H2406 0.950 . S
C2430 C2425 1.363 . S
C2430 C2429 1.415 . S
C2431 H2407 0.951 . S
C2431 C2432 1.366 . S
C2431 C2433 1.388 . S
C2432 C2431 1.366 . S
C2432 C2436 1.385 . S
C2433 H2408 0.951 . S
C2433 C2431 1.388 . S
C2433 C2434 1.366 . S
C2434 C2433 1.366 . S
C2434 C2435 1.414 . S
C2434 C2437 1.499 . S
C2435 H2409 0.950 . S
C2435 C2434 1.414 . S
C2435 C2436 1.374 . S
C2436 H2410 0.950 . S
C2436 C2432 1.385 . S
C2436 C2435 1.374 . S
C2437 C2434 1.499 . S
C2437 C2438 1.373 . S
C2437 C2439 1.389 . S
C2438 H2411 0.950 . S
C2438 C2424 1.377 . S
C2438 C2437 1.373 . S
C2439 C2423 1.377 . S
C2439 C2437 1.389 . S
C2439 C2440 1.524 . S
C2440 C2439 1.524 . S
C2440 C2441 1.397 . S
C2440 C2445 1.363 . S
C2441 H2412 0.950 . S
C2441 C2440 1.397 . S
C2441 C2442 1.334 . S
C2442 H2413 0.950 . S
C2442 C2441 1.334 . S
C2442 C2443 1.287 . S
C2443 C2442 1.287 . S
C2443 C2444 1.524 . S
C2443 H2446 0.999 . S
C2444 H2414 0.950 . S
C2444 C2443 1.524 . S
C2444 C2445 1.415 . S
C2445 H2415 0.950 . S
C2445 C2440 1.363 . S
C2445 C2444 1.415 . S
H2446 C2443 0.999 . S
H2447 C2428 0.913 . S
H2448 C2466 0.951 . S
H2449 C2468 0.951 . S
H2450 C2470 0.950 . S
H2451 C2471 0.950 . S
H2452 C2473 0.950 . S
H2453 C2476 0.950 . S
H2454 C2477 0.950 . S
H2455 C2479 0.950 . S
H2456 C2480 0.950 . S
H2457 C2481 0.951 . S
H2458 C2483 0.951 . S
H2459 C2485 0.950 . S
H2460 C2486 0.950 . S
H2461 C2488 0.950 . S
H2462 C2491 0.950 . S
H2463 C2492 0.950 . S
H2464 C2494 0.950 . S
H2465 C2495 0.950 . S
C2466 H2448 0.951 . S
C2466 C2467 1.366 . S
C2466 C2468 1.388 . S
C2467 C2466 1.366 . S
C2467 C2471 1.385 . S
C2468 H2449 0.951 . S
C2468 C2466 1.388 . S
C2468 C2469 1.366 . S
C2469 C2468 1.366 . S
C2469 C2470 1.414 . S
C2469 C2472 1.499 . S
C2470 H2450 0.950 . S
C2470 C2469 1.414 . S
C2470 C2471 1.374 . S
C2471 H2451 0.950 . S
C2471 C2467 1.385 . S
C2471 C2470 1.374 . S
C2472 C2469 1.499 . S
C2472 C2473 1.373 1_565 S
C2472 C2474 1.389 . S
C2473 H2452 0.950 . S
C2473 C2472 1.373 1_545 S
C2473 C2489 1.377 . S
C2474 C2472 1.389 . S
C2474 C2475 1.524 . S
C2474 C2488 1.377 1_565 S
C2475 C2474 1.524 . S
C2475 C2476 1.397 . S
C2475 C2480 1.363 . S
C2476 H2453 0.950 . S
C2476 C2475 1.397 . S
C2476 C2477 1.334 . S
C2477 H2454 0.950 . S
C2477 C2476 1.334 . S
C2477 C2478 1.287 . S
C2478 C2477 1.287 . S
C2478 C2479 1.524 . S
C2478 H2497 0.913 . S
C2479 H2455 0.950 . S
C2479 C2478 1.524 . S
C2479 C2480 1.415 . S
C2480 H2456 0.950 . S
C2480 C2475 1.363 . S
C2480 C2479 1.415 . S
C2481 H2457 0.951 . S
C2481 C2482 1.366 . S
C2481 C2483 1.388 . S
C2482 C2481 1.366 . S
C2482 C2486 1.385 . S
C2483 H2458 0.951 . S
C2483 C2481 1.388 . S
C2483 C2484 1.366 . S
C2484 C2483 1.366 . S
C2484 C2485 1.414 . S
C2484 C2487 1.499 . S
C2485 H2459 0.950 . S
C2485 C2484 1.414 . S
C2485 C2486 1.374 . S
C2486 H2460 0.950 . S
C2486 C2482 1.385 . S
C2486 C2485 1.374 . S
C2487 C2484 1.499 . S
C2487 C2488 1.373 . S
C2487 C2489 1.389 . S
C2488 H2461 0.950 . S
C2488 C2474 1.377 1_545 S
C2488 C2487 1.373 . S
C2489 C2473 1.377 . S
C2489 C2487 1.389 . S
C2489 C2490 1.524 . S
C2490 C2489 1.524 . S
C2490 C2491 1.397 . S
C2490 C2495 1.363 . S
C2491 H2462 0.950 . S
C2491 C2490 1.397 . S
C2491 C2492 1.334 . S
C2492 H2463 0.950 . S
C2492 C2491 1.334 . S
C2492 C2493 1.287 . S
C2493 C2492 1.287 . S
C2493 C2494 1.524 . S
C2493 H2496 0.999 . S
C2494 H2464 0.950 . S
C2494 C2493 1.524 . S
C2494 C2495 1.415 . S
C2495 H2465 0.950 . S
C2495 C2490 1.363 . S
C2495 C2494 1.415 . S
H2496 C2493 0.999 . S
H2497 C2478 0.913 . S
H2498 C2516 0.951 . S
H2499 C2518 0.951 . S
H2500 C2520 0.950 . S
H2501 C2521 0.950 . S
H2502 C2523 0.950 . S
H2503 C2526 0.950 . S
H2504 C2527 0.950 . S
H2505 C2529 0.950 . S
H2506 C2530 0.950 . S
H2507 C2531 0.951 . S
H2508 C2533 0.951 . S
H2509 C2535 0.950 . S
H2510 C2536 0.950 . S
H2511 C2538 0.950 . S
H2512 C2541 0.950 . S
H2513 C2542 0.950 . S
H2514 C2544 0.950 . S
H2515 C2545 0.950 . S
C2516 H2498 0.951 . S
C2516 C2517 1.366 . S
C2516 C2518 1.388 . S
C2517 C2516 1.366 . S
C2517 C2521 1.385 . S
C2518 H2499 0.951 . S
C2518 C2516 1.388 . S
C2518 C2519 1.366 . S
C2519 C2518 1.366 . S
C2519 C2520 1.414 . S
C2519 C2522 1.499 . S
C2520 H2500 0.950 . S
C2520 C2519 1.414 . S
C2520 C2521 1.374 . S
C2521 H2501 0.950 . S
C2521 C2517 1.385 . S
C2521 C2520 1.374 . S
C2522 C2519 1.499 . S
C2522 C2523 1.373 . S
C2522 C2524 1.389 . S
C2523 H2502 0.950 . S
C2523 C2522 1.373 . S
C2523 C2539 1.377 1_455 S
C2524 C2522 1.389 . S
C2524 C2525 1.524 . S
C2524 C2538 1.377 1_455 S
C2525 C2524 1.524 . S
C2525 C2526 1.397 . S
C2525 C2530 1.363 1_455 S
C2526 H2503 0.950 . S
C2526 C2525 1.397 . S
C2526 C2527 1.334 . S
C2527 H2504 0.950 . S
C2527 C2526 1.334 . S
C2527 C2528 1.287 . S
C2528 C2527 1.287 . S
C2528 C2529 1.524 1_455 S
C2528 H2547 0.913 . S
C2529 H2505 0.950 . S
C2529 C2528 1.524 1_655 S
C2529 C2530 1.415 . S
C2530 H2506 0.950 . S
C2530 C2525 1.363 1_655 S
C2530 C2529 1.415 . S
C2531 H2507 0.951 . S
C2531 C2532 1.366 . S
C2531 C2533 1.388 . S
C2532 C2531 1.366 . S
C2532 C2536 1.385 . S
C2533 H2508 0.951 . S
C2533 C2531 1.388 . S
C2533 C2534 1.366 . S
C2534 C2533 1.366 . S
C2534 C2535 1.414 . S
C2534 C2537 1.499 . S
C2535 H2509 0.950 . S
C2535 C2534 1.414 . S
C2535 C2536 1.374 . S
C2536 H2510 0.950 . S
C2536 C2532 1.385 . S
C2536 C2535 1.374 . S
C2537 C2534 1.499 . S
C2537 C2538 1.373 . S
C2537 C2539 1.389 . S
C2538 H2511 0.950 . S
C2538 C2524 1.377 1_655 S
C2538 C2537 1.373 . S
C2539 C2523 1.377 1_655 S
C2539 C2537 1.389 . S
C2539 C2540 1.524 . S
C2540 C2539 1.524 . S
C2540 C2541 1.397 . S
C2540 C2545 1.363 1_655 S
C2541 H2512 0.950 . S
C2541 C2540 1.397 . S
C2541 C2542 1.334 . S
C2542 H2513 0.950 . S
C2542 C2541 1.334 . S
C2542 C2543 1.287 . S
C2543 C2542 1.287 . S
C2543 C2544 1.524 1_655 S
C2543 H2546 0.999 . S
C2544 H2514 0.950 . S
C2544 C2543 1.524 1_455 S
C2544 C2545 1.415 . S
C2545 H2515 0.950 . S
C2545 C2540 1.363 1_455 S
C2545 C2544 1.415 . S
H2546 C2543 0.999 . S
H2547 C2528 0.913 . S
H2548 C2566 0.951 . S
H2549 C2568 0.951 . S
H2550 C2570 0.950 . S
H2551 C2571 0.950 . S
H2552 C2573 0.950 . S
H2553 C2576 0.950 . S
H2554 C2577 0.950 . S
H2555 C2579 0.950 . S
H2556 C2580 0.950 . S
H2557 C2581 0.951 . S
H2558 C2583 0.951 . S
H2559 C2585 0.950 . S
H2560 C2586 0.950 . S
H2561 C2588 0.950 . S
H2562 C2591 0.950 . S
H2563 C2592 0.950 . S
H2564 C2594 0.950 . S
H2565 C2595 0.950 . S
C2566 H2548 0.951 . S
C2566 C2567 1.366 . S
C2566 C2568 1.388 . S
C2567 C2566 1.366 . S
C2567 C2571 1.385 . S
C2568 H2549 0.951 . S
C2568 C2566 1.388 . S
C2568 C2569 1.366 . S
C2569 C2568 1.366 . S
C2569 C2570 1.414 . S
C2569 C2572 1.499 . S
C2570 H2550 0.950 . S
C2570 C2569 1.414 . S
C2570 C2571 1.374 . S
C2571 H2551 0.950 . S
C2571 C2567 1.385 . S
C2571 C2570 1.374 . S
C2572 C2569 1.499 . S
C2572 C2573 1.373 . S
C2572 C2574 1.389 . S
C2573 H2552 0.950 . S
C2573 C2572 1.373 . S
C2573 C2589 1.377 . S
C2574 C2572 1.389 . S
C2574 C2575 1.524 . S
C2574 C2588 1.377 . S
C2575 C2574 1.524 . S
C2575 C2576 1.397 . S
C2575 C2580 1.363 . S
C2576 H2553 0.950 . S
C2576 C2575 1.397 . S
C2576 C2577 1.334 . S
C2577 H2554 0.950 . S
C2577 C2576 1.334 . S
C2577 C2578 1.287 . S
C2578 C2577 1.287 . S
C2578 C2579 1.524 . S
C2578 H2597 0.913 . S
C2579 H2555 0.950 . S
C2579 C2578 1.524 . S
C2579 C2580 1.415 . S
C2580 H2556 0.950 . S
C2580 C2575 1.363 . S
C2580 C2579 1.415 . S
C2581 H2557 0.951 . S
C2581 C2582 1.366 . S
C2581 C2583 1.388 . S
C2582 C2581 1.366 . S
C2582 C2586 1.385 . S
C2583 H2558 0.951 . S
C2583 C2581 1.388 . S
C2583 C2584 1.366 . S
C2584 C2583 1.366 . S
C2584 C2585 1.414 . S
C2584 C2587 1.499 . S
C2585 H2559 0.950 . S
C2585 C2584 1.414 . S
C2585 C2586 1.374 . S
C2586 H2560 0.950 . S
C2586 C2582 1.385 . S
C2586 C2585 1.374 . S
C2587 C2584 1.499 . S
C2587 C2588 1.373 . S
C2587 C2589 1.389 . S
C2588 H2561 0.950 . S
C2588 C2574 1.377 . S
C2588 C2587 1.373 . S
C2589 C2573 1.377 . S
C2589 C2587 1.389 . S
C2589 C2590 1.524 . S
C2590 C2589 1.524 . S
C2590 C2591 1.397 . S
C2590 C2595 1.363 . S
C2591 H2562 0.950 . S
C2591 C2590 1.397 . S
C2591 C2592 1.334 . S
C2592 H2563 0.950 . S
C2592 C2591 1.334 . S
C2592 C2593 1.287 . S
C2593 C2592 1.287 . S
C2593 C2594 1.524 . S
C2593 H2596 0.999 . S
C2594 H2564 0.950 . S
C2594 C2593 1.524 . S
C2594 C2595 1.415 . S
C2595 H2565 0.950 . S
C2595 C2590 1.363 . S
C2595 C2594 1.415 . S
H2596 C2593 0.999 . S
H2597 C2578 0.913 . S
H2598 C2616 0.960 1_455 S
H2599 C2618 0.951 . S
H2600 C2620 0.950 . S
H2601 C2621 0.950 . S
H2602 C2623 0.950 . S
H2603 C2626 0.950 . S
H2604 C2627 0.950 . S
H2605 C2629 0.950 . S
H2606 C2630 0.950 . S
H2607 C2631 0.951 . S
H2608 C2633 0.951 . S
H2609 C2635 0.950 . S
H2610 C2636 0.950 . S
H2611 C2638 0.950 . S
H2612 C2641 0.950 . S
H2613 C2642 0.950 . S
H2614 C2644 0.950 . S
H2615 C2645 0.950 . S
C2616 H2598 0.960 1_655 S
C2616 C2617 1.324 1_655 S
C2616 C2618 1.423 . S
C2617 C2616 1.324 1_455 S
C2617 C2621 1.385 . S
C2618 H2599 0.951 . S
C2618 C2616 1.423 . S
C2618 C2619 1.366 . S
C2619 C2618 1.366 . S
C2619 C2620 1.414 . S
C2619 C2622 1.499 . S
C2620 H2600 0.950 . S
C2620 C2619 1.414 . S
C2620 C2621 1.374 1_655 S
C2621 H2601 0.950 . S
C2621 C2617 1.385 . S
C2621 C2620 1.374 1_455 S
C2622 C2619 1.499 . S
C2622 C2623 1.373 . S
C2622 C2624 1.389 . S
C2623 H2602 0.950 . S
C2623 C2622 1.373 . S
C2623 C2639 1.377 . S
C2624 C2622 1.389 . S
C2624 C2625 1.524 . S
C2624 C2638 1.377 . S
C2625 C2624 1.524 . S
C2625 C2626 1.397 . S
C2625 C2630 1.363 . S
C2626 H2603 0.950 . S
C2626 C2625 1.397 . S
C2626 C2627 1.334 . S
C2627 H2604 0.950 . S
C2627 C2626 1.334 . S
C2627 C2628 1.287 . S
C2628 C2627 1.287 . S
C2628 C2629 1.524 . S
C2628 H2647 0.913 . S
C2629 H2605 0.950 . S
C2629 C2628 1.524 . S
C2629 C2630 1.415 . S
C2630 H2606 0.950 . S
C2630 C2625 1.363 . S
C2630 C2629 1.415 . S
C2631 H2607 0.951 . S
C2631 C2632 1.366 . S
C2631 C2633 1.388 . S
C2632 C2631 1.366 . S
C2632 C2636 1.385 . S
C2633 H2608 0.951 . S
C2633 C2631 1.388 . S
C2633 C2634 1.366 . S
C2634 C2633 1.366 . S
C2634 C2635 1.414 . S
C2634 C2637 1.499 . S
C2635 H2609 0.950 . S
C2635 C2634 1.414 . S
C2635 C2636 1.374 . S
C2636 H2610 0.950 . S
C2636 C2632 1.385 . S
C2636 C2635 1.374 . S
C2637 C2634 1.499 . S
C2637 C2638 1.373 . S
C2637 C2639 1.389 . S
C2638 H2611 0.950 . S
C2638 C2624 1.377 . S
C2638 C2637 1.373 . S
C2639 C2623 1.377 . S
C2639 C2637 1.389 . S
C2639 C2640 1.524 . S
C2640 C2639 1.524 . S
C2640 C2641 1.397 . S
C2640 C2645 1.363 . S
C2641 H2612 0.950 . S
C2641 C2640 1.397 . S
C2641 C2642 1.334 . S
C2642 H2613 0.950 . S
C2642 C2641 1.334 . S
C2642 C2643 1.287 . S
C2643 C2642 1.287 . S
C2643 C2644 1.524 . S
C2643 H2646 0.999 . S
C2644 H2614 0.950 . S
C2644 C2643 1.524 . S
C2644 C2645 1.415 . S
C2645 H2615 0.950 . S
C2645 C2640 1.363 . S
C2645 C2644 1.415 . S
H2646 C2643 0.999 . S
H2647 C2628 0.913 . S
H2648 C2666 0.951 . S
H2649 C2668 0.951 . S
H2650 C2670 0.950 . S
H2651 C2671 0.950 . S
H2652 C2673 0.950 . S
H2653 C2676 0.950 . S
H2654 C2677 0.950 . S
H2655 C2679 0.950 . S
H2656 C2680 0.950 . S
H2657 C2681 0.951 . S
H2658 C2683 0.951 . S
H2659 C2685 0.950 . S
H2660 C2686 0.950 . S
H2661 C2688 0.950 . S
H2662 C2691 0.950 . S
H2663 C2692 0.950 . S
H2664 C2694 0.950 . S
H2665 C2695 0.950 . S
C2666 H2648 0.951 . S
C2666 C2667 1.366 . S
C2666 C2668 1.388 . S
C2667 C2666 1.366 . S
C2667 C2671 1.385 . S
C2668 H2649 0.951 . S
C2668 C2666 1.388 . S
C2668 C2669 1.366 . S
C2669 C2668 1.366 . S
C2669 C2670 1.414 . S
C2669 C2672 1.499 . S
C2670 H2650 0.950 . S
C2670 C2669 1.414 . S
C2670 C2671 1.374 . S
C2671 H2651 0.950 . S
C2671 C2667 1.385 . S
C2671 C2670 1.374 . S
C2672 C2669 1.499 . S
C2672 C2673 1.373 . S
C2672 C2674 1.389 . S
C2673 H2652 0.950 . S
C2673 C2672 1.373 . S
C2673 C2689 1.377 . S
C2674 C2672 1.389 . S
C2674 C2675 1.524 . S
C2674 C2688 1.377 . S
C2675 C2674 1.524 . S
C2675 C2676 1.397 . S
C2675 C2680 1.363 . S
C2676 H2653 0.950 . S
C2676 C2675 1.397 . S
C2676 C2677 1.334 . S
C2677 H2654 0.950 . S
C2677 C2676 1.334 . S
C2677 C2678 1.287 . S
C2678 C2677 1.287 . S
C2678 C2679 1.524 . S
C2678 H2697 0.913 . S
C2679 H2655 0.950 . S
C2679 C2678 1.524 . S
C2679 C2680 1.415 . S
C2680 H2656 0.950 . S
C2680 C2675 1.363 . S
C2680 C2679 1.415 . S
C2681 H2657 0.951 . S
C2681 C2682 1.366 . S
C2681 C2683 1.388 . S
C2682 C2681 1.366 . S
C2682 C2686 1.385 . S
C2683 H2658 0.951 . S
C2683 C2681 1.388 . S
C2683 C2684 1.366 . S
C2684 C2683 1.366 . S
C2684 C2685 1.414 . S
C2684 C2687 1.499 . S
C2685 H2659 0.950 . S
C2685 C2684 1.414 . S
C2685 C2686 1.374 . S
C2686 H2660 0.950 . S
C2686 C2682 1.385 . S
C2686 C2685 1.374 . S
C2687 C2684 1.499 . S
C2687 C2688 1.373 . S
C2687 C2689 1.389 . S
C2688 H2661 0.950 . S
C2688 C2674 1.377 . S
C2688 C2687 1.373 . S
C2689 C2673 1.377 . S
C2689 C2687 1.389 . S
C2689 C2690 1.524 . S
C2690 C2689 1.524 . S
C2690 C2691 1.397 . S
C2690 C2695 1.363 . S
C2691 H2662 0.950 . S
C2691 C2690 1.397 . S
C2691 C2692 1.334 . S
C2692 H2663 0.950 . S
C2692 C2691 1.334 . S
C2692 C2693 1.287 . S
C2693 C2692 1.287 . S
C2693 C2694 1.524 . S
C2693 H2696 0.999 . S
C2694 H2664 0.950 . S
C2694 C2693 1.524 . S
C2694 C2695 1.415 . S
C2695 H2665 0.950 . S
C2695 C2690 1.363 . S
C2695 C2694 1.415 . S
H2696 C2693 0.999 . S
H2697 C2678 0.913 . S
H2698 C2716 0.951 . S
H2699 C2718 0.951 . S
H2700 C2720 0.950 . S
H2701 C2721 0.950 . S
H2702 C2723 0.950 . S
H2703 C2726 0.950 . S
H2704 C2727 0.950 . S
H2705 C2729 0.950 . S
H2706 C2730 0.950 . S
H2707 C2731 0.951 . S
H2708 C2733 0.951 . S
H2709 C2735 0.950 . S
H2710 C2736 0.950 . S
H2711 C2738 0.950 . S
H2712 C2741 0.950 . S
H2713 C2742 0.950 . S
H2714 C2744 0.950 . S
H2715 C2745 0.950 . S
C2716 H2698 0.951 . S
C2716 C2717 1.366 1_545 S
C2716 C2718 1.388 . S
C2717 C2716 1.366 1_565 S
C2717 C2721 1.385 . S
C2718 H2699 0.951 . S
C2718 C2716 1.388 . S
C2718 C2719 1.366 . S
C2719 C2718 1.366 . S
C2719 C2720 1.414 . S
C2719 C2722 1.499 . S
C2720 H2700 0.950 . S
C2720 C2719 1.414 . S
C2720 C2721 1.374 1_545 S
C2721 H2701 0.950 . S
C2721 C2717 1.385 . S
C2721 C2720 1.374 1_565 S
C2722 C2719 1.499 . S
C2722 C2723 1.373 . S
C2722 C2724 1.389 . S
C2723 H2702 0.950 . S
C2723 C2722 1.373 . S
C2723 C2739 1.377 . S
C2724 C2722 1.389 . S
C2724 C2725 1.524 . S
C2724 C2738 1.377 . S
C2725 C2724 1.524 . S
C2725 C2726 1.397 . S
C2725 C2730 1.363 . S
C2726 H2703 0.950 . S
C2726 C2725 1.397 . S
C2726 C2727 1.334 . S
C2727 H2704 0.950 . S
C2727 C2726 1.334 . S
C2727 C2728 1.287 . S
C2728 C2727 1.287 . S
C2728 C2729 1.524 . S
C2728 H2747 0.913 . S
C2729 H2705 0.950 . S
C2729 C2728 1.524 . S
C2729 C2730 1.415 . S
C2730 H2706 0.950 . S
C2730 C2725 1.363 . S
C2730 C2729 1.415 . S
C2731 H2707 0.951 . S
C2731 C2732 1.366 . S
C2731 C2733 1.388 . S
C2732 C2731 1.366 . S
C2732 C2736 1.385 . S
C2733 H2708 0.951 . S
C2733 C2731 1.388 . S
C2733 C2734 1.366 . S
C2734 C2733 1.366 . S
C2734 C2735 1.414 . S
C2734 C2737 1.499 . S
C2735 H2709 0.950 . S
C2735 C2734 1.414 . S
C2735 C2736 1.374 . S
C2736 H2710 0.950 . S
C2736 C2732 1.385 . S
C2736 C2735 1.374 . S
C2737 C2734 1.499 . S
C2737 C2738 1.373 . S
C2737 C2739 1.389 . S
C2738 H2711 0.950 . S
C2738 C2724 1.377 . S
C2738 C2737 1.373 . S
C2739 C2723 1.377 . S
C2739 C2737 1.389 . S
C2739 C2740 1.524 . S
C2740 C2739 1.524 . S
C2740 C2741 1.397 . S
C2740 C2745 1.363 . S
C2741 H2712 0.950 . S
C2741 C2740 1.397 . S
C2741 C2742 1.334 . S
C2742 H2713 0.950 . S
C2742 C2741 1.334 . S
C2742 C2743 1.287 . S
C2743 C2742 1.287 . S
C2743 C2744 1.524 . S
C2743 H2746 0.999 . S
C2744 H2714 0.950 . S
C2744 C2743 1.524 . S
C2744 C2745 1.415 . S
C2745 H2715 0.950 . S
C2745 C2740 1.363 . S
C2745 C2744 1.415 . S
H2746 C2743 0.999 . S
H2747 C2728 0.913 . S
H2748 C2766 0.951 . S
H2749 C2768 0.951 . S
H2750 C2770 0.950 . S
H2751 C2771 0.950 . S
H2752 C2773 0.950 . S
H2753 C2776 0.950 . S
H2754 C2777 0.950 . S
H2755 C2779 0.950 . S
H2756 C2780 0.950 . S
H2757 C2781 0.951 . S
H2758 C2783 0.951 . S
H2759 C2785 0.950 . S
H2760 C2786 0.950 . S
H2761 C2788 0.950 . S
H2762 C2791 0.950 . S
H2763 C2792 0.950 . S
H2764 C2794 0.950 . S
H2765 C2795 0.950 . S
C2766 H2748 0.951 . S
C2766 C2767 1.366 . S
C2766 C2768 1.388 . S
C2767 C2766 1.366 . S
C2767 C2771 1.385 . S
C2768 H2749 0.951 . S
C2768 C2766 1.388 . S
C2768 C2769 1.366 . S
C2769 C2768 1.366 . S
C2769 C2770 1.414 . S
C2769 C2772 1.499 . S
C2770 H2750 0.950 . S
C2770 C2769 1.414 . S
C2770 C2771 1.374 . S
C2771 H2751 0.950 . S
C2771 C2767 1.385 . S
C2771 C2770 1.374 . S
C2772 C2769 1.499 . S
C2772 C2773 1.373 . S
C2772 C2774 1.389 . S
C2773 H2752 0.950 . S
C2773 C2772 1.373 . S
C2773 C2789 1.377 . S
C2774 C2772 1.389 . S
C2774 C2775 1.524 . S
C2774 C2788 1.377 . S
C2775 C2774 1.524 . S
C2775 C2776 1.397 . S
C2775 C2780 1.363 . S
C2776 H2753 0.950 . S
C2776 C2775 1.397 . S
C2776 C2777 1.334 . S
C2777 H2754 0.950 . S
C2777 C2776 1.334 . S
C2777 C2778 1.287 . S
C2778 C2777 1.287 . S
C2778 C2779 1.524 . S
C2778 H2797 0.913 . S
C2779 H2755 0.950 . S
C2779 C2778 1.524 . S
C2779 C2780 1.415 . S
C2780 H2756 0.950 . S
C2780 C2775 1.363 . S
C2780 C2779 1.415 . S
C2781 H2757 0.951 . S
C2781 C2782 1.366 . S
C2781 C2783 1.388 . S
C2782 C2781 1.366 . S
C2782 C2786 1.385 . S
C2783 H2758 0.951 . S
C2783 C2781 1.388 . S
C2783 C2784 1.366 . S
C2784 C2783 1.366 . S
C2784 C2785 1.414 . S
C2784 C2787 1.499 . S
C2785 H2759 0.950 . S
C2785 C2784 1.414 . S
C2785 C2786 1.374 . S
C2786 H2760 0.950 . S
C2786 C2782 1.385 . S
C2786 C2785 1.374 . S
C2787 C2784 1.499 . S
C2787 C2788 1.373 . S
C2787 C2789 1.389 . S
C2788 H2761 0.950 . S
C2788 C2774 1.377 . S
C2788 C2787 1.373 . S
C2789 C2773 1.377 . S
C2789 C2787 1.389 . S
C2789 C2790 1.524 . S
C2790 C2789 1.524 . S
C2790 C2791 1.397 . S
C2790 C2795 1.363 . S
C2791 H2762 0.950 . S
C2791 C2790 1.397 . S
C2791 C2792 1.334 . S
C2792 H2763 0.950 . S
C2792 C2791 1.334 . S
C2792 C2793 1.287 . S
C2793 C2792 1.287 . S
C2793 C2794 1.524 . S
C2793 H2796 0.999 . S
C2794 H2764 0.950 . S
C2794 C2793 1.524 . S
C2794 C2795 1.415 . S
C2795 H2765 0.950 . S
C2795 C2790 1.363 . S
C2795 C2794 1.415 . S
H2796 C2793 0.999 . S
H2797 C2778 0.913 . S
H2798 C2816 0.951 . S
H2799 C2818 0.951 . S
H2800 C2820 0.950 . S
H2801 C2821 0.950 . S
H2802 C2823 0.950 . S
H2803 C2826 0.950 . S
H2804 C2827 0.950 . S
H2805 C2829 0.950 . S
H2806 C2830 0.950 . S
H2807 C2831 0.951 . S
H2808 C2833 0.951 . S
H2809 C2835 0.950 . S
H2810 C2836 0.950 . S
H2811 C2838 0.950 . S
H2812 C2841 0.950 . S
H2813 C2842 0.950 . S
H2814 C2844 0.950 . S
H2815 C2845 0.950 . S
C2816 H2798 0.951 . S
C2816 C2817 1.366 . S
C2816 C2818 1.388 . S
C2817 C2816 1.366 . S
C2817 C2821 1.385 . S
C2818 H2799 0.951 . S
C2818 C2816 1.388 . S
C2818 C2819 1.366 . S
C2819 C2818 1.366 . S
C2819 C2820 1.414 . S
C2819 C2822 1.499 . S
C2820 H2800 0.950 . S
C2820 C2819 1.414 . S
C2820 C2821 1.374 . S
C2821 H2801 0.950 . S
C2821 C2817 1.385 . S
C2821 C2820 1.374 . S
C2822 C2819 1.499 . S
C2822 C2823 1.373 . S
C2822 C2824 1.389 . S
C2823 H2802 0.950 . S
C2823 C2822 1.373 . S
C2823 C2839 1.377 . S
C2824 C2822 1.389 . S
C2824 C2825 1.524 . S
C2824 C2838 1.377 . S
C2825 C2824 1.524 . S
C2825 C2826 1.397 . S
C2825 C2830 1.363 . S
C2826 H2803 0.950 . S
C2826 C2825 1.397 . S
C2826 C2827 1.334 . S
C2827 H2804 0.950 . S
C2827 C2826 1.334 . S
C2827 C2828 1.287 . S
C2828 C2827 1.287 . S
C2828 C2829 1.524 . S
C2828 H2847 0.913 . S
C2829 H2805 0.950 . S
C2829 C2828 1.524 . S
C2829 C2830 1.415 . S
C2830 H2806 0.950 . S
C2830 C2825 1.363 . S
C2830 C2829 1.415 . S
C2831 H2807 0.951 . S
C2831 C2832 1.366 . S
C2831 C2833 1.388 . S
C2832 C2831 1.366 . S
C2832 C2836 1.385 . S
C2833 H2808 0.951 . S
C2833 C2831 1.388 . S
C2833 C2834 1.366 . S
C2834 C2833 1.366 . S
C2834 C2835 1.414 . S
C2834 C2837 1.499 . S
C2835 H2809 0.950 . S
C2835 C2834 1.414 . S
C2835 C2836 1.374 . S
C2836 H2810 0.950 . S
C2836 C2832 1.385 . S
C2836 C2835 1.374 . S
C2837 C2834 1.499 . S
C2837 C2838 1.373 . S
C2837 C2839 1.389 . S
C2838 H2811 0.950 . S
C2838 C2824 1.377 . S
C2838 C2837 1.373 . S
C2839 C2823 1.377 . S
C2839 C2837 1.389 . S
C2839 C2840 1.524 . S
C2840 C2839 1.524 . S
C2840 C2841 1.397 . S
C2840 C2845 1.363 . S
C2841 H2812 0.950 . S
C2841 C2840 1.397 . S
C2841 C2842 1.334 . S
C2842 H2813 0.950 . S
C2842 C2841 1.334 . S
C2842 C2843 1.287 . S
C2843 C2842 1.287 . S
C2843 C2844 1.524 . S
C2843 H2846 0.999 . S
C2844 H2814 0.950 . S
C2844 C2843 1.524 . S
C2844 C2845 1.415 . S
C2845 H2815 0.950 . S
C2845 C2840 1.363 . S
C2845 C2844 1.415 . S
H2846 C2843 0.999 . S
H2847 C2828 0.913 . S
H2848 C2866 0.951 . S
H2849 C2868 0.951 . S
H2850 C2870 0.950 . S
H2851 C2871 0.950 . S
H2852 C2873 0.950 . S
H2853 C2876 0.950 . S
H2854 C2877 0.950 . S
H2855 C2879 0.950 . S
H2856 C2880 0.950 . S
H2857 C2881 0.951 . S
H2858 C2883 0.951 . S
H2859 C2885 0.950 . S
H2860 C2886 0.950 . S
H2861 C2888 0.950 . S
H2862 C2891 0.950 . S
H2863 C2892 0.950 . S
H2864 C2894 0.950 . S
H2865 C2895 0.950 . S
C2866 H2848 0.951 . S
C2866 C2867 1.366 . S
C2866 C2868 1.388 . S
C2867 C2866 1.366 . S
C2867 C2871 1.385 . S
C2868 H2849 0.951 . S
C2868 C2866 1.388 . S
C2868 C2869 1.366 . S
C2869 C2868 1.366 . S
C2869 C2870 1.414 . S
C2869 C2872 1.499 . S
C2870 H2850 0.950 . S
C2870 C2869 1.414 . S
C2870 C2871 1.374 . S
C2871 H2851 0.950 . S
C2871 C2867 1.385 . S
C2871 C2870 1.374 . S
C2872 C2869 1.499 . S
C2872 C2873 1.373 . S
C2872 C2874 1.389 . S
C2873 H2852 0.950 . S
C2873 C2872 1.373 . S
C2873 C2889 1.377 . S
C2874 C2872 1.389 . S
C2874 C2875 1.524 . S
C2874 C2888 1.377 . S
C2875 C2874 1.524 . S
C2875 C2876 1.397 . S
C2875 C2880 1.363 . S
C2876 H2853 0.950 . S
C2876 C2875 1.397 . S
C2876 C2877 1.334 . S
C2877 H2854 0.950 . S
C2877 C2876 1.334 . S
C2877 C2878 1.287 . S
C2878 C2877 1.287 . S
C2878 C2879 1.524 . S
C2878 H2897 0.913 . S
C2879 H2855 0.950 . S
C2879 C2878 1.524 . S
C2879 C2880 1.415 . S
C2880 H2856 0.950 . S
C2880 C2875 1.363 . S
C2880 C2879 1.415 . S
C2881 H2857 0.951 . S
C2881 C2882 1.366 . S
C2881 C2883 1.388 . S
C2882 C2881 1.366 . S
C2882 C2886 1.385 . S
C2883 H2858 0.951 . S
C2883 C2881 1.388 . S
C2883 C2884 1.366 . S
C2884 C2883 1.366 . S
C2884 C2885 1.414 . S
C2884 C2887 1.499 . S
C2885 H2859 0.950 . S
C2885 C2884 1.414 . S
C2885 C2886 1.374 . S
C2886 H2860 0.950 . S
C2886 C2882 1.385 . S
C2886 C2885 1.374 . S
C2887 C2884 1.499 . S
C2887 C2888 1.373 . S
C2887 C2889 1.389 . S
C2888 H2861 0.950 . S
C2888 C2874 1.377 . S
C2888 C2887 1.373 . S
C2889 C2873 1.377 . S
C2889 C2887 1.389 . S
C2889 C2890 1.524 . S
C2890 C2889 1.524 . S
C2890 C2891 1.397 . S
C2890 C2895 1.363 . S
C2891 H2862 0.950 . S
C2891 C2890 1.397 . S
C2891 C2892 1.334 . S
C2892 H2863 0.950 . S
C2892 C2891 1.334 . S
C2892 C2893 1.287 . S
C2893 C2892 1.287 . S
C2893 C2894 1.524 . S
C2893 H2896 0.999 . S
C2894 H2864 0.950 . S
C2894 C2893 1.524 . S
C2894 C2895 1.415 . S
C2895 H2865 0.950 . S
C2895 C2890 1.363 . S
C2895 C2894 1.415 . S
H2896 C2893 0.999 . S
H2897 C2878 0.913 . S
H2898 C2916 0.951 . S
H2899 C2918 0.951 . S
H2900 C2920 0.950 . S
H2901 C2921 0.950 . S
H2902 C2923 0.950 . S
H2903 C2926 0.950 . S
H2904 C2927 0.950 . S
H2905 C2929 0.950 . S
H2906 C2930 0.950 . S
H2907 C2931 0.951 . S
H2908 C2933 0.951 . S
H2909 C2935 0.950 . S
H2910 C2936 0.950 . S
H2911 C2938 0.950 . S
H2912 C2941 0.950 . S
H2913 C2942 0.950 . S
H2914 C2944 0.950 . S
H2915 C2945 0.950 . S
C2916 H2898 0.951 . S
C2916 C2917 1.366 . S
C2916 C2918 1.388 . S
C2917 C2916 1.366 . S
C2917 C2921 1.385 . S
C2918 H2899 0.951 . S
C2918 C2916 1.388 . S
C2918 C2919 1.366 . S
C2919 C2918 1.366 . S
C2919 C2920 1.414 . S
C2919 C2922 1.499 . S
C2920 H2900 0.950 . S
C2920 C2919 1.414 . S
C2920 C2921 1.374 . S
C2921 H2901 0.950 . S
C2921 C2917 1.385 . S
C2921 C2920 1.374 . S
C2922 C2919 1.499 . S
C2922 C2923 1.373 . S
C2922 C2924 1.389 . S
C2923 H2902 0.950 . S
C2923 C2922 1.373 . S
C2923 C2939 1.377 . S
C2924 C2922 1.389 . S
C2924 C2925 1.524 . S
C2924 C2938 1.377 . S
C2925 C2924 1.524 . S
C2925 C2926 1.397 . S
C2925 C2930 1.363 . S
C2926 H2903 0.950 . S
C2926 C2925 1.397 . S
C2926 C2927 1.334 . S
C2927 H2904 0.950 . S
C2927 C2926 1.334 . S
C2927 C2928 1.287 . S
C2928 C2927 1.287 . S
C2928 C2929 1.524 . S
C2928 H2947 0.913 . S
C2929 H2905 0.950 . S
C2929 C2928 1.524 . S
C2929 C2930 1.415 . S
C2930 H2906 0.950 . S
C2930 C2925 1.363 . S
C2930 C2929 1.415 . S
C2931 H2907 0.951 . S
C2931 C2932 1.366 . S
C2931 C2933 1.388 . S
C2932 C2931 1.366 . S
C2932 C2936 1.385 . S
C2933 H2908 0.951 . S
C2933 C2931 1.388 . S
C2933 C2934 1.366 . S
C2934 C2933 1.366 . S
C2934 C2935 1.414 . S
C2934 C2937 1.499 . S
C2935 H2909 0.950 . S
C2935 C2934 1.414 . S
C2935 C2936 1.374 . S
C2936 H2910 0.950 . S
C2936 C2932 1.385 . S
C2936 C2935 1.374 . S
C2937 C2934 1.499 . S
C2937 C2938 1.373 . S
C2937 C2939 1.389 . S
C2938 H2911 0.950 . S
C2938 C2924 1.377 . S
C2938 C2937 1.373 . S
C2939 C2923 1.377 . S
C2939 C2937 1.389 . S
C2939 C2940 1.524 . S
C2940 C2939 1.524 . S
C2940 C2941 1.397 . S
C2940 C2945 1.363 . S
C2941 H2912 0.950 . S
C2941 C2940 1.397 . S
C2941 C2942 1.334 . S
C2942 H2913 0.950 . S
C2942 C2941 1.334 . S
C2942 C2943 1.287 . S
C2943 C2942 1.287 . S
C2943 C2944 1.524 . S
C2943 H2946 0.999 . S
C2944 H2914 0.950 . S
C2944 C2943 1.524 . S
C2944 C2945 1.415 . S
C2945 H2915 0.950 . S
C2945 C2940 1.363 . S
C2945 C2944 1.415 . S
H2946 C2943 0.999 . S
H2947 C2928 0.913 . S
H2948 C2966 0.951 . S
H2949 C2968 0.951 . S
H2950 C2970 0.950 . S
H2951 C2971 0.950 . S
H2952 C2973 0.950 . S
H2953 C2976 0.950 . S
H2954 C2977 0.950 . S
H2955 C2979 0.950 . S
H2956 C2980 0.950 . S
H2957 C2981 0.951 . S
H2958 C2983 0.951 . S
H2959 C2985 0.950 . S
H2960 C2986 0.950 . S
H2961 C2988 0.950 . S
H2962 C2991 0.950 . S
H2963 C2992 0.950 . S
H2964 C2994 0.950 1_655 S
H2965 C2995 0.950 . S
C2966 H2948 0.951 . S
C2966 C2967 1.366 . S
C2966 C2968 1.388 . S
C2967 C2966 1.366 . S
C2967 C2971 1.385 . S
C2968 H2949 0.951 . S
C2968 C2966 1.388 . S
C2968 C2969 1.366 . S
C2969 C2968 1.366 . S
C2969 C2970 1.414 . S
C2969 C2972 1.499 . S
C2970 H2950 0.950 . S
C2970 C2969 1.414 . S
C2970 C2971 1.374 . S
C2971 H2951 0.950 . S
C2971 C2967 1.385 . S
C2971 C2970 1.374 . S
C2972 C2969 1.499 . S
C2972 C2973 1.373 . S
C2972 C2974 1.389 . S
C2973 H2952 0.950 . S
C2973 C2972 1.373 . S
C2973 C2989 1.377 . S
C2974 C2972 1.389 . S
C2974 C2975 1.524 . S
C2974 C2988 1.377 . S
C2975 C2974 1.524 . S
C2975 C2976 1.397 . S
C2975 C2980 1.363 . S
C2976 H2953 0.950 . S
C2976 C2975 1.397 . S
C2976 C2977 1.334 . S
C2977 H2954 0.950 . S
C2977 C2976 1.334 . S
C2977 C2978 1.287 . S
C2978 C2977 1.287 . S
C2978 C2979 1.524 . S
C2978 H2997 0.913 . S
C2979 H2955 0.950 . S
C2979 C2978 1.524 . S
C2979 C2980 1.415 . S
C2980 H2956 0.950 . S
C2980 C2975 1.363 . S
C2980 C2979 1.415 . S
C2981 H2957 0.951 . S
C2981 C2982 1.366 . S
C2981 C2983 1.388 . S
C2982 C2981 1.366 . S
C2982 C2986 1.385 . S
C2983 H2958 0.951 . S
C2983 C2981 1.388 . S
C2983 C2984 1.366 . S
C2984 C2983 1.366 . S
C2984 C2985 1.414 . S
C2984 C2987 1.499 . S
C2985 H2959 0.950 . S
C2985 C2984 1.414 . S
C2985 C2986 1.374 . S
C2986 H2960 0.950 . S
C2986 C2982 1.385 . S
C2986 C2985 1.374 . S
C2987 C2984 1.499 . S
C2987 C2988 1.373 . S
C2987 C2989 1.389 . S
C2988 H2961 0.950 . S
C2988 C2974 1.377 . S
C2988 C2987 1.373 . S
C2989 C2973 1.377 . S
C2989 C2987 1.389 . S
C2989 C2990 1.524 . S
C2990 C2989 1.524 . S
C2990 C2991 1.397 . S
C2990 C2995 1.363 . S
C2991 H2962 0.950 . S
C2991 C2990 1.397 . S
C2991 C2992 1.334 . S
C2992 H2963 0.950 . S
C2992 C2991 1.334 . S
C2992 C2993 1.270 1_455 S
C2993 C2992 1.270 1_655 S
C2993 C2994 1.530 1_655 S
C2993 H2996 1.013 . S
C2994 H2964 0.950 1_455 S
C2994 C2993 1.530 1_455 S
C2994 C2995 1.415 . S
C2995 H2965 0.950 . S
C2995 C2990 1.363 . S
C2995 C2994 1.415 . S
H2996 C2993 1.013 . S
H2997 C2978 0.913 . S
H2998 C3016 0.951 . S
H2999 C3018 0.951 . S
H3000 C3020 0.950 . S
H3001 C3021 0.950 . S
H3002 C3023 0.950 . S
H3003 C3026 0.950 . S
H3004 C3027 0.950 . S
H3005 C3029 0.950 . S
H3006 C3030 0.950 . S
H3007 C3031 0.951 . S
H3008 C3033 0.951 . S
H3009 C3035 0.950 . S
H3010 C3036 0.950 . S
H3011 C3038 0.950 . S
H3012 C3041 0.950 . S
H3013 C3042 0.950 . S
H3014 C3044 0.950 . S
H3015 C3045 0.950 . S
C3016 H2998 0.951 . S
C3016 C3017 1.366 . S
C3016 C3018 1.388 . S
C3017 C3016 1.366 . S
C3017 C3021 1.385 . S
C3018 H2999 0.951 . S
C3018 C3016 1.388 . S
C3018 C3019 1.366 . S
C3019 C3018 1.366 . S
C3019 C3020 1.414 . S
C3019 C3022 1.499 . S
C3020 H3000 0.950 . S
C3020 C3019 1.414 . S
C3020 C3021 1.374 . S
C3021 H3001 0.950 . S
C3021 C3017 1.385 . S
C3021 C3020 1.374 . S
C3022 C3019 1.499 . S
C3022 C3023 1.373 . S
C3022 C3024 1.389 . S
C3023 H3002 0.950 . S
C3023 C3022 1.373 . S
C3023 C3039 1.377 . S
C3024 C3022 1.389 . S
C3024 C3025 1.524 . S
C3024 C3038 1.377 . S
C3025 C3024 1.524 . S
C3025 C3026 1.397 . S
C3025 C3030 1.363 . S
C3026 H3003 0.950 . S
C3026 C3025 1.397 . S
C3026 C3027 1.334 . S
C3027 H3004 0.950 . S
C3027 C3026 1.334 . S
C3027 C3028 1.287 . S
C3028 C3027 1.287 . S
C3028 C3029 1.524 . S
C3028 H3047 0.913 . S
C3029 H3005 0.950 . S
C3029 C3028 1.524 . S
C3029 C3030 1.415 . S
C3030 H3006 0.950 . S
C3030 C3025 1.363 . S
C3030 C3029 1.415 . S
C3031 H3007 0.951 . S
C3031 C3032 1.366 . S
C3031 C3033 1.388 . S
C3032 C3031 1.366 . S
C3032 C3036 1.385 . S
C3033 H3008 0.951 . S
C3033 C3031 1.388 . S
C3033 C3034 1.366 . S
C3034 C3033 1.366 . S
C3034 C3035 1.414 . S
C3034 C3037 1.499 . S
C3035 H3009 0.950 . S
C3035 C3034 1.414 . S
C3035 C3036 1.374 . S
C3036 H3010 0.950 . S
C3036 C3032 1.385 . S
C3036 C3035 1.374 . S
C3037 C3034 1.499 . S
C3037 C3038 1.373 . S
C3037 C3039 1.389 . S
C3038 H3011 0.950 . S
C3038 C3024 1.377 . S
C3038 C3037 1.373 . S
C3039 C3023 1.377 . S
C3039 C3037 1.389 . S
C3039 C3040 1.524 . S
C3040 C3039 1.524 . S
C3040 C3041 1.397 . S
C3040 C3045 1.363 . S
C3041 H3012 0.950 . S
C3041 C3040 1.397 . S
C3041 C3042 1.334 . S
C3042 H3013 0.950 . S
C3042 C3041 1.334 . S
C3042 C3043 1.287 . S
C3043 C3042 1.287 . S
C3043 C3044 1.524 . S
C3043 H3046 0.999 . S
C3044 H3014 0.950 . S
C3044 C3043 1.524 . S
C3044 C3045 1.415 . S
C3045 H3015 0.950 . S
C3045 C3040 1.363 . S
C3045 C3044 1.415 . S
H3046 C3043 0.999 . S
H3047 C3028 0.913 . S
H3048 C3066 0.951 . S
H3049 C3068 0.951 . S
H3050 C3070 0.950 . S
H3051 C3071 0.950 . S
H3052 C3073 0.950 . S
H3053 C3076 0.950 . S
H3054 C3077 0.950 . S
H3055 C3079 0.950 . S
H3056 C3080 0.950 . S
H3057 C3081 0.951 . S
H3058 C3083 0.951 . S
H3059 C3085 0.950 . S
H3060 C3086 0.950 . S
H3061 C3088 0.950 . S
H3062 C3091 0.950 . S
H3063 C3092 0.950 . S
H3064 C3094 0.950 . S
H3065 C3095 0.950 . S
C3066 H3048 0.951 . S
C3066 C3067 1.366 . S
C3066 C3068 1.388 . S
C3067 C3066 1.366 . S
C3067 C3071 1.385 . S
C3068 H3049 0.951 . S
C3068 C3066 1.388 . S
C3068 C3069 1.366 . S
C3069 C3068 1.366 . S
C3069 C3070 1.414 . S
C3069 C3072 1.499 . S
C3070 H3050 0.950 . S
C3070 C3069 1.414 . S
C3070 C3071 1.374 . S
C3071 H3051 0.950 . S
C3071 C3067 1.385 . S
C3071 C3070 1.374 . S
C3072 C3069 1.499 . S
C3072 C3073 1.373 . S
C3072 C3074 1.389 . S
C3073 H3052 0.950 . S
C3073 C3072 1.373 . S
C3073 C3089 1.377 . S
C3074 C3072 1.389 . S
C3074 C3075 1.524 . S
C3074 C3088 1.377 . S
C3075 C3074 1.524 . S
C3075 C3076 1.397 . S
C3075 C3080 1.363 . S
C3076 H3053 0.950 . S
C3076 C3075 1.397 . S
C3076 C3077 1.334 . S
C3077 H3054 0.950 . S
C3077 C3076 1.334 . S
C3077 C3078 1.287 . S
C3078 C3077 1.287 . S
C3078 C3079 1.524 . S
C3078 H3097 0.913 . S
C3079 H3055 0.950 . S
C3079 C3078 1.524 . S
C3079 C3080 1.415 . S
C3080 H3056 0.950 . S
C3080 C3075 1.363 . S
C3080 C3079 1.415 . S
C3081 H3057 0.951 . S
C3081 C3082 1.366 . S
C3081 C3083 1.388 . S
C3082 C3081 1.366 . S
C3082 C3086 1.385 . S
C3083 H3058 0.951 . S
C3083 C3081 1.388 . S
C3083 C3084 1.366 . S
C3084 C3083 1.366 . S
C3084 C3085 1.414 . S
C3084 C3087 1.499 . S
C3085 H3059 0.950 . S
C3085 C3084 1.414 . S
C3085 C3086 1.374 . S
C3086 H3060 0.950 . S
C3086 C3082 1.385 . S
C3086 C3085 1.374 . S
C3087 C3084 1.499 . S
C3087 C3088 1.373 . S
C3087 C3089 1.389 . S
C3088 H3061 0.950 . S
C3088 C3074 1.377 . S
C3088 C3087 1.373 . S
C3089 C3073 1.377 . S
C3089 C3087 1.389 . S
C3089 C3090 1.524 . S
C3090 C3089 1.524 . S
C3090 C3091 1.397 . S
C3090 C3095 1.363 . S
C3091 H3062 0.950 . S
C3091 C3090 1.397 . S
C3091 C3092 1.334 . S
C3092 H3063 0.950 . S
C3092 C3091 1.334 . S
C3092 C3093 1.287 . S
C3093 C3092 1.287 . S
C3093 C3094 1.524 . S
C3093 H3096 0.999 . S
C3094 H3064 0.950 . S
C3094 C3093 1.524 . S
C3094 C3095 1.415 . S
C3095 H3065 0.950 . S
C3095 C3090 1.363 . S
C3095 C3094 1.415 . S
H3096 C3093 0.999 . S
H3097 C3078 0.913 . S
H3098 C3116 0.951 . S
H3099 C3118 0.951 . S
H3100 C3120 0.950 . S
H3101 C3121 0.950 . S
H3102 C3123 0.950 . S
H3103 C3126 0.950 . S
H3104 C3127 0.950 . S
H3105 C3129 0.950 . S
H3106 C3130 0.950 . S
H3107 C3131 0.951 . S
H3108 C3133 0.951 . S
H3109 C3135 0.950 . S
H3110 C3136 0.950 . S
H3111 C3138 0.950 . S
H3112 C3141 0.950 . S
H3113 C3142 0.950 . S
H3114 C3144 0.950 . S
H3115 C3145 0.950 . S
C3116 H3098 0.951 . S
C3116 C3117 1.366 . S
C3116 C3118 1.388 . S
C3117 C3116 1.366 . S
C3117 C3121 1.385 . S
C3118 H3099 0.951 . S
C3118 C3116 1.388 . S
C3118 C3119 1.366 . S
C3119 C3118 1.366 . S
C3119 C3120 1.414 . S
C3119 C3122 1.499 . S
C3120 H3100 0.950 . S
C3120 C3119 1.414 . S
C3120 C3121 1.374 . S
C3121 H3101 0.950 . S
C3121 C3117 1.385 . S
C3121 C3120 1.374 . S
C3122 C3119 1.499 . S
C3122 C3123 1.373 . S
C3122 C3124 1.389 . S
C3123 H3102 0.950 . S
C3123 C3122 1.373 . S
C3123 C3139 1.377 . S
C3124 C3122 1.389 . S
C3124 C3125 1.524 . S
C3124 C3138 1.377 . S
C3125 C3124 1.524 . S
C3125 C3126 1.397 . S
C3125 C3130 1.363 . S
C3126 H3103 0.950 . S
C3126 C3125 1.397 . S
C3126 C3127 1.334 . S
C3127 H3104 0.950 . S
C3127 C3126 1.334 . S
C3127 C3128 1.287 . S
C3128 C3127 1.287 . S
C3128 C3129 1.524 . S
C3128 H3147 0.913 . S
C3129 H3105 0.950 . S
C3129 C3128 1.524 . S
C3129 C3130 1.415 . S
C3130 H3106 0.950 . S
C3130 C3125 1.363 . S
C3130 C3129 1.415 . S
C3131 H3107 0.951 . S
C3131 C3132 1.366 . S
C3131 C3133 1.388 . S
C3132 C3131 1.366 . S
C3132 C3136 1.385 . S
C3133 H3108 0.951 . S
C3133 C3131 1.388 . S
C3133 C3134 1.366 . S
C3134 C3133 1.366 . S
C3134 C3135 1.414 . S
C3134 C3137 1.499 . S
C3135 H3109 0.950 . S
C3135 C3134 1.414 . S
C3135 C3136 1.374 . S
C3136 H3110 0.950 . S
C3136 C3132 1.385 . S
C3136 C3135 1.374 . S
C3137 C3134 1.499 . S
C3137 C3138 1.373 . S
C3137 C3139 1.389 . S
C3138 H3111 0.950 . S
C3138 C3124 1.377 . S
C3138 C3137 1.373 . S
C3139 C3123 1.377 . S
C3139 C3137 1.389 . S
C3139 C3140 1.524 . S
C3140 C3139 1.524 . S
C3140 C3141 1.397 . S
C3140 C3145 1.363 . S
C3141 H3112 0.950 . S
C3141 C3140 1.397 . S
C3141 C3142 1.334 . S
C3142 H3113 0.950 . S
C3142 C3141 1.334 . S
C3142 C3143 1.287 . S
C3143 C3142 1.287 . S
C3143 C3144 1.524 . S
C3143 H3146 0.999 . S
C3144 H3114 0.950 . S
C3144 C3143 1.524 . S
C3144 C3145 1.415 . S
C3145 H3115 0.950 . S
C3145 C3140 1.363 . S
C3145 C3144 1.415 . S
H3146 C3143 0.999 . S
H3147 C3128 0.913 . S
H3148 C3166 0.951 . S
H3149 C3168 0.951 . S
H3150 C3170 0.950 . S
H3151 C3171 0.950 . S
H3152 C3173 0.950 . S
H3153 C3176 0.950 . S
H3154 C3177 0.950 . S
H3155 C3179 0.950 . S
H3156 C3180 0.950 . S
H3157 C3181 0.951 . S
H3158 C3183 0.951 . S
H3159 C3185 0.950 . S
H3160 C3186 0.950 . S
H3161 C3188 0.950 . S
H3162 C3191 0.950 . S
H3163 C3192 0.950 . S
H3164 C3194 0.950 . S
H3165 C3195 0.950 . S
C3166 H3148 0.951 . S
C3166 C3167 1.366 . S
C3166 C3168 1.388 . S
C3167 C3166 1.366 . S
C3167 C3171 1.385 . S
C3168 H3149 0.951 . S
C3168 C3166 1.388 . S
C3168 C3169 1.366 . S
C3169 C3168 1.366 . S
C3169 C3170 1.414 . S
C3169 C3172 1.499 . S
C3170 H3150 0.950 . S
C3170 C3169 1.414 . S
C3170 C3171 1.374 . S
C3171 H3151 0.950 . S
C3171 C3167 1.385 . S
C3171 C3170 1.374 . S
C3172 C3169 1.499 . S
C3172 C3173 1.373 . S
C3172 C3174 1.389 . S
C3173 H3152 0.950 . S
C3173 C3172 1.373 . S
C3173 C3189 1.377 . S
C3174 C3172 1.389 . S
C3174 C3175 1.524 . S
C3174 C3188 1.377 . S
C3175 C3174 1.524 . S
C3175 C3176 1.397 . S
C3175 C3180 1.363 . S
C3176 H3153 0.950 . S
C3176 C3175 1.397 . S
C3176 C3177 1.334 . S
C3177 H3154 0.950 . S
C3177 C3176 1.334 . S
C3177 C3178 1.287 . S
C3178 C3177 1.287 . S
C3178 C3179 1.524 . S
C3178 H3197 0.913 . S
C3179 H3155 0.950 . S
C3179 C3178 1.524 . S
C3179 C3180 1.415 . S
C3180 H3156 0.950 . S
C3180 C3175 1.363 . S
C3180 C3179 1.415 . S
C3181 H3157 0.951 . S
C3181 C3182 1.366 . S
C3181 C3183 1.388 . S
C3182 C3181 1.366 . S
C3182 C3186 1.385 . S
C3183 H3158 0.951 . S
C3183 C3181 1.388 . S
C3183 C3184 1.366 . S
C3184 C3183 1.366 . S
C3184 C3185 1.414 . S
C3184 C3187 1.499 . S
C3185 H3159 0.950 . S
C3185 C3184 1.414 . S
C3185 C3186 1.374 . S
C3186 H3160 0.950 . S
C3186 C3182 1.385 . S
C3186 C3185 1.374 . S
C3187 C3184 1.499 . S
C3187 C3188 1.373 . S
C3187 C3189 1.389 . S
C3188 H3161 0.950 . S
C3188 C3174 1.377 . S
C3188 C3187 1.373 . S
C3189 C3173 1.377 . S
C3189 C3187 1.389 . S
C3189 C3190 1.524 . S
C3190 C3189 1.524 . S
C3190 C3191 1.397 . S
C3190 C3195 1.363 . S
C3191 H3162 0.950 . S
C3191 C3190 1.397 . S
C3191 C3192 1.334 . S
C3192 H3163 0.950 . S
C3192 C3191 1.334 . S
C3192 C3193 1.287 . S
C3193 C3192 1.287 . S
C3193 C3194 1.524 . S
C3193 H3196 0.999 . S
C3194 H3164 0.950 . S
C3194 C3193 1.524 . S
C3194 C3195 1.415 . S
C3195 H3165 0.950 . S
C3195 C3190 1.363 . S
C3195 C3194 1.415 . S
H3196 C3193 0.999 . S
H3197 C3178 0.913 . S
H3198 C3216 0.951 . S
H3199 C3218 0.951 . S
H3200 C3220 0.950 . S
H3201 C3221 0.950 . S
H3202 C3223 0.950 . S
H3203 C3226 0.950 . S
H3204 C3227 0.950 . S
H3205 C3229 0.950 . S
H3206 C3230 0.950 . S
H3207 C3231 0.951 . S
H3208 C3233 0.951 . S
H3209 C3235 0.950 . S
H3210 C3236 0.950 . S
H3211 C3238 0.950 . S
H3212 C3241 0.950 . S
H3213 C3242 0.950 . S
H3214 C3244 0.950 . S
H3215 C3245 0.950 . S
C3216 H3198 0.951 . S
C3216 C3217 1.366 . S
C3216 C3218 1.388 . S
C3217 C3216 1.366 . S
C3217 C3221 1.385 . S
C3218 H3199 0.951 . S
C3218 C3216 1.388 . S
C3218 C3219 1.366 . S
C3219 C3218 1.366 . S
C3219 C3220 1.414 . S
C3219 C3222 1.499 . S
C3220 H3200 0.950 . S
C3220 C3219 1.414 . S
C3220 C3221 1.374 . S
C3221 H3201 0.950 . S
C3221 C3217 1.385 . S
C3221 C3220 1.374 . S
C3222 C3219 1.499 . S
C3222 C3223 1.373 . S
C3222 C3224 1.389 . S
C3223 H3202 0.950 . S
C3223 C3222 1.373 . S
C3223 C3239 1.377 . S
C3224 C3222 1.389 . S
C3224 C3225 1.524 . S
C3224 C3238 1.377 . S
C3225 C3224 1.524 . S
C3225 C3226 1.397 . S
C3225 C3230 1.363 . S
C3226 H3203 0.950 . S
C3226 C3225 1.397 . S
C3226 C3227 1.334 . S
C3227 H3204 0.950 . S
C3227 C3226 1.334 . S
C3227 C3228 1.287 . S
C3228 C3227 1.287 . S
C3228 C3229 1.524 . S
C3228 H3247 0.913 . S
C3229 H3205 0.950 . S
C3229 C3228 1.524 . S
C3229 C3230 1.415 . S
C3230 H3206 0.950 . S
C3230 C3225 1.363 . S
C3230 C3229 1.415 . S
C3231 H3207 0.951 . S
C3231 C3232 1.366 . S
C3231 C3233 1.388 . S
C3232 C3231 1.366 . S
C3232 C3236 1.385 . S
C3233 H3208 0.951 . S
C3233 C3231 1.388 . S
C3233 C3234 1.366 . S
C3234 C3233 1.366 . S
C3234 C3235 1.414 . S
C3234 C3237 1.499 . S
C3235 H3209 0.950 . S
C3235 C3234 1.414 . S
C3235 C3236 1.374 . S
C3236 H3210 0.950 . S
C3236 C3232 1.385 . S
C3236 C3235 1.374 . S
C3237 C3234 1.499 . S
C3237 C3238 1.373 . S
C3237 C3239 1.389 . S
C3238 H3211 0.950 . S
C3238 C3224 1.377 . S
C3238 C3237 1.373 . S
C3239 C3223 1.377 . S
C3239 C3237 1.389 . S
C3239 C3240 1.524 . S
C3240 C3239 1.524 . S
C3240 C3241 1.397 . S
C3240 C3245 1.363 . S
C3241 H3212 0.950 . S
C3241 C3240 1.397 . S
C3241 C3242 1.334 . S
C3242 H3213 0.950 . S
C3242 C3241 1.334 . S
C3242 C3243 1.287 . S
C3243 C3242 1.287 . S
C3243 C3244 1.524 . S
C3243 H3246 0.999 . S
C3244 H3214 0.950 . S
C3244 C3243 1.524 . S
C3244 C3245 1.415 . S
C3245 H3215 0.950 . S
C3245 C3240 1.363 . S
C3245 C3244 1.415 . S
H3246 C3243 0.999 . S
H3247 C3228 0.913 . S
H3248 C3266 0.951 . S
H3249 C3268 0.951 . S
H3250 C3270 0.950 . S
H3251 C3271 0.950 . S
H3252 C3273 0.950 . S
H3253 C3276 0.950 . S
H3254 C3277 0.950 . S
H3255 C3279 0.950 . S
H3256 C3280 0.950 . S
H3257 C3281 0.951 . S
H3258 C3283 0.951 . S
H3259 C3285 0.950 . S
H3260 C3286 0.950 . S
H3261 C3288 0.950 . S
H3262 C3291 0.950 . S
H3263 C3292 0.950 . S
H3264 C3294 0.950 . S
H3265 C3295 0.950 . S
C3266 H3248 0.951 . S
C3266 C3267 1.366 . S
C3266 C3268 1.388 . S
C3267 C3266 1.366 . S
C3267 C3271 1.385 . S
C3268 H3249 0.951 . S
C3268 C3266 1.388 . S
C3268 C3269 1.366 . S
C3269 C3268 1.366 . S
C3269 C3270 1.414 . S
C3269 C3272 1.499 . S
C3270 H3250 0.950 . S
C3270 C3269 1.414 . S
C3270 C3271 1.374 . S
C3271 H3251 0.950 . S
C3271 C3267 1.385 . S
C3271 C3270 1.374 . S
C3272 C3269 1.499 . S
C3272 C3273 1.373 . S
C3272 C3274 1.389 . S
C3273 H3252 0.950 . S
C3273 C3272 1.373 . S
C3273 C3289 1.377 . S
C3274 C3272 1.389 . S
C3274 C3275 1.524 . S
C3274 C3288 1.377 . S
C3275 C3274 1.524 . S
C3275 C3276 1.397 . S
C3275 C3280 1.363 . S
C3276 H3253 0.950 . S
C3276 C3275 1.397 . S
C3276 C3277 1.334 . S
C3277 H3254 0.950 . S
C3277 C3276 1.334 . S
C3277 C3278 1.287 . S
C3278 C3277 1.287 . S
C3278 C3279 1.524 . S
C3278 H3297 0.913 . S
C3279 H3255 0.950 . S
C3279 C3278 1.524 . S
C3279 C3280 1.415 . S
C3280 H3256 0.950 . S
C3280 C3275 1.363 . S
C3280 C3279 1.415 . S
C3281 H3257 0.951 . S
C3281 C3282 1.366 . S
C3281 C3283 1.388 . S
C3282 C3281 1.366 . S
C3282 C3286 1.385 . S
C3283 H3258 0.951 . S
C3283 C3281 1.388 . S
C3283 C3284 1.366 . S
C3284 C3283 1.366 . S
C3284 C3285 1.414 . S
C3284 C3287 1.499 . S
C3285 H3259 0.950 . S
C3285 C3284 1.414 . S
C3285 C3286 1.374 . S
C3286 H3260 0.950 . S
C3286 C3282 1.385 . S
C3286 C3285 1.374 . S
C3287 C3284 1.499 . S
C3287 C3288 1.373 . S
C3287 C3289 1.389 . S
C3288 H3261 0.950 . S
C3288 C3274 1.377 . S
C3288 C3287 1.373 . S
C3289 C3273 1.377 . S
C3289 C3287 1.389 . S
C3289 C3290 1.524 . S
C3290 C3289 1.524 . S
C3290 C3291 1.397 . S
C3290 C3295 1.363 . S
C3291 H3262 0.950 . S
C3291 C3290 1.397 . S
C3291 C3292 1.334 . S
C3292 H3263 0.950 . S
C3292 C3291 1.334 . S
C3292 C3293 1.287 . S
C3293 C3292 1.287 . S
C3293 C3294 1.524 . S
C3293 H3296 0.999 . S
C3294 H3264 0.950 . S
C3294 C3293 1.524 . S
C3294 C3295 1.415 . S
C3295 H3265 0.950 . S
C3295 C3290 1.363 . S
C3295 C3294 1.415 . S
H3296 C3293 0.999 . S
H3297 C3278 0.913 . S
H3298 C3316 0.951 . S
H3299 C3318 0.951 . S
H3300 C3320 0.950 . S
H3301 C3321 0.950 . S
H3302 C3323 0.950 . S
H3303 C3326 0.950 . S
H3304 C3327 0.950 . S
H3305 C3329 0.950 . S
H3306 C3330 0.950 . S
H3307 C3331 0.951 . S
H3308 C3333 0.951 . S
H3309 C3335 0.950 . S
H3310 C3336 0.950 . S
H3311 C3338 0.950 . S
H3312 C3341 0.950 . S
H3313 C3342 0.950 . S
H3314 C3344 0.950 . S
H3315 C3345 0.950 . S
C3316 H3298 0.951 . S
C3316 C3317 1.366 . S
C3316 C3318 1.388 . S
C3317 C3316 1.366 . S
C3317 C3321 1.385 . S
C3318 H3299 0.951 . S
C3318 C3316 1.388 . S
C3318 C3319 1.366 . S
C3319 C3318 1.366 . S
C3319 C3320 1.414 . S
C3319 C3322 1.499 . S
C3320 H3300 0.950 . S
C3320 C3319 1.414 . S
C3320 C3321 1.374 . S
C3321 H3301 0.950 . S
C3321 C3317 1.385 . S
C3321 C3320 1.374 . S
C3322 C3319 1.499 . S
C3322 C3323 1.373 . S
C3322 C3324 1.389 . S
C3323 H3302 0.950 . S
C3323 C3322 1.373 . S
C3323 C3339 1.377 . S
C3324 C3322 1.389 . S
C3324 C3325 1.524 . S
C3324 C3338 1.377 . S
C3325 C3324 1.524 . S
C3325 C3326 1.397 . S
C3325 C3330 1.363 . S
C3326 H3303 0.950 . S
C3326 C3325 1.397 . S
C3326 C3327 1.334 . S
C3327 H3304 0.950 . S
C3327 C3326 1.334 . S
C3327 C3328 1.287 . S
C3328 C3327 1.287 . S
C3328 C3329 1.524 . S
C3328 H3347 0.913 . S
C3329 H3305 0.950 . S
C3329 C3328 1.524 . S
C3329 C3330 1.415 . S
C3330 H3306 0.950 . S
C3330 C3325 1.363 . S
C3330 C3329 1.415 . S
C3331 H3307 0.951 . S
C3331 C3332 1.366 . S
C3331 C3333 1.388 . S
C3332 C3331 1.366 . S
C3332 C3336 1.385 . S
C3333 H3308 0.951 . S
C3333 C3331 1.388 . S
C3333 C3334 1.366 . S
C3334 C3333 1.366 . S
C3334 C3335 1.414 . S
C3334 C3337 1.499 . S
C3335 H3309 0.950 . S
C3335 C3334 1.414 . S
C3335 C3336 1.374 . S
C3336 H3310 0.950 . S
C3336 C3332 1.385 . S
C3336 C3335 1.374 . S
C3337 C3334 1.499 . S
C3337 C3338 1.373 . S
C3337 C3339 1.389 . S
C3338 H3311 0.950 . S
C3338 C3324 1.377 . S
C3338 C3337 1.373 . S
C3339 C3323 1.377 . S
C3339 C3337 1.389 . S
C3339 C3340 1.524 . S
C3340 C3339 1.524 . S
C3340 C3341 1.397 . S
C3340 C3345 1.363 . S
C3341 H3312 0.950 . S
C3341 C3340 1.397 . S
C3341 C3342 1.334 . S
C3342 H3313 0.950 . S
C3342 C3341 1.334 . S
C3342 C3343 1.287 . S
C3343 C3342 1.287 . S
C3343 C3344 1.524 . S
C3343 H3346 0.999 . S
C3344 H3314 0.950 . S
C3344 C3343 1.524 . S
C3344 C3345 1.415 . S
C3345 H3315 0.950 . S
C3345 C3340 1.363 . S
C3345 C3344 1.415 . S
H3346 C3343 0.999 . S
H3347 C3328 0.913 . S
H3348 C3366 0.951 . S
H3349 C3368 0.951 . S
H3350 C3370 0.950 . S
H3351 C3371 0.950 . S
H3352 C3373 0.950 . S
H3353 C3376 0.950 . S
H3354 C3377 0.950 . S
H3355 C3379 0.950 . S
H3356 C3380 0.950 . S
H3357 C3381 0.951 . S
H3358 C3383 0.951 . S
H3359 C3385 0.950 . S
H3360 C3386 0.950 . S
H3361 C3388 0.950 . S
H3362 C3391 0.950 . S
H3363 C3392 0.950 . S
H3364 C3394 0.950 . S
H3365 C3395 0.950 . S
C3366 H3348 0.951 . S
C3366 C3367 1.366 . S
C3366 C3368 1.388 . S
C3367 C3366 1.366 . S
C3367 C3371 1.385 . S
C3368 H3349 0.951 . S
C3368 C3366 1.388 . S
C3368 C3369 1.366 . S
C3369 C3368 1.366 . S
C3369 C3370 1.414 . S
C3369 C3372 1.499 . S
C3370 H3350 0.950 . S
C3370 C3369 1.414 . S
C3370 C3371 1.374 . S
C3371 H3351 0.950 . S
C3371 C3367 1.385 . S
C3371 C3370 1.374 . S
C3372 C3369 1.499 . S
C3372 C3373 1.373 . S
C3372 C3374 1.389 . S
C3373 H3352 0.950 . S
C3373 C3372 1.373 . S
C3373 C3389 1.377 . S
C3374 C3372 1.389 . S
C3374 C3375 1.524 . S
C3374 C3388 1.377 . S
C3375 C3374 1.524 . S
C3375 C3376 1.397 . S
C3375 C3380 1.363 . S
C3376 H3353 0.950 . S
C3376 C3375 1.397 . S
C3376 C3377 1.334 . S
C3377 H3354 0.950 . S
C3377 C3376 1.334 . S
C3377 C3378 1.287 . S
C3378 C3377 1.287 . S
C3378 C3379 1.524 . S
C3378 H3397 0.913 . S
C3379 H3355 0.950 . S
C3379 C3378 1.524 . S
C3379 C3380 1.415 . S
C3380 H3356 0.950 . S
C3380 C3375 1.363 . S
C3380 C3379 1.415 . S
C3381 H3357 0.951 . S
C3381 C3382 1.366 . S
C3381 C3383 1.388 . S
C3382 C3381 1.366 . S
C3382 C3386 1.385 . S
C3383 H3358 0.951 . S
C3383 C3381 1.388 . S
C3383 C3384 1.366 . S
C3384 C3383 1.366 . S
C3384 C3385 1.414 . S
C3384 C3387 1.499 . S
C3385 H3359 0.950 . S
C3385 C3384 1.414 . S
C3385 C3386 1.374 . S
C3386 H3360 0.950 . S
C3386 C3382 1.385 . S
C3386 C3385 1.374 . S
C3387 C3384 1.499 . S
C3387 C3388 1.373 . S
C3387 C3389 1.389 . S
C3388 H3361 0.950 . S
C3388 C3374 1.377 . S
C3388 C3387 1.373 . S
C3389 C3373 1.377 . S
C3389 C3387 1.389 . S
C3389 C3390 1.524 . S
C3390 C3389 1.524 . S
C3390 C3391 1.397 . S
C3390 C3395 1.363 . S
C3391 H3362 0.950 . S
C3391 C3390 1.397 . S
C3391 C3392 1.334 . S
C3392 H3363 0.950 . S
C3392 C3391 1.334 . S
C3392 C3393 1.287 . S
C3393 C3392 1.287 . S
C3393 C3394 1.524 . S
C3393 H3396 0.999 . S
C3394 H3364 0.950 . S
C3394 C3393 1.524 . S
C3394 C3395 1.415 . S
C3395 H3365 0.950 . S
C3395 C3390 1.363 . S
C3395 C3394 1.415 . S
H3396 C3393 0.999 . S
H3397 C3378 0.913 . S
H3398 C3416 0.951 . S
H3399 C3418 0.951 . S
H3400 C3420 0.950 . S
H3401 C3421 0.950 . S
H3402 C3423 0.950 . S
H3403 C3426 0.950 . S
H3404 C3427 0.950 . S
H3405 C3429 0.950 . S
H3406 C3430 0.950 . S
H3407 C3431 0.951 . S
H3408 C3433 0.951 . S
H3409 C3435 0.950 . S
H3410 C3436 0.950 . S
H3411 C3438 0.950 . S
H3412 C3441 0.950 . S
H3413 C3442 0.950 . S
H3414 C3444 0.950 . S
H3415 C3445 0.950 . S
C3416 H3398 0.951 . S
C3416 C3417 1.366 . S
C3416 C3418 1.388 . S
C3417 C3416 1.366 . S
C3417 C3421 1.385 . S
C3418 H3399 0.951 . S
C3418 C3416 1.388 . S
C3418 C3419 1.366 . S
C3419 C3418 1.366 . S
C3419 C3420 1.414 . S
C3419 C3422 1.499 . S
C3420 H3400 0.950 . S
C3420 C3419 1.414 . S
C3420 C3421 1.374 . S
C3421 H3401 0.950 . S
C3421 C3417 1.385 . S
C3421 C3420 1.374 . S
C3422 C3419 1.499 . S
C3422 C3423 1.373 . S
C3422 C3424 1.389 . S
C3423 H3402 0.950 . S
C3423 C3422 1.373 . S
C3423 C3439 1.377 . S
C3424 C3422 1.389 . S
C3424 C3425 1.524 . S
C3424 C3438 1.377 . S
C3425 C3424 1.524 . S
C3425 C3426 1.397 . S
C3425 C3430 1.363 . S
C3426 H3403 0.950 . S
C3426 C3425 1.397 . S
C3426 C3427 1.334 . S
C3427 H3404 0.950 . S
C3427 C3426 1.334 . S
C3427 C3428 1.287 . S
C3428 C3427 1.287 . S
C3428 C3429 1.524 . S
C3428 H3447 0.913 . S
C3429 H3405 0.950 . S
C3429 C3428 1.524 . S
C3429 C3430 1.415 . S
C3430 H3406 0.950 . S
C3430 C3425 1.363 . S
C3430 C3429 1.415 . S
C3431 H3407 0.951 . S
C3431 C3432 1.366 . S
C3431 C3433 1.388 . S
C3432 C3431 1.366 . S
C3432 C3436 1.385 . S
C3433 H3408 0.951 . S
C3433 C3431 1.388 . S
C3433 C3434 1.366 . S
C3434 C3433 1.366 . S
C3434 C3435 1.414 . S
C3434 C3437 1.499 . S
C3435 H3409 0.950 . S
C3435 C3434 1.414 . S
C3435 C3436 1.374 . S
C3436 H3410 0.950 . S
C3436 C3432 1.385 . S
C3436 C3435 1.374 . S
C3437 C3434 1.499 . S
C3437 C3438 1.373 . S
C3437 C3439 1.389 . S
C3438 H3411 0.950 . S
C3438 C3424 1.377 . S
C3438 C3437 1.373 . S
C3439 C3423 1.377 . S
C3439 C3437 1.389 . S
C3439 C3440 1.524 . S
C3440 C3439 1.524 . S
C3440 C3441 1.397 . S
C3440 C3445 1.363 . S
C3441 H3412 0.950 . S
C3441 C3440 1.397 . S
C3441 C3442 1.334 . S
C3442 H3413 0.950 . S
C3442 C3441 1.334 . S
C3442 C3443 1.287 . S
C3443 C3442 1.287 . S
C3443 C3444 1.524 . S
C3443 H3446 0.999 . S
C3444 H3414 0.950 . S
C3444 C3443 1.524 . S
C3444 C3445 1.415 . S
C3445 H3415 0.950 . S
C3445 C3440 1.363 . S
C3445 C3444 1.415 . S
H3446 C3443 0.999 . S
H3447 C3428 0.913 . S
H3448 C3466 0.951 . S
H3449 C3468 0.951 . S
H3450 C3470 0.950 . S
H3451 C3471 0.950 . S
H3452 C3473 0.950 . S
H3453 C3476 0.950 . S
H3454 C3477 0.950 . S
H3455 C3479 0.950 . S
H3456 C3480 0.950 . S
H3457 C3481 0.951 . S
H3458 C3483 0.951 . S
H3459 C3485 0.950 . S
H3460 C3486 0.950 . S
H3461 C3488 0.950 . S
H3462 C3491 0.950 . S
H3463 C3492 0.950 . S
H3464 C3494 0.950 . S
H3465 C3495 0.950 . S
C3466 H3448 0.951 . S
C3466 C3467 1.366 . S
C3466 C3468 1.388 . S
C3467 C3466 1.366 . S
C3467 C3471 1.385 . S
C3468 H3449 0.951 . S
C3468 C3466 1.388 . S
C3468 C3469 1.366 . S
C3469 C3468 1.366 . S
C3469 C3470 1.414 . S
C3469 C3472 1.499 . S
C3470 H3450 0.950 . S
C3470 C3469 1.414 . S
C3470 C3471 1.374 . S
C3471 H3451 0.950 . S
C3471 C3467 1.385 . S
C3471 C3470 1.374 . S
C3472 C3469 1.499 . S
C3472 C3473 1.373 . S
C3472 C3474 1.389 . S
C3473 H3452 0.950 . S
C3473 C3472 1.373 . S
C3473 C3489 1.377 . S
C3474 C3472 1.389 . S
C3474 C3475 1.524 . S
C3474 C3488 1.377 . S
C3475 C3474 1.524 . S
C3475 C3476 1.397 . S
C3475 C3480 1.363 . S
C3476 H3453 0.950 . S
C3476 C3475 1.397 . S
C3476 C3477 1.334 . S
C3477 H3454 0.950 . S
C3477 C3476 1.334 . S
C3477 C3478 1.287 . S
C3478 C3477 1.287 . S
C3478 C3479 1.524 . S
C3478 H3497 0.913 . S
C3479 H3455 0.950 . S
C3479 C3478 1.524 . S
C3479 C3480 1.415 . S
C3480 H3456 0.950 . S
C3480 C3475 1.363 . S
C3480 C3479 1.415 . S
C3481 H3457 0.951 . S
C3481 C3482 1.366 . S
C3481 C3483 1.388 . S
C3482 C3481 1.366 . S
C3482 C3486 1.385 . S
C3483 H3458 0.951 . S
C3483 C3481 1.388 . S
C3483 C3484 1.366 . S
C3484 C3483 1.366 . S
C3484 C3485 1.414 . S
C3484 C3487 1.499 . S
C3485 H3459 0.950 . S
C3485 C3484 1.414 . S
C3485 C3486 1.374 . S
C3486 H3460 0.950 . S
C3486 C3482 1.385 . S
C3486 C3485 1.374 . S
C3487 C3484 1.499 . S
C3487 C3488 1.373 . S
C3487 C3489 1.389 . S
C3488 H3461 0.950 . S
C3488 C3474 1.377 . S
C3488 C3487 1.373 . S
C3489 C3473 1.377 . S
C3489 C3487 1.389 . S
C3489 C3490 1.524 . S
C3490 C3489 1.524 . S
C3490 C3491 1.397 . S
C3490 C3495 1.363 . S
C3491 H3462 0.950 . S
C3491 C3490 1.397 . S
C3491 C3492 1.334 . S
C3492 H3463 0.950 . S
C3492 C3491 1.334 . S
C3492 C3493 1.287 . S
C3493 C3492 1.287 . S
C3493 C3494 1.524 . S
C3493 H3496 0.999 . S
C3494 H3464 0.950 . S
C3494 C3493 1.524 . S
C3494 C3495 1.415 . S
C3495 H3465 0.950 . S
C3495 C3490 1.363 . S
C3495 C3494 1.415 . S
H3496 C3493 0.999 . S
H3497 C3478 0.913 . S
H3498 C3516 0.951 . S
H3499 C3518 0.951 . S
H3500 C3520 0.950 . S
H3501 C3521 0.950 . S
H3502 C3523 0.950 . S
H3503 C3526 0.950 . S
H3504 C3527 0.950 . S
H3505 C3529 0.950 . S
H3506 C3530 0.950 . S
H3507 C3531 0.951 . S
H3508 C3533 0.951 . S
H3509 C3535 0.950 . S
H3510 C3536 0.950 . S
H3511 C3538 0.950 . S
H3512 C3541 0.950 . S
H3513 C3542 0.950 . S
H3514 C3544 0.950 . S
H3515 C3545 0.950 . S
C3516 H3498 0.951 . S
C3516 C3517 1.366 . S
C3516 C3518 1.388 . S
C3517 C3516 1.366 . S
C3517 C3521 1.385 . S
C3518 H3499 0.951 . S
C3518 C3516 1.388 . S
C3518 C3519 1.366 . S
C3519 C3518 1.366 . S
C3519 C3520 1.414 . S
C3519 C3522 1.499 . S
C3520 H3500 0.950 . S
C3520 C3519 1.414 . S
C3520 C3521 1.374 . S
C3521 H3501 0.950 . S
C3521 C3517 1.385 . S
C3521 C3520 1.374 . S
C3522 C3519 1.499 . S
C3522 C3523 1.373 . S
C3522 C3524 1.389 . S
C3523 H3502 0.950 . S
C3523 C3522 1.373 . S
C3523 C3539 1.377 . S
C3524 C3522 1.389 . S
C3524 C3525 1.524 . S
C3524 C3538 1.377 . S
C3525 C3524 1.524 . S
C3525 C3526 1.397 . S
C3525 C3530 1.363 . S
C3526 H3503 0.950 . S
C3526 C3525 1.397 . S
C3526 C3527 1.334 . S
C3527 H3504 0.950 . S
C3527 C3526 1.334 . S
C3527 C3528 1.287 . S
C3528 C3527 1.287 . S
C3528 C3529 1.524 . S
C3528 H3547 0.913 . S
C3529 H3505 0.950 . S
C3529 C3528 1.524 . S
C3529 C3530 1.415 . S
C3530 H3506 0.950 . S
C3530 C3525 1.363 . S
C3530 C3529 1.415 . S
C3531 H3507 0.951 . S
C3531 C3532 1.366 . S
C3531 C3533 1.388 . S
C3532 C3531 1.366 . S
C3532 C3536 1.385 . S
C3533 H3508 0.951 . S
C3533 C3531 1.388 . S
C3533 C3534 1.366 . S
C3534 C3533 1.366 . S
C3534 C3535 1.414 . S
C3534 C3537 1.499 . S
C3535 H3509 0.950 . S
C3535 C3534 1.414 . S
C3535 C3536 1.374 . S
C3536 H3510 0.950 . S
C3536 C3532 1.385 . S
C3536 C3535 1.374 . S
C3537 C3534 1.499 . S
C3537 C3538 1.373 . S
C3537 C3539 1.389 . S
C3538 H3511 0.950 . S
C3538 C3524 1.377 . S
C3538 C3537 1.373 . S
C3539 C3523 1.377 . S
C3539 C3537 1.389 . S
C3539 C3540 1.524 . S
C3540 C3539 1.524 . S
C3540 C3541 1.397 . S
C3540 C3545 1.363 . S
C3541 H3512 0.950 . S
C3541 C3540 1.397 . S
C3541 C3542 1.334 . S
C3542 H3513 0.950 . S
C3542 C3541 1.334 . S
C3542 C3543 1.287 . S
C3543 C3542 1.287 . S
C3543 C3544 1.524 . S
C3543 H3546 0.999 . S
C3544 H3514 0.950 . S
C3544 C3543 1.524 . S
C3544 C3545 1.415 . S
C3545 H3515 0.950 . S
C3545 C3540 1.363 . S
C3545 C3544 1.415 . S
H3546 C3543 0.999 . S
H3547 C3528 0.913 . S
H3548 C3566 0.951 . S
H3549 C3568 0.951 . S
H3550 C3570 0.950 . S
H3551 C3571 0.950 . S
H3552 C3573 0.950 . S
H3553 C3576 0.950 . S
H3554 C3577 0.950 . S
H3555 C3579 0.950 . S
H3556 C3580 0.950 . S
H3557 C3581 0.951 . S
H3558 C3583 0.951 . S
H3559 C3585 0.950 . S
H3560 C3586 0.950 . S
H3561 C3588 0.950 . S
H3562 C3591 0.950 . S
H3563 C3592 0.950 . S
H3564 C3594 0.950 . S
H3565 C3595 0.950 . S
C3566 H3548 0.951 . S
C3566 C3567 1.366 . S
C3566 C3568 1.388 . S
C3567 C3566 1.366 . S
C3567 C3571 1.385 . S
C3568 H3549 0.951 . S
C3568 C3566 1.388 . S
C3568 C3569 1.366 . S
C3569 C3568 1.366 . S
C3569 C3570 1.414 . S
C3569 C3572 1.499 . S
C3570 H3550 0.950 . S
C3570 C3569 1.414 . S
C3570 C3571 1.374 . S
C3571 H3551 0.950 . S
C3571 C3567 1.385 . S
C3571 C3570 1.374 . S
C3572 C3569 1.499 . S
C3572 C3573 1.373 . S
C3572 C3574 1.389 . S
C3573 H3552 0.950 . S
C3573 C3572 1.373 . S
C3573 C3589 1.377 . S
C3574 C3572 1.389 . S
C3574 C3575 1.524 . S
C3574 C3588 1.377 . S
C3575 C3574 1.524 . S
C3575 C3576 1.397 . S
C3575 C3580 1.363 . S
C3576 H3553 0.950 . S
C3576 C3575 1.397 . S
C3576 C3577 1.334 . S
C3577 H3554 0.950 . S
C3577 C3576 1.334 . S
C3577 C3578 1.287 . S
C3578 C3577 1.287 . S
C3578 C3579 1.524 . S
C3578 H3597 0.913 . S
C3579 H3555 0.950 . S
C3579 C3578 1.524 . S
C3579 C3580 1.415 . S
C3580 H3556 0.950 . S
C3580 C3575 1.363 . S
C3580 C3579 1.415 . S
C3581 H3557 0.951 . S
C3581 C3582 1.366 . S
C3581 C3583 1.388 . S
C3582 C3581 1.366 . S
C3582 C3586 1.385 . S
C3583 H3558 0.951 . S
C3583 C3581 1.388 . S
C3583 C3584 1.366 . S
C3584 C3583 1.366 . S
C3584 C3585 1.414 . S
C3584 C3587 1.499 . S
C3585 H3559 0.950 . S
C3585 C3584 1.414 . S
C3585 C3586 1.374 . S
C3586 H3560 0.950 . S
C3586 C3582 1.385 . S
C3586 C3585 1.374 . S
C3587 C3584 1.499 . S
C3587 C3588 1.373 . S
C3587 C3589 1.389 . S
C3588 H3561 0.950 . S
C3588 C3574 1.377 . S
C3588 C3587 1.373 . S
C3589 C3573 1.377 . S
C3589 C3587 1.389 . S
C3589 C3590 1.524 . S
C3590 C3589 1.524 . S
C3590 C3591 1.397 . S
C3590 C3595 1.363 . S
C3591 H3562 0.950 . S
C3591 C3590 1.397 . S
C3591 C3592 1.334 . S
C3592 H3563 0.950 . S
C3592 C3591 1.334 . S
C3592 C3593 1.287 . S
C3593 C3592 1.287 . S
C3593 C3594 1.524 . S
C3593 H3596 0.999 . S
C3594 H3564 0.950 . S
C3594 C3593 1.524 . S
C3594 C3595 1.415 . S
C3595 H3565 0.950 . S
C3595 C3590 1.363 . S
C3595 C3594 1.415 . S
H3596 C3593 0.999 . S
H3597 C3578 0.913 . S
H3598 C3616 0.951 . S
H3599 C3618 0.951 . S
H3600 C3620 0.950 . S
H3601 C3621 0.950 . S
H3602 C3623 0.950 . S
H3603 C3626 0.950 . S
H3604 C3627 0.950 . S
H3605 C3629 0.950 . S
H3606 C3630 0.950 . S
H3607 C3631 0.951 . S
H3608 C3633 0.951 . S
H3609 C3635 0.950 . S
H3610 C3636 0.950 . S
H3611 C3638 0.950 . S
H3612 C3641 0.950 . S
H3613 C3642 0.950 . S
H3614 C3644 0.950 . S
H3615 C3645 0.950 . S
C3616 H3598 0.951 . S
C3616 C3617 1.366 . S
C3616 C3618 1.388 . S
C3617 C3616 1.366 . S
C3617 C3621 1.385 . S
C3618 H3599 0.951 . S
C3618 C3616 1.388 . S
C3618 C3619 1.366 . S
C3619 C3618 1.366 . S
C3619 C3620 1.414 . S
C3619 C3622 1.499 . S
C3620 H3600 0.950 . S
C3620 C3619 1.414 . S
C3620 C3621 1.374 . S
C3621 H3601 0.950 . S
C3621 C3617 1.385 . S
C3621 C3620 1.374 . S
C3622 C3619 1.499 . S
C3622 C3623 1.373 . S
C3622 C3624 1.389 . S
C3623 H3602 0.950 . S
C3623 C3622 1.373 . S
C3623 C3639 1.377 . S
C3624 C3622 1.389 . S
C3624 C3625 1.524 . S
C3624 C3638 1.377 . S
C3625 C3624 1.524 . S
C3625 C3626 1.397 . S
C3625 C3630 1.363 . S
C3626 H3603 0.950 . S
C3626 C3625 1.397 . S
C3626 C3627 1.334 . S
C3627 H3604 0.950 . S
C3627 C3626 1.334 . S
C3627 C3628 1.287 . S
C3628 C3627 1.287 . S
C3628 C3629 1.524 . S
C3628 H3647 0.913 . S
C3629 H3605 0.950 . S
C3629 C3628 1.524 . S
C3629 C3630 1.415 . S
C3630 H3606 0.950 . S
C3630 C3625 1.363 . S
C3630 C3629 1.415 . S
C3631 H3607 0.951 . S
C3631 C3632 1.366 . S
C3631 C3633 1.388 . S
C3632 C3631 1.366 . S
C3632 C3636 1.385 . S
C3633 H3608 0.951 . S
C3633 C3631 1.388 . S
C3633 C3634 1.366 . S
C3634 C3633 1.366 . S
C3634 C3635 1.414 . S
C3634 C3637 1.499 . S
C3635 H3609 0.950 . S
C3635 C3634 1.414 . S
C3635 C3636 1.374 . S
C3636 H3610 0.950 . S
C3636 C3632 1.385 . S
C3636 C3635 1.374 . S
C3637 C3634 1.499 . S
C3637 C3638 1.373 . S
C3637 C3639 1.389 . S
C3638 H3611 0.950 . S
C3638 C3624 1.377 . S
C3638 C3637 1.373 . S
C3639 C3623 1.377 . S
C3639 C3637 1.389 . S
C3639 C3640 1.524 . S
C3640 C3639 1.524 . S
C3640 C3641 1.397 . S
C3640 C3645 1.363 . S
C3641 H3612 0.950 . S
C3641 C3640 1.397 . S
C3641 C3642 1.334 . S
C3642 H3613 0.950 . S
C3642 C3641 1.334 . S
C3642 C3643 1.287 . S
C3643 C3642 1.287 . S
C3643 C3644 1.524 . S
C3643 H3646 0.999 . S
C3644 H3614 0.950 . S
C3644 C3643 1.524 . S
C3644 C3645 1.415 . S
C3645 H3615 0.950 . S
C3645 C3640 1.363 . S
C3645 C3644 1.415 . S
H3646 C3643 0.999 . S
H3647 C3628 0.913 . S
H3648 C3666 0.951 . S
H3649 C3668 0.951 . S
H3650 C3670 0.950 . S
H3651 C3671 0.950 . S
H3652 C3673 0.950 . S
H3653 C3676 0.950 . S
H3654 C3677 0.950 . S
H3655 C3679 0.950 . S
H3656 C3680 0.950 . S
H3657 C3681 0.951 . S
H3658 C3683 0.951 . S
H3659 C3685 0.950 . S
H3660 C3686 0.950 . S
H3661 C3688 0.950 . S
H3662 C3691 0.950 . S
H3663 C3692 0.950 . S
H3664 C3694 0.950 . S
H3665 C3695 0.950 . S
C3666 H3648 0.951 . S
C3666 C3667 1.366 . S
C3666 C3668 1.388 . S
C3667 C3666 1.366 . S
C3667 C3671 1.385 . S
C3668 H3649 0.951 . S
C3668 C3666 1.388 . S
C3668 C3669 1.366 . S
C3669 C3668 1.366 . S
C3669 C3670 1.414 . S
C3669 C3672 1.499 . S
C3670 H3650 0.950 . S
C3670 C3669 1.414 . S
C3670 C3671 1.374 . S
C3671 H3651 0.950 . S
C3671 C3667 1.385 . S
C3671 C3670 1.374 . S
C3672 C3669 1.499 . S
C3672 C3673 1.373 . S
C3672 C3674 1.389 . S
C3673 H3652 0.950 . S
C3673 C3672 1.373 . S
C3673 C3689 1.377 . S
C3674 C3672 1.389 . S
C3674 C3675 1.524 . S
C3674 C3688 1.377 . S
C3675 C3674 1.524 . S
C3675 C3676 1.397 . S
C3675 C3680 1.363 . S
C3676 H3653 0.950 . S
C3676 C3675 1.397 . S
C3676 C3677 1.334 . S
C3677 H3654 0.950 . S
C3677 C3676 1.334 . S
C3677 C3678 1.287 . S
C3678 C3677 1.287 . S
C3678 C3679 1.524 . S
C3678 H3697 0.913 . S
C3679 H3655 0.950 . S
C3679 C3678 1.524 . S
C3679 C3680 1.415 . S
C3680 H3656 0.950 . S
C3680 C3675 1.363 . S
C3680 C3679 1.415 . S
C3681 H3657 0.951 . S
C3681 C3682 1.366 . S
C3681 C3683 1.388 . S
C3682 C3681 1.366 . S
C3682 C3686 1.385 . S
C3683 H3658 0.951 . S
C3683 C3681 1.388 . S
C3683 C3684 1.366 . S
C3684 C3683 1.366 . S
C3684 C3685 1.414 . S
C3684 C3687 1.499 . S
C3685 H3659 0.950 . S
C3685 C3684 1.414 . S
C3685 C3686 1.374 . S
C3686 H3660 0.950 . S
C3686 C3682 1.385 . S
C3686 C3685 1.374 . S
C3687 C3684 1.499 . S
C3687 C3688 1.373 . S
C3687 C3689 1.389 . S
C3688 H3661 0.950 . S
C3688 C3674 1.377 . S
C3688 C3687 1.373 . S
C3689 C3673 1.377 . S
C3689 C3687 1.389 . S
C3689 C3690 1.524 . S
C3690 C3689 1.524 . S
C3690 C3691 1.397 . S
C3690 C3695 1.363 . S
C3691 H3662 0.950 . S
C3691 C3690 1.397 . S
C3691 C3692 1.334 . S
C3692 H3663 0.950 . S
C3692 C3691 1.334 . S
C3692 C3693 1.287 . S
C3693 C3692 1.287 . S
C3693 C3694 1.524 . S
C3693 H3696 0.999 . S
C3694 H3664 0.950 . S
C3694 C3693 1.524 . S
C3694 C3695 1.415 . S
C3695 H3665 0.950 . S
C3695 C3690 1.363 . S
C3695 C3694 1.415 . S
H3696 C3693 0.999 . S
H3697 C3678 0.913 . S
H3698 C3716 0.951 . S
H3699 C3718 0.951 . S
H3700 C3720 0.950 . S
H3701 C3721 0.950 . S
H3702 C3723 0.950 . S
H3703 C3726 0.950 . S
H3704 C3727 0.950 . S
H3705 C3729 0.950 . S
H3706 C3730 0.950 . S
H3707 C3731 0.951 . S
H3708 C3733 0.951 . S
H3709 C3735 0.950 . S
H3710 C3736 0.950 . S
H3711 C3738 0.950 . S
H3712 C3741 0.950 . S
H3713 C3742 0.950 . S
H3714 C3744 0.950 . S
H3715 C3745 0.950 . S
C3716 H3698 0.951 . S
C3716 C3717 1.366 . S
C3716 C3718 1.388 . S
C3717 C3716 1.366 . S
C3717 C3721 1.385 . S
C3718 H3699 0.951 . S
C3718 C3716 1.388 . S
C3718 C3719 1.366 . S
C3719 C3718 1.366 . S
C3719 C3720 1.414 . S
C3719 C3722 1.499 . S
C3720 H3700 0.950 . S
C3720 C3719 1.414 . S
C3720 C3721 1.374 . S
C3721 H3701 0.950 . S
C3721 C3717 1.385 . S
C3721 C3720 1.374 . S
C3722 C3719 1.499 . S
C3722 C3723 1.373 . S
C3722 C3724 1.389 . S
C3723 H3702 0.950 . S
C3723 C3722 1.373 . S
C3723 C3739 1.377 . S
C3724 C3722 1.389 . S
C3724 C3725 1.524 . S
C3724 C3738 1.377 . S
C3725 C3724 1.524 . S
C3725 C3726 1.397 . S
C3725 C3730 1.363 . S
C3726 H3703 0.950 . S
C3726 C3725 1.397 . S
C3726 C3727 1.334 . S
C3727 H3704 0.950 . S
C3727 C3726 1.334 . S
C3727 C3728 1.287 . S
C3728 C3727 1.287 . S
C3728 C3729 1.524 . S
C3728 H3747 0.913 . S
C3729 H3705 0.950 . S
C3729 C3728 1.524 . S
C3729 C3730 1.415 . S
C3730 H3706 0.950 . S
C3730 C3725 1.363 . S
C3730 C3729 1.415 . S
C3731 H3707 0.951 . S
C3731 C3732 1.366 . S
C3731 C3733 1.388 . S
C3732 C3731 1.366 . S
C3732 C3736 1.385 . S
C3733 H3708 0.951 . S
C3733 C3731 1.388 . S
C3733 C3734 1.366 . S
C3734 C3733 1.366 . S
C3734 C3735 1.414 . S
C3734 C3737 1.499 . S
C3735 H3709 0.950 . S
C3735 C3734 1.414 . S
C3735 C3736 1.374 . S
C3736 H3710 0.950 . S
C3736 C3732 1.385 . S
C3736 C3735 1.374 . S
C3737 C3734 1.499 . S
C3737 C3738 1.373 . S
C3737 C3739 1.389 . S
C3738 H3711 0.950 . S
C3738 C3724 1.377 . S
C3738 C3737 1.373 . S
C3739 C3723 1.377 . S
C3739 C3737 1.389 . S
C3739 C3740 1.524 . S
C3740 C3739 1.524 . S
C3740 C3741 1.397 . S
C3740 C3745 1.363 . S
C3741 H3712 0.950 . S
C3741 C3740 1.397 . S
C3741 C3742 1.334 . S
C3742 H3713 0.950 . S
C3742 C3741 1.334 . S
C3742 C3743 1.287 . S
C3743 C3742 1.287 . S
C3743 C3744 1.524 . S
C3743 H3746 0.999 . S
C3744 H3714 0.950 . S
C3744 C3743 1.524 . S
C3744 C3745 1.415 . S
C3745 H3715 0.950 . S
C3745 C3740 1.363 . S
C3745 C3744 1.415 . S
H3746 C3743 0.999 . S
H3747 C3728 0.913 . S
H3748 C3766 0.951 . S
H3749 C3768 0.951 . S
H3750 C3770 0.950 . S
H3751 C3771 0.950 . S
H3752 C3773 0.950 . S
H3753 C3776 0.950 . S
H3754 C3777 0.950 . S
H3755 C3779 0.950 . S
H3756 C3780 0.950 . S
H3757 C3781 0.951 . S
H3758 C3783 0.951 . S
H3759 C3785 0.950 . S
H3760 C3786 0.950 . S
H3761 C3788 0.950 . S
H3762 C3791 0.950 . S
H3763 C3792 0.950 . S
H3764 C3794 0.950 . S
H3765 C3795 0.950 . S
C3766 H3748 0.951 . S
C3766 C3767 1.366 . S
C3766 C3768 1.388 . S
C3767 C3766 1.366 . S
C3767 C3771 1.385 . S
C3768 H3749 0.951 . S
C3768 C3766 1.388 . S
C3768 C3769 1.366 . S
C3769 C3768 1.366 . S
C3769 C3770 1.414 . S
C3769 C3772 1.499 . S
C3770 H3750 0.950 . S
C3770 C3769 1.414 . S
C3770 C3771 1.374 . S
C3771 H3751 0.950 . S
C3771 C3767 1.385 . S
C3771 C3770 1.374 . S
C3772 C3769 1.499 . S
C3772 C3773 1.373 . S
C3772 C3774 1.389 . S
C3773 H3752 0.950 . S
C3773 C3772 1.373 . S
C3773 C3789 1.377 . S
C3774 C3772 1.389 . S
C3774 C3775 1.524 . S
C3774 C3788 1.377 . S
C3775 C3774 1.524 . S
C3775 C3776 1.397 . S
C3775 C3780 1.363 . S
C3776 H3753 0.950 . S
C3776 C3775 1.397 . S
C3776 C3777 1.334 . S
C3777 H3754 0.950 . S
C3777 C3776 1.334 . S
C3777 C3778 1.287 . S
C3778 C3777 1.287 . S
C3778 C3779 1.524 . S
C3778 H3797 0.913 . S
C3779 H3755 0.950 . S
C3779 C3778 1.524 . S
C3779 C3780 1.415 . S
C3780 H3756 0.950 . S
C3780 C3775 1.363 . S
C3780 C3779 1.415 . S
C3781 H3757 0.951 . S
C3781 C3782 1.366 . S
C3781 C3783 1.388 . S
C3782 C3781 1.366 . S
C3782 C3786 1.385 . S
C3783 H3758 0.951 . S
C3783 C3781 1.388 . S
C3783 C3784 1.366 . S
C3784 C3783 1.366 . S
C3784 C3785 1.414 . S
C3784 C3787 1.499 . S
C3785 H3759 0.950 . S
C3785 C3784 1.414 . S
C3785 C3786 1.374 . S
C3786 H3760 0.950 . S
C3786 C3782 1.385 . S
C3786 C3785 1.374 . S
C3787 C3784 1.499 . S
C3787 C3788 1.373 . S
C3787 C3789 1.389 . S
C3788 H3761 0.950 . S
C3788 C3774 1.377 . S
C3788 C3787 1.373 . S
C3789 C3773 1.377 . S
C3789 C3787 1.389 . S
C3789 C3790 1.524 . S
C3790 C3789 1.524 . S
C3790 C3791 1.397 . S
C3790 C3795 1.363 . S
C3791 H3762 0.950 . S
C3791 C3790 1.397 . S
C3791 C3792 1.334 . S
C3792 H3763 0.950 . S
C3792 C3791 1.334 . S
C3792 C3793 1.287 . S
C3793 C3792 1.287 . S
C3793 C3794 1.524 . S
C3793 H3796 0.999 . S
C3794 H3764 0.950 . S
C3794 C3793 1.524 . S
C3794 C3795 1.415 . S
C3795 H3765 0.950 . S
C3795 C3790 1.363 . S
C3795 C3794 1.415 . S
H3796 C3793 0.999 . S
H3797 C3778 0.913 . S
C1117 C253 1.441 . S
C1132 C409 1.386 . S
C1167 C272 1.473 . S
C1182 C493 1.421 . S
C1217 C234 1.425 . S
C1232 C573 1.430 . S
C1267 C215 1.407 . S
C1282 C489 1.411 1_556 S
C1332 C577 1.374 . S
C1317 C177 1.427 . S
C1367 C196 1.380 . S
C1382 C405 1.380 1_556 S
C1432 C398 1.484 . S
C1417 C220 1.464 . S
C1482 C482 1.507 . S
C1467 C182 1.487 . S
C1517 C201 1.480 . S
C1532 C584 1.523 . S
C1567 C258 1.444 . S
C1582 C500 1.485 . S
C1617 C277 1.432 . S
C1632 C566 1.449 . S
C1682 C416 1.466 . S
C1667 C239 1.423 . S
C1732 C661 1.387 . S
C1717 C25 1.440 . S
C1767 C44 1.473 . S
C1782 C745 1.421 . S
C1817 C6 1.426 . S
C1832 C825 1.430 . S
C1867 C329 1.407 . S
C1882 C741 1.411 . S
C1917 C291 1.427 . S
C1932 C829 1.369 . S
C1967 C310 1.379 . S
C1982 C657 1.383 . S
C2017 C334 1.464 . S
C2032 C650 1.484 . S
C2067 C296 1.487 . S
C2082 C734 1.507 . S
C2132 C836 1.523 . S
C2117 C315 1.480 . S
C2167 C30 1.443 . S
C2182 C752 1.484 . S
C2232 C818 1.449 . S
C2217 C49 1.432 . S
C2267 C11 1.424 . S
C2282 C668 1.467 . S
C2332 C913 1.386 . S
C2317 C139 1.441 . S
C2367 C158 1.473 . S
C2382 C997 1.420 . S
C2432 C1077 1.430 . S
C2417 C120 1.426 . S
C2482 C993 1.411 . S
C2467 C101 1.407 . S
C2532 C1081 1.369 . S
C2517 C63 1.427 . S
C2567 C82 1.380 . S
C2582 C909 1.383 . S
C2617 C106 1.463 . S
C2632 C902 1.484 . S
C2667 C68 1.487 . S
C2682 C986 1.507 . S
C2732 C1088 1.523 . S
C2717 C87 1.480 . S
C2767 C144 1.444 . S
C2782 C1004 1.485 . S
C2817 C163 1.433 . S
C2832 C1070 1.449 . S
C2867 C125 1.423 . S
C2882 C920 1.467 . S
C2917 C287 1.652 . S
C2932 C412 1.528 . S
C2982 C496 1.596 . S
C2967 C306 1.743 . S
C3017 C325 1.665 . S
C3032 C568 1.466 . S
C3067 C116 1.702 . S
C3082 C484 1.491 . S
C3117 C135 1.687 . S
C3132 C580 1.548 . S
C3182 C400 1.425 . S
C3167 C154 1.610 . S
C3217 C59 1.652 . S
C3232 C664 1.528 . S
C3267 C78 1.743 . S
C3282 C748 1.596 . S
C3317 C97 1.665 . S
C3332 C820 1.466 . S
C3367 C230 1.702 . S
C3382 C736 1.491 . S
C3432 C832 1.548 . S
C3417 C249 1.688 . S
C3467 C268 1.610 . S
C3482 C652 1.426 . S
C3517 C173 1.652 . S
C3532 C916 1.527 . S
C3567 C192 1.743 . S
C3582 C1000 1.596 . S
C3632 C1072 1.465 . S
C3617 C211 1.664 . S
C3667 C2 1.702 . S
C3682 C988 1.490 . S
C3717 C21 1.687 . S
C3732 C1084 1.548 . S
C3767 C40 1.610 . S
C3782 C904 1.426 . S
