# Generated by pormake.
# Topology nom, (4,4)-cn, num edge types: 1
# Building blocks:
#     Node 0, Type 0, BuildingBlock: AZAVOO_clean_linker_0, # of connection points: 4
#     Node 1, Type 0, BuildingBlock: AZAVOO_clean_linker_0, # of connection points: 4
#     Node 2, Type 0, BuildingBlock: AZAVOO_clean_linker_0, # of connection points: 4
#     Node 3, Type 0, BuildingBlock: AZAVOO_clean_linker_0, # of connection points: 4
#     Node 4, Type 0, BuildingBlock: AZAVOO_clean_linker_0, # of connection points: 4
#     Node 5, Type 0, BuildingBlock: AZAVOO_clean_linker_0, # of connection points: 4
#     Node 6, Type 1, BuildingBlock: QUQFOY_clean_sbu_3, # of connection points: 4
#     Node 7, Type 1, BuildingBlock: QUQFOY_clean_sbu_3, # of connection points: 4
#     Node 8, Type 1, BuildingBlock: QUQFOY_clean_sbu_3, # of connection points: 4
#     Node 9, Type 1, BuildingBlock: QUQFOY_clean_sbu_3, # of connection points: 4
#     Node 10, Type 1, BuildingBlock: QUQFOY_clean_sbu_3, # of connection points: 4
#     Node 11, Type 1, BuildingBlock: QUQFOY_clean_sbu_3, # of connection points: 4
#     Edge 12, Type (0, 1), BuildingBlock: UVAHIK_clean_linker_0, # of connection points: 2
#     Edge 13, Type (0, 1), BuildingBlock: UVAHIK_clean_linker_0, # of connection points: 2
#     Edge 14, Type (0, 1), BuildingBlock: UVAHIK_clean_linker_0, # of connection points: 2
#     Edge 15, Type (0, 1), BuildingBlock: UVAHIK_clean_linker_0, # of connection points: 2
#     Edge 16, Type (0, 1), BuildingBlock: UVAHIK_clean_linker_0, # of connection points: 2
#     Edge 17, Type (0, 1), BuildingBlock: UVAHIK_clean_linker_0, # of connection points: 2
#     Edge 18, Type (0, 1), BuildingBlock: UVAHIK_clean_linker_0, # of connection points: 2
#     Edge 19, Type (0, 1), BuildingBlock: UVAHIK_clean_linker_0, # of connection points: 2
#     Edge 20, Type (0, 1), BuildingBlock: UVAHIK_clean_linker_0, # of connection points: 2
#     Edge 21, Type (0, 1), BuildingBlock: UVAHIK_clean_linker_0, # of connection points: 2
#     Edge 22, Type (0, 1), BuildingBlock: UVAHIK_clean_linker_0, # of connection points: 2
#     Edge 23, Type (0, 1), BuildingBlock: UVAHIK_clean_linker_0, # of connection points: 2
#     Edge 24, Type (0, 1), BuildingBlock: UVAHIK_clean_linker_0, # of connection points: 2
#     Edge 25, Type (0, 1), BuildingBlock: UVAHIK_clean_linker_0, # of connection points: 2
#     Edge 26, Type (0, 1), BuildingBlock: UVAHIK_clean_linker_0, # of connection points: 2
#     Edge 27, Type (0, 1), BuildingBlock: UVAHIK_clean_linker_0, # of connection points: 2
#     Edge 28, Type (0, 1), BuildingBlock: UVAHIK_clean_linker_0, # of connection points: 2
#     Edge 29, Type (0, 1), BuildingBlock: UVAHIK_clean_linker_0, # of connection points: 2
#     Edge 30, Type (0, 1), BuildingBlock: UVAHIK_clean_linker_0, # of connection points: 2
#     Edge 31, Type (0, 1), BuildingBlock: UVAHIK_clean_linker_0, # of connection points: 2
#     Edge 32, Type (0, 1), BuildingBlock: UVAHIK_clean_linker_0, # of connection points: 2
#     Edge 33, Type (0, 1), BuildingBlock: UVAHIK_clean_linker_0, # of connection points: 2
#     Edge 34, Type (0, 1), BuildingBlock: UVAHIK_clean_linker_0, # of connection points: 2
#     Edge 35, Type (0, 1), BuildingBlock: UVAHIK_clean_linker_0, # of connection points: 2
# Relax obj value: 0.136
# Max RMSD: 0.228
# Mean RMSD: 0.148
data_MOF--net-nom--node1-QUQFOY_clean_sbu_3--node2-AZAVOO_clean_linker_0--edge1-UVAHIK_clean_linker_0
_symmetry_space_group_name_H-M    P1
_symmetry_Int_Tables_number       1
_symmetry_cell_setting            triclinic
loop_
_symmetry_equiv_pos_as_xyz
'x, y, z'
_cell_length_a     59.552776
_cell_length_b     62.656089
_cell_length_c     75.47139
_cell_angle_alpha  89.771473
_cell_angle_beta   89.993929
_cell_angle_gamma 121.20859
loop_
_atom_site_label
_atom_site_type_symbol
_atom_site_fract_x
_atom_site_fract_y
_atom_site_fract_z
_atom_type_partial_charge
H0 H 0.05221 0.46932 0.19244 0.0
H1 H 0.17888 0.60221 0.36598 0.0
H2 H 0.98845 0.44388 0.28197 0.0
H3 H 0.95656 0.42469 0.25796 0.0
H4 H 0.94892 0.48954 0.25564 0.0
H5 H 0.98079 0.50857 0.27982 0.0
H6 H 0.05137 0.47223 0.26991 0.0
H7 H 0.05444 0.46626 0.23815 0.0
H8 H 0.02771 0.51717 0.22659 0.0
H9 H 0.02516 0.52326 0.25836 0.0
H10 H 0.10091 0.50848 0.29623 0.0
H11 H 0.14465 0.53693 0.28362 0.0
H12 H 0.11708 0.5842 0.26376 0.0
H13 H 0.07382 0.55564 0.27599 0.0
H14 H 0.0754 0.49612 0.33715 0.0
H15 H 0.11403 0.51764 0.35626 0.0
H16 H 0.13024 0.58857 0.3352 0.0
H17 H 0.09136 0.56682 0.31635 0.0
H18 H 0.01666 0.47163 0.34777 0.0
H19 H 0.0239 0.47844 0.37977 0.0
H20 H 0.05203 0.55672 0.37193 0.0
H21 H 0.04464 0.54971 0.34009 0.0
H22 H 0.96194 0.45098 0.31614 0.0
H23 H 0.92018 0.44514 0.32677 0.0
H24 H 0.95841 0.52459 0.33596 0.0
H25 H -0.00098 0.5303 0.32408 0.0
O26 O 0.051 0.47205 0.20493 0.0
O27 O 0.03683 0.49807 0.19971 0.0
O28 O 0.15432 0.55628 0.36896 0.0
O29 O 0.16362 0.59322 0.35849 0.0
C30 C 0.0106 0.4913 0.29372 0.0
C31 C 0.03555 0.50113 0.2857 0.0
C32 C 0.05852 0.51475 0.29588 0.0
C33 C 0.0566 0.51676 0.31433 0.0
C34 C 0.03171 0.50723 0.32233 0.0
C35 C 0.00871 0.49552 0.31189 0.0
C36 C 0.98687 0.47757 0.28258 0.0
C37 C 0.97917 0.45353 0.2767 0.0
C38 C 0.96098 0.44262 0.263 0.0
C39 C 0.95048 0.45575 0.25488 0.0
C40 C 0.9569 0.47913 0.26162 0.0
C41 C 0.97487 0.48991 0.27548 0.0
C42 C 0.03775 0.49793 0.2664 0.0
C43 C 0.04625 0.4821 0.26048 0.0
C44 C 0.04794 0.4787 0.24234 0.0
C45 C 0.0412 0.49115 0.22983 0.0
C46 C 0.03294 0.50722 0.23586 0.0
C47 C 0.03136 0.51066 0.25399 0.0
C48 C 0.08423 0.52997 0.28689 0.0
C49 C 0.10436 0.52479 0.28887 0.0
C50 C 0.12929 0.54111 0.28176 0.0
C51 C 0.13437 0.56281 0.2726 0.0
C52 C 0.11382 0.56744 0.27034 0.0
C53 C 0.08905 0.55118 0.27739 0.0
C54 C 0.08073 0.52991 0.3253 0.0
C55 C 0.0874 0.5163 0.33665 0.0
C56 C 0.10944 0.52864 0.34755 0.0
C57 C 0.12525 0.55484 0.34724 0.0
C58 C 0.11854 0.56839 0.33575 0.0
C59 C 0.09642 0.55603 0.32491 0.0
C60 C 0.0302 0.51019 0.34168 0.0
C61 C 0.02358 0.49006 0.35307 0.0
C62 C 0.02791 0.49402 0.37128 0.0
C63 C 0.03872 0.51815 0.3783 0.0
C64 C 0.04344 0.53789 0.36694 0.0
C65 C 0.03929 0.53395 0.34876 0.0
C66 C 0.98358 0.49106 0.3194 0.0
C67 C 0.96114 0.46706 0.32039 0.0
C68 C 0.93737 0.46377 0.32662 0.0
C69 C 0.93577 0.48442 0.33212 0.0
C70 C 0.95858 0.50829 0.33146 0.0
C71 C 0.98204 0.51158 0.32495 0.0
C72 C 0.04285 0.48737 0.21058 0.0
C73 C 0.14857 0.56806 0.3589 0.0
H74 H 0.49312 0.07695 0.36671 0.0
H75 H 0.43349 0.1584 0.54159 0.0
H76 H 0.47843 0.02336 0.45623 0.0
H77 H 0.48276 -0.00357 0.43491 0.0
H78 H 0.39841 0.9482 0.43354 0.0
H79 H 0.39415 0.97563 0.45481 0.0
H80 H 0.48925 0.07214 0.44414 0.0
H81 H 0.49876 0.07886 0.41238 0.0
H82 H 0.41608 0.03052 0.40111 0.0
H83 H 0.40683 0.02422 0.43293 0.0
H84 H 0.49326 0.10173 0.47447 0.0
H85 H 0.5127 0.14361 0.46206 0.0
H86 H 0.43809 0.1233 0.43835 0.0
H87 H 0.4191 0.08089 0.45038 0.0
H88 H 0.47754 0.08627 0.51232 0.0
H89 H 0.48254 0.11963 0.53176 0.0
H90 H 0.41112 0.11146 0.51036 0.0
H91 H 0.40623 0.0779 0.49114 0.0
H92 H 0.46431 0.03404 0.51896 0.0
H93 H 0.46638 0.03938 0.55089 0.0
H94 H 0.39123 0.03468 0.54998 0.0
H95 H 0.39029 0.03078 0.51768 0.0
H96 H 0.45403 0.99169 0.49201 0.0
H97 H 0.43685 0.95039 0.50554 0.0
H98 H 0.36062 0.94257 0.51074 0.0
H99 H 0.37803 0.98382 0.49743 0.0
O100 O 0.48891 0.07412 0.3792 0.0
O101 O 0.44622 0.04898 0.37412 0.0
O102 O 0.46854 0.14866 0.54465 0.0
O103 O 0.43204 0.14534 0.53401 0.0
C104 C 0.43398 0.02019 0.46769 0.0
C105 C 0.44152 0.04365 0.46008 0.0
C106 C 0.44372 0.06301 0.47081 0.0
C107 C 0.43803 0.05887 0.48906 0.0
C108 C 0.4298 0.03522 0.49657 0.0
C109 C 0.42734 0.01573 0.48584 0.0
C110 C 0.43599 0.00155 0.45688 0.0
C111 C 0.46089 0.0068 0.45151 0.0
C112 C 0.46334 0.99148 0.43935 0.0
C113 C 0.44091 0.97043 0.43252 0.0
C114 C 0.41597 0.9643 0.4387 0.0
C115 C 0.41351 0.97989 0.45078 0.0
C116 C 0.44733 0.04793 0.44081 0.0
C117 C 0.47321 0.06324 0.43479 0.0
C118 C 0.47859 0.06693 0.41664 0.0
C119 C 0.45817 0.05527 0.4042 0.0
C120 C 0.43226 0.03982 0.41033 0.0
C121 C 0.42691 0.03619 0.42848 0.0
C122 C 0.45481 0.08843 0.46337 0.0
C123 C 0.48114 0.10639 0.46663 0.0
C124 C 0.49213 0.13035 0.4596 0.0
C125 C 0.4769 0.13696 0.44934 0.0
C126 C 0.45043 0.11879 0.44606 0.0
C127 C 0.43949 0.09465 0.453 0.0
C128 C 0.44143 0.0796 0.50045 0.0
C129 C 0.46297 0.09168 0.51191 0.0
C130 C 0.46579 0.11074 0.52296 0.0
C131 C 0.44718 0.11817 0.52264 0.0
C132 C 0.42578 0.10617 0.51096 0.0
C133 C 0.42295 0.08705 0.49995 0.0
C134 C 0.42726 0.03218 0.51607 0.0
C135 C 0.44798 0.03349 0.52574 0.0
C136 C 0.44902 0.03645 0.54407 0.0
C137 C 0.42909 0.03777 0.55314 0.0
C138 C 0.40724 0.03437 0.54345 0.0
C139 C 0.40646 0.03181 0.52503 0.0
C140 C 0.41721 0.99063 0.49367 0.0
C141 C 0.4336 0.98094 0.496 0.0
C142 C 0.42375 0.95738 0.50371 0.0
C143 C 0.39738 0.94323 0.50928 0.0
C144 C 0.38111 0.95312 0.50688 0.0
C145 C 0.39095 0.97659 0.49917 0.0
C146 C 0.46396 0.0592 0.38494 0.0
C147 C 0.45 0.13831 0.53444 0.0
H148 H 0.6149 0.57774 0.76316 0.0
H149 H 0.56718 0.43712 0.58991 0.0
H150 H 0.57803 0.60947 0.67605 0.0
H151 H 0.56891 0.6328 0.69789 0.0
H152 H 0.48782 0.57238 0.70017 0.0
H153 H 0.49703 0.54984 0.67786 0.0
H154 H 0.60593 0.57547 0.68591 0.0
H155 H 0.6176 0.58048 0.71735 0.0
H156 H 0.53519 0.5377 0.73121 0.0
H157 H 0.52384 0.53257 0.69974 0.0
H158 H 0.60968 0.53832 0.65718 0.0
H159 H 0.62161 0.50893 0.66897 0.0
H160 H 0.5456 0.46698 0.69434 0.0
H161 H 0.53405 0.49637 0.68265 0.0
H162 H 0.59616 0.54931 0.61841 0.0
H163 H 0.60557 0.52384 0.59882 0.0
H164 H 0.54017 0.45701 0.62164 0.0
H165 H 0.53083 0.48273 0.64101 0.0
H166 H 0.57098 0.57881 0.60929 0.0
H167 H 0.5672 0.57112 0.57744 0.0
H168 H 0.49913 0.49767 0.5866 0.0
H169 H 0.50417 0.50515 0.61849 0.0
H170 H 0.54626 0.60648 0.64135 0.0
H171 H 0.51436 0.61815 0.63258 0.0
H172 H 0.45548 0.54007 0.626 0.0
H173 H 0.48673 0.52874 0.63594 0.0
O174 O 0.60986 0.57551 0.75081 0.0
O175 O 0.56723 0.55359 0.75722 0.0
O176 O 0.59728 0.48256 0.58619 0.0
O177 O 0.56397 0.44763 0.59755 0.0
C178 C 0.5445 0.56272 0.66405 0.0
C179 C 0.55714 0.55092 0.67147 0.0
C180 C 0.56244 0.53556 0.66083 0.0
C181 C 0.55676 0.53341 0.64255 0.0
C182 C 0.54403 0.54514 0.63522 0.0
C183 C 0.53694 0.55899 0.64607 0.0
C184 C 0.53819 0.57801 0.6755 0.0
C185 C 0.55821 0.60161 0.68104 0.0
C186 C 0.55297 0.61479 0.69358 0.0
C187 C 0.52768 0.60439 0.70092 0.0
C188 C 0.50742 0.58117 0.69464 0.0
C189 C 0.51264 0.56814 0.68198 0.0
C190 C 0.56406 0.55389 0.69057 0.0
C191 C 0.59045 0.56721 0.69577 0.0
C192 C 0.59705 0.57005 0.71373 0.0
C193 C 0.57733 0.55957 0.7268 0.0
C194 C 0.55087 0.5461 0.72149 0.0
C195 C 0.54432 0.54323 0.70354 0.0
C196 C 0.57106 0.5195 0.66915 0.0
C197 C 0.59581 0.52293 0.66547 0.0
C198 C 0.60251 0.50609 0.67213 0.0
C199 C 0.58456 0.48565 0.68262 0.0
C200 C 0.56006 0.48274 0.68659 0.0
C201 C 0.55338 0.49948 0.67989 0.0
C202 C 0.5629 0.51784 0.63114 0.0
C203 C 0.58394 0.52916 0.61916 0.0
C204 C 0.58925 0.51457 0.608 0.0
C205 C 0.57361 0.48836 0.60867 0.0
C206 C 0.5526 0.47711 0.62079 0.0
C207 C 0.54727 0.49174 0.6319 0.0
C208 C 0.53795 0.54248 0.61609 0.0
C209 C 0.5549 0.56132 0.60432 0.0
C210 C 0.55258 0.5569 0.58612 0.0
C211 C 0.53304 0.53361 0.57944 0.0
C212 C 0.51475 0.51558 0.5913 0.0
C213 C 0.51739 0.51988 0.6095 0.0
C214 C 0.51886 0.56675 0.6392 0.0
C215 C 0.52645 0.59198 0.63799 0.0
C216 C 0.50823 0.59859 0.63286 0.0
C217 C 0.48221 0.58005 0.62873 0.0
C218 C 0.47509 0.55487 0.62946 0.0
C219 C 0.4931 0.54832 0.63485 0.0
C220 C 0.58439 0.56265 0.74587 0.0
C221 C 0.57908 0.47278 0.59677 0.0
H222 H 0.03644 0.42669 0.9298 0.0
H223 H 0.17267 0.50417 0.75042 0.0
H224 H 0.97909 0.43677 0.84166 0.0
H225 H 0.94382 0.41687 0.86351 0.0
H226 H 0.93233 0.34491 0.85001 0.0
H227 H 0.96774 0.36516 0.82784 0.0
H228 H 0.0385 0.45897 0.85668 0.0
H229 H 0.04021 0.4527 0.88857 0.0
H230 H 0.01468 0.37529 0.87928 0.0
H231 H 0.01334 0.38193 0.84741 0.0
H232 H 0.08437 0.48717 0.8274 0.0
H233 H 0.12782 0.50348 0.84057 0.0
H234 H 0.11182 0.42829 0.84691 0.0
H235 H 0.06851 0.41209 0.83336 0.0
H236 H 0.06675 0.49171 0.79077 0.0
H237 H 0.10668 0.517 0.7733 0.0
H238 H 0.12162 0.45641 0.77431 0.0
H239 H 0.08138 0.43116 0.79155 0.0
H240 H 0.00817 0.46732 0.78292 0.0
H241 H 0.01788 0.48791 0.75389 0.0
H242 H 0.04497 0.4399 0.73533 0.0
H243 H 0.03493 0.4193 0.7643 0.0
H244 H 0.95848 0.42879 0.8078 0.0
H245 H 0.91447 0.40502 0.79501 0.0
H246 H 0.93772 0.36024 0.76583 0.0
H247 H 0.9811 0.38323 0.77945 0.0
O248 O 0.03575 0.42878 0.91715 0.0
O249 O 0.02246 0.38911 0.91167 0.0
O250 O 0.14803 0.52504 0.75702 0.0
O251 O 0.15678 0.49457 0.75732 0.0
C252 C -0.00019 0.41529 0.82217 0.0
C253 C 0.0244 0.42478 0.83048 0.0
C254 C 0.0477 0.43877 0.82061 0.0
C255 C 0.04649 0.44402 0.80255 0.0
C256 C 0.02185 0.43456 0.79423 0.0
C257 C -0.00152 0.41971 0.80394 0.0
C258 C 0.97573 0.40235 0.83313 0.0
C259 C 0.96847 0.41664 0.84308 0.0
C260 C 0.94833 0.40523 0.85553 0.0
C261 C 0.93531 0.37933 0.85841 0.0
C262 C 0.9421 0.36491 0.84804 0.0
C263 C 0.9621 0.37636 0.83535 0.0
C264 C 0.02573 0.42089 0.84979 0.0
C265 C 0.03338 0.44071 0.86158 0.0
C266 C 0.03429 0.43705 0.87978 0.0
C267 C 0.02753 0.41348 0.88649 0.0
C268 C 0.01996 0.39367 0.87457 0.0
C269 C 0.01912 0.39739 0.85637 0.0
C270 C 0.07347 0.4485 0.82931 0.0
C271 C 0.09031 0.47425 0.83158 0.0
C272 C 0.11503 0.4835 0.83907 0.0
C273 C 0.12312 0.4671 0.84463 0.0
C274 C 0.10594 0.44126 0.84279 0.0
C275 C 0.08131 0.43203 0.83507 0.0
C276 C 0.07112 0.45957 0.79232 0.0
C277 C 0.07862 0.48391 0.78714 0.0
C278 C 0.10147 0.49833 0.7772 0.0
C279 C 0.11734 0.48871 0.77239 0.0
C280 C 0.10985 0.46438 0.77777 0.0
C281 C 0.08692 0.44993 0.78764 0.0
C282 C 0.02096 0.44192 0.77568 0.0
C283 C 0.0153 0.46068 0.77237 0.0
C284 C 0.02114 0.47259 0.75587 0.0
C285 C 0.03251 0.46574 0.74243 0.0
C286 C 0.03607 0.4455 0.74537 0.0
C287 C 0.03034 0.43368 0.76189 0.0
C288 C 0.97279 0.40742 0.79479 0.0
C289 C 0.95398 0.41381 0.79868 0.0
C290 C 0.92895 0.40037 0.79119 0.0
C291 C 0.92245 0.38052 0.77952 0.0
C292 C 0.94185 0.37503 0.77506 0.0
C293 C 0.96673 0.38829 0.78268 0.0
C294 C 0.0284 0.40963 0.90584 0.0
C295 C 0.14161 0.50394 0.76179 0.0
H296 H 0.38842 0.98049 0.86622 0.0
H297 H 0.39886 0.84005 0.0257 0.0
H298 H 0.42543 0.03242 0.95332 0.0
H299 H 0.44653 0.06643 0.9316 0.0
H300 H 0.52139 0.07386 0.94301 0.0
H301 H 0.49998 0.03912 0.96382 0.0
H302 H 0.38699 0.97237 0.94351 0.0
H303 H 0.37971 0.97297 0.91164 0.0
H304 H 0.46236 0.00262 0.90211 0.0
H305 H 0.46927 0.00156 0.93397 0.0
H306 H 0.37256 0.9236 0.96897 0.0
H307 H 0.35688 0.8829 0.95506 0.0
H308 H 0.43421 0.91087 0.93281 0.0
H309 H 0.44939 0.95113 0.94652 0.0
H310 H 0.38527 0.93756 0.00921 0.0
H311 H 0.36991 0.89749 0.02411 0.0
H312 H 0.434 0.89378 0.00054 0.0
H313 H 0.44924 0.93394 0.98587 0.0
H314 H 0.41642 0.98419 0.02685 0.0
H315 H 0.42664 0.97902 0.05736 0.0
H316 H 0.496 0.98002 0.03878 0.0
H317 H 0.48414 0.98293 0.00837 0.0
H318 H 0.44156 0.04278 0.00042 0.0
H319 H 0.47071 0.08089 0.01727 0.0
H320 H 0.5323 0.06395 0.01428 0.0
H321 H 0.50342 0.02646 -0.00269 0.0
O322 O 0.39173 0.98039 0.87876 0.0
O323 O 0.43443 0.99588 0.8746 0.0
O324 O 0.37204 0.85882 0.03193 0.0
O325 O 0.40453 0.85593 0.02003 0.0
C326 C 0.44788 0.00922 0.96995 0.0
C327 C 0.4329 0.9867 0.96043 0.0
C328 C 0.42307 0.96353 0.96913 0.0
C329 C 0.42747 0.96278 0.98743 0.0
C330 C 0.44244 0.98516 -0.0031 0.0
C331 C 0.45278 0.00839 0.98818 0.0
C332 C 0.46116 0.03332 0.96018 0.0
C333 C 0.44649 0.04186 0.95142 0.0
C334 C 0.45859 0.06133 0.93907 0.0
C335 C 0.48557 0.07259 0.93542 0.0
C336 C 0.50049 0.06526 0.9453 0.0
C337 C 0.48836 0.04567 0.95744 0.0
C338 C 0.42868 0.9872 0.94105 0.0
C339 C 0.40348 0.97899 0.93451 0.0
C340 C 0.39939 0.97937 0.9163 0.0
C341 C 0.42048 0.98793 0.90433 0.0
C342 C 0.44571 0.996 0.91097 0.0
C343 C 0.44974 0.99552 0.92916 0.0
C344 C 0.41205 0.94028 0.95865 0.0
C345 C 0.38584 0.92098 0.96074 0.0
C346 C 0.377 0.89778 0.95287 0.0
C347 C 0.39429 0.89363 0.94281 0.0
C348 C 0.4202 0.91349 0.94014 0.0
C349 C 0.42897 0.93655 0.94801 0.0
C350 C 0.41826 0.93852 -0.00355 0.0
C351 C 0.39596 0.92805 0.00733 0.0
C352 C 0.38723 0.90517 0.01579 0.0
C353 C 0.40071 0.8924 0.01349 0.0
C354 C 0.42315 0.90308 0.00258 0.0
C355 C 0.43187 0.92598 -0.00583 0.0
C356 C 0.44965 0.98408 0.01551 0.0
C357 C 0.43383 0.98335 0.02949 0.0
C358 C 0.43991 0.98063 0.04692 0.0
C359 C 0.46222 0.97908 0.05067 0.0
C360 C 0.47838 0.98059 0.0365 0.0
C361 C 0.47187 0.98261 0.0191 0.0
C362 C 0.47029 0.03171 -0.00206 0.0
C363 C 0.46136 0.0474 0.00344 0.0
C364 C 0.47797 0.06906 0.01302 0.0
C365 C 0.50359 0.07511 0.01731 0.0
C366 C 0.51246 0.05944 0.01154 0.0
C367 C 0.49602 0.03805 0.00185 0.0
C368 C 0.41608 0.98835 0.885 0.0
C369 C 0.39149 0.86806 0.0224 0.0
H370 H 0.62279 0.60447 0.01848 0.0
H371 H 0.68856 0.5271 0.20356 0.0
H372 H 0.57513 0.61181 0.12031 0.0
H373 H 0.56238 0.63465 0.10069 0.0
H374 H 0.64426 0.68945 0.09108 0.0
H375 H 0.65678 0.66591 0.11056 0.0
H376 H 0.59437 0.58854 0.09358 0.0
H377 H 0.59838 0.5913 0.06127 0.0
H378 H 0.68298 0.63367 0.06611 0.0
H379 H 0.67865 0.63097 0.09843 0.0
H380 H 0.61202 0.55091 0.10743 0.0
H381 H 0.62796 0.52578 0.09362 0.0
H382 H 0.70589 0.57719 0.11337 0.0
H383 H 0.68981 0.60218 0.127 0.0
H384 H 0.61077 0.53937 0.14604 0.0
H385 H 0.62187 0.51253 0.16275 0.0
H386 H 0.68831 0.57793 0.18572 0.0
H387 H 0.67716 0.60454 0.16875 0.0
H388 H 0.58908 0.56194 0.17231 0.0
H389 H 0.58535 0.55425 0.20425 0.0
H390 H 0.64974 0.62967 0.21283 0.0
H391 H 0.65371 0.63694 0.18073 0.0
H392 H 0.57191 0.59879 0.16022 0.0
H393 H 0.55263 0.62071 0.17438 0.0
H394 H 0.62458 0.69108 0.1651 0.0
H395 H 0.64386 0.66888 0.15126 0.0
O396 O 0.62168 0.60365 0.03128 0.0
O397 O 0.66507 0.62532 0.03446 0.0
O398 O 0.64945 0.50425 0.18451 0.0
O399 O 0.68378 0.53726 0.19675 0.0
C400 C 0.62414 0.62151 0.12693 0.0
C401 C 0.6336 0.60802 0.1179 0.0
C402 C 0.63988 0.59246 0.12749 0.0
C403 C 0.6364 0.59011 0.14603 0.0
C404 C 0.62633 0.60316 0.15496 0.0
C405 C 0.62035 0.61899 0.14545 0.0
C406 C 0.61681 0.63721 0.11675 0.0
C407 C 0.59028 0.62901 0.11424 0.0
C408 C 0.58307 0.64223 0.10311 0.0
C409 C 0.60233 0.66395 0.09432 0.0
C410 C 0.62899 0.67269 0.09752 0.0
C411 C 0.63617 0.65936 0.10864 0.0
C412 C 0.63622 0.60961 0.0983 0.0
C413 C 0.61374 0.59848 0.08762 0.0
C414 C 0.61609 0.60005 0.06918 0.0
C415 C 0.641 0.61272 0.0611 0.0
C416 C 0.6635 0.62378 0.0719 0.0
C417 C 0.6611 0.62224 0.09035 0.0
C418 C 0.64983 0.57829 0.11815 0.0
C419 C 0.63257 0.55681 0.10857 0.0
C420 C 0.64165 0.54246 0.10081 0.0
C421 C 0.66814 0.54957 0.10244 0.0
C422 C 0.68545 0.57145 0.11173 0.0
C423 C 0.67632 0.58566 0.11957 0.0
C424 C 0.64323 0.57386 0.15615 0.0
C425 C 0.6278 0.54784 0.1546 0.0
C426 C 0.63414 0.53257 0.1642 0.0
C427 C 0.656 0.54309 0.17557 0.0
C428 C 0.67137 0.56921 0.17709 0.0
C429 C 0.66504 0.58446 0.16744 0.0
C430 C 0.62182 0.59988 0.1743 0.0
C431 C 0.6021 0.57688 0.18114 0.0
C432 C 0.59987 0.57261 0.19937 0.0
C433 C 0.61735 0.59134 0.21102 0.0
C434 C 0.63621 0.61483 0.20413 0.0
C435 C 0.63842 0.61906 0.18587 0.0
C436 C 0.60925 0.63228 0.15476 0.0
C437 C 0.58357 0.61891 0.16144 0.0
C438 C 0.57255 0.63147 0.16939 0.0
C439 C 0.58708 0.65763 0.1708 0.0
C440 C 0.61302 0.67091 0.16438 0.0
C441 C 0.62399 0.65832 0.15639 0.0
C442 C 0.64342 0.61433 0.0415 0.0
C443 C 0.66279 0.52696 0.18584 0.0
C444 C 0.70805 0.48012 0.40047 0.0
O445 O 0.71067 0.49976 0.40732 0.0
Cd446 Cd 0.67425 0.50437 0.41558 0.0
O447 O 0.68534 0.46123 0.39766 0.0
Cd448 Cd 0.63883 0.44807 0.40142 0.0
C449 C 0.64435 0.49395 0.37492 0.0
O450 O 0.64042 0.46753 0.42975 0.0
O451 O 0.60487 0.45316 0.41432 0.0
O452 O 0.63074 0.40881 0.41295 0.0
C453 C 0.61726 0.4635 0.42841 0.0
O454 O 0.65608 0.50841 0.38792 0.0
C455 C 0.61332 0.39507 0.40176 0.0
O456 O 0.63773 0.47105 0.37542 0.0
O457 O 0.60782 0.40606 0.38986 0.0
C458 C 0.26627 0.60082 0.56874 0.0
O459 O 0.24763 0.5805 0.56253 0.0
Cd460 Cd 0.20694 0.57476 0.55168 0.0
O461 O 0.26436 0.62012 0.56963 0.0
Cd462 Cd 0.23225 0.63283 0.56248 0.0
C463 C 0.18575 0.58909 0.58984 0.0
O464 O 0.21669 0.61055 0.53451 0.0
O465 O 0.19538 0.62718 0.54467 0.0
O466 O 0.26933 0.67172 0.55174 0.0
C467 C 0.19835 0.61501 0.53247 0.0
O468 O 0.18292 0.5734 0.57805 0.0
C469 C 0.26477 0.68596 0.56095 0.0
O470 O 0.20362 0.61207 0.58837 0.0
O471 O 0.24507 0.67547 0.57133 0.0
C472 C 0.65129 0.22347 0.73049 0.0
O473 O 0.6415 0.20027 0.72797 0.0
Cd474 Cd 0.59512 0.17121 0.72543 0.0
O475 O 0.63655 0.23261 0.73129 0.0
Cd476 Cd 0.58967 0.21955 0.72902 0.0
C477 C 0.57477 0.18211 0.7652 0.0
O478 O 0.57865 0.18951 0.70526 0.0
O479 O 0.54625 0.1912 0.71654 0.0
O480 O 0.6038 0.25839 0.713 0.0
C481 C 0.55434 0.18192 0.70512 0.0
O482 O 0.57861 0.16768 0.75553 0.0
C483 C 0.59264 0.266 0.72336 0.0
O484 O 0.5782 0.20255 0.75906 0.0
O485 O 0.57997 0.2519 0.73636 0.0
C486 C 0.38708 0.59 0.9082 0.0
O487 O 0.40075 0.58032 0.91167 0.0
Cd488 Cd 0.44709 0.60759 0.91604 0.0
O489 O 0.39781 0.61357 0.90692 0.0
Cd490 Cd 0.44032 0.65275 0.90916 0.0
C491 C 0.46512 0.63613 0.87548 0.0
O492 O 0.45228 0.64017 0.936 0.0
O493 O 0.483 0.67457 0.92417 0.0
O494 O 0.41424 0.66863 0.92149 0.0
C495 C 0.47474 0.65976 0.93732 0.0
O496 O 0.46506 0.62026 0.88609 0.0
C497 C 0.42364 0.68782 0.91164 0.0
O498 O 0.45638 0.64985 0.88036 0.0
O499 O 0.4412 0.69095 0.90059 0.0
C500 C 0.78343 0.40557 0.05472 0.0
O501 O 0.80599 0.41695 0.04753 0.0
Cd502 Cd 0.82995 0.39716 0.04118 0.0
O503 O 0.77229 0.38241 0.05856 0.0
Cd504 Cd 0.78086 0.34762 0.05558 0.0
C505 C 0.83288 0.37766 0.08321 0.0
O506 O 0.79792 0.36012 0.02611 0.0
O507 O 0.80274 0.33083 0.03671 0.0
O508 O 0.73392 0.32261 0.0501 0.0
C509 C 0.80435 0.3441 0.02347 0.0
O510 O 0.84483 0.39251 0.07036 0.0
C511 C 0.72981 0.30435 0.05982 0.0
O512 O 0.80916 0.35997 0.08155 0.0
O513 O 0.74954 0.30628 0.06783 0.0
C514 C 0.37642 0.79039 0.23936 0.0
O515 O 0.37421 0.80908 0.2358 0.0
Cd516 Cd 0.41012 0.85112 0.23175 0.0
O517 O 0.39892 0.79265 0.24052 0.0
Cd518 Cd 0.4462 0.82455 0.23691 0.0
C519 C 0.44297 0.85793 0.27117 0.0
O520 O 0.43797 0.8449 0.21313 0.0
O521 O 0.4788 0.86256 0.22013 0.0
O522 O 0.44763 0.79048 0.22307 0.0
C523 C 0.46131 0.86241 0.21048 0.0
O524 O 0.43052 0.86432 0.26083 0.0
C525 C 0.46836 0.79438 0.23078 0.0
O526 O 0.44964 0.84251 0.26634 0.0
O527 O 0.47881 0.8123 0.24175 0.0
C528 C 0.16479 0.59512 0.25067 0.0
C529 C 0.16124 0.58168 0.26645 0.0
C530 C 0.18924 0.61579 0.24641 0.0
C531 C 0.25961 0.6485 0.25351 0.0
H532 H 0.25637 0.7086 0.24988 0.0
C533 C 0.35323 0.74694 0.25168 0.0
C534 C 0.35253 0.76559 0.24176 0.0
C535 C 0.33045 0.72359 0.25409 0.0
C536 C 0.25771 0.69203 0.25047 0.0
H537 H 0.18118 0.57847 0.28948 0.0
H538 H 0.22422 0.61423 0.28161 0.0
H539 H 0.21618 0.66849 0.25398 0.0
H540 H 0.32777 0.77422 0.22604 0.0
H541 H 0.28844 0.73331 0.22949 0.0
H542 H 0.30104 0.67183 0.24949 0.0
C543 C 0.20784 0.60876 0.27272 0.0
C544 C 0.23464 0.66907 0.25293 0.0
C545 C 0.18323 0.58825 0.27716 0.0
C546 C 0.3288 0.76031 0.23399 0.0
C547 C 0.30619 0.73685 0.23607 0.0
C548 C 0.28274 0.67149 0.25068 0.0
C549 C 0.21077 0.62316 0.25764 0.0
C550 C 0.23539 0.64715 0.25451 0.0
C551 C 0.30659 0.71823 0.24634 0.0
C552 C 0.28209 0.69359 0.24916 0.0
H553 H 0.14842 0.59019 0.2419 0.0
H554 H 0.19118 0.62648 0.23458 0.0
H555 H 0.26058 0.63175 0.25468 0.0
H556 H 0.37127 0.75055 0.25789 0.0
H557 H 0.33152 0.70994 0.26232 0.0
C558 C 0.50728 0.18315 0.45231 0.0
C559 C 0.48886 0.16275 0.44217 0.0
C560 C 0.52009 0.20722 0.44528 0.0
C561 C 0.51607 0.24837 0.41346 0.0
H562 H 0.59195 0.28617 0.4177 0.0
C563 C 0.57983 0.35206 0.39116 0.0
C564 C 0.59965 0.36759 0.40315 0.0
C565 C 0.56631 0.32607 0.39326 0.0
C566 C 0.57077 0.27595 0.41649 0.0
H567 H 0.46882 0.15194 0.41682 0.0
H568 H 0.49079 0.19446 0.40475 0.0
H569 H 0.56732 0.24254 0.42685 0.0
H570 H 0.62094 0.36809 0.42664 0.0
H571 H 0.59726 0.32323 0.43046 0.0
H572 H 0.51941 0.28214 0.40386 0.0
C573 C 0.49538 0.19149 0.41809 0.0
C574 C 0.55672 0.25096 0.42168 0.0
C575 C 0.48276 0.16723 0.42505 0.0
C576 C 0.60589 0.35668 0.4171 0.0
C577 C 0.5924 0.33087 0.41922 0.0
C578 C 0.53015 0.27356 0.40844 0.0
C579 C 0.51452 0.21158 0.42805 0.0
C580 C 0.52923 0.23713 0.42061 0.0
C581 C 0.57241 0.31521 0.40737 0.0
C582 C 0.55762 0.28778 0.41035 0.0
H583 H 0.51194 0.18054 0.46571 0.0
H584 H 0.5344 0.22252 0.45335 0.0
H585 H 0.49485 0.23804 0.41255 0.0
H586 H 0.57461 0.35995 0.38028 0.0
H587 H 0.55113 0.3145 0.38385 0.0
C588 C 0.46863 0.60764 0.61362 0.0
C589 C 0.46218 0.58658 0.62408 0.0
C590 C 0.44926 0.61285 0.60872 0.0
C591 C 0.38008 0.59491 0.61905 0.0
H592 H 0.38158 0.6187 0.57129 0.0
C593 C 0.28905 0.5801 0.58128 0.0
C594 C 0.29021 0.60192 0.57533 0.0
C595 C 0.31144 0.5811 0.58795 0.0
C596 C 0.38113 0.61228 0.58471 0.0
H597 H 0.43043 0.55517 0.63823 0.0
H598 H 0.39675 0.56331 0.62892 0.0
H599 H 0.41844 0.61539 0.58191 0.0
H600 H 0.31576 0.64181 0.57135 0.0
H601 H 0.35529 0.64332 0.5825 0.0
H602 H 0.34199 0.59043 0.62133 0.0
C603 C 0.41675 0.57623 0.62475 0.0
C604 C 0.40227 0.61051 0.59087 0.0
C605 C 0.43608 0.57125 0.62983 0.0
C606 C 0.31431 0.62472 0.57592 0.0
C607 C 0.33687 0.62561 0.58222 0.0
C608 C 0.35879 0.59619 0.61275 0.0
C609 C 0.42298 0.59702 0.61405 0.0
C610 C 0.40182 0.60136 0.60804 0.0
C611 C 0.3355 0.60383 0.58843 0.0
C612 C 0.359 0.60456 0.59548 0.0
H613 H 0.48849 0.61982 0.60889 0.0
H614 H 0.45492 0.62924 0.60068 0.0
H615 H 0.37928 0.58846 0.6325 0.0
H616 H 0.27074 0.56229 0.58105 0.0
H617 H 0.31003 0.56407 0.59261 0.0
C618 C 0.88374 0.33883 0.77141 0.0
C619 C 0.89526 0.36483 0.77269 0.0
C620 C 0.85792 0.32382 0.76561 0.0
C621 C 0.80428 0.32553 0.74203 0.0
H622 H 0.76058 0.2623 0.76617 0.0
C623 C 0.69127 0.26589 0.7347 0.0
C624 C 0.67991 0.23992 0.73325 0.0
C625 C 0.71802 0.2813 0.7383 0.0
C626 C 0.77262 0.27977 0.75916 0.0
H627 H 0.88868 0.39545 0.76854 0.0
H628 H 0.84327 0.36913 0.75894 0.0
H629 H 0.8062 0.28904 0.77496 0.0
H630 H 0.68792 0.20985 0.73407 0.0
H631 H 0.7346 0.23678 0.74039 0.0
H632 H 0.77034 0.31632 0.72647 0.0
C633 C 0.8544 0.3604 0.76217 0.0
C634 C 0.79879 0.29509 0.76417 0.0
C635 C 0.88034 0.37547 0.76788 0.0
C636 C 0.69601 0.22976 0.73514 0.0
C637 C 0.72272 0.24516 0.73885 0.0
C638 C 0.77801 0.31024 0.73709 0.0
C639 C 0.84283 0.33437 0.76108 0.0
C640 C 0.81498 0.31814 0.75565 0.0
C641 C 0.73394 0.27105 0.74065 0.0
C642 C 0.76194 0.28718 0.74559 0.0
H643 H 0.89449 0.32993 0.77523 0.0
H644 H 0.84978 0.30388 0.7647 0.0
H645 H 0.81629 0.34301 0.73503 0.0
H646 H 0.67945 0.27435 0.73329 0.0
H647 H 0.72609 0.30116 0.73974 0.0
C648 C 0.39599 0.86496 0.92048 0.0
C649 C 0.3866 0.86826 0.9367 0.0
C650 C 0.39334 0.84208 0.91634 0.0
C651 C 0.38795 0.78821 0.93976 0.0
H652 H 0.38437 0.76347 0.89219 0.0
C653 C 0.39657 0.70249 0.92643 0.0
C654 C 0.41462 0.70568 0.91315 0.0
C655 C 0.38861 0.71974 0.92833 0.0
C656 C 0.38541 0.77022 0.90553 0.0
H657 H 0.36522 0.84949 0.96068 0.0
H658 H 0.35965 0.80931 0.95312 0.0
H659 H 0.37633 0.79752 0.89699 0.0
H660 H 0.43795 0.72906 0.89116 0.0
H661 H 0.42409 0.75933 0.89455 0.0
H662 H 0.39739 0.76122 0.94827 0.0
C663 C 0.36975 0.82463 0.94382 0.0
C664 C 0.38082 0.78969 0.9083 0.0
C665 C 0.3726 0.84759 0.94803 0.0
C666 C 0.42408 0.72616 0.90154 0.0
C667 C 0.41599 0.74336 0.90339 0.0
C668 C 0.39233 0.76867 0.93701 0.0
C669 C 0.38102 0.8219 0.92827 0.0
C670 C 0.38251 0.79922 0.92541 0.0
C671 C 0.39842 0.74047 0.91694 0.0
C672 C 0.39155 0.75976 0.91985 0.0
H673 H 0.40647 0.88042 0.91132 0.0
H674 H 0.40235 0.84073 0.90427 0.0
H675 H 0.38999 0.79538 0.95307 0.0
H676 H 0.38881 0.68682 0.93553 0.0
H677 H 0.37486 0.71693 0.93879 0.0
C678 C 0.70171 0.54473 0.08604 0.0
C679 C 0.67766 0.53379 0.09511 0.0
C680 C 0.71178 0.53015 0.08041 0.0
C681 C 0.69461 0.46522 0.07214 0.0
H682 H 0.76885 0.49283 0.08072 0.0
C683 C 0.74524 0.40753 0.06676 0.0
C684 C 0.77008 0.41942 0.05859 0.0
C685 C 0.73296 0.42089 0.07057 0.0
C686 C 0.74816 0.48496 0.07805 0.0
H687 H 0.64496 0.499 0.10509 0.0
H688 H 0.66267 0.47349 0.09539 0.0
H689 H 0.74903 0.51723 0.08801 0.0
H690 H 0.80125 0.45456 0.04771 0.0
H691 H 0.77978 0.47769 0.05423 0.0
H692 H 0.69384 0.43279 0.06232 0.0
C693 C 0.67357 0.49327 0.0924 0.0
C694 C 0.7368 0.49896 0.08219 0.0
C695 C 0.66344 0.50787 0.09797 0.0
C696 C 0.78221 0.44484 0.05413 0.0
C697 C 0.76997 0.45815 0.05793 0.0
C698 C 0.706 0.45115 0.06801 0.0
C699 C 0.69808 0.50434 0.08384 0.0
C700 C 0.70994 0.48932 0.07922 0.0
C701 C 0.74532 0.44639 0.0663 0.0
C702 C 0.73293 0.46096 0.07086 0.0
H703 H 0.71286 0.56462 0.08342 0.0
H704 H 0.73045 0.53914 0.07351 0.0
H705 H 0.6739 0.45736 0.06957 0.0
H706 H 0.73535 0.38796 0.07036 0.0
H707 H 0.71405 0.4114 0.07716 0.0
C708 C 0.39305 0.90117 0.51039 0.0
C709 C 0.38665 0.91812 0.51738 0.0
C710 C 0.38175 0.87707 0.51741 0.0
C711 C 0.32344 0.83017 0.54194 0.0
H712 H 0.36292 0.79706 0.54715 0.0
C713 C 0.27509 0.72915 0.5684 0.0
C714 C 0.28106 0.7134 0.55898 0.0
C715 C 0.28953 0.75496 0.56548 0.0
C716 C 0.35159 0.806 0.54568 0.0
H717 H 0.36426 0.9234 0.53773 0.0
H718 H 0.34448 0.88132 0.54991 0.0
H719 H 0.38544 0.84073 0.53789 0.0
H720 H 0.30726 0.71243 0.53945 0.0
H721 H 0.33209 0.75721 0.53422 0.0
H722 H 0.2895 0.79536 0.54932 0.0
C723 C 0.3579 0.88653 0.53882 0.0
C724 C 0.3645 0.83101 0.54037 0.0
C725 C 0.36921 0.91063 0.53182 0.0
C726 C 0.30216 0.72404 0.54695 0.0
C727 C 0.31654 0.74977 0.54403 0.0
C728 C 0.31053 0.80515 0.5472 0.0
C729 C 0.36381 0.86939 0.53156 0.0
C730 C 0.35051 0.84329 0.53825 0.0
C731 C 0.31022 0.76553 0.55309 0.0
C732 C 0.32438 0.79267 0.54892 0.0
H733 H 0.40616 0.90625 0.49913 0.0
H734 H 0.38646 0.8642 0.51138 0.0
H735 H 0.31203 0.83898 0.5402 0.0
H736 H 0.25901 0.72152 0.57781 0.0
H737 H 0.28437 0.76662 0.57285 0.0
C738 C 0.60226 0.45759 0.67705 0.0
C739 C 0.59052 0.46652 0.68865 0.0
C740 C 0.60521 0.43768 0.68205 0.0
C741 C 0.57517 0.38304 0.71133 0.0
H742 H 0.63665 0.37943 0.70011 0.0
C743 C 0.58354 0.29907 0.73275 0.0
C744 C 0.59426 0.29009 0.72038 0.0
C745 C 0.5848 0.3217 0.72982 0.0
C746 C 0.61924 0.38006 0.70319 0.0
H747 H 0.57411 0.46253 0.71497 0.0
H748 H 0.57914 0.42768 0.72364 0.0
H749 H 0.63648 0.41752 0.69343 0.0
H750 H 0.61485 0.29783 0.69528 0.0
H751 H 0.61657 0.33703 0.68997 0.0
H752 H 0.55763 0.3455 0.7207 0.0
C753 C 0.58565 0.43583 0.71058 0.0
C754 C 0.61919 0.4019 0.6994 0.0
C755 C 0.58278 0.45577 0.70561 0.0
C756 C 0.60645 0.30428 0.70508 0.0
C757 C 0.6076 0.32685 0.7021 0.0
C758 C 0.57516 0.36119 0.71503 0.0
C759 C 0.59642 0.42626 0.69873 0.0
C760 C 0.59711 0.40358 0.70338 0.0
C761 C 0.5967 0.33579 0.7144 0.0
C762 C 0.59714 0.35938 0.71094 0.0
H763 H 0.60813 0.46526 0.66381 0.0
H764 H 0.61336 0.43056 0.67258 0.0
H765 H 0.55768 0.3836 0.71427 0.0
H766 H 0.57416 0.28863 0.74473 0.0
H767 H 0.57656 0.32821 0.7397 0.0
C768 C 0.15349 0.46766 0.86783 0.0
C769 C 0.1497 0.4771 0.85194 0.0
C770 C 0.17863 0.47806 0.87503 0.0
C771 C 0.24348 0.53616 0.87336 0.0
H772 H 0.26778 0.49657 0.89672 0.0
C773 C 0.34752 0.5499 0.89855 0.0
C774 C 0.35862 0.5742 0.90522 0.0
C775 C 0.32099 0.53631 0.8938 0.0
C776 C 0.26131 0.50784 0.89015 0.0
H777 H 0.16908 0.50379 0.83064 0.0
H778 H 0.21296 0.52158 0.84293 0.0
H779 H 0.22381 0.47593 0.88384 0.0
H780 H 0.35047 0.60262 0.9135 0.0
H781 H 0.30419 0.57868 0.90591 0.0
H782 H 0.28106 0.5679 0.87889 0.0
C783 C 0.19655 0.50673 0.85017 0.0
C784 C 0.23603 0.49606 0.88295 0.0
C785 C 0.17147 0.49652 0.84309 0.0
C786 C 0.3425 0.58409 0.90807 0.0
C787 C 0.31601 0.57041 0.90363 0.0
C788 C 0.26868 0.54786 0.8804 0.0
C789 C 0.20039 0.49793 0.86637 0.0
C790 C 0.22693 0.51012 0.87438 0.0
C791 C 0.30513 0.54671 0.89588 0.0
C792 C 0.27793 0.53389 0.88889 0.0
H793 H 0.13693 0.45273 0.87492 0.0
H794 H 0.1809 0.47101 0.88761 0.0
H795 H 0.23695 0.54761 0.86713 0.0
H796 H 0.35958 0.54188 0.89623 0.0
H797 H 0.31327 0.51817 0.88778 0.0
C798 C 0.52496 0.12111 0.02225 0.0
C799 C 0.5216 0.09803 0.02727 0.0
C800 C 0.54455 0.14315 0.03008 0.0
C801 C 0.60862 0.16753 0.05122 0.0
H802 H 0.60394 0.22623 0.05904 0.0
C803 C 0.69955 0.26083 0.07093 0.0
C804 C 0.70355 0.28147 0.06093 0.0
C805 C 0.67531 0.23844 0.07058 0.0
C806 C 0.60553 0.20998 0.0569 0.0
H807 H 0.53459 0.0796 0.0453 0.0
H808 H 0.56859 0.11801 0.05913 0.0
H809 H 0.56436 0.18657 0.05174 0.0
H810 H 0.68496 0.29524 0.04336 0.0
H811 H 0.6429 0.25617 0.04253 0.0
H812 H 0.64979 0.19093 0.05578 0.0
C813 C 0.55657 0.1192 0.04885 0.0
C814 C 0.58288 0.18729 0.05272 0.0
C815 C 0.53711 0.09723 0.04097 0.0
C816 C 0.68252 0.27963 0.05118 0.0
C817 C 0.65832 0.25728 0.05082 0.0
C818 C 0.6312 0.19015 0.05539 0.0
C819 C 0.56105 0.14247 0.04313 0.0
C820 C 0.58428 0.16592 0.04952 0.0
C821 C 0.6546 0.23627 0.06021 0.0
C822 C 0.63002 0.21175 0.05794 0.0
H823 H 0.51337 0.12226 0.01164 0.0
H824 H 0.54764 0.16078 0.02525 0.0
H825 H 0.6105 0.15156 0.04853 0.0
H826 H 0.71533 0.26173 0.07868 0.0
H827 H 0.67294 0.22268 0.07816 0.0
C828 C 0.5889 0.69118 0.18998 0.0
C829 C 0.57486 0.67107 0.17833 0.0
C830 C 0.57753 0.70424 0.1966 0.0
C831 C 0.52616 0.71824 0.18627 0.0
H832 H 0.5326 0.7374 0.23567 0.0
C833 C 0.4671 0.7588 0.21506 0.0
C834 C 0.48014 0.77925 0.22654 0.0
C835 C 0.47874 0.74533 0.21004 0.0
C836 C 0.53088 0.73242 0.2218 0.0
H837 H 0.53794 0.64892 0.16448 0.0
H838 H 0.51802 0.6715 0.17617 0.0
H839 H 0.55301 0.7145 0.2252 0.0
H840 H 0.51538 0.80126 0.24211 0.0
H841 H 0.53594 0.77785 0.23316 0.0
H842 H 0.50427 0.73623 0.18275 0.0
C843 C 0.53786 0.67727 0.18011 0.0
C844 C 0.54255 0.7193 0.21582 0.0
C845 C 0.54917 0.66417 0.17357 0.0
C846 C 0.50484 0.78557 0.23325 0.0
C847 C 0.51656 0.7721 0.22818 0.0
C848 C 0.5146 0.73139 0.19222 0.0
C849 C 0.55197 0.69755 0.1916 0.0
C850 C 0.54013 0.71192 0.19801 0.0
C851 C 0.50377 0.75203 0.21632 0.0
C852 C 0.51662 0.73847 0.21008 0.0
H853 H 0.60867 0.69679 0.194 0.0
H854 H 0.58894 0.71989 0.20534 0.0
H855 H 0.5244 0.71326 0.1724 0.0
H856 H 0.44796 0.75332 0.20975 0.0
H857 H 0.46812 0.72966 0.20118 0.0
C858 C 0.89256 0.46061 0.34846 0.0
C859 C 0.91056 0.48145 0.33834 0.0
C860 C 0.86949 0.45864 0.35487 0.0
C861 C 0.82742 0.48653 0.34954 0.0
H862 H 0.80194 0.45792 0.39619 0.0
C863 C 0.75483 0.50156 0.3904 0.0
C864 C 0.73143 0.47942 0.39488 0.0
C865 C 0.77621 0.50069 0.38369 0.0
C866 C 0.80887 0.46586 0.38312 0.0
H867 H 0.91763 0.51604 0.32645 0.0
H868 H 0.8787 0.51344 0.33845 0.0
H869 H 0.83988 0.45816 0.38362 0.0
H870 H 0.71235 0.43912 0.39651 0.0
H871 H 0.75022 0.43777 0.38532 0.0
H872 H 0.79702 0.49521 0.34954 0.0
C873 C 0.88188 0.49823 0.34117 0.0
C874 C 0.83044 0.46584 0.37582 0.0
C875 C 0.90462 0.49998 0.33453 0.0
C876 C 0.73013 0.45647 0.3931 0.0
C877 C 0.75173 0.45566 0.38677 0.0
C878 C 0.80626 0.48702 0.35701 0.0
C879 C 0.86399 0.47759 0.35148 0.0
C880 C 0.84015 0.47634 0.35895 0.0
C881 C 0.77475 0.47773 0.38174 0.0
C882 C 0.79692 0.47681 0.37387 0.0
H883 H 0.8965 0.44603 0.35177 0.0
H884 H 0.85602 0.44225 0.3625 0.0
H885 H 0.83377 0.49418 0.33635 0.0
H886 H 0.75634 0.51949 0.39154 0.0
H887 H 0.79387 0.51794 0.37993 0.0
C888 C 0.06343 0.51407 0.40349 0.0
C889 C 0.04819 0.52346 0.39683 0.0
C890 C 0.07582 0.5219 0.41988 0.0
C891 C 0.10104 0.5754 0.45006 0.0
H892 H 0.11394 0.53311 0.48076 0.0
C893 C 0.16042 0.61064 0.51511 0.0
C894 C 0.17953 0.60417 0.51768 0.0
C895 C 0.14212 0.59985 0.50144 0.0
C896 C 0.11056 0.54514 0.47226 0.0
H897 H 0.03277 0.54733 0.40252 0.0
H898 H 0.05405 0.56072 0.4314 0.0
H899 H 0.08422 0.5148 0.45565 0.0
H900 H 0.19446 0.58132 0.50797 0.0
H901 H 0.16248 0.56248 0.48409 0.0
H902 H 0.12754 0.60574 0.46666 0.0
C903 C 0.05688 0.5477 0.42376 0.0
C904 C 0.09355 0.53468 0.45789 0.0
C905 C 0.04459 0.53996 0.40728 0.0
C906 C 0.18 0.58671 0.5063 0.0
C907 C 0.16157 0.57578 0.49273 0.0
C908 C 0.1179 0.58581 0.46451 0.0
C909 C 0.07317 0.53924 0.43005 0.0
C910 C 0.08895 0.54976 0.44642 0.0
C911 C 0.14243 0.58222 0.49017 0.0
C912 C 0.12317 0.57086 0.47557 0.0
H913 H 0.06696 0.50168 0.39559 0.0
H914 H 0.08853 0.51529 0.42415 0.0
H915 H 0.09831 0.58765 0.44136 0.0
H916 H 0.15954 0.62401 0.52369 0.0
H917 H 0.12749 0.60506 0.49983 0.0
C918 C 0.42476 0.0618 0.57815 0.0
C919 C 0.4328 0.04559 0.57207 0.0
C920 C 0.43204 0.07253 0.59494 0.0
C921 C 0.4656 0.0724 0.63708 0.0
H922 H 0.4859 0.14205 0.63763 0.0
C923 C 0.54355 0.14791 0.68344 0.0
C924 C 0.53636 0.16322 0.69223 0.0
C925 C 0.5269 0.13073 0.67081 0.0
C926 C 0.48001 0.12253 0.63774 0.0
H927 H 0.45297 0.02637 0.57967 0.0
H928 H 0.46717 0.04632 0.60827 0.0
H929 H 0.46337 0.11671 0.61195 0.0
H930 H 0.50607 0.1724 0.69491 0.0
H931 H 0.47734 0.14287 0.67234 0.0
H932 H 0.48411 0.07913 0.66254 0.0
C933 C 0.45477 0.05045 0.6003 0.0
C934 C 0.46689 0.10786 0.62307 0.0
C935 C 0.44697 0.03926 0.58367 0.0
C936 C 0.51209 0.16082 0.68833 0.0
C937 C 0.49569 0.144 0.67544 0.0
C938 C 0.47925 0.08728 0.65161 0.0
C939 C 0.4481 0.06785 0.60595 0.0
C940 C 0.45974 0.08263 0.62241 0.0
C941 C 0.50303 0.12891 0.66653 0.0
C942 C 0.48676 0.11251 0.65196 0.0
H943 H 0.41401 0.06735 0.56966 0.0
H944 H 0.42581 0.08523 0.59898 0.0
H945 H 0.46001 0.05298 0.63727 0.0
H946 H 0.56209 0.14928 0.68626 0.0
H947 H 0.53306 0.11942 0.66398 0.0
C948 C 0.5418 0.627 0.72986 0.0
C949 C 0.52296 0.61625 0.71632 0.0
C950 C 0.53595 0.6346 0.74565 0.0
C951 C 0.52005 0.65612 0.77621 0.0
H952 H 0.45681 0.60155 0.79745 0.0
C953 C 0.4795 0.65811 0.84618 0.0
C954 C 0.47383 0.63754 0.85697 0.0
C955 C 0.48591 0.65856 0.82831 0.0
C956 C 0.47443 0.61697 0.79163 0.0
H957 H 0.48394 0.60694 0.70825 0.0
H958 H 0.47347 0.61959 0.73614 0.0
H959 H 0.46711 0.59883 0.76655 0.0
H960 H 0.47081 0.60151 0.85758 0.0
H961 H 0.48159 0.60217 0.82631 0.0
H962 H 0.52753 0.67398 0.80154 0.0
C963 C 0.49272 0.622 0.73445 0.0
C964 C 0.48018 0.61556 0.77393 0.0
C965 C 0.49868 0.61466 0.71855 0.0
C966 C 0.47514 0.61764 0.84963 0.0
C967 C 0.48111 0.61792 0.83173 0.0
C968 C 0.51407 0.65771 0.79389 0.0
C969 C 0.51106 0.63138 0.7483 0.0
C970 C 0.50332 0.63486 0.76617 0.0
C971 C 0.48629 0.63825 0.8209 0.0
C972 C 0.49154 0.63785 0.80183 0.0
H973 H 0.56055 0.62818 0.72876 0.0
H974 H 0.55032 0.64151 0.75621 0.0
H975 H 0.538 0.67125 0.77049 0.0
H976 H 0.47873 0.67375 0.85149 0.0
H977 H 0.48985 0.67442 0.82018 0.0
C978 C 0.91861 0.35276 0.88577 0.0
C979 C 0.91629 0.36813 0.8732 0.0
C980 C 0.90386 0.34601 0.90144 0.0
C981 C 0.87489 0.37161 0.93051 0.0
H982 H 0.84082 0.3074 0.95444 0.0
C983 C 0.81181 0.3549 0.99148 0.0
C984 C 0.81469 0.34254 0.00605 0.0
C985 C 0.82272 0.35515 0.97513 0.0
C986 C 0.85051 0.32548 0.94797 0.0
H987 H 0.89525 0.38669 0.86639 0.0
H988 H 0.8694 0.37478 0.89362 0.0
H989 H 0.86167 0.31214 0.92545 0.0
H990 H 0.83046 0.31992 0.0148 0.0
H991 H 0.85019 0.32078 0.98603 0.0
H992 H 0.86434 0.38523 0.95289 0.0
C993 C 0.88299 0.3684 0.89158 0.0
C994 C 0.86233 0.32816 0.93139 0.0
C995 C 0.8977 0.37516 0.87599 0.0
C996 C 0.82803 0.32967 0.00378 0.0
C997 C 0.8392 0.33007 0.98732 0.0
C998 C 0.86328 0.36899 0.947 0.0
C999 C 0.88661 0.35454 0.90475 0.0
C1000 C 0.87427 0.35119 0.9224 0.0
C1001 C 0.83707 0.34328 0.97293 0.0
C1002 C 0.85057 0.34584 0.95582 0.0
H1003 H 0.93296 0.34725 0.884 0.0
H1004 H 0.9071 0.33537 0.91138 0.0
H1005 H 0.88461 0.38978 0.92416 0.0
H1006 H 0.80128 0.36467 -0.00728 0.0
H1007 H 0.82013 0.36494 0.9642 0.0
C1008 C 0.47903 0.95982 0.07219 0.0
C1009 C 0.46789 0.97459 0.0691 0.0
C1010 C 0.48288 0.95424 0.08942 0.0
C1011 C 0.45209 0.93899 0.13105 0.0
H1012 H 0.51734 0.94946 0.15044 0.0
C1013 C 0.45047 0.89166 0.19625 0.0
C1014 C 0.46721 0.88223 0.19758 0.0
C1015 C 0.45412 0.90855 0.18284 0.0
C1016 C 0.49888 0.94611 0.14518 0.0
H1017 H 0.45313 0.99588 0.08202 0.0
H1018 H 0.4584 0.98466 0.11214 0.0
H1019 H 0.5176 0.96876 0.12216 0.0
H1020 H 0.50129 0.88336 0.18651 0.0
H1021 H 0.50671 0.91149 0.16224 0.0
H1022 H 0.43278 0.91475 0.1529 0.0
C1023 C 0.46449 0.9779 0.10105 0.0
C1024 C 0.49915 0.95742 0.1291 0.0
C1025 C 0.46121 0.98402 0.0838 0.0
C1026 C 0.48823 0.89055 0.18571 0.0
C1027 C 0.49138 0.90683 0.17189 0.0
C1028 C 0.45168 0.92719 0.14685 0.0
C1029 C 0.47515 0.9628 0.10394 0.0
C1030 C 0.4757 0.95368 0.12187 0.0
C1031 C 0.47396 0.91563 0.17002 0.0
C1032 C 0.47502 0.93029 0.15407 0.0
H1033 H 0.4839 0.95168 0.06135 0.0
H1034 H 0.49072 0.94219 0.0914 0.0
H1035 H 0.43372 0.93557 0.12553 0.0
H1036 H 0.43435 0.88574 0.20548 0.0
H1037 H 0.44088 0.91553 0.18234 0.0
C1038 C 0.64155 0.59261 0.23834 0.0
C1039 C 0.6176 0.58543 0.22999 0.0
C1040 C 0.64194 0.58445 0.25547 0.0
C1041 C 0.60121 0.53286 0.28579 0.0
H1042 H 0.65682 0.57349 0.31895 0.0
C1043 C 0.64033 0.52756 0.36027 0.0
C1044 C 0.6381 0.50413 0.35927 0.0
C1045 C 0.63499 0.53768 0.34556 0.0
C1046 C 0.64092 0.56194 0.30998 0.0
H1047 H 0.57532 0.56516 0.23333 0.0
H1048 H 0.57599 0.55096 0.26344 0.0
H1049 H 0.65227 0.59238 0.29206 0.0
H1050 H 0.62806 0.47273 0.34213 0.0
H1051 H 0.61941 0.49076 0.31619 0.0
H1052 H 0.58978 0.50243 0.30381 0.0
C1053 C 0.59443 0.56258 0.25658 0.0
C1054 C 0.63849 0.57273 0.29447 0.0
C1055 C 0.59405 0.57074 0.23939 0.0
C1056 C 0.62996 0.49083 0.3433 0.0
C1057 C 0.62482 0.50108 0.32849 0.0
C1058 C 0.60356 0.52207 0.30136 0.0
C1059 C 0.61837 0.56895 0.26465 0.0
C1060 C 0.61895 0.55821 0.28205 0.0
C1061 C 0.62753 0.52474 0.32943 0.0
C1062 C 0.62373 0.5364 0.31348 0.0
H1063 H 0.66 0.60353 0.23132 0.0
H1064 H 0.66069 0.58935 0.26118 0.0
H1065 H 0.58608 0.52111 0.2764 0.0
H1066 H 0.64619 0.53816 0.37245 0.0
H1067 H 0.63677 0.5557 0.34682 0.0
C1068 C 0.43151 0.93031 0.41851 0.0
C1069 C 0.4437 0.95639 0.41787 0.0
C1070 C 0.43456 0.91746 0.40447 0.0
C1071 C 0.47523 0.92824 0.36381 0.0
H1072 H 0.41487 0.86587 0.34836 0.0
C1073 C 0.45401 0.89235 0.29228 0.0
C1074 C 0.44868 0.86806 0.28927 0.0
C1075 C 0.45704 0.90142 0.30949 0.0
C1076 C 0.43199 0.88306 0.35274 0.0
H1077 H 0.46787 0.98946 0.402 0.0
H1078 H 0.4724 0.96724 0.37734 0.0
H1079 H 0.41239 0.88492 0.37589 0.0
H1080 H 0.44263 0.83426 0.30175 0.0
H1081 H 0.44693 0.84995 0.33215 0.0
H1082 H 0.49399 0.92713 0.33988 0.0
C1083 C 0.46141 0.95659 0.38886 0.0
C1084 C 0.43066 0.89398 0.36852 0.0
C1085 C 0.45867 0.96937 0.40294 0.0
C1086 C 0.44693 0.85312 0.30376 0.0
C1087 C 0.44927 0.862 0.32107 0.0
C1088 C 0.47635 0.91757 0.3479 0.0
C1089 C 0.44954 0.93047 0.38944 0.0
C1090 C 0.45203 0.91708 0.37401 0.0
C1091 C 0.45417 0.88615 0.32401 0.0
C1092 C 0.45456 0.89519 0.34208 0.0
H1093 H 0.41994 0.91995 0.42995 0.0
H1094 H 0.42532 0.89739 0.40546 0.0
H1095 H 0.49236 0.94565 0.36785 0.0
H1096 H 0.45549 0.90423 0.28131 0.0
H1097 H 0.46063 0.92005 0.3115 0.0
C1098 C 0.54208 0.54497 0.54708 0.0
C1099 C 0.53399 0.52703 0.56069 0.0
C1100 C 0.54691 0.53963 0.53002 0.0
C1101 C 0.53683 0.48827 0.50067 0.0
H1102 H 0.60706 0.53541 0.48358 0.0
C1103 C 0.58058 0.46828 0.43939 0.0
C1104 C 0.60607 0.47268 0.44165 0.0
C1105 C 0.56991 0.47708 0.45174 0.0
C1106 C 0.58737 0.52214 0.48816 0.0
H1107 H 0.52384 0.48911 0.56678 0.0
H1108 H 0.53156 0.47973 0.53714 0.0
H1109 H 0.58942 0.54635 0.50884 0.0
H1110 H 0.64051 0.49001 0.45848 0.0
H1111 H 0.62169 0.50512 0.48024 0.0
H1112 H 0.53521 0.46357 0.48058 0.0
C1113 C 0.53398 0.49784 0.53958 0.0
C1114 C 0.57715 0.52852 0.50245 0.0
C1115 C 0.52946 0.50323 0.55661 0.0
C1116 C 0.62079 0.48628 0.45642 0.0
C1117 C 0.61012 0.49514 0.46877 0.0
C1118 C 0.54699 0.48194 0.48634 0.0
C1119 C 0.54341 0.51616 0.52624 0.0
C1120 C 0.55209 0.51133 0.50916 0.0
C1121 C 0.58451 0.49051 0.46659 0.0
C1122 C 0.57265 0.49853 0.48028 0.0
H1123 H 0.5454 0.56337 0.54972 0.0
H1124 H 0.55398 0.55401 0.51991 0.0
H1125 H 0.51738 0.47476 0.50553 0.0
H1126 H 0.5688 0.45798 0.42808 0.0
H1127 H 0.55022 0.47341 0.44966 0.0
C1128 C 0.04035 0.47009 0.70959 0.0
C1129 C 0.04332 0.48124 0.72621 0.0
C1130 C 0.05317 0.48472 0.6947 0.0
C1131 C 0.11182 0.54427 0.68277 0.0
H1132 H 0.08074 0.52897 0.63594 0.0
C1133 C 0.1712 0.59579 0.61962 0.0
C1134 C 0.16787 0.58001 0.60537 0.0
C1135 C 0.15441 0.58655 0.63434 0.0
C1136 C 0.08971 0.53344 0.64893 0.0
H1137 H 0.06167 0.51649 0.74021 0.0
H1138 H 0.08382 0.54204 0.71416 0.0
H1139 H 0.05353 0.50736 0.66173 0.0
H1140 H 0.14396 0.54223 0.59537 0.0
H1141 H 0.11517 0.52627 0.6209 0.0
H1142 H 0.14819 0.56975 0.66993 0.0
C1143 C 0.07165 0.52199 0.71266 0.0
C1144 C 0.07413 0.52106 0.66368 0.0
C1145 C 0.05872 0.50738 0.72753 0.0
C1146 C 0.14718 0.55497 0.60607 0.0
C1147 C 0.13045 0.54582 0.62068 0.0
C1148 C 0.12744 0.55661 0.66799 0.0
C1149 C 0.06938 0.51079 0.69615 0.0
C1150 C 0.08513 0.52593 0.68072 0.0
C1151 C 0.13388 0.56142 0.63502 0.0
C1152 C 0.11669 0.55088 0.65087 0.0
H1153 H 0.02854 0.45001 0.70817 0.0
H1154 H 0.05122 0.4755 0.68219 0.0
H1155 H 0.12095 0.54826 0.69571 0.0
H1156 H 0.1869 0.61518 0.61948 0.0
H1157 H 0.15746 0.59906 0.64517 0.0
C1158 C 0.49134 0.10793 0.91595 0.0
C1159 C 0.49757 0.08967 0.92003 0.0
C1160 C 0.50169 0.12278 0.90073 0.0
C1161 C 0.55408 0.14217 0.86679 0.0
H1162 H 0.50656 0.1498 0.83596 0.0
C1163 C 0.56998 0.15666 0.79204 0.0
C1164 C 0.56695 0.17523 0.78392 0.0
C1165 C 0.56314 0.1503 0.80977 0.0
C1166 C 0.52015 0.14816 0.84457 0.0
H1167 H 0.51901 0.07232 0.9111 0.0
H1168 H 0.53693 0.098 0.88482 0.0
H1169 H 0.49185 0.13162 0.86552 0.0
H1170 H 0.55406 0.20151 0.788 0.0
H1171 H 0.54152 0.18988 0.81908 0.0
H1172 H 0.58192 0.15761 0.84555 0.0
C1173 C 0.52469 0.10143 0.89353 0.0
C1174 C 0.51179 0.13783 0.8615 0.0
C1175 C 0.51441 0.08668 0.90865 0.0
C1176 C 0.55668 0.18717 0.79391 0.0
C1177 C 0.54945 0.1805 0.81164 0.0
C1178 C 0.56233 0.15227 0.84987 0.0
C1179 C 0.51842 0.1196 0.88933 0.0
C1180 C 0.52842 0.13405 0.87258 0.0
C1181 C 0.55281 0.16213 0.81974 0.0
C1182 C 0.54521 0.15472 0.83843 0.0
H1183 H 0.47847 0.11069 0.9245 0.0
H1184 H 0.4966 0.1367 0.89787 0.0
H1185 H 0.56758 0.14005 0.87516 0.0
H1186 H 0.57789 0.14715 0.78475 0.0
H1187 H 0.5656 0.13583 0.81563 0.0
C1188 C 0.5713 0.67627 0.0825 0.0
C1189 C 0.59433 0.6755 0.08044 0.0
C1190 C 0.56035 0.6815 0.06802 0.0
C1191 C 0.5688 0.70431 0.02244 0.0
H1192 H 0.5017 0.64382 0.01435 0.0
C1193 C 0.51691 0.6804 0.95425 0.0
C1194 C 0.48941 0.66584 0.95403 0.0
C1195 C 0.53048 0.68535 0.97029 0.0
C1196 C 0.52004 0.66117 0.01649 0.0
H1197 H 0.62528 0.68202 0.06198 0.0
H1198 H 0.60639 0.69176 0.03685 0.0
H1199 H 0.52468 0.6489 0.04192 0.0
H1200 H 0.45436 0.64626 0.97024 0.0
H1201 H 0.47769 0.65599 -0.00184 0.0
H1202 H 0.56403 0.71678 -0.00295 0.0
C1203 C 0.59682 0.68816 0.04965 0.0
C1204 C 0.53324 0.66399 0.03231 0.0
C1205 C 0.60762 0.68261 0.06408 0.0
C1206 C 0.47563 0.65712 0.97005 0.0
C1207 C 0.48907 0.66261 0.98605 0.0
C1208 C 0.55527 0.70176 0.00667 0.0
C1209 C 0.5725 0.68646 0.05134 0.0
C1210 C 0.5578 0.68542 0.03535 0.0
C1211 C 0.51669 0.67631 0.9864 0.0
C1212 C 0.53081 0.67999 0.00343 0.0
H1213 H 0.56094 0.67147 0.09505 0.0
H1214 H 0.54164 0.68029 0.0696 0.0
H1215 H 0.58785 0.72094 0.02454 0.0
H1216 H 0.52792 0.68735 0.94201 0.0
H1217 H 0.55172 0.69568 0.96996 0.0
C1218 C 0.91554 0.42134 0.23635 0.0
C1219 C 0.93565 0.44644 0.23812 0.0
C1220 C 0.90357 0.41217 0.21992 0.0
C1221 C 0.91726 0.42346 0.17257 0.0
H1222 H 0.84176 0.38498 0.16636 0.0
C1223 C 0.86975 0.40484 0.1037 0.0
C1224 C 0.84595 0.38241 0.10067 0.0
C1225 C 0.8808 0.41067 0.1206 0.0
C1226 C 0.86289 0.39529 0.16789 0.0
H1227 H 0.95899 0.48161 0.2242 0.0
H1228 H 0.93814 0.4656 0.19553 0.0
H1229 H 0.86009 0.39909 0.19591 0.0
H1230 H 0.81568 0.348 0.11291 0.0
H1231 H 0.8354 0.35786 0.14233 0.0
H1232 H 0.92029 0.41953 0.14472 0.0
C1233 C 0.93158 0.45306 0.20683 0.0
C1234 C 0.87334 0.40346 0.18481 0.0
C1235 C 0.94327 0.46228 0.22327 0.0
C1236 C 0.83396 0.36551 0.11481 0.0
C1237 C 0.84517 0.37126 0.13172 0.0
C1238 C 0.90686 0.41507 0.15571 0.0
C1239 C 0.91186 0.42786 0.20494 0.0
C1240 C 0.90061 0.41797 0.18725 0.0
C1241 C 0.86851 0.39411 0.13489 0.0
C1242 C 0.87953 0.40123 0.15308 0.0
H1243 H 0.90936 0.40876 0.24762 0.0
H1244 H 0.88845 0.39265 0.21878 0.0
H1245 H 0.93839 0.43424 0.17415 0.0
H1246 H 0.87945 0.41837 0.09316 0.0
H1247 H 0.89855 0.42861 0.12255 0.0
loop_
_geom_bond_atom_site_label_1
_geom_bond_atom_site_label_2
_geom_bond_distance
_geom_bond_site_symmetry_2
_ccdc_geom_bond_type
H0 O26 0.856 . S
H1 O29 0.854 . S
H2 C37 0.930 . S
H3 C38 0.930 . S
H4 C40 0.930 . S
H5 C41 0.930 . S
H6 C43 0.931 . S
H7 C44 0.930 . S
H8 C46 0.930 . S
H9 C47 0.929 . S
H10 C49 0.930 . S
H11 C50 0.931 . S
H12 C52 0.930 . S
H13 C53 0.929 . S
H14 C55 0.931 . S
H15 C56 0.930 . S
H16 C58 0.930 . S
H17 C59 0.932 . S
H18 C61 0.930 . S
H19 C62 0.929 . S
H20 C64 0.931 . S
H21 C65 0.930 . S
H22 C67 0.929 . S
H23 C68 0.931 . S
H24 C70 0.930 . S
H25 C71 0.929 1_455 S
O26 H0 0.856 . S
O26 C72 1.300 . S
O27 C72 1.209 . S
O28 C73 1.199 . S
O29 H1 0.854 . S
O29 C73 1.297 . S
C30 C31 1.404 . S
C30 C35 1.397 . S
C30 C36 1.492 . S
C31 C30 1.404 . S
C31 C32 1.396 . S
C31 C42 1.492 . S
C32 C31 1.396 . S
C32 C33 1.397 . S
C32 C48 1.509 . S
C33 C32 1.397 . S
C33 C34 1.412 . S
C33 C54 1.485 . S
C34 C33 1.412 . S
C34 C35 1.388 . S
C34 C60 1.490 . S
C35 C30 1.397 . S
C35 C34 1.388 . S
C35 C66 1.519 1_455 S
C36 C30 1.492 . S
C36 C37 1.363 . S
C36 C41 1.390 1_455 S
C37 H2 0.930 . S
C37 C36 1.363 . S
C37 C38 1.372 1_455 S
C38 H3 0.930 . S
C38 C37 1.372 1_655 S
C38 C39 1.383 . S
C39 C38 1.383 . S
C39 C40 1.395 . S
C40 H4 0.930 . S
C40 C39 1.395 . S
C40 C41 1.362 . S
C41 H5 0.930 . S
C41 C36 1.390 1_655 S
C41 C40 1.362 . S
C42 C31 1.492 . S
C42 C43 1.377 . S
C42 C47 1.397 . S
C43 H6 0.931 . S
C43 C42 1.377 . S
C43 C44 1.376 . S
C44 H7 0.930 . S
C44 C43 1.376 . S
C44 C45 1.376 . S
C45 C44 1.376 . S
C45 C46 1.378 . S
C45 C72 1.486 . S
C46 H8 0.930 . S
C46 C45 1.378 . S
C46 C47 1.376 . S
C47 H9 0.929 . S
C47 C42 1.397 . S
C47 C46 1.376 . S
C48 C32 1.509 . S
C48 C49 1.391 . S
C48 C53 1.386 . S
C49 H10 0.930 . S
C49 C48 1.391 . S
C49 C50 1.375 . S
C50 H11 0.931 . S
C50 C49 1.375 . S
C50 C51 1.375 . S
C51 C50 1.375 . S
C51 C52 1.361 . S
C52 H12 0.930 . S
C52 C51 1.361 . S
C52 C53 1.399 . S
C53 H13 0.929 . S
C53 C48 1.386 . S
C53 C52 1.399 . S
C54 C33 1.485 . S
C54 C55 1.394 . S
C54 C59 1.360 . S
C55 H14 0.931 . S
C55 C54 1.394 . S
C55 C56 1.372 . S
C56 H15 0.930 . S
C56 C55 1.372 . S
C56 C57 1.397 . S
C57 C56 1.397 . S
C57 C58 1.390 . S
C57 C73 1.476 . S
C58 H16 0.930 . S
C58 C57 1.390 . S
C58 C59 1.366 . S
C59 H17 0.932 . S
C59 C54 1.360 . S
C59 C58 1.366 . S
C60 C34 1.490 . S
C60 C61 1.380 . S
C60 C65 1.386 . S
C61 H18 0.930 . S
C61 C60 1.380 . S
C61 C62 1.381 . S
C62 H19 0.929 . S
C62 C61 1.381 . S
C62 C63 1.371 . S
C63 C62 1.371 . S
C63 C64 1.380 . S
C64 H20 0.931 . S
C64 C63 1.380 . S
C64 C65 1.387 . S
C65 H21 0.930 . S
C65 C60 1.386 . S
C65 C64 1.387 . S
C66 C35 1.519 1_655 S
C66 C67 1.377 . S
C66 C71 1.361 . S
C67 H22 0.929 . S
C67 C66 1.377 . S
C67 C68 1.386 . S
C68 H23 0.931 . S
C68 C67 1.386 . S
C68 C69 1.363 . S
C69 C68 1.363 . S
C69 C70 1.385 . S
C70 H24 0.930 . S
C70 C69 1.385 . S
C70 C71 1.396 . S
C71 H25 0.929 1_655 S
C71 C66 1.361 . S
C71 C70 1.396 . S
C72 O26 1.300 . S
C72 O27 1.209 . S
C72 C45 1.486 . S
C73 O28 1.199 . S
C73 O29 1.297 . S
C73 C57 1.476 . S
H74 O100 0.856 . S
H75 O103 0.854 . S
H76 C111 0.930 . S
H77 C112 0.935 . S
H78 C114 0.930 . S
H79 C115 0.930 . S
H80 C117 0.931 . S
H81 C118 0.930 . S
H82 C120 0.930 . S
H83 C121 0.929 . S
H84 C123 0.930 . S
H85 C124 0.931 . S
H86 C126 0.930 . S
H87 C127 0.929 . S
H88 C129 0.931 . S
H89 C130 0.930 . S
H90 C132 0.930 . S
H91 C133 0.932 . S
H92 C135 0.930 . S
H93 C136 0.929 . S
H94 C138 0.931 . S
H95 C139 0.930 . S
H96 C141 0.929 . S
H97 C142 0.931 . S
H98 C144 0.930 . S
H99 C145 0.929 . S
O100 H74 0.856 . S
O100 C146 1.300 . S
O101 C146 1.209 . S
O102 C147 1.199 . S
O103 H75 0.854 . S
O103 C147 1.297 . S
C104 C105 1.404 . S
C104 C109 1.397 . S
C104 C110 1.492 . S
C105 C104 1.404 . S
C105 C106 1.396 . S
C105 C116 1.492 . S
C106 C105 1.396 . S
C106 C107 1.397 . S
C106 C122 1.509 . S
C107 C106 1.397 . S
C107 C108 1.412 . S
C107 C128 1.485 . S
C108 C107 1.412 . S
C108 C109 1.388 . S
C108 C134 1.490 . S
C109 C104 1.397 . S
C109 C108 1.388 . S
C109 C140 1.519 . S
C110 C104 1.492 . S
C110 C111 1.363 . S
C110 C115 1.390 . S
C111 H76 0.930 . S
C111 C110 1.363 . S
C111 C112 1.365 1_545 S
C112 H77 0.935 . S
C112 C111 1.365 1_565 S
C112 C113 1.386 . S
C113 C112 1.386 . S
C113 C114 1.395 . S
C114 H78 0.930 . S
C114 C113 1.395 . S
C114 C115 1.362 1_565 S
C115 H79 0.930 . S
C115 C110 1.390 . S
C115 C114 1.362 1_545 S
C116 C105 1.492 . S
C116 C117 1.377 . S
C116 C121 1.397 . S
C117 H80 0.931 . S
C117 C116 1.377 . S
C117 C118 1.376 . S
C118 H81 0.930 . S
C118 C117 1.376 . S
C118 C119 1.376 . S
C119 C118 1.376 . S
C119 C120 1.378 . S
C119 C146 1.486 . S
C120 H82 0.930 . S
C120 C119 1.378 . S
C120 C121 1.376 . S
C121 H83 0.929 . S
C121 C116 1.397 . S
C121 C120 1.376 . S
C122 C106 1.509 . S
C122 C123 1.391 . S
C122 C127 1.386 . S
C123 H84 0.930 . S
C123 C122 1.391 . S
C123 C124 1.375 . S
C124 H85 0.931 . S
C124 C123 1.375 . S
C124 C125 1.375 . S
C125 C124 1.375 . S
C125 C126 1.361 . S
C126 H86 0.930 . S
C126 C125 1.361 . S
C126 C127 1.399 . S
C127 H87 0.929 . S
C127 C122 1.386 . S
C127 C126 1.399 . S
C128 C107 1.485 . S
C128 C129 1.394 . S
C128 C133 1.360 . S
C129 H88 0.931 . S
C129 C128 1.394 . S
C129 C130 1.372 . S
C130 H89 0.930 . S
C130 C129 1.372 . S
C130 C131 1.397 . S
C131 C130 1.397 . S
C131 C132 1.390 . S
C131 C147 1.476 . S
C132 H90 0.930 . S
C132 C131 1.390 . S
C132 C133 1.366 . S
C133 H91 0.932 . S
C133 C128 1.360 . S
C133 C132 1.366 . S
C134 C108 1.490 . S
C134 C135 1.380 . S
C134 C139 1.386 . S
C135 H92 0.930 . S
C135 C134 1.380 . S
C135 C136 1.381 . S
C136 H93 0.929 . S
C136 C135 1.381 . S
C136 C137 1.371 . S
C137 C136 1.371 . S
C137 C138 1.380 . S
C138 H94 0.931 . S
C138 C137 1.380 . S
C138 C139 1.387 . S
C139 H95 0.930 . S
C139 C134 1.386 . S
C139 C138 1.387 . S
C140 C109 1.519 . S
C140 C141 1.375 . S
C140 C145 1.361 . S
C141 H96 0.929 . S
C141 C140 1.375 . S
C141 C142 1.388 1_545 S
C142 H97 0.931 . S
C142 C141 1.388 1_565 S
C142 C143 1.363 . S
C143 C142 1.363 . S
C143 C144 1.385 . S
C144 H98 0.930 . S
C144 C143 1.385 . S
C144 C145 1.396 1_565 S
C145 H99 0.929 . S
C145 C140 1.361 . S
C145 C144 1.396 1_545 S
C146 O100 1.300 . S
C146 O101 1.209 . S
C146 C119 1.486 . S
C147 O102 1.199 . S
C147 O103 1.297 . S
C147 C131 1.476 . S
H148 O174 0.856 . S
H149 O177 0.854 . S
H150 C185 0.930 . S
H151 C186 0.930 . S
H152 C188 0.930 . S
H153 C189 0.930 . S
H154 C191 0.931 . S
H155 C192 0.930 . S
H156 C194 0.930 . S
H157 C195 0.929 . S
H158 C197 0.930 . S
H159 C198 0.931 . S
H160 C200 0.930 . S
H161 C201 0.929 . S
H162 C203 0.931 . S
H163 C204 0.930 . S
H164 C206 0.930 . S
H165 C207 0.932 . S
H166 C209 0.930 . S
H167 C210 0.929 . S
H168 C212 0.931 . S
H169 C213 0.930 . S
H170 C215 0.929 . S
H171 C216 0.931 . S
H172 C218 0.930 . S
H173 C219 0.929 . S
O174 H148 0.856 . S
O174 C220 1.300 . S
O175 C220 1.209 . S
O176 C221 1.199 . S
O177 H149 0.854 . S
O177 C221 1.297 . S
C178 C179 1.404 . S
C178 C183 1.397 . S
C178 C184 1.492 . S
C179 C178 1.404 . S
C179 C180 1.396 . S
C179 C190 1.492 . S
C180 C179 1.396 . S
C180 C181 1.397 . S
C180 C196 1.509 . S
C181 C180 1.397 . S
C181 C182 1.412 . S
C181 C202 1.485 . S
C182 C181 1.412 . S
C182 C183 1.388 . S
C182 C208 1.490 . S
C183 C178 1.397 . S
C183 C182 1.388 . S
C183 C214 1.519 . S
C184 C178 1.492 . S
C184 C185 1.363 . S
C184 C189 1.390 . S
C185 H150 0.930 . S
C185 C184 1.363 . S
C185 C186 1.372 . S
C186 H151 0.930 . S
C186 C185 1.372 . S
C186 C187 1.383 . S
C187 C186 1.383 . S
C187 C188 1.395 . S
C188 H152 0.930 . S
C188 C187 1.395 . S
C188 C189 1.362 . S
C189 H153 0.930 . S
C189 C184 1.390 . S
C189 C188 1.362 . S
C190 C179 1.492 . S
C190 C191 1.377 . S
C190 C195 1.397 . S
C191 H154 0.931 . S
C191 C190 1.377 . S
C191 C192 1.376 . S
C192 H155 0.930 . S
C192 C191 1.376 . S
C192 C193 1.376 . S
C193 C192 1.376 . S
C193 C194 1.378 . S
C193 C220 1.486 . S
C194 H156 0.930 . S
C194 C193 1.378 . S
C194 C195 1.376 . S
C195 H157 0.929 . S
C195 C190 1.397 . S
C195 C194 1.376 . S
C196 C180 1.509 . S
C196 C197 1.391 . S
C196 C201 1.386 . S
C197 H158 0.930 . S
C197 C196 1.391 . S
C197 C198 1.375 . S
C198 H159 0.931 . S
C198 C197 1.375 . S
C198 C199 1.375 . S
C199 C198 1.375 . S
C199 C200 1.361 . S
C200 H160 0.930 . S
C200 C199 1.361 . S
C200 C201 1.399 . S
C201 H161 0.929 . S
C201 C196 1.386 . S
C201 C200 1.399 . S
C202 C181 1.485 . S
C202 C203 1.394 . S
C202 C207 1.360 . S
C203 H162 0.931 . S
C203 C202 1.394 . S
C203 C204 1.372 . S
C204 H163 0.930 . S
C204 C203 1.372 . S
C204 C205 1.397 . S
C205 C204 1.397 . S
C205 C206 1.390 . S
C205 C221 1.476 . S
C206 H164 0.930 . S
C206 C205 1.390 . S
C206 C207 1.366 . S
C207 H165 0.932 . S
C207 C202 1.360 . S
C207 C206 1.366 . S
C208 C182 1.490 . S
C208 C209 1.380 . S
C208 C213 1.386 . S
C209 H166 0.930 . S
C209 C208 1.380 . S
C209 C210 1.381 . S
C210 H167 0.929 . S
C210 C209 1.381 . S
C210 C211 1.371 . S
C211 C210 1.371 . S
C211 C212 1.380 . S
C212 H168 0.931 . S
C212 C211 1.380 . S
C212 C213 1.387 . S
C213 H169 0.930 . S
C213 C208 1.386 . S
C213 C212 1.387 . S
C214 C183 1.519 . S
C214 C215 1.377 . S
C214 C219 1.361 . S
C215 H170 0.929 . S
C215 C214 1.377 . S
C215 C216 1.386 . S
C216 H171 0.931 . S
C216 C215 1.386 . S
C216 C217 1.363 . S
C217 C216 1.363 . S
C217 C218 1.385 . S
C218 H172 0.930 . S
C218 C217 1.385 . S
C218 C219 1.396 . S
C219 H173 0.929 . S
C219 C214 1.361 . S
C219 C218 1.396 . S
C220 O174 1.300 . S
C220 O175 1.209 . S
C220 C193 1.486 . S
C221 O176 1.199 . S
C221 O177 1.297 . S
C221 C205 1.476 . S
H222 O248 0.856 . S
H223 O251 0.854 . S
H224 C259 0.930 1_455 S
H225 C260 0.930 . S
H226 C262 0.930 . S
H227 C263 0.930 . S
H228 C265 0.931 . S
H229 C266 0.930 . S
H230 C268 0.930 . S
H231 C269 0.929 . S
H232 C271 0.930 . S
H233 C272 0.931 . S
H234 C274 0.930 . S
H235 C275 0.929 . S
H236 C277 0.931 . S
H237 C278 0.930 . S
H238 C280 0.930 . S
H239 C281 0.932 . S
H240 C283 0.930 . S
H241 C284 0.929 . S
H242 C286 0.931 . S
H243 C287 0.930 . S
H244 C289 0.929 . S
H245 C290 0.931 . S
H246 C292 0.930 . S
H247 C293 0.929 . S
O248 H222 0.856 . S
O248 C294 1.300 . S
O249 C294 1.209 . S
O250 C295 1.199 . S
O251 H223 0.854 . S
O251 C295 1.297 . S
C252 C253 1.404 . S
C252 C257 1.397 . S
C252 C258 1.492 1_455 S
C253 C252 1.404 . S
C253 C254 1.396 . S
C253 C264 1.492 . S
C254 C253 1.396 . S
C254 C255 1.397 . S
C254 C270 1.509 . S
C255 C254 1.397 . S
C255 C256 1.412 . S
C255 C276 1.485 . S
C256 C255 1.412 . S
C256 C257 1.388 . S
C256 C282 1.490 . S
C257 C252 1.397 . S
C257 C256 1.388 . S
C257 C288 1.519 1_455 S
C258 C252 1.492 1_655 S
C258 C259 1.363 . S
C258 C263 1.390 . S
C259 H224 0.930 1_655 S
C259 C258 1.363 . S
C259 C260 1.372 . S
C260 H225 0.930 . S
C260 C259 1.372 . S
C260 C261 1.383 . S
C261 C260 1.383 . S
C261 C262 1.395 . S
C262 H226 0.930 . S
C262 C261 1.395 . S
C262 C263 1.362 . S
C263 H227 0.930 . S
C263 C258 1.390 . S
C263 C262 1.362 . S
C264 C253 1.492 . S
C264 C265 1.377 . S
C264 C269 1.397 . S
C265 H228 0.931 . S
C265 C264 1.377 . S
C265 C266 1.376 . S
C266 H229 0.930 . S
C266 C265 1.376 . S
C266 C267 1.376 . S
C267 C266 1.376 . S
C267 C268 1.378 . S
C267 C294 1.486 . S
C268 H230 0.930 . S
C268 C267 1.378 . S
C268 C269 1.376 . S
C269 H231 0.929 . S
C269 C264 1.397 . S
C269 C268 1.376 . S
C270 C254 1.509 . S
C270 C271 1.391 . S
C270 C275 1.386 . S
C271 H232 0.930 . S
C271 C270 1.391 . S
C271 C272 1.375 . S
C272 H233 0.931 . S
C272 C271 1.375 . S
C272 C273 1.375 . S
C273 C272 1.375 . S
C273 C274 1.361 . S
C274 H234 0.930 . S
C274 C273 1.361 . S
C274 C275 1.399 . S
C275 H235 0.929 . S
C275 C270 1.386 . S
C275 C274 1.399 . S
C276 C255 1.485 . S
C276 C277 1.394 . S
C276 C281 1.360 . S
C277 H236 0.931 . S
C277 C276 1.394 . S
C277 C278 1.372 . S
C278 H237 0.930 . S
C278 C277 1.372 . S
C278 C279 1.397 . S
C279 C278 1.397 . S
C279 C280 1.390 . S
C279 C295 1.476 . S
C280 H238 0.930 . S
C280 C279 1.390 . S
C280 C281 1.366 . S
C281 H239 0.932 . S
C281 C276 1.360 . S
C281 C280 1.366 . S
C282 C256 1.490 . S
C282 C283 1.380 . S
C282 C287 1.386 . S
C283 H240 0.930 . S
C283 C282 1.380 . S
C283 C284 1.381 . S
C284 H241 0.929 . S
C284 C283 1.381 . S
C284 C285 1.371 . S
C285 C284 1.371 . S
C285 C286 1.380 . S
C286 H242 0.931 . S
C286 C285 1.380 . S
C286 C287 1.387 . S
C287 H243 0.930 . S
C287 C282 1.386 . S
C287 C286 1.387 . S
C288 C257 1.519 1_655 S
C288 C289 1.377 . S
C288 C293 1.361 . S
C289 H244 0.929 . S
C289 C288 1.377 . S
C289 C290 1.386 . S
C290 H245 0.931 . S
C290 C289 1.386 . S
C290 C291 1.363 . S
C291 C290 1.363 . S
C291 C292 1.385 . S
C292 H246 0.930 . S
C292 C291 1.385 . S
C292 C293 1.396 . S
C293 H247 0.929 . S
C293 C288 1.361 . S
C293 C292 1.396 . S
C294 O248 1.300 . S
C294 O249 1.209 . S
C294 C267 1.486 . S
C295 O250 1.199 . S
C295 O251 1.297 . S
C295 C279 1.476 . S
H296 O322 0.856 . S
H297 O325 0.854 . S
H298 C333 0.930 . S
H299 C334 0.930 . S
H300 C336 0.930 . S
H301 C337 0.930 . S
H302 C339 0.931 . S
H303 C340 0.930 . S
H304 C342 0.930 . S
H305 C343 0.929 . S
H306 C345 0.930 . S
H307 C346 0.931 . S
H308 C348 0.930 . S
H309 C349 0.929 . S
H310 C351 0.931 . S
H311 C352 0.930 . S
H312 C354 0.930 . S
H313 C355 0.932 . S
H314 C357 0.930 . S
H315 C358 0.931 1_545 S
H316 C360 0.931 . S
H317 C361 0.930 . S
H318 C363 0.909 1_556 S
H319 C364 0.931 . S
H320 C366 0.930 . S
H321 C367 0.929 . S
O322 H296 0.856 . S
O322 C368 1.300 . S
O323 C368 1.209 . S
O324 C369 1.199 . S
O325 H297 0.854 . S
O325 C369 1.297 . S
C326 C327 1.446 . S
C326 C331 1.394 1_565 S
C326 C332 1.455 1_565 S
C327 C326 1.446 . S
C327 C328 1.396 . S
C327 C338 1.492 . S
C328 C327 1.396 . S
C328 C329 1.397 . S
C328 C344 1.509 . S
C329 C328 1.397 . S
C329 C330 1.412 1_556 S
C329 C350 1.485 1_556 S
C330 C329 1.412 1_554 S
C330 C331 1.388 1_564 S
C330 C356 1.490 . S
C331 C326 1.394 1_545 S
C331 C330 1.388 1_546 S
C331 C362 1.519 1_556 S
C332 C326 1.455 1_545 S
C332 C333 1.363 . S
C332 C337 1.390 . S
C333 H298 0.930 . S
C333 C332 1.363 . S
C333 C334 1.372 . S
C334 H299 0.930 . S
C334 C333 1.372 . S
C334 C335 1.383 . S
C335 C334 1.383 . S
C335 C336 1.395 . S
C336 H300 0.930 . S
C336 C335 1.395 . S
C336 C337 1.362 . S
C337 H301 0.930 . S
C337 C332 1.390 . S
C337 C336 1.362 . S
C338 C327 1.492 . S
C338 C339 1.377 . S
C338 C343 1.397 . S
C339 H302 0.931 . S
C339 C338 1.377 . S
C339 C340 1.376 . S
C340 H303 0.930 . S
C340 C339 1.376 . S
C340 C341 1.376 . S
C341 C340 1.376 . S
C341 C342 1.378 . S
C341 C368 1.486 . S
C342 H304 0.930 . S
C342 C341 1.378 . S
C342 C343 1.376 . S
C343 H305 0.929 . S
C343 C338 1.397 . S
C343 C342 1.376 . S
C344 C328 1.509 . S
C344 C345 1.391 . S
C344 C349 1.386 . S
C345 H306 0.930 . S
C345 C344 1.391 . S
C345 C346 1.375 . S
C346 H307 0.931 . S
C346 C345 1.375 . S
C346 C347 1.375 . S
C347 C346 1.375 . S
C347 C348 1.361 . S
C348 H308 0.930 . S
C348 C347 1.361 . S
C348 C349 1.399 . S
C349 H309 0.929 . S
C349 C344 1.386 . S
C349 C348 1.399 . S
C350 C329 1.485 1_554 S
C350 C351 1.394 . S
C350 C355 1.360 . S
C351 H310 0.931 . S
C351 C350 1.394 . S
C351 C352 1.372 . S
C352 H311 0.930 . S
C352 C351 1.372 . S
C352 C353 1.397 . S
C353 C352 1.397 . S
C353 C354 1.390 . S
C353 C369 1.476 . S
C354 H312 0.930 . S
C354 C353 1.390 . S
C354 C355 1.366 . S
C355 H313 0.932 . S
C355 C350 1.360 . S
C355 C354 1.366 . S
C356 C330 1.490 . S
C356 C357 1.380 . S
C356 C361 1.386 . S
C357 H314 0.930 . S
C357 C356 1.380 . S
C357 C358 1.381 . S
C358 H315 0.931 1_565 S
C358 C357 1.381 . S
C358 C359 1.371 . S
C359 C358 1.371 . S
C359 C360 1.380 . S
C360 H316 0.931 . S
C360 C359 1.380 . S
C360 C361 1.387 . S
C361 H317 0.930 . S
C361 C356 1.386 . S
C361 C360 1.387 . S
C362 C331 1.519 1_554 S
C362 C363 1.380 . S
C362 C367 1.361 . S
C363 H318 0.909 1_554 S
C363 C362 1.380 . S
C363 C364 1.406 . S
C364 H319 0.931 . S
C364 C363 1.406 . S
C364 C365 1.363 . S
C365 C364 1.363 . S
C365 C366 1.385 . S
C366 H320 0.930 . S
C366 C365 1.385 . S
C366 C367 1.396 . S
C367 H321 0.929 . S
C367 C362 1.361 . S
C367 C366 1.396 . S
C368 O322 1.300 . S
C368 O323 1.209 . S
C368 C341 1.486 . S
C369 O324 1.199 . S
C369 O325 1.297 . S
C369 C353 1.476 . S
H370 O396 0.856 . S
H371 O399 0.854 . S
H372 C407 0.930 . S
H373 C408 0.930 . S
H374 C410 0.930 . S
H375 C411 0.930 . S
H376 C413 0.931 . S
H377 C414 0.930 . S
H378 C416 0.930 . S
H379 C417 0.929 . S
H380 C419 0.930 . S
H381 C420 0.931 . S
H382 C422 0.930 . S
H383 C423 0.929 . S
H384 C425 0.931 . S
H385 C426 0.930 . S
H386 C428 0.930 . S
H387 C429 0.932 . S
H388 C431 0.930 . S
H389 C432 0.929 . S
H390 C434 0.931 . S
H391 C435 0.930 . S
H392 C437 0.929 . S
H393 C438 0.931 . S
H394 C440 0.930 . S
H395 C441 0.929 . S
O396 H370 0.856 . S
O396 C442 1.300 . S
O397 C442 1.209 . S
O398 C443 1.199 . S
O399 H371 0.854 . S
O399 C443 1.297 . S
C400 C401 1.404 . S
C400 C405 1.397 . S
C400 C406 1.492 . S
C401 C400 1.404 . S
C401 C402 1.396 . S
C401 C412 1.492 . S
C402 C401 1.396 . S
C402 C403 1.397 . S
C402 C418 1.509 . S
C403 C402 1.397 . S
C403 C404 1.412 . S
C403 C424 1.485 . S
C404 C403 1.412 . S
C404 C405 1.388 . S
C404 C430 1.490 . S
C405 C400 1.397 . S
C405 C404 1.388 . S
C405 C436 1.519 . S
C406 C400 1.492 . S
C406 C407 1.363 . S
C406 C411 1.390 . S
C407 H372 0.930 . S
C407 C406 1.363 . S
C407 C408 1.372 . S
C408 H373 0.930 . S
C408 C407 1.372 . S
C408 C409 1.383 . S
C409 C408 1.383 . S
C409 C410 1.395 . S
C410 H374 0.930 . S
C410 C409 1.395 . S
C410 C411 1.362 . S
C411 H375 0.930 . S
C411 C406 1.390 . S
C411 C410 1.362 . S
C412 C401 1.492 . S
C412 C413 1.377 . S
C412 C417 1.397 . S
C413 H376 0.931 . S
C413 C412 1.377 . S
C413 C414 1.376 . S
C414 H377 0.930 . S
C414 C413 1.376 . S
C414 C415 1.376 . S
C415 C414 1.376 . S
C415 C416 1.378 . S
C415 C442 1.486 . S
C416 H378 0.930 . S
C416 C415 1.378 . S
C416 C417 1.376 . S
C417 H379 0.929 . S
C417 C412 1.397 . S
C417 C416 1.376 . S
C418 C402 1.509 . S
C418 C419 1.391 . S
C418 C423 1.386 . S
C419 H380 0.930 . S
C419 C418 1.391 . S
C419 C420 1.375 . S
C420 H381 0.931 . S
C420 C419 1.375 . S
C420 C421 1.375 . S
C421 C420 1.375 . S
C421 C422 1.361 . S
C422 H382 0.930 . S
C422 C421 1.361 . S
C422 C423 1.399 . S
C423 H383 0.929 . S
C423 C418 1.386 . S
C423 C422 1.399 . S
C424 C403 1.485 . S
C424 C425 1.394 . S
C424 C429 1.360 . S
C425 H384 0.931 . S
C425 C424 1.394 . S
C425 C426 1.372 . S
C426 H385 0.930 . S
C426 C425 1.372 . S
C426 C427 1.397 . S
C427 C426 1.397 . S
C427 C428 1.390 . S
C427 C443 1.476 . S
C428 H386 0.930 . S
C428 C427 1.390 . S
C428 C429 1.366 . S
C429 H387 0.932 . S
C429 C424 1.360 . S
C429 C428 1.366 . S
C430 C404 1.490 . S
C430 C431 1.380 . S
C430 C435 1.386 . S
C431 H388 0.930 . S
C431 C430 1.380 . S
C431 C432 1.381 . S
C432 H389 0.929 . S
C432 C431 1.381 . S
C432 C433 1.371 . S
C433 C432 1.371 . S
C433 C434 1.380 . S
C434 H390 0.931 . S
C434 C433 1.380 . S
C434 C435 1.387 . S
C435 H391 0.930 . S
C435 C430 1.386 . S
C435 C434 1.387 . S
C436 C405 1.519 . S
C436 C437 1.377 . S
C436 C441 1.361 . S
C437 H392 0.929 . S
C437 C436 1.377 . S
C437 C438 1.386 . S
C438 H393 0.931 . S
C438 C437 1.386 . S
C438 C439 1.363 . S
C439 C438 1.363 . S
C439 C440 1.385 . S
C440 H394 0.930 . S
C440 C439 1.385 . S
C440 C441 1.396 . S
C441 H395 0.929 . S
C441 C436 1.361 . S
C441 C440 1.396 . S
C442 O396 1.300 . S
C442 O397 1.209 . S
C442 C415 1.486 . S
C443 O398 1.199 . S
C443 O399 1.297 . S
C443 C427 1.476 . S
C444 O445 1.306 . S
C444 O447 1.160 . S
O445 C444 1.306 . S
O445 Cd446 2.228 . S
Cd446 O445 2.228 . S
Cd446 O450 2.273 . S
Cd446 O454 2.277 . S
O447 C444 1.160 . S
O447 Cd448 2.203 . S
Cd448 O447 2.203 . S
Cd448 O450 2.411 . S
Cd448 O451 2.333 . S
Cd448 O452 2.352 . S
Cd448 O456 2.277 . S
Cd448 O457 2.356 . S
C449 O454 1.209 . S
C449 O456 1.226 . S
O450 Cd446 2.273 . S
O450 Cd448 2.411 . S
O450 C453 1.320 . S
O451 Cd448 2.333 . S
O451 C453 1.214 . S
O452 Cd448 2.352 . S
O452 C455 1.258 . S
C453 O450 1.320 . S
C453 O451 1.214 . S
O454 Cd446 2.277 . S
O454 C449 1.209 . S
C455 O452 1.258 . S
C455 O457 1.282 . S
O456 Cd448 2.277 . S
O456 C449 1.226 . S
O457 Cd448 2.356 . S
O457 C455 1.282 . S
C458 O459 1.306 . S
C458 O461 1.160 . S
O459 C458 1.306 . S
O459 Cd460 2.228 . S
Cd460 O459 2.228 . S
Cd460 O464 2.273 . S
Cd460 O468 2.277 . S
O461 C458 1.160 . S
O461 Cd462 2.203 . S
Cd462 O461 2.203 . S
Cd462 O464 2.411 . S
Cd462 O465 2.333 . S
Cd462 O466 2.352 . S
Cd462 O470 2.277 . S
Cd462 O471 2.356 . S
C463 O468 1.209 . S
C463 O470 1.226 . S
O464 Cd460 2.273 . S
O464 Cd462 2.411 . S
O464 C467 1.320 . S
O465 Cd462 2.333 . S
O465 C467 1.214 . S
O466 Cd462 2.352 . S
O466 C469 1.258 . S
C467 O464 1.320 . S
C467 O465 1.214 . S
O468 Cd460 2.277 . S
O468 C463 1.209 . S
C469 O466 1.258 . S
C469 O471 1.282 . S
O470 Cd462 2.277 . S
O470 C463 1.226 . S
O471 Cd462 2.356 . S
O471 C469 1.282 . S
C472 O473 1.306 . S
C472 O475 1.160 . S
O473 C472 1.306 . S
O473 Cd474 2.228 . S
Cd474 O473 2.228 . S
Cd474 O478 2.273 . S
Cd474 O482 2.277 . S
O475 C472 1.160 . S
O475 Cd476 2.203 . S
Cd476 O475 2.203 . S
Cd476 O478 2.411 . S
Cd476 O479 2.333 . S
Cd476 O480 2.352 . S
Cd476 O484 2.277 . S
Cd476 O485 2.356 . S
C477 O482 1.209 . S
C477 O484 1.226 . S
O478 Cd474 2.273 . S
O478 Cd476 2.411 . S
O478 C481 1.320 . S
O479 Cd476 2.333 . S
O479 C481 1.214 . S
O480 Cd476 2.352 . S
O480 C483 1.258 . S
C481 O478 1.320 . S
C481 O479 1.214 . S
O482 Cd474 2.277 . S
O482 C477 1.209 . S
C483 O480 1.258 . S
C483 O485 1.282 . S
O484 Cd476 2.277 . S
O484 C477 1.226 . S
O485 Cd476 2.356 . S
O485 C483 1.282 . S
C486 O487 1.306 . S
C486 O489 1.160 . S
O487 C486 1.306 . S
O487 Cd488 2.228 . S
Cd488 O487 2.228 . S
Cd488 O492 2.273 . S
Cd488 O496 2.277 . S
O489 C486 1.160 . S
O489 Cd490 2.203 . S
Cd490 O489 2.203 . S
Cd490 O492 2.411 . S
Cd490 O493 2.333 . S
Cd490 O494 2.352 . S
Cd490 O498 2.277 . S
Cd490 O499 2.356 . S
C491 O496 1.209 . S
C491 O498 1.226 . S
O492 Cd488 2.273 . S
O492 Cd490 2.411 . S
O492 C495 1.320 . S
O493 Cd490 2.333 . S
O493 C495 1.214 . S
O494 Cd490 2.352 . S
O494 C497 1.258 . S
C495 O492 1.320 . S
C495 O493 1.214 . S
O496 Cd488 2.277 . S
O496 C491 1.209 . S
C497 O494 1.258 . S
C497 O499 1.282 . S
O498 Cd490 2.277 . S
O498 C491 1.226 . S
O499 Cd490 2.356 . S
O499 C497 1.282 . S
C500 O501 1.306 . S
C500 O503 1.160 . S
O501 C500 1.306 . S
O501 Cd502 2.228 . S
Cd502 O501 2.228 . S
Cd502 O506 2.273 . S
Cd502 O510 2.277 . S
O503 C500 1.160 . S
O503 Cd504 2.203 . S
Cd504 O503 2.203 . S
Cd504 O506 2.411 . S
Cd504 O507 2.333 . S
Cd504 O508 2.352 . S
Cd504 O512 2.277 . S
Cd504 O513 2.356 . S
C505 O510 1.209 . S
C505 O512 1.226 . S
O506 Cd502 2.273 . S
O506 Cd504 2.411 . S
O506 C509 1.320 . S
O507 Cd504 2.333 . S
O507 C509 1.214 . S
O508 Cd504 2.352 . S
O508 C511 1.258 . S
C509 O506 1.320 . S
C509 O507 1.214 . S
O510 Cd502 2.277 . S
O510 C505 1.209 . S
C511 O508 1.258 . S
C511 O513 1.282 . S
O512 Cd504 2.277 . S
O512 C505 1.226 . S
O513 Cd504 2.356 . S
O513 C511 1.282 . S
C514 O515 1.306 . S
C514 O517 1.160 . S
O515 C514 1.306 . S
O515 Cd516 2.228 . S
Cd516 O515 2.228 . S
Cd516 O520 2.273 . S
Cd516 O524 2.277 . S
O517 C514 1.160 . S
O517 Cd518 2.203 . S
Cd518 O517 2.203 . S
Cd518 O520 2.411 . S
Cd518 O521 2.333 . S
Cd518 O522 2.352 . S
Cd518 O526 2.277 . S
Cd518 O527 2.356 . S
C519 O524 1.209 . S
C519 O526 1.226 . S
O520 Cd516 2.273 . S
O520 Cd518 2.411 . S
O520 C523 1.320 . S
O521 Cd518 2.333 . S
O521 C523 1.214 . S
O522 Cd518 2.352 . S
O522 C525 1.258 . S
C523 O520 1.320 . S
C523 O521 1.214 . S
O524 Cd516 2.277 . S
O524 C519 1.209 . S
C525 O522 1.258 . S
C525 O527 1.282 . S
O526 Cd518 2.277 . S
O526 C519 1.226 . S
O527 Cd518 2.356 . S
O527 C525 1.282 . S
C528 C529 1.349 . S
C528 C530 1.327 . S
C528 H553 0.950 . S
C529 C528 1.349 . S
C529 C545 1.349 . S
C530 C528 1.327 . S
C530 C549 1.429 . S
C530 H554 0.950 . S
C531 C548 1.574 . S
C531 C550 1.368 . S
C531 H555 0.949 . S
H532 C536 0.949 . S
C533 C534 1.349 . S
C533 C535 1.327 . S
C533 H556 0.950 . S
C534 C533 1.349 . S
C534 C546 1.349 . S
C535 C533 1.327 . S
C535 C551 1.429 . S
C535 H557 0.950 . S
C536 H532 0.949 . S
C536 C544 1.574 . S
C536 C552 1.368 . S
H537 C545 0.950 . S
H538 C543 0.950 . S
H539 C544 0.949 . S
H540 C546 0.950 . S
H541 C547 0.950 . S
H542 C548 0.949 . S
C543 H538 0.950 . S
C543 C545 1.327 . S
C543 C549 1.429 . S
C544 C536 1.574 . S
C544 H539 0.949 . S
C544 C550 1.368 . S
C545 C529 1.349 . S
C545 H537 0.950 . S
C545 C543 1.327 . S
C546 C534 1.349 . S
C546 H540 0.950 . S
C546 C547 1.327 . S
C547 H541 0.950 . S
C547 C546 1.327 . S
C547 C551 1.429 . S
C548 C531 1.574 . S
C548 H542 0.949 . S
C548 C552 1.368 . S
C549 C530 1.429 . S
C549 C543 1.429 . S
C549 C550 1.523 . S
C550 C531 1.368 . S
C550 C544 1.368 . S
C550 C549 1.523 . S
C551 C535 1.429 . S
C551 C547 1.429 . S
C551 C552 1.523 . S
C552 C536 1.368 . S
C552 C548 1.368 . S
C552 C551 1.523 . S
H553 C528 0.950 . S
H554 C530 0.950 . S
H555 C531 0.949 . S
H556 C533 0.950 . S
H557 C535 0.950 . S
C558 C559 1.349 . S
C558 C560 1.327 . S
C558 H583 0.950 . S
C559 C558 1.349 . S
C559 C575 1.349 . S
C560 C558 1.327 . S
C560 C579 1.429 . S
C560 H584 0.950 . S
C561 C578 1.574 . S
C561 C580 1.368 . S
C561 H585 0.949 . S
H562 C566 0.949 . S
C563 C564 1.349 . S
C563 C565 1.327 . S
C563 H586 0.950 . S
C564 C563 1.349 . S
C564 C576 1.349 . S
C565 C563 1.327 . S
C565 C581 1.429 . S
C565 H587 0.950 . S
C566 H562 0.949 . S
C566 C574 1.574 . S
C566 C582 1.368 . S
H567 C575 0.950 . S
H568 C573 0.950 . S
H569 C574 0.949 . S
H570 C576 0.950 . S
H571 C577 0.950 . S
H572 C578 0.949 . S
C573 H568 0.950 . S
C573 C575 1.327 . S
C573 C579 1.429 . S
C574 C566 1.574 . S
C574 H569 0.949 . S
C574 C580 1.368 . S
C575 C559 1.349 . S
C575 H567 0.950 . S
C575 C573 1.327 . S
C576 C564 1.349 . S
C576 H570 0.950 . S
C576 C577 1.327 . S
C577 H571 0.950 . S
C577 C576 1.327 . S
C577 C581 1.429 . S
C578 C561 1.574 . S
C578 H572 0.949 . S
C578 C582 1.368 . S
C579 C560 1.429 . S
C579 C573 1.429 . S
C579 C580 1.523 . S
C580 C561 1.368 . S
C580 C574 1.368 . S
C580 C579 1.523 . S
C581 C565 1.429 . S
C581 C577 1.429 . S
C581 C582 1.523 . S
C582 C566 1.368 . S
C582 C578 1.368 . S
C582 C581 1.523 . S
H583 C558 0.950 . S
H584 C560 0.950 . S
H585 C561 0.949 . S
H586 C563 0.950 . S
H587 C565 0.950 . S
C588 C589 1.349 . S
C588 C590 1.327 . S
C588 H613 0.950 . S
C589 C588 1.349 . S
C589 C605 1.349 . S
C590 C588 1.327 . S
C590 C609 1.429 . S
C590 H614 0.950 . S
C591 C608 1.574 . S
C591 C610 1.368 . S
C591 H615 0.949 . S
H592 C596 0.949 . S
C593 C594 1.349 . S
C593 C595 1.327 . S
C593 H616 0.950 . S
C594 C593 1.349 . S
C594 C606 1.349 . S
C595 C593 1.327 . S
C595 C611 1.429 . S
C595 H617 0.950 . S
C596 H592 0.949 . S
C596 C604 1.574 . S
C596 C612 1.368 . S
H597 C605 0.950 . S
H598 C603 0.950 . S
H599 C604 0.949 . S
H600 C606 0.950 . S
H601 C607 0.950 . S
H602 C608 0.949 . S
C603 H598 0.950 . S
C603 C605 1.327 . S
C603 C609 1.429 . S
C604 C596 1.574 . S
C604 H599 0.949 . S
C604 C610 1.368 . S
C605 C589 1.349 . S
C605 H597 0.950 . S
C605 C603 1.327 . S
C606 C594 1.349 . S
C606 H600 0.950 . S
C606 C607 1.327 . S
C607 H601 0.950 . S
C607 C606 1.327 . S
C607 C611 1.429 . S
C608 C591 1.574 . S
C608 H602 0.949 . S
C608 C612 1.368 . S
C609 C590 1.429 . S
C609 C603 1.429 . S
C609 C610 1.523 . S
C610 C591 1.368 . S
C610 C604 1.368 . S
C610 C609 1.523 . S
C611 C595 1.429 . S
C611 C607 1.429 . S
C611 C612 1.523 . S
C612 C596 1.368 . S
C612 C608 1.368 . S
C612 C611 1.523 . S
H613 C588 0.950 . S
H614 C590 0.950 . S
H615 C591 0.949 . S
H616 C593 0.950 . S
H617 C595 0.950 . S
C618 C619 1.349 . S
C618 C620 1.327 . S
C618 H643 0.950 . S
C619 C618 1.349 . S
C619 C635 1.349 . S
C620 C618 1.327 . S
C620 C639 1.429 . S
C620 H644 0.950 . S
C621 C638 1.574 . S
C621 C640 1.368 . S
C621 H645 0.949 . S
H622 C626 0.949 . S
C623 C624 1.349 . S
C623 C625 1.327 . S
C623 H646 0.950 . S
C624 C623 1.349 . S
C624 C636 1.349 . S
C625 C623 1.327 . S
C625 C641 1.429 . S
C625 H647 0.950 . S
C626 H622 0.949 . S
C626 C634 1.574 . S
C626 C642 1.368 . S
H627 C635 0.950 . S
H628 C633 0.950 . S
H629 C634 0.949 . S
H630 C636 0.950 . S
H631 C637 0.950 . S
H632 C638 0.949 . S
C633 H628 0.950 . S
C633 C635 1.327 . S
C633 C639 1.429 . S
C634 C626 1.574 . S
C634 H629 0.949 . S
C634 C640 1.368 . S
C635 C619 1.349 . S
C635 H627 0.950 . S
C635 C633 1.327 . S
C636 C624 1.349 . S
C636 H630 0.950 . S
C636 C637 1.327 . S
C637 H631 0.950 . S
C637 C636 1.327 . S
C637 C641 1.429 . S
C638 C621 1.574 . S
C638 H632 0.949 . S
C638 C642 1.368 . S
C639 C620 1.429 . S
C639 C633 1.429 . S
C639 C640 1.523 . S
C640 C621 1.368 . S
C640 C634 1.368 . S
C640 C639 1.523 . S
C641 C625 1.429 . S
C641 C637 1.429 . S
C641 C642 1.523 . S
C642 C626 1.368 . S
C642 C638 1.368 . S
C642 C641 1.523 . S
H643 C618 0.950 . S
H644 C620 0.950 . S
H645 C621 0.949 . S
H646 C623 0.950 . S
H647 C625 0.950 . S
C648 C649 1.349 . S
C648 C650 1.327 . S
C648 H673 0.950 . S
C649 C648 1.349 . S
C649 C665 1.349 . S
C650 C648 1.327 . S
C650 C669 1.429 . S
C650 H674 0.950 . S
C651 C668 1.574 . S
C651 C670 1.368 . S
C651 H675 0.949 . S
H652 C656 0.949 . S
C653 C654 1.349 . S
C653 C655 1.327 . S
C653 H676 0.950 . S
C654 C653 1.349 . S
C654 C666 1.349 . S
C655 C653 1.327 . S
C655 C671 1.429 . S
C655 H677 0.950 . S
C656 H652 0.949 . S
C656 C664 1.574 . S
C656 C672 1.368 . S
H657 C665 0.950 . S
H658 C663 0.950 . S
H659 C664 0.949 . S
H660 C666 0.950 . S
H661 C667 0.950 . S
H662 C668 0.949 . S
C663 H658 0.950 . S
C663 C665 1.327 . S
C663 C669 1.429 . S
C664 C656 1.574 . S
C664 H659 0.949 . S
C664 C670 1.368 . S
C665 C649 1.349 . S
C665 H657 0.950 . S
C665 C663 1.327 . S
C666 C654 1.349 . S
C666 H660 0.950 . S
C666 C667 1.327 . S
C667 H661 0.950 . S
C667 C666 1.327 . S
C667 C671 1.429 . S
C668 C651 1.574 . S
C668 H662 0.949 . S
C668 C672 1.368 . S
C669 C650 1.429 . S
C669 C663 1.429 . S
C669 C670 1.523 . S
C670 C651 1.368 . S
C670 C664 1.368 . S
C670 C669 1.523 . S
C671 C655 1.429 . S
C671 C667 1.429 . S
C671 C672 1.523 . S
C672 C656 1.368 . S
C672 C668 1.368 . S
C672 C671 1.523 . S
H673 C648 0.950 . S
H674 C650 0.950 . S
H675 C651 0.949 . S
H676 C653 0.950 . S
H677 C655 0.950 . S
C678 C679 1.349 . S
C678 C680 1.327 . S
C678 H703 0.950 . S
C679 C678 1.349 . S
C679 C695 1.349 . S
C680 C678 1.327 . S
C680 C699 1.429 . S
C680 H704 0.950 . S
C681 C698 1.574 . S
C681 C700 1.368 . S
C681 H705 0.949 . S
H682 C686 0.949 . S
C683 C684 1.349 . S
C683 C685 1.327 . S
C683 H706 0.950 . S
C684 C683 1.349 . S
C684 C696 1.349 . S
C685 C683 1.327 . S
C685 C701 1.429 . S
C685 H707 0.950 . S
C686 H682 0.949 . S
C686 C694 1.574 . S
C686 C702 1.368 . S
H687 C695 0.950 . S
H688 C693 0.950 . S
H689 C694 0.949 . S
H690 C696 0.950 . S
H691 C697 0.950 . S
H692 C698 0.949 . S
C693 H688 0.950 . S
C693 C695 1.327 . S
C693 C699 1.429 . S
C694 C686 1.574 . S
C694 H689 0.949 . S
C694 C700 1.368 . S
C695 C679 1.349 . S
C695 H687 0.950 . S
C695 C693 1.327 . S
C696 C684 1.349 . S
C696 H690 0.950 . S
C696 C697 1.327 . S
C697 H691 0.950 . S
C697 C696 1.327 . S
C697 C701 1.429 . S
C698 C681 1.574 . S
C698 H692 0.949 . S
C698 C702 1.368 . S
C699 C680 1.429 . S
C699 C693 1.429 . S
C699 C700 1.523 . S
C700 C681 1.368 . S
C700 C694 1.368 . S
C700 C699 1.523 . S
C701 C685 1.429 . S
C701 C697 1.429 . S
C701 C702 1.523 . S
C702 C686 1.368 . S
C702 C698 1.368 . S
C702 C701 1.523 . S
H703 C678 0.950 . S
H704 C680 0.950 . S
H705 C681 0.949 . S
H706 C683 0.950 . S
H707 C685 0.950 . S
C708 C709 1.349 . S
C708 C710 1.327 . S
C708 H733 0.950 . S
C709 C708 1.349 . S
C709 C725 1.349 . S
C710 C708 1.327 . S
C710 C729 1.429 . S
C710 H734 0.950 . S
C711 C728 1.574 . S
C711 C730 1.368 . S
C711 H735 0.949 . S
H712 C716 0.949 . S
C713 C714 1.349 . S
C713 C715 1.327 . S
C713 H736 0.950 . S
C714 C713 1.349 . S
C714 C726 1.349 . S
C715 C713 1.327 . S
C715 C731 1.429 . S
C715 H737 0.950 . S
C716 H712 0.949 . S
C716 C724 1.574 . S
C716 C732 1.368 . S
H717 C725 0.950 . S
H718 C723 0.950 . S
H719 C724 0.949 . S
H720 C726 0.950 . S
H721 C727 0.950 . S
H722 C728 0.949 . S
C723 H718 0.950 . S
C723 C725 1.327 . S
C723 C729 1.429 . S
C724 C716 1.574 . S
C724 H719 0.949 . S
C724 C730 1.368 . S
C725 C709 1.349 . S
C725 H717 0.950 . S
C725 C723 1.327 . S
C726 C714 1.349 . S
C726 H720 0.950 . S
C726 C727 1.327 . S
C727 H721 0.950 . S
C727 C726 1.327 . S
C727 C731 1.429 . S
C728 C711 1.574 . S
C728 H722 0.949 . S
C728 C732 1.368 . S
C729 C710 1.429 . S
C729 C723 1.429 . S
C729 C730 1.523 . S
C730 C711 1.368 . S
C730 C724 1.368 . S
C730 C729 1.523 . S
C731 C715 1.429 . S
C731 C727 1.429 . S
C731 C732 1.523 . S
C732 C716 1.368 . S
C732 C728 1.368 . S
C732 C731 1.523 . S
H733 C708 0.950 . S
H734 C710 0.950 . S
H735 C711 0.949 . S
H736 C713 0.950 . S
H737 C715 0.950 . S
C738 C739 1.349 . S
C738 C740 1.327 . S
C738 H763 0.950 . S
C739 C738 1.349 . S
C739 C755 1.349 . S
C740 C738 1.327 . S
C740 C759 1.429 . S
C740 H764 0.950 . S
C741 C758 1.574 . S
C741 C760 1.368 . S
C741 H765 0.949 . S
H742 C746 0.949 . S
C743 C744 1.349 . S
C743 C745 1.327 . S
C743 H766 0.950 . S
C744 C743 1.349 . S
C744 C756 1.349 . S
C745 C743 1.327 . S
C745 C761 1.429 . S
C745 H767 0.950 . S
C746 H742 0.949 . S
C746 C754 1.574 . S
C746 C762 1.368 . S
H747 C755 0.950 . S
H748 C753 0.950 . S
H749 C754 0.949 . S
H750 C756 0.950 . S
H751 C757 0.950 . S
H752 C758 0.949 . S
C753 H748 0.950 . S
C753 C755 1.327 . S
C753 C759 1.429 . S
C754 C746 1.574 . S
C754 H749 0.949 . S
C754 C760 1.368 . S
C755 C739 1.349 . S
C755 H747 0.950 . S
C755 C753 1.327 . S
C756 C744 1.349 . S
C756 H750 0.950 . S
C756 C757 1.327 . S
C757 H751 0.950 . S
C757 C756 1.327 . S
C757 C761 1.429 . S
C758 C741 1.574 . S
C758 H752 0.949 . S
C758 C762 1.368 . S
C759 C740 1.429 . S
C759 C753 1.429 . S
C759 C760 1.523 . S
C760 C741 1.368 . S
C760 C754 1.368 . S
C760 C759 1.523 . S
C761 C745 1.429 . S
C761 C757 1.429 . S
C761 C762 1.523 . S
C762 C746 1.368 . S
C762 C758 1.368 . S
C762 C761 1.523 . S
H763 C738 0.950 . S
H764 C740 0.950 . S
H765 C741 0.949 . S
H766 C743 0.950 . S
H767 C745 0.950 . S
C768 C769 1.349 . S
C768 C770 1.327 . S
C768 H793 0.950 . S
C769 C768 1.349 . S
C769 C785 1.349 . S
C770 C768 1.327 . S
C770 C789 1.429 . S
C770 H794 0.950 . S
C771 C788 1.574 . S
C771 C790 1.368 . S
C771 H795 0.949 . S
H772 C776 0.949 . S
C773 C774 1.349 . S
C773 C775 1.327 . S
C773 H796 0.950 . S
C774 C773 1.349 . S
C774 C786 1.349 . S
C775 C773 1.327 . S
C775 C791 1.429 . S
C775 H797 0.950 . S
C776 H772 0.949 . S
C776 C784 1.574 . S
C776 C792 1.368 . S
H777 C785 0.950 . S
H778 C783 0.950 . S
H779 C784 0.949 . S
H780 C786 0.950 . S
H781 C787 0.950 . S
H782 C788 0.949 . S
C783 H778 0.950 . S
C783 C785 1.327 . S
C783 C789 1.429 . S
C784 C776 1.574 . S
C784 H779 0.949 . S
C784 C790 1.368 . S
C785 C769 1.349 . S
C785 H777 0.950 . S
C785 C783 1.327 . S
C786 C774 1.349 . S
C786 H780 0.950 . S
C786 C787 1.327 . S
C787 H781 0.950 . S
C787 C786 1.327 . S
C787 C791 1.429 . S
C788 C771 1.574 . S
C788 H782 0.949 . S
C788 C792 1.368 . S
C789 C770 1.429 . S
C789 C783 1.429 . S
C789 C790 1.523 . S
C790 C771 1.368 . S
C790 C784 1.368 . S
C790 C789 1.523 . S
C791 C775 1.429 . S
C791 C787 1.429 . S
C791 C792 1.523 . S
C792 C776 1.368 . S
C792 C788 1.368 . S
C792 C791 1.523 . S
H793 C768 0.950 . S
H794 C770 0.950 . S
H795 C771 0.949 . S
H796 C773 0.950 . S
H797 C775 0.950 . S
C798 C799 1.349 . S
C798 C800 1.327 . S
C798 H823 0.950 . S
C799 C798 1.349 . S
C799 C815 1.349 . S
C800 C798 1.327 . S
C800 C819 1.429 . S
C800 H824 0.950 . S
C801 C818 1.574 . S
C801 C820 1.368 . S
C801 H825 0.949 . S
H802 C806 0.949 . S
C803 C804 1.349 . S
C803 C805 1.327 . S
C803 H826 0.950 . S
C804 C803 1.349 . S
C804 C816 1.349 . S
C805 C803 1.327 . S
C805 C821 1.429 . S
C805 H827 0.950 . S
C806 H802 0.949 . S
C806 C814 1.574 . S
C806 C822 1.368 . S
H807 C815 0.950 . S
H808 C813 0.950 . S
H809 C814 0.949 . S
H810 C816 0.950 . S
H811 C817 0.950 . S
H812 C818 0.949 . S
C813 H808 0.950 . S
C813 C815 1.327 . S
C813 C819 1.429 . S
C814 C806 1.574 . S
C814 H809 0.949 . S
C814 C820 1.368 . S
C815 C799 1.349 . S
C815 H807 0.950 . S
C815 C813 1.327 . S
C816 C804 1.349 . S
C816 H810 0.950 . S
C816 C817 1.327 . S
C817 H811 0.950 . S
C817 C816 1.327 . S
C817 C821 1.429 . S
C818 C801 1.574 . S
C818 H812 0.949 . S
C818 C822 1.368 . S
C819 C800 1.429 . S
C819 C813 1.429 . S
C819 C820 1.523 . S
C820 C801 1.368 . S
C820 C814 1.368 . S
C820 C819 1.523 . S
C821 C805 1.429 . S
C821 C817 1.429 . S
C821 C822 1.523 . S
C822 C806 1.368 . S
C822 C818 1.368 . S
C822 C821 1.523 . S
H823 C798 0.950 . S
H824 C800 0.950 . S
H825 C801 0.949 . S
H826 C803 0.950 . S
H827 C805 0.950 . S
C828 C829 1.349 . S
C828 C830 1.327 . S
C828 H853 0.950 . S
C829 C828 1.349 . S
C829 C845 1.349 . S
C830 C828 1.327 . S
C830 C849 1.429 . S
C830 H854 0.950 . S
C831 C848 1.574 . S
C831 C850 1.368 . S
C831 H855 0.949 . S
H832 C836 0.949 . S
C833 C834 1.349 . S
C833 C835 1.327 . S
C833 H856 0.950 . S
C834 C833 1.349 . S
C834 C846 1.349 . S
C835 C833 1.327 . S
C835 C851 1.429 . S
C835 H857 0.950 . S
C836 H832 0.949 . S
C836 C844 1.574 . S
C836 C852 1.368 . S
H837 C845 0.950 . S
H838 C843 0.950 . S
H839 C844 0.949 . S
H840 C846 0.950 . S
H841 C847 0.950 . S
H842 C848 0.949 . S
C843 H838 0.950 . S
C843 C845 1.327 . S
C843 C849 1.429 . S
C844 C836 1.574 . S
C844 H839 0.949 . S
C844 C850 1.368 . S
C845 C829 1.349 . S
C845 H837 0.950 . S
C845 C843 1.327 . S
C846 C834 1.349 . S
C846 H840 0.950 . S
C846 C847 1.327 . S
C847 H841 0.950 . S
C847 C846 1.327 . S
C847 C851 1.429 . S
C848 C831 1.574 . S
C848 H842 0.949 . S
C848 C852 1.368 . S
C849 C830 1.429 . S
C849 C843 1.429 . S
C849 C850 1.523 . S
C850 C831 1.368 . S
C850 C844 1.368 . S
C850 C849 1.523 . S
C851 C835 1.429 . S
C851 C847 1.429 . S
C851 C852 1.523 . S
C852 C836 1.368 . S
C852 C848 1.368 . S
C852 C851 1.523 . S
H853 C828 0.950 . S
H854 C830 0.950 . S
H855 C831 0.949 . S
H856 C833 0.950 . S
H857 C835 0.950 . S
C858 C859 1.349 . S
C858 C860 1.327 . S
C858 H883 0.950 . S
C859 C858 1.349 . S
C859 C875 1.349 . S
C860 C858 1.327 . S
C860 C879 1.429 . S
C860 H884 0.950 . S
C861 C878 1.574 . S
C861 C880 1.368 . S
C861 H885 0.949 . S
H862 C866 0.949 . S
C863 C864 1.349 . S
C863 C865 1.327 . S
C863 H886 0.950 . S
C864 C863 1.349 . S
C864 C876 1.349 . S
C865 C863 1.327 . S
C865 C881 1.429 . S
C865 H887 0.950 . S
C866 H862 0.949 . S
C866 C874 1.574 . S
C866 C882 1.368 . S
H867 C875 0.950 . S
H868 C873 0.950 . S
H869 C874 0.949 . S
H870 C876 0.950 . S
H871 C877 0.950 . S
H872 C878 0.949 . S
C873 H868 0.950 . S
C873 C875 1.327 . S
C873 C879 1.429 . S
C874 C866 1.574 . S
C874 H869 0.949 . S
C874 C880 1.368 . S
C875 C859 1.349 . S
C875 H867 0.950 . S
C875 C873 1.327 . S
C876 C864 1.349 . S
C876 H870 0.950 . S
C876 C877 1.327 . S
C877 H871 0.950 . S
C877 C876 1.327 . S
C877 C881 1.429 . S
C878 C861 1.574 . S
C878 H872 0.949 . S
C878 C882 1.368 . S
C879 C860 1.429 . S
C879 C873 1.429 . S
C879 C880 1.523 . S
C880 C861 1.368 . S
C880 C874 1.368 . S
C880 C879 1.523 . S
C881 C865 1.429 . S
C881 C877 1.429 . S
C881 C882 1.523 . S
C882 C866 1.368 . S
C882 C878 1.368 . S
C882 C881 1.523 . S
H883 C858 0.950 . S
H884 C860 0.950 . S
H885 C861 0.949 . S
H886 C863 0.950 . S
H887 C865 0.950 . S
C888 C889 1.349 . S
C888 C890 1.327 . S
C888 H913 0.950 . S
C889 C888 1.349 . S
C889 C905 1.349 . S
C890 C888 1.327 . S
C890 C909 1.429 . S
C890 H914 0.950 . S
C891 C908 1.574 . S
C891 C910 1.368 . S
C891 H915 0.949 . S
H892 C896 0.949 . S
C893 C894 1.349 . S
C893 C895 1.327 . S
C893 H916 0.950 . S
C894 C893 1.349 . S
C894 C906 1.349 . S
C895 C893 1.327 . S
C895 C911 1.429 . S
C895 H917 0.950 . S
C896 H892 0.949 . S
C896 C904 1.574 . S
C896 C912 1.368 . S
H897 C905 0.950 . S
H898 C903 0.950 . S
H899 C904 0.949 . S
H900 C906 0.950 . S
H901 C907 0.950 . S
H902 C908 0.949 . S
C903 H898 0.950 . S
C903 C905 1.327 . S
C903 C909 1.429 . S
C904 C896 1.574 . S
C904 H899 0.949 . S
C904 C910 1.368 . S
C905 C889 1.349 . S
C905 H897 0.950 . S
C905 C903 1.327 . S
C906 C894 1.349 . S
C906 H900 0.950 . S
C906 C907 1.327 . S
C907 H901 0.950 . S
C907 C906 1.327 . S
C907 C911 1.429 . S
C908 C891 1.574 . S
C908 H902 0.949 . S
C908 C912 1.368 . S
C909 C890 1.429 . S
C909 C903 1.429 . S
C909 C910 1.523 . S
C910 C891 1.368 . S
C910 C904 1.368 . S
C910 C909 1.523 . S
C911 C895 1.429 . S
C911 C907 1.429 . S
C911 C912 1.523 . S
C912 C896 1.368 . S
C912 C908 1.368 . S
C912 C911 1.523 . S
H913 C888 0.950 . S
H914 C890 0.950 . S
H915 C891 0.949 . S
H916 C893 0.950 . S
H917 C895 0.950 . S
C918 C919 1.349 . S
C918 C920 1.327 . S
C918 H943 0.950 . S
C919 C918 1.349 . S
C919 C935 1.349 . S
C920 C918 1.327 . S
C920 C939 1.429 . S
C920 H944 0.950 . S
C921 C938 1.574 . S
C921 C940 1.368 . S
C921 H945 0.949 . S
H922 C926 0.949 . S
C923 C924 1.349 . S
C923 C925 1.327 . S
C923 H946 0.950 . S
C924 C923 1.349 . S
C924 C936 1.349 . S
C925 C923 1.327 . S
C925 C941 1.429 . S
C925 H947 0.950 . S
C926 H922 0.949 . S
C926 C934 1.574 . S
C926 C942 1.368 . S
H927 C935 0.950 . S
H928 C933 0.950 . S
H929 C934 0.949 . S
H930 C936 0.950 . S
H931 C937 0.950 . S
H932 C938 0.949 . S
C933 H928 0.950 . S
C933 C935 1.327 . S
C933 C939 1.429 . S
C934 C926 1.574 . S
C934 H929 0.949 . S
C934 C940 1.368 . S
C935 C919 1.349 . S
C935 H927 0.950 . S
C935 C933 1.327 . S
C936 C924 1.349 . S
C936 H930 0.950 . S
C936 C937 1.327 . S
C937 H931 0.950 . S
C937 C936 1.327 . S
C937 C941 1.429 . S
C938 C921 1.574 . S
C938 H932 0.949 . S
C938 C942 1.368 . S
C939 C920 1.429 . S
C939 C933 1.429 . S
C939 C940 1.523 . S
C940 C921 1.368 . S
C940 C934 1.368 . S
C940 C939 1.523 . S
C941 C925 1.429 . S
C941 C937 1.429 . S
C941 C942 1.523 . S
C942 C926 1.368 . S
C942 C938 1.368 . S
C942 C941 1.523 . S
H943 C918 0.950 . S
H944 C920 0.950 . S
H945 C921 0.949 . S
H946 C923 0.950 . S
H947 C925 0.950 . S
C948 C949 1.349 . S
C948 C950 1.327 . S
C948 H973 0.950 . S
C949 C948 1.349 . S
C949 C965 1.349 . S
C950 C948 1.327 . S
C950 C969 1.429 . S
C950 H974 0.950 . S
C951 C968 1.574 . S
C951 C970 1.368 . S
C951 H975 0.949 . S
H952 C956 0.949 . S
C953 C954 1.349 . S
C953 C955 1.327 . S
C953 H976 0.950 . S
C954 C953 1.349 . S
C954 C966 1.349 . S
C955 C953 1.327 . S
C955 C971 1.429 . S
C955 H977 0.950 . S
C956 H952 0.949 . S
C956 C964 1.574 . S
C956 C972 1.368 . S
H957 C965 0.950 . S
H958 C963 0.950 . S
H959 C964 0.949 . S
H960 C966 0.950 . S
H961 C967 0.950 . S
H962 C968 0.949 . S
C963 H958 0.950 . S
C963 C965 1.327 . S
C963 C969 1.429 . S
C964 C956 1.574 . S
C964 H959 0.949 . S
C964 C970 1.368 . S
C965 C949 1.349 . S
C965 H957 0.950 . S
C965 C963 1.327 . S
C966 C954 1.349 . S
C966 H960 0.950 . S
C966 C967 1.327 . S
C967 H961 0.950 . S
C967 C966 1.327 . S
C967 C971 1.429 . S
C968 C951 1.574 . S
C968 H962 0.949 . S
C968 C972 1.368 . S
C969 C950 1.429 . S
C969 C963 1.429 . S
C969 C970 1.523 . S
C970 C951 1.368 . S
C970 C964 1.368 . S
C970 C969 1.523 . S
C971 C955 1.429 . S
C971 C967 1.429 . S
C971 C972 1.523 . S
C972 C956 1.368 . S
C972 C968 1.368 . S
C972 C971 1.523 . S
H973 C948 0.950 . S
H974 C950 0.950 . S
H975 C951 0.949 . S
H976 C953 0.950 . S
H977 C955 0.950 . S
C978 C979 1.349 . S
C978 C980 1.327 . S
C978 H1003 0.950 . S
C979 C978 1.349 . S
C979 C995 1.349 . S
C980 C978 1.327 . S
C980 C999 1.429 . S
C980 H1004 0.950 . S
C981 C998 1.574 . S
C981 C1000 1.368 . S
C981 H1005 0.949 . S
H982 C986 0.949 . S
C983 C984 1.349 . S
C983 C985 1.323 . S
C983 H1006 0.950 . S
C984 C983 1.349 . S
C984 C996 1.349 . S
C985 C983 1.323 . S
C985 C1001 1.430 1_554 S
C985 H1007 0.952 1_554 S
C986 H982 0.949 . S
C986 C994 1.574 . S
C986 C1002 1.368 . S
H987 C995 0.950 . S
H988 C993 0.950 . S
H989 C994 0.949 . S
H990 C996 0.950 . S
H991 C997 0.950 . S
H992 C998 0.949 . S
C993 H988 0.950 . S
C993 C995 1.327 . S
C993 C999 1.429 . S
C994 C986 1.574 . S
C994 H989 0.949 . S
C994 C1000 1.368 . S
C995 C979 1.349 . S
C995 H987 0.950 . S
C995 C993 1.327 . S
C996 C984 1.349 . S
C996 H990 0.950 . S
C996 C997 1.327 . S
C997 H991 0.950 . S
C997 C996 1.327 . S
C997 C1001 1.429 1_554 S
C998 C981 1.574 . S
C998 H992 0.949 . S
C998 C1002 1.368 . S
C999 C980 1.429 . S
C999 C993 1.429 . S
C999 C1000 1.523 . S
C1000 C981 1.368 . S
C1000 C994 1.368 . S
C1000 C999 1.523 . S
C1001 C985 1.430 1_556 S
C1001 C997 1.429 1_556 S
C1001 C1002 1.523 . S
C1002 C986 1.368 . S
C1002 C998 1.368 . S
C1002 C1001 1.523 . S
H1003 C978 0.950 . S
H1004 C980 0.950 . S
H1005 C981 0.949 . S
H1006 C983 0.950 . S
H1007 C985 0.952 1_556 S
C1008 C1009 1.349 . S
C1008 C1010 1.327 . S
C1008 H1033 0.950 . S
C1009 C1008 1.349 . S
C1009 C1025 1.349 . S
C1010 C1008 1.327 . S
C1010 C1029 1.429 . S
C1010 H1034 0.950 . S
C1011 C1028 1.574 . S
C1011 C1030 1.368 . S
C1011 H1035 0.949 . S
H1012 C1016 0.949 . S
C1013 C1014 1.349 . S
C1013 C1015 1.327 . S
C1013 H1036 0.950 . S
C1014 C1013 1.349 . S
C1014 C1026 1.349 . S
C1015 C1013 1.327 . S
C1015 C1031 1.429 . S
C1015 H1037 0.950 . S
C1016 H1012 0.949 . S
C1016 C1024 1.574 . S
C1016 C1032 1.368 . S
H1017 C1025 0.950 . S
H1018 C1023 0.950 . S
H1019 C1024 0.949 . S
H1020 C1026 0.950 . S
H1021 C1027 0.950 . S
H1022 C1028 0.949 . S
C1023 H1018 0.950 . S
C1023 C1025 1.327 . S
C1023 C1029 1.429 . S
C1024 C1016 1.574 . S
C1024 H1019 0.949 . S
C1024 C1030 1.368 . S
C1025 C1009 1.349 . S
C1025 H1017 0.950 . S
C1025 C1023 1.327 . S
C1026 C1014 1.349 . S
C1026 H1020 0.950 . S
C1026 C1027 1.327 . S
C1027 H1021 0.950 . S
C1027 C1026 1.327 . S
C1027 C1031 1.429 . S
C1028 C1011 1.574 . S
C1028 H1022 0.949 . S
C1028 C1032 1.368 . S
C1029 C1010 1.429 . S
C1029 C1023 1.429 . S
C1029 C1030 1.523 . S
C1030 C1011 1.368 . S
C1030 C1024 1.368 . S
C1030 C1029 1.523 . S
C1031 C1015 1.429 . S
C1031 C1027 1.429 . S
C1031 C1032 1.523 . S
C1032 C1016 1.368 . S
C1032 C1028 1.368 . S
C1032 C1031 1.523 . S
H1033 C1008 0.950 . S
H1034 C1010 0.950 . S
H1035 C1011 0.949 . S
H1036 C1013 0.950 . S
H1037 C1015 0.950 . S
C1038 C1039 1.349 . S
C1038 C1040 1.327 . S
C1038 H1063 0.950 . S
C1039 C1038 1.349 . S
C1039 C1055 1.349 . S
C1040 C1038 1.327 . S
C1040 C1059 1.429 . S
C1040 H1064 0.950 . S
C1041 C1058 1.574 . S
C1041 C1060 1.368 . S
C1041 H1065 0.949 . S
H1042 C1046 0.949 . S
C1043 C1044 1.349 . S
C1043 C1045 1.327 . S
C1043 H1066 0.950 . S
C1044 C1043 1.349 . S
C1044 C1056 1.349 . S
C1045 C1043 1.327 . S
C1045 C1061 1.429 . S
C1045 H1067 0.950 . S
C1046 H1042 0.949 . S
C1046 C1054 1.574 . S
C1046 C1062 1.368 . S
H1047 C1055 0.950 . S
H1048 C1053 0.950 . S
H1049 C1054 0.949 . S
H1050 C1056 0.950 . S
H1051 C1057 0.950 . S
H1052 C1058 0.949 . S
C1053 H1048 0.950 . S
C1053 C1055 1.327 . S
C1053 C1059 1.429 . S
C1054 C1046 1.574 . S
C1054 H1049 0.949 . S
C1054 C1060 1.368 . S
C1055 C1039 1.349 . S
C1055 H1047 0.950 . S
C1055 C1053 1.327 . S
C1056 C1044 1.349 . S
C1056 H1050 0.950 . S
C1056 C1057 1.327 . S
C1057 H1051 0.950 . S
C1057 C1056 1.327 . S
C1057 C1061 1.429 . S
C1058 C1041 1.574 . S
C1058 H1052 0.949 . S
C1058 C1062 1.368 . S
C1059 C1040 1.429 . S
C1059 C1053 1.429 . S
C1059 C1060 1.523 . S
C1060 C1041 1.368 . S
C1060 C1054 1.368 . S
C1060 C1059 1.523 . S
C1061 C1045 1.429 . S
C1061 C1057 1.429 . S
C1061 C1062 1.523 . S
C1062 C1046 1.368 . S
C1062 C1058 1.368 . S
C1062 C1061 1.523 . S
H1063 C1038 0.950 . S
H1064 C1040 0.950 . S
H1065 C1041 0.949 . S
H1066 C1043 0.950 . S
H1067 C1045 0.950 . S
C1068 C1069 1.349 . S
C1068 C1070 1.327 . S
C1068 H1093 0.950 . S
C1069 C1068 1.349 . S
C1069 C1085 1.349 . S
C1070 C1068 1.327 . S
C1070 C1089 1.429 . S
C1070 H1094 0.950 . S
C1071 C1088 1.574 . S
C1071 C1090 1.368 . S
C1071 H1095 0.949 . S
H1072 C1076 0.949 . S
C1073 C1074 1.349 . S
C1073 C1075 1.327 . S
C1073 H1096 0.950 . S
C1074 C1073 1.349 . S
C1074 C1086 1.349 . S
C1075 C1073 1.327 . S
C1075 C1091 1.429 . S
C1075 H1097 0.950 . S
C1076 H1072 0.949 . S
C1076 C1084 1.574 . S
C1076 C1092 1.368 . S
H1077 C1085 0.950 . S
H1078 C1083 0.950 . S
H1079 C1084 0.949 . S
H1080 C1086 0.950 . S
H1081 C1087 0.950 . S
H1082 C1088 0.949 . S
C1083 H1078 0.950 . S
C1083 C1085 1.327 . S
C1083 C1089 1.429 . S
C1084 C1076 1.574 . S
C1084 H1079 0.949 . S
C1084 C1090 1.368 . S
C1085 C1069 1.349 . S
C1085 H1077 0.950 . S
C1085 C1083 1.327 . S
C1086 C1074 1.349 . S
C1086 H1080 0.950 . S
C1086 C1087 1.327 . S
C1087 H1081 0.950 . S
C1087 C1086 1.327 . S
C1087 C1091 1.429 . S
C1088 C1071 1.574 . S
C1088 H1082 0.949 . S
C1088 C1092 1.368 . S
C1089 C1070 1.429 . S
C1089 C1083 1.429 . S
C1089 C1090 1.523 . S
C1090 C1071 1.368 . S
C1090 C1084 1.368 . S
C1090 C1089 1.523 . S
C1091 C1075 1.429 . S
C1091 C1087 1.429 . S
C1091 C1092 1.523 . S
C1092 C1076 1.368 . S
C1092 C1088 1.368 . S
C1092 C1091 1.523 . S
H1093 C1068 0.950 . S
H1094 C1070 0.950 . S
H1095 C1071 0.949 . S
H1096 C1073 0.950 . S
H1097 C1075 0.950 . S
C1098 C1099 1.349 . S
C1098 C1100 1.327 . S
C1098 H1123 0.950 . S
C1099 C1098 1.349 . S
C1099 C1115 1.349 . S
C1100 C1098 1.327 . S
C1100 C1119 1.429 . S
C1100 H1124 0.950 . S
C1101 C1118 1.574 . S
C1101 C1120 1.368 . S
C1101 H1125 0.949 . S
H1102 C1106 0.949 . S
C1103 C1104 1.349 . S
C1103 C1105 1.327 . S
C1103 H1126 0.950 . S
C1104 C1103 1.349 . S
C1104 C1116 1.349 . S
C1105 C1103 1.327 . S
C1105 C1121 1.429 . S
C1105 H1127 0.950 . S
C1106 H1102 0.949 . S
C1106 C1114 1.574 . S
C1106 C1122 1.368 . S
H1107 C1115 0.950 . S
H1108 C1113 0.950 . S
H1109 C1114 0.949 . S
H1110 C1116 0.950 . S
H1111 C1117 0.950 . S
H1112 C1118 0.949 . S
C1113 H1108 0.950 . S
C1113 C1115 1.327 . S
C1113 C1119 1.429 . S
C1114 C1106 1.574 . S
C1114 H1109 0.949 . S
C1114 C1120 1.368 . S
C1115 C1099 1.349 . S
C1115 H1107 0.950 . S
C1115 C1113 1.327 . S
C1116 C1104 1.349 . S
C1116 H1110 0.950 . S
C1116 C1117 1.327 . S
C1117 H1111 0.950 . S
C1117 C1116 1.327 . S
C1117 C1121 1.429 . S
C1118 C1101 1.574 . S
C1118 H1112 0.949 . S
C1118 C1122 1.368 . S
C1119 C1100 1.429 . S
C1119 C1113 1.429 . S
C1119 C1120 1.523 . S
C1120 C1101 1.368 . S
C1120 C1114 1.368 . S
C1120 C1119 1.523 . S
C1121 C1105 1.429 . S
C1121 C1117 1.429 . S
C1121 C1122 1.523 . S
C1122 C1106 1.368 . S
C1122 C1118 1.368 . S
C1122 C1121 1.523 . S
H1123 C1098 0.950 . S
H1124 C1100 0.950 . S
H1125 C1101 0.949 . S
H1126 C1103 0.950 . S
H1127 C1105 0.950 . S
C1128 C1129 1.349 . S
C1128 C1130 1.327 . S
C1128 H1153 0.950 . S
C1129 C1128 1.349 . S
C1129 C1145 1.349 . S
C1130 C1128 1.327 . S
C1130 C1149 1.429 . S
C1130 H1154 0.950 . S
C1131 C1148 1.574 . S
C1131 C1150 1.368 . S
C1131 H1155 0.949 . S
H1132 C1136 0.949 . S
C1133 C1134 1.349 . S
C1133 C1135 1.327 . S
C1133 H1156 0.950 . S
C1134 C1133 1.349 . S
C1134 C1146 1.349 . S
C1135 C1133 1.327 . S
C1135 C1151 1.429 . S
C1135 H1157 0.950 . S
C1136 H1132 0.949 . S
C1136 C1144 1.574 . S
C1136 C1152 1.368 . S
H1137 C1145 0.950 . S
H1138 C1143 0.950 . S
H1139 C1144 0.949 . S
H1140 C1146 0.950 . S
H1141 C1147 0.950 . S
H1142 C1148 0.949 . S
C1143 H1138 0.950 . S
C1143 C1145 1.327 . S
C1143 C1149 1.429 . S
C1144 C1136 1.574 . S
C1144 H1139 0.949 . S
C1144 C1150 1.368 . S
C1145 C1129 1.349 . S
C1145 H1137 0.950 . S
C1145 C1143 1.327 . S
C1146 C1134 1.349 . S
C1146 H1140 0.950 . S
C1146 C1147 1.327 . S
C1147 H1141 0.950 . S
C1147 C1146 1.327 . S
C1147 C1151 1.429 . S
C1148 C1131 1.574 . S
C1148 H1142 0.949 . S
C1148 C1152 1.368 . S
C1149 C1130 1.429 . S
C1149 C1143 1.429 . S
C1149 C1150 1.523 . S
C1150 C1131 1.368 . S
C1150 C1144 1.368 . S
C1150 C1149 1.523 . S
C1151 C1135 1.429 . S
C1151 C1147 1.429 . S
C1151 C1152 1.523 . S
C1152 C1136 1.368 . S
C1152 C1148 1.368 . S
C1152 C1151 1.523 . S
H1153 C1128 0.950 . S
H1154 C1130 0.950 . S
H1155 C1131 0.949 . S
H1156 C1133 0.950 . S
H1157 C1135 0.950 . S
C1158 C1159 1.349 . S
C1158 C1160 1.327 . S
C1158 H1183 0.950 . S
C1159 C1158 1.349 . S
C1159 C1175 1.349 . S
C1160 C1158 1.327 . S
C1160 C1179 1.429 . S
C1160 H1184 0.950 . S
C1161 C1178 1.574 . S
C1161 C1180 1.368 . S
C1161 H1185 0.949 . S
H1162 C1166 0.949 . S
C1163 C1164 1.349 . S
C1163 C1165 1.327 . S
C1163 H1186 0.950 . S
C1164 C1163 1.349 . S
C1164 C1176 1.349 . S
C1165 C1163 1.327 . S
C1165 C1181 1.429 . S
C1165 H1187 0.950 . S
C1166 H1162 0.949 . S
C1166 C1174 1.574 . S
C1166 C1182 1.368 . S
H1167 C1175 0.950 . S
H1168 C1173 0.950 . S
H1169 C1174 0.949 . S
H1170 C1176 0.950 . S
H1171 C1177 0.950 . S
H1172 C1178 0.949 . S
C1173 H1168 0.950 . S
C1173 C1175 1.327 . S
C1173 C1179 1.429 . S
C1174 C1166 1.574 . S
C1174 H1169 0.949 . S
C1174 C1180 1.368 . S
C1175 C1159 1.349 . S
C1175 H1167 0.950 . S
C1175 C1173 1.327 . S
C1176 C1164 1.349 . S
C1176 H1170 0.950 . S
C1176 C1177 1.327 . S
C1177 H1171 0.950 . S
C1177 C1176 1.327 . S
C1177 C1181 1.429 . S
C1178 C1161 1.574 . S
C1178 H1172 0.949 . S
C1178 C1182 1.368 . S
C1179 C1160 1.429 . S
C1179 C1173 1.429 . S
C1179 C1180 1.523 . S
C1180 C1161 1.368 . S
C1180 C1174 1.368 . S
C1180 C1179 1.523 . S
C1181 C1165 1.429 . S
C1181 C1177 1.429 . S
C1181 C1182 1.523 . S
C1182 C1166 1.368 . S
C1182 C1178 1.368 . S
C1182 C1181 1.523 . S
H1183 C1158 0.950 . S
H1184 C1160 0.950 . S
H1185 C1161 0.949 . S
H1186 C1163 0.950 . S
H1187 C1165 0.950 . S
C1188 C1189 1.349 . S
C1188 C1190 1.327 . S
C1188 H1213 0.950 . S
C1189 C1188 1.349 . S
C1189 C1205 1.349 . S
C1190 C1188 1.327 . S
C1190 C1209 1.429 . S
C1190 H1214 0.950 . S
C1191 C1208 1.577 1_554 S
C1191 C1210 1.368 . S
C1191 H1215 0.949 . S
H1192 C1196 0.949 . S
C1193 C1194 1.349 . S
C1193 C1195 1.327 . S
C1193 H1216 0.950 . S
C1194 C1193 1.349 . S
C1194 C1206 1.349 . S
C1195 C1193 1.327 . S
C1195 C1211 1.429 . S
C1195 H1217 0.950 . S
C1196 H1192 0.949 . S
C1196 C1204 1.574 . S
C1196 C1212 1.368 1_554 S
H1197 C1205 0.950 . S
H1198 C1203 0.950 . S
H1199 C1204 0.949 . S
H1200 C1206 0.950 . S
H1201 C1207 0.950 . S
H1202 C1208 0.946 . S
C1203 H1198 0.950 . S
C1203 C1205 1.327 . S
C1203 C1209 1.429 . S
C1204 C1196 1.574 . S
C1204 H1199 0.949 . S
C1204 C1210 1.368 . S
C1205 C1189 1.349 . S
C1205 H1197 0.950 . S
C1205 C1203 1.327 . S
C1206 C1194 1.349 . S
C1206 H1200 0.950 . S
C1206 C1207 1.327 . S
C1207 H1201 0.950 . S
C1207 C1206 1.327 . S
C1207 C1211 1.429 . S
C1208 C1191 1.577 1_556 S
C1208 H1202 0.946 . S
C1208 C1212 1.368 . S
C1209 C1190 1.429 . S
C1209 C1203 1.429 . S
C1209 C1210 1.523 . S
C1210 C1191 1.368 . S
C1210 C1204 1.368 . S
C1210 C1209 1.523 . S
C1211 C1195 1.429 . S
C1211 C1207 1.429 . S
C1211 C1212 1.523 . S
C1212 C1196 1.368 1_556 S
C1212 C1208 1.368 . S
C1212 C1211 1.523 . S
H1213 C1188 0.950 . S
H1214 C1190 0.950 . S
H1215 C1191 0.949 . S
H1216 C1193 0.950 . S
H1217 C1195 0.950 . S
C1218 C1219 1.349 . S
C1218 C1220 1.327 . S
C1218 H1243 0.950 . S
C1219 C1218 1.349 . S
C1219 C1235 1.349 . S
C1220 C1218 1.327 . S
C1220 C1239 1.429 . S
C1220 H1244 0.950 . S
C1221 C1238 1.574 . S
C1221 C1240 1.368 . S
C1221 H1245 0.949 . S
H1222 C1226 0.949 . S
C1223 C1224 1.349 . S
C1223 C1225 1.327 . S
C1223 H1246 0.950 . S
C1224 C1223 1.349 . S
C1224 C1236 1.349 . S
C1225 C1223 1.327 . S
C1225 C1241 1.429 . S
C1225 H1247 0.950 . S
C1226 H1222 0.949 . S
C1226 C1234 1.574 . S
C1226 C1242 1.368 . S
H1227 C1235 0.950 . S
H1228 C1233 0.950 . S
H1229 C1234 0.949 . S
H1230 C1236 0.950 . S
H1231 C1237 0.950 . S
H1232 C1238 0.949 . S
C1233 H1228 0.950 . S
C1233 C1235 1.327 . S
C1233 C1239 1.429 . S
C1234 C1226 1.574 . S
C1234 H1229 0.949 . S
C1234 C1240 1.368 . S
C1235 C1219 1.349 . S
C1235 H1227 0.950 . S
C1235 C1233 1.327 . S
C1236 C1224 1.349 . S
C1236 H1230 0.950 . S
C1236 C1237 1.327 . S
C1237 H1231 0.950 . S
C1237 C1236 1.327 . S
C1237 C1241 1.429 . S
C1238 C1221 1.574 . S
C1238 H1232 0.949 . S
C1238 C1242 1.368 . S
C1239 C1220 1.429 . S
C1239 C1233 1.429 . S
C1239 C1240 1.523 . S
C1240 C1221 1.368 . S
C1240 C1234 1.368 . S
C1240 C1239 1.523 . S
C1241 C1225 1.429 . S
C1241 C1237 1.429 . S
C1241 C1242 1.523 . S
C1242 C1226 1.368 . S
C1242 C1238 1.368 . S
C1242 C1241 1.523 . S
H1243 C1218 0.950 . S
H1244 C1220 0.950 . S
H1245 C1221 0.949 . S
H1246 C1223 0.950 . S
H1247 C1225 0.950 . S
C534 C514 1.426 . S
C529 C51 1.396 . S
C559 C125 1.370 . S
C564 C455 1.375 . S
C589 C217 2.806 . S
C594 C458 2.841 . S
C619 C291 1.518 . S
C624 C472 1.519 . S
C654 C497 0.881 . S
C649 C347 0.871 . S
C679 C421 0.805 . S
C684 C500 0.805 . S
C709 C143 2.288 . S
C714 C469 2.290 . S
C739 C199 1.568 . S
C744 C483 1.591 . S
C769 C273 0.344 . S
C774 C486 0.325 . S
C804 C511 1.765 . S
C799 C365 1.731 . S
C834 C525 1.785 . S
C829 C439 1.785 . S
C864 C444 2.646 . S
C859 C69 2.601 . S
C889 C63 1.333 . S
C894 C467 1.411 . S
C919 C137 1.552 . S
C924 C481 1.613 . S
C954 C491 1.322 . S
C949 C187 1.278 . S
C979 C261 1.479 . S
C984 C509 1.498 . S
C1014 C523 1.511 . S
C1009 C359 1.400 . S
C1044 C449 1.079 . S
C1039 C433 1.044 . S
C1074 C519 1.689 . S
C1069 C113 1.666 . S
C1099 C211 1.266 . S
C1104 C453 1.329 . S
C1134 C463 1.568 . S
C1129 C285 1.491 . S
C1159 C335 1.376 . S
C1164 C477 1.436 . S
C1189 C409 1.327 . S
C1194 C495 1.340 . S
C1219 C39 1.628 . S
C1224 C505 1.663 . S
