# Generated by pormake.
# Topology dag, (6,3)-cn, num edge types: 1
# Building blocks:
#     Node 0, Type 0, BuildingBlock: IZENUY_clean_sbu_0, # of connection points: 6
#     Node 1, Type 0, BuildingBlock: IZENUY_clean_sbu_0, # of connection points: 6
#     Node 2, Type 0, BuildingBlock: IZENUY_clean_sbu_0, # of connection points: 6
#     Node 3, Type 0, BuildingBlock: IZENUY_clean_sbu_0, # of connection points: 6
#     Node 4, Type 1, BuildingBlock: BETDAH_clean_linker_0, # of connection points: 3
#     Node 5, Type 1, BuildingBlock: BETDAH_clean_linker_0, # of connection points: 3
#     Node 6, Type 1, BuildingBlock: BETDAH_clean_linker_0, # of connection points: 3
#     Node 7, Type 1, BuildingBlock: BETDAH_clean_linker_0, # of connection points: 3
#     Node 8, Type 1, BuildingBlock: BETDAH_clean_linker_0, # of connection points: 3
#     Node 9, Type 1, BuildingBlock: BETDAH_clean_linker_0, # of connection points: 3
#     Node 10, Type 1, BuildingBlock: BETDAH_clean_linker_0, # of connection points: 3
#     Node 11, Type 1, BuildingBlock: BETDAH_clean_linker_0, # of connection points: 3
#     Edge 12, Type (0, 1), BuildingBlock: EZIPEK_clean_linker_0, # of connection points: 2
#     Edge 13, Type (0, 1), BuildingBlock: EZIPEK_clean_linker_0, # of connection points: 2
#     Edge 14, Type (0, 1), BuildingBlock: EZIPEK_clean_linker_0, # of connection points: 2
#     Edge 15, Type (0, 1), BuildingBlock: EZIPEK_clean_linker_0, # of connection points: 2
#     Edge 16, Type (0, 1), BuildingBlock: EZIPEK_clean_linker_0, # of connection points: 2
#     Edge 17, Type (0, 1), BuildingBlock: EZIPEK_clean_linker_0, # of connection points: 2
#     Edge 18, Type (0, 1), BuildingBlock: EZIPEK_clean_linker_0, # of connection points: 2
#     Edge 19, Type (0, 1), BuildingBlock: EZIPEK_clean_linker_0, # of connection points: 2
#     Edge 20, Type (0, 1), BuildingBlock: EZIPEK_clean_linker_0, # of connection points: 2
#     Edge 21, Type (0, 1), BuildingBlock: EZIPEK_clean_linker_0, # of connection points: 2
#     Edge 22, Type (0, 1), BuildingBlock: EZIPEK_clean_linker_0, # of connection points: 2
#     Edge 23, Type (0, 1), BuildingBlock: EZIPEK_clean_linker_0, # of connection points: 2
#     Edge 24, Type (0, 1), BuildingBlock: EZIPEK_clean_linker_0, # of connection points: 2
#     Edge 25, Type (0, 1), BuildingBlock: EZIPEK_clean_linker_0, # of connection points: 2
#     Edge 26, Type (0, 1), BuildingBlock: EZIPEK_clean_linker_0, # of connection points: 2
#     Edge 27, Type (0, 1), BuildingBlock: EZIPEK_clean_linker_0, # of connection points: 2
#     Edge 28, Type (0, 1), BuildingBlock: EZIPEK_clean_linker_0, # of connection points: 2
#     Edge 29, Type (0, 1), BuildingBlock: EZIPEK_clean_linker_0, # of connection points: 2
#     Edge 30, Type (0, 1), BuildingBlock: EZIPEK_clean_linker_0, # of connection points: 2
#     Edge 31, Type (0, 1), BuildingBlock: EZIPEK_clean_linker_0, # of connection points: 2
#     Edge 32, Type (0, 1), BuildingBlock: EZIPEK_clean_linker_0, # of connection points: 2
#     Edge 33, Type (0, 1), BuildingBlock: EZIPEK_clean_linker_0, # of connection points: 2
#     Edge 34, Type (0, 1), BuildingBlock: EZIPEK_clean_linker_0, # of connection points: 2
#     Edge 35, Type (0, 1), BuildingBlock: EZIPEK_clean_linker_0, # of connection points: 2
# Relax obj value: 0.092
# Max RMSD: 0.109
# Mean RMSD: 0.094
data_MOF--net-dag--node1-IZENUY_clean_sbu_0--node2-BETDAH_clean_linker_0--edge1-EZIPEK_clean_linker_0
_symmetry_space_group_name_H-M    P1
_symmetry_Int_Tables_number       1
_symmetry_cell_setting            triclinic
loop_
_symmetry_equiv_pos_as_xyz
'x, y, z'
_cell_length_a     28.287214
_cell_length_b     30.115236
_cell_length_c     26.171834
_cell_angle_alpha  95.008428
_cell_angle_beta   90.059108
_cell_angle_gamma 89.926528
loop_
_atom_site_label
_atom_site_type_symbol
_atom_site_fract_x
_atom_site_fract_y
_atom_site_fract_z
_atom_type_partial_charge
Fe0 Fe 0.19821 0.86439 0.08215 0.0
Fe1 Fe 0.09741 0.89802 0.06521 0.0
O2 O 0.1372 0.85319 0.07007 0.0
Fe3 Fe 0.1167 0.79716 0.06298 0.0
O4 O 0.15877 0.77794 0.11005 0.0
O5 O 0.1953 0.83885 0.14218 0.0
O6 O 0.18926 0.91882 0.11933 0.0
C7 C 0.15321 0.93588 0.14201 0.0
C8 C 0.20059 0.78771 0.01158 0.0
O9 O 0.11241 0.92295 0.12869 0.0
C10 C 0.06275 0.8389 0.98869 0.0
O11 O 0.20426 0.89056 0.02263 0.0
O12 O 0.14034 0.93234 0.03389 0.0
O13 O 0.15637 0.78315 0.00943 0.0
O14 O 0.21976 0.81253 0.04721 0.0
C15 C 0.04446 0.83677 0.11942 0.0
O16 O 0.0787 0.87719 0.00161 0.0
O17 O 0.07036 0.8066 0.01546 0.0
C18 C 0.17875 0.92242 0.01064 0.0
O19 O 0.04776 0.8711 0.09501 0.0
O20 O 0.07533 0.8066 0.11541 0.0
C21 C 0.18184 0.79933 0.14584 0.0
Fe22 Fe 0.69669 0.64547 0.4665 0.0
Fe23 Fe 0.61635 0.71132 0.49682 0.0
O24 O 0.63616 0.65573 0.4812 0.0
Fe25 Fe 0.59638 0.61031 0.47873 0.0
O26 O 0.63958 0.57212 0.50388 0.0
O27 O 0.70353 0.61291 0.52143 0.0
O28 O 0.71945 0.69422 0.50648 0.0
C29 C 0.7017 0.71643 0.545 0.0
C30 C 0.65182 0.58176 0.39684 0.0
O31 O 0.65753 0.71945 0.5502 0.0
C32 C 0.5435 0.67809 0.43557 0.0
O33 O 0.6917 0.67712 0.41085 0.0
O34 O 0.65763 0.73543 0.45214 0.0
O35 O 0.61119 0.59327 0.41243 0.0
O36 O 0.68723 0.59449 0.4235 0.0
C37 C 0.56244 0.66083 0.56357 0.0
O38 O 0.57349 0.7083 0.44531 0.0
O39 O 0.54695 0.64072 0.45366 0.0
C40 C 0.67854 0.71739 0.41267 0.0
O41 O 0.57124 0.69653 0.54317 0.0
O42 O 0.57733 0.62358 0.5444 0.0
C43 C 0.6779 0.57953 0.52835 0.0
Fe44 Fe 0.87668 0.20923 1.0003 0.0
Fe45 Fe 0.90328 0.11001 0.9862 0.0
O46 O 0.86063 0.15281 0.98321 0.0
Fe47 Fe 0.80159 0.13947 0.96393 0.0
O48 O 0.79201 0.19115 0.93283 0.0
O49 O 0.86129 0.22471 0.93696 0.0
O50 O 0.93861 0.20314 0.97763 0.0
C51 C 0.95915 0.17313 0.94859 0.0
C52 C 0.78613 0.20254 0.04523 0.0
O53 O 0.94181 0.13464 0.9414 0.0
C54 C 0.82629 0.06916 0.02426 0.0
O55 O 0.89305 0.19732 0.06485 0.0
O56 O 0.93476 0.13714 0.04216 0.0
O57 O 0.77857 0.16376 0.0248 0.0
O58 O 0.81803 0.22592 0.02656 0.0
C59 C 0.84997 0.08211 0.89618 0.0
O60 O 0.86831 0.08185 0.0311 0.0
O61 O 0.8001 0.08519 0.99125 0.0
C62 C 0.92278 0.16831 0.07535 0.0
O63 O 0.87929 0.07516 0.93125 0.0
O64 O 0.82039 0.11358 0.90179 0.0
C65 C 0.82135 0.21812 0.91622 0.0
Fe66 Fe 0.41615 0.39036 0.5744 0.0
Fe67 Fe 0.31122 0.36252 0.57897 0.0
O68 O 0.37221 0.3481 0.57163 0.0
Fe69 Fe 0.39012 0.29113 0.56195 0.0
O70 O 0.44761 0.29935 0.59487 0.0
O71 O 0.44513 0.36809 0.62865 0.0
O72 O 0.38496 0.42923 0.62086 0.0
C73 C 0.34953 0.42539 0.64955 0.0
C74 C 0.44735 0.32842 0.49328 0.0
O75 O 0.32029 0.39434 0.64045 0.0
C76 C 0.30321 0.2909 0.50637 0.0
O77 O 0.39069 0.41586 0.52079 0.0
O78 O 0.31568 0.41275 0.54363 0.0
O79 O 0.41652 0.29938 0.50033 0.0
O80 O 0.4556 0.35991 0.52754 0.0
C81 C 0.32265 0.28791 0.63731 0.0
O82 O 0.29492 0.33164 0.5187 0.0
O83 O 0.33697 0.27146 0.52685 0.0
C84 C 0.34821 0.42747 0.51633 0.0
O85 O 0.2971 0.31542 0.61586 0.0
O86 O 0.36448 0.27904 0.62259 0.0
C87 C 0.46265 0.32949 0.62757 0.0
H88 H 0.06974 0.09099 0.19107 0.0
H89 H 0.15996 0.11894 0.32257 0.0
H90 H 0.0446 0.20737 0.2941 0.0
C91 C 0.07934 0.11213 0.22521 0.0
C92 C 0.05345 0.15096 0.23843 0.0
C93 C 0.1172 0.09996 0.25561 0.0
C94 C 0.13046 0.12802 0.2992 0.0
C95 C 0.10414 0.16711 0.31302 0.0
C96 C 0.06518 0.17768 0.28313 0.0
N97 N 0.11405 0.19558 0.35783 0.0
C98 C 0.15886 0.20481 0.37794 0.0
H99 H 0.41828 0.57714 0.69045 0.0
H100 H 0.43981 0.70259 0.77827 0.0
H101 H 0.33654 0.60992 0.82729 0.0
C102 C 0.40963 0.60018 0.72336 0.0
C103 C 0.37485 0.58872 0.75784 0.0
C104 C 0.4328 0.64121 0.73011 0.0
C105 C 0.42181 0.67077 0.77273 0.0
C106 C 0.38706 0.66 0.80783 0.0
C107 C 0.36302 0.61888 0.80016 0.0
N108 N 0.37933 0.69051 0.85146 0.0
C109 C 0.33629 0.69832 0.87628 0.0
H110 H 0.87892 0.91644 0.12787 0.0
H111 H 0.82148 0.8101 0.20747 0.0
H112 H 0.72856 0.9047 0.14398 0.0
C113 C 0.84864 0.89973 0.14291 0.0
C114 C 0.80317 0.9158 0.1348 0.0
C115 C 0.8553 0.86138 0.16857 0.0
C116 C 0.81608 0.83984 0.18793 0.0
C117 C 0.77011 0.85517 0.17843 0.0
C118 C 0.76391 0.89305 0.15172 0.0
N119 N 0.72942 0.83182 0.19239 0.0
C120 C 0.72712 0.80794 0.23527 0.0
H121 H 0.62534 0.41805 0.62504 0.0
H122 H 0.68805 0.32124 0.71605 0.0
H123 H 0.77283 0.42713 0.66347 0.0
C124 C 0.6561 0.40495 0.64347 0.0
C125 C 0.6995 0.4269 0.64126 0.0
C126 C 0.65184 0.36676 0.6701 0.0
C127 C 0.69154 0.35051 0.69508 0.0
C128 C 0.73557 0.37219 0.69228 0.0
C129 C 0.73919 0.41012 0.66515 0.0
N130 N 0.77699 0.35715 0.71611 0.0
C131 C 0.77764 0.3265 0.7528 0.0
H132 H 0.58534 0.41483 0.36974 0.0
H133 H 0.64715 0.40278 0.21902 0.0
H134 H 0.55867 0.29801 0.26735 0.0
C135 C 0.59149 0.39548 0.3334 0.0
C136 C 0.56963 0.35396 0.3235 0.0
C137 C 0.6196 0.41314 0.29615 0.0
C138 C 0.62689 0.3885 0.24864 0.0
C139 C 0.60522 0.34666 0.23833 0.0
C140 C 0.57655 0.32961 0.27581 0.0
N141 N 0.60594 0.32474 0.18818 0.0
C142 C 0.64576 0.3036 0.16636 0.0
H143 H 0.1225 0.08266 0.92372 0.0
H144 H 0.18164 0.18968 0.84567 0.0
H145 H 0.26609 0.07434 0.871 0.0
C146 C 0.15181 0.09679 0.90391 0.0
C147 C 0.1947 0.07366 0.89913 0.0
C148 C 0.1467 0.13844 0.88444 0.0
C149 C 0.18513 0.15701 0.85961 0.0
C150 C 0.22848 0.13367 0.85504 0.0
C151 C 0.23272 0.09211 0.87445 0.0
N152 N 0.26944 0.15134 0.83336 0.0
C153 C 0.26941 0.18523 0.8009 0.0
H154 H 0.39322 0.58781 0.4146 0.0
H155 H 0.33166 0.67772 0.31575 0.0
H156 H 0.25022 0.56746 0.36228 0.0
C157 C 0.36344 0.59772 0.39198 0.0
C158 C 0.32199 0.5725 0.39002 0.0
C159 C 0.36648 0.63609 0.36586 0.0
C160 C 0.32801 0.6491 0.33707 0.0
C161 C 0.28534 0.62517 0.33676 0.0
C162 C 0.28285 0.5863 0.36257 0.0
N163 N 0.24397 0.63961 0.31235 0.0
C164 C 0.23872 0.68011 0.29101 0.0
H165 H 0.92394 0.92754 0.86085 0.0
H166 H 0.94002 0.79982 0.77636 0.0
H167 H 0.84533 0.89719 0.721 0.0
C168 C 0.91481 0.90456 0.82808 0.0
C169 C 0.88239 0.91754 0.79164 0.0
C170 C 0.93541 0.8622 0.82288 0.0
C171 C 0.9239 0.83262 0.7806 0.0
C172 C 0.89113 0.8446 0.74413 0.0
C173 C 0.87001 0.88726 0.74957 0.0
N174 N 0.88261 0.81353 0.70131 0.0
C175 C 0.83949 0.8069 0.67647 0.0
C176 C 0.13693 0.97579 0.22837 0.0
C177 C 0.15752 0.97629 0.17903 0.0
C178 C 0.17192 0.05665 0.19631 0.0
C179 C 0.14183 0.0574 0.23936 0.0
N180 N 0.0962 0.01801 0.29838 0.0
N181 N 0.19297 0.01866 0.11461 0.0
C182 C 0.12524 0.01691 0.25665 0.0
C183 C 0.17576 0.01694 0.16306 0.0
N184 N 0.12892 0.93597 0.24806 0.0
N185 N 0.19542 0.09456 0.18646 0.0
H186 H 0.19536 0.99081 0.08857 0.0
H187 H 0.2013 0.04823 0.09881 0.0
H188 H 0.19246 0.12406 0.21035 0.0
H189 H 0.22114 0.09545 0.15811 0.0
H190 H 0.11731 0.93325 0.2854 0.0
H191 H 0.13835 0.90559 0.22839 0.0
H192 H 0.07811 0.99023 0.30921 0.0
H193 H 0.08861 0.04748 0.32088 0.0
C194 C 0.47977 0.65586 0.59785 0.0
C195 C 0.52893 0.66172 0.60727 0.0
C196 C 0.5154 0.65705 0.69918 0.0
C197 C 0.46604 0.6536 0.68974 0.0
N198 N 0.40063 0.66298 0.63251 0.0
N199 N 0.59172 0.67928 0.66781 0.0
C200 C 0.44807 0.6574 0.63978 0.0
C201 C 0.54618 0.66607 0.65834 0.0
N202 N 0.46331 0.64682 0.54904 0.0
N203 N 0.53316 0.64956 0.74621 0.0
H204 H 0.61454 0.68693 0.63861 0.0
H205 H 0.60524 0.68673 0.70459 0.0
H206 H 0.51182 0.64257 0.77696 0.0
H207 H 0.5692 0.64679 0.75351 0.0
H208 H 0.42856 0.63737 0.5405 0.0
H209 H 0.48525 0.64499 0.51723 0.0
H210 H 0.38607 0.67022 0.59759 0.0
H211 H 0.37638 0.66509 0.66266 0.0
C212 C 0.79959 0.03645 0.10376 0.0
C213 C 0.81014 0.03052 0.05067 0.0
C214 C 0.80024 0.94978 0.05162 0.0
C215 C 0.7976 0.95538 0.10576 0.0
N216 N 0.79551 0.00298 0.18464 0.0
N217 N 0.82321 0.98164 0.97383 0.0
C218 C 0.79674 0.99849 0.13223 0.0
C219 C 0.8104 0.98723 0.02427 0.0
N220 N 0.79206 0.07836 0.1267 0.0
N221 N 0.79342 0.90851 0.02656 0.0
H222 H 0.83037 0.00826 0.95245 0.0
H223 H 0.82987 0.95076 0.95404 0.0
H224 H 0.78659 0.88027 0.04578 0.0
H225 H 0.79032 0.90284 0.98688 0.0
H226 H 0.77958 0.08479 0.16402 0.0
H227 H 0.79511 0.10684 0.10696 0.0
H228 H 0.80079 0.03313 0.20651 0.0
H229 H 0.79169 0.97588 0.20657 0.0
C230 C 0.52108 0.35535 0.69639 0.0
C231 C 0.50888 0.32414 0.65493 0.0
C232 C 0.5926 0.30819 0.63871 0.0
C233 C 0.60448 0.34575 0.67287 0.0
N234 N 0.58179 0.40147 0.74001 0.0
N235 N 0.53246 0.25403 0.61082 0.0
C236 C 0.56923 0.36761 0.70441 0.0
C237 C 0.54444 0.29495 0.6336 0.0
N238 N 0.48639 0.37132 0.72908 0.0
N239 N 0.62676 0.28693 0.60888 0.0
H240 H 0.49819 0.24154 0.6123 0.0
H241 H 0.55725 0.23024 0.59733 0.0
H242 H 0.66252 0.29504 0.61242 0.0
H243 H 0.61927 0.2631 0.57869 0.0
H244 H 0.49218 0.39236 0.76216 0.0
H245 H 0.45213 0.35878 0.72546 0.0
H246 H 0.55768 0.4224 0.76018 0.0
H247 H 0.61701 0.40946 0.7484 0.0
C248 C 0.61794 0.53904 0.31869 0.0
C249 C 0.65561 0.5451 0.35423 0.0
C250 C 0.68006 0.46755 0.33391 0.0
C251 C 0.63715 0.4595 0.30659 0.0
N252 N 0.56668 0.48744 0.26851 0.0
N253 N 0.73574 0.52263 0.37047 0.0
C254 C 0.60707 0.49548 0.29651 0.0
C255 C 0.69105 0.5117 0.3543 0.0
N256 N 0.5942 0.5756 0.30493 0.0
N257 N 0.70907 0.43266 0.3425 0.0
H258 H 0.74648 0.55556 0.3786 0.0
H259 H 0.76379 0.50013 0.3685 0.0
H260 H 0.70303 0.40031 0.32613 0.0
H261 H 0.73755 0.43537 0.36783 0.0
H262 H 0.5682 0.57465 0.2767 0.0
H263 H 0.60498 0.60769 0.31813 0.0
H264 H 0.54024 0.51106 0.26507 0.0
H265 H 0.55862 0.45621 0.25018 0.0
C266 C 0.04666 0.18694 0.96396 0.0
C267 C 0.00808 0.17967 0.92922 0.0
C268 C 0.06363 0.15768 0.85949 0.0
C269 C 0.10155 0.16289 0.89488 0.0
N270 N 0.1314 0.19611 0.97519 0.0
N271 N 0.98116 0.17308 0.84182 0.0
C272 C 0.09367 0.18264 0.94513 0.0
C273 C 0.01713 0.17004 0.87611 0.0
N274 N 0.03878 0.19423 0.01541 0.0
N275 N 0.07173 0.13887 0.81091 0.0
H276 H 0.94734 0.18347 0.85347 0.0
H277 H 0.98583 0.16967 0.80221 0.0
H278 H 0.10567 0.13111 0.79729 0.0
H279 H 0.04482 0.12919 0.78513 0.0
H280 H 0.06532 0.19379 0.04296 0.0
H281 H 0.00522 0.19778 0.03097 0.0
H282 H 0.12807 0.21444 0.01064 0.0
H283 H 0.16621 0.19278 0.96218 0.0
C284 C 0.32283 0.50578 0.50468 0.0
C285 C 0.33754 0.46331 0.48257 0.0
C286 C 0.33778 0.49149 0.39729 0.0
C287 C 0.32011 0.53283 0.41951 0.0
N288 N 0.28695 0.57698 0.49191 0.0
N289 N 0.35643 0.41418 0.40773 0.0
C290 C 0.30935 0.53898 0.4724 0.0
C291 C 0.34409 0.45567 0.4287 0.0
N292 N 0.32594 0.51581 0.55644 0.0
N293 N 0.35027 0.48724 0.34663 0.0
H294 H 0.3644 0.38824 0.43007 0.0
H295 H 0.35656 0.40471 0.36853 0.0
H296 H 0.34403 0.51217 0.32215 0.0
H297 H 0.36872 0.46009 0.32922 0.0
H298 H 0.32045 0.54762 0.57444 0.0
H299 H 0.33956 0.4935 0.58081 0.0
H300 H 0.27398 0.58134 0.52926 0.0
H301 H 0.27743 0.60249 0.46938 0.0
C302 C 0.04693 0.83245 0.89454 0.0
C303 C 0.02912 0.8341 0.94513 0.0
C304 C 0.94859 0.84167 0.91229 0.0
C305 C 0.96756 0.84844 0.86346 0.0
N306 N 0.03534 0.85371 0.8083 0.0
N307 N 0.96289 0.84115 0.00328 0.0
C308 C 0.01689 0.84425 0.85435 0.0
C309 C 0.97978 0.83839 0.95429 0.0
N310 N 0.09233 0.81879 0.88499 0.0
N311 N 0.90078 0.83779 0.91825 0.0
H312 H 0.98439 0.8366 0.03455 0.0
H313 H 0.92832 0.85014 0.01317 0.0
H314 H 0.87691 0.83974 0.88809 0.0
H315 H 0.88503 0.82859 0.95168 0.0
H316 H 0.10648 0.81337 0.84824 0.0
H317 H 0.11418 0.80853 0.91387 0.0
H318 H 0.07151 0.85604 0.80162 0.0
H319 H 0.01453 0.86269 0.77794 0.0
C320 C 0.81097 0.01566 0.84952 0.0
C321 C 0.84739 0.04814 0.85143 0.0
C322 C 0.89401 0.99945 0.79062 0.0
C323 C 0.86328 0.96374 0.79912 0.0
N324 N 0.79094 0.93723 0.83384 0.0
N325 N 0.92055 0.07437 0.81886 0.0
C326 C 0.82052 0.97194 0.82654 0.0
C327 C 0.88761 0.04132 0.81946 0.0
N328 N 0.76805 0.02616 0.87121 0.0
N329 N 0.9299 0.99254 0.75595 0.0
H330 H 0.91484 0.10597 0.83746 0.0
H331 H 0.95346 0.07044 0.80131 0.0
H332 H 0.93476 0.96192 0.73463 0.0
H333 H 0.95215 0.01758 0.74522 0.0
H334 H 0.73889 0.00506 0.86777 0.0
H335 H 0.76026 0.05771 0.88869 0.0
H336 H 0.76249 0.93952 0.85913 0.0
H337 H 0.79628 0.90525 0.81607 0.0
C338 C 0.5283 0.32207 0.45315 0.0
C339 C 0.47837 0.32353 0.44704 0.0
C340 C 0.48826 0.33834 0.35701 0.0
C341 C 0.53809 0.33761 0.36333 0.0
N342 N 0.60557 0.31765 0.41251 0.0
N343 N 0.41192 0.31741 0.38871 0.0
C344 C 0.5581 0.32584 0.40996 0.0
C345 C 0.45869 0.32629 0.39746 0.0
N346 N 0.54717 0.31744 0.50044 0.0
N347 N 0.46894 0.35334 0.3138 0.0
H348 H 0.38894 0.30841 0.41701 0.0
H349 H 0.3969 0.31473 0.35221 0.0
H350 H 0.48913 0.36281 0.28328 0.0
H351 H 0.433 0.35994 0.31002 0.0
H352 H 0.58278 0.32219 0.50934 0.0
H353 H 0.52655 0.31006 0.5315 0.0
H354 H 0.62203 0.30508 0.44379 0.0
H355 H 0.62808 0.31972 0.38124 0.0
C356 C 0.22989 0.9847 0.98675 0.0
C357 C 0.19512 0.9523 0.97242 0.0
C358 C 0.17306 0.99322 0.89917 0.0
C359 C 0.1996 0.03009 0.92084 0.0
N360 N 0.25159 0.06233 0.9875 0.0
N361 N 0.13696 0.92211 0.91211 0.0
C362 C 0.22842 0.02602 0.96466 0.0
C363 C 0.1681 0.95526 0.92724 0.0
N364 N 0.26371 0.9763 0.02191 0.0
N365 N 0.15309 0.99455 0.85173 0.0
H366 H 0.1361 0.89235 0.92956 0.0
H367 H 0.11164 0.92442 0.88356 0.0
H368 H 0.15676 0.02185 0.83009 0.0
H369 H 0.13649 0.96742 0.83193 0.0
H370 H 0.29244 0.99727 0.03044 0.0
H371 H 0.26541 0.94633 0.03896 0.0
H372 H 0.26855 0.06231 0.02285 0.0
H373 H 0.25058 0.09367 0.9735 0.0
C374 C 0.46001 0.70396 0.43714 0.0
C375 C 0.49956 0.68763 0.40832 0.0
C376 C 0.44875 0.65454 0.34023 0.0
C377 C 0.40944 0.66382 0.37291 0.0
N378 N 0.37422 0.70632 0.44519 0.0
N379 N 0.53264 0.66606 0.32596 0.0
C380 C 0.41396 0.69237 0.41873 0.0
C381 C 0.49415 0.6692 0.35735 0.0
N382 N 0.46712 0.72883 0.48269 0.0
N383 N 0.44293 0.62927 0.29474 0.0
H384 H 0.56566 0.67804 0.33864 0.0
H385 H 0.53098 0.65594 0.28694 0.0
H386 H 0.40965 0.61943 0.28076 0.0
H387 H 0.4709 0.61697 0.27184 0.0
H388 H 0.44044 0.74018 0.50781 0.0
H389 H 0.50081 0.73885 0.49511 0.0
H390 H 0.3742 0.72696 0.47914 0.0
H391 H 0.3403 0.69841 0.43163 0.0
C392 C 0.30852 0.49616 0.6837 0.0
C393 C 0.34054 0.46117 0.69141 0.0
C394 C 0.37748 0.50643 0.76268 0.0
C395 C 0.35263 0.5441 0.74769 0.0
N396 N 0.2906 0.57524 0.69913 0.0
N397 N 0.38916 0.42619 0.75085 0.0
C398 C 0.3158 0.53874 0.7108 0.0
C399 C 0.36994 0.4642 0.73518 0.0
N400 N 0.2715 0.48845 0.65062 0.0
N401 N 0.41065 0.51197 0.80068 0.0
H402 H 0.3811 0.39516 0.73211 0.0
H403 H 0.40828 0.42477 0.78465 0.0
H404 H 0.41524 0.5423 0.82262 0.0
H405 H 0.43423 0.48724 0.80959 0.0
H406 H 0.24474 0.51141 0.64566 0.0
H407 H 0.26577 0.45744 0.63062 0.0
H408 H 0.26725 0.57535 0.6684 0.0
H409 H 0.29431 0.60623 0.71993 0.0
C410 C 0.98649 0.86244 0.18746 0.0
C411 C 0.99993 0.83018 0.14748 0.0
C412 C 0.91762 0.80776 0.13386 0.0
C413 C 0.90376 0.84284 0.17054 0.0
N414 N 0.92367 0.89434 0.24257 0.0
N415 N 0.98114 0.76162 0.09674 0.0
C416 C 0.93801 0.86683 0.20121 0.0
C417 C 0.96647 0.79886 0.12602 0.0
N418 N 0.02011 0.88985 0.21055 0.0
N419 N 0.88445 0.78555 0.10341 0.0
H420 H 0.01659 0.75419 0.08964 0.0
H421 H 0.95848 0.7358 0.08386 0.0
H422 H 0.84821 0.79046 0.10826 0.0
H423 H 0.89284 0.76423 0.07121 0.0
H424 H 0.01267 0.91754 0.23589 0.0
H425 H 0.05604 0.88493 0.20308 0.0
H426 H 0.94673 0.91093 0.26868 0.0
H427 H 0.88812 0.89759 0.25299 0.0
C428 C 0.67585 0.54601 0.61232 0.0
C429 C 0.69403 0.54546 0.56183 0.0
C430 C 0.72091 0.46843 0.56526 0.0
C431 C 0.70235 0.46885 0.61565 0.0
N432 N 0.67252 0.51026 0.69182 0.0
N433 N 0.74385 0.51145 0.49504 0.0
C434 C 0.68323 0.50851 0.64074 0.0
C435 C 0.72004 0.50833 0.53996 0.0
N436 N 0.64991 0.58171 0.63221 0.0
N437 N 0.73712 0.42943 0.54073 0.0
H438 H 0.74433 0.5407 0.47649 0.0
H439 H 0.76663 0.48694 0.47889 0.0
H440 H 0.73887 0.3997 0.55831 0.0
H441 H 0.74593 0.42572 0.50198 0.0
H442 H 0.63053 0.58209 0.66604 0.0
H443 H 0.64592 0.61048 0.61322 0.0
H444 H 0.66263 0.53937 0.71358 0.0
H445 H 0.67739 0.48324 0.71367 0.0
C446 C 0.98127 0.20568 0.13772 0.0
C447 C 0.94723 0.17177 0.12596 0.0
C448 C 0.97338 0.13431 0.20072 0.0
C449 C 0.01354 0.16252 0.20496 0.0
N450 N 0.05771 0.22391 0.17543 0.0
N451 N 0.90672 0.1064 0.14932 0.0
C452 C 0.01764 0.19849 0.17362 0.0
C453 C 0.94185 0.13701 0.15877 0.0
N454 N 0.97915 0.24457 0.11459 0.0
N455 N 0.96533 0.10543 0.23728 0.0
H456 H 0.88026 0.11068 0.12257 0.0
H457 H 0.90419 0.07685 0.167 0.0
H458 H 0.98758 0.10338 0.26883 0.0
H459 H 0.93479 0.08639 0.239 0.0
H460 H 1.00031 0.27206 0.12553 0.0
H461 H 0.95343 0.25091 0.08767 0.0
H462 H 0.0651 0.24686 0.14897 0.0
H463 H 0.08544 0.21969 0.20081 0.0
C464 C 0.24511 0.77057 0.20251 0.0
C465 C 0.19659 0.77568 0.19048 0.0
C466 C 0.17519 0.72251 0.25202 0.0
C467 C 0.2236 0.71792 0.26418 0.0
N468 N 0.29977 0.75328 0.26889 0.0
N469 N 0.11596 0.77031 0.21884 0.0
C470 C 0.25731 0.74672 0.24494 0.0
C471 C 0.1616 0.75575 0.21977 0.0
N472 N 0.2796 0.78663 0.17266 0.0
N473 N 0.14225 0.69502 0.27073 0.0
H474 H 0.10653 0.79819 0.20025 0.0
H475 H 0.08944 0.75907 0.2421 0.0
H476 H 0.15057 0.67185 0.29676 0.0
H477 H 0.10725 0.69374 0.25821 0.0
H478 H 0.31535 0.77971 0.17765 0.0
H479 H 0.27248 0.8033 0.14026 0.0
H480 H 0.32486 0.77588 0.25782 0.0
H481 H 0.30571 0.74205 0.30483 0.0
C482 C 0.73841 0.73282 0.63226 0.0
C483 C 0.73324 0.74365 0.58082 0.0
C484 C 0.7948 0.80101 0.59477 0.0
C485 C 0.79895 0.79071 0.6463 0.0
N486 N 0.76826 0.75483 0.71781 0.0
N487 N 0.74917 0.79421 0.51619 0.0
C488 C 0.7684 0.75933 0.66629 0.0
C489 C 0.75925 0.77965 0.56298 0.0
N490 N 0.71709 0.69555 0.64766 0.0
N491 N 0.8259 0.83017 0.57576 0.0
H492 H 0.72342 0.77961 0.4919 0.0
H493 H 0.76328 0.82309 0.50322 0.0
H494 H 0.85067 0.84817 0.59874 0.0
H495 H 0.82894 0.83478 0.53694 0.0
H496 H 0.72321 0.68326 0.68304 0.0
H497 H 0.69636 0.67452 0.62316 0.0
H498 H 0.74373 0.73555 0.73559 0.0
H499 H 0.79007 0.77378 0.74346 0.0
C500 C 0.76529 0.2647 0.11409 0.0
C501 C 0.75266 0.2238 0.08563 0.0
C502 C 0.67078 0.23378 0.11662 0.0
C503 C 0.68259 0.27646 0.14014 0.0
N504 N 0.7397 0.33463 0.15909 0.0
N505 N 0.69871 0.16092 0.08516 0.0
C506 C 0.72953 0.2924 0.13857 0.0
C507 C 0.7069 0.20567 0.09389 0.0
N508 N 0.81191 0.27484 0.12215 0.0
N509 N 0.62458 0.22031 0.11468 0.0
H510 H 0.72524 0.13746 0.07753 0.0
H511 H 0.66708 0.14588 0.09433 0.0
H512 H 0.59713 0.23905 0.1323 0.0
H513 H 0.6129 0.19236 0.09191 0.0
H514 H 0.82379 0.30214 0.14578 0.0
H515 H 0.83886 0.25244 0.11141 0.0
H516 H 0.7717 0.35055 0.15353 0.0
H517 H 0.71473 0.35516 0.17868 0.0
C518 C 0.26139 0.24095 0.678 0.0
C519 C 0.30367 0.26677 0.68221 0.0
C520 C 0.31318 0.24867 0.77138 0.0
C521 C 0.27627 0.21725 0.76359 0.0
N522 N 0.21507 0.18186 0.7108 0.0
N523 N 0.36852 0.29779 0.73392 0.0
C524 C 0.24991 0.21332 0.71753 0.0
C525 C 0.32906 0.27155 0.72939 0.0
N526 N 0.23194 0.2429 0.6368 0.0
N527 N 0.33245 0.25697 0.81923 0.0
H528 H 0.37875 0.31848 0.70606 0.0
H529 H 0.39217 0.2981 0.76443 0.0
H530 H 0.32122 0.24066 0.85064 0.0
H531 H 0.35649 0.28243 0.82907 0.0
H532 H 0.19837 0.22871 0.63475 0.0
H533 H 0.23873 0.26166 0.60617 0.0
H534 H 0.19884 0.17291 0.6757 0.0
H535 H 0.20415 0.16268 0.73997 0.0
C536 C 0.66178 0.77703 0.35148 0.0
C537 C 0.69299 0.74496 0.37052 0.0
C538 C 0.74636 0.75331 0.29819 0.0
C539 C 0.717 0.78732 0.2819 0.0
N540 N 0.65336 0.83961 0.30011 0.0
N541 N 0.77301 0.71628 0.37112 0.0
C542 C 0.67698 0.80188 0.31096 0.0
C543 C 0.73776 0.73708 0.34657 0.0
N544 N 0.61666 0.7824 0.36937 0.0
N545 N 0.78177 0.73574 0.26727 0.0
H546 H 0.76981 0.70778 0.40875 0.0
H547 H 0.8073 0.71295 0.35675 0.0
H548 H 0.78804 0.74598 0.23087 0.0
H549 H 0.80146 0.70802 0.27572 0.0
H550 H 0.59115 0.80079 0.35164 0.0
H551 H 0.60298 0.76587 0.39897 0.0
H552 H 0.62725 0.85454 0.3239 0.0
H553 H 0.66278 0.85839 0.27003 0.0
C554 C 0.7785 0.28306 0.88388 0.0
C555 C 0.8072 0.24459 0.8737 0.0
C556 C 0.80783 0.25585 0.78196 0.0
C557 C 0.78371 0.29679 0.79308 0.0
N558 N 0.74741 0.35131 0.85354 0.0
N559 N 0.85131 0.19468 0.81446 0.0
C560 C 0.76906 0.31081 0.84371 0.0
C561 C 0.82234 0.23096 0.82303 0.0
N562 N 0.75992 0.29272 0.9318 0.0
N563 N 0.81604 0.2405 0.732 0.0
H564 H 0.86095 0.1746 0.84325 0.0
H565 H 0.86811 0.18579 0.77971 0.0
H566 H 0.80594 0.25814 0.70116 0.0
H567 H 0.82935 0.20894 0.7207 0.0
H568 H 0.73471 0.31739 0.94057 0.0
H569 H 0.76733 0.27401 0.96252 0.0
H570 H 0.74081 0.36612 0.89026 0.0
H571 H 0.73808 0.3715 0.82468 0.0
C572 C 0.25596 0.28464 0.42401 0.0
C573 C 0.27127 0.26495 0.46875 0.0
C574 C 0.22237 0.199 0.44231 0.0
C575 C 0.20125 0.22251 0.40388 0.0
N576 N 0.19595 0.28841 0.3583 0.0
N577 N 0.26509 0.20301 0.52237 0.0
C578 C 0.21767 0.26542 0.39456 0.0
C579 C 0.25406 0.22166 0.47807 0.0
N580 N 0.27938 0.32064 0.40829 0.0
N581 N 0.2121 0.15488 0.44462 0.0
H582 H 0.28763 0.21725 0.55049 0.0
H583 H 0.24846 0.17466 0.53374 0.0
H584 H 0.1886 0.13772 0.41925 0.0
H585 H 0.2302 0.13437 0.46807 0.0
H586 H 0.273 0.3338 0.37344 0.0
H587 H 0.30888 0.33425 0.42743 0.0
H588 H 0.20222 0.32201 0.35427 0.0
H589 H 0.16946 0.27456 0.33412 0.0
C590 C 0.24 0.77778 0.9255 0.0
C591 C 0.231 0.76142 0.97384 0.0
C592 C 0.28277 0.69704 0.95116 0.0
C593 C 0.29579 0.71612 0.90568 0.0
N594 N 0.28792 0.77383 0.84812 0.0
N595 N 0.2445 0.7069 0.03446 0.0
C596 C 0.27421 0.75599 0.8921 0.0
C597 C 0.25229 0.72119 0.98702 0.0
N598 N 0.21594 0.81435 0.91183 0.0
N599 N 0.29925 0.6556 0.95958 0.0
H600 H 0.22111 0.72277 0.06087 0.0
H601 H 0.26292 0.68084 0.04897 0.0
H602 H 0.32156 0.63739 0.9338 0.0
H603 H 0.28802 0.6377 0.98958 0.0
H604 H 0.21671 0.82553 0.87535 0.0
H605 H 0.19266 0.83243 0.93648 0.0
H606 H 0.27815 0.80537 0.83854 0.0
H607 H 0.31097 0.75754 0.82158 0.0
loop_
_geom_bond_atom_site_label_1
_geom_bond_atom_site_label_2
_geom_bond_distance
_geom_bond_site_symmetry_2
_ccdc_geom_bond_type
Fe0 O2 1.918 . S
Fe0 O5 1.997 . S
Fe0 O6 2.002 . S
Fe0 O11 1.976 . S
Fe0 O14 1.996 . S
Fe1 O2 1.918 . S
Fe1 O9 1.997 . S
Fe1 O12 1.996 1_554 S
Fe1 O16 1.976 1_554 S
Fe1 O19 2.002 . S
O2 Fe0 1.918 . S
O2 Fe1 1.918 . S
O2 Fe3 1.918 . S
Fe3 O2 1.918 . S
Fe3 O4 2.002 . S
Fe3 O13 1.976 1_554 S
Fe3 O17 1.996 1_554 S
Fe3 O20 1.997 . S
O4 Fe3 2.002 . S
O4 C21 1.295 . S
O5 Fe0 1.997 . S
O5 C21 1.235 . S
O6 Fe0 2.002 . S
O6 C7 1.295 . S
C7 O6 1.295 . S
C7 O9 1.235 . S
C8 O13 1.287 . S
C8 O14 1.255 1_556 S
O9 Fe1 1.997 . S
O9 C7 1.235 . S
C10 O16 1.287 . S
C10 O17 1.255 . S
O11 Fe0 1.976 . S
O11 C18 1.287 1_554 S
O12 Fe1 1.996 1_556 S
O12 C18 1.255 . S
O13 Fe3 1.976 1_556 S
O13 C8 1.287 . S
O14 Fe0 1.996 . S
O14 C8 1.255 1_554 S
C15 O19 1.295 . S
C15 O20 1.235 . S
O16 Fe1 1.976 1_556 S
O16 C10 1.287 . S
O17 Fe3 1.996 1_556 S
O17 C10 1.255 . S
C18 O11 1.287 1_556 S
C18 O12 1.255 . S
O19 Fe1 2.002 . S
O19 C15 1.295 . S
O20 Fe3 1.997 . S
O20 C15 1.235 . S
C21 O4 1.295 . S
C21 O5 1.235 . S
Fe22 O24 1.918 . S
Fe22 O27 1.997 . S
Fe22 O28 2.002 . S
Fe22 O33 1.976 . S
Fe22 O36 1.996 . S
Fe23 O24 1.918 . S
Fe23 O31 1.997 . S
Fe23 O34 1.996 . S
Fe23 O38 1.976 . S
Fe23 O41 2.002 . S
O24 Fe22 1.918 . S
O24 Fe23 1.918 . S
O24 Fe25 1.918 . S
Fe25 O24 1.918 . S
Fe25 O26 2.002 . S
Fe25 O35 1.976 . S
Fe25 O39 1.996 . S
Fe25 O42 1.997 . S
O26 Fe25 2.002 . S
O26 C43 1.295 . S
O27 Fe22 1.997 . S
O27 C43 1.235 . S
O28 Fe22 2.002 . S
O28 C29 1.295 . S
C29 O28 1.295 . S
C29 O31 1.235 . S
C30 O35 1.287 . S
C30 O36 1.255 . S
O31 Fe23 1.997 . S
O31 C29 1.235 . S
C32 O38 1.287 . S
C32 O39 1.255 . S
O33 Fe22 1.976 . S
O33 C40 1.287 . S
O34 Fe23 1.996 . S
O34 C40 1.255 . S
O35 Fe25 1.976 . S
O35 C30 1.287 . S
O36 Fe22 1.996 . S
O36 C30 1.255 . S
C37 O41 1.295 . S
C37 O42 1.235 . S
O38 Fe23 1.976 . S
O38 C32 1.287 . S
O39 Fe25 1.996 . S
O39 C32 1.255 . S
C40 O33 1.287 . S
C40 O34 1.255 . S
O41 Fe23 2.002 . S
O41 C37 1.295 . S
O42 Fe25 1.997 . S
O42 C37 1.235 . S
C43 O26 1.295 . S
C43 O27 1.235 . S
Fe44 O46 1.918 . S
Fe44 O49 1.997 1_554 S
Fe44 O50 2.002 1_554 S
Fe44 O55 1.976 . S
Fe44 O58 1.996 . S
Fe45 O46 1.918 . S
Fe45 O53 1.997 1_554 S
Fe45 O56 1.996 . S
Fe45 O60 1.976 . S
Fe45 O63 2.002 1_554 S
O46 Fe44 1.918 . S
O46 Fe45 1.918 . S
O46 Fe47 1.918 1_554 S
Fe47 O46 1.918 1_556 S
Fe47 O48 2.002 . S
Fe47 O57 1.976 1_556 S
Fe47 O61 1.996 1_556 S
Fe47 O64 1.997 . S
O48 Fe47 2.002 . S
O48 C65 1.295 . S
O49 Fe44 1.997 1_556 S
O49 C65 1.235 . S
O50 Fe44 2.002 1_556 S
O50 C51 1.295 . S
C51 O50 1.295 . S
C51 O53 1.235 . S
C52 O57 1.287 . S
C52 O58 1.255 . S
O53 Fe45 1.997 1_556 S
O53 C51 1.235 . S
C54 O60 1.287 . S
C54 O61 1.255 . S
O55 Fe44 1.976 . S
O55 C62 1.287 . S
O56 Fe45 1.996 . S
O56 C62 1.255 . S
O57 Fe47 1.976 1_554 S
O57 C52 1.287 . S
O58 Fe44 1.996 . S
O58 C52 1.255 . S
C59 O63 1.295 . S
C59 O64 1.235 . S
O60 Fe45 1.976 . S
O60 C54 1.287 . S
O61 Fe47 1.996 1_554 S
O61 C54 1.255 . S
C62 O55 1.287 . S
C62 O56 1.255 . S
O63 Fe45 2.002 1_556 S
O63 C59 1.295 . S
O64 Fe47 1.997 . S
O64 C59 1.235 . S
C65 O48 1.295 . S
C65 O49 1.235 . S
Fe66 O68 1.918 . S
Fe66 O71 1.997 . S
Fe66 O72 2.002 . S
Fe66 O77 1.976 . S
Fe66 O80 1.996 . S
Fe67 O68 1.918 . S
Fe67 O75 1.997 . S
Fe67 O78 1.996 . S
Fe67 O82 1.976 . S
Fe67 O85 2.002 . S
O68 Fe66 1.918 . S
O68 Fe67 1.918 . S
O68 Fe69 1.918 . S
Fe69 O68 1.918 . S
Fe69 O70 2.002 . S
Fe69 O79 1.976 . S
Fe69 O83 1.996 . S
Fe69 O86 1.997 . S
O70 Fe69 2.002 . S
O70 C87 1.295 . S
O71 Fe66 1.997 . S
O71 C87 1.235 . S
O72 Fe66 2.002 . S
O72 C73 1.295 . S
C73 O72 1.295 . S
C73 O75 1.235 . S
C74 O79 1.287 . S
C74 O80 1.255 . S
O75 Fe67 1.997 . S
O75 C73 1.235 . S
C76 O82 1.287 . S
C76 O83 1.255 . S
O77 Fe66 1.976 . S
O77 C84 1.287 . S
O78 Fe67 1.996 . S
O78 C84 1.255 . S
O79 Fe69 1.976 . S
O79 C74 1.287 . S
O80 Fe66 1.996 . S
O80 C74 1.255 . S
C81 O85 1.295 . S
C81 O86 1.235 . S
O82 Fe67 1.976 . S
O82 C76 1.287 . S
O83 Fe69 1.996 . S
O83 C76 1.255 . S
C84 O77 1.287 . S
C84 O78 1.255 . S
O85 Fe67 2.002 . S
O85 C81 1.295 . S
O86 Fe69 1.997 . S
O86 C81 1.235 . S
C87 O70 1.295 . S
C87 O71 1.235 . S
H88 C91 0.929 . S
H89 C94 0.929 . S
H90 C96 0.930 . S
C91 H88 0.929 . S
C91 C92 1.398 . S
C91 C93 1.396 . S
C92 C91 1.398 . S
C92 C96 1.407 . S
C93 C91 1.396 . S
C93 C94 1.394 . S
C94 H89 0.929 . S
C94 C93 1.394 . S
C94 C95 1.382 . S
C95 C94 1.382 . S
C95 C96 1.392 . S
C95 N97 1.420 . S
C96 H90 0.930 . S
C96 C92 1.407 . S
C96 C95 1.392 . S
N97 C95 1.420 . S
N97 C98 1.244 . S
C98 N97 1.244 . S
H99 C102 0.929 . S
H100 C105 0.929 . S
H101 C107 0.930 . S
C102 H99 0.929 . S
C102 C103 1.398 . S
C102 C104 1.396 . S
C103 C102 1.398 . S
C103 C107 1.407 . S
C104 C102 1.396 . S
C104 C105 1.394 . S
C105 H100 0.929 . S
C105 C104 1.394 . S
C105 C106 1.382 . S
C106 C105 1.382 . S
C106 C107 1.392 . S
C106 N108 1.420 . S
C107 H101 0.930 . S
C107 C103 1.407 . S
C107 C106 1.392 . S
N108 C106 1.420 . S
N108 C109 1.244 . S
C109 N108 1.244 . S
H110 C113 0.929 . S
H111 C116 0.929 . S
H112 C118 0.930 . S
C113 H110 0.929 . S
C113 C114 1.398 . S
C113 C115 1.396 . S
C114 C113 1.398 . S
C114 C118 1.407 . S
C115 C113 1.396 . S
C115 C116 1.394 . S
C116 H111 0.929 . S
C116 C115 1.394 . S
C116 C117 1.382 . S
C117 C116 1.382 . S
C117 C118 1.392 . S
C117 N119 1.420 . S
C118 H112 0.930 . S
C118 C114 1.407 . S
C118 C117 1.392 . S
N119 C117 1.420 . S
N119 C120 1.244 . S
C120 N119 1.244 . S
H121 C124 0.929 . S
H122 C127 0.929 . S
H123 C129 0.930 . S
C124 H121 0.929 . S
C124 C125 1.398 . S
C124 C126 1.396 . S
C125 C124 1.398 . S
C125 C129 1.407 . S
C126 C124 1.396 . S
C126 C127 1.394 . S
C127 H122 0.929 . S
C127 C126 1.394 . S
C127 C128 1.382 . S
C128 C127 1.382 . S
C128 C129 1.392 . S
C128 N130 1.420 . S
C129 H123 0.930 . S
C129 C125 1.407 . S
C129 C128 1.392 . S
N130 C128 1.420 . S
N130 C131 1.244 . S
C131 N130 1.244 . S
H132 C135 0.929 . S
H133 C138 0.929 . S
H134 C140 0.930 . S
C135 H132 0.929 . S
C135 C136 1.398 . S
C135 C137 1.396 . S
C136 C135 1.398 . S
C136 C140 1.407 . S
C137 C135 1.396 . S
C137 C138 1.394 . S
C138 H133 0.929 . S
C138 C137 1.394 . S
C138 C139 1.382 . S
C139 C138 1.382 . S
C139 C140 1.392 . S
C139 N141 1.420 . S
C140 H134 0.930 . S
C140 C136 1.407 . S
C140 C139 1.392 . S
N141 C139 1.420 . S
N141 C142 1.244 . S
C142 N141 1.244 . S
H143 C146 0.929 . S
H144 C149 0.929 . S
H145 C151 0.930 . S
C146 H143 0.929 . S
C146 C147 1.398 . S
C146 C148 1.396 . S
C147 C146 1.398 . S
C147 C151 1.407 . S
C148 C146 1.396 . S
C148 C149 1.394 . S
C149 H144 0.929 . S
C149 C148 1.394 . S
C149 C150 1.382 . S
C150 C149 1.382 . S
C150 C151 1.392 . S
C150 N152 1.420 . S
C151 H145 0.930 . S
C151 C147 1.407 . S
C151 C150 1.392 . S
N152 C150 1.420 . S
N152 C153 1.244 . S
C153 N152 1.244 . S
H154 C157 0.929 . S
H155 C160 0.929 . S
H156 C162 0.930 . S
C157 H154 0.929 . S
C157 C158 1.398 . S
C157 C159 1.396 . S
C158 C157 1.398 . S
C158 C162 1.407 . S
C159 C157 1.396 . S
C159 C160 1.394 . S
C160 H155 0.929 . S
C160 C159 1.394 . S
C160 C161 1.382 . S
C161 C160 1.382 . S
C161 C162 1.392 . S
C161 N163 1.420 . S
C162 H156 0.930 . S
C162 C158 1.407 . S
C162 C161 1.392 . S
N163 C161 1.420 . S
N163 C164 1.244 . S
C164 N163 1.244 . S
H165 C168 0.929 . S
H166 C171 0.929 . S
H167 C173 0.930 . S
C168 H165 0.929 . S
C168 C169 1.398 . S
C168 C170 1.396 . S
C169 C168 1.398 . S
C169 C173 1.407 . S
C170 C168 1.396 . S
C170 C171 1.394 . S
C171 H166 0.929 . S
C171 C170 1.394 . S
C171 C172 1.382 . S
C172 C171 1.382 . S
C172 C173 1.392 . S
C172 N174 1.420 . S
C173 H167 0.930 . S
C173 C169 1.407 . S
C173 C172 1.392 . S
N174 C172 1.420 . S
N174 C175 1.244 . S
C175 N174 1.244 . S
C176 C177 1.363 . S
C176 C182 1.379 1_565 S
C176 N184 1.356 . S
C177 C176 1.363 . S
C177 C183 1.363 1_565 S
C178 C179 1.363 . S
C178 C183 1.379 . S
C178 N185 1.356 . S
C179 C178 1.363 . S
C179 C182 1.363 . S
N180 C182 1.356 . S
N180 H192 0.984 . S
N180 H193 0.985 . S
N181 C183 1.356 . S
N181 H186 0.984 1_545 S
N181 H187 0.985 . S
C182 C176 1.379 1_545 S
C182 C179 1.363 . S
C182 N180 1.356 . S
C183 C177 1.363 1_545 S
C183 C178 1.379 . S
C183 N181 1.356 . S
N184 C176 1.356 . S
N184 H190 0.984 . S
N184 H191 0.984 . S
N185 C178 1.356 . S
N185 H188 0.984 . S
N185 H189 0.985 . S
H186 N181 0.984 1_565 S
H187 N181 0.985 . S
H188 N185 0.984 . S
H189 N185 0.985 . S
H190 N184 0.984 . S
H191 N184 0.984 . S
H192 N180 0.984 . S
H193 N180 0.985 . S
C194 C195 1.363 . S
C194 C200 1.379 . S
C194 N202 1.356 . S
C195 C194 1.363 . S
C195 C201 1.363 . S
C196 C197 1.363 . S
C196 C201 1.379 . S
C196 N203 1.356 . S
C197 C196 1.363 . S
C197 C200 1.363 . S
N198 C200 1.356 . S
N198 H210 0.984 . S
N198 H211 0.985 . S
N199 C201 1.356 . S
N199 H204 0.984 . S
N199 H205 0.985 . S
C200 C194 1.379 . S
C200 C197 1.363 . S
C200 N198 1.356 . S
C201 C195 1.363 . S
C201 C196 1.379 . S
C201 N199 1.356 . S
N202 C194 1.356 . S
N202 H208 0.984 . S
N202 H209 0.984 . S
N203 C196 1.356 . S
N203 H206 0.984 . S
N203 H207 0.985 . S
H204 N199 0.984 . S
H205 N199 0.985 . S
H206 N203 0.984 . S
H207 N203 0.985 . S
H208 N202 0.984 . S
H209 N202 0.984 . S
H210 N198 0.984 . S
H211 N198 0.985 . S
C212 C213 1.363 . S
C212 C218 1.379 1_545 S
C212 N220 1.356 . S
C213 C212 1.363 . S
C213 C219 1.363 1_545 S
C214 C215 1.363 . S
C214 C219 1.379 . S
C214 N221 1.356 . S
C215 C214 1.363 . S
C215 C218 1.363 . S
N216 C218 1.356 . S
N216 H228 0.984 . S
N216 H229 0.985 . S
N217 C219 1.356 . S
N217 H222 0.984 1_565 S
N217 H223 0.985 . S
C218 C212 1.379 1_565 S
C218 C215 1.363 . S
C218 N216 1.356 . S
C219 C213 1.363 1_565 S
C219 C214 1.379 . S
C219 N217 1.356 . S
N220 C212 1.356 . S
N220 H226 0.984 . S
N220 H227 0.984 . S
N221 C214 1.356 . S
N221 H224 0.984 . S
N221 H225 0.985 . S
H222 N217 0.984 1_545 S
H223 N217 0.985 . S
H224 N221 0.984 . S
H225 N221 0.985 . S
H226 N220 0.984 . S
H227 N220 0.984 . S
H228 N216 0.984 . S
H229 N216 0.985 . S
C230 C231 1.363 . S
C230 C236 1.379 . S
C230 N238 1.356 . S
C231 C230 1.363 . S
C231 C237 1.363 . S
C232 C233 1.363 . S
C232 C237 1.379 . S
C232 N239 1.356 . S
C233 C232 1.363 . S
C233 C236 1.363 . S
N234 C236 1.356 . S
N234 H246 0.984 . S
N234 H247 0.985 . S
N235 C237 1.356 . S
N235 H240 0.984 . S
N235 H241 0.985 . S
C236 C230 1.379 . S
C236 C233 1.363 . S
C236 N234 1.356 . S
C237 C231 1.363 . S
C237 C232 1.379 . S
C237 N235 1.356 . S
N238 C230 1.356 . S
N238 H244 0.984 . S
N238 H245 0.984 . S
N239 C232 1.356 . S
N239 H242 0.984 . S
N239 H243 0.985 . S
H240 N235 0.984 . S
H241 N235 0.985 . S
H242 N239 0.984 . S
H243 N239 0.985 . S
H244 N238 0.984 . S
H245 N238 0.984 . S
H246 N234 0.984 . S
H247 N234 0.985 . S
C248 C249 1.363 . S
C248 C254 1.379 . S
C248 N256 1.356 . S
C249 C248 1.363 . S
C249 C255 1.363 . S
C250 C251 1.363 . S
C250 C255 1.379 . S
C250 N257 1.356 . S
C251 C250 1.363 . S
C251 C254 1.363 . S
N252 C254 1.356 . S
N252 H264 0.984 . S
N252 H265 0.985 . S
N253 C255 1.356 . S
N253 H258 0.984 . S
N253 H259 0.985 . S
C254 C248 1.379 . S
C254 C251 1.363 . S
C254 N252 1.356 . S
C255 C249 1.363 . S
C255 C250 1.379 . S
C255 N253 1.356 . S
N256 C248 1.356 . S
N256 H262 0.984 . S
N256 H263 0.984 . S
N257 C250 1.356 . S
N257 H260 0.984 . S
N257 H261 0.985 . S
H258 N253 0.984 . S
H259 N253 0.985 . S
H260 N257 0.984 . S
H261 N257 0.985 . S
H262 N256 0.984 . S
H263 N256 0.984 . S
H264 N252 0.984 . S
H265 N252 0.985 . S
C266 C267 1.363 . S
C266 C272 1.379 . S
C266 N274 1.356 . S
C267 C266 1.363 . S
C267 C273 1.363 . S
C268 C269 1.363 . S
C268 C273 1.379 . S
C268 N275 1.356 . S
C269 C268 1.363 . S
C269 C272 1.363 . S
N270 C272 1.356 . S
N270 H282 0.984 . S
N270 H283 0.985 . S
N271 C273 1.349 1_655 S
N271 H276 0.992 . S
N271 H277 0.984 1_655 S
C272 C266 1.379 . S
C272 C269 1.363 . S
C272 N270 1.356 . S
C273 C267 1.363 . S
C273 C268 1.379 . S
C273 N271 1.349 1_455 S
N274 C266 1.356 . S
N274 H280 0.984 . S
N274 H281 0.984 1_455 S
N275 C268 1.356 . S
N275 H278 0.984 . S
N275 H279 0.985 . S
H276 N271 0.992 . S
H277 N271 0.984 1_455 S
H278 N275 0.984 . S
H279 N275 0.985 . S
H280 N274 0.984 . S
H281 N274 0.984 1_655 S
H282 N270 0.984 . S
H283 N270 0.985 . S
C284 C285 1.363 . S
C284 C290 1.379 . S
C284 N292 1.356 . S
C285 C284 1.363 . S
C285 C291 1.363 . S
C286 C287 1.363 . S
C286 C291 1.379 . S
C286 N293 1.356 . S
C287 C286 1.363 . S
C287 C290 1.363 . S
N288 C290 1.356 . S
N288 H300 0.984 . S
N288 H301 0.985 . S
N289 C291 1.356 . S
N289 H294 0.984 . S
N289 H295 0.985 . S
C290 C284 1.379 . S
C290 C287 1.363 . S
C290 N288 1.356 . S
C291 C285 1.363 . S
C291 C286 1.379 . S
C291 N289 1.356 . S
N292 C284 1.356 . S
N292 H298 0.984 . S
N292 H299 0.984 . S
N293 C286 1.356 . S
N293 H296 0.984 . S
N293 H297 0.985 . S
H294 N289 0.984 . S
H295 N289 0.985 . S
H296 N293 0.984 . S
H297 N293 0.985 . S
H298 N292 0.984 . S
H299 N292 0.984 . S
H300 N288 0.984 . S
H301 N288 0.985 . S
C302 C303 1.363 . S
C302 C308 1.379 . S
C302 N310 1.356 . S
C303 C302 1.363 . S
C303 C309 1.363 1_455 S
C304 C305 1.363 . S
C304 C309 1.379 . S
C304 N311 1.356 . S
C305 C304 1.363 . S
C305 C308 1.363 1_655 S
N306 C308 1.356 . S
N306 H318 0.984 . S
N306 H319 0.985 1_455 S
N307 C309 1.356 . S
N307 H312 0.984 1_655 S
N307 H313 0.985 . S
C308 C302 1.379 . S
C308 C305 1.363 1_455 S
C308 N306 1.356 . S
C309 C303 1.363 1_655 S
C309 C304 1.379 . S
C309 N307 1.356 . S
N310 C302 1.356 . S
N310 H316 0.984 . S
N310 H317 0.984 . S
N311 C304 1.356 . S
N311 H314 0.984 . S
N311 H315 0.985 . S
H312 N307 0.984 1_455 S
H313 N307 0.985 . S
H314 N311 0.984 . S
H315 N311 0.985 . S
H316 N310 0.984 . S
H317 N310 0.984 . S
H318 N306 0.984 . S
H319 N306 0.985 1_655 S
C320 C321 1.363 1_565 S
C320 C326 1.379 . S
C320 N328 1.356 . S
C321 C320 1.363 1_545 S
C321 C327 1.363 . S
C322 C323 1.363 . S
C322 C327 1.379 1_565 S
C322 N329 1.356 . S
C323 C322 1.363 . S
C323 C326 1.363 . S
N324 C326 1.356 . S
N324 H336 0.984 . S
N324 H337 0.985 . S
N325 C327 1.356 . S
N325 H330 0.984 . S
N325 H331 0.985 . S
C326 C320 1.379 . S
C326 C323 1.363 . S
C326 N324 1.356 . S
C327 C321 1.363 . S
C327 C322 1.379 1_545 S
C327 N325 1.356 . S
N328 C320 1.356 . S
N328 H334 0.984 . S
N328 H335 0.984 1_565 S
N329 C322 1.356 . S
N329 H332 0.984 . S
N329 H333 0.985 1_565 S
H330 N325 0.984 . S
H331 N325 0.985 . S
H332 N329 0.984 . S
H333 N329 0.985 1_545 S
H334 N328 0.984 . S
H335 N328 0.984 1_545 S
H336 N324 0.984 . S
H337 N324 0.985 . S
C338 C339 1.363 . S
C338 C344 1.379 . S
C338 N346 1.356 . S
C339 C338 1.363 . S
C339 C345 1.363 . S
C340 C341 1.363 . S
C340 C345 1.379 . S
C340 N347 1.356 . S
C341 C340 1.363 . S
C341 C344 1.363 . S
N342 C344 1.356 . S
N342 H354 0.984 . S
N342 H355 0.985 . S
N343 C345 1.356 . S
N343 H348 0.984 . S
N343 H349 0.985 . S
C344 C338 1.379 . S
C344 C341 1.363 . S
C344 N342 1.356 . S
C345 C339 1.363 . S
C345 C340 1.379 . S
C345 N343 1.356 . S
N346 C338 1.356 . S
N346 H352 0.984 . S
N346 H353 0.984 . S
N347 C340 1.356 . S
N347 H350 0.984 . S
N347 H351 0.985 . S
H348 N343 0.984 . S
H349 N343 0.985 . S
H350 N347 0.984 . S
H351 N347 0.985 . S
H352 N346 0.984 . S
H353 N346 0.984 . S
H354 N342 0.984 . S
H355 N342 0.985 . S
C356 C357 1.363 1_545 S
C356 C362 1.379 . S
C356 N364 1.356 1_556 S
C357 C356 1.363 1_565 S
C357 C363 1.363 . S
C358 C359 1.363 . S
C358 C363 1.379 1_545 S
C358 N365 1.356 . S
C359 C358 1.363 . S
C359 C362 1.363 . S
N360 C362 1.356 . S
N360 H372 0.984 1_556 S
N360 H373 0.985 . S
N361 C363 1.356 . S
N361 H366 0.984 . S
N361 H367 0.985 . S
C362 C356 1.379 . S
C362 C359 1.363 . S
C362 N360 1.356 . S
C363 C357 1.363 . S
C363 C358 1.379 1_565 S
C363 N361 1.356 . S
N364 C356 1.356 1_554 S
N364 H370 0.984 . S
N364 H371 0.984 1_545 S
N365 C358 1.356 . S
N365 H368 0.984 . S
N365 H369 0.985 . S
H366 N361 0.984 . S
H367 N361 0.985 . S
H368 N365 0.984 . S
H369 N365 0.985 . S
H370 N364 0.984 . S
H371 N364 0.984 1_565 S
H372 N360 0.984 1_554 S
H373 N360 0.985 . S
C374 C375 1.363 . S
C374 C380 1.379 . S
C374 N382 1.356 . S
C375 C374 1.363 . S
C375 C381 1.363 . S
C376 C377 1.363 . S
C376 C381 1.379 . S
C376 N383 1.356 . S
C377 C376 1.363 . S
C377 C380 1.363 . S
N378 C380 1.356 . S
N378 H390 0.984 . S
N378 H391 0.985 . S
N379 C381 1.356 . S
N379 H384 0.984 . S
N379 H385 0.985 . S
C380 C374 1.379 . S
C380 C377 1.363 . S
C380 N378 1.356 . S
C381 C375 1.363 . S
C381 C376 1.379 . S
C381 N379 1.356 . S
N382 C374 1.356 . S
N382 H388 0.984 . S
N382 H389 0.984 . S
N383 C376 1.356 . S
N383 H386 0.984 . S
N383 H387 0.985 . S
H384 N379 0.984 . S
H385 N379 0.985 . S
H386 N383 0.984 . S
H387 N383 0.985 . S
H388 N382 0.984 . S
H389 N382 0.984 . S
H390 N378 0.984 . S
H391 N378 0.985 . S
C392 C393 1.363 . S
C392 C398 1.379 . S
C392 N400 1.356 . S
C393 C392 1.363 . S
C393 C399 1.363 . S
C394 C395 1.363 . S
C394 C399 1.379 . S
C394 N401 1.356 . S
C395 C394 1.363 . S
C395 C398 1.363 . S
N396 C398 1.356 . S
N396 H408 0.984 . S
N396 H409 0.985 . S
N397 C399 1.356 . S
N397 H402 0.984 . S
N397 H403 0.985 . S
C398 C392 1.379 . S
C398 C395 1.363 . S
C398 N396 1.356 . S
C399 C393 1.363 . S
C399 C394 1.379 . S
C399 N397 1.356 . S
N400 C392 1.356 . S
N400 H406 0.984 . S
N400 H407 0.984 . S
N401 C394 1.356 . S
N401 H404 0.984 . S
N401 H405 0.985 . S
H402 N397 0.984 . S
H403 N397 0.985 . S
H404 N401 0.984 . S
H405 N401 0.985 . S
H406 N400 0.984 . S
H407 N400 0.984 . S
H408 N396 0.984 . S
H409 N396 0.985 . S
C410 C411 1.363 . S
C410 C416 1.379 . S
C410 N418 1.356 . S
C411 C410 1.363 . S
C411 C417 1.363 . S
C412 C413 1.363 . S
C412 C417 1.379 . S
C412 N419 1.356 . S
C413 C412 1.363 . S
C413 C416 1.363 . S
N414 C416 1.356 . S
N414 H426 0.984 . S
N414 H427 0.985 . S
N415 C417 1.356 . S
N415 H420 0.984 1_655 S
N415 H421 0.985 . S
C416 C410 1.379 . S
C416 C413 1.363 . S
C416 N414 1.356 . S
C417 C411 1.363 . S
C417 C412 1.379 . S
C417 N415 1.356 . S
N418 C410 1.356 . S
N418 H424 0.984 . S
N418 H425 0.984 1_655 S
N419 C412 1.356 . S
N419 H422 0.984 . S
N419 H423 0.985 . S
H420 N415 0.984 1_455 S
H421 N415 0.985 . S
H422 N419 0.984 . S
H423 N419 0.985 . S
H424 N418 0.984 . S
H425 N418 0.984 1_455 S
H426 N414 0.984 . S
H427 N414 0.985 . S
C428 C429 1.363 . S
C428 C434 1.379 . S
C428 N436 1.356 . S
C429 C428 1.363 . S
C429 C435 1.363 . S
C430 C431 1.363 . S
C430 C435 1.379 . S
C430 N437 1.356 . S
C431 C430 1.363 . S
C431 C434 1.363 . S
N432 C434 1.356 . S
N432 H444 0.984 . S
N432 H445 0.985 . S
N433 C435 1.356 . S
N433 H438 0.984 . S
N433 H439 0.985 . S
C434 C428 1.379 . S
C434 C431 1.363 . S
C434 N432 1.356 . S
C435 C429 1.363 . S
C435 C430 1.379 . S
C435 N433 1.356 . S
N436 C428 1.356 . S
N436 H442 0.984 . S
N436 H443 0.984 . S
N437 C430 1.356 . S
N437 H440 0.984 . S
N437 H441 0.985 . S
H438 N433 0.984 . S
H439 N433 0.985 . S
H440 N437 0.984 . S
H441 N437 0.985 . S
H442 N436 0.984 . S
H443 N436 0.984 . S
H444 N432 0.984 . S
H445 N432 0.985 . S
C446 C447 1.363 1_455 S
C446 C452 1.379 . S
C446 N454 1.357 . S
C447 C446 1.363 1_655 S
C447 C453 1.363 . S
C448 C449 1.363 1_655 S
C448 C453 1.379 . S
C448 N455 1.356 . S
C449 C448 1.363 1_455 S
C449 C452 1.363 . S
N450 C452 1.356 . S
N450 H462 0.984 . S
N450 H463 0.985 . S
N451 C453 1.356 . S
N451 H456 0.984 . S
N451 H457 0.985 . S
C452 C446 1.379 . S
C452 C449 1.363 . S
C452 N450 1.356 . S
C453 C447 1.363 . S
C453 C448 1.379 . S
C453 N451 1.356 . S
N454 C446 1.357 . S
N454 H460 0.994 . S
N454 H461 0.975 1_455 S
N455 C448 1.356 . S
N455 H458 0.984 1_655 S
N455 H459 0.985 . S
H456 N451 0.984 . S
H457 N451 0.985 . S
H458 N455 0.984 1_455 S
H459 N455 0.985 . S
H460 N454 0.994 . S
H461 N454 0.975 1_655 S
H462 N450 0.984 . S
H463 N450 0.985 . S
C464 C465 1.363 . S
C464 C470 1.379 . S
C464 N472 1.356 . S
C465 C464 1.363 . S
C465 C471 1.363 . S
C466 C467 1.363 . S
C466 C471 1.379 . S
C466 N473 1.356 . S
C467 C466 1.363 . S
C467 C470 1.363 . S
N468 C470 1.356 . S
N468 H480 0.984 . S
N468 H481 0.985 . S
N469 C471 1.356 . S
N469 H474 0.984 . S
N469 H475 0.985 . S
C470 C464 1.379 . S
C470 C467 1.363 . S
C470 N468 1.356 . S
C471 C465 1.363 . S
C471 C466 1.379 . S
C471 N469 1.356 . S
N472 C464 1.356 . S
N472 H478 0.984 . S
N472 H479 0.984 . S
N473 C466 1.356 . S
N473 H476 0.984 . S
N473 H477 0.985 . S
H474 N469 0.984 . S
H475 N469 0.985 . S
H476 N473 0.984 . S
H477 N473 0.985 . S
H478 N472 0.984 . S
H479 N472 0.984 . S
H480 N468 0.984 . S
H481 N468 0.985 . S
C482 C483 1.363 . S
C482 C488 1.379 . S
C482 N490 1.356 . S
C483 C482 1.363 . S
C483 C489 1.363 . S
C484 C485 1.363 . S
C484 C489 1.379 . S
C484 N491 1.356 . S
C485 C484 1.363 . S
C485 C488 1.363 . S
N486 C488 1.356 . S
N486 H498 0.984 . S
N486 H499 0.985 . S
N487 C489 1.356 . S
N487 H492 0.984 . S
N487 H493 0.985 . S
C488 C482 1.379 . S
C488 C485 1.363 . S
C488 N486 1.356 . S
C489 C483 1.363 . S
C489 C484 1.379 . S
C489 N487 1.356 . S
N490 C482 1.356 . S
N490 H496 0.984 . S
N490 H497 0.984 . S
N491 C484 1.356 . S
N491 H494 0.984 . S
N491 H495 0.985 . S
H492 N487 0.984 . S
H493 N487 0.985 . S
H494 N491 0.984 . S
H495 N491 0.985 . S
H496 N490 0.984 . S
H497 N490 0.984 . S
H498 N486 0.984 . S
H499 N486 0.985 . S
C500 C501 1.363 . S
C500 C506 1.379 . S
C500 N508 1.356 . S
C501 C500 1.363 . S
C501 C507 1.363 . S
C502 C503 1.363 . S
C502 C507 1.379 . S
C502 N509 1.356 . S
C503 C502 1.363 . S
C503 C506 1.363 . S
N504 C506 1.356 . S
N504 H516 0.984 . S
N504 H517 0.985 . S
N505 C507 1.356 . S
N505 H510 0.984 . S
N505 H511 0.985 . S
C506 C500 1.379 . S
C506 C503 1.363 . S
C506 N504 1.356 . S
C507 C501 1.363 . S
C507 C502 1.379 . S
C507 N505 1.356 . S
N508 C500 1.356 . S
N508 H514 0.984 . S
N508 H515 0.984 . S
N509 C502 1.356 . S
N509 H512 0.984 . S
N509 H513 0.985 . S
H510 N505 0.984 . S
H511 N505 0.985 . S
H512 N509 0.984 . S
H513 N509 0.985 . S
H514 N508 0.984 . S
H515 N508 0.984 . S
H516 N504 0.984 . S
H517 N504 0.985 . S
C518 C519 1.363 . S
C518 C524 1.379 . S
C518 N526 1.356 . S
C519 C518 1.363 . S
C519 C525 1.363 . S
C520 C521 1.363 . S
C520 C525 1.379 . S
C520 N527 1.356 . S
C521 C520 1.363 . S
C521 C524 1.363 . S
N522 C524 1.356 . S
N522 H534 0.984 . S
N522 H535 0.985 . S
N523 C525 1.356 . S
N523 H528 0.984 . S
N523 H529 0.985 . S
C524 C518 1.379 . S
C524 C521 1.363 . S
C524 N522 1.356 . S
C525 C519 1.363 . S
C525 C520 1.379 . S
C525 N523 1.356 . S
N526 C518 1.356 . S
N526 H532 0.984 . S
N526 H533 0.984 . S
N527 C520 1.356 . S
N527 H530 0.984 . S
N527 H531 0.985 . S
H528 N523 0.984 . S
H529 N523 0.985 . S
H530 N527 0.984 . S
H531 N527 0.985 . S
H532 N526 0.984 . S
H533 N526 0.984 . S
H534 N522 0.984 . S
H535 N522 0.985 . S
C536 C537 1.363 . S
C536 C542 1.379 . S
C536 N544 1.356 . S
C537 C536 1.363 . S
C537 C543 1.363 . S
C538 C539 1.363 . S
C538 C543 1.379 . S
C538 N545 1.356 . S
C539 C538 1.363 . S
C539 C542 1.363 . S
N540 C542 1.356 . S
N540 H552 0.984 . S
N540 H553 0.985 . S
N541 C543 1.356 . S
N541 H546 0.984 . S
N541 H547 0.985 . S
C542 C536 1.379 . S
C542 C539 1.363 . S
C542 N540 1.356 . S
C543 C537 1.363 . S
C543 C538 1.379 . S
C543 N541 1.356 . S
N544 C536 1.356 . S
N544 H550 0.984 . S
N544 H551 0.984 . S
N545 C538 1.356 . S
N545 H548 0.984 . S
N545 H549 0.985 . S
H546 N541 0.984 . S
H547 N541 0.985 . S
H548 N545 0.984 . S
H549 N545 0.985 . S
H550 N544 0.984 . S
H551 N544 0.984 . S
H552 N540 0.984 . S
H553 N540 0.985 . S
C554 C555 1.363 . S
C554 C560 1.379 . S
C554 N562 1.356 . S
C555 C554 1.363 . S
C555 C561 1.363 . S
C556 C557 1.363 . S
C556 C561 1.379 . S
C556 N563 1.356 . S
C557 C556 1.363 . S
C557 C560 1.363 . S
N558 C560 1.356 . S
N558 H570 0.984 . S
N558 H571 0.985 . S
N559 C561 1.356 . S
N559 H564 0.984 . S
N559 H565 0.985 . S
C560 C554 1.379 . S
C560 C557 1.363 . S
C560 N558 1.356 . S
C561 C555 1.363 . S
C561 C556 1.379 . S
C561 N559 1.356 . S
N562 C554 1.356 . S
N562 H568 0.984 . S
N562 H569 0.984 . S
N563 C556 1.356 . S
N563 H566 0.984 . S
N563 H567 0.985 . S
H564 N559 0.984 . S
H565 N559 0.985 . S
H566 N563 0.984 . S
H567 N563 0.985 . S
H568 N562 0.984 . S
H569 N562 0.984 . S
H570 N558 0.984 . S
H571 N558 0.985 . S
C572 C573 1.363 . S
C572 C578 1.379 . S
C572 N580 1.356 . S
C573 C572 1.363 . S
C573 C579 1.363 . S
C574 C575 1.363 . S
C574 C579 1.379 . S
C574 N581 1.356 . S
C575 C574 1.363 . S
C575 C578 1.363 . S
N576 C578 1.356 . S
N576 H588 0.984 . S
N576 H589 0.985 . S
N577 C579 1.356 . S
N577 H582 0.984 . S
N577 H583 0.985 . S
C578 C572 1.379 . S
C578 C575 1.363 . S
C578 N576 1.356 . S
C579 C573 1.363 . S
C579 C574 1.379 . S
C579 N577 1.356 . S
N580 C572 1.356 . S
N580 H586 0.984 . S
N580 H587 0.984 . S
N581 C574 1.356 . S
N581 H584 0.984 . S
N581 H585 0.985 . S
H582 N577 0.984 . S
H583 N577 0.985 . S
H584 N581 0.984 . S
H585 N581 0.985 . S
H586 N580 0.984 . S
H587 N580 0.984 . S
H588 N576 0.984 . S
H589 N576 0.985 . S
C590 C591 1.363 . S
C590 C596 1.379 . S
C590 N598 1.356 . S
C591 C590 1.363 . S
C591 C597 1.363 . S
C592 C593 1.363 . S
C592 C597 1.379 . S
C592 N599 1.356 . S
C593 C592 1.363 . S
C593 C596 1.363 . S
N594 C596 1.356 . S
N594 H606 0.984 . S
N594 H607 0.985 . S
N595 C597 1.356 1_554 S
N595 H600 0.984 . S
N595 H601 0.985 . S
C596 C590 1.379 . S
C596 C593 1.363 . S
C596 N594 1.356 . S
C597 C591 1.363 . S
C597 C592 1.379 . S
C597 N595 1.356 1_556 S
N598 C590 1.356 . S
N598 H604 0.984 . S
N598 H605 0.984 . S
N599 C592 1.356 . S
N599 H602 0.984 . S
N599 H603 0.985 1_556 S
H600 N595 0.984 . S
H601 N595 0.985 . S
H602 N599 0.984 . S
H603 N599 0.985 1_554 S
H604 N598 0.984 . S
H605 N598 0.984 . S
H606 N594 0.984 . S
H607 N594 0.985 . S
C177 C7 1.510 . S
C179 C93 1.435 . S
C195 C37 1.482 . S
C197 C104 1.381 . S
C213 C54 1.415 . S
C215 C114 1.342 . S
C233 C126 1.423 . S
C231 C87 1.438 . S
C251 C137 1.406 . S
C249 C30 1.484 . S
C267 C51 1.447 1_455 S
C269 C148 1.430 . S
C285 C84 1.448 . S
C287 C158 1.367 . S
C303 C10 1.455 . S
C305 C170 1.354 . S
C321 C59 1.391 . S
C323 C169 1.361 . S
C341 C136 1.235 . S
C339 C74 1.289 . S
C359 C147 1.355 . S
C357 C18 1.416 . S
C375 C32 1.449 . S
C377 C159 1.410 . S
C395 C103 1.355 . S
C393 C73 1.389 . S
C411 C15 1.449 1_655 S
C413 C115 1.427 . S
C431 C125 1.381 . S
C429 C43 1.429 . S
C449 C92 1.242 . S
C447 C62 1.294 . S
C467 C164 1.481 . S
C465 C21 1.518 . S
C485 C175 1.475 . S
C483 C29 1.469 . S
C501 C52 1.408 . S
C503 C142 1.398 . S
C521 C153 1.435 . S
C519 C81 1.474 . S
C539 C120 1.461 . S
C537 C40 1.491 . S
C555 C65 1.472 . S
C557 C131 1.433 . S
C575 C98 1.407 . S
C573 C76 1.416 . S
C593 C109 1.476 . S
C591 C8 1.484 . S
