# Generated by pormake.
# Topology zzz, (3,6)-cn, num edge types: 1
# Building blocks:
#     Node 0, Type 0, BuildingBlock: VETTIZ_charged_linker_0, # of connection points: 3
#     Node 1, Type 0, BuildingBlock: VETTIZ_charged_linker_0, # of connection points: 3
#     Node 2, Type 0, BuildingBlock: VETTIZ_charged_linker_0, # of connection points: 3
#     Node 3, Type 0, BuildingBlock: VETTIZ_charged_linker_0, # of connection points: 3
#     Node 4, Type 0, BuildingBlock: VETTIZ_charged_linker_0, # of connection points: 3
#     Node 5, Type 0, BuildingBlock: VETTIZ_charged_linker_0, # of connection points: 3
#     Node 6, Type 0, BuildingBlock: VETTIZ_charged_linker_0, # of connection points: 3
#     Node 7, Type 0, BuildingBlock: VETTIZ_charged_linker_0, # of connection points: 3
#     Node 8, Type 1, BuildingBlock: BETDAH_clean_sbu_0, # of connection points: 6
#     Node 9, Type 1, BuildingBlock: BETDAH_clean_sbu_0, # of connection points: 6
#     Node 10, Type 1, BuildingBlock: BETDAH_clean_sbu_0, # of connection points: 6
#     Node 11, Type 1, BuildingBlock: BETDAH_clean_sbu_0, # of connection points: 6
#     Edge 12, Type (0, 1), BuildingBlock: ZUJKAS_clean_linker_0, # of connection points: 2
#     Edge 13, Type (0, 1), BuildingBlock: ZUJKAS_clean_linker_0, # of connection points: 2
#     Edge 14, Type (0, 1), BuildingBlock: ZUJKAS_clean_linker_0, # of connection points: 2
#     Edge 15, Type (0, 1), BuildingBlock: ZUJKAS_clean_linker_0, # of connection points: 2
#     Edge 16, Type (0, 1), BuildingBlock: ZUJKAS_clean_linker_0, # of connection points: 2
#     Edge 17, Type (0, 1), BuildingBlock: ZUJKAS_clean_linker_0, # of connection points: 2
#     Edge 18, Type (0, 1), BuildingBlock: ZUJKAS_clean_linker_0, # of connection points: 2
#     Edge 19, Type (0, 1), BuildingBlock: ZUJKAS_clean_linker_0, # of connection points: 2
#     Edge 20, Type (0, 1), BuildingBlock: ZUJKAS_clean_linker_0, # of connection points: 2
#     Edge 21, Type (0, 1), BuildingBlock: ZUJKAS_clean_linker_0, # of connection points: 2
#     Edge 22, Type (0, 1), BuildingBlock: ZUJKAS_clean_linker_0, # of connection points: 2
#     Edge 23, Type (0, 1), BuildingBlock: ZUJKAS_clean_linker_0, # of connection points: 2
#     Edge 24, Type (0, 1), BuildingBlock: ZUJKAS_clean_linker_0, # of connection points: 2
#     Edge 25, Type (0, 1), BuildingBlock: ZUJKAS_clean_linker_0, # of connection points: 2
#     Edge 26, Type (0, 1), BuildingBlock: ZUJKAS_clean_linker_0, # of connection points: 2
#     Edge 27, Type (0, 1), BuildingBlock: ZUJKAS_clean_linker_0, # of connection points: 2
#     Edge 28, Type (0, 1), BuildingBlock: ZUJKAS_clean_linker_0, # of connection points: 2
#     Edge 29, Type (0, 1), BuildingBlock: ZUJKAS_clean_linker_0, # of connection points: 2
#     Edge 30, Type (0, 1), BuildingBlock: ZUJKAS_clean_linker_0, # of connection points: 2
#     Edge 31, Type (0, 1), BuildingBlock: ZUJKAS_clean_linker_0, # of connection points: 2
#     Edge 32, Type (0, 1), BuildingBlock: ZUJKAS_clean_linker_0, # of connection points: 2
#     Edge 33, Type (0, 1), BuildingBlock: ZUJKAS_clean_linker_0, # of connection points: 2
#     Edge 34, Type (0, 1), BuildingBlock: ZUJKAS_clean_linker_0, # of connection points: 2
#     Edge 35, Type (0, 1), BuildingBlock: ZUJKAS_clean_linker_0, # of connection points: 2
# Relax obj value: 0.418
# Max RMSD: 0.279
# Mean RMSD: 0.256
data_MOF--net-zzz--node1-BETDAH_clean_sbu_0--node2-VETTIZ_charged_linker_0--edge1-ZUJKAS_clean_linker_0
_symmetry_space_group_name_H-M    P1
_symmetry_Int_Tables_number       1
_symmetry_cell_setting            triclinic
loop_
_symmetry_equiv_pos_as_xyz
'x, y, z'
_cell_length_a     73.650195
_cell_length_b     73.781395
_cell_length_c     22.454868
_cell_angle_alpha  89.928317
_cell_angle_beta   90.013276
_cell_angle_gamma 90.100181
loop_
_atom_site_label
_atom_site_type_symbol
_atom_site_fract_x
_atom_site_fract_y
_atom_site_fract_z
_atom_type_partial_charge
C0 C 0.76361 0.51705 0.48329 0.0
C1 C 0.7823 0.52282 0.48702 0.0
C2 C 0.7893 0.53345 0.44084 0.0
C3 C 0.76151 0.5305 0.38471 0.0
C4 C 0.75315 0.52159 0.43108 0.0
C5 C 0.73293 0.51836 0.41447 0.0
H6 H 0.67595 0.51033 0.16343 0.0
C7 C 0.74953 0.5306 0.33249 0.0
C8 C 0.73212 0.52405 0.34788 0.0
H9 H 0.65384 0.52151 0.33648 0.0
H10 H 0.68512 0.52262 0.37884 0.0
H11 H 0.69549 0.54364 0.17628 0.0
H12 H 0.71185 0.48812 0.19028 0.0
H13 H 0.7301 0.49871 0.15426 0.0
H14 H 0.70786 0.49911 0.12024 0.0
H15 H 0.69991 0.53004 0.1118 0.0
H16 H 0.71724 0.54383 0.14614 0.0
C17 C 0.72112 0.53085 0.45307 0.0
C18 C 0.72761 0.4984 0.42292 0.0
C19 C 0.78219 0.53708 0.13708 0.0
C20 C 0.77757 0.53108 0.08017 0.0
C21 C 0.75952 0.52711 0.06591 0.0
C22 C 0.74638 0.52723 0.11048 0.0
C23 C 0.75158 0.53119 0.16953 0.0
C24 C 0.76913 0.53641 0.18145 0.0
C25 C 0.77293 0.53806 0.24648 0.0
C26 C 0.75456 0.53303 0.27232 0.0
C27 C 0.74231 0.5291 0.22723 0.0
C28 C 0.77779 0.55824 0.25872 0.0
C29 C 0.78799 0.52395 0.26259 0.0
C30 C 0.67755 0.51222 0.21108 0.0
C31 C 0.66242 0.51537 0.24614 0.0
C32 C 0.66533 0.5187 0.30795 0.0
C33 C 0.68338 0.51933 0.33252 0.0
C34 C 0.69858 0.51717 0.29465 0.0
C35 C 0.69494 0.5144 0.23455 0.0
C36 C 0.71064 0.51815 0.19576 0.0
C37 C 0.72471 0.52321 0.24094 0.0
C38 C 0.71868 0.52162 0.30054 0.0
C39 C 0.70569 0.53462 0.15493 0.0
C40 C 0.71539 0.50022 0.16293 0.0
H41 H 0.78593 0.54511 0.35767 0.0
H42 H 0.75754 0.50933 0.51915 0.0
H43 H 0.73653 0.48951 0.39582 0.0
H44 H 0.71332 0.49616 0.40885 0.0
H45 H 0.72892 0.49438 0.47044 0.0
H46 H 0.7247 0.5453 0.44515 0.0
H47 H 0.72322 0.52784 0.5011 0.0
H48 H 0.70655 0.52901 0.44317 0.0
H49 H 0.79624 0.53978 0.14865 0.0
H50 H 0.75595 0.52222 0.02193 0.0
H51 H 0.73306 0.52307 0.0973 0.0
H52 H 0.77228 0.56745 0.22384 0.0
H53 H 0.79271 0.56036 0.26009 0.0
H54 H 0.77165 0.5633 0.30063 0.0
H55 H 0.78896 0.51292 0.22896 0.0
H56 H 0.78528 0.5165 0.30436 0.0
H57 H 0.80159 0.53039 0.26549 0.0
H58 H 0.80323 0.53825 0.44219 0.0
C59 C 0.77911 0.53743 0.39096 0.0
C60 C 0.998 0.76145 0.09648 0.0
C61 C 0.99964 0.78021 0.09002 0.0
C62 C 0.99735 0.79172 0.13903 0.0
C63 C 0.99395 0.76569 0.20245 0.0
C64 C 0.99474 0.75447 0.15347 0.0
C65 C 0.99255 0.73489 0.1702 0.0
H66 H 0.02414 0.67168 0.30402 0.0
C67 C 0.99345 0.75435 0.25591 0.0
C68 C 0.9911 0.73649 0.2383 0.0
H69 H 0.98029 0.67013 0.17461 0.0
H70 H 0.96989 0.69964 0.21066 0.0
H71 H 0.03688 0.71645 0.31415 0.0
H72 H 0.98853 0.69926 0.41051 0.0
H73 H 1.00757 0.70861 0.4505 0.0
H74 H 1.0091 0.68635 0.41938 0.0
H75 H 0.03865 0.6981 0.36702 0.0
H76 H 0.03499 0.72093 0.39282 0.0
C77 C 0.00975 0.72445 0.15067 0.0
C78 C 0.97518 0.72752 0.13978 0.0
C79 C 0.00989 0.78677 0.44225 0.0
C80 C 0.01026 0.78266 0.50247 0.0
C81 C 1.00905 0.76403 0.51902 0.0
C82 C 1.00765 0.75002 0.47464 0.0
C83 C 1.00719 0.75475 0.41353 0.0
C84 C 1.00759 0.77312 0.40006 0.0
C85 C 1.00259 0.77718 0.33784 0.0
C86 C 0.99896 0.75847 0.31443 0.0
C87 C 1.00247 0.74467 0.3566 0.0
C88 C 0.01933 0.78648 0.30802 0.0
C89 C 0.98477 0.78859 0.33875 0.0
C90 C 0.01256 0.67785 0.28241 0.0
C91 C 1.00386 0.6691 0.23251 0.0
C92 C 0.9879 0.67689 0.20947 0.0
C93 C 0.98229 0.69396 0.22787 0.0
C94 C 0.99306 0.70354 0.26774 0.0
C95 C 1.00602 0.69523 0.30148 0.0
C96 C 0.01101 0.70815 0.35361 0.0
C97 C 1.00098 0.72596 0.33644 0.0
C98 C 0.99257 0.72263 0.2812 0.0
C99 C 0.03163 0.71107 0.35709 0.0
C100 C 1.0036 0.70018 0.41196 0.0
H101 H 0.99347 0.7941 0.23087 0.0
H102 H 0.99952 0.75257 0.05847 0.0
H103 H 0.97209 0.73475 0.09754 0.0
H104 H 0.96315 0.72905 0.16921 0.0
H105 H 0.97673 0.71314 0.12655 0.0
H106 H 0.02204 0.73009 0.17273 0.0
H107 H 0.01169 0.72534 0.1017 0.0
H108 H 1.00888 0.70986 0.16177 0.0
H109 H 0.01005 0.80082 0.42785 0.0
H110 H 1.0089 0.76036 0.5657 0.0
H111 H 1.00608 0.73614 0.48859 0.0
H112 H 0.03214 0.7839 0.33295 0.0
H113 H 0.01761 0.80141 0.30571 0.0
H114 H 0.02222 0.78124 0.26291 0.0
H115 H 0.97634 0.78544 0.37861 0.0
H116 H 0.97564 0.78554 0.30084 0.0
H117 H 0.98773 0.80335 0.3395 0.0
H118 H 0.99857 0.8063 0.13403 0.0
C119 C 0.99444 0.78457 0.19526 0.0
C120 C 0.84471 0.01027 0.28304 0.0
C121 C 0.85393 1.00273 0.23205 0.0
C122 C 0.84569 0.98822 0.20183 0.0
C123 C 0.81841 0.99243 0.25791 0.0
C124 C 0.82668 1.00407 0.29677 0.0
C125 C 0.81341 1.00756 0.34944 0.0
H126 H 0.72265 0.99008 0.43673 0.0
C127 C 0.79947 0.99055 0.27225 0.0
C128 C 0.79571 0.99801 0.32844 0.0
H129 H 0.75996 0.02057 0.54471 0.0
H130 H 0.7844 0.01574 0.46898 0.0
H131 H 0.72838 0.01218 0.34159 0.0
H132 H 0.74713 0.9597 0.38184 0.0
H133 H 0.74225 0.95918 0.30516 0.0
H134 H 0.72479 0.9659 0.35706 0.0
H135 H 0.71809 0.99331 0.30591 0.0
H136 H 0.7361 1.0062 0.27095 0.0
C137 C 0.81061 0.02798 0.3585 0.0
C138 C 0.82078 0.99847 0.40607 0.0
C139 C 0.75682 0.99164 0.09916 0.0
C140 C 0.73799 0.98977 0.09662 0.0
C141 C 0.72833 0.98263 0.14521 0.0
C142 C 0.73729 0.97888 0.19833 0.0
C143 C 0.75586 0.98282 0.20265 0.0
C144 C 0.76557 0.98767 0.15265 0.0
C145 C 0.78556 0.98834 0.16433 0.0
C146 C 0.78556 0.98605 0.23226 0.0
C147 C 0.76808 0.98392 0.25389 0.0
C148 C 0.79332 1.00688 0.14445 0.0
C149 C 0.7943 0.97239 0.13001 0.0
C150 C 0.73614 0.99536 0.44566 0.0
C151 C 0.73933 1.00526 0.49704 0.0
C152 C 0.75707 0.01263 0.50533 0.0
C153 C 0.77113 0.00993 0.46174 0.0
C154 C 0.76714 1.00038 0.40873 0.0
C155 C 0.74958 0.99371 0.40233 0.0
C156 C 0.7456 0.98702 0.34174 0.0
C157 C 0.76401 0.98855 0.31336 0.0
C158 C 0.77728 0.99632 0.35143 0.0
C159 C 0.73132 1.00015 0.31333 0.0
C160 C 0.73948 0.96693 0.34631 0.0
H161 H 0.82278 0.97075 0.19558 0.0
H162 H 0.85121 0.02049 0.31024 0.0
H163 H 0.82287 0.98372 0.39853 0.0
H164 H 0.81114 1.00005 0.44364 0.0
H165 H 0.83401 1.00456 0.41907 0.0
H166 H 0.80562 0.03438 0.31678 0.0
H167 H 0.82359 0.0346 0.37134 0.0
H168 H 0.80052 0.03055 0.39411 0.0
H169 H 0.76433 0.99661 0.06103 0.0
H170 H 0.71371 0.981 0.14315 0.0
H171 H 0.72931 0.9738 0.23457 0.0
H172 H 0.78628 0.01815 0.16773 0.0
H173 H 0.7917 0.00883 0.09569 0.0
H174 H 0.80803 1.00794 0.15401 0.0
H175 H 0.78659 0.96887 0.08902 0.0
H176 H 0.79481 0.95996 0.158 0.0
H177 H 0.80809 0.97588 0.11381 0.0
H178 H 0.85268 0.98133 0.16592 0.0
C179 C 0.82823 0.98271 0.21601 0.0
C180 C 0.51162 0.75915 0.48548 0.0
C181 C 0.50403 0.74106 0.48823 0.0
C182 C 0.49082 0.73622 0.44582 0.0
C183 C 0.49767 0.76288 0.38981 0.0
C184 C 0.5071 0.77053 0.43555 0.0
C185 C 0.51097 0.79068 0.41827 0.0
H186 H 0.50279 0.84729 0.16242 0.0
C187 C 0.4992 0.77388 0.33739 0.0
C188 C 0.50473 0.79154 0.35202 0.0
H189 H 0.51501 0.86953 0.33478 0.0
H190 H 0.51301 0.83841 0.37956 0.0
H191 H 0.53265 0.82271 0.17761 0.0
H192 H 0.47517 0.81708 0.18762 0.0
H193 H 0.48262 0.79788 0.1484 0.0
H194 H 0.48788 0.82013 0.12007 0.0
H195 H 0.51987 0.81654 0.11331 0.0
H196 H 0.53006 0.79976 0.1617 0.0
C197 C 0.53125 0.79511 0.42429 0.0
C198 C 0.49937 0.8032 0.45735 0.0
C199 C 0.51626 0.73853 0.15411 0.0
C200 C 0.51641 0.74353 0.09404 0.0
C201 C 0.51365 0.76153 0.07698 0.0
C202 C 0.50971 0.77447 0.11975 0.0
C203 C 0.50878 0.76926 0.17988 0.0
C204 C 0.51167 0.7515 0.19631 0.0
C205 C 0.50694 0.74802 0.26037 0.0
C206 C 0.50164 0.76717 0.27958 0.0
C207 C 0.50391 0.77932 0.23339 0.0
C208 C 0.52399 0.74117 0.29345 0.0
C209 C 0.49114 0.73415 0.26347 0.0
C210 C 0.50462 0.84588 0.21017 0.0
C211 C 0.50886 0.86089 0.24438 0.0
C212 C 0.51155 0.85812 0.30675 0.0
C213 C 0.51044 0.84024 0.33261 0.0
C214 C 0.50703 0.82515 0.29543 0.0
C215 C 0.50454 0.82866 0.23512 0.0
C216 C 0.50466 0.81231 0.19777 0.0
C217 C 0.50484 0.79796 0.2447 0.0
C218 C 0.50612 0.80471 0.30359 0.0
C219 C 0.52258 0.81275 0.16035 0.0
C220 C 0.48676 0.81177 0.16106 0.0
H221 H 0.4769 0.74366 0.3659 0.0
H222 H 0.52075 0.76394 0.51979 0.0
H223 H 0.48472 0.79992 0.45222 0.0
H224 H 0.50141 0.81758 0.44487 0.0
H225 H 0.50307 0.80154 0.50504 0.0
H226 H 0.53946 0.78574 0.39649 0.0
H227 H 0.53569 0.79371 0.47137 0.0
H228 H 0.53398 0.80922 0.40942 0.0
H229 H 0.51751 0.72441 0.16687 0.0
H230 H 0.51289 0.76519 0.03027 0.0
H231 H 0.50651 0.78771 0.10361 0.0
H232 H 0.53515 0.75132 0.29077 0.0
H233 H 0.52887 0.72827 0.27369 0.0
H234 H 0.5211 0.73854 0.34113 0.0
H235 H 0.49156 0.72414 0.22668 0.0
H236 H 0.47777 0.74107 0.26071 0.0
H237 H 0.49186 0.72579 0.30441 0.0
H238 H 0.48382 0.72331 0.44847 0.0
C239 C 0.48736 0.74731 0.39728 0.0
C240 C 0.34587 0.50445 0.05436 0.0
C241 C 0.35314 0.51067 0.11048 0.0
C242 C 0.34203 0.52135 0.14706 0.0
C243 C 0.3163 0.51444 0.08594 0.0
C244 C 0.32697 0.50749 0.04164 0.0
C245 C 0.31479 0.50426 0.98593 0.0
H246 H 0.22182 0.51218 0.90771 0.0
C247 C 0.29736 0.51198 0.07124 0.0
C248 C 0.29541 0.50786 0.01034 0.0
H249 H 0.26222 0.49947 0.77643 0.0
H250 H 0.2864 0.50074 0.85523 0.0
H251 H 0.23731 0.47863 0.96081 0.0
H252 H 0.23842 0.53487 0.00855 0.0
H253 H 0.2327 0.52277 0.07353 0.0
H254 H 0.2185 0.52075 0.00911 0.0
H255 H 0.21977 0.48811 0.00584 0.0
H256 H 0.2399 0.47784 0.03797 0.0
C257 C 0.31667 0.48471 0.96345 0.0
C258 C 0.31974 0.51799 0.93712 0.0
C259 C 0.25715 0.49615 0.24651 0.0
C260 C 0.2386 0.49215 0.24973 0.0
C261 C 0.22828 0.49073 0.19736 0.0
C262 C 0.23608 0.49445 0.14256 0.0
C263 C 0.25449 0.49922 0.13975 0.0
C264 C 0.26481 0.49975 0.19089 0.0
C265 C 0.28373 0.50646 0.17951 0.0
C266 C 0.28315 0.50869 0.11178 0.0
C267 C 0.26611 0.50453 0.08988 0.0
C268 C 0.29719 0.49162 0.19961 0.0
C269 C 0.28637 0.52467 0.21315 0.0
C270 C 0.23589 0.51051 0.89449 0.0
C271 C 0.23996 0.50634 0.83594 0.0
C272 C 0.25858 0.50314 0.82152 0.0
C273 C 0.2725 0.50383 0.86673 0.0
C274 C 0.26753 0.50695 0.92676 0.0
C275 C 0.24915 0.50937 0.9383 0.0
C276 C 0.24429 0.50563 1.00074 0.0
C277 C 0.26272 0.50492 0.02847 0.0
C278 C 0.27707 0.50581 0.98673 0.0
C279 C 0.23473 0.4867 1.00184 0.0
C280 C 0.23279 0.52172 0.02451 0.0
H281 H 0.31593 0.53239 0.16164 0.0
H282 H 0.35439 0.49736 0.02287 0.0
H283 H 0.31826 0.53208 0.95394 0.0
H284 H 0.31077 0.51639 0.89783 0.0
H285 H 0.33403 0.51606 0.92256 0.0
H286 H 0.3133 0.47493 0.99949 0.0
H287 H 0.33079 0.48208 0.94835 0.0
H288 H 0.30732 0.48226 0.92547 0.0
H289 H 0.2651 0.49785 0.28671 0.0
H290 H 0.21375 0.48839 0.19914 0.0
H291 H 0.22698 0.49476 0.10563 0.0
H292 H 0.29482 0.47885 0.17448 0.0
H293 H 0.29555 0.48867 0.24785 0.0
H294 H 0.31148 0.49569 0.19281 0.0
H295 H 0.27556 0.52741 0.24644 0.0
H296 H 0.2861 0.53638 0.18197 0.0
H297 H 0.29926 0.52481 0.23883 0.0
H298 H 0.34734 0.52737 0.18754 0.0
C299 C 0.32379 0.5236 0.13412 0.0
C300 C 0.01539 0.25783 0.24268 0.0
C301 C 0.00991 0.23977 0.24482 0.0
C302 C 0.99905 0.23241 0.19937 0.0
C303 C 1.00292 0.25981 0.14335 0.0
C304 C 0.01171 0.26761 0.19107 0.0
C305 C 0.01783 0.28648 0.17812 0.0
H306 H 1.00275 0.35911 0.01846 0.0
C307 C 1.0048 0.27205 0.09248 0.0
C308 C 0.01318 0.28777 0.11231 0.0
H309 H 0.0262 0.35255 0.19445 0.0
H310 H 0.03102 0.32145 0.17566 0.0
H311 H 0.0371 0.32128 0.95471 0.0
H312 H 0.97951 0.31896 0.99772 0.0
H313 H 0.98718 0.31255 0.92449 0.0
H314 H 0.98748 0.33604 0.94638 0.0
H315 H 0.02237 0.33873 0.92607 0.0
H316 H 0.0207 0.31609 0.8975 0.0
C317 C 0.0387 0.2875 0.18838 0.0
C318 C 1.00626 0.29948 0.21756 0.0
C319 C 0.99746 0.24213 0.89619 0.0
C320 C 1.0075 0.24351 0.84378 0.0
C321 C 0.0169 0.26017 0.83372 0.0
C322 C 0.01599 0.27485 0.87586 0.0
C323 C 1.00612 0.27268 0.92951 0.0
C324 C 0.99826 0.25578 0.93919 0.0
C325 C 0.99573 0.25166 1.00335 0.0
C326 C 1.0023 0.26899 0.03124 0.0
C327 C 1.00713 0.28232 0.9891 0.0
C328 C 1.00825 0.23518 0.01964 0.0
C329 C 0.97515 0.24862 0.01433 0.0
C330 C 1.0089 0.35075 0.05251 0.0
C331 C 0.01348 0.35833 0.10971 0.0
C332 C 0.02212 0.34721 0.15146 0.0
C333 C 0.02476 0.32897 0.1407 0.0
C334 C 0.01857 0.32122 0.08763 0.0
C335 C 0.01223 0.33181 0.04169 0.0
C336 C 1.00902 0.3196 0.98632 0.0
C337 C 0.01196 0.30024 0.01137 0.0
C338 C 0.01632 0.30211 0.07218 0.0
C339 C 0.02315 0.32415 0.93831 0.0
C340 C 0.98963 0.32194 0.96231 0.0
H341 H 0.98759 0.23594 0.11451 0.0
H342 H 0.02328 0.26377 0.27844 0.0
H343 H 0.99528 0.2923 0.24226 0.0
H344 H 0.99904 0.30983 0.19072 0.0
H345 H 0.01467 0.30643 0.25164 0.0
H346 H 0.04533 0.27431 0.17841 0.0
H347 H 0.04192 0.29102 0.23528 0.0
H348 H 0.04552 0.29724 0.15823 0.0
H349 H 0.99125 0.2293 0.90827 0.0
H350 H 0.02525 0.26167 0.79437 0.0
H351 H 0.02405 0.28685 0.86838 0.0
H352 H 0.01898 0.23274 0.9857 0.0
H353 H 1.00035 0.22242 0.02389 0.0
H354 H 0.01628 0.23726 0.06064 0.0
H355 H 0.96678 0.25703 0.98368 0.0
H356 H 0.97087 0.25282 0.05952 0.0
H357 H 0.97132 0.23423 0.00701 0.0
H358 H 0.99416 0.21856 0.20206 0.0
C359 C 0.99529 0.24248 0.1487 0.0
C360 C 0.26282 0.02184 0.85895 0.0
C361 C 0.28028 0.01307 0.85669 0.0
C362 C 0.28369 0.99886 0.89712 0.0
C363 C 0.25668 1.00644 0.95119 0.0
C364 C 0.2505 0.0172 0.9061 0.0
C365 C 0.23099 0.02332 0.92234 0.0
H366 H 0.174 0.03523 0.16875 0.0
C367 C 0.24571 0.00939 1.00385 0.0
C368 C 0.22857 0.016 0.98687 0.0
H369 H 0.15369 1.00464 0.01991 0.0
H370 H 0.18403 1.00707 0.97036 0.0
H371 H 0.2002 1.00825 0.18173 0.0
H372 H 0.20575 0.06156 0.10742 0.0
H373 H 0.22572 0.05795 0.14822 0.0
H374 H 0.20404 0.05735 0.18593 0.0
H375 H 0.20276 0.02793 0.22785 0.0
H376 H 0.22191 0.01482 0.20285 0.0
C377 C 0.21726 0.01447 0.87995 0.0
C378 C 0.22951 0.04409 0.92023 0.0
C379 C 0.28475 0.02659 0.18012 0.0
C380 C 0.28055 0.034 0.23583 0.0
C381 C 0.26274 0.03925 0.24898 0.0
C382 C 0.24908 0.03684 0.2069 0.0
C383 C 0.25328 0.02853 0.1522 0.0
C384 C 0.27087 0.02365 0.13938 0.0
C385 C 0.27288 0.01525 0.07892 0.0
C386 C 0.25303 0.01459 0.05951 0.0
C387 C 0.24207 0.02323 0.10126 0.0
C388 C 0.28163 0.9962 0.08446 0.0
C389 C 0.2843 0.02845 0.04045 0.0
C390 C 0.17553 0.02979 0.12416 0.0
C391 C 0.16132 0.02012 0.09833 0.0
C392 C 0.16432 0.01253 0.04082 0.0
C393 C 0.18167 0.01401 0.01201 0.0
C394 C 0.19608 0.02298 0.04124 0.0
C395 C 0.19269 0.02995 0.09766 0.0
C396 C 0.20958 0.03283 0.13272 0.0
C397 C 0.22364 0.02624 0.08938 0.0
C398 C 0.21637 0.02209 0.03325 0.0
C399 C 0.20867 0.02054 0.18945 0.0
C400 C 0.21143 0.05344 0.14483 0.0
H401 H 0.27486 0.98475 0.97541 0.0
H402 H 0.25924 0.03211 0.82657 0.0
H403 H 0.23961 0.0504 0.95064 0.0
H404 H 0.21573 0.04849 0.93418 0.0
H405 H 0.23202 0.04918 0.87436 0.0
H406 H 0.21809 0.99945 0.8828 0.0
H407 H 0.22004 0.01858 0.83319 0.0
H408 H 0.20322 0.01867 0.89141 0.0
H409 H 0.29844 0.02226 0.16966 0.0
H410 H 0.25938 0.04484 0.29219 0.0
H411 H 0.23573 0.04098 0.2198 0.0
H412 H 0.28836 0.99397 0.12809 0.0
H413 H 0.2924 0.99419 0.05054 0.0
H414 H 0.27131 0.98529 0.07989 0.0
H415 H 0.27737 0.04177 0.03612 0.0
H416 H 0.28684 0.02326 0.9952 0.0
H417 H 0.29784 0.03078 0.06097 0.0
H418 H 0.29624 0.99125 0.89487 0.0
C419 C 0.27184 0.99541 0.94421 0.0
C420 C 0.50535 0.26555 0.85676 0.0
C421 C 0.51343 0.28338 0.85405 0.0
C422 C 0.52739 0.28755 0.89464 0.0
C423 C 0.52056 0.26066 0.94993 0.0
C424 C 0.51023 0.25371 0.90502 0.0
C425 C 0.5055 0.23378 0.92164 0.0
H426 H 0.50056 0.1773 0.17527 0.0
C427 C 0.51852 0.24967 1.00262 0.0
C428 C 0.51247 0.23222 0.98699 0.0
H429 H 0.51473 0.15451 0.00531 0.0
H430 H 0.51526 0.18565 0.96092 0.0
H431 H 0.53082 0.20397 0.16768 0.0
H432 H 0.47355 0.20593 0.13892 0.0
H433 H 0.4783 0.22772 0.16538 0.0
H434 H 0.48312 0.20827 0.21175 0.0
H435 H 0.51452 0.20426 0.22705 0.0
H436 H 0.52444 0.22481 0.198 0.0
C437 C 0.51586 0.22092 0.88014 0.0
C438 C 0.48494 0.23051 0.91786 0.0
C439 C 0.50242 0.28719 0.18305 0.0
C440 C 0.49996 0.28219 0.24255 0.0
C441 C 0.4983 0.26402 0.25883 0.0
C442 C 0.50022 0.25063 0.21595 0.0
C443 C 0.50419 0.25565 0.15684 0.0
C444 C 0.50527 0.27366 0.14109 0.0
C445 C 0.51158 0.27637 0.07808 0.0
C446 C 0.51459 0.25667 0.05953 0.0
C447 C 0.50902 0.24499 0.10434 0.0
C448 C 0.52916 0.28798 0.07755 0.0
C449 C 0.49601 0.28532 0.04251 0.0
C450 C 0.50318 0.1786 0.12789 0.0
C451 C 0.50699 0.16337 0.09407 0.0
C452 C 0.51133 0.16606 0.03276 0.0
C453 C 0.5114 0.18392 0.00688 0.0
C454 C 0.50723 0.19909 0.04278 0.0
C455 C 0.50387 0.19579 0.1027 0.0
C456 C 0.50315 0.21233 0.13931 0.0
C457 C 0.50694 0.22645 0.09308 0.0
C458 C 0.50866 0.21945 0.03489 0.0
C459 C 0.51888 0.21137 0.18585 0.0
C460 C 0.48364 0.21371 0.16564 0.0
H461 H 0.542 0.27932 0.9725 0.0
H462 H 0.49548 0.26133 0.82388 0.0
H463 H 0.47756 0.24015 0.94711 0.0
H464 H 0.48159 0.21648 0.93231 0.0
H465 H 0.48006 0.23236 0.87141 0.0
H466 H 0.53076 0.22257 0.88596 0.0
H467 H 0.51245 0.22384 0.83286 0.0
H468 H 0.51219 0.20663 0.88928 0.0
H469 H 0.50407 0.30133 0.17094 0.0
H470 H 0.49689 0.26019 0.30523 0.0
H471 H 0.49954 0.23697 0.2317 0.0
H472 H 0.53046 0.2969 0.11703 0.0
H473 H 0.52943 0.2974 0.03904 0.0
H474 H 0.54145 0.27927 0.07707 0.0
H475 H 0.48367 0.27661 0.04299 0.0
H476 H 0.49982 0.28774 0.99548 0.0
H477 H 0.49242 0.29867 0.06208 0.0
H478 H 0.53464 0.30031 0.89177 0.0
C479 C 0.53117 0.27606 0.94211 0.0
Ho480 Ho 0.02472 0.01019 0.71885 0.0
Ho481 Ho 0.9926 0.01405 0.62722 0.0
C482 C 1.00691 0.97349 0.6567 0.0
C483 C 0.04189 1.00169 0.8141 0.0
C484 C 0.0423 0.98385 0.84335 0.0
C485 C 0.02642 0.97642 0.86802 0.0
C486 C 0.02556 0.95808 0.88187 0.0
C487 C 0.04055 0.94685 0.87118 0.0
C488 C 0.05682 0.95442 0.85036 0.0
C489 C 0.05771 0.97282 0.8367 0.0
C490 C 0.03903 0.01495 0.60679 0.0
C491 C 0.01065 0.05075 0.68968 0.0
C492 C 0.97567 0.02113 0.53039 0.0
C493 C 0.97726 0.03781 0.49633 0.0
C494 C 0.99337 0.04787 0.50126 0.0
C495 C 0.99366 0.06593 0.48458 0.0
C496 C 0.97785 0.07414 0.46296 0.0
C497 C 0.96204 0.06391 0.45438 0.0
C498 C 0.96171 0.04573 0.47156 0.0
C499 C 0.97814 0.0098 0.73889 0.0
O500 O 0.01823 0.98066 0.69653 0.0
O501 O 0.9959 0.98364 0.62393 0.0
O502 O 0.04955 1.00199 0.76164 0.0
O503 O 0.02642 0.01043 0.81502 0.0
O504 O 0.04832 0.0137 0.65557 0.0
O505 O 0.02235 0.01439 0.62176 0.0
O506 O 0.99956 0.04365 0.64885 0.0
O507 O 0.02134 0.04056 0.72352 0.0
O508 O 0.96855 0.02367 0.58297 0.0
O509 O 0.9902 0.01089 0.53185 0.0
O510 O 0.9689 0.01094 0.68999 0.0
O511 O 0.99487 0.01005 0.72428 0.0
H512 H 0.01432 0.98447 0.87392 0.0
H513 H 0.01298 0.95256 0.89922 0.0
H514 H 0.06855 0.94597 0.84171 0.0
H515 H 0.07008 0.97819 0.81739 0.0
H516 H 1.00539 0.04217 0.52184 0.0
H517 H 1.00601 0.07371 0.49098 0.0
H518 H 0.94976 0.07022 0.4378 0.0
H519 H 0.94907 0.03824 0.46917 0.0
Ho520 Ho 0.51121 0.02684 0.71043 0.0
Ho521 Ho 0.50699 0.9984 0.63103 0.0
C522 C 0.54775 0.00882 0.65399 0.0
C523 C 0.52198 0.04809 0.79377 0.0
C524 C 0.53956 0.04783 0.82391 0.0
C525 C 0.54671 0.03134 0.84464 0.0
C526 C 0.56481 0.03022 0.86103 0.0
C527 C 0.57614 0.04545 0.856 0.0
C528 C 0.56883 0.06212 0.83803 0.0
C529 C 0.5506 0.0633 0.82214 0.0
C530 C 0.50439 0.03944 0.59787 0.0
C531 C 0.47036 0.01675 0.6883 0.0
C532 C 0.49634 0.97765 0.54607 0.0
C533 C 0.47888 0.9783 0.5155 0.0
C534 C 0.47073 0.99518 0.50423 0.0
C535 C 0.45289 0.99598 0.4848 0.0
C536 C 0.44303 0.97998 0.47687 0.0
C537 C 0.45111 0.9631 0.48671 0.0
C538 C 0.46908 0.96227 0.50603 0.0
C539 C 0.51409 0.98548 0.7428 0.0
O540 O 0.54059 0.01677 0.70132 0.0
O541 O 0.53688 1.00173 0.61378 0.0
O542 O 0.52285 0.05241 0.73754 0.0
O543 O 0.51145 0.03415 0.8035 0.0
O544 O 0.4967 0.04539 0.64584 0.0
O545 O 0.51508 0.0267 0.61186 0.0
O546 O 0.47742 1.00792 0.64239 0.0
O547 O 0.48132 0.02446 0.72693 0.0
O548 O 0.49531 0.973 0.60197 0.0
O549 O 0.5069 0.99163 0.53754 0.0
O550 O 0.52136 0.97949 0.69414 0.0
O551 O 0.50343 0.99842 0.72989 0.0
H552 H 0.5386 0.01907 0.84556 0.0
H553 H 0.57007 0.01728 0.87602 0.0
H554 H 0.57737 0.07402 0.83355 0.0
H555 H 0.54537 0.07602 0.8052 0.0
H556 H 0.47785 1.00778 0.51275 0.0
H557 H 0.44657 0.00909 0.47788 0.0
H558 H 0.44338 0.95071 0.48109 0.0
H559 H 0.47507 0.94921 0.51593 0.0
Ho560 Ho 0.49485 0.51363 0.7092 0.0
Ho561 Ho 0.52379 0.51113 0.63391 0.0
C562 C 0.51173 0.55143 0.65463 0.0
C563 C 0.473 0.52315 0.79229 0.0
C564 C 0.47253 0.54093 0.82047 0.0
C565 C 0.48894 0.54947 0.8359 0.0
C566 C 0.48923 0.56784 0.84834 0.0
C567 C 0.47319 0.57795 0.84496 0.0
C568 C 0.45664 0.56932 0.83274 0.0
C569 C 0.45632 0.55083 0.82041 0.0
C570 C 0.4829 0.50591 0.59661 0.0
C571 C 0.50683 0.47339 0.68859 0.0
C572 C 0.54561 0.50175 0.55052 0.0
C573 C 0.54544 0.48446 0.51942 0.0
C574 C 0.52871 0.47616 0.50652 0.0
C575 C 0.52811 0.45809 0.49011 0.0
C576 C 0.54419 0.44803 0.48701 0.0
C577 C 0.56098 0.45649 0.49697 0.0
C578 C 0.56159 0.47468 0.51332 0.0
C579 C 0.53566 0.51872 0.74672 0.0
O580 O 0.50205 0.54381 0.69769 0.0
O581 O 0.52108 0.54102 0.61858 0.0
O582 O 0.46845 0.52332 0.73619 0.0
O583 O 0.48758 0.5136 0.80234 0.0
O584 O 0.47733 0.498 0.64478 0.0
O585 O 0.49514 0.51733 0.61032 0.0
O586 O 0.51621 0.48095 0.64466 0.0
O587 O 0.49787 0.48388 0.72541 0.0
O588 O 0.5498 0.50049 0.60677 0.0
O589 O 0.53152 0.51206 0.54124 0.0
O590 O 0.54126 0.5267 0.69872 0.0
O591 O 0.52348 0.50729 0.73262 0.0
H592 H 0.50174 0.54226 0.83517 0.0
H593 H 0.50209 0.57423 0.85889 0.0
H594 H 0.44414 0.577 0.83001 0.0
H595 H 0.44365 0.54451 0.80735 0.0
H596 H 0.51598 0.48332 0.5121 0.0
H597 H 0.51504 0.45185 0.48156 0.0
H598 H 0.57351 0.44885 0.49488 0.0
H599 H 0.57453 0.48081 0.52442 0.0
Ho600 Ho 1.00726 0.49854 0.71378 0.0
Ho601 Ho 0.01178 0.52884 0.63217 0.0
C602 C 0.97091 0.51617 0.65237 0.0
C603 C 0.99844 0.48237 0.81069 0.0
C604 C 0.98008 0.48124 0.83484 0.0
C605 C 0.96875 0.49651 0.83145 0.0
C606 C 0.95034 0.49483 0.84233 0.0
C607 C 0.94297 0.47789 0.85684 0.0
C608 C 0.95428 0.46276 0.8631 0.0
C609 C 0.97283 0.46441 0.85157 0.0
C610 C 1.00879 0.48275 0.60363 0.0
C611 C 0.04837 0.50852 0.68604 0.0
C612 C 0.0233 0.55009 0.55012 0.0
C613 C 0.04106 0.54908 0.52104 0.0
C614 C 0.0473 0.5324 0.49898 0.0
C615 C 0.06552 0.53006 0.48553 0.0
C616 C 0.07784 0.5443 0.49446 0.0
C617 C 0.07152 0.56127 0.51338 0.0
C618 C 0.05319 0.56364 0.52657 0.0
C619 C 1.00466 0.54002 0.74546 0.0
O620 O 0.97772 0.5062 0.696 0.0
O621 O 0.98168 0.52557 0.61693 0.0
O622 O 1.00071 0.47373 0.76061 0.0
O623 O 1.00555 0.49859 0.80973 0.0
O624 O 1.00763 0.47418 0.65371 0.0
O625 O 0.00989 0.49969 0.61406 0.0
O626 O 0.04141 0.5204 0.64782 0.0
O627 O 0.03764 0.49813 0.71848 0.0
O628 O 0.02413 0.55422 0.60656 0.0
O629 O 0.01211 0.53669 0.53944 0.0
O630 O 0.99711 0.54655 0.69793 0.0
O631 O 0.01529 0.52729 0.72996 0.0
H632 H 0.97392 0.50964 0.81788 0.0
H633 H 0.94178 0.50672 0.83842 0.0
H634 H 0.94867 0.44964 0.87463 0.0
H635 H 0.98134 0.45246 0.85324 0.0
H636 H 0.03836 0.52083 0.49507 0.0
H637 H 0.07007 0.51694 0.46987 0.0
H638 H 0.08085 0.5724 0.52079 0.0
H639 H 0.04871 0.57648 0.54464 0.0
H640 H 0.1252 0.03059 0.08563 0.0
H641 H 0.10126 0.02961 0.16288 0.0
H642 H 0.13767 1.00145 0.28083 0.0
H643 H 0.16134 1.00225 0.2043 0.0
H644 H 0.08986 0.99226 0.25241 0.0
H645 H 0.11727 0.05554 0.35289 0.0
H646 H 0.11841 0.05153 0.27357 0.0
H647 H 0.13277 0.03897 0.32298 0.0
C648 C 0.12786 0.02364 0.12721 0.0
C649 C 0.14517 0.01619 0.13794 0.0
C650 C 0.11421 0.02323 0.17176 0.0
C651 C 0.11754 0.01544 0.2282 0.0
C652 C 0.13459 1.00746 0.23798 0.0
H653 H 0.07494 0.01822 0.58625 0.0
H654 H 0.09176 0.01836 0.49352 0.0
C655 C 0.14812 1.00783 0.19377 0.0
C656 C 0.1039 0.01651 0.27851 0.0
H657 H 0.09399 0.04059 0.40495 0.0
C658 C 0.09058 1.00296 0.28535 0.0
C659 C 0.10492 0.03024 0.32243 0.0
C660 C 0.11904 0.04499 0.3181 0.0
C661 C 0.07861 1.0026 0.33506 0.0
C662 C 0.07959 0.01639 0.37925 0.0
C663 C 0.09286 0.03004 0.3716 0.0
C664 C 0.06829 0.01622 0.43613 0.0
C665 C 0.06562 0.98691 0.34108 0.0
C666 C 0.04906 0.01513 0.43673 0.0
C667 C 0.03913 0.01498 0.49112 0.0
C668 C 0.04817 0.01604 0.54642 0.0
C669 C 0.0673 0.01739 0.54513 0.0
C670 C 0.07709 0.0175 0.4915 0.0
H671 H 0.06959 0.97532 0.31235 0.0
H672 H 0.0649 0.98213 0.38793 0.0
H673 H 0.05185 0.99135 0.32734 0.0
H674 H 0.04166 0.01453 0.39516 0.0
H675 H 0.02449 0.01388 0.48976 0.0
H676 H 0.47866 0.14846 0.15398 0.0
H677 H 0.47981 0.12631 0.23446 0.0
H678 H 0.53625 0.11631 0.19555 0.0
H679 H 0.53528 0.13953 0.11676 0.0
H680 H 0.48436 0.09321 0.2514 0.0
H681 H 0.54252 0.12537 0.36625 0.0
H682 H 0.53187 0.13557 0.30228 0.0
H683 H 0.54842 0.11781 0.293 0.0
C684 C 0.49122 0.14116 0.16131 0.0
C685 C 0.50678 0.14564 0.12762 0.0
C686 C 0.49194 0.12854 0.20818 0.0
C687 C 0.50825 0.11971 0.22333 0.0
C688 C 0.52357 0.12322 0.18702 0.0
H689 H 0.52864 0.03678 0.50377 0.0
H690 H 0.53019 0.05578 0.41347 0.0
C691 C 0.52291 0.13617 0.14041 0.0
C692 C 0.50887 0.10715 0.27714 0.0
H693 H 0.53208 0.0975 0.40648 0.0
C694 C 0.49486 0.09429 0.28506 0.0
C695 C 0.52235 0.10834 0.32253 0.0
C696 C 0.53702 0.12263 0.32106 0.0
C697 C 0.49401 0.08281 0.33556 0.0
C698 C 0.50761 0.08382 0.38008 0.0
C699 C 0.52173 0.09647 0.37229 0.0
C700 C 0.50692 0.07228 0.43573 0.0
C701 C 0.47851 0.06954 0.34098 0.0
C702 C 0.49344 0.07513 0.47911 0.0
C703 C 0.49261 0.06437 0.53092 0.0
C704 C 0.50514 0.05028 0.541 0.0
C705 C 0.51865 0.04737 0.49751 0.0
C706 C 0.5196 0.05832 0.44585 0.0
H707 H 0.47092 0.06805 0.2985 0.0
H708 H 0.48357 0.05603 0.35506 0.0
H709 H 0.46892 0.07439 0.37557 0.0
H710 H 0.48356 0.08584 0.4731 0.0
H711 H 0.48209 0.06713 0.56334 0.0
H712 H 0.38359 0.53201 0.11515 0.0
H713 H 0.40774 0.53036 0.19017 0.0
H714 H 0.38559 0.47979 0.2535 0.0
H715 H 0.36212 0.48113 0.17675 0.0
H716 H 0.40626 0.53279 0.30253 0.0
H717 H 0.43626 0.46529 0.2661 0.0
H718 H 0.42086 0.47529 0.21315 0.0
H719 H 0.41229 0.4635 0.27783 0.0
C720 C 0.3846 0.51996 0.14251 0.0
C721 C 0.37136 0.50621 0.13719 0.0
C722 C 0.39823 0.5192 0.18679 0.0
C723 C 0.39905 0.50477 0.22808 0.0
C724 C 0.38608 0.49079 0.22164 0.0
H725 H 0.45438 0.48377 0.56786 0.0
H726 H 0.43492 0.48422 0.47949 0.0
C727 C 0.3726 0.49144 0.17688 0.0
C728 C 0.41242 0.5051 0.28005 0.0
H729 H 0.44236 0.47899 0.36056 0.0
C730 C 0.41429 0.52103 0.31438 0.0
C731 C 0.4231 0.48988 0.29708 0.0
C732 C 0.42318 0.47261 0.2612 0.0
C733 C 0.4259 0.52201 0.36479 0.0
C734 C 0.43629 0.5067 0.38223 0.0
C735 C 0.4345 0.49081 0.34796 0.0
C736 C 0.44863 0.50664 0.43655 0.0
C737 C 0.42647 0.53936 0.40021 0.0
C738 C 0.46326 0.51891 0.44285 0.0
C739 C 0.47461 0.51861 0.49383 0.0
C740 C 0.47168 0.50602 0.54019 0.0
C741 C 0.45717 0.49367 0.5334 0.0
C742 C 0.44595 0.49392 0.48253 0.0
H743 H 0.41466 0.54821 0.39026 0.0
H744 H 0.42669 0.53648 0.44876 0.0
H745 H 0.439 0.54696 0.38877 0.0
H746 H 0.46605 0.52869 0.40804 0.0
H747 H 0.48558 0.52835 0.49714 0.0
H748 H 0.03651 0.38729 0.11865 0.0
H749 H 0.03467 0.4113 0.19411 0.0
H750 H 0.98057 0.39397 0.23903 0.0
H751 H 0.98236 0.37003 0.16328 0.0
H752 H 1.00158 0.4409 0.22666 0.0
H753 H 0.01895 0.38721 0.39117 0.0
H754 H 0.026 0.38566 0.31426 0.0
H755 H 1.00263 0.38234 0.33348 0.0
C756 C 0.02378 0.3893 0.14188 0.0
C757 C 1.0093 0.37705 0.13252 0.0
C758 C 0.02286 0.40288 0.1861 0.0
C759 C 1.0075 0.40459 0.22294 0.0
C760 C 0.99257 0.39315 0.21131 0.0
H761 H 0.99314 0.45023 0.57966 0.0
H762 H 0.99243 0.43303 0.48723 0.0
C763 C 0.99346 0.37962 0.16687 0.0
C764 C 1.00775 0.41691 0.27687 0.0
H765 H 0.01455 0.41652 0.42793 0.0
C766 C 1.0044 0.43559 0.27075 0.0
C767 C 0.01133 0.41015 0.33475 0.0
C768 C 0.01501 0.39027 0.34447 0.0
C769 C 1.0041 0.44748 0.32057 0.0
C770 C 1.00797 0.44079 0.37886 0.0
C771 C 0.01152 0.42203 0.3843 0.0
C772 C 1.00775 0.45249 0.43508 0.0
C773 C 0.99889 0.46696 0.30987 0.0
C774 C 0.0164 0.46964 0.43874 0.0
C775 C 0.01625 0.47994 0.49211 0.0
C776 C 1.00804 0.47316 0.54423 0.0
C777 C 0.99963 0.45601 0.54071 0.0
C778 C 0.99931 0.44601 0.48735 0.0
H779 H 0.99075 0.46847 0.26848 0.0
H780 H 0.99089 0.47249 0.34757 0.0
H781 H 0.01138 0.47521 0.30436 0.0
H782 H 0.02369 0.475 0.40082 0.0
H783 H 0.02311 0.49289 0.4931 0.0
H784 H 0.8867 0.98555 0.23578 0.0
H785 H 0.91123 0.98838 0.16269 0.0
H786 H 0.88419 0.03443 0.08484 0.0
H787 H 0.85999 0.03183 0.15915 0.0
H788 H 0.90998 0.98309 0.05013 0.0
H789 H 0.93392 0.05365 0.0731 0.0
H790 H 0.91923 0.04325 0.12761 0.0
H791 H 0.90992 0.05284 0.06031 0.0
C792 C 0.88655 0.99697 0.20539 0.0
C793 C 0.87165 0.00897 0.20557 0.0
C794 C 0.90046 0.99836 0.16239 0.0
C795 C 0.90002 0.01178 0.1176 0.0
C796 C 0.8855 0.02426 0.11932 0.0
H797 H 0.94231 0.01403 0.75982 0.0
H798 H 0.92559 0.01432 0.8532 0.0
C799 C 0.87161 0.02291 0.16261 0.0
C800 C 0.91371 0.01162 0.06673 0.0
H801 H 0.9417 0.03862 0.98153 0.0
C802 C 0.91706 0.99526 0.03611 0.0
C803 C 0.92326 0.02734 0.0472 0.0
C804 C 0.92155 0.04521 0.07918 0.0
C805 C 0.92895 0.99434 0.98655 0.0
C806 C 0.93795 0.01013 0.96604 0.0
C807 C 0.93496 0.02642 0.99703 0.0
C808 C 0.94901 0.0102 0.90927 0.0
C809 C 0.93162 0.97649 0.95524 0.0
C810 C 0.96807 1.00791 0.90859 0.0
C811 C 0.97794 1.00785 0.85416 0.0
C812 C 0.96894 0.00986 0.79915 0.0
C813 C 0.9499 0.01224 0.80072 0.0
C814 C 0.94018 0.01245 0.85449 0.0
H815 H 0.92473 0.96512 0.9786 0.0
H816 H 0.92619 0.97742 0.90922 0.0
H817 H 0.94635 0.97343 0.95182 0.0
H818 H 0.97533 1.00614 0.95014 0.0
H819 H 0.99249 1.00626 0.85518 0.0
H820 H 0.5345 0.86676 0.15989 0.0
H821 H 0.53421 0.88943 0.08027 0.0
H822 H 0.4888 0.91591 0.16342 0.0
H823 H 0.48872 0.89272 0.24303 0.0
H824 H 0.49429 0.899 0.01053 0.0
H825 H 0.53676 0.95373 0.10926 0.0
H826 H 0.54089 0.93018 0.12677 0.0
H827 H 0.52102 0.94111 0.15522 0.0
C828 C 0.52488 0.87782 0.16277 0.0
C829 C 0.512 0.87813 0.20949 0.0
C830 C 0.52455 0.89066 0.11643 0.0
C831 C 0.51149 0.90448 0.11527 0.0
C832 C 0.49909 0.90544 0.1631 0.0
H833 H 0.49997 0.99439 0.85361 0.0
H834 H 0.49846 0.97526 0.94368 0.0
C835 C 0.49925 0.89235 0.20941 0.0
C836 C 0.51055 0.91727 0.06274 0.0
H837 H 0.52651 0.95809 0.01086 0.0
C838 C 0.50123 0.91198 0.01085 0.0
C839 C 0.51966 0.93418 0.06238 0.0
C840 C 0.53022 0.94031 0.11615 0.0
C841 C 0.5008 0.92306 0.95921 0.0
C842 C 0.51016 0.93992 0.95846 0.0
C843 C 0.51927 0.94529 0.01078 0.0
C844 C 0.5111 0.95182 0.90344 0.0
C845 C 0.49011 0.91665 0.90592 0.0
C846 C 0.51895 0.94536 0.85041 0.0
C847 C 0.52002 0.95636 0.79919 0.0
C848 C 0.51318 0.97421 0.79885 0.0
C849 C 0.50536 0.98075 0.85193 0.0
C850 C 0.5045 0.96977 0.90362 0.0
H851 H 0.47986 0.90625 0.91846 0.0
H852 H 0.48306 0.92813 0.88383 0.0
H853 H 0.49952 0.91046 0.8732 0.0
H854 H 0.52445 0.93177 0.84865 0.0
H855 H 0.52613 0.95074 0.75944 0.0
H856 H 0.65246 0.54371 0.17615 0.0
H857 H 0.62965 0.5439 0.09668 0.0
H858 H 0.61127 0.49109 0.15232 0.0
H859 H 0.63432 0.49087 0.23181 0.0
H860 H 0.6278 0.51941 1.00211 0.0
H861 H 0.56288 0.51761 0.12704 0.0
H862 H 0.58409 0.52413 0.16134 0.0
H863 H 0.57917 0.50063 0.14788 0.0
C864 C 0.64299 0.53249 0.17334 0.0
C865 C 0.6448 0.51761 0.21256 0.0
C866 C 0.63009 0.53246 0.12694 0.0
C867 C 0.61838 0.51761 0.11805 0.0
C868 C 0.61972 0.50296 0.1584 0.0
H869 H 0.53408 0.49504 0.84335 0.0
H870 H 0.5541 0.49416 0.9312 0.0
C871 C 0.63282 0.50291 0.20463 0.0
C872 C 0.60577 0.51708 0.06448 0.0
H873 H 0.56097 0.51448 0.0225 0.0
C874 C 0.61318 0.51837 0.00679 0.0
C875 C 0.58662 0.51552 0.06952 0.0
C876 C 0.57762 0.51453 0.12969 0.0
C877 C 0.60221 0.51793 0.95486 0.0
C878 C 0.58295 0.51684 0.95977 0.0
C879 C 0.57558 0.51538 0.01762 0.0
C880 C 0.57032 0.51745 0.90594 0.0
C881 C 0.61164 0.51801 0.89519 0.0
C882 C 0.57211 0.53102 0.862 0.0
C883 C 0.56078 0.5314 0.81142 0.0
C884 C 0.54687 0.51848 0.80313 0.0
C885 C 0.54459 0.50523 0.84786 0.0
C886 C 0.55612 0.50473 0.89838 0.0
H887 H 0.62558 0.51237 0.89857 0.0
H888 H 0.60399 0.51002 0.86164 0.0
H889 H 0.6129 0.53218 0.87913 0.0
H890 H 0.5823 0.5415 0.86674 0.0
H891 H 0.56296 0.54192 0.77848 0.0
H892 H 0.99534 0.63299 0.24687 0.0
H893 H 0.9983 0.609 0.17166 0.0
H894 H 0.02739 0.64606 0.05773 0.0
H895 H 0.0252 0.66951 0.13404 0.0
H896 H 0.98444 0.60599 0.06916 0.0
H897 H 0.05801 0.60428 0.02383 0.0
H898 H 0.04882 0.61639 0.08661 0.0
H899 H 0.04926 0.62668 0.01367 0.0
C900 C 1.00331 0.63565 0.20729 0.0
C901 C 0.01088 0.653 0.19833 0.0
C902 C 1.00469 0.62199 0.16333 0.0
C903 C 0.01343 0.62524 0.10825 0.0
C904 C 0.02124 0.64255 0.09993 0.0
H905 H 0.98758 0.57192 0.77086 0.0
H906 H 0.99026 0.59122 0.85866 0.0
C907 C 0.02009 0.65608 0.14418 0.0
C908 C 0.01304 0.61123 0.05824 0.0
H909 H 0.03883 0.59094 0.94912 0.0
C910 C 0.99647 0.60267 0.04362 0.0
C911 C 0.02859 0.6064 0.02399 0.0
C912 C 0.04719 0.61378 0.03823 0.0
C913 C 0.99494 0.59014 0.99598 0.0
C914 C 0.01027 0.58599 0.96023 0.0
C915 C 0.02695 0.5941 0.97562 0.0
C916 C 1.00897 0.57382 0.90583 0.0
C917 C 0.97682 0.58124 0.98463 0.0
C918 C 0.01886 0.55748 0.9012 0.0
C919 C 0.01736 0.54624 0.85017 0.0
C920 C 1.00602 0.55109 0.80204 0.0
C921 C 0.9963 0.56749 0.80687 0.0
C922 C 0.99779 0.57864 0.85754 0.0
H923 H 0.96763 0.58239 0.02365 0.0
H924 H 0.97015 0.58791 0.94614 0.0
H925 H 0.9786 0.56667 0.97372 0.0
H926 H 0.02767 0.55333 0.93733 0.0
H927 H 0.02518 0.53384 0.84827 0.0
H928 H 0.03015 0.21006 0.231 0.0
H929 H 0.02842 0.18398 0.29667 0.0
H930 H 1.00222 0.21677 0.4307 0.0
H931 H 1.00303 0.24283 0.36284 0.0
H932 H 0.03331 0.17029 0.40535 0.0
H933 H 0.96065 0.18715 0.36208 0.0
H934 H 0.97905 0.19958 0.32852 0.0
H935 H 0.97304 0.2035 0.40511 0.0
C936 C 0.0248 0.21183 0.27561 0.0
C937 C 0.01611 0.22792 0.29196 0.0
C938 C 0.0239 0.19701 0.31316 0.0
C939 C 0.01453 0.19848 0.36721 0.0
C940 C 1.00903 0.21549 0.38816 0.0
H941 H 0.98595 0.09964 0.54413 0.0
H942 H 0.99312 0.13144 0.52302 0.0
C943 C 0.00959 0.23031 0.34988 0.0
C944 C 1.00682 0.18192 0.39222 0.0
H945 H 0.96681 0.15884 0.40384 0.0
C946 C 0.01878 0.16785 0.40632 0.0
C947 C 0.98781 0.17875 0.3904 0.0
C948 C 0.97436 0.19295 0.37022 0.0
C949 C 0.01225 0.15047 0.41775 0.0
C950 C 0.99332 0.14749 0.41723 0.0
C951 C 0.9813 0.16153 0.40438 0.0
C952 C 0.9859 0.1297 0.4305 0.0
C953 C 0.02559 0.13526 0.42787 0.0
C954 C 0.97886 0.11886 0.38484 0.0
C955 C 0.97486 0.10074 0.39628 0.0
C956 C 0.97796 0.09364 0.45325 0.0
C957 C 0.98362 0.10498 0.49978 0.0
C958 C 0.9876 0.12298 0.48822 0.0
H959 H 0.03967 0.13921 0.41562 0.0
H960 H 0.02548 0.13139 0.47563 0.0
H961 H 0.02166 0.12314 0.40149 0.0
H962 H 0.97753 0.1241 0.33995 0.0
H963 H 0.97054 0.09204 0.36008 0.0
H964 H 0.31458 0.0474 0.22812 0.0
H965 H 0.34004 0.0381 0.29056 0.0
H966 H 0.30311 0.01015 0.40862 0.0
H967 H 0.27762 0.01891 0.34498 0.0
H968 H 0.34968 0.04003 0.4101 0.0
H969 H 0.33425 0.96989 0.33295 0.0
H970 H 0.32349 0.98963 0.30144 0.0
H971 H 0.31633 0.98112 0.37266 0.0
C972 C 0.31192 0.03981 0.26855 0.0
C973 C 0.29438 0.03371 0.28201 0.0
C974 C 0.32636 0.03452 0.30398 0.0
C975 C 0.32326 0.02322 0.35311 0.0
C976 C 0.30556 0.01871 0.37022 0.0
H977 H 0.41526 0.98224 0.55382 0.0
H978 H 0.38397 0.99113 0.5294 0.0
C979 C 0.29109 0.0239 0.33446 0.0
C980 C 0.33875 0.01445 0.38114 0.0
H981 H 0.3606 0.97389 0.39033 0.0
C982 C 0.35197 0.02554 0.40711 0.0
C983 C 0.34168 0.9956 0.37485 0.0
C984 C 0.32829 0.98334 0.34353 0.0
C985 C 0.36841 0.01826 0.42613 0.0
C986 C 0.37127 0.99946 0.42012 0.0
C987 C 0.35795 0.98827 0.39546 0.0
C988 C 0.38877 0.99154 0.43439 0.0
C989 C 0.38305 0.03077 0.44902 0.0
C990 C 0.4012 0.98839 0.38844 0.0
C991 C 0.41887 0.98335 0.40221 0.0
C992 C 0.42396 0.98132 0.46182 0.0
C993 C 0.41125 0.98356 0.5076 0.0
C994 C 0.3936 0.98866 0.49385 0.0
H995 H 0.37869 0.04518 0.44944 0.0
H996 H 0.38693 0.02679 0.49484 0.0
H997 H 0.39535 0.02953 0.42074 0.0
H998 H 0.39748 0.99072 0.34236 0.0
H999 H 0.42876 0.98194 0.36681 0.0
H1000 H 0.53357 0.29054 0.27436 0.0
H1001 H 0.54294 0.31638 0.33505 0.0
H1002 H 0.48669 0.32922 0.36876 0.0
H1003 H 0.47725 0.30324 0.3072 0.0
H1004 H 0.51175 0.35543 0.30218 0.0
H1005 H 0.53805 0.32996 0.5197 0.0
H1006 H 0.54298 0.31729 0.45304 0.0
H1007 H 0.52007 0.31853 0.47957 0.0
C1008 C 0.52331 0.29858 0.29664 0.0
C1009 C 0.5048 0.29524 0.28741 0.0
C1010 C 0.52863 0.31314 0.33116 0.0
C1011 C 0.51542 0.32424 0.35661 0.0
C1012 C 0.49689 0.32038 0.34982 0.0
H1013 H 0.52144 0.4238 0.53857 0.0
H1014 H 0.51693 0.39225 0.50976 0.0
C1015 C 0.49154 0.30577 0.31504 0.0
C1016 C 0.521 0.34151 0.3809 0.0
H1017 H 0.54245 0.3611 0.49823 0.0
C1018 C 0.51837 0.3568 0.34515 0.0
C1019 C 0.52987 0.34276 0.4362 0.0
C1020 C 0.53292 0.32631 0.47476 0.0
C1021 C 0.52431 0.37373 0.36403 0.0
C1022 C 0.53316 0.37506 0.41961 0.0
C1023 C 0.53582 0.35973 0.45532 0.0
C1024 C 0.5382 0.39263 0.44331 0.0
C1025 C 0.52082 0.39008 0.32511 0.0
C1026 C 0.55201 0.40274 0.41627 0.0
C1027 C 0.55452 0.42075 0.4322 0.0
C1028 C 0.5432 0.4286 0.47518 0.0
C1029 C 0.53013 0.41802 0.50469 0.0
C1030 C 0.52765 0.40006 0.48879 0.0
H1031 H 0.51145 0.38696 0.28769 0.0
H1032 H 0.51494 0.4013 0.35178 0.0
H1033 H 0.53385 0.39493 0.30603 0.0
H1034 H 0.56021 0.39694 0.38107 0.0
H1035 H 0.56464 0.42874 0.40898 0.0
H1036 H 0.21362 0.46926 0.29678 0.0
H1037 H 0.1888 0.47916 0.36125 0.0
H1038 H 0.21574 0.53048 0.3878 0.0
H1039 H 0.2405 0.52074 0.32352 0.0
H1040 H 0.19321 0.51463 0.48999 0.0
H1041 H 0.16049 0.52128 0.26711 0.0
H1042 H 0.17062 0.49967 0.28338 0.0
H1043 H 0.18476 0.5194 0.27644 0.0
C1044 C 0.21469 0.4822 0.31931 0.0
C1045 C 0.22881 0.49426 0.30564 0.0
C1046 C 0.20054 0.48787 0.35554 0.0
C1047 C 0.2006 0.50553 0.37816 0.0
C1048 C 0.21572 0.51675 0.37067 0.0
H1049 H 0.1021 0.56608 0.43746 0.0
H1050 H 0.134 0.55931 0.41654 0.0
C1051 C 0.22989 0.5111 0.3345 0.0
C1052 C 0.18373 0.51342 0.39941 0.0
H1053 H 0.14225 0.52725 0.35108 0.0
C1054 C 0.18202 0.51745 0.45996 0.0
C1055 C 0.16961 0.51754 0.359 0.0
C1056 C 0.17142 0.51442 0.29274 0.0
C1057 C 0.16597 0.52496 0.48187 0.0
C1058 C 0.15152 0.52811 0.44206 0.0
C1059 C 0.1535 0.52468 0.38116 0.0
C1060 C 0.13364 0.53359 0.46292 0.0
C1061 C 0.1645 0.52967 0.54695 0.0
C1062 C 0.12325 0.52131 0.49598 0.0
C1063 C 0.10517 0.52506 0.50765 0.0
C1064 C 0.0973 0.54112 0.48611 0.0
C1065 C 0.10795 0.5537 0.45483 0.0
C1066 C 0.12607 0.54989 0.44297 0.0
H1067 H 0.1779 0.52929 0.56963 0.0
H1068 H 0.15854 0.54338 0.55232 0.0
H1069 H 0.15527 0.51992 0.56924 0.0
H1070 H 0.12891 0.50848 0.51049 0.0
H1071 H 0.09723 0.51523 0.53232 0.0
H1072 H 0.97792 0.79612 0.00978 0.0
H1073 H 0.9876 0.8215 0.94731 0.0
H1074 H 0.04352 0.81026 0.99131 0.0
H1075 H 0.03382 0.78459 0.05228 0.0
H1076 H 1.00473 0.84752 0.01615 0.0
H1077 H 0.04703 0.82922 0.82025 0.0
H1078 H 0.03169 0.81335 0.85548 0.0
H1079 H 0.05328 0.81836 0.88892 0.0
C1080 C 0.99229 0.79832 1.00229 0.0
C1081 C 1.00522 0.78846 0.03432 0.0
C1082 C 0.99781 0.81286 0.96734 0.0
C1083 C 0.01624 0.81759 0.96477 0.0
C1084 C 0.0293 0.8065 0.99168 0.0
H1085 H 0.06451 0.92394 0.92511 0.0
H1086 H 0.06027 0.89142 0.94378 0.0
C1087 C 0.02378 0.79183 0.02617 0.0
C1088 C 0.02123 0.83597 0.94646 0.0
H1089 H 0.04722 0.86034 0.84976 0.0
C1090 C 0.01388 0.85034 0.97939 0.0
C1091 C 0.03353 0.83941 0.89969 0.0
C1092 C 0.04177 0.82428 0.86369 0.0
C1093 C 0.01832 0.86823 0.96596 0.0
C1094 C 0.03029 0.87167 0.91836 0.0
C1095 C 0.03798 0.85739 0.88614 0.0
C1096 C 0.03411 0.89024 0.90019 0.0
C1097 C 0.01017 0.88338 1.00239 0.0
C1098 C 0.02087 0.89986 0.86882 0.0
C1099 C 0.02323 0.91823 0.85804 0.0
C1100 C 0.03881 0.92717 0.87909 0.0
C1101 C 0.05241 0.91729 0.90849 0.0
C1102 C 0.05005 0.89883 0.91903 0.0
H1103 H 1.00332 0.87829 0.04319 0.0
H1104 H 0.02084 0.89325 0.01557 0.0
H1105 H 1.00002 0.89074 0.97503 0.0
H1106 H 1.00847 0.89325 0.85449 0.0
H1107 H 0.01274 0.92551 0.83406 0.0
H1108 H 0.73433 0.02522 0.07394 0.0
H1109 H 0.7096 0.03872 0.01619 0.0
H1110 H 0.69393 0.98553 0.95446 0.0
H1111 H 0.71818 0.97197 0.01433 0.0
H1112 H 0.69496 0.03813 0.89875 0.0
H1113 H 0.65286 1.00189 0.06644 0.0
H1114 H 0.67719 1.00396 0.07305 0.0
H1115 H 0.66741 0.98715 0.02465 0.0
C1116 C 0.72604 0.01659 0.04585 0.0
C1117 C 0.72786 0.99769 0.04781 0.0
C1118 C 0.71199 0.02426 0.01321 0.0
C1119 C 0.69995 0.01298 0.98237 0.0
C1120 C 0.70312 0.99429 0.97884 0.0
H1121 H 0.59796 0.01792 0.82056 0.0
H1122 H 0.62943 0.01283 0.84937 0.0
C1123 C 0.71692 0.98659 0.01241 0.0
C1124 C 0.68255 0.02021 0.96279 0.0
H1125 H 0.63716 0.01589 0.98645 0.0
C1126 C 0.68228 0.0334 0.9179 0.0
C1127 C 0.66623 0.01428 0.98972 0.0
C1128 C 0.66589 1.00119 0.04158 0.0
C1129 C 0.66578 0.04016 0.89675 0.0
C1130 C 0.64955 0.03341 0.92134 0.0
C1131 C 0.64984 0.02079 0.96776 0.0
C1132 C 0.6319 0.03813 0.89713 0.0
C1133 C 0.66562 0.05401 0.84743 0.0
C1134 C 0.6232 0.05401 0.91524 0.0
C1135 C 0.60507 0.05676 0.9003 0.0
C1136 C 0.59566 0.04359 0.86731 0.0
C1137 C 0.60482 0.0281 0.84703 0.0
C1138 C 0.62279 0.02529 0.86256 0.0
H1139 H 0.67952 0.05772 0.83259 0.0
H1140 H 0.65791 0.04862 0.80885 0.0
H1141 H 0.65856 0.06643 0.86285 0.0
H1142 H 0.63016 0.0638 0.94305 0.0
H1143 H 0.59823 0.06874 0.91671 0.0
H1144 H 0.48341 0.73305 0.06394 0.0
H1145 H 0.47529 0.70649 0.00538 0.0
H1146 H 0.53212 0.69648 0.97027 0.0
H1147 H 0.5403 0.72286 0.03196 0.0
H1148 H 0.48115 0.69627 0.89199 0.0
H1149 H 0.5154 0.65089 0.05527 0.0
H1150 H 0.51192 0.6747 0.06902 0.0
H1151 H 0.5301 0.66736 0.02142 0.0
C1152 C 0.49407 0.72529 0.04258 0.0
C1153 C 0.51238 0.72962 0.05129 0.0
C1154 C 0.48947 0.71027 0.00938 0.0
C1155 C 0.50317 0.69964 0.98439 0.0
C1156 C 0.5215 0.70457 0.99027 0.0
H1157 H 0.49725 0.60107 0.79462 0.0
H1158 H 0.50196 0.63282 0.82047 0.0
C1159 C 0.52615 0.71952 0.02467 0.0
C1160 C 0.49805 0.68265 0.9565 0.0
H1161 H 0.50171 0.63701 0.97183 0.0
C1162 C 0.4857 0.68328 0.90901 0.0
C1163 C 0.5037 0.66591 0.98067 0.0
C1164 C 0.51586 0.6646 0.03477 0.0
C1165 C 0.47894 0.66735 0.88427 0.0
C1166 C 0.48502 0.65075 0.90728 0.0
C1167 C 0.4973 0.65005 0.95471 0.0
C1168 C 0.47935 0.63368 0.88177 0.0
C1169 C 0.46532 0.66816 0.83425 0.0
C1170 C 0.46481 0.62423 0.90713 0.0
C1171 C 0.46205 0.60615 0.89243 0.0
C1172 C 0.47403 0.59756 0.85307 0.0
C1173 C 0.48791 0.60749 0.82519 0.0
C1174 C 0.49055 0.62554 0.83949 0.0
H1175 H 0.46143 0.6823 0.82301 0.0
H1176 H 0.4711 0.6616 0.79404 0.0
H1177 H 0.45292 0.66048 0.84689 0.0
H1178 H 0.45632 0.63052 0.94064 0.0
H1179 H 0.45136 0.59863 0.9146 0.0
H1180 H 0.79883 0.5036 0.11127 0.0
H1181 H 0.82445 0.49142 0.05595 0.0
H1182 H 0.81346 0.5287 0.91181 0.0
H1183 H 0.78776 0.54134 0.96853 0.0
H1184 H 0.82645 0.47575 0.94469 0.0
H1185 H 0.86588 0.54001 0.96472 0.0
H1186 H 0.84553 0.53567 0.00706 0.0
H1187 H 0.84398 0.54199 0.92999 0.0
C1188 C 0.80196 0.50917 0.06774 0.0
C1189 C 0.79191 0.52357 0.04392 0.0
C1190 C 0.81637 0.50214 0.03621 0.0
C1191 C 0.82073 0.50937 0.98049 0.0
C1192 C 0.8102 0.52323 0.95529 0.0
H1193 H 0.91694 0.48845 0.77969 0.0
H1194 H 0.88482 0.4929 0.80315 0.0
C1195 C 0.79569 0.53036 0.98719 0.0
C1196 C 0.83707 0.50293 0.95128 0.0
H1197 H 0.88021 0.51551 0.91719 0.0
C1198 C 0.83817 0.48442 0.9377 0.0
C1199 C 0.85228 0.51438 0.94432 0.0
C1200 C 0.85202 0.53408 0.96272 0.0
C1201 C 0.85439 0.47694 0.91746 0.0
C1202 C 0.86946 0.48841 0.91006 0.0
C1203 C 0.86831 0.50696 0.92256 0.0
C1204 C 0.88698 0.48147 0.89143 0.0
C1205 C 0.85552 0.45691 0.90513 0.0
C1206 C 0.89824 0.47295 0.93313 0.0
C1207 C 0.91649 0.47032 0.91993 0.0
C1208 C 0.9234 0.47645 0.86537 0.0
C1209 C 0.91174 0.48373 0.82213 0.0
C1210 C 0.89354 0.48624 0.83524 0.0
H1211 H 0.842 0.45024 0.90686 0.0
H1212 H 0.86166 0.45455 0.86066 0.0
H1213 H 0.86446 0.45044 0.9388 0.0
H1214 H 0.89321 0.4695 0.97707 0.0
H1215 H 0.92541 0.46485 0.95381 0.0
H1216 H 0.98031 0.22073 0.80728 0.0
H1217 H 0.98266 0.18932 0.77512 0.0
H1218 H 0.04084 0.19479 0.76433 0.0
H1219 H 0.03852 0.2262 0.80052 0.0
H1220 H 0.99255 0.17079 0.6862 0.0
H1221 H 0.0407 0.15114 0.86436 0.0
H1222 H 0.03042 0.17327 0.86193 0.0
H1223 H 0.04947 0.16803 0.81466 0.0
C1224 C 0.99366 0.21541 0.79732 0.0
C1225 C 1.00921 0.22628 0.80708 0.0
C1226 C 0.99502 0.19722 0.77896 0.0
C1227 C 0.01198 0.189 0.76892 0.0
C1228 C 0.02753 0.20023 0.77394 0.0
H1229 H 0.04009 0.07319 0.70847 0.0
H1230 H 0.04056 0.10612 0.72278 0.0
C1231 C 0.02619 0.2185 0.79327 0.0
C1232 C 0.01297 0.16881 0.75432 0.0
H1233 H 0.03219 0.12837 0.79699 0.0
C1234 C 1.00129 0.16158 0.71061 0.0
C1235 C 0.02432 0.15637 0.78533 0.0
C1236 C 0.03682 0.16252 0.83454 0.0
C1237 C 1.00066 0.14282 0.69692 0.0
C1238 C 0.01174 0.13026 0.72868 0.0
C1239 C 0.02362 0.13755 0.77193 0.0
C1240 C 0.01136 0.10973 0.71809 0.0
C1241 C 0.98831 0.13699 0.64701 0.0
C1242 C 0.99493 0.1 0.71081 0.0
C1243 C 0.99477 0.08115 0.69963 0.0
C1244 C 0.01095 0.07103 0.69865 0.0
C1245 C 0.02734 0.08047 0.70848 0.0
C1246 C 0.02756 0.09946 0.71711 0.0
H1247 H 0.98642 0.14806 0.61403 0.0
H1248 H 0.99373 0.12494 0.62364 0.0
H1249 H 0.97472 0.13369 0.66538 0.0
H1250 H 0.98203 0.10686 0.71446 0.0
H1251 H 0.98184 0.07436 0.69367 0.0
H1252 H 0.29508 0.99485 0.76199 0.0
H1253 H 0.32631 0.99765 0.72439 0.0
H1254 H 0.33439 0.04478 0.83408 0.0
H1255 H 0.30308 0.04209 0.8712 0.0
H1256 H 0.34908 0.02898 0.67042 0.0
H1257 H 0.37233 1.00492 0.89228 0.0
H1258 H 0.34949 1.00112 0.86572 0.0
H1259 H 0.35616 0.02319 0.89116 0.0
C1260 C 0.30319 1.00636 0.77585 0.0
C1261 C 0.29617 0.0186 0.81827 0.0
C1262 C 0.32122 1.00781 0.75486 0.0
C1263 C 0.333 0.02134 0.77651 0.0
C1264 C 0.32575 0.03417 0.81647 0.0
H1265 H 0.45175 0.03415 0.77781 0.0
H1266 H 0.41906 0.03571 0.79513 0.0
C1267 C 0.30765 0.03282 0.837 0.0
C1268 C 0.35308 0.02107 0.76161 0.0
H1269 H 0.3949 0.01218 0.82248 0.0
C1270 C 0.35909 0.02532 0.70372 0.0
C1271 C 0.36636 0.01627 0.80456 0.0
C1272 C 0.3609 0.01098 0.86692 0.0
C1273 C 0.37781 0.02532 0.68829 0.0
C1274 C 0.39115 0.02036 0.73123 0.0
C1275 C 0.38501 0.01603 0.78904 0.0
C1276 C 0.41144 0.01981 0.71811 0.0
C1277 C 0.38306 0.03116 0.62631 0.0
C1278 C 0.41866 0.01026 0.66901 0.0
C1279 C 0.4376 0.00947 0.65856 0.0
C1280 C 0.45003 0.018 0.69732 0.0
C1281 C 0.44279 0.02744 0.74653 0.0
C1282 C 0.42392 0.02831 0.7567 0.0
H1283 H 0.37236 0.03965 0.60538 0.0
H1284 H 0.396 0.03891 0.62637 0.0
H1285 H 0.38482 0.01893 0.59834 0.0
H1286 H 0.40969 1.00304 0.63919 0.0
H1287 H 0.44249 1.00193 0.62048 0.0
H1288 H 0.48466 0.30611 0.87027 0.0
H1289 H 0.48199 0.33732 0.83316 0.0
H1290 H 0.52837 0.32888 0.7199 0.0
H1291 H 0.531 0.29772 0.75713 0.0
H1292 H 0.50815 0.36358 0.84935 0.0
H1293 H 0.49583 0.35717 0.60681 0.0
H1294 H 0.49221 0.33858 0.65789 0.0
H1295 H 0.51479 0.34434 0.63395 0.0
C1296 C 0.49366 0.31055 0.83496 0.0
C1297 C 0.50756 0.29894 0.81494 0.0
C1298 C 0.49235 0.32862 0.81445 0.0
C1299 C 0.50483 0.33575 0.77285 0.0
C1300 C 0.51821 0.32388 0.75065 0.0
H1301 H 0.52613 0.44632 0.63014 0.0
H1302 H 0.52585 0.4135 0.64989 0.0
C1303 C 0.5196 0.30586 0.77156 0.0
C1304 C 0.50498 0.35584 0.75768 0.0
H1305 H 0.50306 0.38656 0.6425 0.0
C1306 C 0.50688 0.36854 0.80405 0.0
C1307 C 0.50373 0.36264 0.69857 0.0
C1308 C 0.50138 0.35002 0.64638 0.0
C1309 C 0.50779 0.38745 0.79335 0.0
C1310 C 0.50604 0.39436 0.73437 0.0
C1311 C 0.50429 0.38163 0.68782 0.0
C1312 C 0.50586 0.41458 0.72051 0.0
C1313 C 0.51137 0.39973 0.84578 0.0
C1314 C 0.49444 0.42654 0.75195 0.0
C1315 C 0.49476 0.44536 0.74121 0.0
C1316 C 0.50622 0.45305 0.69753 0.0
C1317 C 0.51717 0.44107 0.66432 0.0
C1318 C 0.51698 0.42217 0.67562 0.0
H1319 H 0.51866 0.39246 0.88192 0.0
H1320 H 0.51955 0.41174 0.83276 0.0
H1321 H 0.49823 0.40442 0.86433 0.0
H1322 H 0.48514 0.42134 0.78516 0.0
H1323 H 0.48593 0.45392 0.7675 0.0
H1324 H 0.21565 0.47896 0.84713 0.0
H1325 H 0.18392 0.47887 0.81475 0.0
H1326 H 0.1937 0.52686 0.71041 0.0
H1327 H 0.22554 0.5274 0.7449 0.0
H1328 H 0.15973 0.51331 0.83504 0.0
H1329 H 0.16275 0.48778 0.60218 0.0
H1330 H 0.17763 0.47912 0.65946 0.0
H1331 H 0.18112 0.50149 0.63105 0.0
C1332 C 0.21134 0.48905 0.815 0.0
C1333 C 0.22356 0.50284 0.79714 0.0
C1334 C 0.193 0.48914 0.79727 0.0
C1335 C 0.1862 0.50281 0.7599 0.0
C1336 C 0.19853 0.51604 0.73892 0.0
H1337 H 0.07585 0.52577 0.62336 0.0
H1338 H 0.10878 0.52449 0.64092 0.0
C1339 C 0.2169 0.51617 0.75778 0.0
C1340 C 0.16607 0.50389 0.74694 0.0
H1341 H 0.13392 0.49596 0.63919 0.0
C1342 C 0.15413 0.50956 0.79212 0.0
C1343 C 0.15854 0.49883 0.69134 0.0
C1344 C 0.17053 0.49139 0.64288 0.0
C1345 C 0.13511 0.51058 0.78301 0.0
C1346 C 0.12751 0.50558 0.72718 0.0
C1347 C 0.13951 0.49994 0.6819 0.0
C1348 C 0.10723 0.50596 0.71541 0.0
C1349 C 0.12337 0.51735 0.83329 0.0
C1350 C 0.09505 0.49581 0.75058 0.0
C1351 C 0.07616 0.49648 0.74052 0.0
C1352 C 0.0687 0.50729 0.69472 0.0
C1353 C 0.08092 0.51725 0.65897 0.0
C1354 C 0.09986 0.51651 0.66895 0.0
H1355 H 0.13135 0.52532 0.86611 0.0
H1356 H 0.11212 0.52593 0.81634 0.0
H1357 H 0.11736 0.50558 0.85704 0.0
H1358 H 0.10015 0.48726 0.78604 0.0
H1359 H 0.06737 0.48859 0.76929 0.0
H1360 H 0.98184 0.79903 0.56114 0.0
H1361 H 0.98083 0.83071 0.59551 0.0
H1362 H 0.03821 0.83585 0.56272 0.0
H1363 H 0.03916 0.80437 0.52819 0.0
H1364 H 0.99887 0.85315 0.6825 0.0
H1365 H 0.01678 0.87473 0.45336 0.0
H1366 H 0.00987 0.85186 0.4708 0.0
H1367 H 0.0327 0.8592 0.4859 0.0
C1368 C 0.99441 0.80663 0.56404 0.0
C1369 C 0.01073 0.79877 0.54372 0.0
C1370 C 0.99377 0.82494 0.58286 0.0
C1371 C 1.00938 0.83605 0.58091 0.0
C1372 C 0.02586 0.82787 0.56405 0.0
H1373 H 0.0339 0.94876 0.68215 0.0
H1374 H 0.03396 0.91585 0.66515 0.0
C1375 C 0.0265 0.80963 0.54543 0.0
C1376 C 1.00834 0.85629 0.59238 0.0
H1377 H 0.01616 0.89777 0.52693 0.0
C1378 C 1.00264 0.86284 0.64832 0.0
C1379 C 0.013 0.86926 0.54798 0.0
C1380 C 0.01827 0.86349 0.48594 0.0
C1381 C 1.00204 0.88167 0.66118 0.0
C1382 C 1.00707 0.89452 0.61717 0.0
C1383 C 0.01242 0.88804 0.56104 0.0
C1384 C 1.00683 0.9147 0.62864 0.0
C1385 C 0.99602 0.88789 0.72189 0.0
C1386 C 0.99161 0.9253 0.61366 0.0
C1387 C 0.9916 0.94424 0.62281 0.0
C1388 C 1.00675 0.95318 0.64786 0.0
C1389 C 0.0219 0.94247 0.66332 0.0
C1390 C 0.02198 0.92357 0.65349 0.0
H1391 H 0.99334 0.87637 0.75258 0.0
H1392 H 1.00661 0.89674 0.74173 0.0
H1393 H 0.98348 0.8961 0.71752 0.0
H1394 H 0.97971 0.91891 0.59458 0.0
H1395 H 0.97962 0.95188 0.61056 0.0
H1396 H 0.72354 0.98218 0.57763 0.0
H1397 H 0.69187 0.9829 0.61255 0.0
H1398 H 0.6847 0.03502 0.52967 0.0
H1399 H 0.71636 0.03431 0.49484 0.0
H1400 H 0.66823 0.02494 0.66596 0.0
H1401 H 0.64818 0.98305 0.47088 0.0
H1402 H 0.66931 0.97852 0.50882 0.0
H1403 H 0.6668 0.99896 0.46659 0.0
C1404 C 0.7155 0.99421 0.56938 0.0
C1405 C 0.72291 1.00857 0.5356 0.0
C1406 C 0.69723 0.99447 0.58855 0.0
C1407 C 0.6857 0.00902 0.57396 0.0
C1408 C 0.69323 0.0237 0.54228 0.0
H1409 H 0.56663 0.01131 0.54909 0.0
H1410 H 0.59947 0.01178 0.53325 0.0
C1411 C 0.71151 0.02344 0.52315 0.0
C1412 C 0.66561 1.00837 0.58802 0.0
H1413 H 0.62511 0.99147 0.53695 0.0
C1414 C 0.65877 0.01764 0.63776 0.0
C1415 C 0.6531 0.99901 0.55126 0.0
C1416 C 0.65954 0.98929 0.49618 0.0
C1417 C 0.63993 0.01802 0.65127 0.0
C1418 C 0.62726 1.00832 0.6151 0.0
C1419 C 0.63434 0.99896 0.56537 0.0
C1420 C 0.60676 1.00816 0.62611 0.0
C1421 C 0.63402 0.0294 0.7034 0.0
C1422 C 0.59915 1.0058 0.6835 0.0
C1423 C 0.58017 1.00635 0.69288 0.0
C1424 C 0.56802 1.00828 0.64485 0.0
C1425 C 0.57549 0.00979 0.58729 0.0
C1426 C 0.59445 0.00999 0.5782 0.0
H1427 H 0.64387 0.04045 0.7126 0.0
H1428 H 0.62049 0.03558 0.696 0.0
H1429 H 0.63349 0.02066 0.74349 0.0
H1430 H 0.60783 1.00336 0.72146 0.0
H1431 H 0.57497 1.00485 0.73773 0.0
H1432 H 0.48379 0.72558 0.57679 0.0
H1433 H 0.48668 0.69459 0.61478 0.0
H1434 H 0.53756 0.68908 0.52197 0.0
H1435 H 0.53479 0.72025 0.48525 0.0
H1436 H 0.48545 0.66475 0.55549 0.0
H1437 H 0.5518 0.66349 0.66963 0.0
H1438 H 0.54098 0.68441 0.64819 0.0
H1439 H 0.5539 0.6716 0.59468 0.0
C1440 C 0.49613 0.71815 0.56737 0.0
C1441 C 0.50942 0.72592 0.52985 0.0
C1442 C 0.49762 0.70015 0.58814 0.0
C1443 C 0.51245 0.6891 0.57221 0.0
C1444 C 0.52618 0.69713 0.53693 0.0
H1445 H 0.53466 0.57181 0.58395 0.0
H1446 H 0.53472 0.60463 0.56685 0.0
C1447 C 0.52471 0.7152 0.51627 0.0
C1448 C 0.51263 0.66899 0.58802 0.0
H1449 H 0.53903 0.63461 0.64479 0.0
C1450 C 0.49716 0.65832 0.57564 0.0
C1451 C 0.5278 0.66013 0.61433 0.0
C1452 C 0.54448 0.67053 0.63306 0.0
C1453 C 0.49658 0.63942 0.5872 0.0
C1454 C 0.51183 0.63055 0.61253 0.0
C1455 C 0.52729 0.64116 0.6252 0.0
C1456 C 0.51206 0.61031 0.62509 0.0
C1457 C 0.47973 0.62897 0.5704 0.0
C1458 C 0.49952 0.60216 0.66441 0.0
C1459 C 0.49958 0.58325 0.67492 0.0
C1460 C 0.51209 0.57179 0.64603 0.0
C1461 C 0.52475 0.58001 0.60712 0.0
C1462 C 0.52483 0.59892 0.59727 0.0
H1463 H 0.471 0.63669 0.53902 0.0
H1464 H 0.48331 0.6158 0.54966 0.0
H1465 H 0.47168 0.62615 0.61114 0.0
H1466 H 0.48963 0.61046 0.68729 0.0
H1467 H 0.48961 0.57759 0.70515 0.0
H1468 H 0.79718 0.54541 0.57002 0.0
H1469 H 0.82831 0.54337 0.60779 0.0
H1470 H 0.83185 0.48862 0.54266 0.0
H1471 H 0.8009 0.49094 0.50288 0.0
H1472 H 0.85023 0.52406 0.68076 0.0
H1473 H 0.87207 0.51159 0.44872 0.0
H1474 H 0.84912 0.51781 0.46738 0.0
H1475 H 0.85653 0.49469 0.47535 0.0
C1476 C 0.80421 0.53256 0.56648 0.0
C1477 C 0.79613 0.5182 0.53424 0.0
C1478 C 0.82228 0.53152 0.58726 0.0
C1479 C 0.83298 0.51605 0.57664 0.0
C1480 C 0.82432 0.50099 0.55008 0.0
H1481 H 0.94854 0.48813 0.62083 0.0
H1482 H 0.91551 0.48851 0.6045 0.0
C1483 C 0.80627 0.50211 0.52875 0.0
C1484 C 0.85331 0.51621 0.58899 0.0
H1485 H 0.89485 0.50946 0.52267 0.0
C1486 C 0.85992 0.52085 0.646 0.0
C1487 C 0.86635 0.51245 0.5439 0.0
C1488 C 0.86072 0.50905 0.48026 0.0
C1489 C 0.87879 0.52123 0.65928 0.0
C1490 C 0.89172 0.51697 0.61448 0.0
C1491 C 0.88514 0.51253 0.5575 0.0
C1492 C 0.91206 0.5169 0.62553 0.0
C1493 C 0.88474 0.52592 0.72165 0.0
C1494 C 0.92155 0.53276 0.64201 0.0
C1495 C 0.9406 0.53262 0.65004 0.0
C1496 C 0.95069 0.51655 0.64295 0.0
C1497 C 0.94121 0.5007 0.62699 0.0
C1498 C 0.92226 0.50093 0.6176 0.0
H1499 H 0.87357 0.52403 0.75435 0.0
H1500 H 0.89651 0.51755 0.73557 0.0
H1501 H 0.88898 0.54035 0.7229 0.0
H1502 H 0.91426 0.54536 0.64784 0.0
H1503 H 0.94744 0.54506 0.66249 0.0
loop_
_geom_bond_atom_site_label_1
_geom_bond_atom_site_label_2
_geom_bond_distance
_geom_bond_site_symmetry_2
_ccdc_geom_bond_type
C0 C1 1.391 . S
C0 C4 1.391 . S
C0 H42 0.948 . S
C1 C0 1.391 . S
C1 C2 1.391 . S
C2 C1 1.391 . S
C2 H58 0.947 . S
C2 C59 1.392 . S
C3 C4 1.391 . S
C3 C7 1.397 . S
C3 C59 1.419 . S
C4 C0 1.391 . S
C4 C3 1.391 . S
C4 C5 1.399 . S
C5 C4 1.399 . S
C5 C8 1.396 . S
C5 C17 1.453 . S
C5 C18 1.684 . S
H6 C30 0.948 . S
C7 C3 1.397 . S
C7 C8 1.394 . S
C7 C26 1.723 . S
C8 C5 1.396 . S
C8 C7 1.394 . S
C8 C38 1.723 . S
H9 C32 0.947 . S
H10 C33 0.948 . S
H11 C39 0.982 . S
H12 C40 0.979 . S
H13 C40 0.980 . S
H14 C40 0.983 . S
H15 C39 0.979 . S
H16 C39 0.977 . S
C17 C5 1.453 . S
C17 H46 0.982 . S
C17 H47 0.979 . S
C17 H48 0.977 . S
C18 C5 1.684 . S
C18 H43 0.979 . S
C18 H44 0.980 . S
C18 H45 0.983 . S
C19 C20 1.391 . S
C19 C24 1.391 . S
C19 H49 0.948 . S
C20 C19 1.391 . S
C20 C21 1.391 . S
C21 C20 1.391 . S
C21 C22 1.392 . S
C21 H50 0.947 . S
C22 C21 1.392 . S
C22 C23 1.419 . S
C22 H51 0.948 . S
C23 C22 1.419 . S
C23 C24 1.391 . S
C23 C27 1.397 . S
C24 C19 1.391 . S
C24 C23 1.391 . S
C24 C25 1.399 . S
C25 C24 1.399 . S
C25 C26 1.396 . S
C25 C28 1.453 . S
C25 C29 1.684 . S
C26 C7 1.723 . S
C26 C25 1.396 . S
C26 C27 1.394 . S
C27 C23 1.397 . S
C27 C26 1.394 . S
C27 C37 1.723 . S
C28 C25 1.453 . S
C28 H52 0.982 . S
C28 H53 0.979 . S
C28 H54 0.977 . S
C29 C25 1.684 . S
C29 H55 0.979 . S
C29 H56 0.980 . S
C29 H57 0.983 . S
C30 H6 0.948 . S
C30 C31 1.391 . S
C30 C35 1.391 . S
C31 C30 1.391 . S
C31 C32 1.391 . S
C32 H9 0.947 . S
C32 C31 1.391 . S
C32 C33 1.392 . S
C33 H10 0.948 . S
C33 C32 1.392 . S
C33 C34 1.419 . S
C34 C33 1.419 . S
C34 C35 1.391 . S
C34 C38 1.397 . S
C35 C30 1.391 . S
C35 C34 1.391 . S
C35 C36 1.399 . S
C36 C35 1.399 . S
C36 C37 1.396 . S
C36 C39 1.453 . S
C36 C40 1.684 . S
C37 C27 1.723 . S
C37 C36 1.396 . S
C37 C38 1.394 . S
C38 C8 1.723 . S
C38 C34 1.397 . S
C38 C37 1.394 . S
C39 H11 0.982 . S
C39 H15 0.979 . S
C39 H16 0.977 . S
C39 C36 1.453 . S
C40 H12 0.979 . S
C40 H13 0.980 . S
C40 H14 0.983 . S
C40 C36 1.684 . S
H41 C59 0.948 . S
H42 C0 0.948 . S
H43 C18 0.979 . S
H44 C18 0.980 . S
H45 C18 0.983 . S
H46 C17 0.982 . S
H47 C17 0.979 . S
H48 C17 0.977 . S
H49 C19 0.948 . S
H50 C21 0.947 . S
H51 C22 0.948 . S
H52 C28 0.982 . S
H53 C28 0.979 . S
H54 C28 0.977 . S
H55 C29 0.979 . S
H56 C29 0.980 . S
H57 C29 0.983 . S
H58 C2 0.947 . S
C59 C2 1.392 . S
C59 C3 1.419 . S
C59 H41 0.948 . S
C60 C61 1.391 . S
C60 C64 1.391 . S
C60 H102 0.948 . S
C61 C60 1.391 . S
C61 C62 1.391 . S
C62 C61 1.391 . S
C62 H118 0.947 . S
C62 C119 1.392 . S
C63 C64 1.400 . S
C63 C67 1.395 1_655 S
C63 C119 1.426 . S
C64 C60 1.391 . S
C64 C63 1.400 . S
C64 C65 1.399 . S
C65 C64 1.399 . S
C65 C68 1.388 1_655 S
C65 C77 1.453 1_655 S
C65 C78 1.684 . S
H66 C90 0.948 . S
C67 C63 1.395 1_455 S
C67 C68 1.393 . S
C67 C86 1.722 . S
C68 C65 1.388 1_455 S
C68 C67 1.393 . S
C68 C98 1.722 . S
H69 C92 0.947 . S
H70 C93 0.948 . S
H71 C99 0.982 . S
H72 C100 0.979 . S
H73 C100 0.980 . S
H74 C100 0.983 . S
H75 C99 0.979 . S
H76 C99 0.977 . S
C77 C65 1.453 1_455 S
C77 H106 0.982 . S
C77 H107 0.979 . S
C77 H108 0.977 . S
C78 C65 1.684 . S
C78 H103 0.979 . S
C78 H104 0.980 . S
C78 H105 0.983 . S
C79 C80 1.391 . S
C79 C84 1.391 . S
C79 H109 0.948 . S
C80 C79 1.391 . S
C80 C81 1.391 . S
C81 C80 1.391 . S
C81 C82 1.392 . S
C81 H110 0.947 . S
C82 C81 1.392 . S
C82 C83 1.425 . S
C82 H111 0.948 . S
C83 C82 1.425 . S
C83 C84 1.400 . S
C83 C87 1.395 1_655 S
C84 C79 1.391 . S
C84 C83 1.400 . S
C84 C85 1.399 . S
C85 C84 1.399 . S
C85 C86 1.388 1_655 S
C85 C88 1.453 1_655 S
C85 C89 1.684 . S
C86 C67 1.722 . S
C86 C85 1.388 1_455 S
C86 C87 1.393 . S
C87 C83 1.395 1_455 S
C87 C86 1.393 . S
C87 C97 1.722 . S
C88 C85 1.453 1_455 S
C88 H112 0.982 . S
C88 H113 0.979 . S
C88 H114 0.977 . S
C89 C85 1.684 . S
C89 H115 0.979 . S
C89 H116 0.980 . S
C89 H117 0.983 . S
C90 H66 0.948 . S
C90 C91 1.391 . S
C90 C95 1.391 . S
C91 C90 1.391 . S
C91 C92 1.391 . S
C92 H69 0.947 . S
C92 C91 1.391 . S
C92 C93 1.392 . S
C93 H70 0.948 . S
C93 C92 1.392 . S
C93 C94 1.425 . S
C94 C93 1.425 . S
C94 C95 1.400 . S
C94 C98 1.395 1_655 S
C95 C90 1.391 . S
C95 C94 1.400 . S
C95 C96 1.399 . S
C96 C95 1.399 . S
C96 C97 1.389 1_655 S
C96 C99 1.453 1_655 S
C96 C100 1.684 . S
C97 C87 1.722 . S
C97 C96 1.389 1_455 S
C97 C98 1.393 . S
C98 C68 1.722 . S
C98 C94 1.395 1_455 S
C98 C97 1.393 . S
C99 H71 0.982 . S
C99 H75 0.979 . S
C99 H76 0.977 . S
C99 C96 1.453 1_455 S
C100 H72 0.979 . S
C100 H73 0.980 . S
C100 H74 0.983 . S
C100 C96 1.684 . S
H101 C119 0.948 . S
H102 C60 0.948 . S
H103 C78 0.979 . S
H104 C78 0.980 . S
H105 C78 0.983 . S
H106 C77 0.982 . S
H107 C77 0.979 . S
H108 C77 0.977 . S
H109 C79 0.948 . S
H110 C81 0.947 . S
H111 C82 0.948 . S
H112 C88 0.982 . S
H113 C88 0.979 . S
H114 C88 0.977 . S
H115 C89 0.979 . S
H116 C89 0.980 . S
H117 C89 0.983 . S
H118 C62 0.947 . S
C119 C62 1.392 . S
C119 C63 1.426 . S
C119 H101 0.948 . S
C120 C121 1.391 . S
C120 C124 1.391 . S
C120 H162 0.948 . S
C121 C120 1.391 . S
C121 C122 1.391 . S
C122 C121 1.391 . S
C122 H178 0.947 . S
C122 C179 1.392 . S
C123 C124 1.391 . S
C123 C127 1.397 . S
C123 C179 1.419 . S
C124 C120 1.391 . S
C124 C123 1.391 . S
C124 C125 1.399 . S
C125 C124 1.399 . S
C125 C128 1.396 . S
C125 C137 1.453 1_565 S
C125 C138 1.684 . S
H126 C150 0.948 . S
C127 C123 1.397 . S
C127 C128 1.394 . S
C127 C146 1.723 . S
C128 C125 1.396 . S
C128 C127 1.394 . S
C128 C158 1.723 . S
H129 C152 0.947 . S
H130 C153 0.948 . S
H131 C159 0.982 . S
H132 C160 0.979 . S
H133 C160 0.980 . S
H134 C160 0.983 . S
H135 C159 0.979 . S
H136 C159 0.977 . S
C137 C125 1.453 1_545 S
C137 H166 0.982 . S
C137 H167 0.979 . S
C137 H168 0.977 . S
C138 C125 1.684 . S
C138 H163 0.979 . S
C138 H164 0.980 . S
C138 H165 0.983 . S
C139 C140 1.391 . S
C139 C144 1.391 . S
C139 H169 0.948 . S
C140 C139 1.391 . S
C140 C141 1.391 . S
C141 C140 1.391 . S
C141 C142 1.392 . S
C141 H170 0.947 . S
C142 C141 1.392 . S
C142 C143 1.419 . S
C142 H171 0.948 . S
C143 C142 1.419 . S
C143 C144 1.391 . S
C143 C147 1.397 . S
C144 C139 1.391 . S
C144 C143 1.391 . S
C144 C145 1.399 . S
C145 C144 1.399 . S
C145 C146 1.396 . S
C145 C148 1.453 1_565 S
C145 C149 1.684 . S
C146 C127 1.723 . S
C146 C145 1.396 . S
C146 C147 1.394 . S
C147 C143 1.397 . S
C147 C146 1.394 . S
C147 C157 1.723 . S
C148 C145 1.453 1_545 S
C148 H172 0.982 . S
C148 H173 0.979 . S
C148 H174 0.977 . S
C149 C145 1.684 . S
C149 H175 0.979 . S
C149 H176 0.980 . S
C149 H177 0.983 . S
C150 H126 0.948 . S
C150 C151 1.391 . S
C150 C155 1.391 . S
C151 C150 1.391 . S
C151 C152 1.391 . S
C152 H129 0.947 . S
C152 C151 1.391 . S
C152 C153 1.392 . S
C153 H130 0.948 . S
C153 C152 1.392 . S
C153 C154 1.419 . S
C154 C153 1.419 . S
C154 C155 1.391 . S
C154 C158 1.397 . S
C155 C150 1.391 . S
C155 C154 1.391 . S
C155 C156 1.399 . S
C156 C155 1.399 . S
C156 C157 1.396 . S
C156 C159 1.453 1_565 S
C156 C160 1.684 . S
C157 C147 1.723 . S
C157 C156 1.396 . S
C157 C158 1.394 . S
C158 C128 1.723 . S
C158 C154 1.397 . S
C158 C157 1.394 . S
C159 H131 0.982 . S
C159 H135 0.979 . S
C159 H136 0.977 . S
C159 C156 1.453 1_545 S
C160 H132 0.979 . S
C160 H133 0.980 . S
C160 H134 0.983 . S
C160 C156 1.684 . S
H161 C179 0.948 . S
H162 C120 0.948 . S
H163 C138 0.979 . S
H164 C138 0.980 . S
H165 C138 0.983 . S
H166 C137 0.982 . S
H167 C137 0.979 . S
H168 C137 0.977 . S
H169 C139 0.948 . S
H170 C141 0.947 . S
H171 C142 0.948 . S
H172 C148 0.982 . S
H173 C148 0.979 . S
H174 C148 0.977 . S
H175 C149 0.979 . S
H176 C149 0.980 . S
H177 C149 0.983 . S
H178 C122 0.947 . S
C179 C122 1.392 . S
C179 C123 1.419 . S
C179 H161 0.948 . S
C180 C181 1.391 . S
C180 C184 1.391 . S
C180 H222 0.948 . S
C181 C180 1.391 . S
C181 C182 1.391 . S
C182 C181 1.391 . S
C182 H238 0.947 . S
C182 C239 1.392 . S
C183 C184 1.391 . S
C183 C187 1.397 . S
C183 C239 1.419 . S
C184 C180 1.391 . S
C184 C183 1.391 . S
C184 C185 1.399 . S
C185 C184 1.399 . S
C185 C188 1.396 . S
C185 C197 1.453 . S
C185 C198 1.684 . S
H186 C210 0.948 . S
C187 C183 1.397 . S
C187 C188 1.394 . S
C187 C206 1.723 . S
C188 C185 1.396 . S
C188 C187 1.394 . S
C188 C218 1.723 . S
H189 C212 0.947 . S
H190 C213 0.948 . S
H191 C219 0.982 . S
H192 C220 0.979 . S
H193 C220 0.980 . S
H194 C220 0.983 . S
H195 C219 0.979 . S
H196 C219 0.977 . S
C197 C185 1.453 . S
C197 H226 0.982 . S
C197 H227 0.979 . S
C197 H228 0.977 . S
C198 C185 1.684 . S
C198 H223 0.979 . S
C198 H224 0.980 . S
C198 H225 0.983 . S
C199 C200 1.391 . S
C199 C204 1.391 . S
C199 H229 0.948 . S
C200 C199 1.391 . S
C200 C201 1.391 . S
C201 C200 1.391 . S
C201 C202 1.392 . S
C201 H230 0.947 . S
C202 C201 1.392 . S
C202 C203 1.419 . S
C202 H231 0.948 . S
C203 C202 1.419 . S
C203 C204 1.391 . S
C203 C207 1.397 . S
C204 C199 1.391 . S
C204 C203 1.391 . S
C204 C205 1.399 . S
C205 C204 1.399 . S
C205 C206 1.396 . S
C205 C208 1.453 . S
C205 C209 1.684 . S
C206 C187 1.723 . S
C206 C205 1.396 . S
C206 C207 1.394 . S
C207 C203 1.397 . S
C207 C206 1.394 . S
C207 C217 1.723 . S
C208 C205 1.453 . S
C208 H232 0.982 . S
C208 H233 0.979 . S
C208 H234 0.977 . S
C209 C205 1.684 . S
C209 H235 0.979 . S
C209 H236 0.980 . S
C209 H237 0.983 . S
C210 H186 0.948 . S
C210 C211 1.391 . S
C210 C215 1.391 . S
C211 C210 1.391 . S
C211 C212 1.391 . S
C212 H189 0.947 . S
C212 C211 1.391 . S
C212 C213 1.392 . S
C213 H190 0.948 . S
C213 C212 1.392 . S
C213 C214 1.419 . S
C214 C213 1.419 . S
C214 C215 1.391 . S
C214 C218 1.397 . S
C215 C210 1.391 . S
C215 C214 1.391 . S
C215 C216 1.399 . S
C216 C215 1.399 . S
C216 C217 1.396 . S
C216 C219 1.453 . S
C216 C220 1.684 . S
C217 C207 1.723 . S
C217 C216 1.396 . S
C217 C218 1.394 . S
C218 C188 1.723 . S
C218 C214 1.397 . S
C218 C217 1.394 . S
C219 H191 0.982 . S
C219 H195 0.979 . S
C219 H196 0.977 . S
C219 C216 1.453 . S
C220 H192 0.979 . S
C220 H193 0.980 . S
C220 H194 0.983 . S
C220 C216 1.684 . S
H221 C239 0.948 . S
H222 C180 0.948 . S
H223 C198 0.979 . S
H224 C198 0.980 . S
H225 C198 0.983 . S
H226 C197 0.982 . S
H227 C197 0.979 . S
H228 C197 0.977 . S
H229 C199 0.948 . S
H230 C201 0.947 . S
H231 C202 0.948 . S
H232 C208 0.982 . S
H233 C208 0.979 . S
H234 C208 0.977 . S
H235 C209 0.979 . S
H236 C209 0.980 . S
H237 C209 0.983 . S
H238 C182 0.947 . S
C239 C182 1.392 . S
C239 C183 1.419 . S
C239 H221 0.948 . S
C240 C241 1.391 . S
C240 C244 1.391 . S
C240 H282 0.948 . S
C241 C240 1.391 . S
C241 C242 1.391 . S
C242 C241 1.391 . S
C242 H298 0.947 . S
C242 C299 1.392 . S
C243 C244 1.391 . S
C243 C247 1.397 . S
C243 C299 1.419 . S
C244 C240 1.391 . S
C244 C243 1.391 . S
C244 C245 1.399 1_554 S
C245 C244 1.399 1_556 S
C245 C248 1.398 . S
C245 C257 1.453 . S
C245 C258 1.684 . S
H246 C270 0.948 . S
C247 C243 1.397 . S
C247 C248 1.390 1_554 S
C247 C266 1.723 . S
C248 C245 1.398 . S
C248 C247 1.390 1_556 S
C248 C278 1.724 . S
H249 C272 0.947 . S
H250 C273 0.948 . S
H251 C279 0.982 . S
H252 C280 0.979 . S
H253 C280 0.980 1_554 S
H254 C280 0.983 . S
H255 C279 0.979 . S
H256 C279 0.977 1_554 S
C257 C245 1.453 . S
C257 H286 0.982 . S
C257 H287 0.979 . S
C257 H288 0.977 . S
C258 C245 1.684 . S
C258 H283 0.979 . S
C258 H284 0.980 . S
C258 H285 0.983 . S
C259 C260 1.391 . S
C259 C264 1.391 . S
C259 H289 0.948 . S
C260 C259 1.391 . S
C260 C261 1.391 . S
C261 C260 1.391 . S
C261 C262 1.392 . S
C261 H290 0.947 . S
C262 C261 1.392 . S
C262 C263 1.419 . S
C262 H291 0.948 . S
C263 C262 1.419 . S
C263 C264 1.391 . S
C263 C267 1.397 . S
C264 C259 1.391 . S
C264 C263 1.391 . S
C264 C265 1.399 . S
C265 C264 1.399 . S
C265 C266 1.396 . S
C265 C268 1.453 . S
C265 C269 1.684 . S
C266 C247 1.723 . S
C266 C265 1.396 . S
C266 C267 1.394 . S
C267 C263 1.397 . S
C267 C266 1.394 . S
C267 C277 1.723 . S
C268 C265 1.453 . S
C268 H292 0.982 . S
C268 H293 0.979 . S
C268 H294 0.977 . S
C269 C265 1.684 . S
C269 H295 0.979 . S
C269 H296 0.980 . S
C269 H297 0.983 . S
C270 H246 0.948 . S
C270 C271 1.391 . S
C270 C275 1.391 . S
C271 C270 1.391 . S
C271 C272 1.391 . S
C272 H249 0.947 . S
C272 C271 1.391 . S
C272 C273 1.392 . S
C273 H250 0.948 . S
C273 C272 1.392 . S
C273 C274 1.419 . S
C274 C273 1.419 . S
C274 C275 1.391 . S
C274 C278 1.397 . S
C275 C270 1.391 . S
C275 C274 1.391 . S
C275 C276 1.399 . S
C276 C275 1.399 . S
C276 C277 1.396 1_556 S
C276 C279 1.453 . S
C276 C280 1.684 . S
C277 C267 1.723 . S
C277 C276 1.396 1_554 S
C277 C278 1.394 1_554 S
C278 C248 1.724 . S
C278 C274 1.397 . S
C278 C277 1.394 1_556 S
C279 H251 0.982 . S
C279 H255 0.979 . S
C279 H256 0.977 1_556 S
C279 C276 1.453 . S
C280 H252 0.979 . S
C280 H253 0.980 1_556 S
C280 H254 0.983 . S
C280 C276 1.684 . S
H281 C299 0.948 . S
H282 C240 0.948 . S
H283 C258 0.979 . S
H284 C258 0.980 . S
H285 C258 0.983 . S
H286 C257 0.982 . S
H287 C257 0.979 . S
H288 C257 0.977 . S
H289 C259 0.948 . S
H290 C261 0.947 . S
H291 C262 0.948 . S
H292 C268 0.982 . S
H293 C268 0.979 . S
H294 C268 0.977 . S
H295 C269 0.979 . S
H296 C269 0.980 . S
H297 C269 0.983 . S
H298 C242 0.947 . S
C299 C242 1.392 . S
C299 C243 1.419 . S
C299 H281 0.948 . S
C300 C301 1.391 . S
C300 C304 1.391 . S
C300 H342 0.948 . S
C301 C300 1.391 . S
C301 C302 1.391 . S
C302 C301 1.391 . S
C302 H358 0.947 . S
C302 C359 1.392 . S
C303 C304 1.398 . S
C303 C307 1.395 1_655 S
C303 C359 1.423 . S
C304 C300 1.391 . S
C304 C303 1.398 . S
C304 C305 1.399 . S
C305 C304 1.399 . S
C305 C308 1.396 1_655 S
C305 C317 1.453 1_655 S
C305 C318 1.684 . S
H306 C330 0.948 . S
C307 C303 1.395 1_455 S
C307 C308 1.395 . S
C307 C326 1.723 . S
C308 C305 1.396 1_455 S
C308 C307 1.395 . S
C308 C338 1.723 . S
H309 C332 0.947 . S
H310 C333 0.948 . S
H311 C339 0.982 . S
H312 C340 0.979 . S
H313 C340 0.980 . S
H314 C340 0.983 . S
H315 C339 0.979 . S
H316 C339 0.977 . S
C317 C305 1.453 1_455 S
C317 H346 0.982 . S
C317 H347 0.979 . S
C317 H348 0.977 . S
C318 C305 1.684 . S
C318 H343 0.979 . S
C318 H344 0.980 . S
C318 H345 0.983 . S
C319 C320 1.391 . S
C319 C324 1.391 . S
C319 H349 0.948 . S
C320 C319 1.391 . S
C320 C321 1.391 . S
C321 C320 1.391 . S
C321 C322 1.392 . S
C321 H350 0.947 . S
C322 C321 1.392 . S
C322 C323 1.424 . S
C322 H351 0.948 . S
C323 C322 1.424 . S
C323 C324 1.397 . S
C323 C327 1.395 1_655 S
C324 C319 1.391 . S
C324 C323 1.397 . S
C324 C325 1.399 . S
C325 C324 1.399 . S
C325 C326 1.396 1_656 S
C325 C328 1.453 1_655 S
C325 C329 1.684 . S
C326 C307 1.723 . S
C326 C325 1.396 1_454 S
C326 C327 1.395 1_554 S
C327 C323 1.395 1_455 S
C327 C326 1.395 1_556 S
C327 C337 1.726 . S
C328 C325 1.453 1_455 S
C328 H352 0.982 . S
C328 H353 0.979 . S
C328 H354 0.977 1_556 S
C329 C325 1.684 . S
C329 H355 0.979 . S
C329 H356 0.980 1_556 S
C329 H357 0.983 . S
C330 H306 0.948 . S
C330 C331 1.391 . S
C330 C335 1.391 . S
C331 C330 1.391 . S
C331 C332 1.391 . S
C332 H309 0.947 . S
C332 C331 1.391 . S
C332 C333 1.392 . S
C333 H310 0.948 . S
C333 C332 1.392 . S
C333 C334 1.424 . S
C334 C333 1.424 . S
C334 C335 1.398 . S
C334 C338 1.395 1_655 S
C335 C330 1.391 . S
C335 C334 1.398 . S
C335 C336 1.399 1_554 S
C336 C335 1.399 1_556 S
C336 C337 1.398 1_655 S
C336 C339 1.453 1_655 S
C336 C340 1.684 . S
C337 C327 1.726 . S
C337 C336 1.398 1_455 S
C337 C338 1.388 1_556 S
C338 C308 1.723 . S
C338 C334 1.395 1_455 S
C338 C337 1.388 1_554 S
C339 H311 0.982 . S
C339 H315 0.979 . S
C339 H316 0.977 . S
C339 C336 1.453 1_455 S
C340 H312 0.979 . S
C340 H313 0.980 . S
C340 H314 0.983 . S
C340 C336 1.684 . S
H341 C359 0.948 . S
H342 C300 0.948 . S
H343 C318 0.979 . S
H344 C318 0.980 . S
H345 C318 0.983 . S
H346 C317 0.982 . S
H347 C317 0.979 . S
H348 C317 0.977 . S
H349 C319 0.948 . S
H350 C321 0.947 . S
H351 C322 0.948 . S
H352 C328 0.982 . S
H353 C328 0.979 . S
H354 C328 0.977 1_554 S
H355 C329 0.979 . S
H356 C329 0.980 1_554 S
H357 C329 0.983 . S
H358 C302 0.947 . S
C359 C302 1.392 . S
C359 C303 1.423 . S
C359 H341 0.948 . S
C360 C361 1.391 . S
C360 C364 1.391 . S
C360 H402 0.948 . S
C361 C360 1.391 . S
C361 C362 1.391 . S
C362 C361 1.391 . S
C362 H418 0.947 . S
C362 C419 1.392 . S
C363 C364 1.391 . S
C363 C367 1.397 . S
C363 C419 1.419 . S
C364 C360 1.391 . S
C364 C363 1.391 . S
C364 C365 1.399 . S
C365 C364 1.399 . S
C365 C368 1.396 . S
C365 C377 1.445 1_545 S
C365 C378 1.684 . S
H366 C390 0.948 . S
C367 C363 1.397 . S
C367 C368 1.394 . S
C367 C386 1.723 1_556 S
C368 C365 1.396 . S
C368 C367 1.394 . S
C368 C398 1.723 1_556 S
H369 C392 0.947 1_556 S
H370 C393 0.932 1_556 S
H371 C399 0.991 . S
H372 C400 0.979 . S
H373 C400 0.980 . S
H374 C400 0.983 . S
H375 C399 0.978 1_545 S
H376 C399 0.973 1_545 S
C377 C365 1.445 1_565 S
C377 H406 0.991 . S
C377 H407 0.978 1_565 S
C377 H408 0.973 1_565 S
C378 C365 1.684 . S
C378 H403 0.979 . S
C378 H404 0.980 . S
C378 H405 0.983 . S
C379 C380 1.391 . S
C379 C384 1.391 . S
C379 H409 0.948 . S
C380 C379 1.391 . S
C380 C381 1.391 . S
C381 C380 1.391 . S
C381 C382 1.392 . S
C381 H410 0.947 . S
C382 C381 1.392 . S
C382 C383 1.419 . S
C382 H411 0.948 . S
C383 C382 1.419 . S
C383 C384 1.391 . S
C383 C387 1.397 . S
C384 C379 1.391 . S
C384 C383 1.391 . S
C384 C385 1.399 . S
C385 C384 1.399 . S
C385 C386 1.396 . S
C385 C388 1.445 1_545 S
C385 C389 1.684 . S
C386 C367 1.723 1_554 S
C386 C385 1.396 . S
C386 C387 1.394 . S
C387 C383 1.397 . S
C387 C386 1.394 . S
C387 C397 1.723 . S
C388 C385 1.445 1_565 S
C388 H412 0.991 . S
C388 H413 0.978 1_565 S
C388 H414 0.973 1_564 S
C389 C385 1.684 . S
C389 H415 0.979 . S
C389 H416 0.980 1_554 S
C389 H417 0.983 . S
C390 H366 0.948 . S
C390 C391 1.391 . S
C390 C395 1.391 . S
C391 C390 1.391 . S
C391 C392 1.391 . S
C392 H369 0.947 1_554 S
C392 C391 1.391 . S
C392 C393 1.397 . S
C393 H370 0.932 1_554 S
C393 C392 1.397 . S
C393 C394 1.430 . S
C394 C393 1.430 . S
C394 C395 1.391 . S
C394 C398 1.397 . S
C395 C390 1.391 . S
C395 C394 1.391 . S
C395 C396 1.399 . S
C396 C395 1.399 . S
C396 C397 1.396 . S
C396 C399 1.445 1_545 S
C396 C400 1.684 . S
C397 C387 1.723 . S
C397 C396 1.396 . S
C397 C398 1.394 . S
C398 C368 1.723 1_554 S
C398 C394 1.397 . S
C398 C397 1.394 . S
C399 H371 0.991 . S
C399 H375 0.978 1_565 S
C399 H376 0.973 1_565 S
C399 C396 1.445 1_565 S
C400 H372 0.979 . S
C400 H373 0.980 . S
C400 H374 0.983 . S
C400 C396 1.684 . S
H401 C419 0.948 . S
H402 C360 0.948 . S
H403 C378 0.979 . S
H404 C378 0.980 . S
H405 C378 0.983 . S
H406 C377 0.991 . S
H407 C377 0.978 1_545 S
H408 C377 0.973 1_545 S
H409 C379 0.948 . S
H410 C381 0.947 . S
H411 C382 0.948 . S
H412 C388 0.991 . S
H413 C388 0.978 1_545 S
H414 C388 0.973 1_546 S
H415 C389 0.979 . S
H416 C389 0.980 1_556 S
H417 C389 0.983 . S
H418 C362 0.947 . S
C419 C362 1.392 . S
C419 C363 1.419 . S
C419 H401 0.948 . S
C420 C421 1.391 . S
C420 C424 1.391 . S
C420 H462 0.948 . S
C421 C420 1.391 . S
C421 C422 1.391 . S
C422 C421 1.391 . S
C422 H478 0.947 . S
C422 C479 1.392 . S
C423 C424 1.391 . S
C423 C427 1.397 . S
C423 C479 1.419 . S
C424 C420 1.391 . S
C424 C423 1.391 . S
C424 C425 1.399 . S
C425 C424 1.399 . S
C425 C428 1.396 . S
C425 C437 1.453 . S
C425 C438 1.684 . S
H426 C450 0.948 . S
C427 C423 1.397 . S
C427 C428 1.394 . S
C427 C446 1.723 1_556 S
C428 C425 1.396 . S
C428 C427 1.394 . S
C428 C458 1.723 1_556 S
H429 C452 0.947 1_556 S
H430 C453 0.945 1_556 S
H431 C459 0.982 . S
H432 C460 0.979 . S
H433 C460 0.980 . S
H434 C460 0.983 . S
H435 C459 0.979 . S
H436 C459 0.977 . S
C437 C425 1.453 . S
C437 H466 0.982 . S
C437 H467 0.979 . S
C437 H468 0.977 . S
C438 C425 1.684 . S
C438 H463 0.979 . S
C438 H464 0.980 . S
C438 H465 0.983 . S
C439 C440 1.391 . S
C439 C444 1.391 . S
C439 H469 0.948 . S
C440 C439 1.391 . S
C440 C441 1.391 . S
C441 C440 1.391 . S
C441 C442 1.392 . S
C441 H470 0.947 . S
C442 C441 1.392 . S
C442 C443 1.419 . S
C442 H471 0.948 . S
C443 C442 1.419 . S
C443 C444 1.391 . S
C443 C447 1.397 . S
C444 C439 1.391 . S
C444 C443 1.391 . S
C444 C445 1.399 . S
C445 C444 1.399 . S
C445 C446 1.396 . S
C445 C448 1.453 . S
C445 C449 1.684 . S
C446 C427 1.723 1_554 S
C446 C445 1.396 . S
C446 C447 1.394 . S
C447 C443 1.397 . S
C447 C446 1.394 . S
C447 C457 1.723 . S
C448 C445 1.453 . S
C448 H472 0.982 . S
C448 H473 0.979 . S
C448 H474 0.977 1_554 S
C449 C445 1.684 . S
C449 H475 0.979 . S
C449 H476 0.980 1_554 S
C449 H477 0.983 . S
C450 H426 0.948 . S
C450 C451 1.391 . S
C450 C455 1.391 . S
C451 C450 1.391 . S
C451 C452 1.391 . S
C452 H429 0.947 1_554 S
C452 C451 1.391 . S
C452 C453 1.393 . S
C453 H430 0.945 1_554 S
C453 C452 1.393 . S
C453 C454 1.421 . S
C454 C453 1.421 . S
C454 C455 1.391 . S
C454 C458 1.397 . S
C455 C450 1.391 . S
C455 C454 1.391 . S
C455 C456 1.399 . S
C456 C455 1.399 . S
C456 C457 1.396 . S
C456 C459 1.453 . S
C456 C460 1.684 . S
C457 C447 1.723 . S
C457 C456 1.396 . S
C457 C458 1.394 . S
C458 C428 1.723 1_554 S
C458 C454 1.397 . S
C458 C457 1.394 . S
C459 H431 0.982 . S
C459 H435 0.979 . S
C459 H436 0.977 . S
C459 C456 1.453 . S
C460 H432 0.979 . S
C460 H433 0.980 . S
C460 H434 0.983 . S
C460 C456 1.684 . S
H461 C479 0.948 . S
H462 C420 0.948 . S
H463 C438 0.979 . S
H464 C438 0.980 . S
H465 C438 0.983 . S
H466 C437 0.982 . S
H467 C437 0.979 . S
H468 C437 0.977 . S
H469 C439 0.948 . S
H470 C441 0.947 . S
H471 C442 0.948 . S
H472 C448 0.982 . S
H473 C448 0.979 . S
H474 C448 0.977 1_556 S
H475 C449 0.979 . S
H476 C449 0.980 1_556 S
H477 C449 0.983 . S
H478 C422 0.947 . S
C479 C422 1.392 . S
C479 C423 1.419 . S
C479 H461 0.948 . S
Ho480 C483 2.811 . S
Ho480 O500 2.322 . S
Ho480 O502 2.378 . S
Ho480 O503 2.542 . S
Ho480 O504 2.381 . S
Ho480 O505 2.669 1_565 S
Ho480 O507 2.346 1_565 S
Ho480 O511 2.305 1_455 S
Ho481 C492 2.811 . S
Ho481 O501 2.346 1_545 S
Ho481 O505 2.305 1_655 S
Ho481 O506 2.322 . S
Ho481 O508 2.378 . S
Ho481 O509 2.536 . S
Ho481 O510 2.381 . S
Ho481 O511 2.669 1_545 S
C482 O500 1.259 1_655 S
C482 O501 1.268 . S
C483 Ho480 2.811 . S
C483 C484 1.488 . S
C483 O502 1.215 . S
C483 O503 1.333 . S
C484 C483 1.488 . S
C484 C485 1.348 . S
C484 C489 1.413 . S
C485 C484 1.348 . S
C485 C486 1.442 . S
C485 H512 0.930 1_455 S
C486 C485 1.442 . S
C486 C487 1.381 . S
C486 H513 0.931 1_455 S
C487 C486 1.381 . S
C487 C488 1.321 . S
C488 C487 1.321 . S
C488 C489 1.403 . S
C488 H514 0.934 . S
C489 C484 1.413 . S
C489 C488 1.403 . S
C489 H515 0.930 . S
C490 O504 1.275 1_545 S
C490 O505 1.256 . S
C491 O506 1.259 1_455 S
C491 O507 1.268 . S
C492 Ho481 2.811 . S
C492 C493 1.488 . S
C492 O508 1.215 . S
C492 O509 1.319 . S
C493 C492 1.488 . S
C493 C494 1.348 . S
C493 C498 1.413 . S
C494 C493 1.348 . S
C494 C495 1.442 . S
C494 H516 0.930 1_655 S
C495 C494 1.442 . S
C495 C496 1.381 . S
C495 H517 0.931 1_655 S
C496 C495 1.381 . S
C496 C497 1.321 . S
C497 C496 1.321 . S
C497 C498 1.403 . S
C497 H518 0.934 . S
C498 C493 1.413 . S
C498 C497 1.403 . S
C498 H519 0.930 . S
C499 O510 1.275 . S
C499 O511 1.256 1_545 S
O500 Ho480 2.322 . S
O500 C482 1.259 1_455 S
O501 Ho481 2.346 1_565 S
O501 C482 1.268 . S
O502 Ho480 2.378 . S
O502 C483 1.215 . S
O503 Ho480 2.542 . S
O503 C483 1.333 . S
O504 Ho480 2.381 . S
O504 C490 1.275 1_565 S
O505 Ho480 2.669 1_545 S
O505 Ho481 2.305 1_455 S
O505 C490 1.256 . S
O506 Ho481 2.322 . S
O506 C491 1.259 1_655 S
O507 Ho480 2.346 1_545 S
O507 C491 1.268 . S
O508 Ho481 2.378 . S
O508 C492 1.215 . S
O509 Ho481 2.536 . S
O509 C492 1.319 . S
O510 Ho481 2.381 . S
O510 C499 1.275 . S
O511 Ho480 2.305 1_655 S
O511 Ho481 2.669 1_565 S
O511 C499 1.256 1_565 S
H512 C485 0.930 1_655 S
H513 C486 0.931 1_655 S
H514 C488 0.934 . S
H515 C489 0.930 . S
H516 C494 0.930 1_455 S
H517 C495 0.931 1_455 S
H518 C497 0.934 . S
H519 C498 0.930 . S
Ho520 C523 2.811 . S
Ho520 O540 2.322 . S
Ho520 O542 2.378 . S
Ho520 O543 2.524 . S
Ho520 O544 2.381 . S
Ho520 O545 2.669 . S
Ho520 O547 2.346 . S
Ho520 O551 2.305 1_545 S
Ho521 C532 2.811 . S
Ho521 O541 2.346 . S
Ho521 O545 2.305 1_565 S
Ho521 O546 2.322 . S
Ho521 O548 2.378 . S
Ho521 O549 2.524 1_565 S
Ho521 O550 2.381 . S
Ho521 O551 2.669 . S
C522 O540 1.259 1_565 S
C522 O541 1.268 . S
C523 Ho520 2.811 . S
C523 C524 1.488 . S
C523 O542 1.215 . S
C523 O543 1.289 . S
C524 C523 1.488 . S
C524 C525 1.348 . S
C524 C529 1.413 . S
C525 C524 1.348 . S
C525 C526 1.442 . S
C525 H552 0.930 1_545 S
C526 C525 1.442 . S
C526 C527 1.381 . S
C526 H553 0.931 1_545 S
C527 C526 1.381 . S
C527 C528 1.321 . S
C528 C527 1.321 . S
C528 C529 1.403 . S
C528 H554 0.934 . S
C529 C524 1.413 . S
C529 C528 1.403 . S
C529 H555 0.930 . S
C530 O544 1.275 . S
C530 O545 1.256 . S
C531 O546 1.259 1_545 S
C531 O547 1.268 . S
C532 Ho521 2.811 . S
C532 C533 1.488 . S
C532 O548 1.215 . S
C532 O549 1.289 1_565 S
C533 C532 1.488 . S
C533 C534 1.348 1_565 S
C533 C538 1.413 . S
C534 C533 1.348 1_545 S
C534 C535 1.438 1_545 S
C534 H556 0.930 . S
C535 C534 1.438 1_565 S
C535 C536 1.419 . S
C535 H557 0.898 1_565 S
C536 C535 1.419 . S
C536 C537 1.321 . S
C537 C536 1.321 . S
C537 C538 1.403 . S
C537 H558 0.934 . S
C538 C533 1.413 . S
C538 C537 1.403 . S
C538 H559 0.930 . S
C539 O550 1.275 . S
C539 O551 1.256 . S
O540 Ho520 2.322 . S
O540 C522 1.259 1_545 S
O541 Ho521 2.346 . S
O541 C522 1.268 . S
O542 Ho520 2.378 . S
O542 C523 1.215 . S
O543 Ho520 2.524 . S
O543 C523 1.289 . S
O544 Ho520 2.381 . S
O544 C530 1.275 . S
O545 Ho520 2.669 . S
O545 Ho521 2.305 1_545 S
O545 C530 1.256 . S
O546 Ho521 2.322 . S
O546 C531 1.259 1_565 S
O547 Ho520 2.346 . S
O547 C531 1.268 . S
O548 Ho521 2.378 . S
O548 C532 1.215 . S
O549 Ho521 2.524 1_545 S
O549 C532 1.289 1_545 S
O550 Ho521 2.381 . S
O550 C539 1.275 . S
O551 Ho520 2.305 1_565 S
O551 Ho521 2.669 . S
O551 C539 1.256 . S
H552 C525 0.930 1_565 S
H553 C526 0.931 1_565 S
H554 C528 0.934 . S
H555 C529 0.930 . S
H556 C534 0.930 . S
H557 C535 0.898 1_545 S
H558 C537 0.934 . S
H559 C538 0.930 . S
Ho560 C563 2.811 . S
Ho560 O580 2.322 . S
Ho560 O582 2.378 . S
Ho560 O583 2.524 . S
Ho560 O584 2.381 . S
Ho560 O585 2.669 . S
Ho560 O587 2.346 . S
Ho560 O591 2.305 . S
Ho561 C572 2.811 . S
Ho561 O581 2.346 . S
Ho561 O585 2.305 . S
Ho561 O586 2.322 . S
Ho561 O588 2.378 . S
Ho561 O589 2.524 . S
Ho561 O590 2.381 . S
Ho561 O591 2.669 . S
C562 O580 1.259 . S
C562 O581 1.268 . S
C563 Ho560 2.811 . S
C563 C564 1.488 . S
C563 O582 1.215 . S
C563 O583 1.289 . S
C564 C563 1.488 . S
C564 C565 1.348 . S
C564 C569 1.413 . S
C565 C564 1.348 . S
C565 C566 1.442 . S
C565 H592 0.930 . S
C566 C565 1.442 . S
C566 C567 1.381 . S
C566 H593 0.931 . S
C567 C566 1.381 . S
C567 C568 1.321 . S
C568 C567 1.321 . S
C568 C569 1.403 . S
C568 H594 0.934 . S
C569 C564 1.413 . S
C569 C568 1.403 . S
C569 H595 0.930 . S
C570 O584 1.275 . S
C570 O585 1.256 . S
C571 O586 1.259 . S
C571 O587 1.268 . S
C572 Ho561 2.811 . S
C572 C573 1.488 . S
C572 O588 1.215 . S
C572 O589 1.289 . S
C573 C572 1.488 . S
C573 C574 1.348 . S
C573 C578 1.413 . S
C574 C573 1.348 . S
C574 C575 1.442 . S
C574 H596 0.930 . S
C575 C574 1.442 . S
C575 C576 1.381 . S
C575 H597 0.931 . S
C576 C575 1.381 . S
C576 C577 1.321 . S
C577 C576 1.321 . S
C577 C578 1.403 . S
C577 H598 0.934 . S
C578 C573 1.413 . S
C578 C577 1.403 . S
C578 H599 0.930 . S
C579 O590 1.275 . S
C579 O591 1.256 . S
O580 Ho560 2.322 . S
O580 C562 1.259 . S
O581 Ho561 2.346 . S
O581 C562 1.268 . S
O582 Ho560 2.378 . S
O582 C563 1.215 . S
O583 Ho560 2.524 . S
O583 C563 1.289 . S
O584 Ho560 2.381 . S
O584 C570 1.275 . S
O585 Ho560 2.669 . S
O585 Ho561 2.305 . S
O585 C570 1.256 . S
O586 Ho561 2.322 . S
O586 C571 1.259 . S
O587 Ho560 2.346 . S
O587 C571 1.268 . S
O588 Ho561 2.378 . S
O588 C572 1.215 . S
O589 Ho561 2.524 . S
O589 C572 1.289 . S
O590 Ho561 2.381 . S
O590 C579 1.275 . S
O591 Ho560 2.305 . S
O591 Ho561 2.669 . S
O591 C579 1.256 . S
H592 C565 0.930 . S
H593 C566 0.931 . S
H594 C568 0.934 . S
H595 C569 0.930 . S
H596 C574 0.930 . S
H597 C575 0.931 . S
H598 C577 0.934 . S
H599 C578 0.930 . S
Ho600 C603 2.811 . S
Ho600 O620 2.322 . S
Ho600 O622 2.378 . S
Ho600 O623 2.524 . S
Ho600 O624 2.381 . S
Ho600 O625 2.669 1_655 S
Ho600 O627 2.346 1_655 S
Ho600 O631 2.305 . S
Ho601 C612 2.811 . S
Ho601 O621 2.346 1_455 S
Ho601 O625 2.305 . S
Ho601 O626 2.322 . S
Ho601 O628 2.378 . S
Ho601 O629 2.524 . S
Ho601 O630 2.381 . S
Ho601 O631 2.669 1_455 S
C602 O620 1.259 . S
C602 O621 1.268 . S
C603 Ho600 2.811 . S
C603 C604 1.488 . S
C603 O622 1.215 . S
C603 O623 1.289 . S
C604 C603 1.488 . S
C604 C605 1.348 . S
C604 C609 1.413 . S
C605 C604 1.348 . S
C605 C606 1.442 . S
C605 H632 0.930 . S
C606 C605 1.442 . S
C606 C607 1.381 . S
C606 H633 0.931 . S
C607 C606 1.381 . S
C607 C608 1.321 . S
C608 C607 1.321 . S
C608 C609 1.403 . S
C608 H634 0.934 . S
C609 C604 1.413 . S
C609 C608 1.403 . S
C609 H635 0.930 . S
C610 O624 1.275 . S
C610 O625 1.256 1_655 S
C611 O626 1.259 . S
C611 O627 1.268 . S
C612 Ho601 2.811 . S
C612 C613 1.488 . S
C612 O628 1.215 . S
C612 O629 1.289 . S
C613 C612 1.488 . S
C613 C614 1.348 . S
C613 C618 1.413 . S
C614 C613 1.348 . S
C614 C615 1.442 . S
C614 H636 0.930 . S
C615 C614 1.442 . S
C615 C616 1.381 . S
C615 H637 0.931 . S
C616 C615 1.381 . S
C616 C617 1.321 . S
C617 C616 1.321 . S
C617 C618 1.403 . S
C617 H638 0.934 . S
C618 C613 1.413 . S
C618 C617 1.403 . S
C618 H639 0.930 . S
C619 O630 1.275 . S
C619 O631 1.256 1_455 S
O620 Ho600 2.322 . S
O620 C602 1.259 . S
O621 Ho601 2.346 1_655 S
O621 C602 1.268 . S
O622 Ho600 2.378 . S
O622 C603 1.215 . S
O623 Ho600 2.524 . S
O623 C603 1.289 . S
O624 Ho600 2.381 . S
O624 C610 1.275 . S
O625 Ho600 2.669 1_455 S
O625 Ho601 2.305 . S
O625 C610 1.256 1_455 S
O626 Ho601 2.322 . S
O626 C611 1.259 . S
O627 Ho600 2.346 1_455 S
O627 C611 1.268 . S
O628 Ho601 2.378 . S
O628 C612 1.215 . S
O629 Ho601 2.524 . S
O629 C612 1.289 . S
O630 Ho601 2.381 . S
O630 C619 1.275 . S
O631 Ho600 2.305 . S
O631 Ho601 2.669 1_655 S
O631 C619 1.256 1_655 S
H632 C605 0.930 . S
H633 C606 0.931 . S
H634 C608 0.934 . S
H635 C609 0.930 . S
H636 C614 0.930 . S
H637 C615 0.931 . S
H638 C617 0.934 . S
H639 C618 0.930 . S
H640 C648 0.929 . S
H641 C650 0.930 . S
H642 C652 0.930 . S
H643 C655 0.929 . S
H644 C658 0.930 . S
H645 C660 0.960 . S
H646 C660 0.960 . S
H647 C660 0.960 . S
C648 H640 0.929 . S
C648 C649 1.377 . S
C648 C650 1.384 . S
C649 C648 1.377 . S
C649 C655 1.390 . S
C650 H641 0.930 . S
C650 C648 1.384 . S
C650 C651 1.372 . S
C651 C650 1.372 . S
C651 C652 1.400 . S
C651 C656 1.490 . S
C652 H642 0.930 . S
C652 C651 1.400 . S
C652 C655 1.386 . S
H653 C669 0.930 . S
H654 C670 0.939 . S
C655 H643 0.929 . S
C655 C649 1.390 . S
C655 C652 1.386 . S
C656 C651 1.490 . S
C656 C658 1.395 1_545 S
C656 C659 1.403 . S
H657 C663 0.930 . S
C658 H644 0.930 . S
C658 C656 1.395 1_565 S
C658 C661 1.403 . S
C659 C656 1.403 . S
C659 C660 1.524 . S
C659 C663 1.400 . S
C660 H645 0.960 . S
C660 H646 0.960 . S
C660 H647 0.960 . S
C660 C659 1.524 . S
C661 C658 1.403 . S
C661 C662 1.392 1_565 S
C661 C665 1.495 . S
C662 C661 1.392 1_545 S
C662 C663 1.385 . S
C662 C664 1.478 . S
C663 H657 0.930 . S
C663 C659 1.400 . S
C663 C662 1.385 . S
C664 C662 1.478 . S
C664 C666 1.381 . S
C664 C670 1.383 . S
C665 C661 1.495 . S
C665 H671 0.959 . S
C665 H672 0.961 . S
C665 H673 0.960 . S
C666 C664 1.381 . S
C666 C667 1.394 . S
C666 H674 0.930 . S
C667 C666 1.394 . S
C667 C668 1.383 . S
C667 H675 0.929 . S
C668 C667 1.383 . S
C668 C669 1.377 . S
C669 H653 0.930 . S
C669 C668 1.377 . S
C669 C670 1.379 . S
C670 H654 0.939 . S
C670 C664 1.383 . S
C670 C669 1.379 . S
H671 C665 0.959 . S
H672 C665 0.961 . S
H673 C665 0.960 . S
H674 C666 0.930 . S
H675 C667 0.929 . S
H676 C684 0.929 . S
H677 C686 0.930 . S
H678 C688 0.930 . S
H679 C691 0.929 . S
H680 C694 0.930 . S
H681 C696 0.960 . S
H682 C696 0.960 . S
H683 C696 0.960 . S
C684 H676 0.929 . S
C684 C685 1.377 . S
C684 C686 1.384 . S
C685 C684 1.377 . S
C685 C691 1.390 . S
C686 H677 0.930 . S
C686 C684 1.384 . S
C686 C687 1.372 . S
C687 C686 1.372 . S
C687 C688 1.400 . S
C687 C692 1.490 . S
C688 H678 0.930 . S
C688 C687 1.400 . S
C688 C691 1.386 . S
H689 C705 0.930 . S
H690 C706 0.931 . S
C691 H679 0.929 . S
C691 C685 1.390 . S
C691 C688 1.386 . S
C692 C687 1.490 . S
C692 C694 1.395 . S
C692 C695 1.403 . S
H693 C699 0.930 . S
C694 H680 0.930 . S
C694 C692 1.395 . S
C694 C697 1.403 . S
C695 C692 1.403 . S
C695 C696 1.524 . S
C695 C699 1.400 . S
C696 H681 0.960 . S
C696 H682 0.960 . S
C696 H683 0.960 . S
C696 C695 1.524 . S
C697 C694 1.403 . S
C697 C698 1.392 . S
C697 C701 1.495 . S
C698 C697 1.392 . S
C698 C699 1.385 . S
C698 C700 1.478 . S
C699 H693 0.930 . S
C699 C695 1.400 . S
C699 C698 1.385 . S
C700 C698 1.478 . S
C700 C702 1.381 . S
C700 C706 1.383 . S
C701 C697 1.495 . S
C701 H707 0.959 . S
C701 H708 0.961 . S
C701 H709 0.960 . S
C702 C700 1.381 . S
C702 C703 1.394 . S
C702 H710 0.930 . S
C703 C702 1.394 . S
C703 C704 1.383 . S
C703 H711 0.929 . S
C704 C703 1.383 . S
C704 C705 1.377 . S
C705 H689 0.930 . S
C705 C704 1.377 . S
C705 C706 1.379 . S
C706 H690 0.931 . S
C706 C700 1.383 . S
C706 C705 1.379 . S
H707 C701 0.959 . S
H708 C701 0.961 . S
H709 C701 0.960 . S
H710 C702 0.930 . S
H711 C703 0.929 . S
H712 C720 0.929 . S
H713 C722 0.930 . S
H714 C724 0.930 . S
H715 C727 0.929 . S
H716 C730 0.930 . S
H717 C732 0.960 . S
H718 C732 0.960 . S
H719 C732 0.960 . S
C720 H712 0.929 . S
C720 C721 1.377 . S
C720 C722 1.384 . S
C721 C720 1.377 . S
C721 C727 1.390 . S
C722 H713 0.930 . S
C722 C720 1.384 . S
C722 C723 1.372 . S
C723 C722 1.372 . S
C723 C724 1.400 . S
C723 C728 1.490 . S
C724 H714 0.930 . S
C724 C723 1.400 . S
C724 C727 1.386 . S
H725 C741 0.930 . S
H726 C742 0.931 . S
C727 H715 0.929 . S
C727 C721 1.390 . S
C727 C724 1.386 . S
C728 C723 1.490 . S
C728 C730 1.395 . S
C728 C731 1.403 . S
H729 C735 0.930 . S
C730 H716 0.930 . S
C730 C728 1.395 . S
C730 C733 1.403 . S
C731 C728 1.403 . S
C731 C732 1.524 . S
C731 C735 1.400 . S
C732 H717 0.960 . S
C732 H718 0.960 . S
C732 H719 0.960 . S
C732 C731 1.524 . S
C733 C730 1.403 . S
C733 C734 1.392 . S
C733 C737 1.495 . S
C734 C733 1.392 . S
C734 C735 1.385 . S
C734 C736 1.478 . S
C735 H729 0.930 . S
C735 C731 1.400 . S
C735 C734 1.385 . S
C736 C734 1.478 . S
C736 C738 1.381 . S
C736 C742 1.383 . S
C737 C733 1.495 . S
C737 H743 0.959 . S
C737 H744 0.961 . S
C737 H745 0.960 . S
C738 C736 1.381 . S
C738 C739 1.394 . S
C738 H746 0.930 . S
C739 C738 1.394 . S
C739 C740 1.383 . S
C739 H747 0.929 . S
C740 C739 1.383 . S
C740 C741 1.377 . S
C741 H725 0.930 . S
C741 C740 1.377 . S
C741 C742 1.379 . S
C742 H726 0.931 . S
C742 C736 1.383 . S
C742 C741 1.379 . S
H743 C737 0.959 . S
H744 C737 0.961 . S
H745 C737 0.960 . S
H746 C738 0.930 . S
H747 C739 0.929 . S
H748 C756 0.929 . S
H749 C758 0.930 . S
H750 C760 0.930 . S
H751 C763 0.929 . S
H752 C766 0.930 . S
H753 C768 0.960 . S
H754 C768 0.960 . S
H755 C768 0.963 1_655 S
C756 H748 0.929 . S
C756 C757 1.394 . S
C756 C758 1.384 . S
C757 C756 1.394 . S
C757 C763 1.374 1_455 S
C758 H749 0.930 . S
C758 C756 1.384 . S
C758 C759 1.372 . S
C759 C758 1.372 . S
C759 C760 1.400 1_455 S
C759 C764 1.490 . S
C760 H750 0.930 . S
C760 C759 1.400 1_655 S
C760 C763 1.386 . S
H761 C777 0.930 . S
H762 C778 0.931 . S
C763 H751 0.929 . S
C763 C757 1.374 1_655 S
C763 C760 1.386 . S
C764 C759 1.490 . S
C764 C766 1.395 1_455 S
C764 C767 1.403 . S
H765 C771 0.930 . S
C766 H752 0.930 . S
C766 C764 1.395 1_655 S
C766 C769 1.403 . S
C767 C764 1.403 . S
C767 C768 1.524 . S
C767 C771 1.400 . S
C768 H753 0.960 . S
C768 H754 0.960 . S
C768 H755 0.963 1_455 S
C768 C767 1.524 . S
C769 C766 1.403 . S
C769 C770 1.390 1_655 S
C769 C773 1.495 . S
C770 C769 1.390 1_455 S
C770 C771 1.388 . S
C770 C772 1.477 1_455 S
C771 H765 0.930 . S
C771 C767 1.400 . S
C771 C770 1.388 . S
C772 C770 1.477 1_655 S
C772 C774 1.382 1_655 S
C772 C778 1.382 . S
C773 C769 1.495 . S
C773 H779 0.959 . S
C773 H780 0.961 . S
C773 H781 0.960 1_655 S
C774 C772 1.382 1_455 S
C774 C775 1.394 . S
C774 H782 0.930 . S
C775 C774 1.394 . S
C775 C776 1.398 . S
C775 H783 0.929 . S
C776 C775 1.398 . S
C776 C777 1.362 1_455 S
C777 H761 0.930 . S
C777 C776 1.362 1_655 S
C777 C778 1.379 . S
C778 H762 0.931 . S
C778 C772 1.382 . S
C778 C777 1.379 . S
H779 C773 0.959 . S
H780 C773 0.961 . S
H781 C773 0.960 1_455 S
H782 C774 0.930 . S
H783 C775 0.929 . S
H784 C792 0.929 . S
H785 C794 0.930 . S
H786 C796 0.930 . S
H787 C799 0.929 . S
H788 C802 0.930 . S
H789 C804 0.960 . S
H790 C804 0.960 . S
H791 C804 0.960 . S
C792 H784 0.929 . S
C792 C793 1.377 . S
C792 C794 1.384 . S
C793 C792 1.377 . S
C793 C799 1.390 1_565 S
C794 H785 0.930 . S
C794 C792 1.384 . S
C794 C795 1.372 . S
C795 C794 1.372 . S
C795 C796 1.400 1_565 S
C795 C800 1.490 . S
C796 H786 0.930 . S
C796 C795 1.400 1_545 S
C796 C799 1.386 . S
H797 C813 0.930 . S
H798 C814 0.931 . S
C799 H787 0.929 . S
C799 C793 1.390 1_545 S
C799 C796 1.386 . S
C800 C795 1.490 . S
C800 C802 1.395 . S
C800 C803 1.403 1_565 S
H801 C807 0.930 . S
C802 H788 0.930 . S
C802 C800 1.395 . S
C802 C805 1.403 1_554 S
C803 C800 1.403 1_545 S
C803 C804 1.524 . S
C803 C807 1.400 1_554 S
C804 H789 0.960 . S
C804 H790 0.960 . S
C804 H791 0.960 . S
C804 C803 1.524 . S
C805 C802 1.403 1_556 S
C805 C806 1.392 . S
C805 C809 1.495 . S
C806 C805 1.392 . S
C806 C807 1.385 1_565 S
C806 C808 1.478 . S
C807 H801 0.930 . S
C807 C803 1.400 1_556 S
C807 C806 1.385 1_545 S
C808 C806 1.478 . S
C808 C810 1.381 . S
C808 C814 1.383 1_565 S
C809 C805 1.495 . S
C809 H815 0.959 . S
C809 H816 0.961 . S
C809 H817 0.960 . S
C810 C808 1.381 . S
C810 C811 1.394 . S
C810 H818 0.930 . S
C811 C810 1.394 . S
C811 C812 1.397 . S
C811 H819 0.929 . S
C812 C811 1.397 . S
C812 C813 1.367 1_565 S
C813 H797 0.930 . S
C813 C812 1.367 1_545 S
C813 C814 1.379 . S
C814 H798 0.931 . S
C814 C808 1.383 1_545 S
C814 C813 1.379 . S
H815 C809 0.959 . S
H816 C809 0.961 . S
H817 C809 0.960 . S
H818 C810 0.930 . S
H819 C811 0.929 . S
H820 C828 0.929 . S
H821 C830 0.930 . S
H822 C832 0.930 . S
H823 C835 0.929 . S
H824 C838 0.930 . S
H825 C840 0.960 . S
H826 C840 0.960 . S
H827 C840 0.960 . S
C828 H820 0.929 . S
C828 C829 1.377 . S
C828 C830 1.384 . S
C829 C828 1.377 . S
C829 C835 1.390 . S
C830 H821 0.930 . S
C830 C828 1.384 . S
C830 C831 1.372 . S
C831 C830 1.372 . S
C831 C832 1.400 . S
C831 C836 1.490 . S
C832 H822 0.930 . S
C832 C831 1.400 . S
C832 C835 1.386 . S
H833 C849 0.930 . S
H834 C850 0.931 . S
C835 H823 0.929 . S
C835 C829 1.390 . S
C835 C832 1.386 . S
C836 C831 1.490 . S
C836 C838 1.395 1_554 S
C836 C839 1.403 . S
H837 C843 0.930 . S
C838 H824 0.930 . S
C838 C836 1.395 1_556 S
C838 C841 1.403 . S
C839 C836 1.403 . S
C839 C840 1.524 . S
C839 C843 1.400 1_554 S
C840 H825 0.960 . S
C840 H826 0.960 . S
C840 H827 0.960 . S
C840 C839 1.524 . S
C841 C838 1.403 . S
C841 C842 1.392 . S
C841 C845 1.495 . S
C842 C841 1.392 . S
C842 C843 1.385 . S
C842 C844 1.478 . S
C843 H837 0.930 . S
C843 C839 1.400 1_556 S
C843 C842 1.385 . S
C844 C842 1.478 . S
C844 C846 1.381 . S
C844 C850 1.383 . S
C845 C841 1.495 . S
C845 H851 0.959 . S
C845 H852 0.961 . S
C845 H853 0.960 . S
C846 C844 1.381 . S
C846 C847 1.394 . S
C846 H854 0.930 . S
C847 C846 1.394 . S
C847 C848 1.383 . S
C847 H855 0.929 . S
C848 C847 1.383 . S
C848 C849 1.377 . S
C849 H833 0.930 . S
C849 C848 1.377 . S
C849 C850 1.379 . S
C850 H834 0.931 . S
C850 C844 1.383 . S
C850 C849 1.379 . S
H851 C845 0.959 . S
H852 C845 0.961 . S
H853 C845 0.960 . S
H854 C846 0.930 . S
H855 C847 0.929 . S
H856 C864 0.929 . S
H857 C866 0.930 . S
H858 C868 0.930 . S
H859 C871 0.929 . S
H860 C874 0.930 . S
H861 C876 0.960 . S
H862 C876 0.960 . S
H863 C876 0.960 . S
C864 H856 0.929 . S
C864 C865 1.377 . S
C864 C866 1.384 . S
C865 C864 1.377 . S
C865 C871 1.390 . S
C866 H857 0.930 . S
C866 C864 1.384 . S
C866 C867 1.372 . S
C867 C866 1.372 . S
C867 C868 1.400 . S
C867 C872 1.490 . S
C868 H858 0.930 . S
C868 C867 1.400 . S
C868 C871 1.386 . S
H869 C885 0.930 . S
H870 C886 0.931 . S
C871 H859 0.929 . S
C871 C865 1.390 . S
C871 C868 1.386 . S
C872 C867 1.490 . S
C872 C874 1.395 1_554 S
C872 C875 1.403 . S
H873 C879 0.930 . S
C874 H860 0.930 . S
C874 C872 1.395 1_556 S
C874 C877 1.403 . S
C875 C872 1.403 . S
C875 C876 1.524 . S
C875 C879 1.400 1_554 S
C876 H861 0.960 . S
C876 H862 0.960 . S
C876 H863 0.960 . S
C876 C875 1.524 . S
C877 C874 1.403 . S
C877 C878 1.392 . S
C877 C881 1.495 . S
C878 C877 1.392 . S
C878 C879 1.385 . S
C878 C880 1.478 . S
C879 H873 0.930 . S
C879 C875 1.400 1_556 S
C879 C878 1.385 . S
C880 C878 1.478 . S
C880 C882 1.381 . S
C880 C886 1.383 . S
C881 C877 1.495 . S
C881 H887 0.959 . S
C881 H888 0.961 . S
C881 H889 0.960 . S
C882 C880 1.381 . S
C882 C883 1.394 . S
C882 H890 0.930 . S
C883 C882 1.394 . S
C883 C884 1.383 . S
C883 H891 0.929 . S
C884 C883 1.383 . S
C884 C885 1.377 . S
C885 H869 0.930 . S
C885 C884 1.377 . S
C885 C886 1.379 . S
C886 H870 0.931 . S
C886 C880 1.383 . S
C886 C885 1.379 . S
H887 C881 0.959 . S
H888 C881 0.961 . S
H889 C881 0.960 . S
H890 C882 0.930 . S
H891 C883 0.929 . S
H892 C900 0.929 . S
H893 C902 0.930 . S
H894 C904 0.930 . S
H895 C907 0.929 . S
H896 C910 0.930 . S
H897 C912 0.949 1_556 S
H898 C912 0.971 . S
H899 C912 0.961 . S
C900 H892 0.929 . S
C900 C901 1.377 . S
C900 C902 1.384 1_455 S
C901 C900 1.377 . S
C901 C907 1.390 . S
C902 H893 0.930 . S
C902 C900 1.384 1_655 S
C902 C903 1.372 . S
C903 C902 1.372 . S
C903 C904 1.400 1_655 S
C903 C908 1.489 . S
C904 H894 0.930 . S
C904 C903 1.400 1_455 S
C904 C907 1.386 . S
H905 C921 0.930 . S
H906 C922 0.931 . S
C907 H895 0.929 . S
C907 C901 1.390 . S
C907 C904 1.386 . S
C908 C903 1.489 . S
C908 C910 1.435 . S
C908 C911 1.365 1_654 S
H909 C915 0.930 . S
C910 H896 0.930 . S
C910 C908 1.435 . S
C910 C913 1.403 1_554 S
C911 C908 1.365 1_456 S
C911 C912 1.522 1_556 S
C911 C915 1.400 . S
C912 H897 0.949 1_554 S
C912 H898 0.971 . S
C912 H899 0.961 . S
C912 C911 1.522 1_554 S
C913 C910 1.403 1_556 S
C913 C914 1.392 . S
C913 C917 1.495 . S
C914 C913 1.392 . S
C914 C915 1.385 1_655 S
C914 C916 1.478 . S
C915 H909 0.930 . S
C915 C911 1.400 . S
C915 C914 1.385 1_455 S
C916 C914 1.478 . S
C916 C918 1.381 . S
C916 C922 1.383 . S
C917 C913 1.495 . S
C917 H923 0.959 1_556 S
C917 H924 0.961 . S
C917 H925 0.960 . S
C918 C916 1.381 . S
C918 C919 1.397 . S
C918 H926 0.936 . S
C919 C918 1.397 . S
C919 C920 1.387 . S
C919 H927 0.921 1_655 S
C920 C919 1.387 . S
C920 C921 1.377 . S
C921 H905 0.930 . S
C921 C920 1.377 . S
C921 C922 1.379 . S
C922 H906 0.931 . S
C922 C916 1.383 . S
C922 C921 1.379 . S
H923 C917 0.959 1_554 S
H924 C917 0.961 . S
H925 C917 0.960 . S
H926 C918 0.936 . S
H927 C919 0.921 1_455 S
H928 C936 0.926 1_455 S
H929 C938 0.930 . S
H930 C940 0.930 . S
H931 C943 0.926 1_455 S
H932 C946 0.930 . S
H933 C948 0.960 . S
H934 C948 0.960 . S
H935 C948 0.960 . S
C936 H928 0.926 1_655 S
C936 C937 1.377 1_655 S
C936 C938 1.386 . S
C937 C936 1.377 1_455 S
C937 C943 1.387 1_455 S
C938 H929 0.930 . S
C938 C936 1.386 . S
C938 C939 1.372 . S
C939 C938 1.372 . S
C939 C940 1.400 . S
C939 C944 1.490 . S
C940 H930 0.930 . S
C940 C939 1.400 . S
C940 C943 1.391 . S
H941 C957 0.930 . S
H942 C958 0.931 . S
C943 H931 0.926 1_655 S
C943 C937 1.387 1_655 S
C943 C940 1.391 . S
C944 C939 1.490 . S
C944 C946 1.395 1_655 S
C944 C947 1.403 . S
H945 C951 0.930 . S
C946 H932 0.930 . S
C946 C944 1.395 1_455 S
C946 C949 1.403 . S
C947 C944 1.403 . S
C947 C948 1.524 . S
C947 C951 1.400 . S
C948 H933 0.960 . S
C948 H934 0.960 . S
C948 H935 0.960 . S
C948 C947 1.524 . S
C949 C946 1.403 . S
C949 C950 1.392 1_455 S
C949 C953 1.495 . S
C950 C949 1.392 1_655 S
C950 C951 1.385 . S
C950 C952 1.478 . S
C951 H945 0.930 . S
C951 C947 1.400 . S
C951 C950 1.385 . S
C952 C950 1.478 . S
C952 C954 1.381 . S
C952 C958 1.383 . S
C953 C949 1.495 . S
C953 H959 0.959 . S
C953 H960 0.961 . S
C953 H961 0.960 . S
C954 C952 1.381 . S
C954 C955 1.394 . S
C954 H962 0.930 . S
C955 C954 1.394 . S
C955 C956 1.383 . S
C955 H963 0.929 . S
C956 C955 1.383 . S
C956 C957 1.377 . S
C957 H941 0.930 . S
C957 C956 1.377 . S
C957 C958 1.379 . S
C958 H942 0.931 . S
C958 C952 1.383 . S
C958 C957 1.379 . S
H959 C953 0.959 . S
H960 C953 0.961 . S
H961 C953 0.960 . S
H962 C954 0.930 . S
H963 C955 0.929 . S
H964 C972 0.929 . S
H965 C974 0.930 . S
H966 C976 0.930 1_565 S
H967 C979 0.929 . S
H968 C982 0.930 . S
H969 C984 0.960 . S
H970 C984 0.960 . S
H971 C984 0.960 . S
C972 H964 0.929 . S
C972 C973 1.377 . S
C972 C974 1.384 . S
C973 C972 1.377 . S
C973 C979 1.390 . S
C974 H965 0.930 . S
C974 C972 1.384 . S
C974 C975 1.372 . S
C975 C974 1.372 . S
C975 C976 1.400 . S
C975 C980 1.490 . S
C976 H966 0.930 1_545 S
C976 C975 1.400 . S
C976 C979 1.386 . S
H977 C993 0.930 . S
H978 C994 0.931 . S
C979 H967 0.929 . S
C979 C973 1.390 . S
C979 C976 1.386 . S
C980 C975 1.490 . S
C980 C982 1.395 . S
C980 C983 1.403 1_545 S
H981 C987 0.930 . S
C982 H968 0.930 . S
C982 C980 1.395 . S
C982 C985 1.403 . S
C983 C980 1.403 1_565 S
C983 C984 1.524 . S
C983 C987 1.400 . S
C984 H969 0.960 . S
C984 H970 0.960 . S
C984 H971 0.960 . S
C984 C983 1.524 . S
C985 C982 1.403 . S
C985 C986 1.392 1_545 S
C985 C989 1.495 . S
C986 C985 1.392 1_565 S
C986 C987 1.385 . S
C986 C988 1.478 . S
C987 H981 0.930 . S
C987 C983 1.400 . S
C987 C986 1.385 . S
C988 C986 1.478 . S
C988 C990 1.381 . S
C988 C994 1.383 . S
C989 C985 1.495 . S
C989 H995 0.959 . S
C989 H996 0.961 . S
C989 H997 0.960 . S
C990 C988 1.381 . S
C990 C991 1.394 . S
C990 H998 0.930 . S
C991 C990 1.394 . S
C991 C992 1.383 . S
C991 H999 0.929 . S
C992 C991 1.383 . S
C992 C993 1.377 . S
C993 H977 0.930 . S
C993 C992 1.377 . S
C993 C994 1.379 . S
C994 H978 0.931 . S
C994 C988 1.383 . S
C994 C993 1.379 . S
H995 C989 0.959 . S
H996 C989 0.961 . S
H997 C989 0.960 . S
H998 C990 0.930 . S
H999 C991 0.929 . S
H1000 C1008 0.929 . S
H1001 C1010 0.930 . S
H1002 C1012 0.930 . S
H1003 C1015 0.929 . S
H1004 C1018 0.930 . S
H1005 C1020 0.960 . S
H1006 C1020 0.960 . S
H1007 C1020 0.960 . S
C1008 H1000 0.929 . S
C1008 C1009 1.377 . S
C1008 C1010 1.384 . S
C1009 C1008 1.377 . S
C1009 C1015 1.390 . S
C1010 H1001 0.930 . S
C1010 C1008 1.384 . S
C1010 C1011 1.372 . S
C1011 C1010 1.372 . S
C1011 C1012 1.400 . S
C1011 C1016 1.490 . S
C1012 H1002 0.930 . S
C1012 C1011 1.400 . S
C1012 C1015 1.386 . S
H1013 C1029 0.930 . S
H1014 C1030 0.931 . S
C1015 H1003 0.929 . S
C1015 C1009 1.390 . S
C1015 C1012 1.386 . S
C1016 C1011 1.490 . S
C1016 C1018 1.395 . S
C1016 C1019 1.403 . S
H1017 C1023 0.930 . S
C1018 H1004 0.930 . S
C1018 C1016 1.395 . S
C1018 C1021 1.403 . S
C1019 C1016 1.403 . S
C1019 C1020 1.524 . S
C1019 C1023 1.400 . S
C1020 H1005 0.960 . S
C1020 H1006 0.960 . S
C1020 H1007 0.960 . S
C1020 C1019 1.524 . S
C1021 C1018 1.403 . S
C1021 C1022 1.392 . S
C1021 C1025 1.495 . S
C1022 C1021 1.392 . S
C1022 C1023 1.385 . S
C1022 C1024 1.478 . S
C1023 H1017 0.930 . S
C1023 C1019 1.400 . S
C1023 C1022 1.385 . S
C1024 C1022 1.478 . S
C1024 C1026 1.381 . S
C1024 C1030 1.383 . S
C1025 C1021 1.495 . S
C1025 H1031 0.959 . S
C1025 H1032 0.961 . S
C1025 H1033 0.960 . S
C1026 C1024 1.381 . S
C1026 C1027 1.394 . S
C1026 H1034 0.930 . S
C1027 C1026 1.394 . S
C1027 C1028 1.383 . S
C1027 H1035 0.929 . S
C1028 C1027 1.383 . S
C1028 C1029 1.377 . S
C1029 H1013 0.930 . S
C1029 C1028 1.377 . S
C1029 C1030 1.379 . S
C1030 H1014 0.931 . S
C1030 C1024 1.383 . S
C1030 C1029 1.379 . S
H1031 C1025 0.959 . S
H1032 C1025 0.961 . S
H1033 C1025 0.960 . S
H1034 C1026 0.930 . S
H1035 C1027 0.929 . S
H1036 C1044 0.929 . S
H1037 C1046 0.930 . S
H1038 C1048 0.930 . S
H1039 C1051 0.929 . S
H1040 C1054 0.930 . S
H1041 C1056 0.960 . S
H1042 C1056 0.960 . S
H1043 C1056 0.960 . S
C1044 H1036 0.929 . S
C1044 C1045 1.377 . S
C1044 C1046 1.384 . S
C1045 C1044 1.377 . S
C1045 C1051 1.390 . S
C1046 H1037 0.930 . S
C1046 C1044 1.384 . S
C1046 C1047 1.372 . S
C1047 C1046 1.372 . S
C1047 C1048 1.400 . S
C1047 C1052 1.490 . S
C1048 H1038 0.930 . S
C1048 C1047 1.400 . S
C1048 C1051 1.386 . S
H1049 C1065 0.930 . S
H1050 C1066 0.931 . S
C1051 H1039 0.929 . S
C1051 C1045 1.390 . S
C1051 C1048 1.386 . S
C1052 C1047 1.490 . S
C1052 C1054 1.395 . S
C1052 C1055 1.403 . S
H1053 C1059 0.930 . S
C1054 H1040 0.930 . S
C1054 C1052 1.395 . S
C1054 C1057 1.403 . S
C1055 C1052 1.403 . S
C1055 C1056 1.524 . S
C1055 C1059 1.400 . S
C1056 H1041 0.960 . S
C1056 H1042 0.960 . S
C1056 H1043 0.960 . S
C1056 C1055 1.524 . S
C1057 C1054 1.403 . S
C1057 C1058 1.392 . S
C1057 C1061 1.495 . S
C1058 C1057 1.392 . S
C1058 C1059 1.385 . S
C1058 C1060 1.478 . S
C1059 H1053 0.930 . S
C1059 C1055 1.400 . S
C1059 C1058 1.385 . S
C1060 C1058 1.478 . S
C1060 C1062 1.381 . S
C1060 C1066 1.383 . S
C1061 C1057 1.495 . S
C1061 H1067 0.959 . S
C1061 H1068 0.961 . S
C1061 H1069 0.960 . S
C1062 C1060 1.381 . S
C1062 C1063 1.394 . S
C1062 H1070 0.930 . S
C1063 C1062 1.394 . S
C1063 C1064 1.383 . S
C1063 H1071 0.929 . S
C1064 C1063 1.383 . S
C1064 C1065 1.377 . S
C1065 H1049 0.930 . S
C1065 C1064 1.377 . S
C1065 C1066 1.379 . S
C1066 H1050 0.931 . S
C1066 C1060 1.383 . S
C1066 C1065 1.379 . S
H1067 C1061 0.959 . S
H1068 C1061 0.961 . S
H1069 C1061 0.960 . S
H1070 C1062 0.930 . S
H1071 C1063 0.929 . S
H1072 C1080 0.929 . S
H1073 C1082 0.930 . S
H1074 C1084 0.930 . S
H1075 C1087 0.929 . S
H1076 C1090 0.934 . S
H1077 C1092 0.960 . S
H1078 C1092 0.960 . S
H1079 C1092 0.960 . S
C1080 H1072 0.929 . S
C1080 C1081 1.377 . S
C1080 C1082 1.384 . S
C1081 C1080 1.377 . S
C1081 C1087 1.390 1_655 S
C1082 H1073 0.930 . S
C1082 C1080 1.384 . S
C1082 C1083 1.372 1_655 S
C1083 C1082 1.372 1_455 S
C1083 C1084 1.400 . S
C1083 C1088 1.490 . S
C1084 H1074 0.930 . S
C1084 C1083 1.400 . S
C1084 C1087 1.386 . S
H1085 C1101 0.930 . S
H1086 C1102 0.931 . S
C1087 H1075 0.929 . S
C1087 C1081 1.390 1_455 S
C1087 C1084 1.386 . S
C1088 C1083 1.490 . S
C1088 C1090 1.392 1_455 S
C1088 C1091 1.403 1_554 S
H1089 C1095 0.930 . S
C1090 H1076 0.934 . S
C1090 C1088 1.392 1_655 S
C1090 C1093 1.403 1_655 S
C1091 C1088 1.403 1_556 S
C1091 C1092 1.524 . S
C1091 C1095 1.400 . S
C1092 H1077 0.960 . S
C1092 H1078 0.960 . S
C1092 H1079 0.960 . S
C1092 C1091 1.524 . S
C1093 C1090 1.403 1_455 S
C1093 C1094 1.392 1_554 S
C1093 C1097 1.495 1_455 S
C1094 C1093 1.392 1_556 S
C1094 C1095 1.385 . S
C1094 C1096 1.478 . S
C1095 H1089 0.930 . S
C1095 C1091 1.400 . S
C1095 C1094 1.385 . S
C1096 C1094 1.478 . S
C1096 C1098 1.381 . S
C1096 C1102 1.383 . S
C1097 C1093 1.495 1_655 S
C1097 H1103 0.959 . S
C1097 H1104 0.961 1_655 S
C1097 H1105 0.960 . S
C1098 C1096 1.381 . S
C1098 C1099 1.394 . S
C1098 H1106 0.930 1_455 S
C1099 C1098 1.394 . S
C1099 C1100 1.383 . S
C1099 H1107 0.967 . S
C1100 C1099 1.383 . S
C1100 C1101 1.377 . S
C1101 H1085 0.930 . S
C1101 C1100 1.377 . S
C1101 C1102 1.379 . S
C1102 H1086 0.931 . S
C1102 C1096 1.383 . S
C1102 C1101 1.379 . S
H1103 C1097 0.959 . S
H1104 C1097 0.961 1_455 S
H1105 C1097 0.960 . S
H1106 C1098 0.930 1_655 S
H1107 C1099 0.967 . S
H1108 C1116 0.929 . S
H1109 C1118 0.930 . S
H1110 C1120 0.930 . S
H1111 C1123 0.929 . S
H1112 C1126 0.930 . S
H1113 C1128 0.960 . S
H1114 C1128 0.960 . S
H1115 C1128 0.960 . S
C1116 H1108 0.929 . S
C1116 C1117 1.377 1_545 S
C1116 C1118 1.384 . S
C1117 C1116 1.377 1_565 S
C1117 C1123 1.390 . S
C1118 H1109 0.930 . S
C1118 C1116 1.384 . S
C1118 C1119 1.372 . S
C1119 C1118 1.372 . S
C1119 C1120 1.400 1_545 S
C1119 C1124 1.490 . S
C1120 H1110 0.930 . S
C1120 C1119 1.400 1_565 S
C1120 C1123 1.386 . S
H1121 C1137 0.930 . S
H1122 C1138 0.913 1_565 S
C1123 H1111 0.929 . S
C1123 C1117 1.390 . S
C1123 C1120 1.386 . S
C1124 C1119 1.490 . S
C1124 C1126 1.395 1_554 S
C1124 C1127 1.403 1_545 S
H1125 C1131 0.930 1_565 S
C1126 H1112 0.930 . S
C1126 C1124 1.395 1_556 S
C1126 C1129 1.403 . S
C1127 C1124 1.403 1_565 S
C1127 C1128 1.524 . S
C1127 C1131 1.400 1_564 S
C1128 H1113 0.960 . S
C1128 H1114 0.960 . S
C1128 H1115 0.960 . S
C1128 C1127 1.524 . S
C1129 C1126 1.403 . S
C1129 C1130 1.392 . S
C1129 C1133 1.495 . S
C1130 C1129 1.392 . S
C1130 C1131 1.385 . S
C1130 C1132 1.478 . S
C1131 H1125 0.930 1_545 S
C1131 C1127 1.400 1_546 S
C1131 C1130 1.385 . S
C1132 C1130 1.478 . S
C1132 C1134 1.381 . S
C1132 C1138 1.383 . S
C1133 C1129 1.495 . S
C1133 H1139 0.959 . S
C1133 H1140 0.961 . S
C1133 H1141 0.960 . S
C1134 C1132 1.381 . S
C1134 C1135 1.394 . S
C1134 H1142 0.930 . S
C1135 C1134 1.394 . S
C1135 C1136 1.383 . S
C1135 H1143 0.929 . S
C1136 C1135 1.383 . S
C1136 C1137 1.377 . S
C1137 H1121 0.930 . S
C1137 C1136 1.377 . S
C1137 C1138 1.379 . S
C1138 H1122 0.913 1_545 S
C1138 C1132 1.383 . S
C1138 C1137 1.379 . S
H1139 C1133 0.959 . S
H1140 C1133 0.961 . S
H1141 C1133 0.960 . S
H1142 C1134 0.930 . S
H1143 C1135 0.929 . S
H1144 C1152 0.929 . S
H1145 C1154 0.930 . S
H1146 C1156 0.930 . S
H1147 C1159 0.929 . S
H1148 C1162 0.930 . S
H1149 C1164 0.960 . S
H1150 C1164 0.960 . S
H1151 C1164 0.960 . S
C1152 H1144 0.929 . S
C1152 C1153 1.377 . S
C1152 C1154 1.384 . S
C1153 C1152 1.377 . S
C1153 C1159 1.390 . S
C1154 H1145 0.930 . S
C1154 C1152 1.384 . S
C1154 C1155 1.372 . S
C1155 C1154 1.372 . S
C1155 C1156 1.400 . S
C1155 C1160 1.490 . S
C1156 H1146 0.930 . S
C1156 C1155 1.400 . S
C1156 C1159 1.386 . S
H1157 C1173 0.930 . S
H1158 C1174 0.931 . S
C1159 H1147 0.929 . S
C1159 C1153 1.390 . S
C1159 C1156 1.386 . S
C1160 C1155 1.490 . S
C1160 C1162 1.395 1_554 S
C1160 C1163 1.403 . S
H1161 C1167 0.930 . S
C1162 H1148 0.930 . S
C1162 C1160 1.395 1_556 S
C1162 C1165 1.403 . S
C1163 C1160 1.403 . S
C1163 C1164 1.524 . S
C1163 C1167 1.400 1_554 S
C1164 H1149 0.960 . S
C1164 H1150 0.960 . S
C1164 H1151 0.960 . S
C1164 C1163 1.524 . S
C1165 C1162 1.403 . S
C1165 C1166 1.392 . S
C1165 C1169 1.495 . S
C1166 C1165 1.392 . S
C1166 C1167 1.385 . S
C1166 C1168 1.478 . S
C1167 H1161 0.930 . S
C1167 C1163 1.400 1_556 S
C1167 C1166 1.385 . S
C1168 C1166 1.478 . S
C1168 C1170 1.381 . S
C1168 C1174 1.383 . S
C1169 C1165 1.495 . S
C1169 H1175 0.959 . S
C1169 H1176 0.961 . S
C1169 H1177 0.960 . S
C1170 C1168 1.381 . S
C1170 C1171 1.394 . S
C1170 H1178 0.930 . S
C1171 C1170 1.394 . S
C1171 C1172 1.383 . S
C1171 H1179 0.929 . S
C1172 C1171 1.383 . S
C1172 C1173 1.377 . S
C1173 H1157 0.930 . S
C1173 C1172 1.377 . S
C1173 C1174 1.379 . S
C1174 H1158 0.931 . S
C1174 C1168 1.383 . S
C1174 C1173 1.379 . S
H1175 C1169 0.959 . S
H1176 C1169 0.961 . S
H1177 C1169 0.960 . S
H1178 C1170 0.930 . S
H1179 C1171 0.929 . S
H1180 C1188 0.929 . S
H1181 C1190 0.930 . S
H1182 C1192 0.930 1_556 S
H1183 C1195 0.929 . S
H1184 C1198 0.927 1_554 S
H1185 C1200 0.960 1_556 S
H1186 C1200 0.960 . S
H1187 C1200 0.960 1_556 S
C1188 H1180 0.929 . S
C1188 C1189 1.377 . S
C1188 C1190 1.384 . S
C1189 C1188 1.377 . S
C1189 C1195 1.390 . S
C1190 H1181 0.930 . S
C1190 C1188 1.384 . S
C1190 C1191 1.372 . S
C1191 C1190 1.372 . S
C1191 C1192 1.400 . S
C1191 C1196 1.490 . S
C1192 H1182 0.930 1_554 S
C1192 C1191 1.400 . S
C1192 C1195 1.386 . S
H1193 C1209 0.930 . S
H1194 C1210 0.931 . S
C1195 H1183 0.929 . S
C1195 C1189 1.390 . S
C1195 C1192 1.386 . S
C1196 C1191 1.490 . S
C1196 C1198 1.393 1_554 S
C1196 C1199 1.403 1_554 S
H1197 C1203 0.930 . S
C1198 H1184 0.927 1_556 S
C1198 C1196 1.393 1_556 S
C1198 C1201 1.408 . S
C1199 C1196 1.403 1_556 S
C1199 C1200 1.524 1_556 S
C1199 C1203 1.400 . S
C1200 H1185 0.960 1_554 S
C1200 H1186 0.960 . S
C1200 H1187 0.960 1_554 S
C1200 C1199 1.524 1_554 S
C1201 C1198 1.408 . S
C1201 C1202 1.392 . S
C1201 C1205 1.495 . S
C1202 C1201 1.392 . S
C1202 C1203 1.385 . S
C1202 C1204 1.478 . S
C1203 H1197 0.930 . S
C1203 C1199 1.400 . S
C1203 C1202 1.385 . S
C1204 C1202 1.478 . S
C1204 C1206 1.381 . S
C1204 C1210 1.383 . S
C1205 C1201 1.495 . S
C1205 H1211 0.959 . S
C1205 H1212 0.961 . S
C1205 H1213 0.960 . S
C1206 C1204 1.381 . S
C1206 C1207 1.394 . S
C1206 H1214 0.930 . S
C1207 C1206 1.394 . S
C1207 C1208 1.383 . S
C1207 H1215 0.929 . S
C1208 C1207 1.383 . S
C1208 C1209 1.377 . S
C1209 H1193 0.930 . S
C1209 C1208 1.377 . S
C1209 C1210 1.379 . S
C1210 H1194 0.931 . S
C1210 C1204 1.383 . S
C1210 C1209 1.379 . S
H1211 C1205 0.959 . S
H1212 C1205 0.961 . S
H1213 C1205 0.960 . S
H1214 C1206 0.930 . S
H1215 C1207 0.929 . S
H1216 C1224 0.929 . S
H1217 C1226 0.930 . S
H1218 C1228 0.930 . S
H1219 C1231 0.929 . S
H1220 C1234 0.930 . S
H1221 C1236 0.960 . S
H1222 C1236 0.960 . S
H1223 C1236 0.960 . S
C1224 H1216 0.929 . S
C1224 C1225 1.377 1_655 S
C1224 C1226 1.384 . S
C1225 C1224 1.377 1_455 S
C1225 C1231 1.390 . S
C1226 H1217 0.930 . S
C1226 C1224 1.384 . S
C1226 C1227 1.372 1_655 S
C1227 C1226 1.372 1_455 S
C1227 C1228 1.400 . S
C1227 C1232 1.490 . S
C1228 H1218 0.930 . S
C1228 C1227 1.400 . S
C1228 C1231 1.386 . S
H1229 C1245 0.930 . S
H1230 C1246 0.931 . S
C1231 H1219 0.929 . S
C1231 C1225 1.390 . S
C1231 C1228 1.386 . S
C1232 C1227 1.490 . S
C1232 C1234 1.395 1_455 S
C1232 C1235 1.403 . S
H1233 C1239 0.930 . S
C1234 H1220 0.930 . S
C1234 C1232 1.395 1_655 S
C1234 C1237 1.403 . S
C1235 C1232 1.403 . S
C1235 C1236 1.524 . S
C1235 C1239 1.400 . S
C1236 H1221 0.960 . S
C1236 H1222 0.960 . S
C1236 H1223 0.960 . S
C1236 C1235 1.524 . S
C1237 C1234 1.403 . S
C1237 C1238 1.392 1_655 S
C1237 C1241 1.495 . S
C1238 C1237 1.392 1_455 S
C1238 C1239 1.385 . S
C1238 C1240 1.478 . S
C1239 H1233 0.930 . S
C1239 C1235 1.400 . S
C1239 C1238 1.385 . S
C1240 C1238 1.478 . S
C1240 C1242 1.381 1_455 S
C1240 C1246 1.383 . S
C1241 C1237 1.495 . S
C1241 H1247 0.959 . S
C1241 H1248 0.961 . S
C1241 H1249 0.960 . S
C1242 C1240 1.381 1_655 S
C1242 C1243 1.394 . S
C1242 H1250 0.930 . S
C1243 C1242 1.394 . S
C1243 C1244 1.383 1_655 S
C1243 H1251 0.929 . S
C1244 C1243 1.383 1_455 S
C1244 C1245 1.377 . S
C1245 H1229 0.930 . S
C1245 C1244 1.377 . S
C1245 C1246 1.379 . S
C1246 H1230 0.931 . S
C1246 C1240 1.383 . S
C1246 C1245 1.379 . S
H1247 C1241 0.959 . S
H1248 C1241 0.961 . S
H1249 C1241 0.960 . S
H1250 C1242 0.930 . S
H1251 C1243 0.929 . S
H1252 C1260 0.929 1_565 S
H1253 C1262 0.930 1_565 S
H1254 C1264 0.930 . S
H1255 C1267 0.929 . S
H1256 C1270 0.930 . S
H1257 C1272 0.960 . S
H1258 C1272 0.960 . S
H1259 C1272 0.960 1_545 S
C1260 H1252 0.929 1_545 S
C1260 C1261 1.377 . S
C1260 C1262 1.384 . S
C1261 C1260 1.377 . S
C1261 C1267 1.390 . S
C1262 H1253 0.930 1_545 S
C1262 C1260 1.384 . S
C1262 C1263 1.372 . S
C1263 C1262 1.372 . S
C1263 C1264 1.400 . S
C1263 C1268 1.490 . S
C1264 H1254 0.930 . S
C1264 C1263 1.400 . S
C1264 C1267 1.386 . S
H1265 C1281 0.930 . S
H1266 C1282 0.931 . S
C1267 H1255 0.929 . S
C1267 C1261 1.390 . S
C1267 C1264 1.386 . S
C1268 C1263 1.490 . S
C1268 C1270 1.395 . S
C1268 C1271 1.403 . S
H1269 C1275 0.930 . S
C1270 H1256 0.930 . S
C1270 C1268 1.395 . S
C1270 C1273 1.403 . S
C1271 C1268 1.403 . S
C1271 C1272 1.524 1_545 S
C1271 C1275 1.400 . S
C1272 H1257 0.960 . S
C1272 H1258 0.960 . S
C1272 H1259 0.960 1_565 S
C1272 C1271 1.524 1_565 S
C1273 C1270 1.403 . S
C1273 C1274 1.392 . S
C1273 C1277 1.495 . S
C1274 C1273 1.392 . S
C1274 C1275 1.385 . S
C1274 C1276 1.478 . S
C1275 H1269 0.930 . S
C1275 C1271 1.400 . S
C1275 C1274 1.385 . S
C1276 C1274 1.478 . S
C1276 C1278 1.381 . S
C1276 C1282 1.383 . S
C1277 C1273 1.495 . S
C1277 H1283 0.959 . S
C1277 H1284 0.961 . S
C1277 H1285 0.960 . S
C1278 C1276 1.381 . S
C1278 C1279 1.394 . S
C1278 H1286 0.930 1_545 S
C1279 C1278 1.394 . S
C1279 C1280 1.383 . S
C1279 H1287 0.929 1_545 S
C1280 C1279 1.383 . S
C1280 C1281 1.377 . S
C1281 H1265 0.930 . S
C1281 C1280 1.377 . S
C1281 C1282 1.379 . S
C1282 H1266 0.931 . S
C1282 C1276 1.383 . S
C1282 C1281 1.379 . S
H1283 C1277 0.959 . S
H1284 C1277 0.961 . S
H1285 C1277 0.960 . S
H1286 C1278 0.930 1_565 S
H1287 C1279 0.929 1_565 S
H1288 C1296 0.929 . S
H1289 C1298 0.930 . S
H1290 C1300 0.930 . S
H1291 C1303 0.929 . S
H1292 C1306 0.930 . S
H1293 C1308 0.960 . S
H1294 C1308 0.960 . S
H1295 C1308 0.960 . S
C1296 H1288 0.929 . S
C1296 C1297 1.377 . S
C1296 C1298 1.384 . S
C1297 C1296 1.377 . S
C1297 C1303 1.390 . S
C1298 H1289 0.930 . S
C1298 C1296 1.384 . S
C1298 C1299 1.372 . S
C1299 C1298 1.372 . S
C1299 C1300 1.400 . S
C1299 C1304 1.490 . S
C1300 H1290 0.930 . S
C1300 C1299 1.400 . S
C1300 C1303 1.386 . S
H1301 C1317 0.930 . S
H1302 C1318 0.931 . S
C1303 H1291 0.929 . S
C1303 C1297 1.390 . S
C1303 C1300 1.386 . S
C1304 C1299 1.490 . S
C1304 C1306 1.395 . S
C1304 C1307 1.403 . S
H1305 C1311 0.930 . S
C1306 H1292 0.930 . S
C1306 C1304 1.395 . S
C1306 C1309 1.403 . S
C1307 C1304 1.403 . S
C1307 C1308 1.524 . S
C1307 C1311 1.400 . S
C1308 H1293 0.960 . S
C1308 H1294 0.960 . S
C1308 H1295 0.960 . S
C1308 C1307 1.524 . S
C1309 C1306 1.403 . S
C1309 C1310 1.392 . S
C1309 C1313 1.495 . S
C1310 C1309 1.392 . S
C1310 C1311 1.385 . S
C1310 C1312 1.478 . S
C1311 H1305 0.930 . S
C1311 C1307 1.400 . S
C1311 C1310 1.385 . S
C1312 C1310 1.478 . S
C1312 C1314 1.381 . S
C1312 C1318 1.383 . S
C1313 C1309 1.495 . S
C1313 H1319 0.959 . S
C1313 H1320 0.961 . S
C1313 H1321 0.960 . S
C1314 C1312 1.381 . S
C1314 C1315 1.394 . S
C1314 H1322 0.930 . S
C1315 C1314 1.394 . S
C1315 C1316 1.383 . S
C1315 H1323 0.929 . S
C1316 C1315 1.383 . S
C1316 C1317 1.377 . S
C1317 H1301 0.930 . S
C1317 C1316 1.377 . S
C1317 C1318 1.379 . S
C1318 H1302 0.931 . S
C1318 C1312 1.383 . S
C1318 C1317 1.379 . S
H1319 C1313 0.959 . S
H1320 C1313 0.961 . S
H1321 C1313 0.960 . S
H1322 C1314 0.930 . S
H1323 C1315 0.929 . S
H1324 C1332 0.929 . S
H1325 C1334 0.930 . S
H1326 C1336 0.930 . S
H1327 C1339 0.929 . S
H1328 C1342 0.930 . S
H1329 C1344 0.960 . S
H1330 C1344 0.960 . S
H1331 C1344 0.960 . S
C1332 H1324 0.929 . S
C1332 C1333 1.377 . S
C1332 C1334 1.384 . S
C1333 C1332 1.377 . S
C1333 C1339 1.390 . S
C1334 H1325 0.930 . S
C1334 C1332 1.384 . S
C1334 C1335 1.372 . S
C1335 C1334 1.372 . S
C1335 C1336 1.400 . S
C1335 C1340 1.490 . S
C1336 H1326 0.930 . S
C1336 C1335 1.400 . S
C1336 C1339 1.386 . S
H1337 C1353 0.930 . S
H1338 C1354 0.931 . S
C1339 H1327 0.929 . S
C1339 C1333 1.390 . S
C1339 C1336 1.386 . S
C1340 C1335 1.490 . S
C1340 C1342 1.395 . S
C1340 C1343 1.403 . S
H1341 C1347 0.930 . S
C1342 H1328 0.930 . S
C1342 C1340 1.395 . S
C1342 C1345 1.403 . S
C1343 C1340 1.403 . S
C1343 C1344 1.524 . S
C1343 C1347 1.400 . S
C1344 H1329 0.960 . S
C1344 H1330 0.960 . S
C1344 H1331 0.960 . S
C1344 C1343 1.524 . S
C1345 C1342 1.403 . S
C1345 C1346 1.392 . S
C1345 C1349 1.495 . S
C1346 C1345 1.392 . S
C1346 C1347 1.385 . S
C1346 C1348 1.478 . S
C1347 H1341 0.930 . S
C1347 C1343 1.400 . S
C1347 C1346 1.385 . S
C1348 C1346 1.478 . S
C1348 C1350 1.381 . S
C1348 C1354 1.383 . S
C1349 C1345 1.495 . S
C1349 H1355 0.959 . S
C1349 H1356 0.961 . S
C1349 H1357 0.960 . S
C1350 C1348 1.381 . S
C1350 C1351 1.394 . S
C1350 H1358 0.930 . S
C1351 C1350 1.394 . S
C1351 C1352 1.383 . S
C1351 H1359 0.929 . S
C1352 C1351 1.383 . S
C1352 C1353 1.377 . S
C1353 H1337 0.930 . S
C1353 C1352 1.377 . S
C1353 C1354 1.379 . S
C1354 H1338 0.931 . S
C1354 C1348 1.383 . S
C1354 C1353 1.379 . S
H1355 C1349 0.959 . S
H1356 C1349 0.961 . S
H1357 C1349 0.960 . S
H1358 C1350 0.930 . S
H1359 C1351 0.929 . S
H1360 C1368 0.929 . S
H1361 C1370 0.930 . S
H1362 C1372 0.930 . S
H1363 C1375 0.929 . S
H1364 C1378 0.930 . S
H1365 C1380 0.963 . S
H1366 C1380 0.939 1_655 S
H1367 C1380 0.982 . S
C1368 H1360 0.929 . S
C1368 C1369 1.377 . S
C1368 C1370 1.384 . S
C1369 C1368 1.377 . S
C1369 C1375 1.390 1_655 S
C1370 H1361 0.930 . S
C1370 C1368 1.384 . S
C1370 C1371 1.372 . S
C1371 C1370 1.372 . S
C1371 C1372 1.400 1_655 S
C1371 C1376 1.490 . S
C1372 H1362 0.930 . S
C1372 C1371 1.400 1_455 S
C1372 C1375 1.386 . S
H1373 C1389 0.930 . S
H1374 C1390 0.931 . S
C1375 H1363 0.929 . S
C1375 C1369 1.390 1_455 S
C1375 C1372 1.386 . S
C1376 C1371 1.490 . S
C1376 C1378 1.395 . S
C1376 C1379 1.403 . S
H1377 C1383 0.930 . S
C1378 H1364 0.930 . S
C1378 C1376 1.395 . S
C1378 C1381 1.403 . S
C1379 C1376 1.403 . S
C1379 C1380 1.520 1_655 S
C1379 C1383 1.400 . S
C1380 H1365 0.963 . S
C1380 H1366 0.939 1_455 S
C1380 H1367 0.982 . S
C1380 C1379 1.520 1_455 S
C1381 C1378 1.403 . S
C1381 C1382 1.392 . S
C1381 C1385 1.495 . S
C1382 C1381 1.392 . S
C1382 C1383 1.385 . S
C1382 C1384 1.478 . S
C1383 H1377 0.930 . S
C1383 C1379 1.400 . S
C1383 C1382 1.385 . S
C1384 C1382 1.478 . S
C1384 C1386 1.381 . S
C1384 C1390 1.383 1_655 S
C1385 C1381 1.495 . S
C1385 H1391 0.959 . S
C1385 H1392 0.961 . S
C1385 H1393 0.960 . S
C1386 C1384 1.381 . S
C1386 C1387 1.394 . S
C1386 H1394 0.930 . S
C1387 C1386 1.394 . S
C1387 C1388 1.383 . S
C1387 H1395 0.929 . S
C1388 C1387 1.383 . S
C1388 C1389 1.377 1_655 S
C1389 H1373 0.930 . S
C1389 C1388 1.377 1_455 S
C1389 C1390 1.379 . S
C1390 H1374 0.931 . S
C1390 C1384 1.383 1_455 S
C1390 C1389 1.379 . S
H1391 C1385 0.959 . S
H1392 C1385 0.961 . S
H1393 C1385 0.960 . S
H1394 C1386 0.930 . S
H1395 C1387 0.929 . S
H1396 C1404 0.929 . S
H1397 C1406 0.930 . S
H1398 C1408 0.930 . S
H1399 C1411 0.929 . S
H1400 C1414 0.930 . S
H1401 C1416 0.960 . S
H1402 C1416 0.960 . S
H1403 C1416 0.960 . S
C1404 H1396 0.929 . S
C1404 C1405 1.377 . S
C1404 C1406 1.384 . S
C1405 C1404 1.377 . S
C1405 C1411 1.390 1_565 S
C1406 H1397 0.930 . S
C1406 C1404 1.384 . S
C1406 C1407 1.372 . S
C1407 C1406 1.372 . S
C1407 C1408 1.400 1_565 S
C1407 C1412 1.490 . S
C1408 H1398 0.930 . S
C1408 C1407 1.400 1_545 S
C1408 C1411 1.386 . S
H1409 C1425 0.930 . S
H1410 C1426 0.931 . S
C1411 H1399 0.929 . S
C1411 C1405 1.390 1_545 S
C1411 C1408 1.386 . S
C1412 C1407 1.490 . S
C1412 C1414 1.395 1_565 S
C1412 C1415 1.403 . S
H1413 C1419 0.930 . S
C1414 H1400 0.930 . S
C1414 C1412 1.395 1_545 S
C1414 C1417 1.403 . S
C1415 C1412 1.403 . S
C1415 C1416 1.524 . S
C1415 C1419 1.400 . S
C1416 H1401 0.960 . S
C1416 H1402 0.960 . S
C1416 H1403 0.960 . S
C1416 C1415 1.524 . S
C1417 C1414 1.403 . S
C1417 C1418 1.392 1_545 S
C1417 C1421 1.495 . S
C1418 C1417 1.392 1_565 S
C1418 C1419 1.385 . S
C1418 C1420 1.478 . S
C1419 H1413 0.930 . S
C1419 C1415 1.400 . S
C1419 C1418 1.385 . S
C1420 C1418 1.478 . S
C1420 C1422 1.381 . S
C1420 C1426 1.383 1_565 S
C1421 C1417 1.495 . S
C1421 H1427 0.959 . S
C1421 H1428 0.961 . S
C1421 H1429 0.960 . S
C1422 C1420 1.381 . S
C1422 C1423 1.394 . S
C1422 H1430 0.930 . S
C1423 C1422 1.394 . S
C1423 C1424 1.383 . S
C1423 H1431 0.929 . S
C1424 C1423 1.383 . S
C1424 C1425 1.377 1_565 S
C1425 H1409 0.930 . S
C1425 C1424 1.377 1_545 S
C1425 C1426 1.379 . S
C1426 H1410 0.931 . S
C1426 C1420 1.383 1_545 S
C1426 C1425 1.379 . S
H1427 C1421 0.959 . S
H1428 C1421 0.961 . S
H1429 C1421 0.960 . S
H1430 C1422 0.930 . S
H1431 C1423 0.929 . S
H1432 C1440 0.929 . S
H1433 C1442 0.930 . S
H1434 C1444 0.930 . S
H1435 C1447 0.929 . S
H1436 C1450 0.930 . S
H1437 C1452 0.960 . S
H1438 C1452 0.960 . S
H1439 C1452 0.960 . S
C1440 H1432 0.929 . S
C1440 C1441 1.377 . S
C1440 C1442 1.384 . S
C1441 C1440 1.377 . S
C1441 C1447 1.390 . S
C1442 H1433 0.930 . S
C1442 C1440 1.384 . S
C1442 C1443 1.372 . S
C1443 C1442 1.372 . S
C1443 C1444 1.400 . S
C1443 C1448 1.490 . S
C1444 H1434 0.930 . S
C1444 C1443 1.400 . S
C1444 C1447 1.386 . S
H1445 C1461 0.930 . S
H1446 C1462 0.931 . S
C1447 H1435 0.929 . S
C1447 C1441 1.390 . S
C1447 C1444 1.386 . S
C1448 C1443 1.490 . S
C1448 C1450 1.395 . S
C1448 C1451 1.403 . S
H1449 C1455 0.930 . S
C1450 H1436 0.930 . S
C1450 C1448 1.395 . S
C1450 C1453 1.403 . S
C1451 C1448 1.403 . S
C1451 C1452 1.524 . S
C1451 C1455 1.400 . S
C1452 H1437 0.960 . S
C1452 H1438 0.960 . S
C1452 H1439 0.960 . S
C1452 C1451 1.524 . S
C1453 C1450 1.403 . S
C1453 C1454 1.392 . S
C1453 C1457 1.495 . S
C1454 C1453 1.392 . S
C1454 C1455 1.385 . S
C1454 C1456 1.478 . S
C1455 H1449 0.930 . S
C1455 C1451 1.400 . S
C1455 C1454 1.385 . S
C1456 C1454 1.478 . S
C1456 C1458 1.381 . S
C1456 C1462 1.383 . S
C1457 C1453 1.495 . S
C1457 H1463 0.959 . S
C1457 H1464 0.961 . S
C1457 H1465 0.960 . S
C1458 C1456 1.381 . S
C1458 C1459 1.394 . S
C1458 H1466 0.930 . S
C1459 C1458 1.394 . S
C1459 C1460 1.383 . S
C1459 H1467 0.929 . S
C1460 C1459 1.383 . S
C1460 C1461 1.377 . S
C1461 H1445 0.930 . S
C1461 C1460 1.377 . S
C1461 C1462 1.379 . S
C1462 H1446 0.931 . S
C1462 C1456 1.383 . S
C1462 C1461 1.379 . S
H1463 C1457 0.959 . S
H1464 C1457 0.961 . S
H1465 C1457 0.960 . S
H1466 C1458 0.930 . S
H1467 C1459 0.929 . S
H1468 C1476 0.929 . S
H1469 C1478 0.930 . S
H1470 C1480 0.930 . S
H1471 C1483 0.929 . S
H1472 C1486 0.930 . S
H1473 C1488 0.960 . S
H1474 C1488 0.960 . S
H1475 C1488 0.960 . S
C1476 H1468 0.929 . S
C1476 C1477 1.377 . S
C1476 C1478 1.384 . S
C1477 C1476 1.377 . S
C1477 C1483 1.390 . S
C1478 H1469 0.930 . S
C1478 C1476 1.384 . S
C1478 C1479 1.372 . S
C1479 C1478 1.372 . S
C1479 C1480 1.400 . S
C1479 C1484 1.490 . S
C1480 H1470 0.930 . S
C1480 C1479 1.400 . S
C1480 C1483 1.386 . S
H1481 C1497 0.930 . S
H1482 C1498 0.931 . S
C1483 H1471 0.929 . S
C1483 C1477 1.390 . S
C1483 C1480 1.386 . S
C1484 C1479 1.490 . S
C1484 C1486 1.395 . S
C1484 C1487 1.403 . S
H1485 C1491 0.930 . S
C1486 H1472 0.930 . S
C1486 C1484 1.395 . S
C1486 C1489 1.403 . S
C1487 C1484 1.403 . S
C1487 C1488 1.524 . S
C1487 C1491 1.400 . S
C1488 H1473 0.960 . S
C1488 H1474 0.960 . S
C1488 H1475 0.960 . S
C1488 C1487 1.524 . S
C1489 C1486 1.403 . S
C1489 C1490 1.392 . S
C1489 C1493 1.495 . S
C1490 C1489 1.392 . S
C1490 C1491 1.385 . S
C1490 C1492 1.478 . S
C1491 H1485 0.930 . S
C1491 C1487 1.400 . S
C1491 C1490 1.385 . S
C1492 C1490 1.478 . S
C1492 C1494 1.381 . S
C1492 C1498 1.383 . S
C1493 C1489 1.495 . S
C1493 H1499 0.959 . S
C1493 H1500 0.961 . S
C1493 H1501 0.960 . S
C1494 C1492 1.381 . S
C1494 C1495 1.394 . S
C1494 H1502 0.930 . S
C1495 C1494 1.394 . S
C1495 C1496 1.383 . S
C1495 H1503 0.929 . S
C1496 C1495 1.383 . S
C1496 C1497 1.377 . S
C1497 H1481 0.930 . S
C1497 C1496 1.377 . S
C1497 C1498 1.379 . S
C1498 H1482 0.931 . S
C1498 C1492 1.383 . S
C1498 C1497 1.379 . S
H1499 C1493 0.959 . S
H1500 C1493 0.961 . S
H1501 C1493 0.960 . S
H1502 C1494 0.930 . S
H1503 C1495 0.929 . S
C649 C391 1.973 . S
C668 C490 1.998 . S
C704 C530 2.013 . S
C685 C451 1.965 . S
C740 C570 2.002 . S
C721 C241 1.764 . S
C776 C610 1.999 1_455 S
C757 C331 1.755 1_455 S
C812 C499 2.011 1_565 S
C793 C121 1.776 . S
C829 C211 1.969 . S
C848 C539 2.001 . S
C865 C31 1.970 . S
C884 C579 2.011 . S
C901 C91 1.763 1_455 S
C920 C619 2.013 1_655 S
C956 C496 0.176 . S
C937 C301 0.489 1_455 S
C992 C536 0.177 . S
C973 C380 0.116 . S
C1028 C576 0.248 . S
C1009 C440 0.100 . S
C1045 C260 0.518 . S
C1064 C616 0.289 . S
C1081 C61 0.453 . S
C1100 C487 0.213 . S
C1136 C527 0.355 . S
C1117 C140 0.412 . S
C1172 C567 0.338 . S
C1153 C200 0.267 . S
C1189 C20 0.313 . S
C1208 C607 0.377 . S
C1225 C320 2.661 1_455 S
C1244 C491 2.815 . S
C1261 C361 2.304 . S
C1280 C531 2.822 . S
C1316 C571 2.815 . S
C1297 C421 2.298 . S
C1352 C611 2.821 . S
C1333 C271 2.658 . S
C1369 C80 2.653 . S
C1388 C482 2.823 . S
C1424 C522 2.810 . S
C1405 C151 2.654 . S
C1460 C562 2.809 . S
C1441 C181 2.317 . S
C1477 C1 2.312 . S
C1496 C602 2.831 . S
