# Generated by pormake.
# Topology ptr, (4,4)-cn, num edge types: 1
# Building blocks:
#     Node 0, Type 0, BuildingBlock: KUFVIS_clean_sbu_0, # of connection points: 4
#     Node 1, Type 0, BuildingBlock: KUFVIS_clean_sbu_0, # of connection points: 4
#     Node 2, Type 0, BuildingBlock: KUFVIS_clean_sbu_0, # of connection points: 4
#     Node 3, Type 0, BuildingBlock: KUFVIS_clean_sbu_0, # of connection points: 4
#     Node 4, Type 0, BuildingBlock: KUFVIS_clean_sbu_0, # of connection points: 4
#     Node 5, Type 0, BuildingBlock: KUFVIS_clean_sbu_0, # of connection points: 4
#     Node 6, Type 0, BuildingBlock: KUFVIS_clean_sbu_0, # of connection points: 4
#     Node 7, Type 0, BuildingBlock: KUFVIS_clean_sbu_0, # of connection points: 4
#     Node 8, Type 0, BuildingBlock: KUFVIS_clean_sbu_0, # of connection points: 4
#     Node 9, Type 0, BuildingBlock: KUFVIS_clean_sbu_0, # of connection points: 4
#     Node 10, Type 0, BuildingBlock: KUFVIS_clean_sbu_0, # of connection points: 4
#     Node 11, Type 0, BuildingBlock: KUFVIS_clean_sbu_0, # of connection points: 4
#     Node 12, Type 0, BuildingBlock: KUFVIS_clean_sbu_0, # of connection points: 4
#     Node 13, Type 0, BuildingBlock: KUFVIS_clean_sbu_0, # of connection points: 4
#     Node 14, Type 0, BuildingBlock: KUFVIS_clean_sbu_0, # of connection points: 4
#     Node 15, Type 0, BuildingBlock: KUFVIS_clean_sbu_0, # of connection points: 4
#     Node 16, Type 0, BuildingBlock: KUFVIS_clean_sbu_0, # of connection points: 4
#     Node 17, Type 0, BuildingBlock: KUFVIS_clean_sbu_0, # of connection points: 4
#     Node 18, Type 1, BuildingBlock: GIZVER_clean_linker_0, # of connection points: 4
#     Node 19, Type 1, BuildingBlock: GIZVER_clean_linker_0, # of connection points: 4
#     Node 20, Type 1, BuildingBlock: GIZVER_clean_linker_0, # of connection points: 4
#     Node 21, Type 1, BuildingBlock: GIZVER_clean_linker_0, # of connection points: 4
#     Node 22, Type 1, BuildingBlock: GIZVER_clean_linker_0, # of connection points: 4
#     Node 23, Type 1, BuildingBlock: GIZVER_clean_linker_0, # of connection points: 4
#     Node 24, Type 1, BuildingBlock: GIZVER_clean_linker_0, # of connection points: 4
#     Node 25, Type 1, BuildingBlock: GIZVER_clean_linker_0, # of connection points: 4
#     Node 26, Type 1, BuildingBlock: GIZVER_clean_linker_0, # of connection points: 4
#     Node 27, Type 1, BuildingBlock: GIZVER_clean_linker_0, # of connection points: 4
#     Node 28, Type 1, BuildingBlock: GIZVER_clean_linker_0, # of connection points: 4
#     Node 29, Type 1, BuildingBlock: GIZVER_clean_linker_0, # of connection points: 4
#     Node 30, Type 1, BuildingBlock: GIZVER_clean_linker_0, # of connection points: 4
#     Node 31, Type 1, BuildingBlock: GIZVER_clean_linker_0, # of connection points: 4
#     Node 32, Type 1, BuildingBlock: GIZVER_clean_linker_0, # of connection points: 4
#     Node 33, Type 1, BuildingBlock: GIZVER_clean_linker_0, # of connection points: 4
#     Node 34, Type 1, BuildingBlock: GIZVER_clean_linker_0, # of connection points: 4
#     Node 35, Type 1, BuildingBlock: GIZVER_clean_linker_0, # of connection points: 4
#     Edge 36, Type (0, 1), BuildingBlock: ZUJKAS_clean_linker_0, # of connection points: 2
#     Edge 37, Type (0, 1), BuildingBlock: ZUJKAS_clean_linker_0, # of connection points: 2
#     Edge 38, Type (0, 1), BuildingBlock: ZUJKAS_clean_linker_0, # of connection points: 2
#     Edge 39, Type (0, 1), BuildingBlock: ZUJKAS_clean_linker_0, # of connection points: 2
#     Edge 40, Type (0, 1), BuildingBlock: ZUJKAS_clean_linker_0, # of connection points: 2
#     Edge 41, Type (0, 1), BuildingBlock: ZUJKAS_clean_linker_0, # of connection points: 2
#     Edge 42, Type (0, 1), BuildingBlock: ZUJKAS_clean_linker_0, # of connection points: 2
#     Edge 43, Type (0, 1), BuildingBlock: ZUJKAS_clean_linker_0, # of connection points: 2
#     Edge 44, Type (0, 1), BuildingBlock: ZUJKAS_clean_linker_0, # of connection points: 2
#     Edge 45, Type (0, 1), BuildingBlock: ZUJKAS_clean_linker_0, # of connection points: 2
#     Edge 46, Type (0, 1), BuildingBlock: ZUJKAS_clean_linker_0, # of connection points: 2
#     Edge 47, Type (0, 1), BuildingBlock: ZUJKAS_clean_linker_0, # of connection points: 2
#     Edge 48, Type (0, 1), BuildingBlock: ZUJKAS_clean_linker_0, # of connection points: 2
#     Edge 49, Type (0, 1), BuildingBlock: ZUJKAS_clean_linker_0, # of connection points: 2
#     Edge 50, Type (0, 1), BuildingBlock: ZUJKAS_clean_linker_0, # of connection points: 2
#     Edge 51, Type (0, 1), BuildingBlock: ZUJKAS_clean_linker_0, # of connection points: 2
#     Edge 52, Type (0, 1), BuildingBlock: ZUJKAS_clean_linker_0, # of connection points: 2
#     Edge 53, Type (0, 1), BuildingBlock: ZUJKAS_clean_linker_0, # of connection points: 2
#     Edge 54, Type (0, 1), BuildingBlock: ZUJKAS_clean_linker_0, # of connection points: 2
#     Edge 55, Type (0, 1), BuildingBlock: ZUJKAS_clean_linker_0, # of connection points: 2
#     Edge 56, Type (0, 1), BuildingBlock: ZUJKAS_clean_linker_0, # of connection points: 2
#     Edge 57, Type (0, 1), BuildingBlock: ZUJKAS_clean_linker_0, # of connection points: 2
#     Edge 58, Type (0, 1), BuildingBlock: ZUJKAS_clean_linker_0, # of connection points: 2
#     Edge 59, Type (0, 1), BuildingBlock: ZUJKAS_clean_linker_0, # of connection points: 2
#     Edge 60, Type (0, 1), BuildingBlock: ZUJKAS_clean_linker_0, # of connection points: 2
#     Edge 61, Type (0, 1), BuildingBlock: ZUJKAS_clean_linker_0, # of connection points: 2
#     Edge 62, Type (0, 1), BuildingBlock: ZUJKAS_clean_linker_0, # of connection points: 2
#     Edge 63, Type (0, 1), BuildingBlock: ZUJKAS_clean_linker_0, # of connection points: 2
#     Edge 64, Type (0, 1), BuildingBlock: ZUJKAS_clean_linker_0, # of connection points: 2
#     Edge 65, Type (0, 1), BuildingBlock: ZUJKAS_clean_linker_0, # of connection points: 2
#     Edge 66, Type (0, 1), BuildingBlock: ZUJKAS_clean_linker_0, # of connection points: 2
#     Edge 67, Type (0, 1), BuildingBlock: ZUJKAS_clean_linker_0, # of connection points: 2
#     Edge 68, Type (0, 1), BuildingBlock: ZUJKAS_clean_linker_0, # of connection points: 2
#     Edge 69, Type (0, 1), BuildingBlock: ZUJKAS_clean_linker_0, # of connection points: 2
#     Edge 70, Type (0, 1), BuildingBlock: ZUJKAS_clean_linker_0, # of connection points: 2
#     Edge 71, Type (0, 1), BuildingBlock: ZUJKAS_clean_linker_0, # of connection points: 2
#     Edge 72, Type (0, 1), BuildingBlock: ZUJKAS_clean_linker_0, # of connection points: 2
#     Edge 73, Type (0, 1), BuildingBlock: ZUJKAS_clean_linker_0, # of connection points: 2
#     Edge 74, Type (0, 1), BuildingBlock: ZUJKAS_clean_linker_0, # of connection points: 2
#     Edge 75, Type (0, 1), BuildingBlock: ZUJKAS_clean_linker_0, # of connection points: 2
#     Edge 76, Type (0, 1), BuildingBlock: ZUJKAS_clean_linker_0, # of connection points: 2
#     Edge 77, Type (0, 1), BuildingBlock: ZUJKAS_clean_linker_0, # of connection points: 2
#     Edge 78, Type (0, 1), BuildingBlock: ZUJKAS_clean_linker_0, # of connection points: 2
#     Edge 79, Type (0, 1), BuildingBlock: ZUJKAS_clean_linker_0, # of connection points: 2
#     Edge 80, Type (0, 1), BuildingBlock: ZUJKAS_clean_linker_0, # of connection points: 2
#     Edge 81, Type (0, 1), BuildingBlock: ZUJKAS_clean_linker_0, # of connection points: 2
#     Edge 82, Type (0, 1), BuildingBlock: ZUJKAS_clean_linker_0, # of connection points: 2
#     Edge 83, Type (0, 1), BuildingBlock: ZUJKAS_clean_linker_0, # of connection points: 2
#     Edge 84, Type (0, 1), BuildingBlock: ZUJKAS_clean_linker_0, # of connection points: 2
#     Edge 85, Type (0, 1), BuildingBlock: ZUJKAS_clean_linker_0, # of connection points: 2
#     Edge 86, Type (0, 1), BuildingBlock: ZUJKAS_clean_linker_0, # of connection points: 2
#     Edge 87, Type (0, 1), BuildingBlock: ZUJKAS_clean_linker_0, # of connection points: 2
#     Edge 88, Type (0, 1), BuildingBlock: ZUJKAS_clean_linker_0, # of connection points: 2
#     Edge 89, Type (0, 1), BuildingBlock: ZUJKAS_clean_linker_0, # of connection points: 2
#     Edge 90, Type (0, 1), BuildingBlock: ZUJKAS_clean_linker_0, # of connection points: 2
#     Edge 91, Type (0, 1), BuildingBlock: ZUJKAS_clean_linker_0, # of connection points: 2
#     Edge 92, Type (0, 1), BuildingBlock: ZUJKAS_clean_linker_0, # of connection points: 2
#     Edge 93, Type (0, 1), BuildingBlock: ZUJKAS_clean_linker_0, # of connection points: 2
#     Edge 94, Type (0, 1), BuildingBlock: ZUJKAS_clean_linker_0, # of connection points: 2
#     Edge 95, Type (0, 1), BuildingBlock: ZUJKAS_clean_linker_0, # of connection points: 2
#     Edge 96, Type (0, 1), BuildingBlock: ZUJKAS_clean_linker_0, # of connection points: 2
#     Edge 97, Type (0, 1), BuildingBlock: ZUJKAS_clean_linker_0, # of connection points: 2
#     Edge 98, Type (0, 1), BuildingBlock: ZUJKAS_clean_linker_0, # of connection points: 2
#     Edge 99, Type (0, 1), BuildingBlock: ZUJKAS_clean_linker_0, # of connection points: 2
#     Edge 100, Type (0, 1), BuildingBlock: ZUJKAS_clean_linker_0, # of connection points: 2
#     Edge 101, Type (0, 1), BuildingBlock: ZUJKAS_clean_linker_0, # of connection points: 2
#     Edge 102, Type (0, 1), BuildingBlock: ZUJKAS_clean_linker_0, # of connection points: 2
#     Edge 103, Type (0, 1), BuildingBlock: ZUJKAS_clean_linker_0, # of connection points: 2
#     Edge 104, Type (0, 1), BuildingBlock: ZUJKAS_clean_linker_0, # of connection points: 2
#     Edge 105, Type (0, 1), BuildingBlock: ZUJKAS_clean_linker_0, # of connection points: 2
#     Edge 106, Type (0, 1), BuildingBlock: ZUJKAS_clean_linker_0, # of connection points: 2
#     Edge 107, Type (0, 1), BuildingBlock: ZUJKAS_clean_linker_0, # of connection points: 2
# Relax obj value: 0.051
# Max RMSD: 0.132
# Mean RMSD: 0.084
data_MOF--net-ptr--node1-KUFVIS_clean_sbu_0--node2-GIZVER_clean_linker_0--edge1-ZUJKAS_clean_linker_0
_symmetry_space_group_name_H-M    P1
_symmetry_Int_Tables_number       1
_symmetry_cell_setting            triclinic
loop_
_symmetry_equiv_pos_as_xyz
'x, y, z'
_cell_length_a     102.41485
_cell_length_b     101.98994
_cell_length_c     62.895555
_cell_angle_alpha  89.872957
_cell_angle_beta   90.880535
_cell_angle_gamma 119.56198
loop_
_atom_site_label
_atom_site_type_symbol
_atom_site_fract_x
_atom_site_fract_y
_atom_site_fract_z
_atom_type_partial_charge
Mn0 Mn 0.00975 0.37205 0.99607 0.0
Mn1 Mn 0.04369 0.40231 0.98647 0.0
C2 C 0.01157 0.3909 0.97338 0.0
C3 C 0.99092 0.34718 0.98959 0.0
C4 C 0.02622 0.39895 0.02645 0.0
O5 O 0.02433 0.36515 0.00684 0.0
O6 O 0.04602 0.38546 0.99774 0.0
C7 C 0.05265 0.38926 0.95137 0.0
N8 N 0.05038 0.40043 0.95908 0.0
C9 C 0.06066 0.41536 0.92774 0.0
C10 C 0.06314 0.40403 0.91944 0.0
C11 C 0.059 0.39087 0.93124 0.0
C12 C 0.05394 0.41294 0.94764 0.0
H13 H 0.04972 0.37926 0.96058 0.0
C14 C 0.0386 0.37216 0.00527 0.0
O15 O 0.9924 0.35372 0.00781 0.0
O16 O 1.00057 0.35501 0.97511 0.0
N17 N 0.04369 0.41976 0.97539 0.0
C18 C 0.04023 0.42943 0.98551 0.0
C19 C 0.04385 0.44326 0.97605 0.0
C20 C 0.05131 0.44715 0.95655 0.0
C21 C 0.05467 0.43698 0.94636 0.0
C22 C 0.05066 0.42331 0.95647 0.0
H23 H 0.03495 0.42671 0.00083 0.0
O24 O 0.99892 0.38162 0.98208 0.0
O25 O 0.02277 0.38859 0.97749 0.0
O26 O 0.01489 0.38629 0.02152 0.0
O27 O 0.03776 0.40565 0.0148 0.0
C28 C 0.06198 0.43992 0.92669 0.0
C29 C 0.06474 0.42902 0.91721 0.0
H30 H 0.06824 0.40534 0.90405 0.0
H31 H 0.06088 0.38209 0.92494 0.0
H32 H 0.04118 0.45103 0.98396 0.0
H33 H 0.05434 0.45797 0.94951 0.0
H34 H 0.06539 0.45048 0.91859 0.0
H35 H 0.07013 0.43131 0.90191 0.0
Mn36 Mn 0.64 0.63833 0.01777 0.0
Mn37 Mn 0.63932 0.60622 0.03356 0.0
C38 C 0.62217 0.62259 0.04164 0.0
C39 C 0.64887 0.66421 0.02079 0.0
C40 C 0.62604 0.609 0.99159 0.0
O41 O 0.66038 0.64163 0.00842 0.0
O42 O 0.65893 0.62021 0.02056 0.0
C43 C 0.66233 0.61976 0.06788 0.0
N44 N 0.64823 0.60935 0.06133 0.0
C45 C 0.64212 0.59859 0.09631 0.0
C46 C 0.65662 0.60914 0.10341 0.0
C47 C 0.66675 0.6198 0.08914 0.0
C48 C 0.63835 0.59913 0.07496 0.0
H49 H 0.67015 0.62797 0.05697 0.0
C50 C 0.66598 0.63302 0.01138 0.0
O51 O 0.64327 0.65699 0.00305 0.0
O52 O 0.64976 0.65648 0.03662 0.0
N53 N 0.62126 0.59137 0.04659 0.0
C54 C 0.60762 0.58213 0.03731 0.0
C55 C 0.5962 0.57083 0.04944 0.0
C56 C 0.59898 0.56898 0.07086 0.0
C57 C 0.61317 0.57845 0.07997 0.0
C58 C 0.62415 0.58945 0.06706 0.0
H59 H 0.60546 0.5834 0.02079 0.0
O60 O 0.62027 0.63236 0.03079 0.0
O61 O 0.63477 0.62259 0.03883 0.0
O62 O 0.62936 0.62273 0.99402 0.0
O63 O 0.62953 0.60185 0.00516 0.0
C64 C 0.61679 0.57754 0.10143 0.0
C65 C 0.63123 0.58766 0.10962 0.0
H66 H 0.66007 0.60921 0.1198 0.0
H67 H 0.67794 0.62801 0.09452 0.0
H68 H 0.58528 0.56354 0.04229 0.0
H69 H 0.59015 0.56026 0.08018 0.0
H70 H 0.60849 0.56922 0.11183 0.0
H71 H 0.63383 0.58696 0.1262 0.0
Mn72 Mn 0.36535 0.99928 0.01369 0.0
Mn73 Mn 0.39681 0.03254 0.02357 0.0
C74 C 0.38468 0.99995 0.03439 0.0
C75 C 0.34067 0.98123 0.02183 0.0
C76 C 0.39108 0.01512 0.98229 0.0
O77 O 0.35901 0.01474 0.00505 0.0
O78 O 0.38018 0.03592 0.01416 0.0
C79 C 0.38598 0.04193 0.06079 0.0
N80 N 0.39636 0.0391 0.05181 0.0
C81 C 0.41217 0.04781 0.08312 0.0
C82 C 0.40168 0.05087 0.09272 0.0
C83 C 0.38848 0.04781 0.08155 0.0
C84 C 0.40891 0.04166 0.06258 0.0
H85 H 0.37592 0.03978 0.05213 0.0
C86 C 0.36662 0.02905 0.0072 0.0
O87 O 0.34586 0.98239 0.00281 0.0
O88 O 0.34968 0.99081 0.03596 0.0
N89 N 0.41411 0.0315 0.03293 0.0
C90 C 0.42294 0.02768 0.0215 0.0
C91 C 0.43668 0.0302 0.03024 0.0
C92 C 0.44135 0.03694 0.05041 0.0
C93 C 0.43206 0.04076 0.0619 0.0
C94 C 0.41845 0.03789 0.05243 0.0
H95 H 0.41963 0.0229 0.00573 0.0
O96 O 0.37459 0.9875 0.02551 0.0
O97 O 0.38288 0.01163 0.03167 0.0
O98 O 0.37836 0.004 0.98717 0.0
O99 O 0.39854 0.02654 0.99442 0.0
C100 C 0.43582 0.04744 0.08229 0.0
C101 C 0.42579 0.05075 0.09303 0.0
H102 H 0.40366 0.05558 0.10864 0.0
H103 H 0.38032 0.05013 0.08885 0.0
H104 H 0.44379 0.0272 0.0213 0.0
H105 H 0.45209 0.03911 0.05692 0.0
H106 H 0.44636 0.04998 0.08994 0.0
H107 H 0.42871 0.05567 0.10883 0.0
Mn108 Mn 0.00501 0.63567 0.99087 0.0
Mn109 Mn 0.036 0.63412 0.97684 0.0
C110 C 1.00264 0.61662 0.96841 0.0
C111 C 0.98811 0.64459 0.98594 0.0
C112 C 0.02044 0.62245 0.01886 0.0
O113 O 0.022 0.65647 -0.00039 0.0
O114 O 0.04163 0.65431 0.98863 0.0
C115 C 0.04496 0.65592 0.94143 0.0
N116 N 0.04158 0.64206 0.94884 0.0
C117 C 0.04664 0.63484 0.91489 0.0
C118 C 0.0503 0.64908 0.90693 0.0
C119 C 0.04939 0.65964 0.92024 0.0
C120 C 0.04225 0.63176 0.93611 0.0
H121 H 0.04426 0.66406 0.9516 0.0
C122 C 0.03604 0.66185 0.99691 0.0
O123 O 0.98994 0.63989 0.00434 0.0
O124 O 0.99645 0.64458 0.97061 0.0
N125 N 0.03289 0.61554 0.96494 0.0
C126 C 0.02857 0.60217 0.97489 0.0
C127 C 0.02891 0.59041 0.96382 0.0
C128 C 0.03375 0.59253 0.94268 0.0
C129 C 0.03823 0.60641 0.93281 0.0
C130 C 0.0379 0.6178 0.94476 0.0
H131 H 0.02498 0.60051 0.9912 0.0
O132 O 0.99123 0.61531 0.97882 0.0
O133 O 0.01516 0.62935 0.97078 0.0
O134 O 0.01021 0.62598 0.01575 0.0
O135 O 0.03081 0.62529 0.00556 0.0
C136 C 0.04289 0.60934 0.91153 0.0
C137 C 0.047 0.62352 0.90253 0.0
H138 H 0.05373 0.652 0.8906 0.0
H139 H 0.05212 0.67063 0.91419 0.0
H140 H 0.02547 0.57974 0.97158 0.0
H141 H 0.03393 0.58341 0.93415 0.0
H142 H 0.04318 0.60071 0.90186 0.0
H143 H 0.05038 0.62558 0.88608 0.0
Mn144 Mn 0.36941 0.3702 0.01734 0.0
Mn145 Mn 0.39977 0.36586 0.02523 0.0
C146 C 0.38889 0.38681 0.03966 0.0
C147 C 0.34477 0.36394 0.02547 0.0
C148 C 0.39517 0.3805 0.98592 0.0
O149 O 0.36228 0.34891 0.00599 0.0
O150 O 0.38257 0.34685 0.01447 0.0
C151 C 0.38811 0.34392 0.06047 0.0
N152 N 0.39891 0.35726 0.05251 0.0
C153 C 0.41478 0.36177 0.08334 0.0
C154 C 0.40385 0.34807 0.09188 0.0
C155 C 0.3904 0.33916 0.08046 0.0
C156 C 0.41171 0.36609 0.06358 0.0
H157 H 0.37787 0.33694 0.05157 0.0
C158 C 0.36913 0.34133 0.00725 0.0
O159 O 0.35047 0.36934 0.00707 0.0
O160 O 0.35335 0.36206 0.03911 0.0
N161 N 0.41751 0.38309 0.0358 0.0
C162 C 0.42672 0.39617 0.02555 0.0
C163 C 0.4407 0.40631 0.03472 0.0
C164 C 0.44521 0.40275 0.05405 0.0
C165 C 0.43553 0.38925 0.06436 0.0
C166 C 0.42168 0.37965 0.05455 0.0
H167 H 0.42351 0.39876 0.01036 0.0
O168 O 0.37926 0.39034 0.03174 0.0
O169 O 0.38651 0.37336 0.03506 0.0
O170 O 0.3828 0.37957 0.99143 0.0
O171 O 0.40199 0.37515 0.997 0.0
C172 C 0.43912 0.38486 0.08386 0.0
C173 C 0.42865 0.37126 0.09352 0.0
H174 H 0.40566 0.34426 0.10716 0.0
H175 H 0.38191 0.32857 0.08694 0.0
H176 H 0.4481 0.41673 0.02671 0.0
H177 H 0.45613 0.41049 0.06088 0.0
H178 H 0.44984 0.39194 0.0917 0.0
H179 H 0.43145 0.36815 0.1087 0.0
Mn180 Mn 0.64031 0.0078 0.00246 0.0
Mn181 Mn 0.6109 0.97402 0.98825 0.0
C182 C 0.6218 0.00663 0.97937 0.0
C183 C 0.66502 0.02719 0.99764 0.0
C184 C 0.61266 0.98957 0.03008 0.0
O185 O 0.64745 0.99308 0.01175 0.0
O186 O 0.62749 0.97159 0.00038 0.0
C187 C 0.62581 0.96722 0.95341 0.0
N188 N 0.61414 0.96878 0.96048 0.0
C189 C 0.60077 0.95979 0.92721 0.0
C190 C 0.61261 0.95803 0.91956 0.0
C191 C 0.62525 0.96189 0.93266 0.0
C192 C 0.60217 0.96556 0.94781 0.0
H193 H 0.63542 0.96994 0.96357 0.0
C194 C 0.64059 0.97883 0.00885 0.0
O195 O 0.65848 0.02505 0.01585 0.0
O196 O 0.65731 0.01788 0.98241 0.0
N197 N 0.59372 0.97401 0.97598 0.0
C198 C 0.58333 0.97648 0.98574 0.0
C199 C 0.56995 0.9731 0.97486 0.0
C200 C 0.56718 0.96676 0.95437 0.0
C201 C 0.57797 0.96417 0.94472 0.0
C202 C 0.59122 0.96805 0.95616 0.0
H203 H 0.58517 0.98086 0.00178 0.0
O204 O 0.6307 0.01895 0.98963 0.0
O205 O 0.62433 0.99542 0.98216 0.0
O206 O 0.62549 1.00118 0.02716 0.0
O207 O 0.60642 0.97868 0.01675 0.0
C208 C 0.57605 0.95776 0.92427 0.0
C209 C 0.58755 0.95583 0.91537 0.0
H210 H 0.6121 0.95368 0.90368 0.0
H211 H 0.63443 0.96057 0.92688 0.0
H212 H 0.56167 0.97511 0.98242 0.0
H213 H 0.55674 0.96396 0.94616 0.0
H214 H 0.56583 0.95446 0.91512 0.0
H215 H 0.58604 0.95115 0.89949 0.0
Mn216 Mn 0.67203 0.70372 0.33347 0.0
Mn217 Mn 0.70514 0.73482 0.32273 0.0
C218 C 0.67278 0.72137 0.30958 0.0
C219 C 0.65398 0.67845 0.32789 0.0
C220 C 0.68725 0.73202 0.36192 0.0
O221 O 0.68733 0.698 0.3448 0.0
O222 O 0.70849 0.71932 0.33691 0.0
C223 C 0.71532 0.72073 0.29068 0.0
N224 N 0.71225 0.73181 0.2963 0.0
C225 C 0.72087 0.74423 0.26273 0.0
C226 C 0.72419 0.733 0.2566 0.0
C227 C 0.72132 0.72115 0.2706 0.0
C228 C 0.71471 0.7431 0.28282 0.0
H229 H 0.71324 0.71167 0.30145 0.0
C230 C 0.7016 0.70601 0.34457 0.0
O231 O 0.65523 0.6852 0.34589 0.0
O232 O 0.66346 0.68628 0.31325 0.0
N233 N 0.70422 0.75106 0.30887 0.0
C234 C 0.70019 0.76087 0.31711 0.0
C235 C 0.70232 0.77338 0.30511 0.0
C236 C 0.7089 0.77588 0.28501 0.0
C237 C 0.71316 0.76574 0.27699 0.0
C238 C 0.71069 0.75344 0.28962 0.0
H239 H 0.6954 0.75919 0.33272 0.0
O240 O 0.66035 0.71204 0.31874 0.0
O241 O 0.68444 0.7199 0.31414 0.0
O242 O 0.67675 0.71859 0.35817 0.0
O243 O 0.69849 0.7391 0.34981 0.0
C244 C 0.71977 0.76736 0.25696 0.0
C245 C 0.72346 0.75653 0.24974 0.0
H246 H 0.72893 0.73336 0.24119 0.0
H247 H 0.72382 0.71242 0.26597 0.0
H248 H 0.69904 0.78117 0.31142 0.0
H249 H 0.71063 0.78561 0.2759 0.0
H250 H 0.72198 0.77685 0.2469 0.0
H251 H 0.72834 0.75779 0.23419 0.0
Mn252 Mn 0.3067 0.97083 0.35347 0.0
Mn253 Mn 0.30505 0.93832 0.36944 0.0
C254 C 0.28858 0.95538 0.37725 0.0
C255 C 0.31611 0.99681 0.35649 0.0
C256 C 0.29229 0.94151 0.32724 0.0
O257 O 0.32695 0.97361 0.34437 0.0
O258 O 0.32483 0.95193 0.35657 0.0
C259 C 0.32799 0.95138 0.40393 0.0
N260 N 0.31381 0.94123 0.39728 0.0
C261 C 0.30736 0.93048 0.43224 0.0
C262 C 0.32192 0.94076 0.43943 0.0
C263 C 0.33226 0.95128 0.42523 0.0
C264 C 0.30374 0.93115 0.41085 0.0
H265 H 0.33597 0.95948 0.39306 0.0
C266 C 0.3322 0.9647 0.3474 0.0
O267 O 0.31052 0.98967 0.3387 0.0
O268 O 0.31668 0.98894 0.37237 0.0
N269 N 0.28678 0.92379 0.38236 0.0
C270 C 0.27309 0.91485 0.373 0.0
C271 C 0.26146 0.90373 0.38506 0.0
C272 C 0.26408 0.90174 0.4065 0.0
C273 C 0.2783 0.91091 0.4157 0.0
C274 C 0.28949 0.92175 0.40286 0.0
H275 H 0.27105 0.91622 0.35647 0.0
O276 O 0.28699 0.9653 0.36628 0.0
O277 O 0.30101 0.95504 0.37457 0.0
O278 O 0.29596 0.95534 0.32962 0.0
O279 O 0.2954 0.93415 0.34096 0.0
C280 C 0.28176 0.90988 0.43719 0.0
C281 C 0.29626 0.91971 0.44548 0.0
H282 H 0.32527 0.94072 0.45585 0.0
H283 H 0.3435 0.95928 0.43069 0.0
H284 H 0.25051 0.89667 0.37784 0.0
H285 H 0.25508 0.89315 0.41576 0.0
H286 H 0.2733 0.90168 0.44754 0.0
H287 H 0.29874 0.91892 0.46208 0.0
Mn288 Mn 0.02954 0.33253 0.34364 0.0
Mn289 Mn 0.06149 0.36526 0.35449 0.0
C290 C 0.04758 0.33251 0.36633 0.0
C291 C 0.00437 0.31512 0.35025 0.0
C292 C 0.05675 0.34705 0.31427 0.0
O293 O 0.02431 0.34843 0.33332 0.0
O294 O 0.04586 0.36927 0.34219 0.0
C295 C 0.04944 0.3759 0.3888 0.0
N296 N 0.05994 0.37249 0.38181 0.0
C297 C 0.07353 0.38023 0.41513 0.0
C298 C 0.06292 0.38392 0.42266 0.0
C299 C 0.05079 0.38169 0.40946 0.0
C300 C 0.07156 0.37445 0.39444 0.0
H301 H 0.04011 0.37422 0.3787 0.0
C302 C 0.03246 0.36274 0.3346 0.0
O303 O 0.01024 0.31594 0.3318 0.0
O304 O 0.013 0.32475 0.36462 0.0
N305 N 0.07789 0.36371 0.36666 0.0
C306 C 0.08694 0.35923 0.35718 0.0
C307 C 0.09966 0.36082 0.3682 0.0
C308 C 0.10302 0.36707 0.38878 0.0
C309 C 0.09362 0.37169 0.39815 0.0
C310 C 0.08122 0.37005 0.38628 0.0
H311 H 0.08452 0.35458 0.34127 0.0
O312 O 0.03752 0.32019 0.35715 0.0
O313 O 0.04655 0.34457 0.36265 0.0
O314 O 0.04348 0.33657 0.31835 0.0
O315 O 0.06429 0.35845 0.32642 0.0
C316 C 0.09598 0.37773 0.41889 0.0
C317 C 0.0859 0.38192 0.42742 0.0
H318 H 0.06393 0.38839 0.43857 0.0
H319 H 0.04252 0.38445 0.41518 0.0
H320 H 0.10689 0.35726 0.36083 0.0
H321 H 0.11282 0.36823 0.39727 0.0
H322 H 0.10543 0.37905 0.42849 0.0
H323 H 0.08773 0.38638 0.44346 0.0
Mn324 Mn 0.67086 0.96918 0.32379 0.0
Mn325 Mn 0.70106 0.96767 0.30567 0.0
C326 C 0.66744 0.95003 0.30084 0.0
C327 C 0.65368 0.97793 0.32106 0.0
C328 C 0.68805 0.9567 0.34933 0.0
O329 O 0.68819 0.99005 0.33122 0.0
O330 O 0.70723 0.98806 0.31728 0.0
C331 C 0.70784 0.98875 0.26973 0.0
N332 N 0.70488 0.97502 0.27719 0.0
C333 C 0.70762 0.96704 0.24237 0.0
C334 C 0.71081 0.98113 0.23433 0.0
C335 C 0.71086 0.99201 0.24806 0.0
C336 C 0.70465 0.96442 0.26408 0.0
H337 H 0.70789 0.99713 0.28023 0.0
C338 C 0.70201 0.99556 0.32675 0.0
O339 O 0.65634 0.97336 0.33906 0.0
O340 O 0.6614 0.97792 0.3049 0.0
N341 N 0.69727 0.94884 0.29372 0.0
C342 C 0.69354 0.93565 0.30385 0.0
C343 C 0.69295 0.92358 0.29234 0.0
C344 C 0.69642 0.92526 0.27064 0.0
C345 C 0.70035 0.93897 0.2606 0.0
C346 C 0.70087 0.95064 0.27292 0.0
H347 H 0.69099 0.93432 0.32056 0.0
O348 O 0.65656 0.94869 0.31256 0.0
O349 O 0.67999 0.96279 0.30228 0.0
O350 O 0.67747 0.95986 0.34762 0.0
O351 O 0.69765 0.95944 0.3348 0.0
C352 C 0.70357 0.94143 0.23878 0.0
C353 C 0.70712 0.95543 0.22965 0.0
H354 H 0.71314 0.98369 0.21763 0.0
H355 H 0.71324 0.00288 0.24196 0.0
H356 H 0.68988 0.91302 0.30019 0.0
H357 H 0.69597 0.91593 0.26182 0.0
H358 H 0.70315 0.93257 0.22883 0.0
H359 H 0.70938 0.95713 0.21281 0.0
Mn360 Mn 0.03393 0.70369 0.35448 0.0
Mn361 Mn 0.06525 0.70233 0.36867 0.0
C362 C 0.05113 0.72136 0.37826 0.0
C363 C 0.00849 0.69581 0.35925 0.0
C364 C 0.06199 0.71574 0.32709 0.0
O365 O 0.0292 0.68277 0.34414 0.0
O366 O 0.04983 0.68268 0.35667 0.0
C367 C 0.05218 0.68044 0.40376 0.0
N368 N 0.06296 0.69405 0.39651 0.0
C369 C 0.07617 0.70001 0.43015 0.0
C370 C 0.06528 0.68599 0.43795 0.0
C371 C 0.05318 0.67622 0.42473 0.0
C372 C 0.07447 0.70367 0.40922 0.0
H373 H 0.0429 0.67288 0.39361 0.0
C374 C 0.03692 0.67623 0.34749 0.0
O375 O 0.01496 0.70119 0.34123 0.0
O376 O 0.0167 0.69466 0.37425 0.0
N377 N 0.08142 0.72031 0.38078 0.0
C378 C 0.09071 0.73358 0.37103 0.0
C379 C 0.10332 0.74469 0.38214 0.0
C380 C 0.10644 0.7419 0.40295 0.0
C381 C 0.09682 0.72809 0.41259 0.0
C382 C 0.08438 0.71749 0.40077 0.0
H383 H 0.08855 0.73567 0.35488 0.0
O384 O 0.04139 0.72382 0.36825 0.0
O385 O 0.05018 0.70833 0.37481 0.0
O386 O 0.04881 0.71367 0.33021 0.0
O387 O 0.06881 0.71141 0.34008 0.0
C388 C 0.09905 0.72443 0.43346 0.0
C389 C 0.08864 0.71047 0.44232 0.0
H390 H 0.06607 0.68266 0.45407 0.0
H391 H 0.04469 0.66541 0.43065 0.0
H392 H 0.1107 0.75531 0.37459 0.0
H393 H 0.11625 0.75046 0.41139 0.0
H394 H 0.10866 0.73231 0.44293 0.0
H395 H 0.09034 0.7079 0.4585 0.0
Mn396 Mn 0.30974 0.34443 0.33731 0.0
Mn397 Mn 0.27732 0.31509 0.31854 0.0
C398 C 0.29455 0.3488 0.31418 0.0
C399 C 0.33561 0.36054 0.33488 0.0
C400 C 0.28059 0.32869 0.36248 0.0
O401 O 0.31225 0.32625 0.34447 0.0
O402 O 0.29091 0.3079 0.32967 0.0
C403 C 0.28995 0.30697 0.28211 0.0
N404 N 0.27993 0.3108 0.28987 0.0
C405 C 0.26873 0.30848 0.25518 0.0
C406 C 0.27886 0.30442 0.24683 0.0
C407 C 0.28956 0.30372 0.26034 0.0
C408 C 0.2697 0.31164 0.27698 0.0
H409 H 0.29817 0.3064 0.29245 0.0
C410 C 0.30351 0.31247 0.33938 0.0
O411 O 0.32875 0.35851 0.3528 0.0
O412 O 0.32755 0.35278 0.31865 0.0
N413 N 0.26284 0.31996 0.30702 0.0
C414 C 0.25415 0.32447 0.31747 0.0
C415 C 0.24288 0.32573 0.30622 0.0
C416 C 0.2405 0.32215 0.28445 0.0
C417 C 0.2495 0.31743 0.27407 0.0
C418 C 0.26048 0.31625 0.28614 0.0
H419 H 0.25579 0.32706 0.33426 0.0
O420 O 0.30447 0.35956 0.3261 0.0
O421 O 0.29404 0.33581 0.31557 0.0
O422 O 0.29432 0.33895 0.36095 0.0
O423 O 0.27342 0.31898 0.34784 0.0
C424 C 0.24813 0.31404 0.25217 0.0
C425 C 0.2578 0.30965 0.24271 0.0
H426 H 0.27859 0.3019 0.23005 0.0
H427 H 0.29745 0.30065 0.254 0.0
H428 H 0.23598 0.32939 0.31434 0.0
H429 H 0.23175 0.32307 0.27585 0.0
H430 H 0.23982 0.31496 0.24241 0.0
H431 H 0.25677 0.30725 0.22581 0.0
Mn432 Mn 0.33578 0.04015 0.66581 0.0
Mn433 Mn 0.36614 0.07315 0.65222 0.0
C434 C 0.33289 0.05633 0.64282 0.0
C435 C 0.31967 0.01432 0.6611 0.0
C436 C 0.34996 0.06862 0.69379 0.0
O437 O 0.35323 0.03705 0.67515 0.0
O438 O 0.3724 0.05912 0.66446 0.0
C439 C 0.37653 0.06121 0.61741 0.0
N440 N 0.37238 0.07121 0.62449 0.0
C441 C 0.37748 0.08357 0.59056 0.0
C442 C 0.38191 0.07347 0.58293 0.0
C443 C 0.38137 0.0622 0.5964 0.0
C444 C 0.37272 0.08199 0.61162 0.0
H445 H 0.37616 0.05255 0.62772 0.0
C446 C 0.36722 0.04606 0.67276 0.0
O447 O 0.32099 0.0209 0.67926 0.0
O448 O 0.32811 0.02266 0.64584 0.0
N449 N 0.36234 0.08813 0.63995 0.0
C450 C 0.35726 0.09668 0.64957 0.0
C451 C 0.35712 0.1085 0.6383 0.0
C452 C 0.36229 0.11148 0.61732 0.0
C453 C 0.36755 0.1026 0.6078 0.0
C454 C 0.36764 0.09113 0.61993 0.0
H455 H 0.35342 0.09455 0.66576 0.0
O456 O 0.32156 0.04606 0.65307 0.0
O457 O 0.34568 0.05661 0.64569 0.0
O458 O 0.3401 0.05486 0.6905 0.0
O459 O 0.36036 0.07641 0.68071 0.0
C460 C 0.37256 0.10459 0.58669 0.0
C461 C 0.37745 0.09502 0.57803 0.0
H462 H 0.38565 0.07419 0.56674 0.0
H463 H 0.38471 0.05433 0.5906 0.0
H464 H 0.35308 0.11534 0.64579 0.0
H465 H 0.36209 0.12057 0.60864 0.0
H466 H 0.37254 0.11333 0.57689 0.0
H467 H 0.38109 0.09653 0.5617 0.0
Mn468 Mn 0.97122 0.30114 0.68552 0.0
Mn469 Mn 0.96962 0.26934 0.70473 0.0
C470 C 0.95212 0.28576 0.70812 0.0
C471 C 0.97978 0.32702 0.68733 0.0
C472 C 0.95879 0.27151 0.66044 0.0
O473 O 0.99204 0.30428 0.67904 0.0
O474 O 0.98998 0.28321 0.69373 0.0
C475 C 0.99051 0.28331 0.74134 0.0
N476 N 0.97684 0.27279 0.7335 0.0
C477 C 0.96867 0.26236 0.7683 0.0
C478 C 0.98271 0.27302 0.77673 0.0
C479 C 0.99365 0.28357 0.7632 0.0
C480 C 0.96618 0.26268 0.7464 0.0
H481 H 0.99895 0.29145 0.731 0.0
C482 C 0.99748 0.29579 0.68412 0.0
O483 O 0.97534 0.31964 0.66947 0.0
O484 O 0.97984 0.31948 0.70396 0.0
N485 N 0.9508 0.25464 0.71614 0.0
C486 C 0.9377 0.24538 0.70559 0.0
C487 C 0.92556 0.23422 0.71686 0.0
C488 C 0.92708 0.23254 0.73878 0.0
C489 C 0.94072 0.24206 0.74924 0.0
C490 C 0.95247 0.25291 0.73715 0.0
H491 H 0.9365 0.24651 0.6887 0.0
O492 O 0.95079 0.29531 0.69593 0.0
O493 O 0.96482 0.28574 0.70733 0.0
O494 O 0.96193 0.28524 0.66192 0.0
O495 O 0.96153 0.26459 0.67529 0.0
C496 C 0.94305 0.24136 0.77125 0.0
C497 C 0.95699 0.25156 0.78079 0.0
H498 H 0.98517 0.27326 0.79359 0.0
H499 H 0.00449 0.29188 0.7696 0.0
H500 H 0.91506 0.2269 0.70868 0.0
H501 H 0.91768 0.22393 0.74743 0.0
H502 H 0.93414 0.23316 0.78104 0.0
H503 H 0.9586 0.25103 0.79777 0.0
Mn504 Mn 0.69696 0.66669 0.67738 0.0
Mn505 Mn 0.7287 0.69906 0.69026 0.0
C506 C 0.71454 0.666 0.70032 0.0
C507 C 0.67165 0.64927 0.68302 0.0
C508 C 0.72478 0.68194 0.64918 0.0
O509 O 0.69195 0.68283 0.66767 0.0
O510 O 0.71339 0.70343 0.67761 0.0
C511 C 0.71583 0.70882 0.72455 0.0
N512 N 0.7265 0.7056 0.71775 0.0
C513 C 0.7393 0.71248 0.75172 0.0
C514 C 0.7285 0.71597 0.75906 0.0
C515 C 0.71668 0.71407 0.74543 0.0
C516 C 0.73782 0.70723 0.73079 0.0
H517 H 0.70675 0.70741 0.71412 0.0
C518 C 0.70013 0.6971 0.66951 0.0
O519 O 0.67776 0.65043 0.66467 0.0
O520 O 0.68012 0.65851 0.69784 0.0
N521 N 0.74482 0.69721 0.70284 0.0
C522 C 0.75414 0.69306 0.69343 0.0
C523 C 0.76664 0.69442 0.70483 0.0
C524 C 0.76948 0.7001 0.72574 0.0
C525 C 0.75982 0.70442 0.73502 0.0
C526 C 0.74768 0.70305 0.72275 0.0
H527 H 0.75211 0.68883 0.6773 0.0
O528 O 0.70464 0.65395 0.69041 0.0
O529 O 0.7136 0.67817 0.69719 0.0
O530 O 0.71136 0.67142 0.65242 0.0
O531 O 0.7321 0.69291 0.66211 0.0
C532 C 0.76168 0.70991 0.75603 0.0
C533 C 0.75138 0.71386 0.76441 0.0
H534 H 0.72913 0.72003 0.77515 0.0
H535 H 0.70828 0.71668 0.751 0.0
H536 H 0.77409 0.69113 0.6975 0.0
H537 H 0.77909 0.70105 0.73453 0.0
H538 H 0.77092 0.71101 0.76593 0.0
H539 H 0.75283 0.71791 0.78065 0.0
Mn540 Mn 0.34044 0.30649 0.66604 0.0
Mn541 Mn 0.37508 0.31093 0.65919 0.0
C542 C 0.3435 0.28956 0.64488 0.0
C543 C 0.32124 0.31177 0.65738 0.0
C544 C 0.35674 0.29693 0.69851 0.0
O545 O 0.3542 0.32816 0.67619 0.0
O546 O 0.37648 0.32991 0.66956 0.0
C547 C 0.38443 0.33268 0.62369 0.0
N548 N 0.38234 0.31943 0.63192 0.0
C549 C 0.39366 0.31496 0.60161 0.0
C550 C 0.39597 0.32857 0.59279 0.0
C551 C 0.39122 0.33741 0.60381 0.0
C552 C 0.38652 0.31067 0.62122 0.0
H553 H 0.38101 0.33961 0.63229 0.0
C554 C 0.36851 0.33561 0.67571 0.0
O555 O 0.32254 0.30728 0.6762 0.0
O556 O 0.33124 0.31343 0.64357 0.0
N557 N 0.37598 0.29375 0.64907 0.0
C558 C 0.37257 0.28077 0.65955 0.0
C559 C 0.3767 0.27072 0.65081 0.0
C560 C 0.38459 0.27429 0.63168 0.0
C561 C 0.38791 0.28768 0.62112 0.0
C562 C 0.38339 0.29719 0.63049 0.0
H563 H 0.36691 0.27818 0.67459 0.0
O564 O 0.33055 0.28595 0.65284 0.0
O565 O 0.35429 0.30319 0.6489 0.0
O566 O 0.34541 0.29814 0.69268 0.0
O567 O 0.36856 0.30175 0.68746 0.0
C568 C 0.39565 0.29206 0.60177 0.0
C569 C 0.3983 0.30555 0.59184 0.0
H570 H 0.40139 0.33235 0.57759 0.0
H571 H 0.39295 0.34792 0.59711 0.0
H572 H 0.37405 0.26038 0.65901 0.0
H573 H 0.38799 0.26662 0.62521 0.0
H574 H 0.39948 0.28504 0.59426 0.0
H575 H 0.40403 0.30865 0.57679 0.0
Mn576 Mn 0.70099 0.03654 0.68113 0.0
Mn577 Mn 0.73153 0.03326 0.69351 0.0
C578 C 0.71904 0.05346 0.7047 0.0
C579 C 0.67597 0.03003 0.6868 0.0
C580 C 0.72862 0.04776 0.65286 0.0
O581 O 0.69489 0.01534 0.67047 0.0
O582 O 0.71538 0.01421 0.68092 0.0
C583 C 0.71791 0.01065 0.72765 0.0
N584 N 0.729 0.02427 0.72091 0.0
C585 C 0.74208 0.02911 0.75456 0.0
C586 C 0.73085 0.0151 0.76184 0.0
C587 C 0.71867 0.00587 0.74836 0.0
C588 C 0.74063 0.03335 0.73386 0.0
H589 H 0.70858 0.00348 0.71729 0.0
C590 C 0.70222 0.00827 0.67255 0.0
O591 O 0.68232 0.03526 0.66867 0.0
O592 O 0.68403 0.02825 0.70142 0.0
N593 N 0.74828 0.05056 0.70608 0.0
C594 C 0.75802 0.06386 0.69677 0.0
C595 C 0.77079 0.07443 0.70818 0.0
C596 C 0.7736 0.07109 0.72885 0.0
C597 C 0.76353 0.05723 0.738 0.0
C598 C 0.75097 0.04717 0.72589 0.0
H599 H 0.75607 0.0664 0.68075 0.0
O600 O 0.70967 0.05671 0.69519 0.0
O601 O 0.71728 0.04014 0.70081 0.0
O602 O 0.71561 0.04603 0.65641 0.0
O603 O 0.7353 0.04301 0.66542 0.0
C604 C 0.76545 0.05302 0.75867 0.0
C605 C 0.75466 0.03904 0.76703 0.0
H606 H 0.73144 0.01134 0.77777 0.0
H607 H 0.70993 0.99506 0.75388 0.0
H608 H 0.77852 0.08508 0.701 0.0
H609 H 0.78351 0.07924 0.73754 0.0
H610 H 0.77514 0.06048 0.76836 0.0
H611 H 0.75616 0.03603 0.78305 0.0
Mn612 Mn 0.97584 0.67762 0.67011 0.0
Mn613 Mn 0.9436 0.64794 0.65152 0.0
C614 C 0.96057 0.68161 0.64656 0.0
C615 C 1.00172 0.69383 0.66776 0.0
C616 C 0.94668 0.6618 0.69525 0.0
O617 O 0.97851 0.65959 0.67783 0.0
O618 O 0.95735 0.64102 0.66292 0.0
C619 C 0.9564 0.63977 0.61536 0.0
N620 N 0.94628 0.6435 0.62296 0.0
C621 C 0.935 0.64077 0.58823 0.0
C622 C 0.94525 0.63681 0.58004 0.0
C623 C 0.95603 0.63636 0.59366 0.0
C624 C 0.93596 0.64411 0.60997 0.0
H625 H 0.96469 0.63939 0.62578 0.0
C626 C 0.96991 0.64577 0.6728 0.0
O627 O 0.99478 0.69191 0.68558 0.0
O628 O 0.99372 0.68594 0.65156 0.0
N629 N 0.92899 0.65254 0.63978 0.0
C630 C 0.92022 0.65702 0.65006 0.0
C631 C 0.90885 0.65805 0.6387 0.0
C632 C 0.90648 0.65427 0.61699 0.0
C633 C 0.91557 0.6496 0.60678 0.0
C634 C 0.92664 0.64865 0.61896 0.0
H635 H 0.92185 0.65975 0.66681 0.0
O636 O 0.97041 0.69252 0.65837 0.0
O637 O 0.96019 0.6687 0.64833 0.0
O638 O 0.96034 0.6722 0.69364 0.0
O639 O 0.93963 0.65195 0.68073 0.0
C640 C 0.91422 0.64603 0.58494 0.0
C641 C 0.92399 0.6417 0.57565 0.0
H642 H 0.945 0.63417 0.56332 0.0
H643 H 0.96402 0.63336 0.58744 0.0
H644 H 0.90188 0.66168 0.64668 0.0
H645 H 0.89766 0.65501 0.60829 0.0
H646 H 0.90584 0.64677 0.57509 0.0
H647 H 0.92296 0.63917 0.55879 0.0
H648 H 0.1542 0.32221 0.15704 0.0
H649 H 0.15171 0.32776 0.08927 0.0
H650 H 0.12908 0.34235 0.13214 0.0
H651 H 0.16136 0.30836 0.13073 0.0
H652 H 0.16197 0.31241 0.10298 0.0
H653 H 0.17988 0.33129 0.15566 0.0
H654 H 0.22414 0.35439 0.1301 0.0
H655 H 0.18649 0.32691 0.08905 0.0
C656 C 0.15066 0.32639 0.14357 0.0
C657 C 0.14169 0.33303 0.14697 0.0
C658 C 0.15488 0.32499 0.12279 0.0
C659 C 0.14917 0.32945 0.10537 0.0
C660 C 0.13986 0.33573 0.10872 0.0
C661 C 0.13656 0.33784 0.12953 0.0
C662 C 0.16439 0.31762 0.11911 0.0
C663 C 0.18104 0.32865 0.12174 0.0
C664 C 0.18711 0.3345 0.14202 0.0
C665 C 0.2026 0.34399 0.14501 0.0
C666 C 0.21209 0.34766 0.12758 0.0
C667 C 0.20644 0.34142 0.10745 0.0
C668 C 0.19087 0.33198 0.10451 0.0
H669 H 0.68759 0.83105 0.14072 0.0
H670 H 0.6819 0.8253 0.07263 0.0
H671 H 0.66637 0.78671 0.11316 0.0
H672 H 0.70267 0.85219 0.11532 0.0
H673 H 0.69781 0.85008 0.08768 0.0
H674 H 0.68165 0.84979 0.14186 0.0
H675 H 0.66108 0.87512 0.11986 0.0
H676 H 0.68442 0.86221 0.07577 0.0
C677 C 0.68299 0.8238 0.12689 0.0
C678 C 0.67643 0.80814 0.1294 0.0
C679 C 0.68462 0.83015 0.10649 0.0
C680 C 0.67996 0.82057 0.08848 0.0
C681 C 0.67336 0.8049 0.09096 0.0
C682 C 0.67128 0.79882 0.11138 0.0
C683 C 0.69301 0.84712 0.10388 0.0
C684 C 0.68326 0.85415 0.10799 0.0
C685 C 0.67851 0.8546 0.12877 0.0
C686 C 0.67021 0.86184 0.13292 0.0
C687 C 0.66681 0.86885 0.11632 0.0
C688 C 0.67209 0.86929 0.09577 0.0
C689 C 0.68017 0.86176 0.09158 0.0
H690 H 0.16936 0.81475 0.15862 0.0
H691 H 0.16237 0.80229 0.0923 0.0
H692 H 0.12504 0.78513 0.13452 0.0
H693 H 0.18957 0.81436 0.13374 0.0
H694 H 0.18718 0.81534 0.10588 0.0
H695 H 0.19133 0.8357 0.15773 0.0
H696 H 0.2183 0.8791 0.12972 0.0
H697 H 0.19814 0.83962 0.09006 0.0
C698 C 0.1619 0.80947 0.14517 0.0
C699 C 0.14645 0.80045 0.14877 0.0
C700 C 0.16776 0.81082 0.12461 0.0
C701 C 0.1579 0.80236 0.10777 0.0
C702 C 0.14252 0.79277 0.11144 0.0
C703 C 0.13688 0.79259 0.13166 0.0
C704 C 0.18464 0.8186 0.1215 0.0
C705 C 0.19259 0.83568 0.12346 0.0
C706 C 0.19544 0.84257 0.14368 0.0
C707 C 0.20449 0.85826 0.14608 0.0
C708 C 0.21062 0.8671 0.12796 0.0
C709 C 0.20848 0.86047 0.10782 0.0
C710 C 0.19934 0.84478 0.10554 0.0
H711 H 0.34947 0.18968 0.86933 0.0
H712 H 0.34055 0.19125 0.9357 0.0
H713 H 0.32905 0.21527 0.88979 0.0
H714 H 0.36367 0.18481 0.89916 0.0
H715 H 0.35665 0.18175 0.92546 0.0
H716 H 0.34539 0.16606 0.86935 0.0
H717 H 0.32841 0.12066 0.89024 0.0
H718 H 0.3433 0.15641 0.93632 0.0
C719 C 0.3444 0.19284 0.88182 0.0
C720 C 0.33832 0.20219 0.87691 0.0
C721 C 0.34475 0.18831 0.90292 0.0
C722 C 0.33945 0.19384 0.91927 0.0
C723 C 0.33371 0.20355 0.9146 0.0
C724 C 0.33277 0.20721 0.89335 0.0
C725 C 0.35314 0.17993 0.9084 0.0
C726 C 0.34436 0.16316 0.90346 0.0
C727 C 0.34189 0.15806 0.88221 0.0
C728 C 0.33579 0.14269 0.87737 0.0
C729 C 0.33211 0.13236 0.89401 0.0
C730 C 0.33487 0.13714 0.91531 0.0
C731 C 0.34077 0.15257 0.91995 0.0
H732 H 0.84508 0.17896 0.87082 0.0
H733 H 0.86065 0.19155 0.93572 0.0
H734 H 0.87609 0.2249 0.88657 0.0
H735 H 0.84832 0.16136 0.90232 0.0
H736 H 0.84489 0.1658 0.92811 0.0
H737 H 0.82893 0.15424 0.87286 0.0
H738 H 0.78363 0.13125 0.89434 0.0
H739 H 0.81952 0.15773 0.9386 0.0
C740 C 0.85106 0.18743 0.8829 0.0
C741 C 0.85994 0.20246 0.87657 0.0
C742 C 0.85066 0.18336 0.90446 0.0
C743 C 0.85992 0.19461 0.91941 0.0
C744 C 0.86932 0.20955 0.9129 0.0
C745 C 0.86871 0.21342 0.8917 0.0
C746 C 0.84289 0.16687 0.91091 0.0
C747 C 0.82615 0.15812 0.90593 0.0
C748 C 0.82099 0.15223 0.88531 0.0
C749 C 0.80566 0.14265 0.8811 0.0
C750 C 0.79543 0.139 0.89756 0.0
C751 C 0.80024 0.14422 0.91837 0.0
C752 C 0.81565 0.15394 0.92246 0.0
H753 H 0.83786 0.64892 0.86293 0.0
H754 H 0.84389 0.64543 0.93025 0.0
H755 H 0.88217 0.66702 0.89008 0.0
H756 H 0.81787 0.62818 0.88723 0.0
H757 H 0.81936 0.63165 0.9151 0.0
H758 H 0.814 0.64542 0.862 0.0
H759 H 0.7876 0.66334 0.88802 0.0
H760 H 0.80953 0.64665 0.92991 0.0
C761 C 0.84514 0.65174 0.8768 0.0
C762 C 0.86078 0.65911 0.87411 0.0
C763 C 0.83888 0.64716 0.89711 0.0
C764 C 0.84853 0.64977 0.91477 0.0
C765 C 0.86415 0.65714 0.91222 0.0
C766 C 0.87015 0.66211 0.89205 0.0
C767 C 0.82205 0.63734 0.89938 0.0
C768 C 0.81353 0.64588 0.89636 0.0
C769 C 0.8101 0.64881 0.87572 0.0
C770 C 0.80105 0.65545 0.87265 0.0
C771 C 0.79534 0.65908 0.89042 0.0
C772 C 0.79818 0.65585 0.91109 0.0
C773 C 0.8075 0.64944 0.91401 0.0
H774 H 0.82025 0.65922 0.48804 0.0
H775 H 0.81633 0.66019 0.41969 0.0
H776 H 0.79422 0.67723 0.45921 0.0
H777 H 0.82592 0.6429 0.46384 0.0
H778 H 0.82676 0.64575 0.43578 0.0
H779 H 0.84527 0.66458 0.48788 0.0
H780 H 0.88924 0.68744 0.46121 0.0
H781 H 0.85088 0.66122 0.42065 0.0
C782 C 0.81636 0.66244 0.47393 0.0
C783 C 0.80726 0.6691 0.47607 0.0
C784 C 0.82013 0.65961 0.4536 0.0
C785 C 0.81412 0.66294 0.43539 0.0
C786 C 0.80488 0.66941 0.43748 0.0
C787 C 0.8018 0.67271 0.45773 0.0
C788 C 0.82926 0.65169 0.45138 0.0
C789 C 0.84598 0.66244 0.45377 0.0
C790 C 0.85234 0.6679 0.47406 0.0
C791 C 0.86792 0.67711 0.47675 0.0
C792 C 0.87715 0.68093 0.459 0.0
C793 C 0.87115 0.67511 0.4388 0.0
C794 C 0.85552 0.66596 0.43617 0.0
H795 H 0.33512 0.16225 0.47501 0.0
H796 H 0.34328 0.1531 0.41106 0.0
H797 H 0.32141 0.11704 0.45562 0.0
H798 H 0.35838 0.18117 0.44821 0.0
H799 H 0.35254 0.17847 0.42111 0.0
H800 H 0.34511 0.18787 0.47537 0.0
H801 H 0.32216 0.21047 0.45116 0.0
H802 H 0.33502 0.18627 0.40829 0.0
C803 C 0.33364 0.1544 0.46245 0.0
C804 C 0.32695 0.13901 0.46728 0.0
C805 C 0.33912 0.15963 0.44193 0.0
C806 C 0.33823 0.14917 0.42645 0.0
C807 C 0.33205 0.13383 0.43149 0.0
C808 C 0.32594 0.12883 0.45161 0.0
C809 C 0.34825 0.1764 0.43763 0.0
C810 C 0.33991 0.18497 0.44162 0.0
C811 C 0.33956 0.19016 0.46227 0.0
C812 C 0.33314 0.19935 0.46578 0.0
C813 C 0.32683 0.20309 0.44856 0.0
C814 C 0.32765 0.19866 0.42781 0.0
C815 C 0.33404 0.18943 0.42438 0.0
H816 H 0.83632 0.14858 0.48604 0.0
H817 H 0.82898 0.13584 0.41982 0.0
H818 H 0.79181 0.11925 0.46226 0.0
H819 H 0.85609 0.14692 0.46021 0.0
H820 H 0.85383 0.14926 0.43269 0.0
H821 H 0.86013 0.16739 0.48649 0.0
H822 H 0.88601 0.21188 0.46141 0.0
H823 H 0.86316 0.17417 0.41871 0.0
C824 C 0.8288 0.14326 0.47266 0.0
C825 C 0.81334 0.1344 0.47636 0.0
C826 C 0.83456 0.14442 0.45207 0.0
C827 C 0.82459 0.13603 0.43531 0.0
C828 C 0.8092 0.12666 0.43905 0.0
C829 C 0.80366 0.12658 0.45932 0.0
C830 C 0.85139 0.15192 0.44879 0.0
C831 C 0.85971 0.16887 0.45223 0.0
C832 C 0.86363 0.17487 0.47298 0.0
C833 C 0.8728 0.19042 0.4764 0.0
C834 C 0.87815 0.20001 0.45882 0.0
C835 C 0.87491 0.19431 0.43798 0.0
C836 C 0.86545 0.17871 0.43475 0.0
H837 H 0.01762 0.51972 0.19433 0.0
H838 H 0.02144 0.53359 0.25989 0.0
H839 H 1.00306 0.5507 0.21276 0.0
H840 H 0.03824 0.52138 0.22415 0.0
H841 H 0.03157 0.51818 0.25056 0.0
H842 H 0.02409 0.50202 0.19526 0.0
H843 H 1.00231 0.45653 0.21744 0.0
H844 H 0.01497 0.49289 0.26193 0.0
C845 C 0.01529 0.52545 0.20684 0.0
C846 C 0.00927 0.53475 0.20126 0.0
C847 C 0.01913 0.52437 0.22817 0.0
C848 C 0.01741 0.53334 0.24377 0.0
C849 C 0.01192 0.54311 0.23817 0.0
C850 C 0.00717 0.54308 0.21715 0.0
C851 C 0.0278 0.51623 0.23361 0.0
C852 C 0.01936 0.49942 0.22888 0.0
C853 C 0.01882 0.49411 0.20804 0.0
C854 C 0.01221 0.47862 0.20373 0.0
C855 C 0.00646 0.4684 0.22055 0.0
C856 C 0.00762 0.4734 0.2416 0.0
C857 C 0.0138 0.48893 0.24566 0.0
H858 H 0.51701 0.51297 0.203 0.0
H859 H 0.52352 0.52371 0.26996 0.0
H860 H 0.54196 0.55902 0.22349 0.0
H861 H 0.51529 0.49423 0.23127 0.0
H862 H 0.51436 0.49818 0.25858 0.0
H863 H 0.49406 0.48995 0.20582 0.0
H864 H 0.45068 0.46792 0.23461 0.0
H865 H 0.49034 0.48995 0.27401 0.0
C866 C 0.52098 0.5212 0.21577 0.0
C867 C 0.5291 0.5366 0.21089 0.0
C868 C 0.51853 0.51643 0.2371 0.0
C869 C 0.52477 0.52731 0.25353 0.0
C870 C 0.53321 0.54275 0.24877 0.0
C871 C 0.53494 0.54722 0.22742 0.0
C872 C 0.51109 0.49981 0.24225 0.0
C873 C 0.49415 0.49196 0.24004 0.0
C874 C 0.48721 0.48747 0.2198 0.0
C875 C 0.47152 0.47859 0.21774 0.0
C876 C 0.46279 0.47491 0.23603 0.0
C877 C 0.46946 0.47878 0.2563 0.0
C878 C 0.48515 0.48738 0.2583 0.0
H879 H 0.50103 0.97317 0.19695 0.0
H880 H 0.50843 0.97454 0.26472 0.0
H881 H 0.54587 0.99405 0.22264 0.0
H882 H 0.48211 0.95354 0.22325 0.0
H883 H 0.484 0.95833 0.2507 0.0
H884 H 0.47614 0.9683 0.19638 0.0
H885 H 0.44844 0.98526 0.22071 0.0
H886 H 0.47382 0.97353 0.26406 0.0
C887 C 0.50859 0.97705 0.21059 0.0
C888 C 0.52418 0.98477 0.2074 0.0
C889 C 0.50276 0.97359 0.23128 0.0
C890 C 0.51279 0.97779 0.24883 0.0
C891 C 0.5284 0.98531 0.24584 0.0
C892 C 0.5339 0.98902 0.22513 0.0
C893 C 0.4861 0.96324 0.23446 0.0
C894 C 0.47676 0.97082 0.23061 0.0
C895 C 0.47233 0.97212 0.20974 0.0
C896 C 0.46203 0.97723 0.20618 0.0
C897 C 0.45658 0.98155 0.22352 0.0
C898 C 0.46073 0.98029 0.24442 0.0
C899 C 0.4709 0.97495 0.24792 0.0
H900 H 0.48889 0.99999 0.81623 0.0
H901 H 0.48836 0.01013 0.74968 0.0
H902 H 0.46549 0.02283 0.79488 0.0
H903 H 0.49524 0.98688 0.78781 0.0
H904 H 0.4968 0.99281 0.76082 0.0
H905 H 0.51434 0.00841 0.81506 0.0
H906 H 0.55912 0.02615 0.79178 0.0
H907 H 0.52168 0.00566 0.74834 0.0
C908 C 0.486 0.00534 0.80354 0.0
C909 C 0.4773 0.01213 0.80809 0.0
C910 C 0.4906 0.00511 0.78258 0.0
C911 C 0.48561 0.01099 0.76601 0.0
C912 C 0.47656 0.01743 0.77041 0.0
C913 C 0.47287 0.01832 0.79151 0.0
C914 C 0.49922 0.99699 0.77753 0.0
C915 C 0.51603 0.00669 0.78115 0.0
C916 C 0.52192 0.01113 0.80193 0.0
C917 C 0.53748 0.01823 0.80604 0.0
C918 C 0.54716 0.02136 0.78888 0.0
C919 C 0.54159 0.01696 0.76811 0.0
C920 C 0.52601 0.00957 0.76428 0.0
H921 H 0.00679 0.4901 0.80244 0.0
H922 H 0.99815 0.48213 0.73507 0.0
H923 H 0.98567 0.44503 0.77779 0.0
H924 H 0.02066 0.51027 0.77514 0.0
H925 H 0.01433 0.50729 0.74812 0.0
H926 H 1.00165 0.50945 0.80382 0.0
H927 H 0.98113 0.53519 0.78325 0.0
H928 H 1.00016 0.51875 0.73716 0.0
C929 C 1.00166 0.48238 0.78919 0.0
C930 C 0.99571 0.46687 0.79256 0.0
C931 C 1.00218 0.48802 0.76854 0.0
C932 C 0.99697 0.47788 0.75114 0.0
C933 C 0.99097 0.46231 0.7544 0.0
C934 C 0.98995 0.45697 0.7752 0.0
C935 C 0.01041 0.50488 0.7648 0.0
C936 C 1.00103 0.51223 0.76974 0.0
C937 C 0.99783 0.51385 0.79098 0.0
C938 C 0.99035 0.52185 0.79586 0.0
C939 C 0.98612 0.52828 0.77936 0.0
C940 C 0.98977 0.52742 0.75823 0.0
C941 C 0.99707 0.51921 0.75343 0.0
H942 H 0.50009 0.4842 0.8197 0.0
H943 H 0.49037 0.48047 0.75242 0.0
H944 H 0.45445 0.4614 0.79706 0.0
H945 H 0.51812 0.48456 0.79158 0.0
H946 H 0.51503 0.48726 0.76445 0.0
H947 H 0.524 0.50551 0.81868 0.0
H948 H 0.55328 0.54919 0.79327 0.0
H949 H 0.52635 0.5123 0.75078 0.0
C950 C 0.49208 0.4811 0.80665 0.0
C951 C 0.47663 0.47322 0.8109 0.0
C952 C 0.49718 0.48413 0.78556 0.0
C953 C 0.48656 0.47892 0.76869 0.0
C954 C 0.47109 0.47076 0.77273 0.0
C955 C 0.4663 0.46839 0.79385 0.0
C956 C 0.51366 0.49023 0.78097 0.0
C957 C 0.52322 0.50709 0.78438 0.0
C958 C 0.5279 0.51295 0.8051 0.0
C959 C 0.53869 0.52812 0.80822 0.0
C960 C 0.5445 0.53761 0.79068 0.0
C961 C 0.54012 0.53209 0.7699 0.0
C962 C 0.52938 0.51679 0.76681 0.0
H963 H 0.69114 0.86143 0.53013 0.0
H964 H 0.68026 0.86067 0.59618 0.0
H965 H 0.66989 0.88616 0.55135 0.0
H966 H 0.70387 0.85471 0.55908 0.0
H967 H 0.6972 0.85203 0.58558 0.0
H968 H 0.68522 0.83619 0.52975 0.0
H969 H 0.66581 0.79061 0.55142 0.0
H970 H 0.6827 0.82687 0.59688 0.0
C971 C 0.68571 0.8642 0.54258 0.0
C972 C 0.68019 0.8741 0.53817 0.0
C973 C 0.68541 0.85892 0.56341 0.0
C974 C 0.67969 0.86389 0.57991 0.0
C975 C 0.67408 0.87375 0.57562 0.0
C976 C 0.67392 0.87831 0.55464 0.0
C977 C 0.69348 0.8502 0.5686 0.0
C978 C 0.68412 0.83347 0.5639 0.0
C979 C 0.68138 0.82823 0.5427 0.0
C980 C 0.67448 0.81273 0.53813 0.0
C981 C 0.67023 0.80247 0.55496 0.0
C982 C 0.67324 0.8074 0.57617 0.0
C983 C 0.68 0.82294 0.58056 0.0
H984 H 0.18421 0.84633 0.53869 0.0
H985 H 0.19177 0.85627 0.60583 0.0
H986 H 0.20815 0.89223 0.5605 0.0
H987 H 0.18319 0.82736 0.56622 0.0
H988 H 0.18233 0.83087 0.59375 0.0
H989 H 0.16173 0.82314 0.54127 0.0
H990 H 0.1185 0.80045 0.57036 0.0
H991 H 0.15828 0.82221 0.60959 0.0
C992 C 0.18813 0.8544 0.55168 0.0
C993 C 0.19584 0.86988 0.54716 0.0
C994 C 0.18608 0.84933 0.57289 0.0
C995 C 0.19244 0.86 0.58954 0.0
C996 C 0.20029 0.87549 0.58508 0.0
C997 C 0.20152 0.88029 0.56397 0.0
C998 C 0.17893 0.83266 0.57759 0.0
C999 C 0.16196 0.82463 0.57559 0.0
C1000 C 0.15495 0.8204 0.55536 0.0
C1001 C 0.13928 0.81151 0.55339 0.0
C1002 C 0.13061 0.80748 0.57175 0.0
C1003 C 0.13734 0.81113 0.59199 0.0
C1004 C 0.15303 0.81977 0.59393 0.0
H1005 H 0.16987 0.31268 0.52752 0.0
H1006 H 0.17464 0.30775 0.5948 0.0
H1007 H 0.21365 0.33135 0.55639 0.0
H1008 H 0.14959 0.29142 0.55025 0.0
H1009 H 0.15057 0.29362 0.57835 0.0
H1010 H 0.14765 0.31169 0.52713 0.0
H1011 H 0.11601 0.32289 0.55328 0.0
H1012 H 0.13664 0.30403 0.59359 0.0
C1013 C 0.17683 0.31546 0.54172 0.0
C1014 C 0.19252 0.32334 0.53973 0.0
C1015 C 0.17016 0.31031 0.5617 0.0
C1016 C 0.17953 0.31263 0.57964 0.0
C1017 C 0.19523 0.32036 0.57772 0.0
C1018 C 0.20156 0.32609 0.55795 0.0
C1019 C 0.15332 0.3 0.56318 0.0
C1020 C 0.14424 0.30806 0.56101 0.0
C1021 C 0.14214 0.31293 0.54088 0.0
C1022 C 0.13225 0.31864 0.53811 0.0
C1023 C 0.1242 0.31917 0.55555 0.0
C1024 C 0.12546 0.31367 0.57544 0.0
C1025 C 0.13587 0.30859 0.57834 0.0
H1026 H 0.04795 0.42606 0.04277 0.0
H1027 H 0.04577 0.44022 0.07246 0.0
H1028 H 1.00052 0.40453 0.08286 0.0
H1029 H 1.00263 0.39014 0.0535 0.0
H1030 H 0.02561 0.45061 0.07592 0.0
H1031 H 0.01883 0.412 0.14232 0.0
H1032 H 0.02539 0.41034 0.11654 0.0
H1033 H 0.00566 0.40296 0.12083 0.0
C1034 C 0.0376 0.42108 0.05156 0.0
C1035 C 0.02549 0.40689 0.04575 0.0
C1036 C 0.03636 0.42924 0.06848 0.0
C1037 C 0.02304 0.42337 0.07999 0.0
C1038 C 0.01101 0.40915 0.07447 0.0
H1039 H 0.98986 0.45454 0.18237 0.0
H1040 H 0.99235 0.44215 0.15064 0.0
C1041 C 0.01224 0.40095 0.0576 0.0
C1042 C 0.02147 0.43241 0.09716 0.0
H1043 H 0.01356 0.43176 0.14978 0.0
C1044 C 0.02308 0.44655 0.09211 0.0
C1045 C 0.01816 0.42707 0.11826 0.0
C1046 C 0.01705 0.41233 0.1249 0.0
C1047 C 0.02113 0.45536 0.10752 0.0
C1048 C 0.01763 0.44992 0.12851 0.0
C1049 C 0.01613 0.43584 0.13359 0.0
C1050 C 0.01563 0.45865 0.14568 0.0
C1051 C 0.02252 0.47027 0.10117 0.0
C1052 C 0.02781 0.47223 0.15305 0.0
C1053 C 0.02643 0.47933 0.1712 0.0
C1054 C 0.01287 0.47288 0.18232 0.0
C1055 C 1.00048 0.4597 0.1742 0.0
C1056 C 1.00187 0.45262 0.15611 0.0
H1057 H 0.02189 0.47126 0.08364 0.0
H1058 H 0.01357 0.47179 0.10851 0.0
H1059 H 0.03352 0.47954 0.10691 0.0
H1060 H 0.0386 0.47694 0.14541 0.0
H1061 H 0.03624 0.48934 0.17725 0.0
H1062 H 0.5921 0.60562 0.03578 0.0
H1063 H 0.57334 0.59059 0.06238 0.0
H1064 H 0.60858 0.60432 0.10996 0.0
H1065 H 0.62719 0.61982 0.08353 0.0
H1066 H 0.56961 0.56697 0.08409 0.0
H1067 H 0.57965 0.61223 0.14112 0.0
H1068 H 0.58764 0.61617 0.11496 0.0
H1069 H 0.59657 0.61166 0.13644 0.0
C1070 C 0.59575 0.60543 0.05198 0.0
C1071 C 0.61105 0.61338 0.05758 0.0
C1072 C 0.58507 0.59686 0.06714 0.0
C1073 C 0.5895 0.59637 0.08824 0.0
C1074 C 0.60481 0.60471 0.09392 0.0
H1075 H 0.54437 0.52869 0.18351 0.0
H1076 H 0.55713 0.54217 0.15133 0.0
C1077 C 0.61547 0.61334 0.07877 0.0
C1078 C 0.57819 0.58673 0.10409 0.0
H1079 H 0.56601 0.58697 0.15418 0.0
C1080 C 0.56877 0.57136 0.09937 0.0
C1081 C 0.57675 0.5925 0.12382 0.0
C1082 C 0.58558 0.60908 0.12928 0.0
C1083 C 0.55839 0.56152 0.11415 0.0
C1084 C 0.5576 0.56713 0.13436 0.0
C1085 C 0.56667 0.58259 0.13877 0.0
C1086 C 0.5479 0.55725 0.15155 0.0
C1087 C 0.54832 0.54525 0.10785 0.0
C1088 C 0.53831 0.56108 0.1623 0.0
C1089 C 0.5312 0.55352 0.18084 0.0
C1090 C 0.53345 0.54191 0.18886 0.0
C1091 C 0.54224 0.53741 0.17738 0.0
C1092 C 0.54952 0.54511 0.15898 0.0
H1093 H 0.54663 0.54397 0.09032 0.0
H1094 H 0.55366 0.53856 0.11298 0.0
H1095 H 0.53718 0.54048 0.11541 0.0
H1096 H 0.53688 0.57039 0.1569 0.0
H1097 H 0.52456 0.55725 0.18952 0.0
H1098 H 0.39098 0.01004 0.07529 0.0
H1099 H 0.40711 0.00632 0.10094 0.0
H1100 H 0.41903 0.98453 0.05228 0.0
H1101 H 0.40267 0.98805 0.02674 0.0
H1102 H 0.41033 0.96797 0.08786 0.0
H1103 H 0.45186 0.02676 0.11058 0.0
H1104 H 0.4327 0.02273 0.1113 0.0
H1105 H 0.44075 0.02188 0.08644 0.0
C1106 C 0.39743 0.00488 0.06997 0.0
C1107 C 0.39597 0.99971 0.04896 0.0
C1108 C 0.40665 0.00276 0.08461 0.0
C1109 C 0.41455 0.9954 0.07848 0.0
C1110 C 0.41316 0.99035 0.05736 0.0
H1111 H 0.4775 0.99003 0.16978 0.0
H1112 H 0.46696 0.99278 0.13573 0.0
C1113 C 0.40387 0.99239 0.04279 0.0
C1114 C 0.42319 0.99181 0.09446 0.0
H1115 H 0.45048 0.00752 0.13308 0.0
C1116 C 0.41924 0.97665 0.09755 0.0
C1117 C 0.43495 0.00308 0.10701 0.0
C1118 C 0.44045 0.01957 0.10364 0.0
C1119 C 0.4263 0.97247 0.11338 0.0
C1120 C 0.43748 0.98373 0.12661 0.0
C1121 C 0.44186 0.99889 0.12296 0.0
C1122 C 0.44382 0.98007 0.14558 0.0
C1123 C 0.42162 0.95603 0.11594 0.0
C1124 C 0.43431 0.97187 0.16219 0.0
C1125 C 0.44028 0.97036 0.18151 0.0
C1126 C 0.4559 0.9771 0.18465 0.0
C1127 C 0.46543 0.9847 0.1677 0.0
C1128 C 0.45942 0.98629 0.14833 0.0
H1129 H 0.41681 0.94965 0.10089 0.0
H1130 H 0.43124 0.95458 0.1211 0.0
H1131 H 0.41284 0.95105 0.12822 0.0
H1132 H 0.42228 0.96724 0.16061 0.0
H1133 H 0.43269 0.96434 0.19429 0.0
H1134 H 0.38437 0.98998 0.95844 0.0
H1135 H 0.39948 0.9879 0.93024 0.0
H1136 H 0.42982 0.03582 0.93391 0.0
H1137 H 0.41504 0.03798 0.96234 0.0
H1138 H 0.40807 1.00046 0.89098 0.0
H1139 H 0.45818 0.01934 0.94337 0.0
H1140 H 0.43994 0.0144 0.95351 0.0
H1141 H 0.45167 0.03274 0.94232 0.0
C1142 C 0.39413 1.00012 0.95304 0.0
C1143 C 0.39856 0.01413 0.96281 0.0
C1144 C 0.40281 0.99889 0.93699 0.0
C1145 C 0.41603 0.01163 0.93042 0.0
C1146 C 0.41994 0.02575 0.93921 0.0
H1147 H 0.4793 0.03557 0.83117 0.0
H1148 H 0.46486 0.0341 0.86269 0.0
C1149 C 0.41137 0.02698 0.95533 0.0
C1150 C 0.42585 0.01022 0.91452 0.0
H1151 H 0.46208 0.01867 0.90601 0.0
C1152 C 0.41983 0.00425 0.89435 0.0
C1153 C 0.44118 0.01505 0.91901 0.0
C1154 C 0.4481 0.02059 0.9408 0.0
C1155 C 0.42887 0.00361 0.87827 0.0
C1156 C 0.44429 0.00899 0.88253 0.0
C1157 C 0.45025 0.01458 0.90283 0.0
C1158 C 0.45455 0.00989 0.86557 0.0
C1159 C 0.42204 0.99769 0.85655 0.0
C1160 C 0.45395 0.99681 0.85735 0.0
C1161 C 0.46233 0.99765 0.83949 0.0
C1162 C 0.47129 0.01157 0.82955 0.0
C1163 C 0.47249 0.02472 0.83858 0.0
C1164 C 0.46424 0.02389 0.85651 0.0
H1165 H 0.41029 0.99545 0.85518 0.0
H1166 H 0.42882 0.00588 0.84411 0.0
H1167 H 0.4221 0.98702 0.85335 0.0
H1168 H 0.44657 0.98592 0.86424 0.0
H1169 H 0.46108 0.98734 0.83267 0.0
H1170 H 0.02273 0.39532 0.93345 0.0
H1171 H 0.02065 0.41103 0.90557 0.0
H1172 H 0.99829 0.42577 0.94913 0.0
H1173 H 1.00022 0.40985 0.97696 0.0
H1174 H 0.9833 0.41671 0.91138 0.0
H1175 H 0.04342 0.45578 0.89549 0.0
H1176 H 0.03855 0.43628 0.89599 0.0
H1177 H 0.03686 0.44521 0.91968 0.0
C1178 C 0.01779 0.40228 0.9372 0.0
C1179 C 0.01205 0.40177 0.95747 0.0
C1180 C 0.01658 0.41125 0.92128 0.0
C1181 C 0.00958 0.41986 0.92533 0.0
C1182 C 0.00386 0.41935 0.94566 0.0
H1183 H 0.98893 0.47303 0.83227 0.0
H1184 H 0.9914 0.46253 0.8665 0.0
C1185 C 0.005 0.41031 0.96154 0.0
C1186 C 0.00734 0.42854 0.90796 0.0
H1187 H 0.02594 0.45465 0.86955 0.0
C1188 C 0.99264 0.42517 0.90243 0.0
C1189 C 0.01948 0.43964 0.8963 0.0
C1190 C 0.03551 0.44458 0.9022 0.0
C1191 C 0.98979 0.43206 0.88491 0.0
C1192 C 1.00197 0.44266 0.87283 0.0
C1193 C 0.01663 0.44645 0.87884 0.0
C1194 C 0.99982 0.44881 0.85258 0.0
C1195 C 0.97381 0.42748 0.8788 0.0
C1196 C 0.00403 0.4448 0.83366 0.0
C1197 C 1.00276 0.4508 0.81437 0.0
C1198 C 0.99721 0.46096 0.8135 0.0
C1199 C 0.99318 0.46518 0.83251 0.0
C1200 C 0.99444 0.4591 0.85196 0.0
H1201 H 0.96556 0.41787 0.88838 0.0
H1202 H 0.9719 0.43718 0.88123 0.0
H1203 H 0.97172 0.42432 0.8617 0.0
H1204 H 0.00837 0.43703 0.83385 0.0
H1205 H 0.00628 0.44758 0.80008 0.0
H1206 H 0.61175 0.61802 0.96277 0.0
H1207 H 0.59506 0.60339 0.93339 0.0
H1208 H 0.60279 0.56643 0.9481 0.0
H1209 H 0.61919 0.58079 0.97786 0.0
H1210 H 0.60034 0.5923 0.89836 0.0
H1211 H 0.55755 0.54507 0.94533 0.0
H1212 H 0.57188 0.56232 0.95749 0.0
H1213 H 0.57607 0.54781 0.94984 0.0
C1214 C 0.60995 0.60679 0.95977 0.0
C1215 C 0.6168 0.60059 0.97277 0.0
C1216 C 0.60034 0.59842 0.94299 0.0
C1217 C 0.59739 0.58368 0.93884 0.0
C1218 C 0.60453 0.5776 0.9514 0.0
H1219 H 0.56716 0.53646 0.81985 0.0
H1220 H 0.58044 0.54935 0.8526 0.0
C1221 C 0.61405 0.58591 0.96828 0.0
C1222 C 0.58732 0.57491 0.92084 0.0
H1223 H 0.55654 0.54118 0.90762 0.0
C1224 C 0.59069 0.58118 0.90044 0.0
C1225 C 0.57455 0.5605 0.92359 0.0
C1226 C 0.56969 0.55359 0.94528 0.0
C1227 C 0.58199 0.57327 0.88263 0.0
C1228 C 0.56979 0.5585 0.88519 0.0
C1229 C 0.56604 0.55241 0.90566 0.0
C1230 C 0.56117 0.54913 0.86662 0.0
C1231 C 0.58592 0.58086 0.86121 0.0
C1232 C 0.5457 0.54396 0.8642 0.0
C1233 C 0.53803 0.53634 0.84558 0.0
C1234 C 0.54577 0.53387 0.82927 0.0
C1235 C 0.56102 0.53835 0.83223 0.0
C1236 C 0.56862 0.5458 0.85081 0.0
H1237 H 0.59232 0.59333 0.86286 0.0
H1238 H 0.59307 0.57731 0.85265 0.0
H1239 H 0.57569 0.57768 0.85137 0.0
H1240 H 0.53973 0.54631 0.87633 0.0
H1241 H 0.52627 0.53299 0.84351 0.0
H1242 H 0.98685 0.58631 0.97387 0.0
H1243 H 0.98157 0.56662 0.94746 0.0
H1244 H 0.00791 0.60087 0.90169 0.0
H1245 H 0.01168 0.62039 0.92742 0.0
H1246 H 0.98551 0.58136 0.88275 0.0
H1247 H 0.98933 0.54787 0.9413 0.0
H1248 H 0.00634 0.56572 0.94089 0.0
H1249 H 0.00599 0.5492 0.93035 0.0
C1250 C 0.99157 0.58955 0.95816 0.0
C1251 C 1.0004 0.60483 0.95294 0.0
C1252 C 0.98869 0.57829 0.94314 0.0
C1253 C 0.99485 0.58212 0.92273 0.0
C1254 C 1.00321 0.59749 0.91738 0.0
H1255 H 0.01225 0.53393 0.82654 0.0
H1256 H 0.0115 0.54635 0.85941 0.0
C1257 C 0.00565 0.60869 0.93218 0.0
C1258 C 0.9921 0.57035 0.90646 0.0
H1259 H 0.9946 0.53864 0.89674 0.0
C1260 C 0.98759 0.57208 0.88591 0.0
C1261 C 0.99454 0.55799 0.91046 0.0
C1262 C 0.99944 0.55516 0.9319 0.0
C1263 C 0.98604 0.56232 0.86919 0.0
C1264 C 0.98856 0.55009 0.8732 0.0
C1265 C 0.99263 0.54802 0.89378 0.0
C1266 C 0.98808 0.54008 0.85579 0.0
C1267 C 0.98229 0.56559 0.84718 0.0
C1268 C 0.97495 0.53172 0.84354 0.0
C1269 C 0.97537 0.52466 0.82475 0.0
C1270 C 0.98888 0.52569 0.81808 0.0
C1271 C 1.00166 0.53286 0.83139 0.0
C1272 C 1.00126 0.54003 0.8501 0.0
H1273 H 0.98409 0.57723 0.84592 0.0
H1274 H 0.98922 0.5641 0.83504 0.0
H1275 H 0.97031 0.55763 0.84339 0.0
H1276 H 0.96457 0.53132 0.84792 0.0
H1277 H 0.96534 0.5191 0.81482 0.0
H1278 H 0.38695 0.39724 0.96034 0.0
H1279 H 0.40123 0.41392 0.93122 0.0
H1280 H 0.43528 0.40111 0.9396 0.0
H1281 H 0.42111 0.38433 0.9684 0.0
H1282 H 0.43071 0.43855 0.93395 0.0
H1283 H 0.42679 0.39601 0.87558 0.0
H1284 H 0.41458 0.39111 0.89813 0.0
H1285 H 0.43337 0.39422 0.90146 0.0
C1286 C 0.39734 0.39775 0.95577 0.0
C1287 C 0.40281 0.38935 0.96673 0.0
C1288 C 0.40553 0.40737 0.93919 0.0
C1289 C 0.41925 0.40865 0.93312 0.0
C1290 C 0.4246 0.4001 0.94375 0.0
H1291 H 0.48656 0.45958 0.83921 0.0
H1292 H 0.47369 0.44552 0.87099 0.0
C1293 C 0.41646 0.39052 0.9603 0.0
C1294 C 0.42835 0.4194 0.91633 0.0
H1295 H 0.44445 0.42158 0.86838 0.0
C1296 C 0.43365 0.43485 0.91954 0.0
C1297 C 0.43222 0.41455 0.8976 0.0
C1298 C 0.42634 0.39806 0.89283 0.0
C1299 C 0.44297 0.44562 0.90469 0.0
C1300 C 0.44691 0.44076 0.88603 0.0
C1301 C 0.44155 0.4253 0.8828 0.0
C1302 C 0.45607 0.45136 0.86913 0.0
C1303 C 0.44875 0.4621 0.9093 0.0
C1304 C 0.45069 0.45969 0.85791 0.0
C1305 C 0.45809 0.46783 0.83986 0.0
C1306 C 0.47096 0.46771 0.83258 0.0
C1307 C 0.47682 0.46008 0.84456 0.0
C1308 C 0.46939 0.45192 0.86261 0.0
H1309 H 0.44825 0.46421 0.92651 0.0
H1310 H 0.46052 0.46907 0.90402 0.0
H1311 H 0.4417 0.46585 0.90053 0.0
H1312 H 0.44031 0.45924 0.86242 0.0
H1313 H 0.45332 0.4736 0.83094 0.0
H1314 H 0.60076 0.01498 0.98529 0.0
H1315 H 0.58472 0.01756 0.95819 0.0
H1316 H 0.60462 0.00317 0.91002 0.0
H1317 H 0.61979 0.99957 0.93739 0.0
H1318 H 0.59062 0.03514 0.92654 0.0
H1319 H 0.56267 0.97742 0.89273 0.0
H1320 H 0.57343 0.98249 0.9171 0.0
H1321 H 0.58273 0.98597 0.89193 0.0
C1322 C 0.60136 0.01201 0.96894 0.0
C1323 C 0.61111 0.00664 0.96343 0.0
C1324 C 0.5923 0.0136 0.95343 0.0
C1325 C 0.59316 0.0103 0.93197 0.0
C1326 C 0.60321 0.00523 0.92647 0.0
H1327 H 0.56418 0.04124 0.82204 0.0
H1328 H 0.577 0.04078 0.85477 0.0
C1329 C 0.61195 0.00323 0.94209 0.0
C1330 C 0.58393 0.01267 0.91537 0.0
H1331 H 0.56049 0.99587 0.87274 0.0
C1332 C 0.5839 0.02646 0.91493 0.0
C1333 C 0.57502 1.00142 0.90017 0.0
C1334 C 0.57333 0.98593 0.90052 0.0
C1335 C 0.57535 0.02928 0.89973 0.0
C1336 C 0.56691 0.01816 0.88418 0.0
C1337 C 0.56692 0.00442 0.88466 0.0
C1338 C 0.55824 0.02036 0.86673 0.0
C1339 C 0.57529 0.04402 0.9007 0.0
C1340 C 0.54329 0.00922 0.86264 0.0
C1341 C 0.5361 0.00914 0.84356 0.0
C1342 C 0.54365 0.02032 0.8282 0.0
C1343 C 0.55812 0.03226 0.83327 0.0
C1344 C 0.56542 0.03216 0.8522 0.0
H1345 H 0.57793 0.04887 0.91703 0.0
H1346 H 0.58404 0.05223 0.89001 0.0
H1347 H 0.56427 0.04263 0.89552 0.0
H1348 H 0.53749 0.99999 0.87363 0.0
H1349 H 0.52505 0.99967 0.84029 0.0
H1350 H 0.58573 0.96629 0.04297 0.0
H1351 H 0.57009 0.9663 0.07181 0.0
H1352 H 0.60374 0.0116 0.08896 0.0
H1353 H 0.61951 0.01181 0.05994 0.0
H1354 H 0.57635 0.97086 0.1158 0.0
H1355 H 0.56516 0.01452 0.08091 0.0
H1356 H 0.57277 0.00494 0.06566 0.0
H1357 H 0.58465 0.01987 0.08373 0.0
C1358 C 0.58991 0.97626 0.05291 0.0
C1359 C 0.60391 0.98909 0.049 0.0
C1360 C 0.58091 0.97624 0.06939 0.0
C1361 C 0.58562 0.98904 0.08226 0.0
C1362 C 0.59976 1.0017 0.07891 0.0
H1363 H 0.5483 0.00965 0.19106 0.0
H1364 H 0.56233 0.01068 0.15935 0.0
C1365 C 0.60882 1.00174 0.06243 0.0
C1366 C 0.5757 0.98901 0.09925 0.0
H1367 H 0.55594 0.00602 0.11549 0.0
C1368 C 0.57183 0.9785 0.11571 0.0
C1369 C 0.56983 0.999 0.09905 0.0
C1370 C 0.57318 0.01015 0.08132 0.0
C1371 C 0.56247 0.97787 0.13221 0.0
C1372 C 0.55654 0.98782 0.13199 0.0
C1373 C 0.56041 0.99835 0.11553 0.0
C1374 C 0.54683 0.98782 0.14929 0.0
C1375 C 0.55937 0.96685 0.15007 0.0
C1376 C 0.53308 0.97489 0.15356 0.0
C1377 C 0.52505 0.97425 0.17172 0.0
C1378 C 0.53063 0.98658 0.18585 0.0
C1379 C 0.54381 0.99991 0.18059 0.0
C1380 C 0.55182 1.00053 0.16247 0.0
H1381 H 0.56754 0.96267 0.15049 0.0
H1382 H 0.55976 0.97209 0.1657 0.0
H1383 H 0.54797 0.95699 0.14778 0.0
H1384 H 0.52886 0.96506 0.14333 0.0
H1385 H 0.515 0.96379 0.17536 0.0
H1386 H 0.03985 0.61256 0.03149 0.0
H1387 H 0.03688 0.59561 0.0608 0.0
H1388 H 0.99578 0.59442 0.07833 0.0
H1389 H 0.99873 0.61157 0.0493 0.0
H1390 H 0.01414 0.59789 0.1127 0.0
H1391 H 0.00721 0.55049 0.06165 0.0
H1392 H 0.02413 0.56793 0.05698 0.0
H1393 H 0.00621 0.56647 0.0512 0.0
C1394 C 0.03022 0.6088 0.04164 0.0
C1395 C 0.01949 0.61342 0.03791 0.0
C1396 C 0.02847 0.59897 0.05827 0.0
C1397 C 0.01591 0.59345 0.0714 0.0
C1398 C 0.00547 0.59843 0.06823 0.0
H1399 H 0.98562 0.53584 0.18239 0.0
H1400 H 0.98614 0.54843 0.14894 0.0
C1401 C 0.00722 0.60829 0.05165 0.0
C1402 C 0.01378 0.5827 0.0887 0.0
H1403 H 0.00971 0.54794 0.09891 0.0
C1404 C 0.01307 0.58693 0.10967 0.0
C1405 C 0.01239 0.5684 0.08469 0.0
C1406 C 0.01238 0.56296 0.0624 0.0
C1407 C 0.0113 0.57739 0.12679 0.0
C1408 C 0.00998 0.56313 0.1228 0.0
C1409 C 0.01067 0.55886 0.10186 0.0
C1410 C 0.00831 0.55281 0.14044 0.0
C1411 C 0.01121 0.58279 0.14909 0.0
C1412 C 0.02021 0.55028 0.14597 0.0
C1413 C 0.0199 0.54302 0.16501 0.0
C1414 C 0.00769 0.5382 0.17875 0.0
C1415 C 0.99522 0.53955 0.17216 0.0
C1416 C 0.99553 0.54678 0.15314 0.0
H1417 H 0.01544 0.59512 0.14975 0.0
H1418 H 0.99955 0.57695 0.15501 0.0
H1419 H 0.01819 0.5801 0.16 0.0
H1420 H 0.03015 0.55481 0.1363 0.0
H1421 H 0.02973 0.54228 0.16974 0.0
H1422 H 0.40775 0.41685 0.03571 0.0
H1423 H 0.42445 0.43449 0.06315 0.0
H1424 H 0.41105 0.39752 0.10684 0.0
H1425 H 0.39459 0.37993 0.07929 0.0
H1426 H 0.41662 0.44075 0.10093 0.0
H1427 H 0.45578 0.41881 0.11618 0.0
H1428 H 0.44463 0.41489 0.0922 0.0
H1429 H 0.43635 0.40448 0.11609 0.0
C1430 C 0.40869 0.41251 0.05105 0.0
C1431 C 0.40029 0.39701 0.05524 0.0
C1432 C 0.41817 0.42258 0.06673 0.0
C1433 C 0.41927 0.41735 0.08699 0.0
C1434 C 0.41082 0.40182 0.09117 0.0
H1435 H 0.45062 0.44921 0.21148 0.0
H1436 H 0.43858 0.43644 0.17834 0.0
C1437 C 0.40142 0.39175 0.07543 0.0
C1438 C 0.42838 0.4282 0.1042 0.0
H1439 H 0.45542 0.4354 0.14205 0.0
C1440 C 0.42525 0.43972 0.10972 0.0
C1441 C 0.43973 0.42697 0.11566 0.0
C1442 C 0.44446 0.4157 0.10969 0.0
C1443 C 0.43267 0.4495 0.12698 0.0
C1444 C 0.44352 0.44776 0.13886 0.0
C1445 C 0.44702 0.43665 0.13292 0.0
C1446 C 0.45036 0.45623 0.1588 0.0
C1447 C 0.42842 0.46119 0.13304 0.0
C1448 C 0.46107 0.47165 0.15877 0.0
C1449 C 0.46802 0.47909 0.17788 0.0
C1450 C 0.46425 0.47119 0.19721 0.0
C1451 C 0.45353 0.45574 0.19699 0.0
C1452 C 0.44668 0.44838 0.17803 0.0
H1453 H 0.41876 0.46016 0.12344 0.0
H1454 H 0.42553 0.46015 0.15014 0.0
H1455 H 0.43816 0.47261 0.13065 0.0
H1456 H 0.46422 0.47784 0.14398 0.0
H1457 H 0.47628 0.49097 0.17757 0.0
H1458 H 0.66376 0.72251 0.38943 0.0
H1459 H 0.6605 0.7372 0.4174 0.0
H1460 H 0.70409 0.77494 0.40414 0.0
H1461 H 0.7074 0.7605 0.37595 0.0
H1462 H 0.67738 0.75047 0.4536 0.0
H1463 H 0.67721 0.79391 0.40054 0.0
H1464 H 0.67531 0.77645 0.39059 0.0
H1465 H 0.6935 0.79178 0.39796 0.0
C1466 C 0.67271 0.7339 0.3925 0.0
C1467 C 0.68582 0.74032 0.38029 0.0
C1468 C 0.67079 0.7423 0.40846 0.0
C1469 C 0.6819 0.75728 0.4125 0.0
C1470 C 0.6952 0.76354 0.40089 0.0
H1471 H 0.69668 0.8235 0.50867 0.0
H1472 H 0.69742 0.81051 0.47639 0.0
C1473 C 0.69713 0.75519 0.3849 0.0
C1474 C 0.67969 0.76624 0.42916 0.0
H1475 H 0.6785 0.79872 0.4378 0.0
C1476 C 0.6775 0.76095 0.45012 0.0
C1477 C 0.67986 0.77992 0.42456 0.0
C1478 C 0.68145 0.7858 0.40216 0.0
C1479 C 0.67583 0.76914 0.46672 0.0
C1480 C 0.67613 0.78288 0.46216 0.0
C1481 C 0.67824 0.78816 0.44119 0.0
C1482 C 0.6747 0.79205 0.47923 0.0
C1483 C 0.67415 0.76323 0.48912 0.0
C1484 C 0.66142 0.78636 0.49079 0.0
C1485 C 0.66093 0.79379 0.50914 0.0
C1486 C 0.67372 0.80706 0.51617 0.0
C1487 C 0.68661 0.81338 0.50356 0.0
C1488 C 0.68709 0.80592 0.4852 0.0
H1489 H 0.67729 0.75428 0.49053 0.0
H1490 H 0.6812 0.77247 0.50046 0.0
H1491 H 0.66226 0.75837 0.49389 0.0
H1492 H 0.65166 0.77579 0.4862 0.0
H1493 H 0.65081 0.78875 0.51845 0.0
H1494 H 0.25841 0.93911 0.37167 0.0
H1495 H 0.23959 0.9245 0.39844 0.0
H1496 H 0.27491 0.93752 0.44573 0.0
H1497 H 0.29358 0.95262 0.41915 0.0
H1498 H 0.23525 0.90075 0.41989 0.0
H1499 H 0.24678 0.94607 0.47758 0.0
H1500 H 0.2547 0.94996 0.45138 0.0
H1501 H 0.26344 0.94505 0.47269 0.0
C1502 C 0.26206 0.93886 0.38785 0.0
C1503 C 0.2774 0.94647 0.39331 0.0
C1504 C 0.25135 0.93053 0.40311 0.0
C1505 C 0.25578 0.92995 0.42418 0.0
C1506 C 0.27113 0.93799 0.42973 0.0
H1507 H 0.21055 0.86197 0.51877 0.0
H1508 H 0.22311 0.87564 0.48665 0.0
C1509 C 0.28183 0.94638 0.41448 0.0
C1510 C 0.24445 0.92044 0.44011 0.0
H1511 H 0.23292 0.92076 0.49062 0.0
C1512 C 0.23468 0.90516 0.43531 0.0
C1513 C 0.24335 0.92623 0.46003 0.0
C1514 C 0.25252 0.94276 0.46562 0.0
C1515 C 0.22434 0.89539 0.45018 0.0
C1516 C 0.22393 0.90098 0.47058 0.0
C1517 C 0.23329 0.91639 0.47507 0.0
C1518 C 0.21437 0.89111 0.48789 0.0
C1519 C 0.21391 0.87921 0.44377 0.0
C1520 C 0.20512 0.89509 0.49925 0.0
C1521 C 0.19811 0.88741 0.51778 0.0
C1522 C 0.20012 0.87551 0.52521 0.0
C1523 C 0.20858 0.8709 0.51315 0.0
C1524 C 0.21576 0.87872 0.49476 0.0
H1525 H 0.21195 0.87809 0.42628 0.0
H1526 H 0.2191 0.87228 0.44837 0.0
H1527 H 0.20291 0.8746 0.4517 0.0
H1528 H 0.20386 0.9046 0.49431 0.0
H1529 H 0.19171 0.89123 0.52688 0.0
H1530 H 0.05412 0.34421 0.40634 0.0
H1531 H 0.07138 0.34279 0.43232 0.0
H1532 H 0.07927 0.31477 0.38889 0.0
H1533 H 0.06322 0.31762 0.36217 0.0
H1534 H 0.07002 0.32146 0.45289 0.0
H1535 H 0.12106 0.3413 0.40467 0.0
H1536 H 0.10437 0.34058 0.39391 0.0
H1537 H 0.10607 0.32388 0.39446 0.0
C1538 C 0.06008 0.33831 0.4021 0.0
C1539 C 0.05813 0.33182 0.38189 0.0
C1540 C 0.06974 0.33724 0.41706 0.0
C1541 C 0.07715 0.32908 0.41243 0.0
C1542 C 0.07438 0.32177 0.3926 0.0
H1543 H 0.12518 0.30151 0.50188 0.0
H1544 H 0.11309 0.30435 0.46955 0.0
C1545 C 0.06507 0.32325 0.3774 0.0
C1546 C 0.08691 0.32754 0.42898 0.0
H1547 H 0.12144 0.33087 0.43871 0.0
C1548 C 0.08131 0.32369 0.44969 0.0
C1549 C 0.1016 0.33006 0.42492 0.0
C1550 C 0.10864 0.33431 0.40331 0.0
C1551 C 0.08996 0.32261 0.46637 0.0
C1552 C 0.10465 0.32547 0.46235 0.0
C1553 C 0.11019 0.32885 0.44167 0.0
C1554 C 0.11439 0.32519 0.47975 0.0
C1555 C 0.0833 0.31837 0.48824 0.0
C1556 C 0.11973 0.33637 0.4956 0.0
C1557 C 0.1267 0.33485 0.51393 0.0
C1558 C 0.12843 0.3221 0.51673 0.0
C1559 C 0.12412 0.31151 0.50008 0.0
C1560 C 0.11714 0.31306 0.48168 0.0
H1561 H 0.07094 0.31372 0.48785 0.0
H1562 H 0.08581 0.30992 0.49555 0.0
H1563 H 0.08837 0.32854 0.4986 0.0
H1564 H 0.11782 0.34589 0.49424 0.0
H1565 H 0.13003 0.34323 0.52644 0.0
H1566 H 0.08208 0.36872 0.29518 0.0
H1567 H 0.09665 0.36519 0.26766 0.0
H1568 H 0.06435 0.31771 0.26493 0.0
H1569 H 0.04945 0.32122 0.29195 0.0
H1570 H 0.11033 0.34874 0.2699 0.0
H1571 H 0.06911 0.32748 0.20286 0.0
H1572 H 0.06632 0.33581 0.22638 0.0
H1573 H 0.06218 0.31649 0.22653 0.0
C1574 C 0.0779 0.35757 0.28843 0.0
C1575 C 0.06452 0.34527 0.29569 0.0
C1576 C 0.0863 0.35555 0.27276 0.0
C1577 C 0.08156 0.34121 0.26404 0.0
C1578 C 0.06807 0.32895 0.271 0.0
H1579 H 0.1244 0.30985 0.17333 0.0
H1580 H 0.11055 0.31101 0.20423 0.0
C1581 C 0.05956 0.33098 0.28651 0.0
C1582 C 0.09115 0.33903 0.24853 0.0
H1583 H 0.0914 0.32609 0.19854 0.0
C1584 C 0.10617 0.34381 0.25429 0.0
C1585 C 0.08575 0.33256 0.22815 0.0
C1586 C 0.07001 0.32792 0.2205 0.0
C1587 C 0.11591 0.34234 0.24022 0.0
C1588 C 0.11048 0.33589 0.21993 0.0
C1589 C 0.09544 0.33088 0.21425 0.0
C1590 C 0.12048 0.33528 0.20368 0.0
C1591 C 0.13194 0.3477 0.24705 0.0
C1592 C 0.13085 0.34856 0.19356 0.0
C1593 C 0.13866 0.3479 0.17594 0.0
C1594 C 0.13631 0.33396 0.1683 0.0
C1595 C 0.12658 0.32074 0.17919 0.0
C1596 C 0.11861 0.32138 0.19668 0.0
H1597 H 0.13366 0.34981 0.26446 0.0
H1598 H 0.13534 0.33929 0.24258 0.0
H1599 H 0.13943 0.35838 0.23875 0.0
H1600 H 0.13232 0.35937 0.19858 0.0
H1601 H 0.14597 0.35822 0.1676 0.0
H1602 H 0.6614 0.74038 0.31195 0.0
H1603 H 0.66112 0.75712 0.28399 0.0
H1604 H 0.68269 0.74084 0.24143 0.0
H1605 H 0.68308 0.72425 0.26944 0.0
H1606 H 0.6963 0.77198 0.24301 0.0
H1607 H 0.63474 0.74666 0.23031 0.0
H1608 H 0.64132 0.75189 0.25728 0.0
H1609 H 0.64296 0.73704 0.24453 0.0
C1610 C 0.66604 0.74042 0.29657 0.0
C1611 C 0.67268 0.73146 0.29291 0.0
C1612 C 0.66578 0.74987 0.2806 0.0
C1613 C 0.67178 0.75014 0.26057 0.0
C1614 C 0.67801 0.74082 0.25678 0.0
H1615 H 0.68551 0.78782 0.13828 0.0
H1616 H 0.68424 0.77546 0.17197 0.0
C1617 C 0.67835 0.73146 0.27277 0.0
C1618 C 0.67222 0.76057 0.24376 0.0
H1619 H 0.65033 0.76821 0.21012 0.0
C1620 C 0.68627 0.77127 0.23607 0.0
C1621 C 0.65907 0.75965 0.23466 0.0
C1622 C 0.64364 0.74813 0.24195 0.0
C1623 C 0.6876 0.78087 0.21931 0.0
C1624 C 0.67447 0.77951 0.20957 0.0
C1625 C 0.66037 0.76924 0.21771 0.0
C1626 C 0.67518 0.78733 0.18943 0.0
C1627 C 0.70307 0.79219 0.21189 0.0
C1628 C 0.67031 0.798 0.18803 0.0
C1629 C 0.67097 0.8051 0.16862 0.0
C1630 C 0.67627 0.80139 0.15037 0.0
C1631 C 0.68118 0.79076 0.15199 0.0
C1632 C 0.68058 0.78378 0.17126 0.0
H1633 H 0.71166 0.79503 0.2247 0.0
H1634 H 0.70612 0.78731 0.19837 0.0
H1635 H 0.70344 0.80273 0.20642 0.0
H1636 H 0.66605 0.80083 0.20191 0.0
H1637 H 0.66708 0.81322 0.16776 0.0
H1638 H 0.28301 0.91233 0.31535 0.0
H1639 H 0.26669 0.89832 0.28533 0.0
H1640 H 0.26394 0.93758 0.26655 0.0
H1641 H 0.28049 0.95182 0.29628 0.0
H1642 H 0.23757 0.89199 0.27698 0.0
H1643 H 0.27501 0.92517 0.21132 0.0
H1644 H 0.28164 0.92679 0.23845 0.0
H1645 H 0.27158 0.93627 0.23017 0.0
C1646 C 0.2791 0.91808 0.30472 0.0
C1647 C 0.28318 0.93327 0.30821 0.0
C1648 C 0.26971 0.91001 0.2876 0.0
C1649 C 0.26423 0.91694 0.27358 0.0
C1650 C 0.26828 0.93209 0.27693 0.0
H1651 H 0.20726 0.88494 0.16006 0.0
H1652 H 0.22012 0.89884 0.19251 0.0
C1653 C 0.27773 0.9402 0.294 0.0
C1654 C 0.25395 0.90817 0.25578 0.0
H1655 H 0.25016 0.90679 0.20169 0.0
C1656 C 0.24032 0.8952 0.26051 0.0
C1657 C 0.25755 0.91241 0.23432 0.0
C1658 C 0.27229 0.92584 0.22818 0.0
C1659 C 0.23017 0.8864 0.24433 0.0
C1660 C 0.23382 0.89062 0.22289 0.0
C1661 C 0.24736 0.90366 0.21818 0.0
C1662 C 0.22415 0.88134 0.20494 0.0
C1663 C 0.21556 0.87277 0.25029 0.0
C1664 C 0.22189 0.86678 0.20142 0.0
C1665 C 0.21461 0.85884 0.18287 0.0
C1666 C 0.20952 0.86537 0.16745 0.0
C1667 C 0.21115 0.87966 0.17156 0.0
C1668 C 0.21846 0.8876 0.19008 0.0
H1669 H 0.21269 0.87334 0.2671 0.0
H1670 H 0.2062 0.87159 0.23983 0.0
H1671 H 0.21658 0.8625 0.24835 0.0
H1672 H 0.22645 0.86186 0.21248 0.0
H1673 H 0.21381 0.848 0.18004 0.0
H1674 H 0.67286 0.95337 0.25855 0.0
H1675 H 0.66904 0.93378 0.23286 0.0
H1676 H 0.65003 0.90018 0.28204 0.0
H1677 H 0.65466 0.92002 0.30796 0.0
H1678 H 0.66874 0.89557 0.26142 0.0
H1679 H 0.63332 0.90326 0.20169 0.0
H1680 H 0.65027 0.92081 0.20569 0.0
H1681 H 0.63741 0.91242 0.22734 0.0
C1682 C 0.66799 0.9418 0.26381 0.0
C1683 C 0.66464 0.93819 0.28526 0.0
C1684 C 0.66549 0.93055 0.24906 0.0
C1685 C 0.65907 0.91541 0.25541 0.0
C1686 C 0.65505 0.91175 0.27675 0.0
H1687 H 0.64287 0.85407 0.14916 0.0
H1688 H 0.63808 0.86353 0.18223 0.0
C1689 C 0.65769 0.92305 0.29153 0.0
C1690 C 0.65762 0.90366 0.2401 0.0
H1691 H 0.64739 0.89155 0.18894 0.0
C1692 C 0.66391 0.89458 0.24565 0.0
C1693 C 0.65083 0.90188 0.21976 0.0
C1694 C 0.64243 0.91 0.21341 0.0
C1695 C 0.66453 0.88456 0.23096 0.0
C1696 C 0.659 0.88385 0.20999 0.0
C1697 C 0.65186 0.89222 0.20489 0.0
C1698 C 0.66138 0.87543 0.19261 0.0
C1699 C 0.67119 0.87495 0.23811 0.0
C1700 C 0.67596 0.87844 0.18783 0.0
C1701 C 0.67863 0.87273 0.16921 0.0
C1702 C 0.66681 0.86421 0.15486 0.0
C1703 C 0.65212 0.86052 0.16014 0.0
C1704 C 0.64941 0.866 0.17893 0.0
H1705 H 0.66936 0.87239 0.25534 0.0
H1706 H 0.6663 0.86417 0.2291 0.0
H1707 H 0.68349 0.88123 0.23565 0.0
H1708 H 0.68546 0.88602 0.19772 0.0
H1709 H 0.69008 0.87598 0.16523 0.0
H1710 H 0.08997 0.72203 0.31455 0.0
H1711 H 0.10481 0.73845 0.28583 0.0
H1712 H 0.06831 0.74616 0.26827 0.0
H1713 H 0.05333 0.72984 0.29723 0.0
H1714 H 0.09875 0.7361 0.24232 0.0
H1715 H 0.10406 0.78908 0.27515 0.0
H1716 H 0.09775 0.77224 0.29084 0.0
H1717 H 0.08514 0.7738 0.27218 0.0
C1718 C 0.085 0.72713 0.30458 0.0
C1719 C 0.07042 0.72461 0.30833 0.0
C1720 C 0.09355 0.73656 0.28816 0.0
C1721 C 0.08779 0.74377 0.27518 0.0
C1722 C 0.07311 0.74098 0.27842 0.0
H1723 H 0.12092 0.79938 0.16339 0.0
H1724 H 0.10749 0.78692 0.19575 0.0
C1725 C 0.0645 0.73152 0.29486 0.0
C1726 C 0.09715 0.75396 0.25805 0.0
H1727 H 0.11382 0.79041 0.24075 0.0
C1728 C 0.1021 0.74799 0.24202 0.0
C1729 C 0.10149 0.76946 0.25771 0.0
C1730 C 0.09696 0.77661 0.27497 0.0
C1731 C 0.11109 0.75703 0.22547 0.0
C1732 C 0.11551 0.77255 0.22517 0.0
C1733 C 0.11051 0.77854 0.24113 0.0
C1734 C 0.12482 0.78249 0.20782 0.0
C1735 C 0.11547 0.74979 0.20814 0.0
C1736 C 0.13935 0.78486 0.2045 0.0
C1737 C 0.14704 0.79196 0.18602 0.0
C1738 C 0.14032 0.79684 0.1706 0.0
C1739 C 0.12632 0.79562 0.17491 0.0
C1740 C 0.11864 0.78851 0.19338 0.0
H1741 H 0.10843 0.73731 0.20812 0.0
H1742 H 0.11448 0.75403 0.19226 0.0
H1743 H 0.12734 0.75266 0.21068 0.0
H1744 H 0.14441 0.78051 0.21566 0.0
H1745 H 0.15775 0.79262 0.18311 0.0
H1746 H 0.29203 0.34284 0.2719 0.0
H1747 H 0.27679 0.34734 0.24576 0.0
H1748 H 0.26416 0.36867 0.29433 0.0
H1749 H 0.27877 0.3633 0.32072 0.0
H1750 H 0.24059 0.35055 0.27385 0.0
H1751 H 0.28261 0.38277 0.21359 0.0
H1752 H 0.28264 0.36545 0.21798 0.0
H1753 H 0.2879 0.37899 0.23939 0.0
C1754 C 0.28588 0.34838 0.27692 0.0
C1755 C 0.28595 0.35215 0.29833 0.0
C1756 C 0.27745 0.35128 0.26192 0.0
C1757 C 0.26942 0.35853 0.26795 0.0
C1758 C 0.27019 0.36301 0.28926 0.0
H1759 H 0.22301 0.37207 0.15951 0.0
H1760 H 0.23813 0.37819 0.19234 0.0
C1761 C 0.2785 0.35995 0.30431 0.0
C1762 C 0.25925 0.36018 0.25242 0.0
H1763 H 0.25673 0.36865 0.20059 0.0
C1764 C 0.24418 0.35468 0.25791 0.0
C1765 C 0.26395 0.36614 0.23185 0.0
C1766 C 0.28021 0.37383 0.2255 0.0
C1767 C 0.2335 0.35383 0.24292 0.0
C1768 C 0.23794 0.35834 0.22175 0.0
C1769 C 0.2532 0.3649 0.2167 0.0
C1770 C 0.22694 0.35532 0.20417 0.0
C1771 C 0.21755 0.34794 0.24995 0.0
C1772 C 0.2153 0.34054 0.20021 0.0
C1773 C 0.2065 0.33711 0.18169 0.0
C1774 C 0.20939 0.34833 0.16658 0.0
C1775 C 0.22054 0.36325 0.17099 0.0
C1776 C 0.2292 0.36672 0.18967 0.0
H1777 H 0.21723 0.35066 0.26696 0.0
H1778 H 0.21172 0.35269 0.2403 0.0
H1779 H 0.2113 0.33548 0.24828 0.0
H1780 H 0.21359 0.33144 0.21076 0.0
H1781 H 0.19817 0.32547 0.17846 0.0
H1782 H 0.25194 0.30765 0.373 0.0
H1783 H 0.23701 0.30875 0.40202 0.0
H1784 H 0.2745 0.35079 0.42356 0.0
H1785 H 0.28971 0.34973 0.39467 0.0
H1786 H 0.25997 0.331 0.45632 0.0
H1787 H 0.21876 0.33628 0.40405 0.0
H1788 H 0.22071 0.32017 0.39786 0.0
H1789 H 0.23638 0.33883 0.39445 0.0
C1790 C 0.2571 0.31712 0.38393 0.0
C1791 C 0.27205 0.32866 0.38137 0.0
C1792 C 0.24847 0.31778 0.40042 0.0
C1793 C 0.25451 0.33004 0.4146 0.0
C1794 C 0.26957 0.34131 0.41262 0.0
H1795 H 0.21739 0.34913 0.527 0.0
H1796 H 0.23236 0.35221 0.49544 0.0
C1797 C 0.27826 0.34065 0.39614 0.0
C1798 C 0.24514 0.33094 0.43167 0.0
H1799 H 0.21228 0.33092 0.4406 0.0
C1800 C 0.24964 0.33115 0.4529 0.0
C1801 C 0.23166 0.33116 0.42714 0.0
C1802 C 0.22664 0.33175 0.40464 0.0
C1803 C 0.24076 0.33105 0.46975 0.0
C1804 C 0.22713 0.33096 0.46521 0.0
C1805 C 0.22274 0.33099 0.444 0.0
C1806 C 0.21704 0.33017 0.4824 0.0
C1807 C 0.24577 0.33054 0.49228 0.0
C1808 C 0.20309 0.3171 0.48485 0.0
C1809 C 0.1945 0.31532 0.50281 0.0
C1810 C 0.19972 0.32662 0.51858 0.0
C1811 C 0.21317 0.34017 0.51523 0.0
C1812 C 0.22175 0.34192 0.49728 0.0
H1813 H 0.25488 0.32761 0.49291 0.0
H1814 H 0.25006 0.34176 0.49986 0.0
H1815 H 0.23622 0.32218 0.50178 0.0
H1816 H 0.19925 0.30792 0.47347 0.0
H1817 H 0.18429 0.30469 0.50501 0.0
H1818 H 0.67142 0.95043 0.38553 0.0
H1819 H 0.67152 0.93562 0.41607 0.0
H1820 H 0.70567 0.92902 0.3868 0.0
H1821 H 0.70597 0.94412 0.35651 0.0
H1822 H 0.66485 0.90621 0.41714 0.0
H1823 H 0.72341 0.94338 0.44564 0.0
H1824 H 0.71433 0.94943 0.42629 0.0
H1825 H 0.72192 0.93764 0.41835 0.0
C1826 C 0.67909 0.94599 0.38567 0.0
C1827 C 0.68874 0.94857 0.36855 0.0
C1828 C 0.67908 0.93747 0.40311 0.0
C1829 C 0.68871 0.93134 0.40382 0.0
C1830 C 0.69837 0.9339 0.38682 0.0
H1831 H 0.6753 0.86145 0.49812 0.0
H1832 H 0.67809 0.87424 0.46389 0.0
C1833 C 0.69847 0.94251 0.36945 0.0
C1834 C 0.68834 0.92198 0.42215 0.0
H1835 H 0.70978 0.9198 0.4626 0.0
C1836 C 0.67468 0.90914 0.42707 0.0
C1837 C 0.70118 0.92587 0.4351 0.0
C1838 C 0.71601 0.9399 0.43125 0.0
C1839 C 0.67342 0.90023 0.44482 0.0
C1840 C 0.68626 0.90409 0.45772 0.0
C1841 C 0.69999 0.91676 0.45255 0.0
C1842 C 0.68538 0.89619 0.47795 0.0
C1843 C 0.65821 0.88715 0.4501 0.0
C1844 C 0.6891 0.90438 0.49705 0.0
C1845 C 0.68771 0.8972 0.51641 0.0
C1846 C 0.68247 0.8816 0.51719 0.0
C1847 C 0.67925 0.87345 0.49801 0.0
C1848 C 0.68071 0.88071 0.4785 0.0
H1849 H 0.649 0.88761 0.44118 0.0
H1850 H 0.6579 0.87645 0.44587 0.0
H1851 H 0.65606 0.88695 0.46738 0.0
H1852 H 0.69284 0.91635 0.49703 0.0
H1853 H 0.69069 0.9039 0.53085 0.0
H1854 H 0.05501 0.71609 0.41955 0.0
H1855 H 0.07174 0.73449 0.44622 0.0
H1856 H 0.0861 0.76987 0.39964 0.0
H1857 H 0.06933 0.75142 0.37297 0.0
H1858 H 0.10328 0.75291 0.44321 0.0
H1859 H 0.07511 0.78728 0.45129 0.0
H1860 H 0.06582 0.76868 0.43942 0.0
H1861 H 0.07955 0.78445 0.42473 0.0
C1862 C 0.06186 0.72778 0.41504 0.0
C1863 C 0.06133 0.73233 0.39416 0.0
C1864 C 0.07128 0.73829 0.43027 0.0
C1865 C 0.08009 0.75357 0.42494 0.0
C1866 C 0.07927 0.75819 0.40416 0.0
H1867 H 0.1431 0.82497 0.51414 0.0
H1868 H 0.13026 0.81269 0.48043 0.0
C1869 C 0.0698 0.74766 0.38894 0.0
C1870 C 0.09055 0.76444 0.44101 0.0
H1871 H 0.09696 0.7945 0.47222 0.0
C1872 C 0.10201 0.76209 0.44929 0.0
C1873 C 0.08893 0.77653 0.44892 0.0
C1874 C 0.07664 0.77941 0.4408 0.0
C1875 C 0.11163 0.77117 0.46563 0.0
C1876 C 0.10956 0.78276 0.47428 0.0
C1877 C 0.09853 0.78561 0.46546 0.0
C1878 C 0.11736 0.79054 0.49421 0.0
C1879 C 0.12372 0.76802 0.47388 0.0
C1880 C 0.11425 0.78215 0.51294 0.0
C1881 C 0.12149 0.78903 0.53195 0.0
C1882 C 0.13193 0.80454 0.53275 0.0
C1883 C 0.13511 0.813 0.51395 0.0
C1884 C 0.12776 0.80605 0.49479 0.0
H1885 H 0.12674 0.76208 0.46178 0.0
H1886 H 0.13399 0.77861 0.47864 0.0
H1887 H 0.11955 0.76067 0.48805 0.0
H1888 H 0.10619 0.77019 0.51285 0.0
H1889 H 0.11898 0.78214 0.54606 0.0
H1890 H 0.36938 0.0973 0.70794 0.0
H1891 H 0.36631 0.11045 0.73821 0.0
H1892 H 0.32435 0.07088 0.75286 0.0
H1893 H 0.32743 0.0575 0.72296 0.0
H1894 H 0.34374 0.117 0.74514 0.0
H1895 H 0.3459 0.08117 0.81003 0.0
H1896 H 0.35155 0.08027 0.78328 0.0
H1897 H 0.33198 0.0707 0.78992 0.0
C1898 C 0.35958 0.09129 0.71775 0.0
C1899 C 0.3487 0.07627 0.71305 0.0
C1900 C 0.35783 0.09887 0.735 0.0
C1901 C 0.3452 0.0916 0.74794 0.0
C1902 C 0.33435 0.07661 0.74337 0.0
H1903 H 0.31323 0.11765 0.85784 0.0
H1904 H 0.31471 0.10607 0.82458 0.0
C1905 C 0.33612 0.06899 0.7262 0.0
C1906 C 0.34314 0.09983 0.7658 0.0
H1907 H 0.33816 0.0988 0.81943 0.0
C1908 C 0.34258 0.11307 0.76141 0.0
C1909 C 0.34165 0.09469 0.787 0.0
C1910 C 0.34295 0.08102 0.79292 0.0
C1911 C 0.34033 0.12116 0.77763 0.0
C1912 C 0.3387 0.11591 0.79875 0.0
C1913 C 0.33927 0.1027 0.80315 0.0
C1914 C 0.33684 0.12411 0.8168 0.0
C1915 C 0.33949 0.13512 0.77207 0.0
C1916 C 0.34864 0.13827 0.8231 0.0
C1917 C 0.34785 0.14489 0.84213 0.0
C1918 C 0.33527 0.13739 0.85521 0.0
C1919 C 0.3231 0.12363 0.84817 0.0
C1920 C 0.32393 0.11701 0.82919 0.0
H1921 H 0.33753 0.13572 0.75476 0.0
H1922 H 0.33038 0.13549 0.78093 0.0
H1923 H 0.35026 0.14524 0.77662 0.0
H1924 H 0.3588 0.14381 0.81392 0.0
H1925 H 0.3575 0.15537 0.84726 0.0
H1926 H 0.92224 0.26883 0.70008 0.0
H1927 H 0.90239 0.25435 0.72563 0.0
H1928 H 0.93572 0.26888 0.77617 0.0
H1929 H 0.95536 0.28389 0.75076 0.0
H1930 H 0.8974 0.23121 0.74845 0.0
H1931 H 0.90579 0.2767 0.8037 0.0
H1932 H 0.91488 0.28055 0.77832 0.0
H1933 H 0.92293 0.27622 0.80114 0.0
C1934 C 0.92522 0.26895 0.7167 0.0
C1935 C 0.9403 0.27696 0.72347 0.0
C1936 C 0.91392 0.26069 0.73127 0.0
C1937 C 0.91749 0.26057 0.7529 0.0
C1938 C 0.93257 0.26901 0.75969 0.0
H1939 H 0.87329 0.19364 0.84751 0.0
H1940 H 0.88468 0.20666 0.81451 0.0
C1941 C 0.94384 0.27735 0.74514 0.0
C1942 C 0.9056 0.25107 0.76819 0.0
H1943 H 0.89264 0.25149 0.81765 0.0
C1944 C 0.89626 0.23568 0.76351 0.0
C1945 C 0.90371 0.25692 0.78756 0.0
C1946 C 0.91226 0.27354 0.79284 0.0
C1947 C 0.88569 0.22587 0.77811 0.0
C1948 C 0.88465 0.23152 0.79817 0.0
C1949 C 0.89348 0.24704 0.8024 0.0
C1950 C 0.87528 0.22159 0.81561 0.0
C1951 C 0.87575 0.20958 0.77179 0.0
C1952 C 0.86599 0.22541 0.82718 0.0
C1953 C 0.85972 0.21815 0.84628 0.0
C1954 C 0.86243 0.20676 0.85394 0.0
C1955 C 0.87074 0.20213 0.84161 0.0
C1956 C 0.87725 0.20958 0.82271 0.0
H1957 H 0.87379 0.2084 0.7543 0.0
H1958 H 0.88141 0.20307 0.77633 0.0
H1959 H 0.86473 0.20456 0.77973 0.0
H1960 H 0.8643 0.23464 0.82209 0.0
H1961 H 0.85354 0.22205 0.85574 0.0
H1962 H 0.72036 0.67664 0.74092 0.0
H1963 H 0.7372 0.67457 0.767 0.0
H1964 H 0.7457 0.64754 0.72253 0.0
H1965 H 0.73011 0.65108 0.69576 0.0
H1966 H 0.73587 0.65299 0.78685 0.0
H1967 H 0.78731 0.67398 0.73907 0.0
H1968 H 0.77063 0.67329 0.72837 0.0
H1969 H 0.7724 0.65664 0.7285 0.0
C1970 C 0.72636 0.67082 0.7365 0.0
C1971 C 0.72476 0.66485 0.71599 0.0
C1972 C 0.73577 0.66937 0.75151 0.0
C1973 C 0.74325 0.66133 0.74661 0.0
C1974 C 0.74076 0.65446 0.72648 0.0
H1975 H 0.7901 0.63463 0.84032 0.0
H1976 H 0.77696 0.63556 0.80786 0.0
C1977 C 0.73172 0.65634 0.71125 0.0
C1978 C 0.75294 0.65959 0.76309 0.0
H1979 H 0.78776 0.66367 0.77304 0.0
C1980 C 0.74724 0.65544 0.78371 0.0
C1981 C 0.76775 0.66243 0.75911 0.0
C1982 C 0.7749 0.66695 0.7376 0.0
C1983 C 0.75595 0.65451 0.80042 0.0
C1984 C 0.77075 0.65771 0.79648 0.0
C1985 C 0.77639 0.66133 0.77589 0.0
C1986 C 0.78065 0.65799 0.814 0.0
C1987 C 0.74939 0.65029 0.82234 0.0
C1988 C 0.78748 0.67052 0.82763 0.0
C1989 C 0.79506 0.67008 0.84602 0.0
C1990 C 0.79587 0.65707 0.85112 0.0
C1991 C 0.7898 0.64487 0.83671 0.0
C1992 C 0.78222 0.64533 0.81825 0.0
H1993 H 0.73719 0.6465 0.82231 0.0
H1994 H 0.75115 0.64116 0.82892 0.0
H1995 H 0.75525 0.66019 0.83311 0.0
H1996 H 0.7864 0.6804 0.82449 0.0
H1997 H 0.79973 0.67969 0.85674 0.0
H1998 H 0.71471 0.65941 0.61893 0.0
H1999 H 0.72931 0.65647 0.59071 0.0
H2000 H 0.76785 0.69871 0.60907 0.0
H2001 H 0.7535 0.70179 0.63725 0.0
H2002 H 0.74473 0.67562 0.55622 0.0
H2003 H 0.78369 0.66851 0.61113 0.0
H2004 H 0.76616 0.66679 0.61969 0.0
H2005 H 0.7823 0.6851 0.61619 0.0
C2006 C 0.72625 0.66816 0.61687 0.0
C2007 C 0.73291 0.6808 0.63052 0.0
C2008 C 0.73459 0.66641 0.60078 0.0
C2009 C 0.74975 0.6772 0.59814 0.0
C2010 C 0.75626 0.69008 0.61117 0.0
H2011 H 0.80679 0.69395 0.49086 0.0
H2012 H 0.79326 0.69545 0.52164 0.0
C2013 C 0.74796 0.69186 0.62718 0.0
C2014 C 0.75879 0.67515 0.58164 0.0
H2015 H 0.79032 0.67226 0.57453 0.0
C2016 C 0.75464 0.67479 0.56022 0.0
C2017 C 0.77161 0.67387 0.58693 0.0
C2018 C 0.77616 0.67344 0.60974 0.0
C2019 C 0.76325 0.67369 0.54389 0.0
C2020 C 0.77643 0.67308 0.54915 0.0
C2021 C 0.78031 0.67292 0.57058 0.0
C2022 C 0.78634 0.67283 0.53243 0.0
C2023 C 0.75818 0.67318 0.5211 0.0
C2024 C 0.7876 0.65991 0.52899 0.0
C2025 C 0.79539 0.65903 0.51141 0.0
C2026 C 0.80202 0.6711 0.49708 0.0
C2027 C 0.80163 0.68442 0.5015 0.0
C2028 C 0.79387 0.68527 0.51901 0.0
H2029 H 0.74619 0.67021 0.51992 0.0
H2030 H 0.76503 0.68443 0.51384 0.0
H2031 H 0.75975 0.66487 0.5117 0.0
H2032 H 0.78193 0.65023 0.53928 0.0
H2033 H 0.79541 0.6486 0.50831 0.0
H2034 H 0.3427 0.06188 0.60222 0.0
H2035 H 0.33868 0.0772 0.57587 0.0
H2036 H 0.31002 0.08338 0.61963 0.0
H2037 H 0.31564 0.06955 0.64679 0.0
H2038 H 0.31679 0.07388 0.55539 0.0
H2039 H 0.3331 0.12527 0.60361 0.0
H2040 H 0.33408 0.10947 0.61443 0.0
H2041 H 0.31648 0.10933 0.61332 0.0
C2042 C 0.3361 0.06711 0.60644 0.0
C2043 C 0.33034 0.06547 0.62689 0.0
C2044 C 0.33351 0.0756 0.59126 0.0
C2045 C 0.32444 0.08202 0.59587 0.0
C2046 C 0.3177 0.07933 0.6159 0.0
H2047 H 0.30058 0.11616 0.48202 0.0
H2048 H 0.29718 0.10271 0.51564 0.0
C2049 C 0.32077 0.07128 0.63135 0.0
C2050 C 0.32172 0.09092 0.57924 0.0
H2051 H 0.32337 0.12468 0.5689 0.0
C2052 C 0.3183 0.08501 0.55845 0.0
C2053 C 0.32339 0.1054 0.5831 0.0
C2054 C 0.32708 0.11277 0.60479 0.0
C2055 C 0.31733 0.09335 0.54137 0.0
C2056 C 0.31916 0.10783 0.54522 0.0
C2057 C 0.32193 0.11355 0.56605 0.0
C2058 C 0.31969 0.11771 0.52751 0.0
C2059 C 0.31511 0.08682 0.5192 0.0
C2060 C 0.333 0.1313 0.52391 0.0
C2061 C 0.33481 0.13918 0.50498 0.0
C2062 C 0.32336 0.13352 0.48937 0.0
C2063 C 0.30957 0.12069 0.49383 0.0
C2064 C 0.30768 0.11294 0.5129 0.0
H2065 H 0.31741 0.07726 0.51855 0.0
H2066 H 0.3033 0.08256 0.51394 0.0
H2067 H 0.32256 0.09553 0.50777 0.0
H2068 H 0.34238 0.13524 0.53504 0.0
H2069 H 0.34559 0.14897 0.50183 0.0
H2070 H 0.94814 0.28098 0.62697 0.0
H2071 H 0.93247 0.26593 0.59709 0.0
H2072 H 0.93502 0.22738 0.62008 0.0
H2073 H 0.95046 0.24222 0.65032 0.0
H2074 H 0.9379 0.25102 0.56539 0.0
H2075 H 0.88996 0.21056 0.61383 0.0
H2076 H 0.90507 0.22787 0.62471 0.0
H2077 H 0.90756 0.21177 0.62097 0.0
C2078 C 0.94546 0.26932 0.62568 0.0
C2079 C 0.95052 0.26281 0.64119 0.0
C2080 C 0.93646 0.26073 0.60858 0.0
C2081 C 0.93231 0.24545 0.60662 0.0
C2082 C 0.93776 0.23904 0.6216 0.0
H2083 H 0.88355 0.17921 0.50745 0.0
H2084 H 0.89698 0.19196 0.54026 0.0
C2085 C 0.94672 0.24761 0.63878 0.0
C2086 C 0.9224 0.23634 0.58873 0.0
H2087 H 0.88859 0.20528 0.57683 0.0
C2088 C 0.92711 0.24105 0.5679 0.0
C2089 C 0.90829 0.22333 0.59207 0.0
C2090 C 0.90232 0.21813 0.61409 0.0
C2091 C 0.91817 0.23304 0.55029 0.0
C2092 C 0.9041 0.22006 0.55363 0.0
C2093 C 0.8994 0.21525 0.57441 0.0
C2094 C 0.89418 0.21144 0.53555 0.0
C2095 C 0.92392 0.23839 0.52821 0.0
C2096 C 0.88765 0.21793 0.5226 0.0
C2097 C 0.87987 0.21063 0.504 0.0
C2098 C 0.8785 0.19672 0.498 0.0
C2099 C 0.88427 0.18983 0.51171 0.0
C2100 C 0.89204 0.19714 0.53038 0.0
H2101 H 0.93612 0.2467 0.52833 0.0
H2102 H 0.92185 0.22874 0.51782 0.0
H2103 H 0.91784 0.24387 0.52113 0.0
H2104 H 0.88903 0.22888 0.52654 0.0
H2105 H 0.87537 0.21612 0.49389 0.0
H2106 H 0.33279 0.25945 0.64885 0.0
H2107 H 0.3321 0.24188 0.62161 0.0
H2108 H 0.3548 0.27896 0.57826 0.0
H2109 H 0.35563 0.29646 0.60554 0.0
H2110 H 0.318 0.23581 0.58317 0.0
H2111 H 0.37871 0.25774 0.57036 0.0
H2112 H 0.37141 0.26156 0.59397 0.0
H2113 H 0.3734 0.2721 0.57004 0.0
C2114 C 0.33791 0.26383 0.63362 0.0
C2115 C 0.3447 0.27933 0.62945 0.0
C2116 C 0.33748 0.25381 0.61807 0.0
C2117 C 0.34366 0.2591 0.59798 0.0
C2118 C 0.35039 0.27463 0.59382 0.0
H2119 H 0.34299 0.22897 0.47319 0.0
H2120 H 0.34455 0.24138 0.50692 0.0
C2121 C 0.35089 0.28464 0.60941 0.0
C2122 C 0.3421 0.24833 0.58085 0.0
H2123 H 0.36205 0.24154 0.54366 0.0
C2124 C 0.32765 0.2369 0.57475 0.0
C2125 C 0.35466 0.24965 0.56987 0.0
C2126 C 0.37047 0.26086 0.57645 0.0
C2127 C 0.32544 0.22735 0.55732 0.0
C2128 C 0.338 0.22922 0.54588 0.0
C2129 C 0.35243 0.24019 0.55246 0.0
C2130 C 0.33647 0.22113 0.52569 0.0
C2131 C 0.30969 0.21582 0.55058 0.0
C2132 C 0.33159 0.20561 0.52512 0.0
C2133 C 0.33068 0.19842 0.50571 0.0
C2134 C 0.33454 0.20668 0.48669 0.0
C2135 C 0.33964 0.22224 0.48751 0.0
C2136 C 0.34059 0.22937 0.50677 0.0
H2137 H 0.30107 0.21685 0.5598 0.0
H2138 H 0.30788 0.21705 0.5334 0.0
H2139 H 0.30809 0.20434 0.55294 0.0
H2140 H 0.3286 0.19913 0.53966 0.0
H2141 H 0.32676 0.18643 0.50551 0.0
H2142 H 0.72003 0.06213 0.62332 0.0
H2143 H 0.735 0.07849 0.59435 0.0
H2144 H 0.77142 0.07059 0.61164 0.0
H2145 H 0.7566 0.05412 0.64027 0.0
H2146 H 0.76301 0.10499 0.59728 0.0
H2147 H 0.76649 0.06184 0.54798 0.0
H2148 H 0.75313 0.05697 0.56905 0.0
H2149 H 0.77232 0.0622 0.57513 0.0
C2150 C 0.73114 0.06369 0.62079 0.0
C2151 C 0.73702 0.05668 0.63412 0.0
C2152 C 0.73971 0.07311 0.60428 0.0
C2153 C 0.75427 0.07563 0.60069 0.0
C2154 C 0.76012 0.06859 0.61385 0.0
H2155 H 0.82429 0.12578 0.51018 0.0
H2156 H 0.81087 0.11356 0.54261 0.0
C2157 C 0.75159 0.05918 0.63029 0.0
C2158 C 0.76357 0.08593 0.58361 0.0
H2159 H 0.78283 0.08742 0.53902 0.0
C2160 C 0.76729 0.10115 0.58446 0.0
C2161 C 0.76915 0.0809 0.56692 0.0
C2162 C 0.76497 0.06456 0.56454 0.0
C2163 C 0.7767 0.11154 0.56929 0.0
C2164 C 0.7824 0.10653 0.55276 0.0
C2165 C 0.7786 0.09129 0.55187 0.0
C2166 C 0.79179 0.11661 0.53556 0.0
C2167 C 0.7807 0.12784 0.57129 0.0
C2168 C 0.78578 0.12288 0.52123 0.0
C2169 C 0.79348 0.12996 0.50277 0.0
C2170 C 0.8073 0.13083 0.49823 0.0
C2171 C 0.81378 0.1255 0.51335 0.0
C2172 C 0.80605 0.11838 0.5318 0.0
H2173 H 0.77882 0.13062 0.58762 0.0
H2174 H 0.79261 0.13546 0.56713 0.0
H2175 H 0.77353 0.13007 0.56014 0.0
H2176 H 0.77471 0.12146 0.52362 0.0
H2177 H 0.78821 0.13395 0.49137 0.0
H2178 H 0.95818 0.67526 0.6044 0.0
H2179 H 0.94282 0.67927 0.57787 0.0
H2180 H 0.92976 0.70077 0.6256 0.0
H2181 H 0.9445 0.6959 0.65239 0.0
H2182 H 0.9063 0.68233 0.60519 0.0
H2183 H 0.94841 0.71427 0.54482 0.0
H2184 H 0.94846 0.697 0.54966 0.0
H2185 H 0.95367 0.71073 0.57079 0.0
C2186 C 0.95191 0.68073 0.60915 0.0
C2187 C 0.95192 0.68469 0.63045 0.0
C2188 C 0.94341 0.68335 0.59392 0.0
C2189 C 0.93521 0.6905 0.5996 0.0
C2190 C 0.9359 0.69518 0.6208 0.0
H2191 H 0.88893 0.70485 0.4916 0.0
H2192 H 0.90425 0.71036 0.52415 0.0
C2193 C 0.9443 0.6924 0.63607 0.0
C2194 C 0.92501 0.69191 0.58384 0.0
H2195 H 0.92256 0.70029 0.53192 0.0
C2196 C 0.90992 0.6864 0.58924 0.0
C2197 C 0.92973 0.69778 0.56323 0.0
C2198 C 0.946 0.70544 0.55692 0.0
C2199 C 0.89927 0.68556 0.57419 0.0
C2200 C 0.90374 0.69008 0.55304 0.0
C2201 C 0.91901 0.69654 0.54803 0.0
C2202 C 0.8928 0.68736 0.53548 0.0
C2203 C 0.88332 0.67973 0.58117 0.0
C2204 C 0.88097 0.6727 0.53131 0.0
C2205 C 0.87205 0.66962 0.51295 0.0
C2206 C 0.87501 0.68107 0.4982 0.0
C2207 C 0.88641 0.69585 0.50279 0.0
C2208 C 0.89519 0.69898 0.52132 0.0
H2209 H 0.88296 0.68228 0.59825 0.0
H2210 H 0.8776 0.68467 0.57166 0.0
H2211 H 0.87697 0.66729 0.57922 0.0
H2212 H 0.87914 0.66345 0.5416 0.0
H2213 H 0.86353 0.65808 0.50957 0.0
H2214 H 0.95565 0.68273 0.7276 0.0
H2215 H 0.94059 0.6831 0.75725 0.0
H2216 H 0.90321 0.64119 0.73513 0.0
H2217 H 0.91808 0.6406 0.70564 0.0
H2218 H 0.91229 0.68273 0.75413 0.0
H2219 H 0.90781 0.6336 0.79857 0.0
H2220 H 0.92178 0.64325 0.77855 0.0
H2221 H 0.90275 0.63004 0.77087 0.0
C2222 C 0.94429 0.67348 0.72917 0.0
C2223 C 0.93813 0.66159 0.71423 0.0
C2224 C 0.93568 0.67377 0.74607 0.0
C2225 C 0.92084 0.66211 0.74846 0.0
C2226 C 0.91472 0.65018 0.73375 0.0
H2227 H 0.85091 0.63971 0.84017 0.0
H2228 H 0.86465 0.64154 0.80787 0.0
C2229 C 0.92326 0.6499 0.71685 0.0
C2230 C 0.91155 0.66255 0.76598 0.0
H2231 H 0.89223 0.64331 0.8097 0.0
C2232 C 0.90795 0.67417 0.76637 0.0
C2233 C 0.90587 0.65133 0.78183 0.0
C2234 C 0.90983 0.63891 0.78263 0.0
C2235 C 0.89855 0.67469 0.78201 0.0
C2236 C 0.89283 0.66343 0.79783 0.0
C2237 C 0.89651 0.65187 0.79745 0.0
C2238 C 0.8834 0.66357 0.81543 0.0
C2239 C 0.89457 0.68709 0.78118 0.0
C2240 C 0.88916 0.67555 0.83009 0.0
C2241 C 0.88123 0.67462 0.84846 0.0
C2242 C 0.86747 0.6616 0.85264 0.0
C2243 C 0.86135 0.64998 0.83733 0.0
C2244 C 0.86927 0.65094 0.81894 0.0
H2245 H 0.89615 0.69204 0.76503 0.0
H2246 H 0.88276 0.68288 0.78591 0.0
H2247 H 0.90201 0.69622 0.79239 0.0
H2248 H 0.90014 0.6853 0.82792 0.0
H2249 H 0.88622 0.68378 0.85991 0.0
H2250 H 0.37821 0.2915 0.71634 0.0
H2251 H 0.37517 0.27443 0.74552 0.0
H2252 H 0.32973 0.26524 0.75389 0.0
H2253 H 0.33256 0.2822 0.72464 0.0
H2254 H 0.36691 0.27441 0.78867 0.0
H2255 H 0.32552 0.22311 0.74456 0.0
H2256 H 0.33714 0.24088 0.73159 0.0
H2257 H 0.32087 0.23793 0.74591 0.0
C2258 C 0.3676 0.28599 0.72449 0.0
C2259 C 0.35559 0.28818 0.71798 0.0
C2260 C 0.36589 0.2762 0.74114 0.0
C2261 C 0.35214 0.26835 0.75153 0.0
C2262 C 0.34034 0.27097 0.74575 0.0
H2263 H 0.31696 0.20531 0.8545 0.0
H2264 H 0.32071 0.22062 0.82276 0.0
C2265 C 0.34204 0.28078 0.72912 0.0
C2266 C 0.3501 0.25731 0.76831 0.0
H2267 H 0.32975 0.21999 0.78096 0.0
C2268 C 0.35887 0.2625 0.78696 0.0
C2269 C 0.3396 0.24178 0.76595 0.0
C2270 C 0.33031 0.23552 0.74586 0.0
C2271 C 0.35713 0.25262 0.80365 0.0
C2272 C 0.34656 0.23709 0.80136 0.0
C2273 C 0.33788 0.23189 0.78261 0.0
C2274 C 0.34385 0.22626 0.81877 0.0
C2275 C 0.36626 0.25899 0.82385 0.0
C2276 C 0.3554 0.22381 0.82645 0.0
C2277 C 0.3533 0.2151 0.84463 0.0
C2278 C 0.33958 0.20866 0.85535 0.0
C2279 C 0.3277 0.21027 0.8467 0.0
C2280 C 0.32982 0.21899 0.82856 0.0
H2281 H 0.37123 0.27143 0.82488 0.0
H2282 H 0.35926 0.25386 0.83806 0.0
H2283 H 0.37558 0.2564 0.82428 0.0
H2284 H 0.36622 0.22909 0.81884 0.0
H2285 H 0.3627 0.21416 0.85096 0.0
H2286 H 0.72265 0.0473 0.74568 0.0
H2287 H 0.73996 0.06494 0.77263 0.0
H2288 H 0.75592 0.10096 0.72689 0.0
H2289 H 0.73851 0.0833 0.69998 0.0
H2290 H 0.77153 0.08224 0.77058 0.0
H2291 H 0.74564 0.11871 0.77838 0.0
H2292 H 0.73595 0.10037 0.76582 0.0
H2293 H 0.75031 0.11615 0.75185 0.0
C2294 C 0.72997 0.05896 0.74141 0.0
C2295 C 0.72967 0.06393 0.7207 0.0
C2296 C 0.73975 0.06904 0.75679 0.0
C2297 C 0.74917 0.08428 0.75179 0.0
C2298 C 0.74863 0.0893 0.73117 0.0
H2299 H 0.81057 0.15551 0.84152 0.0
H2300 H 0.799 0.14266 0.80757 0.0
C2301 C 0.73879 0.07923 0.71581 0.0
C2302 C 0.75976 0.09475 0.76811 0.0
H2303 H 0.7674 0.12524 0.79913 0.0
C2304 C 0.77071 0.09171 0.77662 0.0
C2305 C 0.75875 0.10721 0.77594 0.0
C2306 C 0.74698 0.11081 0.76769 0.0
C2307 C 0.78048 0.10053 0.79305 0.0
C2308 C 0.77904 0.11256 0.80155 0.0
C2309 C 0.7685 0.11603 0.79251 0.0
C2310 C 0.78705 0.12041 0.82138 0.0
C2311 C 0.7921 0.09673 0.80138 0.0
C2312 C 0.78419 0.11214 0.84022 0.0
C2313 C 0.79071 0.11938 0.8594 0.0
C2314 C 0.80016 0.13509 0.86019 0.0
C2315 C 0.80338 0.14338 0.84126 0.0
C2316 C 0.79674 0.13609 0.82196 0.0
H2317 H 0.79504 0.09083 0.78912 0.0
H2318 H 0.8025 0.10702 0.80667 0.0
H2319 H 0.78749 0.08908 0.81518 0.0
H2320 H 0.77657 0.10008 0.8402 0.0
H2321 H 0.78813 0.11271 0.87375 0.0
H2322 H 0.02924 0.34606 0.02851 0.0
H2323 H 0.04493 0.33575 0.04215 0.0
H2324 H 0.08354 0.37176 0.01198 0.0
H2325 H 0.06813 0.38189 0.99808 0.0
H2326 H 0.08243 0.34409 0.00798 0.0
H2327 H 0.07467 0.35629 0.09168 0.0
H2328 H 0.05787 0.34409 0.07678 0.0
H2329 H 0.06899 0.3635 0.06931 0.0
C2330 C 0.04103 0.35168 0.02464 0.0
C2331 C 0.04743 0.36494 0.01248 0.0
C2332 C 0.04999 0.34581 0.0325 0.0
C2333 C 0.06545 0.35312 0.02832 0.0
C2334 C 0.07166 0.36594 0.01545 0.0
H2335 H 0.14014 0.36197 0.1002 0.0
H2336 H 0.12202 0.36501 0.07793 0.0
C2337 C 0.06279 0.37179 0.00764 0.0
C2338 C 0.07559 0.34826 0.03827 0.0
H2339 H 0.09146 0.34736 0.08595 0.0
C2340 C 0.08429 0.3446 0.02505 0.0
C2341 C 0.07812 0.34914 0.06052 0.0
C2342 C 0.06953 0.35357 0.07547 0.0
C2343 C 0.09575 0.34221 0.03347 0.0
C2344 C 0.09844 0.34338 0.05567 0.0
C2345 C 0.0894 0.34654 0.0689 0.0
C2346 C 0.111 0.34216 0.06567 0.0
C2347 C 0.10529 0.3391 0.01853 0.0
C2348 C 0.11124 0.32851 0.06543 0.0
C2349 C 0.12175 0.32683 0.07797 0.0
C2350 C 0.13202 0.33873 0.09104 0.0
C2351 C 0.13238 0.35267 0.09014 0.0
C2352 C 0.12198 0.35437 0.07756 0.0
H2353 H 0.10372 0.3415 0.00173 0.0
H2354 H 0.11737 0.34597 0.02298 0.0
H2355 H 0.10217 0.32704 0.01964 0.0
H2356 H 0.10274 0.31888 0.05662 0.0
H2357 H 0.12107 0.3159 0.07871 0.0
H2358 H 0.6632 0.68292 0.05459 0.0
H2359 H 0.66754 0.70849 0.06026 0.0
H2360 H 0.64761 0.70715 -0.00116 0.0
H2361 H 0.6436 0.68171 0.99279 0.0
H2362 H 0.67201 0.73485 0.00708 0.0
H2363 H 0.63369 0.71622 0.07551 0.0
H2364 H 0.64876 0.71218 0.07897 0.0
H2365 H 0.63513 0.70309 0.05787 0.0
C2366 C 0.65987 0.68812 0.0422 0.0
C2367 C 0.65292 0.68023 0.02334 0.0
C2368 C 0.66228 0.70271 0.04551 0.0
C2369 C 0.65755 0.7096 0.0302 0.0
C2370 C 0.65124 0.70202 0.01094 0.0
H2371 H 0.64632 0.78392 0.0746 0.0
H2372 H 0.64158 0.76146 0.05432 0.0
C2373 C 0.64895 0.68747 0.00752 0.0
C2374 C 0.65867 0.72443 0.03468 0.0
H2375 H 0.6488 0.74271 0.07088 0.0
C2376 C 0.66684 0.73657 0.02093 0.0
C2377 C 0.65159 0.72659 0.05242 0.0
C2378 C 0.64167 0.71379 0.06691 0.0
C2379 C 0.66861 0.75094 0.02495 0.0
C2380 C 0.6623 0.7533 0.04344 0.0
C2381 C 0.65371 0.741 0.05672 0.0
C2382 C 0.66509 0.76845 0.0503 0.0
C2383 C 0.67714 0.76338 0.00926 0.0
C2384 C 0.67984 0.78025 0.05379 0.0
C2385 C 0.68251 0.79325 0.06485 0.0
C2386 C 0.67049 0.79455 0.0729 0.0
C2387 C 0.65574 0.78329 0.06812 0.0
C2388 C 0.65306 0.7704 0.05676 0.0
H2389 H 0.67633 0.75876 0.993 0.0
H2390 H 0.67293 0.77153 0.00872 0.0
H2391 H 0.68919 0.76952 0.01401 0.0
H2392 H 0.68934 0.77894 0.04954 0.0
H2393 H 0.69397 0.80161 0.06891 0.0
H2394 H 0.33027 0.97068 0.06138 0.0
H2395 H 0.30595 0.94944 0.07077 0.0
H2396 H 0.29213 0.94335 0.00468 0.0
H2397 H 0.31683 0.96413 0.99512 0.0
H2398 H 0.2789 0.94453 0.06811 0.0
H2399 H 0.28159 0.90133 0.01801 0.0
H2400 H 0.29746 0.91994 0.0218 0.0
H2401 H 0.28281 0.91679 0.00287 0.0
C2402 C 0.32205 0.96481 0.04884 0.0
C2403 C 0.32551 0.96901 0.02749 0.0
C2404 C 0.30812 0.95264 0.05421 0.0
C2405 C 0.29722 0.9445 0.03842 0.0
C2406 C 0.30046 0.94906 0.01713 0.0
H2407 H 0.20688 0.88296 0.0864 0.0
H2408 H 0.22693 0.90286 0.06548 0.0
C2409 C 0.31455 0.96105 0.01169 0.0
C2410 C 0.28249 0.93142 0.04453 0.0
H2411 H 0.25871 0.89382 0.03557 0.0
C2412 C 0.2745 0.93345 0.06095 0.0
C2413 C 0.27675 0.91687 0.03538 0.0
C2414 C 0.28516 0.91353 0.0187 0.0
C2415 C 0.26123 0.92138 0.06885 0.0
C2416 C 0.25528 0.9069 0.05937 0.0
C2417 C 0.2631 0.90492 0.04265 0.0
C2418 C 0.24179 0.89345 0.06792 0.0
C2419 C 0.25423 0.92422 0.08801 0.0
C2420 C 0.24283 0.88081 0.07454 0.0
C2421 C 0.23112 0.86915 0.08569 0.0
C2422 C 0.21822 0.86997 0.09056 0.0
C2423 C 0.21668 0.88203 0.08264 0.0
C2424 C 0.22825 0.89353 0.07104 0.0
H2425 H 0.26233 0.93462 0.09672 0.0
H2426 H 0.24465 0.92569 0.08272 0.0
H2427 H 0.25003 0.91463 0.09925 0.0
H2428 H 0.25307 0.88038 0.07226 0.0
H2429 H 0.23266 0.8601 0.09197 0.0
H2430 H 0.37803 0.05895 0.01557 0.0
H2431 H 0.36869 0.07546 0.00337 0.0
H2432 H 0.33072 0.03782 0.97305 0.0
H2433 H 0.34005 0.02094 0.98524 0.0
H2434 H 0.36347 0.0777 0.95715 0.0
H2435 H 0.31374 0.0624 0.00755 0.0
H2436 H 0.32884 0.05918 0.01618 0.0
H2437 H 0.31599 0.04756 0.99572 0.0
C2438 C 0.36761 0.05404 0.00645 0.0
C2439 C 0.35989 0.03857 0.00119 0.0
C2440 C 0.36227 0.06354 -0.00043 0.0
C2441 C 0.34901 0.05787 0.9874 0.0
C2442 C 0.34091 0.04238 0.98265 0.0
H2443 H 0.31255 0.10789 0.92068 0.0
H2444 H 0.31478 0.08825 0.94017 0.0
C2445 C 0.34629 0.03277 0.98955 0.0
C2446 C 0.34469 0.0686 0.9782 0.0
H2447 H 0.32029 0.08217 0.983 0.0
C2448 C 0.35399 0.07864 0.96273 0.0
C2449 C 0.33228 0.06972 0.98546 0.0
C2450 C 0.32209 0.05922 0.0022 0.0
C2451 C 0.35134 0.0899 0.95443 0.0
C2452 C 0.33926 0.09143 0.96223 0.0
C2453 C 0.32967 0.08112 0.97731 0.0
C2454 C 0.33642 0.10355 0.95434 0.0
C2455 C 0.36143 0.09995 0.93718 0.0
C2456 C 0.34742 0.11876 0.95688 0.0
C2457 C 0.34625 0.13 0.94564 0.0
C2458 C 0.33398 0.12621 0.93177 0.0
C2459 C 0.32224 0.11113 0.93102 0.0
C2460 C 0.32347 0.0999 0.94218 0.0
H2461 H 0.36757 0.09491 0.9293 0.0
H2462 H 0.35488 0.10218 0.92488 0.0
H2463 H 0.36986 0.1109 0.94428 0.0
H2464 H 0.35739 0.12184 0.96652 0.0
H2465 H 0.35552 0.14145 0.94654 0.0
H2466 H 0.98588 0.3296 0.95416 0.0
H2467 H 0.96458 0.30437 0.947 0.0
H2468 H 0.94641 0.30453 0.00829 0.0
H2469 H 0.96765 0.32968 0.01566 0.0
H2470 H 0.95375 0.27642 0.97529 0.0
H2471 H 0.91251 0.29635 0.96158 0.0
H2472 H 0.93247 0.30872 0.95889 0.0
H2473 H 0.92459 0.30313 0.98479 0.0
C2474 C 0.97739 0.32425 0.96615 0.0
C2475 C 0.97844 0.33167 0.98544 0.0
C2476 C 0.96525 0.30983 0.96205 0.0
C2477 C 0.95389 0.30266 0.97706 0.0
C2478 C 0.95501 0.30993 0.99645 0.0
H2479 H 0.86706 0.22035 0.95203 0.0
H2480 H 0.88736 0.24167 0.97196 0.0
C2481 C 0.96718 0.32429 0.00063 0.0
C2482 C 0.94075 0.28768 0.97223 0.0
H2483 H 0.90378 0.27047 0.95712 0.0
C2484 C 0.94278 0.27507 0.97149 0.0
C2485 C 0.92643 0.28594 0.96761 0.0
C2486 C 0.92375 0.29922 0.96812 0.0
C2487 C 0.93092 0.26078 0.96569 0.0
C2488 C 0.91677 0.25916 0.95993 0.0
C2489 C 0.9146 0.27169 0.96156 0.0
C2490 C 0.90472 0.24517 0.94972 0.0
C2491 C 0.93372 0.24757 0.96565 0.0
C2492 C 0.90775 0.24001 0.93079 0.0
C2493 C 0.89629 0.22796 0.91958 0.0
C2494 C 0.88146 0.22085 0.92685 0.0
C2495 C 0.87842 0.2256 0.94618 0.0
C2496 C 0.88998 0.23778 0.95747 0.0
H2497 H 0.94256 0.24922 0.97751 0.0
H2498 H 0.92335 0.23685 0.96918 0.0
H2499 H 0.9377 0.24657 0.94975 0.0
H2500 H 0.9189 0.2457 0.92417 0.0
H2501 H 0.89894 0.22449 0.90474 0.0
H2502 H 0.68633 0.66019 0.99381 0.0
H2503 H 0.71155 0.66763 0.98118 0.0
H2504 H 0.70573 0.62426 -0.00086 0.0
H2505 H 0.68078 0.61685 0.01218 0.0
H2506 H 0.73366 0.64736 0.01047 0.0
H2507 H 0.72016 0.65287 0.92611 0.0
H2508 H 0.71701 0.66439 0.94458 0.0
H2509 H 0.70587 0.6442 0.94594 0.0
C2510 C 0.69041 0.65223 0.99508 0.0
C2511 C 0.68141 0.63786 0.00387 0.0
C2512 C 0.70482 0.65649 0.98778 0.0
C2513 C 0.71045 0.64642 0.98891 0.0
C2514 C 0.70163 0.63222 0.99806 0.0
H2515 H 0.78173 0.6347 0.94073 0.0
H2516 H 0.76218 0.63439 0.96296 0.0
C2517 C 0.6873 0.62798 0.00544 0.0
C2518 C 0.72537 0.65039 0.98022 0.0
H2519 H 0.74493 0.65859 0.93405 0.0
C2520 C 0.73617 0.6499 0.99378 0.0
C2521 C 0.72863 0.65368 0.95843 0.0
C2522 C 0.71729 0.6537 0.94284 0.0
C2523 C 0.75007 0.6525 0.9861 0.0
C2524 C 0.75319 0.65551 0.96426 0.0
C2525 C 0.74255 0.65636 0.95083 0.0
C2526 C 0.76694 0.6569 0.95452 0.0
C2527 C 0.76129 0.65199 0.00141 0.0
C2528 C 0.77641 0.66979 0.94283 0.0
C2529 C 0.7876 0.67 0.93017 0.0
C2530 C 0.78947 0.65726 0.92878 0.0
C2531 C 0.78072 0.64477 0.9417 0.0
C2532 C 0.76951 0.64457 0.95439 0.0
H2533 H 0.75918 0.65396 0.01806 0.0
H2534 H 0.76032 0.64067 0.00059 0.0
H2535 H 0.77295 0.66051 0.99728 0.0
H2536 H 0.77463 0.67942 0.94268 0.0
H2537 H 0.79421 0.6798 0.92043 0.0
H2538 H 0.9736 0.65238 0.01532 0.0
H2539 H 0.95281 0.65739 0.00885 0.0
H2540 H 0.95442 0.64987 0.94167 0.0
H2541 H 0.97566 0.64571 0.94794 0.0
H2542 H 0.95003 0.67237 0.94675 0.0
H2543 H 0.9102 0.62656 -0.00108 0.0
H2544 H 0.92659 0.64057 0.0128 0.0
H2545 H 0.92839 0.62898 0.9928 0.0
C2546 C 0.96957 0.65192 -0.00083 0.0
C2547 C 0.97622 0.64861 0.98214 0.0
C2548 C 0.95757 0.65463 0.9955 0.0
C2549 C 0.95172 0.65363 0.97482 0.0
C2550 C 0.95864 0.65067 0.95779 0.0
H2551 H 0.86534 0.63308 0.92782 0.0
H2552 H 0.88666 0.63357 0.94661 0.0
C2553 C 0.97081 0.64829 0.96139 0.0
C2554 C 0.93842 0.65558 0.97061 0.0
H2555 H 0.90145 0.64168 0.98259 0.0
C2556 C 0.93942 0.66568 0.95465 0.0
C2557 C 0.9245 0.64678 0.9808 0.0
C2558 C 0.92227 0.63501 0.99713 0.0
C2559 C 0.92688 0.66684 0.94802 0.0
C2560 C 0.913 0.65818 0.95837 0.0
C2561 C 0.9121 0.64845 0.97483 0.0
C2562 C 0.89897 0.65784 0.95078 0.0
C2563 C 0.92851 0.67667 0.92911 0.0
C2564 C 0.89831 0.67118 0.94794 0.0
C2565 C 0.88623 0.67091 0.93681 0.0
C2566 C 0.87435 0.65722 0.92915 0.0
C2567 C 0.87428 0.64374 0.93389 0.0
C2568 C 0.88651 0.64405 0.94453 0.0
H2569 H 0.93861 0.67929 0.91974 0.0
H2570 H 0.91853 0.67116 0.91834 0.0
H2571 H 0.92972 0.68751 0.93475 0.0
H2572 H 0.90751 0.68191 0.95325 0.0
H2573 H 0.88654 0.68145 0.93316 0.0
H2574 H 0.34159 0.32484 0.98686 0.0
H2575 H 0.32946 0.29825 0.97574 0.0
H2576 H 0.36699 0.29495 0.00144 0.0
H2577 H 0.37903 0.32114 0.01269 0.0
H2578 H 0.3409 0.28548 0.94778 0.0
H2579 H 0.33155 0.25765 0.02591 0.0
H2580 H 0.33544 0.27687 0.02303 0.0
H2581 H 0.35054 0.2726 0.02329 0.0
C2582 C 0.34718 0.3184 0.9903 0.0
C2583 C 0.36132 0.3252 0.00064 0.0
C2584 C 0.34023 0.30321 0.98398 0.0
C2585 C 0.34718 0.29453 0.98817 0.0
C2586 C 0.36122 0.30129 0.99854 0.0
H2587 H 0.35255 0.2191 0.94762 0.0
H2588 H 0.35244 0.23943 0.96799 0.0
C2589 C 0.36817 0.31638 0.00475 0.0
C2590 C 0.34058 0.27877 0.9803 0.0
H2591 H 0.33265 0.24349 0.99581 0.0
C2592 C 0.33873 0.27619 0.95828 0.0
C2593 C 0.3378 0.26668 0.99405 0.0
C2594 C 0.33879 0.26855 0.0179 0.0
C2595 C 0.33517 0.26213 0.94955 0.0
C2596 C 0.33312 0.25024 0.96326 0.0
C2597 C 0.33425 0.25261 0.98534 0.0
C2598 C 0.3313 0.23586 0.95475 0.0
C2599 C 0.33455 0.26041 0.92565 0.0
C2600 C 0.31898 0.2265 0.9416 0.0
C2601 C 0.319 0.21483 0.92999 0.0
C2602 C 0.3313 0.21228 0.93145 0.0
C2603 C 0.34287 0.22068 0.94629 0.0
C2604 C 0.34286 0.23239 0.95783 0.0
H2605 H 0.33908 0.27142 0.91742 0.0
H2606 H 0.34101 0.25487 0.9206 0.0
H2607 H 0.32271 0.25321 0.92034 0.0
H2608 H 0.3098 0.22879 0.93934 0.0
H2609 H 0.30989 0.20845 0.91879 0.0
H2610 H 0.68465 0.04759 0.02693 0.0
H2611 H 0.70954 0.06923 0.02045 0.0
H2612 H 0.70466 0.05763 0.95378 0.0
H2613 H 0.68003 0.03584 0.96022 0.0
H2614 H 0.73217 0.06483 0.9689 0.0
H2615 H 0.71826 0.10874 0.99344 0.0
H2616 H 0.71535 0.09499 0.01342 0.0
H2617 H 0.7041 0.08929 0.98943 0.0
C2618 C 0.68891 0.04964 0.0109 0.0
C2619 C 0.68032 0.04001 0.99408 0.0
C2620 C 0.7031 0.06209 0.00719 0.0
C2621 C 0.70889 0.06525 0.98655 0.0
C2622 C 0.70043 0.05548 0.96984 0.0
H2623 H 0.77255 0.1418 0.92019 0.0
H2624 H 0.75154 0.12371 0.94134 0.0
C2625 C 0.68633 0.04301 0.97355 0.0
C2626 C 0.72378 0.07861 0.98211 0.0
H2627 H 0.74307 0.11717 0.98256 0.0
C2628 C 0.73461 0.07627 0.97207 0.0
C2629 C 0.72692 0.09357 0.98611 0.0
C2630 C 0.71552 0.09688 0.99602 0.0
C2631 C 0.74826 0.0884 0.96531 0.0
C2632 C 0.75141 0.10337 0.96924 0.0
C2633 C 0.74075 0.10572 0.97983 0.0
C2634 C 0.76479 0.11655 0.96008 0.0
C2635 C 0.7588 0.085 0.95297 0.0
C2636 C 0.77944 0.11932 0.96451 0.0
C2637 C 0.7915 0.12965 0.95229 0.0
C2638 C 0.78909 0.13744 0.93559 0.0
C2639 C 0.77472 0.13585 0.93284 0.0
C2640 C 0.76269 0.1255 0.94492 0.0
H2641 H 0.75328 0.07308 0.9475 0.0
H2642 H 0.7631 0.0924 0.93885 0.0
H2643 H 0.76852 0.08708 0.9633 0.0
H2644 H 0.7814 0.11285 0.97653 0.0
H2645 H 0.80242 0.13059 0.95475 0.0
H2646 H 0.63218 0.95016 0.99661 0.0
H2647 H 0.64211 0.93417 0.00877 0.0
H2648 H 0.6754 0.97063 0.04727 0.0
H2649 H 0.66529 0.98691 0.03528 0.0
H2650 H 0.6707 0.93676 0.00699 0.0
H2651 H 0.65238 0.93636 0.09007 0.0
H2652 H 0.64609 0.94342 0.06818 0.0
H2653 H 0.66481 0.95446 0.0788 0.0
C2654 C 0.64164 0.9549 0.00764 0.0
C2655 C 0.64778 0.9698 0.01524 0.0
C2656 C 0.64738 0.94572 0.01445 0.0
C2657 C 0.65937 0.95113 0.02909 0.0
C2658 C 0.66599 0.96618 0.03615 0.0
H2659 H 0.6944 0.89199 0.07321 0.0
H2660 H 0.69299 0.91257 0.05497 0.0
C2661 C 0.66025 0.97548 0.02924 0.0
C2662 C 0.66404 0.94048 0.0377 0.0
H2663 H 0.66187 0.92026 0.08213 0.0
C2664 C 0.66901 0.93329 0.02349 0.0
C2665 C 0.66163 0.93586 0.05917 0.0
C2666 C 0.65584 0.94281 0.07499 0.0
C2667 C 0.67118 0.9213 0.03007 0.0
C2668 C 0.66839 0.91646 0.0514 0.0
C2669 C 0.66395 0.92399 0.06575 0.0
C2670 C 0.66907 0.90304 0.05909 0.0
C2671 C 0.67575 0.91344 0.01398 0.0
C2672 C 0.65604 0.89067 0.06688 0.0
C2673 C 0.65681 0.87894 0.07721 0.0
C2674 C 0.67066 0.87937 0.08001 0.0
C2675 C 0.68355 0.89125 0.07096 0.0
C2676 C 0.68277 0.90305 0.06064 0.0
H2677 H 0.675 0.91689 0.99744 0.0
H2678 H 0.68753 0.91626 0.01728 0.0
H2679 H 0.66857 0.90102 0.01521 0.0
H2680 H 0.64535 0.89041 0.06579 0.0
H2681 H 0.64672 0.86993 0.08407 0.0
H2682 H 0.06434 0.68023 0.9827 0.0
H2683 H 0.08301 0.7048 0.99678 0.0
H2684 H 0.05092 0.70338 0.04162 0.0
H2685 H 0.03192 0.67886 0.02713 0.0
H2686 H 0.06901 0.73218 0.02534 0.0
H2687 H 0.10353 0.70709 0.05332 0.0
H2688 H 0.09972 0.70524 0.02522 0.0
H2689 H 0.08454 0.69576 0.04347 0.0
C2690 C 0.06118 0.68518 0.99545 0.0
C2691 C 0.0467 0.67746 0.00404 0.0
C2692 C 0.0719 0.69923 0.0035 0.0
C2693 C 0.0685 0.70577 0.0206 0.0
C2694 C 0.05382 0.6985 0.02849 0.0
H2695 H 0.12425 0.76306 0.11899 0.0
H2696 H 0.10703 0.74353 0.09461 0.0
C2697 C 0.04298 0.68448 0.02022 0.0
C2698 C 0.08049 0.7196 0.03116 0.0
H2699 H 0.11371 0.73317 0.05867 0.0
C2700 C 0.07884 0.73245 0.03254 0.0
C2701 C 0.09326 0.7199 0.04067 0.0
C2702 C 0.09535 0.70623 0.04081 0.0
C2703 C 0.0895 0.7455 0.04347 0.0
C2704 C 0.10223 0.74574 0.05299 0.0
C2705 C 0.10403 0.73302 0.05115 0.0
C2706 C 0.11279 0.75817 0.06729 0.0
C2707 C 0.08675 0.75867 0.04557 0.0
C2708 C 0.12195 0.77297 0.06002 0.0
C2709 C 0.13184 0.78434 0.07415 0.0
C2710 C 0.13262 0.78103 0.0957 0.0
C2711 C 0.12366 0.76611 0.10263 0.0
C2712 C 0.11387 0.75487 0.08866 0.0
H2713 H 0.07523 0.75577 0.04026 0.0
H2714 H 0.08845 0.76267 0.06232 0.0
H2715 H 0.09489 0.76812 0.03568 0.0
H2716 H 0.12151 0.7757 0.04348 0.0
H2717 H 0.13868 0.79571 0.06833 0.0
H2718 H 0.32882 0.34956 0.06075 0.0
H2719 H 0.30367 0.34449 0.07016 0.0
H2720 H 0.30082 0.36572 0.01223 0.0
H2721 H 0.32579 0.37042 0.00243 0.0
H2722 H 0.29457 0.36414 0.07798 0.0
H2723 H 0.26062 0.32786 0.01057 0.0
H2724 H 0.27976 0.3323 0.01569 0.0
H2725 H 0.27585 0.34558 0.00217 0.0
C2726 C 0.32278 0.353 0.04989 0.0
C2727 C 0.3293 0.36037 0.03082 0.0
C2728 C 0.30839 0.3501 0.05529 0.0
C2729 C 0.3002 0.35451 0.04178 0.0
C2730 C 0.30669 0.36183 0.02267 0.0
H2731 H 0.22866 0.36769 0.09139 0.0
H2732 H 0.25077 0.371 0.07235 0.0
C2733 C 0.32104 0.36463 0.01717 0.0
C2734 C 0.28535 0.35231 0.04842 0.0
H2735 H 0.24845 0.33715 0.03319 0.0
C2736 C 0.28449 0.35819 0.06818 0.0
C2737 C 0.27212 0.34441 0.03577 0.0
C2738 C 0.27206 0.33704 0.01497 0.0
C2739 C 0.2709 0.35652 0.07558 0.0
C2740 C 0.25778 0.34913 0.0626 0.0
C2741 C 0.25855 0.34305 0.04295 0.0
C2742 C 0.24313 0.34712 0.06978 0.0
C2743 C 0.27066 0.36235 0.09754 0.0
C2744 C 0.23097 0.3326 0.07313 0.0
C2745 C 0.21817 0.33071 0.08358 0.0
C2746 C 0.21738 0.34331 0.09089 0.0
C2747 C 0.229 0.35781 0.08589 0.0
C2748 C 0.24169 0.35969 0.07524 0.0
H2749 H 0.28044 0.36399 0.10743 0.0
H2750 H 0.27114 0.37343 0.09616 0.0
H2751 H 0.26023 0.35451 0.10594 0.0
H2752 H 0.23179 0.32274 0.06893 0.0
H2753 H 0.20945 0.31942 0.08747 0.0
H2754 H 0.69379 0.67622 0.35005 0.0
H2755 H 0.71048 0.66632 0.3604 0.0
H2756 H 0.74731 0.71172 0.36776 0.0
H2757 H 0.73095 0.72162 0.35701 0.0
H2758 H 0.7553 0.69436 0.34494 0.0
H2759 H 0.72667 0.66469 0.41886 0.0
H2760 H 0.71517 0.65898 0.39514 0.0
H2761 H 0.72229 0.67774 0.40548 0.0
C2762 C 0.7054 0.68406 0.35414 0.0
C2763 C 0.71102 0.69971 0.35271 0.0
C2764 C 0.71493 0.67839 0.36007 0.0
C2765 C 0.73015 0.68828 0.36499 0.0
C2766 C 0.73564 0.70387 0.36394 0.0
H2767 H 0.80784 0.69562 0.42227 0.0
H2768 H 0.78961 0.69834 0.39977 0.0
C2769 C 0.72623 0.70951 0.35784 0.0
C2770 C 0.74063 0.68269 0.37093 0.0
H2771 H 0.74851 0.66405 0.40977 0.0
C2772 C 0.75372 0.6876 0.359 0.0
C2773 C 0.73855 0.67378 0.38921 0.0
C2774 C 0.72499 0.66856 0.40305 0.0
C2775 C 0.76503 0.68435 0.36531 0.0
C2776 C 0.76321 0.676 0.38402 0.0
C2777 C 0.74982 0.67041 0.39535 0.0
C2778 C 0.77569 0.67444 0.3936 0.0
C2779 C 0.77899 0.69017 0.3522 0.0
C2780 C 0.77414 0.66014 0.39706 0.0
C2781 C 0.78471 0.65861 0.40964 0.0
C2782 C 0.79679 0.67134 0.41918 0.0
C2783 C 0.79877 0.68569 0.41471 0.0
C2784 C 0.78834 0.68724 0.40193 0.0
H2785 H 0.777 0.69266 0.33564 0.0
H2786 H 0.78798 0.70076 0.35948 0.0
H2787 H 0.78307 0.6819 0.35178 0.0
H2788 H 0.76438 0.65013 0.39093 0.0
H2789 H 0.78279 0.64742 0.4133 0.0
H2790 H 0.32914 0.01494 0.39127 0.0
H2791 H 0.33416 0.0408 0.39659 0.0
H2792 H 0.31798 0.04102 0.33299 0.0
H2793 H 0.31293 0.01513 0.32748 0.0
H2794 H 0.35228 0.0684 0.37073 0.0
H2795 H 0.29134 0.05034 0.37386 0.0
H2796 H 0.2982 0.03722 0.37762 0.0
H2797 H 0.29775 0.04415 0.35155 0.0
C2798 C 0.32679 0.02053 0.37832 0.0
C2799 C 0.32055 0.01294 0.359 0.0
C2800 C 0.32968 0.03531 0.38138 0.0
C2801 C 0.32629 0.04274 0.36526 0.0
C2802 C 0.32053 0.03541 0.3457 0.0
H2803 H 0.32222 0.12588 0.39003 0.0
H2804 H 0.32234 0.10547 0.36918 0.0
C2805 C 0.31771 0.02064 0.34257 0.0
C2806 C 0.32818 0.05789 0.36944 0.0
H2807 H 0.30838 0.07578 0.38094 0.0
C2808 C 0.3427 0.07008 0.3727 0.0
C2809 C 0.31567 0.06009 0.37175 0.0
C2810 C 0.29982 0.04729 0.36864 0.0
C2811 C 0.34503 0.08431 0.37892 0.0
C2812 C 0.33249 0.08629 0.38251 0.0
C2813 C 0.31799 0.07429 0.37817 0.0
C2814 C 0.334 0.09988 0.39345 0.0
C2815 C 0.36092 0.09703 0.38193 0.0
C2816 C 0.34057 0.10356 0.41385 0.0
C2817 C 0.34049 0.11508 0.42561 0.0
C2818 C 0.3337 0.12313 0.41737 0.0
C2819 C 0.32758 0.11988 0.39665 0.0
C2820 C 0.32761 0.10823 0.38482 0.0
H2821 H 0.36871 0.0956 0.37132 0.0
H2822 H 0.3618 0.10814 0.37872 0.0
H2823 H 0.36466 0.09699 0.39857 0.0
H2824 H 0.34523 0.0971 0.4211 0.0
H2825 H 0.34534 0.1174 0.44152 0.0
H2826 H 0.99014 0.30944 0.38834 0.0
H2827 H 0.96583 0.28797 0.39749 0.0
H2828 H 0.95944 0.27176 0.33284 0.0
H2829 H 0.98379 0.29326 0.32348 0.0
H2830 H 0.93282 0.27019 0.3531 0.0
H2831 H 0.96035 0.24452 0.40091 0.0
H2832 H 0.96632 0.26383 0.40743 0.0
H2833 H 0.97034 0.25918 0.38171 0.0
C2834 C 0.98351 0.30142 0.37598 0.0
C2835 C 0.98896 0.30302 0.3552 0.0
C2836 C 0.96963 0.28912 0.38127 0.0
C2837 C 0.96093 0.27817 0.36591 0.0
C2838 C 0.96601 0.28006 0.34494 0.0
H2839 H 0.891 0.18984 0.40741 0.0
H2840 H 0.9104 0.20922 0.38522 0.0
C2841 C 0.97994 0.29234 0.33964 0.0
C2842 C 0.94691 0.26443 0.37209 0.0
H2843 H 0.93398 0.23357 0.40407 0.0
C2844 C 0.93304 0.2621 0.3641 0.0
C2845 C 0.94725 0.25376 0.38614 0.0
C2846 C 0.96185 0.25531 0.39444 0.0
C2847 C 0.91944 0.24965 0.37052 0.0
C2848 C 0.91976 0.23937 0.38539 0.0
C2849 C 0.93369 0.24144 0.39269 0.0
C2850 C 0.90594 0.22697 0.39486 0.0
C2851 C 0.90487 0.24765 0.36136 0.0
C2852 C 0.89657 0.23033 0.40702 0.0
C2853 C 0.88542 0.21925 0.41958 0.0
C2854 C 0.88346 0.2046 0.42036 0.0
C2855 C 0.89208 0.20096 0.40695 0.0
C2856 C 0.90327 0.21207 0.39441 0.0
H2857 H 0.90656 0.25331 0.34573 0.0
H2858 H 0.89645 0.23553 0.35936 0.0
H2859 H 0.90027 0.25279 0.37235 0.0
H2860 H 0.89854 0.24177 0.40797 0.0
H2861 H 0.87896 0.22239 0.42977 0.0
H2862 H 0.00439 0.35451 0.31753 0.0
H2863 H 0.99484 0.37131 0.30611 0.0
H2864 H 0.03708 0.40996 0.32419 0.0
H2865 H 0.04659 0.39348 0.33583 0.0
H2866 H 0.01227 0.41208 0.33757 0.0
H2867 H 0.00749 0.39666 0.2518 0.0
H2868 H 0.9975 0.3814 0.26995 0.0
H2869 H 0.01766 0.39163 0.27075 0.0
C2870 C 0.01164 0.36658 0.31905 0.0
C2871 C 0.02632 0.37259 0.32746 0.0
C2872 C 0.00618 0.37617 0.31247 0.0
C2873 C 0.01531 0.39191 0.31411 0.0
C2874 C 0.02982 0.39787 0.32278 0.0
H2875 H 0.02629 0.47596 0.27461 0.0
H2876 H 0.02517 0.45528 0.29563 0.0
C2877 C 0.03527 0.38837 0.32934 0.0
C2878 C 0.01012 0.4024 0.30643 0.0
H2879 H 1.00205 0.41565 0.2611 0.0
C2880 C 0.00985 0.41275 0.32088 0.0
C2881 C 0.00693 0.40325 0.28467 0.0
C2882 C 0.00749 0.39274 0.2683 0.0
C2883 C 0.00687 0.42417 0.31408 0.0
C2884 C 0.00434 0.42543 0.2922 0.0
C2885 C 0.00397 0.41467 0.27789 0.0
C2886 C 1.00339 0.43848 0.28332 0.0
C2887 C 0.00664 0.43488 0.33037 0.0
C2888 C 0.99135 0.43608 0.26985 0.0
C2889 C 0.99198 0.44792 0.25781 0.0
C2890 C 0.00473 0.46238 0.25889 0.0
C2891 C 0.01621 0.46504 0.27369 0.0
C2892 C 0.01559 0.45317 0.2857 0.0
H2893 H 1.00364 0.42956 0.3463 0.0
H2894 H 0.01799 0.44493 0.33174 0.0
H2895 H 0.99854 0.43869 0.32574 0.0
H2896 H 0.98183 0.42486 0.26774 0.0
H2897 H 0.98297 0.44555 0.24652 0.0
H2898 H 0.63427 0.65865 0.35658 0.0
H2899 H 0.61317 0.63335 0.34958 0.0
H2900 H 0.62453 0.63789 0.2832 0.0
H2901 H 0.64585 0.66297 0.29019 0.0
H2902 H 0.58886 0.62504 0.32537 0.0
H2903 H 0.61913 0.59689 0.295 0.0
H2904 H 0.62868 0.61496 0.30829 0.0
H2905 H 0.62387 0.61373 0.2804 0.0
C2906 C 0.63239 0.65417 0.34054 0.0
C2907 C 0.64179 0.66279 0.32395 0.0
C2908 C 0.62031 0.63971 0.33656 0.0
C2909 C 0.61737 0.63358 0.31593 0.0
C2910 C 0.62678 0.64217 0.29936 0.0
H2911 H 0.53659 0.57092 0.25317 0.0
H2912 H 0.55602 0.59186 0.27376 0.0
C2913 C 0.63893 0.65657 0.30336 0.0
C2914 C 0.60399 0.61861 0.31141 0.0
H2915 H 0.5928 0.58517 0.28583 0.0
C2916 C 0.58975 0.61623 0.31701 0.0
C2917 C 0.60508 0.60693 0.30095 0.0
C2918 C 0.62004 0.60819 0.29604 0.0
C2919 C 0.57658 0.60286 0.31139 0.0
C2920 C 0.57764 0.59171 0.29939 0.0
C2921 C 0.59191 0.59375 0.29483 0.0
C2922 C 0.56424 0.57847 0.28982 0.0
C2923 C 0.56168 0.6009 0.31832 0.0
C2924 C 0.56217 0.56385 0.29207 0.0
C2925 C 0.55116 0.55186 0.27999 0.0
C2926 C 0.54206 0.55429 0.26534 0.0
C2927 C 0.54347 0.5687 0.26424 0.0
C2928 C 0.55452 0.58068 0.27618 0.0
H2929 H 0.56293 0.60709 0.33341 0.0
H2930 H 0.55733 0.60562 0.306 0.0
H2931 H 0.55329 0.58883 0.3206 0.0
H2932 H 0.56955 0.56186 0.30244 0.0
H2933 H 0.5505 0.54094 0.28104 0.0
H2934 H 0.35255 0.991 0.32777 0.0
H2935 H 0.37738 0.99743 0.31453 0.0
H2936 H 0.3713 0.95473 0.33649 0.0
H2937 H 0.34675 0.94832 0.3501 0.0
H2938 H 0.39984 0.97818 0.34534 0.0
H2939 H 0.38378 0.97932 0.2608 0.0
H2940 H 0.38136 0.99189 0.27817 0.0
H2941 H 0.37013 0.97186 0.28163 0.0
C2942 C 0.3565 0.98298 0.32983 0.0
C2943 C 0.34751 0.96907 0.33984 0.0
C2944 C 0.37068 0.98666 0.32218 0.0
C2945 C 0.37611 0.97646 0.32422 0.0
C2946 C 0.36735 0.96277 0.33468 0.0
H2947 H 0.44558 0.96118 0.27682 0.0
H2948 H 0.42683 0.96229 0.29929 0.0
C2949 C 0.35324 0.95911 0.34238 0.0
C2950 C 0.39067 0.97969 0.31497 0.0
H2951 H 0.40862 0.98495 0.26779 0.0
C2952 C 0.40181 0.97975 0.3284 0.0
C2953 C 0.39323 0.9817 0.29285 0.0
C2954 C 0.38147 0.98107 0.27745 0.0
C2955 C 0.41538 0.98169 0.32028 0.0
C2956 C 0.41779 0.98343 0.29814 0.0
C2957 C 0.4068 0.9837 0.2848 0.0
C2958 C 0.43117 0.98415 0.28808 0.0
C2959 C 0.42701 0.98189 0.33548 0.0
C2960 C 0.44014 0.99622 0.27471 0.0
C2961 C 0.45084 0.99559 0.26187 0.0
C2962 C 0.45273 0.98283 0.26205 0.0
C2963 C 0.44454 0.97125 0.27659 0.0
C2964 C 0.43379 0.97187 0.28942 0.0
H2965 H 0.42553 0.98494 0.35187 0.0
H2966 H 0.42583 0.97048 0.33601 0.0
H2967 H 0.43854 0.98997 0.33026 0.0
H2968 H 0.43833 0.00579 0.2734 0.0
H2969 H 0.457 0.00467 0.25082 0.0
H2970 H 0.63396 0.97669 0.35111 0.0
H2971 H 0.61172 0.97951 0.34527 0.0
H2972 H 0.62344 0.99016 0.2795 0.0
H2973 H 0.64557 0.98732 0.2851 0.0
H2974 H 0.60764 0.00432 0.3269 0.0
H2975 H 0.58095 0.95126 0.27962 0.0
H2976 H 0.59688 0.95638 0.29717 0.0
H2977 H 0.59951 0.96484 0.27137 0.0
C2978 C 0.63193 0.97986 0.33548 0.0
C2979 C 0.64146 0.98163 0.31851 0.0
C2980 C 0.61923 0.98147 0.3322 0.0
C2981 C 0.61585 0.98483 0.3119 0.0
C2982 C 0.62576 0.98738 0.29523 0.0
H2983 H 0.55583 0.00984 0.25485 0.0
H2984 H 0.57606 0.00993 0.27599 0.0
C2985 C 0.63843 0.98578 0.29848 0.0
C2986 C 0.6015 0.98466 0.30758 0.0
H2987 H 0.56923 0.96633 0.27792 0.0
C2988 C 0.59913 0.99594 0.31638 0.0
C2989 C 0.59031 0.97354 0.29421 0.0
C2990 C 0.59192 0.96072 0.28517 0.0
C2991 C 0.58613 0.99679 0.3113 0.0
C2992 C 0.57535 0.98616 0.29691 0.0
C2993 C 0.57747 0.97451 0.28893 0.0
C2994 C 0.5624 0.98743 0.28838 0.0
C2995 C 0.58412 0.00909 0.32129 0.0
C2996 C 0.54784 0.97492 0.28868 0.0
C2997 C 0.53627 0.97477 0.27634 0.0
C2998 C 0.53909 0.98712 0.26339 0.0
C2999 C 0.55334 1.00012 0.26458 0.0
C3000 C 0.5649 1.00024 0.27683 0.0
H3001 H 0.59018 0.01273 0.33683 0.0
H3002 H 0.58883 0.01902 0.31066 0.0
H3003 H 0.57207 0.00536 0.32373 0.0
H3004 H 0.54565 0.96489 0.29741 0.0
H3005 H 0.5255 0.96453 0.27564 0.0
H3006 H 0.04399 0.65577 0.36381 0.0
H3007 H 0.03729 0.631 0.34959 0.0
H3008 H 0.01046 0.63613 0.30029 0.0
H3009 H 0.01683 0.66098 0.31487 0.0
H3010 H 0.99769 0.60624 0.31648 0.0
H3011 H 0.05743 0.62917 0.29507 0.0
H3012 H 0.05463 0.63097 0.32277 0.0
H3013 H 0.05001 0.64108 0.30335 0.0
C3014 C 0.03651 0.6516 0.35007 0.0
C3015 C 0.03113 0.66046 0.34024 0.0
C3016 C 0.03271 0.63742 0.34196 0.0
C3017 C 0.02367 0.63187 0.3236 0.0
C3018 C 0.01753 0.64026 0.31443 0.0
H3019 H 0.0237 0.57277 0.22919 0.0
H3020 H 0.02542 0.59285 0.25177 0.0
C3021 C 0.02119 0.65445 0.32274 0.0
C3022 C 0.02169 0.61795 0.31314 0.0
H3023 H 0.04132 0.60319 0.28922 0.0
C3024 C 0.0072 0.60552 0.31056 0.0
C3025 C 0.03414 0.6171 0.3053 0.0
C3026 C 0.04991 0.63032 0.30655 0.0
C3027 C 0.00484 0.59228 0.3002 0.0
C3028 C 0.01731 0.59143 0.2925 0.0
C3029 C 0.03179 0.6038 0.29537 0.0
C3030 C 0.01563 0.57867 0.27917 0.0
C3031 C 0.98901 0.57952 0.29686 0.0
C3032 C 0.00967 0.56395 0.28712 0.0
C3033 C 0.00854 0.55226 0.27404 0.0
C3034 C 0.01331 0.55518 0.25285 0.0
C3035 C 0.01955 0.57002 0.24525 0.0
C3036 C 0.02065 0.58157 0.25819 0.0
H3037 H 0.98052 0.58291 0.30064 0.0
H3038 H 0.98722 0.57542 0.28015 0.0
H3039 H 0.98713 0.56999 0.30733 0.0
H3040 H 0.00601 0.56152 0.30343 0.0
H3041 H 1.00379 0.54096 0.28035 0.0
H3042 H 0.35423 0.36314 0.30269 0.0
H3043 H 0.3793 0.38416 0.29595 0.0
H3044 H 0.37765 0.40589 0.35383 0.0
H3045 H 0.35279 0.38456 0.36107 0.0
H3046 H 0.38532 0.41161 0.28817 0.0
H3047 H 0.4199 0.41364 0.35797 0.0
H3048 H 0.40162 0.39767 0.35234 0.0
H3049 H 0.40331 0.4142 0.36521 0.0
C3050 C 0.35935 0.37224 0.31423 0.0
C3051 C 0.35154 0.3722 0.3324 0.0
C3052 C 0.37369 0.38427 0.31035 0.0
C3053 C 0.38048 0.39662 0.32443 0.0
C3054 C 0.37287 0.39638 0.34296 0.0
H3055 H 0.44676 0.48252 0.27158 0.0
H3056 H 0.42574 0.46403 0.29263 0.0
C3057 C 0.3586 0.3842 0.34703 0.0
C3058 C 0.39471 0.4103 0.31844 0.0
H3059 H 0.43058 0.43506 0.33514 0.0
C3060 C 0.39521 0.41668 0.29846 0.0
C3061 C 0.40769 0.41692 0.33178 0.0
C3062 C 0.40819 0.41017 0.35293 0.0
C3063 C 0.40825 0.42934 0.29135 0.0
C3064 C 0.42108 0.43629 0.30493 0.0
C3065 C 0.42065 0.42993 0.32493 0.0
C3066 C 0.43528 0.44945 0.29775 0.0
C3067 C 0.40826 0.43479 0.26898 0.0
C3068 C 0.4482 0.44813 0.29541 0.0
C3069 C 0.4604 0.45894 0.28397 0.0
C3070 C 0.45979 0.47115 0.27463 0.0
C3071 C 0.44752 0.47326 0.2788 0.0
C3072 C 0.43544 0.46259 0.29055 0.0
H3073 H 0.39908 0.42601 0.25899 0.0
H3074 H 0.40657 0.44472 0.26953 0.0
H3075 H 0.4191 0.43818 0.26113 0.0
H3076 H 0.44837 0.43815 0.30092 0.0
H3077 H 0.46965 0.45697 0.28068 0.0
H3078 H 0.32812 0.31602 0.36261 0.0
H3079 H 0.3343 0.29641 0.37246 0.0
H3080 H 0.29476 0.26323 0.33874 0.0
H3081 H 0.28864 0.28259 0.32857 0.0
H3082 H 0.31733 0.27155 0.39631 0.0
H3083 H 0.32622 0.25354 0.31751 0.0
H3084 H 0.3259 0.27091 0.32148 0.0
H3085 H 0.30862 0.25331 0.31877 0.0
C3086 C 0.32084 0.30459 0.35708 0.0
C3087 C 0.30786 0.30093 0.34483 0.0
C3088 C 0.3244 0.29339 0.3627 0.0
C3089 C 0.31514 0.27838 0.35602 0.0
C3090 C 0.30229 0.27477 0.34363 0.0
H3091 H 0.30135 0.19854 0.42031 0.0
H3092 H 0.29843 0.2174 0.3998 0.0
C3093 C 0.29873 0.28589 0.33803 0.0
C3094 C 0.31807 0.26622 0.36341 0.0
H3095 H 0.32148 0.23624 0.34633 0.0
C3096 C 0.31841 0.26395 0.38537 0.0
C3097 C 0.31962 0.25636 0.34914 0.0
C3098 C 0.32023 0.25873 0.32542 0.0
C3099 C 0.31968 0.25179 0.39343 0.0
C3100 C 0.32036 0.24144 0.37915 0.0
C3101 C 0.32065 0.24402 0.35721 0.0
C3102 C 0.32083 0.22798 0.38707 0.0
C3103 C 0.32026 0.2501 0.41723 0.0
C3104 C 0.33398 0.227 0.38537 0.0
C3105 C 0.33558 0.21608 0.39685 0.0
C3106 C 0.32405 0.20605 0.41017 0.0
C3107 C 0.31036 0.20612 0.4101 0.0
C3108 C 0.30875 0.21696 0.39857 0.0
H3109 H 0.32329 0.26078 0.42575 0.0
H3110 H 0.30905 0.24137 0.4227 0.0
H3111 H 0.32851 0.24647 0.42174 0.0
H3112 H 0.3434 0.23537 0.37649 0.0
H3113 H 0.34631 0.21639 0.39686 0.0
H3114 H 0.7299 0.01385 0.31092 0.0
H3115 H 0.74889 0.03861 0.32409 0.0
H3116 H 0.71803 0.03752 0.37087 0.0
H3117 H 0.69876 0.01284 0.35738 0.0
H3118 H 0.73547 0.06612 0.35343 0.0
H3119 H 0.7709 0.04159 0.37968 0.0
H3120 H 0.7663 0.03946 0.35179 0.0
H3121 H 0.75168 0.03008 0.37087 0.0
C3122 C 0.72708 0.01891 0.3239 0.0
C3123 C 0.71287 0.01124 0.33334 0.0
C3124 C 0.73798 0.03306 0.33143 0.0
C3125 C 0.735 0.03975 0.34878 0.0
C3126 C 0.72059 0.03252 0.35752 0.0
H3127 H 0.79057 0.09701 0.44658 0.0
H3128 H 0.77342 0.07758 0.42202 0.0
C3129 C 0.70959 0.0184 0.34983 0.0
C3130 C 0.74718 0.05372 0.35876 0.0
H3131 H 0.7807 0.06754 0.38553 0.0
C3132 C 0.74543 0.0665 0.36031 0.0
C3133 C 0.76013 0.05414 0.36784 0.0
C3134 C 0.76236 0.04057 0.36768 0.0
C3135 C 0.75613 0.07959 0.37111 0.0
C3136 C 0.76897 0.07992 0.38034 0.0
C3137 C 0.77091 0.0673 0.37823 0.0
C3138 C 0.77946 0.09227 0.39474 0.0
C3139 C 0.7533 0.09269 0.37346 0.0
C3140 C 0.78871 0.10707 0.38754 0.0
C3141 C 0.79856 0.11838 0.40175 0.0
C3142 C 0.79919 0.11501 0.42332 0.0
C3143 C 0.79009 0.1001 0.43021 0.0
C3144 C 0.78035 0.08892 0.41614 0.0
H3145 H 0.74182 0.08982 0.36797 0.0
H3146 H 0.75481 0.09645 0.39031 0.0
H3147 H 0.76154 0.1023 0.36389 0.0
H3148 H 0.78837 0.10983 0.37098 0.0
H3149 H 0.80551 0.12974 0.39599 0.0
H3150 H 0.99 0.70151 0.33354 0.0
H3151 H 0.96507 0.69775 0.34194 0.0
H3152 H 0.96645 0.6777 0.40177 0.0
H3153 H 0.99143 0.68173 0.39374 0.0
H3154 H 0.93758 0.67291 0.35161 0.0
H3155 H 0.96014 0.71228 0.42019 0.0
H3156 H 0.97213 0.71067 0.4009 0.0
H3157 H 0.96431 0.69717 0.42204 0.0
C3158 C 0.98493 0.69619 0.34841 0.0
C3159 C 0.99277 0.69208 0.3631 0.0
C3160 C 0.97068 0.69404 0.35318 0.0
C3161 C 0.96402 0.68774 0.37269 0.0
C3162 C 0.97151 0.68293 0.38685 0.0
H3163 H 0.87392 0.65327 0.41808 0.0
H3164 H 0.89576 0.65671 0.39827 0.0
C3165 C 0.98577 0.68517 0.38219 0.0
C3166 C 0.94956 0.68675 0.3787 0.0
H3167 H 0.93358 0.69732 0.4174 0.0
C3168 C 0.9367 0.67834 0.3659 0.0
C3169 C 0.94847 0.69409 0.39709 0.0
C3170 C 0.96202 0.70419 0.41073 0.0
C3171 C 0.92267 0.67665 0.37143 0.0
C3172 C 0.92144 0.68334 0.39046 0.0
C3173 C 0.93443 0.69211 0.40286 0.0
C3174 C 0.90686 0.68111 0.39847 0.0
C3175 C 0.90938 0.66785 0.35672 0.0
C3176 C 0.90558 0.69362 0.40491 0.0
C3177 C 0.8932 0.69164 0.4165 0.0
C3178 C 0.88175 0.67711 0.42167 0.0
C3179 C 0.88244 0.66457 0.41389 0.0
C3180 C 0.89495 0.66655 0.40254 0.0
H3181 H 0.913 0.66799 0.34011 0.0
H3182 H 0.90325 0.65593 0.36192 0.0
H3183 H 0.90153 0.67241 0.35689 0.0
H3184 H 0.91459 0.70496 0.40201 0.0
H3185 H 0.893 0.70148 0.42253 0.0
H3186 H 0.36216 0.02051 0.69458 0.0
H3187 H 0.38097 0.01393 0.7072 0.0
H3188 H 0.41605 0.05457 0.67953 0.0
H3189 H 0.39751 0.06115 0.66667 0.0
H3190 H 0.41946 0.02919 0.67252 0.0
H3191 H 0.40964 0.03589 0.75758 0.0
H3192 H 0.39338 0.02275 0.74246 0.0
H3193 H 0.40245 0.04247 0.73619 0.0
C3194 C 0.37387 0.02801 0.6911 0.0
C3195 C 0.37829 0.04146 0.67982 0.0
C3196 C 0.38461 0.02425 0.69837 0.0
C3197 C 0.39993 0.03387 0.69452 0.0
C3198 C 0.4043 0.04701 0.68272 0.0
H3199 H 0.4762 0.04379 0.76597 0.0
H3200 H 0.45833 0.04776 0.74454 0.0
C3201 C 0.39364 0.05078 0.67548 0.0
C3202 C 0.4116 0.03075 0.70348 0.0
H3203 H 0.4278 0.02884 0.75034 0.0
C3204 C 0.42125 0.02902 0.68954 0.0
C3205 C 0.41402 0.03074 0.72567 0.0
C3206 C 0.40443 0.03318 0.74141 0.0
C3207 C 0.43333 0.02736 0.69723 0.0
C3208 C 0.43571 0.02734 0.71942 0.0
C3209 C 0.42596 0.0289 0.73332 0.0
C3210 C 0.44838 0.02601 0.72885 0.0
C3211 C 0.44368 0.02609 0.68161 0.0
C3212 C 0.44917 0.01273 0.72643 0.0
C3213 C 0.45951 0.01051 0.73854 0.0
C3214 C 0.46908 0.02149 0.75336 0.0
C3215 C 0.46898 0.03519 0.7546 0.0
C3216 C 0.45872 0.03742 0.74247 0.0
H3217 H 0.44238 0.0297 0.66541 0.0
H3218 H 0.45558 0.03301 0.68689 0.0
H3219 H 0.44105 0.01417 0.68065 0.0
H3220 H 0.44116 0.00369 0.71627 0.0
H3221 H 0.45918 0.99975 0.73755 0.0
H3222 H 0.98506 0.34375 0.72347 0.0
H3223 H 0.98793 0.36888 0.72672 0.0
H3224 H 0.9855 0.37162 0.65845 0.0
H3225 H 0.98216 0.3462 0.65511 0.0
H3226 H 0.00843 0.39611 0.71273 0.0
H3227 H 0.95281 0.38032 0.67619 0.0
H3228 H 0.95817 0.3665 0.68347 0.0
H3229 H 0.96515 0.37726 0.65954 0.0
C3230 C 0.98524 0.34972 0.70912 0.0
C3231 C 0.98326 0.34292 0.68904 0.0
C3232 C 0.98687 0.36411 0.711 0.0
C3233 C 0.98662 0.37205 0.69286 0.0
C3234 C 0.98533 0.36557 0.67271 0.0
H3235 H 0.00932 0.46545 0.72135 0.0
H3236 H 0.00838 0.4448 0.70028 0.0
C3237 C 0.98355 0.35109 0.67082 0.0
C3238 C 0.98747 0.38696 0.69538 0.0
H3239 H 0.96756 0.40544 0.68781 0.0
C3240 C 0.99958 0.39823 0.70708 0.0
C3241 C 0.97584 0.38966 0.68812 0.0
C3242 C 0.96218 0.37778 0.67629 0.0
C3243 C 1.00012 0.41184 0.71247 0.0
C3244 C 0.98844 0.41452 0.70537 0.0
C3245 C 0.97659 0.40347 0.69299 0.0
C3246 C 0.98731 0.42769 0.71315 0.0
C3247 C 0.01275 0.4228 0.72686 0.0
C3248 C 0.9751 0.4252 0.72573 0.0
C3249 C 0.97544 0.43703 0.73731 0.0
C3250 C 0.98805 0.45155 0.73666 0.0
C3251 C 0.99945 0.45439 0.72217 0.0
C3252 C 0.99904 0.44254 0.71039 0.0
H3253 H 0.019 0.41764 0.73437 0.0
H3254 H 0.0208 0.4326 0.71742 0.0
H3255 H 0.00839 0.42701 0.73966 0.0
H3256 H 0.96583 0.41389 0.72792 0.0
H3257 H 0.96642 0.43455 0.7482 0.0
H3258 H 0.657 0.6431 0.72074 0.0
H3259 H 0.63226 0.62195 0.7289 0.0
H3260 H 0.62623 0.60703 0.66363 0.0
H3261 H 0.65108 0.62821 0.65526 0.0
H3262 H 0.59977 0.60669 0.68477 0.0
H3263 H 0.62502 0.57739 0.7294 0.0
H3264 H 0.63217 0.59682 0.73665 0.0
H3265 H 0.63542 0.59213 0.71048 0.0
C3266 C 0.65038 0.63543 0.70804 0.0
C3267 C 0.65607 0.63729 0.68737 0.0
C3268 C 0.63625 0.62332 0.71275 0.0
C3269 C 0.6275 0.61285 0.69692 0.0
C3270 C 0.63285 0.61498 0.67607 0.0
H3271 H 0.55423 0.52609 0.73798 0.0
H3272 H 0.57384 0.54463 0.71511 0.0
C3273 C 0.64704 0.62707 0.67134 0.0
C3274 C 0.61312 0.59936 0.70254 0.0
H3275 H 0.59885 0.56782 0.73328 0.0
C3276 C 0.59952 0.59808 0.69518 0.0
C3277 C 0.61285 0.58803 0.71582 0.0
C3278 C 0.62712 0.58852 0.72344 0.0
C3279 C 0.58563 0.58608 0.70161 0.0
C3280 C 0.58538 0.57519 0.71586 0.0
C3281 C 0.599 0.57615 0.72238 0.0
C3282 C 0.57134 0.56343 0.72574 0.0
C3283 C 0.57136 0.58525 0.69325 0.0
C3284 C 0.56302 0.5677 0.73872 0.0
C3285 C 0.55178 0.55711 0.75168 0.0
C3286 C 0.54868 0.54205 0.75203 0.0
C3287 C 0.55622 0.53755 0.73786 0.0
C3288 C 0.56752 0.54817 0.72491 0.0
H3289 H 0.57316 0.59109 0.67775 0.0
H3290 H 0.56227 0.57337 0.69127 0.0
H3291 H 0.56759 0.59091 0.7047 0.0
H3292 H 0.56591 0.57942 0.73998 0.0
H3293 H 0.54617 0.5609 0.7625 0.0
H3294 H 0.67213 0.68915 0.65257 0.0
H3295 H 0.66289 0.70612 0.64084 0.0
H3296 H 0.70547 0.74454 0.65829 0.0
H3297 H 0.71468 0.72787 0.67031 0.0
H3298 H 0.68128 0.7474 0.67148 0.0
H3299 H 0.67521 0.73071 0.58614 0.0
H3300 H 0.66507 0.71568 0.60456 0.0
H3301 H 0.68524 0.72555 0.60515 0.0
C3302 C 0.67953 0.70121 0.65389 0.0
C3303 C 0.69421 0.70709 0.66225 0.0
C3304 C 0.67424 0.71089 0.64712 0.0
C3305 C 0.68356 0.72661 0.64846 0.0
C3306 C 0.69808 0.73247 0.65709 0.0
H3307 H 0.6937 0.81019 0.60672 0.0
H3308 H 0.69358 0.78986 0.62748 0.0
C3309 C 0.70335 0.72286 0.66388 0.0
C3310 C 0.67852 0.73717 0.6406 0.0
H3311 H 0.66968 0.74971 0.5952 0.0
C3312 C 0.67858 0.74781 0.65483 0.0
C3313 C 0.67498 0.73769 0.61889 0.0
C3314 C 0.6752 0.7269 0.60271 0.0
C3315 C 0.67556 0.75917 0.64786 0.0
C3316 C 0.67259 0.76002 0.62603 0.0
C3317 C 0.67193 0.74902 0.61195 0.0
C3318 C 0.67136 0.77285 0.61697 0.0
C3319 C 0.67572 0.77022 0.66389 0.0
C3320 C 0.65878 0.77017 0.60454 0.0
C3321 C 0.65881 0.78181 0.59269 0.0
C3322 C 0.6715 0.79632 0.59287 0.0
C3323 C 0.68366 0.79922 0.60649 0.0
C3324 C 0.68361 0.78757 0.61835 0.0
H3325 H 0.67334 0.76535 0.68012 0.0
H3326 H 0.68702 0.7804 0.66431 0.0
H3327 H 0.66735 0.77374 0.6596 0.0
H3328 H 0.64921 0.75891 0.60322 0.0
H3329 H 0.64925 0.77926 0.58241 0.0
H3330 H 0.29569 0.99655 0.68583 0.0
H3331 H 0.27504 0.97134 0.67752 0.0
H3332 H 0.29713 0.97064 0.62 0.0
H3333 H 0.3175 0.99616 0.6278 0.0
H3334 H 0.26941 0.96281 0.61155 0.0
H3335 H 0.26958 0.92995 0.68152 0.0
H3336 H 0.26807 0.94609 0.68902 0.0
H3337 H 0.2848 0.94865 0.6763 0.0
C3338 C 0.29627 0.99092 0.67159 0.0
C3339 C 0.30821 0.99835 0.65745 0.0
C3340 C 0.28449 0.97643 0.66693 0.0
C3341 C 0.28457 0.96893 0.64828 0.0
C3342 C 0.29679 0.97616 0.63452 0.0
H3343 H 0.22356 0.87698 0.60823 0.0
H3344 H 0.2434 0.89944 0.62624 0.0
C3345 C 0.30845 0.99074 0.639 0.0
C3346 C 0.27136 0.95422 0.64205 0.0
H3347 H 0.24755 0.91844 0.65914 0.0
C3348 C 0.26472 0.9531 0.62195 0.0
C3349 C 0.26526 0.94145 0.65549 0.0
C3350 C 0.27239 0.94153 0.67668 0.0
C3351 C 0.25217 0.93969 0.61495 0.0
C3352 C 0.24563 0.92714 0.62875 0.0
C3353 C 0.25236 0.92815 0.64876 0.0
C3354 C 0.23233 0.91269 0.62202 0.0
C3355 C 0.24635 0.93903 0.59253 0.0
C3356 C 0.21909 0.91235 0.61488 0.0
C3357 C 0.20786 0.89961 0.60439 0.0
C3358 C 0.20948 0.88685 0.60145 0.0
C3359 C 0.22198 0.88663 0.61055 0.0
C3360 C 0.23336 0.89948 0.62072 0.0
H3361 H 0.25498 0.94789 0.58234 0.0
H3362 H 0.24272 0.92789 0.58503 0.0
H3363 H 0.23656 0.9409 0.59289 0.0
H3364 H 0.21787 0.92227 0.61625 0.0
H3365 H 0.19833 0.90003 0.59743 0.0
H3366 H 0.0158 0.28634 0.70207 0.0
H3367 H 0.04035 0.2913 0.6901 0.0
H3368 H 0.03882 0.31952 0.64005 0.0
H3369 H 0.01439 0.31499 0.65242 0.0
H3370 H 0.0459 0.28299 0.65392 0.0
H3371 H 0.08146 0.34486 0.65984 0.0
H3372 H 0.06338 0.33485 0.67227 0.0
H3373 H 0.0647 0.3397 0.64452 0.0
C3374 C 0.02078 0.29382 0.68872 0.0
C3375 C 0.01309 0.30023 0.67815 0.0
C3376 C 0.03486 0.29666 0.68191 0.0
C3377 C 0.04158 0.30591 0.66428 0.0
C3378 C 0.03411 0.31266 0.65402 0.0
H3379 H 0.09534 0.29878 0.57012 0.0
H3380 H 0.07637 0.29685 0.59475 0.0
C3381 C 0.02007 0.30998 0.66102 0.0
C3382 C 0.05555 0.30715 0.65539 0.0
H3383 H 0.09016 0.33212 0.63636 0.0
C3384 C 0.05565 0.29377 0.65045 0.0
C3385 C 0.06845 0.32117 0.65112 0.0
C3386 C 0.06957 0.33595 0.65744 0.0
C3387 C 0.0679 0.294 0.6404 0.0
C3388 C 0.08029 0.30798 0.63465 0.0
C3389 C 0.0806 0.32139 0.6406 0.0
C3390 C 0.09211 0.30877 0.62043 0.0
C3391 C 0.06733 0.27922 0.63569 0.0
C3392 C 0.10737 0.31627 0.62658 0.0
C3393 C 0.11836 0.31743 0.61236 0.0
C3394 C 0.11418 0.31134 0.59174 0.0
C3395 C 0.09888 0.30365 0.58588 0.0
C3396 C 0.08801 0.30245 0.6 0.0
H3397 H 0.06002 0.27035 0.64705 0.0
H3398 H 0.06255 0.27536 0.61947 0.0
H3399 H 0.0787 0.28041 0.6364 0.0
H3400 H 0.11078 0.3213 0.64226 0.0
H3401 H 0.13008 0.32348 0.61718 0.0
H3402 H 0.30417 0.31771 0.68436 0.0
H3403 H 0.28251 0.32077 0.67538 0.0
H3404 H 0.28744 0.31366 0.60905 0.0
H3405 H 0.30962 0.31144 0.61789 0.0
H3406 H 0.281 0.33491 0.61222 0.0
H3407 H 0.24108 0.28827 0.66292 0.0
H3408 H 0.25646 0.30263 0.67801 0.0
H3409 H 0.25988 0.29178 0.65854 0.0
C3410 C 0.30065 0.31686 0.66786 0.0
C3411 C 0.30853 0.31426 0.65183 0.0
C3412 C 0.28816 0.31846 0.66276 0.0
C3413 C 0.28301 0.31702 0.64159 0.0
C3414 C 0.2911 0.31472 0.62553 0.0
H3415 H 0.19598 0.29589 0.59268 0.0
H3416 H 0.21722 0.29587 0.61099 0.0
C3417 C 0.30379 0.31346 0.63057 0.0
C3418 C 0.26934 0.31808 0.63602 0.0
H3419 H 0.23212 0.30349 0.64698 0.0
C3420 C 0.27032 0.32801 0.61983 0.0
C3421 C 0.2553 0.30896 0.64574 0.0
C3422 C 0.25305 0.29721 0.66209 0.0
C3423 C 0.2577 0.32894 0.61285 0.0
C3424 C 0.24377 0.32019 0.62304 0.0
C3425 C 0.24282 0.31039 0.63941 0.0
C3426 C 0.22981 0.32008 0.61563 0.0
C3427 C 0.25937 0.33877 0.59393 0.0
C3428 C 0.22933 0.33356 0.61328 0.0
C3429 C 0.21728 0.33358 0.6025 0.0
C3430 C 0.20526 0.32005 0.59463 0.0
C3431 C 0.20501 0.30642 0.59892 0.0
C3432 C 0.21721 0.30644 0.60925 0.0
H3433 H 0.26942 0.34126 0.58452 0.0
H3434 H 0.24935 0.33333 0.58322 0.0
H3435 H 0.26071 0.34967 0.59957 0.0
H3436 H 0.23865 0.34417 0.61872 0.0
H3437 H 0.21774 0.34423 0.59921 0.0
H3438 H 0.67557 0.99114 0.65035 0.0
H3439 H 0.66495 0.96487 0.63838 0.0
H3440 H 0.70274 0.96317 0.66649 0.0
H3441 H 0.71328 0.98906 0.67863 0.0
H3442 H 0.67814 0.95368 0.61116 0.0
H3443 H 0.66774 0.92445 0.68832 0.0
H3444 H 0.67089 0.94344 0.68593 0.0
H3445 H 0.68652 0.93998 0.6868 0.0
C3446 C 0.68154 0.98512 0.65415 0.0
C3447 C 0.69531 0.99229 0.66544 0.0
C3448 C 0.67544 0.9701 0.64733 0.0
C3449 C 0.68289 0.96195 0.65193 0.0
C3450 C 0.69657 0.96907 0.66324 0.0
H3451 H 0.69192 0.88858 0.60979 0.0
H3452 H 0.69084 0.90818 0.63079 0.0
C3453 C 0.70267 0.984 0.66997 0.0
C3454 C 0.67722 0.94644 0.64352 0.0
H3455 H 0.6701 0.91122 0.65807 0.0
C3456 C 0.67604 0.94429 0.62141 0.0
C3457 C 0.67453 0.93421 0.65692 0.0
C3458 C 0.67483 0.93558 0.68082 0.0
C3459 C 0.67317 0.93054 0.6123 0.0
C3460 C 0.67113 0.9185 0.6257 0.0
C3461 C 0.67167 0.92044 0.64783 0.0
C3462 C 0.66981 0.90442 0.61684 0.0
C3463 C 0.67322 0.92931 0.58837 0.0
C3464 C 0.65787 0.89516 0.60308 0.0
C3465 C 0.65845 0.88392 0.59111 0.0
C3466 C 0.67094 0.88171 0.59282 0.0
C3467 C 0.6821 0.88992 0.60826 0.0
C3468 C 0.68154 0.90121 0.62016 0.0
H3469 H 0.67776 0.94046 0.58056 0.0
H3470 H 0.68 0.92409 0.5835 0.0
H3471 H 0.66155 0.92204 0.58242 0.0
H3472 H 0.64856 0.89725 0.6006 0.0
H3473 H 0.64965 0.87769 0.5794 0.0
H3474 H 0.02026 0.69662 0.63534 0.0
H3475 H 0.04555 0.71739 0.62905 0.0
H3476 H 0.04423 0.73858 0.68766 0.0
H3477 H 0.01911 0.7175 0.69442 0.0
H3478 H 0.05237 0.74532 0.6223 0.0
H3479 H 0.08605 0.74486 0.69178 0.0
H3480 H 0.0676 0.72933 0.68558 0.0
H3481 H 0.06966 0.74579 0.69914 0.0
C3482 C 0.02548 0.70554 0.64712 0.0
C3483 C 0.01769 0.70542 0.66537 0.0
C3484 C 0.03994 0.71744 0.64349 0.0
C3485 C 0.04691 0.72955 0.65793 0.0
C3486 C 0.03931 0.72924 0.67651 0.0
H3487 H 0.11536 0.81559 0.60828 0.0
H3488 H 0.09401 0.79712 0.62884 0.0
C3489 C 0.02489 0.7172 0.6803 0.0
C3490 C 0.0614 0.74307 0.65236 0.0
H3491 H 0.09745 0.7666 0.66963 0.0
C3492 C 0.06222 0.74992 0.63267 0.0
C3493 C 0.07432 0.74908 0.66581 0.0
C3494 C 0.07445 0.7418 0.68666 0.0
C3495 C 0.07552 0.76246 0.62595 0.0
C3496 C 0.08831 0.76878 0.63964 0.0
C3497 C 0.08756 0.76195 0.65935 0.0
C3498 C 0.10276 0.78179 0.63284 0.0
C3499 C 0.07583 0.76846 0.60386 0.0
C3500 C 0.11536 0.77997 0.63003 0.0
C3501 C 0.12775 0.79075 0.61885 0.0
C3502 C 0.12766 0.80343 0.61028 0.0
C3503 C 0.11573 0.80597 0.61495 0.0
C3504 C 0.10346 0.79533 0.62642 0.0
H3505 H 0.06651 0.76009 0.59362 0.0
H3506 H 0.0746 0.77865 0.60493 0.0
H3507 H 0.08661 0.77161 0.59598 0.0
H3508 H 0.11512 0.76966 0.63493 0.0
H3509 H 0.13672 0.78844 0.61513 0.0
H3510 H 0.95636 0.61629 0.66019 0.0
H3511 H 0.9622 0.5969 0.67147 0.0
H3512 H 0.99934 0.62958 0.70963 0.0
H3513 H 0.99346 0.64922 0.69862 0.0
H3514 H 0.98825 0.59432 0.66828 0.0
H3515 H 0.97319 0.59661 0.7523 0.0
H3516 H 0.96851 0.60552 0.73098 0.0
H3517 H 0.98738 0.61411 0.74143 0.0
C3518 C 0.96582 0.61946 0.67097 0.0
C3519 C 0.97432 0.63434 0.67872 0.0
C3520 C 0.96918 0.60832 0.6773 0.0
C3521 C 0.98108 0.61173 0.69158 0.0
C3522 C 0.98996 0.62666 0.69882 0.0
H3523 H 0.01082 0.5482 0.73197 0.0
H3524 H 0.00926 0.5685 0.71322 0.0
C3525 C 0.98661 0.63788 0.69246 0.0
C3526 C 0.98355 0.59939 0.69951 0.0
H3527 H 0.98093 0.57906 0.74401 0.0
C3528 C 0.98677 0.59103 0.68487 0.0
C3529 C 0.9814 0.59501 0.7211 0.0
C3530 C 0.97731 0.60317 0.7374 0.0
C3531 C 0.98778 0.57831 0.69122 0.0
C3532 C 0.98559 0.57394 0.71279 0.0
C3533 C 0.98257 0.58243 0.72745 0.0
C3534 C 0.98595 0.56038 0.72065 0.0
C3535 C 0.99069 0.56939 0.67474 0.0
C3536 C 0.97327 0.54886 0.73054 0.0
C3537 C 0.97414 0.53728 0.74121 0.0
C3538 C 0.98773 0.53703 0.74226 0.0
C3539 C 1.00014 0.54798 0.73111 0.0
C3540 C 0.99928 0.55962 0.72047 0.0
H3541 H 0.98887 0.57226 0.65831 0.0
H3542 H 1.00252 0.57191 0.67629 0.0
H3543 H 0.98332 0.5571 0.67716 0.0
H3544 H 0.96287 0.54921 0.73084 0.0
H3545 H 0.96442 0.529 0.74969 0.0
H3546 H 0.3574 0.35233 0.69504 0.0
H3547 H 0.37169 0.37885 0.70655 0.0
H3548 H 0.41224 0.38164 0.68277 0.0
H3549 H 0.39826 0.35558 0.67109 0.0
H3550 H 0.39519 0.39091 0.7356 0.0
H3551 H 0.41486 0.41969 0.65873 0.0
H3552 H 0.39959 0.40054 0.6606 0.0
H3553 H 0.41879 0.40447 0.66145 0.0
C3554 C 0.36932 0.35867 0.69205 0.0
C3555 C 0.37665 0.35176 0.68218 0.0
C3556 C 0.37746 0.37381 0.6986 0.0
C3557 C 0.39299 0.38233 0.69511 0.0
C3558 C 0.40023 0.37546 0.68511 0.0
H3559 H 0.47345 0.45379 0.74111 0.0
H3560 H 0.4529 0.4344 0.71975 0.0
C3561 C 0.39218 0.36043 0.67866 0.0
C3562 C 0.4021 0.39793 0.7035 0.0
H3563 H 0.43017 0.43291 0.68973 0.0
C3564 C 0.40256 0.40022 0.72554 0.0
C3565 C 0.41172 0.41008 0.69034 0.0
C3566 C 0.4111 0.40861 0.66644 0.0
C3567 C 0.41314 0.41396 0.73493 0.0
C3568 C 0.42338 0.4258 0.72186 0.0
C3569 C 0.42236 0.42381 0.69972 0.0
C3570 C 0.43615 0.43961 0.73117 0.0
C3571 C 0.41392 0.41537 0.75887 0.0
C3572 C 0.43372 0.44953 0.74371 0.0
C3573 C 0.44549 0.46072 0.75585 0.0
C3574 C 0.45989 0.46217 0.75563 0.0
C3575 C 0.46256 0.4531 0.74152 0.0
C3576 C 0.45078 0.44192 0.7294 0.0
H3577 H 0.40677 0.40439 0.76674 0.0
H3578 H 0.42567 0.41995 0.76473 0.0
H3579 H 0.41003 0.4233 0.76376 0.0
H3580 H 0.42255 0.4481 0.74499 0.0
H3581 H 0.44313 0.46765 0.76639 0.0
H3582 H 0.65828 0.03749 0.66225 0.0
H3583 H 0.63402 0.03506 0.67149 0.0
H3584 H 0.63446 0.01331 0.73016 0.0
H3585 H 0.65885 0.01607 0.72132 0.0
H3586 H 0.60609 0.01135 0.6806 0.0
H3587 H 0.63039 0.04859 0.75107 0.0
H3588 H 0.64188 0.04657 0.73136 0.0
H3589 H 0.63332 0.03265 0.75184 0.0
C3590 C 0.65316 0.03209 0.67705 0.0
C3591 C 0.66058 0.02714 0.69118 0.0
C3592 C 0.63928 0.0307 0.6823 0.0
C3593 C 0.63257 0.02431 0.70174 0.0
C3594 C 0.6396 0.01865 0.71533 0.0
H3595 H 0.54279 0.99448 0.74661 0.0
H3596 H 0.56429 0.99664 0.72714 0.0
C3597 C 0.65352 0.02016 0.7102 0.0
C3598 C 0.61853 0.02406 0.70824 0.0
H3599 H 0.60377 0.03512 0.74807 0.0
C3600 C 0.60558 0.01663 0.69528 0.0
C3601 C 0.61793 0.03123 0.72716 0.0
C3602 C 0.63166 0.04034 0.74105 0.0
C3603 C 0.59196 0.01579 0.70106 0.0
C3604 C 0.59119 0.02231 0.72054 0.0
C3605 C 0.60426 0.03005 0.73318 0.0
C3606 C 0.57701 0.02103 0.72866 0.0
C3607 C 0.57861 0.0081 0.68611 0.0
C3608 C 0.5768 0.03399 0.7358 0.0
C3609 C 0.56463 0.03272 0.7472 0.0
C3610 C 0.55231 0.01849 0.75145 0.0
C3611 C 0.55201 0.00559 0.7431 0.0
C3612 C 0.56432 0.00683 0.73195 0.0
H3613 H 0.58217 0.00835 0.66945 0.0
H3614 H 0.57172 0.99612 0.69074 0.0
H3615 H 0.57146 0.01347 0.68669 0.0
H3616 H 0.58643 0.04506 0.73351 0.0
H3617 H 0.56518 0.04281 0.75372 0.0
loop_
_geom_bond_atom_site_label_1
_geom_bond_atom_site_label_2
_geom_bond_distance
_geom_bond_site_symmetry_2
_ccdc_geom_bond_type
Mn0 O5 2.095 1_655 S
Mn0 O15 2.162 . S
Mn0 O16 2.297 1_554 S
Mn0 O24 2.385 1_554 S
Mn0 O25 2.209 1_654 S
Mn0 O26 2.094 . S
Mn1 O6 2.121 . S
Mn1 N8 2.257 1_554 S
Mn1 N17 2.282 . S
Mn1 O25 2.215 1_554 S
Mn1 O27 2.117 . S
C2 O24 1.234 1_455 S
C2 O25 1.283 . S
C3 O15 1.281 1_556 S
C3 O16 1.236 . S
C4 O26 1.224 1_455 S
C4 O27 1.306 . S
O5 Mn0 2.095 1_455 S
O5 C14 1.250 . S
O6 Mn1 2.121 . S
O6 C14 1.258 . S
C7 N8 1.326 . S
C7 C11 1.460 . S
C7 H13 0.929 . S
N8 Mn1 2.257 1_556 S
N8 C7 1.326 . S
N8 C12 1.362 . S
C9 C10 1.258 . S
C9 C12 1.431 . S
C9 C29 1.449 . S
C10 C9 1.258 . S
C10 C11 1.477 . S
C10 H30 0.931 . S
C11 C7 1.460 . S
C11 C10 1.477 . S
C11 H31 0.930 . S
C12 N8 1.362 . S
C12 C9 1.431 . S
C12 C22 1.476 . S
H13 C7 0.929 . S
C14 O5 1.250 . S
C14 O6 1.258 . S
O15 Mn0 2.162 . S
O15 C3 1.281 1_554 S
O16 Mn0 2.297 1_556 S
O16 C3 1.236 . S
N17 Mn1 2.282 . S
N17 C18 1.328 . S
N17 C22 1.318 1_554 S
C18 N17 1.328 . S
C18 C19 1.457 1_554 S
C18 H23 0.929 . S
C19 C18 1.457 1_556 S
C19 C20 1.291 . S
C19 H32 0.935 . S
C20 C19 1.291 . S
C20 C21 1.373 . S
C20 H33 0.929 . S
C21 C20 1.373 . S
C21 C22 1.396 . S
C21 C28 1.403 . S
C22 C12 1.476 . S
C22 N17 1.318 1_556 S
C22 C21 1.396 . S
H23 C18 0.929 . S
O24 Mn0 2.385 1_556 S
O24 C2 1.234 1_655 S
O25 Mn0 2.209 1_456 S
O25 Mn1 2.215 1_556 S
O25 C2 1.283 . S
O26 Mn0 2.094 . S
O26 C4 1.224 1_655 S
O27 Mn1 2.117 . S
O27 C4 1.306 . S
C28 C21 1.403 . S
C28 C29 1.399 . S
C28 H34 0.929 . S
C29 C9 1.449 . S
C29 C28 1.399 . S
C29 H35 0.930 . S
H30 C10 0.931 . S
H31 C11 0.930 . S
H32 C19 0.935 . S
H33 C20 0.929 . S
H34 C28 0.929 . S
H35 C29 0.930 . S
Mn36 O41 2.095 1_554 S
Mn36 O51 2.162 . S
Mn36 O52 2.297 . S
Mn36 O60 2.385 . S
Mn36 O61 2.209 . S
Mn36 O62 2.094 1_554 S
Mn37 O42 2.119 1_554 S
Mn37 N44 2.266 . S
Mn37 N53 2.287 . S
Mn37 O61 2.225 . S
Mn37 O63 2.108 1_554 S
C38 O60 1.234 . S
C38 O61 1.283 . S
C39 O51 1.281 . S
C39 O52 1.236 . S
C40 O62 1.240 . S
C40 O63 1.264 . S
O41 Mn36 2.095 1_556 S
O41 C50 1.250 . S
O42 Mn37 2.119 1_556 S
O42 C50 1.258 . S
C43 N44 1.326 . S
C43 C47 1.460 . S
C43 H49 0.929 . S
N44 Mn37 2.266 . S
N44 C43 1.326 . S
N44 C48 1.362 . S
C45 C46 1.258 . S
C45 C48 1.431 . S
C45 C65 1.449 . S
C46 C45 1.258 . S
C46 C47 1.477 . S
C46 H66 0.931 . S
C47 C43 1.460 . S
C47 C46 1.477 . S
C47 H67 0.930 . S
C48 N44 1.362 . S
C48 C45 1.431 . S
C48 C58 1.476 . S
H49 C43 0.929 . S
C50 O41 1.250 . S
C50 O42 1.258 . S
O51 Mn36 2.162 . S
O51 C39 1.281 . S
O52 Mn36 2.297 . S
O52 C39 1.236 . S
N53 Mn37 2.287 . S
N53 C54 1.328 . S
N53 C58 1.318 . S
C54 N53 1.328 . S
C54 C55 1.457 . S
C54 H59 0.929 1_554 S
C55 C54 1.457 . S
C55 C56 1.291 . S
C55 H68 0.931 . S
C56 C55 1.291 . S
C56 C57 1.373 . S
C56 H69 0.929 . S
C57 C56 1.373 . S
C57 C58 1.396 . S
C57 C64 1.403 . S
C58 C48 1.476 . S
C58 N53 1.318 . S
C58 C57 1.396 . S
H59 C54 0.929 1_556 S
O60 Mn36 2.385 . S
O60 C38 1.234 . S
O61 Mn36 2.209 . S
O61 Mn37 2.225 . S
O61 C38 1.283 . S
O62 Mn36 2.094 1_556 S
O62 C40 1.240 . S
O63 Mn37 2.108 1_556 S
O63 C40 1.264 . S
C64 C57 1.403 . S
C64 C65 1.399 . S
C64 H70 0.929 . S
C65 C45 1.449 . S
C65 C64 1.399 . S
C65 H71 0.930 . S
H66 C46 0.931 . S
H67 C47 0.930 . S
H68 C55 0.931 . S
H69 C56 0.929 . S
H70 C64 0.929 . S
H71 C65 0.930 . S
Mn72 O77 2.095 1_564 S
Mn72 O87 2.162 . S
Mn72 O88 2.297 . S
Mn72 O96 2.385 . S
Mn72 O97 2.209 1_565 S
Mn72 O98 2.094 1_554 S
Mn73 O78 2.117 1_554 S
Mn73 N80 2.257 . S
Mn73 N89 2.282 . S
Mn73 O97 2.215 . S
Mn73 O99 2.117 1_554 S
C74 O96 1.202 1_545 S
C74 O97 1.317 . S
C75 O87 1.281 . S
C75 O88 1.236 . S
C76 O98 1.250 . S
C76 O99 1.243 1_565 S
O77 Mn72 2.095 1_546 S
O77 C86 1.250 . S
O78 Mn73 2.117 1_556 S
O78 C86 1.270 . S
C79 N80 1.326 . S
C79 C83 1.460 . S
C79 H85 0.929 . S
N80 Mn73 2.257 . S
N80 C79 1.326 . S
N80 C84 1.362 . S
C81 C82 1.258 . S
C81 C84 1.431 . S
C81 C101 1.449 . S
C82 C81 1.258 . S
C82 C83 1.477 . S
C82 H102 0.931 . S
C83 C79 1.460 . S
C83 C82 1.477 . S
C83 H103 0.930 . S
C84 N80 1.362 . S
C84 C81 1.431 . S
C84 C94 1.476 . S
H85 C79 0.929 . S
C86 O77 1.250 . S
C86 O78 1.270 . S
O87 Mn72 2.162 . S
O87 C75 1.281 . S
O88 Mn72 2.297 . S
O88 C75 1.236 . S
N89 Mn73 2.282 . S
N89 C90 1.328 . S
N89 C94 1.318 . S
C90 N89 1.328 . S
C90 C91 1.457 . S
C90 H95 0.929 . S
C91 C90 1.457 . S
C91 C92 1.291 . S
C91 H104 0.931 . S
C92 C91 1.291 . S
C92 C93 1.373 . S
C92 H105 0.929 . S
C93 C92 1.373 . S
C93 C94 1.396 . S
C93 C100 1.403 . S
C94 C84 1.476 . S
C94 N89 1.318 . S
C94 C93 1.396 . S
H95 C90 0.929 . S
O96 Mn72 2.385 . S
O96 C74 1.202 1_565 S
O97 Mn72 2.209 1_545 S
O97 Mn73 2.215 . S
O97 C74 1.317 . S
O98 Mn72 2.094 1_556 S
O98 C76 1.250 . S
O99 Mn73 2.117 1_556 S
O99 C76 1.243 1_545 S
C100 C93 1.403 . S
C100 C101 1.399 . S
C100 H106 0.929 . S
C101 C81 1.449 . S
C101 C100 1.399 . S
C101 H107 0.930 . S
H102 C82 0.931 . S
H103 C83 0.930 . S
H104 C91 0.931 . S
H105 C92 0.929 . S
H106 C100 0.929 . S
H107 C101 0.930 . S
Mn108 O113 2.095 1_655 S
Mn108 O123 2.162 . S
Mn108 O124 2.297 1_554 S
Mn108 O132 2.385 1_554 S
Mn108 O133 2.209 1_654 S
Mn108 O134 2.094 . S
Mn109 O114 2.121 . S
Mn109 N116 2.257 1_554 S
Mn109 N125 2.280 1_554 S
Mn109 O133 2.215 1_554 S
Mn109 O135 2.117 . S
C110 O132 1.183 1_455 S
C110 O133 1.305 . S
C111 O123 1.281 1_556 S
C111 O124 1.236 . S
C112 O134 1.231 1_455 S
C112 O135 1.273 . S
O113 Mn108 2.095 1_455 S
O113 C122 1.250 . S
O114 Mn109 2.121 . S
O114 C122 1.258 . S
C115 N116 1.326 . S
C115 C119 1.460 . S
C115 H121 0.929 . S
N116 Mn109 2.257 1_556 S
N116 C115 1.326 . S
N116 C120 1.362 . S
C117 C118 1.258 . S
C117 C120 1.431 . S
C117 C137 1.449 . S
C118 C117 1.258 . S
C118 C119 1.477 . S
C118 H138 0.931 . S
C119 C115 1.460 . S
C119 C118 1.477 . S
C119 H139 0.930 . S
C120 N116 1.362 . S
C120 C117 1.431 . S
C120 C130 1.476 . S
H121 C115 0.929 . S
C122 O113 1.250 . S
C122 O114 1.258 . S
O123 Mn108 2.162 . S
O123 C111 1.281 1_554 S
O124 Mn108 2.297 1_556 S
O124 C111 1.236 . S
N125 Mn109 2.280 1_556 S
N125 C126 1.326 1_556 S
N125 C130 1.321 . S
C126 N125 1.326 1_554 S
C126 C127 1.457 1_554 S
C126 H131 0.929 . S
C127 C126 1.457 1_556 S
C127 C128 1.291 . S
C127 H140 0.931 . S
C128 C127 1.291 . S
C128 C129 1.373 . S
C128 H141 0.929 . S
C129 C128 1.373 . S
C129 C130 1.396 . S
C129 C136 1.403 . S
C130 C120 1.476 . S
C130 N125 1.321 . S
C130 C129 1.396 . S
H131 C126 0.929 . S
O132 Mn108 2.385 1_556 S
O132 C110 1.183 1_655 S
O133 Mn108 2.209 1_456 S
O133 Mn109 2.215 1_556 S
O133 C110 1.305 . S
O134 Mn108 2.094 . S
O134 C112 1.231 1_655 S
O135 Mn109 2.117 . S
O135 C112 1.273 . S
C136 C129 1.403 . S
C136 C137 1.399 . S
C136 H142 0.929 . S
C137 C117 1.449 . S
C137 C136 1.399 . S
C137 H143 0.930 . S
H138 C118 0.931 . S
H139 C119 0.930 . S
H140 C127 0.931 . S
H141 C128 0.929 . S
H142 C136 0.929 . S
H143 C137 0.930 . S
Mn144 O149 2.095 1_554 S
Mn144 O159 2.162 . S
Mn144 O160 2.297 . S
Mn144 O168 2.385 . S
Mn144 O169 2.209 . S
Mn144 O170 2.094 1_554 S
Mn145 O150 2.121 1_554 S
Mn145 N152 2.257 . S
Mn145 N161 2.282 . S
Mn145 O169 2.215 . S
Mn145 O171 2.117 1_554 S
C146 O168 1.234 . S
C146 O169 1.283 . S
C147 O159 1.281 . S
C147 O160 1.236 . S
C148 O170 1.240 . S
C148 O171 1.264 . S
O149 Mn144 2.095 1_556 S
O149 C158 1.250 . S
O150 Mn145 2.121 1_556 S
O150 C158 1.258 . S
C151 N152 1.326 . S
C151 C155 1.460 . S
C151 H157 0.929 . S
N152 Mn145 2.257 . S
N152 C151 1.326 . S
N152 C156 1.362 . S
C153 C154 1.258 . S
C153 C156 1.431 . S
C153 C173 1.449 . S
C154 C153 1.258 . S
C154 C155 1.477 . S
C154 H174 0.931 . S
C155 C151 1.460 . S
C155 C154 1.477 . S
C155 H175 0.930 . S
C156 N152 1.362 . S
C156 C153 1.431 . S
C156 C166 1.476 . S
H157 C151 0.929 . S
C158 O149 1.250 . S
C158 O150 1.258 . S
O159 Mn144 2.162 . S
O159 C147 1.281 . S
O160 Mn144 2.297 . S
O160 C147 1.236 . S
N161 Mn145 2.282 . S
N161 C162 1.328 . S
N161 C166 1.318 . S
C162 N161 1.328 . S
C162 C163 1.457 . S
C162 H167 0.936 . S
C163 C162 1.457 . S
C163 C164 1.291 . S
C163 H176 0.931 . S
C164 C163 1.291 . S
C164 C165 1.373 . S
C164 H177 0.929 . S
C165 C164 1.373 . S
C165 C166 1.396 . S
C165 C172 1.403 . S
C166 C156 1.476 . S
C166 N161 1.318 . S
C166 C165 1.396 . S
H167 C162 0.936 . S
O168 Mn144 2.385 . S
O168 C146 1.234 . S
O169 Mn144 2.209 . S
O169 Mn145 2.215 . S
O169 C146 1.283 . S
O170 Mn144 2.094 1_556 S
O170 C148 1.240 . S
O171 Mn145 2.117 1_556 S
O171 C148 1.264 . S
C172 C165 1.403 . S
C172 C173 1.399 . S
C172 H178 0.929 . S
C173 C153 1.449 . S
C173 C172 1.399 . S
C173 H179 0.930 . S
H174 C154 0.931 . S
H175 C155 0.930 . S
H176 C163 0.931 . S
H177 C164 0.929 . S
H178 C172 0.929 . S
H179 C173 0.930 . S
Mn180 O185 2.095 1_545 S
Mn180 O195 2.162 . S
Mn180 O196 2.297 1_554 S
Mn180 O204 2.385 1_554 S
Mn180 O205 2.209 1_544 S
Mn180 O206 2.094 . S
Mn181 O186 2.121 . S
Mn181 N188 2.257 1_554 S
Mn181 N197 2.292 . S
Mn181 O205 2.215 1_554 S
Mn181 O207 2.117 . S
C182 O204 1.234 . S
C182 O205 1.283 1_545 S
C183 O195 1.281 1_556 S
C183 O196 1.236 . S
C184 O206 1.240 . S
C184 O207 1.264 1_545 S
O185 Mn180 2.095 1_565 S
O185 C194 1.250 . S
O186 Mn181 2.121 . S
O186 C194 1.258 . S
C187 N188 1.326 . S
C187 C191 1.460 . S
C187 H193 0.929 . S
N188 Mn181 2.257 1_556 S
N188 C187 1.326 . S
N188 C192 1.362 . S
C189 C190 1.258 . S
C189 C192 1.431 . S
C189 C209 1.449 . S
C190 C189 1.258 . S
C190 C191 1.477 . S
C190 H210 0.931 . S
C191 C187 1.460 . S
C191 C190 1.477 . S
C191 H211 0.930 . S
C192 N188 1.362 . S
C192 C189 1.431 . S
C192 C202 1.476 . S
H193 C187 0.929 . S
C194 O185 1.250 . S
C194 O186 1.258 . S
O195 Mn180 2.162 . S
O195 C183 1.281 1_554 S
O196 Mn180 2.297 1_556 S
O196 C183 1.236 . S
N197 Mn181 2.292 . S
N197 C198 1.335 . S
N197 C202 1.297 1_554 S
C198 N197 1.335 . S
C198 C199 1.457 1_554 S
C198 H203 0.929 . S
C199 C198 1.457 1_556 S
C199 C200 1.291 . S
C199 H212 0.931 . S
C200 C199 1.291 . S
C200 C201 1.373 . S
C200 H213 0.929 . S
C201 C200 1.373 . S
C201 C202 1.396 . S
C201 C208 1.403 . S
C202 C192 1.476 . S
C202 N197 1.297 1_556 S
C202 C201 1.396 . S
H203 C198 0.929 . S
O204 Mn180 2.385 1_556 S
O204 C182 1.234 . S
O205 Mn180 2.209 1_566 S
O205 Mn181 2.215 1_556 S
O205 C182 1.283 1_565 S
O206 Mn180 2.094 . S
O206 C184 1.240 . S
O207 Mn181 2.117 . S
O207 C184 1.264 1_565 S
C208 C201 1.403 . S
C208 C209 1.399 . S
C208 H214 0.929 . S
C209 C189 1.449 . S
C209 C208 1.399 . S
C209 H215 0.930 . S
H210 C190 0.931 . S
H211 C191 0.930 . S
H212 C199 0.931 . S
H213 C200 0.929 . S
H214 C208 0.929 . S
H215 C209 0.930 . S
Mn216 O221 2.095 . S
Mn216 O231 2.162 . S
Mn216 O232 2.297 . S
Mn216 O240 2.385 . S
Mn216 O241 2.209 . S
Mn216 O242 2.094 . S
Mn217 O222 2.121 . S
Mn217 N224 2.257 . S
Mn217 N233 2.282 . S
Mn217 O241 2.215 . S
Mn217 O243 2.117 . S
C218 O240 1.234 . S
C218 O241 1.283 . S
C219 O231 1.281 . S
C219 O232 1.236 . S
C220 O242 1.240 . S
C220 O243 1.264 . S
O221 Mn216 2.095 . S
O221 C230 1.250 . S
O222 Mn217 2.121 . S
O222 C230 1.258 . S
C223 N224 1.326 . S
C223 C227 1.460 . S
C223 H229 0.929 . S
N224 Mn217 2.257 . S
N224 C223 1.326 . S
N224 C228 1.362 . S
C225 C226 1.258 . S
C225 C228 1.431 . S
C225 C245 1.449 . S
C226 C225 1.258 . S
C226 C227 1.477 . S
C226 H246 0.931 . S
C227 C223 1.460 . S
C227 C226 1.477 . S
C227 H247 0.930 . S
C228 N224 1.362 . S
C228 C225 1.431 . S
C228 C238 1.476 . S
H229 C223 0.929 . S
C230 O221 1.250 . S
C230 O222 1.258 . S
O231 Mn216 2.162 . S
O231 C219 1.281 . S
O232 Mn216 2.297 . S
O232 C219 1.236 . S
N233 Mn217 2.282 . S
N233 C234 1.328 . S
N233 C238 1.318 . S
C234 N233 1.328 . S
C234 C235 1.457 . S
C234 H239 0.929 . S
C235 C234 1.457 . S
C235 C236 1.291 . S
C235 H248 0.931 . S
C236 C235 1.291 . S
C236 C237 1.373 . S
C236 H249 0.929 . S
C237 C236 1.373 . S
C237 C238 1.396 . S
C237 C244 1.403 . S
C238 C228 1.476 . S
C238 N233 1.318 . S
C238 C237 1.396 . S
H239 C234 0.929 . S
O240 Mn216 2.385 . S
O240 C218 1.234 . S
O241 Mn216 2.209 . S
O241 Mn217 2.215 . S
O241 C218 1.283 . S
O242 Mn216 2.094 . S
O242 C220 1.240 . S
O243 Mn217 2.117 . S
O243 C220 1.264 . S
C244 C237 1.403 . S
C244 C245 1.399 . S
C244 H250 0.929 . S
C245 C225 1.449 . S
C245 C244 1.399 . S
C245 H251 0.930 . S
H246 C226 0.931 . S
H247 C227 0.930 . S
H248 C235 0.931 . S
H249 C236 0.929 . S
H250 C244 0.929 . S
H251 C245 0.930 . S
Mn252 O257 2.095 . S
Mn252 O267 2.162 1_565 S
Mn252 O268 2.297 1_565 S
Mn252 O276 2.385 . S
Mn252 O277 2.209 . S
Mn252 O278 2.094 . S
Mn253 O258 2.121 . S
Mn253 N260 2.257 . S
Mn253 N269 2.282 . S
Mn253 O277 2.215 . S
Mn253 O279 2.117 . S
C254 O276 1.234 . S
C254 O277 1.283 . S
C255 O267 1.281 . S
C255 O268 1.236 . S
C256 O278 1.240 . S
C256 O279 1.264 . S
O257 Mn252 2.095 . S
O257 C266 1.250 . S
O258 Mn253 2.121 . S
O258 C266 1.258 . S
C259 N260 1.326 . S
C259 C263 1.460 . S
C259 H265 0.929 . S
N260 Mn253 2.257 . S
N260 C259 1.326 . S
N260 C264 1.362 . S
C261 C262 1.258 . S
C261 C264 1.431 . S
C261 C281 1.449 . S
C262 C261 1.258 . S
C262 C263 1.477 . S
C262 H282 0.931 . S
C263 C259 1.460 . S
C263 C262 1.477 . S
C263 H283 0.930 . S
C264 N260 1.362 . S
C264 C261 1.431 . S
C264 C274 1.476 . S
H265 C259 0.929 . S
C266 O257 1.250 . S
C266 O258 1.258 . S
O267 Mn252 2.162 1_545 S
O267 C255 1.281 . S
O268 Mn252 2.297 1_545 S
O268 C255 1.236 . S
N269 Mn253 2.282 . S
N269 C270 1.328 . S
N269 C274 1.318 . S
C270 N269 1.328 . S
C270 C271 1.457 . S
C270 H275 0.929 . S
C271 C270 1.457 . S
C271 C272 1.291 . S
C271 H284 0.931 . S
C272 C271 1.291 . S
C272 C273 1.373 . S
C272 H285 0.929 . S
C273 C272 1.373 . S
C273 C274 1.396 . S
C273 C280 1.403 . S
C274 C264 1.476 . S
C274 N269 1.318 . S
C274 C273 1.396 . S
H275 C270 0.929 . S
O276 Mn252 2.385 . S
O276 C254 1.234 . S
O277 Mn252 2.209 . S
O277 Mn253 2.215 . S
O277 C254 1.283 . S
O278 Mn252 2.094 . S
O278 C256 1.240 . S
O279 Mn253 2.117 . S
O279 C256 1.264 . S
C280 C273 1.403 . S
C280 C281 1.399 . S
C280 H286 0.929 . S
C281 C261 1.449 . S
C281 C280 1.399 . S
C281 H287 0.930 . S
H282 C262 0.931 . S
H283 C263 0.930 . S
H284 C271 0.931 . S
H285 C272 0.929 . S
H286 C280 0.929 . S
H287 C281 0.930 . S
Mn288 O293 2.095 . S
Mn288 O303 2.162 1_455 S
Mn288 O304 2.297 1_455 S
Mn288 O312 2.385 . S
Mn288 O313 2.209 . S
Mn288 O314 2.094 . S
Mn289 O294 2.121 . S
Mn289 N296 2.257 . S
Mn289 N305 2.282 . S
Mn289 O313 2.215 . S
Mn289 O315 2.117 . S
C290 O312 1.234 . S
C290 O313 1.283 . S
C291 O303 1.281 . S
C291 O304 1.236 . S
C292 O314 1.240 . S
C292 O315 1.264 . S
O293 Mn288 2.095 . S
O293 C302 1.250 . S
O294 Mn289 2.121 . S
O294 C302 1.258 . S
C295 N296 1.326 . S
C295 C299 1.460 . S
C295 H301 0.929 . S
N296 Mn289 2.257 . S
N296 C295 1.326 . S
N296 C300 1.362 . S
C297 C298 1.258 . S
C297 C300 1.431 . S
C297 C317 1.449 . S
C298 C297 1.258 . S
C298 C299 1.477 . S
C298 H318 0.931 . S
C299 C295 1.460 . S
C299 C298 1.477 . S
C299 H319 0.930 . S
C300 N296 1.362 . S
C300 C297 1.431 . S
C300 C310 1.476 . S
H301 C295 0.929 . S
C302 O293 1.250 . S
C302 O294 1.258 . S
O303 Mn288 2.162 1_655 S
O303 C291 1.281 . S
O304 Mn288 2.297 1_655 S
O304 C291 1.236 . S
N305 Mn289 2.282 . S
N305 C306 1.328 . S
N305 C310 1.318 . S
C306 N305 1.328 . S
C306 C307 1.457 . S
C306 H311 0.929 . S
C307 C306 1.457 . S
C307 C308 1.291 . S
C307 H320 0.931 . S
C308 C307 1.291 . S
C308 C309 1.373 . S
C308 H321 0.929 . S
C309 C308 1.373 . S
C309 C310 1.396 . S
C309 C316 1.403 . S
C310 C300 1.476 . S
C310 N305 1.318 . S
C310 C309 1.396 . S
H311 C306 0.929 . S
O312 Mn288 2.385 . S
O312 C290 1.234 . S
O313 Mn288 2.209 . S
O313 Mn289 2.215 . S
O313 C290 1.283 . S
O314 Mn288 2.094 . S
O314 C292 1.240 . S
O315 Mn289 2.117 . S
O315 C292 1.264 . S
C316 C309 1.403 . S
C316 C317 1.399 . S
C316 H322 0.929 . S
C317 C297 1.449 . S
C317 C316 1.399 . S
C317 H323 0.930 . S
H318 C298 0.931 . S
H319 C299 0.930 . S
H320 C307 0.931 . S
H321 C308 0.929 . S
H322 C316 0.929 . S
H323 C317 0.930 . S
Mn324 O329 2.095 . S
Mn324 O339 2.162 . S
Mn324 O340 2.297 . S
Mn324 O348 2.385 . S
Mn324 O349 2.209 . S
Mn324 O350 2.094 . S
Mn325 O330 2.121 1_565 S
Mn325 N332 2.257 . S
Mn325 N341 2.282 . S
Mn325 O349 2.215 . S
Mn325 O351 2.117 . S
C326 O348 1.234 . S
C326 O349 1.283 . S
C327 O339 1.281 . S
C327 O340 1.236 . S
C328 O350 1.240 . S
C328 O351 1.264 . S
O329 Mn324 2.095 . S
O329 C338 1.250 1_565 S
O330 Mn325 2.121 1_545 S
O330 C338 1.258 . S
C331 N332 1.326 1_545 S
C331 C335 1.460 . S
C331 H337 0.929 . S
N332 Mn325 2.257 . S
N332 C331 1.326 1_565 S
N332 C336 1.362 . S
C333 C334 1.258 . S
C333 C336 1.431 . S
C333 C353 1.449 . S
C334 C333 1.258 . S
C334 C335 1.477 1_565 S
C334 H354 0.931 . S
C335 C331 1.460 . S
C335 C334 1.477 1_545 S
C335 H355 0.930 . S
C336 N332 1.362 . S
C336 C333 1.431 . S
C336 C346 1.476 . S
H337 C331 0.929 . S
C338 O329 1.250 1_545 S
C338 O330 1.258 . S
O339 Mn324 2.162 . S
O339 C327 1.281 . S
O340 Mn324 2.297 . S
O340 C327 1.236 . S
N341 Mn325 2.282 . S
N341 C342 1.328 . S
N341 C346 1.318 . S
C342 N341 1.328 . S
C342 C343 1.457 . S
C342 H347 0.929 . S
C343 C342 1.457 . S
C343 C344 1.291 . S
C343 H356 0.931 . S
C344 C343 1.291 . S
C344 C345 1.373 . S
C344 H357 0.929 . S
C345 C344 1.373 . S
C345 C346 1.396 . S
C345 C352 1.403 . S
C346 C336 1.476 . S
C346 N341 1.318 . S
C346 C345 1.396 . S
H347 C342 0.929 . S
O348 Mn324 2.385 . S
O348 C326 1.234 . S
O349 Mn324 2.209 . S
O349 Mn325 2.215 . S
O349 C326 1.283 . S
O350 Mn324 2.094 . S
O350 C328 1.240 . S
O351 Mn325 2.117 . S
O351 C328 1.264 . S
C352 C345 1.403 . S
C352 C353 1.399 . S
C352 H358 0.929 . S
C353 C333 1.449 . S
C353 C352 1.399 . S
C353 H359 0.930 . S
H354 C334 0.931 . S
H355 C335 0.930 . S
H356 C343 0.931 . S
H357 C344 0.929 . S
H358 C352 0.929 . S
H359 C353 0.930 . S
Mn360 O365 2.095 . S
Mn360 O375 2.162 1_455 S
Mn360 O376 2.289 1_455 S
Mn360 O384 2.385 . S
Mn360 O385 2.209 . S
Mn360 O386 2.094 . S
Mn361 O366 2.121 . S
Mn361 N368 2.257 . S
Mn361 N377 2.282 . S
Mn361 O385 2.215 . S
Mn361 O387 2.117 . S
C362 O384 1.234 . S
C362 O385 1.283 . S
C363 O375 1.281 . S
C363 O376 1.251 . S
C364 O386 1.240 . S
C364 O387 1.264 . S
O365 Mn360 2.095 . S
O365 C374 1.250 . S
O366 Mn361 2.121 . S
O366 C374 1.258 . S
C367 N368 1.326 . S
C367 C371 1.460 . S
C367 H373 0.929 . S
N368 Mn361 2.257 . S
N368 C367 1.326 . S
N368 C372 1.362 . S
C369 C370 1.258 . S
C369 C372 1.431 . S
C369 C389 1.449 . S
C370 C369 1.258 . S
C370 C371 1.477 . S
C370 H390 0.931 . S
C371 C367 1.460 . S
C371 C370 1.477 . S
C371 H391 0.930 . S
C372 N368 1.362 . S
C372 C369 1.431 . S
C372 C382 1.476 . S
H373 C367 0.929 . S
C374 O365 1.250 . S
C374 O366 1.258 . S
O375 Mn360 2.162 1_655 S
O375 C363 1.281 . S
O376 Mn360 2.289 1_655 S
O376 C363 1.251 . S
N377 Mn361 2.282 . S
N377 C378 1.328 . S
N377 C382 1.318 . S
C378 N377 1.328 . S
C378 C379 1.457 . S
C378 H383 0.929 . S
C379 C378 1.457 . S
C379 C380 1.291 . S
C379 H392 0.931 . S
C380 C379 1.291 . S
C380 C381 1.373 . S
C380 H393 0.929 . S
C381 C380 1.373 . S
C381 C382 1.396 . S
C381 C388 1.403 . S
C382 C372 1.476 . S
C382 N377 1.318 . S
C382 C381 1.396 . S
H383 C378 0.929 . S
O384 Mn360 2.385 . S
O384 C362 1.234 . S
O385 Mn360 2.209 . S
O385 Mn361 2.215 . S
O385 C362 1.283 . S
O386 Mn360 2.094 . S
O386 C364 1.240 . S
O387 Mn361 2.117 . S
O387 C364 1.264 . S
C388 C381 1.403 . S
C388 C389 1.399 . S
C388 H394 0.929 . S
C389 C369 1.449 . S
C389 C388 1.399 . S
C389 H395 0.930 . S
H390 C370 0.931 . S
H391 C371 0.930 . S
H392 C379 0.931 . S
H393 C380 0.929 . S
H394 C388 0.929 . S
H395 C389 0.930 . S
Mn396 O401 2.095 . S
Mn396 O411 2.162 . S
Mn396 O412 2.297 . S
Mn396 O420 2.385 . S
Mn396 O421 2.209 . S
Mn396 O422 2.094 . S
Mn397 O402 2.121 . S
Mn397 N404 2.257 . S
Mn397 N413 2.282 . S
Mn397 O421 2.215 . S
Mn397 O423 2.117 . S
C398 O420 1.234 . S
C398 O421 1.283 . S
C399 O411 1.281 . S
C399 O412 1.236 . S
C400 O422 1.240 . S
C400 O423 1.264 . S
O401 Mn396 2.095 . S
O401 C410 1.250 . S
O402 Mn397 2.121 . S
O402 C410 1.258 . S
C403 N404 1.326 . S
C403 C407 1.460 . S
C403 H409 0.929 . S
N404 Mn397 2.257 . S
N404 C403 1.326 . S
N404 C408 1.362 . S
C405 C406 1.258 . S
C405 C408 1.431 . S
C405 C425 1.449 . S
C406 C405 1.258 . S
C406 C407 1.477 . S
C406 H426 0.931 . S
C407 C403 1.460 . S
C407 C406 1.477 . S
C407 H427 0.930 . S
C408 N404 1.362 . S
C408 C405 1.431 . S
C408 C418 1.476 . S
H409 C403 0.929 . S
C410 O401 1.250 . S
C410 O402 1.258 . S
O411 Mn396 2.162 . S
O411 C399 1.281 . S
O412 Mn396 2.297 . S
O412 C399 1.236 . S
N413 Mn397 2.282 . S
N413 C414 1.328 . S
N413 C418 1.318 . S
C414 N413 1.328 . S
C414 C415 1.457 . S
C414 H419 0.929 . S
C415 C414 1.457 . S
C415 C416 1.291 . S
C415 H428 0.931 . S
C416 C415 1.291 . S
C416 C417 1.373 . S
C416 H429 0.929 . S
C417 C416 1.373 . S
C417 C418 1.396 . S
C417 C424 1.403 . S
C418 C408 1.476 . S
C418 N413 1.318 . S
C418 C417 1.396 . S
H419 C414 0.929 . S
O420 Mn396 2.385 . S
O420 C398 1.234 . S
O421 Mn396 2.209 . S
O421 Mn397 2.215 . S
O421 C398 1.283 . S
O422 Mn396 2.094 . S
O422 C400 1.240 . S
O423 Mn397 2.117 . S
O423 C400 1.264 . S
C424 C417 1.403 . S
C424 C425 1.399 . S
C424 H430 0.929 . S
C425 C405 1.449 . S
C425 C424 1.399 . S
C425 H431 0.930 . S
H426 C406 0.931 . S
H427 C407 0.930 . S
H428 C415 0.931 . S
H429 C416 0.929 . S
H430 C424 0.929 . S
H431 C425 0.930 . S
Mn432 O437 2.095 . S
Mn432 O447 2.162 1_545 S
Mn432 O448 2.241 1_545 S
Mn432 O456 2.385 . S
Mn432 O457 2.209 . S
Mn432 O458 2.094 . S
Mn433 O438 2.121 . S
Mn433 N440 2.257 . S
Mn433 N449 2.282 . S
Mn433 O457 2.215 . S
Mn433 O459 2.117 . S
C434 O456 1.234 . S
C434 O457 1.283 . S
C435 O447 1.281 . S
C435 O448 1.252 . S
C436 O458 1.240 . S
C436 O459 1.264 . S
O437 Mn432 2.095 . S
O437 C446 1.250 . S
O438 Mn433 2.121 . S
O438 C446 1.258 . S
C439 N440 1.326 . S
C439 C443 1.460 . S
C439 H445 0.929 . S
N440 Mn433 2.257 . S
N440 C439 1.326 . S
N440 C444 1.362 . S
C441 C442 1.258 . S
C441 C444 1.431 . S
C441 C461 1.449 . S
C442 C441 1.258 . S
C442 C443 1.477 . S
C442 H462 0.931 . S
C443 C439 1.460 . S
C443 C442 1.477 . S
C443 H463 0.930 . S
C444 N440 1.362 . S
C444 C441 1.431 . S
C444 C454 1.476 . S
H445 C439 0.929 . S
C446 O437 1.250 . S
C446 O438 1.258 . S
O447 Mn432 2.162 1_565 S
O447 C435 1.281 . S
O448 Mn432 2.241 1_565 S
O448 C435 1.252 . S
N449 Mn433 2.282 . S
N449 C450 1.328 . S
N449 C454 1.318 . S
C450 N449 1.328 . S
C450 C451 1.457 . S
C450 H455 0.929 . S
C451 C450 1.457 . S
C451 C452 1.291 . S
C451 H464 0.931 . S
C452 C451 1.291 . S
C452 C453 1.373 . S
C452 H465 0.929 . S
C453 C452 1.373 . S
C453 C454 1.396 . S
C453 C460 1.403 . S
C454 C444 1.476 . S
C454 N449 1.318 . S
C454 C453 1.396 . S
H455 C450 0.929 . S
O456 Mn432 2.385 . S
O456 C434 1.234 . S
O457 Mn432 2.209 . S
O457 Mn433 2.215 . S
O457 C434 1.283 . S
O458 Mn432 2.094 . S
O458 C436 1.240 . S
O459 Mn433 2.117 . S
O459 C436 1.264 . S
C460 C453 1.403 . S
C460 C461 1.399 . S
C460 H466 0.929 . S
C461 C441 1.449 . S
C461 C460 1.399 . S
C461 H467 0.930 . S
H462 C442 0.931 . S
H463 C443 0.930 . S
H464 C451 0.931 . S
H465 C452 0.929 . S
H466 C460 0.929 . S
H467 C461 0.930 . S
Mn468 O473 2.095 . S
Mn468 O483 2.162 . S
Mn468 O484 2.297 . S
Mn468 O492 2.385 . S
Mn468 O493 2.209 . S
Mn468 O494 2.094 . S
Mn469 O474 2.084 1_655 S
Mn469 N476 2.257 . S
Mn469 N485 2.282 . S
Mn469 O493 2.215 . S
Mn469 O495 2.117 . S
C470 O492 1.234 . S
C470 O493 1.283 . S
C471 O483 1.281 . S
C471 O484 1.236 . S
C472 O494 1.240 . S
C472 O495 1.264 . S
O473 Mn468 2.095 . S
O473 C482 1.250 1_655 S
O474 Mn469 2.084 1_455 S
O474 C482 1.245 . S
C475 N476 1.326 1_455 S
C475 C479 1.460 . S
C475 H481 0.929 . S
N476 Mn469 2.257 . S
N476 C475 1.326 1_655 S
N476 C480 1.362 . S
C477 C478 1.258 . S
C477 C480 1.431 . S
C477 C497 1.449 . S
C478 C477 1.258 . S
C478 C479 1.477 1_655 S
C478 H498 0.931 . S
C479 C475 1.460 . S
C479 C478 1.477 1_455 S
C479 H499 0.930 . S
C480 N476 1.362 . S
C480 C477 1.431 . S
C480 C490 1.476 . S
H481 C475 0.929 . S
C482 O473 1.250 1_455 S
C482 O474 1.245 . S
O483 Mn468 2.162 . S
O483 C471 1.281 . S
O484 Mn468 2.297 . S
O484 C471 1.236 . S
N485 Mn469 2.282 . S
N485 C486 1.328 . S
N485 C490 1.318 . S
C486 N485 1.328 . S
C486 C487 1.457 . S
C486 H491 0.929 . S
C487 C486 1.457 . S
C487 C488 1.291 . S
C487 H500 0.931 . S
C488 C487 1.291 . S
C488 C489 1.373 . S
C488 H501 0.929 . S
C489 C488 1.373 . S
C489 C490 1.396 . S
C489 C496 1.403 . S
C490 C480 1.476 . S
C490 N485 1.318 . S
C490 C489 1.396 . S
H491 C486 0.929 . S
O492 Mn468 2.385 . S
O492 C470 1.234 . S
O493 Mn468 2.209 . S
O493 Mn469 2.215 . S
O493 C470 1.283 . S
O494 Mn468 2.094 . S
O494 C472 1.240 . S
O495 Mn469 2.117 . S
O495 C472 1.264 . S
C496 C489 1.403 . S
C496 C497 1.399 . S
C496 H502 0.929 . S
C497 C477 1.449 . S
C497 C496 1.399 . S
C497 H503 0.930 . S
H498 C478 0.931 . S
H499 C479 0.930 . S
H500 C487 0.931 . S
H501 C488 0.929 . S
H502 C496 0.929 . S
H503 C497 0.930 . S
Mn504 O509 2.095 . S
Mn504 O519 2.162 . S
Mn504 O520 2.297 . S
Mn504 O528 2.385 . S
Mn504 O529 2.209 . S
Mn504 O530 2.094 . S
Mn505 O510 2.121 . S
Mn505 N512 2.257 . S
Mn505 N521 2.282 . S
Mn505 O529 2.215 . S
Mn505 O531 2.117 . S
C506 O528 1.234 . S
C506 O529 1.283 . S
C507 O519 1.281 . S
C507 O520 1.236 . S
C508 O530 1.240 . S
C508 O531 1.264 . S
O509 Mn504 2.095 . S
O509 C518 1.250 . S
O510 Mn505 2.121 . S
O510 C518 1.258 . S
C511 N512 1.326 . S
C511 C515 1.460 . S
C511 H517 0.929 . S
N512 Mn505 2.257 . S
N512 C511 1.326 . S
N512 C516 1.362 . S
C513 C514 1.258 . S
C513 C516 1.431 . S
C513 C533 1.449 . S
C514 C513 1.258 . S
C514 C515 1.477 . S
C514 H534 0.931 . S
C515 C511 1.460 . S
C515 C514 1.477 . S
C515 H535 0.930 . S
C516 N512 1.362 . S
C516 C513 1.431 . S
C516 C526 1.476 . S
H517 C511 0.929 . S
C518 O509 1.250 . S
C518 O510 1.258 . S
O519 Mn504 2.162 . S
O519 C507 1.281 . S
O520 Mn504 2.297 . S
O520 C507 1.236 . S
N521 Mn505 2.282 . S
N521 C522 1.328 . S
N521 C526 1.318 . S
C522 N521 1.328 . S
C522 C523 1.457 . S
C522 H527 0.929 . S
C523 C522 1.457 . S
C523 C524 1.291 . S
C523 H536 0.931 . S
C524 C523 1.291 . S
C524 C525 1.373 . S
C524 H537 0.929 . S
C525 C524 1.373 . S
C525 C526 1.396 . S
C525 C532 1.403 . S
C526 C516 1.476 . S
C526 N521 1.318 . S
C526 C525 1.396 . S
H527 C522 0.929 . S
O528 Mn504 2.385 . S
O528 C506 1.234 . S
O529 Mn504 2.209 . S
O529 Mn505 2.215 . S
O529 C506 1.283 . S
O530 Mn504 2.094 . S
O530 C508 1.240 . S
O531 Mn505 2.117 . S
O531 C508 1.264 . S
C532 C525 1.403 . S
C532 C533 1.399 . S
C532 H538 0.929 . S
C533 C513 1.449 . S
C533 C532 1.399 . S
C533 H539 0.930 . S
H534 C514 0.931 . S
H535 C515 0.930 . S
H536 C523 0.931 . S
H537 C524 0.929 . S
H538 C532 0.929 . S
H539 C533 0.930 . S
Mn540 O545 2.095 . S
Mn540 O555 2.162 . S
Mn540 O556 2.297 . S
Mn540 O564 2.385 . S
Mn540 O565 2.209 . S
Mn540 O566 2.094 . S
Mn541 O546 2.121 . S
Mn541 N548 2.257 . S
Mn541 N557 2.282 . S
Mn541 O565 2.215 . S
Mn541 O567 2.117 . S
C542 O564 1.234 . S
C542 O565 1.283 . S
C543 O555 1.281 . S
C543 O556 1.236 . S
C544 O566 1.240 . S
C544 O567 1.264 . S
O545 Mn540 2.095 . S
O545 C554 1.250 . S
O546 Mn541 2.121 . S
O546 C554 1.258 . S
C547 N548 1.326 . S
C547 C551 1.460 . S
C547 H553 0.929 . S
N548 Mn541 2.257 . S
N548 C547 1.326 . S
N548 C552 1.362 . S
C549 C550 1.258 . S
C549 C552 1.431 . S
C549 C569 1.449 . S
C550 C549 1.258 . S
C550 C551 1.477 . S
C550 H570 0.931 . S
C551 C547 1.460 . S
C551 C550 1.477 . S
C551 H571 0.930 . S
C552 N548 1.362 . S
C552 C549 1.431 . S
C552 C562 1.476 . S
H553 C547 0.929 . S
C554 O545 1.250 . S
C554 O546 1.258 . S
O555 Mn540 2.162 . S
O555 C543 1.281 . S
O556 Mn540 2.297 . S
O556 C543 1.236 . S
N557 Mn541 2.282 . S
N557 C558 1.328 . S
N557 C562 1.318 . S
C558 N557 1.328 . S
C558 C559 1.457 . S
C558 H563 0.929 . S
C559 C558 1.457 . S
C559 C560 1.291 . S
C559 H572 0.931 . S
C560 C559 1.291 . S
C560 C561 1.373 . S
C560 H573 0.929 . S
C561 C560 1.373 . S
C561 C562 1.396 . S
C561 C568 1.403 . S
C562 C552 1.476 . S
C562 N557 1.318 . S
C562 C561 1.396 . S
H563 C558 0.929 . S
O564 Mn540 2.385 . S
O564 C542 1.234 . S
O565 Mn540 2.209 . S
O565 Mn541 2.215 . S
O565 C542 1.283 . S
O566 Mn540 2.094 . S
O566 C544 1.240 . S
O567 Mn541 2.117 . S
O567 C544 1.264 . S
C568 C561 1.403 . S
C568 C569 1.399 . S
C568 H574 0.929 . S
C569 C549 1.449 . S
C569 C568 1.399 . S
C569 H575 0.930 . S
H570 C550 0.931 . S
H571 C551 0.930 . S
H572 C559 0.931 . S
H573 C560 0.929 . S
H574 C568 0.929 . S
H575 C569 0.930 . S
Mn576 O581 2.095 . S
Mn576 O591 2.162 . S
Mn576 O592 2.297 . S
Mn576 O600 2.385 . S
Mn576 O601 2.209 . S
Mn576 O602 2.094 . S
Mn577 O582 2.121 1_545 S
Mn577 N584 2.257 . S
Mn577 N593 2.282 . S
Mn577 O601 2.215 . S
Mn577 O603 2.117 . S
C578 O600 1.234 . S
C578 O601 1.283 . S
C579 O591 1.281 . S
C579 O592 1.236 . S
C580 O602 1.240 . S
C580 O603 1.264 . S
O581 Mn576 2.095 . S
O581 C590 1.250 1_545 S
O582 Mn577 2.121 1_565 S
O582 C590 1.258 . S
C583 N584 1.326 1_565 S
C583 C587 1.460 . S
C583 H589 0.929 . S
N584 Mn577 2.257 . S
N584 C583 1.326 1_545 S
N584 C588 1.362 . S
C585 C586 1.258 . S
C585 C588 1.431 . S
C585 C605 1.449 . S
C586 C585 1.258 . S
C586 C587 1.477 1_545 S
C586 H606 0.931 . S
C587 C583 1.460 . S
C587 C586 1.477 1_565 S
C587 H607 0.930 . S
C588 N584 1.362 . S
C588 C585 1.431 . S
C588 C598 1.476 . S
H589 C583 0.929 . S
C590 O581 1.250 1_565 S
C590 O582 1.258 . S
O591 Mn576 2.162 . S
O591 C579 1.281 . S
O592 Mn576 2.297 . S
O592 C579 1.236 . S
N593 Mn577 2.282 . S
N593 C594 1.328 . S
N593 C598 1.318 . S
C594 N593 1.328 . S
C594 C595 1.457 . S
C594 H599 0.929 . S
C595 C594 1.457 . S
C595 C596 1.291 . S
C595 H608 0.931 . S
C596 C595 1.291 . S
C596 C597 1.373 . S
C596 H609 0.929 . S
C597 C596 1.373 . S
C597 C598 1.396 . S
C597 C604 1.403 . S
C598 C588 1.476 . S
C598 N593 1.318 . S
C598 C597 1.396 . S
H599 C594 0.929 . S
O600 Mn576 2.385 . S
O600 C578 1.234 . S
O601 Mn576 2.209 . S
O601 Mn577 2.215 . S
O601 C578 1.283 . S
O602 Mn576 2.094 . S
O602 C580 1.240 . S
O603 Mn577 2.117 . S
O603 C580 1.264 . S
C604 C597 1.403 . S
C604 C605 1.399 . S
C604 H610 0.929 . S
C605 C585 1.449 . S
C605 C604 1.399 . S
C605 H611 0.930 . S
H606 C586 0.931 . S
H607 C587 0.930 . S
H608 C595 0.931 . S
H609 C596 0.929 . S
H610 C604 0.929 . S
H611 C605 0.930 . S
Mn612 O617 2.095 . S
Mn612 O627 2.162 1_655 S
Mn612 O628 2.297 1_655 S
Mn612 O636 2.385 . S
Mn612 O637 2.209 . S
Mn612 O638 2.094 . S
Mn613 O618 2.121 . S
Mn613 N620 2.257 . S
Mn613 N629 2.282 . S
Mn613 O637 2.215 . S
Mn613 O639 2.117 . S
C614 O636 1.234 . S
C614 O637 1.283 . S
C615 O627 1.281 . S
C615 O628 1.236 . S
C616 O638 1.240 . S
C616 O639 1.264 . S
O617 Mn612 2.095 . S
O617 C626 1.250 . S
O618 Mn613 2.121 . S
O618 C626 1.258 . S
C619 N620 1.326 . S
C619 C623 1.460 . S
C619 H625 0.929 . S
N620 Mn613 2.257 . S
N620 C619 1.326 . S
N620 C624 1.362 . S
C621 C622 1.258 . S
C621 C624 1.431 . S
C621 C641 1.449 . S
C622 C621 1.258 . S
C622 C623 1.477 . S
C622 H642 0.931 . S
C623 C619 1.460 . S
C623 C622 1.477 . S
C623 H643 0.930 . S
C624 N620 1.362 . S
C624 C621 1.431 . S
C624 C634 1.476 . S
H625 C619 0.929 . S
C626 O617 1.250 . S
C626 O618 1.258 . S
O627 Mn612 2.162 1_455 S
O627 C615 1.281 . S
O628 Mn612 2.297 1_455 S
O628 C615 1.236 . S
N629 Mn613 2.282 . S
N629 C630 1.328 . S
N629 C634 1.318 . S
C630 N629 1.328 . S
C630 C631 1.457 . S
C630 H635 0.929 . S
C631 C630 1.457 . S
C631 C632 1.291 . S
C631 H644 0.931 . S
C632 C631 1.291 . S
C632 C633 1.373 . S
C632 H645 0.929 . S
C633 C632 1.373 . S
C633 C634 1.396 . S
C633 C640 1.403 . S
C634 C624 1.476 . S
C634 N629 1.318 . S
C634 C633 1.396 . S
H635 C630 0.929 . S
O636 Mn612 2.385 . S
O636 C614 1.234 . S
O637 Mn612 2.209 . S
O637 Mn613 2.215 . S
O637 C614 1.283 . S
O638 Mn612 2.094 . S
O638 C616 1.240 . S
O639 Mn613 2.117 . S
O639 C616 1.264 . S
C640 C633 1.403 . S
C640 C641 1.399 . S
C640 H646 0.929 . S
C641 C621 1.449 . S
C641 C640 1.399 . S
C641 H647 0.930 . S
H642 C622 0.931 . S
H643 C623 0.930 . S
H644 C631 0.931 . S
H645 C632 0.929 . S
H646 C640 0.929 . S
H647 C641 0.930 . S
H648 C656 0.930 . S
H649 C659 0.930 . S
H650 C661 0.930 . S
H651 C662 0.970 . S
H652 C662 0.970 . S
H653 C664 0.930 . S
H654 C666 0.930 . S
H655 C668 0.930 . S
C656 H648 0.930 . S
C656 C657 1.382 . S
C656 C658 1.426 . S
C657 C656 1.382 . S
C657 C661 1.389 . S
C658 C656 1.426 . S
C658 C659 1.375 . S
C658 C662 1.532 . S
C659 H649 0.930 . S
C659 C658 1.375 . S
C659 C660 1.416 . S
C660 C659 1.416 . S
C660 C661 1.371 . S
C661 H650 0.930 . S
C661 C657 1.389 . S
C661 C660 1.371 . S
C662 H651 0.970 . S
C662 H652 0.970 . S
C662 C658 1.532 . S
C662 C663 1.499 . S
C663 C662 1.499 . S
C663 C664 1.370 . S
C663 C668 1.415 . S
C664 H653 0.930 . S
C664 C663 1.370 . S
C664 C665 1.407 . S
C665 C664 1.407 . S
C665 C666 1.365 . S
C666 H654 0.930 . S
C666 C665 1.365 . S
C666 C667 1.393 . S
C667 C666 1.393 . S
C667 C668 1.387 . S
C668 H655 0.930 . S
C668 C663 1.415 . S
C668 C667 1.387 . S
H669 C677 0.930 . S
H670 C680 0.930 . S
H671 C682 0.930 . S
H672 C683 0.970 . S
H673 C683 0.970 . S
H674 C685 0.930 . S
H675 C687 0.930 . S
H676 C689 0.930 . S
C677 H669 0.930 . S
C677 C678 1.382 . S
C677 C679 1.426 . S
C678 C677 1.382 . S
C678 C682 1.389 . S
C679 C677 1.426 . S
C679 C680 1.375 . S
C679 C683 1.532 . S
C680 H670 0.930 . S
C680 C679 1.375 . S
C680 C681 1.416 . S
C681 C680 1.416 . S
C681 C682 1.371 . S
C682 H671 0.930 . S
C682 C678 1.389 . S
C682 C681 1.371 . S
C683 H672 0.970 . S
C683 H673 0.970 . S
C683 C679 1.532 . S
C683 C684 1.499 . S
C684 C683 1.499 . S
C684 C685 1.370 . S
C684 C689 1.415 . S
C685 H674 0.930 . S
C685 C684 1.370 . S
C685 C686 1.407 . S
C686 C685 1.407 . S
C686 C687 1.365 . S
C687 H675 0.930 . S
C687 C686 1.365 . S
C687 C688 1.393 . S
C688 C687 1.393 . S
C688 C689 1.387 . S
C689 H676 0.930 . S
C689 C684 1.415 . S
C689 C688 1.387 . S
H690 C698 0.930 . S
H691 C701 0.930 . S
H692 C703 0.930 . S
H693 C704 0.970 . S
H694 C704 0.970 . S
H695 C706 0.930 . S
H696 C708 0.930 . S
H697 C710 0.930 . S
C698 H690 0.930 . S
C698 C699 1.382 . S
C698 C700 1.426 . S
C699 C698 1.382 . S
C699 C703 1.389 . S
C700 C698 1.426 . S
C700 C701 1.375 . S
C700 C704 1.532 . S
C701 H691 0.930 . S
C701 C700 1.375 . S
C701 C702 1.416 . S
C702 C701 1.416 . S
C702 C703 1.371 . S
C703 H692 0.930 . S
C703 C699 1.389 . S
C703 C702 1.371 . S
C704 H693 0.970 . S
C704 H694 0.970 . S
C704 C700 1.532 . S
C704 C705 1.499 . S
C705 C704 1.499 . S
C705 C706 1.370 . S
C705 C710 1.415 . S
C706 H695 0.930 . S
C706 C705 1.370 . S
C706 C707 1.407 . S
C707 C706 1.407 . S
C707 C708 1.365 . S
C708 H696 0.930 . S
C708 C707 1.365 . S
C708 C709 1.393 . S
C709 C708 1.393 . S
C709 C710 1.387 . S
C710 H697 0.930 . S
C710 C705 1.415 . S
C710 C709 1.387 . S
H711 C719 0.930 . S
H712 C722 0.930 . S
H713 C724 0.930 . S
H714 C725 0.970 . S
H715 C725 0.970 . S
H716 C727 0.930 . S
H717 C729 0.930 . S
H718 C731 0.930 . S
C719 H711 0.930 . S
C719 C720 1.382 . S
C719 C721 1.426 . S
C720 C719 1.382 . S
C720 C724 1.389 . S
C721 C719 1.426 . S
C721 C722 1.375 . S
C721 C725 1.532 . S
C722 H712 0.930 . S
C722 C721 1.375 . S
C722 C723 1.416 . S
C723 C722 1.416 . S
C723 C724 1.371 . S
C724 H713 0.930 . S
C724 C720 1.389 . S
C724 C723 1.371 . S
C725 H714 0.970 . S
C725 H715 0.970 . S
C725 C721 1.532 . S
C725 C726 1.499 . S
C726 C725 1.499 . S
C726 C727 1.370 . S
C726 C731 1.415 . S
C727 H716 0.930 . S
C727 C726 1.370 . S
C727 C728 1.407 . S
C728 C727 1.407 . S
C728 C729 1.365 . S
C729 H717 0.930 . S
C729 C728 1.365 . S
C729 C730 1.393 . S
C730 C729 1.393 . S
C730 C731 1.387 . S
C731 H718 0.930 . S
C731 C726 1.415 . S
C731 C730 1.387 . S
H732 C740 0.930 . S
H733 C743 0.930 . S
H734 C745 0.930 . S
H735 C746 0.970 . S
H736 C746 0.970 . S
H737 C748 0.930 . S
H738 C750 0.930 . S
H739 C752 0.930 . S
C740 H732 0.930 . S
C740 C741 1.382 . S
C740 C742 1.426 . S
C741 C740 1.382 . S
C741 C745 1.389 . S
C742 C740 1.426 . S
C742 C743 1.375 . S
C742 C746 1.532 . S
C743 H733 0.930 . S
C743 C742 1.375 . S
C743 C744 1.416 . S
C744 C743 1.416 . S
C744 C745 1.371 . S
C745 H734 0.930 . S
C745 C741 1.389 . S
C745 C744 1.371 . S
C746 H735 0.970 . S
C746 H736 0.970 . S
C746 C742 1.532 . S
C746 C747 1.499 . S
C747 C746 1.499 . S
C747 C748 1.370 . S
C747 C752 1.415 . S
C748 H737 0.930 . S
C748 C747 1.370 . S
C748 C749 1.407 . S
C749 C748 1.407 . S
C749 C750 1.365 . S
C750 H738 0.930 . S
C750 C749 1.365 . S
C750 C751 1.393 . S
C751 C750 1.393 . S
C751 C752 1.387 . S
C752 H739 0.930 . S
C752 C747 1.415 . S
C752 C751 1.387 . S
H753 C761 0.930 . S
H754 C764 0.930 . S
H755 C766 0.930 . S
H756 C767 0.970 . S
H757 C767 0.970 . S
H758 C769 0.930 . S
H759 C771 0.930 . S
H760 C773 0.930 . S
C761 H753 0.930 . S
C761 C762 1.382 . S
C761 C763 1.426 . S
C762 C761 1.382 . S
C762 C766 1.389 . S
C763 C761 1.426 . S
C763 C764 1.375 . S
C763 C767 1.532 . S
C764 H754 0.930 . S
C764 C763 1.375 . S
C764 C765 1.416 . S
C765 C764 1.416 . S
C765 C766 1.371 . S
C766 H755 0.930 . S
C766 C762 1.389 . S
C766 C765 1.371 . S
C767 H756 0.970 . S
C767 H757 0.970 . S
C767 C763 1.532 . S
C767 C768 1.499 . S
C768 C767 1.499 . S
C768 C769 1.370 . S
C768 C773 1.415 . S
C769 H758 0.930 . S
C769 C768 1.370 . S
C769 C770 1.407 . S
C770 C769 1.407 . S
C770 C771 1.365 . S
C771 H759 0.930 . S
C771 C770 1.365 . S
C771 C772 1.393 . S
C772 C771 1.393 . S
C772 C773 1.387 . S
C773 H760 0.930 . S
C773 C768 1.415 . S
C773 C772 1.387 . S
H774 C782 0.930 . S
H775 C785 0.930 . S
H776 C787 0.930 . S
H777 C788 0.970 . S
H778 C788 0.970 . S
H779 C790 0.930 . S
H780 C792 0.930 . S
H781 C794 0.930 . S
C782 H774 0.930 . S
C782 C783 1.382 . S
C782 C784 1.426 . S
C783 C782 1.382 . S
C783 C787 1.389 . S
C784 C782 1.426 . S
C784 C785 1.375 . S
C784 C788 1.532 . S
C785 H775 0.930 . S
C785 C784 1.375 . S
C785 C786 1.416 . S
C786 C785 1.416 . S
C786 C787 1.371 . S
C787 H776 0.930 . S
C787 C783 1.389 . S
C787 C786 1.371 . S
C788 H777 0.970 . S
C788 H778 0.970 . S
C788 C784 1.532 . S
C788 C789 1.499 . S
C789 C788 1.499 . S
C789 C790 1.370 . S
C789 C794 1.415 . S
C790 H779 0.930 . S
C790 C789 1.370 . S
C790 C791 1.407 . S
C791 C790 1.407 . S
C791 C792 1.365 . S
C792 H780 0.930 . S
C792 C791 1.365 . S
C792 C793 1.393 . S
C793 C792 1.393 . S
C793 C794 1.387 . S
C794 H781 0.930 . S
C794 C789 1.415 . S
C794 C793 1.387 . S
H795 C803 0.930 . S
H796 C806 0.930 . S
H797 C808 0.930 . S
H798 C809 0.970 . S
H799 C809 0.970 . S
H800 C811 0.930 . S
H801 C813 0.930 . S
H802 C815 0.930 . S
C803 H795 0.930 . S
C803 C804 1.382 . S
C803 C805 1.426 . S
C804 C803 1.382 . S
C804 C808 1.389 . S
C805 C803 1.426 . S
C805 C806 1.375 . S
C805 C809 1.532 . S
C806 H796 0.930 . S
C806 C805 1.375 . S
C806 C807 1.416 . S
C807 C806 1.416 . S
C807 C808 1.371 . S
C808 H797 0.930 . S
C808 C804 1.389 . S
C808 C807 1.371 . S
C809 H798 0.970 . S
C809 H799 0.970 . S
C809 C805 1.532 . S
C809 C810 1.499 . S
C810 C809 1.499 . S
C810 C811 1.370 . S
C810 C815 1.415 . S
C811 H800 0.930 . S
C811 C810 1.370 . S
C811 C812 1.407 . S
C812 C811 1.407 . S
C812 C813 1.365 . S
C813 H801 0.930 . S
C813 C812 1.365 . S
C813 C814 1.393 . S
C814 C813 1.393 . S
C814 C815 1.387 . S
C815 H802 0.930 . S
C815 C810 1.415 . S
C815 C814 1.387 . S
H816 C824 0.930 . S
H817 C827 0.930 . S
H818 C829 0.930 . S
H819 C830 0.970 . S
H820 C830 0.970 . S
H821 C832 0.930 . S
H822 C834 0.930 . S
H823 C836 0.930 . S
C824 H816 0.930 . S
C824 C825 1.382 . S
C824 C826 1.426 . S
C825 C824 1.382 . S
C825 C829 1.389 . S
C826 C824 1.426 . S
C826 C827 1.375 . S
C826 C830 1.532 . S
C827 H817 0.930 . S
C827 C826 1.375 . S
C827 C828 1.416 . S
C828 C827 1.416 . S
C828 C829 1.371 . S
C829 H818 0.930 . S
C829 C825 1.389 . S
C829 C828 1.371 . S
C830 H819 0.970 . S
C830 H820 0.970 . S
C830 C826 1.532 . S
C830 C831 1.499 . S
C831 C830 1.499 . S
C831 C832 1.370 . S
C831 C836 1.415 . S
C832 H821 0.930 . S
C832 C831 1.370 . S
C832 C833 1.407 . S
C833 C832 1.407 . S
C833 C834 1.365 . S
C834 H822 0.930 . S
C834 C833 1.365 . S
C834 C835 1.393 . S
C835 C834 1.393 . S
C835 C836 1.387 . S
C836 H823 0.930 . S
C836 C831 1.415 . S
C836 C835 1.387 . S
H837 C845 0.930 . S
H838 C848 0.930 . S
H839 C850 0.930 . S
H840 C851 0.970 . S
H841 C851 0.970 . S
H842 C853 0.930 . S
H843 C855 0.930 . S
H844 C857 0.930 . S
C845 H837 0.930 . S
C845 C846 1.382 . S
C845 C847 1.426 . S
C846 C845 1.382 . S
C846 C850 1.389 1_455 S
C847 C845 1.426 . S
C847 C848 1.375 . S
C847 C851 1.532 . S
C848 H838 0.930 . S
C848 C847 1.375 . S
C848 C849 1.416 . S
C849 C848 1.416 . S
C849 C850 1.371 1_455 S
C850 H839 0.930 . S
C850 C846 1.389 1_655 S
C850 C849 1.371 1_655 S
C851 H840 0.970 . S
C851 H841 0.970 . S
C851 C847 1.532 . S
C851 C852 1.499 . S
C852 C851 1.499 . S
C852 C853 1.370 . S
C852 C857 1.415 . S
C853 H842 0.930 . S
C853 C852 1.370 . S
C853 C854 1.410 . S
C854 C853 1.410 . S
C854 C855 1.368 1_455 S
C855 H843 0.930 . S
C855 C854 1.368 1_655 S
C855 C856 1.393 1_655 S
C856 C855 1.393 1_455 S
C856 C857 1.387 . S
C857 H844 0.930 . S
C857 C852 1.415 . S
C857 C856 1.387 . S
H858 C866 0.930 . S
H859 C869 0.930 . S
H860 C871 0.930 . S
H861 C872 0.970 . S
H862 C872 0.970 . S
H863 C874 0.930 . S
H864 C876 0.930 . S
H865 C878 0.930 . S
C866 H858 0.930 . S
C866 C867 1.382 . S
C866 C868 1.426 . S
C867 C866 1.382 . S
C867 C871 1.389 . S
C868 C866 1.426 . S
C868 C869 1.375 . S
C868 C872 1.532 . S
C869 H859 0.930 . S
C869 C868 1.375 . S
C869 C870 1.416 . S
C870 C869 1.416 . S
C870 C871 1.371 . S
C871 H860 0.930 . S
C871 C867 1.389 . S
C871 C870 1.371 . S
C872 H861 0.970 . S
C872 H862 0.970 . S
C872 C868 1.532 . S
C872 C873 1.499 . S
C873 C872 1.499 . S
C873 C874 1.370 . S
C873 C878 1.415 . S
C874 H863 0.930 . S
C874 C873 1.370 . S
C874 C875 1.407 . S
C875 C874 1.407 . S
C875 C876 1.365 . S
C876 H864 0.930 . S
C876 C875 1.365 . S
C876 C877 1.393 . S
C877 C876 1.393 . S
C877 C878 1.387 . S
C878 H865 0.930 . S
C878 C873 1.415 . S
C878 C877 1.387 . S
H879 C887 0.930 . S
H880 C890 0.930 . S
H881 C892 0.930 . S
H882 C893 0.970 . S
H883 C893 0.970 . S
H884 C895 0.930 . S
H885 C897 0.930 . S
H886 C899 0.930 . S
C887 H879 0.930 . S
C887 C888 1.382 . S
C887 C889 1.426 . S
C888 C887 1.382 . S
C888 C892 1.389 1_565 S
C889 C887 1.426 . S
C889 C890 1.375 . S
C889 C893 1.532 . S
C890 H880 0.930 . S
C890 C889 1.375 . S
C890 C891 1.416 . S
C891 C890 1.416 . S
C891 C892 1.371 1_565 S
C892 H881 0.930 . S
C892 C888 1.389 1_545 S
C892 C891 1.371 1_545 S
C893 H882 0.970 . S
C893 H883 0.970 . S
C893 C889 1.532 . S
C893 C894 1.499 . S
C894 C893 1.499 . S
C894 C895 1.370 . S
C894 C899 1.415 . S
C895 H884 0.930 . S
C895 C894 1.370 . S
C895 C896 1.448 . S
C896 C895 1.448 . S
C896 C897 1.348 1_565 S
C897 H885 0.930 . S
C897 C896 1.348 1_545 S
C897 C898 1.393 1_545 S
C898 C897 1.393 1_565 S
C898 C899 1.387 . S
C899 H886 0.930 . S
C899 C894 1.415 . S
C899 C898 1.387 . S
H900 C908 0.930 . S
H901 C911 0.930 . S
H902 C913 0.930 . S
H903 C914 0.970 . S
H904 C914 0.970 . S
H905 C916 0.930 . S
H906 C918 0.930 . S
H907 C920 0.930 . S
C908 H900 0.930 . S
C908 C909 1.382 . S
C908 C910 1.426 . S
C909 C908 1.382 . S
C909 C913 1.389 1_565 S
C910 C908 1.426 . S
C910 C911 1.375 . S
C910 C914 1.532 . S
C911 H901 0.930 . S
C911 C910 1.375 . S
C911 C912 1.416 . S
C912 C911 1.416 . S
C912 C913 1.371 1_565 S
C913 H902 0.930 . S
C913 C909 1.389 1_545 S
C913 C912 1.371 1_545 S
C914 H903 0.970 . S
C914 H904 0.970 . S
C914 C910 1.532 . S
C914 C915 1.499 . S
C915 C914 1.499 . S
C915 C916 1.370 . S
C915 C920 1.415 . S
C916 H905 0.930 . S
C916 C915 1.370 . S
C916 C917 1.407 . S
C917 C916 1.407 . S
C917 C918 1.365 1_565 S
C918 H906 0.930 . S
C918 C917 1.365 1_545 S
C918 C919 1.393 1_545 S
C919 C918 1.393 1_565 S
C919 C920 1.387 . S
C920 H907 0.930 . S
C920 C915 1.415 . S
C920 C919 1.387 . S
H921 C929 0.930 . S
H922 C932 0.930 . S
H923 C934 0.930 . S
H924 C935 0.970 . S
H925 C935 0.970 . S
H926 C937 0.930 . S
H927 C939 0.930 . S
H928 C941 0.930 . S
C929 H921 0.930 . S
C929 C930 1.382 . S
C929 C931 1.426 . S
C930 C929 1.382 . S
C930 C934 1.389 1_455 S
C931 C929 1.426 . S
C931 C932 1.375 . S
C931 C935 1.532 . S
C932 H922 0.930 . S
C932 C931 1.375 . S
C932 C933 1.421 . S
C933 C932 1.421 . S
C933 C934 1.378 1_455 S
C934 H923 0.930 . S
C934 C930 1.389 1_655 S
C934 C933 1.378 1_655 S
C935 H924 0.970 . S
C935 H925 0.970 . S
C935 C931 1.532 . S
C935 C936 1.499 . S
C936 C935 1.499 . S
C936 C937 1.370 . S
C936 C941 1.415 . S
C937 H926 0.930 . S
C937 C936 1.370 . S
C937 C938 1.407 . S
C938 C937 1.407 . S
C938 C939 1.365 1_455 S
C939 H927 0.930 . S
C939 C938 1.365 1_655 S
C939 C940 1.393 1_655 S
C940 C939 1.393 1_455 S
C940 C941 1.387 . S
C941 H928 0.930 . S
C941 C936 1.415 . S
C941 C940 1.387 . S
H942 C950 0.930 . S
H943 C953 0.930 . S
H944 C955 0.930 . S
H945 C956 0.970 . S
H946 C956 0.970 . S
H947 C958 0.930 . S
H948 C960 0.930 . S
H949 C962 0.930 . S
C950 H942 0.930 . S
C950 C951 1.382 . S
C950 C952 1.426 . S
C951 C950 1.382 . S
C951 C955 1.389 . S
C952 C950 1.426 . S
C952 C953 1.375 . S
C952 C956 1.532 . S
C953 H943 0.930 . S
C953 C952 1.375 . S
C953 C954 1.416 . S
C954 C953 1.416 . S
C954 C955 1.371 . S
C955 H944 0.930 . S
C955 C951 1.389 . S
C955 C954 1.371 . S
C956 H945 0.970 . S
C956 H946 0.970 . S
C956 C952 1.532 . S
C956 C957 1.499 . S
C957 C956 1.499 . S
C957 C958 1.370 . S
C957 C962 1.415 . S
C958 H947 0.930 . S
C958 C957 1.370 . S
C958 C959 1.407 . S
C959 C958 1.407 . S
C959 C960 1.365 . S
C960 H948 0.930 . S
C960 C959 1.365 . S
C960 C961 1.393 . S
C961 C960 1.393 . S
C961 C962 1.387 . S
C962 H949 0.930 . S
C962 C957 1.415 . S
C962 C961 1.387 . S
H963 C971 0.930 . S
H964 C974 0.930 . S
H965 C976 0.930 . S
H966 C977 0.970 . S
H967 C977 0.970 . S
H968 C979 0.930 . S
H969 C981 0.930 . S
H970 C983 0.930 . S
C971 H963 0.930 . S
C971 C972 1.382 . S
C971 C973 1.426 . S
C972 C971 1.382 . S
C972 C976 1.389 . S
C973 C971 1.426 . S
C973 C974 1.375 . S
C973 C977 1.532 . S
C974 H964 0.930 . S
C974 C973 1.375 . S
C974 C975 1.416 . S
C975 C974 1.416 . S
C975 C976 1.371 . S
C976 H965 0.930 . S
C976 C972 1.389 . S
C976 C975 1.371 . S
C977 H966 0.970 . S
C977 H967 0.970 . S
C977 C973 1.532 . S
C977 C978 1.499 . S
C978 C977 1.499 . S
C978 C979 1.370 . S
C978 C983 1.415 . S
C979 H968 0.930 . S
C979 C978 1.370 . S
C979 C980 1.407 . S
C980 C979 1.407 . S
C980 C981 1.365 . S
C981 H969 0.930 . S
C981 C980 1.365 . S
C981 C982 1.393 . S
C982 C981 1.393 . S
C982 C983 1.387 . S
C983 H970 0.930 . S
C983 C978 1.415 . S
C983 C982 1.387 . S
H984 C992 0.930 . S
H985 C995 0.930 . S
H986 C997 0.930 . S
H987 C998 0.970 . S
H988 C998 0.970 . S
H989 C1000 0.930 . S
H990 C1002 0.930 . S
H991 C1004 0.930 . S
C992 H984 0.930 . S
C992 C993 1.382 . S
C992 C994 1.426 . S
C993 C992 1.382 . S
C993 C997 1.389 . S
C994 C992 1.426 . S
C994 C995 1.375 . S
C994 C998 1.532 . S
C995 H985 0.930 . S
C995 C994 1.375 . S
C995 C996 1.416 . S
C996 C995 1.416 . S
C996 C997 1.371 . S
C997 H986 0.930 . S
C997 C993 1.389 . S
C997 C996 1.371 . S
C998 H987 0.970 . S
C998 H988 0.970 . S
C998 C994 1.532 . S
C998 C999 1.499 . S
C999 C998 1.499 . S
C999 C1000 1.370 . S
C999 C1004 1.415 . S
C1000 H989 0.930 . S
C1000 C999 1.370 . S
C1000 C1001 1.407 . S
C1001 C1000 1.407 . S
C1001 C1002 1.365 . S
C1002 H990 0.930 . S
C1002 C1001 1.365 . S
C1002 C1003 1.393 . S
C1003 C1002 1.393 . S
C1003 C1004 1.387 . S
C1004 H991 0.930 . S
C1004 C999 1.415 . S
C1004 C1003 1.387 . S
H1005 C1013 0.930 . S
H1006 C1016 0.930 . S
H1007 C1018 0.930 . S
H1008 C1019 0.970 . S
H1009 C1019 0.970 . S
H1010 C1021 0.930 . S
H1011 C1023 0.930 . S
H1012 C1025 0.930 . S
C1013 H1005 0.930 . S
C1013 C1014 1.382 . S
C1013 C1015 1.426 . S
C1014 C1013 1.382 . S
C1014 C1018 1.389 . S
C1015 C1013 1.426 . S
C1015 C1016 1.375 . S
C1015 C1019 1.532 . S
C1016 H1006 0.930 . S
C1016 C1015 1.375 . S
C1016 C1017 1.416 . S
C1017 C1016 1.416 . S
C1017 C1018 1.371 . S
C1018 H1007 0.930 . S
C1018 C1014 1.389 . S
C1018 C1017 1.371 . S
C1019 H1008 0.970 . S
C1019 H1009 0.970 . S
C1019 C1015 1.532 . S
C1019 C1020 1.499 . S
C1020 C1019 1.499 . S
C1020 C1021 1.370 . S
C1020 C1025 1.415 . S
C1021 H1010 0.930 . S
C1021 C1020 1.370 . S
C1021 C1022 1.407 . S
C1022 C1021 1.407 . S
C1022 C1023 1.365 . S
C1023 H1011 0.930 . S
C1023 C1022 1.365 . S
C1023 C1024 1.393 . S
C1024 C1023 1.393 . S
C1024 C1025 1.387 . S
C1025 H1012 0.930 . S
C1025 C1020 1.415 . S
C1025 C1024 1.387 . S
H1026 C1034 0.929 . S
H1027 C1036 0.930 . S
H1028 C1038 0.930 . S
H1029 C1041 0.929 . S
H1030 C1044 0.930 . S
H1031 C1046 0.959 . S
H1032 C1046 1.000 . S
H1033 C1046 0.945 1_655 S
C1034 H1026 0.929 . S
C1034 C1035 1.352 1_455 S
C1034 C1036 1.384 . S
C1035 C1034 1.352 1_655 S
C1035 C1041 1.453 . S
C1036 H1027 0.930 . S
C1036 C1034 1.384 . S
C1036 C1037 1.324 1_455 S
C1037 C1036 1.324 1_655 S
C1037 C1038 1.422 . S
C1037 C1042 1.481 . S
C1038 H1028 0.930 . S
C1038 C1037 1.422 . S
C1038 C1041 1.386 . S
H1039 C1055 0.930 . S
H1040 C1056 0.931 . S
C1041 H1029 0.929 . S
C1041 C1035 1.453 . S
C1041 C1038 1.386 . S
C1042 C1037 1.481 . S
C1042 C1044 1.439 . S
C1042 C1045 1.401 . S
H1043 C1049 0.930 . S
C1044 H1030 0.930 . S
C1044 C1042 1.439 . S
C1044 C1047 1.403 . S
C1045 C1042 1.401 . S
C1045 C1046 1.474 1_655 S
C1045 C1049 1.430 . S
C1046 H1031 0.959 . S
C1046 H1032 1.000 . S
C1046 H1033 0.945 1_455 S
C1046 C1045 1.474 1_455 S
C1047 C1044 1.403 . S
C1047 C1048 1.392 . S
C1047 C1051 1.495 . S
C1048 C1047 1.392 . S
C1048 C1049 1.385 . S
C1048 C1050 1.478 . S
C1049 H1043 0.930 . S
C1049 C1045 1.430 . S
C1049 C1048 1.385 . S
C1050 C1048 1.478 . S
C1050 C1052 1.381 1_655 S
C1050 C1056 1.383 . S
C1051 C1047 1.495 . S
C1051 H1057 0.959 . S
C1051 H1058 0.961 . S
C1051 H1059 0.960 1_655 S
C1052 C1050 1.381 1_455 S
C1052 C1053 1.394 . S
C1052 H1060 0.930 . S
C1053 C1052 1.394 . S
C1053 C1054 1.383 1_455 S
C1053 H1061 0.929 . S
C1054 C1053 1.383 1_655 S
C1054 C1055 1.377 . S
C1055 H1039 0.930 . S
C1055 C1054 1.377 . S
C1055 C1056 1.379 . S
C1056 H1040 0.931 . S
C1056 C1050 1.383 . S
C1056 C1055 1.379 . S
H1057 C1051 0.959 . S
H1058 C1051 0.961 . S
H1059 C1051 0.960 1_455 S
H1060 C1052 0.930 . S
H1061 C1053 0.929 . S
H1062 C1070 0.929 . S
H1063 C1072 0.930 . S
H1064 C1074 0.930 . S
H1065 C1077 0.929 . S
H1066 C1080 0.930 . S
H1067 C1082 0.960 . S
H1068 C1082 0.960 . S
H1069 C1082 0.960 . S
C1070 H1062 0.929 . S
C1070 C1071 1.377 . S
C1070 C1072 1.384 . S
C1071 C1070 1.377 . S
C1071 C1077 1.390 . S
C1072 H1063 0.930 . S
C1072 C1070 1.384 . S
C1072 C1073 1.372 . S
C1073 C1072 1.372 . S
C1073 C1074 1.400 . S
C1073 C1078 1.490 . S
C1074 H1064 0.930 . S
C1074 C1073 1.400 . S
C1074 C1077 1.386 . S
H1075 C1091 0.930 . S
H1076 C1092 0.931 . S
C1077 H1065 0.929 . S
C1077 C1071 1.390 . S
C1077 C1074 1.386 . S
C1078 C1073 1.490 . S
C1078 C1080 1.395 . S
C1078 C1081 1.403 . S
H1079 C1085 0.930 . S
C1080 H1066 0.930 . S
C1080 C1078 1.395 . S
C1080 C1083 1.403 . S
C1081 C1078 1.403 . S
C1081 C1082 1.524 . S
C1081 C1085 1.400 . S
C1082 H1067 0.960 . S
C1082 H1068 0.960 . S
C1082 H1069 0.960 . S
C1082 C1081 1.524 . S
C1083 C1080 1.403 . S
C1083 C1084 1.392 . S
C1083 C1087 1.495 . S
C1084 C1083 1.392 . S
C1084 C1085 1.385 . S
C1084 C1086 1.478 . S
C1085 H1079 0.930 . S
C1085 C1081 1.400 . S
C1085 C1084 1.385 . S
C1086 C1084 1.478 . S
C1086 C1088 1.381 . S
C1086 C1092 1.383 . S
C1087 C1083 1.495 . S
C1087 H1093 0.959 . S
C1087 H1094 0.961 . S
C1087 H1095 0.960 . S
C1088 C1086 1.381 . S
C1088 C1089 1.394 . S
C1088 H1096 0.930 . S
C1089 C1088 1.394 . S
C1089 C1090 1.383 . S
C1089 H1097 0.929 . S
C1090 C1089 1.383 . S
C1090 C1091 1.377 . S
C1091 H1075 0.930 . S
C1091 C1090 1.377 . S
C1091 C1092 1.379 . S
C1092 H1076 0.931 . S
C1092 C1086 1.383 . S
C1092 C1091 1.379 . S
H1093 C1087 0.959 . S
H1094 C1087 0.961 . S
H1095 C1087 0.960 . S
H1096 C1088 0.930 . S
H1097 C1089 0.929 . S
H1098 C1106 0.928 . S
H1099 C1108 0.933 . S
H1100 C1110 0.930 . S
H1101 C1113 0.929 . S
H1102 C1116 0.930 . S
H1103 C1118 0.960 . S
H1104 C1118 0.960 . S
H1105 C1118 0.960 . S
C1106 H1098 0.928 . S
C1106 C1107 1.377 1_565 S
C1106 C1108 1.376 . S
C1107 C1106 1.377 1_545 S
C1107 C1113 1.390 . S
C1108 H1099 0.933 . S
C1108 C1106 1.376 . S
C1108 C1109 1.379 1_565 S
C1109 C1108 1.379 1_545 S
C1109 C1110 1.400 . S
C1109 C1114 1.490 . S
C1110 H1100 0.930 . S
C1110 C1109 1.400 . S
C1110 C1113 1.386 . S
H1111 C1127 0.930 . S
H1112 C1128 0.931 . S
C1113 H1101 0.929 . S
C1113 C1107 1.390 . S
C1113 C1110 1.386 . S
C1114 C1109 1.490 . S
C1114 C1116 1.395 1_545 S
C1114 C1117 1.403 . S
H1115 C1121 0.930 . S
C1116 H1102 0.930 . S
C1116 C1114 1.395 1_565 S
C1116 C1119 1.403 . S
C1117 C1114 1.403 . S
C1117 C1118 1.524 . S
C1117 C1121 1.400 . S
C1118 H1103 0.960 . S
C1118 H1104 0.960 . S
C1118 H1105 0.960 . S
C1118 C1117 1.524 . S
C1119 C1116 1.403 . S
C1119 C1120 1.392 . S
C1119 C1123 1.495 . S
C1120 C1119 1.392 . S
C1120 C1121 1.386 1_565 S
C1120 C1122 1.471 . S
C1121 H1115 0.930 . S
C1121 C1117 1.400 . S
C1121 C1120 1.386 1_545 S
C1122 C1120 1.471 . S
C1122 C1124 1.381 . S
C1122 C1128 1.388 1_565 S
C1123 C1119 1.495 . S
C1123 H1129 0.959 . S
C1123 H1130 0.961 . S
C1123 H1131 0.960 . S
C1124 C1122 1.381 . S
C1124 C1125 1.384 . S
C1124 H1132 0.930 . S
C1125 C1124 1.384 . S
C1125 C1126 1.395 1_565 S
C1125 H1133 0.929 . S
C1126 C1125 1.395 1_545 S
C1126 C1127 1.377 . S
C1127 H1111 0.930 . S
C1127 C1126 1.377 . S
C1127 C1128 1.379 . S
C1128 H1112 0.931 . S
C1128 C1122 1.388 1_545 S
C1128 C1127 1.379 . S
H1129 C1123 0.959 . S
H1130 C1123 0.961 . S
H1131 C1123 0.960 . S
H1132 C1124 0.930 . S
H1133 C1125 0.929 . S
H1134 C1142 0.929 . S
H1135 C1144 0.930 . S
H1136 C1146 0.930 . S
H1137 C1149 0.929 . S
H1138 C1152 0.930 . S
H1139 C1154 0.960 . S
H1140 C1154 0.960 . S
H1141 C1154 0.960 . S
C1142 H1134 0.929 . S
C1142 C1143 1.377 . S
C1142 C1144 1.384 . S
C1143 C1142 1.377 . S
C1143 C1149 1.390 1_565 S
C1144 H1135 0.930 . S
C1144 C1142 1.384 . S
C1144 C1145 1.372 . S
C1145 C1144 1.372 . S
C1145 C1146 1.400 1_565 S
C1145 C1150 1.490 . S
C1146 H1136 0.930 . S
C1146 C1145 1.400 1_545 S
C1146 C1149 1.386 . S
H1147 C1163 0.930 . S
H1148 C1164 0.931 . S
C1149 H1137 0.929 . S
C1149 C1143 1.390 1_545 S
C1149 C1146 1.386 . S
C1150 C1145 1.490 . S
C1150 C1152 1.395 . S
C1150 C1153 1.403 1_565 S
H1151 C1157 0.930 . S
C1152 H1138 0.930 . S
C1152 C1150 1.395 . S
C1152 C1155 1.403 . S
C1153 C1150 1.403 1_545 S
C1153 C1154 1.524 . S
C1153 C1157 1.400 . S
C1154 H1139 0.960 . S
C1154 H1140 0.960 . S
C1154 H1141 0.960 . S
C1154 C1153 1.524 . S
C1155 C1152 1.403 . S
C1155 C1156 1.392 . S
C1155 C1159 1.495 . S
C1156 C1155 1.392 . S
C1156 C1157 1.385 1_565 S
C1156 C1158 1.478 . S
C1157 H1151 0.930 . S
C1157 C1153 1.400 . S
C1157 C1156 1.385 1_545 S
C1158 C1156 1.478 . S
C1158 C1160 1.381 . S
C1158 C1164 1.383 1_565 S
C1159 C1155 1.495 . S
C1159 H1165 0.959 . S
C1159 H1166 0.961 . S
C1159 H1167 0.960 . S
C1160 C1158 1.381 . S
C1160 C1161 1.394 . S
C1160 H1168 0.930 . S
C1161 C1160 1.394 . S
C1161 C1162 1.383 . S
C1161 H1169 0.929 . S
C1162 C1161 1.383 . S
C1162 C1163 1.377 1_565 S
C1163 H1147 0.930 . S
C1163 C1162 1.377 1_545 S
C1163 C1164 1.379 . S
C1164 H1148 0.931 . S
C1164 C1158 1.383 1_545 S
C1164 C1163 1.379 . S
H1165 C1159 0.959 . S
H1166 C1159 0.961 . S
H1167 C1159 0.960 . S
H1168 C1160 0.930 . S
H1169 C1161 0.929 . S
H1170 C1178 0.929 . S
H1171 C1180 0.930 . S
H1172 C1182 0.930 . S
H1173 C1185 0.929 . S
H1174 C1188 0.930 . S
H1175 C1190 0.960 . S
H1176 C1190 0.960 . S
H1177 C1190 0.960 . S
C1178 H1170 0.929 . S
C1178 C1179 1.377 1_655 S
C1178 C1180 1.384 . S
C1179 C1178 1.377 1_455 S
C1179 C1185 1.390 . S
C1180 H1171 0.930 . S
C1180 C1178 1.384 . S
C1180 C1181 1.372 1_655 S
C1181 C1180 1.372 1_455 S
C1181 C1182 1.400 . S
C1181 C1186 1.490 . S
C1182 H1172 0.930 . S
C1182 C1181 1.400 . S
C1182 C1185 1.386 . S
H1183 C1199 0.930 . S
H1184 C1200 0.931 . S
C1185 H1173 0.929 . S
C1185 C1179 1.390 . S
C1185 C1182 1.386 . S
C1186 C1181 1.490 . S
C1186 C1188 1.395 1_455 S
C1186 C1189 1.403 . S
H1187 C1193 0.930 . S
C1188 H1174 0.930 . S
C1188 C1186 1.395 1_655 S
C1188 C1191 1.403 . S
C1189 C1186 1.403 . S
C1189 C1190 1.524 . S
C1189 C1193 1.400 . S
C1190 H1175 0.960 . S
C1190 H1176 0.960 . S
C1190 H1177 0.960 . S
C1190 C1189 1.524 . S
C1191 C1188 1.403 . S
C1191 C1192 1.380 1_655 S
C1191 C1195 1.495 . S
C1192 C1191 1.380 1_455 S
C1192 C1193 1.409 . S
C1192 C1194 1.468 . S
C1193 H1187 0.930 . S
C1193 C1189 1.400 . S
C1193 C1192 1.409 . S
C1194 C1192 1.468 . S
C1194 C1196 1.381 1_455 S
C1194 C1200 1.382 . S
C1195 C1191 1.495 . S
C1195 H1201 0.959 . S
C1195 H1202 0.961 . S
C1195 H1203 0.960 . S
C1196 C1194 1.381 1_655 S
C1196 C1197 1.394 . S
C1196 H1204 0.930 . S
C1197 C1196 1.394 . S
C1197 C1198 1.383 1_655 S
C1197 H1205 0.929 . S
C1198 C1197 1.383 1_455 S
C1198 C1199 1.377 . S
C1199 H1183 0.930 . S
C1199 C1198 1.377 . S
C1199 C1200 1.379 . S
C1200 H1184 0.931 . S
C1200 C1194 1.382 . S
C1200 C1199 1.379 . S
H1201 C1195 0.959 . S
H1202 C1195 0.961 . S
H1203 C1195 0.960 . S
H1204 C1196 0.930 . S
H1205 C1197 0.929 . S
H1206 C1214 0.929 . S
H1207 C1216 0.930 . S
H1208 C1218 0.930 . S
H1209 C1221 0.929 . S
H1210 C1224 0.930 . S
H1211 C1226 0.960 . S
H1212 C1226 0.960 . S
H1213 C1226 0.960 . S
C1214 H1206 0.929 . S
C1214 C1215 1.377 . S
C1214 C1216 1.384 . S
C1215 C1214 1.377 . S
C1215 C1221 1.390 . S
C1216 H1207 0.930 . S
C1216 C1214 1.384 . S
C1216 C1217 1.372 . S
C1217 C1216 1.372 . S
C1217 C1218 1.400 . S
C1217 C1222 1.490 . S
C1218 H1208 0.930 . S
C1218 C1217 1.400 . S
C1218 C1221 1.386 . S
H1219 C1235 0.930 . S
H1220 C1236 0.931 . S
C1221 H1209 0.929 . S
C1221 C1215 1.390 . S
C1221 C1218 1.386 . S
C1222 C1217 1.490 . S
C1222 C1224 1.395 . S
C1222 C1225 1.403 . S
H1223 C1229 0.930 . S
C1224 H1210 0.930 . S
C1224 C1222 1.395 . S
C1224 C1227 1.403 . S
C1225 C1222 1.403 . S
C1225 C1226 1.524 . S
C1225 C1229 1.400 . S
C1226 H1211 0.960 . S
C1226 H1212 0.960 . S
C1226 H1213 0.960 . S
C1226 C1225 1.524 . S
C1227 C1224 1.403 . S
C1227 C1228 1.392 . S
C1227 C1231 1.495 . S
C1228 C1227 1.392 . S
C1228 C1229 1.385 . S
C1228 C1230 1.478 . S
C1229 H1223 0.930 . S
C1229 C1225 1.400 . S
C1229 C1228 1.385 . S
C1230 C1228 1.478 . S
C1230 C1232 1.381 . S
C1230 C1236 1.383 . S
C1231 C1227 1.495 . S
C1231 H1237 0.959 . S
C1231 H1238 0.961 . S
C1231 H1239 0.960 . S
C1232 C1230 1.381 . S
C1232 C1233 1.394 . S
C1232 H1240 0.930 . S
C1233 C1232 1.394 . S
C1233 C1234 1.383 . S
C1233 H1241 0.929 . S
C1234 C1233 1.383 . S
C1234 C1235 1.377 . S
C1235 H1219 0.930 . S
C1235 C1234 1.377 . S
C1235 C1236 1.379 . S
C1236 H1220 0.931 . S
C1236 C1230 1.383 . S
C1236 C1235 1.379 . S
H1237 C1231 0.959 . S
H1238 C1231 0.961 . S
H1239 C1231 0.960 . S
H1240 C1232 0.930 . S
H1241 C1233 0.929 . S
H1242 C1250 0.929 . S
H1243 C1252 0.930 . S
H1244 C1254 0.930 . S
H1245 C1257 0.929 . S
H1246 C1260 0.930 . S
H1247 C1262 0.960 . S
H1248 C1262 0.960 . S
H1249 C1262 0.960 . S
C1250 H1242 0.929 . S
C1250 C1251 1.377 1_655 S
C1250 C1252 1.384 . S
C1251 C1250 1.377 1_455 S
C1251 C1257 1.390 . S
C1252 H1243 0.930 . S
C1252 C1250 1.384 . S
C1252 C1253 1.372 1_655 S
C1253 C1252 1.372 1_455 S
C1253 C1254 1.400 . S
C1253 C1258 1.490 . S
C1254 H1244 0.930 . S
C1254 C1253 1.400 . S
C1254 C1257 1.386 . S
H1255 C1271 0.930 . S
H1256 C1272 0.931 . S
C1257 H1245 0.929 . S
C1257 C1251 1.390 . S
C1257 C1254 1.386 . S
C1258 C1253 1.490 . S
C1258 C1260 1.395 1_455 S
C1258 C1261 1.403 . S
H1259 C1265 0.930 . S
C1260 H1246 0.930 . S
C1260 C1258 1.395 1_655 S
C1260 C1263 1.403 . S
C1261 C1258 1.403 . S
C1261 C1262 1.524 . S
C1261 C1265 1.400 . S
C1262 H1247 0.960 . S
C1262 H1248 0.960 . S
C1262 H1249 0.960 . S
C1262 C1261 1.524 . S
C1263 C1260 1.403 . S
C1263 C1264 1.392 . S
C1263 C1267 1.495 . S
C1264 C1263 1.392 . S
C1264 C1265 1.385 1_655 S
C1264 C1266 1.478 . S
C1265 H1259 0.930 . S
C1265 C1261 1.400 . S
C1265 C1264 1.385 1_455 S
C1266 C1264 1.478 . S
C1266 C1268 1.381 . S
C1266 C1272 1.383 1_655 S
C1267 C1263 1.495 . S
C1267 H1273 0.959 . S
C1267 H1274 0.961 . S
C1267 H1275 0.960 . S
C1268 C1266 1.381 . S
C1268 C1269 1.394 . S
C1268 H1276 0.930 . S
C1269 C1268 1.394 . S
C1269 C1270 1.387 . S
C1269 H1277 0.929 . S
C1270 C1269 1.387 . S
C1270 C1271 1.376 1_655 S
C1271 H1255 0.930 . S
C1271 C1270 1.376 1_455 S
C1271 C1272 1.379 . S
C1272 H1256 0.931 . S
C1272 C1266 1.383 1_455 S
C1272 C1271 1.379 . S
H1273 C1267 0.959 . S
H1274 C1267 0.961 . S
H1275 C1267 0.960 . S
H1276 C1268 0.930 . S
H1277 C1269 0.929 . S
H1278 C1286 0.929 . S
H1279 C1288 0.930 . S
H1280 C1290 0.930 . S
H1281 C1293 0.929 . S
H1282 C1296 0.930 . S
H1283 C1298 0.960 . S
H1284 C1298 0.960 . S
H1285 C1298 0.960 . S
C1286 H1278 0.929 . S
C1286 C1287 1.377 . S
C1286 C1288 1.384 . S
C1287 C1286 1.377 . S
C1287 C1293 1.390 . S
C1288 H1279 0.930 . S
C1288 C1286 1.384 . S
C1288 C1289 1.372 . S
C1289 C1288 1.372 . S
C1289 C1290 1.400 . S
C1289 C1294 1.490 . S
C1290 H1280 0.930 . S
C1290 C1289 1.400 . S
C1290 C1293 1.386 . S
H1291 C1307 0.930 . S
H1292 C1308 0.931 . S
C1293 H1281 0.929 . S
C1293 C1287 1.390 . S
C1293 C1290 1.386 . S
C1294 C1289 1.490 . S
C1294 C1296 1.395 . S
C1294 C1297 1.403 . S
H1295 C1301 0.930 . S
C1296 H1282 0.930 . S
C1296 C1294 1.395 . S
C1296 C1299 1.403 . S
C1297 C1294 1.403 . S
C1297 C1298 1.524 . S
C1297 C1301 1.400 . S
C1298 H1283 0.960 . S
C1298 H1284 0.960 . S
C1298 H1285 0.960 . S
C1298 C1297 1.524 . S
C1299 C1296 1.403 . S
C1299 C1300 1.392 . S
C1299 C1303 1.495 . S
C1300 C1299 1.392 . S
C1300 C1301 1.385 . S
C1300 C1302 1.478 . S
C1301 H1295 0.930 . S
C1301 C1297 1.400 . S
C1301 C1300 1.385 . S
C1302 C1300 1.478 . S
C1302 C1304 1.381 . S
C1302 C1308 1.383 . S
C1303 C1299 1.495 . S
C1303 H1309 0.959 . S
C1303 H1310 0.961 . S
C1303 H1311 0.960 . S
C1304 C1302 1.381 . S
C1304 C1305 1.394 . S
C1304 H1312 0.930 . S
C1305 C1304 1.394 . S
C1305 C1306 1.383 . S
C1305 H1313 0.929 . S
C1306 C1305 1.383 . S
C1306 C1307 1.377 . S
C1307 H1291 0.930 . S
C1307 C1306 1.377 . S
C1307 C1308 1.379 . S
C1308 H1292 0.931 . S
C1308 C1302 1.383 . S
C1308 C1307 1.379 . S
H1309 C1303 0.959 . S
H1310 C1303 0.961 . S
H1311 C1303 0.960 . S
H1312 C1304 0.930 . S
H1313 C1305 0.929 . S
H1314 C1322 0.929 . S
H1315 C1324 0.930 . S
H1316 C1326 0.930 . S
H1317 C1329 0.929 . S
H1318 C1332 0.930 . S
H1319 C1334 0.960 . S
H1320 C1334 0.960 . S
H1321 C1334 0.960 . S
C1322 H1314 0.929 . S
C1322 C1323 1.377 . S
C1322 C1324 1.384 . S
C1323 C1322 1.377 . S
C1323 C1329 1.390 1_565 S
C1324 H1315 0.930 . S
C1324 C1322 1.384 . S
C1324 C1325 1.372 . S
C1325 C1324 1.372 . S
C1325 C1326 1.400 1_565 S
C1325 C1330 1.524 . S
C1326 H1316 0.930 . S
C1326 C1325 1.400 1_545 S
C1326 C1329 1.386 . S
H1327 C1343 0.930 . S
H1328 C1344 0.931 . S
C1329 H1317 0.929 . S
C1329 C1323 1.390 1_545 S
C1329 C1326 1.386 . S
C1330 C1325 1.524 . S
C1330 C1332 1.332 1_565 S
C1330 C1333 1.435 . S
H1331 C1337 0.930 . S
C1332 H1318 0.930 . S
C1332 C1330 1.332 1_545 S
C1332 C1335 1.403 . S
C1333 C1330 1.435 . S
C1333 C1334 1.524 . S
C1333 C1337 1.400 . S
C1334 H1319 0.960 . S
C1334 H1320 0.960 . S
C1334 H1321 0.960 . S
C1334 C1333 1.524 . S
C1335 C1332 1.403 . S
C1335 C1336 1.413 . S
C1335 C1339 1.495 . S
C1336 C1335 1.413 . S
C1336 C1337 1.342 1_545 S
C1336 C1338 1.500 . S
C1337 H1331 0.930 . S
C1337 C1333 1.400 . S
C1337 C1336 1.342 1_565 S
C1338 C1336 1.500 . S
C1338 C1340 1.381 1_545 S
C1338 C1344 1.383 . S
C1339 C1335 1.495 . S
C1339 H1345 0.959 . S
C1339 H1346 0.961 . S
C1339 H1347 0.960 . S
C1340 C1338 1.381 1_565 S
C1340 C1341 1.394 . S
C1340 H1348 0.930 . S
C1341 C1340 1.394 . S
C1341 C1342 1.370 1_565 S
C1341 H1349 0.929 . S
C1342 C1341 1.370 1_545 S
C1342 C1343 1.379 . S
C1343 H1327 0.930 . S
C1343 C1342 1.379 . S
C1343 C1344 1.379 . S
C1344 H1328 0.931 . S
C1344 C1338 1.383 . S
C1344 C1343 1.379 . S
H1345 C1339 0.959 . S
H1346 C1339 0.961 . S
H1347 C1339 0.960 . S
H1348 C1340 0.930 . S
H1349 C1341 0.929 . S
H1350 C1358 0.929 . S
H1351 C1360 0.930 . S
H1352 C1362 0.930 . S
H1353 C1365 0.929 . S
H1354 C1368 0.930 . S
H1355 C1370 0.960 . S
H1356 C1370 0.960 1_565 S
H1357 C1370 0.960 . S
C1358 H1350 0.929 . S
C1358 C1359 1.377 1_565 S
C1358 C1360 1.384 . S
C1359 C1358 1.377 1_545 S
C1359 C1365 1.390 . S
C1360 H1351 0.930 . S
C1360 C1358 1.384 . S
C1360 C1361 1.372 1_565 S
C1361 C1360 1.372 1_545 S
C1361 C1362 1.400 . S
C1361 C1366 1.490 . S
C1362 H1352 0.930 . S
C1362 C1361 1.400 . S
C1362 C1365 1.386 . S
H1363 C1379 0.930 . S
H1364 C1380 0.931 . S
C1365 H1353 0.929 . S
C1365 C1359 1.390 . S
C1365 C1362 1.386 . S
C1366 C1361 1.490 . S
C1366 C1368 1.395 . S
C1366 C1369 1.403 . S
H1367 C1373 0.930 . S
C1368 H1354 0.930 . S
C1368 C1366 1.395 . S
C1368 C1371 1.403 . S
C1369 C1366 1.403 . S
C1369 C1370 1.524 . S
C1369 C1373 1.400 . S
C1370 H1355 0.960 . S
C1370 H1356 0.960 1_545 S
C1370 H1357 0.960 . S
C1370 C1369 1.524 . S
C1371 C1368 1.403 . S
C1371 C1372 1.392 . S
C1371 C1375 1.495 . S
C1372 C1371 1.392 . S
C1372 C1373 1.385 . S
C1372 C1374 1.478 . S
C1373 H1367 0.930 . S
C1373 C1369 1.400 . S
C1373 C1372 1.385 . S
C1374 C1372 1.478 . S
C1374 C1376 1.381 1_545 S
C1374 C1380 1.383 . S
C1375 C1371 1.495 . S
C1375 H1381 0.959 . S
C1375 H1382 0.961 . S
C1375 H1383 0.960 1_545 S
C1376 C1374 1.381 1_565 S
C1376 C1377 1.394 . S
C1376 H1384 0.930 . S
C1377 C1376 1.394 . S
C1377 C1378 1.303 1_565 S
C1377 H1385 0.929 . S
C1378 C1377 1.303 1_545 S
C1378 C1379 1.427 . S
C1379 H1363 0.930 . S
C1379 C1378 1.427 . S
C1379 C1380 1.379 . S
C1380 H1364 0.931 . S
C1380 C1374 1.383 . S
C1380 C1379 1.379 . S
H1381 C1375 0.959 . S
H1382 C1375 0.961 . S
H1383 C1375 0.960 1_565 S
H1384 C1376 0.930 . S
H1385 C1377 0.929 . S
H1386 C1394 0.929 . S
H1387 C1396 0.930 . S
H1388 C1398 0.930 . S
H1389 C1401 0.929 . S
H1390 C1404 0.930 . S
H1391 C1406 0.960 . S
H1392 C1406 0.960 1_455 S
H1393 C1406 0.960 . S
C1394 H1386 0.929 . S
C1394 C1395 1.377 1_455 S
C1394 C1396 1.384 . S
C1395 C1394 1.377 1_655 S
C1395 C1401 1.390 . S
C1396 H1387 0.930 . S
C1396 C1394 1.384 . S
C1396 C1397 1.367 1_455 S
C1397 C1396 1.367 1_655 S
C1397 C1398 1.410 . S
C1397 C1402 1.482 . S
C1398 H1388 0.930 . S
C1398 C1397 1.410 . S
C1398 C1401 1.386 . S
H1399 C1415 0.930 . S
H1400 C1416 0.931 . S
C1401 H1389 0.929 . S
C1401 C1395 1.390 . S
C1401 C1398 1.386 . S
C1402 C1397 1.482 . S
C1402 C1404 1.394 1_655 S
C1402 C1405 1.406 . S
H1403 C1409 0.930 . S
C1404 H1390 0.930 . S
C1404 C1402 1.394 1_455 S
C1404 C1407 1.403 . S
C1405 C1402 1.406 . S
C1405 C1406 1.524 . S
C1405 C1409 1.400 . S
C1406 H1391 0.960 . S
C1406 H1392 0.960 1_655 S
C1406 H1393 0.960 . S
C1406 C1405 1.524 . S
C1407 C1404 1.403 . S
C1407 C1408 1.388 . S
C1407 C1411 1.495 . S
C1408 C1407 1.388 . S
C1408 C1409 1.385 1_455 S
C1408 C1410 1.479 1_455 S
C1409 H1403 0.930 . S
C1409 C1405 1.400 . S
C1409 C1408 1.385 1_655 S
C1410 C1408 1.479 1_655 S
C1410 C1412 1.387 1_655 S
C1410 C1416 1.380 . S
C1411 C1407 1.495 . S
C1411 H1417 0.959 . S
C1411 H1418 0.961 1_455 S
C1411 H1419 0.960 . S
C1412 C1410 1.387 1_455 S
C1412 C1413 1.394 . S
C1412 H1420 0.930 . S
C1413 C1412 1.394 . S
C1413 C1414 1.379 1_455 S
C1413 H1421 0.929 . S
C1414 C1413 1.379 1_655 S
C1414 C1415 1.385 . S
C1415 H1399 0.930 . S
C1415 C1414 1.385 . S
C1415 C1416 1.379 . S
C1416 H1400 0.931 . S
C1416 C1410 1.380 . S
C1416 C1415 1.379 . S
H1417 C1411 0.959 . S
H1418 C1411 0.961 1_655 S
H1419 C1411 0.960 . S
H1420 C1412 0.930 . S
H1421 C1413 0.929 . S
H1422 C1430 0.929 . S
H1423 C1432 0.930 . S
H1424 C1434 0.930 . S
H1425 C1437 0.929 . S
H1426 C1440 0.930 . S
H1427 C1442 0.960 . S
H1428 C1442 0.960 . S
H1429 C1442 0.960 . S
C1430 H1422 0.929 . S
C1430 C1431 1.377 . S
C1430 C1432 1.384 . S
C1431 C1430 1.377 . S
C1431 C1437 1.390 . S
C1432 H1423 0.930 . S
C1432 C1430 1.384 . S
C1432 C1433 1.372 . S
C1433 C1432 1.372 . S
C1433 C1434 1.400 . S
C1433 C1438 1.490 . S
C1434 H1424 0.930 . S
C1434 C1433 1.400 . S
C1434 C1437 1.386 . S
H1435 C1451 0.930 . S
H1436 C1452 0.931 . S
C1437 H1425 0.929 . S
C1437 C1431 1.390 . S
C1437 C1434 1.386 . S
C1438 C1433 1.490 . S
C1438 C1440 1.395 . S
C1438 C1441 1.403 . S
H1439 C1445 0.930 . S
C1440 H1426 0.930 . S
C1440 C1438 1.395 . S
C1440 C1443 1.403 . S
C1441 C1438 1.403 . S
C1441 C1442 1.524 . S
C1441 C1445 1.400 . S
C1442 H1427 0.960 . S
C1442 H1428 0.960 . S
C1442 H1429 0.960 . S
C1442 C1441 1.524 . S
C1443 C1440 1.403 . S
C1443 C1444 1.392 . S
C1443 C1447 1.495 . S
C1444 C1443 1.392 . S
C1444 C1445 1.385 . S
C1444 C1446 1.478 . S
C1445 H1439 0.930 . S
C1445 C1441 1.400 . S
C1445 C1444 1.385 . S
C1446 C1444 1.478 . S
C1446 C1448 1.381 . S
C1446 C1452 1.383 . S
C1447 C1443 1.495 . S
C1447 H1453 0.959 . S
C1447 H1454 0.961 . S
C1447 H1455 0.960 . S
C1448 C1446 1.381 . S
C1448 C1449 1.394 . S
C1448 H1456 0.930 . S
C1449 C1448 1.394 . S
C1449 C1450 1.383 . S
C1449 H1457 0.929 . S
C1450 C1449 1.383 . S
C1450 C1451 1.377 . S
C1451 H1435 0.930 . S
C1451 C1450 1.377 . S
C1451 C1452 1.379 . S
C1452 H1436 0.931 . S
C1452 C1446 1.383 . S
C1452 C1451 1.379 . S
H1453 C1447 0.959 . S
H1454 C1447 0.961 . S
H1455 C1447 0.960 . S
H1456 C1448 0.930 . S
H1457 C1449 0.929 . S
H1458 C1466 0.929 . S
H1459 C1468 0.930 . S
H1460 C1470 0.930 . S
H1461 C1473 0.929 . S
H1462 C1476 0.930 . S
H1463 C1478 0.960 . S
H1464 C1478 0.960 . S
H1465 C1478 0.960 . S
C1466 H1458 0.929 . S
C1466 C1467 1.377 . S
C1466 C1468 1.384 . S
C1467 C1466 1.377 . S
C1467 C1473 1.390 . S
C1468 H1459 0.930 . S
C1468 C1466 1.384 . S
C1468 C1469 1.372 . S
C1469 C1468 1.372 . S
C1469 C1470 1.400 . S
C1469 C1474 1.490 . S
C1470 H1460 0.930 . S
C1470 C1469 1.400 . S
C1470 C1473 1.386 . S
H1471 C1487 0.930 . S
H1472 C1488 0.931 . S
C1473 H1461 0.929 . S
C1473 C1467 1.390 . S
C1473 C1470 1.386 . S
C1474 C1469 1.490 . S
C1474 C1476 1.395 . S
C1474 C1477 1.403 . S
H1475 C1481 0.930 . S
C1476 H1462 0.930 . S
C1476 C1474 1.395 . S
C1476 C1479 1.403 . S
C1477 C1474 1.403 . S
C1477 C1478 1.524 . S
C1477 C1481 1.400 . S
C1478 H1463 0.960 . S
C1478 H1464 0.960 . S
C1478 H1465 0.960 . S
C1478 C1477 1.524 . S
C1479 C1476 1.403 . S
C1479 C1480 1.392 . S
C1479 C1483 1.495 . S
C1480 C1479 1.392 . S
C1480 C1481 1.385 . S
C1480 C1482 1.478 . S
C1481 H1475 0.930 . S
C1481 C1477 1.400 . S
C1481 C1480 1.385 . S
C1482 C1480 1.478 . S
C1482 C1484 1.381 . S
C1482 C1488 1.383 . S
C1483 C1479 1.495 . S
C1483 H1489 0.959 . S
C1483 H1490 0.961 . S
C1483 H1491 0.960 . S
C1484 C1482 1.381 . S
C1484 C1485 1.394 . S
C1484 H1492 0.930 . S
C1485 C1484 1.394 . S
C1485 C1486 1.383 . S
C1485 H1493 0.929 . S
C1486 C1485 1.383 . S
C1486 C1487 1.377 . S
C1487 H1471 0.930 . S
C1487 C1486 1.377 . S
C1487 C1488 1.379 . S
C1488 H1472 0.931 . S
C1488 C1482 1.383 . S
C1488 C1487 1.379 . S
H1489 C1483 0.959 . S
H1490 C1483 0.961 . S
H1491 C1483 0.960 . S
H1492 C1484 0.930 . S
H1493 C1485 0.929 . S
H1494 C1502 0.929 . S
H1495 C1504 0.930 . S
H1496 C1506 0.930 . S
H1497 C1509 0.929 . S
H1498 C1512 0.930 . S
H1499 C1514 0.960 . S
H1500 C1514 0.960 . S
H1501 C1514 0.960 . S
C1502 H1494 0.929 . S
C1502 C1503 1.377 . S
C1502 C1504 1.384 . S
C1503 C1502 1.377 . S
C1503 C1509 1.390 . S
C1504 H1495 0.930 . S
C1504 C1502 1.384 . S
C1504 C1505 1.372 . S
C1505 C1504 1.372 . S
C1505 C1506 1.400 . S
C1505 C1510 1.490 . S
C1506 H1496 0.930 . S
C1506 C1505 1.400 . S
C1506 C1509 1.386 . S
H1507 C1523 0.930 . S
H1508 C1524 0.931 . S
C1509 H1497 0.929 . S
C1509 C1503 1.390 . S
C1509 C1506 1.386 . S
C1510 C1505 1.490 . S
C1510 C1512 1.395 . S
C1510 C1513 1.403 . S
H1511 C1517 0.930 . S
C1512 H1498 0.930 . S
C1512 C1510 1.395 . S
C1512 C1515 1.403 . S
C1513 C1510 1.403 . S
C1513 C1514 1.524 . S
C1513 C1517 1.400 . S
C1514 H1499 0.960 . S
C1514 H1500 0.960 . S
C1514 H1501 0.960 . S
C1514 C1513 1.524 . S
C1515 C1512 1.403 . S
C1515 C1516 1.392 . S
C1515 C1519 1.495 . S
C1516 C1515 1.392 . S
C1516 C1517 1.385 . S
C1516 C1518 1.478 . S
C1517 H1511 0.930 . S
C1517 C1513 1.400 . S
C1517 C1516 1.385 . S
C1518 C1516 1.478 . S
C1518 C1520 1.381 . S
C1518 C1524 1.383 . S
C1519 C1515 1.495 . S
C1519 H1525 0.959 . S
C1519 H1526 0.961 . S
C1519 H1527 0.960 . S
C1520 C1518 1.381 . S
C1520 C1521 1.394 . S
C1520 H1528 0.930 . S
C1521 C1520 1.394 . S
C1521 C1522 1.383 . S
C1521 H1529 0.929 . S
C1522 C1521 1.383 . S
C1522 C1523 1.377 . S
C1523 H1507 0.930 . S
C1523 C1522 1.377 . S
C1523 C1524 1.379 . S
C1524 H1508 0.931 . S
C1524 C1518 1.383 . S
C1524 C1523 1.379 . S
H1525 C1519 0.959 . S
H1526 C1519 0.961 . S
H1527 C1519 0.960 . S
H1528 C1520 0.930 . S
H1529 C1521 0.929 . S
H1530 C1538 0.929 . S
H1531 C1540 0.930 . S
H1532 C1542 0.930 . S
H1533 C1545 0.929 . S
H1534 C1548 0.930 . S
H1535 C1550 0.960 . S
H1536 C1550 0.960 . S
H1537 C1550 0.960 . S
C1538 H1530 0.929 . S
C1538 C1539 1.377 . S
C1538 C1540 1.384 . S
C1539 C1538 1.377 . S
C1539 C1545 1.390 . S
C1540 H1531 0.930 . S
C1540 C1538 1.384 . S
C1540 C1541 1.372 . S
C1541 C1540 1.372 . S
C1541 C1542 1.400 . S
C1541 C1546 1.490 . S
C1542 H1532 0.930 . S
C1542 C1541 1.400 . S
C1542 C1545 1.386 . S
H1543 C1559 0.930 . S
H1544 C1560 0.931 . S
C1545 H1533 0.929 . S
C1545 C1539 1.390 . S
C1545 C1542 1.386 . S
C1546 C1541 1.490 . S
C1546 C1548 1.395 . S
C1546 C1549 1.403 . S
H1547 C1553 0.930 . S
C1548 H1534 0.930 . S
C1548 C1546 1.395 . S
C1548 C1551 1.403 . S
C1549 C1546 1.403 . S
C1549 C1550 1.524 . S
C1549 C1553 1.400 . S
C1550 H1535 0.960 . S
C1550 H1536 0.960 . S
C1550 H1537 0.960 . S
C1550 C1549 1.524 . S
C1551 C1548 1.403 . S
C1551 C1552 1.392 . S
C1551 C1555 1.495 . S
C1552 C1551 1.392 . S
C1552 C1553 1.385 . S
C1552 C1554 1.478 . S
C1553 H1547 0.930 . S
C1553 C1549 1.400 . S
C1553 C1552 1.385 . S
C1554 C1552 1.478 . S
C1554 C1556 1.381 . S
C1554 C1560 1.383 . S
C1555 C1551 1.495 . S
C1555 H1561 0.959 . S
C1555 H1562 0.961 . S
C1555 H1563 0.960 . S
C1556 C1554 1.381 . S
C1556 C1557 1.394 . S
C1556 H1564 0.930 . S
C1557 C1556 1.394 . S
C1557 C1558 1.383 . S
C1557 H1565 0.929 . S
C1558 C1557 1.383 . S
C1558 C1559 1.377 . S
C1559 H1543 0.930 . S
C1559 C1558 1.377 . S
C1559 C1560 1.379 . S
C1560 H1544 0.931 . S
C1560 C1554 1.383 . S
C1560 C1559 1.379 . S
H1561 C1555 0.959 . S
H1562 C1555 0.961 . S
H1563 C1555 0.960 . S
H1564 C1556 0.930 . S
H1565 C1557 0.929 . S
H1566 C1574 0.929 . S
H1567 C1576 0.930 . S
H1568 C1578 0.930 . S
H1569 C1581 0.929 . S
H1570 C1584 0.930 . S
H1571 C1586 0.960 . S
H1572 C1586 0.960 . S
H1573 C1586 0.960 . S
C1574 H1566 0.929 . S
C1574 C1575 1.377 . S
C1574 C1576 1.384 . S
C1575 C1574 1.377 . S
C1575 C1581 1.390 . S
C1576 H1567 0.930 . S
C1576 C1574 1.384 . S
C1576 C1577 1.372 . S
C1577 C1576 1.372 . S
C1577 C1578 1.400 . S
C1577 C1582 1.490 . S
C1578 H1568 0.930 . S
C1578 C1577 1.400 . S
C1578 C1581 1.386 . S
H1579 C1595 0.930 . S
H1580 C1596 0.931 . S
C1581 H1569 0.929 . S
C1581 C1575 1.390 . S
C1581 C1578 1.386 . S
C1582 C1577 1.490 . S
C1582 C1584 1.395 . S
C1582 C1585 1.403 . S
H1583 C1589 0.930 . S
C1584 H1570 0.930 . S
C1584 C1582 1.395 . S
C1584 C1587 1.403 . S
C1585 C1582 1.403 . S
C1585 C1586 1.524 . S
C1585 C1589 1.400 . S
C1586 H1571 0.960 . S
C1586 H1572 0.960 . S
C1586 H1573 0.960 . S
C1586 C1585 1.524 . S
C1587 C1584 1.403 . S
C1587 C1588 1.392 . S
C1587 C1591 1.495 . S
C1588 C1587 1.392 . S
C1588 C1589 1.385 . S
C1588 C1590 1.478 . S
C1589 H1583 0.930 . S
C1589 C1585 1.400 . S
C1589 C1588 1.385 . S
C1590 C1588 1.478 . S
C1590 C1592 1.381 . S
C1590 C1596 1.383 . S
C1591 C1587 1.495 . S
C1591 H1597 0.959 . S
C1591 H1598 0.961 . S
C1591 H1599 0.960 . S
C1592 C1590 1.381 . S
C1592 C1593 1.394 . S
C1592 H1600 0.930 . S
C1593 C1592 1.394 . S
C1593 C1594 1.383 . S
C1593 H1601 0.929 . S
C1594 C1593 1.383 . S
C1594 C1595 1.377 . S
C1595 H1579 0.930 . S
C1595 C1594 1.377 . S
C1595 C1596 1.379 . S
C1596 H1580 0.931 . S
C1596 C1590 1.383 . S
C1596 C1595 1.379 . S
H1597 C1591 0.959 . S
H1598 C1591 0.961 . S
H1599 C1591 0.960 . S
H1600 C1592 0.930 . S
H1601 C1593 0.929 . S
H1602 C1610 0.929 . S
H1603 C1612 0.930 . S
H1604 C1614 0.930 . S
H1605 C1617 0.929 . S
H1606 C1620 0.930 . S
H1607 C1622 0.960 . S
H1608 C1622 0.960 . S
H1609 C1622 0.960 . S
C1610 H1602 0.929 . S
C1610 C1611 1.377 . S
C1610 C1612 1.384 . S
C1611 C1610 1.377 . S
C1611 C1617 1.390 . S
C1612 H1603 0.930 . S
C1612 C1610 1.384 . S
C1612 C1613 1.372 . S
C1613 C1612 1.372 . S
C1613 C1614 1.400 . S
C1613 C1618 1.490 . S
C1614 H1604 0.930 . S
C1614 C1613 1.400 . S
C1614 C1617 1.386 . S
H1615 C1631 0.930 . S
H1616 C1632 0.931 . S
C1617 H1605 0.929 . S
C1617 C1611 1.390 . S
C1617 C1614 1.386 . S
C1618 C1613 1.490 . S
C1618 C1620 1.395 . S
C1618 C1621 1.403 . S
H1619 C1625 0.930 . S
C1620 H1606 0.930 . S
C1620 C1618 1.395 . S
C1620 C1623 1.403 . S
C1621 C1618 1.403 . S
C1621 C1622 1.524 . S
C1621 C1625 1.400 . S
C1622 H1607 0.960 . S
C1622 H1608 0.960 . S
C1622 H1609 0.960 . S
C1622 C1621 1.524 . S
C1623 C1620 1.403 . S
C1623 C1624 1.392 . S
C1623 C1627 1.495 . S
C1624 C1623 1.392 . S
C1624 C1625 1.385 . S
C1624 C1626 1.478 . S
C1625 H1619 0.930 . S
C1625 C1621 1.400 . S
C1625 C1624 1.385 . S
C1626 C1624 1.478 . S
C1626 C1628 1.381 . S
C1626 C1632 1.383 . S
C1627 C1623 1.495 . S
C1627 H1633 0.959 . S
C1627 H1634 0.961 . S
C1627 H1635 0.960 . S
C1628 C1626 1.381 . S
C1628 C1629 1.394 . S
C1628 H1636 0.930 . S
C1629 C1628 1.394 . S
C1629 C1630 1.383 . S
C1629 H1637 0.929 . S
C1630 C1629 1.383 . S
C1630 C1631 1.377 . S
C1631 H1615 0.930 . S
C1631 C1630 1.377 . S
C1631 C1632 1.379 . S
C1632 H1616 0.931 . S
C1632 C1626 1.383 . S
C1632 C1631 1.379 . S
H1633 C1627 0.959 . S
H1634 C1627 0.961 . S
H1635 C1627 0.960 . S
H1636 C1628 0.930 . S
H1637 C1629 0.929 . S
H1638 C1646 0.929 . S
H1639 C1648 0.930 . S
H1640 C1650 0.930 . S
H1641 C1653 0.929 . S
H1642 C1656 0.930 . S
H1643 C1658 0.960 . S
H1644 C1658 0.960 . S
H1645 C1658 0.960 . S
C1646 H1638 0.929 . S
C1646 C1647 1.377 . S
C1646 C1648 1.384 . S
C1647 C1646 1.377 . S
C1647 C1653 1.390 . S
C1648 H1639 0.930 . S
C1648 C1646 1.384 . S
C1648 C1649 1.372 . S
C1649 C1648 1.372 . S
C1649 C1650 1.400 . S
C1649 C1654 1.490 . S
C1650 H1640 0.930 . S
C1650 C1649 1.400 . S
C1650 C1653 1.386 . S
H1651 C1667 0.930 . S
H1652 C1668 0.931 . S
C1653 H1641 0.929 . S
C1653 C1647 1.390 . S
C1653 C1650 1.386 . S
C1654 C1649 1.490 . S
C1654 C1656 1.395 . S
C1654 C1657 1.403 . S
H1655 C1661 0.930 . S
C1656 H1642 0.930 . S
C1656 C1654 1.395 . S
C1656 C1659 1.403 . S
C1657 C1654 1.403 . S
C1657 C1658 1.524 . S
C1657 C1661 1.400 . S
C1658 H1643 0.960 . S
C1658 H1644 0.960 . S
C1658 H1645 0.960 . S
C1658 C1657 1.524 . S
C1659 C1656 1.403 . S
C1659 C1660 1.392 . S
C1659 C1663 1.495 . S
C1660 C1659 1.392 . S
C1660 C1661 1.385 . S
C1660 C1662 1.478 . S
C1661 H1655 0.930 . S
C1661 C1657 1.400 . S
C1661 C1660 1.385 . S
C1662 C1660 1.478 . S
C1662 C1664 1.381 . S
C1662 C1668 1.383 . S
C1663 C1659 1.495 . S
C1663 H1669 0.959 . S
C1663 H1670 0.961 . S
C1663 H1671 0.960 . S
C1664 C1662 1.381 . S
C1664 C1665 1.394 . S
C1664 H1672 0.930 . S
C1665 C1664 1.394 . S
C1665 C1666 1.383 . S
C1665 H1673 0.929 . S
C1666 C1665 1.383 . S
C1666 C1667 1.377 . S
C1667 H1651 0.930 . S
C1667 C1666 1.377 . S
C1667 C1668 1.379 . S
C1668 H1652 0.931 . S
C1668 C1662 1.383 . S
C1668 C1667 1.379 . S
H1669 C1663 0.959 . S
H1670 C1663 0.961 . S
H1671 C1663 0.960 . S
H1672 C1664 0.930 . S
H1673 C1665 0.929 . S
H1674 C1682 0.929 . S
H1675 C1684 0.930 . S
H1676 C1686 0.930 . S
H1677 C1689 0.929 . S
H1678 C1692 0.930 . S
H1679 C1694 0.960 . S
H1680 C1694 0.960 . S
H1681 C1694 0.960 . S
C1682 H1674 0.929 . S
C1682 C1683 1.377 . S
C1682 C1684 1.384 . S
C1683 C1682 1.377 . S
C1683 C1689 1.390 . S
C1684 H1675 0.930 . S
C1684 C1682 1.384 . S
C1684 C1685 1.372 . S
C1685 C1684 1.372 . S
C1685 C1686 1.400 . S
C1685 C1690 1.490 . S
C1686 H1676 0.930 . S
C1686 C1685 1.400 . S
C1686 C1689 1.386 . S
H1687 C1703 0.930 . S
H1688 C1704 0.931 . S
C1689 H1677 0.929 . S
C1689 C1683 1.390 . S
C1689 C1686 1.386 . S
C1690 C1685 1.490 . S
C1690 C1692 1.395 . S
C1690 C1693 1.403 . S
H1691 C1697 0.930 . S
C1692 H1678 0.930 . S
C1692 C1690 1.395 . S
C1692 C1695 1.403 . S
C1693 C1690 1.403 . S
C1693 C1694 1.524 . S
C1693 C1697 1.400 . S
C1694 H1679 0.960 . S
C1694 H1680 0.960 . S
C1694 H1681 0.960 . S
C1694 C1693 1.524 . S
C1695 C1692 1.403 . S
C1695 C1696 1.392 . S
C1695 C1699 1.495 . S
C1696 C1695 1.392 . S
C1696 C1697 1.385 . S
C1696 C1698 1.478 . S
C1697 H1691 0.930 . S
C1697 C1693 1.400 . S
C1697 C1696 1.385 . S
C1698 C1696 1.478 . S
C1698 C1700 1.381 . S
C1698 C1704 1.383 . S
C1699 C1695 1.495 . S
C1699 H1705 0.959 . S
C1699 H1706 0.961 . S
C1699 H1707 0.960 . S
C1700 C1698 1.381 . S
C1700 C1701 1.394 . S
C1700 H1708 0.930 . S
C1701 C1700 1.394 . S
C1701 C1702 1.383 . S
C1701 H1709 0.929 . S
C1702 C1701 1.383 . S
C1702 C1703 1.377 . S
C1703 H1687 0.930 . S
C1703 C1702 1.377 . S
C1703 C1704 1.379 . S
C1704 H1688 0.931 . S
C1704 C1698 1.383 . S
C1704 C1703 1.379 . S
H1705 C1699 0.959 . S
H1706 C1699 0.961 . S
H1707 C1699 0.960 . S
H1708 C1700 0.930 . S
H1709 C1701 0.929 . S
H1710 C1718 0.929 . S
H1711 C1720 0.930 . S
H1712 C1722 0.930 . S
H1713 C1725 0.929 . S
H1714 C1728 0.930 . S
H1715 C1730 0.960 . S
H1716 C1730 0.960 . S
H1717 C1730 0.960 . S
C1718 H1710 0.929 . S
C1718 C1719 1.377 . S
C1718 C1720 1.384 . S
C1719 C1718 1.377 . S
C1719 C1725 1.390 . S
C1720 H1711 0.930 . S
C1720 C1718 1.384 . S
C1720 C1721 1.372 . S
C1721 C1720 1.372 . S
C1721 C1722 1.400 . S
C1721 C1726 1.490 . S
C1722 H1712 0.930 . S
C1722 C1721 1.400 . S
C1722 C1725 1.386 . S
H1723 C1739 0.930 . S
H1724 C1740 0.931 . S
C1725 H1713 0.929 . S
C1725 C1719 1.390 . S
C1725 C1722 1.386 . S
C1726 C1721 1.490 . S
C1726 C1728 1.395 . S
C1726 C1729 1.403 . S
H1727 C1733 0.930 . S
C1728 H1714 0.930 . S
C1728 C1726 1.395 . S
C1728 C1731 1.403 . S
C1729 C1726 1.403 . S
C1729 C1730 1.524 . S
C1729 C1733 1.400 . S
C1730 H1715 0.960 . S
C1730 H1716 0.960 . S
C1730 H1717 0.960 . S
C1730 C1729 1.524 . S
C1731 C1728 1.403 . S
C1731 C1732 1.392 . S
C1731 C1735 1.495 . S
C1732 C1731 1.392 . S
C1732 C1733 1.385 . S
C1732 C1734 1.478 . S
C1733 H1727 0.930 . S
C1733 C1729 1.400 . S
C1733 C1732 1.385 . S
C1734 C1732 1.478 . S
C1734 C1736 1.381 . S
C1734 C1740 1.383 . S
C1735 C1731 1.495 . S
C1735 H1741 0.959 . S
C1735 H1742 0.961 . S
C1735 H1743 0.960 . S
C1736 C1734 1.381 . S
C1736 C1737 1.394 . S
C1736 H1744 0.930 . S
C1737 C1736 1.394 . S
C1737 C1738 1.383 . S
C1737 H1745 0.929 . S
C1738 C1737 1.383 . S
C1738 C1739 1.377 . S
C1739 H1723 0.930 . S
C1739 C1738 1.377 . S
C1739 C1740 1.379 . S
C1740 H1724 0.931 . S
C1740 C1734 1.383 . S
C1740 C1739 1.379 . S
H1741 C1735 0.959 . S
H1742 C1735 0.961 . S
H1743 C1735 0.960 . S
H1744 C1736 0.930 . S
H1745 C1737 0.929 . S
H1746 C1754 0.929 . S
H1747 C1756 0.930 . S
H1748 C1758 0.930 . S
H1749 C1761 0.929 . S
H1750 C1764 0.930 . S
H1751 C1766 0.960 . S
H1752 C1766 0.960 . S
H1753 C1766 0.960 . S
C1754 H1746 0.929 . S
C1754 C1755 1.377 . S
C1754 C1756 1.384 . S
C1755 C1754 1.377 . S
C1755 C1761 1.390 . S
C1756 H1747 0.930 . S
C1756 C1754 1.384 . S
C1756 C1757 1.372 . S
C1757 C1756 1.372 . S
C1757 C1758 1.400 . S
C1757 C1762 1.490 . S
C1758 H1748 0.930 . S
C1758 C1757 1.400 . S
C1758 C1761 1.386 . S
H1759 C1775 0.930 . S
H1760 C1776 0.931 . S
C1761 H1749 0.929 . S
C1761 C1755 1.390 . S
C1761 C1758 1.386 . S
C1762 C1757 1.490 . S
C1762 C1764 1.395 . S
C1762 C1765 1.403 . S
H1763 C1769 0.930 . S
C1764 H1750 0.930 . S
C1764 C1762 1.395 . S
C1764 C1767 1.403 . S
C1765 C1762 1.403 . S
C1765 C1766 1.524 . S
C1765 C1769 1.400 . S
C1766 H1751 0.960 . S
C1766 H1752 0.960 . S
C1766 H1753 0.960 . S
C1766 C1765 1.524 . S
C1767 C1764 1.403 . S
C1767 C1768 1.392 . S
C1767 C1771 1.495 . S
C1768 C1767 1.392 . S
C1768 C1769 1.385 . S
C1768 C1770 1.478 . S
C1769 H1763 0.930 . S
C1769 C1765 1.400 . S
C1769 C1768 1.385 . S
C1770 C1768 1.478 . S
C1770 C1772 1.381 . S
C1770 C1776 1.383 . S
C1771 C1767 1.495 . S
C1771 H1777 0.959 . S
C1771 H1778 0.961 . S
C1771 H1779 0.960 . S
C1772 C1770 1.381 . S
C1772 C1773 1.394 . S
C1772 H1780 0.930 . S
C1773 C1772 1.394 . S
C1773 C1774 1.383 . S
C1773 H1781 0.929 . S
C1774 C1773 1.383 . S
C1774 C1775 1.377 . S
C1775 H1759 0.930 . S
C1775 C1774 1.377 . S
C1775 C1776 1.379 . S
C1776 H1760 0.931 . S
C1776 C1770 1.383 . S
C1776 C1775 1.379 . S
H1777 C1771 0.959 . S
H1778 C1771 0.961 . S
H1779 C1771 0.960 . S
H1780 C1772 0.930 . S
H1781 C1773 0.929 . S
H1782 C1790 0.929 . S
H1783 C1792 0.930 . S
H1784 C1794 0.930 . S
H1785 C1797 0.929 . S
H1786 C1800 0.930 . S
H1787 C1802 0.960 . S
H1788 C1802 0.960 . S
H1789 C1802 0.960 . S
C1790 H1782 0.929 . S
C1790 C1791 1.377 . S
C1790 C1792 1.384 . S
C1791 C1790 1.377 . S
C1791 C1797 1.390 . S
C1792 H1783 0.930 . S
C1792 C1790 1.384 . S
C1792 C1793 1.372 . S
C1793 C1792 1.372 . S
C1793 C1794 1.400 . S
C1793 C1798 1.490 . S
C1794 H1784 0.930 . S
C1794 C1793 1.400 . S
C1794 C1797 1.386 . S
H1795 C1811 0.930 . S
H1796 C1812 0.931 . S
C1797 H1785 0.929 . S
C1797 C1791 1.390 . S
C1797 C1794 1.386 . S
C1798 C1793 1.490 . S
C1798 C1800 1.395 . S
C1798 C1801 1.403 . S
H1799 C1805 0.930 . S
C1800 H1786 0.930 . S
C1800 C1798 1.395 . S
C1800 C1803 1.403 . S
C1801 C1798 1.403 . S
C1801 C1802 1.524 . S
C1801 C1805 1.400 . S
C1802 H1787 0.960 . S
C1802 H1788 0.960 . S
C1802 H1789 0.960 . S
C1802 C1801 1.524 . S
C1803 C1800 1.403 . S
C1803 C1804 1.392 . S
C1803 C1807 1.495 . S
C1804 C1803 1.392 . S
C1804 C1805 1.385 . S
C1804 C1806 1.478 . S
C1805 H1799 0.930 . S
C1805 C1801 1.400 . S
C1805 C1804 1.385 . S
C1806 C1804 1.478 . S
C1806 C1808 1.381 . S
C1806 C1812 1.383 . S
C1807 C1803 1.495 . S
C1807 H1813 0.959 . S
C1807 H1814 0.961 . S
C1807 H1815 0.960 . S
C1808 C1806 1.381 . S
C1808 C1809 1.394 . S
C1808 H1816 0.930 . S
C1809 C1808 1.394 . S
C1809 C1810 1.383 . S
C1809 H1817 0.929 . S
C1810 C1809 1.383 . S
C1810 C1811 1.377 . S
C1811 H1795 0.930 . S
C1811 C1810 1.377 . S
C1811 C1812 1.379 . S
C1812 H1796 0.931 . S
C1812 C1806 1.383 . S
C1812 C1811 1.379 . S
H1813 C1807 0.959 . S
H1814 C1807 0.961 . S
H1815 C1807 0.960 . S
H1816 C1808 0.930 . S
H1817 C1809 0.929 . S
H1818 C1826 0.929 . S
H1819 C1828 0.930 . S
H1820 C1830 0.930 . S
H1821 C1833 0.929 . S
H1822 C1836 0.930 . S
H1823 C1838 0.960 . S
H1824 C1838 0.960 . S
H1825 C1838 0.960 . S
C1826 H1818 0.929 . S
C1826 C1827 1.377 . S
C1826 C1828 1.384 . S
C1827 C1826 1.377 . S
C1827 C1833 1.390 . S
C1828 H1819 0.930 . S
C1828 C1826 1.384 . S
C1828 C1829 1.372 . S
C1829 C1828 1.372 . S
C1829 C1830 1.400 . S
C1829 C1834 1.490 . S
C1830 H1820 0.930 . S
C1830 C1829 1.400 . S
C1830 C1833 1.386 . S
H1831 C1847 0.930 . S
H1832 C1848 0.931 . S
C1833 H1821 0.929 . S
C1833 C1827 1.390 . S
C1833 C1830 1.386 . S
C1834 C1829 1.490 . S
C1834 C1836 1.395 . S
C1834 C1837 1.403 . S
H1835 C1841 0.930 . S
C1836 H1822 0.930 . S
C1836 C1834 1.395 . S
C1836 C1839 1.403 . S
C1837 C1834 1.403 . S
C1837 C1838 1.524 . S
C1837 C1841 1.400 . S
C1838 H1823 0.960 . S
C1838 H1824 0.960 . S
C1838 H1825 0.960 . S
C1838 C1837 1.524 . S
C1839 C1836 1.403 . S
C1839 C1840 1.392 . S
C1839 C1843 1.495 . S
C1840 C1839 1.392 . S
C1840 C1841 1.385 . S
C1840 C1842 1.478 . S
C1841 H1835 0.930 . S
C1841 C1837 1.400 . S
C1841 C1840 1.385 . S
C1842 C1840 1.478 . S
C1842 C1844 1.381 . S
C1842 C1848 1.383 . S
C1843 C1839 1.495 . S
C1843 H1849 0.959 . S
C1843 H1850 0.961 . S
C1843 H1851 0.960 . S
C1844 C1842 1.381 . S
C1844 C1845 1.394 . S
C1844 H1852 0.930 . S
C1845 C1844 1.394 . S
C1845 C1846 1.383 . S
C1845 H1853 0.929 . S
C1846 C1845 1.383 . S
C1846 C1847 1.377 . S
C1847 H1831 0.930 . S
C1847 C1846 1.377 . S
C1847 C1848 1.379 . S
C1848 H1832 0.931 . S
C1848 C1842 1.383 . S
C1848 C1847 1.379 . S
H1849 C1843 0.959 . S
H1850 C1843 0.961 . S
H1851 C1843 0.960 . S
H1852 C1844 0.930 . S
H1853 C1845 0.929 . S
H1854 C1862 0.929 . S
H1855 C1864 0.930 . S
H1856 C1866 0.930 . S
H1857 C1869 0.929 . S
H1858 C1872 0.930 . S
H1859 C1874 0.960 . S
H1860 C1874 0.960 . S
H1861 C1874 0.960 . S
C1862 H1854 0.929 . S
C1862 C1863 1.377 . S
C1862 C1864 1.384 . S
C1863 C1862 1.377 . S
C1863 C1869 1.390 . S
C1864 H1855 0.930 . S
C1864 C1862 1.384 . S
C1864 C1865 1.372 . S
C1865 C1864 1.372 . S
C1865 C1866 1.400 . S
C1865 C1870 1.490 . S
C1866 H1856 0.930 . S
C1866 C1865 1.400 . S
C1866 C1869 1.386 . S
H1867 C1883 0.930 . S
H1868 C1884 0.931 . S
C1869 H1857 0.929 . S
C1869 C1863 1.390 . S
C1869 C1866 1.386 . S
C1870 C1865 1.490 . S
C1870 C1872 1.395 . S
C1870 C1873 1.403 . S
H1871 C1877 0.930 . S
C1872 H1858 0.930 . S
C1872 C1870 1.395 . S
C1872 C1875 1.403 . S
C1873 C1870 1.403 . S
C1873 C1874 1.524 . S
C1873 C1877 1.400 . S
C1874 H1859 0.960 . S
C1874 H1860 0.960 . S
C1874 H1861 0.960 . S
C1874 C1873 1.524 . S
C1875 C1872 1.403 . S
C1875 C1876 1.392 . S
C1875 C1879 1.495 . S
C1876 C1875 1.392 . S
C1876 C1877 1.385 . S
C1876 C1878 1.478 . S
C1877 H1871 0.930 . S
C1877 C1873 1.400 . S
C1877 C1876 1.385 . S
C1878 C1876 1.478 . S
C1878 C1880 1.381 . S
C1878 C1884 1.383 . S
C1879 C1875 1.495 . S
C1879 H1885 0.959 . S
C1879 H1886 0.961 . S
C1879 H1887 0.960 . S
C1880 C1878 1.381 . S
C1880 C1881 1.394 . S
C1880 H1888 0.930 . S
C1881 C1880 1.394 . S
C1881 C1882 1.383 . S
C1881 H1889 0.929 . S
C1882 C1881 1.383 . S
C1882 C1883 1.377 . S
C1883 H1867 0.930 . S
C1883 C1882 1.377 . S
C1883 C1884 1.379 . S
C1884 H1868 0.931 . S
C1884 C1878 1.383 . S
C1884 C1883 1.379 . S
H1885 C1879 0.959 . S
H1886 C1879 0.961 . S
H1887 C1879 0.960 . S
H1888 C1880 0.930 . S
H1889 C1881 0.929 . S
H1890 C1898 0.929 . S
H1891 C1900 0.930 . S
H1892 C1902 0.930 . S
H1893 C1905 0.929 . S
H1894 C1908 0.930 . S
H1895 C1910 0.960 . S
H1896 C1910 0.960 . S
H1897 C1910 0.960 . S
C1898 H1890 0.929 . S
C1898 C1899 1.377 . S
C1898 C1900 1.384 . S
C1899 C1898 1.377 . S
C1899 C1905 1.390 . S
C1900 H1891 0.930 . S
C1900 C1898 1.384 . S
C1900 C1901 1.372 . S
C1901 C1900 1.372 . S
C1901 C1902 1.400 . S
C1901 C1906 1.490 . S
C1902 H1892 0.930 . S
C1902 C1901 1.400 . S
C1902 C1905 1.386 . S
H1903 C1919 0.930 . S
H1904 C1920 0.931 . S
C1905 H1893 0.929 . S
C1905 C1899 1.390 . S
C1905 C1902 1.386 . S
C1906 C1901 1.490 . S
C1906 C1908 1.395 . S
C1906 C1909 1.403 . S
H1907 C1913 0.930 . S
C1908 H1894 0.930 . S
C1908 C1906 1.395 . S
C1908 C1911 1.403 . S
C1909 C1906 1.403 . S
C1909 C1910 1.524 . S
C1909 C1913 1.400 . S
C1910 H1895 0.960 . S
C1910 H1896 0.960 . S
C1910 H1897 0.960 . S
C1910 C1909 1.524 . S
C1911 C1908 1.403 . S
C1911 C1912 1.392 . S
C1911 C1915 1.495 . S
C1912 C1911 1.392 . S
C1912 C1913 1.385 . S
C1912 C1914 1.478 . S
C1913 H1907 0.930 . S
C1913 C1909 1.400 . S
C1913 C1912 1.385 . S
C1914 C1912 1.478 . S
C1914 C1916 1.381 . S
C1914 C1920 1.383 . S
C1915 C1911 1.495 . S
C1915 H1921 0.959 . S
C1915 H1922 0.961 . S
C1915 H1923 0.960 . S
C1916 C1914 1.381 . S
C1916 C1917 1.394 . S
C1916 H1924 0.930 . S
C1917 C1916 1.394 . S
C1917 C1918 1.383 . S
C1917 H1925 0.929 . S
C1918 C1917 1.383 . S
C1918 C1919 1.377 . S
C1919 H1903 0.930 . S
C1919 C1918 1.377 . S
C1919 C1920 1.379 . S
C1920 H1904 0.931 . S
C1920 C1914 1.383 . S
C1920 C1919 1.379 . S
H1921 C1915 0.959 . S
H1922 C1915 0.961 . S
H1923 C1915 0.960 . S
H1924 C1916 0.930 . S
H1925 C1917 0.929 . S
H1926 C1934 0.929 . S
H1927 C1936 0.930 . S
H1928 C1938 0.930 . S
H1929 C1941 0.929 . S
H1930 C1944 0.930 . S
H1931 C1946 0.960 . S
H1932 C1946 0.960 . S
H1933 C1946 0.960 . S
C1934 H1926 0.929 . S
C1934 C1935 1.377 . S
C1934 C1936 1.384 . S
C1935 C1934 1.377 . S
C1935 C1941 1.390 . S
C1936 H1927 0.930 . S
C1936 C1934 1.384 . S
C1936 C1937 1.372 . S
C1937 C1936 1.372 . S
C1937 C1938 1.400 . S
C1937 C1942 1.490 . S
C1938 H1928 0.930 . S
C1938 C1937 1.400 . S
C1938 C1941 1.386 . S
H1939 C1955 0.930 . S
H1940 C1956 0.931 . S
C1941 H1929 0.929 . S
C1941 C1935 1.390 . S
C1941 C1938 1.386 . S
C1942 C1937 1.490 . S
C1942 C1944 1.395 . S
C1942 C1945 1.403 . S
H1943 C1949 0.930 . S
C1944 H1930 0.930 . S
C1944 C1942 1.395 . S
C1944 C1947 1.403 . S
C1945 C1942 1.403 . S
C1945 C1946 1.524 . S
C1945 C1949 1.400 . S
C1946 H1931 0.960 . S
C1946 H1932 0.960 . S
C1946 H1933 0.960 . S
C1946 C1945 1.524 . S
C1947 C1944 1.403 . S
C1947 C1948 1.392 . S
C1947 C1951 1.495 . S
C1948 C1947 1.392 . S
C1948 C1949 1.385 . S
C1948 C1950 1.478 . S
C1949 H1943 0.930 . S
C1949 C1945 1.400 . S
C1949 C1948 1.385 . S
C1950 C1948 1.478 . S
C1950 C1952 1.381 . S
C1950 C1956 1.383 . S
C1951 C1947 1.495 . S
C1951 H1957 0.959 . S
C1951 H1958 0.961 . S
C1951 H1959 0.960 . S
C1952 C1950 1.381 . S
C1952 C1953 1.394 . S
C1952 H1960 0.930 . S
C1953 C1952 1.394 . S
C1953 C1954 1.383 . S
C1953 H1961 0.929 . S
C1954 C1953 1.383 . S
C1954 C1955 1.377 . S
C1955 H1939 0.930 . S
C1955 C1954 1.377 . S
C1955 C1956 1.379 . S
C1956 H1940 0.931 . S
C1956 C1950 1.383 . S
C1956 C1955 1.379 . S
H1957 C1951 0.959 . S
H1958 C1951 0.961 . S
H1959 C1951 0.960 . S
H1960 C1952 0.930 . S
H1961 C1953 0.929 . S
H1962 C1970 0.929 . S
H1963 C1972 0.930 . S
H1964 C1974 0.930 . S
H1965 C1977 0.929 . S
H1966 C1980 0.930 . S
H1967 C1982 0.960 . S
H1968 C1982 0.960 . S
H1969 C1982 0.960 . S
C1970 H1962 0.929 . S
C1970 C1971 1.377 . S
C1970 C1972 1.384 . S
C1971 C1970 1.377 . S
C1971 C1977 1.390 . S
C1972 H1963 0.930 . S
C1972 C1970 1.384 . S
C1972 C1973 1.372 . S
C1973 C1972 1.372 . S
C1973 C1974 1.400 . S
C1973 C1978 1.490 . S
C1974 H1964 0.930 . S
C1974 C1973 1.400 . S
C1974 C1977 1.386 . S
H1975 C1991 0.930 . S
H1976 C1992 0.931 . S
C1977 H1965 0.929 . S
C1977 C1971 1.390 . S
C1977 C1974 1.386 . S
C1978 C1973 1.490 . S
C1978 C1980 1.395 . S
C1978 C1981 1.403 . S
H1979 C1985 0.930 . S
C1980 H1966 0.930 . S
C1980 C1978 1.395 . S
C1980 C1983 1.403 . S
C1981 C1978 1.403 . S
C1981 C1982 1.524 . S
C1981 C1985 1.400 . S
C1982 H1967 0.960 . S
C1982 H1968 0.960 . S
C1982 H1969 0.960 . S
C1982 C1981 1.524 . S
C1983 C1980 1.403 . S
C1983 C1984 1.392 . S
C1983 C1987 1.495 . S
C1984 C1983 1.392 . S
C1984 C1985 1.385 . S
C1984 C1986 1.478 . S
C1985 H1979 0.930 . S
C1985 C1981 1.400 . S
C1985 C1984 1.385 . S
C1986 C1984 1.478 . S
C1986 C1988 1.381 . S
C1986 C1992 1.383 . S
C1987 C1983 1.495 . S
C1987 H1993 0.959 . S
C1987 H1994 0.961 . S
C1987 H1995 0.960 . S
C1988 C1986 1.381 . S
C1988 C1989 1.394 . S
C1988 H1996 0.930 . S
C1989 C1988 1.394 . S
C1989 C1990 1.383 . S
C1989 H1997 0.929 . S
C1990 C1989 1.383 . S
C1990 C1991 1.377 . S
C1991 H1975 0.930 . S
C1991 C1990 1.377 . S
C1991 C1992 1.379 . S
C1992 H1976 0.931 . S
C1992 C1986 1.383 . S
C1992 C1991 1.379 . S
H1993 C1987 0.959 . S
H1994 C1987 0.961 . S
H1995 C1987 0.960 . S
H1996 C1988 0.930 . S
H1997 C1989 0.929 . S
H1998 C2006 0.929 . S
H1999 C2008 0.930 . S
H2000 C2010 0.930 . S
H2001 C2013 0.929 . S
H2002 C2016 0.930 . S
H2003 C2018 0.960 . S
H2004 C2018 0.960 . S
H2005 C2018 0.960 . S
C2006 H1998 0.929 . S
C2006 C2007 1.377 . S
C2006 C2008 1.384 . S
C2007 C2006 1.377 . S
C2007 C2013 1.390 . S
C2008 H1999 0.930 . S
C2008 C2006 1.384 . S
C2008 C2009 1.372 . S
C2009 C2008 1.372 . S
C2009 C2010 1.400 . S
C2009 C2014 1.490 . S
C2010 H2000 0.930 . S
C2010 C2009 1.400 . S
C2010 C2013 1.386 . S
H2011 C2027 0.930 . S
H2012 C2028 0.931 . S
C2013 H2001 0.929 . S
C2013 C2007 1.390 . S
C2013 C2010 1.386 . S
C2014 C2009 1.490 . S
C2014 C2016 1.395 . S
C2014 C2017 1.403 . S
H2015 C2021 0.930 . S
C2016 H2002 0.930 . S
C2016 C2014 1.395 . S
C2016 C2019 1.403 . S
C2017 C2014 1.403 . S
C2017 C2018 1.524 . S
C2017 C2021 1.400 . S
C2018 H2003 0.960 . S
C2018 H2004 0.960 . S
C2018 H2005 0.960 . S
C2018 C2017 1.524 . S
C2019 C2016 1.403 . S
C2019 C2020 1.392 . S
C2019 C2023 1.495 . S
C2020 C2019 1.392 . S
C2020 C2021 1.385 . S
C2020 C2022 1.478 . S
C2021 H2015 0.930 . S
C2021 C2017 1.400 . S
C2021 C2020 1.385 . S
C2022 C2020 1.478 . S
C2022 C2024 1.381 . S
C2022 C2028 1.383 . S
C2023 C2019 1.495 . S
C2023 H2029 0.959 . S
C2023 H2030 0.961 . S
C2023 H2031 0.960 . S
C2024 C2022 1.381 . S
C2024 C2025 1.394 . S
C2024 H2032 0.930 . S
C2025 C2024 1.394 . S
C2025 C2026 1.383 . S
C2025 H2033 0.929 . S
C2026 C2025 1.383 . S
C2026 C2027 1.377 . S
C2027 H2011 0.930 . S
C2027 C2026 1.377 . S
C2027 C2028 1.379 . S
C2028 H2012 0.931 . S
C2028 C2022 1.383 . S
C2028 C2027 1.379 . S
H2029 C2023 0.959 . S
H2030 C2023 0.961 . S
H2031 C2023 0.960 . S
H2032 C2024 0.930 . S
H2033 C2025 0.929 . S
H2034 C2042 0.929 . S
H2035 C2044 0.930 . S
H2036 C2046 0.930 . S
H2037 C2049 0.929 . S
H2038 C2052 0.930 . S
H2039 C2054 0.960 . S
H2040 C2054 0.960 . S
H2041 C2054 0.960 . S
C2042 H2034 0.929 . S
C2042 C2043 1.377 . S
C2042 C2044 1.384 . S
C2043 C2042 1.377 . S
C2043 C2049 1.390 . S
C2044 H2035 0.930 . S
C2044 C2042 1.384 . S
C2044 C2045 1.372 . S
C2045 C2044 1.372 . S
C2045 C2046 1.400 . S
C2045 C2050 1.490 . S
C2046 H2036 0.930 . S
C2046 C2045 1.400 . S
C2046 C2049 1.386 . S
H2047 C2063 0.930 . S
H2048 C2064 0.931 . S
C2049 H2037 0.929 . S
C2049 C2043 1.390 . S
C2049 C2046 1.386 . S
C2050 C2045 1.490 . S
C2050 C2052 1.395 . S
C2050 C2053 1.403 . S
H2051 C2057 0.930 . S
C2052 H2038 0.930 . S
C2052 C2050 1.395 . S
C2052 C2055 1.403 . S
C2053 C2050 1.403 . S
C2053 C2054 1.524 . S
C2053 C2057 1.400 . S
C2054 H2039 0.960 . S
C2054 H2040 0.960 . S
C2054 H2041 0.960 . S
C2054 C2053 1.524 . S
C2055 C2052 1.403 . S
C2055 C2056 1.392 . S
C2055 C2059 1.495 . S
C2056 C2055 1.392 . S
C2056 C2057 1.385 . S
C2056 C2058 1.478 . S
C2057 H2051 0.930 . S
C2057 C2053 1.400 . S
C2057 C2056 1.385 . S
C2058 C2056 1.478 . S
C2058 C2060 1.381 . S
C2058 C2064 1.383 . S
C2059 C2055 1.495 . S
C2059 H2065 0.959 . S
C2059 H2066 0.961 . S
C2059 H2067 0.960 . S
C2060 C2058 1.381 . S
C2060 C2061 1.394 . S
C2060 H2068 0.930 . S
C2061 C2060 1.394 . S
C2061 C2062 1.383 . S
C2061 H2069 0.929 . S
C2062 C2061 1.383 . S
C2062 C2063 1.377 . S
C2063 H2047 0.930 . S
C2063 C2062 1.377 . S
C2063 C2064 1.379 . S
C2064 H2048 0.931 . S
C2064 C2058 1.383 . S
C2064 C2063 1.379 . S
H2065 C2059 0.959 . S
H2066 C2059 0.961 . S
H2067 C2059 0.960 . S
H2068 C2060 0.930 . S
H2069 C2061 0.929 . S
H2070 C2078 0.929 . S
H2071 C2080 0.930 . S
H2072 C2082 0.930 . S
H2073 C2085 0.929 . S
H2074 C2088 0.930 . S
H2075 C2090 0.960 . S
H2076 C2090 0.960 . S
H2077 C2090 0.960 . S
C2078 H2070 0.929 . S
C2078 C2079 1.377 . S
C2078 C2080 1.384 . S
C2079 C2078 1.377 . S
C2079 C2085 1.390 . S
C2080 H2071 0.930 . S
C2080 C2078 1.384 . S
C2080 C2081 1.372 . S
C2081 C2080 1.372 . S
C2081 C2082 1.400 . S
C2081 C2086 1.490 . S
C2082 H2072 0.930 . S
C2082 C2081 1.400 . S
C2082 C2085 1.386 . S
H2083 C2099 0.930 . S
H2084 C2100 0.931 . S
C2085 H2073 0.929 . S
C2085 C2079 1.390 . S
C2085 C2082 1.386 . S
C2086 C2081 1.490 . S
C2086 C2088 1.395 . S
C2086 C2089 1.403 . S
H2087 C2093 0.930 . S
C2088 H2074 0.930 . S
C2088 C2086 1.395 . S
C2088 C2091 1.403 . S
C2089 C2086 1.403 . S
C2089 C2090 1.524 . S
C2089 C2093 1.400 . S
C2090 H2075 0.960 . S
C2090 H2076 0.960 . S
C2090 H2077 0.960 . S
C2090 C2089 1.524 . S
C2091 C2088 1.403 . S
C2091 C2092 1.392 . S
C2091 C2095 1.495 . S
C2092 C2091 1.392 . S
C2092 C2093 1.385 . S
C2092 C2094 1.478 . S
C2093 H2087 0.930 . S
C2093 C2089 1.400 . S
C2093 C2092 1.385 . S
C2094 C2092 1.478 . S
C2094 C2096 1.381 . S
C2094 C2100 1.383 . S
C2095 C2091 1.495 . S
C2095 H2101 0.959 . S
C2095 H2102 0.961 . S
C2095 H2103 0.960 . S
C2096 C2094 1.381 . S
C2096 C2097 1.394 . S
C2096 H2104 0.930 . S
C2097 C2096 1.394 . S
C2097 C2098 1.383 . S
C2097 H2105 0.929 . S
C2098 C2097 1.383 . S
C2098 C2099 1.377 . S
C2099 H2083 0.930 . S
C2099 C2098 1.377 . S
C2099 C2100 1.379 . S
C2100 H2084 0.931 . S
C2100 C2094 1.383 . S
C2100 C2099 1.379 . S
H2101 C2095 0.959 . S
H2102 C2095 0.961 . S
H2103 C2095 0.960 . S
H2104 C2096 0.930 . S
H2105 C2097 0.929 . S
H2106 C2114 0.929 . S
H2107 C2116 0.930 . S
H2108 C2118 0.930 . S
H2109 C2121 0.929 . S
H2110 C2124 0.930 . S
H2111 C2126 0.960 . S
H2112 C2126 0.960 . S
H2113 C2126 0.960 . S
C2114 H2106 0.929 . S
C2114 C2115 1.377 . S
C2114 C2116 1.384 . S
C2115 C2114 1.377 . S
C2115 C2121 1.390 . S
C2116 H2107 0.930 . S
C2116 C2114 1.384 . S
C2116 C2117 1.372 . S
C2117 C2116 1.372 . S
C2117 C2118 1.400 . S
C2117 C2122 1.490 . S
C2118 H2108 0.930 . S
C2118 C2117 1.400 . S
C2118 C2121 1.386 . S
H2119 C2135 0.930 . S
H2120 C2136 0.931 . S
C2121 H2109 0.929 . S
C2121 C2115 1.390 . S
C2121 C2118 1.386 . S
C2122 C2117 1.490 . S
C2122 C2124 1.395 . S
C2122 C2125 1.403 . S
H2123 C2129 0.930 . S
C2124 H2110 0.930 . S
C2124 C2122 1.395 . S
C2124 C2127 1.403 . S
C2125 C2122 1.403 . S
C2125 C2126 1.524 . S
C2125 C2129 1.400 . S
C2126 H2111 0.960 . S
C2126 H2112 0.960 . S
C2126 H2113 0.960 . S
C2126 C2125 1.524 . S
C2127 C2124 1.403 . S
C2127 C2128 1.392 . S
C2127 C2131 1.495 . S
C2128 C2127 1.392 . S
C2128 C2129 1.385 . S
C2128 C2130 1.478 . S
C2129 H2123 0.930 . S
C2129 C2125 1.400 . S
C2129 C2128 1.385 . S
C2130 C2128 1.478 . S
C2130 C2132 1.381 . S
C2130 C2136 1.383 . S
C2131 C2127 1.495 . S
C2131 H2137 0.959 . S
C2131 H2138 0.961 . S
C2131 H2139 0.960 . S
C2132 C2130 1.381 . S
C2132 C2133 1.394 . S
C2132 H2140 0.930 . S
C2133 C2132 1.394 . S
C2133 C2134 1.383 . S
C2133 H2141 0.929 . S
C2134 C2133 1.383 . S
C2134 C2135 1.377 . S
C2135 H2119 0.930 . S
C2135 C2134 1.377 . S
C2135 C2136 1.379 . S
C2136 H2120 0.931 . S
C2136 C2130 1.383 . S
C2136 C2135 1.379 . S
H2137 C2131 0.959 . S
H2138 C2131 0.961 . S
H2139 C2131 0.960 . S
H2140 C2132 0.930 . S
H2141 C2133 0.929 . S
H2142 C2150 0.929 . S
H2143 C2152 0.930 . S
H2144 C2154 0.930 . S
H2145 C2157 0.929 . S
H2146 C2160 0.930 . S
H2147 C2162 0.960 . S
H2148 C2162 0.960 . S
H2149 C2162 0.960 . S
C2150 H2142 0.929 . S
C2150 C2151 1.377 . S
C2150 C2152 1.384 . S
C2151 C2150 1.377 . S
C2151 C2157 1.390 . S
C2152 H2143 0.930 . S
C2152 C2150 1.384 . S
C2152 C2153 1.372 . S
C2153 C2152 1.372 . S
C2153 C2154 1.400 . S
C2153 C2158 1.490 . S
C2154 H2144 0.930 . S
C2154 C2153 1.400 . S
C2154 C2157 1.386 . S
H2155 C2171 0.930 . S
H2156 C2172 0.931 . S
C2157 H2145 0.929 . S
C2157 C2151 1.390 . S
C2157 C2154 1.386 . S
C2158 C2153 1.490 . S
C2158 C2160 1.395 . S
C2158 C2161 1.403 . S
H2159 C2165 0.930 . S
C2160 H2146 0.930 . S
C2160 C2158 1.395 . S
C2160 C2163 1.403 . S
C2161 C2158 1.403 . S
C2161 C2162 1.524 . S
C2161 C2165 1.400 . S
C2162 H2147 0.960 . S
C2162 H2148 0.960 . S
C2162 H2149 0.960 . S
C2162 C2161 1.524 . S
C2163 C2160 1.403 . S
C2163 C2164 1.392 . S
C2163 C2167 1.495 . S
C2164 C2163 1.392 . S
C2164 C2165 1.385 . S
C2164 C2166 1.478 . S
C2165 H2159 0.930 . S
C2165 C2161 1.400 . S
C2165 C2164 1.385 . S
C2166 C2164 1.478 . S
C2166 C2168 1.381 . S
C2166 C2172 1.383 . S
C2167 C2163 1.495 . S
C2167 H2173 0.959 . S
C2167 H2174 0.961 . S
C2167 H2175 0.960 . S
C2168 C2166 1.381 . S
C2168 C2169 1.394 . S
C2168 H2176 0.930 . S
C2169 C2168 1.394 . S
C2169 C2170 1.383 . S
C2169 H2177 0.929 . S
C2170 C2169 1.383 . S
C2170 C2171 1.377 . S
C2171 H2155 0.930 . S
C2171 C2170 1.377 . S
C2171 C2172 1.379 . S
C2172 H2156 0.931 . S
C2172 C2166 1.383 . S
C2172 C2171 1.379 . S
H2173 C2167 0.959 . S
H2174 C2167 0.961 . S
H2175 C2167 0.960 . S
H2176 C2168 0.930 . S
H2177 C2169 0.929 . S
H2178 C2186 0.929 . S
H2179 C2188 0.930 . S
H2180 C2190 0.930 . S
H2181 C2193 0.929 . S
H2182 C2196 0.930 . S
H2183 C2198 0.960 . S
H2184 C2198 0.960 . S
H2185 C2198 0.960 . S
C2186 H2178 0.929 . S
C2186 C2187 1.377 . S
C2186 C2188 1.384 . S
C2187 C2186 1.377 . S
C2187 C2193 1.390 . S
C2188 H2179 0.930 . S
C2188 C2186 1.384 . S
C2188 C2189 1.372 . S
C2189 C2188 1.372 . S
C2189 C2190 1.400 . S
C2189 C2194 1.490 . S
C2190 H2180 0.930 . S
C2190 C2189 1.400 . S
C2190 C2193 1.386 . S
H2191 C2207 0.930 . S
H2192 C2208 0.931 . S
C2193 H2181 0.929 . S
C2193 C2187 1.390 . S
C2193 C2190 1.386 . S
C2194 C2189 1.490 . S
C2194 C2196 1.395 . S
C2194 C2197 1.403 . S
H2195 C2201 0.930 . S
C2196 H2182 0.930 . S
C2196 C2194 1.395 . S
C2196 C2199 1.403 . S
C2197 C2194 1.403 . S
C2197 C2198 1.524 . S
C2197 C2201 1.400 . S
C2198 H2183 0.960 . S
C2198 H2184 0.960 . S
C2198 H2185 0.960 . S
C2198 C2197 1.524 . S
C2199 C2196 1.403 . S
C2199 C2200 1.392 . S
C2199 C2203 1.495 . S
C2200 C2199 1.392 . S
C2200 C2201 1.385 . S
C2200 C2202 1.478 . S
C2201 H2195 0.930 . S
C2201 C2197 1.400 . S
C2201 C2200 1.385 . S
C2202 C2200 1.478 . S
C2202 C2204 1.381 . S
C2202 C2208 1.383 . S
C2203 C2199 1.495 . S
C2203 H2209 0.959 . S
C2203 H2210 0.961 . S
C2203 H2211 0.960 . S
C2204 C2202 1.381 . S
C2204 C2205 1.394 . S
C2204 H2212 0.930 . S
C2205 C2204 1.394 . S
C2205 C2206 1.383 . S
C2205 H2213 0.929 . S
C2206 C2205 1.383 . S
C2206 C2207 1.377 . S
C2207 H2191 0.930 . S
C2207 C2206 1.377 . S
C2207 C2208 1.379 . S
C2208 H2192 0.931 . S
C2208 C2202 1.383 . S
C2208 C2207 1.379 . S
H2209 C2203 0.959 . S
H2210 C2203 0.961 . S
H2211 C2203 0.960 . S
H2212 C2204 0.930 . S
H2213 C2205 0.929 . S
H2214 C2222 0.929 . S
H2215 C2224 0.930 . S
H2216 C2226 0.930 . S
H2217 C2229 0.929 . S
H2218 C2232 0.930 . S
H2219 C2234 0.960 . S
H2220 C2234 0.960 . S
H2221 C2234 0.960 . S
C2222 H2214 0.929 . S
C2222 C2223 1.377 . S
C2222 C2224 1.384 . S
C2223 C2222 1.377 . S
C2223 C2229 1.390 . S
C2224 H2215 0.930 . S
C2224 C2222 1.384 . S
C2224 C2225 1.372 . S
C2225 C2224 1.372 . S
C2225 C2226 1.400 . S
C2225 C2230 1.490 . S
C2226 H2216 0.930 . S
C2226 C2225 1.400 . S
C2226 C2229 1.386 . S
H2227 C2243 0.930 . S
H2228 C2244 0.931 . S
C2229 H2217 0.929 . S
C2229 C2223 1.390 . S
C2229 C2226 1.386 . S
C2230 C2225 1.490 . S
C2230 C2232 1.395 . S
C2230 C2233 1.403 . S
H2231 C2237 0.930 . S
C2232 H2218 0.930 . S
C2232 C2230 1.395 . S
C2232 C2235 1.403 . S
C2233 C2230 1.403 . S
C2233 C2234 1.524 . S
C2233 C2237 1.400 . S
C2234 H2219 0.960 . S
C2234 H2220 0.960 . S
C2234 H2221 0.960 . S
C2234 C2233 1.524 . S
C2235 C2232 1.403 . S
C2235 C2236 1.392 . S
C2235 C2239 1.495 . S
C2236 C2235 1.392 . S
C2236 C2237 1.385 . S
C2236 C2238 1.478 . S
C2237 H2231 0.930 . S
C2237 C2233 1.400 . S
C2237 C2236 1.385 . S
C2238 C2236 1.478 . S
C2238 C2240 1.381 . S
C2238 C2244 1.383 . S
C2239 C2235 1.495 . S
C2239 H2245 0.959 . S
C2239 H2246 0.961 . S
C2239 H2247 0.960 . S
C2240 C2238 1.381 . S
C2240 C2241 1.394 . S
C2240 H2248 0.930 . S
C2241 C2240 1.394 . S
C2241 C2242 1.383 . S
C2241 H2249 0.929 . S
C2242 C2241 1.383 . S
C2242 C2243 1.377 . S
C2243 H2227 0.930 . S
C2243 C2242 1.377 . S
C2243 C2244 1.379 . S
C2244 H2228 0.931 . S
C2244 C2238 1.383 . S
C2244 C2243 1.379 . S
H2245 C2239 0.959 . S
H2246 C2239 0.961 . S
H2247 C2239 0.960 . S
H2248 C2240 0.930 . S
H2249 C2241 0.929 . S
H2250 C2258 0.929 . S
H2251 C2260 0.930 . S
H2252 C2262 0.930 . S
H2253 C2265 0.929 . S
H2254 C2268 0.930 . S
H2255 C2270 0.960 . S
H2256 C2270 0.960 . S
H2257 C2270 0.960 . S
C2258 H2250 0.929 . S
C2258 C2259 1.377 . S
C2258 C2260 1.384 . S
C2259 C2258 1.377 . S
C2259 C2265 1.390 . S
C2260 H2251 0.930 . S
C2260 C2258 1.384 . S
C2260 C2261 1.372 . S
C2261 C2260 1.372 . S
C2261 C2262 1.400 . S
C2261 C2266 1.490 . S
C2262 H2252 0.930 . S
C2262 C2261 1.400 . S
C2262 C2265 1.386 . S
H2263 C2279 0.930 . S
H2264 C2280 0.931 . S
C2265 H2253 0.929 . S
C2265 C2259 1.390 . S
C2265 C2262 1.386 . S
C2266 C2261 1.490 . S
C2266 C2268 1.395 . S
C2266 C2269 1.403 . S
H2267 C2273 0.930 . S
C2268 H2254 0.930 . S
C2268 C2266 1.395 . S
C2268 C2271 1.403 . S
C2269 C2266 1.403 . S
C2269 C2270 1.524 . S
C2269 C2273 1.400 . S
C2270 H2255 0.960 . S
C2270 H2256 0.960 . S
C2270 H2257 0.960 . S
C2270 C2269 1.524 . S
C2271 C2268 1.403 . S
C2271 C2272 1.392 . S
C2271 C2275 1.495 . S
C2272 C2271 1.392 . S
C2272 C2273 1.385 . S
C2272 C2274 1.478 . S
C2273 H2267 0.930 . S
C2273 C2269 1.400 . S
C2273 C2272 1.385 . S
C2274 C2272 1.478 . S
C2274 C2276 1.381 . S
C2274 C2280 1.383 . S
C2275 C2271 1.495 . S
C2275 H2281 0.959 . S
C2275 H2282 0.961 . S
C2275 H2283 0.960 . S
C2276 C2274 1.381 . S
C2276 C2277 1.394 . S
C2276 H2284 0.930 . S
C2277 C2276 1.394 . S
C2277 C2278 1.383 . S
C2277 H2285 0.929 . S
C2278 C2277 1.383 . S
C2278 C2279 1.377 . S
C2279 H2263 0.930 . S
C2279 C2278 1.377 . S
C2279 C2280 1.379 . S
C2280 H2264 0.931 . S
C2280 C2274 1.383 . S
C2280 C2279 1.379 . S
H2281 C2275 0.959 . S
H2282 C2275 0.961 . S
H2283 C2275 0.960 . S
H2284 C2276 0.930 . S
H2285 C2277 0.929 . S
H2286 C2294 0.929 . S
H2287 C2296 0.930 . S
H2288 C2298 0.930 . S
H2289 C2301 0.929 . S
H2290 C2304 0.930 . S
H2291 C2306 0.960 . S
H2292 C2306 0.960 . S
H2293 C2306 0.960 . S
C2294 H2286 0.929 . S
C2294 C2295 1.377 . S
C2294 C2296 1.384 . S
C2295 C2294 1.377 . S
C2295 C2301 1.390 . S
C2296 H2287 0.930 . S
C2296 C2294 1.384 . S
C2296 C2297 1.372 . S
C2297 C2296 1.372 . S
C2297 C2298 1.400 . S
C2297 C2302 1.490 . S
C2298 H2288 0.930 . S
C2298 C2297 1.400 . S
C2298 C2301 1.386 . S
H2299 C2315 0.930 . S
H2300 C2316 0.931 . S
C2301 H2289 0.929 . S
C2301 C2295 1.390 . S
C2301 C2298 1.386 . S
C2302 C2297 1.490 . S
C2302 C2304 1.395 . S
C2302 C2305 1.403 . S
H2303 C2309 0.930 . S
C2304 H2290 0.930 . S
C2304 C2302 1.395 . S
C2304 C2307 1.403 . S
C2305 C2302 1.403 . S
C2305 C2306 1.524 . S
C2305 C2309 1.400 . S
C2306 H2291 0.960 . S
C2306 H2292 0.960 . S
C2306 H2293 0.960 . S
C2306 C2305 1.524 . S
C2307 C2304 1.403 . S
C2307 C2308 1.392 . S
C2307 C2311 1.495 . S
C2308 C2307 1.392 . S
C2308 C2309 1.385 . S
C2308 C2310 1.478 . S
C2309 H2303 0.930 . S
C2309 C2305 1.400 . S
C2309 C2308 1.385 . S
C2310 C2308 1.478 . S
C2310 C2312 1.381 . S
C2310 C2316 1.383 . S
C2311 C2307 1.495 . S
C2311 H2317 0.959 . S
C2311 H2318 0.961 . S
C2311 H2319 0.960 . S
C2312 C2310 1.381 . S
C2312 C2313 1.394 . S
C2312 H2320 0.930 . S
C2313 C2312 1.394 . S
C2313 C2314 1.383 . S
C2313 H2321 0.929 . S
C2314 C2313 1.383 . S
C2314 C2315 1.377 . S
C2315 H2299 0.930 . S
C2315 C2314 1.377 . S
C2315 C2316 1.379 . S
C2316 H2300 0.931 . S
C2316 C2310 1.383 . S
C2316 C2315 1.379 . S
H2317 C2311 0.959 . S
H2318 C2311 0.961 . S
H2319 C2311 0.960 . S
H2320 C2312 0.930 . S
H2321 C2313 0.929 . S
H2322 C2330 0.929 . S
H2323 C2332 0.930 . S
H2324 C2334 0.930 . S
H2325 C2337 0.929 . S
H2326 C2340 0.930 . S
H2327 C2342 0.960 . S
H2328 C2342 0.960 . S
H2329 C2342 0.960 . S
C2330 H2322 0.929 . S
C2330 C2331 1.377 . S
C2330 C2332 1.384 . S
C2331 C2330 1.377 . S
C2331 C2337 1.390 . S
C2332 H2323 0.930 . S
C2332 C2330 1.384 . S
C2332 C2333 1.372 . S
C2333 C2332 1.372 . S
C2333 C2334 1.400 . S
C2333 C2338 1.490 . S
C2334 H2324 0.930 . S
C2334 C2333 1.400 . S
C2334 C2337 1.386 . S
H2335 C2351 0.930 . S
H2336 C2352 0.931 . S
C2337 H2325 0.929 . S
C2337 C2331 1.390 . S
C2337 C2334 1.386 . S
C2338 C2333 1.490 . S
C2338 C2340 1.395 . S
C2338 C2341 1.403 . S
H2339 C2345 0.930 . S
C2340 H2326 0.930 . S
C2340 C2338 1.395 . S
C2340 C2343 1.403 . S
C2341 C2338 1.403 . S
C2341 C2342 1.524 . S
C2341 C2345 1.400 . S
C2342 H2327 0.960 . S
C2342 H2328 0.960 . S
C2342 H2329 0.960 . S
C2342 C2341 1.524 . S
C2343 C2340 1.403 . S
C2343 C2344 1.392 . S
C2343 C2347 1.495 . S
C2344 C2343 1.392 . S
C2344 C2345 1.385 . S
C2344 C2346 1.478 . S
C2345 H2339 0.930 . S
C2345 C2341 1.400 . S
C2345 C2344 1.385 . S
C2346 C2344 1.478 . S
C2346 C2348 1.381 . S
C2346 C2352 1.383 . S
C2347 C2343 1.495 . S
C2347 H2353 0.959 . S
C2347 H2354 0.961 . S
C2347 H2355 0.960 . S
C2348 C2346 1.381 . S
C2348 C2349 1.394 . S
C2348 H2356 0.930 . S
C2349 C2348 1.394 . S
C2349 C2350 1.383 . S
C2349 H2357 0.929 . S
C2350 C2349 1.383 . S
C2350 C2351 1.377 . S
C2351 H2335 0.930 . S
C2351 C2350 1.377 . S
C2351 C2352 1.379 . S
C2352 H2336 0.931 . S
C2352 C2346 1.383 . S
C2352 C2351 1.379 . S
H2353 C2347 0.959 . S
H2354 C2347 0.961 . S
H2355 C2347 0.960 . S
H2356 C2348 0.930 . S
H2357 C2349 0.929 . S
H2358 C2366 0.929 . S
H2359 C2368 0.930 . S
H2360 C2370 0.930 . S
H2361 C2373 0.929 . S
H2362 C2376 0.930 . S
H2363 C2378 0.960 . S
H2364 C2378 0.960 . S
H2365 C2378 0.960 . S
C2366 H2358 0.929 . S
C2366 C2367 1.377 . S
C2366 C2368 1.384 . S
C2367 C2366 1.377 . S
C2367 C2373 1.390 . S
C2368 H2359 0.930 . S
C2368 C2366 1.384 . S
C2368 C2369 1.372 . S
C2369 C2368 1.372 . S
C2369 C2370 1.400 . S
C2369 C2374 1.490 . S
C2370 H2360 0.930 . S
C2370 C2369 1.400 . S
C2370 C2373 1.386 . S
H2371 C2387 0.930 . S
H2372 C2388 0.931 . S
C2373 H2361 0.929 . S
C2373 C2367 1.390 . S
C2373 C2370 1.386 . S
C2374 C2369 1.490 . S
C2374 C2376 1.395 . S
C2374 C2377 1.403 . S
H2375 C2381 0.930 . S
C2376 H2362 0.930 . S
C2376 C2374 1.395 . S
C2376 C2379 1.403 . S
C2377 C2374 1.403 . S
C2377 C2378 1.524 . S
C2377 C2381 1.400 . S
C2378 H2363 0.960 . S
C2378 H2364 0.960 . S
C2378 H2365 0.960 . S
C2378 C2377 1.524 . S
C2379 C2376 1.403 . S
C2379 C2380 1.392 . S
C2379 C2383 1.495 . S
C2380 C2379 1.392 . S
C2380 C2381 1.385 . S
C2380 C2382 1.478 . S
C2381 H2375 0.930 . S
C2381 C2377 1.400 . S
C2381 C2380 1.385 . S
C2382 C2380 1.478 . S
C2382 C2384 1.381 . S
C2382 C2388 1.383 . S
C2383 C2379 1.495 . S
C2383 H2389 0.959 . S
C2383 H2390 0.961 . S
C2383 H2391 0.960 . S
C2384 C2382 1.381 . S
C2384 C2385 1.394 . S
C2384 H2392 0.930 . S
C2385 C2384 1.394 . S
C2385 C2386 1.383 . S
C2385 H2393 0.929 . S
C2386 C2385 1.383 . S
C2386 C2387 1.377 . S
C2387 H2371 0.930 . S
C2387 C2386 1.377 . S
C2387 C2388 1.379 . S
C2388 H2372 0.931 . S
C2388 C2382 1.383 . S
C2388 C2387 1.379 . S
H2389 C2383 0.959 . S
H2390 C2383 0.961 . S
H2391 C2383 0.960 . S
H2392 C2384 0.930 . S
H2393 C2385 0.929 . S
H2394 C2402 0.929 . S
H2395 C2404 0.930 . S
H2396 C2406 0.930 . S
H2397 C2409 0.929 . S
H2398 C2412 0.930 . S
H2399 C2414 0.960 . S
H2400 C2414 0.960 . S
H2401 C2414 0.960 . S
C2402 H2394 0.929 . S
C2402 C2403 1.377 . S
C2402 C2404 1.384 . S
C2403 C2402 1.377 . S
C2403 C2409 1.390 . S
C2404 H2395 0.930 . S
C2404 C2402 1.384 . S
C2404 C2405 1.372 . S
C2405 C2404 1.372 . S
C2405 C2406 1.400 . S
C2405 C2410 1.490 . S
C2406 H2396 0.930 . S
C2406 C2405 1.400 . S
C2406 C2409 1.386 . S
H2407 C2423 0.930 . S
H2408 C2424 0.931 . S
C2409 H2397 0.929 . S
C2409 C2403 1.390 . S
C2409 C2406 1.386 . S
C2410 C2405 1.490 . S
C2410 C2412 1.395 . S
C2410 C2413 1.403 . S
H2411 C2417 0.930 . S
C2412 H2398 0.930 . S
C2412 C2410 1.395 . S
C2412 C2415 1.403 . S
C2413 C2410 1.403 . S
C2413 C2414 1.524 . S
C2413 C2417 1.400 . S
C2414 H2399 0.960 . S
C2414 H2400 0.960 . S
C2414 H2401 0.960 . S
C2414 C2413 1.524 . S
C2415 C2412 1.403 . S
C2415 C2416 1.392 . S
C2415 C2419 1.495 . S
C2416 C2415 1.392 . S
C2416 C2417 1.385 . S
C2416 C2418 1.478 . S
C2417 H2411 0.930 . S
C2417 C2413 1.400 . S
C2417 C2416 1.385 . S
C2418 C2416 1.478 . S
C2418 C2420 1.381 . S
C2418 C2424 1.383 . S
C2419 C2415 1.495 . S
C2419 H2425 0.959 . S
C2419 H2426 0.961 . S
C2419 H2427 0.960 . S
C2420 C2418 1.381 . S
C2420 C2421 1.394 . S
C2420 H2428 0.930 . S
C2421 C2420 1.394 . S
C2421 C2422 1.383 . S
C2421 H2429 0.929 . S
C2422 C2421 1.383 . S
C2422 C2423 1.377 . S
C2423 H2407 0.930 . S
C2423 C2422 1.377 . S
C2423 C2424 1.379 . S
C2424 H2408 0.931 . S
C2424 C2418 1.383 . S
C2424 C2423 1.379 . S
H2425 C2419 0.959 . S
H2426 C2419 0.961 . S
H2427 C2419 0.960 . S
H2428 C2420 0.930 . S
H2429 C2421 0.929 . S
H2430 C2438 0.929 1_554 S
H2431 C2440 0.930 . S
H2432 C2442 0.930 . S
H2433 C2445 0.929 . S
H2434 C2448 0.930 . S
H2435 C2450 0.960 . S
H2436 C2450 0.960 . S
H2437 C2450 0.960 . S
C2438 H2430 0.929 1_556 S
C2438 C2439 1.377 . S
C2438 C2440 1.384 . S
C2439 C2438 1.377 . S
C2439 C2445 1.390 . S
C2440 H2431 0.930 . S
C2440 C2438 1.384 . S
C2440 C2441 1.372 . S
C2441 C2440 1.372 . S
C2441 C2442 1.400 . S
C2441 C2446 1.490 . S
C2442 H2432 0.930 . S
C2442 C2441 1.400 . S
C2442 C2445 1.386 . S
H2443 C2459 0.930 . S
H2444 C2460 0.931 . S
C2445 H2433 0.929 . S
C2445 C2439 1.390 . S
C2445 C2442 1.386 . S
C2446 C2441 1.490 . S
C2446 C2448 1.395 . S
C2446 C2449 1.403 . S
H2447 C2453 0.930 . S
C2448 H2434 0.930 . S
C2448 C2446 1.395 . S
C2448 C2451 1.403 . S
C2449 C2446 1.403 . S
C2449 C2450 1.524 . S
C2449 C2453 1.400 . S
C2450 H2435 0.960 . S
C2450 H2436 0.960 . S
C2450 H2437 0.960 . S
C2450 C2449 1.524 . S
C2451 C2448 1.403 . S
C2451 C2452 1.392 . S
C2451 C2455 1.495 . S
C2452 C2451 1.392 . S
C2452 C2453 1.385 . S
C2452 C2454 1.478 . S
C2453 H2447 0.930 . S
C2453 C2449 1.400 . S
C2453 C2452 1.385 . S
C2454 C2452 1.478 . S
C2454 C2456 1.381 . S
C2454 C2460 1.383 . S
C2455 C2451 1.495 . S
C2455 H2461 0.959 . S
C2455 H2462 0.961 . S
C2455 H2463 0.960 . S
C2456 C2454 1.381 . S
C2456 C2457 1.394 . S
C2456 H2464 0.930 . S
C2457 C2456 1.394 . S
C2457 C2458 1.383 . S
C2457 H2465 0.929 . S
C2458 C2457 1.383 . S
C2458 C2459 1.377 . S
C2459 H2443 0.930 . S
C2459 C2458 1.377 . S
C2459 C2460 1.379 . S
C2460 H2444 0.931 . S
C2460 C2454 1.383 . S
C2460 C2459 1.379 . S
H2461 C2455 0.959 . S
H2462 C2455 0.961 . S
H2463 C2455 0.960 . S
H2464 C2456 0.930 . S
H2465 C2457 0.929 . S
H2466 C2474 0.929 . S
H2467 C2476 0.930 . S
H2468 C2478 0.930 . S
H2469 C2481 0.929 1_554 S
H2470 C2484 0.930 . S
H2471 C2486 0.960 . S
H2472 C2486 0.960 . S
H2473 C2486 0.960 . S
C2474 H2466 0.929 . S
C2474 C2475 1.377 . S
C2474 C2476 1.384 . S
C2475 C2474 1.377 . S
C2475 C2481 1.390 . S
C2476 H2467 0.930 . S
C2476 C2474 1.384 . S
C2476 C2477 1.372 . S
C2477 C2476 1.372 . S
C2477 C2478 1.400 . S
C2477 C2482 1.490 . S
C2478 H2468 0.930 . S
C2478 C2477 1.400 . S
C2478 C2481 1.386 . S
H2479 C2495 0.930 . S
H2480 C2496 0.931 . S
C2481 H2469 0.929 1_556 S
C2481 C2475 1.390 . S
C2481 C2478 1.386 . S
C2482 C2477 1.490 . S
C2482 C2484 1.395 . S
C2482 C2485 1.403 . S
H2483 C2489 0.930 . S
C2484 H2470 0.930 . S
C2484 C2482 1.395 . S
C2484 C2487 1.403 . S
C2485 C2482 1.403 . S
C2485 C2486 1.524 . S
C2485 C2489 1.400 . S
C2486 H2471 0.960 . S
C2486 H2472 0.960 . S
C2486 H2473 0.960 . S
C2486 C2485 1.524 . S
C2487 C2484 1.403 . S
C2487 C2488 1.392 . S
C2487 C2491 1.495 . S
C2488 C2487 1.392 . S
C2488 C2489 1.385 . S
C2488 C2490 1.478 . S
C2489 H2483 0.930 . S
C2489 C2485 1.400 . S
C2489 C2488 1.385 . S
C2490 C2488 1.478 . S
C2490 C2492 1.381 . S
C2490 C2496 1.383 . S
C2491 C2487 1.495 . S
C2491 H2497 0.959 . S
C2491 H2498 0.961 . S
C2491 H2499 0.960 . S
C2492 C2490 1.381 . S
C2492 C2493 1.394 . S
C2492 H2500 0.930 . S
C2493 C2492 1.394 . S
C2493 C2494 1.383 . S
C2493 H2501 0.929 . S
C2494 C2493 1.383 . S
C2494 C2495 1.377 . S
C2495 H2479 0.930 . S
C2495 C2494 1.377 . S
C2495 C2496 1.379 . S
C2496 H2480 0.931 . S
C2496 C2490 1.383 . S
C2496 C2495 1.379 . S
H2497 C2491 0.959 . S
H2498 C2491 0.961 . S
H2499 C2491 0.960 . S
H2500 C2492 0.930 . S
H2501 C2493 0.929 . S
H2502 C2510 0.929 1_554 S
H2503 C2512 0.930 . S
H2504 C2514 0.930 . S
H2505 C2517 0.929 . S
H2506 C2520 0.930 . S
H2507 C2522 0.960 . S
H2508 C2522 0.960 . S
H2509 C2522 0.960 . S
C2510 H2502 0.929 1_556 S
C2510 C2511 1.377 . S
C2510 C2512 1.384 . S
C2511 C2510 1.377 . S
C2511 C2517 1.390 . S
C2512 H2503 0.930 . S
C2512 C2510 1.384 . S
C2512 C2513 1.372 . S
C2513 C2512 1.372 . S
C2513 C2514 1.400 . S
C2513 C2518 1.490 . S
C2514 H2504 0.930 . S
C2514 C2513 1.400 . S
C2514 C2517 1.386 . S
H2515 C2531 0.930 . S
H2516 C2532 0.931 . S
C2517 H2505 0.929 . S
C2517 C2511 1.390 . S
C2517 C2514 1.386 . S
C2518 C2513 1.490 . S
C2518 C2520 1.395 . S
C2518 C2521 1.403 . S
H2519 C2525 0.930 . S
C2520 H2506 0.930 . S
C2520 C2518 1.395 . S
C2520 C2523 1.403 . S
C2521 C2518 1.403 . S
C2521 C2522 1.524 . S
C2521 C2525 1.400 . S
C2522 H2507 0.960 . S
C2522 H2508 0.960 . S
C2522 H2509 0.960 . S
C2522 C2521 1.524 . S
C2523 C2520 1.403 . S
C2523 C2524 1.392 . S
C2523 C2527 1.495 . S
C2524 C2523 1.392 . S
C2524 C2525 1.385 . S
C2524 C2526 1.478 . S
C2525 H2519 0.930 . S
C2525 C2521 1.400 . S
C2525 C2524 1.385 . S
C2526 C2524 1.478 . S
C2526 C2528 1.381 . S
C2526 C2532 1.383 . S
C2527 C2523 1.495 . S
C2527 H2533 0.959 . S
C2527 H2534 0.961 . S
C2527 H2535 0.960 . S
C2528 C2526 1.381 . S
C2528 C2529 1.394 . S
C2528 H2536 0.930 . S
C2529 C2528 1.394 . S
C2529 C2530 1.383 . S
C2529 H2537 0.929 . S
C2530 C2529 1.383 . S
C2530 C2531 1.377 . S
C2531 H2515 0.930 . S
C2531 C2530 1.377 . S
C2531 C2532 1.379 . S
C2532 H2516 0.931 . S
C2532 C2526 1.383 . S
C2532 C2531 1.379 . S
H2533 C2527 0.959 . S
H2534 C2527 0.961 . S
H2535 C2527 0.960 . S
H2536 C2528 0.930 . S
H2537 C2529 0.929 . S
H2538 C2546 0.929 . S
H2539 C2548 0.930 . S
H2540 C2550 0.930 . S
H2541 C2553 0.929 . S
H2542 C2556 0.930 . S
H2543 C2558 0.960 . S
H2544 C2558 0.960 . S
H2545 C2558 0.960 . S
C2546 H2538 0.929 . S
C2546 C2547 1.377 . S
C2546 C2548 1.384 . S
C2547 C2546 1.377 . S
C2547 C2553 1.390 . S
C2548 H2539 0.930 . S
C2548 C2546 1.384 . S
C2548 C2549 1.372 . S
C2549 C2548 1.372 . S
C2549 C2550 1.400 . S
C2549 C2554 1.490 . S
C2550 H2540 0.930 . S
C2550 C2549 1.400 . S
C2550 C2553 1.386 . S
H2551 C2567 0.930 . S
H2552 C2568 0.931 . S
C2553 H2541 0.929 . S
C2553 C2547 1.390 . S
C2553 C2550 1.386 . S
C2554 C2549 1.490 . S
C2554 C2556 1.395 . S
C2554 C2557 1.403 . S
H2555 C2561 0.930 . S
C2556 H2542 0.930 . S
C2556 C2554 1.395 . S
C2556 C2559 1.403 . S
C2557 C2554 1.403 . S
C2557 C2558 1.524 . S
C2557 C2561 1.400 . S
C2558 H2543 0.960 . S
C2558 H2544 0.960 . S
C2558 H2545 0.960 . S
C2558 C2557 1.524 . S
C2559 C2556 1.403 . S
C2559 C2560 1.392 . S
C2559 C2563 1.495 . S
C2560 C2559 1.392 . S
C2560 C2561 1.385 . S
C2560 C2562 1.478 . S
C2561 H2555 0.930 . S
C2561 C2557 1.400 . S
C2561 C2560 1.385 . S
C2562 C2560 1.478 . S
C2562 C2564 1.381 . S
C2562 C2568 1.383 . S
C2563 C2559 1.495 . S
C2563 H2569 0.959 . S
C2563 H2570 0.961 . S
C2563 H2571 0.960 . S
C2564 C2562 1.381 . S
C2564 C2565 1.394 . S
C2564 H2572 0.930 . S
C2565 C2564 1.394 . S
C2565 C2566 1.383 . S
C2565 H2573 0.929 . S
C2566 C2565 1.383 . S
C2566 C2567 1.377 . S
C2567 H2551 0.930 . S
C2567 C2566 1.377 . S
C2567 C2568 1.379 . S
C2568 H2552 0.931 . S
C2568 C2562 1.383 . S
C2568 C2567 1.379 . S
H2569 C2563 0.959 . S
H2570 C2563 0.961 . S
H2571 C2563 0.960 . S
H2572 C2564 0.930 . S
H2573 C2565 0.929 . S
H2574 C2582 0.929 1_554 S
H2575 C2584 0.930 . S
H2576 C2586 0.930 . S
H2577 C2589 0.929 . S
H2578 C2592 0.930 . S
H2579 C2594 0.960 . S
H2580 C2594 0.960 . S
H2581 C2594 0.960 . S
C2582 H2574 0.929 1_556 S
C2582 C2583 1.377 . S
C2582 C2584 1.384 . S
C2583 C2582 1.377 . S
C2583 C2589 1.390 . S
C2584 H2575 0.930 . S
C2584 C2582 1.384 . S
C2584 C2585 1.372 . S
C2585 C2584 1.372 . S
C2585 C2586 1.400 . S
C2585 C2590 1.490 . S
C2586 H2576 0.930 . S
C2586 C2585 1.400 . S
C2586 C2589 1.386 . S
H2587 C2603 0.930 . S
H2588 C2604 0.931 . S
C2589 H2577 0.929 . S
C2589 C2583 1.390 . S
C2589 C2586 1.386 . S
C2590 C2585 1.490 . S
C2590 C2592 1.395 . S
C2590 C2593 1.403 . S
H2591 C2597 0.930 . S
C2592 H2578 0.930 . S
C2592 C2590 1.395 . S
C2592 C2595 1.403 . S
C2593 C2590 1.403 . S
C2593 C2594 1.524 . S
C2593 C2597 1.400 . S
C2594 H2579 0.960 . S
C2594 H2580 0.960 . S
C2594 H2581 0.960 . S
C2594 C2593 1.524 . S
C2595 C2592 1.403 . S
C2595 C2596 1.392 . S
C2595 C2599 1.495 . S
C2596 C2595 1.392 . S
C2596 C2597 1.385 . S
C2596 C2598 1.478 . S
C2597 H2591 0.930 . S
C2597 C2593 1.400 . S
C2597 C2596 1.385 . S
C2598 C2596 1.478 . S
C2598 C2600 1.381 . S
C2598 C2604 1.383 . S
C2599 C2595 1.495 . S
C2599 H2605 0.959 . S
C2599 H2606 0.961 . S
C2599 H2607 0.960 . S
C2600 C2598 1.381 . S
C2600 C2601 1.394 . S
C2600 H2608 0.930 . S
C2601 C2600 1.394 . S
C2601 C2602 1.383 . S
C2601 H2609 0.929 . S
C2602 C2601 1.383 . S
C2602 C2603 1.377 . S
C2603 H2587 0.930 . S
C2603 C2602 1.377 . S
C2603 C2604 1.379 . S
C2604 H2588 0.931 . S
C2604 C2598 1.383 . S
C2604 C2603 1.379 . S
H2605 C2599 0.959 . S
H2606 C2599 0.961 . S
H2607 C2599 0.960 . S
H2608 C2600 0.930 . S
H2609 C2601 0.929 . S
H2610 C2618 0.929 1_554 S
H2611 C2620 0.930 . S
H2612 C2622 0.930 . S
H2613 C2625 0.929 . S
H2614 C2628 0.930 . S
H2615 C2630 0.960 . S
H2616 C2630 0.960 . S
H2617 C2630 0.960 . S
C2618 H2610 0.929 1_556 S
C2618 C2619 1.377 . S
C2618 C2620 1.384 . S
C2619 C2618 1.377 . S
C2619 C2625 1.390 . S
C2620 H2611 0.930 . S
C2620 C2618 1.384 . S
C2620 C2621 1.372 . S
C2621 C2620 1.372 . S
C2621 C2622 1.400 . S
C2621 C2626 1.490 . S
C2622 H2612 0.930 . S
C2622 C2621 1.400 . S
C2622 C2625 1.386 . S
H2623 C2639 0.930 . S
H2624 C2640 0.931 . S
C2625 H2613 0.929 . S
C2625 C2619 1.390 . S
C2625 C2622 1.386 . S
C2626 C2621 1.490 . S
C2626 C2628 1.395 . S
C2626 C2629 1.403 . S
H2627 C2633 0.930 . S
C2628 H2614 0.930 . S
C2628 C2626 1.395 . S
C2628 C2631 1.403 . S
C2629 C2626 1.403 . S
C2629 C2630 1.524 . S
C2629 C2633 1.400 . S
C2630 H2615 0.960 . S
C2630 H2616 0.960 . S
C2630 H2617 0.960 . S
C2630 C2629 1.524 . S
C2631 C2628 1.403 . S
C2631 C2632 1.392 . S
C2631 C2635 1.495 . S
C2632 C2631 1.392 . S
C2632 C2633 1.385 . S
C2632 C2634 1.478 . S
C2633 H2627 0.930 . S
C2633 C2629 1.400 . S
C2633 C2632 1.385 . S
C2634 C2632 1.478 . S
C2634 C2636 1.381 . S
C2634 C2640 1.383 . S
C2635 C2631 1.495 . S
C2635 H2641 0.959 . S
C2635 H2642 0.961 . S
C2635 H2643 0.960 . S
C2636 C2634 1.381 . S
C2636 C2637 1.394 . S
C2636 H2644 0.930 . S
C2637 C2636 1.394 . S
C2637 C2638 1.383 . S
C2637 H2645 0.929 . S
C2638 C2637 1.383 . S
C2638 C2639 1.377 . S
C2639 H2623 0.930 . S
C2639 C2638 1.377 . S
C2639 C2640 1.379 . S
C2640 H2624 0.931 . S
C2640 C2634 1.383 . S
C2640 C2639 1.379 . S
H2641 C2635 0.959 . S
H2642 C2635 0.961 . S
H2643 C2635 0.960 . S
H2644 C2636 0.930 . S
H2645 C2637 0.929 . S
H2646 C2654 0.929 . S
H2647 C2656 0.930 . S
H2648 C2658 0.930 . S
H2649 C2661 0.929 . S
H2650 C2664 0.930 . S
H2651 C2666 0.960 . S
H2652 C2666 0.960 . S
H2653 C2666 0.960 . S
C2654 H2646 0.929 . S
C2654 C2655 1.377 . S
C2654 C2656 1.384 . S
C2655 C2654 1.377 . S
C2655 C2661 1.390 . S
C2656 H2647 0.930 . S
C2656 C2654 1.384 . S
C2656 C2657 1.372 . S
C2657 C2656 1.372 . S
C2657 C2658 1.400 . S
C2657 C2662 1.490 . S
C2658 H2648 0.930 . S
C2658 C2657 1.400 . S
C2658 C2661 1.386 . S
H2659 C2675 0.930 . S
H2660 C2676 0.931 . S
C2661 H2649 0.929 . S
C2661 C2655 1.390 . S
C2661 C2658 1.386 . S
C2662 C2657 1.490 . S
C2662 C2664 1.395 . S
C2662 C2665 1.403 . S
H2663 C2669 0.930 . S
C2664 H2650 0.930 . S
C2664 C2662 1.395 . S
C2664 C2667 1.403 . S
C2665 C2662 1.403 . S
C2665 C2666 1.524 . S
C2665 C2669 1.400 . S
C2666 H2651 0.960 . S
C2666 H2652 0.960 . S
C2666 H2653 0.960 . S
C2666 C2665 1.524 . S
C2667 C2664 1.403 . S
C2667 C2668 1.392 . S
C2667 C2671 1.495 . S
C2668 C2667 1.392 . S
C2668 C2669 1.385 . S
C2668 C2670 1.478 . S
C2669 H2663 0.930 . S
C2669 C2665 1.400 . S
C2669 C2668 1.385 . S
C2670 C2668 1.478 . S
C2670 C2672 1.381 . S
C2670 C2676 1.383 . S
C2671 C2667 1.495 . S
C2671 H2677 0.959 . S
C2671 H2678 0.961 . S
C2671 H2679 0.960 . S
C2672 C2670 1.381 . S
C2672 C2673 1.394 . S
C2672 H2680 0.930 . S
C2673 C2672 1.394 . S
C2673 C2674 1.383 . S
C2673 H2681 0.929 . S
C2674 C2673 1.383 . S
C2674 C2675 1.377 . S
C2675 H2659 0.930 . S
C2675 C2674 1.377 . S
C2675 C2676 1.379 . S
C2676 H2660 0.931 . S
C2676 C2670 1.383 . S
C2676 C2675 1.379 . S
H2677 C2671 0.959 . S
H2678 C2671 0.961 . S
H2679 C2671 0.960 . S
H2680 C2672 0.930 . S
H2681 C2673 0.929 . S
H2682 C2690 0.929 . S
H2683 C2692 0.930 . S
H2684 C2694 0.930 . S
H2685 C2697 0.929 . S
H2686 C2700 0.930 . S
H2687 C2702 0.960 . S
H2688 C2702 0.960 . S
H2689 C2702 0.960 . S
C2690 H2682 0.929 . S
C2690 C2691 1.377 . S
C2690 C2692 1.384 . S
C2691 C2690 1.377 . S
C2691 C2697 1.390 . S
C2692 H2683 0.930 . S
C2692 C2690 1.384 . S
C2692 C2693 1.372 . S
C2693 C2692 1.372 . S
C2693 C2694 1.400 . S
C2693 C2698 1.490 . S
C2694 H2684 0.930 . S
C2694 C2693 1.400 . S
C2694 C2697 1.386 . S
H2695 C2711 0.930 . S
H2696 C2712 0.931 . S
C2697 H2685 0.929 . S
C2697 C2691 1.390 . S
C2697 C2694 1.386 . S
C2698 C2693 1.490 . S
C2698 C2700 1.395 . S
C2698 C2701 1.403 . S
H2699 C2705 0.930 . S
C2700 H2686 0.930 . S
C2700 C2698 1.395 . S
C2700 C2703 1.403 . S
C2701 C2698 1.403 . S
C2701 C2702 1.524 . S
C2701 C2705 1.400 . S
C2702 H2687 0.960 . S
C2702 H2688 0.960 . S
C2702 H2689 0.960 . S
C2702 C2701 1.524 . S
C2703 C2700 1.403 . S
C2703 C2704 1.392 . S
C2703 C2707 1.495 . S
C2704 C2703 1.392 . S
C2704 C2705 1.385 . S
C2704 C2706 1.478 . S
C2705 H2699 0.930 . S
C2705 C2701 1.400 . S
C2705 C2704 1.385 . S
C2706 C2704 1.478 . S
C2706 C2708 1.381 . S
C2706 C2712 1.383 . S
C2707 C2703 1.495 . S
C2707 H2713 0.959 . S
C2707 H2714 0.961 . S
C2707 H2715 0.960 . S
C2708 C2706 1.381 . S
C2708 C2709 1.394 . S
C2708 H2716 0.930 . S
C2709 C2708 1.394 . S
C2709 C2710 1.383 . S
C2709 H2717 0.929 . S
C2710 C2709 1.383 . S
C2710 C2711 1.377 . S
C2711 H2695 0.930 . S
C2711 C2710 1.377 . S
C2711 C2712 1.379 . S
C2712 H2696 0.931 . S
C2712 C2706 1.383 . S
C2712 C2711 1.379 . S
H2713 C2707 0.959 . S
H2714 C2707 0.961 . S
H2715 C2707 0.960 . S
H2716 C2708 0.930 . S
H2717 C2709 0.929 . S
H2718 C2726 0.929 . S
H2719 C2728 0.930 . S
H2720 C2730 0.930 . S
H2721 C2733 0.929 . S
H2722 C2736 0.930 . S
H2723 C2738 0.960 . S
H2724 C2738 0.960 . S
H2725 C2738 0.960 . S
C2726 H2718 0.929 . S
C2726 C2727 1.377 . S
C2726 C2728 1.384 . S
C2727 C2726 1.377 . S
C2727 C2733 1.390 . S
C2728 H2719 0.930 . S
C2728 C2726 1.384 . S
C2728 C2729 1.372 . S
C2729 C2728 1.372 . S
C2729 C2730 1.400 . S
C2729 C2734 1.490 . S
C2730 H2720 0.930 . S
C2730 C2729 1.400 . S
C2730 C2733 1.386 . S
H2731 C2747 0.930 . S
H2732 C2748 0.931 . S
C2733 H2721 0.929 . S
C2733 C2727 1.390 . S
C2733 C2730 1.386 . S
C2734 C2729 1.490 . S
C2734 C2736 1.395 . S
C2734 C2737 1.403 . S
H2735 C2741 0.930 . S
C2736 H2722 0.930 . S
C2736 C2734 1.395 . S
C2736 C2739 1.403 . S
C2737 C2734 1.403 . S
C2737 C2738 1.524 . S
C2737 C2741 1.400 . S
C2738 H2723 0.960 . S
C2738 H2724 0.960 . S
C2738 H2725 0.960 . S
C2738 C2737 1.524 . S
C2739 C2736 1.403 . S
C2739 C2740 1.392 . S
C2739 C2743 1.495 . S
C2740 C2739 1.392 . S
C2740 C2741 1.385 . S
C2740 C2742 1.478 . S
C2741 H2735 0.930 . S
C2741 C2737 1.400 . S
C2741 C2740 1.385 . S
C2742 C2740 1.478 . S
C2742 C2744 1.381 . S
C2742 C2748 1.383 . S
C2743 C2739 1.495 . S
C2743 H2749 0.959 . S
C2743 H2750 0.961 . S
C2743 H2751 0.960 . S
C2744 C2742 1.381 . S
C2744 C2745 1.394 . S
C2744 H2752 0.930 . S
C2745 C2744 1.394 . S
C2745 C2746 1.383 . S
C2745 H2753 0.929 . S
C2746 C2745 1.383 . S
C2746 C2747 1.377 . S
C2747 H2731 0.930 . S
C2747 C2746 1.377 . S
C2747 C2748 1.379 . S
C2748 H2732 0.931 . S
C2748 C2742 1.383 . S
C2748 C2747 1.379 . S
H2749 C2743 0.959 . S
H2750 C2743 0.961 . S
H2751 C2743 0.960 . S
H2752 C2744 0.930 . S
H2753 C2745 0.929 . S
H2754 C2762 0.929 . S
H2755 C2764 0.930 . S
H2756 C2766 0.930 . S
H2757 C2769 0.929 . S
H2758 C2772 0.930 . S
H2759 C2774 0.960 . S
H2760 C2774 0.960 . S
H2761 C2774 0.960 . S
C2762 H2754 0.929 . S
C2762 C2763 1.377 . S
C2762 C2764 1.384 . S
C2763 C2762 1.377 . S
C2763 C2769 1.390 . S
C2764 H2755 0.930 . S
C2764 C2762 1.384 . S
C2764 C2765 1.372 . S
C2765 C2764 1.372 . S
C2765 C2766 1.400 . S
C2765 C2770 1.490 . S
C2766 H2756 0.930 . S
C2766 C2765 1.400 . S
C2766 C2769 1.386 . S
H2767 C2783 0.930 . S
H2768 C2784 0.931 . S
C2769 H2757 0.929 . S
C2769 C2763 1.390 . S
C2769 C2766 1.386 . S
C2770 C2765 1.490 . S
C2770 C2772 1.395 . S
C2770 C2773 1.403 . S
H2771 C2777 0.930 . S
C2772 H2758 0.930 . S
C2772 C2770 1.395 . S
C2772 C2775 1.403 . S
C2773 C2770 1.403 . S
C2773 C2774 1.524 . S
C2773 C2777 1.400 . S
C2774 H2759 0.960 . S
C2774 H2760 0.960 . S
C2774 H2761 0.960 . S
C2774 C2773 1.524 . S
C2775 C2772 1.403 . S
C2775 C2776 1.392 . S
C2775 C2779 1.495 . S
C2776 C2775 1.392 . S
C2776 C2777 1.385 . S
C2776 C2778 1.478 . S
C2777 H2771 0.930 . S
C2777 C2773 1.400 . S
C2777 C2776 1.385 . S
C2778 C2776 1.478 . S
C2778 C2780 1.381 . S
C2778 C2784 1.383 . S
C2779 C2775 1.495 . S
C2779 H2785 0.959 . S
C2779 H2786 0.961 . S
C2779 H2787 0.960 . S
C2780 C2778 1.381 . S
C2780 C2781 1.394 . S
C2780 H2788 0.930 . S
C2781 C2780 1.394 . S
C2781 C2782 1.383 . S
C2781 H2789 0.929 . S
C2782 C2781 1.383 . S
C2782 C2783 1.377 . S
C2783 H2767 0.930 . S
C2783 C2782 1.377 . S
C2783 C2784 1.379 . S
C2784 H2768 0.931 . S
C2784 C2778 1.383 . S
C2784 C2783 1.379 . S
H2785 C2779 0.959 . S
H2786 C2779 0.961 . S
H2787 C2779 0.960 . S
H2788 C2780 0.930 . S
H2789 C2781 0.929 . S
H2790 C2798 0.929 . S
H2791 C2800 0.930 . S
H2792 C2802 0.930 . S
H2793 C2805 0.929 . S
H2794 C2808 0.930 . S
H2795 C2810 0.960 . S
H2796 C2810 0.960 . S
H2797 C2810 0.960 . S
C2798 H2790 0.929 . S
C2798 C2799 1.377 . S
C2798 C2800 1.384 . S
C2799 C2798 1.377 . S
C2799 C2805 1.390 . S
C2800 H2791 0.930 . S
C2800 C2798 1.384 . S
C2800 C2801 1.372 . S
C2801 C2800 1.372 . S
C2801 C2802 1.400 . S
C2801 C2806 1.490 . S
C2802 H2792 0.930 . S
C2802 C2801 1.400 . S
C2802 C2805 1.386 . S
H2803 C2819 0.930 . S
H2804 C2820 0.931 . S
C2805 H2793 0.929 . S
C2805 C2799 1.390 . S
C2805 C2802 1.386 . S
C2806 C2801 1.490 . S
C2806 C2808 1.395 . S
C2806 C2809 1.403 . S
H2807 C2813 0.930 . S
C2808 H2794 0.930 . S
C2808 C2806 1.395 . S
C2808 C2811 1.403 . S
C2809 C2806 1.403 . S
C2809 C2810 1.524 . S
C2809 C2813 1.400 . S
C2810 H2795 0.960 . S
C2810 H2796 0.960 . S
C2810 H2797 0.960 . S
C2810 C2809 1.524 . S
C2811 C2808 1.403 . S
C2811 C2812 1.392 . S
C2811 C2815 1.495 . S
C2812 C2811 1.392 . S
C2812 C2813 1.385 . S
C2812 C2814 1.478 . S
C2813 H2807 0.930 . S
C2813 C2809 1.400 . S
C2813 C2812 1.385 . S
C2814 C2812 1.478 . S
C2814 C2816 1.381 . S
C2814 C2820 1.383 . S
C2815 C2811 1.495 . S
C2815 H2821 0.959 . S
C2815 H2822 0.961 . S
C2815 H2823 0.960 . S
C2816 C2814 1.381 . S
C2816 C2817 1.394 . S
C2816 H2824 0.930 . S
C2817 C2816 1.394 . S
C2817 C2818 1.383 . S
C2817 H2825 0.929 . S
C2818 C2817 1.383 . S
C2818 C2819 1.377 . S
C2819 H2803 0.930 . S
C2819 C2818 1.377 . S
C2819 C2820 1.379 . S
C2820 H2804 0.931 . S
C2820 C2814 1.383 . S
C2820 C2819 1.379 . S
H2821 C2815 0.959 . S
H2822 C2815 0.961 . S
H2823 C2815 0.960 . S
H2824 C2816 0.930 . S
H2825 C2817 0.929 . S
H2826 C2834 0.929 . S
H2827 C2836 0.930 . S
H2828 C2838 0.930 . S
H2829 C2841 0.929 . S
H2830 C2844 0.930 . S
H2831 C2846 0.960 . S
H2832 C2846 0.960 . S
H2833 C2846 0.960 . S
C2834 H2826 0.929 . S
C2834 C2835 1.377 . S
C2834 C2836 1.384 . S
C2835 C2834 1.377 . S
C2835 C2841 1.390 . S
C2836 H2827 0.930 . S
C2836 C2834 1.384 . S
C2836 C2837 1.372 . S
C2837 C2836 1.372 . S
C2837 C2838 1.400 . S
C2837 C2842 1.490 . S
C2838 H2828 0.930 . S
C2838 C2837 1.400 . S
C2838 C2841 1.386 . S
H2839 C2855 0.930 . S
H2840 C2856 0.931 . S
C2841 H2829 0.929 . S
C2841 C2835 1.390 . S
C2841 C2838 1.386 . S
C2842 C2837 1.490 . S
C2842 C2844 1.395 . S
C2842 C2845 1.403 . S
H2843 C2849 0.930 . S
C2844 H2830 0.930 . S
C2844 C2842 1.395 . S
C2844 C2847 1.403 . S
C2845 C2842 1.403 . S
C2845 C2846 1.524 . S
C2845 C2849 1.400 . S
C2846 H2831 0.960 . S
C2846 H2832 0.960 . S
C2846 H2833 0.960 . S
C2846 C2845 1.524 . S
C2847 C2844 1.403 . S
C2847 C2848 1.392 . S
C2847 C2851 1.495 . S
C2848 C2847 1.392 . S
C2848 C2849 1.385 . S
C2848 C2850 1.478 . S
C2849 H2843 0.930 . S
C2849 C2845 1.400 . S
C2849 C2848 1.385 . S
C2850 C2848 1.478 . S
C2850 C2852 1.381 . S
C2850 C2856 1.383 . S
C2851 C2847 1.495 . S
C2851 H2857 0.959 . S
C2851 H2858 0.961 . S
C2851 H2859 0.960 . S
C2852 C2850 1.381 . S
C2852 C2853 1.394 . S
C2852 H2860 0.930 . S
C2853 C2852 1.394 . S
C2853 C2854 1.383 . S
C2853 H2861 0.929 . S
C2854 C2853 1.383 . S
C2854 C2855 1.377 . S
C2855 H2839 0.930 . S
C2855 C2854 1.377 . S
C2855 C2856 1.379 . S
C2856 H2840 0.931 . S
C2856 C2850 1.383 . S
C2856 C2855 1.379 . S
H2857 C2851 0.959 . S
H2858 C2851 0.961 . S
H2859 C2851 0.960 . S
H2860 C2852 0.930 . S
H2861 C2853 0.929 . S
H2862 C2870 0.929 . S
H2863 C2872 0.930 . S
H2864 C2874 0.930 . S
H2865 C2877 0.929 . S
H2866 C2880 0.930 . S
H2867 C2882 0.960 . S
H2868 C2882 0.960 . S
H2869 C2882 0.960 . S
C2870 H2862 0.929 . S
C2870 C2871 1.377 . S
C2870 C2872 1.384 . S
C2871 C2870 1.377 . S
C2871 C2877 1.390 . S
C2872 H2863 0.930 . S
C2872 C2870 1.384 . S
C2872 C2873 1.372 . S
C2873 C2872 1.372 . S
C2873 C2874 1.400 . S
C2873 C2878 1.490 . S
C2874 H2864 0.930 . S
C2874 C2873 1.400 . S
C2874 C2877 1.386 . S
H2875 C2891 0.930 . S
H2876 C2892 0.931 . S
C2877 H2865 0.929 . S
C2877 C2871 1.390 . S
C2877 C2874 1.386 . S
C2878 C2873 1.490 . S
C2878 C2880 1.395 . S
C2878 C2881 1.403 1_455 S
H2879 C2885 0.930 . S
C2880 H2866 0.930 . S
C2880 C2878 1.395 . S
C2880 C2883 1.403 . S
C2881 C2878 1.403 1_655 S
C2881 C2882 1.524 . S
C2881 C2885 1.400 . S
C2882 H2867 0.960 . S
C2882 H2868 0.960 . S
C2882 H2869 0.960 . S
C2882 C2881 1.524 . S
C2883 C2880 1.403 . S
C2883 C2884 1.392 . S
C2883 C2887 1.495 . S
C2884 C2883 1.392 . S
C2884 C2885 1.385 1_455 S
C2884 C2886 1.478 . S
C2885 H2879 0.930 . S
C2885 C2881 1.400 . S
C2885 C2884 1.385 1_655 S
C2886 C2884 1.478 . S
C2886 C2888 1.381 . S
C2886 C2892 1.383 . S
C2887 C2883 1.495 . S
C2887 H2893 0.959 . S
C2887 H2894 0.961 . S
C2887 H2895 0.960 . S
C2888 C2886 1.381 . S
C2888 C2889 1.383 1_455 S
C2888 H2896 0.930 1_455 S
C2889 C2888 1.383 1_655 S
C2889 C2890 1.380 1_655 S
C2889 H2897 0.944 . S
C2890 C2889 1.380 1_455 S
C2890 C2891 1.377 . S
C2891 H2875 0.930 . S
C2891 C2890 1.377 . S
C2891 C2892 1.379 . S
C2892 H2876 0.931 . S
C2892 C2886 1.383 . S
C2892 C2891 1.379 . S
H2893 C2887 0.959 . S
H2894 C2887 0.961 . S
H2895 C2887 0.960 . S
H2896 C2888 0.930 1_655 S
H2897 C2889 0.944 . S
H2898 C2906 0.929 . S
H2899 C2908 0.930 . S
H2900 C2910 0.930 . S
H2901 C2913 0.929 . S
H2902 C2916 0.930 . S
H2903 C2918 0.960 . S
H2904 C2918 0.960 . S
H2905 C2918 0.960 . S
C2906 H2898 0.929 . S
C2906 C2907 1.377 . S
C2906 C2908 1.384 . S
C2907 C2906 1.377 . S
C2907 C2913 1.390 . S
C2908 H2899 0.930 . S
C2908 C2906 1.384 . S
C2908 C2909 1.372 . S
C2909 C2908 1.372 . S
C2909 C2910 1.400 . S
C2909 C2914 1.490 . S
C2910 H2900 0.930 . S
C2910 C2909 1.400 . S
C2910 C2913 1.386 . S
H2911 C2927 0.930 . S
H2912 C2928 0.931 . S
C2913 H2901 0.929 . S
C2913 C2907 1.390 . S
C2913 C2910 1.386 . S
C2914 C2909 1.490 . S
C2914 C2916 1.395 . S
C2914 C2917 1.403 . S
H2915 C2921 0.930 . S
C2916 H2902 0.930 . S
C2916 C2914 1.395 . S
C2916 C2919 1.403 . S
C2917 C2914 1.403 . S
C2917 C2918 1.524 . S
C2917 C2921 1.400 . S
C2918 H2903 0.960 . S
C2918 H2904 0.960 . S
C2918 H2905 0.960 . S
C2918 C2917 1.524 . S
C2919 C2916 1.403 . S
C2919 C2920 1.392 . S
C2919 C2923 1.495 . S
C2920 C2919 1.392 . S
C2920 C2921 1.385 . S
C2920 C2922 1.478 . S
C2921 H2915 0.930 . S
C2921 C2917 1.400 . S
C2921 C2920 1.385 . S
C2922 C2920 1.478 . S
C2922 C2924 1.381 . S
C2922 C2928 1.383 . S
C2923 C2919 1.495 . S
C2923 H2929 0.959 . S
C2923 H2930 0.961 . S
C2923 H2931 0.960 . S
C2924 C2922 1.381 . S
C2924 C2925 1.394 . S
C2924 H2932 0.930 . S
C2925 C2924 1.394 . S
C2925 C2926 1.383 . S
C2925 H2933 0.929 . S
C2926 C2925 1.383 . S
C2926 C2927 1.377 . S
C2927 H2911 0.930 . S
C2927 C2926 1.377 . S
C2927 C2928 1.379 . S
C2928 H2912 0.931 . S
C2928 C2922 1.383 . S
C2928 C2927 1.379 . S
H2929 C2923 0.959 . S
H2930 C2923 0.961 . S
H2931 C2923 0.960 . S
H2932 C2924 0.930 . S
H2933 C2925 0.929 . S
H2934 C2942 0.884 1_545 S
H2935 C2944 0.932 . S
H2936 C2946 0.930 . S
H2937 C2949 0.929 . S
H2938 C2952 0.930 . S
H2939 C2954 0.960 . S
H2940 C2954 0.960 . S
H2941 C2954 0.960 1_565 S
C2942 H2934 0.884 1_565 S
C2942 C2943 1.396 . S
C2942 C2944 1.420 1_565 S
C2943 C2942 1.396 . S
C2943 C2949 1.390 . S
C2944 H2935 0.932 . S
C2944 C2942 1.420 1_545 S
C2944 C2945 1.367 1_545 S
C2945 C2944 1.367 1_565 S
C2945 C2946 1.400 . S
C2945 C2950 1.490 . S
C2946 H2936 0.930 . S
C2946 C2945 1.400 . S
C2946 C2949 1.386 . S
H2947 C2963 0.930 . S
H2948 C2964 0.931 . S
C2949 H2937 0.929 . S
C2949 C2943 1.390 . S
C2949 C2946 1.386 . S
C2950 C2945 1.490 . S
C2950 C2952 1.395 . S
C2950 C2953 1.403 . S
H2951 C2957 0.931 . S
C2952 H2938 0.930 . S
C2952 C2950 1.395 . S
C2952 C2955 1.403 . S
C2953 C2950 1.403 . S
C2953 C2954 1.524 1_565 S
C2953 C2957 1.400 . S
C2954 H2939 0.960 . S
C2954 H2940 0.960 . S
C2954 H2941 0.960 1_545 S
C2954 C2953 1.524 1_545 S
C2955 C2952 1.403 . S
C2955 C2956 1.392 . S
C2955 C2959 1.495 . S
C2956 C2955 1.392 . S
C2956 C2957 1.385 . S
C2956 C2958 1.478 . S
C2957 H2951 0.931 . S
C2957 C2953 1.400 . S
C2957 C2956 1.385 . S
C2958 C2956 1.478 . S
C2958 C2960 1.381 1_565 S
C2958 C2964 1.383 . S
C2959 C2955 1.495 . S
C2959 H2965 0.959 . S
C2959 H2966 0.961 . S
C2959 H2967 0.960 . S
C2960 C2958 1.381 1_545 S
C2960 C2961 1.394 . S
C2960 H2968 0.930 . S
C2961 C2960 1.394 . S
C2961 C2962 1.383 1_545 S
C2961 H2969 0.929 . S
C2962 C2961 1.383 1_565 S
C2962 C2963 1.377 . S
C2963 H2947 0.930 . S
C2963 C2962 1.377 . S
C2963 C2964 1.379 . S
C2964 H2948 0.931 . S
C2964 C2958 1.383 . S
C2964 C2963 1.379 . S
H2965 C2959 0.959 . S
H2966 C2959 0.961 . S
H2967 C2959 0.960 . S
H2968 C2960 0.930 . S
H2969 C2961 0.929 . S
H2970 C2978 0.929 . S
H2971 C2980 0.930 . S
H2972 C2982 0.930 . S
H2973 C2985 0.936 . S
H2974 C2988 0.930 . S
H2975 C2990 0.960 . S
H2976 C2990 0.960 . S
H2977 C2990 0.960 . S
C2978 H2970 0.929 . S
C2978 C2979 1.377 . S
C2978 C2980 1.384 . S
C2979 C2978 1.377 . S
C2979 C2985 1.372 1_565 S
C2980 H2971 0.930 . S
C2980 C2978 1.384 . S
C2980 C2981 1.372 . S
C2981 C2980 1.372 . S
C2981 C2982 1.400 1_565 S
C2981 C2986 1.490 . S
C2982 H2972 0.930 . S
C2982 C2981 1.400 1_545 S
C2982 C2985 1.398 . S
H2983 C2999 0.930 . S
H2984 C3000 0.931 . S
C2985 H2973 0.936 . S
C2985 C2979 1.372 1_545 S
C2985 C2982 1.398 . S
C2986 C2981 1.490 . S
C2986 C2988 1.395 . S
C2986 C2989 1.403 . S
H2987 C2993 0.930 . S
C2988 H2974 0.930 . S
C2988 C2986 1.395 . S
C2988 C2991 1.403 . S
C2989 C2986 1.403 . S
C2989 C2990 1.524 . S
C2989 C2993 1.400 . S
C2990 H2975 0.960 . S
C2990 H2976 0.960 . S
C2990 H2977 0.960 . S
C2990 C2989 1.524 . S
C2991 C2988 1.403 . S
C2991 C2992 1.392 . S
C2991 C2995 1.495 . S
C2992 C2991 1.392 . S
C2992 C2993 1.385 . S
C2992 C2994 1.478 . S
C2993 H2987 0.930 . S
C2993 C2989 1.400 . S
C2993 C2992 1.385 . S
C2994 C2992 1.478 . S
C2994 C2996 1.381 . S
C2994 C3000 1.383 1_565 S
C2995 C2991 1.495 . S
C2995 H3001 0.959 . S
C2995 H3002 0.961 1_565 S
C2995 H3003 0.960 . S
C2996 C2994 1.381 . S
C2996 C2997 1.394 . S
C2996 H3004 0.930 . S
C2997 C2996 1.394 . S
C2997 C2998 1.444 . S
C2997 H3005 0.929 . S
C2998 C2997 1.444 . S
C2998 C2999 1.357 1_565 S
C2999 H2983 0.930 . S
C2999 C2998 1.357 1_545 S
C2999 C3000 1.379 . S
C3000 H2984 0.931 . S
C3000 C2994 1.383 1_545 S
C3000 C2999 1.379 . S
H3001 C2995 0.959 . S
H3002 C2995 0.961 1_545 S
H3003 C2995 0.960 . S
H3004 C2996 0.930 . S
H3005 C2997 0.929 . S
H3006 C3014 0.929 . S
H3007 C3016 0.930 . S
H3008 C3018 0.930 . S
H3009 C3021 0.929 . S
H3010 C3024 0.930 . S
H3011 C3026 0.960 . S
H3012 C3026 0.960 . S
H3013 C3026 0.960 . S
C3014 H3006 0.929 . S
C3014 C3015 1.377 . S
C3014 C3016 1.384 . S
C3015 C3014 1.377 . S
C3015 C3021 1.390 . S
C3016 H3007 0.930 . S
C3016 C3014 1.384 . S
C3016 C3017 1.372 . S
C3017 C3016 1.372 . S
C3017 C3018 1.400 . S
C3017 C3022 1.490 . S
C3018 H3008 0.930 . S
C3018 C3017 1.400 . S
C3018 C3021 1.386 . S
H3019 C3035 0.931 . S
H3020 C3036 0.931 . S
C3021 H3009 0.929 . S
C3021 C3015 1.390 . S
C3021 C3018 1.386 . S
C3022 C3017 1.490 . S
C3022 C3024 1.395 1_455 S
C3022 C3025 1.403 . S
H3023 C3029 0.930 . S
C3024 H3010 0.930 . S
C3024 C3022 1.395 1_655 S
C3024 C3027 1.403 . S
C3025 C3022 1.403 . S
C3025 C3026 1.524 . S
C3025 C3029 1.400 . S
C3026 H3011 0.960 . S
C3026 H3012 0.960 . S
C3026 H3013 0.960 . S
C3026 C3025 1.524 . S
C3027 C3024 1.403 . S
C3027 C3028 1.392 1_655 S
C3027 C3031 1.495 . S
C3028 C3027 1.392 1_455 S
C3028 C3029 1.385 . S
C3028 C3030 1.478 . S
C3029 H3023 0.930 . S
C3029 C3025 1.400 . S
C3029 C3028 1.385 . S
C3030 C3028 1.478 . S
C3030 C3032 1.381 . S
C3030 C3036 1.383 . S
C3031 C3027 1.495 . S
C3031 H3037 0.959 . S
C3031 H3038 0.961 . S
C3031 H3039 0.960 . S
C3032 C3030 1.381 . S
C3032 C3033 1.377 . S
C3032 H3040 0.930 . S
C3033 C3032 1.377 . S
C3033 C3034 1.386 . S
C3033 H3041 0.933 . S
C3034 C3033 1.386 . S
C3034 C3035 1.389 . S
C3035 H3019 0.931 . S
C3035 C3034 1.389 . S
C3035 C3036 1.366 . S
C3036 H3020 0.931 . S
C3036 C3030 1.383 . S
C3036 C3035 1.366 . S
H3037 C3031 0.959 . S
H3038 C3031 0.961 . S
H3039 C3031 0.960 . S
H3040 C3032 0.930 . S
H3041 C3033 0.933 . S
H3042 C3050 0.929 . S
H3043 C3052 0.930 . S
H3044 C3054 0.930 . S
H3045 C3057 0.929 . S
H3046 C3060 0.930 . S
H3047 C3062 0.960 . S
H3048 C3062 0.960 . S
H3049 C3062 0.960 . S
C3050 H3042 0.929 . S
C3050 C3051 1.377 . S
C3050 C3052 1.384 . S
C3051 C3050 1.377 . S
C3051 C3057 1.390 . S
C3052 H3043 0.930 . S
C3052 C3050 1.384 . S
C3052 C3053 1.372 . S
C3053 C3052 1.372 . S
C3053 C3054 1.400 . S
C3053 C3058 1.490 . S
C3054 H3044 0.930 . S
C3054 C3053 1.400 . S
C3054 C3057 1.386 . S
H3055 C3071 0.930 . S
H3056 C3072 0.931 . S
C3057 H3045 0.929 . S
C3057 C3051 1.390 . S
C3057 C3054 1.386 . S
C3058 C3053 1.490 . S
C3058 C3060 1.395 . S
C3058 C3061 1.403 . S
H3059 C3065 0.930 . S
C3060 H3046 0.930 . S
C3060 C3058 1.395 . S
C3060 C3063 1.403 . S
C3061 C3058 1.403 . S
C3061 C3062 1.524 . S
C3061 C3065 1.400 . S
C3062 H3047 0.960 . S
C3062 H3048 0.960 . S
C3062 H3049 0.960 . S
C3062 C3061 1.524 . S
C3063 C3060 1.403 . S
C3063 C3064 1.392 . S
C3063 C3067 1.495 . S
C3064 C3063 1.392 . S
C3064 C3065 1.385 . S
C3064 C3066 1.478 . S
C3065 H3059 0.930 . S
C3065 C3061 1.400 . S
C3065 C3064 1.385 . S
C3066 C3064 1.478 . S
C3066 C3068 1.381 . S
C3066 C3072 1.383 . S
C3067 C3063 1.495 . S
C3067 H3073 0.959 . S
C3067 H3074 0.961 . S
C3067 H3075 0.960 . S
C3068 C3066 1.381 . S
C3068 C3069 1.394 . S
C3068 H3076 0.930 . S
C3069 C3068 1.394 . S
C3069 C3070 1.383 . S
C3069 H3077 0.929 . S
C3070 C3069 1.383 . S
C3070 C3071 1.377 . S
C3071 H3055 0.930 . S
C3071 C3070 1.377 . S
C3071 C3072 1.379 . S
C3072 H3056 0.931 . S
C3072 C3066 1.383 . S
C3072 C3071 1.379 . S
H3073 C3067 0.959 . S
H3074 C3067 0.961 . S
H3075 C3067 0.960 . S
H3076 C3068 0.930 . S
H3077 C3069 0.929 . S
H3078 C3086 0.929 . S
H3079 C3088 0.930 . S
H3080 C3090 0.930 . S
H3081 C3093 0.929 . S
H3082 C3096 0.930 . S
H3083 C3098 0.960 . S
H3084 C3098 0.960 . S
H3085 C3098 0.960 . S
C3086 H3078 0.929 . S
C3086 C3087 1.377 . S
C3086 C3088 1.384 . S
C3087 C3086 1.377 . S
C3087 C3093 1.390 . S
C3088 H3079 0.930 . S
C3088 C3086 1.384 . S
C3088 C3089 1.372 . S
C3089 C3088 1.372 . S
C3089 C3090 1.400 . S
C3089 C3094 1.490 . S
C3090 H3080 0.930 . S
C3090 C3089 1.400 . S
C3090 C3093 1.386 . S
H3091 C3107 0.930 . S
H3092 C3108 0.931 . S
C3093 H3081 0.929 . S
C3093 C3087 1.390 . S
C3093 C3090 1.386 . S
C3094 C3089 1.490 . S
C3094 C3096 1.395 . S
C3094 C3097 1.403 . S
H3095 C3101 0.930 . S
C3096 H3082 0.930 . S
C3096 C3094 1.395 . S
C3096 C3099 1.403 . S
C3097 C3094 1.403 . S
C3097 C3098 1.524 . S
C3097 C3101 1.400 . S
C3098 H3083 0.960 . S
C3098 H3084 0.960 . S
C3098 H3085 0.960 . S
C3098 C3097 1.524 . S
C3099 C3096 1.403 . S
C3099 C3100 1.392 . S
C3099 C3103 1.495 . S
C3100 C3099 1.392 . S
C3100 C3101 1.385 . S
C3100 C3102 1.478 . S
C3101 H3095 0.930 . S
C3101 C3097 1.400 . S
C3101 C3100 1.385 . S
C3102 C3100 1.478 . S
C3102 C3104 1.381 . S
C3102 C3108 1.383 . S
C3103 C3099 1.495 . S
C3103 H3109 0.959 . S
C3103 H3110 0.961 . S
C3103 H3111 0.960 . S
C3104 C3102 1.381 . S
C3104 C3105 1.394 . S
C3104 H3112 0.930 . S
C3105 C3104 1.394 . S
C3105 C3106 1.383 . S
C3105 H3113 0.929 . S
C3106 C3105 1.383 . S
C3106 C3107 1.377 . S
C3107 H3091 0.930 . S
C3107 C3106 1.377 . S
C3107 C3108 1.379 . S
C3108 H3092 0.931 . S
C3108 C3102 1.383 . S
C3108 C3107 1.379 . S
H3109 C3103 0.959 . S
H3110 C3103 0.961 . S
H3111 C3103 0.960 . S
H3112 C3104 0.930 . S
H3113 C3105 0.929 . S
H3114 C3122 0.929 . S
H3115 C3124 0.930 . S
H3116 C3126 0.930 . S
H3117 C3129 0.929 . S
H3118 C3132 0.930 . S
H3119 C3134 0.960 . S
H3120 C3134 0.960 . S
H3121 C3134 0.960 . S
C3122 H3114 0.929 . S
C3122 C3123 1.377 . S
C3122 C3124 1.384 . S
C3123 C3122 1.377 . S
C3123 C3129 1.390 . S
C3124 H3115 0.930 . S
C3124 C3122 1.384 . S
C3124 C3125 1.372 . S
C3125 C3124 1.372 . S
C3125 C3126 1.400 . S
C3125 C3130 1.490 . S
C3126 H3116 0.930 . S
C3126 C3125 1.400 . S
C3126 C3129 1.386 . S
H3127 C3143 0.930 . S
H3128 C3144 0.931 . S
C3129 H3117 0.929 . S
C3129 C3123 1.390 . S
C3129 C3126 1.386 . S
C3130 C3125 1.490 . S
C3130 C3132 1.395 . S
C3130 C3133 1.403 . S
H3131 C3137 0.930 . S
C3132 H3118 0.930 . S
C3132 C3130 1.395 . S
C3132 C3135 1.403 . S
C3133 C3130 1.403 . S
C3133 C3134 1.524 . S
C3133 C3137 1.400 . S
C3134 H3119 0.960 . S
C3134 H3120 0.960 . S
C3134 H3121 0.960 . S
C3134 C3133 1.524 . S
C3135 C3132 1.403 . S
C3135 C3136 1.392 . S
C3135 C3139 1.495 . S
C3136 C3135 1.392 . S
C3136 C3137 1.385 . S
C3136 C3138 1.478 . S
C3137 H3131 0.930 . S
C3137 C3133 1.400 . S
C3137 C3136 1.385 . S
C3138 C3136 1.478 . S
C3138 C3140 1.381 . S
C3138 C3144 1.383 . S
C3139 C3135 1.495 . S
C3139 H3145 0.959 . S
C3139 H3146 0.961 . S
C3139 H3147 0.960 . S
C3140 C3138 1.381 . S
C3140 C3141 1.394 . S
C3140 H3148 0.930 . S
C3141 C3140 1.394 . S
C3141 C3142 1.383 . S
C3141 H3149 0.929 . S
C3142 C3141 1.383 . S
C3142 C3143 1.377 . S
C3143 H3127 0.930 . S
C3143 C3142 1.377 . S
C3143 C3144 1.379 . S
C3144 H3128 0.931 . S
C3144 C3138 1.383 . S
C3144 C3143 1.379 . S
H3145 C3139 0.959 . S
H3146 C3139 0.961 . S
H3147 C3139 0.960 . S
H3148 C3140 0.930 . S
H3149 C3141 0.929 . S
H3150 C3158 0.929 . S
H3151 C3160 0.930 . S
H3152 C3162 0.930 . S
H3153 C3165 0.929 . S
H3154 C3168 0.930 . S
H3155 C3170 0.960 . S
H3156 C3170 0.960 . S
H3157 C3170 0.960 . S
C3158 H3150 0.929 . S
C3158 C3159 1.377 . S
C3158 C3160 1.384 . S
C3159 C3158 1.377 . S
C3159 C3165 1.390 . S
C3160 H3151 0.930 . S
C3160 C3158 1.384 . S
C3160 C3161 1.372 . S
C3161 C3160 1.372 . S
C3161 C3162 1.400 . S
C3161 C3166 1.490 . S
C3162 H3152 0.930 . S
C3162 C3161 1.400 . S
C3162 C3165 1.386 . S
H3163 C3179 0.930 . S
H3164 C3180 0.931 . S
C3165 H3153 0.929 . S
C3165 C3159 1.390 . S
C3165 C3162 1.386 . S
C3166 C3161 1.490 . S
C3166 C3168 1.395 . S
C3166 C3169 1.403 . S
H3167 C3173 0.930 . S
C3168 H3154 0.930 . S
C3168 C3166 1.395 . S
C3168 C3171 1.403 . S
C3169 C3166 1.403 . S
C3169 C3170 1.524 . S
C3169 C3173 1.400 . S
C3170 H3155 0.960 . S
C3170 H3156 0.960 . S
C3170 H3157 0.960 . S
C3170 C3169 1.524 . S
C3171 C3168 1.403 . S
C3171 C3172 1.392 . S
C3171 C3175 1.495 . S
C3172 C3171 1.392 . S
C3172 C3173 1.385 . S
C3172 C3174 1.478 . S
C3173 H3167 0.930 . S
C3173 C3169 1.400 . S
C3173 C3172 1.385 . S
C3174 C3172 1.478 . S
C3174 C3176 1.381 . S
C3174 C3180 1.383 . S
C3175 C3171 1.495 . S
C3175 H3181 0.959 . S
C3175 H3182 0.961 . S
C3175 H3183 0.960 . S
C3176 C3174 1.381 . S
C3176 C3177 1.394 . S
C3176 H3184 0.930 . S
C3177 C3176 1.394 . S
C3177 C3178 1.383 . S
C3177 H3185 0.929 . S
C3178 C3177 1.383 . S
C3178 C3179 1.377 . S
C3179 H3163 0.930 . S
C3179 C3178 1.377 . S
C3179 C3180 1.379 . S
C3180 H3164 0.931 . S
C3180 C3174 1.383 . S
C3180 C3179 1.379 . S
H3181 C3175 0.959 . S
H3182 C3175 0.961 . S
H3183 C3175 0.960 . S
H3184 C3176 0.930 . S
H3185 C3177 0.929 . S
H3186 C3194 0.953 . S
H3187 C3196 0.930 . S
H3188 C3198 0.930 . S
H3189 C3201 0.929 . S
H3190 C3204 0.930 1_565 S
H3191 C3206 0.960 . S
H3192 C3206 0.960 . S
H3193 C3206 0.960 . S
C3194 H3186 0.953 . S
C3194 C3195 1.329 1_565 S
C3194 C3196 1.411 . S
C3195 C3194 1.329 1_545 S
C3195 C3201 1.390 . S
C3196 H3187 0.930 . S
C3196 C3194 1.411 . S
C3196 C3197 1.372 1_565 S
C3197 C3196 1.372 1_545 S
C3197 C3198 1.400 . S
C3197 C3202 1.490 . S
C3198 H3188 0.930 . S
C3198 C3197 1.400 . S
C3198 C3201 1.386 . S
H3199 C3215 0.930 . S
H3200 C3216 0.931 . S
C3201 H3189 0.929 . S
C3201 C3195 1.390 . S
C3201 C3198 1.386 . S
C3202 C3197 1.490 . S
C3202 C3204 1.395 . S
C3202 C3205 1.403 . S
H3203 C3209 0.930 . S
C3204 H3190 0.930 1_545 S
C3204 C3202 1.395 . S
C3204 C3207 1.402 . S
C3205 C3202 1.403 . S
C3205 C3206 1.524 . S
C3205 C3209 1.400 . S
C3206 H3191 0.960 . S
C3206 H3192 0.960 . S
C3206 H3193 0.960 . S
C3206 C3205 1.524 . S
C3207 C3204 1.402 . S
C3207 C3208 1.392 . S
C3207 C3211 1.498 1_545 S
C3208 C3207 1.392 . S
C3208 C3209 1.385 . S
C3208 C3210 1.478 . S
C3209 H3203 0.930 . S
C3209 C3205 1.400 . S
C3209 C3208 1.385 . S
C3210 C3208 1.478 . S
C3210 C3212 1.381 1_545 S
C3210 C3216 1.383 . S
C3211 C3207 1.498 1_565 S
C3211 H3217 0.959 . S
C3211 H3218 0.962 . S
C3211 H3219 0.960 . S
C3212 C3210 1.381 1_565 S
C3212 C3213 1.394 . S
C3212 H3220 0.930 . S
C3213 C3212 1.394 . S
C3213 C3214 1.383 1_565 S
C3213 H3221 0.929 . S
C3214 C3213 1.383 1_545 S
C3214 C3215 1.377 . S
C3215 H3199 0.930 . S
C3215 C3214 1.377 . S
C3215 C3216 1.379 . S
C3216 H3200 0.931 . S
C3216 C3210 1.383 . S
C3216 C3215 1.379 . S
H3217 C3211 0.959 . S
H3218 C3211 0.962 . S
H3219 C3211 0.960 . S
H3220 C3212 0.930 . S
H3221 C3213 0.929 . S
H3222 C3230 0.929 . S
H3223 C3232 0.930 . S
H3224 C3234 0.930 1_455 S
H3225 C3237 0.929 1_455 S
H3226 C3240 0.930 . S
H3227 C3242 0.960 . S
H3228 C3242 0.960 . S
H3229 C3242 0.960 . S
C3230 H3222 0.929 . S
C3230 C3231 1.377 . S
C3230 C3232 1.384 . S
C3231 C3230 1.377 . S
C3231 C3237 1.390 . S
C3232 H3223 0.930 . S
C3232 C3230 1.384 . S
C3232 C3233 1.372 . S
C3233 C3232 1.372 . S
C3233 C3234 1.400 . S
C3233 C3238 1.490 . S
C3234 H3224 0.930 1_655 S
C3234 C3233 1.400 . S
C3234 C3237 1.386 . S
H3235 C3251 0.930 . S
H3236 C3252 0.931 . S
C3237 H3225 0.929 1_655 S
C3237 C3231 1.390 . S
C3237 C3234 1.386 . S
C3238 C3233 1.490 . S
C3238 C3240 1.395 . S
C3238 C3241 1.403 . S
H3239 C3245 0.930 . S
C3240 H3226 0.930 . S
C3240 C3238 1.395 . S
C3240 C3243 1.403 . S
C3241 C3238 1.403 . S
C3241 C3242 1.524 . S
C3241 C3245 1.400 . S
C3242 H3227 0.960 . S
C3242 H3228 0.960 . S
C3242 H3229 0.960 . S
C3242 C3241 1.524 . S
C3243 C3240 1.403 . S
C3243 C3244 1.392 . S
C3243 C3247 1.501 . S
C3244 C3243 1.392 . S
C3244 C3245 1.385 . S
C3244 C3246 1.478 . S
C3245 H3239 0.930 . S
C3245 C3241 1.400 . S
C3245 C3244 1.385 . S
C3246 C3244 1.478 . S
C3246 C3248 1.381 . S
C3246 C3252 1.383 1_655 S
C3247 C3243 1.501 . S
C3247 H3253 0.919 1_655 S
C3247 H3254 0.947 1_655 S
C3247 H3255 0.983 . S
C3248 C3246 1.381 . S
C3248 C3249 1.394 . S
C3248 H3256 0.930 . S
C3249 C3248 1.394 . S
C3249 C3250 1.383 . S
C3249 H3257 0.929 . S
C3250 C3249 1.383 . S
C3250 C3251 1.377 1_655 S
C3251 H3235 0.930 . S
C3251 C3250 1.377 1_455 S
C3251 C3252 1.379 . S
C3252 H3236 0.931 . S
C3252 C3246 1.383 1_455 S
C3252 C3251 1.379 . S
H3253 C3247 0.919 1_455 S
H3254 C3247 0.947 1_455 S
H3255 C3247 0.983 . S
H3256 C3248 0.930 . S
H3257 C3249 0.929 . S
H3258 C3266 0.929 . S
H3259 C3268 0.930 . S
H3260 C3270 0.930 . S
H3261 C3273 0.929 . S
H3262 C3276 0.930 . S
H3263 C3278 0.960 . S
H3264 C3278 0.960 . S
H3265 C3278 0.960 . S
C3266 H3258 0.929 . S
C3266 C3267 1.377 . S
C3266 C3268 1.384 . S
C3267 C3266 1.377 . S
C3267 C3273 1.390 . S
C3268 H3259 0.930 . S
C3268 C3266 1.384 . S
C3268 C3269 1.372 . S
C3269 C3268 1.372 . S
C3269 C3270 1.400 . S
C3269 C3274 1.490 . S
C3270 H3260 0.930 . S
C3270 C3269 1.400 . S
C3270 C3273 1.386 . S
H3271 C3287 0.930 . S
H3272 C3288 0.931 . S
C3273 H3261 0.929 . S
C3273 C3267 1.390 . S
C3273 C3270 1.386 . S
C3274 C3269 1.490 . S
C3274 C3276 1.395 . S
C3274 C3277 1.403 . S
H3275 C3281 0.930 . S
C3276 H3262 0.930 . S
C3276 C3274 1.395 . S
C3276 C3279 1.403 . S
C3277 C3274 1.403 . S
C3277 C3278 1.524 . S
C3277 C3281 1.400 . S
C3278 H3263 0.960 . S
C3278 H3264 0.960 . S
C3278 H3265 0.960 . S
C3278 C3277 1.524 . S
C3279 C3276 1.403 . S
C3279 C3280 1.392 . S
C3279 C3283 1.495 . S
C3280 C3279 1.392 . S
C3280 C3281 1.385 . S
C3280 C3282 1.478 . S
C3281 H3275 0.930 . S
C3281 C3277 1.400 . S
C3281 C3280 1.385 . S
C3282 C3280 1.478 . S
C3282 C3284 1.381 . S
C3282 C3288 1.383 . S
C3283 C3279 1.495 . S
C3283 H3289 0.959 . S
C3283 H3290 0.961 . S
C3283 H3291 0.960 . S
C3284 C3282 1.381 . S
C3284 C3285 1.394 . S
C3284 H3292 0.930 . S
C3285 C3284 1.394 . S
C3285 C3286 1.383 . S
C3285 H3293 0.929 . S
C3286 C3285 1.383 . S
C3286 C3287 1.377 . S
C3287 H3271 0.930 . S
C3287 C3286 1.377 . S
C3287 C3288 1.379 . S
C3288 H3272 0.931 . S
C3288 C3282 1.383 . S
C3288 C3287 1.379 . S
H3289 C3283 0.959 . S
H3290 C3283 0.961 . S
H3291 C3283 0.960 . S
H3292 C3284 0.930 . S
H3293 C3285 0.929 . S
H3294 C3302 0.929 . S
H3295 C3304 0.930 . S
H3296 C3306 0.930 . S
H3297 C3309 0.929 . S
H3298 C3312 0.930 . S
H3299 C3314 0.960 . S
H3300 C3314 0.960 . S
H3301 C3314 0.960 . S
C3302 H3294 0.929 . S
C3302 C3303 1.377 . S
C3302 C3304 1.384 . S
C3303 C3302 1.377 . S
C3303 C3309 1.390 . S
C3304 H3295 0.930 . S
C3304 C3302 1.384 . S
C3304 C3305 1.372 . S
C3305 C3304 1.372 . S
C3305 C3306 1.400 . S
C3305 C3310 1.490 . S
C3306 H3296 0.930 . S
C3306 C3305 1.400 . S
C3306 C3309 1.386 . S
H3307 C3323 0.930 . S
H3308 C3324 0.931 . S
C3309 H3297 0.929 . S
C3309 C3303 1.390 . S
C3309 C3306 1.386 . S
C3310 C3305 1.490 . S
C3310 C3312 1.395 . S
C3310 C3313 1.403 . S
H3311 C3317 0.930 . S
C3312 H3298 0.930 . S
C3312 C3310 1.395 . S
C3312 C3315 1.403 . S
C3313 C3310 1.403 . S
C3313 C3314 1.524 . S
C3313 C3317 1.400 . S
C3314 H3299 0.960 . S
C3314 H3300 0.960 . S
C3314 H3301 0.960 . S
C3314 C3313 1.524 . S
C3315 C3312 1.403 . S
C3315 C3316 1.392 . S
C3315 C3319 1.495 . S
C3316 C3315 1.392 . S
C3316 C3317 1.385 . S
C3316 C3318 1.478 . S
C3317 H3311 0.930 . S
C3317 C3313 1.400 . S
C3317 C3316 1.385 . S
C3318 C3316 1.478 . S
C3318 C3320 1.381 . S
C3318 C3324 1.383 . S
C3319 C3315 1.495 . S
C3319 H3325 0.959 . S
C3319 H3326 0.961 . S
C3319 H3327 0.960 . S
C3320 C3318 1.381 . S
C3320 C3321 1.394 . S
C3320 H3328 0.930 . S
C3321 C3320 1.394 . S
C3321 C3322 1.383 . S
C3321 H3329 0.929 . S
C3322 C3321 1.383 . S
C3322 C3323 1.377 . S
C3323 H3307 0.930 . S
C3323 C3322 1.377 . S
C3323 C3324 1.379 . S
C3324 H3308 0.931 . S
C3324 C3318 1.383 . S
C3324 C3323 1.379 . S
H3325 C3319 0.959 . S
H3326 C3319 0.961 . S
H3327 C3319 0.960 . S
H3328 C3320 0.930 . S
H3329 C3321 0.929 . S
H3330 C3338 0.929 . S
H3331 C3340 0.930 . S
H3332 C3342 0.930 . S
H3333 C3345 0.929 . S
H3334 C3348 0.930 . S
H3335 C3350 0.960 . S
H3336 C3350 0.960 . S
H3337 C3350 0.960 . S
C3338 H3330 0.929 . S
C3338 C3339 1.377 . S
C3338 C3340 1.384 . S
C3339 C3338 1.377 . S
C3339 C3345 1.390 . S
C3340 H3331 0.930 . S
C3340 C3338 1.384 . S
C3340 C3341 1.372 . S
C3341 C3340 1.372 . S
C3341 C3342 1.400 . S
C3341 C3346 1.490 . S
C3342 H3332 0.930 . S
C3342 C3341 1.400 . S
C3342 C3345 1.386 . S
H3343 C3359 0.930 . S
H3344 C3360 0.931 . S
C3345 H3333 0.929 . S
C3345 C3339 1.390 . S
C3345 C3342 1.386 . S
C3346 C3341 1.490 . S
C3346 C3348 1.395 . S
C3346 C3349 1.403 . S
H3347 C3353 0.930 . S
C3348 H3334 0.930 . S
C3348 C3346 1.395 . S
C3348 C3351 1.403 . S
C3349 C3346 1.403 . S
C3349 C3350 1.524 . S
C3349 C3353 1.400 . S
C3350 H3335 0.960 . S
C3350 H3336 0.960 . S
C3350 H3337 0.960 . S
C3350 C3349 1.524 . S
C3351 C3348 1.403 . S
C3351 C3352 1.392 . S
C3351 C3355 1.495 . S
C3352 C3351 1.392 . S
C3352 C3353 1.385 . S
C3352 C3354 1.478 . S
C3353 H3347 0.930 . S
C3353 C3349 1.400 . S
C3353 C3352 1.385 . S
C3354 C3352 1.478 . S
C3354 C3356 1.381 . S
C3354 C3360 1.383 . S
C3355 C3351 1.495 . S
C3355 H3361 0.959 . S
C3355 H3362 0.961 . S
C3355 H3363 0.960 . S
C3356 C3354 1.381 . S
C3356 C3357 1.394 . S
C3356 H3364 0.930 . S
C3357 C3356 1.394 . S
C3357 C3358 1.383 . S
C3357 H3365 0.929 . S
C3358 C3357 1.383 . S
C3358 C3359 1.377 . S
C3359 H3343 0.930 . S
C3359 C3358 1.377 . S
C3359 C3360 1.379 . S
C3360 H3344 0.931 . S
C3360 C3354 1.383 . S
C3360 C3359 1.379 . S
H3361 C3355 0.959 . S
H3362 C3355 0.961 . S
H3363 C3355 0.960 . S
H3364 C3356 0.930 . S
H3365 C3357 0.929 . S
H3366 C3374 0.929 . S
H3367 C3376 0.930 . S
H3368 C3378 0.930 . S
H3369 C3381 0.929 . S
H3370 C3384 0.930 . S
H3371 C3386 0.960 . S
H3372 C3386 0.960 . S
H3373 C3386 0.960 . S
C3374 H3366 0.929 . S
C3374 C3375 1.377 . S
C3374 C3376 1.384 . S
C3375 C3374 1.377 . S
C3375 C3381 1.390 . S
C3376 H3367 0.930 . S
C3376 C3374 1.384 . S
C3376 C3377 1.372 . S
C3377 C3376 1.372 . S
C3377 C3378 1.400 . S
C3377 C3382 1.490 . S
C3378 H3368 0.930 . S
C3378 C3377 1.400 . S
C3378 C3381 1.386 . S
H3379 C3395 0.930 . S
H3380 C3396 0.931 . S
C3381 H3369 0.929 . S
C3381 C3375 1.390 . S
C3381 C3378 1.386 . S
C3382 C3377 1.490 . S
C3382 C3384 1.395 . S
C3382 C3385 1.403 . S
H3383 C3389 0.930 . S
C3384 H3370 0.930 . S
C3384 C3382 1.395 . S
C3384 C3387 1.403 . S
C3385 C3382 1.403 . S
C3385 C3386 1.524 . S
C3385 C3389 1.400 . S
C3386 H3371 0.960 . S
C3386 H3372 0.960 . S
C3386 H3373 0.960 . S
C3386 C3385 1.524 . S
C3387 C3384 1.403 . S
C3387 C3388 1.392 . S
C3387 C3391 1.495 . S
C3388 C3387 1.392 . S
C3388 C3389 1.385 . S
C3388 C3390 1.478 . S
C3389 H3383 0.930 . S
C3389 C3385 1.400 . S
C3389 C3388 1.385 . S
C3390 C3388 1.478 . S
C3390 C3392 1.381 . S
C3390 C3396 1.383 . S
C3391 C3387 1.495 . S
C3391 H3397 0.959 . S
C3391 H3398 0.961 . S
C3391 H3399 0.960 . S
C3392 C3390 1.381 . S
C3392 C3393 1.394 . S
C3392 H3400 0.930 . S
C3393 C3392 1.394 . S
C3393 C3394 1.383 . S
C3393 H3401 0.929 . S
C3394 C3393 1.383 . S
C3394 C3395 1.377 . S
C3395 H3379 0.930 . S
C3395 C3394 1.377 . S
C3395 C3396 1.379 . S
C3396 H3380 0.931 . S
C3396 C3390 1.383 . S
C3396 C3395 1.379 . S
H3397 C3391 0.959 . S
H3398 C3391 0.961 . S
H3399 C3391 0.960 . S
H3400 C3392 0.930 . S
H3401 C3393 0.929 . S
H3402 C3410 0.929 . S
H3403 C3412 0.930 . S
H3404 C3414 0.930 . S
H3405 C3417 0.929 . S
H3406 C3420 0.930 . S
H3407 C3422 0.960 . S
H3408 C3422 0.960 . S
H3409 C3422 0.960 . S
C3410 H3402 0.929 . S
C3410 C3411 1.377 . S
C3410 C3412 1.384 . S
C3411 C3410 1.377 . S
C3411 C3417 1.390 . S
C3412 H3403 0.930 . S
C3412 C3410 1.384 . S
C3412 C3413 1.372 . S
C3413 C3412 1.372 . S
C3413 C3414 1.400 . S
C3413 C3418 1.490 . S
C3414 H3404 0.930 . S
C3414 C3413 1.400 . S
C3414 C3417 1.386 . S
H3415 C3431 0.930 . S
H3416 C3432 0.931 . S
C3417 H3405 0.929 . S
C3417 C3411 1.390 . S
C3417 C3414 1.386 . S
C3418 C3413 1.490 . S
C3418 C3420 1.395 . S
C3418 C3421 1.403 . S
H3419 C3425 0.930 . S
C3420 H3406 0.930 . S
C3420 C3418 1.395 . S
C3420 C3423 1.403 . S
C3421 C3418 1.403 . S
C3421 C3422 1.524 . S
C3421 C3425 1.400 . S
C3422 H3407 0.960 . S
C3422 H3408 0.960 . S
C3422 H3409 0.960 . S
C3422 C3421 1.524 . S
C3423 C3420 1.403 . S
C3423 C3424 1.392 . S
C3423 C3427 1.495 . S
C3424 C3423 1.392 . S
C3424 C3425 1.385 . S
C3424 C3426 1.478 . S
C3425 H3419 0.930 . S
C3425 C3421 1.400 . S
C3425 C3424 1.385 . S
C3426 C3424 1.478 . S
C3426 C3428 1.381 . S
C3426 C3432 1.383 . S
C3427 C3423 1.495 . S
C3427 H3433 0.959 . S
C3427 H3434 0.961 . S
C3427 H3435 0.960 . S
C3428 C3426 1.381 . S
C3428 C3429 1.394 . S
C3428 H3436 0.930 . S
C3429 C3428 1.394 . S
C3429 C3430 1.383 . S
C3429 H3437 0.929 . S
C3430 C3429 1.383 . S
C3430 C3431 1.377 . S
C3431 H3415 0.930 . S
C3431 C3430 1.377 . S
C3431 C3432 1.379 . S
C3432 H3416 0.931 . S
C3432 C3426 1.383 . S
C3432 C3431 1.379 . S
H3433 C3427 0.959 . S
H3434 C3427 0.961 . S
H3435 C3427 0.960 . S
H3436 C3428 0.930 . S
H3437 C3429 0.929 . S
H3438 C3446 0.929 . S
H3439 C3448 0.930 . S
H3440 C3450 0.930 . S
H3441 C3453 0.929 . S
H3442 C3456 0.930 . S
H3443 C3458 0.960 . S
H3444 C3458 0.960 . S
H3445 C3458 0.960 . S
C3446 H3438 0.929 . S
C3446 C3447 1.377 . S
C3446 C3448 1.384 . S
C3447 C3446 1.377 . S
C3447 C3453 1.390 . S
C3448 H3439 0.930 . S
C3448 C3446 1.384 . S
C3448 C3449 1.372 . S
C3449 C3448 1.372 . S
C3449 C3450 1.400 . S
C3449 C3454 1.490 . S
C3450 H3440 0.930 . S
C3450 C3449 1.400 . S
C3450 C3453 1.386 . S
H3451 C3467 0.930 . S
H3452 C3468 0.931 . S
C3453 H3441 0.929 . S
C3453 C3447 1.390 . S
C3453 C3450 1.386 . S
C3454 C3449 1.490 . S
C3454 C3456 1.395 . S
C3454 C3457 1.403 . S
H3455 C3461 0.930 . S
C3456 H3442 0.930 . S
C3456 C3454 1.395 . S
C3456 C3459 1.403 . S
C3457 C3454 1.403 . S
C3457 C3458 1.524 . S
C3457 C3461 1.400 . S
C3458 H3443 0.960 . S
C3458 H3444 0.960 . S
C3458 H3445 0.960 . S
C3458 C3457 1.524 . S
C3459 C3456 1.403 . S
C3459 C3460 1.392 . S
C3459 C3463 1.495 . S
C3460 C3459 1.392 . S
C3460 C3461 1.385 . S
C3460 C3462 1.478 . S
C3461 H3455 0.930 . S
C3461 C3457 1.400 . S
C3461 C3460 1.385 . S
C3462 C3460 1.478 . S
C3462 C3464 1.381 . S
C3462 C3468 1.383 . S
C3463 C3459 1.495 . S
C3463 H3469 0.959 . S
C3463 H3470 0.961 . S
C3463 H3471 0.960 . S
C3464 C3462 1.381 . S
C3464 C3465 1.394 . S
C3464 H3472 0.930 . S
C3465 C3464 1.394 . S
C3465 C3466 1.383 . S
C3465 H3473 0.929 . S
C3466 C3465 1.383 . S
C3466 C3467 1.377 . S
C3467 H3451 0.930 . S
C3467 C3466 1.377 . S
C3467 C3468 1.379 . S
C3468 H3452 0.931 . S
C3468 C3462 1.383 . S
C3468 C3467 1.379 . S
H3469 C3463 0.959 . S
H3470 C3463 0.961 . S
H3471 C3463 0.960 . S
H3472 C3464 0.930 . S
H3473 C3465 0.929 . S
H3474 C3482 0.929 . S
H3475 C3484 0.930 . S
H3476 C3486 0.930 . S
H3477 C3489 0.929 . S
H3478 C3492 0.930 . S
H3479 C3494 0.960 . S
H3480 C3494 0.960 . S
H3481 C3494 0.960 . S
C3482 H3474 0.929 . S
C3482 C3483 1.377 . S
C3482 C3484 1.384 . S
C3483 C3482 1.377 . S
C3483 C3489 1.390 . S
C3484 H3475 0.930 . S
C3484 C3482 1.384 . S
C3484 C3485 1.372 . S
C3485 C3484 1.372 . S
C3485 C3486 1.400 . S
C3485 C3490 1.490 . S
C3486 H3476 0.930 . S
C3486 C3485 1.400 . S
C3486 C3489 1.386 . S
H3487 C3503 0.930 . S
H3488 C3504 0.931 . S
C3489 H3477 0.929 . S
C3489 C3483 1.390 . S
C3489 C3486 1.386 . S
C3490 C3485 1.490 . S
C3490 C3492 1.395 . S
C3490 C3493 1.403 . S
H3491 C3497 0.930 . S
C3492 H3478 0.930 . S
C3492 C3490 1.395 . S
C3492 C3495 1.403 . S
C3493 C3490 1.403 . S
C3493 C3494 1.524 . S
C3493 C3497 1.400 . S
C3494 H3479 0.960 . S
C3494 H3480 0.960 . S
C3494 H3481 0.960 . S
C3494 C3493 1.524 . S
C3495 C3492 1.403 . S
C3495 C3496 1.392 . S
C3495 C3499 1.495 . S
C3496 C3495 1.392 . S
C3496 C3497 1.385 . S
C3496 C3498 1.478 . S
C3497 H3491 0.930 . S
C3497 C3493 1.400 . S
C3497 C3496 1.385 . S
C3498 C3496 1.478 . S
C3498 C3500 1.381 . S
C3498 C3504 1.383 . S
C3499 C3495 1.495 . S
C3499 H3505 0.959 . S
C3499 H3506 0.961 . S
C3499 H3507 0.960 . S
C3500 C3498 1.381 . S
C3500 C3501 1.394 . S
C3500 H3508 0.930 . S
C3501 C3500 1.394 . S
C3501 C3502 1.383 . S
C3501 H3509 0.929 . S
C3502 C3501 1.383 . S
C3502 C3503 1.377 . S
C3503 H3487 0.930 . S
C3503 C3502 1.377 . S
C3503 C3504 1.379 . S
C3504 H3488 0.931 . S
C3504 C3498 1.383 . S
C3504 C3503 1.379 . S
H3505 C3499 0.959 . S
H3506 C3499 0.961 . S
H3507 C3499 0.960 . S
H3508 C3500 0.930 . S
H3509 C3501 0.929 . S
H3510 C3518 0.929 . S
H3511 C3520 0.930 . S
H3512 C3522 0.930 . S
H3513 C3525 0.929 . S
H3514 C3528 0.930 . S
H3515 C3530 0.960 . S
H3516 C3530 0.960 . S
H3517 C3530 0.960 . S
C3518 H3510 0.929 . S
C3518 C3519 1.377 . S
C3518 C3520 1.384 . S
C3519 C3518 1.377 . S
C3519 C3525 1.390 . S
C3520 H3511 0.930 . S
C3520 C3518 1.384 . S
C3520 C3521 1.372 . S
C3521 C3520 1.372 . S
C3521 C3522 1.400 . S
C3521 C3526 1.490 . S
C3522 H3512 0.930 . S
C3522 C3521 1.400 . S
C3522 C3525 1.386 . S
H3523 C3539 0.930 . S
H3524 C3540 0.931 . S
C3525 H3513 0.929 . S
C3525 C3519 1.390 . S
C3525 C3522 1.386 . S
C3526 C3521 1.490 . S
C3526 C3528 1.395 1_655 S
C3526 C3529 1.403 . S
H3527 C3533 0.930 . S
C3528 H3514 0.930 . S
C3528 C3526 1.395 1_455 S
C3528 C3531 1.403 . S
C3529 C3526 1.403 . S
C3529 C3530 1.524 . S
C3529 C3533 1.400 . S
C3530 H3515 0.960 . S
C3530 H3516 0.960 . S
C3530 H3517 0.960 . S
C3530 C3529 1.524 . S
C3531 C3528 1.403 . S
C3531 C3532 1.392 1_455 S
C3531 C3535 1.495 . S
C3532 C3531 1.392 1_655 S
C3532 C3533 1.385 . S
C3532 C3534 1.526 . S
C3533 H3527 0.930 . S
C3533 C3529 1.400 . S
C3533 C3532 1.385 . S
C3534 C3532 1.526 . S
C3534 C3536 1.355 . S
C3534 C3540 1.371 1_655 S
C3535 C3531 1.495 . S
C3535 H3541 0.959 . S
C3535 H3542 0.961 . S
C3535 H3543 0.960 . S
C3536 C3534 1.355 . S
C3536 C3537 1.394 . S
C3536 H3544 0.930 . S
C3537 C3536 1.394 . S
C3537 C3538 1.384 . S
C3537 H3545 0.929 . S
C3538 C3537 1.384 . S
C3538 C3539 1.378 1_655 S
C3539 H3523 0.930 . S
C3539 C3538 1.378 1_455 S
C3539 C3540 1.379 . S
C3540 H3524 0.931 . S
C3540 C3534 1.371 1_455 S
C3540 C3539 1.379 . S
H3541 C3535 0.959 . S
H3542 C3535 0.961 . S
H3543 C3535 0.960 . S
H3544 C3536 0.930 . S
H3545 C3537 0.929 . S
H3546 C3554 0.929 . S
H3547 C3556 0.930 . S
H3548 C3558 0.930 . S
H3549 C3561 0.929 . S
H3550 C3564 0.930 . S
H3551 C3566 0.960 . S
H3552 C3566 0.960 . S
H3553 C3566 0.960 . S
C3554 H3546 0.929 . S
C3554 C3555 1.377 . S
C3554 C3556 1.384 . S
C3555 C3554 1.377 . S
C3555 C3561 1.390 . S
C3556 H3547 0.930 . S
C3556 C3554 1.384 . S
C3556 C3557 1.372 . S
C3557 C3556 1.372 . S
C3557 C3558 1.400 . S
C3557 C3562 1.490 . S
C3558 H3548 0.930 . S
C3558 C3557 1.400 . S
C3558 C3561 1.386 . S
H3559 C3575 0.930 . S
H3560 C3576 0.931 . S
C3561 H3549 0.929 . S
C3561 C3555 1.390 . S
C3561 C3558 1.386 . S
C3562 C3557 1.490 . S
C3562 C3564 1.395 . S
C3562 C3565 1.403 . S
H3563 C3569 0.930 . S
C3564 H3550 0.930 . S
C3564 C3562 1.395 . S
C3564 C3567 1.403 . S
C3565 C3562 1.403 . S
C3565 C3566 1.524 . S
C3565 C3569 1.400 . S
C3566 H3551 0.960 . S
C3566 H3552 0.960 . S
C3566 H3553 0.960 . S
C3566 C3565 1.524 . S
C3567 C3564 1.403 . S
C3567 C3568 1.392 . S
C3567 C3571 1.495 . S
C3568 C3567 1.392 . S
C3568 C3569 1.385 . S
C3568 C3570 1.478 . S
C3569 H3563 0.930 . S
C3569 C3565 1.400 . S
C3569 C3568 1.385 . S
C3570 C3568 1.478 . S
C3570 C3572 1.381 . S
C3570 C3576 1.383 . S
C3571 C3567 1.495 . S
C3571 H3577 0.959 . S
C3571 H3578 0.961 . S
C3571 H3579 0.960 . S
C3572 C3570 1.381 . S
C3572 C3573 1.394 . S
C3572 H3580 0.930 . S
C3573 C3572 1.394 . S
C3573 C3574 1.383 . S
C3573 H3581 0.929 . S
C3574 C3573 1.383 . S
C3574 C3575 1.377 . S
C3575 H3559 0.930 . S
C3575 C3574 1.377 . S
C3575 C3576 1.379 . S
C3576 H3560 0.931 . S
C3576 C3570 1.383 . S
C3576 C3575 1.379 . S
H3577 C3571 0.959 . S
H3578 C3571 0.961 . S
H3579 C3571 0.960 . S
H3580 C3572 0.930 . S
H3581 C3573 0.929 . S
H3582 C3590 0.929 . S
H3583 C3592 0.930 . S
H3584 C3594 0.971 . S
H3585 C3597 0.936 1_565 S
H3586 C3600 0.930 . S
H3587 C3602 0.960 . S
H3588 C3602 0.960 . S
H3589 C3602 0.960 . S
C3590 H3582 0.929 . S
C3590 C3591 1.377 . S
C3590 C3592 1.384 . S
C3591 C3590 1.377 . S
C3591 C3597 1.386 . S
C3592 H3583 0.930 . S
C3592 C3590 1.384 . S
C3592 C3593 1.372 . S
C3593 C3592 1.372 . S
C3593 C3594 1.331 1_545 S
C3593 C3598 1.490 . S
C3594 H3584 0.971 . S
C3594 C3593 1.331 1_565 S
C3594 C3597 1.414 1_565 S
H3595 C3611 0.930 . S
H3596 C3612 0.931 . S
C3597 H3585 0.936 1_545 S
C3597 C3591 1.386 . S
C3597 C3594 1.414 1_545 S
C3598 C3593 1.490 . S
C3598 C3600 1.395 . S
C3598 C3601 1.403 . S
H3599 C3605 0.930 . S
C3600 H3586 0.930 . S
C3600 C3598 1.395 . S
C3600 C3603 1.403 . S
C3601 C3598 1.403 . S
C3601 C3602 1.524 . S
C3601 C3605 1.400 . S
C3602 H3587 0.960 . S
C3602 H3588 0.960 . S
C3602 H3589 0.960 . S
C3602 C3601 1.524 . S
C3603 C3600 1.403 . S
C3603 C3604 1.392 . S
C3603 C3607 1.495 . S
C3604 C3603 1.392 . S
C3604 C3605 1.385 . S
C3604 C3606 1.478 . S
C3605 H3599 0.930 . S
C3605 C3601 1.400 . S
C3605 C3604 1.385 . S
C3606 C3604 1.478 . S
C3606 C3608 1.381 . S
C3606 C3612 1.383 1_545 S
C3607 C3603 1.495 . S
C3607 H3613 0.981 . S
C3607 H3614 0.961 1_545 S
C3607 H3615 0.960 . S
C3608 C3606 1.381 . S
C3608 C3609 1.394 . S
C3608 H3616 0.930 . S
C3609 C3608 1.394 . S
C3609 C3610 1.427 . S
C3609 H3617 0.929 . S
C3610 C3609 1.427 . S
C3610 C3611 1.308 1_545 S
C3611 H3595 0.930 . S
C3611 C3610 1.308 1_565 S
C3611 C3612 1.379 . S
C3612 H3596 0.931 . S
C3612 C3606 1.383 1_565 S
C3612 C3611 1.379 . S
H3613 C3607 0.981 . S
H3614 C3607 0.961 1_565 S
H3615 C3607 0.960 . S
H3616 C3608 0.930 . S
H3617 C3609 0.929 . S
C1035 C4 1.455 1_655 S
C1054 C854 1.490 1_655 S
C1071 C38 1.676 . S
C1090 C867 1.671 . S
C1126 C896 1.418 1_545 S
C1107 C74 1.501 . S
C1143 C76 1.493 . S
C1162 C909 1.429 . S
C1179 C2 1.614 . S
C1198 C930 1.604 . S
C1215 C40 1.517 . S
C1234 C959 1.483 . S
C1251 C110 1.603 . S
C1270 C938 1.536 1_655 S
C1306 C951 1.468 . S
C1287 C148 1.499 . S
C1342 C917 1.566 1_545 S
C1323 C182 1.566 1_565 S
C1359 C184 1.524 . S
C1378 C888 1.491 1_545 S
C1414 C846 1.419 1_655 S
C1395 C112 1.477 1_655 S
C1431 C146 1.604 . S
C1450 C875 1.589 . S
C1467 C220 1.595 . S
C1486 C980 1.500 . S
C1503 C254 1.723 . S
C1522 C993 1.721 . S
C1558 C1022 1.515 . S
C1539 C290 1.596 . S
C1575 C292 1.525 . S
C1594 C657 1.523 . S
C1611 C218 1.666 . S
C1630 C678 1.650 . S
C1647 C256 1.533 . S
C1666 C707 1.467 . S
C1683 C326 1.644 . S
C1702 C686 1.619 . S
C1719 C364 1.533 . S
C1738 C699 1.450 . S
C1774 C665 1.629 . S
C1755 C398 1.635 . S
C1810 C1014 1.541 . S
C1791 C400 1.603 . S
C1846 C972 1.462 . S
C1827 C328 1.492 . S
C1882 C1001 1.608 . S
C1863 C362 1.649 . S
C1899 C436 1.560 . S
C1918 C728 1.492 . S
C1935 C470 1.710 . S
C1954 C741 1.709 . S
C1971 C506 1.598 . S
C1990 C770 1.528 . S
C2007 C508 1.559 . S
C2026 C783 1.514 . S
C2062 C804 1.630 . S
C2043 C434 1.671 . S
C2098 C833 1.484 . S
C2079 C472 1.550 . S
C2134 C812 1.671 . S
C2115 C542 1.689 . S
C2170 C825 1.503 . S
C2151 C580 1.544 . S
C2187 C614 1.620 . S
C2206 C791 1.614 . S
C2242 C762 1.526 . S
C2223 C616 1.557 . S
C2259 C544 1.496 . S
C2278 C720 1.421 . S
C2314 C749 1.583 . S
C2295 C578 1.623 . S
C2350 C660 1.452 . S
C2331 C14 1.486 . S
C2367 C39 1.468 . S
C2386 C681 1.386 . S
C2422 C709 1.355 . S
C2403 C75 1.458 . S
C2458 C730 1.234 . S
C2439 C86 1.321 . S
C2494 C744 1.381 . S
C2475 C3 1.503 . S
C2530 C772 1.374 . S
C2511 C50 1.428 . S
C2547 C111 1.523 . S
C2566 C765 1.359 . S
C2583 C158 1.384 . S
C2602 C723 1.293 . S
C2619 C183 1.581 . S
C2638 C751 1.483 . S
C2655 C194 1.466 . S
C2674 C688 1.451 . S
C2710 C702 1.312 . S
C2691 C122 1.386 . S
C2727 C147 1.418 . S
C2746 C667 1.306 . S
C2782 C786 1.436 . S
C2763 C230 1.466 . S
C2799 C255 1.552 . S
C2818 C807 1.414 . S
C2835 C291 1.487 . S
C2854 C835 1.399 . S
C2890 C856 1.267 . S
C2871 C302 1.289 . S
C2907 C219 1.503 . S
C2926 C870 1.433 . S
C2943 C266 1.384 . S
C2962 C898 1.381 . S
C2979 C327 1.393 . S
C2998 C891 1.293 . S
C3015 C374 1.346 . S
C3034 C849 1.307 . S
C3070 C877 1.493 . S
C3051 C399 1.572 . S
C3087 C410 1.473 . S
C3106 C814 1.444 . S
C3123 C338 1.455 . S
C3142 C828 1.376 . S
C3178 C793 1.431 . S
C3159 C363 1.494 . S
C3214 C912 1.360 1_545 S
C3195 C446 1.390 . S
C3231 C471 1.434 . S
C3250 C933 1.293 1_655 S
C3267 C507 1.435 . S
C3286 C961 1.350 . S
C3322 C982 1.258 . S
C3303 C518 1.339 . S
C3358 C996 1.436 . S
C3339 C435 1.562 . S
C3375 C482 1.493 . S
C3394 C1024 1.415 . S
C3411 C543 1.482 . S
C3430 C1017 1.345 . S
C3447 C590 1.459 . S
C3466 C975 1.305 . S
C3502 C1003 1.527 . S
C3483 C615 1.615 . S
C3538 C940 1.356 1_655 S
C3519 C626 1.370 . S
C3574 C954 1.307 . S
C3555 C554 1.426 . S
C3591 C579 1.389 . S
C3610 C919 1.350 1_545 S
