# Generated by pormake.
# Topology tsx, (6,3)-cn, num edge types: 1
# Building blocks:
#     Node 0, Type 0, BuildingBlock: CIFDUS_clean_sbu_1, # of connection points: 6
#     Node 1, Type 0, BuildingBlock: CIFDUS_clean_sbu_1, # of connection points: 6
#     Node 2, Type 1, BuildingBlock: BELTOD_clean_linker_0, # of connection points: 3
#     Node 3, Type 1, BuildingBlock: BELTOD_clean_linker_0, # of connection points: 3
#     Node 4, Type 1, BuildingBlock: BELTOD_clean_linker_0, # of connection points: 3
#     Node 5, Type 1, BuildingBlock: BELTOD_clean_linker_0, # of connection points: 3
#     Edge 6, Type (0, 1), BuildingBlock: XIVTED_clean_linker_0, # of connection points: 2
#     Edge 7, Type (0, 1), BuildingBlock: XIVTED_clean_linker_0, # of connection points: 2
#     Edge 8, Type (0, 1), BuildingBlock: XIVTED_clean_linker_0, # of connection points: 2
#     Edge 9, Type (0, 1), BuildingBlock: XIVTED_clean_linker_0, # of connection points: 2
#     Edge 10, Type (0, 1), BuildingBlock: XIVTED_clean_linker_0, # of connection points: 2
#     Edge 11, Type (0, 1), BuildingBlock: XIVTED_clean_linker_0, # of connection points: 2
#     Edge 12, Type (0, 1), BuildingBlock: XIVTED_clean_linker_0, # of connection points: 2
#     Edge 13, Type (0, 1), BuildingBlock: XIVTED_clean_linker_0, # of connection points: 2
#     Edge 14, Type (0, 1), BuildingBlock: XIVTED_clean_linker_0, # of connection points: 2
#     Edge 15, Type (0, 1), BuildingBlock: XIVTED_clean_linker_0, # of connection points: 2
#     Edge 16, Type (0, 1), BuildingBlock: XIVTED_clean_linker_0, # of connection points: 2
#     Edge 17, Type (0, 1), BuildingBlock: XIVTED_clean_linker_0, # of connection points: 2
# Relax obj value: 0.115
# Max RMSD: 0.149
# Mean RMSD: 0.109
data_MOF--net-tsx--node1-CIFDUS_clean_sbu_1--node2-BELTOD_clean_linker_0--edge1-XIVTED_clean_linker_0
_symmetry_space_group_name_H-M    P1
_symmetry_Int_Tables_number       1
_symmetry_cell_setting            triclinic
loop_
_symmetry_equiv_pos_as_xyz
'x, y, z'
_cell_length_a     20.281351
_cell_length_b     25.439644
_cell_length_c     41.074915
_cell_angle_alpha  97.469519
_cell_angle_beta   92.751055
_cell_angle_gamma 91.279337
loop_
_atom_site_label
_atom_site_type_symbol
_atom_site_fract_x
_atom_site_fract_y
_atom_site_fract_z
_atom_type_partial_charge
O0 O 0.99343 0.10596 0.01919 0.0
Mn1 Mn 0.02979 0.02855 0.01003 0.0
O2 O 0.88349 0.09857 0.0079 0.0
Mn3 Mn 0.88308 0.03058 0.98592 0.0
O4 O 0.06422 0.95071 1.00008 0.0
O5 O 0.12109 0.06118 0.01097 0.0
Mn6 Mn 0.17815 0.0206 0.02856 0.0
O7 O 0.04081 0.02511 0.06075 0.0
O8 O 0.17485 0.95687 1.00156 0.0
O9 O 0.02149 0.03158 0.95934 0.0
O10 O 0.91358 0.02414 0.9437 0.0
O11 O 0.2264 0.07811 0.01848 0.0
O12 O 0.15058 0.01798 0.07089 0.0
C13 C 0.88932 0.96485 0.01345 0.0
C14 C 0.93542 0.12568 0.01857 0.0
C15 C 0.1209 0.93061 0.99472 0.0
C16 C 0.16956 0.09403 0.00869 0.0
C17 C 0.09138 0.02038 0.08034 0.0
C18 C 0.97424 0.02764 0.93705 0.0
O19 O 0.93844 -0.00417 0.00901 0.0
O20 O 0.83365 0.97703 1.00007 0.0
O21 O 0.49914 0.60772 0.5202 0.0
Mn22 Mn 0.53613 0.53044 0.51161 0.0
O23 O 0.38922 0.59983 0.50899 0.0
Mn24 Mn 0.38992 0.53245 0.48617 0.0
O25 O 0.57193 0.453 0.50227 0.0
O26 O 0.62714 0.56322 0.51356 0.0
Mn27 Mn 0.6841 0.52483 0.53297 0.0
O28 O 0.54429 0.52721 0.56249 0.0
O29 O 0.68276 0.45988 0.5072 0.0
O30 O 0.53016 0.53329 0.46096 0.0
O31 O 0.42254 0.52805 0.44438 0.0
O32 O 0.73149 0.58258 0.52228 0.0
O33 O 0.65383 0.52372 0.57485 0.0
C34 C 0.39634 0.4657 0.513 0.0
C35 C 0.44098 0.62719 0.51966 0.0
C36 C 0.62944 0.43326 0.49897 0.0
C37 C 0.67479 0.59654 0.51102 0.0
C38 C 0.59379 0.52435 0.58308 0.0
C39 C 0.48365 0.53079 0.43836 0.0
O40 O 0.44497 0.4975 0.50929 0.0
O41 O 0.34087 0.47754 0.49927 0.0
P42 P 0.12427 0.0923 0.4394 0.0
H43 H 0.07391 0.15363 0.49758 0.0
H44 H 0.96339 0.18477 0.5095 0.0
H45 H 0.88259 0.08345 0.42361 0.0
H46 H 0.99313 0.05245 0.41189 0.0
H47 H 0.2627 0.08522 0.46037 0.0
H48 H 0.32531 0.01736 0.48391 0.0
H49 H 0.14626 0.92137 0.48272 0.0
H50 H 0.08368 0.99071 0.46034 0.0
H51 H 0.09739 0.15759 0.38767 0.0
H52 H 0.13498 0.99301 0.39395 0.0
O53 O 0.16597 0.15006 0.44861 0.0
H54 H 0.08278 0.13815 0.32789 0.0
H55 H 0.1195 0.97298 0.33415 0.0
C56 C 0.04198 0.10203 0.45334 0.0
C57 C 0.03217 0.13709 0.48181 0.0
C58 C 0.96882 0.15468 0.48867 0.0
C59 C 0.91434 0.13738 0.46708 0.0
C60 C 0.92374 0.09834 0.4403 0.0
C61 C 0.98702 0.08054 0.43362 0.0
C62 C 0.16844 0.0432 0.45892 0.0
C63 C 0.23677 0.04984 0.46558 0.0
C64 C 0.27273 0.01064 0.47873 0.0
C65 C 0.24119 0.96352 0.48512 0.0
C66 C 0.17228 0.95737 0.47867 0.0
C67 C 0.1363 -0.00313 0.46569 0.0
C68 C 0.11885 0.07705 0.39519 0.0
C69 C 0.10309 0.1173 0.37611 0.0
C70 C 0.09386 0.10598 0.34195 0.0
C71 C 0.0999 0.05397 0.32615 0.0
C72 C 0.11535 0.01359 0.34546 0.0
C73 C 0.12435 0.02499 0.3797 0.0
P74 P 0.11142 0.97691 0.58728 0.0
H75 H 0.08531 0.89089 0.5335 0.0
H76 H 0.98348 0.85114 0.50672 0.0
H77 H 0.87295 0.97657 0.55819 0.0
H78 H 0.97597 0.01581 0.58542 0.0
H79 H 0.24543 -0.00577 0.56624 0.0
H80 H 0.30541 0.07363 0.55499 0.0
H81 H 0.12767 0.16307 0.56728 0.0
H82 H 0.06806 0.0834 0.57884 0.0
H83 H 0.01663 0.92813 0.62619 0.0
H84 H 0.1649 0.05427 0.64241 0.0
O85 O 0.16303 0.92661 0.58582 0.0
H86 H 0.99357 0.94203 0.68433 0.0
H87 H 0.14172 0.06866 0.70079 0.0
C88 C 0.03813 0.95567 0.56194 0.0
C89 C 0.03948 0.91059 0.53852 0.0
C90 C 0.98087 0.88803 0.52298 0.0
C91 C 0.91956 0.91023 0.53055 0.0
C92 C 0.91907 0.95791 0.5522 0.0
C93 C 0.97798 0.98057 0.56765 0.0
C94 C 0.15228 0.03299 0.5735 0.0
C95 C 0.219 0.03067 0.56601 0.0
C96 C 0.25332 0.07613 0.55949 0.0
C97 C 0.22158 0.12484 0.56072 0.0
C98 C 0.15383 0.12633 0.56675 0.0
C99 C 0.11952 0.08077 0.5731 0.0
C100 C 0.0909 0.99131 0.62968 0.0
C101 C 0.04326 0.95964 0.64212 0.0
C102 C 0.03016 0.96759 0.67544 0.0
C103 C 0.06535 0.00682 0.69718 0.0
C104 C 0.11382 0.03808 0.68471 0.0
C105 C 0.12662 0.03024 0.65124 0.0
P106 P 0.61494 0.59145 0.94185 0.0
H107 H 0.56211 0.65506 0.99849 0.0
H108 H 0.45062 0.68485 0.00927 0.0
H109 H 0.37352 0.57834 0.92483 0.0
H110 H 0.48515 0.54848 0.91434 0.0
H111 H 0.74989 0.58812 0.96964 0.0
H112 H 0.81194 0.51949 0.99265 0.0
H113 H 0.63857 0.41535 0.9779 0.0
H114 H 0.57612 0.48546 0.95642 0.0
H115 H 0.58895 0.65765 0.89049 0.0
H116 H 0.62691 0.49283 0.89579 0.0
O117 O 0.65635 0.64925 0.95161 0.0
H118 H 0.57554 0.63921 0.83064 0.0
H119 H 0.61224 0.47378 0.83603 0.0
C120 C 0.53212 0.60071 0.95514 0.0
C121 C 0.521 0.63701 0.98287 0.0
C122 C 0.45708 0.65386 0.98906 0.0
C123 C 0.40333 0.63465 0.96751 0.0
C124 C 0.41409 0.59458 0.94149 0.0
C125 C 0.47796 0.57745 0.93552 0.0
C126 C 0.65826 0.54195 0.96146 0.0
C127 C 0.72495 0.55076 0.97179 0.0
C128 C 0.76071 0.51113 0.98464 0.0
C129 C 0.73071 0.46148 0.98702 0.0
C130 C 0.6633 0.45325 0.97706 0.0
C131 C 0.62742 0.4932 0.96454 0.0
C132 C 0.61049 0.57694 0.89759 0.0
C133 C 0.59494 0.61752 0.87872 0.0
C134 C 0.58637 0.60677 0.84451 0.0
C135 C 0.59276 0.55498 0.82843 0.0
C136 C 0.60789 0.51425 0.84753 0.0
C137 C 0.61637 0.52511 0.8818 0.0
P138 P 0.61256 0.47303 0.08835 0.0
H139 H 0.57415 0.40186 0.02878 0.0
H140 H 0.46821 0.36423 0.00594 0.0
H141 H 0.36904 0.46818 0.0786 0.0
H142 H 0.47616 0.50471 0.10183 0.0
H143 H 0.75076 0.49663 0.07798 0.0
H144 H 0.80861 0.57654 0.06587 0.0
H145 H 0.62166 0.65222 0.05535 0.0
H146 H 0.56394 0.57186 0.06737 0.0
H147 H 0.62841 0.40676 0.1409 0.0
H148 H 0.57622 0.56797 0.13217 0.0
O149 O 0.66079 0.42085 0.08179 0.0
H150 H 0.61467 0.42278 0.20002 0.0
H151 H 0.562 0.58417 0.19149 0.0
C152 C 0.53333 0.45496 0.06756 0.0
C153 C 0.52968 0.41722 0.03948 0.0
C154 C 0.46859 0.39601 0.02622 0.0
C155 C 0.4096 0.41249 0.04067 0.0
C156 C 0.41337 0.45361 0.06727 0.0
C157 C 0.47474 0.4747 0.08056 0.0
C158 C 0.65303 0.52835 0.07357 0.0
C159 C 0.72206 0.53002 0.07243 0.0
C160 C 0.75516 0.57571 0.06543 0.0
C161 C 0.71976 0.62084 0.05997 0.0
C162 C 0.65031 0.61822 0.05982 0.0
C163 C 0.61722 0.57229 0.06652 0.0
C164 C 0.60436 0.48639 0.13215 0.0
C165 C 0.6147 0.44583 0.15172 0.0
C166 C 0.60703 0.45505 0.18558 0.0
C167 C 0.58773 0.50485 0.20045 0.0
C168 C 0.5768 0.54537 0.18071 0.0
C169 C 0.58525 0.53624 0.14683 0.0
H170 H 0.1025 0.17424 0.04156 0.0
H171 H 0.31156 0.38621 0.08003 0.0
H172 H 0.22988 0.13805 0.9613 0.0
H173 H 0.36364 0.36781 0.97859 0.0
H174 H 0.22325 0.32039 0.06579 0.0
H175 H 0.13546 0.2681 0.04481 0.0
C176 C 0.13511 0.1865 0.02364 0.0
C177 C 0.16373 0.14863 1.00116 0.0
C178 C 0.25213 0.33184 0.04626 0.0
C179 C 0.20547 0.25486 0.00618 0.0
C180 C 0.30314 0.36975 0.05447 0.0
C181 C 0.34641 0.38209 0.03065 0.0
C182 C 0.24442 0.3055 0.01396 0.0
C183 C 0.33299 0.3585 0.99804 0.0
C184 C 0.15536 0.23993 0.02604 0.0
C185 C 0.2068 0.16627 0.97897 0.0
N186 N 0.28432 0.32051 0.99084 0.0
N187 N 0.22737 0.21795 0.98243 0.0
H188 H 0.15503 0.88262 0.93541 0.0
H189 H 0.33407 0.66695 0.02229 0.0
H190 H 0.10789 0.85139 0.03226 0.0
H191 H 0.32764 0.66587 0.91707 0.0
H192 H 0.24091 0.72674 0.02537 0.0
H193 H 0.20508 0.79574 0.92579 0.0
C194 C 0.15279 0.8563 0.95409 0.0
C195 C 0.12688 0.87357 0.98448 0.0
C196 C 0.25888 0.71244 1.00151 0.0
C197 C 0.18723 0.77561 0.97456 0.0
C198 C 0.31227 0.67851 0.99979 0.0
C199 C 0.33917 0.66182 0.96943 0.0
C200 C 0.23308 0.73066 0.97276 0.0
C201 C 0.3085 0.67758 0.94101 0.0
C202 C 0.18194 0.80693 0.94879 0.0
C203 C 0.12673 0.8389 0.00834 0.0
N204 N 0.25803 0.71189 0.94343 0.0
N205 N 0.158 0.79199 0.0032 0.0
H206 H 0.9554 0.87356 0.9964 0.0
H207 H 0.69437 0.71894 0.091 0.0
H208 H 0.82429 0.94802 0.06669 0.0
H209 H 0.82702 0.63832 0.02355 0.0
H210 H 0.75229 0.8025 0.08703 0.0
H211 H 0.92392 0.78669 0.01212 0.0
C212 C 0.92237 0.87175 0.01621 0.0
C213 C 0.89269 0.91775 0.03057 0.0
C214 C 0.76914 0.76665 0.07312 0.0
C215 C 0.85443 0.81909 0.04763 0.0
C216 C 0.73551 0.71893 0.07512 0.0
C217 C 0.7552 0.67171 0.05719 0.0
C218 C 0.82278 0.76764 0.05275 0.0
C219 C 0.81009 0.67391 0.0377 0.0
C220 C 0.90352 0.82218 0.02479 0.0
C221 C 0.84858 0.91335 0.05531 0.0
N222 N 0.8416 0.7212 0.03572 0.0
N223 N 0.83015 0.86492 0.06274 0.0
H224 H 1.00327 0.20778 0.99703 0.0
H225 H 0.68971 0.3856 0.02387 0.0
H226 H 0.84253 0.17293 0.05639 0.0
H227 H 0.86087 0.43701 0.97681 0.0
H228 H 0.75153 0.31246 0.04104 0.0
H229 H 0.96178 0.29755 0.99588 0.0
C230 C 0.96102 0.21984 0.01103 0.0
C231 C 0.92631 0.18312 0.02692 0.0
C232 C 0.7761 0.34006 0.02733 0.0
C233 C 0.87697 0.28449 0.02459 0.0
C234 C 0.74051 0.38197 0.01742 0.0
C235 C 0.76977 0.41806 0.99901 0.0
C236 C 0.84152 0.33304 0.0182 0.0
C237 C 0.83616 0.41073 0.99132 0.0
C238 C 0.93666 0.27078 0.00995 0.0
C239 C 0.87061 0.20015 0.04383 0.0
N240 N 0.8695 0.36873 1.00058 0.0
N241 N 0.84713 0.2492 0.04179 0.0
H242 H 0.71832 0.62987 0.45585 0.0
H243 H 0.80903 0.89821 0.56528 0.0
H244 H 0.62397 0.68324 0.54533 0.0
H245 H 0.88766 0.85148 0.47038 0.0
H246 H 0.7197 0.83232 0.55144 0.0
H247 H 0.75571 0.72089 0.45268 0.0
C248 C 0.70269 0.66138 0.47395 0.0
C249 C 0.66799 0.64935 0.50081 0.0
C250 C 0.7556 0.83718 0.5333 0.0
C251 C 0.71399 0.75304 0.49864 0.0
C252 C 0.80666 0.8752 0.54113 0.0
C253 C 0.85715 0.87969 0.51929 0.0
C254 C 0.75533 0.80284 0.50359 0.0
C255 C 0.85111 0.84834 0.48844 0.0
C256 C 0.72485 0.71332 0.47245 0.0
C257 C 0.6503 0.6912 0.52409 0.0
N258 N 0.80209 0.81057 0.4818 0.0
N259 N 0.67504 0.74107 0.523 0.0
H260 H 0.65873 0.38494 0.43884 0.0
H261 H 0.84713 0.16839 0.52276 0.0
H262 H 0.62417 0.35485 0.53741 0.0
H263 H 0.83792 0.17162 0.41788 0.0
H264 H 0.75443 0.2285 0.52744 0.0
H265 H 0.71043 0.29874 0.42837 0.0
C266 C 0.65959 0.35898 0.45778 0.0
C267 C 0.63665 0.37634 0.48883 0.0
C268 C 0.77175 0.21516 0.5033 0.0
C269 C 0.6988 0.27923 0.47785 0.0
C270 C 0.82489 0.18103 0.50067 0.0
C271 C 0.85081 0.16534 0.46994 0.0
C272 C 0.74512 0.23455 0.47509 0.0
C273 C 0.81952 0.18248 0.44207 0.0
C274 C 0.68972 0.31004 0.452 0.0
C275 C 0.64059 0.34223 0.51299 0.0
N276 N 0.76922 0.21686 0.44539 0.0
N277 N 0.67248 0.29572 0.50725 0.0
H278 H 0.4576 0.37345 0.49317 0.0
H279 H 0.21452 0.22048 0.59881 0.0
H280 H 0.33712 0.44912 0.56806 0.0
H281 H 0.31699 0.14212 0.51733 0.0
H282 H 0.27536 0.30255 0.59411 0.0
H283 H 0.42637 0.28668 0.50911 0.0
C284 C 0.42701 0.37183 0.51395 0.0
C285 C 0.40027 0.41817 0.52965 0.0
C286 C 0.28489 0.26745 0.57728 0.0
C287 C 0.36241 0.31974 0.54711 0.0
C288 C 0.24961 0.22063 0.57976 0.0
C289 C 0.25974 0.17456 0.55805 0.0
C290 C 0.33066 0.26865 0.55275 0.0
C291 C 0.30742 0.17679 0.53449 0.0
C292 C 0.4083 0.32237 0.52269 0.0
C293 C 0.35922 0.41414 0.55568 0.0
N294 N 0.34066 0.22323 0.53223 0.0
N295 N 0.34093 0.3658 0.56335 0.0
H296 H 0.51187 0.70891 0.49946 0.0
H297 H 0.20506 0.89686 0.5289 0.0
H298 H 0.34536 0.67512 0.55545 0.0
H299 H 0.36628 0.93132 0.46958 0.0
H300 H 0.26585 0.82333 0.54665 0.0
H301 H 0.47189 0.79897 0.49748 0.0
C302 C 0.46847 0.72119 0.51249 0.0
C303 C 0.43174 0.68469 0.52761 0.0
C304 C 0.28842 0.84726 0.53002 0.0
C305 C 0.38454 0.78656 0.52456 0.0
C306 C 0.25339 0.88924 0.51975 0.0
C307 C 0.28008 0.92049 0.49762 0.0
C308 C 0.35069 0.83561 0.51777 0.0
C309 C 0.34364 0.90876 0.48688 0.0
C310 C 0.44504 0.77229 0.51094 0.0
C311 C 0.37494 0.70213 0.54345 0.0
N312 N 0.37641 0.86696 0.49675 0.0
N313 N 0.35262 0.75146 0.54112 0.0
H314 H 0.98957 0.05816 0.11852 0.0
H315 H 0.1732 0.98872 0.2845 0.0
H316 H 0.17423 0.97767 0.12313 0.0
H317 H 1.00811 0.09287 0.28446 0.0
H318 H 0.16343 0.97396 0.22459 0.0
H319 H 0.98505 0.06123 0.17854 0.0
C320 C 0.02865 0.04063 0.13204 0.0
C321 C 0.08273 0.01821 0.11581 0.0
C322 C 0.12907 -0.00011 0.23764 0.0
C323 C 0.07789 0.02149 0.18418 0.0
C324 C 0.13437 0.00806 0.27193 0.0
C325 C 0.09172 0.04237 0.28965 0.0
C326 C 0.08068 0.02612 0.2207 0.0
C327 C 0.04283 0.0668 0.27183 0.0
C328 C 0.02624 0.04262 0.16627 0.0
C329 C 0.13204 -0.00391 0.13458 0.0
N330 N 0.03878 0.05837 0.23835 0.0
N331 N 0.12851 -0.00154 0.16762 0.0
H332 H 0.09645 0.03415 0.91082 0.0
H333 H 0.9456 0.00664 0.72514 0.0
H334 H 0.88794 0.02007 0.88323 0.0
H335 H 0.15471 0.02329 0.75032 0.0
H336 H 0.92442 0.01363 0.78345 0.0
H337 H 0.11976 0.03222 0.85268 0.0
C338 C 0.05557 0.0307 0.89264 0.0
C339 C 0.99008 0.02712 0.90207 0.0
C340 C 0.975 0.01592 0.77632 0.0
C341 C 0.01651 0.02496 0.83549 0.0
C342 C 0.98713 0.0117 0.74296 0.0
C343 C 0.05205 0.01406 0.73277 0.0
C344 C 0.02815 0.02239 0.79986 0.0
C345 C 0.10384 0.02165 0.75706 0.0
C346 C 0.06895 0.02966 0.85944 0.0
C347 C 0.93922 0.02284 0.87731 0.0
N348 N 0.0908 0.02526 0.78947 0.0
N349 N 0.95354 0.0218 0.8453 0.0
H350 H 0.49048 0.56263 0.62013 0.0
H351 H 0.66644 0.48965 0.78705 0.0
H352 H 0.67314 0.47982 0.62629 0.0
H353 H 0.50275 0.59513 0.7863 0.0
H354 H 0.65822 0.47541 0.72719 0.0
H355 H 0.48316 0.56502 0.68004 0.0
C356 C 0.52847 0.54443 0.63396 0.0
C357 C 0.58292 0.52162 0.61826 0.0
C358 C 0.62382 0.50154 0.74006 0.0
C359 C 0.5749 0.52408 0.68641 0.0
C360 C 0.62822 0.5094 0.77434 0.0
C361 C 0.58551 0.5439 0.79187 0.0
C362 C 0.57636 0.52833 0.7229 0.0
C363 C 0.5375 0.56889 0.77383 0.0
C364 C 0.52449 0.54603 0.66811 0.0
C365 C 0.6308 0.49861 0.63737 0.0
N366 N 0.53438 0.56081 0.74035 0.0
N367 N 0.62576 0.50062 0.67029 0.0
H368 H 0.40276 0.54964 0.38618 0.0
H369 H 0.66635 0.47589 0.25095 0.0
H370 H 0.60408 0.51269 0.41144 0.0
H371 H 0.48418 0.55312 0.23133 0.0
H372 H 0.64373 0.48563 0.30946 0.0
H373 H 0.4307 0.54755 0.32898 0.0
C374 C 0.45292 0.54107 0.37974 0.0
C375 C 0.50106 0.53106 0.40372 0.0
C376 C 0.60898 0.50079 0.29238 0.0
C377 C 0.53333 0.52846 0.33798 0.0
C378 C 0.62168 0.49501 0.25899 0.0
C379 C 0.57695 0.51358 0.23624 0.0
C380 C 0.55068 0.52467 0.30306 0.0
C381 C 0.52022 0.53858 0.24804 0.0
C382 C 0.46889 0.54013 0.34703 0.0
C383 C 0.56536 0.52065 0.39382 0.0
N384 N 0.50844 0.54297 0.28057 0.0
N385 N 0.5795 0.5192 0.36165 0.0
loop_
_geom_bond_atom_site_label_1
_geom_bond_atom_site_label_2
_geom_bond_distance
_geom_bond_site_symmetry_2
_ccdc_geom_bond_type
O0 Mn1 2.163 1_655 S
O0 C14 1.244 . S
Mn1 O0 2.163 1_455 S
Mn1 O4 2.160 1_544 S
Mn1 O5 2.221 . S
Mn1 O7 2.163 . S
Mn1 O9 2.160 1_554 S
Mn1 O19 2.221 1_444 S
O2 Mn3 2.087 . S
O2 C14 1.256 1_556 S
Mn3 O2 2.087 . S
Mn3 O10 2.089 . S
Mn3 O19 2.290 1_545 S
Mn3 O20 2.244 1_546 S
O4 Mn1 2.160 1_566 S
O4 C15 1.239 1_556 S
O5 Mn1 2.221 . S
O5 Mn6 2.290 . S
O5 C16 1.278 . S
Mn6 O5 2.290 . S
Mn6 O8 2.089 1_545 S
Mn6 O11 2.251 . S
Mn6 O12 2.087 . S
O7 Mn1 2.163 . S
O7 C17 1.244 . S
O8 Mn6 2.089 1_565 S
O8 C15 1.256 . S
O9 Mn1 2.160 1_556 S
O9 C18 1.239 . S
O10 Mn3 2.089 . S
O10 C18 1.256 1_655 S
O11 Mn6 2.251 . S
O11 C16 1.241 . S
O12 Mn6 2.087 . S
O12 C17 1.256 . S
C13 O19 1.278 1_554 S
C13 O20 1.243 . S
C14 O0 1.244 . S
C14 O2 1.256 1_554 S
C15 O4 1.239 1_554 S
C15 O8 1.256 . S
C16 O5 1.278 . S
C16 O11 1.241 . S
C17 O7 1.244 . S
C17 O12 1.256 . S
C18 O9 1.239 . S
C18 O10 1.256 1_455 S
O19 Mn1 2.221 1_666 S
O19 Mn3 2.290 1_565 S
O19 C13 1.278 1_556 S
O20 Mn3 2.244 1_564 S
O20 C13 1.243 . S
O21 Mn22 2.163 . S
O21 C35 1.244 . S
Mn22 O21 2.163 . S
Mn22 O25 2.160 . S
Mn22 O26 2.221 . S
Mn22 O28 2.163 . S
Mn22 O30 2.160 . S
Mn22 O40 2.221 . S
O23 Mn24 2.087 . S
O23 C35 1.256 . S
Mn24 O23 2.087 . S
Mn24 O31 2.089 . S
Mn24 O40 2.290 . S
Mn24 O41 2.251 . S
O25 Mn22 2.160 . S
O25 C36 1.239 . S
O26 Mn22 2.221 . S
O26 Mn27 2.290 . S
O26 C37 1.278 . S
Mn27 O26 2.290 . S
Mn27 O29 2.089 . S
Mn27 O32 2.251 . S
Mn27 O33 2.087 . S
O28 Mn22 2.163 . S
O28 C38 1.244 . S
O29 Mn27 2.089 . S
O29 C36 1.256 . S
O30 Mn22 2.160 . S
O30 C39 1.239 . S
O31 Mn24 2.089 . S
O31 C39 1.256 . S
O32 Mn27 2.251 . S
O32 C37 1.241 . S
O33 Mn27 2.087 . S
O33 C38 1.256 . S
C34 O40 1.278 . S
C34 O41 1.241 . S
C35 O21 1.244 . S
C35 O23 1.256 . S
C36 O25 1.239 . S
C36 O29 1.256 . S
C37 O26 1.278 . S
C37 O32 1.241 . S
C38 O28 1.244 . S
C38 O33 1.256 . S
C39 O30 1.239 . S
C39 O31 1.256 . S
O40 Mn22 2.221 . S
O40 Mn24 2.290 . S
O40 C34 1.278 . S
O41 Mn24 2.251 . S
O41 C34 1.241 . S
P42 O53 1.490 . S
P42 C56 1.812 . S
P42 C62 1.803 1_545 S
P42 C68 1.819 . S
H43 C57 0.941 . S
H44 C58 0.939 . S
H45 C60 0.940 . S
H46 C61 0.940 . S
H47 C63 0.939 . S
H48 C64 0.942 . S
H49 C66 0.940 . S
H50 C67 0.939 . S
H51 C69 0.941 . S
H52 C73 0.939 . S
O53 P42 1.490 . S
H54 C70 0.939 . S
H55 C72 0.940 . S
C56 P42 1.812 . S
C56 C57 1.389 . S
C56 C61 1.391 1_455 S
C57 H43 0.941 . S
C57 C56 1.389 . S
C57 C58 1.397 1_455 S
C58 H44 0.939 . S
C58 C57 1.397 1_655 S
C58 C59 1.378 . S
C59 C58 1.378 . S
C59 C60 1.378 . S
C60 H45 0.940 . S
C60 C59 1.378 . S
C60 C61 1.396 . S
C61 H46 0.940 . S
C61 C56 1.391 1_655 S
C61 C60 1.396 . S
C62 P42 1.803 1_565 S
C62 C63 1.378 . S
C62 C67 1.400 . S
C63 H47 0.939 . S
C63 C62 1.378 . S
C63 C64 1.361 . S
C64 H48 0.942 . S
C64 C63 1.361 . S
C64 C65 1.369 . S
C65 C64 1.369 . S
C65 C66 1.404 . S
C66 H49 0.940 . S
C66 C65 1.404 . S
C66 C67 1.389 . S
C67 H50 0.939 . S
C67 C62 1.400 . S
C67 C66 1.389 . S
C68 P42 1.819 . S
C68 C69 1.391 . S
C68 C73 1.391 1_545 S
C69 H51 0.941 . S
C69 C68 1.391 . S
C69 C70 1.396 . S
C70 H54 0.939 . S
C70 C69 1.396 . S
C70 C71 1.397 . S
C71 C70 1.397 . S
C71 C72 1.385 1_545 S
C72 H55 0.940 . S
C72 C71 1.385 1_565 S
C72 C73 1.388 . S
C73 H52 0.939 . S
C73 C68 1.391 1_565 S
C73 C72 1.388 . S
P74 O85 1.490 1_545 S
P74 C88 1.810 1_455 S
P74 C94 1.803 . S
P74 C100 1.819 . S
H75 C89 0.941 . S
H76 C90 0.939 . S
H77 C92 0.940 1_545 S
H78 C93 0.940 . S
H79 C95 0.939 . S
H80 C96 0.942 . S
H81 C98 0.940 . S
H82 C99 0.954 . S
H83 C101 0.941 1_565 S
H84 C105 0.939 . S
O85 P74 1.490 1_565 S
H86 C102 0.939 1_565 S
H87 C104 0.940 . S
C88 P74 1.810 1_655 S
C88 C89 1.381 1_645 S
C88 C93 1.401 . S
C89 H75 0.941 . S
C89 C88 1.381 1_465 S
C89 C90 1.397 1_455 S
C90 H76 0.939 . S
C90 C89 1.397 1_655 S
C90 C91 1.378 . S
C91 C90 1.378 . S
C91 C92 1.378 . S
C92 H77 0.940 1_565 S
C92 C91 1.378 . S
C92 C93 1.396 1_565 S
C93 H78 0.940 . S
C93 C88 1.401 . S
C93 C92 1.396 1_545 S
C94 P74 1.803 . S
C94 C95 1.378 . S
C94 C99 1.400 . S
C95 H79 0.939 . S
C95 C94 1.378 . S
C95 C96 1.361 . S
C96 H80 0.942 . S
C96 C95 1.361 . S
C96 C97 1.369 . S
C97 C96 1.369 . S
C97 C98 1.404 . S
C98 H81 0.940 . S
C98 C97 1.404 . S
C98 C99 1.389 . S
C99 H82 0.954 . S
C99 C94 1.400 . S
C99 C98 1.389 . S
C100 P74 1.819 . S
C100 C101 1.391 . S
C100 C105 1.391 . S
C101 H83 0.941 1_545 S
C101 C100 1.391 . S
C101 C102 1.396 . S
C102 H86 0.939 1_545 S
C102 C101 1.396 . S
C102 C103 1.397 . S
C103 C102 1.397 . S
C103 C104 1.385 . S
C104 H87 0.940 . S
C104 C103 1.385 . S
C104 C105 1.388 . S
C105 H84 0.939 . S
C105 C100 1.391 . S
C105 C104 1.388 . S
P106 O117 1.490 . S
P106 C120 1.812 . S
P106 C126 1.803 . S
P106 C132 1.819 . S
H107 C121 0.941 . S
H108 C122 0.939 1_554 S
H109 C124 0.940 . S
H110 C125 0.940 . S
H111 C127 0.939 . S
H112 C128 0.942 . S
H113 C130 0.940 . S
H114 C131 0.939 . S
H115 C133 0.941 . S
H116 C137 0.939 . S
O117 P106 1.490 . S
H118 C134 0.939 . S
H119 C136 0.940 . S
C120 P106 1.812 . S
C120 C121 1.389 . S
C120 C125 1.391 . S
C121 H107 0.941 . S
C121 C120 1.389 . S
C121 C122 1.397 . S
C122 H108 0.939 1_556 S
C122 C121 1.397 . S
C122 C123 1.378 . S
C123 C122 1.378 . S
C123 C124 1.378 . S
C124 H109 0.940 . S
C124 C123 1.378 . S
C124 C125 1.396 . S
C125 H110 0.940 . S
C125 C120 1.391 . S
C125 C124 1.396 . S
C126 P106 1.803 . S
C126 C127 1.378 . S
C126 C131 1.400 . S
C127 H111 0.939 . S
C127 C126 1.378 . S
C127 C128 1.361 . S
C128 H112 0.942 . S
C128 C127 1.361 . S
C128 C129 1.369 . S
C129 C128 1.369 . S
C129 C130 1.404 . S
C130 H113 0.940 . S
C130 C129 1.404 . S
C130 C131 1.389 . S
C131 H114 0.939 . S
C131 C126 1.400 . S
C131 C130 1.389 . S
C132 P106 1.819 . S
C132 C133 1.391 . S
C132 C137 1.391 . S
C133 H115 0.941 . S
C133 C132 1.391 . S
C133 C134 1.396 . S
C134 H118 0.939 . S
C134 C133 1.396 . S
C134 C135 1.397 . S
C135 C134 1.397 . S
C135 C136 1.385 . S
C136 H119 0.940 . S
C136 C135 1.385 . S
C136 C137 1.388 . S
C137 H116 0.939 . S
C137 C132 1.391 . S
C137 C136 1.388 . S
P138 O149 1.490 . S
P138 C152 1.812 . S
P138 C158 1.803 . S
P138 C164 1.819 . S
H139 C153 0.941 . S
H140 C154 0.939 . S
H141 C156 0.940 . S
H142 C157 0.940 . S
H143 C159 0.939 . S
H144 C160 0.942 . S
H145 C162 0.940 . S
H146 C163 0.939 . S
H147 C165 0.941 . S
H148 C169 0.939 . S
O149 P138 1.490 . S
H150 C166 0.939 . S
H151 C168 0.940 . S
C152 P138 1.812 . S
C152 C153 1.389 . S
C152 C157 1.391 . S
C153 H139 0.941 . S
C153 C152 1.389 . S
C153 C154 1.397 . S
C154 H140 0.939 . S
C154 C153 1.397 . S
C154 C155 1.378 . S
C155 C154 1.378 . S
C155 C156 1.378 . S
C156 H141 0.940 . S
C156 C155 1.378 . S
C156 C157 1.396 . S
C157 H142 0.940 . S
C157 C152 1.391 . S
C157 C156 1.396 . S
C158 P138 1.803 . S
C158 C159 1.378 . S
C158 C163 1.400 . S
C159 H143 0.939 . S
C159 C158 1.378 . S
C159 C160 1.361 . S
C160 H144 0.942 . S
C160 C159 1.361 . S
C160 C161 1.369 . S
C161 C160 1.369 . S
C161 C162 1.404 . S
C162 H145 0.940 . S
C162 C161 1.404 . S
C162 C163 1.389 . S
C163 H146 0.939 . S
C163 C158 1.400 . S
C163 C162 1.389 . S
C164 P138 1.819 . S
C164 C165 1.391 . S
C164 C169 1.391 . S
C165 H147 0.941 . S
C165 C164 1.391 . S
C165 C166 1.396 . S
C166 H150 0.939 . S
C166 C165 1.396 . S
C166 C167 1.397 . S
C167 C166 1.397 . S
C167 C168 1.385 . S
C168 H151 0.940 . S
C168 C167 1.385 . S
C168 C169 1.388 . S
C169 H148 0.939 . S
C169 C164 1.391 . S
C169 C168 1.388 . S
H170 C176 0.930 . S
H171 C180 0.930 . S
H172 C185 0.929 . S
H173 C183 0.929 1_556 S
H174 C178 0.929 . S
H175 C184 0.929 . S
C176 H170 0.930 . S
C176 C177 1.367 1_556 S
C176 C184 1.378 . S
C177 C176 1.367 1_554 S
C177 C185 1.433 . S
C178 H174 0.929 . S
C178 C180 1.378 . S
C178 C182 1.350 . S
C179 C182 1.463 . S
C179 C184 1.350 1_554 S
C179 N187 1.427 . S
C180 H171 0.930 . S
C180 C178 1.378 . S
C180 C181 1.367 . S
C181 C180 1.367 . S
C181 C183 1.433 . S
C182 C178 1.350 . S
C182 C179 1.463 . S
C182 N186 1.427 . S
C183 H173 0.929 1_554 S
C183 C181 1.433 . S
C183 N186 1.384 . S
C184 H175 0.929 . S
C184 C176 1.378 . S
C184 C179 1.350 1_556 S
C185 H172 0.929 . S
C185 C177 1.433 . S
C185 N187 1.384 . S
N186 C182 1.427 . S
N186 C183 1.384 . S
N187 C179 1.427 . S
N187 C185 1.384 . S
H188 C194 0.930 . S
H189 C198 0.930 . S
H190 C203 0.929 . S
H191 C201 0.929 . S
H192 C196 0.929 . S
H193 C202 0.929 . S
C194 H188 0.930 . S
C194 C195 1.367 1_556 S
C194 C202 1.378 . S
C195 C194 1.367 1_554 S
C195 C203 1.433 . S
C196 H192 0.929 . S
C196 C198 1.378 . S
C196 C200 1.350 1_554 S
C197 C200 1.463 . S
C197 C202 1.350 . S
C197 N205 1.427 1_556 S
C198 H189 0.930 . S
C198 C196 1.378 . S
C198 C199 1.367 1_554 S
C199 C198 1.367 1_556 S
C199 C201 1.433 . S
C200 C196 1.350 1_556 S
C200 C197 1.463 . S
C200 N204 1.427 . S
C201 H191 0.929 . S
C201 C199 1.433 . S
C201 N204 1.384 . S
C202 H193 0.929 . S
C202 C194 1.378 . S
C202 C197 1.350 . S
C203 H190 0.929 . S
C203 C195 1.433 . S
C203 N205 1.384 . S
N204 C200 1.427 . S
N204 C201 1.384 . S
N205 C197 1.427 1_554 S
N205 C203 1.384 . S
H206 C212 0.929 1_556 S
H207 C216 0.930 . S
H208 C221 0.929 . S
H209 C219 0.929 . S
H210 C214 0.929 . S
H211 C220 0.929 . S
C212 H206 0.929 1_554 S
C212 C213 1.367 . S
C212 C220 1.378 . S
C213 C212 1.367 . S
C213 C221 1.433 . S
C214 H210 0.929 . S
C214 C216 1.378 . S
C214 C218 1.350 . S
C215 C218 1.463 . S
C215 C220 1.350 . S
C215 N223 1.427 . S
C216 H207 0.930 . S
C216 C214 1.378 . S
C216 C217 1.367 . S
C217 C216 1.367 . S
C217 C219 1.433 . S
C218 C214 1.350 . S
C218 C215 1.463 . S
C218 N222 1.427 . S
C219 H209 0.929 . S
C219 C217 1.433 . S
C219 N222 1.384 . S
C220 H211 0.929 . S
C220 C212 1.378 . S
C220 C215 1.350 . S
C221 H208 0.929 . S
C221 C213 1.433 . S
C221 N223 1.384 . S
N222 C218 1.427 . S
N222 C219 1.384 . S
N223 C215 1.427 . S
N223 C221 1.384 . S
H224 C230 0.930 . S
H225 C234 0.930 . S
H226 C239 0.929 . S
H227 C237 0.929 . S
H228 C232 0.929 . S
H229 C238 0.929 . S
C230 H224 0.930 . S
C230 C231 1.367 1_556 S
C230 C238 1.378 . S
C231 C230 1.367 1_554 S
C231 C239 1.433 . S
C232 H228 0.929 . S
C232 C234 1.378 . S
C232 C236 1.350 1_554 S
C233 C236 1.463 . S
C233 C238 1.350 . S
C233 N241 1.427 1_556 S
C234 H225 0.930 . S
C234 C232 1.378 . S
C234 C235 1.367 1_554 S
C235 C234 1.367 1_556 S
C235 C237 1.433 . S
C236 C232 1.350 1_556 S
C236 C233 1.463 . S
C236 N240 1.427 . S
C237 H227 0.929 . S
C237 C235 1.433 . S
C237 N240 1.384 . S
C238 H229 0.929 . S
C238 C230 1.378 . S
C238 C233 1.350 . S
C239 H226 0.929 . S
C239 C231 1.433 . S
C239 N241 1.384 . S
N240 C236 1.427 . S
N240 C237 1.384 . S
N241 C233 1.427 1_554 S
N241 C239 1.384 . S
H242 C248 0.930 . S
H243 C252 0.930 . S
H244 C257 0.929 . S
H245 C255 0.929 . S
H246 C250 0.929 . S
H247 C256 0.929 . S
C248 H242 0.930 . S
C248 C249 1.367 . S
C248 C256 1.378 . S
C249 C248 1.367 . S
C249 C257 1.433 . S
C250 H246 0.929 . S
C250 C252 1.378 . S
C250 C254 1.350 . S
C251 C254 1.463 . S
C251 C256 1.350 . S
C251 N259 1.427 . S
C252 H243 0.930 . S
C252 C250 1.378 . S
C252 C253 1.367 . S
C253 C252 1.367 . S
C253 C255 1.433 . S
C254 C250 1.350 . S
C254 C251 1.463 . S
C254 N258 1.427 . S
C255 H245 0.929 . S
C255 C253 1.433 . S
C255 N258 1.384 . S
C256 H247 0.929 . S
C256 C248 1.378 . S
C256 C251 1.350 . S
C257 H244 0.929 . S
C257 C249 1.433 . S
C257 N259 1.384 . S
N258 C254 1.427 . S
N258 C255 1.384 . S
N259 C251 1.427 . S
N259 C257 1.384 . S
H260 C266 0.930 . S
H261 C270 0.930 . S
H262 C275 0.929 . S
H263 C273 0.929 . S
H264 C268 0.929 . S
H265 C274 0.929 . S
C266 H260 0.930 . S
C266 C267 1.367 . S
C266 C274 1.378 . S
C267 C266 1.367 . S
C267 C275 1.433 . S
C268 H264 0.929 . S
C268 C270 1.378 . S
C268 C272 1.350 . S
C269 C272 1.463 . S
C269 C274 1.350 . S
C269 N277 1.427 . S
C270 H261 0.930 . S
C270 C268 1.378 . S
C270 C271 1.367 . S
C271 C270 1.367 . S
C271 C273 1.433 . S
C272 C268 1.350 . S
C272 C269 1.463 . S
C272 N276 1.427 . S
C273 H263 0.929 . S
C273 C271 1.433 . S
C273 N276 1.384 . S
C274 H265 0.929 . S
C274 C266 1.378 . S
C274 C269 1.350 . S
C275 H262 0.929 . S
C275 C267 1.433 . S
C275 N277 1.384 . S
N276 C272 1.427 . S
N276 C273 1.384 . S
N277 C269 1.427 . S
N277 C275 1.384 . S
H278 C284 0.930 . S
H279 C288 0.930 . S
H280 C293 0.929 . S
H281 C291 0.929 . S
H282 C286 0.929 . S
H283 C292 0.929 . S
C284 H278 0.930 . S
C284 C285 1.367 . S
C284 C292 1.378 . S
C285 C284 1.367 . S
C285 C293 1.433 . S
C286 H282 0.929 . S
C286 C288 1.378 . S
C286 C290 1.350 . S
C287 C290 1.463 . S
C287 C292 1.350 . S
C287 N295 1.427 . S
C288 H279 0.930 . S
C288 C286 1.378 . S
C288 C289 1.367 . S
C289 C288 1.367 . S
C289 C291 1.433 . S
C290 C286 1.350 . S
C290 C287 1.463 . S
C290 N294 1.427 . S
C291 H281 0.929 . S
C291 C289 1.433 . S
C291 N294 1.384 . S
C292 H283 0.929 . S
C292 C284 1.378 . S
C292 C287 1.350 . S
C293 H280 0.929 . S
C293 C285 1.433 . S
C293 N295 1.384 . S
N294 C290 1.427 . S
N294 C291 1.384 . S
N295 C287 1.427 . S
N295 C293 1.384 . S
H296 C302 0.930 . S
H297 C306 0.930 . S
H298 C311 0.929 . S
H299 C309 0.929 . S
H300 C304 0.929 . S
H301 C310 0.929 . S
C302 H296 0.930 . S
C302 C303 1.367 . S
C302 C310 1.378 . S
C303 C302 1.367 . S
C303 C311 1.433 . S
C304 H300 0.929 . S
C304 C306 1.378 . S
C304 C308 1.350 . S
C305 C308 1.463 . S
C305 C310 1.350 . S
C305 N313 1.427 . S
C306 H297 0.930 . S
C306 C304 1.378 . S
C306 C307 1.367 . S
C307 C306 1.367 . S
C307 C309 1.433 . S
C308 C304 1.350 . S
C308 C305 1.463 . S
C308 N312 1.427 . S
C309 H299 0.929 . S
C309 C307 1.433 . S
C309 N312 1.384 . S
C310 H301 0.929 . S
C310 C302 1.378 . S
C310 C305 1.350 . S
C311 H298 0.929 . S
C311 C303 1.433 . S
C311 N313 1.384 . S
N312 C308 1.427 . S
N312 C309 1.384 . S
N313 C305 1.427 . S
N313 C311 1.384 . S
H314 C320 0.930 1_655 S
H315 C324 0.930 . S
H316 C329 0.929 . S
H317 C327 0.929 1_655 S
H318 C322 0.929 . S
H319 C328 0.929 1_655 S
C320 H314 0.930 1_455 S
C320 C321 1.367 . S
C320 C328 1.378 . S
C321 C320 1.367 . S
C321 C329 1.433 1_545 S
C322 H318 0.929 . S
C322 C324 1.378 . S
C322 C326 1.350 1_565 S
C323 C326 1.463 . S
C323 C328 1.350 . S
C323 N331 1.427 1_545 S
C324 H315 0.930 . S
C324 C322 1.378 . S
C324 C325 1.374 . S
C325 C324 1.374 . S
C325 C327 1.423 1_565 S
C326 C322 1.350 1_545 S
C326 C323 1.463 . S
C326 N330 1.427 . S
C327 H317 0.929 1_455 S
C327 C325 1.423 1_545 S
C327 N330 1.384 . S
C328 H319 0.929 1_455 S
C328 C320 1.378 . S
C328 C323 1.350 . S
C329 H316 0.929 . S
C329 C321 1.433 1_565 S
C329 N331 1.384 . S
N330 C326 1.427 . S
N330 C327 1.384 . S
N331 C323 1.427 1_565 S
N331 C329 1.384 . S
H332 C338 0.930 . S
H333 C342 0.930 . S
H334 C347 0.929 . S
H335 C345 0.929 . S
H336 C340 0.929 . S
H337 C346 0.929 . S
C338 H332 0.930 . S
C338 C339 1.367 . S
C338 C346 1.378 . S
C339 C338 1.367 . S
C339 C347 1.433 1_455 S
C340 H336 0.929 . S
C340 C342 1.378 . S
C340 C344 1.350 1_655 S
C341 C344 1.463 . S
C341 C346 1.350 . S
C341 N349 1.427 1_455 S
C342 H333 0.930 . S
C342 C340 1.378 . S
C342 C343 1.367 1_655 S
C343 C342 1.367 1_455 S
C343 C345 1.433 . S
C344 C340 1.350 1_455 S
C344 C341 1.463 . S
C344 N348 1.427 . S
C345 H335 0.929 . S
C345 C343 1.433 . S
C345 N348 1.384 . S
C346 H337 0.929 . S
C346 C338 1.378 . S
C346 C341 1.350 . S
C347 H334 0.929 . S
C347 C339 1.433 1_655 S
C347 N349 1.384 . S
N348 C344 1.427 . S
N348 C345 1.384 . S
N349 C341 1.427 1_655 S
N349 C347 1.384 . S
H350 C356 0.930 . S
H351 C360 0.930 . S
H352 C365 0.929 . S
H353 C363 0.929 . S
H354 C358 0.929 . S
H355 C364 0.929 . S
C356 H350 0.930 . S
C356 C357 1.367 . S
C356 C364 1.378 . S
C357 C356 1.367 . S
C357 C365 1.433 . S
C358 H354 0.929 . S
C358 C360 1.378 . S
C358 C362 1.350 . S
C359 C362 1.463 . S
C359 C364 1.350 . S
C359 N367 1.427 . S
C360 H351 0.930 . S
C360 C358 1.378 . S
C360 C361 1.367 . S
C361 C360 1.367 . S
C361 C363 1.433 . S
C362 C358 1.350 . S
C362 C359 1.463 . S
C362 N366 1.427 . S
C363 H353 0.929 . S
C363 C361 1.433 . S
C363 N366 1.384 . S
C364 H355 0.929 . S
C364 C356 1.378 . S
C364 C359 1.350 . S
C365 H352 0.929 . S
C365 C357 1.433 . S
C365 N367 1.384 . S
N366 C362 1.427 . S
N366 C363 1.384 . S
N367 C359 1.427 . S
N367 C365 1.384 . S
H368 C374 0.930 . S
H369 C378 0.930 . S
H370 C383 0.929 . S
H371 C381 0.929 . S
H372 C376 0.929 . S
H373 C382 0.929 . S
C374 H368 0.930 . S
C374 C375 1.367 . S
C374 C382 1.378 . S
C375 C374 1.367 . S
C375 C383 1.433 . S
C376 H372 0.929 . S
C376 C378 1.378 . S
C376 C380 1.350 . S
C377 C380 1.463 . S
C377 C382 1.350 . S
C377 N385 1.427 . S
C378 H369 0.930 . S
C378 C376 1.378 . S
C378 C379 1.367 . S
C379 C378 1.367 . S
C379 C381 1.433 . S
C380 C376 1.350 . S
C380 C377 1.463 . S
C380 N384 1.427 . S
C381 H371 0.929 . S
C381 C379 1.433 . S
C381 N384 1.384 . S
C382 H373 0.929 . S
C382 C374 1.378 . S
C382 C377 1.350 . S
C383 H370 0.929 . S
C383 C375 1.433 . S
C383 N385 1.384 . S
N384 C380 1.427 . S
N384 C381 1.384 . S
N385 C377 1.427 . S
N385 C383 1.384 . S
C181 C155 1.389 . S
C177 C16 1.291 . S
C195 C15 1.491 . S
C199 C123 1.467 . S
C213 C13 1.288 . S
C217 C161 1.423 . S
C231 C14 1.321 . S
C235 C129 1.346 . S
C249 C37 1.285 . S
C253 C91 1.396 . S
C267 C36 1.493 . S
C271 C59 1.465 . S
C289 C97 1.415 . S
C285 C34 1.273 . S
C307 C65 1.346 . S
C303 C35 1.321 . S
C321 C17 1.514 . S
C325 C71 1.519 1_565 S
C339 C18 1.387 . S
C343 C103 1.384 . S
C361 C135 1.520 . S
C357 C38 1.513 . S
C375 C39 1.376 . S
C379 C167 1.371 . S
