# Generated by pormake.
# Topology pyr, (3,6)-cn, num edge types: 1
# Building blocks:
#     Node 0, Type 0, BuildingBlock: PAMTOO_clean_linker_0, # of connection points: 3
#     Node 1, Type 0, BuildingBlock: PAMTOO_clean_linker_0, # of connection points: 3
#     Node 2, Type 0, BuildingBlock: PAMTOO_clean_linker_0, # of connection points: 3
#     Node 3, Type 0, BuildingBlock: PAMTOO_clean_linker_0, # of connection points: 3
#     Node 4, Type 0, BuildingBlock: PAMTOO_clean_linker_0, # of connection points: 3
#     Node 5, Type 0, BuildingBlock: PAMTOO_clean_linker_0, # of connection points: 3
#     Node 6, Type 0, BuildingBlock: PAMTOO_clean_linker_0, # of connection points: 3
#     Node 7, Type 0, BuildingBlock: PAMTOO_clean_linker_0, # of connection points: 3
#     Node 8, Type 1, BuildingBlock: FUNLAD_clean_sbu_0, # of connection points: 6
#     Node 9, Type 1, BuildingBlock: FUNLAD_clean_sbu_0, # of connection points: 6
#     Node 10, Type 1, BuildingBlock: FUNLAD_clean_sbu_0, # of connection points: 6
#     Node 11, Type 1, BuildingBlock: FUNLAD_clean_sbu_0, # of connection points: 6
#     Edge 12, Type (0, 1), BuildingBlock: KIFKEQ_clean_linker_1, # of connection points: 2
#     Edge 13, Type (0, 1), BuildingBlock: KIFKEQ_clean_linker_1, # of connection points: 2
#     Edge 14, Type (0, 1), BuildingBlock: KIFKEQ_clean_linker_1, # of connection points: 2
#     Edge 15, Type (0, 1), BuildingBlock: KIFKEQ_clean_linker_1, # of connection points: 2
#     Edge 16, Type (0, 1), BuildingBlock: KIFKEQ_clean_linker_1, # of connection points: 2
#     Edge 17, Type (0, 1), BuildingBlock: KIFKEQ_clean_linker_1, # of connection points: 2
#     Edge 18, Type (0, 1), BuildingBlock: KIFKEQ_clean_linker_1, # of connection points: 2
#     Edge 19, Type (0, 1), BuildingBlock: KIFKEQ_clean_linker_1, # of connection points: 2
#     Edge 20, Type (0, 1), BuildingBlock: KIFKEQ_clean_linker_1, # of connection points: 2
#     Edge 21, Type (0, 1), BuildingBlock: KIFKEQ_clean_linker_1, # of connection points: 2
#     Edge 22, Type (0, 1), BuildingBlock: KIFKEQ_clean_linker_1, # of connection points: 2
#     Edge 23, Type (0, 1), BuildingBlock: KIFKEQ_clean_linker_1, # of connection points: 2
#     Edge 24, Type (0, 1), BuildingBlock: KIFKEQ_clean_linker_1, # of connection points: 2
#     Edge 25, Type (0, 1), BuildingBlock: KIFKEQ_clean_linker_1, # of connection points: 2
#     Edge 26, Type (0, 1), BuildingBlock: KIFKEQ_clean_linker_1, # of connection points: 2
#     Edge 27, Type (0, 1), BuildingBlock: KIFKEQ_clean_linker_1, # of connection points: 2
#     Edge 28, Type (0, 1), BuildingBlock: KIFKEQ_clean_linker_1, # of connection points: 2
#     Edge 29, Type (0, 1), BuildingBlock: KIFKEQ_clean_linker_1, # of connection points: 2
#     Edge 30, Type (0, 1), BuildingBlock: KIFKEQ_clean_linker_1, # of connection points: 2
#     Edge 31, Type (0, 1), BuildingBlock: KIFKEQ_clean_linker_1, # of connection points: 2
#     Edge 32, Type (0, 1), BuildingBlock: KIFKEQ_clean_linker_1, # of connection points: 2
#     Edge 33, Type (0, 1), BuildingBlock: KIFKEQ_clean_linker_1, # of connection points: 2
#     Edge 34, Type (0, 1), BuildingBlock: KIFKEQ_clean_linker_1, # of connection points: 2
#     Edge 35, Type (0, 1), BuildingBlock: KIFKEQ_clean_linker_1, # of connection points: 2
# Relax obj value: 0.183
# Max RMSD: 0.214
# Mean RMSD: 0.136
data_MOF--net-pry--node1-FUNLAD_clean_sbu_0--node2-PAMTOO_clean_linker_0--edge1-KIFKEQ_clean_linker_1
_symmetry_space_group_name_H-M    P1
_symmetry_Int_Tables_number       1
_symmetry_cell_setting            triclinic
loop_
_symmetry_equiv_pos_as_xyz
'x, y, z'
_cell_length_a     34.712847
_cell_length_b     38.267628
_cell_length_c     38.130305
_cell_angle_alpha  89.680148
_cell_angle_beta   90.806655
_cell_angle_gamma 87.542404
loop_
_atom_site_label
_atom_site_type_symbol
_atom_site_fract_x
_atom_site_fract_y
_atom_site_fract_z
_atom_type_partial_charge
H0 H 0.13892 0.23029 0.2686 0.0
H1 H 0.23111 0.15108 0.26727 0.0
H2 H 0.22692 0.23156 0.18927 0.0
H3 H 0.24488 0.16331 0.16107 0.0
C4 C 0.26012 0.1506 0.18393 0.0
O5 O 0.26329 0.17455 0.21077 0.0
H6 H 0.24272 0.12862 0.19308 0.0
C7 C 0.16487 0.21926 0.2568 0.0
C8 C 0.17997 0.23516 0.22644 0.0
C9 C 0.18351 0.18912 0.27221 0.0
C10 C 0.21679 0.17449 0.25635 0.0
C11 C 0.23167 0.18946 0.22616 0.0
C12 C 0.21384 0.21989 0.21187 0.0
H13 H 0.37257 0.95327 0.75342 0.0
H14 H 0.37812 0.8717 0.67593 0.0
H15 H 0.46368 0.87254 0.75753 0.0
H16 H 0.49533 0.84511 0.69049 0.0
C17 C 0.4676 0.8387 0.67765 0.0
O18 O 0.43894 0.83896 0.70255 0.0
H19 H 0.46035 0.859 0.65728 0.0
C20 C 0.38705 0.93019 0.74267 0.0
C21 C 0.42028 0.91516 0.75986 0.0
C22 C 0.3713 0.91465 0.71241 0.0
C23 C 0.38944 0.88398 0.69922 0.0
C24 C 0.42255 0.86899 0.71545 0.0
C25 C 0.43785 0.8845 0.74556 0.0
H26 H 0.70753 0.42912 0.06844 0.0
H27 H 0.61016 0.4411 0.99746 0.0
H28 H 0.69562 0.51767 0.99836 0.0
H29 H 0.62408 0.54742 0.97552 0.0
C30 C 0.61078 0.52452 0.96314 0.0
O31 O 0.63501 0.4953 0.96659 0.0
H32 H 0.58281 0.51984 0.97587 0.0
C33 C 0.69065 0.44461 0.04944 0.0
C34 C 0.70552 0.47549 0.03597 0.0
C35 C 0.65621 0.43166 0.03575 0.0
C36 C 0.63531 0.45143 1.01018 0.0
C37 C 0.64964 0.48223 0.99698 0.0
C38 C 0.68421 0.49452 1.01013 0.0
H39 H 0.90587 0.66463 0.5006 0.0
H40 H 0.93162 0.55527 0.52218 0.0
H41 H 0.02253 0.62214 0.49552 0.0
H42 H 0.98254 0.51602 0.4877 0.0
C43 C 1.00815 0.53245 0.48627 0.0
O44 O 1.00539 0.55835 0.51141 0.0
H45 H 0.03359 0.5149 0.49282 0.0
C46 C 0.92628 0.64244 0.50247 0.0
C47 C 0.96565 0.64749 0.49709 0.0
C48 C 0.9134 0.60928 0.51168 0.0
C49 C 0.94067 0.58123 0.51571 0.0
C50 C 0.97972 0.58589 0.50939 0.0
C51 C 0.99216 0.61889 0.5002 0.0
H52 H 0.88238 0.94309 0.84698 0.0
H53 H 0.89029 0.86137 0.92512 0.0
H54 H 0.97358 0.86261 0.84345 0.0
H55 H 0.97469 0.84988 0.94281 0.0
C56 C 0.97995 0.82812 0.92395 0.0
O57 O 0.95044 0.82854 0.89901 0.0
H58 H 1.00763 0.83242 0.91065 0.0
C59 C 0.89735 0.92005 0.85794 0.0
C60 C 0.93018 0.90533 0.84091 0.0
C61 C 0.88252 0.90447 0.88829 0.0
C62 C 0.901 0.8737 0.90176 0.0
C63 C 0.93369 0.85869 0.88569 0.0
C64 C 0.94813 0.87445 0.85538 0.0
H65 H 0.75867 0.11871 0.34693 0.0
H66 H 0.66753 0.19853 0.33501 0.0
H67 H 0.74637 0.20242 0.42177 0.0
H68 H 0.66169 0.2124 0.43446 0.0
C69 C 0.6564 0.23337 0.41435 0.0
O70 O 0.68689 0.23327 0.39128 0.0
H71 H 0.62955 0.22771 0.39963 0.0
C72 C 0.74359 0.14219 0.35604 0.0
C73 C 0.75634 0.15812 0.3873 0.0
C74 C 0.7117 0.15647 0.33637 0.0
C75 C 0.69244 0.18713 0.34894 0.0
C76 C 0.70486 0.20329 0.37984 0.0
C77 C 0.73673 0.18895 0.39855 0.0
H78 H 0.42185 0.65055 0.07635 0.0
H79 H 0.43201 0.5449 0.11628 0.0
H80 H 0.52487 0.61338 0.1312 0.0
H81 H 0.5516 0.54761 0.12188 0.0
C82 C 0.53235 0.53303 0.13933 0.0
O83 O 0.49859 0.55204 0.14562 0.0
H84 H 0.52576 0.50786 0.1266 0.0
C85 C 0.43876 0.62935 0.08883 0.0
C86 C 0.47604 0.63535 0.10157 0.0
C87 C 0.42226 0.59691 0.09435 0.0
C88 C 0.44456 0.5697 0.11053 0.0
C89 C 0.48141 0.5757 0.12364 0.0
C90 C 0.4969 0.60859 0.11964 0.0
H91 H 0.17286 0.41219 0.69193 0.0
H92 H 0.1657 0.52174 0.66717 0.0
H93 H 0.18471 0.44681 0.58507 0.0
H94 H 0.19819 0.55679 0.61922 0.0
C95 C 0.20098 0.53886 0.59644 0.0
O96 O 0.17442 0.51317 0.59933 0.0
H97 H 0.19343 0.55496 0.57281 0.0
C98 C 0.17542 0.43304 0.67284 0.0
C99 C 0.17978 0.42495 0.63725 0.0
C100 C 0.17086 0.46773 0.68397 0.0
C101 C 0.17045 0.49483 0.65906 0.0
C102 C 0.17661 0.48724 0.62357 0.0
C103 C 0.18151 0.45239 0.61273 0.0
C104 C 0.09535 0.06182 0.49048 0.0
N105 N 0.07874 0.11109 0.58624 0.0
C106 C 0.1155 0.12001 0.57978 0.0
C107 C 0.12776 0.153 0.58806 0.0
C108 C 0.10221 0.17748 0.60358 0.0
C109 C 0.06454 0.16748 0.61091 0.0
C110 C 0.05328 0.13389 0.60186 0.0
Zn111 Zn 0.0654 0.06364 0.56624 0.0
C112 C 0.99166 0.06427 0.52576 0.0
N113 N 0.04853 0.96562 0.51796 0.0
C114 C 0.07556 0.94759 0.49896 0.0
C115 C 1.01391 0.95197 0.52487 0.0
C116 C 1.00584 0.91847 0.51367 0.0
C117 C 0.03348 0.89872 0.49475 0.0
C118 C 0.06854 0.91397 0.48691 0.0
Zn119 Zn 0.05943 1.01299 0.53923 0.0
O120 O 0.09152 0.07971 0.51825 0.0
C121 C 0.1332 1.01191 0.57971 0.0
O122 O 0.08457 0.03043 0.49068 0.0
H123 H 0.9928 0.96676 0.53999 0.0
H124 H 0.13527 0.10194 0.56681 0.0
H125 H 0.10287 0.95902 0.49374 0.0
O126 O 0.11926 0.04226 0.5867 0.0
O127 O 0.1146 0.99285 0.55875 0.0
H128 H 0.0241 0.12636 0.6065 0.0
O129 O 0.0338 0.99659 0.58822 0.0
O130 O 0.03899 0.0473 0.61398 0.0
O131 O 1.00499 0.0334 0.5199 0.0
O132 O 1.01079 0.08405 0.54566 0.0
C133 C 0.02887 1.01569 0.61525 0.0
H134 H 0.15667 0.15958 0.58098 0.0
H135 H 0.04393 0.18549 0.62306 0.0
H136 H 0.97872 0.90775 0.52101 0.0
H137 H 0.09052 0.89996 0.47204 0.0
C138 C 0.64678 1.00635 1.01472 0.0
N139 N 0.59151 0.10661 1.01583 0.0
C140 C 0.62784 0.11794 1.02026 0.0
C141 C 0.6344 0.15354 1.01971 0.0
C142 C 0.60318 0.17778 1.01523 0.0
C143 C 0.56654 0.16529 1.0076 0.0
C144 C 0.56133 0.12929 1.00792 0.0
Zn145 Zn 0.58204 0.05723 0.0327 0.0
C146 C 0.53881 1.01409 0.98341 0.0
N147 N 0.56439 0.95658 0.07544 0.0
C148 C 0.59391 0.9338 0.08498 0.0
C149 C 0.52746 0.94621 0.07341 0.0
C150 C 0.51917 0.91154 0.07984 0.0
C151 C 0.54925 0.88686 0.0875 0.0
C152 C 0.58698 0.89855 0.091 0.0
Zn153 Zn 0.57435 1.0057 0.05776 0.0
O154 O 0.63466 0.03781 1.00952 0.0
C155 C 0.6167 0.04921 0.10743 0.0
O156 O 0.62746 0.98685 0.0344 0.0
H157 H 0.5044 0.96448 0.06532 0.0
H158 H 0.65137 0.0996 1.02695 0.0
H159 H 0.62308 0.94257 0.08639 0.0
O160 O 0.612 0.06942 0.08094 0.0
O161 O 0.60422 1.01844 0.10559 0.0
H162 H 0.53267 0.11972 1.00453 0.0
O163 O 0.52193 0.02524 0.08093 0.0
O164 O 0.52907 0.076 0.05585 0.0
O165 O 0.5439 0.99367 1.00973 0.0
O166 O 0.55191 0.04465 0.98503 0.0
C167 C 0.50976 0.05662 0.07555 0.0
H168 H 0.66332 0.16201 1.02473 0.0
H169 H 0.54166 0.18306 1.00395 0.0
H170 H 0.48951 0.90403 0.07776 0.0
H171 H 0.61114 0.88049 0.09666 0.0
C172 C 0.58202 0.46704 0.52755 0.0
N173 N 0.57848 0.51697 0.6266 0.0
C174 C 0.5679 0.4886 0.6452 0.0
C175 C 0.57372 0.48728 0.68165 0.0
C176 C 0.58993 0.51572 0.69899 0.0
C177 C 0.6012 0.54413 0.67868 0.0
C178 C 0.59574 0.54397 0.6426 0.0
Zn179 Zn 0.5655 0.52533 0.57482 0.0
C180 C 0.63295 0.55541 0.53887 0.0
N181 N 0.53993 0.55298 0.46905 0.0
C182 C 0.52096 0.5279 0.45155 0.0
C183 C 0.55673 0.57932 0.45161 0.0
C184 C 0.55708 0.57966 0.41497 0.0
C185 C 0.53991 0.55268 0.39633 0.0
C186 C 0.52058 0.52726 0.41509 0.0
Zn187 Zn 0.55145 0.54383 0.52078 0.0
O188 O 0.58431 0.47307 0.56033 0.0
C189 C 0.4837 0.51438 0.55717 0.0
O190 O 0.56932 0.49143 0.50716 0.0
H191 H 0.5718 0.5989 0.46608 0.0
H192 H 0.55413 0.46745 0.63193 0.0
H193 H 0.50837 0.50686 0.46585 0.0
O194 O 0.50832 0.50905 0.58186 0.0
O195 O 0.49423 0.52835 0.52872 0.0
H196 H 0.60399 0.56637 0.62753 0.0
O197 O 0.53375 0.59632 0.53487 0.0
O198 O 0.54639 0.57753 0.58827 0.0
O199 O 0.60882 0.55933 0.5137 0.0
O200 O 0.62231 0.54191 0.56741 0.0
C201 C 0.53492 0.60216 0.56769 0.0
H202 H 0.56511 0.46449 0.69601 0.0
H203 H 0.61284 0.56715 0.69045 0.0
H204 H 0.57178 0.60005 0.40144 0.0
H205 H 0.50738 0.50573 0.40188 0.0
C206 C 0.04253 0.59776 0.05408 0.0
N207 N 0.04692 0.55911 0.15861 0.0
C208 C 0.05923 0.58922 0.17298 0.0
C209 C 0.05196 0.59677 0.20828 0.0
C210 C 0.0318 0.57308 0.22871 0.0
C211 C 0.01914 0.54254 0.21282 0.0
C212 C 0.02693 0.53613 0.17776 0.0
Zn213 Zn 0.0592 0.54372 0.10865 0.0
C214 C 0.98832 0.51317 0.07489 0.0
N215 N 0.08147 0.5049 1.00654 0.0
C216 C 0.10361 0.52736 0.98879 0.0
C217 C 0.06898 0.47532 0.99119 0.0
C218 C 0.07894 0.46752 0.95652 0.0
C219 C 0.10227 0.49022 0.93805 0.0
C220 C 0.11452 0.52041 0.9546 0.0
Zn221 Zn 0.06827 0.51982 0.05637 0.0
O222 O 0.04205 0.59471 0.08738 0.0
C223 C 0.13916 0.55056 0.08908 0.0
O224 O 0.05254 0.57112 0.03604 0.0
H225 H 0.05124 0.45794 1.00574 0.0
H226 H 0.07521 0.60707 0.15727 0.0
H227 H 0.11275 0.55107 1.00104 0.0
O228 O 0.11712 0.55935 0.11417 0.0
O229 O 0.12562 0.53386 0.06343 0.0
H230 H 1.01771 0.51217 0.16607 0.0
O231 O 0.08341 0.46861 0.07722 0.0
O232 O 0.07691 0.49229 0.1291 0.0
O233 O 1.01101 0.50583 0.0499 0.0
O234 O 1.00116 0.52827 0.102 0.0
C235 C 0.085 0.46549 0.1105 0.0
H236 H 0.06215 0.62068 0.21946 0.0
H237 H 1.00439 0.52304 0.22759 0.0
H238 H 0.06891 0.44397 0.94442 0.0
H239 H 0.13187 0.5389 0.94098 0.0
H240 H 0.22443 0.17277 0.33207 0.0
H241 H 0.11073 0.16686 0.28609 0.0
H242 H 0.20364 0.14134 0.38397 0.0
H243 H 0.08984 0.13484 0.33816 0.0
H244 H 0.08496 0.04315 0.42123 0.0
H245 H 0.10469 0.07487 0.36866 0.0
H246 H 0.15802 0.15112 0.43424 0.0
H247 H 0.138 0.11995 0.48645 0.0
C248 C 0.19486 0.16489 0.33316 0.0
C249 C 0.16922 0.17247 0.30494 0.0
C250 C 0.18292 0.14689 0.36296 0.0
C251 C 0.14509 0.13534 0.36528 0.0
C252 C 0.11927 0.14305 0.33713 0.0
C253 C 0.13109 0.16171 0.30747 0.0
C254 C 0.10121 0.0665 0.42439 0.0
C255 C 0.11003 0.07882 0.45817 0.0
C256 C 0.11217 0.08488 0.39426 0.0
C257 C 0.13287 0.11567 0.39714 0.0
C258 C 0.14232 0.12747 0.43094 0.0
C259 C 0.13079 0.10953 0.46094 0.0
H260 H 0.42326 0.98493 0.77833 0.0
H261 H 0.45374 0.88101 0.81717 0.0
H262 H 0.449 1.00968 0.83213 0.0
H263 H 0.4816 0.9057 0.86961 0.0
H264 H 0.49819 0.95483 0.97555 0.0
H265 H 0.468 0.93257 0.92279 0.0
H266 H 0.50547 0.02167 0.86426 0.0
H267 H 0.53444 0.04461 0.9177 0.0
C268 C 0.43539 0.96725 0.79823 0.0
C269 C 0.43629 0.93078 0.79294 0.0
C270 C 0.45075 0.98156 0.82907 0.0
C271 C 0.46762 0.9599 0.85566 0.0
C272 C 0.46845 0.92347 0.85029 0.0
C273 C 0.45292 0.9092 0.81966 0.0
C274 C 0.49986 0.96984 0.95149 0.0
C275 C 0.51894 1.00155 0.95104 0.0
C276 C 0.48273 0.95687 0.92095 0.0
C277 C 0.48442 0.97493 0.88872 0.0
C278 C 0.50301 1.00702 0.88843 0.0
C279 C 0.51988 0.02019 0.91915 0.0
H280 H 0.54359 0.52773 0.92341 0.0
H281 H 0.66684 0.53489 0.91616 0.0
H282 H 0.53795 0.52834 0.8595 0.0
H283 H 0.66221 0.5322 0.85287 0.0
H284 H 0.64545 0.54709 0.73835 0.0
H285 H 0.64685 0.55641 0.80066 0.0
H286 H 0.54738 0.493 0.81178 0.0
H287 H 0.54288 0.4877 0.74855 0.0
C288 C 0.56939 0.52979 0.90801 0.0
C289 C 0.60565 0.53122 0.92449 0.0
C290 C 0.56636 0.52948 0.87139 0.0
C291 C 0.59965 0.52967 0.85061 0.0
C292 C 0.63571 0.5326 0.86749 0.0
C293 C 0.63854 0.53398 0.90391 0.0
C294 C 0.62322 0.53574 0.75383 0.0
C295 C 0.59363 0.5171 0.73796 0.0
C296 C 0.6245 0.54053 0.78999 0.0
C297 C 0.59721 0.52556 0.81175 0.0
C298 C 0.56841 0.50576 0.79605 0.0
C299 C 0.56637 0.50194 0.75962 0.0
H300 H 0.07343 0.53807 0.44703 0.0
H301 H 0.95052 0.55982 0.44325 0.0
H302 H 0.07784 0.55608 0.38584 0.0
H303 H 0.95497 0.58078 0.38318 0.0
H304 H 0.9677 0.55918 0.26609 0.0
H305 H 0.96215 0.55576 0.32906 0.0
H306 H 0.07508 0.59818 0.34132 0.0
H307 H 0.08179 0.59883 0.27775 0.0
C308 C 0.0475 0.54743 0.43321 0.0
C309 C 1.0116 0.54708 0.44958 0.0
C310 C 0.04999 0.55822 0.39824 0.0
C311 C 1.01668 0.56963 0.37916 0.0
C312 C 0.98113 0.5713 0.39653 0.0
C313 C 0.97855 0.55964 0.43112 0.0
C314 C 0.99138 0.56785 0.28218 0.0
C315 C 0.02557 0.57844 0.26683 0.0
C316 C 0.98797 0.56642 0.31852 0.0
C317 C 0.01838 0.57627 0.34063 0.0
C318 C 0.05143 0.58954 0.32522 0.0
C319 C 0.05507 0.59046 0.2887 0.0
H320 H 0.32544 0.18702 0.17089 0.0
H321 H 0.28198 0.08322 0.16752 0.0
H322 H 0.38655 0.16479 0.14651 0.0
H323 H 0.34214 0.06107 0.14215 0.0
H324 H 0.46613 0.02441 0.12444 0.0
H325 H 0.40827 0.04747 0.15312 0.0
H326 H 0.41382 0.1434 0.09341 0.0
H327 H 0.47249 0.12068 0.06559 0.0
C328 C 0.3292 0.15936 0.16535 0.0
C329 C 0.29929 0.13671 0.17197 0.0
C330 C 0.36402 0.14663 0.15094 0.0
C331 C 0.36958 0.11099 0.14233 0.0
C332 C 0.33948 0.08846 0.14904 0.0
C333 C 0.30484 0.10117 0.16355 0.0
C334 C 0.45504 0.05043 0.11741 0.0
C335 C 0.474 0.0706 0.09258 0.0
C336 C 0.42165 0.06366 0.13378 0.0
C337 C 0.40604 0.09738 0.12565 0.0
C338 C 0.42515 0.11757 0.10085 0.0
C339 C 0.4587 0.1044 0.08461 0.0
H340 H 0.3535 0.98343 0.69543 0.0
H341 H 0.3088 0.88021 0.68823 0.0
H342 H 0.2976 1.00732 0.66223 0.0
H343 H 0.25256 0.90395 0.65591 0.0
H344 H 0.17394 0.94957 0.56952 0.0
H345 H 0.23148 0.92709 0.60117 0.0
H346 H 0.23087 0.02104 0.66357 0.0
H347 H 0.17442 0.04389 0.63111 0.0
C348 C 0.33146 0.96591 0.68718 0.0
C349 C 0.33583 0.92987 0.69436 0.0
C350 C 0.29929 0.97959 0.66809 0.0
C351 C 0.27037 0.95764 0.65593 0.0
C352 C 0.27448 0.92168 0.66391 0.0
C353 C 0.30672 0.90803 0.6827 0.0
C354 C 0.18629 0.96553 0.5898 0.0
C355 C 0.16943 0.99857 0.59764 0.0
C356 C 0.21919 0.95251 0.60826 0.0
C357 C 0.23602 0.97204 0.63528 0.0
C358 C 0.21932 1.0053 0.64273 0.0
C359 C 0.18665 1.01839 0.62413 0.0
H360 H 0.74349 0.47273 0.09981 0.0
H361 H 0.7596 0.49652 0.99016 0.0
H362 H 0.8122 0.48031 0.11102 0.0
H363 H 0.8272 0.50571 1.00164 0.0
H364 H 0.95246 0.47792 1.02265 0.0
H365 H 0.88379 0.46924 1.01544 0.0
H366 H 0.8617 0.52403 0.11238 0.0
H367 H 0.93066 0.53197 0.12011 0.0
C368 C 0.76153 0.48002 0.07825 0.0
C369 C 0.74596 0.48416 0.04415 0.0
C370 C 0.80079 0.48456 0.08469 0.0
C371 C 0.82521 0.49324 0.05713 0.0
C372 C 0.80934 0.4984 1.02333 0.0
C373 C 0.77031 0.49377 1.01689 0.0
C374 C 0.93302 0.48792 0.04256 0.0
C375 C 0.94698 0.50585 0.0718 0.0
C376 C 0.89362 0.48316 0.03832 0.0
C377 C 0.86724 0.49639 0.06311 0.0
C378 C 0.8813 0.51339 0.09292 0.0
C379 C 0.92079 0.51805 0.09725 0.0
H380 H 0.85191 0.63815 0.47403 0.0
H381 H 0.88016 0.56775 0.56054 0.0
H382 H 0.78373 0.62818 0.48157 0.0
H383 H 0.81243 0.55592 0.56646 0.0
H384 H 0.68611 0.56433 0.59091 0.0
H385 H 0.75281 0.58021 0.58505 0.0
H386 H 0.73782 0.58495 0.47232 0.0
H387 H 0.6705 0.57052 0.47842 0.0
C388 C 0.84362 0.62064 0.49474 0.0
C389 C 0.87164 0.60375 0.51666 0.0
C390 C 0.8045 0.61451 0.49873 0.0
C391 C 0.79244 0.59113 0.52454 0.0
C392 C 0.82048 0.57446 0.5466 0.0
C393 C 0.8595 0.58085 0.54284 0.0
C394 C 0.69704 0.5689 0.56488 0.0
C395 C 0.67313 0.566 0.5351 0.0
C396 C 0.73539 0.57781 0.56148 0.0
C397 C 0.75095 0.58358 0.52818 0.0
C398 C 0.72677 0.58115 0.49841 0.0
C399 C 0.68822 0.57266 0.50186 0.0
H400 H 0.1756 0.25309 0.15633 0.0
H401 H 0.14176 0.29163 0.25808 0.0
H402 H 0.15299 0.30762 0.12959 0.0
H403 H 0.11571 0.34546 0.23073 0.0
H404 H 0.10972 0.45353 0.17831 0.0
H405 H 0.13005 0.39827 0.20613 0.0
H406 H 0.10387 0.34404 0.11006 0.0
H407 H 0.08587 0.39971 0.08186 0.0
C408 C 0.16316 0.27311 0.17319 0.0
C409 C 0.16144 0.2677 0.20975 0.0
C410 C 0.14934 0.30453 0.15755 0.0
C411 C 0.13234 0.3317 0.17765 0.0
C412 C 0.12923 0.32581 0.21412 0.0
C413 C 0.14368 0.29444 0.2299 0.0
C414 C 0.10838 0.42978 0.1631 0.0
C415 C 0.09637 0.43125 0.12768 0.0
C416 C 0.11977 0.39779 0.17923 0.0
C417 C 0.11891 0.36601 0.16068 0.0
C418 C 0.10605 0.36762 0.12534 0.0
C419 C 0.09536 0.3997 0.10905 0.0
H420 H 0.5842 0.40499 0.04171 0.0
H421 H 0.70569 0.37446 0.0426 0.0
H422 H 0.56849 0.34328 0.03992 0.0
H423 H 0.68983 0.31347 0.04221 0.0
H424 H 0.64707 0.20609 0.06669 0.0
H425 H 0.65709 0.26758 0.07779 0.0
H426 H 0.5796 0.29651 0.99193 0.0
H427 H 0.57009 0.23467 0.98009 0.0
C428 C 0.60751 0.38524 0.04222 0.0
C429 C 0.64621 0.39482 0.04225 0.0
C430 C 0.59847 0.35 0.04114 0.0
C431 C 0.62797 0.32376 0.0407 0.0
C432 C 0.66652 0.33321 0.04288 0.0
C433 C 0.67557 0.3683 0.04344 0.0
C434 C 0.63249 0.22547 0.04982 0.0
C435 C 0.60837 0.21544 1.022 0.0
C436 C 0.63797 0.26067 0.05646 0.0
C437 C 0.61914 0.28668 0.03572 0.0
C438 C 0.59409 0.27688 1.00858 0.0
C439 C 0.5888 0.24153 1.00171 0.0
H440 H 0.93719 0.69542 0.44885 0.0
H441 H 0.02445 0.67946 0.52975 0.0
H442 H 0.95703 0.75535 0.44036 0.0
H443 H 0.04339 0.73942 0.52247 0.0
H444 H 0.08566 0.84277 0.49501 0.0
H445 H 0.07257 0.78136 0.48786 0.0
H446 H 0.95182 0.80905 0.4698 0.0
H447 H 0.96545 0.87052 0.47415 0.0
C448 C 0.96065 0.70481 0.46475 0.0
C449 C 0.97924 0.68294 0.49001 0.0
C450 C 0.97197 0.73913 0.46002 0.0
C451 C 1.00175 0.75243 0.48081 0.0
C452 C 0.0209 0.73006 0.50545 0.0
C453 C 1.00992 0.69568 0.50982 0.0
C454 C 0.05651 0.8359 0.48844 0.0
C455 C 0.02652 0.8617 0.4857 0.0
C456 C 0.04887 0.80053 0.48488 0.0
C457 C 1.01098 0.79004 0.47897 0.0
C458 C 0.9814 0.81598 0.47422 0.0
C459 C 0.98913 0.85134 0.47728 0.0
H460 H 0.4598 0.77268 0.7063 0.0
H461 H 0.48971 0.82471 0.61049 0.0
H462 H 0.47303 0.716 0.67888 0.0
H463 H 0.50447 0.76822 0.58331 0.0
H464 H 0.50003 0.65958 0.53419 0.0
H465 H 0.48036 0.71585 0.56001 0.0
H466 H 0.52522 0.67971 0.66074 0.0
H467 H 0.54351 0.62357 0.63533 0.0
C468 C 0.46879 0.77198 0.67922 0.0
C469 C 0.47275 0.80321 0.66029 0.0
C470 C 0.47688 0.73945 0.66354 0.0
C471 C 0.48994 0.73724 0.6287 0.0
C472 C 0.49382 0.76861 0.60986 0.0
C473 C 0.48548 0.80109 0.62548 0.0
C474 C 0.50559 0.6637 0.56184 0.0
C475 C 0.5233 0.63692 0.5826 0.0
C476 C 0.49446 0.69606 0.5767 0.0
C477 C 0.50094 0.70255 0.61266 0.0
C478 C 0.51887 0.6757 0.63321 0.0
C479 C 0.52972 0.64342 0.61847 0.0
H480 H 0.93057 0.9755 0.82285 0.0
H481 H 0.96392 0.87319 0.78343 0.0
H482 H 0.952 1.00199 0.76889 0.0
H483 H 0.98787 0.89988 0.73052 0.0
H484 H 0.99527 0.9526 0.62386 0.0
H485 H 0.97121 0.92685 0.67737 0.0
H486 H 1.00412 1.01779 0.73546 0.0
H487 H 0.02668 0.04405 0.68148 0.0
C488 C 0.94247 0.95849 0.80279 0.0
C489 C 0.9451 0.92192 0.80796 0.0
C490 C 0.95544 0.97388 0.77177 0.0
C491 C 0.97189 0.95336 0.74477 0.0
C492 C 0.97491 0.91682 0.75012 0.0
C493 C 0.96164 0.9014 0.78102 0.0
C494 C 0.9972 0.96724 0.64801 0.0
C495 C 1.01295 1.00055 0.64812 0.0
C496 C 0.98365 0.95226 0.67899 0.0
C497 C 0.98571 0.96987 0.71134 0.0
C498 C 1.0013 1.00337 0.7113 0.0
C499 C 1.01451 1.01849 0.6802 0.0
H500 H 0.71171 0.08615 0.31947 0.0
H501 H 0.68228 0.18852 0.27613 0.0
H502 H 0.69225 0.05952 0.26455 0.0
H503 H 0.6604 0.16184 0.22225 0.0
H504 H 0.65518 0.10956 0.11667 0.0
H505 H 0.67958 0.13402 0.17093 0.0
H506 H 0.64018 0.04499 0.22838 0.0
H507 H 0.61716 0.01989 0.17363 0.0
C508 C 0.70114 0.10312 0.29833 0.0
C509 C 0.69882 0.13973 0.30268 0.0
C510 C 0.68935 0.08769 0.26677 0.0
C511 C 0.67459 0.10828 0.23846 0.0
C512 C 0.67211 0.14486 0.24293 0.0
C513 C 0.68415 0.16028 0.27433 0.0
C514 C 0.65201 0.09498 0.14082 0.0
C515 C 0.63413 0.06265 0.14058 0.0
C516 C 0.66573 0.10925 0.17221 0.0
C517 C 0.66165 0.09191 0.20459 0.0
C518 C 0.64441 0.05915 0.20419 0.0
C519 C 0.63101 0.0447 0.17267 0.0
H520 H 0.57934 0.57644 0.17445 0.0
H521 H 0.52344 0.47842 0.18418 0.0
H522 H 0.58752 0.57874 0.2381 0.0
H523 H 0.532 0.48035 0.24781 0.0
H524 H 0.48605 0.5335 0.3481 0.0
H525 H 0.49515 0.52242 0.28597 0.0
H526 H 0.61332 0.55258 0.29513 0.0
H527 H 0.60447 0.56315 0.35777 0.0
C528 C 0.57075 0.55448 0.19014 0.0
C529 C 0.55112 0.52709 0.17456 0.0
C530 C 0.57514 0.5559 0.22657 0.0
C531 C 0.55965 0.53008 0.24783 0.0
C532 C 0.5436 0.50089 0.23196 0.0
C533 C 0.53924 0.49947 0.19559 0.0
C534 C 0.51406 0.53754 0.33698 0.0
C535 C 0.54453 0.54912 0.3579 0.0
C536 C 0.51937 0.53096 0.30145 0.0
C537 C 0.5552 0.53596 0.28591 0.0
C538 C 0.58547 0.54837 0.30652 0.0
C539 C 0.58024 0.55475 0.34224 0.0
H540 H 0.21292 0.44223 0.73965 0.0
H541 H 0.11217 0.50736 0.71252 0.0
H542 H 0.19646 0.44596 0.80155 0.0
H543 H 0.09583 0.51156 0.77472 0.0
H544 H 0.05579 0.47366 0.88274 0.0
H545 H 0.07365 0.46974 0.82088 0.0
H546 H 0.19166 0.48945 0.8492 0.0
H547 H 0.17394 0.49279 0.91078 0.0
C548 C 0.18754 0.45777 0.7471 0.0
C549 C 0.16379 0.47454 0.72147 0.0
C550 C 0.17815 0.45994 0.78246 0.0
C551 C 0.14467 0.47877 0.79286 0.0
C552 C 0.12151 0.49645 0.76731 0.0
C553 C 0.13111 0.49449 0.73187 0.0
C554 C 0.08561 0.47653 0.87567 0.0
C555 C 0.11349 0.48357 0.90138 0.0
C556 C 0.09573 0.47479 0.84034 0.0
C557 C 0.13395 0.47969 0.83027 0.0
C558 C 0.16202 0.4855 0.8562 0.0
C559 C 0.15187 0.48751 0.89138 0.0
H560 H 0.8657 0.97345 0.90375 0.0
H561 H 0.82025 0.8707 0.91306 0.0
H562 H 0.81012 0.99834 0.93487 0.0
H563 H 0.76415 0.89547 0.94319 0.0
H564 H 0.68571 0.94324 1.02594 0.0
H565 H 0.74253 0.91956 0.996 0.0
H566 H 0.74387 1.01311 0.93205 0.0
H567 H 0.68802 0.03725 0.96306 0.0
C568 C 0.84357 0.95622 0.91206 0.0
C569 C 0.84762 0.92003 0.90599 0.0
C570 C 0.81152 0.9705 0.92991 0.0
C571 C 0.78233 0.94905 0.94191 0.0
C572 C 0.78622 0.91289 0.93525 0.0
C573 C 0.81842 0.89861 0.91773 0.0
C574 C 0.69825 0.95885 1.00561 0.0
C575 C 0.68218 0.99222 0.99702 0.0
C576 C 0.73078 0.94512 0.98813 0.0
C577 C 0.74806 0.96418 0.96124 0.0
C578 C 0.73201 0.9977 0.95286 0.0
C579 C 0.69969 1.01155 0.97058 0.0
H580 H 0.76663 0.15651 0.45909 0.0
H581 H 0.8234 0.12559 0.36326 0.0
H582 H 0.82264 0.13454 0.49301 0.0
H583 H 0.87881 0.10254 0.3975 0.0
H584 H 0.94971 0.12612 0.53582 0.0
H585 H 0.89253 0.14821 0.50285 0.0
H586 H 0.89543 0.05431 0.44061 0.0
H587 H 0.95213 0.03217 0.47346 0.0
C588 C 0.79104 0.14525 0.44511 0.0
C589 C 0.79022 0.14312 0.40818 0.0
C590 C 0.82318 0.13254 0.46469 0.0
C591 C 0.85529 0.11683 0.44803 0.0
C592 C 0.85439 0.11416 0.41122 0.0
C593 C 0.82242 0.12727 0.39156 0.0
C594 C 0.93798 0.11009 0.51528 0.0
C595 C 0.9556 0.07733 0.50741 0.0
C596 C 0.90515 0.12271 0.49642 0.0
C597 C 0.8895 0.10311 0.46892 0.0
C598 C 0.90697 0.07028 0.4613 0.0
C599 C 0.93938 0.05748 0.48038 0.0
H600 H 0.38656 0.54102 0.06611 0.0
H601 H 0.36341 0.64318 0.11072 0.0
H602 H 0.31757 0.53123 0.06449 0.0
H603 H 0.29441 0.63386 0.10805 0.0
H604 H 0.19026 0.53798 0.03684 0.0
H605 H 0.25781 0.55157 0.03536 0.0
H606 H 0.24913 0.59666 0.13872 0.0
H607 H 0.18076 0.58355 0.14005 0.0
C608 C 0.36668 0.56157 0.07504 0.0
C609 C 0.3804 0.59287 0.08842 0.0
C610 C 0.32718 0.55607 0.07398 0.0
C611 C 0.30059 0.58173 0.08636 0.0
C612 C 0.31423 0.61345 0.09876 0.0
C613 C 0.35372 0.61898 0.09974 0.0
C614 C 0.20261 0.55082 0.05934 0.0
C615 C 0.18015 0.55951 0.08872 0.0
C616 C 0.24144 0.55848 0.05847 0.0
C617 C 0.25885 0.575 0.08695 0.0
C618 C 0.23636 0.58419 0.11621 0.0
C619 C 0.19732 0.57651 0.11709 0.0
H620 H 0.23286 0.50238 0.54159 0.0
H621 H 0.26074 0.54292 0.64366 0.0
H622 H 0.30117 0.48674 0.53238 0.0
H623 H 0.32886 0.52844 0.63439 0.0
H624 H 0.44956 0.48943 0.61619 0.0
H625 H 0.38063 0.48565 0.62671 0.0
H626 H 0.35584 0.52107 0.52064 0.0
H627 H 0.42439 0.52392 0.5099 0.0
C628 C 0.25367 0.50745 0.56218 0.0
C629 C 0.24185 0.52428 0.59304 0.0
C630 C 0.29272 0.49874 0.55691 0.0
C631 C 0.32066 0.50677 0.58243 0.0
C632 C 0.30826 0.52159 0.61426 0.0
C633 C 0.26925 0.53016 0.61952 0.0
C634 C 0.42939 0.49578 0.59494 0.0
C635 C 0.44249 0.50737 0.56233 0.0
C636 C 0.38986 0.49379 0.60103 0.0
C637 C 0.36259 0.50337 0.57465 0.0
C638 C 0.3759 0.51311 0.54148 0.0
C639 C 0.41533 0.51503 0.53539 0.0
H640 H 0.96927 0.76051 0.90038 0.0
H641 H 1.00243 0.81759 0.99231 0.0
H642 H 0.98152 0.70537 0.93218 0.0
H643 H 1.01612 0.76279 1.02383 0.0
H644 H 1.01083 0.65869 0.08208 0.0
H645 H 0.99208 0.71316 0.05133 0.0
H646 H 0.0317 0.668 0.95397 0.0
H647 H 0.04907 0.61353 0.98442 0.0
C648 C 0.9787 0.76129 0.92754 0.0
C649 C 0.98385 0.79356 0.94405 0.0
C650 C 0.98627 0.72961 0.94577 0.0
C651 C 0.99991 0.72922 0.98086 0.0
C652 C 1.00495 0.76166 0.99723 0.0
C653 C 0.99718 0.79324 0.97908 0.0
C654 C 1.01548 0.66041 0.0541 0.0
C655 C 0.0315 0.63155 0.03586 0.0
C656 C 1.00486 0.69179 0.03637 0.0
C657 C 1.01017 0.69536 0.99988 0.0
C658 C 0.02631 0.66639 0.98181 0.0
C659 C 0.03665 0.63504 0.99945 0.0
H660 H 0.48348 0.6745 0.04258 0.0
H661 H 0.5029 0.67528 0.15455 0.0
H662 H 0.50562 0.734 0.03838 0.0
H663 H 0.52322 0.73539 0.15094 0.0
H664 H 0.58314 0.83625 0.13092 0.0
H665 H 0.57024 0.77414 0.13273 0.0
H666 H 0.48287 0.79052 0.05165 0.0
H667 H 0.49785 0.85146 0.04787 0.0
C668 C 0.49248 0.68758 0.06626 0.0
C669 C 0.49151 0.67055 0.09883 0.0
C670 C 0.50492 0.7217 0.06399 0.0
C671 C 0.51584 0.73975 0.09439 0.0
C672 C 0.51559 0.72224 0.12692 0.0
C673 C 0.50378 0.68788 0.12907 0.0
C674 C 0.5616 0.82644 0.11313 0.0
C675 C 0.54134 0.84903 0.08948 0.0
C676 C 0.55386 0.79088 0.11446 0.0
C677 C 0.52547 0.7772 0.09235 0.0
C678 C 0.50538 0.79985 0.06869 0.0
C679 C 0.51345 0.83514 0.06704 0.0
H680 H 0.13818 0.39968 0.58224 0.0
H681 H 0.21379 0.36668 0.66821 0.0
H682 H 0.12183 0.33919 0.57263 0.0
H683 H 0.19534 0.3068 0.66049 0.0
H684 H 0.17323 0.19735 0.62597 0.0
H685 H 0.1969 0.25591 0.62818 0.0
H686 H 0.08307 0.29843 0.60023 0.0
H687 H 0.06021 0.23943 0.595 0.0
C688 C 0.15193 0.37944 0.59863 0.0
C689 C 0.17695 0.38802 0.62625 0.0
C690 C 0.14191 0.34481 0.59363 0.0
C691 C 0.15641 0.31811 0.61635 0.0
C692 C 0.18354 0.32648 0.64238 0.0
C693 C 0.19397 0.36094 0.64701 0.0
C694 C 0.15327 0.21914 0.6199 0.0
C695 C 0.11487 0.21356 0.60988 0.0
C696 C 0.1668 0.25287 0.62156 0.0
C697 C 0.14208 0.28207 0.61406 0.0
C698 C 0.10325 0.27658 0.60532 0.0
C699 C 0.08986 0.24271 0.60307 0.0
H700 H 0.63511 0.24587 0.48218 0.0
H701 H 0.66173 0.29995 0.38664 0.0
H702 H 0.61859 0.3016 0.51015 0.0
H703 H 0.64658 0.35598 0.41482 0.0
H704 H 0.57282 0.4456 0.45995 0.0
H705 H 0.593 0.39025 0.43386 0.0
H706 H 0.64067 0.35473 0.53378 0.0
H707 H 0.61921 0.41022 0.56028 0.0
C708 C 0.63826 0.26981 0.4674 0.0
C709 C 0.65052 0.26847 0.4324 0.0
C710 C 0.62889 0.30187 0.48349 0.0
C711 C 0.63119 0.33362 0.46494 0.0
C712 C 0.64391 0.33221 0.42995 0.0
C713 C 0.6531 0.30008 0.41383 0.0
C714 C 0.58758 0.42605 0.4765 0.0
C715 C 0.5943 0.43252 0.51235 0.0
C716 C 0.59954 0.39424 0.46136 0.0
C717 C 0.61888 0.3678 0.48146 0.0
C718 C 0.62554 0.3742 0.51742 0.0
C719 C 0.61334 0.40612 0.53267 0.0
loop_
_geom_bond_atom_site_label_1
_geom_bond_atom_site_label_2
_geom_bond_distance
_geom_bond_site_symmetry_2
_ccdc_geom_bond_type
H0 C7 0.929 . S
H1 C10 0.930 . S
H2 C12 0.929 . S
H3 C4 0.969 . S
C4 H3 0.969 . S
C4 O5 1.550 . S
C4 H6 0.973 . S
O5 C4 1.550 . S
O5 C11 1.412 . S
H6 C4 0.973 . S
C7 H0 0.929 . S
C7 C8 1.400 . S
C7 C9 1.364 . S
C8 C7 1.400 . S
C8 C12 1.377 . S
C9 C7 1.364 . S
C9 C10 1.374 . S
C10 H1 0.930 . S
C10 C9 1.374 . S
C10 C11 1.383 . S
C11 O5 1.412 . S
C11 C10 1.383 . S
C11 C12 1.394 . S
C12 H2 0.929 . S
C12 C8 1.377 . S
C12 C11 1.394 . S
H13 C20 0.929 . S
H14 C23 0.930 . S
H15 C25 0.929 . S
H16 C17 0.969 . S
C17 H16 0.969 . S
C17 O18 1.550 . S
C17 H19 0.973 . S
O18 C17 1.550 . S
O18 C24 1.412 . S
H19 C17 0.973 . S
C20 H13 0.929 . S
C20 C21 1.400 . S
C20 C22 1.364 . S
C21 C20 1.400 . S
C21 C25 1.377 . S
C22 C20 1.364 . S
C22 C23 1.374 . S
C23 H14 0.930 . S
C23 C22 1.374 . S
C23 C24 1.383 . S
C24 O18 1.412 . S
C24 C23 1.383 . S
C24 C25 1.394 . S
C25 H15 0.929 . S
C25 C21 1.377 . S
C25 C24 1.394 . S
H26 C33 0.929 . S
H27 C36 0.930 . S
H28 C38 0.929 . S
H29 C30 0.969 . S
C30 H29 0.969 . S
C30 O31 1.550 . S
C30 H32 0.973 . S
O31 C30 1.550 . S
O31 C37 1.412 . S
H32 C30 0.973 . S
C33 H26 0.929 . S
C33 C34 1.400 . S
C33 C35 1.364 . S
C34 C33 1.400 . S
C34 C38 1.377 . S
C35 C33 1.364 . S
C35 C36 1.374 . S
C36 H27 0.930 . S
C36 C35 1.374 . S
C36 C37 1.383 . S
C37 O31 1.412 . S
C37 C36 1.383 . S
C37 C38 1.394 . S
C38 H28 0.929 . S
C38 C34 1.377 . S
C38 C37 1.394 . S
H39 C46 0.929 . S
H40 C49 0.930 . S
H41 C51 0.929 . S
H42 C43 0.969 . S
C43 H42 0.969 . S
C43 O44 1.550 . S
C43 H45 0.973 . S
O44 C43 1.550 . S
O44 C50 1.412 . S
H45 C43 0.973 . S
C46 H39 0.929 . S
C46 C47 1.400 . S
C46 C48 1.364 . S
C47 C46 1.400 . S
C47 C51 1.377 . S
C48 C46 1.364 . S
C48 C49 1.374 . S
C49 H40 0.930 . S
C49 C48 1.374 . S
C49 C50 1.383 . S
C50 O44 1.412 . S
C50 C49 1.383 . S
C50 C51 1.394 . S
C51 H41 0.929 . S
C51 C47 1.377 . S
C51 C50 1.394 . S
H52 C59 0.929 . S
H53 C62 0.930 . S
H54 C64 0.929 . S
H55 C56 0.969 . S
C56 H55 0.969 . S
C56 O57 1.550 . S
C56 H58 0.973 . S
O57 C56 1.550 . S
O57 C63 1.412 . S
H58 C56 0.973 . S
C59 H52 0.929 . S
C59 C60 1.400 . S
C59 C61 1.364 . S
C60 C59 1.400 . S
C60 C64 1.377 . S
C61 C59 1.364 . S
C61 C62 1.374 . S
C62 H53 0.930 . S
C62 C61 1.374 . S
C62 C63 1.383 . S
C63 O57 1.412 . S
C63 C62 1.383 . S
C63 C64 1.394 . S
C64 H54 0.929 . S
C64 C60 1.377 . S
C64 C63 1.394 . S
H65 C72 0.929 . S
H66 C75 0.930 . S
H67 C77 0.929 . S
H68 C69 0.969 . S
C69 H68 0.969 . S
C69 O70 1.550 . S
C69 H71 0.973 . S
O70 C69 1.550 . S
O70 C76 1.412 . S
H71 C69 0.973 . S
C72 H65 0.929 . S
C72 C73 1.400 . S
C72 C74 1.364 . S
C73 C72 1.400 . S
C73 C77 1.377 . S
C74 C72 1.364 . S
C74 C75 1.374 . S
C75 H66 0.930 . S
C75 C74 1.374 . S
C75 C76 1.383 . S
C76 O70 1.412 . S
C76 C75 1.383 . S
C76 C77 1.394 . S
C77 H67 0.929 . S
C77 C73 1.377 . S
C77 C76 1.394 . S
H78 C85 0.929 . S
H79 C88 0.930 . S
H80 C90 0.929 . S
H81 C82 0.969 . S
C82 H81 0.969 . S
C82 O83 1.550 . S
C82 H84 0.973 . S
O83 C82 1.550 . S
O83 C89 1.412 . S
H84 C82 0.973 . S
C85 H78 0.929 . S
C85 C86 1.400 . S
C85 C87 1.364 . S
C86 C85 1.400 . S
C86 C90 1.377 . S
C87 C85 1.364 . S
C87 C88 1.374 . S
C88 H79 0.930 . S
C88 C87 1.374 . S
C88 C89 1.383 . S
C89 O83 1.412 . S
C89 C88 1.383 . S
C89 C90 1.394 . S
C90 H80 0.929 . S
C90 C86 1.377 . S
C90 C89 1.394 . S
H91 C98 0.929 . S
H92 C101 0.930 . S
H93 C103 0.929 . S
H94 C95 0.969 . S
C95 H94 0.969 . S
C95 O96 1.550 . S
C95 H97 0.973 . S
O96 C95 1.550 . S
O96 C102 1.412 . S
H97 C95 0.973 . S
C98 H91 0.929 . S
C98 C99 1.400 . S
C98 C100 1.364 . S
C99 C98 1.400 . S
C99 C103 1.377 . S
C100 C98 1.364 . S
C100 C101 1.374 . S
C101 H92 0.930 . S
C101 C100 1.374 . S
C101 C102 1.383 . S
C102 O96 1.412 . S
C102 C101 1.383 . S
C102 C103 1.394 . S
C103 H93 0.929 . S
C103 C99 1.377 . S
C103 C102 1.394 . S
C104 O120 1.251 . S
C104 O122 1.254 . S
N105 C106 1.333 . S
N105 C110 1.307 . S
N105 Zn111 2.020 . S
C106 N105 1.333 . S
C106 C107 1.379 . S
C106 H124 0.952 . S
C107 C106 1.379 . S
C107 C108 1.390 . S
C107 H134 0.949 . S
C108 C107 1.390 . S
C108 C109 1.357 . S
C109 C108 1.357 . S
C109 C110 1.370 . S
C109 H135 0.950 . S
C110 N105 1.307 . S
C110 C109 1.370 . S
C110 H128 0.948 . S
Zn111 N105 2.020 . S
Zn111 O120 2.039 . S
Zn111 O126 2.034 . S
Zn111 O130 2.025 . S
Zn111 O132 2.024 1_455 S
C112 O131 1.246 . S
C112 O132 1.249 . S
N113 C114 1.300 1_655 S
N113 C115 1.344 . S
N113 Zn119 2.016 1_655 S
C114 N113 1.300 1_455 S
C114 C118 1.370 . S
C114 H125 0.948 . S
C115 N113 1.344 . S
C115 C116 1.379 . S
C115 H123 0.952 . S
C116 C115 1.379 . S
C116 C117 1.390 . S
C116 H136 0.949 . S
C117 C116 1.390 . S
C117 C118 1.357 1_655 S
C118 C114 1.370 . S
C118 C117 1.357 1_455 S
C118 H137 0.950 . S
Zn119 N113 2.016 1_455 S
Zn119 O122 2.025 1_565 S
Zn119 O127 2.024 . S
Zn119 O129 2.039 . S
Zn119 O131 2.034 1_465 S
O120 C104 1.251 . S
O120 Zn111 2.039 . S
C121 O126 1.246 . S
C121 O127 1.249 1_545 S
O122 C104 1.254 . S
O122 Zn119 2.025 1_545 S
H123 C115 0.952 . S
H124 C106 0.952 . S
H125 C114 0.948 . S
O126 Zn111 2.034 . S
O126 C121 1.246 . S
O127 Zn119 2.024 . S
O127 C121 1.249 1_565 S
H128 C110 0.948 . S
O129 Zn119 2.039 . S
O129 C133 1.251 1_565 S
O130 Zn111 2.025 . S
O130 C133 1.254 . S
O131 C112 1.246 . S
O131 Zn119 2.034 1_645 S
O132 Zn111 2.024 1_655 S
O132 C112 1.249 . S
C133 O129 1.251 1_545 S
C133 O130 1.254 . S
H134 C107 0.949 . S
H135 C109 0.950 . S
H136 C116 0.949 . S
H137 C118 0.950 . S
C138 O154 1.252 1_565 S
C138 O156 1.254 . S
N139 C140 1.333 . S
N139 C144 1.307 . S
N139 Zn145 2.020 1_556 S
C140 N139 1.333 . S
C140 C141 1.379 . S
C140 H158 0.952 1_556 S
C141 C140 1.379 . S
C141 C142 1.390 . S
C141 H168 0.949 . S
C142 C141 1.390 . S
C142 C143 1.357 . S
C143 C142 1.357 . S
C143 C144 1.370 . S
C143 H169 0.950 . S
C144 N139 1.307 . S
C144 C143 1.370 . S
C144 H162 0.948 . S
Zn145 N139 2.020 1_554 S
Zn145 O154 2.041 . S
Zn145 O160 2.034 . S
Zn145 O164 2.025 . S
Zn145 O166 2.024 1_554 S
C146 O165 1.222 1_545 S
C146 O166 1.282 . S
N147 C148 1.307 . S
N147 C149 1.333 . S
N147 Zn153 2.020 . S
C148 N147 1.307 . S
C148 C152 1.370 . S
C148 H159 0.948 . S
C149 N147 1.333 . S
C149 C150 1.379 . S
C149 H157 0.952 . S
C150 C149 1.379 . S
C150 C151 1.390 . S
C150 H170 0.949 . S
C151 C150 1.390 . S
C151 C152 1.357 . S
C152 C148 1.370 . S
C152 C151 1.357 . S
C152 H171 0.950 . S
Zn153 N147 2.020 . S
Zn153 O156 2.025 . S
Zn153 O161 2.016 1_565 S
Zn153 O163 2.039 1_565 S
Zn153 O165 2.034 1_554 S
O154 C138 1.252 1_545 S
O154 Zn145 2.041 . S
C155 O160 1.246 . S
C155 O161 1.271 . S
O156 C138 1.254 . S
O156 Zn153 2.025 . S
H157 C149 0.952 . S
H158 C140 0.952 1_554 S
H159 C148 0.948 . S
O160 Zn145 2.034 . S
O160 C155 1.246 . S
O161 Zn153 2.016 1_545 S
O161 C155 1.271 . S
H162 C144 0.948 . S
O163 Zn153 2.039 1_545 S
O163 C167 1.251 . S
O164 Zn145 2.025 . S
O164 C167 1.254 . S
O165 C146 1.222 1_565 S
O165 Zn153 2.034 1_556 S
O166 Zn145 2.024 1_556 S
O166 C146 1.282 . S
C167 O163 1.251 . S
C167 O164 1.254 . S
H168 C141 0.949 . S
H169 C143 0.950 . S
H170 C150 0.949 . S
H171 C152 0.950 . S
C172 O188 1.251 . S
C172 O190 1.254 . S
N173 C174 1.333 . S
N173 C178 1.307 . S
N173 Zn179 2.020 . S
C174 N173 1.333 . S
C174 C175 1.379 . S
C174 H192 0.952 . S
C175 C174 1.379 . S
C175 C176 1.390 . S
C175 H202 0.949 . S
C176 C175 1.390 . S
C176 C177 1.357 . S
C177 C176 1.357 . S
C177 C178 1.370 . S
C177 H203 0.950 . S
C178 N173 1.307 . S
C178 C177 1.370 . S
C178 H196 0.948 . S
Zn179 N173 2.020 . S
Zn179 O188 2.039 . S
Zn179 O194 2.034 . S
Zn179 O198 2.025 . S
Zn179 O200 2.024 . S
C180 O199 1.246 . S
C180 O200 1.249 . S
N181 C182 1.307 . S
N181 C183 1.333 . S
N181 Zn187 2.020 . S
C182 N181 1.307 . S
C182 C186 1.370 . S
C182 H193 0.948 . S
C183 N181 1.333 . S
C183 C184 1.379 . S
C183 H191 0.952 . S
C184 C183 1.379 . S
C184 C185 1.390 . S
C184 H204 0.949 . S
C185 C184 1.390 . S
C185 C186 1.357 . S
C186 C182 1.370 . S
C186 C185 1.357 . S
C186 H205 0.950 . S
Zn187 N181 2.020 . S
Zn187 O190 2.025 . S
Zn187 O195 2.024 . S
Zn187 O197 2.039 . S
Zn187 O199 2.034 . S
O188 C172 1.251 . S
O188 Zn179 2.039 . S
C189 O194 1.246 . S
C189 O195 1.249 . S
O190 C172 1.254 . S
O190 Zn187 2.025 . S
H191 C183 0.952 . S
H192 C174 0.952 . S
H193 C182 0.948 . S
O194 Zn179 2.034 . S
O194 C189 1.246 . S
O195 Zn187 2.024 . S
O195 C189 1.249 . S
H196 C178 0.948 . S
O197 Zn187 2.039 . S
O197 C201 1.251 . S
O198 Zn179 2.025 . S
O198 C201 1.254 . S
O199 C180 1.246 . S
O199 Zn187 2.034 . S
O200 Zn179 2.024 . S
O200 C180 1.249 . S
C201 O197 1.251 . S
C201 O198 1.254 . S
H202 C175 0.949 . S
H203 C177 0.950 . S
H204 C184 0.949 . S
H205 C186 0.950 . S
C206 O222 1.251 . S
C206 O224 1.254 1_554 S
N207 C208 1.333 . S
N207 C212 1.307 . S
N207 Zn213 2.020 . S
C208 N207 1.333 . S
C208 C209 1.379 . S
C208 H226 0.952 . S
C209 C208 1.379 . S
C209 C210 1.390 1_455 S
C209 H236 0.949 . S
C210 C209 1.390 1_655 S
C210 C211 1.357 . S
C211 C210 1.357 . S
C211 C212 1.370 1_655 S
C211 H237 0.950 . S
C212 N207 1.307 . S
C212 C211 1.370 1_455 S
C212 H230 0.948 . S
Zn213 N207 2.020 . S
Zn213 O222 2.039 . S
Zn213 O228 2.034 . S
Zn213 O232 2.025 . S
Zn213 O234 2.024 1_455 S
C214 O233 1.246 1_654 S
C214 O234 1.249 . S
N215 C216 1.307 . S
N215 C217 1.333 . S
N215 Zn221 2.020 . S
C216 N215 1.307 . S
C216 C220 1.370 . S
C216 H227 0.948 . S
C217 N215 1.333 . S
C217 C218 1.379 . S
C217 H225 0.952 . S
C218 C217 1.379 . S
C218 C219 1.390 . S
C218 H238 0.949 . S
C219 C218 1.390 . S
C219 C220 1.357 . S
C220 C216 1.370 . S
C220 C219 1.357 . S
C220 H239 0.950 . S
Zn221 N215 2.020 . S
Zn221 O224 2.025 . S
Zn221 O229 2.024 1_556 S
Zn221 O231 2.039 1_556 S
Zn221 O233 2.034 . S
O222 C206 1.251 . S
O222 Zn213 2.039 . S
C223 O228 1.246 . S
C223 O229 1.249 . S
O224 C206 1.254 1_556 S
O224 Zn221 2.025 . S
H225 C217 0.952 . S
H226 C208 0.952 . S
H227 C216 0.948 . S
O228 Zn213 2.034 . S
O228 C223 1.246 . S
O229 Zn221 2.024 1_554 S
O229 C223 1.249 . S
H230 C212 0.948 . S
O231 Zn221 2.039 1_554 S
O231 C235 1.251 . S
O232 Zn213 2.025 . S
O232 C235 1.254 . S
O233 C214 1.246 1_456 S
O233 Zn221 2.034 . S
O234 Zn213 2.024 1_655 S
O234 C214 1.249 . S
C235 O231 1.251 . S
C235 O232 1.254 . S
H236 C209 0.949 . S
H237 C211 0.950 . S
H238 C218 0.949 . S
H239 C220 0.950 . S
H240 C248 0.950 . S
H241 C253 0.950 . S
H242 C250 0.950 . S
H243 C252 0.950 . S
H244 C254 0.950 . S
H245 C256 0.950 . S
H246 C258 0.950 . S
H247 C259 0.950 . S
C248 H240 0.950 . S
C248 C249 1.386 . S
C248 C250 1.391 . S
C249 C248 1.386 . S
C249 C253 1.393 . S
C250 H242 0.950 . S
C250 C248 1.391 . S
C250 C251 1.400 . S
C251 C250 1.400 . S
C251 C252 1.398 . S
C251 C257 1.491 . S
C252 H243 0.950 . S
C252 C251 1.398 . S
C252 C253 1.391 . S
C253 H241 0.950 . S
C253 C249 1.393 . S
C253 C252 1.391 . S
C254 H244 0.950 . S
C254 C255 1.386 . S
C254 C256 1.391 . S
C255 C254 1.386 . S
C255 C259 1.393 . S
C256 H245 0.950 . S
C256 C254 1.391 . S
C256 C257 1.400 . S
C257 C251 1.491 . S
C257 C256 1.400 . S
C257 C258 1.398 . S
C258 H246 0.950 . S
C258 C257 1.398 . S
C258 C259 1.391 . S
C259 H247 0.950 . S
C259 C255 1.393 . S
C259 C258 1.391 . S
H260 C268 0.950 . S
H261 C273 0.950 . S
H262 C270 0.950 1_545 S
H263 C272 0.950 . S
H264 C274 0.950 . S
H265 C276 0.950 . S
H266 C278 0.950 1_545 S
H267 C279 0.950 . S
C268 H260 0.950 . S
C268 C269 1.386 . S
C268 C270 1.391 . S
C269 C268 1.386 . S
C269 C273 1.393 . S
C270 H262 0.950 1_565 S
C270 C268 1.391 . S
C270 C271 1.400 . S
C271 C270 1.400 . S
C271 C272 1.398 . S
C271 C277 1.491 . S
C272 H263 0.950 . S
C272 C271 1.398 . S
C272 C273 1.391 . S
C273 H261 0.950 . S
C273 C269 1.393 . S
C273 C272 1.391 . S
C274 H264 0.950 . S
C274 C275 1.386 . S
C274 C276 1.391 . S
C275 C274 1.386 . S
C275 C279 1.393 1_565 S
C276 H265 0.950 . S
C276 C274 1.391 . S
C276 C277 1.400 . S
C277 C271 1.491 . S
C277 C276 1.400 . S
C277 C278 1.398 . S
C278 H266 0.950 1_565 S
C278 C277 1.398 . S
C278 C279 1.391 1_565 S
C279 H267 0.950 . S
C279 C275 1.393 1_545 S
C279 C278 1.391 1_545 S
H280 C288 0.950 . S
H281 C293 0.950 . S
H282 C290 0.950 . S
H283 C292 0.950 . S
H284 C294 0.950 . S
H285 C296 0.950 . S
H286 C298 0.950 . S
H287 C299 0.950 . S
C288 H280 0.950 . S
C288 C289 1.386 . S
C288 C290 1.391 . S
C289 C288 1.386 . S
C289 C293 1.393 . S
C290 H282 0.950 . S
C290 C288 1.391 . S
C290 C291 1.400 . S
C291 C290 1.400 . S
C291 C292 1.398 . S
C291 C297 1.491 . S
C292 H283 0.950 . S
C292 C291 1.398 . S
C292 C293 1.391 . S
C293 H281 0.950 . S
C293 C289 1.393 . S
C293 C292 1.391 . S
C294 H284 0.950 . S
C294 C295 1.386 . S
C294 C296 1.391 . S
C295 C294 1.386 . S
C295 C299 1.393 . S
C296 H285 0.950 . S
C296 C294 1.391 . S
C296 C297 1.400 . S
C297 C291 1.491 . S
C297 C296 1.400 . S
C297 C298 1.398 . S
C298 H286 0.950 . S
C298 C297 1.398 . S
C298 C299 1.391 . S
C299 H287 0.950 . S
C299 C295 1.393 . S
C299 C298 1.391 . S
H300 C308 0.950 . S
H301 C313 0.950 . S
H302 C310 0.950 . S
H303 C312 0.950 . S
H304 C314 0.950 . S
H305 C316 0.950 . S
H306 C318 0.950 . S
H307 C319 0.950 1_455 S
C308 H300 0.950 . S
C308 C309 1.386 . S
C308 C310 1.391 . S
C309 C308 1.386 . S
C309 C313 1.393 . S
C310 H302 0.950 . S
C310 C308 1.391 . S
C310 C311 1.400 . S
C311 C310 1.400 . S
C311 C312 1.398 . S
C311 C317 1.491 . S
C312 H303 0.950 . S
C312 C311 1.398 . S
C312 C313 1.391 . S
C313 H301 0.950 . S
C313 C309 1.393 . S
C313 C312 1.391 . S
C314 H304 0.950 . S
C314 C315 1.386 . S
C314 C316 1.391 . S
C315 C314 1.386 . S
C315 C319 1.393 . S
C316 H305 0.950 . S
C316 C314 1.391 . S
C316 C317 1.400 . S
C317 C311 1.491 . S
C317 C316 1.400 . S
C317 C318 1.398 . S
C318 H306 0.950 . S
C318 C317 1.398 . S
C318 C319 1.391 . S
C319 H307 0.950 1_655 S
C319 C315 1.393 . S
C319 C318 1.391 . S
H320 C328 0.950 . S
H321 C333 0.950 . S
H322 C330 0.950 . S
H323 C332 0.950 . S
H324 C334 0.950 . S
H325 C336 0.950 . S
H326 C338 0.950 . S
H327 C339 0.950 . S
C328 H320 0.950 . S
C328 C329 1.386 . S
C328 C330 1.391 . S
C329 C328 1.386 . S
C329 C333 1.393 . S
C330 H322 0.950 . S
C330 C328 1.391 . S
C330 C331 1.400 . S
C331 C330 1.400 . S
C331 C332 1.398 . S
C331 C337 1.491 . S
C332 H323 0.950 . S
C332 C331 1.398 . S
C332 C333 1.391 . S
C333 H321 0.950 . S
C333 C329 1.393 . S
C333 C332 1.391 . S
C334 H324 0.950 . S
C334 C335 1.386 . S
C334 C336 1.391 . S
C335 C334 1.386 . S
C335 C339 1.393 . S
C336 H325 0.950 . S
C336 C334 1.391 . S
C336 C337 1.400 . S
C337 C331 1.491 . S
C337 C336 1.400 . S
C337 C338 1.398 . S
C338 H326 0.950 . S
C338 C337 1.398 . S
C338 C339 1.391 . S
C339 H327 0.950 . S
C339 C335 1.393 . S
C339 C338 1.391 . S
H340 C348 0.950 . S
H341 C353 0.950 . S
H342 C350 0.950 . S
H343 C352 0.950 . S
H344 C354 0.950 . S
H345 C356 0.950 . S
H346 C358 0.950 1_545 S
H347 C359 0.950 . S
C348 H340 0.950 . S
C348 C349 1.386 . S
C348 C350 1.391 . S
C349 C348 1.386 . S
C349 C353 1.393 . S
C350 H342 0.950 . S
C350 C348 1.391 . S
C350 C351 1.400 . S
C351 C350 1.400 . S
C351 C352 1.398 . S
C351 C357 1.491 . S
C352 H343 0.950 . S
C352 C351 1.398 . S
C352 C353 1.391 . S
C353 H341 0.950 . S
C353 C349 1.393 . S
C353 C352 1.391 . S
C354 H344 0.950 . S
C354 C355 1.386 . S
C354 C356 1.391 . S
C355 C354 1.386 . S
C355 C359 1.393 1_565 S
C356 H345 0.950 . S
C356 C354 1.391 . S
C356 C357 1.400 . S
C357 C351 1.491 . S
C357 C356 1.400 . S
C357 C358 1.398 . S
C358 H346 0.950 1_565 S
C358 C357 1.398 . S
C358 C359 1.391 1_565 S
C359 H347 0.950 . S
C359 C355 1.393 1_545 S
C359 C358 1.391 1_545 S
H360 C368 0.950 . S
H361 C373 0.950 . S
H362 C370 0.950 1_554 S
H363 C372 0.950 . S
H364 C374 0.950 . S
H365 C376 0.950 . S
H366 C378 0.950 . S
H367 C379 0.950 . S
C368 H360 0.950 . S
C368 C369 1.386 . S
C368 C370 1.391 . S
C369 C368 1.386 . S
C369 C373 1.393 . S
C370 H362 0.950 1_556 S
C370 C368 1.391 . S
C370 C371 1.400 . S
C371 C370 1.400 . S
C371 C372 1.398 . S
C371 C377 1.491 . S
C372 H363 0.950 . S
C372 C371 1.398 . S
C372 C373 1.391 . S
C373 H361 0.950 . S
C373 C369 1.393 . S
C373 C372 1.391 . S
C374 H364 0.950 . S
C374 C375 1.386 1_556 S
C374 C376 1.391 . S
C375 C374 1.386 1_554 S
C375 C379 1.393 . S
C376 H365 0.950 . S
C376 C374 1.391 . S
C376 C377 1.400 . S
C377 C371 1.491 . S
C377 C376 1.400 . S
C377 C378 1.398 1_556 S
C378 H366 0.950 . S
C378 C377 1.398 1_554 S
C378 C379 1.391 . S
C379 H367 0.950 . S
C379 C375 1.393 . S
C379 C378 1.391 . S
H380 C388 0.950 . S
H381 C393 0.950 . S
H382 C390 0.950 . S
H383 C392 0.950 . S
H384 C394 0.950 . S
H385 C396 0.950 . S
H386 C398 0.950 . S
H387 C399 0.950 . S
C388 H380 0.950 . S
C388 C389 1.386 . S
C388 C390 1.391 . S
C389 C388 1.386 . S
C389 C393 1.393 . S
C390 H382 0.950 . S
C390 C388 1.391 . S
C390 C391 1.400 . S
C391 C390 1.400 . S
C391 C392 1.398 . S
C391 C397 1.491 . S
C392 H383 0.950 . S
C392 C391 1.398 . S
C392 C393 1.391 . S
C393 H381 0.950 . S
C393 C389 1.393 . S
C393 C392 1.391 . S
C394 H384 0.950 . S
C394 C395 1.386 . S
C394 C396 1.391 . S
C395 C394 1.386 . S
C395 C399 1.393 . S
C396 H385 0.950 . S
C396 C394 1.391 . S
C396 C397 1.400 . S
C397 C391 1.491 . S
C397 C396 1.400 . S
C397 C398 1.398 . S
C398 H386 0.950 . S
C398 C397 1.398 . S
C398 C399 1.391 . S
C399 H387 0.950 . S
C399 C395 1.393 . S
C399 C398 1.391 . S
H400 C408 0.950 . S
H401 C413 0.950 . S
H402 C410 0.950 . S
H403 C412 0.950 . S
H404 C414 0.950 . S
H405 C416 0.950 . S
H406 C418 0.950 . S
H407 C419 0.950 . S
C408 H400 0.950 . S
C408 C409 1.386 . S
C408 C410 1.391 . S
C409 C408 1.386 . S
C409 C413 1.393 . S
C410 H402 0.950 . S
C410 C408 1.391 . S
C410 C411 1.400 . S
C411 C410 1.400 . S
C411 C412 1.398 . S
C411 C417 1.491 . S
C412 H403 0.950 . S
C412 C411 1.398 . S
C412 C413 1.391 . S
C413 H401 0.950 . S
C413 C409 1.393 . S
C413 C412 1.391 . S
C414 H404 0.950 . S
C414 C415 1.386 . S
C414 C416 1.391 . S
C415 C414 1.386 . S
C415 C419 1.393 . S
C416 H405 0.950 . S
C416 C414 1.391 . S
C416 C417 1.400 . S
C417 C411 1.491 . S
C417 C416 1.400 . S
C417 C418 1.398 . S
C418 H406 0.950 . S
C418 C417 1.398 . S
C418 C419 1.391 . S
C419 H407 0.950 . S
C419 C415 1.393 . S
C419 C418 1.391 . S
H420 C428 0.950 . S
H421 C433 0.950 . S
H422 C430 0.950 . S
H423 C432 0.950 . S
H424 C434 0.950 1_554 S
H425 C436 0.950 . S
H426 C438 0.950 . S
H427 C439 0.950 . S
C428 H420 0.950 . S
C428 C429 1.386 . S
C428 C430 1.391 . S
C429 C428 1.386 . S
C429 C433 1.393 . S
C430 H422 0.950 . S
C430 C428 1.391 . S
C430 C431 1.400 . S
C431 C430 1.400 . S
C431 C432 1.398 . S
C431 C437 1.491 . S
C432 H423 0.950 . S
C432 C431 1.398 . S
C432 C433 1.391 . S
C433 H421 0.950 . S
C433 C429 1.393 . S
C433 C432 1.391 . S
C434 H424 0.950 1_556 S
C434 C435 1.386 . S
C434 C436 1.391 . S
C435 C434 1.386 . S
C435 C439 1.393 . S
C436 H425 0.950 . S
C436 C434 1.391 . S
C436 C437 1.400 . S
C437 C431 1.491 . S
C437 C436 1.400 . S
C437 C438 1.398 . S
C438 H426 0.950 . S
C438 C437 1.398 . S
C438 C439 1.391 . S
C439 H427 0.950 . S
C439 C435 1.393 . S
C439 C438 1.391 . S
H440 C448 0.950 . S
H441 C453 0.950 . S
H442 C450 0.950 . S
H443 C452 0.950 . S
H444 C454 0.950 1_455 S
H445 C456 0.964 . S
H446 C458 0.950 . S
H447 C459 0.950 . S
C448 H440 0.950 . S
C448 C449 1.386 . S
C448 C450 1.391 . S
C449 C448 1.386 . S
C449 C453 1.393 . S
C450 H442 0.950 . S
C450 C448 1.391 . S
C450 C451 1.400 . S
C451 C450 1.400 . S
C451 C452 1.398 . S
C451 C457 1.491 . S
C452 H443 0.950 . S
C452 C451 1.398 . S
C452 C453 1.391 . S
C453 H441 0.950 . S
C453 C449 1.393 . S
C453 C452 1.391 . S
C454 H444 0.950 1_655 S
C454 C455 1.386 . S
C454 C456 1.391 . S
C455 C454 1.386 . S
C455 C459 1.393 . S
C456 H445 0.964 . S
C456 C454 1.391 . S
C456 C457 1.400 . S
C457 C451 1.491 . S
C457 C456 1.400 . S
C457 C458 1.398 . S
C458 H446 0.950 . S
C458 C457 1.398 . S
C458 C459 1.391 . S
C459 H447 0.950 . S
C459 C455 1.393 . S
C459 C458 1.391 . S
H460 C468 0.950 . S
H461 C473 0.950 . S
H462 C470 0.950 . S
H463 C472 0.950 . S
H464 C474 0.950 . S
H465 C476 0.950 . S
H466 C478 0.950 . S
H467 C479 0.950 . S
C468 H460 0.950 . S
C468 C469 1.386 . S
C468 C470 1.391 . S
C469 C468 1.386 . S
C469 C473 1.393 . S
C470 H462 0.950 . S
C470 C468 1.391 . S
C470 C471 1.400 . S
C471 C470 1.400 . S
C471 C472 1.398 . S
C471 C477 1.491 . S
C472 H463 0.950 . S
C472 C471 1.398 . S
C472 C473 1.391 . S
C473 H461 0.950 . S
C473 C469 1.393 . S
C473 C472 1.391 . S
C474 H464 0.950 . S
C474 C475 1.386 . S
C474 C476 1.391 . S
C475 C474 1.386 . S
C475 C479 1.393 . S
C476 H465 0.950 . S
C476 C474 1.391 . S
C476 C477 1.400 . S
C477 C471 1.491 . S
C477 C476 1.400 . S
C477 C478 1.398 . S
C478 H466 0.950 . S
C478 C477 1.398 . S
C478 C479 1.391 . S
C479 H467 0.950 . S
C479 C475 1.393 . S
C479 C478 1.391 . S
H480 C488 0.950 . S
H481 C493 0.950 1_455 S
H482 C490 0.950 . S
H483 C492 0.950 1_455 S
H484 C494 0.950 . S
H485 C496 0.950 . S
H486 C498 0.950 . S
H487 C499 0.950 1_545 S
C488 H480 0.950 . S
C488 C489 1.386 . S
C488 C490 1.391 . S
C489 C488 1.386 . S
C489 C493 1.393 . S
C490 H482 0.950 . S
C490 C488 1.391 . S
C490 C491 1.400 . S
C491 C490 1.400 . S
C491 C492 1.398 . S
C491 C497 1.491 . S
C492 H483 0.950 1_655 S
C492 C491 1.398 . S
C492 C493 1.391 . S
C493 H481 0.950 1_655 S
C493 C489 1.393 . S
C493 C492 1.391 . S
C494 H484 0.950 . S
C494 C495 1.386 1_455 S
C494 C496 1.391 . S
C495 C494 1.386 1_655 S
C495 C499 1.393 . S
C496 H485 0.950 . S
C496 C494 1.391 . S
C496 C497 1.400 1_455 S
C497 C491 1.491 . S
C497 C496 1.400 1_655 S
C497 C498 1.398 . S
C498 H486 0.950 . S
C498 C497 1.398 . S
C498 C499 1.391 . S
C499 H487 0.950 1_565 S
C499 C495 1.393 . S
C499 C498 1.391 . S
H500 C508 0.950 . S
H501 C513 0.950 . S
H502 C510 0.950 . S
H503 C512 0.950 . S
H504 C514 0.950 . S
H505 C516 0.950 . S
H506 C518 0.950 . S
H507 C519 0.950 . S
C508 H500 0.950 . S
C508 C509 1.386 . S
C508 C510 1.391 . S
C509 C508 1.386 . S
C509 C513 1.393 . S
C510 H502 0.950 . S
C510 C508 1.391 . S
C510 C511 1.400 . S
C511 C510 1.400 . S
C511 C512 1.398 . S
C511 C517 1.491 . S
C512 H503 0.950 . S
C512 C511 1.398 . S
C512 C513 1.391 . S
C513 H501 0.950 . S
C513 C509 1.393 . S
C513 C512 1.391 . S
C514 H504 0.950 . S
C514 C515 1.386 . S
C514 C516 1.391 . S
C515 C514 1.386 . S
C515 C519 1.393 . S
C516 H505 0.950 . S
C516 C514 1.391 . S
C516 C517 1.400 . S
C517 C511 1.491 . S
C517 C516 1.400 . S
C517 C518 1.398 . S
C518 H506 0.950 . S
C518 C517 1.398 . S
C518 C519 1.391 . S
C519 H507 0.950 . S
C519 C515 1.393 . S
C519 C518 1.391 . S
H520 C528 0.950 . S
H521 C533 0.950 . S
H522 C530 0.950 . S
H523 C532 0.950 . S
H524 C534 0.950 . S
H525 C536 0.950 . S
H526 C538 0.950 . S
H527 C539 0.950 . S
C528 H520 0.950 . S
C528 C529 1.386 . S
C528 C530 1.391 . S
C529 C528 1.386 . S
C529 C533 1.393 . S
C530 H522 0.950 . S
C530 C528 1.391 . S
C530 C531 1.400 . S
C531 C530 1.400 . S
C531 C532 1.398 . S
C531 C537 1.491 . S
C532 H523 0.950 . S
C532 C531 1.398 . S
C532 C533 1.391 . S
C533 H521 0.950 . S
C533 C529 1.393 . S
C533 C532 1.391 . S
C534 H524 0.950 . S
C534 C535 1.386 . S
C534 C536 1.391 . S
C535 C534 1.386 . S
C535 C539 1.393 . S
C536 H525 0.950 . S
C536 C534 1.391 . S
C536 C537 1.400 . S
C537 C531 1.491 . S
C537 C536 1.400 . S
C537 C538 1.398 . S
C538 H526 0.950 . S
C538 C537 1.398 . S
C538 C539 1.391 . S
C539 H527 0.950 . S
C539 C535 1.393 . S
C539 C538 1.391 . S
H540 C548 0.950 . S
H541 C553 0.950 . S
H542 C550 0.950 . S
H543 C552 0.950 . S
H544 C554 0.950 . S
H545 C556 0.950 . S
H546 C558 0.950 . S
H547 C559 0.950 . S
C548 H540 0.950 . S
C548 C549 1.386 . S
C548 C550 1.391 . S
C549 C548 1.386 . S
C549 C553 1.393 . S
C550 H542 0.950 . S
C550 C548 1.391 . S
C550 C551 1.400 . S
C551 C550 1.400 . S
C551 C552 1.398 . S
C551 C557 1.491 . S
C552 H543 0.950 . S
C552 C551 1.398 . S
C552 C553 1.391 . S
C553 H541 0.950 . S
C553 C549 1.393 . S
C553 C552 1.391 . S
C554 H544 0.950 . S
C554 C555 1.386 . S
C554 C556 1.391 . S
C555 C554 1.386 . S
C555 C559 1.393 . S
C556 H545 0.950 . S
C556 C554 1.391 . S
C556 C557 1.400 . S
C557 C551 1.491 . S
C557 C556 1.400 . S
C557 C558 1.398 . S
C558 H546 0.950 . S
C558 C557 1.398 . S
C558 C559 1.391 . S
C559 H547 0.950 . S
C559 C555 1.393 . S
C559 C558 1.391 . S
H560 C568 0.950 . S
H561 C573 0.950 . S
H562 C570 0.950 . S
H563 C572 0.950 . S
H564 C574 0.950 . S
H565 C576 0.950 . S
H566 C578 0.943 1_545 S
H567 C579 0.950 1_544 S
C568 H560 0.950 . S
C568 C569 1.386 . S
C568 C570 1.391 . S
C569 C568 1.386 . S
C569 C573 1.393 . S
C570 H562 0.950 . S
C570 C568 1.391 . S
C570 C571 1.400 . S
C571 C570 1.400 . S
C571 C572 1.398 . S
C571 C577 1.491 . S
C572 H563 0.950 . S
C572 C571 1.398 . S
C572 C573 1.391 . S
C573 H561 0.950 . S
C573 C569 1.393 . S
C573 C572 1.391 . S
C574 H564 0.950 . S
C574 C575 1.386 . S
C574 C576 1.391 . S
C575 C574 1.386 . S
C575 C579 1.393 . S
C576 H565 0.950 . S
C576 C574 1.391 . S
C576 C577 1.400 . S
C577 C571 1.491 . S
C577 C576 1.400 . S
C577 C578 1.398 . S
C578 H566 0.943 1_565 S
C578 C577 1.398 . S
C578 C579 1.391 . S
C579 H567 0.950 1_566 S
C579 C575 1.393 . S
C579 C578 1.391 . S
H580 C588 0.950 . S
H581 C593 0.950 . S
H582 C590 0.950 . S
H583 C592 0.950 . S
H584 C594 0.950 . S
H585 C596 0.950 . S
H586 C598 0.950 . S
H587 C599 0.950 . S
C588 H580 0.950 . S
C588 C589 1.386 . S
C588 C590 1.391 . S
C589 C588 1.386 . S
C589 C593 1.393 . S
C590 H582 0.950 . S
C590 C588 1.391 . S
C590 C591 1.400 . S
C591 C590 1.400 . S
C591 C592 1.398 . S
C591 C597 1.491 . S
C592 H583 0.950 . S
C592 C591 1.398 . S
C592 C593 1.391 . S
C593 H581 0.950 . S
C593 C589 1.393 . S
C593 C592 1.391 . S
C594 H584 0.950 . S
C594 C595 1.386 . S
C594 C596 1.391 . S
C595 C594 1.386 . S
C595 C599 1.393 . S
C596 H585 0.950 . S
C596 C594 1.391 . S
C596 C597 1.400 . S
C597 C591 1.491 . S
C597 C596 1.400 . S
C597 C598 1.398 . S
C598 H586 0.950 . S
C598 C597 1.398 . S
C598 C599 1.391 . S
C599 H587 0.950 . S
C599 C595 1.393 . S
C599 C598 1.391 . S
H600 C608 0.950 . S
H601 C613 0.950 . S
H602 C610 0.950 . S
H603 C612 0.950 . S
H604 C614 0.950 . S
H605 C616 0.950 . S
H606 C618 0.950 . S
H607 C619 0.950 . S
C608 H600 0.950 . S
C608 C609 1.386 . S
C608 C610 1.391 . S
C609 C608 1.386 . S
C609 C613 1.393 . S
C610 H602 0.950 . S
C610 C608 1.391 . S
C610 C611 1.400 . S
C611 C610 1.400 . S
C611 C612 1.398 . S
C611 C617 1.491 . S
C612 H603 0.950 . S
C612 C611 1.398 . S
C612 C613 1.391 . S
C613 H601 0.950 . S
C613 C609 1.393 . S
C613 C612 1.391 . S
C614 H604 0.950 . S
C614 C615 1.386 . S
C614 C616 1.391 . S
C615 C614 1.386 . S
C615 C619 1.393 . S
C616 H605 0.950 . S
C616 C614 1.391 . S
C616 C617 1.400 . S
C617 C611 1.491 . S
C617 C616 1.400 . S
C617 C618 1.398 . S
C618 H606 0.950 . S
C618 C617 1.398 . S
C618 C619 1.391 . S
C619 H607 0.950 . S
C619 C615 1.393 . S
C619 C618 1.391 . S
H620 C628 0.950 . S
H621 C633 0.950 . S
H622 C630 0.950 . S
H623 C632 0.950 . S
H624 C634 0.950 . S
H625 C636 0.950 . S
H626 C638 0.950 . S
H627 C639 0.950 . S
C628 H620 0.950 . S
C628 C629 1.386 . S
C628 C630 1.391 . S
C629 C628 1.386 . S
C629 C633 1.393 . S
C630 H622 0.950 . S
C630 C628 1.391 . S
C630 C631 1.400 . S
C631 C630 1.400 . S
C631 C632 1.398 . S
C631 C637 1.491 . S
C632 H623 0.950 . S
C632 C631 1.398 . S
C632 C633 1.391 . S
C633 H621 0.950 . S
C633 C629 1.393 . S
C633 C632 1.391 . S
C634 H624 0.950 . S
C634 C635 1.386 . S
C634 C636 1.391 . S
C635 C634 1.386 . S
C635 C639 1.393 . S
C636 H625 0.950 . S
C636 C634 1.391 . S
C636 C637 1.400 . S
C637 C631 1.491 . S
C637 C636 1.400 . S
C637 C638 1.398 . S
C638 H626 0.950 . S
C638 C637 1.398 . S
C638 C639 1.391 . S
C639 H627 0.950 . S
C639 C635 1.393 . S
C639 C638 1.391 . S
H640 C648 0.950 . S
H641 C653 0.950 . S
H642 C650 0.950 . S
H643 C652 0.950 . S
H644 C654 0.950 . S
H645 C656 0.950 . S
H646 C658 0.950 . S
H647 C659 0.950 . S
C648 H640 0.950 . S
C648 C649 1.386 . S
C648 C650 1.391 . S
C649 C648 1.386 . S
C649 C653 1.393 1_655 S
C650 H642 0.950 . S
C650 C648 1.391 . S
C650 C651 1.400 . S
C651 C650 1.400 . S
C651 C652 1.398 1_655 S
C651 C657 1.488 1_655 S
C652 H643 0.950 . S
C652 C651 1.398 1_455 S
C652 C653 1.391 . S
C653 H641 0.950 . S
C653 C649 1.393 1_455 S
C653 C652 1.391 . S
C654 H644 0.950 . S
C654 C655 1.384 1_554 S
C654 C656 1.391 1_554 S
C655 C654 1.384 1_556 S
C655 C659 1.403 1_455 S
C656 H645 0.950 . S
C656 C654 1.391 1_556 S
C656 C657 1.409 . S
C657 C651 1.488 1_455 S
C657 C656 1.409 . S
C657 C658 1.392 1_455 S
C658 H646 0.950 . S
C658 C657 1.392 1_655 S
C658 C659 1.391 . S
C659 H647 0.950 . S
C659 C655 1.403 1_655 S
C659 C658 1.391 . S
H660 C668 0.950 . S
H661 C673 0.950 . S
H662 C670 0.950 . S
H663 C672 0.950 . S
H664 C674 0.950 . S
H665 C676 0.950 . S
H666 C678 0.950 . S
H667 C679 0.950 . S
C668 H660 0.950 . S
C668 C669 1.386 . S
C668 C670 1.391 . S
C669 C668 1.386 . S
C669 C673 1.393 . S
C670 H662 0.950 . S
C670 C668 1.391 . S
C670 C671 1.400 . S
C671 C670 1.400 . S
C671 C672 1.398 . S
C671 C677 1.491 . S
C672 H663 0.950 . S
C672 C671 1.398 . S
C672 C673 1.391 . S
C673 H661 0.950 . S
C673 C669 1.393 . S
C673 C672 1.391 . S
C674 H664 0.950 . S
C674 C675 1.386 . S
C674 C676 1.391 . S
C675 C674 1.386 . S
C675 C679 1.393 . S
C676 H665 0.950 . S
C676 C674 1.391 . S
C676 C677 1.400 . S
C677 C671 1.491 . S
C677 C676 1.400 . S
C677 C678 1.398 . S
C678 H666 0.950 . S
C678 C677 1.398 . S
C678 C679 1.391 . S
C679 H667 0.950 . S
C679 C675 1.393 . S
C679 C678 1.391 . S
H680 C688 0.950 . S
H681 C693 0.950 . S
H682 C690 0.950 . S
H683 C692 0.950 . S
H684 C694 0.950 . S
H685 C696 0.950 . S
H686 C698 0.950 . S
H687 C699 0.950 . S
C688 H680 0.950 . S
C688 C689 1.386 . S
C688 C690 1.391 . S
C689 C688 1.386 . S
C689 C693 1.393 . S
C690 H682 0.950 . S
C690 C688 1.391 . S
C690 C691 1.400 . S
C691 C690 1.400 . S
C691 C692 1.398 . S
C691 C697 1.491 . S
C692 H683 0.950 . S
C692 C691 1.398 . S
C692 C693 1.391 . S
C693 H681 0.950 . S
C693 C689 1.393 . S
C693 C692 1.391 . S
C694 H684 0.950 . S
C694 C695 1.386 . S
C694 C696 1.391 . S
C695 C694 1.386 . S
C695 C699 1.393 . S
C696 H685 0.950 . S
C696 C694 1.391 . S
C696 C697 1.400 . S
C697 C691 1.491 . S
C697 C696 1.400 . S
C697 C698 1.398 . S
C698 H686 0.950 . S
C698 C697 1.398 . S
C698 C699 1.391 . S
C699 H687 0.950 . S
C699 C695 1.393 . S
C699 C698 1.391 . S
H700 C708 0.950 . S
H701 C713 0.950 . S
H702 C710 0.950 . S
H703 C712 0.950 . S
H704 C714 0.950 . S
H705 C716 0.950 . S
H706 C718 0.950 . S
H707 C719 0.950 . S
C708 H700 0.950 . S
C708 C709 1.386 . S
C708 C710 1.391 . S
C709 C708 1.386 . S
C709 C713 1.393 . S
C710 H702 0.950 . S
C710 C708 1.391 . S
C710 C711 1.400 . S
C711 C710 1.400 . S
C711 C712 1.398 . S
C711 C717 1.491 . S
C712 H703 0.950 . S
C712 C711 1.398 . S
C712 C713 1.391 . S
C713 H701 0.950 . S
C713 C709 1.393 . S
C713 C712 1.391 . S
C714 H704 0.950 . S
C714 C715 1.386 . S
C714 C716 1.391 . S
C715 C714 1.386 . S
C715 C719 1.393 . S
C716 H705 0.950 . S
C716 C714 1.391 . S
C716 C717 1.400 . S
C717 C711 1.491 . S
C717 C716 1.400 . S
C717 C718 1.398 . S
C718 H706 0.950 . S
C718 C717 1.398 . S
C718 C719 1.391 . S
C719 H707 0.950 . S
C719 C715 1.393 . S
C719 C718 1.391 . S
C249 C9 2.755 . S
C255 C104 2.768 . S
C269 C21 2.237 . S
C275 C146 2.237 1_565 S
C295 C176 0.737 . S
C289 C30 0.739 . S
C309 C43 0.765 . S
C315 C210 0.801 . S
C335 C167 1.764 . S
C329 C4 1.740 . S
C355 C121 2.334 1_565 S
C349 C22 2.327 . S
C375 C214 0.960 . S
C369 C34 0.952 . S
C395 C180 1.165 . S
C389 C48 1.154 . S
C409 C8 2.284 . S
C415 C235 2.293 . S
C435 C142 1.166 . S
C429 C35 1.161 . S
C449 C47 1.153 . S
C455 C117 1.162 . S
C469 C17 1.921 . S
C475 C201 1.957 . S
C495 C133 2.338 1_665 S
C489 C60 2.330 . S
C509 C74 2.557 . S
C515 C155 2.569 . S
C529 C82 0.606 . S
C535 C185 0.613 . S
C549 C100 1.270 . S
C555 C219 1.282 . S
C569 C61 2.158 . S
C575 C138 2.177 1_556 S
C595 C112 1.939 . S
C589 C73 1.927 . S
C615 C223 1.442 . S
C609 C87 1.436 . S
C635 C189 0.849 . S
C629 C95 0.799 . S
C649 C56 2.208 . S
C655 C206 2.308 1_556 S
C675 C151 1.201 . S
C669 C86 1.190 . S
C695 C108 1.056 . S
C689 C99 1.046 . S
C709 C69 2.062 . S
C715 C172 2.076 . S
