# Generated by pormake.
# Topology bwt, (3,3)-cn, num edge types: 1
# Building blocks:
#     Node 0, Type 0, BuildingBlock: WUSLED_clean_sbu_0, # of connection points: 3
#     Node 1, Type 0, BuildingBlock: WUSLED_clean_sbu_0, # of connection points: 3
#     Node 2, Type 0, BuildingBlock: WUSLED_clean_sbu_0, # of connection points: 3
#     Node 3, Type 0, BuildingBlock: WUSLED_clean_sbu_0, # of connection points: 3
#     Node 4, Type 0, BuildingBlock: WUSLED_clean_sbu_0, # of connection points: 3
#     Node 5, Type 0, BuildingBlock: WUSLED_clean_sbu_0, # of connection points: 3
#     Node 6, Type 0, BuildingBlock: WUSLED_clean_sbu_0, # of connection points: 3
#     Node 7, Type 0, BuildingBlock: WUSLED_clean_sbu_0, # of connection points: 3
#     Node 8, Type 0, BuildingBlock: WUSLED_clean_sbu_0, # of connection points: 3
#     Node 9, Type 0, BuildingBlock: WUSLED_clean_sbu_0, # of connection points: 3
#     Node 10, Type 0, BuildingBlock: WUSLED_clean_sbu_0, # of connection points: 3
#     Node 11, Type 0, BuildingBlock: WUSLED_clean_sbu_0, # of connection points: 3
#     Node 12, Type 0, BuildingBlock: WUSLED_clean_sbu_0, # of connection points: 3
#     Node 13, Type 0, BuildingBlock: WUSLED_clean_sbu_0, # of connection points: 3
#     Node 14, Type 0, BuildingBlock: WUSLED_clean_sbu_0, # of connection points: 3
#     Node 15, Type 0, BuildingBlock: WUSLED_clean_sbu_0, # of connection points: 3
#     Node 16, Type 0, BuildingBlock: WUSLED_clean_sbu_0, # of connection points: 3
#     Node 17, Type 0, BuildingBlock: WUSLED_clean_sbu_0, # of connection points: 3
#     Node 18, Type 0, BuildingBlock: WUSLED_clean_sbu_0, # of connection points: 3
#     Node 19, Type 0, BuildingBlock: WUSLED_clean_sbu_0, # of connection points: 3
#     Node 20, Type 0, BuildingBlock: WUSLED_clean_sbu_0, # of connection points: 3
#     Node 21, Type 0, BuildingBlock: WUSLED_clean_sbu_0, # of connection points: 3
#     Node 22, Type 0, BuildingBlock: WUSLED_clean_sbu_0, # of connection points: 3
#     Node 23, Type 0, BuildingBlock: WUSLED_clean_sbu_0, # of connection points: 3
#     Node 24, Type 1, BuildingBlock: BELTOD_clean_linker_0, # of connection points: 3
#     Node 25, Type 1, BuildingBlock: BELTOD_clean_linker_0, # of connection points: 3
#     Node 26, Type 1, BuildingBlock: BELTOD_clean_linker_0, # of connection points: 3
#     Node 27, Type 1, BuildingBlock: BELTOD_clean_linker_0, # of connection points: 3
#     Node 28, Type 1, BuildingBlock: BELTOD_clean_linker_0, # of connection points: 3
#     Node 29, Type 1, BuildingBlock: BELTOD_clean_linker_0, # of connection points: 3
#     Node 30, Type 1, BuildingBlock: BELTOD_clean_linker_0, # of connection points: 3
#     Node 31, Type 1, BuildingBlock: BELTOD_clean_linker_0, # of connection points: 3
#     Node 32, Type 1, BuildingBlock: BELTOD_clean_linker_0, # of connection points: 3
#     Node 33, Type 1, BuildingBlock: BELTOD_clean_linker_0, # of connection points: 3
#     Node 34, Type 1, BuildingBlock: BELTOD_clean_linker_0, # of connection points: 3
#     Node 35, Type 1, BuildingBlock: BELTOD_clean_linker_0, # of connection points: 3
#     Node 36, Type 1, BuildingBlock: BELTOD_clean_linker_0, # of connection points: 3
#     Node 37, Type 1, BuildingBlock: BELTOD_clean_linker_0, # of connection points: 3
#     Node 38, Type 1, BuildingBlock: BELTOD_clean_linker_0, # of connection points: 3
#     Node 39, Type 1, BuildingBlock: BELTOD_clean_linker_0, # of connection points: 3
#     Node 40, Type 1, BuildingBlock: BELTOD_clean_linker_0, # of connection points: 3
#     Node 41, Type 1, BuildingBlock: BELTOD_clean_linker_0, # of connection points: 3
#     Node 42, Type 1, BuildingBlock: BELTOD_clean_linker_0, # of connection points: 3
#     Node 43, Type 1, BuildingBlock: BELTOD_clean_linker_0, # of connection points: 3
#     Node 44, Type 1, BuildingBlock: BELTOD_clean_linker_0, # of connection points: 3
#     Node 45, Type 1, BuildingBlock: BELTOD_clean_linker_0, # of connection points: 3
#     Node 46, Type 1, BuildingBlock: BELTOD_clean_linker_0, # of connection points: 3
#     Node 47, Type 1, BuildingBlock: BELTOD_clean_linker_0, # of connection points: 3
#     Edge 48, Type (0, 1), BuildingBlock: XIVTED_clean_linker_0, # of connection points: 2
#     Edge 49, Type (0, 1), BuildingBlock: XIVTED_clean_linker_0, # of connection points: 2
#     Edge 50, Type (0, 1), BuildingBlock: XIVTED_clean_linker_0, # of connection points: 2
#     Edge 51, Type (0, 1), BuildingBlock: XIVTED_clean_linker_0, # of connection points: 2
#     Edge 52, Type (0, 1), BuildingBlock: XIVTED_clean_linker_0, # of connection points: 2
#     Edge 53, Type (0, 1), BuildingBlock: XIVTED_clean_linker_0, # of connection points: 2
#     Edge 54, Type (0, 1), BuildingBlock: XIVTED_clean_linker_0, # of connection points: 2
#     Edge 55, Type (0, 1), BuildingBlock: XIVTED_clean_linker_0, # of connection points: 2
#     Edge 56, Type (0, 1), BuildingBlock: XIVTED_clean_linker_0, # of connection points: 2
#     Edge 57, Type (0, 1), BuildingBlock: XIVTED_clean_linker_0, # of connection points: 2
#     Edge 58, Type (0, 1), BuildingBlock: XIVTED_clean_linker_0, # of connection points: 2
#     Edge 59, Type (0, 1), BuildingBlock: XIVTED_clean_linker_0, # of connection points: 2
#     Edge 60, Type (0, 1), BuildingBlock: XIVTED_clean_linker_0, # of connection points: 2
#     Edge 61, Type (0, 1), BuildingBlock: XIVTED_clean_linker_0, # of connection points: 2
#     Edge 62, Type (0, 1), BuildingBlock: XIVTED_clean_linker_0, # of connection points: 2
#     Edge 63, Type (0, 1), BuildingBlock: XIVTED_clean_linker_0, # of connection points: 2
#     Edge 64, Type (0, 1), BuildingBlock: XIVTED_clean_linker_0, # of connection points: 2
#     Edge 65, Type (0, 1), BuildingBlock: XIVTED_clean_linker_0, # of connection points: 2
#     Edge 66, Type (0, 1), BuildingBlock: XIVTED_clean_linker_0, # of connection points: 2
#     Edge 67, Type (0, 1), BuildingBlock: XIVTED_clean_linker_0, # of connection points: 2
#     Edge 68, Type (0, 1), BuildingBlock: XIVTED_clean_linker_0, # of connection points: 2
#     Edge 69, Type (0, 1), BuildingBlock: XIVTED_clean_linker_0, # of connection points: 2
#     Edge 70, Type (0, 1), BuildingBlock: XIVTED_clean_linker_0, # of connection points: 2
#     Edge 71, Type (0, 1), BuildingBlock: XIVTED_clean_linker_0, # of connection points: 2
#     Edge 72, Type (0, 1), BuildingBlock: XIVTED_clean_linker_0, # of connection points: 2
#     Edge 73, Type (0, 1), BuildingBlock: XIVTED_clean_linker_0, # of connection points: 2
#     Edge 74, Type (0, 1), BuildingBlock: XIVTED_clean_linker_0, # of connection points: 2
#     Edge 75, Type (0, 1), BuildingBlock: XIVTED_clean_linker_0, # of connection points: 2
#     Edge 76, Type (0, 1), BuildingBlock: XIVTED_clean_linker_0, # of connection points: 2
#     Edge 77, Type (0, 1), BuildingBlock: XIVTED_clean_linker_0, # of connection points: 2
#     Edge 78, Type (0, 1), BuildingBlock: XIVTED_clean_linker_0, # of connection points: 2
#     Edge 79, Type (0, 1), BuildingBlock: XIVTED_clean_linker_0, # of connection points: 2
#     Edge 80, Type (0, 1), BuildingBlock: XIVTED_clean_linker_0, # of connection points: 2
#     Edge 81, Type (0, 1), BuildingBlock: XIVTED_clean_linker_0, # of connection points: 2
#     Edge 82, Type (0, 1), BuildingBlock: XIVTED_clean_linker_0, # of connection points: 2
#     Edge 83, Type (0, 1), BuildingBlock: XIVTED_clean_linker_0, # of connection points: 2
#     Edge 84, Type (0, 1), BuildingBlock: XIVTED_clean_linker_0, # of connection points: 2
#     Edge 85, Type (0, 1), BuildingBlock: XIVTED_clean_linker_0, # of connection points: 2
#     Edge 86, Type (0, 1), BuildingBlock: XIVTED_clean_linker_0, # of connection points: 2
#     Edge 87, Type (0, 1), BuildingBlock: XIVTED_clean_linker_0, # of connection points: 2
#     Edge 88, Type (0, 1), BuildingBlock: XIVTED_clean_linker_0, # of connection points: 2
#     Edge 89, Type (0, 1), BuildingBlock: XIVTED_clean_linker_0, # of connection points: 2
#     Edge 90, Type (0, 1), BuildingBlock: XIVTED_clean_linker_0, # of connection points: 2
#     Edge 91, Type (0, 1), BuildingBlock: XIVTED_clean_linker_0, # of connection points: 2
#     Edge 92, Type (0, 1), BuildingBlock: XIVTED_clean_linker_0, # of connection points: 2
#     Edge 93, Type (0, 1), BuildingBlock: XIVTED_clean_linker_0, # of connection points: 2
#     Edge 94, Type (0, 1), BuildingBlock: XIVTED_clean_linker_0, # of connection points: 2
#     Edge 95, Type (0, 1), BuildingBlock: XIVTED_clean_linker_0, # of connection points: 2
#     Edge 96, Type (0, 1), BuildingBlock: XIVTED_clean_linker_0, # of connection points: 2
#     Edge 97, Type (0, 1), BuildingBlock: XIVTED_clean_linker_0, # of connection points: 2
#     Edge 98, Type (0, 1), BuildingBlock: XIVTED_clean_linker_0, # of connection points: 2
#     Edge 99, Type (0, 1), BuildingBlock: XIVTED_clean_linker_0, # of connection points: 2
#     Edge 100, Type (0, 1), BuildingBlock: XIVTED_clean_linker_0, # of connection points: 2
#     Edge 101, Type (0, 1), BuildingBlock: XIVTED_clean_linker_0, # of connection points: 2
#     Edge 102, Type (0, 1), BuildingBlock: XIVTED_clean_linker_0, # of connection points: 2
#     Edge 103, Type (0, 1), BuildingBlock: XIVTED_clean_linker_0, # of connection points: 2
#     Edge 104, Type (0, 1), BuildingBlock: XIVTED_clean_linker_0, # of connection points: 2
#     Edge 105, Type (0, 1), BuildingBlock: XIVTED_clean_linker_0, # of connection points: 2
#     Edge 106, Type (0, 1), BuildingBlock: XIVTED_clean_linker_0, # of connection points: 2
#     Edge 107, Type (0, 1), BuildingBlock: XIVTED_clean_linker_0, # of connection points: 2
#     Edge 108, Type (0, 1), BuildingBlock: XIVTED_clean_linker_0, # of connection points: 2
#     Edge 109, Type (0, 1), BuildingBlock: XIVTED_clean_linker_0, # of connection points: 2
#     Edge 110, Type (0, 1), BuildingBlock: XIVTED_clean_linker_0, # of connection points: 2
#     Edge 111, Type (0, 1), BuildingBlock: XIVTED_clean_linker_0, # of connection points: 2
#     Edge 112, Type (0, 1), BuildingBlock: XIVTED_clean_linker_0, # of connection points: 2
#     Edge 113, Type (0, 1), BuildingBlock: XIVTED_clean_linker_0, # of connection points: 2
#     Edge 114, Type (0, 1), BuildingBlock: XIVTED_clean_linker_0, # of connection points: 2
#     Edge 115, Type (0, 1), BuildingBlock: XIVTED_clean_linker_0, # of connection points: 2
#     Edge 116, Type (0, 1), BuildingBlock: XIVTED_clean_linker_0, # of connection points: 2
#     Edge 117, Type (0, 1), BuildingBlock: XIVTED_clean_linker_0, # of connection points: 2
#     Edge 118, Type (0, 1), BuildingBlock: XIVTED_clean_linker_0, # of connection points: 2
#     Edge 119, Type (0, 1), BuildingBlock: XIVTED_clean_linker_0, # of connection points: 2
# Relax obj value: 0.216
# Max RMSD: 0.252
# Mean RMSD: 0.134
data_MOF--net-bwt--node1-WUSLED_clean_sbu_0--node2-BELTOD_clean_linker_0--edge1-XIVTED_clean_linker_0
_symmetry_space_group_name_H-M    P1
_symmetry_Int_Tables_number       1
_symmetry_cell_setting            triclinic
loop_
_symmetry_equiv_pos_as_xyz
'x, y, z'
_cell_length_a     75.554672
_cell_length_b     75.53048
_cell_length_c     75.527835
_cell_angle_alpha  91.31107
_cell_angle_beta   91.30719
_cell_angle_gamma 91.322093
loop_
_atom_site_label
_atom_site_type_symbol
_atom_site_fract_x
_atom_site_fract_y
_atom_site_fract_z
_atom_type_partial_charge
C0 C 0.31281 0.66792 0.35241 0.0
C1 C 0.32518 0.66585 0.36633 0.0
C2 C 0.34922 0.66358 0.34514 0.0
C3 C 0.34321 0.66373 0.36272 0.0
C4 C 0.3367 0.66591 0.33135 0.0
C5 C 0.31877 0.66804 0.33496 0.0
U6 U 0.26899 0.66202 0.37842 0.0
O7 O 0.24621 0.67996 0.37948 0.0
O8 O 0.24305 0.65335 0.36645 0.0
C9 C 0.23581 0.6685 0.37067 0.0
C10 C 0.29359 0.66957 0.35535 0.0
C11 C 0.21703 0.67217 0.3663 0.0
C12 C 0.194 0.67935 0.34465 0.0
C13 C 0.21158 0.67507 0.34874 0.0
C14 C 0.18685 0.67747 0.3756 0.0
C15 C 0.18131 0.68068 0.35801 0.0
C16 C 0.20451 0.67338 0.37969 0.0
C17 C 0.27804 0.63927 0.42558 0.0
C18 C 0.26246 0.63122 0.4523 0.0
C19 C 0.29283 0.62262 0.44855 0.0
C20 C 0.29307 0.63092 0.43224 0.0
C21 C 0.27749 0.6224 0.45873 0.0
C22 C 0.2627 0.63955 0.43576 0.0
C23 C 0.27945 0.64742 0.40803 0.0
O24 O 0.28426 0.65469 0.355 0.0
O25 O 0.28871 0.68078 0.36778 0.0
O26 O 0.27762 0.6646 0.40656 0.0
O27 O 0.2746 0.63814 0.39373 0.0
H28 H 0.32091 0.66575 0.37992 0.0
H29 H 0.35243 0.66222 0.37374 0.0
H30 H 0.34064 0.66562 0.31766 0.0
H31 H 0.30945 0.66956 0.32401 0.0
H32 H 0.19047 0.68198 0.331 0.0
H33 H 0.22104 0.67436 0.3382 0.0
H34 H 0.17751 0.67802 0.38625 0.0
H35 H 0.20839 0.67112 0.39334 0.0
H36 H 0.25043 0.63131 0.45983 0.0
H37 H 0.30475 0.61634 0.45321 0.0
H38 H 0.30511 0.63073 0.42472 0.0
H39 H 0.25097 0.64603 0.43091 0.0
C40 C 0.20005 0.25644 0.77638 0.0
C41 C 0.18837 0.25741 0.79054 0.0
C42 C 0.16319 0.25906 0.76978 0.0
C43 C 0.1701 0.25858 0.78727 0.0
C44 C 0.1749 0.25691 0.7557 0.0
C45 C 0.19313 0.25564 0.759 0.0
U46 U 0.24005 0.27189 0.805 0.0
O47 O 0.26263 0.28884 0.79785 0.0
O48 O 0.26726 0.26205 0.80755 0.0
C49 C 0.27431 0.27682 0.80169 0.0
C50 C 0.21937 0.25858 0.77932 0.0
C51 C 0.28946 0.27546 0.78992 0.0
C52 C 0.30261 0.27362 0.7608 0.0
C53 C 0.28761 0.27276 0.77148 0.0
C54 C 0.32116 0.2794 0.78699 0.0
C55 C 0.31954 0.27709 0.76849 0.0
C56 C 0.30631 0.27858 0.79752 0.0
C57 C 0.23207 0.29273 0.85085 0.0
C58 C 0.2546 0.31 0.86767 0.0
C59 C 0.22406 0.31003 0.87677 0.0
C60 C 0.21937 0.29825 0.86286 0.0
C61 C 0.24158 0.31647 0.87899 0.0
C62 C 0.24984 0.29827 0.85356 0.0
C63 C 0.22603 0.28302 0.83462 0.0
O64 O 0.2251 0.27513 0.78006 0.0
O65 O 0.22673 0.2488 0.79154 0.0
O66 O 0.23178 0.26686 0.8323 0.0
O67 O 0.2264 0.29235 0.82017 0.0
H68 H 0.19343 0.25806 0.80409 0.0
H69 H 0.16147 0.25983 0.79846 0.0
H70 H 0.17019 0.25738 0.74208 0.0
H71 H 0.20194 0.25497 0.74789 0.0
H72 H 0.30097 0.2718 0.74659 0.0
H73 H 0.27463 0.27043 0.76538 0.0
H74 H 0.33388 0.28254 0.79333 0.0
H75 H 0.30796 0.28096 0.81168 0.0
H76 H 0.26819 0.31481 0.86908 0.0
H77 H 0.21382 0.31468 0.88543 0.0
H78 H 0.20562 0.29409 0.86099 0.0
H79 H 0.25983 0.29418 0.84436 0.0
C80 C 0.79644 0.00344 0.61385 0.0
C81 C 0.80823 0.00233 0.59979 0.0
C82 C 0.83277 0.00805 0.62033 0.0
C83 C 0.82634 0.00463 0.603 0.0
C84 C 0.82088 0.00915 0.63434 0.0
C85 C 0.80276 0.00685 0.6311 0.0
U86 U 0.76171 0.9927 0.58022 0.0
O87 O 0.73721 0.97665 0.57967 0.0
O88 O 0.73618 0.00522 0.57474 0.0
C89 C 0.72723 0.99059 0.57804 0.0
C90 C 0.77757 0.00112 0.61023 0.0
C91 C 0.71367 0.99225 0.59144 0.0
C92 C 0.70366 0.98652 0.6211 0.0
C93 C 0.71731 0.9876 0.60904 0.0
C94 C 0.68301 0.99641 0.59854 0.0
C95 C 0.68626 0.99019 0.6157 0.0
C96 C 0.69664 0.99735 0.58645 0.0
C97 C 0.77428 0.98188 0.53433 0.0
C98 C 0.74886 0.97598 0.51498 0.0
C99 C 0.77656 0.98647 0.50288 0.0
C100 C 0.78446 0.9864 0.51978 0.0
C101 C 0.75842 0.98215 0.50056 0.0
C102 C 0.7567 0.97593 0.53174 0.0
C103 C 0.78051 0.98644 0.55228 0.0
O104 O 0.7711 0.013 0.59958 0.0
O105 O 0.77251 0.98477 0.60599 0.0
O106 O 0.77707 0.97433 0.56404 0.0
O107 O 0.77633 0.0025 0.5575 0.0
H108 H 0.80339 0.9997 0.58634 0.0
H109 H 0.83527 0.0038 0.59201 0.0
H110 H 0.82561 0.01144 0.64787 0.0
H111 H 0.79374 0.00766 0.64202 0.0
H112 H 0.70653 0.98173 0.63424 0.0
H113 H 0.73053 0.98394 0.6132 0.0
H114 H 0.66975 0.99974 0.59423 0.0
H115 H 0.69373 0.00131 0.57302 0.0
H116 H 0.73481 0.97284 0.51375 0.0
H117 H 0.78424 0.99113 0.4919 0.0
H118 H 0.79805 0.99108 0.52166 0.0
H119 H 0.74859 0.97262 0.5429 0.0
C120 C 0.67416 0.98401 0.30702 0.0
C121 C 0.66387 0.98887 0.29229 0.0
C122 C 0.63977 0.99637 0.31168 0.0
C123 C 0.64675 0.99502 0.29462 0.0
C124 C 0.65012 0.9917 0.32634 0.0
C125 C 0.66721 0.98575 0.32402 0.0
U126 U 0.71828 0.992 0.28574 0.0
O127 O 0.74357 0.99795 0.2992 0.0
O128 O 0.74182 0.97564 0.27955 0.0
C129 C 0.75172 0.98524 0.29092 0.0
C130 C 0.69285 0.97951 0.30531 0.0
C131 C 0.77041 0.9818 0.29562 0.0
C132 C 0.79492 0.98349 0.31727 0.0
C133 C 0.77685 0.9848 0.31307 0.0
C134 C 0.80035 0.97572 0.28664 0.0
C135 C 0.80693 0.97896 0.30407 0.0
C136 C 0.78229 0.97708 0.28248 0.0
C137 C 0.71948 0.02434 0.24849 0.0
C138 C 0.74328 0.01999 0.22808 0.0
C139 C 0.71593 0.03319 0.21818 0.0
C140 C 0.70957 0.03257 0.23531 0.0
C141 C 0.73217 0.02554 0.2143 0.0
C142 C 0.73696 0.01947 0.24527 0.0
C143 C 0.70987 0.01566 0.26246 0.0
O144 O 0.70363 0.99251 0.31016 0.0
O145 O 0.69767 0.97142 0.29063 0.0
O146 O 0.71466 0.01993 0.27883 0.0
O147 O 0.70787 0.9985 0.25957 0.0
H148 H 0.66913 0.98818 0.27908 0.0
H149 H 0.63887 0.99851 0.2831 0.0
H150 H 0.64505 0.99285 0.33962 0.0
H151 H 0.67503 0.9829 0.33562 0.0
H152 H 0.79943 0.98584 0.33085 0.0
H153 H 0.76788 0.98815 0.32347 0.0
H154 H 0.80924 0.9725 0.27605 0.0
H155 H 0.77771 0.97496 0.26888 0.0
H156 H 0.75578 0.01391 0.22521 0.0
H157 H 0.70716 0.03739 0.2076 0.0
H158 H 0.69603 0.0363 0.23764 0.0
H159 H 0.74471 0.01301 0.25539 0.0
C160 C 0.35112 0.31319 0.66593 0.0
C161 C 0.36503 0.32556 0.6638 0.0
C162 C 0.34392 0.34973 0.66246 0.0
C163 C 0.36146 0.34365 0.66207 0.0
C164 C 0.33014 0.3372 0.6648 0.0
C165 C 0.33372 0.31921 0.6665 0.0
U166 U 0.37725 0.26907 0.66176 0.0
O167 O 0.37686 0.2472 0.68086 0.0
O168 O 0.36608 0.2427 0.65347 0.0
C169 C 0.36901 0.23621 0.66923 0.0
C170 C 0.35405 0.29398 0.66775 0.0
C171 C 0.36439 0.21759 0.67343 0.0
C172 C 0.34606 0.19592 0.68861 0.0
C173 C 0.35075 0.2136 0.68513 0.0
C174 C 0.36879 0.18594 0.66897 0.0
C175 C 0.35506 0.18172 0.68068 0.0
C176 C 0.37325 0.20361 0.66529 0.0
C177 C 0.42525 0.27783 0.64018 0.0
C178 C 0.45085 0.26214 0.62923 0.0
C179 C 0.44987 0.29403 0.62738 0.0
C180 C 0.43334 0.29379 0.63528 0.0
C181 C 0.45897 0.27826 0.62422 0.0
C182 C 0.4341 0.26192 0.63715 0.0
C183 C 0.4074 0.27879 0.64778 0.0
O184 O 0.35426 0.28441 0.65302 0.0
O185 O 0.36606 0.28929 0.67949 0.0
O186 O 0.40536 0.27776 0.66497 0.0
O187 O 0.39344 0.27349 0.6382 0.0
H188 H 0.3786 0.32125 0.66345 0.0
H189 H 0.37246 0.35288 0.66052 0.0
H190 H 0.31648 0.34121 0.66492 0.0
H191 H 0.32278 0.3099 0.66816 0.0
H192 H 0.33519 0.19344 0.69737 0.0
H193 H 0.34353 0.22418 0.69139 0.0
H194 H 0.37639 0.17564 0.66278 0.0
H195 H 0.38378 0.20636 0.65618 0.0
H196 H 0.45747 0.24973 0.62714 0.0
H197 H 0.45531 0.30668 0.6234 0.0
H198 H 0.4267 0.30622 0.63735 0.0
H199 H 0.42808 0.24942 0.64081 0.0
C200 C 0.30618 0.67307 0.98122 0.0
C201 C 0.29274 0.66432 0.99037 0.0
C202 C 0.31169 0.63898 0.99428 0.0
C203 C 0.29541 0.64733 0.99671 0.0
C204 C 0.32512 0.64795 0.98532 0.0
C205 C 0.3223 0.66471 0.97875 0.0
U206 U 0.28508 0.71702 0.9898 0.0
O207 O 0.29846 0.74216 0.99656 0.0
O208 O 0.27935 0.74096 0.97379 0.0
C209 C 0.29055 0.75062 0.98381 0.0
C210 C 0.30471 0.69181 0.97699 0.0
C211 C 0.29546 0.7694 0.98098 0.0
C212 C 0.31688 0.7939 0.98514 0.0
C213 C 0.31254 0.77583 0.98578 0.0
C214 C 0.28734 0.7994 0.97379 0.0
C215 C 0.30429 0.80589 0.97919 0.0
C216 C 0.28293 0.78132 0.97477 0.0
C217 C 0.24783 0.71837 0.02182 0.0
C218 C 0.22928 0.74389 0.01932 0.0
C219 C 0.21775 0.7168 0.03186 0.0
C220 C 0.23419 0.70906 0.03002 0.0
C221 C 0.21494 0.73376 0.02527 0.0
C222 C 0.24579 0.73625 0.01773 0.0
C223 C 0.26142 0.70835 0.01299 0.0
O224 O 0.30947 0.7023 0.99026 0.0
O225 O 0.29008 0.69677 0.96893 0.0
O226 O 0.27789 0.71254 0.01749 0.0
O227 O 0.25863 0.70687 0.99578 0.0
H228 H 0.28033 0.67074 0.99285 0.0
H229 H 0.28466 0.6407 0.00334 0.0
H230 H 0.33793 0.64211 0.9835 0.0
H231 H 0.33301 0.67117 0.97215 0.0
H232 H 0.33013 0.79845 0.98905 0.0
H233 H 0.32259 0.76684 0.98997 0.0
H234 H 0.27738 0.80839 0.96916 0.0
H235 H 0.26964 0.77674 0.97107 0.0
H236 H 0.22724 0.75694 0.01407 0.0
H237 H 0.20673 0.70874 0.0363 0.0
H238 H 0.2356 0.69521 0.03311 0.0
H239 H 0.25626 0.74354 0.0113 0.0
C240 C 0.77627 0.19887 0.25709 0.0
C241 C 0.78899 0.18685 0.2628 0.0
C242 C 0.76691 0.16273 0.26082 0.0
C243 C 0.78438 0.16889 0.26455 0.0
C244 C 0.75458 0.17467 0.25408 0.0
C245 C 0.75922 0.19255 0.25224 0.0
U246 U 0.80503 0.23973 0.27071 0.0
O247 O 0.80696 0.26624 0.25883 0.0
O248 O 0.79762 0.26324 0.28601 0.0
C249 C 0.80054 0.27406 0.27297 0.0
C250 C 0.77969 0.21816 0.25822 0.0
C251 C 0.78751 0.28811 0.27044 0.0
C252 C 0.7598 0.30146 0.27896 0.0
C253 C 0.77005 0.28638 0.27642 0.0
C254 C 0.78363 0.31976 0.26785 0.0
C255 C 0.76694 0.31834 0.27555 0.0
C256 C 0.79381 0.30476 0.26528 0.0
C257 C 0.8505 0.23265 0.29355 0.0
C258 C 0.86897 0.25569 0.30825 0.0
C259 C 0.87548 0.22478 0.31226 0.0
C260 C 0.86124 0.21984 0.30101 0.0
C261 C 0.87947 0.24276 0.31628 0.0
C262 C 0.85454 0.25067 0.29701 0.0
C263 C 0.83435 0.2266 0.2837 0.0
O264 O 0.78014 0.22489 0.27441 0.0
O265 O 0.79226 0.22464 0.2483 0.0
O266 O 0.83257 0.23146 0.26715 0.0
O267 O 0.81966 0.22768 0.29257 0.0
H268 H 0.80222 0.19151 0.26668 0.0
H269 H 0.79417 0.16006 0.26983 0.0
H270 H 0.74112 0.17031 0.25081 0.0
H271 H 0.74923 0.20161 0.2478 0.0
H272 H 0.74703 0.3001 0.28508 0.0
H273 H 0.76487 0.27365 0.28047 0.0
H274 H 0.78942 0.33267 0.26524 0.0
H275 H 0.80722 0.30643 0.2607 0.0
H276 H 0.87172 0.26965 0.31084 0.0
H277 H 0.88287 0.21436 0.3184 0.0
H278 H 0.85822 0.20587 0.29864 0.0
H279 H 0.84631 0.26078 0.2914 0.0
C280 C 0.61374 0.79721 0.00199 0.0
C281 C 0.6003 0.80934 0.99882 0.0
C282 C 0.62019 0.83329 0.00851 0.0
C283 C 0.60353 0.82734 0.002 0.0
C284 C 0.63344 0.82105 0.01211 0.0
C285 C 0.63023 0.80304 0.00883 0.0
U286 U 0.58045 0.7629 0.9884 0.0
O287 O 0.58076 0.73861 0.97203 0.0
O288 O 0.57403 0.73727 1.00019 0.0
C289 C 0.57812 0.72848 0.9857 0.0
C290 C 0.61015 0.77847 0.99856 0.0
C291 C 0.59129 0.71492 0.98819 0.0
C292 C 0.62186 0.70582 0.98802 0.0
C293 C 0.60943 0.71916 0.98709 0.0
C294 C 0.59812 0.68424 0.99235 0.0
C295 C 0.61624 0.68822 0.99033 0.0
C296 C 0.58573 0.69753 0.99124 0.0
C297 C 0.53415 0.77548 0.97894 0.0
C298 C 0.51473 0.75027 0.97161 0.0
C299 C 0.50471 0.77407 0.9907 0.0
C300 C 0.52065 0.78328 0.98853 0.0
C301 C 0.50203 0.75698 0.98313 0.0
C302 C 0.5308 0.75936 0.96971 0.0
C303 C 0.55239 0.78157 0.98261 0.0
O304 O 0.59909 0.77143 0.00971 0.0
O305 O 0.60644 0.77423 0.98186 0.0
O306 O 0.56386 0.77816 0.97021 0.0
O307 O 0.55805 0.77759 0.99858 0.0
H308 H 0.58739 0.80487 0.99374 0.0
H309 H 0.59313 0.8366 0.99925 0.0
H310 H 0.64646 0.82545 0.01694 0.0
H311 H 0.64061 0.79373 0.01144 0.0
H312 H 0.63576 0.70918 0.98658 0.0
H313 H 0.61391 0.73267 0.98502 0.0
H314 H 0.59344 0.67072 0.99394 0.0
H315 H 0.57177 0.69416 0.99226 0.0
H316 H 0.51283 0.73741 0.96512 0.0
H317 H 0.49532 0.77971 0.99971 0.0
H318 H 0.5231 0.79564 0.99585 0.0
H319 H 0.5411 0.75304 0.96227 0.0
C320 C 0.66599 0.35131 0.31298 0.0
C321 C 0.65974 0.36418 0.32486 0.0
C322 C 0.66262 0.34363 0.34939 0.0
C323 C 0.6581 0.36038 0.34292 0.0
C324 C 0.66919 0.33102 0.33737 0.0
C325 C 0.67082 0.33482 0.31944 0.0
U326 U 0.66076 0.3773 0.26889 0.0
O327 O 0.67937 0.37695 0.2466 0.0
O328 O 0.65199 0.3659 0.24275 0.0
C329 C 0.66757 0.36895 0.23591 0.0
C330 C 0.66738 0.35425 0.29375 0.0
C331 C 0.6714 0.36426 0.21724 0.0
C332 C 0.68571 0.34547 0.19534 0.0
C333 C 0.68207 0.34983 0.21307 0.0
C334 C 0.668 0.36987 0.18571 0.0
C335 C 0.6789 0.35556 0.18137 0.0
C336 C 0.66425 0.3741 0.20341 0.0
C337 C 0.6392 0.42523 0.27781 0.0
C338 C 0.63043 0.4519 0.26252 0.0
C339 C 0.62456 0.44892 0.29368 0.0
C340 C 0.63232 0.43234 0.29342 0.0
C341 C 0.6235 0.45905 0.2783 0.0
C342 C 0.63826 0.43511 0.26228 0.0
C343 C 0.64688 0.40743 0.27875 0.0
O344 O 0.65244 0.35441 0.28452 0.0
O345 O 0.67896 0.36629 0.28882 0.0
O346 O 0.66403 0.40548 0.27723 0.0
O347 O 0.63724 0.39339 0.27385 0.0
H348 H 0.65594 0.37702 0.32015 0.0
H349 H 0.65288 0.3704 0.35171 0.0
H350 H 0.67317 0.31814 0.3418 0.0
H351 H 0.67578 0.32474 0.31052 0.0
H352 H 0.69424 0.33446 0.19265 0.0
H353 H 0.68763 0.34194 0.22352 0.0
H354 H 0.66223 0.3778 0.1754 0.0
H355 H 0.65586 0.38519 0.20631 0.0
H356 H 0.62997 0.45933 0.25044 0.0
H357 H 0.61907 0.45362 0.306 0.0
H358 H 0.63283 0.42493 0.30554 0.0
H359 H 0.64351 0.42987 0.25007 0.0
C360 C 0.9837 0.30477 0.67414 0.0
C361 C 0.99734 0.29475 0.66694 0.0
C362 C 0.99501 0.31111 0.63966 0.0
C363 C 0.00289 0.29781 0.6497 0.0
C364 C 0.98186 0.32143 0.64723 0.0
C365 C 0.97607 0.31804 0.66414 0.0
U366 U 0.99157 0.28486 0.71899 0.0
O367 O 0.99662 0.29942 0.74373 0.0
O368 O 0.97482 0.27918 0.74247 0.0
C369 C 0.98393 0.29124 0.75201 0.0
C370 C 0.97902 0.30325 0.69273 0.0
C371 C 0.98035 0.29665 0.77049 0.0
C372 C 0.98525 0.31819 0.79472 0.0
C373 C 0.98584 0.31361 0.77675 0.0
C374 C 0.97212 0.2894 0.80043 0.0
C375 C 0.97856 0.30605 0.80673 0.0
C376 C 0.97314 0.28466 0.78242 0.0
C377 C 0.02562 0.24933 0.72262 0.0
C378 C 0.01981 0.22698 0.74425 0.0
C379 C 0.03815 0.22049 0.71909 0.0
C380 C 0.03685 0.23792 0.71369 0.0
C381 C 0.02793 0.21457 0.7332 0.0
C382 C 0.01869 0.24449 0.73895 0.0
C383 C 0.01648 0.26245 0.71223 0.0
O384 O 0.99171 0.30878 0.7036 0.0
O385 O 0.97145 0.28834 0.6976 0.0
O386 O 0.01988 0.27912 0.71642 0.0
O387 O 0.9995 0.25869 0.70981 0.0
H388 H 0.00364 0.28462 0.67464 0.0
H389 H 0.0129 0.28949 0.64405 0.0
H390 H 0.97565 0.33183 0.63983 0.0
H391 H 0.96554 0.32579 0.66925 0.0
H392 H 0.98997 0.33122 0.79924 0.0
H393 H 0.99077 0.3233 0.76773 0.0
H394 H 0.96681 0.27987 0.80953 0.0
H395 H 0.96884 0.2715 0.77796 0.0
H396 H 0.01199 0.22267 0.75527 0.0
H397 H 0.0447 0.21108 0.71057 0.0
H398 H 0.04242 0.24159 0.70116 0.0
H399 H 0.0101 0.25334 0.74605 0.0
C400 C 0.25812 0.77614 0.20042 0.0
C401 C 0.26029 0.7902 0.18878 0.0
C402 C 0.26147 0.76931 0.16366 0.0
C403 C 0.26183 0.78683 0.17056 0.0
C404 C 0.25814 0.75538 0.17529 0.0
C405 C 0.25652 0.75879 0.19349 0.0
U406 U 0.27231 0.80512 0.2405 0.0
O407 O 0.26186 0.80766 0.26751 0.0
O408 O 0.28895 0.79858 0.26349 0.0
C409 C 0.27654 0.80199 0.2749 0.0
C410 C 0.2598 0.7791 0.21977 0.0
C411 C 0.2749 0.78967 0.28962 0.0
C412 C 0.27557 0.76004 0.30161 0.0
C413 C 0.27442 0.77119 0.28701 0.0
C414 C 0.27687 0.78576 0.32139 0.0
C415 C 0.27711 0.76726 0.31896 0.0
C416 C 0.27581 0.79681 0.30689 0.0
C417 C 0.29273 0.8511 0.23233 0.0
C418 C 0.30944 0.86825 0.255 0.0
C419 C 0.31018 0.87694 0.22433 0.0
C420 C 0.29852 0.86294 0.21957 0.0
C421 C 0.31613 0.87942 0.24197 0.0
C422 C 0.29787 0.85406 0.25018 0.0
C423 C 0.2833 0.83472 0.22632 0.0
O424 O 0.27622 0.78013 0.22585 0.0
O425 O 0.24969 0.79119 0.22685 0.0
O426 O 0.26707 0.83226 0.23185 0.0
O427 O 0.2928 0.82041 0.22704 0.0
H428 H 0.26158 0.80372 0.19385 0.0
H429 H 0.26402 0.79792 0.16198 0.0
H430 H 0.2579 0.74174 0.17055 0.0
H431 H 0.25493 0.74775 0.20227 0.0
H432 H 0.27565 0.74583 0.29933 0.0
H433 H 0.27378 0.76543 0.27373 0.0
H434 H 0.27838 0.79179 0.3345 0.0
H435 H 0.27642 0.81104 0.30915 0.0
H436 H 0.31396 0.86988 0.26867 0.0
H437 H 0.31516 0.88542 0.2141 0.0
H438 H 0.29472 0.86084 0.20575 0.0
H439 H 0.2936 0.84496 0.2602 0.0
C440 C 0.0029 0.61465 0.79644 0.0
C441 C 0.99576 0.60313 0.80883 0.0
C442 C 0.00689 0.62255 0.83269 0.0
C443 C 0.99765 0.60709 0.82682 0.0
C444 C 0.01473 0.63365 0.82021 0.0
C445 C 0.01271 0.62971 0.80213 0.0
U446 U 0.9895 0.58075 0.76245 0.0
O447 O 0.97312 0.58086 0.73819 0.0
O448 O 0.00119 0.57387 0.73688 0.0
C449 C 0.98671 0.57795 0.72806 0.0
C450 C 1.00022 0.61052 0.77765 0.0
C451 C 0.98917 0.59095 0.71433 0.0
C452 C 0.98878 0.62143 0.70499 0.0
C453 C 0.98819 0.60913 0.71845 0.0
C454 C 0.99251 0.59749 0.68348 0.0
C455 C 0.99063 0.61564 0.68737 0.0
C456 C 0.99173 0.58521 0.69691 0.0
C457 C 0.97835 0.53501 0.77509 0.0
C458 C 0.97283 0.51616 0.74908 0.0
C459 C 0.98901 0.5051 0.77445 0.0
C460 C 0.98654 0.52104 0.78362 0.0
C461 C 0.9832 0.50298 0.75667 0.0
C462 C 0.9706 0.53217 0.75816 0.0
C463 C 0.98252 0.5531 0.78135 0.0
O464 O 0.01122 0.59882 0.77141 0.0
O465 O 0.9836 0.60729 0.77278 0.0
O466 O 0.97058 0.56499 0.77774 0.0
O467 O 0.99871 0.55822 0.77757 0.0
H468 H 0.98841 0.59124 0.80455 0.0
H469 H 0.99135 0.59834 0.83607 0.0
H470 H 0.02226 0.64544 0.82443 0.0
H471 H 0.01861 0.63847 0.79263 0.0
H472 H 0.98743 0.63537 0.70827 0.0
H473 H 0.98642 0.61373 0.73197 0.0
H474 H 0.99374 0.5927 0.66995 0.0
H475 H 0.99258 0.57122 0.69362 0.0
H476 H 0.96766 0.51469 0.73562 0.0
H477 H 0.99703 0.49526 0.78077 0.0
H478 H 0.99271 0.52308 0.79662 0.0
H479 H 0.96428 0.54285 0.75128 0.0
C480 C 0.68527 0.34137 0.6497 0.0
C481 C 0.67444 0.35295 0.64029 0.0
C482 C 0.64892 0.34379 0.65757 0.0
C483 C 0.65638 0.35413 0.64419 0.0
C484 C 0.65986 0.33191 0.66651 0.0
C485 C 0.67777 0.33077 0.66265 0.0
U486 U 0.72963 0.3468 0.62445 0.0
O487 O 0.75554 0.3554 0.63645 0.0
O488 O 0.75185 0.32815 0.62496 0.0
C489 C 0.76246 0.33989 0.63313 0.0
C490 C 0.70454 0.34039 0.64718 0.0
C491 C 0.78069 0.33565 0.639 0.0
C492 C 0.80177 0.326 0.66153 0.0
C493 C 0.78425 0.32889 0.65584 0.0
C494 C 0.81235 0.33615 0.63345 0.0
C495 C 0.81614 0.32985 0.65054 0.0
C496 C 0.79485 0.33903 0.62779 0.0
C497 C 0.72113 0.36738 0.57604 0.0
C498 C 0.73738 0.37883 0.55109 0.0
C499 C 0.70534 0.37898 0.55051 0.0
C500 C 0.70525 0.37122 0.56712 0.0
C501 C 0.72138 0.38305 0.5423 0.0
C502 C 0.73727 0.37113 0.5679 0.0
C503 C 0.71989 0.36012 0.59399 0.0
O504 O 0.70986 0.32853 0.63561 0.0
O505 O 0.71353 0.35548 0.6468 0.0
O506 O 0.72503 0.36998 0.60781 0.0
O507 O 0.72123 0.343 0.59631 0.0
H508 H 0.67999 0.36128 0.63022 0.0
H509 H 0.64841 0.3635 0.6371 0.0
H510 H 0.6546 0.32345 0.67662 0.0
H511 H 0.68589 0.32171 0.67001 0.0
H512 H 0.80406 0.32138 0.67483 0.0
H513 H 0.77353 0.3262 0.66474 0.0
H514 H 0.82293 0.33904 0.62444 0.0
H515 H 0.79237 0.34417 0.61471 0.0
H516 H 0.74998 0.38188 0.54516 0.0
H517 H 0.69279 0.38175 0.54406 0.0
H518 H 0.69264 0.36839 0.57315 0.0
H519 H 0.74969 0.36832 0.57458 0.0
C520 C 0.8003 0.73478 0.22562 0.0
C521 C 0.81201 0.72968 0.21234 0.0
C522 C 0.83719 0.7365 0.23228 0.0
C523 C 0.83036 0.73048 0.21567 0.0
C524 C 0.8253 0.74153 0.24546 0.0
C525 C 0.80707 0.74067 0.24215 0.0
U526 U 0.75988 0.72284 0.19644 0.0
O527 O 0.73391 0.73547 0.19385 0.0
O528 O 0.7356 0.70794 0.20254 0.0
C529 C 0.72537 0.72148 0.19967 0.0
C530 C 0.78101 0.73347 0.22276 0.0
C531 C 0.71112 0.72459 0.21237 0.0
C532 C 0.69562 0.71658 0.23906 0.0
C533 C 0.71109 0.71687 0.22915 0.0
C534 C 0.68063 0.73306 0.21631 0.0
C535 C 0.67998 0.72391 0.23229 0.0
C536 C 0.69602 0.73334 0.20644 0.0
C537 C 0.76701 0.70344 0.15002 0.0
C538 C 0.74638 0.68275 0.13502 0.0
C539 C 0.77374 0.6912 0.12099 0.0
C540 C 0.77817 0.70246 0.13547 0.0
C541 C 0.7582 0.68065 0.12107 0.0
C542 C 0.7507 0.69415 0.14937 0.0
C543 C 0.77363 0.71199 0.16662 0.0
O544 O 0.77429 0.74436 0.21119 0.0
O545 O 0.77444 0.71725 0.2211 0.0
O546 O 0.77225 0.7021 0.18063 0.0
O547 O 0.76913 0.72849 0.16956 0.0
H548 H 0.80695 0.72498 0.1995 0.0
H549 H 0.83917 0.7265 0.20527 0.0
H550 H 0.83009 0.74581 0.25853 0.0
H551 H 0.79821 0.74445 0.2526 0.0
H552 H 0.69557 0.70946 0.25134 0.0
H553 H 0.72262 0.71014 0.23411 0.0
H554 H 0.6689 0.73915 0.21092 0.0
H555 H 0.69576 0.73946 0.1936 0.0
H556 H 0.73425 0.67481 0.13528 0.0
H557 H 0.78309 0.68973 0.11042 0.0
H558 H 0.79081 0.70956 0.13577 0.0
H559 H 0.74187 0.69483 0.16046 0.0
C560 C 0.19946 0.98867 0.39737 0.0
C561 C 0.18708 0.98356 0.41001 0.0
C562 C 0.1631 0.98673 0.3883 0.0
C563 C 0.16898 0.98246 0.40544 0.0
C564 C 0.1756 0.99161 0.37571 0.0
C565 C 0.19361 0.99251 0.3802 0.0
U566 U 0.23881 0.99436 0.43031 0.0
O567 O 0.26556 0.98356 0.42875 0.0
O568 O 0.26193 0.01237 0.42923 0.0
C569 C 0.27309 0.99936 0.42783 0.0
C570 C 0.21844 0.99073 0.40179 0.0
C571 C 0.28668 0.00161 0.41453 0.0
C572 C 0.29645 0.00251 0.38411 0.0
C573 C 0.28304 0.99936 0.39628 0.0
C574 C 0.31694 0.01006 0.40846 0.0
C575 C 0.31355 0.00786 0.39016 0.0
C576 C 0.30365 0.00694 0.42048 0.0
C577 C 0.23371 0.99615 0.48005 0.0
C578 C 0.25922 0.00246 0.49961 0.0
C579 C 0.23119 0.9933 0.51184 0.0
C580 C 0.22355 0.99233 0.4948 0.0
C581 C 0.24919 0.99818 0.5145 0.0
C582 C 0.25157 0.00137 0.48254 0.0
C583 C 0.22572 0.99414 0.46215 0.0
O584 O 0.2234 0.0062 0.40878 0.0
O585 O 0.22591 0.9773 0.40957 0.0
O586 O 0.22985 0.97963 0.45339 0.0
O587 O 0.22644 0.00837 0.45248 0.0
H588 H 0.1914 0.98062 0.42338 0.0
H589 H 0.15958 0.97867 0.41537 0.0
H590 H 0.17141 0.99471 0.36234 0.0
H591 H 0.20298 0.99641 0.37028 0.0
H592 H 0.29352 1.00068 0.37007 0.0
H593 H 0.2699 0.99533 0.3915 0.0
H594 H 0.32985 0.01453 0.41351 0.0
H595 H 0.30659 0.00891 0.43451 0.0
H596 H 0.27301 0.00655 0.5011 0.0
H597 H 0.22307 0.98963 0.52286 0.0
H598 H 0.20976 0.98825 0.4931 0.0
H599 H 0.25963 0.00442 0.47127 0.0
C600 C 0.32191 0.03467 0.65203 0.0
C601 C 0.33456 0.04496 0.66165 0.0
C602 C 0.35778 0.02604 0.65088 0.0
C603 C 0.3524 0.04036 0.66141 0.0
C604 C 0.34554 0.01751 0.63926 0.0
C605 C 0.32774 0.02207 0.63964 0.0
U606 U 0.27391 0.03241 0.67319 0.0
O607 O 0.25067 0.04566 0.66203 0.0
O608 O 0.25461 0.01731 0.65668 0.0
C609 C 0.2442 0.03078 0.65481 0.0
C610 C 0.30265 0.03629 0.65429 0.0
C611 C 0.22577 0.02651 0.65807 0.0
C612 C 0.19639 0.01996 0.64623 0.0
C613 C 0.21408 0.02426 0.64356 0.0
C614 C 0.20219 0.01925 0.67797 0.0
C615 C 0.19022 0.0179 0.66348 0.0
C616 C 0.21996 0.02354 0.67527 0.0
C617 C 0.27456 0.02274 0.72641 0.0
C618 C 0.2617 0.01654 0.75505 0.0
C619 C 0.29346 0.01704 0.75216 0.0
C620 C 0.29144 0.02134 0.73429 0.0
C621 C 0.27864 0.01471 0.76298 0.0
C622 C 0.25973 0.02032 0.73701 0.0
C623 C 0.27176 0.0262 0.70725 0.0
O624 O 0.29598 0.04953 0.6634 0.0
O625 O 0.29416 0.02128 0.65656 0.0
O626 O 0.27284 0.04232 0.70105 0.0
O627 O 0.27301 0.01349 0.69519 0.0
H628 H 0.3306 0.05614 0.66962 0.0
H629 H 0.36198 0.04742 0.66989 0.0
H630 H 0.3496 0.00692 0.63045 0.0
H631 H 0.31832 0.01523 0.63074 0.0
H632 H 0.18739 0.01874 0.63486 0.0
H633 H 0.2186 0.02604 0.63019 0.0
H634 H 0.19767 0.01779 0.69138 0.0
H635 H 0.22908 0.02482 0.68653 0.0
H636 H 0.24985 0.01532 0.76274 0.0
H637 H 0.30677 0.01536 0.75733 0.0
H638 H 0.30317 0.02314 0.72674 0.0
H639 H 0.24651 0.02142 0.73133 0.0
C640 C 0.65195 0.69045 0.34114 0.0
C641 C 0.63888 0.67873 0.3473 0.0
C642 C 0.65873 0.65367 0.34401 0.0
C643 C 0.64222 0.66056 0.34873 0.0
C644 C 0.67172 0.66558 0.33785 0.0
C645 C 0.66836 0.68369 0.33642 0.0
U646 U 0.6229 0.73108 0.34746 0.0
O647 O 0.62953 0.75809 0.35756 0.0
O648 O 0.6184 0.7543 0.33062 0.0
C649 C 0.62452 0.76569 0.34284 0.0
C650 C 0.64888 0.70973 0.33973 0.0
C651 C 0.63493 0.78152 0.33718 0.0
C652 C 0.66233 0.7993 0.33627 0.0
C653 C 0.65344 0.78308 0.33933 0.0
C654 C 0.63453 0.81242 0.32812 0.0
C655 C 0.65295 0.81434 0.33098 0.0
C656 C 0.62568 0.79627 0.33124 0.0
C657 C 0.57679 0.71817 0.36812 0.0
C658 C 0.55132 0.73565 0.37598 0.0
C659 C 0.55172 0.70447 0.38264 0.0
C660 C 0.56839 0.70327 0.37516 0.0
C661 C 0.54288 0.72066 0.38322 0.0
C662 C 0.56815 0.73442 0.36849 0.0
C663 C 0.59459 0.71595 0.36084 0.0
O664 O 0.63667 0.71428 0.32813 0.0
O665 O 0.64808 0.71868 0.3548 0.0
O666 O 0.60815 0.72202 0.37053 0.0
O667 O 0.59649 0.71825 0.34379 0.0
H668 H 0.62609 0.68363 0.35103 0.0
H669 H 0.63178 0.65189 0.35335 0.0
H670 H 0.6847 0.661 0.3344 0.0
H671 H 0.67868 0.69247 0.33173 0.0
H672 H 0.67655 0.80018 0.33839 0.0
H673 H 0.66095 0.77196 0.3439 0.0
H674 H 0.62679 0.82365 0.32425 0.0
H675 H 0.61139 0.79552 0.32964 0.0
H676 H 0.54489 0.74831 0.37599 0.0
H677 H 0.54596 0.69271 0.38834 0.0
H678 H 0.57487 0.69061 0.37506 0.0
H679 H 0.5744 0.74609 0.36308 0.0
C680 C 0.65326 0.32137 0.03682 0.0
C681 C 0.66277 0.3326 0.0487 0.0
C682 C 0.65633 0.3578 0.03013 0.0
C683 C 0.66478 0.35059 0.04508 0.0
C684 C 0.64422 0.34696 0.02025 0.0
C685 C 0.64268 0.32892 0.02365 0.0
U686 U 0.67244 0.27318 0.03196 0.0
O687 O 0.65559 0.25407 0.01693 0.0
O688 O 0.66194 0.24951 0.04498 0.0
C689 C 0.65426 0.24333 0.03022 0.0
C690 C 0.6539 0.3019 0.0375 0.0
C691 C 0.65751 0.22499 0.02552 0.0
C692 C 0.64619 0.19502 0.02155 0.0
C693 C 0.64341 0.21271 0.02584 0.0
C694 C 0.67701 0.20202 0.01561 0.0
C695 C 0.66306 0.18956 0.01676 0.0
C696 C 0.67424 0.21975 0.02003 0.0
C697 C 0.72537 0.27441 0.02091 0.0
C698 C 0.75262 0.26211 0.00964 0.0
C699 C 0.75265 0.29234 0.02085 0.0
C700 C 0.73466 0.29039 0.02482 0.0
C701 C 0.76193 0.27817 0.01336 0.0
C702 C 0.73454 0.26033 0.01322 0.0
C703 C 0.70625 0.27193 0.02459 0.0
O704 O 0.66292 0.29426 0.05023 0.0
O705 O 0.65559 0.29394 0.02209 0.0
O706 O 0.7005 0.2724 0.0409 0.0
O707 O 0.69386 0.27312 0.01222 0.0
H708 H 0.66946 0.32735 0.06017 0.0
H709 H 0.67372 0.3585 0.05351 0.0
H710 H 0.63639 0.35219 0.00947 0.0
H711 H 0.63364 0.32067 0.01559 0.0
H712 H 0.63534 0.18548 0.02253 0.0
H713 H 0.63036 0.21675 0.02973 0.0
H714 H 0.69015 0.19791 0.01214 0.0
H715 H 0.68514 0.22929 0.01948 0.0
H716 H 0.75929 0.25095 0.00377 0.0
H717 H 0.75942 0.30484 0.02407 0.0
H718 H 0.72814 0.30141 0.03093 0.0
H719 H 0.7277 0.24784 0.01009 0.0
C720 C 0.2256 0.79799 0.73582 0.0
C721 C 0.21858 0.81 0.72373 0.0
C722 C 0.23475 0.83443 0.7389 0.0
C723 C 0.22319 0.82805 0.7252 0.0
C724 C 0.24088 0.82241 0.75152 0.0
C725 C 0.23647 0.80438 0.7499 0.0
U726 U 0.19526 0.75898 0.7222 0.0
O727 O 0.20031 0.73522 0.70601 0.0
O728 O 0.19175 0.7325 0.73346 0.0
C729 C 0.19708 0.72442 0.719 0.0
C730 C 0.22224 0.77876 0.73364 0.0
C731 C 0.20972 0.71012 0.72141 0.0
C732 C 0.23964 0.69896 0.72162 0.0
C733 C 0.22811 0.71324 0.72158 0.0
C734 C 0.21447 0.67852 0.7221 0.0
C735 C 0.23292 0.68138 0.72141 0.0
C736 C 0.20304 0.69274 0.72212 0.0
C737 C 0.14903 0.76822 0.70421 0.0
C738 C 0.13229 0.74607 0.68666 0.0
C739 C 0.12117 0.77578 0.69004 0.0
C740 C 0.13582 0.7805 0.70091 0.0
C741 C 0.11967 0.75874 0.68221 0.0
C742 C 0.14688 0.75078 0.69759 0.0
C743 C 0.16587 0.77428 0.71256 0.0
O744 O 0.21063 0.7718 0.74433 0.0
O745 O 0.22044 0.77279 0.71719 0.0
O746 O 0.1796 0.77284 0.70231 0.0
O747 O 0.16899 0.76905 0.72879 0.0
H748 H 0.20995 0.80538 0.71285 0.0
H749 H 0.21825 0.83681 0.71518 0.0
H750 H 0.24939 0.82685 0.76255 0.0
H751 H 0.24182 0.79536 0.75949 0.0
H752 H 0.25377 0.70167 0.72133 0.0
H753 H 0.2335 0.72664 0.72112 0.0
H754 H 0.20871 0.66526 0.72162 0.0
H755 H 0.18887 0.6901 0.72194 0.0
H756 H 0.13133 0.73278 0.68095 0.0
H757 H 0.11173 0.78584 0.68675 0.0
H758 H 0.13733 0.79402 0.70593 0.0
H759 H 0.15697 0.74112 0.70008 0.0
C760 C 0.39761 0.20011 0.99074 0.0
C761 C 0.4079 0.18746 0.98205 0.0
C762 C 0.38556 0.16446 0.98752 0.0
C763 C 0.4019 0.16975 0.98044 0.0
C764 C 0.37561 0.17722 0.99651 0.0
C765 C 0.38153 0.19481 0.998 0.0
U766 U 0.43153 0.23928 0.99542 0.0
O767 O 0.42992 0.26568 0.9838 0.0
O768 O 0.43035 0.26292 0.01272 0.0
C769 C 0.42888 0.27366 0.99938 0.0
C770 C 0.40294 0.21895 0.99236 0.0
C771 C 0.41538 0.28713 0.00115 0.0
C772 C 0.38481 0.29619 0.00319 0.0
C773 C 0.39716 0.28291 1.00027 0.0
C774 C 0.40889 0.31774 0.00765 0.0
C775 C 0.39063 0.31374 0.00693 0.0
C776 C 0.42111 0.30457 0.00477 0.0
C777 C 0.48126 0.23459 0.99725 0.0
C778 C 0.50052 0.26077 1.0005 0.0
C779 C 0.51317 0.23186 0.99618 0.0
C780 C 0.49617 0.22408 0.99559 0.0
C781 C 0.51556 0.25033 0.99838 0.0
C782 C 0.48351 0.25297 0.99994 0.0
C783 C 0.46344 0.22635 0.99558 0.0
O784 O 0.41003 0.22415 0.00771 0.0
O785 O 0.41079 0.22594 0.97872 0.0
O786 O 0.45458 0.22991 0.98095 0.0
O787 O 0.45381 0.22749 0.00981 0.0
H788 H 0.42042 0.1913 0.97639 0.0
H789 H 0.40987 0.16032 0.97337 0.0
H790 H 0.3632 0.17363 0.00253 0.0
H791 H 0.37346 0.20435 0.00483 0.0
H792 H 0.3708 0.29278 0.00251 0.0
H793 H 0.39257 0.2694 0.99756 0.0
H794 H 0.41381 0.33104 0.01086 0.0
H795 H 0.43512 0.30797 0.00567 0.0
H796 H 0.50188 0.27499 0.00246 0.0
H797 H 0.5244 0.22343 0.99429 0.0
H798 H 0.49467 0.20989 0.9935 0.0
H799 H 0.47211 0.26129 0.00134 0.0
C800 C 0.34097 0.65362 0.68949 0.0
C801 C 0.34934 0.64151 0.67822 0.0
C802 C 0.34356 0.66013 0.65265 0.0
C803 C 0.35065 0.64474 0.66002 0.0
C804 C 0.33505 0.67208 0.66405 0.0
C805 C 0.33378 0.66886 0.68221 0.0
U806 U 0.34758 0.62464 0.73 0.0
O807 O 0.35777 0.63122 0.75702 0.0
O808 O 0.33088 0.61987 0.75322 0.0
C809 C 0.34313 0.6259 0.76461 0.0
C810 C 0.33978 0.65072 0.70881 0.0
C811 C 0.33749 0.63562 0.78084 0.0
C812 C 0.33507 0.66238 0.79946 0.0
C813 C 0.33861 0.65418 0.78296 0.0
C814 C 0.32879 0.6337 0.8117 0.0
C815 C 0.3305 0.65222 0.81424 0.0
C816 C 0.33226 0.62559 0.79531 0.0
C817 C 0.36723 0.57822 0.71663 0.0
C818 C 0.37991 0.55463 0.73396 0.0
C819 C 0.37717 0.55131 0.70204 0.0
C820 C 0.36951 0.56793 0.70122 0.0
C821 C 0.38272 0.54453 0.71837 0.0
C822 C 0.3723 0.57142 0.73309 0.0
C823 C 0.3604 0.59622 0.71459 0.0
O824 O 0.32812 0.63864 0.71355 0.0
O825 O 0.35496 0.64979 0.71757 0.0
O826 O 0.37035 0.60954 0.72082 0.0
O827 O 0.3434 0.59844 0.71683 0.0
H828 H 0.35493 0.62959 0.68351 0.0
H829 H 0.35712 0.6351 0.65171 0.0
H830 H 0.32965 0.68419 0.65903 0.0
H831 H 0.3273 0.6784 0.69063 0.0
H832 H 0.3366 0.67664 0.80078 0.0
H833 H 0.34267 0.66227 0.77204 0.0
H834 H 0.32491 0.62534 0.82246 0.0
H835 H 0.33131 0.61127 0.79409 0.0
H836 H 0.3841 0.54979 0.74674 0.0
H837 H 0.37883 0.5438 0.68983 0.0
H838 H 0.36562 0.57291 0.68839 0.0
H839 H 0.37067 0.57918 0.74516 0.0
C840 C 0.037 0.65331 0.32353 0.0
C841 C 0.04762 0.6638 0.33517 0.0
C842 C 0.02934 0.6551 0.35969 0.0
C843 C 0.04337 0.66532 0.35307 0.0
C844 C 0.02105 0.64212 0.34875 0.0
C845 C 0.02497 0.6412 0.33081 0.0
U846 U 0.03307 0.67254 0.27467 0.0
O847 O 0.01932 0.6551 0.25511 0.0
O848 O 0.04739 0.6621 0.25176 0.0
C849 C 0.033 0.65438 0.24478 0.0
C850 C 0.03787 0.65444 0.30397 0.0
C851 C 0.02885 0.6584 0.22641 0.0
C852 C 0.02567 0.64846 0.19587 0.0
C853 C 0.03054 0.6452 0.21336 0.0
C854 C 0.01714 0.67818 0.20447 0.0
C855 C 0.01893 0.66498 0.19124 0.0
C856 C 0.02206 0.67489 0.22198 0.0
C857 C 0.02152 0.72532 0.27484 0.0
C858 C 0.00917 0.7526 0.26353 0.0
C859 C 0.02292 0.75265 0.29274 0.0
C860 C 0.02661 0.73463 0.29052 0.0
C861 C 0.01432 0.76191 0.27921 0.0
C862 C 0.01274 0.73453 0.26139 0.0
C863 C 0.02541 0.70627 0.2717 0.0
O864 O 0.05071 0.66353 0.29658 0.0
O865 O 0.02262 0.65605 0.29565 0.0
O866 O 0.04171 0.70065 0.27317 0.0
O867 O 0.01315 0.69376 0.27298 0.0
H868 H 0.05864 0.67128 0.33031 0.0
H869 H 0.05051 0.67495 0.36154 0.0
H870 H 0.01055 0.6337 0.35369 0.0
H871 H 0.01792 0.63156 0.32253 0.0
H872 H 0.02746 0.63814 0.18593 0.0
H873 H 0.03558 0.63235 0.2167 0.0
H874 H 0.01182 0.69095 0.2013 0.0
H875 H 0.02043 0.68511 0.23208 0.0
H876 H 0.00275 0.75941 0.25276 0.0
H877 H 0.02696 0.75943 0.30502 0.0
H878 H 0.03359 0.72823 0.30102 0.0
H879 H 0.00884 0.72776 0.24906 0.0
C880 C 0.73887 0.2247 0.79798 0.0
C881 C 0.7318 0.21244 0.80979 0.0
C882 C 0.73771 0.23324 0.83432 0.0
C883 C 0.73123 0.2167 0.82791 0.0
C884 C 0.74541 0.24515 0.82258 0.0
C885 C 0.74604 0.24087 0.80453 0.0
U886 U 0.72489 0.19512 0.75866 0.0
O887 O 0.70907 0.20074 0.7349 0.0
O888 O 0.73647 0.19206 0.73216 0.0
C889 C 0.72229 0.1982 0.7242 0.0
C890 C 0.73732 0.22152 0.77875 0.0
C891 C 0.72506 0.21199 0.71096 0.0
C892 C 0.71833 0.24111 0.69993 0.0
C893 C 0.71948 0.22941 0.71396 0.0
C894 C 0.73014 0.21885 0.68018 0.0
C895 C 0.72285 0.23564 0.68272 0.0
C896 C 0.73115 0.20709 0.69419 0.0
C897 C 0.7039 0.1497 0.7692 0.0
C898 C 0.6851 0.13183 0.74894 0.0
C899 C 0.69026 0.12236 0.77903 0.0
C900 C 0.70128 0.13721 0.78236 0.0
C901 C 0.68175 0.11972 0.76243 0.0
C902 C 0.69605 0.14679 0.75233 0.0
C903 C 0.71323 0.16644 0.77402 0.0
O904 O 0.74743 0.20918 0.77217 0.0
O905 O 0.72096 0.22054 0.77246 0.0
O906 O 0.70381 0.18069 0.77208 0.0
O907 O 0.72958 0.16836 0.76863 0.0
H908 H 0.72609 0.19993 0.8049 0.0
H909 H 0.72496 0.2075 0.83675 0.0
H910 H 0.75025 0.25806 0.8273 0.0
H911 H 0.75145 0.2505 0.79558 0.0
H912 H 0.71288 0.25408 0.70231 0.0
H913 H 0.71494 0.23361 0.72686 0.0
H914 H 0.73367 0.21423 0.66708 0.0
H915 H 0.73559 0.19375 0.69162 0.0
H916 H 0.67859 0.13017 0.73606 0.0
H917 H 0.68802 0.11315 0.78958 0.0
H918 H 0.70723 0.13929 0.79545 0.0
H919 H 0.69785 0.1564 0.74205 0.0
C920 C 0.98882 0.39784 0.19898 0.0
C921 C 0.98006 0.40853 0.18671 0.0
C922 C 0.9855 0.38695 0.163 0.0
C923 C 0.97844 0.40312 0.1688 0.0
C924 C 0.99459 0.37664 0.17536 0.0
C925 C 0.99615 0.38199 0.1931 0.0
U926 U 0.99388 0.43058 0.23899 0.0
O927 O 0.9824 0.42861 0.26546 0.0
O928 O 0.0113 0.42886 0.26248 0.0
C929 C 0.99803 0.42753 0.27334 0.0
C930 C 0.99046 0.40248 0.21801 0.0
C931 C 0.99988 0.41433 0.28713 0.0
C932 C 0.00399 0.38424 0.29698 0.0
C933 C 0.00063 0.39607 0.2833 0.0
C934 C 0.00553 0.40888 0.31815 0.0
C935 C 0.00657 0.39061 0.31453 0.0
C936 C 0.00218 0.42057 0.3046 0.0
C937 C 0.99609 0.48068 0.23374 0.0
C938 C 0.99574 0.50151 0.25878 0.0
C939 C 0.99851 0.51231 0.22898 0.0
C940 C 0.99812 0.49489 0.22232 0.0
C941 C 0.99698 0.51583 0.24724 0.0
C942 C 0.99522 0.48404 0.25207 0.0
C943 C 0.9943 0.46257 0.22619 0.0
O944 O 0.00589 0.40921 0.22343 0.0
O945 O 0.97693 0.41027 0.22528 0.0
O946 O 0.97964 0.45388 0.22999 0.0
O947 O 0.00849 0.4529 0.22746 0.0
H948 H 0.97437 0.4209 0.19098 0.0
H949 H 0.97135 0.41136 0.15962 0.0
H950 H 1.00056 0.36433 0.17132 0.0
H951 H 0.00306 0.37363 0.20232 0.0
H952 H 0.00464 0.3702 0.29385 0.0
H953 H 0.99893 0.39107 0.26979 0.0
H954 H 0.0078 0.41427 0.33144 0.0
H955 H 0.00182 0.43463 0.30773 0.0
H956 H 0.99449 0.50384 0.2729 0.0
H957 H 0.99975 0.52307 0.21982 0.0
H958 H 0.999 0.49252 0.20817 0.0
H959 H 0.99375 0.4732 0.26111 0.0
P960 P 0.31098 0.53807 0.62898 0.0
H961 H 0.31935 0.54617 0.66614 0.0
H962 H 0.30658 0.56738 0.68704 0.0
H963 H 0.26265 0.57453 0.65069 0.0
H964 H 0.27538 0.55333 0.62973 0.0
H965 H 0.34063 0.51446 0.62648 0.0
H966 H 0.34449 0.48345 0.63237 0.0
H967 H 0.28853 0.47734 0.64199 0.0
H968 H 0.2849 0.50919 0.63677 0.0
H969 H 0.3128 0.57319 0.61517 0.0
H970 H 0.2931 0.52198 0.59646 0.0
O971 O 0.33158 0.54623 0.63202 0.0
H972 H 0.30402 0.58616 0.58723 0.0
H973 H 0.28395 0.53503 0.56815 0.0
C974 C 0.29848 0.54841 0.64627 0.0
C975 C 0.30667 0.55184 0.66288 0.0
C976 C 0.29943 0.56395 0.6748 0.0
C977 C 0.28377 0.57254 0.67032 0.0
C978 C 0.27474 0.56795 0.65437 0.0
C979 C 0.28202 0.55586 0.64242 0.0
C980 C 0.31246 0.51427 0.63114 0.0
C981 C 0.32908 0.50655 0.62974 0.0
C982 C 0.33127 0.48862 0.63303 0.0
C983 C 0.31683 0.47765 0.63752 0.0
C984 C 0.30001 0.48535 0.6387 0.0
C985 C 0.29786 0.50352 0.63553 0.0
C986 C 0.3038 0.54659 0.60785 0.0
C987 C 0.30652 0.56472 0.60499 0.0
C988 C 0.30132 0.57218 0.58901 0.0
C989 C 0.29318 0.56171 0.57539 0.0
C990 C 0.29032 0.54346 0.5783 0.0
C991 C 0.2955 0.53597 0.59448 0.0
P992 P 0.27149 0.45445 0.01424 0.0
H993 H 0.28259 0.43911 0.04824 0.0
H994 H 0.30566 0.41766 0.0553 0.0
H995 H 0.32383 0.42028 0.00161 0.0
H996 H 0.30068 0.44058 0.99445 0.0
H997 H 0.25569 0.48843 0.02255 0.0
H998 H 0.26722 0.51886 0.02208 0.0
H999 H 0.31522 0.50039 0.9985 0.0
H1000 H 0.3034 0.47035 0.99829 0.0
H1001 H 0.25151 0.42167 0.01183 0.0
H1002 H 0.27349 0.45894 0.97542 0.0
O1003 O 0.25656 0.45429 0.03018 0.0
H1004 H 0.24684 0.39994 0.98768 0.0
H1005 H 0.26841 0.43719 0.95096 0.0
C1006 C 0.29009 0.44165 0.02089 0.0
C1007 C 0.29179 0.43528 0.03813 0.0
C1008 C 0.3049 0.42309 0.04216 0.0
C1009 C 0.31658 0.41759 0.02904 0.0
C1010 C 0.31525 0.42464 0.01207 0.0
C1011 C 0.30202 0.43635 0.00799 0.0
C1012 C 0.27874 0.47696 0.01074 0.0
C1013 C 0.2686 0.49094 0.01707 0.0
C1014 C 0.27531 0.50832 0.01701 0.0
C1015 C 0.29232 0.512 0.01063 0.0
C1016 C 0.30209 0.49804 0.00354 0.0
C1017 C 0.2953 0.48071 0.00349 0.0
C1018 C 0.2625 0.44205 0.99537 0.0
C1019 C 0.25467 0.42545 0.99849 0.0
C1020 C 0.25225 0.41293 0.98475 0.0
C1021 C 0.25746 0.41685 0.96755 0.0
C1022 C 0.26427 0.4339 0.96414 0.0
C1023 C 0.26699 0.44638 0.97804 0.0
P1024 P 0.72988 0.99496 0.34712 0.0
H1025 H 0.73929 0.96679 0.32102 0.0
H1026 H 0.72677 0.93685 0.31432 0.0
H1027 H 0.68489 0.94657 0.3508 0.0
H1028 H 0.69658 0.97622 0.3567 0.0
H1029 H 0.76107 0.01536 0.33615 0.0
H1030 H 0.76531 0.0413 0.31817 0.0
H1031 H 0.7087 0.045 0.31104 0.0
H1032 H 0.70449 0.01883 0.329 0.0
H1033 H 0.72669 0.97756 0.38006 0.0
H1034 H 0.70946 0.02703 0.35859 0.0
O1035 O 0.75019 0.98925 0.35357 0.0
H1036 H 0.71122 0.98409 0.40697 0.0
H1037 H 0.69409 0.03366 0.38573 0.0
C1038 C 0.71897 0.97418 0.33928 0.0
C1039 C 0.72711 0.96272 0.32714 0.0
C1040 C 0.71999 0.94553 0.32339 0.0
C1041 C 0.70487 0.93929 0.33214 0.0
C1042 C 0.69661 0.95088 0.34393 0.0
C1043 C 0.70348 0.968 0.34737 0.0
C1044 C 0.73247 0.01407 0.33296 0.0
C1045 C 0.74951 0.02123 0.33026 0.0
C1046 C 0.75196 0.03624 0.32 0.0
C1047 C 0.73737 0.04498 0.31274 0.0
C1048 C 0.72026 0.0384 0.31616 0.0
C1049 C 0.71785 0.02316 0.32616 0.0
C1050 C 0.71913 0.00155 0.36709 0.0
C1051 C 0.71943 0.98974 0.38102 0.0
C1052 C 0.71015 0.9933 0.39622 0.0
C1053 C 0.7008 0.0091 0.39809 0.0
C1054 C 0.7006 0.0211 0.38425 0.0
C1055 C 0.70964 0.0173 0.36875 0.0
P1056 P 0.66004 0.01143 0.05054 0.0
H1057 H 0.6438 0.03172 0.02284 0.0
H1058 H 0.65263 0.05982 0.0098 0.0
H1059 H 0.70354 0.05774 0.03676 0.0
H1060 H 0.69493 0.02949 0.04932 0.0
H1061 H 0.63262 0.98422 0.05017 0.0
H1062 H 0.63033 0.95524 0.03529 0.0
H1063 H 0.678 0.96679 0.00691 0.0
H1064 H 0.68018 0.99619 0.02167 0.0
H1065 H 0.67193 0.03243 0.081 0.0
H1066 H 0.68177 0.98037 0.059 0.0
O1067 O 0.64095 0.01762 0.05916 0.0
H1068 H 0.69414 0.02783 0.10433 0.0
H1069 H 0.70377 0.97566 0.08263 0.0
C1070 C 0.66842 0.02905 0.03759 0.0
C1071 C 0.65705 0.03707 0.02548 0.0
C1072 C 0.66217 0.05296 0.01789 0.0
C1073 C 0.67866 0.06089 0.02252 0.0
C1074 C 0.69073 0.05182 0.03313 0.0
C1075 C 0.68568 0.03583 0.04052 0.0
C1076 C 0.65636 0.99231 0.03671 0.0
C1077 C 0.64222 0.98083 0.04029 0.0
C1078 C 0.64093 0.96435 0.03185 0.0
C1079 C 0.6539 0.95919 0.01996 0.0
C1080 C 0.66778 0.97085 0.01587 0.0
C1081 C 0.66896 0.9875 0.02422 0.0
C1082 C 0.67524 0.00683 0.06829 0.0
C1083 C 0.67881 0.02001 0.08124 0.0
C1084 C 0.6916 0.01746 0.09438 0.0
C1085 C 0.70084 0.00156 0.09489 0.0
C1086 C 0.69694 0.9881 0.08223 0.0
C1087 C 0.68431 0.9908 0.06883 0.0
P1088 P 0.62867 0.31047 0.53683 0.0
H1089 H 0.66424 0.32056 0.5501 0.0
H1090 H 0.6843 0.30636 0.57089 0.0
H1091 H 0.65126 0.25887 0.5677 0.0
H1092 H 0.63102 0.27335 0.54716 0.0
H1093 H 0.61836 0.33645 0.51113 0.0
H1094 H 0.6255 0.34062 0.48017 0.0
H1095 H 0.65078 0.28993 0.47875 0.0
H1096 H 0.64375 0.28592 0.5101 0.0
H1097 H 0.61575 0.31248 0.57225 0.0
H1098 H 0.59551 0.29292 0.52152 0.0
O1099 O 0.63171 0.33144 0.5439 0.0
H1100 H 0.58762 0.30521 0.58568 0.0
H1101 H 0.56686 0.28552 0.53506 0.0
C1102 C 0.6459 0.29816 0.54749 0.0
C1103 C 0.66152 0.30695 0.55355 0.0
C1104 C 0.67306 0.29876 0.56538 0.0
C1105 C 0.66918 0.28162 0.57126 0.0
C1106 C 0.6544 0.27225 0.56374 0.0
C1107 C 0.64286 0.28046 0.55192 0.0
C1108 C 0.6306 0.31094 0.51301 0.0
C1109 C 0.62523 0.32608 0.50415 0.0
C1110 C 0.62949 0.32854 0.48645 0.0
C1111 C 0.639 0.31577 0.47704 0.0
C1112 C 0.64349 0.30006 0.48563 0.0
C1113 C 0.63941 0.29771 0.50353 0.0
C1114 C 0.60766 0.30354 0.54583 0.0
C1115 C 0.60518 0.30659 0.56397 0.0
C1116 C 0.58903 0.30246 0.57165 0.0
C1117 C 0.57484 0.29504 0.56142 0.0
C1118 C 0.57752 0.29126 0.5433 0.0
C1119 C 0.59383 0.29555 0.53553 0.0
P1120 P 0.05247 0.66207 0.012 0.0
H1121 H 0.01796 0.65039 0.02395 0.0
H1122 H 0.00285 0.65573 0.05172 0.0
H1123 H 0.04361 0.69444 0.06756 0.0
H1124 H 0.05803 0.68966 0.03963 0.0
H1125 H 0.05721 0.63636 0.98389 0.0
H1126 H 0.04152 0.63035 0.95578 0.0
H1127 H 0.00488 0.67175 0.96785 0.0
H1128 H 0.02065 0.67766 0.99633 0.0
H1129 H 0.08736 0.66814 0.02754 0.0
H1130 H 0.05475 0.6915 0.98703 0.0
O1131 O 0.06196 0.64352 0.01855 0.0
H1132 H 0.11031 0.69081 0.02322 0.0
H1133 H 0.07808 0.71412 0.98246 0.0
C1134 C 0.03906 0.66963 0.02972 0.0
C1135 C 0.02323 0.6605 0.03314 0.0
C1136 C 0.01472 0.66345 0.04908 0.0
C1137 C 0.02217 0.67531 0.06196 0.0
C1138 C 0.03737 0.68535 0.05789 0.0
C1139 C 0.04576 0.6825 0.04189 0.0
C1140 C 0.03974 0.65708 0.99228 0.0
C1141 C 0.04556 0.64387 0.98071 0.0
C1142 C 0.0366 0.64044 0.96472 0.0
C1143 C 0.02185 0.65038 0.95998 0.0
C1144 C 0.0161 0.66381 0.97146 0.0
C1145 C 0.02502 0.66711 0.98764 0.0
C1146 C 0.06953 0.67802 0.00744 0.0
C1147 C 0.08525 0.67799 0.01755 0.0
C1148 C 0.09826 0.69095 0.01517 0.0
C1149 C 0.09573 0.70407 0.0026 0.0
C1150 C 0.08013 0.70405 0.99223 0.0
C1151 C 0.06693 0.69113 0.9948 0.0
P1152 P 0.01533 0.27182 0.45385 0.0
H1153 H 0.04968 0.28241 0.439 0.0
H1154 H 0.05765 0.30589 0.41831 0.0
H1155 H 0.00416 0.32476 0.42005 0.0
H1156 H 0.9963 0.30155 0.44009 0.0
H1157 H 0.01676 0.25318 0.48704 0.0
H1158 H 0.01526 0.26322 0.51804 0.0
H1159 H 0.00584 0.31646 0.50125 0.0
H1160 H 0.0071 0.30654 0.47044 0.0
H1161 H 0.01124 0.24758 0.42398 0.0
H1162 H 0.97701 0.27816 0.45703 0.0
O1163 O 0.03091 0.25651 0.45373 0.0
H1164 H 0.98707 0.2419 0.40281 0.0
H1165 H 0.95233 0.27228 0.43584 0.0
C1166 C 0.02236 0.29017 0.44092 0.0
C1167 C 0.0398 0.29178 0.43505 0.0
C1168 C 0.04435 0.30515 0.42333 0.0
C1169 C 0.03155 0.31716 0.41778 0.0
C1170 C 0.01438 0.31589 0.42438 0.0
C1171 C 0.00982 0.30247 0.43572 0.0
C1172 C 0.01217 0.27906 0.47636 0.0
C1173 C 0.01423 0.26698 0.49 0.0
C1174 C 0.01349 0.27272 0.50765 0.0
C1175 C 0.01074 0.29063 0.51184 0.0
C1176 C 0.00833 0.30266 0.49822 0.0
C1177 C 0.0089 0.29688 0.48058 0.0
C1178 C 0.99587 0.26298 0.44225 0.0
C1179 C 0.99827 0.25246 0.42705 0.0
C1180 C 0.98437 0.24929 0.41486 0.0
C1181 C 0.96768 0.25667 0.41752 0.0
C1182 C 0.96504 0.26654 0.43327 0.0
C1183 C 0.97905 0.26967 0.44555 0.0
P1184 P 0.34621 0.72978 0.99459 0.0
H1185 H 0.32151 0.74091 0.96586 0.0
H1186 H 0.31385 0.72837 0.93624 0.0
H1187 H 0.34867 0.685 0.94627 0.0
H1188 H 0.3542 0.69611 0.97596 0.0
H1189 H 0.33839 0.76153 0.01548 0.0
H1190 H 0.3217 0.76714 0.04185 0.0
H1191 H 0.30814 0.71149 0.04447 0.0
H1192 H 0.32518 0.70587 0.01783 0.0
H1193 H 0.37876 0.72179 0.97757 0.0
H1194 H 0.35638 0.71278 0.02886 0.0
O1195 O 0.35405 0.74965 0.98896 0.0
H1196 H 0.40599 0.70854 0.98748 0.0
H1197 H 0.38405 0.7003 0.03899 0.0
C1198 C 0.33827 0.71948 0.97359 0.0
C1199 C 0.32692 0.72835 0.9619 0.0
C1200 C 0.32283 0.7213 0.94474 0.0
C1201 C 0.33041 0.7054 0.93867 0.0
C1202 C 0.34204 0.69692 0.95036 0.0
C1203 C 0.34556 0.70359 0.96754 0.0
C1204 C 0.33181 0.73345 0.01337 0.0
C1205 C 0.33121 0.75053 0.02105 0.0
C1206 C 0.32187 0.75372 0.03649 0.0
C1207 C 0.31329 0.73981 0.04517 0.0
C1208 C 0.31405 0.7226 0.03777 0.0
C1209 C 0.32344 0.71943 0.02219 0.0
C1210 C 0.3653 0.71812 0.00223 0.0
C1211 C 0.37947 0.71651 0.99078 0.0
C1212 C 0.39493 0.70862 0.99638 0.0
C1213 C 0.39689 0.70297 0.01389 0.0
C1214 C 0.38258 0.70405 0.02529 0.0
C1215 C 0.36679 0.71147 0.01945 0.0
P1216 P 0.53702 0.62872 0.31148 0.0
H1217 H 0.54478 0.66616 0.31916 0.0
H1218 H 0.56499 0.68745 0.30564 0.0
H1219 H 0.57356 0.6497 0.263 0.0
H1220 H 0.55314 0.62875 0.27636 0.0
H1221 H 0.5132 0.62725 0.34107 0.0
H1222 H 0.48221 0.63333 0.34453 0.0
H1223 H 0.47645 0.64105 0.28818 0.0
H1224 H 0.50831 0.63565 0.28493 0.0
H1225 H 0.57141 0.61392 0.31604 0.0
H1226 H 0.52166 0.59689 0.29147 0.0
O1227 O 0.54496 0.63206 0.33214 0.0
H1228 H 0.58417 0.58556 0.30848 0.0
H1229 H 0.5346 0.568 0.28367 0.0
C1230 C 0.54763 0.64579 0.2989 0.0
C1231 C 0.55068 0.66267 0.30666 0.0
C1232 C 0.56238 0.67476 0.29902 0.0
C1233 C 0.57114 0.67021 0.28339 0.0
C1234 C 0.56701 0.65372 0.275 0.0
C1235 C 0.55533 0.64166 0.28266 0.0
C1236 C 0.51321 0.63097 0.31273 0.0
C1237 C 0.50538 0.63013 0.32935 0.0
C1238 C 0.48745 0.63352 0.33131 0.0
C1239 C 0.47658 0.63755 0.31664 0.0
C1240 C 0.48438 0.63813 0.29983 0.0
C1241 C 0.50256 0.63486 0.2979 0.0
C1242 C 0.54545 0.60738 0.30477 0.0
C1243 C 0.56316 0.60398 0.30907 0.0
C1244 C 0.57048 0.58773 0.30471 0.0
C1245 C 0.56034 0.57439 0.29573 0.0
C1246 C 0.54272 0.57801 0.29066 0.0
C1247 C 0.53529 0.59443 0.2952 0.0
P1248 P 0.01157 0.049 0.66311 0.0
H1249 H 0.03079 0.02069 0.64681 0.0
H1250 H 0.0592 0.00781 0.65481 0.0
H1251 H 0.05898 0.03544 0.70541 0.0
H1252 H 0.0303 0.04779 0.69775 0.0
H1253 H 0.98569 0.04978 0.63449 0.0
H1254 H 0.95664 0.03533 0.63041 0.0
H1255 H 0.96546 0.00553 0.67774 0.0
H1256 H 0.99496 0.01979 0.68168 0.0
H1257 H 0.03232 0.07879 0.67722 0.0
H1258 H 0.97904 0.05778 0.6824 0.0
O1259 O 0.01854 0.05823 0.64458 0.0
H1260 H 0.02551 0.10347 0.69725 0.0
H1261 H 0.97217 0.0828 0.70205 0.0
C1262 C 0.02887 0.0356 0.67144 0.0
C1263 C 0.03649 0.02336 0.65992 0.0
C1264 C 0.05254 0.01585 0.66456 0.0
C1265 C 0.06101 0.02068 0.6807 0.0
C1266 C 0.05243 0.03144 0.693 0.0
C1267 C 0.03624 0.03874 0.68845 0.0
C1268 C 0.99248 0.0355 0.65813 0.0
C1269 C 0.98172 0.03964 0.64361 0.0
C1270 C 0.9652 0.03145 0.6413 0.0
C1271 C 0.95925 0.01926 0.65365 0.0
C1272 C 0.97015 0.01469 0.66797 0.0
C1273 C 0.98687 0.02276 0.67015 0.0
C1274 C 0.00628 0.06644 0.67841 0.0
C1275 C 0.01925 0.0794 0.6828 0.0
C1276 C 0.01541 0.09334 0.69429 0.0
C1277 C 0.99846 0.09464 0.7013 0.0
C1278 C 0.9854 0.08175 0.69694 0.0
C1279 C 0.98935 0.06755 0.68565 0.0
P1280 P 0.45491 0.01379 0.27174 0.0
H1281 H 0.43945 0.04797 0.28204 0.0
H1282 H 0.41773 0.05546 0.30473 0.0
H1283 H 0.41993 0.00209 0.32381 0.0
H1284 H 0.4405 0.99448 0.30101 0.0
H1285 H 0.48914 0.0205 0.25588 0.0
H1286 H 0.51945 0.01961 0.26757 0.0
H1287 H 0.50017 0.99856 0.31646 0.0
H1288 H 0.47021 0.99877 0.30449 0.0
H1289 H 0.4229 0.01152 0.25045 0.0
H1290 H 0.45853 0.97502 0.27481 0.0
O1291 O 0.45525 0.02962 0.25668 0.0
H1292 H 0.4009 0.9877 0.24551 0.0
H1293 H 0.43647 0.9509 0.26969 0.0
C1294 C 0.44182 0.02074 0.29003 0.0
C1295 C 0.43547 0.03802 0.29135 0.0
C1296 C 0.42312 0.0423 0.30423 0.0
C1297 C 0.41745 0.02939 0.31606 0.0
C1298 C 0.42443 0.01238 0.31509 0.0
C1299 C 0.43628 0.00805 0.30206 0.0
C1300 C 0.47726 0.01001 0.27935 0.0
C1301 C 0.49144 0.01548 0.26902 0.0
C1302 C 0.50877 0.01517 0.27583 0.0
C1303 C 0.51221 0.00942 0.29314 0.0
C1304 C 0.49802 0.00311 0.3031 0.0
C1305 C 0.48073 0.00332 0.29622 0.0
C1306 C 0.44249 0.99498 0.26266 0.0
C1307 C 0.42627 0.9982 0.2541 0.0
C1308 C 0.41357 0.98465 0.25155 0.0
C1309 C 0.41689 0.96753 0.25744 0.0
C1310 C 0.43361 0.96399 0.26499 0.0
C1311 C 0.44628 0.9777 0.26775 0.0
P1312 P 0.99579 0.34623 0.72957 0.0
H1313 H 0.96592 0.32359 0.74175 0.0
H1314 H 0.93576 0.31772 0.72957 0.0
H1315 H 0.94901 0.34749 0.68343 0.0
H1316 H 0.9791 0.35128 0.69436 0.0
H1317 H 0.01618 0.33822 0.76154 0.0
H1318 H 0.04215 0.32109 0.76748 0.0
H1319 H 0.04595 0.30849 0.7117 0.0
H1320 H 0.01931 0.3255 0.70583 0.0
H1321 H 0.97788 0.37776 0.71962 0.0
H1322 H 0.03035 0.35704 0.71376 0.0
O1323 O 0.99008 0.35432 0.74932 0.0
H1324 H 0.98765 0.4052 0.70668 0.0
H1325 H 0.04025 0.38486 0.70145 0.0
C1326 C 0.97498 0.33811 0.7192 0.0
C1327 C 0.9625 0.32825 0.72871 0.0
C1328 C 0.94515 0.32507 0.72179 0.0
C1329 C 0.93975 0.33233 0.70554 0.0
C1330 C 0.95244 0.3419 0.6961 0.0
C1331 C 0.96985 0.3442 0.70248 0.0
C1332 C 0.01454 0.33191 0.73339 0.0
C1333 C 0.0219 0.33111 0.75058 0.0
C1334 C 0.03715 0.32158 0.75395 0.0
C1335 C 0.04605 0.31313 0.74011 0.0
C1336 C 0.03908 0.3143 0.72276 0.0
C1337 C 0.02357 0.32373 0.71942 0.0
C1338 C 0.0032 0.36516 0.71757 0.0
C1339 C 0.99133 0.37884 0.715 0.0
C1340 C 0.99686 0.39442 0.70729 0.0
C1341 C 0.01466 0.39696 0.70279 0.0
C1342 C 0.02638 0.38296 0.70442 0.0
C1343 C 0.02067 0.3671 0.71174 0.0
P1344 P 0.72894 0.47769 0.37428 0.0
H1345 H 0.74946 0.47214 0.34246 0.0
H1346 H 0.75164 0.44681 0.32208 0.0
H1347 H 0.70674 0.42157 0.3463 0.0
H1348 H 0.70465 0.44708 0.36687 0.0
H1349 H 0.73416 0.51435 0.38604 0.0
H1350 H 0.71916 0.54175 0.37891 0.0
H1351 H 0.67987 0.51183 0.34778 0.0
H1352 H 0.69514 0.48416 0.35475 0.0
H1353 H 0.75268 0.4572 0.39576 0.0
H1354 H 0.69825 0.47276 0.39779 0.0
O1355 O 0.74999 0.485 0.37488 0.0
H1356 H 0.74947 0.44101 0.42294 0.0
H1357 H 0.69463 0.45592 0.42504 0.0
C1358 C 0.72712 0.46135 0.35644 0.0
C1359 C 0.73982 0.46137 0.3432 0.0
C1360 C 0.74108 0.44685 0.33154 0.0
C1361 C 0.72952 0.43209 0.33277 0.0
C1362 C 0.7158 0.43277 0.34503 0.0
C1363 C 0.71464 0.44731 0.35683 0.0
C1364 C 0.71584 0.49717 0.37087 0.0
C1365 C 0.72222 0.51356 0.37782 0.0
C1366 C 0.71368 0.52924 0.37373 0.0
C1367 C 0.69844 0.52886 0.36278 0.0
C1368 C 0.69164 0.51242 0.35624 0.0
C1369 C 0.7003 0.49664 0.36028 0.0
C1370 C 0.72583 0.46655 0.39496 0.0
C1371 C 0.73999 0.4572 0.40215 0.0
C1372 C 0.73805 0.44768 0.41764 0.0
C1373 C 0.72175 0.447 0.42628 0.0
C1374 C 0.70745 0.45631 0.41893 0.0
C1375 C 0.70947 0.46594 0.40334 0.0
P1376 P 0.69561 0.53651 0.00981 0.0
H1377 H 0.66636 0.53481 0.98409 0.0
H1378 H 0.65451 0.55846 0.96622 0.0
H1379 H 0.70319 0.58887 0.97526 0.0
H1380 H 0.71525 0.56486 0.992 0.0
H1381 H 0.70826 0.50981 0.03313 0.0
H1382 H 0.70728 0.47781 0.02975 0.0
H1383 H 0.69653 0.48237 0.97357 0.0
H1384 H 0.69714 0.51459 0.97722 0.0
H1385 H 0.68693 0.5637 0.03527 0.0
H1386 H 0.73449 0.54085 0.01514 0.0
O1387 O 0.67626 0.53388 0.01977 0.0
H1388 H 0.70459 0.58661 0.05111 0.0
H1389 H 0.7524 0.56413 0.03127 0.0
C1390 C 0.69124 0.5486 0.99013 0.0
C1391 C 0.6748 0.54618 0.98142 0.0
C1392 C 0.66805 0.55972 0.97121 0.0
C1393 C 0.67756 0.57588 0.97018 0.0
C1394 C 0.69534 0.57675 0.97608 0.0
C1395 C 0.7022 0.56305 0.98597 0.0
C1396 C 0.70295 0.51455 0.00545 0.0
C1397 C 0.70655 0.50396 0.01994 0.0
C1398 C 0.70592 0.48559 0.01795 0.0
C1399 C 0.7017 0.47749 0.00136 0.0
C1400 C 0.6996 0.48821 0.98654 0.0
C1401 C 0.70016 0.50665 0.9886 0.0
C1402 C 0.70943 0.5503 0.02441 0.0
C1403 C 0.70122 0.5633 0.03465 0.0
C1404 C 0.71127 0.57653 0.04352 0.0
C1405 C 0.72971 0.57708 0.04223 0.0
C1406 C 0.73813 0.56385 0.03238 0.0
C1407 C 0.72798 0.55051 0.02339 0.0
P1408 P 0.32829 0.9911 0.69243 0.0
H1409 H 0.35749 0.01378 0.70754 0.0
H1410 H 0.36113 0.04583 0.71243 0.0
H1411 H 0.30648 0.05253 0.69715 0.0
H1412 H 0.30372 0.02058 0.69028 0.0
H1413 H 0.33582 0.95588 0.70458 0.0
H1414 H 0.31771 0.93355 0.7186 0.0
H1415 H 0.27648 0.9715 0.72597 0.0
H1416 H 0.29503 0.99394 0.71174 0.0
H1417 H 0.34159 0.9823 0.65714 0.0
H1418 H 0.2906 0.98771 0.68066 0.0
O1419 O 0.34895 0.9839 0.69127 0.0
H1420 H 0.32755 0.97924 0.6281 0.0
H1421 H 0.27622 0.98339 0.65186 0.0
C1422 C 0.33009 0.01462 0.69859 0.0
C1423 C 0.34619 0.02205 0.70531 0.0
C1424 C 0.34824 0.04045 0.70829 0.0
C1425 C 0.33406 0.05185 0.70523 0.0
C1426 C 0.3176 0.04417 0.69986 0.0
C1427 C 0.31593 0.02589 0.69589 0.0
C1428 C 0.317 0.97687 0.7076 0.0
C1429 C 0.32322 0.95972 0.70982 0.0
C1430 C 0.31277 0.94686 0.71778 0.0
C1431 C 0.29569 0.95078 0.72348 0.0
C1432 C 0.28961 0.96811 0.72176 0.0
C1433 C 0.30029 0.98105 0.71395 0.0
C1434 C 0.31737 0.98646 0.67111 0.0
C1435 C 0.32735 0.98279 0.65614 0.0
C1436 C 0.31913 0.98058 0.63941 0.0
C1437 C 0.30063 0.98196 0.63728 0.0
C1438 C 0.29054 0.98329 0.65268 0.0
C1439 C 0.29883 0.98575 0.66935 0.0
P1440 P 0.29737 0.99342 0.95611 0.0
H1441 H 0.29114 0.97084 0.9864 0.0
H1442 H 0.29915 0.94035 0.99247 0.0
H1443 H 0.33176 0.93978 0.94617 0.0
H1444 H 0.32331 0.97011 0.94001 0.0
H1445 H 0.28836 0.03004 0.96137 0.0
H1446 H 0.30534 0.05653 0.97029 0.0
H1447 H 0.35158 0.0249 0.97929 0.0
H1448 H 0.33439 0.99833 0.96957 0.0
H1449 H 0.27508 0.97387 0.92995 0.0
H1450 H 0.31538 0.01519 0.92965 0.0
O1451 O 0.27697 0.99462 0.964 0.0
H1452 H 0.27179 0.97528 0.89771 0.0
H1453 H 0.3117 0.01727 0.89773 0.0
C1454 C 0.30622 0.97249 0.96246 0.0
C1455 C 0.3002 0.9642 0.97769 0.0
C1456 C 0.30492 0.9468 0.98123 0.0
C1457 C 0.31583 0.93745 0.9696 0.0
C1458 C 0.32298 0.94642 0.95515 0.0
C1459 C 0.31821 0.96379 0.95163 0.0
C1460 C 0.31002 0.01221 0.96504 0.0
C1461 C 0.30208 0.02875 0.96553 0.0
C1462 C 0.31185 0.04392 0.97077 0.0
C1463 C 0.32988 0.04294 0.97573 0.0
C1464 C 0.33778 0.02621 0.97546 0.0
C1465 C 0.32793 0.01097 0.97006 0.0
C1466 C 0.29538 0.99448 0.93226 0.0
C1467 C 0.28316 0.98331 0.92294 0.0
C1468 C 0.2812 0.98425 0.90449 0.0
C1469 C 0.29145 0.99642 0.89495 0.0
C1470 C 0.30376 0.00751 0.90445 0.0
C1471 C 0.30578 0.00646 0.92285 0.0
P1472 P 0.3737 0.72959 0.47609 0.0
H1473 H 0.34574 0.75332 0.46496 0.0
H1474 H 0.32551 0.75302 0.4396 0.0
H1475 H 0.34289 0.70083 0.42427 0.0
H1476 H 0.36386 0.70163 0.4496 0.0
H1477 H 0.39168 0.72971 0.51037 0.0
H1478 H 0.38573 0.71488 0.53813 0.0
H1479 H 0.34218 0.68558 0.51264 0.0
H1480 H 0.34824 0.70051 0.48469 0.0
H1481 H 0.3936 0.75287 0.4537 0.0
H1482 H 0.39942 0.70041 0.47398 0.0
O1483 O 0.37383 0.75047 0.48388 0.0
H1484 H 0.42147 0.75038 0.43836 0.0
H1485 H 0.4277 0.69781 0.45864 0.0
C1486 C 0.35636 0.72749 0.45922 0.0
C1487 C 0.34508 0.74167 0.45635 0.0
C1488 C 0.33334 0.74142 0.44178 0.0
C1489 C 0.33244 0.72689 0.42975 0.0
C1490 C 0.34333 0.71236 0.43307 0.0
C1491 C 0.35521 0.71269 0.44766 0.0
C1492 C 0.37057 0.71611 0.49536 0.0
C1493 C 0.38107 0.71983 0.5106 0.0
C1494 C 0.37762 0.71139 0.5265 0.0
C1495 C 0.3635 0.69905 0.52757 0.0
C1496 C 0.35309 0.6951 0.51222 0.0
C1497 C 0.35665 0.70352 0.49621 0.0
C1498 C 0.39463 0.727 0.46532 0.0
C1499 C 0.40102 0.74085 0.45501 0.0
C1500 C 0.41702 0.73942 0.44626 0.0
C1501 C 0.42701 0.724 0.44744 0.0
C1502 C 0.42035 0.70989 0.45745 0.0
C1503 C 0.40426 0.71138 0.46633 0.0
P1504 P 0.95498 0.29635 0.99315 0.0
H1505 H 0.98252 0.28561 0.96882 0.0
H1506 H 0.98952 0.2943 0.93891 0.0
H1507 H 0.95067 0.33537 0.94198 0.0
H1508 H 0.94324 0.326 0.97174 0.0
H1509 H 0.95696 0.2883 0.03019 0.0
H1510 H 0.966 0.30526 0.05668 0.0
H1511 H 0.98051 0.34972 0.02451 0.0
H1512 H 0.97088 0.33258 0.99787 0.0
H1513 H 0.92953 0.26821 0.98226 0.0
H1514 H 0.92783 0.32089 0.00524 0.0
O1515 O 0.96274 0.27594 0.99501 0.0
H1516 H 0.89737 0.26504 0.98455 0.0
H1517 H 0.89561 0.3178 0.00764 0.0
C1518 C 0.96202 0.30486 0.9723 0.0
C1519 C 0.97558 0.29657 0.96311 0.0
C1520 C 0.97973 0.30171 0.94601 0.0
C1521 C 0.97049 0.3154 0.93783 0.0
C1522 C 0.95775 0.32449 0.94765 0.0
C1523 C 0.95352 0.3192 0.96471 0.0
C1524 C 0.96336 0.3091 0.01208 0.0
C1525 C 0.96227 0.30163 0.0288 0.0
C1526 C 0.96759 0.31136 0.04396 0.0
C1527 C 0.97417 0.32888 0.04279 0.0
C1528 C 0.97541 0.33633 0.02592 0.0
C1529 C 0.97 0.3265 0.01066 0.0
C1530 C 0.93111 0.29467 0.99384 0.0
C1531 C 0.92223 0.2791 0.98781 0.0
C1532 C 0.90383 0.27728 0.9892 0.0
C1533 C 0.8939 0.2911 0.99643 0.0
C1534 C 0.90283 0.30693 0.00193 0.0
C1535 C 0.92127 0.30868 1.00065 0.0
P1536 P 0.01001 0.69686 0.53688 0.0
H1537 H 0.98402 0.66793 0.53481 0.0
H1538 H 0.96571 0.65591 0.55804 0.0
H1539 H 0.97572 0.70367 0.58968 0.0
H1540 H 0.99293 0.71593 0.56611 0.0
H1541 H 0.03253 0.70756 0.50854 0.0
H1542 H 0.02762 0.70317 0.4766 0.0
H1543 H 0.97184 0.6943 0.48461 0.0
H1544 H 0.97661 0.69906 0.51648 0.0
H1545 H 0.0364 0.68834 0.56312 0.0
H1546 H 0.01482 0.73581 0.5414 0.0
O1547 O 0.02001 0.67752 0.53428 0.0
H1548 H 0.05301 0.706 0.58541 0.0
H1549 H 0.03161 0.75376 0.56423 0.0
C1550 C 0.99057 0.69235 0.54925 0.0
C1551 C 0.98151 0.67614 0.5464 0.0
C1552 C 0.97103 0.66931 0.55966 0.0
C1553 C 0.97009 0.67846 0.57603 0.0
C1554 C 0.97645 0.69609 0.57739 0.0
C1555 C 0.98663 0.70305 0.56395 0.0
C1556 C 0.00498 0.70362 0.51487 0.0
C1557 C 0.0191 0.70575 0.50337 0.0
C1558 C 0.01633 0.70307 0.48519 0.0
C1559 C 0.99941 0.69828 0.47844 0.0
C1560 C 0.98497 0.69801 0.48969 0.0
C1561 C 0.98773 0.70081 0.50788 0.0
C1562 C 0.02481 0.71081 0.55026 0.0
C1563 C 0.0356 0.70263 0.56282 0.0
C1564 C 0.04492 0.71267 0.5757 0.0
C1565 C 0.04345 0.7311 0.57644 0.0
C1566 C 0.03286 0.7395 0.56379 0.0
C1567 C 0.02351 0.72934 0.55069 0.0
P1568 P 0.69335 0.32954 0.99128 0.0
H1569 H 0.71215 0.35631 0.01399 0.0
H1570 H 0.71735 0.35909 0.04587 0.0
H1571 H 0.69524 0.30637 0.05184 0.0
H1572 H 0.68934 0.30437 0.02001 0.0
H1573 H 0.70325 0.3366 0.9554 0.0
H1574 H 0.71395 0.31718 0.93215 0.0
H1575 H 0.7247 0.27712 0.97056 0.0
H1576 H 0.71412 0.29708 0.99406 0.0
H1577 H 0.65835 0.34335 0.98219 0.0
H1578 H 0.68112 0.29216 0.98828 0.0
O1579 O 0.69224 0.35055 0.98502 0.0
H1580 H 0.629 0.32957 0.97893 0.0
H1581 H 0.65202 0.27804 0.98422 0.0
C1582 C 0.70006 0.33011 0.01456 0.0
C1583 C 0.7085 0.34528 0.02216 0.0
C1584 C 0.71143 0.34687 0.04056 0.0
C1585 C 0.70606 0.33324 0.0519 0.0
C1586 C 0.69939 0.31733 0.04387 0.0
C1587 C 0.69598 0.31603 0.02552 0.0
C1588 C 0.70801 0.31833 0.97654 0.0
C1589 C 0.70863 0.324 0.95905 0.0
C1590 C 0.71456 0.31278 0.9457 0.0
C1591 C 0.71976 0.29552 0.94951 0.0
C1592 C 0.72074 0.29036 0.96726 0.0
C1593 C 0.71483 0.30177 0.98071 0.0
C1594 C 0.67187 0.31896 0.98677 0.0
C1595 C 0.65707 0.32913 0.98287 0.0
C1596 C 0.64026 0.3211 0.98056 0.0
C1597 C 0.63792 0.30264 0.98205 0.0
C1598 C 0.65311 0.29234 0.98386 0.0
C1599 C 0.66987 0.30045 0.98631 0.0
P1600 P 0.47472 0.37557 0.73089 0.0
H1601 H 0.47272 0.33905 0.74221 0.0
H1602 H 0.4486 0.31703 0.74213 0.0
H1603 H 0.4154 0.35262 0.71287 0.0
H1604 H 0.43987 0.37407 0.71231 0.0
H1605 H 0.51139 0.38636 0.73707 0.0
H1606 H 0.53881 0.37872 0.72262 0.0
H1607 H 0.50889 0.34939 0.68186 0.0
H1608 H 0.4812 0.35693 0.69668 0.0
H1609 H 0.45691 0.39872 0.75549 0.0
H1610 H 0.46998 0.39893 0.70026 0.0
O1611 O 0.48129 0.37463 0.7521 0.0
H1612 H 0.4414 0.42632 0.75232 0.0
H1613 H 0.45383 0.42656 0.69673 0.0
C1614 C 0.45803 0.3583 0.72754 0.0
C1615 C 0.46035 0.34192 0.73546 0.0
C1616 C 0.44642 0.32941 0.73556 0.0
C1617 C 0.42978 0.3331 0.72783 0.0
C1618 C 0.42794 0.34916 0.71891 0.0
C1619 C 0.44196 0.36159 0.7187 0.0
C1620 C 0.49427 0.37204 0.71808 0.0
C1621 C 0.51064 0.37841 0.72495 0.0
C1622 C 0.52633 0.37395 0.71672 0.0
C1623 C 0.52601 0.36325 0.70125 0.0
C1624 C 0.50952 0.35763 0.69379 0.0
C1625 C 0.49372 0.36193 0.70223 0.0
C1626 C 0.46494 0.39696 0.72821 0.0
C1627 C 0.45659 0.40483 0.74266 0.0
C1628 C 0.44746 0.42055 0.74076 0.0
C1629 C 0.44618 0.42868 0.72423 0.0
C1630 C 0.45469 0.4208 0.70971 0.0
C1631 C 0.46394 0.40501 0.71168 0.0
P1632 P 0.99469 0.95505 0.29728 0.0
H1633 H 0.97283 0.98407 0.28554 0.0
H1634 H 0.94252 0.99235 0.29199 0.0
H1635 H 0.93988 0.95229 0.3317 0.0
H1636 H 0.97026 0.94369 0.32492 0.0
H1637 H 0.03008 0.96817 0.28886 0.0
H1638 H 0.05597 0.97695 0.30733 0.0
H1639 H 0.02551 0.96935 0.35429 0.0
H1640 H 0.9994 0.96096 0.33574 0.0
H1641 H 0.97632 0.92862 0.27436 0.0
H1642 H 0.01375 0.92864 0.31831 0.0
O1643 O 0.99757 0.96179 0.27663 0.0
H1644 H 0.97826 0.89637 0.27132 0.0
H1645 H 0.01549 0.89656 0.31562 0.0
C1646 C 0.9736 0.96295 0.30443 0.0
C1647 C 0.96586 0.97717 0.29579 0.0
C1648 C 0.94859 0.982 0.29956 0.0
C1649 C 0.93889 0.97291 0.31228 0.0
C1650 C 0.94715 0.95957 0.32192 0.0
C1651 C 0.96441 0.95457 0.31796 0.0
C1652 C 0.01274 0.96411 0.31092 0.0
C1653 C 0.02879 0.96882 0.30311 0.0
C1654 C 0.04358 0.97383 0.31365 0.0
C1655 C 0.04266 0.97381 0.33218 0.0
C1656 C 0.02649 0.96946 0.34001 0.0
C1657 C 0.01159 0.96474 0.32943 0.0
C1658 C 0.99496 0.93112 0.29646 0.0
C1659 C 0.98481 0.92167 0.28348 0.0
C1660 C 0.98588 0.9032 0.28181 0.0
C1661 C 0.99715 0.89379 0.29313 0.0
C1662 C 0.00693 0.90334 0.30644 0.0
C1663 C 0.00584 0.92178 0.30809 0.0
P1664 P 0.53465 0.01311 0.69648 0.0
H1665 H 0.54227 0.99784 0.66185 0.0
H1666 H 0.56702 0.98048 0.65238 0.0
H1667 H 0.58103 0.9706 0.70704 0.0
H1668 H 0.556 0.98821 0.71648 0.0
H1669 H 0.50782 0.0326 0.71468 0.0
H1670 H 0.47582 0.02901 0.71039 0.0
H1671 H 0.48254 0.97592 0.68982 0.0
H1672 H 0.51453 0.97954 0.69407 0.0
H1673 H 0.55959 0.04058 0.68783 0.0
H1674 H 0.54264 0.01494 0.7352 0.0
O1675 O 0.52993 0.02466 0.67845 0.0
H1676 H 0.58429 0.05466 0.70417 0.0
H1677 H 0.56778 0.02932 0.7519 0.0
C1678 C 0.54776 0.9948 0.68985 0.0
C1679 C 0.55024 0.99144 0.67181 0.0
C1680 C 0.56437 0.98133 0.6664 0.0
C1681 C 0.57619 0.97448 0.67902 0.0
C1682 C 0.57228 0.976 0.69707 0.0
C1683 C 0.55802 0.98606 0.70247 0.0
C1684 C 0.51355 0.00642 0.70461 0.0
C1685 C 0.50238 0.01978 0.71037 0.0
C1686 C 0.48411 0.01778 0.70774 0.0
C1687 C 0.47689 0.00233 0.69943 0.0
C1688 C 0.48784 0.98794 0.69624 0.0
C1689 C 0.50616 0.99001 0.69876 0.0
C1690 C 0.54904 0.02701 0.71037 0.0
C1691 C 0.56084 0.03841 0.70192 0.0
C1692 C 0.57514 0.04628 0.71122 0.0
C1693 C 0.57805 0.04285 0.72919 0.0
C1694 C 0.56576 0.03213 0.73802 0.0
C1695 C 0.55137 0.02407 0.72856 0.0
P1696 P 0.99134 0.69298 0.32819 0.0
H1697 H 0.01384 0.7132 0.35479 0.0
H1698 H 0.04572 0.71732 0.3582 0.0
H1699 H 0.05133 0.6967 0.30479 0.0
H1700 H 0.02008 0.68921 0.30363 0.0
H1701 H 0.95518 0.70374 0.33435 0.0
H1702 H 0.93334 0.71751 0.31501 0.0
H1703 H 0.97365 0.72718 0.27663 0.0
H1704 H 0.99563 0.71404 0.29657 0.0
H1705 H 0.98618 0.65669 0.3408 0.0
H1706 H 0.98671 0.68207 0.29028 0.0
O1707 O 0.9845 0.69127 0.34895 0.0
H1708 H 0.98365 0.62767 0.32546 0.0
H1709 H 0.98432 0.65322 0.27507 0.0
C1710 C 0.0146 0.70003 0.32914 0.0
C1711 C 0.02212 0.7091 0.34401 0.0
C1712 C 0.04062 0.71179 0.34575 0.0
C1713 C 0.05205 0.70657 0.33206 0.0
C1714 C 0.04379 0.69982 0.31627 0.0
C1715 C 0.02557 0.69594 0.3152 0.0
C1716 C 0.97715 0.70814 0.31696 0.0
C1717 C 0.95954 0.70952 0.32216 0.0
C1718 C 0.94703 0.71726 0.31105 0.0
C1719 C 0.95187 0.72327 0.29435 0.0
C1720 C 0.96965 0.72264 0.28947 0.0
C1721 C 0.98224 0.71535 0.30088 0.0
C1722 C 0.98745 0.67167 0.3168 0.0
C1723 C 0.98568 0.65612 0.32647 0.0
C1724 C 0.98404 0.63956 0.3177 0.0
C1725 C 0.98422 0.63827 0.29912 0.0
C1726 C 0.98438 0.65386 0.28942 0.0
C1727 C 0.98601 0.6704 0.29819 0.0
H1728 H 0.16096 0.67153 0.32818 0.0
H1729 H 0.07417 0.72198 0.35912 0.0
H1730 H 0.15853 0.70111 0.37762 0.0
H1731 H 0.07735 0.6896 0.31119 0.0
H1732 H 0.10529 0.71656 0.36512 0.0
H1733 H 0.13071 0.67997 0.32104 0.0
C1734 C 0.15418 0.67989 0.33754 0.0
C1735 C 0.16254 0.68556 0.35359 0.0
C1736 C 0.09903 0.71073 0.35327 0.0
C1737 C 0.12742 0.69519 0.34547 0.0
C1738 C 0.081 0.71374 0.34976 0.0
C1739 C 0.07213 0.70598 0.33472 0.0
C1740 C 0.10858 0.69995 0.34169 0.0
C1741 C 0.08274 0.69607 0.32302 0.0
C1742 C 0.13677 0.68465 0.33346 0.0
C1743 C 0.1527 0.69614 0.36522 0.0
N1744 N 0.1001 0.69325 0.32687 0.0
N1745 N 0.13574 0.70058 0.36095 0.0
H1746 H 0.35256 0.26428 0.77461 0.0
H1747 H 0.40096 0.32588 0.70512 0.0
H1748 H 0.32317 0.29602 0.73796 0.0
H1749 H 0.42241 0.3129 0.75664 0.0
H1750 H 0.37406 0.3086 0.71154 0.0
H1751 H 0.38008 0.27466 0.76162 0.0
C1752 C 0.35188 0.27321 0.76361 0.0
C1753 C 0.33557 0.27967 0.75768 0.0
C1754 C 0.38484 0.30939 0.72124 0.0
C1755 C 0.36706 0.29156 0.74272 0.0
C1756 C 0.40017 0.31935 0.71769 0.0
C1757 C 0.41412 0.32103 0.73037 0.0
C1758 C 0.38357 0.30078 0.73744 0.0
C1759 C 0.41233 0.31186 0.74625 0.0
C1760 C 0.36759 0.27914 0.75623 0.0
C1761 C 0.33547 0.29084 0.74305 0.0
N1762 N 0.39738 0.30222 0.74931 0.0
N1763 N 0.35104 0.29669 0.73622 0.0
H1764 H 0.68291 0.99635 0.65152 0.0
H1765 H 0.58511 0.95422 0.65017 0.0
H1766 H 0.65599 0.97244 0.60562 0.0
H1767 H 0.60788 0.98441 0.69462 0.0
H1768 H 0.61392 0.95479 0.63625 0.0
H1769 H 0.6579 0.98722 0.66967 0.0
C1770 C 0.67175 0.98918 0.6453 0.0
C1771 C 0.67131 0.98542 0.62702 0.0
C1772 C 0.6127 0.96097 0.64923 0.0
C1773 C 0.643 0.97475 0.64759 0.0
C1774 C 0.5963 0.96054 0.6572 0.0
C1775 C 0.59404 0.96955 0.67338 0.0
C1776 C 0.62688 0.97057 0.65747 0.0
C1777 C 0.60901 0.97732 0.68209 0.0
C1778 C 0.65756 0.98393 0.65564 0.0
C1779 C 0.65664 0.97602 0.61959 0.0
N1780 N 0.62476 0.97798 0.67384 0.0
N1781 N 0.64306 0.97108 0.62988 0.0
H1782 H 0.82925 0.95394 0.29169 0.0
H1783 H 0.91882 0.98187 0.34124 0.0
H1784 H 0.82865 1.00024 0.32625 0.0
H1785 H 0.91504 0.96892 0.28538 0.0
H1786 H 0.8861 0.98378 0.34166 0.0
H1787 H 0.86131 0.95315 0.29569 0.0
C1788 C 0.83584 0.96397 0.30011 0.0
C1789 C 0.82623 0.97744 0.30824 0.0
C1790 C 0.89257 0.98065 0.32936 0.0
C1791 C 0.86302 0.97632 0.31317 0.0
C1792 C 0.91111 0.97952 0.32912 0.0
C1793 C 0.91953 0.9753 0.31322 0.0
C1794 C 0.8826 0.9769 0.31373 0.0
C1795 C 0.90905 0.97234 0.29786 0.0
C1796 C 0.85412 0.96344 0.30245 0.0
C1797 C 0.83553 0.98967 0.31961 0.0
N1798 N 0.89118 0.97297 0.29855 0.0
N1799 N 0.8535 0.98891 0.32167 0.0
H1800 H 0.3573 0.15192 0.65886 0.0
H1801 H 0.31397 0.07915 0.71895 0.0
H1802 H 0.34162 0.16757 0.71151 0.0
H1803 H 0.36109 0.06974 0.68942 0.0
H1804 H 0.31794 0.11122 0.71379 0.0
H1805 H 0.35189 0.12103 0.66626 0.0
C1806 C 0.35285 0.14901 0.67202 0.0
C1807 C 0.35037 0.16269 0.68465 0.0
C1808 C 0.32733 0.10202 0.70844 0.0
C1809 C 0.34348 0.12695 0.69294 0.0
C1810 C 0.32511 0.08375 0.7114 0.0
C1811 C 0.3371 0.07156 0.70442 0.0
C1812 C 0.34119 0.10801 0.69782 0.0
C1813 C 0.35135 0.0784 0.69484 0.0
C1814 C 0.34962 0.13129 0.67616 0.0
C1815 C 0.34374 0.15772 0.70122 0.0
N1816 N 0.35277 0.09599 0.69152 0.0
N1817 N 0.34053 0.14031 0.70488 0.0
H1818 H 0.3197 0.82806 0.00492 0.0
H1819 H 0.3152 0.91248 0.94296 0.0
H1820 H 0.29946 0.82722 0.95107 0.0
H1821 H 0.32073 0.91787 0.99986 0.0
H1822 H 0.31542 0.88051 0.94542 0.0
H1823 H 0.32547 0.86021 0.00298 0.0
C1824 C 0.3166 0.83463 0.99267 0.0
C1825 C 0.30886 0.82506 0.97817 0.0
C1826 C 0.31672 0.88864 0.9574 0.0
C1827 C 0.31558 0.86156 0.97583 0.0
C1828 C 0.3168 0.90698 0.95599 0.0
C1829 C 0.31794 0.91798 0.97122 0.0
C1830 C 0.31772 0.88105 0.97416 0.0
C1831 C 0.3196 0.9099 0.98777 0.0
C1832 C 0.31984 0.85293 0.9916 0.0
C1833 C 0.30514 0.83414 0.96262 0.0
N1834 N 0.31936 0.89189 0.98882 0.0
N1835 N 0.30853 0.85183 0.96188 0.0
H1836 H 0.78099 0.33668 0.30331 0.0
H1837 H 0.7068 0.40951 0.31305 0.0
H1838 H 0.7361 0.33597 0.26706 0.0
H1839 H 0.76121 0.41626 0.33096 0.0
H1840 H 0.71442 0.38108 0.29858 0.0
H1841 H 0.77062 0.36389 0.31696 0.0
C1842 C 0.76891 0.34237 0.29823 0.0
C1843 C 0.75951 0.33431 0.28394 0.0
C1844 C 0.72463 0.38891 0.3056 0.0
C1845 C 0.74753 0.36563 0.29941 0.0
C1846 C 0.72031 0.40505 0.31387 0.0
C1847 C 0.73345 0.41532 0.3231 0.0
C1848 C 0.74207 0.38292 0.30701 0.0
C1849 C 0.75072 0.40896 0.32379 0.0
C1850 C 0.763 0.35792 0.30598 0.0
C1851 C 0.74374 0.34196 0.27801 0.0
N1852 N 0.75446 0.3932 0.31599 0.0
N1853 N 0.73823 0.35736 0.28574 0.0
H1854 H 0.61913 0.65997 0.01178 0.0
H1855 H 0.68766 0.60698 0.95414 0.0
H1856 H 0.64138 0.68328 0.96537 0.0
H1857 H 0.64587 0.58316 0.9844 0.0
H1858 H 0.67487 0.63616 0.95989 0.0
H1859 H 0.63484 0.63283 0.00528 0.0
C1860 C 0.62754 0.65941 1.00036 0.0
C1861 C 0.62873 0.67364 0.98888 0.0
C1862 C 0.66845 0.62441 0.96495 0.0
C1863 C 0.64645 0.64273 0.98123 0.0
C1864 C 0.67562 0.60781 0.96158 0.0
C1865 C 0.66784 0.59257 0.96876 0.0
C1866 C 0.65367 0.62563 0.97578 0.0
C1867 C 0.65225 0.59439 0.97833 0.0
C1868 C 0.63638 0.64394 0.99658 0.0
C1869 C 0.6401 0.67248 0.97447 0.0
N1870 N 0.64585 0.61062 0.98175 0.0
N1871 N 0.64842 0.65711 0.97087 0.0
H1872 H 0.68309 0.32294 0.16448 0.0
H1873 H 0.70143 0.36496 0.07005 0.0
H1874 H 0.68569 0.37903 0.1549 0.0
H1875 H 0.7072 0.30912 0.07951 0.0
H1876 H 0.69563 0.3698 0.10109 0.0
H1877 H 0.6913 0.31714 0.13366 0.0
C1878 C 0.68545 0.33406 0.15599 0.0
C1879 C 0.68359 0.35156 0.16247 0.0
C1880 C 0.69828 0.35648 0.09645 0.0
C1881 C 0.69294 0.34492 0.12696 0.0
C1882 C 0.70185 0.35365 0.07855 0.0
C1883 C 0.70486 0.3365 0.07167 0.0
C1884 C 0.6976 0.34214 0.10792 0.0
C1885 C 0.70467 0.32255 0.08382 0.0
C1886 C 0.6901 0.33071 0.13834 0.0
C1887 C 0.6866 0.36533 0.1506 0.0
N1888 N 0.701 0.32565 0.10124 0.0
N1889 N 0.69108 0.36172 0.13356 0.0
H1890 H 0.0067 0.31408 0.82915 0.0
H1891 H 0.94494 0.32371 0.9133 0.0
H1892 H 0.94979 0.30883 0.82741 0.0
H1893 H 0.00104 0.31448 0.91825 0.0
H1894 H 0.94772 0.32514 0.8814 0.0
H1895 H 0.0058 0.3201 0.86131 0.0
C1896 C 0.99403 0.31436 0.83558 0.0
C1897 C 0.97828 0.31075 0.82582 0.0
C1898 C 0.95946 0.32292 0.88947 0.0
C1899 C 0.97711 0.31784 0.86224 0.0
C1900 C 0.95795 0.32231 0.90778 0.0
C1901 C 0.97274 0.31878 0.91862 0.0
C1902 C 0.97586 0.31987 0.88176 0.0
C1903 C 0.98917 0.31683 0.91045 0.0
C1904 C 0.99352 0.31777 0.85385 0.0
C1905 C 0.9622 0.31131 0.83459 0.0
N1906 N 0.99027 0.31723 0.89248 0.0
N1907 N 0.96203 0.31477 0.8523 0.0
H1908 H 0.26242 0.76933 0.35175 0.0
H1909 H 0.33915 0.71385 0.39615 0.0
H1910 H 0.3002 0.73986 0.32173 0.0
H1911 H 0.29961 0.74163 0.4256 0.0
H1912 H 0.32224 0.7189 0.36886 0.0
H1913 H 0.27292 0.75524 0.37866 0.0
C1914 C 0.27276 0.75968 0.35079 0.0
C1915 C 0.28065 0.75601 0.3345 0.0
C1916 C 0.31719 0.72375 0.38132 0.0
C1917 C 0.29292 0.73991 0.36537 0.0
C1918 C 0.32679 0.72076 0.39699 0.0
C1919 C 0.32106 0.72762 0.41331 0.0
C1920 C 0.30179 0.73382 0.38188 0.0
C1921 C 0.30493 0.73655 0.41336 0.0
C1922 C 0.27876 0.75162 0.36618 0.0
C1923 C 0.29377 0.74314 0.334 0.0
N1924 N 0.29604 0.73959 0.39792 0.0
N1925 N 0.29971 0.73578 0.34925 0.0
H1926 H 0.01143 0.61829 0.65864 0.0
H1927 H 0.95418 0.68819 0.60729 0.0
H1928 H 0.96567 0.64086 0.68288 0.0
H1929 H 0.98348 0.64622 0.58251 0.0
H1930 H 0.95986 0.67476 0.63618 0.0
H1931 H 0.0046 0.63417 0.63168 0.0
C1932 C 1.00007 0.62678 0.6583 0.0
C1933 C 0.98889 0.62804 0.67276 0.0
C1934 C 0.9647 0.66844 0.62428 0.0
C1935 C 0.98086 0.64596 0.64207 0.0
C1936 C 0.96137 0.67597 0.60785 0.0
C1937 C 0.96835 0.66836 0.59244 0.0
C1938 C 0.97528 0.65346 0.62515 0.0
C1939 C 0.97758 0.65251 0.59389 0.0
C1940 C 0.9961 0.63572 0.64295 0.0
C1941 C 0.97455 0.63952 0.6719 0.0
N1942 N 0.98099 0.64577 0.60997 0.0
N1943 N 0.97077 0.64796 0.65663 0.0
H1944 H 0.84468 0.35188 0.64424 0.0
H1945 H 0.91591 0.30357 0.70586 0.0
H1946 H 0.83064 0.30488 0.67272 0.0
H1947 H 0.92058 0.35758 0.68878 0.0
H1948 H 0.88604 0.30151 0.69191 0.0
H1949 H 0.87436 0.35121 0.65735 0.0
C1950 C 0.84783 0.34125 0.65307 0.0
C1951 C 0.83489 0.32849 0.65739 0.0
C1952 C 0.89368 0.31378 0.69125 0.0
C1953 C 0.8692 0.32788 0.67291 0.0
C1954 C 0.9107 0.31501 0.69931 0.0
C1955 C 0.92104 0.33071 0.69835 0.0
C1956 C 0.88699 0.32832 0.6821 0.0
C1957 C 0.91348 0.34502 0.68954 0.0
C1958 C 0.86482 0.341 0.66075 0.0
C1959 C 0.83999 0.31521 0.66919 0.0
N1960 N 0.89712 0.34343 0.68175 0.0
N1961 N 0.85668 0.31527 0.67657 0.0
H1962 H 0.6495 0.7133 0.21499 0.0
H1963 H 0.59705 0.68931 0.30222 0.0
H1964 H 0.67096 0.72426 0.26764 0.0
H1965 H 0.57806 0.67758 0.2488 0.0
H1966 H 0.62245 0.70546 0.29033 0.0
H1967 H 0.62183 0.70344 0.22762 0.0
C1968 C 0.64827 0.71399 0.22925 0.0
C1969 C 0.66259 0.71972 0.24025 0.0
C1970 C 0.61264 0.69947 0.28124 0.0
C1971 C 0.63081 0.70799 0.25494 0.0
C1972 C 0.59804 0.69035 0.288 0.0
C1973 C 0.58544 0.68188 0.27649 0.0
C1974 C 0.61466 0.70013 0.26282 0.0
C1975 C 0.58758 0.68357 0.2582 0.0
C1976 C 0.63246 0.70819 0.23648 0.0
C1977 C 0.6603 0.71984 0.25867 0.0
N1978 N 0.60193 0.69236 0.25197 0.0
N1979 N 0.64472 0.71398 0.26546 0.0
H1980 H 0.31248 0.02652 0.35923 0.0
H1981 H 0.41769 0.02439 0.35144 0.0
H1982 H 0.34765 0.99751 0.39313 0.0
H1983 H 0.38409 0.04007 0.30794 0.0
H1984 H 0.39162 0.02048 0.3695 0.0
H1985 H 0.33802 0.03548 0.34157 0.0
C1986 C 0.32551 0.02189 0.36283 0.0
C1987 C 0.32804 0.01148 0.37781 0.0
C1988 C 0.38991 0.02503 0.35609 0.0
C1989 C 0.35709 0.02202 0.35813 0.0
C1990 C 0.4048 0.02748 0.34591 0.0
C1991 C 0.4029 0.03243 0.32825 0.0
C1992 C 0.37302 0.02744 0.3485 0.0
C1993 C 0.38598 0.03628 0.32158 0.0
C1994 C 0.34005 0.02715 0.35289 0.0
C1995 C 0.34517 0.00589 0.38194 0.0
N1996 N 0.37156 0.03344 0.33166 0.0
N1997 N 0.35903 0.01133 0.37225 0.0
H1998 H 0.16541 0.03853 0.64903 0.0
H1999 H 0.08101 0.99179 0.68853 0.0
H2000 H 0.17182 0.99519 0.68473 0.0
H2001 H 0.08408 0.04676 0.67452 0.0
H2002 H 0.11344 0.99013 0.68542 0.0
H2003 H 0.13401 0.03851 0.65499 0.0
C2004 C 0.16011 0.02885 0.65798 0.0
C2005 C 0.17109 0.01679 0.66636 0.0
C2006 C 0.10695 0.00256 0.68332 0.0
C2007 C 0.13527 0.01693 0.67354 0.0
C2008 C 0.08862 0.0035 0.68514 0.0
C2009 C 0.08022 0.01946 0.68192 0.0
C2010 C 0.11645 0.01756 0.67775 0.0
C2011 C 0.0903 0.03431 0.67731 0.0
C2012 C 0.14225 0.02898 0.66155 0.0
C2013 C 0.16366 0.00472 0.6781 0.0
N2014 N 0.10789 0.03295 0.67515 0.0
N2015 N 0.14604 0.00504 0.68136 0.0
H2016 H 0.67809 0.82965 0.35363 0.0
H2017 H 0.69318 0.92028 0.3021 0.0
H2018 H 0.64835 0.84013 0.30574 0.0
H2019 H 0.70135 0.91548 0.35839 0.0
H2020 H 0.68094 0.88959 0.30064 0.0
H2021 H 0.69134 0.85946 0.35286 0.0
C2022 C 0.6745 0.83811 0.34279 0.0
C2023 C 0.66203 0.83221 0.32974 0.0
C2024 C 0.6855 0.89527 0.31327 0.0
C2025 C 0.67727 0.86671 0.32882 0.0
C2026 C 0.69257 0.91271 0.31409 0.0
C2027 C 0.69835 0.92044 0.33039 0.0
C2028 C 0.68458 0.88535 0.32881 0.0
C2029 C 0.69707 0.91008 0.34555 0.0
C2030 C 0.68198 0.85524 0.34245 0.0
C2031 C 0.65778 0.84406 0.31619 0.0
N2032 N 0.69048 0.89315 0.34438 0.0
N2033 N 0.6654 0.86067 0.31604 0.0
H2034 H 0.67565 0.17015 0.98882 0.0
H2035 H 0.6859 0.0854 0.04811 0.0
H2036 H 0.65897 0.16656 0.04288 0.0
H2037 H 0.67607 0.07944 0.99175 0.0
H2038 H 0.68406 0.11734 0.04564 0.0
H2039 H 0.68248 0.13831 0.98891 0.0
C2040 C 0.67344 0.16259 1.00062 0.0
C2041 C 0.66668 0.17067 0.01583 0.0
C2042 C 0.68263 0.10908 0.03375 0.0
C2043 C 0.6748 0.13511 0.0162 0.0
C2044 C 0.68391 0.09092 0.03511 0.0
C2045 C 0.68126 0.07994 0.02006 0.0
C2046 C 0.67874 0.11629 0.01722 0.0
C2047 C 0.67822 0.08763 0.00359 0.0
C2048 C 0.67731 0.14461 1.00067 0.0
C2049 C 0.66402 0.16062 0.03088 0.0
N2050 N 0.67696 0.10549 0.00257 0.0
N2051 N 0.66819 0.14334 0.03072 0.0
H2052 H 0.26223 0.67954 0.70058 0.0
H2053 H 0.25902 0.57413 0.69623 0.0
H2054 H 0.23029 0.64795 0.73518 0.0
H2055 H 0.29648 0.60606 0.66807 0.0
H2056 H 0.24974 0.60087 0.71242 0.0
H2057 H 0.27724 0.65291 0.69109 0.0
C2058 C 0.25858 0.6671 0.70649 0.0
C2059 C 0.24461 0.66601 0.71842 0.0
C2060 C 0.26011 0.60201 0.70283 0.0
C2061 C 0.26144 0.63524 0.70708 0.0
C2062 C 0.26531 0.5868 0.69359 0.0
C2063 C 0.27841 0.58809 0.68086 0.0
C2064 C 0.26796 0.61856 0.69907 0.0
C2065 C 0.28628 0.60468 0.67782 0.0
C2066 C 0.26707 0.6518 0.7009 0.0
C2067 C 0.24053 0.64938 0.7255 0.0
N2068 N 0.28084 0.6193 0.68675 0.0
N2069 N 0.24867 0.63463 0.71949 0.0
H2070 H 0.36127 0.313 0.02791 0.0
H2071 H 0.35171 0.41774 0.0226 0.0
H2072 H 0.3916 0.34714 0.99432 0.0
H2073 H 0.30903 0.38439 0.04065 0.0
H2074 H 0.36964 0.39161 0.01842 0.0
H2075 H 0.34365 0.33856 0.03688 0.0
C2076 C 0.36407 0.32579 0.02227 0.0
C2077 C 0.37809 0.32806 0.01057 0.0
C2078 C 0.35644 0.38999 0.02355 0.0
C2079 C 0.3585 0.35716 0.02111 0.0
C2080 C 0.34634 0.4049 0.02613 0.0
C2081 C 0.3289 0.40308 0.03181 0.0
C2082 C 0.34903 0.37316 0.02661 0.0
C2083 C 0.32248 0.38624 0.03627 0.0
C2084 C 0.35416 0.34035 0.02753 0.0
C2085 C 0.38121 0.34489 0.0037 0.0
N2086 N 0.33248 0.37177 0.03332 0.0
N2087 N 0.37161 0.3588 0.00919 0.0
H2088 H 0.31641 0.68478 0.82371 0.0
H2089 H 0.32815 0.67017 0.92818 0.0
H2090 H 0.33987 0.6388 0.84669 0.0
H2091 H 0.32423 0.72252 0.90685 0.0
H2092 H 0.3267 0.65764 0.8982 0.0
H2093 H 0.314 0.6979 0.85368 0.0
C2094 C 0.32109 0.67741 0.83495 0.0
C2095 C 0.32836 0.66053 0.83242 0.0
C2096 C 0.32611 0.67188 0.90004 0.0
C2097 C 0.32535 0.67549 0.86692 0.0
C2098 C 0.32705 0.67914 0.91725 0.0
C2099 C 0.32689 0.69761 0.92029 0.0
C2100 C 0.32469 0.68301 0.88547 0.0
C2101 C 0.32455 0.70825 0.90534 0.0
C2102 C 0.31962 0.68492 0.85208 0.0
C2103 C 0.33387 0.65163 0.84772 0.0
N2104 N 0.32367 0.70083 0.88862 0.0
N2105 N 0.33225 0.65917 0.86415 0.0
H2106 H 0.02615 0.6951 0.17304 0.0
H2107 H 0.01117 0.64672 0.08055 0.0
H2108 H 0.00194 0.64291 0.16683 0.0
H2109 H 0.0198 0.70338 0.08563 0.0
H2110 H 0.00592 0.64565 0.11204 0.0
H2111 H 0.02228 0.69921 0.14123 0.0
C2112 C 0.01971 0.68464 0.16504 0.0
C2113 C 0.01458 0.66854 0.17252 0.0
C2114 C 0.00861 0.65838 0.10625 0.0
C2115 C 0.01036 0.67305 0.13618 0.0
C2116 C 0.01147 0.65905 0.08817 0.0
C2117 C 0.01595 0.67519 0.08039 0.0
C2118 C 0.01049 0.67392 0.11671 0.0
C2119 C 0.01663 0.69062 0.09113 0.0
C2120 C 0.01755 0.68697 0.14688 0.0
C2121 C 0.00647 0.65537 0.16152 0.0
N2122 N 0.01419 0.68957 0.10883 0.0
N2123 N 0.00481 0.65783 0.14385 0.0
H2124 H 0.69073 0.25012 0.67734 0.0
H2125 H 0.70518 0.28297 0.57916 0.0
H2126 H 0.74109 0.24359 0.65246 0.0
H2127 H 0.65505 0.26504 0.5994 0.0
H2128 H 0.71981 0.27379 0.60686 0.0
H2129 H 0.67888 0.2622 0.65008 0.0
C2130 C 0.69944 0.25162 0.66626 0.0
C2131 C 0.71692 0.24581 0.66717 0.0
C2132 C 0.70564 0.27178 0.60506 0.0
C2133 C 0.70326 0.25933 0.6357 0.0
C2134 C 0.69729 0.27699 0.58932 0.0
C2135 C 0.67885 0.27463 0.58688 0.0
C2136 C 0.6954 0.26454 0.61851 0.0
C2137 C 0.66929 0.26684 0.6005 0.0
C2138 C 0.69259 0.25831 0.65061 0.0
C2139 C 0.72749 0.2478 0.65222 0.0
N2140 N 0.67764 0.26222 0.61571 0.0
N2141 N 0.72047 0.25437 0.637 0.0
H2142 H 0.99333 0.39124 0.34773 0.0
H2143 H 0.04498 0.31015 0.3852 0.0
H2144 H 0.0298 0.36298 0.31491 0.0
H2145 H 0.02458 0.35226 0.41779 0.0
H2146 H 0.04059 0.32837 0.35903 0.0
H2147 H 0.00363 0.37493 0.37316 0.0
C2148 C 0.00353 0.38157 0.34588 0.0
C2149 C 0.01095 0.3787 0.32924 0.0
C2150 C 0.03748 0.33375 0.37197 0.0
C2151 C 0.02284 0.3599 0.35838 0.0
C2152 C 0.04019 0.32348 0.3869 0.0
C2153 C 0.03485 0.32969 0.40354 0.0
C2154 C 0.02924 0.35013 0.37387 0.0
C2155 C 0.02859 0.34694 0.4051 0.0
C2156 C 0.00949 0.37233 0.36043 0.0
C2157 C 0.02375 0.3656 0.32752 0.0
N2158 N 0.02561 0.35643 0.39039 0.0
N2159 N 0.02936 0.35666 0.34198 0.0
H2160 H 0.2905 0.5896 0.46489 0.0
H2161 H 0.27829 0.59412 0.56983 0.0
H2162 H 0.26459 0.63273 0.4913 0.0
H2163 H 0.29706 0.54823 0.54155 0.0
H2164 H 0.27288 0.60845 0.54154 0.0
H2165 H 0.29271 0.57437 0.49294 0.0
C2166 C 0.28524 0.59588 0.47661 0.0
C2167 C 0.27746 0.61257 0.4757 0.0
C2168 C 0.27806 0.5952 0.54151 0.0
C2169 C 0.27993 0.59505 0.50811 0.0
C2170 C 0.28124 0.58701 0.55768 0.0
C2171 C 0.28827 0.56992 0.55816 0.0
C2172 C 0.28202 0.58634 0.52558 0.0
C2173 C 0.29152 0.56132 0.54191 0.0
C2174 C 0.28644 0.58711 0.49265 0.0
C2175 C 0.27063 0.61987 0.49134 0.0
N2176 N 0.28852 0.56966 0.52635 0.0
N2177 N 0.27216 0.61114 0.50692 0.0
H2178 H 0.26744 0.31907 0.90541 0.0
H2179 H 0.24128 0.41768 0.93484 0.0
H2180 H 0.22485 0.34772 0.88131 0.0
H2181 H 0.27172 0.38404 0.96869 0.0
H2182 H 0.23866 0.39342 0.9127 0.0
H2183 H 0.27265 0.34402 0.92666 0.0
C2184 C 0.25927 0.33063 0.90457 0.0
C2185 C 0.24558 0.33132 0.89175 0.0
C2186 C 0.24598 0.39136 0.92494 0.0
C2187 C 0.25156 0.35983 0.91566 0.0
C2188 C 0.24753 0.40522 0.9375 0.0
C2189 C 0.2566 0.40275 0.95359 0.0
C2190 C 0.25379 0.37502 0.92841 0.0
C2191 C 0.26443 0.38634 0.95648 0.0
C2192 C 0.26219 0.34481 0.91668 0.0
C2193 C 0.23537 0.34658 0.89116 0.0
N2194 N 0.26288 0.37309 0.944 0.0
N2195 N 0.23859 0.36021 0.90289 0.0
H2196 H 0.76244 0.01288 0.48277 0.0
H2197 H 0.679 0.99159 0.42078 0.0
H2198 H 0.73108 0.96434 0.48298 0.0
H2199 H 0.71215 0.03833 0.41689 0.0
H2200 H 0.69195 0.98644 0.44997 0.0
H2201 H 0.74119 0.02508 0.46197 0.0
C2202 C 0.75128 0.00463 0.47815 0.0
C2203 C 0.74844 0.9876 0.4847 0.0
C2204 C 0.69599 0.9982 0.44303 0.0
C2205 C 0.72361 0.00185 0.46166 0.0
C2206 C 0.68818 0.00144 0.42659 0.0
C2207 C 0.69575 0.01449 0.41603 0.0
C2208 C 0.71071 0.00866 0.44879 0.0
C2209 C 0.70688 0.02738 0.42432 0.0
C2210 C 0.73891 0.01179 0.46662 0.0
C2211 C 0.73361 0.97763 0.47843 0.0
N2212 N 0.71489 0.02363 0.43996 0.0
N2213 N 0.72166 0.98496 0.46732 0.0
H2214 H 0.71664 0.99555 0.20193 0.0
H2215 H 0.72986 0.02193 0.10392 0.0
H2216 H 0.7519 0.03794 0.18687 0.0
H2217 H 0.69991 0.97581 0.11938 0.0
H2218 H 0.74448 0.0233 0.13311 0.0
H2219 H 0.716 0.98397 0.17157 0.0
C2220 C 0.72452 0.00219 0.19214 0.0
C2221 C 0.73416 0.01776 0.19659 0.0
C2222 C 0.7351 0.01256 0.13 0.0
C2223 C 0.7334 0.00481 0.16189 0.0
C2224 C 0.72683 0.01176 0.11335 0.0
C2225 C 0.71349 0.99897 0.10956 0.0
C2226 C 0.72958 0.00074 0.14296 0.0
C2227 C 0.71004 0.98597 0.12198 0.0
C2228 C 0.72422 0.99557 0.17486 0.0
C2229 C 0.7442 0.02598 0.18371 0.0
N2230 N 0.71772 0.98745 0.13837 0.0
N2231 N 0.74333 0.01954 0.16675 0.0
H2232 H 0.4731 0.25474 0.59981 0.0
H2233 H 0.55782 0.31778 0.58339 0.0
H2234 H 0.48556 0.30354 0.62878 0.0
H2235 H 0.55175 0.26592 0.55862 0.0
H2236 H 0.53031 0.3128 0.59883 0.0
H2237 H 0.50111 0.25808 0.58415 0.0
C2238 C 0.48171 0.26607 0.60302 0.0
C2239 C 0.47667 0.27901 0.61553 0.0
C2240 C 0.53493 0.30242 0.59008 0.0
C2241 C 0.50868 0.28304 0.59735 0.0
C2242 C 0.55071 0.30527 0.58124 0.0
C2243 C 0.55729 0.29218 0.56981 0.0
C2244 C 0.52541 0.28632 0.58759 0.0
C2245 C 0.54719 0.2764 0.56727 0.0
C2246 C 0.49766 0.26802 0.59395 0.0
C2247 C 0.48847 0.29343 0.61896 0.0
N2248 N 0.5318 0.27386 0.57616 0.0
N2249 N 0.50373 0.29508 0.6099 0.0
H2250 H 0.2022 0.73279 0.99187 0.0
H2251 H 0.10353 0.73157 0.02508 0.0
H2252 H 0.18702 0.74315 0.04569 0.0
H2253 H 0.12021 0.70593 0.97696 0.0
H2254 H 0.13248 0.74671 0.02804 0.0
H2255 H 0.17106 0.73306 0.98237 0.0
C2256 C 0.19226 0.73578 0.00155 0.0
C2257 C 0.19696 0.73811 0.01952 0.0
C2258 C 0.12963 0.73821 0.01654 0.0
C2259 C 0.16154 0.73826 0.00886 0.0
C2260 C 0.11312 0.72975 0.01477 0.0
C2261 C 0.10974 0.71755 0.00082 0.0
C2262 C 0.14279 0.73414 0.00441 0.0
C2263 C 0.12247 0.71534 0.98786 0.0
C2264 C 0.17455 0.73584 0.99616 0.0
C2265 C 0.18377 0.74144 0.03171 0.0
N2266 N 0.13867 0.7233 0.99015 0.0
N2267 N 0.16654 0.74128 0.02616 0.0
H2268 H 0.8806 0.27015 0.34135 0.0
H2269 H 0.95949 0.22776 0.39604 0.0
H2270 H 0.91117 0.22641 0.32202 0.0
H2271 H 0.94415 0.28169 0.40618 0.0
H2272 H 0.93925 0.22616 0.37049 0.0
H2273 H 0.90212 0.2746 0.36592 0.0
C2274 C 0.8919 0.26161 0.34206 0.0
C2275 C 0.89375 0.24757 0.3297 0.0
C2276 C 0.94031 0.23837 0.37828 0.0
C2277 C 0.91809 0.25233 0.35816 0.0
C2278 C 0.95187 0.23929 0.39292 0.0
C2279 C 0.95373 0.25495 0.40324 0.0
C2280 C 0.93026 0.25311 0.37391 0.0
C2281 C 0.94308 0.26929 0.39872 0.0
C2282 C 0.9041 0.2641 0.35621 0.0
C2283 C 0.90873 0.23699 0.33149 0.0
N2284 N 0.93181 0.26805 0.38437 0.0
N2285 N 0.92011 0.23942 0.34554 0.0
H2286 H 0.50288 0.72118 0.98894 0.0
H2287 H 0.41249 0.72431 0.03878 0.0
H2288 H 0.46849 0.76607 0.99258 0.0
H2289 H 0.42269 0.68011 0.00371 0.0
H2290 H 0.44235 0.73576 0.03425 0.0
H2291 H 0.48043 0.70313 0.00344 0.0
C2292 C 0.4906 0.72726 0.99255 0.0
C2293 C 0.48764 0.74531 0.98955 0.0
C2294 C 0.43832 0.7231 0.02823 0.0
C2295 C 0.46276 0.72496 0.00718 0.0
C2296 C 0.42141 0.71634 0.03109 0.0
C2297 C 0.41503 0.7017 0.02094 0.0
C2298 C 0.4488 0.71474 0.01564 0.0
C2299 C 0.42715 0.69176 0.01132 0.0
C2300 C 0.47804 0.71699 0.00113 0.0
C2301 C 0.4716 0.75241 0.99495 0.0
N2302 N 0.44343 0.69886 0.00827 0.0
N2303 N 0.45982 0.74224 0.00365 0.0
H2304 H 0.60203 0.47491 0.25317 0.0
H2305 H 0.57818 0.55476 0.31962 0.0
H2306 H 0.62547 0.48399 0.30534 0.0
H2307 H 0.5608 0.55377 0.26484 0.0
H2308 H 0.59374 0.52734 0.31448 0.0
H2309 H 0.58609 0.50279 0.25657 0.0
C2310 C 0.60398 0.48276 0.26526 0.0
C2311 C 0.61495 0.47679 0.2791 0.0
C2312 C 0.58659 0.53304 0.3035 0.0
C2313 C 0.59644 0.50857 0.28318 0.0
C2314 C 0.57765 0.54873 0.30646 0.0
C2315 C 0.56831 0.55671 0.29261 0.0
C2316 C 0.58632 0.52505 0.28652 0.0
C2317 C 0.56782 0.54806 0.2759 0.0
C2318 C 0.59474 0.49862 0.26723 0.0
C2319 C 0.61683 0.48763 0.29446 0.0
N2320 N 0.57679 0.53273 0.27328 0.0
N2321 N 0.60761 0.50279 0.2961 0.0
H2322 H 0.0273 0.18897 0.75866 0.0
H2323 H 0.9781 0.12134 0.69046 0.0
H2324 H 0.00991 0.20012 0.70537 0.0
H2325 H 0.01062 0.10451 0.73425 0.0
H2326 H 0.98022 0.15174 0.70227 0.0
H2327 H 0.01312 0.15924 0.75535 0.0
C2328 C 0.02059 0.18507 0.74631 0.0
C2329 C 0.02034 0.19652 0.73201 0.0
C2330 C 0.98641 0.14131 0.70964 0.0
C2331 C 0.0036 0.16343 0.72843 0.0
C2332 C 0.98503 0.124 0.703 0.0
C2333 C 0.99434 0.11068 0.71142 0.0
C2334 C 0.9973 0.14515 0.72464 0.0
C2335 C 0.00338 0.11464 0.72745 0.0
C2336 C 0.01237 0.16833 0.74448 0.0
C2337 C 0.01098 0.19131 0.71644 0.0
N2338 N 0.00495 0.13168 0.73343 0.0
N2339 N 0.00308 0.17511 0.71503 0.0
H2340 H 0.31661 0.90897 0.26404 0.0
H2341 H 0.41836 0.93323 0.24505 0.0
H2342 H 0.34918 0.87849 0.2292 0.0
H2343 H 0.38274 0.97068 0.26803 0.0
H2344 H 0.39398 0.91127 0.24275 0.0
H2345 H 0.34153 0.93028 0.26916 0.0
C2346 C 0.32905 0.90675 0.2576 0.0
C2347 C 0.33092 0.89211 0.24611 0.0
C2348 C 0.3915 0.92429 0.24833 0.0
C2349 C 0.35934 0.91608 0.25196 0.0
C2350 C 0.40543 0.93677 0.2497 0.0
C2351 C 0.4025 0.95381 0.25656 0.0
C2352 C 0.37457 0.92881 0.25406 0.0
C2353 C 0.38546 0.95774 0.26239 0.0
C2354 C 0.34321 0.91887 0.26045 0.0
C2355 C 0.34724 0.88974 0.23803 0.0
N2356 N 0.37213 0.94534 0.26102 0.0
N2357 N 0.36081 0.90156 0.24113 0.0
H2358 H 0.99332 0.50478 0.72206 0.0
H2359 H 0.0382 0.41195 0.72596 0.0
H2360 H 0.99019 0.46878 0.76567 0.0
H2361 H 0.005 0.42365 0.68075 0.0
H2362 H 0.03398 0.44177 0.7377 0.0
H2363 H 0.0081 0.48196 0.70472 0.0
C2364 C 0.9955 0.49207 0.72797 0.0
C2365 C 0.99037 0.48868 0.74541 0.0
C2366 C 0.02836 0.43806 0.72477 0.0
C2367 C 0.00829 0.4633 0.72601 0.0
C2368 C 0.03102 0.42118 0.71787 0.0
C2369 C 0.02141 0.4153 0.70268 0.0
C2370 C 0.01653 0.44906 0.71604 0.0
C2371 C 0.01228 0.42775 0.69272 0.0
C2372 C 0.00423 0.47928 0.71814 0.0
C2373 C 0.9941 0.47213 0.75244 0.0
N2374 N 0.00951 0.44405 0.6999 0.0
N2375 N 0.00295 0.46007 0.74274 0.0
H2376 H 0.74143 0.37592 0.51309 0.0
H2377 H 0.70268 0.45514 0.45603 0.0
H2378 H 0.70079 0.41049 0.53162 0.0
H2379 H 0.73681 0.41528 0.43468 0.0
H2380 H 0.70181 0.4391 0.48379 0.0
H2381 H 0.74047 0.39063 0.48449 0.0
C2382 C 0.73238 0.38666 0.51119 0.0
C2383 C 0.72121 0.39196 0.52483 0.0
C2384 C 0.70945 0.43385 0.473 0.0
C2385 C 0.71997 0.40888 0.49204 0.0
C2386 C 0.70986 0.44296 0.45706 0.0
C2387 C 0.71999 0.43674 0.44292 0.0
C2388 C 0.7193 0.41841 0.47495 0.0
C2389 C 0.72916 0.4209 0.44526 0.0
C2390 C 0.73174 0.39498 0.4948 0.0
C2391 C 0.70955 0.40582 0.52147 0.0
N2392 N 0.72868 0.41239 0.46094 0.0
N2393 N 0.7093 0.41383 0.5055 0.0
H2394 H 0.75382 0.64622 0.12903 0.0
H2395 H 0.73444 0.6107 0.03083 0.0
H2396 H 0.75777 0.68072 0.08454 0.0
H2397 H 0.746 0.57691 0.07455 0.0
H2398 H 0.74398 0.6366 0.04923 0.0
H2399 H 0.75095 0.62078 0.10868 0.0
C2400 C 0.75391 0.6484 0.1149 0.0
C2401 C 0.75578 0.66554 0.1084 0.0
C2402 C 0.74483 0.6235 0.05467 0.0
C2403 C 0.75265 0.63645 0.08494 0.0
C2404 C 0.73953 0.60876 0.04416 0.0
C2405 C 0.73964 0.59177 0.05126 0.0
C2406 C 0.74985 0.62114 0.07246 0.0
C2407 C 0.74595 0.58983 0.06862 0.0
C2408 C 0.75248 0.63387 0.10328 0.0
C2409 C 0.75623 0.66766 0.09001 0.0
N2410 N 0.75058 0.60437 0.07873 0.0
N2411 N 0.75446 0.65325 0.07885 0.0
H2412 H 0.28295 0.98831 0.52382 0.0
H2413 H 0.27095 0.00074 0.62807 0.0
H2414 H 0.23474 0.00708 0.54667 0.0
H2415 H 0.31122 0.96838 0.60484 0.0
H2416 H 0.25884 0.00581 0.59857 0.0
H2417 H 0.2955 0.98514 0.55358 0.0
C2418 C 0.27501 0.99195 0.53503 0.0
C2419 C 0.2576 0.99777 0.53259 0.0
C2420 C 0.27032 0.99758 0.59998 0.0
C2421 C 0.27187 0.9937 0.56686 0.0
C2422 C 0.27718 0.99444 0.61692 0.0
C2423 C 0.29223 0.98397 0.61926 0.0
C2424 C 0.27866 0.99049 0.5851 0.0
C2425 C 0.29986 0.97677 0.60394 0.0
C2426 C 0.28216 0.98992 0.55206 0.0
C2427 C 0.24803 0.00212 0.5478 0.0
N2428 N 0.29306 0.98025 0.58759 0.0
N2429 N 0.25525 0.99991 0.56425 0.0
H2430 H 0.30683 0.02373 0.78585 0.0
H2431 H 0.26103 0.99208 0.87404 0.0
H2432 H 0.25567 0.99675 0.78507 0.0
H2433 H 0.31712 0.00345 0.87058 0.0
H2434 H 0.25805 0.99502 0.84191 0.0
H2435 H 0.31014 0.0176 0.8171 0.0
C2436 C 0.29629 0.01636 0.79202 0.0
C2437 C 0.28089 0.01081 0.78238 0.0
C2438 C 0.27101 0.9968 0.84822 0.0
C2439 C 0.28449 0.00431 0.8189 0.0
C2440 C 0.27277 0.99504 0.86659 0.0
C2441 C 0.28937 0.99763 0.87524 0.0
C2442 C 0.2859 0.00137 0.83834 0.0
C2443 C 0.30397 0.00173 0.86473 0.0
C2444 C 0.29819 0.013 0.81007 0.0
C2445 C 0.26764 0.00174 0.79173 0.0
N2446 N 0.30187 0.00357 0.84694 0.0
N2447 N 0.26969 0.99892 0.80943 0.0
H2448 H 0.52985 0.74807 0.40347 0.0
H2449 H 0.44032 0.69587 0.42844 0.0
H2450 H 0.51552 0.69577 0.38285 0.0
H2451 H 0.45306 0.74971 0.4453 0.0
H2452 H 0.46814 0.69513 0.41234 0.0
H2453 H 0.50179 0.74881 0.41886 0.0
C2454 C 0.52078 0.73679 0.402 0.0
C2455 C 0.52526 0.72179 0.39184 0.0
C2456 C 0.46484 0.70711 0.41957 0.0
C2457 C 0.49305 0.72243 0.40986 0.0
C2458 C 0.44901 0.70749 0.42888 0.0
C2459 C 0.44425 0.7229 0.4382 0.0
C2460 C 0.47611 0.72221 0.41966 0.0
C2461 C 0.456 0.73761 0.4381 0.0
C2462 C 0.50477 0.73717 0.41095 0.0
C2463 C 0.51292 0.7075 0.39076 0.0
N2464 N 0.47132 0.7369 0.42902 0.0
N2465 N 0.49748 0.70815 0.39969 0.0
H2466 H 0.7799 0.30596 0.99837 0.0
H2467 H 0.87545 0.2622 0.00837 0.0
H2468 H 0.78819 0.25457 0.02044 0.0
H2469 H 0.8678 0.31491 0.98925 0.0
H2470 H 0.84344 0.25875 0.01177 0.0
H2471 H 0.81182 0.30903 0.99373 0.0
C2472 C 0.78843 0.29534 0.00231 0.0
C2473 C 0.7813 0.28001 0.00989 0.0
C2474 C 0.84873 0.27107 0.00679 0.0
C2475 C 0.81797 0.28344 0.00461 0.0
C2476 C 0.86702 0.27302 0.00476 0.0
C2477 C 0.87437 0.28887 0.99847 0.0
C2478 C 0.83756 0.28503 0.00242 0.0
C2479 C 0.86277 0.30252 0.99429 0.0
C2480 C 0.80667 0.29708 0.9996 0.0
C2481 C 0.79303 0.26656 0.01443 0.0
N2482 N 0.84498 0.30028 0.99629 0.0
N2483 N 0.81073 0.26863 0.01181 0.0
H2484 H 0.08413 0.76645 0.6802 0.0
H2485 H 0.07798 0.74097 0.57697 0.0
H2486 H 0.12619 0.74352 0.65024 0.0
H2487 H 0.03125 0.74183 0.60855 0.0
H2488 H 0.09597 0.74932 0.60331 0.0
H2489 H 0.0644 0.76306 0.65383 0.0
C2490 C 0.08915 0.7606 0.66814 0.0
C2491 C 0.10678 0.75514 0.66741 0.0
C2492 C 0.08174 0.748 0.60445 0.0
C2493 C 0.08461 0.75175 0.63733 0.0
C2494 C 0.0715 0.74351 0.5894 0.0
C2495 C 0.05321 0.74095 0.5907 0.0
C2496 C 0.07362 0.74977 0.62092 0.0
C2497 C 0.04536 0.74397 0.60711 0.0
C2498 C 0.07794 0.75873 0.65316 0.0
C2499 C 0.11265 0.74767 0.6515 0.0
N2500 N 0.05565 0.74809 0.62173 0.0
N2501 N 0.10165 0.74633 0.63709 0.0
H2502 H 0.54692 0.23876 0.01272 0.0
H2503 H 0.60664 0.3119 0.96533 0.0
H2504 H 0.52539 0.2808 0.98168 0.0
H2505 H 0.62757 0.2749 0.00274 0.0
H2506 H 0.57691 0.29997 0.97034 0.0
H2507 H 0.57666 0.25126 0.00864 0.0
C2508 C 0.54843 0.25063 0.00506 0.0
C2509 C 0.53359 0.25864 0.99742 0.0
C2510 C 0.58804 0.29443 0.9774 0.0
C2511 C 0.56768 0.27304 0.99268 0.0
C2512 C 0.60507 0.30127 0.97457 0.0
C2513 C 0.61981 0.29446 0.98358 0.0
C2514 C 0.58562 0.28057 0.98927 0.0
C2515 C 0.61679 0.28043 0.99519 0.0
C2516 C 0.56542 0.2578 0.00279 0.0
C2517 C 0.53638 0.27421 0.98792 0.0
N2518 N 0.60009 0.27399 0.99769 0.0
N2519 N 0.55306 0.28081 0.98572 0.0
H2520 H 0.40842 0.53256 0.69639 0.0
H2521 H 0.41494 0.43729 0.73994 0.0
H2522 H 0.37795 0.51707 0.74134 0.0
H2523 H 0.4537 0.45787 0.70416 0.0
H2524 H 0.39929 0.46513 0.73836 0.0
H2525 H 0.4231 0.50408 0.69687 0.0
C2526 C 0.40474 0.52313 0.70633 0.0
C2527 C 0.39188 0.52725 0.71885 0.0
C2528 C 0.41122 0.46357 0.73087 0.0
C2529 C 0.40876 0.49452 0.71948 0.0
C2530 C 0.42025 0.44767 0.7318 0.0
C2531 C 0.43588 0.44522 0.72236 0.0
C2532 C 0.41771 0.47718 0.72029 0.0
C2533 C 0.4417 0.45904 0.71162 0.0
C2534 C 0.41321 0.50689 0.70664 0.0
C2535 C 0.38788 0.51455 0.73155 0.0
N2536 N 0.43267 0.47442 0.71093 0.0
N2537 N 0.39623 0.49875 0.7315 0.0
H2538 H 0.03873 0.78763 0.28921 0.0
H2539 H 0.97139 0.86824 0.28465 0.0
H2540 H 0.98377 0.78047 0.27355 0.0
H2541 H 0.02742 0.87454 0.29622 0.0
H2542 H 0.9752 0.83624 0.28092 0.0
H2543 H 0.03441 0.81952 0.29232 0.0
C2544 C 0.0257 0.79279 0.28654 0.0
C2545 C 0.01159 0.78135 0.28118 0.0
C2546 C 0.98665 0.84464 0.28428 0.0
C2547 C 0.00646 0.81801 0.28477 0.0
C2548 C 0.98451 0.86295 0.28634 0.0
C2549 C 0.99909 0.87421 0.29084 0.0
C2550 C 0.00351 0.83745 0.28671 0.0
C2551 C 0.01571 0.86646 0.29306 0.0
C2552 C 0.02324 0.81102 0.28825 0.0
C2553 C 0.99504 0.78882 0.27764 0.0
N2554 N 0.01744 0.84865 0.29098 0.0
N2555 N 0.9929 0.80665 0.27959 0.0
H2556 H 0.67842 0.09574 0.73471 0.0
H2557 H 0.58148 0.06368 0.7594 0.0
H2558 H 0.65437 0.11115 0.78377 0.0
H2559 H 0.61176 0.03858 0.7186 0.0
H2560 H 0.60841 0.07996 0.76989 0.0
H2561 H 0.65449 0.07373 0.72934 0.0
C2562 C 0.66815 0.09437 0.74439 0.0
C2563 C 0.6683 0.10528 0.75966 0.0
C2564 C 0.60922 0.07064 0.75884 0.0
C2565 C 0.64079 0.08032 0.75357 0.0
C2566 C 0.5939 0.06131 0.75295 0.0
C2567 C 0.59444 0.05003 0.73801 0.0
C2568 C 0.62507 0.06865 0.74962 0.0
C2569 C 0.61079 0.04743 0.73001 0.0
C2570 C 0.65454 0.08177 0.74139 0.0
C2571 C 0.65476 0.10291 0.77187 0.0
N2572 N 0.62539 0.05685 0.73575 0.0
N2573 N 0.64142 0.09085 0.76846 0.0
H2574 H 0.97588 0.54157 0.23427 0.0
H2575 H 0.01452 0.61965 0.29621 0.0
H2576 H 0.01473 0.53222 0.27552 0.0
H2577 H 0.95938 0.61775 0.28042 0.0
H2578 H 0.01788 0.58992 0.28367 0.0
H2579 H 0.97284 0.57191 0.24592 0.0
C2580 C 0.98387 0.54596 0.2457 0.0
C2581 C 0.99556 0.53437 0.25397 0.0
C2582 C 0.00502 0.59595 0.28306 0.0
C2583 C 0.99218 0.56901 0.26723 0.0
C2584 C 0.00302 0.61285 0.29044 0.0
C2585 C 0.98644 0.62084 0.29011 0.0
C2586 C 0.99047 0.58717 0.27473 0.0
C2587 C 0.97229 0.61186 0.28124 0.0
C2588 C 0.98201 0.56319 0.25238 0.0
C2589 C 0.00548 0.54069 0.26884 0.0
N2590 N 0.97461 0.59545 0.27385 0.0
N2591 N 0.00366 0.55764 0.27493 0.0
H2592 H 0.37223 0.6412 0.36167 0.0
H2593 H 0.45519 0.66194 0.30006 0.0
H2594 H 0.36981 0.6783 0.31911 0.0
H2595 H 0.45377 0.62135 0.33935 0.0
H2596 H 0.4243 0.66865 0.3066 0.0
H2597 H 0.40271 0.63504 0.35418 0.0
C2598 C 0.37811 0.64821 0.35084 0.0
C2599 C 0.36825 0.66031 0.34106 0.0
C2600 C 0.4308 0.65828 0.31377 0.0
C2601 C 0.40342 0.653 0.33211 0.0
C2602 C 0.44843 0.65433 0.30994 0.0
C2603 C 0.45734 0.64116 0.31929 0.0
C2604 C 0.42198 0.64902 0.32705 0.0
C2605 C 0.44776 0.63191 0.33206 0.0
C2606 C 0.39554 0.64454 0.34644 0.0
C2607 C 0.3767 0.66868 0.32692 0.0
N2608 N 0.43077 0.63606 0.33558 0.0
N2609 N 0.39374 0.66488 0.32289 0.0
H2610 H 0.13992 0.2472 0.74284 0.0
H2611 H 0.07308 0.32498 0.76212 0.0
H2612 H 0.14371 0.283 0.78824 0.0
H2613 H 0.0582 0.28128 0.72664 0.0
H2614 H 0.10025 0.31016 0.76984 0.0
H2615 H 0.11088 0.25935 0.73522 0.0
C2616 C 0.13464 0.25746 0.7513 0.0
C2617 C 0.14445 0.26412 0.76619 0.0
C2618 C 0.09104 0.30368 0.76045 0.0
C2619 C 0.1113 0.2781 0.75744 0.0
C2620 C 0.07544 0.31215 0.75604 0.0
C2621 C 0.06312 0.30426 0.74393 0.0
C2622 C 0.09463 0.28716 0.75263 0.0
C2623 C 0.06731 0.28785 0.73606 0.0
C2624 C 0.11803 0.26433 0.74695 0.0
C2625 C 0.13672 0.27725 0.77676 0.0
N2626 N 0.08273 0.2798 0.74056 0.0
N2627 N 0.12079 0.28387 0.77208 0.0
H2628 H 0.85887 0.98715 0.60767 0.0
H2629 H 0.93264 0.034 0.67112 0.0
H2630 H 0.84994 0.03276 0.64151 0.0
H2631 H 0.94431 0.9933 0.63253 0.0
H2632 H 0.90129 0.03112 0.66272 0.0
H2633 H 0.88997 0.9879 0.61737 0.0
C2634 C 0.86354 0.99744 0.61698 0.0
C2635 C 0.85188 0.00974 0.62409 0.0
C2636 C 0.91062 0.02255 0.6563 0.0
C2637 C 0.88705 0.0104 0.63548 0.0
C2638 C 0.92838 0.02399 0.66131 0.0
C2639 C 0.94072 0.01368 0.65257 0.0
C2640 C 0.90536 0.01074 0.64243 0.0
C2641 C 0.93493 0.00125 0.63962 0.0
C2642 C 0.88119 0.99775 0.62264 0.0
C2643 C 0.85848 0.02279 0.63609 0.0
N2644 N 0.91754 1.00018 0.63479 0.0
N2645 N 0.87565 0.0227 0.64152 0.0
H2646 H 0.62405 0.02625 0.30004 0.0
H2647 H 0.52819 0.9853 0.31462 0.0
H2648 H 0.61395 0.97858 0.32883 0.0
H2649 H 0.53792 0.03514 0.28923 0.0
H2650 H 0.55909 0.98537 0.32459 0.0
H2651 H 0.59243 0.03261 0.30062 0.0
C2652 C 0.61512 0.01724 0.3066 0.0
C2653 C 0.62137 0.00172 0.31406 0.0
C2654 C 0.55443 0.99638 0.31698 0.0
C2655 C 0.58538 0.00863 0.31456 0.0
C2656 C 0.53675 0.99638 0.31131 0.0
C2657 C 0.53052 0.01002 0.30067 0.0
C2658 C 0.56603 0.01001 0.31181 0.0
C2659 C 0.54228 0.02402 0.29685 0.0
C2660 C 0.59713 0.02086 0.307 0.0
C2661 C 0.6095 0.9906 0.32278 0.0
N2662 N 0.55952 0.02352 0.3022 0.0
N2663 N 0.59197 0.9941 0.32251 0.0
H2664 H 0.31856 0.37005 0.6786 0.0
H2665 H 0.33894 0.45514 0.62019 0.0
H2666 H 0.35977 0.37323 0.64008 0.0
H2667 H 0.30131 0.45591 0.66233 0.0
H2668 H 0.3456 0.4247 0.62695 0.0
H2669 H 0.31114 0.4008 0.67259 0.0
C2670 C 0.32606 0.37715 0.66886 0.0
C2671 C 0.33984 0.36885 0.6598 0.0
C2672 C 0.33587 0.43146 0.63476 0.0
C2673 C 0.33136 0.40426 0.65292 0.0
C2674 C 0.33209 0.44898 0.63096 0.0
C2675 C 0.31969 0.45839 0.64084 0.0
C2676 C 0.32715 0.42294 0.64851 0.0
C2677 C 0.31091 0.44927 0.65427 0.0
C2678 C 0.32183 0.39477 0.66551 0.0
C2679 C 0.34921 0.37897 0.64757 0.0
N2680 N 0.31484 0.4321 0.65775 0.0
N2681 N 0.34476 0.396 0.64447 0.0
H2682 H 0.32965 0.61275 0.97732 0.0
H2683 H 0.2897 0.53721 0.03713 0.0
H2684 H 0.29989 0.62323 0.02445 0.0
H2685 H 0.31215 0.52855 0.98566 0.0
H2686 H 0.29952 0.56824 0.03647 0.0
H2687 H 0.33033 0.58168 0.98469 0.0
C2688 C 0.32351 0.60862 0.98941 0.0
C2689 C 0.3143 0.6206 1.00006 0.0
C2690 C 0.30246 0.55947 0.02543 0.0
C2691 C 0.3146 0.58482 0.00824 0.0
C2692 C 0.29672 0.54181 0.02571 0.0
C2693 C 0.29973 0.53035 0.01124 0.0
C2694 C 0.31124 0.5657 0.01056 0.0
C2695 C 0.30945 0.53688 0.99709 0.0
C2696 C 0.32379 0.59079 0.99352 0.0
C2697 C 0.30658 0.61435 0.01552 0.0
N2698 N 0.31467 0.55417 0.99702 0.0
N2699 N 0.30664 0.5968 0.019 0.0
H2700 H 0.73678 0.15315 0.27776 0.0
H2701 H 0.76162 0.05115 0.28693 0.0
H2702 H 0.78372 0.131 0.25554 0.0
H2703 H 0.71949 0.07614 0.31504 0.0
H2704 H 0.7677 0.07907 0.27203 0.0
H2705 H 0.72811 0.12393 0.28805 0.0
C2706 C 0.74515 0.14207 0.27479 0.0
C2707 C 0.76103 0.14457 0.26576 0.0
C2708 C 0.75708 0.07842 0.28141 0.0
C2709 C 0.75123 0.11093 0.27779 0.0
C2710 C 0.75363 0.06251 0.28995 0.0
C2711 C 0.74015 0.06134 0.30241 0.0
C2712 C 0.74702 0.09334 0.28538 0.0
C2713 C 0.72997 0.07638 0.3055 0.0
C2714 C 0.74024 0.12538 0.2808 0.0
C2715 C 0.77146 0.12972 0.2626 0.0
N2716 N 0.73371 0.09175 0.29717 0.0
N2717 N 0.76641 0.11354 0.26864 0.0
H2718 H 0.63589 0.8509 0.03669 0.0
H2719 H 0.63761 0.94446 0.99068 0.0
H2720 H 0.61409 0.85854 0.98418 0.0
H2721 H 0.66861 0.93251 0.03727 0.0
H2722 H 0.62933 0.91297 0.98709 0.0
H2723 H 0.64671 0.8816 0.03754 0.0
C2724 C 0.63335 0.85914 0.02539 0.0
C2725 C 0.62435 0.85229 0.01027 0.0
C2726 C 0.63826 0.91718 0.99786 0.0
C2727 C 0.63686 0.88708 0.01095 0.0
C2728 C 0.64315 0.93501 0.99972 0.0
C2729 C 0.65382 0.94073 0.01416 0.0
C2730 C 0.64388 0.90535 0.01081 0.0
C2731 C 0.66047 0.92833 0.02587 0.0
C2732 C 0.63961 0.87656 0.0258 0.0
C2733 C 0.62101 0.86344 0.99608 0.0
N2734 N 0.65515 0.91116 0.02411 0.0
N2735 N 0.62741 0.88035 0.9967 0.0
H2736 H 0.6514 0.31185 0.36292 0.0
H2737 H 0.65348 0.34632 0.46416 0.0
H2738 H 0.66815 0.36481 0.37947 0.0
H2739 H 0.63717 0.29326 0.44772 0.0
H2740 H 0.66038 0.35281 0.43348 0.0
H2741 H 0.64751 0.30443 0.39388 0.0
C2742 C 0.65442 0.32192 0.37303 0.0
C2743 C 0.66016 0.33903 0.36841 0.0
C2744 C 0.65532 0.33973 0.43654 0.0
C2745 C 0.65543 0.33057 0.40417 0.0
C2746 C 0.65131 0.33602 0.45407 0.0
C2747 C 0.64447 0.31928 0.45853 0.0
C2748 C 0.65239 0.32666 0.4232 0.0
C2749 C 0.64237 0.30635 0.44493 0.0
C2750 C 0.65208 0.31766 0.39077 0.0
C2751 C 0.66348 0.35153 0.38226 0.0
N2752 N 0.64616 0.31036 0.42789 0.0
N2753 N 0.66105 0.34706 0.39944 0.0
H2754 H 0.97055 0.31333 0.61325 0.0
H2755 H 0.03045 0.3165 0.52979 0.0
H2756 H 0.02709 0.31203 0.62282 0.0
H2757 H 0.98803 0.27806 0.53577 0.0
H2758 H 0.02793 0.32524 0.56141 0.0
H2759 H 0.97542 0.31208 0.58155 0.0
C2760 C 0.98404 0.3132 0.60868 0.0
C2761 C 0.99846 0.31263 0.62063 0.0
C2762 C 0.01927 0.31492 0.55565 0.0
C2763 C 0.00396 0.3111 0.58444 0.0
C2764 C 0.02061 0.31001 0.53777 0.0
C2765 C 0.00947 0.29649 0.53042 0.0
C2766 C 0.00636 0.30655 0.56576 0.0
C2767 C 0.99691 0.28841 0.54108 0.0
C2768 C 0.98675 0.31242 0.59063 0.0
C2769 C 0.01564 0.31222 0.61394 0.0
N2770 N 0.9956 0.29367 0.55822 0.0
N2771 N 0.01798 0.31131 0.59613 0.0
H2772 H 0.24819 0.74348 0.13984 0.0
H2773 H 0.32674 0.76004 0.0728 0.0
H2774 H 0.28727 0.786 0.14504 0.0
H2775 H 0.28105 0.72746 0.05742 0.0
H2776 H 0.31288 0.76738 0.10063 0.0
H2777 H 0.25997 0.73567 0.11064 0.0
C2778 C 0.25913 0.75126 0.13484 0.0
C2779 C 0.26673 0.76545 0.14503 0.0
C2780 C 0.30576 0.75871 0.09118 0.0
C2781 C 0.28031 0.75646 0.11174 0.0
C2782 C 0.31368 0.75452 0.07522 0.0
C2783 C 0.30495 0.74335 0.06257 0.0
C2784 C 0.2889 0.75166 0.09478 0.0
C2785 C 0.28825 0.73615 0.06679 0.0
C2786 C 0.26579 0.74681 0.11816 0.0
C2787 C 0.28076 0.77513 0.13772 0.0
N2788 N 0.28072 0.74047 0.08254 0.0
N2789 N 0.28713 0.77037 0.12169 0.0
H2790 H 0.00313 0.65542 0.8478 0.0
H2791 H 0.00871 0.6193 0.94603 0.0
H2792 H 0.01148 0.60078 0.86079 0.0
H2793 H 0.01716 0.67435 0.93406 0.0
H2794 H 0.00209 0.61282 0.9147 0.0
H2795 H 0.00244 0.66298 0.8794 0.0
C2796 C 0.00497 0.64505 0.85729 0.0
C2797 C 0.00742 0.62746 0.85169 0.0
C2798 C 0.00514 0.62636 0.91896 0.0
C2799 C 0.0061 0.63593 0.88766 0.0
C2800 C 0.00876 0.63005 0.93678 0.0
C2801 C 0.01362 0.6473 0.9424 0.0
C2802 C 0.00657 0.64002 0.90677 0.0
C2803 C 0.01343 0.66088 0.9301 0.0
C2804 C 0.00436 0.64935 0.87527 0.0
C2805 C 0.00934 0.61448 0.86452 0.0
N2806 N 0.01024 0.6569 0.91269 0.0
N2807 N 0.00863 0.61899 0.88194 0.0
H2808 H 0.61916 0.34892 0.63632 0.0
H2809 H 0.5538 0.34862 0.71856 0.0
H2810 H 0.63558 0.34318 0.69098 0.0
H2811 H 0.53693 0.36501 0.66668 0.0
H2812 H 0.583 0.34244 0.70714 0.0
H2813 H 0.58843 0.35175 0.64585 0.0
C2814 C 0.61637 0.34829 0.6503 0.0
C2815 C 0.63008 0.34569 0.66283 0.0
C2816 C 0.57296 0.34737 0.69818 0.0
C2817 C 0.59491 0.3487 0.67376 0.0
C2818 C 0.55627 0.35089 0.70471 0.0
C2819 C 0.54303 0.35762 0.69362 0.0
C2820 C 0.57661 0.3507 0.68039 0.0
C2821 C 0.54683 0.35991 0.67568 0.0
C2822 C 0.5988 0.34981 0.6557 0.0
C2823 C 0.62554 0.3448 0.68074 0.0
N2824 N 0.56336 0.35664 0.66964 0.0
N2825 N 0.60844 0.34628 0.6856 0.0
H2826 H 0.86204 0.71166 0.22401 0.0
H2827 H 0.92929 0.75062 0.29757 0.0
H2828 H 0.85643 0.76259 0.25006 0.0
H2829 H 0.94254 0.7072 0.26275 0.0
H2830 H 0.90351 0.75634 0.27856 0.0
H2831 H 0.89256 0.71079 0.2357 0.0
C2832 C 0.86732 0.72281 0.2319 0.0
C2833 C 0.85653 0.73704 0.23643 0.0
C2834 C 0.91217 0.74573 0.27485 0.0
C2835 C 0.89126 0.736 0.25004 0.0
C2836 C 0.92686 0.74251 0.28572 0.0
C2837 C 0.93796 0.7285 0.28162 0.0
C2838 C 0.90829 0.73454 0.26005 0.0
C2839 C 0.93428 0.71822 0.26621 0.0
C2840 C 0.88472 0.72227 0.23863 0.0
C2841 C 0.86409 0.75112 0.24668 0.0
N2842 N 0.91956 0.72126 0.2561 0.0
N2843 N 0.88086 0.75012 0.25334 0.0
H2844 H 0.14426 0.01274 0.37285 0.0
H2845 H 0.05726 0.95155 0.35591 0.0
H2846 H 0.13873 0.95971 0.39222 0.0
H2847 H 0.06511 0.00278 0.333 0.0
H2848 H 0.08558 0.95553 0.37216 0.0
H2849 H 0.11371 0.01078 0.36145 0.0
C2850 C 0.13652 1.0007 0.37476 0.0
C2851 C 0.14403 0.98628 0.38328 0.0
C2852 C 0.08103 0.96601 0.36377 0.0
C2853 C 0.10913 0.98384 0.37014 0.0
C2854 C 0.06486 0.96377 0.35458 0.0
C2855 C 0.05891 0.97689 0.3432 0.0
C2856 C 0.09126 0.98156 0.36165 0.0
C2857 C 0.06931 0.99235 0.34164 0.0
C2858 C 0.1191 0.99958 0.36827 0.0
C2859 C 0.1334 0.9711 0.38571 0.0
N2860 N 0.08499 0.99426 0.35076 0.0
N2861 N 0.11652 0.9702 0.37898 0.0
H2862 H 0.38867 0.04163 0.64095 0.0
H2863 H 0.4477 0.97993 0.70209 0.0
H2864 H 0.36756 0.9958 0.66662 0.0
H2865 H 0.46719 0.0259 0.67516 0.0
H2866 H 0.41893 0.98273 0.68644 0.0
H2867 H 0.41856 0.03301 0.64978 0.0
C2868 C 0.39044 0.02957 0.64821 0.0
C2869 C 0.3758 0.01939 0.65318 0.0
C2870 C 0.42956 0.99212 0.68391 0.0
C2871 C 0.40967 0.00971 0.6639 0.0
C2872 C 0.44586 0.99057 0.69289 0.0
C2873 C 0.45949 0.00306 0.69028 0.0
C2874 C 0.42714 0.00613 0.67216 0.0
C2875 C 0.45675 0.01637 0.67796 0.0
C2876 C 0.40743 0.02465 0.65334 0.0
C2877 C 0.3786 0.0039 0.66259 0.0
N2878 N 0.44088 0.01761 0.66945 0.0
N2879 N 0.39522 0.99963 0.66794 0.0
H2880 H 0.64761 0.63045 0.36956 0.0
H2881 H 0.70645 0.54999 0.33517 0.0
H2882 H 0.67869 0.63237 0.32236 0.0
H2883 H 0.67244 0.54648 0.37995 0.0
H2884 H 0.69534 0.57969 0.32942 0.0
H2885 H 0.65528 0.59938 0.37275 0.0
C2886 C 0.6559 0.62438 0.35974 0.0
C2887 C 0.66258 0.63431 0.34572 0.0
C2888 C 0.69013 0.57239 0.3404 0.0
C2889 C 0.67168 0.59851 0.34951 0.0
C2890 C 0.69641 0.55543 0.34361 0.0
C2891 C 0.69021 0.5458 0.35795 0.0
C2892 C 0.67765 0.5799 0.35174 0.0
C2893 C 0.67742 0.55348 0.36868 0.0
C2894 C 0.66037 0.60659 0.36165 0.0
C2895 C 0.67348 0.62554 0.33362 0.0
N2896 N 0.67163 0.57009 0.36542 0.0
N2897 N 0.67773 0.60827 0.33584 0.0
H2898 H 0.66732 0.38693 0.05057 0.0
H2899 H 0.67439 0.46065 0.98238 0.0
H2900 H 0.65626 0.37064 0.99607 0.0
H2901 H 0.71796 0.45062 0.01854 0.0
H2902 H 0.66273 0.43058 0.98716 0.0
H2903 H 0.67984 0.41464 0.04022 0.0
C2904 C 0.66754 0.38899 0.03645 0.0
C2905 C 0.66118 0.37595 0.02422 0.0
C2906 C 0.67501 0.43497 0.99373 0.0
C2907 C 0.67498 0.40807 0.01244 0.0
C2908 C 0.68179 0.45203 0.99093 0.0
C2909 C 0.69702 0.45831 1.0004 0.0
C2910 C 0.68336 0.42446 0.00631 0.0
C2911 C 0.70591 0.44654 0.0114 0.0
C2912 C 0.67463 0.40489 0.0306 0.0
C2913 C 0.66107 0.38008 0.00608 0.0
N2914 N 0.6987 0.43034 0.0144 0.0
N2915 N 0.66791 0.39582 1.0007 0.0
H2916 H 0.21741 0.86496 0.72952 0.0
H2917 H 0.3042 0.92603 0.74764 0.0
H2918 H 0.26794 0.84672 0.74879 0.0
H2919 H 0.26118 0.94227 0.71367 0.0
H2920 H 0.28748 0.89903 0.75399 0.0
H2921 H 0.23021 0.89511 0.72846 0.0
C2922 C 0.23111 0.86723 0.73361 0.0
C2923 C 0.24156 0.85314 0.7393 0.0
C2924 C 0.28157 0.90855 0.74528 0.0
C2925 C 0.25609 0.88763 0.73843 0.0
C2926 C 0.2911 0.92398 0.7417 0.0
C2927 C 0.28416 0.93626 0.72994 0.0
C2928 C 0.26497 0.90523 0.73698 0.0
C2929 C 0.26699 0.9331 0.72282 0.0
C2930 C 0.23835 0.88446 0.73308 0.0
C2931 C 0.25916 0.85704 0.74467 0.0
N2932 N 0.25803 0.91773 0.72626 0.0
N2933 N 0.26581 0.87383 0.74407 0.0
H2934 H 0.35122 0.15341 0.98131 0.0
H2935 H 0.36469 0.05131 0.96801 0.0
H2936 H 0.40376 0.13303 0.9887 0.0
H2937 H 0.31902 0.07267 0.9936 0.0
H2938 H 0.37975 0.08037 0.97173 0.0
H2939 H 0.33923 0.12326 0.9805 0.0
C2940 C 0.36028 0.14263 0.98291 0.0
C2941 C 0.37854 0.14589 0.9855 0.0
C2942 C 0.36649 0.07853 0.97663 0.0
C2943 C 0.36478 0.11113 0.9841 0.0
C2944 C 0.35789 0.06195 0.97464 0.0
C2945 C 0.34033 0.05955 0.98013 0.0
C2946 C 0.35734 0.09283 0.98388 0.0
C2947 C 0.33227 0.07395 0.98855 0.0
C2948 C 0.35338 0.12539 0.98239 0.0
C2949 C 0.38961 0.13119 0.9867 0.0
N2950 N 0.3407 0.08999 0.98988 0.0
N2951 N 0.38255 0.11439 0.98598 0.0
H2952 H 0.31936 0.67518 0.62988 0.0
H2953 H 0.38635 0.68177 0.54933 0.0
H2954 H 0.3719 0.65395 0.6311 0.0
H2955 H 0.33208 0.6978 0.54531 0.0
H2956 H 0.38082 0.67059 0.57892 0.0
H2957 H 0.32333 0.68294 0.5989 0.0
C2958 C 0.33175 0.67215 0.62369 0.0
C2959 C 0.34536 0.66398 0.63333 0.0
C2960 C 0.37006 0.67646 0.57159 0.0
C2961 C 0.34993 0.67278 0.59758 0.0
C2962 C 0.37322 0.68284 0.55468 0.0
C2963 C 0.35968 0.69075 0.54486 0.0
C2964 C 0.35326 0.67823 0.57898 0.0
C2965 C 0.34288 0.6917 0.55239 0.0
C2966 C 0.33395 0.67649 0.60591 0.0
C2967 C 0.36095 0.66009 0.62432 0.0
N2968 N 0.34019 0.6857 0.56906 0.0
N2969 N 0.36284 0.66463 0.60709 0.0
H2970 H 0.0147 0.68588 0.36813 0.0
H2971 H 0.00076 0.66364 0.46927 0.0
H2972 H 0.02521 0.63485 0.38934 0.0
H2973 H 0.99507 0.7154 0.44739 0.0
H2974 H 0.00407 0.65112 0.43929 0.0
H2975 H 0.00197 0.69519 0.39598 0.0
C2976 C 0.01448 0.67677 0.37883 0.0
C2977 C 0.02154 0.65997 0.37674 0.0
C2978 C 0.00175 0.66514 0.441 0.0
C2979 C 0.00693 0.67022 0.40879 0.0
C2980 C 0.99978 0.67224 0.45801 0.0
C2981 C 0.99772 0.6905 0.46054 0.0
C2982 C 0.00174 0.6765 0.42656 0.0
C2983 C 0.99667 0.70125 0.44581 0.0
C2984 C 0.00707 0.68195 0.39469 0.0
C2985 C 0.02025 0.64814 0.39069 0.0
N2986 N 0.99886 0.6941 0.42939 0.0
N2987 N 0.01333 0.6536 0.40633 0.0
H2988 H 0.71248 0.25573 0.84377 0.0
H2989 H 0.74717 0.27273 0.9429 0.0
H2990 H 0.75453 0.22485 0.86565 0.0
H2991 H 0.6964 0.28882 0.92249 0.0
H2992 H 0.75075 0.25446 0.91571 0.0
H2993 H 0.70702 0.26799 0.8732 0.0
C2994 C 0.72045 0.25146 0.85493 0.0
C2995 C 0.73394 0.23937 0.85245 0.0
C2996 C 0.73877 0.26186 0.91735 0.0
C2997 C 0.728 0.25342 0.88621 0.0
C2998 C 0.73674 0.27223 0.9328 0.0
C2999 C 0.7217 0.28263 0.93464 0.0
C3000 C 0.72564 0.26201 0.90383 0.0
C3001 C 0.70845 0.28142 0.92135 0.0
C3002 C 0.71735 0.25839 0.87173 0.0
C3003 C 0.744 0.23419 0.8672 0.0
N3004 N 0.71082 0.2715 0.90648 0.0
N3005 N 0.74096 0.24142 0.88354 0.0
H3006 H 0.9882 0.40547 0.13186 0.0
H3007 H 0.99045 0.31729 0.073 0.0
H3008 H 0.97748 0.3532 0.15158 0.0
H3009 H 0.96866 0.36431 0.05042 0.0
H3010 H 0.99337 0.33282 0.10156 0.0
H3011 H 0.98699 0.39285 0.1014 0.0
C3012 C 0.98546 0.39143 0.12982 0.0
C3013 C 0.98326 0.38032 0.14435 0.0
C3014 C 0.98805 0.33976 0.09031 0.0
C3015 C 0.9823 0.36592 0.10983 0.0
C3016 C 0.98632 0.3309 0.07399 0.0
C3017 C 0.97881 0.3393 0.05933 0.0
C3018 C 0.98251 0.35729 0.09205 0.0
C3019 C 0.97441 0.35725 0.06136 0.0
C3020 C 0.98488 0.38427 0.11249 0.0
C3021 C 0.97979 0.36221 0.14089 0.0
N3022 N 0.97619 0.36565 0.0775 0.0
N3023 N 0.97961 0.35559 0.12407 0.0
loop_
_geom_bond_atom_site_label_1
_geom_bond_atom_site_label_2
_geom_bond_distance
_geom_bond_site_symmetry_2
_ccdc_geom_bond_type
C0 C1 1.264 . S
C0 C5 1.479 . S
C0 C10 1.465 . S
C1 C0 1.264 . S
C1 C3 1.339 . S
C1 H28 0.931 . S
C2 C3 1.395 . S
C2 C4 1.320 . S
C3 C1 1.339 . S
C3 C2 1.395 . S
C3 H29 0.929 . S
C4 C2 1.320 . S
C4 C5 1.405 . S
C4 H30 0.930 . S
C5 C0 1.479 . S
C5 C4 1.405 . S
C5 H31 0.931 . S
U6 O7 2.454 . S
U6 O8 2.458 . S
U6 C9 2.984 . S
U6 C10 2.847 . S
U6 C23 2.882 . S
U6 O24 2.441 . S
U6 O25 2.420 . S
U6 O26 2.455 . S
U6 O27 2.449 . S
O7 U6 2.454 . S
O7 C9 1.353 . S
O8 U6 2.458 . S
O8 C9 1.286 . S
C9 U6 2.984 . S
C9 O7 1.353 . S
C9 O8 1.286 . S
C9 C11 1.363 . S
C10 C0 1.465 . S
C10 U6 2.847 . S
C10 O24 1.249 . S
C10 O25 1.202 . S
C11 C9 1.363 . S
C11 C13 1.408 . S
C11 C16 1.342 . S
C12 C13 1.310 . S
C12 C15 1.461 . S
C12 H32 0.932 . S
C13 C11 1.408 . S
C13 C12 1.310 . S
C13 H33 0.930 . S
C14 C15 1.474 . S
C14 C16 1.285 . S
C14 H34 0.929 . S
C15 C12 1.461 . S
C15 C14 1.474 . S
C16 C11 1.342 . S
C16 C14 1.285 . S
C16 H35 0.930 . S
C17 C20 1.424 . S
C17 C22 1.245 . S
C17 C23 1.428 . S
C18 C21 1.260 . S
C18 C22 1.477 . S
C18 H36 0.932 . S
C19 C20 1.384 . S
C19 C21 1.479 . S
C19 H37 0.929 . S
C20 C17 1.424 . S
C20 C19 1.384 . S
C20 H38 0.928 . S
C21 C18 1.260 . S
C21 C19 1.479 . S
C22 C17 1.245 . S
C22 C18 1.477 . S
C22 H39 0.932 . S
C23 U6 2.882 . S
C23 C17 1.428 . S
C23 O26 1.301 . S
C23 O27 1.282 . S
O24 U6 2.441 . S
O24 C10 1.249 . S
O25 U6 2.420 . S
O25 C10 1.202 . S
O26 U6 2.455 . S
O26 C23 1.301 . S
O27 U6 2.449 . S
O27 C23 1.282 . S
H28 C1 0.931 . S
H29 C3 0.929 . S
H30 C4 0.930 . S
H31 C5 0.931 . S
H32 C12 0.932 . S
H33 C13 0.930 . S
H34 C14 0.929 . S
H35 C16 0.930 . S
H36 C18 0.932 . S
H37 C19 0.929 . S
H38 C20 0.928 . S
H39 C22 0.932 . S
C40 C41 1.264 . S
C40 C45 1.479 . S
C40 C50 1.465 . S
C41 C40 1.264 . S
C41 C43 1.339 . S
C41 H68 0.931 . S
C42 C43 1.395 . S
C42 C44 1.320 . S
C43 C41 1.339 . S
C43 C42 1.395 . S
C43 H69 0.929 . S
C44 C42 1.320 . S
C44 C45 1.405 . S
C44 H70 0.930 . S
C45 C40 1.479 . S
C45 C44 1.405 . S
C45 H71 0.931 . S
U46 O47 2.454 . S
U46 O48 2.458 . S
U46 C49 2.984 . S
U46 C50 2.847 . S
U46 C63 2.882 . S
U46 O64 2.441 . S
U46 O65 2.420 . S
U46 O66 2.455 . S
U46 O67 2.449 . S
O47 U46 2.454 . S
O47 C49 1.353 . S
O48 U46 2.458 . S
O48 C49 1.286 . S
C49 U46 2.984 . S
C49 O47 1.353 . S
C49 O48 1.286 . S
C49 C51 1.363 . S
C50 C40 1.465 . S
C50 U46 2.847 . S
C50 O64 1.249 . S
C50 O65 1.202 . S
C51 C49 1.363 . S
C51 C53 1.408 . S
C51 C56 1.342 . S
C52 C53 1.310 . S
C52 C55 1.461 . S
C52 H72 0.932 . S
C53 C51 1.408 . S
C53 C52 1.310 . S
C53 H73 0.930 . S
C54 C55 1.474 . S
C54 C56 1.285 . S
C54 H74 0.929 . S
C55 C52 1.461 . S
C55 C54 1.474 . S
C56 C51 1.342 . S
C56 C54 1.285 . S
C56 H75 0.930 . S
C57 C60 1.424 . S
C57 C62 1.245 . S
C57 C63 1.428 . S
C58 C61 1.260 . S
C58 C62 1.477 . S
C58 H76 0.932 . S
C59 C60 1.384 . S
C59 C61 1.479 . S
C59 H77 0.929 . S
C60 C57 1.424 . S
C60 C59 1.384 . S
C60 H78 0.928 . S
C61 C58 1.260 . S
C61 C59 1.479 . S
C62 C57 1.245 . S
C62 C58 1.477 . S
C62 H79 0.932 . S
C63 U46 2.882 . S
C63 C57 1.428 . S
C63 O66 1.301 . S
C63 O67 1.282 . S
O64 U46 2.441 . S
O64 C50 1.249 . S
O65 U46 2.420 . S
O65 C50 1.202 . S
O66 U46 2.455 . S
O66 C63 1.301 . S
O67 U46 2.449 . S
O67 C63 1.282 . S
H68 C41 0.931 . S
H69 C43 0.929 . S
H70 C44 0.930 . S
H71 C45 0.931 . S
H72 C52 0.932 . S
H73 C53 0.930 . S
H74 C54 0.929 . S
H75 C56 0.930 . S
H76 C58 0.932 . S
H77 C59 0.929 . S
H78 C60 0.928 . S
H79 C62 0.932 . S
C80 C81 1.264 . S
C80 C85 1.474 1_565 S
C80 C90 1.472 . S
C81 C80 1.264 . S
C81 C83 1.339 1_565 S
C81 H108 0.931 . S
C82 C83 1.395 . S
C82 C84 1.320 . S
C83 C81 1.339 1_545 S
C83 C82 1.395 . S
C83 H109 0.929 . S
C84 C82 1.320 . S
C84 C85 1.405 . S
C84 H110 0.930 . S
C85 C80 1.474 1_545 S
C85 C84 1.405 . S
C85 H111 0.931 . S
U86 O87 2.454 . S
U86 O88 2.458 . S
U86 C89 2.984 . S
U86 C90 2.847 . S
U86 C103 2.882 . S
U86 O104 2.441 . S
U86 O105 2.420 . S
U86 O106 2.455 . S
U86 O107 2.449 . S
O87 U86 2.454 . S
O87 C89 1.353 . S
O88 U86 2.458 . S
O88 C89 1.286 . S
C89 U86 2.984 . S
C89 O87 1.353 . S
C89 O88 1.286 . S
C89 C91 1.363 . S
C90 C80 1.472 . S
C90 U86 2.847 . S
C90 O104 1.249 . S
C90 O105 1.202 . S
C91 C89 1.363 . S
C91 C93 1.408 . S
C91 C96 1.342 . S
C92 C93 1.310 . S
C92 C95 1.461 . S
C92 H112 0.932 . S
C93 C91 1.408 . S
C93 C92 1.310 . S
C93 H113 0.930 . S
C94 C95 1.474 . S
C94 C96 1.285 . S
C94 H114 0.929 . S
C95 C92 1.461 . S
C95 C94 1.474 . S
C96 C91 1.342 . S
C96 C94 1.285 . S
C96 H115 0.930 . S
C97 C100 1.424 . S
C97 C102 1.245 . S
C97 C103 1.428 . S
C98 C101 1.260 . S
C98 C102 1.477 . S
C98 H116 0.932 . S
C99 C100 1.384 . S
C99 C101 1.479 . S
C99 H117 0.929 . S
C100 C97 1.424 . S
C100 C99 1.384 . S
C100 H118 0.928 . S
C101 C98 1.260 . S
C101 C99 1.479 . S
C102 C97 1.245 . S
C102 C98 1.477 . S
C102 H119 0.932 . S
C103 U86 2.882 . S
C103 C97 1.428 . S
C103 O106 1.301 . S
C103 O107 1.282 . S
O104 U86 2.441 . S
O104 C90 1.249 . S
O105 U86 2.420 . S
O105 C90 1.202 . S
O106 U86 2.455 . S
O106 C103 1.301 . S
O107 U86 2.449 . S
O107 C103 1.282 . S
H108 C81 0.931 . S
H109 C83 0.929 . S
H110 C84 0.930 . S
H111 C85 0.931 . S
H112 C92 0.932 . S
H113 C93 0.930 . S
H114 C94 0.929 . S
H115 C96 0.930 . S
H116 C98 0.932 . S
H117 C99 0.929 . S
H118 C100 0.928 . S
H119 C102 0.932 . S
C120 C121 1.264 . S
C120 C125 1.479 . S
C120 C130 1.465 . S
C121 C120 1.264 . S
C121 C123 1.339 . S
C121 H148 0.931 . S
C122 C123 1.395 . S
C122 C124 1.320 . S
C123 C121 1.339 . S
C123 C122 1.395 . S
C123 H149 0.929 . S
C124 C122 1.320 . S
C124 C125 1.405 . S
C124 H150 0.930 1_545 S
C125 C120 1.479 . S
C125 C124 1.405 . S
C125 H151 0.931 . S
U126 O127 2.466 . S
U126 O128 2.458 . S
U126 C129 2.983 1_545 S
U126 C130 2.847 . S
U126 C143 2.882 . S
U126 O144 2.441 . S
U126 O145 2.420 . S
U126 O146 2.455 . S
U126 O147 2.449 . S
O127 U126 2.466 . S
O127 C129 1.352 1_545 S
O128 U126 2.458 . S
O128 C129 1.285 1_545 S
C129 U126 2.983 1_565 S
C129 O127 1.352 1_565 S
C129 O128 1.285 1_565 S
C129 C131 1.365 . S
C130 C120 1.465 . S
C130 U126 2.847 . S
C130 O144 1.249 . S
C130 O145 1.202 . S
C131 C129 1.365 . S
C131 C133 1.408 . S
C131 C136 1.342 . S
C132 C133 1.310 . S
C132 C135 1.461 . S
C132 H152 0.932 . S
C133 C131 1.408 . S
C133 C132 1.310 . S
C133 H153 0.930 . S
C134 C135 1.474 . S
C134 C136 1.285 . S
C134 H154 0.929 . S
C135 C132 1.461 . S
C135 C134 1.474 . S
C136 C131 1.342 . S
C136 C134 1.285 . S
C136 H155 0.930 . S
C137 C140 1.424 . S
C137 C142 1.245 . S
C137 C143 1.428 . S
C138 C141 1.260 . S
C138 C142 1.477 . S
C138 H156 0.932 . S
C139 C140 1.384 . S
C139 C141 1.479 . S
C139 H157 0.929 . S
C140 C137 1.424 . S
C140 C139 1.384 . S
C140 H158 0.928 . S
C141 C138 1.260 . S
C141 C139 1.479 . S
C142 C137 1.245 . S
C142 C138 1.477 . S
C142 H159 0.932 . S
C143 U126 2.882 . S
C143 C137 1.428 . S
C143 O146 1.301 . S
C143 O147 1.282 . S
O144 U126 2.441 . S
O144 C130 1.249 . S
O145 U126 2.420 . S
O145 C130 1.202 . S
O146 U126 2.455 . S
O146 C143 1.301 . S
O147 U126 2.449 . S
O147 C143 1.282 . S
H148 C121 0.931 . S
H149 C123 0.929 . S
H150 C124 0.930 1_565 S
H151 C125 0.931 . S
H152 C132 0.932 . S
H153 C133 0.930 . S
H154 C134 0.929 . S
H155 C136 0.930 . S
H156 C138 0.932 . S
H157 C139 0.929 . S
H158 C140 0.928 . S
H159 C142 0.932 . S
C160 C161 1.264 . S
C160 C165 1.479 . S
C160 C170 1.465 . S
C161 C160 1.264 . S
C161 C163 1.339 . S
C161 H188 0.931 . S
C162 C163 1.395 . S
C162 C164 1.320 . S
C163 C161 1.339 . S
C163 C162 1.395 . S
C163 H189 0.929 . S
C164 C162 1.320 . S
C164 C165 1.405 . S
C164 H190 0.930 . S
C165 C160 1.479 . S
C165 C164 1.405 . S
C165 H191 0.931 . S
U166 O167 2.454 . S
U166 O168 2.458 . S
U166 C169 2.984 . S
U166 C170 2.847 . S
U166 C183 2.882 . S
U166 O184 2.441 . S
U166 O185 2.420 . S
U166 O186 2.455 . S
U166 O187 2.449 . S
O167 U166 2.454 . S
O167 C169 1.353 . S
O168 U166 2.458 . S
O168 C169 1.286 . S
C169 U166 2.984 . S
C169 O167 1.353 . S
C169 O168 1.286 . S
C169 C171 1.363 . S
C170 C160 1.465 . S
C170 U166 2.847 . S
C170 O184 1.249 . S
C170 O185 1.202 . S
C171 C169 1.363 . S
C171 C173 1.408 . S
C171 C176 1.342 . S
C172 C173 1.310 . S
C172 C175 1.461 . S
C172 H192 0.932 . S
C173 C171 1.408 . S
C173 C172 1.310 . S
C173 H193 0.930 . S
C174 C175 1.474 . S
C174 C176 1.285 . S
C174 H194 0.929 . S
C175 C172 1.461 . S
C175 C174 1.474 . S
C176 C171 1.342 . S
C176 C174 1.285 . S
C176 H195 0.930 . S
C177 C180 1.424 . S
C177 C182 1.245 . S
C177 C183 1.428 . S
C178 C181 1.260 . S
C178 C182 1.477 . S
C178 H196 0.932 . S
C179 C180 1.384 . S
C179 C181 1.479 . S
C179 H197 0.929 . S
C180 C177 1.424 . S
C180 C179 1.384 . S
C180 H198 0.928 . S
C181 C178 1.260 . S
C181 C179 1.479 . S
C182 C177 1.245 . S
C182 C178 1.477 . S
C182 H199 0.932 . S
C183 U166 2.882 . S
C183 C177 1.428 . S
C183 O186 1.301 . S
C183 O187 1.282 . S
O184 U166 2.441 . S
O184 C170 1.249 . S
O185 U166 2.420 . S
O185 C170 1.202 . S
O186 U166 2.455 . S
O186 C183 1.301 . S
O187 U166 2.449 . S
O187 C183 1.282 . S
H188 C161 0.931 . S
H189 C163 0.929 . S
H190 C164 0.930 . S
H191 C165 0.931 . S
H192 C172 0.932 . S
H193 C173 0.930 . S
H194 C174 0.929 . S
H195 C176 0.930 . S
H196 C178 0.932 . S
H197 C179 0.929 . S
H198 C180 0.928 . S
H199 C182 0.932 . S
C200 C201 1.264 . S
C200 C205 1.479 . S
C200 C210 1.465 . S
C201 C200 1.264 . S
C201 C203 1.339 . S
C201 H228 0.931 . S
C202 C203 1.395 . S
C202 C204 1.320 . S
C203 C201 1.339 . S
C203 C202 1.395 . S
C203 H229 0.929 . S
C204 C202 1.320 . S
C204 C205 1.405 . S
C204 H230 0.930 1_554 S
C205 C200 1.479 . S
C205 C204 1.405 . S
C205 H231 0.931 . S
U206 O207 2.466 . S
U206 O208 2.458 . S
U206 C209 2.983 1_554 S
U206 C210 2.847 . S
U206 C223 2.882 . S
U206 O224 2.441 . S
U206 O225 2.420 . S
U206 O226 2.455 . S
U206 O227 2.449 . S
O207 U206 2.466 . S
O207 C209 1.352 1_554 S
O208 U206 2.458 . S
O208 C209 1.285 1_554 S
C209 U206 2.983 1_556 S
C209 O207 1.352 1_556 S
C209 O208 1.285 1_556 S
C209 C211 1.365 . S
C210 C200 1.465 . S
C210 U206 2.847 . S
C210 O224 1.249 . S
C210 O225 1.202 . S
C211 C209 1.365 . S
C211 C213 1.408 . S
C211 C216 1.342 . S
C212 C213 1.310 . S
C212 C215 1.461 . S
C212 H232 0.932 . S
C213 C211 1.408 . S
C213 C212 1.310 . S
C213 H233 0.930 . S
C214 C215 1.474 . S
C214 C216 1.285 . S
C214 H234 0.929 . S
C215 C212 1.461 . S
C215 C214 1.474 . S
C216 C211 1.342 . S
C216 C214 1.285 . S
C216 H235 0.930 . S
C217 C220 1.424 . S
C217 C222 1.245 . S
C217 C223 1.428 . S
C218 C221 1.260 . S
C218 C222 1.477 . S
C218 H236 0.932 . S
C219 C220 1.384 . S
C219 C221 1.479 . S
C219 H237 0.929 . S
C220 C217 1.424 . S
C220 C219 1.384 . S
C220 H238 0.928 . S
C221 C218 1.260 . S
C221 C219 1.479 . S
C222 C217 1.245 . S
C222 C218 1.477 . S
C222 H239 0.932 . S
C223 U206 2.882 . S
C223 C217 1.428 . S
C223 O226 1.301 . S
C223 O227 1.282 . S
O224 U206 2.441 . S
O224 C210 1.249 . S
O225 U206 2.420 . S
O225 C210 1.202 . S
O226 U206 2.455 . S
O226 C223 1.301 . S
O227 U206 2.449 . S
O227 C223 1.282 . S
H228 C201 0.931 . S
H229 C203 0.929 . S
H230 C204 0.930 1_556 S
H231 C205 0.931 . S
H232 C212 0.932 . S
H233 C213 0.930 . S
H234 C214 0.929 . S
H235 C216 0.930 . S
H236 C218 0.932 . S
H237 C219 0.929 . S
H238 C220 0.928 . S
H239 C222 0.932 . S
C240 C241 1.264 . S
C240 C245 1.479 . S
C240 C250 1.465 . S
C241 C240 1.264 . S
C241 C243 1.339 . S
C241 H268 0.931 . S
C242 C243 1.395 . S
C242 C244 1.320 . S
C243 C241 1.339 . S
C243 C242 1.395 . S
C243 H269 0.929 . S
C244 C242 1.320 . S
C244 C245 1.405 . S
C244 H270 0.930 . S
C245 C240 1.479 . S
C245 C244 1.405 . S
C245 H271 0.931 . S
U246 O247 2.454 . S
U246 O248 2.458 . S
U246 C249 2.984 . S
U246 C250 2.847 . S
U246 C263 2.882 . S
U246 O264 2.441 . S
U246 O265 2.420 . S
U246 O266 2.455 . S
U246 O267 2.449 . S
O247 U246 2.454 . S
O247 C249 1.353 . S
O248 U246 2.458 . S
O248 C249 1.286 . S
C249 U246 2.984 . S
C249 O247 1.353 . S
C249 O248 1.286 . S
C249 C251 1.363 . S
C250 C240 1.465 . S
C250 U246 2.847 . S
C250 O264 1.249 . S
C250 O265 1.202 . S
C251 C249 1.363 . S
C251 C253 1.408 . S
C251 C256 1.342 . S
C252 C253 1.310 . S
C252 C255 1.461 . S
C252 H272 0.932 . S
C253 C251 1.408 . S
C253 C252 1.310 . S
C253 H273 0.930 . S
C254 C255 1.474 . S
C254 C256 1.285 . S
C254 H274 0.929 . S
C255 C252 1.461 . S
C255 C254 1.474 . S
C256 C251 1.342 . S
C256 C254 1.285 . S
C256 H275 0.930 . S
C257 C260 1.424 . S
C257 C262 1.245 . S
C257 C263 1.428 . S
C258 C261 1.260 . S
C258 C262 1.477 . S
C258 H276 0.932 . S
C259 C260 1.384 . S
C259 C261 1.479 . S
C259 H277 0.929 . S
C260 C257 1.424 . S
C260 C259 1.384 . S
C260 H278 0.928 . S
C261 C258 1.260 . S
C261 C259 1.479 . S
C262 C257 1.245 . S
C262 C258 1.477 . S
C262 H279 0.932 . S
C263 U246 2.882 . S
C263 C257 1.428 . S
C263 O266 1.301 . S
C263 O267 1.282 . S
O264 U246 2.441 . S
O264 C250 1.249 . S
O265 U246 2.420 . S
O265 C250 1.202 . S
O266 U246 2.455 . S
O266 C263 1.301 . S
O267 U246 2.449 . S
O267 C263 1.282 . S
H268 C241 0.931 . S
H269 C243 0.929 . S
H270 C244 0.930 . S
H271 C245 0.931 . S
H272 C252 0.932 . S
H273 C253 0.930 . S
H274 C254 0.929 . S
H275 C256 0.930 . S
H276 C258 0.932 . S
H277 C259 0.929 . S
H278 C260 0.928 . S
H279 C262 0.932 . S
C280 C281 1.264 . S
C280 C285 1.474 1_556 S
C280 C290 1.472 . S
C281 C280 1.264 . S
C281 C283 1.339 1_556 S
C281 H308 0.931 . S
C282 C283 1.395 . S
C282 C284 1.320 . S
C283 C281 1.339 1_554 S
C283 C282 1.395 . S
C283 H309 0.929 . S
C284 C282 1.320 . S
C284 C285 1.405 . S
C284 H310 0.930 . S
C285 C280 1.474 1_554 S
C285 C284 1.405 . S
C285 H311 0.931 . S
U286 O287 2.454 . S
U286 O288 2.458 . S
U286 C289 2.984 . S
U286 C290 2.847 . S
U286 C303 2.882 . S
U286 O304 2.441 . S
U286 O305 2.420 . S
U286 O306 2.455 . S
U286 O307 2.449 . S
O287 U286 2.454 . S
O287 C289 1.353 . S
O288 U286 2.458 . S
O288 C289 1.286 . S
C289 U286 2.984 . S
C289 O287 1.353 . S
C289 O288 1.286 . S
C289 C291 1.363 . S
C290 C280 1.472 . S
C290 U286 2.847 . S
C290 O304 1.249 . S
C290 O305 1.202 . S
C291 C289 1.363 . S
C291 C293 1.408 . S
C291 C296 1.342 . S
C292 C293 1.310 . S
C292 C295 1.461 . S
C292 H312 0.932 . S
C293 C291 1.408 . S
C293 C292 1.310 . S
C293 H313 0.930 . S
C294 C295 1.474 . S
C294 C296 1.285 . S
C294 H314 0.929 . S
C295 C292 1.461 . S
C295 C294 1.474 . S
C296 C291 1.342 . S
C296 C294 1.285 . S
C296 H315 0.930 . S
C297 C300 1.424 . S
C297 C302 1.245 . S
C297 C303 1.428 . S
C298 C301 1.260 . S
C298 C302 1.477 . S
C298 H316 0.932 . S
C299 C300 1.384 . S
C299 C301 1.479 . S
C299 H317 0.929 . S
C300 C297 1.424 . S
C300 C299 1.384 . S
C300 H318 0.928 . S
C301 C298 1.260 . S
C301 C299 1.479 . S
C302 C297 1.245 . S
C302 C298 1.477 . S
C302 H319 0.932 . S
C303 U286 2.882 . S
C303 C297 1.428 . S
C303 O306 1.301 . S
C303 O307 1.282 . S
O304 U286 2.441 . S
O304 C290 1.249 . S
O305 U286 2.420 . S
O305 C290 1.202 . S
O306 U286 2.455 . S
O306 C303 1.301 . S
O307 U286 2.449 . S
O307 C303 1.282 . S
H308 C281 0.931 . S
H309 C283 0.929 . S
H310 C284 0.930 . S
H311 C285 0.931 . S
H312 C292 0.932 . S
H313 C293 0.930 . S
H314 C294 0.929 . S
H315 C296 0.930 . S
H316 C298 0.932 . S
H317 C299 0.929 . S
H318 C300 0.928 . S
H319 C302 0.932 . S
C320 C321 1.264 . S
C320 C325 1.479 . S
C320 C330 1.465 . S
C321 C320 1.264 . S
C321 C323 1.339 . S
C321 H348 0.931 . S
C322 C323 1.395 . S
C322 C324 1.320 . S
C323 C321 1.339 . S
C323 C322 1.395 . S
C323 H349 0.929 . S
C324 C322 1.320 . S
C324 C325 1.405 . S
C324 H350 0.930 . S
C325 C320 1.479 . S
C325 C324 1.405 . S
C325 H351 0.931 . S
U326 O327 2.454 . S
U326 O328 2.458 . S
U326 C329 2.984 . S
U326 C330 2.847 . S
U326 C343 2.882 . S
U326 O344 2.441 . S
U326 O345 2.420 . S
U326 O346 2.455 . S
U326 O347 2.449 . S
O327 U326 2.454 . S
O327 C329 1.353 . S
O328 U326 2.458 . S
O328 C329 1.286 . S
C329 U326 2.984 . S
C329 O327 1.353 . S
C329 O328 1.286 . S
C329 C331 1.363 . S
C330 C320 1.465 . S
C330 U326 2.847 . S
C330 O344 1.249 . S
C330 O345 1.202 . S
C331 C329 1.363 . S
C331 C333 1.408 . S
C331 C336 1.342 . S
C332 C333 1.310 . S
C332 C335 1.461 . S
C332 H352 0.932 . S
C333 C331 1.408 . S
C333 C332 1.310 . S
C333 H353 0.930 . S
C334 C335 1.474 . S
C334 C336 1.285 . S
C334 H354 0.929 . S
C335 C332 1.461 . S
C335 C334 1.474 . S
C336 C331 1.342 . S
C336 C334 1.285 . S
C336 H355 0.930 . S
C337 C340 1.424 . S
C337 C342 1.245 . S
C337 C343 1.428 . S
C338 C341 1.260 . S
C338 C342 1.477 . S
C338 H356 0.932 . S
C339 C340 1.384 . S
C339 C341 1.479 . S
C339 H357 0.929 . S
C340 C337 1.424 . S
C340 C339 1.384 . S
C340 H358 0.928 . S
C341 C338 1.260 . S
C341 C339 1.479 . S
C342 C337 1.245 . S
C342 C338 1.477 . S
C342 H359 0.932 . S
C343 U326 2.882 . S
C343 C337 1.428 . S
C343 O346 1.301 . S
C343 O347 1.282 . S
O344 U326 2.441 . S
O344 C330 1.249 . S
O345 U326 2.420 . S
O345 C330 1.202 . S
O346 U326 2.455 . S
O346 C343 1.301 . S
O347 U326 2.449 . S
O347 C343 1.282 . S
H348 C321 0.931 . S
H349 C323 0.929 . S
H350 C324 0.930 . S
H351 C325 0.931 . S
H352 C332 0.932 . S
H353 C333 0.930 . S
H354 C334 0.929 . S
H355 C336 0.930 . S
H356 C338 0.932 . S
H357 C339 0.929 . S
H358 C340 0.928 . S
H359 C342 0.932 . S
C360 C361 1.264 . S
C360 C365 1.479 . S
C360 C370 1.465 . S
C361 C360 1.264 . S
C361 C363 1.339 . S
C361 H388 0.931 . S
C362 C363 1.395 . S
C362 C364 1.320 . S
C363 C361 1.339 . S
C363 C362 1.395 . S
C363 H389 0.929 . S
C364 C362 1.320 . S
C364 C365 1.405 . S
C364 H390 0.930 1_455 S
C365 C360 1.479 . S
C365 C364 1.405 . S
C365 H391 0.931 . S
U366 O367 2.466 . S
U366 O368 2.458 . S
U366 C369 2.983 1_455 S
U366 C370 2.847 . S
U366 C383 2.882 . S
U366 O384 2.441 . S
U366 O385 2.420 . S
U366 O386 2.455 . S
U366 O387 2.449 . S
O367 U366 2.466 . S
O367 C369 1.352 1_455 S
O368 U366 2.458 . S
O368 C369 1.285 1_455 S
C369 U366 2.983 1_655 S
C369 O367 1.352 1_655 S
C369 O368 1.285 1_655 S
C369 C371 1.365 . S
C370 C360 1.465 . S
C370 U366 2.847 . S
C370 O384 1.249 . S
C370 O385 1.202 . S
C371 C369 1.365 . S
C371 C373 1.408 . S
C371 C376 1.342 . S
C372 C373 1.310 . S
C372 C375 1.461 . S
C372 H392 0.932 . S
C373 C371 1.408 . S
C373 C372 1.310 . S
C373 H393 0.930 . S
C374 C375 1.474 . S
C374 C376 1.285 . S
C374 H394 0.929 . S
C375 C372 1.461 . S
C375 C374 1.474 . S
C376 C371 1.342 . S
C376 C374 1.285 . S
C376 H395 0.930 . S
C377 C380 1.424 . S
C377 C382 1.245 . S
C377 C383 1.428 . S
C378 C381 1.260 . S
C378 C382 1.477 . S
C378 H396 0.932 . S
C379 C380 1.384 . S
C379 C381 1.479 . S
C379 H397 0.929 . S
C380 C377 1.424 . S
C380 C379 1.384 . S
C380 H398 0.928 . S
C381 C378 1.260 . S
C381 C379 1.479 . S
C382 C377 1.245 . S
C382 C378 1.477 . S
C382 H399 0.932 . S
C383 U366 2.882 . S
C383 C377 1.428 . S
C383 O386 1.301 . S
C383 O387 1.282 . S
O384 U366 2.441 . S
O384 C370 1.249 . S
O385 U366 2.420 . S
O385 C370 1.202 . S
O386 U366 2.455 . S
O386 C383 1.301 . S
O387 U366 2.449 . S
O387 C383 1.282 . S
H388 C361 0.931 . S
H389 C363 0.929 . S
H390 C364 0.930 1_655 S
H391 C365 0.931 . S
H392 C372 0.932 . S
H393 C373 0.930 . S
H394 C374 0.929 . S
H395 C376 0.930 . S
H396 C378 0.932 . S
H397 C379 0.929 . S
H398 C380 0.928 . S
H399 C382 0.932 . S
C400 C401 1.264 . S
C400 C405 1.479 . S
C400 C410 1.465 . S
C401 C400 1.264 . S
C401 C403 1.339 . S
C401 H428 0.931 . S
C402 C403 1.395 . S
C402 C404 1.320 . S
C403 C401 1.339 . S
C403 C402 1.395 . S
C403 H429 0.929 . S
C404 C402 1.320 . S
C404 C405 1.405 . S
C404 H430 0.930 . S
C405 C400 1.479 . S
C405 C404 1.405 . S
C405 H431 0.931 . S
U406 O407 2.454 . S
U406 O408 2.458 . S
U406 C409 2.984 . S
U406 C410 2.847 . S
U406 C423 2.882 . S
U406 O424 2.441 . S
U406 O425 2.420 . S
U406 O426 2.455 . S
U406 O427 2.449 . S
O407 U406 2.454 . S
O407 C409 1.353 . S
O408 U406 2.458 . S
O408 C409 1.286 . S
C409 U406 2.984 . S
C409 O407 1.353 . S
C409 O408 1.286 . S
C409 C411 1.363 . S
C410 C400 1.465 . S
C410 U406 2.847 . S
C410 O424 1.249 . S
C410 O425 1.202 . S
C411 C409 1.363 . S
C411 C413 1.408 . S
C411 C416 1.342 . S
C412 C413 1.310 . S
C412 C415 1.461 . S
C412 H432 0.932 . S
C413 C411 1.408 . S
C413 C412 1.310 . S
C413 H433 0.930 . S
C414 C415 1.474 . S
C414 C416 1.285 . S
C414 H434 0.929 . S
C415 C412 1.461 . S
C415 C414 1.474 . S
C416 C411 1.342 . S
C416 C414 1.285 . S
C416 H435 0.930 . S
C417 C420 1.424 . S
C417 C422 1.245 . S
C417 C423 1.428 . S
C418 C421 1.260 . S
C418 C422 1.477 . S
C418 H436 0.932 . S
C419 C420 1.384 . S
C419 C421 1.479 . S
C419 H437 0.929 . S
C420 C417 1.424 . S
C420 C419 1.384 . S
C420 H438 0.928 . S
C421 C418 1.260 . S
C421 C419 1.479 . S
C422 C417 1.245 . S
C422 C418 1.477 . S
C422 H439 0.932 . S
C423 U406 2.882 . S
C423 C417 1.428 . S
C423 O426 1.301 . S
C423 O427 1.282 . S
O424 U406 2.441 . S
O424 C410 1.249 . S
O425 U406 2.420 . S
O425 C410 1.202 . S
O426 U406 2.455 . S
O426 C423 1.301 . S
O427 U406 2.449 . S
O427 C423 1.282 . S
H428 C401 0.931 . S
H429 C403 0.929 . S
H430 C404 0.930 . S
H431 C405 0.931 . S
H432 C412 0.932 . S
H433 C413 0.930 . S
H434 C414 0.929 . S
H435 C416 0.930 . S
H436 C418 0.932 . S
H437 C419 0.929 . S
H438 C420 0.928 . S
H439 C422 0.932 . S
C440 C441 1.264 . S
C440 C445 1.474 1_655 S
C440 C450 1.472 . S
C441 C440 1.264 . S
C441 C443 1.339 1_655 S
C441 H468 0.931 . S
C442 C443 1.395 . S
C442 C444 1.320 . S
C443 C441 1.339 1_455 S
C443 C442 1.395 . S
C443 H469 0.929 . S
C444 C442 1.320 . S
C444 C445 1.405 . S
C444 H470 0.930 . S
C445 C440 1.474 1_455 S
C445 C444 1.405 . S
C445 H471 0.931 . S
U446 O447 2.454 . S
U446 O448 2.458 . S
U446 C449 2.984 . S
U446 C450 2.847 . S
U446 C463 2.882 . S
U446 O464 2.441 . S
U446 O465 2.420 . S
U446 O466 2.455 . S
U446 O467 2.449 . S
O447 U446 2.454 . S
O447 C449 1.353 . S
O448 U446 2.458 . S
O448 C449 1.286 . S
C449 U446 2.984 . S
C449 O447 1.353 . S
C449 O448 1.286 . S
C449 C451 1.363 . S
C450 C440 1.472 . S
C450 U446 2.847 . S
C450 O464 1.249 . S
C450 O465 1.202 . S
C451 C449 1.363 . S
C451 C453 1.408 . S
C451 C456 1.342 . S
C452 C453 1.310 . S
C452 C455 1.461 . S
C452 H472 0.932 . S
C453 C451 1.408 . S
C453 C452 1.310 . S
C453 H473 0.930 . S
C454 C455 1.474 . S
C454 C456 1.285 . S
C454 H474 0.929 . S
C455 C452 1.461 . S
C455 C454 1.474 . S
C456 C451 1.342 . S
C456 C454 1.285 . S
C456 H475 0.930 . S
C457 C460 1.424 . S
C457 C462 1.245 . S
C457 C463 1.428 . S
C458 C461 1.260 . S
C458 C462 1.477 . S
C458 H476 0.932 . S
C459 C460 1.384 . S
C459 C461 1.479 . S
C459 H477 0.929 . S
C460 C457 1.424 . S
C460 C459 1.384 . S
C460 H478 0.928 . S
C461 C458 1.260 . S
C461 C459 1.479 . S
C462 C457 1.245 . S
C462 C458 1.477 . S
C462 H479 0.932 . S
C463 U446 2.882 . S
C463 C457 1.428 . S
C463 O466 1.301 . S
C463 O467 1.282 . S
O464 U446 2.441 . S
O464 C450 1.249 . S
O465 U446 2.420 . S
O465 C450 1.202 . S
O466 U446 2.455 . S
O466 C463 1.301 . S
O467 U446 2.449 . S
O467 C463 1.282 . S
H468 C441 0.931 . S
H469 C443 0.929 . S
H470 C444 0.930 . S
H471 C445 0.931 . S
H472 C452 0.932 . S
H473 C453 0.930 . S
H474 C454 0.929 . S
H475 C456 0.930 . S
H476 C458 0.932 . S
H477 C459 0.929 . S
H478 C460 0.928 . S
H479 C462 0.932 . S
C480 C481 1.264 . S
C480 C485 1.479 . S
C480 C490 1.465 . S
C481 C480 1.264 . S
C481 C483 1.339 . S
C481 H508 0.931 . S
C482 C483 1.395 . S
C482 C484 1.320 . S
C483 C481 1.339 . S
C483 C482 1.395 . S
C483 H509 0.929 . S
C484 C482 1.320 . S
C484 C485 1.405 . S
C484 H510 0.930 . S
C485 C480 1.479 . S
C485 C484 1.405 . S
C485 H511 0.931 . S
U486 O487 2.454 . S
U486 O488 2.458 . S
U486 C489 2.984 . S
U486 C490 2.847 . S
U486 C503 2.882 . S
U486 O504 2.441 . S
U486 O505 2.420 . S
U486 O506 2.455 . S
U486 O507 2.449 . S
O487 U486 2.454 . S
O487 C489 1.353 . S
O488 U486 2.458 . S
O488 C489 1.286 . S
C489 U486 2.984 . S
C489 O487 1.353 . S
C489 O488 1.286 . S
C489 C491 1.363 . S
C490 C480 1.465 . S
C490 U486 2.847 . S
C490 O504 1.249 . S
C490 O505 1.202 . S
C491 C489 1.363 . S
C491 C493 1.408 . S
C491 C496 1.342 . S
C492 C493 1.310 . S
C492 C495 1.461 . S
C492 H512 0.932 . S
C493 C491 1.408 . S
C493 C492 1.310 . S
C493 H513 0.930 . S
C494 C495 1.474 . S
C494 C496 1.285 . S
C494 H514 0.929 . S
C495 C492 1.461 . S
C495 C494 1.474 . S
C496 C491 1.342 . S
C496 C494 1.285 . S
C496 H515 0.930 . S
C497 C500 1.424 . S
C497 C502 1.245 . S
C497 C503 1.428 . S
C498 C501 1.260 . S
C498 C502 1.477 . S
C498 H516 0.932 . S
C499 C500 1.384 . S
C499 C501 1.479 . S
C499 H517 0.929 . S
C500 C497 1.424 . S
C500 C499 1.384 . S
C500 H518 0.928 . S
C501 C498 1.260 . S
C501 C499 1.479 . S
C502 C497 1.245 . S
C502 C498 1.477 . S
C502 H519 0.932 . S
C503 U486 2.882 . S
C503 C497 1.428 . S
C503 O506 1.301 . S
C503 O507 1.282 . S
O504 U486 2.441 . S
O504 C490 1.249 . S
O505 U486 2.420 . S
O505 C490 1.202 . S
O506 U486 2.455 . S
O506 C503 1.301 . S
O507 U486 2.449 . S
O507 C503 1.282 . S
H508 C481 0.931 . S
H509 C483 0.929 . S
H510 C484 0.930 . S
H511 C485 0.931 . S
H512 C492 0.932 . S
H513 C493 0.930 . S
H514 C494 0.929 . S
H515 C496 0.930 . S
H516 C498 0.932 . S
H517 C499 0.929 . S
H518 C500 0.928 . S
H519 C502 0.932 . S
C520 C521 1.264 . S
C520 C525 1.479 . S
C520 C530 1.465 . S
C521 C520 1.264 . S
C521 C523 1.339 . S
C521 H548 0.931 . S
C522 C523 1.395 . S
C522 C524 1.320 . S
C523 C521 1.339 . S
C523 C522 1.395 . S
C523 H549 0.929 . S
C524 C522 1.320 . S
C524 C525 1.405 . S
C524 H550 0.930 . S
C525 C520 1.479 . S
C525 C524 1.405 . S
C525 H551 0.931 . S
U526 O527 2.454 . S
U526 O528 2.458 . S
U526 C529 2.984 . S
U526 C530 2.847 . S
U526 C543 2.882 . S
U526 O544 2.441 . S
U526 O545 2.420 . S
U526 O546 2.455 . S
U526 O547 2.449 . S
O527 U526 2.454 . S
O527 C529 1.353 . S
O528 U526 2.458 . S
O528 C529 1.286 . S
C529 U526 2.984 . S
C529 O527 1.353 . S
C529 O528 1.286 . S
C529 C531 1.363 . S
C530 C520 1.465 . S
C530 U526 2.847 . S
C530 O544 1.249 . S
C530 O545 1.202 . S
C531 C529 1.363 . S
C531 C533 1.408 . S
C531 C536 1.342 . S
C532 C533 1.310 . S
C532 C535 1.461 . S
C532 H552 0.932 . S
C533 C531 1.408 . S
C533 C532 1.310 . S
C533 H553 0.930 . S
C534 C535 1.474 . S
C534 C536 1.285 . S
C534 H554 0.929 . S
C535 C532 1.461 . S
C535 C534 1.474 . S
C536 C531 1.342 . S
C536 C534 1.285 . S
C536 H555 0.930 . S
C537 C540 1.424 . S
C537 C542 1.245 . S
C537 C543 1.428 . S
C538 C541 1.260 . S
C538 C542 1.477 . S
C538 H556 0.932 . S
C539 C540 1.384 . S
C539 C541 1.479 . S
C539 H557 0.929 . S
C540 C537 1.424 . S
C540 C539 1.384 . S
C540 H558 0.928 . S
C541 C538 1.260 . S
C541 C539 1.479 . S
C542 C537 1.245 . S
C542 C538 1.477 . S
C542 H559 0.932 . S
C543 U526 2.882 . S
C543 C537 1.428 . S
C543 O546 1.301 . S
C543 O547 1.282 . S
O544 U526 2.441 . S
O544 C530 1.249 . S
O545 U526 2.420 . S
O545 C530 1.202 . S
O546 U526 2.455 . S
O546 C543 1.301 . S
O547 U526 2.449 . S
O547 C543 1.282 . S
H548 C521 0.931 . S
H549 C523 0.929 . S
H550 C524 0.930 . S
H551 C525 0.931 . S
H552 C532 0.932 . S
H553 C533 0.930 . S
H554 C534 0.929 . S
H555 C536 0.930 . S
H556 C538 0.932 . S
H557 C539 0.929 . S
H558 C540 0.928 . S
H559 C542 0.932 . S
C560 C561 1.264 . S
C560 C565 1.479 . S
C560 C570 1.465 . S
C561 C560 1.264 . S
C561 C563 1.339 . S
C561 H588 0.931 . S
C562 C563 1.395 . S
C562 C564 1.320 . S
C563 C561 1.339 . S
C563 C562 1.395 . S
C563 H589 0.929 . S
C564 C562 1.320 . S
C564 C565 1.405 . S
C564 H590 0.930 . S
C565 C560 1.479 . S
C565 C564 1.405 . S
C565 H591 0.931 . S
U566 O567 2.454 . S
U566 O568 2.458 . S
U566 C569 2.984 . S
U566 C570 2.847 . S
U566 C583 2.882 . S
U566 O584 2.441 . S
U566 O585 2.420 . S
U566 O586 2.455 . S
U566 O587 2.449 . S
O567 U566 2.454 . S
O567 C569 1.353 . S
O568 U566 2.458 . S
O568 C569 1.286 . S
C569 U566 2.984 . S
C569 O567 1.353 . S
C569 O568 1.286 . S
C569 C571 1.358 1_565 S
C570 C560 1.465 . S
C570 U566 2.847 . S
C570 O584 1.249 . S
C570 O585 1.202 . S
C571 C569 1.358 1_545 S
C571 C573 1.407 1_545 S
C571 C576 1.350 . S
C572 C573 1.308 1_545 S
C572 C575 1.461 . S
C572 H592 0.932 . S
C573 C571 1.407 1_565 S
C573 C572 1.308 1_565 S
C573 H593 0.932 . S
C574 C575 1.474 . S
C574 C576 1.285 . S
C574 H594 0.929 . S
C575 C572 1.461 . S
C575 C574 1.474 . S
C576 C571 1.350 . S
C576 C574 1.285 . S
C576 H595 0.930 . S
C577 C580 1.424 . S
C577 C582 1.245 . S
C577 C583 1.428 . S
C578 C581 1.260 . S
C578 C582 1.477 1_545 S
C578 H596 0.932 . S
C579 C580 1.384 . S
C579 C581 1.479 1_565 S
C579 H597 0.929 . S
C580 C577 1.424 . S
C580 C579 1.384 . S
C580 H598 0.928 . S
C581 C578 1.260 . S
C581 C579 1.479 1_545 S
C582 C577 1.245 . S
C582 C578 1.477 1_565 S
C582 H599 0.936 . S
C583 U566 2.882 . S
C583 C577 1.428 . S
C583 O586 1.301 . S
C583 O587 1.282 . S
O584 U566 2.441 . S
O584 C570 1.249 . S
O585 U566 2.420 . S
O585 C570 1.202 . S
O586 U566 2.455 . S
O586 C583 1.301 . S
O587 U566 2.449 . S
O587 C583 1.282 . S
H588 C561 0.931 . S
H589 C563 0.929 . S
H590 C564 0.930 . S
H591 C565 0.931 . S
H592 C572 0.932 . S
H593 C573 0.932 . S
H594 C574 0.929 . S
H595 C576 0.930 . S
H596 C578 0.932 . S
H597 C579 0.929 . S
H598 C580 0.928 . S
H599 C582 0.936 . S
C600 C601 1.264 . S
C600 C605 1.479 . S
C600 C610 1.465 . S
C601 C600 1.264 . S
C601 C603 1.339 . S
C601 H628 0.931 . S
C602 C603 1.392 1_565 S
C602 C604 1.316 1_565 S
C603 C601 1.339 . S
C603 C602 1.392 1_545 S
C603 H629 0.929 . S
C604 C602 1.316 1_545 S
C604 C605 1.405 . S
C604 H630 0.931 1_545 S
C605 C600 1.479 . S
C605 C604 1.405 . S
C605 H631 0.931 . S
U606 O607 2.454 . S
U606 O608 2.458 . S
U606 C609 2.984 . S
U606 C610 2.847 . S
U606 C623 2.882 . S
U606 O624 2.441 . S
U606 O625 2.420 . S
U606 O626 2.455 . S
U606 O627 2.449 . S
O607 U606 2.454 . S
O607 C609 1.353 . S
O608 U606 2.458 . S
O608 C609 1.286 . S
C609 U606 2.984 . S
C609 O607 1.353 . S
C609 O608 1.286 . S
C609 C611 1.363 . S
C610 C600 1.465 . S
C610 U606 2.847 . S
C610 O624 1.249 . S
C610 O625 1.202 . S
C611 C609 1.363 . S
C611 C613 1.408 . S
C611 C616 1.342 . S
C612 C613 1.310 . S
C612 C615 1.461 . S
C612 H632 0.932 . S
C613 C611 1.408 . S
C613 C612 1.310 . S
C613 H633 0.930 . S
C614 C615 1.474 . S
C614 C616 1.285 . S
C614 H634 0.929 . S
C615 C612 1.461 . S
C615 C614 1.474 . S
C616 C611 1.342 . S
C616 C614 1.285 . S
C616 H635 0.930 . S
C617 C620 1.424 1_545 S
C617 C622 1.245 . S
C617 C623 1.428 . S
C618 C621 1.260 . S
C618 C622 1.477 1_565 S
C618 H636 0.932 1_565 S
C619 C620 1.384 . S
C619 C621 1.479 . S
C619 H637 0.929 . S
C620 C617 1.424 1_565 S
C620 C619 1.384 . S
C620 H638 0.928 . S
C621 C618 1.260 . S
C621 C619 1.479 . S
C622 C617 1.245 . S
C622 C618 1.477 1_545 S
C622 H639 0.932 . S
C623 U606 2.882 . S
C623 C617 1.428 . S
C623 O626 1.301 . S
C623 O627 1.282 . S
O624 U606 2.441 . S
O624 C610 1.249 . S
O625 U606 2.420 . S
O625 C610 1.202 . S
O626 U606 2.455 . S
O626 C623 1.301 . S
O627 U606 2.449 . S
O627 C623 1.282 . S
H628 C601 0.931 . S
H629 C603 0.929 . S
H630 C604 0.931 1_565 S
H631 C605 0.931 . S
H632 C612 0.932 . S
H633 C613 0.930 . S
H634 C614 0.929 . S
H635 C616 0.930 . S
H636 C618 0.932 1_545 S
H637 C619 0.929 . S
H638 C620 0.928 . S
H639 C622 0.932 . S
C640 C641 1.264 . S
C640 C645 1.479 . S
C640 C650 1.465 . S
C641 C640 1.264 . S
C641 C643 1.339 . S
C641 H668 0.931 . S
C642 C643 1.395 . S
C642 C644 1.320 . S
C643 C641 1.339 . S
C643 C642 1.395 . S
C643 H669 0.929 . S
C644 C642 1.320 . S
C644 C645 1.405 . S
C644 H670 0.930 . S
C645 C640 1.479 . S
C645 C644 1.405 . S
C645 H671 0.931 . S
U646 O647 2.454 . S
U646 O648 2.458 . S
U646 C649 2.984 . S
U646 C650 2.847 . S
U646 C663 2.882 . S
U646 O664 2.441 . S
U646 O665 2.420 . S
U646 O666 2.455 . S
U646 O667 2.449 . S
O647 U646 2.454 . S
O647 C649 1.353 . S
O648 U646 2.458 . S
O648 C649 1.286 . S
C649 U646 2.984 . S
C649 O647 1.353 . S
C649 O648 1.286 . S
C649 C651 1.363 . S
C650 C640 1.465 . S
C650 U646 2.847 . S
C650 O664 1.249 . S
C650 O665 1.202 . S
C651 C649 1.363 . S
C651 C653 1.408 . S
C651 C656 1.342 . S
C652 C653 1.310 . S
C652 C655 1.461 . S
C652 H672 0.932 . S
C653 C651 1.408 . S
C653 C652 1.310 . S
C653 H673 0.930 . S
C654 C655 1.474 . S
C654 C656 1.285 . S
C654 H674 0.929 . S
C655 C652 1.461 . S
C655 C654 1.474 . S
C656 C651 1.342 . S
C656 C654 1.285 . S
C656 H675 0.930 . S
C657 C660 1.424 . S
C657 C662 1.245 . S
C657 C663 1.428 . S
C658 C661 1.260 . S
C658 C662 1.477 . S
C658 H676 0.932 . S
C659 C660 1.384 . S
C659 C661 1.479 . S
C659 H677 0.929 . S
C660 C657 1.424 . S
C660 C659 1.384 . S
C660 H678 0.928 . S
C661 C658 1.260 . S
C661 C659 1.479 . S
C662 C657 1.245 . S
C662 C658 1.477 . S
C662 H679 0.932 . S
C663 U646 2.882 . S
C663 C657 1.428 . S
C663 O666 1.301 . S
C663 O667 1.282 . S
O664 U646 2.441 . S
O664 C650 1.249 . S
O665 U646 2.420 . S
O665 C650 1.202 . S
O666 U646 2.455 . S
O666 C663 1.301 . S
O667 U646 2.449 . S
O667 C663 1.282 . S
H668 C641 0.931 . S
H669 C643 0.929 . S
H670 C644 0.930 . S
H671 C645 0.931 . S
H672 C652 0.932 . S
H673 C653 0.930 . S
H674 C654 0.929 . S
H675 C656 0.930 . S
H676 C658 0.932 . S
H677 C659 0.929 . S
H678 C660 0.928 . S
H679 C662 0.932 . S
C680 C681 1.264 . S
C680 C685 1.479 . S
C680 C690 1.465 . S
C681 C680 1.264 . S
C681 C683 1.339 . S
C681 H708 0.931 . S
C682 C683 1.392 1_556 S
C682 C684 1.316 1_556 S
C683 C681 1.339 . S
C683 C682 1.392 1_554 S
C683 H709 0.929 . S
C684 C682 1.316 1_554 S
C684 C685 1.405 . S
C684 H710 0.931 1_554 S
C685 C680 1.479 . S
C685 C684 1.405 . S
C685 H711 0.931 . S
U686 O687 2.454 . S
U686 O688 2.458 . S
U686 C689 2.984 . S
U686 C690 2.847 . S
U686 C703 2.882 . S
U686 O704 2.441 . S
U686 O705 2.420 . S
U686 O706 2.455 . S
U686 O707 2.449 . S
O687 U686 2.454 . S
O687 C689 1.353 . S
O688 U686 2.458 . S
O688 C689 1.286 . S
C689 U686 2.984 . S
C689 O687 1.353 . S
C689 O688 1.286 . S
C689 C691 1.363 . S
C690 C680 1.465 . S
C690 U686 2.847 . S
C690 O704 1.249 . S
C690 O705 1.202 . S
C691 C689 1.363 . S
C691 C693 1.408 . S
C691 C696 1.342 . S
C692 C693 1.310 . S
C692 C695 1.461 . S
C692 H712 0.932 . S
C693 C691 1.408 . S
C693 C692 1.310 . S
C693 H713 0.930 . S
C694 C695 1.474 . S
C694 C696 1.285 . S
C694 H714 0.929 . S
C695 C692 1.461 . S
C695 C694 1.474 . S
C696 C691 1.342 . S
C696 C694 1.285 . S
C696 H715 0.930 . S
C697 C700 1.424 1_554 S
C697 C702 1.245 . S
C697 C703 1.428 . S
C698 C701 1.260 . S
C698 C702 1.477 1_556 S
C698 H716 0.932 1_556 S
C699 C700 1.384 . S
C699 C701 1.479 . S
C699 H717 0.929 . S
C700 C697 1.424 1_556 S
C700 C699 1.384 . S
C700 H718 0.928 . S
C701 C698 1.260 . S
C701 C699 1.479 . S
C702 C697 1.245 . S
C702 C698 1.477 1_554 S
C702 H719 0.932 . S
C703 U686 2.882 . S
C703 C697 1.428 . S
C703 O706 1.301 . S
C703 O707 1.282 . S
O704 U686 2.441 . S
O704 C690 1.249 . S
O705 U686 2.420 . S
O705 C690 1.202 . S
O706 U686 2.455 . S
O706 C703 1.301 . S
O707 U686 2.449 . S
O707 C703 1.282 . S
H708 C681 0.931 . S
H709 C683 0.929 . S
H710 C684 0.931 1_556 S
H711 C685 0.931 . S
H712 C692 0.932 . S
H713 C693 0.930 . S
H714 C694 0.929 . S
H715 C696 0.930 . S
H716 C698 0.932 1_554 S
H717 C699 0.929 . S
H718 C700 0.928 . S
H719 C702 0.932 . S
C720 C721 1.264 . S
C720 C725 1.479 . S
C720 C730 1.465 . S
C721 C720 1.264 . S
C721 C723 1.339 . S
C721 H748 0.931 . S
C722 C723 1.395 . S
C722 C724 1.320 . S
C723 C721 1.339 . S
C723 C722 1.395 . S
C723 H749 0.929 . S
C724 C722 1.320 . S
C724 C725 1.405 . S
C724 H750 0.930 . S
C725 C720 1.479 . S
C725 C724 1.405 . S
C725 H751 0.931 . S
U726 O727 2.454 . S
U726 O728 2.458 . S
U726 C729 2.984 . S
U726 C730 2.847 . S
U726 C743 2.882 . S
U726 O744 2.441 . S
U726 O745 2.420 . S
U726 O746 2.455 . S
U726 O747 2.449 . S
O727 U726 2.454 . S
O727 C729 1.353 . S
O728 U726 2.458 . S
O728 C729 1.286 . S
C729 U726 2.984 . S
C729 O727 1.353 . S
C729 O728 1.286 . S
C729 C731 1.363 . S
C730 C720 1.465 . S
C730 U726 2.847 . S
C730 O744 1.249 . S
C730 O745 1.202 . S
C731 C729 1.363 . S
C731 C733 1.408 . S
C731 C736 1.342 . S
C732 C733 1.310 . S
C732 C735 1.461 . S
C732 H752 0.932 . S
C733 C731 1.408 . S
C733 C732 1.310 . S
C733 H753 0.930 . S
C734 C735 1.474 . S
C734 C736 1.285 . S
C734 H754 0.929 . S
C735 C732 1.461 . S
C735 C734 1.474 . S
C736 C731 1.342 . S
C736 C734 1.285 . S
C736 H755 0.930 . S
C737 C740 1.424 . S
C737 C742 1.245 . S
C737 C743 1.428 . S
C738 C741 1.260 . S
C738 C742 1.477 . S
C738 H756 0.932 . S
C739 C740 1.384 . S
C739 C741 1.479 . S
C739 H757 0.929 . S
C740 C737 1.424 . S
C740 C739 1.384 . S
C740 H758 0.928 . S
C741 C738 1.260 . S
C741 C739 1.479 . S
C742 C737 1.245 . S
C742 C738 1.477 . S
C742 H759 0.932 . S
C743 U726 2.882 . S
C743 C737 1.428 . S
C743 O746 1.301 . S
C743 O747 1.282 . S
O744 U726 2.441 . S
O744 C730 1.249 . S
O745 U726 2.420 . S
O745 C730 1.202 . S
O746 U726 2.455 . S
O746 C743 1.301 . S
O747 U726 2.449 . S
O747 C743 1.282 . S
H748 C721 0.931 . S
H749 C723 0.929 . S
H750 C724 0.930 . S
H751 C725 0.931 . S
H752 C732 0.932 . S
H753 C733 0.930 . S
H754 C734 0.929 . S
H755 C736 0.930 . S
H756 C738 0.932 . S
H757 C739 0.929 . S
H758 C740 0.928 . S
H759 C742 0.932 . S
C760 C761 1.264 . S
C760 C765 1.479 . S
C760 C770 1.465 . S
C761 C760 1.264 . S
C761 C763 1.339 . S
C761 H788 0.931 . S
C762 C763 1.395 . S
C762 C764 1.320 . S
C763 C761 1.339 . S
C763 C762 1.395 . S
C763 H789 0.929 . S
C764 C762 1.320 . S
C764 C765 1.405 . S
C764 H790 0.930 . S
C765 C760 1.479 . S
C765 C764 1.405 . S
C765 H791 0.931 . S
U766 O767 2.454 . S
U766 O768 2.458 . S
U766 C769 2.984 . S
U766 C770 2.847 . S
U766 C783 2.882 . S
U766 O784 2.441 . S
U766 O785 2.420 . S
U766 O786 2.455 . S
U766 O787 2.449 . S
O767 U766 2.454 . S
O767 C769 1.353 . S
O768 U766 2.458 . S
O768 C769 1.286 . S
C769 U766 2.984 . S
C769 O767 1.353 . S
C769 O768 1.286 . S
C769 C771 1.358 1_556 S
C770 C760 1.465 . S
C770 U766 2.847 . S
C770 O784 1.249 . S
C770 O785 1.202 . S
C771 C769 1.358 1_554 S
C771 C773 1.407 1_554 S
C771 C776 1.350 . S
C772 C773 1.308 1_554 S
C772 C775 1.461 . S
C772 H792 0.932 . S
C773 C771 1.407 1_556 S
C773 C772 1.308 1_556 S
C773 H793 0.932 . S
C774 C775 1.474 . S
C774 C776 1.285 . S
C774 H794 0.929 . S
C775 C772 1.461 . S
C775 C774 1.474 . S
C776 C771 1.350 . S
C776 C774 1.285 . S
C776 H795 0.930 . S
C777 C780 1.424 . S
C777 C782 1.245 . S
C777 C783 1.428 . S
C778 C781 1.260 . S
C778 C782 1.477 1_554 S
C778 H796 0.932 . S
C779 C780 1.384 . S
C779 C781 1.479 1_556 S
C779 H797 0.929 . S
C780 C777 1.424 . S
C780 C779 1.384 . S
C780 H798 0.928 . S
C781 C778 1.260 . S
C781 C779 1.479 1_554 S
C782 C777 1.245 . S
C782 C778 1.477 1_556 S
C782 H799 0.936 . S
C783 U766 2.882 . S
C783 C777 1.428 . S
C783 O786 1.301 . S
C783 O787 1.282 . S
O784 U766 2.441 . S
O784 C770 1.249 . S
O785 U766 2.420 . S
O785 C770 1.202 . S
O786 U766 2.455 . S
O786 C783 1.301 . S
O787 U766 2.449 . S
O787 C783 1.282 . S
H788 C761 0.931 . S
H789 C763 0.929 . S
H790 C764 0.930 . S
H791 C765 0.931 . S
H792 C772 0.932 . S
H793 C773 0.932 . S
H794 C774 0.929 . S
H795 C776 0.930 . S
H796 C778 0.932 . S
H797 C779 0.929 . S
H798 C780 0.928 . S
H799 C782 0.936 . S
C800 C801 1.264 . S
C800 C805 1.479 . S
C800 C810 1.465 . S
C801 C800 1.264 . S
C801 C803 1.339 . S
C801 H828 0.931 . S
C802 C803 1.395 . S
C802 C804 1.320 . S
C803 C801 1.339 . S
C803 C802 1.395 . S
C803 H829 0.929 . S
C804 C802 1.320 . S
C804 C805 1.405 . S
C804 H830 0.930 . S
C805 C800 1.479 . S
C805 C804 1.405 . S
C805 H831 0.931 . S
U806 O807 2.454 . S
U806 O808 2.458 . S
U806 C809 2.984 . S
U806 C810 2.847 . S
U806 C823 2.882 . S
U806 O824 2.441 . S
U806 O825 2.420 . S
U806 O826 2.455 . S
U806 O827 2.449 . S
O807 U806 2.454 . S
O807 C809 1.353 . S
O808 U806 2.458 . S
O808 C809 1.286 . S
C809 U806 2.984 . S
C809 O807 1.353 . S
C809 O808 1.286 . S
C809 C811 1.363 . S
C810 C800 1.465 . S
C810 U806 2.847 . S
C810 O824 1.249 . S
C810 O825 1.202 . S
C811 C809 1.363 . S
C811 C813 1.408 . S
C811 C816 1.342 . S
C812 C813 1.310 . S
C812 C815 1.461 . S
C812 H832 0.932 . S
C813 C811 1.408 . S
C813 C812 1.310 . S
C813 H833 0.930 . S
C814 C815 1.474 . S
C814 C816 1.285 . S
C814 H834 0.929 . S
C815 C812 1.461 . S
C815 C814 1.474 . S
C816 C811 1.342 . S
C816 C814 1.285 . S
C816 H835 0.930 . S
C817 C820 1.424 . S
C817 C822 1.245 . S
C817 C823 1.428 . S
C818 C821 1.260 . S
C818 C822 1.477 . S
C818 H836 0.932 . S
C819 C820 1.384 . S
C819 C821 1.479 . S
C819 H837 0.929 . S
C820 C817 1.424 . S
C820 C819 1.384 . S
C820 H838 0.928 . S
C821 C818 1.260 . S
C821 C819 1.479 . S
C822 C817 1.245 . S
C822 C818 1.477 . S
C822 H839 0.932 . S
C823 U806 2.882 . S
C823 C817 1.428 . S
C823 O826 1.301 . S
C823 O827 1.282 . S
O824 U806 2.441 . S
O824 C810 1.249 . S
O825 U806 2.420 . S
O825 C810 1.202 . S
O826 U806 2.455 . S
O826 C823 1.301 . S
O827 U806 2.449 . S
O827 C823 1.282 . S
H828 C801 0.931 . S
H829 C803 0.929 . S
H830 C804 0.930 . S
H831 C805 0.931 . S
H832 C812 0.932 . S
H833 C813 0.930 . S
H834 C814 0.929 . S
H835 C816 0.930 . S
H836 C818 0.932 . S
H837 C819 0.929 . S
H838 C820 0.928 . S
H839 C822 0.932 . S
C840 C841 1.264 . S
C840 C845 1.479 . S
C840 C850 1.465 . S
C841 C840 1.264 . S
C841 C843 1.339 . S
C841 H868 0.931 . S
C842 C843 1.392 1_655 S
C842 C844 1.316 1_655 S
C843 C841 1.339 . S
C843 C842 1.392 1_455 S
C843 H869 0.929 . S
C844 C842 1.316 1_455 S
C844 C845 1.405 . S
C844 H870 0.931 1_455 S
C845 C840 1.479 . S
C845 C844 1.405 . S
C845 H871 0.931 . S
U846 O847 2.454 . S
U846 O848 2.458 . S
U846 C849 2.984 . S
U846 C850 2.847 . S
U846 C863 2.882 . S
U846 O864 2.441 . S
U846 O865 2.420 . S
U846 O866 2.455 . S
U846 O867 2.449 . S
O847 U846 2.454 . S
O847 C849 1.353 . S
O848 U846 2.458 . S
O848 C849 1.286 . S
C849 U846 2.984 . S
C849 O847 1.353 . S
C849 O848 1.286 . S
C849 C851 1.363 . S
C850 C840 1.465 . S
C850 U846 2.847 . S
C850 O864 1.249 . S
C850 O865 1.202 . S
C851 C849 1.363 . S
C851 C853 1.408 . S
C851 C856 1.342 . S
C852 C853 1.310 . S
C852 C855 1.461 . S
C852 H872 0.932 . S
C853 C851 1.408 . S
C853 C852 1.310 . S
C853 H873 0.930 . S
C854 C855 1.474 . S
C854 C856 1.285 . S
C854 H874 0.929 . S
C855 C852 1.461 . S
C855 C854 1.474 . S
C856 C851 1.342 . S
C856 C854 1.285 . S
C856 H875 0.930 . S
C857 C860 1.424 1_455 S
C857 C862 1.245 . S
C857 C863 1.428 . S
C858 C861 1.260 . S
C858 C862 1.477 1_655 S
C858 H876 0.932 1_655 S
C859 C860 1.384 . S
C859 C861 1.479 . S
C859 H877 0.929 . S
C860 C857 1.424 1_655 S
C860 C859 1.384 . S
C860 H878 0.928 . S
C861 C858 1.260 . S
C861 C859 1.479 . S
C862 C857 1.245 . S
C862 C858 1.477 1_455 S
C862 H879 0.932 . S
C863 U846 2.882 . S
C863 C857 1.428 . S
C863 O866 1.301 . S
C863 O867 1.282 . S
O864 U846 2.441 . S
O864 C850 1.249 . S
O865 U846 2.420 . S
O865 C850 1.202 . S
O866 U846 2.455 . S
O866 C863 1.301 . S
O867 U846 2.449 . S
O867 C863 1.282 . S
H868 C841 0.931 . S
H869 C843 0.929 . S
H870 C844 0.931 1_655 S
H871 C845 0.931 . S
H872 C852 0.932 . S
H873 C853 0.930 . S
H874 C854 0.929 . S
H875 C856 0.930 . S
H876 C858 0.932 1_455 S
H877 C859 0.929 . S
H878 C860 0.928 . S
H879 C862 0.932 . S
C880 C881 1.264 . S
C880 C885 1.479 . S
C880 C890 1.465 . S
C881 C880 1.264 . S
C881 C883 1.339 . S
C881 H908 0.931 . S
C882 C883 1.395 . S
C882 C884 1.320 . S
C883 C881 1.339 . S
C883 C882 1.395 . S
C883 H909 0.929 . S
C884 C882 1.320 . S
C884 C885 1.405 . S
C884 H910 0.930 . S
C885 C880 1.479 . S
C885 C884 1.405 . S
C885 H911 0.931 . S
U886 O887 2.454 . S
U886 O888 2.458 . S
U886 C889 2.984 . S
U886 C890 2.847 . S
U886 C903 2.882 . S
U886 O904 2.441 . S
U886 O905 2.420 . S
U886 O906 2.455 . S
U886 O907 2.449 . S
O887 U886 2.454 . S
O887 C889 1.353 . S
O888 U886 2.458 . S
O888 C889 1.286 . S
C889 U886 2.984 . S
C889 O887 1.353 . S
C889 O888 1.286 . S
C889 C891 1.363 . S
C890 C880 1.465 . S
C890 U886 2.847 . S
C890 O904 1.249 . S
C890 O905 1.202 . S
C891 C889 1.363 . S
C891 C893 1.408 . S
C891 C896 1.342 . S
C892 C893 1.310 . S
C892 C895 1.461 . S
C892 H912 0.932 . S
C893 C891 1.408 . S
C893 C892 1.310 . S
C893 H913 0.930 . S
C894 C895 1.474 . S
C894 C896 1.285 . S
C894 H914 0.929 . S
C895 C892 1.461 . S
C895 C894 1.474 . S
C896 C891 1.342 . S
C896 C894 1.285 . S
C896 H915 0.930 . S
C897 C900 1.424 . S
C897 C902 1.245 . S
C897 C903 1.428 . S
C898 C901 1.260 . S
C898 C902 1.477 . S
C898 H916 0.932 . S
C899 C900 1.384 . S
C899 C901 1.479 . S
C899 H917 0.929 . S
C900 C897 1.424 . S
C900 C899 1.384 . S
C900 H918 0.928 . S
C901 C898 1.260 . S
C901 C899 1.479 . S
C902 C897 1.245 . S
C902 C898 1.477 . S
C902 H919 0.932 . S
C903 U886 2.882 . S
C903 C897 1.428 . S
C903 O906 1.301 . S
C903 O907 1.282 . S
O904 U886 2.441 . S
O904 C890 1.249 . S
O905 U886 2.420 . S
O905 C890 1.202 . S
O906 U886 2.455 . S
O906 C903 1.301 . S
O907 U886 2.449 . S
O907 C903 1.282 . S
H908 C881 0.931 . S
H909 C883 0.929 . S
H910 C884 0.930 . S
H911 C885 0.931 . S
H912 C892 0.932 . S
H913 C893 0.930 . S
H914 C894 0.929 . S
H915 C896 0.930 . S
H916 C898 0.932 . S
H917 C899 0.929 . S
H918 C900 0.928 . S
H919 C902 0.932 . S
C920 C921 1.264 . S
C920 C925 1.479 . S
C920 C930 1.465 . S
C921 C920 1.264 . S
C921 C923 1.339 . S
C921 H948 0.931 . S
C922 C923 1.395 . S
C922 C924 1.320 . S
C923 C921 1.339 . S
C923 C922 1.395 . S
C923 H949 0.929 . S
C924 C922 1.320 . S
C924 C925 1.405 . S
C924 H950 0.930 . S
C925 C920 1.479 . S
C925 C924 1.405 . S
C925 H951 0.931 . S
U926 O927 2.454 . S
U926 O928 2.458 . S
U926 C929 2.984 . S
U926 C930 2.847 . S
U926 C943 2.882 . S
U926 O944 2.441 . S
U926 O945 2.420 . S
U926 O946 2.455 . S
U926 O947 2.449 . S
O927 U926 2.454 . S
O927 C929 1.353 . S
O928 U926 2.458 . S
O928 C929 1.286 . S
C929 U926 2.984 . S
C929 O927 1.353 . S
C929 O928 1.286 . S
C929 C931 1.358 1_655 S
C930 C920 1.465 . S
C930 U926 2.847 . S
C930 O944 1.249 . S
C930 O945 1.202 . S
C931 C929 1.358 1_455 S
C931 C933 1.407 1_455 S
C931 C936 1.350 . S
C932 C933 1.308 1_455 S
C932 C935 1.461 . S
C932 H952 0.932 . S
C933 C931 1.407 1_655 S
C933 C932 1.308 1_655 S
C933 H953 0.932 . S
C934 C935 1.474 . S
C934 C936 1.285 . S
C934 H954 0.929 . S
C935 C932 1.461 . S
C935 C934 1.474 . S
C936 C931 1.350 . S
C936 C934 1.285 . S
C936 H955 0.930 . S
C937 C940 1.424 . S
C937 C942 1.245 . S
C937 C943 1.428 . S
C938 C941 1.260 . S
C938 C942 1.477 1_455 S
C938 H956 0.932 . S
C939 C940 1.384 . S
C939 C941 1.479 1_655 S
C939 H957 0.929 . S
C940 C937 1.424 . S
C940 C939 1.384 . S
C940 H958 0.928 . S
C941 C938 1.260 . S
C941 C939 1.479 1_455 S
C942 C937 1.245 . S
C942 C938 1.477 1_655 S
C942 H959 0.936 . S
C943 U926 2.882 . S
C943 C937 1.428 . S
C943 O946 1.301 . S
C943 O947 1.282 . S
O944 U926 2.441 . S
O944 C930 1.249 . S
O945 U926 2.420 . S
O945 C930 1.202 . S
O946 U926 2.455 . S
O946 C943 1.301 . S
O947 U926 2.449 . S
O947 C943 1.282 . S
H948 C921 0.931 . S
H949 C923 0.929 . S
H950 C924 0.930 . S
H951 C925 0.931 . S
H952 C932 0.932 . S
H953 C933 0.932 . S
H954 C934 0.929 . S
H955 C936 0.930 . S
H956 C938 0.932 . S
H957 C939 0.929 . S
H958 C940 0.928 . S
H959 C942 0.936 . S
P960 O971 1.490 . S
P960 C974 1.812 . S
P960 C980 1.803 . S
P960 C986 1.819 . S
H961 C975 0.941 . S
H962 C976 0.939 . S
H963 C978 0.940 . S
H964 C979 0.940 . S
H965 C981 0.939 . S
H966 C982 0.942 . S
H967 C984 0.940 . S
H968 C985 0.939 . S
H969 C987 0.941 . S
H970 C991 0.939 . S
O971 P960 1.490 . S
H972 C988 0.939 . S
H973 C990 0.940 . S
C974 P960 1.812 . S
C974 C975 1.389 . S
C974 C979 1.391 . S
C975 H961 0.941 . S
C975 C974 1.389 . S
C975 C976 1.397 . S
C976 H962 0.939 . S
C976 C975 1.397 . S
C976 C977 1.378 . S
C977 C976 1.378 . S
C977 C978 1.378 . S
C978 H963 0.940 . S
C978 C977 1.378 . S
C978 C979 1.396 . S
C979 H964 0.940 . S
C979 C974 1.391 . S
C979 C978 1.396 . S
C980 P960 1.803 . S
C980 C981 1.378 . S
C980 C985 1.400 . S
C981 H965 0.939 . S
C981 C980 1.378 . S
C981 C982 1.361 . S
C982 H966 0.942 . S
C982 C981 1.361 . S
C982 C983 1.369 . S
C983 C982 1.369 . S
C983 C984 1.404 . S
C984 H967 0.940 . S
C984 C983 1.404 . S
C984 C985 1.389 . S
C985 H968 0.939 . S
C985 C980 1.400 . S
C985 C984 1.389 . S
C986 P960 1.819 . S
C986 C987 1.391 . S
C986 C991 1.391 . S
C987 H969 0.941 . S
C987 C986 1.391 . S
C987 C988 1.396 . S
C988 H972 0.939 . S
C988 C987 1.396 . S
C988 C989 1.397 . S
C989 C988 1.397 . S
C989 C990 1.385 . S
C990 H973 0.940 . S
C990 C989 1.385 . S
C990 C991 1.388 . S
C991 H970 0.939 . S
C991 C986 1.391 . S
C991 C990 1.388 . S
P992 O1003 1.490 . S
P992 C1006 1.812 . S
P992 C1012 1.803 . S
P992 C1018 1.819 1_554 S
H993 C1007 0.941 . S
H994 C1008 0.939 . S
H995 C1010 0.940 . S
H996 C1011 0.940 1_556 S
H997 C1013 0.939 . S
H998 C1014 0.942 . S
H999 C1016 0.940 . S
H1000 C1017 0.939 . S
H1001 C1019 0.941 1_554 S
H1002 C1023 0.939 . S
O1003 P992 1.490 . S
H1004 C1020 0.939 . S
H1005 C1022 0.940 . S
C1006 P992 1.812 . S
C1006 C1007 1.389 . S
C1006 C1011 1.391 . S
C1007 H993 0.941 . S
C1007 C1006 1.389 . S
C1007 C1008 1.397 . S
C1008 H994 0.939 . S
C1008 C1007 1.397 . S
C1008 C1009 1.378 . S
C1009 C1008 1.378 . S
C1009 C1010 1.378 . S
C1010 H995 0.940 . S
C1010 C1009 1.378 . S
C1010 C1011 1.396 . S
C1011 H996 0.940 1_554 S
C1011 C1006 1.391 . S
C1011 C1010 1.396 . S
C1012 P992 1.803 . S
C1012 C1013 1.378 . S
C1012 C1017 1.400 . S
C1013 H997 0.939 . S
C1013 C1012 1.378 . S
C1013 C1014 1.361 . S
C1014 H998 0.942 . S
C1014 C1013 1.361 . S
C1014 C1015 1.369 . S
C1015 C1014 1.369 . S
C1015 C1016 1.404 . S
C1016 H999 0.940 . S
C1016 C1015 1.404 . S
C1016 C1017 1.389 . S
C1017 H1000 0.939 . S
C1017 C1012 1.400 . S
C1017 C1016 1.389 . S
C1018 P992 1.819 1_556 S
C1018 C1019 1.391 . S
C1018 C1023 1.391 . S
C1019 H1001 0.941 1_556 S
C1019 C1018 1.391 . S
C1019 C1020 1.396 . S
C1020 H1004 0.939 . S
C1020 C1019 1.396 . S
C1020 C1021 1.397 . S
C1021 C1020 1.397 . S
C1021 C1022 1.385 . S
C1022 H1005 0.940 . S
C1022 C1021 1.385 . S
C1022 C1023 1.388 . S
C1023 H1002 0.939 . S
C1023 C1018 1.391 . S
C1023 C1022 1.388 . S
P1024 O1035 1.490 . S
P1024 C1038 1.812 . S
P1024 C1044 1.803 1_565 S
P1024 C1050 1.819 . S
H1025 C1039 0.941 . S
H1026 C1040 0.939 . S
H1027 C1042 0.940 . S
H1028 C1043 0.940 . S
H1029 C1045 0.939 . S
H1030 C1046 0.942 . S
H1031 C1048 0.940 . S
H1032 C1049 0.939 . S
H1033 C1051 0.941 . S
H1034 C1055 0.939 . S
O1035 P1024 1.490 . S
H1036 C1052 0.939 . S
H1037 C1054 0.940 . S
C1038 P1024 1.812 . S
C1038 C1039 1.389 . S
C1038 C1043 1.391 . S
C1039 H1025 0.941 . S
C1039 C1038 1.389 . S
C1039 C1040 1.397 . S
C1040 H1026 0.939 . S
C1040 C1039 1.397 . S
C1040 C1041 1.378 . S
C1041 C1040 1.378 . S
C1041 C1042 1.378 . S
C1042 H1027 0.940 . S
C1042 C1041 1.378 . S
C1042 C1043 1.396 . S
C1043 H1028 0.940 . S
C1043 C1038 1.391 . S
C1043 C1042 1.396 . S
C1044 P1024 1.803 1_545 S
C1044 C1045 1.378 . S
C1044 C1049 1.400 . S
C1045 H1029 0.939 . S
C1045 C1044 1.378 . S
C1045 C1046 1.361 . S
C1046 H1030 0.942 . S
C1046 C1045 1.361 . S
C1046 C1047 1.369 . S
C1047 C1046 1.369 . S
C1047 C1048 1.404 . S
C1048 H1031 0.940 . S
C1048 C1047 1.404 . S
C1048 C1049 1.389 . S
C1049 H1032 0.939 . S
C1049 C1044 1.400 . S
C1049 C1048 1.389 . S
C1050 P1024 1.819 . S
C1050 C1051 1.391 . S
C1050 C1055 1.391 1_565 S
C1051 H1033 0.941 . S
C1051 C1050 1.391 . S
C1051 C1052 1.396 . S
C1052 H1036 0.939 . S
C1052 C1051 1.396 . S
C1052 C1053 1.397 1_565 S
C1053 C1052 1.397 1_545 S
C1053 C1054 1.385 . S
C1054 H1037 0.940 . S
C1054 C1053 1.385 . S
C1054 C1055 1.388 . S
C1055 H1034 0.939 . S
C1055 C1050 1.391 1_545 S
C1055 C1054 1.388 . S
P1056 O1067 1.490 . S
P1056 C1070 1.812 . S
P1056 C1076 1.803 1_545 S
P1056 C1082 1.819 . S
H1057 C1071 0.941 . S
H1058 C1072 0.939 . S
H1059 C1074 0.940 . S
H1060 C1075 0.940 . S
H1061 C1077 0.939 . S
H1062 C1078 0.942 . S
H1063 C1080 0.940 . S
H1064 C1081 0.939 . S
H1065 C1083 0.941 . S
H1066 C1087 0.939 . S
O1067 P1056 1.490 . S
H1068 C1084 0.939 . S
H1069 C1086 0.940 . S
C1070 P1056 1.812 . S
C1070 C1071 1.389 . S
C1070 C1075 1.391 . S
C1071 H1057 0.941 . S
C1071 C1070 1.389 . S
C1071 C1072 1.397 . S
C1072 H1058 0.939 . S
C1072 C1071 1.397 . S
C1072 C1073 1.378 . S
C1073 C1072 1.378 . S
C1073 C1074 1.378 . S
C1074 H1059 0.940 . S
C1074 C1073 1.378 . S
C1074 C1075 1.396 . S
C1075 H1060 0.940 . S
C1075 C1070 1.391 . S
C1075 C1074 1.396 . S
C1076 P1056 1.803 1_565 S
C1076 C1077 1.378 . S
C1076 C1081 1.400 . S
C1077 H1061 0.939 . S
C1077 C1076 1.378 . S
C1077 C1078 1.361 . S
C1078 H1062 0.942 . S
C1078 C1077 1.361 . S
C1078 C1079 1.369 . S
C1079 C1078 1.369 . S
C1079 C1080 1.404 . S
C1080 H1063 0.940 . S
C1080 C1079 1.404 . S
C1080 C1081 1.389 . S
C1081 H1064 0.939 . S
C1081 C1076 1.400 . S
C1081 C1080 1.389 . S
C1082 P1056 1.819 . S
C1082 C1083 1.391 . S
C1082 C1087 1.391 1_545 S
C1083 H1065 0.941 . S
C1083 C1082 1.391 . S
C1083 C1084 1.396 . S
C1084 H1068 0.939 . S
C1084 C1083 1.396 . S
C1084 C1085 1.397 1_545 S
C1085 C1084 1.397 1_565 S
C1085 C1086 1.385 . S
C1086 H1069 0.940 . S
C1086 C1085 1.385 . S
C1086 C1087 1.388 . S
C1087 H1066 0.939 . S
C1087 C1082 1.391 1_565 S
C1087 C1086 1.388 . S
P1088 O1099 1.490 . S
P1088 C1102 1.812 . S
P1088 C1108 1.803 . S
P1088 C1114 1.819 . S
H1089 C1103 0.941 . S
H1090 C1104 0.939 . S
H1091 C1106 0.940 . S
H1092 C1107 0.940 . S
H1093 C1109 0.939 . S
H1094 C1110 0.942 . S
H1095 C1112 0.940 . S
H1096 C1113 0.939 . S
H1097 C1115 0.941 . S
H1098 C1119 0.939 . S
O1099 P1088 1.490 . S
H1100 C1116 0.939 . S
H1101 C1118 0.940 . S
C1102 P1088 1.812 . S
C1102 C1103 1.389 . S
C1102 C1107 1.391 . S
C1103 H1089 0.941 . S
C1103 C1102 1.389 . S
C1103 C1104 1.397 . S
C1104 H1090 0.939 . S
C1104 C1103 1.397 . S
C1104 C1105 1.378 . S
C1105 C1104 1.378 . S
C1105 C1106 1.378 . S
C1106 H1091 0.940 . S
C1106 C1105 1.378 . S
C1106 C1107 1.396 . S
C1107 H1092 0.940 . S
C1107 C1102 1.391 . S
C1107 C1106 1.396 . S
C1108 P1088 1.803 . S
C1108 C1109 1.378 . S
C1108 C1113 1.400 . S
C1109 H1093 0.939 . S
C1109 C1108 1.378 . S
C1109 C1110 1.361 . S
C1110 H1094 0.942 . S
C1110 C1109 1.361 . S
C1110 C1111 1.369 . S
C1111 C1110 1.369 . S
C1111 C1112 1.404 . S
C1112 H1095 0.940 . S
C1112 C1111 1.404 . S
C1112 C1113 1.389 . S
C1113 H1096 0.939 . S
C1113 C1108 1.400 . S
C1113 C1112 1.389 . S
C1114 P1088 1.819 . S
C1114 C1115 1.391 . S
C1114 C1119 1.391 . S
C1115 H1097 0.941 . S
C1115 C1114 1.391 . S
C1115 C1116 1.396 . S
C1116 H1100 0.939 . S
C1116 C1115 1.396 . S
C1116 C1117 1.397 . S
C1117 C1116 1.397 . S
C1117 C1118 1.385 . S
C1118 H1101 0.940 . S
C1118 C1117 1.385 . S
C1118 C1119 1.388 . S
C1119 H1098 0.939 . S
C1119 C1114 1.391 . S
C1119 C1118 1.388 . S
P1120 O1131 1.490 . S
P1120 C1134 1.812 . S
P1120 C1140 1.803 1_554 S
P1120 C1146 1.819 . S
H1121 C1135 0.941 . S
H1122 C1136 0.939 . S
H1123 C1138 0.940 . S
H1124 C1139 0.940 . S
H1125 C1141 0.939 . S
H1126 C1142 0.942 . S
H1127 C1144 0.940 . S
H1128 C1145 0.939 . S
H1129 C1147 0.941 . S
H1130 C1151 0.939 . S
O1131 P1120 1.490 . S
H1132 C1148 0.939 . S
H1133 C1150 0.940 . S
C1134 P1120 1.812 . S
C1134 C1135 1.389 . S
C1134 C1139 1.391 . S
C1135 H1121 0.941 . S
C1135 C1134 1.389 . S
C1135 C1136 1.397 . S
C1136 H1122 0.939 . S
C1136 C1135 1.397 . S
C1136 C1137 1.378 . S
C1137 C1136 1.378 . S
C1137 C1138 1.378 . S
C1138 H1123 0.940 . S
C1138 C1137 1.378 . S
C1138 C1139 1.396 . S
C1139 H1124 0.940 . S
C1139 C1134 1.391 . S
C1139 C1138 1.396 . S
C1140 P1120 1.803 1_556 S
C1140 C1141 1.378 . S
C1140 C1145 1.400 . S
C1141 H1125 0.939 . S
C1141 C1140 1.378 . S
C1141 C1142 1.361 . S
C1142 H1126 0.942 . S
C1142 C1141 1.361 . S
C1142 C1143 1.369 . S
C1143 C1142 1.369 . S
C1143 C1144 1.404 . S
C1144 H1127 0.940 . S
C1144 C1143 1.404 . S
C1144 C1145 1.389 . S
C1145 H1128 0.939 . S
C1145 C1140 1.400 . S
C1145 C1144 1.389 . S
C1146 P1120 1.819 . S
C1146 C1147 1.391 . S
C1146 C1151 1.391 1_554 S
C1147 H1129 0.941 . S
C1147 C1146 1.391 . S
C1147 C1148 1.396 . S
C1148 H1132 0.939 . S
C1148 C1147 1.396 . S
C1148 C1149 1.397 1_554 S
C1149 C1148 1.397 1_556 S
C1149 C1150 1.385 . S
C1150 H1133 0.940 . S
C1150 C1149 1.385 . S
C1150 C1151 1.388 . S
C1151 H1130 0.939 . S
C1151 C1146 1.391 1_556 S
C1151 C1150 1.388 . S
P1152 O1163 1.490 . S
P1152 C1166 1.812 . S
P1152 C1172 1.803 . S
P1152 C1178 1.819 1_455 S
H1153 C1167 0.941 . S
H1154 C1168 0.939 . S
H1155 C1170 0.940 . S
H1156 C1171 0.940 1_655 S
H1157 C1173 0.939 . S
H1158 C1174 0.942 . S
H1159 C1176 0.940 . S
H1160 C1177 0.939 . S
H1161 C1179 0.941 1_455 S
H1162 C1183 0.939 . S
O1163 P1152 1.490 . S
H1164 C1180 0.939 . S
H1165 C1182 0.940 . S
C1166 P1152 1.812 . S
C1166 C1167 1.389 . S
C1166 C1171 1.391 . S
C1167 H1153 0.941 . S
C1167 C1166 1.389 . S
C1167 C1168 1.397 . S
C1168 H1154 0.939 . S
C1168 C1167 1.397 . S
C1168 C1169 1.378 . S
C1169 C1168 1.378 . S
C1169 C1170 1.378 . S
C1170 H1155 0.940 . S
C1170 C1169 1.378 . S
C1170 C1171 1.396 . S
C1171 H1156 0.940 1_455 S
C1171 C1166 1.391 . S
C1171 C1170 1.396 . S
C1172 P1152 1.803 . S
C1172 C1173 1.378 . S
C1172 C1177 1.400 . S
C1173 H1157 0.939 . S
C1173 C1172 1.378 . S
C1173 C1174 1.361 . S
C1174 H1158 0.942 . S
C1174 C1173 1.361 . S
C1174 C1175 1.369 . S
C1175 C1174 1.369 . S
C1175 C1176 1.404 . S
C1176 H1159 0.940 . S
C1176 C1175 1.404 . S
C1176 C1177 1.389 . S
C1177 H1160 0.939 . S
C1177 C1172 1.400 . S
C1177 C1176 1.389 . S
C1178 P1152 1.819 1_655 S
C1178 C1179 1.391 . S
C1178 C1183 1.391 . S
C1179 H1161 0.941 1_655 S
C1179 C1178 1.391 . S
C1179 C1180 1.396 . S
C1180 H1164 0.939 . S
C1180 C1179 1.396 . S
C1180 C1181 1.397 . S
C1181 C1180 1.397 . S
C1181 C1182 1.385 . S
C1182 H1165 0.940 . S
C1182 C1181 1.385 . S
C1182 C1183 1.388 . S
C1183 H1162 0.939 . S
C1183 C1178 1.391 . S
C1183 C1182 1.388 . S
P1184 O1195 1.490 . S
P1184 C1198 1.812 . S
P1184 C1204 1.803 1_556 S
P1184 C1210 1.819 . S
H1185 C1199 0.941 . S
H1186 C1200 0.939 . S
H1187 C1202 0.940 . S
H1188 C1203 0.940 . S
H1189 C1205 0.939 . S
H1190 C1206 0.942 . S
H1191 C1208 0.940 . S
H1192 C1209 0.939 . S
H1193 C1211 0.941 . S
H1194 C1215 0.939 . S
O1195 P1184 1.490 . S
H1196 C1212 0.939 . S
H1197 C1214 0.940 . S
C1198 P1184 1.812 . S
C1198 C1199 1.389 . S
C1198 C1203 1.391 . S
C1199 H1185 0.941 . S
C1199 C1198 1.389 . S
C1199 C1200 1.397 . S
C1200 H1186 0.939 . S
C1200 C1199 1.397 . S
C1200 C1201 1.378 . S
C1201 C1200 1.378 . S
C1201 C1202 1.378 . S
C1202 H1187 0.940 . S
C1202 C1201 1.378 . S
C1202 C1203 1.396 . S
C1203 H1188 0.940 . S
C1203 C1198 1.391 . S
C1203 C1202 1.396 . S
C1204 P1184 1.803 1_554 S
C1204 C1205 1.378 . S
C1204 C1209 1.400 . S
C1205 H1189 0.939 . S
C1205 C1204 1.378 . S
C1205 C1206 1.361 . S
C1206 H1190 0.942 . S
C1206 C1205 1.361 . S
C1206 C1207 1.369 . S
C1207 C1206 1.369 . S
C1207 C1208 1.404 . S
C1208 H1191 0.940 . S
C1208 C1207 1.404 . S
C1208 C1209 1.389 . S
C1209 H1192 0.939 . S
C1209 C1204 1.400 . S
C1209 C1208 1.389 . S
C1210 P1184 1.819 . S
C1210 C1211 1.391 . S
C1210 C1215 1.391 1_556 S
C1211 H1193 0.941 . S
C1211 C1210 1.391 . S
C1211 C1212 1.396 . S
C1212 H1196 0.939 . S
C1212 C1211 1.396 . S
C1212 C1213 1.397 1_556 S
C1213 C1212 1.397 1_554 S
C1213 C1214 1.385 . S
C1214 H1197 0.940 . S
C1214 C1213 1.385 . S
C1214 C1215 1.388 . S
C1215 H1194 0.939 . S
C1215 C1210 1.391 1_554 S
C1215 C1214 1.388 . S
P1216 O1227 1.490 . S
P1216 C1230 1.812 . S
P1216 C1236 1.803 . S
P1216 C1242 1.819 . S
H1217 C1231 0.941 . S
H1218 C1232 0.939 . S
H1219 C1234 0.940 . S
H1220 C1235 0.940 . S
H1221 C1237 0.939 . S
H1222 C1238 0.942 . S
H1223 C1240 0.940 . S
H1224 C1241 0.939 . S
H1225 C1243 0.941 . S
H1226 C1247 0.939 . S
O1227 P1216 1.490 . S
H1228 C1244 0.939 . S
H1229 C1246 0.940 . S
C1230 P1216 1.812 . S
C1230 C1231 1.389 . S
C1230 C1235 1.391 . S
C1231 H1217 0.941 . S
C1231 C1230 1.389 . S
C1231 C1232 1.397 . S
C1232 H1218 0.939 . S
C1232 C1231 1.397 . S
C1232 C1233 1.378 . S
C1233 C1232 1.378 . S
C1233 C1234 1.378 . S
C1234 H1219 0.940 . S
C1234 C1233 1.378 . S
C1234 C1235 1.396 . S
C1235 H1220 0.940 . S
C1235 C1230 1.391 . S
C1235 C1234 1.396 . S
C1236 P1216 1.803 . S
C1236 C1237 1.378 . S
C1236 C1241 1.400 . S
C1237 H1221 0.939 . S
C1237 C1236 1.378 . S
C1237 C1238 1.361 . S
C1238 H1222 0.942 . S
C1238 C1237 1.361 . S
C1238 C1239 1.369 . S
C1239 C1238 1.369 . S
C1239 C1240 1.404 . S
C1240 H1223 0.940 . S
C1240 C1239 1.404 . S
C1240 C1241 1.389 . S
C1241 H1224 0.939 . S
C1241 C1236 1.400 . S
C1241 C1240 1.389 . S
C1242 P1216 1.819 . S
C1242 C1243 1.391 . S
C1242 C1247 1.391 . S
C1243 H1225 0.941 . S
C1243 C1242 1.391 . S
C1243 C1244 1.396 . S
C1244 H1228 0.939 . S
C1244 C1243 1.396 . S
C1244 C1245 1.397 . S
C1245 C1244 1.397 . S
C1245 C1246 1.385 . S
C1246 H1229 0.940 . S
C1246 C1245 1.385 . S
C1246 C1247 1.388 . S
C1247 H1226 0.939 . S
C1247 C1242 1.391 . S
C1247 C1246 1.388 . S
P1248 O1259 1.490 . S
P1248 C1262 1.812 . S
P1248 C1268 1.803 1_455 S
P1248 C1274 1.819 . S
H1249 C1263 0.941 . S
H1250 C1264 0.939 . S
H1251 C1266 0.940 . S
H1252 C1267 0.940 . S
H1253 C1269 0.939 . S
H1254 C1270 0.942 . S
H1255 C1272 0.940 . S
H1256 C1273 0.939 . S
H1257 C1275 0.941 . S
H1258 C1279 0.939 . S
O1259 P1248 1.490 . S
H1260 C1276 0.939 . S
H1261 C1278 0.940 . S
C1262 P1248 1.812 . S
C1262 C1263 1.389 . S
C1262 C1267 1.391 . S
C1263 H1249 0.941 . S
C1263 C1262 1.389 . S
C1263 C1264 1.397 . S
C1264 H1250 0.939 . S
C1264 C1263 1.397 . S
C1264 C1265 1.378 . S
C1265 C1264 1.378 . S
C1265 C1266 1.378 . S
C1266 H1251 0.940 . S
C1266 C1265 1.378 . S
C1266 C1267 1.396 . S
C1267 H1252 0.940 . S
C1267 C1262 1.391 . S
C1267 C1266 1.396 . S
C1268 P1248 1.803 1_655 S
C1268 C1269 1.378 . S
C1268 C1273 1.400 . S
C1269 H1253 0.939 . S
C1269 C1268 1.378 . S
C1269 C1270 1.361 . S
C1270 H1254 0.942 . S
C1270 C1269 1.361 . S
C1270 C1271 1.369 . S
C1271 C1270 1.369 . S
C1271 C1272 1.404 . S
C1272 H1255 0.940 . S
C1272 C1271 1.404 . S
C1272 C1273 1.389 . S
C1273 H1256 0.939 . S
C1273 C1268 1.400 . S
C1273 C1272 1.389 . S
C1274 P1248 1.819 . S
C1274 C1275 1.391 . S
C1274 C1279 1.391 1_455 S
C1275 H1257 0.941 . S
C1275 C1274 1.391 . S
C1275 C1276 1.396 . S
C1276 H1260 0.939 . S
C1276 C1275 1.396 . S
C1276 C1277 1.397 1_455 S
C1277 C1276 1.397 1_655 S
C1277 C1278 1.385 . S
C1278 H1261 0.940 . S
C1278 C1277 1.385 . S
C1278 C1279 1.388 . S
C1279 H1258 0.939 . S
C1279 C1274 1.391 1_655 S
C1279 C1278 1.388 . S
P1280 O1291 1.490 . S
P1280 C1294 1.812 . S
P1280 C1300 1.803 . S
P1280 C1306 1.819 1_545 S
H1281 C1295 0.941 . S
H1282 C1296 0.939 . S
H1283 C1298 0.940 . S
H1284 C1299 0.940 1_565 S
H1285 C1301 0.939 . S
H1286 C1302 0.942 . S
H1287 C1304 0.940 . S
H1288 C1305 0.939 . S
H1289 C1307 0.941 1_545 S
H1290 C1311 0.939 . S
O1291 P1280 1.490 . S
H1292 C1308 0.939 . S
H1293 C1310 0.940 . S
C1294 P1280 1.812 . S
C1294 C1295 1.389 . S
C1294 C1299 1.391 . S
C1295 H1281 0.941 . S
C1295 C1294 1.389 . S
C1295 C1296 1.397 . S
C1296 H1282 0.939 . S
C1296 C1295 1.397 . S
C1296 C1297 1.378 . S
C1297 C1296 1.378 . S
C1297 C1298 1.378 . S
C1298 H1283 0.940 . S
C1298 C1297 1.378 . S
C1298 C1299 1.396 . S
C1299 H1284 0.940 1_545 S
C1299 C1294 1.391 . S
C1299 C1298 1.396 . S
C1300 P1280 1.803 . S
C1300 C1301 1.378 . S
C1300 C1305 1.400 . S
C1301 H1285 0.939 . S
C1301 C1300 1.378 . S
C1301 C1302 1.361 . S
C1302 H1286 0.942 . S
C1302 C1301 1.361 . S
C1302 C1303 1.369 . S
C1303 C1302 1.369 . S
C1303 C1304 1.404 . S
C1304 H1287 0.940 . S
C1304 C1303 1.404 . S
C1304 C1305 1.389 . S
C1305 H1288 0.939 . S
C1305 C1300 1.400 . S
C1305 C1304 1.389 . S
C1306 P1280 1.819 1_565 S
C1306 C1307 1.391 . S
C1306 C1311 1.391 . S
C1307 H1289 0.941 1_565 S
C1307 C1306 1.391 . S
C1307 C1308 1.396 . S
C1308 H1292 0.939 . S
C1308 C1307 1.396 . S
C1308 C1309 1.397 . S
C1309 C1308 1.397 . S
C1309 C1310 1.385 . S
C1310 H1293 0.940 . S
C1310 C1309 1.385 . S
C1310 C1311 1.388 . S
C1311 H1290 0.939 . S
C1311 C1306 1.391 . S
C1311 C1310 1.388 . S
P1312 O1323 1.490 . S
P1312 C1326 1.812 . S
P1312 C1332 1.803 1_655 S
P1312 C1338 1.819 . S
H1313 C1327 0.941 . S
H1314 C1328 0.939 . S
H1315 C1330 0.940 . S
H1316 C1331 0.940 . S
H1317 C1333 0.939 . S
H1318 C1334 0.942 . S
H1319 C1336 0.940 . S
H1320 C1337 0.939 . S
H1321 C1339 0.941 . S
H1322 C1343 0.939 . S
O1323 P1312 1.490 . S
H1324 C1340 0.939 . S
H1325 C1342 0.940 . S
C1326 P1312 1.812 . S
C1326 C1327 1.389 . S
C1326 C1331 1.391 . S
C1327 H1313 0.941 . S
C1327 C1326 1.389 . S
C1327 C1328 1.397 . S
C1328 H1314 0.939 . S
C1328 C1327 1.397 . S
C1328 C1329 1.378 . S
C1329 C1328 1.378 . S
C1329 C1330 1.378 . S
C1330 H1315 0.940 . S
C1330 C1329 1.378 . S
C1330 C1331 1.396 . S
C1331 H1316 0.940 . S
C1331 C1326 1.391 . S
C1331 C1330 1.396 . S
C1332 P1312 1.803 1_455 S
C1332 C1333 1.378 . S
C1332 C1337 1.400 . S
C1333 H1317 0.939 . S
C1333 C1332 1.378 . S
C1333 C1334 1.361 . S
C1334 H1318 0.942 . S
C1334 C1333 1.361 . S
C1334 C1335 1.369 . S
C1335 C1334 1.369 . S
C1335 C1336 1.404 . S
C1336 H1319 0.940 . S
C1336 C1335 1.404 . S
C1336 C1337 1.389 . S
C1337 H1320 0.939 . S
C1337 C1332 1.400 . S
C1337 C1336 1.389 . S
C1338 P1312 1.819 . S
C1338 C1339 1.391 . S
C1338 C1343 1.391 1_655 S
C1339 H1321 0.941 . S
C1339 C1338 1.391 . S
C1339 C1340 1.396 . S
C1340 H1324 0.939 . S
C1340 C1339 1.396 . S
C1340 C1341 1.397 1_655 S
C1341 C1340 1.397 1_455 S
C1341 C1342 1.385 . S
C1342 H1325 0.940 . S
C1342 C1341 1.385 . S
C1342 C1343 1.388 . S
C1343 H1322 0.939 . S
C1343 C1338 1.391 1_455 S
C1343 C1342 1.388 . S
P1344 O1355 1.490 . S
P1344 C1358 1.812 . S
P1344 C1364 1.803 . S
P1344 C1370 1.819 . S
H1345 C1359 0.941 . S
H1346 C1360 0.939 . S
H1347 C1362 0.940 . S
H1348 C1363 0.940 . S
H1349 C1365 0.939 . S
H1350 C1366 0.942 . S
H1351 C1368 0.940 . S
H1352 C1369 0.939 . S
H1353 C1371 0.941 . S
H1354 C1375 0.939 . S
O1355 P1344 1.490 . S
H1356 C1372 0.939 . S
H1357 C1374 0.940 . S
C1358 P1344 1.812 . S
C1358 C1359 1.389 . S
C1358 C1363 1.391 . S
C1359 H1345 0.941 . S
C1359 C1358 1.389 . S
C1359 C1360 1.397 . S
C1360 H1346 0.939 . S
C1360 C1359 1.397 . S
C1360 C1361 1.378 . S
C1361 C1360 1.378 . S
C1361 C1362 1.378 . S
C1362 H1347 0.940 . S
C1362 C1361 1.378 . S
C1362 C1363 1.396 . S
C1363 H1348 0.940 . S
C1363 C1358 1.391 . S
C1363 C1362 1.396 . S
C1364 P1344 1.803 . S
C1364 C1365 1.378 . S
C1364 C1369 1.400 . S
C1365 H1349 0.939 . S
C1365 C1364 1.378 . S
C1365 C1366 1.361 . S
C1366 H1350 0.942 . S
C1366 C1365 1.361 . S
C1366 C1367 1.369 . S
C1367 C1366 1.369 . S
C1367 C1368 1.404 . S
C1368 H1351 0.940 . S
C1368 C1367 1.404 . S
C1368 C1369 1.389 . S
C1369 H1352 0.939 . S
C1369 C1364 1.400 . S
C1369 C1368 1.389 . S
C1370 P1344 1.819 . S
C1370 C1371 1.391 . S
C1370 C1375 1.391 . S
C1371 H1353 0.941 . S
C1371 C1370 1.391 . S
C1371 C1372 1.396 . S
C1372 H1356 0.939 . S
C1372 C1371 1.396 . S
C1372 C1373 1.397 . S
C1373 C1372 1.397 . S
C1373 C1374 1.385 . S
C1374 H1357 0.940 . S
C1374 C1373 1.385 . S
C1374 C1375 1.388 . S
C1375 H1354 0.939 . S
C1375 C1370 1.391 . S
C1375 C1374 1.388 . S
P1376 O1387 1.490 . S
P1376 C1390 1.812 1_554 S
P1376 C1396 1.803 . S
P1376 C1402 1.819 . S
H1377 C1391 0.970 . S
H1378 C1392 0.939 . S
H1379 C1394 0.940 . S
H1380 C1395 0.940 . S
H1381 C1397 0.939 . S
H1382 C1398 0.942 . S
H1383 C1400 0.940 . S
H1384 C1401 0.939 . S
H1385 C1403 0.941 . S
H1386 C1407 0.939 . S
O1387 P1376 1.490 . S
H1388 C1404 0.939 . S
H1389 C1406 0.940 . S
C1390 P1376 1.812 1_556 S
C1390 C1391 1.389 . S
C1390 C1395 1.391 . S
C1391 H1377 0.970 . S
C1391 C1390 1.389 . S
C1391 C1392 1.397 . S
C1392 H1378 0.939 . S
C1392 C1391 1.397 . S
C1392 C1393 1.378 . S
C1393 C1392 1.378 . S
C1393 C1394 1.378 . S
C1394 H1379 0.940 . S
C1394 C1393 1.378 . S
C1394 C1395 1.396 . S
C1395 H1380 0.940 . S
C1395 C1390 1.391 . S
C1395 C1394 1.396 . S
C1396 P1376 1.803 . S
C1396 C1397 1.378 . S
C1396 C1401 1.400 1_554 S
C1397 H1381 0.939 . S
C1397 C1396 1.378 . S
C1397 C1398 1.361 . S
C1398 H1382 0.942 . S
C1398 C1397 1.361 . S
C1398 C1399 1.369 1_554 S
C1399 C1398 1.369 1_556 S
C1399 C1400 1.404 . S
C1400 H1383 0.940 . S
C1400 C1399 1.404 . S
C1400 C1401 1.389 . S
C1401 H1384 0.939 . S
C1401 C1396 1.400 1_556 S
C1401 C1400 1.389 . S
C1402 P1376 1.819 . S
C1402 C1403 1.391 . S
C1402 C1407 1.391 . S
C1403 H1385 0.941 . S
C1403 C1402 1.391 . S
C1403 C1404 1.396 . S
C1404 H1388 0.939 . S
C1404 C1403 1.396 . S
C1404 C1405 1.397 . S
C1405 C1404 1.397 . S
C1405 C1406 1.385 . S
C1406 H1389 0.940 . S
C1406 C1405 1.385 . S
C1406 C1407 1.388 . S
C1407 H1386 0.939 . S
C1407 C1402 1.391 . S
C1407 C1406 1.388 . S
P1408 O1419 1.490 . S
P1408 C1422 1.812 1_565 S
P1408 C1428 1.803 . S
P1408 C1434 1.819 . S
H1409 C1423 0.941 . S
H1410 C1424 0.939 . S
H1411 C1426 0.940 . S
H1412 C1427 0.940 . S
H1413 C1429 0.939 . S
H1414 C1430 0.942 . S
H1415 C1432 0.940 . S
H1416 C1433 0.939 . S
H1417 C1435 0.929 1_545 S
H1418 C1439 0.939 . S
O1419 P1408 1.490 . S
H1420 C1436 0.972 . S
H1421 C1438 0.940 . S
C1422 P1408 1.812 1_545 S
C1422 C1423 1.389 . S
C1422 C1427 1.391 . S
C1423 H1409 0.941 . S
C1423 C1422 1.389 . S
C1423 C1424 1.397 . S
C1424 H1410 0.939 . S
C1424 C1423 1.397 . S
C1424 C1425 1.378 . S
C1425 C1424 1.378 . S
C1425 C1426 1.378 . S
C1426 H1411 0.940 . S
C1426 C1425 1.378 . S
C1426 C1427 1.396 . S
C1427 H1412 0.940 . S
C1427 C1422 1.391 . S
C1427 C1426 1.396 . S
C1428 P1408 1.803 . S
C1428 C1429 1.378 . S
C1428 C1433 1.400 . S
C1429 H1413 0.939 . S
C1429 C1428 1.378 . S
C1429 C1430 1.361 . S
C1430 H1414 0.942 . S
C1430 C1429 1.361 . S
C1430 C1431 1.369 . S
C1431 C1430 1.369 . S
C1431 C1432 1.404 . S
C1432 H1415 0.940 . S
C1432 C1431 1.404 . S
C1432 C1433 1.389 . S
C1433 H1416 0.939 . S
C1433 C1428 1.400 . S
C1433 C1432 1.389 . S
C1434 P1408 1.819 . S
C1434 C1435 1.410 . S
C1434 C1439 1.391 . S
C1435 H1417 0.929 1_565 S
C1435 C1434 1.410 . S
C1435 C1436 1.388 1_565 S
C1436 H1420 0.972 . S
C1436 C1435 1.388 1_545 S
C1436 C1437 1.376 1_545 S
C1437 C1436 1.376 1_565 S
C1437 C1438 1.385 . S
C1438 H1421 0.940 . S
C1438 C1437 1.385 . S
C1438 C1439 1.388 . S
C1439 H1418 0.939 . S
C1439 C1434 1.391 . S
C1439 C1438 1.388 . S
P1440 O1451 1.490 . S
P1440 C1454 1.812 1_545 S
P1440 C1460 1.803 . S
P1440 C1466 1.819 . S
H1441 C1455 0.941 . S
H1442 C1456 0.939 . S
H1443 C1458 0.940 . S
H1444 C1459 0.940 . S
H1445 C1461 0.939 . S
H1446 C1462 0.942 . S
H1447 C1464 0.940 . S
H1448 C1465 0.939 . S
H1449 C1467 0.941 . S
H1450 C1471 0.939 . S
O1451 P1440 1.490 . S
H1452 C1468 0.939 . S
H1453 C1470 0.940 . S
C1454 P1440 1.812 1_565 S
C1454 C1455 1.389 . S
C1454 C1459 1.391 . S
C1455 H1441 0.941 . S
C1455 C1454 1.389 . S
C1455 C1456 1.397 . S
C1456 H1442 0.939 . S
C1456 C1455 1.397 . S
C1456 C1457 1.378 . S
C1457 C1456 1.378 . S
C1457 C1458 1.378 . S
C1458 H1443 0.940 . S
C1458 C1457 1.378 . S
C1458 C1459 1.396 . S
C1459 H1444 0.940 . S
C1459 C1454 1.391 . S
C1459 C1458 1.396 . S
C1460 P1440 1.803 . S
C1460 C1461 1.378 . S
C1460 C1465 1.400 . S
C1461 H1445 0.939 . S
C1461 C1460 1.378 . S
C1461 C1462 1.361 . S
C1462 H1446 0.942 . S
C1462 C1461 1.361 . S
C1462 C1463 1.369 . S
C1463 C1462 1.369 . S
C1463 C1464 1.404 . S
C1464 H1447 0.940 . S
C1464 C1463 1.404 . S
C1464 C1465 1.389 . S
C1465 H1448 0.939 . S
C1465 C1460 1.400 . S
C1465 C1464 1.389 . S
C1466 P1440 1.819 . S
C1466 C1467 1.391 1_545 S
C1466 C1471 1.391 . S
C1467 H1449 0.941 . S
C1467 C1466 1.391 1_565 S
C1467 C1468 1.396 . S
C1468 H1452 0.939 . S
C1468 C1467 1.396 . S
C1468 C1469 1.397 1_565 S
C1469 C1468 1.397 1_545 S
C1469 C1470 1.385 . S
C1470 H1453 0.940 . S
C1470 C1469 1.385 . S
C1470 C1471 1.388 . S
C1471 H1450 0.939 . S
C1471 C1466 1.391 . S
C1471 C1470 1.388 . S
P1472 O1483 1.490 . S
P1472 C1486 1.812 . S
P1472 C1492 1.803 . S
P1472 C1498 1.819 . S
H1473 C1487 0.941 . S
H1474 C1488 0.939 . S
H1475 C1490 0.940 . S
H1476 C1491 0.940 . S
H1477 C1493 0.939 . S
H1478 C1494 0.942 . S
H1479 C1496 0.940 . S
H1480 C1497 0.939 . S
H1481 C1499 0.941 . S
H1482 C1503 0.939 . S
O1483 P1472 1.490 . S
H1484 C1500 0.939 . S
H1485 C1502 0.940 . S
C1486 P1472 1.812 . S
C1486 C1487 1.389 . S
C1486 C1491 1.391 . S
C1487 H1473 0.941 . S
C1487 C1486 1.389 . S
C1487 C1488 1.397 . S
C1488 H1474 0.939 . S
C1488 C1487 1.397 . S
C1488 C1489 1.378 . S
C1489 C1488 1.378 . S
C1489 C1490 1.378 . S
C1490 H1475 0.940 . S
C1490 C1489 1.378 . S
C1490 C1491 1.396 . S
C1491 H1476 0.940 . S
C1491 C1486 1.391 . S
C1491 C1490 1.396 . S
C1492 P1472 1.803 . S
C1492 C1493 1.378 . S
C1492 C1497 1.400 . S
C1493 H1477 0.939 . S
C1493 C1492 1.378 . S
C1493 C1494 1.361 . S
C1494 H1478 0.942 . S
C1494 C1493 1.361 . S
C1494 C1495 1.369 . S
C1495 C1494 1.369 . S
C1495 C1496 1.404 . S
C1496 H1479 0.940 . S
C1496 C1495 1.404 . S
C1496 C1497 1.389 . S
C1497 H1480 0.939 . S
C1497 C1492 1.400 . S
C1497 C1496 1.389 . S
C1498 P1472 1.819 . S
C1498 C1499 1.391 . S
C1498 C1503 1.391 . S
C1499 H1481 0.941 . S
C1499 C1498 1.391 . S
C1499 C1500 1.396 . S
C1500 H1484 0.939 . S
C1500 C1499 1.396 . S
C1500 C1501 1.397 . S
C1501 C1500 1.397 . S
C1501 C1502 1.385 . S
C1502 H1485 0.940 . S
C1502 C1501 1.385 . S
C1502 C1503 1.388 . S
C1503 H1482 0.939 . S
C1503 C1498 1.391 . S
C1503 C1502 1.388 . S
P1504 O1515 1.490 . S
P1504 C1518 1.812 1_554 S
P1504 C1524 1.803 . S
P1504 C1530 1.819 . S
H1505 C1519 0.941 . S
H1506 C1520 0.939 . S
H1507 C1522 0.940 . S
H1508 C1523 0.940 . S
H1509 C1525 0.939 . S
H1510 C1526 0.942 . S
H1511 C1528 0.940 . S
H1512 C1529 0.939 . S
H1513 C1531 0.941 . S
H1514 C1535 0.939 . S
O1515 P1504 1.490 . S
H1516 C1532 0.939 . S
H1517 C1534 0.940 . S
C1518 P1504 1.812 1_556 S
C1518 C1519 1.389 . S
C1518 C1523 1.391 . S
C1519 H1505 0.941 . S
C1519 C1518 1.389 . S
C1519 C1520 1.397 . S
C1520 H1506 0.939 . S
C1520 C1519 1.397 . S
C1520 C1521 1.378 . S
C1521 C1520 1.378 . S
C1521 C1522 1.378 . S
C1522 H1507 0.940 . S
C1522 C1521 1.378 . S
C1522 C1523 1.396 . S
C1523 H1508 0.940 . S
C1523 C1518 1.391 . S
C1523 C1522 1.396 . S
C1524 P1504 1.803 . S
C1524 C1525 1.378 . S
C1524 C1529 1.400 . S
C1525 H1509 0.939 . S
C1525 C1524 1.378 . S
C1525 C1526 1.361 . S
C1526 H1510 0.942 . S
C1526 C1525 1.361 . S
C1526 C1527 1.369 . S
C1527 C1526 1.369 . S
C1527 C1528 1.404 . S
C1528 H1511 0.940 . S
C1528 C1527 1.404 . S
C1528 C1529 1.389 . S
C1529 H1512 0.939 . S
C1529 C1524 1.400 . S
C1529 C1528 1.389 . S
C1530 P1504 1.819 . S
C1530 C1531 1.391 1_554 S
C1530 C1535 1.391 . S
C1531 H1513 0.941 . S
C1531 C1530 1.391 1_556 S
C1531 C1532 1.396 . S
C1532 H1516 0.939 . S
C1532 C1531 1.396 . S
C1532 C1533 1.397 1_556 S
C1533 C1532 1.397 1_554 S
C1533 C1534 1.385 . S
C1534 H1517 0.940 . S
C1534 C1533 1.385 . S
C1534 C1535 1.388 . S
C1535 H1514 0.939 . S
C1535 C1530 1.391 . S
C1535 C1534 1.388 . S
P1536 O1547 1.490 . S
P1536 C1550 1.812 1_455 S
P1536 C1556 1.803 . S
P1536 C1562 1.819 . S
H1537 C1551 0.970 . S
H1538 C1552 0.939 . S
H1539 C1554 0.940 . S
H1540 C1555 0.940 . S
H1541 C1557 0.939 . S
H1542 C1558 0.942 . S
H1543 C1560 0.940 . S
H1544 C1561 0.939 . S
H1545 C1563 0.941 . S
H1546 C1567 0.939 . S
O1547 P1536 1.490 . S
H1548 C1564 0.939 . S
H1549 C1566 0.940 . S
C1550 P1536 1.812 1_655 S
C1550 C1551 1.389 . S
C1550 C1555 1.391 . S
C1551 H1537 0.970 . S
C1551 C1550 1.389 . S
C1551 C1552 1.397 . S
C1552 H1538 0.939 . S
C1552 C1551 1.397 . S
C1552 C1553 1.378 . S
C1553 C1552 1.378 . S
C1553 C1554 1.378 . S
C1554 H1539 0.940 . S
C1554 C1553 1.378 . S
C1554 C1555 1.396 . S
C1555 H1540 0.940 . S
C1555 C1550 1.391 . S
C1555 C1554 1.396 . S
C1556 P1536 1.803 . S
C1556 C1557 1.378 . S
C1556 C1561 1.400 1_455 S
C1557 H1541 0.939 . S
C1557 C1556 1.378 . S
C1557 C1558 1.361 . S
C1558 H1542 0.942 . S
C1558 C1557 1.361 . S
C1558 C1559 1.369 1_455 S
C1559 C1558 1.369 1_655 S
C1559 C1560 1.404 . S
C1560 H1543 0.940 . S
C1560 C1559 1.404 . S
C1560 C1561 1.389 . S
C1561 H1544 0.939 . S
C1561 C1556 1.400 1_655 S
C1561 C1560 1.389 . S
C1562 P1536 1.819 . S
C1562 C1563 1.391 . S
C1562 C1567 1.391 . S
C1563 H1545 0.941 . S
C1563 C1562 1.391 . S
C1563 C1564 1.396 . S
C1564 H1548 0.939 . S
C1564 C1563 1.396 . S
C1564 C1565 1.397 . S
C1565 C1564 1.397 . S
C1565 C1566 1.385 . S
C1566 H1549 0.940 . S
C1566 C1565 1.385 . S
C1566 C1567 1.388 . S
C1567 H1546 0.939 . S
C1567 C1562 1.391 . S
C1567 C1566 1.388 . S
P1568 O1579 1.490 . S
P1568 C1582 1.812 1_556 S
P1568 C1588 1.803 . S
P1568 C1594 1.819 . S
H1569 C1583 0.941 . S
H1570 C1584 0.939 . S
H1571 C1586 0.940 . S
H1572 C1587 0.940 . S
H1573 C1589 0.939 . S
H1574 C1590 0.942 . S
H1575 C1592 0.940 . S
H1576 C1593 0.939 . S
H1577 C1595 0.929 1_554 S
H1578 C1599 0.939 . S
O1579 P1568 1.490 . S
H1580 C1596 0.972 . S
H1581 C1598 0.940 . S
C1582 P1568 1.812 1_554 S
C1582 C1583 1.389 . S
C1582 C1587 1.391 . S
C1583 H1569 0.941 . S
C1583 C1582 1.389 . S
C1583 C1584 1.397 . S
C1584 H1570 0.939 . S
C1584 C1583 1.397 . S
C1584 C1585 1.378 . S
C1585 C1584 1.378 . S
C1585 C1586 1.378 . S
C1586 H1571 0.940 . S
C1586 C1585 1.378 . S
C1586 C1587 1.396 . S
C1587 H1572 0.940 . S
C1587 C1582 1.391 . S
C1587 C1586 1.396 . S
C1588 P1568 1.803 . S
C1588 C1589 1.378 . S
C1588 C1593 1.400 . S
C1589 H1573 0.939 . S
C1589 C1588 1.378 . S
C1589 C1590 1.361 . S
C1590 H1574 0.942 . S
C1590 C1589 1.361 . S
C1590 C1591 1.369 . S
C1591 C1590 1.369 . S
C1591 C1592 1.404 . S
C1592 H1575 0.940 . S
C1592 C1591 1.404 . S
C1592 C1593 1.389 . S
C1593 H1576 0.939 . S
C1593 C1588 1.400 . S
C1593 C1592 1.389 . S
C1594 P1568 1.819 . S
C1594 C1595 1.410 . S
C1594 C1599 1.391 . S
C1595 H1577 0.929 1_556 S
C1595 C1594 1.410 . S
C1595 C1596 1.388 1_556 S
C1596 H1580 0.972 . S
C1596 C1595 1.388 1_554 S
C1596 C1597 1.376 1_554 S
C1597 C1596 1.376 1_556 S
C1597 C1598 1.385 . S
C1598 H1581 0.940 . S
C1598 C1597 1.385 . S
C1598 C1599 1.388 . S
C1599 H1578 0.939 . S
C1599 C1594 1.391 . S
C1599 C1598 1.388 . S
P1600 O1611 1.490 . S
P1600 C1614 1.812 . S
P1600 C1620 1.803 . S
P1600 C1626 1.819 . S
H1601 C1615 0.941 . S
H1602 C1616 0.939 . S
H1603 C1618 0.940 . S
H1604 C1619 0.940 . S
H1605 C1621 0.939 . S
H1606 C1622 0.942 . S
H1607 C1624 0.940 . S
H1608 C1625 0.939 . S
H1609 C1627 0.941 . S
H1610 C1631 0.939 . S
O1611 P1600 1.490 . S
H1612 C1628 0.939 . S
H1613 C1630 0.940 . S
C1614 P1600 1.812 . S
C1614 C1615 1.389 . S
C1614 C1619 1.391 . S
C1615 H1601 0.941 . S
C1615 C1614 1.389 . S
C1615 C1616 1.397 . S
C1616 H1602 0.939 . S
C1616 C1615 1.397 . S
C1616 C1617 1.378 . S
C1617 C1616 1.378 . S
C1617 C1618 1.378 . S
C1618 H1603 0.940 . S
C1618 C1617 1.378 . S
C1618 C1619 1.396 . S
C1619 H1604 0.940 . S
C1619 C1614 1.391 . S
C1619 C1618 1.396 . S
C1620 P1600 1.803 . S
C1620 C1621 1.378 . S
C1620 C1625 1.400 . S
C1621 H1605 0.939 . S
C1621 C1620 1.378 . S
C1621 C1622 1.361 . S
C1622 H1606 0.942 . S
C1622 C1621 1.361 . S
C1622 C1623 1.369 . S
C1623 C1622 1.369 . S
C1623 C1624 1.404 . S
C1624 H1607 0.940 . S
C1624 C1623 1.404 . S
C1624 C1625 1.389 . S
C1625 H1608 0.939 . S
C1625 C1620 1.400 . S
C1625 C1624 1.389 . S
C1626 P1600 1.819 . S
C1626 C1627 1.391 . S
C1626 C1631 1.391 . S
C1627 H1609 0.941 . S
C1627 C1626 1.391 . S
C1627 C1628 1.396 . S
C1628 H1612 0.939 . S
C1628 C1627 1.396 . S
C1628 C1629 1.397 . S
C1629 C1628 1.397 . S
C1629 C1630 1.385 . S
C1630 H1613 0.940 . S
C1630 C1629 1.385 . S
C1630 C1631 1.388 . S
C1631 H1610 0.939 . S
C1631 C1626 1.391 . S
C1631 C1630 1.388 . S
P1632 O1643 1.490 . S
P1632 C1646 1.812 1_455 S
P1632 C1652 1.803 . S
P1632 C1658 1.819 . S
H1633 C1647 0.941 . S
H1634 C1648 0.939 . S
H1635 C1650 0.940 . S
H1636 C1651 0.940 . S
H1637 C1653 0.939 . S
H1638 C1654 0.942 . S
H1639 C1656 0.940 . S
H1640 C1657 0.939 . S
H1641 C1659 0.941 . S
H1642 C1663 0.939 . S
O1643 P1632 1.490 . S
H1644 C1660 0.939 . S
H1645 C1662 0.940 . S
C1646 P1632 1.812 1_655 S
C1646 C1647 1.389 . S
C1646 C1651 1.391 . S
C1647 H1633 0.941 . S
C1647 C1646 1.389 . S
C1647 C1648 1.397 . S
C1648 H1634 0.939 . S
C1648 C1647 1.397 . S
C1648 C1649 1.378 . S
C1649 C1648 1.378 . S
C1649 C1650 1.378 . S
C1650 H1635 0.940 . S
C1650 C1649 1.378 . S
C1650 C1651 1.396 . S
C1651 H1636 0.940 . S
C1651 C1646 1.391 . S
C1651 C1650 1.396 . S
C1652 P1632 1.803 . S
C1652 C1653 1.378 . S
C1652 C1657 1.400 . S
C1653 H1637 0.939 . S
C1653 C1652 1.378 . S
C1653 C1654 1.361 . S
C1654 H1638 0.942 . S
C1654 C1653 1.361 . S
C1654 C1655 1.369 . S
C1655 C1654 1.369 . S
C1655 C1656 1.404 . S
C1656 H1639 0.940 . S
C1656 C1655 1.404 . S
C1656 C1657 1.389 . S
C1657 H1640 0.939 . S
C1657 C1652 1.400 . S
C1657 C1656 1.389 . S
C1658 P1632 1.819 . S
C1658 C1659 1.391 1_455 S
C1658 C1663 1.391 . S
C1659 H1641 0.941 . S
C1659 C1658 1.391 1_655 S
C1659 C1660 1.396 . S
C1660 H1644 0.939 . S
C1660 C1659 1.396 . S
C1660 C1661 1.397 1_655 S
C1661 C1660 1.397 1_455 S
C1661 C1662 1.385 . S
C1662 H1645 0.940 . S
C1662 C1661 1.385 . S
C1662 C1663 1.388 . S
C1663 H1642 0.939 . S
C1663 C1658 1.391 . S
C1663 C1662 1.388 . S
P1664 O1675 1.490 . S
P1664 C1678 1.812 1_545 S
P1664 C1684 1.803 . S
P1664 C1690 1.819 . S
H1665 C1679 0.970 . S
H1666 C1680 0.939 . S
H1667 C1682 0.940 . S
H1668 C1683 0.940 . S
H1669 C1685 0.939 . S
H1670 C1686 0.942 . S
H1671 C1688 0.940 . S
H1672 C1689 0.939 . S
H1673 C1691 0.941 . S
H1674 C1695 0.939 . S
O1675 P1664 1.490 . S
H1676 C1692 0.939 . S
H1677 C1694 0.940 . S
C1678 P1664 1.812 1_565 S
C1678 C1679 1.389 . S
C1678 C1683 1.391 . S
C1679 H1665 0.970 . S
C1679 C1678 1.389 . S
C1679 C1680 1.397 . S
C1680 H1666 0.939 . S
C1680 C1679 1.397 . S
C1680 C1681 1.378 . S
C1681 C1680 1.378 . S
C1681 C1682 1.378 . S
C1682 H1667 0.940 . S
C1682 C1681 1.378 . S
C1682 C1683 1.396 . S
C1683 H1668 0.940 . S
C1683 C1678 1.391 . S
C1683 C1682 1.396 . S
C1684 P1664 1.803 . S
C1684 C1685 1.378 . S
C1684 C1689 1.400 1_545 S
C1685 H1669 0.939 . S
C1685 C1684 1.378 . S
C1685 C1686 1.361 . S
C1686 H1670 0.942 . S
C1686 C1685 1.361 . S
C1686 C1687 1.369 1_545 S
C1687 C1686 1.369 1_565 S
C1687 C1688 1.404 . S
C1688 H1671 0.940 . S
C1688 C1687 1.404 . S
C1688 C1689 1.389 . S
C1689 H1672 0.939 . S
C1689 C1684 1.400 1_565 S
C1689 C1688 1.389 . S
C1690 P1664 1.819 . S
C1690 C1691 1.391 . S
C1690 C1695 1.391 . S
C1691 H1673 0.941 . S
C1691 C1690 1.391 . S
C1691 C1692 1.396 . S
C1692 H1676 0.939 . S
C1692 C1691 1.396 . S
C1692 C1693 1.397 . S
C1693 C1692 1.397 . S
C1693 C1694 1.385 . S
C1694 H1677 0.940 . S
C1694 C1693 1.385 . S
C1694 C1695 1.388 . S
C1695 H1674 0.939 . S
C1695 C1690 1.391 . S
C1695 C1694 1.388 . S
P1696 O1707 1.490 . S
P1696 C1710 1.812 1_655 S
P1696 C1716 1.803 . S
P1696 C1722 1.819 . S
H1697 C1711 0.941 . S
H1698 C1712 0.939 . S
H1699 C1714 0.940 . S
H1700 C1715 0.940 . S
H1701 C1717 0.939 . S
H1702 C1718 0.942 . S
H1703 C1720 0.940 . S
H1704 C1721 0.939 . S
H1705 C1723 0.929 1_455 S
H1706 C1727 0.939 . S
O1707 P1696 1.490 . S
H1708 C1724 0.972 . S
H1709 C1726 0.940 . S
C1710 P1696 1.812 1_455 S
C1710 C1711 1.389 . S
C1710 C1715 1.391 . S
C1711 H1697 0.941 . S
C1711 C1710 1.389 . S
C1711 C1712 1.397 . S
C1712 H1698 0.939 . S
C1712 C1711 1.397 . S
C1712 C1713 1.378 . S
C1713 C1712 1.378 . S
C1713 C1714 1.378 . S
C1714 H1699 0.940 . S
C1714 C1713 1.378 . S
C1714 C1715 1.396 . S
C1715 H1700 0.940 . S
C1715 C1710 1.391 . S
C1715 C1714 1.396 . S
C1716 P1696 1.803 . S
C1716 C1717 1.378 . S
C1716 C1721 1.400 . S
C1717 H1701 0.939 . S
C1717 C1716 1.378 . S
C1717 C1718 1.361 . S
C1718 H1702 0.942 . S
C1718 C1717 1.361 . S
C1718 C1719 1.369 . S
C1719 C1718 1.369 . S
C1719 C1720 1.404 . S
C1720 H1703 0.940 . S
C1720 C1719 1.404 . S
C1720 C1721 1.389 . S
C1721 H1704 0.939 . S
C1721 C1716 1.400 . S
C1721 C1720 1.389 . S
C1722 P1696 1.819 . S
C1722 C1723 1.410 . S
C1722 C1727 1.391 . S
C1723 H1705 0.929 1_655 S
C1723 C1722 1.410 . S
C1723 C1724 1.388 1_655 S
C1724 H1708 0.972 . S
C1724 C1723 1.388 1_455 S
C1724 C1725 1.376 1_455 S
C1725 C1724 1.376 1_655 S
C1725 C1726 1.385 . S
C1726 H1709 0.940 . S
C1726 C1725 1.385 . S
C1726 C1727 1.388 . S
C1727 H1706 0.939 . S
C1727 C1722 1.391 . S
C1727 C1726 1.388 . S
H1728 C1734 0.930 . S
H1729 C1738 0.930 . S
H1730 C1743 0.929 . S
H1731 C1741 0.929 . S
H1732 C1736 0.929 . S
H1733 C1742 0.929 . S
C1734 H1728 0.930 . S
C1734 C1735 1.367 . S
C1734 C1742 1.378 . S
C1735 C1734 1.367 . S
C1735 C1743 1.433 . S
C1736 H1732 0.929 . S
C1736 C1738 1.378 . S
C1736 C1740 1.350 . S
C1737 C1740 1.463 . S
C1737 C1742 1.350 . S
C1737 N1745 1.427 . S
C1738 H1729 0.930 . S
C1738 C1736 1.378 . S
C1738 C1739 1.367 . S
C1739 C1738 1.367 . S
C1739 C1741 1.433 . S
C1740 C1736 1.350 . S
C1740 C1737 1.463 . S
C1740 N1744 1.427 . S
C1741 H1731 0.929 . S
C1741 C1739 1.433 . S
C1741 N1744 1.384 . S
C1742 H1733 0.929 . S
C1742 C1734 1.378 . S
C1742 C1737 1.350 . S
C1743 H1730 0.929 . S
C1743 C1735 1.433 . S
C1743 N1745 1.384 . S
N1744 C1740 1.427 . S
N1744 C1741 1.384 . S
N1745 C1737 1.427 . S
N1745 C1743 1.384 . S
H1746 C1752 0.930 . S
H1747 C1756 0.930 . S
H1748 C1761 0.929 . S
H1749 C1759 0.929 . S
H1750 C1754 0.929 . S
H1751 C1760 0.929 . S
C1752 H1746 0.930 . S
C1752 C1753 1.367 . S
C1752 C1760 1.378 . S
C1753 C1752 1.367 . S
C1753 C1761 1.433 . S
C1754 H1750 0.929 . S
C1754 C1756 1.378 . S
C1754 C1758 1.350 . S
C1755 C1758 1.463 . S
C1755 C1760 1.350 . S
C1755 N1763 1.427 . S
C1756 H1747 0.930 . S
C1756 C1754 1.378 . S
C1756 C1757 1.367 . S
C1757 C1756 1.367 . S
C1757 C1759 1.433 . S
C1758 C1754 1.350 . S
C1758 C1755 1.463 . S
C1758 N1762 1.427 . S
C1759 H1749 0.929 . S
C1759 C1757 1.433 . S
C1759 N1762 1.384 . S
C1760 H1751 0.929 . S
C1760 C1752 1.378 . S
C1760 C1755 1.350 . S
C1761 H1748 0.929 . S
C1761 C1753 1.433 . S
C1761 N1763 1.384 . S
N1762 C1758 1.427 . S
N1762 C1759 1.384 . S
N1763 C1755 1.427 . S
N1763 C1761 1.384 . S
H1764 C1770 0.930 . S
H1765 C1774 0.930 . S
H1766 C1779 0.929 . S
H1767 C1777 0.929 . S
H1768 C1772 0.929 . S
H1769 C1778 0.929 . S
C1770 H1764 0.930 . S
C1770 C1771 1.367 . S
C1770 C1778 1.378 . S
C1771 C1770 1.367 . S
C1771 C1779 1.433 . S
C1772 H1768 0.929 . S
C1772 C1774 1.378 . S
C1772 C1776 1.350 . S
C1773 C1776 1.463 . S
C1773 C1778 1.350 . S
C1773 N1781 1.427 . S
C1774 H1765 0.930 . S
C1774 C1772 1.378 . S
C1774 C1775 1.367 . S
C1775 C1774 1.367 . S
C1775 C1777 1.433 . S
C1776 C1772 1.350 . S
C1776 C1773 1.463 . S
C1776 N1780 1.427 . S
C1777 H1767 0.929 . S
C1777 C1775 1.433 . S
C1777 N1780 1.384 . S
C1778 H1769 0.929 . S
C1778 C1770 1.378 . S
C1778 C1773 1.350 . S
C1779 H1766 0.929 . S
C1779 C1771 1.433 . S
C1779 N1781 1.384 . S
N1780 C1776 1.427 . S
N1780 C1777 1.384 . S
N1781 C1773 1.427 . S
N1781 C1779 1.384 . S
H1782 C1788 0.930 . S
H1783 C1792 0.930 . S
H1784 C1797 0.929 . S
H1785 C1795 0.929 . S
H1786 C1790 0.929 . S
H1787 C1796 0.929 . S
C1788 H1782 0.930 . S
C1788 C1789 1.367 . S
C1788 C1796 1.378 . S
C1789 C1788 1.367 . S
C1789 C1797 1.433 . S
C1790 H1786 0.929 . S
C1790 C1792 1.378 . S
C1790 C1794 1.350 . S
C1791 C1794 1.463 . S
C1791 C1796 1.350 . S
C1791 N1799 1.427 . S
C1792 H1783 0.930 . S
C1792 C1790 1.378 . S
C1792 C1793 1.367 . S
C1793 C1792 1.367 . S
C1793 C1795 1.433 . S
C1794 C1790 1.350 . S
C1794 C1791 1.463 . S
C1794 N1798 1.427 . S
C1795 H1785 0.929 . S
C1795 C1793 1.433 . S
C1795 N1798 1.384 . S
C1796 H1787 0.929 . S
C1796 C1788 1.378 . S
C1796 C1791 1.350 . S
C1797 H1784 0.929 . S
C1797 C1789 1.433 . S
C1797 N1799 1.384 . S
N1798 C1794 1.427 . S
N1798 C1795 1.384 . S
N1799 C1791 1.427 . S
N1799 C1797 1.384 . S
H1800 C1806 0.930 . S
H1801 C1810 0.930 . S
H1802 C1815 0.929 . S
H1803 C1813 0.929 . S
H1804 C1808 0.929 . S
H1805 C1814 0.929 . S
C1806 H1800 0.930 . S
C1806 C1807 1.367 . S
C1806 C1814 1.378 . S
C1807 C1806 1.367 . S
C1807 C1815 1.433 . S
C1808 H1804 0.929 . S
C1808 C1810 1.378 . S
C1808 C1812 1.350 . S
C1809 C1812 1.463 . S
C1809 C1814 1.350 . S
C1809 N1817 1.427 . S
C1810 H1801 0.930 . S
C1810 C1808 1.378 . S
C1810 C1811 1.367 . S
C1811 C1810 1.367 . S
C1811 C1813 1.433 . S
C1812 C1808 1.350 . S
C1812 C1809 1.463 . S
C1812 N1816 1.427 . S
C1813 H1803 0.929 . S
C1813 C1811 1.433 . S
C1813 N1816 1.384 . S
C1814 H1805 0.929 . S
C1814 C1806 1.378 . S
C1814 C1809 1.350 . S
C1815 H1802 0.929 . S
C1815 C1807 1.433 . S
C1815 N1817 1.384 . S
N1816 C1812 1.427 . S
N1816 C1813 1.384 . S
N1817 C1809 1.427 . S
N1817 C1815 1.384 . S
H1818 C1824 0.930 1_554 S
H1819 C1828 0.930 . S
H1820 C1833 0.929 . S
H1821 C1831 0.929 1_554 S
H1822 C1826 0.929 . S
H1823 C1832 0.929 1_554 S
C1824 H1818 0.930 1_556 S
C1824 C1825 1.367 . S
C1824 C1832 1.378 . S
C1825 C1824 1.367 . S
C1825 C1833 1.433 . S
C1826 H1822 0.929 . S
C1826 C1828 1.378 . S
C1826 C1830 1.350 . S
C1827 C1830 1.463 . S
C1827 C1832 1.350 . S
C1827 N1835 1.427 . S
C1828 H1819 0.930 . S
C1828 C1826 1.378 . S
C1828 C1829 1.367 . S
C1829 C1828 1.367 . S
C1829 C1831 1.433 . S
C1830 C1826 1.350 . S
C1830 C1827 1.463 . S
C1830 N1834 1.427 . S
C1831 H1821 0.929 1_556 S
C1831 C1829 1.433 . S
C1831 N1834 1.384 . S
C1832 H1823 0.929 1_556 S
C1832 C1824 1.378 . S
C1832 C1827 1.350 . S
C1833 H1820 0.929 . S
C1833 C1825 1.433 . S
C1833 N1835 1.384 . S
N1834 C1830 1.427 . S
N1834 C1831 1.384 . S
N1835 C1827 1.427 . S
N1835 C1833 1.384 . S
H1836 C1842 0.930 . S
H1837 C1846 0.930 . S
H1838 C1851 0.929 . S
H1839 C1849 0.929 . S
H1840 C1844 0.929 . S
H1841 C1850 0.929 . S
C1842 H1836 0.930 . S
C1842 C1843 1.367 . S
C1842 C1850 1.378 . S
C1843 C1842 1.367 . S
C1843 C1851 1.433 . S
C1844 H1840 0.929 . S
C1844 C1846 1.378 . S
C1844 C1848 1.350 . S
C1845 C1848 1.463 . S
C1845 C1850 1.350 . S
C1845 N1853 1.427 . S
C1846 H1837 0.930 . S
C1846 C1844 1.378 . S
C1846 C1847 1.367 . S
C1847 C1846 1.367 . S
C1847 C1849 1.433 . S
C1848 C1844 1.350 . S
C1848 C1845 1.463 . S
C1848 N1852 1.427 . S
C1849 H1839 0.929 . S
C1849 C1847 1.433 . S
C1849 N1852 1.384 . S
C1850 H1841 0.929 . S
C1850 C1842 1.378 . S
C1850 C1845 1.350 . S
C1851 H1838 0.929 . S
C1851 C1843 1.433 . S
C1851 N1853 1.384 . S
N1852 C1848 1.427 . S
N1852 C1849 1.384 . S
N1853 C1845 1.427 . S
N1853 C1851 1.384 . S
H1854 C1860 0.954 . S
H1855 C1864 0.930 . S
H1856 C1869 0.929 . S
H1857 C1867 0.929 . S
H1858 C1862 0.929 . S
H1859 C1868 0.909 1_554 S
C1860 H1854 0.954 . S
C1860 C1861 1.352 1_554 S
C1860 C1868 1.369 1_554 S
C1861 C1860 1.352 1_556 S
C1861 C1869 1.433 . S
C1862 H1858 0.929 . S
C1862 C1864 1.378 . S
C1862 C1866 1.350 . S
C1863 C1866 1.463 . S
C1863 C1868 1.350 . S
C1863 N1871 1.427 . S
C1864 H1855 0.930 . S
C1864 C1862 1.378 . S
C1864 C1865 1.367 . S
C1865 C1864 1.367 . S
C1865 C1867 1.433 . S
C1866 C1862 1.350 . S
C1866 C1863 1.463 . S
C1866 N1870 1.427 . S
C1867 H1857 0.929 . S
C1867 C1865 1.433 . S
C1867 N1870 1.384 . S
C1868 H1859 0.909 1_556 S
C1868 C1860 1.369 1_556 S
C1868 C1863 1.350 . S
C1869 H1856 0.929 . S
C1869 C1861 1.433 . S
C1869 N1871 1.384 . S
N1870 C1866 1.427 . S
N1870 C1867 1.384 . S
N1871 C1863 1.427 . S
N1871 C1869 1.384 . S
H1872 C1878 0.930 . S
H1873 C1882 0.930 . S
H1874 C1887 0.929 . S
H1875 C1885 0.929 . S
H1876 C1880 0.929 . S
H1877 C1886 0.929 . S
C1878 H1872 0.930 . S
C1878 C1879 1.367 . S
C1878 C1886 1.378 . S
C1879 C1878 1.367 . S
C1879 C1887 1.433 . S
C1880 H1876 0.929 . S
C1880 C1882 1.378 . S
C1880 C1884 1.350 . S
C1881 C1884 1.463 . S
C1881 C1886 1.350 . S
C1881 N1889 1.427 . S
C1882 H1873 0.930 . S
C1882 C1880 1.378 . S
C1882 C1883 1.367 . S
C1883 C1882 1.367 . S
C1883 C1885 1.433 . S
C1884 C1880 1.350 . S
C1884 C1881 1.463 . S
C1884 N1888 1.427 . S
C1885 H1875 0.929 . S
C1885 C1883 1.433 . S
C1885 N1888 1.384 . S
C1886 H1877 0.929 . S
C1886 C1878 1.378 . S
C1886 C1881 1.350 . S
C1887 H1874 0.929 . S
C1887 C1879 1.433 . S
C1887 N1889 1.384 . S
N1888 C1884 1.427 . S
N1888 C1885 1.384 . S
N1889 C1881 1.427 . S
N1889 C1887 1.384 . S
H1890 C1896 0.937 1_455 S
H1891 C1900 0.930 . S
H1892 C1905 0.929 . S
H1893 C1903 0.929 1_455 S
H1894 C1898 0.929 . S
H1895 C1904 0.929 1_455 S
C1896 H1890 0.937 1_655 S
C1896 C1897 1.361 . S
C1896 C1904 1.377 . S
C1897 C1896 1.361 . S
C1897 C1905 1.433 . S
C1898 H1894 0.929 . S
C1898 C1900 1.378 . S
C1898 C1902 1.350 . S
C1899 C1902 1.463 . S
C1899 C1904 1.350 . S
C1899 N1907 1.427 . S
C1900 H1891 0.930 . S
C1900 C1898 1.378 . S
C1900 C1901 1.367 . S
C1901 C1900 1.367 . S
C1901 C1903 1.433 . S
C1902 C1898 1.350 . S
C1902 C1899 1.463 . S
C1902 N1906 1.427 . S
C1903 H1893 0.929 1_655 S
C1903 C1901 1.433 . S
C1903 N1906 1.384 . S
C1904 H1895 0.929 1_655 S
C1904 C1896 1.377 . S
C1904 C1899 1.350 . S
C1905 H1892 0.929 . S
C1905 C1897 1.433 . S
C1905 N1907 1.384 . S
N1906 C1902 1.427 . S
N1906 C1903 1.384 . S
N1907 C1899 1.427 . S
N1907 C1905 1.384 . S
H1908 C1914 0.930 . S
H1909 C1918 0.930 . S
H1910 C1923 0.929 . S
H1911 C1921 0.929 . S
H1912 C1916 0.929 . S
H1913 C1922 0.929 . S
C1914 H1908 0.930 . S
C1914 C1915 1.367 . S
C1914 C1922 1.378 . S
C1915 C1914 1.367 . S
C1915 C1923 1.433 . S
C1916 H1912 0.929 . S
C1916 C1918 1.378 . S
C1916 C1920 1.350 . S
C1917 C1920 1.463 . S
C1917 C1922 1.350 . S
C1917 N1925 1.427 . S
C1918 H1909 0.930 . S
C1918 C1916 1.378 . S
C1918 C1919 1.367 . S
C1919 C1918 1.367 . S
C1919 C1921 1.433 . S
C1920 C1916 1.350 . S
C1920 C1917 1.463 . S
C1920 N1924 1.427 . S
C1921 H1911 0.929 . S
C1921 C1919 1.433 . S
C1921 N1924 1.384 . S
C1922 H1913 0.929 . S
C1922 C1914 1.378 . S
C1922 C1917 1.350 . S
C1923 H1910 0.929 . S
C1923 C1915 1.433 . S
C1923 N1925 1.384 . S
N1924 C1920 1.427 . S
N1924 C1921 1.384 . S
N1925 C1917 1.427 . S
N1925 C1923 1.384 . S
H1926 C1932 0.922 1_455 S
H1927 C1936 0.930 . S
H1928 C1941 0.929 . S
H1929 C1939 0.929 . S
H1930 C1934 0.929 . S
H1931 C1940 0.946 . S
C1932 H1926 0.922 1_655 S
C1932 C1933 1.372 . S
C1932 C1940 1.381 . S
C1933 C1932 1.372 . S
C1933 C1941 1.433 . S
C1934 H1930 0.929 . S
C1934 C1936 1.378 . S
C1934 C1938 1.350 . S
C1935 C1938 1.463 . S
C1935 C1940 1.350 . S
C1935 N1943 1.427 . S
C1936 H1927 0.930 . S
C1936 C1934 1.378 . S
C1936 C1937 1.367 . S
C1937 C1936 1.367 . S
C1937 C1939 1.433 . S
C1938 C1934 1.350 . S
C1938 C1935 1.463 . S
C1938 N1942 1.427 . S
C1939 H1929 0.929 . S
C1939 C1937 1.433 . S
C1939 N1942 1.384 . S
C1940 H1931 0.946 . S
C1940 C1932 1.381 . S
C1940 C1935 1.350 . S
C1941 H1928 0.929 . S
C1941 C1933 1.433 . S
C1941 N1943 1.384 . S
N1942 C1938 1.427 . S
N1942 C1939 1.384 . S
N1943 C1935 1.427 . S
N1943 C1941 1.384 . S
H1944 C1950 0.930 . S
H1945 C1954 0.930 . S
H1946 C1959 0.929 . S
H1947 C1957 0.929 . S
H1948 C1952 0.929 . S
H1949 C1958 0.929 . S
C1950 H1944 0.930 . S
C1950 C1951 1.367 . S
C1950 C1958 1.378 . S
C1951 C1950 1.367 . S
C1951 C1959 1.433 . S
C1952 H1948 0.929 . S
C1952 C1954 1.378 . S
C1952 C1956 1.350 . S
C1953 C1956 1.463 . S
C1953 C1958 1.350 . S
C1953 N1961 1.427 . S
C1954 H1945 0.930 . S
C1954 C1952 1.378 . S
C1954 C1955 1.367 . S
C1955 C1954 1.367 . S
C1955 C1957 1.433 . S
C1956 C1952 1.350 . S
C1956 C1953 1.463 . S
C1956 N1960 1.427 . S
C1957 H1947 0.929 . S
C1957 C1955 1.433 . S
C1957 N1960 1.384 . S
C1958 H1949 0.929 . S
C1958 C1950 1.378 . S
C1958 C1953 1.350 . S
C1959 H1946 0.929 . S
C1959 C1951 1.433 . S
C1959 N1961 1.384 . S
N1960 C1956 1.427 . S
N1960 C1957 1.384 . S
N1961 C1953 1.427 . S
N1961 C1959 1.384 . S
H1962 C1968 0.930 . S
H1963 C1972 0.930 . S
H1964 C1977 0.929 . S
H1965 C1975 0.929 . S
H1966 C1970 0.929 . S
H1967 C1976 0.929 . S
C1968 H1962 0.930 . S
C1968 C1969 1.367 . S
C1968 C1976 1.378 . S
C1969 C1968 1.367 . S
C1969 C1977 1.433 . S
C1970 H1966 0.929 . S
C1970 C1972 1.378 . S
C1970 C1974 1.350 . S
C1971 C1974 1.463 . S
C1971 C1976 1.350 . S
C1971 N1979 1.427 . S
C1972 H1963 0.930 . S
C1972 C1970 1.378 . S
C1972 C1973 1.367 . S
C1973 C1972 1.367 . S
C1973 C1975 1.433 . S
C1974 C1970 1.350 . S
C1974 C1971 1.463 . S
C1974 N1978 1.427 . S
C1975 H1965 0.929 . S
C1975 C1973 1.433 . S
C1975 N1978 1.384 . S
C1976 H1967 0.929 . S
C1976 C1968 1.378 . S
C1976 C1971 1.350 . S
C1977 H1964 0.929 . S
C1977 C1969 1.433 . S
C1977 N1979 1.384 . S
N1978 C1974 1.427 . S
N1978 C1975 1.384 . S
N1979 C1971 1.427 . S
N1979 C1977 1.384 . S
H1980 C1986 0.930 . S
H1981 C1990 0.930 . S
H1982 C1995 0.929 1_565 S
H1983 C1993 0.929 . S
H1984 C1988 0.929 . S
H1985 C1994 0.929 . S
C1986 H1980 0.930 . S
C1986 C1987 1.367 . S
C1986 C1994 1.378 . S
C1987 C1986 1.367 . S
C1987 C1995 1.433 . S
C1988 H1984 0.929 . S
C1988 C1990 1.378 . S
C1988 C1992 1.350 . S
C1989 C1992 1.463 . S
C1989 C1994 1.350 . S
C1989 N1997 1.427 . S
C1990 H1981 0.930 . S
C1990 C1988 1.378 . S
C1990 C1991 1.367 . S
C1991 C1990 1.367 . S
C1991 C1993 1.433 . S
C1992 C1988 1.350 . S
C1992 C1989 1.463 . S
C1992 N1996 1.427 . S
C1993 H1983 0.929 . S
C1993 C1991 1.433 . S
C1993 N1996 1.384 . S
C1994 H1985 0.929 . S
C1994 C1986 1.378 . S
C1994 C1989 1.350 . S
C1995 H1982 0.929 1_545 S
C1995 C1987 1.433 . S
C1995 N1997 1.384 . S
N1996 C1992 1.427 . S
N1996 C1993 1.384 . S
N1997 C1989 1.427 . S
N1997 C1995 1.384 . S
H1998 C2004 0.930 . S
H1999 C2008 0.956 . S
H2000 C2013 0.929 1_565 S
H2001 C2011 0.929 . S
H2002 C2006 0.929 1_565 S
H2003 C2012 0.929 . S
C2004 H1998 0.930 . S
C2004 C2005 1.367 . S
C2004 C2012 1.378 . S
C2005 C2004 1.367 . S
C2005 C2013 1.433 . S
C2006 H2002 0.929 1_545 S
C2006 C2008 1.378 . S
C2006 C2010 1.350 . S
C2007 C2010 1.463 . S
C2007 C2012 1.350 . S
C2007 N2015 1.427 . S
C2008 H1999 0.956 . S
C2008 C2006 1.378 . S
C2008 C2009 1.367 . S
C2009 C2008 1.367 . S
C2009 C2011 1.433 . S
C2010 C2006 1.350 . S
C2010 C2007 1.463 . S
C2010 N2014 1.427 . S
C2011 H2001 0.929 . S
C2011 C2009 1.433 . S
C2011 N2014 1.384 . S
C2012 H2003 0.929 . S
C2012 C2004 1.378 . S
C2012 C2007 1.350 . S
C2013 H2000 0.929 1_545 S
C2013 C2005 1.433 . S
C2013 N2015 1.384 . S
N2014 C2010 1.427 . S
N2014 C2011 1.384 . S
N2015 C2007 1.427 . S
N2015 C2013 1.384 . S
H2016 C2022 0.930 . S
H2017 C2026 0.930 . S
H2018 C2031 0.929 . S
H2019 C2029 0.929 . S
H2020 C2024 0.929 . S
H2021 C2030 0.929 . S
C2022 H2016 0.930 . S
C2022 C2023 1.367 . S
C2022 C2030 1.378 . S
C2023 C2022 1.367 . S
C2023 C2031 1.433 . S
C2024 H2020 0.929 . S
C2024 C2026 1.378 . S
C2024 C2028 1.350 . S
C2025 C2028 1.463 . S
C2025 C2030 1.350 . S
C2025 N2033 1.427 . S
C2026 H2017 0.930 . S
C2026 C2024 1.378 . S
C2026 C2027 1.367 . S
C2027 C2026 1.367 . S
C2027 C2029 1.433 . S
C2028 C2024 1.350 . S
C2028 C2025 1.463 . S
C2028 N2032 1.427 . S
C2029 H2019 0.929 . S
C2029 C2027 1.433 . S
C2029 N2032 1.384 . S
C2030 H2021 0.929 . S
C2030 C2022 1.378 . S
C2030 C2025 1.350 . S
C2031 H2018 0.929 . S
C2031 C2023 1.433 . S
C2031 N2033 1.384 . S
N2032 C2028 1.427 . S
N2032 C2029 1.384 . S
N2033 C2025 1.427 . S
N2033 C2031 1.384 . S
H2034 C2040 0.931 . S
H2035 C2044 0.930 . S
H2036 C2049 0.929 . S
H2037 C2047 0.929 1_556 S
H2038 C2042 0.929 . S
H2039 C2048 0.929 1_556 S
C2040 H2034 0.931 . S
C2040 C2041 1.366 1_556 S
C2040 C2048 1.378 1_556 S
C2041 C2040 1.366 1_554 S
C2041 C2049 1.433 . S
C2042 H2038 0.929 . S
C2042 C2044 1.378 . S
C2042 C2046 1.350 . S
C2043 C2046 1.463 . S
C2043 C2048 1.350 . S
C2043 N2051 1.427 . S
C2044 H2035 0.930 . S
C2044 C2042 1.378 . S
C2044 C2045 1.367 . S
C2045 C2044 1.367 . S
C2045 C2047 1.433 . S
C2046 C2042 1.350 . S
C2046 C2043 1.463 . S
C2046 N2050 1.427 . S
C2047 H2037 0.929 1_554 S
C2047 C2045 1.433 . S
C2047 N2050 1.384 . S
C2048 H2039 0.929 1_554 S
C2048 C2040 1.378 1_554 S
C2048 C2043 1.350 . S
C2049 H2036 0.929 . S
C2049 C2041 1.433 . S
C2049 N2051 1.384 . S
N2050 C2046 1.427 . S
N2050 C2047 1.384 . S
N2051 C2043 1.427 . S
N2051 C2049 1.384 . S
H2052 C2058 0.930 . S
H2053 C2062 0.930 . S
H2054 C2067 0.929 . S
H2055 C2065 0.929 . S
H2056 C2060 0.929 . S
H2057 C2066 0.929 . S
C2058 H2052 0.930 . S
C2058 C2059 1.367 . S
C2058 C2066 1.378 . S
C2059 C2058 1.367 . S
C2059 C2067 1.433 . S
C2060 H2056 0.929 . S
C2060 C2062 1.378 . S
C2060 C2064 1.350 . S
C2061 C2064 1.463 . S
C2061 C2066 1.350 . S
C2061 N2069 1.427 . S
C2062 H2053 0.930 . S
C2062 C2060 1.378 . S
C2062 C2063 1.367 . S
C2063 C2062 1.367 . S
C2063 C2065 1.433 . S
C2064 C2060 1.350 . S
C2064 C2061 1.463 . S
C2064 N2068 1.427 . S
C2065 H2055 0.929 . S
C2065 C2063 1.433 . S
C2065 N2068 1.384 . S
C2066 H2057 0.929 . S
C2066 C2058 1.378 . S
C2066 C2061 1.350 . S
C2067 H2054 0.929 . S
C2067 C2059 1.433 . S
C2067 N2069 1.384 . S
N2068 C2064 1.427 . S
N2068 C2065 1.384 . S
N2069 C2061 1.427 . S
N2069 C2067 1.384 . S
H2070 C2076 0.930 . S
H2071 C2080 0.930 . S
H2072 C2085 0.929 1_556 S
H2073 C2083 0.929 . S
H2074 C2078 0.929 . S
H2075 C2084 0.929 . S
C2076 H2070 0.930 . S
C2076 C2077 1.367 . S
C2076 C2084 1.378 . S
C2077 C2076 1.367 . S
C2077 C2085 1.433 . S
C2078 H2074 0.929 . S
C2078 C2080 1.378 . S
C2078 C2082 1.350 . S
C2079 C2082 1.463 . S
C2079 C2084 1.350 . S
C2079 N2087 1.427 . S
C2080 H2071 0.930 . S
C2080 C2078 1.378 . S
C2080 C2081 1.367 . S
C2081 C2080 1.367 . S
C2081 C2083 1.433 . S
C2082 C2078 1.350 . S
C2082 C2079 1.463 . S
C2082 N2086 1.427 . S
C2083 H2073 0.929 . S
C2083 C2081 1.433 . S
C2083 N2086 1.384 . S
C2084 H2075 0.929 . S
C2084 C2076 1.378 . S
C2084 C2079 1.350 . S
C2085 H2072 0.929 1_554 S
C2085 C2077 1.433 . S
C2085 N2087 1.384 . S
N2086 C2082 1.427 . S
N2086 C2083 1.384 . S
N2087 C2079 1.427 . S
N2087 C2085 1.384 . S
H2088 C2094 0.930 . S
H2089 C2098 0.930 . S
H2090 C2103 0.929 . S
H2091 C2101 0.929 . S
H2092 C2096 0.929 . S
H2093 C2102 0.929 . S
C2094 H2088 0.930 . S
C2094 C2095 1.367 . S
C2094 C2102 1.378 . S
C2095 C2094 1.367 . S
C2095 C2103 1.433 . S
C2096 H2092 0.929 . S
C2096 C2098 1.378 . S
C2096 C2100 1.350 . S
C2097 C2100 1.463 . S
C2097 C2102 1.350 . S
C2097 N2105 1.427 . S
C2098 H2089 0.930 . S
C2098 C2096 1.378 . S
C2098 C2099 1.367 . S
C2099 C2098 1.367 . S
C2099 C2101 1.433 . S
C2100 C2096 1.350 . S
C2100 C2097 1.463 . S
C2100 N2104 1.427 . S
C2101 H2091 0.929 . S
C2101 C2099 1.433 . S
C2101 N2104 1.384 . S
C2102 H2093 0.929 . S
C2102 C2094 1.378 . S
C2102 C2097 1.350 . S
C2103 H2090 0.929 . S
C2103 C2095 1.433 . S
C2103 N2105 1.384 . S
N2104 C2100 1.427 . S
N2104 C2101 1.384 . S
N2105 C2097 1.427 . S
N2105 C2103 1.384 . S
H2106 C2112 0.930 . S
H2107 C2116 0.930 . S
H2108 C2121 0.929 . S
H2109 C2119 0.929 . S
H2110 C2114 0.929 . S
H2111 C2120 0.929 . S
C2112 H2106 0.930 . S
C2112 C2113 1.367 . S
C2112 C2120 1.378 . S
C2113 C2112 1.367 . S
C2113 C2121 1.433 . S
C2114 H2110 0.929 . S
C2114 C2116 1.378 . S
C2114 C2118 1.350 . S
C2115 C2118 1.463 . S
C2115 C2120 1.350 . S
C2115 N2123 1.427 . S
C2116 H2107 0.930 . S
C2116 C2114 1.378 . S
C2116 C2117 1.367 . S
C2117 C2116 1.367 . S
C2117 C2119 1.433 . S
C2118 C2114 1.350 . S
C2118 C2115 1.463 . S
C2118 N2122 1.427 . S
C2119 H2109 0.929 . S
C2119 C2117 1.433 . S
C2119 N2122 1.384 . S
C2120 H2111 0.929 . S
C2120 C2112 1.378 . S
C2120 C2115 1.350 . S
C2121 H2108 0.929 . S
C2121 C2113 1.433 . S
C2121 N2123 1.384 . S
N2122 C2118 1.427 . S
N2122 C2119 1.384 . S
N2123 C2115 1.427 . S
N2123 C2121 1.384 . S
H2124 C2130 0.930 . S
H2125 C2134 0.930 . S
H2126 C2139 0.929 . S
H2127 C2137 0.929 . S
H2128 C2132 0.929 . S
H2129 C2138 0.929 . S
C2130 H2124 0.930 . S
C2130 C2131 1.367 . S
C2130 C2138 1.378 . S
C2131 C2130 1.367 . S
C2131 C2139 1.433 . S
C2132 H2128 0.929 . S
C2132 C2134 1.378 . S
C2132 C2136 1.350 . S
C2133 C2136 1.463 . S
C2133 C2138 1.350 . S
C2133 N2141 1.427 . S
C2134 H2125 0.930 . S
C2134 C2132 1.378 . S
C2134 C2135 1.367 . S
C2135 C2134 1.367 . S
C2135 C2137 1.433 . S
C2136 C2132 1.350 . S
C2136 C2133 1.463 . S
C2136 N2140 1.427 . S
C2137 H2127 0.929 . S
C2137 C2135 1.433 . S
C2137 N2140 1.384 . S
C2138 H2129 0.929 . S
C2138 C2130 1.378 . S
C2138 C2133 1.350 . S
C2139 H2126 0.929 . S
C2139 C2131 1.433 . S
C2139 N2141 1.384 . S
N2140 C2136 1.427 . S
N2140 C2137 1.384 . S
N2141 C2133 1.427 . S
N2141 C2139 1.384 . S
H2142 C2148 0.899 1_655 S
H2143 C2152 0.930 . S
H2144 C2157 0.929 . S
H2145 C2155 0.929 . S
H2146 C2150 0.929 . S
H2147 C2156 0.929 . S
C2148 H2142 0.899 1_455 S
C2148 C2149 1.387 . S
C2148 C2156 1.392 . S
C2149 C2148 1.387 . S
C2149 C2157 1.433 . S
C2150 H2146 0.929 . S
C2150 C2152 1.378 . S
C2150 C2154 1.350 . S
C2151 C2154 1.463 . S
C2151 C2156 1.350 . S
C2151 N2159 1.427 . S
C2152 H2143 0.930 . S
C2152 C2150 1.378 . S
C2152 C2153 1.367 . S
C2153 C2152 1.367 . S
C2153 C2155 1.433 . S
C2154 C2150 1.350 . S
C2154 C2151 1.463 . S
C2154 N2158 1.427 . S
C2155 H2145 0.929 . S
C2155 C2153 1.433 . S
C2155 N2158 1.384 . S
C2156 H2147 0.929 . S
C2156 C2148 1.392 . S
C2156 C2151 1.350 . S
C2157 H2144 0.929 . S
C2157 C2149 1.433 . S
C2157 N2159 1.384 . S
N2158 C2154 1.427 . S
N2158 C2155 1.384 . S
N2159 C2151 1.427 . S
N2159 C2157 1.384 . S
H2160 C2166 0.930 . S
H2161 C2170 0.930 . S
H2162 C2175 0.929 . S
H2163 C2173 0.929 . S
H2164 C2168 0.929 . S
H2165 C2174 0.929 . S
C2166 H2160 0.930 . S
C2166 C2167 1.367 . S
C2166 C2174 1.378 . S
C2167 C2166 1.367 . S
C2167 C2175 1.433 . S
C2168 H2164 0.929 . S
C2168 C2170 1.378 . S
C2168 C2172 1.350 . S
C2169 C2172 1.463 . S
C2169 C2174 1.350 . S
C2169 N2177 1.427 . S
C2170 H2161 0.930 . S
C2170 C2168 1.378 . S
C2170 C2171 1.367 . S
C2171 C2170 1.367 . S
C2171 C2173 1.433 . S
C2172 C2168 1.350 . S
C2172 C2169 1.463 . S
C2172 N2176 1.427 . S
C2173 H2163 0.929 . S
C2173 C2171 1.433 . S
C2173 N2176 1.384 . S
C2174 H2165 0.929 . S
C2174 C2166 1.378 . S
C2174 C2169 1.350 . S
C2175 H2162 0.929 . S
C2175 C2167 1.433 . S
C2175 N2177 1.384 . S
N2176 C2172 1.427 . S
N2176 C2173 1.384 . S
N2177 C2169 1.427 . S
N2177 C2175 1.384 . S
H2178 C2184 0.930 . S
H2179 C2188 0.930 . S
H2180 C2193 0.929 . S
H2181 C2191 0.929 . S
H2182 C2186 0.929 . S
H2183 C2192 0.929 . S
C2184 H2178 0.930 . S
C2184 C2185 1.367 . S
C2184 C2192 1.378 . S
C2185 C2184 1.367 . S
C2185 C2193 1.433 . S
C2186 H2182 0.929 . S
C2186 C2188 1.378 . S
C2186 C2190 1.350 . S
C2187 C2190 1.463 . S
C2187 C2192 1.350 . S
C2187 N2195 1.427 . S
C2188 H2179 0.930 . S
C2188 C2186 1.378 . S
C2188 C2189 1.367 . S
C2189 C2188 1.367 . S
C2189 C2191 1.433 . S
C2190 C2186 1.350 . S
C2190 C2187 1.463 . S
C2190 N2194 1.427 . S
C2191 H2181 0.929 . S
C2191 C2189 1.433 . S
C2191 N2194 1.384 . S
C2192 H2183 0.929 . S
C2192 C2184 1.378 . S
C2192 C2187 1.350 . S
C2193 H2180 0.929 . S
C2193 C2185 1.433 . S
C2193 N2195 1.384 . S
N2194 C2190 1.427 . S
N2194 C2191 1.384 . S
N2195 C2187 1.427 . S
N2195 C2193 1.384 . S
H2196 C2202 0.930 . S
H2197 C2206 0.930 . S
H2198 C2211 0.929 . S
H2199 C2209 0.929 . S
H2200 C2204 0.929 . S
H2201 C2210 0.929 . S
C2202 H2196 0.930 . S
C2202 C2203 1.367 1_545 S
C2202 C2210 1.378 . S
C2203 C2202 1.367 1_565 S
C2203 C2211 1.433 . S
C2204 H2200 0.929 . S
C2204 C2206 1.378 . S
C2204 C2208 1.351 . S
C2205 C2208 1.463 . S
C2205 C2210 1.350 1_565 S
C2205 N2213 1.427 . S
C2206 H2197 0.930 . S
C2206 C2204 1.378 . S
C2206 C2207 1.367 1_565 S
C2207 C2206 1.367 1_545 S
C2207 C2209 1.433 . S
C2208 C2204 1.351 . S
C2208 C2205 1.463 . S
C2208 N2212 1.426 1_565 S
C2209 H2199 0.929 . S
C2209 C2207 1.433 . S
C2209 N2212 1.384 . S
C2210 H2201 0.929 . S
C2210 C2202 1.378 . S
C2210 C2205 1.350 1_545 S
C2211 H2198 0.929 . S
C2211 C2203 1.433 . S
C2211 N2213 1.384 . S
N2212 C2208 1.426 1_545 S
N2212 C2209 1.384 . S
N2213 C2205 1.427 . S
N2213 C2211 1.384 . S
H2214 C2220 0.930 . S
H2215 C2224 0.930 . S
H2216 C2229 0.929 . S
H2217 C2227 0.929 . S
H2218 C2222 0.929 . S
H2219 C2228 0.929 . S
C2220 H2214 0.930 . S
C2220 C2221 1.367 1_565 S
C2220 C2228 1.378 . S
C2221 C2220 1.367 1_545 S
C2221 C2229 1.433 . S
C2222 H2218 0.929 . S
C2222 C2224 1.378 . S
C2222 C2226 1.350 . S
C2223 C2226 1.463 . S
C2223 C2228 1.350 1_545 S
C2223 N2231 1.427 . S
C2224 H2215 0.930 . S
C2224 C2222 1.378 . S
C2224 C2225 1.367 1_545 S
C2225 C2224 1.367 1_565 S
C2225 C2227 1.433 . S
C2226 C2222 1.350 . S
C2226 C2223 1.463 . S
C2226 N2230 1.427 1_545 S
C2227 H2217 0.929 . S
C2227 C2225 1.433 . S
C2227 N2230 1.384 . S
C2228 H2219 0.929 . S
C2228 C2220 1.378 . S
C2228 C2223 1.350 1_565 S
C2229 H2216 0.929 . S
C2229 C2221 1.433 . S
C2229 N2231 1.384 . S
N2230 C2226 1.427 1_565 S
N2230 C2227 1.384 . S
N2231 C2223 1.427 . S
N2231 C2229 1.384 . S
H2232 C2238 0.930 . S
H2233 C2242 0.930 . S
H2234 C2247 0.929 . S
H2235 C2245 0.929 . S
H2236 C2240 0.929 . S
H2237 C2246 0.929 . S
C2238 H2232 0.930 . S
C2238 C2239 1.367 . S
C2238 C2246 1.378 . S
C2239 C2238 1.367 . S
C2239 C2247 1.433 . S
C2240 H2236 0.929 . S
C2240 C2242 1.378 . S
C2240 C2244 1.350 . S
C2241 C2244 1.463 . S
C2241 C2246 1.350 . S
C2241 N2249 1.427 . S
C2242 H2233 0.930 . S
C2242 C2240 1.378 . S
C2242 C2243 1.367 . S
C2243 C2242 1.367 . S
C2243 C2245 1.433 . S
C2244 C2240 1.350 . S
C2244 C2241 1.463 . S
C2244 N2248 1.427 . S
C2245 H2235 0.929 . S
C2245 C2243 1.433 . S
C2245 N2248 1.384 . S
C2246 H2237 0.929 . S
C2246 C2238 1.378 . S
C2246 C2241 1.350 . S
C2247 H2234 0.929 . S
C2247 C2239 1.433 . S
C2247 N2249 1.384 . S
N2248 C2244 1.427 . S
N2248 C2245 1.384 . S
N2249 C2241 1.427 . S
N2249 C2247 1.384 . S
H2250 C2256 0.930 . S
H2251 C2260 0.930 . S
H2252 C2265 0.929 . S
H2253 C2263 0.929 . S
H2254 C2258 0.929 . S
H2255 C2264 0.929 . S
C2256 H2250 0.930 . S
C2256 C2257 1.367 1_556 S
C2256 C2264 1.378 . S
C2257 C2256 1.367 1_554 S
C2257 C2265 1.433 . S
C2258 H2254 0.929 . S
C2258 C2260 1.378 . S
C2258 C2262 1.350 . S
C2259 C2262 1.463 . S
C2259 C2264 1.350 1_554 S
C2259 N2267 1.427 . S
C2260 H2251 0.930 . S
C2260 C2258 1.378 . S
C2260 C2261 1.367 1_554 S
C2261 C2260 1.367 1_556 S
C2261 C2263 1.433 . S
C2262 C2258 1.350 . S
C2262 C2259 1.463 . S
C2262 N2266 1.427 1_554 S
C2263 H2253 0.929 . S
C2263 C2261 1.433 . S
C2263 N2266 1.384 . S
C2264 H2255 0.929 . S
C2264 C2256 1.378 . S
C2264 C2259 1.350 1_556 S
C2265 H2252 0.929 . S
C2265 C2257 1.433 . S
C2265 N2267 1.384 . S
N2266 C2262 1.427 1_556 S
N2266 C2263 1.384 . S
N2267 C2259 1.427 . S
N2267 C2265 1.384 . S
H2268 C2274 0.930 . S
H2269 C2278 0.930 . S
H2270 C2283 0.929 . S
H2271 C2281 0.929 . S
H2272 C2276 0.929 . S
H2273 C2282 0.929 . S
C2274 H2268 0.930 . S
C2274 C2275 1.367 . S
C2274 C2282 1.378 . S
C2275 C2274 1.367 . S
C2275 C2283 1.433 . S
C2276 H2272 0.929 . S
C2276 C2278 1.378 . S
C2276 C2280 1.350 . S
C2277 C2280 1.463 . S
C2277 C2282 1.350 . S
C2277 N2285 1.427 . S
C2278 H2269 0.930 . S
C2278 C2276 1.378 . S
C2278 C2279 1.367 . S
C2279 C2278 1.367 . S
C2279 C2281 1.433 . S
C2280 C2276 1.350 . S
C2280 C2277 1.463 . S
C2280 N2284 1.427 . S
C2281 H2271 0.929 . S
C2281 C2279 1.433 . S
C2281 N2284 1.384 . S
C2282 H2273 0.929 . S
C2282 C2274 1.378 . S
C2282 C2277 1.350 . S
C2283 H2270 0.929 . S
C2283 C2275 1.433 . S
C2283 N2285 1.384 . S
N2284 C2280 1.427 . S
N2284 C2281 1.384 . S
N2285 C2277 1.427 . S
N2285 C2283 1.384 . S
H2286 C2292 0.930 . S
H2287 C2296 0.930 . S
H2288 C2301 0.929 . S
H2289 C2299 0.929 . S
H2290 C2294 0.929 . S
H2291 C2300 0.929 . S
C2292 H2286 0.930 . S
C2292 C2293 1.367 . S
C2292 C2300 1.378 . S
C2293 C2292 1.367 . S
C2293 C2301 1.433 . S
C2294 H2290 0.929 . S
C2294 C2296 1.378 . S
C2294 C2298 1.355 . S
C2295 C2298 1.459 1_556 S
C2295 C2300 1.350 . S
C2295 N2303 1.430 . S
C2296 H2287 0.930 . S
C2296 C2294 1.378 . S
C2296 C2297 1.367 . S
C2297 C2296 1.367 . S
C2297 C2299 1.433 . S
C2298 C2294 1.355 . S
C2298 C2295 1.459 1_554 S
C2298 N2302 1.426 1_554 S
C2299 H2289 0.929 . S
C2299 C2297 1.433 . S
C2299 N2302 1.384 1_554 S
C2300 H2291 0.929 . S
C2300 C2292 1.378 . S
C2300 C2295 1.350 . S
C2301 H2288 0.929 . S
C2301 C2293 1.433 . S
C2301 N2303 1.390 . S
N2302 C2298 1.426 1_556 S
N2302 C2299 1.384 1_556 S
N2303 C2295 1.430 . S
N2303 C2301 1.390 . S
H2304 C2310 0.930 . S
H2305 C2314 0.930 . S
H2306 C2319 0.929 . S
H2307 C2317 0.929 . S
H2308 C2312 0.929 . S
H2309 C2318 0.929 . S
C2310 H2304 0.930 . S
C2310 C2311 1.367 . S
C2310 C2318 1.378 . S
C2311 C2310 1.367 . S
C2311 C2319 1.433 . S
C2312 H2308 0.929 . S
C2312 C2314 1.378 . S
C2312 C2316 1.350 . S
C2313 C2316 1.463 . S
C2313 C2318 1.350 . S
C2313 N2321 1.427 . S
C2314 H2305 0.930 . S
C2314 C2312 1.378 . S
C2314 C2315 1.367 . S
C2315 C2314 1.367 . S
C2315 C2317 1.433 . S
C2316 C2312 1.350 . S
C2316 C2313 1.463 . S
C2316 N2320 1.427 . S
C2317 H2307 0.929 . S
C2317 C2315 1.433 . S
C2317 N2320 1.384 . S
C2318 H2309 0.929 . S
C2318 C2310 1.378 . S
C2318 C2313 1.350 . S
C2319 H2306 0.929 . S
C2319 C2311 1.433 . S
C2319 N2321 1.384 . S
N2320 C2316 1.427 . S
N2320 C2317 1.384 . S
N2321 C2313 1.427 . S
N2321 C2319 1.384 . S
H2322 C2328 0.930 . S
H2323 C2332 0.934 . S
H2324 C2337 0.929 . S
H2325 C2335 0.933 . S
H2326 C2330 0.929 . S
H2327 C2336 0.929 . S
C2328 H2322 0.930 . S
C2328 C2329 1.367 . S
C2328 C2336 1.378 . S
C2329 C2328 1.367 . S
C2329 C2337 1.433 . S
C2330 H2326 0.929 . S
C2330 C2332 1.374 1_455 S
C2330 C2334 1.350 . S
C2331 C2334 1.463 . S
C2331 C2336 1.350 . S
C2331 N2339 1.427 . S
C2332 H2323 0.934 . S
C2332 C2330 1.374 1_655 S
C2332 C2333 1.371 . S
C2333 C2332 1.371 . S
C2333 C2335 1.435 . S
C2334 C2330 1.350 . S
C2334 C2331 1.463 . S
C2334 N2338 1.427 . S
C2335 H2325 0.933 . S
C2335 C2333 1.435 . S
C2335 N2338 1.380 1_655 S
C2336 H2327 0.929 . S
C2336 C2328 1.378 . S
C2336 C2331 1.350 . S
C2337 H2324 0.929 . S
C2337 C2329 1.433 . S
C2337 N2339 1.384 . S
N2338 C2334 1.427 . S
N2338 C2335 1.380 1_455 S
N2339 C2331 1.427 . S
N2339 C2337 1.384 . S
H2340 C2346 0.930 . S
H2341 C2350 0.930 . S
H2342 C2355 0.929 . S
H2343 C2353 0.929 . S
H2344 C2348 0.929 . S
H2345 C2354 0.929 . S
C2346 H2340 0.930 . S
C2346 C2347 1.367 . S
C2346 C2354 1.378 . S
C2347 C2346 1.367 . S
C2347 C2355 1.433 . S
C2348 H2344 0.929 . S
C2348 C2350 1.378 . S
C2348 C2352 1.350 . S
C2349 C2352 1.463 . S
C2349 C2354 1.350 . S
C2349 N2357 1.427 . S
C2350 H2341 0.930 . S
C2350 C2348 1.378 . S
C2350 C2351 1.367 . S
C2351 C2350 1.367 . S
C2351 C2353 1.433 . S
C2352 C2348 1.350 . S
C2352 C2349 1.463 . S
C2352 N2356 1.427 . S
C2353 H2343 0.929 . S
C2353 C2351 1.433 . S
C2353 N2356 1.384 . S
C2354 H2345 0.929 . S
C2354 C2346 1.378 . S
C2354 C2349 1.350 . S
C2355 H2342 0.929 . S
C2355 C2347 1.433 . S
C2355 N2357 1.384 . S
N2356 C2352 1.427 . S
N2356 C2353 1.384 . S
N2357 C2349 1.427 . S
N2357 C2355 1.384 . S
H2358 C2364 0.930 . S
H2359 C2368 0.930 . S
H2360 C2373 0.929 . S
H2361 C2371 0.929 . S
H2362 C2366 0.928 . S
H2363 C2372 0.929 . S
C2364 H2358 0.930 . S
C2364 C2365 1.367 . S
C2364 C2372 1.378 . S
C2365 C2364 1.367 . S
C2365 C2373 1.433 . S
C2366 H2362 0.928 . S
C2366 C2368 1.378 . S
C2366 C2370 1.351 . S
C2367 C2370 1.460 1_655 S
C2367 C2372 1.350 . S
C2367 N2375 1.427 . S
C2368 H2359 0.930 . S
C2368 C2366 1.378 . S
C2368 C2369 1.367 . S
C2369 C2368 1.367 . S
C2369 C2371 1.433 . S
C2370 C2366 1.351 . S
C2370 C2367 1.460 1_455 S
C2370 N2374 1.429 . S
C2371 H2361 0.929 . S
C2371 C2369 1.433 . S
C2371 N2374 1.384 . S
C2372 H2363 0.929 . S
C2372 C2364 1.378 . S
C2372 C2367 1.350 . S
C2373 H2360 0.929 . S
C2373 C2365 1.433 . S
C2373 N2375 1.384 . S
N2374 C2370 1.429 . S
N2374 C2371 1.384 . S
N2375 C2367 1.427 . S
N2375 C2373 1.384 . S
H2376 C2382 0.930 . S
H2377 C2386 0.930 . S
H2378 C2391 0.929 . S
H2379 C2389 0.929 . S
H2380 C2384 0.929 . S
H2381 C2390 0.929 . S
C2382 H2376 0.930 . S
C2382 C2383 1.367 . S
C2382 C2390 1.378 . S
C2383 C2382 1.367 . S
C2383 C2391 1.433 . S
C2384 H2380 0.929 . S
C2384 C2386 1.378 . S
C2384 C2388 1.350 . S
C2385 C2388 1.463 . S
C2385 C2390 1.350 . S
C2385 N2393 1.427 . S
C2386 H2377 0.930 . S
C2386 C2384 1.378 . S
C2386 C2387 1.367 . S
C2387 C2386 1.367 . S
C2387 C2389 1.433 . S
C2388 C2384 1.350 . S
C2388 C2385 1.463 . S
C2388 N2392 1.427 . S
C2389 H2379 0.929 . S
C2389 C2387 1.433 . S
C2389 N2392 1.384 . S
C2390 H2381 0.929 . S
C2390 C2382 1.378 . S
C2390 C2385 1.350 . S
C2391 H2378 0.929 . S
C2391 C2383 1.433 . S
C2391 N2393 1.384 . S
N2392 C2388 1.427 . S
N2392 C2389 1.384 . S
N2393 C2385 1.427 . S
N2393 C2391 1.384 . S
H2394 C2400 0.930 . S
H2395 C2404 0.930 . S
H2396 C2409 0.929 . S
H2397 C2407 0.929 . S
H2398 C2402 0.929 . S
H2399 C2408 0.929 . S
C2400 H2394 0.930 . S
C2400 C2401 1.367 . S
C2400 C2408 1.378 . S
C2401 C2400 1.367 . S
C2401 C2409 1.433 . S
C2402 H2398 0.929 . S
C2402 C2404 1.378 . S
C2402 C2406 1.350 . S
C2403 C2406 1.463 . S
C2403 C2408 1.350 . S
C2403 N2411 1.427 . S
C2404 H2395 0.930 . S
C2404 C2402 1.378 . S
C2404 C2405 1.367 . S
C2405 C2404 1.367 . S
C2405 C2407 1.433 . S
C2406 C2402 1.350 . S
C2406 C2403 1.463 . S
C2406 N2410 1.427 . S
C2407 H2397 0.929 . S
C2407 C2405 1.433 . S
C2407 N2410 1.384 . S
C2408 H2399 0.929 . S
C2408 C2400 1.378 . S
C2408 C2403 1.350 . S
C2409 H2396 0.929 . S
C2409 C2401 1.433 . S
C2409 N2411 1.384 . S
N2410 C2406 1.427 . S
N2410 C2407 1.384 . S
N2411 C2403 1.427 . S
N2411 C2409 1.384 . S
H2412 C2418 0.930 . S
H2413 C2422 0.936 . S
H2414 C2427 0.929 . S
H2415 C2425 0.929 . S
H2416 C2420 0.939 . S
H2417 C2426 0.929 1_565 S
C2418 H2412 0.930 . S
C2418 C2419 1.367 . S
C2418 C2426 1.378 . S
C2419 C2418 1.367 . S
C2419 C2427 1.433 . S
C2420 H2416 0.939 . S
C2420 C2422 1.371 1_545 S
C2420 C2424 1.348 1_545 S
C2421 C2424 1.461 1_545 S
C2421 C2426 1.350 . S
C2421 N2429 1.427 . S
C2422 H2413 0.936 . S
C2422 C2420 1.371 1_565 S
C2422 C2423 1.367 . S
C2423 C2422 1.367 . S
C2423 C2425 1.433 . S
C2424 C2420 1.348 1_565 S
C2424 C2421 1.461 1_565 S
C2424 N2428 1.430 . S
C2425 H2415 0.929 . S
C2425 C2423 1.433 . S
C2425 N2428 1.384 . S
C2426 H2417 0.929 1_545 S
C2426 C2418 1.378 . S
C2426 C2421 1.350 . S
C2427 H2414 0.929 . S
C2427 C2419 1.433 . S
C2427 N2429 1.384 . S
N2428 C2424 1.430 . S
N2428 C2425 1.384 . S
N2429 C2421 1.427 . S
N2429 C2427 1.384 . S
H2430 C2436 0.921 1_545 S
H2431 C2440 0.930 . S
H2432 C2445 0.929 . S
H2433 C2443 0.929 . S
H2434 C2438 0.929 . S
H2435 C2444 0.925 1_545 S
C2436 H2430 0.921 1_565 S
C2436 C2437 1.367 . S
C2436 C2444 1.379 . S
C2437 C2436 1.367 . S
C2437 C2445 1.433 . S
C2438 H2434 0.929 . S
C2438 C2440 1.378 . S
C2438 C2442 1.350 . S
C2439 C2442 1.463 . S
C2439 C2444 1.353 . S
C2439 N2447 1.427 . S
C2440 H2431 0.930 . S
C2440 C2438 1.378 . S
C2440 C2441 1.367 1_565 S
C2441 C2440 1.367 1_545 S
C2441 C2443 1.433 . S
C2442 C2438 1.350 . S
C2442 C2439 1.463 . S
C2442 N2446 1.427 1_565 S
C2443 H2433 0.929 . S
C2443 C2441 1.433 . S
C2443 N2446 1.384 . S
C2444 H2435 0.925 1_565 S
C2444 C2436 1.379 . S
C2444 C2439 1.353 . S
C2445 H2432 0.929 . S
C2445 C2437 1.433 . S
C2445 N2447 1.384 . S
N2446 C2442 1.427 1_545 S
N2446 C2443 1.384 . S
N2447 C2439 1.427 . S
N2447 C2445 1.384 . S
H2448 C2454 0.930 . S
H2449 C2458 0.930 . S
H2450 C2463 0.929 . S
H2451 C2461 0.929 . S
H2452 C2456 0.929 . S
H2453 C2462 0.929 . S
C2454 H2448 0.930 . S
C2454 C2455 1.367 . S
C2454 C2462 1.378 . S
C2455 C2454 1.367 . S
C2455 C2463 1.433 . S
C2456 H2452 0.929 . S
C2456 C2458 1.378 . S
C2456 C2460 1.350 . S
C2457 C2460 1.463 . S
C2457 C2462 1.350 . S
C2457 N2465 1.427 . S
C2458 H2449 0.930 . S
C2458 C2456 1.378 . S
C2458 C2459 1.367 . S
C2459 C2458 1.367 . S
C2459 C2461 1.433 . S
C2460 C2456 1.350 . S
C2460 C2457 1.463 . S
C2460 N2464 1.427 . S
C2461 H2451 0.929 . S
C2461 C2459 1.433 . S
C2461 N2464 1.384 . S
C2462 H2453 0.929 . S
C2462 C2454 1.378 . S
C2462 C2457 1.350 . S
C2463 H2450 0.929 . S
C2463 C2455 1.433 . S
C2463 N2465 1.384 . S
N2464 C2460 1.427 . S
N2464 C2461 1.384 . S
N2465 C2457 1.427 . S
N2465 C2463 1.384 . S
H2466 C2472 0.930 . S
H2467 C2476 0.930 . S
H2468 C2481 0.926 1_554 S
H2469 C2479 0.929 . S
H2470 C2474 0.929 . S
H2471 C2480 0.929 . S
C2472 H2466 0.930 . S
C2472 C2473 1.367 . S
C2472 C2480 1.378 . S
C2473 C2472 1.367 . S
C2473 C2481 1.437 . S
C2474 H2470 0.929 . S
C2474 C2476 1.378 . S
C2474 C2478 1.350 1_554 S
C2475 C2478 1.463 . S
C2475 C2480 1.350 . S
C2475 N2483 1.427 1_556 S
C2476 H2467 0.930 . S
C2476 C2474 1.378 . S
C2476 C2477 1.367 . S
C2477 C2476 1.367 . S
C2477 C2479 1.433 1_554 S
C2478 C2474 1.350 1_556 S
C2478 C2475 1.463 . S
C2478 N2482 1.427 . S
C2479 H2469 0.929 . S
C2479 C2477 1.433 1_556 S
C2479 N2482 1.384 . S
C2480 H2471 0.929 . S
C2480 C2472 1.378 . S
C2480 C2475 1.350 . S
C2481 H2468 0.926 1_556 S
C2481 C2473 1.437 . S
C2481 N2483 1.383 1_556 S
N2482 C2478 1.427 . S
N2482 C2479 1.384 . S
N2483 C2475 1.427 1_554 S
N2483 C2481 1.383 1_554 S
H2484 C2490 0.930 . S
H2485 C2494 0.930 . S
H2486 C2499 0.929 . S
H2487 C2497 0.929 . S
H2488 C2492 0.929 . S
H2489 C2498 0.929 . S
C2490 H2484 0.930 . S
C2490 C2491 1.367 . S
C2490 C2498 1.378 . S
C2491 C2490 1.367 . S
C2491 C2499 1.433 . S
C2492 H2488 0.929 . S
C2492 C2494 1.378 . S
C2492 C2496 1.350 . S
C2493 C2496 1.463 . S
C2493 C2498 1.350 . S
C2493 N2501 1.427 . S
C2494 H2485 0.930 . S
C2494 C2492 1.378 . S
C2494 C2495 1.367 . S
C2495 C2494 1.367 . S
C2495 C2497 1.433 . S
C2496 C2492 1.350 . S
C2496 C2493 1.463 . S
C2496 N2500 1.427 . S
C2497 H2487 0.929 . S
C2497 C2495 1.433 . S
C2497 N2500 1.384 . S
C2498 H2489 0.929 . S
C2498 C2490 1.378 . S
C2498 C2493 1.350 . S
C2499 H2486 0.929 . S
C2499 C2491 1.433 . S
C2499 N2501 1.384 . S
N2500 C2496 1.427 . S
N2500 C2497 1.384 . S
N2501 C2493 1.427 . S
N2501 C2499 1.384 . S
H2502 C2508 0.930 . S
H2503 C2512 0.930 . S
H2504 C2517 0.929 . S
H2505 C2515 0.929 . S
H2506 C2510 0.929 . S
H2507 C2516 0.929 . S
C2508 H2502 0.930 . S
C2508 C2509 1.367 . S
C2508 C2516 1.378 . S
C2509 C2508 1.367 . S
C2509 C2517 1.433 1_554 S
C2510 H2506 0.929 . S
C2510 C2512 1.378 . S
C2510 C2514 1.370 . S
C2511 C2514 1.456 1_554 S
C2511 C2516 1.350 . S
C2511 N2519 1.427 1_554 S
C2512 H2503 0.930 . S
C2512 C2510 1.378 . S
C2512 C2513 1.367 . S
C2513 C2512 1.367 . S
C2513 C2515 1.433 1_556 S
C2514 C2510 1.370 . S
C2514 C2511 1.456 1_556 S
C2514 N2518 1.414 1_556 S
C2515 H2505 0.929 . S
C2515 C2513 1.433 1_554 S
C2515 N2518 1.384 . S
C2516 H2507 0.929 . S
C2516 C2508 1.378 . S
C2516 C2511 1.350 . S
C2517 H2504 0.929 . S
C2517 C2509 1.433 1_556 S
C2517 N2519 1.384 . S
N2518 C2514 1.414 1_554 S
N2518 C2515 1.384 . S
N2519 C2511 1.427 1_556 S
N2519 C2517 1.384 . S
H2520 C2526 0.930 . S
H2521 C2530 0.930 . S
H2522 C2535 0.929 . S
H2523 C2533 0.929 . S
H2524 C2528 0.929 . S
H2525 C2534 0.929 . S
C2526 H2520 0.930 . S
C2526 C2527 1.367 . S
C2526 C2534 1.378 . S
C2527 C2526 1.367 . S
C2527 C2535 1.433 . S
C2528 H2524 0.929 . S
C2528 C2530 1.378 . S
C2528 C2532 1.350 . S
C2529 C2532 1.463 . S
C2529 C2534 1.350 . S
C2529 N2537 1.427 . S
C2530 H2521 0.930 . S
C2530 C2528 1.378 . S
C2530 C2531 1.367 . S
C2531 C2530 1.367 . S
C2531 C2533 1.433 . S
C2532 C2528 1.350 . S
C2532 C2529 1.463 . S
C2532 N2536 1.427 . S
C2533 H2523 0.929 . S
C2533 C2531 1.433 . S
C2533 N2536 1.384 . S
C2534 H2525 0.929 . S
C2534 C2526 1.378 . S
C2534 C2529 1.350 . S
C2535 H2522 0.929 . S
C2535 C2527 1.433 . S
C2535 N2537 1.384 . S
N2536 C2532 1.427 . S
N2536 C2533 1.384 . S
N2537 C2529 1.427 . S
N2537 C2535 1.384 . S
H2538 C2544 0.930 . S
H2539 C2548 0.930 . S
H2540 C2553 0.929 . S
H2541 C2551 0.929 . S
H2542 C2546 0.929 . S
H2543 C2552 0.929 . S
C2544 H2538 0.930 . S
C2544 C2545 1.367 1_455 S
C2544 C2552 1.378 . S
C2545 C2544 1.367 1_655 S
C2545 C2553 1.433 . S
C2546 H2542 0.929 . S
C2546 C2548 1.378 . S
C2546 C2550 1.350 . S
C2547 C2550 1.463 . S
C2547 C2552 1.350 1_655 S
C2547 N2555 1.427 . S
C2548 H2539 0.930 . S
C2548 C2546 1.378 . S
C2548 C2549 1.367 1_655 S
C2549 C2548 1.367 1_455 S
C2549 C2551 1.433 . S
C2550 C2546 1.350 . S
C2550 C2547 1.463 . S
C2550 N2554 1.427 1_655 S
C2551 H2541 0.929 . S
C2551 C2549 1.433 . S
C2551 N2554 1.384 . S
C2552 H2543 0.929 . S
C2552 C2544 1.378 . S
C2552 C2547 1.350 1_455 S
C2553 H2540 0.929 . S
C2553 C2545 1.433 . S
C2553 N2555 1.384 . S
N2554 C2550 1.427 1_455 S
N2554 C2551 1.384 . S
N2555 C2547 1.427 . S
N2555 C2553 1.384 . S
H2556 C2562 0.930 . S
H2557 C2566 0.930 . S
H2558 C2571 0.929 . S
H2559 C2569 0.929 . S
H2560 C2564 0.929 . S
H2561 C2570 0.929 . S
C2562 H2556 0.930 . S
C2562 C2563 1.367 . S
C2562 C2570 1.378 . S
C2563 C2562 1.367 . S
C2563 C2571 1.433 . S
C2564 H2560 0.929 . S
C2564 C2566 1.378 . S
C2564 C2568 1.350 . S
C2565 C2568 1.463 . S
C2565 C2570 1.350 . S
C2565 N2573 1.427 . S
C2566 H2557 0.930 . S
C2566 C2564 1.378 . S
C2566 C2567 1.367 . S
C2567 C2566 1.367 . S
C2567 C2569 1.433 . S
C2568 C2564 1.350 . S
C2568 C2565 1.463 . S
C2568 N2572 1.427 . S
C2569 H2559 0.929 . S
C2569 C2567 1.433 . S
C2569 N2572 1.384 . S
C2570 H2561 0.929 . S
C2570 C2562 1.378 . S
C2570 C2565 1.350 . S
C2571 H2558 0.929 . S
C2571 C2563 1.433 . S
C2571 N2573 1.384 . S
N2572 C2568 1.427 . S
N2572 C2569 1.384 . S
N2573 C2565 1.427 . S
N2573 C2571 1.384 . S
H2574 C2580 0.930 . S
H2575 C2584 0.930 . S
H2576 C2589 0.929 . S
H2577 C2587 0.929 . S
H2578 C2582 0.929 . S
H2579 C2588 0.929 . S
C2580 H2574 0.930 . S
C2580 C2581 1.367 1_655 S
C2580 C2588 1.378 . S
C2581 C2580 1.367 1_455 S
C2581 C2589 1.433 . S
C2582 H2578 0.929 . S
C2582 C2584 1.378 . S
C2582 C2586 1.349 . S
C2583 C2586 1.462 . S
C2583 C2588 1.350 1_455 S
C2583 N2591 1.427 . S
C2584 H2575 0.930 . S
C2584 C2582 1.378 . S
C2584 C2585 1.367 1_455 S
C2585 C2584 1.367 1_655 S
C2585 C2587 1.433 . S
C2586 C2582 1.349 . S
C2586 C2583 1.462 . S
C2586 N2590 1.429 1_455 S
C2587 H2577 0.929 . S
C2587 C2585 1.433 . S
C2587 N2590 1.384 . S
C2588 H2579 0.929 . S
C2588 C2580 1.378 . S
C2588 C2583 1.350 1_655 S
C2589 H2576 0.929 . S
C2589 C2581 1.433 . S
C2589 N2591 1.384 . S
N2590 C2586 1.429 1_655 S
N2590 C2587 1.384 . S
N2591 C2583 1.427 . S
N2591 C2589 1.384 . S
H2592 C2598 0.930 . S
H2593 C2602 0.930 . S
H2594 C2607 0.929 . S
H2595 C2605 0.929 . S
H2596 C2600 0.929 . S
H2597 C2606 0.929 . S
C2598 H2592 0.930 . S
C2598 C2599 1.367 . S
C2598 C2606 1.378 . S
C2599 C2598 1.367 . S
C2599 C2607 1.433 . S
C2600 H2596 0.929 . S
C2600 C2602 1.378 . S
C2600 C2604 1.350 . S
C2601 C2604 1.463 . S
C2601 C2606 1.350 . S
C2601 N2609 1.427 . S
C2602 H2593 0.930 . S
C2602 C2600 1.378 . S
C2602 C2603 1.367 . S
C2603 C2602 1.367 . S
C2603 C2605 1.433 . S
C2604 C2600 1.350 . S
C2604 C2601 1.463 . S
C2604 N2608 1.427 . S
C2605 H2595 0.929 . S
C2605 C2603 1.433 . S
C2605 N2608 1.384 . S
C2606 H2597 0.929 . S
C2606 C2598 1.378 . S
C2606 C2601 1.350 . S
C2607 H2594 0.929 . S
C2607 C2599 1.433 . S
C2607 N2609 1.384 . S
N2608 C2604 1.427 . S
N2608 C2605 1.384 . S
N2609 C2601 1.427 . S
N2609 C2607 1.384 . S
H2610 C2616 0.930 . S
H2611 C2620 0.930 . S
H2612 C2625 0.929 . S
H2613 C2623 0.929 . S
H2614 C2618 0.929 . S
H2615 C2624 0.929 . S
C2616 H2610 0.930 . S
C2616 C2617 1.367 . S
C2616 C2624 1.378 . S
C2617 C2616 1.367 . S
C2617 C2625 1.433 . S
C2618 H2614 0.929 . S
C2618 C2620 1.378 . S
C2618 C2622 1.350 . S
C2619 C2622 1.463 . S
C2619 C2624 1.350 . S
C2619 N2627 1.427 . S
C2620 H2611 0.930 . S
C2620 C2618 1.378 . S
C2620 C2621 1.367 . S
C2621 C2620 1.367 . S
C2621 C2623 1.433 . S
C2622 C2618 1.350 . S
C2622 C2619 1.463 . S
C2622 N2626 1.427 . S
C2623 H2613 0.929 . S
C2623 C2621 1.433 . S
C2623 N2626 1.384 . S
C2624 H2615 0.929 . S
C2624 C2616 1.378 . S
C2624 C2619 1.350 . S
C2625 H2612 0.929 . S
C2625 C2617 1.433 . S
C2625 N2627 1.384 . S
N2626 C2622 1.427 . S
N2626 C2623 1.384 . S
N2627 C2619 1.427 . S
N2627 C2625 1.384 . S
H2628 C2634 0.930 1_565 S
H2629 C2638 0.930 . S
H2630 C2643 0.929 . S
H2631 C2641 0.929 . S
H2632 C2636 0.929 . S
H2633 C2642 0.952 . S
C2634 H2628 0.930 1_545 S
C2634 C2635 1.367 . S
C2634 C2642 1.378 . S
C2635 C2634 1.367 . S
C2635 C2643 1.433 . S
C2636 H2632 0.929 . S
C2636 C2638 1.378 . S
C2636 C2640 1.350 . S
C2637 C2640 1.463 . S
C2637 C2642 1.350 . S
C2637 N2645 1.427 . S
C2638 H2629 0.930 . S
C2638 C2636 1.378 . S
C2638 C2639 1.367 . S
C2639 C2638 1.367 . S
C2639 C2641 1.433 . S
C2640 C2636 1.350 . S
C2640 C2637 1.463 . S
C2640 N2644 1.427 . S
C2641 H2631 0.929 . S
C2641 C2639 1.433 . S
C2641 N2644 1.384 . S
C2642 H2633 0.952 . S
C2642 C2634 1.378 . S
C2642 C2637 1.350 . S
C2643 H2630 0.929 . S
C2643 C2635 1.433 . S
C2643 N2645 1.384 . S
N2644 C2640 1.427 . S
N2644 C2641 1.384 . S
N2645 C2637 1.427 . S
N2645 C2643 1.384 . S
H2646 C2652 0.930 . S
H2647 C2656 0.954 . S
H2648 C2661 0.929 . S
H2649 C2659 0.929 . S
H2650 C2654 0.929 . S
H2651 C2660 0.929 . S
C2652 H2646 0.930 . S
C2652 C2653 1.367 . S
C2652 C2660 1.378 . S
C2653 C2652 1.367 . S
C2653 C2661 1.433 1_545 S
C2654 H2650 0.929 . S
C2654 C2656 1.383 . S
C2654 C2658 1.350 1_565 S
C2655 C2658 1.463 . S
C2655 C2660 1.350 . S
C2655 N2663 1.427 1_545 S
C2656 H2647 0.954 . S
C2656 C2654 1.383 . S
C2656 C2657 1.339 1_565 S
C2657 C2656 1.339 1_545 S
C2657 C2659 1.433 . S
C2658 C2654 1.350 1_545 S
C2658 C2655 1.463 . S
C2658 N2662 1.427 . S
C2659 H2649 0.929 . S
C2659 C2657 1.433 . S
C2659 N2662 1.384 . S
C2660 H2651 0.929 . S
C2660 C2652 1.378 . S
C2660 C2655 1.350 . S
C2661 H2648 0.929 . S
C2661 C2653 1.433 1_565 S
C2661 N2663 1.384 . S
N2662 C2658 1.427 . S
N2662 C2659 1.384 . S
N2663 C2655 1.427 1_565 S
N2663 C2661 1.384 . S
H2664 C2670 0.930 . S
H2665 C2674 0.930 . S
H2666 C2679 0.929 . S
H2667 C2677 0.929 . S
H2668 C2672 0.929 . S
H2669 C2678 0.929 . S
C2670 H2664 0.930 . S
C2670 C2671 1.367 . S
C2670 C2678 1.378 . S
C2671 C2670 1.367 . S
C2671 C2679 1.433 . S
C2672 H2668 0.929 . S
C2672 C2674 1.378 . S
C2672 C2676 1.350 . S
C2673 C2676 1.463 . S
C2673 C2678 1.350 . S
C2673 N2681 1.427 . S
C2674 H2665 0.930 . S
C2674 C2672 1.378 . S
C2674 C2675 1.367 . S
C2675 C2674 1.367 . S
C2675 C2677 1.433 . S
C2676 C2672 1.350 . S
C2676 C2673 1.463 . S
C2676 N2680 1.427 . S
C2677 H2667 0.929 . S
C2677 C2675 1.433 . S
C2677 N2680 1.384 . S
C2678 H2669 0.929 . S
C2678 C2670 1.378 . S
C2678 C2673 1.350 . S
C2679 H2666 0.929 . S
C2679 C2671 1.433 . S
C2679 N2681 1.384 . S
N2680 C2676 1.427 . S
N2680 C2677 1.384 . S
N2681 C2673 1.427 . S
N2681 C2679 1.384 . S
H2682 C2688 0.930 . S
H2683 C2692 0.930 . S
H2684 C2697 0.929 . S
H2685 C2695 0.929 . S
H2686 C2690 0.929 . S
H2687 C2696 0.929 . S
C2688 H2682 0.930 . S
C2688 C2689 1.367 1_556 S
C2688 C2696 1.378 . S
C2689 C2688 1.367 1_554 S
C2689 C2697 1.433 . S
C2690 H2686 0.929 . S
C2690 C2692 1.378 . S
C2690 C2694 1.350 . S
C2691 C2694 1.463 . S
C2691 C2696 1.350 1_554 S
C2691 N2699 1.427 . S
C2692 H2683 0.930 . S
C2692 C2690 1.378 . S
C2692 C2693 1.367 . S
C2693 C2692 1.367 . S
C2693 C2695 1.433 1_554 S
C2694 C2690 1.350 . S
C2694 C2691 1.463 . S
C2694 N2698 1.427 1_554 S
C2695 H2685 0.929 . S
C2695 C2693 1.433 1_556 S
C2695 N2698 1.384 . S
C2696 H2687 0.929 . S
C2696 C2688 1.378 . S
C2696 C2691 1.350 1_556 S
C2697 H2684 0.929 . S
C2697 C2689 1.433 . S
C2697 N2699 1.384 . S
N2698 C2694 1.427 1_556 S
N2698 C2695 1.384 . S
N2699 C2691 1.427 . S
N2699 C2697 1.384 . S
H2700 C2706 0.930 . S
H2701 C2710 0.930 . S
H2702 C2715 0.929 . S
H2703 C2713 0.929 . S
H2704 C2708 0.929 . S
H2705 C2714 0.929 . S
C2706 H2700 0.930 . S
C2706 C2707 1.367 . S
C2706 C2714 1.378 . S
C2707 C2706 1.367 . S
C2707 C2715 1.433 . S
C2708 H2704 0.929 . S
C2708 C2710 1.378 . S
C2708 C2712 1.350 . S
C2709 C2712 1.463 . S
C2709 C2714 1.350 . S
C2709 N2717 1.427 . S
C2710 H2701 0.930 . S
C2710 C2708 1.378 . S
C2710 C2711 1.367 . S
C2711 C2710 1.367 . S
C2711 C2713 1.433 . S
C2712 C2708 1.350 . S
C2712 C2709 1.463 . S
C2712 N2716 1.427 . S
C2713 H2703 0.929 . S
C2713 C2711 1.433 . S
C2713 N2716 1.384 . S
C2714 H2705 0.929 . S
C2714 C2706 1.378 . S
C2714 C2709 1.350 . S
C2715 H2702 0.929 . S
C2715 C2707 1.433 . S
C2715 N2717 1.384 . S
N2716 C2712 1.427 . S
N2716 C2713 1.384 . S
N2717 C2709 1.427 . S
N2717 C2715 1.384 . S
H2718 C2724 0.930 . S
H2719 C2728 0.930 1_556 S
H2720 C2733 0.884 1_556 S
H2721 C2731 0.929 . S
H2722 C2726 0.929 1_556 S
H2723 C2732 0.929 . S
C2724 H2718 0.930 . S
C2724 C2725 1.367 . S
C2724 C2732 1.378 . S
C2725 C2724 1.367 . S
C2725 C2733 1.479 . S
C2726 H2722 0.929 1_554 S
C2726 C2728 1.378 . S
C2726 C2730 1.350 . S
C2727 C2730 1.463 . S
C2727 C2732 1.350 . S
C2727 N2735 1.427 . S
C2728 H2719 0.930 1_554 S
C2728 C2726 1.378 . S
C2728 C2729 1.367 . S
C2729 C2728 1.367 . S
C2729 C2731 1.433 . S
C2730 C2726 1.350 . S
C2730 C2727 1.463 . S
C2730 N2734 1.427 . S
C2731 H2721 0.929 . S
C2731 C2729 1.433 . S
C2731 N2734 1.384 . S
C2732 H2723 0.929 . S
C2732 C2724 1.378 . S
C2732 C2727 1.350 . S
C2733 H2720 0.884 1_554 S
C2733 C2725 1.479 . S
C2733 N2735 1.388 . S
N2734 C2730 1.427 . S
N2734 C2731 1.384 . S
N2735 C2727 1.427 . S
N2735 C2733 1.388 . S
H2736 C2742 0.930 . S
H2737 C2746 0.930 . S
H2738 C2751 0.929 . S
H2739 C2749 0.929 . S
H2740 C2744 0.929 . S
H2741 C2750 0.929 . S
C2742 H2736 0.930 . S
C2742 C2743 1.367 . S
C2742 C2750 1.378 . S
C2743 C2742 1.367 . S
C2743 C2751 1.433 . S
C2744 H2740 0.929 . S
C2744 C2746 1.378 . S
C2744 C2748 1.350 . S
C2745 C2748 1.463 . S
C2745 C2750 1.350 . S
C2745 N2753 1.427 . S
C2746 H2737 0.930 . S
C2746 C2744 1.378 . S
C2746 C2747 1.367 . S
C2747 C2746 1.367 . S
C2747 C2749 1.433 . S
C2748 C2744 1.350 . S
C2748 C2745 1.463 . S
C2748 N2752 1.427 . S
C2749 H2739 0.929 . S
C2749 C2747 1.433 . S
C2749 N2752 1.384 . S
C2750 H2741 0.929 . S
C2750 C2742 1.378 . S
C2750 C2745 1.350 . S
C2751 H2738 0.929 . S
C2751 C2743 1.433 . S
C2751 N2753 1.384 . S
N2752 C2748 1.427 . S
N2752 C2749 1.384 . S
N2753 C2745 1.427 . S
N2753 C2751 1.384 . S
H2754 C2760 0.930 . S
H2755 C2764 0.930 . S
H2756 C2769 0.929 . S
H2757 C2767 0.966 . S
H2758 C2762 0.929 . S
H2759 C2768 0.929 . S
C2760 H2754 0.930 . S
C2760 C2761 1.367 1_655 S
C2760 C2768 1.378 . S
C2761 C2760 1.367 1_455 S
C2761 C2769 1.433 . S
C2762 H2758 0.929 . S
C2762 C2764 1.378 . S
C2762 C2766 1.350 . S
C2763 C2766 1.463 . S
C2763 C2768 1.350 1_455 S
C2763 N2771 1.427 . S
C2764 H2755 0.930 . S
C2764 C2762 1.378 . S
C2764 C2765 1.367 . S
C2765 C2764 1.367 . S
C2765 C2767 1.390 1_455 S
C2766 C2762 1.350 . S
C2766 C2763 1.463 . S
C2766 N2770 1.427 1_455 S
C2767 H2757 0.966 . S
C2767 C2765 1.390 1_655 S
C2767 N2770 1.391 . S
C2768 H2759 0.929 . S
C2768 C2760 1.378 . S
C2768 C2763 1.350 1_655 S
C2769 H2756 0.929 . S
C2769 C2761 1.433 . S
C2769 N2771 1.384 . S
N2770 C2766 1.427 1_655 S
N2770 C2767 1.391 . S
N2771 C2763 1.427 . S
N2771 C2769 1.384 . S
H2772 C2778 0.930 . S
H2773 C2782 0.930 . S
H2774 C2787 0.929 . S
H2775 C2785 0.929 . S
H2776 C2780 0.929 . S
H2777 C2786 0.929 . S
C2778 H2772 0.930 . S
C2778 C2779 1.367 . S
C2778 C2786 1.378 . S
C2779 C2778 1.367 . S
C2779 C2787 1.433 . S
C2780 H2776 0.929 . S
C2780 C2782 1.378 . S
C2780 C2784 1.350 . S
C2781 C2784 1.463 . S
C2781 C2786 1.350 . S
C2781 N2789 1.427 . S
C2782 H2773 0.930 . S
C2782 C2780 1.378 . S
C2782 C2783 1.367 . S
C2783 C2782 1.367 . S
C2783 C2785 1.433 . S
C2784 C2780 1.350 . S
C2784 C2781 1.463 . S
C2784 N2788 1.427 . S
C2785 H2775 0.929 . S
C2785 C2783 1.433 . S
C2785 N2788 1.384 . S
C2786 H2777 0.929 . S
C2786 C2778 1.378 . S
C2786 C2781 1.350 . S
C2787 H2774 0.929 . S
C2787 C2779 1.433 . S
C2787 N2789 1.384 . S
N2788 C2784 1.427 . S
N2788 C2785 1.384 . S
N2789 C2781 1.427 . S
N2789 C2787 1.384 . S
H2790 C2796 0.930 . S
H2791 C2800 0.930 . S
H2792 C2805 0.929 . S
H2793 C2803 0.929 . S
H2794 C2798 0.929 . S
H2795 C2804 0.929 . S
C2796 H2790 0.930 . S
C2796 C2797 1.367 . S
C2796 C2804 1.378 . S
C2797 C2796 1.367 . S
C2797 C2805 1.433 . S
C2798 H2794 0.929 . S
C2798 C2800 1.378 . S
C2798 C2802 1.350 . S
C2799 C2802 1.463 . S
C2799 C2804 1.350 . S
C2799 N2807 1.427 . S
C2800 H2791 0.930 . S
C2800 C2798 1.378 . S
C2800 C2801 1.367 . S
C2801 C2800 1.367 . S
C2801 C2803 1.433 . S
C2802 C2798 1.350 . S
C2802 C2799 1.463 . S
C2802 N2806 1.427 . S
C2803 H2793 0.929 . S
C2803 C2801 1.433 . S
C2803 N2806 1.384 . S
C2804 H2795 0.929 . S
C2804 C2796 1.378 . S
C2804 C2799 1.350 . S
C2805 H2792 0.929 . S
C2805 C2797 1.433 . S
C2805 N2807 1.384 . S
N2806 C2802 1.427 . S
N2806 C2803 1.384 . S
N2807 C2799 1.427 . S
N2807 C2805 1.384 . S
H2808 C2814 0.930 . S
H2809 C2818 0.930 . S
H2810 C2823 0.929 . S
H2811 C2821 0.929 . S
H2812 C2816 0.929 . S
H2813 C2822 0.929 . S
C2814 H2808 0.930 . S
C2814 C2815 1.367 . S
C2814 C2822 1.378 . S
C2815 C2814 1.367 . S
C2815 C2823 1.433 . S
C2816 H2812 0.929 . S
C2816 C2818 1.378 . S
C2816 C2820 1.350 . S
C2817 C2820 1.463 . S
C2817 C2822 1.350 . S
C2817 N2825 1.427 . S
C2818 H2809 0.930 . S
C2818 C2816 1.378 . S
C2818 C2819 1.367 . S
C2819 C2818 1.367 . S
C2819 C2821 1.433 . S
C2820 C2816 1.350 . S
C2820 C2817 1.463 . S
C2820 N2824 1.427 . S
C2821 H2811 0.929 . S
C2821 C2819 1.433 . S
C2821 N2824 1.384 . S
C2822 H2813 0.929 . S
C2822 C2814 1.378 . S
C2822 C2817 1.350 . S
C2823 H2810 0.929 . S
C2823 C2815 1.433 . S
C2823 N2825 1.384 . S
N2824 C2820 1.427 . S
N2824 C2821 1.384 . S
N2825 C2817 1.427 . S
N2825 C2823 1.384 . S
H2826 C2832 0.930 . S
H2827 C2836 0.930 . S
H2828 C2841 0.929 . S
H2829 C2839 0.929 . S
H2830 C2834 0.929 . S
H2831 C2840 0.929 . S
C2832 H2826 0.930 . S
C2832 C2833 1.367 . S
C2832 C2840 1.378 . S
C2833 C2832 1.367 . S
C2833 C2841 1.433 . S
C2834 H2830 0.929 . S
C2834 C2836 1.378 . S
C2834 C2838 1.350 . S
C2835 C2838 1.463 . S
C2835 C2840 1.350 . S
C2835 N2843 1.427 . S
C2836 H2827 0.930 . S
C2836 C2834 1.378 . S
C2836 C2837 1.367 . S
C2837 C2836 1.367 . S
C2837 C2839 1.433 . S
C2838 C2834 1.350 . S
C2838 C2835 1.463 . S
C2838 N2842 1.427 . S
C2839 H2829 0.929 . S
C2839 C2837 1.433 . S
C2839 N2842 1.384 . S
C2840 H2831 0.929 . S
C2840 C2832 1.378 . S
C2840 C2835 1.350 . S
C2841 H2828 0.929 . S
C2841 C2833 1.433 . S
C2841 N2843 1.384 . S
N2842 C2838 1.427 . S
N2842 C2839 1.384 . S
N2843 C2835 1.427 . S
N2843 C2841 1.384 . S
H2844 C2850 0.930 . S
H2845 C2854 0.930 . S
H2846 C2859 0.929 . S
H2847 C2857 0.929 1_545 S
H2848 C2852 0.929 . S
H2849 C2858 0.921 1_545 S
C2850 H2844 0.930 . S
C2850 C2851 1.367 1_545 S
C2850 C2858 1.377 1_545 S
C2851 C2850 1.367 1_565 S
C2851 C2859 1.433 . S
C2852 H2848 0.929 . S
C2852 C2854 1.378 . S
C2852 C2856 1.350 . S
C2853 C2856 1.463 . S
C2853 C2858 1.358 . S
C2853 N2861 1.427 . S
C2854 H2845 0.930 . S
C2854 C2852 1.378 . S
C2854 C2855 1.367 . S
C2855 C2854 1.367 . S
C2855 C2857 1.433 . S
C2856 C2852 1.350 . S
C2856 C2853 1.463 . S
C2856 N2860 1.427 . S
C2857 H2847 0.929 1_565 S
C2857 C2855 1.433 . S
C2857 N2860 1.384 . S
C2858 H2849 0.921 1_565 S
C2858 C2850 1.377 1_565 S
C2858 C2853 1.358 . S
C2859 H2846 0.929 . S
C2859 C2851 1.433 . S
C2859 N2861 1.384 . S
N2860 C2856 1.427 . S
N2860 C2857 1.384 . S
N2861 C2853 1.427 . S
N2861 C2859 1.384 . S
H2862 C2868 0.930 . S
H2863 C2872 0.930 . S
H2864 C2877 0.929 . S
H2865 C2875 0.929 . S
H2866 C2870 0.929 . S
H2867 C2876 0.929 . S
C2868 H2862 0.930 . S
C2868 C2869 1.367 1_545 S
C2868 C2876 1.378 . S
C2869 C2868 1.367 1_565 S
C2869 C2877 1.433 . S
C2870 H2866 0.929 . S
C2870 C2872 1.378 . S
C2870 C2874 1.350 . S
C2871 C2874 1.463 . S
C2871 C2876 1.350 1_565 S
C2871 N2879 1.427 . S
C2872 H2863 0.930 . S
C2872 C2870 1.378 . S
C2872 C2873 1.367 . S
C2873 C2872 1.367 . S
C2873 C2875 1.433 1_565 S
C2874 C2870 1.350 . S
C2874 C2871 1.463 . S
C2874 N2878 1.427 1_565 S
C2875 H2865 0.929 . S
C2875 C2873 1.433 1_545 S
C2875 N2878 1.384 . S
C2876 H2867 0.929 . S
C2876 C2868 1.378 . S
C2876 C2871 1.350 1_545 S
C2877 H2864 0.929 . S
C2877 C2869 1.433 . S
C2877 N2879 1.384 . S
N2878 C2874 1.427 1_545 S
N2878 C2875 1.384 . S
N2879 C2871 1.427 . S
N2879 C2877 1.384 . S
H2880 C2886 0.930 . S
H2881 C2890 0.930 . S
H2882 C2895 0.929 . S
H2883 C2893 0.929 . S
H2884 C2888 0.929 . S
H2885 C2894 0.929 . S
C2886 H2880 0.930 . S
C2886 C2887 1.367 . S
C2886 C2894 1.378 . S
C2887 C2886 1.367 . S
C2887 C2895 1.433 . S
C2888 H2884 0.929 . S
C2888 C2890 1.378 . S
C2888 C2892 1.350 . S
C2889 C2892 1.463 . S
C2889 C2894 1.350 . S
C2889 N2897 1.427 . S
C2890 H2881 0.930 . S
C2890 C2888 1.378 . S
C2890 C2891 1.367 . S
C2891 C2890 1.367 . S
C2891 C2893 1.433 . S
C2892 C2888 1.350 . S
C2892 C2889 1.463 . S
C2892 N2896 1.427 . S
C2893 H2883 0.929 . S
C2893 C2891 1.433 . S
C2893 N2896 1.384 . S
C2894 H2885 0.929 . S
C2894 C2886 1.378 . S
C2894 C2889 1.350 . S
C2895 H2882 0.929 . S
C2895 C2887 1.433 . S
C2895 N2897 1.384 . S
N2896 C2892 1.427 . S
N2896 C2893 1.384 . S
N2897 C2889 1.427 . S
N2897 C2895 1.384 . S
H2898 C2904 0.930 . S
H2899 C2908 0.930 . S
H2900 C2913 0.929 . S
H2901 C2911 0.929 . S
H2902 C2906 0.929 . S
H2903 C2912 0.929 . S
C2904 H2898 0.930 . S
C2904 C2905 1.367 1_554 S
C2904 C2912 1.378 . S
C2905 C2904 1.367 1_556 S
C2905 C2913 1.433 . S
C2906 H2902 0.929 . S
C2906 C2908 1.378 . S
C2906 C2910 1.350 . S
C2907 C2910 1.463 . S
C2907 C2912 1.350 1_556 S
C2907 N2915 1.427 . S
C2908 H2899 0.930 . S
C2908 C2906 1.378 . S
C2908 C2909 1.367 . S
C2909 C2908 1.367 . S
C2909 C2911 1.433 1_556 S
C2910 C2906 1.350 . S
C2910 C2907 1.463 . S
C2910 N2914 1.427 1_556 S
C2911 H2901 0.929 . S
C2911 C2909 1.433 1_554 S
C2911 N2914 1.384 . S
C2912 H2903 0.929 . S
C2912 C2904 1.378 . S
C2912 C2907 1.350 1_554 S
C2913 H2900 0.929 . S
C2913 C2905 1.433 . S
C2913 N2915 1.384 . S
N2914 C2910 1.427 1_554 S
N2914 C2911 1.384 . S
N2915 C2907 1.427 . S
N2915 C2913 1.384 . S
H2916 C2922 0.930 . S
H2917 C2926 0.930 . S
H2918 C2931 0.929 . S
H2919 C2929 0.929 . S
H2920 C2924 0.929 . S
H2921 C2930 0.929 . S
C2922 H2916 0.930 . S
C2922 C2923 1.367 . S
C2922 C2930 1.378 . S
C2923 C2922 1.367 . S
C2923 C2931 1.433 . S
C2924 H2920 0.929 . S
C2924 C2926 1.378 . S
C2924 C2928 1.350 . S
C2925 C2928 1.463 . S
C2925 C2930 1.350 . S
C2925 N2933 1.427 . S
C2926 H2917 0.930 . S
C2926 C2924 1.378 . S
C2926 C2927 1.367 . S
C2927 C2926 1.367 . S
C2927 C2929 1.433 . S
C2928 C2924 1.350 . S
C2928 C2925 1.463 . S
C2928 N2932 1.427 . S
C2929 H2919 0.929 . S
C2929 C2927 1.433 . S
C2929 N2932 1.384 . S
C2930 H2921 0.929 . S
C2930 C2922 1.378 . S
C2930 C2925 1.350 . S
C2931 H2918 0.929 . S
C2931 C2923 1.433 . S
C2931 N2933 1.384 . S
N2932 C2928 1.427 . S
N2932 C2929 1.384 . S
N2933 C2925 1.427 . S
N2933 C2931 1.384 . S
H2934 C2940 0.930 . S
H2935 C2944 0.930 . S
H2936 C2949 0.929 . S
H2937 C2947 0.929 . S
H2938 C2942 0.929 . S
H2939 C2948 0.929 . S
C2940 H2934 0.930 . S
C2940 C2941 1.367 . S
C2940 C2948 1.378 . S
C2941 C2940 1.367 . S
C2941 C2949 1.433 . S
C2942 H2938 0.929 . S
C2942 C2944 1.378 . S
C2942 C2946 1.350 . S
C2943 C2946 1.463 . S
C2943 C2948 1.350 . S
C2943 N2951 1.427 . S
C2944 H2935 0.930 . S
C2944 C2942 1.378 . S
C2944 C2945 1.367 . S
C2945 C2944 1.367 . S
C2945 C2947 1.433 . S
C2946 C2942 1.350 . S
C2946 C2943 1.463 . S
C2946 N2950 1.427 . S
C2947 H2937 0.929 . S
C2947 C2945 1.433 . S
C2947 N2950 1.384 . S
C2948 H2939 0.929 . S
C2948 C2940 1.378 . S
C2948 C2943 1.350 . S
C2949 H2936 0.929 . S
C2949 C2941 1.433 . S
C2949 N2951 1.384 . S
N2950 C2946 1.427 . S
N2950 C2947 1.384 . S
N2951 C2943 1.427 . S
N2951 C2949 1.384 . S
H2952 C2958 0.930 . S
H2953 C2962 0.930 . S
H2954 C2967 0.929 . S
H2955 C2965 0.929 . S
H2956 C2960 0.929 . S
H2957 C2966 0.929 . S
C2958 H2952 0.930 . S
C2958 C2959 1.367 . S
C2958 C2966 1.378 . S
C2959 C2958 1.367 . S
C2959 C2967 1.433 . S
C2960 H2956 0.929 . S
C2960 C2962 1.378 . S
C2960 C2964 1.350 . S
C2961 C2964 1.463 . S
C2961 C2966 1.350 . S
C2961 N2969 1.427 . S
C2962 H2953 0.930 . S
C2962 C2960 1.378 . S
C2962 C2963 1.367 . S
C2963 C2962 1.367 . S
C2963 C2965 1.433 . S
C2964 C2960 1.350 . S
C2964 C2961 1.463 . S
C2964 N2968 1.427 . S
C2965 H2955 0.929 . S
C2965 C2963 1.433 . S
C2965 N2968 1.384 . S
C2966 H2957 0.929 . S
C2966 C2958 1.378 . S
C2966 C2961 1.350 . S
C2967 H2954 0.929 . S
C2967 C2959 1.433 . S
C2967 N2969 1.384 . S
N2968 C2964 1.427 . S
N2968 C2965 1.384 . S
N2969 C2961 1.427 . S
N2969 C2967 1.384 . S
H2970 C2976 0.930 . S
H2971 C2980 0.930 . S
H2972 C2985 0.929 1_455 S
H2973 C2983 0.929 . S
H2974 C2978 0.935 . S
H2975 C2984 0.929 . S
C2976 H2970 0.930 . S
C2976 C2977 1.367 . S
C2976 C2984 1.378 . S
C2977 C2976 1.367 . S
C2977 C2985 1.433 . S
C2978 H2974 0.935 . S
C2978 C2980 1.378 . S
C2978 C2982 1.350 . S
C2979 C2982 1.463 . S
C2979 C2984 1.350 . S
C2979 N2987 1.427 . S
C2980 H2971 0.930 . S
C2980 C2978 1.378 . S
C2980 C2981 1.367 . S
C2981 C2980 1.367 . S
C2981 C2983 1.433 . S
C2982 C2978 1.350 . S
C2982 C2979 1.463 . S
C2982 N2986 1.427 . S
C2983 H2973 0.929 . S
C2983 C2981 1.433 . S
C2983 N2986 1.384 . S
C2984 H2975 0.929 . S
C2984 C2976 1.378 . S
C2984 C2979 1.350 . S
C2985 H2972 0.929 1_655 S
C2985 C2977 1.433 . S
C2985 N2987 1.384 . S
N2986 C2982 1.427 . S
N2986 C2983 1.384 . S
N2987 C2979 1.427 . S
N2987 C2985 1.384 . S
H2988 C2994 0.930 . S
H2989 C2998 0.930 . S
H2990 C3003 0.929 . S
H2991 C3001 0.929 . S
H2992 C2996 0.929 . S
H2993 C3002 0.929 . S
C2994 H2988 0.930 . S
C2994 C2995 1.367 . S
C2994 C3002 1.378 . S
C2995 C2994 1.367 . S
C2995 C3003 1.433 . S
C2996 H2992 0.929 . S
C2996 C2998 1.378 . S
C2996 C3000 1.350 . S
C2997 C3000 1.463 . S
C2997 C3002 1.350 . S
C2997 N3005 1.427 . S
C2998 H2989 0.930 . S
C2998 C2996 1.378 . S
C2998 C2999 1.367 . S
C2999 C2998 1.367 . S
C2999 C3001 1.433 . S
C3000 C2996 1.350 . S
C3000 C2997 1.463 . S
C3000 N3004 1.427 . S
C3001 H2991 0.929 . S
C3001 C2999 1.433 . S
C3001 N3004 1.384 . S
C3002 H2993 0.929 . S
C3002 C2994 1.378 . S
C3002 C2997 1.350 . S
C3003 H2990 0.929 . S
C3003 C2995 1.433 . S
C3003 N3005 1.384 . S
N3004 C3000 1.427 . S
N3004 C3001 1.384 . S
N3005 C2997 1.427 . S
N3005 C3003 1.384 . S
H3006 C3012 0.930 . S
H3007 C3016 0.930 . S
H3008 C3021 0.929 . S
H3009 C3019 0.929 . S
H3010 C3014 0.929 . S
H3011 C3020 0.929 . S
C3012 H3006 0.930 . S
C3012 C3013 1.367 . S
C3012 C3020 1.378 . S
C3013 C3012 1.367 . S
C3013 C3021 1.433 . S
C3014 H3010 0.929 . S
C3014 C3016 1.378 . S
C3014 C3018 1.350 . S
C3015 C3018 1.463 . S
C3015 C3020 1.350 . S
C3015 N3023 1.427 . S
C3016 H3007 0.930 . S
C3016 C3014 1.378 . S
C3016 C3017 1.367 . S
C3017 C3016 1.367 . S
C3017 C3019 1.433 . S
C3018 C3014 1.350 . S
C3018 C3015 1.463 . S
C3018 N3022 1.427 . S
C3019 H3009 0.929 . S
C3019 C3017 1.433 . S
C3019 N3022 1.384 . S
C3020 H3011 0.929 . S
C3020 C3012 1.378 . S
C3020 C3015 1.350 . S
C3021 H3008 0.929 . S
C3021 C3013 1.433 . S
C3021 N3023 1.384 . S
N3022 C3018 1.427 . S
N3022 C3019 1.384 . S
N3023 C3015 1.427 . S
N3023 C3021 1.384 . S
C1739 C1713 2.110 . S
C1735 C15 2.155 . S
C1757 C1617 1.435 . S
C1753 C55 1.344 . S
C1775 C1681 0.822 . S
C1771 C95 0.865 . S
C1793 C1649 2.351 . S
C1789 C135 2.197 . S
C1811 C1425 2.112 . S
C1807 C175 2.152 . S
C1825 C215 2.200 . S
C1829 C1457 2.357 . S
C1847 C1361 1.436 . S
C1843 C255 1.337 . S
C1861 C295 0.859 . S
C1865 C1393 0.834 . S
C1883 C1585 2.107 . S
C1879 C335 2.156 . S
C1897 C375 2.195 . S
C1901 C1521 2.356 . S
C1915 C415 1.346 . S
C1919 C1489 1.434 . S
C1937 C1553 0.833 . S
C1933 C455 0.859 . S
C1955 C1329 2.046 . S
C1951 C495 2.152 . S
C1969 C535 1.331 . S
C1973 C1233 1.371 . S
C1991 C1297 0.846 . S
C1987 C575 0.862 . S
C2005 C615 2.201 . S
C2009 C1265 2.183 . S
C2027 C1041 2.050 . S
C2023 C655 2.154 . S
C2045 C1073 2.165 . S
C2041 C695 2.201 . S
C2059 C735 1.339 . S
C2063 C977 1.386 . S
C2077 C775 0.861 . S
C2081 C1009 0.844 . S
C2095 C815 2.149 . S
C2099 C1201 2.056 . S
C2113 C855 2.190 . S
C2117 C1137 2.170 . S
C2135 C1105 1.376 . S
C2131 C895 1.328 . S
C2149 C935 0.859 . S
C2153 C1169 0.837 . S
C2171 C989 1.579 . S
C2167 C21 1.632 . S
C2189 C1021 1.715 . S
C2185 C61 1.761 . S
C2203 C101 0.522 . S
C2207 C1053 0.575 . S
C2221 C141 0.716 . S
C2225 C1085 0.730 . S
C2243 C1117 1.577 . S
C2239 C181 1.635 . S
C2257 C221 0.717 . S
C2261 C1149 0.723 . S
C2279 C1181 1.707 . S
C2275 C261 1.754 . S
C2297 C1213 0.554 . S
C2293 C301 0.511 . S
C2315 C1245 1.578 . S
C2311 C341 1.635 . S
C2329 C381 0.720 . S
C2333 C1277 0.707 . S
C2347 C421 1.766 . S
C2351 C1309 1.711 . S
C2365 C461 0.511 . S
C2369 C1341 0.552 . S
C2383 C501 1.578 . S
C2387 C1373 1.598 . S
C2401 C541 1.576 . S
C2405 C1405 1.672 . S
C2419 C581 0.541 . S
C2423 C1437 0.530 . S
C2437 C621 0.712 . S
C2441 C1469 0.712 . S
C2455 C661 1.572 . S
C2459 C1501 1.598 . S
C2477 C1533 0.712 . S
C2473 C701 0.724 . S
C2495 C1565 1.677 . S
C2491 C741 1.593 . S
C2513 C1597 0.513 . S
C2509 C781 0.565 . S
C2531 C1629 1.587 . S
C2527 C821 1.567 . S
C2545 C861 0.708 . S
C2549 C1661 0.718 . S
C2563 C901 1.596 . S
C2567 C1693 1.682 . S
C2581 C941 0.544 . S
C2585 C1725 0.516 . S
C2599 C2 1.676 . S
C2603 C1239 1.680 . S
C2621 C1335 1.291 . S
C2617 C42 1.330 . S
C2635 C82 1.222 . S
C2639 C1271 1.166 . S
C2657 C1303 2.583 . S
C2653 C122 2.394 . S
C2671 C162 1.681 . S
C2675 C983 1.674 . S
C2689 C202 2.405 . S
C2693 C1015 2.587 . S
C2707 C242 1.332 . S
C2711 C1047 1.290 . S
C2725 C282 1.224 . S
C2729 C1079 1.166 . S
C2747 C1111 1.674 . S
C2743 C322 1.682 . S
C2765 C1175 2.583 . S
C2761 C362 2.397 . S
C2779 C402 1.337 . S
C2783 C1207 1.285 . S
C2797 C442 1.216 . S
C2801 C1143 1.154 . S
C2819 C1623 1.636 . S
C2815 C482 1.652 . S
C2837 C1719 1.323 . S
C2833 C522 1.249 . S
C2851 C562 1.232 . S
C2855 C1655 1.220 . S
C2873 C1687 2.352 . S
C2869 C602 2.394 . S
C2887 C642 1.650 . S
C2891 C1367 1.639 . S
C2905 C682 2.387 . S
C2909 C1399 2.345 . S
C2923 C722 1.263 . S
C2927 C1431 1.312 . S
C2945 C1463 1.234 . S
C2941 C762 1.219 . S
C2963 C1495 1.642 . S
C2959 C802 1.660 . S
C2981 C1559 2.338 . S
C2977 C842 2.386 . S
C2995 C882 1.254 . S
C2999 C1591 1.321 . S
C3017 C1527 1.227 . S
C3013 C922 1.228 . S
