# Generated by pormake.
# Topology zzz, (3,6)-cn, num edge types: 1
# Building blocks:
#     Node 0, Type 0, BuildingBlock: BETDAH_clean_linker_0, # of connection points: 3
#     Node 1, Type 0, BuildingBlock: BETDAH_clean_linker_0, # of connection points: 3
#     Node 2, Type 0, BuildingBlock: BETDAH_clean_linker_0, # of connection points: 3
#     Node 3, Type 0, BuildingBlock: BETDAH_clean_linker_0, # of connection points: 3
#     Node 4, Type 0, BuildingBlock: BETDAH_clean_linker_0, # of connection points: 3
#     Node 5, Type 0, BuildingBlock: BETDAH_clean_linker_0, # of connection points: 3
#     Node 6, Type 0, BuildingBlock: BETDAH_clean_linker_0, # of connection points: 3
#     Node 7, Type 0, BuildingBlock: BETDAH_clean_linker_0, # of connection points: 3
#     Node 8, Type 1, BuildingBlock: BETDEL_clean_sbu_0, # of connection points: 6
#     Node 9, Type 1, BuildingBlock: BETDEL_clean_sbu_0, # of connection points: 6
#     Node 10, Type 1, BuildingBlock: BETDEL_clean_sbu_0, # of connection points: 6
#     Node 11, Type 1, BuildingBlock: BETDEL_clean_sbu_0, # of connection points: 6
#     Edge 12, Type (0, 1), BuildingBlock: OJICUG_clean_linker_0, # of connection points: 2
#     Edge 13, Type (0, 1), BuildingBlock: OJICUG_clean_linker_0, # of connection points: 2
#     Edge 14, Type (0, 1), BuildingBlock: OJICUG_clean_linker_0, # of connection points: 2
#     Edge 15, Type (0, 1), BuildingBlock: OJICUG_clean_linker_0, # of connection points: 2
#     Edge 16, Type (0, 1), BuildingBlock: OJICUG_clean_linker_0, # of connection points: 2
#     Edge 17, Type (0, 1), BuildingBlock: OJICUG_clean_linker_0, # of connection points: 2
#     Edge 18, Type (0, 1), BuildingBlock: OJICUG_clean_linker_0, # of connection points: 2
#     Edge 19, Type (0, 1), BuildingBlock: OJICUG_clean_linker_0, # of connection points: 2
#     Edge 20, Type (0, 1), BuildingBlock: OJICUG_clean_linker_0, # of connection points: 2
#     Edge 21, Type (0, 1), BuildingBlock: OJICUG_clean_linker_0, # of connection points: 2
#     Edge 22, Type (0, 1), BuildingBlock: OJICUG_clean_linker_0, # of connection points: 2
#     Edge 23, Type (0, 1), BuildingBlock: OJICUG_clean_linker_0, # of connection points: 2
#     Edge 24, Type (0, 1), BuildingBlock: OJICUG_clean_linker_0, # of connection points: 2
#     Edge 25, Type (0, 1), BuildingBlock: OJICUG_clean_linker_0, # of connection points: 2
#     Edge 26, Type (0, 1), BuildingBlock: OJICUG_clean_linker_0, # of connection points: 2
#     Edge 27, Type (0, 1), BuildingBlock: OJICUG_clean_linker_0, # of connection points: 2
#     Edge 28, Type (0, 1), BuildingBlock: OJICUG_clean_linker_0, # of connection points: 2
#     Edge 29, Type (0, 1), BuildingBlock: OJICUG_clean_linker_0, # of connection points: 2
#     Edge 30, Type (0, 1), BuildingBlock: OJICUG_clean_linker_0, # of connection points: 2
#     Edge 31, Type (0, 1), BuildingBlock: OJICUG_clean_linker_0, # of connection points: 2
#     Edge 32, Type (0, 1), BuildingBlock: OJICUG_clean_linker_0, # of connection points: 2
#     Edge 33, Type (0, 1), BuildingBlock: OJICUG_clean_linker_0, # of connection points: 2
#     Edge 34, Type (0, 1), BuildingBlock: OJICUG_clean_linker_0, # of connection points: 2
#     Edge 35, Type (0, 1), BuildingBlock: OJICUG_clean_linker_0, # of connection points: 2
# Relax obj value: 0.170
# Max RMSD: 0.182
# Mean RMSD: 0.121
data_MOF--net-zzz--node1-BETDEL_clean_sbu_0--node2-BETDAH_clean_linker_0--edge1-OJICUG_clean_linker_0
_symmetry_space_group_name_H-M    P1
_symmetry_Int_Tables_number       1
_symmetry_cell_setting            triclinic
loop_
_symmetry_equiv_pos_as_xyz
'x, y, z'
_cell_length_a     34.743008
_cell_length_b     35.628644
_cell_length_c     11.626852
_cell_angle_alpha  91.881567
_cell_angle_beta   88.36193
_cell_angle_gamma 94.470849
loop_
_atom_site_label
_atom_site_type_symbol
_atom_site_fract_x
_atom_site_fract_y
_atom_site_fract_z
_atom_type_partial_charge
H0 H 0.87944 0.51758 0.07571 0.0
H1 H 0.76578 0.51332 0.93849 0.0
H2 H 0.79628 0.58795 0.22875 0.0
C3 C 0.85038 0.52682 0.07897 0.0
C4 C 0.84153 0.55478 0.15962 0.0
C5 C 0.82336 0.51119 0.00071 0.0
C6 C 0.78632 0.52452 0.00158 0.0
C7 C 0.77611 0.55218 0.08472 0.0
C8 C 0.80382 0.56675 0.16488 0.0
N9 N 0.73865 0.5661 0.08955 0.0
C10 C 0.71098 0.55925 0.00491 0.0
H11 H 0.99132 0.86338 0.93448 0.0
H12 H 0.03766 0.75634 0.8982 0.0
H13 H 0.98665 0.78999 0.22284 0.0
C14 C 0.99671 0.8371 -0.02686 0.0
C15 C 0.99062 0.83251 0.09155 0.0
C16 C 1.01775 0.81186 0.90826 0.0
C17 C 1.02168 0.77608 0.94944 0.0
C18 C 1.0061 0.76667 0.05905 0.0
C19 C 0.99337 0.79586 0.13349 0.0
N20 N 1.00509 0.72894 0.0973 0.0
C21 C 1.0083 0.69804 0.02114 0.0
H22 H 0.68741 0.05538 0.09225 0.0
H23 H 0.79874 0.04403 0.93374 0.0
H24 H 0.76484 0.98405 0.24247 0.0
C25 C 0.71583 0.04475 0.09366 0.0
C26 C 0.72333 1.02005 0.17945 0.0
C27 C 0.74252 0.0532 0.00436 0.0
C28 C 0.77832 0.03745 0.00323 0.0
C29 C 0.78692 1.01257 0.08954 0.0
C30 C 0.75895 1.00367 0.17716 0.0
N31 N 0.82269 0.99533 0.08819 0.0
C32 C 0.85102 0.99995 0.00095 0.0
H33 H 0.52227 0.67608 0.0874 0.0
H34 H 0.5171 0.78452 0.94053 0.0
H35 H 0.59647 0.76919 0.2122 0.0
C36 C 0.53157 0.70586 0.0858 0.0
C37 C 0.56117 0.7196 0.1576 0.0
C38 C 0.51517 0.72886 0.00838 0.0
C39 C 0.52886 0.76695 0.00294 0.0
C40 C 0.55807 0.78189 0.07734 0.0
C41 C 0.57379 0.75805 0.15569 0.0
N42 N 0.5729 0.82029 0.07398 0.0
C43 C 0.5636 0.84598 -0.00716 0.0
H44 H 0.18613 0.53014 0.02301 0.0
H45 H 0.30076 0.53753 0.15392 0.0
H46 H 0.27075 0.46264 0.86383 0.0
C47 C 0.21548 0.52167 0.01809 0.0
C48 C 0.22475 0.4942 0.93628 0.0
C49 C 0.24259 0.53799 0.09497 0.0
C50 C 0.28011 0.52578 0.09188 0.0
C51 C 0.29069 0.49861 0.00765 0.0
C52 C 0.26289 0.4834 0.92871 0.0
N53 N 0.32865 0.48589 0.00034 0.0
C54 C 0.35662 0.49341 0.08373 0.0
H55 H 1.02147 0.1818 0.00419 0.0
H56 H 1.02248 0.29484 0.14188 0.0
H57 H 0.10069 0.26707 0.86067 0.0
C58 C 0.03259 0.21109 0.00153 0.0
C59 C 0.06335 0.22077 0.9263 0.0
C60 C 1.01781 0.23727 0.07944 0.0
C61 C 0.03305 0.27492 0.07851 0.0
C62 C 0.06247 0.28625 -0.00253 0.0
C63 C 0.07747 0.25888 0.92105 0.0
N64 N 0.0783 0.3244 -0.00644 0.0
C65 C 0.07007 0.35238 0.07569 0.0
H66 H 0.37474 1.00259 -0.0016 0.0
H67 H 0.26239 1.01613 0.14942 0.0
H68 H 0.29711 0.06901 0.82905 0.0
C69 C 0.34623 1.01286 -0.00655 0.0
C70 C 0.33895 0.03573 0.90282 0.0
C71 C 0.31907 1.00566 0.08253 0.0
C72 C 0.28311 1.0211 0.07919 0.0
C73 C 0.27457 0.04346 -0.01381 0.0
C74 C 0.30299 0.05112 0.89902 0.0
N75 N 0.23826 0.05924 -0.02094 0.0
C76 C 0.20882 0.05559 0.06304 0.0
H77 H 0.54343 0.38036 -0.0006 0.0
H78 H 0.5479 0.27168 0.14536 0.0
H79 H 0.4691 0.28766 0.87269 0.0
C80 C 0.53397 0.35062 0.00073 0.0
C81 C 0.50447 0.33705 0.92839 0.0
C82 C 0.5502 0.32745 0.078 0.0
C83 C 0.53629 0.2894 0.08306 0.0
C84 C 0.50713 0.27467 0.00809 0.0
C85 C 0.49168 0.29866 0.92975 0.0
N86 N 0.49211 0.23632 0.01055 0.0
C87 C 0.50107 0.21042 0.09138 0.0
Dy88 Dy 0.04912 1.00037 0.58911 0.0
C89 C 0.99462 0.11906 0.34848 0.0
C90 C 0.07043 0.93448 0.67103 0.0
Dy91 Dy 1.0074 0.05414 0.45121 0.0
O92 O 0.06971 0.94273 0.56379 0.0
O93 O 0.06004 0.96284 0.73543 0.0
O94 O 0.10597 0.02612 0.52689 0.0
O95 O 0.05924 1.02327 0.41528 0.0
C96 C 0.09441 0.0349 0.42688 0.0
C97 C 0.96014 0.03387 0.63101 0.0
O98 O 0.99845 1.00252 0.33827 0.0
O99 O 1.00503 0.96359 0.49018 0.0
O100 O 0.97653 0.08652 0.32208 0.0
O101 O 1.02101 0.115 0.42229 0.0
O102 O 0.95095 0.05517 0.54991 0.0
O103 O 0.99337 1.02325 0.60862 0.0
O104 O 0.0587 0.05228 0.70365 0.0
O105 O 0.05017 0.09048 0.55209 0.0
C106 C 0.99526 0.96859 0.38298 0.0
C107 C 0.06143 0.08604 0.65756 0.0
Dy108 Dy 0.50097 1.0021 0.4733 0.0
C109 C 0.63329 0.07589 0.68977 0.0
C110 C 0.42849 0.98226 0.39721 0.0
Dy111 Dy 0.56171 0.05389 0.61079 0.0
O112 O 0.4589 0.9644 0.36821 0.0
O113 O 0.43819 1.01064 0.46548 0.0
O114 O 0.54882 0.97224 0.38101 0.0
O115 O 0.55799 0.02843 0.43986 0.0
C116 C 0.5744 1.00058 0.3983 0.0
C117 C 0.48814 0.05501 0.68511 0.0
O118 O 0.55193 0.09357 0.47064 0.0
O119 O 0.49889 0.05896 0.39122 0.0
O120 O 0.60212 0.09257 0.71816 0.0
O121 O 0.62482 0.04733 0.62092 0.0
O122 O 0.51341 0.08362 0.70163 0.0
O123 O 0.5049 0.02734 0.64417 0.0
O124 O 0.51118 0.96227 0.61309 0.0
O125 O 0.5644 0.99694 0.69157 0.0
C126 C 0.52256 0.09022 0.39926 0.0
C127 C 0.54076 0.96565 0.68388 0.0
Dy128 Dy 0.51095 0.5507 0.61064 0.0
C129 C 0.58849 0.4452 0.36859 0.0
C130 C 0.47914 0.61099 0.71705 0.0
Dy131 Dy 0.55714 0.50578 0.47514 0.0
O132 O 0.48727 0.58079 0.76839 0.0
O133 O 0.48855 0.60797 0.6092 0.0
O134 O 0.45624 0.52239 0.54568 0.0
O135 O 0.5033 0.53004 0.42917 0.0
C136 C 0.46856 0.51649 0.44117 0.0
C137 C 0.59933 0.53981 0.64544 0.0
O138 O 0.56698 0.55772 0.37154 0.0
O139 O 0.55378 0.59335 0.53218 0.0
O140 O 0.58065 0.47553 0.31736 0.0
O141 O 0.57918 0.44834 0.47648 0.0
O142 O 0.61175 0.53419 0.54086 0.0
O143 O 0.5646 0.52616 0.6567 0.0
O144 O 0.50083 0.49886 0.71418 0.0
O145 O 0.51422 0.46319 0.55373 0.0
C146 C 0.56702 0.59101 0.42519 0.0
C147 C 0.50073 0.4656 0.66047 0.0
Dy148 Dy 1.00583 0.50054 0.61238 0.0
C149 C 0.12763 0.57676 0.38687 0.0
C150 C 0.93812 0.47081 0.71045 0.0
Dy151 Dy 0.06014 0.5465 0.48498 0.0
O152 O 0.94374 0.47843 0.60323 0.0
O153 O 0.96992 0.47924 0.76542 0.0
O154 O 1.02751 0.44715 0.54272 0.0
O155 O 1.02842 0.49295 0.43269 0.0
C156 C 0.03768 0.4594 0.44195 0.0
C157 C 1.02827 0.58715 0.6569 0.0
O158 O 1.00884 0.55526 0.37905 0.0
O159 O 0.96897 0.54128 0.53397 0.0
O160 O 0.12215 0.56894 0.49399 0.0
O161 O 0.09582 0.56822 0.33208 0.0
O162 O 0.03773 0.59952 0.55578 0.0
O163 O 0.03799 0.55375 0.66509 0.0
O164 O 0.05728 0.49172 0.71768 0.0
O165 O 0.09704 0.5057 0.56245 0.0
C166 C 0.97426 0.55466 0.42999 0.0
C167 C 0.09182 0.49231 0.66644 0.0
C168 C 0.18955 0.05722 0.26809 0.0
C169 C 0.17914 0.05247 0.15292 0.0
H170 H 0.17064 0.05602 0.44464 0.0
C171 C 0.1401 0.04427 0.12656 0.0
H172 H 0.21949 0.06375 0.29007 0.0
C173 C 0.11188 0.03986 0.21519 0.0
C174 C 0.12248 0.04355 0.33109 0.0
H175 H 0.13153 0.04069 0.03776 0.0
H176 H 0.08208 0.03259 0.19317 0.0
C177 C 0.16153 0.05287 0.35628 0.0
C178 C 0.5365 0.18427 0.24935 0.0
C179 C 0.50673 0.18064 0.16991 0.0
H180 H 0.56493 0.15863 0.38445 0.0
C181 C 0.48213 0.14755 0.1663 0.0
H182 H 0.55582 0.20963 0.25346 0.0
C183 C 0.48715 0.11835 0.24099 0.0
C184 C 0.51703 0.12161 0.32096 0.0
H185 H 0.45896 0.14419 0.10543 0.0
H186 H 0.46762 0.09317 0.23555 0.0
C187 C 0.54163 0.15503 0.32423 0.0
C188 C 0.37435 0.49406 0.28737 0.0
C189 C 0.38546 0.49884 0.17188 0.0
H190 H 0.39205 0.49531 0.46217 0.0
C191 C 0.42458 0.50804 0.14326 0.0
H192 H 0.34439 0.48671 0.3112 0.0
C193 C 0.45217 0.51302 0.2299 0.0
C194 C 0.44092 0.50879 0.34627 0.0
H195 H 0.43378 0.51156 0.05417 0.0
H196 H 0.48206 0.52067 0.2061 0.0
C197 C 0.40175 0.4989 0.37356 0.0
C198 C 0.05748 0.41779 0.14091 0.0
C199 C 0.06261 0.38018 0.166 0.0
H200 H 0.04569 0.47289 0.20883 0.0
C201 C 0.06068 0.36937 0.28069 0.0
H202 H 0.05906 0.42671 0.05261 0.0
C203 C 0.05326 0.39552 0.36929 0.0
C204 C 0.04747 0.43314 0.34531 0.0
H205 H 0.06473 0.34057 0.30197 0.0
H206 H 0.05174 0.38606 0.45702 0.0
C207 C 0.04996 0.44415 0.23005 0.0
C208 C 0.91845 1.00117 0.92086 0.0
C209 C 0.87899 1.00568 0.90691 0.0
H210 H 0.97568 1.00596 0.8428 0.0
C211 C 0.86661 1.01687 0.80077 0.0
H212 H 0.92856 0.99232 0.00224 0.0
C213 C 0.89326 1.02511 0.71141 0.0
C214 C 0.93289 1.0216 0.72513 0.0
H215 H 0.83633 1.0198 0.78683 0.0
H216 H 0.88275 0.03458 0.6313 0.0
C217 C 0.9453 1.00881 0.82995 0.0
C218 C 0.58209 0.90873 0.91635 0.0
C219 C 0.55759 0.87557 0.91385 0.0
H220 H 0.5962 0.96301 0.8461 0.0
C221 C 0.5276 0.87171 0.83512 0.0
H222 H 0.60542 0.91228 -0.02337 0.0
C223 C 0.52214 0.90082 0.75992 0.0
C224 C 0.54663 0.93431 0.76216 0.0
H225 H 0.50834 0.8463 0.83183 0.0
H226 H 0.49865 0.89706 0.70034 0.0
C227 C 0.57674 0.93777 0.84139 0.0
C228 C 0.64304 0.5456 0.94384 0.0
C229 C 0.68225 0.55472 0.91615 0.0
H230 H 0.58559 0.53394 0.87992 0.0
C231 C 0.69351 0.5604 0.80115 0.0
H232 H 0.63371 0.5414 0.03253 0.0
C233 C 0.66619 0.5565 0.71455 0.0
C234 C 0.62692 0.54669 0.74089 0.0
H235 H 0.72354 0.56773 0.77802 0.0
H236 H 0.676 0.56074 0.62632 0.0
C237 C 0.61553 0.54157 0.85681 0.0
C238 C 1.02106 0.63232 -0.0415 0.0
C239 C 1.01095 0.66851 0.93271 0.0
H240 H 0.03411 0.57749 0.89119 0.0
C241 C 1.00417 0.6766 0.81839 0.0
H242 H 1.02622 0.62545 0.04655 0.0
C243 C 1.00869 0.6495 0.73037 0.0
C244 C 1.01993 0.61355 0.75452 0.0
H245 H 0.99598 0.70417 0.79656 0.0
H246 H 1.00398 0.657 0.64259 0.0
C247 C 1.0254 0.6049 0.8699 0.0
C248 C 1.01279 0.2209 0.28117 0.0
C249 C 0.99414 0.22135 0.1761 0.0
H250 H 1.0284 0.18668 0.41683 0.0
C251 C 0.96517 0.19252 0.15059 0.0
H252 H 0.03456 0.24308 0.30458 0.0
C253 C 0.96291 0.15923 0.2118 0.0
C254 C 0.98798 0.15587 0.30241 0.0
H255 H 0.94974 0.19275 0.07096 0.0
H256 H 0.9445 0.13522 0.18142 0.0
C257 C 1.01008 0.18802 0.34344 0.0
C258 C 0.35558 0.95704 0.17105 0.0
C259 C 0.3327 0.98791 0.18569 0.0
H260 H 0.40524 0.93126 0.22724 0.0
C261 C 0.33451 1.00914 0.28933 0.0
H262 H 0.35428 0.93991 0.09228 0.0
C263 C 0.36347 1.00398 0.36687 0.0
C264 C 0.39087 0.97768 0.34108 0.0
H265 H 0.31715 0.03294 0.30327 0.0
H266 H 0.3669 1.0234 0.4402 0.0
C267 C 0.38494 0.95225 0.24769 0.0
C268 C 0.56555 0.34489 0.28045 0.0
C269 C 0.57656 0.34631 0.16361 0.0
H270 H 0.56187 0.37616 0.43987 0.0
C271 C 0.6031 0.37581 0.12729 0.0
H272 H 0.54555 0.32237 0.31138 0.0
C273 C 0.61048 0.40766 0.19866 0.0
C274 C 0.5937 0.40889 0.30932 0.0
H275 H 0.61289 0.37699 0.03805 0.0
H276 H 0.62613 0.43243 0.16382 0.0
C277 C 0.57448 0.37605 0.35357 0.0
C278 C 0.22674 0.55239 0.29974 0.0
C279 C 0.22799 0.56383 0.1854 0.0
H280 H 0.19308 0.54871 0.4564 0.0
C281 C 0.20264 0.59043 0.15302 0.0
H282 H 0.24606 0.53218 0.32732 0.0
C283 C 0.17093 0.59798 0.22402 0.0
C284 C 0.16608 0.5812 0.33102 0.0
H285 H 0.20357 0.60023 0.06564 0.0
H286 H 0.14854 0.61388 0.19101 0.0
C287 C 0.19598 0.56143 0.37295 0.0
C288 C 1.02868 0.83613 0.71281 0.0
C289 C 0.04378 0.82901 0.81959 0.0
H290 H 1.02663 0.87593 0.57959 0.0
C291 C 0.07532 0.85237 0.86081 0.0
H292 H 1.00394 0.81895 0.6807 0.0
C293 C 0.08645 0.88621 0.80775 0.0
C294 C 0.06794 0.89555 0.70874 0.0
H295 H 0.08696 0.8476 0.94416 0.0
H296 H 0.10721 0.90624 0.8488 0.0
C297 C 0.04123 0.86909 0.65647 0.0
C298 C 0.70405 0.10147 0.92096 0.0
C299 C 0.72843 0.07187 0.90342 0.0
H300 H 0.65337 0.12573 0.86591 0.0
C301 C 0.72831 0.05227 0.79679 0.0
H302 H 0.70416 0.11751 0.00178 0.0
C303 C 0.69948 0.05723 0.71879 0.0
C304 C 0.67059 0.08172 0.74699 0.0
H305 H 0.74693 0.02957 0.78021 0.0
H306 H 0.69736 0.03879 0.64285 0.0
C307 C 0.67484 0.10605 0.84365 0.0
C308 C 0.4629 0.67996 -0.04183 0.0
C309 C 0.48909 0.7098 0.92239 0.0
H310 H 0.44083 0.62308 0.92109 0.0
C311 C 0.50024 0.71146 0.80567 0.0
H312 H 0.45297 0.67861 0.04726 0.0
C313 C 0.49195 0.68024 0.73232 0.0
C314 C 0.47319 0.64714 0.77624 0.0
H315 H 0.51996 0.73426 0.77509 0.0
H316 H 0.50472 0.68034 0.64622 0.0
C317 C 0.45615 0.64807 0.88659 0.0
C318 C 0.83931 0.49638 0.7962 0.0
C319 C 0.83777 0.48507 0.91069 0.0
H320 H 0.87316 0.49947 0.63984 0.0
C321 C 0.86268 0.45813 0.94357 0.0
H322 H 0.82031 0.5168 0.76812 0.0
C323 C 0.89438 0.45017 0.87306 0.0
C324 C 0.89959 0.46682 0.76596 0.0
H325 H 0.86147 0.44835 0.03099 0.0
H326 H 0.91651 0.43401 0.90649 0.0
C327 C 0.87001 0.48688 0.72344 0.0
C328 C 0.08382 0.15498 0.90595 0.0
C329 C 0.07826 0.18949 0.85434 0.0
H330 H 0.08196 0.09472 0.8852 0.0
C331 C 0.07621 0.19005 0.73459 0.0
H332 H 0.08599 0.15385 -0.00144 0.0
C333 C 0.07452 0.15624 0.66965 0.0
C334 C 0.0742 0.12113 0.7234 0.0
H335 H 0.07196 0.21602 0.69239 0.0
H336 H 0.07029 0.15768 0.57806 0.0
C337 C 0.08126 0.12101 0.84136 0.0
C338 C 0.38785 1.01349 0.76318 0.0
C339 C 0.37122 0.04399 0.8192 0.0
H340 H 0.43815 0.99277 0.68239 0.0
C341 C 0.39191 0.07953 0.82084 0.0
H342 H 0.37285 0.98564 0.76308 0.0
C343 C 0.4296 0.08382 0.77317 0.0
C344 C 0.44709 0.05253 0.72436 0.0
H345 H 0.38012 0.10323 0.86636 0.0
H346 H 0.44564 0.11109 0.77941 0.0
C347 C 0.42544 1.01757 0.71786 0.0
C348 C 0.49704 0.36267 0.73395 0.0
C349 C 0.489 0.36469 0.85261 0.0
H350 H 0.50648 0.3932 0.57918 0.0
C351 C 0.47696 0.3986 0.90226 0.0
H352 H 0.50678 0.33708 0.69385 0.0
C353 C 0.47778 0.43112 0.83772 0.0
C354 C 0.49015 0.43018 0.72181 0.0
H355 H 0.47073 0.40087 -0.00601 0.0
H356 H 0.47147 0.45745 0.8808 0.0
C357 C 0.4974 0.39511 0.6689 0.0
C358 C 0.19673 0.48738 0.74067 0.0
C359 C 0.19347 0.47974 0.85806 0.0
H360 H 0.16695 0.49677 0.58727 0.0
C361 C 0.15668 0.46858 0.9056 0.0
H362 H 0.22454 0.49632 0.70196 0.0
C363 C 0.1234 0.46996 0.84119 0.0
C364 C 0.12635 0.48185 0.72727 0.0
H365 H 0.15337 0.46246 -0.0038 0.0
H366 H 0.09541 0.46429 0.88309 0.0
C367 C 0.16349 0.48822 0.67568 0.0
C368 C 0.97169 0.86684 0.27997 0.0
C369 C 0.98771 0.86753 0.16721 0.0
H370 H 0.96145 0.89841 0.43775 0.0
C371 C 1.00392 0.90267 0.1274 0.0
H372 H 0.9592 0.84079 0.31524 0.0
C373 C 1.00312 0.93559 0.19464 0.0
C374 C 0.98822 0.93467 0.30724 0.0
H375 H 1.01923 0.90525 0.04549 0.0
H376 H 1.01677 0.96145 0.16062 0.0
C377 C 0.97252 0.89999 0.34986 0.0
C378 C 0.67539 0.04114 0.32392 0.0
C379 C 0.69141 1.01103 0.26384 0.0
H380 H 0.62544 0.06198 0.40627 0.0
C381 C 0.67009 0.97581 0.25863 0.0
H382 H 0.69082 0.06879 0.32686 0.0
C383 C 0.63241 0.97161 0.30666 0.0
C384 C 0.61549 1.0027 0.35898 0.0
H385 H 0.68135 0.95244 0.21 0.0
H386 H 0.61591 0.94466 0.29764 0.0
C387 C 0.63774 0.03723 0.36882 0.0
C388 C 0.58918 0.6582 0.18276 0.0
C389 C 0.57704 0.69202 0.23289 0.0
H390 H 0.59532 0.59943 0.20382 0.0
C391 C 0.56939 0.69394 0.35177 0.0
H392 H 0.5951 0.65599 0.09086 0.0
C393 C 0.5696 0.6615 0.4167 0.0
C394 C 0.57703 0.6265 0.36352 0.0
H395 H 0.55957 0.71942 0.39229 0.0
H396 H 0.56083 0.66334 0.50671 0.0
C397 C 0.58893 0.62568 0.2472 0.0
C398 C 0.86946 0.56072 0.35544 0.0
C399 C 0.87285 0.56874 0.23832 0.0
H400 H 0.89907 0.55055 0.50859 0.0
C401 C 0.90977 0.57956 0.19108 0.0
H402 H 0.84156 0.55197 0.39384 0.0
C403 C 0.94298 0.57763 0.25547 0.0
C404 C 0.93986 0.56545 0.3691 0.0
H405 H 0.91318 0.58586 0.10063 0.0
H406 H 0.97103 0.58316 0.21372 0.0
C407 C 0.90265 0.55931 0.42041 0.0
loop_
_geom_bond_atom_site_label_1
_geom_bond_atom_site_label_2
_geom_bond_distance
_geom_bond_site_symmetry_2
_ccdc_geom_bond_type
H0 C3 0.929 . S
H1 C6 0.929 1_556 S
H2 C8 0.930 . S
C3 H0 0.929 . S
C3 C4 1.398 . S
C3 C5 1.396 . S
C4 C3 1.398 . S
C4 C8 1.407 . S
C5 C3 1.396 . S
C5 C6 1.394 . S
C6 H1 0.929 1_554 S
C6 C5 1.394 . S
C6 C7 1.382 . S
C7 C6 1.382 . S
C7 C8 1.392 . S
C7 N9 1.420 . S
C8 H2 0.930 . S
C8 C4 1.407 . S
C8 C7 1.392 . S
N9 C7 1.420 . S
N9 C10 1.244 . S
C10 N9 1.244 . S
H11 C14 0.929 . S
H12 C17 0.929 . S
H13 C19 0.930 . S
C14 H11 0.929 . S
C14 C15 1.398 1_655 S
C14 C16 1.394 1_655 S
C15 C14 1.398 1_455 S
C15 C19 1.407 . S
C16 C14 1.394 1_455 S
C16 C17 1.399 1_554 S
C17 H12 0.929 . S
C17 C16 1.399 1_556 S
C17 C18 1.382 1_556 S
C18 C17 1.382 1_554 S
C18 C19 1.392 . S
C18 N20 1.420 . S
C19 H13 0.930 . S
C19 C15 1.407 . S
C19 C18 1.392 . S
N20 C18 1.420 . S
N20 C21 1.232 1_454 S
C21 N20 1.232 1_656 S
H22 C25 0.929 . S
H23 C28 0.929 . S
H24 C30 0.930 . S
C25 H22 0.929 . S
C25 C26 1.398 . S
C25 C27 1.396 1_554 S
C26 C25 1.398 . S
C26 C30 1.407 . S
C27 C25 1.396 1_556 S
C27 C28 1.394 . S
C28 H23 0.929 . S
C28 C27 1.394 . S
C28 C29 1.382 1_556 S
C29 C28 1.382 1_554 S
C29 C30 1.392 . S
C29 N31 1.420 . S
C30 H24 0.930 . S
C30 C26 1.407 . S
C30 C29 1.392 . S
N31 C29 1.420 . S
N31 C32 1.244 1_554 S
C32 N31 1.244 1_556 S
H33 C36 0.929 . S
H34 C39 0.929 1_556 S
H35 C41 0.930 . S
C36 H33 0.929 . S
C36 C37 1.398 . S
C36 C38 1.396 . S
C37 C36 1.398 . S
C37 C41 1.407 . S
C38 C36 1.396 . S
C38 C39 1.394 . S
C39 H34 0.929 1_554 S
C39 C38 1.394 . S
C39 C40 1.382 . S
C40 C39 1.382 . S
C40 C41 1.392 . S
C40 N42 1.420 . S
C41 H35 0.930 . S
C41 C37 1.407 . S
C41 C40 1.392 . S
N42 C40 1.420 . S
N42 C43 1.244 . S
C43 N42 1.244 . S
H44 C47 0.929 . S
H45 C50 0.929 . S
H46 C52 0.930 . S
C47 H44 0.929 . S
C47 C48 1.398 1_554 S
C47 C49 1.396 . S
C48 C47 1.398 1_556 S
C48 C52 1.407 . S
C49 C47 1.396 . S
C49 C50 1.394 . S
C50 H45 0.929 . S
C50 C49 1.394 . S
C50 C51 1.382 . S
C51 C50 1.382 . S
C51 C52 1.392 1_554 S
C51 N53 1.420 . S
C52 H46 0.930 . S
C52 C48 1.407 . S
C52 C51 1.392 1_556 S
N53 C51 1.420 . S
N53 C54 1.244 . S
C54 N53 1.244 . S
H55 C58 0.929 . S
H56 C61 0.929 . S
H57 C63 0.930 . S
C58 H55 0.929 . S
C58 C59 1.398 1_654 S
C58 C60 1.394 1_655 S
C59 C58 1.398 1_456 S
C59 C63 1.407 . S
C60 C58 1.394 1_455 S
C60 C61 1.396 . S
C61 H56 0.929 . S
C61 C60 1.396 . S
C61 C62 1.382 . S
C62 C61 1.382 . S
C62 C63 1.392 1_554 S
C62 N64 1.420 . S
C63 H57 0.930 . S
C63 C59 1.407 . S
C63 C62 1.392 1_556 S
N64 C62 1.420 . S
N64 C65 1.234 1_455 S
C65 N64 1.234 1_655 S
H66 C69 0.929 . S
H67 C72 0.929 . S
H68 C74 0.930 . S
C69 H66 0.929 . S
C69 C70 1.398 1_554 S
C69 C71 1.396 . S
C70 C69 1.398 1_556 S
C70 C74 1.407 . S
C71 C69 1.396 . S
C71 C72 1.394 . S
C72 H67 0.929 . S
C72 C71 1.394 . S
C72 C73 1.382 . S
C73 C72 1.382 . S
C73 C74 1.392 1_554 S
C73 N75 1.420 . S
C74 H68 0.930 . S
C74 C70 1.407 . S
C74 C73 1.392 1_556 S
N75 C73 1.420 . S
N75 C76 1.244 . S
C76 N75 1.244 . S
H77 C80 0.929 . S
H78 C83 0.929 . S
H79 C85 0.930 . S
C80 H77 0.929 . S
C80 C81 1.398 . S
C80 C82 1.396 1_556 S
C81 C80 1.398 . S
C81 C85 1.407 . S
C82 C80 1.396 1_554 S
C82 C83 1.394 . S
C83 H78 0.929 . S
C83 C82 1.394 . S
C83 C84 1.382 . S
C84 C83 1.382 . S
C84 C85 1.392 1_554 S
C84 N86 1.420 . S
C85 H79 0.930 . S
C85 C81 1.407 . S
C85 C84 1.392 1_556 S
N86 C84 1.420 . S
N86 C87 1.244 . S
C87 N86 1.244 . S
Dy88 O92 2.398 . S
Dy88 O93 2.491 1_455 S
Dy88 O94 2.403 . S
Dy88 O95 2.664 1_565 S
Dy88 O99 2.326 . S
Dy88 O103 2.310 1_455 S
Dy88 O104 2.351 1_565 S
C89 O100 1.185 . S
C89 O101 1.355 1_655 S
C90 O92 1.185 . S
C90 O93 1.355 1_455 S
Dy91 O95 2.310 1_655 S
Dy91 O98 2.351 1_545 S
Dy91 O100 2.398 . S
Dy91 O101 2.491 1_655 S
Dy91 O102 2.403 . S
Dy91 O103 2.664 1_545 S
Dy91 O105 2.326 . S
O92 Dy88 2.398 . S
O92 C90 1.185 . S
O93 Dy88 2.491 1_655 S
O93 C90 1.355 1_655 S
O94 Dy88 2.403 . S
O94 C96 1.254 1_565 S
O95 Dy88 2.664 1_545 S
O95 Dy91 2.310 1_455 S
O95 C96 1.268 . S
C96 O94 1.254 1_545 S
C96 O95 1.268 . S
C97 O102 1.254 1_565 S
C97 O103 1.268 . S
O98 Dy91 2.351 1_565 S
O98 C106 1.249 . S
O99 Dy88 2.326 . S
O99 C106 1.267 1_455 S
O100 C89 1.185 . S
O100 Dy91 2.398 . S
O101 C89 1.355 1_455 S
O101 Dy91 2.491 1_455 S
O102 Dy91 2.403 . S
O102 C97 1.254 1_545 S
O103 Dy88 2.310 1_655 S
O103 Dy91 2.664 1_565 S
O103 C97 1.268 . S
O104 Dy88 2.351 1_545 S
O104 C107 1.249 . S
O105 Dy91 2.326 . S
O105 C107 1.267 1_655 S
C106 O98 1.249 . S
C106 O99 1.267 1_655 S
C107 O104 1.249 . S
C107 O105 1.267 1_455 S
Dy108 O112 2.398 . S
Dy108 O113 2.491 1_565 S
Dy108 O114 2.403 . S
Dy108 O115 2.664 . S
Dy108 O119 2.326 1_565 S
Dy108 O123 2.310 1_565 S
Dy108 O124 2.351 . S
C109 O120 1.185 . S
C109 O121 1.355 1_545 S
C110 O112 1.183 . S
C110 O113 1.356 1_565 S
Dy111 O115 2.310 1_545 S
Dy111 O118 2.351 . S
Dy111 O120 2.398 . S
Dy111 O121 2.491 1_545 S
Dy111 O122 2.403 . S
Dy111 O123 2.664 . S
Dy111 O125 2.326 1_545 S
O112 Dy108 2.398 . S
O112 C110 1.183 . S
O113 Dy108 2.491 1_545 S
O113 C110 1.356 1_545 S
O114 Dy108 2.403 . S
O114 C116 1.254 . S
O115 Dy108 2.664 . S
O115 Dy111 2.310 1_565 S
O115 C116 1.268 . S
C116 O114 1.254 . S
C116 O115 1.268 . S
C117 O122 1.254 . S
C117 O123 1.268 . S
O118 Dy111 2.351 . S
O118 C126 1.249 . S
O119 Dy108 2.326 1_545 S
O119 C126 1.267 . S
O120 C109 1.185 . S
O120 Dy111 2.398 . S
O121 C109 1.355 1_565 S
O121 Dy111 2.491 1_565 S
O122 Dy111 2.403 . S
O122 C117 1.254 . S
O123 Dy108 2.310 1_545 S
O123 Dy111 2.664 . S
O123 C117 1.268 . S
O124 Dy108 2.351 . S
O124 C127 1.249 . S
O125 Dy111 2.326 1_565 S
O125 C127 1.267 . S
C126 O118 1.249 . S
C126 O119 1.267 . S
C127 O124 1.249 . S
C127 O125 1.267 . S
Dy128 O132 2.398 . S
Dy128 O133 2.491 . S
Dy128 O134 2.403 . S
Dy128 O135 2.664 . S
Dy128 O139 2.326 . S
Dy128 O143 2.310 . S
Dy128 O144 2.351 . S
C129 O140 1.185 . S
C129 O141 1.355 . S
C130 O132 1.185 . S
C130 O133 1.355 . S
Dy131 O135 2.310 . S
Dy131 O138 2.351 . S
Dy131 O140 2.398 . S
Dy131 O141 2.491 . S
Dy131 O142 2.403 . S
Dy131 O143 2.664 . S
Dy131 O145 2.326 . S
O132 Dy128 2.398 . S
O132 C130 1.185 . S
O133 Dy128 2.491 . S
O133 C130 1.355 . S
O134 Dy128 2.403 . S
O134 C136 1.254 . S
O135 Dy128 2.664 . S
O135 Dy131 2.310 . S
O135 C136 1.268 . S
C136 O134 1.254 . S
C136 O135 1.268 . S
C137 O142 1.254 . S
C137 O143 1.268 . S
O138 Dy131 2.351 . S
O138 C146 1.249 . S
O139 Dy128 2.326 . S
O139 C146 1.267 . S
O140 C129 1.185 . S
O140 Dy131 2.398 . S
O141 C129 1.355 . S
O141 Dy131 2.491 . S
O142 Dy131 2.403 . S
O142 C137 1.254 . S
O143 Dy128 2.310 . S
O143 Dy131 2.664 . S
O143 C137 1.268 . S
O144 Dy128 2.351 . S
O144 C147 1.249 . S
O145 Dy131 2.326 . S
O145 C147 1.267 . S
C146 O138 1.249 . S
C146 O139 1.267 . S
C147 O144 1.249 . S
C147 O145 1.267 . S
Dy148 O152 2.398 . S
Dy148 O153 2.491 . S
Dy148 O154 2.403 . S
Dy148 O155 2.664 1_655 S
Dy148 O159 2.326 . S
Dy148 O163 2.310 . S
Dy148 O164 2.351 1_655 S
C149 O160 1.185 . S
C149 O161 1.355 . S
C150 O152 1.185 . S
C150 O153 1.355 . S
Dy151 O155 2.310 . S
Dy151 O158 2.351 1_455 S
Dy151 O160 2.398 . S
Dy151 O161 2.491 . S
Dy151 O162 2.403 . S
Dy151 O163 2.664 1_455 S
Dy151 O165 2.326 . S
O152 Dy148 2.398 . S
O152 C150 1.185 . S
O153 Dy148 2.491 . S
O153 C150 1.355 . S
O154 Dy148 2.403 . S
O154 C156 1.254 . S
O155 Dy148 2.664 1_455 S
O155 Dy151 2.310 . S
O155 C156 1.268 1_455 S
C156 O154 1.254 . S
C156 O155 1.268 1_655 S
C157 O162 1.254 . S
C157 O163 1.268 1_455 S
O158 Dy151 2.351 1_655 S
O158 C166 1.249 . S
O159 Dy148 2.326 . S
O159 C166 1.267 . S
O160 C149 1.185 . S
O160 Dy151 2.398 . S
O161 C149 1.355 . S
O161 Dy151 2.491 . S
O162 Dy151 2.403 . S
O162 C157 1.254 . S
O163 Dy148 2.310 . S
O163 Dy151 2.664 1_655 S
O163 C157 1.268 1_655 S
O164 Dy148 2.351 1_455 S
O164 C167 1.249 . S
O165 Dy151 2.326 . S
O165 C167 1.267 . S
C166 O158 1.249 . S
C166 O159 1.267 . S
C167 O164 1.249 . S
C167 O165 1.267 . S
C168 C169 1.387 . S
C168 H172 0.950 . S
C168 C177 1.390 . S
C169 C168 1.387 . S
C169 C171 1.387 . S
H170 C177 0.950 1_565 S
C171 C169 1.387 . S
C171 C173 1.390 . S
C171 H175 0.950 . S
H172 C168 0.950 . S
C173 C171 1.390 . S
C173 C174 1.387 . S
C173 H176 0.950 . S
C174 C173 1.387 . S
C174 C177 1.387 . S
H175 C171 0.950 . S
H176 C173 0.950 . S
C177 C168 1.390 . S
C177 H170 0.950 1_545 S
C177 C174 1.387 . S
C178 C179 1.387 . S
C178 H182 0.950 . S
C178 C187 1.390 . S
C179 C178 1.387 . S
C179 C181 1.387 . S
H180 C187 0.950 . S
C181 C179 1.387 . S
C181 C183 1.390 . S
C181 H185 0.950 . S
H182 C178 0.950 . S
C183 C181 1.390 . S
C183 C184 1.387 . S
C183 H186 0.950 . S
C184 C183 1.387 . S
C184 C187 1.387 . S
H185 C181 0.950 . S
H186 C183 0.950 . S
C187 C178 1.390 . S
C187 H180 0.950 . S
C187 C184 1.387 . S
C188 C189 1.387 . S
C188 H192 0.950 . S
C188 C197 1.390 . S
C189 C188 1.387 . S
C189 C191 1.387 . S
H190 C197 0.950 . S
C191 C189 1.387 . S
C191 C193 1.390 . S
C191 H195 0.950 . S
H192 C188 0.950 . S
C193 C191 1.390 . S
C193 C194 1.387 . S
C193 H196 0.950 . S
C194 C193 1.387 . S
C194 C197 1.387 . S
H195 C191 0.950 . S
H196 C193 0.950 . S
C197 C188 1.390 . S
C197 H190 0.950 . S
C197 C194 1.387 . S
C198 C199 1.389 . S
C198 H202 0.950 . S
C198 C207 1.390 . S
C199 C198 1.389 . S
C199 C201 1.386 1_655 S
H200 C207 0.950 . S
C201 C199 1.386 1_455 S
C201 C203 1.390 . S
C201 H205 0.950 . S
H202 C198 0.950 . S
C203 C201 1.390 . S
C203 C204 1.359 1_455 S
C203 H206 0.950 . S
C204 C203 1.359 1_655 S
C204 C207 1.415 . S
H205 C201 0.950 . S
H206 C203 0.950 . S
C207 C198 1.390 . S
C207 H200 0.950 . S
C207 C204 1.415 . S
C208 C209 1.387 . S
C208 H212 0.950 . S
C208 C217 1.390 . S
C209 C208 1.387 . S
C209 C211 1.387 1_565 S
H210 C217 0.950 . S
C211 C209 1.387 1_545 S
C211 C213 1.390 . S
C211 H215 0.950 . S
H212 C208 0.950 . S
C213 C211 1.390 . S
C213 C214 1.387 1_545 S
C213 H216 0.950 . S
C214 C213 1.387 1_565 S
C214 C217 1.387 . S
H215 C211 0.950 . S
H216 C213 0.950 . S
C217 C208 1.390 . S
C217 H210 0.950 . S
C217 C214 1.387 . S
C218 C219 1.387 1_554 S
C218 H222 0.950 . S
C218 C227 1.390 1_554 S
C219 C218 1.387 1_556 S
C219 C221 1.387 . S
H220 C227 0.950 . S
C221 C219 1.387 . S
C221 C223 1.390 . S
C221 H225 0.950 . S
H222 C218 0.950 . S
C223 C221 1.390 . S
C223 C224 1.387 . S
C223 H226 0.950 . S
C224 C223 1.387 . S
C224 C227 1.387 . S
H225 C221 0.950 . S
H226 C223 0.950 . S
C227 C218 1.390 1_556 S
C227 H220 0.950 . S
C227 C224 1.387 . S
C228 C229 1.387 . S
C228 H232 0.950 . S
C228 C237 1.390 . S
C229 C228 1.387 . S
C229 C231 1.387 . S
H230 C237 0.950 . S
C231 C229 1.387 . S
C231 C233 1.390 . S
C231 H235 0.950 . S
H232 C228 0.950 . S
C233 C231 1.390 . S
C233 C234 1.387 . S
C233 H236 0.950 . S
C234 C233 1.387 . S
C234 C237 1.387 . S
H235 C231 0.950 . S
H236 C233 0.950 . S
C237 C228 1.390 . S
C237 H230 0.950 . S
C237 C234 1.387 . S
C238 C239 1.389 . S
C238 H242 0.950 . S
C238 C247 1.390 . S
C239 C238 1.389 . S
C239 C241 1.386 1_455 S
H240 C247 0.950 . S
C241 C239 1.386 1_655 S
C241 C243 1.390 . S
C241 H245 0.950 . S
H242 C238 0.950 . S
C243 C241 1.390 . S
C243 C244 1.387 1_655 S
C243 H246 0.950 . S
C244 C243 1.387 1_455 S
C244 C247 1.387 . S
H245 C241 0.950 . S
H246 C243 0.950 . S
C247 C238 1.390 . S
C247 H240 0.950 . S
C247 C244 1.387 . S
C248 C249 1.387 1_455 S
C248 H252 0.950 . S
C248 C257 1.390 . S
C249 C248 1.387 1_655 S
C249 C251 1.387 . S
H250 C257 0.950 . S
C251 C249 1.387 . S
C251 C253 1.390 . S
C251 H255 0.950 . S
H252 C248 0.950 . S
C253 C251 1.390 . S
C253 C254 1.387 . S
C253 H256 0.950 . S
C254 C253 1.387 . S
C254 C257 1.387 1_655 S
H255 C251 0.950 . S
H256 C253 0.950 . S
C257 C248 1.390 . S
C257 H250 0.950 . S
C257 C254 1.387 1_455 S
C258 C259 1.387 . S
C258 H262 0.950 . S
C258 C267 1.390 . S
C259 C258 1.387 . S
C259 C261 1.387 . S
H260 C267 0.950 1_565 S
C261 C259 1.387 . S
C261 C263 1.390 . S
C261 H265 0.950 . S
H262 C258 0.950 . S
C263 C261 1.390 . S
C263 C264 1.387 . S
C263 H266 0.950 . S
C264 C263 1.387 . S
C264 C267 1.387 . S
H265 C261 0.950 . S
H266 C263 0.950 . S
C267 C258 1.390 . S
C267 H260 0.950 1_545 S
C267 C264 1.387 . S
C268 C269 1.387 . S
C268 H272 0.950 . S
C268 C277 1.390 . S
C269 C268 1.387 . S
C269 C271 1.387 . S
H270 C277 0.950 . S
C271 C269 1.387 . S
C271 C273 1.390 . S
C271 H275 0.950 . S
H272 C268 0.950 . S
C273 C271 1.390 . S
C273 C274 1.387 . S
C273 H276 0.950 . S
C274 C273 1.387 . S
C274 C277 1.387 . S
H275 C271 0.950 . S
H276 C273 0.950 . S
C277 C268 1.390 . S
C277 H270 0.950 . S
C277 C274 1.387 . S
C278 C279 1.387 . S
C278 H282 0.950 . S
C278 C287 1.390 . S
C279 C278 1.387 . S
C279 C281 1.387 . S
H280 C287 0.950 . S
C281 C279 1.387 . S
C281 C283 1.390 . S
C281 H285 0.950 . S
H282 C278 0.950 . S
C283 C281 1.390 . S
C283 C284 1.387 . S
C283 H286 0.950 . S
C284 C283 1.387 . S
C284 C287 1.387 . S
H285 C281 0.950 . S
H286 C283 0.950 . S
C287 C278 1.390 . S
C287 H280 0.950 . S
C287 C284 1.387 . S
C288 C289 1.387 1_655 S
C288 H292 0.950 . S
C288 C297 1.390 . S
C289 C288 1.387 1_455 S
C289 C291 1.387 . S
H290 C297 0.950 . S
C291 C289 1.387 . S
C291 C293 1.390 . S
C291 H295 0.950 . S
H292 C288 0.950 . S
C293 C291 1.390 . S
C293 C294 1.387 . S
C293 H296 0.950 . S
C294 C293 1.387 . S
C294 C297 1.387 1_455 S
H295 C291 0.950 . S
H296 C293 0.950 . S
C297 C288 1.390 . S
C297 H290 0.950 . S
C297 C294 1.387 1_655 S
C298 C299 1.387 1_554 S
C298 H302 0.950 . S
C298 C307 1.390 . S
C299 C298 1.387 1_556 S
C299 C301 1.387 . S
H300 C307 0.950 1_545 S
C301 C299 1.387 . S
C301 C303 1.390 . S
C301 H305 0.950 . S
H302 C298 0.950 . S
C303 C301 1.390 . S
C303 C304 1.387 . S
C303 H306 0.950 . S
C304 C303 1.387 . S
C304 C307 1.387 1_556 S
H305 C301 0.950 . S
H306 C303 0.950 . S
C307 C298 1.390 . S
C307 H300 0.950 1_565 S
C307 C304 1.387 1_554 S
C308 C309 1.387 1_554 S
C308 H312 0.950 . S
C308 C317 1.390 1_554 S
C309 C308 1.387 1_556 S
C309 C311 1.387 . S
H310 C317 0.950 1_554 S
C311 C309 1.387 . S
C311 C313 1.390 . S
C311 H315 0.950 . S
H312 C308 0.950 . S
C313 C311 1.390 . S
C313 C314 1.387 . S
C313 H316 0.950 . S
C314 C313 1.387 . S
C314 C317 1.387 . S
H315 C311 0.950 . S
H316 C313 0.950 . S
C317 C308 1.390 1_556 S
C317 H310 0.950 1_556 S
C317 C314 1.387 . S
C318 C319 1.387 . S
C318 H322 0.950 . S
C318 C327 1.390 . S
C319 C318 1.387 . S
C319 C321 1.387 . S
H320 C327 0.950 . S
C321 C319 1.387 . S
C321 C323 1.390 . S
C321 H325 0.950 1_556 S
H322 C318 0.950 . S
C323 C321 1.390 . S
C323 C324 1.387 . S
C323 H326 0.950 . S
C324 C323 1.387 . S
C324 C327 1.387 . S
H325 C321 0.950 1_554 S
H326 C323 0.950 . S
C327 C318 1.390 . S
C327 H320 0.950 . S
C327 C324 1.387 . S
C328 C329 1.387 . S
C328 H332 0.950 . S
C328 C337 1.390 . S
C329 C328 1.387 . S
C329 C331 1.387 1_455 S
H330 C337 0.950 . S
C331 C329 1.387 1_655 S
C331 C333 1.390 . S
C331 H335 0.950 . S
H332 C328 0.950 . S
C333 C331 1.390 . S
C333 C334 1.387 1_655 S
C333 H336 0.950 . S
C334 C333 1.387 1_455 S
C334 C337 1.387 . S
H335 C331 0.950 . S
H336 C333 0.950 . S
C337 C328 1.390 . S
C337 H330 0.950 . S
C337 C334 1.387 . S
C338 C339 1.387 . S
C338 H342 0.950 . S
C338 C347 1.390 . S
C339 C338 1.387 . S
C339 C341 1.387 . S
H340 C347 0.950 1_565 S
C341 C339 1.387 . S
C341 C343 1.390 . S
C341 H345 0.950 . S
H342 C338 0.950 . S
C343 C341 1.390 . S
C343 C344 1.387 . S
C343 H346 0.950 . S
C344 C343 1.387 . S
C344 C347 1.387 . S
H345 C341 0.950 . S
H346 C343 0.950 . S
C347 C338 1.390 . S
C347 H340 0.950 1_545 S
C347 C344 1.387 . S
C348 C349 1.387 . S
C348 H352 0.950 . S
C348 C357 1.390 . S
C349 C348 1.387 . S
C349 C351 1.387 . S
H350 C357 0.950 . S
C351 C349 1.387 . S
C351 C353 1.390 . S
C351 H355 0.950 . S
H352 C348 0.950 . S
C353 C351 1.390 . S
C353 C354 1.387 . S
C353 H356 0.950 . S
C354 C353 1.387 . S
C354 C357 1.387 . S
H355 C351 0.950 . S
H356 C353 0.950 . S
C357 C348 1.390 . S
C357 H350 0.950 . S
C357 C354 1.387 . S
C358 C359 1.387 . S
C358 H362 0.950 . S
C358 C367 1.390 . S
C359 C358 1.387 . S
C359 C361 1.387 . S
H360 C367 0.950 . S
C361 C359 1.387 . S
C361 C363 1.390 . S
C361 H365 0.950 . S
H362 C358 0.950 . S
C363 C361 1.390 . S
C363 C364 1.387 . S
C363 H366 0.950 . S
C364 C363 1.387 . S
C364 C367 1.387 . S
H365 C361 0.950 . S
H366 C363 0.950 . S
C367 C358 1.390 . S
C367 H360 0.950 . S
C367 C364 1.387 . S
C368 C369 1.387 . S
C368 H372 0.950 . S
C368 C377 1.390 . S
C369 C368 1.387 . S
C369 C371 1.387 1_655 S
H370 C377 0.950 . S
C371 C369 1.387 1_455 S
C371 C373 1.390 . S
C371 H375 0.950 . S
H372 C368 0.950 . S
C373 C371 1.390 . S
C373 C374 1.387 1_455 S
C373 H376 0.950 . S
C374 C373 1.387 1_655 S
C374 C377 1.387 . S
H375 C371 0.950 . S
H376 C373 0.950 . S
C377 C368 1.390 . S
C377 H370 0.950 . S
C377 C374 1.387 . S
C378 C379 1.387 . S
C378 H382 0.950 1_565 S
C378 C387 1.390 . S
C379 C378 1.387 . S
C379 C381 1.387 . S
H380 C387 0.950 1_545 S
C381 C379 1.387 . S
C381 C383 1.390 . S
C381 H385 0.950 . S
H382 C378 0.950 1_545 S
C383 C381 1.390 . S
C383 C384 1.387 . S
C383 H386 0.950 . S
C384 C383 1.387 . S
C384 C387 1.387 . S
H385 C381 0.950 . S
H386 C383 0.950 . S
C387 C378 1.390 . S
C387 H380 0.950 1_565 S
C387 C384 1.387 . S
C388 C389 1.387 . S
C388 H392 0.950 . S
C388 C397 1.390 . S
C389 C388 1.387 . S
C389 C391 1.387 . S
H390 C397 0.950 . S
C391 C389 1.387 . S
C391 C393 1.390 . S
C391 H395 0.950 . S
H392 C388 0.950 . S
C393 C391 1.390 . S
C393 C394 1.387 . S
C393 H396 0.950 . S
C394 C393 1.387 . S
C394 C397 1.387 . S
H395 C391 0.950 . S
H396 C393 0.950 . S
C397 C388 1.390 . S
C397 H390 0.950 . S
C397 C394 1.387 . S
C398 C399 1.387 . S
C398 H402 0.950 . S
C398 C407 1.390 . S
C399 C398 1.387 . S
C399 C401 1.387 . S
H400 C407 0.950 . S
C401 C399 1.387 . S
C401 C403 1.390 . S
C401 H405 0.950 . S
H402 C398 0.950 . S
C403 C401 1.390 . S
C403 C404 1.387 . S
C403 H406 0.950 . S
C404 C403 1.387 . S
C404 C407 1.387 . S
H405 C401 0.950 . S
H406 C403 0.950 . S
C407 C398 1.390 . S
C407 H400 0.950 . S
C407 C404 1.387 . S
C169 C76 1.645 . S
C174 C96 1.741 . S
C184 C126 1.806 . S
C179 C87 1.723 . S
C194 C136 1.665 . S
C189 C54 1.545 . S
C204 C156 1.546 . S
C199 C65 1.451 . S
C214 C97 1.744 . S
C209 C32 1.657 . S
C219 C43 1.729 1_556 S
C224 C127 1.806 . S
C229 C10 1.546 1_556 S
C234 C137 1.665 . S
C239 C21 1.444 1_455 S
C244 C157 1.542 . S
C254 C89 1.034 . S
C249 C60 1.016 1_655 S
C264 C110 0.913 1_545 S
C259 C71 0.877 . S
C274 C129 1.171 . S
C269 C82 1.154 . S
C279 C49 0.944 . S
C284 C149 0.954 . S
C289 C16 1.014 1_556 S
C294 C90 1.032 . S
C304 C109 0.910 1_565 S
C299 C27 0.872 . S
C314 C130 1.172 . S
C309 C38 1.144 1_556 S
C319 C5 0.945 1_556 S
C324 C150 0.958 . S
C329 C59 1.544 . S
C334 C107 1.677 . S
C339 C70 1.476 . S
C344 C117 1.655 . S
C354 C147 1.852 . S
C349 C81 1.684 . S
C364 C167 1.832 . S
C359 C48 1.678 . S
C369 C15 1.547 1_655 S
C374 C106 1.675 . S
C384 C116 1.655 . S
C379 C26 1.470 . S
C394 C146 1.851 . S
C389 C37 1.680 . S
C399 C4 1.689 . S
C404 C166 1.835 . S
