# Generated by pormake.
# Topology zzz, (3,6)-cn, num edge types: 1
# Building blocks:
#     Node 0, Type 0, BuildingBlock: QEWDON_clean_linker_0, # of connection points: 3
#     Node 1, Type 0, BuildingBlock: QEWDON_clean_linker_0, # of connection points: 3
#     Node 2, Type 0, BuildingBlock: QEWDON_clean_linker_0, # of connection points: 3
#     Node 3, Type 0, BuildingBlock: QEWDON_clean_linker_0, # of connection points: 3
#     Node 4, Type 0, BuildingBlock: QEWDON_clean_linker_0, # of connection points: 3
#     Node 5, Type 0, BuildingBlock: QEWDON_clean_linker_0, # of connection points: 3
#     Node 6, Type 0, BuildingBlock: QEWDON_clean_linker_0, # of connection points: 3
#     Node 7, Type 0, BuildingBlock: QEWDON_clean_linker_0, # of connection points: 3
#     Node 8, Type 1, BuildingBlock: NUHQIS_clean_sbu_0, # of connection points: 6
#     Node 9, Type 1, BuildingBlock: NUHQIS_clean_sbu_0, # of connection points: 6
#     Node 10, Type 1, BuildingBlock: NUHQIS_clean_sbu_0, # of connection points: 6
#     Node 11, Type 1, BuildingBlock: NUHQIS_clean_sbu_0, # of connection points: 6
#     Edge 12, Type (0, 1), BuildingBlock: ZUJKAS_clean_linker_0, # of connection points: 2
#     Edge 13, Type (0, 1), BuildingBlock: ZUJKAS_clean_linker_0, # of connection points: 2
#     Edge 14, Type (0, 1), BuildingBlock: ZUJKAS_clean_linker_0, # of connection points: 2
#     Edge 15, Type (0, 1), BuildingBlock: ZUJKAS_clean_linker_0, # of connection points: 2
#     Edge 16, Type (0, 1), BuildingBlock: ZUJKAS_clean_linker_0, # of connection points: 2
#     Edge 17, Type (0, 1), BuildingBlock: ZUJKAS_clean_linker_0, # of connection points: 2
#     Edge 18, Type (0, 1), BuildingBlock: ZUJKAS_clean_linker_0, # of connection points: 2
#     Edge 19, Type (0, 1), BuildingBlock: ZUJKAS_clean_linker_0, # of connection points: 2
#     Edge 20, Type (0, 1), BuildingBlock: ZUJKAS_clean_linker_0, # of connection points: 2
#     Edge 21, Type (0, 1), BuildingBlock: ZUJKAS_clean_linker_0, # of connection points: 2
#     Edge 22, Type (0, 1), BuildingBlock: ZUJKAS_clean_linker_0, # of connection points: 2
#     Edge 23, Type (0, 1), BuildingBlock: ZUJKAS_clean_linker_0, # of connection points: 2
#     Edge 24, Type (0, 1), BuildingBlock: ZUJKAS_clean_linker_0, # of connection points: 2
#     Edge 25, Type (0, 1), BuildingBlock: ZUJKAS_clean_linker_0, # of connection points: 2
#     Edge 26, Type (0, 1), BuildingBlock: ZUJKAS_clean_linker_0, # of connection points: 2
#     Edge 27, Type (0, 1), BuildingBlock: ZUJKAS_clean_linker_0, # of connection points: 2
#     Edge 28, Type (0, 1), BuildingBlock: ZUJKAS_clean_linker_0, # of connection points: 2
#     Edge 29, Type (0, 1), BuildingBlock: ZUJKAS_clean_linker_0, # of connection points: 2
#     Edge 30, Type (0, 1), BuildingBlock: ZUJKAS_clean_linker_0, # of connection points: 2
#     Edge 31, Type (0, 1), BuildingBlock: ZUJKAS_clean_linker_0, # of connection points: 2
#     Edge 32, Type (0, 1), BuildingBlock: ZUJKAS_clean_linker_0, # of connection points: 2
#     Edge 33, Type (0, 1), BuildingBlock: ZUJKAS_clean_linker_0, # of connection points: 2
#     Edge 34, Type (0, 1), BuildingBlock: ZUJKAS_clean_linker_0, # of connection points: 2
#     Edge 35, Type (0, 1), BuildingBlock: ZUJKAS_clean_linker_0, # of connection points: 2
# Relax obj value: 0.125
# Max RMSD: 0.127
# Mean RMSD: 0.094
data_MOF--net-zzz--node1-NUHQIS_clean_sbu_0--node2-QEWDON_clean_linker_0--edge1-ZUJKAS_clean_linker_0
_symmetry_space_group_name_H-M    P1
_symmetry_Int_Tables_number       1
_symmetry_cell_setting            triclinic
loop_
_symmetry_equiv_pos_as_xyz
'x, y, z'
_cell_length_a     72.135015
_cell_length_b     72.147378
_cell_length_c     17.228387
_cell_angle_alpha  89.887404
_cell_angle_beta   90.121763
_cell_angle_gamma 89.912018
loop_
_atom_site_label
_atom_site_type_symbol
_atom_site_fract_x
_atom_site_fract_y
_atom_site_fract_z
_atom_type_partial_charge
H0 H 0.75366 0.52072 0.15033 0.0
C1 C 0.76374 0.52001 0.19675 0.0
C2 C 0.78147 0.51354 0.1786 0.0
C3 C 0.75949 0.52628 0.2723 0.0
H4 H 0.80913 0.50856 0.21973 0.0
C5 C 0.79535 0.51335 0.23521 0.0
C6 C 0.79194 0.51957 0.31059 0.0
C7 C 0.77394 0.52595 0.32925 0.0
C8 C 0.74038 0.53388 0.28959 0.0
H9 H 0.77137 0.53031 0.38824 0.0
C10 C 0.72458 0.52918 0.2437 0.0
C11 C 0.70708 0.53759 0.25641 0.0
C12 C 0.73788 0.54674 0.35013 0.0
H13 H 0.74936 0.55139 0.38541 0.0
C14 C 0.7205 0.55436 0.36529 0.0
H15 H 0.72579 0.51928 0.19707 0.0
C16 C 0.70528 0.5499 0.31911 0.0
H17 H 0.69205 0.55619 0.33267 0.0
H18 H 0.71888 0.5641 0.41252 0.0
H19 H 1.00499 0.76172 0.10863 0.0
C20 C 1.00684 0.77128 0.15629 0.0
C21 C 1.01261 0.78937 0.13921 0.0
C22 C 1.00259 0.76598 0.23325 0.0
H23 H 0.01862 0.81637 0.1852 0.0
C24 C 0.0143 0.80235 0.19906 0.0
C25 C 1.01018 0.79776 0.27597 0.0
C26 C 1.00445 0.77952 0.29298 0.0
C27 C 0.99532 0.74678 0.25021 0.0
H28 H 1.00171 0.77601 0.35292 0.0
C29 C 0.99937 0.73131 0.20173 0.0
C30 C 0.99142 0.71367 0.21604 0.0
C31 C 0.98343 0.74392 0.31391 0.0
H32 H 0.97923 0.75522 0.35107 0.0
C33 C 0.97624 0.72644 0.33008 0.0
H34 H 1.00842 0.73293 0.15225 0.0
C35 C 0.98018 0.71148 0.28198 0.0
H36 H 0.97431 0.69812 0.29661 0.0
H37 H 0.96728 0.72453 0.37978 0.0
H38 H 0.76598 1.00625 0.13023 0.0
C39 C 0.7565 1.00854 0.1779 0.0
C40 C 0.73829 0.01395 0.16083 0.0
C41 C 0.76208 1.00506 0.25519 0.0
H42 H 0.71145 0.02029 0.20751 0.0
C43 C 0.72555 0.01621 0.22132 0.0
C44 C 0.73043 1.01288 0.29875 0.0
C45 C 0.74878 1.00733 0.31551 0.0
C46 C 0.78128 0.99781 0.27154 0.0
H47 H 0.75263 1.00498 0.37547 0.0
C48 C 0.79664 1.00232 0.22343 0.0
C49 C 0.81415 0.99389 0.23515 0.0
C50 C 0.78414 0.98523 0.33303 0.0
H51 H 0.77283 0.98091 0.37003 0.0
C52 C 0.80154 0.97741 0.34633 0.0
H53 H 0.79499 1.01201 0.17588 0.0
C54 C 0.81638 0.98158 0.29775 0.0
H55 H 0.82967 0.97511 0.30916 0.0
H56 H 0.80346 0.96775 0.39386 0.0
H57 H 0.51864 0.77064 0.1562 0.0
C58 C 0.51777 0.76031 0.20166 0.0
C59 C 0.5122 0.74243 0.18118 0.0
C60 C 0.52303 0.76448 0.27863 0.0
H61 H 0.50769 0.71455 0.2202 0.0
C62 C 0.5118 0.72842 0.23726 0.0
C63 C 0.51693 0.73186 0.31425 0.0
C64 C 0.52254 0.74995 0.33489 0.0
C65 C 0.52983 0.78366 0.2982 0.0
H66 H 0.5262 0.7526 0.39477 0.0
C67 C 0.52424 0.79947 0.25452 0.0
C68 C 0.53174 0.8172 0.26949 0.0
C69 C 0.54281 0.78624 0.35842 0.0
H70 H 0.54802 0.77467 0.39198 0.0
C71 C 0.54984 0.8038 0.37487 0.0
H72 H 0.51395 0.79818 0.2091 0.0
C73 C 0.54446 0.81912 0.3308 0.0
H74 H 0.5507 0.83242 0.3435 0.0
H75 H 0.55988 0.80548 0.42111 0.0
H76 H 0.27152 0.52145 0.22282 0.0
C77 C 0.26068 0.51786 0.18199 0.0
C78 C 0.24234 0.51747 0.20822 0.0
C79 C 0.26502 0.51415 0.10381 0.0
H80 H 0.21376 0.51409 0.17514 0.0
C81 C 0.22803 0.51362 0.1555 0.0
C82 C 0.23165 0.51016 0.077 0.0
C83 C 0.25023 0.51042 0.05122 0.0
C84 C 0.28488 0.51527 0.07775 0.0
H85 H 0.25306 0.5075 0.99079 0.0
C86 C 0.2998 0.51104 0.12895 0.0
C87 C 0.31847 0.51386 0.10678 0.0
C88 C 0.28914 0.52175 0.00285 0.0
H89 H 0.2783 0.52559 0.96234 0.0
C90 C 0.30751 0.52412 0.97988 0.0
H91 H 0.29696 0.50548 0.18605 0.0
C92 C 0.32202 0.5204 0.03126 0.0
H93 H 0.33604 0.52313 0.01212 0.0
H94 H 0.31052 0.52933 0.92231 0.0
H95 H 0.99752 0.26742 0.2367 0.0
C96 C 1.00318 0.25688 0.19878 0.0
C97 C 1.00173 0.23826 0.22114 0.0
C98 C 1.01126 0.26184 0.1272 0.0
H99 H 1.0063 0.20992 0.18722 0.0
C100 C 1.00817 0.22436 0.17129 0.0
C101 C 0.01571 0.22865 0.09877 0.0
C102 C 0.01736 0.24743 0.07696 0.0
C103 C 1.01207 0.2819 0.10357 0.0
H104 H 0.02346 0.25069 0.02123 0.0
C105 C 0.01397 0.29632 0.15917 0.0
C106 C 1.01301 0.31517 0.13672 0.0
C107 C 1.00984 0.28685 0.02502 0.0
H108 H 1.00785 0.27644 0.98069 0.0
C109 C 1.00948 0.30541 0.00242 0.0
H110 H 0.01581 0.293 0.22 0.0
C111 C 1.01095 0.31944 0.05756 0.0
H112 H 1.01046 0.33373 0.03813 0.0
H113 H 1.00774 0.30896 0.94176 0.0
H114 H 0.25691 1.0007 0.24073 0.0
C115 C 0.26743 1.00488 0.19954 0.0
C116 C 0.2859 1.00575 0.22452 0.0
C117 C 0.2626 1.00877 0.12186 0.0
H118 H 0.31418 1.01034 0.18967 0.0
C119 C 0.2998 1.0104 0.17117 0.0
C120 C 0.29565 0.01395 0.09315 0.0
C121 C 0.27699 0.01317 0.06856 0.0
C122 C 0.24271 1.0071 0.09661 0.0
H123 H 0.2738 0.01617 0.00841 0.0
C124 C 0.22783 1.01093 0.14818 0.0
C125 C 0.20918 1.00794 0.12593 0.0
C126 C 0.23844 1.00064 0.02172 0.0
H127 H 0.24927 0.99706 0.98102 0.0
C128 C 0.22008 0.99799 0.99892 0.0
H129 H 0.2307 0.01637 0.20546 0.0
C130 C 0.2056 1.00146 0.0504 0.0
H131 H 0.19159 0.99861 0.03133 0.0
H132 H 0.21706 0.99281 0.94134 0.0
H133 H 0.52954 0.25363 0.23396 0.0
C134 C 0.5252 0.26492 0.19665 0.0
C135 C 0.53007 0.28295 0.21796 0.0
C136 C 0.51588 0.26149 0.12594 0.0
H137 H 0.5294 0.31172 0.187 0.0
C138 C 0.52569 0.2978 0.16908 0.0
C139 C 0.51681 0.29508 0.0977 0.0
C140 C 0.51143 0.2769 0.07729 0.0
C141 C 0.51249 0.2418 0.10061 0.0
H142 H 0.50428 0.27483 0.02275 0.0
C143 C 0.5105 0.22708 0.15511 0.0
C144 C 0.50982 0.20841 0.13055 0.0
C145 C 0.51278 0.23728 0.02106 0.0
H146 H 0.5148 0.24779 0.97705 0.0
C147 C 0.51129 0.21893 0.99662 0.0
H148 H 0.51004 0.22996 0.21669 0.0
C149 C 0.51001 0.20461 0.05067 0.0
H150 H 0.50925 0.19046 0.02993 0.0
H151 H 0.51161 0.21574 0.93526 0.0
Tb152 Tb 0.02461 1.00535 0.7647 0.0
Eu153 Eu 1.00046 0.02039 0.61754 0.0
C154 C 0.04399 0.01327 0.60262 0.0
C155 C 0.0172 0.04823 0.74701 0.0
C156 C 0.05396 0.97309 0.86887 0.0
C157 C 0.06836 0.94892 0.79122 0.0
C158 C 0.06252 0.96728 0.79981 0.0
C159 C 0.05227 0.96057 0.93056 0.0
C160 C 0.05791 0.94218 0.92175 0.0
C161 C 0.06548 0.93595 0.85103 0.0
C162 C 0.0435 0.99059 0.87128 0.0
O163 O 0.99538 1.00121 0.79518 0.0
O164 O 0.98269 0.02448 0.72309 0.0
O165 O 0.99709 0.98916 0.61738 0.0
O166 O 0.02349 0.98195 0.68494 0.0
C167 C 0.98159 1.01264 0.78048 0.0
O168 O 0.97391 0.02199 0.55685 0.0
O169 O 0.99779 0.03645 0.51089 0.0
O170 O 0.02796 1.01195 0.56684 0.0
O171 O 0.04493 0.01464 0.67871 0.0
O172 O 0.0189 0.03418 0.79547 0.0
O173 O 0.01367 0.04558 0.67288 0.0
C174 C 1.00965 0.97703 0.63981 0.0
O175 O 0.04957 1.00414 0.8282 0.0
O176 O 0.02569 0.98852 0.86399 0.0
C177 C 0.96928 0.0518 0.50621 0.0
C178 C 0.95232 0.08693 0.499 0.0
C179 C 0.95047 0.07431 0.43712 0.0
C180 C 0.95897 0.05688 0.44064 0.0
C181 C 0.97035 0.06392 0.56962 0.0
C182 C 0.96199 0.08134 0.56605 0.0
C183 C 0.97983 0.03443 0.50782 0.0
H184 H 0.07439 0.94473 0.73647 0.0
H185 H 0.06375 0.97664 0.75081 0.0
H186 H 0.04541 0.96469 0.98372 0.0
H187 H 0.05511 0.93263 0.9688 0.0
H188 H 0.94292 0.07811 0.38506 0.0
H189 H 0.95793 0.0476 0.39145 0.0
H190 H 0.97826 0.06016 0.62086 0.0
H191 H 0.96396 0.09075 0.61425 0.0
Tb192 Tb 0.52047 0.02508 0.77321 0.0
Eu193 Eu 0.5074 0.99988 0.62802 0.0
C194 C 0.5112 0.04364 0.6141 0.0
C195 C 0.47797 0.01502 0.75321 0.0
C196 C 0.55188 0.05463 0.87783 0.0
C197 C 0.57699 0.06818 0.80275 0.0
C198 C 0.55829 0.0635 0.81026 0.0
C199 C 0.56419 0.05158 0.93943 0.0
C200 C 0.58291 0.05603 0.93161 0.0
C201 C 0.58968 0.06382 0.86212 0.0
C202 C 0.53384 0.04513 0.87813 0.0
O203 O 0.51303 0.99828 0.82352 0.0
O204 O 0.52006 0.98082 0.7177 0.0
O205 O 0.5369 1.00732 0.59826 0.0
O206 O 0.54617 0.01419 0.7225 0.0
C207 C 0.51714 0.98217 0.79257 0.0
O208 O 0.50363 0.97255 0.57597 0.0
O209 O 0.49416 0.9969 0.51457 0.0
O210 O 0.50019 0.02964 0.59908 0.0
O211 O 0.5235 0.04233 0.66993 0.0
O212 O 0.49013 0.0276 0.77529 0.0
O213 O 0.4828 1.00123 0.70801 0.0
C214 C 0.55008 1.01073 0.64919 0.0
O215 O 0.52145 0.05103 0.82853 0.0
O216 O 0.53508 0.0271 0.87817 0.0
C217 C 0.47341 0.97196 0.52239 0.0
C218 C 0.43503 0.96724 0.54409 0.0
C219 C 0.44761 0.95933 0.59668 0.0
C220 C 0.46666 0.96176 0.58622 0.0
C221 C 0.46082 0.97852 0.4666 0.0
C222 C 0.44178 0.97626 0.47755 0.0
C223 C 0.49263 0.97898 0.52215 0.0
H224 H 0.5816 0.07448 0.74909 0.0
H225 H 0.54913 0.06586 0.76134 0.0
H226 H 0.5596 0.0445 0.99148 0.0
H227 H 0.59221 0.05216 0.97829 0.0
H228 H 0.44272 0.9523 0.64832 0.0
H229 H 0.47596 0.95661 0.63076 0.0
H230 H 0.46563 0.98646 0.41716 0.0
H231 H 0.4323 0.9822 0.43542 0.0
Tb232 Tb 0.50013 0.51939 0.75408 0.0
Eu233 Eu 0.52588 0.50368 0.61506 0.0
C234 C 0.48236 0.50849 0.59478 0.0
C235 C 0.50734 0.47625 0.74296 0.0
C236 C 0.48089 0.55629 0.86358 0.0
C237 C 0.46359 0.58486 0.88122 0.0
C238 C 0.46472 0.56551 0.88673 0.0
C239 C 0.49598 0.56664 0.83603 0.0
C240 C 0.4948 0.58583 0.82967 0.0
C241 C 0.47855 0.59522 0.85145 0.0
C242 C 0.48118 0.53607 0.85417 0.0
O243 O 0.52902 0.52646 0.78131 0.0
O244 O 0.54188 0.50099 0.7268 0.0
O245 O 0.5295 0.53487 0.60862 0.0
O246 O 0.50301 0.54262 0.67399 0.0
C247 C 0.54274 0.5145 0.77713 0.0
O248 O 0.55301 0.50121 0.56023 0.0
O249 O 0.5294 0.48676 0.51135 0.0
O250 O 0.4984 0.51148 0.56115 0.0
O251 O 0.48139 0.50633 0.67052 0.0
O252 O 0.50416 0.49048 0.78899 0.0
O253 O 0.51269 0.47855 0.67063 0.0
C254 C 0.51712 0.54724 0.63006 0.0
O255 O 0.47449 0.53051 0.78805 0.0
O256 O 0.49688 0.52788 0.87013 0.0
C257 C 0.55735 0.47041 0.51788 0.0
C258 C 0.56956 0.43344 0.53388 0.0
C259 C 0.57006 0.44558 0.59758 0.0
C260 C 0.56391 0.46385 0.58978 0.0
C261 C 0.55782 0.45871 0.45325 0.0
C262 C 0.56385 0.44038 0.4611 0.0
C263 C 0.54742 0.4882 0.51311 0.0
H264 H 0.45097 0.59168 0.8997 0.0
H265 H 0.45282 0.55773 0.90673 0.0
H266 H 0.50847 0.55981 0.81602 0.0
H267 H 0.50646 0.59321 0.80502 0.0
H268 H 0.57457 0.44078 0.65416 0.0
H269 H 0.56349 0.47257 0.64087 0.0
H270 H 0.55256 0.46342 0.39765 0.0
H271 H 0.56295 0.43139 0.411 0.0
Tb272 Tb 1.00557 0.50249 0.75139 0.0
Eu273 Eu 0.02057 0.52586 0.60359 0.0
C274 C 0.01668 0.48195 0.59955 0.0
C275 C 0.04865 0.50983 0.73471 0.0
C276 C 0.96978 0.48363 0.871 0.0
C277 C 0.94221 0.46554 0.89848 0.0
C278 C 0.96152 0.46749 0.90007 0.0
C279 C 0.95854 0.49794 0.84194 0.0
C280 C 0.93937 0.49596 0.83969 0.0
C281 C 0.93094 0.47964 0.86692 0.0
C282 C 0.98981 0.48439 0.85716 0.0
O283 O 0.9987 0.53158 0.7745 0.0
O284 O 0.02279 0.54426 0.70857 0.0
O285 O 0.98966 0.53092 0.60056 0.0
O286 O 0.98193 0.5052 0.6719 0.0
C287 C 1.01006 0.54549 0.76229 0.0
O288 O 0.03055 0.55179 0.55253 0.0
O289 O 0.03036 0.52678 0.48382 0.0
O290 O 0.0131 0.49724 0.56108 0.0
O291 O 0.01905 0.48246 0.67508 0.0
O292 O 0.03467 0.50724 0.78274 0.0
O293 O 0.04592 0.51347 0.66076 0.0
C294 C 0.97723 0.51901 0.62567 0.0
O295 O 0.99471 0.47725 0.79105 0.0
O296 O 0.99775 0.50039 0.86876 0.0
C297 C 0.05795 0.54418 0.48723 0.0
C298 C 0.09658 0.54658 0.51242 0.0
C299 C 0.08617 0.5625 0.49316 0.0
C300 C 0.06699 0.56131 0.48112 0.0
C301 C 0.06848 0.5282 0.50295 0.0
C302 C 0.08747 0.52939 0.51567 0.0
C303 C 0.03759 0.54321 0.49292 0.0
H304 H 0.93615 0.45292 0.92109 0.0
H305 H 0.97002 0.45617 0.92141 0.0
H306 H 0.96464 0.51035 0.8174 0.0
H307 H 0.93123 0.50697 0.81363 0.0
H308 H 0.09277 0.57592 0.48847 0.0
H309 H 0.05911 0.57385 0.47018 0.0
H310 H 0.06194 0.51479 0.50986 0.0
H311 H 0.09479 0.51686 0.53193 0.0
H312 H 0.17444 0.0219 0.09451 0.0
H313 H 0.1476 0.02326 0.18049 0.0
H314 H 0.18082 1.00225 0.36928 0.0
H315 H 0.20775 1.00029 0.28297 0.0
H316 H 0.13266 0.99093 0.265 0.0
H317 H 0.15302 0.049 0.45922 0.0
H318 H 0.16298 0.04594 0.36393 0.0
H319 H 0.16998 0.03113 0.44244 0.0
C320 C 0.17613 0.01751 0.15424 0.0
C321 C 0.19336 1.01081 0.18123 0.0
C322 C 0.16073 0.01841 0.20351 0.0
C323 C 0.16215 1.01292 0.28144 0.0
C324 C 0.17941 1.00677 0.30957 0.0
H325 H 0.0798 1.00942 0.65497 0.0
H326 H 0.10834 1.00878 0.57834 0.0
C327 C 0.19485 1.00574 0.26008 0.0
C328 C 0.1453 1.01272 0.33159 0.0
H329 H 0.12492 0.03376 0.48744 0.0
C330 C 0.13096 1.0003 0.31365 0.0
C331 C 0.14314 0.0248 0.3955 0.0
C332 C 0.158 0.03859 0.4166 0.0
C333 C 0.11459 0.99955 0.35795 0.0
C334 C 0.11215 1.012 0.42076 0.0
C335 C 0.12664 0.02427 0.43925 0.0
C336 C 0.09466 1.01256 0.46751 0.0
C337 C 0.10029 0.98506 0.33792 0.0
C338 C 0.07734 0.01519 0.43137 0.0
C339 C 0.06095 0.01537 0.47503 0.0
C340 C 0.06145 0.01328 0.55626 0.0
C341 C 0.07883 1.01109 0.5926 0.0
C342 C 0.09522 1.01073 0.54876 0.0
H343 H 0.10661 0.97318 0.30659 0.0
H344 H 0.0933 0.97971 0.39074 0.0
H345 H 0.08966 0.9913 0.29923 0.0
H346 H 0.07647 0.0172 0.36918 0.0
H347 H 0.04788 0.0173 0.44501 0.0
H348 H 0.48745 0.20301 0.25813 0.0
H349 H 0.48644 0.17574 0.34373 0.0
H350 H 0.53162 0.15118 0.21629 0.0
H351 H 0.53224 0.17801 0.12975 0.0
H352 H 0.50593 0.12634 0.23821 0.0
H353 H 0.51906 0.16064 0.52041 0.0
H354 H 0.49909 0.16967 0.4709 0.0
H355 H 0.52175 0.17256 0.42905 0.0
C356 C 0.49728 0.19186 0.24913 0.0
C357 C 0.50988 0.19266 0.18701 0.0
C358 C 0.49676 0.17629 0.29831 0.0
C359 C 0.50911 0.16136 0.28745 0.0
C360 C 0.52189 0.16238 0.22614 0.0
H361 H 0.5356 0.07271 0.61243 0.0
H362 H 0.53436 0.10081 0.53313 0.0
C363 C 0.52224 0.17777 0.17659 0.0
C364 C 0.50843 0.14432 0.33731 0.0
H365 H 0.51072 0.12883 0.52503 0.0
C366 C 0.507 0.12694 0.30096 0.0
C367 C 0.51004 0.14492 0.4193 0.0
C368 C 0.51276 0.16292 0.46225 0.0
C369 C 0.50723 0.11028 0.34369 0.0
C370 C 0.50831 0.11089 0.42581 0.0
C371 C 0.5097 0.12827 0.46227 0.0
C372 C 0.50875 0.09369 0.47472 0.0
C373 C 0.50696 0.09218 0.29986 0.0
C374 C 0.49467 0.08026 0.4695 0.0
C375 C 0.49548 0.06399 0.51425 0.0
C376 C 0.51021 0.0609 0.56642 0.0
C377 C 0.52405 0.07456 0.57287 0.0
C378 C 0.52334 0.09071 0.52754 0.0
H379 H 0.51165 0.09399 0.23892 0.0
H380 H 0.51597 0.08166 0.32826 0.0
H381 H 0.49258 0.08677 0.29827 0.0
H382 H 0.48298 0.08237 0.43102 0.0
H383 H 0.48446 0.0539 0.50836 0.0
H384 H 0.35338 0.50022 0.07576 0.0
H385 H 0.38012 0.49855 0.16279 0.0
H386 H 0.34656 0.51843 0.35166 0.0
H387 H 0.31977 0.52083 0.26437 0.0
H388 H 0.39406 0.53158 0.25551 0.0
H389 H 0.37509 0.47002 0.43352 0.0
H390 H 0.366 0.47364 0.3368 0.0
H391 H 0.35754 0.48733 0.41588 0.0
C392 C 0.35159 0.50433 0.13568 0.0
C393 C 0.33429 0.51083 0.16239 0.0
C394 C 0.36693 0.50324 0.18555 0.0
C395 C 0.36537 0.50831 0.26381 0.0
C396 C 0.34806 0.51426 0.29163 0.0
H397 H 0.44619 0.50893 0.64447 0.0
H398 H 0.41795 0.50924 0.56529 0.0
C399 C 0.3327 0.51553 0.24154 0.0
C400 C 0.38211 0.50826 0.3149 0.0
H401 H 0.40283 0.4854 0.46612 0.0
C402 C 0.396 0.52148 0.30157 0.0
C403 C 0.38454 0.49522 0.37545 0.0
C404 C 0.3701 0.48063 0.39155 0.0
C405 C 0.41219 0.52211 0.34736 0.0
C406 C 0.41494 0.50872 0.40678 0.0
C407 C 0.40089 0.49561 0.42054 0.0
C408 C 0.43225 0.50812 0.45507 0.0
C409 C 0.42593 0.53748 0.33271 0.0
C410 C 0.44983 0.507 0.42013 0.0
C411 C 0.46603 0.50702 0.46532 0.0
C412 C 0.4651 0.50779 0.54686 0.0
C413 C 0.44748 0.50832 0.58191 0.0
C414 C 0.43128 0.5085 0.53659 0.0
H415 H 0.41923 0.54959 0.3042 0.0
H416 H 0.4325 0.5422 0.38752 0.0
H417 H 0.43695 0.53236 0.29334 0.0
H418 H 0.45106 0.50609 0.35764 0.0
H419 H 0.47931 0.50639 0.43621 0.0
H420 H 0.99021 0.34534 0.14447 0.0
H421 H 0.99225 0.37194 0.23174 0.0
H422 H 0.03889 0.34676 0.34814 0.0
H423 H 0.03699 0.31999 0.2601 0.0
H424 H 0.99086 0.37344 0.39926 0.0
H425 H 0.0576 0.39923 0.27935 0.0
H426 H 0.04328 0.38273 0.22829 0.0
H427 H 0.05698 0.37536 0.30978 0.0
C428 C 1.00094 0.34543 0.18858 0.0
C429 C 0.01357 0.33059 0.19469 0.0
C430 C 1.00202 0.36063 0.23872 0.0
C431 C 0.01586 0.36152 0.29593 0.0
C432 C 0.02823 0.34652 0.30379 0.0
H433 H 0.01916 0.44685 0.6612 0.0
H434 H 0.01963 0.41725 0.59163 0.0
C435 C 0.02704 0.33116 0.25387 0.0
C436 C 0.01734 0.37834 0.34593 0.0
H437 H 0.04414 0.41659 0.38037 0.0
C438 C 1.00259 0.38278 0.3957 0.0
C439 C 0.03254 0.39069 0.34056 0.0
C440 C 0.04849 0.38694 0.28633 0.0
C441 C 1.00259 0.39921 0.43987 0.0
C442 C 0.01777 0.41156 0.43445 0.0
C443 C 0.03256 0.40709 0.38491 0.0
C444 C 0.01814 0.42955 0.47718 0.0
C445 C 0.98606 0.40352 0.49027 0.0
C446 C 0.01752 0.44638 0.43617 0.0
C447 C 0.01721 0.46335 0.47577 0.0
C448 C 0.01771 0.46391 0.55746 0.0
C449 C 0.01874 0.447 0.59836 0.0
C450 C 0.01892 0.43003 0.55866 0.0
H451 H 0.97406 0.39443 0.47693 0.0
H452 H 0.98989 0.40144 0.55209 0.0
H453 H 0.98174 0.4182 0.48284 0.0
H454 H 0.01697 0.44639 0.37333 0.0
H455 H 0.01648 0.47604 0.44222 0.0
H456 H 0.83695 0.96804 0.17019 0.0
H457 H 0.8646 0.97304 0.0911 0.0
H458 H 0.85542 0.03204 0.09912 0.0
H459 H 0.82759 0.02711 0.17904 0.0
H460 H 0.86838 0.99221 0.94343 0.0
H461 H 0.90991 0.0241 0.18058 0.0
H462 H 0.8893 1.01063 0.19923 0.0
H463 H 0.88731 0.03383 0.16249 0.0
C464 C 0.84078 0.98211 0.15519 0.0
C465 C 0.83012 0.99719 0.18163 0.0
C466 C 0.85658 0.98493 0.10968 0.0
C467 C 0.86228 1.00291 0.08995 0.0
C468 C 0.85144 0.01804 0.11444 0.0
H469 H 0.94888 0.03105 0.75415 0.0
H470 H 0.92008 0.02917 0.82839 0.0
C471 C 0.83546 0.0152 0.15956 0.0
C472 C 0.87967 1.0056 0.04445 0.0
H473 H 0.92432 0.02132 0.0583 0.0
C474 C 0.88056 0.9987 0.96835 0.0
C475 C 0.89567 0.01382 0.0773 0.0
C476 C 0.89569 0.02094 0.15956 0.0
C477 C 0.89695 0.99986 0.92426 0.0
C478 C 0.91292 1.00818 0.95694 0.0
C479 C 0.91206 0.01502 0.03314 0.0
C480 C 0.93068 1.00966 0.913 0.0
C481 C 0.8972 0.99182 0.84351 0.0
C482 C 0.9464 0.99955 0.93645 0.0
C483 C 0.96295 1.00052 0.89381 0.0
C484 C 0.9642 1.0118 0.82723 0.0
C485 C 0.94849 0.02217 0.8049 0.0
C486 C 0.93194 0.02108 0.84717 0.0
H487 H 0.88504 0.98278 0.83242 0.0
H488 H 0.89698 1.00328 0.80044 0.0
H489 H 0.91006 0.98365 0.83404 0.0
H490 H 0.94578 0.99069 0.9872 0.0
H491 H 0.97474 0.99239 0.913 0.0
H492 H 0.52463 0.85293 0.31542 0.0
H493 H 0.52051 0.88039 0.23375 0.0
H494 H 0.525 0.84646 0.02892 0.0
H495 H 0.529 0.81888 0.11044 0.0
H496 H 0.54479 0.89496 0.13184 0.0
H497 H 0.48007 0.87727 0.97496 0.0
H498 H 0.4878 0.86463 0.05956 0.0
H499 H 0.49779 0.85992 0.96601 0.0
C500 C 0.52458 0.85126 0.25296 0.0
C501 C 0.52716 0.83363 0.21965 0.0
C502 C 0.5222 0.86701 0.20624 0.0
C503 C 0.52225 0.86559 0.12491 0.0
C504 C 0.52446 0.84796 0.09139 0.0
H505 H 0.52257 0.94617 0.74643 0.0
H506 H 0.52382 0.91829 0.8274 0.0
C507 C 0.52676 0.83215 0.13818 0.0
C508 C 0.5211 0.88269 0.07576 0.0
H509 H 0.49683 0.9034 0.92814 0.0
C510 C 0.53421 0.89683 0.08769 0.0
C511 C 0.50736 0.8852 0.01774 0.0
C512 C 0.49235 0.87104 0.00415 0.0
C513 C 0.53414 0.91315 0.04275 0.0
C514 C 0.52044 0.91564 0.9847 0.0
C515 C 0.50735 0.90152 0.97255 0.0
C516 C 0.51954 0.93275 0.93574 0.0
C517 C 0.54905 0.92742 0.05662 0.0
C518 C 0.51652 0.95023 0.96935 0.0
C519 C 0.51579 0.96626 0.92313 0.0
C520 C 0.51803 0.96518 0.84208 0.0
C521 C 0.52089 0.94761 0.80859 0.0
C522 C 0.52156 0.9316 0.85483 0.0
H523 H 0.56105 0.9215 0.08882 0.0
H524 H 0.5541 0.93329 1.00091 0.0
H525 H 0.54325 0.93893 0.09169 0.0
H526 H 0.51458 0.95148 0.03143 0.0
H527 H 0.51345 0.97949 0.95102 0.0
H528 H 0.6809 0.56271 0.20753 0.0
H529 H 0.65353 0.55747 0.12786 0.0
H530 H 0.6692 0.50021 0.09942 0.0
H531 H 0.69621 0.50508 0.18339 0.0
H532 H 0.64923 0.54785 0.982 0.0
H533 H 0.61635 0.49367 0.16388 0.0
H534 H 0.636 0.50693 0.1969 0.0
H535 H 0.63924 0.48761 0.13236 0.0
C536 C 0.67844 0.54885 0.18583 0.0
C537 C 0.69077 0.53425 0.20367 0.0
C538 C 0.66277 0.54593 0.13929 0.0
C539 C 0.65892 0.52835 0.10851 0.0
C540 C 0.67147 0.51381 0.124 0.0
H541 H 0.57148 0.48995 0.79471 0.0
H542 H 0.59943 0.49329 0.87421 0.0
C543 C 0.68714 0.5167 0.17128 0.0
C544 C 0.64194 0.52555 0.05941 0.0
H545 H 0.60215 0.49995 0.04221 0.0
C546 C 0.63894 0.5374 0.99554 0.0
C547 C 0.62835 0.51195 0.07663 0.0
C548 C 0.63001 0.49943 0.14657 0.0
C549 C 0.62298 0.53596 0.94862 0.0
C550 C 0.60948 0.52236 0.96583 0.0
C551 C 0.6125 0.51038 0.02898 0.0
C552 C 0.59219 0.52034 0.9186 0.0
C553 C 0.62078 0.54885 0.88017 0.0
C554 C 0.57859 0.53434 0.91767 0.0
C555 C 0.56244 0.53242 0.87257 0.0
C556 C 0.55959 0.5165 0.82699 0.0
C557 C 0.57319 0.50245 0.82869 0.0
C558 C 0.58921 0.50431 0.8743 0.0
H559 H 0.63397 0.55594 0.86537 0.0
H560 H 0.61581 0.54115 0.82839 0.0
H561 H 0.6103 0.55959 0.89424 0.0
H562 H 0.58044 0.54675 0.95207 0.0
H563 H 0.5523 0.5435 0.8729 0.0
H564 H 0.96586 0.68764 0.17217 0.0
H565 H 0.97045 0.65992 0.09443 0.0
H566 H 0.0273 0.67556 0.05441 0.0
H567 H 0.02308 0.70299 0.13647 0.0
H568 H 0.97877 0.65444 0.9481 0.0
H569 H 0.03479 0.62334 0.12712 0.0
H570 H 0.02167 0.64322 0.15878 0.0
H571 H 0.04032 0.64595 0.09048 0.0
C572 C 0.97948 0.68512 0.14807 0.0
C573 C 0.9942 0.6975 0.16243 0.0
C574 C 0.98203 0.66926 0.10273 0.0
C575 C 0.99934 0.66526 0.06963 0.0
C576 C 0.01393 0.67795 0.08098 0.0
H577 H 0.03443 0.57453 0.76697 0.0
H578 H 0.03187 0.60341 0.84038 0.0
C579 C 1.01142 0.69384 0.12712 0.0
C580 C 1.0018 0.64788 0.02314 0.0
H581 H 0.02718 0.60781 0.01024 0.0
C582 C 0.98935 0.64426 0.962 0.0
C583 C 0.01556 0.63444 0.04096 0.0
C584 C 0.02874 0.63679 0.10834 0.0
C585 C 0.99031 0.62778 0.91845 0.0
C586 C 1.00403 0.61441 0.93634 0.0
C587 C 0.01664 0.61806 0.99659 0.0
C588 C 1.00555 0.5966 0.89275 0.0
C589 C 0.97674 0.62484 0.8529 0.0
C590 C 0.99169 0.58297 0.89835 0.0
C591 C 0.99317 0.56629 0.85677 0.0
C592 C 1.00849 0.56295 0.80824 0.0
C593 C 0.02238 0.57661 0.80333 0.0
C594 C 0.02098 0.59316 0.84545 0.0
H595 H 0.96936 0.63784 0.83692 0.0
H596 H 0.98395 0.61941 0.80078 0.0
H597 H 0.96626 0.61444 0.87086 0.0
H598 H 0.97974 0.58521 0.93515 0.0
H599 H 0.98223 0.55611 0.86214 0.0
H600 H 0.96746 0.24934 0.27061 0.0
H601 H 0.9482 0.2334 0.36687 0.0
H602 H 0.99439 0.19769 0.42383 0.0
H603 H 0.01362 0.214 0.33091 0.0
H604 H 0.9386 0.20012 0.34273 0.0
H605 H 0.97081 0.19828 0.62919 0.0
H606 H 0.97706 0.21579 0.55881 0.0
H607 H 0.98917 0.19382 0.56225 0.0
C608 C 0.97368 0.23869 0.30665 0.0
C609 C 0.99193 0.2327 0.2929 0.0
C610 C 0.96266 0.22954 0.36143 0.0
C611 C 0.96978 0.21434 0.4032 0.0
C612 C 0.98857 0.20962 0.39433 0.0
H613 H 0.95527 0.10871 0.37055 0.0
H614 H 0.95112 0.14195 0.36189 0.0
C615 C 0.99955 0.21879 0.3402 0.0
C616 C 0.95722 0.20079 0.44114 0.0
H617 H 0.95991 0.167 0.57896 0.0
C618 C 0.94277 0.19332 0.39621 0.0
C619 C 0.9619 0.19214 0.51231 0.0
C620 C 0.97546 0.20066 0.56855 0.0
C621 C 0.93513 0.17599 0.4141 0.0
C622 C 0.94251 0.16575 0.47699 0.0
C623 C 0.95469 0.17452 0.52889 0.0
C624 C 0.94118 0.14525 0.47971 0.0
C625 C 0.92026 0.16823 0.36186 0.0
C626 C 0.93697 0.13586 0.54887 0.0
C627 C 0.93941 0.11664 0.55406 0.0
C628 C 0.94629 0.10654 0.49038 0.0
C629 C 0.94958 0.11591 0.42022 0.0
C630 C 0.94713 0.13502 0.41511 0.0
H631 H 0.91071 0.17942 0.34243 0.0
H632 H 0.92678 0.16228 0.30916 0.0
H633 H 0.91208 0.15727 0.39135 0.0
H634 H 0.93251 0.14349 0.59964 0.0
H635 H 0.93658 0.1098 0.60876 0.0
H636 H 0.30988 0.02361 0.32069 0.0
H637 H 0.3253 1.01055 0.43411 0.0
H638 H 0.28923 0.96295 0.42529 0.0
H639 H 0.27429 0.9756 0.30869 0.0
H640 H 0.31853 0.99584 0.58101 0.0
H641 H 0.33889 0.94055 0.37075 0.0
H642 H 0.32656 0.96088 0.33855 0.0
H643 H 0.3148 0.94336 0.394 0.0
C644 C 0.30499 1.01052 0.34377 0.0
C645 C 0.2913 1.00036 0.30454 0.0
C646 C 0.31367 1.00315 0.40917 0.0
C647 C 0.30875 0.98553 0.43689 0.0
C648 C 0.29351 0.97637 0.40369 0.0
H649 H 0.41292 0.93788 0.58419 0.0
H650 H 0.37896 0.93795 0.5955 0.0
C651 C 0.2849 0.98369 0.33744 0.0
C652 C 0.32193 0.97587 0.48923 0.0
H653 H 0.35866 0.94639 0.47334 0.0
C654 C 0.32697 0.98457 0.55903 0.0
C655 C 0.33278 0.9609 0.46146 0.0
C656 C 0.32812 0.95084 0.38708 0.0
C657 C 0.34379 0.98029 0.59615 0.0
C658 C 0.35583 0.96719 0.56186 0.0
C659 C 0.34951 0.95663 0.49892 0.0
C660 C 0.37609 0.96748 0.57595 0.0
C661 C 0.3491 0.99089 0.66813 0.0
C662 C 0.38575 0.98405 0.56251 0.0
C663 C 0.40497 0.98398 0.55521 0.0
C664 C 0.41493 0.96731 0.56076 0.0
C665 C 0.40548 0.95088 0.57923 0.0
C666 C 0.38614 0.95094 0.58617 0.0
H667 H 0.33683 0.99284 0.70617 0.0
H668 H 0.36019 0.98378 0.7017 0.0
H669 H 0.35402 1.00488 0.65112 0.0
H670 H 0.37837 0.99692 0.55241 0.0
H671 H 0.412 0.99689 0.54249 0.0
H672 H 0.56387 0.29858 0.22941 0.0
H673 H 0.57635 0.31432 0.3423 0.0
H674 H 0.53181 0.29256 0.48247 0.0
H675 H 0.51896 0.2771 0.36744 0.0
H676 H 0.53061 0.32802 0.48165 0.0
H677 H 0.60312 0.31121 0.54201 0.0
H678 H 0.60113 0.31389 0.4391 0.0
H679 H 0.58842 0.29566 0.48753 0.0
C680 C 0.55722 0.29651 0.28511 0.0
C681 C 0.54042 0.28686 0.29003 0.0
C682 C 0.56448 0.30535 0.35013 0.0
C683 C 0.55514 0.30459 0.42153 0.0
C684 C 0.53934 0.29326 0.42821 0.0
H685 H 0.55941 0.41157 0.65715 0.0
H686 H 0.55915 0.3777 0.66204 0.0
C687 C 0.53202 0.28441 0.36268 0.0
C688 C 0.55915 0.31913 0.48003 0.0
H689 H 0.59546 0.34537 0.54331 0.0
C690 C 0.54471 0.33144 0.49823 0.0
C691 C 0.57747 0.3236 0.50265 0.0
C692 C 0.59332 0.3102 0.49236 0.0
C693 C 0.54838 0.3491 0.52824 0.0
C694 C 0.567 0.35444 0.54123 0.0
C695 C 0.58123 0.34136 0.5319 0.0
C696 C 0.5719 0.37423 0.54988 0.0
C697 C 0.53244 0.36252 0.538 0.0
C698 C 0.58045 0.38337 0.48759 0.0
C699 C 0.58099 0.40269 0.48503 0.0
C700 C 0.57284 0.41323 0.5445 0.0
C701 C 0.56583 0.40395 0.61025 0.0
C702 C 0.56551 0.38459 0.61307 0.0
H703 H 0.51906 0.35669 0.51747 0.0
H704 H 0.53092 0.36609 0.60028 0.0
H705 H 0.53518 0.37553 0.50548 0.0
H706 H 0.58557 0.37559 0.43833 0.0
H707 H 0.58692 0.40937 0.43454 0.0
H708 H 0.21802 0.49961 0.30251 0.0
H709 H 0.20434 0.51148 0.42111 0.0
H710 H 0.24296 0.55713 0.4205 0.0
H711 H 0.25602 0.54583 0.29809 0.0
H712 H 0.21264 0.52244 0.56904 0.0
H713 H 0.19521 0.58431 0.38688 0.0
H714 H 0.20613 0.56447 0.34327 0.0
H715 H 0.21903 0.57911 0.40821 0.0
C716 C 0.22378 0.51206 0.32808 0.0
C717 C 0.23763 0.52214 0.28965 0.0
C718 C 0.21612 0.51873 0.39659 0.0
C719 C 0.22227 0.53552 0.42865 0.0
C720 C 0.23765 0.54443 0.39563 0.0
H721 H 0.11591 0.57461 0.58565 0.0
H722 H 0.14953 0.57656 0.60603 0.0
C723 C 0.2452 0.53786 0.32603 0.0
C724 C 0.21011 0.54475 0.48616 0.0
H725 H 0.17375 0.5749 0.47842 0.0
C726 C 0.20456 0.53443 0.55139 0.0
C727 C 0.1998 0.56073 0.46483 0.0
C728 C 0.20525 0.57286 0.39709 0.0
C729 C 0.18733 0.53767 0.58646 0.0
C730 C 0.17562 0.55151 0.5554 0.0
C731 C 0.18269 0.56402 0.50077 0.0
C732 C 0.15526 0.54949 0.55807 0.0
C733 C 0.18088 0.52489 0.6502 0.0
C734 C 0.14746 0.53379 0.52313 0.0
C735 C 0.12852 0.53292 0.50859 0.0
C736 C 0.11678 0.54764 0.52973 0.0
C737 C 0.12455 0.56316 0.56724 0.0
C738 C 0.14369 0.56417 0.5804 0.0
H739 H 0.19269 0.52062 0.68771 0.0
H740 H 0.17008 0.53156 0.68666 0.0
H741 H 0.17494 0.51216 0.62401 0.0
H742 H 0.1562 0.52259 0.50276 0.0
H743 H 0.12327 0.52094 0.47795 0.0
H744 H 0.99836 0.81899 0.06356 0.0
H745 H 1.0113 0.83422 0.95083 0.0
H746 H 0.04949 0.78868 0.91927 0.0
H747 H 0.03691 0.77373 0.03611 0.0
H748 H 0.06836 0.81761 0.92402 0.0
H749 H 1.01286 0.836 0.72492 0.0
H750 H 1.00385 0.84211 0.81787 0.0
H751 H 1.00948 0.81815 0.79721 0.0
C752 C 1.00912 0.81194 0.03113 0.0
C753 C 0.01684 0.79536 0.05898 0.0
C754 C 0.01638 0.82054 0.96561 0.0
C755 C 0.03132 0.81258 0.92526 0.0
C756 C 0.03793 0.79509 0.94901 0.0
H757 H 0.05935 0.91625 0.71683 0.0
H758 H 0.05774 0.88271 0.70287 0.0
C759 C 0.0307 0.78651 0.01548 0.0
C760 C 0.04205 0.82447 0.87084 0.0
H761 H 0.0342 0.86291 0.76132 0.0
C762 C 0.06103 0.8271 0.88591 0.0
C763 C 0.03311 0.8364 0.81727 0.0
C764 C 0.01375 0.83277 0.78791 0.0
C765 C 0.07024 0.84303 0.85967 0.0
C766 C 0.05997 0.85699 0.82083 0.0
C767 C 0.04201 0.85277 0.79438 0.0
C768 C 0.06583 0.87678 0.82152 0.0
C769 C 0.09058 0.84513 0.87787 0.0
C770 C 0.07175 0.8848 0.89167 0.0
C771 C 0.07324 0.90397 0.8991 0.0
C772 C 0.0682 0.91573 0.83747 0.0
C773 C 0.06344 0.90771 0.76562 0.0
C774 C 0.06237 0.88844 0.75765 0.0
H775 H 0.0979 0.83178 0.86813 0.0
H776 H 0.09721 0.85601 0.84172 0.0
H777 H 0.09233 0.84865 0.94015 0.0
H778 H 0.07399 0.87638 0.9429 0.0
H779 H 0.07735 0.90959 0.95477 0.0
H780 H 0.7547 0.03477 0.04578 0.0
H781 H 0.73964 0.04568 0.92591 0.0
H782 H 0.69186 1.01197 0.97915 0.0
H783 H 0.70734 1.00012 0.09365 0.0
H784 H 0.69434 0.01527 0.83077 0.0
H785 H 0.70377 0.08616 0.954 0.0
H786 H 0.72382 0.07364 0.92178 0.0
H787 H 0.71154 0.06611 0.00706 0.0
C788 C 0.74126 0.02925 0.02991 0.0
C789 C 0.73187 0.01709 0.08009 0.0
C790 C 0.73255 0.03569 0.96206 0.0
C791 C 0.71424 0.03034 0.94502 0.0
C792 C 0.70587 0.01659 0.99094 0.0
H793 H 0.61653 0.07301 0.96792 0.0
H794 H 0.64965 0.06828 0.95518 0.0
C795 C 0.71466 1.00991 0.05714 0.0
C796 C 0.70229 0.04044 0.8884 0.0
H797 H 0.67769 0.08082 0.87966 0.0
C798 C 0.69089 0.02975 0.83974 0.0
C799 C 0.69817 0.05952 0.89807 0.0
C800 C 0.70988 0.07209 0.94803 0.0
C801 C 0.6737 0.03648 0.81352 0.0
C802 C 0.66848 0.05491 0.83205 0.0
C803 C 0.68152 0.06657 0.86766 0.0
C804 C 0.64871 0.06084 0.83325 0.0
C805 C 0.66057 0.02304 0.77493 0.0
C806 C 0.63704 0.05911 0.76841 0.0
C807 C 0.61784 0.06104 0.7765 0.0
C808 C 0.61002 0.06536 0.84922 0.0
C809 C 0.62195 0.06906 0.91177 0.0
C810 C 0.64101 0.06661 0.90413 0.0
H811 H 0.66605 1.00864 0.77458 0.0
H812 H 0.64697 0.02294 0.80497 0.0
H813 H 0.65829 0.02727 0.71382 0.0
H814 H 0.64262 0.05537 0.7125 0.0
H815 H 0.60916 0.05807 0.72675 0.0
H816 H 0.48378 0.75668 0.0943 0.0
H817 H 0.47064 0.74265 0.97621 0.0
H818 H 0.51561 0.70312 0.97305 0.0
H819 H 0.52873 0.71721 0.08905 0.0
H820 H 0.50237 0.71252 0.82243 0.0
H821 H 0.44515 0.69344 0.02544 0.0
H822 H 0.44978 0.71741 0.00456 0.0
H823 H 0.46586 0.70424 0.06231 0.0
C824 C 0.49113 0.74545 0.06624 0.0
C825 C 0.50705 0.73776 0.10074 0.0
C826 C 0.4836 0.73741 0.99926 0.0
C827 C 0.49195 0.72162 0.96686 0.0
C828 C 0.50892 0.71528 0.99701 0.0
H829 H 0.50609 0.62042 0.87688 0.0
H830 H 0.50436 0.65389 0.86819 0.0
C831 C 0.51638 0.72325 0.06349 0.0
C832 C 0.48197 0.70926 0.91261 0.0
H833 H 0.45289 0.67231 0.92911 0.0
C834 C 0.49099 0.70414 0.84375 0.0
C835 C 0.46685 0.69852 0.93941 0.0
C836 C 0.45627 0.70357 0.01191 0.0
C837 C 0.48719 0.6871 0.80812 0.0
C838 C 0.47423 0.67501 0.84286 0.0
C839 C 0.46309 0.6815 0.90354 0.0
C840 C 0.47556 0.6547 0.83266 0.0
C841 C 0.49837 0.68145 0.73828 0.0
C842 C 0.45985 0.64392 0.8165 0.0
C843 C 0.46081 0.62456 0.82106 0.0
C844 C 0.47744 0.61571 0.8432 0.0
C845 C 0.49316 0.62664 0.85815 0.0
C846 C 0.49223 0.64586 0.85273 0.0
H847 H 0.50084 0.69356 0.69976 0.0
H848 H 0.51211 0.67631 0.75788 0.0
H849 H 0.49139 0.67038 0.70445 0.0
H850 H 0.44676 0.6505 0.80224 0.0
H851 H 0.44852 0.61656 0.80797 0.0
H852 H 0.76827 0.4833 0.10117 0.0
H853 H 0.78311 0.46849 0.98855 0.0
H854 H 0.82085 0.5147 0.97093 0.0
H855 H 0.80592 0.52944 0.08139 0.0
H856 H 0.81297 0.49821 0.82594 0.0
H857 H 0.83281 0.4458 0.05067 0.0
H858 H 0.80882 0.4491 0.02564 0.0
H859 H 0.82096 0.46673 0.07881 0.0
C860 C 0.77924 0.49053 0.07081 0.0
C861 C 0.78621 0.50732 0.09978 0.0
C862 C 0.78776 0.48205 0.00703 0.0
C863 C 0.80333 0.49031 0.97252 0.0
C864 C 0.80886 0.50805 0.99659 0.0
H865 H 0.90455 0.50621 0.88978 0.0
H866 H 0.87114 0.50299 0.88209 0.0
C867 C 0.8004 0.51646 0.05985 0.0
C868 C 0.81635 0.47972 0.92333 0.0
H869 H 0.85428 0.45244 0.95416 0.0
C870 C 0.82161 0.48757 0.85209 0.0
C871 C 0.82747 0.46556 0.95663 0.0
C872 C 0.82234 0.45623 0.0321 0.0
C873 C 0.83905 0.48377 0.81999 0.0
C874 C 0.85136 0.47196 0.86051 0.0
C875 C 0.84487 0.46176 0.92413 0.0
C876 C 0.87164 0.47387 0.85206 0.0
C877 C 0.84489 0.4939 0.74755 0.0
C878 C 0.88308 0.45844 0.83932 0.0
C879 C 0.90238 0.46027 0.84325 0.0
C880 C 0.91049 0.47749 0.86141 0.0
C881 C 0.89888 0.49285 0.87391 0.0
C882 C 0.87972 0.49106 0.86908 0.0
H883 H 0.83284 0.49627 0.70849 0.0
H884 H 0.85053 0.50766 0.76392 0.0
H885 H 0.85577 0.48615 0.71554 0.0
H886 H 0.87707 0.44498 0.8276 0.0
H887 H 0.91092 0.4482 0.83226 0.0
H888 H 1.00177 0.22172 0.95364 0.0
H889 H 1.0036 0.1923 0.8817 0.0
H890 H 0.04088 0.17035 0.05476 0.0
H891 H 0.03893 0.19954 0.12702 0.0
H892 H 0.04848 0.16263 0.87616 0.0
H893 H 0.9792 0.14365 0.99429 0.0
H894 H 0.98231 0.16648 0.95369 0.0
H895 H 0.99399 0.16032 0.04196 0.0
C896 C 1.01082 0.21082 0.97488 0.0
C897 C 0.0203 0.21298 0.0457 0.0
C898 C 1.01172 0.19397 0.93416 0.0
C899 C 0.02228 0.17907 0.96314 0.0
C900 C 0.03266 0.18163 0.03124 0.0
H901 H 0.01986 0.05987 0.89854 0.0
H902 H 0.02136 0.09172 0.94719 0.0
C903 C 0.0316 0.19835 0.07231 0.0
C904 C 0.02135 0.16035 0.92669 0.0
H905 H 0.99415 0.1216 0.91584 0.0
C906 C 0.03655 0.15371 0.88416 0.0
C907 C 1.00588 0.14862 0.93809 0.0
C908 C 0.98938 0.15496 0.98471 0.0
C909 C 0.03664 0.13567 0.85262 0.0
C910 C 0.02116 0.12393 0.86409 0.0
C911 C 1.00599 0.13059 0.90679 0.0
C912 C 0.02059 0.10455 0.8337 0.0
C913 C 0.05347 0.12908 0.80877 0.0
C914 C 0.01953 0.1011 0.75362 0.0
C915 C 0.01853 0.08287 0.72552 0.0
C916 C 0.01869 0.06762 0.77687 0.0
C917 C 0.01982 0.07118 0.85711 0.0
C918 C 0.02064 0.08942 0.88514 0.0
H919 H 0.06547 0.13856 0.8162 0.0
H920 H 0.05756 0.11498 0.82834 0.0
H921 H 0.05009 0.1283 0.74599 0.0
H922 H 0.01923 0.11253 0.71278 0.0
H923 H 0.01758 0.08075 0.66342 0.0
H924 H 0.30511 0.99479 0.96118 0.0
H925 H 0.335 0.99602 0.89245 0.0
H926 H 0.35193 0.04181 0.03641 0.0
H927 H 0.3224 0.04034 0.10573 0.0
H928 H 0.35585 0.02246 0.81038 0.0
H929 H 0.39147 1.00329 0.0842 0.0
H930 H 0.36663 1.00209 0.07325 0.0
H931 H 0.37772 0.02391 0.09308 0.0
C932 C 0.31504 1.00541 0.97661 0.0
C933 C 0.31143 0.01743 0.03905 0.0
C934 C 0.33218 1.00603 0.93771 0.0
C935 C 0.346 0.01867 0.96063 0.0
C936 C 0.34177 0.03159 0.01893 0.0
H937 H 0.46252 0.03908 0.85905 0.0
H938 H 0.43033 0.04012 0.9043 0.0
C939 C 0.32479 0.03088 0.05804 0.0
C940 C 0.36517 0.01775 0.92754 0.0
H941 H 0.41073 1.01263 0.97972 0.0
C942 C 0.36783 0.02023 0.84735 0.0
C943 C 0.3809 0.01466 0.97542 0.0
C944 C 0.37908 1.01065 0.0611 0.0
C945 C 0.38576 0.02036 0.81448 0.0
C946 C 0.40148 0.01766 0.86279 0.0
C947 C 0.39876 0.01491 0.94265 0.0
C948 C 0.4209 0.01749 0.83213 0.0
C949 C 0.38773 0.02391 0.72859 0.0
C950 C 0.42647 1.00435 0.77678 0.0
C951 C 0.4449 1.00369 0.75098 0.0
C952 C 0.45829 0.01612 0.78002 0.0
C953 C 0.45265 0.02932 0.83522 0.0
C954 C 0.43421 0.02992 0.86121 0.0
H955 H 0.37518 0.03066 0.70392 0.0
H956 H 0.39993 0.0328 0.71633 0.0
H957 H 0.38975 1.0105 0.69836 0.0
H958 H 0.41666 0.99433 0.75443 0.0
H959 H 0.44863 0.9933 0.70846 0.0
H960 H 0.54209 0.32198 0.06537 0.0
H961 H 0.53742 0.35112 0.99727 0.0
H962 H 0.48174 0.33461 0.93772 0.0
H963 H 0.48607 0.3055 0.01052 0.0
H964 H 0.53094 0.36051 0.8554 0.0
H965 H 0.47111 0.38418 0.03158 0.0
H966 H 0.48451 0.36393 0.05683 0.0
H967 H 0.46729 0.36276 0.98133 0.0
C968 C 0.52875 0.32452 0.03832 0.0
C969 C 0.51431 0.31149 0.04517 0.0
C970 C 0.52614 0.34123 0.99874 0.0
C971 C 0.50907 0.34546 0.96366 0.0
C972 C 0.49488 0.33203 0.96624 0.0
H973 H 0.50613 0.4439 0.66 0.0
H974 H 0.50478 0.41219 0.70927 0.0
C975 C 0.49745 0.31523 0.00686 0.0
C976 C 0.50653 0.36402 0.92555 0.0
H977 H 0.48085 0.40399 0.93048 0.0
C978 C 0.51991 0.36995 0.87171 0.0
C979 C 0.49232 0.37659 0.94732 0.0
C980 C 0.47808 0.37167 0.00793 0.0
C981 C 0.51976 0.388 0.84056 0.0
C982 C 0.50537 0.40047 0.86113 0.0
C983 C 0.49181 0.39448 0.91404 0.0
C984 C 0.50463 0.41993 0.83061 0.0
C985 C 0.53555 0.39374 0.78855 0.0
C986 C 0.50403 0.43509 0.88184 0.0
C987 C 0.50442 0.45337 0.85362 0.0
C988 C 0.5055 0.45694 0.77339 0.0
C989 C 0.50553 0.44175 0.72218 0.0
C990 C 0.50489 0.42352 0.75037 0.0
H991 H 0.54796 0.38483 0.79751 0.0
H992 H 0.53117 0.39233 0.72709 0.0
H993 H 0.53962 0.40836 0.79887 0.0
H994 H 0.50373 0.4328 0.94398 0.0
H995 H 0.50436 0.46469 0.89484 0.0
H996 H 0.22295 0.52812 0.9401 0.0
H997 H 0.19295 0.52753 0.87132 0.0
H998 H 0.17356 0.48512 0.02772 0.0
H999 H 0.20326 0.48573 0.09627 0.0
H1000 H 0.17039 0.49942 0.79816 0.0
H1001 H 0.13656 0.52778 0.06093 0.0
H1002 H 0.1614 0.52765 0.04849 0.0
H1003 H 0.14955 0.50696 0.07885 0.0
C1004 C 0.21245 0.51834 0.95839 0.0
C1005 C 0.21546 0.50707 0.02404 0.0
C1006 C 0.19524 0.5181 0.91943 0.0
C1007 C 0.18075 0.50663 0.94555 0.0
C1008 C 0.18429 0.49443 0.00749 0.0
H1009 H 0.06249 0.49171 0.8635 0.0
H1010 H 0.09472 0.49084 0.90946 0.0
C1011 C 0.20135 0.4947 0.04634 0.0
C1012 C 0.16164 0.50798 0.91181 0.0
H1013 H 0.1166 0.51711 0.96116 0.0
C1014 C 0.15863 0.5034 0.83357 0.0
C1015 C 0.14623 0.51327 0.95774 0.0
C1016 C 0.14855 0.51937 0.04095 0.0
C1017 C 0.14062 0.50324 0.80101 0.0
C1018 C 0.12513 0.50816 0.84759 0.0
C1019 C 0.12829 0.51311 0.92537 0.0
C1020 C 0.10555 0.50826 0.81758 0.0
C1021 C 0.1384 0.4972 0.71771 0.0
C1022 C 0.10062 0.51853 0.75123 0.0
C1023 C 0.08223 0.51886 0.72458 0.0
C1024 C 0.06815 0.50917 0.76399 0.0
C1025 C 0.07296 0.49925 0.83143 0.0
C1026 C 0.09143 0.49875 0.85769 0.0
H1027 H 0.15033 0.48864 0.69825 0.0
H1028 H 0.12547 0.48909 0.70942 0.0
H1029 H 0.13775 0.50964 0.67981 0.0
H1030 H 0.11091 0.52662 0.72058 0.0
H1031 H 0.07893 0.52714 0.67401 0.0
H1032 H 0.9837 0.80817 0.38226 0.0
H1033 H 0.98293 0.83713 0.45764 0.0
H1034 H 0.03777 0.85063 0.37685 0.0
H1035 H 0.03866 0.82184 0.30222 0.0
H1036 H 1.0088 0.85497 0.57383 0.0
H1037 H 1.00259 0.89294 0.29412 0.0
H1038 H 0.99818 0.86838 0.30251 0.0
H1039 H 0.02158 0.87683 0.30011 0.0
C1040 C 0.9958 0.81705 0.38254 0.0
C1041 C 1.01118 0.81276 0.3357 0.0
C1042 C 0.9953 0.83366 0.42524 0.0
C1043 C 1.01016 0.84625 0.42175 0.0
C1044 C 0.02603 0.84131 0.37956 0.0
H1045 H 0.03407 0.94863 0.66956 0.0
H1046 H 0.03322 0.9169 0.62063 0.0
C1047 C 0.02654 0.8248 0.33709 0.0
C1048 C 1.00865 0.86515 0.45639 0.0
H1049 H 1.00707 0.91107 0.40681 0.0
C1050 C 1.00833 0.86724 0.53743 0.0
C1051 C 1.00781 0.88119 0.40896 0.0
C1052 C 1.0074 0.87983 0.32156 0.0
C1053 C 1.00765 0.88495 0.57212 0.0
C1054 C 1.00744 0.90103 0.52452 0.0
C1055 C 1.00732 0.89884 0.44352 0.0
C1056 C 1.00755 0.92028 0.55701 0.0
C1057 C 1.00689 0.88626 0.65942 0.0
C1058 C 0.99369 0.93309 0.53608 0.0
C1059 C 0.99423 0.95143 0.56326 0.0
C1060 C 1.00874 0.95745 0.6118 0.0
C1061 C 0.0226 0.94457 0.6327 0.0
C1062 C 0.02206 0.92627 0.60532 0.0
H1063 H 1.00224 0.87304 0.68621 0.0
H1064 H 0.02094 0.88941 0.68207 0.0
H1065 H 0.9974 0.89754 0.67794 0.0
H1066 H 0.98241 0.92891 0.4984 0.0
H1067 H 0.98332 0.96089 0.54578 0.0
H1068 H 0.70465 0.0404 0.3148 0.0
H1069 H 0.67633 0.03969 0.39092 0.0
H1070 H 0.69384 0.98842 0.49757 0.0
H1071 H 0.72195 0.98853 0.41715 0.0
H1072 H 0.65969 0.98506 0.45097 0.0
H1073 H 0.66302 0.05171 0.60608 0.0
H1074 H 0.66551 0.05538 0.50406 0.0
H1075 H 0.68275 0.04216 0.55635 0.0
C1076 C 0.70266 0.02908 0.3553 0.0
C1077 C 0.71559 0.01444 0.35923 0.0
C1078 C 0.68646 0.0288 0.39975 0.0
C1079 C 0.68286 0.01414 0.45132 0.0
C1080 C 0.69623 0.99995 0.45854 0.0
H1081 H 0.58125 0.01818 0.73634 0.0
H1082 H 0.61366 0.01815 0.69426 0.0
C1083 C 0.71244 1.00012 0.41316 0.0
C1084 C 0.66445 1.01288 0.49145 0.0
H1085 H 0.63229 0.03844 0.59097 0.0
C1086 C 0.65387 0.99666 0.48262 0.0
C1087 C 0.65672 0.02785 0.5339 0.0
C1088 C 0.6677 0.04514 0.55136 0.0
C1089 C 0.63569 0.99529 0.51184 0.0
C1090 C 0.62748 1.01074 0.54928 0.0
C1091 C 0.63833 0.02667 0.56117 0.0
C1092 C 0.60764 1.01073 0.57517 0.0
C1093 C 0.62551 0.97717 0.50248 0.0
C1094 C 0.59325 1.00692 0.52231 0.0
C1095 C 0.57468 1.00679 0.54633 0.0
C1096 C 0.56991 1.01067 0.62383 0.0
C1097 C 0.58432 0.01488 0.67641 0.0
C1098 C 0.60292 0.01494 0.65233 0.0
H1099 H 0.63532 0.96535 0.49692 0.0
H1100 H 0.61619 0.97445 0.5524 0.0
H1101 H 0.61702 0.9777 0.44874 0.0
H1102 H 0.59636 1.00418 0.46196 0.0
H1103 H 0.56404 1.00373 0.50382 0.0
H1104 H 0.54498 0.71981 0.41091 0.0
H1105 H 0.54688 0.68958 0.47747 0.0
H1106 H 0.491 0.67722 0.40578 0.0
H1107 H 0.48897 0.70726 0.34027 0.0
H1108 H 0.5208 0.66957 0.59449 0.0
H1109 H 0.52692 0.63683 0.30392 0.0
H1110 H 0.53182 0.66106 0.32028 0.0
H1111 H 0.50826 0.65317 0.31513 0.0
C1112 C 0.53292 0.71088 0.41152 0.0
C1113 C 0.51687 0.7159 0.36985 0.0
C1114 C 0.53406 0.69356 0.44909 0.0
C1115 C 0.51918 0.681 0.44551 0.0
C1116 C 0.50273 0.68656 0.40859 0.0
H1117 H 0.49307 0.57574 0.65975 0.0
H1118 H 0.49523 0.60803 0.61944 0.0
C1119 C 0.50158 0.70378 0.37134 0.0
C1120 C 0.52111 0.66156 0.47434 0.0
H1121 H 0.52264 0.61667 0.41092 0.0
C1122 C 0.52134 0.658 0.55449 0.0
C1123 C 0.52202 0.64644 0.42218 0.0
C1124 C 0.52239 0.64946 0.3355 0.0
C1125 C 0.52186 0.6397 0.58369 0.0
C1126 C 0.52203 0.62453 0.53133 0.0
C1127 C 0.52243 0.62819 0.45124 0.0
C1128 C 0.52116 0.60479 0.55801 0.0
C1129 C 0.52223 0.63683 0.67043 0.0
C1130 C 0.53477 0.59187 0.53561 0.0
C1131 C 0.53358 0.5732 0.5587 0.0
C1132 C 0.51862 0.56697 0.60411 0.0
C1133 C 0.50492 0.57994 0.62556 0.0
C1134 C 0.50617 0.59855 0.60284 0.0
H1135 H 0.52834 0.64896 0.70065 0.0
H1136 H 0.50782 0.63511 0.69158 0.0
H1137 H 0.53028 0.62427 0.68665 0.0
H1138 H 0.54641 0.59625 0.50045 0.0
H1139 H 0.54437 0.56367 0.54091 0.0
H1140 H 0.81469 0.4908 0.34892 0.0
H1141 H 0.84482 0.49229 0.41389 0.0
H1142 H 0.83638 0.55046 0.45845 0.0
H1143 H 0.80598 0.54894 0.39365 0.0
H1144 H 0.87366 0.51418 0.36012 0.0
H1145 H 0.85765 0.53227 0.66631 0.0
H1146 H 0.84059 0.52217 0.60206 0.0
H1147 H 0.84664 0.54619 0.59291 0.0
C1148 C 0.81901 0.50381 0.37454 0.0
C1149 C 0.80786 0.51974 0.36643 0.0
C1150 C 0.83632 0.50467 0.41133 0.0
C1151 C 0.843 0.52147 0.44139 0.0
C1152 C 0.8315 0.53724 0.43702 0.0
H1153 H 0.9617 0.54364 0.52109 0.0
H1154 H 0.92931 0.54533 0.47767 0.0
C1155 C 0.81406 0.53637 0.40019 0.0
C1156 C 0.86258 0.52259 0.4705 0.0
H1157 H 0.88927 0.53115 0.63125 0.0
C1158 C 0.87704 0.51797 0.41937 0.0
C1159 C 0.86709 0.52747 0.54788 0.0
C1160 C 0.85222 0.53218 0.60593 0.0
C1161 C 0.89573 0.51803 0.44327 0.0
C1162 C 0.90027 0.52294 0.5205 0.0
C1163 C 0.88584 0.52754 0.57186 0.0
C1164 C 0.91986 0.52259 0.54939 0.0
C1165 C 0.9105 0.51238 0.3861 0.0
C1166 C 0.92538 0.50944 0.60502 0.0
C1167 C 0.94393 0.50833 0.62939 0.0
C1168 C 0.95744 0.52053 0.59975 0.0
C1169 C 0.95178 0.53397 0.54515 0.0
C1170 C 0.93322 0.53494 0.52014 0.0
H1171 H 0.90454 0.50569 0.33368 0.0
H1172 H 0.91829 0.52485 0.36729 0.0
H1173 H 0.92051 0.50265 0.41354 0.0
H1174 H 0.9154 0.49975 0.62853 0.0
H1175 H 0.94767 0.49774 0.67118 0.0
loop_
_geom_bond_atom_site_label_1
_geom_bond_atom_site_label_2
_geom_bond_distance
_geom_bond_site_symmetry_2
_ccdc_geom_bond_type
H0 C1 0.949 . S
C1 H0 0.949 . S
C1 C2 1.395 . S
C1 C3 1.391 . S
C2 C1 1.395 . S
C2 C5 1.390 . S
C3 C1 1.391 . S
C3 C7 1.387 . S
C3 C8 1.491 . S
H4 C5 0.950 . S
C5 C2 1.390 . S
C5 H4 0.950 . S
C5 C6 1.378 . S
C6 C5 1.378 . S
C6 C7 1.409 . S
C7 C3 1.387 . S
C7 C6 1.409 . S
C7 H9 0.951 . S
C8 C3 1.491 . S
C8 C10 1.382 . S
C8 C12 1.404 . S
H9 C7 0.951 . S
C10 C8 1.382 . S
C10 C11 1.390 . S
C10 H15 0.949 . S
C11 C10 1.390 . S
C11 C16 1.399 . S
C12 C8 1.404 . S
C12 H13 0.950 . S
C12 C14 1.375 . S
H13 C12 0.950 . S
C14 C12 1.375 . S
C14 C16 1.382 . S
C14 H18 0.950 . S
H15 C10 0.949 . S
C16 C11 1.399 . S
C16 C14 1.382 . S
C16 H17 0.952 . S
H17 C16 0.952 . S
H18 C14 0.950 . S
H19 C20 0.949 . S
C20 H19 0.949 . S
C20 C21 1.401 . S
C20 C22 1.391 . S
C21 C20 1.401 . S
C21 C24 1.387 1_655 S
C22 C20 1.391 . S
C22 C26 1.387 . S
C22 C27 1.491 . S
H23 C24 0.955 . S
C24 C21 1.387 1_455 S
C24 H23 0.955 . S
C24 C25 1.374 1_455 S
C25 C24 1.374 1_655 S
C25 C26 1.420 . S
C26 C22 1.387 . S
C26 C25 1.420 . S
C26 H28 0.951 . S
C27 C22 1.491 . S
C27 C29 1.382 . S
C27 C31 1.404 . S
H28 C26 0.951 . S
C29 C27 1.382 . S
C29 C30 1.390 . S
C29 H34 0.949 1_655 S
C30 C29 1.390 . S
C30 C35 1.399 . S
C31 C27 1.404 . S
C31 H32 0.950 . S
C31 C33 1.375 . S
H32 C31 0.950 . S
C33 C31 1.375 . S
C33 C35 1.382 . S
C33 H37 0.950 . S
H34 C29 0.949 1_455 S
C35 C30 1.399 . S
C35 C33 1.382 . S
C35 H36 0.952 . S
H36 C35 0.952 . S
H37 C33 0.950 . S
H38 C39 0.949 . S
C39 H38 0.949 . S
C39 C40 1.400 . S
C39 C41 1.391 . S
C40 C39 1.400 . S
C40 C43 1.387 1_565 S
C41 C39 1.391 . S
C41 C45 1.387 . S
C41 C46 1.491 . S
H42 C43 0.957 . S
C43 C40 1.387 1_545 S
C43 H42 0.957 . S
C43 C44 1.374 1_545 S
C44 C43 1.374 1_565 S
C44 C45 1.417 . S
C45 C41 1.387 . S
C45 C44 1.417 . S
C45 H47 0.951 . S
C46 C41 1.491 . S
C46 C48 1.382 . S
C46 C50 1.404 . S
H47 C45 0.951 . S
C48 C46 1.382 . S
C48 C49 1.390 . S
C48 H53 0.949 1_565 S
C49 C48 1.390 . S
C49 C54 1.399 . S
C50 C46 1.404 . S
C50 H51 0.950 . S
C50 C52 1.375 . S
H51 C50 0.950 . S
C52 C50 1.375 . S
C52 C54 1.382 . S
C52 H56 0.950 . S
H53 C48 0.949 1_545 S
C54 C49 1.399 . S
C54 C52 1.382 . S
C54 H55 0.952 . S
H55 C54 0.952 . S
H56 C52 0.950 . S
H57 C58 0.949 . S
C58 H57 0.949 . S
C58 C59 1.395 . S
C58 C60 1.391 . S
C59 C58 1.395 . S
C59 C62 1.390 . S
C60 C58 1.391 . S
C60 C64 1.387 . S
C60 C65 1.491 . S
H61 C62 0.950 . S
C62 C59 1.390 . S
C62 H61 0.950 . S
C62 C63 1.378 . S
C63 C62 1.378 . S
C63 C64 1.409 . S
C64 C60 1.387 . S
C64 C63 1.409 . S
C64 H66 0.951 . S
C65 C60 1.491 . S
C65 C67 1.382 . S
C65 C69 1.404 . S
H66 C64 0.951 . S
C67 C65 1.382 . S
C67 C68 1.390 . S
C67 H72 0.949 . S
C68 C67 1.390 . S
C68 C73 1.399 . S
C69 C65 1.404 . S
C69 H70 0.950 . S
C69 C71 1.375 . S
H70 C69 0.950 . S
C71 C69 1.375 . S
C71 C73 1.382 . S
C71 H75 0.950 . S
H72 C67 0.949 . S
C73 C68 1.399 . S
C73 C71 1.382 . S
C73 H74 0.952 . S
H74 C73 0.952 . S
H75 C71 0.950 . S
H76 C77 0.949 . S
C77 H76 0.949 . S
C77 C78 1.395 . S
C77 C79 1.391 . S
C78 C77 1.395 . S
C78 C81 1.390 . S
C79 C77 1.391 . S
C79 C83 1.387 1_554 S
C79 C84 1.491 . S
H80 C81 0.950 . S
C81 C78 1.390 . S
C81 H80 0.950 . S
C81 C82 1.378 1_554 S
C82 C81 1.378 1_556 S
C82 C83 1.409 . S
C83 C79 1.387 1_556 S
C83 C82 1.409 . S
C83 H85 0.951 . S
C84 C79 1.491 . S
C84 C86 1.382 . S
C84 C88 1.404 1_554 S
H85 C83 0.951 . S
C86 C84 1.382 . S
C86 C87 1.390 . S
C86 H91 0.949 . S
C87 C86 1.390 . S
C87 C92 1.399 . S
C88 C84 1.404 1_556 S
C88 H89 0.950 . S
C88 C90 1.375 . S
H89 C88 0.950 . S
C90 C88 1.375 . S
C90 C92 1.382 1_556 S
C90 H94 0.950 . S
H91 C86 0.949 . S
C92 C87 1.399 . S
C92 C90 1.382 1_554 S
C92 H93 0.952 . S
H93 C92 0.952 . S
H94 C90 0.950 . S
H95 C96 0.949 . S
C96 H95 0.949 . S
C96 C97 1.389 1_655 S
C96 C98 1.391 . S
C97 C96 1.389 1_455 S
C97 C100 1.394 . S
C98 C96 1.391 . S
C98 C102 1.387 1_554 S
C98 C103 1.491 . S
H99 C100 0.950 . S
C100 C97 1.394 . S
C100 H99 0.950 . S
C100 C101 1.381 1_554 S
C101 C100 1.381 1_556 S
C101 C102 1.405 1_455 S
C102 C98 1.387 1_556 S
C102 C101 1.405 1_655 S
C102 H104 0.951 . S
C103 C98 1.491 . S
C103 C105 1.379 . S
C103 C107 1.404 1_554 S
H104 C102 0.951 . S
C105 C103 1.379 . S
C105 C106 1.388 . S
C105 H110 0.953 1_655 S
C106 C105 1.388 . S
C106 C111 1.399 . S
C107 C103 1.404 1_556 S
C107 H108 0.950 . S
C107 C109 1.375 . S
H108 C107 0.950 . S
C109 C107 1.375 . S
C109 C111 1.382 1_556 S
C109 H113 0.950 . S
H110 C105 0.953 1_455 S
C111 C106 1.399 . S
C111 C109 1.382 1_554 S
C111 H112 0.952 . S
H112 C111 0.952 . S
H113 C109 0.950 . S
H114 C115 0.949 . S
C115 H114 0.949 . S
C115 C116 1.388 1_565 S
C115 C117 1.391 . S
C116 C115 1.388 1_545 S
C116 C119 1.395 . S
C117 C115 1.391 . S
C117 C121 1.387 1_554 S
C117 C122 1.491 . S
H118 C119 0.950 . S
C119 C116 1.395 . S
C119 H118 0.950 . S
C119 C120 1.382 1_554 S
C120 C119 1.382 1_556 S
C120 C121 1.404 1_545 S
C121 C117 1.387 1_556 S
C121 C120 1.404 1_565 S
C121 H123 0.951 . S
C122 C117 1.491 . S
C122 C124 1.381 1_565 S
C122 C126 1.404 1_554 S
H123 C121 0.951 . S
C124 C122 1.381 1_545 S
C124 C125 1.389 1_545 S
C124 H129 0.950 . S
C125 C124 1.389 1_565 S
C125 C130 1.399 . S
C126 C122 1.404 1_556 S
C126 H127 0.950 . S
C126 C128 1.375 . S
H127 C126 0.950 . S
C128 C126 1.375 . S
C128 C130 1.382 1_556 S
C128 H132 0.950 . S
H129 C124 0.950 . S
C130 C125 1.399 . S
C130 C128 1.382 1_554 S
C130 H131 0.952 . S
H131 C130 0.952 . S
H132 C128 0.950 . S
H133 C134 0.949 . S
C134 H133 0.949 . S
C134 C135 1.395 . S
C134 C136 1.391 . S
C135 C134 1.395 . S
C135 C138 1.390 . S
C136 C134 1.391 . S
C136 C140 1.387 1_554 S
C136 C141 1.491 . S
H137 C138 0.950 . S
C138 C135 1.390 . S
C138 H137 0.950 . S
C138 C139 1.378 1_554 S
C139 C138 1.378 1_556 S
C139 C140 1.409 . S
C140 C136 1.387 1_556 S
C140 C139 1.409 . S
C140 H142 0.951 . S
C141 C136 1.491 . S
C141 C143 1.382 . S
C141 C145 1.404 1_554 S
H142 C140 0.951 . S
C143 C141 1.382 . S
C143 C144 1.390 . S
C143 H148 0.949 . S
C144 C143 1.390 . S
C144 C149 1.399 . S
C145 C141 1.404 1_556 S
C145 H146 0.950 . S
C145 C147 1.375 . S
H146 C145 0.950 . S
C147 C145 1.375 . S
C147 C149 1.382 1_556 S
C147 H151 0.950 . S
H148 C143 0.949 . S
C149 C144 1.399 . S
C149 C147 1.382 1_554 S
C149 H150 0.952 . S
H150 C149 0.952 . S
H151 C147 0.950 . S
Tb152 C162 2.825 . S
Tb152 O163 2.347 1_455 S
Tb152 O166 2.366 . S
Tb152 O171 2.418 . S
Tb152 O172 2.384 1_565 S
Tb152 O175 2.479 . S
Tb152 O176 2.482 . S
Eu153 O164 2.418 . S
Eu153 O165 2.384 1_545 S
Eu153 O168 2.479 . S
Eu153 O169 2.476 . S
Eu153 O170 2.347 1_655 S
Eu153 O173 2.366 . S
Eu153 C183 2.825 . S
C154 O170 1.259 1_565 S
C154 O171 1.265 . S
C155 O172 1.255 . S
C155 O173 1.265 1_455 S
C156 C158 1.380 . S
C156 C159 1.371 1_455 S
C156 C162 1.507 . S
C157 C158 1.384 . S
C157 C161 1.387 . S
C157 H184 0.930 . S
C158 C156 1.380 . S
C158 C157 1.384 . S
C158 H185 0.931 . S
C159 C156 1.371 1_655 S
C159 C160 1.390 1_655 S
C159 H186 0.933 . S
C160 C159 1.390 1_455 S
C160 C161 1.391 . S
C160 H187 0.929 1_455 S
C161 C157 1.387 . S
C161 C160 1.391 . S
C162 Tb152 2.825 . S
C162 C156 1.507 . S
C162 O175 1.238 . S
C162 O176 1.270 . S
O163 Tb152 2.347 1_655 S
O163 C167 1.259 1_565 S
O164 Eu153 2.418 . S
O164 C167 1.265 . S
O165 Eu153 2.384 1_565 S
O165 C174 1.255 . S
O166 Tb152 2.366 . S
O166 C174 1.265 1_455 S
C167 O163 1.259 1_545 S
C167 O164 1.265 . S
O168 Eu153 2.479 . S
O168 C183 1.238 . S
O169 Eu153 2.476 . S
O169 C183 1.257 . S
O170 Eu153 2.347 1_455 S
O170 C154 1.259 1_545 S
O171 Tb152 2.418 . S
O171 C154 1.265 . S
O172 Tb152 2.384 1_545 S
O172 C155 1.255 . S
O173 Eu153 2.366 . S
O173 C155 1.265 1_655 S
C174 O165 1.255 . S
C174 O166 1.265 1_655 S
O175 Tb152 2.479 . S
O175 C162 1.238 . S
O176 Tb152 2.482 . S
O176 C162 1.270 . S
C177 C180 1.380 . S
C177 C181 1.359 1_655 S
C177 C183 1.507 . S
C178 C179 1.387 . S
C178 C182 1.391 1_655 S
C179 C178 1.387 . S
C179 C180 1.384 . S
C179 H188 0.930 . S
C180 C177 1.380 . S
C180 C179 1.384 . S
C180 H189 0.931 . S
C181 C177 1.359 1_455 S
C181 C182 1.390 . S
C181 H190 0.946 . S
C182 C178 1.391 1_455 S
C182 C181 1.390 . S
C182 H191 0.929 . S
C183 Eu153 2.825 . S
C183 O168 1.238 . S
C183 O169 1.257 . S
C183 C177 1.507 . S
H184 C157 0.930 . S
H185 C158 0.931 . S
H186 C159 0.933 . S
H187 C160 0.929 1_655 S
H188 C179 0.930 . S
H189 C180 0.931 . S
H190 C181 0.946 . S
H191 C182 0.929 . S
Tb192 C202 2.825 . S
Tb192 O203 2.347 1_545 S
Tb192 O206 2.366 . S
Tb192 O211 2.418 . S
Tb192 O212 2.384 . S
Tb192 O215 2.479 . S
Tb192 O216 2.485 . S
Eu193 O204 2.418 . S
Eu193 O205 2.384 . S
Eu193 O208 2.479 . S
Eu193 O209 2.473 . S
Eu193 O210 2.347 1_565 S
Eu193 O213 2.366 . S
Eu193 C223 2.825 . S
C194 O210 1.259 . S
C194 O211 1.265 . S
C195 O212 1.255 . S
C195 O213 1.265 1_545 S
C196 C198 1.380 . S
C196 C199 1.379 1_545 S
C196 C202 1.507 . S
C197 C198 1.384 . S
C197 C201 1.387 . S
C197 H224 0.930 . S
C198 C196 1.380 . S
C198 C197 1.384 . S
C198 H225 0.931 . S
C199 C196 1.379 1_565 S
C199 C200 1.390 1_565 S
C199 H226 0.925 . S
C200 C199 1.390 1_545 S
C200 C201 1.399 . S
C200 H227 0.922 1_545 S
C201 C197 1.387 . S
C201 C200 1.399 . S
C202 Tb192 2.825 . S
C202 C196 1.507 . S
C202 O215 1.238 . S
C202 O216 1.278 . S
O203 Tb192 2.347 1_565 S
O203 C207 1.259 . S
O204 Eu193 2.418 . S
O204 C207 1.265 . S
O205 Eu193 2.384 . S
O205 C214 1.255 . S
O206 Tb192 2.366 . S
O206 C214 1.265 1_545 S
C207 O203 1.259 . S
C207 O204 1.265 . S
O208 Eu193 2.479 . S
O208 C223 1.238 . S
O209 Eu193 2.473 . S
O209 C223 1.250 . S
O210 Eu193 2.347 1_545 S
O210 C194 1.259 . S
O211 Tb192 2.418 . S
O211 C194 1.265 . S
O212 Tb192 2.384 . S
O212 C195 1.255 . S
O213 Eu193 2.366 . S
O213 C195 1.265 1_565 S
C214 O205 1.255 . S
C214 O206 1.265 1_565 S
O215 Tb192 2.479 . S
O215 C202 1.238 . S
O216 Tb192 2.485 . S
O216 C202 1.278 . S
C217 C220 1.380 . S
C217 C221 1.352 1_565 S
C217 C223 1.507 . S
C218 C219 1.387 . S
C218 C222 1.384 1_565 S
C219 C218 1.387 . S
C219 C220 1.384 . S
C219 H228 0.930 . S
C220 C217 1.380 . S
C220 C219 1.384 . S
C220 H229 0.931 . S
C221 C217 1.352 1_545 S
C221 C222 1.390 . S
C221 H230 0.953 . S
C222 C218 1.384 1_545 S
C222 C221 1.390 . S
C222 H231 0.936 . S
C223 Eu193 2.825 . S
C223 O208 1.238 . S
C223 O209 1.250 . S
C223 C217 1.507 . S
H224 C197 0.930 . S
H225 C198 0.931 . S
H226 C199 0.925 . S
H227 C200 0.922 1_565 S
H228 C219 0.930 . S
H229 C220 0.931 . S
H230 C221 0.953 . S
H231 C222 0.936 . S
Tb232 C242 2.825 . S
Tb232 O243 2.347 . S
Tb232 O246 2.366 . S
Tb232 O251 2.418 . S
Tb232 O252 2.384 . S
Tb232 O255 2.479 . S
Tb232 O256 2.471 . S
Eu233 O244 2.418 . S
Eu233 O245 2.384 . S
Eu233 O248 2.479 . S
Eu233 O249 2.471 . S
Eu233 O250 2.347 . S
Eu233 O253 2.366 . S
Eu233 C263 2.825 . S
C234 O250 1.259 . S
C234 O251 1.265 . S
C235 O252 1.255 . S
C235 O253 1.265 . S
C236 C238 1.380 . S
C236 C239 1.374 . S
C236 C242 1.507 . S
C237 C238 1.384 . S
C237 C241 1.387 . S
C237 H264 0.930 . S
C238 C236 1.380 . S
C238 C237 1.384 . S
C238 H265 0.931 . S
C239 C236 1.374 . S
C239 C240 1.390 . S
C239 H266 0.930 . S
C240 C239 1.390 . S
C240 C241 1.391 . S
C240 H267 0.930 . S
C241 C237 1.387 . S
C241 C240 1.391 . S
C242 Tb232 2.825 . S
C242 C236 1.507 . S
C242 O255 1.238 . S
C242 O256 1.247 . S
O243 Tb232 2.347 . S
O243 C247 1.259 . S
O244 Eu233 2.418 . S
O244 C247 1.265 . S
O245 Eu233 2.384 . S
O245 C254 1.255 . S
O246 Tb232 2.366 . S
O246 C254 1.265 . S
C247 O243 1.259 . S
C247 O244 1.265 . S
O248 Eu233 2.479 . S
O248 C263 1.238 . S
O249 Eu233 2.471 . S
O249 C263 1.247 . S
O250 Eu233 2.347 . S
O250 C234 1.259 . S
O251 Tb232 2.418 . S
O251 C234 1.265 . S
O252 Tb232 2.384 . S
O252 C235 1.255 . S
O253 Eu233 2.366 . S
O253 C235 1.265 . S
C254 O245 1.255 . S
C254 O246 1.265 . S
O255 Tb232 2.479 . S
O255 C242 1.238 . S
O256 Tb232 2.471 . S
O256 C242 1.247 . S
C257 C260 1.380 . S
C257 C261 1.374 . S
C257 C263 1.507 . S
C258 C259 1.387 . S
C258 C262 1.391 . S
C259 C258 1.387 . S
C259 C260 1.384 . S
C259 H268 0.930 . S
C260 C257 1.380 . S
C260 C259 1.384 . S
C260 H269 0.931 . S
C261 C257 1.374 . S
C261 C262 1.390 . S
C261 H270 0.930 . S
C262 C258 1.391 . S
C262 C261 1.390 . S
C262 H271 0.930 . S
C263 Eu233 2.825 . S
C263 O248 1.238 . S
C263 O249 1.247 . S
C263 C257 1.507 . S
H264 C237 0.930 . S
H265 C238 0.931 . S
H266 C239 0.930 . S
H267 C240 0.930 . S
H268 C259 0.930 . S
H269 C260 0.931 . S
H270 C261 0.930 . S
H271 C262 0.930 . S
Tb272 C282 2.825 . S
Tb272 O283 2.347 . S
Tb272 O286 2.366 . S
Tb272 O291 2.418 . S
Tb272 O292 2.384 1_655 S
Tb272 O295 2.479 . S
Tb272 O296 2.471 . S
Eu273 O284 2.418 . S
Eu273 O285 2.384 1_455 S
Eu273 O288 2.479 . S
Eu273 O289 2.471 . S
Eu273 O290 2.347 . S
Eu273 O293 2.366 . S
Eu273 C303 2.825 . S
C274 O290 1.259 1_655 S
C274 O291 1.265 . S
C275 O292 1.255 . S
C275 O293 1.265 . S
C276 C278 1.380 . S
C276 C279 1.374 . S
C276 C282 1.507 . S
C277 C278 1.384 . S
C277 C281 1.387 . S
C277 H304 0.930 . S
C278 C276 1.380 . S
C278 C277 1.384 . S
C278 H305 0.931 . S
C279 C276 1.374 . S
C279 C280 1.390 . S
C279 H306 0.930 . S
C280 C279 1.390 . S
C280 C281 1.391 . S
C280 H307 0.930 . S
C281 C277 1.387 . S
C281 C280 1.391 . S
C282 Tb272 2.825 . S
C282 C276 1.507 . S
C282 O295 1.238 . S
C282 O296 1.247 . S
O283 Tb272 2.347 . S
O283 C287 1.259 1_655 S
O284 Eu273 2.418 . S
O284 C287 1.265 . S
O285 Eu273 2.384 1_655 S
O285 C294 1.255 . S
O286 Tb272 2.366 . S
O286 C294 1.265 . S
C287 O283 1.259 1_455 S
C287 O284 1.265 . S
O288 Eu273 2.479 . S
O288 C303 1.238 . S
O289 Eu273 2.471 . S
O289 C303 1.247 . S
O290 Eu273 2.347 . S
O290 C274 1.259 1_455 S
O291 Tb272 2.418 . S
O291 C274 1.265 . S
O292 Tb272 2.384 1_455 S
O292 C275 1.255 . S
O293 Eu273 2.366 . S
O293 C275 1.265 . S
C294 O285 1.255 . S
C294 O286 1.265 . S
O295 Tb272 2.479 . S
O295 C282 1.238 . S
O296 Tb272 2.471 . S
O296 C282 1.247 . S
C297 C300 1.380 . S
C297 C301 1.374 . S
C297 C303 1.507 . S
C298 C299 1.387 . S
C298 C302 1.391 . S
C299 C298 1.387 . S
C299 C300 1.384 . S
C299 H308 0.930 . S
C300 C297 1.380 . S
C300 C299 1.384 . S
C300 H309 0.931 . S
C301 C297 1.374 . S
C301 C302 1.390 . S
C301 H310 0.930 . S
C302 C298 1.391 . S
C302 C301 1.390 . S
C302 H311 0.930 . S
C303 Eu273 2.825 . S
C303 O288 1.238 . S
C303 O289 1.247 . S
C303 C297 1.507 . S
H304 C277 0.930 . S
H305 C278 0.931 . S
H306 C279 0.930 . S
H307 C280 0.930 . S
H308 C299 0.930 . S
H309 C300 0.931 . S
H310 C301 0.930 . S
H311 C302 0.930 . S
H312 C320 0.929 . S
H313 C322 0.930 . S
H314 C324 0.933 . S
H315 C327 0.936 . S
H316 C330 0.930 . S
H317 C332 0.960 . S
H318 C332 0.960 . S
H319 C332 0.960 . S
C320 H312 0.929 . S
C320 C321 1.377 . S
C320 C322 1.384 . S
C321 C320 1.377 . S
C321 C327 1.386 1_545 S
C322 H313 0.930 . S
C322 C320 1.384 . S
C322 C323 1.372 . S
C323 C322 1.372 . S
C323 C324 1.397 1_545 S
C323 C328 1.492 . S
C324 H314 0.933 . S
C324 C323 1.397 1_565 S
C324 C327 1.386 . S
H325 C341 0.930 . S
H326 C342 0.931 . S
C327 H315 0.936 . S
C327 C321 1.386 1_565 S
C327 C324 1.386 . S
C328 C323 1.492 . S
C328 C330 1.366 1_545 S
C328 C331 1.430 . S
H329 C335 0.930 . S
C330 H316 0.930 . S
C330 C328 1.366 1_565 S
C330 C333 1.403 . S
C331 C328 1.430 . S
C331 C332 1.524 . S
C331 C335 1.400 . S
C332 H317 0.960 . S
C332 H318 0.960 . S
C332 H319 0.960 . S
C332 C331 1.524 . S
C333 C330 1.403 . S
C333 C334 1.392 . S
C333 C337 1.495 . S
C334 C333 1.392 . S
C334 C335 1.385 1_565 S
C334 C336 1.478 . S
C335 H329 0.930 . S
C335 C331 1.400 . S
C335 C334 1.385 1_545 S
C336 C334 1.478 . S
C336 C338 1.381 1_565 S
C336 C342 1.383 . S
C337 C333 1.495 . S
C337 H343 0.959 . S
C337 H344 0.961 . S
C337 H345 0.960 . S
C338 C336 1.381 1_545 S
C338 C339 1.394 . S
C338 H346 0.930 . S
C339 C338 1.394 . S
C339 C340 1.381 1_545 S
C339 H347 0.929 . S
C340 C339 1.381 1_565 S
C340 C341 1.380 . S
C341 H325 0.930 . S
C341 C340 1.380 . S
C341 C342 1.379 . S
C342 H326 0.931 . S
C342 C336 1.383 . S
C342 C341 1.379 . S
H343 C337 0.959 . S
H344 C337 0.961 . S
H345 C337 0.960 . S
H346 C338 0.930 . S
H347 C339 0.929 . S
H348 C356 0.929 . S
H349 C358 0.930 . S
H350 C360 0.930 . S
H351 C363 0.929 . S
H352 C366 0.930 . S
H353 C368 0.960 . S
H354 C368 0.960 . S
H355 C368 0.960 . S
C356 H348 0.929 . S
C356 C357 1.377 . S
C356 C358 1.384 . S
C357 C356 1.377 . S
C357 C363 1.390 . S
C358 H349 0.930 . S
C358 C356 1.384 . S
C358 C359 1.372 . S
C359 C358 1.372 . S
C359 C360 1.400 . S
C359 C364 1.490 . S
C360 H350 0.930 . S
C360 C359 1.400 . S
C360 C363 1.386 . S
H361 C377 0.930 . S
H362 C378 0.931 . S
C363 H351 0.929 . S
C363 C357 1.390 . S
C363 C360 1.386 . S
C364 C359 1.490 . S
C364 C366 1.395 . S
C364 C367 1.403 . S
H365 C371 0.930 . S
C366 H352 0.930 . S
C366 C364 1.395 . S
C366 C369 1.403 . S
C367 C364 1.403 . S
C367 C368 1.524 . S
C367 C371 1.400 . S
C368 H353 0.960 . S
C368 H354 0.960 . S
C368 H355 0.960 . S
C368 C367 1.524 . S
C369 C366 1.403 . S
C369 C370 1.392 . S
C369 C373 1.495 . S
C370 C369 1.392 . S
C370 C371 1.385 . S
C370 C372 1.478 . S
C371 H365 0.930 . S
C371 C367 1.400 . S
C371 C370 1.385 . S
C372 C370 1.478 . S
C372 C374 1.381 . S
C372 C378 1.383 . S
C373 C369 1.495 . S
C373 H379 0.959 . S
C373 H380 0.961 . S
C373 H381 0.960 . S
C374 C372 1.381 . S
C374 C375 1.394 . S
C374 H382 0.930 . S
C375 C374 1.394 . S
C375 C376 1.383 . S
C375 H383 0.929 . S
C376 C375 1.383 . S
C376 C377 1.377 . S
C377 H361 0.930 . S
C377 C376 1.377 . S
C377 C378 1.379 . S
C378 H362 0.931 . S
C378 C372 1.383 . S
C378 C377 1.379 . S
H379 C373 0.959 . S
H380 C373 0.961 . S
H381 C373 0.960 . S
H382 C374 0.930 . S
H383 C375 0.929 . S
H384 C392 0.929 . S
H385 C394 0.930 . S
H386 C396 0.930 . S
H387 C399 0.929 . S
H388 C402 0.930 . S
H389 C404 0.960 . S
H390 C404 0.960 . S
H391 C404 0.960 . S
C392 H384 0.929 . S
C392 C393 1.377 . S
C392 C394 1.384 . S
C393 C392 1.377 . S
C393 C399 1.390 . S
C394 H385 0.930 . S
C394 C392 1.384 . S
C394 C395 1.372 . S
C395 C394 1.372 . S
C395 C396 1.400 . S
C395 C400 1.490 . S
C396 H386 0.930 . S
C396 C395 1.400 . S
C396 C399 1.386 . S
H397 C413 0.930 . S
H398 C414 0.931 . S
C399 H387 0.929 . S
C399 C393 1.390 . S
C399 C396 1.386 . S
C400 C395 1.490 . S
C400 C402 1.395 . S
C400 C403 1.403 . S
H401 C407 0.930 . S
C402 H388 0.930 . S
C402 C400 1.395 . S
C402 C405 1.403 . S
C403 C400 1.403 . S
C403 C404 1.524 . S
C403 C407 1.400 . S
C404 H389 0.960 . S
C404 H390 0.960 . S
C404 H391 0.960 . S
C404 C403 1.524 . S
C405 C402 1.403 . S
C405 C406 1.392 . S
C405 C409 1.495 . S
C406 C405 1.392 . S
C406 C407 1.385 . S
C406 C408 1.478 . S
C407 H401 0.930 . S
C407 C403 1.400 . S
C407 C406 1.385 . S
C408 C406 1.478 . S
C408 C410 1.381 . S
C408 C414 1.383 . S
C409 C405 1.495 . S
C409 H415 0.959 . S
C409 H416 0.961 . S
C409 H417 0.960 . S
C410 C408 1.381 . S
C410 C411 1.394 . S
C410 H418 0.930 . S
C411 C410 1.394 . S
C411 C412 1.383 . S
C411 H419 0.929 . S
C412 C411 1.383 . S
C412 C413 1.377 . S
C413 H397 0.930 . S
C413 C412 1.377 . S
C413 C414 1.379 . S
C414 H398 0.931 . S
C414 C408 1.383 . S
C414 C413 1.379 . S
H415 C409 0.959 . S
H416 C409 0.961 . S
H417 C409 0.960 . S
H418 C410 0.930 . S
H419 C411 0.929 . S
H420 C428 0.929 . S
H421 C430 0.930 . S
H422 C432 0.930 . S
H423 C435 0.929 . S
H424 C438 0.930 . S
H425 C440 0.960 . S
H426 C440 0.960 . S
H427 C440 0.960 . S
C428 H420 0.929 . S
C428 C429 1.341 1_655 S
C428 C430 1.384 . S
C429 C428 1.341 1_455 S
C429 C435 1.426 . S
C430 H421 0.930 . S
C430 C428 1.384 . S
C430 C431 1.371 . S
C431 C430 1.371 . S
C431 C432 1.401 1_655 S
C431 C436 1.489 . S
C432 H422 0.930 . S
C432 C431 1.401 1_455 S
C432 C435 1.386 . S
H433 C449 0.930 . S
H434 C450 0.931 . S
C435 H423 0.929 . S
C435 C429 1.426 . S
C435 C432 1.386 . S
C436 C431 1.489 . S
C436 C438 1.420 . S
C436 C439 1.380 1_655 S
H437 C443 0.930 . S
C438 H424 0.930 . S
C438 C436 1.420 . S
C438 C441 1.403 . S
C439 C436 1.380 1_455 S
C439 C440 1.524 . S
C439 C443 1.400 . S
C440 H425 0.960 . S
C440 H426 0.960 . S
C440 H427 0.960 . S
C440 C439 1.524 . S
C441 C438 1.403 . S
C441 C442 1.392 . S
C441 C445 1.495 . S
C442 C441 1.392 . S
C442 C443 1.385 1_655 S
C442 C444 1.478 . S
C443 H437 0.930 . S
C443 C439 1.400 . S
C443 C442 1.385 1_455 S
C444 C442 1.478 . S
C444 C446 1.381 . S
C444 C450 1.383 1_655 S
C445 C441 1.495 . S
C445 H451 0.959 . S
C445 H452 0.961 . S
C445 H453 0.960 . S
C446 C444 1.381 . S
C446 C447 1.394 . S
C446 H454 0.930 . S
C447 C446 1.394 . S
C447 C448 1.389 . S
C447 H455 0.929 . S
C448 C447 1.389 . S
C448 C449 1.371 1_655 S
C449 H433 0.930 . S
C449 C448 1.371 1_455 S
C449 C450 1.379 . S
C450 H434 0.931 . S
C450 C444 1.383 1_455 S
C450 C449 1.379 . S
H451 C445 0.959 . S
H452 C445 0.961 . S
H453 C445 0.960 . S
H454 C446 0.930 . S
H455 C447 0.929 . S
H456 C464 0.929 . S
H457 C466 0.930 . S
H458 C468 0.930 . S
H459 C471 0.929 . S
H460 C474 0.930 1_556 S
H461 C476 0.960 . S
H462 C476 0.960 . S
H463 C476 0.960 . S
C464 H456 0.929 . S
C464 C465 1.413 . S
C464 C466 1.384 . S
C465 C464 1.413 . S
C465 C471 1.355 1_565 S
C466 H457 0.930 . S
C466 C464 1.384 . S
C466 C467 1.372 . S
C467 C466 1.372 . S
C467 C468 1.400 1_565 S
C467 C472 1.490 . S
C468 H458 0.930 . S
C468 C467 1.400 1_545 S
C468 C471 1.386 . S
H469 C485 0.930 . S
H470 C486 0.931 . S
C471 H459 0.929 . S
C471 C465 1.355 1_545 S
C471 C468 1.386 . S
C472 C467 1.490 . S
C472 C474 1.395 . S
C472 C475 1.403 1_565 S
H473 C479 0.930 . S
C474 H460 0.930 1_554 S
C474 C472 1.395 . S
C474 C477 1.403 1_554 S
C475 C472 1.403 1_545 S
C475 C476 1.524 . S
C475 C479 1.400 . S
C476 H461 0.960 . S
C476 H462 0.960 . S
C476 H463 0.960 . S
C476 C475 1.524 . S
C477 C474 1.403 1_556 S
C477 C478 1.392 . S
C477 C481 1.495 . S
C478 C477 1.392 . S
C478 C479 1.385 1_566 S
C478 C480 1.478 . S
C479 H473 0.930 . S
C479 C475 1.400 . S
C479 C478 1.385 1_544 S
C480 C478 1.478 . S
C480 C482 1.381 . S
C480 C486 1.383 1_565 S
C481 C477 1.495 . S
C481 H487 0.959 . S
C481 H488 0.961 . S
C481 H489 0.960 . S
C482 C480 1.381 . S
C482 C483 1.394 . S
C482 H490 0.930 . S
C483 C482 1.394 . S
C483 C484 1.433 . S
C483 H491 0.929 . S
C484 C483 1.433 . S
C484 C485 1.329 1_565 S
C485 H469 0.930 . S
C485 C484 1.329 1_545 S
C485 C486 1.379 . S
C486 H470 0.931 . S
C486 C480 1.383 1_545 S
C486 C485 1.379 . S
H487 C481 0.959 . S
H488 C481 0.961 . S
H489 C481 0.960 . S
H490 C482 0.930 . S
H491 C483 0.929 . S
H492 C500 0.929 . S
H493 C502 0.930 . S
H494 C504 0.930 . S
H495 C507 0.929 . S
H496 C510 0.930 . S
H497 C512 0.960 1_556 S
H498 C512 0.960 . S
H499 C512 0.960 . S
C500 H492 0.929 . S
C500 C501 1.377 . S
C500 C502 1.384 . S
C501 C500 1.377 . S
C501 C507 1.390 . S
C502 H493 0.930 . S
C502 C500 1.384 . S
C502 C503 1.372 . S
C503 C502 1.372 . S
C503 C504 1.400 . S
C503 C508 1.490 . S
C504 H494 0.930 . S
C504 C503 1.400 . S
C504 C507 1.386 . S
H505 C521 0.930 . S
H506 C522 0.931 . S
C507 H495 0.929 . S
C507 C501 1.390 . S
C507 C504 1.386 . S
C508 C503 1.490 . S
C508 C510 1.395 . S
C508 C511 1.403 . S
H509 C515 0.930 . S
C510 H496 0.930 . S
C510 C508 1.395 . S
C510 C513 1.403 . S
C511 C508 1.403 . S
C511 C512 1.524 . S
C511 C515 1.400 1_554 S
C512 H497 0.960 1_554 S
C512 H498 0.960 . S
C512 H499 0.960 . S
C512 C511 1.524 . S
C513 C510 1.403 . S
C513 C514 1.392 1_554 S
C513 C517 1.495 . S
C514 C513 1.392 1_556 S
C514 C515 1.385 . S
C514 C516 1.478 . S
C515 H509 0.930 . S
C515 C511 1.400 1_556 S
C515 C514 1.385 . S
C516 C514 1.478 . S
C516 C518 1.381 . S
C516 C522 1.383 . S
C517 C513 1.495 . S
C517 H523 0.959 . S
C517 H524 0.961 . S
C517 H525 0.960 . S
C518 C516 1.381 . S
C518 C519 1.394 . S
C518 H526 0.930 1_556 S
C519 C518 1.394 . S
C519 C520 1.383 . S
C519 H527 0.929 . S
C520 C519 1.383 . S
C520 C521 1.377 . S
C521 H505 0.930 . S
C521 C520 1.377 . S
C521 C522 1.379 . S
C522 H506 0.931 . S
C522 C516 1.383 . S
C522 C521 1.379 . S
H523 C517 0.959 . S
H524 C517 0.961 . S
H525 C517 0.960 . S
H526 C518 0.930 1_554 S
H527 C519 0.929 . S
H528 C536 0.929 . S
H529 C538 0.930 . S
H530 C540 0.930 . S
H531 C543 0.929 . S
H532 C546 0.930 . S
H533 C548 0.960 . S
H534 C548 0.960 . S
H535 C548 0.960 . S
C536 H528 0.929 . S
C536 C537 1.377 . S
C536 C538 1.384 . S
C537 C536 1.377 . S
C537 C543 1.390 . S
C538 H529 0.930 . S
C538 C536 1.384 . S
C538 C539 1.372 . S
C539 C538 1.372 . S
C539 C540 1.400 . S
C539 C544 1.490 . S
C540 H530 0.930 . S
C540 C539 1.400 . S
C540 C543 1.386 . S
H541 C557 0.930 . S
H542 C558 0.931 . S
C543 H531 0.929 . S
C543 C537 1.390 . S
C543 C540 1.386 . S
C544 C539 1.490 . S
C544 C546 1.395 . S
C544 C547 1.403 . S
H545 C551 0.930 . S
C546 H532 0.930 . S
C546 C544 1.395 . S
C546 C549 1.403 1_554 S
C547 C544 1.403 . S
C547 C548 1.524 . S
C547 C551 1.400 . S
C548 H533 0.960 . S
C548 H534 0.960 . S
C548 H535 0.960 . S
C548 C547 1.524 . S
C549 C546 1.403 1_556 S
C549 C550 1.392 . S
C549 C553 1.495 . S
C550 C549 1.392 . S
C550 C551 1.385 1_556 S
C550 C552 1.478 . S
C551 H545 0.930 . S
C551 C547 1.400 . S
C551 C550 1.385 1_554 S
C552 C550 1.478 . S
C552 C554 1.381 . S
C552 C558 1.383 . S
C553 C549 1.495 . S
C553 H559 0.959 . S
C553 H560 0.961 . S
C553 H561 0.960 . S
C554 C552 1.381 . S
C554 C555 1.394 . S
C554 H562 0.930 . S
C555 C554 1.394 . S
C555 C556 1.383 . S
C555 H563 0.929 . S
C556 C555 1.383 . S
C556 C557 1.377 . S
C557 H541 0.930 . S
C557 C556 1.377 . S
C557 C558 1.379 . S
C558 H542 0.931 . S
C558 C552 1.383 . S
C558 C557 1.379 . S
H559 C553 0.959 . S
H560 C553 0.961 . S
H561 C553 0.960 . S
H562 C554 0.930 . S
H563 C555 0.929 . S
H564 C572 0.929 . S
H565 C574 0.930 . S
H566 C576 0.930 . S
H567 C579 0.929 . S
H568 C582 0.930 . S
H569 C584 0.960 . S
H570 C584 0.960 . S
H571 C584 0.960 . S
C572 H564 0.929 . S
C572 C573 1.411 . S
C572 C574 1.384 . S
C573 C572 1.411 . S
C573 C579 1.357 1_655 S
C574 H565 0.930 . S
C574 C572 1.384 . S
C574 C575 1.372 . S
C575 C574 1.372 . S
C575 C576 1.400 1_655 S
C575 C580 1.490 . S
C576 H566 0.930 . S
C576 C575 1.400 1_455 S
C576 C579 1.386 . S
H577 C593 0.930 . S
H578 C594 0.931 . S
C579 H567 0.929 . S
C579 C573 1.357 1_455 S
C579 C576 1.386 . S
C580 C575 1.490 . S
C580 C582 1.395 . S
C580 C583 1.403 1_655 S
H581 C587 0.930 . S
C582 H568 0.930 . S
C582 C580 1.395 . S
C582 C585 1.403 1_554 S
C583 C580 1.403 1_455 S
C583 C584 1.524 . S
C583 C587 1.400 . S
C584 H569 0.960 . S
C584 H570 0.960 . S
C584 H571 0.960 . S
C584 C583 1.524 . S
C585 C582 1.403 1_556 S
C585 C586 1.392 . S
C585 C589 1.495 . S
C586 C585 1.392 . S
C586 C587 1.385 1_656 S
C586 C588 1.478 . S
C587 H581 0.930 . S
C587 C583 1.400 . S
C587 C586 1.385 1_454 S
C588 C586 1.478 . S
C588 C590 1.381 . S
C588 C594 1.383 1_655 S
C589 C585 1.495 . S
C589 H595 0.959 . S
C589 H596 0.961 . S
C589 H597 0.960 . S
C590 C588 1.381 . S
C590 C591 1.394 . S
C590 H598 0.930 . S
C591 C590 1.394 . S
C591 C592 1.383 . S
C591 H599 0.929 . S
C592 C591 1.383 . S
C592 C593 1.377 1_655 S
C593 H577 0.930 . S
C593 C592 1.377 1_455 S
C593 C594 1.379 . S
C594 H578 0.931 . S
C594 C588 1.383 1_455 S
C594 C593 1.379 . S
H595 C589 0.959 . S
H596 C589 0.961 . S
H597 C589 0.960 . S
H598 C590 0.930 . S
H599 C591 0.929 . S
H600 C608 0.929 . S
H601 C610 0.930 . S
H602 C612 0.930 . S
H603 C615 0.929 . S
H604 C618 0.930 . S
H605 C620 0.960 . S
H606 C620 0.960 . S
H607 C620 0.960 . S
C608 H600 0.929 . S
C608 C609 1.377 1_655 S
C608 C610 1.384 . S
C609 C608 1.377 1_455 S
C609 C615 1.390 . S
C610 H601 0.930 . S
C610 C608 1.384 . S
C610 C611 1.372 . S
C611 C610 1.372 . S
C611 C612 1.400 1_655 S
C611 C616 1.490 . S
C612 H602 0.930 . S
C612 C611 1.400 1_455 S
C612 C615 1.386 . S
H613 C629 0.930 . S
H614 C630 0.931 . S
C615 H603 0.929 . S
C615 C609 1.390 . S
C615 C612 1.386 . S
C616 C611 1.490 . S
C616 C618 1.395 . S
C616 C619 1.403 1_655 S
H617 C623 0.930 . S
C618 H604 0.930 . S
C618 C616 1.395 . S
C618 C621 1.403 . S
C619 C616 1.403 1_455 S
C619 C620 1.524 . S
C619 C623 1.400 . S
C620 H605 0.960 . S
C620 H606 0.960 . S
C620 H607 0.960 . S
C620 C619 1.524 . S
C621 C618 1.403 . S
C621 C622 1.392 . S
C621 C625 1.495 . S
C622 C621 1.392 . S
C622 C623 1.385 1_655 S
C622 C624 1.478 . S
C623 H617 0.930 . S
C623 C619 1.400 . S
C623 C622 1.385 1_455 S
C624 C622 1.478 . S
C624 C626 1.381 . S
C624 C630 1.383 . S
C625 C621 1.495 . S
C625 H631 0.959 . S
C625 H632 0.961 . S
C625 H633 0.960 . S
C626 C624 1.381 . S
C626 C627 1.394 . S
C626 H634 0.930 . S
C627 C626 1.394 . S
C627 C628 1.383 . S
C627 H635 0.929 . S
C628 C627 1.383 . S
C628 C629 1.377 . S
C629 H613 0.930 . S
C629 C628 1.377 . S
C629 C630 1.379 . S
C630 H614 0.931 . S
C630 C624 1.383 . S
C630 C629 1.379 . S
H631 C625 0.959 . S
H632 C625 0.961 . S
H633 C625 0.960 . S
H634 C626 0.930 . S
H635 C627 0.929 . S
H636 C644 0.929 . S
H637 C646 0.930 . S
H638 C648 0.930 . S
H639 C651 0.929 . S
H640 C654 0.930 . S
H641 C656 0.960 . S
H642 C656 0.960 . S
H643 C656 0.960 . S
C644 H636 0.929 . S
C644 C645 1.377 . S
C644 C646 1.384 . S
C645 C644 1.377 . S
C645 C651 1.390 1_545 S
C646 H637 0.930 . S
C646 C644 1.384 . S
C646 C647 1.372 1_545 S
C647 C646 1.372 1_565 S
C647 C648 1.400 . S
C647 C652 1.490 . S
C648 H638 0.930 . S
C648 C647 1.400 . S
C648 C651 1.386 . S
H649 C665 0.930 . S
H650 C666 0.931 . S
C651 H639 0.929 . S
C651 C645 1.390 1_565 S
C651 C648 1.386 . S
C652 C647 1.490 . S
C652 C654 1.395 . S
C652 C655 1.403 1_565 S
H653 C659 0.930 1_545 S
C654 H640 0.930 . S
C654 C652 1.395 . S
C654 C657 1.403 . S
C655 C652 1.403 1_545 S
C655 C656 1.524 . S
C655 C659 1.400 1_545 S
C656 H641 0.960 . S
C656 H642 0.960 . S
C656 H643 0.960 . S
C656 C655 1.524 . S
C657 C654 1.403 . S
C657 C658 1.392 . S
C657 C661 1.495 . S
C658 C657 1.392 . S
C658 C659 1.385 . S
C658 C660 1.478 . S
C659 H653 0.930 1_565 S
C659 C655 1.400 1_565 S
C659 C658 1.385 . S
C660 C658 1.478 . S
C660 C662 1.381 . S
C660 C666 1.383 . S
C661 C657 1.495 . S
C661 H667 0.959 . S
C661 H668 0.961 . S
C661 H669 0.960 . S
C662 C660 1.381 . S
C662 C663 1.394 . S
C662 H670 0.930 1_565 S
C663 C662 1.394 . S
C663 C664 1.383 . S
C663 H671 0.929 . S
C664 C663 1.383 . S
C664 C665 1.377 . S
C665 H649 0.930 . S
C665 C664 1.377 . S
C665 C666 1.379 . S
C666 H650 0.931 . S
C666 C660 1.383 . S
C666 C665 1.379 . S
H667 C661 0.959 . S
H668 C661 0.961 . S
H669 C661 0.960 . S
H670 C662 0.930 1_545 S
H671 C663 0.929 . S
H672 C680 0.929 . S
H673 C682 0.930 . S
H674 C684 0.930 . S
H675 C687 0.929 . S
H676 C690 0.930 . S
H677 C692 0.960 . S
H678 C692 0.960 . S
H679 C692 0.960 . S
C680 H672 0.929 . S
C680 C681 1.377 . S
C680 C682 1.384 . S
C681 C680 1.377 . S
C681 C687 1.390 . S
C682 H673 0.930 . S
C682 C680 1.384 . S
C682 C683 1.372 . S
C683 C682 1.372 . S
C683 C684 1.400 . S
C683 C688 1.490 . S
C684 H674 0.930 . S
C684 C683 1.400 . S
C684 C687 1.386 . S
H685 C701 0.930 . S
H686 C702 0.931 . S
C687 H675 0.929 . S
C687 C681 1.390 . S
C687 C684 1.386 . S
C688 C683 1.490 . S
C688 C690 1.395 . S
C688 C691 1.403 . S
H689 C695 0.930 . S
C690 H676 0.930 . S
C690 C688 1.395 . S
C690 C693 1.403 . S
C691 C688 1.403 . S
C691 C692 1.524 . S
C691 C695 1.400 . S
C692 H677 0.960 . S
C692 H678 0.960 . S
C692 H679 0.960 . S
C692 C691 1.524 . S
C693 C690 1.403 . S
C693 C694 1.392 . S
C693 C697 1.495 . S
C694 C693 1.392 . S
C694 C695 1.385 . S
C694 C696 1.478 . S
C695 H689 0.930 . S
C695 C691 1.400 . S
C695 C694 1.385 . S
C696 C694 1.478 . S
C696 C698 1.381 . S
C696 C702 1.383 . S
C697 C693 1.495 . S
C697 H703 0.959 . S
C697 H704 0.961 . S
C697 H705 0.960 . S
C698 C696 1.381 . S
C698 C699 1.394 . S
C698 H706 0.930 . S
C699 C698 1.394 . S
C699 C700 1.383 . S
C699 H707 0.929 . S
C700 C699 1.383 . S
C700 C701 1.377 . S
C701 H685 0.930 . S
C701 C700 1.377 . S
C701 C702 1.379 . S
C702 H686 0.931 . S
C702 C696 1.383 . S
C702 C701 1.379 . S
H703 C697 0.959 . S
H704 C697 0.961 . S
H705 C697 0.960 . S
H706 C698 0.930 . S
H707 C699 0.929 . S
H708 C716 0.929 . S
H709 C718 0.930 . S
H710 C720 0.930 . S
H711 C723 0.929 . S
H712 C726 0.930 . S
H713 C728 0.960 . S
H714 C728 0.960 . S
H715 C728 0.960 . S
C716 H708 0.929 . S
C716 C717 1.377 . S
C716 C718 1.384 . S
C717 C716 1.377 . S
C717 C723 1.390 . S
C718 H709 0.930 . S
C718 C716 1.384 . S
C718 C719 1.372 . S
C719 C718 1.372 . S
C719 C720 1.400 . S
C719 C724 1.490 . S
C720 H710 0.930 . S
C720 C719 1.400 . S
C720 C723 1.386 . S
H721 C737 0.930 . S
H722 C738 0.931 . S
C723 H711 0.929 . S
C723 C717 1.390 . S
C723 C720 1.386 . S
C724 C719 1.490 . S
C724 C726 1.395 . S
C724 C727 1.403 . S
H725 C731 0.930 . S
C726 H712 0.930 . S
C726 C724 1.395 . S
C726 C729 1.403 . S
C727 C724 1.403 . S
C727 C728 1.524 . S
C727 C731 1.400 . S
C728 H713 0.960 . S
C728 H714 0.960 . S
C728 H715 0.960 . S
C728 C727 1.524 . S
C729 C726 1.403 . S
C729 C730 1.392 . S
C729 C733 1.495 . S
C730 C729 1.392 . S
C730 C731 1.385 . S
C730 C732 1.478 . S
C731 H725 0.930 . S
C731 C727 1.400 . S
C731 C730 1.385 . S
C732 C730 1.478 . S
C732 C734 1.381 . S
C732 C738 1.383 . S
C733 C729 1.495 . S
C733 H739 0.959 . S
C733 H740 0.961 . S
C733 H741 0.960 . S
C734 C732 1.381 . S
C734 C735 1.394 . S
C734 H742 0.930 . S
C735 C734 1.394 . S
C735 C736 1.383 . S
C735 H743 0.929 . S
C736 C735 1.383 . S
C736 C737 1.377 . S
C737 H721 0.930 . S
C737 C736 1.377 . S
C737 C738 1.379 . S
C738 H722 0.931 . S
C738 C732 1.383 . S
C738 C737 1.379 . S
H739 C733 0.959 . S
H740 C733 0.961 . S
H741 C733 0.960 . S
H742 C734 0.930 . S
H743 C735 0.929 . S
H744 C752 0.929 . S
H745 C754 0.930 . S
H746 C756 0.930 . S
H747 C759 0.929 . S
H748 C762 0.930 . S
H749 C764 0.960 1_556 S
H750 C764 0.972 . S
H751 C764 0.951 1_455 S
C752 H744 0.929 . S
C752 C753 1.377 . S
C752 C754 1.384 . S
C753 C752 1.377 . S
C753 C759 1.390 1_655 S
C754 H745 0.930 . S
C754 C752 1.384 . S
C754 C755 1.372 1_655 S
C755 C754 1.372 1_455 S
C755 C756 1.400 . S
C755 C760 1.490 . S
C756 H746 0.930 . S
C756 C755 1.400 . S
C756 C759 1.386 . S
H757 C773 0.930 . S
H758 C774 0.931 . S
C759 H747 0.929 . S
C759 C753 1.390 1_455 S
C759 C756 1.386 . S
C760 C755 1.490 . S
C760 C762 1.395 . S
C760 C763 1.403 . S
H761 C767 0.930 . S
C762 H748 0.930 . S
C762 C760 1.395 . S
C762 C765 1.403 . S
C763 C760 1.403 . S
C763 C764 1.521 1_455 S
C763 C767 1.400 . S
C764 H749 0.960 1_554 S
C764 H750 0.972 . S
C764 H751 0.951 1_655 S
C764 C763 1.521 1_655 S
C765 C762 1.403 . S
C765 C766 1.392 . S
C765 C769 1.495 . S
C766 C765 1.392 . S
C766 C767 1.385 . S
C766 C768 1.478 . S
C767 H761 0.930 . S
C767 C763 1.400 . S
C767 C766 1.385 . S
C768 C766 1.478 . S
C768 C770 1.395 . S
C768 C774 1.383 . S
C769 C765 1.495 . S
C769 H775 0.959 . S
C769 H776 0.961 . S
C769 H777 0.960 . S
C770 C768 1.395 . S
C770 C771 1.397 . S
C770 H778 0.914 1_455 S
C771 C770 1.397 . S
C771 C772 1.383 1_554 S
C771 H779 0.929 1_455 S
C772 C771 1.383 1_556 S
C772 C773 1.377 . S
C773 H757 0.930 . S
C773 C772 1.377 . S
C773 C774 1.379 1_556 S
C774 H758 0.931 . S
C774 C768 1.383 . S
C774 C773 1.379 1_554 S
H775 C769 0.959 . S
H776 C769 0.961 . S
H777 C769 0.960 . S
H778 C770 0.914 1_655 S
H779 C771 0.929 1_655 S
H780 C788 0.929 . S
H781 C790 0.930 . S
H782 C792 0.930 . S
H783 C795 0.929 . S
H784 C798 0.947 . S
H785 C800 0.960 . S
H786 C800 0.960 . S
H787 C800 0.960 . S
C788 H780 0.929 . S
C788 C789 1.341 1_545 S
C788 C790 1.384 . S
C789 C788 1.341 1_565 S
C789 C795 1.420 . S
C790 H781 0.930 . S
C790 C788 1.384 . S
C790 C791 1.372 . S
C791 C790 1.372 . S
C791 C792 1.400 1_545 S
C791 C796 1.490 . S
C792 H782 0.930 . S
C792 C791 1.400 1_565 S
C792 C795 1.386 . S
H793 C809 0.930 1_565 S
H794 C810 0.929 1_565 S
C795 H783 0.929 . S
C795 C789 1.420 . S
C795 C792 1.386 . S
C796 C791 1.490 . S
C796 C798 1.395 . S
C796 C799 1.403 . S
H797 C803 0.930 . S
C798 H784 0.947 . S
C798 C796 1.395 . S
C798 C801 1.403 . S
C799 C796 1.403 . S
C799 C800 1.524 . S
C799 C803 1.400 . S
C800 H785 0.960 . S
C800 H786 0.960 . S
C800 H787 0.960 . S
C800 C799 1.524 . S
C801 C798 1.403 . S
C801 C802 1.392 . S
C801 C805 1.495 1_554 S
C802 C801 1.392 . S
C802 C803 1.385 . S
C802 C804 1.478 . S
C803 H797 0.930 . S
C803 C799 1.400 . S
C803 C802 1.385 . S
C804 C802 1.478 . S
C804 C806 1.381 1_554 S
C804 C810 1.384 . S
C805 C801 1.495 1_556 S
C805 H811 0.951 1_545 S
C805 H812 0.961 1_545 S
C805 H813 0.960 . S
C806 C804 1.381 1_556 S
C806 C807 1.394 . S
C806 H814 0.930 . S
C807 C806 1.394 . S
C807 C808 1.383 . S
C807 H815 0.929 . S
C808 C807 1.383 . S
C808 C809 1.377 1_556 S
C809 H793 0.930 1_545 S
C809 C808 1.377 1_554 S
C809 C810 1.380 . S
C810 H794 0.929 1_545 S
C810 C804 1.384 . S
C810 C809 1.380 . S
H811 C805 0.951 1_565 S
H812 C805 0.961 1_565 S
H813 C805 0.960 . S
H814 C806 0.930 . S
H815 C807 0.929 . S
H816 C824 0.929 . S
H817 C826 0.930 . S
H818 C828 0.930 . S
H819 C831 0.929 . S
H820 C834 0.930 . S
H821 C836 0.960 . S
H822 C836 0.960 . S
H823 C836 0.960 . S
C824 H816 0.929 . S
C824 C825 1.377 . S
C824 C826 1.384 . S
C825 C824 1.377 . S
C825 C831 1.390 . S
C826 H817 0.930 . S
C826 C824 1.384 . S
C826 C827 1.372 . S
C827 C826 1.372 . S
C827 C828 1.400 . S
C827 C832 1.490 . S
C828 H818 0.930 . S
C828 C827 1.400 . S
C828 C831 1.386 . S
H829 C845 0.930 . S
H830 C846 0.931 . S
C831 H819 0.929 . S
C831 C825 1.390 . S
C831 C828 1.386 . S
C832 C827 1.490 . S
C832 C834 1.395 . S
C832 C835 1.403 . S
H833 C839 0.930 . S
C834 H820 0.930 . S
C834 C832 1.395 . S
C834 C837 1.403 . S
C835 C832 1.403 . S
C835 C836 1.524 . S
C835 C839 1.400 . S
C836 H821 0.960 . S
C836 H822 0.960 . S
C836 H823 0.960 . S
C836 C835 1.524 . S
C837 C834 1.403 . S
C837 C838 1.392 . S
C837 C841 1.495 1_554 S
C838 C837 1.392 . S
C838 C839 1.385 . S
C838 C840 1.478 . S
C839 H833 0.930 . S
C839 C835 1.400 . S
C839 C838 1.385 . S
C840 C838 1.478 . S
C840 C842 1.381 1_554 S
C840 C846 1.383 . S
C841 C837 1.495 1_556 S
C841 H847 0.959 . S
C841 H848 0.961 . S
C841 H849 0.960 . S
C842 C840 1.381 1_556 S
C842 C843 1.394 . S
C842 H850 0.930 . S
C843 C842 1.394 . S
C843 C844 1.383 . S
C843 H851 0.929 . S
C844 C843 1.383 . S
C844 C845 1.377 1_556 S
C845 H829 0.930 . S
C845 C844 1.377 1_554 S
C845 C846 1.379 . S
C846 H830 0.931 . S
C846 C840 1.383 . S
C846 C845 1.379 . S
H847 C841 0.959 . S
H848 C841 0.961 . S
H849 C841 0.960 . S
H850 C842 0.930 . S
H851 C843 0.929 . S
H852 C860 0.929 . S
H853 C862 0.930 . S
H854 C864 0.930 . S
H855 C867 0.929 . S
H856 C870 0.930 . S
H857 C872 0.960 . S
H858 C872 0.960 . S
H859 C872 0.960 . S
C860 H852 0.929 . S
C860 C861 1.377 . S
C860 C862 1.384 . S
C861 C860 1.377 . S
C861 C867 1.390 . S
C862 H853 0.930 . S
C862 C860 1.384 . S
C862 C863 1.372 . S
C863 C862 1.372 . S
C863 C864 1.400 . S
C863 C868 1.490 . S
C864 H854 0.930 . S
C864 C863 1.400 . S
C864 C867 1.386 . S
H865 C881 0.930 . S
H866 C882 0.931 . S
C867 H855 0.929 . S
C867 C861 1.390 . S
C867 C864 1.386 . S
C868 C863 1.490 . S
C868 C870 1.395 . S
C868 C871 1.403 . S
H869 C875 0.930 . S
C870 H856 0.930 . S
C870 C868 1.395 . S
C870 C873 1.403 . S
C871 C868 1.403 . S
C871 C872 1.524 . S
C871 C875 1.400 . S
C872 H857 0.960 . S
C872 H858 0.960 . S
C872 H859 0.960 . S
C872 C871 1.524 . S
C873 C870 1.403 . S
C873 C874 1.392 . S
C873 C877 1.495 1_554 S
C874 C873 1.392 . S
C874 C875 1.385 . S
C874 C876 1.478 . S
C875 H869 0.930 . S
C875 C871 1.400 . S
C875 C874 1.385 . S
C876 C874 1.478 . S
C876 C878 1.381 1_554 S
C876 C882 1.383 . S
C877 C873 1.495 1_556 S
C877 H883 0.959 . S
C877 H884 0.961 . S
C877 H885 0.960 . S
C878 C876 1.381 1_556 S
C878 C879 1.394 . S
C878 H886 0.930 . S
C879 C878 1.394 . S
C879 C880 1.383 . S
C879 H887 0.929 . S
C880 C879 1.383 . S
C880 C881 1.377 1_556 S
C881 H865 0.930 . S
C881 C880 1.377 1_554 S
C881 C882 1.379 . S
C882 H866 0.931 . S
C882 C876 1.383 . S
C882 C881 1.379 . S
H883 C877 0.959 . S
H884 C877 0.961 . S
H885 C877 0.960 . S
H886 C878 0.930 . S
H887 C879 0.929 . S
H888 C896 0.929 . S
H889 C898 0.930 . S
H890 C900 0.930 . S
H891 C903 0.929 . S
H892 C906 0.930 . S
H893 C908 0.960 . S
H894 C908 0.960 . S
H895 C908 0.960 . S
C896 H888 0.929 . S
C896 C897 1.377 1_655 S
C896 C898 1.384 . S
C897 C896 1.377 1_455 S
C897 C903 1.390 . S
C898 H889 0.930 . S
C898 C896 1.384 . S
C898 C899 1.372 1_655 S
C899 C898 1.372 1_455 S
C899 C900 1.400 . S
C899 C904 1.490 . S
C900 H890 0.930 . S
C900 C899 1.400 . S
C900 C903 1.386 . S
H901 C917 0.930 . S
H902 C918 0.931 . S
C903 H891 0.929 . S
C903 C897 1.390 . S
C903 C900 1.386 . S
C904 C899 1.490 . S
C904 C906 1.395 . S
C904 C907 1.403 1_455 S
H905 C911 0.930 . S
C906 H892 0.930 . S
C906 C904 1.395 . S
C906 C909 1.403 . S
C907 C904 1.403 1_655 S
C907 C908 1.524 . S
C907 C911 1.400 . S
C908 H893 0.960 . S
C908 H894 0.960 . S
C908 H895 0.960 . S
C908 C907 1.524 . S
C909 C906 1.403 . S
C909 C910 1.392 . S
C909 C913 1.495 . S
C910 C909 1.392 . S
C910 C911 1.385 1_455 S
C910 C912 1.478 . S
C911 H905 0.930 . S
C911 C907 1.400 . S
C911 C910 1.385 1_655 S
C912 C910 1.478 . S
C912 C914 1.381 1_455 S
C912 C918 1.383 . S
C913 C909 1.495 . S
C913 H919 0.959 . S
C913 H920 0.961 . S
C913 H921 0.960 . S
C914 C912 1.381 1_655 S
C914 C915 1.394 . S
C914 H922 0.930 . S
C915 C914 1.394 . S
C915 C916 1.383 1_655 S
C915 H923 0.929 . S
C916 C915 1.383 1_455 S
C916 C917 1.377 . S
C917 H901 0.930 . S
C917 C916 1.377 . S
C917 C918 1.379 . S
C918 H902 0.931 . S
C918 C912 1.383 . S
C918 C917 1.379 . S
H919 C913 0.959 . S
H920 C913 0.961 . S
H921 C913 0.960 . S
H922 C914 0.930 . S
H923 C915 0.929 . S
H924 C932 0.929 . S
H925 C934 0.930 . S
H926 C936 0.930 . S
H927 C939 0.929 . S
H928 C942 0.930 . S
H929 C944 0.960 . S
H930 C944 0.959 . S
H931 C944 0.960 . S
C932 H924 0.929 . S
C932 C933 1.377 1_565 S
C932 C934 1.384 . S
C933 C932 1.377 1_545 S
C933 C939 1.390 . S
C934 H925 0.930 . S
C934 C932 1.384 . S
C934 C935 1.372 1_565 S
C935 C934 1.372 1_545 S
C935 C936 1.400 . S
C935 C940 1.490 . S
C936 H926 0.930 . S
C936 C935 1.400 . S
C936 C939 1.386 . S
H937 C953 0.930 . S
H938 C954 0.931 . S
C939 H927 0.929 . S
C939 C933 1.390 . S
C939 C936 1.386 . S
C940 C935 1.490 . S
C940 C942 1.395 1_545 S
C940 C943 1.403 . S
H941 C947 0.930 . S
C942 H928 0.930 . S
C942 C940 1.395 1_565 S
C942 C945 1.403 . S
C943 C940 1.403 . S
C943 C944 1.524 . S
C943 C947 1.400 . S
C944 H929 0.960 . S
C944 H930 0.959 . S
C944 H931 0.960 . S
C944 C943 1.524 . S
C945 C942 1.403 . S
C945 C946 1.392 1_565 S
C945 C949 1.495 . S
C946 C945 1.392 1_545 S
C946 C947 1.385 . S
C946 C948 1.478 . S
C947 H941 0.930 . S
C947 C943 1.400 . S
C947 C946 1.385 . S
C948 C946 1.478 . S
C948 C950 1.381 1_545 S
C948 C954 1.383 . S
C949 C945 1.495 . S
C949 H955 0.959 . S
C949 H956 0.961 . S
C949 H957 0.960 . S
C950 C948 1.381 1_565 S
C950 C951 1.394 . S
C950 H958 0.930 . S
C951 C950 1.394 . S
C951 C952 1.383 1_565 S
C951 H959 0.929 . S
C952 C951 1.383 1_545 S
C952 C953 1.377 . S
C953 H937 0.930 . S
C953 C952 1.377 . S
C953 C954 1.379 . S
C954 H938 0.931 . S
C954 C948 1.383 . S
C954 C953 1.379 . S
H955 C949 0.959 . S
H956 C949 0.961 . S
H957 C949 0.960 . S
H958 C950 0.930 . S
H959 C951 0.929 . S
H960 C968 0.929 . S
H961 C970 0.930 . S
H962 C972 0.930 . S
H963 C975 0.929 . S
H964 C978 0.930 . S
H965 C980 0.960 . S
H966 C980 0.960 . S
H967 C980 0.960 . S
C968 H960 0.929 . S
C968 C969 1.377 . S
C968 C970 1.384 . S
C969 C968 1.377 . S
C969 C975 1.390 . S
C970 H961 0.930 . S
C970 C968 1.384 . S
C970 C971 1.372 . S
C971 C970 1.372 . S
C971 C972 1.400 . S
C971 C976 1.490 . S
C972 H962 0.930 . S
C972 C971 1.400 . S
C972 C975 1.386 . S
H973 C989 0.930 . S
H974 C990 0.931 . S
C975 H963 0.929 . S
C975 C969 1.390 . S
C975 C972 1.386 . S
C976 C971 1.490 . S
C976 C978 1.395 . S
C976 C979 1.403 . S
H977 C983 0.930 . S
C978 H964 0.930 . S
C978 C976 1.395 . S
C978 C981 1.403 . S
C979 C976 1.403 . S
C979 C980 1.524 . S
C979 C983 1.400 . S
C980 H965 0.960 . S
C980 H966 0.960 . S
C980 H967 0.960 . S
C980 C979 1.524 . S
C981 C978 1.403 . S
C981 C982 1.392 . S
C981 C985 1.495 . S
C982 C981 1.392 . S
C982 C983 1.385 . S
C982 C984 1.478 . S
C983 H977 0.930 . S
C983 C979 1.400 . S
C983 C982 1.385 . S
C984 C982 1.478 . S
C984 C986 1.381 . S
C984 C990 1.383 . S
C985 C981 1.495 . S
C985 H991 0.959 . S
C985 H992 0.961 . S
C985 H993 0.960 . S
C986 C984 1.381 . S
C986 C987 1.394 . S
C986 H994 0.930 . S
C987 C986 1.394 . S
C987 C988 1.383 . S
C987 H995 0.929 . S
C988 C987 1.383 . S
C988 C989 1.377 . S
C989 H973 0.930 . S
C989 C988 1.377 . S
C989 C990 1.379 . S
C990 H974 0.931 . S
C990 C984 1.383 . S
C990 C989 1.379 . S
H991 C985 0.959 . S
H992 C985 0.961 . S
H993 C985 0.960 . S
H994 C986 0.930 . S
H995 C987 0.929 . S
H996 C1004 0.929 . S
H997 C1006 0.930 . S
H998 C1008 0.930 . S
H999 C1011 0.929 . S
H1000 C1014 0.930 . S
H1001 C1016 0.960 . S
H1002 C1016 0.960 . S
H1003 C1016 0.960 . S
C1004 H996 0.929 . S
C1004 C1005 1.377 . S
C1004 C1006 1.384 . S
C1005 C1004 1.377 . S
C1005 C1011 1.390 . S
C1006 H997 0.930 . S
C1006 C1004 1.384 . S
C1006 C1007 1.372 . S
C1007 C1006 1.372 . S
C1007 C1008 1.400 . S
C1007 C1012 1.490 . S
C1008 H998 0.930 . S
C1008 C1007 1.400 . S
C1008 C1011 1.386 . S
H1009 C1025 0.930 . S
H1010 C1026 0.931 . S
C1011 H999 0.929 . S
C1011 C1005 1.390 . S
C1011 C1008 1.386 . S
C1012 C1007 1.490 . S
C1012 C1014 1.395 . S
C1012 C1015 1.403 . S
H1013 C1019 0.930 . S
C1014 H1000 0.930 . S
C1014 C1012 1.395 . S
C1014 C1017 1.403 . S
C1015 C1012 1.403 . S
C1015 C1016 1.524 . S
C1015 C1019 1.400 . S
C1016 H1001 0.960 . S
C1016 H1002 0.960 . S
C1016 H1003 0.960 . S
C1016 C1015 1.524 . S
C1017 C1014 1.403 . S
C1017 C1018 1.392 . S
C1017 C1021 1.495 . S
C1018 C1017 1.392 . S
C1018 C1019 1.385 . S
C1018 C1020 1.478 . S
C1019 H1013 0.930 . S
C1019 C1015 1.400 . S
C1019 C1018 1.385 . S
C1020 C1018 1.478 . S
C1020 C1022 1.381 . S
C1020 C1026 1.383 . S
C1021 C1017 1.495 . S
C1021 H1027 0.959 . S
C1021 H1028 0.961 . S
C1021 H1029 0.960 . S
C1022 C1020 1.381 . S
C1022 C1023 1.394 . S
C1022 H1030 0.930 . S
C1023 C1022 1.394 . S
C1023 C1024 1.383 . S
C1023 H1031 0.929 . S
C1024 C1023 1.383 . S
C1024 C1025 1.377 . S
C1025 H1009 0.930 . S
C1025 C1024 1.377 . S
C1025 C1026 1.379 . S
C1026 H1010 0.931 . S
C1026 C1020 1.383 . S
C1026 C1025 1.379 . S
H1027 C1021 0.959 . S
H1028 C1021 0.961 . S
H1029 C1021 0.960 . S
H1030 C1022 0.930 . S
H1031 C1023 0.929 . S
H1032 C1040 0.929 . S
H1033 C1042 0.930 . S
H1034 C1044 0.930 . S
H1035 C1047 0.929 . S
H1036 C1050 0.930 . S
H1037 C1052 0.960 . S
H1038 C1052 0.960 1_655 S
H1039 C1052 0.960 . S
C1040 H1032 0.929 . S
C1040 C1041 1.377 . S
C1040 C1042 1.384 . S
C1041 C1040 1.377 . S
C1041 C1047 1.390 1_655 S
C1042 H1033 0.930 . S
C1042 C1040 1.384 . S
C1042 C1043 1.372 . S
C1043 C1042 1.372 . S
C1043 C1044 1.400 1_655 S
C1043 C1048 1.490 . S
C1044 H1034 0.930 . S
C1044 C1043 1.400 1_455 S
C1044 C1047 1.386 . S
H1045 C1061 0.930 . S
H1046 C1062 0.931 . S
C1047 H1035 0.929 . S
C1047 C1041 1.390 1_455 S
C1047 C1044 1.386 . S
C1048 C1043 1.490 . S
C1048 C1050 1.395 . S
C1048 C1051 1.403 1_655 S
H1049 C1055 0.941 . S
C1050 H1036 0.930 . S
C1050 C1048 1.395 . S
C1050 C1053 1.403 . S
C1051 C1048 1.403 1_455 S
C1051 C1052 1.524 . S
C1051 C1055 1.402 . S
C1052 H1037 0.960 . S
C1052 H1038 0.960 1_455 S
C1052 H1039 0.960 . S
C1052 C1051 1.524 . S
C1053 C1050 1.403 . S
C1053 C1054 1.392 . S
C1053 C1057 1.495 . S
C1054 C1053 1.392 . S
C1054 C1055 1.374 1_655 S
C1054 C1056 1.478 . S
C1055 H1049 0.941 . S
C1055 C1051 1.402 . S
C1055 C1054 1.374 1_455 S
C1056 C1054 1.478 . S
C1056 C1058 1.381 . S
C1056 C1062 1.383 1_655 S
C1057 C1053 1.495 . S
C1057 H1063 0.959 . S
C1057 H1064 0.961 . S
C1057 H1065 0.960 . S
C1058 C1056 1.381 . S
C1058 C1059 1.394 . S
C1058 H1066 0.930 . S
C1059 C1058 1.394 . S
C1059 C1060 1.383 . S
C1059 H1067 0.929 . S
C1060 C1059 1.383 . S
C1060 C1061 1.377 1_655 S
C1061 H1045 0.930 . S
C1061 C1060 1.377 1_455 S
C1061 C1062 1.379 . S
C1062 H1046 0.931 . S
C1062 C1056 1.383 1_455 S
C1062 C1061 1.379 . S
H1063 C1057 0.959 . S
H1064 C1057 0.961 . S
H1065 C1057 0.960 . S
H1066 C1058 0.930 . S
H1067 C1059 0.929 . S
H1068 C1076 0.929 . S
H1069 C1078 0.930 . S
H1070 C1080 0.930 . S
H1071 C1083 0.929 . S
H1072 C1086 0.930 . S
H1073 C1088 0.960 . S
H1074 C1088 0.960 . S
H1075 C1088 0.960 1_565 S
C1076 H1068 0.929 . S
C1076 C1077 1.346 1_545 S
C1076 C1078 1.384 . S
C1077 C1076 1.346 1_565 S
C1077 C1083 1.423 . S
C1078 H1069 0.930 . S
C1078 C1076 1.384 . S
C1078 C1079 1.372 1_545 S
C1079 C1078 1.372 1_565 S
C1079 C1080 1.400 . S
C1079 C1084 1.490 . S
C1080 H1070 0.930 . S
C1080 C1079 1.400 . S
C1080 C1083 1.386 . S
H1081 C1097 0.930 . S
H1082 C1098 0.931 . S
C1083 H1071 0.929 . S
C1083 C1077 1.423 . S
C1083 C1080 1.386 . S
C1084 C1079 1.490 . S
C1084 C1086 1.395 . S
C1084 C1087 1.403 . S
H1085 C1091 0.933 . S
C1086 H1072 0.930 . S
C1086 C1084 1.395 . S
C1086 C1089 1.403 . S
C1087 C1084 1.403 . S
C1087 C1088 1.522 1_565 S
C1087 C1091 1.400 . S
C1088 H1073 0.960 . S
C1088 H1074 0.960 . S
C1088 H1075 0.960 1_545 S
C1088 C1087 1.522 1_545 S
C1089 C1086 1.403 . S
C1089 C1090 1.392 . S
C1089 C1093 1.495 . S
C1090 C1089 1.392 . S
C1090 C1091 1.385 . S
C1090 C1092 1.478 . S
C1091 H1085 0.933 . S
C1091 C1087 1.400 . S
C1091 C1090 1.385 . S
C1092 C1090 1.478 . S
C1092 C1094 1.381 1_565 S
C1092 C1098 1.383 . S
C1093 C1089 1.495 . S
C1093 H1099 0.959 . S
C1093 H1100 0.961 . S
C1093 H1101 0.960 1_565 S
C1094 C1092 1.381 1_545 S
C1094 C1095 1.394 . S
C1094 H1102 0.930 . S
C1095 C1094 1.394 . S
C1095 C1096 1.383 1_545 S
C1095 H1103 0.929 . S
C1096 C1095 1.383 1_565 S
C1096 C1097 1.377 . S
C1097 H1081 0.930 . S
C1097 C1096 1.377 . S
C1097 C1098 1.379 . S
C1098 H1082 0.931 . S
C1098 C1092 1.383 . S
C1098 C1097 1.379 . S
H1099 C1093 0.959 . S
H1100 C1093 0.961 . S
H1101 C1093 0.960 1_545 S
H1102 C1094 0.930 . S
H1103 C1095 0.929 . S
H1104 C1112 0.929 . S
H1105 C1114 0.930 . S
H1106 C1116 0.930 . S
H1107 C1119 0.929 . S
H1108 C1122 0.930 . S
H1109 C1124 0.960 . S
H1110 C1124 0.960 . S
H1111 C1124 0.960 . S
C1112 H1104 0.929 . S
C1112 C1113 1.377 . S
C1112 C1114 1.384 . S
C1113 C1112 1.377 . S
C1113 C1119 1.390 . S
C1114 H1105 0.930 . S
C1114 C1112 1.384 . S
C1114 C1115 1.372 . S
C1115 C1114 1.372 . S
C1115 C1116 1.400 . S
C1115 C1120 1.490 . S
C1116 H1106 0.930 . S
C1116 C1115 1.400 . S
C1116 C1119 1.386 . S
H1117 C1133 0.930 . S
H1118 C1134 0.931 . S
C1119 H1107 0.929 . S
C1119 C1113 1.390 . S
C1119 C1116 1.386 . S
C1120 C1115 1.490 . S
C1120 C1122 1.395 . S
C1120 C1123 1.403 . S
H1121 C1127 0.930 . S
C1122 H1108 0.930 . S
C1122 C1120 1.395 . S
C1122 C1125 1.403 . S
C1123 C1120 1.403 . S
C1123 C1124 1.524 . S
C1123 C1127 1.400 . S
C1124 H1109 0.960 . S
C1124 H1110 0.960 . S
C1124 H1111 0.960 . S
C1124 C1123 1.524 . S
C1125 C1122 1.403 . S
C1125 C1126 1.392 . S
C1125 C1129 1.495 . S
C1126 C1125 1.392 . S
C1126 C1127 1.385 . S
C1126 C1128 1.478 . S
C1127 H1121 0.930 . S
C1127 C1123 1.400 . S
C1127 C1126 1.385 . S
C1128 C1126 1.478 . S
C1128 C1130 1.381 . S
C1128 C1134 1.383 . S
C1129 C1125 1.495 . S
C1129 H1135 0.959 . S
C1129 H1136 0.961 . S
C1129 H1137 0.960 . S
C1130 C1128 1.381 . S
C1130 C1131 1.394 . S
C1130 H1138 0.930 . S
C1131 C1130 1.394 . S
C1131 C1132 1.383 . S
C1131 H1139 0.929 . S
C1132 C1131 1.383 . S
C1132 C1133 1.377 . S
C1133 H1117 0.930 . S
C1133 C1132 1.377 . S
C1133 C1134 1.379 . S
C1134 H1118 0.931 . S
C1134 C1128 1.383 . S
C1134 C1133 1.379 . S
H1135 C1129 0.959 . S
H1136 C1129 0.961 . S
H1137 C1129 0.960 . S
H1138 C1130 0.930 . S
H1139 C1131 0.929 . S
H1140 C1148 0.929 . S
H1141 C1150 0.930 . S
H1142 C1152 0.930 . S
H1143 C1155 0.929 . S
H1144 C1158 0.930 . S
H1145 C1160 0.960 . S
H1146 C1160 0.960 . S
H1147 C1160 0.960 . S
C1148 H1140 0.929 . S
C1148 C1149 1.377 . S
C1148 C1150 1.384 . S
C1149 C1148 1.377 . S
C1149 C1155 1.390 . S
C1150 H1141 0.930 . S
C1150 C1148 1.384 . S
C1150 C1151 1.372 . S
C1151 C1150 1.372 . S
C1151 C1152 1.400 . S
C1151 C1156 1.490 . S
C1152 H1142 0.930 . S
C1152 C1151 1.400 . S
C1152 C1155 1.386 . S
H1153 C1169 0.930 . S
H1154 C1170 0.931 . S
C1155 H1143 0.929 . S
C1155 C1149 1.390 . S
C1155 C1152 1.386 . S
C1156 C1151 1.490 . S
C1156 C1158 1.395 . S
C1156 C1159 1.403 . S
H1157 C1163 0.930 . S
C1158 H1144 0.930 . S
C1158 C1156 1.395 . S
C1158 C1161 1.403 . S
C1159 C1156 1.403 . S
C1159 C1160 1.524 . S
C1159 C1163 1.400 . S
C1160 H1145 0.960 . S
C1160 H1146 0.960 . S
C1160 H1147 0.960 . S
C1160 C1159 1.524 . S
C1161 C1158 1.403 . S
C1161 C1162 1.392 . S
C1161 C1165 1.495 . S
C1162 C1161 1.392 . S
C1162 C1163 1.385 . S
C1162 C1164 1.478 . S
C1163 H1157 0.930 . S
C1163 C1159 1.400 . S
C1163 C1162 1.385 . S
C1164 C1162 1.478 . S
C1164 C1166 1.381 . S
C1164 C1170 1.383 . S
C1165 C1161 1.495 . S
C1165 H1171 0.959 . S
C1165 H1172 0.961 . S
C1165 H1173 0.960 . S
C1166 C1164 1.381 . S
C1166 C1167 1.394 . S
C1166 H1174 0.930 . S
C1167 C1166 1.394 . S
C1167 C1168 1.383 . S
C1167 H1175 0.929 . S
C1168 C1167 1.383 . S
C1168 C1169 1.377 . S
C1169 H1153 0.930 . S
C1169 C1168 1.377 . S
C1169 C1170 1.379 . S
C1170 H1154 0.931 . S
C1170 C1164 1.383 . S
C1170 C1169 1.379 . S
H1171 C1165 0.959 . S
H1172 C1165 0.961 . S
H1173 C1165 0.960 . S
H1174 C1166 0.930 . S
H1175 C1167 0.929 . S
C321 C125 1.826 1_545 S
C340 C154 1.860 . S
C376 C194 1.874 . S
C357 C144 1.827 . S
C412 C234 1.867 . S
C393 C87 1.828 . S
C448 C274 1.855 . S
C429 C106 1.813 1_455 S
C484 C167 1.857 1_565 S
C465 C49 1.828 . S
C501 C68 1.826 . S
C520 C207 1.874 . S
C537 C11 1.822 . S
C556 C247 1.868 . S
C573 C30 1.829 . S
C592 C287 1.867 1_655 S
C628 C178 0.405 . S
C609 C97 0.490 . S
C664 C218 0.400 . S
C645 C116 0.484 . S
C700 C258 0.370 . S
C681 C135 0.473 . S
C717 C78 0.449 . S
C736 C298 0.356 . S
C753 C21 0.481 . S
C772 C161 0.373 . S
C808 C201 0.379 . S
C789 C40 0.459 . S
C844 C241 0.369 . S
C825 C59 0.466 . S
C861 C2 0.457 . S
C880 C281 0.385 . S
C897 C101 1.932 . S
C916 C155 2.108 . S
C933 C120 1.927 . S
C952 C195 2.104 . S
C988 C235 2.106 . S
C969 C139 1.926 . S
C1024 C275 2.110 . S
C1005 C82 1.930 . S
C1041 C25 1.928 . S
C1060 C174 2.108 . S
C1096 C214 2.116 . S
C1077 C44 1.932 . S
C1132 C254 2.107 . S
C1113 C63 1.925 . S
C1149 C6 1.934 . S
C1168 C294 2.117 . S
