# Generated by pormake.
# Topology ftw, (4,12)-cn, num edge types: 1
# Building blocks:
#     Node 0, Type 0, BuildingBlock: NAWXER_clean_linker_0, # of connection points: 4
#     Node 1, Type 0, BuildingBlock: NAWXER_clean_linker_0, # of connection points: 4
#     Node 2, Type 0, BuildingBlock: NAWXER_clean_linker_0, # of connection points: 4
#     Node 3, Type 1, BuildingBlock: EZIPEK_clean_sbu_0, # of connection points: 12
#     Edge 4, Type (0, 1), BuildingBlock: KIFKEQ_clean_linker_1, # of connection points: 2
#     Edge 5, Type (0, 1), BuildingBlock: KIFKEQ_clean_linker_1, # of connection points: 2
#     Edge 6, Type (0, 1), BuildingBlock: KIFKEQ_clean_linker_1, # of connection points: 2
#     Edge 7, Type (0, 1), BuildingBlock: KIFKEQ_clean_linker_1, # of connection points: 2
#     Edge 8, Type (0, 1), BuildingBlock: KIFKEQ_clean_linker_1, # of connection points: 2
#     Edge 9, Type (0, 1), BuildingBlock: KIFKEQ_clean_linker_1, # of connection points: 2
#     Edge 10, Type (0, 1), BuildingBlock: KIFKEQ_clean_linker_1, # of connection points: 2
#     Edge 11, Type (0, 1), BuildingBlock: KIFKEQ_clean_linker_1, # of connection points: 2
#     Edge 12, Type (0, 1), BuildingBlock: KIFKEQ_clean_linker_1, # of connection points: 2
#     Edge 13, Type (0, 1), BuildingBlock: KIFKEQ_clean_linker_1, # of connection points: 2
#     Edge 14, Type (0, 1), BuildingBlock: KIFKEQ_clean_linker_1, # of connection points: 2
#     Edge 15, Type (0, 1), BuildingBlock: KIFKEQ_clean_linker_1, # of connection points: 2
# Relax obj value: 0.032
# Max RMSD: 0.131
# Mean RMSD: 0.100
data_MOF--net-ftw--node1-EZIPEK_clean_sbu_0--node2-NAWXER_clean_linker_0--edge1-KIFKEQ_clean_linker_1
_symmetry_space_group_name_H-M    P1
_symmetry_Int_Tables_number       1
_symmetry_cell_setting            triclinic
loop_
_symmetry_equiv_pos_as_xyz
'x, y, z'
_cell_length_a     28.183713
_cell_length_b     29.197699
_cell_length_c     28.584729
_cell_angle_alpha  90.061055
_cell_angle_beta   89.898169
_cell_angle_gamma 90.043699
loop_
_atom_site_label
_atom_site_type_symbol
_atom_site_fract_x
_atom_site_fract_y
_atom_site_fract_z
_atom_type_partial_charge
C0 C 0.02501 0.66858 0.59663 0.0
C1 C 0.98715 0.67438 0.62835 0.0
C2 C 0.02409 0.63325 0.56321 0.0
C3 C 0.98551 0.60277 0.56122 0.0
C4 C 0.94804 0.64463 0.62521 0.0
C5 C 0.9475 0.609 0.59243 0.0
C6 C 0.98712 0.56076 0.53185 0.0
C7 C 0.97195 0.67537 0.42435 0.0
C8 C 0.00137 0.67275 0.3844 0.0
C9 C 0.97122 0.63998 0.45763 0.0
C10 C 0.00077 0.60144 0.45256 0.0
C11 C 0.03125 0.63437 0.3799 0.0
C12 C 0.03109 0.59955 0.41346 0.0
C13 C -0.00361 0.56007 0.48313 0.0
C14 C 0.95766 0.3688 0.4199 0.0
C15 C -0.00601 0.36509 0.38605 0.0
C16 C 0.95861 0.40375 0.45377 0.0
C17 C -0.00405 0.43567 0.4546 0.0
C18 C 0.03216 0.39613 0.38841 0.0
C19 C 0.03287 0.43108 0.42188 0.0
C20 C -0.00606 0.4776 0.48416 0.0
C21 C 0.00944 0.36311 0.59175 0.0
C22 C 0.97979 0.36553 0.63154 0.0
C23 C 0.01018 0.39856 0.55853 0.0
C24 C 0.98038 0.43694 0.56349 0.0
C25 C 0.94973 0.4038 0.63597 0.0
C26 C 0.94989 0.43867 0.60246 0.0
C27 C 0.98463 0.4783 0.53291 0.0
H28 H 0.05556 0.69105 0.59802 0.0
H29 H 0.0543 0.62866 0.54021 0.0
H30 H 0.91855 0.64778 0.64935 0.0
H31 H 0.91766 0.58557 0.59209 0.0
H32 H 0.94877 0.70445 0.4297 0.0
H33 H 0.94601 0.64216 0.48612 0.0
H34 H 0.05374 0.63007 0.3495 0.0
H35 H 0.05392 0.57018 0.40795 0.0
H36 H 0.92742 0.34593 0.41907 0.0
H37 H 0.9291 0.40706 0.47786 0.0
H38 H 0.06139 0.39391 0.36389 0.0
H39 H 0.062 0.45533 0.42156 0.0
H40 H 0.03277 0.33415 0.58644 0.0
H41 H 0.03552 0.39654 0.53014 0.0
H42 H 0.92706 0.40795 0.66627 0.0
H43 H 0.92689 0.46793 0.60789 0.0
N44 N 0.98155 0.51997 0.55426 0.0
N45 N -0.00054 0.51842 0.46179 0.0
C46 C 0.57957 0.04534 0.65853 0.0
C47 C 0.60945 1.00712 0.66285 0.0
C48 C 0.54662 0.04752 0.62234 0.0
C49 C 0.54307 1.01145 0.59006 0.0
C50 C 0.60452 0.97027 0.63167 0.0
C51 C 0.57178 0.97261 0.59528 0.0
C52 C 0.51408 1.0165 0.5477 0.0
C53 C 0.40284 1.00115 0.65898 0.0
C54 C 0.37261 0.03897 0.66438 0.0
C55 C 0.43568 1.00005 0.62256 0.0
C56 C 0.43877 0.03683 0.59116 0.0
C57 C 0.37718 0.07661 0.6342 0.0
C58 C 0.40983 0.07536 0.59757 0.0
C59 C 0.4671 0.03252 0.54822 0.0
C60 C 0.40218 1.00966 0.35126 0.0
C61 C 0.37068 0.0468 0.35027 0.0
C62 C 0.43471 1.00547 0.38769 0.0
C63 C 0.43701 0.03913 0.42278 0.0
C64 C 0.37357 0.08089 0.38466 0.0
C65 C 0.40666 0.07717 0.42055 0.0
C66 C 0.46615 0.03243 0.46495 0.0
C67 C 0.57541 0.03566 0.34934 0.0
C68 C 0.60628 0.99802 0.3484 0.0
C69 C 0.54335 0.04085 0.38617 0.0
C70 C 0.54106 1.00776 0.42173 0.0
C71 C 0.60303 0.96431 0.38307 0.0
C72 C 0.5705 0.96908 0.4194 0.0
C73 C 0.51306 1.01563 0.46447 0.0
H74 H 0.58263 0.07405 0.68239 0.0
H75 H 0.52555 0.07827 0.61833 0.0
H76 H 0.62749 0.94064 0.63405 0.0
H77 H 0.5698 0.94464 0.5704 0.0
H78 H 0.40002 0.97185 0.68205 0.0
H79 H 0.45688 0.9695 0.61757 0.0
H80 H 0.3539 0.10595 0.63748 0.0
H81 H 0.41143 0.10382 0.57331 0.0
H82 H 0.39979 0.98264 0.32536 0.0
H83 H 0.45637 0.97492 0.38949 0.0
H84 H 0.34937 0.10971 0.3844 0.0
H85 H 0.40754 0.10332 0.44747 0.0
H86 H 0.57805 0.06235 0.32315 0.0
H87 H 0.52215 0.07171 0.38797 0.0
H88 H 0.6267 0.93508 0.3828 0.0
H89 H 0.5695 0.9433 0.44664 0.0
N90 N 0.53518 1.00849 0.50591 0.0
N91 N 0.445 0.04009 0.50689 0.0
C92 C 0.40752 0.36242 0.98865 0.0
C93 C 0.36891 0.36312 0.02001 0.0
C94 C 0.44019 0.39852 0.98754 0.0
C95 C 0.43579 0.43559 0.01867 0.0
C96 C 0.3651 0.39997 0.05153 0.0
C97 C 0.39816 0.43557 0.05093 0.0
C98 C 0.46578 0.47722 0.01429 0.0
C99 C 0.57765 0.36805 0.04109 0.0
C100 C 0.60946 0.36173 1.00366 0.0
C101 C 0.54517 0.40429 0.04057 0.0
C102 C 0.54423 0.43492 1.00273 0.0
C103 C 0.60752 0.39176 0.96536 0.0
C104 C 0.57555 0.42824 0.96513 0.0
C105 C 0.51486 0.47679 1.00426 0.0
C106 C 0.57488 0.67282 0.02759 0.0
C107 C 0.61307 0.67158 0.99597 0.0
C108 C 0.54163 0.63716 0.02852 0.0
C109 C 0.54536 0.60031 0.99695 0.0
C110 C 0.61621 0.63537 0.96385 0.0
C111 C 0.58264 0.60023 0.96423 0.0
C112 C 0.51534 0.55876 1.00147 0.0
C113 C 0.40291 0.66824 0.97657 0.0
C114 C 0.36989 0.67294 0.01332 0.0
C115 C 0.43608 0.63254 0.97685 0.0
C116 C 0.43689 0.60105 0.01393 0.0
C117 C 0.3722 0.64229 0.05117 0.0
C118 C 0.40501 0.60655 0.05123 0.0
C119 C 0.4663 0.5592 0.01171 0.0
H120 H 0.41209 0.33443 0.96419 0.0
H121 H 0.46761 0.39811 0.961 0.0
H122 H 0.33552 0.40244 0.0756 0.0
H123 H 0.39343 0.46396 0.07494 0.0
H124 H 0.57832 0.34529 0.07098 0.0
H125 H 0.52198 0.40932 0.07039 0.0
H126 H 0.63196 0.38806 0.9363 0.0
H127 H 0.5758 0.45181 0.93587 0.0
H128 H 0.5721 0.70016 0.05309 0.0
H129 H 0.51458 0.63748 0.05542 0.0
H130 H 0.6452 0.63382 0.93895 0.0
H131 H 0.58665 0.57216 0.93971 0.0
H132 H 0.40183 0.69089 0.94663 0.0
H133 H 0.45964 0.62839 0.94716 0.0
H134 H 0.34807 0.64541 0.08052 0.0
H135 H 0.40492 0.58256 0.08013 0.0
N136 N 0.44373 0.51848 0.01773 0.0
N137 N 0.53741 0.51749 0.99811 0.0
C138 C 0.98953 0.13058 0.8939 0.0
C139 C 0.98767 0.12909 0.12305 0.0
C140 C -0.00845 0.90811 0.89189 0.0
C141 C -0.00887 0.9067 0.12113 0.0
C142 C 0.10717 0.90916 1.00629 0.0
C143 C 0.10406 0.13028 0.00859 0.0
C144 C 0.87623 0.90671 0.00772 0.0
C145 C 0.87307 0.12782 1.00675 0.0
C146 C 0.87491 1.01644 0.11932 0.0
C147 C 0.10413 0.02103 0.12011 0.0
C148 C 0.87586 1.01433 0.89482 0.0
C149 C 0.10531 0.02327 0.89549 0.0
Eu150 Eu 0.98874 0.10645 0.00832 0.0
O151 O 0.03087 0.05983 0.04935 0.0
O152 O 0.9479 0.05975 0.9658 0.0
Eu153 Eu 0.07856 0.01939 0.00771 0.0
Eu154 Eu 0.90164 1.01763 1.00723 0.0
O155 O 0.03102 0.06028 0.96668 0.0
O156 O 0.94746 0.05917 0.04962 0.0
Eu157 Eu -0.00952 1.01918 0.91882 0.0
Eu158 Eu 0.98963 1.01804 0.09605 0.0
O159 O 0.03273 0.97785 0.96521 0.0
O160 O 0.03218 0.97734 0.04911 0.0
O161 O 0.94913 0.97668 0.0483 0.0
O162 O 0.94948 0.97729 0.96567 0.0
Eu163 Eu -0.0085 0.9306 1.00662 0.0
O164 O 0.98813 0.14482 0.9385 0.0
O165 O 0.98772 0.14387 0.07867 0.0
O166 O -0.00744 0.8932 0.93622 0.0
O167 O -0.00776 0.89235 0.07655 0.0
O168 O 0.12016 0.95312 1.00702 0.0
O169 O 0.11812 0.08669 0.00757 0.0
O170 O 0.86211 0.95027 0.0097 0.0
O171 O 0.86019 0.08387 1.00492 0.0
O172 O 0.91955 1.01478 0.13452 0.0
O173 O 0.05929 0.02135 0.13505 0.0
O174 O 0.9206 1.01755 0.87984 0.0
O175 O 0.06064 0.02138 0.88022 0.0
O176 O 0.92121 0.89235 1.00541 0.0
O177 O 0.06248 0.89385 1.00585 0.0
O178 O 0.91768 0.14322 0.00901 0.0
O179 O 0.05907 0.14478 0.00963 0.0
O180 O 0.98799 0.08516 0.13621 0.0
O181 O -0.00985 0.95041 0.13502 0.0
O182 O -0.00927 0.08689 0.87994 0.0
O183 O -0.0094 0.95203 0.87875 0.0
O184 O 0.11887 0.02254 0.94003 0.0
O185 O 0.1184 0.01945 0.07575 0.0
O186 O 0.86196 1.01359 0.93932 0.0
O187 O 0.86114 1.01891 0.07492 0.0
H188 H 0.96056 0.27624 0.38934 0.0
H189 H 0.02131 0.37524 0.29429 0.0
H190 H 0.95656 0.22049 0.32591 0.0
H191 H 0.01988 0.31887 0.23181 0.0
H192 H 0.97109 0.22186 0.11655 0.0
H193 H 0.97033 0.2783 0.17949 0.0
H194 H 0.00463 0.1722 0.27908 0.0
H195 H 0.00404 0.11577 0.21662 0.0
C196 C 0.97311 0.28623 0.35501 0.0
C197 C -0.00846 0.33041 0.34735 0.0
C198 C 0.97137 0.25395 0.31861 0.0
C199 C 0.98809 0.26483 0.27344 0.0
C200 C 0.00615 0.30914 0.26577 0.0
C201 C 0.00769 0.34141 0.30204 0.0
C202 C 0.97845 0.21052 0.15187 0.0
C203 C 0.9875 0.16404 0.16125 0.0
C204 C 0.97824 0.24302 0.18809 0.0
C205 C 0.98738 0.23008 0.23473 0.0
C206 C -0.00346 0.18358 0.24396 0.0
C207 C -0.00353 0.15109 0.20786 0.0
H208 H 0.60026 0.99988 0.25347 0.0
H209 H 0.69974 0.99423 0.36783 0.0
H210 H 0.6661 1.00179 0.19777 0.0
H211 H 0.76564 0.99879 0.31294 0.0
H212 H 0.87463 0.9684 0.20069 0.0
H213 H 0.80872 0.95982 0.25533 0.0
H214 H 0.72468 0.05258 0.1714 0.0
H215 H 0.78966 0.05887 0.11575 0.0
C216 C 0.63635 0.9991 0.26644 0.0
C217 C 0.64535 0.99666 0.3145 0.0
C218 C 0.67402 1.0006 0.23479 0.0
C219 C 0.72122 1.00077 0.25091 0.0
C220 C 0.72987 0.99787 0.29921 0.0
C221 C 0.69224 0.99546 0.33068 0.0
C222 C 0.84207 0.98707 0.1943 0.0
C223 C 0.83695 1.01423 0.15425 0.0
C224 C 0.80434 0.98227 0.22553 0.0
C225 C 0.76125 1.00533 0.21764 0.0
C226 C 0.75685 0.03339 0.17796 0.0
C227 C 0.79418 0.0374 0.14633 0.0
H228 H 0.07395 0.7026 0.32673 0.0
H229 H 0.92487 0.72457 0.35517 0.0
H230 H 0.06977 0.75676 0.26214 0.0
H231 H 0.92184 0.78055 0.29204 0.0
H232 H 0.95671 0.9154 0.21013 0.0
H233 H 0.95853 0.85927 0.27333 0.0
H234 H 0.02758 0.76243 0.18171 0.0
H235 H 0.0253 0.81851 0.11794 0.0
C236 C 0.04017 0.71862 0.31936 0.0
C237 C -0.00032 0.70851 0.34657 0.0
C238 C 0.03794 0.74991 0.28226 0.0
C239 C -0.00455 0.77279 0.2718 0.0
C240 C 0.95522 0.76367 0.29941 0.0
C241 C 0.95716 0.73173 0.33599 0.0
C242 C 0.97222 0.88212 0.20329 0.0
C243 C -0.00901 0.87156 0.15888 0.0
C244 C 0.973 0.84987 0.23952 0.0
C245 C -0.00669 0.80646 0.23261 0.0
C246 C 0.012 0.79574 0.18821 0.0
C247 C 0.01042 0.82775 0.15161 0.0
H248 H 0.37715 0.04459 0.2554 0.0
H249 H 0.27696 0.0491 0.36955 0.0
H250 H 0.31172 0.04074 0.1996 0.0
H251 H 0.21147 0.04251 0.31456 0.0
H252 H 0.10228 0.06893 0.20165 0.0
H253 H 0.16742 0.07931 0.25665 0.0
H254 H 0.25479 0.98865 0.17313 0.0
H255 H 0.19052 0.98064 0.11708 0.0
C256 C 0.34097 0.04471 0.26831 0.0
C257 C 0.33168 0.04733 0.31635 0.0
C258 C 0.30353 0.04207 0.2366 0.0
C259 C 0.25625 0.0409 0.25259 0.0
C260 C 0.24728 0.04412 0.30088 0.0
C261 C 0.28468 0.0477 0.33242 0.0
C262 C 0.13541 0.05108 0.19544 0.0
C263 C 0.14165 0.02406 0.15535 0.0
C264 C 0.17271 0.05692 0.22688 0.0
C265 C 0.21654 0.03504 0.21921 0.0
C266 C 0.22204 1.007 0.17954 0.0
C267 C 0.18513 1.00199 0.14767 0.0
H268 H 0.91705 0.73395 0.65487 0.0
H269 H 0.06086 0.69473 0.68737 0.0
H270 H 0.91834 0.78957 0.71887 0.0
H271 H 0.06215 0.75048 0.75152 0.0
H272 H 0.02161 0.81841 0.89463 0.0
H273 H 0.02154 0.76242 0.83064 0.0
H274 H 0.96016 0.86332 0.73868 0.0
H275 H 0.96039 0.91915 0.80211 0.0
C276 C 0.94898 0.73727 0.67565 0.0
C277 C 0.9889 0.70997 0.66589 0.0
C278 C 0.9498 0.7693 0.71219 0.0
C279 C -0.00968 0.77442 0.74041 0.0
C280 C 0.03026 0.74712 0.7307 0.0
C281 C 0.02969 0.71554 0.69365 0.0
C282 C 0.008 0.8286 0.8608 0.0
C283 C -0.00893 0.87338 0.85363 0.0
C284 C 0.00827 0.79661 0.82405 0.0
C285 C -0.00916 0.8084 0.77952 0.0
C286 C 0.97352 0.853 0.77257 0.0
C287 C 0.97394 0.88511 0.80897 0.0
H288 H 0.34694 0.1054 0.72654 0.0
H289 H 0.3102 0.9696 0.6785 0.0
H290 H 0.2801 0.10355 0.78132 0.0
H291 H 0.24389 0.96754 0.7335 0.0
H292 H 0.10095 1.00399 0.80183 0.0
H293 H 0.16551 1.00955 0.74487 0.0
H294 H 0.2599 0.0571 0.85346 0.0
H295 H 0.19589 0.05197 0.91021 0.0
C296 C 0.32459 0.07523 0.72786 0.0
C297 C 0.33372 0.03752 0.69876 0.0
C298 C 0.2866 0.0741 0.75914 0.0
C299 C 0.25697 0.03545 0.76132 0.0
C300 C 0.26601 0.99787 0.73206 0.0
C301 C 0.3042 0.99883 0.70113 0.0
C302 C 0.13541 1.01582 0.81345 0.0
C303 C 0.14343 0.02722 0.8605 0.0
C304 C 0.17229 1.01878 0.78096 0.0
C305 C 0.21747 0.03371 0.795 0.0
C306 C 0.22524 0.04587 0.84178 0.0
C307 C 0.18863 0.0425 0.87427 0.0
H308 H 0.05628 0.31379 0.66096 0.0
H309 H 0.90701 0.33533 0.68879 0.0
H310 H 0.0591 0.25752 0.72382 0.0
H311 H 0.91099 0.2809 0.75316 0.0
H312 H 0.95538 0.21875 0.89737 0.0
H313 H 0.95314 0.27506 0.83381 0.0
H314 H 0.02214 0.17851 0.74185 0.0
H315 H 0.0239 0.12213 0.80483 0.0
C316 C 0.0239 0.30648 0.67995 0.0
C317 C 0.98139 0.32966 0.66926 0.0
C318 C 0.02573 0.27437 0.71638 0.0
C319 C 0.98538 0.26504 0.74374 0.0
C320 C 0.9429 0.2879 0.73321 0.0
C321 C 0.94078 0.31935 0.69625 0.0
C322 C 0.97025 0.20961 0.86367 0.0
C323 C 0.98968 0.16582 0.85625 0.0
C324 C 0.9687 0.24176 0.82719 0.0
C325 C 0.98741 0.2312 0.78277 0.0
C326 C 0.00767 0.18779 0.77569 0.0
C327 C 0.00842 0.1554 0.81179 0.0
H328 H 0.63441 0.93847 0.72256 0.0
H329 H 0.67222 0.07565 0.67987 0.0
H330 H 0.70105 0.93794 0.77732 0.0
H331 H 0.73829 0.07536 0.73495 0.0
H332 H 0.88062 0.0366 0.80189 0.0
H333 H 0.8163 0.03301 0.74472 0.0
H334 H 0.72168 0.98099 0.85117 0.0
H335 H 0.78549 0.98408 0.90811 0.0
C336 C 0.65694 0.96845 0.72504 0.0
C337 C 0.64817 1.0072 0.69739 0.0
C338 C 0.69483 0.96822 0.75634 0.0
C339 C 0.72472 1.00656 0.76005 0.0
C340 C 0.71599 0.04522 0.7323 0.0
C341 C 0.67792 0.0456 0.70133 0.0
C342 C 0.84618 0.02415 0.81298 0.0
C343 C 0.83803 1.01097 0.85953 0.0
C344 C 0.80942 0.02233 0.78038 0.0
C345 C 0.76419 1.00682 0.79375 0.0
C346 C 0.75635 0.99274 0.83997 0.0
C347 C 0.79285 0.99493 0.87259 0.0
H348 H 0.33425 0.31786 0.94285 0.0
H349 H 0.31743 0.32683 0.0931 0.0
H350 H 0.27053 0.2615 0.93974 0.0
H351 H 0.25204 0.2722 0.08914 0.0
H352 H 0.10188 0.2162 0.04699 0.0
H353 H 0.16684 0.27204 0.04997 0.0
H354 H 0.25672 0.1788 0.97316 0.0
H355 H 0.19237 0.12281 0.97069 0.0
C356 C 0.3175 0.30762 0.9753 0.0
C357 C 0.33129 0.32713 0.01828 0.0
C358 C 0.28067 0.27559 0.97335 0.0
C359 C 0.25622 0.26291 0.01414 0.0
C360 C 0.26992 0.282 0.0571 0.0
C361 C 0.30732 0.31341 0.05923 0.0
C362 C 0.13543 0.20779 0.03056 0.0
C363 C 0.1421 0.16515 0.00872 0.0
C364 C 0.1726 0.23955 0.03255 0.0
C365 C 0.2167 0.22956 0.01188 0.0
C366 C 0.22301 0.18735 0.98921 0.0
C367 C 0.18624 0.1553 0.98801 0.0
H368 H 0.37572 0.76176 0.98191 0.0
H369 H 0.27708 0.66348 0.03971 0.0
H370 H 0.31227 0.81839 0.97778 0.0
H371 H 0.21457 0.72062 0.03802 0.0
H372 H 0.10087 0.81762 0.98575 0.0
H373 H 0.16446 0.76124 0.98539 0.0
H374 H 0.26431 0.86587 0.02728 0.0
H375 H 0.2011 0.92248 0.02641 0.0
C376 C 0.34058 0.75222 0.99379 0.0
C377 C 0.33167 0.70808 0.01136 0.0
C378 C 0.30428 0.78487 0.99193 0.0
C379 C 0.25823 0.77416 0.00765 0.0
C380 C 0.24938 0.72997 0.02507 0.0
C381 C 0.28553 0.69736 0.02673 0.0
C382 C 0.13636 0.82864 0.99491 0.0
C383 C 0.14576 0.87464 1.00611 0.0
C384 C 0.17286 0.79623 0.99488 0.0
C385 C 0.2196 0.80893 1.0064 0.0
C386 C 0.22896 0.85497 0.0175 0.0
C387 C 0.19255 0.88743 0.01723 0.0
H388 H 0.6687 0.34093 0.07604 0.0
H389 H 0.63375 0.30135 0.93465 0.0
H390 H 0.73254 0.28416 0.0771 0.0
H391 H 0.69769 0.24479 0.93562 0.0
H392 H 0.78172 0.11553 0.97755 0.0
H393 H 0.71732 0.17117 0.9778 0.0
H394 H 0.81167 0.27322 0.03521 0.0
H395 H 0.87646 0.21754 0.03507 0.0
C396 C 0.67438 0.31975 0.0454 0.0
C397 C 0.64623 0.32544 1.00529 0.0
C398 C 0.71119 0.28766 0.04584 0.0
C399 C 0.72016 0.26022 1.00639 0.0
C400 C 0.69141 0.26531 0.96661 0.0
C401 C 0.65501 0.29779 0.96596 0.0
C402 C 0.78885 0.1498 0.99031 0.0
C403 C 0.83431 0.16207 1.0063 0.0
C404 C 0.75196 0.1817 0.99019 0.0
C405 C 0.75948 0.22647 1.00656 0.0
C406 C 0.8048 0.2388 0.02275 0.0
C407 C 0.84195 0.20702 0.02232 0.0
H408 H 0.60458 0.76477 0.99412 0.0
H409 H 0.70767 0.65612 1.0036 0.0
H410 H 0.66832 0.82145 0.99649 0.0
H411 H 0.77134 0.71228 0.00849 0.0
H412 H 0.87911 0.82107 0.96919 0.0
H413 H 0.81524 0.76499 0.96555 0.0
H414 H 0.72456 0.85656 0.04425 0.0
H415 H 0.7877 0.91334 0.04563 0.0
C416 C 0.64095 0.75317 0.99718 0.0
C417 C 0.65136 0.70622 0.99832 0.0
C418 C 0.67754 0.78555 0.99886 0.0
C419 C 0.72528 0.77164 1.00263 0.0
C420 C 0.73531 0.72446 1.00448 0.0
C421 C 0.69882 0.69219 1.00195 0.0
C422 C 0.84555 0.82905 0.98583 0.0
C423 C 0.83839 0.87161 0.00758 0.0
C424 C 0.80888 0.79681 0.98396 0.0
C425 C 0.76443 0.80604 1.00458 0.0
C426 C 0.75776 0.84846 0.02705 0.0
C427 C 0.79414 0.88097 0.02817 0.0
loop_
_geom_bond_atom_site_label_1
_geom_bond_atom_site_label_2
_geom_bond_distance
_geom_bond_site_symmetry_2
_ccdc_geom_bond_type
C0 C1 1.384 1_455 S
C0 C2 1.384 . S
C0 H28 0.931 . S
C1 C0 1.384 1_655 S
C1 C4 1.382 . S
C2 C0 1.384 . S
C2 C3 1.381 1_455 S
C2 H29 0.930 . S
C3 C2 1.381 1_655 S
C3 C5 1.381 . S
C3 C6 1.487 . S
C4 C1 1.382 . S
C4 C5 1.387 . S
C4 H30 0.930 . S
C5 C3 1.381 . S
C5 C4 1.387 . S
C5 H31 0.931 . S
C6 C3 1.487 . S
C6 C13 1.399 1_655 S
C6 N44 1.343 . S
C7 C8 1.384 1_655 S
C7 C9 1.384 . S
C7 H32 0.931 . S
C8 C7 1.384 1_455 S
C8 C11 1.382 . S
C9 C7 1.384 . S
C9 C10 1.381 1_655 S
C9 H33 0.930 . S
C10 C9 1.381 1_455 S
C10 C12 1.381 . S
C10 C13 1.487 . S
C11 C8 1.382 . S
C11 C12 1.387 . S
C11 H34 0.930 . S
C12 C10 1.381 . S
C12 C11 1.387 . S
C12 H35 0.931 . S
C13 C6 1.399 1_455 S
C13 C10 1.487 . S
C13 N45 1.343 . S
C14 C15 1.384 1_655 S
C14 C16 1.384 . S
C14 H36 0.931 . S
C15 C14 1.384 1_455 S
C15 C18 1.382 . S
C16 C14 1.384 . S
C16 C17 1.381 1_655 S
C16 H37 0.930 . S
C17 C16 1.381 1_455 S
C17 C19 1.381 . S
C17 C20 1.487 . S
C18 C15 1.382 . S
C18 C19 1.387 . S
C18 H38 0.930 . S
C19 C17 1.381 . S
C19 C18 1.387 . S
C19 H39 0.931 . S
C20 C17 1.487 . S
C20 C27 1.399 1_455 S
C20 N45 1.343 . S
C21 C22 1.384 1_455 S
C21 C23 1.384 . S
C21 H40 0.931 . S
C22 C21 1.384 1_655 S
C22 C25 1.382 . S
C23 C21 1.384 . S
C23 C24 1.381 1_455 S
C23 H41 0.930 . S
C24 C23 1.381 1_655 S
C24 C26 1.381 . S
C24 C27 1.487 . S
C25 C22 1.382 . S
C25 C26 1.387 . S
C25 H42 0.930 . S
C26 C24 1.381 . S
C26 C25 1.387 . S
C26 H43 0.931 . S
C27 C20 1.399 1_655 S
C27 C24 1.487 . S
C27 N44 1.343 . S
H28 C0 0.931 . S
H29 C2 0.930 . S
H30 C4 0.930 . S
H31 C5 0.931 . S
H32 C7 0.931 . S
H33 C9 0.930 . S
H34 C11 0.930 . S
H35 C12 0.931 . S
H36 C14 0.931 . S
H37 C16 0.930 . S
H38 C18 0.930 . S
H39 C19 0.931 . S
H40 C21 0.931 . S
H41 C23 0.930 . S
H42 C25 0.930 . S
H43 C26 0.931 . S
N44 C6 1.343 . S
N44 C27 1.343 . S
N45 C13 1.343 . S
N45 C20 1.343 . S
C46 C47 1.384 1_545 S
C46 C48 1.384 . S
C46 H74 0.931 . S
C47 C46 1.384 1_565 S
C47 C50 1.382 . S
C48 C46 1.384 . S
C48 C49 1.381 1_545 S
C48 H75 0.930 . S
C49 C48 1.381 1_565 S
C49 C51 1.381 . S
C49 C52 1.487 . S
C50 C47 1.382 . S
C50 C51 1.387 . S
C50 H76 0.930 . S
C51 C49 1.381 . S
C51 C50 1.387 . S
C51 H77 0.931 . S
C52 C49 1.487 . S
C52 C59 1.399 1_565 S
C52 N90 1.343 . S
C53 C54 1.384 1_565 S
C53 C55 1.384 . S
C53 H78 0.931 . S
C54 C53 1.384 1_545 S
C54 C57 1.382 . S
C55 C53 1.384 . S
C55 C56 1.381 1_565 S
C55 H79 0.930 . S
C56 C55 1.381 1_545 S
C56 C58 1.381 . S
C56 C59 1.487 . S
C57 C54 1.382 . S
C57 C58 1.387 . S
C57 H80 0.930 . S
C58 C56 1.381 . S
C58 C57 1.387 . S
C58 H81 0.931 . S
C59 C52 1.399 1_545 S
C59 C56 1.487 . S
C59 N91 1.343 . S
C60 C61 1.384 1_565 S
C60 C62 1.384 . S
C60 H82 0.931 . S
C61 C60 1.384 1_545 S
C61 C64 1.382 . S
C62 C60 1.384 . S
C62 C63 1.381 1_565 S
C62 H83 0.930 . S
C63 C62 1.381 1_545 S
C63 C65 1.381 . S
C63 C66 1.487 . S
C64 C61 1.382 . S
C64 C65 1.387 . S
C64 H84 0.930 . S
C65 C63 1.381 . S
C65 C64 1.387 . S
C65 H85 0.931 . S
C66 C63 1.487 . S
C66 C73 1.399 1_545 S
C66 N91 1.343 . S
C67 C68 1.384 1_545 S
C67 C69 1.384 . S
C67 H86 0.931 . S
C68 C67 1.384 1_565 S
C68 C71 1.382 . S
C69 C67 1.384 . S
C69 C70 1.381 1_545 S
C69 H87 0.930 . S
C70 C69 1.381 1_565 S
C70 C72 1.381 . S
C70 C73 1.487 . S
C71 C68 1.382 . S
C71 C72 1.387 . S
C71 H88 0.930 . S
C72 C70 1.381 . S
C72 C71 1.387 . S
C72 H89 0.931 . S
C73 C66 1.399 1_565 S
C73 C70 1.487 . S
C73 N90 1.343 . S
H74 C46 0.931 . S
H75 C48 0.930 . S
H76 C50 0.930 . S
H77 C51 0.931 . S
H78 C53 0.931 . S
H79 C55 0.930 . S
H80 C57 0.930 . S
H81 C58 0.931 . S
H82 C60 0.931 . S
H83 C62 0.930 . S
H84 C64 0.930 . S
H85 C65 0.931 . S
H86 C67 0.931 . S
H87 C69 0.930 . S
H88 C71 0.930 . S
H89 C72 0.931 . S
N90 C52 1.343 . S
N90 C73 1.343 . S
N91 C59 1.343 . S
N91 C66 1.343 . S
C92 C93 1.384 1_556 S
C92 C94 1.384 . S
C92 H120 0.931 . S
C93 C92 1.384 1_554 S
C93 C96 1.382 . S
C94 C92 1.384 . S
C94 C95 1.381 1_556 S
C94 H121 0.930 . S
C95 C94 1.381 1_554 S
C95 C97 1.381 . S
C95 C98 1.487 . S
C96 C93 1.382 . S
C96 C97 1.387 . S
C96 H122 0.930 . S
C97 C95 1.381 . S
C97 C96 1.387 . S
C97 H123 0.931 . S
C98 C95 1.487 . S
C98 C105 1.399 1_554 S
C98 N136 1.343 . S
C99 C100 1.384 1_554 S
C99 C101 1.384 . S
C99 H124 0.931 . S
C100 C99 1.384 1_556 S
C100 C103 1.382 . S
C101 C99 1.384 . S
C101 C102 1.381 1_554 S
C101 H125 0.930 . S
C102 C101 1.381 1_556 S
C102 C104 1.381 . S
C102 C105 1.487 . S
C103 C100 1.382 . S
C103 C104 1.387 . S
C103 H126 0.930 . S
C104 C102 1.381 . S
C104 C103 1.387 . S
C104 H127 0.931 . S
C105 C98 1.399 1_556 S
C105 C102 1.487 . S
C105 N137 1.343 . S
C106 C107 1.384 1_554 S
C106 C108 1.384 . S
C106 H128 0.931 . S
C107 C106 1.384 1_556 S
C107 C110 1.382 . S
C108 C106 1.384 . S
C108 C109 1.381 1_554 S
C108 H129 0.930 . S
C109 C108 1.381 1_556 S
C109 C111 1.381 . S
C109 C112 1.487 . S
C110 C107 1.382 . S
C110 C111 1.387 . S
C110 H130 0.930 . S
C111 C109 1.381 . S
C111 C110 1.387 . S
C111 H131 0.931 . S
C112 C109 1.487 . S
C112 C119 1.399 1_556 S
C112 N137 1.343 . S
C113 C114 1.384 1_556 S
C113 C115 1.384 . S
C113 H132 0.931 . S
C114 C113 1.384 1_554 S
C114 C117 1.382 . S
C115 C113 1.384 . S
C115 C116 1.381 1_556 S
C115 H133 0.930 . S
C116 C115 1.381 1_554 S
C116 C118 1.381 . S
C116 C119 1.487 . S
C117 C114 1.382 . S
C117 C118 1.387 . S
C117 H134 0.930 . S
C118 C116 1.381 . S
C118 C117 1.387 . S
C118 H135 0.931 . S
C119 C112 1.399 1_554 S
C119 C116 1.487 . S
C119 N136 1.343 . S
H120 C92 0.931 . S
H121 C94 0.930 . S
H122 C96 0.930 . S
H123 C97 0.931 . S
H124 C99 0.931 . S
H125 C101 0.930 . S
H126 C103 0.930 . S
H127 C104 0.931 . S
H128 C106 0.931 . S
H129 C108 0.930 . S
H130 C110 0.930 . S
H131 C111 0.931 . S
H132 C113 0.931 . S
H133 C115 0.930 . S
H134 C117 0.930 . S
H135 C118 0.931 . S
N136 C98 1.343 . S
N136 C119 1.343 . S
N137 C105 1.343 . S
N137 C112 1.343 . S
C138 O164 1.283 . S
C138 O182 1.283 . S
C139 O165 1.283 . S
C139 O180 1.283 . S
C140 O166 1.283 . S
C140 O183 1.283 . S
C141 O167 1.283 . S
C141 O181 1.283 . S
C142 O168 1.283 . S
C142 O177 1.283 . S
C143 O169 1.283 . S
C143 O179 1.283 . S
C144 O170 1.283 . S
C144 O176 1.283 . S
C145 O171 1.283 . S
C145 O178 1.283 . S
C146 O172 1.283 . S
C146 O187 1.283 . S
C147 O173 1.283 . S
C147 O185 1.283 . S
C148 O174 1.283 . S
C148 O186 1.283 . S
C149 O175 1.283 . S
C149 O184 1.283 . S
Eu150 O151 2.370 . S
Eu150 O152 2.370 1_454 S
Eu150 O155 2.370 1_554 S
Eu150 O156 2.370 1_455 S
Eu150 O164 2.363 1_554 S
Eu150 O165 2.363 . S
Eu150 O178 2.363 1_455 S
Eu150 O179 2.363 . S
O151 Eu150 2.370 . S
O151 Eu153 2.370 . S
O151 Eu158 2.370 . S
O152 Eu150 2.370 1_656 S
O152 Eu154 2.370 1_556 S
O152 Eu157 2.370 1_655 S
Eu153 O151 2.370 . S
Eu153 O155 2.370 1_554 S
Eu153 O159 2.370 1_544 S
Eu153 O160 2.370 1_545 S
Eu153 O168 2.363 1_545 S
Eu153 O169 2.363 . S
Eu153 O184 2.363 1_554 S
Eu153 O185 2.363 . S
Eu154 O152 2.370 1_554 S
Eu154 O156 2.370 . S
Eu154 O161 2.370 1_545 S
Eu154 O162 2.370 1_544 S
Eu154 O170 2.363 1_545 S
Eu154 O171 2.363 . S
Eu154 O186 2.363 1_554 S
Eu154 O187 2.363 . S
O155 Eu150 2.370 1_556 S
O155 Eu153 2.370 1_556 S
O155 Eu157 2.370 . S
O156 Eu150 2.370 1_655 S
O156 Eu154 2.370 . S
O156 Eu158 2.370 1_655 S
Eu157 O152 2.370 1_455 S
Eu157 O155 2.370 . S
Eu157 O159 2.370 1_545 S
Eu157 O162 2.370 1_445 S
Eu157 O174 2.363 1_455 S
Eu157 O175 2.363 . S
Eu157 O182 2.363 . S
Eu157 O183 2.363 1_545 S
Eu158 O151 2.370 . S
Eu158 O156 2.370 1_455 S
Eu158 O160 2.370 1_545 S
Eu158 O161 2.370 1_445 S
Eu158 O172 2.363 1_455 S
Eu158 O173 2.363 . S
Eu158 O180 2.363 . S
Eu158 O181 2.363 1_545 S
O159 Eu153 2.370 1_566 S
O159 Eu157 2.370 1_565 S
O159 Eu163 2.370 1_556 S
O160 Eu153 2.370 1_565 S
O160 Eu158 2.370 1_565 S
O160 Eu163 2.370 . S
O161 Eu154 2.370 1_565 S
O161 Eu158 2.370 1_665 S
O161 Eu163 2.370 1_655 S
O162 Eu154 2.370 1_566 S
O162 Eu157 2.370 1_665 S
O162 Eu163 2.370 1_656 S
Eu163 O159 2.370 1_554 S
Eu163 O160 2.370 . S
Eu163 O161 2.370 1_455 S
Eu163 O162 2.370 1_454 S
Eu163 O166 2.363 1_554 S
Eu163 O167 2.363 . S
Eu163 O176 2.363 1_455 S
Eu163 O177 2.363 . S
O164 C138 1.283 . S
O164 Eu150 2.363 1_556 S
O165 C139 1.283 . S
O165 Eu150 2.363 . S
O166 C140 1.283 . S
O166 Eu163 2.363 1_556 S
O167 C141 1.283 . S
O167 Eu163 2.363 . S
O168 C142 1.283 . S
O168 Eu153 2.363 1_565 S
O169 C143 1.283 . S
O169 Eu153 2.363 . S
O170 C144 1.283 . S
O170 Eu154 2.363 1_565 S
O171 C145 1.283 . S
O171 Eu154 2.363 . S
O172 C146 1.283 . S
O172 Eu158 2.363 1_655 S
O173 C147 1.283 . S
O173 Eu158 2.363 . S
O174 C148 1.283 . S
O174 Eu157 2.363 1_655 S
O175 C149 1.283 . S
O175 Eu157 2.363 . S
O176 C144 1.283 . S
O176 Eu163 2.363 1_655 S
O177 C142 1.283 . S
O177 Eu163 2.363 . S
O178 C145 1.283 . S
O178 Eu150 2.363 1_655 S
O179 C143 1.283 . S
O179 Eu150 2.363 . S
O180 C139 1.283 . S
O180 Eu158 2.363 . S
O181 C141 1.283 . S
O181 Eu158 2.363 1_565 S
O182 C138 1.283 . S
O182 Eu157 2.363 . S
O183 C140 1.283 . S
O183 Eu157 2.363 1_565 S
O184 C149 1.283 . S
O184 Eu153 2.363 1_556 S
O185 C147 1.283 . S
O185 Eu153 2.363 . S
O186 C148 1.283 . S
O186 Eu154 2.363 1_556 S
O187 C146 1.283 . S
O187 Eu154 2.363 . S
H188 C196 0.950 . S
H189 C201 0.950 . S
H190 C198 0.950 . S
H191 C200 0.950 . S
H192 C202 0.950 . S
H193 C204 0.950 . S
H194 C206 0.950 . S
H195 C207 0.950 . S
C196 H188 0.950 . S
C196 C197 1.401 . S
C196 C198 1.391 . S
C197 C196 1.401 . S
C197 C201 1.378 1_655 S
C198 H190 0.950 . S
C198 C196 1.391 . S
C198 C199 1.407 . S
C199 C198 1.407 . S
C199 C200 1.392 1_655 S
C199 C205 1.490 1_655 S
C200 H191 0.950 . S
C200 C199 1.392 1_455 S
C200 C201 1.391 . S
C201 H189 0.950 . S
C201 C197 1.378 1_455 S
C201 C200 1.391 . S
C202 H192 0.950 . S
C202 C203 1.386 . S
C202 C204 1.391 . S
C203 C202 1.386 . S
C203 C207 1.393 1_455 S
C204 H193 0.950 . S
C204 C202 1.391 . S
C204 C205 1.410 . S
C205 C199 1.490 1_455 S
C205 C204 1.410 . S
C205 C206 1.389 1_455 S
C206 H194 0.950 . S
C206 C205 1.389 1_655 S
C206 C207 1.391 . S
C207 H195 0.950 . S
C207 C203 1.393 1_655 S
C207 C206 1.391 . S
H208 C216 0.950 . S
H209 C221 0.950 . S
H210 C218 0.950 . S
H211 C220 0.950 . S
H212 C222 0.950 . S
H213 C224 0.950 . S
H214 C226 0.950 . S
H215 C227 0.950 . S
C216 H208 0.950 . S
C216 C217 1.386 . S
C216 C218 1.391 . S
C217 C216 1.386 . S
C217 C221 1.393 1_545 S
C218 H210 0.950 . S
C218 C216 1.391 . S
C218 C219 1.410 . S
C219 C218 1.410 . S
C219 C220 1.389 1_545 S
C219 C225 1.490 1_545 S
C220 H211 0.950 . S
C220 C219 1.389 1_565 S
C220 C221 1.391 . S
C221 H209 0.950 . S
C221 C217 1.393 1_565 S
C221 C220 1.391 . S
C222 H212 0.950 . S
C222 C223 1.386 . S
C222 C224 1.391 . S
C223 C222 1.386 . S
C223 C227 1.393 1_565 S
C224 H213 0.950 . S
C224 C222 1.391 . S
C224 C225 1.407 . S
C225 C219 1.490 1_565 S
C225 C224 1.407 . S
C225 C226 1.392 1_565 S
C226 H214 0.950 . S
C226 C225 1.392 1_545 S
C226 C227 1.391 . S
C227 H215 0.950 . S
C227 C223 1.393 1_545 S
C227 C226 1.391 . S
H228 C236 0.950 . S
H229 C241 0.950 . S
H230 C238 0.950 . S
H231 C240 0.950 . S
H232 C242 0.950 . S
H233 C244 0.950 . S
H234 C246 0.950 . S
H235 C247 0.950 . S
C236 H228 0.950 . S
C236 C237 1.373 1_455 S
C236 C238 1.391 . S
C237 C236 1.373 1_655 S
C237 C241 1.406 . S
C238 H230 0.950 . S
C238 C236 1.391 . S
C238 C239 1.396 1_455 S
C239 C238 1.396 1_655 S
C239 C240 1.402 . S
C239 C245 1.490 1_655 S
C240 H231 0.950 . S
C240 C239 1.402 . S
C240 C241 1.391 . S
C241 H229 0.950 . S
C241 C237 1.406 . S
C241 C240 1.391 . S
C242 H232 0.950 . S
C242 C243 1.368 1_655 S
C242 C244 1.391 . S
C243 C242 1.368 1_455 S
C243 C247 1.410 . S
C244 H233 0.950 . S
C244 C242 1.391 . S
C244 C245 1.392 1_655 S
C245 C239 1.490 1_455 S
C245 C244 1.392 1_455 S
C245 C246 1.407 . S
C246 H234 0.950 . S
C246 C245 1.407 . S
C246 C247 1.391 . S
C247 H235 0.950 . S
C247 C243 1.410 . S
C247 C246 1.391 . S
H248 C256 0.950 . S
H249 C261 0.950 . S
H250 C258 0.950 . S
H251 C260 0.950 . S
H252 C262 0.950 . S
H253 C264 0.950 . S
H254 C266 0.950 . S
H255 C267 0.950 . S
C256 H248 0.950 . S
C256 C257 1.386 . S
C256 C258 1.391 . S
C257 C256 1.386 . S
C257 C261 1.393 1_565 S
C258 H250 0.950 . S
C258 C256 1.391 . S
C258 C259 1.407 . S
C259 C258 1.407 . S
C259 C260 1.392 1_565 S
C259 C265 1.490 1_565 S
C260 H251 0.950 . S
C260 C259 1.392 1_545 S
C260 C261 1.391 . S
C261 H249 0.950 . S
C261 C257 1.393 1_545 S
C261 C260 1.391 . S
C262 H252 0.950 . S
C262 C263 1.386 . S
C262 C264 1.391 . S
C263 C262 1.386 . S
C263 C267 1.393 1_545 S
C264 H253 0.950 . S
C264 C262 1.391 . S
C264 C265 1.410 . S
C265 C259 1.490 1_545 S
C265 C264 1.410 . S
C265 C266 1.389 1_545 S
C266 H254 0.950 . S
C266 C265 1.389 1_565 S
C266 C267 1.391 . S
C267 H255 0.950 . S
C267 C263 1.393 1_565 S
C267 C266 1.391 . S
H268 C276 0.950 . S
H269 C281 0.950 . S
H270 C278 0.950 . S
H271 C280 0.950 . S
H272 C282 0.950 . S
H273 C284 0.950 . S
H274 C286 0.950 . S
H275 C287 0.950 . S
C276 H268 0.950 . S
C276 C277 1.387 1_655 S
C276 C278 1.391 . S
C277 C276 1.387 1_455 S
C277 C281 1.391 . S
C278 H270 0.950 . S
C278 C276 1.391 . S
C278 C279 1.402 1_655 S
C279 C278 1.402 1_455 S
C279 C280 1.397 . S
C279 C285 1.491 . S
C280 H271 0.950 . S
C280 C279 1.397 . S
C280 C281 1.391 . S
C281 H269 0.950 . S
C281 C277 1.391 . S
C281 C280 1.391 . S
C282 H272 0.950 . S
C282 C283 1.387 . S
C282 C284 1.391 . S
C283 C282 1.387 . S
C283 C287 1.391 1_455 S
C284 H273 0.950 . S
C284 C282 1.391 . S
C284 C285 1.402 . S
C285 C279 1.491 . S
C285 C284 1.402 . S
C285 C286 1.397 1_455 S
C286 H274 0.950 . S
C286 C285 1.397 1_655 S
C286 C287 1.391 . S
C287 H275 0.950 . S
C287 C283 1.391 1_655 S
C287 C286 1.391 . S
H288 C296 0.950 . S
H289 C301 0.950 . S
H290 C298 0.950 . S
H291 C300 0.950 . S
H292 C302 0.950 . S
H293 C304 0.950 . S
H294 C306 0.950 . S
H295 C307 0.950 . S
C296 H288 0.950 . S
C296 C297 1.386 . S
C296 C298 1.391 . S
C297 C296 1.386 . S
C297 C301 1.393 1_545 S
C298 H290 0.950 . S
C298 C296 1.391 . S
C298 C299 1.409 . S
C299 C298 1.409 . S
C299 C300 1.390 1_545 S
C299 C305 1.490 1_545 S
C300 H291 0.950 . S
C300 C299 1.390 1_565 S
C300 C301 1.391 . S
C301 H289 0.950 . S
C301 C297 1.393 1_565 S
C301 C300 1.391 . S
C302 H292 0.950 . S
C302 C303 1.386 . S
C302 C304 1.391 . S
C303 C302 1.386 . S
C303 C307 1.393 1_565 S
C304 H293 0.950 . S
C304 C302 1.391 . S
C304 C305 1.407 . S
C305 C299 1.490 1_565 S
C305 C304 1.407 . S
C305 C306 1.392 1_565 S
C306 H294 0.950 . S
C306 C305 1.392 1_545 S
C306 C307 1.391 . S
C307 H295 0.950 . S
C307 C303 1.393 1_545 S
C307 C306 1.391 . S
H308 C316 0.950 . S
H309 C321 0.950 . S
H310 C318 0.950 . S
H311 C320 0.950 . S
H312 C322 0.950 . S
H313 C324 0.950 . S
H314 C326 0.950 . S
H315 C327 0.950 . S
C316 H308 0.950 . S
C316 C317 1.400 . S
C316 C318 1.391 . S
C317 C316 1.400 . S
C317 C321 1.379 1_455 S
C318 H310 0.950 . S
C318 C316 1.391 . S
C318 C319 1.408 . S
C319 C318 1.408 . S
C319 C320 1.391 1_455 S
C319 C325 1.490 1_455 S
C320 H311 0.950 . S
C320 C319 1.391 1_655 S
C320 C321 1.391 . S
C321 H309 0.950 . S
C321 C317 1.379 1_655 S
C321 C320 1.391 . S
C322 H312 0.950 . S
C322 C323 1.396 . S
C322 C324 1.391 . S
C323 C322 1.396 . S
C323 C327 1.383 1_655 S
C324 H313 0.950 . S
C324 C322 1.391 . S
C324 C325 1.404 . S
C325 C319 1.490 1_655 S
C325 C324 1.404 . S
C325 C326 1.395 1_655 S
C326 H314 0.950 . S
C326 C325 1.395 1_455 S
C326 C327 1.391 . S
C327 H315 0.950 . S
C327 C323 1.383 1_455 S
C327 C326 1.391 . S
H328 C336 0.950 . S
H329 C341 0.950 . S
H330 C338 0.950 . S
H331 C340 0.950 . S
H332 C342 0.950 . S
H333 C344 0.950 . S
H334 C346 0.950 . S
H335 C347 0.950 . S
C336 H328 0.950 . S
C336 C337 1.388 1_565 S
C336 C338 1.391 . S
C337 C336 1.388 1_545 S
C337 C341 1.391 . S
C338 H330 0.950 . S
C338 C336 1.391 . S
C338 C339 1.402 1_565 S
C339 C338 1.402 1_545 S
C339 C340 1.397 . S
C339 C345 1.491 . S
C340 H331 0.950 . S
C340 C339 1.397 . S
C340 C341 1.391 . S
C341 H329 0.950 . S
C341 C337 1.391 . S
C341 C340 1.391 . S
C342 H332 0.950 . S
C342 C343 1.388 . S
C342 C344 1.391 . S
C343 C342 1.388 . S
C343 C347 1.390 1_545 S
C344 H333 0.950 . S
C344 C342 1.391 . S
C344 C345 1.402 . S
C345 C339 1.491 . S
C345 C344 1.402 . S
C345 C346 1.396 1_545 S
C346 H334 0.950 . S
C346 C345 1.396 1_565 S
C346 C347 1.391 . S
C347 H335 0.950 . S
C347 C343 1.390 1_565 S
C347 C346 1.391 . S
H348 C356 0.950 . S
H349 C361 0.950 . S
H350 C358 0.950 . S
H351 C360 0.950 . S
H352 C362 0.950 . S
H353 C364 0.950 . S
H354 C366 0.950 . S
H355 C367 0.950 . S
C356 H348 0.950 . S
C356 C357 1.376 1_556 S
C356 C358 1.391 . S
C357 C356 1.376 1_554 S
C357 C361 1.402 . S
C358 H350 0.950 . S
C358 C356 1.391 . S
C358 C359 1.396 1_556 S
C359 C358 1.396 1_554 S
C359 C360 1.403 . S
C359 C365 1.491 1_554 S
C360 H351 0.950 . S
C360 C359 1.403 . S
C360 C361 1.391 . S
C361 H349 0.950 . S
C361 C357 1.402 . S
C361 C360 1.391 . S
C362 H352 0.950 . S
C362 C363 1.381 1_554 S
C362 C364 1.391 . S
C363 C362 1.381 1_556 S
C363 C367 1.397 . S
C364 H353 0.950 . S
C364 C362 1.391 . S
C364 C365 1.401 1_554 S
C365 C359 1.491 1_556 S
C365 C364 1.401 1_556 S
C365 C366 1.398 . S
C366 H354 0.950 . S
C366 C365 1.398 . S
C366 C367 1.391 . S
C367 H355 0.950 . S
C367 C363 1.397 . S
C367 C366 1.391 . S
H368 C376 0.950 . S
H369 C381 0.950 . S
H370 C378 0.950 . S
H371 C380 0.950 . S
H372 C382 0.950 . S
H373 C384 0.950 . S
H374 C386 0.950 . S
H375 C387 0.950 . S
C376 H368 0.950 . S
C376 C377 1.386 1_554 S
C376 C378 1.391 . S
C377 C376 1.386 1_556 S
C377 C381 1.393 . S
C378 H370 0.950 . S
C378 C376 1.391 . S
C378 C379 1.394 1_554 S
C379 C378 1.394 1_556 S
C379 C380 1.406 . S
C379 C385 1.490 1_556 S
C380 H371 0.950 . S
C380 C379 1.406 . S
C380 C381 1.391 . S
C381 H369 0.950 . S
C381 C377 1.393 . S
C381 C380 1.391 . S
C382 H372 0.950 . S
C382 C383 1.386 1_556 S
C382 C384 1.391 . S
C383 C382 1.386 1_554 S
C383 C387 1.393 . S
C384 H373 0.950 . S
C384 C382 1.391 . S
C384 C385 1.392 1_556 S
C385 C379 1.490 1_554 S
C385 C384 1.392 1_554 S
C385 C386 1.408 . S
C386 H374 0.950 . S
C386 C385 1.408 . S
C386 C387 1.391 . S
C387 H375 0.950 . S
C387 C383 1.393 . S
C387 C386 1.391 . S
H388 C396 0.950 . S
H389 C401 0.950 . S
H390 C398 0.950 . S
H391 C400 0.950 . S
H392 C402 0.950 . S
H393 C404 0.950 . S
H394 C406 0.950 . S
H395 C407 0.950 . S
C396 H388 0.950 . S
C396 C397 1.393 . S
C396 C398 1.391 . S
C397 C396 1.393 . S
C397 C401 1.386 1_554 S
C398 H390 0.950 . S
C398 C396 1.391 . S
C398 C399 1.404 . S
C399 C398 1.404 . S
C399 C400 1.394 1_554 S
C399 C405 1.491 1_554 S
C400 H391 0.950 . S
C400 C399 1.394 1_556 S
C400 C401 1.391 . S
C401 H389 0.950 . S
C401 C397 1.386 1_556 S
C401 C400 1.391 . S
C402 H392 0.950 . S
C402 C403 1.388 . S
C402 C404 1.391 . S
C403 C402 1.388 . S
C403 C407 1.390 1_556 S
C404 H393 0.950 . S
C404 C402 1.391 . S
C404 C405 1.400 . S
C405 C399 1.491 1_556 S
C405 C404 1.400 . S
C405 C406 1.399 1_556 S
C406 H394 0.950 . S
C406 C405 1.399 1_554 S
C406 C407 1.391 . S
C407 H395 0.950 . S
C407 C403 1.390 1_554 S
C407 C406 1.391 . S
H408 C416 0.950 . S
H409 C421 0.950 . S
H410 C418 0.950 . S
H411 C420 0.950 . S
H412 C422 0.950 . S
H413 C424 0.950 . S
H414 C426 0.950 . S
H415 C427 0.950 . S
C416 H408 0.950 . S
C416 C417 1.386 . S
C416 C418 1.391 . S
C417 C416 1.386 . S
C417 C421 1.393 1_554 S
C418 H410 0.950 . S
C418 C416 1.391 . S
C418 C419 1.410 . S
C419 C418 1.410 . S
C419 C420 1.390 1_554 S
C419 C425 1.490 1_554 S
C420 H411 0.950 . S
C420 C419 1.390 1_556 S
C420 C421 1.391 . S
C421 H409 0.950 . S
C421 C417 1.393 1_556 S
C421 C420 1.391 . S
C422 H412 0.950 . S
C422 C423 1.386 . S
C422 C424 1.391 . S
C423 C422 1.386 . S
C423 C427 1.393 1_556 S
C424 H413 0.950 . S
C424 C422 1.391 . S
C424 C425 1.407 . S
C425 C419 1.490 1_556 S
C425 C424 1.407 . S
C425 C426 1.392 1_556 S
C426 H414 0.950 . S
C426 C425 1.392 1_554 S
C426 C427 1.391 . S
C427 H415 0.950 . S
C427 C423 1.393 1_554 S
C427 C426 1.391 . S
C203 C139 1.776 . S
C197 C15 1.766 1_655 S
C223 C146 1.298 1_565 S
C217 C68 1.294 1_545 S
C243 C141 1.776 . S
C237 C8 1.769 1_655 S
C263 C147 1.298 . S
C257 C61 1.290 1_565 S
C277 C1 1.769 1_455 S
C283 C140 1.779 . S
C303 C149 1.298 1_565 S
C297 C54 1.292 . S
C317 C22 1.770 1_455 S
C323 C138 1.776 1_655 S
C337 C47 1.291 1_545 S
C343 C148 1.301 . S
C357 C93 1.526 . S
C363 C143 1.522 1_556 S
C377 C114 1.525 1_556 S
C383 C142 1.525 . S
C403 C145 1.526 1_556 S
C397 C100 1.526 1_554 S
C423 C144 1.526 1_556 S
C417 C107 1.527 1_554 S
