# Generated by pormake.
# Topology eea, (3,6)-cn, num edge types: 1
# Building blocks:
#     Node 0, Type 0, BuildingBlock: QEWDON_clean_linker_0, # of connection points: 3
#     Node 1, Type 0, BuildingBlock: QEWDON_clean_linker_0, # of connection points: 3
#     Node 2, Type 0, BuildingBlock: QEWDON_clean_linker_0, # of connection points: 3
#     Node 3, Type 0, BuildingBlock: QEWDON_clean_linker_0, # of connection points: 3
#     Node 4, Type 0, BuildingBlock: QEWDON_clean_linker_0, # of connection points: 3
#     Node 5, Type 0, BuildingBlock: QEWDON_clean_linker_0, # of connection points: 3
#     Node 6, Type 0, BuildingBlock: QEWDON_clean_linker_0, # of connection points: 3
#     Node 7, Type 0, BuildingBlock: QEWDON_clean_linker_0, # of connection points: 3
#     Node 8, Type 0, BuildingBlock: QEWDON_clean_linker_0, # of connection points: 3
#     Node 9, Type 0, BuildingBlock: QEWDON_clean_linker_0, # of connection points: 3
#     Node 10, Type 0, BuildingBlock: QEWDON_clean_linker_0, # of connection points: 3
#     Node 11, Type 0, BuildingBlock: QEWDON_clean_linker_0, # of connection points: 3
#     Node 12, Type 0, BuildingBlock: QEWDON_clean_linker_0, # of connection points: 3
#     Node 13, Type 0, BuildingBlock: QEWDON_clean_linker_0, # of connection points: 3
#     Node 14, Type 0, BuildingBlock: QEWDON_clean_linker_0, # of connection points: 3
#     Node 15, Type 0, BuildingBlock: QEWDON_clean_linker_0, # of connection points: 3
#     Node 16, Type 0, BuildingBlock: QEWDON_clean_linker_0, # of connection points: 3
#     Node 17, Type 0, BuildingBlock: QEWDON_clean_linker_0, # of connection points: 3
#     Node 18, Type 1, BuildingBlock: KUMJIN_clean_sbu_0, # of connection points: 6
#     Node 19, Type 1, BuildingBlock: KUMJIN_clean_sbu_0, # of connection points: 6
#     Node 20, Type 1, BuildingBlock: KUMJIN_clean_sbu_0, # of connection points: 6
#     Node 21, Type 1, BuildingBlock: KUMJIN_clean_sbu_0, # of connection points: 6
#     Node 22, Type 1, BuildingBlock: KUMJIN_clean_sbu_0, # of connection points: 6
#     Node 23, Type 1, BuildingBlock: KUMJIN_clean_sbu_0, # of connection points: 6
#     Node 24, Type 1, BuildingBlock: KUMJIN_clean_sbu_0, # of connection points: 6
#     Node 25, Type 1, BuildingBlock: KUMJIN_clean_sbu_0, # of connection points: 6
#     Node 26, Type 1, BuildingBlock: KUMJIN_clean_sbu_0, # of connection points: 6
#     Edge 27, Type (0, 1), BuildingBlock: EZIPEK_clean_linker_0, # of connection points: 2
#     Edge 28, Type (0, 1), BuildingBlock: EZIPEK_clean_linker_0, # of connection points: 2
#     Edge 29, Type (0, 1), BuildingBlock: EZIPEK_clean_linker_0, # of connection points: 2
#     Edge 30, Type (0, 1), BuildingBlock: EZIPEK_clean_linker_0, # of connection points: 2
#     Edge 31, Type (0, 1), BuildingBlock: EZIPEK_clean_linker_0, # of connection points: 2
#     Edge 32, Type (0, 1), BuildingBlock: EZIPEK_clean_linker_0, # of connection points: 2
#     Edge 33, Type (0, 1), BuildingBlock: EZIPEK_clean_linker_0, # of connection points: 2
#     Edge 34, Type (0, 1), BuildingBlock: EZIPEK_clean_linker_0, # of connection points: 2
#     Edge 35, Type (0, 1), BuildingBlock: EZIPEK_clean_linker_0, # of connection points: 2
#     Edge 36, Type (0, 1), BuildingBlock: EZIPEK_clean_linker_0, # of connection points: 2
#     Edge 37, Type (0, 1), BuildingBlock: EZIPEK_clean_linker_0, # of connection points: 2
#     Edge 38, Type (0, 1), BuildingBlock: EZIPEK_clean_linker_0, # of connection points: 2
#     Edge 39, Type (0, 1), BuildingBlock: EZIPEK_clean_linker_0, # of connection points: 2
#     Edge 40, Type (0, 1), BuildingBlock: EZIPEK_clean_linker_0, # of connection points: 2
#     Edge 41, Type (0, 1), BuildingBlock: EZIPEK_clean_linker_0, # of connection points: 2
#     Edge 42, Type (0, 1), BuildingBlock: EZIPEK_clean_linker_0, # of connection points: 2
#     Edge 43, Type (0, 1), BuildingBlock: EZIPEK_clean_linker_0, # of connection points: 2
#     Edge 44, Type (0, 1), BuildingBlock: EZIPEK_clean_linker_0, # of connection points: 2
#     Edge 45, Type (0, 1), BuildingBlock: EZIPEK_clean_linker_0, # of connection points: 2
#     Edge 46, Type (0, 1), BuildingBlock: EZIPEK_clean_linker_0, # of connection points: 2
#     Edge 47, Type (0, 1), BuildingBlock: EZIPEK_clean_linker_0, # of connection points: 2
#     Edge 48, Type (0, 1), BuildingBlock: EZIPEK_clean_linker_0, # of connection points: 2
#     Edge 49, Type (0, 1), BuildingBlock: EZIPEK_clean_linker_0, # of connection points: 2
#     Edge 50, Type (0, 1), BuildingBlock: EZIPEK_clean_linker_0, # of connection points: 2
#     Edge 51, Type (0, 1), BuildingBlock: EZIPEK_clean_linker_0, # of connection points: 2
#     Edge 52, Type (0, 1), BuildingBlock: EZIPEK_clean_linker_0, # of connection points: 2
#     Edge 53, Type (0, 1), BuildingBlock: EZIPEK_clean_linker_0, # of connection points: 2
#     Edge 54, Type (0, 1), BuildingBlock: EZIPEK_clean_linker_0, # of connection points: 2
#     Edge 55, Type (0, 1), BuildingBlock: EZIPEK_clean_linker_0, # of connection points: 2
#     Edge 56, Type (0, 1), BuildingBlock: EZIPEK_clean_linker_0, # of connection points: 2
#     Edge 57, Type (0, 1), BuildingBlock: EZIPEK_clean_linker_0, # of connection points: 2
#     Edge 58, Type (0, 1), BuildingBlock: EZIPEK_clean_linker_0, # of connection points: 2
#     Edge 59, Type (0, 1), BuildingBlock: EZIPEK_clean_linker_0, # of connection points: 2
#     Edge 60, Type (0, 1), BuildingBlock: EZIPEK_clean_linker_0, # of connection points: 2
#     Edge 61, Type (0, 1), BuildingBlock: EZIPEK_clean_linker_0, # of connection points: 2
#     Edge 62, Type (0, 1), BuildingBlock: EZIPEK_clean_linker_0, # of connection points: 2
#     Edge 63, Type (0, 1), BuildingBlock: EZIPEK_clean_linker_0, # of connection points: 2
#     Edge 64, Type (0, 1), BuildingBlock: EZIPEK_clean_linker_0, # of connection points: 2
#     Edge 65, Type (0, 1), BuildingBlock: EZIPEK_clean_linker_0, # of connection points: 2
#     Edge 66, Type (0, 1), BuildingBlock: EZIPEK_clean_linker_0, # of connection points: 2
#     Edge 67, Type (0, 1), BuildingBlock: EZIPEK_clean_linker_0, # of connection points: 2
#     Edge 68, Type (0, 1), BuildingBlock: EZIPEK_clean_linker_0, # of connection points: 2
#     Edge 69, Type (0, 1), BuildingBlock: EZIPEK_clean_linker_0, # of connection points: 2
#     Edge 70, Type (0, 1), BuildingBlock: EZIPEK_clean_linker_0, # of connection points: 2
#     Edge 71, Type (0, 1), BuildingBlock: EZIPEK_clean_linker_0, # of connection points: 2
#     Edge 72, Type (0, 1), BuildingBlock: EZIPEK_clean_linker_0, # of connection points: 2
#     Edge 73, Type (0, 1), BuildingBlock: EZIPEK_clean_linker_0, # of connection points: 2
#     Edge 74, Type (0, 1), BuildingBlock: EZIPEK_clean_linker_0, # of connection points: 2
#     Edge 75, Type (0, 1), BuildingBlock: EZIPEK_clean_linker_0, # of connection points: 2
#     Edge 76, Type (0, 1), BuildingBlock: EZIPEK_clean_linker_0, # of connection points: 2
#     Edge 77, Type (0, 1), BuildingBlock: EZIPEK_clean_linker_0, # of connection points: 2
#     Edge 78, Type (0, 1), BuildingBlock: EZIPEK_clean_linker_0, # of connection points: 2
#     Edge 79, Type (0, 1), BuildingBlock: EZIPEK_clean_linker_0, # of connection points: 2
#     Edge 80, Type (0, 1), BuildingBlock: EZIPEK_clean_linker_0, # of connection points: 2
# Relax obj value: 0.047
# Max RMSD: 0.224
# Mean RMSD: 0.160
data_MOF--net-eea--node1-KUMJIN_clean_sbu_0--node2-QEWDON_clean_linker_0--edge1-EZIPEK_clean_linker_0
_symmetry_space_group_name_H-M    P1
_symmetry_Int_Tables_number       1
_symmetry_cell_setting            triclinic
loop_
_symmetry_equiv_pos_as_xyz
'x, y, z'
_cell_length_a     42.75023
_cell_length_b     43.888105
_cell_length_c     50.592694
_cell_angle_alpha  90.087145
_cell_angle_beta   90.025016
_cell_angle_gamma 120.09231
loop_
_atom_site_label
_atom_site_type_symbol
_atom_site_fract_x
_atom_site_fract_y
_atom_site_fract_z
_atom_type_partial_charge
H0 H 0.22557 0.12932 0.42697 0.0
C1 C 0.2266 0.1075 0.41781 0.0
C2 C 0.2453 0.09288 0.43064 0.0
C3 C 0.20861 0.09331 0.39366 0.0
H4 H 0.25725 0.05053 0.43024 0.0
C5 C 0.24441 0.06295 0.41984 0.0
C6 C 0.22629 0.04845 0.39604 0.0
C7 C 0.21014 0.06476 0.38248 0.0
C8 C 0.18579 0.10591 0.3808 0.0
H9 H 0.19709 0.05377 0.3637 0.0
C10 C 0.19606 0.14187 0.38045 0.0
C11 C 0.17374 0.15269 0.36811 0.0
C12 C 0.15279 0.08129 0.36884 0.0
H13 H 0.14331 0.05333 0.36944 0.0
C14 C 0.13112 0.09223 0.35628 0.0
H15 H 0.22104 0.16135 0.38972 0.0
C16 C 0.1415 0.12775 0.35589 0.0
H17 H 0.12403 0.13579 0.34646 0.0
H18 H 0.10593 0.07304 0.34714 0.0
H19 H 0.87009 0.09407 0.42676 0.0
C20 C 0.89424 0.11495 0.41758 0.0
C21 C 0.90884 0.14945 0.42716 0.0
C22 C 0.9119 0.10695 0.39758 0.0
H23 H 0.95173 0.20318 0.4234 0.0
C24 C 0.94053 0.17663 0.41575 0.0
C25 C 0.95988 0.16942 0.39655 0.0
C26 C 0.94529 0.13431 0.38775 0.0
C27 C 0.8969 0.06958 0.38871 0.0
H28 H 0.96034 0.12823 0.37357 0.0
C29 C 0.85918 0.04647 0.38573 0.0
C30 C 0.84553 0.01104 0.37814 0.0
C31 C 0.92035 0.05636 0.38395 0.0
H32 H 0.94926 0.07282 0.38664 0.0
C33 C 0.90679 0.02136 0.37631 0.0
H34 H 0.84045 0.0559 0.3891 0.0
C35 C 0.86966 0.99883 0.37342 0.0
H36 H 0.85967 0.97173 0.36756 0.0
H37 H 0.92518 0.01159 0.37279 0.0
H38 H 0.91757 0.7848 0.42453 0.0
C39 C 0.89559 0.78709 0.4161 0.0
C40 C 0.86321 0.77418 0.43078 0.0
C41 C 0.89963 0.80328 0.39112 0.0
H42 H 0.8104 0.76939 0.43201 0.0
C43 C 0.83501 0.77852 0.42065 0.0
C44 C 0.83743 0.79287 0.39551 0.0
C45 C 0.86924 0.80435 0.38071 0.0
C46 C 0.93528 0.82015 0.37615 0.0
H47 H 0.86981 0.81415 0.36102 0.0
C48 C 0.96257 0.81083 0.38003 0.0
C49 C 0.99544 0.82771 0.36542 0.0
C50 C 0.94278 0.8473 0.35786 0.0
H51 H 0.92453 0.85733 0.35503 0.0
C52 C 0.97451 0.86302 0.34308 0.0
H53 H 0.95864 0.79069 0.3941 0.0
C54 C 1.00045 0.85319 0.34664 0.0
H55 H 0.02519 0.86633 0.33523 0.0
H56 H 0.97932 0.88351 0.32904 0.0
H57 H 0.13394 0.22315 0.60904 0.0
C58 C 0.11144 0.22424 0.6178 0.0
C59 C 0.09611 0.24133 0.60366 0.0
C60 C 0.09817 0.20924 0.64293 0.0
H61 H 0.05217 0.25237 0.60263 0.0
C62 C 0.06501 0.24054 0.61379 0.0
C63 C 0.05007 0.22427 0.63805 0.0
C64 C 0.06812 0.21093 0.65314 0.0
C65 C 0.11425 0.19068 0.65822 0.0
H66 H 0.0575 0.20097 0.67259 0.0
C67 C 0.15033 0.19762 0.65434 0.0
C68 C 0.16412 0.17964 0.66939 0.0
C69 C 0.09264 0.16465 0.67691 0.0
H70 H 0.06441 0.15629 0.67969 0.0
C71 C 0.10659 0.14792 0.69219 0.0
H72 H 0.16777 0.21667 0.63986 0.0
C73 C 0.14195 0.15549 0.68864 0.0
H74 H 0.15166 0.14128 0.70028 0.0
H75 H 0.08955 0.12831 0.70654 0.0
H76 H 0.79043 0.90953 0.6 0.0
C77 C 0.79124 0.88848 0.61058 0.0
C78 C 0.7719 0.85402 0.6005 0.0
C79 C 0.81167 0.89578 0.63394 0.0
H80 H 0.76043 0.80047 0.60498 0.0
C81 C 0.77434 0.82687 0.61319 0.0
C82 C 0.79545 0.83383 0.63601 0.0
C83 C 0.81294 0.86796 0.64679 0.0
C84 C 0.83292 0.93254 0.64424 0.0
H85 H 0.82845 0.87285 0.66482 0.0
C86 C 0.81948 0.95605 0.6426 0.0
C87 C 0.84007 0.99071 0.65218 0.0
C88 C 0.86735 0.9446 0.65547 0.0
H89 H 0.87903 0.92771 0.65645 0.0
C90 C 0.88757 0.97892 0.66514 0.0
H91 H 0.79302 0.94751 0.63423 0.0
C92 C 0.87404 0.00188 0.66355 0.0
H93 H 0.89014 0.0285 0.67106 0.0
H94 H 0.91396 0.98782 0.67373 0.0
H95 H 0.10103 0.86439 0.60761 0.0
C96 C 0.12388 0.88693 0.61664 0.0
C97 C 0.15693 0.90383 0.60273 0.0
C98 C 0.12045 0.89953 0.64162 0.0
H99 H 0.21122 0.9484 0.60217 0.0
C100 C 0.18623 0.93448 0.61326 0.0
C101 C 0.18316 0.94813 0.63748 0.0
C102 C 0.15102 0.92993 0.65197 0.0
C103 C 0.08504 0.88254 0.65646 0.0
H104 H 0.15011 0.94037 0.67114 0.0
C105 C 0.05821 0.84653 0.65307 0.0
C106 C 0.0254 0.83174 0.66741 0.0
C107 C 0.07743 0.90298 0.67412 0.0
H108 H 0.09559 0.93094 0.67649 0.0
C109 C 0.0456 0.88804 0.68876 0.0
H110 H 0.06239 0.82992 0.6394 0.0
C111 C 0.01987 0.85274 0.68554 0.0
H112 H 0.99473 0.84206 0.69638 0.0
H113 H 0.04045 0.90421 0.70225 0.0
H114 H 0.89075 0.46375 0.769 0.0
C115 C 0.88816 0.43979 0.76072 0.0
C116 C 0.91237 0.42877 0.76878 0.0
C117 C 0.85918 0.41878 0.74377 0.0
H118 H 0.93029 0.39157 0.76204 0.0
C119 C 0.91001 0.39856 0.75717 0.0
C120 C 0.88104 0.3767 0.74033 0.0
C121 C 0.8549 0.38646 0.7349 0.0
C122 C 0.83309 0.43021 0.73559 0.0
H123 H 0.83176 0.36936 0.72279 0.0
C124 C 0.84498 0.46593 0.73006 0.0
C125 C 0.82035 0.47629 0.72153 0.0
C126 C 0.79606 0.40531 0.73284 0.0
H127 H 0.7857 0.37785 0.73757 0.0
C128 C 0.77171 0.41558 0.72425 0.0
H129 H 0.8733 0.48568 0.73201 0.0
C130 C 0.78373 0.4508 0.71853 0.0
H131 H 0.76438 0.45833 0.71208 0.0
H132 H 0.74333 0.39616 0.72218 0.0
H133 H 0.54136 0.43772 0.75962 0.0
C134 C 0.565 0.45907 0.75029 0.0
C135 C 0.57785 0.49359 0.75925 0.0
C136 C 0.58387 0.45176 0.73085 0.0
H137 H 0.61895 0.548 0.75498 0.0
C138 C 0.60903 0.52143 0.74775 0.0
C139 C 0.62966 0.51491 0.7292 0.0
C140 C 0.61665 0.47985 0.72093 0.0
C141 C 0.57098 0.41448 0.72274 0.0
H142 H 0.6326 0.47442 0.70715 0.0
C143 C 0.53364 0.38951 0.72026 0.0
C144 C 0.52209 0.35428 0.71328 0.0
C145 C 0.59617 0.40327 0.71819 0.0
H146 H 0.62488 0.42115 0.72063 0.0
C147 C 0.58467 0.3685 0.71109 0.0
H148 H 0.51358 0.39728 0.7236 0.0
C149 C 0.54793 0.34415 0.70866 0.0
H150 H 0.53956 0.3172 0.70331 0.0
H151 H 0.60437 0.3603 0.70771 0.0
H152 H 0.58527 0.12376 0.75637 0.0
C153 C 0.56288 0.12541 0.74798 0.0
C154 C 0.53019 0.11106 0.76242 0.0
C155 C 0.56672 0.14226 0.72336 0.0
H156 H 0.47648 0.10422 0.76353 0.0
C157 C 0.50136 0.11444 0.75234 0.0
C158 C 0.50383 0.12972 0.72757 0.0
C159 C 0.53603 0.14269 0.71304 0.0
C160 C 0.60237 0.16032 0.70855 0.0
H161 H 0.53667 0.15318 0.69359 0.0
C162 C 0.62983 0.15121 0.71176 0.0
C163 C 0.6624 0.16851 0.69692 0.0
C164 C 0.60948 0.18801 0.69091 0.0
H165 H 0.59101 0.19791 0.68872 0.0
C166 C 0.64097 0.20423 0.67587 0.0
H167 H 0.62611 0.13064 0.72533 0.0
C168 C 0.66697 0.19432 0.67857 0.0
H169 H 0.69143 0.20767 0.66688 0.0
H170 H 0.64547 0.22504 0.66224 0.0
H171 H 0.8081 0.56079 0.9427 0.0
C172 C 0.78556 0.56198 0.95126 0.0
C173 C 0.77087 0.57958 0.93708 0.0
C174 C 0.77167 0.54662 0.97618 0.0
H175 H 0.72733 0.59109 0.9356 0.0
C176 C 0.73961 0.57878 0.94684 0.0
C177 C 0.72379 0.56199 0.97081 0.0
C178 C 0.74144 0.54831 0.9861 0.0
C179 C 0.78734 0.5276 0.99138 0.0
H180 H 0.73043 0.53809 0.00542 0.0
C181 C 0.82346 0.5345 0.98773 0.0
C182 C 0.83674 0.5157 1.00231 0.0
C183 C 0.76526 0.50102 0.00954 0.0
H184 H 0.73707 0.49292 0.01222 0.0
C185 C 0.77865 0.48334 0.02431 0.0
H186 H 0.84136 0.55417 0.97378 0.0
C187 C 0.81397 0.49067 0.02084 0.0
H188 H 0.82326 0.47576 0.03204 0.0
H189 H 0.76122 0.4632 0.0382 0.0
H190 H 0.44908 0.24731 0.9322 0.0
C191 C 0.44948 0.22597 0.94266 0.0
C192 C 0.42771 0.19128 0.93351 0.0
C193 C 0.47249 0.23328 0.96455 0.0
H194 H 0.41293 0.13691 0.93905 0.0
C195 C 0.42904 0.16363 0.94639 0.0
C196 C 0.4528 0.17056 0.9676 0.0
C197 C 0.47405 0.20523 0.97684 0.0
C198 C 0.49645 0.27033 0.97348 0.0
H199 H 0.49217 0.21025 0.99336 0.0
C200 C 0.48404 0.29473 0.97408 0.0
C201 C 0.50736 0.32983 0.98193 0.0
C202 C 0.53243 0.28178 0.9809 0.0
H203 H 0.54312 0.26405 0.98016 0.0
C204 C 0.55539 0.31654 0.98881 0.0
H205 H 0.45642 0.28658 0.96864 0.0
C206 C 0.543 0.34047 0.98931 0.0
H207 H 0.56123 0.36738 0.99545 0.0
H208 H 0.58301 0.32502 0.99441 0.0
H209 H 0.77936 0.20415 0.92846 0.0
C210 C 0.80023 0.22648 0.93927 0.0
C211 C 0.83627 0.24209 0.93073 0.0
C212 C 0.79045 0.24133 0.96003 0.0
H213 H 0.89076 0.28472 0.93696 0.0
C214 C 0.86305 0.27215 0.94388 0.0
C215 C 0.85388 0.28772 0.96449 0.0
C216 C 0.81742 0.27225 0.97245 0.0
C217 C 0.75154 0.22952 0.96354 0.0
H218 H 0.80984 0.28525 0.98723 0.0
C219 C 0.72722 0.19766 0.97646 0.0
C220 C 0.68936 0.1843 0.975 0.0
C221 C 0.73797 0.2485 0.95031 0.0
H222 H 0.75611 0.27277 0.94013 0.0
C223 C 0.7009 0.23558 0.94887 0.0
H224 H 0.7376 0.18313 0.98701 0.0
C225 C 0.67684 0.20357 0.96063 0.0
H226 H 0.64812 0.19394 0.95873 0.0
H227 H 0.69072 0.25013 0.93814 0.0
H228 H 0.57038 0.80664 0.10206 0.0
C229 C 0.56873 0.7841 0.09193 0.0
C230 C 0.58623 0.76707 0.10284 0.0
C231 C 0.54808 0.77116 0.06863 0.0
H232 H 0.59505 0.72291 0.09948 0.0
C233 C 0.58249 0.73665 0.09065 0.0
C234 C 0.56241 0.72368 0.0673 0.0
C235 C 0.5462 0.7416 0.05605 0.0
C236 C 0.52579 0.7861 0.05847 0.0
H237 H 0.53095 0.73157 0.03787 0.0
C238 C 0.53888 0.82277 0.05779 0.0
C239 C 0.51681 0.83564 0.04793 0.0
C240 C 0.49033 0.76293 0.04958 0.0
H241 H 0.47901 0.73467 0.05044 0.0
C242 C 0.46868 0.77577 0.03985 0.0
H243 H 0.56598 0.84116 0.06461 0.0
C244 C 0.4818 0.81187 0.03898 0.0
H245 H 0.4645 0.82136 0.03144 0.0
H246 H 0.4415 0.75762 0.0331 0.0
H247 H 0.2199 0.77585 0.09214 0.0
C248 C 0.24345 0.7975 0.08298 0.0
C249 C 0.26027 0.83062 0.09552 0.0
C250 C 0.25792 0.79171 0.05981 0.0
H251 H 0.30544 0.88387 0.09438 0.0
C252 C 0.29196 0.8585 0.08452 0.0
C253 C 0.30621 0.85387 0.06078 0.0
C254 C 0.28885 0.82055 0.04845 0.0
C255 C 0.2428 0.75509 0.04896 0.0
H256 H 0.30002 0.81713 0.03022 0.0
C257 C 0.20537 0.72967 0.05022 0.0
C258 C 0.1925 0.69482 0.0413 0.0
C259 C 0.26659 0.74469 0.03855 0.0
H260 H 0.29545 0.7628 0.03791 0.0
C261 C 0.25375 0.71038 0.02955 0.0
H262 H 0.18625 0.73677 0.05793 0.0
C263 C 0.21705 0.68561 0.03094 0.0
H264 H 0.20768 0.65907 0.02388 0.0
H265 H 0.27246 0.70286 0.02167 0.0
H266 H 0.25689 0.46229 0.09527 0.0
C267 C 0.23433 0.46236 0.08561 0.0
C268 C 0.20072 0.44723 0.09883 0.0
C269 C 0.23884 0.47813 0.06046 0.0
H270 H 0.1461 0.43788 0.09756 0.0
C271 C 0.17164 0.44871 0.08716 0.0
C272 C 0.17526 0.46428 0.06232 0.0
C273 C 0.20841 0.47791 0.04887 0.0
C274 C 0.27521 0.4965 0.0467 0.0
H275 H 0.21019 0.48867 0.02933 0.0
C276 C 0.30208 0.48659 0.05006 0.0
C277 C 0.33548 0.50447 0.03617 0.0
C278 C 0.28351 0.52529 0.02995 0.0
H279 H 0.26519 0.53536 0.02767 0.0
C280 C 0.31596 0.54234 0.01608 0.0
H281 H 0.29719 0.46507 0.06304 0.0
C282 C 0.34155 0.53192 0.01897 0.0
H283 H 0.36679 0.54602 0.00824 0.0
H284 H 0.32152 0.56417 1.0032 0.0
H285 H 0.46985 0.89243 0.265 0.0
C286 C 0.44736 0.89091 0.27604 0.0
C287 C 0.43151 0.91051 0.26754 0.0
C288 C 0.43303 0.86762 0.29745 0.0
H289 H 0.3884 0.92159 0.27404 0.0
C290 C 0.40102 0.90692 0.28092 0.0
C291 C 0.38575 0.88351 0.30234 0.0
C292 C 0.40231 0.86417 0.3107 0.0
C293 C 0.44509 0.84149 0.3011 0.0
H294 H 0.39025 0.84522 0.32657 0.0
C295 C 0.47945 0.85061 0.31167 0.0
C296 C 0.49266 0.82673 0.30977 0.0
C297 C 0.42372 0.80816 0.28969 0.0
H298 H 0.39756 0.80081 0.28125 0.0
C299 C 0.43663 0.78478 0.28761 0.0
H300 H 0.49589 0.87615 0.32083 0.0
C301 C 0.47093 0.79417 0.29703 0.0
H302 H 0.48034 0.77552 0.2948 0.0
H303 H 0.4202 0.75943 0.27821 0.0
H304 H 0.10851 0.57019 0.2681 0.0
C305 C 0.10663 0.54817 0.27913 0.0
C306 C 0.08373 0.51367 0.26998 0.0
C307 C 0.12828 0.55437 0.30167 0.0
H308 H 0.06616 0.45867 0.27606 0.0
C309 C 0.08252 0.48522 0.28364 0.0
C310 C 0.10476 0.49128 0.30572 0.0
C311 C 0.12685 0.52566 0.31498 0.0
C312 C 0.15464 0.59079 0.31008 0.0
H313 H 0.14427 0.53005 0.33186 0.0
C314 C 0.14468 0.61684 0.3114 0.0
C315 C 0.16993 0.65114 0.31957 0.0
C316 C 0.19023 0.59973 0.31672 0.0
H317 H 0.19887 0.58041 0.31541 0.0
C318 C 0.21529 0.63388 0.32471 0.0
H319 H 0.11738 0.61047 0.30644 0.0
C320 C 0.20523 0.65951 0.32616 0.0
H321 H 0.22496 0.68594 0.33241 0.0
H322 H 0.24261 0.64051 0.32971 0.0
H323 H 0.44079 0.52596 0.2606 0.0
C324 C 0.46046 0.5476 0.27263 0.0
C325 C 0.49705 0.56521 0.26515 0.0
C326 C 0.44864 0.55993 0.29388 0.0
H327 H 0.55025 0.60888 0.27362 0.0
C328 C 0.52221 0.59458 0.27984 0.0
C329 C 0.5109 0.60751 0.30099 0.0
C330 C 0.47403 0.59009 0.3079 0.0
C331 C 0.40939 0.547 0.29656 0.0
H332 H 0.46483 0.60124 0.32307 0.0
C333 C 0.38475 0.5134 0.30695 0.0
C334 C 0.34699 0.50038 0.30542 0.0
C335 C 0.3962 0.56786 0.28588 0.0
H336 H 0.41464 0.59359 0.27774 0.0
C337 C 0.35921 0.55534 0.28465 0.0
H338 H 0.39481 0.49746 0.31572 0.0
C339 C 0.33483 0.52182 0.29399 0.0
H340 H 0.30616 0.51263 0.29252 0.0
H341 H 0.34933 0.57152 0.27607 0.0
Eu342 Eu 0.49595 0.99969 0.98232 0.0
C343 C 0.54415 0.1089 0.07325 0.0
C344 C 0.60889 0.13253 0.07478 0.0
C345 C 0.58382 0.16925 0.08772 0.0
C346 C 0.57372 0.1047 0.06914 0.0
C347 C 0.54878 0.14087 0.08337 0.0
C348 C 0.61384 0.16507 0.08347 0.0
C349 C 0.48389 0.11274 0.08786 0.0
N350 N 0.51068 0.08072 0.06952 0.0
C351 C 0.48079 0.08148 0.07821 0.0
C352 C 0.51802 0.1428 0.09001 0.0
Eu353 Eu 0.50724 0.02891 0.0522 0.0
N354 N 0.56796 0.07282 0.06098 0.0
C355 C 0.59597 0.06622 0.06003 0.0
C356 C 0.63794 0.12653 0.07219 0.0
C357 C 0.63137 0.09307 0.06516 0.0
H358 H 0.45448 0.05802 0.07708 0.0
H359 H 0.65355 0.08791 0.06362 0.0
H360 H 0.64068 0.18686 0.0876 0.0
H361 H 0.46001 0.11353 0.09388 0.0
H362 H 0.59139 0.04054 0.05463 0.0
H363 H 0.3494 0.92857 0.96842 0.0
H364 H 0.66538 0.14726 0.0762 0.0
H365 H 0.55499 0.97782 0.95752 0.0
H366 H 0.40964 0.9805 0.97609 0.0
H367 H 0.55549 0.92453 0.94204 0.0
H368 H 0.58795 0.19415 0.09521 0.0
H369 H 0.34353 0.87043 0.95969 0.0
H370 H 0.37408 0.83512 0.95095 0.0
H371 H 0.52043 0.16688 0.09782 0.0
H372 H 0.43045 0.83402 0.94368 0.0
N373 N 0.43741 0.95183 0.97305 0.0
C374 C 0.40741 0.95527 0.9725 0.0
C375 C 0.37002 0.89313 0.96316 0.0
C376 C 0.40122 0.89044 0.96156 0.0
C377 C 0.37323 0.9259 0.96801 0.0
C378 C 0.43501 0.92081 0.96629 0.0
H379 H 0.49831 0.86742 0.93982 0.0
N380 N 0.4985 0.95059 0.96522 0.0
C381 C 0.53033 0.92285 0.94791 0.0
C382 C 0.4666 0.92015 0.96225 0.0
C383 C 0.53 0.95291 0.95671 0.0
C384 C 0.49801 0.89065 0.94674 0.0
C385 C 0.46547 0.88917 0.95331 0.0
O386 O 0.53005 0.0276 0.94838 0.0
O387 O 0.53069 0.04307 0.01112 0.0
O388 O 0.48986 0.06254 0.02982 0.0
O389 O 0.46793 0.03169 0.98998 0.0
O390 O 0.55701 0.03028 0.983 0.0
O391 O 0.47359 0.01135 0.94707 0.0
O392 O 0.472 0.00523 0.08645 0.0
O393 O 0.47227 0.98593 0.02341 0.0
O394 O 0.51179 0.96492 1.0047 0.0
O395 O 0.53112 0.99294 0.04575 0.0
O396 O 0.44615 0.9998 0.05108 0.0
O397 O 0.52619 0.01383 0.08747 0.0
C398 C 0.56198 0.05163 1.00221 0.0
C399 C 0.50291 0.0153 0.90609 0.0
C400 C 0.51027 0.02968 0.85873 0.0
C401 C 0.50793 0.03879 0.88524 0.0
C402 C 0.50758 0.99695 0.85359 0.0
C403 C 0.49888 0.98233 0.90006 0.0
C404 C 0.50146 0.97336 0.87404 0.0
C405 C 0.47391 0.05757 0.00652 0.0
C406 C 0.50394 0.02588 0.93404 0.0
C407 C 0.4319 0.85822 0.95019 0.0
C408 C 0.3998 0.85885 0.95432 0.0
C409 C 0.44109 0.97836 0.03193 0.0
C410 C 0.49975 0.01557 0.12835 0.0
C411 C 0.48615 0.99092 0.14914 0.0
C412 C 0.4868 0.00216 0.17542 0.0
C413 C 0.5013 0.03827 0.18052 0.0
C414 C 0.51499 0.05151 0.13414 0.0
C415 C 0.51561 0.06273 0.16004 0.0
C416 C 0.52581 0.96797 0.02853 0.0
C417 C 0.49639 0.00348 0.1007 0.0
H418 H 0.51039 0.06409 0.88961 0.0
H419 H 0.50952 0.98935 0.83353 0.0
H420 H 0.4941 0.96356 0.91545 0.0
H421 H 0.49877 0.94799 0.86971 0.0
H422 H 0.47467 0.9631 0.14491 0.0
H423 H 0.50189 0.04752 0.20048 0.0
H424 H 0.52622 0.07091 0.11868 0.0
H425 H 0.52712 0.09052 0.16423 0.0
Eu426 Eu 0.03021 0.50562 0.98075 0.0
C427 C 0.90937 0.43834 0.06312 0.0
C428 C 0.88441 0.47696 0.06592 0.0
C429 C 0.84552 0.41409 0.0728 0.0
C430 C 0.9137 0.47156 0.0607 0.0
C431 C 0.87554 0.40943 0.07016 0.0
C432 C 0.85002 0.44789 0.07094 0.0
C433 C 0.90522 0.37564 0.07744 0.0
N434 N 0.93938 0.43531 0.06219 0.0
C435 C 0.93827 0.40542 0.07116 0.0
C436 C 0.87353 0.3774 0.07631 0.0
Eu437 Eu 0.99408 0.48576 0.04898 0.0
N438 N 0.94755 0.49912 0.0568 0.0
C439 C 0.95461 0.53279 0.06053 0.0
C440 C 0.89113 0.51152 0.06796 0.0
C441 C 0.92656 0.53951 0.06607 0.0
H442 H 0.96291 0.40439 0.07277 0.0
H443 H 0.93227 0.56632 0.06857 0.0
H444 H 0.82715 0.45148 0.07481 0.0
H445 H 0.90429 0.35155 0.08347 0.0
H446 H 0.98186 0.55467 0.05902 0.0
H447 H 0.10637 0.43649 0.97239 0.0
H448 H 0.86946 0.51683 0.07216 0.0
H449 H 0.05376 0.58414 0.95379 0.0
H450 H 0.05175 0.44193 0.97613 0.0
H451 H 0.10949 0.63896 0.94104 0.0
H452 H 0.81922 0.39214 0.07792 0.0
H453 H 0.16659 0.48999 0.9683 0.0
H454 H 0.20304 0.55565 0.96189 0.0
H455 H 0.84804 0.35455 0.08174 0.0
H456 H 0.20392 0.61129 0.9533 0.0
N457 N 0.08086 0.49784 0.97528 0.0
C458 C 0.07788 0.46541 0.97442 0.0
C459 C 0.14271 0.49249 0.96997 0.0
C460 C 0.14517 0.52545 0.96842 0.0
C461 C 0.10877 0.46224 0.97218 0.0
C462 C 0.11322 0.52718 0.97072 0.0
H463 H 0.16896 0.6425 0.94481 0.0
N464 N 0.08186 0.55805 0.96599 0.0
C465 C 0.11114 0.61664 0.94834 0.0
C466 C 0.11376 0.55838 0.9659 0.0
C467 C 0.07971 0.58571 0.95562 0.0
C468 C 0.14467 0.61856 0.95055 0.0
C469 C 0.14618 0.58883 0.95865 0.0
O470 O 1.00462 0.51058 0.9449 0.0
O471 O 0.98455 0.49682 0.00763 0.0
O472 O 0.95918 0.43711 0.02387 0.0
O473 O 0.99638 0.44565 0.98749 0.0
O474 O 0.99674 0.53311 0.97817 0.0
O475 O 0.0241 0.47382 0.9455 0.0
O476 O 0.01225 0.47232 0.08525 0.0
O477 O 0.04047 0.49496 0.02263 0.0
O478 O 0.06347 0.55585 1.00362 0.0
O479 O 0.03178 0.54594 0.04343 0.0
O480 O 0.02432 0.45565 0.05039 0.0
O481 O 0.00876 0.51965 0.08395 0.0
C482 C 0.97535 0.51791 0.99786 0.0
C483 C 0.02401 0.49959 0.90424 0.0
C484 C 0.01183 0.49651 0.85679 0.0
C485 C 1.0012 0.48296 0.88254 0.0
C486 C 0.04598 0.5266 0.8531 0.0
C487 C 0.05868 0.52838 0.89989 0.0
C488 C 0.06952 0.54186 0.87446 0.0
C489 C 0.96705 0.42583 1.0019 0.0
C490 C 0.00997 0.48849 0.93121 0.0
C491 C 0.17861 0.58801 0.9584 0.0
C492 C 0.1781 0.55632 0.96329 0.0
C493 C 0.04778 0.47231 0.03213 0.0
C494 C 0.99693 0.4899 0.12483 0.0
C495 C 0.01803 0.49804 0.14784 0.0
C496 C 1.0014 0.48738 0.17278 0.0
C497 C 0.96349 0.46882 0.17442 0.0
C498 C 0.95914 0.47216 0.12698 0.0
C499 C 0.94254 0.46162 0.15163 0.0
C500 C 0.05835 0.56641 0.02685 0.0
C501 C 0.01444 0.49862 0.09872 0.0
H502 H 0.97461 0.46026 0.88579 0.0
H503 H 0.05456 0.53798 0.83362 0.0
H504 H 0.07718 0.54081 0.91608 0.0
H505 H 0.09607 0.56456 0.87135 0.0
H506 H 0.04728 0.51199 0.14637 0.0
H507 H 0.95019 0.46014 0.19339 0.0
H508 H 0.94243 0.46623 0.10966 0.0
H509 H 0.91334 0.44764 0.15304 0.0
Eu510 Eu 0.53682 0.51599 0.04336 0.0
C511 C 0.47904 0.58182 0.96193 0.0
C512 C 0.41386 0.54511 0.96153 0.0
C513 C 0.44154 0.60797 0.95359 0.0
C514 C 0.44847 0.54922 0.96532 0.0
C515 C 0.47596 0.61145 0.95549 0.0
C516 C 0.41052 0.57482 0.95652 0.0
C517 C 0.54091 0.64487 0.95059 0.0
N518 N 0.51189 0.58414 0.96361 0.0
C519 C 0.54259 0.61469 0.95681 0.0
C520 C 0.50751 0.64339 0.95031 0.0
Eu521 Eu 0.51231 0.53208 0.97625 0.0
N522 N 0.45264 0.52103 0.97008 0.0
C523 C 0.42379 0.48774 0.96827 0.0
C524 C 0.38384 0.51107 0.96148 0.0
C525 C 0.38899 0.48222 0.96398 0.0
H526 H 0.56856 0.61618 0.95714 0.0
H527 H 0.36617 0.45572 0.96275 0.0
H528 H 0.38413 0.57224 0.95397 0.0
H529 H 0.56537 0.66925 0.946 0.0
H530 H 0.42766 0.46535 0.96999 0.0
H531 H 0.68064 0.61409 0.05073 0.0
H532 H 0.35681 0.50672 0.95841 0.0
H533 H 0.49868 0.43409 0.06804 0.0
H534 H 0.61518 0.59253 0.04968 0.0
H535 H 0.51464 0.38778 0.07563 0.0
H536 H 0.43861 0.63051 0.94894 0.0
H537 H 0.70263 0.57156 0.04984 0.0
H538 H 0.6879 0.50837 0.05138 0.0
H539 H 0.50629 0.66678 0.94533 0.0
H540 H 0.64213 0.44597 0.05795 0.0
N541 N 0.60015 0.53871 0.04675 0.0
C542 C 0.62437 0.57386 0.04876 0.0
C543 C 0.67385 0.56205 0.04923 0.0
C544 C 0.64876 0.52596 0.04927 0.0
C545 C 0.66154 0.58611 0.04976 0.0
C546 C 0.61161 0.51505 0.04852 0.0
H547 H 0.57729 0.40074 0.0678 0.0
N548 N 0.5511 0.47181 0.05464 0.0
C549 C 0.53493 0.41353 0.06872 0.0
C550 C 0.58609 0.48024 0.0524 0.0
C551 C 0.52595 0.43971 0.0644 0.0
C552 C 0.5703 0.42094 0.06423 0.0
C553 C 0.5967 0.455 0.05681 0.0
O554 O 0.51056 0.49765 0.08182 0.0
O555 O 0.4946 0.51835 0.01855 0.0
O556 O 0.52068 0.57773 1.00178 0.0
O557 O 0.55196 0.57402 0.03838 0.0
O558 O 0.47576 0.48045 0.04722 0.0
O559 O 0.5527 0.55185 0.07712 0.0
O560 O 0.54292 0.54007 0.93982 0.0
O561 O 0.5541 0.52885 1.00116 0.0
O562 O 0.52315 0.46832 0.01804 0.0
O563 O 0.48911 0.4726 0.98344 0.0
O564 O 0.57323 0.56477 0.97113 0.0
O565 O 0.48695 0.49917 0.94125 0.0
C566 C 0.46567 0.49396 0.0288 0.0
C567 C 0.54596 0.52658 0.11943 0.0
C568 C 0.54674 0.53285 0.1675 0.0
C569 C 0.53148 0.53223 0.14266 0.0
C570 C 0.5763 0.52724 0.1688 0.0
C571 C 0.5753 0.52077 0.12115 0.0
C572 C 0.59029 0.52102 0.14576 0.0
C573 C 0.53911 0.59061 0.02387 0.0
C574 C 0.53079 0.52771 0.09357 0.0
C575 C 0.63345 0.46509 0.05512 0.0
C576 C 0.65951 0.5006 0.0514 0.0
C577 C 0.58316 0.55201 0.99013 0.0
C578 C 0.51053 0.52655 0.8998 0.0
C579 C 0.52118 0.51478 0.87752 0.0
C580 C 0.5209 0.52792 0.85212 0.0
C581 C 0.50892 0.55229 0.84934 0.0
C582 C 0.4979 0.55024 0.89645 0.0
C583 C 0.49701 0.56292 0.87133 0.0
C584 C 0.50133 0.455 0.99738 0.0
C585 C 0.51554 0.51617 0.92647 0.0
H586 H 0.50883 0.53679 0.14143 0.0
H587 H 0.58858 0.52781 0.18767 0.0
H588 H 0.58677 0.51634 0.1035 0.0
H589 H 0.61305 0.51669 0.14695 0.0
H590 H 0.53094 0.49643 0.88001 0.0
H591 H 0.50882 0.56308 0.83011 0.0
H592 H 0.48931 0.55939 0.91323 0.0
H593 H 0.48762 0.58153 0.86895 0.0
Eu594 Eu 0.14424 0.31972 0.3156 0.0
C595 C 0.22195 0.42642 0.40626 0.0
C596 C 0.28231 0.43434 0.40436 0.0
C597 C 0.27326 0.47999 0.42371 0.0
C598 C 0.24479 0.41374 0.39937 0.0
C599 C 0.23603 0.4596 0.41872 0.0
C600 C 0.29632 0.46739 0.41657 0.0
C601 C 0.17512 0.44899 0.42274 0.0
N602 N 0.18593 0.40608 0.40144 0.0
C603 C 0.16236 0.41616 0.41076 0.0
C604 C 0.21216 0.47098 0.4265 0.0
Eu605 Eu 0.16633 0.34896 0.38391 0.0
N606 N 0.23056 0.38159 0.38762 0.0
C607 C 0.2525 0.36834 0.38105 0.0
C608 C 0.30479 0.4212 0.39694 0.0
C609 C 0.2898 0.38807 0.38523 0.0
H610 H 0.13348 0.39872 0.40887 0.0
H611 H 0.30695 0.37759 0.3795 0.0
H612 H 0.32501 0.48345 0.42055 0.0
H613 H 0.15632 0.45704 0.42947 0.0
H614 H 0.24188 0.34289 0.37194 0.0
H615 H 1.00106 0.28447 0.31907 0.0
H616 H 0.33371 0.43635 0.40026 0.0
H617 H 0.18019 0.2742 0.28909 0.0
H618 H 0.06381 0.31512 0.33367 0.0
H619 H 0.16213 0.22334 0.25942 0.0
H620 H 0.28447 0.50547 0.43325 0.0
H621 H 0.98016 0.23739 0.28547 0.0
H622 H 0.99381 0.19932 0.25648 0.0
H623 H 0.22197 0.49626 0.4361 0.0
H624 H 0.03703 0.18174 0.24109 0.0
N625 N 0.08027 0.2866 0.30827 0.0
C626 C 0.05602 0.29505 0.31877 0.0
C627 C 0.00823 0.25101 0.29164 0.0
C628 C 0.03259 0.24159 0.28148 0.0
C629 C 0.0199 0.27749 0.31064 0.0
C630 C 0.06887 0.26009 0.29023 0.0
H631 H 0.09938 0.18985 0.24264 0.0
N632 N 0.12752 0.26793 0.29075 0.0
C633 C 0.14237 0.23043 0.2656 0.0
C634 C 0.09315 0.2502 0.28148 0.0
C635 C 0.15234 0.25886 0.28272 0.0
C636 C 0.107 0.21172 0.25608 0.0
C637 C 0.08191 0.22157 0.26389 0.0
O638 O 0.16959 0.32974 0.27623 0.0
O639 O 0.18516 0.36406 0.34153 0.0
O640 O 0.1479 0.384 0.36456 0.0
O641 O 0.12339 0.35674 0.32422 0.0
O642 O 0.2043 0.34038 0.31671 0.0
O643 O 0.14243 0.35725 0.28826 0.0
O644 O 0.13929 0.34194 0.42175 0.0
O645 O 0.12692 0.3032 0.35817 0.0
O646 O 0.15963 0.28208 0.33422 0.0
O647 O 0.17954 0.30511 0.37669 0.0
O648 O 0.10489 0.31999 0.38636 0.0
O649 O 0.18312 0.33078 0.41903 0.0
C650 C 0.21408 0.36789 0.33112 0.0
C651 C 0.14479 0.34898 0.24229 0.0
C652 C 0.1511 0.36925 0.19636 0.0
C653 C 0.16635 0.37131 0.2216 0.0
C654 C 0.11454 0.34441 0.19204 0.0
C655 C 0.10819 0.32492 0.23741 0.0
C656 C 0.0933 0.32245 0.21243 0.0
C657 C 0.13068 0.38108 0.34221 0.0
C658 C 0.15981 0.35224 0.26924 0.0
C659 C 0.04609 0.20363 0.25473 0.0
C660 C 0.02151 0.2137 0.26344 0.0
C661 C 0.09714 0.29493 0.36959 0.0
C662 C 0.16799 0.34313 0.46225 0.0
C663 C 0.15445 0.31756 0.48253 0.0
C664 C 0.15693 0.32774 0.50934 0.0
C665 C 0.17408 0.36386 0.51544 0.0
C666 C 0.18554 0.37888 0.46909 0.0
C667 C 0.1887 0.38914 0.49551 0.0
C668 C 0.17419 0.28244 0.35741 0.0
C669 C 0.15918 0.33192 0.43436 0.0
H670 H 0.19452 0.39049 0.22517 0.0
H671 H 0.10233 0.34233 0.17286 0.0
H672 H 0.09088 0.30846 0.25303 0.0
H673 H 0.06501 0.30373 0.20896 0.0
H674 H 0.14075 0.28982 0.47742 0.0
H675 H 0.17623 0.37253 0.53576 0.0
H676 H 0.19597 0.39891 0.45408 0.0
H677 H 0.20193 0.41684 0.50053 0.0
Eu678 Eu 0.68655 0.82439 0.31737 0.0
C679 C 0.571 0.76641 0.40739 0.0
C680 C 0.5489 0.80759 0.40805 0.0
C681 C 0.5102 0.74754 0.42316 0.0
C682 C 0.57641 0.79969 0.4024 0.0
C683 C 0.53817 0.74024 0.41852 0.0
C684 C 0.5156 0.78118 0.418 0.0
C685 C 0.56485 0.70335 0.42333 0.0
N686 N 0.59891 0.76051 0.40346 0.0
C687 C 0.59705 0.73036 0.41275 0.0
C688 C 0.53504 0.70809 0.42583 0.0
Eu689 Eu 0.65296 0.80768 0.38578 0.0
N690 N 0.60898 0.82471 0.3929 0.0
C691 C 0.61652 0.85871 0.39024 0.0
C692 C 0.55591 0.84197 0.40399 0.0
C693 C 0.59001 0.86772 0.39531 0.0
H694 H 0.62034 0.72694 0.41133 0.0
H695 H 0.59591 0.89452 0.39246 0.0
H696 H 0.49407 0.7867 0.42222 0.0
H697 H 0.56318 0.67909 0.42982 0.0
H698 H 0.64259 0.87893 0.38343 0.0
H699 H 0.66603 0.70677 0.26335 0.0
H700 H 0.53544 0.84903 0.40794 0.0
H701 H 0.76999 0.89742 0.33321 0.0
H702 H 0.6504 0.75045 0.2786 0.0
H703 H 0.83199 0.91183 0.33849 0.0
H704 H 0.4847 0.72769 0.43148 0.0
H705 H 0.72617 0.71455 0.27326 0.0
H706 H 0.78833 0.75259 0.29108 0.0
H707 H 0.51027 0.68733 0.43441 0.0
H708 H 0.83359 0.80873 0.31075 0.0
N709 N 0.69967 0.7812 0.30013 0.0
C710 C 0.67634 0.75375 0.28419 0.0
C711 C 0.7192 0.73361 0.28056 0.0
C712 C 0.74456 0.76386 0.29397 0.0
C713 C 0.68524 0.72905 0.27501 0.0
C714 C 0.73418 0.78799 0.30314 0.0
H715 H 0.85022 0.86811 0.3278 0.0
N716 N 0.74988 0.84386 0.32111 0.0
C717 C 0.81198 0.88579 0.33175 0.0
C718 C 0.75994 0.82014 0.3137 0.0
C719 C 0.77588 0.87693 0.32906 0.0
C720 C 0.82219 0.86115 0.32561 0.0
C721 C 0.79631 0.82812 0.31607 0.0
O722 O 0.71314 0.85742 0.28301 0.0
O723 O 0.64006 0.81494 0.34401 0.0
O724 O 0.61975 0.755 0.36476 0.0
O725 O 0.64299 0.76681 0.3219 0.0
O726 O 0.65268 0.85092 0.31435 0.0
O727 O 0.65825 0.81371 0.2796 0.0
O728 O 0.67637 0.79751 0.42079 0.0
O729 O 0.70003 0.81881 0.35931 0.0
O730 O 0.71017 0.87828 0.33545 0.0
O731 O 0.69158 0.86683 0.37928 0.0
O732 O 0.68156 0.77645 0.38522 0.0
O733 O 0.66729 0.84152 0.42074 0.0
C734 C 0.63039 0.83531 0.33347 0.0
C735 C 0.69458 0.82762 0.24161 0.0
C736 C 0.67737 0.80818 0.19598 0.0
C737 C 0.67085 0.81992 0.22012 0.0
C738 C 0.70795 0.80441 0.19343 0.0
C739 C 0.7251 0.82377 0.23868 0.0
C740 C 0.73167 0.81221 0.21469 0.0
C741 C 0.62068 0.74535 0.34009 0.0
C742 C 0.68618 0.83822 0.2671 0.0
C743 C 0.80599 0.80317 0.3086 0.0
C744 C 0.7802 0.77115 0.29752 0.0
C745 C 0.70597 0.79488 0.36794 0.0
C746 C 0.66468 0.81484 0.46192 0.0
C747 C 0.6897 0.82639 0.4828 0.0
C748 C 0.67786 0.81613 0.50894 0.0
C749 C 0.64074 0.79445 0.51395 0.0
C750 C 0.62768 0.79421 0.46745 0.0
C751 C 0.6158 0.78394 0.49331 0.0
C752 C 0.70972 0.88895 0.35982 0.0
C753 C 0.67774 0.8232 0.43452 0.0
H754 H 0.64713 0.82266 0.22222 0.0
H755 H 0.71336 0.79536 0.17498 0.0
H756 H 0.74372 0.82944 0.25493 0.0
H757 H 0.75514 0.80916 0.21259 0.0
H758 H 0.71834 0.8428 0.47874 0.0
H759 H 0.6311 0.78609 0.5339 0.0
H760 H 0.60794 0.78586 0.45191 0.0
H761 H 0.5872 0.76768 0.49734 0.0
Eu762 Eu 0.19597 0.83869 0.3823 0.0
C763 C 0.14243 0.8987 0.2938 0.0
C764 C 0.07767 0.85984 0.29156 0.0
C765 C 0.10345 0.92212 0.28196 0.0
C766 C 0.11257 0.86566 0.29718 0.0
C767 C 0.13832 0.92719 0.28563 0.0
C768 C 0.07315 0.88844 0.28483 0.0
C769 C 0.2034 0.9626 0.28273 0.0
N770 N 0.17569 0.90253 0.2972 0.0
C771 C 0.20608 0.93347 0.29062 0.0
C772 C 0.16939 0.95961 0.2806 0.0
Eu773 Eu 0.17794 0.85272 0.31306 0.0
N774 N 0.11792 0.8386 0.3036 0.0
C775 C 0.09025 0.8047 0.30155 0.0
C776 C 0.04867 0.82523 0.29143 0.0
C777 C 0.05522 0.79748 0.29554 0.0
H778 H 0.23246 0.93602 0.29254 0.0
H779 H 0.03328 0.77052 0.29434 0.0
H780 H 0.04648 0.88458 0.28089 0.0
H781 H 0.22756 0.98734 0.27832 0.0
H782 H 0.09504 0.78307 0.30462 0.0
H783 H 0.34206 0.9262 0.39041 0.0
H784 H 0.02146 0.81958 0.28704 0.0
H785 H 0.14804 0.75862 0.40979 0.0
H786 H 0.27824 0.91064 0.38627 0.0
H787 H 0.15681 0.70936 0.42364 0.0
H788 H 0.09969 0.94377 0.27599 0.0
H789 H 0.35727 0.87917 0.39659 0.0
H790 H 0.33547 0.815 0.40493 0.0
H791 H 0.16738 0.98217 0.27435 0.0
H792 H 0.28464 0.75557 0.41426 0.0
N793 N 0.25767 0.8557 0.38856 0.0
C794 C 0.28458 0.89006 0.38858 0.0
C795 C 0.32925 0.87231 0.39462 0.0
C796 C 0.30129 0.83736 0.39695 0.0
C797 C 0.32077 0.89891 0.3912 0.0
C798 C 0.26531 0.82997 0.39424 0.0
H799 H 0.21781 0.71603 0.42189 0.0
N800 N 0.20309 0.79199 0.39921 0.0
C801 C 0.17959 0.73376 0.41679 0.0
C802 C 0.23696 0.79686 0.3997 0.0
C803 C 0.17472 0.76167 0.40899 0.0
C804 C 0.21403 0.73758 0.41567 0.0
C805 C 0.24344 0.76976 0.4077 0.0
O806 O 0.16713 0.82621 0.4201 0.0
O807 O 0.1566 0.84185 0.35468 0.0
O808 O 0.18551 0.89946 0.33666 0.0
O809 O 0.21549 0.89703 0.37435 0.0
O810 O 0.1347 0.80454 0.38381 0.0
O811 O 0.21287 0.87811 0.41367 0.0
O812 O 0.20861 0.86521 0.27603 0.0
O813 O 0.21724 0.84837 0.34048 0.0
O814 O 0.1804 0.78855 0.36028 0.0
O815 O 0.15446 0.79389 0.32099 0.0
O816 O 0.23897 0.88501 0.31101 0.0
O817 O 0.15972 0.8148 0.28067 0.0
C818 C 0.12667 0.81798 0.36414 0.0
C819 C 0.20186 0.8569 0.4575 0.0
C820 C 0.19896 0.86538 0.50501 0.0
C821 C 0.18529 0.86309 0.47928 0.0
C822 C 0.22882 0.86061 0.50868 0.0
C823 C 0.23144 0.85193 0.46163 0.0
C824 C 0.24474 0.8537 0.48713 0.0
C825 C 0.20368 0.91338 0.35865 0.0
C826 C 0.18884 0.85682 0.43055 0.0
C827 C 0.27909 0.77617 0.40852 0.0
C828 C 0.30803 0.80999 0.40317 0.0
C829 C 0.24722 0.87142 0.3304 0.0
C830 C 0.17495 0.83775 0.23722 0.0
C831 C 0.19741 0.83966 0.21616 0.0
C832 C 0.18611 0.83801 0.18974 0.0
C833 C 0.15248 0.83539 0.18475 0.0
C834 C 0.14184 0.83585 0.23172 0.0
C835 C 0.13078 0.83477 0.2056 0.0
C836 C 0.16322 0.77606 0.33766 0.0
C837 C 0.18549 0.83574 0.26464 0.0
H838 H 0.16235 0.86685 0.47621 0.0
H839 H 0.23981 0.86229 0.52828 0.0
H840 H 0.24444 0.84704 0.44514 0.0
H841 H 0.26769 0.85001 0.49017 0.0
H842 H 0.22313 0.84135 0.22029 0.0
H843 H 0.14308 0.83389 0.16464 0.0
H844 H 0.12425 0.83463 0.24756 0.0
H845 H 0.10505 0.83296 0.20151 0.0
Eu846 Eu 0.82349 0.65437 0.64941 0.0
C847 C 0.89222 0.7659 0.7355 0.0
C848 C 0.9541 0.77845 0.73914 0.0
C849 C 0.9399 0.82456 0.74809 0.0
C850 C 0.91748 0.75506 0.73284 0.0
C851 C 0.90311 0.80058 0.74368 0.0
C852 C 0.9653 0.81344 0.74604 0.0
C853 C 0.84009 0.7841 0.74609 0.0
N854 N 0.85669 0.74186 0.73195 0.0
C855 C 0.83052 0.74989 0.73851 0.0
C856 C 0.87656 0.80971 0.74831 0.0
Eu857 Eu 0.84329 0.68481 0.71808 0.0
N858 N 0.90586 0.7209 0.72648 0.0
C859 C 0.92866 0.70772 0.72864 0.0
C860 C 0.97805 0.7655 0.73979 0.0
C861 C 0.96504 0.72978 0.73524 0.0
H862 H 0.80227 0.73006 0.73672 0.0
H863 H 0.98309 0.71925 0.73653 0.0
H864 H 0.99339 0.83184 0.7506 0.0
H865 H 0.81935 0.79066 0.75035 0.0
H866 H 0.91908 0.68018 0.72521 0.0
H867 H 0.68282 0.62059 0.63495 0.0
H868 H 0.00631 0.78256 0.7447 0.0
H869 H 0.86519 0.61063 0.63062 0.0
H870 H 0.74363 0.6531 0.65409 0.0
H871 H 0.85161 0.55674 0.60592 0.0
H872 H 0.94881 0.85139 0.75414 0.0
H873 H 0.66605 0.56912 0.60611 0.0
H874 H 0.68302 0.52736 0.58559 0.0
H875 H 0.8839 0.83612 0.75451 0.0
H876 H 0.7281 0.50888 0.57896 0.0
N877 N 0.76198 0.62091 0.63639 0.0
C878 C 0.73708 0.63091 0.6416 0.0
C879 C 0.69305 0.5835 0.61438 0.0
C880 C 0.71833 0.57281 0.60955 0.0
C881 C 0.70236 0.61244 0.63073 0.0
C882 C 0.75314 0.59248 0.62077 0.0
H883 H 0.79056 0.51905 0.58705 0.0
N884 N 0.81146 0.60124 0.62849 0.0
C885 C 0.83059 0.5632 0.60924 0.0
C886 C 0.77835 0.58185 0.61726 0.0
C887 C 0.83804 0.5933 0.62367 0.0
C888 C 0.79617 0.54212 0.59852 0.0
C889 C 0.76971 0.55161 0.6021 0.0
O890 O 0.86047 0.67483 0.61588 0.0
O891 O 0.86449 0.69458 0.67693 0.0
O892 O 0.8425 0.72726 0.69388 0.0
O893 O 0.80593 0.69487 0.659 0.0
O894 O 0.88368 0.67321 0.64984 0.0
O895 O 0.81186 0.67809 0.61493 0.0
O896 O 0.81794 0.68073 0.75601 0.0
O897 O 0.80159 0.64098 0.69176 0.0
O898 O 0.82786 0.61214 0.67223 0.0
O899 O 0.85758 0.64155 0.71109 0.0
O900 O 0.78238 0.66288 0.71777 0.0
O901 O 0.85626 0.66236 0.75258 0.0
C902 C 0.89325 0.69643 0.66836 0.0
C903 C 0.83721 0.67453 0.57328 0.0
C904 C 0.84252 0.69179 0.52646 0.0
C905 C 0.84093 0.69914 0.55362 0.0
C906 C 0.83984 0.65955 0.51948 0.0
C907 C 0.83403 0.64245 0.56531 0.0
C908 C 0.83521 0.63501 0.53871 0.0
C909 C 0.8214 0.72367 0.67385 0.0
C910 C 0.8406 0.68362 0.60191 0.0
C911 C 0.73521 0.53215 0.59069 0.0
C912 C 0.70961 0.54276 0.59437 0.0
C913 C 0.77218 0.6367 0.70165 0.0
C914 C 0.84612 0.67895 0.79564 0.0
C915 C 0.83186 0.65437 0.81649 0.0
C916 C 0.8363 0.66583 0.84306 0.0
C917 C 0.8564 0.70223 0.84829 0.0
C918 C 0.86667 0.71496 0.8015 0.0
C919 C 0.87195 0.72645 0.82771 0.0
C920 C 0.84492 0.61427 0.69465 0.0
C921 C 0.83475 0.66697 0.76826 0.0
H922 H 0.84342 0.72405 0.55937 0.0
H923 H 0.84109 0.65325 0.49893 0.0
H924 H 0.8317 0.62339 0.57962 0.0
H925 H 0.83307 0.61026 0.53299 0.0
H926 H 0.81587 0.62649 0.81203 0.0
H927 H 0.86007 0.71191 0.86842 0.0
H928 H 0.87765 0.73423 0.78583 0.0
H929 H 0.88743 0.75434 0.83207 0.0
Eu930 Eu 0.35571 0.16711 0.64788 0.0
C931 C 0.2379 0.10394 0.73304 0.0
C932 C 0.21281 0.14255 0.73427 0.0
C933 C 0.17439 0.08024 0.74367 0.0
C934 C 0.242 0.1369 0.72936 0.0
C935 C 0.2044 0.07551 0.74124 0.0
C936 C 0.17866 0.1138 0.7404 0.0
C937 C 0.23453 0.04242 0.74975 0.0
N938 N 0.26789 0.10089 0.73206 0.0
C939 C 0.26725 0.07173 0.74222 0.0
C940 C 0.20274 0.04401 0.74863 0.0
Eu941 Eu 0.32197 0.15047 0.7169 0.0
N942 N 0.2756 0.16418 0.72422 0.0
C943 C 0.2826 0.19806 0.72632 0.0
C944 C 0.2194 0.17714 0.73474 0.0
C945 C 0.25466 0.20504 0.73154 0.0
H946 H 0.29202 0.07093 0.74385 0.0
H947 H 0.26029 0.23195 0.73274 0.0
H948 H 0.15582 0.11755 0.74398 0.0
H949 H 0.23393 0.01884 0.75675 0.0
H950 H 0.30966 0.21987 0.72365 0.0
H951 H 0.42535 0.09159 0.63874 0.0
H952 H 0.19781 0.18265 0.73867 0.0
H953 H 0.3817 0.24538 0.61981 0.0
H954 H 0.37298 0.10023 0.64347 0.0
H955 H 0.43814 0.29809 0.60515 0.0
H956 H 0.14832 0.05863 0.74964 0.0
H957 H 0.4866 0.143 0.63258 0.0
H958 H 0.5253 0.20809 0.62432 0.0
H959 H 0.17751 0.02154 0.755 0.0
H960 H 0.52879 0.26476 0.6149 0.0
N961 N 0.40421 0.15609 0.64129 0.0
C962 C 0.39947 0.12293 0.64095 0.0
C963 C 0.46366 0.14695 0.63473 0.0
C964 C 0.46781 0.18056 0.63262 0.0
C965 C 0.42914 0.11788 0.63811 0.0
C966 C 0.43702 0.18417 0.63558 0.0
H967 H 0.49618 0.29841 0.60701 0.0
N968 N 0.40797 0.21708 0.63082 0.0
C969 C 0.43883 0.27522 0.61234 0.0
C970 C 0.43897 0.21582 0.63015 0.0
C971 C 0.40697 0.24539 0.62059 0.0
C972 C 0.47155 0.27535 0.61353 0.0
C973 C 0.47176 0.24504 0.62182 0.0
O974 O 0.33541 0.17563 0.61047 0.0
O975 O 0.31119 0.15985 0.67533 0.0
O976 O 0.28749 0.09982 0.69394 0.0
O977 O 0.32231 0.10778 0.65616 0.0
O978 O 0.32245 0.19462 0.6449 0.0
O979 O 0.33839 0.12835 0.61612 0.0
O980 O 0.34274 0.13994 0.75315 0.0
O981 O 0.36751 0.15886 0.6899 0.0
O982 O 0.39015 0.21801 0.66979 0.0
O983 O 0.35911 0.21003 0.70967 0.0
O984 O 0.35298 0.12113 0.71884 0.0
O985 O 0.33671 0.18581 0.75101 0.0
C986 C 0.30169 0.1804 0.66501 0.0
C987 C 0.34524 0.14993 0.57263 0.0
C988 C 0.33337 0.14092 0.52527 0.0
C989 C 0.32142 0.14119 0.55114 0.0
C990 C 0.36967 0.15048 0.52114 0.0
C991 C 0.38147 0.15976 0.56813 0.0
C992 C 0.3936 0.16014 0.54245 0.0
C993 C 0.2945 0.08812 0.67183 0.0
C994 C 0.33144 0.14698 0.59964 0.0
C995 C 0.50319 0.24245 0.62086 0.0
C996 C 0.50121 0.2102 0.62625 0.0
C997 C 0.37549 0.13691 0.69985 0.0
C998 C 0.32855 0.15856 0.79267 0.0
C999 C 0.3513 0.16856 0.81485 0.0
C1000 C 0.33663 0.15851 0.84039 0.0
C1001 C 0.29891 0.1388 0.84346 0.0
C1002 C 0.29095 0.13972 0.79618 0.0
C1003 C 0.27624 0.12987 0.82146 0.0
C1004 C 0.38578 0.22942 0.69291 0.0
C1005 C 0.34438 0.16638 0.76603 0.0
H1006 H 0.2934 0.13361 0.55454 0.0
H1007 H 0.37941 0.15036 0.50139 0.0
H1008 H 0.40019 0.16663 0.58445 0.0
H1009 H 0.42152 0.16751 0.53909 0.0
H1010 H 0.3804 0.18337 0.81226 0.0
H1011 H 0.28709 0.13052 0.86292 0.0
H1012 H 0.27297 0.13236 0.77946 0.0
H1013 H 0.2472 0.115 0.82398 0.0
Eu1014 Eu 0.85911 0.1698 0.71147 0.0
C1015 C 0.80501 0.23785 0.62708 0.0
C1016 C 0.7403 0.19889 0.62358 0.0
C1017 C 0.76622 0.26133 0.61465 0.0
C1018 C 0.7751 0.20459 0.62952 0.0
C1019 C 0.80098 0.26647 0.61902 0.0
C1020 C 0.73593 0.22758 0.61691 0.0
C1021 C 0.86607 0.30264 0.61846 0.0
N1022 N 0.83825 0.24191 0.63135 0.0
C1023 C 0.86873 0.27345 0.62618 0.0
C1024 C 0.83206 0.29924 0.61511 0.0
Eu1025 Eu 0.84031 0.19091 0.64423 0.0
N1026 N 0.78027 0.17735 0.63567 0.0
C1027 C 0.75248 0.14351 0.63351 0.0
C1028 C 0.71122 0.16432 0.6232 0.0
C1029 C 0.71755 0.13646 0.6274 0.0
H1030 H 0.89517 0.27638 0.6286 0.0
H1031 H 0.69552 0.10954 0.62611 0.0
H1032 H 0.70935 0.22376 0.61262 0.0
H1033 H 0.89028 0.32773 0.61502 0.0
H1034 H 0.75719 0.1218 0.63648 0.0
H1035 H 0.00623 0.24852 0.7203 0.0
H1036 H 0.6841 0.15881 0.61863 0.0
H1037 H 0.80726 0.08878 0.73619 0.0
H1038 H 0.94385 0.2377 0.71665 0.0
H1039 H 0.81178 0.03601 0.74651 0.0
H1040 H 0.76257 0.28308 0.60879 0.0
H1041 H 0.01697 0.19813 0.72182 0.0
H1042 H 0.99086 0.13255 0.72563 0.0
H1043 H 0.8301 0.32188 0.60902 0.0
H1044 H 0.93736 0.07409 0.73297 0.0
N1045 N 0.91969 0.18226 0.7161 0.0
C1046 C 0.94822 0.21571 0.71786 0.0
C1047 C 0.98957 0.19336 0.7205 0.0
C1048 C 0.95995 0.15909 0.72101 0.0
C1049 C 0.9836 0.22184 0.7198 0.0
C1050 C 0.92489 0.15445 0.71929 0.0
H1051 H 0.87034 0.03791 0.74157 0.0
N1052 N 0.86226 0.11954 0.7247 0.0
C1053 C 0.83537 0.05988 0.73984 0.0
C1054 C 0.89507 0.12188 0.72379 0.0
C1055 C 0.83288 0.08975 0.73399 0.0
C1056 C 0.86845 0.06104 0.73697 0.0
C1057 C 0.8991 0.09262 0.72957 0.0
O1058 O 0.83217 0.15688 0.75004 0.0
O1059 O 0.81987 0.17498 0.68546 0.0
O1060 O 0.84767 0.23515 0.67134 0.0
O1061 O 0.87796 0.22856 0.70711 0.0
O1062 O 0.79738 0.13731 0.714 0.0
O1063 O 0.88067 0.2072 0.74417 0.0
O1064 O 0.87492 0.20167 0.60958 0.0
O1065 O 0.87996 0.18537 0.67006 0.0
O1066 O 0.84797 0.12391 0.68526 0.0
O1067 O 0.81741 0.131 0.64952 0.0
O1068 O 0.90108 0.22634 0.64347 0.0
O1069 O 0.81917 0.16044 0.60764 0.0
C1070 C 0.78972 0.15188 0.69487 0.0
C1071 C 0.87011 0.18348 0.78716 0.0
C1072 C 0.87365 0.19363 0.83488 0.0
C1073 C 0.85875 0.19354 0.81 0.0
C1074 C 0.89958 0.18299 0.83665 0.0
C1075 C 0.89574 0.17258 0.7894 0.0
C1076 C 0.91028 0.17226 0.81405 0.0
C1077 C 0.86561 0.24657 0.69392 0.0
C1078 C 0.85644 0.18616 0.76107 0.0
C1079 C 0.93372 0.09636 0.72899 0.0
C1080 C 0.96417 0.12963 0.72477 0.0
C1081 C 0.90947 0.21077 0.66132 0.0
C1082 C 0.84694 0.18989 0.56768 0.0
C1083 C 0.85625 0.17621 0.54581 0.0
C1084 C 0.85764 0.18951 0.52018 0.0
C1085 C 0.84881 0.21608 0.51673 0.0
C1086 C 0.83752 0.21588 0.56364 0.0
C1087 C 0.83839 0.22881 0.5383 0.0
C1088 C 0.82832 0.11231 0.66351 0.0
C1089 C 0.84927 0.17838 0.59463 0.0
H1090 H 0.83901 0.20207 0.80837 0.0
H1091 H 0.91155 0.18305 0.85554 0.0
H1092 H 0.90482 0.16477 0.77208 0.0
H1093 H 0.93022 0.16404 0.81561 0.0
H1094 H 0.86347 0.15604 0.54878 0.0
H1095 H 0.84999 0.22695 0.4973 0.0
H1096 H 0.82997 0.22653 0.58003 0.0
H1097 H 0.83142 0.24913 0.53542 0.0
C1098 C 0.3727 0.88304 0.04894 0.0
C1099 C 0.34 0.88393 0.04922 0.0
C1100 C 0.3728 0.94451 0.03196 0.0
C1101 C 0.40568 0.94358 0.03133 0.0
N1102 N 0.43204 0.90623 0.03013 0.0
N1103 N 0.30717 0.91212 0.0346 0.0
C1104 C 0.40415 0.91108 0.03697 0.0
C1105 C 0.33954 0.91368 0.03874 0.0
N1106 N 0.37443 0.8562 0.06123 0.0
N1107 N 0.37345 0.97517 0.02609 0.0
H1108 H 0.28241 0.88989 0.03906 0.0
H1109 H 0.30458 0.93144 0.02457 0.0
H1110 H 0.39614 0.99678 0.01806 0.0
H1111 H 0.35197 0.97943 0.02974 0.0
H1112 H 0.39863 0.85638 0.06433 0.0
H1113 H 0.35232 0.83535 0.07054 0.0
H1114 H 0.43111 0.88208 0.03142 0.0
H1115 H 0.45385 0.92501 0.01967 0.0
C1116 C 0.14568 0.50033 0.05109 0.0
C1117 C 0.14446 0.46742 0.05086 0.0
C1118 C 0.08235 0.4394 0.03324 0.0
C1119 C 0.08347 0.47248 0.03313 0.0
N1120 N 0.12132 0.53574 0.03468 0.0
N1121 N 0.1148 0.40712 0.03643 0.0
C1122 C 0.11671 0.50334 0.03976 0.0
C1123 C 0.11368 0.43738 0.04035 0.0
N1124 N 0.17381 0.52861 0.06332 0.0
N1125 N 0.05108 0.40969 0.02625 0.0
H1126 H 0.13722 0.40483 0.04142 0.0
H1127 H 0.09495 0.38528 0.02632 0.0
H1128 H 0.02972 0.41076 0.01731 0.0
H1129 H 0.04615 0.38424 0.02954 0.0
H1130 H 0.17404 0.55204 0.0672 0.0
H1131 H 0.19564 0.52775 0.07172 0.0
H1132 H 0.14603 0.55904 0.03632 0.0
H1133 H 0.10164 0.53894 0.02552 0.0
C1134 C 0.52125 0.66082 0.05303 0.0
C1135 C 0.55671 0.69016 0.05523 0.0
C1136 C 0.58105 0.65443 0.0369 0.0
C1137 C 0.5453 0.62571 0.0331 0.0
N1138 N 0.48137 0.60683 0.03022 0.0
N1139 N 0.61971 0.71736 0.04358 0.0
C1140 C 0.51541 0.63055 0.03872 0.0
C1141 C 0.5865 0.68765 0.04561 0.0
N1142 N 0.49313 0.66095 0.06581 0.0
N1143 N 0.60995 0.65025 0.0317 0.0
H1144 H 0.6245 0.74226 0.04904 0.0
H1145 H 0.64169 0.71798 0.03419 0.0
H1146 H 0.60709 0.62774 0.02274 0.0
H1147 H 0.63634 0.66831 0.03734 0.0
H1148 H 0.46743 0.63878 0.06709 0.0
H1149 H 0.49627 0.68186 0.07754 0.0
H1150 H 0.46001 0.61187 0.03096 0.0
H1151 H 0.47474 0.58358 0.02039 0.0
C1152 C 0.89068 0.35363 0.96 0.0
C1153 C 0.88209 0.32299 0.97481 0.0
C1154 C 0.93053 0.35915 0.00657 0.0
C1155 C 0.93938 0.38997 0.99168 0.0
N1156 N 0.93177 0.41534 0.95147 0.0
N1157 N 0.89022 0.29629 0.01365 0.0
C1158 C 0.92061 0.38679 0.96758 0.0
C1159 C 0.90109 0.3257 0.99851 0.0
N1160 N 0.86875 0.35131 0.93945 0.0
N1161 N 0.95193 0.36161 0.02744 0.0
H1162 H 0.86953 0.27142 0.00792 0.0
H1163 H 0.89981 0.29657 0.03259 0.0
H1164 H 0.97391 0.38542 0.03342 0.0
H1165 H 0.94982 0.34019 0.03775 0.0
H1166 H 0.87049 0.37302 0.92979 0.0
H1167 H 0.84635 0.32768 0.93347 0.0
H1168 H 0.92313 0.41381 0.93203 0.0
H1169 H 0.95142 0.44062 0.95686 0.0
C1170 C 0.65627 0.52507 0.98058 0.0
C1171 C 0.68831 0.55861 0.97935 0.0
C1172 C 0.65188 0.58718 0.98646 0.0
C1173 C 0.61951 0.55368 0.98836 0.0
N1174 N 0.59102 0.4915 0.97912 0.0
N1175 N 0.71744 0.62062 0.98846 0.0
C1176 C 0.62184 0.52272 0.98383 0.0
C1177 C 0.68625 0.58933 0.98438 0.0
N1178 N 0.65848 0.49517 0.97815 0.0
N1179 N 0.64993 0.61727 0.98508 0.0
H1180 H 0.74299 0.62304 0.9877 0.0
H1181 H 0.71794 0.64318 0.99546 0.0
H1182 H 0.62579 0.61752 0.98564 0.0
H1183 H 0.67195 0.64184 0.98055 0.0
H1184 H 0.63771 0.47027 0.98348 0.0
H1185 H 0.68181 0.49516 0.97229 0.0
H1186 H 0.59025 0.46834 0.9735 0.0
H1187 H 0.56612 0.48979 0.97728 0.0
C1188 C 0.44052 0.1237 1.0015 0.0
C1189 C 0.45835 0.1419 0.9781 0.0
C1190 C 0.48743 0.106 0.97421 0.0
C1191 C 0.46743 0.08584 0.99648 0.0
N1192 N 0.42232 0.07293 0.02984 0.0
N1193 N 0.49677 0.14933 0.9409 0.0
C1194 C 0.44341 0.09414 0.00984 0.0
C1195 C 0.4811 0.13261 0.96407 0.0
N1196 N 0.42126 0.13505 0.01592 0.0
N1197 N 0.51416 0.10124 0.96366 0.0
H1198 H 0.49605 0.17139 0.93414 0.0
H1199 H 0.50895 0.14035 0.92761 0.0
H1200 H 0.52029 0.08245 0.97043 0.0
H1201 H 0.5327 0.11792 0.94971 0.0
H1202 H 0.41098 0.12572 0.03468 0.0
H1203 H 0.41752 0.15571 0.00985 0.0
H1204 H 0.40147 0.075 0.03863 0.0
H1205 H 0.42402 0.0514 0.03654 0.0
C1206 C 0.63417 0.1517 1.00356 0.0
C1207 C 0.6616 0.15086 0.98841 0.0
C1208 C 0.62925 0.0868 0.99478 0.0
C1209 C 0.59733 0.08688 1.00289 0.0
N1210 N 0.57052 0.12343 0.01113 0.0
N1211 N 0.68189 0.1147 0.96662 0.0
C1212 C 0.60011 0.12045 0.00653 0.0
C1213 C 0.65859 0.11764 0.98344 0.0
N1214 N 0.64043 0.18256 0.01482 0.0
N1215 N 0.63171 0.05726 0.99804 0.0
H1216 H 0.70243 0.13601 0.95655 0.0
H1217 H 0.67833 0.0904 0.96067 0.0
H1218 H 0.61188 0.03535 0.00807 0.0
H1219 H 0.65525 0.05652 0.99406 0.0
H1220 H 0.62202 0.18414 0.02743 0.0
H1221 H 0.66559 0.20556 0.01379 0.0
H1222 H 0.57093 0.14739 0.01082 0.0
H1223 H 0.5453 0.10186 0.01327 0.0
C1224 C 0.90578 0.54959 1.00512 0.0
C1225 C 0.87316 0.51903 0.99759 0.0
C1226 C 0.9061 0.4866 0.99328 0.0
C1227 C 0.93945 0.51733 0.99994 0.0
N1228 N 0.97109 0.57974 0.00858 0.0
N1229 N 0.84477 0.46204 0.97691 0.0
C1230 C 0.93925 0.54945 1.00412 0.0
C1231 C 0.87421 0.48868 0.9894 0.0
N1232 N 0.9046 0.57797 0.01505 0.0
N1233 N 0.90439 0.45499 0.9908 0.0
H1234 H 0.82143 0.46322 0.97298 0.0
H1235 H 0.8449 0.44076 0.96788 0.0
H1236 H 0.92711 0.45268 0.99183 0.0
H1237 H 0.88028 0.43098 0.98977 0.0
H1238 H 0.92663 0.59949 0.02385 0.0
H1239 H 0.88081 0.57899 0.01625 0.0
H1240 H 0.97396 0.60474 0.00792 0.0
H1241 H 0.99467 0.57945 0.01294 0.0
C1242 C 0.50339 0.37953 0.9611 0.0
C1243 C 0.49525 0.35625 0.98267 0.0
C1244 C 0.47616 0.39124 0.0086 0.0
C1245 C 0.49172 0.41843 0.98942 0.0
N1246 N 0.51829 0.4376 0.94612 0.0
N1247 N 0.47228 0.33829 0.02673 0.0
C1248 C 0.50398 0.412 0.96498 0.0
C1249 C 0.48051 0.36128 0.0062 0.0
N1250 N 0.51081 0.37056 0.93698 0.0
N1251 N 0.45678 0.39397 0.02894 0.0
H1252 H 0.47393 0.31542 0.02527 0.0
H1253 H 0.46545 0.34263 0.04555 0.0
H1254 H 0.45378 0.4159 0.03137 0.0
H1255 H 0.44156 0.37365 0.04212 0.0
H1256 H 0.51359 0.38452 0.91969 0.0
H1257 H 0.51091 0.34711 0.9338 0.0
H1258 H 0.53212 0.43654 0.92954 0.0
H1259 H 0.51823 0.46111 0.94772 0.0
C1260 C 0.14109 0.64098 0.062 0.0
C1261 C 0.15338 0.66706 0.04204 0.0
C1262 C 0.09632 0.63172 0.01808 0.0
C1263 C 0.08707 0.60272 0.03523 0.0
N1264 N 0.10263 0.57955 0.0733 0.0
N1265 N 0.14316 0.68769 1.00073 0.0
C1266 C 0.10953 0.60751 0.05754 0.0
C1267 C 0.13079 0.66284 0.02024 0.0
N1268 N 0.16006 0.6482 0.08512 0.0
N1269 N 0.072 0.62957 0.99967 0.0
H1270 H 0.16761 0.71137 1.00212 0.0
H1271 H 0.13021 0.6841 0.9826 0.0
H1272 H 0.04761 0.60659 0.9964 0.0
H1273 H 0.07505 0.65101 0.98878 0.0
H1274 H 0.15089 0.63181 0.10158 0.0
H1275 H 0.18337 0.67238 0.08865 0.0
H1276 H 0.12049 0.58043 0.08769 0.0
H1277 H 0.08057 0.5544 0.07069 0.0
C1278 C 0.36478 0.46736 0.02731 0.0
C1279 C 0.36593 0.49691 0.03977 0.0
C1280 C 0.431 0.52131 0.04882 0.0
C1281 C 0.43108 0.49479 0.0326 0.0
N1282 N 0.39586 0.4355 0.01602 0.0
N1283 N 0.39906 0.55057 0.06467 0.0
C1284 C 0.39717 0.46543 0.02511 0.0
C1285 C 0.39871 0.52316 0.05151 0.0
N1286 N 0.33329 0.4423 0.01589 0.0
N1287 N 0.46111 0.54318 0.06325 0.0
H1288 H 0.3755 0.55119 0.06893 0.0
H1289 H 0.42252 0.57314 0.07068 0.0
H1290 H 0.48522 0.54289 0.0619 0.0
H1291 H 0.46173 0.56006 0.07797 0.0
H1292 H 0.33134 0.42224 1.00378 0.0
H1293 H 0.30911 0.44256 0.01738 0.0
H1294 H 0.37198 0.41166 0.01338 0.0
H1295 H 0.41904 0.43413 0.01221 0.0
C1296 C 0.51426 0.88726 0.06595 0.0
C1297 C 0.52885 0.87388 0.04719 0.0
C1298 C 0.55234 0.9286 0.02187 0.0
C1299 C 0.53138 0.93861 0.0375 0.0
N1300 N 0.48874 0.92465 0.07342 0.0
N1301 N 0.56117 0.88106 0.00658 0.0
C1302 C 0.51194 0.91763 0.05967 0.0
C1303 C 0.54823 0.89458 0.02513 0.0
N1304 N 0.50188 0.87034 0.08955 0.0
N1305 N 0.57662 0.95189 1.00423 0.0
H1306 H 0.55968 0.85674 0.00879 0.0
H1307 H 0.57144 0.89303 0.9884 0.0
H1308 H 0.58022 0.97697 1.00164 0.0
H1309 H 0.59515 0.94752 0.99399 0.0
H1310 H 0.49402 0.88057 0.10512 0.0
H1311 H 0.50305 0.84783 0.09445 0.0
H1312 H 0.47098 0.90786 0.08774 0.0
H1313 H 0.48411 0.94512 0.06878 0.0
C1314 C 0.01085 0.20476 0.36284 0.0
C1315 C 0.99777 0.19792 0.38928 0.0
C1316 C 0.05535 0.24858 0.40359 0.0
C1317 C 0.06693 0.25743 0.37683 0.0
N1318 N 0.06607 0.22523 0.33847 0.0
N1319 N 0.01683 0.20339 0.43468 0.0
C1320 C 0.04777 0.23044 0.35809 0.0
C1321 C 0.0226 0.21718 0.40977 0.0
N1322 N 0.98858 0.18744 0.34211 0.0
N1323 N 0.0781 0.26759 0.42336 0.0
H1324 H 0.99618 0.17794 0.4388 0.0
H1325 H 0.03485 0.21481 0.45035 0.0
H1326 H 0.10546 0.27842 0.42009 0.0
H1327 H 0.06999 0.26808 0.44272 0.0
H1328 H 0.99765 0.1923 0.32263 0.0
H1329 H 0.96081 0.17077 0.34426 0.0
H1330 H 0.05395 0.20311 0.32619 0.0
H1331 H 0.09404 0.24069 0.33716 0.0
C1332 C 0.80438 0.82657 0.3887 0.0
C1333 C 0.80593 0.79535 0.38481 0.0
C1334 C 0.74468 0.76659 0.36533 0.0
C1335 C 0.74216 0.79719 0.37077 0.0
N1336 N 0.76734 0.8536 0.39298 0.0
N1337 N 0.78082 0.73772 0.36556 0.0
C1338 C 0.77157 0.82666 0.38357 0.0
C1339 C 0.7769 0.76589 0.37204 0.0
N1340 N 0.83464 0.85652 0.39698 0.0
N1341 N 0.71555 0.73769 0.3545 0.0
H1342 H 0.80391 0.73647 0.37028 0.0
H1343 H 0.7626 0.71649 0.35411 0.0
H1344 H 0.69269 0.73803 0.34771 0.0
H1345 H 0.71327 0.71308 0.35258 0.0
H1346 H 0.83695 0.88129 0.39683 0.0
H1347 H 0.85875 0.85725 0.40172 0.0
H1348 H 0.78601 0.87353 0.40522 0.0
H1349 H 0.7438 0.85471 0.39073 0.0
C1350 C 0.25126 0.01089 0.37894 0.0
C1351 C 0.2212 0.01428 0.38623 0.0
C1352 C 0.18028 0.95461 0.37002 0.0
C1353 C 0.21007 0.94892 0.36665 0.0
N1354 N 0.27452 0.97202 0.36999 0.0
N1355 N 0.1571 0.986 0.39483 0.0
C1356 C 0.24572 0.97713 0.37193 0.0
C1357 C 0.18571 0.98522 0.38346 0.0
N1358 N 0.2849 0.04012 0.37752 0.0
N1359 N 0.14672 0.93144 0.36035 0.0
H1360 H 0.15993 0.00715 0.40612 0.0
H1361 H 0.13119 0.96406 0.39559 0.0
H1362 H 0.13992 0.90774 0.35121 0.0
H1363 H 0.12594 0.93731 0.35955 0.0
H1364 H 0.30723 0.03985 0.36959 0.0
H1365 H 0.28984 0.06539 0.38188 0.0
H1366 H 0.30031 0.98997 0.37688 0.0
H1367 H 0.27203 0.94886 0.36277 0.0
C1368 C 0.54298 0.67363 0.29931 0.0
C1369 C 0.5369 0.64269 0.3126 0.0
C1370 C 0.58646 0.6787 0.34356 0.0
C1371 C 0.59165 0.70984 0.33092 0.0
N1372 N 0.57072 0.73705 0.29918 0.0
N1373 N 0.54846 0.61541 0.3496 0.0
C1374 C 0.56888 0.70732 0.30938 0.0
C1375 C 0.55728 0.64517 0.33548 0.0
N1376 N 0.52423 0.67079 0.27664 0.0
N1377 N 0.61063 0.68099 0.36227 0.0
H1378 H 0.52787 0.5905 0.34384 0.0
H1379 H 0.55946 0.61562 0.368 0.0
H1380 H 0.63261 0.70486 0.36831 0.0
H1381 H 0.6108 0.65926 0.37029 0.0
H1382 H 0.53122 0.69153 0.26358 0.0
H1383 H 0.50249 0.64708 0.27007 0.0
H1384 H 0.55173 0.73671 0.28613 0.0
H1385 H 0.58934 0.76248 0.30522 0.0
C1386 C 0.35003 0.90838 0.32396 0.0
C1387 C 0.35135 0.87862 0.31463 0.0
C1388 C 0.28675 0.84231 0.3256 0.0
C1389 C 0.28368 0.87298 0.32959 0.0
N1390 N 0.31448 0.9368 0.32622 0.0
N1391 N 0.31769 0.81736 0.30175 0.0
C1392 C 0.31597 0.90648 0.32703 0.0
C1393 C 0.31889 0.8455 0.31433 0.0
N1394 N 0.38136 0.93867 0.3299 0.0
N1395 N 0.25936 0.80995 0.33242 0.0
H1396 H 0.33979 0.81864 0.29204 0.0
H1397 H 0.29365 0.79378 0.29851 0.0
H1398 H 0.23638 0.8066 0.34154 0.0
H1399 H 0.26165 0.78739 0.3322 0.0
H1400 H 0.38172 0.96016 0.33903 0.0
H1401 H 0.40668 0.94068 0.32843 0.0
H1402 H 0.33691 0.96124 0.32191 0.0
H1403 H 0.2905 0.93731 0.32693 0.0
C1404 C 0.09085 0.44174 0.33745 0.0
C1405 C 0.11094 0.46299 0.31573 0.0
C1406 C 0.14637 0.43327 0.31384 0.0
C1407 C 0.12452 0.41009 0.33424 0.0
N1408 N 0.07421 0.38969 0.36414 0.0
N1409 N 0.15579 0.47774 0.28167 0.0
C1410 C 0.09636 0.41374 0.34584 0.0
C1411 C 0.13813 0.45839 0.30354 0.0
N1412 N 0.06702 0.44881 0.35022 0.0
N1413 N 0.17603 0.43226 0.30493 0.0
H1414 H 0.15315 0.49868 0.27474 0.0
H1415 H 0.17158 0.47188 0.26937 0.0
H1416 H 0.18249 0.41345 0.31088 0.0
H1417 H 0.19595 0.45156 0.29303 0.0
H1418 H 0.05409 0.43682 0.36778 0.0
H1419 H 0.06177 0.46848 0.34401 0.0
H1420 H 0.05089 0.38848 0.37148 0.0
H1421 H 0.078 0.36932 0.37091 0.0
C1422 C 0.31035 0.43351 0.30343 0.0
C1423 C 0.31865 0.46531 0.31623 0.0
C1424 C 0.25881 0.43577 0.33734 0.0
C1425 C 0.24947 0.40279 0.325 0.0
N1426 N 0.26366 0.37825 0.28644 0.0
N1427 N 0.30573 0.49385 0.35131 0.0
C1428 C 0.27483 0.40343 0.30576 0.0
C1429 C 0.29439 0.46523 0.33512 0.0
N1430 N 0.33597 0.43215 0.28814 0.0
N1431 N 0.23311 0.44102 0.3487 0.0
H1432 H 0.33202 0.51532 0.35065 0.0
H1433 H 0.29052 0.49479 0.36703 0.0
H1434 H 0.20673 0.42157 0.35083 0.0
H1435 H 0.2372 0.46577 0.35381 0.0
H1436 H 0.33392 0.40865 0.28173 0.0
H1437 H 0.36095 0.45405 0.28394 0.0
H1438 H 0.28037 0.37766 0.27176 0.0
H1439 H 0.23691 0.3628 0.28078 0.0
C1440 C 0.56195 0.86303 0.31455 0.0
C1441 C 0.52811 0.83355 0.32154 0.0
C1442 C 0.56014 0.805 0.33989 0.0
C1443 C 0.5945 0.83514 0.33422 0.0
N1444 N 0.62541 0.89773 0.32584 0.0
N1445 N 0.49718 0.78342 0.35025 0.0
C1446 C 0.59446 0.86575 0.32473 0.0
C1447 C 0.52807 0.807 0.33744 0.0
N1448 N 0.5637 0.88743 0.29702 0.0
N1449 N 0.55716 0.77377 0.34653 0.0
H1450 H 0.47378 0.78529 0.34994 0.0
H1451 H 0.4961 0.76462 0.36335 0.0
H1452 H 0.57943 0.77143 0.35007 0.0
H1453 H 0.5326 0.75015 0.34728 0.0
H1454 H 0.58812 0.90746 0.28952 0.0
H1455 H 0.54098 0.88571 0.28799 0.0
H1456 H 0.6262 0.92118 0.32094 0.0
H1457 H 0.64881 0.9011 0.33496 0.0
C1458 C 0.14249 0.682 0.34385 0.0
C1459 C 0.16016 0.67905 0.32113 0.0
C1460 C 0.1755 0.73812 0.30702 0.0
C1461 C 0.15728 0.74108 0.32956 0.0
N1462 N 0.11587 0.71277 0.36557 0.0
N1463 N 0.18407 0.69931 0.27757 0.0
C1464 C 0.1382 0.7119 0.34669 0.0
C1465 C 0.17324 0.70541 0.30144 0.0
N1466 N 0.13151 0.65721 0.36334 0.0
N1467 N 0.19762 0.76712 0.29225 0.0
H1468 H 0.18297 0.67558 0.27306 0.0
H1469 H 0.19062 0.71627 0.26151 0.0
H1470 H 0.20225 0.79223 0.29651 0.0
H1471 H 0.21458 0.76708 0.27749 0.0
H1472 H 0.12262 0.6602 0.38181 0.0
H1473 H 0.13345 0.63452 0.36168 0.0
H1474 H 0.09851 0.69107 0.37698 0.0
H1475 H 0.11265 0.73455 0.36834 0.0
C1476 C 0.79017 0.97994 0.34924 0.0
C1477 C 0.80595 0.98604 0.3748 0.0
C1478 C 0.74878 0.93813 0.39237 0.0
C1479 C 0.73621 0.92723 0.36615 0.0
N1480 N 0.73615 0.94812 0.32225 0.0
N1481 N 0.80035 0.97161 0.42115 0.0
C1482 C 0.75424 0.95146 0.3453 0.0
C1483 C 0.78506 0.96566 0.39659 0.0
N1484 N 0.81025 1.00029 0.32852 0.0
N1485 N 0.72531 0.92437 0.41304 0.0
H1486 H 0.8263 0.99236 0.4252 0.0
H1487 H 0.78812 0.95474 0.43708 0.0
H1488 H 0.69752 0.90902 0.41009 0.0
H1489 H 0.73229 0.93269 0.43253 0.0
H1490 H 0.80231 0.99455 0.30884 0.0
H1491 H 0.83595 0.02225 0.33095 0.0
H1492 H 0.74643 0.96618 0.30684 0.0
H1493 H 0.70891 0.92932 0.31991 0.0
C1494 C 0.02602 0.79131 0.35894 0.0
C1495 C 0.0265 0.8213 0.36997 0.0
C1496 C 0.09139 0.84675 0.38029 0.0
C1497 C 0.09214 0.81934 0.36572 0.0
N1498 N 0.0575 0.75889 0.35141 0.0
N1499 N 0.05898 0.87694 0.39259 0.0
C1500 C 0.05852 0.78945 0.35839 0.0
C1501 C 0.05897 0.84858 0.38135 0.0
N1502 N 0.99503 0.76557 0.34741 0.0
N1503 N 0.12081 0.86941 0.39503 0.0
H1504 H 0.03534 0.87786 0.39574 0.0
H1505 H 0.08235 0.90005 0.39792 0.0
H1506 H 0.14507 0.86931 0.39483 0.0
H1507 H 0.1206 0.88683 0.40891 0.0
H1508 H 0.99378 0.74514 0.33612 0.0
H1509 H 0.97071 0.76568 0.34785 0.0
H1510 H 0.03366 0.73493 0.34906 0.0
H1511 H 0.08075 0.75712 0.34931 0.0
C1512 C 0.2026 0.21377 0.3491 0.0
C1513 C 0.18185 0.18968 0.36927 0.0
C1514 C 0.15882 0.22798 0.38334 0.0
C1515 C 0.17984 0.25251 0.36337 0.0
N1516 N 0.22811 0.27302 0.33158 0.0
N1517 N 0.14856 0.17794 0.40991 0.0
C1518 C 0.20384 0.24675 0.3476 0.0
C1519 C 0.16298 0.19839 0.38795 0.0
N1520 N 0.21986 0.20451 0.33082 0.0
N1521 N 0.13279 0.23131 0.3965 0.0
H1522 H 0.15094 0.15581 0.41367 0.0
H1523 H 0.13747 0.18484 0.42553 0.0
H1524 H 0.12786 0.25186 0.39312 0.0
H1525 H 0.11379 0.212 0.40892 0.0
H1526 H 0.23183 0.21902 0.3138 0.0
H1527 H 0.22057 0.18113 0.33204 0.0
H1528 H 0.24845 0.27166 0.32129 0.0
H1529 H 0.22997 0.29761 0.3305 0.0
C1530 C 0.69142 0.56477 0.74236 0.0
C1531 C 0.66734 0.54398 0.72203 0.0
C1532 C 0.71876 0.57307 0.69152 0.0
C1533 C 0.73862 0.60117 0.70945 0.0
N1534 N 0.74521 0.61645 0.75565 0.0
N1535 N 0.65927 0.53161 0.6751 0.0
C1536 C 0.72453 0.59547 0.73579 0.0
C1537 C 0.68124 0.54921 0.6959 0.0
N1538 N 0.68504 0.55298 0.76788 0.0
N1539 N 0.73642 0.56476 0.67334 0.0
H1540 H 0.63129 0.51609 0.67695 0.0
H1541 H 0.66894 0.53535 0.65578 0.0
H1542 H 0.7644 0.57819 0.67274 0.0
H1543 H 0.72339 0.54179 0.66201 0.0
H1544 H 0.70283 0.56572 0.78348 0.0
H1545 H 0.66459 0.52779 0.77279 0.0
H1546 H 0.73467 0.61959 0.77339 0.0
H1547 H 0.77197 0.62306 0.7557 0.0
C1548 C 0.44122 0.1019 0.70735 0.0
C1549 C 0.47248 0.13237 0.71685 0.0
C1550 C 0.44468 0.16791 0.70512 0.0
C1551 C 0.41102 0.13685 0.6998 0.0
N1552 N 0.37792 0.0737 0.69515 0.0
N1553 N 0.50261 0.19416 0.72754 0.0
C1554 C 0.40965 0.10369 0.70079 0.0
C1555 C 0.47391 0.16534 0.7163 0.0
N1556 N 0.44209 0.07145 0.7038 0.0
N1557 N 0.44945 0.20001 0.69876 0.0
H1558 H 0.52464 0.19357 0.73583 0.0
H1559 H 0.50312 0.21786 0.73075 0.0
H1560 H 0.42968 0.20256 0.68917 0.0
H1561 H 0.47429 0.2233 0.69961 0.0
H1562 H 0.42169 0.04923 0.69441 0.0
H1563 H 0.46478 0.06936 0.70822 0.0
H1564 H 0.37309 0.04844 0.69918 0.0
H1565 H 0.35613 0.07438 0.68662 0.0
C1566 C 0.88781 0.32192 0.7428 0.0
C1567 C 0.87776 0.34359 0.7285 0.0
C1568 C 0.85191 0.29717 0.69532 0.0
C1569 C 0.87047 0.28044 0.70577 0.0
N1570 N 0.91834 0.2893 0.7365 0.0
N1571 N 0.86222 0.35466 0.68462 0.0
C1572 C 0.89211 0.29628 0.72874 0.0
C1573 C 0.86377 0.33236 0.7026 0.0
N1574 N 0.89166 0.32412 0.7696 0.0
N1575 N 0.82078 0.27933 0.68113 0.0
H1576 H 0.8745 0.38173 0.68785 0.0
H1577 H 0.85266 0.34639 0.66543 0.0
H1578 H 0.80595 0.25197 0.68032 0.0
H1579 H 0.80671 0.29162 0.6745 0.0
H1580 H 0.8974 0.30715 0.78026 0.0
H1581 H 0.88434 0.33926 0.78114 0.0
H1582 H 0.93459 0.30138 0.75301 0.0
H1583 H 0.92813 0.27729 0.72397 0.0
C1584 C 0.21594 0.01403 0.63353 0.0
C1585 C 0.21231 0.98368 0.64629 0.0
C1586 C 0.2619 0.0215 0.67656 0.0
C1587 C 0.26731 0.05186 0.66252 0.0
N1588 N 0.25288 0.07616 0.62459 0.0
N1589 N 0.23461 0.95772 0.67743 0.0
C1590 C 0.24551 0.04781 0.64 0.0
C1591 C 0.23606 0.9872 0.66716 0.0
N1592 N 0.18996 0.01081 0.61608 0.0
N1593 N 0.28138 0.02539 0.69894 0.0
H1594 H 0.21583 0.93233 0.67115 0.0
H1595 H 0.25356 0.95834 0.69067 0.0
H1596 H 0.30186 0.04977 0.70547 0.0
H1597 H 0.27588 0.00492 0.71191 0.0
H1598 H 0.18862 0.03221 0.60859 0.0
H1599 H 0.16762 0.98667 0.61092 0.0
H1600 H 0.24143 0.07397 0.606 0.0
H1601 H 0.27204 0.10189 0.62949 0.0
C1602 C 0.98275 0.18634 0.64623 0.0
C1603 C 0.01452 0.22005 0.64706 0.0
C1604 C 0.97779 0.24632 0.66101 0.0
C1605 C 0.94564 0.21271 0.65901 0.0
N1606 N 0.91785 0.15328 0.64212 0.0
N1607 N 0.04367 0.28096 0.6598 0.0
C1608 C 0.94821 0.1832 0.65012 0.0
C1609 C 0.01235 0.24979 0.65559 0.0
N1610 N 0.98532 0.15705 0.64119 0.0
N1611 N 0.97505 0.27512 0.66773 0.0
H1612 H 0.06919 0.28408 0.65647 0.0
H1613 H 0.04496 0.30312 0.66834 0.0
H1614 H 0.95089 0.27337 0.67382 0.0
H1615 H 0.99618 0.30099 0.66654 0.0
H1616 H 0.96419 0.13152 0.64453 0.0
H1617 H 0.00916 0.15797 0.63544 0.0
H1618 H 0.91807 0.13213 0.63297 0.0
H1619 H 0.89271 0.15131 0.6412 0.0
C1620 C 0.83724 0.81133 0.64785 0.0
C1621 C 0.80171 0.80604 0.64748 0.0
C1622 C 0.7789 0.74724 0.66679 0.0
C1623 C 0.81483 0.75328 0.66775 0.0
N1624 N 0.87863 0.79758 0.66945 0.0
N1625 N 0.73974 0.77228 0.66178 0.0
C1626 C 0.84417 0.78728 0.66161 0.0
C1627 C 0.7727 0.77482 0.65838 0.0
N1628 N 0.86431 0.83835 0.63391 0.0
N1629 N 0.75088 0.71555 0.67479 0.0
H1630 H 0.73465 0.79234 0.65647 0.0
H1631 H 0.71831 0.75173 0.6718 0.0
H1632 H 0.7549 0.69697 0.68469 0.0
H1633 H 0.72382 0.70746 0.67128 0.0
H1634 H 0.88975 0.84095 0.63144 0.0
H1635 H 0.86035 0.85583 0.62242 0.0
H1636 H 0.89965 0.82358 0.66799 0.0
H1637 H 0.8859 0.78176 0.67992 0.0
C1638 C 0.96264 0.79215 0.65045 0.0
C1639 C 0.99441 0.7955 0.66211 0.0
C1640 C 0.96167 0.73201 0.67165 0.0
C1641 C 0.92846 0.73037 0.66529 0.0
N1642 N 0.90008 0.75469 0.63791 0.0
N1643 N 0.02494 0.76876 0.68357 0.0
C1644 C 0.92968 0.75931 0.6516 0.0
C1645 C 0.99437 0.7653 0.67212 0.0
N1646 N 0.9639 0.821 0.63905 0.0
N1647 N 0.96213 0.70165 0.67662 0.0
H1648 H 0.04936 0.79253 0.68401 0.0
H1649 H 0.02557 0.74866 0.69403 0.0
H1650 H 0.93871 0.677 0.67698 0.0
H1651 H 0.98582 0.7006 0.67855 0.0
H1652 H 0.94123 0.82233 0.63337 0.0
H1653 H 0.9881 0.84442 0.63576 0.0
H1654 H 0.90047 0.77251 0.62419 0.0
H1655 H 0.87508 0.73197 0.63905 0.0
C1656 C 0.23331 0.21358 0.67046 0.0
C1657 C 0.20027 0.18258 0.66439 0.0
C1658 C 0.23231 0.14924 0.66264 0.0
C1659 C 0.26618 0.18038 0.66727 0.0
N1660 N 0.29881 0.24375 0.67127 0.0
N1661 N 0.17104 0.12406 0.64625 0.0
C1662 C 0.26658 0.2131 0.66927 0.0
C1663 C 0.20079 0.15149 0.65779 0.0
N1664 N 0.23287 0.24287 0.6791 0.0
N1665 N 0.22954 0.11706 0.6635 0.0
H1666 H 0.14787 0.12526 0.64168 0.0
H1667 H 0.17092 0.10198 0.6385 0.0
H1668 H 0.25153 0.11412 0.66703 0.0
H1669 H 0.20497 0.09343 0.66351 0.0
H1670 H 0.25545 0.26492 0.68685 0.0
H1671 H 0.20923 0.24416 0.6804 0.0
H1672 H 0.30144 0.26855 0.66931 0.0
H1673 H 0.32305 0.24412 0.67424 0.0
C1674 C 0.80548 0.01796 0.67094 0.0
C1675 C 0.82684 0.01616 0.65027 0.0
C1676 C 0.83533 0.07149 0.63176 0.0
C1677 C 0.81923 0.07619 0.65481 0.0
N1678 N 0.77802 0.04921 0.69086 0.0
N1679 N 0.85991 0.03875 0.60977 0.0
C1680 C 0.8007 0.04773 0.67263 0.0
C1681 C 0.8404 0.04185 0.62996 0.0
N1682 N 0.79194 0.99237 0.68993 0.0
N1683 N 0.8453 0.09507 0.61155 0.0
H1684 H 0.86237 0.01644 0.60721 0.0
H1685 H 0.87477 0.05851 0.59614 0.0
H1686 H 0.84154 0.11661 0.61227 0.0
H1687 H 0.85443 0.09196 0.59324 0.0
H1688 H 0.77965 0.99383 0.70724 0.0
H1689 H 0.79417 0.9698 0.68885 0.0
H1690 H 0.76054 0.02822 0.70278 0.0
H1691 H 0.77537 0.07136 0.69297 0.0
C1692 C 0.46774 0.30045 0.73082 0.0
C1693 C 0.48302 0.32692 0.7112 0.0
C1694 C 0.42795 0.29417 0.68459 0.0
C1695 C 0.41588 0.26466 0.70165 0.0
N1696 N 0.42798 0.23873 0.73982 0.0
N1697 N 0.47868 0.34849 0.6684 0.0
C1698 C 0.43633 0.26769 0.72479 0.0
C1699 C 0.46318 0.32392 0.68795 0.0
N1700 N 0.48369 0.3065 0.75514 0.0
N1701 N 0.40554 0.29395 0.66532 0.0
H1702 H 0.50405 0.37101 0.67037 0.0
H1703 H 0.46742 0.34537 0.64963 0.0
H1704 H 0.37992 0.27242 0.66211 0.0
H1705 H 0.41119 0.31595 0.65402 0.0
H1706 H 0.47195 0.2896 0.77113 0.0
H1707 H 0.50685 0.33023 0.76 0.0
H1708 H 0.44447 0.23881 0.75501 0.0
H1709 H 0.40686 0.2136 0.7355 0.0
C1710 C 0.72684 0.18869 0.71024 0.0
C1711 C 0.69308 0.16136 0.70047 0.0
C1712 C 0.72173 0.12605 0.69 0.0
C1713 C 0.75626 0.15505 0.69672 0.0
N1714 N 0.78805 0.20692 0.72393 0.0
N1715 N 0.65852 0.10459 0.67965 0.0
C1716 C 0.7579 0.18459 0.70972 0.0
C1717 C 0.69037 0.12983 0.69056 0.0
N1718 N 0.72933 0.219 0.71978 0.0
N1719 N 0.71885 0.09468 0.68307 0.0
H1720 H 0.63507 0.10629 0.67953 0.0
H1721 H 0.65571 0.083 0.66908 0.0
H1722 H 0.74134 0.09199 0.67987 0.0
H1723 H 0.69439 0.07114 0.68151 0.0
H1724 H 0.75379 0.24204 0.72315 0.0
H1725 H 0.70675 0.22164 0.72325 0.0
H1726 H 0.78998 0.22703 0.73598 0.0
H1727 H 0.80997 0.20301 0.72617 0.0
C1728 C 0.85328 0.53213 0.69449 0.0
C1729 C 0.83198 0.514 0.71683 0.0
C1730 C 0.82124 0.56286 0.72574 0.0
C1731 C 0.84379 0.5817 0.70406 0.0
N1732 N 0.88901 0.58845 0.67266 0.0
N1733 N 0.80436 0.51626 0.75777 0.0
C1734 C 0.86224 0.5676 0.68991 0.0
C1735 C 0.81883 0.5308 0.73379 0.0
N1736 N 0.86354 0.51507 0.67696 0.0
N1737 N 0.8004 0.57437 0.73772 0.0
H1738 H 0.80263 0.49298 0.76446 0.0
H1739 H 0.79754 0.52908 0.77203 0.0
H1740 H 0.80093 0.59747 0.73236 0.0
H1741 H 0.7803 0.55946 0.75143 0.0
H1742 H 0.87558 0.52578 0.65885 0.0
H1743 H 0.85745 0.4891 0.67956 0.0
H1744 H 0.90564 0.58068 0.66339 0.0
H1745 H 0.89687 0.61486 0.66978 0.0
C1746 C 0.42345 0.92605 0.22079 0.0
C1747 C 0.44575 0.93328 0.24349 0.0
C1748 C 0.49647 0.9804 0.21903 0.0
C1749 C 0.47281 0.97671 0.19798 0.0
N1750 N 0.41166 0.94968 0.18126 0.0
N1751 N 0.50202 0.97205 0.2657 0.0
C1752 C 0.43567 0.95047 0.19947 0.0
C1753 C 0.48192 0.96177 0.24302 0.0
N1754 N 0.39116 0.89527 0.21908 0.0
N1755 N 0.53302 1.00094 0.21588 0.0
H1756 H 0.49203 0.9599 0.2839 0.0
H1757 H 0.52725 0.99483 0.26698 0.0
H1758 H 0.54479 0.01405 0.19828 0.0
H1759 H 0.55163 0.00189 0.22965 0.0
H1760 H 0.37557 0.88721 0.20191 0.0
H1761 H 0.38177 0.87607 0.23378 0.0
H1762 H 0.38378 0.9334 0.18307 0.0
H1763 H 0.41919 0.96758 0.16573 0.0
C1764 C 0.03677 0.5181 0.24264 0.0
C1765 C 0.06311 0.50758 0.24485 0.0
C1766 C 0.04676 0.48111 0.20068 0.0
C1767 C 0.02346 0.49512 0.19731 0.0
N1768 N 1.003 0.53419 0.21301 0.0
N1769 N 0.09968 0.48742 0.22289 0.0
C1770 C 0.02043 0.51579 0.2177 0.0
C1771 C 0.07004 0.4915 0.22296 0.0
N1772 N 0.02633 0.52908 0.26448 0.0
N1773 N 0.04577 0.45683 0.18323 0.0
H1774 H 0.1185 0.49637 0.23821 0.0
H1775 H 0.10771 0.47883 0.20638 0.0
H1776 H 0.02821 0.44748 0.16711 0.0
H1777 H 0.05972 0.44333 0.18635 0.0
H1778 H 1.00468 0.53369 0.26439 0.0
H1779 H 0.03688 0.53021 0.28328 0.0
H1780 H 1.00306 0.5523 0.22638 0.0
H1781 H 0.99172 0.53416 0.19471 0.0
C1782 C 0.508 0.52359 0.23713 0.0
C1783 C 0.50832 0.55594 0.23981 0.0
C1784 C 0.53588 0.57399 0.19587 0.0
C1785 C 0.53262 0.54044 0.19218 0.0
N1786 N 0.50863 0.48066 0.20722 0.0
N1787 N 0.51366 0.6077 0.21879 0.0
C1788 C 0.51665 0.51443 0.21224 0.0
C1789 C 0.51966 0.57992 0.2183 0.0
N1790 N 0.50055 0.50211 0.25855 0.0
N1791 N 0.55568 0.60072 0.17854 0.0
H1792 H 0.5003 0.612 0.2343 0.0
H1793 H 0.51823 0.62406 0.2026 0.0
H1794 H 0.56876 0.59784 0.16216 0.0
H1795 H 0.56206 0.62665 0.18188 0.0
H1796 H 0.50367 0.48005 0.25854 0.0
H1797 H 0.49417 0.50798 0.27707 0.0
H1798 H 0.49371 0.4598 0.22008 0.0
H1799 H 0.51389 0.47281 0.18908 0.0
C1800 C 0.97572 0.45888 0.78797 0.0
C1801 C 0.93838 0.44731 0.79089 0.0
C1802 C 0.9509 0.47389 0.83502 0.0
C1803 C 0.98676 0.47998 0.83384 0.0
N1804 N 0.03004 0.46954 0.81061 0.0
N1805 N 0.88947 0.43527 0.82108 0.0
C1806 C 0.99836 0.47003 0.81068 0.0
C1807 C 0.9256 0.45235 0.81554 0.0
N1808 N 0.9899 0.46026 0.76353 0.0
N1809 N 0.94108 0.48953 0.8541 0.0
H1810 H 0.86988 0.41694 0.80834 0.0
H1811 H 0.87949 0.43616 0.8397 0.0
H1812 H 0.95936 0.50741 0.86776 0.0
H1813 H 0.91588 0.48788 0.85425 0.0
H1814 H 0.01758 0.47133 0.76028 0.0
H1815 H 0.97453 0.45399 0.74626 0.0
H1816 H 0.03789 0.45957 0.79484 0.0
H1817 H 0.04635 0.47524 0.82732 0.0
C1818 C 0.58137 0.50946 0.80731 0.0
C1819 C 0.56166 0.50008 0.78326 0.0
C1820 C 0.51203 0.50209 0.80597 0.0
C1821 C 0.53455 0.51747 0.82853 0.0
N1822 N 0.59445 0.54308 0.84763 0.0
N1823 N 0.50924 0.49085 0.75878 0.0
C1824 C 0.57034 0.52323 0.82837 0.0
C1825 C 0.52719 0.49732 0.7823 0.0
N1826 N 0.60963 0.50363 0.81055 0.0
N1827 N 0.47591 0.4907 0.80745 0.0
H1828 H 0.51943 0.48692 0.74117 0.0
H1829 H 0.48575 0.49219 0.75641 0.0
H1830 H 0.46352 0.4923 0.82474 0.0
H1831 H 0.45769 0.4764 0.79244 0.0
H1832 H 0.62318 0.50761 0.82848 0.0
H1833 H 0.61613 0.49038 0.79643 0.0
H1834 H 0.62172 0.55045 0.84685 0.0
H1835 H 0.5883 0.55542 0.86271 0.0
C1836 C 0.49625 0.05599 0.79011 0.0
C1837 C 0.5252 0.09126 0.7878 0.0
C1838 C 0.5454 0.08682 0.83255 0.0
C1839 C 0.5142 0.05299 0.83571 0.0
N1840 N 0.45481 0.01045 0.81976 0.0
N1841 N 0.5722 0.14291 0.80977 0.0
C1842 C 0.48799 0.03925 0.81519 0.0
C1843 C 0.5483 0.10752 0.80991 0.0
N1844 N 0.47764 0.03765 0.76817 0.0
N1845 N 0.57308 0.09867 0.85038 0.0
H1846 H 0.57428 0.15914 0.79402 0.0
H1847 H 0.5872 0.15662 0.82632 0.0
H1848 H 0.57252 0.08414 0.86682 0.0
H1849 H 0.59792 0.12149 0.84749 0.0
H1850 H 0.45852 0.01088 0.76858 0.0
H1851 H 0.48418 0.048 0.74913 0.0
H1852 H 0.43365 1.00129 0.80616 0.0
H1853 H 0.44724 0.99824 0.83818 0.0
C1854 C 0.14934 0.28799 0.57743 0.0
C1855 C 0.11264 0.26044 0.57822 0.0
C1856 C 0.10437 0.27594 0.533 0.0
C1857 C 0.14184 0.30145 0.53153 0.0
N1858 N 0.20145 0.32302 0.54981 0.0
N1859 N 0.05867 0.22192 0.55346 0.0
C1860 C 0.16478 0.30454 0.55293 0.0
C1861 C 0.09123 0.25239 0.55493 0.0
N1862 N 0.16906 0.30011 0.6002 0.0
N1863 N 0.08081 0.27528 0.51446 0.0
H1864 H 0.04885 0.20341 0.56867 0.0
H1865 H 0.04347 0.21333 0.53612 0.0
H1866 H 0.08874 0.29291 0.49874 0.0
H1867 H 0.05286 0.25946 0.5162 0.0
H1868 H 0.19477 0.32237 0.60075 0.0
H1869 H 0.15843 0.29058 0.61887 0.0
H1870 H 0.21929 0.32353 0.56409 0.0
H1871 H 0.2137 0.33445 0.53186 0.0
C1872 C 0.75664 0.83183 0.55363 0.0
C1873 C 0.74929 0.84632 0.57629 0.0
C1874 C 0.70048 0.84791 0.5522 0.0
C1875 C 0.70398 0.82816 0.53135 0.0
N1876 N 0.73165 0.79557 0.51467 0.0
N1877 N 0.70914 0.86164 0.5988 0.0
C1878 C 0.73113 0.81858 0.53265 0.0
C1879 C 0.71984 0.85269 0.57605 0.0
N1880 N 0.7884 0.83157 0.55179 0.0
N1881 N 0.67937 0.86288 0.54901 0.0
H1882 H 0.72153 0.86399 0.61704 0.0
H1883 H 0.68561 0.86313 0.60007 0.0
H1884 H 0.66571 0.86101 0.53145 0.0
H1885 H 0.67861 0.88024 0.56273 0.0
H1886 H 0.79648 0.82428 0.53462 0.0
H1887 H 0.80836 0.84217 0.56636 0.0
H1888 H 0.74871 0.78511 0.51643 0.0
H1889 H 0.71269 0.78416 0.49952 0.0
C1890 C 0.16079 0.85835 0.57413 0.0
C1891 C 0.16124 0.89084 0.57639 0.0
C1892 C 0.18465 0.90621 0.53112 0.0
C1893 C 0.18262 0.87303 0.52842 0.0
N1894 N 0.15924 0.81395 0.54473 0.0
N1895 N 0.16349 0.94066 0.55453 0.0
C1896 C 0.16755 0.84792 0.54911 0.0
C1897 C 0.16984 0.9131 0.554 0.0
N1898 N 0.15598 0.83833 0.59606 0.0
N1899 N 0.20254 0.93197 0.5127 0.0
H1900 H 0.15181 0.94584 0.57076 0.0
H1901 H 0.16619 0.95591 0.53799 0.0
H1902 H 0.21468 0.92854 0.49599 0.0
H1903 H 0.20819 0.95781 0.51524 0.0
H1904 H 0.15948 0.81649 0.596 0.0
H1905 H 0.15152 0.84513 0.61486 0.0
H1906 H 0.14507 0.79372 0.55825 0.0
H1907 H 0.16321 0.80529 0.52649 0.0
C1908 C 0.6426 0.81075 0.12718 0.0
C1909 C 0.6078 0.78012 0.12764 0.0
C1910 C 0.6181 0.76809 0.17324 0.0
C1911 C 0.65222 0.7996 0.17318 0.0
N1912 N 0.69355 0.8548 0.15245 0.0
N1913 N 0.55917 0.734 0.15263 0.0
C1914 C 0.66339 0.82216 0.15084 0.0
C1915 C 0.59454 0.76016 0.1512 0.0
N1916 N 0.6565 0.82803 0.10388 0.0
N1917 N 0.60887 0.74497 0.19381 0.0
H1918 H 0.54113 0.72769 0.1369 0.0
H1919 H 0.54687 0.72081 0.17004 0.0
H1920 H 0.62531 0.74981 0.21034 0.0
H1921 H 0.58628 0.71979 0.1936 0.0
H1922 H 0.68326 0.848 0.10167 0.0
H1923 H 0.64214 0.82065 0.08613 0.0
H1924 H 0.70105 0.87387 0.13782 0.0
H1925 H 0.70935 0.86404 0.16951 0.0
C1926 C 0.23288 0.86013 0.12262 0.0
C1927 C 0.24489 0.83532 0.1208 0.0
C1928 C 0.21806 0.81169 0.16421 0.0
C1929 C 0.20881 0.83844 0.16701 0.0
N1930 N 0.21698 0.89406 0.15175 0.0
N1931 N 0.25799 0.79462 0.14348 0.0
C1932 C 0.21928 0.86458 0.1471 0.0
C1933 C 0.24038 0.81336 0.14278 0.0
N1934 N 0.23253 0.87817 0.10073 0.0
N1935 N 0.20401 0.78355 0.181 0.0
H1936 H 0.27561 0.79616 0.1286 0.0
H1937 H 0.25818 0.78072 0.16011 0.0
H1938 H 0.18618 0.78022 0.19623 0.0
H1939 H 0.20714 0.76172 0.17807 0.0
H1940 H 0.22061 0.89386 0.10052 0.0
H1941 H 0.2408 0.87476 0.08213 0.0
H1942 H 0.22733 0.91538 0.13882 0.0
H1943 H 0.20832 0.8988 0.16977 0.0
C1944 C 0.19092 0.39588 0.1275 0.0
C1945 C 0.19542 0.43014 0.12538 0.0
C1946 C 0.1768 0.4271 0.17183 0.0
C1947 C 0.17225 0.39283 0.1739 0.0
N1948 N 0.18333 0.34825 0.1562 0.0
N1949 N 0.2013 0.48168 0.14697 0.0
C1950 C 0.18222 0.37852 0.1525 0.0
C1951 C 0.1912 0.44682 0.1481 0.0
N1952 N 0.19296 0.37909 0.10535 0.0
N1953 N 0.16566 0.4401 0.19204 0.0
H1954 H 0.21201 0.49676 0.12992 0.0
H1955 H 0.2022 0.4964 0.1634 0.0
H1956 H 0.156 0.42693 0.20995 0.0
H1957 H 0.16398 0.4629 0.19056 0.0
H1958 H 0.18572 0.35264 0.10495 0.0
H1959 H 0.19953 0.39091 0.08677 0.0
H1960 H 0.19358 0.33804 0.1423 0.0
H1961 H 0.1771 0.33509 0.17429 0.0
C1962 C 0.82538 0.62589 0.91167 0.0
C1963 C 0.78829 0.5992 0.91199 0.0
C1964 C 0.78184 0.61642 0.86694 0.0
C1965 C 0.81973 0.64047 0.8657 0.0
N1966 N 0.87851 0.65916 0.88462 0.0
N1967 N 0.73442 0.56265 0.88641 0.0
C1968 C 0.8418 0.64229 0.88735 0.0
C1969 C 0.7675 0.59241 0.88849 0.0
N1970 N 0.84463 0.63731 0.93467 0.0
N1971 N 0.75908 0.61762 0.84855 0.0
H1972 H 0.72375 0.54364 0.90125 0.0
H1973 H 0.71962 0.55506 0.86886 0.0
H1974 H 0.76787 0.63605 0.83334 0.0
H1975 H 0.73102 0.60275 0.85015 0.0
H1976 H 0.87076 0.65893 0.93549 0.0
H1977 H 0.8333 0.62801 0.95323 0.0
H1978 H 0.8955 0.65861 0.89917 0.0
H1979 H 0.89146 0.67014 0.86677 0.0
C1980 C 0.41131 0.16837 0.88691 0.0
C1981 C 0.40502 0.18404 0.90935 0.0
C1982 C 0.35807 0.18836 0.88468 0.0
C1983 C 0.36068 0.16788 0.86395 0.0
N1984 N 0.3848 0.13164 0.84844 0.0
N1985 N 0.36733 0.20286 0.93124 0.0
C1986 C 0.38591 0.15594 0.86591 0.0
C1987 C 0.37696 0.19238 0.90873 0.0
N1988 N 0.44223 0.16658 0.88511 0.0
N1989 N 0.3386 0.20499 0.88115 0.0
H1990 H 0.37973 0.20512 0.94947 0.0
H1991 H 0.34471 0.2059 0.93235 0.0
H1992 H 0.32544 0.20376 0.86347 0.0
H1993 H 0.3387 0.22291 0.89473 0.0
H1994 H 0.4495 0.15825 0.86808 0.0
H1995 H 0.46253 0.17725 0.89939 0.0
H1996 H 0.40047 0.11972 0.85067 0.0
H1997 H 0.36563 0.12061 0.83338 0.0
C1998 C 0.84096 0.19508 0.90499 0.0
C1999 C 0.84526 0.22929 0.90605 0.0
C2000 C 0.8706 0.24104 0.86121 0.0
C2001 C 0.86295 0.20568 0.85914 0.0
N2002 N 0.8335 0.14687 0.87717 0.0
N2003 N 0.85549 0.28135 0.88247 0.0
C2004 C 0.84598 0.18203 0.88051 0.0
C2005 C 0.85757 0.25129 0.88336 0.0
N2006 N 0.83321 0.17543 0.9275 0.0
N2007 N 0.89152 0.26529 0.84259 0.0
H2008 H 0.84473 0.28912 0.8978 0.0
H2009 H 0.86075 0.29646 0.86544 0.0
H2010 H 0.90251 0.25924 0.82641 0.0
H2011 H 0.90092 0.29215 0.84464 0.0
H2012 H 0.83346 0.15184 0.92844 0.0
H2013 H 0.82981 0.18426 0.94584 0.0
H2014 H 0.81775 0.12797 0.89116 0.0
H2015 H 0.83577 0.13617 0.85934 0.0
C2016 C 0.25404 0.0857 0.47884 0.0
C2017 C 0.2648 0.1075 0.4561 0.0
C2018 C 0.31492 0.15412 0.48142 0.0
C2019 C 0.30797 0.13003 0.50236 0.0
N2020 N 0.27364 0.07049 0.51901 0.0
N2021 N 0.3089 0.16121 0.43462 0.0
C2022 C 0.27807 0.09519 0.50068 0.0
C2023 C 0.29602 0.14156 0.4571 0.0
N2024 N 0.22066 0.0561 0.47969 0.0
N2025 N 0.33912 0.18912 0.48492 0.0
H2026 H 0.29646 0.15283 0.41623 0.0
H2027 H 0.33374 0.18449 0.43378 0.0
H2028 H 0.35283 0.19938 0.5027 0.0
H2029 H 0.34272 0.20831 0.47121 0.0
H2030 H 0.21013 0.04096 0.49669 0.0
H2031 H 0.20204 0.04884 0.46426 0.0
H2032 H 0.25445 0.04388 0.51707 0.0
H2033 H 0.2913 0.07578 0.53481 0.0
C2034 C 0.86008 0.1557 0.45085 0.0
C2035 C 0.89369 0.15661 0.45146 0.0
C2036 C 0.90434 0.18024 0.49654 0.0
C2037 C 0.86945 0.17671 0.4969 0.0
N2038 N 0.81066 0.15263 0.47645 0.0
N2039 N 0.94126 0.15818 0.47809 0.0
C2040 C 0.84623 0.16191 0.47463 0.0
C2041 C 0.91386 0.16539 0.4753 0.0
N2042 N 0.84183 0.14985 0.42752 0.0
N2043 N 0.92911 0.19911 0.51573 0.0
H2044 H 0.94683 0.14452 0.46372 0.0
H2045 H 0.95504 0.16159 0.49584 0.0
H2046 H 0.92405 0.21197 0.53104 0.0
H2047 H 0.95597 0.2051 0.51478 0.0
H2048 H 0.81913 0.1526 0.42537 0.0
H2049 H 0.85105 0.14497 0.40981 0.0
H2050 H 0.79177 0.1388 0.46169 0.0
H2051 H 0.79923 0.15553 0.49381 0.0
C2052 C 0.82759 0.71995 0.45913 0.0
C2053 C 0.85764 0.75459 0.45639 0.0
C2054 C 0.87792 0.74963 0.50103 0.0
C2055 C 0.84604 0.71636 0.50445 0.0
N2056 N 0.78573 0.67547 0.4893 0.0
N2057 N 0.90632 0.80552 0.47785 0.0
C2058 C 0.81929 0.70348 0.48431 0.0
C2059 C 0.88131 0.77043 0.47831 0.0
N2060 N 0.80804 0.70174 0.43743 0.0
N2061 N 0.90575 0.76079 0.51866 0.0
H2062 H 0.90884 0.82179 0.46202 0.0
H2063 H 0.92191 0.81907 0.49424 0.0
H2064 H 0.90468 0.74634 0.5353 0.0
H2065 H 0.93101 0.78299 0.51553 0.0
H2066 H 0.78801 0.67528 0.43813 0.0
H2067 H 0.81453 0.71167 0.41827 0.0
H2068 H 0.76425 0.66694 0.47605 0.0
H2069 H 0.77843 0.66339 0.50779 0.0
loop_
_geom_bond_atom_site_label_1
_geom_bond_atom_site_label_2
_geom_bond_distance
_geom_bond_site_symmetry_2
_ccdc_geom_bond_type
H0 C1 0.949 . S
C1 H0 0.949 . S
C1 C2 1.395 . S
C1 C3 1.391 . S
C2 C1 1.395 . S
C2 C5 1.390 . S
C3 C1 1.391 . S
C3 C7 1.387 . S
C3 C8 1.491 . S
H4 C5 0.950 . S
C5 C2 1.390 . S
C5 H4 0.950 . S
C5 C6 1.378 . S
C6 C5 1.378 . S
C6 C7 1.409 . S
C7 C3 1.387 . S
C7 C6 1.409 . S
C7 H9 0.951 . S
C8 C3 1.491 . S
C8 C10 1.382 . S
C8 C12 1.404 . S
H9 C7 0.951 . S
C10 C8 1.382 . S
C10 C11 1.390 . S
C10 H15 0.949 . S
C11 C10 1.390 . S
C11 C16 1.399 . S
C12 C8 1.404 . S
C12 H13 0.950 . S
C12 C14 1.375 . S
H13 C12 0.950 . S
C14 C12 1.375 . S
C14 C16 1.382 . S
C14 H18 0.950 . S
H15 C10 0.949 . S
C16 C11 1.399 . S
C16 C14 1.382 . S
C16 H17 0.952 . S
H17 C16 0.952 . S
H18 C14 0.950 . S
H19 C20 0.949 . S
C20 H19 0.949 . S
C20 C21 1.395 . S
C20 C22 1.391 . S
C21 C20 1.395 . S
C21 C24 1.390 . S
C22 C20 1.391 . S
C22 C26 1.387 . S
C22 C27 1.491 . S
H23 C24 0.950 . S
C24 C21 1.390 . S
C24 H23 0.950 . S
C24 C25 1.378 . S
C25 C24 1.378 . S
C25 C26 1.409 . S
C26 C22 1.387 . S
C26 C25 1.409 . S
C26 H28 0.951 . S
C27 C22 1.491 . S
C27 C29 1.382 . S
C27 C31 1.404 . S
H28 C26 0.951 . S
C29 C27 1.382 . S
C29 C30 1.390 1_545 S
C29 H34 0.949 . S
C30 C29 1.390 1_565 S
C30 C35 1.399 . S
C31 C27 1.404 . S
C31 H32 0.950 . S
C31 C33 1.375 . S
H32 C31 0.950 . S
C33 C31 1.375 . S
C33 C35 1.382 1_545 S
C33 H37 0.950 . S
H34 C29 0.949 . S
C35 C30 1.399 . S
C35 C33 1.382 1_565 S
C35 H36 0.952 . S
H36 C35 0.952 . S
H37 C33 0.950 . S
H38 C39 0.949 . S
C39 H38 0.949 . S
C39 C40 1.395 . S
C39 C41 1.391 . S
C40 C39 1.395 . S
C40 C43 1.390 . S
C41 C39 1.391 . S
C41 C45 1.387 . S
C41 C46 1.491 . S
H42 C43 0.950 . S
C43 C40 1.390 . S
C43 H42 0.950 . S
C43 C44 1.378 . S
C44 C43 1.378 . S
C44 C45 1.409 . S
C45 C41 1.387 . S
C45 C44 1.409 . S
C45 H47 0.951 . S
C46 C41 1.491 . S
C46 C48 1.382 . S
C46 C50 1.404 . S
H47 C45 0.951 . S
C48 C46 1.382 . S
C48 C49 1.390 1_655 S
C48 H53 0.949 . S
C49 C48 1.390 1_455 S
C49 C54 1.399 . S
C50 C46 1.404 . S
C50 H51 0.950 . S
C50 C52 1.375 1_655 S
H51 C50 0.950 . S
C52 C50 1.375 1_455 S
C52 C54 1.382 . S
C52 H56 0.950 . S
H53 C48 0.949 . S
C54 C49 1.399 . S
C54 C52 1.382 . S
C54 H55 0.952 . S
H55 C54 0.952 . S
H56 C52 0.950 . S
H57 C58 0.949 . S
C58 H57 0.949 . S
C58 C59 1.395 . S
C58 C60 1.391 . S
C59 C58 1.395 . S
C59 C62 1.390 . S
C60 C58 1.391 . S
C60 C64 1.387 . S
C60 C65 1.491 . S
H61 C62 0.950 . S
C62 C59 1.390 . S
C62 H61 0.950 . S
C62 C63 1.378 . S
C63 C62 1.378 . S
C63 C64 1.409 . S
C64 C60 1.387 . S
C64 C63 1.409 . S
C64 H66 0.951 . S
C65 C60 1.491 . S
C65 C67 1.382 . S
C65 C69 1.404 . S
H66 C64 0.951 . S
C67 C65 1.382 . S
C67 C68 1.390 . S
C67 H72 0.949 . S
C68 C67 1.390 . S
C68 C73 1.399 . S
C69 C65 1.404 . S
C69 H70 0.950 . S
C69 C71 1.375 . S
H70 C69 0.950 . S
C71 C69 1.375 . S
C71 C73 1.382 . S
C71 H75 0.950 . S
H72 C67 0.949 . S
C73 C68 1.399 . S
C73 C71 1.382 . S
C73 H74 0.952 . S
H74 C73 0.952 . S
H75 C71 0.950 . S
H76 C77 0.949 . S
C77 H76 0.949 . S
C77 C78 1.395 . S
C77 C79 1.391 . S
C78 C77 1.395 . S
C78 C81 1.390 . S
C79 C77 1.391 . S
C79 C83 1.387 . S
C79 C84 1.491 . S
H80 C81 0.950 . S
C81 C78 1.390 . S
C81 H80 0.950 . S
C81 C82 1.378 . S
C82 C81 1.378 . S
C82 C83 1.409 . S
C83 C79 1.387 . S
C83 C82 1.409 . S
C83 H85 0.951 . S
C84 C79 1.491 . S
C84 C86 1.382 . S
C84 C88 1.404 . S
H85 C83 0.951 . S
C86 C84 1.382 . S
C86 C87 1.390 1_565 S
C86 H91 0.949 . S
C87 C86 1.390 1_545 S
C87 C92 1.399 . S
C88 C84 1.404 . S
C88 H89 0.950 . S
C88 C90 1.375 . S
H89 C88 0.950 . S
C90 C88 1.375 . S
C90 C92 1.382 1_565 S
C90 H94 0.950 1_565 S
H91 C86 0.949 . S
C92 C87 1.399 . S
C92 C90 1.382 1_545 S
C92 H93 0.952 . S
H93 C92 0.952 . S
H94 C90 0.950 1_545 S
H95 C96 0.949 . S
C96 H95 0.949 . S
C96 C97 1.395 . S
C96 C98 1.391 . S
C97 C96 1.395 . S
C97 C100 1.390 . S
C98 C96 1.391 . S
C98 C102 1.387 . S
C98 C103 1.491 . S
H99 C100 0.950 . S
C100 C97 1.390 . S
C100 H99 0.950 . S
C100 C101 1.378 . S
C101 C100 1.378 . S
C101 C102 1.409 . S
C102 C98 1.387 . S
C102 C101 1.409 . S
C102 H104 0.951 . S
C103 C98 1.491 . S
C103 C105 1.382 . S
C103 C107 1.404 . S
H104 C102 0.951 . S
C105 C103 1.382 . S
C105 C106 1.390 1_455 S
C105 H110 0.949 . S
C106 C105 1.390 1_655 S
C106 C111 1.399 . S
C107 C103 1.404 . S
C107 H108 0.950 . S
C107 C109 1.391 . S
H108 C107 0.950 . S
C109 C107 1.391 . S
C109 C111 1.379 1_455 S
C109 H113 0.937 1_455 S
H110 C105 0.949 . S
C111 C106 1.399 . S
C111 C109 1.379 1_655 S
C111 H112 0.952 . S
H112 C111 0.952 . S
H113 C109 0.937 1_655 S
H114 C115 0.949 . S
C115 H114 0.949 . S
C115 C116 1.395 . S
C115 C117 1.391 . S
C116 C115 1.395 . S
C116 C119 1.390 . S
C117 C115 1.391 . S
C117 C121 1.387 . S
C117 C122 1.491 . S
H118 C119 0.950 . S
C119 C116 1.390 . S
C119 H118 0.950 . S
C119 C120 1.378 . S
C120 C119 1.378 . S
C120 C121 1.409 . S
C121 C117 1.387 . S
C121 C120 1.409 . S
C121 H123 0.951 . S
C122 C117 1.491 . S
C122 C124 1.382 . S
C122 C126 1.404 . S
H123 C121 0.951 . S
C124 C122 1.382 . S
C124 C125 1.390 . S
C124 H129 0.949 . S
C125 C124 1.390 . S
C125 C130 1.399 . S
C126 C122 1.404 . S
C126 H127 0.950 . S
C126 C128 1.375 . S
H127 C126 0.950 . S
C128 C126 1.375 . S
C128 C130 1.382 . S
C128 H132 0.950 . S
H129 C124 0.949 . S
C130 C125 1.399 . S
C130 C128 1.382 . S
C130 H131 0.952 . S
H131 C130 0.952 . S
H132 C128 0.950 . S
H133 C134 0.949 . S
C134 H133 0.949 . S
C134 C135 1.395 . S
C134 C136 1.391 . S
C135 C134 1.395 . S
C135 C138 1.390 . S
C136 C134 1.391 . S
C136 C140 1.387 . S
C136 C141 1.491 . S
H137 C138 0.950 . S
C138 C135 1.390 . S
C138 H137 0.950 . S
C138 C139 1.378 . S
C139 C138 1.378 . S
C139 C140 1.409 . S
C140 C136 1.387 . S
C140 C139 1.409 . S
C140 H142 0.951 . S
C141 C136 1.491 . S
C141 C143 1.382 . S
C141 C145 1.404 . S
H142 C140 0.951 . S
C143 C141 1.382 . S
C143 C144 1.390 . S
C143 H148 0.949 . S
C144 C143 1.390 . S
C144 C149 1.399 . S
C145 C141 1.404 . S
C145 H146 0.950 . S
C145 C147 1.375 . S
H146 C145 0.950 . S
C147 C145 1.375 . S
C147 C149 1.382 . S
C147 H151 0.950 . S
H148 C143 0.949 . S
C149 C144 1.399 . S
C149 C147 1.382 . S
C149 H150 0.952 . S
H150 C149 0.952 . S
H151 C147 0.950 . S
H152 C153 0.949 . S
C153 H152 0.949 . S
C153 C154 1.395 . S
C153 C155 1.391 . S
C154 C153 1.395 . S
C154 C157 1.390 . S
C155 C153 1.391 . S
C155 C159 1.387 . S
C155 C160 1.491 . S
H156 C157 0.950 . S
C157 C154 1.390 . S
C157 H156 0.950 . S
C157 C158 1.378 . S
C158 C157 1.378 . S
C158 C159 1.409 . S
C159 C155 1.387 . S
C159 C158 1.409 . S
C159 H161 0.951 . S
C160 C155 1.491 . S
C160 C162 1.382 . S
C160 C164 1.404 . S
H161 C159 0.951 . S
C162 C160 1.382 . S
C162 C163 1.390 . S
C162 H167 0.949 . S
C163 C162 1.390 . S
C163 C168 1.399 . S
C164 C160 1.404 . S
C164 H165 0.950 . S
C164 C166 1.375 . S
H165 C164 0.950 . S
C166 C164 1.375 . S
C166 C168 1.382 . S
C166 H170 0.950 . S
H167 C162 0.949 . S
C168 C163 1.399 . S
C168 C166 1.382 . S
C168 H169 0.952 . S
H169 C168 0.952 . S
H170 C166 0.950 . S
H171 C172 0.949 . S
C172 H171 0.949 . S
C172 C173 1.395 . S
C172 C174 1.391 . S
C173 C172 1.395 . S
C173 C176 1.390 . S
C174 C172 1.391 . S
C174 C178 1.387 . S
C174 C179 1.491 . S
H175 C176 0.950 . S
C176 C173 1.390 . S
C176 H175 0.950 . S
C176 C177 1.378 . S
C177 C176 1.378 . S
C177 C178 1.409 . S
C178 C174 1.387 . S
C178 C177 1.409 . S
C178 H180 0.951 . S
C179 C174 1.491 . S
C179 C181 1.382 . S
C179 C183 1.404 . S
H180 C178 0.951 . S
C181 C179 1.382 . S
C181 C182 1.390 . S
C181 H186 0.949 . S
C182 C181 1.390 . S
C182 C187 1.399 . S
C183 C179 1.404 . S
C183 H184 0.950 . S
C183 C185 1.375 . S
H184 C183 0.950 . S
C185 C183 1.375 . S
C185 C187 1.382 . S
C185 H189 0.950 1_556 S
H186 C181 0.949 . S
C187 C182 1.399 . S
C187 C185 1.382 . S
C187 H188 0.952 1_556 S
H188 C187 0.952 1_554 S
H189 C185 0.950 1_554 S
H190 C191 0.949 . S
C191 H190 0.949 . S
C191 C192 1.395 . S
C191 C193 1.391 . S
C192 C191 1.395 . S
C192 C195 1.390 . S
C193 C191 1.391 . S
C193 C197 1.387 . S
C193 C198 1.491 . S
H194 C195 0.950 . S
C195 C192 1.390 . S
C195 H194 0.950 . S
C195 C196 1.378 . S
C196 C195 1.378 . S
C196 C197 1.409 . S
C197 C193 1.387 . S
C197 C196 1.409 . S
C197 H199 0.979 . S
C198 C193 1.491 . S
C198 C200 1.382 . S
C198 C202 1.404 . S
H199 C197 0.979 . S
C200 C198 1.382 . S
C200 C201 1.390 . S
C200 H205 0.949 . S
C201 C200 1.390 . S
C201 C206 1.399 1_556 S
C202 C198 1.404 . S
C202 H203 0.955 . S
C202 C204 1.375 1_556 S
H203 C202 0.955 . S
C204 C202 1.375 1_554 S
C204 C206 1.382 . S
C204 H208 0.950 . S
H205 C200 0.949 . S
C206 C201 1.399 1_554 S
C206 C204 1.382 . S
C206 H207 0.952 . S
H207 C206 0.952 . S
H208 C204 0.950 . S
H209 C210 0.949 . S
C210 H209 0.949 . S
C210 C211 1.395 . S
C210 C212 1.391 . S
C211 C210 1.395 . S
C211 C214 1.390 . S
C212 C210 1.391 . S
C212 C216 1.387 . S
C212 C217 1.491 . S
H213 C214 0.950 . S
C214 C211 1.390 . S
C214 H213 0.950 . S
C214 C215 1.378 . S
C215 C214 1.378 . S
C215 C216 1.409 . S
C216 C212 1.387 . S
C216 C215 1.409 . S
C216 H218 0.951 . S
C217 C212 1.491 . S
C217 C219 1.382 . S
C217 C221 1.404 . S
H218 C216 0.951 . S
C219 C217 1.382 . S
C219 C220 1.390 . S
C219 H224 0.949 . S
C220 C219 1.390 . S
C220 C225 1.393 1_556 S
C221 C217 1.404 . S
C221 H222 0.950 . S
C221 C223 1.375 1_556 S
H222 C221 0.950 . S
C223 C221 1.375 1_554 S
C223 C225 1.383 . S
C223 H227 0.950 . S
H224 C219 0.949 . S
C225 C220 1.393 1_554 S
C225 C223 1.383 . S
C225 H226 0.957 . S
H226 C225 0.957 . S
H227 C223 0.950 . S
H228 C229 0.949 . S
C229 H228 0.949 . S
C229 C230 1.395 . S
C229 C231 1.391 . S
C230 C229 1.395 . S
C230 C233 1.390 . S
C231 C229 1.391 . S
C231 C235 1.387 . S
C231 C236 1.491 . S
H232 C233 0.950 . S
C233 C230 1.390 . S
C233 H232 0.950 . S
C233 C234 1.378 . S
C234 C233 1.378 . S
C234 C235 1.409 . S
C235 C231 1.387 . S
C235 C234 1.409 . S
C235 H237 0.951 . S
C236 C231 1.491 . S
C236 C238 1.382 . S
C236 C240 1.404 . S
H237 C235 0.951 . S
C238 C236 1.382 . S
C238 C239 1.390 . S
C238 H243 0.949 . S
C239 C238 1.390 . S
C239 C244 1.399 . S
C240 C236 1.404 . S
C240 H241 0.950 . S
C240 C242 1.375 . S
H241 C240 0.950 . S
C242 C240 1.375 . S
C242 C244 1.382 . S
C242 H246 0.950 . S
H243 C238 0.949 . S
C244 C239 1.399 . S
C244 C242 1.382 . S
C244 H245 0.952 . S
H245 C244 0.952 . S
H246 C242 0.950 . S
H247 C248 0.949 . S
C248 H247 0.949 . S
C248 C249 1.395 . S
C248 C250 1.391 . S
C249 C248 1.395 . S
C249 C252 1.390 . S
C250 C248 1.391 . S
C250 C254 1.387 . S
C250 C255 1.491 . S
H251 C252 0.950 . S
C252 C249 1.390 . S
C252 H251 0.950 . S
C252 C253 1.378 . S
C253 C252 1.378 . S
C253 C254 1.409 . S
C254 C250 1.387 . S
C254 C253 1.409 . S
C254 H256 0.951 . S
C255 C250 1.491 . S
C255 C257 1.382 . S
C255 C259 1.404 . S
H256 C254 0.951 . S
C257 C255 1.382 . S
C257 C258 1.390 . S
C257 H262 0.949 . S
C258 C257 1.390 . S
C258 C263 1.399 . S
C259 C255 1.404 . S
C259 H260 0.950 . S
C259 C261 1.375 . S
H260 C259 0.950 . S
C261 C259 1.375 . S
C261 C263 1.382 . S
C261 H265 0.950 . S
H262 C257 0.949 . S
C263 C258 1.399 . S
C263 C261 1.382 . S
C263 H264 0.952 . S
H264 C263 0.952 . S
H265 C261 0.950 . S
H266 C267 0.949 . S
C267 H266 0.949 . S
C267 C268 1.395 . S
C267 C269 1.391 . S
C268 C267 1.395 . S
C268 C271 1.390 . S
C269 C267 1.391 . S
C269 C273 1.387 . S
C269 C274 1.491 . S
H270 C271 0.950 . S
C271 C268 1.390 . S
C271 H270 0.950 . S
C271 C272 1.378 . S
C272 C271 1.378 . S
C272 C273 1.409 . S
C273 C269 1.387 . S
C273 C272 1.409 . S
C273 H275 0.951 . S
C274 C269 1.491 . S
C274 C276 1.382 . S
C274 C278 1.404 . S
H275 C273 0.951 . S
C276 C274 1.382 . S
C276 C277 1.390 . S
C276 H281 0.949 . S
C277 C276 1.390 . S
C277 C282 1.399 . S
C278 C274 1.404 . S
C278 H279 0.950 . S
C278 C280 1.375 . S
H279 C278 0.950 . S
C280 C278 1.375 . S
C280 C282 1.382 . S
C280 H284 0.950 . S
H281 C276 0.949 . S
C282 C277 1.399 . S
C282 C280 1.382 . S
C282 H283 0.952 . S
H283 C282 0.952 . S
H284 C280 0.950 . S
H285 C286 0.949 . S
C286 H285 0.949 . S
C286 C287 1.395 . S
C286 C288 1.391 . S
C287 C286 1.395 . S
C287 C290 1.390 . S
C288 C286 1.391 . S
C288 C292 1.387 . S
C288 C293 1.491 . S
H289 C290 0.950 . S
C290 C287 1.390 . S
C290 H289 0.950 . S
C290 C291 1.378 . S
C291 C290 1.378 . S
C291 C292 1.409 . S
C292 C288 1.387 . S
C292 C291 1.409 . S
C292 H294 0.951 . S
C293 C288 1.491 . S
C293 C295 1.382 . S
C293 C297 1.404 . S
H294 C292 0.951 . S
C295 C293 1.382 . S
C295 C296 1.390 . S
C295 H300 0.949 . S
C296 C295 1.390 . S
C296 C301 1.399 . S
C297 C293 1.404 . S
C297 H298 0.950 . S
C297 C299 1.375 . S
H298 C297 0.950 . S
C299 C297 1.375 . S
C299 C301 1.382 . S
C299 H303 0.950 . S
H300 C295 0.949 . S
C301 C296 1.399 . S
C301 C299 1.382 . S
C301 H302 0.952 . S
H302 C301 0.952 . S
H303 C299 0.950 . S
H304 C305 0.949 . S
C305 H304 0.949 . S
C305 C306 1.395 . S
C305 C307 1.391 . S
C306 C305 1.395 . S
C306 C309 1.390 . S
C307 C305 1.391 . S
C307 C311 1.387 . S
C307 C312 1.491 . S
H308 C309 0.950 . S
C309 C306 1.390 . S
C309 H308 0.950 . S
C309 C310 1.378 . S
C310 C309 1.378 . S
C310 C311 1.409 . S
C311 C307 1.387 . S
C311 C310 1.409 . S
C311 H313 0.951 . S
C312 C307 1.491 . S
C312 C314 1.382 . S
C312 C316 1.404 . S
H313 C311 0.951 . S
C314 C312 1.382 . S
C314 C315 1.390 . S
C314 H319 0.949 . S
C315 C314 1.390 . S
C315 C320 1.399 . S
C316 C312 1.404 . S
C316 H317 0.950 . S
C316 C318 1.375 . S
H317 C316 0.950 . S
C318 C316 1.375 . S
C318 C320 1.382 . S
C318 H322 0.950 . S
H319 C314 0.949 . S
C320 C315 1.399 . S
C320 C318 1.382 . S
C320 H321 0.952 . S
H321 C320 0.952 . S
H322 C318 0.950 . S
H323 C324 0.949 . S
C324 H323 0.949 . S
C324 C325 1.395 . S
C324 C326 1.391 . S
C325 C324 1.395 . S
C325 C328 1.390 . S
C326 C324 1.391 . S
C326 C330 1.387 . S
C326 C331 1.491 . S
H327 C328 0.950 . S
C328 C325 1.390 . S
C328 H327 0.950 . S
C328 C329 1.378 . S
C329 C328 1.378 . S
C329 C330 1.409 . S
C330 C326 1.387 . S
C330 C329 1.409 . S
C330 H332 0.951 . S
C331 C326 1.491 . S
C331 C333 1.382 . S
C331 C335 1.404 . S
H332 C330 0.951 . S
C333 C331 1.382 . S
C333 C334 1.390 . S
C333 H338 0.949 . S
C334 C333 1.390 . S
C334 C339 1.399 . S
C335 C331 1.404 . S
C335 H336 0.950 . S
C335 C337 1.375 . S
H336 C335 0.950 . S
C337 C335 1.375 . S
C337 C339 1.382 . S
C337 H341 0.950 . S
H338 C333 0.949 . S
C339 C334 1.399 . S
C339 C337 1.382 . S
C339 H340 0.952 . S
H340 C339 0.952 . S
H341 C337 0.950 . S
Eu342 N373 2.657 . S
Eu342 N380 2.609 . S
Eu342 O386 2.558 . S
Eu342 O387 2.612 1_566 S
Eu342 O389 2.339 1_565 S
Eu342 O390 2.563 1_565 S
Eu342 O391 2.419 1_565 S
Eu342 O393 2.380 1_556 S
Eu342 O394 2.432 . S
Eu342 C406 2.848 1_565 S
C343 C346 1.429 . S
C343 C347 1.411 . S
C343 N350 1.377 . S
C344 C346 1.420 . S
C344 C348 1.423 . S
C344 C356 1.392 . S
C345 C347 1.420 . S
C345 C348 1.351 . S
C345 H368 0.931 . S
C346 C343 1.429 . S
C346 C344 1.420 . S
C346 N354 1.362 . S
C347 C343 1.411 . S
C347 C345 1.420 . S
C347 C352 1.395 . S
C348 C344 1.423 . S
C348 C345 1.351 . S
C348 H360 0.930 . S
C349 C351 1.400 . S
C349 C352 1.386 . S
C349 H361 0.930 . S
N350 C343 1.377 . S
N350 C351 1.321 . S
N350 Eu353 2.609 . S
C351 C349 1.400 . S
C351 N350 1.321 . S
C351 H358 0.930 . S
C352 C347 1.395 . S
C352 C349 1.386 . S
C352 H371 0.930 . S
Eu353 N350 2.609 . S
Eu353 N354 2.657 . S
Eu353 O387 2.380 . S
Eu353 O388 2.432 . S
Eu353 O392 2.558 . S
Eu353 O393 2.612 1_545 S
Eu353 O395 2.339 1_545 S
Eu353 O396 2.563 1_545 S
Eu353 O397 2.419 1_545 S
Eu353 C417 2.847 1_545 S
N354 C346 1.362 . S
N354 Eu353 2.657 . S
N354 C355 1.334 . S
C355 N354 1.334 . S
C355 C357 1.413 . S
C355 H362 0.929 . S
C356 C344 1.392 . S
C356 C357 1.367 . S
C356 H364 0.930 . S
C357 C355 1.413 . S
C357 C356 1.367 . S
C357 H359 0.930 . S
H358 C351 0.930 . S
H359 C357 0.930 . S
H360 C348 0.930 . S
H361 C349 0.930 . S
H362 C355 0.929 . S
H363 C377 0.930 . S
H364 C356 0.930 . S
H365 C383 0.930 . S
H366 C374 0.929 . S
H367 C381 0.930 . S
H368 C345 0.931 . S
H369 C375 0.930 . S
H370 C408 0.930 . S
H371 C352 0.930 . S
H372 C407 0.931 . S
N373 Eu342 2.657 . S
N373 C374 1.334 . S
N373 C378 1.362 . S
C374 H366 0.929 . S
C374 N373 1.334 . S
C374 C377 1.413 . S
C375 H369 0.930 . S
C375 C376 1.392 . S
C375 C377 1.367 . S
C376 C375 1.392 . S
C376 C378 1.420 . S
C376 C408 1.423 . S
C377 H363 0.930 . S
C377 C374 1.413 . S
C377 C375 1.367 . S
C378 N373 1.362 . S
C378 C376 1.420 . S
C378 C382 1.429 . S
H379 C384 0.930 . S
N380 Eu342 2.609 . S
N380 C382 1.377 . S
N380 C383 1.321 . S
C381 H367 0.930 . S
C381 C383 1.400 . S
C381 C384 1.386 . S
C382 C378 1.429 . S
C382 N380 1.377 . S
C382 C385 1.411 . S
C383 H365 0.930 . S
C383 N380 1.321 . S
C383 C381 1.400 . S
C384 H379 0.930 . S
C384 C381 1.386 . S
C384 C385 1.395 . S
C385 C382 1.411 . S
C385 C384 1.395 . S
C385 C407 1.420 . S
O386 Eu342 2.558 . S
O386 C406 1.257 1_565 S
O387 Eu342 2.612 1_544 S
O387 Eu353 2.380 . S
O387 C398 1.276 1_554 S
O388 Eu353 2.432 . S
O388 C405 1.264 . S
O389 Eu342 2.339 1_545 S
O389 C405 1.254 1_556 S
O390 Eu342 2.563 1_545 S
O390 C398 1.235 . S
O391 Eu342 2.419 1_545 S
O391 C406 1.249 . S
O392 Eu353 2.558 . S
O392 C417 1.251 1_545 S
O393 Eu342 2.380 1_554 S
O393 Eu353 2.612 1_565 S
O393 C409 1.276 . S
O394 Eu342 2.432 . S
O394 C416 1.264 1_556 S
O395 Eu353 2.339 1_565 S
O395 C416 1.254 . S
O396 Eu353 2.563 1_565 S
O396 C409 1.235 . S
O397 Eu353 2.419 1_565 S
O397 C417 1.254 . S
C398 O387 1.276 1_556 S
C398 O390 1.235 . S
C399 C401 1.393 . S
C399 C403 1.395 1_545 S
C399 C406 1.492 . S
C400 C401 1.392 . S
C400 C402 1.386 . S
C401 C399 1.393 . S
C401 C400 1.392 . S
C401 H418 0.930 . S
C402 C400 1.386 . S
C402 C404 1.395 . S
C402 H419 0.930 . S
C403 C399 1.395 1_565 S
C403 C404 1.379 1_565 S
C403 H420 0.930 . S
C404 C402 1.395 . S
C404 C403 1.379 1_545 S
C404 H421 0.930 1_545 S
C405 O388 1.264 . S
C405 O389 1.254 1_554 S
C406 Eu342 2.848 1_545 S
C406 O386 1.257 1_545 S
C406 O391 1.249 . S
C406 C399 1.492 . S
C407 H372 0.931 . S
C407 C385 1.420 . S
C407 C408 1.351 . S
C408 H370 0.930 . S
C408 C376 1.423 . S
C408 C407 1.351 . S
C409 O393 1.276 . S
C409 O396 1.235 . S
C410 C411 1.393 . S
C410 C414 1.395 1_565 S
C410 C417 1.493 . S
C411 C410 1.393 . S
C411 C412 1.392 . S
C411 H422 0.930 . S
C412 C411 1.392 . S
C412 C413 1.386 . S
C413 C412 1.386 . S
C413 C415 1.426 . S
C413 H423 0.930 . S
C414 C410 1.395 1_545 S
C414 C415 1.372 1_545 S
C414 H424 0.930 . S
C415 C413 1.426 . S
C415 C414 1.372 1_565 S
C415 H425 0.905 1_565 S
C416 O394 1.264 1_554 S
C416 O395 1.254 . S
C417 Eu353 2.847 1_565 S
C417 O392 1.251 1_565 S
C417 O397 1.254 . S
C417 C410 1.493 . S
H418 C401 0.930 . S
H419 C402 0.930 . S
H420 C403 0.930 . S
H421 C404 0.930 1_565 S
H422 C411 0.930 . S
H423 C413 0.930 . S
H424 C414 0.930 . S
H425 C415 0.905 1_545 S
Eu426 N457 2.657 . S
Eu426 N464 2.609 . S
Eu426 O470 2.558 . S
Eu426 O471 2.612 1_456 S
Eu426 O473 2.339 1_455 S
Eu426 O474 2.563 1_455 S
Eu426 O475 2.419 1_455 S
Eu426 O477 2.380 1_556 S
Eu426 O478 2.432 . S
Eu426 C490 2.848 . S
C427 C430 1.429 . S
C427 C431 1.411 . S
C427 N434 1.377 . S
C428 C430 1.420 . S
C428 C432 1.423 . S
C428 C440 1.392 . S
C429 C431 1.420 . S
C429 C432 1.351 . S
C429 H452 0.931 . S
C430 C427 1.429 . S
C430 C428 1.420 . S
C430 N438 1.362 . S
C431 C427 1.411 . S
C431 C429 1.420 . S
C431 C436 1.395 . S
C432 C428 1.423 . S
C432 C429 1.351 . S
C432 H444 0.930 . S
C433 C435 1.400 . S
C433 C436 1.386 . S
C433 H445 0.930 . S
N434 C427 1.377 . S
N434 C435 1.321 . S
N434 Eu437 2.609 . S
C435 C433 1.400 . S
C435 N434 1.321 . S
C435 H442 0.930 . S
C436 C431 1.395 . S
C436 C433 1.386 . S
C436 H455 0.930 . S
Eu437 N434 2.609 . S
Eu437 N438 2.657 . S
Eu437 O471 2.380 . S
Eu437 O472 2.432 . S
Eu437 O476 2.558 . S
Eu437 O477 2.612 1_655 S
Eu437 O479 2.339 1_655 S
Eu437 O480 2.563 1_655 S
Eu437 O481 2.419 1_655 S
Eu437 C501 2.848 1_655 S
N438 C430 1.362 . S
N438 Eu437 2.657 . S
N438 C439 1.334 . S
C439 N438 1.334 . S
C439 C441 1.413 . S
C439 H446 0.929 . S
C440 C428 1.392 . S
C440 C441 1.367 . S
C440 H448 0.930 . S
C441 C439 1.413 . S
C441 C440 1.367 . S
C441 H443 0.930 . S
H442 C435 0.930 . S
H443 C441 0.930 . S
H444 C432 0.930 . S
H445 C433 0.930 . S
H446 C439 0.929 . S
H447 C461 0.930 . S
H448 C440 0.930 . S
H449 C467 0.930 . S
H450 C458 0.929 . S
H451 C465 0.930 . S
H452 C429 0.931 . S
H453 C459 0.930 . S
H454 C492 0.930 . S
H455 C436 0.930 . S
H456 C491 0.931 . S
N457 Eu426 2.657 . S
N457 C458 1.334 . S
N457 C462 1.362 . S
C458 H450 0.929 . S
C458 N457 1.334 . S
C458 C461 1.413 . S
C459 H453 0.930 . S
C459 C460 1.392 . S
C459 C461 1.367 . S
C460 C459 1.392 . S
C460 C462 1.420 . S
C460 C492 1.423 . S
C461 H447 0.930 . S
C461 C458 1.413 . S
C461 C459 1.367 . S
C462 N457 1.362 . S
C462 C460 1.420 . S
C462 C466 1.429 . S
H463 C468 0.930 . S
N464 Eu426 2.609 . S
N464 C466 1.377 . S
N464 C467 1.321 . S
C465 H451 0.930 . S
C465 C467 1.400 . S
C465 C468 1.386 . S
C466 C462 1.429 . S
C466 N464 1.377 . S
C466 C469 1.411 . S
C467 H449 0.930 . S
C467 N464 1.321 . S
C467 C465 1.400 . S
C468 H463 0.930 . S
C468 C465 1.386 . S
C468 C469 1.395 . S
C469 C466 1.411 . S
C469 C468 1.395 . S
C469 C491 1.420 . S
O470 Eu426 2.558 . S
O470 C490 1.257 . S
O471 Eu426 2.612 1_654 S
O471 Eu437 2.380 . S
O471 C482 1.276 1_554 S
O472 Eu437 2.432 . S
O472 C489 1.256 1_554 S
O473 Eu426 2.339 1_655 S
O473 C489 1.260 . S
O474 Eu426 2.563 1_655 S
O474 C482 1.235 . S
O475 Eu426 2.419 1_655 S
O475 C490 1.249 1_655 S
O476 Eu437 2.558 . S
O476 C501 1.257 1_655 S
O477 Eu426 2.380 1_554 S
O477 Eu437 2.612 1_455 S
O477 C493 1.276 . S
O478 Eu426 2.432 . S
O478 C500 1.264 1_556 S
O479 Eu437 2.339 1_455 S
O479 C500 1.254 . S
O480 Eu437 2.563 1_455 S
O480 C493 1.235 . S
O481 Eu437 2.419 1_455 S
O481 C501 1.249 . S
C482 O471 1.276 1_556 S
C482 O474 1.235 . S
C483 C485 1.393 . S
C483 C487 1.395 1_655 S
C483 C490 1.492 1_655 S
C484 C485 1.392 . S
C484 C486 1.386 . S
C485 C483 1.393 . S
C485 C484 1.392 . S
C485 H502 0.930 . S
C486 C484 1.386 . S
C486 C488 1.395 1_655 S
C486 H503 0.930 . S
C487 C483 1.395 1_455 S
C487 C488 1.379 . S
C487 H504 0.930 . S
C488 C486 1.395 1_455 S
C488 C487 1.379 . S
C488 H505 0.930 . S
C489 O472 1.256 1_556 S
C489 O473 1.260 . S
C490 Eu426 2.848 . S
C490 O470 1.257 . S
C490 O475 1.249 1_455 S
C490 C483 1.492 1_455 S
C491 H456 0.931 . S
C491 C469 1.420 . S
C491 C492 1.351 . S
C492 H454 0.930 . S
C492 C460 1.423 . S
C492 C491 1.351 . S
C493 O477 1.276 . S
C493 O480 1.235 . S
C494 C495 1.393 . S
C494 C498 1.395 1_455 S
C494 C501 1.492 . S
C495 C494 1.393 . S
C495 C496 1.392 . S
C495 H506 0.930 . S
C496 C495 1.392 . S
C496 C497 1.386 . S
C497 C496 1.386 . S
C497 C499 1.395 . S
C497 H507 0.930 . S
C498 C494 1.395 1_655 S
C498 C499 1.379 1_655 S
C498 H508 0.930 . S
C499 C497 1.395 . S
C499 C498 1.379 1_455 S
C499 H509 0.930 1_455 S
C500 O478 1.264 1_554 S
C500 O479 1.254 . S
C501 Eu437 2.848 1_455 S
C501 O476 1.257 1_455 S
C501 O481 1.249 . S
C501 C494 1.492 . S
H502 C485 0.930 . S
H503 C486 0.930 . S
H504 C487 0.930 . S
H505 C488 0.930 . S
H506 C495 0.930 . S
H507 C497 0.930 . S
H508 C498 0.930 . S
H509 C499 0.930 1_655 S
Eu510 N541 2.657 . S
Eu510 N548 2.609 . S
Eu510 O554 2.558 . S
Eu510 O555 2.612 . S
Eu510 O557 2.339 . S
Eu510 O558 2.563 . S
Eu510 O559 2.419 . S
Eu510 O561 2.380 . S
Eu510 O562 2.432 . S
Eu510 C574 2.848 . S
C511 C514 1.429 . S
C511 C515 1.411 . S
C511 N518 1.377 . S
C512 C514 1.420 . S
C512 C516 1.423 . S
C512 C524 1.392 . S
C513 C515 1.420 . S
C513 C516 1.351 . S
C513 H536 0.931 . S
C514 C511 1.429 . S
C514 C512 1.420 . S
C514 N522 1.362 . S
C515 C511 1.411 . S
C515 C513 1.420 . S
C515 C520 1.395 . S
C516 C512 1.423 . S
C516 C513 1.351 . S
C516 H528 0.930 . S
C517 C519 1.400 . S
C517 C520 1.386 . S
C517 H529 0.930 . S
N518 C511 1.377 . S
N518 C519 1.321 . S
N518 Eu521 2.609 . S
C519 C517 1.400 . S
C519 N518 1.321 . S
C519 H526 0.930 . S
C520 C515 1.395 . S
C520 C517 1.386 . S
C520 H539 0.930 . S
Eu521 N518 2.609 . S
Eu521 N522 2.657 . S
Eu521 O555 2.380 1_556 S
Eu521 O556 2.432 . S
Eu521 O560 2.558 . S
Eu521 O561 2.612 1_556 S
Eu521 O563 2.339 . S
Eu521 O564 2.563 . S
Eu521 O565 2.419 . S
Eu521 C585 2.848 . S
N522 C514 1.362 . S
N522 Eu521 2.657 . S
N522 C523 1.334 . S
C523 N522 1.334 . S
C523 C525 1.413 . S
C523 H530 0.929 . S
C524 C512 1.392 . S
C524 C525 1.367 . S
C524 H532 0.930 . S
C525 C523 1.413 . S
C525 C524 1.367 . S
C525 H527 0.930 . S
H526 C519 0.930 . S
H527 C525 0.930 . S
H528 C516 0.930 . S
H529 C517 0.930 . S
H530 C523 0.929 . S
H531 C545 0.930 . S
H532 C524 0.930 . S
H533 C551 0.930 . S
H534 C542 0.929 . S
H535 C549 0.930 . S
H536 C513 0.931 . S
H537 C543 0.930 . S
H538 C576 0.930 . S
H539 C520 0.930 . S
H540 C575 0.931 . S
N541 Eu510 2.657 . S
N541 C542 1.334 . S
N541 C546 1.362 . S
C542 H534 0.929 . S
C542 N541 1.334 . S
C542 C545 1.413 . S
C543 H537 0.930 . S
C543 C544 1.392 . S
C543 C545 1.367 . S
C544 C543 1.392 . S
C544 C546 1.420 . S
C544 C576 1.423 . S
C545 H531 0.930 . S
C545 C542 1.413 . S
C545 C543 1.367 . S
C546 N541 1.362 . S
C546 C544 1.420 . S
C546 C550 1.429 . S
H547 C552 0.930 . S
N548 Eu510 2.609 . S
N548 C550 1.377 . S
N548 C551 1.321 . S
C549 H535 0.930 . S
C549 C551 1.400 . S
C549 C552 1.386 . S
C550 C546 1.429 . S
C550 N548 1.377 . S
C550 C553 1.411 . S
C551 H533 0.930 . S
C551 N548 1.321 . S
C551 C549 1.400 . S
C552 H547 0.930 . S
C552 C549 1.386 . S
C552 C553 1.395 . S
C553 C550 1.411 . S
C553 C552 1.395 . S
C553 C575 1.420 . S
O554 Eu510 2.558 . S
O554 C574 1.257 . S
O555 Eu510 2.612 . S
O555 Eu521 2.380 1_554 S
O555 C566 1.276 . S
O556 Eu521 2.432 . S
O556 C573 1.264 1_556 S
O557 Eu510 2.339 . S
O557 C573 1.254 . S
O558 Eu510 2.563 . S
O558 C566 1.235 . S
O559 Eu510 2.419 . S
O559 C574 1.249 . S
O560 Eu521 2.558 . S
O560 C585 1.257 . S
O561 Eu510 2.380 . S
O561 Eu521 2.612 1_554 S
O561 C577 1.276 1_554 S
O562 Eu510 2.432 . S
O562 C584 1.264 . S
O563 Eu521 2.339 . S
O563 C584 1.254 1_556 S
O564 Eu521 2.563 . S
O564 C577 1.235 . S
O565 Eu521 2.419 . S
O565 C585 1.249 . S
C566 O555 1.276 . S
C566 O558 1.235 . S
C567 C569 1.393 . S
C567 C571 1.395 . S
C567 C574 1.492 . S
C568 C569 1.392 . S
C568 C570 1.386 . S
C569 C567 1.393 . S
C569 C568 1.392 . S
C569 H586 0.930 . S
C570 C568 1.386 . S
C570 C572 1.395 . S
C570 H587 0.930 . S
C571 C567 1.395 . S
C571 C572 1.379 . S
C571 H588 0.930 . S
C572 C570 1.395 . S
C572 C571 1.379 . S
C572 H589 0.930 . S
C573 O556 1.264 1_554 S
C573 O557 1.254 . S
C574 Eu510 2.848 . S
C574 O554 1.257 . S
C574 O559 1.249 . S
C574 C567 1.492 . S
C575 H540 0.931 . S
C575 C553 1.420 . S
C575 C576 1.351 . S
C576 H538 0.930 . S
C576 C544 1.423 . S
C576 C575 1.351 . S
C577 O561 1.276 1_556 S
C577 O564 1.235 . S
C578 C579 1.393 . S
C578 C582 1.395 . S
C578 C585 1.492 . S
C579 C578 1.393 . S
C579 C580 1.392 . S
C579 H590 0.930 . S
C580 C579 1.392 . S
C580 C581 1.386 . S
C581 C580 1.386 . S
C581 C583 1.395 . S
C581 H591 0.930 . S
C582 C578 1.395 . S
C582 C583 1.379 . S
C582 H592 0.930 . S
C583 C581 1.395 . S
C583 C582 1.379 . S
C583 H593 0.930 . S
C584 O562 1.264 . S
C584 O563 1.254 1_554 S
C585 Eu521 2.848 . S
C585 O560 1.257 . S
C585 O565 1.249 . S
C585 C578 1.492 . S
H586 C569 0.930 . S
H587 C570 0.930 . S
H588 C571 0.930 . S
H589 C572 0.930 . S
H590 C579 0.930 . S
H591 C581 0.930 . S
H592 C582 0.930 . S
H593 C583 0.930 . S
Eu594 N625 2.657 . S
Eu594 N632 2.609 . S
Eu594 O638 2.558 . S
Eu594 O639 2.612 . S
Eu594 O641 2.339 . S
Eu594 O642 2.563 . S
Eu594 O643 2.419 . S
Eu594 O645 2.380 . S
Eu594 O646 2.432 . S
Eu594 C658 2.848 . S
C595 C598 1.429 . S
C595 C599 1.411 . S
C595 N602 1.377 . S
C596 C598 1.420 . S
C596 C600 1.423 . S
C596 C608 1.392 . S
C597 C599 1.420 . S
C597 C600 1.351 . S
C597 H620 0.931 . S
C598 C595 1.429 . S
C598 C596 1.420 . S
C598 N606 1.362 . S
C599 C595 1.411 . S
C599 C597 1.420 . S
C599 C604 1.395 . S
C600 C596 1.423 . S
C600 C597 1.351 . S
C600 H612 0.930 . S
C601 C603 1.400 . S
C601 C604 1.386 . S
C601 H613 0.930 . S
N602 C595 1.377 . S
N602 C603 1.321 . S
N602 Eu605 2.609 . S
C603 C601 1.400 . S
C603 N602 1.321 . S
C603 H610 0.930 . S
C604 C599 1.395 . S
C604 C601 1.386 . S
C604 H623 0.930 . S
Eu605 N602 2.609 . S
Eu605 N606 2.657 . S
Eu605 O639 2.380 . S
Eu605 O640 2.432 . S
Eu605 O644 2.558 . S
Eu605 O645 2.612 . S
Eu605 O647 2.339 . S
Eu605 O648 2.563 . S
Eu605 O649 2.419 . S
Eu605 C669 2.848 . S
N606 C598 1.362 . S
N606 Eu605 2.657 . S
N606 C607 1.334 . S
C607 N606 1.334 . S
C607 C609 1.413 . S
C607 H614 0.929 . S
C608 C596 1.392 . S
C608 C609 1.367 . S
C608 H616 0.930 . S
C609 C607 1.413 . S
C609 C608 1.367 . S
C609 H611 0.930 . S
H610 C603 0.930 . S
H611 C609 0.930 . S
H612 C600 0.930 . S
H613 C601 0.930 . S
H614 C607 0.929 . S
H615 C629 0.930 . S
H616 C608 0.930 . S
H617 C635 0.930 . S
H618 C626 0.929 . S
H619 C633 0.930 . S
H620 C597 0.931 . S
H621 C627 0.930 . S
H622 C660 0.930 . S
H623 C604 0.930 . S
H624 C659 0.931 . S
N625 Eu594 2.657 . S
N625 C626 1.334 . S
N625 C630 1.362 . S
C626 H618 0.929 . S
C626 N625 1.334 . S
C626 C629 1.413 1_455 S
C627 H621 0.930 . S
C627 C628 1.392 . S
C627 C629 1.367 . S
C628 C627 1.392 . S
C628 C630 1.420 1_655 S
C628 C660 1.423 . S
C629 H615 0.930 . S
C629 C626 1.413 1_655 S
C629 C627 1.367 . S
C630 N625 1.362 . S
C630 C628 1.420 1_455 S
C630 C634 1.429 . S
H631 C636 0.930 . S
N632 Eu594 2.609 . S
N632 C634 1.377 . S
N632 C635 1.321 . S
C633 H619 0.930 . S
C633 C635 1.400 . S
C633 C636 1.386 . S
C634 C630 1.429 . S
C634 N632 1.377 . S
C634 C637 1.411 . S
C635 H617 0.930 . S
C635 N632 1.321 . S
C635 C633 1.400 . S
C636 H631 0.930 . S
C636 C633 1.386 . S
C636 C637 1.395 . S
C637 C634 1.411 . S
C637 C636 1.395 . S
C637 C659 1.420 1_455 S
O638 Eu594 2.558 . S
O638 C658 1.257 . S
O639 Eu594 2.612 . S
O639 Eu605 2.380 . S
O639 C650 1.276 . S
O640 Eu605 2.432 . S
O640 C657 1.264 . S
O641 Eu594 2.339 . S
O641 C657 1.254 . S
O642 Eu594 2.563 . S
O642 C650 1.235 . S
O643 Eu594 2.419 . S
O643 C658 1.249 . S
O644 Eu605 2.558 . S
O644 C669 1.257 . S
O645 Eu594 2.380 . S
O645 Eu605 2.612 . S
O645 C661 1.276 . S
O646 Eu594 2.432 . S
O646 C668 1.264 . S
O647 Eu605 2.339 . S
O647 C668 1.254 . S
O648 Eu605 2.563 . S
O648 C661 1.235 . S
O649 Eu605 2.419 . S
O649 C669 1.249 . S
C650 O639 1.276 . S
C650 O642 1.235 . S
C651 C653 1.393 . S
C651 C655 1.395 . S
C651 C658 1.492 . S
C652 C653 1.392 . S
C652 C654 1.386 . S
C653 C651 1.393 . S
C653 C652 1.392 . S
C653 H670 0.930 . S
C654 C652 1.386 . S
C654 C656 1.395 . S
C654 H671 0.930 . S
C655 C651 1.395 . S
C655 C656 1.379 . S
C655 H672 0.930 . S
C656 C654 1.395 . S
C656 C655 1.379 . S
C656 H673 0.930 . S
C657 O640 1.264 . S
C657 O641 1.254 . S
C658 Eu594 2.848 . S
C658 O638 1.257 . S
C658 O643 1.249 . S
C658 C651 1.492 . S
C659 H624 0.931 . S
C659 C637 1.420 1_655 S
C659 C660 1.351 . S
C660 H622 0.930 . S
C660 C628 1.423 . S
C660 C659 1.351 . S
C661 O645 1.276 . S
C661 O648 1.235 . S
C662 C663 1.393 . S
C662 C666 1.395 . S
C662 C669 1.492 . S
C663 C662 1.393 . S
C663 C664 1.392 . S
C663 H674 0.930 . S
C664 C663 1.392 . S
C664 C665 1.386 . S
C665 C664 1.386 . S
C665 C667 1.395 . S
C665 H675 0.930 . S
C666 C662 1.395 . S
C666 C667 1.379 . S
C666 H676 0.930 . S
C667 C665 1.395 . S
C667 C666 1.379 . S
C667 H677 0.930 . S
C668 O646 1.264 . S
C668 O647 1.254 . S
C669 Eu605 2.848 . S
C669 O644 1.257 . S
C669 O649 1.249 . S
C669 C662 1.492 . S
H670 C653 0.930 . S
H671 C654 0.930 . S
H672 C655 0.930 . S
H673 C656 0.930 . S
H674 C663 0.930 . S
H675 C665 0.930 . S
H676 C666 0.930 . S
H677 C667 0.930 . S
Eu678 N709 2.657 . S
Eu678 N716 2.609 . S
Eu678 O722 2.558 . S
Eu678 O723 2.612 . S
Eu678 O725 2.339 . S
Eu678 O726 2.563 . S
Eu678 O727 2.419 . S
Eu678 O729 2.380 . S
Eu678 O730 2.432 . S
Eu678 C742 2.848 . S
C679 C682 1.429 . S
C679 C683 1.411 . S
C679 N686 1.377 . S
C680 C682 1.420 . S
C680 C684 1.423 . S
C680 C692 1.392 . S
C681 C683 1.420 . S
C681 C684 1.351 . S
C681 H704 0.931 . S
C682 C679 1.429 . S
C682 C680 1.420 . S
C682 N690 1.362 . S
C683 C679 1.411 . S
C683 C681 1.420 . S
C683 C688 1.395 . S
C684 C680 1.423 . S
C684 C681 1.351 . S
C684 H696 0.930 . S
C685 C687 1.400 . S
C685 C688 1.386 . S
C685 H697 0.930 . S
N686 C679 1.377 . S
N686 C687 1.321 . S
N686 Eu689 2.609 . S
C687 C685 1.400 . S
C687 N686 1.321 . S
C687 H694 0.930 . S
C688 C683 1.395 . S
C688 C685 1.386 . S
C688 H707 0.930 . S
Eu689 N686 2.609 . S
Eu689 N690 2.657 . S
Eu689 O723 2.380 . S
Eu689 O724 2.432 . S
Eu689 O728 2.558 . S
Eu689 O729 2.612 . S
Eu689 O731 2.339 . S
Eu689 O732 2.563 . S
Eu689 O733 2.419 . S
Eu689 C753 2.848 . S
N690 C682 1.362 . S
N690 Eu689 2.657 . S
N690 C691 1.334 . S
C691 N690 1.334 . S
C691 C693 1.413 . S
C691 H698 0.929 . S
C692 C680 1.392 . S
C692 C693 1.367 . S
C692 H700 0.930 . S
C693 C691 1.413 . S
C693 C692 1.367 . S
C693 H695 0.930 . S
H694 C687 0.930 . S
H695 C693 0.930 . S
H696 C684 0.930 . S
H697 C685 0.930 . S
H698 C691 0.929 . S
H699 C713 0.930 . S
H700 C692 0.930 . S
H701 C719 0.930 . S
H702 C710 0.929 . S
H703 C717 0.930 . S
H704 C681 0.931 . S
H705 C711 0.930 . S
H706 C744 0.930 . S
H707 C688 0.930 . S
H708 C743 0.931 . S
N709 Eu678 2.657 . S
N709 C710 1.334 . S
N709 C714 1.362 . S
C710 H702 0.929 . S
C710 N709 1.334 . S
C710 C713 1.413 . S
C711 H705 0.930 . S
C711 C712 1.392 . S
C711 C713 1.367 . S
C712 C711 1.392 . S
C712 C714 1.420 . S
C712 C744 1.423 . S
C713 H699 0.930 . S
C713 C710 1.413 . S
C713 C711 1.367 . S
C714 N709 1.362 . S
C714 C712 1.420 . S
C714 C718 1.429 . S
H715 C720 0.930 . S
N716 Eu678 2.609 . S
N716 C718 1.377 . S
N716 C719 1.321 . S
C717 H703 0.930 . S
C717 C719 1.400 . S
C717 C720 1.386 . S
C718 C714 1.429 . S
C718 N716 1.377 . S
C718 C721 1.411 . S
C719 H701 0.930 . S
C719 N716 1.321 . S
C719 C717 1.400 . S
C720 H715 0.930 . S
C720 C717 1.386 . S
C720 C721 1.395 . S
C721 C718 1.411 . S
C721 C720 1.395 . S
C721 C743 1.420 . S
O722 Eu678 2.558 . S
O722 C742 1.257 . S
O723 Eu678 2.612 . S
O723 Eu689 2.380 . S
O723 C734 1.276 . S
O724 Eu689 2.432 . S
O724 C741 1.264 . S
O725 Eu678 2.339 . S
O725 C741 1.254 . S
O726 Eu678 2.563 . S
O726 C734 1.235 . S
O727 Eu678 2.419 . S
O727 C742 1.249 . S
O728 Eu689 2.558 . S
O728 C753 1.257 . S
O729 Eu678 2.380 . S
O729 Eu689 2.612 . S
O729 C745 1.276 . S
O730 Eu678 2.432 . S
O730 C752 1.264 . S
O731 Eu689 2.339 . S
O731 C752 1.254 . S
O732 Eu689 2.563 . S
O732 C745 1.235 . S
O733 Eu689 2.419 . S
O733 C753 1.249 . S
C734 O723 1.276 . S
C734 O726 1.235 . S
C735 C737 1.393 . S
C735 C739 1.395 . S
C735 C742 1.492 . S
C736 C737 1.392 . S
C736 C738 1.386 . S
C737 C735 1.393 . S
C737 C736 1.392 . S
C737 H754 0.930 . S
C738 C736 1.386 . S
C738 C740 1.395 . S
C738 H755 0.930 . S
C739 C735 1.395 . S
C739 C740 1.379 . S
C739 H756 0.930 . S
C740 C738 1.395 . S
C740 C739 1.379 . S
C740 H757 0.930 . S
C741 O724 1.264 . S
C741 O725 1.254 . S
C742 Eu678 2.848 . S
C742 O722 1.257 . S
C742 O727 1.249 . S
C742 C735 1.492 . S
C743 H708 0.931 . S
C743 C721 1.420 . S
C743 C744 1.351 . S
C744 H706 0.930 . S
C744 C712 1.423 . S
C744 C743 1.351 . S
C745 O729 1.276 . S
C745 O732 1.235 . S
C746 C747 1.393 . S
C746 C750 1.395 . S
C746 C753 1.492 . S
C747 C746 1.393 . S
C747 C748 1.392 . S
C747 H758 0.930 . S
C748 C747 1.392 . S
C748 C749 1.386 . S
C749 C748 1.386 . S
C749 C751 1.395 . S
C749 H759 0.930 . S
C750 C746 1.395 . S
C750 C751 1.379 . S
C750 H760 0.930 . S
C751 C749 1.395 . S
C751 C750 1.379 . S
C751 H761 0.930 . S
C752 O730 1.264 . S
C752 O731 1.254 . S
C753 Eu689 2.848 . S
C753 O728 1.257 . S
C753 O733 1.249 . S
C753 C746 1.492 . S
H754 C737 0.930 . S
H755 C738 0.930 . S
H756 C739 0.930 . S
H757 C740 0.930 . S
H758 C747 0.930 . S
H759 C749 0.930 . S
H760 C750 0.930 . S
H761 C751 0.930 . S
Eu762 N793 2.657 . S
Eu762 N800 2.609 . S
Eu762 O806 2.558 . S
Eu762 O807 2.612 . S
Eu762 O809 2.339 . S
Eu762 O810 2.563 . S
Eu762 O811 2.419 . S
Eu762 O813 2.380 . S
Eu762 O814 2.432 . S
Eu762 C826 2.848 . S
C763 C766 1.429 . S
C763 C767 1.411 . S
C763 N770 1.377 . S
C764 C766 1.420 . S
C764 C768 1.423 . S
C764 C776 1.392 . S
C765 C767 1.420 . S
C765 C768 1.351 . S
C765 H788 0.931 . S
C766 C763 1.429 . S
C766 C764 1.420 . S
C766 N774 1.362 . S
C767 C763 1.411 . S
C767 C765 1.420 . S
C767 C772 1.395 . S
C768 C764 1.423 . S
C768 C765 1.351 . S
C768 H780 0.930 . S
C769 C771 1.400 . S
C769 C772 1.386 . S
C769 H781 0.932 . S
N770 C763 1.377 . S
N770 C771 1.321 . S
N770 Eu773 2.609 . S
C771 C769 1.400 . S
C771 N770 1.321 . S
C771 H778 0.930 . S
C772 C767 1.395 . S
C772 C769 1.386 . S
C772 H791 0.930 . S
Eu773 N770 2.609 . S
Eu773 N774 2.657 . S
Eu773 O807 2.380 . S
Eu773 O808 2.432 . S
Eu773 O812 2.558 . S
Eu773 O813 2.612 . S
Eu773 O815 2.339 . S
Eu773 O816 2.563 . S
Eu773 O817 2.419 . S
Eu773 C837 2.848 . S
N774 C766 1.362 . S
N774 Eu773 2.657 . S
N774 C775 1.334 . S
C775 N774 1.334 . S
C775 C777 1.413 . S
C775 H782 0.929 . S
C776 C764 1.392 . S
C776 C777 1.367 . S
C776 H784 0.930 . S
C777 C775 1.413 . S
C777 C776 1.367 . S
C777 H779 0.930 . S
H778 C771 0.930 . S
H779 C777 0.930 . S
H780 C768 0.930 . S
H781 C769 0.932 . S
H782 C775 0.929 . S
H783 C797 0.930 . S
H784 C776 0.930 . S
H785 C803 0.930 . S
H786 C794 0.929 . S
H787 C801 0.930 . S
H788 C765 0.931 . S
H789 C795 0.930 . S
H790 C828 0.930 . S
H791 C772 0.930 . S
H792 C827 0.931 . S
N793 Eu762 2.657 . S
N793 C794 1.334 . S
N793 C798 1.362 . S
C794 H786 0.929 . S
C794 N793 1.334 . S
C794 C797 1.413 . S
C795 H789 0.930 . S
C795 C796 1.392 . S
C795 C797 1.367 . S
C796 C795 1.392 . S
C796 C798 1.420 . S
C796 C828 1.423 . S
C797 H783 0.930 . S
C797 C794 1.413 . S
C797 C795 1.367 . S
C798 N793 1.362 . S
C798 C796 1.420 . S
C798 C802 1.429 . S
H799 C804 0.930 . S
N800 Eu762 2.609 . S
N800 C802 1.377 . S
N800 C803 1.321 . S
C801 H787 0.930 . S
C801 C803 1.400 . S
C801 C804 1.386 . S
C802 C798 1.429 . S
C802 N800 1.377 . S
C802 C805 1.411 . S
C803 H785 0.930 . S
C803 N800 1.321 . S
C803 C801 1.400 . S
C804 H799 0.930 . S
C804 C801 1.386 . S
C804 C805 1.395 . S
C805 C802 1.411 . S
C805 C804 1.395 . S
C805 C827 1.420 . S
O806 Eu762 2.558 . S
O806 C826 1.257 . S
O807 Eu762 2.612 . S
O807 Eu773 2.380 . S
O807 C818 1.276 . S
O808 Eu773 2.432 . S
O808 C825 1.264 . S
O809 Eu762 2.339 . S
O809 C825 1.254 . S
O810 Eu762 2.563 . S
O810 C818 1.235 . S
O811 Eu762 2.419 . S
O811 C826 1.249 . S
O812 Eu773 2.558 . S
O812 C837 1.257 . S
O813 Eu762 2.380 . S
O813 Eu773 2.612 . S
O813 C829 1.276 . S
O814 Eu762 2.432 . S
O814 C836 1.264 . S
O815 Eu773 2.339 . S
O815 C836 1.254 . S
O816 Eu773 2.563 . S
O816 C829 1.235 . S
O817 Eu773 2.419 . S
O817 C837 1.249 . S
C818 O807 1.276 . S
C818 O810 1.235 . S
C819 C821 1.393 . S
C819 C823 1.395 . S
C819 C826 1.492 . S
C820 C821 1.392 . S
C820 C822 1.386 . S
C821 C819 1.393 . S
C821 C820 1.392 . S
C821 H838 0.930 . S
C822 C820 1.386 . S
C822 C824 1.395 . S
C822 H839 0.930 . S
C823 C819 1.395 . S
C823 C824 1.379 . S
C823 H840 0.930 . S
C824 C822 1.395 . S
C824 C823 1.379 . S
C824 H841 0.930 . S
C825 O808 1.264 . S
C825 O809 1.254 . S
C826 Eu762 2.848 . S
C826 O806 1.257 . S
C826 O811 1.249 . S
C826 C819 1.492 . S
C827 H792 0.931 . S
C827 C805 1.420 . S
C827 C828 1.351 . S
C828 H790 0.930 . S
C828 C796 1.423 . S
C828 C827 1.351 . S
C829 O813 1.276 . S
C829 O816 1.235 . S
C830 C831 1.393 . S
C830 C834 1.395 . S
C830 C837 1.492 . S
C831 C830 1.393 . S
C831 C832 1.392 . S
C831 H842 0.930 . S
C832 C831 1.392 . S
C832 C833 1.386 . S
C833 C832 1.386 . S
C833 C835 1.395 . S
C833 H843 0.930 . S
C834 C830 1.395 . S
C834 C835 1.379 . S
C834 H844 0.930 . S
C835 C833 1.395 . S
C835 C834 1.379 . S
C835 H845 0.930 . S
C836 O814 1.264 . S
C836 O815 1.254 . S
C837 Eu773 2.848 . S
C837 O812 1.257 . S
C837 O817 1.249 . S
C837 C830 1.492 . S
H838 C821 0.930 . S
H839 C822 0.930 . S
H840 C823 0.930 . S
H841 C824 0.930 . S
H842 C831 0.930 . S
H843 C833 0.930 . S
H844 C834 0.930 . S
H845 C835 0.930 . S
Eu846 N877 2.657 . S
Eu846 N884 2.609 . S
Eu846 O890 2.558 . S
Eu846 O891 2.612 . S
Eu846 O893 2.339 . S
Eu846 O894 2.563 . S
Eu846 O895 2.419 . S
Eu846 O897 2.380 . S
Eu846 O898 2.432 . S
Eu846 C910 2.848 . S
C847 C850 1.429 . S
C847 C851 1.411 . S
C847 N854 1.377 . S
C848 C850 1.420 . S
C848 C852 1.423 . S
C848 C860 1.392 . S
C849 C851 1.420 . S
C849 C852 1.351 . S
C849 H872 0.931 . S
C850 C847 1.429 . S
C850 C848 1.420 . S
C850 N858 1.362 . S
C851 C847 1.411 . S
C851 C849 1.420 . S
C851 C856 1.395 . S
C852 C848 1.423 . S
C852 C849 1.351 . S
C852 H864 0.930 . S
C853 C855 1.400 . S
C853 C856 1.386 . S
C853 H865 0.930 . S
N854 C847 1.377 . S
N854 C855 1.321 . S
N854 Eu857 2.609 . S
C855 C853 1.400 . S
C855 N854 1.321 . S
C855 H862 0.930 . S
C856 C851 1.395 . S
C856 C853 1.386 . S
C856 H875 0.930 . S
Eu857 N854 2.609 . S
Eu857 N858 2.657 . S
Eu857 O891 2.380 . S
Eu857 O892 2.432 . S
Eu857 O896 2.558 . S
Eu857 O897 2.612 . S
Eu857 O899 2.339 . S
Eu857 O900 2.563 . S
Eu857 O901 2.419 . S
Eu857 C921 2.848 . S
N858 C850 1.362 . S
N858 Eu857 2.657 . S
N858 C859 1.334 . S
C859 N858 1.334 . S
C859 C861 1.413 . S
C859 H866 0.929 . S
C860 C848 1.392 . S
C860 C861 1.367 . S
C860 H868 0.930 . S
C861 C859 1.413 . S
C861 C860 1.367 . S
C861 H863 0.930 . S
H862 C855 0.930 . S
H863 C861 0.930 . S
H864 C852 0.930 . S
H865 C853 0.930 . S
H866 C859 0.929 . S
H867 C881 0.930 . S
H868 C860 0.930 . S
H869 C887 0.930 . S
H870 C878 0.929 . S
H871 C885 0.930 . S
H872 C849 0.931 . S
H873 C879 0.930 . S
H874 C912 0.930 . S
H875 C856 0.930 . S
H876 C911 0.931 . S
N877 Eu846 2.657 . S
N877 C878 1.334 . S
N877 C882 1.362 . S
C878 H870 0.929 . S
C878 N877 1.334 . S
C878 C881 1.413 . S
C879 H873 0.930 . S
C879 C880 1.392 . S
C879 C881 1.367 . S
C880 C879 1.392 . S
C880 C882 1.420 . S
C880 C912 1.423 . S
C881 H867 0.930 . S
C881 C878 1.413 . S
C881 C879 1.367 . S
C882 N877 1.362 . S
C882 C880 1.420 . S
C882 C886 1.429 . S
H883 C888 0.930 . S
N884 Eu846 2.609 . S
N884 C886 1.377 . S
N884 C887 1.321 . S
C885 H871 0.930 . S
C885 C887 1.400 . S
C885 C888 1.386 . S
C886 C882 1.429 . S
C886 N884 1.377 . S
C886 C889 1.411 . S
C887 H869 0.930 . S
C887 N884 1.321 . S
C887 C885 1.400 . S
C888 H883 0.930 . S
C888 C885 1.386 . S
C888 C889 1.395 . S
C889 C886 1.411 . S
C889 C888 1.395 . S
C889 C911 1.420 . S
O890 Eu846 2.558 . S
O890 C910 1.257 . S
O891 Eu846 2.612 . S
O891 Eu857 2.380 . S
O891 C902 1.276 . S
O892 Eu857 2.432 . S
O892 C909 1.264 . S
O893 Eu846 2.339 . S
O893 C909 1.254 . S
O894 Eu846 2.563 . S
O894 C902 1.235 . S
O895 Eu846 2.419 . S
O895 C910 1.249 . S
O896 Eu857 2.558 . S
O896 C921 1.257 . S
O897 Eu846 2.380 . S
O897 Eu857 2.612 . S
O897 C913 1.276 . S
O898 Eu846 2.432 . S
O898 C920 1.264 . S
O899 Eu857 2.339 . S
O899 C920 1.254 . S
O900 Eu857 2.563 . S
O900 C913 1.235 . S
O901 Eu857 2.419 . S
O901 C921 1.249 . S
C902 O891 1.276 . S
C902 O894 1.235 . S
C903 C905 1.393 . S
C903 C907 1.395 . S
C903 C910 1.492 . S
C904 C905 1.392 . S
C904 C906 1.386 . S
C905 C903 1.393 . S
C905 C904 1.392 . S
C905 H922 0.930 . S
C906 C904 1.386 . S
C906 C908 1.395 . S
C906 H923 0.930 . S
C907 C903 1.395 . S
C907 C908 1.379 . S
C907 H924 0.930 . S
C908 C906 1.395 . S
C908 C907 1.379 . S
C908 H925 0.930 . S
C909 O892 1.264 . S
C909 O893 1.254 . S
C910 Eu846 2.848 . S
C910 O890 1.257 . S
C910 O895 1.249 . S
C910 C903 1.492 . S
C911 H876 0.931 . S
C911 C889 1.420 . S
C911 C912 1.351 . S
C912 H874 0.930 . S
C912 C880 1.423 . S
C912 C911 1.351 . S
C913 O897 1.276 . S
C913 O900 1.235 . S
C914 C915 1.393 . S
C914 C918 1.395 . S
C914 C921 1.492 . S
C915 C914 1.393 . S
C915 C916 1.392 . S
C915 H926 0.930 . S
C916 C915 1.392 . S
C916 C917 1.386 . S
C917 C916 1.386 . S
C917 C919 1.395 . S
C917 H927 0.930 . S
C918 C914 1.395 . S
C918 C919 1.379 . S
C918 H928 0.930 . S
C919 C917 1.395 . S
C919 C918 1.379 . S
C919 H929 0.930 . S
C920 O898 1.264 . S
C920 O899 1.254 . S
C921 Eu857 2.848 . S
C921 O896 1.257 . S
C921 O901 1.249 . S
C921 C914 1.492 . S
H922 C905 0.930 . S
H923 C906 0.930 . S
H924 C907 0.930 . S
H925 C908 0.930 . S
H926 C915 0.930 . S
H927 C917 0.930 . S
H928 C918 0.930 . S
H929 C919 0.930 . S
Eu930 N961 2.657 . S
Eu930 N968 2.609 . S
Eu930 O974 2.558 . S
Eu930 O975 2.612 . S
Eu930 O977 2.339 . S
Eu930 O978 2.563 . S
Eu930 O979 2.419 . S
Eu930 O981 2.380 . S
Eu930 O982 2.432 . S
Eu930 C994 2.848 . S
C931 C934 1.429 . S
C931 C935 1.411 . S
C931 N938 1.377 . S
C932 C934 1.420 . S
C932 C936 1.423 . S
C932 C944 1.392 . S
C933 C935 1.420 . S
C933 C936 1.351 . S
C933 H956 0.931 . S
C934 C931 1.429 . S
C934 C932 1.420 . S
C934 N942 1.362 . S
C935 C931 1.411 . S
C935 C933 1.420 . S
C935 C940 1.395 . S
C936 C932 1.423 . S
C936 C933 1.351 . S
C936 H948 0.930 . S
C937 C939 1.400 . S
C937 C940 1.386 . S
C937 H949 0.930 . S
N938 C931 1.377 . S
N938 C939 1.321 . S
N938 Eu941 2.609 . S
C939 C937 1.400 . S
C939 N938 1.321 . S
C939 H946 0.930 . S
C940 C935 1.395 . S
C940 C937 1.386 . S
C940 H959 0.930 . S
Eu941 N938 2.609 . S
Eu941 N942 2.657 . S
Eu941 O975 2.380 . S
Eu941 O976 2.432 . S
Eu941 O980 2.558 . S
Eu941 O981 2.612 . S
Eu941 O983 2.339 . S
Eu941 O984 2.563 . S
Eu941 O985 2.419 . S
Eu941 C1005 2.848 . S
N942 C934 1.362 . S
N942 Eu941 2.657 . S
N942 C943 1.334 . S
C943 N942 1.334 . S
C943 C945 1.413 . S
C943 H950 0.929 . S
C944 C932 1.392 . S
C944 C945 1.367 . S
C944 H952 0.930 . S
C945 C943 1.413 . S
C945 C944 1.367 . S
C945 H947 0.930 . S
H946 C939 0.930 . S
H947 C945 0.930 . S
H948 C936 0.930 . S
H949 C937 0.930 . S
H950 C943 0.929 . S
H951 C965 0.930 . S
H952 C944 0.930 . S
H953 C971 0.930 . S
H954 C962 0.929 . S
H955 C969 0.930 . S
H956 C933 0.931 . S
H957 C963 0.930 . S
H958 C996 0.930 . S
H959 C940 0.930 . S
H960 C995 0.931 . S
N961 Eu930 2.657 . S
N961 C962 1.334 . S
N961 C966 1.362 . S
C962 H954 0.929 . S
C962 N961 1.334 . S
C962 C965 1.413 . S
C963 H957 0.930 . S
C963 C964 1.392 . S
C963 C965 1.367 . S
C964 C963 1.392 . S
C964 C966 1.420 . S
C964 C996 1.423 . S
C965 H951 0.930 . S
C965 C962 1.413 . S
C965 C963 1.367 . S
C966 N961 1.362 . S
C966 C964 1.420 . S
C966 C970 1.429 . S
H967 C972 0.930 . S
N968 Eu930 2.609 . S
N968 C970 1.377 . S
N968 C971 1.321 . S
C969 H955 0.930 . S
C969 C971 1.400 . S
C969 C972 1.386 . S
C970 C966 1.429 . S
C970 N968 1.377 . S
C970 C973 1.411 . S
C971 H953 0.930 . S
C971 N968 1.321 . S
C971 C969 1.400 . S
C972 H967 0.930 . S
C972 C969 1.386 . S
C972 C973 1.395 . S
C973 C970 1.411 . S
C973 C972 1.395 . S
C973 C995 1.420 . S
O974 Eu930 2.558 . S
O974 C994 1.257 . S
O975 Eu930 2.612 . S
O975 Eu941 2.380 . S
O975 C986 1.276 . S
O976 Eu941 2.432 . S
O976 C993 1.264 . S
O977 Eu930 2.339 . S
O977 C993 1.254 . S
O978 Eu930 2.563 . S
O978 C986 1.235 . S
O979 Eu930 2.419 . S
O979 C994 1.249 . S
O980 Eu941 2.558 . S
O980 C1005 1.257 . S
O981 Eu930 2.380 . S
O981 Eu941 2.612 . S
O981 C997 1.276 . S
O982 Eu930 2.432 . S
O982 C1004 1.264 . S
O983 Eu941 2.339 . S
O983 C1004 1.254 . S
O984 Eu941 2.563 . S
O984 C997 1.235 . S
O985 Eu941 2.419 . S
O985 C1005 1.249 . S
C986 O975 1.276 . S
C986 O978 1.235 . S
C987 C989 1.393 . S
C987 C991 1.395 . S
C987 C994 1.492 . S
C988 C989 1.392 . S
C988 C990 1.386 . S
C989 C987 1.393 . S
C989 C988 1.392 . S
C989 H1006 0.930 . S
C990 C988 1.386 . S
C990 C992 1.395 . S
C990 H1007 0.930 . S
C991 C987 1.395 . S
C991 C992 1.379 . S
C991 H1008 0.930 . S
C992 C990 1.395 . S
C992 C991 1.379 . S
C992 H1009 0.930 . S
C993 O976 1.264 . S
C993 O977 1.254 . S
C994 Eu930 2.848 . S
C994 O974 1.257 . S
C994 O979 1.249 . S
C994 C987 1.492 . S
C995 H960 0.931 . S
C995 C973 1.420 . S
C995 C996 1.351 . S
C996 H958 0.930 . S
C996 C964 1.423 . S
C996 C995 1.351 . S
C997 O981 1.276 . S
C997 O984 1.235 . S
C998 C999 1.393 . S
C998 C1002 1.395 . S
C998 C1005 1.492 . S
C999 C998 1.393 . S
C999 C1000 1.392 . S
C999 H1010 0.930 . S
C1000 C999 1.392 . S
C1000 C1001 1.386 . S
C1001 C1000 1.386 . S
C1001 C1003 1.395 . S
C1001 H1011 0.930 . S
C1002 C998 1.395 . S
C1002 C1003 1.379 . S
C1002 H1012 0.930 . S
C1003 C1001 1.395 . S
C1003 C1002 1.379 . S
C1003 H1013 0.930 . S
C1004 O982 1.264 . S
C1004 O983 1.254 . S
C1005 Eu941 2.848 . S
C1005 O980 1.257 . S
C1005 O985 1.249 . S
C1005 C998 1.492 . S
H1006 C989 0.930 . S
H1007 C990 0.930 . S
H1008 C991 0.930 . S
H1009 C992 0.930 . S
H1010 C999 0.930 . S
H1011 C1001 0.930 . S
H1012 C1002 0.930 . S
H1013 C1003 0.930 . S
Eu1014 N1045 2.657 . S
Eu1014 N1052 2.609 . S
Eu1014 O1058 2.558 . S
Eu1014 O1059 2.612 . S
Eu1014 O1061 2.339 . S
Eu1014 O1062 2.563 . S
Eu1014 O1063 2.419 . S
Eu1014 O1065 2.380 . S
Eu1014 O1066 2.432 . S
Eu1014 C1078 2.848 . S
C1015 C1018 1.429 . S
C1015 C1019 1.411 . S
C1015 N1022 1.377 . S
C1016 C1018 1.420 . S
C1016 C1020 1.423 . S
C1016 C1028 1.392 . S
C1017 C1019 1.420 . S
C1017 C1020 1.351 . S
C1017 H1040 0.931 . S
C1018 C1015 1.429 . S
C1018 C1016 1.420 . S
C1018 N1026 1.362 . S
C1019 C1015 1.411 . S
C1019 C1017 1.420 . S
C1019 C1024 1.395 . S
C1020 C1016 1.423 . S
C1020 C1017 1.351 . S
C1020 H1032 0.930 . S
C1021 C1023 1.400 . S
C1021 C1024 1.386 . S
C1021 H1033 0.930 . S
N1022 C1015 1.377 . S
N1022 C1023 1.321 . S
N1022 Eu1025 2.609 . S
C1023 C1021 1.400 . S
C1023 N1022 1.321 . S
C1023 H1030 0.930 . S
C1024 C1019 1.395 . S
C1024 C1021 1.386 . S
C1024 H1043 0.930 . S
Eu1025 N1022 2.609 . S
Eu1025 N1026 2.657 . S
Eu1025 O1059 2.380 . S
Eu1025 O1060 2.432 . S
Eu1025 O1064 2.558 . S
Eu1025 O1065 2.612 . S
Eu1025 O1067 2.339 . S
Eu1025 O1068 2.563 . S
Eu1025 O1069 2.419 . S
Eu1025 C1089 2.848 . S
N1026 C1018 1.362 . S
N1026 Eu1025 2.657 . S
N1026 C1027 1.334 . S
C1027 N1026 1.334 . S
C1027 C1029 1.413 . S
C1027 H1034 0.929 . S
C1028 C1016 1.392 . S
C1028 C1029 1.367 . S
C1028 H1036 0.930 . S
C1029 C1027 1.413 . S
C1029 C1028 1.367 . S
C1029 H1031 0.930 . S
H1030 C1023 0.930 . S
H1031 C1029 0.930 . S
H1032 C1020 0.930 . S
H1033 C1021 0.930 . S
H1034 C1027 0.929 . S
H1035 C1049 0.930 . S
H1036 C1028 0.930 . S
H1037 C1055 0.930 . S
H1038 C1046 0.929 . S
H1039 C1053 0.930 . S
H1040 C1017 0.931 . S
H1041 C1047 0.930 . S
H1042 C1080 0.930 . S
H1043 C1024 0.930 . S
H1044 C1079 0.931 . S
N1045 Eu1014 2.657 . S
N1045 C1046 1.334 . S
N1045 C1050 1.362 . S
C1046 H1038 0.929 . S
C1046 N1045 1.334 . S
C1046 C1049 1.413 1_655 S
C1047 H1041 0.930 . S
C1047 C1048 1.392 . S
C1047 C1049 1.367 . S
C1048 C1047 1.392 . S
C1048 C1050 1.420 1_455 S
C1048 C1080 1.423 . S
C1049 H1035 0.930 . S
C1049 C1046 1.413 1_455 S
C1049 C1047 1.367 . S
C1050 N1045 1.362 . S
C1050 C1048 1.420 1_655 S
C1050 C1054 1.429 . S
H1051 C1056 0.930 . S
N1052 Eu1014 2.609 . S
N1052 C1054 1.377 . S
N1052 C1055 1.321 . S
C1053 H1039 0.930 . S
C1053 C1055 1.400 . S
C1053 C1056 1.386 . S
C1054 C1050 1.429 . S
C1054 N1052 1.377 . S
C1054 C1057 1.411 . S
C1055 H1037 0.930 . S
C1055 N1052 1.321 . S
C1055 C1053 1.400 . S
C1056 H1051 0.930 . S
C1056 C1053 1.386 . S
C1056 C1057 1.395 . S
C1057 C1054 1.411 . S
C1057 C1056 1.395 . S
C1057 C1079 1.420 1_655 S
O1058 Eu1014 2.558 . S
O1058 C1078 1.257 . S
O1059 Eu1014 2.612 . S
O1059 Eu1025 2.380 . S
O1059 C1070 1.276 . S
O1060 Eu1025 2.432 . S
O1060 C1077 1.264 . S
O1061 Eu1014 2.339 . S
O1061 C1077 1.254 . S
O1062 Eu1014 2.563 . S
O1062 C1070 1.235 . S
O1063 Eu1014 2.419 . S
O1063 C1078 1.249 . S
O1064 Eu1025 2.558 . S
O1064 C1089 1.257 . S
O1065 Eu1014 2.380 . S
O1065 Eu1025 2.612 . S
O1065 C1081 1.276 . S
O1066 Eu1014 2.432 . S
O1066 C1088 1.264 . S
O1067 Eu1025 2.339 . S
O1067 C1088 1.254 . S
O1068 Eu1025 2.563 . S
O1068 C1081 1.235 . S
O1069 Eu1025 2.419 . S
O1069 C1089 1.249 . S
C1070 O1059 1.276 . S
C1070 O1062 1.235 . S
C1071 C1073 1.393 . S
C1071 C1075 1.395 . S
C1071 C1078 1.492 . S
C1072 C1073 1.392 . S
C1072 C1074 1.386 . S
C1073 C1071 1.393 . S
C1073 C1072 1.392 . S
C1073 H1090 0.930 . S
C1074 C1072 1.386 . S
C1074 C1076 1.395 . S
C1074 H1091 0.930 . S
C1075 C1071 1.395 . S
C1075 C1076 1.379 . S
C1075 H1092 0.930 . S
C1076 C1074 1.395 . S
C1076 C1075 1.379 . S
C1076 H1093 0.930 . S
C1077 O1060 1.264 . S
C1077 O1061 1.254 . S
C1078 Eu1014 2.848 . S
C1078 O1058 1.257 . S
C1078 O1063 1.249 . S
C1078 C1071 1.492 . S
C1079 H1044 0.931 . S
C1079 C1057 1.420 1_455 S
C1079 C1080 1.351 . S
C1080 H1042 0.930 . S
C1080 C1048 1.423 . S
C1080 C1079 1.351 . S
C1081 O1065 1.276 . S
C1081 O1068 1.235 . S
C1082 C1083 1.393 . S
C1082 C1086 1.395 . S
C1082 C1089 1.492 . S
C1083 C1082 1.393 . S
C1083 C1084 1.392 . S
C1083 H1094 0.930 . S
C1084 C1083 1.392 . S
C1084 C1085 1.386 . S
C1085 C1084 1.386 . S
C1085 C1087 1.395 . S
C1085 H1095 0.930 . S
C1086 C1082 1.395 . S
C1086 C1087 1.379 . S
C1086 H1096 0.930 . S
C1087 C1085 1.395 . S
C1087 C1086 1.379 . S
C1087 H1097 0.930 . S
C1088 O1066 1.264 . S
C1088 O1067 1.254 . S
C1089 Eu1025 2.848 . S
C1089 O1064 1.257 . S
C1089 O1069 1.249 . S
C1089 C1082 1.492 . S
H1090 C1073 0.930 . S
H1091 C1074 0.930 . S
H1092 C1075 0.930 . S
H1093 C1076 0.930 . S
H1094 C1083 0.930 . S
H1095 C1085 0.930 . S
H1096 C1086 0.930 . S
H1097 C1087 0.930 . S
C1098 C1099 1.363 . S
C1098 C1104 1.379 . S
C1098 N1106 1.356 . S
C1099 C1098 1.363 . S
C1099 C1105 1.363 . S
C1100 C1101 1.363 . S
C1100 C1105 1.379 . S
C1100 N1107 1.356 . S
C1101 C1100 1.363 . S
C1101 C1104 1.363 . S
N1102 C1104 1.356 1_556 S
N1102 H1114 0.984 . S
N1102 H1115 0.985 . S
N1103 C1105 1.356 . S
N1103 H1108 0.984 . S
N1103 H1109 0.985 . S
C1104 C1098 1.379 . S
C1104 C1101 1.363 . S
C1104 N1102 1.356 1_554 S
C1105 C1099 1.363 . S
C1105 C1100 1.379 . S
C1105 N1103 1.356 . S
N1106 C1098 1.356 . S
N1106 H1112 0.984 1_554 S
N1106 H1113 0.984 . S
N1107 C1100 1.356 . S
N1107 H1110 0.984 . S
N1107 H1111 0.985 . S
H1108 N1103 0.984 . S
H1109 N1103 0.985 . S
H1110 N1107 0.984 . S
H1111 N1107 0.985 . S
H1112 N1106 0.984 1_556 S
H1113 N1106 0.984 . S
H1114 N1102 0.984 . S
H1115 N1102 0.985 . S
C1116 C1117 1.363 . S
C1116 C1122 1.379 . S
C1116 N1124 1.356 . S
C1117 C1116 1.363 . S
C1117 C1123 1.363 . S
C1118 C1119 1.363 . S
C1118 C1123 1.379 . S
C1118 N1125 1.356 . S
C1119 C1118 1.363 . S
C1119 C1122 1.363 . S
N1120 C1122 1.356 . S
N1120 H1132 0.984 . S
N1120 H1133 0.985 . S
N1121 C1123 1.356 . S
N1121 H1126 0.984 . S
N1121 H1127 0.985 . S
C1122 C1116 1.379 . S
C1122 C1119 1.363 . S
C1122 N1120 1.356 . S
C1123 C1117 1.363 . S
C1123 C1118 1.379 . S
C1123 N1121 1.356 . S
N1124 C1116 1.356 . S
N1124 H1130 0.984 . S
N1124 H1131 0.984 . S
N1125 C1118 1.356 . S
N1125 H1128 0.984 . S
N1125 H1129 0.985 . S
H1126 N1121 0.984 . S
H1127 N1121 0.985 . S
H1128 N1125 0.984 . S
H1129 N1125 0.985 . S
H1130 N1124 0.984 . S
H1131 N1124 0.984 . S
H1132 N1120 0.984 . S
H1133 N1120 0.985 . S
C1134 C1135 1.363 . S
C1134 C1140 1.379 . S
C1134 N1142 1.356 . S
C1135 C1134 1.363 . S
C1135 C1141 1.363 . S
C1136 C1137 1.363 . S
C1136 C1141 1.379 . S
C1136 N1143 1.356 . S
C1137 C1136 1.363 . S
C1137 C1140 1.363 . S
N1138 C1140 1.356 1_556 S
N1138 H1150 0.984 . S
N1138 H1151 0.985 . S
N1139 C1141 1.356 . S
N1139 H1144 0.984 . S
N1139 H1145 0.985 . S
C1140 C1134 1.379 . S
C1140 C1137 1.363 . S
C1140 N1138 1.356 1_554 S
C1141 C1135 1.363 . S
C1141 C1136 1.379 . S
C1141 N1139 1.356 . S
N1142 C1134 1.356 . S
N1142 H1148 0.984 1_554 S
N1142 H1149 0.984 . S
N1143 C1136 1.356 . S
N1143 H1146 0.984 . S
N1143 H1147 0.985 . S
H1144 N1139 0.984 . S
H1145 N1139 0.985 . S
H1146 N1143 0.984 . S
H1147 N1143 0.985 . S
H1148 N1142 0.984 1_556 S
H1149 N1142 0.984 . S
H1150 N1138 0.984 . S
H1151 N1138 0.985 . S
C1152 C1153 1.363 . S
C1152 C1158 1.379 . S
C1152 N1160 1.356 . S
C1153 C1152 1.363 . S
C1153 C1159 1.363 1_556 S
C1154 C1155 1.363 1_554 S
C1154 C1159 1.379 . S
C1154 N1161 1.356 . S
C1155 C1154 1.363 1_556 S
C1155 C1158 1.363 . S
N1156 C1158 1.356 . S
N1156 H1168 0.984 . S
N1156 H1169 0.985 . S
N1157 C1159 1.356 . S
N1157 H1162 0.984 . S
N1157 H1163 0.985 . S
C1158 C1152 1.379 . S
C1158 C1155 1.363 . S
C1158 N1156 1.356 . S
C1159 C1153 1.363 1_554 S
C1159 C1154 1.379 . S
C1159 N1157 1.356 . S
N1160 C1152 1.356 . S
N1160 H1166 0.984 . S
N1160 H1167 0.984 . S
N1161 C1154 1.356 . S
N1161 H1164 0.984 . S
N1161 H1165 0.985 . S
H1162 N1157 0.984 . S
H1163 N1157 0.985 . S
H1164 N1161 0.984 . S
H1165 N1161 0.985 . S
H1166 N1160 0.984 . S
H1167 N1160 0.984 . S
H1168 N1156 0.984 . S
H1169 N1156 0.985 . S
C1170 C1171 1.363 . S
C1170 C1176 1.379 . S
C1170 N1178 1.356 . S
C1171 C1170 1.363 . S
C1171 C1177 1.363 . S
C1172 C1173 1.363 . S
C1172 C1177 1.379 . S
C1172 N1179 1.356 1_556 S
C1173 C1172 1.363 . S
C1173 C1176 1.363 . S
N1174 C1176 1.356 . S
N1174 H1186 0.984 . S
N1174 H1187 0.985 . S
N1175 C1177 1.356 . S
N1175 H1180 0.984 . S
N1175 H1181 0.985 1_556 S
C1176 C1170 1.379 . S
C1176 C1173 1.363 . S
C1176 N1174 1.356 . S
C1177 C1171 1.363 . S
C1177 C1172 1.379 . S
C1177 N1175 1.356 . S
N1178 C1170 1.356 . S
N1178 H1184 0.984 . S
N1178 H1185 0.984 . S
N1179 C1172 1.356 1_554 S
N1179 H1182 0.984 . S
N1179 H1183 0.985 . S
H1180 N1175 0.984 . S
H1181 N1175 0.985 1_554 S
H1182 N1179 0.984 . S
H1183 N1179 0.985 . S
H1184 N1178 0.984 . S
H1185 N1178 0.984 . S
H1186 N1174 0.984 . S
H1187 N1174 0.985 . S
C1188 C1189 1.363 . S
C1188 C1194 1.379 . S
C1188 N1196 1.356 . S
C1189 C1188 1.363 . S
C1189 C1195 1.375 . S
C1190 C1191 1.363 1_554 S
C1190 C1195 1.375 1_554 S
C1190 N1197 1.356 . S
C1191 C1190 1.363 1_556 S
C1191 C1194 1.363 . S
N1192 C1194 1.356 . S
N1192 H1204 0.984 . S
N1192 H1205 0.985 . S
N1193 C1195 1.351 1_554 S
N1193 H1198 0.965 1_554 S
N1193 H1199 0.985 . S
C1194 C1188 1.379 . S
C1194 C1191 1.363 . S
C1194 N1192 1.356 . S
C1195 C1189 1.375 . S
C1195 C1190 1.375 1_556 S
C1195 N1193 1.351 1_556 S
N1196 C1188 1.356 . S
N1196 H1202 0.984 . S
N1196 H1203 0.984 . S
N1197 C1190 1.356 . S
N1197 H1200 0.984 . S
N1197 H1201 0.985 . S
H1198 N1193 0.965 1_556 S
H1199 N1193 0.985 . S
H1200 N1197 0.984 . S
H1201 N1197 0.985 . S
H1202 N1196 0.984 . S
H1203 N1196 0.984 . S
H1204 N1192 0.984 . S
H1205 N1192 0.985 . S
C1206 C1207 1.363 1_554 S
C1206 C1212 1.379 . S
C1206 N1214 1.356 . S
C1207 C1206 1.363 1_556 S
C1207 C1213 1.363 . S
C1208 C1209 1.363 . S
C1208 C1213 1.379 . S
C1208 N1215 1.356 . S
C1209 C1208 1.363 . S
C1209 C1212 1.363 1_556 S
N1210 C1212 1.356 . S
N1210 H1222 0.984 . S
N1210 H1223 0.985 . S
N1211 C1213 1.356 . S
N1211 H1216 0.984 . S
N1211 H1217 0.985 . S
C1212 C1206 1.379 . S
C1212 C1209 1.363 1_554 S
C1212 N1210 1.356 . S
C1213 C1207 1.363 . S
C1213 C1208 1.379 . S
C1213 N1211 1.356 . S
N1214 C1206 1.356 . S
N1214 H1220 0.984 . S
N1214 H1221 0.984 . S
N1215 C1208 1.356 . S
N1215 H1218 0.984 . S
N1215 H1219 0.985 . S
H1216 N1211 0.984 . S
H1217 N1211 0.985 . S
H1218 N1215 0.984 . S
H1219 N1215 0.985 . S
H1220 N1214 0.984 . S
H1221 N1214 0.984 . S
H1222 N1210 0.984 . S
H1223 N1210 0.985 . S
C1224 C1225 1.363 . S
C1224 C1230 1.379 . S
C1224 N1232 1.356 . S
C1225 C1224 1.363 . S
C1225 C1231 1.363 . S
C1226 C1227 1.363 . S
C1226 C1231 1.379 . S
C1226 N1233 1.356 . S
C1227 C1226 1.363 . S
C1227 C1230 1.363 . S
N1228 C1230 1.356 1_554 S
N1228 H1240 0.984 . S
N1228 H1241 0.985 . S
N1229 C1231 1.356 . S
N1229 H1234 0.984 . S
N1229 H1235 0.985 . S
C1230 C1224 1.379 . S
C1230 C1227 1.363 . S
C1230 N1228 1.356 1_556 S
C1231 C1225 1.363 . S
C1231 C1226 1.379 . S
C1231 N1229 1.356 . S
N1232 C1224 1.356 . S
N1232 H1238 0.984 1_556 S
N1232 H1239 0.984 . S
N1233 C1226 1.356 . S
N1233 H1236 0.984 . S
N1233 H1237 0.985 . S
H1234 N1229 0.984 . S
H1235 N1229 0.985 . S
H1236 N1233 0.984 . S
H1237 N1233 0.985 . S
H1238 N1232 0.984 1_554 S
H1239 N1232 0.984 . S
H1240 N1228 0.984 . S
H1241 N1228 0.985 . S
C1242 C1243 1.363 . S
C1242 C1248 1.379 . S
C1242 N1250 1.356 . S
C1243 C1242 1.363 . S
C1243 C1249 1.363 1_556 S
C1244 C1245 1.363 1_554 S
C1244 C1249 1.379 . S
C1244 N1251 1.356 . S
C1245 C1244 1.363 1_556 S
C1245 C1248 1.363 . S
N1246 C1248 1.356 . S
N1246 H1258 0.984 . S
N1246 H1259 0.985 . S
N1247 C1249 1.356 . S
N1247 H1252 0.984 . S
N1247 H1253 0.985 . S
C1248 C1242 1.379 . S
C1248 C1245 1.363 . S
C1248 N1246 1.356 . S
C1249 C1243 1.363 1_554 S
C1249 C1244 1.379 . S
C1249 N1247 1.356 . S
N1250 C1242 1.356 . S
N1250 H1256 0.984 . S
N1250 H1257 0.984 . S
N1251 C1244 1.356 . S
N1251 H1254 0.984 . S
N1251 H1255 0.985 . S
H1252 N1247 0.984 . S
H1253 N1247 0.985 . S
H1254 N1251 0.984 . S
H1255 N1251 0.985 . S
H1256 N1250 0.984 . S
H1257 N1250 0.984 . S
H1258 N1246 0.984 . S
H1259 N1246 0.985 . S
C1260 C1261 1.363 . S
C1260 C1266 1.379 . S
C1260 N1268 1.356 . S
C1261 C1260 1.363 . S
C1261 C1267 1.363 . S
C1262 C1263 1.363 . S
C1262 C1267 1.379 . S
C1262 N1269 1.356 1_554 S
C1263 C1262 1.363 . S
C1263 C1266 1.363 . S
N1264 C1266 1.356 . S
N1264 H1276 0.984 . S
N1264 H1277 0.985 . S
N1265 C1267 1.356 1_556 S
N1265 H1270 0.984 1_556 S
N1265 H1271 0.985 . S
C1266 C1260 1.379 . S
C1266 C1263 1.363 . S
C1266 N1264 1.356 . S
C1267 C1261 1.363 . S
C1267 C1262 1.379 . S
C1267 N1265 1.356 1_554 S
N1268 C1260 1.356 . S
N1268 H1274 0.984 . S
N1268 H1275 0.984 . S
N1269 C1262 1.356 1_556 S
N1269 H1272 0.984 . S
N1269 H1273 0.985 . S
H1270 N1265 0.984 1_554 S
H1271 N1265 0.985 . S
H1272 N1269 0.984 . S
H1273 N1269 0.985 . S
H1274 N1268 0.984 . S
H1275 N1268 0.984 . S
H1276 N1264 0.984 . S
H1277 N1264 0.985 . S
C1278 C1279 1.363 . S
C1278 C1284 1.379 . S
C1278 N1286 1.356 . S
C1279 C1278 1.363 . S
C1279 C1285 1.363 . S
C1280 C1281 1.363 . S
C1280 C1285 1.379 . S
C1280 N1287 1.356 . S
C1281 C1280 1.363 . S
C1281 C1284 1.363 . S
N1282 C1284 1.356 . S
N1282 H1294 0.984 . S
N1282 H1295 0.985 . S
N1283 C1285 1.356 . S
N1283 H1288 0.984 . S
N1283 H1289 0.985 . S
C1284 C1278 1.379 . S
C1284 C1281 1.363 . S
C1284 N1282 1.356 . S
C1285 C1279 1.363 . S
C1285 C1280 1.379 . S
C1285 N1283 1.356 . S
N1286 C1278 1.356 . S
N1286 H1292 0.984 . S
N1286 H1293 0.984 . S
N1287 C1280 1.356 . S
N1287 H1290 0.984 . S
N1287 H1291 0.985 . S
H1288 N1283 0.984 . S
H1289 N1283 0.985 . S
H1290 N1287 0.984 . S
H1291 N1287 0.985 . S
H1292 N1286 0.984 . S
H1293 N1286 0.984 . S
H1294 N1282 0.984 . S
H1295 N1282 0.985 . S
C1296 C1297 1.363 . S
C1296 C1302 1.379 . S
C1296 N1304 1.356 . S
C1297 C1296 1.363 . S
C1297 C1303 1.363 . S
C1298 C1299 1.363 . S
C1298 C1303 1.379 . S
C1298 N1305 1.356 1_554 S
C1299 C1298 1.363 . S
C1299 C1302 1.363 . S
N1300 C1302 1.356 . S
N1300 H1312 0.984 . S
N1300 H1313 0.985 . S
N1301 C1303 1.356 1_556 S
N1301 H1306 0.984 1_556 S
N1301 H1307 0.985 . S
C1302 C1296 1.379 . S
C1302 C1299 1.363 . S
C1302 N1300 1.356 . S
C1303 C1297 1.363 . S
C1303 C1298 1.379 . S
C1303 N1301 1.356 1_554 S
N1304 C1296 1.356 . S
N1304 H1310 0.984 . S
N1304 H1311 0.984 . S
N1305 C1298 1.356 1_556 S
N1305 H1308 0.984 . S
N1305 H1309 0.985 . S
H1306 N1301 0.984 1_554 S
H1307 N1301 0.985 . S
H1308 N1305 0.984 . S
H1309 N1305 0.985 . S
H1310 N1304 0.984 . S
H1311 N1304 0.984 . S
H1312 N1300 0.984 . S
H1313 N1300 0.985 . S
C1314 C1315 1.363 . S
C1314 C1320 1.379 1_655 S
C1314 N1322 1.356 . S
C1315 C1314 1.363 . S
C1315 C1321 1.363 . S
C1316 C1317 1.363 . S
C1316 C1321 1.379 1_455 S
C1316 N1323 1.356 . S
C1317 C1316 1.363 . S
C1317 C1320 1.363 . S
N1318 C1320 1.356 . S
N1318 H1330 0.984 . S
N1318 H1331 0.985 . S
N1319 C1321 1.356 . S
N1319 H1324 0.984 . S
N1319 H1325 0.985 . S
C1320 C1314 1.379 1_455 S
C1320 C1317 1.363 . S
C1320 N1318 1.356 . S
C1321 C1315 1.363 . S
C1321 C1316 1.379 1_655 S
C1321 N1319 1.356 . S
N1322 C1314 1.356 . S
N1322 H1328 0.984 . S
N1322 H1329 0.984 . S
N1323 C1316 1.356 . S
N1323 H1326 0.984 . S
N1323 H1327 0.985 . S
H1324 N1319 0.984 . S
H1325 N1319 0.985 . S
H1326 N1323 0.984 . S
H1327 N1323 0.985 . S
H1328 N1322 0.984 . S
H1329 N1322 0.984 . S
H1330 N1318 0.984 . S
H1331 N1318 0.985 . S
C1332 C1333 1.363 . S
C1332 C1338 1.379 . S
C1332 N1340 1.356 . S
C1333 C1332 1.363 . S
C1333 C1339 1.363 . S
C1334 C1335 1.363 . S
C1334 C1339 1.379 . S
C1334 N1341 1.356 . S
C1335 C1334 1.363 . S
C1335 C1338 1.363 . S
N1336 C1338 1.356 . S
N1336 H1348 0.984 . S
N1336 H1349 0.985 . S
N1337 C1339 1.356 . S
N1337 H1342 0.984 . S
N1337 H1343 0.985 . S
C1338 C1332 1.379 . S
C1338 C1335 1.363 . S
C1338 N1336 1.356 . S
C1339 C1333 1.363 . S
C1339 C1334 1.379 . S
C1339 N1337 1.356 . S
N1340 C1332 1.356 . S
N1340 H1346 0.984 . S
N1340 H1347 0.984 . S
N1341 C1334 1.356 . S
N1341 H1344 0.984 . S
N1341 H1345 0.985 . S
H1342 N1337 0.984 . S
H1343 N1337 0.985 . S
H1344 N1341 0.984 . S
H1345 N1341 0.985 . S
H1346 N1340 0.984 . S
H1347 N1340 0.984 . S
H1348 N1336 0.984 . S
H1349 N1336 0.985 . S
C1350 C1351 1.363 . S
C1350 C1356 1.379 . S
C1350 N1358 1.356 . S
C1351 C1350 1.363 . S
C1351 C1357 1.363 . S
C1352 C1353 1.363 . S
C1352 C1357 1.379 1_565 S
C1352 N1359 1.356 . S
C1353 C1352 1.363 . S
C1353 C1356 1.363 1_565 S
N1354 C1356 1.356 . S
N1354 H1366 0.984 . S
N1354 H1367 0.985 1_545 S
N1355 C1357 1.356 . S
N1355 H1360 0.984 . S
N1355 H1361 0.985 1_545 S
C1356 C1350 1.379 . S
C1356 C1353 1.363 1_545 S
C1356 N1354 1.356 . S
C1357 C1351 1.363 . S
C1357 C1352 1.379 1_545 S
C1357 N1355 1.356 . S
N1358 C1350 1.356 . S
N1358 H1364 0.984 . S
N1358 H1365 0.984 . S
N1359 C1352 1.356 . S
N1359 H1362 0.984 . S
N1359 H1363 0.985 . S
H1360 N1355 0.984 . S
H1361 N1355 0.985 1_565 S
H1362 N1359 0.984 . S
H1363 N1359 0.985 . S
H1364 N1358 0.984 . S
H1365 N1358 0.984 . S
H1366 N1354 0.984 . S
H1367 N1354 0.985 1_565 S
C1368 C1369 1.363 . S
C1368 C1374 1.379 . S
C1368 N1376 1.356 . S
C1369 C1368 1.363 . S
C1369 C1375 1.363 . S
C1370 C1371 1.363 . S
C1370 C1375 1.379 . S
C1370 N1377 1.356 . S
C1371 C1370 1.363 . S
C1371 C1374 1.363 . S
N1372 C1374 1.356 . S
N1372 H1384 0.984 . S
N1372 H1385 0.985 . S
N1373 C1375 1.356 . S
N1373 H1378 0.984 . S
N1373 H1379 0.985 . S
C1374 C1368 1.379 . S
C1374 C1371 1.363 . S
C1374 N1372 1.356 . S
C1375 C1369 1.363 . S
C1375 C1370 1.379 . S
C1375 N1373 1.356 . S
N1376 C1368 1.356 . S
N1376 H1382 0.984 . S
N1376 H1383 0.984 . S
N1377 C1370 1.356 . S
N1377 H1380 0.984 . S
N1377 H1381 0.985 . S
H1378 N1373 0.984 . S
H1379 N1373 0.985 . S
H1380 N1377 0.984 . S
H1381 N1377 0.985 . S
H1382 N1376 0.984 . S
H1383 N1376 0.984 . S
H1384 N1372 0.984 . S
H1385 N1372 0.985 . S
C1386 C1387 1.363 . S
C1386 C1392 1.379 . S
C1386 N1394 1.356 . S
C1387 C1386 1.363 . S
C1387 C1393 1.363 . S
C1388 C1389 1.363 . S
C1388 C1393 1.379 . S
C1388 N1395 1.356 . S
C1389 C1388 1.363 . S
C1389 C1392 1.363 . S
N1390 C1392 1.356 . S
N1390 H1402 0.984 . S
N1390 H1403 0.985 . S
N1391 C1393 1.356 . S
N1391 H1396 0.984 . S
N1391 H1397 0.985 . S
C1392 C1386 1.379 . S
C1392 C1389 1.363 . S
C1392 N1390 1.356 . S
C1393 C1387 1.363 . S
C1393 C1388 1.379 . S
C1393 N1391 1.356 . S
N1394 C1386 1.356 . S
N1394 H1400 0.984 . S
N1394 H1401 0.984 . S
N1395 C1388 1.356 . S
N1395 H1398 0.984 . S
N1395 H1399 0.985 . S
H1396 N1391 0.984 . S
H1397 N1391 0.985 . S
H1398 N1395 0.984 . S
H1399 N1395 0.985 . S
H1400 N1394 0.984 . S
H1401 N1394 0.984 . S
H1402 N1390 0.984 . S
H1403 N1390 0.985 . S
C1404 C1405 1.363 . S
C1404 C1410 1.379 . S
C1404 N1412 1.356 . S
C1405 C1404 1.363 . S
C1405 C1411 1.363 . S
C1406 C1407 1.363 . S
C1406 C1411 1.379 . S
C1406 N1413 1.356 . S
C1407 C1406 1.363 . S
C1407 C1410 1.363 . S
N1408 C1410 1.356 . S
N1408 H1420 0.984 . S
N1408 H1421 0.985 . S
N1409 C1411 1.356 . S
N1409 H1414 0.984 . S
N1409 H1415 0.985 . S
C1410 C1404 1.379 . S
C1410 C1407 1.363 . S
C1410 N1408 1.356 . S
C1411 C1405 1.363 . S
C1411 C1406 1.379 . S
C1411 N1409 1.356 . S
N1412 C1404 1.356 . S
N1412 H1418 0.984 . S
N1412 H1419 0.984 . S
N1413 C1406 1.356 . S
N1413 H1416 0.984 . S
N1413 H1417 0.985 . S
H1414 N1409 0.984 . S
H1415 N1409 0.985 . S
H1416 N1413 0.984 . S
H1417 N1413 0.985 . S
H1418 N1412 0.984 . S
H1419 N1412 0.984 . S
H1420 N1408 0.984 . S
H1421 N1408 0.985 . S
C1422 C1423 1.363 . S
C1422 C1428 1.379 . S
C1422 N1430 1.356 . S
C1423 C1422 1.363 . S
C1423 C1429 1.363 . S
C1424 C1425 1.363 . S
C1424 C1429 1.379 . S
C1424 N1431 1.356 . S
C1425 C1424 1.363 . S
C1425 C1428 1.363 . S
N1426 C1428 1.356 . S
N1426 H1438 0.984 . S
N1426 H1439 0.985 . S
N1427 C1429 1.356 . S
N1427 H1432 0.984 . S
N1427 H1433 0.985 . S
C1428 C1422 1.379 . S
C1428 C1425 1.363 . S
C1428 N1426 1.356 . S
C1429 C1423 1.363 . S
C1429 C1424 1.379 . S
C1429 N1427 1.356 . S
N1430 C1422 1.356 . S
N1430 H1436 0.984 . S
N1430 H1437 0.984 . S
N1431 C1424 1.356 . S
N1431 H1434 0.984 . S
N1431 H1435 0.985 . S
H1432 N1427 0.984 . S
H1433 N1427 0.985 . S
H1434 N1431 0.984 . S
H1435 N1431 0.985 . S
H1436 N1430 0.984 . S
H1437 N1430 0.984 . S
H1438 N1426 0.984 . S
H1439 N1426 0.985 . S
C1440 C1441 1.363 . S
C1440 C1446 1.379 . S
C1440 N1448 1.356 . S
C1441 C1440 1.363 . S
C1441 C1447 1.363 . S
C1442 C1443 1.363 . S
C1442 C1447 1.379 . S
C1442 N1449 1.356 . S
C1443 C1442 1.363 . S
C1443 C1446 1.363 . S
N1444 C1446 1.356 . S
N1444 H1456 0.984 . S
N1444 H1457 0.985 . S
N1445 C1447 1.356 . S
N1445 H1450 0.984 . S
N1445 H1451 0.985 . S
C1446 C1440 1.379 . S
C1446 C1443 1.363 . S
C1446 N1444 1.356 . S
C1447 C1441 1.363 . S
C1447 C1442 1.379 . S
C1447 N1445 1.356 . S
N1448 C1440 1.356 . S
N1448 H1454 0.984 . S
N1448 H1455 0.984 . S
N1449 C1442 1.356 . S
N1449 H1452 0.984 . S
N1449 H1453 0.985 . S
H1450 N1445 0.984 . S
H1451 N1445 0.985 . S
H1452 N1449 0.984 . S
H1453 N1449 0.985 . S
H1454 N1448 0.984 . S
H1455 N1448 0.984 . S
H1456 N1444 0.984 . S
H1457 N1444 0.985 . S
C1458 C1459 1.363 . S
C1458 C1464 1.379 . S
C1458 N1466 1.356 . S
C1459 C1458 1.363 . S
C1459 C1465 1.363 . S
C1460 C1461 1.363 . S
C1460 C1465 1.379 . S
C1460 N1467 1.356 . S
C1461 C1460 1.363 . S
C1461 C1464 1.363 . S
N1462 C1464 1.356 . S
N1462 H1474 0.984 . S
N1462 H1475 0.985 . S
N1463 C1465 1.356 . S
N1463 H1468 0.984 . S
N1463 H1469 0.985 . S
C1464 C1458 1.379 . S
C1464 C1461 1.363 . S
C1464 N1462 1.356 . S
C1465 C1459 1.363 . S
C1465 C1460 1.379 . S
C1465 N1463 1.356 . S
N1466 C1458 1.356 . S
N1466 H1472 0.984 . S
N1466 H1473 0.984 . S
N1467 C1460 1.356 . S
N1467 H1470 0.984 . S
N1467 H1471 0.985 . S
H1468 N1463 0.984 . S
H1469 N1463 0.985 . S
H1470 N1467 0.984 . S
H1471 N1467 0.985 . S
H1472 N1466 0.984 . S
H1473 N1466 0.984 . S
H1474 N1462 0.984 . S
H1475 N1462 0.985 . S
C1476 C1477 1.363 . S
C1476 C1482 1.379 . S
C1476 N1484 1.356 . S
C1477 C1476 1.363 . S
C1477 C1483 1.363 . S
C1478 C1479 1.363 . S
C1478 C1483 1.379 . S
C1478 N1485 1.356 . S
C1479 C1478 1.363 . S
C1479 C1482 1.363 . S
N1480 C1482 1.356 . S
N1480 H1492 0.984 . S
N1480 H1493 0.985 . S
N1481 C1483 1.356 . S
N1481 H1486 0.984 . S
N1481 H1487 0.985 . S
C1482 C1476 1.379 . S
C1482 C1479 1.363 . S
C1482 N1480 1.356 . S
C1483 C1477 1.363 . S
C1483 C1478 1.379 . S
C1483 N1481 1.356 . S
N1484 C1476 1.356 . S
N1484 H1490 0.984 . S
N1484 H1491 0.990 . S
N1485 C1478 1.356 . S
N1485 H1488 0.984 . S
N1485 H1489 0.985 . S
H1486 N1481 0.984 . S
H1487 N1481 0.985 . S
H1488 N1485 0.984 . S
H1489 N1485 0.985 . S
H1490 N1484 0.984 . S
H1491 N1484 0.990 . S
H1492 N1480 0.984 . S
H1493 N1480 0.985 . S
C1494 C1495 1.363 . S
C1494 C1500 1.379 . S
C1494 N1502 1.356 . S
C1495 C1494 1.363 . S
C1495 C1501 1.363 . S
C1496 C1497 1.363 . S
C1496 C1501 1.379 . S
C1496 N1503 1.356 . S
C1497 C1496 1.363 . S
C1497 C1500 1.363 . S
N1498 C1500 1.356 . S
N1498 H1510 0.984 . S
N1498 H1511 0.985 . S
N1499 C1501 1.356 . S
N1499 H1504 0.984 . S
N1499 H1505 0.985 . S
C1500 C1494 1.379 . S
C1500 C1497 1.363 . S
C1500 N1498 1.356 . S
C1501 C1495 1.363 . S
C1501 C1496 1.379 . S
C1501 N1499 1.356 . S
N1502 C1494 1.356 . S
N1502 H1508 0.984 . S
N1502 H1509 0.984 . S
N1503 C1496 1.356 . S
N1503 H1506 0.984 . S
N1503 H1507 0.985 . S
H1504 N1499 0.984 . S
H1505 N1499 0.985 . S
H1506 N1503 0.984 . S
H1507 N1503 0.985 . S
H1508 N1502 0.984 . S
H1509 N1502 0.984 . S
H1510 N1498 0.984 . S
H1511 N1498 0.985 . S
C1512 C1513 1.363 . S
C1512 C1518 1.379 . S
C1512 N1520 1.356 . S
C1513 C1512 1.363 . S
C1513 C1519 1.363 . S
C1514 C1515 1.363 . S
C1514 C1519 1.379 . S
C1514 N1521 1.356 . S
C1515 C1514 1.363 . S
C1515 C1518 1.363 . S
N1516 C1518 1.356 . S
N1516 H1528 0.984 . S
N1516 H1529 0.985 . S
N1517 C1519 1.356 . S
N1517 H1522 0.984 . S
N1517 H1523 0.985 . S
C1518 C1512 1.379 . S
C1518 C1515 1.363 . S
C1518 N1516 1.356 . S
C1519 C1513 1.363 . S
C1519 C1514 1.379 . S
C1519 N1517 1.356 . S
N1520 C1512 1.356 . S
N1520 H1526 0.984 . S
N1520 H1527 0.984 . S
N1521 C1514 1.356 . S
N1521 H1524 0.984 . S
N1521 H1525 0.985 . S
H1522 N1517 0.984 . S
H1523 N1517 0.985 . S
H1524 N1521 0.984 . S
H1525 N1521 0.985 . S
H1526 N1520 0.984 . S
H1527 N1520 0.984 . S
H1528 N1516 0.984 . S
H1529 N1516 0.985 . S
C1530 C1531 1.363 . S
C1530 C1536 1.379 . S
C1530 N1538 1.356 . S
C1531 C1530 1.363 . S
C1531 C1537 1.363 . S
C1532 C1533 1.363 . S
C1532 C1537 1.379 . S
C1532 N1539 1.356 . S
C1533 C1532 1.363 . S
C1533 C1536 1.363 . S
N1534 C1536 1.356 . S
N1534 H1546 0.984 . S
N1534 H1547 0.985 . S
N1535 C1537 1.356 . S
N1535 H1540 0.984 . S
N1535 H1541 0.985 . S
C1536 C1530 1.379 . S
C1536 C1533 1.363 . S
C1536 N1534 1.356 . S
C1537 C1531 1.363 . S
C1537 C1532 1.379 . S
C1537 N1535 1.356 . S
N1538 C1530 1.356 . S
N1538 H1544 0.984 . S
N1538 H1545 0.984 . S
N1539 C1532 1.356 . S
N1539 H1542 0.984 . S
N1539 H1543 0.985 . S
H1540 N1535 0.984 . S
H1541 N1535 0.985 . S
H1542 N1539 0.984 . S
H1543 N1539 0.985 . S
H1544 N1538 0.984 . S
H1545 N1538 0.984 . S
H1546 N1534 0.984 . S
H1547 N1534 0.985 . S
C1548 C1549 1.363 . S
C1548 C1554 1.379 . S
C1548 N1556 1.356 . S
C1549 C1548 1.363 . S
C1549 C1555 1.363 . S
C1550 C1551 1.363 . S
C1550 C1555 1.379 . S
C1550 N1557 1.356 . S
C1551 C1550 1.363 . S
C1551 C1554 1.363 . S
N1552 C1554 1.356 . S
N1552 H1564 0.984 . S
N1552 H1565 0.985 . S
N1553 C1555 1.356 . S
N1553 H1558 0.984 . S
N1553 H1559 0.985 . S
C1554 C1548 1.379 . S
C1554 C1551 1.363 . S
C1554 N1552 1.356 . S
C1555 C1549 1.363 . S
C1555 C1550 1.379 . S
C1555 N1553 1.356 . S
N1556 C1548 1.356 . S
N1556 H1562 0.984 . S
N1556 H1563 0.984 . S
N1557 C1550 1.356 . S
N1557 H1560 0.984 . S
N1557 H1561 0.985 . S
H1558 N1553 0.984 . S
H1559 N1553 0.985 . S
H1560 N1557 0.984 . S
H1561 N1557 0.985 . S
H1562 N1556 0.984 . S
H1563 N1556 0.984 . S
H1564 N1552 0.984 . S
H1565 N1552 0.985 . S
C1566 C1567 1.363 . S
C1566 C1572 1.379 . S
C1566 N1574 1.356 . S
C1567 C1566 1.363 . S
C1567 C1573 1.363 . S
C1568 C1569 1.363 . S
C1568 C1573 1.379 . S
C1568 N1575 1.356 . S
C1569 C1568 1.363 . S
C1569 C1572 1.363 . S
N1570 C1572 1.356 . S
N1570 H1582 0.984 . S
N1570 H1583 0.985 . S
N1571 C1573 1.356 . S
N1571 H1576 0.984 . S
N1571 H1577 0.985 . S
C1572 C1566 1.379 . S
C1572 C1569 1.363 . S
C1572 N1570 1.356 . S
C1573 C1567 1.363 . S
C1573 C1568 1.379 . S
C1573 N1571 1.356 . S
N1574 C1566 1.356 . S
N1574 H1580 0.984 . S
N1574 H1581 0.984 . S
N1575 C1568 1.356 . S
N1575 H1578 0.984 . S
N1575 H1579 0.985 . S
H1576 N1571 0.984 . S
H1577 N1571 0.985 . S
H1578 N1575 0.984 . S
H1579 N1575 0.985 . S
H1580 N1574 0.984 . S
H1581 N1574 0.984 . S
H1582 N1570 0.984 . S
H1583 N1570 0.985 . S
C1584 C1585 1.363 . S
C1584 C1590 1.379 1_565 S
C1584 N1592 1.356 . S
C1585 C1584 1.363 . S
C1585 C1591 1.363 . S
C1586 C1587 1.363 1_565 S
C1586 C1591 1.379 . S
C1586 N1593 1.356 1_565 S
C1587 C1586 1.363 1_545 S
C1587 C1590 1.363 . S
N1588 C1590 1.356 . S
N1588 H1600 0.984 . S
N1588 H1601 0.985 . S
N1589 C1591 1.356 . S
N1589 H1594 0.984 . S
N1589 H1595 0.985 . S
C1590 C1584 1.379 1_545 S
C1590 C1587 1.363 . S
C1590 N1588 1.356 . S
C1591 C1585 1.363 . S
C1591 C1586 1.379 . S
C1591 N1589 1.356 . S
N1592 C1584 1.356 . S
N1592 H1598 0.984 1_565 S
N1592 H1599 0.984 . S
N1593 C1586 1.356 1_545 S
N1593 H1596 0.984 . S
N1593 H1597 0.985 1_545 S
H1594 N1589 0.984 . S
H1595 N1589 0.985 . S
H1596 N1593 0.984 . S
H1597 N1593 0.985 1_565 S
H1598 N1592 0.984 1_545 S
H1599 N1592 0.984 . S
H1600 N1588 0.984 . S
H1601 N1588 0.985 . S
C1602 C1603 1.363 1_655 S
C1602 C1608 1.379 . S
C1602 N1610 1.356 . S
C1603 C1602 1.363 1_455 S
C1603 C1609 1.363 . S
C1604 C1605 1.363 1_455 S
C1604 C1609 1.379 . S
C1604 N1611 1.356 . S
C1605 C1604 1.363 1_655 S
C1605 C1608 1.363 . S
N1606 C1608 1.356 . S
N1606 H1618 0.984 . S
N1606 H1619 0.985 . S
N1607 C1609 1.356 . S
N1607 H1612 0.984 . S
N1607 H1613 0.985 . S
C1608 C1602 1.379 . S
C1608 C1605 1.363 . S
C1608 N1606 1.356 . S
C1609 C1603 1.363 . S
C1609 C1604 1.379 . S
C1609 N1607 1.356 . S
N1610 C1602 1.356 . S
N1610 H1616 0.984 . S
N1610 H1617 0.984 1_655 S
N1611 C1604 1.356 . S
N1611 H1614 0.984 1_455 S
N1611 H1615 0.985 . S
H1612 N1607 0.984 . S
H1613 N1607 0.985 . S
H1614 N1611 0.984 1_655 S
H1615 N1611 0.985 . S
H1616 N1610 0.984 . S
H1617 N1610 0.984 1_455 S
H1618 N1606 0.984 . S
H1619 N1606 0.985 . S
C1620 C1621 1.363 . S
C1620 C1626 1.379 . S
C1620 N1628 1.356 . S
C1621 C1620 1.363 . S
C1621 C1627 1.363 . S
C1622 C1623 1.363 . S
C1622 C1627 1.379 . S
C1622 N1629 1.356 . S
C1623 C1622 1.363 . S
C1623 C1626 1.363 . S
N1624 C1626 1.356 . S
N1624 H1636 0.984 . S
N1624 H1637 0.985 . S
N1625 C1627 1.356 . S
N1625 H1630 0.984 . S
N1625 H1631 0.985 . S
C1626 C1620 1.379 . S
C1626 C1623 1.363 . S
C1626 N1624 1.356 . S
C1627 C1621 1.363 . S
C1627 C1622 1.379 . S
C1627 N1625 1.356 . S
N1628 C1620 1.356 . S
N1628 H1634 0.984 . S
N1628 H1635 0.984 . S
N1629 C1622 1.356 . S
N1629 H1632 0.984 . S
N1629 H1633 0.985 . S
H1630 N1625 0.984 . S
H1631 N1625 0.985 . S
H1632 N1629 0.984 . S
H1633 N1629 0.985 . S
H1634 N1628 0.984 . S
H1635 N1628 0.984 . S
H1636 N1624 0.984 . S
H1637 N1624 0.985 . S
C1638 C1639 1.363 . S
C1638 C1644 1.379 . S
C1638 N1646 1.356 . S
C1639 C1638 1.363 . S
C1639 C1645 1.363 . S
C1640 C1641 1.363 . S
C1640 C1645 1.379 . S
C1640 N1647 1.356 . S
C1641 C1640 1.363 . S
C1641 C1644 1.363 . S
N1642 C1644 1.356 . S
N1642 H1654 0.984 . S
N1642 H1655 0.985 . S
N1643 C1645 1.356 . S
N1643 H1648 0.984 . S
N1643 H1649 0.985 . S
C1644 C1638 1.379 . S
C1644 C1641 1.363 . S
C1644 N1642 1.356 . S
C1645 C1639 1.363 . S
C1645 C1640 1.379 . S
C1645 N1643 1.356 . S
N1646 C1638 1.356 . S
N1646 H1652 0.984 . S
N1646 H1653 0.984 . S
N1647 C1640 1.356 . S
N1647 H1650 0.984 . S
N1647 H1651 0.985 . S
H1648 N1643 0.984 . S
H1649 N1643 0.985 . S
H1650 N1647 0.984 . S
H1651 N1647 0.985 . S
H1652 N1646 0.984 . S
H1653 N1646 0.984 . S
H1654 N1642 0.984 . S
H1655 N1642 0.985 . S
C1656 C1657 1.363 . S
C1656 C1662 1.379 . S
C1656 N1664 1.356 . S
C1657 C1656 1.363 . S
C1657 C1663 1.363 . S
C1658 C1659 1.363 . S
C1658 C1663 1.379 . S
C1658 N1665 1.356 . S
C1659 C1658 1.363 . S
C1659 C1662 1.363 . S
N1660 C1662 1.356 . S
N1660 H1672 0.984 . S
N1660 H1673 0.985 . S
N1661 C1663 1.356 . S
N1661 H1666 0.984 . S
N1661 H1667 0.985 . S
C1662 C1656 1.379 . S
C1662 C1659 1.363 . S
C1662 N1660 1.356 . S
C1663 C1657 1.363 . S
C1663 C1658 1.379 . S
C1663 N1661 1.356 . S
N1664 C1656 1.356 . S
N1664 H1670 0.984 . S
N1664 H1671 0.984 . S
N1665 C1658 1.356 . S
N1665 H1668 0.984 . S
N1665 H1669 0.985 . S
H1666 N1661 0.984 . S
H1667 N1661 0.985 . S
H1668 N1665 0.984 . S
H1669 N1665 0.985 . S
H1670 N1664 0.984 . S
H1671 N1664 0.984 . S
H1672 N1660 0.984 . S
H1673 N1660 0.985 . S
C1674 C1675 1.363 . S
C1674 C1680 1.379 . S
C1674 N1682 1.356 . S
C1675 C1674 1.363 . S
C1675 C1681 1.363 . S
C1676 C1677 1.363 . S
C1676 C1681 1.379 . S
C1676 N1683 1.356 . S
C1677 C1676 1.363 . S
C1677 C1680 1.363 . S
N1678 C1680 1.356 . S
N1678 H1690 0.984 . S
N1678 H1691 0.985 . S
N1679 C1681 1.356 . S
N1679 H1684 0.984 . S
N1679 H1685 0.985 . S
C1680 C1674 1.379 . S
C1680 C1677 1.363 . S
C1680 N1678 1.356 . S
C1681 C1675 1.363 . S
C1681 C1676 1.379 . S
C1681 N1679 1.356 . S
N1682 C1674 1.356 . S
N1682 H1688 0.984 . S
N1682 H1689 0.984 . S
N1683 C1676 1.356 . S
N1683 H1686 0.984 . S
N1683 H1687 0.985 . S
H1684 N1679 0.984 . S
H1685 N1679 0.985 . S
H1686 N1683 0.984 . S
H1687 N1683 0.985 . S
H1688 N1682 0.984 . S
H1689 N1682 0.984 . S
H1690 N1678 0.984 . S
H1691 N1678 0.985 . S
C1692 C1693 1.363 . S
C1692 C1698 1.379 . S
C1692 N1700 1.356 . S
C1693 C1692 1.363 . S
C1693 C1699 1.363 . S
C1694 C1695 1.363 . S
C1694 C1699 1.379 . S
C1694 N1701 1.356 . S
C1695 C1694 1.363 . S
C1695 C1698 1.363 . S
N1696 C1698 1.356 . S
N1696 H1708 0.984 . S
N1696 H1709 0.985 . S
N1697 C1699 1.356 . S
N1697 H1702 0.984 . S
N1697 H1703 0.985 . S
C1698 C1692 1.379 . S
C1698 C1695 1.363 . S
C1698 N1696 1.356 . S
C1699 C1693 1.363 . S
C1699 C1694 1.379 . S
C1699 N1697 1.356 . S
N1700 C1692 1.356 . S
N1700 H1706 0.984 . S
N1700 H1707 0.984 . S
N1701 C1694 1.356 . S
N1701 H1704 0.984 . S
N1701 H1705 0.985 . S
H1702 N1697 0.984 . S
H1703 N1697 0.985 . S
H1704 N1701 0.984 . S
H1705 N1701 0.985 . S
H1706 N1700 0.984 . S
H1707 N1700 0.984 . S
H1708 N1696 0.984 . S
H1709 N1696 0.985 . S
C1710 C1711 1.363 . S
C1710 C1716 1.379 . S
C1710 N1718 1.356 . S
C1711 C1710 1.363 . S
C1711 C1717 1.363 . S
C1712 C1713 1.363 . S
C1712 C1717 1.379 . S
C1712 N1719 1.356 . S
C1713 C1712 1.363 . S
C1713 C1716 1.363 . S
N1714 C1716 1.356 . S
N1714 H1726 0.984 . S
N1714 H1727 0.985 . S
N1715 C1717 1.356 . S
N1715 H1720 0.984 . S
N1715 H1721 0.985 . S
C1716 C1710 1.379 . S
C1716 C1713 1.363 . S
C1716 N1714 1.356 . S
C1717 C1711 1.363 . S
C1717 C1712 1.379 . S
C1717 N1715 1.356 . S
N1718 C1710 1.356 . S
N1718 H1724 0.984 . S
N1718 H1725 0.984 . S
N1719 C1712 1.356 . S
N1719 H1722 0.984 . S
N1719 H1723 0.985 . S
H1720 N1715 0.984 . S
H1721 N1715 0.985 . S
H1722 N1719 0.984 . S
H1723 N1719 0.985 . S
H1724 N1718 0.984 . S
H1725 N1718 0.984 . S
H1726 N1714 0.984 . S
H1727 N1714 0.985 . S
C1728 C1729 1.363 . S
C1728 C1734 1.379 . S
C1728 N1736 1.356 . S
C1729 C1728 1.363 . S
C1729 C1735 1.363 . S
C1730 C1731 1.363 . S
C1730 C1735 1.379 . S
C1730 N1737 1.356 . S
C1731 C1730 1.363 . S
C1731 C1734 1.363 . S
N1732 C1734 1.356 . S
N1732 H1744 0.984 . S
N1732 H1745 0.985 . S
N1733 C1735 1.356 . S
N1733 H1738 0.984 . S
N1733 H1739 0.985 . S
C1734 C1728 1.379 . S
C1734 C1731 1.363 . S
C1734 N1732 1.356 . S
C1735 C1729 1.363 . S
C1735 C1730 1.379 . S
C1735 N1733 1.356 . S
N1736 C1728 1.356 . S
N1736 H1742 0.984 . S
N1736 H1743 0.984 . S
N1737 C1730 1.356 . S
N1737 H1740 0.984 . S
N1737 H1741 0.985 . S
H1738 N1733 0.984 . S
H1739 N1733 0.985 . S
H1740 N1737 0.984 . S
H1741 N1737 0.985 . S
H1742 N1736 0.984 . S
H1743 N1736 0.984 . S
H1744 N1732 0.984 . S
H1745 N1732 0.985 . S
C1746 C1747 1.363 . S
C1746 C1752 1.379 . S
C1746 N1754 1.356 . S
C1747 C1746 1.363 . S
C1747 C1753 1.363 . S
C1748 C1749 1.363 . S
C1748 C1753 1.379 . S
C1748 N1755 1.356 . S
C1749 C1748 1.363 . S
C1749 C1752 1.363 . S
N1750 C1752 1.356 . S
N1750 H1762 0.984 . S
N1750 H1763 0.985 . S
N1751 C1753 1.356 . S
N1751 H1756 0.984 . S
N1751 H1757 0.985 . S
C1752 C1746 1.379 . S
C1752 C1749 1.363 . S
C1752 N1750 1.356 . S
C1753 C1747 1.363 . S
C1753 C1748 1.379 . S
C1753 N1751 1.356 . S
N1754 C1746 1.356 . S
N1754 H1760 0.984 . S
N1754 H1761 0.984 . S
N1755 C1748 1.356 . S
N1755 H1758 0.984 . S
N1755 H1759 0.985 . S
H1756 N1751 0.984 . S
H1757 N1751 0.985 . S
H1758 N1755 0.984 . S
H1759 N1755 0.985 . S
H1760 N1754 0.984 . S
H1761 N1754 0.984 . S
H1762 N1750 0.984 . S
H1763 N1750 0.985 . S
C1764 C1765 1.363 . S
C1764 C1770 1.379 . S
C1764 N1772 1.356 . S
C1765 C1764 1.363 . S
C1765 C1771 1.363 . S
C1766 C1767 1.363 . S
C1766 C1771 1.379 . S
C1766 N1773 1.356 . S
C1767 C1766 1.363 . S
C1767 C1770 1.363 . S
N1768 C1770 1.356 . S
N1768 H1780 0.984 . S
N1768 H1781 0.985 . S
N1769 C1771 1.356 . S
N1769 H1774 0.984 . S
N1769 H1775 0.985 . S
C1770 C1764 1.379 . S
C1770 C1767 1.363 . S
C1770 N1768 1.356 . S
C1771 C1765 1.363 . S
C1771 C1766 1.379 . S
C1771 N1769 1.356 . S
N1772 C1764 1.356 . S
N1772 H1778 0.984 . S
N1772 H1779 0.984 . S
N1773 C1766 1.356 . S
N1773 H1776 0.984 . S
N1773 H1777 0.985 . S
H1774 N1769 0.984 . S
H1775 N1769 0.985 . S
H1776 N1773 0.984 . S
H1777 N1773 0.985 . S
H1778 N1772 0.984 . S
H1779 N1772 0.984 . S
H1780 N1768 0.984 . S
H1781 N1768 0.985 . S
C1782 C1783 1.363 . S
C1782 C1788 1.379 . S
C1782 N1790 1.356 . S
C1783 C1782 1.363 . S
C1783 C1789 1.363 . S
C1784 C1785 1.363 . S
C1784 C1789 1.379 . S
C1784 N1791 1.356 . S
C1785 C1784 1.363 . S
C1785 C1788 1.363 . S
N1786 C1788 1.356 . S
N1786 H1798 0.984 . S
N1786 H1799 0.985 . S
N1787 C1789 1.356 . S
N1787 H1792 0.984 . S
N1787 H1793 0.985 . S
C1788 C1782 1.379 . S
C1788 C1785 1.363 . S
C1788 N1786 1.356 . S
C1789 C1783 1.363 . S
C1789 C1784 1.379 . S
C1789 N1787 1.356 . S
N1790 C1782 1.356 . S
N1790 H1796 0.984 . S
N1790 H1797 0.984 . S
N1791 C1784 1.356 . S
N1791 H1794 0.984 . S
N1791 H1795 0.985 . S
H1792 N1787 0.984 . S
H1793 N1787 0.985 . S
H1794 N1791 0.984 . S
H1795 N1791 0.985 . S
H1796 N1790 0.984 . S
H1797 N1790 0.984 . S
H1798 N1786 0.984 . S
H1799 N1786 0.985 . S
C1800 C1801 1.363 . S
C1800 C1806 1.379 . S
C1800 N1808 1.356 . S
C1801 C1800 1.363 . S
C1801 C1807 1.363 . S
C1802 C1803 1.363 . S
C1802 C1807 1.379 . S
C1802 N1809 1.356 . S
C1803 C1802 1.363 . S
C1803 C1806 1.363 . S
N1804 C1806 1.356 . S
N1804 H1816 0.984 . S
N1804 H1817 0.985 . S
N1805 C1807 1.356 . S
N1805 H1810 0.984 . S
N1805 H1811 0.985 . S
C1806 C1800 1.379 . S
C1806 C1803 1.363 . S
C1806 N1804 1.356 . S
C1807 C1801 1.363 . S
C1807 C1802 1.379 . S
C1807 N1805 1.356 . S
N1808 C1800 1.356 . S
N1808 H1814 0.984 . S
N1808 H1815 0.984 . S
N1809 C1802 1.356 . S
N1809 H1812 0.984 . S
N1809 H1813 0.985 . S
H1810 N1805 0.984 . S
H1811 N1805 0.985 . S
H1812 N1809 0.984 . S
H1813 N1809 0.985 . S
H1814 N1808 0.984 . S
H1815 N1808 0.984 . S
H1816 N1804 0.984 . S
H1817 N1804 0.985 . S
C1818 C1819 1.363 . S
C1818 C1824 1.379 . S
C1818 N1826 1.356 . S
C1819 C1818 1.363 . S
C1819 C1825 1.363 . S
C1820 C1821 1.363 . S
C1820 C1825 1.379 . S
C1820 N1827 1.356 . S
C1821 C1820 1.363 . S
C1821 C1824 1.363 . S
N1822 C1824 1.356 . S
N1822 H1834 0.984 . S
N1822 H1835 0.985 . S
N1823 C1825 1.356 . S
N1823 H1828 0.984 . S
N1823 H1829 0.985 . S
C1824 C1818 1.379 . S
C1824 C1821 1.363 . S
C1824 N1822 1.356 . S
C1825 C1819 1.363 . S
C1825 C1820 1.379 . S
C1825 N1823 1.356 . S
N1826 C1818 1.356 . S
N1826 H1832 0.984 . S
N1826 H1833 0.984 . S
N1827 C1820 1.356 . S
N1827 H1830 0.984 . S
N1827 H1831 0.985 . S
H1828 N1823 0.984 . S
H1829 N1823 0.985 . S
H1830 N1827 0.984 . S
H1831 N1827 0.985 . S
H1832 N1826 0.984 . S
H1833 N1826 0.984 . S
H1834 N1822 0.984 . S
H1835 N1822 0.985 . S
C1836 C1837 1.363 . S
C1836 C1842 1.379 . S
C1836 N1844 1.356 . S
C1837 C1836 1.363 . S
C1837 C1843 1.363 . S
C1838 C1839 1.363 . S
C1838 C1843 1.379 . S
C1838 N1845 1.356 . S
C1839 C1838 1.363 . S
C1839 C1842 1.363 . S
N1840 C1842 1.356 . S
N1840 H1852 0.984 . S
N1840 H1853 0.985 . S
N1841 C1843 1.356 . S
N1841 H1846 0.984 . S
N1841 H1847 0.985 . S
C1842 C1836 1.379 . S
C1842 C1839 1.363 . S
C1842 N1840 1.356 . S
C1843 C1837 1.363 . S
C1843 C1838 1.379 . S
C1843 N1841 1.356 . S
N1844 C1836 1.356 . S
N1844 H1850 0.984 . S
N1844 H1851 0.984 . S
N1845 C1838 1.356 . S
N1845 H1848 0.984 . S
N1845 H1849 0.985 . S
H1846 N1841 0.984 . S
H1847 N1841 0.985 . S
H1848 N1845 0.984 . S
H1849 N1845 0.985 . S
H1850 N1844 0.984 . S
H1851 N1844 0.984 . S
H1852 N1840 0.984 . S
H1853 N1840 0.985 . S
C1854 C1855 1.363 . S
C1854 C1860 1.379 . S
C1854 N1862 1.356 . S
C1855 C1854 1.363 . S
C1855 C1861 1.363 . S
C1856 C1857 1.363 . S
C1856 C1861 1.379 . S
C1856 N1863 1.356 . S
C1857 C1856 1.363 . S
C1857 C1860 1.363 . S
N1858 C1860 1.356 . S
N1858 H1870 0.984 . S
N1858 H1871 0.985 . S
N1859 C1861 1.356 . S
N1859 H1864 0.984 . S
N1859 H1865 0.985 . S
C1860 C1854 1.379 . S
C1860 C1857 1.363 . S
C1860 N1858 1.356 . S
C1861 C1855 1.363 . S
C1861 C1856 1.379 . S
C1861 N1859 1.356 . S
N1862 C1854 1.356 . S
N1862 H1868 0.984 . S
N1862 H1869 0.984 . S
N1863 C1856 1.356 . S
N1863 H1866 0.984 . S
N1863 H1867 0.985 . S
H1864 N1859 0.984 . S
H1865 N1859 0.985 . S
H1866 N1863 0.984 . S
H1867 N1863 0.985 . S
H1868 N1862 0.984 . S
H1869 N1862 0.984 . S
H1870 N1858 0.984 . S
H1871 N1858 0.985 . S
C1872 C1873 1.363 . S
C1872 C1878 1.379 . S
C1872 N1880 1.356 . S
C1873 C1872 1.363 . S
C1873 C1879 1.363 . S
C1874 C1875 1.363 . S
C1874 C1879 1.379 . S
C1874 N1881 1.356 . S
C1875 C1874 1.363 . S
C1875 C1878 1.363 . S
N1876 C1878 1.356 . S
N1876 H1888 0.984 . S
N1876 H1889 0.985 . S
N1877 C1879 1.356 . S
N1877 H1882 0.984 . S
N1877 H1883 0.985 . S
C1878 C1872 1.379 . S
C1878 C1875 1.363 . S
C1878 N1876 1.356 . S
C1879 C1873 1.363 . S
C1879 C1874 1.379 . S
C1879 N1877 1.356 . S
N1880 C1872 1.356 . S
N1880 H1886 0.984 . S
N1880 H1887 0.984 . S
N1881 C1874 1.356 . S
N1881 H1884 0.984 . S
N1881 H1885 0.985 . S
H1882 N1877 0.984 . S
H1883 N1877 0.985 . S
H1884 N1881 0.984 . S
H1885 N1881 0.985 . S
H1886 N1880 0.984 . S
H1887 N1880 0.984 . S
H1888 N1876 0.984 . S
H1889 N1876 0.985 . S
C1890 C1891 1.363 . S
C1890 C1896 1.379 . S
C1890 N1898 1.356 . S
C1891 C1890 1.363 . S
C1891 C1897 1.363 . S
C1892 C1893 1.363 . S
C1892 C1897 1.379 . S
C1892 N1899 1.356 . S
C1893 C1892 1.363 . S
C1893 C1896 1.363 . S
N1894 C1896 1.356 . S
N1894 H1906 0.984 . S
N1894 H1907 0.985 . S
N1895 C1897 1.356 . S
N1895 H1900 0.984 . S
N1895 H1901 0.985 . S
C1896 C1890 1.379 . S
C1896 C1893 1.363 . S
C1896 N1894 1.356 . S
C1897 C1891 1.363 . S
C1897 C1892 1.379 . S
C1897 N1895 1.356 . S
N1898 C1890 1.356 . S
N1898 H1904 0.984 . S
N1898 H1905 0.984 . S
N1899 C1892 1.356 . S
N1899 H1902 0.984 . S
N1899 H1903 0.985 . S
H1900 N1895 0.984 . S
H1901 N1895 0.985 . S
H1902 N1899 0.984 . S
H1903 N1899 0.985 . S
H1904 N1898 0.984 . S
H1905 N1898 0.984 . S
H1906 N1894 0.984 . S
H1907 N1894 0.985 . S
C1908 C1909 1.363 . S
C1908 C1914 1.379 . S
C1908 N1916 1.356 . S
C1909 C1908 1.363 . S
C1909 C1915 1.363 . S
C1910 C1911 1.363 . S
C1910 C1915 1.379 . S
C1910 N1917 1.356 . S
C1911 C1910 1.363 . S
C1911 C1914 1.363 . S
N1912 C1914 1.356 . S
N1912 H1924 0.984 . S
N1912 H1925 0.985 . S
N1913 C1915 1.356 . S
N1913 H1918 0.984 . S
N1913 H1919 0.985 . S
C1914 C1908 1.379 . S
C1914 C1911 1.363 . S
C1914 N1912 1.356 . S
C1915 C1909 1.363 . S
C1915 C1910 1.379 . S
C1915 N1913 1.356 . S
N1916 C1908 1.356 . S
N1916 H1922 0.984 . S
N1916 H1923 0.984 . S
N1917 C1910 1.356 . S
N1917 H1920 0.984 . S
N1917 H1921 0.985 . S
H1918 N1913 0.984 . S
H1919 N1913 0.985 . S
H1920 N1917 0.984 . S
H1921 N1917 0.985 . S
H1922 N1916 0.984 . S
H1923 N1916 0.984 . S
H1924 N1912 0.984 . S
H1925 N1912 0.985 . S
C1926 C1927 1.363 . S
C1926 C1932 1.379 . S
C1926 N1934 1.356 . S
C1927 C1926 1.363 . S
C1927 C1933 1.363 . S
C1928 C1929 1.363 . S
C1928 C1933 1.379 . S
C1928 N1935 1.356 . S
C1929 C1928 1.363 . S
C1929 C1932 1.363 . S
N1930 C1932 1.356 . S
N1930 H1942 0.984 . S
N1930 H1943 0.985 . S
N1931 C1933 1.356 . S
N1931 H1936 0.984 . S
N1931 H1937 0.985 . S
C1932 C1926 1.379 . S
C1932 C1929 1.363 . S
C1932 N1930 1.356 . S
C1933 C1927 1.363 . S
C1933 C1928 1.379 . S
C1933 N1931 1.356 . S
N1934 C1926 1.356 . S
N1934 H1940 0.984 . S
N1934 H1941 0.984 . S
N1935 C1928 1.356 . S
N1935 H1938 0.984 . S
N1935 H1939 0.985 . S
H1936 N1931 0.984 . S
H1937 N1931 0.985 . S
H1938 N1935 0.984 . S
H1939 N1935 0.985 . S
H1940 N1934 0.984 . S
H1941 N1934 0.984 . S
H1942 N1930 0.984 . S
H1943 N1930 0.985 . S
C1944 C1945 1.363 . S
C1944 C1950 1.379 . S
C1944 N1952 1.356 . S
C1945 C1944 1.363 . S
C1945 C1951 1.363 . S
C1946 C1947 1.363 . S
C1946 C1951 1.379 . S
C1946 N1953 1.356 . S
C1947 C1946 1.363 . S
C1947 C1950 1.363 . S
N1948 C1950 1.356 . S
N1948 H1960 0.984 . S
N1948 H1961 0.985 . S
N1949 C1951 1.356 . S
N1949 H1954 0.984 . S
N1949 H1955 0.985 . S
C1950 C1944 1.379 . S
C1950 C1947 1.363 . S
C1950 N1948 1.356 . S
C1951 C1945 1.363 . S
C1951 C1946 1.379 . S
C1951 N1949 1.356 . S
N1952 C1944 1.356 . S
N1952 H1958 0.984 . S
N1952 H1959 0.984 . S
N1953 C1946 1.356 . S
N1953 H1956 0.984 . S
N1953 H1957 0.985 . S
H1954 N1949 0.984 . S
H1955 N1949 0.985 . S
H1956 N1953 0.984 . S
H1957 N1953 0.985 . S
H1958 N1952 0.984 . S
H1959 N1952 0.984 . S
H1960 N1948 0.984 . S
H1961 N1948 0.985 . S
C1962 C1963 1.363 . S
C1962 C1968 1.379 . S
C1962 N1970 1.356 . S
C1963 C1962 1.363 . S
C1963 C1969 1.363 . S
C1964 C1965 1.363 . S
C1964 C1969 1.379 . S
C1964 N1971 1.356 . S
C1965 C1964 1.363 . S
C1965 C1968 1.363 . S
N1966 C1968 1.356 . S
N1966 H1978 0.984 . S
N1966 H1979 0.985 . S
N1967 C1969 1.356 . S
N1967 H1972 0.984 . S
N1967 H1973 0.985 . S
C1968 C1962 1.379 . S
C1968 C1965 1.363 . S
C1968 N1966 1.356 . S
C1969 C1963 1.363 . S
C1969 C1964 1.379 . S
C1969 N1967 1.356 . S
N1970 C1962 1.356 . S
N1970 H1976 0.984 . S
N1970 H1977 0.984 . S
N1971 C1964 1.356 . S
N1971 H1974 0.984 . S
N1971 H1975 0.985 . S
H1972 N1967 0.984 . S
H1973 N1967 0.985 . S
H1974 N1971 0.984 . S
H1975 N1971 0.985 . S
H1976 N1970 0.984 . S
H1977 N1970 0.984 . S
H1978 N1966 0.984 . S
H1979 N1966 0.985 . S
C1980 C1981 1.363 . S
C1980 C1986 1.379 . S
C1980 N1988 1.356 . S
C1981 C1980 1.363 . S
C1981 C1987 1.363 . S
C1982 C1983 1.363 . S
C1982 C1987 1.379 . S
C1982 N1989 1.356 . S
C1983 C1982 1.363 . S
C1983 C1986 1.363 . S
N1984 C1986 1.356 . S
N1984 H1996 0.984 . S
N1984 H1997 0.985 . S
N1985 C1987 1.356 . S
N1985 H1990 0.984 . S
N1985 H1991 0.985 . S
C1986 C1980 1.379 . S
C1986 C1983 1.363 . S
C1986 N1984 1.356 . S
C1987 C1981 1.363 . S
C1987 C1982 1.379 . S
C1987 N1985 1.356 . S
N1988 C1980 1.356 . S
N1988 H1994 0.984 . S
N1988 H1995 0.984 . S
N1989 C1982 1.356 . S
N1989 H1992 0.984 . S
N1989 H1993 0.985 . S
H1990 N1985 0.984 . S
H1991 N1985 0.985 . S
H1992 N1989 0.984 . S
H1993 N1989 0.985 . S
H1994 N1988 0.984 . S
H1995 N1988 0.984 . S
H1996 N1984 0.984 . S
H1997 N1984 0.985 . S
C1998 C1999 1.363 . S
C1998 C2004 1.379 . S
C1998 N2006 1.356 . S
C1999 C1998 1.363 . S
C1999 C2005 1.363 . S
C2000 C2001 1.363 . S
C2000 C2005 1.379 . S
C2000 N2007 1.356 . S
C2001 C2000 1.363 . S
C2001 C2004 1.363 . S
N2002 C2004 1.356 . S
N2002 H2014 0.984 . S
N2002 H2015 0.985 . S
N2003 C2005 1.356 . S
N2003 H2008 0.984 . S
N2003 H2009 0.985 . S
C2004 C1998 1.379 . S
C2004 C2001 1.363 . S
C2004 N2002 1.356 . S
C2005 C1999 1.363 . S
C2005 C2000 1.379 . S
C2005 N2003 1.356 . S
N2006 C1998 1.356 . S
N2006 H2012 0.984 . S
N2006 H2013 0.984 . S
N2007 C2000 1.356 . S
N2007 H2010 0.984 . S
N2007 H2011 0.985 . S
H2008 N2003 0.984 . S
H2009 N2003 0.985 . S
H2010 N2007 0.984 . S
H2011 N2007 0.985 . S
H2012 N2006 0.984 . S
H2013 N2006 0.984 . S
H2014 N2002 0.984 . S
H2015 N2002 0.985 . S
C2016 C2017 1.363 . S
C2016 C2022 1.379 . S
C2016 N2024 1.356 . S
C2017 C2016 1.363 . S
C2017 C2023 1.363 . S
C2018 C2019 1.363 . S
C2018 C2023 1.379 . S
C2018 N2025 1.356 . S
C2019 C2018 1.363 . S
C2019 C2022 1.363 . S
N2020 C2022 1.356 . S
N2020 H2032 0.984 . S
N2020 H2033 0.985 . S
N2021 C2023 1.356 . S
N2021 H2026 0.984 . S
N2021 H2027 0.985 . S
C2022 C2016 1.379 . S
C2022 C2019 1.363 . S
C2022 N2020 1.356 . S
C2023 C2017 1.363 . S
C2023 C2018 1.379 . S
C2023 N2021 1.356 . S
N2024 C2016 1.356 . S
N2024 H2030 0.984 . S
N2024 H2031 0.984 . S
N2025 C2018 1.356 . S
N2025 H2028 0.984 . S
N2025 H2029 0.985 . S
H2026 N2021 0.984 . S
H2027 N2021 0.985 . S
H2028 N2025 0.984 . S
H2029 N2025 0.985 . S
H2030 N2024 0.984 . S
H2031 N2024 0.984 . S
H2032 N2020 0.984 . S
H2033 N2020 0.985 . S
C2034 C2035 1.363 . S
C2034 C2040 1.379 . S
C2034 N2042 1.356 . S
C2035 C2034 1.363 . S
C2035 C2041 1.363 . S
C2036 C2037 1.363 . S
C2036 C2041 1.379 . S
C2036 N2043 1.356 . S
C2037 C2036 1.363 . S
C2037 C2040 1.363 . S
N2038 C2040 1.356 . S
N2038 H2050 0.984 . S
N2038 H2051 0.985 . S
N2039 C2041 1.356 . S
N2039 H2044 0.984 . S
N2039 H2045 0.985 . S
C2040 C2034 1.379 . S
C2040 C2037 1.363 . S
C2040 N2038 1.356 . S
C2041 C2035 1.363 . S
C2041 C2036 1.379 . S
C2041 N2039 1.356 . S
N2042 C2034 1.356 . S
N2042 H2048 0.984 . S
N2042 H2049 0.984 . S
N2043 C2036 1.356 . S
N2043 H2046 0.984 . S
N2043 H2047 0.985 . S
H2044 N2039 0.984 . S
H2045 N2039 0.985 . S
H2046 N2043 0.984 . S
H2047 N2043 0.985 . S
H2048 N2042 0.984 . S
H2049 N2042 0.984 . S
H2050 N2038 0.984 . S
H2051 N2038 0.985 . S
C2052 C2053 1.363 . S
C2052 C2058 1.379 . S
C2052 N2060 1.356 . S
C2053 C2052 1.363 . S
C2053 C2059 1.363 . S
C2054 C2055 1.363 . S
C2054 C2059 1.379 . S
C2054 N2061 1.356 . S
C2055 C2054 1.363 . S
C2055 C2058 1.363 . S
N2056 C2058 1.356 . S
N2056 H2068 0.984 . S
N2056 H2069 0.985 . S
N2057 C2059 1.356 . S
N2057 H2062 0.984 . S
N2057 H2063 0.985 . S
C2058 C2052 1.379 . S
C2058 C2055 1.363 . S
C2058 N2056 1.356 . S
C2059 C2053 1.363 . S
C2059 C2054 1.379 . S
C2059 N2057 1.356 . S
N2060 C2052 1.356 . S
N2060 H2066 0.984 . S
N2060 H2067 0.984 . S
N2061 C2054 1.356 . S
N2061 H2064 0.984 . S
N2061 H2065 0.985 . S
H2062 N2057 0.984 . S
H2063 N2057 0.985 . S
H2064 N2061 0.984 . S
H2065 N2061 0.985 . S
H2066 N2060 0.984 . S
H2067 N2060 0.984 . S
H2068 N2056 0.984 . S
H2069 N2056 0.985 . S
C1099 C253 1.505 . S
C1101 C409 1.446 . S
C1117 C272 1.539 . S
C1119 C493 1.483 . S
C1135 C234 1.494 . S
C1137 C573 1.507 . S
C1153 C215 1.496 . S
C1155 C489 1.513 . S
C1173 C577 1.446 . S
C1171 C177 1.511 . S
C1189 C196 1.465 . S
C1191 C405 1.477 1_556 S
C1209 C398 1.504 . S
C1207 C220 1.469 . S
C1227 C482 1.526 . S
C1225 C182 1.495 . S
C1243 C201 1.477 . S
C1245 C584 1.509 1_556 S
C1261 C258 1.457 . S
C1263 C500 1.487 . S
C1279 C277 1.452 . S
C1281 C566 1.481 . S
C1299 C416 1.469 . S
C1297 C239 1.435 . S
C1317 C661 1.446 . S
C1315 C25 1.504 . S
C1333 C44 1.539 . S
C1335 C745 1.483 . S
C1351 C6 1.494 . S
C1353 C825 1.508 . S
C1369 C329 1.496 . S
C1371 C741 1.511 . S
C1387 C291 1.511 . S
C1389 C829 1.445 . S
C1405 C310 1.465 . S
C1407 C657 1.477 . S
C1423 C334 1.469 . S
C1425 C650 1.504 . S
C1441 C296 1.495 . S
C1443 C734 1.526 . S
C1461 C836 1.509 . S
C1459 C315 1.477 . S
C1477 C30 1.457 . S
C1479 C752 1.487 . S
C1497 C818 1.480 . S
C1495 C49 1.452 . S
C1513 C11 1.435 . S
C1515 C668 1.469 . S
C1533 C913 1.446 . S
C1531 C139 1.504 . S
C1549 C158 1.539 . S
C1551 C997 1.483 . S
C1569 C1077 1.508 . S
C1567 C120 1.494 . S
C1587 C993 1.511 . S
C1585 C101 1.496 . S
C1605 C1081 1.445 . S
C1603 C63 1.510 . S
C1621 C82 1.465 . S
C1623 C909 1.477 . S
C1639 C106 1.469 . S
C1641 C902 1.504 . S
C1657 C68 1.495 . S
C1659 C986 1.526 . S
C1677 C1088 1.509 . S
C1675 C87 1.477 . S
C1693 C144 1.457 . S
C1695 C1004 1.487 . S
C1711 C163 1.452 . S
C1713 C1070 1.481 . S
C1729 C125 1.435 . S
C1731 C920 1.469 . S
C1747 C287 1.658 . S
C1749 C412 1.568 . S
C1767 C496 1.584 . S
C1765 C306 1.709 . S
C1783 C325 1.654 . S
C1785 C568 1.447 . S
C1801 C116 1.665 . S
C1803 C484 1.440 . S
C1819 C135 1.667 . S
C1821 C580 1.551 . S
C1839 C400 1.428 . S
C1837 C154 1.615 . S
C1855 C59 1.658 . S
C1857 C664 1.567 . S
C1873 C78 1.709 . S
C1875 C748 1.584 . S
C1891 C97 1.653 . S
C1893 C820 1.447 . S
C1909 C230 1.665 . S
C1911 C736 1.440 . S
C1929 C832 1.551 . S
C1927 C249 1.667 . S
C1945 C268 1.615 . S
C1947 C652 1.428 . S
C1963 C173 1.658 . S
C1965 C916 1.567 . S
C1981 C192 1.709 . S
C1983 C1000 1.584 . S
C2001 C1072 1.447 . S
C1999 C211 1.654 . S
C2017 C2 1.665 . S
C2019 C988 1.440 . S
C2035 C21 1.667 . S
C2037 C1084 1.551 . S
C2053 C40 1.615 . S
C2055 C904 1.428 . S
