# Generated by pormake.
# Topology dag, (6,3)-cn, num edge types: 1
# Building blocks:
#     Node 0, Type 0, BuildingBlock: IZENUY_clean_sbu_0, # of connection points: 6
#     Node 1, Type 0, BuildingBlock: IZENUY_clean_sbu_0, # of connection points: 6
#     Node 2, Type 0, BuildingBlock: IZENUY_clean_sbu_0, # of connection points: 6
#     Node 3, Type 0, BuildingBlock: IZENUY_clean_sbu_0, # of connection points: 6
#     Node 4, Type 1, BuildingBlock: KAKCAD_clean_linker_0, # of connection points: 3
#     Node 5, Type 1, BuildingBlock: KAKCAD_clean_linker_0, # of connection points: 3
#     Node 6, Type 1, BuildingBlock: KAKCAD_clean_linker_0, # of connection points: 3
#     Node 7, Type 1, BuildingBlock: KAKCAD_clean_linker_0, # of connection points: 3
#     Node 8, Type 1, BuildingBlock: KAKCAD_clean_linker_0, # of connection points: 3
#     Node 9, Type 1, BuildingBlock: KAKCAD_clean_linker_0, # of connection points: 3
#     Node 10, Type 1, BuildingBlock: KAKCAD_clean_linker_0, # of connection points: 3
#     Node 11, Type 1, BuildingBlock: KAKCAD_clean_linker_0, # of connection points: 3
#     Edge 12, Type (0, 1), None
#     Edge 13, Type (0, 1), None
#     Edge 14, Type (0, 1), None
#     Edge 15, Type (0, 1), None
#     Edge 16, Type (0, 1), None
#     Edge 17, Type (0, 1), None
#     Edge 18, Type (0, 1), None
#     Edge 19, Type (0, 1), None
#     Edge 20, Type (0, 1), None
#     Edge 21, Type (0, 1), None
#     Edge 22, Type (0, 1), None
#     Edge 23, Type (0, 1), None
#     Edge 24, Type (0, 1), None
#     Edge 25, Type (0, 1), None
#     Edge 26, Type (0, 1), None
#     Edge 27, Type (0, 1), None
#     Edge 28, Type (0, 1), None
#     Edge 29, Type (0, 1), None
#     Edge 30, Type (0, 1), None
#     Edge 31, Type (0, 1), None
#     Edge 32, Type (0, 1), None
#     Edge 33, Type (0, 1), None
#     Edge 34, Type (0, 1), None
#     Edge 35, Type (0, 1), None
# Relax obj value: 0.253
# Max RMSD: 0.194
# Mean RMSD: 0.161
data_MOF--net-dag--node1-IZENUY_clean_sbu_0--node2-KAKCAD_clean_linker_0--edge1-none
_symmetry_space_group_name_H-M    P1
_symmetry_Int_Tables_number       1
_symmetry_cell_setting            triclinic
loop_
_symmetry_equiv_pos_as_xyz
'x, y, z'
_cell_length_a     25.923825
_cell_length_b     27.112381
_cell_length_c     22.858743
_cell_angle_alpha  94.785729
_cell_angle_beta   90.13755
_cell_angle_gamma 89.996071
loop_
_atom_site_label
_atom_site_type_symbol
_atom_site_fract_x
_atom_site_fract_y
_atom_site_fract_z
_atom_type_partial_charge
Fe0 Fe 0.22994 0.86518 0.09509 0.0
Fe1 Fe 0.12699 0.89339 0.04172 0.0
O2 O 0.17014 0.84767 0.06169 0.0
Fe3 Fe 0.15261 0.7846 0.04762 0.0
O4 O 0.18776 0.76351 0.11103 0.0
O5 O 0.21555 0.83218 0.15849 0.0
O6 O 0.20342 0.92107 0.13692 0.0
C7 C 0.15692 0.93237 0.14988 0.0
C8 C 0.25386 0.78378 0.01354 0.0
O9 O 0.12017 0.9171 0.11708 0.0
C10 C 0.11917 0.82823 0.9457 0.0
O11 O 0.24968 0.89999 0.03423 0.0
O12 O 0.17623 0.93918 0.02863 0.0
O13 O 0.20752 0.77379 0.00052 0.0
O14 O 0.26562 0.8122 0.05865 0.0
C15 C 0.06149 0.82407 0.08693 0.0
O16 O 0.13228 0.87128 0.96522 0.0
O17 O 0.11505 0.79421 0.98047 0.0
C18 C 0.22329 0.93437 0.01579 0.0
O19 O 0.06894 0.85688 0.05176 0.0
O20 O 0.09591 0.79238 0.0947 0.0
C21 C 0.20486 0.78684 0.1574 0.0
Fe22 Fe 0.73274 0.62911 0.49185 0.0
Fe23 Fe 0.65467 0.70876 0.53935 0.0
O24 O 0.67233 0.64589 0.52391 0.0
Fe25 Fe 0.62871 0.59955 0.54074 0.0
O26 O 0.67777 0.55349 0.55407 0.0
O27 O 0.75127 0.59318 0.55237 0.0
O28 O 0.76765 0.68167 0.53018 0.0
C29 C 0.75541 0.7098 0.57524 0.0
C30 C 0.66113 0.56343 0.43252 0.0
O31 O 0.70888 0.71873 0.58815 0.0
C32 C 0.56412 0.67028 0.49617 0.0
O33 O 0.71932 0.66323 0.42907 0.0
O34 O 0.69085 0.73111 0.47761 0.0
O35 O 0.62367 0.57773 0.46455 0.0
O36 O 0.70729 0.57385 0.4479 0.0
C37 C 0.61833 0.66254 0.63828 0.0
O38 O 0.59878 0.70218 0.49067 0.0
O39 O 0.57086 0.63619 0.52983 0.0
C40 C 0.70839 0.70856 0.43106 0.0
O41 O 0.61585 0.69766 0.60483 0.0
O42 O 0.63199 0.61987 0.61796 0.0
C43 C 0.72454 0.55816 0.5687 0.0
Fe44 Fe 0.84011 0.21046 0.02644 0.0
Fe45 Fe 0.86336 0.10218 0.04545 0.0
O46 O 0.82192 0.14711 0.02004 0.0
Fe47 Fe 0.76208 0.12754 0.98827 0.0
O48 O 0.75846 0.17669 0.93817 0.0
O49 O 0.83295 0.2151 0.94825 0.0
O50 O 0.90936 0.19783 0.01199 0.0
C51 C 0.93177 0.15894 0.98971 0.0
C52 C 0.73418 0.20991 0.05832 0.0
O53 O 0.91253 0.11665 0.99408 0.0
C54 C 0.77278 0.06728 0.08308 0.0
O55 O 0.84907 0.21197 0.10578 0.0
O56 O 0.89252 0.14256 0.10358 0.0
O57 O 0.72734 0.16427 0.04483 0.0
O58 O 0.77382 0.23246 0.04151 0.0
C59 C 0.82533 0.05549 0.9402 0.0
O60 O 0.81582 0.08579 0.09836 0.0
O61 O 0.75411 0.07443 0.03313 0.0
C62 C 0.87676 0.18188 0.13082 0.0
O63 O 0.84263 0.05275 0.99151 0.0
O64 O 0.79451 0.08968 0.92959 0.0
C65 C 0.79288 0.20404 0.91883 0.0
Fe66 Fe 0.36712 0.39482 0.5521 0.0
Fe67 Fe 0.2623 0.36554 0.59794 0.0
O68 O 0.32412 0.3482 0.5699 0.0
Fe69 Fe 0.34243 0.28494 0.5598 0.0
O70 O 0.41115 0.29618 0.57858 0.0
O71 O 0.41412 0.37624 0.6039 0.0
O72 O 0.3448 0.44023 0.61042 0.0
C73 C 0.32374 0.43277 0.65874 0.0
C74 C 0.38323 0.31975 0.46072 0.0
O75 O 0.29062 0.39918 0.66206 0.0
C76 C 0.23854 0.28704 0.52049 0.0
O77 O 0.32244 0.41593 0.49868 0.0
O78 O 0.25685 0.42219 0.55877 0.0
O79 O 0.35473 0.28801 0.48172 0.0
O80 O 0.39772 0.35809 0.49143 0.0
C81 C 0.28989 0.28571 0.66339 0.0
O82 O 0.23139 0.33239 0.53553 0.0
O83 O 0.27687 0.26374 0.53934 0.0
C84 C 0.27831 0.43265 0.51167 0.0
O85 O 0.25595 0.31278 0.64243 0.0
O86 O 0.33173 0.27642 0.63673 0.0
C87 C 0.43339 0.33366 0.60452 0.0
C88 C 0.94003 0.22834 0.1952 0.0
C89 C 0.89922 0.19427 0.18908 0.0
C90 C 0.97812 0.22337 0.23792 0.0
C91 C 0.97551 0.18426 0.27444 0.0
C92 C 0.93099 0.15478 0.27344 0.0
C93 C 0.8931 0.15975 0.23096 0.0
C94 C 0.02334 0.16566 0.3001 0.0
C95 C 0.05225 0.1943 0.34224 0.0
C96 C 0.0998 0.17655 0.36201 0.0
C97 C 0.11854 0.1306 0.33769 0.0
C98 C 0.08998 0.10187 0.29555 0.0
C99 C 0.04221 0.11948 0.27748 0.0
C100 C 0.11091 0.05489 0.26736 0.0
C101 C 0.16193 0.05215 0.24635 0.0
C102 C 0.07842 0.01374 0.25664 0.0
C103 C 0.09512 0.97226 0.2218 0.0
C104 C 0.1447 0.97098 0.19702 0.0
C105 C 0.13134 0.20606 0.40641 0.0
C106 C 0.13609 0.25761 0.40507 0.0
C107 C 0.15961 0.18217 0.44842 0.0
C108 C 0.19395 0.20866 0.48597 0.0
C109 C 0.19989 0.25982 0.4833 0.0
C110 C 0.16983 0.28432 0.44352 0.0
C111 C 0.17877 0.01037 0.21147 0.0
H112 H 0.94602 0.25451 0.16253 0.0
H113 H 0.01242 0.24619 0.23761 0.0
H114 H 0.92833 0.12432 0.30111 0.0
H115 H 0.86227 0.13266 0.2264 0.0
H116 H 0.03751 0.22992 0.35969 0.0
H117 H 0.02065 0.09827 0.24328 0.0
H118 H 0.15587 0.11731 0.35089 0.0
H119 H 0.18778 0.08344 0.2538 0.0
H120 H 0.03931 0.0144 0.27332 0.0
H121 H 0.06835 0.94199 0.21208 0.0
H122 H 0.11528 0.2771 0.37293 0.0
H123 H 0.15584 0.14272 0.45174 0.0
H124 H 0.21708 0.0104 0.19264 0.0
H125 H 0.17384 0.32382 0.44059 0.0
H126 H 0.21604 0.18901 0.51695 0.0
C127 C 0.30899 0.50796 0.72597 0.0
C128 C 0.33779 0.46526 0.71046 0.0
C129 C 0.32929 0.54495 0.76567 0.0
C130 C 0.37881 0.53969 0.78989 0.0
C131 C 0.40575 0.49511 0.77732 0.0
C132 C 0.38539 0.45823 0.73769 0.0
C133 C 0.40514 0.58325 0.81999 0.0
C134 C 0.37825 0.61625 0.85902 0.0
C135 C 0.39897 0.66288 0.87734 0.0
C136 C 0.44807 0.676 0.85781 0.0
C137 C 0.47599 0.64263 0.8196 0.0
C138 C 0.45451 0.59618 0.8018 0.0
C139 C 0.52249 0.65804 0.78841 0.0
C140 C 0.51991 0.69909 0.75485 0.0
C141 C 0.56426 0.62523 0.78033 0.0
C142 C 0.59893 0.62966 0.7345 0.0
C143 C 0.59244 0.66705 0.69606 0.0
C144 C 0.36547 0.69941 0.91007 0.0
C145 C 0.31605 0.70779 0.88798 0.0
C146 C 0.38034 0.7231 0.96448 0.0
C147 C 0.34478 0.75242 0.99796 0.0
C148 C 0.29419 0.75815 0.97712 0.0
C149 C 0.28084 0.73674 0.92107 0.0
C150 C 0.55478 0.70366 0.70898 0.0
H151 H 0.27252 0.51414 0.70448 0.0
H152 H 0.30791 0.57915 0.77381 0.0
H153 H 0.44377 0.48996 0.79562 0.0
H154 H 0.40809 0.42538 0.72582 0.0
H155 H 0.33982 0.60663 0.87289 0.0
H156 H 0.47429 0.57193 0.76901 0.0
H157 H 0.46311 0.71281 0.86953 0.0
H158 H 0.48792 0.72479 0.76001 0.0
H159 H 0.56728 0.59352 0.80602 0.0
H160 H 0.62826 0.60146 0.72637 0.0
H161 H 0.30411 0.69068 0.84555 0.0
H162 H 0.41846 0.71718 0.98209 0.0
H163 H 0.54909 0.73316 0.68045 0.0
H164 H 0.24258 0.74133 0.90311 0.0
H165 H 0.35617 0.76883 0.04087 0.0
C166 C 0.98381 0.78116 0.12601 0.0
C167 C 0.01164 0.82451 0.11777 0.0
C168 C 0.93324 0.78439 0.14828 0.0
C169 C 0.91056 0.83099 0.16303 0.0
C170 C 0.94037 0.87378 0.15868 0.0
C171 C 0.98982 0.8706 0.13561 0.0
C172 C 0.85543 0.83664 0.18012 0.0
C173 C 0.83281 0.80816 0.22172 0.0
C174 C 0.78283 0.81951 0.24339 0.0
C175 C 0.75586 0.85993 0.2232 0.0
C176 C 0.77774 0.88735 0.18046 0.0
C177 C 0.82652 0.87472 0.15813 0.0
C178 C 0.75499 0.9339 0.16399 0.0
C179 C 0.73691 0.93679 0.10652 0.0
C180 C 0.76683 0.97756 0.1987 0.0
C181 C 0.76708 0.02287 0.17385 0.0
C182 C 0.75482 0.02502 0.11422 0.0
C183 C 0.76035 0.79094 0.28963 0.0
C184 C 0.76454 0.73916 0.28574 0.0
C185 C 0.736 0.81527 0.33881 0.0
C186 C 0.71762 0.78844 0.38403 0.0
C187 C 0.72321 0.73673 0.38096 0.0
C188 C 0.74608 0.71233 0.3308 0.0
C189 C 0.73617 0.98228 0.08193 0.0
H190 H 3e-05 0.74518 0.1126 0.0
H191 H 0.91128 0.75077 0.15161 0.0
H192 H 0.92492 0.91017 0.17168 0.0
H193 H 0.01074 0.90458 0.13059 0.0
H194 H 0.85506 0.77905 0.23957 0.0
H195 H 0.84324 0.8968 0.12551 0.0
H196 H 0.71825 0.87029 0.2408 0.0
H197 H 0.72849 0.90333 0.07885 0.0
H198 H 0.78166 0.97589 0.24286 0.0
H199 H 0.78143 0.05535 0.19967 0.0
H200 H 0.78246 0.71939 0.24796 0.0
H201 H 0.73262 0.85523 0.34327 0.0
H202 H 0.72671 0.9828 0.03579 0.0
H203 H 0.75074 0.67249 0.32675 0.0
H204 H 0.70023 0.8084 0.42202 0.0
C205 C 0.5091 0.37214 0.65782 0.0
C206 C 0.48615 0.32987 0.62877 0.0
C207 C 0.56084 0.37194 0.67383 0.0
C208 C 0.59102 0.32949 0.66155 0.0
C209 C 0.56782 0.28611 0.6359 0.0
C210 C 0.51563 0.28631 0.6194 0.0
C211 C 0.64723 0.33279 0.67184 0.0
C212 C 0.6721 0.30263 0.70987 0.0
C213 C 0.72433 0.31088 0.72562 0.0
C214 C 0.75129 0.34999 0.70211 0.0
C215 C 0.72647 0.37967 0.66328 0.0
C216 C 0.67492 0.37046 0.64797 0.0
C217 C 0.75025 0.42454 0.64299 0.0
C218 C 0.74818 0.46855 0.67994 0.0
C219 C 0.75802 0.42704 0.58258 0.0
C220 C 0.75727 0.47275 0.55861 0.0
C221 C 0.74865 0.51633 0.5948 0.0
C222 C 0.74846 0.28131 0.77049 0.0
C223 C 0.73464 0.2314 0.77379 0.0
C224 C 0.78196 0.30368 0.81347 0.0
C225 C 0.79896 0.27756 0.86009 0.0
C226 C 0.78198 0.22895 0.86527 0.0
C227 C 0.75066 0.20575 0.82106 0.0
C228 C 0.74702 0.51434 0.65585 0.0
H229 H 0.48765 0.40624 0.66639 0.0
H230 H 0.5778 0.40562 0.69438 0.0
H231 H 0.59055 0.25291 0.62622 0.0
H232 H 0.49905 0.25312 0.5973 0.0
H233 H 0.64966 0.27485 0.7299 0.0
H234 H 0.65541 0.39444 0.61926 0.0
H235 H 0.79106 0.3578 0.71421 0.0
H236 H 0.74097 0.46733 0.72647 0.0
H237 H 0.7586 0.3935 0.55328 0.0
H238 H 0.7574 0.47351 0.51127 0.0
H239 H 0.71015 0.21245 0.74069 0.0
H240 H 0.79303 0.34213 0.81298 0.0
H241 H 0.73907 0.54746 0.68428 0.0
H242 H 0.73768 0.16801 0.82367 0.0
H243 H 0.82297 0.29637 0.89381 0.0
C244 C 0.60133 0.52786 0.35562 0.0
C245 C 0.64981 0.5268 0.38303 0.0
C246 C 0.58424 0.48751 0.31914 0.0
C247 C 0.61532 0.4453 0.3094 0.0
C248 C 0.66573 0.44598 0.33236 0.0
C249 C 0.68297 0.48664 0.36898 0.0
C250 C 0.59256 0.39885 0.28233 0.0
C251 C 0.61891 0.36921 0.23935 0.0
C252 C 0.59829 0.32352 0.21645 0.0
C253 C 0.55129 0.3069 0.2391 0.0
C254 C 0.52468 0.33659 0.2824 0.0
C255 C 0.54537 0.38254 0.30308 0.0
C256 C 0.47773 0.31962 0.31151 0.0
C257 C 0.43498 0.35145 0.31735 0.0
C258 C 0.48065 0.27948 0.34655 0.0
C259 C 0.44486 0.27516 0.39178 0.0
C260 C 0.40606 0.31094 0.40207 0.0
C261 C 0.62778 0.29303 0.17097 0.0
C262 C 0.65563 0.31607 0.12798 0.0
C263 C 0.63178 0.24147 0.17274 0.0
C264 C 0.66481 0.21404 0.13425 0.0
C265 C 0.69497 0.23779 0.09397 0.0
C266 C 0.68936 0.28886 0.09044 0.0
C267 C 0.39966 0.34738 0.3626 0.0
H268 H 0.5754 0.55884 0.36502 0.0
H269 H 0.54559 0.48819 0.30107 0.0
H270 H 0.69037 0.41376 0.32554 0.0
H271 H 0.72046 0.48494 0.38975 0.0
H272 H 0.65605 0.38158 0.22455 0.0
H273 H 0.52586 0.40463 0.33812 0.0
H274 H 0.53524 0.27142 0.22305 0.0
H275 H 0.43204 0.38274 0.29096 0.0
H276 H 0.51364 0.25487 0.34332 0.0
H277 H 0.45096 0.24732 0.42244 0.0
H278 H 0.65236 0.3555 0.12421 0.0
H279 H 0.61128 0.22256 0.2055 0.0
H280 H 0.37028 0.37563 0.37021 0.0
H281 H 0.71153 0.30793 0.05912 0.0
H282 H 0.66855 0.17461 0.13791 0.0
C283 C 0.0061 0.11822 0.93629 0.0
C284 C 0.98404 0.16144 0.96398 0.0
C285 C 0.05711 0.11789 0.91755 0.0
C286 C 0.08743 0.16075 0.92563 0.0
C287 C 0.06496 0.20487 0.95011 0.0
C288 C 0.01354 0.20521 0.96934 0.0
C289 C 0.14324 0.15723 0.91262 0.0
C290 C 0.1666 0.18657 0.87257 0.0
C291 C 0.21848 0.17835 0.85534 0.0
C292 C 0.24653 0.1401 0.8793 0.0
C293 C 0.22326 0.11122 0.91987 0.0
C294 C 0.17213 0.12041 0.93674 0.0
C295 C 0.24809 0.06689 0.94024 0.0
C296 C 0.24605 0.0227 0.90363 0.0
C297 C 0.25692 0.06487 0.00057 0.0
C298 C 0.25691 0.01934 0.02495 0.0
C299 C 0.24789 0.97557 0.98923 0.0
C300 C 0.24162 0.20744 0.80945 0.0
C301 C 0.22734 0.25712 0.80538 0.0
C302 C 0.2758 0.18517 0.76725 0.0
C303 C 0.29369 0.21138 0.72118 0.0
C304 C 0.27687 0.25995 0.71566 0.0
C305 C 0.24423 0.28282 0.75862 0.0
C306 C 0.24553 0.97713 0.92814 0.0
H307 H 0.9844 0.084 0.93044 0.0
H308 H 0.0734 0.08358 0.89799 0.0
H309 H 0.08775 0.23837 0.95667 0.0
H310 H 0.99758 0.23915 0.99018 0.0
H311 H 0.14333 0.21378 0.8525 0.0
H312 H 0.15388 0.09705 0.96702 0.0
H313 H 0.28606 0.13237 0.86637 0.0
H314 H 0.23815 0.02357 0.85715 0.0
H315 H 0.25759 0.09857 0.02959 0.0
H316 H 0.2576 0.01889 0.07233 0.0
H317 H 0.20232 0.27607 0.8378 0.0
H318 H 0.28717 0.14683 0.76818 0.0
H319 H 0.23729 0.94382 0.9001 0.0
H320 H 0.23126 0.32054 0.75569 0.0
H321 H 0.31862 0.19282 0.68833 0.0
C322 C 0.48632 0.71544 0.46074 0.0
C323 C 0.51444 0.67153 0.46498 0.0
C324 C 0.43536 0.71331 0.4393 0.0
C325 C 0.41262 0.6673 0.42155 0.0
C326 C 0.4427 0.62423 0.42154 0.0
C327 C 0.49263 0.62626 0.44361 0.0
C328 C 0.35688 0.66215 0.4073 0.0
C329 C 0.33272 0.69038 0.36642 0.0
C330 C 0.28202 0.67888 0.34688 0.0
C331 C 0.25589 0.6387 0.36878 0.0
C332 C 0.27941 0.61166 0.41104 0.0
C333 C 0.329 0.62433 0.43096 0.0
C334 C 0.25768 0.56516 0.42903 0.0
C335 C 0.24115 0.56282 0.48715 0.0
C336 C 0.26959 0.52125 0.39493 0.0
C337 C 0.27123 0.47638 0.42069 0.0
C338 C 0.26008 0.47482 0.48059 0.0
C339 C 0.25812 0.70678 0.30069 0.0
C340 C 0.26242 0.75853 0.3033 0.0
C341 C 0.23279 0.6818 0.25245 0.0
C342 C 0.21382 0.7079 0.20674 0.0
C343 C 0.21974 0.75955 0.20838 0.0
C344 C 0.24333 0.78463 0.25779 0.0
C345 C 0.24169 0.51768 0.51265 0.0
H346 H 0.50254 0.75079 0.47697 0.0
H347 H 0.41305 0.74708 0.43935 0.0
H348 H 0.42685 0.5884 0.40647 0.0
H349 H 0.51376 0.59196 0.44562 0.0
H350 H 0.35433 0.71923 0.34733 0.0
H351 H 0.34724 0.60235 0.46279 0.0
H352 H 0.21774 0.62816 0.35275 0.0
H353 H 0.23288 0.5965 0.51443 0.0
H354 H 0.2834 0.52249 0.35036 0.0
H355 H 0.28548 0.44375 0.39514 0.0
H356 H 0.28111 0.77882 0.34032 0.0
H357 H 0.22925 0.64186 0.24898 0.0
H358 H 0.23327 0.5175 0.55904 0.0
H359 H 0.24827 0.82444 0.26079 0.0
H360 H 0.19586 0.68741 0.1694 0.0
C361 C 0.10485 0.85826 0.84682 0.0
C362 C 0.09563 0.82236 0.88654 0.0
C363 C 0.07154 0.86278 0.79955 0.0
C364 C 0.02846 0.83158 0.79142 0.0
C365 C 0.02366 0.79129 0.82592 0.0
C366 C 0.05715 0.78663 0.87324 0.0
C367 C 0.98205 0.84972 0.76222 0.0
C368 C 0.95209 0.81867 0.72336 0.0
C369 C 0.90202 0.83318 0.70808 0.0
C370 C 0.8823 0.87892 0.7318 0.0
C371 C 0.91119 0.90891 0.77215 0.0
C372 C 0.96174 0.89529 0.78491 0.0
C373 C 0.88508 0.94602 0.81264 0.0
C374 C 0.8601 0.98773 0.79337 0.0
C375 C 0.88512 0.93849 0.87251 0.0
C376 C 0.86317 0.9731 0.913 0.0
C377 C 0.84064 0.01641 0.8948 0.0
C378 C 0.86691 0.79795 0.67524 0.0
C379 C 0.88143 0.77281 0.62159 0.0
C380 C 0.81747 0.79031 0.69762 0.0
C381 C 0.78214 0.7604 0.66569 0.0
C382 C 0.79543 0.7371 0.61064 0.0
C383 C 0.84583 0.74253 0.58938 0.0
C384 C 0.8381 0.02304 0.83444 0.0
H385 H 0.13497 0.88567 0.85524 0.0
H386 H 0.07611 0.894 0.77335 0.0
H387 H 0.99057 0.76689 0.82075 0.0
H388 H 0.04945 0.75822 0.90269 0.0
H389 H 0.96624 0.78217 0.70842 0.0
H390 H 0.98309 0.91774 0.81826 0.0
H391 H 0.84274 0.88908 0.72299 0.0
H392 H 0.85908 0.99368 0.74712 0.0
H393 H 0.90286 0.90584 0.8882 0.0
H394 H 0.86511 0.96633 0.95901 0.0
H395 H 0.91957 0.77789 0.60378 0.0
H396 H 0.80579 0.80807 0.73974 0.0
H397 H 0.82099 0.05615 0.81931 0.0
H398 H 0.85718 0.72479 0.54716 0.0
H399 H 0.74399 0.75621 0.6839 0.0
loop_
_geom_bond_atom_site_label_1
_geom_bond_atom_site_label_2
_geom_bond_distance
_geom_bond_site_symmetry_2
_ccdc_geom_bond_type
Fe0 O2 1.918 . S
Fe0 O5 1.997 . S
Fe0 O6 2.002 . S
Fe0 O11 1.976 . S
Fe0 O14 1.996 . S
Fe1 O2 1.918 . S
Fe1 O9 1.997 . S
Fe1 O12 1.996 . S
Fe1 O16 1.976 1_554 S
Fe1 O19 2.002 . S
O2 Fe0 1.918 . S
O2 Fe1 1.918 . S
O2 Fe3 1.918 . S
Fe3 O2 1.918 . S
Fe3 O4 2.002 . S
Fe3 O13 1.976 . S
Fe3 O17 1.996 1_554 S
Fe3 O20 1.997 . S
O4 Fe3 2.002 . S
O4 C21 1.295 . S
O5 Fe0 1.997 . S
O5 C21 1.235 . S
O6 Fe0 2.002 . S
O6 C7 1.295 . S
C7 O6 1.295 . S
C7 O9 1.235 . S
C8 O13 1.287 . S
C8 O14 1.255 . S
O9 Fe1 1.997 . S
O9 C7 1.235 . S
C10 O16 1.287 . S
C10 O17 1.255 . S
O11 Fe0 1.976 . S
O11 C18 1.287 . S
O12 Fe1 1.996 . S
O12 C18 1.255 . S
O13 Fe3 1.976 . S
O13 C8 1.287 . S
O14 Fe0 1.996 . S
O14 C8 1.255 . S
C15 O19 1.295 . S
C15 O20 1.235 . S
O16 Fe1 1.976 1_556 S
O16 C10 1.287 . S
O17 Fe3 1.996 1_556 S
O17 C10 1.255 . S
C18 O11 1.287 . S
C18 O12 1.255 . S
O19 Fe1 2.002 . S
O19 C15 1.295 . S
O20 Fe3 1.997 . S
O20 C15 1.235 . S
C21 O4 1.295 . S
C21 O5 1.235 . S
Fe22 O24 1.918 . S
Fe22 O27 1.997 . S
Fe22 O28 2.002 . S
Fe22 O33 1.976 . S
Fe22 O36 1.996 . S
Fe23 O24 1.918 . S
Fe23 O31 1.997 . S
Fe23 O34 1.996 . S
Fe23 O38 1.976 . S
Fe23 O41 2.002 . S
O24 Fe22 1.918 . S
O24 Fe23 1.918 . S
O24 Fe25 1.918 . S
Fe25 O24 1.918 . S
Fe25 O26 2.002 . S
Fe25 O35 1.976 . S
Fe25 O39 1.996 . S
Fe25 O42 1.997 . S
O26 Fe25 2.002 . S
O26 C43 1.295 . S
O27 Fe22 1.997 . S
O27 C43 1.235 . S
O28 Fe22 2.002 . S
O28 C29 1.295 . S
C29 O28 1.295 . S
C29 O31 1.235 . S
C30 O35 1.287 . S
C30 O36 1.255 . S
O31 Fe23 1.997 . S
O31 C29 1.235 . S
C32 O38 1.287 . S
C32 O39 1.255 . S
O33 Fe22 1.976 . S
O33 C40 1.287 . S
O34 Fe23 1.996 . S
O34 C40 1.255 . S
O35 Fe25 1.976 . S
O35 C30 1.287 . S
O36 Fe22 1.996 . S
O36 C30 1.255 . S
C37 O41 1.295 . S
C37 O42 1.235 . S
O38 Fe23 1.976 . S
O38 C32 1.287 . S
O39 Fe25 1.996 . S
O39 C32 1.255 . S
C40 O33 1.287 . S
C40 O34 1.255 . S
O41 Fe23 2.002 . S
O41 C37 1.295 . S
O42 Fe25 1.997 . S
O42 C37 1.235 . S
C43 O26 1.295 . S
C43 O27 1.235 . S
Fe44 O46 1.918 . S
Fe44 O49 1.997 1_554 S
Fe44 O50 2.006 . S
Fe44 O55 1.976 . S
Fe44 O58 1.996 . S
Fe45 O46 1.918 . S
Fe45 O53 1.997 1_554 S
Fe45 O56 1.996 . S
Fe45 O60 1.976 . S
Fe45 O63 2.002 1_554 S
O46 Fe44 1.918 . S
O46 Fe45 1.918 . S
O46 Fe47 1.918 1_554 S
Fe47 O46 1.918 1_556 S
Fe47 O48 2.002 . S
Fe47 O57 1.976 1_556 S
Fe47 O61 1.996 1_556 S
Fe47 O64 1.997 . S
O48 Fe47 2.002 . S
O48 C65 1.295 . S
O49 Fe44 1.997 1_556 S
O49 C65 1.235 . S
O50 Fe44 2.006 . S
O50 C51 1.294 1_554 S
C51 O50 1.294 1_556 S
C51 O53 1.235 . S
C52 O57 1.287 . S
C52 O58 1.255 . S
O53 Fe45 1.997 1_556 S
O53 C51 1.235 . S
C54 O60 1.287 . S
C54 O61 1.255 . S
O55 Fe44 1.976 . S
O55 C62 1.287 . S
O56 Fe45 1.996 . S
O56 C62 1.255 . S
O57 Fe47 1.976 1_554 S
O57 C52 1.287 . S
O58 Fe44 1.996 . S
O58 C52 1.255 . S
C59 O63 1.295 . S
C59 O64 1.235 . S
O60 Fe45 1.976 . S
O60 C54 1.287 . S
O61 Fe47 1.996 1_554 S
O61 C54 1.255 . S
C62 O55 1.287 . S
C62 O56 1.255 . S
O63 Fe45 2.002 1_556 S
O63 C59 1.295 . S
O64 Fe47 1.997 . S
O64 C59 1.235 . S
C65 O48 1.295 . S
C65 O49 1.235 . S
Fe66 O68 1.918 . S
Fe66 O71 1.997 . S
Fe66 O72 2.002 . S
Fe66 O77 1.976 . S
Fe66 O80 1.996 . S
Fe67 O68 1.918 . S
Fe67 O75 1.997 . S
Fe67 O78 1.996 . S
Fe67 O82 1.976 . S
Fe67 O85 2.002 . S
O68 Fe66 1.918 . S
O68 Fe67 1.918 . S
O68 Fe69 1.918 . S
Fe69 O68 1.918 . S
Fe69 O70 2.002 . S
Fe69 O79 1.976 . S
Fe69 O83 1.996 . S
Fe69 O86 1.997 . S
O70 Fe69 2.002 . S
O70 C87 1.295 . S
O71 Fe66 1.997 . S
O71 C87 1.235 . S
O72 Fe66 2.002 . S
O72 C73 1.295 . S
C73 O72 1.295 . S
C73 O75 1.235 . S
C74 O79 1.287 . S
C74 O80 1.255 . S
O75 Fe67 1.997 . S
O75 C73 1.235 . S
C76 O82 1.287 . S
C76 O83 1.255 . S
O77 Fe66 1.976 . S
O77 C84 1.287 . S
O78 Fe67 1.996 . S
O78 C84 1.255 . S
O79 Fe69 1.976 . S
O79 C74 1.287 . S
O80 Fe66 1.996 . S
O80 C74 1.255 . S
C81 O85 1.295 . S
C81 O86 1.235 . S
O82 Fe67 1.976 . S
O82 C76 1.287 . S
O83 Fe69 1.996 . S
O83 C76 1.255 . S
C84 O77 1.287 . S
C84 O78 1.255 . S
O85 Fe67 2.002 . S
O85 C81 1.295 . S
O86 Fe69 1.997 . S
O86 C81 1.235 . S
C87 O70 1.295 . S
C87 O71 1.235 . S
C88 C89 1.386 . S
C88 C90 1.397 . S
C88 H112 0.931 . S
C89 C88 1.386 . S
C89 C93 1.397 . S
C90 C88 1.397 . S
C90 C91 1.384 . S
C90 H113 0.930 1_655 S
C91 C90 1.384 . S
C91 C92 1.377 . S
C91 C94 1.481 1_655 S
C92 C91 1.377 . S
C92 C93 1.389 . S
C92 H114 0.929 . S
C93 C89 1.397 . S
C93 C92 1.389 . S
C93 H115 0.931 . S
C94 C91 1.481 1_455 S
C94 C95 1.387 . S
C94 C99 1.390 . S
C95 C94 1.387 . S
C95 C96 1.401 . S
C95 H116 0.930 . S
C96 C95 1.401 . S
C96 C97 1.376 . S
C96 C105 1.511 . S
C97 C96 1.376 . S
C97 C98 1.392 . S
C97 H118 0.931 . S
C98 C97 1.392 . S
C98 C99 1.361 . S
C98 C100 1.500 . S
C99 C94 1.390 . S
C99 C98 1.361 . S
C99 H117 0.931 . S
C100 C98 1.500 . S
C100 C101 1.371 . S
C100 C102 1.365 1_545 S
C101 C100 1.371 . S
C101 C111 1.386 1_545 S
C101 H119 0.931 . S
C102 C100 1.365 1_565 S
C102 C103 1.409 . S
C102 H120 0.929 1_565 S
C103 C102 1.409 . S
C103 C104 1.380 . S
C103 H121 0.930 . S
C104 C103 1.380 . S
C104 C111 1.357 . S
C105 C96 1.511 . S
C105 C106 1.341 . S
C105 C107 1.371 . S
C106 C105 1.341 . S
C106 C110 1.394 . S
C106 H122 0.930 . S
C107 C105 1.371 . S
C107 C108 1.392 . S
C107 H123 0.931 . S
C108 C107 1.392 . S
C108 C109 1.331 . S
C108 H126 0.932 . S
C109 C108 1.331 . S
C109 C110 1.336 . S
C110 C106 1.394 . S
C110 C109 1.336 . S
C110 H125 0.929 . S
C111 C101 1.386 1_565 S
C111 C104 1.357 . S
C111 H124 0.928 . S
H112 C88 0.931 . S
H113 C90 0.930 1_455 S
H114 C92 0.929 . S
H115 C93 0.931 . S
H116 C95 0.930 . S
H117 C99 0.931 . S
H118 C97 0.931 . S
H119 C101 0.931 . S
H120 C102 0.929 1_545 S
H121 C103 0.930 . S
H122 C106 0.930 . S
H123 C107 0.931 . S
H124 C111 0.928 . S
H125 C110 0.929 . S
H126 C108 0.932 . S
C127 C128 1.386 . S
C127 C129 1.397 . S
C127 H151 0.931 . S
C128 C127 1.386 . S
C128 C132 1.397 . S
C129 C127 1.397 . S
C129 C130 1.384 . S
C129 H152 0.930 . S
C130 C129 1.384 . S
C130 C131 1.377 . S
C130 C133 1.481 . S
C131 C130 1.377 . S
C131 C132 1.389 . S
C131 H153 0.929 . S
C132 C128 1.397 . S
C132 C131 1.389 . S
C132 H154 0.931 . S
C133 C130 1.481 . S
C133 C134 1.387 . S
C133 C138 1.390 . S
C134 C133 1.387 . S
C134 C135 1.401 . S
C134 H155 0.930 . S
C135 C134 1.401 . S
C135 C136 1.376 . S
C135 C144 1.511 . S
C136 C135 1.376 . S
C136 C137 1.392 . S
C136 H157 0.931 . S
C137 C136 1.392 . S
C137 C138 1.361 . S
C137 C139 1.500 . S
C138 C133 1.390 . S
C138 C137 1.361 . S
C138 H156 0.931 . S
C139 C137 1.500 . S
C139 C140 1.371 . S
C139 C141 1.365 . S
C140 C139 1.371 . S
C140 C150 1.386 . S
C140 H158 0.931 . S
C141 C139 1.365 . S
C141 C142 1.409 . S
C141 H159 0.929 . S
C142 C141 1.409 . S
C142 C143 1.380 . S
C142 H160 0.930 . S
C143 C142 1.380 . S
C143 C150 1.357 . S
C144 C135 1.511 . S
C144 C145 1.341 . S
C144 C146 1.371 . S
C145 C144 1.341 . S
C145 C149 1.404 . S
C145 H161 0.930 . S
C146 C144 1.371 . S
C146 C147 1.392 1_556 S
C146 H162 0.931 . S
C147 C146 1.392 1_554 S
C147 C148 1.331 . S
C147 H165 0.932 . S
C148 C147 1.331 . S
C148 C149 1.330 1_554 S
C149 C145 1.404 . S
C149 C148 1.330 1_556 S
C149 H164 0.926 1_556 S
C150 C140 1.386 . S
C150 C143 1.357 . S
C150 H163 0.928 . S
H151 C127 0.931 . S
H152 C129 0.930 . S
H153 C131 0.929 . S
H154 C132 0.931 . S
H155 C134 0.930 . S
H156 C138 0.931 . S
H157 C136 0.931 . S
H158 C140 0.931 . S
H159 C141 0.929 . S
H160 C142 0.930 . S
H161 C145 0.930 . S
H162 C146 0.931 . S
H163 C150 0.928 . S
H164 C149 0.926 1_554 S
H165 C147 0.932 . S
C166 C167 1.386 . S
C166 C168 1.397 . S
C166 H190 0.931 . S
C167 C166 1.386 . S
C167 C171 1.397 . S
C168 C166 1.397 . S
C168 C169 1.384 . S
C168 H191 0.930 . S
C169 C168 1.384 . S
C169 C170 1.377 . S
C169 C172 1.481 . S
C170 C169 1.377 . S
C170 C171 1.389 . S
C170 H192 0.929 . S
C171 C167 1.397 . S
C171 C170 1.389 . S
C171 H193 0.931 . S
C172 C169 1.481 . S
C172 C173 1.387 . S
C172 C177 1.390 . S
C173 C172 1.387 . S
C173 C174 1.401 . S
C173 H194 0.930 . S
C174 C173 1.401 . S
C174 C175 1.376 . S
C174 C183 1.511 . S
C175 C174 1.376 . S
C175 C176 1.392 . S
C175 H196 0.931 . S
C176 C175 1.392 . S
C176 C177 1.361 . S
C176 C178 1.500 . S
C177 C172 1.390 . S
C177 C176 1.361 . S
C177 H195 0.931 . S
C178 C176 1.500 . S
C178 C179 1.371 . S
C178 C180 1.365 . S
C179 C178 1.371 . S
C179 C189 1.386 . S
C179 H197 0.931 . S
C180 C178 1.365 . S
C180 C181 1.409 1_565 S
C180 H198 0.929 . S
C181 C180 1.409 1_545 S
C181 C182 1.380 . S
C181 H199 0.930 . S
C182 C181 1.380 . S
C182 C189 1.357 1_545 S
C183 C174 1.511 . S
C183 C184 1.341 . S
C183 C185 1.371 . S
C184 C183 1.341 . S
C184 C188 1.394 . S
C184 H200 0.930 . S
C185 C183 1.371 . S
C185 C186 1.392 . S
C185 H201 0.931 . S
C186 C185 1.392 . S
C186 C187 1.331 . S
C186 H204 0.932 . S
C187 C186 1.331 . S
C187 C188 1.336 . S
C188 C184 1.394 . S
C188 C187 1.336 . S
C188 H203 0.929 . S
C189 C179 1.386 . S
C189 C182 1.357 1_565 S
C189 H202 0.928 . S
H190 C166 0.931 . S
H191 C168 0.930 . S
H192 C170 0.929 . S
H193 C171 0.931 . S
H194 C173 0.930 . S
H195 C177 0.931 . S
H196 C175 0.931 . S
H197 C179 0.931 . S
H198 C180 0.929 . S
H199 C181 0.930 . S
H200 C184 0.930 . S
H201 C185 0.931 . S
H202 C189 0.928 . S
H203 C188 0.929 . S
H204 C186 0.932 . S
C205 C206 1.386 . S
C205 C207 1.397 . S
C205 H229 0.931 . S
C206 C205 1.386 . S
C206 C210 1.397 . S
C207 C205 1.397 . S
C207 C208 1.384 . S
C207 H230 0.930 . S
C208 C207 1.384 . S
C208 C209 1.377 . S
C208 C211 1.481 . S
C209 C208 1.377 . S
C209 C210 1.389 . S
C209 H231 0.929 . S
C210 C206 1.397 . S
C210 C209 1.389 . S
C210 H232 0.931 . S
C211 C208 1.481 . S
C211 C212 1.387 . S
C211 C216 1.390 . S
C212 C211 1.387 . S
C212 C213 1.401 . S
C212 H233 0.930 . S
C213 C212 1.401 . S
C213 C214 1.376 . S
C213 C222 1.511 . S
C214 C213 1.376 . S
C214 C215 1.392 . S
C214 H235 0.931 . S
C215 C214 1.392 . S
C215 C216 1.361 . S
C215 C217 1.500 . S
C216 C211 1.390 . S
C216 C215 1.361 . S
C216 H234 0.931 . S
C217 C215 1.500 . S
C217 C218 1.371 . S
C217 C219 1.365 . S
C218 C217 1.371 . S
C218 C228 1.386 . S
C218 H236 0.931 . S
C219 C217 1.365 . S
C219 C220 1.409 . S
C219 H237 0.929 . S
C220 C219 1.409 . S
C220 C221 1.380 . S
C220 H238 0.930 . S
C221 C220 1.380 . S
C221 C228 1.357 . S
C222 C213 1.511 . S
C222 C223 1.341 . S
C222 C224 1.371 . S
C223 C222 1.341 . S
C223 C227 1.394 . S
C223 H239 0.930 . S
C224 C222 1.371 . S
C224 C225 1.392 . S
C224 H240 0.931 . S
C225 C224 1.392 . S
C225 C226 1.331 . S
C225 H243 0.932 . S
C226 C225 1.331 . S
C226 C227 1.336 . S
C227 C223 1.394 . S
C227 C226 1.336 . S
C227 H242 0.929 . S
C228 C218 1.386 . S
C228 C221 1.357 . S
C228 H241 0.928 . S
H229 C205 0.931 . S
H230 C207 0.930 . S
H231 C209 0.929 . S
H232 C210 0.931 . S
H233 C212 0.930 . S
H234 C216 0.931 . S
H235 C214 0.931 . S
H236 C218 0.931 . S
H237 C219 0.929 . S
H238 C220 0.930 . S
H239 C223 0.930 . S
H240 C224 0.931 . S
H241 C228 0.928 . S
H242 C227 0.929 . S
H243 C225 0.932 . S
C244 C245 1.386 . S
C244 C246 1.397 . S
C244 H268 0.931 . S
C245 C244 1.386 . S
C245 C249 1.397 . S
C246 C244 1.397 . S
C246 C247 1.384 . S
C246 H269 0.930 . S
C247 C246 1.384 . S
C247 C248 1.377 . S
C247 C250 1.481 . S
C248 C247 1.377 . S
C248 C249 1.389 . S
C248 H270 0.929 . S
C249 C245 1.397 . S
C249 C248 1.389 . S
C249 H271 0.931 . S
C250 C247 1.481 . S
C250 C251 1.387 . S
C250 C255 1.390 . S
C251 C250 1.387 . S
C251 C252 1.401 . S
C251 H272 0.930 . S
C252 C251 1.401 . S
C252 C253 1.376 . S
C252 C261 1.511 . S
C253 C252 1.376 . S
C253 C254 1.392 . S
C253 H274 0.931 . S
C254 C253 1.392 . S
C254 C255 1.361 . S
C254 C256 1.500 . S
C255 C250 1.390 . S
C255 C254 1.361 . S
C255 H273 0.931 . S
C256 C254 1.500 . S
C256 C257 1.371 . S
C256 C258 1.365 . S
C257 C256 1.371 . S
C257 C267 1.386 . S
C257 H275 0.931 . S
C258 C256 1.365 . S
C258 C259 1.409 . S
C258 H276 0.929 . S
C259 C258 1.409 . S
C259 C260 1.380 . S
C259 H277 0.930 . S
C260 C259 1.380 . S
C260 C267 1.357 . S
C261 C252 1.511 . S
C261 C262 1.341 . S
C261 C263 1.371 . S
C262 C261 1.341 . S
C262 C266 1.394 . S
C262 H278 0.930 . S
C263 C261 1.371 . S
C263 C264 1.392 . S
C263 H279 0.931 . S
C264 C263 1.392 . S
C264 C265 1.331 . S
C264 H282 0.932 . S
C265 C264 1.331 . S
C265 C266 1.336 . S
C266 C262 1.394 . S
C266 C265 1.336 . S
C266 H281 0.929 . S
C267 C257 1.386 . S
C267 C260 1.357 . S
C267 H280 0.928 . S
H268 C244 0.931 . S
H269 C246 0.930 . S
H270 C248 0.929 . S
H271 C249 0.931 . S
H272 C251 0.930 . S
H273 C255 0.931 . S
H274 C253 0.931 . S
H275 C257 0.931 . S
H276 C258 0.929 . S
H277 C259 0.930 . S
H278 C262 0.930 . S
H279 C263 0.931 . S
H280 C267 0.928 . S
H281 C266 0.929 . S
H282 C264 0.932 . S
C283 C284 1.386 . S
C283 C285 1.397 . S
C283 H307 0.931 . S
C284 C283 1.386 . S
C284 C288 1.397 1_556 S
C285 C283 1.397 . S
C285 C286 1.384 . S
C285 H308 0.930 . S
C286 C285 1.384 . S
C286 C287 1.377 1_556 S
C286 C289 1.481 . S
C287 C286 1.377 1_554 S
C287 C288 1.389 . S
C287 H309 0.929 . S
C288 C284 1.397 1_554 S
C288 C287 1.389 . S
C288 H310 0.931 . S
C289 C286 1.481 . S
C289 C290 1.387 . S
C289 C294 1.390 . S
C290 C289 1.387 . S
C290 C291 1.401 . S
C290 H311 0.930 . S
C291 C290 1.401 . S
C291 C292 1.376 . S
C291 C300 1.511 . S
C292 C291 1.376 . S
C292 C293 1.392 . S
C292 H313 0.931 . S
C293 C292 1.392 . S
C293 C294 1.361 . S
C293 C295 1.500 . S
C294 C289 1.390 . S
C294 C293 1.361 . S
C294 H312 0.931 . S
C295 C293 1.500 . S
C295 C296 1.371 . S
C295 C297 1.365 1_556 S
C296 C295 1.371 . S
C296 C306 1.386 . S
C296 H314 0.931 . S
C297 C295 1.365 1_554 S
C297 C298 1.409 . S
C297 H315 0.929 . S
C298 C297 1.409 . S
C298 C299 1.380 1_545 S
C298 H316 0.930 . S
C299 C298 1.380 1_565 S
C299 C306 1.357 1_564 S
C300 C291 1.511 . S
C300 C301 1.341 . S
C300 C302 1.371 . S
C301 C300 1.341 . S
C301 C305 1.394 . S
C301 H317 0.930 . S
C302 C300 1.371 . S
C302 C303 1.392 . S
C302 H318 0.931 . S
C303 C302 1.392 . S
C303 C304 1.331 . S
C303 H321 0.932 . S
C304 C303 1.331 . S
C304 C305 1.336 . S
C305 C301 1.394 . S
C305 C304 1.336 . S
C305 H320 0.929 . S
C306 C296 1.386 . S
C306 C299 1.357 1_546 S
C306 H319 0.928 1_545 S
H307 C283 0.931 . S
H308 C285 0.930 . S
H309 C287 0.929 . S
H310 C288 0.931 . S
H311 C290 0.930 . S
H312 C294 0.931 . S
H313 C292 0.931 . S
H314 C296 0.931 . S
H315 C297 0.929 . S
H316 C298 0.930 . S
H317 C301 0.930 . S
H318 C302 0.931 . S
H319 C306 0.928 1_565 S
H320 C305 0.929 . S
H321 C303 0.932 . S
C322 C323 1.386 . S
C322 C324 1.397 . S
C322 H346 0.931 . S
C323 C322 1.386 . S
C323 C327 1.397 . S
C324 C322 1.397 . S
C324 C325 1.384 . S
C324 H347 0.930 . S
C325 C324 1.384 . S
C325 C326 1.377 . S
C325 C328 1.481 . S
C326 C325 1.377 . S
C326 C327 1.389 . S
C326 H348 0.929 . S
C327 C323 1.397 . S
C327 C326 1.389 . S
C327 H349 0.931 . S
C328 C325 1.481 . S
C328 C329 1.387 . S
C328 C333 1.390 . S
C329 C328 1.387 . S
C329 C330 1.401 . S
C329 H350 0.930 . S
C330 C329 1.401 . S
C330 C331 1.376 . S
C330 C339 1.511 . S
C331 C330 1.376 . S
C331 C332 1.392 . S
C331 H352 0.931 . S
C332 C331 1.392 . S
C332 C333 1.361 . S
C332 C334 1.500 . S
C333 C328 1.390 . S
C333 C332 1.361 . S
C333 H351 0.931 . S
C334 C332 1.500 . S
C334 C335 1.371 . S
C334 C336 1.365 . S
C335 C334 1.371 . S
C335 C345 1.386 . S
C335 H353 0.931 . S
C336 C334 1.365 . S
C336 C337 1.409 . S
C336 H354 0.929 . S
C337 C336 1.409 . S
C337 C338 1.380 . S
C337 H355 0.930 . S
C338 C337 1.380 . S
C338 C345 1.357 . S
C339 C330 1.511 . S
C339 C340 1.341 . S
C339 C341 1.371 . S
C340 C339 1.341 . S
C340 C344 1.394 . S
C340 H356 0.930 . S
C341 C339 1.371 . S
C341 C342 1.392 . S
C341 H357 0.931 . S
C342 C341 1.392 . S
C342 C343 1.331 . S
C342 H360 0.932 . S
C343 C342 1.331 . S
C343 C344 1.336 . S
C344 C340 1.394 . S
C344 C343 1.336 . S
C344 H359 0.929 . S
C345 C335 1.386 . S
C345 C338 1.357 . S
C345 H358 0.928 . S
H346 C322 0.931 . S
H347 C324 0.930 . S
H348 C326 0.929 . S
H349 C327 0.931 . S
H350 C329 0.930 . S
H351 C333 0.931 . S
H352 C331 0.931 . S
H353 C335 0.931 . S
H354 C336 0.929 . S
H355 C337 0.930 . S
H356 C340 0.930 . S
H357 C341 0.931 . S
H358 C345 0.928 . S
H359 C344 0.929 . S
H360 C342 0.932 . S
C361 C362 1.386 . S
C361 C363 1.397 . S
C361 H385 0.931 . S
C362 C361 1.386 . S
C362 C366 1.397 . S
C363 C361 1.397 . S
C363 C364 1.384 . S
C363 H386 0.930 . S
C364 C363 1.384 . S
C364 C365 1.377 . S
C364 C367 1.481 1_455 S
C365 C364 1.377 . S
C365 C366 1.389 . S
C365 H387 0.929 1_455 S
C366 C362 1.397 . S
C366 C365 1.389 . S
C366 H388 0.931 . S
C367 C364 1.481 1_655 S
C367 C368 1.387 . S
C367 C372 1.390 . S
C368 C367 1.387 . S
C368 C369 1.401 . S
C368 H389 0.930 . S
C369 C368 1.401 . S
C369 C370 1.376 . S
C369 C378 1.511 . S
C370 C369 1.376 . S
C370 C371 1.392 . S
C370 H391 0.931 . S
C371 C370 1.392 . S
C371 C372 1.361 . S
C371 C373 1.500 . S
C372 C367 1.390 . S
C372 C371 1.361 . S
C372 H390 0.931 . S
C373 C371 1.500 . S
C373 C374 1.371 . S
C373 C375 1.365 . S
C374 C373 1.371 . S
C374 C384 1.386 1_565 S
C374 H392 0.931 . S
C375 C373 1.365 . S
C375 C376 1.409 1_565 S
C375 H393 0.929 . S
C376 C375 1.409 1_545 S
C376 C377 1.380 . S
C376 H394 0.930 . S
C377 C376 1.380 . S
C377 C384 1.357 . S
C378 C369 1.511 . S
C378 C379 1.341 . S
C378 C380 1.371 . S
C379 C378 1.341 . S
C379 C383 1.394 . S
C379 H395 0.930 . S
C380 C378 1.371 . S
C380 C381 1.392 . S
C380 H396 0.931 . S
C381 C380 1.392 . S
C381 C382 1.331 . S
C381 H399 0.932 . S
C382 C381 1.331 . S
C382 C383 1.336 . S
C383 C379 1.394 . S
C383 C382 1.336 . S
C383 H398 0.929 . S
C384 C374 1.386 1_545 S
C384 C377 1.357 . S
C384 H397 0.928 . S
H385 C361 0.931 . S
H386 C363 0.930 . S
H387 C365 0.929 1_655 S
H388 C366 0.931 . S
H389 C368 0.930 . S
H390 C372 0.931 . S
H391 C370 0.931 . S
H392 C374 0.931 . S
H393 C375 0.929 . S
H394 C376 0.930 . S
H395 C379 0.930 . S
H396 C380 0.931 . S
H397 C384 0.928 . S
H398 C383 0.929 . S
H399 C381 0.932 . S
C7 C104 2.485 . S
C37 C143 2.707 . S
C54 C182 2.866 . S
C206 C87 2.054 . S
C245 C30 2.376 . S
C51 C284 2.142 1_655 S
C84 C338 2.971 . S
C10 C362 2.601 . S
C59 C377 2.450 . S
C260 C74 2.629 . S
C299 C18 2.968 . S
C32 C323 2.143 . S
C128 C73 2.471 . S
C15 C167 2.148 1_455 S
C221 C43 2.997 . S
C89 C62 2.614 . S
C343 C21 2.729 . S
C382 C29 1.879 . S
C52 C265 1.909 . S
C304 C81 2.608 . S
C187 C40 2.606 . S
C65 C226 2.563 . S
C109 C76 1.852 . S
C148 C8 1.901 . S
