# Generated by pormake.
# Topology nom, (4,4)-cn, num edge types: 1
# Building blocks:
#     Node 0, Type 0, BuildingBlock: MIFKUJ_clean_linker_1, # of connection points: 4
#     Node 1, Type 0, BuildingBlock: MIFKUJ_clean_linker_1, # of connection points: 4
#     Node 2, Type 0, BuildingBlock: MIFKUJ_clean_linker_1, # of connection points: 4
#     Node 3, Type 0, BuildingBlock: MIFKUJ_clean_linker_1, # of connection points: 4
#     Node 4, Type 0, BuildingBlock: MIFKUJ_clean_linker_1, # of connection points: 4
#     Node 5, Type 0, BuildingBlock: MIFKUJ_clean_linker_1, # of connection points: 4
#     Node 6, Type 1, BuildingBlock: NAHDIM_clean_sbu_0, # of connection points: 4
#     Node 7, Type 1, BuildingBlock: NAHDIM_clean_sbu_0, # of connection points: 4
#     Node 8, Type 1, BuildingBlock: NAHDIM_clean_sbu_0, # of connection points: 4
#     Node 9, Type 1, BuildingBlock: NAHDIM_clean_sbu_0, # of connection points: 4
#     Node 10, Type 1, BuildingBlock: NAHDIM_clean_sbu_0, # of connection points: 4
#     Node 11, Type 1, BuildingBlock: NAHDIM_clean_sbu_0, # of connection points: 4
#     Edge 12, Type (0, 1), BuildingBlock: TEMPAE_clean_linker_10, # of connection points: 2
#     Edge 13, Type (0, 1), BuildingBlock: TEMPAE_clean_linker_10, # of connection points: 2
#     Edge 14, Type (0, 1), BuildingBlock: TEMPAE_clean_linker_10, # of connection points: 2
#     Edge 15, Type (0, 1), BuildingBlock: TEMPAE_clean_linker_10, # of connection points: 2
#     Edge 16, Type (0, 1), BuildingBlock: TEMPAE_clean_linker_10, # of connection points: 2
#     Edge 17, Type (0, 1), BuildingBlock: TEMPAE_clean_linker_10, # of connection points: 2
#     Edge 18, Type (0, 1), BuildingBlock: TEMPAE_clean_linker_10, # of connection points: 2
#     Edge 19, Type (0, 1), BuildingBlock: TEMPAE_clean_linker_10, # of connection points: 2
#     Edge 20, Type (0, 1), BuildingBlock: TEMPAE_clean_linker_10, # of connection points: 2
#     Edge 21, Type (0, 1), BuildingBlock: TEMPAE_clean_linker_10, # of connection points: 2
#     Edge 22, Type (0, 1), BuildingBlock: TEMPAE_clean_linker_10, # of connection points: 2
#     Edge 23, Type (0, 1), BuildingBlock: TEMPAE_clean_linker_10, # of connection points: 2
#     Edge 24, Type (0, 1), BuildingBlock: TEMPAE_clean_linker_10, # of connection points: 2
#     Edge 25, Type (0, 1), BuildingBlock: TEMPAE_clean_linker_10, # of connection points: 2
#     Edge 26, Type (0, 1), BuildingBlock: TEMPAE_clean_linker_10, # of connection points: 2
#     Edge 27, Type (0, 1), BuildingBlock: TEMPAE_clean_linker_10, # of connection points: 2
#     Edge 28, Type (0, 1), BuildingBlock: TEMPAE_clean_linker_10, # of connection points: 2
#     Edge 29, Type (0, 1), BuildingBlock: TEMPAE_clean_linker_10, # of connection points: 2
#     Edge 30, Type (0, 1), BuildingBlock: TEMPAE_clean_linker_10, # of connection points: 2
#     Edge 31, Type (0, 1), BuildingBlock: TEMPAE_clean_linker_10, # of connection points: 2
#     Edge 32, Type (0, 1), BuildingBlock: TEMPAE_clean_linker_10, # of connection points: 2
#     Edge 33, Type (0, 1), BuildingBlock: TEMPAE_clean_linker_10, # of connection points: 2
#     Edge 34, Type (0, 1), BuildingBlock: TEMPAE_clean_linker_10, # of connection points: 2
#     Edge 35, Type (0, 1), BuildingBlock: TEMPAE_clean_linker_10, # of connection points: 2
# Relax obj value: 0.020
# Max RMSD: 0.118
# Mean RMSD: 0.104
data_MOF--net-nom--node1-NAHDIM_clean_sbu_0--node2-MIFKUJ_clean_linker_1--edge1-TEMPAE_clean_linker_10
_symmetry_space_group_name_H-M    P1
_symmetry_Int_Tables_number       1
_symmetry_cell_setting            triclinic
loop_
_symmetry_equiv_pos_as_xyz
'x, y, z'
_cell_length_a     53.194874
_cell_length_b     54.787965
_cell_length_c     57.034672
_cell_angle_alpha  89.957593
_cell_angle_beta   90.649481
_cell_angle_gamma 120.99775
loop_
_atom_site_label
_atom_site_type_symbol
_atom_site_fract_x
_atom_site_fract_y
_atom_site_fract_z
_atom_type_partial_charge
H0 H 0.97227 0.4588 0.27223 0.0
H1 H 0.93933 0.44051 0.23818 0.0
H2 H 0.90513 0.49459 0.25572 0.0
H3 H 0.93903 0.51362 0.28929 0.0
H4 H 0.01591 0.51527 0.28075 0.0
H5 H 0.92125 0.44435 0.31826 0.0
H6 H 0.86999 0.42846 0.32682 0.0
H7 H 0.89748 0.51105 0.35689 0.0
H8 H 0.94841 0.52651 0.34864 0.0
H9 H 0.02643 0.55346 0.37819 0.0
H10 H 0.06044 0.56639 0.41141 0.0
H11 H 0.095 0.51745 0.3812 0.0
H12 H 0.06144 0.50523 0.34777 0.0
H13 H 0.98319 0.50489 0.36314 0.0
H14 H 0.06664 0.57818 0.33273 0.0
H15 H 0.11627 0.61175 0.32007 0.0
H16 H 0.11214 0.54834 0.27253 0.0
H17 H 0.06283 0.51416 0.28627 0.0
C18 C 0.95787 0.48732 0.28342 0.0
C19 C 0.95764 0.46668 0.26874 0.0
C20 C 0.93863 0.45608 0.2494 0.0
C21 C 0.91948 0.46597 0.24431 0.0
C22 C 0.91976 0.48669 0.25907 0.0
C23 C 0.9389 0.49737 0.27839 0.0
C24 C 0.97876 0.49879 0.30349 0.0
C25 C 0.00883 0.51243 0.29883 0.0
C26 C 0.96952 0.4972 0.32688 0.0
C27 C 0.93856 0.48662 0.33276 0.0
C28 C 0.91614 0.45893 0.32675 0.0
C29 C 0.8869 0.44996 0.33156 0.0
C30 C 0.87967 0.46851 0.34253 0.0
C31 C 0.90231 0.49608 0.34877 0.0
C32 C 0.93143 0.50498 0.34401 0.0
C33 C 0.04146 0.52847 0.36047 0.0
C34 C 0.04135 0.54554 0.37874 0.0
C35 C 0.06073 0.5528 0.39777 0.0
C36 C 0.08041 0.54287 0.39904 0.0
C37 C 0.08048 0.52582 0.38064 0.0
C38 C 0.06123 0.51874 0.36154 0.0
C39 C 0.02046 0.52016 0.3405 0.0
C40 C 0.99043 0.50727 0.34513 0.0
C41 C 0.02986 0.52417 0.31697 0.0
C42 C 0.06106 0.54344 0.31071 0.0
C43 C 0.07665 0.57116 0.32007 0.0
C44 C 0.1049 0.59054 0.3125 0.0
C45 C 0.11806 0.58284 0.29509 0.0
C46 C 0.10272 0.55488 0.2861 0.0
C47 C 0.07447 0.53537 0.29383 0.0
H48 H 0.44206 0.96027 0.51817 0.0
H49 H 0.40997 0.91002 0.52747 0.0
H50 H 0.47419 0.89192 0.50024 0.0
H51 H 0.50665 0.94262 0.49139 0.0
H52 H 0.49681 -0.00165 0.5341 0.0
H53 H 0.44987 0.95428 0.45965 0.0
H54 H 0.43753 0.92188 0.4263 0.0
H55 H 0.52971 0.96006 0.41127 0.0
H56 H 0.54192 0.99173 0.44516 0.0
H57 H 0.57546 0.08097 0.46467 0.0
H58 H 0.59141 0.12957 0.45219 0.0
H59 H 0.51421 0.12244 0.48343 0.0
H60 H 0.49896 0.07439 0.4963 0.0
H61 H 0.52534 0.03171 0.45249 0.0
H62 H 0.57198 0.0809 0.52259 0.0
H63 H 0.58539 0.11305 0.55624 0.0
H64 H 0.49581 0.06551 0.57997 0.0
H65 H 0.48229 0.0342 0.54582 0.0
C66 C 0.47664 0.95512 0.50398 0.0
C67 C 0.44932 0.94552 0.51433 0.0
C68 C 0.43091 0.91678 0.51944 0.0
C69 C 0.4395 0.89705 0.51441 0.0
C70 C 0.46709 0.90672 0.50439 0.0
C71 C 0.48554 0.93557 0.4992 0.0
C72 C 0.49536 0.98565 0.49819 0.0
C73 C 0.50295 0.0057 0.51625 0.0
C74 C 0.50447 0.99515 0.47505 0.0
C75 C 0.49684 0.97514 0.45507 0.0
C76 C 0.46743 0.95539 0.44936 0.0
C77 C 0.4604 0.93709 0.43015 0.0
C78 C 0.48265 0.93839 0.41612 0.0
C79 C 0.51208 0.95824 0.4219 0.0
C80 C 0.51909 0.97649 0.44115 0.0
C81 C 0.53625 0.07426 0.48165 0.0
C82 C 0.56217 0.09005 0.46896 0.0
C83 C 0.57112 0.11772 0.46172 0.0
C84 C 0.55409 0.12992 0.46682 0.0
C85 C 0.52816 0.11396 0.47959 0.0
C86 C 0.51936 0.08645 0.48693 0.0
C87 C 0.52564 0.0444 0.48829 0.0
C88 C 0.5197 0.02447 0.47043 0.0
C89 C 0.51812 0.03499 0.51165 0.0
C90 C 0.52608 0.0552 0.53158 0.0
C91 C 0.55512 0.07769 0.53483 0.0
C92 C 0.56284 0.09586 0.55422 0.0
C93 C 0.54169 0.09181 0.57082 0.0
C94 C 0.51256 0.06946 0.56737 0.0
C95 C 0.50485 0.05136 0.54796 0.0
H96 H 0.54111 0.57188 0.69119 0.0
H97 H 0.52844 0.59185 0.72409 0.0
H98 H 0.43649 0.53783 0.70639 0.0
H99 H 0.44936 0.51724 0.6739 0.0
H100 H 0.52321 0.51412 0.68452 0.0
H101 H 0.50326 0.58462 0.64516 0.0
H102 H 0.46848 0.59961 0.63427 0.0
H103 H 0.41246 0.51799 0.60077 0.0
H104 H 0.44649 0.50285 0.61245 0.0
H105 H 0.49292 0.47588 0.58679 0.0
H106 H 0.51196 0.46145 0.55427 0.0
H107 H 0.59816 0.5054 0.58666 0.0
H108 H 0.5789 0.51958 0.6193 0.0
H109 H 0.50309 0.52412 0.60109 0.0
H110 H 0.50604 0.44998 0.63329 0.0
H111 H 0.51933 0.41587 0.64637 0.0
H112 H 0.58195 0.47804 0.69559 0.0
H113 H 0.56991 0.51292 0.68119 0.0
C114 C 0.49621 0.54331 0.67998 0.0
C115 C 0.51822 0.56438 0.69439 0.0
C116 C 0.51096 0.57593 0.71307 0.0
C117 C 0.48146 0.56656 0.71778 0.0
C118 C 0.4594 0.54537 0.70331 0.0
C119 C 0.46671 0.53376 0.68463 0.0
C120 C 0.50447 0.53096 0.66058 0.0
C121 C 0.51944 0.51679 0.66622 0.0
C122 C 0.4972 0.53231 0.63688 0.0
C123 C 0.4773 0.54252 0.62983 0.0
C124 C 0.48337 0.56995 0.63562 0.0
C125 C 0.46361 0.57855 0.62922 0.0
C126 C 0.43759 0.55988 0.61681 0.0
C127 C 0.43198 0.53267 0.6107 0.0
C128 C 0.45158 0.5241 0.61716 0.0
C129 C 0.53446 0.49878 0.60551 0.0
C130 C 0.51594 0.48247 0.58687 0.0
C131 C 0.52687 0.4743 0.56826 0.0
C132 C 0.55661 0.48241 0.56782 0.0
C133 C 0.57508 0.49855 0.58661 0.0
C134 C 0.56411 0.50669 0.60525 0.0
C135 C 0.52301 0.50824 0.62491 0.0
C136 C 0.50745 0.5218 0.61933 0.0
C137 C 0.5276 0.50425 0.64875 0.0
C138 C 0.53733 0.48428 0.65592 0.0
C139 C 0.52323 0.45663 0.64643 0.0
C140 C 0.53046 0.43689 0.65428 0.0
C141 C 0.5515 0.44406 0.67223 0.0
C142 C 0.56585 0.47186 0.68159 0.0
C143 C 0.55884 0.49178 0.67349 0.0
H144 H 0.02898 0.54378 0.7729 0.0
H145 H 0.06612 0.56663 0.74261 0.0
H146 H 0.10379 0.51626 0.76346 0.0
H147 H 0.06605 0.49295 0.79334 0.0
H148 H 0.98696 0.48546 0.77908 0.0
H149 H 0.07653 0.56033 0.81993 0.0
H150 H 0.12775 0.58088 0.83237 0.0
H151 H 0.10473 0.50284 0.86858 0.0
H152 H 0.05413 0.48202 0.85507 0.0
H153 H 0.9741 0.44625 0.87599 0.0
H154 H 0.93782 0.42961 0.90715 0.0
H155 H 0.89749 0.4723 0.87418 0.0
H156 H 0.93374 0.48876 0.84302 0.0
H157 H 0.01469 0.49699 0.86347 0.0
H158 H 0.93717 0.41949 0.82612 0.0
H159 H 0.88648 0.38607 0.81441 0.0
H160 H 0.88554 0.45181 0.77316 0.0
H161 H 0.9366 0.48527 0.7849 0.0
C162 C 0.04495 0.51689 0.78547 0.0
C163 C 0.04515 0.53757 0.77083 0.0
C164 C 0.06653 0.55078 0.75369 0.0
C165 C 0.08801 0.5434 0.75077 0.0
C166 C 0.08743 0.52228 0.7652 0.0
C167 C 0.06603 0.50909 0.78237 0.0
C168 C 0.02277 0.50385 0.80411 0.0
C169 C 0.993 0.48835 0.79755 0.0
C170 C 0.0307 0.50606 0.82814 0.0
C171 C 0.0616 0.51949 0.83628 0.0
C172 C 0.08263 0.5476 0.83035 0.0
C173 C 0.11182 0.55941 0.8377 0.0
C174 C 0.12037 0.54342 0.85135 0.0
C175 C 0.09904 0.51555 0.8577 0.0
C176 C 0.07002 0.50371 0.85019 0.0
C177 C 0.95654 0.46862 0.85712 0.0
C178 C 0.95746 0.45205 0.8755 0.0
C179 C 0.93677 0.44262 0.89332 0.0
C180 C 0.91483 0.4497 0.89314 0.0
C181 C 0.91388 0.46619 0.87464 0.0
C182 C 0.93459 0.47562 0.85684 0.0
C183 C 0.97892 0.47921 0.83849 0.0
C184 C 0.00863 0.49425 0.84501 0.0
C185 C 0.97106 0.47511 0.81443 0.0
C186 C 0.94049 0.45498 0.80667 0.0
C187 C 0.926 0.42678 0.81467 0.0
C188 C 0.89702 0.40771 0.808 0.0
C189 C 0.88193 0.41638 0.79304 0.0
C190 C 0.89667 0.44448 0.78459 0.0
C191 C 0.92577 0.46362 0.79132 0.0
H192 H 0.55031 0.05679 0.03284 0.0
H193 H 0.5825 0.10571 0.04629 0.0
H194 H 0.53195 0.13237 0.0057 0.0
H195 H 0.49865 0.0829 0.99302 0.0
H196 H 0.49536 0.02026 0.03865 0.0
H197 H 0.55506 0.06918 0.96937 0.0
H198 H 0.57221 0.10624 0.93938 0.0
H199 H 0.48259 0.07375 0.91683 0.0
H200 H 0.46559 0.03716 0.94716 0.0
H201 H 0.43199 0.94555 0.95707 0.0
H202 H 0.41993 0.89886 0.94184 0.0
H203 H 0.48416 0.89923 0.98918 0.0
H204 H 0.49702 0.94614 0.0034 0.0
H205 H 0.48111 0.99452 0.95421 0.0
H206 H 0.42191 0.94136 0.01946 0.0
H207 H 0.40301 0.90807 0.05229 0.0
H208 H 0.49037 0.94827 0.08251 0.0
H209 H 0.50882 0.98187 0.05008 0.0
C210 C 0.52219 0.06614 0.01171 0.0
C211 C 0.54578 0.07301 0.02707 0.0
C212 C 0.56419 0.10093 0.03474 0.0
C213 C 0.55961 0.12263 0.02697 0.0
C214 C 0.53592 0.11589 0.01177 0.0
C215 C 0.51705 0.08774 0.00445 0.0
C216 C 0.50355 0.0363 0.00338 0.0
C217 C 0.49236 0.01462 0.02017 0.0
C218 C 0.49834 0.0289 0.9793 0.0
C219 C 0.50904 0.05065 0.96062 0.0
C220 C 0.53915 0.07012 0.95798 0.0
C221 C 0.5489 0.09115 0.94077 0.0
C222 C 0.52872 0.093 0.92583 0.0
C223 C 0.49862 0.07314 0.9283 0.0
C224 C 0.4889 0.0521 0.94547 0.0
C225 C 0.46508 0.94919 0.98164 0.0
C226 C 0.44334 0.93546 0.9642 0.0
C227 C 0.43638 0.90874 0.9556 0.0
C228 C 0.4512 0.8954 0.96422 0.0
C229 C 0.47264 0.90908 0.98191 0.0
C230 C 0.47966 0.93574 0.99037 0.0
C231 C 0.47444 0.97848 0.98956 0.0
C232 C 0.48366 6e-05 0.9727 0.0
C233 C 0.47785 0.98586 0.01362 0.0
C234 C 0.46673 0.96417 0.03241 0.0
C235 C 0.43698 0.94279 0.03309 0.0
C236 C 0.42624 0.92374 0.05184 0.0
C237 C 0.44512 0.92567 0.07019 0.0
C238 C 0.47508 0.94659 0.06899 0.0
C239 C 0.48572 0.96572 0.05039 0.0
H240 H 0.46571 0.45398 0.19416 0.0
H241 H 0.48063 0.43277 0.22501 0.0
H242 H 0.57139 0.4885 0.20636 0.0
H243 H 0.55637 0.51036 0.17629 0.0
H244 H 0.48054 0.51069 0.18751 0.0
H245 H 0.49712 0.4407 0.14582 0.0
H246 H 0.52999 0.42306 0.13673 0.0
H247 H 0.5932 0.50559 0.10917 0.0
H248 H 0.56062 0.52319 0.11866 0.0
H249 H 0.51679 0.55672 0.09355 0.0
H250 H 0.50007 0.5726 0.06 0.0
H251 H 0.41127 0.52488 0.08543 0.0
H252 H 0.42822 0.50931 0.1191 0.0
H253 H 0.50421 0.50571 0.1044 0.0
H254 H 0.50186 0.57878 0.14344 0.0
H255 H 0.48575 0.61052 0.15731 0.0
H256 H 0.4121 0.5396 0.19137 0.0
H257 H 0.42891 0.50802 0.17783 0.0
C258 C 0.50989 0.48347 0.18275 0.0
C259 C 0.48882 0.46174 0.19688 0.0
C260 C 0.49737 0.44946 0.21433 0.0
C261 C 0.52719 0.45878 0.21804 0.0
C262 C 0.54827 0.48096 0.20412 0.0
C263 C 0.5397 0.49331 0.18676 0.0
C264 C 0.50059 0.49553 0.16359 0.0
C265 C 0.48513 0.50908 0.16927 0.0
C266 C 0.50814 0.49498 0.13998 0.0
C267 C 0.5266 0.48328 0.13307 0.0
C268 C 0.51802 0.4549 0.13775 0.0
C269 C 0.53671 0.44484 0.13245 0.0
C270 C 0.5642 0.46306 0.12241 0.0
C271 C 0.57232 0.49123 0.1172 0.0
C272 C 0.55364 0.50121 0.12242 0.0
C273 C 0.47378 0.53185 0.10886 0.0
C274 C 0.49375 0.54979 0.09196 0.0
C275 C 0.48413 0.55875 0.07274 0.0
C276 C 0.45429 0.54981 0.06994 0.0
C277 C 0.43443 0.53238 0.08719 0.0
C278 C 0.44409 0.52346 0.10645 0.0
C279 C 0.48367 0.52051 0.1282 0.0
C280 C 0.49913 0.50698 0.12257 0.0
C281 C 0.47748 0.52242 0.15195 0.0
C282 C 0.46637 0.54099 0.15938 0.0
C283 C 0.48204 0.57 0.15366 0.0
C284 C 0.47276 0.58812 0.16158 0.0
C285 C 0.44756 0.57761 0.17539 0.0
C286 C 0.4318 0.54846 0.18101 0.0
C287 C 0.44124 0.53034 0.17318 0.0
C288 C 0.61135 0.32732 0.4132 0.0
O289 O 0.63555 0.34907 0.42185 0.0
O290 O 0.65436 0.39067 0.38606 0.0
Zn291 Zn 0.61149 0.37359 0.39291 0.0
O292 O 0.60546 0.39064 0.42197 0.0
C293 C 0.59614 0.37703 0.34454 0.0
O294 O 0.61467 0.36862 0.33998 0.0
O295 O 0.59551 0.33208 0.3993 0.0
C296 C 0.62188 0.41629 0.42871 0.0
O297 O 0.64495 0.43359 0.41631 0.0
C298 C 0.67048 0.41289 0.37419 0.0
O299 O 0.65943 0.42772 0.36568 0.0
O300 O 0.59091 0.37975 0.36576 0.0
C301 C 0.29776 0.69074 0.55161 0.0
O302 O 0.29394 0.67077 0.53674 0.0
O303 O 0.28108 0.62478 0.58138 0.0
Zn304 Zn 0.25585 0.64147 0.57463 0.0
O305 O 0.23156 0.62574 0.54518 0.0
C306 C 0.23749 0.63277 0.62264 0.0
O307 O 0.26489 0.63994 0.62633 0.0
O308 O 0.28291 0.68355 0.57032 0.0
C309 C 0.21515 0.59941 0.54049 0.0
O310 O 0.21404 0.5805 0.55529 0.0
C311 C 0.29063 0.61444 0.56643 0.0
O312 O 0.28286 0.61284 0.54429 0.0
O313 O 0.22882 0.63287 0.6018 0.0
C314 C 0.59753 0.29452 0.7222 0.0
O315 O 0.61216 0.28839 0.70729 0.0
O316 O 0.6511 0.28341 0.75494 0.0
Zn317 Zn 0.60807 0.25755 0.7488 0.0
O318 O 0.60186 0.23357 0.72002 0.0
C319 C 0.59939 0.24004 0.79751 0.0
O320 O 0.62181 0.26591 0.80109 0.0
O321 O 0.59186 0.28295 0.7423 0.0
C322 C 0.58868 0.20655 0.72033 0.0
O323 O 0.57893 0.19318 0.74031 0.0
C324 C 0.66987 0.27586 0.75282 0.0
O325 O 0.66108 0.2496 0.74639 0.0
O326 O 0.58932 0.23231 0.77679 0.0
C327 C 0.40701 0.69988 0.91701 0.0
O328 O 0.39734 0.68058 0.93358 0.0
O329 O 0.35089 0.63173 0.88433 0.0
Zn330 Zn 0.39423 0.65113 0.89033 0.0
O331 O 0.40347 0.63508 0.91873 0.0
C332 C 0.43184 0.63901 0.86213 0.0
O333 O 0.44255 0.63742 0.88256 0.0
O334 O 0.40865 0.69257 0.89619 0.0
C335 C 0.39008 0.60888 0.92412 0.0
O336 O 0.36876 0.59026 0.91043 0.0
C337 C 0.3317 0.62407 0.90016 0.0
O338 O 0.3399 0.62779 0.92232 0.0
O339 O 0.41207 0.64547 0.86141 0.0
C340 C 0.70477 0.39573 0.09076 0.0
O341 O 0.70575 0.37739 0.10504 0.0
O342 O 0.71303 0.34228 0.06526 0.0
Zn343 Zn 0.74325 0.38384 0.06818 0.0
O344 O 0.76839 0.39162 0.09709 0.0
C345 C 0.77265 0.38107 0.02707 0.0
O346 O 0.76105 0.35454 0.03383 0.0
O347 O 0.72043 0.40323 0.07249 0.0
C348 C 0.79514 0.39855 0.09675 0.0
O349 O 0.80745 0.39996 0.07656 0.0
C350 C 0.71644 0.32189 0.07143 0.0
O351 O 0.74173 0.32738 0.08033 0.0
O352 O 0.76792 0.39788 0.039 0.0
C353 C 0.38325 0.7126 0.22771 0.0
O354 O 0.35855 0.70864 0.21885 0.0
O355 O 0.34074 0.73738 0.25334 0.0
Zn356 Zn 0.38381 0.76097 0.24606 0.0
O357 O 0.39121 0.78449 0.21701 0.0
C358 C 0.42478 0.81193 0.27277 0.0
O359 O 0.43533 0.8227 0.2521 0.0
O360 O 0.39891 0.73437 0.24056 0.0
C361 C 0.37997 0.79969 0.21296 0.0
O362 O 0.36204 0.80027 0.2283 0.0
C363 C 0.31962 0.72882 0.2387 0.0
O364 O 0.32518 0.73614 0.21658 0.0
O365 O 0.40376 0.78627 0.27412 0.0
C366 C 0.15399 0.63229 0.28175 0.0
C367 C 0.14723 0.60429 0.28584 0.0
C368 C 0.18156 0.65302 0.27345 0.0
C369 C 0.20282 0.64552 0.26891 0.0
C370 C 0.19601 0.61719 0.27257 0.0
C371 C 0.1683 0.59692 0.28107 0.0
C372 C 0.18806 0.68303 0.26981 0.0
C373 C 0.21813 0.60841 0.26782 0.0
C374 C 0.26682 0.69347 0.22976 0.0
C375 C 0.28934 0.70862 0.24632 0.0
C376 C 0.23848 0.67286 0.23685 0.0
C377 C 0.23252 0.66755 0.26105 0.0
C378 C 0.255 0.68321 0.27784 0.0
C379 C 0.28316 0.70348 0.27027 0.0
C380 C 0.21505 0.65643 0.21846 0.0
C381 C 0.24937 0.67836 0.30381 0.0
H382 H 0.13762 0.63801 0.28492 0.0
H383 H 0.16333 0.5754 0.28437 0.0
H384 H 0.20681 0.698 0.28117 0.0
H385 H 0.19451 0.68957 0.25139 0.0
H386 H 0.16896 0.68527 0.27384 0.0
H387 H 0.20897 0.58528 0.2706 0.0
H388 H 0.22589 0.61365 0.24951 0.0
H389 H 0.23755 0.62046 0.27952 0.0
H390 H 0.27147 0.69724 0.21123 0.0
H391 H 0.30041 0.7152 0.28318 0.0
H392 H 0.19599 0.65907 0.22132 0.0
H393 H 0.20706 0.63338 0.21994 0.0
H394 H 0.22313 0.66341 0.20038 0.0
H395 H 0.23127 0.68173 0.30879 0.0
H396 H 0.26907 0.69278 0.3146 0.0
H397 H 0.24239 0.65603 0.30816 0.0
C398 C 0.55912 0.17759 0.47283 0.0
C399 C 0.56289 0.15894 0.45848 0.0
C400 C 0.56646 0.2047 0.46496 0.0
C401 C 0.57822 0.21355 0.4423 0.0
C402 C 0.58232 0.19498 0.42777 0.0
C403 C 0.57447 0.16784 0.436 0.0
C404 C 0.56173 0.22391 0.48094 0.0
C405 C 0.59503 0.20381 0.40357 0.0
C406 C 0.5748 0.27492 0.41465 0.0
C407 C 0.6029 0.298 0.41988 0.0
C408 C 0.56647 0.24722 0.42171 0.0
C409 C 0.58686 0.24254 0.43405 0.0
C410 C 0.61541 0.26567 0.43898 0.0
C411 C 0.62303 0.29313 0.43194 0.0
C412 C 0.53574 0.22305 0.41633 0.0
C413 C 0.63785 0.26147 0.45188 0.0
H414 H 0.55062 0.17107 0.49036 0.0
H415 H 0.57703 0.15343 0.42465 0.0
H416 H 0.583 0.24359 0.48486 0.0
H417 H 0.54743 0.23043 0.47211 0.0
H418 H 0.55152 0.21347 0.49777 0.0
H419 H 0.59696 0.1869 0.39451 0.0
H420 H 0.58106 0.20905 0.39267 0.0
H421 H 0.61711 0.2233 0.40474 0.0
H422 H 0.55913 0.27856 0.40538 0.0
H423 H 0.64486 0.31083 0.43591 0.0
H424 H 0.52424 0.21324 0.43291 0.0
H425 H 0.53651 0.20623 0.40612 0.0
H426 H 0.52269 0.23017 0.40625 0.0
H427 H 0.62985 0.25298 0.46966 0.0
H428 H 0.6594 0.28157 0.45368 0.0
H429 H 0.64109 0.24558 0.44251 0.0
C430 C 0.42572 0.59567 0.6012 0.0
C431 C 0.41618 0.56847 0.61018 0.0
C432 C 0.4055 0.6035 0.59405 0.0
C433 C 0.37507 0.58361 0.59587 0.0
C434 C 0.36532 0.55624 0.60514 0.0
C435 C 0.38598 0.54905 0.61227 0.0
C436 C 0.41668 0.63294 0.58435 0.0
C437 C 0.33305 0.53449 0.60744 0.0
C438 C 0.32231 0.61068 0.59717 0.0
C439 C 0.31172 0.6059 0.57395 0.0
C440 C 0.34305 0.60368 0.60449 0.0
C441 C 0.35335 0.59143 0.58824 0.0
C442 C 0.34263 0.58633 0.56483 0.0
C443 C 0.32198 0.5937 0.55794 0.0
C444 C 0.35404 0.6095 0.62959 0.0
C445 C 0.35299 0.57309 0.54708 0.0
H446 H 0.44899 0.61066 0.59932 0.0
H447 H 0.37847 0.52817 0.61957 0.0
H448 H 0.40856 0.63138 0.56609 0.0
H449 H 0.40815 0.64413 0.59481 0.0
H450 H 0.44102 0.64604 0.58443 0.0
H451 H 0.32911 0.51407 0.61485 0.0
H452 H 0.32255 0.54295 0.61891 0.0
H453 H 0.32205 0.53015 0.59001 0.0
H454 H 0.31458 0.62018 0.60967 0.0
H455 H 0.31391 0.58992 0.53998 0.0
H456 H 0.3782 0.62397 0.63004 0.0
H457 H 0.34917 0.58938 0.63818 0.0
H458 H 0.34395 0.61933 0.63999 0.0
H459 H 0.37712 0.58649 0.54517 0.0
H460 H 0.3425 0.57051 0.52958 0.0
H461 H 0.34808 0.55188 0.55325 0.0
C462 C 0.83108 0.37828 0.80357 0.0
C463 C 0.85085 0.39609 0.78652 0.0
C464 C 0.80176 0.35856 0.79772 0.0
C465 C 0.79194 0.35667 0.77426 0.0
C466 C 0.81171 0.37468 0.75698 0.0
C467 C 0.84097 0.39421 0.76332 0.0
C468 C 0.78128 0.33983 0.81666 0.0
C469 C 0.80196 0.37327 0.73179 0.0
C470 C 0.72227 0.28854 0.75594 0.0
C471 C 0.70124 0.29658 0.75777 0.0
C472 C 0.75198 0.30801 0.76096 0.0
C473 C 0.7608 0.33613 0.76797 0.0
C474 C 0.73973 0.34444 0.76961 0.0
C475 C 0.71022 0.32457 0.7645 0.0
C476 C 0.77389 0.29842 0.75905 0.0
C477 C 0.74831 0.37425 0.77702 0.0
H478 H 0.83849 0.37995 0.8216 0.0
H479 H 0.85624 0.40772 0.75005 0.0
H480 H 0.76282 0.34364 0.81834 0.0
H481 H 0.77172 0.31708 0.81188 0.0
H482 H 0.7925 0.34372 0.83399 0.0
H483 H 0.82007 0.38872 0.72048 0.0
H484 H 0.79336 0.35152 0.72464 0.0
H485 H 0.78384 0.3777 0.73082 0.0
H486 H 0.71553 0.26698 0.75071 0.0
H487 H 0.69414 0.33101 0.76592 0.0
H488 H 0.78434 0.3002 0.77641 0.0
H489 H 0.79158 0.31243 0.74683 0.0
H490 H 0.76362 0.27606 0.75276 0.0
H491 H 0.75795 0.37868 0.79497 0.0
H492 H 0.72936 0.37751 0.77685 0.0
H493 H 0.76533 0.39004 0.76518 0.0
C494 C 0.46773 0.86252 0.95066 0.0
C495 C 0.44476 0.8675 0.95472 0.0
C496 C 0.46208 0.8358 0.94313 0.0
C497 C 0.43275 0.81354 0.93936 0.0
C498 C 0.4095 0.81866 0.94261 0.0
C499 C 0.41578 0.84558 0.95033 0.0
C500 C 0.48746 0.83116 0.93986 0.0
C501 C 0.37794 0.79545 0.93863 0.0
C502 C 0.41921 0.74864 0.90454 0.0
C503 C 0.41445 0.72927 0.9225 0.0
C504 C 0.42503 0.77615 0.90971 0.0
C505 C 0.42636 0.78448 0.9334 0.0
C506 C 0.4219 0.76512 0.95159 0.0
C507 C 0.41589 0.73773 0.94592 0.0
C508 C 0.4295 0.7962 0.88987 0.0
C509 C 0.42345 0.77333 0.97708 0.0
H510 H 0.49023 0.87954 0.95353 0.0
H511 H 0.39792 0.84921 0.95358 0.0
H512 H 0.48583 0.81504 0.95254 0.0
H513 H 0.48665 0.82274 0.92201 0.0
H514 H 0.50903 0.85103 0.94248 0.0
H515 H 0.36261 0.80344 0.94024 0.0
H516 H 0.37509 0.78584 0.92096 0.0
H517 H 0.37178 0.77825 0.95163 0.0
H518 H 0.41798 0.74218 0.8864 0.0
H519 H 0.41233 0.72292 0.95991 0.0
H520 H 0.45144 0.8158 0.89152 0.0
H521 H 0.41299 0.80278 0.89079 0.0
H522 H 0.42768 0.78642 0.87241 0.0
H523 H 0.44529 0.79221 0.9812 0.0
H524 H 0.41963 0.75583 0.98912 0.0
H525 H 0.40684 0.77932 0.9806 0.0
C526 C 0.61439 0.47003 0.12433 0.0
C527 C 0.58476 0.45305 0.11779 0.0
C528 C 0.63429 0.46109 0.11995 0.0
C529 C 0.62429 0.43459 0.10871 0.0
C530 C 0.59439 0.41731 0.10209 0.0
C531 C 0.57491 0.42672 0.1068 0.0
C532 C 0.66596 0.47994 0.12747 0.0
C533 C 0.58301 0.38897 0.08997 0.0
C534 C 0.68064 0.42286 0.07886 0.0
C535 C 0.68477 0.40632 0.09547 0.0
C536 C 0.66091 0.43214 0.0829 0.0
C537 C 0.64513 0.42483 0.1041 0.0
C538 C 0.64939 0.40836 0.12102 0.0
C539 C 0.66911 0.39924 0.11647 0.0
C540 C 0.65683 0.44963 0.06444 0.0
C541 C 0.63307 0.40033 0.1439 0.0
H542 H 0.62195 0.49021 0.13313 0.0
H543 H 0.55205 0.4137 0.10156 0.0
H544 H 0.67223 0.46839 0.13996 0.0
H545 H 0.68042 0.48547 0.11206 0.0
H546 H 0.67018 0.49997 0.13597 0.0
H547 H 0.55918 0.3782 0.08583 0.0
H548 H 0.59502 0.392 0.07342 0.0
H549 H 0.58696 0.37472 0.10123 0.0
H550 H 0.6926 0.42833 0.06256 0.0
H551 H 0.67222 0.38651 0.12942 0.0
H552 H 0.66238 0.47054 0.07191 0.0
H553 H 0.63351 0.43867 0.05867 0.0
H554 H 0.67066 0.45337 0.04885 0.0
H555 H 0.63782 0.41981 0.15363 0.0
H556 H 0.63905 0.38757 0.15528 0.0
H557 H 0.60909 0.38783 0.14043 0.0
C558 C 0.4299 0.85059 0.53077 0.0
C559 C 0.41945 0.86647 0.51955 0.0
C560 C 0.41079 0.82189 0.53644 0.0
C561 C 0.38061 0.80883 0.53061 0.0
C562 C 0.37002 0.82469 0.51904 0.0
C563 C 0.38958 0.85332 0.51367 0.0
C564 C 0.42282 0.80562 0.54883 0.0
C565 C 0.33803 0.81142 0.51235 0.0
C566 C 0.33441 0.72843 0.5253 0.0
C567 C 0.31921 0.72097 0.54653 0.0
C568 C 0.35472 0.75693 0.52002 0.0
C569 C 0.36002 0.77848 0.5364 0.0
C570 C 0.34499 0.77112 0.55798 0.0
C571 C 0.3247 0.74242 0.56278 0.0
C572 C 0.37026 0.76399 0.4968 0.0
C573 C 0.35017 0.79359 0.57588 0.0
H574 H 0.45294 0.86078 0.53553 0.0
H575 H 0.38151 0.86544 0.50469 0.0
H576 H 0.41178 0.79771 0.5659 0.0
H577 H 0.41819 0.78673 0.53824 0.0
H578 H 0.44685 0.81886 0.55204 0.0
H579 H 0.33337 0.8267 0.50339 0.0
H580 H 0.33123 0.7929 0.50054 0.0
H581 H 0.32431 0.80339 0.52823 0.0
H582 H 0.33034 0.712 0.51265 0.0
H583 H 0.31312 0.73681 0.57925 0.0
H584 H 0.39436 0.77591 0.49973 0.0
H585 H 0.36489 0.77794 0.4865 0.0
H586 H 0.36412 0.74465 0.4862 0.0
H587 H 0.3738 0.80631 0.58068 0.0
H588 H 0.33737 0.78427 0.59209 0.0
H589 H 0.34401 0.80847 0.56829 0.0
C590 C 0.53505 0.39396 0.68398 0.0
C591 C 0.55786 0.42233 0.68137 0.0
C592 C 0.54071 0.37287 0.69154 0.0
C593 C 0.56984 0.38039 0.69701 0.0
C594 C 0.59287 0.4091 0.69513 0.0
C595 C 0.58664 0.42971 0.68718 0.0
C596 C 0.51558 0.34245 0.69317 0.0
C597 C 0.6242 0.41794 0.70103 0.0
C598 C 0.5817 0.3288 0.73322 0.0
C599 C 0.58926 0.31566 0.71588 0.0
C600 C 0.57545 0.35005 0.72738 0.0
C601 C 0.57636 0.35796 0.70362 0.0
C602 C 0.58344 0.34437 0.68602 0.0
C603 C 0.59 0.32353 0.69239 0.0
C604 C 0.56831 0.36434 0.74663 0.0
C605 C 0.58416 0.35189 0.66045 0.0
H606 H 0.51265 0.38815 0.68007 0.0
H607 H 0.60444 0.45149 0.68504 0.0
H608 H 0.51918 0.32879 0.68098 0.0
H609 H 0.51455 0.33422 0.71112 0.0
H610 H 0.4941 0.34025 0.6888 0.0
H611 H 0.63925 0.44138 0.70016 0.0
H612 H 0.62558 0.41068 0.71891 0.0
H613 H 0.63192 0.40768 0.68863 0.0
H614 H 0.58128 0.32292 0.75143 0.0
H615 H 0.59569 0.31335 0.67889 0.0
H616 H 0.54638 0.36156 0.74339 0.0
H617 H 0.58447 0.38757 0.74671 0.0
H618 H 0.56848 0.35572 0.76423 0.0
H619 H 0.5626 0.34869 0.65491 0.0
H620 H 0.58947 0.33888 0.64889 0.0
H621 H 0.60077 0.3747 0.65779 0.0
C622 C 0.16409 0.53851 0.85854 0.0
C623 C 0.15142 0.55552 0.85885 0.0
C624 C 0.1932 0.54936 0.86588 0.0
C625 C 0.2102 0.57804 0.87342 0.0
C626 C 0.19767 0.59541 0.87367 0.0
C627 C 0.16837 0.58391 0.86646 0.0
C628 C 0.20581 0.53018 0.86539 0.0
C629 C 0.21525 0.62617 0.88146 0.0
C630 C 0.27854 0.60006 0.91038 0.0
C631 C 0.30055 0.61207 0.89347 0.0
C632 C 0.24898 0.58889 0.90412 0.0
C633 C 0.24137 0.59004 0.88045 0.0
C634 C 0.2635 0.60226 0.86333 0.0
C635 C 0.29279 0.613 0.87003 0.0
C636 C 0.22587 0.57571 0.92279 0.0
C637 C 0.25624 0.60405 0.83794 0.0
H638 H 0.15131 0.51671 0.8523 0.0
H639 H 0.15864 0.59707 0.86704 0.0
H640 H 0.2245 0.53883 0.85315 0.0
H641 H 0.2144 0.52945 0.88303 0.0
H642 H 0.18934 0.50811 0.85982 0.0
H643 H 0.20224 0.63679 0.88067 0.0
H644 H 0.22337 0.62758 0.8997 0.0
H645 H 0.23475 0.63806 0.8702 0.0
H646 H 0.28437 0.59922 0.92851 0.0
H647 H 0.30968 0.62238 0.85685 0.0
H648 H 0.20991 0.55313 0.91826 0.0
H649 H 0.21347 0.5869 0.92366 0.0
H650 H 0.23542 0.57655 0.94041 0.0
H651 H 0.24125 0.58237 0.83079 0.0
H652 H 0.2761 0.61468 0.82688 0.0
H653 H 0.24465 0.61601 0.83649 0.0
C654 C 0.59485 0.17342 0.01737 0.0
C655 C 0.58031 0.15232 0.03428 0.0
C656 C 0.61666 0.20111 0.02397 0.0
C657 C 0.62356 0.20782 0.04806 0.0
C658 C 0.6082 0.18675 0.06522 0.0
C659 C 0.58692 0.15911 0.05809 0.0
C660 C 0.63286 0.22293 0.00517 0.0
C661 C 0.61452 0.1933 0.09107 0.0
C662 C 0.69872 0.27055 0.06413 0.0
C663 C 0.69257 0.29234 0.06694 0.0
C664 C 0.67639 0.24284 0.05805 0.0
C665 C 0.64723 0.23678 0.05524 0.0
C666 C 0.64078 0.25852 0.05881 0.0
C667 C 0.6636 0.28613 0.06439 0.0
C668 C 0.68412 0.22025 0.05404 0.0
C669 C 0.60985 0.2527 0.05647 0.0
H670 H 0.58988 0.16797 0.99895 0.0
H671 H 0.57549 0.1427 0.07111 0.0
H672 H 0.63067 0.24178 0.00791 0.0
H673 H 0.6566 0.23038 0.00626 0.0
H674 H 0.62466 0.21432 0.98726 0.0
H675 H 0.59955 0.17491 0.10217 0.0
H676 H 0.63743 0.19928 0.09516 0.0
H677 H 0.61233 0.21175 0.09585 0.0
H678 H 0.72113 0.27534 0.06594 0.0
H679 H 0.65876 0.30292 0.06674 0.0
H680 H 0.67836 0.21214 0.03576 0.0
H681 H 0.67121 0.20192 0.06582 0.0
H682 H 0.70781 0.22838 0.05713 0.0
H683 H 0.60175 0.24618 0.03821 0.0
H684 H 0.60833 0.27161 0.06103 0.0
H685 H 0.59501 0.23484 0.06804 0.0
C686 C 0.4277 0.59468 0.20698 0.0
C687 C 0.43809 0.59715 0.18407 0.0
C688 C 0.419 0.61324 0.21542 0.0
C689 C 0.42099 0.63493 0.20065 0.0
C690 C 0.43163 0.63767 0.17759 0.0
C691 C 0.43987 0.61865 0.16954 0.0
C692 C 0.40755 0.60957 0.24006 0.0
C693 C 0.43409 0.66056 0.16133 0.0
C694 C 0.37302 0.66618 0.21124 0.0
C695 C 0.39277 0.69226 0.22209 0.0
C696 C 0.38176 0.64703 0.20473 0.0
C697 C 0.41105 0.65423 0.20897 0.0
C698 C 0.431 0.68028 0.22028 0.0
C699 C 0.42157 0.69897 0.22683 0.0
C700 C 0.35976 0.6193 0.19293 0.0
C701 C 0.46247 0.68873 0.22492 0.0
H702 H 0.42668 0.57842 0.21845 0.0
H703 H 0.44743 0.62044 0.1517 0.0
H704 H 0.42112 0.62944 0.25031 0.0
H705 H 0.38482 0.60543 0.23961 0.0
H706 H 0.40755 0.59174 0.24935 0.0
H707 H 0.44387 0.6605 0.14424 0.0
H708 H 0.41206 0.6575 0.15799 0.0
H709 H 0.44779 0.68182 0.16964 0.0
H710 H 0.35065 0.66074 0.20769 0.0
H711 H 0.43693 0.7191 0.23518 0.0
H712 H 0.35848 0.6011 0.20257 0.0
H713 H 0.36693 0.61867 0.17487 0.0
H714 H 0.33747 0.61631 0.19195 0.0
H715 H 0.46335 0.67194 0.23512 0.0
H716 H 0.47491 0.7092 0.23468 0.0
H717 H 0.47358 0.69085 0.20804 0.0
C718 C 0.82666 0.44399 0.33039 0.0
C719 C 0.84867 0.45948 0.34725 0.0
C720 C 0.79747 0.43621 0.33436 0.0
C721 C 0.79018 0.44426 0.35563 0.0
C722 C 0.81225 0.45975 0.37276 0.0
C723 C 0.84118 0.46706 0.3684 0.0
C724 C 0.77446 0.41954 0.31574 0.0
C725 C 0.8053 0.46865 0.39569 0.0
C726 C 0.72019 0.44678 0.35805 0.0
C727 C 0.70117 0.42118 0.36945 0.0
C728 C 0.74925 0.45456 0.35338 0.0
C729 C 0.7594 0.4362 0.36014 0.0
C730 C 0.74027 0.41029 0.37155 0.0
C731 C 0.71144 0.40314 0.37614 0.0
C732 C 0.76914 0.48248 0.34133 0.0
C733 C 0.75025 0.39008 0.3789 0.0
H734 H 0.83234 0.43838 0.31388 0.0
H735 H 0.85799 0.47865 0.38166 0.0
H736 H 0.75677 0.39923 0.32313 0.0
H737 H 0.76424 0.43176 0.30977 0.0
H738 H 0.78366 0.41464 0.30028 0.0
H739 H 0.82507 0.48096 0.40703 0.0
H740 H 0.79541 0.48188 0.39228 0.0
H741 H 0.78895 0.44957 0.40542 0.0
H742 H 0.71243 0.46082 0.35285 0.0
H743 H 0.69687 0.38324 0.38488 0.0
H744 H 0.77747 0.47863 0.32484 0.0
H745 H 0.78847 0.49613 0.35271 0.0
H746 H 0.75785 0.49429 0.3371 0.0
H747 H 0.75804 0.38371 0.36343 0.0
H748 H 0.7325 0.37056 0.3873 0.0
H749 H 0.76898 0.40087 0.39143 0.0
C750 C 0.12957 0.55671 0.41655 0.0
C751 C 0.10057 0.55007 0.41957 0.0
C752 C 0.14883 0.56375 0.43579 0.0
C753 C 0.13895 0.56447 0.45857 0.0
C754 C 0.10968 0.55762 0.46178 0.0
C755 C 0.09082 0.55036 0.44227 0.0
C756 C 0.17987 0.57082 0.43171 0.0
C757 C 0.09837 0.55829 0.4858 0.0
C758 C 0.1801 0.56158 0.51243 0.0
C759 C 0.19656 0.59038 0.519 0.0
C760 C 0.16166 0.55285 0.49251 0.0
C761 C 0.15947 0.5734 0.479 0.0
C762 C 0.1763 0.60252 0.48539 0.0
C763 C 0.19473 0.61066 0.50522 0.0
C764 C 0.14427 0.52164 0.48607 0.0
C765 C 0.17441 0.62504 0.47152 0.0
H766 H 0.13742 0.55689 0.39906 0.0
H767 H 0.06831 0.54475 0.44485 0.0
H768 H 0.19552 0.59325 0.43686 0.0
H769 H 0.1849 0.55719 0.4428 0.0
H770 H 0.18368 0.56788 0.41308 0.0
H771 H 0.07491 0.55203 0.48535 0.0
H772 H 0.10093 0.5437 0.49775 0.0
H773 H 0.11145 0.58003 0.4934 0.0
H774 H 0.1815 0.5458 0.52291 0.0
H775 H 0.20734 0.63297 0.51016 0.0
H776 H 0.1489 0.51854 0.46774 0.0
H777 H 0.12045 0.51371 0.48701 0.0
H778 H 0.14933 0.50851 0.49782 0.0
H779 H 0.17989 0.62435 0.45292 0.0
H780 H 0.18941 0.64683 0.47853 0.0
H781 H 0.15163 0.62077 0.47182 0.0
C782 C 0.53166 0.11958 0.60031 0.0
C783 C 0.55004 0.11023 0.59205 0.0
C784 C 0.53859 0.13585 0.62094 0.0
C785 C 0.5646 0.14306 0.63356 0.0
C786 C 0.58353 0.13415 0.62511 0.0
C787 C 0.57599 0.11779 0.60448 0.0
C788 C 0.51788 0.14503 0.62939 0.0
C789 C 0.61149 0.14148 0.63807 0.0
C790 C 0.59383 0.20463 0.67688 0.0
C791 C 0.5834 0.19032 0.69823 0.0
C792 C 0.58816 0.18952 0.65572 0.0
C793 C 0.57163 0.15939 0.6559 0.0
C794 C 0.56134 0.14482 0.6774 0.0
C795 C 0.56738 0.16046 0.69831 0.0
C796 C 0.5996 0.20579 0.63314 0.0
C797 C 0.54361 0.11269 0.67827 0.0
H798 H 0.51179 0.11418 0.59061 0.0
H799 H 0.59012 0.11033 0.59838 0.0
H800 H 0.50962 0.13602 0.64699 0.0
H801 H 0.52966 0.16855 0.63115 0.0
H802 H 0.49881 0.13808 0.61733 0.0
H803 H 0.62438 0.13386 0.62869 0.0
H804 H 0.62539 0.16488 0.64054 0.0
H805 H 0.60624 0.13181 0.65577 0.0
H806 H 0.60628 0.2277 0.67665 0.0
H807 H 0.55925 0.14922 0.71471 0.0
H808 H 0.58101 0.20085 0.62112 0.0
H809 H 0.61351 0.19912 0.62416 0.0
H810 H 0.61268 0.22918 0.63606 0.0
H811 H 0.52314 0.10463 0.66775 0.0
H812 H 0.53768 0.1046 0.69645 0.0
H813 H 0.55615 0.10374 0.67043 0.0
C814 C 0.45069 0.56039 0.75279 0.0
C815 C 0.47388 0.57842 0.73809 0.0
C816 C 0.44409 0.57112 0.77261 0.0
C817 C 0.46111 0.60058 0.77789 0.0
C818 C 0.4843 0.61896 0.76297 0.0
C819 C 0.49037 0.60766 0.74323 0.0
C820 C 0.41916 0.55084 0.78811 0.0
C821 C 0.50286 0.6505 0.76798 0.0
C822 C 0.42779 0.63078 0.81871 0.0
C823 C 0.44083 0.63103 0.84032 0.0
C824 C 0.43456 0.62137 0.79817 0.0
C825 C 0.45488 0.61203 0.79924 0.0
C826 C 0.46864 0.61286 0.82087 0.0
C827 C 0.46144 0.62235 0.84115 0.0
C828 C 0.41947 0.62083 0.77541 0.0
C829 C 0.49052 0.60317 0.82267 0.0
H830 H 0.4381 0.53773 0.74911 0.0
H831 H 0.50805 0.62178 0.73176 0.0
H832 H 0.42767 0.55095 0.80598 0.0
H833 H 0.40308 0.55787 0.78977 0.0
H834 H 0.40757 0.52867 0.78123 0.0
H835 H 0.51979 0.66196 0.75444 0.0
H836 H 0.48877 0.65993 0.76887 0.0
H837 H 0.51398 0.6541 0.78529 0.0
H838 H 0.41186 0.63748 0.81787 0.0
H839 H 0.47166 0.6225 0.85775 0.0
H840 H 0.40594 0.59858 0.76894 0.0
H841 H 0.43598 0.63306 0.76182 0.0
H842 H 0.40509 0.62986 0.77736 0.0
H843 H 0.47973 0.58031 0.81785 0.0
H844 H 0.50005 0.60611 0.84061 0.0
H845 H 0.50861 0.61517 0.81016 0.0
C846 C 0.90253 0.44183 0.93574 0.0
C847 C 0.89328 0.44025 0.91238 0.0
C848 C 0.88246 0.43275 0.95413 0.0
C849 C 0.85241 0.42188 0.94903 0.0
C850 C 0.84294 0.42048 0.92551 0.0
C851 C 0.86351 0.42967 0.90745 0.0
C852 C 0.89337 0.43459 0.979 0.0
C853 C 0.81106 0.40895 0.91942 0.0
C854 C 0.79821 0.37287 0.99428 0.0
C855 C 0.79206 0.39139 0.00648 0.0
C856 C 0.81745 0.38243 0.97532 0.0
C857 C 0.83083 0.41121 0.96832 0.0
C858 C 0.82432 0.42992 0.98024 0.0
C859 C 0.80502 0.41979 0.99922 0.0
C860 C 0.82389 0.36186 0.96305 0.0
C861 C 0.83812 0.46073 0.97318 0.0
H862 H 0.92558 0.45042 0.93968 0.0
H863 H 0.8562 0.42812 0.8894 0.0
H864 H 0.88752 0.44768 0.98987 0.0
H865 H 0.8826 0.41302 0.98682 0.0
H866 H 0.91751 0.44401 0.98002 0.0
H867 H 0.80744 0.41016 0.90034 0.0
H868 H 0.79773 0.38639 0.92493 0.0
H869 H 0.80286 0.421 0.92906 0.0
H870 H 0.78826 0.35088 -0.00027 0.0
H871 H 0.80033 0.43422 0.00851 0.0
H872 H 0.84755 0.36925 0.96494 0.0
H873 H 0.81899 0.3611 0.94402 0.0
H874 H 0.81095 0.33995 0.97017 0.0
H875 H 0.86228 0.47172 0.97547 0.0
H876 H 0.8299 0.47222 0.98365 0.0
H877 H 0.83359 0.46217 0.95435 0.0
C878 C 0.41223 0.8776 0.08808 0.0
C879 C 0.43366 0.90652 0.09083 0.0
C880 C 0.40172 0.85938 0.10749 0.0
C881 C 0.41311 0.87027 0.13015 0.0
C882 C 0.43448 0.89947 0.13308 0.0
C883 C 0.44434 0.91724 0.11344 0.0
C884 C 0.37877 0.82838 0.10373 0.0
C885 C 0.44726 0.91188 0.15695 0.0
C886 C 0.37238 0.83057 0.18486 0.0
C887 C 0.38764 0.81697 0.19136 0.0
C888 C 0.37995 0.84746 0.16463 0.0
C889 C 0.40353 0.85105 0.15077 0.0
C890 C 0.41882 0.83716 0.15714 0.0
C891 C 0.4106 0.82019 0.17727 0.0
C892 C 0.36295 0.86171 0.15824 0.0
C893 C 0.44429 0.84071 0.14294 0.0
H894 H 0.40405 0.86907 0.07068 0.0
H895 H 0.46041 0.93966 0.11582 0.0
H896 H 0.38786 0.81487 0.10879 0.0
H897 H 0.35963 0.82231 0.11507 0.0
H898 H 0.37105 0.82358 0.0852 0.0
H899 H 0.46348 0.93509 0.15627 0.0
H900 H 0.42952 0.90827 0.16908 0.0
H901 H 0.45822 0.901 0.16449 0.0
H902 H 0.3545 0.82805 0.19557 0.0
H903 H 0.42255 0.80981 0.18219 0.0
H904 H 0.35429 0.85596 0.14002 0.0
H905 H 0.3777 0.88518 0.1589 0.0
H906 H 0.34432 0.85567 0.1702 0.0
H907 H 0.43731 0.83433 0.12445 0.0
H908 H 0.4534 0.82787 0.14992 0.0
H909 H 0.46203 0.86344 0.14291 0.0
C910 C 0.52036 0.41583 0.2396 0.0
C911 C 0.53632 0.44543 0.23634 0.0
C912 C 0.5288 0.40299 0.25679 0.0
C913 C 0.55387 0.42014 0.27098 0.0
C914 C 0.57014 0.45 0.26772 0.0
C915 C 0.56112 0.46228 0.25051 0.0
C916 C 0.51089 0.37109 0.25977 0.0
C917 C 0.59702 0.46902 0.28252 0.0
C918 C 0.56303 0.3939 0.33024 0.0
C919 C 0.58358 0.38587 0.32534 0.0
C920 C 0.55258 0.40437 0.31257 0.0
C921 C 0.56303 0.40702 0.28945 0.0
C922 C 0.58318 0.39826 0.28423 0.0
C923 C 0.59316 0.38771 0.30223 0.0
C924 C 0.53092 0.41328 0.31878 0.0
C925 C 0.59487 0.40082 0.25978 0.0
H926 H 0.50142 0.40262 0.2285 0.0
H927 H 0.57333 0.48519 0.24834 0.0
H928 H 0.52487 0.36179 0.25697 0.0
H929 H 0.50258 0.36585 0.27794 0.0
H930 H 0.49192 0.36078 0.24738 0.0
H931 H 0.60754 0.49177 0.27749 0.0
H932 H 0.591 0.46701 0.30128 0.0
H933 H 0.61334 0.46228 0.28079 0.0
H934 H 0.5554 0.39243 0.34802 0.0
H935 H 0.60904 0.38158 0.29827 0.0
H936 H 0.51127 0.40232 0.30716 0.0
H937 H 0.54096 0.4365 0.31599 0.0
H938 H 0.52377 0.40846 0.3373 0.0
H939 H 0.57647 0.38973 0.247 0.0
H940 H 0.6093 0.39178 0.25836 0.0
H941 H 0.60757 0.42357 0.25468 0.0
C942 C 0.49124 0.90643 0.39022 0.0
C943 C 0.47515 0.91953 0.39526 0.0
C944 C 0.48448 0.88876 0.37044 0.0
C945 C 0.46105 0.88408 0.35537 0.0
C946 C 0.44474 0.89724 0.36037 0.0
C947 C 0.452 0.91481 0.38022 0.0
C948 C 0.50231 0.87502 0.36572 0.0
C949 C 0.41962 0.89279 0.3447 0.0
C950 C 0.45711 0.859 0.29261 0.0
C951 C 0.43565 0.83001 0.29415 0.0
C952 C 0.46609 0.87674 0.31251 0.0
C953 C 0.45332 0.86521 0.33446 0.0
C954 C 0.43222 0.83583 0.33625 0.0
C955 C 0.42364 0.81859 0.31609 0.0
C956 C 0.48872 0.90797 0.30994 0.0
C957 C 0.41814 0.82273 0.35937 0.0
H958 H 0.50894 0.90972 0.40191 0.0
H959 H 0.43977 0.92521 0.3838 0.0
H960 H 0.48784 0.85151 0.36567 0.0
H961 H 0.5123 0.88121 0.34812 0.0
H962 H 0.52006 0.88112 0.37897 0.0
H963 H 0.40913 0.90457 0.35104 0.0
H964 H 0.42756 0.89991 0.32664 0.0
H965 H 0.40272 0.8698 0.34367 0.0
H966 H 0.46655 0.86802 0.27576 0.0
H967 H 0.4071 0.7962 0.31748 0.0
H968 H 0.50721 0.91419 0.32243 0.0
H969 H 0.47883 0.92094 0.31428 0.0
H970 H 0.49754 0.91335 0.2919 0.0
H971 H 0.43525 0.82728 0.37284 0.0
H972 H 0.40314 0.7993 0.35802 0.0
H973 H 0.40547 0.83234 0.36563 0.0
C974 C 0.55962 0.47581 0.52471 0.0
C975 C 0.56828 0.47421 0.54771 0.0
C976 C 0.56967 0.46734 0.50555 0.0
C977 C 0.58896 0.4571 0.50946 0.0
C978 C 0.59826 0.45595 0.53257 0.0
C979 C 0.58777 0.46448 0.55144 0.0
C980 C 0.5593 0.46892 0.48115 0.0
C981 C 0.61881 0.44515 0.5374 0.0
C982 C 0.58932 0.40802 0.46279 0.0
C983 C 0.6143 0.42663 0.44992 0.0
C984 C 0.58113 0.4176 0.48241 0.0
C985 C 0.59834 0.44649 0.48939 0.0
C986 C 0.62386 0.4653 0.47676 0.0
C987 C 0.63154 0.45515 0.45715 0.0
C988 C 0.55374 0.39688 0.49544 0.0
C989 C 0.64277 0.49624 0.48374 0.0
H990 H 0.54498 0.48378 0.52167 0.0
H991 H 0.59433 0.46294 0.56918 0.0
H992 H 0.57837 0.48202 0.46976 0.0
H993 H 0.54687 0.44728 0.47328 0.0
H994 H 0.54499 0.47819 0.48105 0.0
H995 H 0.62512 0.44695 0.55624 0.0
H996 H 0.6082 0.42248 0.532 0.0
H997 H 0.63901 0.45725 0.52693 0.0
H998 H 0.57589 0.38593 0.4574 0.0
H999 H 0.6509 0.46966 0.44734 0.0
H1000 H 0.53761 0.40396 0.49453 0.0
H1001 H 0.55904 0.39638 0.51424 0.0
H1002 H 0.54328 0.37492 0.48819 0.0
H1003 H 0.62985 0.50689 0.48231 0.0
H1004 H 0.6625 0.50784 0.47263 0.0
H1005 H 0.64996 0.49802 0.50232 0.0
C1006 C 0.12483 0.5872 0.72944 0.0
C1007 C 0.11084 0.55766 0.73263 0.0
C1008 C 0.14604 0.60089 0.71208 0.0
C1009 C 0.15342 0.58463 0.69755 0.0
C1010 C 0.13956 0.55484 0.7008 0.0
C1011 C 0.11845 0.54172 0.71832 0.0
C1012 C 0.16046 0.63272 0.70921 0.0
C1013 C 0.14679 0.53677 0.6856 0.0
C1014 C 0.1867 0.61292 0.63791 0.0
C1015 C 0.21637 0.62235 0.64217 0.0
C1016 C 0.16607 0.60109 0.6559 0.0
C1017 C 0.17532 0.59865 0.67869 0.0
C1018 C 0.20534 0.60878 0.68325 0.0
C1019 C 0.22551 0.62051 0.66493 0.0
C1020 C 0.13424 0.59059 0.65038 0.0
C1021 C 0.21604 0.60661 0.70737 0.0
H1022 H 0.11932 0.59968 0.74068 0.0
H1023 H 0.10748 0.51884 0.72052 0.0
H1024 H 0.18458 0.64298 0.71127 0.0
H1025 H 0.15607 0.63765 0.69129 0.0
H1026 H 0.15252 0.64231 0.72213 0.0
H1027 H 0.13441 0.51397 0.69065 0.0
H1028 H 0.14165 0.53848 0.66697 0.0
H1029 H 0.1706 0.54462 0.68682 0.0
H1030 H 0.17943 0.6143 0.62039 0.0
H1031 H 0.2484 0.62778 0.6684 0.0
H1032 H 0.12599 0.60083 0.6623 0.0
H1033 H 0.12082 0.56729 0.65331 0.0
H1034 H 0.1308 0.59501 0.63198 0.0
H1035 H 0.20935 0.617 0.72055 0.0
H1036 H 0.24026 0.61663 0.70828 0.0
H1037 H 0.20582 0.5839 0.71235 0.0
C1038 C 0.52445 0.1305 0.90406 0.0
C1039 C 0.53897 0.11547 0.90765 0.0
C1040 C 0.5336 0.15146 0.88669 0.0
C1041 C 0.55778 0.15746 0.87252 0.0
C1042 C 0.57265 0.1425 0.87617 0.0
C1043 C 0.5631 0.12172 0.89372 0.0
C1044 C 0.51731 0.1671 0.88342 0.0
C1045 C 0.59845 0.14819 0.86134 0.0
C1046 C 0.56542 0.19099 0.81272 0.0
C1047 C 0.58744 0.21938 0.81704 0.0
C1048 C 0.55525 0.17073 0.83071 0.0
C1049 C 0.5673 0.17905 0.8536 0.0
C1050 C 0.58901 0.2078 0.85821 0.0
C1051 C 0.59886 0.22762 0.83987 0.0
C1052 C 0.53205 0.14026 0.8251 0.0
C1053 C 0.60227 0.21751 0.88243 0.0
H1054 H 0.50604 0.12603 0.915 0.0
H1055 H 0.57419 0.10994 0.89624 0.0
H1056 H 0.53267 0.19036 0.88549 0.0
H1057 H 0.50793 0.16343 0.8654 0.0
H1058 H 0.49924 0.16024 0.89614 0.0
H1059 H 0.6079 0.13503 0.86665 0.0
H1060 H 0.59156 0.14367 0.84264 0.0
H1061 H 0.61588 0.17098 0.86267 0.0
H1062 H 0.55645 0.1844 0.79515 0.0
H1063 H 0.61582 0.24951 0.84339 0.0
H1064 H 0.51296 0.13315 0.83673 0.0
H1065 H 0.54093 0.12614 0.82838 0.0
H1066 H 0.52429 0.13743 0.80658 0.0
H1067 H 0.58474 0.2119 0.8954 0.0
H1068 H 0.61802 0.24083 0.88335 0.0
H1069 H 0.6139 0.20636 0.8877 0.0
C1070 C 0.42291 0.56608 0.05043 0.0
C1071 C 0.44387 0.55793 0.04871 0.0
C1072 C 0.41301 0.5738 0.03043 0.0
C1073 C 0.4244 0.57342 0.00821 0.0
C1074 C 0.4454 0.56502 0.00634 0.0
C1075 C 0.45482 0.55733 0.02659 0.0
C1076 C 0.3906 0.58266 0.03311 0.0
C1077 C 0.45806 0.56433 0.98295 0.0
C1078 C 0.38294 0.57109 0.95271 0.0
C1079 C 0.39849 0.59969 0.94576 0.0
C1080 C 0.39088 0.56227 0.97318 0.0
C1081 C 0.415 0.58251 0.98694 0.0
C1082 C 0.43067 0.61141 0.98009 0.0
C1083 C 0.42221 0.61965 0.95962 0.0
C1084 C 0.37359 0.53127 0.98 0.0
C1085 C 0.45659 0.6336 0.99426 0.0
H1086 H 0.41455 0.56684 0.06749 0.0
H1087 H 0.47062 0.55055 0.02505 0.0
H1088 H 0.40001 0.605 0.02729 0.0
H1089 H 0.37117 0.5692 0.02177 0.0
H1090 H 0.38326 0.58098 0.05151 0.0
H1091 H 0.47396 0.55697 0.98446 0.0
H1092 H 0.4402 0.54997 0.97063 0.0
H1093 H 0.46936 0.5859 0.97511 0.0
H1094 H 0.36453 0.55555 0.94216 0.0
H1095 H 0.43436 0.64181 0.95442 0.0
H1096 H 0.36483 0.52914 0.99793 0.0
H1097 H 0.38816 0.52234 0.98034 0.0
H1098 H 0.355 0.51834 0.96772 0.0
H1099 H 0.4499 0.63402 0.01254 0.0
H1100 H 0.4661 0.65528 0.98677 0.0
H1101 H 0.47393 0.62809 0.99505 0.0
C1102 C 0.89635 0.47394 0.20889 0.0
C1103 C 0.89988 0.45515 0.22333 0.0
C1104 C 0.87879 0.46419 0.18853 0.0
C1105 C 0.8645 0.43496 0.18243 0.0
C1106 C 0.86769 0.41582 0.19704 0.0
C1107 C 0.88529 0.42614 0.21735 0.0
C1108 C 0.87585 0.48523 0.17339 0.0
C1109 C 0.85271 0.3845 0.19113 0.0
C1110 C 0.79965 0.40632 0.1402 0.0
C1111 C 0.8126 0.40657 0.11882 0.0
C1112 C 0.81621 0.4152 0.16109 0.0
C1113 C 0.84643 0.4245 0.1606 0.0
C1114 C 0.85953 0.42435 0.13918 0.0
C1115 C 0.84246 0.41538 0.11853 0.0
C1116 C 0.80147 0.41506 0.18361 0.0
C1117 C 0.8917 0.43404 0.13801 0.0
H1118 H 0.90786 0.49644 0.21322 0.0
H1119 H 0.88758 0.41144 0.22861 0.0
H1120 H 0.88448 0.48579 0.15566 0.0
H1121 H 0.85238 0.47846 0.17122 0.0
H1122 H 0.88782 0.50712 0.18089 0.0
H1123 H 0.85724 0.37239 0.20445 0.0
H1124 H 0.82865 0.37523 0.18975 0.0
H1125 H 0.86017 0.38159 0.17383 0.0
H1126 H 0.77658 0.39952 0.1406 0.0
H1127 H 0.85263 0.41561 0.10211 0.0
H1128 H 0.81177 0.43704 0.19072 0.0
H1129 H 0.8045 0.40205 0.19698 0.0
H1130 H 0.7776 0.40648 0.18112 0.0
H1131 H 0.90515 0.45665 0.1436 0.0
H1132 H 0.89837 0.43194 0.12009 0.0
H1133 H 0.89681 0.4214 0.15026 0.0
loop_
_geom_bond_atom_site_label_1
_geom_bond_atom_site_label_2
_geom_bond_distance
_geom_bond_site_symmetry_2
_ccdc_geom_bond_type
H0 C19 0.949 . S
H1 C20 0.950 . S
H2 C22 0.950 . S
H3 C23 0.950 . S
H4 C25 0.950 . S
H5 C28 0.950 . S
H6 C29 0.950 . S
H7 C31 0.951 . S
H8 C32 0.949 . S
H9 C34 0.949 . S
H10 C35 0.950 . S
H11 C37 0.950 . S
H12 C38 0.950 . S
H13 C40 0.950 . S
H14 C43 0.950 . S
H15 C44 0.950 . S
H16 C46 0.951 . S
H17 C47 0.949 . S
C18 C19 1.376 . S
C18 C23 1.386 . S
C18 C24 1.483 . S
C19 H0 0.949 . S
C19 C18 1.376 . S
C19 C20 1.397 . S
C20 H1 0.950 . S
C20 C19 1.397 . S
C20 C21 1.391 . S
C21 C20 1.391 . S
C21 C22 1.405 . S
C22 H2 0.950 . S
C22 C21 1.405 . S
C22 C23 1.367 . S
C23 H3 0.950 . S
C23 C18 1.386 . S
C23 C22 1.367 . S
C24 C18 1.483 . S
C24 C25 1.382 1_655 S
C24 C26 1.403 . S
C25 H4 0.950 . S
C25 C24 1.382 1_455 S
C25 C41 1.411 . S
C26 C24 1.403 . S
C26 C27 1.489 . S
C26 C40 1.411 . S
C27 C26 1.489 . S
C27 C28 1.383 . S
C27 C32 1.382 . S
C28 H5 0.950 . S
C28 C27 1.383 . S
C28 C29 1.395 . S
C29 H6 0.950 . S
C29 C28 1.395 . S
C29 C30 1.288 . S
C30 C29 1.288 . S
C30 C31 1.392 . S
C31 H7 0.951 . S
C31 C30 1.392 . S
C31 C32 1.392 . S
C32 H8 0.949 . S
C32 C27 1.382 . S
C32 C31 1.392 . S
C33 C34 1.376 . S
C33 C38 1.386 . S
C33 C39 1.483 . S
C34 H9 0.949 . S
C34 C33 1.376 . S
C34 C35 1.397 . S
C35 H10 0.950 . S
C35 C34 1.397 . S
C35 C36 1.391 . S
C36 C35 1.391 . S
C36 C37 1.405 . S
C37 H11 0.950 . S
C37 C36 1.405 . S
C37 C38 1.367 . S
C38 H12 0.950 . S
C38 C33 1.386 . S
C38 C37 1.367 . S
C39 C33 1.483 . S
C39 C40 1.382 1_455 S
C39 C41 1.403 . S
C40 H13 0.950 . S
C40 C26 1.411 . S
C40 C39 1.382 1_655 S
C41 C25 1.411 . S
C41 C39 1.403 . S
C41 C42 1.489 . S
C42 C41 1.489 . S
C42 C43 1.383 . S
C42 C47 1.382 . S
C43 H14 0.950 . S
C43 C42 1.383 . S
C43 C44 1.395 . S
C44 H15 0.950 . S
C44 C43 1.395 . S
C44 C45 1.288 . S
C45 C44 1.288 . S
C45 C46 1.392 . S
C46 H16 0.951 . S
C46 C45 1.392 . S
C46 C47 1.392 . S
C47 H17 0.949 . S
C47 C42 1.382 . S
C47 C46 1.392 . S
H48 C67 0.949 . S
H49 C68 0.950 . S
H50 C70 0.950 . S
H51 C71 0.950 . S
H52 C73 0.950 1_565 S
H53 C76 0.950 . S
H54 C77 0.950 . S
H55 C79 0.951 . S
H56 C80 0.949 . S
H57 C82 0.949 . S
H58 C83 0.950 . S
H59 C85 0.950 . S
H60 C86 0.950 . S
H61 C88 0.950 . S
H62 C91 0.950 . S
H63 C92 0.950 . S
H64 C94 0.951 . S
H65 C95 0.949 . S
C66 C67 1.376 . S
C66 C71 1.386 . S
C66 C72 1.483 . S
C67 H48 0.949 . S
C67 C66 1.376 . S
C67 C68 1.397 . S
C68 H49 0.950 . S
C68 C67 1.397 . S
C68 C69 1.391 . S
C69 C68 1.391 . S
C69 C70 1.405 . S
C70 H50 0.950 . S
C70 C69 1.405 . S
C70 C71 1.367 . S
C71 H51 0.950 . S
C71 C66 1.386 . S
C71 C70 1.367 . S
C72 C66 1.483 . S
C72 C73 1.382 1_565 S
C72 C74 1.403 . S
C73 H52 0.950 1_545 S
C73 C72 1.382 1_545 S
C73 C89 1.411 . S
C74 C72 1.403 . S
C74 C75 1.489 . S
C74 C88 1.411 1_565 S
C75 C74 1.489 . S
C75 C76 1.383 . S
C75 C80 1.382 . S
C76 H53 0.950 . S
C76 C75 1.383 . S
C76 C77 1.395 . S
C77 H54 0.950 . S
C77 C76 1.395 . S
C77 C78 1.288 . S
C78 C77 1.288 . S
C78 C79 1.392 . S
C79 H55 0.951 . S
C79 C78 1.392 . S
C79 C80 1.392 . S
C80 H56 0.949 . S
C80 C75 1.382 . S
C80 C79 1.392 . S
C81 C82 1.376 . S
C81 C86 1.386 . S
C81 C87 1.483 . S
C82 H57 0.949 . S
C82 C81 1.376 . S
C82 C83 1.397 . S
C83 H58 0.950 . S
C83 C82 1.397 . S
C83 C84 1.391 . S
C84 C83 1.391 . S
C84 C85 1.405 . S
C85 H59 0.950 . S
C85 C84 1.405 . S
C85 C86 1.367 . S
C86 H60 0.950 . S
C86 C81 1.386 . S
C86 C85 1.367 . S
C87 C81 1.483 . S
C87 C88 1.382 . S
C87 C89 1.403 . S
C88 H61 0.950 . S
C88 C74 1.411 1_545 S
C88 C87 1.382 . S
C89 C73 1.411 . S
C89 C87 1.403 . S
C89 C90 1.489 . S
C90 C89 1.489 . S
C90 C91 1.383 . S
C90 C95 1.382 . S
C91 H62 0.950 . S
C91 C90 1.383 . S
C91 C92 1.395 . S
C92 H63 0.950 . S
C92 C91 1.395 . S
C92 C93 1.288 . S
C93 C92 1.288 . S
C93 C94 1.392 . S
C94 H64 0.951 . S
C94 C93 1.392 . S
C94 C95 1.392 . S
C95 H65 0.949 . S
C95 C90 1.382 . S
C95 C94 1.392 . S
H96 C115 0.949 . S
H97 C116 0.950 . S
H98 C118 0.950 . S
H99 C119 0.950 . S
H100 C121 0.950 . S
H101 C124 0.950 . S
H102 C125 0.950 . S
H103 C127 0.951 . S
H104 C128 0.949 . S
H105 C130 0.949 . S
H106 C131 0.950 . S
H107 C133 0.950 . S
H108 C134 0.950 . S
H109 C136 0.950 . S
H110 C139 0.950 . S
H111 C140 0.950 . S
H112 C142 0.951 . S
H113 C143 0.949 . S
C114 C115 1.376 . S
C114 C119 1.386 . S
C114 C120 1.483 . S
C115 H96 0.949 . S
C115 C114 1.376 . S
C115 C116 1.397 . S
C116 H97 0.950 . S
C116 C115 1.397 . S
C116 C117 1.391 . S
C117 C116 1.391 . S
C117 C118 1.405 . S
C118 H98 0.950 . S
C118 C117 1.405 . S
C118 C119 1.367 . S
C119 H99 0.950 . S
C119 C114 1.386 . S
C119 C118 1.367 . S
C120 C114 1.483 . S
C120 C121 1.382 . S
C120 C122 1.403 . S
C121 H100 0.950 . S
C121 C120 1.382 . S
C121 C137 1.411 . S
C122 C120 1.403 . S
C122 C123 1.489 . S
C122 C136 1.411 . S
C123 C122 1.489 . S
C123 C124 1.383 . S
C123 C128 1.382 . S
C124 H101 0.950 . S
C124 C123 1.383 . S
C124 C125 1.395 . S
C125 H102 0.950 . S
C125 C124 1.395 . S
C125 C126 1.288 . S
C126 C125 1.288 . S
C126 C127 1.392 . S
C127 H103 0.951 . S
C127 C126 1.392 . S
C127 C128 1.392 . S
C128 H104 0.949 . S
C128 C123 1.382 . S
C128 C127 1.392 . S
C129 C130 1.376 . S
C129 C134 1.386 . S
C129 C135 1.483 . S
C130 H105 0.949 . S
C130 C129 1.376 . S
C130 C131 1.397 . S
C131 H106 0.950 . S
C131 C130 1.397 . S
C131 C132 1.391 . S
C132 C131 1.391 . S
C132 C133 1.405 . S
C133 H107 0.950 . S
C133 C132 1.405 . S
C133 C134 1.367 . S
C134 H108 0.950 . S
C134 C129 1.386 . S
C134 C133 1.367 . S
C135 C129 1.483 . S
C135 C136 1.382 . S
C135 C137 1.403 . S
C136 H109 0.950 . S
C136 C122 1.411 . S
C136 C135 1.382 . S
C137 C121 1.411 . S
C137 C135 1.403 . S
C137 C138 1.489 . S
C138 C137 1.489 . S
C138 C139 1.383 . S
C138 C143 1.382 . S
C139 H110 0.950 . S
C139 C138 1.383 . S
C139 C140 1.395 . S
C140 H111 0.950 . S
C140 C139 1.395 . S
C140 C141 1.288 . S
C141 C140 1.288 . S
C141 C142 1.392 . S
C142 H112 0.951 . S
C142 C141 1.392 . S
C142 C143 1.392 . S
C143 H113 0.949 . S
C143 C138 1.382 . S
C143 C142 1.392 . S
H144 C163 0.949 . S
H145 C164 0.950 . S
H146 C166 0.950 . S
H147 C167 0.950 . S
H148 C169 0.950 . S
H149 C172 0.950 . S
H150 C173 0.950 . S
H151 C175 0.951 . S
H152 C176 0.949 . S
H153 C178 0.949 . S
H154 C179 0.950 . S
H155 C181 0.950 . S
H156 C182 0.950 . S
H157 C184 0.950 . S
H158 C187 0.950 . S
H159 C188 0.950 . S
H160 C190 0.951 . S
H161 C191 0.949 . S
C162 C163 1.376 . S
C162 C167 1.386 . S
C162 C168 1.483 . S
C163 H144 0.949 . S
C163 C162 1.376 . S
C163 C164 1.397 . S
C164 H145 0.950 . S
C164 C163 1.397 . S
C164 C165 1.391 . S
C165 C164 1.391 . S
C165 C166 1.405 . S
C166 H146 0.950 . S
C166 C165 1.405 . S
C166 C167 1.367 . S
C167 H147 0.950 . S
C167 C162 1.386 . S
C167 C166 1.367 . S
C168 C162 1.483 . S
C168 C169 1.382 1_455 S
C168 C170 1.403 . S
C169 H148 0.950 . S
C169 C168 1.382 1_655 S
C169 C185 1.411 . S
C170 C168 1.403 . S
C170 C171 1.489 . S
C170 C184 1.411 . S
C171 C170 1.489 . S
C171 C172 1.383 . S
C171 C176 1.382 . S
C172 H149 0.950 . S
C172 C171 1.383 . S
C172 C173 1.395 . S
C173 H150 0.950 . S
C173 C172 1.395 . S
C173 C174 1.288 . S
C174 C173 1.288 . S
C174 C175 1.392 . S
C175 H151 0.951 . S
C175 C174 1.392 . S
C175 C176 1.392 . S
C176 H152 0.949 . S
C176 C171 1.382 . S
C176 C175 1.392 . S
C177 C178 1.376 . S
C177 C182 1.386 . S
C177 C183 1.483 . S
C178 H153 0.949 . S
C178 C177 1.376 . S
C178 C179 1.397 . S
C179 H154 0.950 . S
C179 C178 1.397 . S
C179 C180 1.391 . S
C180 C179 1.391 . S
C180 C181 1.405 . S
C181 H155 0.950 . S
C181 C180 1.405 . S
C181 C182 1.367 . S
C182 H156 0.950 . S
C182 C177 1.386 . S
C182 C181 1.367 . S
C183 C177 1.483 . S
C183 C184 1.382 1_655 S
C183 C185 1.403 . S
C184 H157 0.950 . S
C184 C170 1.411 . S
C184 C183 1.382 1_455 S
C185 C169 1.411 . S
C185 C183 1.403 . S
C185 C186 1.489 . S
C186 C185 1.489 . S
C186 C187 1.383 . S
C186 C191 1.382 . S
C187 H158 0.950 . S
C187 C186 1.383 . S
C187 C188 1.395 . S
C188 H159 0.950 . S
C188 C187 1.395 . S
C188 C189 1.288 . S
C189 C188 1.288 . S
C189 C190 1.392 . S
C190 H160 0.951 . S
C190 C189 1.392 . S
C190 C191 1.392 . S
C191 H161 0.949 . S
C191 C186 1.382 . S
C191 C190 1.392 . S
H192 C211 0.949 . S
H193 C212 0.950 . S
H194 C214 0.950 . S
H195 C215 0.950 . S
H196 C217 0.950 . S
H197 C220 0.950 . S
H198 C221 0.950 . S
H199 C223 0.951 . S
H200 C224 0.949 . S
H201 C226 0.949 . S
H202 C227 0.950 . S
H203 C229 0.950 . S
H204 C230 0.950 . S
H205 C232 0.950 1_565 S
H206 C235 0.950 . S
H207 C236 0.950 . S
H208 C238 0.951 . S
H209 C239 0.949 . S
C210 C211 1.376 . S
C210 C215 1.386 1_554 S
C210 C216 1.483 1_554 S
C211 H192 0.949 . S
C211 C210 1.376 . S
C211 C212 1.397 . S
C212 H193 0.950 . S
C212 C211 1.397 . S
C212 C213 1.391 . S
C213 C212 1.391 . S
C213 C214 1.405 . S
C214 H194 0.950 . S
C214 C213 1.405 . S
C214 C215 1.367 1_554 S
C215 H195 0.950 . S
C215 C210 1.386 1_556 S
C215 C214 1.367 1_556 S
C216 C210 1.483 1_556 S
C216 C217 1.382 1_556 S
C216 C218 1.403 . S
C217 H196 0.950 . S
C217 C216 1.382 1_554 S
C217 C233 1.411 1_545 S
C218 C216 1.403 . S
C218 C219 1.489 . S
C218 C232 1.411 . S
C219 C218 1.489 . S
C219 C220 1.383 . S
C219 C224 1.382 . S
C220 H197 0.950 . S
C220 C219 1.383 . S
C220 C221 1.395 . S
C221 H198 0.950 . S
C221 C220 1.395 . S
C221 C222 1.288 . S
C222 C221 1.288 . S
C222 C223 1.392 . S
C223 H199 0.951 . S
C223 C222 1.392 . S
C223 C224 1.392 . S
C224 H200 0.949 . S
C224 C219 1.382 . S
C224 C223 1.392 . S
C225 C226 1.376 . S
C225 C230 1.386 . S
C225 C231 1.483 . S
C226 H201 0.949 . S
C226 C225 1.376 . S
C226 C227 1.397 . S
C227 H202 0.950 . S
C227 C226 1.397 . S
C227 C228 1.391 . S
C228 C227 1.391 . S
C228 C229 1.405 . S
C229 H203 0.950 . S
C229 C228 1.405 . S
C229 C230 1.367 . S
C230 H204 0.950 . S
C230 C225 1.386 . S
C230 C229 1.367 . S
C231 C225 1.483 . S
C231 C232 1.382 1_565 S
C231 C233 1.403 1_556 S
C232 H205 0.950 1_545 S
C232 C218 1.411 . S
C232 C231 1.382 1_545 S
C233 C217 1.411 1_565 S
C233 C231 1.403 1_554 S
C233 C234 1.489 . S
C234 C233 1.489 . S
C234 C235 1.383 . S
C234 C239 1.382 . S
C235 H206 0.950 . S
C235 C234 1.383 . S
C235 C236 1.395 . S
C236 H207 0.950 . S
C236 C235 1.395 . S
C236 C237 1.288 . S
C237 C236 1.288 . S
C237 C238 1.392 . S
C238 H208 0.951 . S
C238 C237 1.392 . S
C238 C239 1.392 . S
C239 H209 0.949 . S
C239 C234 1.382 . S
C239 C238 1.392 . S
H240 C259 0.949 . S
H241 C260 0.950 . S
H242 C262 0.950 . S
H243 C263 0.950 . S
H244 C265 0.950 . S
H245 C268 0.950 . S
H246 C269 0.950 . S
H247 C271 0.951 . S
H248 C272 0.949 . S
H249 C274 0.949 . S
H250 C275 0.950 . S
H251 C277 0.950 . S
H252 C278 0.950 . S
H253 C280 0.950 . S
H254 C283 0.950 . S
H255 C284 0.950 . S
H256 C286 0.951 . S
H257 C287 0.949 . S
C258 C259 1.376 . S
C258 C263 1.386 . S
C258 C264 1.483 . S
C259 H240 0.949 . S
C259 C258 1.376 . S
C259 C260 1.397 . S
C260 H241 0.950 . S
C260 C259 1.397 . S
C260 C261 1.391 . S
C261 C260 1.391 . S
C261 C262 1.405 . S
C262 H242 0.950 . S
C262 C261 1.405 . S
C262 C263 1.367 . S
C263 H243 0.950 . S
C263 C258 1.386 . S
C263 C262 1.367 . S
C264 C258 1.483 . S
C264 C265 1.382 . S
C264 C266 1.403 . S
C265 H244 0.950 . S
C265 C264 1.382 . S
C265 C281 1.411 . S
C266 C264 1.403 . S
C266 C267 1.489 . S
C266 C280 1.411 . S
C267 C266 1.489 . S
C267 C268 1.383 . S
C267 C272 1.382 . S
C268 H245 0.950 . S
C268 C267 1.383 . S
C268 C269 1.395 . S
C269 H246 0.950 . S
C269 C268 1.395 . S
C269 C270 1.288 . S
C270 C269 1.288 . S
C270 C271 1.392 . S
C271 H247 0.951 . S
C271 C270 1.392 . S
C271 C272 1.392 . S
C272 H248 0.949 . S
C272 C267 1.382 . S
C272 C271 1.392 . S
C273 C274 1.376 . S
C273 C278 1.386 . S
C273 C279 1.483 . S
C274 H249 0.949 . S
C274 C273 1.376 . S
C274 C275 1.397 . S
C275 H250 0.950 . S
C275 C274 1.397 . S
C275 C276 1.391 . S
C276 C275 1.391 . S
C276 C277 1.405 . S
C277 H251 0.950 . S
C277 C276 1.405 . S
C277 C278 1.367 . S
C278 H252 0.950 . S
C278 C273 1.386 . S
C278 C277 1.367 . S
C279 C273 1.483 . S
C279 C280 1.382 . S
C279 C281 1.403 . S
C280 H253 0.950 . S
C280 C266 1.411 . S
C280 C279 1.382 . S
C281 C265 1.411 . S
C281 C279 1.403 . S
C281 C282 1.489 . S
C282 C281 1.489 . S
C282 C283 1.383 . S
C282 C287 1.382 . S
C283 H254 0.950 . S
C283 C282 1.383 . S
C283 C284 1.395 . S
C284 H255 0.950 . S
C284 C283 1.395 . S
C284 C285 1.288 . S
C285 C284 1.288 . S
C285 C286 1.392 . S
C286 H256 0.951 . S
C286 C285 1.392 . S
C286 C287 1.392 . S
C287 H257 0.949 . S
C287 C282 1.382 . S
C287 C286 1.392 . S
C288 O289 1.160 . S
C288 O295 1.185 . S
O289 C288 1.160 . S
O290 Zn291 1.899 . S
O290 C298 1.284 . S
Zn291 O290 1.899 . S
Zn291 O292 2.032 . S
Zn291 O295 2.086 . S
Zn291 O300 1.977 . S
O292 Zn291 2.032 . S
O292 C296 1.278 . S
C293 O294 1.203 . S
C293 O300 1.267 . S
O294 C293 1.203 . S
O295 C288 1.185 . S
O295 Zn291 2.086 . S
C296 O292 1.278 . S
C296 O297 1.211 . S
O297 C296 1.211 . S
C298 O290 1.284 . S
C298 O299 1.273 . S
O299 C298 1.273 . S
O300 Zn291 1.977 . S
O300 C293 1.267 . S
C301 O302 1.160 . S
C301 O308 1.185 . S
O302 C301 1.160 . S
O303 Zn304 1.899 . S
O303 C311 1.284 . S
Zn304 O303 1.899 . S
Zn304 O305 2.032 . S
Zn304 O308 2.086 . S
Zn304 O313 1.977 . S
O305 Zn304 2.032 . S
O305 C309 1.278 . S
C306 O307 1.203 . S
C306 O313 1.267 . S
O307 C306 1.203 . S
O308 C301 1.185 . S
O308 Zn304 2.086 . S
C309 O305 1.278 . S
C309 O310 1.211 . S
O310 C309 1.211 . S
C311 O303 1.284 . S
C311 O312 1.273 . S
O312 C311 1.273 . S
O313 Zn304 1.977 . S
O313 C306 1.267 . S
C314 O315 1.160 . S
C314 O321 1.185 . S
O315 C314 1.160 . S
O316 Zn317 1.899 . S
O316 C324 1.284 . S
Zn317 O316 1.899 . S
Zn317 O318 2.032 . S
Zn317 O321 2.086 . S
Zn317 O326 1.977 . S
O318 Zn317 2.032 . S
O318 C322 1.278 . S
C319 O320 1.203 . S
C319 O326 1.267 . S
O320 C319 1.203 . S
O321 C314 1.185 . S
O321 Zn317 2.086 . S
C322 O318 1.278 . S
C322 O323 1.211 . S
O323 C322 1.211 . S
C324 O316 1.284 . S
C324 O325 1.273 . S
O325 C324 1.273 . S
O326 Zn317 1.977 . S
O326 C319 1.267 . S
C327 O328 1.160 . S
C327 O334 1.185 . S
O328 C327 1.160 . S
O329 Zn330 1.899 . S
O329 C337 1.284 . S
Zn330 O329 1.899 . S
Zn330 O331 2.032 . S
Zn330 O334 2.086 . S
Zn330 O339 1.977 . S
O331 Zn330 2.032 . S
O331 C335 1.278 . S
C332 O333 1.203 . S
C332 O339 1.267 . S
O333 C332 1.203 . S
O334 C327 1.185 . S
O334 Zn330 2.086 . S
C335 O331 1.278 . S
C335 O336 1.211 . S
O336 C335 1.211 . S
C337 O329 1.284 . S
C337 O338 1.273 . S
O338 C337 1.273 . S
O339 Zn330 1.977 . S
O339 C332 1.267 . S
C340 O341 1.160 . S
C340 O347 1.185 . S
O341 C340 1.160 . S
O342 Zn343 1.899 . S
O342 C350 1.284 . S
Zn343 O342 1.899 . S
Zn343 O344 2.032 . S
Zn343 O347 2.086 . S
Zn343 O352 1.977 . S
O344 Zn343 2.032 . S
O344 C348 1.278 . S
C345 O346 1.203 . S
C345 O352 1.267 . S
O346 C345 1.203 . S
O347 C340 1.185 . S
O347 Zn343 2.086 . S
C348 O344 1.278 . S
C348 O349 1.211 . S
O349 C348 1.211 . S
C350 O342 1.284 . S
C350 O351 1.273 . S
O351 C350 1.273 . S
O352 Zn343 1.977 . S
O352 C345 1.267 . S
C353 O354 1.160 . S
C353 O360 1.185 . S
O354 C353 1.160 . S
O355 Zn356 1.899 . S
O355 C363 1.284 . S
Zn356 O355 1.899 . S
Zn356 O357 2.032 . S
Zn356 O360 2.086 . S
Zn356 O365 1.977 . S
O357 Zn356 2.032 . S
O357 C361 1.278 . S
C358 O359 1.203 . S
C358 O365 1.267 . S
O359 C358 1.203 . S
O360 C353 1.185 . S
O360 Zn356 2.086 . S
C361 O357 1.278 . S
C361 O362 1.211 . S
O362 C361 1.211 . S
C363 O355 1.284 . S
C363 O364 1.273 . S
O364 C363 1.273 . S
O365 Zn356 1.977 . S
O365 C358 1.267 . S
C366 C367 1.391 . S
C366 C368 1.394 . S
C366 H382 0.931 . S
C367 C366 1.391 . S
C367 C371 1.376 . S
C368 C366 1.394 . S
C368 C369 1.369 . S
C368 C372 1.531 . S
C369 C368 1.369 . S
C369 C370 1.410 . S
C369 C377 1.503 . S
C370 C369 1.410 . S
C370 C371 1.392 . S
C370 C373 1.511 . S
C371 C367 1.376 . S
C371 C370 1.392 . S
C371 H383 0.929 . S
C372 C368 1.531 . S
C372 H384 0.960 . S
C372 H385 0.962 . S
C372 H386 0.960 . S
C373 C370 1.511 . S
C373 H387 0.961 . S
C373 H388 0.961 . S
C373 H389 0.961 . S
C374 C375 1.370 . S
C374 C376 1.363 . S
C374 H390 0.931 . S
C375 C374 1.370 . S
C375 C379 1.408 . S
C376 C374 1.363 . S
C376 C377 1.370 . S
C376 C380 1.524 . S
C377 C369 1.503 . S
C377 C376 1.370 . S
C377 C378 1.403 . S
C378 C377 1.403 . S
C378 C379 1.404 . S
C378 C381 1.539 . S
C379 C375 1.408 . S
C379 C378 1.404 . S
C379 H391 0.930 . S
C380 C376 1.524 . S
C380 H392 0.956 . S
C380 H393 0.961 . S
C380 H394 0.961 . S
C381 C378 1.539 . S
C381 H395 0.958 . S
C381 H396 0.961 . S
C381 H397 0.960 . S
H382 C366 0.931 . S
H383 C371 0.929 . S
H384 C372 0.960 . S
H385 C372 0.962 . S
H386 C372 0.960 . S
H387 C373 0.961 . S
H388 C373 0.961 . S
H389 C373 0.961 . S
H390 C374 0.931 . S
H391 C379 0.930 . S
H392 C380 0.956 . S
H393 C380 0.961 . S
H394 C380 0.961 . S
H395 C381 0.958 . S
H396 C381 0.961 . S
H397 C381 0.960 . S
C398 C399 1.391 . S
C398 C400 1.394 . S
C398 H414 0.931 . S
C399 C398 1.391 . S
C399 C403 1.376 . S
C400 C398 1.394 . S
C400 C401 1.369 . S
C400 C404 1.531 . S
C401 C400 1.369 . S
C401 C402 1.410 . S
C401 C409 1.503 . S
C402 C401 1.410 . S
C402 C403 1.392 . S
C402 C405 1.511 . S
C403 C399 1.376 . S
C403 C402 1.392 . S
C403 H415 0.929 . S
C404 C400 1.531 . S
C404 H416 0.960 . S
C404 H417 0.962 . S
C404 H418 0.960 . S
C405 C402 1.511 . S
C405 H419 0.961 . S
C405 H420 0.961 . S
C405 H421 0.961 . S
C406 C407 1.370 . S
C406 C408 1.363 . S
C406 H422 0.931 . S
C407 C406 1.370 . S
C407 C411 1.408 . S
C408 C406 1.363 . S
C408 C409 1.370 . S
C408 C412 1.524 . S
C409 C401 1.503 . S
C409 C408 1.370 . S
C409 C410 1.403 . S
C410 C409 1.403 . S
C410 C411 1.404 . S
C410 C413 1.539 . S
C411 C407 1.408 . S
C411 C410 1.404 . S
C411 H423 0.930 . S
C412 C408 1.524 . S
C412 H424 0.956 . S
C412 H425 0.961 . S
C412 H426 0.961 . S
C413 C410 1.539 . S
C413 H427 0.958 . S
C413 H428 0.961 . S
C413 H429 0.960 . S
H414 C398 0.931 . S
H415 C403 0.929 . S
H416 C404 0.960 . S
H417 C404 0.962 . S
H418 C404 0.960 . S
H419 C405 0.961 . S
H420 C405 0.961 . S
H421 C405 0.961 . S
H422 C406 0.931 . S
H423 C411 0.930 . S
H424 C412 0.956 . S
H425 C412 0.961 . S
H426 C412 0.961 . S
H427 C413 0.958 . S
H428 C413 0.961 . S
H429 C413 0.960 . S
C430 C431 1.391 . S
C430 C432 1.394 . S
C430 H446 0.931 . S
C431 C430 1.391 . S
C431 C435 1.376 . S
C432 C430 1.394 . S
C432 C433 1.369 . S
C432 C436 1.531 . S
C433 C432 1.369 . S
C433 C434 1.410 . S
C433 C441 1.503 . S
C434 C433 1.410 . S
C434 C435 1.392 . S
C434 C437 1.511 . S
C435 C431 1.376 . S
C435 C434 1.392 . S
C435 H447 0.929 . S
C436 C432 1.531 . S
C436 H448 0.960 . S
C436 H449 0.962 . S
C436 H450 0.960 . S
C437 C434 1.511 . S
C437 H451 0.961 . S
C437 H452 0.961 . S
C437 H453 0.961 . S
C438 C439 1.370 . S
C438 C440 1.363 . S
C438 H454 0.931 . S
C439 C438 1.370 . S
C439 C443 1.408 . S
C440 C438 1.363 . S
C440 C441 1.370 . S
C440 C444 1.524 . S
C441 C433 1.503 . S
C441 C440 1.370 . S
C441 C442 1.403 . S
C442 C441 1.403 . S
C442 C443 1.404 . S
C442 C445 1.539 . S
C443 C439 1.408 . S
C443 C442 1.404 . S
C443 H455 0.930 . S
C444 C440 1.524 . S
C444 H456 0.956 . S
C444 H457 0.961 . S
C444 H458 0.961 . S
C445 C442 1.539 . S
C445 H459 0.958 . S
C445 H460 0.961 . S
C445 H461 0.960 . S
H446 C430 0.931 . S
H447 C435 0.929 . S
H448 C436 0.960 . S
H449 C436 0.962 . S
H450 C436 0.960 . S
H451 C437 0.961 . S
H452 C437 0.961 . S
H453 C437 0.961 . S
H454 C438 0.931 . S
H455 C443 0.930 . S
H456 C444 0.956 . S
H457 C444 0.961 . S
H458 C444 0.961 . S
H459 C445 0.958 . S
H460 C445 0.961 . S
H461 C445 0.960 . S
C462 C463 1.391 . S
C462 C464 1.394 . S
C462 H478 0.931 . S
C463 C462 1.391 . S
C463 C467 1.376 . S
C464 C462 1.394 . S
C464 C465 1.369 . S
C464 C468 1.531 . S
C465 C464 1.369 . S
C465 C466 1.410 . S
C465 C473 1.503 . S
C466 C465 1.410 . S
C466 C467 1.392 . S
C466 C469 1.511 . S
C467 C463 1.376 . S
C467 C466 1.392 . S
C467 H479 0.929 . S
C468 C464 1.531 . S
C468 H480 0.960 . S
C468 H481 0.962 . S
C468 H482 0.960 . S
C469 C466 1.511 . S
C469 H483 0.961 . S
C469 H484 0.961 . S
C469 H485 0.961 . S
C470 C471 1.370 . S
C470 C472 1.363 . S
C470 H486 0.931 . S
C471 C470 1.370 . S
C471 C475 1.408 . S
C472 C470 1.363 . S
C472 C473 1.370 . S
C472 C476 1.524 . S
C473 C465 1.503 . S
C473 C472 1.370 . S
C473 C474 1.403 . S
C474 C473 1.403 . S
C474 C475 1.404 . S
C474 C477 1.539 . S
C475 C471 1.408 . S
C475 C474 1.404 . S
C475 H487 0.930 . S
C476 C472 1.524 . S
C476 H488 0.956 . S
C476 H489 0.961 . S
C476 H490 0.961 . S
C477 C474 1.539 . S
C477 H491 0.958 . S
C477 H492 0.961 . S
C477 H493 0.960 . S
H478 C462 0.931 . S
H479 C467 0.929 . S
H480 C468 0.960 . S
H481 C468 0.962 . S
H482 C468 0.960 . S
H483 C469 0.961 . S
H484 C469 0.961 . S
H485 C469 0.961 . S
H486 C470 0.931 . S
H487 C475 0.930 . S
H488 C476 0.956 . S
H489 C476 0.961 . S
H490 C476 0.961 . S
H491 C477 0.958 . S
H492 C477 0.961 . S
H493 C477 0.960 . S
C494 C495 1.391 . S
C494 C496 1.394 . S
C494 H510 0.931 . S
C495 C494 1.391 . S
C495 C499 1.376 . S
C496 C494 1.394 . S
C496 C497 1.369 . S
C496 C500 1.531 . S
C497 C496 1.369 . S
C497 C498 1.410 . S
C497 C505 1.503 . S
C498 C497 1.410 . S
C498 C499 1.392 . S
C498 C501 1.511 . S
C499 C495 1.376 . S
C499 C498 1.392 . S
C499 H511 0.929 . S
C500 C496 1.531 . S
C500 H512 0.960 . S
C500 H513 0.962 . S
C500 H514 0.960 . S
C501 C498 1.511 . S
C501 H515 0.961 . S
C501 H516 0.961 . S
C501 H517 0.961 . S
C502 C503 1.370 . S
C502 C504 1.363 . S
C502 H518 0.931 . S
C503 C502 1.370 . S
C503 C507 1.408 . S
C504 C502 1.363 . S
C504 C505 1.370 . S
C504 C508 1.524 . S
C505 C497 1.503 . S
C505 C504 1.370 . S
C505 C506 1.403 . S
C506 C505 1.403 . S
C506 C507 1.404 . S
C506 C509 1.539 . S
C507 C503 1.408 . S
C507 C506 1.404 . S
C507 H519 0.930 . S
C508 C504 1.524 . S
C508 H520 0.956 . S
C508 H521 0.961 . S
C508 H522 0.961 . S
C509 C506 1.539 . S
C509 H523 0.958 . S
C509 H524 0.961 . S
C509 H525 0.960 . S
H510 C494 0.931 . S
H511 C499 0.929 . S
H512 C500 0.960 . S
H513 C500 0.962 . S
H514 C500 0.960 . S
H515 C501 0.961 . S
H516 C501 0.961 . S
H517 C501 0.961 . S
H518 C502 0.931 . S
H519 C507 0.930 . S
H520 C508 0.956 . S
H521 C508 0.961 . S
H522 C508 0.961 . S
H523 C509 0.958 . S
H524 C509 0.961 . S
H525 C509 0.960 . S
C526 C527 1.391 . S
C526 C528 1.394 . S
C526 H542 0.931 . S
C527 C526 1.391 . S
C527 C531 1.376 . S
C528 C526 1.394 . S
C528 C529 1.369 . S
C528 C532 1.531 . S
C529 C528 1.369 . S
C529 C530 1.410 . S
C529 C537 1.503 . S
C530 C529 1.410 . S
C530 C531 1.392 . S
C530 C533 1.511 . S
C531 C527 1.376 . S
C531 C530 1.392 . S
C531 H543 0.929 . S
C532 C528 1.531 . S
C532 H544 0.960 . S
C532 H545 0.962 . S
C532 H546 0.960 . S
C533 C530 1.511 . S
C533 H547 0.961 . S
C533 H548 0.961 . S
C533 H549 0.961 . S
C534 C535 1.370 . S
C534 C536 1.363 . S
C534 H550 0.931 . S
C535 C534 1.370 . S
C535 C539 1.408 . S
C536 C534 1.363 . S
C536 C537 1.370 . S
C536 C540 1.524 . S
C537 C529 1.503 . S
C537 C536 1.370 . S
C537 C538 1.403 . S
C538 C537 1.403 . S
C538 C539 1.404 . S
C538 C541 1.539 . S
C539 C535 1.408 . S
C539 C538 1.404 . S
C539 H551 0.930 . S
C540 C536 1.524 . S
C540 H552 0.956 . S
C540 H553 0.961 . S
C540 H554 0.961 . S
C541 C538 1.539 . S
C541 H555 0.958 . S
C541 H556 0.961 . S
C541 H557 0.960 . S
H542 C526 0.931 . S
H543 C531 0.929 . S
H544 C532 0.960 . S
H545 C532 0.962 . S
H546 C532 0.960 . S
H547 C533 0.961 . S
H548 C533 0.961 . S
H549 C533 0.961 . S
H550 C534 0.931 . S
H551 C539 0.930 . S
H552 C540 0.956 . S
H553 C540 0.961 . S
H554 C540 0.961 . S
H555 C541 0.958 . S
H556 C541 0.961 . S
H557 C541 0.960 . S
C558 C559 1.391 . S
C558 C560 1.394 . S
C558 H574 0.931 . S
C559 C558 1.391 . S
C559 C563 1.376 . S
C560 C558 1.394 . S
C560 C561 1.369 . S
C560 C564 1.531 . S
C561 C560 1.369 . S
C561 C562 1.410 . S
C561 C569 1.503 . S
C562 C561 1.410 . S
C562 C563 1.392 . S
C562 C565 1.511 . S
C563 C559 1.376 . S
C563 C562 1.392 . S
C563 H575 0.929 . S
C564 C560 1.531 . S
C564 H576 0.960 . S
C564 H577 0.962 . S
C564 H578 0.960 . S
C565 C562 1.511 . S
C565 H579 0.961 . S
C565 H580 0.961 . S
C565 H581 0.961 . S
C566 C567 1.370 . S
C566 C568 1.363 . S
C566 H582 0.931 . S
C567 C566 1.370 . S
C567 C571 1.408 . S
C568 C566 1.363 . S
C568 C569 1.370 . S
C568 C572 1.524 . S
C569 C561 1.503 . S
C569 C568 1.370 . S
C569 C570 1.403 . S
C570 C569 1.403 . S
C570 C571 1.404 . S
C570 C573 1.539 . S
C571 C567 1.408 . S
C571 C570 1.404 . S
C571 H583 0.930 . S
C572 C568 1.524 . S
C572 H584 0.956 . S
C572 H585 0.961 . S
C572 H586 0.961 . S
C573 C570 1.539 . S
C573 H587 0.958 . S
C573 H588 0.961 . S
C573 H589 0.960 . S
H574 C558 0.931 . S
H575 C563 0.929 . S
H576 C564 0.960 . S
H577 C564 0.962 . S
H578 C564 0.960 . S
H579 C565 0.961 . S
H580 C565 0.961 . S
H581 C565 0.961 . S
H582 C566 0.931 . S
H583 C571 0.930 . S
H584 C572 0.956 . S
H585 C572 0.961 . S
H586 C572 0.961 . S
H587 C573 0.958 . S
H588 C573 0.961 . S
H589 C573 0.960 . S
C590 C591 1.391 . S
C590 C592 1.394 . S
C590 H606 0.931 . S
C591 C590 1.391 . S
C591 C595 1.376 . S
C592 C590 1.394 . S
C592 C593 1.369 . S
C592 C596 1.531 . S
C593 C592 1.369 . S
C593 C594 1.410 . S
C593 C601 1.503 . S
C594 C593 1.410 . S
C594 C595 1.392 . S
C594 C597 1.511 . S
C595 C591 1.376 . S
C595 C594 1.392 . S
C595 H607 0.929 . S
C596 C592 1.531 . S
C596 H608 0.960 . S
C596 H609 0.962 . S
C596 H610 0.960 . S
C597 C594 1.511 . S
C597 H611 0.961 . S
C597 H612 0.961 . S
C597 H613 0.961 . S
C598 C599 1.370 . S
C598 C600 1.363 . S
C598 H614 0.931 . S
C599 C598 1.370 . S
C599 C603 1.408 . S
C600 C598 1.363 . S
C600 C601 1.370 . S
C600 C604 1.524 . S
C601 C593 1.503 . S
C601 C600 1.370 . S
C601 C602 1.403 . S
C602 C601 1.403 . S
C602 C603 1.404 . S
C602 C605 1.539 . S
C603 C599 1.408 . S
C603 C602 1.404 . S
C603 H615 0.930 . S
C604 C600 1.524 . S
C604 H616 0.956 . S
C604 H617 0.961 . S
C604 H618 0.961 . S
C605 C602 1.539 . S
C605 H619 0.958 . S
C605 H620 0.961 . S
C605 H621 0.960 . S
H606 C590 0.931 . S
H607 C595 0.929 . S
H608 C596 0.960 . S
H609 C596 0.962 . S
H610 C596 0.960 . S
H611 C597 0.961 . S
H612 C597 0.961 . S
H613 C597 0.961 . S
H614 C598 0.931 . S
H615 C603 0.930 . S
H616 C604 0.956 . S
H617 C604 0.961 . S
H618 C604 0.961 . S
H619 C605 0.958 . S
H620 C605 0.961 . S
H621 C605 0.960 . S
C622 C623 1.391 . S
C622 C624 1.394 . S
C622 H638 0.931 . S
C623 C622 1.391 . S
C623 C627 1.376 . S
C624 C622 1.394 . S
C624 C625 1.369 . S
C624 C628 1.531 . S
C625 C624 1.369 . S
C625 C626 1.410 . S
C625 C633 1.503 . S
C626 C625 1.410 . S
C626 C627 1.392 . S
C626 C629 1.511 . S
C627 C623 1.376 . S
C627 C626 1.392 . S
C627 H639 0.929 . S
C628 C624 1.531 . S
C628 H640 0.960 . S
C628 H641 0.962 . S
C628 H642 0.960 . S
C629 C626 1.511 . S
C629 H643 0.961 . S
C629 H644 0.961 . S
C629 H645 0.961 . S
C630 C631 1.370 . S
C630 C632 1.363 . S
C630 H646 0.931 . S
C631 C630 1.370 . S
C631 C635 1.408 . S
C632 C630 1.363 . S
C632 C633 1.370 . S
C632 C636 1.524 . S
C633 C625 1.503 . S
C633 C632 1.370 . S
C633 C634 1.403 . S
C634 C633 1.403 . S
C634 C635 1.404 . S
C634 C637 1.539 . S
C635 C631 1.408 . S
C635 C634 1.404 . S
C635 H647 0.930 . S
C636 C632 1.524 . S
C636 H648 0.956 . S
C636 H649 0.961 . S
C636 H650 0.961 . S
C637 C634 1.539 . S
C637 H651 0.958 . S
C637 H652 0.961 . S
C637 H653 0.960 . S
H638 C622 0.931 . S
H639 C627 0.929 . S
H640 C628 0.960 . S
H641 C628 0.962 . S
H642 C628 0.960 . S
H643 C629 0.961 . S
H644 C629 0.961 . S
H645 C629 0.961 . S
H646 C630 0.931 . S
H647 C635 0.930 . S
H648 C636 0.956 . S
H649 C636 0.961 . S
H650 C636 0.961 . S
H651 C637 0.958 . S
H652 C637 0.961 . S
H653 C637 0.960 . S
C654 C655 1.391 . S
C654 C656 1.394 . S
C654 H670 0.929 1_554 S
C655 C654 1.391 . S
C655 C659 1.376 . S
C656 C654 1.394 . S
C656 C657 1.369 . S
C656 C660 1.531 . S
C657 C656 1.369 . S
C657 C658 1.410 . S
C657 C665 1.503 . S
C658 C657 1.410 . S
C658 C659 1.392 . S
C658 C661 1.511 . S
C659 C655 1.376 . S
C659 C658 1.392 . S
C659 H671 0.929 . S
C660 C656 1.531 . S
C660 H672 0.960 . S
C660 H673 0.962 1_554 S
C660 H674 0.960 1_554 S
C661 C658 1.511 . S
C661 H675 0.961 . S
C661 H676 0.961 . S
C661 H677 0.961 . S
C662 C663 1.370 . S
C662 C664 1.363 . S
C662 H678 0.931 . S
C663 C662 1.370 . S
C663 C667 1.408 . S
C664 C662 1.363 . S
C664 C665 1.370 . S
C664 C668 1.524 . S
C665 C657 1.503 . S
C665 C664 1.370 . S
C665 C666 1.403 . S
C666 C665 1.403 . S
C666 C667 1.404 . S
C666 C669 1.539 . S
C667 C663 1.408 . S
C667 C666 1.404 . S
C667 H679 0.930 . S
C668 C664 1.524 . S
C668 H680 0.956 . S
C668 H681 0.961 . S
C668 H682 0.961 . S
C669 C666 1.539 . S
C669 H683 0.958 . S
C669 H684 0.961 . S
C669 H685 0.960 . S
H670 C654 0.929 1_556 S
H671 C659 0.929 . S
H672 C660 0.960 . S
H673 C660 0.962 1_556 S
H674 C660 0.960 1_556 S
H675 C661 0.961 . S
H676 C661 0.961 . S
H677 C661 0.961 . S
H678 C662 0.931 . S
H679 C667 0.930 . S
H680 C668 0.956 . S
H681 C668 0.961 . S
H682 C668 0.961 . S
H683 C669 0.958 . S
H684 C669 0.961 . S
H685 C669 0.960 . S
C686 C687 1.391 . S
C686 C688 1.394 . S
C686 H702 0.931 . S
C687 C686 1.391 . S
C687 C691 1.376 . S
C688 C686 1.394 . S
C688 C689 1.369 . S
C688 C692 1.531 . S
C689 C688 1.369 . S
C689 C690 1.410 . S
C689 C697 1.503 . S
C690 C689 1.410 . S
C690 C691 1.392 . S
C690 C693 1.511 . S
C691 C687 1.376 . S
C691 C690 1.392 . S
C691 H703 0.929 . S
C692 C688 1.531 . S
C692 H704 0.960 . S
C692 H705 0.962 . S
C692 H706 0.960 . S
C693 C690 1.511 . S
C693 H707 0.961 . S
C693 H708 0.961 . S
C693 H709 0.961 . S
C694 C695 1.370 . S
C694 C696 1.363 . S
C694 H710 0.931 . S
C695 C694 1.370 . S
C695 C699 1.408 . S
C696 C694 1.363 . S
C696 C697 1.370 . S
C696 C700 1.524 . S
C697 C689 1.503 . S
C697 C696 1.370 . S
C697 C698 1.403 . S
C698 C697 1.403 . S
C698 C699 1.404 . S
C698 C701 1.539 . S
C699 C695 1.408 . S
C699 C698 1.404 . S
C699 H711 0.930 . S
C700 C696 1.524 . S
C700 H712 0.956 . S
C700 H713 0.961 . S
C700 H714 0.961 . S
C701 C698 1.539 . S
C701 H715 0.958 . S
C701 H716 0.961 . S
C701 H717 0.960 . S
H702 C686 0.931 . S
H703 C691 0.929 . S
H704 C692 0.960 . S
H705 C692 0.962 . S
H706 C692 0.960 . S
H707 C693 0.961 . S
H708 C693 0.961 . S
H709 C693 0.961 . S
H710 C694 0.931 . S
H711 C699 0.930 . S
H712 C700 0.956 . S
H713 C700 0.961 . S
H714 C700 0.961 . S
H715 C701 0.958 . S
H716 C701 0.961 . S
H717 C701 0.960 . S
C718 C719 1.391 . S
C718 C720 1.394 . S
C718 H734 0.931 . S
C719 C718 1.391 . S
C719 C723 1.376 . S
C720 C718 1.394 . S
C720 C721 1.369 . S
C720 C724 1.531 . S
C721 C720 1.369 . S
C721 C722 1.410 . S
C721 C729 1.503 . S
C722 C721 1.410 . S
C722 C723 1.392 . S
C722 C725 1.511 . S
C723 C719 1.376 . S
C723 C722 1.392 . S
C723 H735 0.929 . S
C724 C720 1.531 . S
C724 H736 0.960 . S
C724 H737 0.962 . S
C724 H738 0.960 . S
C725 C722 1.511 . S
C725 H739 0.961 . S
C725 H740 0.961 . S
C725 H741 0.961 . S
C726 C727 1.370 . S
C726 C728 1.363 . S
C726 H742 0.931 . S
C727 C726 1.370 . S
C727 C731 1.408 . S
C728 C726 1.363 . S
C728 C729 1.370 . S
C728 C732 1.524 . S
C729 C721 1.503 . S
C729 C728 1.370 . S
C729 C730 1.403 . S
C730 C729 1.403 . S
C730 C731 1.404 . S
C730 C733 1.539 . S
C731 C727 1.408 . S
C731 C730 1.404 . S
C731 H743 0.930 . S
C732 C728 1.524 . S
C732 H744 0.956 . S
C732 H745 0.961 . S
C732 H746 0.961 . S
C733 C730 1.539 . S
C733 H747 0.958 . S
C733 H748 0.961 . S
C733 H749 0.960 . S
H734 C718 0.931 . S
H735 C723 0.929 . S
H736 C724 0.960 . S
H737 C724 0.962 . S
H738 C724 0.960 . S
H739 C725 0.961 . S
H740 C725 0.961 . S
H741 C725 0.961 . S
H742 C726 0.931 . S
H743 C731 0.930 . S
H744 C732 0.956 . S
H745 C732 0.961 . S
H746 C732 0.961 . S
H747 C733 0.958 . S
H748 C733 0.961 . S
H749 C733 0.960 . S
C750 C751 1.391 . S
C750 C752 1.394 . S
C750 H766 0.931 . S
C751 C750 1.391 . S
C751 C755 1.376 . S
C752 C750 1.394 . S
C752 C753 1.369 . S
C752 C756 1.531 . S
C753 C752 1.369 . S
C753 C754 1.410 . S
C753 C761 1.503 . S
C754 C753 1.410 . S
C754 C755 1.392 . S
C754 C757 1.511 . S
C755 C751 1.376 . S
C755 C754 1.392 . S
C755 H767 0.929 . S
C756 C752 1.531 . S
C756 H768 0.960 . S
C756 H769 0.962 . S
C756 H770 0.960 . S
C757 C754 1.511 . S
C757 H771 0.961 . S
C757 H772 0.961 . S
C757 H773 0.961 . S
C758 C759 1.370 . S
C758 C760 1.363 . S
C758 H774 0.931 . S
C759 C758 1.370 . S
C759 C763 1.408 . S
C760 C758 1.363 . S
C760 C761 1.370 . S
C760 C764 1.524 . S
C761 C753 1.503 . S
C761 C760 1.370 . S
C761 C762 1.403 . S
C762 C761 1.403 . S
C762 C763 1.404 . S
C762 C765 1.539 . S
C763 C759 1.408 . S
C763 C762 1.404 . S
C763 H775 0.930 . S
C764 C760 1.524 . S
C764 H776 0.956 . S
C764 H777 0.961 . S
C764 H778 0.961 . S
C765 C762 1.539 . S
C765 H779 0.958 . S
C765 H780 0.961 . S
C765 H781 0.960 . S
H766 C750 0.931 . S
H767 C755 0.929 . S
H768 C756 0.960 . S
H769 C756 0.962 . S
H770 C756 0.960 . S
H771 C757 0.961 . S
H772 C757 0.961 . S
H773 C757 0.961 . S
H774 C758 0.931 . S
H775 C763 0.930 . S
H776 C764 0.956 . S
H777 C764 0.961 . S
H778 C764 0.961 . S
H779 C765 0.958 . S
H780 C765 0.961 . S
H781 C765 0.960 . S
C782 C783 1.391 . S
C782 C784 1.394 . S
C782 H798 0.931 . S
C783 C782 1.391 . S
C783 C787 1.376 . S
C784 C782 1.394 . S
C784 C785 1.369 . S
C784 C788 1.531 . S
C785 C784 1.369 . S
C785 C786 1.410 . S
C785 C793 1.503 . S
C786 C785 1.410 . S
C786 C787 1.392 . S
C786 C789 1.511 . S
C787 C783 1.376 . S
C787 C786 1.392 . S
C787 H799 0.929 . S
C788 C784 1.531 . S
C788 H800 0.960 . S
C788 H801 0.962 . S
C788 H802 0.960 . S
C789 C786 1.511 . S
C789 H803 0.961 . S
C789 H804 0.961 . S
C789 H805 0.961 . S
C790 C791 1.370 . S
C790 C792 1.363 . S
C790 H806 0.931 . S
C791 C790 1.370 . S
C791 C795 1.408 . S
C792 C790 1.363 . S
C792 C793 1.370 . S
C792 C796 1.524 . S
C793 C785 1.503 . S
C793 C792 1.370 . S
C793 C794 1.403 . S
C794 C793 1.403 . S
C794 C795 1.404 . S
C794 C797 1.539 . S
C795 C791 1.408 . S
C795 C794 1.404 . S
C795 H807 0.930 . S
C796 C792 1.524 . S
C796 H808 0.956 . S
C796 H809 0.961 . S
C796 H810 0.961 . S
C797 C794 1.539 . S
C797 H811 0.958 . S
C797 H812 0.961 . S
C797 H813 0.960 . S
H798 C782 0.931 . S
H799 C787 0.929 . S
H800 C788 0.960 . S
H801 C788 0.962 . S
H802 C788 0.960 . S
H803 C789 0.961 . S
H804 C789 0.961 . S
H805 C789 0.961 . S
H806 C790 0.931 . S
H807 C795 0.930 . S
H808 C796 0.956 . S
H809 C796 0.961 . S
H810 C796 0.961 . S
H811 C797 0.958 . S
H812 C797 0.961 . S
H813 C797 0.960 . S
C814 C815 1.391 . S
C814 C816 1.394 . S
C814 H830 0.931 . S
C815 C814 1.391 . S
C815 C819 1.376 . S
C816 C814 1.394 . S
C816 C817 1.369 . S
C816 C820 1.531 . S
C817 C816 1.369 . S
C817 C818 1.410 . S
C817 C825 1.503 . S
C818 C817 1.410 . S
C818 C819 1.392 . S
C818 C821 1.511 . S
C819 C815 1.376 . S
C819 C818 1.392 . S
C819 H831 0.929 . S
C820 C816 1.531 . S
C820 H832 0.960 . S
C820 H833 0.962 . S
C820 H834 0.960 . S
C821 C818 1.511 . S
C821 H835 0.961 . S
C821 H836 0.961 . S
C821 H837 0.961 . S
C822 C823 1.370 . S
C822 C824 1.363 . S
C822 H838 0.931 . S
C823 C822 1.370 . S
C823 C827 1.408 . S
C824 C822 1.363 . S
C824 C825 1.370 . S
C824 C828 1.524 . S
C825 C817 1.503 . S
C825 C824 1.370 . S
C825 C826 1.403 . S
C826 C825 1.403 . S
C826 C827 1.404 . S
C826 C829 1.539 . S
C827 C823 1.408 . S
C827 C826 1.404 . S
C827 H839 0.930 . S
C828 C824 1.524 . S
C828 H840 0.956 . S
C828 H841 0.961 . S
C828 H842 0.961 . S
C829 C826 1.539 . S
C829 H843 0.958 . S
C829 H844 0.961 . S
C829 H845 0.960 . S
H830 C814 0.931 . S
H831 C819 0.929 . S
H832 C820 0.960 . S
H833 C820 0.962 . S
H834 C820 0.960 . S
H835 C821 0.961 . S
H836 C821 0.961 . S
H837 C821 0.961 . S
H838 C822 0.931 . S
H839 C827 0.930 . S
H840 C828 0.956 . S
H841 C828 0.961 . S
H842 C828 0.961 . S
H843 C829 0.958 . S
H844 C829 0.961 . S
H845 C829 0.960 . S
C846 C847 1.391 . S
C846 C848 1.394 . S
C846 H862 0.931 . S
C847 C846 1.391 . S
C847 C851 1.376 . S
C848 C846 1.394 . S
C848 C849 1.369 . S
C848 C852 1.531 . S
C849 C848 1.369 . S
C849 C850 1.410 . S
C849 C857 1.503 . S
C850 C849 1.410 . S
C850 C851 1.392 . S
C850 C853 1.511 . S
C851 C847 1.376 . S
C851 C850 1.392 . S
C851 H863 0.929 . S
C852 C848 1.531 . S
C852 H864 0.960 . S
C852 H865 0.962 . S
C852 H866 0.960 . S
C853 C850 1.511 . S
C853 H867 0.961 . S
C853 H868 0.961 . S
C853 H869 0.961 . S
C854 C855 1.370 . S
C854 C856 1.363 1_554 S
C854 H870 0.931 . S
C855 C854 1.370 . S
C855 C859 1.388 1_554 S
C856 C854 1.363 1_556 S
C856 C857 1.370 . S
C856 C860 1.524 . S
C857 C849 1.503 . S
C857 C856 1.370 . S
C857 C858 1.403 . S
C858 C857 1.403 . S
C858 C859 1.437 . S
C858 C861 1.539 . S
C859 C855 1.388 1_556 S
C859 C858 1.437 . S
C859 H871 0.919 1_556 S
C860 C856 1.524 . S
C860 H872 0.956 . S
C860 H873 0.961 . S
C860 H874 0.961 . S
C861 C858 1.539 . S
C861 H875 0.958 . S
C861 H876 0.961 . S
C861 H877 0.960 . S
H862 C846 0.931 . S
H863 C851 0.929 . S
H864 C852 0.960 . S
H865 C852 0.962 . S
H866 C852 0.960 . S
H867 C853 0.961 . S
H868 C853 0.961 . S
H869 C853 0.961 . S
H870 C854 0.931 . S
H871 C859 0.919 1_554 S
H872 C860 0.956 . S
H873 C860 0.961 . S
H874 C860 0.961 . S
H875 C861 0.958 . S
H876 C861 0.961 . S
H877 C861 0.960 . S
C878 C879 1.391 . S
C878 C880 1.394 . S
C878 H894 0.931 . S
C879 C878 1.391 . S
C879 C883 1.376 . S
C880 C878 1.394 . S
C880 C881 1.369 . S
C880 C884 1.531 . S
C881 C880 1.369 . S
C881 C882 1.410 . S
C881 C889 1.503 . S
C882 C881 1.410 . S
C882 C883 1.392 . S
C882 C885 1.511 . S
C883 C879 1.376 . S
C883 C882 1.392 . S
C883 H895 0.929 . S
C884 C880 1.531 . S
C884 H896 0.960 . S
C884 H897 0.962 . S
C884 H898 0.960 . S
C885 C882 1.511 . S
C885 H899 0.961 . S
C885 H900 0.961 . S
C885 H901 0.961 . S
C886 C887 1.370 . S
C886 C888 1.363 . S
C886 H902 0.931 . S
C887 C886 1.370 . S
C887 C891 1.408 . S
C888 C886 1.363 . S
C888 C889 1.370 . S
C888 C892 1.524 . S
C889 C881 1.503 . S
C889 C888 1.370 . S
C889 C890 1.403 . S
C890 C889 1.403 . S
C890 C891 1.404 . S
C890 C893 1.539 . S
C891 C887 1.408 . S
C891 C890 1.404 . S
C891 H903 0.930 . S
C892 C888 1.524 . S
C892 H904 0.956 . S
C892 H905 0.961 . S
C892 H906 0.961 . S
C893 C890 1.539 . S
C893 H907 0.958 . S
C893 H908 0.961 . S
C893 H909 0.960 . S
H894 C878 0.931 . S
H895 C883 0.929 . S
H896 C884 0.960 . S
H897 C884 0.962 . S
H898 C884 0.960 . S
H899 C885 0.961 . S
H900 C885 0.961 . S
H901 C885 0.961 . S
H902 C886 0.931 . S
H903 C891 0.930 . S
H904 C892 0.956 . S
H905 C892 0.961 . S
H906 C892 0.961 . S
H907 C893 0.958 . S
H908 C893 0.961 . S
H909 C893 0.960 . S
C910 C911 1.391 . S
C910 C912 1.394 . S
C910 H926 0.931 . S
C911 C910 1.391 . S
C911 C915 1.376 . S
C912 C910 1.394 . S
C912 C913 1.369 . S
C912 C916 1.531 . S
C913 C912 1.369 . S
C913 C914 1.410 . S
C913 C921 1.503 . S
C914 C913 1.410 . S
C914 C915 1.392 . S
C914 C917 1.511 . S
C915 C911 1.376 . S
C915 C914 1.392 . S
C915 H927 0.929 . S
C916 C912 1.531 . S
C916 H928 0.960 . S
C916 H929 0.962 . S
C916 H930 0.960 . S
C917 C914 1.511 . S
C917 H931 0.961 . S
C917 H932 0.961 . S
C917 H933 0.961 . S
C918 C919 1.370 . S
C918 C920 1.363 . S
C918 H934 0.931 . S
C919 C918 1.370 . S
C919 C923 1.408 . S
C920 C918 1.363 . S
C920 C921 1.370 . S
C920 C924 1.524 . S
C921 C913 1.503 . S
C921 C920 1.370 . S
C921 C922 1.403 . S
C922 C921 1.403 . S
C922 C923 1.404 . S
C922 C925 1.539 . S
C923 C919 1.408 . S
C923 C922 1.404 . S
C923 H935 0.930 . S
C924 C920 1.524 . S
C924 H936 0.956 . S
C924 H937 0.961 . S
C924 H938 0.961 . S
C925 C922 1.539 . S
C925 H939 0.958 . S
C925 H940 0.961 . S
C925 H941 0.960 . S
H926 C910 0.931 . S
H927 C915 0.929 . S
H928 C916 0.960 . S
H929 C916 0.962 . S
H930 C916 0.960 . S
H931 C917 0.961 . S
H932 C917 0.961 . S
H933 C917 0.961 . S
H934 C918 0.931 . S
H935 C923 0.930 . S
H936 C924 0.956 . S
H937 C924 0.961 . S
H938 C924 0.961 . S
H939 C925 0.958 . S
H940 C925 0.961 . S
H941 C925 0.960 . S
C942 C943 1.391 . S
C942 C944 1.394 . S
C942 H958 0.931 . S
C943 C942 1.391 . S
C943 C947 1.376 . S
C944 C942 1.394 . S
C944 C945 1.369 . S
C944 C948 1.531 . S
C945 C944 1.369 . S
C945 C946 1.410 . S
C945 C953 1.503 . S
C946 C945 1.410 . S
C946 C947 1.392 . S
C946 C949 1.511 . S
C947 C943 1.376 . S
C947 C946 1.392 . S
C947 H959 0.929 . S
C948 C944 1.531 . S
C948 H960 0.960 . S
C948 H961 0.962 . S
C948 H962 0.960 . S
C949 C946 1.511 . S
C949 H963 0.961 . S
C949 H964 0.961 . S
C949 H965 0.961 . S
C950 C951 1.370 . S
C950 C952 1.363 . S
C950 H966 0.931 . S
C951 C950 1.370 . S
C951 C955 1.408 . S
C952 C950 1.363 . S
C952 C953 1.370 . S
C952 C956 1.524 . S
C953 C945 1.503 . S
C953 C952 1.370 . S
C953 C954 1.403 . S
C954 C953 1.403 . S
C954 C955 1.404 . S
C954 C957 1.539 . S
C955 C951 1.408 . S
C955 C954 1.404 . S
C955 H967 0.930 . S
C956 C952 1.524 . S
C956 H968 0.956 . S
C956 H969 0.961 . S
C956 H970 0.961 . S
C957 C954 1.539 . S
C957 H971 0.958 . S
C957 H972 0.961 . S
C957 H973 0.960 . S
H958 C942 0.931 . S
H959 C947 0.929 . S
H960 C948 0.960 . S
H961 C948 0.962 . S
H962 C948 0.960 . S
H963 C949 0.961 . S
H964 C949 0.961 . S
H965 C949 0.961 . S
H966 C950 0.931 . S
H967 C955 0.930 . S
H968 C956 0.956 . S
H969 C956 0.961 . S
H970 C956 0.961 . S
H971 C957 0.958 . S
H972 C957 0.961 . S
H973 C957 0.960 . S
C974 C975 1.391 . S
C974 C976 1.394 . S
C974 H990 0.931 . S
C975 C974 1.391 . S
C975 C979 1.376 . S
C976 C974 1.394 . S
C976 C977 1.369 . S
C976 C980 1.531 . S
C977 C976 1.369 . S
C977 C978 1.410 . S
C977 C985 1.503 . S
C978 C977 1.410 . S
C978 C979 1.392 . S
C978 C981 1.511 . S
C979 C975 1.376 . S
C979 C978 1.392 . S
C979 H991 0.929 . S
C980 C976 1.531 . S
C980 H992 0.960 . S
C980 H993 0.962 . S
C980 H994 0.960 . S
C981 C978 1.511 . S
C981 H995 0.961 . S
C981 H996 0.961 . S
C981 H997 0.961 . S
C982 C983 1.370 . S
C982 C984 1.363 . S
C982 H998 0.931 . S
C983 C982 1.370 . S
C983 C987 1.408 . S
C984 C982 1.363 . S
C984 C985 1.370 . S
C984 C988 1.524 . S
C985 C977 1.503 . S
C985 C984 1.370 . S
C985 C986 1.403 . S
C986 C985 1.403 . S
C986 C987 1.404 . S
C986 C989 1.539 . S
C987 C983 1.408 . S
C987 C986 1.404 . S
C987 H999 0.930 . S
C988 C984 1.524 . S
C988 H1000 0.956 . S
C988 H1001 0.961 . S
C988 H1002 0.961 . S
C989 C986 1.539 . S
C989 H1003 0.958 . S
C989 H1004 0.961 . S
C989 H1005 0.960 . S
H990 C974 0.931 . S
H991 C979 0.929 . S
H992 C980 0.960 . S
H993 C980 0.962 . S
H994 C980 0.960 . S
H995 C981 0.961 . S
H996 C981 0.961 . S
H997 C981 0.961 . S
H998 C982 0.931 . S
H999 C987 0.930 . S
H1000 C988 0.956 . S
H1001 C988 0.961 . S
H1002 C988 0.961 . S
H1003 C989 0.958 . S
H1004 C989 0.961 . S
H1005 C989 0.960 . S
C1006 C1007 1.391 . S
C1006 C1008 1.394 . S
C1006 H1022 0.931 . S
C1007 C1006 1.391 . S
C1007 C1011 1.376 . S
C1008 C1006 1.394 . S
C1008 C1009 1.369 . S
C1008 C1012 1.531 . S
C1009 C1008 1.369 . S
C1009 C1010 1.410 . S
C1009 C1017 1.503 . S
C1010 C1009 1.410 . S
C1010 C1011 1.392 . S
C1010 C1013 1.511 . S
C1011 C1007 1.376 . S
C1011 C1010 1.392 . S
C1011 H1023 0.929 . S
C1012 C1008 1.531 . S
C1012 H1024 0.960 . S
C1012 H1025 0.962 . S
C1012 H1026 0.960 . S
C1013 C1010 1.511 . S
C1013 H1027 0.961 . S
C1013 H1028 0.961 . S
C1013 H1029 0.961 . S
C1014 C1015 1.370 . S
C1014 C1016 1.363 . S
C1014 H1030 0.931 . S
C1015 C1014 1.370 . S
C1015 C1019 1.408 . S
C1016 C1014 1.363 . S
C1016 C1017 1.370 . S
C1016 C1020 1.524 . S
C1017 C1009 1.503 . S
C1017 C1016 1.370 . S
C1017 C1018 1.403 . S
C1018 C1017 1.403 . S
C1018 C1019 1.404 . S
C1018 C1021 1.539 . S
C1019 C1015 1.408 . S
C1019 C1018 1.404 . S
C1019 H1031 0.930 . S
C1020 C1016 1.524 . S
C1020 H1032 0.956 . S
C1020 H1033 0.961 . S
C1020 H1034 0.961 . S
C1021 C1018 1.539 . S
C1021 H1035 0.958 . S
C1021 H1036 0.961 . S
C1021 H1037 0.960 . S
H1022 C1006 0.931 . S
H1023 C1011 0.929 . S
H1024 C1012 0.960 . S
H1025 C1012 0.962 . S
H1026 C1012 0.960 . S
H1027 C1013 0.961 . S
H1028 C1013 0.961 . S
H1029 C1013 0.961 . S
H1030 C1014 0.931 . S
H1031 C1019 0.930 . S
H1032 C1020 0.956 . S
H1033 C1020 0.961 . S
H1034 C1020 0.961 . S
H1035 C1021 0.958 . S
H1036 C1021 0.961 . S
H1037 C1021 0.960 . S
C1038 C1039 1.391 . S
C1038 C1040 1.394 . S
C1038 H1054 0.931 . S
C1039 C1038 1.391 . S
C1039 C1043 1.376 . S
C1040 C1038 1.394 . S
C1040 C1041 1.369 . S
C1040 C1044 1.531 . S
C1041 C1040 1.369 . S
C1041 C1042 1.410 . S
C1041 C1049 1.503 . S
C1042 C1041 1.410 . S
C1042 C1043 1.392 . S
C1042 C1045 1.511 . S
C1043 C1039 1.376 . S
C1043 C1042 1.392 . S
C1043 H1055 0.929 . S
C1044 C1040 1.531 . S
C1044 H1056 0.960 . S
C1044 H1057 0.962 . S
C1044 H1058 0.960 . S
C1045 C1042 1.511 . S
C1045 H1059 0.961 . S
C1045 H1060 0.961 . S
C1045 H1061 0.961 . S
C1046 C1047 1.370 . S
C1046 C1048 1.363 . S
C1046 H1062 0.931 . S
C1047 C1046 1.370 . S
C1047 C1051 1.408 . S
C1048 C1046 1.363 . S
C1048 C1049 1.370 . S
C1048 C1052 1.524 . S
C1049 C1041 1.503 . S
C1049 C1048 1.370 . S
C1049 C1050 1.403 . S
C1050 C1049 1.403 . S
C1050 C1051 1.404 . S
C1050 C1053 1.539 . S
C1051 C1047 1.408 . S
C1051 C1050 1.404 . S
C1051 H1063 0.930 . S
C1052 C1048 1.524 . S
C1052 H1064 0.956 . S
C1052 H1065 0.961 . S
C1052 H1066 0.961 . S
C1053 C1050 1.539 . S
C1053 H1067 0.958 . S
C1053 H1068 0.961 . S
C1053 H1069 0.960 . S
H1054 C1038 0.931 . S
H1055 C1043 0.929 . S
H1056 C1044 0.960 . S
H1057 C1044 0.962 . S
H1058 C1044 0.960 . S
H1059 C1045 0.961 . S
H1060 C1045 0.961 . S
H1061 C1045 0.961 . S
H1062 C1046 0.931 . S
H1063 C1051 0.930 . S
H1064 C1052 0.956 . S
H1065 C1052 0.961 . S
H1066 C1052 0.961 . S
H1067 C1053 0.958 . S
H1068 C1053 0.961 . S
H1069 C1053 0.960 . S
C1070 C1071 1.391 . S
C1070 C1072 1.394 . S
C1070 H1086 0.931 . S
C1071 C1070 1.391 . S
C1071 C1075 1.376 . S
C1072 C1070 1.394 . S
C1072 C1073 1.369 . S
C1072 C1076 1.531 . S
C1073 C1072 1.369 . S
C1073 C1074 1.410 . S
C1073 C1081 1.503 1_554 S
C1074 C1073 1.410 . S
C1074 C1075 1.392 . S
C1074 C1077 1.511 1_554 S
C1075 C1071 1.376 . S
C1075 C1074 1.392 . S
C1075 H1087 0.929 . S
C1076 C1072 1.531 . S
C1076 H1088 0.960 . S
C1076 H1089 0.962 . S
C1076 H1090 0.960 . S
C1077 C1074 1.511 1_556 S
C1077 H1091 0.961 . S
C1077 H1092 0.961 . S
C1077 H1093 0.961 . S
C1078 C1079 1.370 . S
C1078 C1080 1.363 . S
C1078 H1094 0.931 . S
C1079 C1078 1.370 . S
C1079 C1083 1.408 . S
C1080 C1078 1.363 . S
C1080 C1081 1.370 . S
C1080 C1084 1.524 . S
C1081 C1073 1.503 1_556 S
C1081 C1080 1.370 . S
C1081 C1082 1.403 . S
C1082 C1081 1.403 . S
C1082 C1083 1.404 . S
C1082 C1085 1.539 . S
C1083 C1079 1.408 . S
C1083 C1082 1.404 . S
C1083 H1095 0.930 . S
C1084 C1080 1.524 . S
C1084 H1096 0.956 1_556 S
C1084 H1097 0.961 . S
C1084 H1098 0.961 . S
C1085 C1082 1.539 . S
C1085 H1099 0.958 1_556 S
C1085 H1100 0.961 . S
C1085 H1101 0.960 1_556 S
H1086 C1070 0.931 . S
H1087 C1075 0.929 . S
H1088 C1076 0.960 . S
H1089 C1076 0.962 . S
H1090 C1076 0.960 . S
H1091 C1077 0.961 . S
H1092 C1077 0.961 . S
H1093 C1077 0.961 . S
H1094 C1078 0.931 . S
H1095 C1083 0.930 . S
H1096 C1084 0.956 1_554 S
H1097 C1084 0.961 . S
H1098 C1084 0.961 . S
H1099 C1085 0.958 1_554 S
H1100 C1085 0.961 . S
H1101 C1085 0.960 1_554 S
C1102 C1103 1.391 . S
C1102 C1104 1.394 . S
C1102 H1118 0.931 . S
C1103 C1102 1.391 . S
C1103 C1107 1.376 . S
C1104 C1102 1.394 . S
C1104 C1105 1.369 . S
C1104 C1108 1.531 . S
C1105 C1104 1.369 . S
C1105 C1106 1.410 . S
C1105 C1113 1.503 . S
C1106 C1105 1.410 . S
C1106 C1107 1.392 . S
C1106 C1109 1.511 . S
C1107 C1103 1.376 . S
C1107 C1106 1.392 . S
C1107 H1119 0.929 . S
C1108 C1104 1.531 . S
C1108 H1120 0.960 . S
C1108 H1121 0.962 . S
C1108 H1122 0.960 . S
C1109 C1106 1.511 . S
C1109 H1123 0.961 . S
C1109 H1124 0.961 . S
C1109 H1125 0.961 . S
C1110 C1111 1.370 . S
C1110 C1112 1.363 . S
C1110 H1126 0.931 . S
C1111 C1110 1.370 . S
C1111 C1115 1.408 . S
C1112 C1110 1.363 . S
C1112 C1113 1.370 . S
C1112 C1116 1.524 . S
C1113 C1105 1.503 . S
C1113 C1112 1.370 . S
C1113 C1114 1.403 . S
C1114 C1113 1.403 . S
C1114 C1115 1.404 . S
C1114 C1117 1.539 . S
C1115 C1111 1.408 . S
C1115 C1114 1.404 . S
C1115 H1127 0.930 . S
C1116 C1112 1.524 . S
C1116 H1128 0.956 . S
C1116 H1129 0.961 . S
C1116 H1130 0.961 . S
C1117 C1114 1.539 . S
C1117 H1131 0.958 . S
C1117 H1132 0.961 . S
C1117 H1133 0.960 . S
H1118 C1102 0.931 . S
H1119 C1107 0.929 . S
H1120 C1108 0.960 . S
H1121 C1108 0.962 . S
H1122 C1108 0.960 . S
H1123 C1109 0.961 . S
H1124 C1109 0.961 . S
H1125 C1109 0.961 . S
H1126 C1110 0.931 . S
H1127 C1115 0.930 . S
H1128 C1116 0.956 . S
H1129 C1116 0.961 . S
H1130 C1116 0.961 . S
H1131 C1117 0.958 . S
H1132 C1117 0.961 . S
H1133 C1117 0.960 . S
C375 C363 1.598 . S
C367 C45 1.595 . S
C399 C84 1.566 . S
C407 C288 1.490 . S
C431 C126 1.554 . S
C439 C311 1.624 . S
C463 C189 1.463 . S
C471 C324 1.462 . S
C503 C327 1.532 . S
C495 C228 1.604 . S
C527 C270 1.481 . S
C535 C340 1.430 . S
C559 C69 1.469 . S
C567 C301 1.454 . S
C591 C141 1.614 . S
C599 C314 1.531 . S
C623 C174 1.443 . S
C631 C337 1.465 . S
C663 C350 1.621 . S
C655 C213 1.608 . S
C695 C353 1.512 . S
C687 C285 1.557 . S
C727 C298 1.597 . S
C719 C30 1.574 . S
C751 C36 1.475 . S
C759 C309 1.450 . S
C783 C93 1.454 . S
C791 C322 1.413 . S
C823 C332 1.448 . S
C815 C117 1.497 . S
C847 C180 1.463 . S
C855 C345 1.438 . S
C887 C361 1.467 . S
C879 C237 1.492 . S
C919 C293 1.419 . S
C911 C261 1.444 . S
C951 C358 1.416 . S
C943 C78 1.442 . S
C975 C132 1.505 . S
C983 C296 1.464 . S
C1015 C306 1.421 . S
C1007 C165 1.457 . S
C1039 C222 1.488 . S
C1047 C319 1.442 . S
C1071 C276 1.456 . S
C1079 C335 1.425 . S
C1103 C21 1.481 . S
C1111 C348 1.432 . S
