# Generated by pormake.
# Topology pts, (4,4)-cn, num edge types: 1
# Building blocks:
#     Node 0, Type 0, BuildingBlock: NAHDIM_clean_linker_0, # of connection points: 4
#     Node 1, Type 0, BuildingBlock: NAHDIM_clean_linker_0, # of connection points: 4
#     Node 2, Type 1, BuildingBlock: QUQFOY_clean_sbu_1, # of connection points: 4
#     Node 3, Type 1, BuildingBlock: QUQFOY_clean_sbu_1, # of connection points: 4
#     Edge 4, Type (0, 1), BuildingBlock: UVAHIK_clean_linker_0, # of connection points: 2
#     Edge 5, Type (0, 1), BuildingBlock: UVAHIK_clean_linker_0, # of connection points: 2
#     Edge 6, Type (0, 1), BuildingBlock: UVAHIK_clean_linker_0, # of connection points: 2
#     Edge 7, Type (0, 1), BuildingBlock: UVAHIK_clean_linker_0, # of connection points: 2
#     Edge 8, Type (0, 1), BuildingBlock: UVAHIK_clean_linker_0, # of connection points: 2
#     Edge 9, Type (0, 1), BuildingBlock: UVAHIK_clean_linker_0, # of connection points: 2
#     Edge 10, Type (0, 1), BuildingBlock: UVAHIK_clean_linker_0, # of connection points: 2
#     Edge 11, Type (0, 1), BuildingBlock: UVAHIK_clean_linker_0, # of connection points: 2
# Relax obj value: 0.113
# Max RMSD: 0.245
# Mean RMSD: 0.150
data_MOF--net-pts--node1-QUQFOY_clean_sbu_1--node2-NAHDIM_clean_linker_0--edge1-UVAHIK_clean_linker_0
_symmetry_space_group_name_H-M    P1
_symmetry_Int_Tables_number       1
_symmetry_cell_setting            triclinic
loop_
_symmetry_equiv_pos_as_xyz
'x, y, z'
_cell_length_a     36.429337
_cell_length_b     40.226608
_cell_length_c     67.316463
_cell_angle_alpha  90.205508
_cell_angle_beta   89.344028
_cell_angle_gamma 90.006786
loop_
_atom_site_label
_atom_site_type_symbol
_atom_site_fract_x
_atom_site_fract_y
_atom_site_fract_z
_atom_type_partial_charge
C0 C 0.69431 0.10792 0.0909 0.0
C1 C 0.68871 0.07549 0.10247 0.0
C2 C 0.65883 0.03774 0.07858 0.0
C3 C 0.66381 0.00879 0.06736 0.0
C4 C 0.63571 0.99614 0.05544 0.0
C5 C 0.60191 0.01334 0.05443 0.0
C6 C 0.59649 0.0426 0.06582 0.0
C7 C 0.6249 0.05439 0.07792 0.0
C8 C 0.64223 0.96442 0.04388 0.0
C9 C 0.5608 0.06156 0.06506 0.0
C10 C 0.34065 0.87259 0.06139 0.0
C11 C 0.36047 0.90362 0.06896 0.0
C12 C 0.42618 0.91461 0.06481 0.0
C13 C 0.42378 0.94911 0.06191 0.0
C14 C 0.45343 0.96693 0.05378 0.0
C15 C 0.48618 0.94994 0.04858 0.0
C16 C 0.4893 0.91551 0.05239 0.0
C17 C 0.45924 0.89832 0.0606 0.0
C18 C 0.44957 0.00382 0.05039 0.0
C19 C 0.52403 0.89677 0.04728 0.0
C20 C 0.4431 0.93228 0.91887 0.0
C21 C 0.43407 0.96326 0.92726 0.0
C22 C 0.45983 0.98103 0.93847 0.0
C23 C 0.49513 0.96732 0.94145 0.0
C24 C 0.50471 0.93675 0.9323 0.0
C25 C 0.47861 0.91983 0.9209 0.0
C26 C 0.44918 0.01414 0.9474 0.0
C27 C 0.54219 0.92156 0.93499 0.0
C28 C 0.73299 0.13949 0.93229 0.0
C29 C 0.71957 0.10432 0.92769 0.0
C30 C 0.6567 0.08368 0.93144 0.0
C31 C 0.621 0.09523 0.93471 0.0
C32 C 0.59397 0.07463 0.94314 0.0
C33 C 0.60281 0.04139 0.94795 0.0
C34 C 0.63844 0.02901 0.9437 0.0
C35 C 0.66513 0.05036 0.93558 0.0
C36 C 0.5562 0.0886 0.9473 0.0
C37 C 0.64841 0.99337 0.948 0.0
C38 C 0.5724 1.00072 0.04136 0.0
C39 C 0.54406 0.98207 0.05 0.0
C40 C 0.5165 0.96802 0.0384 0.0
C41 C 0.51762 0.97179 0.01751 0.0
C42 C 0.49138 0.95656 0.00531 0.0
C43 C 0.49281 0.96029 0.98477 0.0
C44 C 0.5201 0.97994 0.97565 0.0
C45 C 0.52155 0.98416 0.95479 0.0
C46 C 0.54885 0.00411 0.94624 0.0
C47 C 0.57507 0.01998 0.95796 0.0
C48 C 0.57431 0.01574 0.97883 0.0
C49 C 0.60036 0.03118 0.99108 0.0
C50 C 0.59981 0.02632 0.01154 0.0
C51 C 0.57289 0.00621 0.0206 0.0
C52 C 0.54573 0.99123 0.00861 0.0
C53 C 0.5467 0.99566 0.98768 0.0
C54 C 0.37237 0.87407 0.91664 0.0
C55 C 0.38133 0.91081 0.91341 0.0
O56 O 0.68762 0.04861 0.08955 0.0
O57 O 0.68213 0.10537 0.92428 0.0
O58 O 0.41834 0.91385 0.9087 0.0
O59 O 0.39729 0.89625 0.07151 0.0
H60 H 0.66254 0.07698 0.11113 0.0
H61 H 0.67101 0.11242 0.0808 0.0
H62 H 0.71992 0.10686 0.0818 0.0
H63 H 0.696 0.1293 0.10135 0.0
H64 H 0.68997 0.99604 0.06801 0.0
H65 H 0.62036 0.07671 0.08658 0.0
H66 H 0.61926 0.94675 0.04647 0.0
H67 H 0.66838 0.95215 0.04797 0.0
H68 H 0.64322 0.97003 0.02775 0.0
H69 H 0.56188 0.08527 0.07355 0.0
H70 H 0.53834 0.04601 0.07134 0.0
H71 H 0.55383 0.06711 0.0494 0.0
H72 H 0.35702 0.9226 0.05711 0.0
H73 H 0.31088 0.87772 0.05968 0.0
H74 H 0.34414 0.85138 0.07172 0.0
H75 H 0.35213 0.86526 0.04666 0.0
H76 H 0.39882 0.96222 0.06594 0.0
H77 H 0.46104 0.8718 0.06321 0.0
H78 H 0.47235 0.0173 0.05772 0.0
H79 H 0.42303 0.0137 0.05616 0.0
H80 H 0.45156 0.00909 0.03423 0.0
H81 H 0.52236 0.87015 0.05153 0.0
H82 H 0.54765 0.90833 0.05497 0.0
H83 H 0.52955 0.89839 0.03105 0.0
H84 H 0.37473 0.92374 0.92767 0.0
H85 H 0.40698 0.9736 0.92502 0.0
H86 H 0.48544 0.89616 0.91406 0.0
H87 H 0.44758 0.01191 0.96382 0.0
H88 H 0.42222 0.02302 0.94198 0.0
H89 H 0.47043 0.03308 0.94384 0.0
H90 H 0.54492 0.89708 0.92742 0.0
H91 H 0.54766 0.91827 0.95106 0.0
H92 H 0.56351 0.93859 0.92893 0.0
H93 H 0.72536 0.08909 0.94109 0.0
H94 H 0.76291 0.13934 0.93534 0.0
H95 H 0.71838 0.14928 0.94565 0.0
H96 H 0.72764 0.15641 0.91963 0.0
H97 H 0.61468 0.12085 0.93119 0.0
H98 H 0.69243 0.04094 0.93241 0.0
H99 H 0.54905 0.08549 0.96327 0.0
H100 H 0.53559 0.07462 0.93857 0.0
H101 H 0.55419 0.11537 0.94346 0.0
H102 H 0.67595 0.98666 0.94197 0.0
H103 H 0.62767 0.97635 0.94155 0.0
H104 H 0.64832 0.98937 0.96431 0.0
H105 H 0.54348 0.97841 0.06597 0.0
H106 H 0.4696 0.94132 0.01147 0.0
H107 H 0.47207 0.94769 0.97616 0.0
H108 H 0.54972 0.00733 0.93024 0.0
H109 H 0.62167 0.04701 0.98498 0.0
H110 H 0.6207 0.03867 0.02019 0.0
H111 H 0.37875 0.8593 0.90305 0.0
H112 H 0.34285 0.87095 0.92054 0.0
H113 H 0.38897 0.86423 0.92905 0.0
C114 C 0.13586 0.3456 0.57549 0.0
C115 C 0.10929 0.35612 0.59222 0.0
C116 C 0.06897 0.3964 0.57557 0.0
C117 C 0.03386 0.40121 0.56797 0.0
C118 C 0.02465 0.43057 0.55797 0.0
C119 C 0.05145 0.45569 0.55541 0.0
C120 C 0.08682 0.45141 0.56345 0.0
C121 C 0.09522 0.4219 0.57352 0.0
C122 C 0.98651 0.43448 0.54979 0.0
C123 C 0.11598 0.47779 0.56101 0.0
C124 C 0.94291 0.70077 0.56172 0.0
C125 C 0.97739 0.69204 0.57336 0.0
C126 C 0.98595 0.6321 0.57302 0.0
C127 C 0.0226 0.62888 0.56675 0.0
C128 C 0.03503 0.59949 0.55759 0.0
C129 C 0.01007 0.57304 0.5544 0.0
C130 C 0.97339 0.57587 0.56138 0.0
C131 C 0.96195 0.60529 0.57088 0.0
C132 C 0.07471 0.59691 0.55107 0.0
C133 C 0.94608 0.54816 0.55836 0.0
C134 C 0.01369 0.63514 0.42793 0.0
C135 C 0.04765 0.63065 0.43713 0.0
C136 C 0.05595 0.60066 0.4467 0.0
C137 C 0.02951 0.57485 0.44724 0.0
C138 C 0.99578 0.57892 0.43731 0.0
C139 C 0.98853 0.60895 0.42752 0.0
C140 C 0.09277 0.59676 0.45648 0.0
C141 C 0.96707 0.55189 0.43747 0.0
C142 C 0.138 0.33084 0.44084 0.0
C143 C 0.10446 0.33896 0.42828 0.0
C144 C 0.09517 0.39879 0.42916 0.0
C145 C 0.11888 0.42565 0.43187 0.0
C146 C 0.10685 0.45473 0.44153 0.0
C147 C 0.06987 0.45718 0.44808 0.0
C148 C 0.04526 0.43067 0.44435 0.0
C149 C 0.05827 0.40161 0.43505 0.0
C150 C 0.13384 0.4825 0.44515 0.0
C151 C 0.00532 0.43289 0.45041 0.0
C152 C 0.04299 0.48569 0.54348 0.0
C153 C 0.03091 0.51434 0.55343 0.0
C154 C 0.02192 0.54315 0.54297 0.0
C155 C 0.02462 0.54339 0.52197 0.0
C156 C 0.01471 0.57156 0.51093 0.0
C157 C 0.01832 0.57187 0.49034 0.0
C158 C 0.03189 0.54399 0.47994 0.0
C159 C 0.0365 0.54437 0.45904 0.0
C160 C 0.04878 0.5158 0.44909 0.0
C161 C 0.05731 0.48683 0.45952 0.0
C162 C 0.05402 0.48638 0.4805 0.0
C163 C 0.06356 0.45809 0.49153 0.0
C164 C 0.05995 0.45777 0.51212 0.0
C165 C 0.04683 0.48581 0.52254 0.0
C166 C 0.03747 0.51472 0.51176 0.0
C167 C 0.04107 0.51501 0.49071 0.0
C168 C 0.9728 0.70214 0.44043 0.0
C169 C 0.00744 0.69534 0.42799 0.0
O170 O 0.07623 0.36676 0.58445 0.0
O171 O 0.10838 0.37068 0.42049 0.0
O172 O 0.00473 0.66426 0.4191 0.0
O173 O 0.97325 0.66058 0.58148 0.0
H174 H 0.12195 0.37665 0.60089 0.0
H175 H 0.14267 0.367 0.56579 0.0
H176 H 0.12351 0.32583 0.56613 0.0
H177 H 0.16187 0.33615 0.58183 0.0
H178 H 0.01369 0.38159 0.5697 0.0
H179 H 0.12246 0.41894 0.57945 0.0
H180 H 0.97437 0.45835 0.55498 0.0
H181 H 0.96802 0.41381 0.55431 0.0
H182 H 0.98798 0.43526 0.53332 0.0
H183 H 0.14225 0.47073 0.56807 0.0
H184 H 0.1062 0.5015 0.5677 0.0
H185 H 0.12118 0.48236 0.54496 0.0
H186 H 0.00111 0.69264 0.56278 0.0
H187 H 0.94574 0.72576 0.55488 0.0
H188 H 0.9183 0.70058 0.57163 0.0
H189 H 0.93881 0.68229 0.54964 0.0
H190 H 0.04151 0.64924 0.56914 0.0
H191 H 0.93386 0.60791 0.57612 0.0
H192 H 0.08648 0.57279 0.55582 0.0
H193 H 0.09166 0.61742 0.55718 0.0
H194 H 0.07647 0.59788 0.53461 0.0
H195 H 0.91807 0.55499 0.56365 0.0
H196 H 0.95514 0.52573 0.56652 0.0
H197 H 0.94485 0.54147 0.54236 0.0
H198 H 0.03141 0.69626 0.43807 0.0
H199 H 0.06782 0.65041 0.4367 0.0
H200 H 0.96264 0.61254 0.42006 0.0
H201 H 0.08897 0.59678 0.47286 0.0
H202 H 0.11203 0.61713 0.45245 0.0
H203 H 0.1054 0.57261 0.45218 0.0
H204 H 0.94165 0.55945 0.42972 0.0
H205 H 0.95992 0.5452 0.45303 0.0
H206 H 0.97827 0.52926 0.43012 0.0
H207 H 0.07975 0.33755 0.43812 0.0
H208 H 0.1353 0.30564 0.44741 0.0
H209 H 0.14033 0.34913 0.45316 0.0
H210 H 0.16351 0.33187 0.43165 0.0
H211 H 0.14719 0.42334 0.42693 0.0
H212 H 0.0396 0.38122 0.43222 0.0
H213 H 0.13422 0.48889 0.46121 0.0
H214 H 0.12508 0.50504 0.437 0.0
H215 H 0.16213 0.47589 0.44023 0.0
H216 H 0.98882 0.41228 0.44406 0.0
H217 H 0.99352 0.45694 0.44556 0.0
H218 H 0.0029 0.43185 0.46685 0.0
H219 H 0.02852 0.51421 0.56951 0.0
H220 H 0.00412 0.59378 0.51808 0.0
H221 H 0.01034 0.59431 0.48269 0.0
H222 H 0.05194 0.51617 0.43305 0.0
H223 H 0.074 0.43581 0.48437 0.0
H224 H 0.0677 0.43526 0.51977 0.0
H225 H 0.97452 0.72694 0.4477 0.0
H226 H 0.96989 0.68305 0.45223 0.0
H227 H 0.94801 0.70132 0.43096 0.0
O228 O 0.00671 0.00211 0.23705 0.0
Cd229 Cd 0.0533 0.98605 0.25153 0.0
Cd230 Cd 0.07113 0.05187 0.24809 0.0
O231 O 0.02193 0.05482 0.23347 0.0
O232 O 0.0404 0.94006 0.25994 0.0
O233 O 0.05382 0.97998 0.28129 0.0
C234 C 0.04462 0.94943 0.27809 0.0
C235 C 0.08035 0.0888 0.27434 0.0
C236 C 0.99951 0.0311 0.23071 0.0
C237 C 0.12258 0.00319 0.22869 0.0
O238 O 0.11563 0.0336 0.23229 0.0
O239 O 0.10137 0.98051 0.2352 0.0
O240 O 0.08406 0.09804 0.2561 0.0
O241 O 0.07181 0.05813 0.27774 0.0
O242 O 0.00363 0.04679 0.77022 0.0
Cd243 Cd 0.05147 0.0434 0.75357 0.0
Cd244 Cd 0.03296 0.97703 0.75306 0.0
O245 O 0.98747 0.99402 0.76861 0.0
O246 O 0.06454 0.09028 0.7473 0.0
O247 O 0.05097 0.05327 0.72417 0.0
C248 C 0.06031 0.08329 0.72878 0.0
C249 C 0.02343 0.94065 0.72649 0.0
C250 C 0.98126 0.02356 0.7745 0.0
C251 C 0.10422 0.9954 0.77237 0.0
O252 O 0.0816 0.97238 0.76827 0.0
O253 O 0.09766 0.02521 0.76732 0.0
O254 O 0.01972 0.93111 0.74466 0.0
O255 O 0.03257 0.97123 0.7233 0.0
C256 C 0.32606 0.94688 0.08928 0.0
C257 C 0.34355 0.91577 0.08832 0.0
C258 C 0.30796 0.95711 0.10667 0.0
C259 C 0.25806 0.92315 0.14865 0.0
H260 H 0.26696 0.0112 0.17169 0.0
C261 C 0.16809 0.96159 0.21565 0.0
C262 C 0.15421 0.99416 0.21578 0.0
C263 C 0.19589 0.95235 0.20225 0.0
C264 C 0.26379 0.98662 0.16534 0.0
H265 H 0.35733 0.87169 0.10508 0.0
H266 H 0.32463 0.88919 0.13535 0.0
H267 H 0.30695 0.99495 0.14396 0.0
H268 H 0.15914 0.0428 0.20224 0.0
H269 H 0.20637 0.02648 0.17836 0.0
H270 H 0.21378 0.91511 0.16907 0.0
C271 C 0.325 0.90558 0.12261 0.0
C272 C 0.28689 0.97731 0.14953 0.0
C273 C 0.34364 0.89559 0.10533 0.0
C274 C 0.1694 0.01753 0.20259 0.0
C275 C 0.19673 0.00816 0.18894 0.0
C276 C 0.23456 0.9326 0.1642 0.0
C277 C 0.30659 0.93625 0.12335 0.0
C278 C 0.28404 0.94556 0.14096 0.0
C279 C 0.21001 0.97529 0.18837 0.0
C280 C 0.23685 0.96459 0.17268 0.0
H281 H 0.32571 0.96299 0.07643 0.0
H282 H 0.2938 0.9808 0.10682 0.0
H283 H 0.25496 0.89866 0.14212 0.0
H284 H 0.15722 0.9431 0.22579 0.0
H285 H 0.20598 0.92705 0.20265 0.0
C286 C 0.11776 0.32666 0.62504 0.0
C287 C 0.10234 0.32705 0.60602 0.0
C288 C 0.113 0.2992 0.63746 0.0
C289 C 0.05591 0.2236 0.64502 0.0
H290 H 0.13706 0.19752 0.67833 0.0
C291 C 0.05485 0.10433 0.69378 0.0
C292 C 0.06599 0.10923 0.7135 0.0
C293 C 0.05952 0.12957 0.67967 0.0
C294 C 0.11411 0.20459 0.66917 0.0
H295 H 0.07 0.29889 0.58504 0.0
H296 H 0.06229 0.25052 0.60655 0.0
H297 H 0.14442 0.24414 0.65566 0.0
H298 H 0.09117 0.14425 0.73381 0.0
H299 H 0.09961 0.18789 0.70925 0.0
H300 H 0.02581 0.18364 0.65855 0.0
C301 C 0.07742 0.27174 0.61207 0.0
C302 C 0.11823 0.23143 0.65623 0.0
C303 C 0.08195 0.29935 0.5997 0.0
C304 C 0.08226 0.13965 0.71875 0.0
C305 C 0.0873 0.16462 0.70465 0.0
C306 C 0.05191 0.19652 0.65787 0.0
C307 C 0.09308 0.27122 0.63108 0.0
C308 C 0.08902 0.24163 0.64419 0.0
C309 C 0.07589 0.15995 0.68498 0.0
C310 C 0.08081 0.18705 0.67027 0.0
H311 H 0.1337 0.34758 0.6303 0.0
H312 H 0.12488 0.30001 0.65213 0.0
H313 H 0.03269 0.23093 0.63614 0.0
H314 H 0.04216 0.08117 0.6893 0.0
H315 H 0.05065 0.12524 0.66458 0.0
C316 C 0.71501 0.0762 0.13721 0.0
C317 C 0.72007 0.07061 0.11675 0.0
C318 C 0.74427 0.07246 0.1503 0.0
C319 C 0.80611 0.04344 0.17521 0.0
H320 H 0.90152 0.07846 0.15999 0.0
C321 C 0.93994 0.01121 0.21653 0.0
C322 C 0.96547 0.03697 0.21938 0.0
C323 C 0.90881 0.0163 0.20496 0.0
C324 C 0.87499 0.06878 0.16454 0.0
H325 H 0.75983 0.0573 0.09389 0.0
H326 H 0.8109 0.05061 0.11671 0.0
H327 H 0.84957 0.08566 0.13791 0.0
H328 H 0.97776 0.08856 0.21266 0.0
H329 H 0.92344 0.09737 0.19255 0.0
H330 H 0.8316 0.02669 0.2019 0.0
C331 C 0.78435 0.05795 0.12266 0.0
C332 C 0.84533 0.07258 0.15179 0.0
C333 C 0.7551 0.06154 0.10961 0.0
C334 C 0.95876 0.06812 0.21072 0.0
C335 C 0.92773 0.07314 0.19909 0.0
C336 C 0.83586 0.03947 0.18793 0.0
C337 C 0.77929 0.0634 0.14314 0.0
C338 C 0.81058 0.05985 0.15693 0.0
C339 C 0.90259 0.0472 0.19592 0.0
C340 C 0.87066 0.05205 0.18271 0.0
H341 H 0.68843 0.08361 0.14309 0.0
H342 H 0.73963 0.07723 0.16597 0.0
H343 H 0.77973 0.03315 0.17952 0.0
H344 H 0.94422 0.98692 0.22298 0.0
H345 H 0.89013 0.99573 0.20265 0.0
C346 C 0.00389 0.74654 0.58521 0.0
C347 C 0.98364 0.71768 0.58951 0.0
C348 C 0.00792 0.77154 0.59951 0.0
C349 C 0.96628 0.80303 0.64662 0.0
H350 H 0.05842 0.85066 0.65105 0.0
C351 C 0.00141 0.88579 0.71382 0.0
C352 C 0.01758 0.91688 0.70999 0.0
C353 C 0.99642 0.8628 0.69851 0.0
C354 C 0.03241 0.83781 0.64983 0.0
H355 H 0.95069 0.69288 0.61203 0.0
H356 H 0.95888 0.73576 0.63724 0.0
H357 H 0.05204 0.80729 0.62589 0.0
H358 H 0.04117 0.94825 0.68704 0.0
H359 H 0.03282 0.9077 0.66021 0.0
H360 H 0.94708 0.83307 0.67093 0.0
C361 C 0.97141 0.73935 0.62275 0.0
C362 C 0.02868 0.81296 0.6354 0.0
C363 C 0.96711 0.71451 0.60838 0.0
C364 C 0.02859 0.92452 0.69045 0.0
C365 C 0.02399 0.90128 0.67513 0.0
C366 C 0.97015 0.82762 0.66115 0.0
C367 C 0.99171 0.7683 0.61847 0.0
C368 C 0.99561 0.79512 0.63366 0.0
C369 C 0.00783 0.87019 0.67903 0.0
C370 C 0.0033 0.84516 0.66298 0.0
H371 H 0.01617 0.74998 0.57063 0.0
H372 H 0.0231 0.79371 0.59551 0.0
H373 H 0.94014 0.7904 0.64546 0.0
H374 H 0.99259 0.87913 0.72871 0.0
H375 H 0.98424 0.83893 0.702 0.0
C376 C 0.32569 0.94222 0.90161 0.0
C377 C 0.35801 0.9247 0.89693 0.0
C378 C 0.30196 0.95225 0.88662 0.0
C379 C 0.26413 0.98377 0.85148 0.0
H380 H 0.24293 0.91953 0.81008 0.0
C381 C 0.16276 0.01301 0.78866 0.0
C382 C 0.13754 0.98778 0.78396 0.0
C383 C 0.19279 0.00636 0.80077 0.0
C384 C 0.24847 0.93772 0.82156 0.0
H385 H 0.39081 0.90383 0.87291 0.0
H386 H 0.34967 0.92187 0.84661 0.0
H387 H 0.2893 0.90688 0.83474 0.0
H388 H 0.12475 0.93552 0.78793 0.0
H389 H 0.17678 0.92405 0.80921 0.0
H390 H 0.22231 0.01406 0.83878 0.0
C391 C 0.34258 0.92774 0.86189 0.0
C392 C 0.27539 0.93064 0.83556 0.0
C393 C 0.36631 0.9177 0.87691 0.0
C394 C 0.14363 0.95554 0.79122 0.0
C395 C 0.17362 0.94891 0.80335 0.0
C396 C 0.2372 0.99084 0.83749 0.0
C397 C 0.30989 0.9448 0.86659 0.0
C398 C 0.28322 0.95341 0.85085 0.0
C399 C 0.19831 0.97433 0.80848 0.0
C400 C 0.22871 0.96772 0.8225 0.0
H401 H 0.31833 0.94745 0.91694 0.0
H402 H 0.27675 0.96484 0.89081 0.0
H403 H 0.26977 1.00202 0.86291 0.0
H404 H 0.15906 0.03809 0.78324 0.0
H405 H 0.21159 0.02638 0.80418 0.0
C406 C 0.08116 0.28391 0.41537 0.0
C407 C 0.1006 0.31352 0.41178 0.0
C408 C 0.07917 0.25922 0.40076 0.0
C409 C 0.08672 0.24576 0.34697 0.0
H410 H 0.10462 0.15374 0.36088 0.0
C411 C 0.10011 0.14451 0.28679 0.0
C412 C 0.08482 0.11311 0.29069 0.0
C413 C 0.10279 0.16831 0.30186 0.0
C414 C 0.09903 0.17923 0.35677 0.0
H415 H 0.13451 0.3398 0.39029 0.0
H416 H 0.13028 0.29697 0.36458 0.0
H417 H 0.10695 0.19671 0.38653 0.0
H418 H 0.06066 0.08189 0.31352 0.0
H419 H 0.06441 0.12374 0.33978 0.0
H420 H 0.07804 0.2285 0.31734 0.0
C421 C 0.11613 0.29314 0.37863 0.0
C422 C 0.10048 0.20384 0.37147 0.0
C423 C 0.11848 0.31768 0.39332 0.0
C424 C 0.07273 0.10583 0.31008 0.0
C425 C 0.07505 0.12981 0.32515 0.0
C426 C 0.0849 0.22115 0.33231 0.0
C427 C 0.09656 0.26361 0.38222 0.0
C428 C 0.09452 0.23738 0.3667 0.0
C429 C 0.08983 0.16149 0.32119 0.0
C430 C 0.09126 0.18756 0.33697 0.0
H431 H 0.06774 0.27979 0.42959 0.0
H432 H 0.06379 0.23676 0.40391 0.0
H433 H 0.08149 0.27134 0.34291 0.0
H434 H 0.10999 0.15082 0.27204 0.0
H435 H 0.11512 0.19208 0.29832 0.0
C436 C 0.77152 0.07098 0.9125 0.0
C437 C 0.74007 0.09053 0.90979 0.0
C438 C 0.79311 0.06114 0.89624 0.0
C439 C 0.82652 0.03165 0.85869 0.0
H440 H 0.84682 0.09866 0.81879 0.0
C441 C 0.9234 0.00544 0.79198 0.0
C442 C 0.94874 0.03067 0.78727 0.0
C443 C 0.8942 0.01161 0.80515 0.0
C444 C 0.84153 0.07968 0.82983 0.0
H445 H 0.70653 0.11519 0.88793 0.0
H446 H 0.74375 0.09737 0.8594 0.0
H447 H 0.80304 0.11053 0.84547 0.0
H448 H 0.96264 0.08244 0.79239 0.0
H449 H 0.91223 0.093 0.81554 0.0
H450 H 0.86625 1.00138 0.84357 0.0
C451 C 0.75189 0.08979 0.87413 0.0
C452 C 0.81603 0.08633 0.845 0.0
C453 C 0.73035 0.09972 0.89042 0.0
C454 C 0.94363 0.06243 0.79564 0.0
C455 C 0.91453 0.06855 0.80885 0.0
C456 C 0.85209 0.02504 0.84355 0.0
C457 C 0.78384 0.07078 0.87686 0.0
C458 C 0.80861 0.06258 0.8598 0.0
C459 C 0.88969 0.04312 0.81396 0.0
C460 C 0.86032 0.04917 0.8291 0.0
H461 H 0.77997 0.06407 0.9273 0.0
H462 H 0.81784 0.04702 0.89896 0.0
H463 H 0.82111 0.01263 0.86969 0.0
H464 H 0.92636 0.98074 0.78571 0.0
H465 H 0.87526 0.9916 0.80852 0.0
C466 C 0.99509 0.71953 0.39383 0.0
C467 C 0.01219 0.7221 0.41238 0.0
C468 C 0.99822 0.7452 0.37996 0.0
C469 C 0.05353 0.82026 0.36763 0.0
H470 H 0.97059 0.84039 0.33414 0.0
C471 C 0.05075 0.93292 0.31389 0.0
C472 C 0.03928 0.92548 0.29451 0.0
C473 C 0.0467 0.90945 0.32909 0.0
C474 C 0.99403 0.83496 0.34335 0.0
H475 H 0.0444 0.75418 0.4313 0.0
H476 H 0.04933 0.79931 0.40729 0.0
H477 H 0.9651 0.7968 0.35904 0.0
H478 H 0.01399 0.88786 0.27596 0.0
H479 H 0.00664 0.84726 0.30244 0.0
H480 H 0.08223 0.8588 0.35195 0.0
C481 C 0.0346 0.77701 0.40313 0.0
C482 C 0.99098 0.80985 0.35756 0.0
C483 C 0.03172 0.75122 0.41692 0.0
C484 C 0.02316 0.89438 0.29072 0.0
C485 C 0.01874 0.87115 0.30591 0.0
C486 C 0.05644 0.84561 0.35352 0.0
C487 C 0.01791 0.77435 0.38444 0.0
C488 C 0.02082 0.80188 0.36975 0.0
C489 C 0.03065 0.87832 0.32523 0.0
C490 C 0.02685 0.85295 0.34108 0.0
H491 H 0.97919 0.69771 0.39004 0.0
H492 H 0.98534 0.74205 0.36566 0.0
H493 H 0.07725 0.81457 0.37655 0.0
H494 H 0.0633 0.95666 0.31726 0.0
H495 H 0.05592 0.9157 0.34388 0.0
loop_
_geom_bond_atom_site_label_1
_geom_bond_atom_site_label_2
_geom_bond_distance
_geom_bond_site_symmetry_2
_ccdc_geom_bond_type
C0 C1 1.560 . S
C0 H61 0.959 . S
C0 H62 0.959 . S
C0 H63 0.960 . S
C1 C0 1.560 . S
C1 O56 1.426 . S
C1 H60 0.980 . S
C2 C3 1.407 1_545 S
C2 C7 1.418 . S
C2 O56 1.334 . S
C3 C2 1.407 1_565 S
C3 C4 1.360 . S
C3 H64 0.929 . S
C4 C3 1.360 . S
C4 C5 1.401 1_565 S
C4 C8 1.527 . S
C5 C4 1.401 1_545 S
C5 C6 1.405 . S
C5 C38 1.587 1_545 S
C6 C5 1.405 . S
C6 C7 1.332 . S
C6 C9 1.496 . S
C7 C2 1.418 . S
C7 C6 1.332 . S
C7 H65 0.929 . S
C8 C4 1.527 . S
C8 H66 0.959 . S
C8 H67 0.961 . S
C8 H68 0.961 . S
C9 C6 1.496 . S
C9 H69 0.960 . S
C9 H70 0.960 . S
C9 H71 0.961 . S
C10 C11 1.517 . S
C10 H73 0.961 . S
C10 H74 0.960 . S
C10 H75 0.959 . S
C11 C10 1.517 . S
C11 O59 1.468 . S
C11 H72 0.980 1_565 S
C12 C13 1.349 . S
C12 C17 1.367 . S
C12 O59 1.408 . S
C13 C12 1.349 . S
C13 C14 1.407 1_565 S
C13 H76 0.930 1_565 S
C14 C13 1.407 1_545 S
C14 C15 1.449 1_545 S
C14 C18 1.535 . S
C15 C14 1.449 1_565 S
C15 C16 1.384 . S
C15 C40 1.553 . S
C16 C15 1.384 . S
C16 C17 1.364 . S
C16 C19 1.450 . S
C17 C12 1.367 . S
C17 C16 1.364 . S
C17 H77 0.931 . S
C18 C14 1.535 . S
C18 H78 0.959 . S
C18 H79 0.961 . S
C18 H80 0.959 . S
C19 C16 1.450 . S
C19 H81 0.960 . S
C19 H82 0.960 . S
C19 H83 0.960 . S
C20 C21 1.309 1_565 S
C20 C25 1.304 . S
C20 O58 1.435 . S
C21 C20 1.309 1_545 S
C21 C22 1.476 . S
C21 H85 0.930 . S
C22 C21 1.476 . S
C22 C23 1.400 1_545 S
C22 C26 1.567 . S
C23 C22 1.400 1_565 S
C23 C24 1.373 . S
C23 C45 1.432 . S
C24 C23 1.373 . S
C24 C25 1.339 . S
C24 C27 1.530 . S
C25 C20 1.304 . S
C25 C24 1.339 . S
C25 H86 0.930 . S
C26 C22 1.567 . S
C26 H87 0.961 . S
C26 H88 0.960 . S
C26 H89 0.958 . S
C27 C24 1.530 . S
C27 H90 0.961 . S
C27 H91 0.960 . S
C27 H92 0.960 . S
C28 C29 1.530 . S
C28 H94 0.961 . S
C28 H95 0.961 . S
C28 H96 0.959 . S
C29 C28 1.530 . S
C29 O57 1.412 . S
C29 H93 0.973 1_545 S
C30 C31 1.288 . S
C30 C35 1.377 1_545 S
C30 O57 1.393 . S
C31 C30 1.288 . S
C31 C32 1.369 . S
C31 H97 0.932 . S
C32 C31 1.369 . S
C32 C33 1.398 . S
C32 C36 1.527 . S
C33 C32 1.398 . S
C33 C34 1.380 1_545 S
C33 C47 1.497 1_545 S
C34 C33 1.380 1_565 S
C34 C35 1.383 . S
C34 C37 1.603 . S
C35 C30 1.377 1_565 S
C35 C34 1.383 . S
C35 H98 0.929 . S
C36 C32 1.527 . S
C36 H99 0.961 . S
C36 H100 0.959 . S
C36 H101 0.959 . S
C37 C34 1.603 . S
C37 H102 0.960 . S
C37 H103 0.962 . S
C37 H104 0.961 . S
C38 C5 1.587 1_565 S
C38 C39 1.360 . S
C38 C51 1.412 . S
C39 C38 1.360 . S
C39 C40 1.365 . S
C39 H105 0.929 . S
C40 C15 1.553 . S
C40 C39 1.365 . S
C40 C41 1.404 . S
C41 C40 1.404 . S
C41 C42 1.395 . S
C41 C52 1.451 . S
C42 C41 1.395 . S
C42 C43 1.322 1_554 S
C42 H106 0.930 . S
C43 C42 1.322 1_556 S
C43 C44 1.459 . S
C43 H107 0.929 . S
C44 C43 1.459 . S
C44 C45 1.445 . S
C44 C53 1.395 . S
C45 C23 1.432 . S
C45 C44 1.445 . S
C45 C46 1.370 . S
C46 C45 1.370 . S
C46 C47 1.438 . S
C46 H108 0.930 . S
C47 C33 1.497 1_565 S
C47 C46 1.438 . S
C47 C48 1.360 . S
C48 C47 1.360 . S
C48 C49 1.404 . S
C48 C53 1.446 . S
C49 C48 1.404 . S
C49 C50 1.348 1_556 S
C49 H109 0.925 1_565 S
C50 C49 1.348 1_554 S
C50 C51 1.455 . S
C50 H110 0.928 1_565 S
C51 C38 1.412 . S
C51 C50 1.455 . S
C51 C52 1.331 . S
C52 C41 1.451 . S
C52 C51 1.331 . S
C52 C53 1.497 1_554 S
C53 C44 1.395 . S
C53 C48 1.446 . S
C53 C52 1.497 1_556 S
C54 C55 1.582 . S
C54 H111 0.962 . S
C54 H112 0.959 . S
C54 H113 0.958 . S
C55 C54 1.582 . S
C55 O58 1.458 . S
C55 H84 0.980 1_565 S
O56 C1 1.426 . S
O56 C2 1.334 . S
O57 C29 1.412 . S
O57 C30 1.393 . S
O58 C20 1.435 . S
O58 C55 1.458 . S
O59 C11 1.468 . S
O59 C12 1.408 . S
H60 C1 0.980 . S
H61 C0 0.959 . S
H62 C0 0.959 . S
H63 C0 0.960 . S
H64 C3 0.929 . S
H65 C7 0.929 . S
H66 C8 0.959 . S
H67 C8 0.961 . S
H68 C8 0.961 . S
H69 C9 0.960 . S
H70 C9 0.960 . S
H71 C9 0.961 . S
H72 C11 0.980 1_545 S
H73 C10 0.961 . S
H74 C10 0.960 . S
H75 C10 0.959 . S
H76 C13 0.930 1_545 S
H77 C17 0.931 . S
H78 C18 0.959 . S
H79 C18 0.961 . S
H80 C18 0.959 . S
H81 C19 0.960 . S
H82 C19 0.960 . S
H83 C19 0.960 . S
H84 C55 0.980 1_545 S
H85 C21 0.930 . S
H86 C25 0.930 . S
H87 C26 0.961 . S
H88 C26 0.960 . S
H89 C26 0.958 . S
H90 C27 0.961 . S
H91 C27 0.960 . S
H92 C27 0.960 . S
H93 C29 0.973 1_565 S
H94 C28 0.961 . S
H95 C28 0.961 . S
H96 C28 0.959 . S
H97 C31 0.932 . S
H98 C35 0.929 . S
H99 C36 0.961 . S
H100 C36 0.959 . S
H101 C36 0.959 . S
H102 C37 0.960 . S
H103 C37 0.962 . S
H104 C37 0.961 . S
H105 C39 0.929 . S
H106 C42 0.930 . S
H107 C43 0.929 . S
H108 C46 0.930 . S
H109 C49 0.925 1_545 S
H110 C50 0.928 1_545 S
H111 C54 0.962 . S
H112 C54 0.959 . S
H113 C54 0.958 . S
C114 C115 1.560 . S
C114 H175 0.959 . S
C114 H176 0.959 . S
C114 H177 0.960 . S
C115 C114 1.560 . S
C115 O170 1.426 . S
C115 H174 0.980 . S
C116 C117 1.407 . S
C116 C121 1.418 . S
C116 O170 1.334 . S
C117 C116 1.407 . S
C117 C118 1.360 . S
C117 H178 0.929 . S
C118 C117 1.360 . S
C118 C119 1.401 . S
C118 C122 1.527 1_455 S
C119 C118 1.401 . S
C119 C120 1.405 . S
C119 C152 1.587 . S
C120 C119 1.405 . S
C120 C121 1.332 . S
C120 C123 1.496 . S
C121 C116 1.418 . S
C121 C120 1.332 . S
C121 H179 0.929 . S
C122 C118 1.527 1_655 S
C122 H180 0.959 . S
C122 H181 0.961 . S
C122 H182 0.961 . S
C123 C120 1.496 . S
C123 H183 0.960 . S
C123 H184 0.960 . S
C123 H185 0.961 . S
C124 C125 1.517 . S
C124 H187 0.961 . S
C124 H188 0.939 1_455 S
C124 H189 0.959 . S
C125 C124 1.517 . S
C125 O173 1.468 1_455 S
C125 H186 0.980 . S
C126 C127 1.349 . S
C126 C131 1.367 1_455 S
C126 O173 1.408 1_455 S
C127 C126 1.349 . S
C127 C128 1.407 . S
C127 H190 0.930 . S
C128 C127 1.407 . S
C128 C129 1.449 . S
C128 C132 1.535 . S
C129 C128 1.449 . S
C129 C130 1.384 1_455 S
C129 C154 1.553 . S
C130 C129 1.384 1_655 S
C130 C131 1.364 . S
C130 C133 1.450 . S
C131 C126 1.367 1_655 S
C131 C130 1.364 . S
C131 H191 0.931 . S
C132 C128 1.535 . S
C132 H192 0.959 . S
C132 H193 0.961 . S
C132 H194 0.959 . S
C133 C130 1.450 . S
C133 H195 0.960 . S
C133 H196 0.960 . S
C133 H197 0.960 . S
C134 C135 1.309 . S
C134 C139 1.304 1_455 S
C134 O172 1.435 . S
C135 C134 1.309 . S
C135 C136 1.476 . S
C135 H199 0.930 . S
C136 C135 1.476 . S
C136 C137 1.400 . S
C136 C140 1.567 . S
C137 C136 1.400 . S
C137 C138 1.373 1_455 S
C137 C159 1.432 . S
C138 C137 1.373 1_655 S
C138 C139 1.339 . S
C138 C141 1.530 . S
C139 C134 1.304 1_655 S
C139 C138 1.339 . S
C139 H200 0.930 . S
C140 C136 1.567 . S
C140 H201 0.961 . S
C140 H202 0.960 . S
C140 H203 0.958 . S
C141 C138 1.530 . S
C141 H204 0.961 . S
C141 H205 0.960 . S
C141 H206 0.960 . S
C142 C143 1.530 . S
C142 H208 0.961 . S
C142 H209 0.961 . S
C142 H210 0.959 . S
C143 C142 1.530 . S
C143 O171 1.412 . S
C143 H207 0.980 . S
C144 C145 1.288 . S
C144 C149 1.377 . S
C144 O171 1.393 . S
C145 C144 1.288 . S
C145 C146 1.369 . S
C145 H211 0.932 . S
C146 C145 1.369 . S
C146 C147 1.398 . S
C146 C150 1.527 . S
C147 C146 1.398 . S
C147 C148 1.380 . S
C147 C161 1.497 . S
C148 C147 1.380 . S
C148 C149 1.383 . S
C148 C151 1.603 1_455 S
C149 C144 1.377 . S
C149 C148 1.383 . S
C149 H212 0.929 . S
C150 C146 1.527 . S
C150 H213 0.961 . S
C150 H214 0.959 . S
C150 H215 0.959 . S
C151 C148 1.603 1_655 S
C151 H216 0.960 . S
C151 H217 0.962 . S
C151 H218 0.961 . S
C152 C119 1.587 . S
C152 C153 1.360 . S
C152 C165 1.412 . S
C153 C152 1.360 . S
C153 C154 1.365 . S
C153 H219 0.929 . S
C154 C129 1.553 . S
C154 C153 1.365 . S
C154 C155 1.404 . S
C155 C154 1.404 . S
C155 C156 1.395 . S
C155 C166 1.451 . S
C156 C155 1.395 . S
C156 C157 1.322 . S
C156 H220 0.930 . S
C157 C156 1.322 . S
C157 C158 1.459 . S
C157 H221 0.929 . S
C158 C157 1.459 . S
C158 C159 1.445 . S
C158 C167 1.395 . S
C159 C137 1.432 . S
C159 C158 1.445 . S
C159 C160 1.370 . S
C160 C159 1.370 . S
C160 C161 1.438 . S
C160 H222 0.930 . S
C161 C147 1.497 . S
C161 C160 1.438 . S
C161 C162 1.360 . S
C162 C161 1.360 . S
C162 C163 1.401 . S
C162 C167 1.446 . S
C163 C162 1.401 . S
C163 C164 1.347 . S
C163 H223 0.929 . S
C164 C163 1.347 . S
C164 C165 1.455 . S
C164 H224 0.930 . S
C165 C152 1.412 . S
C165 C164 1.455 . S
C165 C166 1.331 . S
C166 C155 1.451 . S
C166 C165 1.331 . S
C166 C167 1.497 . S
C167 C158 1.395 . S
C167 C162 1.446 . S
C167 C166 1.497 . S
C168 C169 1.582 . S
C168 H225 0.962 . S
C168 H226 0.959 . S
C168 H227 0.937 1_455 S
C169 C168 1.582 . S
C169 O172 1.458 . S
C169 H198 0.980 . S
O170 C115 1.426 . S
O170 C116 1.334 . S
O171 C143 1.412 . S
O171 C144 1.393 . S
O172 C134 1.435 . S
O172 C169 1.458 . S
O173 C125 1.468 1_655 S
O173 C126 1.408 1_655 S
H174 C115 0.980 . S
H175 C114 0.959 . S
H176 C114 0.959 . S
H177 C114 0.960 . S
H178 C117 0.929 . S
H179 C121 0.929 . S
H180 C122 0.959 . S
H181 C122 0.961 . S
H182 C122 0.961 . S
H183 C123 0.960 . S
H184 C123 0.960 . S
H185 C123 0.961 . S
H186 C125 0.980 . S
H187 C124 0.961 . S
H188 C124 0.939 1_655 S
H189 C124 0.959 . S
H190 C127 0.930 . S
H191 C131 0.931 . S
H192 C132 0.959 . S
H193 C132 0.961 . S
H194 C132 0.959 . S
H195 C133 0.960 . S
H196 C133 0.960 . S
H197 C133 0.960 . S
H198 C169 0.980 . S
H199 C135 0.930 . S
H200 C139 0.930 . S
H201 C140 0.961 . S
H202 C140 0.960 . S
H203 C140 0.958 . S
H204 C141 0.961 . S
H205 C141 0.960 . S
H206 C141 0.960 . S
H207 C143 0.980 . S
H208 C142 0.961 . S
H209 C142 0.961 . S
H210 C142 0.959 . S
H211 C145 0.932 . S
H212 C149 0.929 . S
H213 C150 0.961 . S
H214 C150 0.959 . S
H215 C150 0.959 . S
H216 C151 0.960 . S
H217 C151 0.962 . S
H218 C151 0.961 . S
H219 C153 0.929 . S
H220 C156 0.930 . S
H221 C157 0.929 . S
H222 C160 0.930 . S
H223 C163 0.929 . S
H224 C164 0.930 . S
H225 C168 0.962 . S
H226 C168 0.959 . S
H227 C168 0.937 1_655 S
O228 Cd229 2.223 . S
O228 C236 1.315 . S
Cd229 O228 2.223 . S
Cd229 O232 2.297 . S
Cd229 O233 2.439 . S
Cd229 O239 2.240 1_565 S
Cd230 O231 2.240 . S
Cd230 O238 2.223 . S
Cd230 O240 2.297 . S
Cd230 O241 2.439 . S
O231 Cd230 2.240 . S
O231 C236 1.279 1_545 S
O232 Cd229 2.297 . S
O232 C234 1.247 . S
O233 Cd229 2.439 . S
O233 C234 1.208 . S
C234 O232 1.247 . S
C234 O233 1.208 . S
C235 O240 1.247 . S
C235 O241 1.208 . S
C236 O228 1.315 . S
C236 O231 1.279 1_565 S
C237 O238 1.315 . S
C237 O239 1.279 . S
O238 Cd230 2.223 . S
O238 C237 1.315 . S
O239 Cd229 2.240 1_545 S
O239 C237 1.279 . S
O240 Cd230 2.297 . S
O240 C235 1.247 . S
O241 Cd230 2.439 . S
O241 C235 1.208 . S
O242 Cd243 2.223 . S
O242 C250 1.315 . S
Cd243 O242 2.223 . S
Cd243 O246 2.297 . S
Cd243 O247 2.439 . S
Cd243 O253 2.240 . S
Cd244 O245 2.240 1_565 S
Cd244 O252 2.223 . S
Cd244 O254 2.297 . S
Cd244 O255 2.439 . S
O245 Cd244 2.240 1_545 S
O245 C250 1.279 . S
O246 Cd243 2.297 . S
O246 C248 1.247 . S
O247 Cd243 2.439 . S
O247 C248 1.208 . S
C248 O246 1.247 . S
C248 O247 1.208 . S
C249 O254 1.247 . S
C249 O255 1.208 . S
C250 O242 1.315 . S
C250 O245 1.279 . S
C251 O252 1.315 . S
C251 O253 1.279 1_565 S
O252 Cd244 2.223 . S
O252 C251 1.315 . S
O253 Cd243 2.240 . S
O253 C251 1.279 1_545 S
O254 Cd244 2.297 . S
O254 C249 1.247 . S
O255 Cd244 2.439 . S
O255 C249 1.208 . S
C256 C257 1.349 . S
C256 C258 1.327 . S
C256 H281 0.950 . S
C257 C256 1.349 . S
C257 C273 1.349 1_545 S
C258 C256 1.327 . S
C258 C277 1.429 . S
C258 H282 0.950 . S
C259 C276 1.574 . S
C259 C278 1.368 1_565 S
C259 H283 0.949 . S
H260 C264 0.949 . S
C261 C262 1.349 . S
C261 C263 1.327 . S
C261 H284 0.950 1_545 S
C262 C261 1.349 . S
C262 C274 1.349 . S
C263 C261 1.327 . S
C263 C279 1.429 . S
C263 H285 0.950 1_545 S
C264 H260 0.949 . S
C264 C272 1.574 . S
C264 C280 1.368 . S
H265 C273 0.950 . S
H266 C271 0.950 . S
H267 C272 0.949 . S
H268 C274 0.950 . S
H269 C275 0.950 . S
H270 C276 0.949 . S
C271 H266 0.950 . S
C271 C273 1.327 . S
C271 C277 1.429 1_565 S
C272 C264 1.574 . S
C272 H267 0.949 . S
C272 C278 1.368 . S
C273 C257 1.349 1_565 S
C273 H265 0.950 . S
C273 C271 1.327 . S
C274 C262 1.349 . S
C274 H268 0.950 . S
C274 C275 1.327 . S
C275 H269 0.950 . S
C275 C274 1.327 . S
C275 C279 1.429 . S
C276 C259 1.574 . S
C276 H270 0.949 . S
C276 C280 1.368 1_565 S
C277 C258 1.429 . S
C277 C271 1.429 1_545 S
C277 C278 1.523 . S
C278 C259 1.368 1_545 S
C278 C272 1.368 . S
C278 C277 1.523 . S
C279 C263 1.429 . S
C279 C275 1.429 . S
C279 C280 1.523 . S
C280 C264 1.368 . S
C280 C276 1.368 1_545 S
C280 C279 1.523 . S
H281 C256 0.950 . S
H282 C258 0.950 . S
H283 C259 0.949 . S
H284 C261 0.950 1_565 S
H285 C263 0.950 1_565 S
C286 C287 1.349 . S
C286 C288 1.327 . S
C286 H311 0.950 . S
C287 C286 1.349 . S
C287 C303 1.349 . S
C288 C286 1.327 . S
C288 C307 1.429 . S
C288 H312 0.950 . S
C289 C306 1.574 . S
C289 C308 1.368 . S
C289 H313 0.949 . S
H290 C294 0.949 . S
C291 C292 1.349 . S
C291 C293 1.327 . S
C291 H314 0.950 1_455 S
C292 C291 1.349 . S
C292 C304 1.349 . S
C293 C291 1.327 . S
C293 C309 1.429 . S
C293 H315 0.950 . S
C294 H290 0.949 . S
C294 C302 1.574 . S
C294 C310 1.368 . S
H295 C303 0.950 . S
H296 C301 0.950 . S
H297 C302 0.949 . S
H298 C304 0.950 . S
H299 C305 0.950 . S
H300 C306 0.949 . S
C301 H296 0.950 . S
C301 C303 1.327 . S
C301 C307 1.429 . S
C302 C294 1.574 . S
C302 H297 0.949 . S
C302 C308 1.368 . S
C303 C287 1.349 . S
C303 H295 0.950 . S
C303 C301 1.327 . S
C304 C292 1.349 . S
C304 H298 0.950 . S
C304 C305 1.327 . S
C305 H299 0.950 . S
C305 C304 1.327 . S
C305 C309 1.429 . S
C306 C289 1.574 . S
C306 H300 0.949 . S
C306 C310 1.368 . S
C307 C288 1.429 . S
C307 C301 1.429 . S
C307 C308 1.523 . S
C308 C289 1.368 . S
C308 C302 1.368 . S
C308 C307 1.523 . S
C309 C293 1.429 . S
C309 C305 1.429 . S
C309 C310 1.523 . S
C310 C294 1.368 . S
C310 C306 1.368 . S
C310 C309 1.523 . S
H311 C286 0.950 . S
H312 C288 0.950 . S
H313 C289 0.949 . S
H314 C291 0.950 1_655 S
H315 C293 0.950 . S
C316 C317 1.349 . S
C316 C318 1.327 . S
C316 H341 0.950 . S
C317 C316 1.349 . S
C317 C333 1.349 1_545 S
C318 C316 1.327 . S
C318 C337 1.429 . S
C318 H342 0.950 . S
C319 C336 1.574 . S
C319 C338 1.368 1_565 S
C319 H343 0.949 . S
H320 C324 0.949 . S
C321 C322 1.349 . S
C321 C323 1.327 . S
C321 H344 0.950 . S
C322 C321 1.349 . S
C322 C334 1.349 1_565 S
C323 C321 1.327 . S
C323 C339 1.428 . S
C323 H345 0.950 . S
C324 H320 0.949 . S
C324 C332 1.574 . S
C324 C340 1.368 . S
H325 C333 0.950 . S
H326 C331 0.950 . S
H327 C332 0.949 . S
H328 C334 0.950 . S
H329 C335 0.950 . S
H330 C336 0.949 . S
C331 H326 0.950 . S
C331 C333 1.327 . S
C331 C337 1.429 1_565 S
C332 C324 1.574 . S
C332 H327 0.949 . S
C332 C338 1.368 . S
C333 C317 1.349 1_565 S
C333 H325 0.950 . S
C333 C331 1.327 . S
C334 C322 1.349 1_545 S
C334 H328 0.950 . S
C334 C335 1.327 . S
C335 H329 0.950 . S
C335 C334 1.327 . S
C335 C339 1.429 1_545 S
C336 C319 1.574 . S
C336 H330 0.949 . S
C336 C340 1.368 1_565 S
C337 C318 1.429 . S
C337 C331 1.429 1_545 S
C337 C338 1.523 . S
C338 C319 1.368 1_545 S
C338 C332 1.368 . S
C338 C337 1.523 . S
C339 C323 1.428 . S
C339 C335 1.429 1_565 S
C339 C340 1.523 1_565 S
C340 C324 1.368 . S
C340 C336 1.368 1_545 S
C340 C339 1.523 1_545 S
H341 C316 0.950 . S
H342 C318 0.950 . S
H343 C319 0.949 . S
H344 C321 0.950 . S
H345 C323 0.950 . S
C346 C347 1.349 . S
C346 C348 1.327 . S
C346 H371 0.950 . S
C347 C346 1.349 . S
C347 C363 1.349 . S
C348 C346 1.327 . S
C348 C367 1.429 . S
C348 H372 0.950 . S
C349 C366 1.574 . S
C349 C368 1.368 . S
C349 H373 0.949 . S
H350 C354 0.949 . S
C351 C352 1.349 . S
C351 C353 1.327 . S
C351 H374 0.950 . S
C352 C351 1.349 . S
C352 C364 1.349 . S
C353 C351 1.327 . S
C353 C369 1.429 . S
C353 H375 0.950 . S
C354 H350 0.949 . S
C354 C362 1.574 . S
C354 C370 1.368 . S
H355 C363 0.950 . S
H356 C361 0.950 . S
H357 C362 0.949 . S
H358 C364 0.950 . S
H359 C365 0.950 . S
H360 C366 0.949 . S
C361 H356 0.950 . S
C361 C363 1.327 . S
C361 C367 1.429 . S
C362 C354 1.574 . S
C362 H357 0.949 . S
C362 C368 1.368 . S
C363 C347 1.349 . S
C363 H355 0.950 . S
C363 C361 1.327 . S
C364 C352 1.349 . S
C364 H358 0.950 . S
C364 C365 1.327 . S
C365 H359 0.950 . S
C365 C364 1.327 . S
C365 C369 1.429 . S
C366 C349 1.574 . S
C366 H360 0.949 . S
C366 C370 1.368 . S
C367 C348 1.429 . S
C367 C361 1.429 . S
C367 C368 1.523 . S
C368 C349 1.368 . S
C368 C362 1.368 . S
C368 C367 1.523 . S
C369 C353 1.429 . S
C369 C365 1.429 . S
C369 C370 1.523 . S
C370 C354 1.368 . S
C370 C366 1.368 . S
C370 C369 1.523 . S
H371 C346 0.950 . S
H372 C348 0.950 . S
H373 C349 0.949 . S
H374 C351 0.950 . S
H375 C353 0.950 . S
C376 C377 1.349 1_565 S
C376 C378 1.327 . S
C376 H401 0.950 . S
C377 C376 1.349 1_545 S
C377 C393 1.349 . S
C378 C376 1.327 . S
C378 C397 1.429 1_565 S
C378 H402 0.950 . S
C379 C396 1.574 . S
C379 C398 1.368 . S
C379 H403 0.949 . S
H380 C384 0.949 . S
C381 C382 1.349 1_545 S
C381 C383 1.327 . S
C381 H404 0.950 . S
C382 C381 1.349 1_565 S
C382 C394 1.349 . S
C383 C381 1.327 . S
C383 C399 1.429 1_545 S
C383 H405 0.950 . S
C384 H380 0.949 . S
C384 C392 1.574 . S
C384 C400 1.368 . S
H385 C393 0.950 . S
H386 C391 0.950 . S
H387 C392 0.949 . S
H388 C394 0.950 . S
H389 C395 0.950 . S
H390 C396 0.949 . S
C391 H386 0.950 . S
C391 C393 1.327 . S
C391 C397 1.429 . S
C392 C384 1.574 . S
C392 H387 0.949 . S
C392 C398 1.368 1_565 S
C393 C377 1.349 . S
C393 H385 0.950 . S
C393 C391 1.327 . S
C394 C382 1.349 . S
C394 H388 0.950 . S
C394 C395 1.327 . S
C395 H389 0.950 . S
C395 C394 1.327 . S
C395 C399 1.429 . S
C396 C379 1.574 . S
C396 H390 0.949 . S
C396 C400 1.368 1_545 S
C397 C378 1.429 1_545 S
C397 C391 1.429 . S
C397 C398 1.523 . S
C398 C379 1.368 . S
C398 C392 1.368 1_545 S
C398 C397 1.523 . S
C399 C383 1.429 1_565 S
C399 C395 1.429 . S
C399 C400 1.523 . S
C400 C384 1.368 . S
C400 C396 1.368 1_565 S
C400 C399 1.523 . S
H401 C376 0.950 . S
H402 C378 0.950 . S
H403 C379 0.949 . S
H404 C381 0.950 . S
H405 C383 0.950 . S
C406 C407 1.349 . S
C406 C408 1.327 . S
C406 H431 0.950 . S
C407 C406 1.349 . S
C407 C423 1.349 . S
C408 C406 1.327 . S
C408 C427 1.429 . S
C408 H432 0.950 . S
C409 C426 1.574 . S
C409 C428 1.368 . S
C409 H433 0.949 . S
H410 C414 0.949 . S
C411 C412 1.349 . S
C411 C413 1.327 . S
C411 H434 0.950 . S
C412 C411 1.349 . S
C412 C424 1.349 . S
C413 C411 1.327 . S
C413 C429 1.429 . S
C413 H435 0.950 . S
C414 H410 0.949 . S
C414 C422 1.574 . S
C414 C430 1.368 . S
H415 C423 0.950 . S
H416 C421 0.950 . S
H417 C422 0.949 . S
H418 C424 0.950 . S
H419 C425 0.950 . S
H420 C426 0.949 . S
C421 H416 0.950 . S
C421 C423 1.327 . S
C421 C427 1.429 . S
C422 C414 1.574 . S
C422 H417 0.949 . S
C422 C428 1.368 . S
C423 C407 1.349 . S
C423 H415 0.950 . S
C423 C421 1.327 . S
C424 C412 1.349 . S
C424 H418 0.950 . S
C424 C425 1.327 . S
C425 H419 0.950 . S
C425 C424 1.327 . S
C425 C429 1.429 . S
C426 C409 1.574 . S
C426 H420 0.949 . S
C426 C430 1.368 . S
C427 C408 1.429 . S
C427 C421 1.429 . S
C427 C428 1.523 . S
C428 C409 1.368 . S
C428 C422 1.368 . S
C428 C427 1.523 . S
C429 C413 1.429 . S
C429 C425 1.429 . S
C429 C430 1.523 . S
C430 C414 1.368 . S
C430 C426 1.368 . S
C430 C429 1.523 . S
H431 C406 0.950 . S
H432 C408 0.950 . S
H433 C409 0.949 . S
H434 C411 0.950 . S
H435 C413 0.950 . S
C436 C437 1.354 . S
C436 C438 1.327 . S
C436 H461 0.950 . S
C437 C436 1.354 . S
C437 C453 1.345 1_545 S
C438 C436 1.327 . S
C438 C457 1.429 . S
C438 H462 0.950 . S
C439 C456 1.574 . S
C439 C458 1.368 1_565 S
C439 H463 0.949 . S
H440 C444 0.949 . S
C441 C442 1.349 . S
C441 C443 1.327 1_545 S
C441 H464 0.950 1_545 S
C442 C441 1.349 . S
C442 C454 1.349 . S
C443 C441 1.327 1_565 S
C443 C459 1.429 1_565 S
C443 H465 0.950 . S
C444 H440 0.949 . S
C444 C452 1.574 . S
C444 C460 1.368 . S
H445 C453 0.950 . S
H446 C451 0.950 . S
H447 C452 0.949 . S
H448 C454 0.950 . S
H449 C455 0.950 . S
H450 C456 0.949 . S
C451 H446 0.950 . S
C451 C453 1.327 . S
C451 C457 1.429 1_565 S
C452 C444 1.574 . S
C452 H447 0.949 . S
C452 C458 1.368 . S
C453 C437 1.345 1_565 S
C453 H445 0.950 . S
C453 C451 1.327 . S
C454 C442 1.349 . S
C454 H448 0.950 . S
C454 C455 1.327 . S
C455 H449 0.950 . S
C455 C454 1.327 . S
C455 C459 1.429 . S
C456 C439 1.574 . S
C456 H450 0.949 . S
C456 C460 1.368 1_565 S
C457 C438 1.429 . S
C457 C451 1.429 1_545 S
C457 C458 1.523 . S
C458 C439 1.368 1_545 S
C458 C452 1.368 . S
C458 C457 1.523 . S
C459 C443 1.429 1_545 S
C459 C455 1.429 . S
C459 C460 1.523 . S
C460 C444 1.368 . S
C460 C456 1.368 1_545 S
C460 C459 1.523 . S
H461 C436 0.950 . S
H462 C438 0.950 . S
H463 C439 0.949 . S
H464 C441 0.950 1_565 S
H465 C443 0.950 . S
C466 C467 1.349 . S
C466 C468 1.327 . S
C466 H491 0.950 . S
C467 C466 1.349 . S
C467 C483 1.349 . S
C468 C466 1.327 . S
C468 C487 1.429 . S
C468 H492 0.950 1_455 S
C469 C486 1.574 . S
C469 C488 1.368 . S
C469 H493 0.949 . S
H470 C474 0.949 1_655 S
C471 C472 1.349 . S
C471 C473 1.327 . S
C471 H494 0.950 . S
C472 C471 1.349 . S
C472 C484 1.349 1_455 S
C473 C471 1.327 . S
C473 C489 1.429 . S
C473 H495 0.950 . S
C474 H470 0.949 1_455 S
C474 C482 1.574 . S
C474 C490 1.368 . S
H475 C483 0.950 . S
H476 C481 0.950 . S
H477 C482 0.949 1_655 S
H478 C484 0.950 . S
H479 C485 0.925 1_655 S
H480 C486 0.949 . S
C481 H476 0.950 . S
C481 C483 1.327 . S
C481 C487 1.429 . S
C482 C474 1.574 . S
C482 H477 0.949 1_455 S
C482 C488 1.368 . S
C483 C467 1.349 . S
C483 H475 0.950 . S
C483 C481 1.327 . S
C484 C472 1.349 1_655 S
C484 H478 0.950 . S
C484 C485 1.325 1_655 S
C485 H479 0.925 1_455 S
C485 C484 1.325 1_455 S
C485 C489 1.456 . S
C486 C469 1.574 . S
C486 H480 0.949 . S
C486 C490 1.368 . S
C487 C468 1.429 . S
C487 C481 1.429 . S
C487 C488 1.523 . S
C488 C469 1.368 . S
C488 C482 1.368 . S
C488 C487 1.523 . S
C489 C473 1.429 . S
C489 C485 1.456 . S
C489 C490 1.523 . S
C490 C474 1.368 . S
C490 C486 1.368 . S
C490 C489 1.523 . S
H491 C466 0.950 . S
H492 C468 0.950 1_655 S
H493 C469 0.949 . S
H494 C471 0.950 . S
H495 C473 0.950 . S
C262 C237 1.600 . S
C257 C11 0.989 1_545 S
C292 C248 1.369 . S
C287 C115 1.156 . S
C322 C236 1.400 1_655 S
C317 C1 1.098 . S
C352 C249 1.535 . S
C347 C125 1.023 . S
C382 C251 1.668 . S
C377 C55 1.224 1_545 S
C412 C235 1.460 . S
C407 C143 1.185 . S
C442 C250 1.495 1_655 S
C437 C29 1.192 . S
C467 C169 1.202 . S
C472 C234 1.631 . S
