# Generated by pormake.
# Topology zzz, (3,6)-cn, num edge types: 1
# Building blocks:
#     Node 0, Type 0, BuildingBlock: BETDAH_clean_linker_0, # of connection points: 3
#     Node 1, Type 0, BuildingBlock: BETDAH_clean_linker_0, # of connection points: 3
#     Node 2, Type 0, BuildingBlock: BETDAH_clean_linker_0, # of connection points: 3
#     Node 3, Type 0, BuildingBlock: BETDAH_clean_linker_0, # of connection points: 3
#     Node 4, Type 0, BuildingBlock: BETDAH_clean_linker_0, # of connection points: 3
#     Node 5, Type 0, BuildingBlock: BETDAH_clean_linker_0, # of connection points: 3
#     Node 6, Type 0, BuildingBlock: BETDAH_clean_linker_0, # of connection points: 3
#     Node 7, Type 0, BuildingBlock: BETDAH_clean_linker_0, # of connection points: 3
#     Node 8, Type 1, BuildingBlock: BETDEL_clean_sbu_0, # of connection points: 6
#     Node 9, Type 1, BuildingBlock: BETDEL_clean_sbu_0, # of connection points: 6
#     Node 10, Type 1, BuildingBlock: BETDEL_clean_sbu_0, # of connection points: 6
#     Node 11, Type 1, BuildingBlock: BETDEL_clean_sbu_0, # of connection points: 6
#     Edge 12, Type (0, 1), BuildingBlock: TEMPAE_clean_linker_10, # of connection points: 2
#     Edge 13, Type (0, 1), BuildingBlock: TEMPAE_clean_linker_10, # of connection points: 2
#     Edge 14, Type (0, 1), BuildingBlock: TEMPAE_clean_linker_10, # of connection points: 2
#     Edge 15, Type (0, 1), BuildingBlock: TEMPAE_clean_linker_10, # of connection points: 2
#     Edge 16, Type (0, 1), BuildingBlock: TEMPAE_clean_linker_10, # of connection points: 2
#     Edge 17, Type (0, 1), BuildingBlock: TEMPAE_clean_linker_10, # of connection points: 2
#     Edge 18, Type (0, 1), BuildingBlock: TEMPAE_clean_linker_10, # of connection points: 2
#     Edge 19, Type (0, 1), BuildingBlock: TEMPAE_clean_linker_10, # of connection points: 2
#     Edge 20, Type (0, 1), BuildingBlock: TEMPAE_clean_linker_10, # of connection points: 2
#     Edge 21, Type (0, 1), BuildingBlock: TEMPAE_clean_linker_10, # of connection points: 2
#     Edge 22, Type (0, 1), BuildingBlock: TEMPAE_clean_linker_10, # of connection points: 2
#     Edge 23, Type (0, 1), BuildingBlock: TEMPAE_clean_linker_10, # of connection points: 2
#     Edge 24, Type (0, 1), BuildingBlock: TEMPAE_clean_linker_10, # of connection points: 2
#     Edge 25, Type (0, 1), BuildingBlock: TEMPAE_clean_linker_10, # of connection points: 2
#     Edge 26, Type (0, 1), BuildingBlock: TEMPAE_clean_linker_10, # of connection points: 2
#     Edge 27, Type (0, 1), BuildingBlock: TEMPAE_clean_linker_10, # of connection points: 2
#     Edge 28, Type (0, 1), BuildingBlock: TEMPAE_clean_linker_10, # of connection points: 2
#     Edge 29, Type (0, 1), BuildingBlock: TEMPAE_clean_linker_10, # of connection points: 2
#     Edge 30, Type (0, 1), BuildingBlock: TEMPAE_clean_linker_10, # of connection points: 2
#     Edge 31, Type (0, 1), BuildingBlock: TEMPAE_clean_linker_10, # of connection points: 2
#     Edge 32, Type (0, 1), BuildingBlock: TEMPAE_clean_linker_10, # of connection points: 2
#     Edge 33, Type (0, 1), BuildingBlock: TEMPAE_clean_linker_10, # of connection points: 2
#     Edge 34, Type (0, 1), BuildingBlock: TEMPAE_clean_linker_10, # of connection points: 2
#     Edge 35, Type (0, 1), BuildingBlock: TEMPAE_clean_linker_10, # of connection points: 2
# Relax obj value: 0.158
# Max RMSD: 0.176
# Mean RMSD: 0.116
data_MOF--net-zzz--node1-BETDEL_clean_sbu_0--node2-BETDAH_clean_linker_0--edge1-TEMPAE_clean_linker_10
_symmetry_space_group_name_H-M    P1
_symmetry_Int_Tables_number       1
_symmetry_cell_setting            triclinic
loop_
_symmetry_equiv_pos_as_xyz
'x, y, z'
_cell_length_a     50.272265
_cell_length_b     51.445094
_cell_length_c     15.044427
_cell_angle_alpha  91.754985
_cell_angle_beta   88.044603
_cell_angle_gamma 95.138621
loop_
_atom_site_label
_atom_site_type_symbol
_atom_site_fract_x
_atom_site_fract_y
_atom_site_fract_z
_atom_type_partial_charge
H0 H 0.8092 0.49876 0.13318 0.0
H1 H 0.73671 0.51184 0.00553 0.0
H2 H 0.7507 0.5413 0.27404 0.0
C3 C 0.78957 0.5061 0.13625 0.0
C4 C 0.7817 0.51983 0.21236 0.0
C5 C 0.77363 0.50323 0.06176 0.0
C6 C 0.7488 0.51376 0.06398 0.0
C7 C 0.74003 0.52704 0.14182 0.0
C8 C 0.7569 0.53046 0.2152 0.0
N9 N 0.71479 0.53759 0.14818 0.0
C10 C 0.69546 0.53431 0.08353 0.0
H11 H 0.00987 0.81741 0.03691 0.0
H12 H 0.98353 0.74041 0.94091 0.0
H13 H 0.99428 0.75572 0.22205 0.0
C14 C 1.00514 0.79682 0.04984 0.0
C15 C 1.00359 0.78861 0.13734 0.0
C16 C 0.99724 0.7799 0.97951 0.0
C17 C 0.99001 0.75344 0.9954 0.0
C18 C 0.99 0.74438 0.08328 0.0
C19 C 0.99583 0.76229 0.15417 0.0
N20 N 0.98296 0.7178 0.10326 0.0
C21 C 0.9841 0.69729 0.04124 0.0
H22 H 0.69221 0.01616 0.09274 0.0
H23 H 0.76813 0.99964 0.9777 0.0
H24 H 0.74554 0.97548 0.24453 0.0
C25 C 0.71149 0.0086 0.09998 0.0
C26 C 0.71669 0.99619 0.17822 0.0
C27 C 0.72986 0.00979 0.02807 0.0
C28 C 0.75427 0.99898 0.03446 0.0
C29 C 0.76033 0.98698 0.11355 0.0
C30 C 0.74122 0.98525 0.18455 0.0
N31 N 0.78512 0.97612 0.12301 0.0
C32 C 0.80612 0.97836 0.05999 0.0
H33 H 0.49273 0.69009 0.11673 0.0
H34 H 0.50694 0.7612 0.97411 0.0
H35 H 0.54524 0.75276 0.22334 0.0
C36 C 0.50156 0.71011 0.1135 0.0
C37 C 0.51883 0.71982 0.17965 0.0
C38 C 0.49727 0.72475 0.03939 0.0
C39 C 0.50987 0.7501 0.03247 0.0
C40 C 0.52676 0.76062 0.10033 0.0
C41 C 0.53162 0.7451 0.17266 0.0
N42 N 0.53969 0.78633 0.09694 0.0
C43 C 0.53418 0.80484 0.03612 0.0
H44 H 0.19669 0.51232 0.04144 0.0
H45 H 0.27173 0.49992 0.15371 0.0
H46 H 0.25642 0.47762 0.87915 0.0
C47 C 0.21683 0.50633 0.03324 0.0
C48 C 0.22466 0.49529 0.95207 0.0
C49 C 0.23353 0.50797 0.10595 0.0
C50 C 0.25908 0.49905 0.09666 0.0
C51 C 0.2678 0.48865 0.01368 0.0
C52 C 0.25022 0.48636 0.94206 0.0
N53 N 0.29371 0.47979 0.00045 0.0
C54 C 0.31347 0.48205 0.06375 0.0
H55 H 0.01562 0.19403 0.02319 0.0
H56 H 0.0293 0.26477 0.18041 0.0
H57 H 0.06289 0.25934 0.9126 0.0
C58 C 0.02366 0.21432 0.0291 0.0
C59 C 0.039 0.22523 0.95861 0.0
C60 C 0.02017 0.22823 0.10917 0.0
C61 C 0.03164 0.25409 0.1179 0.0
C62 C 0.04661 0.26568 0.04568 0.0
C63 C 0.05072 0.25086 0.96702 0.0
N64 N 0.05838 0.29182 0.05026 0.0
C65 C 0.05186 0.31025 0.11497 0.0
H66 H 0.32117 0.99656 0.0503 0.0
H67 H 0.24548 0.01322 0.16675 0.0
H68 H 0.26777 0.03757 0.8999 0.0
C69 C 0.3019 1.00417 0.04345 0.0
C70 C 0.29663 0.01668 0.96547 0.0
C71 C 0.28364 1.00301 0.11565 0.0
C72 C 0.25925 0.01388 0.10975 0.0
C73 C 0.25312 0.02597 0.03093 0.0
C74 C 0.27213 0.02772 0.95965 0.0
N75 N 0.22835 0.03693 0.02216 0.0
C76 C 0.20749 0.03464 0.0857 0.0
H77 H 0.51962 0.3225 0.02251 0.0
H78 H 0.50632 0.2514 0.16555 0.0
H79 H 0.46748 0.25935 0.91698 0.0
C80 C 0.51099 0.30241 0.02592 0.0
C81 C 0.49368 0.29253 0.96012 0.0
C82 C 0.51554 0.28787 0.1 0.0
C83 C 0.50318 0.26242 0.10719 0.0
C84 C 0.48627 0.25172 0.03968 0.0
C85 C 0.48114 0.26715 0.96737 0.0
N86 N 0.47358 0.22592 0.04341 0.0
C87 C 0.47919 0.2076 0.10484 0.0
Dy88 Dy 0.01657 0.9929 0.65256 0.0
C89 C 0.98705 0.06003 0.38755 0.0
C90 C 0.00924 0.95333 0.77033 0.0
Dy91 Dy 0.99699 0.02017 0.49383 0.0
O92 O 0.03239 0.96494 0.74644 0.0
O93 O 0.99056 0.965 0.73508 0.0
O94 O 0.05953 0.00637 0.62265 0.0
O95 O 0.03239 1.00021 0.51846 0.0
C96 C 0.05584 0.009 0.53798 0.0
C97 C 0.95911 1.00254 0.61209 0.0
O98 O 0.99701 0.98109 0.42374 0.0
O99 O 1.0042 0.96053 0.55493 0.0
O100 O 0.97304 0.05252 0.4573 0.0
O101 O 1.0059 0.04453 0.37171 0.0
O102 O 0.95577 1.00174 0.52672 0.0
O103 O 0.98188 0.01351 0.62932 0.0
O104 O 0.01956 0.03314 0.7127 0.0
O105 O 0.02101 0.05109 0.57301 0.0
C106 C 0.9992 0.95963 0.46893 0.0
C107 C 0.0242 0.05338 0.66003 0.0
Dy108 Dy 0.48472 0.99111 0.51466 0.0
C109 C 0.5769 0.03793 0.69973 0.0
C110 C 0.43654 0.97523 0.44498 0.0
Dy111 Dy 0.52873 0.02206 0.62976 0.0
O112 O 0.45801 0.98285 0.39876 0.0
O113 O 0.44163 0.97565 0.52902 0.0
O114 O 0.51525 0.96738 0.4446 0.0
O115 O 0.52648 0.00489 0.49691 0.0
C116 C 0.53517 0.98427 0.46484 0.0
C117 C 0.47821 0.02881 0.67936 0.0
O118 O 0.52266 0.05273 0.53243 0.0
O119 O 0.48323 0.03286 0.47433 0.0
O120 O 0.55544 0.03015 0.74578 0.0
O121 O 0.57179 0.03769 0.61572 0.0
O122 O 0.49808 0.04574 0.69979 0.0
O123 O 0.48705 0.00827 0.64739 0.0
O124 O 0.49076 0.96049 0.61204 0.0
O125 O 0.53028 0.98026 0.66966 0.0
C126 C 0.50148 0.05312 0.48233 0.0
C127 C 0.51199 0.96004 0.66181 0.0
Dy128 Dy 0.49001 0.51981 0.63872 0.0
C129 C 0.5399 0.45455 0.39392 0.0
C130 C 0.471 0.55791 0.74762 0.0
Dy131 Dy 0.52059 0.4925 0.50273 0.0
O132 O 0.46129 0.54974 0.67229 0.0
O133 O 0.49055 0.54425 0.7662 0.0
O134 O 0.45212 0.49854 0.59287 0.0
O135 O 0.48245 0.50967 0.49806 0.0
C136 C 0.45936 0.49797 0.50921 0.0
C137 C 0.55111 0.51448 0.63254 0.0
O138 O 0.52391 0.53071 0.43508 0.0
O139 O 0.51426 0.55213 0.56748 0.0
O140 O 0.54946 0.46269 0.4695 0.0
O141 O 0.52031 0.46813 0.37512 0.0
O142 O 0.5584 0.51395 0.54894 0.0
O143 O 0.52811 0.5026 0.64336 0.0
O144 O 0.48669 0.48156 0.7062 0.0
O145 O 0.49628 0.46017 0.57368 0.0
C146 C 0.52262 0.55256 0.48319 0.0
C147 C 0.48795 0.45972 0.658 0.0
Dy148 Dy 0.98579 0.48999 0.65366 0.0
C149 C 0.05926 0.51014 0.35616 0.0
C150 C 0.94121 0.47778 0.75637 0.0
Dy151 Dy 0.01955 0.51148 0.4836 0.0
O152 O 0.94715 0.46666 0.6808 0.0
O153 O 0.96069 0.49491 0.77968 0.0
O154 O 1.00076 0.45095 0.62381 0.0
O155 O 0.99513 0.47585 0.51858 0.0
C156 C 1.00361 0.45445 0.53868 0.0
C157 C 0.01275 0.54988 0.60636 0.0
O158 O 0.97859 0.51249 0.43109 0.0
O159 O 0.95838 0.51154 0.57308 0.0
O160 O 0.04526 0.5299 0.37366 0.0
O161 O 0.04992 0.4907 0.40431 0.0
O162 O 0.02498 0.55405 0.52988 0.0
O163 O 1.00556 0.52594 0.60922 0.0
O164 O 0.02605 0.49432 0.71494 0.0
O165 O 0.04899 0.49827 0.57754 0.0
C166 C 0.95757 0.51493 0.48601 0.0
C167 C 0.04845 0.4949 0.66473 0.0
C168 C 0.17798 0.00746 0.1866 0.0
C169 C 0.18568 0.03185 0.15091 0.0
C170 C 0.15666 0.00432 0.24942 0.0
C171 C 0.14283 0.02618 0.27704 0.0
C172 C 0.15071 0.05092 0.24086 0.0
C173 C 0.1721 0.05345 0.17801 0.0
C174 C 0.14891 0.97763 0.28615 0.0
C175 C 0.13656 0.07468 0.26855 0.0
C176 C 0.07283 0.0126 0.38006 0.0
C177 C 0.07775 0.01485 0.47127 0.0
C178 C 0.09374 0.01659 0.31609 0.0
C179 C 0.12021 0.02309 0.344 0.0
C180 C 0.12516 0.02598 0.43611 0.0
C181 C 0.10387 0.0218 0.49859 0.0
C182 C 0.08757 0.01335 0.21866 0.0
C183 C 0.15302 0.03303 0.46871 0.0
H184 H 0.18863 0.99081 0.16523 0.0
H185 H 0.17819 0.07231 0.14996 0.0
H186 H 0.15061 0.97834 0.35953 0.0
H187 H 0.12775 0.97142 0.27175 0.0
H188 H 0.16161 0.96265 0.25766 0.0
H189 H 0.14515 0.0925 0.23437 0.0
H190 H 0.11506 0.07131 0.25346 0.0
H191 H 0.13782 0.07823 0.34146 0.0
H192 H 0.05265 0.00728 0.35859 0.0
H193 H 0.10776 0.02367 0.56904 0.0
H194 H 0.09825 0.99716 0.18829 0.0
H195 H 0.09478 0.03133 0.18309 0.0
H196 H 0.06585 0.0091 0.20784 0.0
H197 H 0.16612 0.01759 0.44744 0.0
H198 H 0.15339 0.03543 0.5423 0.0
H199 H 0.16166 0.05147 0.43875 0.0
C200 C 0.4991 0.1668 0.13307 0.0
C201 C 0.48399 0.18696 0.16375 0.0
C202 C 0.50253 0.14561 0.18708 0.0
C203 C 0.49049 0.14466 0.27366 0.0
C204 C 0.47557 0.16537 0.30523 0.0
C205 C 0.47246 0.18632 0.24963 0.0
C206 C 0.51859 0.12399 0.15081 0.0
C207 C 0.46245 0.16513 0.39699 0.0
C208 C 0.47663 0.07769 0.37503 0.0
C209 C 0.49821 0.07696 0.43153 0.0
C210 C 0.47374 0.09967 0.32417 0.0
C211 C 0.49284 0.12159 0.32986 0.0
C212 C 0.51445 0.12117 0.38762 0.0
C213 C 0.51689 0.09889 0.43763 0.0
C214 C 0.45042 0.09928 0.26333 0.0
C215 C 0.5352 0.14415 0.39577 0.0
H216 H 0.50788 0.1674 0.06622 0.0
H217 H 0.46069 0.20199 0.27278 0.0
H218 H 0.53496 0.12108 0.19614 0.0
H219 H 0.50564 0.10538 0.14712 0.0
H220 H 0.52742 0.12812 0.08346 0.0
H221 H 0.45243 0.18317 0.41283 0.0
H222 H 0.44737 0.14808 0.4022 0.0
H223 H 0.47753 0.16303 0.44784 0.0
H224 H 0.46202 0.06094 0.36963 0.0
H225 H 0.53362 0.09863 0.48105 0.0
H226 H 0.45784 0.10129 0.19336 0.0
H227 H 0.43861 0.11609 0.27985 0.0
H228 H 0.43696 0.081 0.26806 0.0
H229 H 0.54557 0.14767 0.3304 0.0
H230 H 0.55037 0.14107 0.44552 0.0
H231 H 0.52544 0.16206 0.41527 0.0
C232 C 0.3399 0.50582 0.18075 0.0
C233 C 0.33509 0.4837 0.12538 0.0
C234 C 0.36109 0.50772 0.24005 0.0
C235 C 0.37776 0.48696 0.2438 0.0
C236 C 0.37293 0.46463 0.18712 0.0
C237 C 0.35162 0.46329 0.12846 0.0
C238 C 0.36552 0.53186 0.29919 0.0
C239 C 0.39012 0.44206 0.18908 0.0
C240 C 0.44542 0.50148 0.35143 0.0
C241 C 0.43961 0.49306 0.43828 0.0
C242 C 0.42563 0.49925 0.28684 0.0
C243 C 0.39951 0.48818 0.30958 0.0
C244 C 0.3939 0.47886 0.39641 0.0
C245 C 0.41397 0.48144 0.45957 0.0
C246 C 0.43246 0.50941 0.19505 0.0
C247 C 0.36645 0.46673 0.42342 0.0
H248 H 0.32707 0.52161 0.17773 0.0
H249 H 0.34783 0.44624 0.08502 0.0
H250 H 0.36318 0.52645 0.37004 0.0
H251 H 0.3862 0.54096 0.28884 0.0
H252 H 0.35131 0.54656 0.28637 0.0
H253 H 0.38417 0.42643 0.1392 0.0
H254 H 0.41138 0.44901 0.17603 0.0
H255 H 0.38867 0.43354 0.25613 0.0
H256 H 0.4652 0.51051 0.33464 0.0
H257 H 0.4094 0.47478 0.5265 0.0
H258 H 0.4203 0.5258 0.1823 0.0
H259 H 0.4275 0.4939 0.14392 0.0
H260 H 0.45393 0.51641 0.18667 0.0
H261 H 0.35163 0.48134 0.41911 0.0
H262 H 0.36564 0.45944 0.49229 0.0
H263 H 0.3603 0.45024 0.37719 0.0
C264 C 0.01983 0.33166 0.21345 0.0
C265 C 0.04568 0.33098 0.17688 0.0
C266 C 0.01334 0.35234 0.27097 0.0
C267 C 0.03326 0.37269 0.29197 0.0
C268 C 0.05947 0.37191 0.25485 0.0
C269 C 0.06536 0.351 0.19747 0.0
C270 C 0.98519 0.35245 0.30922 0.0
C271 C 0.08126 0.39315 0.27582 0.0
C272 C 0.01022 0.43714 0.38277 0.0
C273 C 0.01249 0.43445 0.47451 0.0
C274 C 0.01725 0.41734 0.32226 0.0
C275 C 0.02679 0.3944 0.35453 0.0
C276 C 0.02964 0.39192 0.44708 0.0
C277 C 0.02241 0.41196 0.50589 0.0
C278 C 0.01401 0.42073 0.22404 0.0
C279 C 0.03993 0.3679 0.48416 0.0
H280 H 1.00468 0.31609 0.19664 0.0
H281 H 0.08533 0.35035 0.16829 0.0
H282 H 0.98538 0.35231 0.38292 0.0
H283 H 0.97651 0.37056 0.29092 0.0
H284 H 0.97198 0.33536 0.28536 0.0
H285 H 0.10052 0.38976 0.2409 0.0
H286 H 0.07521 0.41235 0.25648 0.0
H287 H 0.08442 0.39434 0.34851 0.0
H288 H 1.00252 0.45452 0.35839 0.0
H289 H 0.0243 0.40988 0.57684 0.0
H290 H 0.99931 0.40521 0.19801 0.0
H291 H 0.03326 0.41864 0.18735 0.0
H292 H 0.00713 0.44004 0.20956 0.0
H293 H 0.02623 0.35044 0.46748 0.0
H294 H 0.04176 0.36938 0.55756 0.0
H295 H 0.05979 0.36472 0.45343 0.0
C296 C 0.8336 1.00407 0.94953 0.0
C297 C 0.82821 0.98094 0.99577 0.0
C298 C 0.85518 0.00701 0.88762 0.0
C299 C 0.87167 0.98627 0.87185 0.0
C300 C 0.86615 0.96281 0.91877 0.0
C301 C 0.84442 0.96044 0.98036 0.0
C302 C 0.86035 0.03232 0.83918 0.0
C303 C 0.88318 0.94025 0.9039 0.0
C304 C 0.9121 0.98611 0.65302 0.0
C305 C 0.93729 0.99692 0.67935 0.0
C306 C 0.89071 0.9821 0.71518 0.0
C307 C 0.89458 0.98914 0.80592 0.0
C308 C 0.92017 0.99958 0.8331 0.0
C309 C 0.94122 1.00332 0.76951 0.0
C310 C 0.86383 0.97077 0.68345 0.0
C311 C 0.92517 0.00732 0.9291 0.0
H312 H 0.82095 0.01988 0.96195 0.0
H313 H 0.84013 0.94257 0.01659 0.0
H314 H 0.88075 0.04132 0.85266 0.0
H315 H 0.85937 0.0285 0.76634 0.0
H316 H 0.84573 0.04655 0.85916 0.0
H317 H 0.87624 0.92337 0.94563 0.0
H318 H 0.88291 0.93371 0.83294 0.0
H319 H 0.90424 0.94657 0.91927 0.0
H320 H 0.90899 0.98107 0.58342 0.0
H321 H 0.96067 0.01169 0.7902 0.0
H322 H 0.84883 0.98513 0.69597 0.0
H323 H 0.85693 0.95311 0.72124 0.0
H324 H 0.86435 0.96543 0.61134 0.0
H325 H 0.91244 0.02304 0.95066 0.0
H326 H 0.94639 0.01434 0.93992 0.0
H327 H 0.9196 0.99047 0.97231 0.0
C328 C 0.51582 0.84665 0.01119 0.0
C329 C 0.52947 0.82572 0.97809 0.0
C330 C 0.51247 0.86798 0.95776 0.0
C331 C 0.52312 0.8683 0.86926 0.0
C332 C 0.5366 0.84686 0.83535 0.0
C333 C 0.53964 0.82578 0.89043 0.0
C334 C 0.49797 0.89038 -0.00348 0.0
C335 C 0.5482 0.84643 0.74151 0.0
C336 C 0.49581 0.91478 0.7098 0.0
C337 C 0.51528 0.93614 0.71225 0.0
C338 C 0.49826 0.89247 0.75959 0.0
C339 C 0.52072 0.89139 0.81323 0.0
C340 C 0.54062 0.9127 0.81509 0.0
C341 C 0.53767 0.93476 0.7647 0.0
C342 C 0.4766 0.87019 0.75578 0.0
C343 C 0.5649 0.91235 0.87132 0.0
H344 H 0.50809 0.84649 0.07939 0.0
H345 H 0.55029 0.80951 0.86539 0.0
H346 H 0.51167 0.90853 -0.00267 0.0
H347 H 0.48101 0.89384 0.9544 0.0
H348 H 0.49016 0.88675 0.06542 0.0
H349 H 0.5573 0.82795 0.7243 0.0
H350 H 0.53242 0.84894 0.6935 0.0
H351 H 0.56373 0.86298 0.73323 0.0
H352 H 0.47843 0.91555 0.66961 0.0
H353 H 0.5529 0.95105 0.76712 0.0
H354 H 0.46722 0.86719 0.82293 0.0
H355 H 0.48533 0.85182 0.73491 0.0
H356 H 0.46078 0.87372 0.70893 0.0
H357 H 0.5586 0.91078 0.9425 0.0
H358 H 0.57892 0.93015 0.86364 0.0
H359 H 0.57574 0.895 0.85301 0.0
C360 C 0.66975 0.50944 0.96702 0.0
C361 C 0.67411 0.53195 0.02085 0.0
C362 C 0.64879 0.5069 0.90677 0.0
C363 C 0.63191 0.52741 0.90052 0.0
C364 C 0.63628 0.55012 0.95567 0.0
C365 C 0.65736 0.5521 0.0153 0.0
C366 C 0.64485 0.48238 0.8493 0.0
C367 C 0.61884 0.57243 0.95108 0.0
C368 C 0.59634 0.53135 0.68268 0.0
C369 C 0.5707 0.51972 0.70379 0.0
C370 C 0.61623 0.53439 0.74646 0.0
C371 C 0.61041 0.52551 0.83375 0.0
C372 C 0.5843 0.51437 0.85621 0.0
C373 C 0.5647 0.51167 0.79097 0.0
C374 C 0.64367 0.54657 0.71974 0.0
C375 C 0.57726 0.50468 0.94848 0.0
H376 H 0.68274 0.49385 0.97198 0.0
H377 H 0.6608 0.56945 0.05758 0.0
H378 H 0.62423 0.47311 0.85939 0.0
H379 H 0.64739 0.48733 0.77807 0.0
H380 H 0.65918 0.46796 0.86398 0.0
H381 H 0.62443 0.58843 4e-05 0.0
H382 H 0.62045 0.58051 0.88337 0.0
H383 H 0.5976 0.56533 0.96366 0.0
H384 H 0.60105 0.53772 0.61548 0.0
H385 H 0.54492 0.50264 0.80761 0.0
H386 H 0.65862 0.53217 0.72612 0.0
H387 H 0.64948 0.56344 0.76483 0.0
H388 H 0.64469 0.55335 0.6502 0.0
H389 H 0.58962 0.48861 0.9631 0.0
H390 H 0.55584 0.49743 0.95631 0.0
H391 H 0.58179 0.52056 -0.00129 0.0
C392 C 0.00838 0.66025 0.98812 0.0
C393 C 0.98662 0.6751 0.98157 0.0
C394 C 0.01148 0.63869 0.93042 0.0
C395 C 0.99229 0.63195 0.86483 0.0
C396 C 0.96998 0.64678 0.85928 0.0
C397 C 0.96743 0.66829 0.91794 0.0
C398 C 0.0356 0.62349 0.9383 0.0
C399 C 0.94914 0.64025 0.79026 0.0
C400 C 0.01643 0.59637 0.65698 0.0
C401 C 1.00692 0.57044 0.67293 0.0
C402 C 0.01153 0.61652 0.71849 0.0
C403 C 0.99669 0.61063 0.79809 0.0
C404 C 0.9868 0.58446 0.81431 0.0
C405 C 0.9921 0.5646 0.75141 0.0
C406 C 0.02249 0.64412 0.69856 0.0
C407 C 0.97084 0.57743 0.89827 0.0
H408 H 0.02312 0.66565 0.03797 0.0
H409 H 0.95056 0.6799 0.91363 0.0
H410 H 0.02923 0.60244 0.94585 0.0
H411 H 0.04828 0.62533 0.87661 0.0
H412 H 0.04791 0.63042 0.99572 0.0
H413 H 0.93222 0.65271 0.79812 0.0
H414 H 0.95836 0.64289 0.72271 0.0
H415 H 0.94119 0.61949 0.79455 0.0
H416 H 0.02789 0.60094 0.59624 0.0
H417 H 0.98473 0.54456 0.76367 0.0
H418 H 0.03649 0.65163 0.75072 0.0
H419 H 1.00601 0.6571 0.69944 0.0
H420 H 0.03322 0.64546 0.63284 0.0
H421 H 0.98326 0.58231 0.95703 0.0
H422 H 0.96372 0.55635 0.89931 0.0
H423 H 0.95329 0.58905 0.90513 0.0
C424 C 0.98268 0.19907 0.16994 0.0
C425 C 0.00739 0.21328 0.18382 0.0
C426 C 0.97581 0.1755 0.21277 0.0
C427 C 0.99379 0.16647 0.27267 0.0
C428 C 0.01678 0.18278 0.29689 0.0
C429 C 0.02344 0.20606 0.25152 0.0
C430 C 0.95102 0.15885 0.18534 0.0
C431 C 0.03589 0.17431 0.3633 0.0
C432 C 0.97307 0.10509 0.40061 0.0
C433 C 0.98643 0.08629 0.3514 0.0
C434 C 0.97525 0.13128 0.37612 0.0
C435 C 0.99065 0.13873 0.29928 0.0
C436 C 1.00336 0.11962 0.24733 0.0
C437 C 1.00139 0.09363 0.27477 0.0
C438 C 0.96201 0.1511 0.4345 0.0
C439 C 0.01947 0.12674 0.16359 0.0
H440 H 0.97032 0.2047 0.11728 0.0
H441 H 0.0426 0.21697 0.26201 0.0
H442 H 0.95688 0.1427 0.14026 0.0
H443 H 0.94022 0.14993 0.24393 0.0
H444 H 0.93715 0.17025 0.14979 0.0
H445 H 0.04975 0.19092 0.387 0.0
H446 H 0.02487 0.1654 0.42153 0.0
H447 H 0.04795 0.15932 0.33163 0.0
H448 H 0.96179 0.09956 0.46085 0.0
H449 H 0.01184 0.07916 0.23711 0.0
H450 H 0.95007 0.16319 0.39417 0.0
H451 H 0.97756 0.16449 0.46682 0.0
H452 H 0.94876 0.14178 0.4873 0.0
H453 H 1.00696 0.13622 0.11693 0.0
H454 H 0.02728 0.10944 0.12917 0.0
H455 H 0.03661 0.14098 0.17995 0.0
C456 C 0.29797 0.96713 0.20338 0.0
C457 C 0.29263 0.9933 0.1995 0.0
C458 C 0.31678 0.9596 0.26206 0.0
C459 C 0.33087 0.97894 0.31558 0.0
C460 C 0.32282 0.00466 0.32017 0.0
C461 C 0.30356 0.01152 0.26203 0.0
C462 C 0.32404 0.93177 0.25775 0.0
C463 C 0.33722 0.02587 0.37663 0.0
C464 C 0.38716 0.96599 0.46603 0.0
C465 C 0.4095 0.97195 0.40949 0.0
C466 C 0.36115 0.96692 0.43569 0.0
C467 C 0.35763 0.97427 0.34729 0.0
C468 C 0.38019 0.97908 0.28896 0.0
C469 C 0.40584 0.97767 0.32077 0.0
C470 C 0.33762 0.96116 0.49919 0.0
C471 C 0.37739 0.98705 0.19399 0.0
H472 H 0.2895 0.95311 0.15449 0.0
H473 H 0.2995 0.0318 0.25815 0.0
H474 H 0.34175 0.93031 0.21236 0.0
H475 H 0.32925 0.92537 0.32423 0.0
H476 H 0.30743 0.91824 0.2319 0.0
H477 H 0.32581 0.04337 0.38446 0.0
H478 H 0.34088 0.01873 0.4435 0.0
H479 H 0.35695 0.03185 0.34459 0.0
H480 H 0.39002 0.96155 0.53486 0.0
H481 H 0.42311 0.98227 0.27706 0.0
H482 H 0.32165 0.94841 0.46644 0.0
H483 H 0.32906 0.97964 0.51971 0.0
H484 H 0.34342 0.95163 0.56004 0.0
H485 H 0.36428 0.97211 0.15775 0.0
H486 H 0.39694 0.98963 0.15713 0.0
H487 H 0.36792 0.00571 0.19332 0.0
C488 C 0.55446 0.31591 0.15421 0.0
C489 C 0.52977 0.30201 0.17354 0.0
C490 C 0.56205 0.3394 0.19992 0.0
C491 C 0.54465 0.3487 0.26706 0.0
C492 C 0.52204 0.33242 0.29663 0.0
C493 C 0.5148 0.30911 0.2491 0.0
C494 C 0.58667 0.35583 0.16784 0.0
C495 C 0.50354 0.34121 0.37051 0.0
C496 C 0.56046 0.41242 0.39611 0.0
C497 C 0.54514 0.42921 0.35187 0.0
C498 C 0.56137 0.38628 0.36775 0.0
C499 C 0.54682 0.37689 0.29289 0.0
C500 C 0.53274 0.39426 0.24455 0.0
C501 C 0.53194 0.42022 0.2751 0.0
C502 C 0.57649 0.36847 0.42135 0.0
C503 C 0.51744 0.38512 0.16291 0.0
H504 H 0.56607 0.31026 0.09581 0.0
H505 H 0.49571 0.29833 0.26413 0.0
H506 H 0.58066 0.371 0.12354 0.0
H507 H 0.59724 0.36595 0.22434 0.0
H508 H 0.60074 0.34389 0.12974 0.0
H509 H 0.48995 0.32471 0.39613 0.0
H510 H 0.51507 0.35047 0.42647 0.0
H511 H 0.49116 0.356 0.34505 0.0
H512 H 0.57061 0.41929 0.45595 0.0
H513 H 0.52011 0.43319 0.24095 0.0
H514 H 0.58708 0.35475 0.37756 0.0
H515 H 0.56215 0.35664 0.46481 0.0
H516 H 0.59125 0.37967 0.46434 0.0
H517 H 0.53063 0.37541 0.11417 0.0
H518 H 0.50904 0.40144 0.12977 0.0
H519 H 0.50074 0.37056 0.18184 0.0
C520 C 0.20951 0.53924 0.19736 0.0
C521 C 0.22129 0.51554 0.19214 0.0
C522 C 0.18512 0.54111 0.24396 0.0
C523 C 0.17303 0.51901 0.28823 0.0
C524 C 0.18763 0.497 0.29754 0.0
C525 C 0.21178 0.49548 0.24882 0.0
C526 C 0.17057 0.56522 0.23414 0.0
C527 C 0.17596 0.47353 0.34784 0.0
C528 C 0.10499 0.52413 0.40151 0.0
C529 C 0.08793 0.51382 0.3349 0.0
C530 C 0.13281 0.52547 0.38864 0.0
C531 C 0.14369 0.51673 0.30636 0.0
C532 C 0.12637 0.50612 0.23902 0.0
C533 C 0.09858 0.50464 0.25449 0.0
C534 C 0.15037 0.53627 0.46298 0.0
C535 C 0.13712 0.49646 0.15027 0.0
H536 H 0.21708 0.55481 0.15375 0.0
H537 H 0.221 0.47719 0.24521 0.0
H538 H 0.15504 0.56117 0.1836 0.0
H539 H 0.16038 0.57062 0.29767 0.0
H540 H 0.18432 0.5821 0.2123 0.0
H541 H 0.19159 0.46065 0.36435 0.0
H542 H 0.1656 0.47965 0.41019 0.0
H543 H 0.16102 0.46205 0.30639 0.0
H544 H 0.09647 0.53062 0.46474 0.0
H545 H 0.0852 0.4962 0.20416 0.0
H546 H 0.15792 0.55669 0.4488 0.0
H547 H 0.16794 0.5249 0.46858 0.0
H548 H 0.13925 0.53627 0.5281 0.0
H549 H 0.14601 0.51332 0.11175 0.0
H550 H 0.12122 0.4857 0.11086 0.0
H551 H 0.15305 0.48328 0.15922 0.0
C552 C 0.01431 0.80176 0.84357 0.0
C553 C 0.99216 0.79269 0.89645 0.0
C554 C 0.01531 0.82635 0.80495 0.0
C555 C 0.99403 0.84224 0.82261 0.0
C556 C 0.97013 0.83146 0.86475 0.0
C557 C 0.96918 0.80626 0.89828 0.0
C558 C 0.04036 0.83649 0.75457 0.0
C559 C 0.94709 0.8477 0.88695 0.0
C560 C 0.01476 0.91455 0.86268 0.0
C561 C 1.00529 0.92523 0.78701 0.0
C562 C 0.01081 0.88749 0.87571 0.0
C563 C 0.99823 0.87086 0.80929 0.0
C564 C 0.98926 0.88168 0.73178 0.0
C565 C 0.99238 0.90879 0.72261 0.0
C566 C 0.01966 0.87674 0.96116 0.0
C567 C 0.97632 0.86472 0.65868 0.0
H568 H 0.03211 0.79127 0.84209 0.0
H569 H 0.95213 0.79925 0.93985 0.0
H570 H 0.03539 0.84766 0.69631 0.0
H571 H 0.05281 0.84992 0.79864 0.0
H572 H 0.0524 0.82038 0.73123 0.0
H573 H 0.92844 0.83531 0.90359 0.0
H574 H 0.95215 0.86062 0.94553 0.0
H575 H 0.94324 0.86035 0.8314 0.0
H576 H 0.0247 0.92737 0.91219 0.0
H577 H 0.98517 0.91716 0.6637 0.0
H578 H 0.03476 0.86264 0.94641 0.0
H579 H 1.00237 0.86604 0.99588 0.0
H580 H 0.0284 0.89233 0.00698 0.0
H581 H 0.98837 0.84814 0.64121 0.0
H582 H 0.97387 0.87583 0.59777 0.0
H583 H 0.9563 0.85632 0.68185 0.0
C584 C 0.71004 1.00141 0.88147 0.0
C585 C 0.72098 0.01958 0.94416 0.0
C586 C 0.69074 0.00831 0.82352 0.0
C587 C 0.68264 0.03402 0.82854 0.0
C588 C 0.69674 0.05331 0.8822 0.0
C589 C 0.71561 0.04575 0.94058 0.0
C590 C 0.67636 0.98716 0.76678 0.0
C591 C 0.68942 0.08112 0.88701 0.0
C592 C 0.62627 0.04722 0.67869 0.0
C593 C 0.60395 0.04114 0.73518 0.0
C594 C 0.6523 0.04622 0.70885 0.0
C595 C 0.65585 0.03869 0.79703 0.0
C596 C 0.63331 0.03376 0.85534 0.0
C597 C 0.60764 0.03522 0.82371 0.0
C598 C 0.6758 0.05208 0.64533 0.0
C599 C 0.63614 0.02562 0.9501 0.0
H600 H 0.71411 0.98112 0.88511 0.0
H601 H 0.72408 0.05973 0.9896 0.0
H602 H 0.65666 0.98109 0.79884 0.0
H603 H 0.67266 0.9944 0.70009 0.0
H604 H 0.68782 0.9697 0.75855 0.0
H605 H 0.706 0.09464 0.9131 0.0
H606 H 0.68419 0.08761 0.82065 0.0
H607 H 0.67169 0.08247 0.93241 0.0
H608 H 0.62339 0.0518 0.61 0.0
H609 H 0.59039 0.03054 0.86739 0.0
H610 H 0.68424 0.03362 0.62396 0.0
H611 H 0.69186 0.06466 0.67835 0.0
H612 H 0.67 0.06186 0.58498 0.0
H613 H 0.61661 0.02299 0.98702 0.0
H614 H 0.64927 0.04049 0.98656 0.0
H615 H 0.64561 0.00694 0.95031 0.0
C616 C 0.45809 0.69718 0.98477 0.0
C617 C 0.48298 0.71076 0.96568 0.0
C618 C 0.45028 0.67371 0.93931 0.0
C619 C 0.46763 0.66411 0.87261 0.0
C620 C 0.49047 0.68008 0.84316 0.0
C621 C 0.49795 0.70338 0.89048 0.0
C622 C 0.42543 0.6576 0.97127 0.0
C623 C 0.50893 0.67098 0.76967 0.0
C624 C 0.47934 0.59233 0.86592 0.0
C625 C 0.46608 0.5834 0.78921 0.0
C626 C 0.47888 0.61837 0.896 0.0
C627 C 0.46512 0.63589 0.84718 0.0
C628 C 0.45053 0.62658 0.77232 0.0
C629 C 0.45107 0.60035 0.74449 0.0
C630 C 0.49421 0.62742 0.97766 0.0
C631 C 0.43576 0.64453 0.71815 0.0
H632 H 0.44649 0.70305 0.04291 0.0
H633 H 0.51718 0.7139 0.87564 0.0
H634 H 0.4148 0.64756 0.91473 0.0
H635 H 0.43116 0.64238 0.01583 0.0
H636 H 0.41149 0.66977 0.00904 0.0
H637 H 0.52273 0.68731 0.74395 0.0
H638 H 0.52108 0.65606 0.79558 0.0
H639 H 0.49737 0.66178 0.7137 0.0
H640 H 0.49095 0.57924 0.90043 0.0
H641 H 0.44088 0.59352 0.68465 0.0
H642 H 0.48113 0.6374 0.02608 0.0
H643 H 0.51112 0.64175 0.95865 0.0
H644 H 0.50233 0.61103 0.0112 0.0
H645 H 0.42535 0.65848 0.76153 0.0
H646 H 0.42089 0.63347 0.67518 0.0
H647 H 0.4503 0.6561 0.67462 0.0
C648 C 0.79567 0.46747 0.98598 0.0
C649 C 0.7859 0.49203 0.98066 0.0
C650 C 0.81876 0.46163 0.93747 0.0
C651 C 0.83177 0.48062 0.88107 0.0
C652 C 0.81942 0.50364 0.86484 0.0
C653 C 0.79652 0.50916 0.91541 0.0
C654 C 0.83103 0.43668 0.95575 0.0
C655 C 0.83214 0.5239 0.80238 0.0
C656 C 0.90766 0.4886 0.87525 0.0
C657 C 0.9137 0.47614 0.7942 0.0
C658 C 0.88098 0.48964 0.90511 0.0
C659 C 0.85999 0.47844 0.85143 0.0
C660 C 0.86608 0.46555 0.77007 0.0
C661 C 0.89288 0.46432 0.7429 0.0
C662 C 0.87524 0.50317 0.99333 0.0
C663 C 0.84437 0.45401 0.70987 0.0
H664 H 0.7874 0.4543 0.03682 0.0
H665 H 0.789 0.5282 0.9116 0.0
H666 H 0.83886 0.4277 0.89339 0.0
H667 H 0.8481 0.44116 0.00027 0.0
H668 H 0.81644 0.42223 0.98859 0.0
H669 H 0.81775 0.53786 0.78393 0.0
H670 H 0.84917 0.53508 0.83523 0.0
H671 H 0.84008 0.51455 0.74084 0.0
H672 H 0.92374 0.49788 0.91449 0.0
H673 H 0.89745 0.45498 0.67932 0.0
H674 H 0.86305 0.48957 0.03756 0.0
H675 H 0.86349 0.52003 0.98307 0.0
H676 H 0.89381 0.51036 0.02765 0.0
H677 H 0.82891 0.44181 0.74793 0.0
H678 H 0.85236 0.44194 0.65439 0.0
H679 H 0.83435 0.47001 0.68097 0.0
C680 C 0.02181 0.19803 0.83194 0.0
C681 C 0.04378 0.20791 0.88118 0.0
C682 C 0.02198 0.17404 0.7854 0.0
C683 C 0.04472 0.15975 0.78848 0.0
C684 C 0.068 0.17106 0.83003 0.0
C685 C 0.06722 0.19511 0.87637 0.0
C686 C 0.99681 0.16282 0.7411 0.0
C687 C 0.09281 0.15668 0.83309 0.0
C688 C 0.02825 0.08625 0.78644 0.0
C689 C 0.03265 0.07974 0.69648 0.0
C690 C 0.03306 0.11219 0.81795 0.0
C691 C 0.04274 0.13191 0.75806 0.0
C692 C 0.04851 0.12518 0.66821 0.0
C693 C 0.04333 0.09921 0.63849 0.0
C694 C 0.02659 0.11869 0.91443 0.0
C695 C 0.05906 0.14556 0.6026 0.0
H696 H 1.00357 0.20783 0.83717 0.0
H697 H 0.08401 0.20258 0.91595 0.0
H698 H 1.00149 0.15486 0.67359 0.0
H699 H 0.98726 0.14645 0.78063 0.0
H700 H 0.98218 0.17759 0.73549 0.0
H701 H 0.11045 0.16985 0.85313 0.0
H702 H 0.08949 0.14093 0.88207 0.0
H703 H 0.09732 0.14739 0.76743 0.0
H704 H 0.01998 0.07133 0.8314 0.0
H705 H 0.04711 0.0943 0.56888 0.0
H706 H 0.01026 0.13188 0.91901 0.0
H707 H 0.04424 0.12917 0.94594 0.0
H708 H 0.02027 0.101 0.95301 0.0
H709 H 0.04345 0.15892 0.5912 0.0
H710 H 0.06505 0.13674 0.53744 0.0
H711 H 0.07653 0.15758 0.62967 0.0
C712 C 0.32803 0.04414 0.86571 0.0
C713 C 0.31818 0.01942 0.89518 0.0
C714 C 0.35261 0.04762 0.81775 0.0
C715 C 0.36764 0.02591 0.79965 0.0
C716 C 0.35662 1.00064 0.82292 0.0
C717 C 0.33201 0.99772 0.86992 0.0
C718 C 0.36332 0.07479 0.79222 0.0
C719 C 0.37178 0.97689 0.80456 0.0
C720 C 0.42974 0.02701 0.64687 0.0
C721 C 0.45013 0.03071 0.70835 0.0
C722 C 0.40271 0.02675 0.67476 0.0
C723 C 0.39604 0.02969 0.76657 0.0
C724 C 0.41676 0.03418 0.82847 0.0
C725 C 0.44358 0.03498 0.79833 0.0
C726 C 0.38133 0.02284 0.60638 0.0
C727 C 0.4106 0.03696 0.92711 0.0
H728 H 0.3175 0.06099 0.88536 0.0
H729 H 0.32429 0.97853 0.89189 0.0
H730 H 0.37934 0.08213 0.83791 0.0
H731 H 0.37223 0.07469 0.72373 0.0
H732 H 0.34751 0.08859 0.79623 0.0
H733 H 0.38986 0.97832 0.84539 0.0
H734 H 0.35954 0.95845 0.82032 0.0
H735 H 0.37857 0.97589 0.73372 0.0
H736 H 0.43495 0.02439 0.57691 0.0
H737 H 0.45945 0.03784 0.84564 0.0
H738 H 0.36781 0.03873 0.61313 0.0
H739 H 0.36894 0.00424 0.61783 0.0
H740 H 0.38984 0.0224 0.53727 0.0
H741 H 0.39734 0.05283 0.94046 0.0
H742 H 0.42894 0.04127 0.96604 0.0
H743 H 0.39982 0.01863 0.95133 0.0
C744 C 0.50907 0.32383 0.843 0.0
C745 C 0.48773 0.31054 0.88996 0.0
C746 C 0.50567 0.34678 0.79853 0.0
C747 C 0.4802 0.35654 0.80034 0.0
C748 C 0.45805 0.34189 0.84077 0.0
C749 C 0.4621 0.31902 0.88562 0.0
C750 C 0.52985 0.36164 0.75592 0.0
C751 C 0.43048 0.35134 0.84226 0.0
C752 C 0.48377 0.43049 0.78903 0.0
C753 C 0.48144 0.43383 0.69768 0.0
C754 C 0.4821 0.40535 0.82416 0.0
C755 C 0.47759 0.38311 0.76663 0.0
C756 C 0.47348 0.3865 0.67535 0.0
C757 C 0.47563 0.41179 0.64194 0.0
C758 C 0.48686 0.40255 0.92187 0.0
C759 C 0.46829 0.36341 0.61194 0.0
H760 H 0.52891 0.31728 0.84684 0.0
H761 H 0.44566 0.30895 0.92287 0.0
H762 H 0.52574 0.36658 0.68678 0.0
H763 H 0.53453 0.38029 0.79359 0.0
H764 H 0.54775 0.35043 0.75457 0.0
H765 H 0.41487 0.33594 0.86371 0.0
H766 H 0.42977 0.36835 0.88916 0.0
H767 H 0.42569 0.3579 0.77553 0.0
H768 H 0.48839 0.44742 0.83228 0.0
H769 H 0.47354 0.41423 0.57126 0.0
H770 H 0.50581 0.39345 0.92971 0.0
H771 H 0.47059 0.38952 0.95276 0.0
H772 H 0.48816 0.42164 0.95876 0.0
H773 H 0.48686 0.35345 0.60092 0.0
H774 H 0.46169 0.36932 0.54636 0.0
H775 H 0.45285 0.34899 0.6405 0.0
C776 C 0.18865 0.46796 0.87573 0.0
C777 C 0.20428 0.49182 0.88319 0.0
C778 C 0.16363 0.46637 0.83578 0.0
C779 C 0.15409 0.48923 0.80299 0.0
C780 C 0.17067 0.513 0.80526 0.0
C781 C 0.1955 0.51402 0.84579 0.0
C782 C 0.14671 0.44062 0.8341 0.0
C783 C 0.16146 0.53775 0.77004 0.0
C784 C 0.09614 0.48532 0.64652 0.0
C785 C 0.07465 0.49143 0.7036 0.0
C786 C 0.12183 0.48389 0.67826 0.0
C787 C 0.12641 0.4887 0.76958 0.0
C788 C 0.10474 0.49416 0.82821 0.0
C789 C 0.07905 0.49536 0.79461 0.0
C790 C 0.14418 0.47775 0.6135 0.0
C791 C 0.10886 0.49924 0.92619 0.0
H792 H 0.1951 0.45099 0.90707 0.0
H793 H 0.20732 0.53259 0.85374 0.0
H794 H 0.12948 0.44167 0.88176 0.0
H795 H 0.13854 0.43635 0.76713 0.0
H796 H 0.15815 0.42418 0.85248 0.0
H797 H 0.17744 0.55413 0.77109 0.0
H798 H 0.15478 0.53443 0.70077 0.0
H799 H 0.1441 0.54362 0.81098 0.0
H800 H 0.09303 0.48189 0.57603 0.0
H801 H 0.06265 0.5001 0.83908 0.0
H802 H 0.15394 0.46069 0.63581 0.0
H803 H 0.15967 0.49451 0.61127 0.0
H804 H 0.13701 0.47347 0.54515 0.0
H805 H 0.11802 0.48258 0.95411 0.0
H806 H 0.08989 0.50208 0.96382 0.0
H807 H 0.12294 0.51689 0.93623 0.0
C808 C 0.98433 0.81335 0.2649 0.0
C809 C 1.00628 0.80916 0.20812 0.0
C810 C 0.98286 0.8373 0.31144 0.0
C811 C 1.0038 0.85739 0.3003 0.0
C812 C 0.02683 0.85253 0.24796 0.0
C813 C 0.02786 0.82838 0.20304 0.0
C814 C 0.95829 0.84163 0.36851 0.0
C815 C 0.04969 0.87334 0.23489 0.0
C816 C 0.98966 0.92851 0.33853 0.0
C817 C 0.99936 0.93359 0.42403 0.0
C818 C 0.99058 0.90358 0.29762 0.0
C819 C 1.00168 0.88354 0.34321 0.0
C820 C 0.01162 0.88867 0.42909 0.0
C821 C 0.0103 0.9135 0.4683 0.0
C822 C 0.97995 0.89871 0.20542 0.0
C823 C 0.02428 0.86812 0.4789 0.0
H824 H 0.96746 0.79868 0.26774 0.0
H825 H 0.04476 0.82516 0.15853 0.0
H826 H 0.96407 0.84849 0.43637 0.0
H827 H 0.94746 0.8571 0.33973 0.0
H828 H 0.94444 0.82363 0.37391 0.0
H829 H 0.06703 0.8657 0.19821 0.0
H830 H 0.04286 0.88949 0.19675 0.0
H831 H 0.05642 0.88172 0.29998 0.0
H832 H 0.98134 0.94391 0.30386 0.0
H833 H 0.01847 0.91723 0.53363 0.0
H834 H 0.96435 0.88201 0.20564 0.0
H835 H 0.99626 0.89336 0.15872 0.0
H836 H 0.97129 0.91604 0.17994 0.0
H837 H 0.01054 0.85005 0.48287 0.0
H838 H 0.02961 0.8748 0.54745 0.0
H839 H 0.04271 0.86291 0.44252 0.0
C840 C 0.68109 0.01517 0.2727 0.0
C841 C 0.69509 0.99351 0.24833 0.0
C842 C 0.65648 0.01223 0.31967 0.0
C843 C 0.64564 0.98699 0.34394 0.0
C844 C 0.66083 0.96534 0.32672 0.0
C845 C 0.68539 0.96884 0.27869 0.0
C846 C 0.64113 0.03591 0.337 0.0
C847 C 0.65032 0.93822 0.35337 0.0
C848 C 0.58366 0.98622 0.49708 0.0
C849 C 0.56323 0.98224 0.43585 0.0
C850 C 0.61067 0.98642 0.46906 0.0
C851 C 0.61728 0.98314 0.37733 0.0
C852 C 0.59652 0.97832 0.31572 0.0
C853 C 0.56971 0.97758 0.34603 0.0
C854 C 0.6321 0.99069 0.53717 0.0
C855 C 0.6026 0.97516 0.21717 0.0
H856 H 0.68868 0.03432 0.2501 0.0
H857 H 0.69605 0.95201 0.25976 0.0
H858 H 0.6344 0.03715 0.40785 0.0
H859 H 0.65321 0.05436 0.32027 0.0
H860 H 0.623 0.03415 0.29637 0.0
H861 H 0.64143 0.93851 0.42187 0.0
H862 H 0.63433 0.9306 0.30797 0.0
H863 H 0.66624 0.92454 0.34995 0.0
H864 H 0.5785 0.98913 0.56694 0.0
H865 H 0.55381 0.97449 0.29891 0.0
H866 H 0.64419 0.00944 0.52548 0.0
H867 H 0.64589 0.97502 0.5304 0.0
H868 H 0.62364 0.99106 0.60636 0.0
H869 H 0.61324 0.99345 0.192 0.0
H870 H 0.58425 0.97056 0.17855 0.0
H871 H 0.61598 0.95935 0.2045 0.0
C872 C 0.54995 0.69306 0.25515 0.0
C873 C 0.52443 0.70174 0.25001 0.0
C874 C 0.55369 0.67016 0.30031 0.0
C875 C 0.53134 0.65569 0.34022 0.0
C876 C 0.50596 0.66565 0.34119 0.0
C877 C 0.50288 0.68862 0.29645 0.0
C878 C 0.58116 0.6605 0.2997 0.0
C879 C 0.48158 0.65096 0.3832 0.0
C880 C 0.52719 0.58173 0.35206 0.0
C881 C 0.52928 0.57842 0.44352 0.0
C882 C 0.52912 0.60687 0.31676 0.0
C883 C 0.53365 0.62911 0.37425 0.0
C884 C 0.53748 0.62574 0.46571 0.0
C885 C 0.53507 0.60047 0.49928 0.0
C886 C 0.52464 0.60965 0.21886 0.0
C887 C 0.54266 0.64884 0.52908 0.0
H888 H 0.56656 0.70301 0.21831 0.0
H889 H 0.48312 0.69532 0.29201 0.0
H890 H 0.58571 0.65392 0.36662 0.0
H891 H 0.58185 0.64347 0.25291 0.0
H892 H 0.59693 0.67579 0.27862 0.0
H893 H 0.46378 0.66231 0.3839 0.0
H894 H 0.47686 0.63232 0.34553 0.0
H895 H 0.48546 0.64603 0.45253 0.0
H896 H 0.5226 0.5648 0.30879 0.0
H897 H 0.53698 0.59804 0.57006 0.0
H898 H 0.5411 0.62255 0.1883 0.0
H899 H 0.50581 0.61891 0.21037 0.0
H900 H 0.52329 0.59054 0.18209 0.0
H901 H 0.54893 0.64291 0.59506 0.0
H902 H 0.5242 0.65901 0.53914 0.0
H903 H 0.55836 0.66308 0.50097 0.0
C904 C 0.81722 0.54773 0.28918 0.0
C905 C 0.80135 0.52398 0.28339 0.0
C906 C 0.84213 0.54932 0.3298 0.0
C907 C 0.85129 0.52656 0.36469 0.0
C908 C 0.83425 0.5031 0.36548 0.0
C909 C 0.80949 0.50211 0.32468 0.0
C910 C 0.85949 0.57481 0.32905 0.0
C911 C 0.84306 0.47842 0.40268 0.0
C912 C 0.92569 0.51731 0.36156 0.0
C913 C 0.9315 0.52096 0.45174 0.0
C914 C 0.89982 0.51991 0.33185 0.0
C915 C 0.87937 0.52652 0.39371 0.0
C916 C 0.88545 0.53134 0.48406 0.0
C917 C 0.91134 0.52847 0.5119 0.0
C918 C 0.89408 0.51449 0.23485 0.0
C919 C 0.86436 0.53852 0.55213 0.0
H920 H 0.81119 0.56448 0.25543 0.0
H921 H 0.7974 0.48363 0.31853 0.0
H922 H 0.8683 0.57917 0.39506 0.0
H923 H 0.87625 0.5733 0.2798 0.0
H924 H 0.84816 0.59138 0.31117 0.0
H925 H 0.82658 0.46254 0.40556 0.0
H926 H 0.85965 0.47154 0.36025 0.0
H927 H 0.85069 0.48223 0.47059 0.0
H928 H 0.94105 0.51144 0.31475 0.0
H929 H 0.91559 0.53158 0.58178 0.0
H930 H 0.88502 0.53122 0.20686 0.0
H931 H 0.87941 0.49714 0.22812 0.0
H932 H 0.91237 0.51082 0.19457 0.0
H933 H 0.85371 0.55487 0.52858 0.0
H934 H 0.87292 0.54424 0.61774 0.0
H935 H 0.84929 0.52163 0.56148 0.0
loop_
_geom_bond_atom_site_label_1
_geom_bond_atom_site_label_2
_geom_bond_distance
_geom_bond_site_symmetry_2
_ccdc_geom_bond_type
H0 C3 0.929 . S
H1 C6 0.929 1_556 S
H2 C8 0.930 . S
C3 H0 0.929 . S
C3 C4 1.398 . S
C3 C5 1.396 . S
C4 C3 1.398 . S
C4 C8 1.407 . S
C5 C3 1.396 . S
C5 C6 1.394 . S
C6 H1 0.929 1_554 S
C6 C5 1.394 . S
C6 C7 1.382 . S
C7 C6 1.382 . S
C7 C8 1.392 . S
C7 N9 1.420 . S
C8 H2 0.930 . S
C8 C4 1.407 . S
C8 C7 1.392 . S
N9 C7 1.420 . S
N9 C10 1.244 . S
C10 N9 1.244 . S
H11 C14 0.929 . S
H12 C17 0.929 . S
H13 C19 0.930 . S
C14 H11 0.929 . S
C14 C15 1.393 1_655 S
C14 C16 1.394 1_654 S
C15 C14 1.393 1_455 S
C15 C19 1.416 . S
C16 C14 1.394 1_456 S
C16 C17 1.398 . S
C17 H12 0.929 . S
C17 C16 1.398 . S
C17 C18 1.382 1_556 S
C18 C17 1.382 1_554 S
C18 C19 1.392 . S
C18 N20 1.420 . S
C19 H13 0.930 . S
C19 C15 1.416 . S
C19 C18 1.392 . S
N20 C18 1.420 . S
N20 C21 1.232 1_454 S
C21 N20 1.232 1_656 S
H22 C25 0.929 . S
H23 C28 0.929 . S
H24 C30 0.930 . S
C25 H22 0.929 . S
C25 C26 1.398 . S
C25 C27 1.396 1_554 S
C26 C25 1.398 . S
C26 C30 1.407 . S
C27 C25 1.396 1_556 S
C27 C28 1.394 . S
C28 H23 0.929 . S
C28 C27 1.394 . S
C28 C29 1.382 1_556 S
C29 C28 1.382 1_554 S
C29 C30 1.392 . S
C29 N31 1.420 . S
C30 H24 0.930 . S
C30 C26 1.407 . S
C30 C29 1.392 . S
N31 C29 1.420 . S
N31 C32 1.244 1_554 S
C32 N31 1.244 1_556 S
H33 C36 0.929 . S
H34 C39 0.929 1_556 S
H35 C41 0.930 . S
C36 H33 0.929 . S
C36 C37 1.398 . S
C36 C38 1.396 . S
C37 C36 1.398 . S
C37 C41 1.407 . S
C38 C36 1.396 . S
C38 C39 1.394 . S
C39 H34 0.929 1_554 S
C39 C38 1.394 . S
C39 C40 1.382 . S
C40 C39 1.382 . S
C40 C41 1.392 . S
C40 N42 1.420 . S
C41 H35 0.930 . S
C41 C37 1.407 . S
C41 C40 1.392 . S
N42 C40 1.420 . S
N42 C43 1.244 . S
C43 N42 1.244 . S
H44 C47 0.929 . S
H45 C50 0.929 . S
H46 C52 0.930 . S
C47 H44 0.929 . S
C47 C48 1.398 1_554 S
C47 C49 1.396 . S
C48 C47 1.398 1_556 S
C48 C52 1.407 . S
C49 C47 1.396 . S
C49 C50 1.394 . S
C50 H45 0.929 . S
C50 C49 1.394 . S
C50 C51 1.382 . S
C51 C50 1.382 . S
C51 C52 1.392 1_554 S
C51 N53 1.420 . S
C52 H46 0.930 . S
C52 C48 1.407 . S
C52 C51 1.392 1_556 S
N53 C51 1.420 . S
N53 C54 1.244 . S
C54 N53 1.244 . S
H55 C58 0.929 . S
H56 C61 0.929 . S
H57 C63 0.930 1_556 S
C58 H55 0.929 . S
C58 C59 1.398 1_654 S
C58 C60 1.394 1_655 S
C59 C58 1.398 1_456 S
C59 C63 1.412 1_556 S
C60 C58 1.394 1_455 S
C60 C61 1.396 . S
C61 H56 0.929 . S
C61 C60 1.396 . S
C61 C62 1.382 . S
C62 C61 1.382 . S
C62 C63 1.392 . S
C62 N64 1.420 . S
C63 H57 0.930 1_554 S
C63 C59 1.412 1_554 S
C63 C62 1.392 . S
N64 C62 1.420 . S
N64 C65 1.236 1_455 S
C65 N64 1.236 1_655 S
H66 C69 0.929 . S
H67 C72 0.929 . S
H68 C74 0.930 1_556 S
C69 H66 0.929 . S
C69 C70 1.398 . S
C69 C71 1.396 . S
C70 C69 1.398 . S
C70 C74 1.407 . S
C71 C69 1.396 . S
C71 C72 1.394 . S
C72 H67 0.929 . S
C72 C71 1.394 . S
C72 C73 1.382 . S
C73 C72 1.382 . S
C73 C74 1.392 . S
C73 N75 1.420 . S
C74 H68 0.930 1_554 S
C74 C70 1.407 . S
C74 C73 1.392 . S
N75 C73 1.420 . S
N75 C76 1.244 . S
C76 N75 1.244 . S
H77 C80 0.929 . S
H78 C83 0.929 . S
H79 C85 0.930 . S
C80 H77 0.929 . S
C80 C81 1.398 1_554 S
C80 C82 1.396 . S
C81 C80 1.398 1_556 S
C81 C85 1.407 . S
C82 C80 1.396 . S
C82 C83 1.394 . S
C83 H78 0.929 . S
C83 C82 1.394 . S
C83 C84 1.382 . S
C84 C83 1.382 . S
C84 C85 1.392 1_554 S
C84 N86 1.420 . S
C85 H79 0.930 . S
C85 C81 1.407 . S
C85 C84 1.392 1_556 S
N86 C84 1.420 . S
N86 C87 1.244 . S
C87 N86 1.244 . S
Dy88 O92 2.398 . S
Dy88 O93 2.491 1_455 S
Dy88 O94 2.403 . S
Dy88 O95 2.664 1_565 S
Dy88 O99 2.326 . S
Dy88 O103 2.310 1_455 S
Dy88 O104 2.351 1_565 S
C89 O100 1.185 . S
C89 O101 1.355 1_655 S
C90 O92 1.185 . S
C90 O93 1.355 1_455 S
Dy91 O95 2.310 1_655 S
Dy91 O98 2.351 1_545 S
Dy91 O100 2.398 . S
Dy91 O101 2.491 1_655 S
Dy91 O102 2.403 . S
Dy91 O103 2.664 1_545 S
Dy91 O105 2.326 . S
O92 Dy88 2.398 . S
O92 C90 1.185 . S
O93 Dy88 2.491 1_655 S
O93 C90 1.355 1_655 S
O94 Dy88 2.403 . S
O94 C96 1.254 1_565 S
O95 Dy88 2.664 1_545 S
O95 Dy91 2.310 1_455 S
O95 C96 1.268 . S
C96 O94 1.254 1_545 S
C96 O95 1.268 . S
C97 O102 1.254 1_565 S
C97 O103 1.268 . S
O98 Dy91 2.351 1_565 S
O98 C106 1.249 . S
O99 Dy88 2.326 . S
O99 C106 1.267 1_455 S
O100 C89 1.185 . S
O100 Dy91 2.398 . S
O101 C89 1.355 1_455 S
O101 Dy91 2.491 1_455 S
O102 Dy91 2.403 . S
O102 C97 1.254 1_545 S
O103 Dy88 2.310 1_655 S
O103 Dy91 2.664 1_565 S
O103 C97 1.268 . S
O104 Dy88 2.351 1_545 S
O104 C107 1.249 . S
O105 Dy91 2.326 . S
O105 C107 1.267 1_655 S
C106 O98 1.249 . S
C106 O99 1.267 1_655 S
C107 O104 1.249 . S
C107 O105 1.267 1_455 S
Dy108 O112 2.398 . S
Dy108 O113 2.491 1_565 S
Dy108 O114 2.403 . S
Dy108 O115 2.664 . S
Dy108 O119 2.326 1_565 S
Dy108 O123 2.310 1_565 S
Dy108 O124 2.351 . S
C109 O120 1.212 . S
C109 O121 1.346 1_545 S
C110 O112 1.185 1_545 S
C110 O113 1.355 . S
Dy111 O115 2.310 1_545 S
Dy111 O118 2.351 . S
Dy111 O120 2.398 . S
Dy111 O121 2.491 1_545 S
Dy111 O122 2.403 . S
Dy111 O123 2.664 . S
Dy111 O125 2.326 1_545 S
O112 Dy108 2.398 . S
O112 C110 1.185 1_565 S
O113 Dy108 2.491 1_545 S
O113 C110 1.355 . S
O114 Dy108 2.403 . S
O114 C116 1.254 . S
O115 Dy108 2.664 . S
O115 Dy111 2.310 1_565 S
O115 C116 1.268 . S
C116 O114 1.254 . S
C116 O115 1.268 . S
C117 O122 1.254 . S
C117 O123 1.268 . S
O118 Dy111 2.351 . S
O118 C126 1.249 . S
O119 Dy108 2.326 1_545 S
O119 C126 1.267 . S
O120 C109 1.212 . S
O120 Dy111 2.398 . S
O121 C109 1.346 1_565 S
O121 Dy111 2.491 1_565 S
O122 Dy111 2.403 . S
O122 C117 1.254 . S
O123 Dy108 2.310 1_545 S
O123 Dy111 2.664 . S
O123 C117 1.268 . S
O124 Dy108 2.351 . S
O124 C127 1.249 . S
O125 Dy111 2.326 1_565 S
O125 C127 1.267 . S
C126 O118 1.249 . S
C126 O119 1.267 . S
C127 O124 1.249 . S
C127 O125 1.267 . S
Dy128 O132 2.398 . S
Dy128 O133 2.491 . S
Dy128 O134 2.403 . S
Dy128 O135 2.664 . S
Dy128 O139 2.326 . S
Dy128 O143 2.310 . S
Dy128 O144 2.351 . S
C129 O140 1.185 . S
C129 O141 1.355 . S
C130 O132 1.185 . S
C130 O133 1.355 . S
Dy131 O135 2.310 . S
Dy131 O138 2.351 . S
Dy131 O140 2.398 . S
Dy131 O141 2.491 . S
Dy131 O142 2.403 . S
Dy131 O143 2.664 . S
Dy131 O145 2.326 . S
O132 Dy128 2.398 . S
O132 C130 1.185 . S
O133 Dy128 2.491 . S
O133 C130 1.355 . S
O134 Dy128 2.403 . S
O134 C136 1.254 . S
O135 Dy128 2.664 . S
O135 Dy131 2.310 . S
O135 C136 1.268 . S
C136 O134 1.254 . S
C136 O135 1.268 . S
C137 O142 1.254 . S
C137 O143 1.268 . S
O138 Dy131 2.351 . S
O138 C146 1.249 . S
O139 Dy128 2.326 . S
O139 C146 1.267 . S
O140 C129 1.185 . S
O140 Dy131 2.398 . S
O141 C129 1.355 . S
O141 Dy131 2.491 . S
O142 Dy131 2.403 . S
O142 C137 1.254 . S
O143 Dy128 2.310 . S
O143 Dy131 2.664 . S
O143 C137 1.268 . S
O144 Dy128 2.351 . S
O144 C147 1.249 . S
O145 Dy131 2.326 . S
O145 C147 1.267 . S
C146 O138 1.249 . S
C146 O139 1.267 . S
C147 O144 1.249 . S
C147 O145 1.267 . S
Dy148 O152 2.398 . S
Dy148 O153 2.491 . S
Dy148 O154 2.403 . S
Dy148 O155 2.664 1_655 S
Dy148 O159 2.326 . S
Dy148 O163 2.310 . S
Dy148 O164 2.351 1_655 S
C149 O160 1.185 . S
C149 O161 1.355 . S
C150 O152 1.185 . S
C150 O153 1.355 . S
Dy151 O155 2.310 . S
Dy151 O158 2.351 1_455 S
Dy151 O160 2.398 . S
Dy151 O161 2.491 . S
Dy151 O162 2.403 . S
Dy151 O163 2.664 1_455 S
Dy151 O165 2.326 . S
O152 Dy148 2.398 . S
O152 C150 1.185 . S
O153 Dy148 2.491 . S
O153 C150 1.355 . S
O154 Dy148 2.403 . S
O154 C156 1.254 . S
O155 Dy148 2.664 1_455 S
O155 Dy151 2.310 . S
O155 C156 1.268 1_455 S
C156 O154 1.254 . S
C156 O155 1.268 1_655 S
C157 O162 1.254 . S
C157 O163 1.268 1_455 S
O158 Dy151 2.351 1_655 S
O158 C166 1.249 . S
O159 Dy148 2.326 . S
O159 C166 1.267 . S
O160 C149 1.185 . S
O160 Dy151 2.398 . S
O161 C149 1.355 . S
O161 Dy151 2.491 . S
O162 Dy151 2.403 . S
O162 C157 1.254 . S
O163 Dy148 2.310 . S
O163 Dy151 2.664 1_655 S
O163 C157 1.268 1_655 S
O164 Dy148 2.351 1_455 S
O164 C167 1.249 . S
O165 Dy151 2.326 . S
O165 C167 1.267 . S
C166 O158 1.249 . S
C166 O159 1.267 . S
C167 O164 1.249 . S
C167 O165 1.267 . S
C168 C169 1.391 . S
C168 C170 1.394 . S
C168 H184 0.931 . S
C169 C168 1.391 . S
C169 C173 1.376 . S
C170 C168 1.394 . S
C170 C171 1.369 . S
C170 C174 1.531 1_545 S
C171 C170 1.369 . S
C171 C172 1.410 . S
C171 C179 1.503 . S
C172 C171 1.410 . S
C172 C173 1.392 . S
C172 C175 1.511 . S
C173 C169 1.376 . S
C173 C172 1.392 . S
C173 H185 0.929 . S
C174 C170 1.531 1_565 S
C174 H186 0.960 . S
C174 H187 0.962 . S
C174 H188 0.960 . S
C175 C172 1.511 . S
C175 H189 0.961 . S
C175 H190 0.961 . S
C175 H191 0.961 . S
C176 C177 1.370 . S
C176 C178 1.363 . S
C176 H192 0.931 . S
C177 C176 1.370 . S
C177 C181 1.424 . S
C178 C176 1.363 . S
C178 C179 1.370 . S
C178 C182 1.524 . S
C179 C171 1.503 . S
C179 C178 1.370 . S
C179 C180 1.403 . S
C180 C179 1.403 . S
C180 C181 1.407 . S
C180 C183 1.539 1_545 S
C181 C177 1.424 . S
C181 C180 1.407 . S
C181 H193 0.912 1_545 S
C182 C178 1.524 . S
C182 H194 0.956 . S
C182 H195 0.961 . S
C182 H196 0.961 . S
C183 C180 1.539 1_565 S
C183 H197 0.958 . S
C183 H198 0.961 . S
C183 H199 0.960 1_565 S
H184 C168 0.931 . S
H185 C173 0.929 . S
H186 C174 0.960 . S
H187 C174 0.962 . S
H188 C174 0.960 . S
H189 C175 0.961 . S
H190 C175 0.961 . S
H191 C175 0.961 . S
H192 C176 0.931 . S
H193 C181 0.912 1_565 S
H194 C182 0.956 . S
H195 C182 0.961 . S
H196 C182 0.961 . S
H197 C183 0.958 . S
H198 C183 0.961 . S
H199 C183 0.960 1_545 S
C200 C201 1.391 . S
C200 C202 1.394 . S
C200 H216 0.931 . S
C201 C200 1.391 . S
C201 C205 1.376 . S
C202 C200 1.394 . S
C202 C203 1.369 . S
C202 C206 1.531 . S
C203 C202 1.369 . S
C203 C204 1.410 . S
C203 C211 1.503 . S
C204 C203 1.410 . S
C204 C205 1.392 . S
C204 C207 1.511 . S
C205 C201 1.376 . S
C205 C204 1.392 . S
C205 H217 0.929 . S
C206 C202 1.531 . S
C206 H218 0.960 . S
C206 H219 0.962 . S
C206 H220 0.960 . S
C207 C204 1.511 . S
C207 H221 0.961 . S
C207 H222 0.961 . S
C207 H223 0.961 . S
C208 C209 1.370 . S
C208 C210 1.363 . S
C208 H224 0.931 . S
C209 C208 1.370 . S
C209 C213 1.408 . S
C210 C208 1.363 . S
C210 C211 1.370 . S
C210 C214 1.524 . S
C211 C203 1.503 . S
C211 C210 1.370 . S
C211 C212 1.403 . S
C212 C211 1.403 . S
C212 C213 1.404 . S
C212 C215 1.539 . S
C213 C209 1.408 . S
C213 C212 1.404 . S
C213 H225 0.930 . S
C214 C210 1.524 . S
C214 H226 0.956 . S
C214 H227 0.961 . S
C214 H228 0.961 . S
C215 C212 1.539 . S
C215 H229 0.958 . S
C215 H230 0.961 . S
C215 H231 0.960 . S
H216 C200 0.931 . S
H217 C205 0.929 . S
H218 C206 0.960 . S
H219 C206 0.962 . S
H220 C206 0.960 . S
H221 C207 0.961 . S
H222 C207 0.961 . S
H223 C207 0.961 . S
H224 C208 0.931 . S
H225 C213 0.930 . S
H226 C214 0.956 . S
H227 C214 0.961 . S
H228 C214 0.961 . S
H229 C215 0.958 . S
H230 C215 0.961 . S
H231 C215 0.960 . S
C232 C233 1.391 . S
C232 C234 1.394 . S
C232 H248 0.931 . S
C233 C232 1.391 . S
C233 C237 1.376 . S
C234 C232 1.394 . S
C234 C235 1.369 . S
C234 C238 1.531 . S
C235 C234 1.369 . S
C235 C236 1.410 . S
C235 C243 1.503 . S
C236 C235 1.410 . S
C236 C237 1.392 . S
C236 C239 1.511 . S
C237 C233 1.376 . S
C237 C236 1.392 . S
C237 H249 0.929 . S
C238 C234 1.531 . S
C238 H250 0.960 . S
C238 H251 0.962 . S
C238 H252 0.960 . S
C239 C236 1.511 . S
C239 H253 0.961 . S
C239 H254 0.961 . S
C239 H255 0.961 . S
C240 C241 1.370 . S
C240 C242 1.363 . S
C240 H256 0.931 . S
C241 C240 1.370 . S
C241 C245 1.408 . S
C242 C240 1.363 . S
C242 C243 1.370 . S
C242 C246 1.524 . S
C243 C235 1.503 . S
C243 C242 1.370 . S
C243 C244 1.403 . S
C244 C243 1.403 . S
C244 C245 1.404 . S
C244 C247 1.539 . S
C245 C241 1.408 . S
C245 C244 1.404 . S
C245 H257 0.930 . S
C246 C242 1.524 . S
C246 H258 0.956 . S
C246 H259 0.961 . S
C246 H260 0.961 . S
C247 C244 1.539 . S
C247 H261 0.958 . S
C247 H262 0.961 . S
C247 H263 0.960 . S
H248 C232 0.931 . S
H249 C237 0.929 . S
H250 C238 0.960 . S
H251 C238 0.962 . S
H252 C238 0.960 . S
H253 C239 0.961 . S
H254 C239 0.961 . S
H255 C239 0.961 . S
H256 C240 0.931 . S
H257 C245 0.930 . S
H258 C246 0.956 . S
H259 C246 0.961 . S
H260 C246 0.961 . S
H261 C247 0.958 . S
H262 C247 0.961 . S
H263 C247 0.960 . S
C264 C265 1.391 1_655 S
C264 C266 1.394 . S
C264 H280 0.931 . S
C265 C264 1.391 1_455 S
C265 C269 1.376 . S
C266 C264 1.394 . S
C266 C267 1.369 1_655 S
C266 C270 1.531 . S
C267 C266 1.369 1_455 S
C267 C268 1.410 . S
C267 C275 1.503 . S
C268 C267 1.410 . S
C268 C269 1.392 . S
C268 C271 1.511 . S
C269 C265 1.376 . S
C269 C268 1.392 . S
C269 H281 0.929 . S
C270 C266 1.531 . S
C270 H282 0.960 . S
C270 H283 0.962 . S
C270 H284 0.960 . S
C271 C268 1.511 . S
C271 H285 0.961 . S
C271 H286 0.961 . S
C271 H287 0.961 . S
C272 C273 1.374 . S
C272 C274 1.363 . S
C272 H288 0.931 . S
C273 C272 1.374 . S
C273 C277 1.404 1_655 S
C274 C272 1.363 . S
C274 C275 1.370 1_655 S
C274 C278 1.524 . S
C275 C267 1.503 . S
C275 C274 1.370 1_455 S
C275 C276 1.403 . S
C276 C275 1.403 . S
C276 C277 1.404 . S
C276 C279 1.539 . S
C277 C273 1.404 1_455 S
C277 C276 1.404 . S
C277 H289 0.930 . S
C278 C274 1.524 . S
C278 H290 0.956 . S
C278 H291 0.961 . S
C278 H292 0.961 . S
C279 C276 1.539 . S
C279 H293 0.958 . S
C279 H294 0.961 . S
C279 H295 0.960 . S
H280 C264 0.931 . S
H281 C269 0.929 . S
H282 C270 0.960 . S
H283 C270 0.962 . S
H284 C270 0.960 . S
H285 C271 0.961 . S
H286 C271 0.961 . S
H287 C271 0.961 . S
H288 C272 0.931 . S
H289 C277 0.930 . S
H290 C278 0.956 . S
H291 C278 0.961 . S
H292 C278 0.961 . S
H293 C279 0.958 . S
H294 C279 0.961 . S
H295 C279 0.960 . S
C296 C297 1.391 . S
C296 C298 1.394 . S
C296 H312 0.931 . S
C297 C296 1.391 . S
C297 C301 1.376 . S
C298 C296 1.394 . S
C298 C299 1.369 . S
C298 C302 1.531 . S
C299 C298 1.369 . S
C299 C300 1.410 . S
C299 C307 1.503 . S
C300 C299 1.410 . S
C300 C301 1.392 . S
C300 C303 1.511 . S
C301 C297 1.376 . S
C301 C300 1.392 . S
C301 H313 0.929 1_556 S
C302 C298 1.531 . S
C302 H314 0.960 . S
C302 H315 0.962 . S
C302 H316 0.960 . S
C303 C300 1.511 . S
C303 H317 0.961 1_556 S
C303 H318 0.961 . S
C303 H319 0.961 . S
C304 C305 1.370 . S
C304 C306 1.363 . S
C304 H320 0.931 . S
C305 C304 1.370 . S
C305 C309 1.408 1_565 S
C306 C304 1.363 . S
C306 C307 1.370 . S
C306 C310 1.524 . S
C307 C299 1.503 . S
C307 C306 1.370 . S
C307 C308 1.403 1_565 S
C308 C307 1.403 1_545 S
C308 C309 1.404 . S
C308 C311 1.539 . S
C309 C305 1.408 1_545 S
C309 C308 1.404 . S
C309 H321 0.930 . S
C310 C306 1.524 . S
C310 H322 0.956 . S
C310 H323 0.961 . S
C310 H324 0.961 . S
C311 C308 1.539 . S
C311 H325 0.958 . S
C311 H326 0.961 . S
C311 H327 0.960 . S
H312 C296 0.931 . S
H313 C301 0.929 1_554 S
H314 C302 0.960 . S
H315 C302 0.962 . S
H316 C302 0.960 . S
H317 C303 0.961 1_554 S
H318 C303 0.961 . S
H319 C303 0.961 . S
H320 C304 0.931 . S
H321 C309 0.930 . S
H322 C310 0.956 . S
H323 C310 0.961 . S
H324 C310 0.961 . S
H325 C311 0.958 . S
H326 C311 0.961 . S
H327 C311 0.960 . S
C328 C329 1.391 . S
C328 C330 1.394 1_554 S
C328 H344 0.931 . S
C329 C328 1.391 . S
C329 C333 1.376 1_554 S
C330 C328 1.394 1_556 S
C330 C331 1.369 . S
C330 C334 1.531 1_556 S
C331 C330 1.369 . S
C331 C332 1.410 . S
C331 C339 1.503 . S
C332 C331 1.410 . S
C332 C333 1.392 . S
C332 C335 1.511 . S
C333 C329 1.376 1_556 S
C333 C332 1.392 . S
C333 H345 0.929 . S
C334 C330 1.531 1_554 S
C334 H346 0.960 1_554 S
C334 H347 0.962 1_554 S
C334 H348 0.960 . S
C335 C332 1.511 . S
C335 H349 0.961 . S
C335 H350 0.961 . S
C335 H351 0.961 . S
C336 C337 1.370 . S
C336 C338 1.363 . S
C336 H352 0.931 . S
C337 C336 1.370 . S
C337 C341 1.408 . S
C338 C336 1.363 . S
C338 C339 1.370 . S
C338 C342 1.524 . S
C339 C331 1.503 . S
C339 C338 1.370 . S
C339 C340 1.403 . S
C340 C339 1.403 . S
C340 C341 1.404 . S
C340 C343 1.539 . S
C341 C337 1.408 . S
C341 C340 1.404 . S
C341 H353 0.930 . S
C342 C338 1.524 . S
C342 H354 0.956 . S
C342 H355 0.961 . S
C342 H356 0.961 . S
C343 C340 1.539 . S
C343 H357 0.958 . S
C343 H358 0.961 . S
C343 H359 0.960 . S
H344 C328 0.931 . S
H345 C333 0.929 . S
H346 C334 0.960 1_556 S
H347 C334 0.962 1_556 S
H348 C334 0.960 . S
H349 C335 0.961 . S
H350 C335 0.961 . S
H351 C335 0.961 . S
H352 C336 0.931 . S
H353 C341 0.930 . S
H354 C342 0.956 . S
H355 C342 0.961 . S
H356 C342 0.961 . S
H357 C343 0.958 . S
H358 C343 0.961 . S
H359 C343 0.960 . S
C360 C361 1.391 . S
C360 C362 1.394 . S
C360 H376 0.931 . S
C361 C360 1.391 . S
C361 C365 1.376 1_556 S
C362 C360 1.394 . S
C362 C363 1.369 . S
C362 C366 1.531 . S
C363 C362 1.369 . S
C363 C364 1.410 . S
C363 C371 1.503 . S
C364 C363 1.410 . S
C364 C365 1.392 1_556 S
C364 C367 1.511 . S
C365 C361 1.376 1_554 S
C365 C364 1.392 1_554 S
C365 H377 0.929 . S
C366 C362 1.531 . S
C366 H378 0.960 . S
C366 H379 0.962 . S
C366 H380 0.960 . S
C367 C364 1.511 . S
C367 H381 0.961 . S
C367 H382 0.961 . S
C367 H383 0.961 1_556 S
C368 C369 1.370 . S
C368 C370 1.363 . S
C368 H384 0.931 . S
C369 C368 1.370 . S
C369 C373 1.408 . S
C370 C368 1.363 . S
C370 C371 1.370 . S
C370 C374 1.524 . S
C371 C363 1.503 . S
C371 C370 1.370 . S
C371 C372 1.403 . S
C372 C371 1.403 . S
C372 C373 1.404 . S
C372 C375 1.539 . S
C373 C369 1.408 . S
C373 C372 1.404 . S
C373 H385 0.930 . S
C374 C370 1.524 . S
C374 H386 0.956 . S
C374 H387 0.961 . S
C374 H388 0.961 . S
C375 C372 1.539 . S
C375 H389 0.958 . S
C375 H390 0.961 . S
C375 H391 0.960 . S
H376 C360 0.931 . S
H377 C365 0.929 . S
H378 C366 0.960 . S
H379 C366 0.962 . S
H380 C366 0.960 . S
H381 C367 0.961 . S
H382 C367 0.961 . S
H383 C367 0.961 1_554 S
H384 C368 0.931 . S
H385 C373 0.930 . S
H386 C374 0.956 . S
H387 C374 0.961 . S
H388 C374 0.961 . S
H389 C375 0.958 . S
H390 C375 0.961 . S
H391 C375 0.960 . S
C392 C393 1.391 1_455 S
C392 C394 1.394 . S
C392 H408 0.931 1_556 S
C393 C392 1.391 1_655 S
C393 C397 1.376 . S
C394 C392 1.394 . S
C394 C395 1.369 1_455 S
C394 C398 1.531 . S
C395 C394 1.369 1_655 S
C395 C396 1.410 . S
C395 C403 1.503 . S
C396 C395 1.410 . S
C396 C397 1.392 . S
C396 C399 1.511 . S
C397 C393 1.376 . S
C397 C396 1.392 . S
C397 H409 0.929 . S
C398 C394 1.531 . S
C398 H410 0.960 . S
C398 H411 0.962 . S
C398 H412 0.960 1_556 S
C399 C396 1.511 . S
C399 H413 0.961 . S
C399 H414 0.961 . S
C399 H415 0.961 . S
C400 C401 1.376 . S
C400 C402 1.363 . S
C400 H416 0.931 . S
C401 C400 1.376 . S
C401 C405 1.401 1_455 S
C402 C400 1.363 . S
C402 C403 1.370 1_455 S
C402 C406 1.524 . S
C403 C395 1.503 . S
C403 C402 1.370 1_655 S
C403 C404 1.403 . S
C404 C403 1.403 . S
C404 C405 1.404 . S
C404 C407 1.539 . S
C405 C401 1.401 1_655 S
C405 C404 1.404 . S
C405 H417 0.930 . S
C406 C402 1.524 . S
C406 H418 0.956 . S
C406 H419 0.961 . S
C406 H420 0.961 . S
C407 C404 1.539 . S
C407 H421 0.958 . S
C407 H422 0.961 . S
C407 H423 0.960 . S
H408 C392 0.931 1_554 S
H409 C397 0.929 . S
H410 C398 0.960 . S
H411 C398 0.962 . S
H412 C398 0.960 1_554 S
H413 C399 0.961 . S
H414 C399 0.961 . S
H415 C399 0.961 . S
H416 C400 0.931 . S
H417 C405 0.930 . S
H418 C406 0.956 . S
H419 C406 0.961 . S
H420 C406 0.961 . S
H421 C407 0.958 . S
H422 C407 0.961 . S
H423 C407 0.960 . S
C424 C425 1.377 1_655 S
C424 C426 1.394 . S
C424 H440 0.931 . S
C425 C424 1.377 1_455 S
C425 C429 1.391 . S
C426 C424 1.394 . S
C426 C427 1.369 . S
C426 C430 1.531 . S
C427 C426 1.369 . S
C427 C428 1.410 1_655 S
C427 C435 1.503 . S
C428 C427 1.410 1_455 S
C428 C429 1.392 . S
C428 C431 1.511 . S
C429 C425 1.391 . S
C429 C428 1.392 . S
C429 H441 0.929 . S
C430 C426 1.531 . S
C430 H442 0.960 . S
C430 H443 0.962 . S
C430 H444 0.960 . S
C431 C428 1.511 . S
C431 H445 0.961 . S
C431 H446 0.961 . S
C431 H447 0.961 . S
C432 C433 1.370 . S
C432 C434 1.363 . S
C432 H448 0.931 . S
C433 C432 1.370 . S
C433 C437 1.408 . S
C434 C432 1.363 . S
C434 C435 1.370 . S
C434 C438 1.524 . S
C435 C427 1.503 . S
C435 C434 1.370 . S
C435 C436 1.403 . S
C436 C435 1.403 . S
C436 C437 1.404 . S
C436 C439 1.539 1_655 S
C437 C433 1.408 . S
C437 C436 1.404 . S
C437 H449 0.930 . S
C438 C434 1.524 . S
C438 H450 0.956 . S
C438 H451 0.961 . S
C438 H452 0.961 . S
C439 C436 1.539 1_455 S
C439 H453 0.958 1_455 S
C439 H454 0.961 . S
C439 H455 0.960 . S
H440 C424 0.931 . S
H441 C429 0.929 . S
H442 C430 0.960 . S
H443 C430 0.962 . S
H444 C430 0.960 . S
H445 C431 0.961 . S
H446 C431 0.961 . S
H447 C431 0.961 . S
H448 C432 0.931 . S
H449 C437 0.930 . S
H450 C438 0.956 . S
H451 C438 0.961 . S
H452 C438 0.961 . S
H453 C439 0.958 1_655 S
H454 C439 0.961 . S
H455 C439 0.960 . S
C456 C457 1.391 . S
C456 C458 1.394 . S
C456 H472 0.931 . S
C457 C456 1.391 . S
C457 C461 1.376 . S
C458 C456 1.394 . S
C458 C459 1.369 . S
C458 C462 1.531 . S
C459 C458 1.369 . S
C459 C460 1.410 . S
C459 C467 1.503 . S
C460 C459 1.410 . S
C460 C461 1.392 . S
C460 C463 1.511 . S
C461 C457 1.376 . S
C461 C460 1.392 . S
C461 H473 0.929 . S
C462 C458 1.531 . S
C462 H474 0.960 1_545 S
C462 H475 0.962 . S
C462 H476 0.960 1_545 S
C463 C460 1.511 . S
C463 H477 0.961 . S
C463 H478 0.961 . S
C463 H479 0.961 . S
C464 C465 1.370 . S
C464 C466 1.363 . S
C464 H480 0.931 . S
C465 C464 1.370 . S
C465 C469 1.408 1_545 S
C466 C464 1.363 . S
C466 C467 1.370 . S
C466 C470 1.524 . S
C467 C459 1.503 . S
C467 C466 1.370 . S
C467 C468 1.403 1_545 S
C468 C467 1.403 1_565 S
C468 C469 1.404 . S
C468 C471 1.539 . S
C469 C465 1.408 1_565 S
C469 C468 1.404 . S
C469 H481 0.930 . S
C470 C466 1.524 . S
C470 H482 0.956 . S
C470 H483 0.961 . S
C470 H484 0.961 . S
C471 C468 1.539 . S
C471 H485 0.958 . S
C471 H486 0.961 . S
C471 H487 0.960 . S
H472 C456 0.931 . S
H473 C461 0.929 . S
H474 C462 0.960 1_565 S
H475 C462 0.962 . S
H476 C462 0.960 1_565 S
H477 C463 0.961 . S
H478 C463 0.961 . S
H479 C463 0.961 . S
H480 C464 0.931 . S
H481 C469 0.930 . S
H482 C470 0.956 . S
H483 C470 0.961 . S
H484 C470 0.961 . S
H485 C471 0.958 . S
H486 C471 0.961 . S
H487 C471 0.960 . S
C488 C489 1.391 . S
C488 C490 1.394 . S
C488 H504 0.931 . S
C489 C488 1.391 . S
C489 C493 1.376 . S
C490 C488 1.394 . S
C490 C491 1.369 . S
C490 C494 1.531 . S
C491 C490 1.369 . S
C491 C492 1.410 . S
C491 C499 1.503 . S
C492 C491 1.410 . S
C492 C493 1.392 . S
C492 C495 1.511 . S
C493 C489 1.376 . S
C493 C492 1.392 . S
C493 H505 0.929 . S
C494 C490 1.531 . S
C494 H506 0.960 . S
C494 H507 0.962 . S
C494 H508 0.960 . S
C495 C492 1.511 . S
C495 H509 0.961 . S
C495 H510 0.961 . S
C495 H511 0.961 . S
C496 C497 1.370 . S
C496 C498 1.363 . S
C496 H512 0.931 . S
C497 C496 1.370 . S
C497 C501 1.408 . S
C498 C496 1.363 . S
C498 C499 1.370 . S
C498 C502 1.524 . S
C499 C491 1.503 . S
C499 C498 1.370 . S
C499 C500 1.403 . S
C500 C499 1.403 . S
C500 C501 1.404 . S
C500 C503 1.539 . S
C501 C497 1.408 . S
C501 C500 1.404 . S
C501 H513 0.930 . S
C502 C498 1.524 . S
C502 H514 0.956 . S
C502 H515 0.961 . S
C502 H516 0.961 . S
C503 C500 1.539 . S
C503 H517 0.958 . S
C503 H518 0.961 . S
C503 H519 0.960 . S
H504 C488 0.931 . S
H505 C493 0.929 . S
H506 C494 0.960 . S
H507 C494 0.962 . S
H508 C494 0.960 . S
H509 C495 0.961 . S
H510 C495 0.961 . S
H511 C495 0.961 . S
H512 C496 0.931 . S
H513 C501 0.930 . S
H514 C502 0.956 . S
H515 C502 0.961 . S
H516 C502 0.961 . S
H517 C503 0.958 . S
H518 C503 0.961 . S
H519 C503 0.960 . S
C520 C521 1.391 . S
C520 C522 1.394 . S
C520 H536 0.931 . S
C521 C520 1.391 . S
C521 C525 1.376 . S
C522 C520 1.394 . S
C522 C523 1.369 . S
C522 C526 1.531 . S
C523 C522 1.369 . S
C523 C524 1.410 . S
C523 C531 1.503 . S
C524 C523 1.410 . S
C524 C525 1.392 . S
C524 C527 1.511 . S
C525 C521 1.376 . S
C525 C524 1.392 . S
C525 H537 0.929 . S
C526 C522 1.531 . S
C526 H538 0.960 . S
C526 H539 0.962 . S
C526 H540 0.960 . S
C527 C524 1.511 . S
C527 H541 0.961 . S
C527 H542 0.961 . S
C527 H543 0.961 . S
C528 C529 1.370 . S
C528 C530 1.363 . S
C528 H544 0.931 . S
C529 C528 1.370 . S
C529 C533 1.408 . S
C530 C528 1.363 . S
C530 C531 1.370 . S
C530 C534 1.524 . S
C531 C523 1.503 . S
C531 C530 1.370 . S
C531 C532 1.403 . S
C532 C531 1.403 . S
C532 C533 1.404 . S
C532 C535 1.539 . S
C533 C529 1.408 . S
C533 C532 1.404 . S
C533 H545 0.930 . S
C534 C530 1.524 . S
C534 H546 0.956 . S
C534 H547 0.961 . S
C534 H548 0.961 . S
C535 C532 1.539 . S
C535 H549 0.958 . S
C535 H550 0.961 . S
C535 H551 0.960 . S
H536 C520 0.931 . S
H537 C525 0.929 . S
H538 C526 0.960 . S
H539 C526 0.962 . S
H540 C526 0.960 . S
H541 C527 0.961 . S
H542 C527 0.961 . S
H543 C527 0.961 . S
H544 C528 0.931 . S
H545 C533 0.930 . S
H546 C534 0.956 . S
H547 C534 0.961 . S
H548 C534 0.961 . S
H549 C535 0.958 . S
H550 C535 0.961 . S
H551 C535 0.960 . S
C552 C553 1.391 1_455 S
C552 C554 1.394 . S
C552 H568 0.931 . S
C553 C552 1.391 1_655 S
C553 C557 1.376 . S
C554 C552 1.394 . S
C554 C555 1.385 . S
C554 C558 1.531 . S
C555 C554 1.385 . S
C555 C556 1.394 1_455 S
C555 C563 1.505 . S
C556 C555 1.394 1_655 S
C556 C557 1.392 . S
C556 C559 1.511 . S
C557 C553 1.376 . S
C557 C556 1.392 . S
C557 H569 0.929 1_556 S
C558 C554 1.531 . S
C558 H570 0.960 . S
C558 H571 0.962 . S
C558 H572 0.960 . S
C559 C556 1.511 . S
C559 H573 0.961 1_556 S
C559 H574 0.961 . S
C559 H575 0.961 . S
C560 C561 1.370 . S
C560 C562 1.363 . S
C560 H576 0.931 . S
C561 C560 1.370 . S
C561 C565 1.408 1_455 S
C562 C560 1.363 . S
C562 C563 1.370 . S
C562 C566 1.524 . S
C563 C555 1.505 . S
C563 C562 1.370 . S
C563 C564 1.403 1_455 S
C564 C563 1.403 1_655 S
C564 C565 1.404 . S
C564 C567 1.539 . S
C565 C561 1.408 1_655 S
C565 C564 1.404 . S
C565 H577 0.930 . S
C566 C562 1.524 . S
C566 H578 0.956 . S
C566 H579 0.961 . S
C566 H580 0.961 . S
C567 C564 1.539 . S
C567 H581 0.958 . S
C567 H582 0.961 . S
C567 H583 0.960 . S
H568 C552 0.931 . S
H569 C557 0.929 1_554 S
H570 C558 0.960 . S
H571 C558 0.962 . S
H572 C558 0.960 . S
H573 C559 0.961 1_554 S
H574 C559 0.961 . S
H575 C559 0.961 . S
H576 C560 0.931 . S
H577 C565 0.930 . S
H578 C566 0.956 . S
H579 C566 0.961 . S
H580 C566 0.961 . S
H581 C567 0.958 . S
H582 C567 0.961 . S
H583 C567 0.960 . S
C584 C585 1.391 . S
C584 C586 1.394 . S
C584 H600 0.931 1_556 S
C585 C584 1.391 . S
C585 C589 1.376 . S
C586 C584 1.394 . S
C586 C587 1.369 . S
C586 C590 1.531 . S
C587 C586 1.369 . S
C587 C588 1.410 . S
C587 C595 1.503 . S
C588 C587 1.410 . S
C588 C589 1.392 . S
C588 C591 1.511 1_565 S
C589 C585 1.376 . S
C589 C588 1.392 . S
C589 H601 0.929 . S
C590 C586 1.531 . S
C590 H602 0.960 . S
C590 H603 0.962 . S
C590 H604 0.960 1_556 S
C591 C588 1.511 1_545 S
C591 H605 0.961 . S
C591 H606 0.961 . S
C591 H607 0.961 . S
C592 C593 1.370 . S
C592 C594 1.363 . S
C592 H608 0.931 . S
C593 C592 1.370 . S
C593 C597 1.408 1_565 S
C594 C592 1.363 . S
C594 C595 1.370 . S
C594 C598 1.524 . S
C595 C587 1.503 . S
C595 C594 1.370 . S
C595 C596 1.403 1_565 S
C596 C595 1.403 1_545 S
C596 C597 1.404 . S
C596 C599 1.539 . S
C597 C593 1.408 1_545 S
C597 C596 1.404 . S
C597 H609 0.930 . S
C598 C594 1.524 . S
C598 H610 0.956 . S
C598 H611 0.961 . S
C598 H612 0.961 . S
C599 C596 1.539 . S
C599 H613 0.958 1_556 S
C599 H614 0.961 . S
C599 H615 0.960 . S
H600 C584 0.931 1_554 S
H601 C589 0.929 . S
H602 C590 0.960 . S
H603 C590 0.962 . S
H604 C590 0.960 1_554 S
H605 C591 0.961 . S
H606 C591 0.961 . S
H607 C591 0.961 . S
H608 C592 0.931 . S
H609 C597 0.930 . S
H610 C598 0.956 . S
H611 C598 0.961 . S
H612 C598 0.961 . S
H613 C599 0.958 1_554 S
H614 C599 0.961 . S
H615 C599 0.960 . S
C616 C617 1.391 1_554 S
C616 C618 1.392 1_554 S
C616 H632 0.932 . S
C617 C616 1.391 1_556 S
C617 C621 1.376 . S
C618 C616 1.392 1_556 S
C618 C619 1.369 . S
C618 C622 1.531 . S
C619 C618 1.369 . S
C619 C620 1.410 . S
C619 C627 1.503 . S
C620 C619 1.410 . S
C620 C621 1.392 . S
C620 C623 1.511 . S
C621 C617 1.376 . S
C621 C620 1.392 . S
C621 H633 0.929 . S
C622 C618 1.531 . S
C622 H634 0.960 . S
C622 H635 0.962 . S
C622 H636 0.960 . S
C623 C620 1.511 . S
C623 H637 0.961 . S
C623 H638 0.961 . S
C623 H639 0.961 . S
C624 C625 1.370 . S
C624 C626 1.363 . S
C624 H640 0.931 . S
C625 C624 1.370 . S
C625 C629 1.408 . S
C626 C624 1.363 . S
C626 C627 1.370 . S
C626 C630 1.524 . S
C627 C619 1.503 . S
C627 C626 1.370 . S
C627 C628 1.403 . S
C628 C627 1.403 . S
C628 C629 1.404 . S
C628 C631 1.539 . S
C629 C625 1.408 . S
C629 C628 1.404 . S
C629 H641 0.930 . S
C630 C626 1.524 . S
C630 H642 0.956 1_556 S
C630 H643 0.961 . S
C630 H644 0.961 . S
C631 C628 1.539 . S
C631 H645 0.958 . S
C631 H646 0.961 . S
C631 H647 0.960 . S
H632 C616 0.932 . S
H633 C621 0.929 . S
H634 C622 0.960 . S
H635 C622 0.962 . S
H636 C622 0.960 . S
H637 C623 0.961 . S
H638 C623 0.961 . S
H639 C623 0.961 . S
H640 C624 0.931 . S
H641 C629 0.930 . S
H642 C630 0.956 1_554 S
H643 C630 0.961 . S
H644 C630 0.961 . S
H645 C631 0.958 . S
H646 C631 0.961 . S
H647 C631 0.960 . S
C648 C649 1.391 . S
C648 C650 1.394 . S
C648 H664 0.931 1_556 S
C649 C648 1.391 . S
C649 C653 1.376 . S
C650 C648 1.394 . S
C650 C651 1.369 . S
C650 C654 1.531 . S
C651 C650 1.369 . S
C651 C652 1.410 . S
C651 C659 1.503 . S
C652 C651 1.410 . S
C652 C653 1.392 . S
C652 C655 1.511 . S
C653 C649 1.376 . S
C653 C652 1.392 . S
C653 H665 0.929 . S
C654 C650 1.531 . S
C654 H666 0.960 . S
C654 H667 0.962 . S
C654 H668 0.960 . S
C655 C652 1.511 . S
C655 H669 0.961 . S
C655 H670 0.961 . S
C655 H671 0.961 . S
C656 C657 1.370 . S
C656 C658 1.363 . S
C656 H672 0.931 . S
C657 C656 1.370 . S
C657 C661 1.408 . S
C658 C656 1.363 . S
C658 C659 1.370 . S
C658 C662 1.524 . S
C659 C651 1.503 . S
C659 C658 1.370 . S
C659 C660 1.403 . S
C660 C659 1.403 . S
C660 C661 1.404 . S
C660 C663 1.539 . S
C661 C657 1.408 . S
C661 C660 1.404 . S
C661 H673 0.930 . S
C662 C658 1.524 . S
C662 H674 0.965 . S
C662 H675 0.961 . S
C662 H676 0.961 . S
C663 C660 1.539 . S
C663 H677 0.958 . S
C663 H678 0.961 . S
C663 H679 0.960 . S
H664 C648 0.931 1_554 S
H665 C653 0.929 . S
H666 C654 0.960 . S
H667 C654 0.962 . S
H668 C654 0.960 . S
H669 C655 0.961 . S
H670 C655 0.961 . S
H671 C655 0.961 . S
H672 C656 0.931 . S
H673 C661 0.930 . S
H674 C662 0.965 . S
H675 C662 0.961 . S
H676 C662 0.961 . S
H677 C663 0.958 . S
H678 C663 0.961 . S
H679 C663 0.960 . S
C680 C681 1.391 1_655 S
C680 C682 1.394 . S
C680 H696 0.931 . S
C681 C680 1.391 1_455 S
C681 C685 1.376 . S
C682 C680 1.394 . S
C682 C683 1.369 1_655 S
C682 C686 1.531 . S
C683 C682 1.369 1_455 S
C683 C684 1.410 . S
C683 C691 1.503 . S
C684 C683 1.410 . S
C684 C685 1.392 . S
C684 C687 1.511 . S
C685 C681 1.376 . S
C685 C684 1.392 . S
C685 H697 0.919 1_556 S
C686 C682 1.531 . S
C686 H698 0.960 . S
C686 H699 0.962 . S
C686 H700 0.960 . S
C687 C684 1.511 . S
C687 H701 0.961 1_556 S
C687 H702 0.961 . S
C687 H703 0.961 . S
C688 C689 1.370 1_655 S
C688 C690 1.363 . S
C688 H704 0.931 . S
C689 C688 1.370 1_455 S
C689 C693 1.408 . S
C690 C688 1.363 . S
C690 C691 1.370 1_655 S
C690 C694 1.524 . S
C691 C683 1.503 . S
C691 C690 1.370 1_455 S
C691 C692 1.403 . S
C692 C691 1.403 . S
C692 C693 1.404 . S
C692 C695 1.539 . S
C693 C689 1.408 . S
C693 C692 1.404 . S
C693 H705 0.930 . S
C694 C690 1.524 . S
C694 H706 0.956 . S
C694 H707 0.961 . S
C694 H708 0.961 . S
C695 C692 1.539 . S
C695 H709 0.958 . S
C695 H710 0.961 . S
C695 H711 0.960 . S
H696 C680 0.931 . S
H697 C685 0.919 1_554 S
H698 C686 0.960 . S
H699 C686 0.962 . S
H700 C686 0.960 . S
H701 C687 0.961 1_554 S
H702 C687 0.961 . S
H703 C687 0.961 . S
H704 C688 0.931 . S
H705 C693 0.930 . S
H706 C694 0.956 . S
H707 C694 0.961 . S
H708 C694 0.961 . S
H709 C695 0.958 . S
H710 C695 0.961 . S
H711 C695 0.960 . S
C712 C713 1.391 . S
C712 C714 1.394 . S
C712 H728 0.931 1_556 S
C713 C712 1.391 . S
C713 C717 1.376 . S
C714 C712 1.394 . S
C714 C715 1.369 . S
C714 C718 1.531 1_556 S
C715 C714 1.369 . S
C715 C716 1.410 . S
C715 C723 1.503 . S
C716 C715 1.410 . S
C716 C717 1.392 . S
C716 C719 1.511 . S
C717 C713 1.376 . S
C717 C716 1.392 . S
C717 H729 0.929 . S
C718 C714 1.531 1_554 S
C718 H730 0.960 1_554 S
C718 H731 0.962 . S
C718 H732 0.960 . S
C719 C716 1.511 . S
C719 H733 0.961 . S
C719 H734 0.961 . S
C719 H735 0.961 . S
C720 C721 1.370 . S
C720 C722 1.363 . S
C720 H736 0.931 . S
C721 C720 1.370 . S
C721 C725 1.408 1_545 S
C722 C720 1.363 . S
C722 C723 1.370 . S
C722 C726 1.524 . S
C723 C715 1.503 . S
C723 C722 1.370 . S
C723 C724 1.372 1_545 S
C724 C723 1.372 1_565 S
C724 C725 1.411 . S
C724 C727 1.564 . S
C725 C721 1.408 1_565 S
C725 C724 1.411 . S
C725 H737 0.930 . S
C726 C722 1.524 . S
C726 H738 0.956 . S
C726 H739 0.961 . S
C726 H740 0.961 . S
C727 C724 1.564 . S
C727 H741 0.958 . S
C727 H742 0.961 . S
C727 H743 0.960 . S
H728 C712 0.931 1_554 S
H729 C717 0.929 . S
H730 C718 0.960 1_556 S
H731 C718 0.962 . S
H732 C718 0.960 . S
H733 C719 0.961 . S
H734 C719 0.961 . S
H735 C719 0.961 . S
H736 C720 0.931 . S
H737 C725 0.930 . S
H738 C726 0.956 . S
H739 C726 0.961 . S
H740 C726 0.961 . S
H741 C727 0.958 . S
H742 C727 0.961 . S
H743 C727 0.960 . S
C744 C745 1.391 . S
C744 C746 1.394 . S
C744 H760 0.931 . S
C745 C744 1.391 . S
C745 C749 1.376 . S
C746 C744 1.394 . S
C746 C747 1.369 . S
C746 C750 1.531 . S
C747 C746 1.369 . S
C747 C748 1.410 . S
C747 C755 1.503 . S
C748 C747 1.410 . S
C748 C749 1.392 . S
C748 C751 1.511 . S
C749 C745 1.376 . S
C749 C748 1.392 . S
C749 H761 0.929 . S
C750 C746 1.531 . S
C750 H762 0.960 . S
C750 H763 0.962 . S
C750 H764 0.960 . S
C751 C748 1.511 . S
C751 H765 0.961 . S
C751 H766 0.961 . S
C751 H767 0.961 . S
C752 C753 1.370 . S
C752 C754 1.363 . S
C752 H768 0.931 . S
C753 C752 1.370 . S
C753 C757 1.408 . S
C754 C752 1.363 . S
C754 C755 1.370 . S
C754 C758 1.524 . S
C755 C747 1.503 . S
C755 C754 1.370 . S
C755 C756 1.403 . S
C756 C755 1.403 . S
C756 C757 1.404 . S
C756 C759 1.539 . S
C757 C753 1.408 . S
C757 C756 1.404 . S
C757 H769 0.930 . S
C758 C754 1.524 . S
C758 H770 0.956 . S
C758 H771 0.961 . S
C758 H772 0.961 . S
C759 C756 1.539 . S
C759 H773 0.958 . S
C759 H774 0.961 . S
C759 H775 0.960 . S
H760 C744 0.931 . S
H761 C749 0.929 . S
H762 C750 0.960 . S
H763 C750 0.962 . S
H764 C750 0.960 . S
H765 C751 0.961 . S
H766 C751 0.961 . S
H767 C751 0.961 . S
H768 C752 0.931 . S
H769 C757 0.930 . S
H770 C758 0.956 . S
H771 C758 0.961 . S
H772 C758 0.961 . S
H773 C759 0.958 . S
H774 C759 0.961 . S
H775 C759 0.960 . S
C776 C777 1.391 . S
C776 C778 1.394 . S
C776 H792 0.931 1_556 S
C777 C776 1.391 . S
C777 C781 1.376 . S
C778 C776 1.394 . S
C778 C779 1.369 . S
C778 C782 1.531 . S
C779 C778 1.369 . S
C779 C780 1.410 . S
C779 C787 1.503 . S
C780 C779 1.410 . S
C780 C781 1.392 . S
C780 C783 1.511 . S
C781 C777 1.376 . S
C781 C780 1.392 . S
C781 H793 0.929 . S
C782 C778 1.531 . S
C782 H794 0.960 . S
C782 H795 0.962 . S
C782 H796 0.960 1_556 S
C783 C780 1.511 . S
C783 H797 0.961 . S
C783 H798 0.961 . S
C783 H799 0.961 . S
C784 C785 1.370 . S
C784 C786 1.363 . S
C784 H800 0.931 . S
C785 C784 1.370 . S
C785 C789 1.408 . S
C786 C784 1.363 . S
C786 C787 1.370 . S
C786 C790 1.524 . S
C787 C779 1.503 . S
C787 C786 1.370 . S
C787 C788 1.403 . S
C788 C787 1.403 . S
C788 C789 1.404 . S
C788 C791 1.539 . S
C789 C785 1.408 . S
C789 C788 1.404 . S
C789 H801 0.930 . S
C790 C786 1.524 . S
C790 H802 0.956 . S
C790 H803 0.961 . S
C790 H804 0.961 . S
C791 C788 1.539 . S
C791 H805 0.958 . S
C791 H806 0.961 . S
C791 H807 0.960 . S
H792 C776 0.931 1_554 S
H793 C781 0.929 . S
H794 C782 0.960 . S
H795 C782 0.962 . S
H796 C782 0.960 1_554 S
H797 C783 0.961 . S
H798 C783 0.961 . S
H799 C783 0.961 . S
H800 C784 0.931 . S
H801 C789 0.930 . S
H802 C790 0.956 . S
H803 C790 0.961 . S
H804 C790 0.961 . S
H805 C791 0.958 . S
H806 C791 0.961 . S
H807 C791 0.960 . S
C808 C809 1.372 1_655 S
C808 C810 1.394 . S
C808 H824 0.931 . S
C809 C808 1.372 1_455 S
C809 C813 1.394 . S
C810 C808 1.394 . S
C810 C811 1.354 1_655 S
C810 C814 1.531 . S
C811 C810 1.354 1_455 S
C811 C812 1.427 . S
C811 C819 1.499 1_455 S
C812 C811 1.427 . S
C812 C813 1.392 . S
C812 C815 1.511 . S
C813 C809 1.394 . S
C813 C812 1.392 . S
C813 H825 0.929 . S
C814 C810 1.531 . S
C814 H826 0.960 . S
C814 H827 0.962 . S
C814 H828 0.960 . S
C815 C812 1.511 . S
C815 H829 0.961 . S
C815 H830 0.961 . S
C815 H831 0.961 . S
C816 C817 1.370 . S
C816 C818 1.363 . S
C816 H832 0.931 . S
C817 C816 1.370 . S
C817 C821 1.408 1_655 S
C818 C816 1.363 . S
C818 C819 1.370 . S
C818 C822 1.524 . S
C819 C811 1.499 1_655 S
C819 C818 1.370 . S
C819 C820 1.403 1_655 S
C820 C819 1.403 1_455 S
C820 C821 1.404 . S
C820 C823 1.539 . S
C821 C817 1.408 1_455 S
C821 C820 1.404 . S
C821 H833 0.930 . S
C822 C818 1.524 . S
C822 H834 0.956 . S
C822 H835 0.961 . S
C822 H836 0.961 . S
C823 C820 1.539 . S
C823 H837 0.958 . S
C823 H838 0.961 . S
C823 H839 0.960 . S
H824 C808 0.931 . S
H825 C813 0.929 . S
H826 C814 0.960 . S
H827 C814 0.962 . S
H828 C814 0.960 . S
H829 C815 0.961 . S
H830 C815 0.961 . S
H831 C815 0.961 . S
H832 C816 0.931 . S
H833 C821 0.930 . S
H834 C822 0.956 . S
H835 C822 0.961 . S
H836 C822 0.961 . S
H837 C823 0.958 . S
H838 C823 0.961 . S
H839 C823 0.960 . S
C840 C841 1.391 . S
C840 C842 1.394 . S
C840 H856 0.931 . S
C841 C840 1.391 . S
C841 C845 1.376 . S
C842 C840 1.394 . S
C842 C843 1.369 . S
C842 C846 1.531 . S
C843 C842 1.369 . S
C843 C844 1.410 . S
C843 C851 1.503 . S
C844 C843 1.410 . S
C844 C845 1.392 . S
C844 C847 1.511 . S
C845 C841 1.376 . S
C845 C844 1.392 . S
C845 H857 0.929 . S
C846 C842 1.531 . S
C846 H858 0.939 1_565 S
C846 H859 0.962 . S
C846 H860 0.960 . S
C847 C844 1.511 . S
C847 H861 0.961 . S
C847 H862 0.961 . S
C847 H863 0.961 . S
C848 C849 1.370 . S
C848 C850 1.363 . S
C848 H864 0.931 . S
C849 C848 1.370 . S
C849 C853 1.408 1_565 S
C850 C848 1.363 . S
C850 C851 1.370 . S
C850 C854 1.524 . S
C851 C843 1.503 . S
C851 C850 1.370 . S
C851 C852 1.403 1_565 S
C852 C851 1.403 1_545 S
C852 C853 1.404 . S
C852 C855 1.539 . S
C853 C849 1.408 1_545 S
C853 C852 1.404 . S
C853 H865 0.930 . S
C854 C850 1.524 . S
C854 H866 0.956 . S
C854 H867 0.961 . S
C854 H868 0.961 . S
C855 C852 1.539 . S
C855 H869 0.958 . S
C855 H870 0.961 . S
C855 H871 0.960 . S
H856 C840 0.931 . S
H857 C845 0.929 . S
H858 C846 0.939 1_545 S
H859 C846 0.962 . S
H860 C846 0.960 . S
H861 C847 0.961 . S
H862 C847 0.961 . S
H863 C847 0.961 . S
H864 C848 0.931 . S
H865 C853 0.930 . S
H866 C854 0.956 . S
H867 C854 0.961 . S
H868 C854 0.961 . S
H869 C855 0.958 . S
H870 C855 0.961 . S
H871 C855 0.960 . S
C872 C873 1.391 . S
C872 C874 1.394 . S
C872 H888 0.931 . S
C873 C872 1.391 . S
C873 C877 1.376 . S
C874 C872 1.394 . S
C874 C875 1.369 . S
C874 C878 1.531 . S
C875 C874 1.369 . S
C875 C876 1.410 . S
C875 C883 1.503 . S
C876 C875 1.410 . S
C876 C877 1.392 . S
C876 C879 1.511 . S
C877 C873 1.376 . S
C877 C876 1.392 . S
C877 H889 0.929 . S
C878 C874 1.531 . S
C878 H890 0.960 . S
C878 H891 0.962 . S
C878 H892 0.960 . S
C879 C876 1.511 . S
C879 H893 0.961 . S
C879 H894 0.961 . S
C879 H895 0.961 . S
C880 C881 1.370 . S
C880 C882 1.363 . S
C880 H896 0.931 . S
C881 C880 1.370 . S
C881 C885 1.408 . S
C882 C880 1.363 . S
C882 C883 1.370 . S
C882 C886 1.524 . S
C883 C875 1.503 . S
C883 C882 1.370 . S
C883 C884 1.403 . S
C884 C883 1.403 . S
C884 C885 1.404 . S
C884 C887 1.539 . S
C885 C881 1.408 . S
C885 C884 1.404 . S
C885 H897 0.930 . S
C886 C882 1.524 . S
C886 H898 0.956 . S
C886 H899 0.961 . S
C886 H900 0.961 . S
C887 C884 1.539 . S
C887 H901 0.958 . S
C887 H902 0.961 . S
C887 H903 0.960 . S
H888 C872 0.931 . S
H889 C877 0.929 . S
H890 C878 0.960 . S
H891 C878 0.962 . S
H892 C878 0.960 . S
H893 C879 0.961 . S
H894 C879 0.961 . S
H895 C879 0.961 . S
H896 C880 0.931 . S
H897 C885 0.930 . S
H898 C886 0.956 . S
H899 C886 0.961 . S
H900 C886 0.961 . S
H901 C887 0.958 . S
H902 C887 0.961 . S
H903 C887 0.960 . S
C904 C905 1.391 . S
C904 C906 1.394 . S
C904 H920 0.931 . S
C905 C904 1.391 . S
C905 C909 1.376 . S
C906 C904 1.394 . S
C906 C907 1.369 . S
C906 C910 1.531 . S
C907 C906 1.369 . S
C907 C908 1.410 . S
C907 C915 1.503 . S
C908 C907 1.410 . S
C908 C909 1.392 . S
C908 C911 1.511 . S
C909 C905 1.376 . S
C909 C908 1.392 . S
C909 H921 0.929 . S
C910 C906 1.531 . S
C910 H922 0.960 . S
C910 H923 0.962 . S
C910 H924 0.960 . S
C911 C908 1.511 . S
C911 H925 0.961 . S
C911 H926 0.961 . S
C911 H927 0.961 . S
C912 C913 1.370 . S
C912 C914 1.363 . S
C912 H928 0.931 . S
C913 C912 1.370 . S
C913 C917 1.408 . S
C914 C912 1.363 . S
C914 C915 1.370 . S
C914 C918 1.524 . S
C915 C907 1.503 . S
C915 C914 1.370 . S
C915 C916 1.403 . S
C916 C915 1.403 . S
C916 C917 1.404 . S
C916 C919 1.539 . S
C917 C913 1.408 . S
C917 C916 1.404 . S
C917 H929 0.930 . S
C918 C914 1.524 . S
C918 H930 0.956 . S
C918 H931 0.961 . S
C918 H932 0.961 . S
C919 C916 1.539 . S
C919 H933 0.958 . S
C919 H934 0.961 . S
C919 H935 0.960 . S
H920 C904 0.931 . S
H921 C909 0.929 . S
H922 C910 0.960 . S
H923 C910 0.962 . S
H924 C910 0.960 . S
H925 C911 0.961 . S
H926 C911 0.961 . S
H927 C911 0.961 . S
H928 C912 0.931 . S
H929 C917 0.930 . S
H930 C918 0.956 . S
H931 C918 0.961 . S
H932 C918 0.961 . S
H933 C919 0.958 . S
H934 C919 0.961 . S
H935 C919 0.960 . S
C169 C76 1.624 . S
C177 C96 1.696 . S
C209 C126 1.807 . S
C201 C87 1.715 . S
C241 C136 1.526 . S
C233 C54 1.431 . S
C273 C156 1.394 . S
C265 C65 1.328 1_455 S
C305 C97 1.703 . S
C297 C32 1.654 . S
C329 C43 1.770 . S
C337 C127 1.798 . S
C361 C10 1.485 1_556 S
C369 C137 1.523 . S
C393 C21 1.368 . S
C401 C157 1.400 . S
C433 C89 0.836 . S
C425 C60 0.797 . S
C465 C110 0.570 . S
C457 C71 0.530 . S
C497 C129 0.996 . S
C489 C82 0.978 . S
C521 C49 0.720 . S
C529 C149 0.738 . S
C553 C16 0.877 1_655 S
C561 C90 0.851 . S
C593 C109 0.555 1_565 S
C585 C27 0.513 . S
C625 C130 1.018 . S
C617 C38 1.018 1_556 S
C649 C5 0.779 1_556 S
C657 C150 0.762 . S
C681 C59 1.530 . S
C689 C107 1.601 . S
C713 C70 1.384 1_556 S
C721 C117 1.492 . S
C753 C147 1.800 . S
C745 C81 1.718 . S
C785 C167 1.784 . S
C777 C48 1.685 . S
C809 C15 1.533 . S
C817 C106 1.587 . S
C849 C116 1.490 . S
C841 C26 1.353 . S
C881 C146 1.791 . S
C873 C37 1.704 . S
C905 C4 1.723 . S
C913 C166 1.793 . S
