# Generated by pormake.
# Topology anh, (6,3)-cn, num edge types: 1
# Building blocks:
#     Node 0, Type 0, BuildingBlock: BETFEN_clean_sbu_0, # of connection points: 6
#     Node 1, Type 0, BuildingBlock: BETFEN_clean_sbu_0, # of connection points: 6
#     Node 2, Type 0, BuildingBlock: BETFEN_clean_sbu_0, # of connection points: 6
#     Node 3, Type 1, BuildingBlock: KAKCAD_clean_linker_0, # of connection points: 3
#     Node 4, Type 1, BuildingBlock: KAKCAD_clean_linker_0, # of connection points: 3
#     Node 5, Type 1, BuildingBlock: KAKCAD_clean_linker_0, # of connection points: 3
#     Node 6, Type 1, BuildingBlock: KAKCAD_clean_linker_0, # of connection points: 3
#     Node 7, Type 1, BuildingBlock: KAKCAD_clean_linker_0, # of connection points: 3
#     Node 8, Type 1, BuildingBlock: KAKCAD_clean_linker_0, # of connection points: 3
#     Edge 9, Type (0, 1), BuildingBlock: CIFDUS_clean_linker_0, # of connection points: 2
#     Edge 10, Type (0, 1), BuildingBlock: CIFDUS_clean_linker_0, # of connection points: 2
#     Edge 11, Type (0, 1), BuildingBlock: CIFDUS_clean_linker_0, # of connection points: 2
#     Edge 12, Type (0, 1), BuildingBlock: CIFDUS_clean_linker_0, # of connection points: 2
#     Edge 13, Type (0, 1), BuildingBlock: CIFDUS_clean_linker_0, # of connection points: 2
#     Edge 14, Type (0, 1), BuildingBlock: CIFDUS_clean_linker_0, # of connection points: 2
#     Edge 15, Type (0, 1), BuildingBlock: CIFDUS_clean_linker_0, # of connection points: 2
#     Edge 16, Type (0, 1), BuildingBlock: CIFDUS_clean_linker_0, # of connection points: 2
#     Edge 17, Type (0, 1), BuildingBlock: CIFDUS_clean_linker_0, # of connection points: 2
#     Edge 18, Type (0, 1), BuildingBlock: CIFDUS_clean_linker_0, # of connection points: 2
#     Edge 19, Type (0, 1), BuildingBlock: CIFDUS_clean_linker_0, # of connection points: 2
#     Edge 20, Type (0, 1), BuildingBlock: CIFDUS_clean_linker_0, # of connection points: 2
#     Edge 21, Type (0, 1), BuildingBlock: CIFDUS_clean_linker_0, # of connection points: 2
#     Edge 22, Type (0, 1), BuildingBlock: CIFDUS_clean_linker_0, # of connection points: 2
#     Edge 23, Type (0, 1), BuildingBlock: CIFDUS_clean_linker_0, # of connection points: 2
#     Edge 24, Type (0, 1), BuildingBlock: CIFDUS_clean_linker_0, # of connection points: 2
#     Edge 25, Type (0, 1), BuildingBlock: CIFDUS_clean_linker_0, # of connection points: 2
#     Edge 26, Type (0, 1), BuildingBlock: CIFDUS_clean_linker_0, # of connection points: 2
# Relax obj value: 0.194
# Max RMSD: 0.213
# Mean RMSD: 0.159
data_MOF--net-anh--node1-BETFEN_clean_sbu_0--node2-KAKCAD_clean_linker_0--edge1-CIFDUS_clean_linker_0
_symmetry_space_group_name_H-M    P1
_symmetry_Int_Tables_number       1
_symmetry_cell_setting            triclinic
loop_
_symmetry_equiv_pos_as_xyz
'x, y, z'
_cell_length_a     32.191587
_cell_length_b     33.6837
_cell_length_c     60.585712
_cell_angle_alpha  90.156826
_cell_angle_beta   92.085998
_cell_angle_gamma 105.32743
loop_
_atom_site_label
_atom_site_type_symbol
_atom_site_fract_x
_atom_site_fract_y
_atom_site_fract_z
_atom_type_partial_charge
Pr0 Pr 0.06429 0.53054 0.15371 0.0
Pr1 Pr 0.08463 0.62155 0.14877 0.0
C2 C 0.03316 0.45091 0.16468 0.0
C3 C 0.99123 0.4211 0.16774 0.0
C4 C 0.98543 0.3799 0.16136 0.0
C5 C 0.94613 0.35089 0.16442 0.0
C6 C 0.91194 0.36257 0.174 0.0
C7 C 0.91768 0.40408 0.18009 0.0
C8 C 0.95694 0.43312 0.17692 0.0
C9 C 0.07431 0.55632 0.11011 0.0
C10 C 0.98301 0.57533 0.14928 0.0
C11 C 0.11758 0.70128 0.1386 0.0
C12 C 0.15847 0.73327 0.1434 0.0
C13 C 0.16029 0.76333 0.1598 0.0
C14 C 0.1991 0.79229 0.1654 0.0
C15 C 0.23693 0.7922 0.15455 0.0
C16 C 0.23494 0.763 0.13766 0.0
C17 C 0.19613 0.73375 0.13217 0.0
C18 C 0.07526 0.59605 0.19248 0.0
C19 C 0.16625 0.5759 0.15165 0.0
O20 O 0.04547 0.48086 0.17925 0.0
O21 O 0.04189 0.46275 0.14447 0.0
O22 O 0.0531 0.57003 0.12399 0.0
O23 O 0.09108 0.5284 0.1185 0.0
O24 O 1.01047 0.6076 0.14103 0.0
O25 O 0.99675 0.5447 0.15772 0.0
O26 O 0.11892 0.6708 0.12543 0.0
O27 O 0.0927 0.6894 0.15524 0.0
O28 O 0.09601 0.58208 0.17846 0.0
O29 O 0.05963 0.62481 0.18428 0.0
O30 O 0.13866 0.54222 0.15837 0.0
O31 O 0.15308 0.60841 0.14559 0.0
H32 H 1.01149 0.37009 0.15419 0.0
H33 H 0.94286 0.31911 0.15977 0.0
H34 H 0.89176 0.4141 0.18727 0.0
H35 H 0.96057 0.46488 0.18177 0.0
H36 H 0.13176 0.76411 0.16855 0.0
H37 H 0.19955 0.81482 0.17826 0.0
H38 H 0.26364 0.76209 0.12911 0.0
H39 H 0.19588 0.71118 0.11937 0.0
Pr40 Pr 0.59076 0.07898 0.52444 0.0
Pr41 Pr 0.49475 0.06181 0.52024 0.0
C42 C 0.67616 0.11047 0.51966 0.0
C43 C 0.70442 0.15069 0.51349 0.0
C44 C 0.74717 0.16304 0.52178 0.0
C45 C 0.77433 0.20101 0.51586 0.0
C46 C 0.75927 0.22739 0.50147 0.0
C47 C 0.71615 0.21488 0.49337 0.0
C48 C 0.68902 0.17704 0.49937 0.0
C49 C 0.54888 0.06809 0.56428 0.0
C50 C 0.54526 0.16058 0.52303 0.0
C51 C 0.40911 1.02966 0.52319 0.0
C52 C 0.37773 0.99054 0.51619 0.0
C53 C 0.34532 0.99121 0.50016 0.0
C54 C 0.31753 0.95452 0.49195 0.0
C55 C 0.32127 0.91626 0.4997 0.0
C56 C 0.35278 0.91557 0.51629 0.0
C57 C 0.38083 0.95232 0.52441 0.0
C58 C 0.53384 0.07505 0.47984 0.0
C59 C 0.54099 0.97973 0.52382 0.0
O60 O 0.65 0.09004 0.50402 0.0
O61 O 0.65806 0.10892 0.53872 0.0
O62 O 0.54149 0.08945 0.54841 0.0
O63 O 0.57976 0.05107 0.56022 0.0
O64 O 0.50811 0.13394 0.52742 0.0
O65 O 0.57898 0.14628 0.51859 0.0
O66 O 0.43689 1.02819 0.53931 0.0
O67 O 0.42616 0.05414 0.50731 0.0
O68 O 0.54412 0.0533 0.49502 0.0
O69 O 0.50184 0.08934 0.48513 0.0
O70 O 0.5794 1.00625 0.52243 0.0
O71 O 0.50596 0.99379 0.5243 0.0
H72 H 0.75957 0.14329 0.53283 0.0
H73 H 0.80704 0.20982 0.52273 0.0
H74 H 0.70347 0.234 0.48205 0.0
H75 H 0.65606 0.16822 0.49281 0.0
H76 H 0.34203 1.02019 0.49364 0.0
H77 H 0.29321 0.95609 0.47939 0.0
H78 H 0.35666 0.88658 0.52249 0.0
H79 H 0.40544 0.95069 0.53678 0.0
Pr80 Pr 0.5722 0.54241 0.82868 0.0
Pr81 Pr 0.60453 0.63299 0.82718 0.0
C82 C 0.536 0.46085 0.825 0.0
C83 C 0.49519 0.43112 0.81866 0.0
C84 C 0.46228 0.4429 0.80673 0.0
C85 C 0.42368 0.41354 0.80093 0.0
C86 C 0.41749 0.37222 0.80718 0.0
C87 C 0.45045 0.36106 0.81951 0.0
C88 C 0.48888 0.39026 0.82519 0.0
C89 C 0.59836 0.57885 0.87017 0.0
C90 C 0.67675 0.58153 0.82917 0.0
C91 C 0.61956 0.71484 0.83243 0.0
C92 C 0.58983 0.74074 0.83551 0.0
C93 C 0.55049 0.73219 0.82333 0.0
C94 C 0.52135 0.75543 0.82664 0.0
C95 C 0.53074 0.78778 0.84225 0.0
C96 C 0.57014 0.79639 0.85451 0.0
C97 C 0.59943 0.77287 0.85122 0.0
C98 C 0.60046 0.59497 0.78578 0.0
C99 C 0.49799 0.59412 0.82723 0.0
O100 O 0.53605 0.48203 0.84308 0.0
O101 O 0.55776 0.48252 0.80925 0.0
O102 O 0.5759 0.59147 0.85575 0.0
O103 O 0.60973 0.54714 0.86297 0.0
O104 O 0.66853 0.61535 0.83672 0.0
O105 O 0.64511 0.55095 0.82104 0.0
O106 O 0.62331 0.69064 0.84881 0.0
O107 O 0.61677 0.69674 0.81311 0.0
O108 O 0.57138 0.58614 0.79976 0.0
O109 O 0.63361 0.62343 0.79329 0.0
O110 O 0.50481 0.55719 0.82744 0.0
O111 O 0.53039 0.6276 0.82697 0.0
H112 H 0.4666 0.47458 0.8018 0.0
H113 H 0.39885 0.42304 0.79146 0.0
H114 H 0.44719 0.32939 0.82417 0.0
H115 H 0.51394 0.38079 0.8345 0.0
H116 H 0.54212 0.7075 0.81114 0.0
H117 H 0.4918 0.74857 0.81653 0.0
H118 H 0.57822 0.82118 0.86664 0.0
H119 H 0.62947 0.77969 0.86092 0.0
C120 C 0.52305 0.07228 0.33518 0.0
C121 C 0.55953 0.08216 0.34964 0.0
C122 C 0.52743 0.06853 0.31251 0.0
C123 C 0.56843 0.07478 0.30376 0.0
C124 C 0.60497 0.08417 0.31822 0.0
C125 C 0.60053 0.08757 0.341 0.0
C126 C 0.5728 0.07256 0.27953 0.0
C127 C 0.60266 0.10367 0.26879 0.0
C128 C 0.60528 0.10315 0.2457 0.0
C129 C 0.57791 0.07065 0.23326 0.0
C130 C 0.54783 1.0391 0.24384 0.0
C131 C 0.54563 1.04041 0.26695 0.0
C132 C 0.51674 1.00568 0.23111 0.0
C133 C 0.49264 1.0147 0.21289 0.0
C134 C 0.50767 0.96496 0.23863 0.0
C135 C 0.47348 0.93454 0.22913 0.0
C136 C 0.44754 0.94406 0.21186 0.0
C137 C 0.63652 0.13724 0.23495 0.0
C138 C 0.63847 0.17821 0.24049 0.0
C139 C 0.66668 0.12925 0.22059 0.0
C140 C 0.69974 0.16162 0.21292 0.0
C141 C 0.70296 0.20259 0.21934 0.0
C142 C 0.67112 0.2105 0.23268 0.0
C143 C 0.45832 0.98414 0.20334 0.0
H144 H 0.49101 0.06753 0.34142 0.0
H145 H 0.49873 0.06163 0.30176 0.0
H146 H 0.63694 0.08888 0.31191 0.0
H147 H 0.62918 0.09535 0.35179 0.0
H148 H 0.62351 0.12882 0.27841 0.0
H149 H 0.52207 1.01664 0.27521 0.0
H150 H 0.57967 0.0702 0.21543 0.0
H151 H 0.49872 1.04586 0.20683 0.0
H152 H 0.52619 0.95693 0.25238 0.0
H153 H 0.46655 0.90373 0.23574 0.0
H154 H 0.61516 0.1852 0.25127 0.0
H155 H 0.66593 0.09787 0.21617 0.0
H156 H 0.43882 0.99244 0.1901 0.0
H157 H 0.67189 0.24169 0.23748 0.0
H158 H 0.72384 0.15433 0.20281 0.0
C159 C 0.55318 0.59179 0.64477 0.0
C160 C 0.58844 0.57936 0.65392 0.0
C161 C 0.545 0.59038 0.62189 0.0
C162 C 0.5715 0.57589 0.6077 0.0
C163 C 0.6064 0.56294 0.61687 0.0
C164 C 0.61497 0.56495 0.63972 0.0
C165 C 0.56285 0.57429 0.58338 0.0
C166 C 0.55648 0.60882 0.57231 0.0
C167 C 0.54906 0.60886 0.54927 0.0
C168 C 0.54729 0.57125 0.53719 0.0
C169 C 0.5533 0.5352 0.54845 0.0
C170 C 0.56135 0.53826 0.57143 0.0
C171 C 0.5514 0.49307 0.53807 0.0
C172 C 0.51258 0.4667 0.52936 0.0
C173 C 0.5859 0.47484 0.54203 0.0
C174 C 0.58145 0.43224 0.53835 0.0
C175 C 0.54202 0.40521 0.53067 0.0
C176 C 0.54429 0.64965 0.53959 0.0
C177 C 0.51508 0.66955 0.54876 0.0
C178 C 0.57452 0.67352 0.52532 0.0
C179 C 0.57653 0.71565 0.52121 0.0
C180 C 0.54846 0.73614 0.5312 0.0
C181 C 0.51693 0.71145 0.54461 0.0
C182 C 0.50803 0.4239 0.5257 0.0
H183 H 0.5324 0.60335 0.65531 0.0
H184 H 0.51773 0.60032 0.61527 0.0
H185 H 0.62747 0.55182 0.60632 0.0
H186 H 0.64225 0.55501 0.64631 0.0
H187 H 0.55858 0.63666 0.58182 0.0
H188 H 0.56557 0.51164 0.58037 0.0
H189 H 0.54136 0.57007 0.51947 0.0
H190 H 0.48477 0.47865 0.52653 0.0
H191 H 0.61614 0.49338 0.54921 0.0
H192 H 0.60866 0.42024 0.54269 0.0
H193 H 0.49172 0.65301 0.56018 0.0
H194 H 0.5983 0.66029 0.51822 0.0
H195 H 0.47715 0.40529 0.51937 0.0
H196 H 0.49469 0.72493 0.55294 0.0
H197 H 0.60099 0.73239 0.51041 0.0
C198 C 0.13409 0.60182 0.96868 0.0
C199 C 0.09843 0.57912 0.97997 0.0
C200 C 0.13205 0.60446 0.94566 0.0
C201 C 0.09456 0.58367 0.93337 0.0
C202 C 0.05884 0.56104 0.94485 0.0
C203 C 0.06064 0.55914 0.96791 0.0
C204 C 0.09296 0.58513 0.90871 0.0
C205 C 0.12986 0.58636 0.89679 0.0
C206 C 0.12907 0.58803 0.87359 0.0
C207 C 0.08996 0.58743 0.86206 0.0
C208 C 0.05237 0.58558 0.87377 0.0
C209 C 0.0545 0.58494 0.89697 0.0
C210 C 1.01029 0.58485 0.86247 0.0
C211 C 1.00609 0.61669 0.84836 0.0
C212 C 0.97288 0.55492 0.8682 0.0
C213 C 0.93206 0.55776 0.8609 0.0
C214 C 0.92748 0.59086 0.8478 0.0
C215 C 0.16968 0.58968 0.86208 0.0
C216 C 0.2086 0.61691 0.86981 0.0
C217 C 0.17102 0.56126 0.84526 0.0
C218 C 0.21071 0.55869 0.83728 0.0
C219 C 0.24985 0.58474 0.8458 0.0
C220 C 0.24806 0.61451 0.86181 0.0
C221 C 0.96507 0.61981 0.8412 0.0
H222 H 0.16349 0.61774 0.97769 0.0
H223 H 0.15989 0.62299 0.93755 0.0
H224 H 1.02969 0.54395 0.93607 0.0
H225 H 0.03288 0.54107 0.97629 0.0
H226 H 0.15939 0.58501 0.90556 0.0
H227 H 1.02599 0.58513 0.90591 0.0
H228 H 0.08876 0.58836 0.84417 0.0
H229 H 0.03434 0.64034 0.84383 0.0
H230 H 0.97517 0.53005 0.87909 0.0
H231 H 0.90398 0.53511 0.86648 0.0
H232 H 0.20863 0.63929 0.8827 0.0
H233 H 0.14161 0.53973 0.83906 0.0
H234 H 0.96273 0.64546 0.83094 0.0
H235 H 0.27732 0.63484 0.86898 0.0
H236 H 0.21078 0.53573 0.82474 0.0
C237 C 1.00796 0.55819 0.33405 0.0
C238 C 0.04634 0.56884 0.32247 0.0
C239 C 1.00913 0.55469 0.35705 0.0
C240 C 0.04874 0.56217 0.369 0.0
C241 C 0.0871 0.57215 0.35739 0.0
C242 C 0.0859 0.57526 0.33437 0.0
C243 C 0.05016 0.56073 0.39354 0.0
C244 C 1.02246 0.52837 0.40465 0.0
C245 C 1.02364 0.52689 0.42786 0.0
C246 C 0.05301 0.55861 0.43999 0.0
C247 C 0.08077 0.59159 0.42914 0.0
C248 C 0.07899 0.59218 0.4059 0.0
C249 C 0.11101 0.6261 0.44178 0.0
C250 C 0.09811 0.64272 0.4609 0.0
C251 C 0.15247 0.6441 0.43415 0.0
C252 C 0.17963 0.67867 0.44481 0.0
C253 C 0.16625 0.696 0.4635 0.0
C254 C 0.99453 0.49174 0.43923 0.0
C255 C 0.95106 0.47697 0.4321 0.0
C256 C 1.01029 0.47162 0.45664 0.0
C257 C 0.98353 0.4368 0.46625 0.0
C258 C 0.94029 0.42152 0.4588 0.0
C259 C 0.92425 0.44238 0.4418 0.0
C260 C 0.12547 0.67721 0.47167 0.0
H261 H 0.97697 0.55277 0.32531 0.0
H262 H 0.97906 0.54716 0.36555 0.0
H263 H 0.11809 0.57772 0.36613 0.0
H264 H 0.11602 0.58383 0.32594 0.0
H265 H 1.00067 0.50366 0.39515 0.0
H266 H 0.09923 0.61793 0.39733 0.0
H267 H 0.05414 0.55765 0.45787 0.0
H268 H 0.06628 0.62998 0.46712 0.0
H269 H 0.16391 0.63163 0.41978 0.0
H270 H 0.21117 0.69193 0.43836 0.0
H271 H 0.93781 0.49203 0.41887 0.0
H272 H 0.04366 0.48206 0.46243 0.0
H273 H 0.11411 0.69002 0.48595 0.0
H274 H 0.89123 0.43127 0.43555 0.0
H275 H 0.99677 0.42169 0.47946 0.0
C276 C 0.38259 0.9655 0.67685 0.0
C277 C 0.40941 1.00382 0.67088 0.0
C278 C 0.35551 0.96268 0.69474 0.0
C279 C 0.35485 0.99817 0.70687 0.0
C280 C 0.38245 1.03618 0.70108 0.0
C281 C 0.40929 1.03896 0.68336 0.0
C282 C 0.32788 0.99618 0.72645 0.0
C283 C 0.32746 0.96664 0.74272 0.0
C284 C 0.31064 0.97035 0.76351 0.0
C285 C 0.29434 1.00428 0.76791 0.0
C286 C 0.29425 1.03407 0.75168 0.0
C287 C 0.30873 1.02817 0.73062 0.0
C288 C 0.28707 0.07464 0.75773 0.0
C289 C 0.25799 0.07834 0.77395 0.0
C290 C 0.3134 0.11082 0.7489 0.0
C291 C 0.31214 0.14934 0.75661 0.0
C292 C 0.28501 0.15309 0.77366 0.0
C293 C 0.31701 0.94242 0.78145 0.0
C294 C 0.30994 0.90012 0.77716 0.0
C295 C 0.33576 0.95862 0.80198 0.0
C296 C 0.35053 0.93372 0.81709 0.0
C297 C 0.34692 0.89222 0.81193 0.0
C298 C 0.32472 0.87525 0.79225 0.0
C299 C 0.2572 0.11724 0.78196 0.0
H300 H 0.38199 0.93792 0.66747 0.0
H301 H 0.33484 0.93293 0.69893 0.0
H302 H 0.38397 0.0639 0.71055 0.0
H303 H 0.43034 0.06876 0.67952 0.0
H304 H 0.34361 0.94273 0.7399 0.0
H305 H 0.30814 0.05039 0.71779 0.0
H306 H 0.28427 1.00867 0.7844 0.0
H307 H 0.23688 0.05123 0.78098 0.0
H308 H 0.33729 0.10973 0.73695 0.0
H309 H 0.33488 0.17615 0.75024 0.0
H310 H 0.29516 0.88675 0.76156 0.0
H311 H 0.34188 0.99115 0.80575 0.0
H312 H 0.23594 0.11924 0.79513 0.0
H313 H 0.32164 0.84347 0.78767 0.0
H314 H 0.36706 0.94752 0.83225 0.0
C315 C 0.59353 0.54814 0.01526 0.0
C316 C 0.59275 0.58199 0.00179 0.0
C317 C 0.58755 0.54972 0.03792 0.0
C318 C 0.57967 0.58475 0.0476 0.0
C319 C 0.57725 0.61802 0.03421 0.0
C320 C 0.58409 0.61683 0.01156 0.0
C321 C 0.57741 0.5877 0.07186 0.0
C322 C 0.61217 0.58354 0.08528 0.0
C323 C 0.61213 0.58777 0.1083 0.0
C324 C 0.57573 0.59547 0.11807 0.0
C325 C 0.53978 0.59894 0.1047 0.0
C326 C 0.54147 0.59543 0.08156 0.0
C327 C 0.49983 0.60547 0.1143 0.0
C328 C 0.48043 0.58229 0.13227 0.0
C329 C 0.47853 0.63246 0.10409 0.0
C330 C 0.43825 0.63495 0.11095 0.0
C331 C 0.41789 0.61071 0.12837 0.0
C332 C 0.6519 0.58597 0.12116 0.0
C333 C 0.66962 0.55256 0.11787 0.0
C334 C 0.67673 0.62069 0.13289 0.0
C335 C 0.71952 0.62311 0.13973 0.0
C336 C 0.7383 0.59075 0.13508 0.0
C337 C 0.71216 0.55485 0.12478 0.0
C338 C 0.43991 0.58479 0.13917 0.0
H339 H 0.59887 0.52032 0.00835 0.0
H340 H 0.58932 0.5236 0.04796 0.0
H341 H 0.5717 0.64555 0.04142 0.0
H342 H 0.58377 0.64373 0.00189 0.0
H343 H 0.64029 0.5784 0.07761 0.0
H344 H 0.51429 0.59764 0.07099 0.0
H345 H 0.57549 0.59887 0.13585 0.0
H346 H 0.49577 0.56104 0.14045 0.0
H347 H 0.49263 0.65115 0.09037 0.0
H348 H 0.42243 0.65497 0.10199 0.0
H349 H 0.65131 0.52554 0.1087 0.0
H350 H 0.6641 0.64707 0.13542 0.0
H351 H 0.42568 0.56606 0.15285 0.0
H352 H 0.72534 0.52942 0.12072 0.0
H353 H 0.73843 0.65099 0.14793 0.0
H354 H 0.23461 0.64177 0.14342 0.0
H355 H 0.20243 0.51124 0.15584 0.0
H356 H 0.2771 0.51072 0.15072 0.0
H357 H 0.35102 0.54642 0.14081 0.0
H358 H 0.38382 0.67737 0.12963 0.0
H359 H 0.30975 0.67835 0.13601 0.0
C360 C 0.24391 0.61321 0.14514 0.0
C361 C 0.21258 0.57656 0.14992 0.0
C362 C 0.28719 0.61306 0.14223 0.0
C363 C 0.22558 0.53997 0.15219 0.0
C364 C 0.26841 0.53959 0.14921 0.0
C365 C 0.34231 0.57536 0.14014 0.0
C366 C 0.37333 0.61167 0.13446 0.0
C367 C 0.29946 0.57585 0.14401 0.0
C368 C 0.36078 0.6487 0.13346 0.0
C369 C 0.31832 0.64938 0.13724 0.0
H370 H 0.84466 0.24427 0.49219 0.0
H371 H 0.7395 0.30113 0.49549 0.0
H372 H 0.78596 0.36588 0.48281 0.0
H373 H 0.85634 0.4064 0.47033 0.0
H374 H 0.96173 0.34986 0.46779 0.0
H375 H 0.91566 0.28548 0.48124 0.0
C376 C 0.83196 0.27092 0.49047 0.0
C377 C 0.78838 0.26748 0.49469 0.0
C378 C 0.85902 0.30832 0.48339 0.0
C379 C 0.77258 0.30243 0.49199 0.0
C380 C 0.79924 0.33965 0.48487 0.0
C381 C 0.86918 0.37995 0.47268 0.0
C382 C 0.91246 0.38303 0.46802 0.0
C383 C 0.84243 0.34289 0.48036 0.0
C384 C 0.92873 0.34858 0.47147 0.0
C385 C 0.9023 0.31162 0.47903 0.0
H386 H 0.44333 0.76278 0.84345 0.0
H387 H 0.55042 0.87162 0.84495 0.0
H388 H 0.50078 0.91472 0.83978 0.0
H389 H 0.4291 0.92009 0.82796 0.0
H390 H 0.32223 0.81113 0.824 0.0
H391 H 0.36972 0.76934 0.83684 0.0
C392 C 0.45571 0.79601 0.84294 0.0
C393 C 0.50051 0.81395 0.84415 0.0
C394 C 0.42711 0.82046 0.83916 0.0
C395 C 0.51611 0.85703 0.84405 0.0
C396 C 0.48774 0.88168 0.84087 0.0
C397 C 0.41578 0.88744 0.83063 0.0
C398 C 0.37228 0.86866 0.82479 0.0
C399 C 0.44343 0.86356 0.83744 0.0
C400 C 0.35575 0.82619 0.82808 0.0
C401 C 0.38289 0.80231 0.83539 0.0
H402 H 0.94279 0.63523 0.13819 0.0
H403 H 0.91694 0.50911 0.15944 0.0
H404 H 0.83979 0.50334 0.15807 0.0
H405 H 0.77904 0.53329 0.14992 0.0
H406 H 0.80464 0.65917 0.12837 0.0
H407 H 0.882 0.66592 0.13125 0.0
C408 C 0.92033 0.60648 0.14255 0.0
C409 C 0.93597 0.57263 0.1488 0.0
C410 C 0.87569 0.60333 0.14183 0.0
C411 C 0.90614 0.53574 0.15455 0.0
C412 C 0.86183 0.53236 0.15376 0.0
C413 C 0.80149 0.56224 0.14586 0.0
C414 C 0.78565 0.59564 0.13894 0.0
C415 C 0.84616 0.56584 0.14729 0.0
C416 C 0.81556 0.63306 0.13407 0.0
C417 C 0.85997 0.63686 0.1355 0.0
H418 H 0.27801 0.84692 0.52096 0.0
H419 H 0.30252 0.89817 0.45605 0.0
H420 H 0.25723 0.83478 0.43925 0.0
H421 H 0.21031 0.76496 0.44287 0.0
H422 H 0.18464 0.71328 0.50758 0.0
H423 H 0.23052 0.77655 0.52458 0.0
C424 C 0.27357 0.84406 0.50314 0.0
C425 C 0.29353 0.87732 0.48979 0.0
C426 C 0.2472 0.80747 0.49355 0.0
C427 C 0.2871 0.87329 0.46672 0.0
C428 C 0.26137 0.83696 0.45709 0.0
C429 C 0.21507 0.76739 0.46069 0.0
C430 C 0.19426 0.73434 0.47392 0.0
C431 C 0.24123 0.80388 0.47032 0.0
C432 C 0.20008 0.73834 0.49702 0.0
C433 C 0.22645 0.77446 0.50674 0.0
H434 H 0.3702 0.30819 0.83051 0.0
H435 H 0.37876 0.36291 0.76596 0.0
H436 H 0.32799 0.30114 0.75058 0.0
H437 H 0.29402 0.22725 0.75406 0.0
H438 H 0.29219 0.17045 0.81787 0.0
H439 H 0.32614 0.2373 0.83503 0.0
C440 C 0.36034 0.3068 0.81314 0.0
C441 C 0.37898 0.33968 0.7993 0.0
C442 C 0.33249 0.27057 0.80425 0.0
C443 C 0.36504 0.33802 0.77698 0.0
C444 C 0.33627 0.30252 0.76812 0.0
C445 C 0.30013 0.22975 0.77181 0.0
C446 C 0.2915 0.19387 0.78459 0.0
C447 C 0.32167 0.26791 0.78138 0.0
C448 C 0.29855 0.19754 0.80762 0.0
C449 C 0.31854 0.23573 0.81742 0.0
H450 H 0.60355 0.93498 0.5218 0.0
H451 H 0.46708 0.91736 0.52888 0.0
H452 H 0.45707 0.84318 0.53154 0.0
H453 H 0.48623 0.78158 0.53204 0.0
H454 H 0.62278 0.79888 0.52503 0.0
H455 H 0.63269 0.8729 0.52194 0.0
C456 C 0.5715 0.91509 0.52391 0.0
C457 C 0.5362 0.9331 0.52515 0.0
C458 C 0.56564 0.87137 0.52536 0.0
C459 C 0.49518 0.90562 0.52785 0.0
C460 C 0.4893 0.86263 0.52939 0.0
C461 C 0.51837 0.80122 0.52994 0.0
C462 C 0.55353 0.78294 0.52868 0.0
C463 C 0.52421 0.84486 0.52824 0.0
C464 C 0.59452 0.81043 0.52567 0.0
C465 C 0.60044 0.85347 0.52407 0.0
H466 H 0.75153 0.64144 0.8381 0.0
H467 H 0.70324 0.51181 0.82276 0.0
H468 H 0.77628 0.50358 0.82612 0.0
H469 H 0.85384 0.53254 0.8347 0.0
H470 H 0.90227 0.66218 0.84977 0.0
H471 H 0.82963 0.67106 0.84484 0.0
C472 C 0.75695 0.61139 0.83543 0.0
C473 C 0.72168 0.57727 0.83032 0.0
C474 C 0.79925 0.60684 0.83725 0.0
C475 C 0.72958 0.53866 0.82673 0.0
C476 C 0.77143 0.53387 0.82867 0.0
C477 C 0.84853 0.56276 0.83686 0.0
C478 C 0.88366 0.5966 0.84265 0.0
C479 C 0.8065 0.56765 0.83413 0.0
C480 C 0.8761 0.63564 0.84506 0.0
C481 C 0.83442 0.6407 0.84244 0.0
H482 H 0.26974 0.81061 0.1962 0.0
H483 H 0.29743 0.83962 0.12814 0.0
H484 H 0.36542 0.88904 0.13968 0.0
H485 H 0.41661 0.92469 0.16939 0.0
H486 H 0.38796 0.89453 0.23732 0.0
H487 H 0.32089 0.84492 0.22558 0.0
C488 C 0.29055 0.82797 0.18391 0.0
C489 C 0.27847 0.82175 0.16138 0.0
C490 C 0.32951 0.85604 0.19065 0.0
C491 C 0.30614 0.8438 0.14559 0.0
C492 C 0.3449 0.87214 0.15219 0.0
C493 C 0.39559 0.90727 0.18158 0.0
C494 C 0.40743 0.91318 0.20419 0.0
C495 C 0.35688 0.87863 0.1747 0.0
C496 C 0.38001 0.89014 0.2198 0.0
C497 C 0.34147 0.86194 0.21312 0.0
H498 H 0.48439 0.20544 0.53054 0.0
H499 H 0.6183 0.22299 0.51631 0.0
H500 H 0.6292 0.29748 0.5171 0.0
H501 H 0.60163 0.35937 0.52191 0.0
H502 H 0.46778 0.34214 0.5364 0.0
H503 H 0.45662 0.26775 0.53507 0.0
C504 C 0.51603 0.22539 0.52756 0.0
C505 C 0.55038 0.2073 0.52338 0.0
C506 C 0.52237 0.26926 0.52797 0.0
C507 C 0.59092 0.23482 0.51959 0.0
C508 C 0.59732 0.27798 0.52004 0.0
C509 C 0.56989 0.33969 0.52491 0.0
C510 C 0.53569 0.35806 0.52913 0.0
C511 C 0.56341 0.29585 0.52427 0.0
C512 C 0.49498 0.33045 0.53264 0.0
C513 C 0.48848 0.28723 0.53208 0.0
H514 H 0.42185 0.5333 0.8281 0.0
H515 H 0.47304 0.66542 0.82907 0.0
H516 H 0.40116 0.67415 0.83329 0.0
H517 H 0.32395 0.64465 0.83852 0.0
H518 H 0.27229 0.51269 0.83877 0.0
H519 H 0.34355 0.50371 0.83181 0.0
C520 C 0.41729 0.56402 0.82909 0.0
C521 C 0.45322 0.59864 0.82832 0.0
C522 C 0.37551 0.56893 0.8317 0.0
C523 C 0.44634 0.63814 0.82958 0.0
C524 C 0.40506 0.64323 0.83205 0.0
C525 C 0.32818 0.61387 0.83707 0.0
C526 C 0.29255 0.57945 0.8393 0.0
C527 C 0.36947 0.60888 0.83344 0.0
C528 C 0.29879 0.53984 0.83691 0.0
C529 C 0.33974 0.53464 0.83312 0.0
H530 H 0.86654 0.35387 0.21135 0.0
H531 H 0.86595 0.30057 0.1465 0.0
H532 H 0.80062 0.24697 0.15445 0.0
H533 H 0.74436 0.21453 0.1802 0.0
H534 H 0.74719 0.2672 0.24549 0.0
H535 H 0.81014 0.32221 0.23676 0.0
C536 C 0.85179 0.33085 0.19884 0.0
C537 C 0.87107 0.33123 0.17837 0.0
C538 C 0.81447 0.30002 0.20358 0.0
C539 C 0.85196 0.30073 0.16248 0.0
C540 C 0.81453 0.27016 0.16699 0.0
C541 C 0.75885 0.23792 0.19255 0.0
C542 C 0.74071 0.23669 0.21343 0.0
C543 C 0.79571 0.26928 0.18757 0.0
C544 C 0.75976 0.26766 0.22912 0.0
C545 C 0.79608 0.29904 0.22423 0.0
H546 H 0.12975 0.54285 0.0804 0.0
H547 H 1.01952 0.59145 0.0868 0.0
H548 H 1.01719 0.60303 0.04693 0.0
H549 H 0.04524 0.59701 0.01 0.0
H550 H 0.15783 0.55191 0.00409 0.0
H551 H 0.16074 0.54137 0.04402 0.0
C552 C 0.10534 0.5561 0.07303 0.0
C553 C 0.07459 0.5659 0.08638 0.0
C554 C 0.10463 0.56319 0.05022 0.0
C555 C 0.04347 0.58359 0.07678 0.0
C556 C 0.04206 0.5901 0.05401 0.0
C557 C 0.07039 0.58498 0.01755 0.0
C558 C 0.10112 0.57496 0.00425 0.0
C559 C 0.07222 0.57963 0.04053 0.0
C560 C 0.13395 0.55989 0.01411 0.0
C561 C 0.13552 0.55376 0.03688 0.0
H562 H 0.50784 0.11465 0.4458 0.0
H563 H 0.59122 1.037 0.46249 0.0
H564 H 0.60883 1.03422 0.42352 0.0
H565 H 0.59645 0.05054 0.38434 0.0
H566 H 0.51111 0.12681 0.36848 0.0
H567 H 0.49813 0.13332 0.40755 0.0
C568 C 0.53008 0.09727 0.44096 0.0
C569 C 0.54792 0.07575 0.4569 0.0
C570 C 0.53939 0.09534 0.41866 0.0
C571 C 0.57694 0.05366 0.45044 0.0
C572 C 0.5869 0.05201 0.42818 0.0
C573 C 0.57543 0.06893 0.38953 0.0
C574 C 0.55441 0.08784 0.37356 0.0
C575 C 0.56774 0.07222 0.41209 0.0
C576 C 0.52707 0.11143 0.38044 0.0
C577 C 0.51977 0.1153 0.40277 0.0
H578 H 0.65759 0.61434 0.75304 0.0
H579 H 0.5251 0.55239 0.76508 0.0
H580 H 0.50969 0.54151 0.72537 0.0
H581 H 0.5331 0.55261 0.68702 0.0
H582 H 0.66592 0.61324 0.6751 0.0
H583 H 0.68202 0.62149 0.71486 0.0
C584 C 0.62544 0.59816 0.74696 0.0
C585 C 0.59246 0.58453 0.76196 0.0
C586 C 0.61681 0.59198 0.7241 0.0
C587 C 0.55104 0.56332 0.75387 0.0
C588 C 0.54216 0.55721 0.73115 0.0
C589 C 0.56554 0.56761 0.69317 0.0
C590 C 0.59821 0.58253 0.67814 0.0
C591 C 0.57462 0.57198 0.71609 0.0
C592 C 0.64027 0.60134 0.68633 0.0
C593 C 0.64945 0.60619 0.70906 0.0
H594 H 0.54112 1.00741 0.59509 0.0
H595 H 0.49606 0.11314 0.57692 0.0
H596 H 0.4482 0.10159 0.60775 0.0
H597 H 0.41851 0.06166 0.63952 0.0
H598 H 0.46177 0.95558 0.65861 0.0
H599 H 0.51018 0.96637 0.62752 0.0
C600 C 0.52104 1.02799 0.59808 0.0
C601 C 0.52228 0.06121 0.58388 0.0
C602 C 0.49293 1.02085 0.6158 0.0
C603 C 0.49573 0.08741 0.58767 0.0
C604 C 0.46825 0.0808 0.60525 0.0
C605 C 0.43875 1.04102 0.63699 0.0
C606 C 0.4369 1.00815 0.65143 0.0
C607 C 0.46651 1.04763 0.61935 0.0
C608 C 0.46252 0.98105 0.64762 0.0
C609 C 0.4904 0.9874 0.62997 0.0
H610 H 0.6416 0.55254 0.90391 0.0
H611 H 0.55306 0.62625 0.88967 0.0
H612 H 0.54404 0.63446 0.92914 0.0
H613 H 0.55698 0.61621 0.96746 0.0
H614 H 0.64899 0.54587 0.98182 0.0
H615 H 0.66014 0.54017 0.94256 0.0
C616 C 0.62072 0.57077 0.90949 0.0
C617 C 0.5977 0.58837 0.89394 0.0
C618 C 0.61567 0.57539 0.93221 0.0
C619 C 0.57104 0.61225 0.90135 0.0
C620 C 0.5657 0.6168 0.92391 0.0
C621 C 0.5801 0.60025 0.96214 0.0
C622 C 0.60144 0.58091 0.97777 0.0
C623 C 0.58723 0.59785 0.93948 0.0
C624 C 0.63096 0.56004 0.97028 0.0
C625 C 0.63777 0.55708 0.94778 0.0
H626 H 1.02682 0.61895 0.22303 0.0
H627 H 0.119 0.54812 0.21473 0.0
H628 H 0.11774 0.53271 0.25425 0.0
H629 H 0.09167 0.54109 0.29139 0.0
H630 H 0.99863 0.61126 0.29914 0.0
H631 H 0.99865 0.62488 0.25959 0.0
C632 C 0.04659 0.60008 0.22987 0.0
C633 C 0.07328 0.58501 0.21607 0.0
C634 C 0.04547 0.59119 0.2525 0.0
C635 C 0.09834 0.56022 0.22508 0.0
C636 C 0.09765 0.55145 0.24766 0.0
C637 C 0.07146 0.55938 0.28439 0.0
C638 C 0.04524 0.5752 0.29821 0.0
C639 C 0.0716 0.56708 0.26157 0.0
C640 C 1.01878 0.59839 0.28886 0.0
C641 C 1.01896 0.6064 0.26626 0.0
loop_
_geom_bond_atom_site_label_1
_geom_bond_atom_site_label_2
_geom_bond_distance
_geom_bond_site_symmetry_2
_ccdc_geom_bond_type
Pr0 C2 2.880 . S
Pr0 O20 2.562 . S
Pr0 O21 2.490 . S
Pr0 O22 2.695 1_655 S
Pr0 O23 2.512 . S
Pr0 O25 2.437 . S
Pr0 O28 2.436 . S
Pr0 O30 2.438 1_655 S
Pr1 C11 2.880 . S
Pr1 O22 2.436 . S
Pr1 O24 2.438 1_455 S
Pr1 O26 2.562 . S
Pr1 O27 2.490 . S
Pr1 O28 2.695 1_455 S
Pr1 O29 2.512 . S
Pr1 O31 2.437 . S
C2 Pr0 2.880 . S
C2 C3 1.491 . S
C2 O20 1.254 . S
C2 O21 1.225 . S
C3 C2 1.491 . S
C3 C4 1.392 . S
C3 C8 1.356 . S
C4 C3 1.392 . S
C4 C5 1.368 . S
C4 H32 0.929 . S
C5 C4 1.368 . S
C5 C6 1.386 . S
C5 H33 0.929 . S
C6 C5 1.386 . S
C6 C7 1.373 . S
C7 C6 1.373 . S
C7 C8 1.409 . S
C7 H34 0.931 . S
C8 C3 1.356 . S
C8 C7 1.409 . S
C8 H35 0.930 . S
C9 O22 1.270 . S
C9 O23 1.248 1_455 S
C10 O24 1.267 . S
C10 O25 1.278 . S
C11 Pr1 2.880 . S
C11 C12 1.491 . S
C11 O26 1.254 . S
C11 O27 1.225 . S
C12 C11 1.491 . S
C12 C13 1.392 . S
C12 C17 1.356 . S
C13 C12 1.392 . S
C13 C14 1.368 . S
C13 H36 0.929 . S
C14 C13 1.368 . S
C14 C15 1.386 . S
C14 H37 0.929 . S
C15 C14 1.386 . S
C15 C16 1.373 . S
C16 C15 1.373 . S
C16 C17 1.409 . S
C16 H38 0.931 . S
C17 C12 1.356 . S
C17 C16 1.409 . S
C17 H39 0.930 . S
C18 O28 1.270 1_455 S
C18 O29 1.248 . S
C19 O30 1.267 . S
C19 O31 1.278 . S
O20 Pr0 2.562 . S
O20 C2 1.254 . S
O21 Pr0 2.490 . S
O21 C2 1.225 . S
O22 Pr0 2.695 1_455 S
O22 Pr1 2.436 . S
O22 C9 1.270 . S
O23 Pr0 2.512 . S
O23 C9 1.248 1_655 S
O24 Pr1 2.438 1_655 S
O24 C10 1.267 . S
O25 Pr0 2.437 . S
O25 C10 1.278 . S
O26 Pr1 2.562 . S
O26 C11 1.254 . S
O27 Pr1 2.490 . S
O27 C11 1.225 . S
O28 Pr0 2.436 . S
O28 Pr1 2.695 1_655 S
O28 C18 1.270 1_655 S
O29 Pr1 2.512 . S
O29 C18 1.248 . S
O30 Pr0 2.438 1_455 S
O30 C19 1.267 . S
O31 Pr1 2.437 . S
O31 C19 1.278 . S
H32 C4 0.929 . S
H33 C5 0.929 . S
H34 C7 0.931 . S
H35 C8 0.930 . S
H36 C13 0.929 . S
H37 C14 0.929 . S
H38 C16 0.931 . S
H39 C17 0.930 . S
Pr40 C42 2.880 . S
Pr40 O60 2.562 . S
Pr40 O61 2.490 . S
Pr40 O62 2.695 . S
Pr40 O63 2.512 . S
Pr40 O65 2.437 . S
Pr40 O68 2.436 . S
Pr40 O70 2.438 1_545 S
Pr41 C51 2.880 . S
Pr41 O62 2.436 1_565 S
Pr41 O64 2.438 1_565 S
Pr41 O66 2.562 . S
Pr41 O67 2.490 . S
Pr41 O68 2.695 1_565 S
Pr41 O69 2.512 . S
Pr41 O71 2.437 . S
C42 Pr40 2.880 . S
C42 C43 1.491 . S
C42 O60 1.254 . S
C42 O61 1.225 . S
C43 C42 1.491 . S
C43 C44 1.392 . S
C43 C48 1.356 . S
C44 C43 1.392 . S
C44 C45 1.368 . S
C44 H72 0.929 . S
C45 C44 1.368 . S
C45 C46 1.386 . S
C45 H73 0.929 . S
C46 C45 1.386 . S
C46 C47 1.373 . S
C47 C46 1.373 . S
C47 C48 1.409 . S
C47 H74 0.931 . S
C48 C43 1.356 . S
C48 C47 1.409 . S
C48 H75 0.930 . S
C49 O62 1.270 . S
C49 O63 1.248 . S
C50 O64 1.267 . S
C50 O65 1.278 . S
C51 Pr41 2.880 . S
C51 C52 1.491 . S
C51 O66 1.254 . S
C51 O67 1.225 . S
C52 C51 1.491 . S
C52 C53 1.392 . S
C52 C57 1.356 . S
C53 C52 1.392 . S
C53 C54 1.368 . S
C53 H76 0.929 . S
C54 C53 1.368 . S
C54 C55 1.386 . S
C54 H77 0.929 . S
C55 C54 1.386 . S
C55 C56 1.373 . S
C56 C55 1.373 . S
C56 C57 1.409 . S
C56 H78 0.931 . S
C57 C52 1.356 . S
C57 C56 1.409 . S
C57 H79 0.930 . S
C58 O68 1.270 . S
C58 O69 1.248 1_545 S
C59 O70 1.267 . S
C59 O71 1.278 . S
O60 Pr40 2.562 . S
O60 C42 1.254 . S
O61 Pr40 2.490 . S
O61 C42 1.225 . S
O62 Pr40 2.695 . S
O62 Pr41 2.436 1_545 S
O62 C49 1.270 . S
O63 Pr40 2.512 . S
O63 C49 1.248 . S
O64 Pr41 2.438 1_545 S
O64 C50 1.267 . S
O65 Pr40 2.437 . S
O65 C50 1.278 . S
O66 Pr41 2.562 . S
O66 C51 1.254 . S
O67 Pr41 2.490 . S
O67 C51 1.225 . S
O68 Pr40 2.436 . S
O68 Pr41 2.695 1_545 S
O68 C58 1.270 . S
O69 Pr41 2.512 . S
O69 C58 1.248 1_565 S
O70 Pr40 2.438 1_565 S
O70 C59 1.267 . S
O71 Pr41 2.437 . S
O71 C59 1.278 . S
H72 C44 0.929 . S
H73 C45 0.929 . S
H74 C47 0.931 . S
H75 C48 0.930 . S
H76 C53 0.929 . S
H77 C54 0.929 . S
H78 C56 0.931 . S
H79 C57 0.930 . S
Pr80 C82 2.880 . S
Pr80 O100 2.562 . S
Pr80 O101 2.490 . S
Pr80 O102 2.695 . S
Pr80 O103 2.512 . S
Pr80 O105 2.437 . S
Pr80 O108 2.436 . S
Pr80 O110 2.438 . S
Pr81 C91 2.880 . S
Pr81 O102 2.436 . S
Pr81 O104 2.438 . S
Pr81 O106 2.562 . S
Pr81 O107 2.490 . S
Pr81 O108 2.695 . S
Pr81 O109 2.512 . S
Pr81 O111 2.437 . S
C82 Pr80 2.880 . S
C82 C83 1.491 . S
C82 O100 1.254 . S
C82 O101 1.225 . S
C83 C82 1.491 . S
C83 C84 1.392 . S
C83 C88 1.356 . S
C84 C83 1.392 . S
C84 C85 1.368 . S
C84 H112 0.929 . S
C85 C84 1.368 . S
C85 C86 1.386 . S
C85 H113 0.929 . S
C86 C85 1.386 . S
C86 C87 1.373 . S
C87 C86 1.373 . S
C87 C88 1.409 . S
C87 H114 0.931 . S
C88 C83 1.356 . S
C88 C87 1.409 . S
C88 H115 0.930 . S
C89 O102 1.270 . S
C89 O103 1.248 . S
C90 O104 1.267 . S
C90 O105 1.278 . S
C91 Pr81 2.880 . S
C91 C92 1.491 . S
C91 O106 1.254 . S
C91 O107 1.225 . S
C92 C91 1.491 . S
C92 C93 1.392 . S
C92 C97 1.356 . S
C93 C92 1.392 . S
C93 C94 1.368 . S
C93 H116 0.929 . S
C94 C93 1.368 . S
C94 C95 1.386 . S
C94 H117 0.929 . S
C95 C94 1.386 . S
C95 C96 1.373 . S
C96 C95 1.373 . S
C96 C97 1.409 . S
C96 H118 0.931 . S
C97 C92 1.356 . S
C97 C96 1.409 . S
C97 H119 0.930 . S
C98 O108 1.270 . S
C98 O109 1.248 . S
C99 O110 1.267 . S
C99 O111 1.278 . S
O100 Pr80 2.562 . S
O100 C82 1.254 . S
O101 Pr80 2.490 . S
O101 C82 1.225 . S
O102 Pr80 2.695 . S
O102 Pr81 2.436 . S
O102 C89 1.270 . S
O103 Pr80 2.512 . S
O103 C89 1.248 . S
O104 Pr81 2.438 . S
O104 C90 1.267 . S
O105 Pr80 2.437 . S
O105 C90 1.278 . S
O106 Pr81 2.562 . S
O106 C91 1.254 . S
O107 Pr81 2.490 . S
O107 C91 1.225 . S
O108 Pr80 2.436 . S
O108 Pr81 2.695 . S
O108 C98 1.270 . S
O109 Pr81 2.512 . S
O109 C98 1.248 . S
O110 Pr80 2.438 . S
O110 C99 1.267 . S
O111 Pr81 2.437 . S
O111 C99 1.278 . S
H112 C84 0.929 . S
H113 C85 0.929 . S
H114 C87 0.931 . S
H115 C88 0.930 . S
H116 C93 0.929 . S
H117 C94 0.929 . S
H118 C96 0.931 . S
H119 C97 0.930 . S
C120 C121 1.386 . S
C120 C122 1.397 . S
C120 H144 0.931 . S
C121 C120 1.386 . S
C121 C125 1.397 1_545 S
C122 C120 1.397 . S
C122 C123 1.384 . S
C122 H145 0.930 . S
C123 C122 1.384 . S
C123 C124 1.377 1_545 S
C123 C126 1.481 . S
C124 C123 1.377 1_565 S
C124 C125 1.389 . S
C124 H146 0.929 . S
C125 C121 1.397 1_565 S
C125 C124 1.389 . S
C125 H147 0.931 . S
C126 C123 1.481 . S
C126 C127 1.387 . S
C126 C131 1.390 . S
C127 C126 1.387 . S
C127 C128 1.401 . S
C127 H148 0.930 . S
C128 C127 1.401 . S
C128 C129 1.376 . S
C128 C137 1.511 . S
C129 C128 1.376 . S
C129 C130 1.394 . S
C129 H150 0.931 . S
C130 C129 1.394 . S
C130 C131 1.361 . S
C130 C132 1.497 1_545 S
C131 C126 1.390 . S
C131 C130 1.361 . S
C131 H149 0.931 1_545 S
C132 C130 1.497 1_565 S
C132 C133 1.371 . S
C132 C134 1.365 . S
C133 C132 1.371 . S
C133 C143 1.386 . S
C133 H151 0.931 . S
C134 C132 1.365 . S
C134 C135 1.409 . S
C134 H152 0.929 . S
C135 C134 1.409 . S
C135 C136 1.380 . S
C135 H153 0.930 . S
C136 C135 1.380 . S
C136 C143 1.357 . S
C137 C128 1.511 . S
C137 C138 1.341 . S
C137 C139 1.371 . S
C138 C137 1.341 . S
C138 C142 1.394 . S
C138 H154 0.930 . S
C139 C137 1.371 . S
C139 C140 1.392 . S
C139 H155 0.931 . S
C140 C139 1.392 . S
C140 C141 1.331 . S
C140 H158 0.932 . S
C141 C140 1.331 . S
C141 C142 1.336 . S
C142 C138 1.394 . S
C142 C141 1.336 . S
C142 H157 0.929 . S
C143 C133 1.386 . S
C143 C136 1.357 . S
C143 H156 0.928 . S
H144 C120 0.931 . S
H145 C122 0.930 . S
H146 C124 0.929 . S
H147 C125 0.931 . S
H148 C127 0.930 . S
H149 C131 0.931 1_565 S
H150 C129 0.931 . S
H151 C133 0.931 . S
H152 C134 0.929 . S
H153 C135 0.930 . S
H154 C138 0.930 . S
H155 C139 0.931 . S
H156 C143 0.928 . S
H157 C142 0.929 . S
H158 C140 0.932 . S
C159 C160 1.386 . S
C159 C161 1.397 . S
C159 H183 0.931 . S
C160 C159 1.386 . S
C160 C164 1.397 . S
C161 C159 1.397 . S
C161 C162 1.384 . S
C161 H184 0.930 . S
C162 C161 1.384 . S
C162 C163 1.377 . S
C162 C165 1.481 . S
C163 C162 1.377 . S
C163 C164 1.389 . S
C163 H185 0.929 . S
C164 C160 1.397 . S
C164 C163 1.389 . S
C164 H186 0.931 . S
C165 C162 1.481 . S
C165 C166 1.387 . S
C165 C170 1.390 . S
C166 C165 1.387 . S
C166 C167 1.401 . S
C166 H187 0.930 . S
C167 C166 1.401 . S
C167 C168 1.376 . S
C167 C176 1.511 . S
C168 C167 1.376 . S
C168 C169 1.392 . S
C168 H189 0.931 . S
C169 C168 1.392 . S
C169 C170 1.361 . S
C169 C171 1.500 . S
C170 C165 1.390 . S
C170 C169 1.361 . S
C170 H188 0.931 . S
C171 C169 1.500 . S
C171 C172 1.371 . S
C171 C173 1.365 . S
C172 C171 1.371 . S
C172 C182 1.386 . S
C172 H190 0.931 . S
C173 C171 1.365 . S
C173 C174 1.409 . S
C173 H191 0.929 . S
C174 C173 1.409 . S
C174 C175 1.380 . S
C174 H192 0.930 . S
C175 C174 1.380 . S
C175 C182 1.357 . S
C176 C167 1.511 . S
C176 C177 1.341 . S
C176 C178 1.371 . S
C177 C176 1.341 . S
C177 C181 1.394 . S
C177 H193 0.930 . S
C178 C176 1.371 . S
C178 C179 1.392 . S
C178 H194 0.931 . S
C179 C178 1.392 . S
C179 C180 1.331 . S
C179 H197 0.932 . S
C180 C179 1.331 . S
C180 C181 1.336 . S
C181 C177 1.394 . S
C181 C180 1.336 . S
C181 H196 0.929 . S
C182 C172 1.386 . S
C182 C175 1.357 . S
C182 H195 0.928 . S
H183 C159 0.931 . S
H184 C161 0.930 . S
H185 C163 0.929 . S
H186 C164 0.931 . S
H187 C166 0.930 . S
H188 C170 0.931 . S
H189 C168 0.931 . S
H190 C172 0.931 . S
H191 C173 0.929 . S
H192 C174 0.930 . S
H193 C177 0.930 . S
H194 C178 0.931 . S
H195 C182 0.928 . S
H196 C181 0.929 . S
H197 C179 0.932 . S
C198 C199 1.386 . S
C198 C200 1.397 . S
C198 H222 0.931 . S
C199 C198 1.386 . S
C199 C203 1.397 1_455 S
C200 C198 1.397 . S
C200 C201 1.384 . S
C200 H223 0.930 . S
C201 C200 1.384 . S
C201 C202 1.377 1_455 S
C201 C204 1.481 . S
C202 C201 1.377 1_655 S
C202 C203 1.389 . S
C202 H224 0.929 . S
C203 C199 1.397 1_655 S
C203 C202 1.389 . S
C203 H225 0.931 . S
C204 C201 1.481 . S
C204 C205 1.387 . S
C204 C209 1.390 1_455 S
C205 C204 1.387 . S
C205 C206 1.401 . S
C205 H226 0.930 . S
C206 C205 1.401 . S
C206 C207 1.376 . S
C206 C215 1.511 . S
C207 C206 1.376 . S
C207 C208 1.392 1_455 S
C207 H228 0.931 . S
C208 C207 1.392 1_655 S
C208 C209 1.361 . S
C208 C210 1.500 . S
C209 C204 1.390 1_655 S
C209 C208 1.361 . S
C209 H227 0.931 . S
C210 C208 1.500 . S
C210 C211 1.371 . S
C210 C212 1.365 . S
C211 C210 1.371 . S
C211 C221 1.386 . S
C211 H229 0.931 . S
C212 C210 1.365 . S
C212 C213 1.409 . S
C212 H230 0.929 . S
C213 C212 1.409 . S
C213 C214 1.380 . S
C213 H231 0.930 . S
C214 C213 1.380 . S
C214 C221 1.357 . S
C215 C206 1.511 . S
C215 C216 1.341 . S
C215 C217 1.371 . S
C216 C215 1.341 . S
C216 C220 1.394 . S
C216 H232 0.930 . S
C217 C215 1.371 . S
C217 C218 1.392 . S
C217 H233 0.931 . S
C218 C217 1.392 . S
C218 C219 1.331 . S
C218 H236 0.932 . S
C219 C218 1.331 . S
C219 C220 1.336 . S
C220 C216 1.394 . S
C220 C219 1.336 . S
C220 H235 0.929 . S
C221 C211 1.386 . S
C221 C214 1.357 . S
C221 H234 0.928 . S
H222 C198 0.931 . S
H223 C200 0.930 . S
H224 C202 0.929 . S
H225 C203 0.931 . S
H226 C205 0.930 . S
H227 C209 0.931 . S
H228 C207 0.931 . S
H229 C211 0.931 . S
H230 C212 0.929 . S
H231 C213 0.930 . S
H232 C216 0.930 . S
H233 C217 0.931 . S
H234 C221 0.928 . S
H235 C220 0.929 . S
H236 C218 0.932 . S
C237 C238 1.386 . S
C237 C239 1.397 . S
C237 H261 0.931 . S
C238 C237 1.386 . S
C238 C242 1.397 1_655 S
C239 C237 1.397 . S
C239 C240 1.384 . S
C239 H262 0.930 . S
C240 C239 1.384 . S
C240 C241 1.377 1_655 S
C240 C243 1.481 . S
C241 C240 1.377 1_455 S
C241 C242 1.389 . S
C241 H263 0.929 . S
C242 C238 1.397 1_455 S
C242 C241 1.389 . S
C242 H264 0.931 . S
C243 C240 1.481 . S
C243 C244 1.387 . S
C243 C248 1.390 1_655 S
C244 C243 1.387 . S
C244 C245 1.401 . S
C244 H265 0.930 . S
C245 C244 1.401 . S
C245 C246 1.376 1_655 S
C245 C254 1.511 . S
C246 C245 1.376 1_455 S
C246 C247 1.392 . S
C246 H267 0.931 . S
C247 C246 1.392 . S
C247 C248 1.361 . S
C247 C249 1.500 . S
C248 C243 1.390 1_455 S
C248 C247 1.361 . S
C248 H266 0.931 . S
C249 C247 1.500 . S
C249 C250 1.371 . S
C249 C251 1.365 . S
C250 C249 1.371 . S
C250 C260 1.386 . S
C250 H268 0.931 . S
C251 C249 1.365 . S
C251 C252 1.409 . S
C251 H269 0.929 . S
C252 C251 1.409 . S
C252 C253 1.380 . S
C252 H270 0.930 . S
C253 C252 1.380 . S
C253 C260 1.357 . S
C254 C245 1.511 . S
C254 C255 1.341 . S
C254 C256 1.371 . S
C255 C254 1.341 . S
C255 C259 1.394 . S
C255 H271 0.930 . S
C256 C254 1.371 . S
C256 C257 1.392 . S
C256 H272 0.931 . S
C257 C256 1.392 . S
C257 C258 1.331 . S
C257 H275 0.932 . S
C258 C257 1.331 . S
C258 C259 1.336 . S
C259 C255 1.394 . S
C259 C258 1.336 . S
C259 H274 0.929 . S
C260 C250 1.386 . S
C260 C253 1.357 . S
C260 H273 0.928 . S
H261 C237 0.931 . S
H262 C239 0.930 . S
H263 C241 0.929 . S
H264 C242 0.931 . S
H265 C244 0.930 . S
H266 C248 0.931 . S
H267 C246 0.931 . S
H268 C250 0.931 . S
H269 C251 0.929 . S
H270 C252 0.930 . S
H271 C255 0.930 . S
H272 C256 0.931 . S
H273 C260 0.928 . S
H274 C259 0.929 . S
H275 C257 0.932 . S
C276 C277 1.386 1_565 S
C276 C278 1.397 . S
C276 H300 0.931 . S
C277 C276 1.386 1_545 S
C277 C281 1.397 . S
C278 C276 1.397 . S
C278 C279 1.384 1_565 S
C278 H301 0.930 . S
C279 C278 1.384 1_545 S
C279 C280 1.377 . S
C279 C282 1.481 . S
C280 C279 1.377 . S
C280 C281 1.389 . S
C280 H302 0.929 . S
C281 C277 1.397 . S
C281 C280 1.389 . S
C281 H303 0.931 . S
C282 C279 1.481 . S
C282 C283 1.387 1_545 S
C282 C287 1.390 . S
C283 C282 1.387 1_565 S
C283 C284 1.401 . S
C283 H304 0.930 . S
C284 C283 1.401 . S
C284 C285 1.376 1_565 S
C284 C293 1.511 . S
C285 C284 1.376 1_545 S
C285 C286 1.392 . S
C285 H306 0.931 . S
C286 C285 1.392 . S
C286 C287 1.361 . S
C286 C288 1.500 . S
C287 C282 1.390 . S
C287 C286 1.361 . S
C287 H305 0.931 . S
C288 C286 1.500 . S
C288 C289 1.371 . S
C288 C290 1.365 . S
C289 C288 1.371 . S
C289 C299 1.386 . S
C289 H307 0.931 . S
C290 C288 1.365 . S
C290 C291 1.409 . S
C290 H308 0.929 . S
C291 C290 1.409 . S
C291 C292 1.380 . S
C291 H309 0.930 . S
C292 C291 1.380 . S
C292 C299 1.357 . S
C293 C284 1.511 . S
C293 C294 1.341 . S
C293 C295 1.371 . S
C294 C293 1.341 . S
C294 C298 1.394 . S
C294 H310 0.930 . S
C295 C293 1.371 . S
C295 C296 1.392 . S
C295 H311 0.931 . S
C296 C295 1.392 . S
C296 C297 1.331 . S
C296 H314 0.932 . S
C297 C296 1.331 . S
C297 C298 1.336 . S
C298 C294 1.394 . S
C298 C297 1.336 . S
C298 H313 0.929 . S
C299 C289 1.386 . S
C299 C292 1.357 . S
C299 H312 0.928 . S
H300 C276 0.931 . S
H301 C278 0.930 . S
H302 C280 0.929 . S
H303 C281 0.931 . S
H304 C283 0.930 . S
H305 C287 0.931 . S
H306 C285 0.931 . S
H307 C289 0.931 . S
H308 C290 0.929 . S
H309 C291 0.930 . S
H310 C294 0.930 . S
H311 C295 0.931 . S
H312 C299 0.928 . S
H313 C298 0.929 . S
H314 C296 0.932 . S
C315 C316 1.386 . S
C315 C317 1.397 . S
C315 H339 0.931 . S
C316 C315 1.386 . S
C316 C320 1.397 . S
C317 C315 1.397 . S
C317 C318 1.384 . S
C317 H340 0.930 . S
C318 C317 1.384 . S
C318 C319 1.377 . S
C318 C321 1.481 . S
C319 C318 1.377 . S
C319 C320 1.389 . S
C319 H341 0.929 . S
C320 C316 1.397 . S
C320 C319 1.389 . S
C320 H342 0.931 . S
C321 C318 1.481 . S
C321 C322 1.387 . S
C321 C326 1.390 . S
C322 C321 1.387 . S
C322 C323 1.401 . S
C322 H343 0.930 . S
C323 C322 1.401 . S
C323 C324 1.376 . S
C323 C332 1.511 . S
C324 C323 1.376 . S
C324 C325 1.392 . S
C324 H345 0.931 . S
C325 C324 1.392 . S
C325 C326 1.361 . S
C325 C327 1.500 . S
C326 C321 1.390 . S
C326 C325 1.361 . S
C326 H344 0.931 . S
C327 C325 1.500 . S
C327 C328 1.371 . S
C327 C329 1.365 . S
C328 C327 1.371 . S
C328 C338 1.386 . S
C328 H346 0.931 . S
C329 C327 1.365 . S
C329 C330 1.409 . S
C329 H347 0.929 . S
C330 C329 1.409 . S
C330 C331 1.380 . S
C330 H348 0.930 . S
C331 C330 1.380 . S
C331 C338 1.357 . S
C332 C323 1.511 . S
C332 C333 1.341 . S
C332 C334 1.371 . S
C333 C332 1.341 . S
C333 C337 1.394 . S
C333 H349 0.930 . S
C334 C332 1.371 . S
C334 C335 1.392 . S
C334 H350 0.931 . S
C335 C334 1.392 . S
C335 C336 1.331 . S
C335 H353 0.932 . S
C336 C335 1.331 . S
C336 C337 1.336 . S
C337 C333 1.394 . S
C337 C336 1.336 . S
C337 H352 0.929 . S
C338 C328 1.386 . S
C338 C331 1.357 . S
C338 H351 0.928 . S
H339 C315 0.931 . S
H340 C317 0.930 . S
H341 C319 0.929 . S
H342 C320 0.931 . S
H343 C322 0.930 . S
H344 C326 0.931 . S
H345 C324 0.931 . S
H346 C328 0.931 . S
H347 C329 0.929 . S
H348 C330 0.930 . S
H349 C333 0.930 . S
H350 C334 0.931 . S
H351 C338 0.928 . S
H352 C337 0.929 . S
H353 C335 0.932 . S
H354 C360 0.930 . S
H355 C363 0.930 . S
H356 C364 0.930 . S
H357 C365 0.930 . S
H358 C368 0.930 . S
H359 C369 0.930 . S
C360 H354 0.930 . S
C360 C361 1.355 . S
C360 C362 1.415 . S
C361 C360 1.355 . S
C361 C363 1.419 . S
C362 C360 1.415 . S
C362 C367 1.425 . S
C362 C369 1.409 . S
C363 H355 0.930 . S
C363 C361 1.419 . S
C363 C364 1.362 . S
C364 H356 0.930 . S
C364 C363 1.362 . S
C364 C367 1.409 . S
C365 H357 0.930 . S
C365 C366 1.355 . S
C365 C367 1.415 . S
C366 C365 1.355 . S
C366 C368 1.419 . S
C367 C362 1.425 . S
C367 C364 1.409 . S
C367 C365 1.415 . S
C368 H358 0.930 . S
C368 C366 1.419 . S
C368 C369 1.362 . S
C369 H359 0.930 . S
C369 C362 1.409 . S
C369 C368 1.362 . S
H370 C376 0.930 . S
H371 C379 0.930 . S
H372 C380 0.930 . S
H373 C381 0.930 . S
H374 C384 0.930 . S
H375 C385 0.930 . S
C376 H370 0.930 . S
C376 C377 1.355 . S
C376 C378 1.415 . S
C377 C376 1.355 . S
C377 C379 1.419 . S
C378 C376 1.415 . S
C378 C383 1.425 . S
C378 C385 1.409 . S
C379 H371 0.930 . S
C379 C377 1.419 . S
C379 C380 1.362 . S
C380 H372 0.930 . S
C380 C379 1.362 . S
C380 C383 1.409 . S
C381 H373 0.930 . S
C381 C382 1.355 . S
C381 C383 1.415 . S
C382 C381 1.355 . S
C382 C384 1.419 . S
C383 C378 1.425 . S
C383 C380 1.409 . S
C383 C381 1.415 . S
C384 H374 0.930 . S
C384 C382 1.419 . S
C384 C385 1.362 . S
C385 H375 0.930 . S
C385 C378 1.409 . S
C385 C384 1.362 . S
H386 C392 0.930 . S
H387 C395 0.930 . S
H388 C396 0.930 . S
H389 C397 0.930 . S
H390 C400 0.930 . S
H391 C401 0.930 . S
C392 H386 0.930 . S
C392 C393 1.355 . S
C392 C394 1.415 . S
C393 C392 1.355 . S
C393 C395 1.419 . S
C394 C392 1.415 . S
C394 C399 1.425 . S
C394 C401 1.409 . S
C395 H387 0.930 . S
C395 C393 1.419 . S
C395 C396 1.362 . S
C396 H388 0.930 . S
C396 C395 1.362 . S
C396 C399 1.409 . S
C397 H389 0.930 . S
C397 C398 1.355 . S
C397 C399 1.415 . S
C398 C397 1.355 . S
C398 C400 1.419 . S
C399 C394 1.425 . S
C399 C396 1.409 . S
C399 C397 1.415 . S
C400 H390 0.930 . S
C400 C398 1.419 . S
C400 C401 1.362 . S
C401 H391 0.930 . S
C401 C394 1.409 . S
C401 C400 1.362 . S
H402 C408 0.930 . S
H403 C411 0.930 . S
H404 C412 0.930 . S
H405 C413 0.930 . S
H406 C416 0.930 . S
H407 C417 0.930 . S
C408 H402 0.930 . S
C408 C409 1.355 . S
C408 C410 1.415 . S
C409 C408 1.355 . S
C409 C411 1.419 . S
C410 C408 1.415 . S
C410 C415 1.425 . S
C410 C417 1.409 . S
C411 H403 0.930 . S
C411 C409 1.419 . S
C411 C412 1.362 . S
C412 H404 0.930 . S
C412 C411 1.362 . S
C412 C415 1.409 . S
C413 H405 0.930 . S
C413 C414 1.355 . S
C413 C415 1.415 . S
C414 C413 1.355 . S
C414 C416 1.419 . S
C415 C410 1.425 . S
C415 C412 1.409 . S
C415 C413 1.415 . S
C416 H406 0.930 . S
C416 C414 1.419 . S
C416 C417 1.362 . S
C417 H407 0.930 . S
C417 C410 1.409 . S
C417 C416 1.362 . S
H418 C424 0.930 . S
H419 C427 0.930 . S
H420 C428 0.930 . S
H421 C429 0.930 . S
H422 C432 0.930 . S
H423 C433 0.930 . S
C424 H418 0.930 . S
C424 C425 1.355 . S
C424 C426 1.415 . S
C425 C424 1.355 . S
C425 C427 1.419 . S
C426 C424 1.415 . S
C426 C431 1.425 . S
C426 C433 1.409 . S
C427 H419 0.930 . S
C427 C425 1.419 . S
C427 C428 1.362 . S
C428 H420 0.930 . S
C428 C427 1.362 . S
C428 C431 1.409 . S
C429 H421 0.930 . S
C429 C430 1.355 . S
C429 C431 1.415 . S
C430 C429 1.355 . S
C430 C432 1.419 . S
C431 C426 1.425 . S
C431 C428 1.409 . S
C431 C429 1.415 . S
C432 H422 0.930 . S
C432 C430 1.419 . S
C432 C433 1.362 . S
C433 H423 0.930 . S
C433 C426 1.409 . S
C433 C432 1.362 . S
H434 C440 0.930 . S
H435 C443 0.930 . S
H436 C444 0.930 . S
H437 C445 0.930 . S
H438 C448 0.930 . S
H439 C449 0.930 . S
C440 H434 0.930 . S
C440 C441 1.355 . S
C440 C442 1.415 . S
C441 C440 1.355 . S
C441 C443 1.419 . S
C442 C440 1.415 . S
C442 C447 1.425 . S
C442 C449 1.409 . S
C443 H435 0.930 . S
C443 C441 1.419 . S
C443 C444 1.362 . S
C444 H436 0.930 . S
C444 C443 1.362 . S
C444 C447 1.409 . S
C445 H437 0.930 . S
C445 C446 1.355 . S
C445 C447 1.415 . S
C446 C445 1.355 . S
C446 C448 1.419 . S
C447 C442 1.425 . S
C447 C444 1.409 . S
C447 C445 1.415 . S
C448 H438 0.930 . S
C448 C446 1.419 . S
C448 C449 1.362 . S
C449 H439 0.930 . S
C449 C442 1.409 . S
C449 C448 1.362 . S
H450 C456 0.930 . S
H451 C459 0.930 . S
H452 C460 0.930 . S
H453 C461 0.930 . S
H454 C464 0.930 . S
H455 C465 0.930 . S
C456 H450 0.930 . S
C456 C457 1.355 . S
C456 C458 1.415 . S
C457 C456 1.355 . S
C457 C459 1.419 . S
C458 C456 1.415 . S
C458 C463 1.425 . S
C458 C465 1.409 . S
C459 H451 0.930 . S
C459 C457 1.419 . S
C459 C460 1.362 . S
C460 H452 0.930 . S
C460 C459 1.362 . S
C460 C463 1.409 . S
C461 H453 0.930 . S
C461 C462 1.355 . S
C461 C463 1.415 . S
C462 C461 1.355 . S
C462 C464 1.419 . S
C463 C458 1.425 . S
C463 C460 1.409 . S
C463 C461 1.415 . S
C464 H454 0.930 . S
C464 C462 1.419 . S
C464 C465 1.362 . S
C465 H455 0.930 . S
C465 C458 1.409 . S
C465 C464 1.362 . S
H466 C472 0.930 . S
H467 C475 0.930 . S
H468 C476 0.930 . S
H469 C477 0.930 . S
H470 C480 0.930 . S
H471 C481 0.930 . S
C472 H466 0.930 . S
C472 C473 1.355 . S
C472 C474 1.415 . S
C473 C472 1.355 . S
C473 C475 1.419 . S
C474 C472 1.415 . S
C474 C479 1.425 . S
C474 C481 1.409 . S
C475 H467 0.930 . S
C475 C473 1.419 . S
C475 C476 1.362 . S
C476 H468 0.930 . S
C476 C475 1.362 . S
C476 C479 1.409 . S
C477 H469 0.930 . S
C477 C478 1.355 . S
C477 C479 1.415 . S
C478 C477 1.355 . S
C478 C480 1.419 . S
C479 C474 1.425 . S
C479 C476 1.409 . S
C479 C477 1.415 . S
C480 H470 0.930 . S
C480 C478 1.419 . S
C480 C481 1.362 . S
C481 H471 0.930 . S
C481 C474 1.409 . S
C481 C480 1.362 . S
H482 C488 0.930 . S
H483 C491 0.930 . S
H484 C492 0.930 . S
H485 C493 0.930 . S
H486 C496 0.930 . S
H487 C497 0.930 . S
C488 H482 0.930 . S
C488 C489 1.355 . S
C488 C490 1.415 . S
C489 C488 1.355 . S
C489 C491 1.419 . S
C490 C488 1.415 . S
C490 C495 1.425 . S
C490 C497 1.409 . S
C491 H483 0.930 . S
C491 C489 1.419 . S
C491 C492 1.362 . S
C492 H484 0.930 . S
C492 C491 1.362 . S
C492 C495 1.409 . S
C493 H485 0.930 . S
C493 C494 1.355 . S
C493 C495 1.415 . S
C494 C493 1.355 . S
C494 C496 1.419 . S
C495 C490 1.425 . S
C495 C492 1.409 . S
C495 C493 1.415 . S
C496 H486 0.930 . S
C496 C494 1.419 . S
C496 C497 1.362 . S
C497 H487 0.930 . S
C497 C490 1.409 . S
C497 C496 1.362 . S
H498 C504 0.930 . S
H499 C507 0.930 . S
H500 C508 0.930 . S
H501 C509 0.930 . S
H502 C512 0.930 . S
H503 C513 0.930 . S
C504 H498 0.930 . S
C504 C505 1.355 . S
C504 C506 1.415 . S
C505 C504 1.355 . S
C505 C507 1.419 . S
C506 C504 1.415 . S
C506 C511 1.425 . S
C506 C513 1.409 . S
C507 H499 0.930 . S
C507 C505 1.419 . S
C507 C508 1.362 . S
C508 H500 0.930 . S
C508 C507 1.362 . S
C508 C511 1.409 . S
C509 H501 0.930 . S
C509 C510 1.355 . S
C509 C511 1.415 . S
C510 C509 1.355 . S
C510 C512 1.419 . S
C511 C506 1.425 . S
C511 C508 1.409 . S
C511 C509 1.415 . S
C512 H502 0.930 . S
C512 C510 1.419 . S
C512 C513 1.362 . S
C513 H503 0.930 . S
C513 C506 1.409 . S
C513 C512 1.362 . S
H514 C520 0.930 . S
H515 C523 0.930 . S
H516 C524 0.930 . S
H517 C525 0.930 . S
H518 C528 0.930 . S
H519 C529 0.930 . S
C520 H514 0.930 . S
C520 C521 1.355 . S
C520 C522 1.415 . S
C521 C520 1.355 . S
C521 C523 1.419 . S
C522 C520 1.415 . S
C522 C527 1.425 . S
C522 C529 1.409 . S
C523 H515 0.930 . S
C523 C521 1.419 . S
C523 C524 1.362 . S
C524 H516 0.930 . S
C524 C523 1.362 . S
C524 C527 1.409 . S
C525 H517 0.930 . S
C525 C526 1.355 . S
C525 C527 1.415 . S
C526 C525 1.355 . S
C526 C528 1.419 . S
C527 C522 1.425 . S
C527 C524 1.409 . S
C527 C525 1.415 . S
C528 H518 0.930 . S
C528 C526 1.419 . S
C528 C529 1.362 . S
C529 H519 0.930 . S
C529 C522 1.409 . S
C529 C528 1.362 . S
H530 C536 0.930 . S
H531 C539 0.930 . S
H532 C540 0.930 . S
H533 C541 0.930 . S
H534 C544 0.930 . S
H535 C545 0.930 . S
C536 H530 0.930 . S
C536 C537 1.355 . S
C536 C538 1.415 . S
C537 C536 1.355 . S
C537 C539 1.419 . S
C538 C536 1.415 . S
C538 C543 1.425 . S
C538 C545 1.409 . S
C539 H531 0.930 . S
C539 C537 1.419 . S
C539 C540 1.362 . S
C540 H532 0.930 . S
C540 C539 1.362 . S
C540 C543 1.409 . S
C541 H533 0.930 . S
C541 C542 1.355 . S
C541 C543 1.415 . S
C542 C541 1.355 . S
C542 C544 1.419 . S
C543 C538 1.425 . S
C543 C540 1.409 . S
C543 C541 1.415 . S
C544 H534 0.930 . S
C544 C542 1.419 . S
C544 C545 1.362 . S
C545 H535 0.930 . S
C545 C538 1.409 . S
C545 C544 1.362 . S
H546 C552 0.930 . S
H547 C555 0.930 . S
H548 C556 0.930 . S
H549 C557 0.930 . S
H550 C560 0.930 . S
H551 C561 0.930 . S
C552 H546 0.930 . S
C552 C553 1.355 . S
C552 C554 1.415 . S
C553 C552 1.355 . S
C553 C555 1.419 1_455 S
C554 C552 1.415 . S
C554 C559 1.436 . S
C554 C561 1.409 . S
C555 H547 0.930 . S
C555 C553 1.419 1_655 S
C555 C556 1.362 . S
C556 H548 0.930 . S
C556 C555 1.362 . S
C556 C559 1.400 1_655 S
C557 H549 0.930 . S
C557 C558 1.355 1_655 S
C557 C559 1.414 1_655 S
C558 C557 1.355 1_455 S
C558 C560 1.419 . S
C559 C554 1.436 . S
C559 C556 1.400 1_455 S
C559 C557 1.414 1_455 S
C560 H550 0.930 . S
C560 C558 1.419 . S
C560 C561 1.362 . S
C561 H551 0.930 . S
C561 C554 1.409 . S
C561 C560 1.362 . S
H562 C568 0.930 . S
H563 C571 0.930 . S
H564 C572 0.930 . S
H565 C573 0.933 1_565 S
H566 C576 0.930 . S
H567 C577 0.930 . S
C568 H562 0.930 . S
C568 C569 1.355 . S
C568 C570 1.415 . S
C569 C568 1.355 . S
C569 C571 1.419 1_545 S
C570 C568 1.415 . S
C570 C575 1.425 . S
C570 C577 1.409 . S
C571 H563 0.930 . S
C571 C569 1.419 1_565 S
C571 C572 1.362 . S
C572 H564 0.930 . S
C572 C571 1.362 . S
C572 C575 1.409 1_565 S
C573 H565 0.933 1_545 S
C573 C574 1.352 . S
C573 C575 1.414 . S
C574 C573 1.352 . S
C574 C576 1.419 . S
C575 C570 1.425 . S
C575 C572 1.409 1_545 S
C575 C573 1.414 . S
C576 H566 0.930 . S
C576 C574 1.419 . S
C576 C577 1.362 . S
C577 H567 0.930 . S
C577 C570 1.409 . S
C577 C576 1.362 . S
H578 C584 0.930 . S
H579 C587 0.930 . S
H580 C588 0.930 . S
H581 C589 0.930 . S
H582 C592 0.930 . S
H583 C593 0.930 . S
C584 H578 0.930 . S
C584 C585 1.355 . S
C584 C586 1.415 . S
C585 C584 1.355 . S
C585 C587 1.419 . S
C586 C584 1.415 . S
C586 C591 1.425 . S
C586 C593 1.409 . S
C587 H579 0.930 . S
C587 C585 1.419 . S
C587 C588 1.362 . S
C588 H580 0.930 . S
C588 C587 1.362 . S
C588 C591 1.409 . S
C589 H581 0.930 . S
C589 C590 1.355 . S
C589 C591 1.415 . S
C590 C589 1.355 . S
C590 C592 1.419 . S
C591 C586 1.425 . S
C591 C588 1.409 . S
C591 C589 1.415 . S
C592 H582 0.930 . S
C592 C590 1.419 . S
C592 C593 1.362 . S
C593 H583 0.930 . S
C593 C586 1.409 . S
C593 C592 1.362 . S
H594 C600 0.930 . S
H595 C603 0.930 . S
H596 C604 0.930 . S
H597 C605 0.930 . S
H598 C608 0.930 . S
H599 C609 0.930 . S
C600 H594 0.930 . S
C600 C601 1.355 1_565 S
C600 C602 1.415 . S
C601 C600 1.355 1_545 S
C601 C603 1.419 . S
C602 C600 1.415 . S
C602 C607 1.425 1_565 S
C602 C609 1.409 . S
C603 H595 0.930 . S
C603 C601 1.419 . S
C603 C604 1.362 . S
C604 H596 0.930 . S
C604 C603 1.362 . S
C604 C607 1.409 . S
C605 H597 0.930 . S
C605 C606 1.355 . S
C605 C607 1.415 . S
C606 C605 1.355 . S
C606 C608 1.419 1_545 S
C607 C602 1.425 1_545 S
C607 C604 1.409 . S
C607 C605 1.415 . S
C608 H598 0.930 . S
C608 C606 1.419 1_565 S
C608 C609 1.362 . S
C609 H599 0.930 . S
C609 C602 1.409 . S
C609 C608 1.362 . S
H610 C616 0.930 . S
H611 C619 0.930 . S
H612 C620 0.930 . S
H613 C621 0.930 . S
H614 C624 0.930 . S
H615 C625 0.930 . S
C616 H610 0.930 . S
C616 C617 1.355 . S
C616 C618 1.415 . S
C617 C616 1.355 . S
C617 C619 1.419 . S
C618 C616 1.415 . S
C618 C623 1.425 . S
C618 C625 1.409 . S
C619 H611 0.930 . S
C619 C617 1.419 . S
C619 C620 1.362 . S
C620 H612 0.930 . S
C620 C619 1.362 . S
C620 C623 1.409 . S
C621 H613 0.930 . S
C621 C622 1.355 . S
C621 C623 1.415 . S
C622 C621 1.355 . S
C622 C624 1.419 . S
C623 C618 1.425 . S
C623 C620 1.409 . S
C623 C621 1.415 . S
C624 H614 0.930 . S
C624 C622 1.419 . S
C624 C625 1.362 . S
C625 H615 0.930 . S
C625 C618 1.409 . S
C625 C624 1.362 . S
H626 C632 0.930 . S
H627 C635 0.930 . S
H628 C636 0.930 . S
H629 C637 0.930 . S
H630 C640 0.930 . S
H631 C641 0.930 . S
C632 H626 0.930 . S
C632 C633 1.355 . S
C632 C634 1.415 . S
C633 C632 1.355 . S
C633 C635 1.419 1_455 S
C634 C632 1.415 . S
C634 C639 1.425 1_455 S
C634 C641 1.409 . S
C635 H627 0.930 . S
C635 C633 1.419 1_655 S
C635 C636 1.362 . S
C636 H628 0.930 . S
C636 C635 1.362 . S
C636 C639 1.409 . S
C637 H629 0.930 . S
C637 C638 1.355 . S
C637 C639 1.415 . S
C638 C637 1.355 . S
C638 C640 1.419 1_655 S
C639 C634 1.425 1_655 S
C639 C636 1.409 . S
C639 C637 1.415 . S
C640 H630 0.930 . S
C640 C638 1.419 1_455 S
C640 C641 1.362 . S
C641 H631 0.930 . S
C641 C634 1.409 . S
C641 C640 1.362 . S
C361 C19 1.969 . S
C366 C331 1.936 . S
C377 C46 1.254 . S
C382 C258 1.282 . S
C393 C95 0.394 . S
C398 C297 0.393 . S
C409 C10 2.076 . S
C414 C336 1.976 . S
C430 C253 1.342 . S
C425 C55 1.289 . S
C446 C292 0.613 . S
C441 C86 0.584 . S
C457 C59 3.147 . S
C462 C180 3.099 . S
C473 C90 2.118 . S
C478 C214 2.033 . S
C489 C15 1.322 . S
C494 C136 1.313 . S
C510 C175 2.988 . S
C505 C50 3.058 . S
C526 C219 1.924 . S
C521 C99 1.969 . S
C537 C6 1.268 . S
C542 C141 1.244 . S
C558 C199 1.369 1_554 S
C553 C9 1.351 . S
C569 C58 1.416 . S
C574 C121 1.502 . S
C585 C98 1.728 . S
C590 C160 1.777 . S
C606 C277 1.064 . S
C601 C49 1.076 . S
C622 C316 1.358 1_556 S
C617 C89 1.283 . S
C633 C18 1.465 . S
C638 C238 1.482 . S
