# Generated by pormake.
# Topology llk, (3,12)-cn, num edge types: 1
# Building blocks:
#     Node 0, Type 0, BuildingBlock: PAMTOO_clean_linker_0, # of connection points: 3
#     Node 1, Type 0, BuildingBlock: PAMTOO_clean_linker_0, # of connection points: 3
#     Node 2, Type 0, BuildingBlock: PAMTOO_clean_linker_0, # of connection points: 3
#     Node 3, Type 0, BuildingBlock: PAMTOO_clean_linker_0, # of connection points: 3
#     Node 4, Type 0, BuildingBlock: PAMTOO_clean_linker_0, # of connection points: 3
#     Node 5, Type 0, BuildingBlock: PAMTOO_clean_linker_0, # of connection points: 3
#     Node 6, Type 0, BuildingBlock: PAMTOO_clean_linker_0, # of connection points: 3
#     Node 7, Type 0, BuildingBlock: PAMTOO_clean_linker_0, # of connection points: 3
#     Node 8, Type 0, BuildingBlock: PAMTOO_clean_linker_0, # of connection points: 3
#     Node 9, Type 0, BuildingBlock: PAMTOO_clean_linker_0, # of connection points: 3
#     Node 10, Type 0, BuildingBlock: PAMTOO_clean_linker_0, # of connection points: 3
#     Node 11, Type 0, BuildingBlock: PAMTOO_clean_linker_0, # of connection points: 3
#     Node 12, Type 0, BuildingBlock: PAMTOO_clean_linker_0, # of connection points: 3
#     Node 13, Type 0, BuildingBlock: PAMTOO_clean_linker_0, # of connection points: 3
#     Node 14, Type 0, BuildingBlock: PAMTOO_clean_linker_0, # of connection points: 3
#     Node 15, Type 0, BuildingBlock: PAMTOO_clean_linker_0, # of connection points: 3
#     Node 16, Type 0, BuildingBlock: PAMTOO_clean_linker_0, # of connection points: 3
#     Node 17, Type 0, BuildingBlock: PAMTOO_clean_linker_0, # of connection points: 3
#     Node 18, Type 0, BuildingBlock: PAMTOO_clean_linker_0, # of connection points: 3
#     Node 19, Type 0, BuildingBlock: PAMTOO_clean_linker_0, # of connection points: 3
#     Node 20, Type 0, BuildingBlock: PAMTOO_clean_linker_0, # of connection points: 3
#     Node 21, Type 0, BuildingBlock: PAMTOO_clean_linker_0, # of connection points: 3
#     Node 22, Type 0, BuildingBlock: PAMTOO_clean_linker_0, # of connection points: 3
#     Node 23, Type 0, BuildingBlock: PAMTOO_clean_linker_0, # of connection points: 3
#     Node 24, Type 1, BuildingBlock: EZIPEK_clean_sbu_0, # of connection points: 12
#     Node 25, Type 1, BuildingBlock: EZIPEK_clean_sbu_0, # of connection points: 12
#     Node 26, Type 1, BuildingBlock: EZIPEK_clean_sbu_0, # of connection points: 12
#     Node 27, Type 1, BuildingBlock: EZIPEK_clean_sbu_0, # of connection points: 12
#     Node 28, Type 1, BuildingBlock: EZIPEK_clean_sbu_0, # of connection points: 12
#     Node 29, Type 1, BuildingBlock: EZIPEK_clean_sbu_0, # of connection points: 12
#     Edge 30, Type (0, 1), BuildingBlock: EZIPEK_clean_linker_0, # of connection points: 2
#     Edge 31, Type (0, 1), BuildingBlock: EZIPEK_clean_linker_0, # of connection points: 2
#     Edge 32, Type (0, 1), BuildingBlock: EZIPEK_clean_linker_0, # of connection points: 2
#     Edge 33, Type (0, 1), BuildingBlock: EZIPEK_clean_linker_0, # of connection points: 2
#     Edge 34, Type (0, 1), BuildingBlock: EZIPEK_clean_linker_0, # of connection points: 2
#     Edge 35, Type (0, 1), BuildingBlock: EZIPEK_clean_linker_0, # of connection points: 2
#     Edge 36, Type (0, 1), BuildingBlock: EZIPEK_clean_linker_0, # of connection points: 2
#     Edge 37, Type (0, 1), BuildingBlock: EZIPEK_clean_linker_0, # of connection points: 2
#     Edge 38, Type (0, 1), BuildingBlock: EZIPEK_clean_linker_0, # of connection points: 2
#     Edge 39, Type (0, 1), BuildingBlock: EZIPEK_clean_linker_0, # of connection points: 2
#     Edge 40, Type (0, 1), BuildingBlock: EZIPEK_clean_linker_0, # of connection points: 2
#     Edge 41, Type (0, 1), BuildingBlock: EZIPEK_clean_linker_0, # of connection points: 2
#     Edge 42, Type (0, 1), BuildingBlock: EZIPEK_clean_linker_0, # of connection points: 2
#     Edge 43, Type (0, 1), BuildingBlock: EZIPEK_clean_linker_0, # of connection points: 2
#     Edge 44, Type (0, 1), BuildingBlock: EZIPEK_clean_linker_0, # of connection points: 2
#     Edge 45, Type (0, 1), BuildingBlock: EZIPEK_clean_linker_0, # of connection points: 2
#     Edge 46, Type (0, 1), BuildingBlock: EZIPEK_clean_linker_0, # of connection points: 2
#     Edge 47, Type (0, 1), BuildingBlock: EZIPEK_clean_linker_0, # of connection points: 2
#     Edge 48, Type (0, 1), BuildingBlock: EZIPEK_clean_linker_0, # of connection points: 2
#     Edge 49, Type (0, 1), BuildingBlock: EZIPEK_clean_linker_0, # of connection points: 2
#     Edge 50, Type (0, 1), BuildingBlock: EZIPEK_clean_linker_0, # of connection points: 2
#     Edge 51, Type (0, 1), BuildingBlock: EZIPEK_clean_linker_0, # of connection points: 2
#     Edge 52, Type (0, 1), BuildingBlock: EZIPEK_clean_linker_0, # of connection points: 2
#     Edge 53, Type (0, 1), BuildingBlock: EZIPEK_clean_linker_0, # of connection points: 2
#     Edge 54, Type (0, 1), BuildingBlock: EZIPEK_clean_linker_0, # of connection points: 2
#     Edge 55, Type (0, 1), BuildingBlock: EZIPEK_clean_linker_0, # of connection points: 2
#     Edge 56, Type (0, 1), BuildingBlock: EZIPEK_clean_linker_0, # of connection points: 2
#     Edge 57, Type (0, 1), BuildingBlock: EZIPEK_clean_linker_0, # of connection points: 2
#     Edge 58, Type (0, 1), BuildingBlock: EZIPEK_clean_linker_0, # of connection points: 2
#     Edge 59, Type (0, 1), BuildingBlock: EZIPEK_clean_linker_0, # of connection points: 2
#     Edge 60, Type (0, 1), BuildingBlock: EZIPEK_clean_linker_0, # of connection points: 2
#     Edge 61, Type (0, 1), BuildingBlock: EZIPEK_clean_linker_0, # of connection points: 2
#     Edge 62, Type (0, 1), BuildingBlock: EZIPEK_clean_linker_0, # of connection points: 2
#     Edge 63, Type (0, 1), BuildingBlock: EZIPEK_clean_linker_0, # of connection points: 2
#     Edge 64, Type (0, 1), BuildingBlock: EZIPEK_clean_linker_0, # of connection points: 2
#     Edge 65, Type (0, 1), BuildingBlock: EZIPEK_clean_linker_0, # of connection points: 2
#     Edge 66, Type (0, 1), BuildingBlock: EZIPEK_clean_linker_0, # of connection points: 2
#     Edge 67, Type (0, 1), BuildingBlock: EZIPEK_clean_linker_0, # of connection points: 2
#     Edge 68, Type (0, 1), BuildingBlock: EZIPEK_clean_linker_0, # of connection points: 2
#     Edge 69, Type (0, 1), BuildingBlock: EZIPEK_clean_linker_0, # of connection points: 2
#     Edge 70, Type (0, 1), BuildingBlock: EZIPEK_clean_linker_0, # of connection points: 2
#     Edge 71, Type (0, 1), BuildingBlock: EZIPEK_clean_linker_0, # of connection points: 2
#     Edge 72, Type (0, 1), BuildingBlock: EZIPEK_clean_linker_0, # of connection points: 2
#     Edge 73, Type (0, 1), BuildingBlock: EZIPEK_clean_linker_0, # of connection points: 2
#     Edge 74, Type (0, 1), BuildingBlock: EZIPEK_clean_linker_0, # of connection points: 2
#     Edge 75, Type (0, 1), BuildingBlock: EZIPEK_clean_linker_0, # of connection points: 2
#     Edge 76, Type (0, 1), BuildingBlock: EZIPEK_clean_linker_0, # of connection points: 2
#     Edge 77, Type (0, 1), BuildingBlock: EZIPEK_clean_linker_0, # of connection points: 2
#     Edge 78, Type (0, 1), BuildingBlock: EZIPEK_clean_linker_0, # of connection points: 2
#     Edge 79, Type (0, 1), BuildingBlock: EZIPEK_clean_linker_0, # of connection points: 2
#     Edge 80, Type (0, 1), BuildingBlock: EZIPEK_clean_linker_0, # of connection points: 2
#     Edge 81, Type (0, 1), BuildingBlock: EZIPEK_clean_linker_0, # of connection points: 2
#     Edge 82, Type (0, 1), BuildingBlock: EZIPEK_clean_linker_0, # of connection points: 2
#     Edge 83, Type (0, 1), BuildingBlock: EZIPEK_clean_linker_0, # of connection points: 2
#     Edge 84, Type (0, 1), BuildingBlock: EZIPEK_clean_linker_0, # of connection points: 2
#     Edge 85, Type (0, 1), BuildingBlock: EZIPEK_clean_linker_0, # of connection points: 2
#     Edge 86, Type (0, 1), BuildingBlock: EZIPEK_clean_linker_0, # of connection points: 2
#     Edge 87, Type (0, 1), BuildingBlock: EZIPEK_clean_linker_0, # of connection points: 2
#     Edge 88, Type (0, 1), BuildingBlock: EZIPEK_clean_linker_0, # of connection points: 2
#     Edge 89, Type (0, 1), BuildingBlock: EZIPEK_clean_linker_0, # of connection points: 2
#     Edge 90, Type (0, 1), BuildingBlock: EZIPEK_clean_linker_0, # of connection points: 2
#     Edge 91, Type (0, 1), BuildingBlock: EZIPEK_clean_linker_0, # of connection points: 2
#     Edge 92, Type (0, 1), BuildingBlock: EZIPEK_clean_linker_0, # of connection points: 2
#     Edge 93, Type (0, 1), BuildingBlock: EZIPEK_clean_linker_0, # of connection points: 2
#     Edge 94, Type (0, 1), BuildingBlock: EZIPEK_clean_linker_0, # of connection points: 2
#     Edge 95, Type (0, 1), BuildingBlock: EZIPEK_clean_linker_0, # of connection points: 2
#     Edge 96, Type (0, 1), BuildingBlock: EZIPEK_clean_linker_0, # of connection points: 2
#     Edge 97, Type (0, 1), BuildingBlock: EZIPEK_clean_linker_0, # of connection points: 2
#     Edge 98, Type (0, 1), BuildingBlock: EZIPEK_clean_linker_0, # of connection points: 2
#     Edge 99, Type (0, 1), BuildingBlock: EZIPEK_clean_linker_0, # of connection points: 2
#     Edge 100, Type (0, 1), BuildingBlock: EZIPEK_clean_linker_0, # of connection points: 2
#     Edge 101, Type (0, 1), BuildingBlock: EZIPEK_clean_linker_0, # of connection points: 2
# Relax obj value: 0.070
# Max RMSD: 0.163
# Mean RMSD: 0.123
data_MOF--net-llk--node1-EZIPEK_clean_sbu_0--node2-PAMTOO_clean_linker_0--edge1-EZIPEK_clean_linker_0
_symmetry_space_group_name_H-M    P1
_symmetry_Int_Tables_number       1
_symmetry_cell_setting            triclinic
loop_
_symmetry_equiv_pos_as_xyz
'x, y, z'
_cell_length_a     34.918477
_cell_length_b     36.052625
_cell_length_c     35.635747
_cell_angle_alpha  89.813122
_cell_angle_beta   90.013136
_cell_angle_gamma 90.049809
loop_
_atom_site_label
_atom_site_type_symbol
_atom_site_fract_x
_atom_site_fract_y
_atom_site_fract_z
_atom_type_partial_charge
H0 H 0.01809 0.37181 0.24808 0.0
H1 H 0.03707 0.2815 0.32344 0.0
H2 H 0.02297 0.25992 0.20531 0.0
H3 H 0.97748 0.20489 0.28015 0.0
C4 C 1.00295 0.21184 0.2973 0.0
O5 O 0.03042 0.22861 0.27439 0.0
H6 H 0.99152 0.23209 0.31798 0.0
C7 C 0.0213 0.34218 0.25259 0.0
C8 C 0.02132 0.31802 0.22196 0.0
C9 C 0.02736 0.32888 0.2888 0.0
C10 C 0.03266 0.2911 0.295 0.0
C11 C 0.02894 0.26557 0.26579 0.0
C12 C 0.02385 0.27911 0.22859 0.0
H13 H 0.77262 0.01967 0.35859 0.0
H14 H 0.70247 1.00289 0.26112 0.0
H15 H 0.8252 1.0069 0.25014 0.0
H16 H 0.77401 0.02191 0.16452 0.0
C17 C 0.75161 0.02381 0.18654 0.0
O18 O 0.75939 0.99774 0.21407 0.0
H19 H 0.75522 0.05254 0.19711 0.0
C20 C 0.77015 0.0165 0.3284 0.0
C21 C 0.8032 0.01442 0.30644 0.0
C22 C 0.734 0.01244 0.31222 0.0
C23 C 0.73048 1.00699 0.27354 0.0
C24 C 0.76321 1.00579 0.25093 0.0
C25 C 0.79979 1.00947 0.26735 0.0
H26 H 0.02481 0.76847 0.36225 0.0
H27 H 0.0399 0.69833 0.26775 0.0
H28 H 0.00738 0.81252 0.25071 0.0
H29 H 0.96881 0.73796 0.19635 0.0
C30 C 0.99552 0.72258 0.20253 0.0
O31 O 0.02257 0.74721 0.21671 0.0
H32 H 0.98641 0.70236 0.22448 0.0
C33 C 0.02523 0.76532 0.33197 0.0
C34 C 0.01729 0.79575 0.30873 0.0
C35 C 0.03185 0.73034 0.31705 0.0
C36 C 0.03458 0.72583 0.2785 0.0
C37 C 0.02476 0.75474 0.25412 0.0
C38 C 0.01538 0.78999 0.26926 0.0
H39 H 0.37358 1.00878 0.24962 0.0
H40 H 0.27479 0.99846 0.32051 0.0
H41 H 0.26234 0.98896 0.20097 0.0
H42 H 0.17446 1.01006 0.25688 0.0
C43 C 0.19869 0.01231 0.27693 0.0
O44 O 0.22631 0.98648 0.26707 0.0
H45 H 0.20882 0.04112 0.27221 0.0
C46 C 0.34286 1.00536 0.25265 0.0
C47 C 0.32012 0.99947 0.22083 0.0
C48 C 0.32654 1.00557 0.28846 0.0
C49 C 0.28718 0.99985 0.29267 0.0
C50 C 0.26378 0.9946 0.26146 0.0
C51 C 0.28018 0.99431 0.22522 0.0
H52 H 0.01475 0.65818 0.76122 0.0
H53 H 0.02581 0.75527 0.69237 0.0
H54 H 0.02588 0.76573 0.8128 0.0
H55 H 1.00022 0.84929 0.7583 0.0
C56 C 1.0021 0.82759 0.73634 0.0
O57 O 0.03041 0.80242 0.74676 0.0
H58 H 0.97322 0.81477 0.73754 0.0
C59 C 0.01723 0.68813 0.75902 0.0
C60 C 0.02005 0.70948 0.79152 0.0
C61 C 0.01897 0.70458 0.72364 0.0
C62 C 0.02317 0.7429 0.72 0.0
C63 C 0.02456 0.76539 0.75175 0.0
C64 C 0.02325 0.74868 0.78798 0.0
H65 H 0.36992 1.01054 0.75938 0.0
H66 H 0.26756 0.02101 0.69348 0.0
H67 H 0.26068 0.02439 0.81393 0.0
H68 H 0.16921 1.00562 0.75946 0.0
C69 C 0.194 1.00229 0.74024 0.0
O70 O 0.22142 0.02848 0.74977 0.0
H71 H 0.20408 0.97377 0.74653 0.0
C72 C 0.33898 0.01294 0.758 0.0
C73 C 0.31776 0.01679 0.79111 0.0
C74 C 0.32089 0.01434 0.72301 0.0
C75 C 0.28129 0.01876 0.72068 0.0
C76 C 0.25932 0.02135 0.75321 0.0
C77 C 0.27749 0.02064 0.78869 0.0
H78 H 0.03315 0.25398 0.64352 0.0
H79 H 0.04592 0.32508 0.7379 0.0
H80 H 0.01532 0.2106 0.75542 0.0
H81 H 0.9746 0.28445 0.80852 0.0
C82 C 1.00113 0.30042 0.80303 0.0
O83 O 0.02903 0.27644 0.7892 0.0
H84 H 0.99216 0.32057 0.78095 0.0
C85 C 0.03367 0.25732 0.67377 0.0
C86 C 0.02551 0.22707 0.69736 0.0
C87 C 0.03997 0.29244 0.68865 0.0
C88 C 0.04156 0.29736 0.72729 0.0
C89 C 0.03186 0.26859 0.75183 0.0
C90 C 0.02328 0.23311 0.7368 0.0
H91 H 0.76544 0.99739 0.65764 0.0
H92 H 0.70441 0.01798 0.75989 0.0
H93 H 0.82743 0.01172 0.76122 0.0
H94 H 0.77681 0.99943 0.85338 0.0
C95 C 0.75543 0.99678 0.83048 0.0
O96 O 0.76469 0.02186 0.80237 0.0
H97 H 0.75956 0.96773 0.82108 0.0
C98 C 0.76575 1.001 0.68786 0.0
C99 C 0.80076 1.00336 0.70691 0.0
C100 C 0.73123 1.00628 0.70686 0.0
C101 C 0.73116 0.01272 0.74544 0.0
C102 C 0.76557 0.01336 0.76541 0.0
C103 C 0.80065 1.00896 0.74615 0.0
H104 H 0.26512 0.36335 0.01845 0.0
H105 H 0.33458 0.26564 0.01003 0.0
H106 H 0.21166 0.25574 0.01195 0.0
H107 H 0.26503 0.1724 0.03675 0.0
C108 C 0.28799 0.19367 0.03501 0.0
O109 O 0.27827 0.21893 0.00708 0.0
H110 H 0.28706 0.2067 0.06316 0.0
C111 C 0.26719 0.33333 0.01741 0.0
C112 C 0.23382 0.31193 0.01599 0.0
C113 C 0.30322 0.31675 0.01527 0.0
C114 C 0.30656 0.27827 0.01271 0.0
C115 C 0.27387 0.25596 0.01251 0.0
C116 C 0.23713 0.27276 0.01394 0.0
H117 H 0.26561 0.65904 0.99046 0.0
H118 H 0.33321 0.75801 0.99932 0.0
H119 H 0.21024 0.76578 0.99552 0.0
H120 H 0.26503 0.85061 0.97108 0.0
C121 C 0.28733 0.82878 0.97332 0.0
O122 O 0.27623 0.80374 1.00099 0.0
H123 H 0.28668 0.81582 0.94513 0.0
C124 C 0.26713 0.6891 0.99119 0.0
C125 C 0.2334 0.70994 0.9922 0.0
C126 C 0.3028 0.70638 0.99365 0.0
C127 C 0.30545 0.74489 0.99615 0.0
C128 C 0.27244 0.76663 0.99573 0.0
C129 C 0.23602 0.74919 0.99394 0.0
H130 H 0.76969 0.36319 0.01069 0.0
H131 H 0.70159 0.26459 0.02231 0.0
H132 H 0.82461 0.2564 0.01733 0.0
H133 H 0.77336 0.17165 0.99787 0.0
C134 C 0.75069 0.19323 0.99767 0.0
O135 O 0.75898 0.21885 0.02547 0.0
H136 H 0.75365 0.20565 0.96927 0.0
C137 C 0.76796 0.33321 0.01308 0.0
C138 C 0.80153 0.31217 0.01337 0.0
C139 C 0.73214 0.3162 0.01608 0.0
C140 C 0.72941 0.27767 0.0195 0.0
C141 C 0.76249 0.25589 0.01958 0.0
C142 C 0.79886 0.2731 0.01645 0.0
H143 H 0.76941 0.66014 0.01122 0.0
H144 H 0.70313 0.75916 0.99572 0.0
H145 H 0.82628 0.76507 0.99426 0.0
H146 H 0.77552 0.85267 0.01255 0.0
C147 C 0.75321 0.83081 0.01479 0.0
O148 O 0.76099 0.80366 0.98833 0.0
H149 H 0.75741 0.82018 0.04378 0.0
C150 C 0.76832 0.69003 0.00765 0.0
C151 C 0.80233 0.71017 1.0036 0.0
C152 C 0.73284 0.7076 1.00477 0.0
C153 C 0.73077 0.74583 0.99891 0.0
C154 C 0.76418 0.76695 0.99624 0.0
C155 C 0.8003 0.7491 0.99818 0.0
H156 H 0.51562 0.86814 0.74461 0.0
H157 H 0.53927 0.77805 0.81909 0.0
H158 H 0.5132 0.75604 0.70295 0.0
H159 H 0.4714 0.70389 0.77922 0.0
C160 C 0.49719 0.71103 0.79583 0.0
O161 O 0.52484 0.72529 0.77154 0.0
H162 H 0.48679 0.73289 0.81532 0.0
C163 C 0.5192 0.83854 0.74913 0.0
C164 C 0.51611 0.81423 0.71891 0.0
C165 C 0.52738 0.82547 0.78499 0.0
C166 C 0.53309 0.78767 0.79095 0.0
C167 C 0.52567 0.76208 0.76241 0.0
C168 C 0.51757 0.77539 0.72572 0.0
H169 H 0.271 0.5107 0.85765 0.0
H170 H 0.20442 0.49663 0.75746 0.0
H171 H 0.3274 0.50286 0.75041 0.0
H172 H 0.27139 0.51368 0.66024 0.0
C173 C 0.25247 0.51799 0.68489 0.0
O174 O 0.26256 0.49241 0.71225 0.0
H175 H 0.25948 0.54667 0.69379 0.0
C176 C 0.26974 0.50794 0.82735 0.0
C177 C 0.30362 0.50738 0.80647 0.0
C178 C 0.23422 0.50453 0.80975 0.0
C179 C 0.23202 0.50021 0.77091 0.0
C180 C 0.26538 0.49996 0.74932 0.0
C181 C 0.30144 0.50384 0.767 0.0
H182 H 0.50863 0.27333 0.86701 0.0
H183 H 0.52986 0.20068 0.77524 0.0
H184 H 0.50311 0.31544 0.75353 0.0
H185 H 0.46525 0.24005 0.69748 0.0
C186 C 0.49082 0.22404 0.70632 0.0
O187 O 0.51729 0.24844 0.72203 0.0
H188 H 0.47944 0.2046 0.72797 0.0
C189 C 0.51123 0.26931 0.83695 0.0
C190 C 0.5071 0.2995 0.8125 0.0
C191 C 0.51881 0.23391 0.82332 0.0
C192 C 0.52388 0.22841 0.78506 0.0
C193 C 0.51668 0.25688 0.75937 0.0
C194 C 0.50799 0.29288 0.77308 0.0
H195 H 0.86884 0.51693 0.75086 0.0
H196 H 0.7694 0.50083 0.81972 0.0
H197 H 0.75839 0.49992 0.69956 0.0
H198 H 0.66903 0.5169 0.75687 0.0
C199 C 0.69405 0.51928 0.77595 0.0
O200 O 0.7214 0.49369 0.76485 0.0
H201 H 0.70382 0.54818 0.77095 0.0
C202 C 0.83808 0.51323 0.75322 0.0
C203 C 0.81587 0.50923 0.72076 0.0
C204 C 0.82137 0.51041 0.78874 0.0
C205 C 0.78207 0.50424 0.79217 0.0
C206 C 0.75903 0.50163 0.76033 0.0
C207 C 0.77589 0.5038 0.72433 0.0
H208 H 0.51389 0.1541 0.26798 0.0
H209 H 0.53743 0.24363 0.19202 0.0
H210 H 0.5248 0.26561 0.30994 0.0
H211 H 0.48405 0.33121 0.24936 0.0
C212 C 0.49744 0.31525 0.22623 0.0
O213 O 0.52905 0.29633 0.24052 0.0
H214 H 0.47406 0.29594 0.21823 0.0
C215 C 0.51846 0.18352 0.26311 0.0
C216 C 0.52108 0.20755 0.29362 0.0
C217 C 0.52459 0.19629 0.22664 0.0
C218 C 0.53132 0.23397 0.22016 0.0
C219 C 0.52812 0.25953 0.2493 0.0
C220 C 0.52435 0.24629 0.28675 0.0
H221 H 0.87304 0.51047 0.26 0.0
H222 H 0.77105 0.51933 0.19313 0.0
H223 H 0.76364 0.52732 0.31329 0.0
H224 H 0.67206 0.51136 0.25981 0.0
C225 C 0.69632 0.50644 0.24031 0.0
O226 O 0.72514 0.53154 0.24873 0.0
H227 H 0.7051 0.47763 0.24716 0.0
C228 C 0.84216 0.51334 0.25825 0.0
C229 C 0.82068 0.51812 0.29106 0.0
C230 C 0.82431 0.51347 0.22308 0.0
C231 C 0.78468 0.5181 0.22045 0.0
C232 C 0.76263 0.52275 0.25269 0.0
C233 C 0.78053 0.52259 0.28828 0.0
H234 H 0.51895 0.75002 0.14999 0.0
H235 H 0.5408 0.8246 0.23993 0.0
H236 H 0.51423 0.71017 0.26427 0.0
H237 H 0.47592 0.7853 0.31741 0.0
C238 C 0.50158 0.80163 0.30932 0.0
O239 O 0.52872 0.77767 0.29419 0.0
H240 H 0.49067 0.82115 0.28752 0.0
C241 C 0.52212 0.75457 0.17992 0.0
C242 C 0.51801 0.72486 0.20501 0.0
C243 C 0.52938 0.79033 0.19266 0.0
C244 C 0.53509 0.79659 0.23074 0.0
C245 C 0.52828 0.76851 0.25706 0.0
C246 C 0.51937 0.73224 0.24422 0.0
H247 H 0.26913 0.49376 0.15788 0.0
H248 H 0.20132 0.51723 0.25544 0.0
H249 H 0.32429 0.5184 0.26284 0.0
H250 H 0.27486 0.52349 0.35296 0.0
C251 C 0.25506 0.51151 0.33183 0.0
O252 O 0.2591 0.53154 0.29888 0.0
H253 H 0.26591 0.48281 0.3284 0.0
C254 C 0.26741 0.49881 0.18784 0.0
C255 C 0.30112 0.50351 0.20852 0.0
C256 C 0.23158 0.50401 0.20447 0.0
C257 C 0.22902 0.51198 0.24281 0.0
C258 C 0.26228 0.51679 0.26411 0.0
C259 C 0.29855 0.51248 0.247 0.0
H260 H 0.76351 0.86315 0.51541 0.0
H261 H 0.83143 0.76448 0.50737 0.0
H262 H 0.70882 0.7559 0.51796 0.0
H263 H 0.76539 0.67372 0.54476 0.0
C264 C 0.78742 0.69533 0.53943 0.0
O265 O 0.77456 0.71822 0.51067 0.0
H266 H 0.78852 0.71026 0.56659 0.0
C267 C 0.76518 0.83309 0.51502 0.0
C268 C 0.73167 0.81197 0.51672 0.0
C269 C 0.80086 0.81603 0.51224 0.0
C270 C 0.80367 0.77749 0.51067 0.0
C271 C 0.77084 0.75555 0.51353 0.0
C272 C 0.73447 0.77274 0.51667 0.0
H273 H 0.76685 0.1592 0.49463 0.0
H274 H 0.83626 0.25664 0.50683 0.0
H275 H 0.71341 0.26655 0.50414 0.0
H276 H 0.76638 0.34993 0.48053 0.0
C277 C 0.78963 0.32901 0.48232 0.0
O278 O 0.78002 0.30331 0.50989 0.0
H279 H 0.78918 0.31629 0.454 0.0
C280 C 0.76892 0.18918 0.49648 0.0
C281 C 0.73553 0.21051 0.49855 0.0
C282 C 0.80494 0.20569 0.49957 0.0
C283 C 0.80826 0.24407 0.50344 0.0
C284 C 0.77561 0.26638 0.5038 0.0
C285 C 0.73887 0.24961 0.50171 0.0
H286 H 0.27139 0.86246 0.51482 0.0
H287 H 0.2047 0.76346 0.53057 0.0
H288 H 0.32778 0.75681 0.52666 0.0
H289 H 0.27632 0.66949 0.51262 0.0
C290 C 0.25485 0.69201 0.50965 0.0
O291 O 0.26266 0.71884 0.53635 0.0
H292 H 0.26031 0.70261 0.48085 0.0
C293 C 0.27008 0.83261 0.51869 0.0
C294 C 0.30394 0.81204 0.52004 0.0
C295 C 0.2345 0.8152 0.52227 0.0
C296 C 0.23233 0.77684 0.52745 0.0
C297 C 0.2657 0.7556 0.52882 0.0
C298 C 0.30181 0.77312 0.52503 0.0
H299 H 0.27581 0.15415 0.4902 0.0
H300 H 0.20018 0.24607 0.47816 0.0
H301 H 0.32172 0.26541 0.48787 0.0
H302 H 0.21196 0.29525 0.52279 0.0
C303 C 0.23219 0.31498 0.50912 0.0
O304 O 0.25243 0.29774 0.48054 0.0
H305 H 0.25253 0.3224 0.5318 0.0
C306 C 0.27184 0.1839 0.48735 0.0
C307 C 0.30339 0.20772 0.48853 0.0
C308 C 0.23506 0.19807 0.48375 0.0
C309 C 0.22925 0.23594 0.47991 0.0
C310 C 0.26001 0.26072 0.48176 0.0
C311 C 0.29759 0.24661 0.4863 0.0
C312 C 0.01637 0.9201 0.60069 0.0
C313 C 0.01523 0.91745 0.41566 0.0
C314 C 0.01651 0.10054 0.5963 0.0
C315 C 0.02073 0.09581 0.41158 0.0
C316 C 0.92698 0.09961 0.50654 0.0
C317 C 0.92505 0.91966 0.5055 0.0
C318 C 0.11013 0.09723 0.49933 0.0
C319 C 0.10972 0.91795 0.51331 0.0
C320 C 0.11282 1.00176 0.41639 0.0
C321 C 0.92706 0.01332 0.41345 0.0
C322 C 0.10964 1.01043 0.59972 0.0
C323 C 0.92314 1.00591 0.59633 0.0
Eu324 Eu 0.01788 0.93782 0.50786 0.0
O325 O 0.98457 0.97511 0.47349 0.0
O326 O 0.05085 0.97612 0.54114 0.0
Eu327 Eu 0.94554 1.00912 0.50524 0.0
Eu328 Eu 0.09076 1.00768 0.50782 0.0
O329 O 0.98367 0.97653 0.53957 0.0
O330 O 0.05291 0.97419 0.47409 0.0
Eu331 Eu 0.01646 1.01002 0.57782 0.0
Eu332 Eu 0.01946 1.00697 0.43535 0.0
O333 O 0.98344 0.04264 0.53864 0.0
O334 O 0.98497 0.04092 0.47165 0.0
O335 O 0.05267 0.04015 0.47339 0.0
O336 O 0.05175 0.04192 0.53974 0.0
Eu337 Eu 0.01842 0.07884 0.50464 0.0
O338 O 0.01738 0.90785 0.56511 0.0
O339 O 0.02215 0.90705 0.45125 0.0
O340 O 0.02273 0.11062 0.56048 0.0
O341 O 0.01266 0.10729 0.44657 0.0
O342 O 0.9145 0.06456 0.50676 0.0
O343 O 0.91344 0.95481 0.50353 0.0
O344 O 0.12217 0.06235 0.50332 0.0
O345 O 0.12188 0.953 0.51289 0.0
O346 O 0.07641 1.00152 0.40475 0.0
O347 O 0.96368 0.01226 0.40271 0.0
O348 O 0.07286 0.01161 0.61019 0.0
O349 O 0.95925 1.00873 0.60845 0.0
O350 O 0.07415 0.10917 0.49899 0.0
O351 O 0.96326 0.11076 0.50579 0.0
O352 O 0.07357 0.90639 0.51108 0.0
O353 O 0.96109 0.90761 0.50747 0.0
O354 O 0.00958 0.9525 0.40517 0.0
O355 O 0.02905 0.06074 0.40319 0.0
O356 O 0.01595 0.95579 0.61084 0.0
O357 O 0.01061 0.06562 0.60754 0.0
O358 O 0.91243 1.00445 0.5603 0.0
O359 O 0.9145 0.01207 0.44892 0.0
O360 O 0.12228 1.00939 0.56423 0.0
O361 O 0.12408 1.00326 0.45237 0.0
C362 C 0.52061 0.91296 0.08777 0.0
C363 C 0.5198 0.09159 0.10372 0.0
C364 C 0.52198 0.92946 0.90822 0.0
C365 C 0.51912 0.10817 0.92442 0.0
C366 C 0.61387 0.01155 0.91577 0.0
C367 C 0.61286 1.01036 0.09672 0.0
C368 C 0.42632 0.01982 0.91456 0.0
C369 C 0.42578 0.99915 0.09602 0.0
C370 C 0.42419 0.09894 0.01728 0.0
C371 C 0.61322 0.10028 0.0072 0.0
C372 C 0.42487 0.92118 0.99364 0.0
C373 C 0.6139 0.92114 1.0053 0.0
Eu374 Eu 0.51928 1.0042 0.07685 0.0
O375 O 0.55287 0.04049 0.04191 0.0
O376 O 0.48539 0.97456 0.03611 0.0
Eu377 Eu 0.59162 1.01069 1.00615 0.0
Eu378 Eu 0.44678 1.01013 1.00548 0.0
O379 O 0.55324 0.97466 0.03635 0.0
O380 O 0.4852 0.04013 0.04167 0.0
Eu381 Eu 0.5195 0.94004 0.99986 0.0
Eu382 Eu 0.51889 0.08076 0.01208 0.0
O383 O 0.55325 0.98071 0.97009 0.0
O384 O 0.5532 0.0465 0.97566 0.0
O385 O 0.48544 0.04603 0.97526 0.0
O386 O 0.48592 0.98051 0.96977 0.0
Eu387 Eu 0.51985 0.01679 0.93472 0.0
O388 O 0.52853 0.9466 0.10131 0.0
O389 O 0.51061 0.05644 0.11104 0.0
O390 O 0.51216 0.96439 0.9007 0.0
O391 O 0.5278 0.07481 0.91062 0.0
O392 O 0.62466 0.01115 0.95162 0.0
O393 O 0.62406 1.01058 0.06099 0.0
O394 O 0.41473 0.01529 0.95002 0.0
O395 O 0.41438 1.00389 0.06054 0.0
O396 O 0.4607 0.11083 0.01945 0.0
O397 O 0.57669 0.11198 0.00867 0.0
O398 O 0.46148 0.90948 0.99208 0.0
O399 O 0.57745 0.90915 1.00372 0.0
O400 O 0.46284 0.0223 0.9032 0.0
O401 O 0.57755 0.01327 0.90348 0.0
O402 O 0.46221 0.99729 0.10771 0.0
O403 O 0.57646 1.00854 0.10866 0.0
O404 O 0.52855 0.10472 0.06985 0.0
O405 O 0.50994 0.11494 0.95992 0.0
O406 O 0.51137 0.90582 0.05232 0.0
O407 O 0.53064 0.91656 0.94219 0.0
O408 O 0.62474 0.95662 1.00577 0.0
O409 O 0.62434 0.06493 0.00663 0.0
O410 O 0.41404 0.95631 0.9986 0.0
O411 O 0.41358 0.06377 0.01194 0.0
C412 C 0.0171 0.42194 0.09803 0.0
C413 C 0.01653 0.41654 0.91684 0.0
C414 C 0.01603 0.60524 0.09164 0.0
C415 C 0.01799 0.5996 0.91128 0.0
C416 C 0.92425 0.60085 1.00419 0.0
C417 C 0.92426 0.42008 1.00534 0.0
C418 C 0.11029 0.60158 0.99914 0.0
C419 C 0.11006 0.41944 0.00999 0.0
C420 C 0.10965 0.50615 0.9143 0.0
C421 C 0.92478 0.51217 0.91389 0.0
C422 C 0.1099 0.51242 0.09567 0.0
C423 C 0.92471 0.50926 0.09556 0.0
Eu424 Eu 0.01759 0.44034 0.00668 0.0
O425 O 0.98293 0.47638 0.97212 0.0
O426 O 0.05089 0.47906 0.0391 0.0
Eu427 Eu 0.94466 0.51051 1.00469 0.0
Eu428 Eu 0.09006 0.51055 1.0049 0.0
O429 O 0.98367 0.47881 0.03888 0.0
O430 O 0.05149 0.47687 0.97213 0.0
Eu431 Eu 0.01698 0.51299 0.0762 0.0
Eu432 Eu 0.01694 0.50841 0.9332 0.0
O433 O 0.98316 0.54476 0.03699 0.0
O434 O 0.98359 0.54246 0.97045 0.0
O435 O 0.05117 0.54214 0.97032 0.0
O436 O 0.05172 0.54466 0.03747 0.0
Eu437 Eu 0.01779 0.58082 1.00244 0.0
O438 O 0.01785 0.41011 0.06259 0.0
O439 O 0.02427 0.40798 0.95247 0.0
O440 O 0.02416 0.61358 0.05612 0.0
O441 O 0.01854 0.61125 0.94675 0.0
O442 O 0.91231 0.56559 1.00549 0.0
O443 O 0.91237 0.45534 1.0041 0.0
O444 O 0.12218 0.56621 1.00115 0.0
O445 O 0.12197 0.45484 0.00857 0.0
O446 O 0.07346 0.50587 0.90226 0.0
O447 O 0.96089 0.51008 0.90212 0.0
O448 O 0.07362 0.51374 0.10749 0.0
O449 O 0.96085 0.51165 0.10728 0.0
O450 O 0.07383 0.61258 0.99935 0.0
O451 O 0.96078 0.6119 1.00251 0.0
O452 O 0.07357 0.40845 0.00944 0.0
O453 O 0.96076 0.40899 1.00656 0.0
O454 O 0.01003 0.4513 0.9048 0.0
O455 O 0.01724 0.56387 0.90045 0.0
O456 O 0.0165 0.45765 0.1088 0.0
O457 O 0.01003 0.57048 0.1041 0.0
O458 O 0.91283 0.50778 0.06001 0.0
O459 O 0.91285 0.51313 0.94943 0.0
O460 O 0.12182 0.51185 0.06013 0.0
O461 O 0.12157 0.50754 0.94979 0.0
C462 C 0.51773 0.42269 0.10083 0.0
C463 C 0.51491 0.60164 0.10109 0.0
C464 C 0.51243 0.42407 0.91478 0.0
C465 C 0.51687 0.60279 0.91644 0.0
C466 C 0.61211 0.50922 0.91716 0.0
C467 C 0.61069 0.51443 0.10049 0.0
C468 C 0.42619 0.51175 0.91573 0.0
C469 C 0.42381 0.50688 0.09867 0.0
C470 C 0.42635 0.60292 1.00653 0.0
C471 C 0.60917 0.60352 0.00712 0.0
C472 C 0.42544 0.42275 0.00832 0.0
C473 C 0.6101 0.42261 0.01248 0.0
Eu474 Eu 0.51745 0.51223 0.07937 0.0
O475 O 0.55199 0.54547 0.04205 0.0
O476 O 0.48399 0.4795 0.04094 0.0
Eu477 Eu 0.59093 0.51269 0.00876 0.0
Eu478 Eu 0.44532 0.51244 0.00762 0.0
O479 O 0.55134 0.47966 0.04116 0.0
O480 O 0.48328 0.54553 0.04166 0.0
Eu481 Eu 0.51776 0.44175 0.00792 0.0
Eu482 Eu 0.5179 0.5829 0.00864 0.0
O483 O 0.55261 0.47935 0.97494 0.0
O484 O 0.55251 0.54596 0.97523 0.0
O485 O 0.48441 0.5455 0.97486 0.0
O486 O 0.48447 0.47986 0.97477 0.0
Eu487 Eu 0.51878 0.51293 0.93724 0.0
O488 O 0.52524 0.45765 0.11029 0.0
O489 O 0.51054 0.56626 0.1114 0.0
O490 O 0.51121 0.45966 0.90494 0.0
O491 O 0.52044 0.56755 0.90559 0.0
O492 O 0.62382 0.5097 0.95302 0.0
O493 O 0.623 0.51309 0.06491 0.0
O494 O 0.41389 0.51059 0.95131 0.0
O495 O 0.41259 0.50813 0.06279 0.0
O496 O 0.46249 0.61433 0.00834 0.0
O497 O 0.57295 0.6147 0.00671 0.0
O498 O 0.46158 0.41099 0.00738 0.0
O499 O 0.57393 0.41086 0.01059 0.0
O500 O 0.46272 0.51377 0.90486 0.0
O501 O 0.57556 0.50965 0.90597 0.0
O502 O 0.46024 0.50744 0.11044 0.0
O503 O 0.57402 0.51564 0.11126 0.0
O504 O 0.52038 0.613 0.06556 0.0
O505 O 0.51409 0.61397 0.95223 0.0
O506 O 0.51162 0.41193 0.06523 0.0
O507 O 0.51629 0.41182 0.95037 0.0
O508 O 0.62212 0.45777 0.01247 0.0
O509 O 0.6217 0.56847 0.00771 0.0
O510 O 0.41355 0.45787 0.0085 0.0
O511 O 0.41405 0.5678 1.0064 0.0
C512 C 0.02612 0.4217 0.59539 0.0
C513 C 0.02421 0.42899 0.41474 0.0
C514 C 0.01716 0.60123 0.60195 0.0
C515 C 0.02289 0.60875 0.42216 0.0
C516 C 0.92433 0.60386 0.5152 0.0
C517 C 0.9248 0.4251 0.50082 0.0
C518 C 0.11405 0.60386 0.51357 0.0
C519 C 0.11391 0.4269 0.50224 0.0
C520 C 0.11472 0.51742 0.42008 0.0
C521 C 0.92718 0.52064 0.41613 0.0
C522 C 0.11006 0.51238 0.60253 0.0
C523 C 0.92391 0.50974 0.5978 0.0
Eu524 Eu 0.01943 0.44443 0.5059 0.0
O525 O 0.98612 0.48327 0.47337 0.0
O526 O 0.05266 0.48064 0.54137 0.0
Eu527 Eu 0.94672 0.51451 0.5074 0.0
Eu528 Eu 0.09127 0.51546 0.51023 0.0
O529 O 0.98436 0.4799 0.54063 0.0
O530 O 0.05317 0.48416 0.47518 0.0
Eu531 Eu 0.01797 0.51196 0.57989 0.0
Eu532 Eu 0.02053 0.51818 0.43737 0.0
O533 O 0.9849 0.54614 0.54232 0.0
O534 O 0.98531 0.54947 0.4757 0.0
O535 O 0.05349 0.54979 0.47728 0.0
O536 O 0.05202 0.54707 0.54389 0.0
Eu537 Eu 0.01862 0.58572 0.51119 0.0
O538 O 0.02148 0.41147 0.55976 0.0
O539 O 0.02746 0.41692 0.44987 0.0
O540 O 0.0172 0.61433 0.56701 0.0
O541 O 0.01401 0.61794 0.45719 0.0
O542 O 0.91376 0.56833 0.51318 0.0
O543 O 0.91385 0.46049 0.50268 0.0
O544 O 0.12481 0.56853 0.51345 0.0
O545 O 0.12408 0.46246 0.5021 0.0
O546 O 0.0786 0.51698 0.40736 0.0
O547 O 0.96385 0.52173 0.40503 0.0
O548 O 0.0735 0.5134 0.61354 0.0
O549 O 0.96016 0.50879 0.61017 0.0
O550 O 0.07754 0.61597 0.51239 0.0
O551 O 0.96067 0.61612 0.51418 0.0
O552 O 0.07771 0.41439 0.50466 0.0
O553 O 0.96141 0.41332 0.5013 0.0
O554 O 0.01883 0.46431 0.40445 0.0
O555 O 0.02925 0.57437 0.40996 0.0
O556 O 0.02671 0.45638 0.60821 0.0
O557 O 0.01736 0.56569 0.61251 0.0
O558 O 0.91311 0.51141 0.5619 0.0
O559 O 0.91514 0.51833 0.45165 0.0
O560 O 0.12203 0.51157 0.56685 0.0
O561 O 0.12519 0.51818 0.45604 0.0
C562 C 0.51514 0.92229 0.60029 0.0
C563 C 0.51959 0.91942 0.41962 0.0
C564 C 0.51441 0.1052 0.59784 0.0
C565 C 0.51998 0.10258 0.41681 0.0
C566 C 0.42459 0.10158 0.50392 0.0
C567 C 0.42617 0.92023 0.50895 0.0
C568 C 0.61138 0.10299 0.50583 0.0
C569 C 0.61054 0.92139 0.51307 0.0
C570 C 0.61297 1.01052 0.42111 0.0
C571 C 0.42685 0.01402 0.41623 0.0
C572 C 0.60626 0.01328 0.60356 0.0
C573 C 0.42289 0.0127 0.59725 0.0
Eu574 Eu 0.51823 0.94227 0.50975 0.0
O575 O 0.48418 0.9783 0.47466 0.0
O576 O 0.55088 0.98005 0.54383 0.0
Eu577 Eu 0.44514 0.01171 0.50714 0.0
Eu578 Eu 0.59064 0.01227 0.51108 0.0
O579 O 0.48313 0.97971 0.54187 0.0
O580 O 0.55291 0.97922 0.47665 0.0
Eu581 Eu 0.51553 0.01345 0.58017 0.0
Eu582 Eu 0.51926 0.01105 0.43721 0.0
O583 O 0.48278 0.04578 0.54068 0.0
O584 O 0.48512 0.04422 0.47454 0.0
O585 O 0.55235 0.04411 0.47598 0.0
O586 O 0.55137 0.04597 0.54306 0.0
Eu587 Eu 0.51828 0.08253 0.5077 0.0
O588 O 0.51546 0.91116 0.5647 0.0
O589 O 0.52332 0.90988 0.45562 0.0
O590 O 0.5198 0.11495 0.56207 0.0
O591 O 0.52099 0.11369 0.45245 0.0
O592 O 0.41267 0.06638 0.50523 0.0
O593 O 0.41368 0.95543 0.50763 0.0
O594 O 0.62299 0.06754 0.50686 0.0
O595 O 0.62268 0.95668 0.51205 0.0
O596 O 0.57707 1.01027 0.40812 0.0
O597 O 0.46327 0.01135 0.40519 0.0
O598 O 0.56973 0.01437 0.61395 0.0
O599 O 0.45876 0.0116 0.60978 0.0
O600 O 0.57488 0.11412 0.50671 0.0
O601 O 0.46105 0.11299 0.50446 0.0
O602 O 0.57405 0.91053 0.51325 0.0
O603 O 0.46274 0.90978 0.50958 0.0
O604 O 0.51591 0.95449 0.40725 0.0
O605 O 0.5189 0.06702 0.40547 0.0
O606 O 0.51558 0.9577 0.61188 0.0
O607 O 0.51043 0.07005 0.60992 0.0
O608 O 0.41171 0.01375 0.56149 0.0
O609 O 0.41458 0.01591 0.45154 0.0
O610 O 0.61971 0.0128 0.5684 0.0
O611 O 0.62394 1.01083 0.45691 0.0
C612 C 0.18842 0.16449 0.52399 0.0
C613 C 0.20184 0.1735 0.4875 0.0
C614 C 0.15133 0.1365 0.45871 0.0
C615 C 0.13967 0.12554 0.49514 0.0
N616 N 0.13862 0.13595 0.56174 0.0
N617 N 0.19884 0.1676 0.42019 0.0
C618 C 0.15585 0.14143 0.52769 0.0
C619 C 0.18377 0.15976 0.45477 0.0
N620 N 0.20749 0.17727 0.55495 0.0
N621 N 0.13052 0.12559 0.42815 0.0
H622 H 0.2224 0.18502 0.41634 0.0
H623 H 0.18969 0.15528 0.39541 0.0
H624 H 0.10758 0.10711 0.42999 0.0
H625 H 0.13445 0.13614 0.40121 0.0
H626 H 0.20205 0.16825 0.58219 0.0
H627 H 0.23051 0.19567 0.55343 0.0
H628 H 0.14674 0.14922 0.58637 0.0
H629 H 0.11355 0.1205 0.56477 0.0
C630 C 0.86044 0.17418 0.4692 0.0
C631 C 0.83909 0.18185 0.50206 0.0
C632 C 0.88002 0.14056 0.53894 0.0
C633 C 0.89799 0.12914 0.50533 0.0
N634 N 0.90751 0.1351 0.43862 0.0
N635 N 0.82666 0.17216 0.56802 0.0
C636 C 0.88906 0.14623 0.47048 0.0
C637 C 0.84853 0.1652 0.53698 0.0
N638 N 0.85338 0.19386 0.43703 0.0
N639 N 0.89405 0.12897 0.57278 0.0
H640 H 0.80462 0.19166 0.5683 0.0
H641 H 0.82891 0.15717 0.59295 0.0
H642 H 0.91661 0.11016 0.57519 0.0
H643 H 0.88532 0.13985 0.59842 0.0
H644 H 0.87011 0.19232 0.41295 0.0
H645 H 0.83192 0.21388 0.43504 0.0
H646 H 0.89986 0.14334 0.41166 0.0
H647 H 0.93003 0.11616 0.43903 0.0
C648 C 0.84916 0.85539 0.54427 0.0
C649 C 0.83533 0.83937 0.51067 0.0
C650 C 0.8835 0.87272 0.47417 0.0
C651 C 0.8948 0.89145 0.50728 0.0
N652 N 0.88481 0.90549 0.57273 0.0
N653 N 0.83542 0.83519 0.44314 0.0
C654 C 0.87668 0.88413 0.54209 0.0
C655 C 0.85156 0.84849 0.47541 0.0
N656 N 0.83639 0.84261 0.57822 0.0
N657 N 0.90329 0.87819 0.44162 0.0
H658 H 0.81247 0.81666 0.44303 0.0
H659 H 0.84295 0.8443 0.41639 0.0
H660 H 0.92611 0.89673 0.43958 0.0
H661 H 0.89887 0.86287 0.4173 0.0
H662 H 0.84834 0.85052 0.60375 0.0
H663 H 0.81604 0.82154 0.58077 0.0
H664 H 0.86932 0.90429 0.59767 0.0
H665 H 0.90552 0.92633 0.57244 0.0
C666 C 0.1776 0.8456 0.55202 0.0
C667 C 0.19947 0.83776 0.51946 0.0
C668 C 0.16269 0.88276 0.48318 0.0
C669 C 0.13942 0.88919 0.51509 0.0
N670 N 0.11958 0.87213 0.57771 0.0
N671 N 0.20733 0.84161 0.45234 0.0
C672 C 0.14506 0.86891 0.54879 0.0
C673 C 0.19024 0.85408 0.48444 0.0
N674 N 0.18909 0.83246 0.58625 0.0
N675 N 0.15914 0.90464 0.45202 0.0
H676 H 0.22739 0.82017 0.45225 0.0
H677 H 0.199 0.84995 0.42555 0.0
H678 H 0.13877 0.92559 0.44987 0.0
H679 H 0.17824 0.90402 0.42958 0.0
H680 H 0.17688 0.84083 0.6115 0.0
H681 H 0.21286 0.81532 0.5898 0.0
H682 H 0.11998 0.85512 0.60138 0.0
H683 H 0.09629 0.89017 0.57694 0.0
C684 C 0.49862 0.17583 0.16466 0.0
C685 C 0.52366 0.16981 0.19513 0.0
C686 C 0.53981 0.10919 0.16987 0.0
C687 C 0.52051 0.11823 0.13558 0.0
N688 N 0.48895 0.1672 0.09896 0.0
N689 N 0.57635 0.13483 0.22104 0.0
C690 C 0.5025 0.15375 0.13227 0.0
C691 C 0.54675 0.13771 0.1961 0.0
N692 N 0.46963 0.20114 0.16716 0.0
N693 N 0.5516 0.07402 0.17829 0.0
H694 H 0.58401 0.15623 0.23919 0.0
H695 H 0.59584 0.11296 0.22061 0.0
H696 H 0.55023 0.05157 0.16031 0.0
H697 H 0.56134 0.06668 0.20498 0.0
H698 H 0.44866 0.20402 0.14651 0.0
H699 H 0.46394 0.21603 0.19158 0.0
H700 H 0.48016 0.1947 0.09583 0.0
H701 H 0.48798 0.15259 0.07401 0.0
C702 C 0.86725 0.47775 0.1802 0.0
C703 C 0.84766 0.5111 0.18864 0.0
C704 C 0.87135 0.53931 0.13069 0.0
C705 C 0.89539 0.50813 0.12522 0.0
N706 N 0.91912 0.44865 0.14633 0.0
N707 N 0.83615 0.57597 0.1756 0.0
C708 C 0.89418 0.47756 0.15043 0.0
C709 C 0.85082 0.54249 0.16476 0.0
N710 N 0.85932 0.44609 0.19996 0.0
N711 N 0.86822 0.56601 0.10359 0.0
H712 H 0.82186 0.57992 0.20096 0.0
H713 H 0.8414 0.60064 0.1612 0.0
H714 H 0.88338 0.56523 0.07849 0.0
H715 H 0.84793 0.58716 0.10453 0.0
H716 H 0.86982 0.42009 0.19257 0.0
H717 H 0.83938 0.44518 0.22174 0.0
H718 H 0.92267 0.42785 0.16638 0.0
H719 H 0.93795 0.44651 0.12377 0.0
C720 C 0.50081 0.85078 0.17225 0.0
C721 C 0.52752 0.8219 0.16623 0.0
C722 C 0.54295 0.84815 0.10515 0.0
C723 C 0.52198 0.88102 0.11427 0.0
N724 N 0.48534 0.91465 0.16157 0.0
N725 N 0.58075 0.79808 0.1307 0.0
C726 C 0.50262 0.8829 0.1495 0.0
C727 C 0.55064 0.82207 0.13382 0.0
N728 N 0.4721 0.84679 0.19806 0.0
N729 N 0.55517 0.84073 0.06956 0.0
H730 H 0.58847 0.77961 0.15199 0.0
H731 H 0.60036 0.79934 0.10869 0.0
H732 H 0.55283 0.85864 0.04692 0.0
H733 H 0.56606 0.8149 0.06194 0.0
H734 H 0.44971 0.86573 0.20064 0.0
H735 H 0.46791 0.82261 0.21366 0.0
H736 H 0.47545 0.9178 0.189 0.0
H737 H 0.48239 0.93853 0.14557 0.0
C738 C 0.18477 0.47321 0.16185 0.0
C739 C 0.19748 0.50588 0.17989 0.0
C740 C 0.15005 0.5425 0.1452 0.0
C741 C 0.13995 0.51034 0.12469 0.0
N742 N 0.15328 0.44678 0.10782 0.0
N743 N 0.19747 0.57281 0.18406 0.0
C744 C 0.15893 0.47615 0.13133 0.0
C745 C 0.18136 0.54091 0.17058 0.0
N746 N 0.19689 0.43932 0.17438 0.0
N747 N 0.13026 0.57475 0.13984 0.0
H748 H 0.22082 0.57309 0.20229 0.0
H749 H 0.18986 0.5992 0.17478 0.0
H750 H 0.10911 0.57769 0.11941 0.0
H751 H 0.13324 0.59791 0.15699 0.0
H752 H 0.18556 0.41434 0.16478 0.0
H753 H 0.21567 0.43625 0.19696 0.0
H754 H 0.16977 0.42273 0.10873 0.0
H755 H 0.13382 0.44739 0.08568 0.0
C756 C 0.54952 0.88389 0.81576 0.0
C757 C 0.527 0.85142 0.8169 0.0
C758 C 0.50614 0.8669 0.87999 0.0
C759 C 0.52339 0.90278 0.8765 0.0
N760 N 0.55349 0.94759 0.83367 0.0
N761 N 0.4738 0.81893 0.84547 0.0
C762 C 0.54236 0.9122 0.84213 0.0
C763 C 0.50239 0.8448 0.84764 0.0
N764 N 0.57861 0.8874 0.79034 0.0
N765 N 0.49297 0.8532 0.91337 0.0
H766 H 0.46784 0.804 0.82115 0.0
H767 H 0.4531 0.81571 0.86633 0.0
H768 H 0.49148 0.86781 0.9383 0.0
H769 H 0.48493 0.82549 0.9166 0.0
H770 H 0.59788 0.9095 0.7907 0.0
H771 H 0.58604 0.86634 0.7717 0.0
H772 H 0.56288 0.95516 0.80692 0.0
H773 H 0.55194 0.96999 0.8517 0.0
C774 C 0.18732 0.53929 0.84838 0.0
C775 C 0.19932 0.50513 0.83288 0.0
C776 C 0.14899 0.47224 0.86712 0.0
C777 C 0.13974 0.50585 0.88558 0.0
N778 N 0.15389 0.5701 0.89877 0.0
N779 N 0.19537 0.43839 0.83003 0.0
C780 C 0.15993 0.53909 0.87761 0.0
C781 C 0.18098 0.47136 0.84263 0.0
N782 N 0.2017 0.57192 0.83465 0.0
N783 N 0.12756 0.44113 0.87348 0.0
H784 H 0.21853 0.43666 0.81165 0.0
H785 H 0.1862 0.41259 0.83969 0.0
H786 H 0.10556 0.44012 0.89323 0.0
H787 H 0.13014 0.41687 0.85792 0.0
H788 H 0.19111 0.59785 0.84216 0.0
H789 H 0.22185 0.57301 0.81304 0.0
H790 H 0.17095 0.59376 0.89709 0.0
H791 H 0.13342 0.57137 0.92 0.0
C792 C 0.54407 0.20138 0.88012 0.0
C793 C 0.51918 0.20178 0.849 0.0
C794 C 0.49864 0.13883 0.86382 0.0
C795 C 0.51926 0.1404 0.89836 0.0
N796 N 0.55296 0.18032 0.94311 0.0
N797 N 0.46395 0.17516 0.81824 0.0
C798 C 0.53915 0.17381 0.90789 0.0
C799 C 0.4939 0.17174 0.84275 0.0
N800 N 0.57333 0.22645 0.88274 0.0
N801 N 0.48303 0.10661 0.85078 0.0
H802 H 0.45781 0.19971 0.80391 0.0
H803 H 0.44261 0.15507 0.81562 0.0
H804 H 0.48261 0.08175 0.86546 0.0
H805 H 0.4721 0.10419 0.82365 0.0
H806 H 0.59432 0.2249 0.90349 0.0
H807 H 0.57905 0.24617 0.86199 0.0
H808 H 0.56306 0.2063 0.95133 0.0
H809 H 0.55276 0.16132 0.96494 0.0
C810 C 0.86484 0.54522 0.83178 0.0
C811 C 0.84569 0.51181 0.82253 0.0
C812 C 0.87218 0.48167 0.87822 0.0
C813 C 0.89543 0.5133 0.8844 0.0
N814 N 0.91781 0.57373 0.86451 0.0
N815 N 0.83646 0.4461 0.83274 0.0
C816 C 0.89294 0.54471 0.86042 0.0
C817 C 0.85055 0.47944 0.84472 0.0
N818 N 0.85538 0.57757 0.81393 0.0
N819 N 0.87095 0.45362 0.90406 0.0
H820 H 0.82148 0.44289 0.80765 0.0
H821 H 0.84282 0.42095 0.84581 0.0
H822 H 0.88719 0.45368 0.92855 0.0
H823 H 0.85133 0.43187 0.90279 0.0
H824 H 0.86566 0.60342 0.82219 0.0
H825 H 0.83441 0.57904 0.79312 0.0
H826 H 0.92017 0.5953 0.84513 0.0
H827 H 0.93786 0.57515 0.88612 0.0
C828 C 0.67921 0.67704 0.0393 0.0
C829 C 0.69777 0.68494 1.00482 0.0
C830 C 0.65385 0.64398 0.97123 0.0
C831 C 0.63804 0.63312 1.00611 0.0
N832 N 0.62612 0.64696 0.07115 0.0
N833 N 0.7046 0.67602 0.93805 0.0
C834 C 0.64789 0.65192 0.03963 0.0
C835 C 0.68524 0.66886 0.97067 0.0
N836 N 0.69263 0.69245 0.07179 0.0
N837 N 0.63741 0.63203 0.93862 0.0
H838 H 0.7268 0.69531 0.93615 0.0
H839 H 0.70018 0.66145 0.91325 0.0
H840 H 0.61482 0.61307 0.93803 0.0
H841 H 0.64409 0.64281 0.91229 0.0
H842 H 0.68353 0.6846 0.09846 0.0
H843 H 0.71456 0.71213 0.07227 0.0
H844 H 0.62938 0.66223 0.09566 0.0
H845 H 0.6023 0.62951 0.07184 0.0
C846 C 0.35893 0.67434 0.96512 0.0
C847 C 0.33738 0.68345 0.99748 0.0
C848 C 0.37796 0.64397 0.03656 0.0
C849 C 0.39727 0.63223 1.00379 0.0
N850 N 0.41459 0.64346 0.93923 0.0
N851 N 0.32451 0.67711 0.06373 0.0
C852 C 0.3903 0.6496 0.96866 0.0
C853 C 0.34667 0.66867 0.03325 0.0
N854 N 0.34812 0.68793 0.93083 0.0
N855 N 0.39108 0.63314 0.07097 0.0
H856 H 0.30256 0.6967 0.06293 0.0
H857 H 0.32638 0.66338 0.0894 0.0
H858 H 0.41386 0.61475 0.07428 0.0
H859 H 0.38164 0.64432 0.09621 0.0
H860 H 0.35948 0.67886 0.90548 0.0
H861 H 0.32599 0.70707 0.92742 0.0
H862 H 0.41379 0.6582 0.9141 0.0
H863 H 0.43746 0.62497 0.94071 0.0
C864 C 0.34469 0.35943 0.9784 0.0
C865 C 0.33733 0.34064 0.01264 0.0
C866 C 0.39093 0.37247 0.04268 0.0
C867 C 0.39564 0.39405 0.00957 0.0
N868 N 0.37498 0.41147 0.94726 0.0
N869 N 0.35048 0.33039 0.07824 0.0
C870 C 0.37194 0.38851 0.97776 0.0
C871 C 0.35989 0.34715 0.04499 0.0
N872 N 0.32617 0.34876 0.94635 0.0
N873 N 0.41587 0.3765 0.072 0.0
H874 H 0.32842 0.31101 0.08073 0.0
H875 H 0.36284 0.33718 0.10389 0.0
H876 H 0.43713 0.39677 0.07261 0.0
H877 H 0.41693 0.35863 0.09497 0.0
H878 H 0.33316 0.35866 0.91974 0.0
H879 H 0.30598 0.32742 0.94582 0.0
H880 H 0.35552 0.41164 0.92511 0.0
H881 H 0.39573 0.43214 0.94498 0.0
C882 C 0.67733 0.34785 0.04822 0.0
C883 C 0.69757 0.33962 0.01477 0.0
C884 C 0.66192 0.38711 0.98071 0.0
C885 C 0.63991 0.39382 0.0134 0.0
N886 N 0.62234 0.3774 0.07681 0.0
N887 N 0.70355 0.34474 0.94759 0.0
C888 C 0.64607 0.37295 0.04666 0.0
C889 C 0.68803 0.35717 0.98046 0.0
N890 N 0.68926 0.33325 0.0817 0.0
N891 N 0.65873 0.41002 0.95027 0.0
H892 H 0.7226 0.32248 0.94644 0.0
H893 H 0.69478 0.35404 0.92126 0.0
H894 H 0.63992 0.43236 0.94951 0.0
H895 H 0.67703 0.40893 0.92722 0.0
H896 H 0.67856 0.34164 0.10759 0.0
H897 H 0.71191 0.31454 0.08394 0.0
H898 H 0.62262 0.36001 0.10019 0.0
H899 H 0.60072 0.39732 0.07757 0.0
C900 C 0.98312 0.66255 0.681 0.0
C901 C 0.0178 0.68073 0.69031 0.0
C902 C 0.05039 0.65065 0.63815 0.0
C903 C 0.01709 0.62899 0.63188 0.0
N904 N 0.95293 0.61092 0.64947 0.0
N905 N 0.08608 0.68802 0.68219 0.0
C906 C 0.98375 0.63388 0.65398 0.0
C907 C 0.05191 0.6739 0.66998 0.0
N908 N 0.94953 0.67341 0.69732 0.0
N909 N 0.08052 0.64909 0.61374 0.0
H910 H 0.08855 0.70509 0.70564 0.0
H911 H 0.11244 0.68027 0.67103 0.0
H912 H 0.08114 0.63136 0.59076 0.0
H913 H 0.10364 0.66735 0.61465 0.0
H914 H 0.92277 0.66378 0.68888 0.0
H915 H 0.94807 0.69469 0.71705 0.0
H916 H 0.9296 0.61045 0.66766 0.0
H917 H 0.95174 0.59051 0.62887 0.0
C918 C 0.36367 0.04774 0.67849 0.0
C919 C 0.3441 0.01474 0.68853 0.0
C920 C 0.36974 0.98313 0.63341 0.0
C921 C 0.39313 0.01455 0.62627 0.0
N922 N 0.41488 0.07603 0.64279 0.0
N923 N 0.32986 0.95013 0.67816 0.0
C924 C 0.39073 0.04673 0.64897 0.0
C925 C 0.34718 0.98221 0.66651 0.0
N926 N 0.35561 0.08021 0.69662 0.0
N927 N 0.36928 0.95422 0.60869 0.0
H928 H 0.31265 0.94863 0.70205 0.0
H929 H 0.33455 0.92442 0.66579 0.0
H930 H 0.38635 0.95351 0.58473 0.0
H931 H 0.35005 0.9322 0.61028 0.0
H932 H 0.36588 0.10597 0.68797 0.0
H933 H 0.33586 0.08202 0.71849 0.0
H934 H 0.41797 0.09815 0.66126 0.0
H935 H 0.43359 0.0774 0.62005 0.0
C936 C 0.0682 0.33509 0.6402 0.0
C937 C 0.03768 0.32557 0.66448 0.0
C938 C 1.00594 0.38431 0.65111 0.0
C939 C 0.03304 0.39141 0.62247 0.0
N940 N 0.09071 0.37411 0.58937 0.0
N941 N 0.97337 0.33701 0.68679 0.0
C942 C 0.06443 0.36686 0.61682 0.0
C943 C 1.00535 0.34901 0.66817 0.0
N944 N 0.10109 0.31454 0.64043 0.0
N945 N 0.9813 0.41123 0.66285 0.0
H946 H 0.97105 0.31064 0.69871 0.0
H947 H 0.94769 0.35174 0.68685 0.0
H948 H 0.98136 0.43808 0.65219 0.0
H949 H 0.96378 0.40811 0.68634 0.0
H950 H 0.12593 0.32225 0.62627 0.0
H951 H 0.10449 0.29093 0.65711 0.0
H952 H 0.11127 0.35514 0.58055 0.0
H953 H 0.09125 0.39905 0.57458 0.0
C954 C 0.67463 0.97596 0.67697 0.0
C955 C 0.69537 1.00877 0.68521 0.0
C956 C 0.65206 0.04545 0.64604 0.0
C957 C 0.63449 0.01216 0.63416 0.0
N958 N 0.61956 0.94803 0.64649 0.0
N959 N 0.70546 0.07463 0.67762 0.0
C960 C 0.6429 0.97798 0.65212 0.0
C961 C 0.68417 0.04362 0.67023 0.0
N962 N 0.6865 0.94277 0.69161 0.0
N963 N 0.63666 0.07878 0.63575 0.0
H964 H 0.72838 0.0748 0.69639 0.0
H965 H 0.7019 0.09976 0.66358 0.0
H966 H 0.6131 0.08093 0.61789 0.0
H967 H 0.64513 0.10408 0.64707 0.0
H968 H 0.67576 0.91715 0.68332 0.0
H969 H 0.70867 0.94065 0.71113 0.0
H970 H 0.62161 0.92324 0.66137 0.0
H971 H 0.59611 0.94875 0.62839 0.0
C972 C 0.05595 0.38224 0.32392 0.0
C973 C 0.02753 0.35444 0.32099 0.0
C974 C 1.00551 0.36834 0.38415 0.0
C975 C 0.02831 0.40112 0.3843 0.0
N976 N 0.0761 0.43908 0.35306 0.0
N977 N 0.96954 0.3266 0.34499 0.0
C978 C 0.05361 0.40816 0.35363 0.0
C979 C 1.00062 0.34913 0.3501 0.0
N980 N 0.08623 0.38278 0.29956 0.0
N981 N 0.98951 0.35417 0.41608 0.0
H982 H 0.96389 0.31304 0.31977 0.0
H983 H 0.94732 0.32468 0.36446 0.0
H984 H 0.99181 0.36584 0.44252 0.0
H985 H 0.97661 0.32807 0.41681 0.0
H986 H 0.10997 0.39997 0.30291 0.0
H987 H 0.08958 0.36351 0.27805 0.0
H988 H 0.09072 0.44821 0.32926 0.0
H989 H 0.07935 0.45622 0.37612 0.0
C990 C 0.68613 0.977 0.35027 0.0
C991 C 0.70026 0.0116 0.33706 0.0
C992 C 0.6608 0.04469 0.38244 0.0
C993 C 0.6438 1.01057 0.39307 0.0
N994 N 0.63959 0.94406 0.38858 0.0
N995 N 0.69721 0.07836 0.33565 0.0
C996 C 0.65613 0.9766 0.37722 0.0
C997 C 0.68636 0.04548 0.35166 0.0
N998 N 0.70258 0.94473 0.33821 0.0
N999 N 0.65396 0.07599 0.40292 0.0
H1000 H 0.71601 0.07987 0.31293 0.0
H1001 H 0.68496 0.10376 0.34263 0.0
H1002 H 0.63552 0.07639 0.42591 0.0
H1003 H 0.66881 0.10078 0.39901 0.0
H1004 H 0.69662 0.91874 0.34953 0.0
H1005 H 0.72409 0.94396 0.31792 0.0
H1006 H 0.64416 0.91862 0.37563 0.0
H1007 H 0.61956 0.94273 0.41025 0.0
C1008 C 1.00285 0.67011 0.33765 0.0
C1009 C 0.03141 0.69773 0.34203 0.0
C1010 C 0.04988 0.6706 0.4017 0.0
C1011 C 0.02581 0.63937 0.39451 0.0
N1012 N 0.98419 0.60724 0.35033 0.0
N1013 N 0.0886 0.71854 0.37338 0.0
C1014 C 1.00421 0.63813 0.36061 0.0
C1015 C 0.05704 0.69611 0.37249 0.0
N1016 N 0.97278 0.67539 0.3136 0.0
N1017 N 0.06512 0.6772 0.43629 0.0
H1018 H 0.09533 0.73698 0.35173 0.0
H1019 H 0.10998 0.71588 0.39365 0.0
H1020 H 0.06263 0.65948 0.45908 0.0
H1021 H 0.07855 0.70217 0.44302 0.0
H1022 H 0.94929 0.65755 0.3125 0.0
H1023 H 0.96886 0.69959 0.29802 0.0
H1024 H 0.97207 0.60428 0.32376 0.0
H1025 H 0.98145 0.58363 0.36684 0.0
C1026 C 0.37284 0.04204 0.32789 0.0
C1027 C 0.35107 1.00932 0.32205 0.0
C1028 C 0.37028 0.98621 0.38348 0.0
C1029 C 0.39765 0.01516 0.38624 0.0
N1030 N 0.42607 0.07079 0.36018 0.0
N1031 N 0.3364 0.94636 0.34077 0.0
C1032 C 0.39938 0.04312 0.35807 0.0
C1033 C 0.35172 0.98032 0.34889 0.0
N1034 N 0.36706 0.07249 0.30565 0.0
N1035 N 0.36122 0.96451 0.41363 0.0
H1036 H 0.32436 0.93996 0.3148 0.0
H1037 H 0.33961 0.9234 0.35836 0.0
H1038 H 0.37357 0.96737 0.43997 0.0
H1039 H 0.33813 0.94614 0.41334 0.0
H1040 H 0.37939 0.09826 0.31097 0.0
H1041 H 0.34703 0.07303 0.28394 0.0
H1042 H 0.43164 0.08918 0.33823 0.0
H1043 H 0.44392 0.07443 0.38332 0.0
C1044 C 1.00389 0.14235 0.31399 0.0
C1045 C 0.0181 0.17856 0.32047 0.0
C1046 C 0.03799 0.15978 0.3842 0.0
C1047 C 0.02101 0.12391 0.37942 0.0
N1048 N 0.99473 0.07926 0.3348 0.0
N1049 N 0.06474 0.21425 0.35399 0.0
C1050 C 0.00639 0.11457 0.34278 0.0
C1051 C 0.03987 0.18507 0.35332 0.0
N1052 N 0.987 0.13469 0.28029 0.0
N1053 N 0.05301 0.17017 0.41798 0.0
H1054 H 0.07048 0.2299 0.3301 0.0
H1055 H 0.08403 0.21914 0.37572 0.0
H1056 H 0.0582 0.15211 0.4401 0.0
H1057 H 0.05951 0.19763 0.42448 0.0
H1058 H 0.96944 0.11184 0.2755 0.0
H1059 H 0.99056 0.1517 0.2568 0.0
H1060 H 0.99126 0.06931 0.30763 0.0
H1061 H 0.98864 0.05914 0.3547 0.0
C1062 C 0.85075 0.97972 0.34481 0.0
C1063 C 0.84055 0.01321 0.32655 0.0
C1064 C 0.89076 0.04615 0.36154 0.0
C1065 C 0.89762 0.01354 0.38309 0.0
N1066 N 0.88053 0.95058 0.3985 0.0
N1067 N 0.849 0.07883 0.31785 0.0
C1068 C 0.87674 0.98063 0.37545 0.0
C1069 C 0.8604 0.04656 0.33467 0.0
N1070 N 0.83541 0.94695 0.33273 0.0
N1071 N 0.91289 0.07684 0.36721 0.0
H1072 H 0.82805 0.07956 0.29696 0.0
H1073 H 0.8589 0.10496 0.32553 0.0
H1074 H 0.93388 0.07794 0.38794 0.0
H1075 H 0.91227 0.10027 0.35009 0.0
H1076 H 0.84444 0.92108 0.3423 0.0
H1077 H 0.81611 0.94546 0.31042 0.0
H1078 H 0.86256 0.92754 0.39741 0.0
H1079 H 0.89953 0.95012 0.42097 0.0
C1080 C 0.03446 0.86287 0.32393 0.0
C1081 C 0.00984 0.83197 0.32831 0.0
C1082 C 0.99097 0.85513 0.3902 0.0
C1083 C 0.01314 0.88815 0.38516 0.0
N1084 N 0.04729 0.92656 0.3392 0.0
N1085 N 0.95395 0.80757 0.35895 0.0
C1086 C 0.03169 0.8933 0.34942 0.0
C1087 C 0.98423 0.83155 0.35904 0.0
N1088 N 0.0624 0.86252 0.29713 0.0
N1089 N 0.97727 0.84467 0.42451 0.0
H1090 H 0.94828 0.79026 0.33615 0.0
H1091 H 0.93266 0.80794 0.37947 0.0
H1092 H 0.97989 0.86003 0.44889 0.0
H1093 H 0.96507 0.81864 0.42924 0.0
H1094 H 0.08405 0.88236 0.29589 0.0
H1095 H 0.06595 0.84101 0.27806 0.0
H1096 H 0.05598 0.93215 0.31176 0.0
H1097 H 0.05026 0.94926 0.35671 0.0
C1098 C 0.15925 0.97434 0.32407 0.0
C1099 C 0.18369 1.00521 0.31695 0.0
C1100 C 0.16959 0.02901 0.38039 0.0
C1101 C 0.14263 0.99989 0.38595 0.0
N1102 N 0.12384 0.93793 0.36966 0.0
N1103 N 0.22244 0.05402 0.3439 0.0
C1104 C 0.14126 0.97041 0.35977 0.0
C1105 C 0.19225 0.03002 0.34692 0.0
N1106 N 0.15185 0.94934 0.29623 0.0
N1107 N 0.17268 0.05658 0.40637 0.0
H1108 H 0.24015 0.05555 0.3205 0.0
H1109 H 0.2328 0.06978 0.36612 0.0
H1110 H 0.15834 0.05609 0.43192 0.0
H1111 H 0.18817 0.08087 0.40203 0.0
H1112 H 0.13036 0.92944 0.29808 0.0
H1113 H 0.16581 0.94938 0.27041 0.0
H1114 H 0.12652 0.91352 0.35432 0.0
H1115 H 0.10894 0.93466 0.39479 0.0
C1116 C 0.03958 0.87432 0.69545 0.0
C1117 C 0.01068 0.84644 0.69815 0.0
C1118 C 0.98763 0.86428 0.63497 0.0
C1119 C 0.0164 0.89212 0.63231 0.0
N1120 N 0.07595 0.91653 0.65581 0.0
N1121 N 0.96616 0.8073 0.66444 0.0
C1122 C 0.04423 0.89494 0.66135 0.0
C1123 C 0.98759 0.83899 0.66601 0.0
N1124 N 0.0621 0.88194 0.72585 0.0
N1125 N 0.95889 0.86306 0.60899 0.0
H1126 H 0.96604 0.78729 0.68555 0.0
H1127 H 0.95196 0.79867 0.64028 0.0
H1128 H 0.95769 0.8807 0.58586 0.0
H1129 H 0.93448 0.84669 0.61209 0.0
H1130 H 0.0797 0.9052 0.72758 0.0
H1131 H 0.06196 0.86605 0.75032 0.0
H1132 H 0.09938 0.91683 0.67388 0.0
H1133 H 0.08061 0.93146 0.63114 0.0
C1134 C 0.15875 0.04015 0.68977 0.0
C1135 C 0.17975 1.00772 0.69971 0.0
C1136 C 0.16071 0.97915 0.63971 0.0
C1137 C 0.13859 0.011 0.63078 0.0
N1138 N 0.13003 0.07635 0.6397 0.0
N1139 N 0.21297 0.95362 0.67644 0.0
C1140 C 0.1419 0.04296 0.65347 0.0
C1141 C 0.18463 0.9794 0.67228 0.0
N1142 N 0.1535 0.06786 0.71533 0.0
N1143 N 0.15815 0.94827 0.61777 0.0
H1144 H 0.23304 0.95463 0.69805 0.0
H1145 H 0.21974 0.93423 0.65588 0.0
H1146 H 0.14201 0.94754 0.59317 0.0
H1147 H 0.16991 0.92276 0.62531 0.0
H1148 H 0.13522 0.09016 0.71071 0.0
H1149 H 0.16542 0.06773 0.74211 0.0
H1150 H 0.13579 0.10152 0.65284 0.0
H1151 H 0.11722 0.07888 0.6134 0.0
C1152 C 0.04241 0.15989 0.68284 0.0
C1153 C 0.01745 0.19055 0.67858 0.0
C1154 C 0.99123 0.16234 0.62126 0.0
C1155 C 0.01528 0.13061 0.62595 0.0
N1156 N 0.05473 0.0955 0.66982 0.0
N1157 N 0.95945 0.2142 0.65132 0.0
C1158 C 0.03769 0.12802 0.65955 0.0
C1159 C 0.98898 0.18937 0.65027 0.0
N1160 N 0.0724 0.16185 0.70737 0.0
N1161 N 0.97077 0.16746 0.58904 0.0
H1162 H 0.95676 0.23375 0.67271 0.0
H1163 H 0.93575 0.21268 0.63361 0.0
H1164 H 0.9693 0.14809 0.56765 0.0
H1165 H 0.95691 0.19225 0.58252 0.0
H1166 H 0.09428 0.14226 0.70805 0.0
H1167 H 0.07723 0.18445 0.72487 0.0
H1168 H 0.06633 0.09137 0.69646 0.0
H1169 H 0.05526 0.07181 0.65341 0.0
C1170 C 0.84032 0.03623 0.65906 0.0
C1171 C 0.83633 1.00553 0.68361 0.0
C1172 C 0.8917 0.97589 0.6532 0.0
C1173 C 0.89238 1.00473 0.62566 0.0
N1174 N 0.86029 0.05778 0.5982 0.0
N1175 N 0.85555 0.9441 0.70211 0.0
C1176 C 0.86468 0.03354 0.62736 0.0
C1177 C 0.86155 0.97487 0.68042 0.0
N1178 N 0.82098 0.06837 0.66633 0.0
N1179 N 0.91926 0.949 0.65286 0.0
H1180 H 0.8344 0.94291 0.72275 0.0
H1181 H 0.86986 0.91908 0.69823 0.0
H1182 H 0.93949 0.94663 0.63153 0.0
H1183 H 0.92309 0.92989 0.67451 0.0
H1184 H 0.82563 0.09292 0.65148 0.0
H1185 H 0.80341 0.07156 0.68978 0.0
H1186 H 0.83732 0.07613 0.59623 0.0
H1187 H 0.87717 0.05739 0.57424 0.0
C1188 C 0.3435 0.02833 0.16071 0.0
C1189 C 0.34009 0.99647 0.18388 0.0
C1190 C 0.38796 0.96416 0.14519 0.0
C1191 C 0.39505 0.99759 0.12518 0.0
N1192 N 0.38113 0.0623 0.11477 0.0
N1193 N 0.35876 0.93392 0.19906 0.0
C1194 C 0.37279 0.02976 0.1328 0.0
C1195 C 0.36196 0.96418 0.17603 0.0
N1196 N 0.31883 0.05732 0.1657 0.0
N1197 N 0.40537 0.93213 0.13406 0.0
H1198 H 0.3382 0.93202 0.22023 0.0
H1199 H 0.37741 0.91142 0.19839 0.0
H1200 H 0.42535 0.93134 0.11236 0.0
H1201 H 0.39832 0.90598 0.14442 0.0
H1202 H 0.31696 0.07993 0.14757 0.0
H1203 H 0.29776 0.05735 0.18644 0.0
H1204 H 0.36913 0.08775 0.12177 0.0
H1205 H 0.40227 0.06446 0.09427 0.0
C1206 C 0.98816 0.34106 0.16297 0.0
C1207 C 0.02226 0.33611 0.18401 0.0
C1208 C 0.05217 0.38795 0.14978 0.0
C1209 C 0.01857 0.39239 0.12776 0.0
N1210 N 0.95738 0.36788 0.10816 0.0
N1211 N 0.08971 0.34777 0.19032 0.0
C1212 C 0.98755 0.36704 0.13253 0.0
C1213 C 0.05526 0.35723 0.17481 0.0
N1214 N 0.95581 0.3223 0.17328 0.0
N1215 N 0.08089 0.41357 0.14762 0.0
H1216 H 0.0927 0.32519 0.20851 0.0
H1217 H 0.11562 0.35971 0.18226 0.0
H1218 H 0.08023 0.43595 0.12911 0.0
H1219 H 0.10397 0.41424 0.16613 0.0
H1220 H 0.92879 0.328 0.16231 0.0
H1221 H 0.95579 0.30223 0.19443 0.0
H1222 H 0.93594 0.3478 0.10768 0.0
H1223 H 0.95515 0.38734 0.08662 0.0
C1224 C 0.68177 0.04221 0.17391 0.0
C1225 C 0.71234 0.01667 0.16876 0.0
C1226 C 0.67146 0.98142 0.12523 0.0
C1227 C 0.64453 1.01087 0.1249 0.0
N1228 N 0.62767 0.07252 0.14475 0.0
N1229 N 0.73605 0.96103 0.1389 0.0
C1230 C 0.65042 0.042 0.14839 0.0
C1231 C 0.70695 0.98576 0.1445 0.0
N1232 N 0.68198 0.06614 0.20354 0.0
N1233 N 0.66269 0.94896 0.10754 0.0
H1234 H 0.76166 0.9615 0.15389 0.0
H1235 H 0.73569 0.94108 0.11784 0.0
H1236 H 0.63682 0.94509 0.09354 0.0
H1237 H 0.67915 0.92498 0.10975 0.0
H1238 H 0.65883 0.08317 0.20997 0.0
H1239 H 0.70288 0.06569 0.22439 0.0
H1240 H 0.63349 0.0976 0.15807 0.0
H1241 H 0.60514 0.07385 0.12561 0.0
C1242 C 0.03535 0.66934 0.17612 0.0
C1243 C 0.0102 0.69934 0.16925 0.0
C1244 C 0.99538 0.67191 0.10769 0.0
C1245 C 0.01364 0.63769 0.11866 0.0
N1246 N 0.04929 0.6047 0.16716 0.0
N1247 N 0.97136 0.73277 0.12513 0.0
C1248 C 0.03285 0.63656 0.15407 0.0
C1249 C 0.99217 0.70182 0.13379 0.0
N1250 N 0.06404 0.67329 0.20171 0.0
N1251 N 0.98096 0.67644 0.07235 0.0
H1252 H 0.97405 0.75746 0.14009 0.0
H1253 H 0.95147 0.73403 0.10338 0.0
H1254 H 0.97606 0.65492 0.05387 0.0
H1255 H 0.97409 0.70214 0.06079 0.0
H1256 H 0.08521 0.65338 0.20614 0.0
H1257 H 0.07051 0.69895 0.21337 0.0
H1258 H 0.05894 0.60192 0.19472 0.0
H1259 H 0.0515 0.5803 0.15201 0.0
C1260 C 0.34475 0.98783 0.84997 0.0
C1261 C 0.33949 0.01978 0.82725 0.0
C1262 C 0.38713 0.05348 0.86528 0.0
C1263 C 0.39567 0.02027 0.88511 0.0
N1264 N 0.3845 0.95502 0.89507 0.0
N1265 N 0.35558 0.08312 0.81235 0.0
C1266 C 0.37459 0.98733 0.87743 0.0
C1267 C 0.36045 0.05275 0.83494 0.0
N1268 N 0.32122 0.9579 0.84511 0.0
N1269 N 0.40372 0.086 0.87622 0.0
H1270 H 0.33432 0.08459 0.79182 0.0
H1271 H 0.37347 0.10622 0.81275 0.0
H1272 H 0.42411 0.08731 0.89752 0.0
H1273 H 0.39566 0.11196 0.86613 0.0
H1274 H 0.32061 0.93508 0.86304 0.0
H1275 H 0.29987 0.95714 0.82466 0.0
H1276 H 0.37342 0.92918 0.88801 0.0
H1277 H 0.40609 0.95357 0.9152 0.0
C1278 C 0.99625 0.31997 0.87231 0.0
C1279 C 0.01438 0.32377 0.83696 0.0
C1280 C 0.03427 0.38713 0.85351 0.0
C1281 C 0.01533 0.38453 0.88904 0.0
N1282 N 0.98358 0.34382 0.93424 0.0
N1283 N 0.067 0.35272 0.80513 0.0
C1284 C 0.99822 0.34947 0.89913 0.0
C1285 C 0.03822 0.35491 0.83084 0.0
N1286 N 0.97654 0.28812 0.88016 0.0
N1287 N 0.04893 0.41993 0.84066 0.0
H1288 H 0.07447 0.3276 0.7929 0.0
H1289 H 0.08735 0.37355 0.80121 0.0
H1290 H 0.05031 0.44425 0.85601 0.0
H1291 H 0.0581 0.42347 0.81302 0.0
H1292 H 0.95672 0.28561 0.90185 0.0
H1293 H 0.98004 0.26394 0.86454 0.0
H1294 H 0.97743 0.31769 0.9452 0.0
H1295 H 0.97781 0.3648 0.95317 0.0
C1296 C 0.70897 0.03592 0.86965 0.0
C1297 C 0.71534 1.0044 0.84641 0.0
C1298 C 0.65252 0.9795 0.86507 0.0
C1299 C 0.64597 0.01097 0.88795 0.0
N1300 N 0.6635 0.07322 0.90466 0.0
N1301 N 0.6864 0.95381 0.812 0.0
C1302 C 0.67286 0.04049 0.88781 0.0
C1303 C 0.68493 0.97867 0.8408 0.0
N1304 N 0.73776 0.06099 0.87542 0.0
N1305 N 0.6293 0.94923 0.86822 0.0
H1306 H 0.70842 0.95328 0.79232 0.0
H1307 H 0.66343 0.93677 0.80487 0.0
H1308 H 0.60609 0.94834 0.88657 0.0
H1309 H 0.63525 0.92391 0.85547 0.0
H1310 H 0.7367 0.08151 0.89589 0.0
H1311 H 0.76378 0.06032 0.86114 0.0
H1312 H 0.67995 0.09724 0.90258 0.0
H1313 H 0.63717 0.07723 0.91779 0.0
C1314 C 0.05458 0.6658 0.83461 0.0
C1315 C 0.02193 0.68833 0.8279 0.0
C1316 C 0.98815 0.65554 0.8789 0.0
C1317 C 0.01885 0.62957 0.8818 0.0
N1318 N 0.08022 0.60829 0.85952 0.0
N1319 N 0.95619 0.7028 0.84148 0.0
C1320 C 0.05178 0.63427 0.85881 0.0
C1321 C 0.98844 0.68297 0.84979 0.0
N1322 N 0.08851 0.67493 0.81783 0.0
N1323 N 0.95851 0.65397 0.90386 0.0
H1324 H 0.95584 0.72394 0.82142 0.0
H1325 H 0.92937 0.69696 0.85284 0.0
H1326 H 0.95597 0.6332 0.92406 0.0
H1327 H 0.9377 0.67452 0.9061 0.0
H1328 H 0.11443 0.66207 0.82412 0.0
H1329 H 0.09133 0.69802 0.80028 0.0
H1330 H 0.10286 0.60785 0.84051 0.0
H1331 H 0.07986 0.58546 0.87748 0.0
C1332 C 0.1737 0.3392 0.04486 0.0
C1333 C 0.19668 0.33264 0.01271 0.0
C1334 C 0.16363 0.38329 0.97932 0.0
C1335 C 0.13979 0.38935 0.01105 0.0
N1336 N 0.11745 0.36849 0.07171 0.0
N1337 N 0.2075 0.34217 0.94678 0.0
C1338 C 0.14318 0.36563 0.04299 0.0
C1339 C 0.18954 0.35273 0.97911 0.0
N1340 N 0.18231 0.32153 0.07777 0.0
N1341 N 0.16212 0.40717 0.94952 0.0
H1342 H 0.22631 0.31971 0.94577 0.0
H1343 H 0.20108 0.35314 0.92046 0.0
H1344 H 0.1427 0.42899 0.94791 0.0
H1345 H 0.18187 0.40708 0.92764 0.0
H1346 H 0.17011 0.3284 0.10347 0.0
H1347 H 0.20346 0.30118 0.07969 0.0
H1348 H 0.11563 0.34946 0.09369 0.0
H1349 H 0.09626 0.38878 0.07256 0.0
C1350 C 0.18872 0.66975 0.02955 0.0
C1351 C 0.19654 0.68868 0.99538 0.0
C1352 C 0.14414 0.65414 0.96499 0.0
C1353 C 0.13995 0.63169 0.99774 0.0
N1354 N 0.1598 0.61677 0.0608 0.0
N1355 N 0.18377 0.69741 0.92965 0.0
C1356 C 0.16267 0.63921 0.02994 0.0
C1357 C 0.17448 0.68077 0.96293 0.0
N1358 N 0.20608 0.68145 0.06181 0.0
N1359 N 0.11918 0.65001 0.93576 0.0
H1360 H 0.20475 0.71795 0.92753 0.0
H1361 H 0.17231 0.68954 0.9039 0.0
H1362 H 0.09801 0.62965 0.93528 0.0
H1363 H 0.11787 0.66813 0.91299 0.0
H1364 H 0.19924 0.67139 0.08839 0.0
H1365 H 0.22493 0.70392 0.06237 0.0
H1366 H 0.17859 0.61784 0.08346 0.0
H1367 H 0.14003 0.59521 0.06279 0.0
C1368 C 0.32897 0.14834 0.99635 0.0
C1369 C 0.32626 0.17398 0.02659 0.0
C1370 C 0.38757 0.15028 0.05107 0.0
C1371 C 0.39187 0.12667 0.01959 0.0
N1372 N 0.36983 0.10969 0.95789 0.0
N1373 N 0.36096 0.20754 0.07455 0.0
C1374 C 0.36349 0.12775 0.9909 0.0
C1375 C 0.35808 0.17765 0.05131 0.0
N1376 N 0.29823 0.14262 0.97332 0.0
N1377 N 0.40962 0.14492 0.08214 0.0
H1378 H 0.34192 0.22977 0.07363 0.0
H1379 H 0.3851 0.21249 0.09103 0.0
H1380 H 0.42957 0.12351 0.08404 0.0
H1381 H 0.40487 0.15886 0.1073 0.0
H1382 H 0.29676 0.12088 0.95418 0.0
H1383 H 0.27302 0.15797 0.9748 0.0
H1384 H 0.35233 0.11256 0.93439 0.0
H1385 H 0.39471 0.09465 0.9529 0.0
C1386 C 0.85109 0.35137 0.04479 0.0
C1387 C 0.83856 0.33306 0.01185 0.0
C1388 C 0.88454 0.36977 0.97455 0.0
C1389 C 0.89428 0.39047 0.00712 0.0
N1390 N 0.8815 0.40551 0.07175 0.0
N1391 N 0.84104 0.32591 0.94483 0.0
C1392 C 0.87617 0.38241 0.04188 0.0
C1393 C 0.85501 0.34229 0.97657 0.0
N1394 N 0.8389 0.33888 0.07902 0.0
N1395 N 0.90305 0.37692 0.94154 0.0
H1396 H 0.82075 0.30466 0.94564 0.0
H1397 H 0.84811 0.33424 0.91773 0.0
H1398 H 0.92281 0.39844 0.93853 0.0
H1399 H 0.9005 0.36058 0.91765 0.0
H1400 H 0.8498 0.34853 0.10438 0.0
H1401 H 0.8205 0.31622 0.08194 0.0
H1402 H 0.86589 0.40363 0.09658 0.0
H1403 H 0.89947 0.42857 0.07065 0.0
C1404 C 0.70755 0.87327 0.97766 0.0
C1405 C 0.71362 0.84868 0.0085 0.0
C1406 C 0.65277 0.86973 0.03624 0.0
C1407 C 0.646 0.89333 1.00503 0.0
N1408 N 0.663 0.91143 0.94225 0.0
N1409 N 0.68447 0.8147 0.05971 0.0
C1410 C 0.67224 0.89309 0.97456 0.0
C1411 C 0.68383 0.84405 0.03541 0.0
N1412 N 0.73596 0.87868 0.95181 0.0
N1413 N 0.63113 0.87335 0.06785 0.0
H1414 H 0.70505 0.79384 0.05862 0.0
H1415 H 0.66187 0.80857 0.07778 0.0
H1416 H 0.6087 0.89229 0.0698 0.0
H1417 H 0.63771 0.86007 0.09306 0.0
H1418 H 0.73545 0.89984 0.93185 0.0
H1419 H 0.76121 0.86333 0.95136 0.0
H1420 H 0.67871 0.90937 0.91752 0.0
H1421 H 0.63746 0.92604 0.93931 0.0
C1422 C 0.86071 0.68231 0.0343 0.0
C1423 C 0.83873 0.68822 1.00136 0.0
C1424 C 0.87388 0.63786 0.96961 0.0
C1425 C 0.89429 0.63056 1.00338 0.0
N1426 N 0.90292 0.64149 0.06945 0.0
N1427 N 0.82446 0.67338 0.93713 0.0
C1428 C 0.88685 0.65189 0.03606 0.0
C1429 C 0.84572 0.66664 0.9687 0.0
N1430 N 0.85656 0.70598 0.06389 0.0
N1431 N 0.88133 0.61688 0.93856 0.0
H1432 H 0.80559 0.69571 0.93497 0.0
H1433 H 0.82485 0.65717 0.91308 0.0
H1434 H 0.90007 0.59441 0.93902 0.0
H1435 H 0.8701 0.62181 0.91202 0.0
H1436 H 0.8743 0.70583 0.08736 0.0
H1437 H 0.83726 0.72804 0.06354 0.0
H1438 H 0.89557 0.65293 0.09523 0.0
H1439 H 0.92195 0.61932 0.07183 0.0
C1440 C 0.32856 0.87319 0.01287 0.0
C1441 C 0.32594 0.8475 0.98267 0.0
C1442 C 0.38866 0.86943 0.95978 0.0
C1443 C 0.39253 0.89341 0.99105 0.0
N1444 N 0.36936 0.91122 0.05208 0.0
N1445 N 0.36093 0.81277 0.93584 0.0
C1446 C 0.36341 0.89308 0.01904 0.0
C1447 C 0.35836 0.84284 0.95888 0.0
N1448 N 0.29743 0.87965 0.03516 0.0
N1449 N 0.41198 0.87375 0.92944 0.0
H1450 H 0.34106 0.7912 0.93611 0.0
H1451 H 0.38541 0.80695 0.92017 0.0
H1452 H 0.43248 0.8947 0.92789 0.0
H1453 H 0.40779 0.85956 0.90433 0.0
H1454 H 0.29602 0.90151 0.05415 0.0
H1455 H 0.27192 0.86478 0.03319 0.0
H1456 H 0.35125 0.90886 0.07519 0.0
H1457 H 0.39446 0.92576 0.0576 0.0
C1458 C 0.7069 0.14849 0.03423 0.0
C1459 C 0.71168 0.17436 1.00425 0.0
C1460 C 0.65094 0.15278 0.97687 0.0
C1461 C 0.64508 0.12831 0.00756 0.0
N1462 N 0.66376 0.10866 0.06947 0.0
N1463 N 0.68036 0.20966 0.95522 0.0
C1464 C 0.67196 0.12807 0.03751 0.0
C1465 C 0.68119 0.1793 0.9782 0.0
N1466 N 0.73615 0.14241 0.059 0.0
N1467 N 0.62938 0.14919 0.94519 0.0
H1468 H 0.70016 0.23121 0.9571 0.0
H1469 H 0.65718 0.21571 0.93783 0.0
H1470 H 0.60787 0.1293 0.94265 0.0
H1471 H 0.63533 0.16354 0.92042 0.0
H1472 H 0.73639 0.12053 0.07815 0.0
H1473 H 0.76137 0.15787 0.05918 0.0
H1474 H 0.68003 0.11029 0.09391 0.0
H1475 H 0.63856 0.09349 0.07257 0.0
C1476 C 0.5383 0.68525 0.85021 0.0
C1477 C 0.51116 0.67887 0.82109 0.0
C1478 C 0.4881 0.62368 0.85491 0.0
C1479 C 0.51372 0.63087 0.88515 0.0
N1480 N 0.56033 0.6718 0.91341 0.0
N1481 N 0.47319 0.63317 0.7892 0.0
C1482 C 0.53804 0.66259 0.88332 0.0
C1483 C 0.48998 0.64536 0.82151 0.0
N1484 N 0.56663 0.7108 0.84476 0.0
N1485 N 0.4597 0.59792 0.85916 0.0
H1486 H 0.47721 0.64661 0.76352 0.0
H1487 H 0.46007 0.60732 0.78678 0.0
H1488 H 0.45521 0.58366 0.88423 0.0
H1489 H 0.43776 0.59412 0.83973 0.0
H1490 H 0.58921 0.71518 0.86326 0.0
H1491 H 0.57109 0.72369 0.81905 0.0
H1492 H 0.57448 0.69707 0.91602 0.0
H1493 H 0.56272 0.65551 0.93737 0.0
C1494 C 0.36193 0.47745 0.83581 0.0
C1495 C 0.34043 0.50996 0.82778 0.0
C1496 C 0.37398 0.54295 0.87832 0.0
C1497 C 0.39675 0.51107 0.88533 0.0
N1498 N 0.41663 0.44965 0.86706 0.0
N1499 N 0.33206 0.57571 0.83515 0.0
C1500 C 0.39227 0.47897 0.86263 0.0
C1501 C 0.3486 0.54341 0.84705 0.0
N1502 N 0.35185 0.44457 0.81955 0.0
N1503 N 0.37569 0.57244 0.90222 0.0
H1504 H 0.31361 0.5768 0.81212 0.0
H1505 H 0.33946 0.6017 0.84559 0.0
H1506 H 0.39411 0.57322 0.92518 0.0
H1507 H 0.35683 0.59478 0.90108 0.0
H1508 H 0.36299 0.41902 0.82776 0.0
H1509 H 0.33044 0.44243 0.79928 0.0
H1510 H 0.41791 0.42736 0.8486 0.0
H1511 H 0.43719 0.44856 0.8882 0.0
C1512 C 0.47294 0.34162 0.85768 0.0
C1513 C 0.50232 0.33694 0.8305 0.0
C1514 C 0.52924 0.39671 0.85026 0.0
C1515 C 0.50657 0.39608 0.88367 0.0
N1516 N 0.45283 0.36893 0.91651 0.0
N1517 N 0.56162 0.35944 0.80394 0.0
C1518 C 0.47718 0.36876 0.88655 0.0
C1519 C 0.53102 0.36456 0.82721 0.0
N1520 N 0.44075 0.32018 0.85542 0.0
N1521 N 0.54839 0.42788 0.83928 0.0
H1522 H 0.56481 0.33635 0.78677 0.0
H1523 H 0.58546 0.37688 0.80414 0.0
H1524 H 0.54909 0.45247 0.85427 0.0
H1525 H 0.56071 0.43034 0.81274 0.0
H1526 H 0.41663 0.3241 0.87213 0.0
H1527 H 0.43682 0.30084 0.834 0.0
H1528 H 0.43422 0.34719 0.9228 0.0
H1529 H 0.45197 0.3905 0.9358 0.0
C1530 C 0.69017 0.53683 0.84609 0.0
C1531 C 0.6807 0.51196 0.81646 0.0
C1532 C 0.63959 0.47727 0.8605 0.0
C1533 C 0.64146 0.507 0.88634 0.0
N1534 N 0.67305 0.56287 0.90658 0.0
N1535 N 0.64921 0.45542 0.79705 0.0
C1536 C 0.66859 0.53582 0.88026 0.0
C1537 C 0.65683 0.48088 0.82442 0.0
N1538 N 0.72032 0.56076 0.84208 0.0
N1539 N 0.62241 0.4449 0.87108 0.0
H1540 H 0.66241 0.45556 0.77084 0.0
H1541 H 0.62851 0.43481 0.79969 0.0
H1542 H 0.60745 0.44207 0.89623 0.0
H1543 H 0.62539 0.42019 0.85629 0.0
H1544 H 0.73123 0.57685 0.86378 0.0
H1545 H 0.73746 0.56189 0.81824 0.0
H1546 H 0.68871 0.58705 0.90218 0.0
H1547 H 0.66005 0.56172 0.93281 0.0
C1548 C 0.5078 0.32965 0.15507 0.0
C1549 C 0.50802 0.34133 0.1933 0.0
C1550 C 0.51073 0.40567 0.17115 0.0
C1551 C 0.51548 0.3943 0.13278 0.0
N1552 N 0.53298 0.34192 0.0933 0.0
N1553 N 0.52566 0.39057 0.23564 0.0
C1554 C 0.51833 0.35526 0.12611 0.0
C1555 C 0.51525 0.37926 0.20057 0.0
N1556 N 0.49692 0.29456 0.14565 0.0
N1557 N 0.49877 0.44053 0.18042 0.0
H1558 H 0.53082 0.37201 0.25758 0.0
H1559 H 0.53373 0.41786 0.2413 0.0
H1560 H 0.48828 0.45974 0.1613 0.0
H1561 H 0.49301 0.4482 0.20805 0.0
H1562 H 0.49262 0.28644 0.11789 0.0
H1563 H 0.48876 0.27466 0.16513 0.0
H1564 H 0.5381 0.31376 0.08899 0.0
H1565 H 0.54537 0.35855 0.07278 0.0
C1566 C 0.66183 0.54451 0.18942 0.0
C1567 C 0.6817 0.51153 0.19987 0.0
C1568 C 0.66077 0.48234 0.14084 0.0
C1569 C 0.63992 0.51478 0.1313 0.0
N1570 N 0.63373 0.58053 0.13881 0.0
N1571 N 0.71246 0.45572 0.17749 0.0
C1572 C 0.64463 0.5471 0.15323 0.0
C1573 C 0.68511 0.48245 0.17308 0.0
N1574 N 0.6581 0.57298 0.21436 0.0
N1575 N 0.65658 0.45106 0.11976 0.0
H1576 H 0.73283 0.45643 0.19884 0.0
H1577 H 0.71818 0.43566 0.15729 0.0
H1578 H 0.64032 0.45052 0.09524 0.0
H1579 H 0.66737 0.4253 0.1278 0.0
H1580 H 0.6407 0.59591 0.20947 0.0
H1581 H 0.67047 0.57299 0.24094 0.0
H1582 H 0.64007 0.60582 0.15146 0.0
H1583 H 0.6212 0.58282 0.11236 0.0
C1584 C 0.4817 0.68463 0.16056 0.0
C1585 C 0.51122 0.68743 0.18765 0.0
C1586 C 0.5368 0.62823 0.16433 0.0
C1587 C 0.51291 0.63056 0.13174 0.0
N1588 N 0.46554 0.66664 0.09762 0.0
N1589 N 0.56991 0.66255 0.21288 0.0
C1590 C 0.48607 0.66028 0.12955 0.0
C1591 C 0.53928 0.65909 0.18934 0.0
N1592 N 0.4498 0.70623 0.16406 0.0
N1593 N 0.55764 0.59708 0.17169 0.0
H1594 H 0.57295 0.6843 0.23179 0.0
H1595 H 0.59367 0.64515 0.21165 0.0
H1596 H 0.55963 0.57471 0.15356 0.0
H1597 H 0.57098 0.59251 0.19746 0.0
H1598 H 0.42582 0.70334 0.14688 0.0
H1599 H 0.44603 0.72411 0.18677 0.0
H1600 H 0.44905 0.69042 0.0936 0.0
H1601 H 0.46726 0.65018 0.07387 0.0
C1602 C 0.34384 0.53783 0.16474 0.0
C1603 C 0.33766 0.50568 0.18675 0.0
C1604 C 0.38956 0.47408 0.15243 0.0
C1605 C 0.39311 0.50541 0.12817 0.0
N1606 N 0.36475 0.5623 0.10539 0.0
N1607 N 0.35234 0.44205 0.20067 0.0
C1608 C 0.36787 0.53597 0.13274 0.0
C1609 C 0.3602 0.4735 0.18059 0.0
N1610 N 0.32635 0.57037 0.17432 0.0
N1611 N 0.41323 0.44434 0.1475 0.0
H1612 H 0.33214 0.44152 0.22225 0.0
H1613 H 0.36452 0.4163 0.19528 0.0
H1614 H 0.43219 0.4424 0.12499 0.0
H1615 H 0.41512 0.42214 0.16613 0.0
H1616 H 0.3328 0.59566 0.16154 0.0
H1617 H 0.30834 0.57273 0.19755 0.0
H1618 H 0.34313 0.58221 0.10514 0.0
H1619 H 0.38057 0.56171 0.08076 0.0
C1620 C 0.83988 0.53863 0.66078 0.0
C1621 C 0.83665 0.50681 0.68413 0.0
C1622 C 0.8861 0.47512 0.6469 0.0
C1623 C 0.89263 0.50835 0.62641 0.0
N1624 N 0.87554 0.57169 0.61235 0.0
N1625 N 0.85535 0.44432 0.69958 0.0
C1626 C 0.86901 0.53996 0.63254 0.0
C1627 C 0.85906 0.47475 0.67681 0.0
N1628 N 0.81521 0.56758 0.66601 0.0
N1629 N 0.90499 0.4435 0.63692 0.0
H1630 H 0.83384 0.44192 0.71976 0.0
H1631 H 0.87428 0.42205 0.69965 0.0
H1632 H 0.9259 0.443 0.61607 0.0
H1633 H 0.89825 0.41723 0.64716 0.0
H1634 H 0.81352 0.59066 0.64853 0.0
H1635 H 0.79426 0.56749 0.68686 0.0
H1636 H 0.8622 0.59696 0.61737 0.0
H1637 H 0.89613 0.57351 0.59127 0.0
C1638 C 0.47914 0.85371 0.67442 0.0
C1639 C 0.51242 0.83222 0.68121 0.0
C1640 C 0.54602 0.86687 0.63149 0.0
C1641 C 0.51459 0.89195 0.62894 0.0
N1642 N 0.45227 0.91122 0.65077 0.0
N1643 N 0.57857 0.81921 0.66768 0.0
C1644 C 0.48135 0.88586 0.65113 0.0
C1645 C 0.54594 0.83857 0.65959 0.0
N1646 N 0.44546 0.84327 0.69083 0.0
N1647 N 0.57636 0.87044 0.6075 0.0
H1648 H 0.57915 0.79728 0.68681 0.0
H1649 H 0.60541 0.82593 0.65689 0.0
H1650 H 0.57936 0.89261 0.58892 0.0
H1651 H 0.59771 0.8505 0.60468 0.0
H1652 H 0.41919 0.85555 0.68474 0.0
H1653 H 0.44349 0.81969 0.70783 0.0
H1654 H 0.42923 0.91044 0.66931 0.0
H1655 H 0.45215 0.9345 0.63338 0.0
C1656 C 0.18329 0.54167 0.67712 0.0
C1657 C 0.21076 0.51287 0.67206 0.0
C1658 C 0.16236 0.47821 0.6363 0.0
C1659 C 0.14047 0.5109 0.63212 0.0
N1660 N 0.12678 0.573 0.65275 0.0
N1661 N 0.22474 0.45156 0.64795 0.0
C1662 C 0.14969 0.54236 0.65415 0.0
C1663 C 0.19959 0.48023 0.6524 0.0
N1664 N 0.18847 0.56741 0.7047 0.0
N1665 N 0.14666 0.44501 0.6264 0.0
H1666 H 0.25219 0.4513 0.65936 0.0
H1667 H 0.21906 0.42868 0.63107 0.0
H1668 H 0.1188 0.44315 0.61597 0.0
H1669 H 0.15955 0.41953 0.632 0.0
H1670 H 0.16813 0.58737 0.71155 0.0
H1671 H 0.21084 0.56593 0.72401 0.0
H1672 H 0.13412 0.59832 0.66477 0.0
H1673 H 0.1012 0.57365 0.63767 0.0
C1674 C 0.48961 0.20096 0.63879 0.0
C1675 C 0.50697 0.19951 0.67456 0.0
C1676 C 0.53295 0.13749 0.65944 0.0
C1677 C 0.51135 0.13695 0.62542 0.0
N1678 N 0.46362 0.16699 0.58651 0.0
N1679 N 0.55929 0.17445 0.7101 0.0
C1680 C 0.48865 0.16863 0.6159 0.0
C1681 C 0.53255 0.1699 0.6826 0.0
N1682 N 0.47566 0.234 0.62588 0.0
N1683 N 0.55362 0.10709 0.67014 0.0
H1684 H 0.56386 0.2 0.72272 0.0
H1685 H 0.58085 0.15544 0.71613 0.0
H1686 H 0.55744 0.08388 0.6534 0.0
H1687 H 0.56525 0.10375 0.69683 0.0
H1688 H 0.46584 0.23805 0.59857 0.0
H1689 H 0.47893 0.25861 0.6409 0.0
H1690 H 0.44354 0.18755 0.58067 0.0
H1691 H 0.45964 0.14322 0.57059 0.0
C1692 C 0.84903 0.48745 0.34832 0.0
C1693 C 0.84188 0.5204 0.32754 0.0
C1694 C 0.88787 0.55441 0.3672 0.0
C1695 C 0.89692 0.52092 0.38636 0.0
N1696 N 0.88164 0.45718 0.40036 0.0
N1697 N 0.85455 0.58503 0.31578 0.0
C1698 C 0.876 0.48794 0.37851 0.0
C1699 C 0.86098 0.55395 0.33699 0.0
N1700 N 0.83153 0.45519 0.33765 0.0
N1701 N 0.90392 0.58693 0.37901 0.0
H1702 H 0.83351 0.58628 0.29502 0.0
H1703 H 0.87085 0.60913 0.31745 0.0
H1704 H 0.92407 0.58812 0.40057 0.0
H1705 H 0.8958 0.61303 0.36941 0.0
H1706 H 0.83858 0.4291 0.34808 0.0
H1707 H 0.81059 0.45421 0.31679 0.0
H1708 H 0.86463 0.43353 0.39937 0.0
H1709 H 0.90232 0.45598 0.4214 0.0
C1710 C 0.54159 0.85633 0.33447 0.0
C1711 C 0.51666 0.82596 0.34165 0.0
C1712 C 0.49658 0.85516 0.4005 0.0
C1713 C 0.51862 0.88762 0.39196 0.0
N1714 N 0.56198 0.91892 0.34926 0.0
N1715 N 0.4859 0.78961 0.38927 0.0
C1716 C 0.54118 0.88811 0.35852 0.0
C1717 C 0.49901 0.82329 0.37716 0.0
N1718 N 0.56828 0.85316 0.30674 0.0
N1719 N 0.47067 0.85558 0.42917 0.0
H1720 H 0.49 0.76542 0.37377 0.0
H1721 H 0.47592 0.78481 0.41641 0.0
H1722 H 0.46546 0.87888 0.44536 0.0
H1723 H 0.451 0.83437 0.43403 0.0
H1724 H 0.58937 0.87279 0.30108 0.0
H1725 H 0.57318 0.82817 0.29316 0.0
H1726 H 0.57413 0.92329 0.32296 0.0
H1727 H 0.56588 0.94131 0.36711 0.0
C1728 C 0.19313 0.48095 0.35517 0.0
C1729 C 0.21418 0.51393 0.34762 0.0
C1730 C 0.16239 0.54943 0.37797 0.0
C1731 C 0.14653 0.51608 0.39221 0.0
N1732 N 0.15173 0.44969 0.39951 0.0
N1733 N 0.21938 0.58054 0.35541 0.0
C1734 C 0.16326 0.48167 0.38227 0.0
C1735 C 0.19877 0.54858 0.35971 0.0
N1736 N 0.20053 0.4492 0.33571 0.0
N1737 N 0.14275 0.58192 0.38187 0.0
H1738 H 0.24593 0.5817 0.34216 0.0
H1739 H 0.21136 0.60558 0.36761 0.0
H1740 H 0.11594 0.58316 0.39472 0.0
H1741 H 0.15119 0.60664 0.36909 0.0
H1742 H 0.18397 0.42529 0.33867 0.0
H1743 H 0.2193 0.4484 0.31299 0.0
H1744 H 0.16574 0.42444 0.39577 0.0
H1745 H 0.13019 0.44907 0.41977 0.0
C1746 C 0.55646 0.16689 0.33849 0.0
C1747 C 0.52385 0.18933 0.33142 0.0
C1748 C 0.49158 0.15981 0.38508 0.0
C1749 C 0.52137 0.13279 0.38758 0.0
N1750 N 0.58158 0.10962 0.36412 0.0
N1751 N 0.45894 0.2056 0.34642 0.0
C1752 C 0.5537 0.13613 0.36359 0.0
C1753 C 0.49116 0.1857 0.35462 0.0
N1754 N 0.5902 0.17519 0.32096 0.0
N1755 N 0.46361 0.16095 0.41175 0.0
H1756 H 0.45822 0.22566 0.32527 0.0
H1757 H 0.43253 0.20074 0.35911 0.0
H1758 H 0.46194 0.14191 0.43364 0.0
H1759 H 0.44384 0.18247 0.41378 0.0
H1760 H 0.61606 0.16222 0.32727 0.0
H1761 H 0.59294 0.19781 0.30278 0.0
H1762 H 0.60341 0.10818 0.34427 0.0
H1763 H 0.58143 0.0874 0.38283 0.0
C1764 C 0.68648 0.85415 0.55031 0.0
C1765 C 0.69469 0.83294 0.51785 0.0
C1766 C 0.64418 0.86661 0.48356 0.0
C1767 C 0.63982 0.89115 0.5145 0.0
N1768 N 0.65965 0.91049 0.57624 0.0
N1769 N 0.68374 0.8207 0.45232 0.0
C1770 C 0.66172 0.88546 0.54762 0.0
C1771 C 0.67379 0.83928 0.48424 0.0
N1772 N 0.7024 0.84402 0.58384 0.0
N1773 N 0.62034 0.86966 0.45327 0.0
H1774 H 0.70432 0.79978 0.45198 0.0
H1775 H 0.67326 0.82739 0.4258 0.0
H1776 H 0.60012 0.89071 0.45046 0.0
H1777 H 0.61898 0.85007 0.4319 0.0
H1778 H 0.69497 0.85595 0.60939 0.0
H1779 H 0.72039 0.82105 0.58648 0.0
H1780 H 0.67799 0.91029 0.59927 0.0
H1781 H 0.64133 0.93326 0.57566 0.0
C1782 C 0.69247 0.16862 0.53532 0.0
C1783 C 0.69843 0.1897 0.50219 0.0
C1784 C 0.64395 0.15728 0.47272 0.0
C1785 C 0.64153 0.13281 0.50421 0.0
N1786 N 0.66845 0.11201 0.56303 0.0
N1787 N 0.68193 0.20252 0.43797 0.0
C1788 C 0.66716 0.13765 0.53482 0.0
C1789 C 0.67441 0.18391 0.4706 0.0
N1790 N 0.71108 0.17847 0.56755 0.0
N1791 N 0.61765 0.15466 0.44446 0.0
H1792 H 0.70304 0.22293 0.43601 0.0
H1793 H 0.66883 0.19645 0.41248 0.0
H1794 H 0.59703 0.13381 0.44336 0.0
H1795 H 0.61505 0.17415 0.42298 0.0
H1796 H 0.7053 0.16656 0.59361 0.0
H1797 H 0.72944 0.20129 0.56887 0.0
H1798 H 0.68979 0.11155 0.58346 0.0
H1799 H 0.65034 0.08915 0.56417 0.0
C1800 C 0.85985 0.68391 0.54898 0.0
C1801 C 0.82538 0.67621 0.52897 0.0
C1802 C 0.86042 0.62865 0.49312 0.0
C1803 C 0.8921 0.63143 0.51809 0.0
N1804 N 0.91879 0.65874 0.57413 0.0
N1805 N 0.79293 0.6393 0.48209 0.0
C1806 C 0.89114 0.65848 0.54702 0.0
C1807 C 0.82581 0.64818 0.50088 0.0
N1808 N 0.86341 0.71587 0.56917 0.0
N1809 N 0.86376 0.60814 0.46114 0.0
H1810 H 0.76737 0.65391 0.48486 0.0
H1811 H 0.79031 0.61583 0.4653 0.0
H1812 H 0.88875 0.59405 0.4542 0.0
H1813 H 0.84344 0.60819 0.43973 0.0
H1814 H 0.88914 0.72415 0.5814 0.0
H1815 H 0.84249 0.73641 0.5698 0.0
H1816 H 0.91702 0.67502 0.59818 0.0
H1817 H 0.94151 0.64008 0.57464 0.0
C1818 C 0.35904 0.84635 0.54962 0.0
C1819 C 0.34078 0.83301 0.51676 0.0
C1820 C 0.3796 0.87571 0.47819 0.0
C1821 C 0.39728 0.88958 0.51125 0.0
N1822 N 0.41185 0.88061 0.57676 0.0
N1823 N 0.33806 0.82926 0.44955 0.0
C1824 C 0.38951 0.87249 0.54643 0.0
C1825 C 0.35266 0.84588 0.4809 0.0
N1826 N 0.34598 0.83542 0.58409 0.0
N1827 N 0.38859 0.89118 0.44429 0.0
H1828 H 0.31861 0.8073 0.45102 0.0
H1829 H 0.34695 0.835 0.42231 0.0
H1830 H 0.40918 0.91195 0.44136 0.0
H1831 H 0.3751 0.88466 0.41916 0.0
H1832 H 0.35443 0.84788 0.60909 0.0
H1833 H 0.32485 0.81523 0.58759 0.0
H1834 H 0.41067 0.86582 0.60188 0.0
H1835 H 0.43372 0.90027 0.57585 0.0
C1836 C 0.21287 0.38235 0.51401 0.0
C1837 C 0.20786 0.34802 0.49577 0.0
C1838 C 0.145 0.37012 0.47303 0.0
C1839 C 0.14629 0.39964 0.49937 0.0
N1840 N 0.18214 0.43169 0.54776 0.0
N1841 N 0.1715 0.31203 0.45135 0.0
C1842 C 0.18062 0.40545 0.52031 0.0
C1843 C 0.17459 0.34276 0.47323 0.0
N1844 N 0.24871 0.39322 0.52468 0.0
N1845 N 0.11711 0.36956 0.44612 0.0
H1846 H 0.19526 0.2965 0.44372 0.0
H1847 H 0.14575 0.30293 0.43982 0.0
H1848 H 0.09666 0.39037 0.4434 0.0
H1849 H 0.1166 0.35084 0.42394 0.0
H1850 H 0.25468 0.41944 0.53544 0.0
H1851 H 0.27305 0.37786 0.51783 0.0
H1852 H 0.20557 0.43495 0.56552 0.0
H1853 H 0.15867 0.44753 0.55561 0.0
C1854 C 0.35361 0.17839 0.52868 0.0
C1855 C 0.34142 0.1895 0.49241 0.0
C1856 C 0.38201 0.14169 0.46398 0.0
C1857 C 0.39469 0.13081 0.50019 0.0
N1858 N 0.38504 0.13159 0.56696 0.0
N1859 N 0.34902 0.18732 0.42553 0.0
C1860 C 0.37879 0.14749 0.53266 0.0
C1861 C 0.35744 0.17292 0.46006 0.0
N1862 N 0.34088 0.19757 0.55923 0.0
N1863 N 0.3908 0.12018 0.43369 0.0
H1864 H 0.33113 0.21028 0.42216 0.0
H1865 H 0.36242 0.17897 0.40087 0.0
H1866 H 0.40779 0.09651 0.43585 0.0
H1867 H 0.37903 0.12399 0.40712 0.0
H1868 H 0.35103 0.19336 0.58636 0.0
H1869 H 0.3224 0.22019 0.55677 0.0
H1870 H 0.37161 0.13989 0.59159 0.0
H1871 H 0.40161 0.10777 0.57024 0.0
C1872 C 0.82942 0.37535 0.52104 0.0
C1873 C 0.82758 0.34912 0.49124 0.0
C1874 C 0.88936 0.37271 0.46773 0.0
C1875 C 0.89271 0.39708 0.4987 0.0
N1876 N 0.86843 0.41666 0.55869 0.0
N1877 N 0.86336 0.31505 0.4445 0.0
C1878 C 0.86345 0.39679 0.52653 0.0
C1879 C 0.85994 0.34525 0.46726 0.0
N1880 N 0.79822 0.38079 0.54354 0.0
N1881 N 0.9123 0.37747 0.43718 0.0
H1882 H 0.84423 0.29287 0.44514 0.0
H1883 H 0.88789 0.3099 0.42866 0.0
H1884 H 0.93274 0.39851 0.43557 0.0
H1885 H 0.90791 0.36333 0.41206 0.0
H1886 H 0.79584 0.40286 0.56216 0.0
H1887 H 0.77354 0.36459 0.54222 0.0
H1888 H 0.85051 0.41451 0.58194 0.0
H1889 H 0.8925 0.43302 0.56325 0.0
C1890 C 0.20657 0.65139 0.54576 0.0
C1891 C 0.21462 0.67521 0.51472 0.0
C1892 C 0.15645 0.65265 0.48346 0.0
C1893 C 0.14652 0.63111 0.51531 0.0
N1894 N 0.16052 0.6128 0.5789 0.0
N1895 N 0.18876 0.7075 0.46076 0.0
C1896 C 0.17102 0.63164 0.54723 0.0
C1897 C 0.1868 0.67886 0.48582 0.0
N1898 N 0.23354 0.64625 0.57311 0.0
N1899 N 0.13941 0.64583 0.44977 0.0
H1900 H 0.20864 0.72896 0.46306 0.0
H1901 H 0.16746 0.71238 0.44083 0.0
H1902 H 0.11885 0.62514 0.44637 0.0
H1903 H 0.14851 0.65817 0.42481 0.0
H1904 H 0.23177 0.62562 0.59355 0.0
H1905 H 0.25905 0.6612 0.57435 0.0
H1906 H 0.17449 0.61555 0.60454 0.0
H1907 H 0.13604 0.59632 0.5802 0.0
loop_
_geom_bond_atom_site_label_1
_geom_bond_atom_site_label_2
_geom_bond_distance
_geom_bond_site_symmetry_2
_ccdc_geom_bond_type
H0 C7 0.929 . S
H1 C10 0.930 . S
H2 C12 0.929 . S
H3 C4 0.969 1_655 S
C4 H3 0.969 1_455 S
C4 O5 1.550 . S
C4 H6 0.973 . S
O5 C4 1.550 . S
O5 C11 1.412 . S
H6 C4 0.973 . S
C7 H0 0.929 . S
C7 C8 1.400 . S
C7 C9 1.364 . S
C8 C7 1.400 . S
C8 C12 1.377 . S
C9 C7 1.364 . S
C9 C10 1.374 . S
C10 H1 0.930 . S
C10 C9 1.374 . S
C10 C11 1.383 . S
C11 O5 1.412 . S
C11 C10 1.383 . S
C11 C12 1.394 . S
C12 H2 0.929 . S
C12 C8 1.377 . S
C12 C11 1.394 . S
H13 C20 0.928 1_565 S
H14 C23 0.931 1_565 S
H15 C25 0.928 1_565 S
H16 C17 0.969 . S
C17 H16 0.969 . S
C17 O18 1.550 1_545 S
C17 H19 0.973 1_545 S
O18 C17 1.550 1_565 S
O18 C24 1.412 1_565 S
H19 C17 0.973 1_565 S
C20 H13 0.928 1_545 S
C20 C21 1.400 . S
C20 C22 1.364 . S
C21 C20 1.400 . S
C21 C25 1.377 . S
C22 C20 1.364 . S
C22 C23 1.374 . S
C23 H14 0.931 1_545 S
C23 C22 1.374 . S
C23 C24 1.383 . S
C24 O18 1.412 1_545 S
C24 C23 1.383 . S
C24 C25 1.395 . S
C25 H15 0.928 1_545 S
C25 C21 1.377 . S
C25 C24 1.395 . S
H26 C33 0.929 . S
H27 C36 0.930 . S
H28 C38 0.929 . S
H29 C30 0.969 1_655 S
C30 H29 0.969 1_455 S
C30 O31 1.550 . S
C30 H32 0.973 . S
O31 C30 1.550 . S
O31 C37 1.412 . S
H32 C30 0.973 . S
C33 H26 0.929 . S
C33 C34 1.400 . S
C33 C35 1.364 . S
C34 C33 1.400 . S
C34 C38 1.377 . S
C35 C33 1.364 . S
C35 C36 1.374 . S
C36 H27 0.930 . S
C36 C35 1.374 . S
C36 C37 1.383 . S
C37 O31 1.412 . S
C37 C36 1.383 . S
C37 C38 1.394 . S
C38 H28 0.929 . S
C38 C34 1.377 . S
C38 C37 1.394 . S
H39 C46 0.928 . S
H40 C49 0.930 1_565 S
H41 C51 0.928 1_565 S
H42 C43 0.969 . S
C43 H42 0.969 . S
C43 O44 1.550 1_545 S
C43 H45 0.973 1_545 S
O44 C43 1.550 1_565 S
O44 C50 1.412 1_565 S
H45 C43 0.973 1_565 S
C46 H39 0.928 . S
C46 C47 1.400 . S
C46 C48 1.364 . S
C47 C46 1.400 . S
C47 C51 1.377 . S
C48 C46 1.364 . S
C48 C49 1.374 . S
C49 H40 0.930 1_545 S
C49 C48 1.374 . S
C49 C50 1.383 . S
C50 O44 1.412 1_545 S
C50 C49 1.383 . S
C50 C51 1.395 . S
C51 H41 0.928 1_545 S
C51 C47 1.377 . S
C51 C50 1.395 . S
H52 C59 0.929 . S
H53 C62 0.930 . S
H54 C64 0.929 . S
H55 C56 0.969 1_655 S
C56 H55 0.969 1_455 S
C56 O57 1.550 . S
C56 H58 0.973 . S
O57 C56 1.550 . S
O57 C63 1.412 . S
H58 C56 0.973 . S
C59 H52 0.929 . S
C59 C60 1.400 . S
C59 C61 1.364 . S
C60 C59 1.400 . S
C60 C64 1.377 . S
C61 C59 1.364 . S
C61 C62 1.374 . S
C62 H53 0.930 . S
C62 C61 1.374 . S
C62 C63 1.383 . S
C63 O57 1.412 . S
C63 C62 1.383 . S
C63 C64 1.394 . S
C64 H54 0.929 . S
C64 C60 1.377 . S
C64 C63 1.394 . S
H65 C72 0.928 . S
H66 C75 0.931 . S
H67 C77 0.928 . S
H68 C69 0.969 . S
C69 H68 0.969 . S
C69 O70 1.550 1_565 S
C69 H71 0.973 1_565 S
O70 C69 1.550 1_545 S
O70 C76 1.405 1_545 S
H71 C69 0.973 1_545 S
C72 H65 0.928 . S
C72 C73 1.400 1_545 S
C72 C74 1.364 1_545 S
C73 C72 1.400 1_565 S
C73 C77 1.377 1_565 S
C74 C72 1.364 1_565 S
C74 C75 1.374 1_565 S
C75 H66 0.931 . S
C75 C74 1.374 1_545 S
C75 C76 1.382 1_545 S
C76 O70 1.405 1_565 S
C76 C75 1.382 1_565 S
C76 C77 1.394 1_565 S
C77 H67 0.928 . S
C77 C73 1.377 1_545 S
C77 C76 1.394 1_545 S
H78 C85 0.929 . S
H79 C88 0.930 . S
H80 C90 0.929 . S
H81 C82 0.969 1_655 S
C82 H81 0.969 1_455 S
C82 O83 1.550 . S
C82 H84 0.973 . S
O83 C82 1.550 . S
O83 C89 1.412 . S
H84 C82 0.973 . S
C85 H78 0.929 . S
C85 C86 1.400 . S
C85 C87 1.364 . S
C86 C85 1.400 . S
C86 C90 1.377 . S
C87 C85 1.364 . S
C87 C88 1.374 . S
C88 H79 0.930 . S
C88 C87 1.374 . S
C88 C89 1.383 . S
C89 O83 1.412 . S
C89 C88 1.383 . S
C89 C90 1.394 . S
C90 H80 0.929 . S
C90 C86 1.377 . S
C90 C89 1.394 . S
H91 C98 0.928 . S
H92 C101 0.931 . S
H93 C103 0.928 . S
H94 C95 0.969 . S
C95 H94 0.969 . S
C95 O96 1.550 1_565 S
C95 H97 0.973 1_565 S
O96 C95 1.550 1_545 S
O96 C102 1.406 1_545 S
H97 C95 0.973 1_545 S
C98 H91 0.928 . S
C98 C99 1.400 1_545 S
C98 C100 1.364 . S
C99 C98 1.400 1_565 S
C99 C103 1.377 1_565 S
C100 C98 1.364 . S
C100 C101 1.374 . S
C101 H92 0.931 . S
C101 C100 1.374 . S
C101 C102 1.382 1_545 S
C102 O96 1.406 1_565 S
C102 C101 1.382 1_565 S
C102 C103 1.394 1_565 S
C103 H93 0.928 . S
C103 C99 1.377 1_545 S
C103 C102 1.394 1_545 S
H104 C111 0.928 . S
H105 C114 0.930 1_556 S
H106 C116 0.928 1_556 S
H107 C108 0.969 . S
C108 H107 0.969 . S
C108 O109 1.550 1_554 S
C108 H110 0.973 1_554 S
O109 C108 1.550 1_556 S
O109 C115 1.412 1_556 S
H110 C108 0.973 1_556 S
C111 H104 0.928 . S
C111 C112 1.400 . S
C111 C113 1.364 . S
C112 C111 1.400 . S
C112 C116 1.377 . S
C113 C111 1.364 . S
C113 C114 1.374 . S
C114 H105 0.930 1_554 S
C114 C113 1.374 . S
C114 C115 1.383 . S
C115 O109 1.412 1_554 S
C115 C114 1.383 . S
C115 C116 1.395 . S
C116 H106 0.928 1_554 S
C116 C112 1.377 . S
C116 C115 1.395 . S
H117 C124 0.928 . S
H118 C127 0.931 . S
H119 C129 0.928 . S
H120 C121 0.969 . S
C121 H120 0.969 . S
C121 O122 1.550 1_556 S
C121 H123 0.973 1_556 S
O122 C121 1.550 1_554 S
O122 C128 1.405 1_554 S
H123 C121 0.973 1_554 S
C124 H117 0.928 . S
C124 C125 1.400 1_554 S
C124 C126 1.364 1_554 S
C125 C124 1.400 1_556 S
C125 C129 1.377 1_556 S
C126 C124 1.364 1_556 S
C126 C127 1.374 1_556 S
C127 H118 0.931 . S
C127 C126 1.374 1_554 S
C127 C128 1.382 1_554 S
C128 O122 1.405 1_556 S
C128 C127 1.382 1_556 S
C128 C129 1.394 1_556 S
C129 H119 0.928 . S
C129 C125 1.377 1_554 S
C129 C128 1.394 1_554 S
H130 C137 0.928 . S
H131 C140 0.931 . S
H132 C142 0.928 . S
H133 C134 0.969 . S
C134 H133 0.969 . S
C134 O135 1.550 1_556 S
C134 H136 0.973 1_556 S
O135 C134 1.550 1_554 S
O135 C141 1.406 1_554 S
H136 C134 0.973 1_554 S
C137 H130 0.928 . S
C137 C138 1.400 1_554 S
C137 C139 1.364 . S
C138 C137 1.400 1_556 S
C138 C142 1.377 1_556 S
C139 C137 1.364 . S
C139 C140 1.374 . S
C140 H131 0.931 . S
C140 C139 1.374 . S
C140 C141 1.382 1_554 S
C141 O135 1.406 1_556 S
C141 C140 1.382 1_556 S
C141 C142 1.394 1_556 S
C142 H132 0.928 . S
C142 C138 1.377 1_554 S
C142 C141 1.394 1_554 S
H143 C150 0.928 . S
H144 C153 0.931 1_556 S
H145 C155 0.928 1_556 S
H146 C147 0.969 . S
C147 H146 0.969 . S
C147 O148 1.550 1_554 S
C147 H149 0.973 1_554 S
O148 C147 1.550 1_556 S
O148 C154 1.412 1_556 S
H149 C147 0.973 1_556 S
C150 H143 0.928 . S
C150 C151 1.400 . S
C150 C152 1.364 . S
C151 C150 1.400 . S
C151 C155 1.377 . S
C152 C150 1.364 . S
C152 C153 1.374 . S
C153 H144 0.931 1_554 S
C153 C152 1.374 . S
C153 C154 1.383 . S
C154 O148 1.412 1_554 S
C154 C153 1.383 . S
C154 C155 1.395 . S
C155 H145 0.928 1_554 S
C155 C151 1.377 . S
C155 C154 1.395 . S
H156 C163 0.929 . S
H157 C166 0.930 . S
H158 C168 0.929 . S
H159 C160 0.969 . S
C160 H159 0.969 . S
C160 O161 1.550 . S
C160 H162 0.973 . S
O161 C160 1.550 . S
O161 C167 1.412 . S
H162 C160 0.973 . S
C163 H156 0.929 . S
C163 C164 1.400 . S
C163 C165 1.364 . S
C164 C163 1.400 . S
C164 C168 1.377 . S
C165 C163 1.364 . S
C165 C166 1.374 . S
C166 H157 0.930 . S
C166 C165 1.374 . S
C166 C167 1.383 . S
C167 O161 1.412 . S
C167 C166 1.383 . S
C167 C168 1.394 . S
C168 H158 0.929 . S
C168 C164 1.377 . S
C168 C167 1.394 . S
H169 C176 0.929 . S
H170 C179 0.930 . S
H171 C181 0.929 . S
H172 C173 0.969 . S
C173 H172 0.969 . S
C173 O174 1.550 . S
C173 H175 0.973 . S
O174 C173 1.550 . S
O174 C180 1.412 . S
H175 C173 0.973 . S
C176 H169 0.929 . S
C176 C177 1.400 . S
C176 C178 1.364 . S
C177 C176 1.400 . S
C177 C181 1.377 . S
C178 C176 1.364 . S
C178 C179 1.374 . S
C179 H170 0.930 . S
C179 C178 1.374 . S
C179 C180 1.383 . S
C180 O174 1.412 . S
C180 C179 1.383 . S
C180 C181 1.394 . S
C181 H171 0.929 . S
C181 C177 1.377 . S
C181 C180 1.394 . S
H182 C189 0.929 . S
H183 C192 0.930 . S
H184 C194 0.929 . S
H185 C186 0.969 . S
C186 H185 0.969 . S
C186 O187 1.550 . S
C186 H188 0.973 . S
O187 C186 1.550 . S
O187 C193 1.412 . S
H188 C186 0.973 . S
C189 H182 0.929 . S
C189 C190 1.400 . S
C189 C191 1.364 . S
C190 C189 1.400 . S
C190 C194 1.377 . S
C191 C189 1.364 . S
C191 C192 1.374 . S
C192 H183 0.930 . S
C192 C191 1.374 . S
C192 C193 1.383 . S
C193 O187 1.412 . S
C193 C192 1.383 . S
C193 C194 1.394 . S
C194 H184 0.929 . S
C194 C190 1.377 . S
C194 C193 1.394 . S
H195 C202 0.929 . S
H196 C205 0.930 . S
H197 C207 0.929 . S
H198 C199 0.969 . S
C199 H198 0.969 . S
C199 O200 1.550 . S
C199 H201 0.973 . S
O200 C199 1.550 . S
O200 C206 1.412 . S
H201 C199 0.973 . S
C202 H195 0.929 . S
C202 C203 1.400 . S
C202 C204 1.364 . S
C203 C202 1.400 . S
C203 C207 1.377 . S
C204 C202 1.364 . S
C204 C205 1.374 . S
C205 H196 0.930 . S
C205 C204 1.374 . S
C205 C206 1.383 . S
C206 O200 1.412 . S
C206 C205 1.383 . S
C206 C207 1.394 . S
C207 H197 0.929 . S
C207 C203 1.377 . S
C207 C206 1.394 . S
H208 C215 0.929 . S
H209 C218 0.930 . S
H210 C220 0.929 . S
H211 C212 0.969 . S
C212 H211 0.969 . S
C212 O213 1.550 . S
C212 H214 0.973 . S
O213 C212 1.550 . S
O213 C219 1.412 . S
H214 C212 0.973 . S
C215 H208 0.929 . S
C215 C216 1.400 . S
C215 C217 1.364 . S
C216 C215 1.400 . S
C216 C220 1.377 . S
C217 C215 1.364 . S
C217 C218 1.374 . S
C218 H209 0.930 . S
C218 C217 1.374 . S
C218 C219 1.383 . S
C219 O213 1.412 . S
C219 C218 1.383 . S
C219 C220 1.394 . S
C220 H210 0.929 . S
C220 C216 1.377 . S
C220 C219 1.394 . S
H221 C228 0.929 . S
H222 C231 0.930 . S
H223 C233 0.929 . S
H224 C225 0.969 . S
C225 H224 0.969 . S
C225 O226 1.550 . S
C225 H227 0.973 . S
O226 C225 1.550 . S
O226 C232 1.412 . S
H227 C225 0.973 . S
C228 H221 0.929 . S
C228 C229 1.400 . S
C228 C230 1.364 . S
C229 C228 1.400 . S
C229 C233 1.377 . S
C230 C228 1.364 . S
C230 C231 1.374 . S
C231 H222 0.930 . S
C231 C230 1.374 . S
C231 C232 1.383 . S
C232 O226 1.412 . S
C232 C231 1.383 . S
C232 C233 1.394 . S
C233 H223 0.929 . S
C233 C229 1.377 . S
C233 C232 1.394 . S
H234 C241 0.929 . S
H235 C244 0.930 . S
H236 C246 0.929 . S
H237 C238 0.969 . S
C238 H237 0.969 . S
C238 O239 1.550 . S
C238 H240 0.973 . S
O239 C238 1.550 . S
O239 C245 1.412 . S
H240 C238 0.973 . S
C241 H234 0.929 . S
C241 C242 1.400 . S
C241 C243 1.364 . S
C242 C241 1.400 . S
C242 C246 1.377 . S
C243 C241 1.364 . S
C243 C244 1.374 . S
C244 H235 0.930 . S
C244 C243 1.374 . S
C244 C245 1.383 . S
C245 O239 1.412 . S
C245 C244 1.383 . S
C245 C246 1.394 . S
C246 H236 0.929 . S
C246 C242 1.377 . S
C246 C245 1.394 . S
H247 C254 0.929 . S
H248 C257 0.930 . S
H249 C259 0.929 . S
H250 C251 0.969 . S
C251 H250 0.969 . S
C251 O252 1.550 . S
C251 H253 0.973 . S
O252 C251 1.550 . S
O252 C258 1.412 . S
H253 C251 0.973 . S
C254 H247 0.929 . S
C254 C255 1.400 . S
C254 C256 1.364 . S
C255 C254 1.400 . S
C255 C259 1.377 . S
C256 C254 1.364 . S
C256 C257 1.374 . S
C257 H248 0.930 . S
C257 C256 1.374 . S
C257 C258 1.383 . S
C258 O252 1.412 . S
C258 C257 1.383 . S
C258 C259 1.394 . S
C259 H249 0.929 . S
C259 C255 1.377 . S
C259 C258 1.394 . S
H260 C267 0.929 . S
H261 C270 0.930 . S
H262 C272 0.929 . S
H263 C264 0.969 . S
C264 H263 0.969 . S
C264 O265 1.550 . S
C264 H266 0.973 . S
O265 C264 1.550 . S
O265 C271 1.412 . S
H266 C264 0.973 . S
C267 H260 0.929 . S
C267 C268 1.400 . S
C267 C269 1.364 . S
C268 C267 1.400 . S
C268 C272 1.377 . S
C269 C267 1.364 . S
C269 C270 1.374 . S
C270 H261 0.930 . S
C270 C269 1.374 . S
C270 C271 1.383 . S
C271 O265 1.412 . S
C271 C270 1.383 . S
C271 C272 1.394 . S
C272 H262 0.929 . S
C272 C268 1.377 . S
C272 C271 1.394 . S
H273 C280 0.929 . S
H274 C283 0.930 . S
H275 C285 0.929 . S
H276 C277 0.969 . S
C277 H276 0.969 . S
C277 O278 1.550 . S
C277 H279 0.973 . S
O278 C277 1.550 . S
O278 C284 1.412 . S
H279 C277 0.973 . S
C280 H273 0.929 . S
C280 C281 1.400 . S
C280 C282 1.364 . S
C281 C280 1.400 . S
C281 C285 1.377 . S
C282 C280 1.364 . S
C282 C283 1.374 . S
C283 H274 0.930 . S
C283 C282 1.374 . S
C283 C284 1.383 . S
C284 O278 1.412 . S
C284 C283 1.383 . S
C284 C285 1.394 . S
C285 H275 0.929 . S
C285 C281 1.377 . S
C285 C284 1.394 . S
H286 C293 0.929 . S
H287 C296 0.930 . S
H288 C298 0.929 . S
H289 C290 0.969 . S
C290 H289 0.969 . S
C290 O291 1.550 . S
C290 H292 0.973 . S
O291 C290 1.550 . S
O291 C297 1.412 . S
H292 C290 0.973 . S
C293 H286 0.929 . S
C293 C294 1.400 . S
C293 C295 1.364 . S
C294 C293 1.400 . S
C294 C298 1.377 . S
C295 C293 1.364 . S
C295 C296 1.374 . S
C296 H287 0.930 . S
C296 C295 1.374 . S
C296 C297 1.383 . S
C297 O291 1.412 . S
C297 C296 1.383 . S
C297 C298 1.394 . S
C298 H288 0.929 . S
C298 C294 1.377 . S
C298 C297 1.394 . S
H299 C306 0.929 . S
H300 C309 0.930 . S
H301 C311 0.929 . S
H302 C303 0.969 . S
C303 H302 0.969 . S
C303 O304 1.550 . S
C303 H305 0.973 . S
O304 C303 1.550 . S
O304 C310 1.412 . S
H305 C303 0.973 . S
C306 H299 0.929 . S
C306 C307 1.400 . S
C306 C308 1.364 . S
C307 C306 1.400 . S
C307 C311 1.377 . S
C308 C306 1.364 . S
C308 C309 1.374 . S
C309 H300 0.930 . S
C309 C308 1.374 . S
C309 C310 1.383 . S
C310 O304 1.412 . S
C310 C309 1.383 . S
C310 C311 1.394 . S
C311 H301 0.929 . S
C311 C307 1.377 . S
C311 C310 1.394 . S
C312 O338 1.283 . S
C312 O356 1.283 . S
C313 O339 1.283 . S
C313 O354 1.283 . S
C314 O340 1.283 . S
C314 O357 1.283 . S
C315 O341 1.283 . S
C315 O355 1.283 . S
C316 O342 1.283 . S
C316 O351 1.283 . S
C317 O343 1.283 . S
C317 O353 1.283 . S
C318 O344 1.283 . S
C318 O350 1.283 . S
C319 O345 1.283 . S
C319 O352 1.283 . S
C320 O346 1.283 . S
C320 O361 1.283 . S
C321 O347 1.283 . S
C321 O359 1.283 . S
C322 O348 1.283 . S
C322 O360 1.283 . S
C323 O349 1.283 . S
C323 O358 1.283 . S
Eu324 O325 2.370 1_455 S
Eu324 O326 2.370 . S
Eu324 O329 2.370 1_455 S
Eu324 O330 2.370 . S
Eu324 O338 2.363 . S
Eu324 O339 2.363 . S
Eu324 O352 2.363 . S
Eu324 O353 2.363 1_455 S
O325 Eu324 2.370 1_655 S
O325 Eu327 2.366 1_565 S
O325 Eu332 2.367 1_665 S
O326 Eu324 2.370 . S
O326 Eu328 2.366 1_565 S
O326 Eu331 2.366 1_565 S
Eu327 O325 2.366 1_545 S
Eu327 O329 2.366 1_545 S
Eu327 O333 2.374 . S
Eu327 O334 2.374 . S
Eu327 O342 2.369 . S
Eu327 O343 2.357 1_545 S
Eu327 O358 2.363 . S
Eu327 O359 2.363 . S
Eu328 O326 2.366 1_545 S
Eu328 O330 2.366 1_545 S
Eu328 O335 2.374 . S
Eu328 O336 2.374 . S
Eu328 O344 2.369 . S
Eu328 O345 2.357 1_545 S
Eu328 O360 2.363 . S
Eu328 O361 2.363 . S
O329 Eu324 2.370 1_655 S
O329 Eu327 2.366 1_565 S
O329 Eu331 2.366 1_665 S
O330 Eu324 2.370 . S
O330 Eu328 2.366 1_565 S
O330 Eu332 2.367 1_565 S
Eu331 O326 2.366 1_545 S
Eu331 O329 2.366 1_445 S
Eu331 O333 2.374 1_455 S
Eu331 O336 2.374 . S
Eu331 O348 2.363 . S
Eu331 O349 2.363 1_455 S
Eu331 O356 2.356 1_545 S
Eu331 O357 2.370 . S
Eu332 O325 2.367 1_445 S
Eu332 O330 2.367 1_545 S
Eu332 O334 2.373 1_455 S
Eu332 O335 2.373 . S
Eu332 O346 2.363 . S
Eu332 O347 2.363 1_455 S
Eu332 O354 2.357 1_545 S
Eu332 O355 2.369 . S
O333 Eu327 2.374 . S
O333 Eu331 2.374 1_655 S
O333 Eu337 2.370 1_655 S
O334 Eu327 2.374 . S
O334 Eu332 2.373 1_655 S
O334 Eu337 2.370 1_655 S
O335 Eu328 2.374 . S
O335 Eu332 2.373 . S
O335 Eu337 2.370 . S
O336 Eu328 2.374 . S
O336 Eu331 2.374 . S
O336 Eu337 2.370 . S
Eu337 O333 2.370 1_455 S
Eu337 O334 2.370 1_455 S
Eu337 O335 2.370 . S
Eu337 O336 2.370 . S
Eu337 O340 2.363 . S
Eu337 O341 2.363 . S
Eu337 O350 2.363 . S
Eu337 O351 2.363 1_455 S
O338 C312 1.283 . S
O338 Eu324 2.363 . S
O339 C313 1.283 . S
O339 Eu324 2.363 . S
O340 C314 1.283 . S
O340 Eu337 2.363 . S
O341 C315 1.283 . S
O341 Eu337 2.363 . S
O342 C316 1.283 . S
O342 Eu327 2.369 . S
O343 C317 1.283 . S
O343 Eu327 2.357 1_565 S
O344 C318 1.283 . S
O344 Eu328 2.369 . S
O345 C319 1.283 . S
O345 Eu328 2.357 1_565 S
O346 C320 1.283 . S
O346 Eu332 2.363 . S
O347 C321 1.283 . S
O347 Eu332 2.363 1_655 S
O348 C322 1.283 . S
O348 Eu331 2.363 . S
O349 C323 1.283 . S
O349 Eu331 2.363 1_655 S
O350 C318 1.283 . S
O350 Eu337 2.363 . S
O351 C316 1.283 . S
O351 Eu337 2.363 1_655 S
O352 C319 1.283 . S
O352 Eu324 2.363 . S
O353 C317 1.283 . S
O353 Eu324 2.363 1_655 S
O354 C313 1.283 . S
O354 Eu332 2.357 1_565 S
O355 C315 1.283 . S
O355 Eu332 2.369 . S
O356 C312 1.283 . S
O356 Eu331 2.356 1_565 S
O357 C314 1.283 . S
O357 Eu331 2.370 . S
O358 C323 1.283 . S
O358 Eu327 2.363 . S
O359 C321 1.283 . S
O359 Eu327 2.363 . S
O360 C322 1.283 . S
O360 Eu328 2.363 . S
O361 C320 1.283 . S
O361 Eu328 2.363 . S
C362 O388 1.283 . S
C362 O406 1.283 . S
C363 O389 1.283 . S
C363 O404 1.283 . S
C364 O390 1.283 . S
C364 O407 1.283 . S
C365 O391 1.283 . S
C365 O405 1.283 . S
C366 O392 1.283 . S
C366 O401 1.283 . S
C367 O393 1.283 . S
C367 O403 1.283 . S
C368 O394 1.283 . S
C368 O400 1.283 . S
C369 O395 1.283 . S
C369 O402 1.283 . S
C370 O396 1.283 . S
C370 O411 1.283 . S
C371 O397 1.283 . S
C371 O409 1.283 . S
C372 O398 1.283 . S
C372 O410 1.283 . S
C373 O399 1.283 . S
C373 O408 1.283 . S
Eu374 O375 2.370 . S
Eu374 O376 2.370 1_545 S
Eu374 O379 2.370 1_545 S
Eu374 O380 2.370 . S
Eu374 O388 2.364 1_545 S
Eu374 O389 2.362 . S
Eu374 O402 2.363 . S
Eu374 O403 2.363 . S
O375 Eu374 2.370 . S
O375 Eu377 2.378 . S
O375 Eu382 2.378 . S
O376 Eu374 2.370 1_565 S
O376 Eu378 2.370 1_565 S
O376 Eu381 2.370 . S
Eu377 O375 2.378 . S
Eu377 O379 2.370 1_545 S
Eu377 O383 2.363 1_544 S
Eu377 O384 2.370 1_554 S
Eu377 O392 2.357 1_554 S
Eu377 O393 2.369 . S
Eu377 O408 2.357 1_545 S
Eu377 O409 2.369 . S
Eu378 O376 2.370 1_545 S
Eu378 O380 2.378 . S
Eu378 O385 2.370 1_554 S
Eu378 O386 2.363 1_544 S
Eu378 O394 2.357 1_554 S
Eu378 O395 2.369 . S
Eu378 O410 2.357 1_545 S
Eu378 O411 2.369 . S
O379 Eu374 2.370 1_565 S
O379 Eu377 2.370 1_565 S
O379 Eu381 2.370 . S
O380 Eu374 2.370 . S
O380 Eu378 2.378 . S
O380 Eu382 2.378 . S
Eu381 O376 2.370 . S
Eu381 O379 2.370 . S
Eu381 O383 2.371 1_554 S
Eu381 O386 2.371 1_554 S
Eu381 O398 2.363 . S
Eu381 O399 2.363 . S
Eu381 O406 2.362 . S
Eu381 O407 2.364 1_554 S
Eu382 O375 2.378 . S
Eu382 O380 2.378 . S
Eu382 O384 2.362 1_554 S
Eu382 O385 2.362 1_554 S
Eu382 O396 2.363 . S
Eu382 O397 2.363 . S
Eu382 O404 2.377 . S
Eu382 O405 2.349 1_554 S
O383 Eu377 2.363 1_566 S
O383 Eu381 2.371 1_556 S
O383 Eu387 2.362 1_565 S
O384 Eu377 2.370 1_556 S
O384 Eu382 2.362 1_556 S
O384 Eu387 2.378 . S
O385 Eu378 2.370 1_556 S
O385 Eu382 2.362 1_556 S
O385 Eu387 2.378 . S
O386 Eu378 2.363 1_566 S
O386 Eu381 2.371 1_556 S
O386 Eu387 2.362 1_565 S
Eu387 O383 2.362 1_545 S
Eu387 O384 2.378 . S
Eu387 O385 2.378 . S
Eu387 O386 2.362 1_545 S
Eu387 O390 2.350 1_545 S
Eu387 O391 2.376 . S
Eu387 O400 2.363 . S
Eu387 O401 2.363 . S
O388 C362 1.283 . S
O388 Eu374 2.364 1_565 S
O389 C363 1.283 . S
O389 Eu374 2.362 . S
O390 C364 1.283 . S
O390 Eu387 2.350 1_565 S
O391 C365 1.283 . S
O391 Eu387 2.376 . S
O392 C366 1.283 . S
O392 Eu377 2.357 1_556 S
O393 C367 1.283 . S
O393 Eu377 2.369 . S
O394 C368 1.283 . S
O394 Eu378 2.357 1_556 S
O395 C369 1.283 . S
O395 Eu378 2.369 . S
O396 C370 1.283 . S
O396 Eu382 2.363 . S
O397 C371 1.283 . S
O397 Eu382 2.363 . S
O398 C372 1.283 . S
O398 Eu381 2.363 . S
O399 C373 1.283 . S
O399 Eu381 2.363 . S
O400 C368 1.283 . S
O400 Eu387 2.363 . S
O401 C366 1.283 . S
O401 Eu387 2.363 . S
O402 C369 1.283 . S
O402 Eu374 2.363 . S
O403 C367 1.283 . S
O403 Eu374 2.363 . S
O404 C363 1.283 . S
O404 Eu382 2.377 . S
O405 C365 1.283 . S
O405 Eu382 2.349 1_556 S
O406 C362 1.283 . S
O406 Eu381 2.362 . S
O407 C364 1.283 . S
O407 Eu381 2.364 1_556 S
O408 C373 1.283 . S
O408 Eu377 2.357 1_565 S
O409 C371 1.283 . S
O409 Eu377 2.369 . S
O410 C372 1.283 . S
O410 Eu378 2.357 1_565 S
O411 C370 1.283 . S
O411 Eu378 2.369 . S
C412 O438 1.283 . S
C412 O456 1.283 . S
C413 O439 1.283 . S
C413 O454 1.283 . S
C414 O440 1.283 . S
C414 O457 1.283 . S
C415 O441 1.283 . S
C415 O455 1.283 . S
C416 O442 1.283 . S
C416 O451 1.283 . S
C417 O443 1.283 . S
C417 O453 1.283 . S
C418 O444 1.283 . S
C418 O450 1.283 . S
C419 O445 1.283 . S
C419 O452 1.283 . S
C420 O446 1.283 . S
C420 O461 1.283 . S
C421 O447 1.283 . S
C421 O459 1.283 . S
C422 O448 1.283 . S
C422 O460 1.283 . S
C423 O449 1.283 . S
C423 O458 1.283 . S
Eu424 O425 2.366 1_454 S
Eu424 O426 2.374 . S
Eu424 O429 2.374 1_455 S
Eu424 O430 2.366 1_554 S
Eu424 O438 2.370 . S
Eu424 O439 2.356 1_554 S
Eu424 O452 2.363 . S
Eu424 O453 2.363 1_455 S
O425 Eu424 2.366 1_656 S
O425 Eu427 2.366 1_556 S
O425 Eu432 2.370 1_655 S
O426 Eu424 2.374 . S
O426 Eu428 2.374 . S
O426 Eu431 2.370 . S
Eu427 O425 2.366 1_554 S
Eu427 O429 2.374 . S
Eu427 O433 2.374 . S
Eu427 O434 2.366 1_554 S
Eu427 O442 2.363 . S
Eu427 O443 2.363 . S
Eu427 O458 2.369 . S
Eu427 O459 2.357 1_554 S
Eu428 O426 2.374 . S
Eu428 O430 2.366 1_554 S
Eu428 O435 2.366 1_554 S
Eu428 O436 2.374 . S
Eu428 O444 2.363 . S
Eu428 O445 2.363 . S
Eu428 O460 2.369 . S
Eu428 O461 2.357 1_554 S
O429 Eu424 2.374 1_655 S
O429 Eu427 2.374 . S
O429 Eu431 2.370 1_655 S
O430 Eu424 2.366 1_556 S
O430 Eu428 2.366 1_556 S
O430 Eu432 2.370 . S
Eu431 O426 2.370 . S
Eu431 O429 2.370 1_455 S
Eu431 O433 2.370 1_455 S
Eu431 O436 2.370 . S
Eu431 O448 2.363 . S
Eu431 O449 2.363 1_455 S
Eu431 O456 2.363 . S
Eu431 O457 2.363 . S
Eu432 O425 2.370 1_455 S
Eu432 O430 2.370 . S
Eu432 O434 2.370 1_455 S
Eu432 O435 2.370 . S
Eu432 O446 2.363 . S
Eu432 O447 2.363 1_455 S
Eu432 O454 2.363 . S
Eu432 O455 2.363 . S
O433 Eu427 2.374 . S
O433 Eu431 2.370 1_655 S
O433 Eu437 2.374 1_655 S
O434 Eu427 2.366 1_556 S
O434 Eu432 2.370 1_655 S
O434 Eu437 2.366 1_656 S
O435 Eu428 2.366 1_556 S
O435 Eu432 2.370 . S
O435 Eu437 2.366 1_556 S
O436 Eu428 2.374 . S
O436 Eu431 2.370 . S
O436 Eu437 2.374 . S
Eu437 O433 2.374 1_455 S
Eu437 O434 2.366 1_454 S
Eu437 O435 2.366 1_554 S
Eu437 O436 2.374 . S
Eu437 O440 2.369 . S
Eu437 O441 2.357 1_554 S
Eu437 O450 2.363 . S
Eu437 O451 2.363 1_455 S
O438 C412 1.283 . S
O438 Eu424 2.370 . S
O439 C413 1.283 . S
O439 Eu424 2.356 1_556 S
O440 C414 1.283 . S
O440 Eu437 2.369 . S
O441 C415 1.283 . S
O441 Eu437 2.357 1_556 S
O442 C416 1.283 . S
O442 Eu427 2.363 . S
O443 C417 1.283 . S
O443 Eu427 2.363 . S
O444 C418 1.283 . S
O444 Eu428 2.363 . S
O445 C419 1.283 . S
O445 Eu428 2.363 . S
O446 C420 1.283 . S
O446 Eu432 2.363 . S
O447 C421 1.283 . S
O447 Eu432 2.363 1_655 S
O448 C422 1.283 . S
O448 Eu431 2.363 . S
O449 C423 1.283 . S
O449 Eu431 2.363 1_655 S
O450 C418 1.283 . S
O450 Eu437 2.363 . S
O451 C416 1.283 . S
O451 Eu437 2.363 1_655 S
O452 C419 1.283 . S
O452 Eu424 2.363 . S
O453 C417 1.283 . S
O453 Eu424 2.363 1_655 S
O454 C413 1.283 . S
O454 Eu432 2.363 . S
O455 C415 1.283 . S
O455 Eu432 2.363 . S
O456 C412 1.283 . S
O456 Eu431 2.363 . S
O457 C414 1.283 . S
O457 Eu431 2.363 . S
O458 C423 1.283 . S
O458 Eu427 2.369 . S
O459 C421 1.283 . S
O459 Eu427 2.357 1_556 S
O460 C422 1.283 . S
O460 Eu428 2.369 . S
O461 C420 1.283 . S
O461 Eu428 2.357 1_556 S
C462 O488 1.283 . S
C462 O506 1.283 . S
C463 O489 1.283 . S
C463 O504 1.283 . S
C464 O490 1.283 . S
C464 O507 1.283 . S
C465 O491 1.283 . S
C465 O505 1.283 . S
C466 O492 1.283 . S
C466 O501 1.283 . S
C467 O493 1.283 . S
C467 O503 1.283 . S
C468 O494 1.283 . S
C468 O500 1.283 . S
C469 O495 1.283 . S
C469 O502 1.283 . S
C470 O496 1.283 . S
C470 O511 1.283 . S
C471 O497 1.283 . S
C471 O509 1.283 . S
C472 O498 1.283 . S
C472 O510 1.283 . S
C473 O499 1.283 . S
C473 O508 1.283 . S
Eu474 O475 2.370 . S
Eu474 O476 2.370 . S
Eu474 O479 2.370 . S
Eu474 O480 2.370 . S
Eu474 O488 2.363 . S
Eu474 O489 2.363 . S
Eu474 O502 2.363 . S
Eu474 O503 2.363 . S
O475 Eu474 2.370 . S
O475 Eu477 2.374 . S
O475 Eu482 2.373 . S
O476 Eu474 2.370 . S
O476 Eu478 2.374 . S
O476 Eu481 2.374 . S
Eu477 O475 2.374 . S
Eu477 O479 2.374 . S
Eu477 O483 2.366 1_554 S
Eu477 O484 2.366 1_554 S
Eu477 O492 2.357 1_554 S
Eu477 O493 2.369 . S
Eu477 O508 2.363 . S
Eu477 O509 2.363 . S
Eu478 O476 2.374 . S
Eu478 O480 2.374 . S
Eu478 O485 2.366 1_554 S
Eu478 O486 2.366 1_554 S
Eu478 O494 2.357 1_554 S
Eu478 O495 2.369 . S
Eu478 O510 2.363 . S
Eu478 O511 2.363 . S
O479 Eu474 2.370 . S
O479 Eu477 2.374 . S
O479 Eu481 2.374 . S
O480 Eu474 2.370 . S
O480 Eu478 2.374 . S
O480 Eu482 2.373 . S
Eu481 O476 2.374 . S
Eu481 O479 2.374 . S
Eu481 O483 2.366 1_554 S
Eu481 O486 2.366 1_554 S
Eu481 O498 2.363 . S
Eu481 O499 2.363 . S
Eu481 O506 2.370 . S
Eu481 O507 2.356 1_554 S
Eu482 O475 2.373 . S
Eu482 O480 2.373 . S
Eu482 O484 2.367 1_554 S
Eu482 O485 2.367 1_554 S
Eu482 O496 2.363 . S
Eu482 O497 2.363 . S
Eu482 O504 2.369 . S
Eu482 O505 2.357 1_554 S
O483 Eu477 2.366 1_556 S
O483 Eu481 2.366 1_556 S
O483 Eu487 2.370 . S
O484 Eu477 2.366 1_556 S
O484 Eu482 2.367 1_556 S
O484 Eu487 2.370 . S
O485 Eu478 2.366 1_556 S
O485 Eu482 2.367 1_556 S
O485 Eu487 2.370 . S
O486 Eu478 2.366 1_556 S
O486 Eu481 2.366 1_556 S
O486 Eu487 2.370 . S
Eu487 O483 2.370 . S
Eu487 O484 2.370 . S
Eu487 O485 2.370 . S
Eu487 O486 2.370 . S
Eu487 O490 2.363 . S
Eu487 O491 2.363 . S
Eu487 O500 2.363 . S
Eu487 O501 2.363 . S
O488 C462 1.283 . S
O488 Eu474 2.363 . S
O489 C463 1.283 . S
O489 Eu474 2.363 . S
O490 C464 1.283 . S
O490 Eu487 2.363 . S
O491 C465 1.283 . S
O491 Eu487 2.363 . S
O492 C466 1.283 . S
O492 Eu477 2.357 1_556 S
O493 C467 1.283 . S
O493 Eu477 2.369 . S
O494 C468 1.283 . S
O494 Eu478 2.357 1_556 S
O495 C469 1.283 . S
O495 Eu478 2.369 . S
O496 C470 1.283 . S
O496 Eu482 2.363 . S
O497 C471 1.283 . S
O497 Eu482 2.363 . S
O498 C472 1.283 . S
O498 Eu481 2.363 . S
O499 C473 1.283 . S
O499 Eu481 2.363 . S
O500 C468 1.283 . S
O500 Eu487 2.363 . S
O501 C466 1.283 . S
O501 Eu487 2.363 . S
O502 C469 1.283 . S
O502 Eu474 2.363 . S
O503 C467 1.283 . S
O503 Eu474 2.363 . S
O504 C463 1.283 . S
O504 Eu482 2.369 . S
O505 C465 1.283 . S
O505 Eu482 2.357 1_556 S
O506 C462 1.283 . S
O506 Eu481 2.370 . S
O507 C464 1.283 . S
O507 Eu481 2.356 1_556 S
O508 C473 1.283 . S
O508 Eu477 2.363 . S
O509 C471 1.283 . S
O509 Eu477 2.363 . S
O510 C472 1.283 . S
O510 Eu478 2.363 . S
O511 C470 1.283 . S
O511 Eu478 2.363 . S
C512 O538 1.283 . S
C512 O556 1.283 . S
C513 O539 1.283 . S
C513 O554 1.283 . S
C514 O540 1.283 . S
C514 O557 1.283 . S
C515 O541 1.283 . S
C515 O555 1.283 . S
C516 O542 1.283 . S
C516 O551 1.283 . S
C517 O543 1.283 . S
C517 O553 1.283 . S
C518 O544 1.283 . S
C518 O550 1.283 . S
C519 O545 1.283 . S
C519 O552 1.283 . S
C520 O546 1.283 . S
C520 O561 1.283 . S
C521 O547 1.283 . S
C521 O559 1.283 . S
C522 O548 1.283 . S
C522 O560 1.283 . S
C523 O549 1.283 . S
C523 O558 1.283 . S
Eu524 O525 2.370 1_455 S
Eu524 O526 2.370 . S
Eu524 O529 2.370 1_455 S
Eu524 O530 2.370 . S
Eu524 O538 2.363 . S
Eu524 O539 2.363 . S
Eu524 O552 2.363 . S
Eu524 O553 2.363 1_455 S
O525 Eu524 2.370 1_655 S
O525 Eu527 2.370 . S
O525 Eu532 2.370 1_655 S
O526 Eu524 2.370 . S
O526 Eu528 2.370 . S
O526 Eu531 2.370 . S
Eu527 O525 2.370 . S
Eu527 O529 2.370 . S
Eu527 O533 2.370 . S
Eu527 O534 2.370 . S
Eu527 O542 2.363 . S
Eu527 O543 2.363 . S
Eu527 O558 2.363 . S
Eu527 O559 2.363 . S
Eu528 O526 2.370 . S
Eu528 O530 2.370 . S
Eu528 O535 2.370 . S
Eu528 O536 2.370 . S
Eu528 O544 2.363 . S
Eu528 O545 2.363 . S
Eu528 O560 2.363 . S
Eu528 O561 2.363 . S
O529 Eu524 2.370 1_655 S
O529 Eu527 2.370 . S
O529 Eu531 2.370 1_655 S
O530 Eu524 2.370 . S
O530 Eu528 2.370 . S
O530 Eu532 2.370 . S
Eu531 O526 2.370 . S
Eu531 O529 2.370 1_455 S
Eu531 O533 2.370 1_455 S
Eu531 O536 2.370 . S
Eu531 O548 2.363 . S
Eu531 O549 2.363 1_455 S
Eu531 O556 2.363 . S
Eu531 O557 2.363 . S
Eu532 O525 2.370 1_455 S
Eu532 O530 2.370 . S
Eu532 O534 2.370 1_455 S
Eu532 O535 2.370 . S
Eu532 O546 2.363 . S
Eu532 O547 2.363 1_455 S
Eu532 O554 2.363 . S
Eu532 O555 2.363 . S
O533 Eu527 2.370 . S
O533 Eu531 2.370 1_655 S
O533 Eu537 2.370 1_655 S
O534 Eu527 2.370 . S
O534 Eu532 2.370 1_655 S
O534 Eu537 2.370 1_655 S
O535 Eu528 2.370 . S
O535 Eu532 2.370 . S
O535 Eu537 2.370 . S
O536 Eu528 2.370 . S
O536 Eu531 2.370 . S
O536 Eu537 2.370 . S
Eu537 O533 2.370 1_455 S
Eu537 O534 2.370 1_455 S
Eu537 O535 2.370 . S
Eu537 O536 2.370 . S
Eu537 O540 2.363 . S
Eu537 O541 2.363 . S
Eu537 O550 2.363 . S
Eu537 O551 2.363 1_455 S
O538 C512 1.283 . S
O538 Eu524 2.363 . S
O539 C513 1.283 . S
O539 Eu524 2.363 . S
O540 C514 1.283 . S
O540 Eu537 2.363 . S
O541 C515 1.283 . S
O541 Eu537 2.363 . S
O542 C516 1.283 . S
O542 Eu527 2.363 . S
O543 C517 1.283 . S
O543 Eu527 2.363 . S
O544 C518 1.283 . S
O544 Eu528 2.363 . S
O545 C519 1.283 . S
O545 Eu528 2.363 . S
O546 C520 1.283 . S
O546 Eu532 2.363 . S
O547 C521 1.283 . S
O547 Eu532 2.363 1_655 S
O548 C522 1.283 . S
O548 Eu531 2.363 . S
O549 C523 1.283 . S
O549 Eu531 2.363 1_655 S
O550 C518 1.283 . S
O550 Eu537 2.363 . S
O551 C516 1.283 . S
O551 Eu537 2.363 1_655 S
O552 C519 1.283 . S
O552 Eu524 2.363 . S
O553 C517 1.283 . S
O553 Eu524 2.363 1_655 S
O554 C513 1.283 . S
O554 Eu532 2.363 . S
O555 C515 1.283 . S
O555 Eu532 2.363 . S
O556 C512 1.283 . S
O556 Eu531 2.363 . S
O557 C514 1.283 . S
O557 Eu531 2.363 . S
O558 C523 1.283 . S
O558 Eu527 2.363 . S
O559 C521 1.283 . S
O559 Eu527 2.363 . S
O560 C522 1.283 . S
O560 Eu528 2.363 . S
O561 C520 1.283 . S
O561 Eu528 2.363 . S
C562 O588 1.283 . S
C562 O606 1.283 . S
C563 O589 1.283 . S
C563 O604 1.283 . S
C564 O590 1.283 . S
C564 O607 1.283 . S
C565 O591 1.283 . S
C565 O605 1.283 . S
C566 O592 1.283 . S
C566 O601 1.283 . S
C567 O593 1.283 . S
C567 O603 1.283 . S
C568 O594 1.283 . S
C568 O600 1.283 . S
C569 O595 1.283 . S
C569 O602 1.283 . S
C570 O596 1.283 . S
C570 O611 1.283 . S
C571 O597 1.283 . S
C571 O609 1.283 . S
C572 O598 1.283 . S
C572 O610 1.283 . S
C573 O599 1.283 . S
C573 O608 1.283 . S
Eu574 O575 2.370 . S
Eu574 O576 2.370 . S
Eu574 O579 2.370 . S
Eu574 O580 2.370 . S
Eu574 O588 2.363 . S
Eu574 O589 2.363 . S
Eu574 O602 2.363 . S
Eu574 O603 2.363 . S
O575 Eu574 2.370 . S
O575 Eu577 2.366 1_565 S
O575 Eu582 2.367 1_565 S
O576 Eu574 2.370 . S
O576 Eu578 2.366 1_565 S
O576 Eu581 2.366 1_565 S
Eu577 O575 2.366 1_545 S
Eu577 O579 2.366 1_545 S
Eu577 O583 2.374 . S
Eu577 O584 2.374 . S
Eu577 O592 2.369 . S
Eu577 O593 2.357 1_545 S
Eu577 O608 2.363 . S
Eu577 O609 2.363 . S
Eu578 O576 2.366 1_545 S
Eu578 O580 2.366 1_545 S
Eu578 O585 2.374 . S
Eu578 O586 2.374 . S
Eu578 O594 2.369 . S
Eu578 O595 2.357 1_545 S
Eu578 O610 2.363 . S
Eu578 O611 2.363 . S
O579 Eu574 2.370 . S
O579 Eu577 2.366 1_565 S
O579 Eu581 2.366 1_565 S
O580 Eu574 2.370 . S
O580 Eu578 2.366 1_565 S
O580 Eu582 2.367 1_565 S
Eu581 O576 2.366 1_545 S
Eu581 O579 2.366 1_545 S
Eu581 O583 2.374 . S
Eu581 O586 2.374 . S
Eu581 O598 2.363 . S
Eu581 O599 2.363 . S
Eu581 O606 2.356 1_545 S
Eu581 O607 2.370 . S
Eu582 O575 2.367 1_545 S
Eu582 O580 2.367 1_545 S
Eu582 O584 2.374 . S
Eu582 O585 2.374 . S
Eu582 O596 2.363 . S
Eu582 O597 2.363 . S
Eu582 O604 2.357 1_545 S
Eu582 O605 2.369 . S
O583 Eu577 2.374 . S
O583 Eu581 2.374 . S
O583 Eu587 2.370 . S
O584 Eu577 2.374 . S
O584 Eu582 2.374 . S
O584 Eu587 2.370 . S
O585 Eu578 2.374 . S
O585 Eu582 2.374 . S
O585 Eu587 2.370 . S
O586 Eu578 2.374 . S
O586 Eu581 2.374 . S
O586 Eu587 2.370 . S
Eu587 O583 2.370 . S
Eu587 O584 2.370 . S
Eu587 O585 2.370 . S
Eu587 O586 2.370 . S
Eu587 O590 2.363 . S
Eu587 O591 2.363 . S
Eu587 O600 2.363 . S
Eu587 O601 2.363 . S
O588 C562 1.283 . S
O588 Eu574 2.363 . S
O589 C563 1.283 . S
O589 Eu574 2.363 . S
O590 C564 1.283 . S
O590 Eu587 2.363 . S
O591 C565 1.283 . S
O591 Eu587 2.363 . S
O592 C566 1.283 . S
O592 Eu577 2.369 . S
O593 C567 1.283 . S
O593 Eu577 2.357 1_565 S
O594 C568 1.283 . S
O594 Eu578 2.369 . S
O595 C569 1.283 . S
O595 Eu578 2.357 1_565 S
O596 C570 1.283 . S
O596 Eu582 2.363 . S
O597 C571 1.283 . S
O597 Eu582 2.363 . S
O598 C572 1.283 . S
O598 Eu581 2.363 . S
O599 C573 1.283 . S
O599 Eu581 2.363 . S
O600 C568 1.283 . S
O600 Eu587 2.363 . S
O601 C566 1.283 . S
O601 Eu587 2.363 . S
O602 C569 1.283 . S
O602 Eu574 2.363 . S
O603 C567 1.283 . S
O603 Eu574 2.363 . S
O604 C563 1.283 . S
O604 Eu582 2.357 1_565 S
O605 C565 1.283 . S
O605 Eu582 2.369 . S
O606 C562 1.283 . S
O606 Eu581 2.356 1_565 S
O607 C564 1.283 . S
O607 Eu581 2.370 . S
O608 C573 1.283 . S
O608 Eu577 2.363 . S
O609 C571 1.283 . S
O609 Eu577 2.363 . S
O610 C572 1.283 . S
O610 Eu578 2.363 . S
O611 C570 1.283 . S
O611 Eu578 2.363 . S
C612 C613 1.363 . S
C612 C618 1.379 . S
C612 N620 1.356 . S
C613 C612 1.363 . S
C613 C619 1.363 . S
C614 C615 1.363 . S
C614 C619 1.379 . S
C614 N621 1.356 . S
C615 C614 1.363 . S
C615 C618 1.363 . S
N616 C618 1.356 . S
N616 H628 0.984 . S
N616 H629 0.985 . S
N617 C619 1.356 . S
N617 H622 0.984 . S
N617 H623 0.985 . S
C618 C612 1.379 . S
C618 C615 1.363 . S
C618 N616 1.356 . S
C619 C613 1.363 . S
C619 C614 1.379 . S
C619 N617 1.356 . S
N620 C612 1.356 . S
N620 H626 0.984 . S
N620 H627 0.984 . S
N621 C614 1.356 . S
N621 H624 0.984 . S
N621 H625 0.985 . S
H622 N617 0.984 . S
H623 N617 0.985 . S
H624 N621 0.984 . S
H625 N621 0.985 . S
H626 N620 0.984 . S
H627 N620 0.984 . S
H628 N616 0.984 . S
H629 N616 0.985 . S
C630 C631 1.363 . S
C630 C636 1.379 . S
C630 N638 1.356 . S
C631 C630 1.363 . S
C631 C637 1.363 . S
C632 C633 1.363 . S
C632 C637 1.379 . S
C632 N639 1.356 . S
C633 C632 1.363 . S
C633 C636 1.363 . S
N634 C636 1.356 . S
N634 H646 0.984 . S
N634 H647 0.985 . S
N635 C637 1.356 . S
N635 H640 0.984 . S
N635 H641 0.985 . S
C636 C630 1.379 . S
C636 C633 1.363 . S
C636 N634 1.356 . S
C637 C631 1.363 . S
C637 C632 1.379 . S
C637 N635 1.356 . S
N638 C630 1.356 . S
N638 H644 0.984 . S
N638 H645 0.984 . S
N639 C632 1.356 . S
N639 H642 0.984 . S
N639 H643 0.985 . S
H640 N635 0.984 . S
H641 N635 0.985 . S
H642 N639 0.984 . S
H643 N639 0.985 . S
H644 N638 0.984 . S
H645 N638 0.984 . S
H646 N634 0.984 . S
H647 N634 0.985 . S
C648 C649 1.363 . S
C648 C654 1.379 . S
C648 N656 1.356 . S
C649 C648 1.363 . S
C649 C655 1.363 . S
C650 C651 1.363 . S
C650 C655 1.379 . S
C650 N657 1.356 . S
C651 C650 1.363 . S
C651 C654 1.363 . S
N652 C654 1.356 . S
N652 H664 0.984 . S
N652 H665 0.985 . S
N653 C655 1.356 . S
N653 H658 0.984 . S
N653 H659 0.985 . S
C654 C648 1.379 . S
C654 C651 1.363 . S
C654 N652 1.356 . S
C655 C649 1.363 . S
C655 C650 1.379 . S
C655 N653 1.356 . S
N656 C648 1.356 . S
N656 H662 0.984 . S
N656 H663 0.984 . S
N657 C650 1.356 . S
N657 H660 0.984 . S
N657 H661 0.985 . S
H658 N653 0.984 . S
H659 N653 0.985 . S
H660 N657 0.984 . S
H661 N657 0.985 . S
H662 N656 0.984 . S
H663 N656 0.984 . S
H664 N652 0.984 . S
H665 N652 0.985 . S
C666 C667 1.363 . S
C666 C672 1.379 . S
C666 N674 1.356 . S
C667 C666 1.363 . S
C667 C673 1.363 . S
C668 C669 1.363 . S
C668 C673 1.379 . S
C668 N675 1.356 . S
C669 C668 1.363 . S
C669 C672 1.363 . S
N670 C672 1.356 . S
N670 H682 0.984 . S
N670 H683 0.985 . S
N671 C673 1.356 . S
N671 H676 0.984 . S
N671 H677 0.985 . S
C672 C666 1.379 . S
C672 C669 1.363 . S
C672 N670 1.356 . S
C673 C667 1.363 . S
C673 C668 1.379 . S
C673 N671 1.356 . S
N674 C666 1.356 . S
N674 H680 0.984 . S
N674 H681 0.984 . S
N675 C668 1.356 . S
N675 H678 0.984 . S
N675 H679 0.985 . S
H676 N671 0.984 . S
H677 N671 0.985 . S
H678 N675 0.984 . S
H679 N675 0.985 . S
H680 N674 0.984 . S
H681 N674 0.984 . S
H682 N670 0.984 . S
H683 N670 0.985 . S
C684 C685 1.363 . S
C684 C690 1.379 . S
C684 N692 1.356 . S
C685 C684 1.363 . S
C685 C691 1.363 . S
C686 C687 1.363 . S
C686 C691 1.379 . S
C686 N693 1.356 . S
C687 C686 1.363 . S
C687 C690 1.363 . S
N688 C690 1.356 . S
N688 H700 0.984 . S
N688 H701 0.985 . S
N689 C691 1.356 . S
N689 H694 0.984 . S
N689 H695 0.985 . S
C690 C684 1.379 . S
C690 C687 1.363 . S
C690 N688 1.356 . S
C691 C685 1.363 . S
C691 C686 1.379 . S
C691 N689 1.356 . S
N692 C684 1.356 . S
N692 H698 0.984 . S
N692 H699 0.984 . S
N693 C686 1.356 . S
N693 H696 0.984 . S
N693 H697 0.985 . S
H694 N689 0.984 . S
H695 N689 0.985 . S
H696 N693 0.984 . S
H697 N693 0.985 . S
H698 N692 0.984 . S
H699 N692 0.984 . S
H700 N688 0.984 . S
H701 N688 0.985 . S
C702 C703 1.363 . S
C702 C708 1.379 . S
C702 N710 1.356 . S
C703 C702 1.363 . S
C703 C709 1.363 . S
C704 C705 1.363 . S
C704 C709 1.379 . S
C704 N711 1.356 . S
C705 C704 1.363 . S
C705 C708 1.363 . S
N706 C708 1.356 . S
N706 H718 0.984 . S
N706 H719 0.985 . S
N707 C709 1.356 . S
N707 H712 0.984 . S
N707 H713 0.985 . S
C708 C702 1.379 . S
C708 C705 1.363 . S
C708 N706 1.356 . S
C709 C703 1.363 . S
C709 C704 1.379 . S
C709 N707 1.356 . S
N710 C702 1.356 . S
N710 H716 0.984 . S
N710 H717 0.984 . S
N711 C704 1.356 . S
N711 H714 0.984 . S
N711 H715 0.985 . S
H712 N707 0.984 . S
H713 N707 0.985 . S
H714 N711 0.984 . S
H715 N711 0.985 . S
H716 N710 0.984 . S
H717 N710 0.984 . S
H718 N706 0.984 . S
H719 N706 0.985 . S
C720 C721 1.363 . S
C720 C726 1.379 . S
C720 N728 1.356 . S
C721 C720 1.363 . S
C721 C727 1.363 . S
C722 C723 1.363 . S
C722 C727 1.379 . S
C722 N729 1.356 . S
C723 C722 1.363 . S
C723 C726 1.363 . S
N724 C726 1.356 . S
N724 H736 0.984 . S
N724 H737 0.985 . S
N725 C727 1.356 . S
N725 H730 0.984 . S
N725 H731 0.985 . S
C726 C720 1.379 . S
C726 C723 1.363 . S
C726 N724 1.356 . S
C727 C721 1.363 . S
C727 C722 1.379 . S
C727 N725 1.356 . S
N728 C720 1.356 . S
N728 H734 0.984 . S
N728 H735 0.984 . S
N729 C722 1.356 . S
N729 H732 0.984 . S
N729 H733 0.985 . S
H730 N725 0.984 . S
H731 N725 0.985 . S
H732 N729 0.984 . S
H733 N729 0.985 . S
H734 N728 0.984 . S
H735 N728 0.984 . S
H736 N724 0.984 . S
H737 N724 0.985 . S
C738 C739 1.363 . S
C738 C744 1.379 . S
C738 N746 1.356 . S
C739 C738 1.363 . S
C739 C745 1.363 . S
C740 C741 1.363 . S
C740 C745 1.379 . S
C740 N747 1.356 . S
C741 C740 1.363 . S
C741 C744 1.363 . S
N742 C744 1.356 . S
N742 H754 0.984 . S
N742 H755 0.985 . S
N743 C745 1.356 . S
N743 H748 0.984 . S
N743 H749 0.985 . S
C744 C738 1.379 . S
C744 C741 1.363 . S
C744 N742 1.356 . S
C745 C739 1.363 . S
C745 C740 1.379 . S
C745 N743 1.356 . S
N746 C738 1.356 . S
N746 H752 0.984 . S
N746 H753 0.984 . S
N747 C740 1.356 . S
N747 H750 0.984 . S
N747 H751 0.985 . S
H748 N743 0.984 . S
H749 N743 0.985 . S
H750 N747 0.984 . S
H751 N747 0.985 . S
H752 N746 0.984 . S
H753 N746 0.984 . S
H754 N742 0.984 . S
H755 N742 0.985 . S
C756 C757 1.363 . S
C756 C762 1.379 . S
C756 N764 1.356 . S
C757 C756 1.363 . S
C757 C763 1.363 . S
C758 C759 1.363 . S
C758 C763 1.379 . S
C758 N765 1.356 . S
C759 C758 1.363 . S
C759 C762 1.363 . S
N760 C762 1.356 . S
N760 H772 0.984 . S
N760 H773 0.985 . S
N761 C763 1.356 . S
N761 H766 0.984 . S
N761 H767 0.985 . S
C762 C756 1.379 . S
C762 C759 1.363 . S
C762 N760 1.356 . S
C763 C757 1.363 . S
C763 C758 1.379 . S
C763 N761 1.356 . S
N764 C756 1.356 . S
N764 H770 0.984 . S
N764 H771 0.984 . S
N765 C758 1.356 . S
N765 H768 0.984 . S
N765 H769 0.985 . S
H766 N761 0.984 . S
H767 N761 0.985 . S
H768 N765 0.984 . S
H769 N765 0.985 . S
H770 N764 0.984 . S
H771 N764 0.984 . S
H772 N760 0.984 . S
H773 N760 0.985 . S
C774 C775 1.363 . S
C774 C780 1.379 . S
C774 N782 1.356 . S
C775 C774 1.363 . S
C775 C781 1.363 . S
C776 C777 1.363 . S
C776 C781 1.379 . S
C776 N783 1.356 . S
C777 C776 1.363 . S
C777 C780 1.363 . S
N778 C780 1.356 . S
N778 H790 0.984 . S
N778 H791 0.985 . S
N779 C781 1.356 . S
N779 H784 0.984 . S
N779 H785 0.985 . S
C780 C774 1.379 . S
C780 C777 1.363 . S
C780 N778 1.356 . S
C781 C775 1.363 . S
C781 C776 1.379 . S
C781 N779 1.356 . S
N782 C774 1.356 . S
N782 H788 0.984 . S
N782 H789 0.984 . S
N783 C776 1.356 . S
N783 H786 0.984 . S
N783 H787 0.985 . S
H784 N779 0.984 . S
H785 N779 0.985 . S
H786 N783 0.984 . S
H787 N783 0.985 . S
H788 N782 0.984 . S
H789 N782 0.984 . S
H790 N778 0.984 . S
H791 N778 0.985 . S
C792 C793 1.363 . S
C792 C798 1.379 . S
C792 N800 1.356 . S
C793 C792 1.363 . S
C793 C799 1.363 . S
C794 C795 1.363 . S
C794 C799 1.379 . S
C794 N801 1.356 . S
C795 C794 1.363 . S
C795 C798 1.363 . S
N796 C798 1.356 . S
N796 H808 0.984 . S
N796 H809 0.985 . S
N797 C799 1.356 . S
N797 H802 0.984 . S
N797 H803 0.985 . S
C798 C792 1.379 . S
C798 C795 1.363 . S
C798 N796 1.356 . S
C799 C793 1.363 . S
C799 C794 1.379 . S
C799 N797 1.356 . S
N800 C792 1.356 . S
N800 H806 0.984 . S
N800 H807 0.984 . S
N801 C794 1.356 . S
N801 H804 0.984 . S
N801 H805 0.985 . S
H802 N797 0.984 . S
H803 N797 0.985 . S
H804 N801 0.984 . S
H805 N801 0.985 . S
H806 N800 0.984 . S
H807 N800 0.984 . S
H808 N796 0.984 . S
H809 N796 0.985 . S
C810 C811 1.363 . S
C810 C816 1.379 . S
C810 N818 1.356 . S
C811 C810 1.363 . S
C811 C817 1.363 . S
C812 C813 1.363 . S
C812 C817 1.379 . S
C812 N819 1.356 . S
C813 C812 1.363 . S
C813 C816 1.363 . S
N814 C816 1.356 . S
N814 H826 0.984 . S
N814 H827 0.985 . S
N815 C817 1.356 . S
N815 H820 0.984 . S
N815 H821 0.985 . S
C816 C810 1.379 . S
C816 C813 1.363 . S
C816 N814 1.356 . S
C817 C811 1.363 . S
C817 C812 1.379 . S
C817 N815 1.356 . S
N818 C810 1.356 . S
N818 H824 0.984 . S
N818 H825 0.984 . S
N819 C812 1.356 . S
N819 H822 0.984 . S
N819 H823 0.985 . S
H820 N815 0.984 . S
H821 N815 0.985 . S
H822 N819 0.984 . S
H823 N819 0.985 . S
H824 N818 0.984 . S
H825 N818 0.984 . S
H826 N814 0.984 . S
H827 N814 0.985 . S
C828 C829 1.367 . S
C828 C834 1.379 . S
C828 N836 1.356 . S
C829 C828 1.367 . S
C829 C835 1.359 1_554 S
C830 C831 1.359 1_556 S
C830 C835 1.379 . S
C830 N837 1.356 . S
C831 C830 1.359 1_554 S
C831 C834 1.367 . S
N832 C834 1.356 . S
N832 H844 0.984 . S
N832 H845 0.985 . S
N833 C835 1.356 . S
N833 H838 0.984 . S
N833 H839 0.985 . S
C834 C828 1.379 . S
C834 C831 1.367 . S
C834 N832 1.356 . S
C835 C829 1.359 1_556 S
C835 C830 1.379 . S
C835 N833 1.356 . S
N836 C828 1.356 . S
N836 H842 0.984 . S
N836 H843 0.984 . S
N837 C830 1.356 . S
N837 H840 0.984 . S
N837 H841 0.985 . S
H838 N833 0.984 . S
H839 N833 0.985 . S
H840 N837 0.984 . S
H841 N837 0.985 . S
H842 N836 0.984 . S
H843 N836 0.984 . S
H844 N832 0.984 . S
H845 N832 0.985 . S
C846 C847 1.359 1_556 S
C846 C852 1.379 . S
C846 N854 1.356 . S
C847 C846 1.359 1_554 S
C847 C853 1.367 . S
C848 C849 1.367 . S
C848 C853 1.379 . S
C848 N855 1.356 . S
C849 C848 1.367 . S
C849 C852 1.359 1_554 S
N850 C852 1.356 . S
N850 H862 0.984 . S
N850 H863 0.985 . S
N851 C853 1.356 . S
N851 H856 0.984 . S
N851 H857 0.985 . S
C852 C846 1.379 . S
C852 C849 1.359 1_556 S
C852 N850 1.356 . S
C853 C847 1.367 . S
C853 C848 1.379 . S
C853 N851 1.356 . S
N854 C846 1.356 . S
N854 H860 0.984 . S
N854 H861 0.984 . S
N855 C848 1.356 . S
N855 H858 0.984 . S
N855 H859 0.985 . S
H856 N851 0.984 . S
H857 N851 0.985 . S
H858 N855 0.984 . S
H859 N855 0.985 . S
H860 N854 0.984 . S
H861 N854 0.984 . S
H862 N850 0.984 . S
H863 N850 0.985 . S
C864 C865 1.357 1_556 S
C864 C870 1.379 . S
C864 N872 1.356 . S
C865 C864 1.357 1_554 S
C865 C871 1.369 . S
C866 C867 1.369 . S
C866 C871 1.379 . S
C866 N873 1.356 . S
C867 C866 1.369 . S
C867 C870 1.357 1_554 S
N868 C870 1.356 . S
N868 H880 0.984 . S
N868 H881 0.985 . S
N869 C871 1.356 . S
N869 H874 0.984 . S
N869 H875 0.985 . S
C870 C864 1.379 . S
C870 C867 1.357 1_556 S
C870 N868 1.356 . S
C871 C865 1.369 . S
C871 C866 1.379 . S
C871 N869 1.356 . S
N872 C864 1.356 . S
N872 H878 0.984 . S
N872 H879 0.984 . S
N873 C866 1.356 . S
N873 H876 0.984 . S
N873 H877 0.985 . S
H874 N869 0.984 . S
H875 N869 0.985 . S
H876 N873 0.984 . S
H877 N873 0.985 . S
H878 N872 0.984 . S
H879 N872 0.984 . S
H880 N868 0.984 . S
H881 N868 0.985 . S
C882 C883 1.369 . S
C882 C888 1.379 . S
C882 N890 1.356 . S
C883 C882 1.369 . S
C883 C889 1.357 1_554 S
C884 C885 1.357 1_556 S
C884 C889 1.379 . S
C884 N891 1.356 . S
C885 C884 1.357 1_554 S
C885 C888 1.369 . S
N886 C888 1.356 . S
N886 H898 0.984 . S
N886 H899 0.985 . S
N887 C889 1.356 . S
N887 H892 0.984 . S
N887 H893 0.985 . S
C888 C882 1.379 . S
C888 C885 1.369 . S
C888 N886 1.356 . S
C889 C883 1.357 1_556 S
C889 C884 1.379 . S
C889 N887 1.356 . S
N890 C882 1.356 . S
N890 H896 0.984 . S
N890 H897 0.984 . S
N891 C884 1.356 . S
N891 H894 0.984 . S
N891 H895 0.985 . S
H892 N887 0.984 . S
H893 N887 0.985 . S
H894 N891 0.984 . S
H895 N891 0.985 . S
H896 N890 0.984 . S
H897 N890 0.984 . S
H898 N886 0.984 . S
H899 N886 0.985 . S
C900 C901 1.363 . S
C900 C906 1.379 . S
C900 N908 1.356 1_455 S
C901 C900 1.363 . S
C901 C907 1.363 . S
C902 C903 1.363 . S
C902 C907 1.379 . S
C902 N909 1.356 . S
C903 C902 1.363 . S
C903 C906 1.363 . S
N904 C906 1.356 1_655 S
N904 H916 0.984 . S
N904 H917 0.987 . S
N905 C907 1.356 . S
N905 H910 0.984 . S
N905 H911 0.985 . S
C906 C900 1.379 . S
C906 C903 1.363 . S
C906 N904 1.356 1_455 S
C907 C901 1.363 . S
C907 C902 1.379 . S
C907 N905 1.356 . S
N908 C900 1.356 1_655 S
N908 H914 0.984 . S
N908 H915 0.986 . S
N909 C902 1.356 . S
N909 H912 0.984 . S
N909 H913 0.985 . S
H910 N905 0.984 . S
H911 N905 0.985 . S
H912 N909 0.984 . S
H913 N909 0.985 . S
H914 N908 0.984 . S
H915 N908 0.986 . S
H916 N904 0.984 . S
H917 N904 0.987 . S
C918 C919 1.367 . S
C918 C924 1.379 . S
C918 N926 1.356 . S
C919 C918 1.367 . S
C919 C925 1.359 1_545 S
C920 C921 1.358 1_565 S
C920 C925 1.379 . S
C920 N927 1.356 . S
C921 C920 1.358 1_545 S
C921 C924 1.368 . S
N922 C924 1.356 . S
N922 H934 0.984 . S
N922 H935 0.985 . S
N923 C925 1.356 . S
N923 H928 0.984 . S
N923 H929 0.985 . S
C924 C918 1.379 . S
C924 C921 1.368 . S
C924 N922 1.356 . S
C925 C919 1.359 1_565 S
C925 C920 1.379 . S
C925 N923 1.356 . S
N926 C918 1.356 . S
N926 H932 0.984 . S
N926 H933 0.984 . S
N927 C920 1.356 . S
N927 H930 0.984 . S
N927 H931 0.985 . S
H928 N923 0.984 . S
H929 N923 0.985 . S
H930 N927 0.984 . S
H931 N927 0.985 . S
H932 N926 0.984 . S
H933 N926 0.984 . S
H934 N922 0.984 . S
H935 N922 0.985 . S
C936 C937 1.363 . S
C936 C942 1.379 . S
C936 N944 1.356 . S
C937 C936 1.363 . S
C937 C943 1.363 1_455 S
C938 C939 1.363 1_655 S
C938 C943 1.379 . S
C938 N945 1.356 . S
C939 C938 1.363 1_455 S
C939 C942 1.363 . S
N940 C942 1.356 . S
N940 H952 0.984 . S
N940 H953 0.985 . S
N941 C943 1.356 . S
N941 H946 0.984 . S
N941 H947 0.985 . S
C942 C936 1.379 . S
C942 C939 1.363 . S
C942 N940 1.356 . S
C943 C937 1.363 1_655 S
C943 C938 1.379 . S
C943 N941 1.356 . S
N944 C936 1.356 . S
N944 H950 0.984 . S
N944 H951 0.984 . S
N945 C938 1.356 . S
N945 H948 0.984 . S
N945 H949 0.985 . S
H946 N941 0.984 . S
H947 N941 0.985 . S
H948 N945 0.984 . S
H949 N945 0.985 . S
H950 N944 0.984 . S
H951 N944 0.984 . S
H952 N940 0.984 . S
H953 N940 0.985 . S
C954 C955 1.357 1_565 S
C954 C960 1.379 . S
C954 N962 1.356 . S
C955 C954 1.357 1_545 S
C955 C961 1.369 . S
C956 C957 1.368 . S
C956 C961 1.379 . S
C956 N963 1.356 . S
C957 C956 1.368 . S
C957 C960 1.358 1_545 S
N958 C960 1.356 . S
N958 H970 0.984 . S
N958 H971 0.985 . S
N959 C961 1.356 . S
N959 H964 0.984 . S
N959 H965 0.985 . S
C960 C954 1.379 . S
C960 C957 1.358 1_565 S
C960 N958 1.356 . S
C961 C955 1.369 . S
C961 C956 1.379 . S
C961 N959 1.356 . S
N962 C954 1.356 . S
N962 H968 0.984 . S
N962 H969 0.984 . S
N963 C956 1.356 . S
N963 H966 0.984 . S
N963 H967 0.985 . S
H964 N959 0.984 . S
H965 N959 0.985 . S
H966 N963 0.984 . S
H967 N963 0.985 . S
H968 N962 0.984 . S
H969 N962 0.984 . S
H970 N958 0.984 . S
H971 N958 0.985 . S
C972 C973 1.363 . S
C972 C978 1.379 . S
C972 N980 1.356 . S
C973 C972 1.363 . S
C973 C979 1.363 1_455 S
C974 C975 1.363 1_655 S
C974 C979 1.379 . S
C974 N981 1.356 . S
C975 C974 1.363 1_455 S
C975 C978 1.363 . S
N976 C978 1.356 . S
N976 H988 0.984 . S
N976 H989 0.985 . S
N977 C979 1.356 . S
N977 H982 0.984 . S
N977 H983 0.985 . S
C978 C972 1.379 . S
C978 C975 1.363 . S
C978 N976 1.356 . S
C979 C973 1.363 1_655 S
C979 C974 1.379 . S
C979 N977 1.356 . S
N980 C972 1.356 . S
N980 H986 0.984 . S
N980 H987 0.984 . S
N981 C974 1.356 . S
N981 H984 0.984 . S
N981 H985 0.985 . S
H982 N977 0.984 . S
H983 N977 0.985 . S
H984 N981 0.984 . S
H985 N981 0.985 . S
H986 N980 0.984 . S
H987 N980 0.984 . S
H988 N976 0.984 . S
H989 N976 0.985 . S
C990 C991 1.360 1_565 S
C990 C996 1.379 . S
C990 N998 1.356 . S
C991 C990 1.360 1_545 S
C991 C997 1.366 . S
C992 C993 1.367 . S
C992 C997 1.379 . S
C992 N999 1.356 . S
C993 C992 1.367 . S
C993 C996 1.359 1_545 S
N994 C996 1.356 . S
N994 H1006 0.984 . S
N994 H1007 0.985 . S
N995 C997 1.356 . S
N995 H1000 0.984 . S
N995 H1001 0.985 . S
C996 C990 1.379 . S
C996 C993 1.359 1_565 S
C996 N994 1.356 . S
C997 C991 1.366 . S
C997 C992 1.379 . S
C997 N995 1.356 . S
N998 C990 1.356 . S
N998 H1004 0.984 . S
N998 H1005 0.984 . S
N999 C992 1.356 . S
N999 H1002 0.984 . S
N999 H1003 0.985 . S
H1000 N995 0.984 . S
H1001 N995 0.985 . S
H1002 N999 0.984 . S
H1003 N999 0.985 . S
H1004 N998 0.984 . S
H1005 N998 0.984 . S
H1006 N994 0.984 . S
H1007 N994 0.985 . S
C1008 C1009 1.363 1_655 S
C1008 C1014 1.379 . S
C1008 N1016 1.356 . S
C1009 C1008 1.363 1_455 S
C1009 C1015 1.363 . S
C1010 C1011 1.363 . S
C1010 C1015 1.379 . S
C1010 N1017 1.356 . S
C1011 C1010 1.363 . S
C1011 C1014 1.363 1_455 S
N1012 C1014 1.356 . S
N1012 H1024 0.984 . S
N1012 H1025 0.985 . S
N1013 C1015 1.356 . S
N1013 H1018 0.984 . S
N1013 H1019 0.985 . S
C1014 C1008 1.379 . S
C1014 C1011 1.363 1_655 S
C1014 N1012 1.356 . S
C1015 C1009 1.363 . S
C1015 C1010 1.379 . S
C1015 N1013 1.356 . S
N1016 C1008 1.356 . S
N1016 H1022 0.984 . S
N1016 H1023 0.984 . S
N1017 C1010 1.356 . S
N1017 H1020 0.984 . S
N1017 H1021 0.985 . S
H1018 N1013 0.984 . S
H1019 N1013 0.985 . S
H1020 N1017 0.984 . S
H1021 N1017 0.985 . S
H1022 N1016 0.984 . S
H1023 N1016 0.984 . S
H1024 N1012 0.984 . S
H1025 N1012 0.985 . S
C1026 C1027 1.369 . S
C1026 C1032 1.379 . S
C1026 N1034 1.356 . S
C1027 C1026 1.369 . S
C1027 C1033 1.357 1_545 S
C1028 C1029 1.358 1_565 S
C1028 C1033 1.379 . S
C1028 N1035 1.356 . S
C1029 C1028 1.358 1_545 S
C1029 C1032 1.368 . S
N1030 C1032 1.356 . S
N1030 H1042 0.984 . S
N1030 H1043 0.985 . S
N1031 C1033 1.356 . S
N1031 H1036 0.984 . S
N1031 H1037 0.985 . S
C1032 C1026 1.379 . S
C1032 C1029 1.368 . S
C1032 N1030 1.356 . S
C1033 C1027 1.357 1_565 S
C1033 C1028 1.379 . S
C1033 N1031 1.356 . S
N1034 C1026 1.356 . S
N1034 H1040 0.984 . S
N1034 H1041 0.984 . S
N1035 C1028 1.356 . S
N1035 H1038 0.984 . S
N1035 H1039 0.985 . S
H1036 N1031 0.984 . S
H1037 N1031 0.985 . S
H1038 N1035 0.984 . S
H1039 N1035 0.985 . S
H1040 N1034 0.984 . S
H1041 N1034 0.984 . S
H1042 N1030 0.984 . S
H1043 N1030 0.985 . S
C1044 C1045 1.363 1_655 S
C1044 C1050 1.379 . S
C1044 N1052 1.356 . S
C1045 C1044 1.363 1_455 S
C1045 C1051 1.363 . S
C1046 C1047 1.363 . S
C1046 C1051 1.379 . S
C1046 N1053 1.356 . S
C1047 C1046 1.363 . S
C1047 C1050 1.363 1_455 S
N1048 C1050 1.356 . S
N1048 H1060 0.984 . S
N1048 H1061 0.985 . S
N1049 C1051 1.356 . S
N1049 H1054 0.984 . S
N1049 H1055 0.985 . S
C1050 C1044 1.379 . S
C1050 C1047 1.363 1_655 S
C1050 N1048 1.356 . S
C1051 C1045 1.363 . S
C1051 C1046 1.379 . S
C1051 N1049 1.356 . S
N1052 C1044 1.356 . S
N1052 H1058 0.984 . S
N1052 H1059 0.984 . S
N1053 C1046 1.356 . S
N1053 H1056 0.984 . S
N1053 H1057 0.985 . S
H1054 N1049 0.984 . S
H1055 N1049 0.985 . S
H1056 N1053 0.984 . S
H1057 N1053 0.985 . S
H1058 N1052 0.984 . S
H1059 N1052 0.984 . S
H1060 N1048 0.984 . S
H1061 N1048 0.985 . S
C1062 C1063 1.360 1_565 S
C1062 C1068 1.379 . S
C1062 N1070 1.356 . S
C1063 C1062 1.360 1_545 S
C1063 C1069 1.366 . S
C1064 C1065 1.367 . S
C1064 C1069 1.379 . S
C1064 N1071 1.356 . S
C1065 C1064 1.367 . S
C1065 C1068 1.359 1_545 S
N1066 C1068 1.356 . S
N1066 H1078 0.984 . S
N1066 H1079 0.985 . S
N1067 C1069 1.356 . S
N1067 H1072 0.984 . S
N1067 H1073 0.985 . S
C1068 C1062 1.379 . S
C1068 C1065 1.359 1_565 S
C1068 N1066 1.356 . S
C1069 C1063 1.366 . S
C1069 C1064 1.379 . S
C1069 N1067 1.356 . S
N1070 C1062 1.356 . S
N1070 H1076 0.984 . S
N1070 H1077 0.984 . S
N1071 C1064 1.356 . S
N1071 H1074 0.984 . S
N1071 H1075 0.985 . S
H1072 N1067 0.984 . S
H1073 N1067 0.985 . S
H1074 N1071 0.984 . S
H1075 N1071 0.985 . S
H1076 N1070 0.984 . S
H1077 N1070 0.984 . S
H1078 N1066 0.984 . S
H1079 N1066 0.985 . S
C1080 C1081 1.363 . S
C1080 C1086 1.379 . S
C1080 N1088 1.356 . S
C1081 C1080 1.363 . S
C1081 C1087 1.363 1_455 S
C1082 C1083 1.363 1_655 S
C1082 C1087 1.379 . S
C1082 N1089 1.356 . S
C1083 C1082 1.363 1_455 S
C1083 C1086 1.363 . S
N1084 C1086 1.356 . S
N1084 H1096 0.984 . S
N1084 H1097 0.985 . S
N1085 C1087 1.356 . S
N1085 H1090 0.984 . S
N1085 H1091 0.985 . S
C1086 C1080 1.379 . S
C1086 C1083 1.363 . S
C1086 N1084 1.356 . S
C1087 C1081 1.363 1_655 S
C1087 C1082 1.379 . S
C1087 N1085 1.356 . S
N1088 C1080 1.356 . S
N1088 H1094 0.984 . S
N1088 H1095 0.984 . S
N1089 C1082 1.356 . S
N1089 H1092 0.984 . S
N1089 H1093 0.985 . S
H1090 N1085 0.984 . S
H1091 N1085 0.985 . S
H1092 N1089 0.984 . S
H1093 N1089 0.985 . S
H1094 N1088 0.984 . S
H1095 N1088 0.984 . S
H1096 N1084 0.984 . S
H1097 N1084 0.985 . S
C1098 C1099 1.357 1_565 S
C1098 C1104 1.379 . S
C1098 N1106 1.356 . S
C1099 C1098 1.357 1_545 S
C1099 C1105 1.369 . S
C1100 C1101 1.367 . S
C1100 C1105 1.379 . S
C1100 N1107 1.356 . S
C1101 C1100 1.367 . S
C1101 C1104 1.359 1_545 S
N1102 C1104 1.356 . S
N1102 H1114 0.984 . S
N1102 H1115 0.985 . S
N1103 C1105 1.356 . S
N1103 H1108 0.984 . S
N1103 H1109 0.985 . S
C1104 C1098 1.379 . S
C1104 C1101 1.359 1_565 S
C1104 N1102 1.356 . S
C1105 C1099 1.369 . S
C1105 C1100 1.379 . S
C1105 N1103 1.356 . S
N1106 C1098 1.356 . S
N1106 H1112 0.984 . S
N1106 H1113 0.984 . S
N1107 C1100 1.356 . S
N1107 H1110 0.984 . S
N1107 H1111 0.985 . S
H1108 N1103 0.984 . S
H1109 N1103 0.985 . S
H1110 N1107 0.984 . S
H1111 N1107 0.985 . S
H1112 N1106 0.984 . S
H1113 N1106 0.984 . S
H1114 N1102 0.984 . S
H1115 N1102 0.985 . S
C1116 C1117 1.363 . S
C1116 C1122 1.379 . S
C1116 N1124 1.356 . S
C1117 C1116 1.363 . S
C1117 C1123 1.363 1_455 S
C1118 C1119 1.363 1_655 S
C1118 C1123 1.379 . S
C1118 N1125 1.356 . S
C1119 C1118 1.363 1_455 S
C1119 C1122 1.363 . S
N1120 C1122 1.356 . S
N1120 H1132 0.984 . S
N1120 H1133 0.985 . S
N1121 C1123 1.356 . S
N1121 H1126 0.984 . S
N1121 H1127 0.985 . S
C1122 C1116 1.379 . S
C1122 C1119 1.363 . S
C1122 N1120 1.356 . S
C1123 C1117 1.363 1_655 S
C1123 C1118 1.379 . S
C1123 N1121 1.356 . S
N1124 C1116 1.356 . S
N1124 H1130 0.984 . S
N1124 H1131 0.984 . S
N1125 C1118 1.356 . S
N1125 H1128 0.984 . S
N1125 H1129 0.985 . S
H1126 N1121 0.984 . S
H1127 N1121 0.985 . S
H1128 N1125 0.984 . S
H1129 N1125 0.985 . S
H1130 N1124 0.984 . S
H1131 N1124 0.984 . S
H1132 N1120 0.984 . S
H1133 N1120 0.985 . S
C1134 C1135 1.367 . S
C1134 C1140 1.379 . S
C1134 N1142 1.356 . S
C1135 C1134 1.367 . S
C1135 C1141 1.359 1_545 S
C1136 C1137 1.358 1_565 S
C1136 C1141 1.379 . S
C1136 N1143 1.356 . S
C1137 C1136 1.358 1_545 S
C1137 C1140 1.368 . S
N1138 C1140 1.356 . S
N1138 H1150 0.984 . S
N1138 H1151 0.985 . S
N1139 C1141 1.356 . S
N1139 H1144 0.984 . S
N1139 H1145 0.985 . S
C1140 C1134 1.379 . S
C1140 C1137 1.368 . S
C1140 N1138 1.356 . S
C1141 C1135 1.359 1_565 S
C1141 C1136 1.379 . S
C1141 N1139 1.356 . S
N1142 C1134 1.356 . S
N1142 H1148 0.984 . S
N1142 H1149 0.984 . S
N1143 C1136 1.356 . S
N1143 H1146 0.984 . S
N1143 H1147 0.985 . S
H1144 N1139 0.984 . S
H1145 N1139 0.985 . S
H1146 N1143 0.984 . S
H1147 N1143 0.985 . S
H1148 N1142 0.984 . S
H1149 N1142 0.984 . S
H1150 N1138 0.984 . S
H1151 N1138 0.985 . S
C1152 C1153 1.363 . S
C1152 C1158 1.379 . S
C1152 N1160 1.356 . S
C1153 C1152 1.363 . S
C1153 C1159 1.363 1_455 S
C1154 C1155 1.363 1_655 S
C1154 C1159 1.379 . S
C1154 N1161 1.356 . S
C1155 C1154 1.363 1_455 S
C1155 C1158 1.363 . S
N1156 C1158 1.356 . S
N1156 H1168 0.984 . S
N1156 H1169 0.985 . S
N1157 C1159 1.356 . S
N1157 H1162 0.984 . S
N1157 H1163 0.985 . S
C1158 C1152 1.379 . S
C1158 C1155 1.363 . S
C1158 N1156 1.356 . S
C1159 C1153 1.363 1_655 S
C1159 C1154 1.379 . S
C1159 N1157 1.356 . S
N1160 C1152 1.356 . S
N1160 H1166 0.984 . S
N1160 H1167 0.984 . S
N1161 C1154 1.356 . S
N1161 H1164 0.984 . S
N1161 H1165 0.985 . S
H1162 N1157 0.984 . S
H1163 N1157 0.985 . S
H1164 N1161 0.984 . S
H1165 N1161 0.985 . S
H1166 N1160 0.984 . S
H1167 N1160 0.984 . S
H1168 N1156 0.984 . S
H1169 N1156 0.985 . S
C1170 C1171 1.369 . S
C1170 C1176 1.379 . S
C1170 N1178 1.356 . S
C1171 C1170 1.369 . S
C1171 C1177 1.357 1_545 S
C1172 C1173 1.357 1_565 S
C1172 C1177 1.379 . S
C1172 N1179 1.356 . S
C1173 C1172 1.357 1_545 S
C1173 C1176 1.369 . S
N1174 C1176 1.356 . S
N1174 H1186 0.984 . S
N1174 H1187 0.985 . S
N1175 C1177 1.356 . S
N1175 H1180 0.984 . S
N1175 H1181 0.985 . S
C1176 C1170 1.379 . S
C1176 C1173 1.369 . S
C1176 N1174 1.356 . S
C1177 C1171 1.357 1_565 S
C1177 C1172 1.379 . S
C1177 N1175 1.356 . S
N1178 C1170 1.356 . S
N1178 H1184 0.984 . S
N1178 H1185 0.984 . S
N1179 C1172 1.356 . S
N1179 H1182 0.984 . S
N1179 H1183 0.985 . S
H1180 N1175 0.984 . S
H1181 N1175 0.985 . S
H1182 N1179 0.984 . S
H1183 N1179 0.985 . S
H1184 N1178 0.984 . S
H1185 N1178 0.984 . S
H1186 N1174 0.984 . S
H1187 N1174 0.985 . S
C1188 C1189 1.367 . S
C1188 C1194 1.379 . S
C1188 N1196 1.356 . S
C1189 C1188 1.367 . S
C1189 C1195 1.359 1_545 S
C1190 C1191 1.364 1_565 S
C1190 C1195 1.379 . S
C1190 N1197 1.356 . S
C1191 C1190 1.364 1_545 S
C1191 C1194 1.362 . S
N1192 C1194 1.356 . S
N1192 H1204 0.984 . S
N1192 H1205 0.985 . S
N1193 C1195 1.356 . S
N1193 H1198 0.984 . S
N1193 H1199 0.985 . S
C1194 C1188 1.379 . S
C1194 C1191 1.362 . S
C1194 N1192 1.356 . S
C1195 C1189 1.359 1_565 S
C1195 C1190 1.379 . S
C1195 N1193 1.356 . S
N1196 C1188 1.356 . S
N1196 H1202 0.984 . S
N1196 H1203 0.984 . S
N1197 C1190 1.356 . S
N1197 H1200 0.984 . S
N1197 H1201 0.985 . S
H1198 N1193 0.984 . S
H1199 N1193 0.985 . S
H1200 N1197 0.984 . S
H1201 N1197 0.985 . S
H1202 N1196 0.984 . S
H1203 N1196 0.984 . S
H1204 N1192 0.984 . S
H1205 N1192 0.985 . S
C1206 C1207 1.363 1_655 S
C1206 C1212 1.379 . S
C1206 N1214 1.356 . S
C1207 C1206 1.363 1_455 S
C1207 C1213 1.363 . S
C1208 C1209 1.363 . S
C1208 C1213 1.379 . S
C1208 N1215 1.356 . S
C1209 C1208 1.363 . S
C1209 C1212 1.363 1_455 S
N1210 C1212 1.356 . S
N1210 H1222 0.984 . S
N1210 H1223 0.985 . S
N1211 C1213 1.356 . S
N1211 H1216 0.984 . S
N1211 H1217 0.985 . S
C1212 C1206 1.379 . S
C1212 C1209 1.363 1_655 S
C1212 N1210 1.356 . S
C1213 C1207 1.363 . S
C1213 C1208 1.379 . S
C1213 N1211 1.356 . S
N1214 C1206 1.356 . S
N1214 H1220 0.984 . S
N1214 H1221 0.984 . S
N1215 C1208 1.356 . S
N1215 H1218 0.984 . S
N1215 H1219 0.985 . S
H1216 N1211 0.984 . S
H1217 N1211 0.985 . S
H1218 N1215 0.984 . S
H1219 N1215 0.985 . S
H1220 N1214 0.984 . S
H1221 N1214 0.984 . S
H1222 N1210 0.984 . S
H1223 N1210 0.985 . S
C1224 C1225 1.365 . S
C1224 C1230 1.379 . S
C1224 N1232 1.356 . S
C1225 C1224 1.365 . S
C1225 C1231 1.361 1_545 S
C1226 C1227 1.365 1_565 S
C1226 C1231 1.379 . S
C1226 N1233 1.356 . S
C1227 C1226 1.365 1_545 S
C1227 C1230 1.361 . S
N1228 C1230 1.356 . S
N1228 H1240 0.984 . S
N1228 H1241 0.985 . S
N1229 C1231 1.356 . S
N1229 H1234 0.984 . S
N1229 H1235 0.985 . S
C1230 C1224 1.379 . S
C1230 C1227 1.361 . S
C1230 N1228 1.356 . S
C1231 C1225 1.361 1_565 S
C1231 C1226 1.379 . S
C1231 N1229 1.356 . S
N1232 C1224 1.356 . S
N1232 H1238 0.984 . S
N1232 H1239 0.984 . S
N1233 C1226 1.356 . S
N1233 H1236 0.984 . S
N1233 H1237 0.985 . S
H1234 N1229 0.984 . S
H1235 N1229 0.985 . S
H1236 N1233 0.984 . S
H1237 N1233 0.985 . S
H1238 N1232 0.984 . S
H1239 N1232 0.984 . S
H1240 N1228 0.984 . S
H1241 N1228 0.985 . S
C1242 C1243 1.363 . S
C1242 C1248 1.379 . S
C1242 N1250 1.356 . S
C1243 C1242 1.363 . S
C1243 C1249 1.363 1_455 S
C1244 C1245 1.363 1_655 S
C1244 C1249 1.379 . S
C1244 N1251 1.356 . S
C1245 C1244 1.363 1_455 S
C1245 C1248 1.363 . S
N1246 C1248 1.356 . S
N1246 H1258 0.984 . S
N1246 H1259 0.985 . S
N1247 C1249 1.356 . S
N1247 H1252 0.984 . S
N1247 H1253 0.985 . S
C1248 C1242 1.379 . S
C1248 C1245 1.363 . S
C1248 N1246 1.356 . S
C1249 C1243 1.363 1_655 S
C1249 C1244 1.379 . S
C1249 N1247 1.356 . S
N1250 C1242 1.356 . S
N1250 H1256 0.984 . S
N1250 H1257 0.984 . S
N1251 C1244 1.356 . S
N1251 H1254 0.984 . S
N1251 H1255 0.985 . S
H1252 N1247 0.984 . S
H1253 N1247 0.985 . S
H1254 N1251 0.984 . S
H1255 N1251 0.985 . S
H1256 N1250 0.984 . S
H1257 N1250 0.984 . S
H1258 N1246 0.984 . S
H1259 N1246 0.985 . S
C1260 C1261 1.358 1_565 S
C1260 C1266 1.379 . S
C1260 N1268 1.356 . S
C1261 C1260 1.358 1_545 S
C1261 C1267 1.368 . S
C1262 C1263 1.374 . S
C1262 C1267 1.379 . S
C1262 N1269 1.356 . S
C1263 C1262 1.374 . S
C1263 C1266 1.352 1_545 S
N1264 C1266 1.356 . S
N1264 H1276 0.984 . S
N1264 H1277 0.985 . S
N1265 C1267 1.356 . S
N1265 H1270 0.984 . S
N1265 H1271 0.985 . S
C1266 C1260 1.379 . S
C1266 C1263 1.352 1_565 S
C1266 N1264 1.356 . S
C1267 C1261 1.368 . S
C1267 C1262 1.379 . S
C1267 N1265 1.356 . S
N1268 C1260 1.356 . S
N1268 H1274 0.984 . S
N1268 H1275 0.984 . S
N1269 C1262 1.356 . S
N1269 H1272 0.984 . S
N1269 H1273 0.985 . S
H1270 N1265 0.984 . S
H1271 N1265 0.985 . S
H1272 N1269 0.984 . S
H1273 N1269 0.985 . S
H1274 N1268 0.984 . S
H1275 N1268 0.984 . S
H1276 N1264 0.984 . S
H1277 N1264 0.985 . S
C1278 C1279 1.363 1_655 S
C1278 C1284 1.379 . S
C1278 N1286 1.356 . S
C1279 C1278 1.363 1_455 S
C1279 C1285 1.363 . S
C1280 C1281 1.363 . S
C1280 C1285 1.379 . S
C1280 N1287 1.356 . S
C1281 C1280 1.363 . S
C1281 C1284 1.363 1_455 S
N1282 C1284 1.356 . S
N1282 H1294 0.984 . S
N1282 H1295 0.985 . S
N1283 C1285 1.356 . S
N1283 H1288 0.984 . S
N1283 H1289 0.985 . S
C1284 C1278 1.379 . S
C1284 C1281 1.363 1_655 S
C1284 N1282 1.356 . S
C1285 C1279 1.363 . S
C1285 C1280 1.379 . S
C1285 N1283 1.356 . S
N1286 C1278 1.356 . S
N1286 H1292 0.984 . S
N1286 H1293 0.984 . S
N1287 C1280 1.356 . S
N1287 H1290 0.984 . S
N1287 H1291 0.985 . S
H1288 N1283 0.984 . S
H1289 N1283 0.985 . S
H1290 N1287 0.984 . S
H1291 N1287 0.985 . S
H1292 N1286 0.984 . S
H1293 N1286 0.984 . S
H1294 N1282 0.984 . S
H1295 N1282 0.985 . S
C1296 C1297 1.371 . S
C1296 C1302 1.379 . S
C1296 N1304 1.356 . S
C1297 C1296 1.371 . S
C1297 C1303 1.356 1_545 S
C1298 C1299 1.352 1_565 S
C1298 C1303 1.379 . S
C1298 N1305 1.356 . S
C1299 C1298 1.352 1_545 S
C1299 C1302 1.374 . S
N1300 C1302 1.356 . S
N1300 H1312 0.984 . S
N1300 H1313 0.985 . S
N1301 C1303 1.356 . S
N1301 H1306 0.984 . S
N1301 H1307 0.985 . S
C1302 C1296 1.379 . S
C1302 C1299 1.374 . S
C1302 N1300 1.356 . S
C1303 C1297 1.356 1_565 S
C1303 C1298 1.379 . S
C1303 N1301 1.356 . S
N1304 C1296 1.356 . S
N1304 H1310 0.984 . S
N1304 H1311 0.984 . S
N1305 C1298 1.356 . S
N1305 H1308 0.984 . S
N1305 H1309 0.985 . S
H1306 N1301 0.984 . S
H1307 N1301 0.985 . S
H1308 N1305 0.984 . S
H1309 N1305 0.985 . S
H1310 N1304 0.984 . S
H1311 N1304 0.984 . S
H1312 N1300 0.984 . S
H1313 N1300 0.985 . S
C1314 C1315 1.363 . S
C1314 C1320 1.379 . S
C1314 N1322 1.356 . S
C1315 C1314 1.363 . S
C1315 C1321 1.363 1_455 S
C1316 C1317 1.363 1_655 S
C1316 C1321 1.379 . S
C1316 N1323 1.356 . S
C1317 C1316 1.363 1_455 S
C1317 C1320 1.363 . S
N1318 C1320 1.356 . S
N1318 H1330 0.984 . S
N1318 H1331 0.985 . S
N1319 C1321 1.356 . S
N1319 H1324 0.984 . S
N1319 H1325 0.985 . S
C1320 C1314 1.379 . S
C1320 C1317 1.363 . S
C1320 N1318 1.356 . S
C1321 C1315 1.363 1_655 S
C1321 C1316 1.379 . S
C1321 N1319 1.356 . S
N1322 C1314 1.356 . S
N1322 H1328 0.984 . S
N1322 H1329 0.984 . S
N1323 C1316 1.356 . S
N1323 H1326 0.984 . S
N1323 H1327 0.985 . S
H1324 N1319 0.984 . S
H1325 N1319 0.985 . S
H1326 N1323 0.984 . S
H1327 N1323 0.985 . S
H1328 N1322 0.984 . S
H1329 N1322 0.984 . S
H1330 N1318 0.984 . S
H1331 N1318 0.985 . S
C1332 C1333 1.369 . S
C1332 C1338 1.379 . S
C1332 N1340 1.356 . S
C1333 C1332 1.369 . S
C1333 C1339 1.357 1_554 S
C1334 C1335 1.358 1_556 S
C1334 C1339 1.379 . S
C1334 N1341 1.356 . S
C1335 C1334 1.358 1_554 S
C1335 C1338 1.368 . S
N1336 C1338 1.356 . S
N1336 H1348 0.984 . S
N1336 H1349 0.985 . S
N1337 C1339 1.356 . S
N1337 H1342 0.984 . S
N1337 H1343 0.985 . S
C1338 C1332 1.379 . S
C1338 C1335 1.368 . S
C1338 N1336 1.356 . S
C1339 C1333 1.357 1_556 S
C1339 C1334 1.379 . S
C1339 N1337 1.356 . S
N1340 C1332 1.356 . S
N1340 H1346 0.984 . S
N1340 H1347 0.984 . S
N1341 C1334 1.356 . S
N1341 H1344 0.984 . S
N1341 H1345 0.985 . S
H1342 N1337 0.984 . S
H1343 N1337 0.985 . S
H1344 N1341 0.984 . S
H1345 N1341 0.985 . S
H1346 N1340 0.984 . S
H1347 N1340 0.984 . S
H1348 N1336 0.984 . S
H1349 N1336 0.985 . S
C1350 C1351 1.367 . S
C1350 C1356 1.379 . S
C1350 N1358 1.356 . S
C1351 C1350 1.367 . S
C1351 C1357 1.359 1_554 S
C1352 C1353 1.359 1_556 S
C1352 C1357 1.379 . S
C1352 N1359 1.356 . S
C1353 C1352 1.359 1_554 S
C1353 C1356 1.368 . S
N1354 C1356 1.356 . S
N1354 H1366 0.984 . S
N1354 H1367 0.985 . S
N1355 C1357 1.356 . S
N1355 H1360 0.984 . S
N1355 H1361 0.985 . S
C1356 C1350 1.379 . S
C1356 C1353 1.368 . S
C1356 N1354 1.356 . S
C1357 C1351 1.359 1_556 S
C1357 C1352 1.379 . S
C1357 N1355 1.356 . S
N1358 C1350 1.356 . S
N1358 H1364 0.984 . S
N1358 H1365 0.984 . S
N1359 C1352 1.356 . S
N1359 H1362 0.984 . S
N1359 H1363 0.985 . S
H1360 N1355 0.984 . S
H1361 N1355 0.985 . S
H1362 N1359 0.984 . S
H1363 N1359 0.985 . S
H1364 N1358 0.984 . S
H1365 N1358 0.984 . S
H1366 N1354 0.984 . S
H1367 N1354 0.985 . S
C1368 C1369 1.356 1_556 S
C1368 C1374 1.379 . S
C1368 N1376 1.356 . S
C1369 C1368 1.356 1_554 S
C1369 C1375 1.370 . S
C1370 C1371 1.374 . S
C1370 C1375 1.379 . S
C1370 N1377 1.356 . S
C1371 C1370 1.374 . S
C1371 C1374 1.352 1_554 S
N1372 C1374 1.356 . S
N1372 H1384 0.984 . S
N1372 H1385 0.985 . S
N1373 C1375 1.356 . S
N1373 H1378 0.984 . S
N1373 H1379 0.985 . S
C1374 C1368 1.379 . S
C1374 C1371 1.352 1_556 S
C1374 N1372 1.356 . S
C1375 C1369 1.370 . S
C1375 C1370 1.379 . S
C1375 N1373 1.356 . S
N1376 C1368 1.356 . S
N1376 H1382 0.984 . S
N1376 H1383 0.984 . S
N1377 C1370 1.356 . S
N1377 H1380 0.984 . S
N1377 H1381 0.985 . S
H1378 N1373 0.984 . S
H1379 N1373 0.985 . S
H1380 N1377 0.984 . S
H1381 N1377 0.985 . S
H1382 N1376 0.984 . S
H1383 N1376 0.984 . S
H1384 N1372 0.984 . S
H1385 N1372 0.985 . S
C1386 C1387 1.369 . S
C1386 C1392 1.379 . S
C1386 N1394 1.356 . S
C1387 C1386 1.369 . S
C1387 C1393 1.357 1_554 S
C1388 C1389 1.358 1_556 S
C1388 C1393 1.379 . S
C1388 N1395 1.356 . S
C1389 C1388 1.358 1_554 S
C1389 C1392 1.368 . S
N1390 C1392 1.356 . S
N1390 H1402 0.984 . S
N1390 H1403 0.985 . S
N1391 C1393 1.356 . S
N1391 H1396 0.984 . S
N1391 H1397 0.985 . S
C1392 C1386 1.379 . S
C1392 C1389 1.368 . S
C1392 N1390 1.356 . S
C1393 C1387 1.357 1_556 S
C1393 C1388 1.379 . S
C1393 N1391 1.356 . S
N1394 C1386 1.356 . S
N1394 H1400 0.984 . S
N1394 H1401 0.984 . S
N1395 C1388 1.356 . S
N1395 H1398 0.984 . S
N1395 H1399 0.985 . S
H1396 N1391 0.984 . S
H1397 N1391 0.985 . S
H1398 N1395 0.984 . S
H1399 N1395 0.985 . S
H1400 N1394 0.984 . S
H1401 N1394 0.984 . S
H1402 N1390 0.984 . S
H1403 N1390 0.985 . S
C1404 C1405 1.360 1_556 S
C1404 C1410 1.379 . S
C1404 N1412 1.356 . S
C1405 C1404 1.360 1_554 S
C1405 C1411 1.366 . S
C1406 C1407 1.361 . S
C1406 C1411 1.379 . S
C1406 N1413 1.356 . S
C1407 C1406 1.361 . S
C1407 C1410 1.365 1_554 S
N1408 C1410 1.356 . S
N1408 H1420 0.984 . S
N1408 H1421 0.985 . S
N1409 C1411 1.356 . S
N1409 H1414 0.984 . S
N1409 H1415 0.985 . S
C1410 C1404 1.379 . S
C1410 C1407 1.365 1_556 S
C1410 N1408 1.356 . S
C1411 C1405 1.366 . S
C1411 C1406 1.379 . S
C1411 N1409 1.356 . S
N1412 C1404 1.356 . S
N1412 H1418 0.984 . S
N1412 H1419 0.984 . S
N1413 C1406 1.356 . S
N1413 H1416 0.984 . S
N1413 H1417 0.985 . S
H1414 N1409 0.984 . S
H1415 N1409 0.985 . S
H1416 N1413 0.984 . S
H1417 N1413 0.985 . S
H1418 N1412 0.984 . S
H1419 N1412 0.984 . S
H1420 N1408 0.984 . S
H1421 N1408 0.985 . S
C1422 C1423 1.367 . S
C1422 C1428 1.379 . S
C1422 N1430 1.356 . S
C1423 C1422 1.367 . S
C1423 C1429 1.359 1_554 S
C1424 C1425 1.359 1_556 S
C1424 C1429 1.379 . S
C1424 N1431 1.356 . S
C1425 C1424 1.359 1_554 S
C1425 C1428 1.367 . S
N1426 C1428 1.356 . S
N1426 H1438 0.984 . S
N1426 H1439 0.985 . S
N1427 C1429 1.356 . S
N1427 H1432 0.984 . S
N1427 H1433 0.985 . S
C1428 C1422 1.379 . S
C1428 C1425 1.367 . S
C1428 N1426 1.356 . S
C1429 C1423 1.359 1_556 S
C1429 C1424 1.379 . S
C1429 N1427 1.356 . S
N1430 C1422 1.356 . S
N1430 H1436 0.984 . S
N1430 H1437 0.984 . S
N1431 C1424 1.356 . S
N1431 H1434 0.984 . S
N1431 H1435 0.985 . S
H1432 N1427 0.984 . S
H1433 N1427 0.985 . S
H1434 N1431 0.984 . S
H1435 N1431 0.985 . S
H1436 N1430 0.984 . S
H1437 N1430 0.984 . S
H1438 N1426 0.984 . S
H1439 N1426 0.985 . S
C1440 C1441 1.366 . S
C1440 C1446 1.379 . S
C1440 N1448 1.356 . S
C1441 C1440 1.366 . S
C1441 C1447 1.360 1_554 S
C1442 C1443 1.365 1_556 S
C1442 C1447 1.379 . S
C1442 N1449 1.356 . S
C1443 C1442 1.365 1_554 S
C1443 C1446 1.361 . S
N1444 C1446 1.356 . S
N1444 H1456 0.984 . S
N1444 H1457 0.985 . S
N1445 C1447 1.356 . S
N1445 H1450 0.984 . S
N1445 H1451 0.985 . S
C1446 C1440 1.379 . S
C1446 C1443 1.361 . S
C1446 N1444 1.356 . S
C1447 C1441 1.360 1_556 S
C1447 C1442 1.379 . S
C1447 N1445 1.356 . S
N1448 C1440 1.356 . S
N1448 H1454 0.984 . S
N1448 H1455 0.984 . S
N1449 C1442 1.356 . S
N1449 H1452 0.984 . S
N1449 H1453 0.985 . S
H1450 N1445 0.984 . S
H1451 N1445 0.985 . S
H1452 N1449 0.984 . S
H1453 N1449 0.985 . S
H1454 N1448 0.984 . S
H1455 N1448 0.984 . S
H1456 N1444 0.984 . S
H1457 N1444 0.985 . S
C1458 C1459 1.370 . S
C1458 C1464 1.379 . S
C1458 N1466 1.356 . S
C1459 C1458 1.370 . S
C1459 C1465 1.356 1_554 S
C1460 C1461 1.352 1_556 S
C1460 C1465 1.379 . S
C1460 N1467 1.356 . S
C1461 C1460 1.352 1_554 S
C1461 C1464 1.374 . S
N1462 C1464 1.356 . S
N1462 H1474 0.984 . S
N1462 H1475 0.985 . S
N1463 C1465 1.356 . S
N1463 H1468 0.984 . S
N1463 H1469 0.985 . S
C1464 C1458 1.379 . S
C1464 C1461 1.374 . S
C1464 N1462 1.356 . S
C1465 C1459 1.356 1_556 S
C1465 C1460 1.379 . S
C1465 N1463 1.356 . S
N1466 C1458 1.356 . S
N1466 H1472 0.984 . S
N1466 H1473 0.984 . S
N1467 C1460 1.356 . S
N1467 H1470 0.984 . S
N1467 H1471 0.985 . S
H1468 N1463 0.984 . S
H1469 N1463 0.985 . S
H1470 N1467 0.984 . S
H1471 N1467 0.985 . S
H1472 N1466 0.984 . S
H1473 N1466 0.984 . S
H1474 N1462 0.984 . S
H1475 N1462 0.985 . S
C1476 C1477 1.363 . S
C1476 C1482 1.379 . S
C1476 N1484 1.356 . S
C1477 C1476 1.363 . S
C1477 C1483 1.363 . S
C1478 C1479 1.363 . S
C1478 C1483 1.379 . S
C1478 N1485 1.356 . S
C1479 C1478 1.363 . S
C1479 C1482 1.363 . S
N1480 C1482 1.356 . S
N1480 H1492 0.984 . S
N1480 H1493 0.985 . S
N1481 C1483 1.356 . S
N1481 H1486 0.984 . S
N1481 H1487 0.985 . S
C1482 C1476 1.379 . S
C1482 C1479 1.363 . S
C1482 N1480 1.356 . S
C1483 C1477 1.363 . S
C1483 C1478 1.379 . S
C1483 N1481 1.356 . S
N1484 C1476 1.356 . S
N1484 H1490 0.984 . S
N1484 H1491 0.984 . S
N1485 C1478 1.356 . S
N1485 H1488 0.984 . S
N1485 H1489 0.985 . S
H1486 N1481 0.984 . S
H1487 N1481 0.985 . S
H1488 N1485 0.984 . S
H1489 N1485 0.985 . S
H1490 N1484 0.984 . S
H1491 N1484 0.984 . S
H1492 N1480 0.984 . S
H1493 N1480 0.985 . S
C1494 C1495 1.363 . S
C1494 C1500 1.379 . S
C1494 N1502 1.356 . S
C1495 C1494 1.363 . S
C1495 C1501 1.363 . S
C1496 C1497 1.363 . S
C1496 C1501 1.379 . S
C1496 N1503 1.356 . S
C1497 C1496 1.363 . S
C1497 C1500 1.363 . S
N1498 C1500 1.356 . S
N1498 H1510 0.984 . S
N1498 H1511 0.985 . S
N1499 C1501 1.356 . S
N1499 H1504 0.984 . S
N1499 H1505 0.985 . S
C1500 C1494 1.379 . S
C1500 C1497 1.363 . S
C1500 N1498 1.356 . S
C1501 C1495 1.363 . S
C1501 C1496 1.379 . S
C1501 N1499 1.356 . S
N1502 C1494 1.356 . S
N1502 H1508 0.984 . S
N1502 H1509 0.984 . S
N1503 C1496 1.356 . S
N1503 H1506 0.984 . S
N1503 H1507 0.985 . S
H1504 N1499 0.984 . S
H1505 N1499 0.985 . S
H1506 N1503 0.984 . S
H1507 N1503 0.985 . S
H1508 N1502 0.984 . S
H1509 N1502 0.984 . S
H1510 N1498 0.984 . S
H1511 N1498 0.985 . S
C1512 C1513 1.363 . S
C1512 C1518 1.379 . S
C1512 N1520 1.356 . S
C1513 C1512 1.363 . S
C1513 C1519 1.363 . S
C1514 C1515 1.363 . S
C1514 C1519 1.379 . S
C1514 N1521 1.356 . S
C1515 C1514 1.363 . S
C1515 C1518 1.363 . S
N1516 C1518 1.356 . S
N1516 H1528 0.984 . S
N1516 H1529 0.985 . S
N1517 C1519 1.356 . S
N1517 H1522 0.984 . S
N1517 H1523 0.985 . S
C1518 C1512 1.379 . S
C1518 C1515 1.363 . S
C1518 N1516 1.356 . S
C1519 C1513 1.363 . S
C1519 C1514 1.379 . S
C1519 N1517 1.356 . S
N1520 C1512 1.356 . S
N1520 H1526 0.984 . S
N1520 H1527 0.984 . S
N1521 C1514 1.356 . S
N1521 H1524 0.984 . S
N1521 H1525 0.985 . S
H1522 N1517 0.984 . S
H1523 N1517 0.985 . S
H1524 N1521 0.984 . S
H1525 N1521 0.985 . S
H1526 N1520 0.984 . S
H1527 N1520 0.984 . S
H1528 N1516 0.984 . S
H1529 N1516 0.985 . S
C1530 C1531 1.363 . S
C1530 C1536 1.379 . S
C1530 N1538 1.356 . S
C1531 C1530 1.363 . S
C1531 C1537 1.363 . S
C1532 C1533 1.363 . S
C1532 C1537 1.379 . S
C1532 N1539 1.356 . S
C1533 C1532 1.363 . S
C1533 C1536 1.363 . S
N1534 C1536 1.356 . S
N1534 H1546 0.984 . S
N1534 H1547 0.985 . S
N1535 C1537 1.356 . S
N1535 H1540 0.984 . S
N1535 H1541 0.985 . S
C1536 C1530 1.379 . S
C1536 C1533 1.363 . S
C1536 N1534 1.356 . S
C1537 C1531 1.363 . S
C1537 C1532 1.379 . S
C1537 N1535 1.356 . S
N1538 C1530 1.356 . S
N1538 H1544 0.984 . S
N1538 H1545 0.984 . S
N1539 C1532 1.356 . S
N1539 H1542 0.984 . S
N1539 H1543 0.985 . S
H1540 N1535 0.984 . S
H1541 N1535 0.985 . S
H1542 N1539 0.984 . S
H1543 N1539 0.985 . S
H1544 N1538 0.984 . S
H1545 N1538 0.984 . S
H1546 N1534 0.984 . S
H1547 N1534 0.985 . S
C1548 C1549 1.363 . S
C1548 C1554 1.379 . S
C1548 N1556 1.356 . S
C1549 C1548 1.363 . S
C1549 C1555 1.363 . S
C1550 C1551 1.363 . S
C1550 C1555 1.379 . S
C1550 N1557 1.356 . S
C1551 C1550 1.363 . S
C1551 C1554 1.363 . S
N1552 C1554 1.356 . S
N1552 H1564 0.984 . S
N1552 H1565 0.985 . S
N1553 C1555 1.356 . S
N1553 H1558 0.984 . S
N1553 H1559 0.985 . S
C1554 C1548 1.379 . S
C1554 C1551 1.363 . S
C1554 N1552 1.356 . S
C1555 C1549 1.363 . S
C1555 C1550 1.379 . S
C1555 N1553 1.356 . S
N1556 C1548 1.356 . S
N1556 H1562 0.984 . S
N1556 H1563 0.984 . S
N1557 C1550 1.356 . S
N1557 H1560 0.984 . S
N1557 H1561 0.985 . S
H1558 N1553 0.984 . S
H1559 N1553 0.985 . S
H1560 N1557 0.984 . S
H1561 N1557 0.985 . S
H1562 N1556 0.984 . S
H1563 N1556 0.984 . S
H1564 N1552 0.984 . S
H1565 N1552 0.985 . S
C1566 C1567 1.363 . S
C1566 C1572 1.379 . S
C1566 N1574 1.356 . S
C1567 C1566 1.363 . S
C1567 C1573 1.363 . S
C1568 C1569 1.363 . S
C1568 C1573 1.379 . S
C1568 N1575 1.356 . S
C1569 C1568 1.363 . S
C1569 C1572 1.363 . S
N1570 C1572 1.356 . S
N1570 H1582 0.984 . S
N1570 H1583 0.985 . S
N1571 C1573 1.356 . S
N1571 H1576 0.984 . S
N1571 H1577 0.985 . S
C1572 C1566 1.379 . S
C1572 C1569 1.363 . S
C1572 N1570 1.356 . S
C1573 C1567 1.363 . S
C1573 C1568 1.379 . S
C1573 N1571 1.356 . S
N1574 C1566 1.356 . S
N1574 H1580 0.984 . S
N1574 H1581 0.984 . S
N1575 C1568 1.356 . S
N1575 H1578 0.984 . S
N1575 H1579 0.985 . S
H1576 N1571 0.984 . S
H1577 N1571 0.985 . S
H1578 N1575 0.984 . S
H1579 N1575 0.985 . S
H1580 N1574 0.984 . S
H1581 N1574 0.984 . S
H1582 N1570 0.984 . S
H1583 N1570 0.985 . S
C1584 C1585 1.363 . S
C1584 C1590 1.379 . S
C1584 N1592 1.356 . S
C1585 C1584 1.363 . S
C1585 C1591 1.363 . S
C1586 C1587 1.363 . S
C1586 C1591 1.379 . S
C1586 N1593 1.356 . S
C1587 C1586 1.363 . S
C1587 C1590 1.363 . S
N1588 C1590 1.356 . S
N1588 H1600 0.984 . S
N1588 H1601 0.985 . S
N1589 C1591 1.356 . S
N1589 H1594 0.984 . S
N1589 H1595 0.985 . S
C1590 C1584 1.379 . S
C1590 C1587 1.363 . S
C1590 N1588 1.356 . S
C1591 C1585 1.363 . S
C1591 C1586 1.379 . S
C1591 N1589 1.356 . S
N1592 C1584 1.356 . S
N1592 H1598 0.984 . S
N1592 H1599 0.984 . S
N1593 C1586 1.356 . S
N1593 H1596 0.984 . S
N1593 H1597 0.985 . S
H1594 N1589 0.984 . S
H1595 N1589 0.985 . S
H1596 N1593 0.984 . S
H1597 N1593 0.985 . S
H1598 N1592 0.984 . S
H1599 N1592 0.984 . S
H1600 N1588 0.984 . S
H1601 N1588 0.985 . S
C1602 C1603 1.363 . S
C1602 C1608 1.379 . S
C1602 N1610 1.356 . S
C1603 C1602 1.363 . S
C1603 C1609 1.363 . S
C1604 C1605 1.363 . S
C1604 C1609 1.379 . S
C1604 N1611 1.356 . S
C1605 C1604 1.363 . S
C1605 C1608 1.363 . S
N1606 C1608 1.356 . S
N1606 H1618 0.984 . S
N1606 H1619 0.985 . S
N1607 C1609 1.356 . S
N1607 H1612 0.984 . S
N1607 H1613 0.985 . S
C1608 C1602 1.379 . S
C1608 C1605 1.363 . S
C1608 N1606 1.356 . S
C1609 C1603 1.363 . S
C1609 C1604 1.379 . S
C1609 N1607 1.356 . S
N1610 C1602 1.356 . S
N1610 H1616 0.984 . S
N1610 H1617 0.984 . S
N1611 C1604 1.356 . S
N1611 H1614 0.984 . S
N1611 H1615 0.985 . S
H1612 N1607 0.984 . S
H1613 N1607 0.985 . S
H1614 N1611 0.984 . S
H1615 N1611 0.985 . S
H1616 N1610 0.984 . S
H1617 N1610 0.984 . S
H1618 N1606 0.984 . S
H1619 N1606 0.985 . S
C1620 C1621 1.363 . S
C1620 C1626 1.379 . S
C1620 N1628 1.356 . S
C1621 C1620 1.363 . S
C1621 C1627 1.363 . S
C1622 C1623 1.363 . S
C1622 C1627 1.379 . S
C1622 N1629 1.356 . S
C1623 C1622 1.363 . S
C1623 C1626 1.363 . S
N1624 C1626 1.356 . S
N1624 H1636 0.984 . S
N1624 H1637 0.985 . S
N1625 C1627 1.356 . S
N1625 H1630 0.984 . S
N1625 H1631 0.985 . S
C1626 C1620 1.379 . S
C1626 C1623 1.363 . S
C1626 N1624 1.356 . S
C1627 C1621 1.363 . S
C1627 C1622 1.379 . S
C1627 N1625 1.356 . S
N1628 C1620 1.356 . S
N1628 H1634 0.984 . S
N1628 H1635 0.984 . S
N1629 C1622 1.356 . S
N1629 H1632 0.984 . S
N1629 H1633 0.985 . S
H1630 N1625 0.984 . S
H1631 N1625 0.985 . S
H1632 N1629 0.984 . S
H1633 N1629 0.985 . S
H1634 N1628 0.984 . S
H1635 N1628 0.984 . S
H1636 N1624 0.984 . S
H1637 N1624 0.985 . S
C1638 C1639 1.363 . S
C1638 C1644 1.379 . S
C1638 N1646 1.356 . S
C1639 C1638 1.363 . S
C1639 C1645 1.363 . S
C1640 C1641 1.363 . S
C1640 C1645 1.379 . S
C1640 N1647 1.356 . S
C1641 C1640 1.363 . S
C1641 C1644 1.363 . S
N1642 C1644 1.356 . S
N1642 H1654 0.984 . S
N1642 H1655 0.985 . S
N1643 C1645 1.356 . S
N1643 H1648 0.984 . S
N1643 H1649 0.985 . S
C1644 C1638 1.379 . S
C1644 C1641 1.363 . S
C1644 N1642 1.356 . S
C1645 C1639 1.363 . S
C1645 C1640 1.379 . S
C1645 N1643 1.356 . S
N1646 C1638 1.356 . S
N1646 H1652 0.984 . S
N1646 H1653 0.984 . S
N1647 C1640 1.356 . S
N1647 H1650 0.984 . S
N1647 H1651 0.985 . S
H1648 N1643 0.984 . S
H1649 N1643 0.985 . S
H1650 N1647 0.984 . S
H1651 N1647 0.985 . S
H1652 N1646 0.984 . S
H1653 N1646 0.984 . S
H1654 N1642 0.984 . S
H1655 N1642 0.985 . S
C1656 C1657 1.363 . S
C1656 C1662 1.379 . S
C1656 N1664 1.356 . S
C1657 C1656 1.363 . S
C1657 C1663 1.363 . S
C1658 C1659 1.363 . S
C1658 C1663 1.379 . S
C1658 N1665 1.356 . S
C1659 C1658 1.363 . S
C1659 C1662 1.363 . S
N1660 C1662 1.356 . S
N1660 H1672 0.984 . S
N1660 H1673 0.985 . S
N1661 C1663 1.356 . S
N1661 H1666 0.984 . S
N1661 H1667 0.985 . S
C1662 C1656 1.379 . S
C1662 C1659 1.363 . S
C1662 N1660 1.356 . S
C1663 C1657 1.363 . S
C1663 C1658 1.379 . S
C1663 N1661 1.356 . S
N1664 C1656 1.356 . S
N1664 H1670 0.984 . S
N1664 H1671 0.984 . S
N1665 C1658 1.356 . S
N1665 H1668 0.984 . S
N1665 H1669 0.985 . S
H1666 N1661 0.984 . S
H1667 N1661 0.985 . S
H1668 N1665 0.984 . S
H1669 N1665 0.985 . S
H1670 N1664 0.984 . S
H1671 N1664 0.984 . S
H1672 N1660 0.984 . S
H1673 N1660 0.985 . S
C1674 C1675 1.363 . S
C1674 C1680 1.379 . S
C1674 N1682 1.356 . S
C1675 C1674 1.363 . S
C1675 C1681 1.363 . S
C1676 C1677 1.363 . S
C1676 C1681 1.379 . S
C1676 N1683 1.356 . S
C1677 C1676 1.363 . S
C1677 C1680 1.363 . S
N1678 C1680 1.356 . S
N1678 H1690 0.984 . S
N1678 H1691 0.985 . S
N1679 C1681 1.356 . S
N1679 H1684 0.984 . S
N1679 H1685 0.985 . S
C1680 C1674 1.379 . S
C1680 C1677 1.363 . S
C1680 N1678 1.356 . S
C1681 C1675 1.363 . S
C1681 C1676 1.379 . S
C1681 N1679 1.356 . S
N1682 C1674 1.356 . S
N1682 H1688 0.984 . S
N1682 H1689 0.984 . S
N1683 C1676 1.356 . S
N1683 H1686 0.984 . S
N1683 H1687 0.985 . S
H1684 N1679 0.984 . S
H1685 N1679 0.985 . S
H1686 N1683 0.984 . S
H1687 N1683 0.985 . S
H1688 N1682 0.984 . S
H1689 N1682 0.984 . S
H1690 N1678 0.984 . S
H1691 N1678 0.985 . S
C1692 C1693 1.363 . S
C1692 C1698 1.379 . S
C1692 N1700 1.356 . S
C1693 C1692 1.363 . S
C1693 C1699 1.363 . S
C1694 C1695 1.363 . S
C1694 C1699 1.379 . S
C1694 N1701 1.356 . S
C1695 C1694 1.363 . S
C1695 C1698 1.363 . S
N1696 C1698 1.356 . S
N1696 H1708 0.984 . S
N1696 H1709 0.985 . S
N1697 C1699 1.356 . S
N1697 H1702 0.984 . S
N1697 H1703 0.985 . S
C1698 C1692 1.379 . S
C1698 C1695 1.363 . S
C1698 N1696 1.356 . S
C1699 C1693 1.363 . S
C1699 C1694 1.379 . S
C1699 N1697 1.356 . S
N1700 C1692 1.356 . S
N1700 H1706 0.984 . S
N1700 H1707 0.984 . S
N1701 C1694 1.356 . S
N1701 H1704 0.984 . S
N1701 H1705 0.985 . S
H1702 N1697 0.984 . S
H1703 N1697 0.985 . S
H1704 N1701 0.984 . S
H1705 N1701 0.985 . S
H1706 N1700 0.984 . S
H1707 N1700 0.984 . S
H1708 N1696 0.984 . S
H1709 N1696 0.985 . S
C1710 C1711 1.363 . S
C1710 C1716 1.379 . S
C1710 N1718 1.356 . S
C1711 C1710 1.363 . S
C1711 C1717 1.363 . S
C1712 C1713 1.363 . S
C1712 C1717 1.379 . S
C1712 N1719 1.356 . S
C1713 C1712 1.363 . S
C1713 C1716 1.363 . S
N1714 C1716 1.356 . S
N1714 H1726 0.984 . S
N1714 H1727 0.985 . S
N1715 C1717 1.356 . S
N1715 H1720 0.984 . S
N1715 H1721 0.985 . S
C1716 C1710 1.379 . S
C1716 C1713 1.363 . S
C1716 N1714 1.356 . S
C1717 C1711 1.363 . S
C1717 C1712 1.379 . S
C1717 N1715 1.356 . S
N1718 C1710 1.356 . S
N1718 H1724 0.984 . S
N1718 H1725 0.984 . S
N1719 C1712 1.356 . S
N1719 H1722 0.984 . S
N1719 H1723 0.985 . S
H1720 N1715 0.984 . S
H1721 N1715 0.985 . S
H1722 N1719 0.984 . S
H1723 N1719 0.985 . S
H1724 N1718 0.984 . S
H1725 N1718 0.984 . S
H1726 N1714 0.984 . S
H1727 N1714 0.985 . S
C1728 C1729 1.363 . S
C1728 C1734 1.379 . S
C1728 N1736 1.356 . S
C1729 C1728 1.363 . S
C1729 C1735 1.363 . S
C1730 C1731 1.363 . S
C1730 C1735 1.379 . S
C1730 N1737 1.356 . S
C1731 C1730 1.363 . S
C1731 C1734 1.363 . S
N1732 C1734 1.356 . S
N1732 H1744 0.984 . S
N1732 H1745 0.985 . S
N1733 C1735 1.356 . S
N1733 H1738 0.984 . S
N1733 H1739 0.985 . S
C1734 C1728 1.379 . S
C1734 C1731 1.363 . S
C1734 N1732 1.356 . S
C1735 C1729 1.363 . S
C1735 C1730 1.379 . S
C1735 N1733 1.356 . S
N1736 C1728 1.356 . S
N1736 H1742 0.984 . S
N1736 H1743 0.984 . S
N1737 C1730 1.356 . S
N1737 H1740 0.984 . S
N1737 H1741 0.985 . S
H1738 N1733 0.984 . S
H1739 N1733 0.985 . S
H1740 N1737 0.984 . S
H1741 N1737 0.985 . S
H1742 N1736 0.984 . S
H1743 N1736 0.984 . S
H1744 N1732 0.984 . S
H1745 N1732 0.985 . S
C1746 C1747 1.363 . S
C1746 C1752 1.379 . S
C1746 N1754 1.356 . S
C1747 C1746 1.363 . S
C1747 C1753 1.363 . S
C1748 C1749 1.363 . S
C1748 C1753 1.379 . S
C1748 N1755 1.356 . S
C1749 C1748 1.363 . S
C1749 C1752 1.363 . S
N1750 C1752 1.356 . S
N1750 H1762 0.984 . S
N1750 H1763 0.985 . S
N1751 C1753 1.356 . S
N1751 H1756 0.984 . S
N1751 H1757 0.985 . S
C1752 C1746 1.379 . S
C1752 C1749 1.363 . S
C1752 N1750 1.356 . S
C1753 C1747 1.363 . S
C1753 C1748 1.379 . S
C1753 N1751 1.356 . S
N1754 C1746 1.356 . S
N1754 H1760 0.984 . S
N1754 H1761 0.984 . S
N1755 C1748 1.356 . S
N1755 H1758 0.984 . S
N1755 H1759 0.985 . S
H1756 N1751 0.984 . S
H1757 N1751 0.985 . S
H1758 N1755 0.984 . S
H1759 N1755 0.985 . S
H1760 N1754 0.984 . S
H1761 N1754 0.984 . S
H1762 N1750 0.984 . S
H1763 N1750 0.985 . S
C1764 C1765 1.363 . S
C1764 C1770 1.379 . S
C1764 N1772 1.356 . S
C1765 C1764 1.363 . S
C1765 C1771 1.363 . S
C1766 C1767 1.363 . S
C1766 C1771 1.379 . S
C1766 N1773 1.356 . S
C1767 C1766 1.363 . S
C1767 C1770 1.363 . S
N1768 C1770 1.356 . S
N1768 H1780 0.984 . S
N1768 H1781 0.985 . S
N1769 C1771 1.356 . S
N1769 H1774 0.984 . S
N1769 H1775 0.985 . S
C1770 C1764 1.379 . S
C1770 C1767 1.363 . S
C1770 N1768 1.356 . S
C1771 C1765 1.363 . S
C1771 C1766 1.379 . S
C1771 N1769 1.356 . S
N1772 C1764 1.356 . S
N1772 H1778 0.984 . S
N1772 H1779 0.984 . S
N1773 C1766 1.356 . S
N1773 H1776 0.984 . S
N1773 H1777 0.985 . S
H1774 N1769 0.984 . S
H1775 N1769 0.985 . S
H1776 N1773 0.984 . S
H1777 N1773 0.985 . S
H1778 N1772 0.984 . S
H1779 N1772 0.984 . S
H1780 N1768 0.984 . S
H1781 N1768 0.985 . S
C1782 C1783 1.363 . S
C1782 C1788 1.379 . S
C1782 N1790 1.356 . S
C1783 C1782 1.363 . S
C1783 C1789 1.363 . S
C1784 C1785 1.363 . S
C1784 C1789 1.379 . S
C1784 N1791 1.356 . S
C1785 C1784 1.363 . S
C1785 C1788 1.363 . S
N1786 C1788 1.356 . S
N1786 H1798 0.984 . S
N1786 H1799 0.985 . S
N1787 C1789 1.356 . S
N1787 H1792 0.984 . S
N1787 H1793 0.985 . S
C1788 C1782 1.379 . S
C1788 C1785 1.363 . S
C1788 N1786 1.356 . S
C1789 C1783 1.363 . S
C1789 C1784 1.379 . S
C1789 N1787 1.356 . S
N1790 C1782 1.356 . S
N1790 H1796 0.984 . S
N1790 H1797 0.984 . S
N1791 C1784 1.356 . S
N1791 H1794 0.984 . S
N1791 H1795 0.985 . S
H1792 N1787 0.984 . S
H1793 N1787 0.985 . S
H1794 N1791 0.984 . S
H1795 N1791 0.985 . S
H1796 N1790 0.984 . S
H1797 N1790 0.984 . S
H1798 N1786 0.984 . S
H1799 N1786 0.985 . S
C1800 C1801 1.363 . S
C1800 C1806 1.379 . S
C1800 N1808 1.356 . S
C1801 C1800 1.363 . S
C1801 C1807 1.363 . S
C1802 C1803 1.363 . S
C1802 C1807 1.379 . S
C1802 N1809 1.356 . S
C1803 C1802 1.363 . S
C1803 C1806 1.363 . S
N1804 C1806 1.356 . S
N1804 H1816 0.984 . S
N1804 H1817 0.985 . S
N1805 C1807 1.356 . S
N1805 H1810 0.984 . S
N1805 H1811 0.985 . S
C1806 C1800 1.379 . S
C1806 C1803 1.363 . S
C1806 N1804 1.356 . S
C1807 C1801 1.363 . S
C1807 C1802 1.379 . S
C1807 N1805 1.356 . S
N1808 C1800 1.356 . S
N1808 H1814 0.984 . S
N1808 H1815 0.984 . S
N1809 C1802 1.356 . S
N1809 H1812 0.984 . S
N1809 H1813 0.985 . S
H1810 N1805 0.984 . S
H1811 N1805 0.985 . S
H1812 N1809 0.984 . S
H1813 N1809 0.985 . S
H1814 N1808 0.984 . S
H1815 N1808 0.984 . S
H1816 N1804 0.984 . S
H1817 N1804 0.985 . S
C1818 C1819 1.363 . S
C1818 C1824 1.379 . S
C1818 N1826 1.356 . S
C1819 C1818 1.363 . S
C1819 C1825 1.363 . S
C1820 C1821 1.363 . S
C1820 C1825 1.379 . S
C1820 N1827 1.356 . S
C1821 C1820 1.363 . S
C1821 C1824 1.363 . S
N1822 C1824 1.356 . S
N1822 H1834 0.984 . S
N1822 H1835 0.985 . S
N1823 C1825 1.356 . S
N1823 H1828 0.984 . S
N1823 H1829 0.985 . S
C1824 C1818 1.379 . S
C1824 C1821 1.363 . S
C1824 N1822 1.356 . S
C1825 C1819 1.363 . S
C1825 C1820 1.379 . S
C1825 N1823 1.356 . S
N1826 C1818 1.356 . S
N1826 H1832 0.984 . S
N1826 H1833 0.984 . S
N1827 C1820 1.356 . S
N1827 H1830 0.984 . S
N1827 H1831 0.985 . S
H1828 N1823 0.984 . S
H1829 N1823 0.985 . S
H1830 N1827 0.984 . S
H1831 N1827 0.985 . S
H1832 N1826 0.984 . S
H1833 N1826 0.984 . S
H1834 N1822 0.984 . S
H1835 N1822 0.985 . S
C1836 C1837 1.363 . S
C1836 C1842 1.379 . S
C1836 N1844 1.356 . S
C1837 C1836 1.363 . S
C1837 C1843 1.363 . S
C1838 C1839 1.363 . S
C1838 C1843 1.379 . S
C1838 N1845 1.356 . S
C1839 C1838 1.363 . S
C1839 C1842 1.363 . S
N1840 C1842 1.356 . S
N1840 H1852 0.984 . S
N1840 H1853 0.985 . S
N1841 C1843 1.356 . S
N1841 H1846 0.984 . S
N1841 H1847 0.985 . S
C1842 C1836 1.379 . S
C1842 C1839 1.363 . S
C1842 N1840 1.356 . S
C1843 C1837 1.363 . S
C1843 C1838 1.379 . S
C1843 N1841 1.356 . S
N1844 C1836 1.356 . S
N1844 H1850 0.984 . S
N1844 H1851 0.984 . S
N1845 C1838 1.356 . S
N1845 H1848 0.984 . S
N1845 H1849 0.985 . S
H1846 N1841 0.984 . S
H1847 N1841 0.985 . S
H1848 N1845 0.984 . S
H1849 N1845 0.985 . S
H1850 N1844 0.984 . S
H1851 N1844 0.984 . S
H1852 N1840 0.984 . S
H1853 N1840 0.985 . S
C1854 C1855 1.363 . S
C1854 C1860 1.379 . S
C1854 N1862 1.356 . S
C1855 C1854 1.363 . S
C1855 C1861 1.363 . S
C1856 C1857 1.363 . S
C1856 C1861 1.379 . S
C1856 N1863 1.356 . S
C1857 C1856 1.363 . S
C1857 C1860 1.363 . S
N1858 C1860 1.356 . S
N1858 H1870 0.984 . S
N1858 H1871 0.985 . S
N1859 C1861 1.356 . S
N1859 H1864 0.984 . S
N1859 H1865 0.985 . S
C1860 C1854 1.379 . S
C1860 C1857 1.363 . S
C1860 N1858 1.356 . S
C1861 C1855 1.363 . S
C1861 C1856 1.379 . S
C1861 N1859 1.356 . S
N1862 C1854 1.356 . S
N1862 H1868 0.984 . S
N1862 H1869 0.984 . S
N1863 C1856 1.356 . S
N1863 H1866 0.984 . S
N1863 H1867 0.985 . S
H1864 N1859 0.984 . S
H1865 N1859 0.985 . S
H1866 N1863 0.984 . S
H1867 N1863 0.985 . S
H1868 N1862 0.984 . S
H1869 N1862 0.984 . S
H1870 N1858 0.984 . S
H1871 N1858 0.985 . S
C1872 C1873 1.363 . S
C1872 C1878 1.379 . S
C1872 N1880 1.356 . S
C1873 C1872 1.363 . S
C1873 C1879 1.363 . S
C1874 C1875 1.363 . S
C1874 C1879 1.379 . S
C1874 N1881 1.356 . S
C1875 C1874 1.363 . S
C1875 C1878 1.363 . S
N1876 C1878 1.356 . S
N1876 H1888 0.984 . S
N1876 H1889 0.985 . S
N1877 C1879 1.356 . S
N1877 H1882 0.984 . S
N1877 H1883 0.985 . S
C1878 C1872 1.379 . S
C1878 C1875 1.363 . S
C1878 N1876 1.356 . S
C1879 C1873 1.363 . S
C1879 C1874 1.379 . S
C1879 N1877 1.356 . S
N1880 C1872 1.356 . S
N1880 H1886 0.984 . S
N1880 H1887 0.984 . S
N1881 C1874 1.356 . S
N1881 H1884 0.984 . S
N1881 H1885 0.985 . S
H1882 N1877 0.984 . S
H1883 N1877 0.985 . S
H1884 N1881 0.984 . S
H1885 N1881 0.985 . S
H1886 N1880 0.984 . S
H1887 N1880 0.984 . S
H1888 N1876 0.984 . S
H1889 N1876 0.985 . S
C1890 C1891 1.363 . S
C1890 C1896 1.379 . S
C1890 N1898 1.356 . S
C1891 C1890 1.363 . S
C1891 C1897 1.363 . S
C1892 C1893 1.363 . S
C1892 C1897 1.379 . S
C1892 N1899 1.356 . S
C1893 C1892 1.363 . S
C1893 C1896 1.363 . S
N1894 C1896 1.356 . S
N1894 H1906 0.984 . S
N1894 H1907 0.985 . S
N1895 C1897 1.356 . S
N1895 H1900 0.984 . S
N1895 H1901 0.985 . S
C1896 C1890 1.379 . S
C1896 C1893 1.363 . S
C1896 N1894 1.356 . S
C1897 C1891 1.363 . S
C1897 C1892 1.379 . S
C1897 N1895 1.356 . S
N1898 C1890 1.356 . S
N1898 H1904 0.984 . S
N1898 H1905 0.984 . S
N1899 C1892 1.356 . S
N1899 H1902 0.984 . S
N1899 H1903 0.985 . S
H1900 N1895 0.984 . S
H1901 N1895 0.985 . S
H1902 N1899 0.984 . S
H1903 N1899 0.985 . S
H1904 N1898 0.984 . S
H1905 N1898 0.984 . S
H1906 N1894 0.984 . S
H1907 N1894 0.985 . S
C615 C318 1.626 . S
C613 C308 1.629 . S
C631 C282 1.470 . S
C633 C316 1.471 . S
C651 C317 1.471 . S
C649 C269 1.470 . S
C667 C295 1.629 . S
C669 C319 1.626 . S
C687 C363 1.581 . S
C685 C217 1.583 . S
C705 C423 1.590 . S
C703 C230 1.592 . S
C721 C243 1.594 . S
C723 C362 1.590 . S
C741 C422 1.440 . S
C739 C256 1.440 . S
C757 C165 1.583 . S
C759 C364 1.581 . S
C777 C420 1.440 . S
C775 C178 1.440 . S
C793 C191 1.594 . S
C795 C365 1.590 . S
C811 C204 1.592 . S
C813 C421 1.590 . S
C831 C471 1.626 . S
C829 C152 1.629 . S
C847 C126 1.470 1_554 S
C849 C470 1.471 . S
C865 C113 1.470 . S
C867 C472 1.471 . S
C885 C473 1.626 . S
C883 C139 1.629 . S
C901 C61 1.583 . S
C903 C514 1.581 . S
C919 C74 1.592 1_545 S
C921 C573 1.590 . S
C937 C87 1.594 . S
C939 C512 1.590 . S
C955 C100 1.440 . S
C957 C572 1.440 . S
C975 C513 1.581 . S
C973 C9 1.583 . S
C993 C570 1.440 . S
C991 C22 1.440 . S
C1009 C35 1.594 . S
C1011 C515 1.590 . S
C1029 C571 1.590 . S
C1027 C48 1.592 . S
C1047 C315 1.543 . S
C1045 C4 1.292 . S
C1063 C21 1.406 . S
C1065 C321 1.462 . S
C1081 C34 1.655 . S
C1083 C313 1.691 . S
C1099 C43 1.189 . S
C1101 C320 1.427 . S
C1117 C56 1.292 . S
C1119 C312 1.543 . S
C1137 C322 1.427 . S
C1135 C69 1.186 1_545 S
C1153 C86 1.655 . S
C1155 C314 1.691 . S
C1173 C323 1.462 . S
C1171 C99 1.406 1_545 S
C1191 C369 1.596 . S
C1189 C47 1.557 . S
C1207 C8 1.601 . S
C1209 C412 1.644 . S
C1227 C367 1.391 . S
C1225 C17 1.153 . S
C1245 C414 1.515 . S
C1243 C30 1.256 . S
C1261 C73 1.557 1_545 S
C1263 C368 1.596 . S
C1281 C413 1.515 . S
C1279 C82 1.256 . S
C1299 C366 1.391 . S
C1297 C95 1.150 1_545 S
C1317 C415 1.644 . S
C1315 C60 1.601 . S
C1335 C419 1.482 . S
C1333 C112 1.424 . S
C1351 C125 1.424 1_554 S
C1353 C418 1.482 . S
C1371 C370 1.484 . S
C1369 C108 1.246 . S
C1389 C417 1.640 . S
C1387 C138 1.600 1_554 S
C1405 C147 1.264 . S
C1407 C373 1.502 . S
C1423 C151 1.600 . S
C1425 C416 1.640 . S
C1443 C372 1.484 . S
C1441 C121 1.244 1_554 S
C1461 C371 1.502 . S
C1459 C134 1.262 1_554 S
C1479 C465 1.543 . S
C1477 C160 1.292 . S
C1497 C468 1.462 . S
C1495 C177 1.406 . S
C1513 C190 1.655 . S
C1515 C464 1.691 . S
C1533 C466 1.427 . S
C1531 C199 1.187 . S
C1551 C462 1.543 . S
C1549 C212 1.292 . S
C1567 C225 1.188 . S
C1569 C467 1.427 . S
C1585 C242 1.655 . S
C1587 C463 1.691 . S
C1605 C469 1.462 . S
C1603 C255 1.406 . S
C1623 C523 1.596 . S
C1621 C203 1.558 . S
C1639 C164 1.601 . S
C1641 C562 1.644 . S
C1659 C522 1.391 . S
C1657 C173 1.152 . S
C1677 C564 1.515 . S
C1675 C186 1.256 . S
C1695 C521 1.596 . S
C1693 C229 1.558 . S
C1711 C238 1.256 . S
C1713 C563 1.515 . S
C1731 C520 1.391 . S
C1729 C251 1.152 . S
C1749 C565 1.644 . S
C1747 C216 1.601 . S
C1767 C569 1.482 . S
C1765 C268 1.424 . S
C1783 C281 1.424 . S
C1785 C568 1.482 . S
C1803 C516 1.484 . S
C1801 C264 1.245 . S
C1819 C294 1.600 . S
C1821 C567 1.640 . S
C1839 C519 1.502 . S
C1837 C303 1.263 . S
C1857 C566 1.640 . S
C1855 C307 1.600 . S
C1875 C517 1.484 . S
C1873 C277 1.245 . S
C1891 C290 1.263 . S
C1893 C518 1.502 . S
