# Generated by pormake.
# Topology sit, (3,6)-cn, num edge types: 1
# Building blocks:
#     Node 0, Type 0, BuildingBlock: BETDIP_clean_linker_0, # of connection points: 3
#     Node 1, Type 0, BuildingBlock: BETDIP_clean_linker_0, # of connection points: 3
#     Node 2, Type 0, BuildingBlock: BETDIP_clean_linker_0, # of connection points: 3
#     Node 3, Type 0, BuildingBlock: BETDIP_clean_linker_0, # of connection points: 3
#     Node 4, Type 1, BuildingBlock: MIDCAF_clean_sbu_0, # of connection points: 6
#     Node 5, Type 1, BuildingBlock: MIDCAF_clean_sbu_0, # of connection points: 6
#     Edge 6, Type (0, 1), BuildingBlock: KIFKEQ_clean_linker_1, # of connection points: 2
#     Edge 7, Type (0, 1), BuildingBlock: KIFKEQ_clean_linker_1, # of connection points: 2
#     Edge 8, Type (0, 1), BuildingBlock: KIFKEQ_clean_linker_1, # of connection points: 2
#     Edge 9, Type (0, 1), BuildingBlock: KIFKEQ_clean_linker_1, # of connection points: 2
#     Edge 10, Type (0, 1), BuildingBlock: KIFKEQ_clean_linker_1, # of connection points: 2
#     Edge 11, Type (0, 1), BuildingBlock: KIFKEQ_clean_linker_1, # of connection points: 2
#     Edge 12, Type (0, 1), BuildingBlock: KIFKEQ_clean_linker_1, # of connection points: 2
#     Edge 13, Type (0, 1), BuildingBlock: KIFKEQ_clean_linker_1, # of connection points: 2
#     Edge 14, Type (0, 1), BuildingBlock: KIFKEQ_clean_linker_1, # of connection points: 2
#     Edge 15, Type (0, 1), BuildingBlock: KIFKEQ_clean_linker_1, # of connection points: 2
#     Edge 16, Type (0, 1), BuildingBlock: KIFKEQ_clean_linker_1, # of connection points: 2
#     Edge 17, Type (0, 1), BuildingBlock: KIFKEQ_clean_linker_1, # of connection points: 2
# Relax obj value: 0.072
# Max RMSD: 0.181
# Mean RMSD: 0.111
data_MOF--net-sit--node1-MIDCAF_clean_sbu_0--node2-BETDIP_clean_linker_0--edge1-KIFKEQ_clean_linker_1
_symmetry_space_group_name_H-M    P1
_symmetry_Int_Tables_number       1
_symmetry_cell_setting            triclinic
loop_
_symmetry_equiv_pos_as_xyz
'x, y, z'
_cell_length_a     22.188592
_cell_length_b     32.550773
_cell_length_c     38.623496
_cell_angle_alpha  89.783691
_cell_angle_beta   87.204776
_cell_angle_gamma 82.749235
loop_
_atom_site_label
_atom_site_type_symbol
_atom_site_fract_x
_atom_site_fract_y
_atom_site_fract_z
_atom_type_partial_charge
H0 H -0.02294 0.32696 0.01768 0.0
H1 H 0.1646 0.3232 0.04295 0.0
H2 H 0.08022 0.42356 0.98262 0.0
H3 H 0.15759 0.25312 0.04381 0.0
C4 C 0.11328 0.25186 0.05674 0.0
C5 C 0.01889 0.34098 0.01673 0.0
C6 C 0.02265 0.37783 -0.0018 0.0
C7 C 0.06995 0.32065 0.03248 0.0
C8 C 0.12501 0.3382 0.03054 0.0
C9 C 0.12875 0.37569 0.01283 0.0
C10 C 0.07724 0.39522 -0.00293 0.0
N11 N 0.06412 0.28289 0.05021 0.0
H12 H 0.89009 0.75718 0.03502 0.0
H13 H 0.08459 0.75556 0.02629 0.0
H14 H 0.00265 0.65731 0.98179 0.0
H15 H 0.06407 0.82296 0.03552 0.0
C16 C 0.02259 0.82773 0.05185 0.0
C17 C 0.93453 0.74213 0.02624 0.0
C18 C 0.93995 0.7042 0.00828 0.0
C19 C -0.01392 0.76143 0.03238 0.0
C20 C 0.04399 0.74184 0.02125 0.0
C21 C 0.05 0.7039 0.0035 0.0
C22 C -0.00201 0.68537 -0.00276 0.0
N23 N -0.02211 0.80015 0.05012 0.0
H24 H 0.4774 0.8277 0.51829 0.0
H25 H 0.66497 0.82394 0.54349 0.0
H26 H 0.58062 0.92419 0.48303 0.0
H27 H 0.65795 0.75389 0.54442 0.0
C28 C 0.61363 0.75262 0.55734 0.0
C29 C 0.51924 0.84171 0.5173 0.0
C30 C 0.52302 0.87852 0.49871 0.0
C31 C 0.5703 0.82141 0.53306 0.0
C32 C 0.62537 0.83893 0.53107 0.0
C33 C 0.62914 0.87637 0.5133 0.0
C34 C 0.57762 0.89589 0.49754 0.0
N35 N 0.56447 0.78366 0.55083 0.0
H36 H 0.39086 0.25656 0.53525 0.0
H37 H 0.58539 0.25484 0.52697 0.0
H38 H 0.50363 0.15676 0.48206 0.0
H39 H 0.56486 0.32224 0.53614 0.0
C40 C 0.52327 0.32706 0.55238 0.0
C41 C 0.43534 0.2415 0.52655 0.0
C42 C 0.44082 0.20361 0.50852 0.0
C43 C 0.48686 0.26076 0.53285 0.0
C44 C 0.54481 0.24115 0.52181 0.0
C45 C 0.5509 0.20325 0.50399 0.0
C46 C 0.49891 0.18477 0.49757 0.0
N47 N 0.47859 0.29947 0.55059 0.0
Zn48 Zn 0.02458 0.11124 0.33351 0.0
Zn49 Zn 0.06742 0.96193 0.33681 0.0
Zn50 Zn 0.04552 0.0364 0.33631 0.0
C51 C 0.03113 0.97806 0.27177 0.0
C52 C -0.02443 0.97934 0.38605 0.0
O53 O 0.11784 0.06087 0.36454 0.0
O54 O 0.07119 0.12413 0.37354 0.0
C55 C 0.06178 0.09023 0.26769 0.0
O56 O 0.04265 1.01389 0.28181 0.0
O57 O 0.03206 0.94868 0.29315 0.0
O58 O 0.02005 0.95175 0.38002 0.0
O59 O -0.02792 1.01359 0.36898 0.0
O60 O 0.06048 0.12131 0.28716 0.0
O61 O 0.05034 0.05522 0.2805 0.0
O62 O 0.95722 0.05699 0.36408 0.0
O63 O 0.9352 0.11879 0.34091 0.0
C64 C 0.91986 0.09016 0.36022 0.0
O65 O 0.1329 1.01743 0.36088 0.0
O66 O 0.15674 0.95437 0.33954 0.0
C67 C 0.11446 0.09644 0.37954 0.0
C68 C 0.17086 0.98423 0.35682 0.0
Zn69 Zn 0.52406 0.61122 0.83371 0.0
Zn70 Zn 0.56673 0.46218 0.83685 0.0
Zn71 Zn 0.54491 0.53652 0.83641 0.0
C72 C 0.53032 0.47832 0.77186 0.0
C73 C 0.47506 0.47946 0.88615 0.0
O74 O 0.61716 0.56093 0.86475 0.0
O75 O 0.57018 0.62406 0.87397 0.0
C76 C 0.56169 0.5904 0.76794 0.0
O77 O 0.54207 0.51411 0.78189 0.0
O78 O 0.53107 0.44897 0.79327 0.0
O79 O 0.51962 0.45194 0.88014 0.0
O80 O 0.47143 0.51369 0.86905 0.0
O81 O 0.56052 0.62138 0.78751 0.0
O82 O 0.54989 0.55541 0.78063 0.0
O83 O 0.45652 0.55708 0.8641 0.0
O84 O 0.43461 0.61879 0.84076 0.0
C85 C 0.41916 0.59022 0.8601 0.0
O86 O 0.63229 0.51751 0.86097 0.0
O87 O 0.65609 0.45458 0.83939 0.0
C88 C 0.61356 0.59642 0.8799 0.0
C89 C 0.67025 0.48434 0.85676 0.0
H90 H 0.19882 0.18963 0.07482 0.0
H91 H 0.00953 0.23705 0.09401 0.0
H92 H 0.18963 0.13702 0.11951 0.0
H93 H 0.00052 0.18517 0.13894 0.0
H94 H -0.01021 0.08191 0.21347 0.0
H95 H 0.00321 0.11156 0.15541 0.0
H96 H 0.17799 0.14417 0.18228 0.0
H97 H 0.16432 0.11455 0.23959 0.0
C98 C 0.15511 0.18845 0.08833 0.0
C99 C 0.10521 0.21771 0.08128 0.0
C100 C 0.14982 0.15838 0.11388 0.0
C101 C 0.09441 0.15698 0.13291 0.0
C102 C 0.04365 0.18498 0.1245 0.0
C103 C 0.04899 0.21506 0.09897 0.0
C104 C 0.03195 0.09397 0.20623 0.0
C105 C 0.0763 0.09582 0.23062 0.0
C106 C 0.03942 0.11133 0.17325 0.0
C107 C 0.09142 0.13061 0.16433 0.0
C108 C 0.13773 0.12924 0.18803 0.0
C109 C 0.12998 0.11231 0.22091 0.0
H110 H 0.11121 0.86972 0.07421 0.0
H111 H 0.91922 0.86087 0.08864 0.0
H112 H 0.10499 0.91714 0.1234 0.0
H113 H 0.91199 0.90981 0.13669 0.0
H114 H 0.08163 1.00694 0.21141 0.0
H115 H 0.07092 0.98139 0.1526 0.0
H116 H 0.94334 0.9013 0.19363 0.0
H117 H 0.95221 0.92805 0.25119 0.0
C118 C 0.0674 0.87876 0.08747 0.0
C119 C 0.01607 0.86095 0.07824 0.0
C120 C 0.06363 0.90626 0.11546 0.0
C121 C 0.00812 0.91692 0.13444 0.0
C122 C 0.95581 0.90148 0.12326 0.0
C123 C 0.95985 0.87346 0.09569 0.0
C124 C 0.04961 0.98515 0.20739 0.0
C125 C 0.01763 0.96953 0.2357 0.0
C126 C 0.04409 0.97 0.17386 0.0
C127 C 0.00654 0.93899 0.16827 0.0
C128 C -0.02802 0.92551 0.19657 0.0
C129 C -0.02252 0.94058 0.22977 0.0
H130 H 0.50982 0.73766 0.59447 0.0
H131 H 0.69922 0.69044 0.57544 0.0
H132 H 0.50076 0.68565 0.6393 0.0
H133 H 0.68998 0.63772 0.62003 0.0
H134 H 0.49002 0.58208 0.71356 0.0
H135 H 0.5036 0.61192 0.65558 0.0
H136 H 0.67804 0.64478 0.68284 0.0
H137 H 0.66421 0.61499 0.74007 0.0
C138 C 0.54929 0.71569 0.59945 0.0
C139 C 0.60555 0.71843 0.58183 0.0
C140 C 0.54392 0.68554 0.62492 0.0
C141 C 0.5947 0.65756 0.63334 0.0
C142 C 0.65016 0.65906 0.61439 0.0
C143 C 0.65548 0.68919 0.58889 0.0
C144 C 0.53215 0.59424 0.70642 0.0
C145 C 0.57635 0.59611 0.73091 0.0
C146 C 0.5397 0.61171 0.67349 0.0
C147 C 0.59165 0.6311 0.66471 0.0
C148 C 0.63782 0.62976 0.68849 0.0
C149 C 0.62999 0.61273 0.72132 0.0
H150 H 0.61167 0.36917 0.57483 0.0
H151 H 0.41961 0.36037 0.58881 0.0
H152 H 0.60503 0.41687 0.62384 0.0
H153 H 0.41196 0.4096 0.63667 0.0
H154 H 0.45127 0.42844 0.75124 0.0
H155 H 0.44273 0.40147 0.69373 0.0
H156 H 0.57079 0.48125 0.65275 0.0
H157 H 0.58115 0.50703 0.71153 0.0
C158 C 0.56776 0.37827 0.58796 0.0
C159 C 0.51653 0.36041 0.57865 0.0
C160 C 0.56374 0.40594 0.61584 0.0
C161 C 0.50809 0.41671 0.63465 0.0
C162 C 0.45588 0.40119 0.62339 0.0
C163 C 0.46017 0.37301 0.59592 0.0
C164 C 0.4767 0.44087 0.72984 0.0
C165 C 0.51691 0.46978 0.73578 0.0
C166 C 0.47139 0.42567 0.69667 0.0
C167 C 0.50622 0.43898 0.6684 0.0
C168 C 0.54378 0.46998 0.67399 0.0
C169 C 0.5491 0.48526 0.7075 0.0
H170 H 0.24036 0.3339 -0.00521 0.0
H171 H 0.14849 0.45683 0.0165 0.0
H172 H 0.32874 0.3638 0.97082 0.0
H173 H 0.23639 0.4867 -0.00846 0.0
H174 H 0.35313 0.5062 0.88709 0.0
H175 H 0.27426 0.48499 0.92735 0.0
H176 H 0.41151 0.40881 0.98252 0.0
H177 H 0.4903 0.43105 0.94302 0.0
C178 C 0.23978 0.36721 -0.00449 0.0
C179 C 0.18714 0.39301 0.00701 0.0
C180 C 0.29026 0.38436 0.9816 0.0
C181 C 0.28878 0.42756 0.9788 0.0
C182 C 0.23816 0.45331 -0.00713 0.0
C183 C 0.18804 0.43618 0.00716 0.0
C184 C 0.36646 0.48615 0.90856 0.0
C185 C 0.42769 0.47075 0.91225 0.0
C186 C 0.32145 0.47384 0.9315 0.0
C187 C 0.33697 0.44526 0.95804 0.0
C188 C 0.39838 0.43073 0.96222 0.0
C189 C 0.44331 0.44344 0.93961 0.0
H190 H 0.83388 0.74468 0.98522 0.0
H191 H 0.9236 0.62206 0.00647 0.0
H192 H 0.75222 0.71427 0.95907 0.0
H193 H 0.84249 0.59173 0.97914 0.0
H194 H 0.73569 0.56944 0.87802 0.0
H195 H 0.8111 0.59182 0.91578 0.0
H196 H 0.66857 0.66998 0.97277 0.0
H197 H 0.59347 0.64688 0.93575 0.0
C198 C 0.83554 0.71129 0.98511 0.0
C199 C 0.8856 0.68585 -0.00229 0.0
C200 C 0.78887 0.69386 0.96993 0.0
C201 C 0.79149 0.65066 0.96679 0.0
C202 C 0.83994 0.62513 0.98079 0.0
C203 C 0.88626 0.64255 -0.00361 0.0
C204 C 0.72049 0.59033 0.89931 0.0
C205 C 0.65889 0.60606 0.90426 0.0
C206 C 0.7635 0.6033 0.92079 0.0
C207 C 0.74552 0.63275 0.94709 0.0
C208 C 0.68366 0.64754 0.95253 0.0
C209 C 0.64081 0.63431 0.93135 0.0
H210 H 0.02933 0.40809 0.93255 0.0
H211 H 0.90099 0.39077 0.01751 0.0
H212 H 0.94733 0.44124 0.89891 0.0
H213 H 0.81789 0.42235 0.98292 0.0
H214 H 0.68711 0.50972 0.92221 0.0
H215 H 0.77466 0.48827 0.95717 0.0
H216 H 0.8638 0.41851 0.86994 0.0
H217 H 0.77754 0.44124 0.83495 0.0
C218 C -0.01648 0.4116 0.94415 0.0
C219 C -0.02836 0.39709 0.97782 0.0
C220 C 0.93646 0.43025 0.92469 0.0
C221 C 0.87617 0.43445 0.93824 0.0
C222 C 0.86407 0.42008 0.97197 0.0
C223 C 0.91141 0.40148 -0.00842 0.0
C224 C 0.72647 0.49101 0.9103 0.0
C225 C 0.72637 0.47775 0.87578 0.0
C226 C 0.77602 0.47815 0.93043 0.0
C227 C 0.82594 0.45151 0.91638 0.0
C228 C 0.82643 0.43946 0.88144 0.0
C229 C 0.77706 0.45237 0.86139 0.0
H230 H 0.13143 0.74267 0.96494 0.0
H231 H 0.10107 0.62304 0.0061 0.0
H232 H 0.22074 0.71045 0.93124 0.0
H233 H 0.19061 0.59065 0.97206 0.0
H234 H 0.39705 0.56675 0.92689 0.0
H235 H 0.30842 0.59171 0.96494 0.0
H236 H 0.22705 0.66053 0.8796 0.0
H237 H 0.31456 0.63485 0.84154 0.0
C238 C 0.1447 0.70963 0.96736 0.0
C239 C 0.1094 0.6853 0.98799 0.0
C240 C 0.19525 0.69114 0.94778 0.0
C241 C 0.2117 0.64804 0.9487 0.0
C242 C 0.17861 0.62393 0.97087 0.0
C243 C 0.12754 0.6424 -0.00978 0.0
C244 C 0.35911 0.58593 0.91606 0.0
C245 C 0.36199 0.59838 0.88122 0.0
C246 C 0.30886 0.60054 0.93787 0.0
C247 C 0.26161 0.62851 0.92524 0.0
C248 C 0.26347 0.63952 0.89006 0.0
C249 C 0.31319 0.6246 0.86827 0.0
H250 H 0.64909 0.9575 0.51669 0.0
H251 H 0.74066 0.8344 0.4953 0.0
H252 H 0.73703 0.98716 0.49155 0.0
H253 H 0.82907 0.86411 0.47115 0.0
H254 H -0.00921 0.93107 0.443 0.0
H255 H 0.91199 0.90905 0.48261 0.0
H256 H 0.7748 0.98516 0.42735 0.0
H257 H 0.85367 1.00614 0.38697 0.0
C258 C 0.68857 0.93677 0.50738 0.0
C259 C 0.68757 0.89361 0.50737 0.0
C260 C 0.73872 0.95379 0.49299 0.0
C261 C 0.78926 0.92793 0.47896 0.0
C262 C 0.79065 0.88475 0.4819 0.0
C263 C 0.74014 0.86771 0.49591 0.0
C264 C 0.9438 0.94348 0.43958 0.0
C265 C 0.92821 0.97071 0.41217 0.0
C266 C 0.89887 0.93091 0.46227 0.0
C267 C 0.83748 0.94548 0.45809 0.0
C268 C 0.82198 0.97398 0.43149 0.0
C269 C 0.86699 0.98615 0.40848 0.0
H270 H 0.33503 0.24428 0.48527 0.0
H271 H 0.42432 0.12151 0.50642 0.0
H272 H 0.25344 0.21407 0.45888 0.0
H273 H 0.34326 0.09138 0.47885 0.0
H274 H 0.23656 0.06934 0.37767 0.0
H275 H 0.31201 0.09159 0.41547 0.0
H276 H 0.1696 0.16995 0.47239 0.0
H277 H 0.09447 0.14698 0.43533 0.0
C278 C 0.3366 0.2109 0.48508 0.0
C279 C 0.38652 0.18536 0.49775 0.0
C280 C 0.28998 0.19358 0.46976 0.0
C281 C 0.29248 0.1504 0.46653 0.0
C282 C 0.3408 0.12477 0.48057 0.0
C283 C 0.38708 0.14207 0.4963 0.0
C284 C 0.2214 0.09026 0.39895 0.0
C285 C 0.15982 0.10608 0.40387 0.0
C286 C 0.26443 0.10315 0.42046 0.0
C287 C 0.24649 0.13261 0.44675 0.0
C288 C 0.18467 0.1475 0.45215 0.0
C289 C 0.14179 0.13435 0.43095 0.0
H290 H 0.52978 0.90858 0.433 0.0
H291 H 0.40132 0.89149 0.51796 0.0
H292 H 0.44781 0.94154 0.39925 0.0
H293 H 0.31826 0.92289 0.48325 0.0
H294 H 0.18749 1.00989 0.42221 0.0
H295 H 0.27497 0.98866 0.45729 0.0
H296 H 0.36441 0.91858 0.37031 0.0
H297 H 0.27823 0.9411 0.3352 0.0
C298 C 0.48395 0.91211 0.44458 0.0
C299 C 0.47203 0.89771 0.47829 0.0
C300 C 0.43691 0.93065 0.42506 0.0
C301 C 0.3766 0.93485 0.43856 0.0
C302 C 0.36446 0.9206 0.47233 0.0
C303 C 0.41178 0.90211 0.49201 0.0
C304 C 0.2269 0.99115 0.41038 0.0
C305 C 0.22691 0.97774 0.37589 0.0
C306 C 0.27641 0.97842 0.43058 0.0
C307 C 0.3264 0.95176 0.41663 0.0
C308 C 0.327 0.93955 0.38172 0.0
C309 C 0.27767 0.95233 0.36161 0.0
H310 H 0.63245 0.24218 0.46568 0.0
H311 H 0.60198 0.12237 0.5064 0.0
H312 H 0.72178 0.2101 0.43194 0.0
H313 H 0.69157 0.09013 0.47232 0.0
H314 H 0.89811 0.06653 0.427 0.0
H315 H 0.80959 0.09132 0.46521 0.0
H316 H 0.72774 0.16032 0.3801 0.0
H317 H 0.81512 0.1348 0.34189 0.0
C318 C 0.64571 0.20913 0.468 0.0
C319 C 0.61035 0.18471 0.48852 0.0
C320 C 0.69628 0.19072 0.4484 0.0
C321 C 0.7127 0.14762 0.44917 0.0
C322 C 0.67958 0.12341 0.47124 0.0
C323 C 0.62849 0.1418 0.49062 0.0
C324 C 0.86009 0.08572 0.41626 0.0
C325 C 0.86278 0.09826 0.38144 0.0
C326 C 0.80991 0.10022 0.43816 0.0
C327 C 0.76256 0.1282 0.42563 0.0
C328 C 0.76424 0.13931 0.39048 0.0
C329 C 0.81389 0.12448 0.3686 0.0
loop_
_geom_bond_atom_site_label_1
_geom_bond_atom_site_label_2
_geom_bond_distance
_geom_bond_site_symmetry_2
_ccdc_geom_bond_type
H0 C5 0.930 . S
H1 C8 0.930 . S
H2 C10 0.930 . S
H3 C4 1.016 . S
C4 H3 1.016 . S
C4 N11 1.286 . S
C5 H0 0.930 . S
C5 C6 1.397 1_554 S
C5 C7 1.361 . S
C6 C5 1.397 1_556 S
C6 C10 1.390 . S
C7 C5 1.361 . S
C7 C8 1.393 . S
C7 N11 1.413 . S
C8 H1 0.930 . S
C8 C7 1.393 . S
C8 C9 1.399 1_554 S
C9 C8 1.399 1_556 S
C9 C10 1.381 . S
C10 H2 0.930 . S
C10 C6 1.390 . S
C10 C9 1.381 . S
N11 C4 1.286 . S
N11 C7 1.413 . S
H12 C17 0.930 . S
H13 C20 0.930 . S
H14 C22 0.930 . S
H15 C16 1.016 . S
C16 H15 1.016 . S
C16 N23 1.286 1_455 S
C17 H12 0.930 . S
C17 C18 1.397 1_554 S
C17 C19 1.361 . S
C18 C17 1.397 1_556 S
C18 C22 1.390 1_655 S
C19 C17 1.361 . S
C19 C20 1.393 1_655 S
C19 N23 1.413 . S
C20 H13 0.930 . S
C20 C19 1.393 1_455 S
C20 C21 1.399 1_554 S
C21 C20 1.399 1_556 S
C21 C22 1.381 . S
C22 H14 0.930 . S
C22 C18 1.390 1_455 S
C22 C21 1.381 . S
N23 C16 1.286 1_655 S
N23 C19 1.413 . S
H24 C29 0.930 . S
H25 C32 0.930 . S
H26 C34 0.930 . S
H27 C28 1.016 . S
C28 H27 1.016 . S
C28 N35 1.286 . S
C29 H24 0.930 . S
C29 C30 1.397 . S
C29 C31 1.361 . S
C30 C29 1.397 . S
C30 C34 1.390 . S
C31 C29 1.361 . S
C31 C32 1.393 . S
C31 N35 1.413 . S
C32 H25 0.930 . S
C32 C31 1.393 . S
C32 C33 1.399 . S
C33 C32 1.399 . S
C33 C34 1.381 . S
C34 H26 0.930 . S
C34 C30 1.390 . S
C34 C33 1.381 . S
N35 C28 1.286 . S
N35 C31 1.413 . S
H36 C41 0.930 . S
H37 C44 0.930 . S
H38 C46 0.930 . S
H39 C40 1.016 . S
C40 H39 1.016 . S
C40 N47 1.286 . S
C41 H36 0.930 . S
C41 C42 1.397 . S
C41 C43 1.361 . S
C42 C41 1.397 . S
C42 C46 1.390 . S
C43 C41 1.361 . S
C43 C44 1.393 . S
C43 N47 1.413 . S
C44 H37 0.930 . S
C44 C43 1.393 . S
C44 C45 1.399 . S
C45 C44 1.399 . S
C45 C46 1.381 . S
C46 H38 0.930 . S
C46 C42 1.390 . S
C46 C45 1.381 . S
N47 C40 1.286 . S
N47 C43 1.413 . S
Zn48 O54 1.920 . S
Zn48 O60 1.898 . S
Zn48 O63 1.905 1_455 S
Zn49 O57 1.905 . S
Zn49 O58 1.898 . S
Zn49 O66 1.920 . S
Zn50 O53 2.080 . S
Zn50 O56 2.114 1_545 S
Zn50 O59 2.120 1_545 S
Zn50 O61 2.120 . S
Zn50 O62 2.114 1_455 S
Zn50 O65 2.080 1_545 S
C51 O56 1.166 . S
C51 O57 1.182 . S
C52 O58 1.167 . S
C52 O59 1.299 . S
O53 Zn50 2.080 . S
O53 C67 1.305 . S
O54 Zn48 1.920 . S
O54 C67 1.234 . S
C55 O60 1.167 . S
C55 O61 1.299 . S
O56 Zn50 2.114 1_565 S
O56 C51 1.166 . S
O57 Zn49 1.905 . S
O57 C51 1.182 . S
O58 Zn49 1.898 . S
O58 C52 1.167 . S
O59 Zn50 2.120 1_565 S
O59 C52 1.299 . S
O60 Zn48 1.898 . S
O60 C55 1.167 . S
O61 Zn50 2.120 . S
O61 C55 1.299 . S
O62 Zn50 2.114 1_655 S
O62 C64 1.166 . S
O63 Zn48 1.905 1_655 S
O63 C64 1.182 . S
C64 O62 1.166 . S
C64 O63 1.182 . S
O65 Zn50 2.080 1_565 S
O65 C68 1.305 . S
O66 Zn49 1.920 . S
O66 C68 1.234 . S
C67 O53 1.305 . S
C67 O54 1.234 . S
C68 O65 1.305 . S
C68 O66 1.234 . S
Zn69 O75 1.920 . S
Zn69 O81 1.898 . S
Zn69 O84 1.905 . S
Zn70 O78 1.905 . S
Zn70 O79 1.898 . S
Zn70 O87 1.920 . S
Zn71 O74 2.080 . S
Zn71 O77 2.114 . S
Zn71 O80 2.120 . S
Zn71 O82 2.120 . S
Zn71 O83 2.114 . S
Zn71 O86 2.080 . S
C72 O77 1.166 . S
C72 O78 1.182 . S
C73 O79 1.167 . S
C73 O80 1.299 . S
O74 Zn71 2.080 . S
O74 C88 1.305 . S
O75 Zn69 1.920 . S
O75 C88 1.234 . S
C76 O81 1.167 . S
C76 O82 1.299 . S
O77 Zn71 2.114 . S
O77 C72 1.166 . S
O78 Zn70 1.905 . S
O78 C72 1.182 . S
O79 Zn70 1.898 . S
O79 C73 1.167 . S
O80 Zn71 2.120 . S
O80 C73 1.299 . S
O81 Zn69 1.898 . S
O81 C76 1.167 . S
O82 Zn71 2.120 . S
O82 C76 1.299 . S
O83 Zn71 2.114 . S
O83 C85 1.166 . S
O84 Zn69 1.905 . S
O84 C85 1.182 . S
C85 O83 1.166 . S
C85 O84 1.182 . S
O86 Zn71 2.080 . S
O86 C89 1.305 . S
O87 Zn70 1.920 . S
O87 C89 1.234 . S
C88 O74 1.305 . S
C88 O75 1.234 . S
C89 O86 1.305 . S
C89 O87 1.234 . S
H90 C98 0.950 . S
H91 C103 0.950 . S
H92 C100 0.950 . S
H93 C102 0.950 . S
H94 C104 0.950 . S
H95 C106 0.950 . S
H96 C108 0.950 . S
H97 C109 0.950 . S
C98 H90 0.950 . S
C98 C99 1.386 . S
C98 C100 1.391 . S
C99 C98 1.386 . S
C99 C103 1.393 . S
C100 H92 0.950 . S
C100 C98 1.391 . S
C100 C101 1.400 . S
C101 C100 1.400 . S
C101 C102 1.398 . S
C101 C107 1.491 . S
C102 H93 0.950 . S
C102 C101 1.398 . S
C102 C103 1.391 . S
C103 H91 0.950 . S
C103 C99 1.393 . S
C103 C102 1.391 . S
C104 H94 0.950 . S
C104 C105 1.386 . S
C104 C106 1.391 . S
C105 C104 1.386 . S
C105 C109 1.393 . S
C106 H95 0.950 . S
C106 C104 1.391 . S
C106 C107 1.400 . S
C107 C101 1.491 . S
C107 C106 1.400 . S
C107 C108 1.398 . S
C108 H96 0.950 . S
C108 C107 1.398 . S
C108 C109 1.391 . S
C109 H97 0.950 . S
C109 C105 1.393 . S
C109 C108 1.391 . S
H110 C118 0.950 . S
H111 C123 0.950 . S
H112 C120 0.950 . S
H113 C122 0.950 . S
H114 C124 0.950 . S
H115 C126 0.950 . S
H116 C128 0.950 . S
H117 C129 0.950 . S
C118 H110 0.950 . S
C118 C119 1.386 . S
C118 C120 1.391 . S
C119 C118 1.386 . S
C119 C123 1.393 . S
C120 H112 0.950 . S
C120 C118 1.391 . S
C120 C121 1.400 . S
C121 C120 1.400 . S
C121 C122 1.398 . S
C121 C127 1.491 . S
C122 H113 0.950 . S
C122 C121 1.398 . S
C122 C123 1.391 . S
C123 H111 0.950 . S
C123 C119 1.393 . S
C123 C122 1.391 . S
C124 H114 0.950 . S
C124 C125 1.386 . S
C124 C126 1.391 . S
C125 C124 1.386 . S
C125 C129 1.393 . S
C126 H115 0.950 . S
C126 C124 1.391 . S
C126 C127 1.400 . S
C127 C121 1.491 . S
C127 C126 1.400 . S
C127 C128 1.398 . S
C128 H116 0.950 . S
C128 C127 1.398 . S
C128 C129 1.391 . S
C129 H117 0.950 . S
C129 C125 1.393 . S
C129 C128 1.391 . S
H130 C138 0.950 . S
H131 C143 0.950 . S
H132 C140 0.950 . S
H133 C142 0.950 . S
H134 C144 0.950 . S
H135 C146 0.950 . S
H136 C148 0.950 . S
H137 C149 0.950 . S
C138 H130 0.950 . S
C138 C139 1.386 . S
C138 C140 1.391 . S
C139 C138 1.386 . S
C139 C143 1.393 . S
C140 H132 0.950 . S
C140 C138 1.391 . S
C140 C141 1.400 . S
C141 C140 1.400 . S
C141 C142 1.398 . S
C141 C147 1.491 . S
C142 H133 0.950 . S
C142 C141 1.398 . S
C142 C143 1.391 . S
C143 H131 0.950 . S
C143 C139 1.393 . S
C143 C142 1.391 . S
C144 H134 0.950 . S
C144 C145 1.386 . S
C144 C146 1.391 . S
C145 C144 1.386 . S
C145 C149 1.393 . S
C146 H135 0.950 . S
C146 C144 1.391 . S
C146 C147 1.400 . S
C147 C141 1.491 . S
C147 C146 1.400 . S
C147 C148 1.398 . S
C148 H136 0.950 . S
C148 C147 1.398 . S
C148 C149 1.391 . S
C149 H137 0.950 . S
C149 C145 1.393 . S
C149 C148 1.391 . S
H150 C158 0.950 . S
H151 C163 0.950 . S
H152 C160 0.950 . S
H153 C162 0.950 . S
H154 C164 0.950 . S
H155 C166 0.950 . S
H156 C168 0.950 . S
H157 C169 0.950 . S
C158 H150 0.950 . S
C158 C159 1.386 . S
C158 C160 1.391 . S
C159 C158 1.386 . S
C159 C163 1.393 . S
C160 H152 0.950 . S
C160 C158 1.391 . S
C160 C161 1.400 . S
C161 C160 1.400 . S
C161 C162 1.398 . S
C161 C167 1.491 . S
C162 H153 0.950 . S
C162 C161 1.398 . S
C162 C163 1.391 . S
C163 H151 0.950 . S
C163 C159 1.393 . S
C163 C162 1.391 . S
C164 H154 0.950 . S
C164 C165 1.386 . S
C164 C166 1.391 . S
C165 C164 1.386 . S
C165 C169 1.393 . S
C166 H155 0.950 . S
C166 C164 1.391 . S
C166 C167 1.400 . S
C167 C161 1.491 . S
C167 C166 1.400 . S
C167 C168 1.398 . S
C168 H156 0.950 . S
C168 C167 1.398 . S
C168 C169 1.391 . S
C169 H157 0.950 . S
C169 C165 1.393 . S
C169 C168 1.391 . S
H170 C178 0.950 . S
H171 C183 0.948 1_554 S
H172 C180 0.950 . S
H173 C182 0.950 . S
H174 C184 0.950 . S
H175 C186 0.950 . S
H176 C188 0.950 . S
H177 C189 0.950 . S
C178 H170 0.950 . S
C178 C179 1.386 . S
C178 C180 1.391 . S
C179 C178 1.386 . S
C179 C183 1.394 . S
C180 H172 0.950 . S
C180 C178 1.391 . S
C180 C181 1.400 . S
C181 C180 1.400 . S
C181 C182 1.398 . S
C181 C187 1.491 . S
C182 H173 0.950 . S
C182 C181 1.398 . S
C182 C183 1.391 . S
C183 H171 0.948 1_556 S
C183 C179 1.394 . S
C183 C182 1.391 . S
C184 H174 0.950 . S
C184 C185 1.386 . S
C184 C186 1.391 . S
C185 C184 1.386 . S
C185 C189 1.393 . S
C186 H175 0.950 . S
C186 C184 1.391 . S
C186 C187 1.400 . S
C187 C181 1.491 . S
C187 C186 1.400 . S
C187 C188 1.398 . S
C188 H176 0.950 . S
C188 C187 1.398 . S
C188 C189 1.391 . S
C189 H177 0.950 . S
C189 C185 1.393 . S
C189 C188 1.391 . S
H190 C198 0.950 . S
H191 C203 0.950 1_554 S
H192 C200 0.950 . S
H193 C202 0.950 . S
H194 C204 0.950 . S
H195 C206 0.950 . S
H196 C208 0.950 . S
H197 C209 0.950 . S
C198 H190 0.950 . S
C198 C199 1.386 . S
C198 C200 1.391 . S
C199 C198 1.386 . S
C199 C203 1.393 . S
C200 H192 0.950 . S
C200 C198 1.391 . S
C200 C201 1.400 . S
C201 C200 1.400 . S
C201 C202 1.398 . S
C201 C207 1.491 . S
C202 H193 0.950 . S
C202 C201 1.398 . S
C202 C203 1.391 . S
C203 H191 0.950 1_556 S
C203 C199 1.393 . S
C203 C202 1.391 . S
C204 H194 0.950 . S
C204 C205 1.386 . S
C204 C206 1.391 . S
C205 C204 1.386 . S
C205 C209 1.393 . S
C206 H195 0.950 . S
C206 C204 1.391 . S
C206 C207 1.400 . S
C207 C201 1.491 . S
C207 C206 1.400 . S
C207 C208 1.398 . S
C208 H196 0.950 . S
C208 C207 1.398 . S
C208 C209 1.391 . S
C209 H197 0.950 . S
C209 C205 1.393 . S
C209 C208 1.391 . S
H210 C218 0.950 . S
H211 C223 0.950 1_554 S
H212 C220 0.950 . S
H213 C222 0.950 . S
H214 C224 0.950 . S
H215 C226 0.950 . S
H216 C228 0.950 . S
H217 C229 0.950 . S
C218 H210 0.950 . S
C218 C219 1.386 . S
C218 C220 1.391 1_455 S
C219 C218 1.386 . S
C219 C223 1.393 1_455 S
C220 H212 0.950 . S
C220 C218 1.391 1_655 S
C220 C221 1.400 . S
C221 C220 1.400 . S
C221 C222 1.398 . S
C221 C227 1.491 . S
C222 H213 0.950 . S
C222 C221 1.398 . S
C222 C223 1.391 . S
C223 H211 0.950 1_556 S
C223 C219 1.393 1_655 S
C223 C222 1.391 . S
C224 H214 0.950 . S
C224 C225 1.386 . S
C224 C226 1.391 . S
C225 C224 1.386 . S
C225 C229 1.393 . S
C226 H215 0.950 . S
C226 C224 1.391 . S
C226 C227 1.400 . S
C227 C221 1.491 . S
C227 C226 1.400 . S
C227 C228 1.398 . S
C228 H216 0.950 . S
C228 C227 1.398 . S
C228 C229 1.391 . S
C229 H217 0.950 . S
C229 C225 1.393 . S
C229 C228 1.391 . S
H230 C238 0.950 . S
H231 C243 0.950 1_554 S
H232 C240 0.950 . S
H233 C242 0.950 . S
H234 C244 0.950 . S
H235 C246 0.950 . S
H236 C248 0.950 . S
H237 C249 0.950 . S
C238 H230 0.950 . S
C238 C239 1.386 . S
C238 C240 1.391 . S
C239 C238 1.386 . S
C239 C243 1.393 . S
C240 H232 0.950 . S
C240 C238 1.391 . S
C240 C241 1.400 . S
C241 C240 1.400 . S
C241 C242 1.398 . S
C241 C247 1.491 . S
C242 H233 0.950 . S
C242 C241 1.398 . S
C242 C243 1.391 . S
C243 H231 0.950 1_556 S
C243 C239 1.393 . S
C243 C242 1.391 . S
C244 H234 0.950 . S
C244 C245 1.386 . S
C244 C246 1.391 . S
C245 C244 1.386 . S
C245 C249 1.393 . S
C246 H235 0.950 . S
C246 C244 1.391 . S
C246 C247 1.400 . S
C247 C241 1.491 . S
C247 C246 1.400 . S
C247 C248 1.398 . S
C248 H236 0.950 . S
C248 C247 1.398 . S
C248 C249 1.391 . S
C249 H237 0.950 . S
C249 C245 1.393 . S
C249 C248 1.391 . S
H250 C258 0.950 . S
H251 C263 0.950 . S
H252 C260 0.950 . S
H253 C262 0.950 . S
H254 C264 0.950 1_455 S
H255 C266 0.950 . S
H256 C268 0.950 . S
H257 C269 0.950 . S
C258 H250 0.950 . S
C258 C259 1.386 . S
C258 C260 1.391 . S
C259 C258 1.386 . S
C259 C263 1.393 . S
C260 H252 0.950 . S
C260 C258 1.391 . S
C260 C261 1.400 . S
C261 C260 1.400 . S
C261 C262 1.398 . S
C261 C267 1.491 . S
C262 H253 0.950 . S
C262 C261 1.398 . S
C262 C263 1.391 . S
C263 H251 0.950 . S
C263 C259 1.393 . S
C263 C262 1.391 . S
C264 H254 0.950 1_655 S
C264 C265 1.386 . S
C264 C266 1.391 . S
C265 C264 1.386 . S
C265 C269 1.393 . S
C266 H255 0.950 . S
C266 C264 1.391 . S
C266 C267 1.400 . S
C267 C261 1.491 . S
C267 C266 1.400 . S
C267 C268 1.398 . S
C268 H256 0.950 . S
C268 C267 1.398 . S
C268 C269 1.391 . S
C269 H257 0.950 . S
C269 C265 1.393 . S
C269 C268 1.391 . S
H270 C278 0.950 . S
H271 C283 0.950 . S
H272 C280 0.950 . S
H273 C282 0.950 . S
H274 C284 0.950 . S
H275 C286 0.950 . S
H276 C288 0.950 . S
H277 C289 0.950 . S
C278 H270 0.950 . S
C278 C279 1.386 . S
C278 C280 1.391 . S
C279 C278 1.386 . S
C279 C283 1.393 . S
C280 H272 0.950 . S
C280 C278 1.391 . S
C280 C281 1.400 . S
C281 C280 1.400 . S
C281 C282 1.398 . S
C281 C287 1.491 . S
C282 H273 0.950 . S
C282 C281 1.398 . S
C282 C283 1.391 . S
C283 H271 0.950 . S
C283 C279 1.393 . S
C283 C282 1.391 . S
C284 H274 0.950 . S
C284 C285 1.386 . S
C284 C286 1.391 . S
C285 C284 1.386 . S
C285 C289 1.393 . S
C286 H275 0.950 . S
C286 C284 1.391 . S
C286 C287 1.400 . S
C287 C281 1.491 . S
C287 C286 1.400 . S
C287 C288 1.398 . S
C288 H276 0.950 . S
C288 C287 1.398 . S
C288 C289 1.391 . S
C289 H277 0.950 . S
C289 C285 1.393 . S
C289 C288 1.391 . S
H290 C298 0.950 . S
H291 C303 0.950 . S
H292 C300 0.950 . S
H293 C302 0.950 . S
H294 C304 0.950 . S
H295 C306 0.950 . S
H296 C308 0.950 . S
H297 C309 0.950 . S
C298 H290 0.950 . S
C298 C299 1.386 . S
C298 C300 1.391 . S
C299 C298 1.386 . S
C299 C303 1.393 . S
C300 H292 0.950 . S
C300 C298 1.391 . S
C300 C301 1.400 . S
C301 C300 1.400 . S
C301 C302 1.398 . S
C301 C307 1.491 . S
C302 H293 0.950 . S
C302 C301 1.398 . S
C302 C303 1.391 . S
C303 H291 0.950 . S
C303 C299 1.393 . S
C303 C302 1.391 . S
C304 H294 0.950 . S
C304 C305 1.386 . S
C304 C306 1.391 . S
C305 C304 1.386 . S
C305 C309 1.393 . S
C306 H295 0.950 . S
C306 C304 1.391 . S
C306 C307 1.400 . S
C307 C301 1.491 . S
C307 C306 1.400 . S
C307 C308 1.398 . S
C308 H296 0.950 . S
C308 C307 1.398 . S
C308 C309 1.391 . S
C309 H297 0.950 . S
C309 C305 1.393 . S
C309 C308 1.391 . S
H310 C318 0.950 . S
H311 C323 0.950 . S
H312 C320 0.950 . S
H313 C322 0.950 . S
H314 C324 0.950 . S
H315 C326 0.950 . S
H316 C328 0.950 . S
H317 C329 0.950 . S
C318 H310 0.950 . S
C318 C319 1.386 . S
C318 C320 1.391 . S
C319 C318 1.386 . S
C319 C323 1.393 . S
C320 H312 0.950 . S
C320 C318 1.391 . S
C320 C321 1.400 . S
C321 C320 1.400 . S
C321 C322 1.398 . S
C321 C327 1.491 . S
C322 H313 0.950 . S
C322 C321 1.398 . S
C322 C323 1.391 . S
C323 H311 0.950 . S
C323 C319 1.393 . S
C323 C322 1.391 . S
C324 H314 0.950 . S
C324 C325 1.386 . S
C324 C326 1.391 . S
C325 C324 1.386 . S
C325 C329 1.393 . S
C326 H315 0.950 . S
C326 C324 1.391 . S
C326 C327 1.400 . S
C327 C321 1.491 . S
C327 C326 1.400 . S
C327 C328 1.398 . S
C328 H316 0.950 . S
C328 C327 1.398 . S
C328 C329 1.391 . S
C329 H317 0.950 . S
C329 C325 1.393 . S
C329 C328 1.391 . S
C105 C55 1.425 . S
C99 C4 1.529 . S
C125 C51 1.407 . S
C119 C16 1.489 . S
C145 C76 1.412 . S
C139 C28 1.534 . S
C159 C40 1.498 . S
C165 C72 1.389 . S
C179 C9 1.240 . S
C185 C73 1.116 . S
C205 C88 1.129 . S
C199 C18 1.264 . S
C219 C6 1.736 . S
C225 C89 1.607 . S
C245 C85 1.634 . S
C239 C21 1.757 . S
C265 C52 1.116 1_655 S
C259 C33 1.254 . S
C279 C42 1.266 . S
C285 C67 1.137 . S
C305 C68 1.607 . S
C299 C30 1.736 . S
C325 C64 1.638 . S
C319 C45 1.760 . S
