# Generated by pormake.
# Topology anh, (6,3)-cn, num edge types: 1
# Building blocks:
#     Node 0, Type 0, BuildingBlock: HISSIN_clean_sbu_0, # of connection points: 6
#     Node 1, Type 0, BuildingBlock: HISSIN_clean_sbu_0, # of connection points: 6
#     Node 2, Type 0, BuildingBlock: HISSIN_clean_sbu_0, # of connection points: 6
#     Node 3, Type 1, BuildingBlock: BETDAH_clean_linker_0, # of connection points: 3
#     Node 4, Type 1, BuildingBlock: BETDAH_clean_linker_0, # of connection points: 3
#     Node 5, Type 1, BuildingBlock: BETDAH_clean_linker_0, # of connection points: 3
#     Node 6, Type 1, BuildingBlock: BETDAH_clean_linker_0, # of connection points: 3
#     Node 7, Type 1, BuildingBlock: BETDAH_clean_linker_0, # of connection points: 3
#     Node 8, Type 1, BuildingBlock: BETDAH_clean_linker_0, # of connection points: 3
#     Edge 9, Type (0, 1), BuildingBlock: AJUNOK_clean_linker_0, # of connection points: 2
#     Edge 10, Type (0, 1), BuildingBlock: AJUNOK_clean_linker_0, # of connection points: 2
#     Edge 11, Type (0, 1), BuildingBlock: AJUNOK_clean_linker_0, # of connection points: 2
#     Edge 12, Type (0, 1), BuildingBlock: AJUNOK_clean_linker_0, # of connection points: 2
#     Edge 13, Type (0, 1), BuildingBlock: AJUNOK_clean_linker_0, # of connection points: 2
#     Edge 14, Type (0, 1), BuildingBlock: AJUNOK_clean_linker_0, # of connection points: 2
#     Edge 15, Type (0, 1), BuildingBlock: AJUNOK_clean_linker_0, # of connection points: 2
#     Edge 16, Type (0, 1), BuildingBlock: AJUNOK_clean_linker_0, # of connection points: 2
#     Edge 17, Type (0, 1), BuildingBlock: AJUNOK_clean_linker_0, # of connection points: 2
#     Edge 18, Type (0, 1), BuildingBlock: AJUNOK_clean_linker_0, # of connection points: 2
#     Edge 19, Type (0, 1), BuildingBlock: AJUNOK_clean_linker_0, # of connection points: 2
#     Edge 20, Type (0, 1), BuildingBlock: AJUNOK_clean_linker_0, # of connection points: 2
#     Edge 21, Type (0, 1), BuildingBlock: AJUNOK_clean_linker_0, # of connection points: 2
#     Edge 22, Type (0, 1), BuildingBlock: AJUNOK_clean_linker_0, # of connection points: 2
#     Edge 23, Type (0, 1), BuildingBlock: AJUNOK_clean_linker_0, # of connection points: 2
#     Edge 24, Type (0, 1), BuildingBlock: AJUNOK_clean_linker_0, # of connection points: 2
#     Edge 25, Type (0, 1), BuildingBlock: AJUNOK_clean_linker_0, # of connection points: 2
#     Edge 26, Type (0, 1), BuildingBlock: AJUNOK_clean_linker_0, # of connection points: 2
# Relax obj value: 0.360
# Max RMSD: 0.159
# Mean RMSD: 0.115
data_MOF--net-anh--node1-HISSIN_clean_sbu_0--node2-BETDAH_clean_linker_0--edge1-AJUNOK_clean_linker_0
_symmetry_space_group_name_H-M    P1
_symmetry_Int_Tables_number       1
_symmetry_cell_setting            triclinic
loop_
_symmetry_equiv_pos_as_xyz
'x, y, z'
_cell_length_a     22.42699
_cell_length_b     22.272744
_cell_length_c     36.989356
_cell_angle_alpha  95.445051
_cell_angle_beta   89.788105
_cell_angle_gamma 120.05553
loop_
_atom_site_label
_atom_site_type_symbol
_atom_site_fract_x
_atom_site_fract_y
_atom_site_fract_z
_atom_type_partial_charge
Eu0 Eu 1.10158 0.61047 0.13447 0.0
Eu1 Eu 1.17348 0.77354 0.16306 0.0
C2 C 1.12364 0.66023 0.22249 0.0
C3 C 1.03116 0.41272 0.11819 0.0
C4 C 1.01815 0.39277 0.15353 0.0
C5 C 1.02147 0.30132 0.09724 0.0
C6 C 1.00439 0.3266 0.16035 0.0
C7 C 1.03458 0.36736 0.09034 0.0
C8 C 1.00389 0.27944 0.13204 0.0
C9 C 1.03733 0.47855 0.10938 0.0
O10 O 0.26317 0.75229 0.14939 0.0
O11 O 0.20874 0.63449 0.15209 0.0
C12 C 0.26602 0.6942 0.14983 0.0
O13 O 1.16652 0.66778 0.08889 0.0
O14 O 0.248 0.86577 0.19797 0.0
O15 O 0.18811 0.87622 0.1559 0.0
O16 O 1.16073 0.76577 0.10261 0.0
C17 C 1.17726 0.72803 0.08044 0.0
O18 O 1.0236 0.64512 0.12149 0.0
O19 O 1.05836 0.73783 0.16453 0.0
O20 O 1.14899 0.7253 0.2158 0.0
O21 O 1.01075 0.50688 0.13159 0.0
O22 O 1.09647 0.52445 0.09816 0.0
O23 O 1.10282 0.60882 0.19605 0.0
C24 C 0.30643 0.95982 0.16394 0.0
C25 C 0.32334 0.94591 0.12867 0.0
C26 C 0.4258 1.0482 0.1779 0.0
C27 C 0.3918 0.98055 0.11878 0.0
C28 C 0.3573 1.014 0.18763 0.0
C29 C 0.44432 1.02868 0.14422 0.0
C30 C 0.24179 0.90852 0.17862 0.0
C31 C 1.01071 0.69018 0.14067 0.0
H32 H 1.0161 0.4272 0.17562 0.0
H33 H 1.02291 0.2666 0.07512 0.0
H34 H 0.99074 0.31115 0.18744 0.0
H35 H 1.04536 0.38223 0.06298 0.0
H36 H 0.28488 0.90391 0.10994 0.0
H37 H 0.46476 1.08398 0.19851 0.0
H38 H 0.40441 0.96459 0.09264 0.0
H39 H 0.3453 1.02503 0.215 0.0
Eu40 Eu 0.67891 1.03952 0.48235 0.0
Eu41 Eu 0.60205 0.12851 0.47728 0.0
C42 C 0.64879 1.10408 0.55525 0.0
C43 C 0.80817 0.98076 0.49998 0.0
C44 C 0.84399 1.03108 0.5296 0.0
C45 C 0.89271 0.94391 0.50097 0.0
C46 C 0.90301 1.0362 0.54559 0.0
C47 C 0.83388 0.93872 0.48516 0.0
C48 C 0.92669 0.99122 0.53196 0.0
C49 C 0.74274 0.96939 0.4849 0.0
O50 O 0.71513 0.21382 0.47737 0.0
O51 O 0.76719 0.14722 0.47027 0.0
C52 C 0.77024 0.20826 0.47125 0.0
O53 O 0.62983 1.01374 0.42663 0.0
O54 O 0.57232 0.20024 0.50396 0.0
O55 O 0.54027 0.16045 0.44748 0.0
O56 O 0.64225 1.11984 0.42187 0.0
C57 C 0.63681 1.06162 0.40659 0.0
O58 O 0.56387 0.9574 0.485 0.0
O59 O 0.51372 1.01657 0.46438 0.0
O60 O 0.59958 1.10519 0.53648 0.0
O61 O 0.698 0.96681 0.50835 0.0
O62 O 0.74693 1.00519 0.4581 0.0
O63 O 0.69553 1.09547 0.53825 0.0
C64 C 0.57656 0.27927 0.46566 0.0
C65 C 0.62643 0.30549 0.43944 0.0
C66 C 0.61048 0.39763 0.48973 0.0
C67 C 0.67 0.37743 0.43951 0.0
C68 C 0.56628 0.32585 0.48934 0.0
C69 C 0.66543 0.42374 0.4663 0.0
C70 C 0.54668 0.20674 0.47397 0.0
C71 C 0.50887 0.95779 0.47234 0.0
H72 H 0.82509 1.06467 0.541 0.0
H73 H 0.90921 0.90792 0.49019 0.0
H74 H 0.92855 1.07329 0.56932 0.0
H75 H 0.80699 0.90004 0.46214 0.0
H76 H 0.63545 0.27059 0.42083 0.0
H77 H 0.60574 0.4321 0.51076 0.0
H78 H 0.71085 0.3967 0.42065 0.0
H79 H 0.52831 0.30668 0.50984 0.0
Eu80 Eu 0.59394 0.57576 0.80822 0.0
Eu81 Eu 0.75825 0.66401 0.82926 0.0
C82 C 0.65591 0.63058 0.89431 0.0
C83 C 0.42558 0.54185 0.77559 0.0
C84 C 0.37826 0.54672 0.79886 0.0
C85 C 0.45957 0.65626 0.75789 0.0
C86 C 0.38039 0.61049 0.80568 0.0
C87 C 0.45829 0.59287 0.75137 0.0
C88 C 0.42841 0.66799 0.78843 0.0
C89 C 0.46318 0.5089 0.78865 0.0
O90 O 0.73959 0.55212 0.82355 0.0
O91 O 0.62329 0.49156 0.80754 0.0
C92 C 0.68184 0.49273 0.81359 0.0
O93 O 0.65043 0.61794 0.75708 0.0
O94 O 0.85712 0.69981 0.85767 0.0
O95 O 0.85015 0.75404 0.81315 0.0
O96 O 0.7445 0.61273 0.77335 0.0
C97 C 0.70567 0.61506 0.7483 0.0
O98 O 0.61422 0.68391 0.80032 0.0
O99 O 0.72446 0.74559 0.82563 0.0
O100 O 0.71831 0.64974 0.88439 0.0
O101 O 0.50987 0.508 0.76783 0.0
O102 O 0.48667 0.5301 0.82242 0.0
O103 O 0.60257 0.604 0.87052 0.0
C104 C 0.9566 0.76213 0.8247 0.0
C105 C 0.96402 0.7094 0.80512 0.0
C106 C 1.07976 0.83934 0.8271 0.0
C107 C 1.03003 0.72103 0.79779 0.0
C108 C 1.01423 0.82778 0.83418 0.0
C109 C 1.08876 0.78528 0.81018 0.0
C110 C 0.89025 0.7502 0.83712 0.0
C111 C 0.6699 0.7436 0.81089 0.0
H112 H 0.35065 0.50715 0.81703 0.0
H113 H 0.49385 0.69904 0.74303 0.0
H114 H 0.35394 0.61803 0.82871 0.0
H115 H 0.49289 0.58944 0.73186 0.0
H116 H 0.91933 0.65862 0.79712 0.0
H117 H 1.12333 0.88881 0.83803 0.0
H118 H 1.03542 0.67846 0.78476 0.0
H119 H 1.00888 0.8691 0.84898 0.0
H120 H 0.63649 1.07034 0.23734 0.0
H121 H 0.76268 0.98584 0.26649 0.0
H122 H 0.73003 1.00198 0.15407 0.0
C123 C 0.67048 1.05037 0.22945 0.0
C124 C 0.68102 1.03987 0.19257 0.0
C125 C 0.69863 1.03006 0.2561 0.0
C126 C 0.73952 1.00049 0.24592 0.0
C127 C 0.75298 0.99253 0.20932 0.0
C128 C 0.7224 1.01096 0.18255 0.0
N129 N 0.80107 0.97078 0.19992 0.0
C130 C 0.85527 1.01196 0.17916 0.0
H131 H 0.76479 0.62018 0.5806 0.0
H132 H 0.94901 0.75675 0.64685 0.0
H133 H 0.96185 0.71714 0.53178 0.0
C134 C 0.81997 0.65654 0.58267 0.0
C135 C 0.85907 0.66546 0.55188 0.0
C136 C 0.85202 0.68845 0.61683 0.0
C137 C 0.92386 0.73183 0.62034 0.0
C138 C 0.96345 0.7429 0.58966 0.0
C139 C 0.93108 0.70938 0.55541 0.0
N140 N 1.0347 0.79274 0.59278 0.0
C141 C 1.05265 0.86094 0.58925 0.0
H142 H 0.23892 0.79846 0.9273 0.0
H143 H 0.44288 0.89967 0.97822 0.0
H144 H 0.41471 0.89975 0.863 0.0
C145 C 0.29444 0.8281 0.9252 0.0
C146 C 0.32208 0.84618 0.89131 0.0
C147 C 0.33725 0.84759 0.95658 0.0
C148 C 0.40928 0.88614 0.95421 0.0
C149 C 0.43767 0.9048 0.9203 0.0
C150 C 0.39345 0.88555 0.88914 0.0
N151 N 0.50998 0.93617 0.9167 0.0
C152 C 0.53261 0.91187 0.88685 0.0
H153 H 0.25186 0.7328 0.37568 0.0
H154 H 1.06939 0.53423 0.38577 0.0
H155 H 0.21599 0.64361 0.47713 0.0
C156 C 0.22003 0.69134 0.39213 0.0
C157 C 0.24233 0.69663 0.4284 0.0
C158 C 1.15841 0.63334 0.37626 0.0
C159 C 1.11722 0.57843 0.3975 0.0
C160 C 1.13747 0.58152 0.43411 0.0
C161 C 0.20047 0.64068 0.44903 0.0
N162 N 1.09698 0.52758 0.45711 0.0
C163 C 1.03201 0.46581 0.45022 0.0
H164 H 0.66528 0.24264 0.71356 0.0
H165 H 0.66413 1.05164 0.72745 0.0
H166 H 0.68832 0.19517 0.82072 0.0
C167 C 0.66802 0.20773 0.73115 0.0
C168 C 0.67698 0.22691 0.76894 0.0
C169 C 0.66456 0.14554 0.7156 0.0
C170 C 0.66842 1.10031 0.73888 0.0
C171 C 0.67702 1.1177 0.77696 0.0
C172 C 0.68196 0.18155 0.79153 0.0
N173 N 0.68061 1.07334 0.80176 0.0
C174 C 0.67702 1.0081 0.79471 0.0
H175 H 0.7621 0.66458 0.04727 0.0
H176 H 0.57806 0.67535 0.06601 0.0
H177 H 0.71143 0.69919 0.15688 0.0
C178 C 0.72792 0.67014 0.06635 0.0
C179 C 0.74536 0.68114 0.10394 0.0
C180 C 0.6682 0.66805 0.05252 0.0
C181 C 0.62341 0.67625 0.07673 0.0
C182 C 0.63864 0.68823 0.11458 0.0
C183 C 0.69991 0.69071 0.12782 0.0
N184 N 0.59504 0.69916 0.14006 0.0
C185 C 0.5317 0.6973 0.13362 0.0
C186 C 0.39798 0.75744 0.14429 0.0
C187 C 0.3342 0.6946 0.14527 0.0
C188 C 0.46143 0.75811 0.13961 0.0
C189 C 0.4646 0.69601 0.13519 0.0
H190 H 0.39921 0.80689 0.14746 0.0
H191 H 0.5086 0.80792 0.13986 0.0
S192 S 0.31441 0.51721 0.13459 0.0
N193 N 0.28032 0.56794 0.1406 0.0
N194 N 0.39809 0.57008 0.13183 0.0
C195 C 0.4017 0.63311 0.1357 0.0
C196 C 0.33723 0.63216 0.14065 0.0
C197 C 0.90007 0.29088 0.48284 0.0
C198 C 0.83752 0.27295 0.46425 0.0
C199 C 0.96273 0.35277 0.4776 0.0
C200 C 0.96654 0.3991 0.45288 0.0
H201 H 0.90033 0.25768 0.50235 0.0
H202 H 1.00863 0.36481 0.49345 0.0
S203 S 0.82036 0.37269 0.39388 0.0
N204 N 0.78539 0.30538 0.41805 0.0
N205 N 0.90262 0.41939 0.40767 0.0
C206 C 0.90517 0.38053 0.43311 0.0
C207 C 0.84105 0.3183 0.43893 0.0
C208 C 0.69662 0.8662 0.83427 0.0
C209 C 0.67167 0.81113 0.80591 0.0
C210 C 0.69808 0.92957 0.83018 0.0
C211 C 0.67574 0.94153 0.79738 0.0
H212 H 0.71415 0.85986 0.86013 0.0
H213 H 0.7167 0.96959 0.8531 0.0
S214 S 0.61267 0.818 0.71344 0.0
N215 N 0.62871 0.77574 0.74283 0.0
N216 N 0.63115 0.89389 0.73545 0.0
C217 C 0.65203 0.88772 0.7686 0.0
C218 C 0.6501 0.82297 0.7728 0.0
C219 C 0.89148 0.63601 0.10827 0.0
C220 C 0.94207 0.68784 0.13381 0.0
C221 C 0.82841 0.63338 0.09996 0.0
C222 C 0.81114 0.68224 0.11665 0.0
H223 H 0.90076 0.59693 0.09401 0.0
H224 H 0.79271 0.59232 0.07985 0.0
S225 S 0.92415 0.82908 0.18586 0.0
N226 N 0.9688 0.78946 0.17624 0.0
N227 N 0.85155 0.78461 0.16054 0.0
C228 C 0.86055 0.73373 0.1428 0.0
C229 C 0.92522 0.73656 0.15126 0.0
C230 C 0.3837 0.89065 0.44769 0.0
C231 C 0.4399 0.89007 0.46456 0.0
C232 C 0.32037 0.82877 0.43745 0.0
C233 C 0.3086 0.7621 0.44365 0.0
H234 H 0.38883 0.93952 0.44149 0.0
H235 H 0.28018 0.83328 0.42401 0.0
S236 S 0.43684 0.72953 0.48771 0.0
N237 N 0.47774 0.8152 0.48763 0.0
N238 N 0.3593 0.69995 0.46862 0.0
C239 C 0.3634 0.7605 0.46138 0.0
C240 C 0.4285 0.82378 0.47163 0.0
C241 C 0.62338 0.36563 0.78726 0.0
C242 C 0.68178 0.42443 0.80548 0.0
C243 C 0.62207 0.30239 0.77654 0.0
C244 C 0.67852 0.29341 0.78395 0.0
H245 H 0.57821 0.36866 0.78021 0.0
H246 H 0.57635 0.26005 0.76187 0.0
S247 S 0.84419 0.42885 0.83122 0.0
N248 N 0.79815 0.46796 0.83049 0.0
N249 N 0.79476 0.34891 0.81107 0.0
C250 C 0.73679 0.35075 0.80281 0.0
C251 C 0.73869 0.41598 0.81331 0.0
C252 C 1.03011 0.97715 0.53352 0.0
C253 C 0.97903 0.98431 0.55246 0.0
C254 C 1.06268 0.94453 0.54811 0.0
C255 C 1.04562 0.91931 0.58213 0.0
H256 H 1.03974 0.99036 0.50583 0.0
H257 H 1.0957 0.93261 0.53113 0.0
S258 S 0.92473 0.93539 0.64509 0.0
N259 N 0.92006 0.97155 0.60904 0.0
N260 N 0.9826 0.91147 0.6365 0.0
C261 C 1.00146 0.93382 0.60317 0.0
C262 C 0.96781 0.9664 0.58831 0.0
C263 C 1.16008 0.73938 0.83261 0.0
C264 C 1.15705 0.79104 0.81492 0.0
C265 C 0.21821 0.75573 0.8542 0.0
C266 C 0.27477 0.82412 0.85884 0.0
H267 H 1.11454 0.68872 0.83382 0.0
H268 H 0.21597 0.71649 0.87029 0.0
S269 S 0.30125 0.97026 0.80774 0.0
N270 N 0.22257 0.90657 0.79467 0.0
N271 N 0.33122 0.93863 0.83682 0.0
C272 C 0.27707 0.87256 0.83635 0.0
C273 C 0.21817 0.85542 0.81379 0.0
C274 C 0.52596 0.9851 0.13306 0.0
C275 C 0.51602 1.04265 0.14072 0.0
C276 C 0.5864 0.98795 0.14525 0.0
C277 C 0.63833 1.04825 0.16547 0.0
H278 H 0.48378 0.93482 0.1219 0.0
H279 H 0.58836 0.94012 0.14298 0.0
S280 S 0.64733 0.21928 0.18142 0.0
N281 N 0.57072 0.16667 0.16079 0.0
N282 N 0.68403 0.1714 0.18448 0.0
C283 C 0.63401 1.10922 0.16774 0.0
C284 C 0.57274 1.10656 0.1551 0.0
C285 C 0.7128 0.5511 0.48423 0.0
C286 C 0.72462 0.49519 0.47569 0.0
C287 C 0.76176 0.61206 0.50519 0.0
C288 C 0.82387 0.61879 0.51832 0.0
H289 H 0.66302 0.54517 0.47749 0.0
H290 H 0.74806 0.65111 0.51423 0.0
S291 S 0.88377 0.49199 0.49906 0.0
N292 N 0.80665 0.45419 0.4782 0.0
N293 N 0.89844 0.56892 0.51739 0.0
C294 C 0.83969 0.56696 0.50634 0.0
C295 C 0.78992 0.50486 0.48507 0.0
C296 C 0.49723 0.74129 0.84375 0.0
C297 C 0.46507 0.73671 0.81015 0.0
C298 C 0.52792 0.80304 0.86714 0.0
C299 C 0.52808 0.86233 0.85757 0.0
H300 H 0.49621 0.69583 0.85266 0.0
H301 H 0.54688 0.80266 0.89399 0.0
S302 S 0.46318 0.88166 0.76999 0.0
N303 N 0.44437 0.79936 0.76618 0.0
N304 N 0.50239 0.91646 0.81058 0.0
C305 C 0.50227 0.86075 0.82271 0.0
C306 C 0.47072 0.79749 0.79878 0.0
C307 C 0.99867 0.19066 0.17058 0.0
C308 C 0.97762 0.20581 0.13852 0.0
C309 C 0.96258 1.12374 0.18196 0.0
C310 C 0.90505 1.07002 0.16139 0.0
H311 H 1.04042 0.23188 0.18819 0.0
H312 H 0.97647 1.11555 0.20833 0.0
S313 S 0.83323 1.07956 0.07373 0.0
N314 N 0.8984 0.15928 0.08502 0.0
N315 N 0.83226 1.03317 0.10622 0.0
C316 C 0.88714 1.08243 0.12787 0.0
C317 C 0.92321 0.15059 0.11637 0.0
C318 C 0.26108 0.73554 0.03353 0.0
C319 C 0.21763 0.75905 0.04865 0.0
C320 C 0.30361 0.76759 0.00516 0.0
C321 C 0.30403 0.82409 -0.00901 0.0
H322 H 0.26264 0.69235 0.04379 0.0
H323 H 0.33461 0.74664 -0.00657 0.0
S324 S 0.20113 0.90618 0.02075 0.0
N325 N 1.17881 0.84327 0.04722 0.0
N326 N 0.25845 0.90266 -0.00614 0.0
C327 C 0.26174 0.84862 0.00602 0.0
C328 C 0.21863 0.81635 0.03486 0.0
C329 C 0.67945 1.10999 0.34742 0.0
C330 C 0.6469 1.05201 0.36739 0.0
C331 C 0.69647 1.1026 0.31139 0.0
C332 C 0.68202 1.03721 0.29433 0.0
H333 H 0.6935 0.16164 0.35992 0.0
H334 H 0.72201 0.14848 0.2969 0.0
S335 S 0.59041 0.86809 0.33299 0.0
N336 N 0.5956 0.92593 0.3661 0.0
N337 N 0.62864 0.91297 0.29863 0.0
C338 C 0.64771 0.97867 0.31347 0.0
C339 C 0.6298 0.98586 0.34994 0.0
C340 C 0.72601 0.66934 0.68985 0.0
C341 C 0.73236 0.62413 0.71158 0.0
C342 C 0.76479 0.69026 0.65882 0.0
C343 C 0.81117 0.66703 0.64918 0.0
H344 H 0.69373 0.69125 0.69779 0.0
H345 H 0.75995 0.7261 0.64287 0.0
S346 S 0.83958 0.54135 0.69415 0.0
N347 N 0.78301 0.55118 0.71886 0.0
N348 N 0.85646 0.59194 0.66124 0.0
C349 C 0.81526 0.61937 0.66957 0.0
C350 C 0.77554 0.59744 0.70061 0.0
C351 C 0.60785 0.12979 0.61564 0.0
C352 C 0.6516 1.1115 0.59619 0.0
C353 C 0.61122 0.13895 0.65399 0.0
C354 C 0.65815 0.12975 0.67484 0.0
H355 H 0.57115 0.13812 0.60117 0.0
H356 H 0.57683 0.15375 0.66747 0.0
S357 S 0.7834 1.08023 0.63771 0.0
N358 N 0.74267 1.08283 0.60135 0.0
N359 N 0.7491 1.10074 0.67287 0.0
C360 C 0.70128 1.1102 0.65582 0.0
C361 C 0.69813 1.10107 0.61678 0.0
C362 C 0.59849 0.59375 0.95409 0.0
C363 C 0.6495 0.64432 0.93406 0.0
C364 C 0.60222 0.6028 -0.00737 0.0
C365 C 0.65699 0.66266 0.01224 0.0
H366 H 0.55787 0.54543 0.94006 0.0
H367 H 0.56405 0.56136 0.00716 0.0
S368 S 0.79735 0.81444 0.97268 0.0
N369 N 0.75178 0.75965 0.93706 0.0
N370 N 0.75865 0.77577 0.00864 0.0
C371 C 0.7054 0.71504 -0.00759 0.0
C372 C 0.70165 0.70613 0.95359 0.0
C373 C 1.13423 0.70001 0.28935 0.0
C374 C 1.12236 0.64657 0.26164 0.0
C375 C 1.14204 0.69342 0.32618 0.0
C376 C 1.13851 0.63309 0.33743 0.0
H377 H 1.13937 0.7486 0.2826 0.0
H378 H 1.15289 0.73708 0.34606 0.0
S379 S 1.10416 0.47556 0.27656 0.0
N380 N 1.10363 0.52899 0.24865 0.0
N381 N 1.1189 0.5171 0.31788 0.0
C382 C 1.12346 0.57774 0.31037 0.0
C383 C 1.11535 0.58438 0.2726 0.0
loop_
_geom_bond_atom_site_label_1
_geom_bond_atom_site_label_2
_geom_bond_distance
_geom_bond_site_symmetry_2
_ccdc_geom_bond_type
Eu0 C9 2.828 . S
Eu0 O11 2.392 1_655 S
Eu0 O13 2.418 . S
Eu0 O18 2.373 . S
Eu0 O21 2.488 . S
Eu0 O22 2.471 . S
Eu0 O23 2.349 . S
Eu1 O10 2.373 . S
Eu1 O14 2.488 . S
Eu1 O15 2.471 . S
Eu1 O16 2.349 . S
Eu1 O19 2.392 1_455 S
Eu1 O20 2.418 . S
Eu1 C30 2.828 . S
C2 O20 1.244 . S
C2 O23 1.265 1_455 S
C3 C4 1.379 . S
C3 C7 1.373 . S
C3 C9 1.505 . S
C4 C3 1.379 . S
C4 C6 1.369 . S
C4 H32 0.930 . S
C5 C7 1.383 . S
C5 C8 1.382 . S
C5 H33 0.930 . S
C6 C4 1.369 . S
C6 C8 1.392 . S
C6 H34 0.930 . S
C7 C3 1.373 . S
C7 C5 1.383 . S
C7 H35 0.931 . S
C8 C5 1.382 . S
C8 C6 1.392 . S
C9 Eu0 2.828 . S
C9 C3 1.505 . S
C9 O21 1.249 . S
C9 O22 1.244 . S
O10 Eu1 2.373 . S
O10 C12 1.258 . S
O11 Eu0 2.392 1_455 S
O11 C12 1.242 . S
C12 O10 1.258 . S
C12 O11 1.242 . S
O13 Eu0 2.418 . S
O13 C17 1.244 1_655 S
O14 Eu1 2.488 . S
O14 C30 1.249 . S
O15 Eu1 2.471 . S
O15 C30 1.244 . S
O16 Eu1 2.349 . S
O16 C17 1.265 . S
C17 O13 1.244 1_455 S
C17 O16 1.265 . S
O18 Eu0 2.373 . S
O18 C31 1.258 . S
O19 Eu1 2.392 1_655 S
O19 C31 1.242 . S
O20 Eu1 2.418 . S
O20 C2 1.244 . S
O21 Eu0 2.488 . S
O21 C9 1.249 . S
O22 Eu0 2.471 . S
O22 C9 1.244 . S
O23 Eu0 2.349 . S
O23 C2 1.265 1_655 S
C24 C25 1.379 . S
C24 C28 1.373 . S
C24 C30 1.505 . S
C25 C24 1.379 . S
C25 C27 1.369 . S
C25 H36 0.930 . S
C26 C28 1.383 . S
C26 C29 1.382 . S
C26 H37 0.930 . S
C27 C25 1.369 . S
C27 C29 1.392 . S
C27 H38 0.930 . S
C28 C24 1.373 . S
C28 C26 1.383 . S
C28 H39 0.931 . S
C29 C26 1.382 . S
C29 C27 1.392 . S
C30 Eu1 2.828 . S
C30 O14 1.249 . S
C30 O15 1.244 . S
C30 C24 1.505 . S
C31 O18 1.258 . S
C31 O19 1.242 . S
H32 C4 0.930 . S
H33 C5 0.930 . S
H34 C6 0.930 . S
H35 C7 0.931 . S
H36 C25 0.930 . S
H37 C26 0.930 . S
H38 C27 0.930 . S
H39 C28 0.931 . S
Eu40 C49 2.828 . S
Eu40 O51 2.392 1_565 S
Eu40 O53 2.418 . S
Eu40 O58 2.373 . S
Eu40 O61 2.488 . S
Eu40 O62 2.471 . S
Eu40 O63 2.349 1_565 S
Eu41 O50 2.373 . S
Eu41 O54 2.488 . S
Eu41 O55 2.471 . S
Eu41 O56 2.349 . S
Eu41 O59 2.392 1_545 S
Eu41 O60 2.418 . S
Eu41 C70 2.828 . S
C42 O60 1.244 . S
C42 O63 1.265 . S
C43 C44 1.379 . S
C43 C47 1.373 . S
C43 C49 1.505 . S
C44 C43 1.379 . S
C44 C46 1.369 . S
C44 H72 0.930 . S
C45 C47 1.383 . S
C45 C48 1.382 . S
C45 H73 0.930 . S
C46 C44 1.369 . S
C46 C48 1.392 . S
C46 H74 0.930 . S
C47 C43 1.373 . S
C47 C45 1.383 . S
C47 H75 0.931 . S
C48 C45 1.382 . S
C48 C46 1.392 . S
C49 Eu40 2.828 . S
C49 C43 1.505 . S
C49 O61 1.249 . S
C49 O62 1.244 . S
O50 Eu41 2.373 . S
O50 C52 1.258 . S
O51 Eu40 2.392 1_545 S
O51 C52 1.242 . S
C52 O50 1.258 . S
C52 O51 1.242 . S
O53 Eu40 2.418 . S
O53 C57 1.244 1_565 S
O54 Eu41 2.488 . S
O54 C70 1.249 . S
O55 Eu41 2.471 . S
O55 C70 1.244 . S
O56 Eu41 2.349 . S
O56 C57 1.265 . S
C57 O53 1.244 1_545 S
C57 O56 1.265 . S
O58 Eu40 2.373 . S
O58 C71 1.258 . S
O59 Eu41 2.392 1_565 S
O59 C71 1.242 . S
O60 Eu41 2.418 . S
O60 C42 1.244 . S
O61 Eu40 2.488 . S
O61 C49 1.249 . S
O62 Eu40 2.471 . S
O62 C49 1.244 . S
O63 Eu40 2.349 1_545 S
O63 C42 1.265 . S
C64 C65 1.379 . S
C64 C68 1.373 . S
C64 C70 1.505 . S
C65 C64 1.379 . S
C65 C67 1.369 . S
C65 H76 0.930 . S
C66 C68 1.383 . S
C66 C69 1.382 . S
C66 H77 0.930 . S
C67 C65 1.369 . S
C67 C69 1.392 . S
C67 H78 0.930 . S
C68 C64 1.373 . S
C68 C66 1.383 . S
C68 H79 0.931 . S
C69 C66 1.382 . S
C69 C67 1.392 . S
C70 Eu41 2.828 . S
C70 O54 1.249 . S
C70 O55 1.244 . S
C70 C64 1.505 . S
C71 O58 1.258 . S
C71 O59 1.242 . S
H72 C44 0.930 . S
H73 C45 0.930 . S
H74 C46 0.930 . S
H75 C47 0.931 . S
H76 C65 0.930 . S
H77 C66 0.930 . S
H78 C67 0.930 . S
H79 C68 0.931 . S
Eu80 C89 2.828 . S
Eu80 O91 2.392 . S
Eu80 O93 2.418 . S
Eu80 O98 2.373 . S
Eu80 O101 2.488 . S
Eu80 O102 2.471 . S
Eu80 O103 2.349 . S
Eu81 O90 2.373 . S
Eu81 O94 2.488 . S
Eu81 O95 2.471 . S
Eu81 O96 2.349 . S
Eu81 O99 2.392 . S
Eu81 O100 2.418 . S
Eu81 C110 2.828 . S
C82 O100 1.244 . S
C82 O103 1.265 . S
C83 C84 1.379 . S
C83 C87 1.373 . S
C83 C89 1.505 . S
C84 C83 1.379 . S
C84 C86 1.369 . S
C84 H112 0.930 . S
C85 C87 1.383 . S
C85 C88 1.382 . S
C85 H113 0.930 . S
C86 C84 1.369 . S
C86 C88 1.392 . S
C86 H114 0.930 . S
C87 C83 1.373 . S
C87 C85 1.383 . S
C87 H115 0.931 . S
C88 C85 1.382 . S
C88 C86 1.392 . S
C89 Eu80 2.828 . S
C89 C83 1.505 . S
C89 O101 1.249 . S
C89 O102 1.244 . S
O90 Eu81 2.373 . S
O90 C92 1.258 . S
O91 Eu80 2.392 . S
O91 C92 1.242 . S
C92 O90 1.258 . S
C92 O91 1.242 . S
O93 Eu80 2.418 . S
O93 C97 1.244 . S
O94 Eu81 2.488 . S
O94 C110 1.249 . S
O95 Eu81 2.471 . S
O95 C110 1.244 . S
O96 Eu81 2.349 . S
O96 C97 1.265 . S
C97 O93 1.244 . S
C97 O96 1.265 . S
O98 Eu80 2.373 . S
O98 C111 1.258 . S
O99 Eu81 2.392 . S
O99 C111 1.242 . S
O100 Eu81 2.418 . S
O100 C82 1.244 . S
O101 Eu80 2.488 . S
O101 C89 1.249 . S
O102 Eu80 2.471 . S
O102 C89 1.244 . S
O103 Eu80 2.349 . S
O103 C82 1.265 . S
C104 C105 1.379 . S
C104 C108 1.373 . S
C104 C110 1.505 . S
C105 C104 1.379 . S
C105 C107 1.369 . S
C105 H116 0.930 . S
C106 C108 1.383 . S
C106 C109 1.382 . S
C106 H117 0.930 . S
C107 C105 1.369 . S
C107 C109 1.392 . S
C107 H118 0.930 . S
C108 C104 1.373 . S
C108 C106 1.383 . S
C108 H119 0.931 . S
C109 C106 1.382 . S
C109 C107 1.392 . S
C110 Eu81 2.828 . S
C110 O94 1.249 . S
C110 O95 1.244 . S
C110 C104 1.505 . S
C111 O98 1.258 . S
C111 O99 1.242 . S
H112 C84 0.930 . S
H113 C85 0.930 . S
H114 C86 0.930 . S
H115 C87 0.931 . S
H116 C105 0.930 . S
H117 C106 0.930 . S
H118 C107 0.930 . S
H119 C108 0.931 . S
H120 C123 0.929 . S
H121 C126 0.929 . S
H122 C128 0.930 . S
C123 H120 0.929 . S
C123 C124 1.398 . S
C123 C125 1.396 1_565 S
C124 C123 1.398 . S
C124 C128 1.407 1_565 S
C125 C123 1.396 1_545 S
C125 C126 1.394 . S
C126 H121 0.929 . S
C126 C125 1.394 . S
C126 C127 1.382 . S
C127 C126 1.382 . S
C127 C128 1.392 . S
C127 N129 1.420 . S
C128 H122 0.930 . S
C128 C124 1.407 1_545 S
C128 C127 1.392 . S
N129 C127 1.420 . S
N129 C130 1.244 . S
C130 N129 1.244 . S
H131 C134 0.929 . S
H132 C137 0.929 . S
H133 C139 0.930 . S
C134 H131 0.929 . S
C134 C135 1.398 . S
C134 C136 1.396 . S
C135 C134 1.398 . S
C135 C139 1.407 . S
C136 C134 1.396 . S
C136 C137 1.394 . S
C137 H132 0.929 . S
C137 C136 1.394 . S
C137 C138 1.382 . S
C138 C137 1.382 . S
C138 C139 1.392 . S
C138 N140 1.420 . S
C139 H133 0.930 . S
C139 C135 1.407 . S
C139 C138 1.392 . S
N140 C138 1.420 . S
N140 C141 1.244 . S
C141 N140 1.244 . S
H142 C145 0.929 . S
H143 C148 0.929 . S
H144 C150 0.930 . S
C145 H142 0.929 . S
C145 C146 1.398 . S
C145 C147 1.396 1_655 S
C146 C145 1.398 . S
C146 C150 1.407 1_655 S
C147 C145 1.396 1_455 S
C147 C148 1.394 . S
C148 H143 0.929 . S
C148 C147 1.394 . S
C148 C149 1.382 . S
C149 C148 1.382 . S
C149 C150 1.392 . S
C149 N151 1.420 . S
C150 H144 0.930 . S
C150 C146 1.407 1_455 S
C150 C149 1.392 . S
N151 C149 1.420 . S
N151 C152 1.244 . S
C152 N151 1.244 . S
H153 C156 0.929 . S
H154 C159 0.929 . S
H155 C161 0.930 . S
C156 H153 0.929 . S
C156 C157 1.398 . S
C156 C158 1.396 . S
C157 C156 1.398 . S
C157 C161 1.407 . S
C158 C156 1.396 . S
C158 C159 1.394 1_455 S
C159 H154 0.929 . S
C159 C158 1.394 1_655 S
C159 C160 1.382 1_655 S
C160 C159 1.382 1_455 S
C160 C161 1.392 . S
C160 N162 1.420 1_455 S
C161 H155 0.930 . S
C161 C157 1.407 . S
C161 C160 1.392 . S
N162 C160 1.420 1_655 S
N162 C163 1.244 . S
C163 N162 1.244 . S
H164 C167 0.929 . S
H165 C170 0.929 1_565 S
H166 C172 0.930 . S
C167 H164 0.929 . S
C167 C168 1.398 . S
C167 C169 1.396 . S
C168 C167 1.398 . S
C168 C172 1.407 . S
C169 C167 1.396 . S
C169 C170 1.394 . S
C170 H165 0.929 1_545 S
C170 C169 1.394 . S
C170 C171 1.382 . S
C171 C170 1.382 . S
C171 C172 1.392 . S
C171 N173 1.420 1_545 S
C172 H166 0.930 . S
C172 C168 1.407 . S
C172 C171 1.392 . S
N173 C171 1.420 1_565 S
N173 C174 1.244 . S
C174 N173 1.244 . S
H175 C178 0.929 . S
H176 C181 0.929 . S
H177 C183 0.930 . S
C178 H175 0.929 . S
C178 C179 1.398 . S
C178 C180 1.396 . S
C179 C178 1.398 . S
C179 C183 1.407 . S
C180 C178 1.396 . S
C180 C181 1.394 . S
C181 H176 0.929 . S
C181 C180 1.394 . S
C181 C182 1.382 . S
C182 C181 1.382 . S
C182 C183 1.392 . S
C182 N184 1.420 . S
C183 H177 0.930 . S
C183 C179 1.407 . S
C183 C182 1.392 . S
N184 C182 1.420 . S
N184 C185 1.244 . S
C185 N184 1.244 . S
C186 C187 1.369 . S
C186 C188 1.419 . S
C186 H190 0.930 . S
C187 C186 1.369 . S
C187 C196 1.429 . S
C188 C186 1.419 . S
C188 C189 1.363 . S
C188 H191 0.929 . S
C189 C188 1.363 . S
C189 C195 1.428 . S
H190 C186 0.930 . S
H191 C188 0.929 . S
S192 N193 1.613 . S
S192 N194 1.610 . S
N193 S192 1.613 . S
N193 C196 1.350 . S
N194 S192 1.610 . S
N194 C195 1.351 . S
C195 C189 1.428 . S
C195 N194 1.351 . S
C195 C196 1.434 . S
C196 C187 1.429 . S
C196 N193 1.350 . S
C196 C195 1.434 . S
C197 C198 1.369 . S
C197 C199 1.419 . S
C197 H201 0.930 . S
C198 C197 1.369 . S
C198 C207 1.429 . S
C199 C197 1.419 . S
C199 C200 1.363 . S
C199 H202 0.929 . S
C200 C199 1.363 . S
C200 C206 1.428 . S
H201 C197 0.930 . S
H202 C199 0.929 . S
S203 N204 1.613 . S
S203 N205 1.610 . S
N204 S203 1.613 . S
N204 C207 1.350 . S
N205 S203 1.610 . S
N205 C206 1.351 . S
C206 C200 1.428 . S
C206 N205 1.351 . S
C206 C207 1.434 . S
C207 C198 1.429 . S
C207 N204 1.350 . S
C207 C206 1.434 . S
C208 C209 1.369 . S
C208 C210 1.419 . S
C208 H212 0.930 . S
C209 C208 1.369 . S
C209 C218 1.429 . S
C210 C208 1.419 . S
C210 C211 1.363 . S
C210 H213 0.929 . S
C211 C210 1.363 . S
C211 C217 1.428 . S
H212 C208 0.930 . S
H213 C210 0.929 . S
S214 N215 1.613 . S
S214 N216 1.610 . S
N215 S214 1.613 . S
N215 C218 1.350 . S
N216 S214 1.610 . S
N216 C217 1.351 . S
C217 C211 1.428 . S
C217 N216 1.351 . S
C217 C218 1.434 . S
C218 C209 1.429 . S
C218 N215 1.350 . S
C218 C217 1.434 . S
C219 C220 1.369 . S
C219 C221 1.419 . S
C219 H223 0.930 . S
C220 C219 1.369 . S
C220 C229 1.429 . S
C221 C219 1.419 . S
C221 C222 1.363 . S
C221 H224 0.929 . S
C222 C221 1.363 . S
C222 C228 1.428 . S
H223 C219 0.930 . S
H224 C221 0.929 . S
S225 N226 1.613 . S
S225 N227 1.610 . S
N226 S225 1.613 . S
N226 C229 1.350 . S
N227 S225 1.610 . S
N227 C228 1.351 . S
C228 C222 1.428 . S
C228 N227 1.351 . S
C228 C229 1.434 . S
C229 C220 1.429 . S
C229 N226 1.350 . S
C229 C228 1.434 . S
C230 C231 1.369 . S
C230 C232 1.419 . S
C230 H234 0.930 . S
C231 C230 1.369 . S
C231 C240 1.429 . S
C232 C230 1.419 . S
C232 C233 1.363 . S
C232 H235 0.929 . S
C233 C232 1.363 . S
C233 C239 1.428 . S
H234 C230 0.930 . S
H235 C232 0.929 . S
S236 N237 1.613 . S
S236 N238 1.610 . S
N237 S236 1.613 . S
N237 C240 1.350 . S
N238 S236 1.610 . S
N238 C239 1.351 . S
C239 C233 1.428 . S
C239 N238 1.351 . S
C239 C240 1.434 . S
C240 C231 1.429 . S
C240 N237 1.350 . S
C240 C239 1.434 . S
C241 C242 1.369 . S
C241 C243 1.419 . S
C241 H245 0.930 . S
C242 C241 1.369 . S
C242 C251 1.429 . S
C243 C241 1.419 . S
C243 C244 1.363 . S
C243 H246 0.929 . S
C244 C243 1.363 . S
C244 C250 1.428 . S
H245 C241 0.930 . S
H246 C243 0.929 . S
S247 N248 1.613 . S
S247 N249 1.610 . S
N248 S247 1.613 . S
N248 C251 1.350 . S
N249 S247 1.610 . S
N249 C250 1.351 . S
C250 C244 1.428 . S
C250 N249 1.351 . S
C250 C251 1.434 . S
C251 C242 1.429 . S
C251 N248 1.350 . S
C251 C250 1.434 . S
C252 C253 1.369 . S
C252 C254 1.419 . S
C252 H256 0.930 . S
C253 C252 1.369 . S
C253 C262 1.429 . S
C254 C252 1.419 . S
C254 C255 1.363 . S
C254 H257 0.929 . S
C255 C254 1.363 . S
C255 C261 1.428 . S
H256 C252 0.930 . S
H257 C254 0.929 . S
S258 N259 1.613 . S
S258 N260 1.610 . S
N259 S258 1.613 . S
N259 C262 1.350 . S
N260 S258 1.610 . S
N260 C261 1.351 . S
C261 C255 1.428 . S
C261 N260 1.351 . S
C261 C262 1.434 . S
C262 C253 1.429 . S
C262 N259 1.350 . S
C262 C261 1.434 . S
C263 C264 1.369 . S
C263 C265 1.419 . S
C263 H267 0.930 . S
C264 C263 1.369 . S
C264 C273 1.429 . S
C265 C263 1.419 . S
C265 C266 1.363 . S
C265 H268 0.929 . S
C266 C265 1.363 . S
C266 C272 1.428 . S
H267 C263 0.930 . S
H268 C265 0.929 . S
S269 N270 1.613 1_455 S
S269 N271 1.610 . S
N270 S269 1.613 1_655 S
N270 C273 1.350 . S
N271 S269 1.610 . S
N271 C272 1.351 1_455 S
C272 C266 1.428 . S
C272 N271 1.351 1_655 S
C272 C273 1.434 . S
C273 C264 1.429 . S
C273 N270 1.350 . S
C273 C272 1.434 . S
C274 C275 1.369 . S
C274 C276 1.419 . S
C274 H278 0.930 . S
C275 C274 1.369 . S
C275 C284 1.429 . S
C276 C274 1.419 . S
C276 C277 1.363 . S
C276 H279 0.929 . S
C277 C276 1.363 . S
C277 C283 1.428 . S
H278 C274 0.930 . S
H279 C276 0.929 . S
S280 N281 1.613 1_545 S
S280 N282 1.610 . S
N281 S280 1.613 1_565 S
N281 C284 1.350 . S
N282 S280 1.610 . S
N282 C283 1.351 1_545 S
C283 C277 1.428 . S
C283 N282 1.351 1_565 S
C283 C284 1.434 . S
C284 C275 1.429 . S
C284 N281 1.350 . S
C284 C283 1.434 . S
C285 C286 1.369 . S
C285 C287 1.419 . S
C285 H289 0.930 . S
C286 C285 1.369 . S
C286 C295 1.429 . S
C287 C285 1.419 . S
C287 C288 1.363 . S
C287 H290 0.929 . S
C288 C287 1.363 . S
C288 C294 1.428 . S
H289 C285 0.930 . S
H290 C287 0.929 . S
S291 N292 1.613 . S
S291 N293 1.610 . S
N292 S291 1.613 . S
N292 C295 1.350 . S
N293 S291 1.610 . S
N293 C294 1.351 . S
C294 C288 1.428 . S
C294 N293 1.351 . S
C294 C295 1.434 . S
C295 C286 1.429 . S
C295 N292 1.350 . S
C295 C294 1.434 . S
C296 C297 1.369 . S
C296 C298 1.419 . S
C296 H300 0.930 . S
C297 C296 1.369 . S
C297 C306 1.429 . S
C298 C296 1.419 . S
C298 C299 1.363 . S
C298 H301 0.929 . S
C299 C298 1.363 . S
C299 C305 1.428 . S
H300 C296 0.930 . S
H301 C298 0.929 . S
S302 N303 1.613 . S
S302 N304 1.610 . S
N303 S302 1.613 . S
N303 C306 1.350 . S
N304 S302 1.610 . S
N304 C305 1.351 . S
C305 C299 1.428 . S
C305 N304 1.351 . S
C305 C306 1.434 . S
C306 C297 1.429 . S
C306 N303 1.350 . S
C306 C305 1.434 . S
C307 C308 1.369 . S
C307 C309 1.419 . S
C307 H311 0.930 . S
C308 C307 1.369 . S
C308 C317 1.429 . S
C309 C307 1.419 . S
C309 C310 1.363 . S
C309 H312 0.929 . S
C310 C309 1.363 . S
C310 C316 1.428 . S
H311 C307 0.930 . S
H312 C309 0.929 . S
S313 N314 1.613 . S
S313 N315 1.610 . S
N314 S313 1.613 . S
N314 C317 1.350 . S
N315 S313 1.610 . S
N315 C316 1.351 . S
C316 C310 1.428 . S
C316 N315 1.351 . S
C316 C317 1.434 . S
C317 C308 1.429 . S
C317 N314 1.350 . S
C317 C316 1.434 . S
C318 C319 1.369 1_655 S
C318 C320 1.419 1_554 S
C318 H322 0.930 . S
C319 C318 1.369 1_455 S
C319 C328 1.429 . S
C320 C318 1.419 1_556 S
C320 C321 1.363 1_655 S
C320 H323 0.929 . S
C321 C320 1.363 1_455 S
C321 C327 1.428 1_556 S
H322 C318 0.930 . S
H323 C320 0.929 . S
S324 N325 1.613 . S
S324 N326 1.610 . S
N325 S324 1.613 . S
N325 C328 1.350 . S
N326 S324 1.610 . S
N326 C327 1.351 . S
C327 C321 1.428 1_554 S
C327 N326 1.351 . S
C327 C328 1.434 . S
C328 C319 1.429 . S
C328 N325 1.350 . S
C328 C327 1.434 . S
C329 C330 1.369 . S
C329 C331 1.419 . S
C329 H333 0.930 . S
C330 C329 1.369 . S
C330 C339 1.429 . S
C331 C329 1.419 . S
C331 C332 1.363 . S
C331 H334 0.929 . S
C332 C331 1.363 . S
C332 C338 1.428 . S
H333 C329 0.930 . S
H334 C331 0.929 . S
S335 N336 1.613 . S
S335 N337 1.610 . S
N336 S335 1.613 . S
N336 C339 1.350 . S
N337 S335 1.610 . S
N337 C338 1.351 . S
C338 C332 1.428 . S
C338 N337 1.351 . S
C338 C339 1.434 . S
C339 C330 1.429 . S
C339 N336 1.350 . S
C339 C338 1.434 . S
C340 C341 1.369 . S
C340 C342 1.419 . S
C340 H344 0.930 . S
C341 C340 1.369 . S
C341 C350 1.429 . S
C342 C340 1.419 . S
C342 C343 1.363 . S
C342 H345 0.929 . S
C343 C342 1.363 . S
C343 C349 1.428 . S
H344 C340 0.930 . S
H345 C342 0.929 . S
S346 N347 1.613 . S
S346 N348 1.610 . S
N347 S346 1.613 . S
N347 C350 1.350 . S
N348 S346 1.610 . S
N348 C349 1.351 . S
C349 C343 1.428 . S
C349 N348 1.351 . S
C349 C350 1.434 . S
C350 C341 1.429 . S
C350 N347 1.350 . S
C350 C349 1.434 . S
C351 C352 1.369 . S
C351 C353 1.419 . S
C351 H355 0.930 . S
C352 C351 1.369 . S
C352 C361 1.429 . S
C353 C351 1.419 . S
C353 C354 1.363 . S
C353 H356 0.929 . S
C354 C353 1.363 . S
C354 C360 1.428 . S
H355 C351 0.930 . S
H356 C353 0.929 . S
S357 N358 1.613 . S
S357 N359 1.610 . S
N358 S357 1.613 . S
N358 C361 1.350 . S
N359 S357 1.610 . S
N359 C360 1.351 . S
C360 C354 1.428 . S
C360 N359 1.351 . S
C360 C361 1.434 . S
C361 C352 1.429 . S
C361 N358 1.350 . S
C361 C360 1.434 . S
C362 C363 1.369 . S
C362 C364 1.419 . S
C362 H366 0.930 . S
C363 C362 1.369 . S
C363 C372 1.429 . S
C364 C362 1.419 . S
C364 C365 1.363 1_556 S
C364 H367 0.929 1_556 S
C365 C364 1.363 1_554 S
C365 C371 1.428 . S
H366 C362 0.930 . S
H367 C364 0.929 1_554 S
S368 N369 1.613 . S
S368 N370 1.610 1_556 S
N369 S368 1.613 . S
N369 C372 1.350 . S
N370 S368 1.610 1_554 S
N370 C371 1.351 . S
C371 C365 1.428 . S
C371 N370 1.351 . S
C371 C372 1.434 1_554 S
C372 C363 1.429 . S
C372 N369 1.350 . S
C372 C371 1.434 1_556 S
C373 C374 1.369 . S
C373 C375 1.419 . S
C373 H377 0.930 . S
C374 C373 1.369 . S
C374 C383 1.423 . S
C375 C373 1.419 . S
C375 C376 1.363 . S
C375 H378 0.929 . S
C376 C375 1.363 . S
C376 C382 1.428 . S
H377 C373 0.930 . S
H378 C375 0.929 . S
S379 N380 1.613 . S
S379 N381 1.610 . S
N380 S379 1.613 . S
N380 C383 1.354 1_655 S
N381 S379 1.610 . S
N381 C382 1.351 1_655 S
C382 C376 1.428 . S
C382 N381 1.351 1_455 S
C382 C383 1.435 . S
C383 C374 1.423 . S
C383 N380 1.354 1_455 S
C383 C382 1.435 . S
C187 C12 3.070 . S
C189 C185 3.002 . S
C198 C52 3.071 . S
C200 C163 3.008 . S
C209 C111 3.087 . S
C211 C174 3.013 . S
C220 C31 3.071 . S
C222 C179 3.015 . S
C233 C157 3.009 . S
C231 C71 3.072 . S
C244 C168 2.989 . S
C242 C92 3.042 . S
C253 C48 0.850 . S
C255 C141 0.893 . S
C264 C109 0.719 . S
C266 C146 0.642 . S
C275 C29 0.648 . S
C277 C124 0.518 . S
C288 C135 0.685 . S
C286 C69 0.691 . S
C299 C152 0.530 . S
C297 C88 0.608 . S
C308 C8 0.677 . S
C310 C130 0.608 . S
C321 C147 1.114 . S
C319 C17 1.096 . S
C330 C57 1.077 . S
C332 C125 1.107 . S
C341 C97 1.149 . S
C343 C136 1.151 . S
C354 C169 1.761 . S
C352 C42 1.732 . S
C365 C180 1.784 . S
C363 C82 1.745 . S
C374 C2 1.766 . S
C376 C158 1.787 . S
