# Generated by pormake.
# Topology zzz, (3,6)-cn, num edge types: 1
# Building blocks:
#     Node 0, Type 0, BuildingBlock: MIDCAF_clean_linker_0, # of connection points: 3
#     Node 1, Type 0, BuildingBlock: MIDCAF_clean_linker_0, # of connection points: 3
#     Node 2, Type 0, BuildingBlock: MIDCAF_clean_linker_0, # of connection points: 3
#     Node 3, Type 0, BuildingBlock: MIDCAF_clean_linker_0, # of connection points: 3
#     Node 4, Type 0, BuildingBlock: MIDCAF_clean_linker_0, # of connection points: 3
#     Node 5, Type 0, BuildingBlock: MIDCAF_clean_linker_0, # of connection points: 3
#     Node 6, Type 0, BuildingBlock: MIDCAF_clean_linker_0, # of connection points: 3
#     Node 7, Type 0, BuildingBlock: MIDCAF_clean_linker_0, # of connection points: 3
#     Node 8, Type 1, BuildingBlock: PAMTUU_clean_sbu_0, # of connection points: 6
#     Node 9, Type 1, BuildingBlock: PAMTUU_clean_sbu_0, # of connection points: 6
#     Node 10, Type 1, BuildingBlock: PAMTUU_clean_sbu_0, # of connection points: 6
#     Node 11, Type 1, BuildingBlock: PAMTUU_clean_sbu_0, # of connection points: 6
#     Edge 12, Type (0, 1), BuildingBlock: UVAHIK_clean_linker_0, # of connection points: 2
#     Edge 13, Type (0, 1), BuildingBlock: UVAHIK_clean_linker_0, # of connection points: 2
#     Edge 14, Type (0, 1), BuildingBlock: UVAHIK_clean_linker_0, # of connection points: 2
#     Edge 15, Type (0, 1), BuildingBlock: UVAHIK_clean_linker_0, # of connection points: 2
#     Edge 16, Type (0, 1), BuildingBlock: UVAHIK_clean_linker_0, # of connection points: 2
#     Edge 17, Type (0, 1), BuildingBlock: UVAHIK_clean_linker_0, # of connection points: 2
#     Edge 18, Type (0, 1), BuildingBlock: UVAHIK_clean_linker_0, # of connection points: 2
#     Edge 19, Type (0, 1), BuildingBlock: UVAHIK_clean_linker_0, # of connection points: 2
#     Edge 20, Type (0, 1), BuildingBlock: UVAHIK_clean_linker_0, # of connection points: 2
#     Edge 21, Type (0, 1), BuildingBlock: UVAHIK_clean_linker_0, # of connection points: 2
#     Edge 22, Type (0, 1), BuildingBlock: UVAHIK_clean_linker_0, # of connection points: 2
#     Edge 23, Type (0, 1), BuildingBlock: UVAHIK_clean_linker_0, # of connection points: 2
#     Edge 24, Type (0, 1), BuildingBlock: UVAHIK_clean_linker_0, # of connection points: 2
#     Edge 25, Type (0, 1), BuildingBlock: UVAHIK_clean_linker_0, # of connection points: 2
#     Edge 26, Type (0, 1), BuildingBlock: UVAHIK_clean_linker_0, # of connection points: 2
#     Edge 27, Type (0, 1), BuildingBlock: UVAHIK_clean_linker_0, # of connection points: 2
#     Edge 28, Type (0, 1), BuildingBlock: UVAHIK_clean_linker_0, # of connection points: 2
#     Edge 29, Type (0, 1), BuildingBlock: UVAHIK_clean_linker_0, # of connection points: 2
#     Edge 30, Type (0, 1), BuildingBlock: UVAHIK_clean_linker_0, # of connection points: 2
#     Edge 31, Type (0, 1), BuildingBlock: UVAHIK_clean_linker_0, # of connection points: 2
#     Edge 32, Type (0, 1), BuildingBlock: UVAHIK_clean_linker_0, # of connection points: 2
#     Edge 33, Type (0, 1), BuildingBlock: UVAHIK_clean_linker_0, # of connection points: 2
#     Edge 34, Type (0, 1), BuildingBlock: UVAHIK_clean_linker_0, # of connection points: 2
#     Edge 35, Type (0, 1), BuildingBlock: UVAHIK_clean_linker_0, # of connection points: 2
# Relax obj value: 0.361
# Max RMSD: 0.262
# Mean RMSD: 0.221
data_MOF--net-zzz--node1-PAMTUU_clean_sbu_0--node2-MIDCAF_clean_linker_0--edge1-UVAHIK_clean_linker_0
_symmetry_space_group_name_H-M    P1
_symmetry_Int_Tables_number       1
_symmetry_cell_setting            triclinic
loop_
_symmetry_equiv_pos_as_xyz
'x, y, z'
_cell_length_a     72.5485
_cell_length_b     74.922328
_cell_length_c     25.320081
_cell_angle_alpha  97.058239
_cell_angle_beta   90.062651
_cell_angle_gamma 90.396278
loop_
_atom_site_label
_atom_site_type_symbol
_atom_site_fract_x
_atom_site_fract_y
_atom_site_fract_z
_atom_type_partial_charge
C0 C 0.81124 0.50178 0.37644 0.0
C1 C 0.80758 0.50171 0.43091 0.0
C2 C 0.78945 0.49803 0.44666 0.0
C3 C 0.77554 0.49369 0.40847 0.0
H4 H 0.73016 0.5155 0.249 0.0
H5 H 0.70251 0.52471 0.20333 0.0
H6 H 0.67977 0.47125 0.20155 0.0
H7 H 0.7074 0.46205 0.24585 0.0
H8 H 0.74915 0.44516 0.14679 0.0
H9 H 0.76523 0.42463 0.08027 0.0
H10 H 0.80976 0.42067 0.19147 0.0
H11 H 0.79374 0.44094 0.25797 0.0
H12 H 0.80103 0.4962 0.29669 0.0
H13 H 0.82505 0.50432 0.36284 0.0
H14 H 0.78619 0.49795 0.48835 0.0
H15 H 0.76195 0.48998 0.42132 0.0
N16 N 0.7498 0.49002 0.30462 0.0
N17 N 0.74543 0.46625 0.23556 0.0
N18 N 0.77318 0.4688 0.28271 0.0
C19 C 0.73894 0.48116 0.26557 0.0
C20 C 0.76252 0.45998 0.24388 0.0
C21 C 0.76697 0.48362 0.31345 0.0
C22 C 0.72083 0.4881 0.25114 0.0
C23 C 0.71896 0.50594 0.24034 0.0
C24 C 0.70325 0.51114 0.21376 0.0
C25 C 0.68901 0.49867 0.19866 0.0
C26 C 0.6904 0.4812 0.213 0.0
C27 C 0.70622 0.47593 0.23838 0.0
C28 C 0.77034 0.44498 0.20738 0.0
C29 C 0.76215 0.43957 0.15754 0.0
C30 C 0.77137 0.42784 0.11933 0.0
C31 C 0.78883 0.42118 0.13045 0.0
C32 C 0.79627 0.42544 0.18174 0.0
C33 C 0.78714 0.43724 0.21975 0.0
C34 C 0.77963 0.49269 0.35403 0.0
C35 C 0.79748 0.49715 0.3385 0.0
C36 C 0.94491 0.7913 0.40819 0.0
C37 C 0.95526 0.7886 0.45345 0.0
C38 C 0.96328 0.77161 0.45565 0.0
C39 C 0.9616 0.75795 0.4125 0.0
H40 H 0.93258 0.6951 0.21471 0.0
H41 H 0.9389 0.66334 0.18896 0.0
H42 H 0.98818 0.66809 0.28573 0.0
H43 H 0.98156 0.7001 0.31213 0.0
H44 H 0.96786 0.73014 0.12748 0.0
H45 H 0.97609 0.74593 0.05184 0.0
H46 H 0.95134 0.79437 0.13006 0.0
H47 H 0.94306 0.7787 0.20524 0.0
H48 H 0.93573 0.78072 0.33065 0.0
H49 H 0.93877 0.80421 0.40432 0.0
H50 H 0.97121 0.76901 0.49011 0.0
H51 H 0.96852 0.74527 0.41424 0.0
N52 N 0.95447 0.73041 0.31618 0.0
N53 N 0.9546 0.72697 0.22233 0.0
N54 N 0.95221 0.75558 0.26961 0.0
C55 C 0.95503 0.71959 0.26871 0.0
C56 C 0.95329 0.74498 0.2225 0.0
C57 C 0.95272 0.74856 0.31649 0.0
C58 C 0.95654 0.69991 0.26554 0.0
C59 C 0.94439 0.68917 0.23199 0.0
C60 C 0.94801 0.67098 0.21733 0.0
C61 C 0.96409 0.66323 0.23509 0.0
C62 C 0.97571 0.67375 0.27131 0.0
C63 C 0.97187 0.69197 0.28681 0.0
C64 C 0.95505 0.75326 0.17268 0.0
C65 C 0.96376 0.74403 0.12791 0.0
C66 C 0.96855 0.75307 0.08471 0.0
C67 C 0.96448 0.7714 0.08526 0.0
C68 C 0.95454 0.78021 0.12825 0.0
C69 C 0.94993 0.77126 0.17158 0.0
C70 C 0.95205 0.76118 0.36632 0.0
C71 C 0.94332 0.77781 0.36545 0.0
C72 C 0.71728 0.97474 0.3636 0.0
C73 C 0.72052 0.98021 0.41791 0.0
C74 C 0.73837 0.98626 0.43389 0.0
C75 C 0.7524 0.9874 0.39604 0.0
H76 H 0.80853 0.95737 0.24029 0.0
H77 H 0.83915 0.95336 0.2 0.0
H78 H 0.84949 0.0104 0.23517 0.0
H79 H 0.81889 0.01428 0.27484 0.0
H80 H 0.78395 0.01138 0.1349 0.0
H81 H 0.77057 0.02151 0.0553 0.0
H82 H 0.71603 0.01088 0.11263 0.0
H83 H 0.72923 0.00061 0.19164 0.0
H84 H 0.72783 0.97248 0.28433 0.0
H85 H 0.70372 0.97022 0.3496 0.0
H86 H 0.74136 0.99046 0.47548 0.0
H87 H 0.76577 0.99277 0.40911 0.0
N88 N 0.78041 0.98489 0.30334 0.0
N89 N 0.78407 0.99619 0.22108 0.0
N90 N 0.75465 0.99383 0.25662 0.0
C91 C 0.79155 0.98946 0.26348 0.0
C92 C 0.76567 0.99841 0.21723 0.0
C93 C 0.76177 0.98723 0.29985 0.0
C94 C 0.81153 0.98608 0.26156 0.0
C95 C 0.81777 0.96885 0.24194 0.0
C96 C 0.83517 0.96663 0.21808 0.0
C97 C 0.84667 0.9816 0.21373 0.0
C98 C 0.84108 0.99857 0.23817 0.0
C99 C 0.8236 0.0008 0.26134 0.0
C100 C 0.75767 0.00511 0.16967 0.0
C101 C 0.7691 0.01119 0.13056 0.0
C102 C 0.76147 0.01705 0.08503 0.0
C103 C 0.7423 0.0168 0.07757 0.0
C104 C 0.73089 0.01091 0.11687 0.0
C105 C 0.73847 0.00515 0.1624 0.0
C106 C 0.74872 0.98281 0.34155 0.0
C107 C 0.73112 0.97611 0.32604 0.0
C108 C 0.56246 0.70735 0.99165 0.0
C109 C 0.55104 0.7122 0.95098 0.0
C110 C 0.54583 0.73027 0.95195 0.0
C111 C 0.55157 0.74314 0.99365 0.0
H112 H 0.58224 0.79728 0.04604 0.0
H113 H 0.57855 0.82859 0.03165 0.0
H114 H 0.54997 0.83924 0.18155 0.0
H115 H 0.55405 0.80765 0.19661 0.0
H116 H 0.56076 0.76518 0.27633 0.0
H117 H 0.56346 0.74702 0.3506 0.0
H118 H 0.59895 0.71007 0.25432 0.0
H119 H 0.59642 0.72813 0.18174 0.0
H120 H 0.57642 0.71575 0.06473 0.0
H121 H 0.56652 0.6935 0.99243 0.0
H122 H 0.5371 0.73438 0.92093 0.0
H123 H 0.54697 0.75688 0.99417 0.0
N124 N 0.56574 0.76891 0.08167 0.0
N125 N 0.57252 0.77411 0.17345 0.0
N126 N 0.57091 0.74467 0.1293 0.0
C127 C 0.56877 0.78058 0.12646 0.0
C128 C 0.57383 0.75601 0.17453 0.0
C129 C 0.56667 0.75093 0.08297 0.0
C130 C 0.56835 0.80006 0.12233 0.0
C131 C 0.57544 0.80636 0.07641 0.0
C132 C 0.57344 0.82432 0.06832 0.0
C133 C 0.56399 0.83634 0.10549 0.0
C134 C 0.55732 0.83021 0.1523 0.0
C135 C 0.55971 0.81222 0.16102 0.0
C136 C 0.57834 0.748 0.22338 0.0
C137 C 0.56958 0.75349 0.27204 0.0
C138 C 0.57097 0.74298 0.31421 0.0
C139 C 0.58135 0.72701 0.30843 0.0
C140 C 0.59104 0.72235 0.26075 0.0
C141 C 0.5895 0.73267 0.21886 0.0
C142 C 0.56237 0.73807 0.03542 0.0
C143 C 0.56801 0.7201 0.03339 0.0
C144 C 0.22756 0.53142 0.08638 0.0
C145 C 0.22427 0.5134 0.06578 0.0
C146 C 0.23518 0.49996 0.08432 0.0
C147 C 0.24849 0.50442 0.12424 0.0
H148 H 0.31678 0.51233 0.19606 0.0
H149 H 0.34636 0.50252 0.23007 0.0
H150 H 0.32158 0.50075 0.38444 0.0
H151 H 0.29245 0.51036 0.35062 0.0
H152 H 0.27385 0.55095 0.38582 0.0
H153 H 0.25778 0.56953 0.45668 0.0
H154 H 0.21957 0.58626 0.34187 0.0
H155 H 0.23559 0.56772 0.27062 0.0
H156 H 0.24214 0.54979 0.14312 0.0
H157 H 0.21934 0.54211 0.07353 0.0
H158 H 0.23309 0.48595 0.06894 0.0
H159 H 0.2561 0.49374 0.13939 0.0
N160 N 0.27714 0.51766 0.20762 0.0
N161 N 0.27895 0.53485 0.29175 0.0
N162 N 0.25543 0.54031 0.23312 0.0
C163 C 0.2858 0.52171 0.2556 0.0
C164 C 0.26388 0.54429 0.28089 0.0
C165 C 0.26183 0.52706 0.19635 0.0
C166 C 0.30237 0.5121 0.27074 0.0
C167 C 0.31762 0.50929 0.23673 0.0
C168 C 0.33457 0.50387 0.25639 0.0
C169 C 0.33639 0.50092 0.31011 0.0
C170 C 0.32071 0.50267 0.3428 0.0
C171 C 0.30399 0.50827 0.32347 0.0
C172 C 0.25583 0.55759 0.32252 0.0
C173 C 0.26223 0.55882 0.37535 0.0
C174 C 0.25304 0.56945 0.41605 0.0
C175 C 0.23738 0.57922 0.40479 0.0
C176 C 0.2317 0.57897 0.35163 0.0
C177 C 0.2408 0.56821 0.3109 0.0
C178 C 0.2509 0.52237 0.14692 0.0
C179 C 0.24061 0.53582 0.12654 0.0
C180 C 0.08277 0.21442 0.03168 0.0
C181 C 0.06469 0.21197 0.01215 0.0
C182 C 0.05123 0.22473 0.03019 0.0
C183 C 0.05546 0.23883 0.0701 0.0
H184 H 0.0522 0.29921 0.16083 0.0
H185 H 0.04532 0.33066 0.1943 0.0
H186 H 0.08644 0.32931 0.3172 0.0
H187 H 0.09315 0.29821 0.28425 0.0
H188 H 0.07283 0.25908 0.34337 0.0
H189 H 0.06646 0.23953 0.4115 0.0
H190 H 0.08036 0.19315 0.30039 0.0
H191 H 0.087 0.21256 0.23272 0.0
H192 H 0.1005 0.22888 0.08999 0.0
H193 H 0.09338 0.20472 0.01896 0.0
H194 H 0.03719 0.22316 0.01568 0.0
H195 H 0.04454 0.24764 0.08634 0.0
N196 N 0.07356 0.26832 0.15611 0.0
N197 N 0.0783 0.26661 0.24738 0.0
N198 N 0.07885 0.24045 0.18704 0.0
C199 C 0.07533 0.27663 0.20696 0.0
C200 C 0.07996 0.2485 0.23781 0.0
C201 C 0.07577 0.25016 0.14617 0.0
C202 C 0.07312 0.29627 0.22018 0.0
C203 C 0.06002 0.30584 0.19418 0.0
C204 C 0.05601 0.32375 0.21353 0.0
C205 C 0.06533 0.33245 0.25843 0.0
C206 C 0.07916 0.32311 0.28223 0.0
C207 C 0.08292 0.30523 0.26355 0.0
C208 C 0.0801 0.23736 0.28221 0.0
C209 C 0.07501 0.24476 0.33385 0.0
C210 C 0.07123 0.23356 0.37285 0.0
C211 C 0.07263 0.2148 0.36108 0.0
C212 C 0.07922 0.20756 0.31086 0.0
C213 C 0.0829 0.21871 0.27186 0.0
C214 C 0.07311 0.24018 0.09297 0.0
C215 C 0.08688 0.22827 0.07218 0.0
C216 C 0.31027 0.99721 0.11739 0.0
C217 C 0.30784 0.00752 0.07523 0.0
C218 C 0.29153 0.01759 0.07368 0.0
C219 C 0.27814 0.0175 0.11393 0.0
H220 H 0.21274 0.98968 0.20112 0.0
H221 H 0.1808 0.98911 0.23236 0.0
H222 H 0.18906 0.04121 0.32331 0.0
H223 H 0.22079 0.04163 0.29192 0.0
H224 H 0.24589 0.99605 0.38064 0.0
H225 H 0.25884 0.98608 0.46111 0.0
H226 H 0.31375 0.99508 0.40389 0.0
H227 H 0.30095 0.00498 0.32352 0.0
H228 H 0.29979 0.98934 0.18966 0.0
H229 H 0.32271 0.98949 0.12052 0.0
H230 H 0.28917 0.02561 0.04157 0.0
H231 H 0.26592 0.02564 0.11236 0.0
N232 N 0.24996 0.01234 0.19977 0.0
N233 N 0.2466 0.00961 0.29101 0.0
N234 N 0.27543 0.0054 0.25103 0.0
C235 C 0.23913 0.01292 0.24414 0.0
C236 C 0.2647 0.00585 0.29488 0.0
C237 C 0.26833 0.00863 0.20342 0.0
C238 C 0.21908 0.01584 0.24342 0.0
C239 C 0.20736 0.00139 0.22543 0.0
C240 C 0.18918 0.00095 0.24412 0.0
C241 C 0.18243 0.01499 0.28105 0.0
C242 C 0.19369 0.03023 0.29467 0.0
C243 C 0.21187 0.03056 0.2764 0.0
C244 C 0.27241 0.00122 0.34551 0.0
C245 C 0.26073 0.99612 0.38549 0.0
C246 C 0.2681 0.99035 0.43147 0.0
C247 C 0.28726 0.98986 0.4387 0.0
C248 C 0.29891 0.99553 0.39961 0.0
C249 C 0.29157 0.00107 0.35339 0.0
C250 C 0.28099 0.00757 0.15688 0.0
C251 C 0.29711 0.99726 0.15749 0.0
C252 C 0.46462 0.29607 0.48692 0.0
C253 C 0.47479 0.29151 0.53049 0.0
C254 C 0.47985 0.27349 0.53181 0.0
C255 C 0.47563 0.26046 0.48891 0.0
H256 H 0.44825 0.20624 0.42455 0.0
H257 H 0.45115 0.17483 0.438 0.0
H258 H 0.48283 0.16473 0.29324 0.0
H259 H 0.47992 0.19644 0.27964 0.0
H260 H 0.45137 0.24121 0.20283 0.0
H261 H 0.45414 0.25929 0.12816 0.0
H262 H 0.49579 0.29225 0.21568 0.0
H263 H 0.49305 0.27439 0.28881 0.0
H264 H 0.45369 0.28731 0.40962 0.0
H265 H 0.4607 0.30988 0.4845 0.0
H266 H 0.48765 0.26964 0.56506 0.0
H267 H 0.48042 0.24683 0.48968 0.0
N268 N 0.46419 0.23489 0.39471 0.0
N269 N 0.46679 0.23026 0.3012 0.0
N270 N 0.46774 0.25945 0.34705 0.0
C271 C 0.46458 0.22348 0.3485 0.0
C272 C 0.46835 0.24836 0.30063 0.0
C273 C 0.4656 0.25289 0.39407 0.0
C274 C 0.46399 0.20386 0.35126 0.0
C275 C 0.45559 0.19728 0.39503 0.0
C276 C 0.45712 0.17922 0.40256 0.0
C277 C 0.46727 0.1673 0.36678 0.0
C278 C 0.47502 0.17365 0.32164 0.0
C279 C 0.47325 0.19176 0.31367 0.0
C280 C 0.47196 0.25648 0.25143 0.0
C281 C 0.46142 0.25203 0.20508 0.0
C282 C 0.4629 0.26246 0.16273 0.0
C283 C 0.47519 0.27722 0.16596 0.0
C284 C 0.48639 0.28086 0.21133 0.0
C285 C 0.48474 0.27069 0.25349 0.0
C286 C 0.46665 0.26539 0.44374 0.0
C287 C 0.46071 0.28318 0.44386 0.0
Tb288 Tb 0.99878 0.00565 0.70979 0.0
Tb289 Tb 0.03041 0.98922 0.78235 0.0
C290 C 0.98886 0.99339 0.81971 0.0
C291 C 0.98005 0.03907 0.63584 0.0
C292 C 0.98754 0.0726 0.60087 0.0
C293 C 0.97133 0.063 0.58452 0.0
C294 C 0.96757 0.04633 0.60214 0.0
C295 C 0.99618 0.04863 0.652 0.0
C296 C 0.99987 0.06522 0.63494 0.0
C297 C 0.97698 0.02145 0.654 0.0
O298 O 0.00816 0.02722 0.76926 0.0
O299 O 0.03731 0.01763 0.78543 0.0
O300 O 0.04149 0.98823 0.70216 0.0
O301 O 0.02532 0.01153 0.6754 0.0
O302 O 0.04359 0.98845 0.85611 0.0
O303 O 0.05239 0.97138 0.78612 0.0
O304 O 0.0126 0.96661 0.75444 0.0
O305 O 0.99973 0.97706 0.68109 0.0
O306 O 0.98345 0.99358 0.77024 0.0
O307 O 0.00635 0.99517 0.83328 0.0
C308 C 0.02512 0.03052 0.78598 0.0
O309 O 0.98836 0.00899 0.6342 0.0
O310 O 0.97542 0.02182 0.70543 0.0
C311 C 0.03931 0.00049 0.66996 0.0
C312 C 0.05067 0.95806 0.86457 0.0
C313 C 0.04136 0.92428 0.89566 0.0
C314 C 0.05728 0.92633 0.86529 0.0
C315 C 0.06191 0.94309 0.85001 0.0
C316 C 0.0354 0.95626 0.89768 0.0
C317 C 0.03088 0.93957 0.91334 0.0
C318 C 0.05311 0.97431 0.83782 0.0
C319 C 0.00383 0.96385 0.70875 0.0
H320 H 0.96161 0.0684 0.55822 0.0
H321 H 0.95508 0.03906 0.58917 0.0
H322 H 0.00611 0.04311 0.67739 0.0
H323 H 0.01266 0.07204 0.6473 0.0
H324 H 0.06559 0.91482 0.85076 0.0
H325 H 0.07365 0.94413 0.82413 0.0
H326 H 0.02639 0.96752 0.90942 0.0
H327 H 0.01879 0.93854 0.93784 0.0
Tb328 Tb 0.50511 0.98559 0.70179 0.0
Tb329 Tb 0.52054 0.02009 0.781 0.0
C330 C 0.52065 0.98179 0.81334 0.0
C331 C 0.47368 0.94917 0.65305 0.0
C332 C 0.43735 0.93577 0.65521 0.0
C333 C 0.45011 0.92795 0.61734 0.0
C334 C 0.46809 0.93476 0.61594 0.0
C335 C 0.46158 0.95591 0.69368 0.0
C336 C 0.44356 0.9494 0.69457 0.0
C337 C 0.49119 0.95853 0.64658 0.0
O338 O 0.48081 0.9992 0.7377 0.0
O339 O 0.4936 0.01442 0.81349 0.0
O340 O 0.50347 0.02963 0.72002 0.0
O341 O 0.50935 0.00723 0.65316 0.0
O342 O 0.53164 0.03166 0.85434 0.0
O343 O 0.52599 0.0478 0.79148 0.0
O344 O 0.54241 0.01384 0.72298 0.0
O345 O 0.535 0.9845 0.69182 0.0
O346 O 0.50628 0.97851 0.78229 0.0
O347 O 0.53118 0.99582 0.80916 0.0
C348 C 0.47916 0.00769 0.78617 0.0
O349 O 0.48942 0.97499 0.63563 0.0
O350 O 0.50347 0.95746 0.68364 0.0
C351 C 0.5048 0.02392 0.66915 0.0
C352 C 0.55351 0.05405 0.84018 0.0
C353 C 0.59137 0.06302 0.84482 0.0
C354 C 0.58141 0.06331 0.79734 0.0
C355 C 0.5627 0.05881 0.79495 0.0
C356 C 0.5632 0.05461 0.88826 0.0
C357 C 0.58195 0.05897 0.89054 0.0
C358 C 0.53442 0.04707 0.83657 0.0
C359 C 0.54675 0.9981 0.69729 0.0
H360 H 0.44599 0.91714 0.58723 0.0
H361 H 0.47735 0.92929 0.5846 0.0
H362 H 0.46576 0.96693 0.72306 0.0
H363 H 0.43425 0.95598 0.72405 0.0
H364 H 0.58815 0.06661 0.76162 0.0
H365 H 0.55563 0.05854 0.75716 0.0
H366 H 0.55644 0.05096 0.92358 0.0
H367 H 0.58921 0.05831 0.92763 0.0
Tb368 Tb 0.50319 0.49847 0.77987 0.0
Tb369 Tb 0.53392 0.50662 0.68892 0.0
C370 C 0.49239 0.50163 0.6607 0.0
C371 C 0.48038 0.47244 0.87508 0.0
C372 C 0.47888 0.43975 0.92004 0.0
C373 C 0.46366 0.45143 0.9235 0.0
C374 C 0.46438 0.46758 0.90091 0.0
C375 C 0.49572 0.46111 0.87269 0.0
C376 C 0.49496 0.44489 0.89451 0.0
C377 C 0.48064 0.48846 0.84681 0.0
O378 O 0.52026 0.47487 0.76328 0.0
O379 O 0.52873 0.47771 0.67757 0.0
O380 O 0.54938 0.50002 0.75764 0.0
O381 O 0.52802 0.50827 0.82261 0.0
O382 O 0.54267 0.50517 0.6093 0.0
O383 O 0.55963 0.51788 0.67344 0.0
O384 O 0.52573 0.53245 0.72959 0.0
O385 O 0.49802 0.52631 0.76907 0.0
O386 O 0.49055 0.49243 0.70136 0.0
O387 O 0.50713 0.51146 0.65537 0.0
C388 C 0.52563 0.46776 0.71599 0.0
O389 O 0.49396 0.49996 0.85914 0.0
O390 O 0.47862 0.48512 0.79553 0.0
C391 C 0.54509 0.50476 0.80779 0.0
C392 C 0.55911 0.53177 0.59546 0.0
C393 C 0.56328 0.56499 0.55404 0.0
C394 C 0.57859 0.55636 0.57367 0.0
C395 C 0.57651 0.53992 0.59392 0.0
C396 C 0.54378 0.54024 0.57573 0.0
C397 C 0.54587 0.55659 0.55489 0.0
C398 C 0.557 0.51544 0.62217 0.0
C399 C 0.51002 0.53756 0.75216 0.0
H400 H 0.45116 0.4481 0.94357 0.0
H401 H 0.45236 0.47615 0.90297 0.0
H402 H 0.5082 0.46465 0.85296 0.0
H403 H 0.50687 0.43621 0.89011 0.0
H404 H 0.59215 0.5625 0.57476 0.0
H405 H 0.58847 0.53378 0.60972 0.0
H406 H 0.53012 0.53437 0.5771 0.0
H407 H 0.53379 0.56262 0.53948 0.0
Tb408 Tb 0.02149 0.51567 0.7155 0.0
Tb409 Tb 0.00989 0.48111 0.77678 0.0
C410 C 0.00748 0.52029 0.83207 0.0
C411 C 0.04521 0.55567 0.67064 0.0
C412 C 0.0755 0.57868 0.66132 0.0
C413 C 0.05881 0.5813 0.63512 0.0
C414 C 0.0438 0.56984 0.63968 0.0
C415 C 0.06139 0.55367 0.69966 0.0
C416 C 0.07645 0.56512 0.69507 0.0
C417 C 0.03039 0.5422 0.66816 0.0
O418 O 0.04759 0.50623 0.74463 0.0
O419 O 0.03708 0.489 0.80812 0.0
O420 O 0.02727 0.47188 0.70943 0.0
O421 O 0.01797 0.49234 0.65607 0.0
O422 O 0.00384 0.46978 0.84696 0.0
O423 O 0.00426 0.4535 0.77046 0.0
O424 O 0.98634 0.48503 0.72599 0.0
O425 O 0.99155 0.5143 0.71078 0.0
O426 O 0.02057 0.52469 0.80029 0.0
O427 O 0.99827 0.50513 0.82124 0.0
C428 C 0.05044 0.49742 0.78586 0.0
O429 O 0.03534 0.52568 0.65282 0.0
O430 O 0.0191 0.54325 0.70841 0.0
C431 C 0.02454 0.47646 0.6618 0.0
C432 C 0.98257 0.4457 0.83287 0.0
C433 C 0.94905 0.42921 0.85682 0.0
C434 C 0.9643 0.4293 0.89132 0.0
C435 C 0.98091 0.43743 0.87933 0.0
C436 C 0.96741 0.44571 0.79834 0.0
C437 C 0.95084 0.43747 0.81008 0.0
C438 C 1.0002 0.45407 0.82074 0.0
C439 C 0.98077 0.50007 0.70942 0.0
H440 H 0.05761 0.59177 0.6094 0.0
H441 H 0.03135 0.57159 0.61726 0.0
H442 H 0.06264 0.54278 0.72386 0.0
H443 H 0.08916 0.56267 0.71538 0.0
H444 H 0.96332 0.42338 0.92816 0.0
H445 H 0.99245 0.43735 0.9065 0.0
H446 H 0.96839 0.45203 0.76219 0.0
H447 H 0.93947 0.4375 0.78234 0.0
C448 C 0.16157 0.99644 0.33202 0.0
C449 C 0.16509 0.01272 0.31133 0.0
C450 C 0.14693 0.99494 0.36717 0.0
C451 C 0.10307 0.01515 0.41786 0.0
H452 H 0.11567 0.99394 0.54519 0.0
C453 C 0.05317 0.0168 0.59806 0.0
C454 C 0.05303 0.00194 0.62705 0.0
C455 C 0.06628 0.01816 0.55806 0.0
C456 C 0.11173 0.99964 0.50959 0.0
H457 H 0.15534 0.03992 0.3096 0.0
H458 H 0.12963 0.03723 0.3708 0.0
H459 H 0.13876 0.99574 0.47655 0.0
H460 H 0.06639 0.97665 0.63565 0.0
H461 H 0.08879 0.97874 0.56534 0.0
H462 H 0.07593 0.01883 0.45055 0.0
C463 C 0.13828 0.02565 0.3598 0.0
C464 C 0.12505 0.00071 0.47019 0.0
C465 C 0.15306 0.02722 0.32494 0.0
C466 C 0.06618 0.98838 0.61457 0.0
C467 C 0.07915 0.98965 0.5743 0.0
C468 C 0.08964 0.01392 0.45712 0.0
C469 C 0.13533 0.00963 0.38238 0.0
C470 C 0.12091 0.00844 0.42378 0.0
C471 C 0.07951 0.00462 0.54565 0.0
C472 C 0.09377 0.0061 0.50359 0.0
H473 H 0.17065 0.98507 0.32309 0.0
H474 H 0.14491 0.98234 0.38331 0.0
H475 H 0.0994 0.02109 0.38242 0.0
H476 H 0.04328 0.02753 0.6067 0.0
H477 H 0.06622 0.03002 0.53754 0.0
C478 C 0.45722 0.13867 0.40086 0.0
C479 C 0.47114 0.1489 0.37995 0.0
C480 C 0.46151 0.12275 0.42167 0.0
C481 C 0.49982 0.10344 0.48771 0.0
H482 H 0.46886 0.06075 0.47881 0.0
C483 C 0.50076 0.05523 0.64695 0.0
C484 C 0.50134 0.03666 0.62999 0.0
C485 C 0.4979 0.06747 0.61048 0.0
C486 C 0.47773 0.07251 0.48123 0.0
H487 H 0.50031 0.14997 0.36206 0.0
H488 H 0.50778 0.12212 0.39816 0.0
H489 H 0.46231 0.08414 0.4218 0.0
H490 H 0.49915 0.01636 0.56136 0.0
H491 H 0.49382 0.03789 0.49745 0.0
H492 H 0.51494 0.09212 0.54799 0.0
C493 C 0.49357 0.12649 0.39872 0.0
C494 C 0.47392 0.08593 0.4489 0.0
C495 C 0.48926 0.14234 0.37756 0.0
C496 C 0.4988 0.03059 0.57564 0.0
C497 C 0.49569 0.04288 0.53912 0.0
C498 C 0.5035 0.09016 0.52032 0.0
C499 C 0.47983 0.1168 0.42237 0.0
C500 C 0.4848 0.10165 0.4523 0.0
C501 C 0.49537 0.06145 0.5562 0.0
C502 C 0.49233 0.07469 0.51805 0.0
H503 H 0.44311 0.14332 0.40284 0.0
H504 H 0.45062 0.11565 0.43983 0.0
H505 H 0.50834 0.11547 0.49176 0.0
H506 H 0.50271 0.06039 0.68847 0.0
H507 H 0.49749 0.08168 0.6249 0.0
C508 C 0.35629 0.48573 0.37254 0.0
C509 C 0.35469 0.49768 0.33406 0.0
C510 C 0.37263 0.48481 0.40145 0.0
C511 C 0.41334 0.51266 0.44556 0.0
H512 H 0.43048 0.46872 0.49512 0.0
C513 C 0.47882 0.51077 0.57655 0.0
C514 C 0.47765 0.50056 0.61952 0.0
C515 C 0.46487 0.50977 0.53793 0.0
C516 C 0.42579 0.48114 0.48195 0.0
H517 H 0.36943 0.51742 0.29419 0.0
H518 H 0.3981 0.51551 0.3437 0.0
H519 H 0.40481 0.46754 0.43242 0.0
H520 H 0.46082 0.48121 0.65521 0.0
H521 H 0.43654 0.47956 0.58825 0.0
H522 H 0.43419 0.52628 0.49554 0.0
C523 C 0.38657 0.50707 0.35222 0.0
C524 C 0.41107 0.48046 0.44592 0.0
C525 C 0.3702 0.50799 0.32325 0.0
C526 C 0.46223 0.48926 0.6227 0.0
C527 C 0.44833 0.48821 0.58402 0.0
C528 C 0.42809 0.51333 0.4815 0.0
C529 C 0.38785 0.4958 0.39264 0.0
C530 C 0.40449 0.49624 0.42769 0.0
C531 C 0.44944 0.49847 0.54116 0.0
C532 C 0.43437 0.49761 0.50068 0.0
H533 H 0.34468 0.47746 0.38151 0.0
H534 H 0.37301 0.47604 0.43237 0.0
H535 H 0.40849 0.52514 0.43321 0.0
H536 H 0.4905 0.5196 0.57269 0.0
H537 H 0.46628 0.51773 0.50522 0.0
C538 C 0.04094 0.35408 0.29492 0.0
C539 C 0.05963 0.35046 0.28423 0.0
C540 C 0.03577 0.36959 0.32795 0.0
C541 C 0.05223 0.41393 0.3937 0.0
H542 H 0.01915 0.40387 0.50677 0.0
C543 C 0.02753 0.46832 0.56282 0.0
C544 C 0.02823 0.46327 0.61448 0.0
C545 C 0.03054 0.45562 0.5183 0.0
C546 C 0.0284 0.4069 0.47544 0.0
H547 H 0.08745 0.36089 0.29644 0.0
H548 H 0.07846 0.38794 0.35407 0.0
H549 H 0.02554 0.38043 0.43369 0.0
H550 H 0.03273 0.44089 0.65978 0.0
H551 H 0.03787 0.41884 0.58236 0.0
H552 H 0.05541 0.44032 0.43653 0.0
C553 C 0.06777 0.37881 0.33707 0.0
C554 C 0.03189 0.39354 0.43321 0.0
C555 C 0.07294 0.36326 0.30434 0.0
C556 C 0.03209 0.44528 0.62062 0.0
C557 C 0.03491 0.43259 0.57621 0.0
C558 C 0.0486 0.42738 0.43582 0.0
C559 C 0.04918 0.38186 0.35067 0.0
C560 C 0.04407 0.39678 0.39225 0.0
C561 C 0.03408 0.43758 0.52455 0.0
C562 C 0.03691 0.42388 0.47765 0.0
H563 H 0.03037 0.34443 0.28032 0.0
H564 H 0.02131 0.37168 0.33715 0.0
H565 H 0.0616 0.41686 0.36258 0.0
H566 H 0.0246 0.48208 0.55671 0.0
H567 H 0.02975 0.45985 0.47896 0.0
C568 C 0.87952 0.98934 0.19172 0.0
C569 C 0.86294 0.98011 0.17751 0.0
C570 C 0.89391 0.9896 0.15479 0.0
C571 C 0.90149 0.98703 0.01125 0.0
H572 H 0.95268 0.97834 0.04292 0.0
C573 C 0.95709 0.98475 0.84742 0.0
C574 C 0.97489 0.99118 0.86142 0.0
C575 C 0.9439 0.98272 0.88664 0.0
C576 C 0.93851 0.9811 0.03349 0.0
H577 H 0.84861 0.96381 0.11334 0.0
H578 H 0.87359 0.96437 0.04911 0.0
H579 H 0.92919 0.97606 0.11085 0.0
H580 H 0.99275 0.00057 0.92792 0.0
H581 H 0.96964 0.99773 0.9961 0.0
H582 H 0.91061 0.99269 0.93486 0.0
C583 C 0.8755 0.97131 0.08887 0.0
C584 C 0.92503 0.97968 0.07249 0.0
C585 C 0.86127 0.97083 0.12592 0.0
C586 C 0.97919 0.9955 0.91568 0.0
C587 C 0.96591 0.99373 0.95492 0.0
C588 C 0.91495 0.98871 0.9726 0.0
C589 C 0.89188 0.98091 0.10258 0.0
C590 C 0.90635 0.98251 0.06166 0.0
C591 C 0.94802 0.98733 0.94105 0.0
C592 C 0.93369 0.98566 0.98287 0.0
H593 H 0.88123 0.99662 0.23112 0.0
H594 H 0.90634 0.99716 0.16647 0.0
H595 H 0.88724 0.98959 0.00198 0.0
H596 H 0.95336 0.98109 0.80606 0.0
H597 H 0.93049 0.97735 0.87408 0.0
C598 C 0.57367 0.86516 0.07216 0.0
C599 C 0.55983 0.85465 0.09229 0.0
C600 C 0.56919 0.88101 0.05122 0.0
C601 C 0.53164 0.89933 0.98113 0.0
H602 H 0.55851 0.94453 0.00434 0.0
C603 C 0.51079 0.9585 0.8702 0.0
C604 C 0.52481 0.96942 0.85298 0.0
C605 C 0.51468 0.94607 0.90542 0.0
C606 C 0.55099 0.93194 0.99684 0.0
H607 H 0.53059 0.85283 0.10823 0.0
H608 H 0.52273 0.88047 0.07107 0.0
H609 H 0.56619 0.92026 0.05671 0.0
H610 H 0.55388 0.97609 0.85974 0.0
H611 H 0.56092 0.95383 0.91949 0.0
H612 H 0.51706 0.91036 0.91973 0.0
C613 C 0.53704 0.87645 0.07173 0.0
C614 C 0.55533 0.9181 0.02717 0.0
C615 C 0.54155 0.86074 0.09339 0.0
C616 C 0.54278 0.96789 0.87253 0.0
C617 C 0.54677 0.95518 0.90708 0.0
C618 C 0.52751 0.91301 0.9503 0.0
C619 C 0.55076 0.88651 0.04927 0.0
C620 C 0.54568 0.90166 0.0196 0.0
C621 C 0.53279 0.94392 0.92353 0.0
C622 C 0.5371 0.92954 0.95763 0.0
H623 H 0.58787 0.86077 0.07094 0.0
H624 H 0.58003 0.88845 0.03397 0.0
H625 H 0.52422 0.88667 0.97366 0.0
H626 H 0.49674 0.95955 0.85642 0.0
H627 H 0.50342 0.93808 0.9182 0.0
C628 C 0.67753 0.51041 0.11611 0.0
C629 C 0.67368 0.50305 0.16341 0.0
C630 C 0.66354 0.51223 0.07904 0.0
C631 C 0.61341 0.51498 0.06086 0.0
H632 H 0.62315 0.49375 0.91625 0.0
C633 C 0.55535 0.50469 0.90254 0.0
C634 C 0.55978 0.50571 0.84897 0.0
C635 C 0.56921 0.50524 0.94127 0.0
C636 C 0.62022 0.50008 0.95607 0.0
H637 H 0.65201 0.49257 0.20997 0.0
H638 H 0.62744 0.49619 0.14571 0.0
H639 H 0.64722 0.49421 0.98343 0.0
H640 H 0.58226 0.50853 0.79429 0.0
H641 H 0.60634 0.51024 0.8618 0.0
H642 H 0.58658 0.52129 0.03364 0.0
C643 C 0.64133 0.5004 0.13718 0.0
C644 C 0.63406 0.50025 0.9947 0.0
C645 C 0.65538 0.49828 0.17386 0.0
C646 C 0.57839 0.50753 0.83514 0.0
C647 C 0.59224 0.5084 0.87399 0.0
C648 C 0.59964 0.5151 0.02202 0.0
C649 C 0.64533 0.50701 0.08882 0.0
C650 C 0.63078 0.50759 0.04758 0.0
C651 C 0.5879 0.50713 0.92768 0.0
C652 C 0.60277 0.50751 0.96903 0.0
H653 H 0.69153 0.51402 0.10666 0.0
H654 H 0.66701 0.51749 0.0423 0.0
H655 H 0.61053 0.52086 0.10123 0.0
H656 H 0.54116 0.50312 0.9145 0.0
H657 H 0.56522 0.50385 0.98175 0.0
C658 C 0.98747 0.6425 0.1886 0.0
C659 C 0.9697 0.6451 0.20999 0.0
C660 C 0.99181 0.62666 0.15597 0.0
C661 C 0.9686 0.59045 0.06716 0.0
H662 H 0.01793 0.57086 0.05362 0.0
C663 C 0.98733 0.53013 0.91089 0.0
C664 C 1.00324 0.53261 0.88089 0.0
C665 C 0.98323 0.54209 0.95624 0.0
C666 C 0.00409 0.57621 0.05691 0.0
H667 H 0.94295 0.63262 0.21718 0.0
H668 H 0.95064 0.60473 0.16148 0.0
H669 H 0.01093 0.59431 0.12638 0.0
H670 H 0.02752 0.5494 0.87573 0.0
H671 H 0.0204 0.57014 0.95475 0.0
H672 H 0.96184 0.5724 0.99744 0.0
C673 C 0.96109 0.61513 0.16854 0.0
C674 C 1.00007 0.58968 0.09855 0.0
C675 C 0.95671 0.63106 0.20079 0.0
C676 C 0.01511 0.54711 0.89777 0.0
C677 C 0.01112 0.55893 0.94334 0.0
C678 C 0.97259 0.57688 0.02585 0.0
C679 C 0.97852 0.61296 0.14426 0.0
C680 C 0.98236 0.59724 0.10366 0.0
C681 C 0.99508 0.55664 0.97289 0.0
C682 C 0.99046 0.56985 0.01966 0.0
H683 H 0.9977 0.65317 0.19429 0.0
H684 H 0.0053 0.62562 0.13761 0.0
H685 H 0.95489 0.59611 0.06908 0.0
H686 H 0.97791 0.51908 0.89902 0.0
H687 H 0.97082 0.53993 0.9784 0.0
C688 C 0.04789 0.20621 0.42213 0.0
C689 C 0.06515 0.20265 0.398 0.0
C690 C 0.03925 0.19343 0.44956 0.0
C691 C 0.03797 0.14461 0.45089 0.0
H692 H 0.00842 0.15591 0.578 0.0
C693 C 0.99095 0.09134 0.52602 0.0
C694 C 0.99244 0.08973 0.58052 0.0
C695 C 0.99831 0.10636 0.50563 0.0
C696 C 0.01666 0.15255 0.54256 0.0
H697 H 0.08744 0.18345 0.38694 0.0
H698 H 0.0724 0.16115 0.43528 0.0
H699 H 0.02608 0.17974 0.54295 0.0
H700 H 1.00156 0.10313 0.65697 0.0
H701 H 0.01462 0.1292 0.62134 0.0
H702 H 0.02889 0.11742 0.45087 0.0
C703 C 0.06539 0.17368 0.43195 0.0
C704 C 0.02668 0.1662 0.52235 0.0
C705 C 0.07403 0.18646 0.40447 0.0
C706 C 1.00043 0.10392 0.61465 0.0
C707 C 0.00777 0.11892 0.5943 0.0
C708 C 0.02795 0.131 0.471 0.0
C709 C 0.04768 0.17681 0.45344 0.0
C710 C 0.03749 0.16235 0.47636 0.0
C711 C 0.00726 0.12006 0.53937 0.0
C712 C 0.01718 0.13481 0.51703 0.0
H713 H 0.04056 0.21844 0.41724 0.0
H714 H 0.02555 0.19619 0.46527 0.0
H715 H 0.04592 0.14124 0.4149 0.0
H716 H 0.98493 0.0806 0.49873 0.0
H717 H 0.99743 0.10702 0.46321 0.0
C718 C 0.28936 0.96548 0.4977 0.0
C719 C 0.2953 0.9823 0.4848 0.0
C720 C 0.29915 0.95684 0.53471 0.0
C721 C 0.33717 0.9628 0.6345 0.0
H722 H 0.35342 0.91654 0.56533 0.0
C723 C 0.40542 0.9336 0.69365 0.0
C724 C 0.41723 0.93186 0.64919 0.0
C725 C 0.38631 0.93442 0.68692 0.0
C726 C 0.34878 0.92926 0.58582 0.0
H727 H 0.31502 0.00399 0.5036 0.0
H728 H 0.33216 0.98895 0.5678 0.0
H729 H 0.32621 0.93047 0.53218 0.0
H730 H 0.41784 0.92792 0.56268 0.0
H731 H 0.38486 0.92877 0.5513 0.0
H732 H 0.36068 0.96226 0.68525 0.0
C733 C 0.31996 0.98239 0.54968 0.0
C734 C 0.33312 0.93721 0.56709 0.0
C735 C 0.31029 0.99094 0.51246 0.0
C736 C 0.40935 0.92906 0.59803 0.0
C737 C 0.3903 0.92959 0.5914 0.0
C738 C 0.35281 0.95482 0.65334 0.0
C739 C 0.31491 0.96496 0.55975 0.0
C740 C 0.32778 0.95451 0.58936 0.0
C741 C 0.37865 0.93312 0.63564 0.0
C742 C 0.35934 0.93845 0.62719 0.0
H743 H 0.27787 0.95851 0.4768 0.0
H744 H 0.2949 0.94346 0.54192 0.0
H745 H 0.33319 0.97603 0.6529 0.0
H746 H 0.41094 0.9353 0.7337 0.0
H747 H 0.3776 0.93696 0.72173 0.0
C748 C 0.47052 0.32034 0.59036 0.0
C749 C 0.48195 0.30604 0.57034 0.0
C750 C 0.47806 0.33588 0.61847 0.0
C751 C 0.49714 0.36612 0.6895 0.0
H752 H 0.53797 0.38459 0.61296 0.0
C753 C 0.52533 0.43752 0.74803 0.0
C754 C 0.52667 0.44793 0.70556 0.0
C755 C 0.52331 0.41888 0.73836 0.0
C756 C 0.52664 0.37958 0.6349 0.0
H757 H 0.51004 0.29628 0.56694 0.0
H758 H 0.52322 0.32344 0.61647 0.0
H759 H 0.5271 0.35382 0.58799 0.0
H760 H 0.52815 0.4468 0.61969 0.0
H761 H 0.52459 0.41419 0.60273 0.0
H762 H 0.49611 0.39214 0.73473 0.0
C763 C 0.50845 0.32266 0.61004 0.0
C764 C 0.52054 0.3619 0.62105 0.0
C765 C 0.50088 0.30705 0.58222 0.0
C766 C 0.52715 0.43918 0.65326 0.0
C767 C 0.52516 0.42048 0.64358 0.0
C768 C 0.5033 0.38377 0.70353 0.0
C769 C 0.4972 0.33746 0.62682 0.0
C770 C 0.50543 0.35514 0.64732 0.0
C771 C 0.52267 0.41021 0.68601 0.0
C772 C 0.51782 0.39083 0.6755 0.0
H773 H 0.45587 0.31985 0.58198 0.0
H774 H 0.46903 0.34708 0.63062 0.0
H775 H 0.48555 0.36123 0.71064 0.0
H776 H 0.52527 0.4438 0.78887 0.0
H777 H 0.52177 0.4113 0.77189 0.0
C778 C 0.2203 0.5776 0.48931 0.0
C779 C 0.22558 0.58763 0.44849 0.0
C780 C 0.2067 0.58392 0.52556 0.0
C781 C 0.16626 0.61345 0.5309 0.0
H782 H 0.15965 0.59366 0.66403 0.0
C783 C 0.09643 0.58987 0.59445 0.0
C784 C 0.09244 0.58837 0.64796 0.0
C785 C 0.11342 0.59652 0.58002 0.0
C786 C 0.16128 0.59975 0.62769 0.0
H787 H 0.22192 0.6128 0.41606 0.0
H788 H 0.19853 0.62426 0.48072 0.0
H789 H 0.19005 0.59386 0.62443 0.0
H790 H 0.1027 0.59374 0.72878 0.0
H791 H 0.13243 0.6058 0.70369 0.0
H792 H 0.13755 0.61956 0.53451 0.0
C793 C 0.20446 0.61121 0.48377 0.0
C794 C 0.17874 0.59958 0.60441 0.0
C795 C 0.21791 0.60472 0.44686 0.0
C796 C 0.10549 0.59458 0.68714 0.0
C797 C 0.12252 0.60145 0.6727 0.0
C798 C 0.14891 0.61398 0.55476 0.0
C799 C 0.19816 0.60057 0.52235 0.0
C800 C 0.18121 0.60539 0.55407 0.0
C801 C 0.12689 0.60202 0.61875 0.0
C802 C 0.14595 0.6061 0.6017 0.0
H803 H 0.2258 0.56428 0.49114 0.0
H804 H 0.20209 0.5751 0.55375 0.0
H805 H 0.1675 0.61815 0.49232 0.0
H806 H 0.08683 0.58489 0.56317 0.0
H807 H 0.11631 0.5963 0.53801 0.0
C808 C 0.96223 0.7954 0.02482 0.0
C809 C 0.97255 0.78201 0.04524 0.0
C810 C 0.97084 0.80777 0.99577 0.0
C811 C 0.01523 0.82998 0.9919 0.0
H812 H 0.99409 0.85111 0.87357 0.0
C813 C 0.0474 0.89291 0.91721 0.0
C814 C 0.03489 0.90613 0.90558 0.0
C815 C 0.04113 0.8758 0.92565 0.0
C816 C 1.00012 0.84541 0.90683 0.0
H817 H 0.99976 0.77035 0.04851 0.0
H818 H 0.01477 0.7919 0.99748 0.0
H819 H 0.98034 0.82387 0.901 0.0
H820 H 0.00601 0.91151 0.89193 0.0
H821 H 0.99505 0.88209 0.90888 0.0
H822 H 0.03443 0.85188 0.99967 0.0
C823 C 1.00004 0.79289 0.00423 0.0
C824 C 0.99229 0.82977 0.92228 0.0
C825 C 0.99141 0.78045 0.03297 0.0
C826 C 0.01601 0.90178 0.90194 0.0
C827 C 0.00974 0.88477 0.91065 0.0
C828 C 0.02296 0.84568 0.97677 0.0
C829 C 0.98996 0.80702 0.98695 0.0
C830 C 0.99957 0.8221 0.96561 0.0
C831 C 0.0222 0.87157 0.92275 0.0
C832 C 0.01526 0.8538 0.93479 0.0
H833 H 0.94765 0.79681 0.03339 0.0
H834 H 0.96273 0.81857 0.98315 0.0
H835 H 0.02097 0.82453 0.02599 0.0
H836 H 0.06203 0.89584 0.92042 0.0
H837 H 0.05111 0.8659 0.9344 0.0
C838 C 0.71935 0.01294 0.00363 0.0
C839 C 0.73396 0.02281 0.02944 0.0
C840 C 0.70965 0.01968 0.96305 0.0
C841 C 0.69658 0.06309 0.92485 0.0
H842 H 0.66804 0.03177 0.82193 0.0
C843 C 0.62252 0.05736 0.8031 0.0
C844 C 0.61175 0.06524 0.84582 0.0
C845 C 0.64167 0.05655 0.8079 0.0
C846 C 0.6761 0.04098 0.8492 0.0
H847 H 0.7508 0.04686 0.03053 0.0
H848 H 0.7339 0.05865 0.95876 0.0
H849 H 0.69575 0.02054 0.85927 0.0
H850 H 0.61285 0.08016 0.92475 0.0
H851 H 0.64591 0.0779 0.93441 0.0
H852 H 0.67679 0.08347 0.91532 0.0
C853 C 0.72979 0.04579 0.97053 0.0
C854 C 0.69192 0.0344 0.87122 0.0
C855 C 0.73954 0.039 0.01134 0.0
C856 C 0.62069 0.07358 0.89163 0.0
C857 C 0.63978 0.07256 0.89672 0.0
C858 C 0.68091 0.06978 0.90216 0.0
C859 C 0.71438 0.03645 0.94707 0.0
C860 C 0.7016 0.04499 0.91192 0.0
C861 C 0.65045 0.06336 0.85578 0.0
C862 C 0.6698 0.05842 0.86677 0.0
H863 H 0.71496 0.00026 0.01618 0.0
H864 H 0.69773 0.01219 0.94657 0.0
H865 H 0.70377 0.0717 0.95581 0.0
H866 H 0.61614 0.05077 0.76714 0.0
H867 H 0.64947 0.04972 0.7751 0.0
C868 C 0.55528 0.68414 0.88798 0.0
C869 C 0.54373 0.69802 0.91023 0.0
C870 C 0.54794 0.66909 0.85709 0.0
C871 C 0.50495 0.64301 0.84245 0.0
H872 H 0.53377 0.61436 0.73519 0.0
C873 C 0.5005 0.56587 0.80751 0.0
C874 C 0.50625 0.55693 0.75854 0.0
C875 C 0.50064 0.58468 0.81603 0.0
C876 C 0.5252 0.62222 0.76413 0.0
H877 H 0.51557 0.70759 0.9147 0.0
H878 H 0.50273 0.68138 0.85947 0.0
H879 H 0.54275 0.6452 0.76356 0.0
H880 H 0.51487 0.56023 0.67845 0.0
H881 H 0.5141 0.59294 0.69207 0.0
H882 H 0.48734 0.62 0.84285 0.0
C883 C 0.51745 0.68201 0.86682 0.0
C884 C 0.53056 0.63991 0.781 0.0
C885 C 0.52482 0.69711 0.89792 0.0
C886 C 0.51062 0.56693 0.71686 0.0
C887 C 0.51032 0.58566 0.72487 0.0
C888 C 0.49942 0.62534 0.82506 0.0
C889 C 0.52886 0.66758 0.8474 0.0
C890 C 0.52096 0.65028 0.82189 0.0
C891 C 0.5062 0.59482 0.7753 0.0
C892 C 0.50988 0.61449 0.7871 0.0
H893 H 0.56994 0.68459 0.8963 0.0
H894 H 0.55716 0.6582 0.84335 0.0
H895 H 0.49723 0.65058 0.87415 0.0
H896 H 0.49717 0.55836 0.84023 0.0
H897 H 0.49753 0.59118 0.85556 0.0
C898 C 0.81219 0.39804 0.09606 0.0
C899 C 0.80056 0.41229 0.08718 0.0
C900 C 0.82622 0.39256 0.05998 0.0
C901 C 0.84652 0.40048 0.92855 0.0
H902 H 0.89262 0.39937 0.00567 0.0
C903 C 0.91449 0.42959 0.86101 0.0
C904 C 0.93119 0.42113 0.87065 0.0
C905 C 0.89779 0.42287 0.8778 0.0
C906 C 0.87989 0.39924 0.98321 0.0
H907 H 0.79365 0.43108 0.03166 0.0
H908 H 0.8181 0.42181 0.96951 0.0
H909 H 0.86372 0.39671 0.05217 0.0
H910 H 0.94325 0.39832 0.90281 0.0
H911 H 0.91404 0.38686 0.93334 0.0
H912 H 0.86292 0.40427 0.86037 0.0
C913 C 0.81633 0.41456 0.00362 0.0
C914 C 0.86325 0.39765 0.00986 0.0
C915 C 0.80225 0.41993 0.03944 0.0
C916 C 0.93069 0.40539 0.89575 0.0
C917 C 0.91397 0.39874 0.91292 0.0
C918 C 0.8632 0.40224 0.90199 0.0
C919 C 0.82899 0.40136 0.01459 0.0
C920 C 0.84634 0.39893 0.98337 0.0
C921 C 0.89739 0.4076 0.90492 0.0
C922 C 0.88001 0.40227 0.92958 0.0
H923 H 0.81102 0.39173 0.13219 0.0
H924 H 0.83548 0.38207 0.06903 0.0
H925 H 0.83376 0.40115 0.90667 0.0
H926 H 0.91434 0.44188 0.84251 0.0
H927 H 0.88527 0.43018 0.87187 0.0
C928 C 0.04478 0.18449 0.99658 0.0
C929 C 0.05946 0.19477 0.9799 0.0
C930 C 0.04148 0.16702 0.97203 0.0
C931 C 0.04782 0.13581 0.85174 0.0
H932 H 0.04587 0.0988 0.94632 0.0
C933 C 0.01952 0.06364 0.79197 0.0
C934 C 0.03038 0.04935 0.80532 0.0
C935 C 0.02422 0.08145 0.81007 0.0
C936 C 0.04649 0.10898 0.91945 0.0
H937 H 0.0817 0.19512 0.92301 0.0
H938 H 0.07551 0.16462 0.87877 0.0
H939 H 0.05104 0.13021 0.98305 0.0
H940 H 0.05471 0.04263 0.84834 0.0
H941 H 0.0626 0.07389 0.88159 0.0
H942 H 0.04273 0.11458 0.78827 0.0
C943 C 0.06673 0.1701 0.91128 0.0
C944 C 0.0493 0.12693 0.94045 0.0
C945 C 0.07027 0.1875 0.93653 0.0
C946 C 0.04608 0.05332 0.8373 0.0
C947 C 0.05057 0.07117 0.8564 0.0
C948 C 0.04463 0.11787 0.83081 0.0
C949 C 0.05259 0.15956 0.92973 0.0
C950 C 0.04992 0.14053 0.90685 0.0
C951 C 0.03968 0.0854 0.84289 0.0
C952 C 0.04392 0.10429 0.86451 0.0
H953 H 0.03639 0.18963 0.03037 0.0
H954 H 0.03041 0.15921 0.98673 0.0
H955 H 0.04822 0.14605 0.82505 0.0
H956 H 0.00732 0.0611 0.76746 0.0
H957 H 0.0155 0.09214 0.79947 0.0
C958 C 0.32857 0.0245 0.01825 0.0
C959 C 0.32282 0.00812 0.03495 0.0
C960 C 0.34419 0.02527 0.98586 0.0
C961 C 0.37691 0.99652 0.8989 0.0
H962 H 0.4106 0.03657 0.93441 0.0
C963 C 0.44476 0.00295 0.78178 0.0
C964 C 0.46053 0.00922 0.81098 0.0
C965 C 0.42731 0.00373 0.8056 0.0
C966 C 0.40143 0.02521 0.92412 0.0
H967 H 0.32845 0.97954 0.02787 0.0
H968 H 0.35567 0.98089 0.97267 0.0
H969 H 0.38126 0.03596 0.98078 0.0
H970 H 0.47013 0.02131 0.88843 0.0
H971 H 0.43986 0.0224 0.93011 0.0
H972 H 0.39737 0.98539 0.84385 0.0
C973 C 0.34816 0.99319 0.98417 0.0
C974 C 0.38442 0.02499 0.95025 0.0
C975 C 0.3326 0.99244 0.01643 0.0
C976 C 0.45833 0.01645 0.86453 0.0
C977 C 0.44088 0.01717 0.88842 0.0
C978 C 0.39394 0.9967 0.87292 0.0
C979 C 0.35442 0.00966 0.96917 0.0
C980 C 0.37197 0.01054 0.93846 0.0
C981 C 0.4251 0.01074 0.85941 0.0
C982 C 0.40656 0.01096 0.8855 0.0
H983 H 0.32145 0.03686 0.03193 0.0
H984 H 0.34838 0.03815 0.97447 0.0
H985 H 0.36764 0.98527 0.88812 0.0
H986 H 0.44585 0.99734 0.7404 0.0
H987 H 0.41552 0.99889 0.78161 0.0
C988 C 0.49215 0.29764 0.11107 0.0
C989 C 0.4754 0.29 0.12539 0.0
C990 C 0.49228 0.31243 0.08248 0.0
C991 C 0.46533 0.33967 0.99937 0.0
H992 H 0.49444 0.37914 0.07041 0.0
C993 C 0.46166 0.41189 0.93948 0.0
C994 C 0.47802 0.42218 0.94215 0.0
C995 C 0.46104 0.39526 0.95936 0.0
C996 C 0.48648 0.36823 0.04936 0.0
H997 H 0.44568 0.29109 0.11725 0.0
H998 H 0.44596 0.31676 0.06609 0.0
H999 H 0.4943 0.35027 0.10477 0.0
H1000 H 0.50651 0.42295 0.96874 0.0
H1001 H 0.50567 0.39379 1.00084 0.0
H1002 H 0.45774 0.35754 0.94331 0.0
C1003 C 0.45896 0.31133 0.0775 0.0
C1004 C 0.48637 0.35166 0.06924 0.0
C1005 C 0.45882 0.29657 0.10658 0.0
C1006 C 0.49372 0.41536 0.96521 0.0
C1007 C 0.49315 0.39868 0.98447 0.0
C1008 C 0.46562 0.35623 0.97894 0.0
C1009 C 0.47568 0.31981 0.06702 0.0
C1010 C 0.47584 0.33719 0.04446 0.0
C1011 C 0.47679 0.38841 0.98207 0.0
C1012 C 0.47624 0.37074 0.00366 0.0
H1013 H 0.50517 0.29268 0.12404 0.0
H1014 H 0.50538 0.31848 0.07399 0.0
H1015 H 0.45711 0.32871 0.97946 0.0
H1016 H 0.44935 0.41654 0.92136 0.0
H1017 H 0.44812 0.38788 0.95733 0.0
C1018 C 0.19617 0.49481 0.03679 0.0
C1019 C 0.20847 0.5088 0.02862 0.0
C1020 C 0.17996 0.49204 0.00663 0.0
C1021 C 0.15649 0.50272 0.88378 0.0
H1022 H 0.11194 0.49591 0.96347 0.0
C1023 C 0.08331 0.50866 0.79394 0.0
C1024 C 0.06927 0.49733 0.80933 0.0
C1025 C 0.10075 0.50908 0.81808 0.0
C1026 C 0.12423 0.49751 0.94024 0.0
H1027 H 0.21379 0.53021 0.98022 0.0
H1028 H 0.18555 0.52539 0.92771 0.0
H1029 H 0.1416 0.49769 0.00871 0.0
H1030 H 0.06287 0.47715 0.86125 0.0
H1031 H 0.09321 0.47759 0.90218 0.0
H1032 H 0.1391 0.50253 0.81524 0.0
C1033 C 0.18841 0.51656 0.95748 0.0
C1034 C 0.14129 0.49854 0.96633 0.0
C1035 C 0.20455 0.51941 0.98787 0.0
C1036 C 0.07325 0.48618 0.84864 0.0
C1037 C 0.09069 0.48652 0.87245 0.0
C1038 C 0.1394 0.50157 0.85755 0.0
C1039 C 0.1757 0.5031 0.96726 0.0
C1040 C 0.15765 0.50123 0.93855 0.0
C1041 C 0.10465 0.49811 0.85803 0.0
C1042 C 0.123 0.49902 0.88546 0.0
H1043 H 0.19865 0.48648 0.06809 0.0
H1044 H 0.17061 0.48138 0.01475 0.0
H1045 H 0.16883 0.50462 0.86103 0.0
H1046 H 0.08076 0.51748 0.76395 0.0
H1047 H 0.11103 0.51835 0.80625 0.0
C1048 C 0.9765 0.80731 0.51739 0.0
C1049 C 0.9588 0.80414 0.49514 0.0
C1050 C 0.9807 0.82366 0.54835 0.0
C1051 C 0.96966 0.87013 0.55247 0.0
H1052 H 0.99049 0.87815 0.69444 0.0
C1053 C 0.98305 0.94212 0.65363 0.0
C1054 C 0.99812 0.94527 0.68838 0.0
C1055 C 0.97769 0.92456 0.63436 0.0
C1056 C 0.98498 0.87619 0.6544 0.0
H1057 H 0.93121 0.81505 0.4926 0.0
H1058 H 0.9388 0.84374 0.54473 0.0
H1059 H 0.98252 0.84759 0.65526 0.0
H1060 H 0.01948 0.93249 0.73006 0.0
H1061 H 0.01084 0.90194 0.69434 0.0
H1062 H 0.97287 0.89828 0.54953 0.0
C1063 C 0.94939 0.83359 0.53787 0.0
C1064 C 0.98029 0.85866 0.63227 0.0
C1065 C 0.94511 0.81719 0.50782 0.0
C1066 C 0.00773 0.93048 0.70349 0.0
C1067 C 1.00264 0.91291 0.68325 0.0
C1068 C 0.9747 0.88753 0.57394 0.0
C1069 C 0.96734 0.83717 0.55707 0.0
C1070 C 0.97244 0.85554 0.5813 0.0
C1071 C 0.98755 0.90965 0.64824 0.0
C1072 C 0.98231 0.89091 0.62545 0.0
H1073 H 0.98744 0.79766 0.50824 0.0
H1074 H 0.99466 0.82616 0.56273 0.0
H1075 H 0.96388 0.86799 0.51269 0.0
H1076 H 0.97522 0.95325 0.64187 0.0
H1077 H 0.96569 0.92274 0.60879 0.0
C1078 C 0.69157 0.96681 0.45212 0.0
C1079 C 0.70484 0.98071 0.45635 0.0
C1080 C 0.67559 0.96829 0.48334 0.0
C1081 C 0.64553 0.00263 0.55604 0.0
H1082 H 0.6229 0.9616 0.61054 0.0
C1083 C 0.57881 0.00958 0.68245 0.0
C1084 C 0.56549 0.99578 0.67337 0.0
C1085 C 0.59637 0.00758 0.65953 0.0
C1086 C 0.62891 0.97317 0.59514 0.0
H1087 H 0.71189 0.00684 0.49832 0.0
H1088 H 0.68416 0.00931 0.55342 0.0
H1089 H 0.65271 0.95828 0.56606 0.0
H1090 H 0.56041 0.96896 0.63298 0.0
H1091 H 0.59085 0.96559 0.59238 0.0
H1092 H 0.62166 0.01747 0.58431 0.0
C1093 C 0.68601 0.99733 0.52535 0.0
C1094 C 0.64606 0.97127 0.56968 0.0
C1095 C 0.70205 0.99582 0.49423 0.0
C1096 C 0.57028 0.97986 0.64103 0.0
C1097 C 0.58784 0.97788 0.61796 0.0
C1098 C 0.62837 0.00452 0.58138 0.0
C1099 C 0.67239 0.98373 0.51965 0.0
C1100 C 0.65458 0.98594 0.54944 0.0
C1101 C 0.60113 0.99174 0.6267 0.0
C1102 C 0.61973 0.9898 0.60102 0.0
H1103 H 0.69333 0.95491 0.42373 0.0
H1104 H 0.66542 0.95758 0.4775 0.0
H1105 H 0.65147 0.01416 0.54022 0.0
H1106 H 0.57574 0.02199 0.70745 0.0
H1107 H 0.60627 0.01844 0.668 0.0
C1108 C 0.59648 0.70407 0.35842 0.0
C1109 C 0.58076 0.71409 0.34873 0.0
C1110 C 0.59515 0.68937 0.38724 0.0
C1111 C 0.5668 0.66651 0.47922 0.0
H1112 H 0.58665 0.62302 0.40175 0.0
C1113 C 0.55167 0.59591 0.54149 0.0
C1114 C 0.56549 0.58275 0.53346 0.0
C1115 C 0.55377 0.61252 0.52211 0.0
C1116 C 0.58131 0.63503 0.42462 0.0
H1117 H 0.55154 0.71719 0.3653 0.0
H1118 H 0.54937 0.69175 0.41696 0.0
H1119 H 0.59051 0.65155 0.36652 0.0
H1120 H 0.5924 0.57697 0.4983 0.0
H1121 H 0.59646 0.60606 0.46714 0.0
H1122 H 0.55787 0.65008 0.5379 0.0
C1123 C 0.56268 0.69526 0.40168 0.0
C1124 C 0.58349 0.6514 0.40421 0.0
C1125 C 0.56396 0.70989 0.3723 0.0
C1126 C 0.58153 0.58677 0.50596 0.0
C1127 C 0.58374 0.60344 0.48722 0.0
C1128 C 0.56485 0.65012 0.50016 0.0
C1129 C 0.57812 0.68446 0.40773 0.0
C1130 C 0.57623 0.66731 0.43117 0.0
C1131 C 0.56984 0.61653 0.49464 0.0
C1132 C 0.57204 0.63412 0.47304 0.0
H1133 H 0.60972 0.70715 0.34187 0.0
H1134 H 0.60736 0.68148 0.39218 0.0
H1135 H 0.56112 0.67858 0.50091 0.0
H1136 H 0.53924 0.59349 0.56323 0.0
H1137 H 0.54265 0.6221 0.52813 0.0
C1138 C 0.82519 0.4915 0.50727 0.0
C1139 C 0.8231 0.50378 0.46992 0.0
C1140 C 0.84109 0.49182 0.5389 0.0
C1141 C 0.88127 0.51985 0.58856 0.0
H1142 H 0.90535 0.47406 0.59358 0.0
C1143 C 0.95666 0.51543 0.66008 0.0
C1144 C 0.96182 0.50096 0.68732 0.0
C1145 C 0.93906 0.51608 0.6377 0.0
C1146 C 0.89872 0.48695 0.59353 0.0
H1147 H 0.83567 0.52656 0.43842 0.0
H1148 H 0.86331 0.52722 0.49389 0.0
H1149 H 0.87563 0.47501 0.54923 0.0
H1150 H 0.95219 0.476 0.71327 0.0
H1151 H 0.92139 0.47733 0.67547 0.0
H1152 H 0.90425 0.53183 0.633 0.0
C1153 C 0.8527 0.51731 0.49865 0.0
C1154 C 0.88164 0.48749 0.56793 0.0
C1155 C 0.8369 0.51687 0.46664 0.0
C1156 C 0.94878 0.48728 0.69225 0.0
C1157 C 0.9311 0.48801 0.67024 0.0
C1158 C 0.89828 0.51931 0.61459 0.0
C1159 C 0.85518 0.50454 0.53436 0.0
C1160 C 0.87279 0.50395 0.56461 0.0
C1161 C 0.92601 0.50236 0.64228 0.0
C1162 C 0.90738 0.50287 0.61695 0.0
H1163 H 0.81492 0.48114 0.51044 0.0
H1164 H 0.84248 0.48192 0.5664 0.0
H1165 H 0.87472 0.53274 0.58731 0.0
H1166 H 0.96635 0.52616 0.65511 0.0
H1167 H 0.93587 0.52719 0.61575 0.0
loop_
_geom_bond_atom_site_label_1
_geom_bond_atom_site_label_2
_geom_bond_distance
_geom_bond_site_symmetry_2
_ccdc_geom_bond_type
C0 C1 1.384 . S
C0 H13 0.947 . S
C0 C35 1.382 . S
C1 C0 1.384 . S
C1 C2 1.378 . S
C2 C1 1.378 . S
C2 C3 1.378 . S
C2 H14 0.952 . S
C3 C2 1.378 . S
C3 H15 0.950 . S
C3 C34 1.383 . S
H4 C23 0.947 . S
H5 C24 0.946 . S
H6 C26 0.953 . S
H7 C27 0.945 . S
H8 C29 0.952 . S
H9 C30 0.949 . S
H10 C32 0.950 . S
H11 C33 0.948 . S
H12 C35 0.951 . S
H13 C0 0.947 . S
H14 C2 0.952 . S
H15 C3 0.950 . S
N16 C19 1.382 . S
N16 C21 1.363 . S
N17 C19 1.371 . S
N17 C20 1.372 . S
N18 C20 1.361 . S
N18 C21 1.377 . S
C19 N16 1.382 . S
C19 N17 1.371 . S
C19 C22 1.480 . S
C20 N17 1.372 . S
C20 N18 1.361 . S
C20 C28 1.457 . S
C21 N16 1.363 . S
C21 N18 1.377 . S
C21 C34 1.479 . S
C22 C19 1.480 . S
C22 C23 1.383 . S
C22 C27 1.385 . S
C23 H4 0.947 . S
C23 C22 1.383 . S
C23 C24 1.388 . S
C24 H5 0.946 . S
C24 C23 1.388 . S
C24 C25 1.384 . S
C25 C24 1.384 . S
C25 C26 1.377 . S
C26 H6 0.953 . S
C26 C25 1.377 . S
C26 C27 1.369 . S
C27 H7 0.945 . S
C27 C22 1.385 . S
C27 C26 1.369 . S
C28 C20 1.457 . S
C28 C29 1.372 . S
C28 C33 1.364 . S
C29 H8 0.952 . S
C29 C28 1.372 . S
C29 C30 1.389 . S
C30 H9 0.949 . S
C30 C29 1.389 . S
C30 C31 1.387 . S
C31 C30 1.387 . S
C31 C32 1.372 . S
C32 H10 0.950 . S
C32 C31 1.372 . S
C32 C33 1.379 . S
C33 H11 0.948 . S
C33 C28 1.364 . S
C33 C32 1.379 . S
C34 C3 1.383 . S
C34 C21 1.479 . S
C34 C35 1.398 . S
C35 C0 1.382 . S
C35 H12 0.951 . S
C35 C34 1.398 . S
C36 C37 1.384 . S
C36 H49 0.947 . S
C36 C71 1.382 . S
C37 C36 1.384 . S
C37 C38 1.378 . S
C38 C37 1.378 . S
C38 C39 1.378 . S
C38 H50 0.952 . S
C39 C38 1.378 . S
C39 H51 0.950 . S
C39 C70 1.383 . S
H40 C59 0.947 . S
H41 C60 0.946 . S
H42 C62 0.953 . S
H43 C63 0.945 . S
H44 C65 0.952 . S
H45 C66 0.949 . S
H46 C68 0.950 . S
H47 C69 0.948 . S
H48 C71 0.951 . S
H49 C36 0.947 . S
H50 C38 0.952 . S
H51 C39 0.950 . S
N52 C55 1.382 . S
N52 C57 1.363 . S
N53 C55 1.371 . S
N53 C56 1.372 . S
N54 C56 1.361 . S
N54 C57 1.377 . S
C55 N52 1.382 . S
C55 N53 1.371 . S
C55 C58 1.480 . S
C56 N53 1.372 . S
C56 N54 1.361 . S
C56 C64 1.457 . S
C57 N52 1.363 . S
C57 N54 1.377 . S
C57 C70 1.479 . S
C58 C55 1.480 . S
C58 C59 1.383 . S
C58 C63 1.385 . S
C59 H40 0.947 . S
C59 C58 1.383 . S
C59 C60 1.388 . S
C60 H41 0.946 . S
C60 C59 1.388 . S
C60 C61 1.384 . S
C61 C60 1.384 . S
C61 C62 1.377 . S
C62 H42 0.953 . S
C62 C61 1.377 . S
C62 C63 1.369 . S
C63 H43 0.945 . S
C63 C58 1.385 . S
C63 C62 1.369 . S
C64 C56 1.457 . S
C64 C65 1.372 . S
C64 C69 1.364 . S
C65 H44 0.952 . S
C65 C64 1.372 . S
C65 C66 1.389 . S
C66 H45 0.949 . S
C66 C65 1.389 . S
C66 C67 1.387 . S
C67 C66 1.387 . S
C67 C68 1.372 . S
C68 H46 0.950 . S
C68 C67 1.372 . S
C68 C69 1.379 . S
C69 H47 0.948 . S
C69 C64 1.364 . S
C69 C68 1.379 . S
C70 C39 1.383 . S
C70 C57 1.479 . S
C70 C71 1.398 . S
C71 C36 1.382 . S
C71 H48 0.951 . S
C71 C70 1.398 . S
C72 C73 1.388 1_565 S
C72 H85 0.948 . S
C72 C107 1.382 1_565 S
C73 C72 1.388 1_545 S
C73 C74 1.389 . S
C74 C73 1.389 . S
C74 C75 1.378 . S
C74 H86 0.952 . S
C75 C74 1.378 . S
C75 H87 0.950 . S
C75 C106 1.383 . S
H76 C95 0.947 . S
H77 C96 0.954 . S
H78 C98 0.953 . S
H79 C99 0.945 . S
H80 C101 0.950 1_565 S
H81 C102 0.951 . S
H82 C104 0.950 . S
H83 C105 0.948 . S
H84 C107 0.951 1_565 S
H85 C72 0.948 . S
H86 C74 0.952 . S
H87 C75 0.950 . S
N88 C91 1.382 . S
N88 C93 1.363 . S
N89 C91 1.371 . S
N89 C92 1.372 . S
N90 C92 1.361 . S
N90 C93 1.377 . S
C91 N88 1.382 . S
C91 N89 1.371 . S
C91 C94 1.480 . S
C92 N89 1.372 . S
C92 N90 1.361 . S
C92 C100 1.457 . S
C93 N88 1.363 . S
C93 N90 1.377 . S
C93 C106 1.479 . S
C94 C91 1.480 . S
C94 C95 1.383 . S
C94 C99 1.385 . S
C95 H76 0.947 . S
C95 C94 1.383 . S
C95 C96 1.386 1_545 S
C96 H77 0.954 . S
C96 C95 1.386 1_565 S
C96 C97 1.378 1_565 S
C97 C96 1.378 1_545 S
C97 C98 1.377 . S
C98 H78 0.953 . S
C98 C97 1.377 . S
C98 C99 1.369 . S
C99 H79 0.945 . S
C99 C94 1.385 . S
C99 C98 1.369 . S
C100 C92 1.457 . S
C100 C101 1.374 . S
C100 C105 1.364 . S
C101 H80 0.950 1_545 S
C101 C100 1.374 . S
C101 C102 1.392 1_545 S
C102 H81 0.951 . S
C102 C101 1.392 1_565 S
C102 C103 1.384 1_565 S
C103 C102 1.384 1_545 S
C103 C104 1.372 . S
C104 H82 0.950 . S
C104 C103 1.372 . S
C104 C105 1.379 . S
C105 H83 0.948 . S
C105 C100 1.364 . S
C105 C104 1.379 . S
C106 C75 1.383 . S
C106 C93 1.479 . S
C106 C107 1.397 . S
C107 C72 1.382 1_545 S
C107 H84 0.951 1_545 S
C107 C106 1.397 . S
C108 C109 1.384 . S
C108 H121 0.947 . S
C108 C143 1.382 . S
C109 C108 1.384 . S
C109 C110 1.378 . S
C110 C109 1.378 . S
C110 C111 1.378 . S
C110 H122 0.952 . S
C111 C110 1.378 . S
C111 H123 0.950 . S
C111 C142 1.383 . S
H112 C131 0.947 . S
H113 C132 0.946 . S
H114 C134 0.953 . S
H115 C135 0.945 . S
H116 C137 0.952 . S
H117 C138 0.949 . S
H118 C140 0.950 . S
H119 C141 0.948 . S
H120 C143 0.951 . S
H121 C108 0.947 . S
H122 C110 0.952 . S
H123 C111 0.950 . S
N124 C127 1.382 . S
N124 C129 1.363 . S
N125 C127 1.371 1_554 S
N125 C128 1.372 . S
N126 C128 1.361 . S
N126 C129 1.377 1_554 S
C127 N124 1.382 . S
C127 N125 1.371 1_556 S
C127 C130 1.480 . S
C128 N125 1.372 . S
C128 N126 1.361 . S
C128 C136 1.457 . S
C129 N124 1.363 . S
C129 N126 1.377 1_556 S
C129 C142 1.479 . S
C130 C127 1.480 . S
C130 C131 1.383 . S
C130 C135 1.385 1_556 S
C131 H112 0.947 . S
C131 C130 1.383 . S
C131 C132 1.388 . S
C132 H113 0.946 . S
C132 C131 1.388 . S
C132 C133 1.384 . S
C133 C132 1.384 . S
C133 C134 1.377 1_556 S
C134 H114 0.953 . S
C134 C133 1.377 1_554 S
C134 C135 1.369 . S
C135 H115 0.945 . S
C135 C130 1.385 1_554 S
C135 C134 1.369 . S
C136 C128 1.457 . S
C136 C137 1.372 . S
C136 C141 1.364 . S
C137 H116 0.952 . S
C137 C136 1.372 . S
C137 C138 1.389 . S
C138 H117 0.949 . S
C138 C137 1.389 . S
C138 C139 1.387 . S
C139 C138 1.387 . S
C139 C140 1.372 . S
C140 H118 0.950 . S
C140 C139 1.372 . S
C140 C141 1.379 . S
C141 H119 0.948 . S
C141 C136 1.364 . S
C141 C140 1.379 . S
C142 C111 1.383 . S
C142 C129 1.479 . S
C142 C143 1.398 . S
C143 C108 1.382 . S
C143 H120 0.951 . S
C143 C142 1.398 . S
C144 C145 1.384 1_554 S
C144 H157 0.947 1_554 S
C144 C179 1.382 . S
C145 C144 1.384 1_556 S
C145 C146 1.378 . S
C146 C145 1.378 . S
C146 C147 1.378 1_556 S
C146 H158 0.952 . S
C147 C146 1.378 1_554 S
C147 H159 0.950 . S
C147 C178 1.383 . S
H148 C167 0.947 . S
H149 C168 0.946 . S
H150 C170 0.953 . S
H151 C171 0.945 . S
H152 C173 0.952 . S
H153 C174 0.949 . S
H154 C176 0.950 . S
H155 C177 0.948 . S
H156 C179 0.951 . S
H157 C144 0.947 1_556 S
H158 C146 0.952 . S
H159 C147 0.950 . S
N160 C163 1.382 . S
N160 C165 1.363 . S
N161 C163 1.371 . S
N161 C164 1.372 . S
N162 C164 1.361 . S
N162 C165 1.377 . S
C163 N160 1.382 . S
C163 N161 1.371 . S
C163 C166 1.480 . S
C164 N161 1.372 . S
C164 N162 1.361 . S
C164 C172 1.457 . S
C165 N160 1.363 . S
C165 N162 1.377 . S
C165 C178 1.479 . S
C166 C163 1.480 . S
C166 C167 1.383 . S
C166 C171 1.385 . S
C167 H148 0.947 . S
C167 C166 1.383 . S
C167 C168 1.388 . S
C168 H149 0.946 . S
C168 C167 1.388 . S
C168 C169 1.384 . S
C169 C168 1.384 . S
C169 C170 1.377 . S
C170 H150 0.953 . S
C170 C169 1.377 . S
C170 C171 1.369 . S
C171 H151 0.945 . S
C171 C166 1.385 . S
C171 C170 1.369 . S
C172 C164 1.457 . S
C172 C173 1.372 . S
C172 C177 1.364 . S
C173 H152 0.952 . S
C173 C172 1.372 . S
C173 C174 1.389 . S
C174 H153 0.949 . S
C174 C173 1.389 . S
C174 C175 1.387 . S
C175 C174 1.387 . S
C175 C176 1.372 . S
C176 H154 0.950 . S
C176 C175 1.372 . S
C176 C177 1.379 . S
C177 H155 0.948 . S
C177 C172 1.364 . S
C177 C176 1.379 . S
C178 C147 1.383 . S
C178 C165 1.479 . S
C178 C179 1.398 . S
C179 C144 1.382 . S
C179 H156 0.951 . S
C179 C178 1.398 . S
C180 C181 1.384 . S
C180 H193 0.947 . S
C180 C215 1.382 . S
C181 C180 1.384 . S
C181 C182 1.378 . S
C182 C181 1.378 . S
C182 C183 1.378 . S
C182 H194 0.952 1_554 S
C183 C182 1.378 . S
C183 H195 0.950 . S
C183 C214 1.383 . S
H184 C203 0.947 . S
H185 C204 0.946 . S
H186 C206 0.953 . S
H187 C207 0.945 . S
H188 C209 0.952 . S
H189 C210 0.949 . S
H190 C212 0.950 . S
H191 C213 0.948 . S
H192 C215 0.951 . S
H193 C180 0.947 . S
H194 C182 0.952 1_556 S
H195 C183 0.950 . S
N196 C199 1.382 . S
N196 C201 1.363 . S
N197 C199 1.371 . S
N197 C200 1.372 . S
N198 C200 1.361 . S
N198 C201 1.377 . S
C199 N196 1.382 . S
C199 N197 1.371 . S
C199 C202 1.480 . S
C200 N197 1.372 . S
C200 N198 1.361 . S
C200 C208 1.457 . S
C201 N196 1.363 . S
C201 N198 1.377 . S
C201 C214 1.479 . S
C202 C199 1.480 . S
C202 C203 1.383 . S
C202 C207 1.385 . S
C203 H184 0.947 . S
C203 C202 1.383 . S
C203 C204 1.388 . S
C204 H185 0.946 . S
C204 C203 1.388 . S
C204 C205 1.384 . S
C205 C204 1.384 . S
C205 C206 1.377 . S
C206 H186 0.953 . S
C206 C205 1.377 . S
C206 C207 1.369 . S
C207 H187 0.945 . S
C207 C202 1.385 . S
C207 C206 1.369 . S
C208 C200 1.457 . S
C208 C209 1.372 . S
C208 C213 1.364 . S
C209 H188 0.952 . S
C209 C208 1.372 . S
C209 C210 1.389 . S
C210 H189 0.949 . S
C210 C209 1.389 . S
C210 C211 1.387 . S
C211 C210 1.387 . S
C211 C212 1.372 . S
C212 H190 0.950 . S
C212 C211 1.372 . S
C212 C213 1.379 . S
C213 H191 0.948 . S
C213 C208 1.364 . S
C213 C212 1.379 . S
C214 C183 1.383 . S
C214 C201 1.479 . S
C214 C215 1.398 . S
C215 C180 1.382 . S
C215 H192 0.951 . S
C215 C214 1.398 . S
C216 C217 1.383 1_554 S
C216 H229 0.948 1_544 S
C216 C251 1.383 . S
C217 C216 1.383 1_556 S
C217 C218 1.378 . S
C218 C217 1.378 . S
C218 C219 1.378 1_556 S
C218 H230 0.952 . S
C219 C218 1.378 1_554 S
C219 H231 0.950 . S
C219 C250 1.383 . S
H220 C239 0.947 . S
H221 C240 0.947 . S
H222 C242 0.953 . S
H223 C243 0.945 . S
H224 C245 0.947 1_565 S
H225 C246 0.957 . S
H226 C248 0.950 . S
H227 C249 0.948 . S
H228 C251 0.949 1_565 S
H229 C216 0.948 1_566 S
H230 C218 0.952 . S
H231 C219 0.950 . S
N232 C235 1.382 . S
N232 C237 1.363 . S
N233 C235 1.371 . S
N233 C236 1.372 . S
N234 C236 1.361 . S
N234 C237 1.377 . S
C235 N232 1.382 . S
C235 N233 1.371 . S
C235 C238 1.480 . S
C236 N233 1.372 . S
C236 N234 1.361 . S
C236 C244 1.457 . S
C237 N232 1.363 . S
C237 N234 1.377 . S
C237 C250 1.479 . S
C238 C235 1.480 . S
C238 C239 1.383 . S
C238 C243 1.385 . S
C239 H220 0.947 . S
C239 C238 1.383 . S
C239 C240 1.387 1_545 S
C240 H221 0.947 . S
C240 C239 1.387 1_565 S
C240 C241 1.384 1_565 S
C241 C240 1.384 1_545 S
C241 C242 1.377 . S
C242 H222 0.953 . S
C242 C241 1.377 . S
C242 C243 1.369 . S
C243 H223 0.945 . S
C243 C238 1.385 . S
C243 C242 1.369 . S
C244 C236 1.457 . S
C244 C245 1.382 . S
C244 C249 1.364 . S
C245 H224 0.947 1_545 S
C245 C244 1.382 . S
C245 C246 1.381 1_545 S
C246 H225 0.957 . S
C246 C245 1.381 1_565 S
C246 C247 1.383 1_565 S
C247 C246 1.383 1_545 S
C247 C248 1.372 . S
C248 H226 0.950 . S
C248 C247 1.372 . S
C248 C249 1.379 . S
C249 H227 0.948 . S
C249 C244 1.364 . S
C249 C248 1.379 . S
C250 C219 1.383 . S
C250 C237 1.479 . S
C250 C251 1.399 . S
C251 C216 1.383 . S
C251 H228 0.949 1_545 S
C251 C250 1.399 . S
C252 C253 1.384 . S
C252 H265 0.947 . S
C252 C287 1.382 . S
C253 C252 1.384 . S
C253 C254 1.378 . S
C254 C253 1.378 . S
C254 C255 1.378 . S
C254 H266 0.952 . S
C255 C254 1.378 . S
C255 H267 0.950 . S
C255 C286 1.383 . S
H256 C275 0.947 . S
H257 C276 0.946 . S
H258 C278 0.953 . S
H259 C279 0.945 . S
H260 C281 0.952 . S
H261 C282 0.949 . S
H262 C284 0.950 . S
H263 C285 0.948 . S
H264 C287 0.951 . S
H265 C252 0.947 . S
H266 C254 0.952 . S
H267 C255 0.950 . S
N268 C271 1.382 . S
N268 C273 1.363 . S
N269 C271 1.371 . S
N269 C272 1.372 . S
N270 C272 1.361 . S
N270 C273 1.377 . S
C271 N268 1.382 . S
C271 N269 1.371 . S
C271 C274 1.480 . S
C272 N269 1.372 . S
C272 N270 1.361 . S
C272 C280 1.457 . S
C273 N268 1.363 . S
C273 N270 1.377 . S
C273 C286 1.479 . S
C274 C271 1.480 . S
C274 C275 1.383 . S
C274 C279 1.385 . S
C275 H256 0.947 . S
C275 C274 1.383 . S
C275 C276 1.388 . S
C276 H257 0.946 . S
C276 C275 1.388 . S
C276 C277 1.384 . S
C277 C276 1.384 . S
C277 C278 1.377 . S
C278 H258 0.953 . S
C278 C277 1.377 . S
C278 C279 1.369 . S
C279 H259 0.945 . S
C279 C274 1.385 . S
C279 C278 1.369 . S
C280 C272 1.457 . S
C280 C281 1.372 . S
C280 C285 1.364 . S
C281 H260 0.952 . S
C281 C280 1.372 . S
C281 C282 1.389 . S
C282 H261 0.949 . S
C282 C281 1.389 . S
C282 C283 1.387 . S
C283 C282 1.387 . S
C283 C284 1.372 . S
C284 H262 0.950 . S
C284 C283 1.372 . S
C284 C285 1.379 . S
C285 H263 0.948 . S
C285 C280 1.364 . S
C285 C284 1.379 . S
C286 C255 1.383 . S
C286 C273 1.479 . S
C286 C287 1.398 . S
C287 C252 1.382 . S
C287 H264 0.951 . S
C287 C286 1.398 . S
Tb288 C297 2.764 1_655 S
Tb288 O298 2.323 1_655 S
Tb288 O301 2.298 1_655 S
Tb288 O305 2.323 1_545 S
Tb288 O306 2.354 . S
Tb288 O309 2.413 1_655 S
Tb288 O310 2.401 . S
Tb289 O299 2.322 1_565 S
Tb289 O300 2.349 . S
Tb289 O302 2.415 . S
Tb289 O303 2.399 . S
Tb289 O304 2.325 . S
Tb289 O307 2.303 1_455 S
Tb289 C318 2.764 . S
C290 O306 1.261 . S
C290 O307 1.257 1_545 S
C291 C294 1.358 1_455 S
C291 C295 1.332 . S
C291 C297 1.504 . S
C292 C293 1.373 1_455 S
C292 C296 1.308 . S
C293 C292 1.373 1_655 S
C293 C294 1.429 . S
C293 H320 0.932 . S
C294 C291 1.358 1_655 S
C294 C293 1.429 . S
C294 H321 0.930 . S
C295 C291 1.332 . S
C295 C296 1.394 . S
C295 H322 0.932 . S
C296 C292 1.308 . S
C296 C295 1.394 . S
C296 H323 0.929 . S
C297 Tb288 2.764 1_455 S
C297 C291 1.504 . S
C297 O309 1.239 . S
C297 O310 1.263 1_455 S
O298 Tb288 2.323 1_455 S
O298 C308 1.236 . S
O299 Tb289 2.322 1_545 S
O299 C308 1.257 . S
O300 Tb289 2.349 . S
O300 C311 1.261 . S
O301 Tb288 2.298 1_455 S
O301 C311 1.257 1_545 S
O302 Tb289 2.415 . S
O302 C318 1.239 . S
O303 Tb289 2.399 . S
O303 C318 1.263 . S
O304 Tb289 2.325 . S
O304 C319 1.236 1_455 S
O305 Tb288 2.323 1_565 S
O305 C319 1.257 . S
O306 Tb288 2.354 . S
O306 C290 1.261 . S
O307 Tb289 2.303 1_655 S
O307 C290 1.257 1_565 S
C308 O298 1.236 . S
C308 O299 1.257 . S
O309 Tb288 2.413 1_455 S
O309 C297 1.239 . S
O310 Tb288 2.401 . S
O310 C297 1.263 1_655 S
C311 O300 1.261 . S
C311 O301 1.257 1_565 S
C312 C315 1.358 . S
C312 C316 1.332 . S
C312 C318 1.504 . S
C313 C314 1.373 . S
C313 C317 1.308 . S
C314 C313 1.373 . S
C314 C315 1.429 . S
C314 H324 0.932 . S
C315 C312 1.358 . S
C315 C314 1.429 . S
C315 H325 0.930 . S
C316 C312 1.332 . S
C316 C317 1.394 . S
C316 H326 0.932 1_455 S
C317 C313 1.308 . S
C317 C316 1.394 . S
C317 H327 0.929 1_455 S
C318 Tb289 2.764 . S
C318 O302 1.239 . S
C318 O303 1.263 . S
C318 C312 1.504 . S
C319 O304 1.236 1_655 S
C319 O305 1.257 . S
H320 C293 0.932 . S
H321 C294 0.930 . S
H322 C295 0.932 . S
H323 C296 0.929 . S
H324 C314 0.932 . S
H325 C315 0.930 . S
H326 C316 0.932 1_655 S
H327 C317 0.929 1_655 S
Tb328 C337 2.764 . S
Tb328 O338 2.325 . S
Tb328 O341 2.303 1_565 S
Tb328 O345 2.322 . S
Tb328 O346 2.349 . S
Tb328 O349 2.415 1_565 S
Tb328 O350 2.399 . S
Tb329 O339 2.322 . S
Tb329 O340 2.349 . S
Tb329 O342 2.415 1_545 S
Tb329 O343 2.399 . S
Tb329 O344 2.325 . S
Tb329 O347 2.303 1_545 S
Tb329 C358 2.764 . S
C330 O346 1.261 . S
C330 O347 1.257 . S
C331 C334 1.358 . S
C331 C335 1.332 . S
C331 C337 1.504 . S
C332 C333 1.373 . S
C332 C336 1.308 . S
C333 C332 1.373 . S
C333 C334 1.429 . S
C333 H360 0.932 . S
C334 C331 1.358 . S
C334 C333 1.429 . S
C334 H361 0.930 . S
C335 C331 1.332 . S
C335 C336 1.394 . S
C335 H362 0.932 1_565 S
C336 C332 1.308 . S
C336 C335 1.394 . S
C336 H363 0.929 1_565 S
C337 Tb328 2.764 . S
C337 C331 1.504 . S
C337 O349 1.239 1_565 S
C337 O350 1.263 . S
O338 Tb328 2.325 . S
O338 C348 1.236 1_565 S
O339 Tb329 2.322 . S
O339 C348 1.257 . S
O340 Tb329 2.349 . S
O340 C351 1.261 . S
O341 Tb328 2.303 1_545 S
O341 C351 1.257 . S
O342 Tb329 2.415 1_565 S
O342 C358 1.239 1_565 S
O343 Tb329 2.399 . S
O343 C358 1.263 . S
O344 Tb329 2.325 . S
O344 C359 1.236 1_545 S
O345 Tb328 2.322 . S
O345 C359 1.257 . S
O346 Tb328 2.349 . S
O346 C330 1.261 . S
O347 Tb329 2.303 1_565 S
O347 C330 1.257 . S
C348 O338 1.236 1_545 S
C348 O339 1.257 . S
O349 Tb328 2.415 1_545 S
O349 C337 1.239 1_545 S
O350 Tb328 2.399 . S
O350 C337 1.263 . S
C351 O340 1.261 . S
C351 O341 1.257 . S
C352 C355 1.358 . S
C352 C356 1.332 . S
C352 C358 1.504 . S
C353 C354 1.373 . S
C353 C357 1.308 . S
C354 C353 1.373 . S
C354 C355 1.429 . S
C354 H364 0.932 . S
C355 C352 1.358 . S
C355 C354 1.429 . S
C355 H365 0.930 . S
C356 C352 1.332 . S
C356 C357 1.394 . S
C356 H366 0.932 1_545 S
C357 C353 1.308 . S
C357 C356 1.394 . S
C357 H367 0.929 1_545 S
C358 Tb329 2.764 . S
C358 O342 1.239 1_545 S
C358 O343 1.263 . S
C358 C352 1.504 . S
C359 O344 1.236 1_565 S
C359 O345 1.257 . S
H360 C333 0.932 . S
H361 C334 0.930 . S
H362 C335 0.932 1_545 S
H363 C336 0.929 1_545 S
H364 C354 0.932 . S
H365 C355 0.930 . S
H366 C356 0.932 1_565 S
H367 C357 0.929 1_565 S
Tb368 C377 2.764 . S
Tb368 O378 2.325 . S
Tb368 O381 2.303 . S
Tb368 O385 2.322 . S
Tb368 O386 2.349 . S
Tb368 O389 2.415 . S
Tb368 O390 2.399 . S
Tb369 O379 2.322 . S
Tb369 O380 2.349 . S
Tb369 O382 2.415 . S
Tb369 O383 2.399 . S
Tb369 O384 2.325 . S
Tb369 O387 2.303 . S
Tb369 C398 2.764 . S
C370 O386 1.261 . S
C370 O387 1.257 . S
C371 C374 1.358 . S
C371 C375 1.332 . S
C371 C377 1.504 . S
C372 C373 1.373 . S
C372 C376 1.308 . S
C373 C372 1.373 . S
C373 C374 1.429 . S
C373 H400 0.932 . S
C374 C371 1.358 . S
C374 C373 1.429 . S
C374 H401 0.930 . S
C375 C371 1.332 . S
C375 C376 1.394 . S
C375 H402 0.932 . S
C376 C372 1.308 . S
C376 C375 1.394 . S
C376 H403 0.929 . S
C377 Tb368 2.764 . S
C377 C371 1.504 . S
C377 O389 1.239 . S
C377 O390 1.263 . S
O378 Tb368 2.325 . S
O378 C388 1.236 . S
O379 Tb369 2.322 . S
O379 C388 1.257 . S
O380 Tb369 2.349 . S
O380 C391 1.261 . S
O381 Tb368 2.303 . S
O381 C391 1.257 . S
O382 Tb369 2.415 . S
O382 C398 1.239 . S
O383 Tb369 2.399 . S
O383 C398 1.263 . S
O384 Tb369 2.325 . S
O384 C399 1.236 . S
O385 Tb368 2.322 . S
O385 C399 1.257 . S
O386 Tb368 2.349 . S
O386 C370 1.261 . S
O387 Tb369 2.303 . S
O387 C370 1.257 . S
C388 O378 1.236 . S
C388 O379 1.257 . S
O389 Tb368 2.415 . S
O389 C377 1.239 . S
O390 Tb368 2.399 . S
O390 C377 1.263 . S
C391 O380 1.261 . S
C391 O381 1.257 . S
C392 C395 1.358 . S
C392 C396 1.332 . S
C392 C398 1.504 . S
C393 C394 1.373 . S
C393 C397 1.308 . S
C394 C393 1.373 . S
C394 C395 1.429 . S
C394 H404 0.932 . S
C395 C392 1.358 . S
C395 C394 1.429 . S
C395 H405 0.930 . S
C396 C392 1.332 . S
C396 C397 1.394 . S
C396 H406 0.932 . S
C397 C393 1.308 . S
C397 C396 1.394 . S
C397 H407 0.929 . S
C398 Tb369 2.764 . S
C398 O382 1.239 . S
C398 O383 1.263 . S
C398 C392 1.504 . S
C399 O384 1.236 . S
C399 O385 1.257 . S
H400 C373 0.932 . S
H401 C374 0.930 . S
H402 C375 0.932 . S
H403 C376 0.929 . S
H404 C394 0.932 . S
H405 C395 0.930 . S
H406 C396 0.932 . S
H407 C397 0.929 . S
Tb408 C417 2.764 . S
Tb408 O418 2.325 . S
Tb408 O421 2.303 . S
Tb408 O425 2.322 1_455 S
Tb408 O426 2.349 . S
Tb408 O429 2.415 . S
Tb408 O430 2.399 . S
Tb409 O419 2.379 . S
Tb409 O420 2.365 . S
Tb409 O422 2.367 1_455 S
Tb409 O423 2.357 1_455 S
Tb409 O424 2.289 1_455 S
Tb409 O427 2.311 . S
Tb409 C438 2.714 1_455 S
C410 O426 1.261 . S
C410 O427 1.257 . S
C411 C414 1.358 . S
C411 C415 1.332 . S
C411 C417 1.504 . S
C412 C413 1.373 . S
C412 C416 1.308 . S
C413 C412 1.373 . S
C413 C414 1.429 . S
C413 H440 0.932 . S
C414 C411 1.358 . S
C414 C413 1.429 . S
C414 H441 0.930 . S
C415 C411 1.332 . S
C415 C416 1.394 . S
C415 H442 0.932 . S
C416 C412 1.308 . S
C416 C415 1.394 . S
C416 H443 0.929 . S
C417 Tb408 2.764 . S
C417 C411 1.504 . S
C417 O429 1.239 . S
C417 O430 1.263 . S
O418 Tb408 2.325 . S
O418 C428 1.236 . S
O419 Tb409 2.379 . S
O419 C428 1.257 . S
O420 Tb409 2.365 . S
O420 C431 1.261 . S
O421 Tb408 2.303 . S
O421 C431 1.257 . S
O422 Tb409 2.367 1_655 S
O422 C438 1.239 . S
O423 Tb409 2.357 1_655 S
O423 C438 1.263 . S
O424 Tb409 2.289 1_655 S
O424 C439 1.236 . S
O425 Tb408 2.322 1_655 S
O425 C439 1.257 . S
O426 Tb408 2.349 . S
O426 C410 1.261 . S
O427 Tb409 2.311 . S
O427 C410 1.257 . S
C428 O418 1.236 . S
C428 O419 1.257 . S
O429 Tb408 2.415 . S
O429 C417 1.239 . S
O430 Tb408 2.399 . S
O430 C417 1.263 . S
C431 O420 1.261 . S
C431 O421 1.257 . S
C432 C435 1.358 . S
C432 C436 1.332 . S
C432 C438 1.504 . S
C433 C434 1.373 . S
C433 C437 1.308 . S
C434 C433 1.373 . S
C434 C435 1.429 . S
C434 H444 0.932 . S
C435 C432 1.358 . S
C435 C434 1.429 . S
C435 H445 0.930 . S
C436 C432 1.332 . S
C436 C437 1.394 . S
C436 H446 0.932 . S
C437 C433 1.308 . S
C437 C436 1.394 . S
C437 H447 0.929 . S
C438 Tb409 2.714 1_655 S
C438 O422 1.239 . S
C438 O423 1.263 . S
C438 C432 1.504 . S
C439 O424 1.236 . S
C439 O425 1.257 . S
H440 C413 0.932 . S
H441 C414 0.930 . S
H442 C415 0.932 . S
H443 C416 0.929 . S
H444 C434 0.932 . S
H445 C435 0.930 . S
H446 C436 0.932 . S
H447 C437 0.929 . S
C448 C449 1.347 . S
C448 C450 1.327 . S
C448 H473 0.950 . S
C449 C448 1.347 . S
C449 C465 1.350 1_565 S
C450 C448 1.327 . S
C450 C469 1.447 . S
C450 H474 0.950 . S
C451 C468 1.574 . S
C451 C470 1.336 1_545 S
C451 H475 0.949 . S
H452 C456 0.949 . S
C453 C454 1.349 1_545 S
C453 C455 1.327 . S
C453 H476 0.950 . S
C454 C453 1.349 1_565 S
C454 C466 1.349 . S
C455 C453 1.327 . S
C455 C471 1.429 1_545 S
C455 H477 0.950 . S
C456 H452 0.949 . S
C456 C464 1.574 . S
C456 C472 1.368 . S
H457 C465 0.950 . S
H458 C463 0.950 . S
H459 C464 0.949 . S
H460 C466 0.950 . S
H461 C467 0.950 . S
H462 C468 0.949 . S
C463 H458 0.950 . S
C463 C465 1.327 . S
C463 C469 1.407 1_545 S
C464 C456 1.574 . S
C464 H459 0.949 . S
C464 C470 1.405 . S
C465 C449 1.350 1_545 S
C465 H457 0.950 . S
C465 C463 1.327 . S
C466 C454 1.349 . S
C466 H460 0.950 . S
C466 C467 1.327 . S
C467 H461 0.950 . S
C467 C466 1.327 . S
C467 C471 1.429 . S
C468 C451 1.574 . S
C468 H462 0.949 . S
C468 C472 1.368 1_545 S
C469 C450 1.447 . S
C469 C463 1.407 1_565 S
C469 C470 1.521 . S
C470 C451 1.336 1_565 S
C470 C464 1.405 . S
C470 C469 1.521 . S
C471 C455 1.429 1_565 S
C471 C467 1.429 . S
C471 C472 1.523 . S
C472 C456 1.368 . S
C472 C468 1.368 1_565 S
C472 C471 1.523 . S
H473 C448 0.950 . S
H474 C450 0.950 . S
H475 C451 0.949 . S
H476 C453 0.950 . S
H477 C455 0.950 . S
C478 C479 1.349 . S
C478 C480 1.327 . S
C478 H503 0.950 . S
C479 C478 1.349 . S
C479 C495 1.349 . S
C480 C478 1.327 . S
C480 C499 1.429 . S
C480 H504 0.950 . S
C481 C498 1.574 . S
C481 C500 1.368 . S
C481 H505 0.949 . S
H482 C486 0.949 . S
C483 C484 1.349 . S
C483 C485 1.327 . S
C483 H506 0.950 . S
C484 C483 1.349 . S
C484 C496 1.349 . S
C485 C483 1.327 . S
C485 C501 1.429 . S
C485 H507 0.950 . S
C486 H482 0.949 . S
C486 C494 1.574 . S
C486 C502 1.368 . S
H487 C495 0.950 . S
H488 C493 0.950 . S
H489 C494 0.949 . S
H490 C496 0.950 . S
H491 C497 0.950 . S
H492 C498 0.949 . S
C493 H488 0.950 . S
C493 C495 1.327 . S
C493 C499 1.429 . S
C494 C486 1.574 . S
C494 H489 0.949 . S
C494 C500 1.368 . S
C495 C479 1.349 . S
C495 H487 0.950 . S
C495 C493 1.327 . S
C496 C484 1.349 . S
C496 H490 0.950 . S
C496 C497 1.327 . S
C497 H491 0.950 . S
C497 C496 1.327 . S
C497 C501 1.429 . S
C498 C481 1.574 . S
C498 H492 0.949 . S
C498 C502 1.368 . S
C499 C480 1.429 . S
C499 C493 1.429 . S
C499 C500 1.523 . S
C500 C481 1.368 . S
C500 C494 1.368 . S
C500 C499 1.523 . S
C501 C485 1.429 . S
C501 C497 1.429 . S
C501 C502 1.523 . S
C502 C486 1.368 . S
C502 C498 1.368 . S
C502 C501 1.523 . S
H503 C478 0.950 . S
H504 C480 0.950 . S
H505 C481 0.949 . S
H506 C483 0.950 . S
H507 C485 0.950 . S
C508 C509 1.349 . S
C508 C510 1.327 . S
C508 H533 0.950 . S
C509 C508 1.349 . S
C509 C525 1.349 . S
C510 C508 1.327 . S
C510 C529 1.429 . S
C510 H534 0.950 . S
C511 C528 1.574 . S
C511 C530 1.368 . S
C511 H535 0.949 . S
H512 C516 0.949 . S
C513 C514 1.349 . S
C513 C515 1.327 . S
C513 H536 0.950 . S
C514 C513 1.349 . S
C514 C526 1.349 . S
C515 C513 1.327 . S
C515 C531 1.429 . S
C515 H537 0.950 . S
C516 H512 0.949 . S
C516 C524 1.574 . S
C516 C532 1.368 . S
H517 C525 0.950 . S
H518 C523 0.950 . S
H519 C524 0.949 . S
H520 C526 0.950 . S
H521 C527 0.950 . S
H522 C528 0.949 . S
C523 H518 0.950 . S
C523 C525 1.327 . S
C523 C529 1.429 . S
C524 C516 1.574 . S
C524 H519 0.949 . S
C524 C530 1.368 . S
C525 C509 1.349 . S
C525 H517 0.950 . S
C525 C523 1.327 . S
C526 C514 1.349 . S
C526 H520 0.950 . S
C526 C527 1.327 . S
C527 H521 0.950 . S
C527 C526 1.327 . S
C527 C531 1.429 . S
C528 C511 1.574 . S
C528 H522 0.949 . S
C528 C532 1.368 . S
C529 C510 1.429 . S
C529 C523 1.429 . S
C529 C530 1.523 . S
C530 C511 1.368 . S
C530 C524 1.368 . S
C530 C529 1.523 . S
C531 C515 1.429 . S
C531 C527 1.429 . S
C531 C532 1.523 . S
C532 C516 1.368 . S
C532 C528 1.368 . S
C532 C531 1.523 . S
H533 C508 0.950 . S
H534 C510 0.950 . S
H535 C511 0.949 . S
H536 C513 0.950 . S
H537 C515 0.950 . S
C538 C539 1.349 . S
C538 C540 1.327 . S
C538 H563 0.950 . S
C539 C538 1.349 . S
C539 C555 1.349 . S
C540 C538 1.327 . S
C540 C559 1.429 . S
C540 H564 0.950 . S
C541 C558 1.574 . S
C541 C560 1.368 . S
C541 H565 0.949 . S
H542 C546 0.949 . S
C543 C544 1.349 . S
C543 C545 1.327 . S
C543 H566 0.950 . S
C544 C543 1.349 . S
C544 C556 1.349 . S
C545 C543 1.327 . S
C545 C561 1.429 . S
C545 H567 0.950 . S
C546 H542 0.949 . S
C546 C554 1.574 . S
C546 C562 1.368 . S
H547 C555 0.950 . S
H548 C553 0.950 . S
H549 C554 0.949 . S
H550 C556 0.950 . S
H551 C557 0.950 . S
H552 C558 0.949 . S
C553 H548 0.950 . S
C553 C555 1.327 . S
C553 C559 1.429 . S
C554 C546 1.574 . S
C554 H549 0.949 . S
C554 C560 1.368 . S
C555 C539 1.349 . S
C555 H547 0.950 . S
C555 C553 1.327 . S
C556 C544 1.349 . S
C556 H550 0.950 . S
C556 C557 1.327 . S
C557 H551 0.950 . S
C557 C556 1.327 . S
C557 C561 1.429 . S
C558 C541 1.574 . S
C558 H552 0.949 . S
C558 C562 1.368 . S
C559 C540 1.429 . S
C559 C553 1.429 . S
C559 C560 1.523 . S
C560 C541 1.368 . S
C560 C554 1.368 . S
C560 C559 1.523 . S
C561 C545 1.429 . S
C561 C557 1.429 . S
C561 C562 1.523 . S
C562 C546 1.368 . S
C562 C558 1.368 . S
C562 C561 1.523 . S
H563 C538 0.950 . S
H564 C540 0.950 . S
H565 C541 0.949 . S
H566 C543 0.950 . S
H567 C545 0.950 . S
C568 C569 1.359 . S
C568 C570 1.327 . S
C568 H593 0.950 . S
C569 C568 1.359 . S
C569 C585 1.340 1_545 S
C570 C568 1.327 . S
C570 C589 1.455 . S
C570 H594 0.950 . S
C571 C588 1.574 1_554 S
C571 C590 1.328 1_565 S
C571 H595 0.949 . S
H572 C576 0.949 . S
C573 C574 1.349 1_565 S
C573 C575 1.327 . S
C573 H596 0.950 . S
C574 C573 1.349 1_545 S
C574 C586 1.349 . S
C575 C573 1.327 . S
C575 C591 1.429 1_565 S
C575 H597 0.950 . S
C576 H572 0.949 . S
C576 C584 1.574 . S
C576 C592 1.368 1_554 S
H577 C585 0.950 . S
H578 C583 0.950 . S
H579 C584 0.949 . S
H580 C586 0.950 . S
H581 C587 0.950 . S
H582 C588 0.949 . S
C583 H578 0.950 . S
C583 C585 1.327 . S
C583 C589 1.398 1_565 S
C584 C576 1.574 . S
C584 H579 0.949 . S
C584 C590 1.414 . S
C585 C569 1.340 1_565 S
C585 H577 0.950 . S
C585 C583 1.327 . S
C586 C574 1.349 . S
C586 H580 0.950 . S
C586 C587 1.327 . S
C587 H581 0.950 . S
C587 C586 1.327 . S
C587 C591 1.429 . S
C588 C571 1.574 1_556 S
C588 H582 0.949 . S
C588 C592 1.368 1_565 S
C589 C570 1.455 . S
C589 C583 1.398 1_545 S
C589 C590 1.521 . S
C590 C571 1.328 1_545 S
C590 C584 1.414 . S
C590 C589 1.521 . S
C591 C575 1.429 1_545 S
C591 C587 1.429 . S
C591 C592 1.523 . S
C592 C576 1.368 1_556 S
C592 C588 1.368 1_545 S
C592 C591 1.523 . S
H593 C568 0.950 . S
H594 C570 0.950 . S
H595 C571 0.949 . S
H596 C573 0.950 . S
H597 C575 0.950 . S
C598 C599 1.349 . S
C598 C600 1.327 . S
C598 H623 0.950 . S
C599 C598 1.349 . S
C599 C615 1.349 . S
C600 C598 1.327 . S
C600 C619 1.429 . S
C600 H624 0.950 . S
C601 C618 1.574 . S
C601 C620 1.368 . S
C601 H625 0.949 . S
H602 C606 0.949 . S
C603 C604 1.349 . S
C603 C605 1.327 . S
C603 H626 0.950 . S
C604 C603 1.349 . S
C604 C616 1.349 . S
C605 C603 1.327 . S
C605 C621 1.429 . S
C605 H627 0.950 . S
C606 H602 0.949 . S
C606 C614 1.574 . S
C606 C622 1.368 . S
H607 C615 0.950 . S
H608 C613 0.950 . S
H609 C614 0.949 . S
H610 C616 0.950 . S
H611 C617 0.950 . S
H612 C618 0.949 . S
C613 H608 0.950 . S
C613 C615 1.327 . S
C613 C619 1.429 . S
C614 C606 1.574 . S
C614 H609 0.949 . S
C614 C620 1.368 . S
C615 C599 1.349 . S
C615 H607 0.950 . S
C615 C613 1.327 . S
C616 C604 1.349 . S
C616 H610 0.950 . S
C616 C617 1.327 . S
C617 H611 0.950 . S
C617 C616 1.327 . S
C617 C621 1.429 . S
C618 C601 1.574 . S
C618 H612 0.949 . S
C618 C622 1.368 . S
C619 C600 1.429 . S
C619 C613 1.429 . S
C619 C620 1.523 . S
C620 C601 1.368 . S
C620 C614 1.368 . S
C620 C619 1.523 . S
C621 C605 1.429 . S
C621 C617 1.429 . S
C621 C622 1.523 . S
C622 C606 1.368 . S
C622 C618 1.368 . S
C622 C621 1.523 . S
H623 C598 0.950 . S
H624 C600 0.950 . S
H625 C601 0.949 . S
H626 C603 0.950 . S
H627 C605 0.950 . S
C628 C629 1.349 . S
C628 C630 1.327 . S
C628 H653 0.950 . S
C629 C628 1.349 . S
C629 C645 1.349 . S
C630 C628 1.327 . S
C630 C649 1.429 . S
C630 H654 0.950 . S
C631 C648 1.574 . S
C631 C650 1.368 . S
C631 H655 0.949 . S
H632 C636 0.949 . S
C633 C634 1.349 . S
C633 C635 1.327 . S
C633 H656 0.950 . S
C634 C633 1.349 . S
C634 C646 1.349 . S
C635 C633 1.327 . S
C635 C651 1.429 . S
C635 H657 0.950 . S
C636 H632 0.949 . S
C636 C644 1.574 1_556 S
C636 C652 1.368 . S
H637 C645 0.950 . S
H638 C643 0.950 . S
H639 C644 0.949 . S
H640 C646 0.950 . S
H641 C647 0.950 . S
H642 C648 0.949 1_556 S
C643 H638 0.950 . S
C643 C645 1.327 . S
C643 C649 1.429 . S
C644 C636 1.574 1_554 S
C644 H639 0.949 . S
C644 C650 1.368 . S
C645 C629 1.349 . S
C645 H637 0.950 . S
C645 C643 1.327 . S
C646 C634 1.349 . S
C646 H640 0.950 . S
C646 C647 1.327 . S
C647 H641 0.950 . S
C647 C646 1.327 . S
C647 C651 1.429 . S
C648 C631 1.574 . S
C648 H642 0.949 1_554 S
C648 C652 1.368 1_554 S
C649 C630 1.429 . S
C649 C643 1.429 . S
C649 C650 1.523 . S
C650 C631 1.368 . S
C650 C644 1.368 . S
C650 C649 1.523 . S
C651 C635 1.429 . S
C651 C647 1.429 . S
C651 C652 1.523 . S
C652 C636 1.368 . S
C652 C648 1.368 1_556 S
C652 C651 1.523 . S
H653 C628 0.950 . S
H654 C630 0.950 . S
H655 C631 0.949 . S
H656 C633 0.950 . S
H657 C635 0.950 . S
C658 C659 1.349 . S
C658 C660 1.327 . S
C658 H683 0.950 . S
C659 C658 1.349 . S
C659 C675 1.349 . S
C660 C658 1.327 . S
C660 C679 1.429 . S
C660 H684 0.950 . S
C661 C678 1.574 . S
C661 C680 1.368 . S
C661 H685 0.949 . S
H662 C666 0.949 . S
C663 C664 1.349 . S
C663 C665 1.327 . S
C663 H686 0.952 . S
C664 C663 1.349 . S
C664 C676 1.349 . S
C665 C663 1.327 . S
C665 C681 1.429 . S
C665 H687 0.950 . S
C666 H662 0.949 . S
C666 C674 1.574 . S
C666 C682 1.368 . S
H667 C675 0.950 . S
H668 C673 0.950 . S
H669 C674 0.949 . S
H670 C676 0.950 . S
H671 C677 0.950 . S
H672 C678 0.949 . S
C673 H668 0.950 . S
C673 C675 1.327 . S
C673 C679 1.429 . S
C674 C666 1.574 . S
C674 H669 0.949 . S
C674 C680 1.368 1_556 S
C675 C659 1.349 . S
C675 H667 0.950 . S
C675 C673 1.327 . S
C676 C664 1.349 . S
C676 H670 0.950 . S
C676 C677 1.327 . S
C677 H671 0.950 . S
C677 C676 1.327 . S
C677 C681 1.429 . S
C678 C661 1.574 . S
C678 H672 0.949 . S
C678 C682 1.368 1_554 S
C679 C660 1.429 . S
C679 C673 1.429 . S
C679 C680 1.523 . S
C680 C661 1.368 . S
C680 C674 1.368 1_554 S
C680 C679 1.523 . S
C681 C665 1.429 . S
C681 C677 1.429 . S
C681 C682 1.523 . S
C682 C666 1.368 . S
C682 C678 1.368 1_556 S
C682 C681 1.523 . S
H683 C658 0.950 . S
H684 C660 0.950 . S
H685 C661 0.949 . S
H686 C663 0.952 . S
H687 C665 0.950 . S
C688 C689 1.349 . S
C688 C690 1.327 . S
C688 H713 0.950 . S
C689 C688 1.349 . S
C689 C705 1.349 . S
C690 C688 1.327 . S
C690 C709 1.429 . S
C690 H714 0.950 . S
C691 C708 1.574 . S
C691 C710 1.368 . S
C691 H715 0.949 . S
H692 C696 0.949 . S
C693 C694 1.349 . S
C693 C695 1.327 . S
C693 H716 0.950 . S
C694 C693 1.349 . S
C694 C706 1.349 1_455 S
C695 C693 1.327 . S
C695 C711 1.429 . S
C695 H717 0.950 . S
C696 H692 0.949 . S
C696 C704 1.574 . S
C696 C712 1.368 . S
H697 C705 0.950 . S
H698 C703 0.950 . S
H699 C704 0.949 . S
H700 C706 0.950 . S
H701 C707 0.950 . S
H702 C708 0.949 . S
C703 H698 0.950 . S
C703 C705 1.327 . S
C703 C709 1.429 . S
C704 C696 1.574 . S
C704 H699 0.949 . S
C704 C710 1.368 . S
C705 C689 1.349 . S
C705 H697 0.950 . S
C705 C703 1.327 . S
C706 C694 1.349 1_655 S
C706 H700 0.950 . S
C706 C707 1.327 1_655 S
C707 H701 0.950 . S
C707 C706 1.327 1_455 S
C707 C711 1.429 . S
C708 C691 1.574 . S
C708 H702 0.949 . S
C708 C712 1.368 . S
C709 C690 1.429 . S
C709 C703 1.429 . S
C709 C710 1.523 . S
C710 C691 1.368 . S
C710 C704 1.368 . S
C710 C709 1.523 . S
C711 C695 1.429 . S
C711 C707 1.429 . S
C711 C712 1.523 . S
C712 C696 1.368 . S
C712 C708 1.368 . S
C712 C711 1.523 . S
H713 C688 0.950 . S
H714 C690 0.950 . S
H715 C691 0.949 . S
H716 C693 0.950 . S
H717 C695 0.950 . S
C718 C719 1.349 1_565 S
C718 C720 1.327 . S
C718 H743 0.950 . S
C719 C718 1.349 1_545 S
C719 C735 1.349 . S
C720 C718 1.327 . S
C720 C739 1.429 . S
C720 H744 0.950 . S
C721 C738 1.574 . S
C721 C740 1.368 1_545 S
C721 H745 0.949 . S
H722 C726 0.949 . S
C723 C724 1.349 . S
C723 C725 1.327 . S
C723 H746 0.938 1_565 S
C724 C723 1.349 . S
C724 C736 1.349 . S
C725 C723 1.327 . S
C725 C741 1.429 . S
C725 H747 0.950 1_565 S
C726 H722 0.949 . S
C726 C734 1.574 . S
C726 C742 1.368 . S
H727 C735 0.950 . S
H728 C733 0.950 . S
H729 C734 0.949 . S
H730 C736 0.950 . S
H731 C737 0.950 . S
H732 C738 0.949 . S
C733 H728 0.950 . S
C733 C735 1.327 . S
C733 C739 1.429 1_545 S
C734 C726 1.574 . S
C734 H729 0.949 . S
C734 C740 1.368 . S
C735 C719 1.349 . S
C735 H727 0.950 . S
C735 C733 1.327 . S
C736 C724 1.349 . S
C736 H730 0.950 . S
C736 C737 1.327 . S
C737 H731 0.950 . S
C737 C736 1.327 . S
C737 C741 1.429 . S
C738 C721 1.574 . S
C738 H732 0.949 . S
C738 C742 1.368 1_545 S
C739 C720 1.429 . S
C739 C733 1.429 1_565 S
C739 C740 1.523 . S
C740 C721 1.368 1_565 S
C740 C734 1.368 . S
C740 C739 1.523 . S
C741 C725 1.429 . S
C741 C737 1.429 . S
C741 C742 1.523 . S
C742 C726 1.368 . S
C742 C738 1.368 1_565 S
C742 C741 1.523 . S
H743 C718 0.950 . S
H744 C720 0.950 . S
H745 C721 0.949 . S
H746 C723 0.938 1_545 S
H747 C725 0.950 1_545 S
C748 C749 1.349 . S
C748 C750 1.327 . S
C748 H773 0.950 . S
C749 C748 1.349 . S
C749 C765 1.349 . S
C750 C748 1.327 . S
C750 C769 1.429 . S
C750 H774 0.950 . S
C751 C768 1.574 . S
C751 C770 1.368 . S
C751 H775 0.949 . S
H752 C756 0.949 . S
C753 C754 1.349 . S
C753 C755 1.327 . S
C753 H776 0.950 . S
C754 C753 1.349 . S
C754 C766 1.349 . S
C755 C753 1.327 . S
C755 C771 1.429 . S
C755 H777 0.950 . S
C756 H752 0.949 . S
C756 C764 1.574 . S
C756 C772 1.368 . S
H757 C765 0.950 . S
H758 C763 0.950 . S
H759 C764 0.949 . S
H760 C766 0.950 . S
H761 C767 0.950 . S
H762 C768 0.949 . S
C763 H758 0.950 . S
C763 C765 1.327 . S
C763 C769 1.429 . S
C764 C756 1.574 . S
C764 H759 0.949 . S
C764 C770 1.368 . S
C765 C749 1.349 . S
C765 H757 0.950 . S
C765 C763 1.327 . S
C766 C754 1.349 . S
C766 H760 0.950 . S
C766 C767 1.327 . S
C767 H761 0.950 . S
C767 C766 1.327 . S
C767 C771 1.429 . S
C768 C751 1.574 . S
C768 H762 0.949 . S
C768 C772 1.368 . S
C769 C750 1.429 . S
C769 C763 1.429 . S
C769 C770 1.523 . S
C770 C751 1.368 . S
C770 C764 1.368 . S
C770 C769 1.523 . S
C771 C755 1.429 . S
C771 C767 1.429 . S
C771 C772 1.523 . S
C772 C756 1.368 . S
C772 C768 1.368 . S
C772 C771 1.523 . S
H773 C748 0.950 . S
H774 C750 0.950 . S
H775 C751 0.949 . S
H776 C753 0.950 . S
H777 C755 0.950 . S
C778 C779 1.349 . S
C778 C780 1.327 . S
C778 H803 0.950 . S
C779 C778 1.349 . S
C779 C795 1.349 . S
C780 C778 1.327 . S
C780 C799 1.429 . S
C780 H804 0.950 . S
C781 C798 1.574 . S
C781 C800 1.368 . S
C781 H805 0.949 . S
H782 C786 0.949 . S
C783 C784 1.349 . S
C783 C785 1.327 . S
C783 H806 0.950 . S
C784 C783 1.349 . S
C784 C796 1.349 . S
C785 C783 1.327 . S
C785 C801 1.429 . S
C785 H807 0.950 . S
C786 H782 0.949 . S
C786 C794 1.574 . S
C786 C802 1.368 . S
H787 C795 0.950 . S
H788 C793 0.950 . S
H789 C794 0.949 . S
H790 C796 0.950 . S
H791 C797 0.950 . S
H792 C798 0.949 . S
C793 H788 0.950 . S
C793 C795 1.327 . S
C793 C799 1.429 . S
C794 C786 1.574 . S
C794 H789 0.949 . S
C794 C800 1.368 . S
C795 C779 1.349 . S
C795 H787 0.950 . S
C795 C793 1.327 . S
C796 C784 1.349 . S
C796 H790 0.950 . S
C796 C797 1.327 . S
C797 H791 0.950 . S
C797 C796 1.327 . S
C797 C801 1.429 . S
C798 C781 1.574 . S
C798 H792 0.949 . S
C798 C802 1.368 . S
C799 C780 1.429 . S
C799 C793 1.429 . S
C799 C800 1.523 . S
C800 C781 1.368 . S
C800 C794 1.368 . S
C800 C799 1.523 . S
C801 C785 1.429 . S
C801 C797 1.429 . S
C801 C802 1.523 . S
C802 C786 1.368 . S
C802 C798 1.368 . S
C802 C801 1.523 . S
H803 C778 0.950 . S
H804 C780 0.950 . S
H805 C781 0.949 . S
H806 C783 0.950 . S
H807 C785 0.950 . S
C808 C809 1.349 . S
C808 C810 1.327 . S
C808 H833 0.950 . S
C809 C808 1.349 . S
C809 C825 1.349 . S
C810 C808 1.327 . S
C810 C829 1.429 . S
C810 H834 0.950 1_554 S
C811 C828 1.574 . S
C811 C830 1.368 . S
C811 H835 0.949 . S
H812 C816 0.949 . S
C813 C814 1.349 . S
C813 C815 1.327 . S
C813 H836 0.950 . S
C814 C813 1.349 . S
C814 C826 1.349 . S
C815 C813 1.327 . S
C815 C831 1.429 . S
C815 H837 0.950 1_556 S
C816 H812 0.949 . S
C816 C824 1.574 . S
C816 C832 1.368 . S
H817 C825 0.950 . S
H818 C823 0.950 . S
H819 C824 0.949 . S
H820 C826 0.950 . S
H821 C827 0.950 1_655 S
H822 C828 0.949 1_455 S
C823 H818 0.950 . S
C823 C825 1.327 . S
C823 C829 1.429 . S
C824 C816 1.574 . S
C824 H819 0.949 . S
C824 C830 1.368 1_556 S
C825 C809 1.349 . S
C825 H817 0.950 . S
C825 C823 1.327 . S
C826 C814 1.349 . S
C826 H820 0.950 . S
C826 C827 1.327 . S
C827 H821 0.950 1_455 S
C827 C826 1.327 . S
C827 C831 1.429 . S
C828 C811 1.574 . S
C828 H822 0.949 1_655 S
C828 C832 1.368 1_554 S
C829 C810 1.429 . S
C829 C823 1.429 . S
C829 C830 1.523 . S
C830 C811 1.368 . S
C830 C824 1.368 1_554 S
C830 C829 1.523 . S
C831 C815 1.429 . S
C831 C827 1.429 . S
C831 C832 1.523 1_455 S
C832 C816 1.368 . S
C832 C828 1.368 1_556 S
C832 C831 1.523 1_655 S
H833 C808 0.950 . S
H834 C810 0.950 1_556 S
H835 C811 0.949 . S
H836 C813 0.950 . S
H837 C815 0.950 1_554 S
C838 C839 1.349 . S
C838 C840 1.327 . S
C838 H863 0.950 . S
C839 C838 1.349 . S
C839 C855 1.349 1_565 S
C840 C838 1.327 . S
C840 C859 1.429 1_565 S
C840 H864 0.950 . S
C841 C858 1.574 . S
C841 C860 1.368 . S
C841 H865 0.949 . S
H842 C846 0.949 . S
C843 C844 1.349 . S
C843 C845 1.327 . S
C843 H866 0.950 . S
C844 C843 1.349 . S
C844 C856 1.349 . S
C845 C843 1.327 . S
C845 C861 1.429 . S
C845 H867 0.950 . S
C846 H842 0.949 . S
C846 C854 1.574 . S
C846 C862 1.368 1_565 S
H847 C855 0.950 . S
H848 C853 0.950 . S
H849 C854 0.949 . S
H850 C856 0.950 1_565 S
H851 C857 0.950 1_565 S
H852 C858 0.949 . S
C853 H848 0.950 . S
C853 C855 1.327 . S
C853 C859 1.429 . S
C854 C846 1.574 . S
C854 H849 0.949 . S
C854 C860 1.368 1_565 S
C855 C839 1.349 1_545 S
C855 H847 0.950 . S
C855 C853 1.327 . S
C856 C844 1.349 . S
C856 H850 0.950 1_545 S
C856 C857 1.327 . S
C857 H851 0.950 1_545 S
C857 C856 1.327 . S
C857 C861 1.429 . S
C858 C841 1.574 . S
C858 H852 0.949 . S
C858 C862 1.368 . S
C859 C840 1.429 1_545 S
C859 C853 1.429 . S
C859 C860 1.523 . S
C860 C841 1.368 . S
C860 C854 1.368 1_545 S
C860 C859 1.523 . S
C861 C845 1.429 . S
C861 C857 1.429 . S
C861 C862 1.523 1_556 S
C862 C846 1.368 1_545 S
C862 C858 1.368 . S
C862 C861 1.523 1_554 S
H863 C838 0.950 . S
H864 C840 0.950 . S
H865 C841 0.949 . S
H866 C843 0.950 . S
H867 C845 0.950 . S
C868 C869 1.349 . S
C868 C870 1.327 . S
C868 H893 0.950 . S
C869 C868 1.349 . S
C869 C885 1.349 . S
C870 C868 1.327 . S
C870 C889 1.429 . S
C870 H894 0.950 . S
C871 C888 1.574 . S
C871 C890 1.368 . S
C871 H895 0.949 . S
H872 C876 0.949 . S
C873 C874 1.349 . S
C873 C875 1.327 . S
C873 H896 0.950 . S
C874 C873 1.349 . S
C874 C886 1.349 . S
C875 C873 1.327 . S
C875 C891 1.429 . S
C875 H897 0.950 . S
C876 H872 0.949 . S
C876 C884 1.574 . S
C876 C892 1.368 . S
H877 C885 0.950 . S
H878 C883 0.950 . S
H879 C884 0.949 . S
H880 C886 0.950 . S
H881 C887 0.950 . S
H882 C888 0.949 . S
C883 H878 0.950 . S
C883 C885 1.327 . S
C883 C889 1.429 . S
C884 C876 1.574 . S
C884 H879 0.949 . S
C884 C890 1.368 . S
C885 C869 1.349 . S
C885 H877 0.950 . S
C885 C883 1.327 . S
C886 C874 1.349 . S
C886 H880 0.950 . S
C886 C887 1.327 . S
C887 H881 0.950 . S
C887 C886 1.327 . S
C887 C891 1.429 . S
C888 C871 1.574 . S
C888 H882 0.949 . S
C888 C892 1.368 . S
C889 C870 1.429 . S
C889 C883 1.429 . S
C889 C890 1.523 . S
C890 C871 1.368 . S
C890 C884 1.368 . S
C890 C889 1.523 . S
C891 C875 1.429 . S
C891 C887 1.429 . S
C891 C892 1.523 . S
C892 C876 1.368 . S
C892 C888 1.368 . S
C892 C891 1.523 . S
H893 C868 0.950 . S
H894 C870 0.950 . S
H895 C871 0.949 . S
H896 C873 0.950 . S
H897 C875 0.950 . S
C898 C899 1.349 . S
C898 C900 1.327 . S
C898 H923 0.950 . S
C899 C898 1.349 . S
C899 C915 1.349 . S
C900 C898 1.327 . S
C900 C919 1.429 . S
C900 H924 0.950 . S
C901 C918 1.574 . S
C901 C920 1.368 . S
C901 H925 0.949 . S
H902 C906 0.949 . S
C903 C904 1.349 . S
C903 C905 1.327 . S
C903 H926 0.950 . S
C904 C903 1.349 . S
C904 C916 1.349 . S
C905 C903 1.327 . S
C905 C921 1.429 . S
C905 H927 0.950 1_556 S
C906 H902 0.949 . S
C906 C914 1.574 1_556 S
C906 C922 1.368 1_556 S
H907 C915 0.950 . S
H908 C913 0.950 . S
H909 C914 0.949 . S
H910 C916 0.950 . S
H911 C917 0.950 . S
H912 C918 0.949 . S
C913 H908 0.950 . S
C913 C915 1.327 . S
C913 C919 1.429 . S
C914 C906 1.574 1_554 S
C914 H909 0.949 . S
C914 C920 1.368 . S
C915 C899 1.349 . S
C915 H907 0.950 . S
C915 C913 1.327 . S
C916 C904 1.349 . S
C916 H910 0.950 . S
C916 C917 1.327 . S
C917 H911 0.950 . S
C917 C916 1.327 . S
C917 C921 1.429 . S
C918 C901 1.574 . S
C918 H912 0.949 . S
C918 C922 1.368 . S
C919 C900 1.429 . S
C919 C913 1.429 . S
C919 C920 1.523 . S
C920 C901 1.368 . S
C920 C914 1.368 . S
C920 C919 1.523 . S
C921 C905 1.429 . S
C921 C917 1.429 . S
C921 C922 1.523 1_556 S
C922 C906 1.368 1_554 S
C922 C918 1.368 . S
C922 C921 1.523 1_554 S
H923 C898 0.950 . S
H924 C900 0.950 . S
H925 C901 0.949 . S
H926 C903 0.950 . S
H927 C905 0.950 1_554 S
C928 C929 1.349 . S
C928 C930 1.327 . S
C928 H953 0.950 1_556 S
C929 C928 1.349 . S
C929 C945 1.349 . S
C930 C928 1.327 . S
C930 C949 1.429 . S
C930 H954 0.950 . S
C931 C948 1.574 . S
C931 C950 1.368 . S
C931 H955 0.949 . S
H932 C936 0.949 . S
C933 C934 1.349 . S
C933 C935 1.327 . S
C933 H956 0.950 . S
C934 C933 1.349 . S
C934 C946 1.349 . S
C935 C933 1.327 . S
C935 C951 1.429 . S
C935 H957 0.950 . S
C936 H932 0.949 . S
C936 C944 1.574 . S
C936 C952 1.368 . S
H937 C945 0.950 . S
H938 C943 0.950 . S
H939 C944 0.949 . S
H940 C946 0.950 . S
H941 C947 0.950 . S
H942 C948 0.949 . S
C943 H938 0.950 . S
C943 C945 1.327 . S
C943 C949 1.429 . S
C944 C936 1.574 . S
C944 H939 0.949 . S
C944 C950 1.368 . S
C945 C929 1.349 . S
C945 H937 0.950 . S
C945 C943 1.327 . S
C946 C934 1.349 . S
C946 H940 0.950 . S
C946 C947 1.327 . S
C947 H941 0.950 . S
C947 C946 1.327 . S
C947 C951 1.429 . S
C948 C931 1.574 . S
C948 H942 0.949 . S
C948 C952 1.368 . S
C949 C930 1.429 . S
C949 C943 1.429 . S
C949 C950 1.523 . S
C950 C931 1.368 . S
C950 C944 1.368 . S
C950 C949 1.523 . S
C951 C935 1.429 . S
C951 C947 1.429 . S
C951 C952 1.523 . S
C952 C936 1.368 . S
C952 C948 1.368 . S
C952 C951 1.523 . S
H953 C928 0.950 1_554 S
H954 C930 0.950 . S
H955 C931 0.949 . S
H956 C933 0.950 . S
H957 C935 0.950 . S
C958 C959 1.374 . S
C958 C960 1.327 . S
C958 H983 0.950 . S
C959 C958 1.374 . S
C959 C975 1.327 1_545 S
C960 C958 1.327 . S
C960 C979 1.429 . S
C960 H984 0.950 . S
C961 C978 1.574 . S
C961 C980 1.368 1_565 S
C961 H985 0.949 . S
H962 C966 0.949 . S
C963 C964 1.349 1_565 S
C963 C965 1.327 . S
C963 H986 0.950 . S
C964 C963 1.349 1_545 S
C964 C976 1.349 . S
C965 C963 1.327 . S
C965 C981 1.429 1_565 S
C965 H987 0.950 . S
C966 H962 0.949 . S
C966 C974 1.574 . S
C966 C982 1.368 . S
H967 C975 0.950 . S
H968 C973 0.950 . S
H969 C974 0.949 . S
H970 C976 0.950 . S
H971 C977 0.950 . S
H972 C978 0.949 . S
C973 H968 0.950 . S
C973 C975 1.327 . S
C973 C979 1.429 1_565 S
C974 C966 1.574 . S
C974 H969 0.949 . S
C974 C980 1.368 . S
C975 C959 1.327 1_565 S
C975 H967 0.950 . S
C975 C973 1.327 . S
C976 C964 1.349 . S
C976 H970 0.950 . S
C976 C977 1.327 . S
C977 H971 0.950 . S
C977 C976 1.327 . S
C977 C981 1.429 . S
C978 C961 1.574 . S
C978 H972 0.949 . S
C978 C982 1.368 1_565 S
C979 C960 1.429 . S
C979 C973 1.429 1_545 S
C979 C980 1.523 . S
C980 C961 1.368 1_545 S
C980 C974 1.368 . S
C980 C979 1.523 . S
C981 C965 1.429 1_545 S
C981 C977 1.429 . S
C981 C982 1.523 . S
C982 C966 1.368 . S
C982 C978 1.368 1_545 S
C982 C981 1.523 . S
H983 C958 0.950 . S
H984 C960 0.950 . S
H985 C961 0.949 . S
H986 C963 0.950 . S
H987 C965 0.950 . S
C988 C989 1.349 . S
C988 C990 1.327 . S
C988 H1013 0.950 . S
C989 C988 1.349 . S
C989 C1005 1.349 . S
C990 C988 1.327 . S
C990 C1009 1.429 . S
C990 H1014 0.950 . S
C991 C1008 1.574 . S
C991 C1010 1.368 . S
C991 H1015 0.949 . S
H992 C996 0.949 . S
C993 C994 1.349 1_556 S
C993 C995 1.327 1_556 S
C993 H1016 0.950 . S
C994 C993 1.349 1_554 S
C994 C1006 1.349 . S
C995 C993 1.327 1_554 S
C995 C1011 1.429 . S
C995 H1017 0.950 1_554 S
C996 H992 0.949 . S
C996 C1004 1.574 . S
C996 C1012 1.368 . S
H997 C1005 0.950 . S
H998 C1003 0.950 . S
H999 C1004 0.949 . S
H1000 C1006 0.950 . S
H1001 C1007 0.950 . S
H1002 C1008 0.949 . S
C1003 H998 0.950 . S
C1003 C1005 1.327 . S
C1003 C1009 1.429 . S
C1004 C996 1.574 . S
C1004 H999 0.949 . S
C1004 C1010 1.368 . S
C1005 C989 1.349 . S
C1005 H997 0.950 . S
C1005 C1003 1.327 . S
C1006 C994 1.349 . S
C1006 H1000 0.950 . S
C1006 C1007 1.327 . S
C1007 H1001 0.950 . S
C1007 C1006 1.327 . S
C1007 C1011 1.429 . S
C1008 C991 1.574 . S
C1008 H1002 0.949 . S
C1008 C1012 1.368 . S
C1009 C990 1.429 . S
C1009 C1003 1.429 . S
C1009 C1010 1.523 . S
C1010 C991 1.368 . S
C1010 C1004 1.368 . S
C1010 C1009 1.523 . S
C1011 C995 1.429 . S
C1011 C1007 1.429 . S
C1011 C1012 1.523 . S
C1012 C996 1.368 . S
C1012 C1008 1.368 . S
C1012 C1011 1.523 . S
H1013 C988 0.950 . S
H1014 C990 0.950 . S
H1015 C991 0.949 . S
H1016 C993 0.950 . S
H1017 C995 0.950 1_556 S
C1018 C1019 1.349 . S
C1018 C1020 1.327 . S
C1018 H1043 0.950 . S
C1019 C1018 1.349 . S
C1019 C1035 1.349 . S
C1020 C1018 1.327 . S
C1020 C1039 1.429 . S
C1020 H1044 0.950 . S
C1021 C1038 1.574 . S
C1021 C1040 1.368 . S
C1021 H1045 0.949 . S
H1022 C1026 0.949 . S
C1023 C1024 1.349 . S
C1023 C1025 1.327 . S
C1023 H1046 0.950 . S
C1024 C1023 1.349 . S
C1024 C1036 1.349 . S
C1025 C1023 1.327 . S
C1025 C1041 1.429 . S
C1025 H1047 0.950 . S
C1026 H1022 0.949 . S
C1026 C1034 1.574 . S
C1026 C1042 1.368 . S
H1027 C1035 0.950 . S
H1028 C1033 0.950 . S
H1029 C1034 0.949 . S
H1030 C1036 0.950 . S
H1031 C1037 0.950 . S
H1032 C1038 0.949 . S
C1033 H1028 0.950 . S
C1033 C1035 1.327 . S
C1033 C1039 1.429 . S
C1034 C1026 1.574 . S
C1034 H1029 0.949 . S
C1034 C1040 1.368 . S
C1035 C1019 1.349 . S
C1035 H1027 0.950 . S
C1035 C1033 1.327 . S
C1036 C1024 1.349 . S
C1036 H1030 0.950 . S
C1036 C1037 1.327 . S
C1037 H1031 0.950 . S
C1037 C1036 1.327 . S
C1037 C1041 1.429 . S
C1038 C1021 1.574 . S
C1038 H1032 0.949 . S
C1038 C1042 1.368 . S
C1039 C1020 1.429 . S
C1039 C1033 1.429 . S
C1039 C1040 1.523 . S
C1040 C1021 1.368 . S
C1040 C1034 1.368 . S
C1040 C1039 1.523 . S
C1041 C1025 1.429 . S
C1041 C1037 1.429 . S
C1041 C1042 1.523 . S
C1042 C1026 1.368 . S
C1042 C1038 1.368 . S
C1042 C1041 1.523 . S
H1043 C1018 0.950 . S
H1044 C1020 0.950 . S
H1045 C1021 0.949 . S
H1046 C1023 0.950 . S
H1047 C1025 0.950 . S
C1048 C1049 1.349 . S
C1048 C1050 1.327 . S
C1048 H1073 0.950 . S
C1049 C1048 1.349 . S
C1049 C1065 1.349 . S
C1050 C1048 1.327 . S
C1050 C1069 1.429 . S
C1050 H1074 0.950 . S
C1051 C1068 1.574 . S
C1051 C1070 1.368 . S
C1051 H1075 0.949 . S
H1052 C1056 0.949 . S
C1053 C1054 1.349 . S
C1053 C1055 1.327 . S
C1053 H1076 0.950 . S
C1054 C1053 1.349 . S
C1054 C1066 1.349 . S
C1055 C1053 1.327 . S
C1055 C1071 1.429 . S
C1055 H1077 0.950 . S
C1056 H1052 0.949 . S
C1056 C1064 1.574 . S
C1056 C1072 1.368 . S
H1057 C1065 0.950 . S
H1058 C1063 0.950 . S
H1059 C1064 0.949 . S
H1060 C1066 0.950 1_455 S
H1061 C1067 0.980 . S
H1062 C1068 0.949 . S
C1063 H1058 0.950 . S
C1063 C1065 1.327 . S
C1063 C1069 1.429 . S
C1064 C1056 1.574 . S
C1064 H1059 0.949 . S
C1064 C1070 1.368 . S
C1065 C1049 1.349 . S
C1065 H1057 0.950 . S
C1065 C1063 1.327 . S
C1066 C1054 1.349 . S
C1066 H1060 0.950 1_655 S
C1066 C1067 1.327 . S
C1067 H1061 0.980 . S
C1067 C1066 1.327 . S
C1067 C1071 1.429 . S
C1068 C1051 1.574 . S
C1068 H1062 0.949 . S
C1068 C1072 1.368 . S
C1069 C1050 1.429 . S
C1069 C1063 1.429 . S
C1069 C1070 1.523 . S
C1070 C1051 1.368 . S
C1070 C1064 1.368 . S
C1070 C1069 1.523 . S
C1071 C1055 1.429 . S
C1071 C1067 1.429 . S
C1071 C1072 1.523 . S
C1072 C1056 1.368 . S
C1072 C1068 1.368 . S
C1072 C1071 1.523 . S
H1073 C1048 0.950 . S
H1074 C1050 0.950 . S
H1075 C1051 0.949 . S
H1076 C1053 0.950 . S
H1077 C1055 0.950 . S
C1078 C1079 1.373 . S
C1078 C1080 1.327 . S
C1078 H1103 0.950 . S
C1079 C1078 1.373 . S
C1079 C1095 1.326 1_565 S
C1080 C1078 1.327 . S
C1080 C1099 1.429 . S
C1080 H1104 0.950 . S
C1081 C1098 1.574 . S
C1081 C1100 1.368 1_545 S
C1081 H1105 0.949 . S
H1082 C1086 0.949 . S
C1083 C1084 1.349 1_545 S
C1083 C1085 1.327 . S
C1083 H1106 0.950 . S
C1084 C1083 1.349 1_565 S
C1084 C1096 1.349 . S
C1085 C1083 1.327 . S
C1085 C1101 1.429 1_545 S
C1085 H1107 0.950 . S
C1086 H1082 0.949 . S
C1086 C1094 1.574 . S
C1086 C1102 1.368 . S
H1087 C1095 0.950 . S
H1088 C1093 0.950 . S
H1089 C1094 0.949 . S
H1090 C1096 0.950 . S
H1091 C1097 0.950 . S
H1092 C1098 0.949 . S
C1093 H1088 0.950 . S
C1093 C1095 1.327 . S
C1093 C1099 1.429 1_545 S
C1094 C1086 1.574 . S
C1094 H1089 0.949 . S
C1094 C1100 1.368 . S
C1095 C1079 1.326 1_545 S
C1095 H1087 0.950 . S
C1095 C1093 1.327 . S
C1096 C1084 1.349 . S
C1096 H1090 0.950 . S
C1096 C1097 1.327 . S
C1097 H1091 0.950 . S
C1097 C1096 1.327 . S
C1097 C1101 1.429 . S
C1098 C1081 1.574 . S
C1098 H1092 0.949 . S
C1098 C1102 1.368 1_545 S
C1099 C1080 1.429 . S
C1099 C1093 1.429 1_565 S
C1099 C1100 1.523 . S
C1100 C1081 1.368 1_565 S
C1100 C1094 1.368 . S
C1100 C1099 1.523 . S
C1101 C1085 1.429 1_565 S
C1101 C1097 1.429 . S
C1101 C1102 1.523 . S
C1102 C1086 1.368 . S
C1102 C1098 1.368 1_565 S
C1102 C1101 1.523 . S
H1103 C1078 0.950 . S
H1104 C1080 0.950 . S
H1105 C1081 0.949 . S
H1106 C1083 0.950 . S
H1107 C1085 0.950 . S
C1108 C1109 1.349 . S
C1108 C1110 1.327 . S
C1108 H1133 0.950 . S
C1109 C1108 1.349 . S
C1109 C1125 1.349 . S
C1110 C1108 1.327 . S
C1110 C1129 1.429 . S
C1110 H1134 0.950 . S
C1111 C1128 1.574 . S
C1111 C1130 1.368 . S
C1111 H1135 0.949 . S
H1112 C1116 0.949 . S
C1113 C1114 1.349 . S
C1113 C1115 1.327 . S
C1113 H1136 0.950 . S
C1114 C1113 1.349 . S
C1114 C1126 1.349 . S
C1115 C1113 1.327 . S
C1115 C1131 1.429 . S
C1115 H1137 0.950 . S
C1116 H1112 0.949 . S
C1116 C1124 1.574 . S
C1116 C1132 1.368 . S
H1117 C1125 0.950 . S
H1118 C1123 0.950 . S
H1119 C1124 0.949 . S
H1120 C1126 0.950 . S
H1121 C1127 0.950 . S
H1122 C1128 0.949 . S
C1123 H1118 0.950 . S
C1123 C1125 1.327 . S
C1123 C1129 1.429 . S
C1124 C1116 1.574 . S
C1124 H1119 0.949 . S
C1124 C1130 1.368 . S
C1125 C1109 1.349 . S
C1125 H1117 0.950 . S
C1125 C1123 1.327 . S
C1126 C1114 1.349 . S
C1126 H1120 0.950 . S
C1126 C1127 1.327 . S
C1127 H1121 0.950 . S
C1127 C1126 1.327 . S
C1127 C1131 1.429 . S
C1128 C1111 1.574 . S
C1128 H1122 0.949 . S
C1128 C1132 1.368 . S
C1129 C1110 1.429 . S
C1129 C1123 1.429 . S
C1129 C1130 1.523 . S
C1130 C1111 1.368 . S
C1130 C1124 1.368 . S
C1130 C1129 1.523 . S
C1131 C1115 1.429 . S
C1131 C1127 1.429 . S
C1131 C1132 1.523 . S
C1132 C1116 1.368 . S
C1132 C1128 1.368 . S
C1132 C1131 1.523 . S
H1133 C1108 0.950 . S
H1134 C1110 0.950 . S
H1135 C1111 0.949 . S
H1136 C1113 0.950 . S
H1137 C1115 0.950 . S
C1138 C1139 1.349 . S
C1138 C1140 1.327 . S
C1138 H1163 0.950 . S
C1139 C1138 1.349 . S
C1139 C1155 1.349 . S
C1140 C1138 1.327 . S
C1140 C1159 1.429 . S
C1140 H1164 0.950 . S
C1141 C1158 1.574 . S
C1141 C1160 1.368 . S
C1141 H1165 0.949 . S
H1142 C1146 0.949 . S
C1143 C1144 1.349 . S
C1143 C1145 1.327 . S
C1143 H1166 0.950 . S
C1144 C1143 1.349 . S
C1144 C1156 1.349 . S
C1145 C1143 1.327 . S
C1145 C1161 1.429 . S
C1145 H1167 0.950 . S
C1146 H1142 0.949 . S
C1146 C1154 1.574 . S
C1146 C1162 1.368 . S
H1147 C1155 0.950 . S
H1148 C1153 0.950 . S
H1149 C1154 0.949 . S
H1150 C1156 0.950 . S
H1151 C1157 0.950 . S
H1152 C1158 0.949 . S
C1153 H1148 0.950 . S
C1153 C1155 1.327 . S
C1153 C1159 1.429 . S
C1154 C1146 1.574 . S
C1154 H1149 0.949 . S
C1154 C1160 1.368 . S
C1155 C1139 1.349 . S
C1155 H1147 0.950 . S
C1155 C1153 1.327 . S
C1156 C1144 1.349 . S
C1156 H1150 0.950 . S
C1156 C1157 1.327 . S
C1157 H1151 0.950 . S
C1157 C1156 1.327 . S
C1157 C1161 1.429 . S
C1158 C1141 1.574 . S
C1158 H1152 0.949 . S
C1158 C1162 1.368 . S
C1159 C1140 1.429 . S
C1159 C1153 1.429 . S
C1159 C1160 1.523 . S
C1160 C1141 1.368 . S
C1160 C1154 1.368 . S
C1160 C1159 1.523 . S
C1161 C1145 1.429 . S
C1161 C1157 1.429 . S
C1161 C1162 1.523 . S
C1162 C1146 1.368 . S
C1162 C1158 1.368 . S
C1162 C1161 1.523 . S
H1163 C1138 0.950 . S
H1164 C1140 0.950 . S
H1165 C1141 0.949 . S
H1166 C1143 0.950 . S
H1167 C1145 0.950 . S
C449 C241 1.861 1_565 S
C454 C311 2.006 . S
C484 C351 1.563 . S
C479 C277 1.510 . S
C514 C370 2.082 . S
C509 C169 1.921 . S
C544 C431 1.647 . S
C539 C205 1.549 . S
C574 C290 2.006 . S
C569 C97 1.860 . S
C599 C133 1.554 . S
C604 C330 1.568 . S
C629 C25 1.935 . S
C634 C391 2.082 . S
C659 C61 1.513 . S
C664 C410 1.646 1_655 S
C694 C292 0.529 . S
C689 C211 0.492 . S
C724 C332 0.344 . S
C719 C247 0.316 . S
C754 C388 0.542 . S
C749 C253 0.619 . S
C779 C175 0.273 . S
C784 C412 0.270 . S
C809 C67 0.552 . S
C814 C313 0.535 . S
C844 C353 0.345 . S
C839 C103 0.390 1_565 S
C874 C399 0.542 . S
C869 C109 0.589 . S
C899 C31 0.290 . S
C904 C433 0.270 . S
C929 C181 2.202 1_556 S
C934 C308 2.386 . S
C959 C217 2.643 . S
C964 C348 2.882 . S
C994 C372 1.853 1_554 S
C989 C283 1.758 . S
C1024 C428 2.842 . S
C1019 C145 2.601 . S
C1049 C37 2.176 . S
C1054 C319 2.398 . S
C1084 C359 2.882 . S
C1079 C73 2.639 1_565 S
C1114 C393 1.853 . S
C1109 C139 1.771 . S
C1139 C1 2.620 . S
C1144 C439 2.842 . S
