# Generated by pormake.
# Topology ssb, (4,4)-cn, num edge types: 1
# Building blocks:
#     Node 0, Type 0, BuildingBlock: KUFVIS_clean_linker_0, # of connection points: 4
#     Node 1, Type 0, BuildingBlock: KUFVIS_clean_linker_0, # of connection points: 4
#     Node 2, Type 0, BuildingBlock: KUFVIS_clean_linker_0, # of connection points: 4
#     Node 3, Type 0, BuildingBlock: KUFVIS_clean_linker_0, # of connection points: 4
#     Node 4, Type 0, BuildingBlock: KUFVIS_clean_linker_0, # of connection points: 4
#     Node 5, Type 0, BuildingBlock: KUFVIS_clean_linker_0, # of connection points: 4
#     Node 6, Type 0, BuildingBlock: KUFVIS_clean_linker_0, # of connection points: 4
#     Node 7, Type 0, BuildingBlock: KUFVIS_clean_linker_0, # of connection points: 4
#     Node 8, Type 1, BuildingBlock: KOZSID_clean_sbu_0, # of connection points: 4
#     Node 9, Type 1, BuildingBlock: KOZSID_clean_sbu_0, # of connection points: 4
#     Node 10, Type 1, BuildingBlock: KOZSID_clean_sbu_0, # of connection points: 4
#     Node 11, Type 1, BuildingBlock: KOZSID_clean_sbu_0, # of connection points: 4
#     Node 12, Type 1, BuildingBlock: KOZSID_clean_sbu_0, # of connection points: 4
#     Node 13, Type 1, BuildingBlock: KOZSID_clean_sbu_0, # of connection points: 4
#     Node 14, Type 1, BuildingBlock: KOZSID_clean_sbu_0, # of connection points: 4
#     Node 15, Type 1, BuildingBlock: KOZSID_clean_sbu_0, # of connection points: 4
#     Edge 16, Type (0, 1), BuildingBlock: AJUNOK_clean_linker_0, # of connection points: 2
#     Edge 17, Type (0, 1), BuildingBlock: AJUNOK_clean_linker_0, # of connection points: 2
#     Edge 18, Type (0, 1), BuildingBlock: AJUNOK_clean_linker_0, # of connection points: 2
#     Edge 19, Type (0, 1), BuildingBlock: AJUNOK_clean_linker_0, # of connection points: 2
#     Edge 20, Type (0, 1), BuildingBlock: AJUNOK_clean_linker_0, # of connection points: 2
#     Edge 21, Type (0, 1), BuildingBlock: AJUNOK_clean_linker_0, # of connection points: 2
#     Edge 22, Type (0, 1), BuildingBlock: AJUNOK_clean_linker_0, # of connection points: 2
#     Edge 23, Type (0, 1), BuildingBlock: AJUNOK_clean_linker_0, # of connection points: 2
#     Edge 24, Type (0, 1), BuildingBlock: AJUNOK_clean_linker_0, # of connection points: 2
#     Edge 25, Type (0, 1), BuildingBlock: AJUNOK_clean_linker_0, # of connection points: 2
#     Edge 26, Type (0, 1), BuildingBlock: AJUNOK_clean_linker_0, # of connection points: 2
#     Edge 27, Type (0, 1), BuildingBlock: AJUNOK_clean_linker_0, # of connection points: 2
#     Edge 28, Type (0, 1), BuildingBlock: AJUNOK_clean_linker_0, # of connection points: 2
#     Edge 29, Type (0, 1), BuildingBlock: AJUNOK_clean_linker_0, # of connection points: 2
#     Edge 30, Type (0, 1), BuildingBlock: AJUNOK_clean_linker_0, # of connection points: 2
#     Edge 31, Type (0, 1), BuildingBlock: AJUNOK_clean_linker_0, # of connection points: 2
#     Edge 32, Type (0, 1), BuildingBlock: AJUNOK_clean_linker_0, # of connection points: 2
#     Edge 33, Type (0, 1), BuildingBlock: AJUNOK_clean_linker_0, # of connection points: 2
#     Edge 34, Type (0, 1), BuildingBlock: AJUNOK_clean_linker_0, # of connection points: 2
#     Edge 35, Type (0, 1), BuildingBlock: AJUNOK_clean_linker_0, # of connection points: 2
#     Edge 36, Type (0, 1), BuildingBlock: AJUNOK_clean_linker_0, # of connection points: 2
#     Edge 37, Type (0, 1), BuildingBlock: AJUNOK_clean_linker_0, # of connection points: 2
#     Edge 38, Type (0, 1), BuildingBlock: AJUNOK_clean_linker_0, # of connection points: 2
#     Edge 39, Type (0, 1), BuildingBlock: AJUNOK_clean_linker_0, # of connection points: 2
#     Edge 40, Type (0, 1), BuildingBlock: AJUNOK_clean_linker_0, # of connection points: 2
#     Edge 41, Type (0, 1), BuildingBlock: AJUNOK_clean_linker_0, # of connection points: 2
#     Edge 42, Type (0, 1), BuildingBlock: AJUNOK_clean_linker_0, # of connection points: 2
#     Edge 43, Type (0, 1), BuildingBlock: AJUNOK_clean_linker_0, # of connection points: 2
#     Edge 44, Type (0, 1), BuildingBlock: AJUNOK_clean_linker_0, # of connection points: 2
#     Edge 45, Type (0, 1), BuildingBlock: AJUNOK_clean_linker_0, # of connection points: 2
#     Edge 46, Type (0, 1), BuildingBlock: AJUNOK_clean_linker_0, # of connection points: 2
#     Edge 47, Type (0, 1), BuildingBlock: AJUNOK_clean_linker_0, # of connection points: 2
# Relax obj value: 0.004
# Max RMSD: 0.072
# Mean RMSD: 0.035
data_MOF--net-ssb--node1-KOZSID_clean_sbu_0--node2-KUFVIS_clean_linker_0--edge1-AJUNOK_clean_linker_0
_symmetry_space_group_name_H-M    P1
_symmetry_Int_Tables_number       1
_symmetry_cell_setting            triclinic
loop_
_symmetry_equiv_pos_as_xyz
'x, y, z'
_cell_length_a     41.611556
_cell_length_b     41.508107
_cell_length_c     30.537904
_cell_angle_alpha  93.247025
_cell_angle_beta   96.41701
_cell_angle_gamma 90.016009
loop_
_atom_site_label
_atom_site_type_symbol
_atom_site_fract_x
_atom_site_fract_y
_atom_site_fract_z
_atom_type_partial_charge
H0 H 0.20701 0.19703 0.40248 0.0
H1 H 0.28469 0.20135 0.32246 0.0
H2 H 0.20936 0.27458 0.31724 0.0
H3 H 0.23087 0.299 0.26939 0.0
H4 H 0.30932 0.30498 0.19136 0.0
H5 H 0.30731 0.22678 0.27578 0.0
C6 C 0.21893 0.20897 0.37794 0.0
C7 C 0.2053 0.23689 0.36047 0.0
C8 C 0.24756 0.19614 0.36475 0.0
C9 C 0.2628 0.21203 0.33223 0.0
C10 C 0.24984 0.24121 0.31354 0.0
C11 C 0.2208 0.253 0.32917 0.0
C12 C 0.26605 0.25936 0.27854 0.0
C13 C 0.25286 0.28845 0.25983 0.0
C14 C 0.26843 0.30496 0.22829 0.0
C15 C 0.29709 0.29244 0.2151 0.0
C16 C 0.3108 0.26453 0.23221 0.0
C17 C 0.29549 0.24808 0.26344 0.0
H18 H 0.70382 0.31477 0.17047 0.0
H19 H 0.78848 0.3094 0.26281 0.0
H20 H 0.70692 0.24484 0.26809 0.0
H21 H 0.7423 0.21234 0.29545 0.0
H22 H 0.81923 0.20898 0.39905 0.0
H23 H 0.80529 0.29571 0.32945 0.0
C24 C 0.71683 0.30329 0.19816 0.0
C25 C 0.7025 0.27757 0.21641 0.0
C26 C 0.74725 0.31513 0.21578 0.0
C27 C 0.76441 0.3005 0.25142 0.0
C28 C 0.75097 0.27424 0.27078 0.0
C29 C 0.7191 0.26383 0.25352 0.0
C30 C 0.77046 0.25695 0.30717 0.0
C31 C 0.762 0.22505 0.31516 0.0
C32 C 0.7791 0.20845 0.3486 0.0
C33 C 0.80593 0.2226 0.37372 0.0
C34 C 0.81573 0.25395 0.36678 0.0
C35 C 0.79789 0.27122 0.3336 0.0
H36 H 0.81209 0.8164 0.40124 0.0
H37 H 0.8078 0.73815 0.30439 0.0
H38 H 0.7272 0.80479 0.30844 0.0
H39 H 0.7084 0.78285 0.24546 0.0
H40 H 0.70263 0.69984 0.15531 0.0
H41 H 0.77901 0.70565 0.26098 0.0
C42 C 0.79848 0.80301 0.3737 0.0
C43 C 0.76803 0.81414 0.35708 0.0
C44 C 0.81243 0.77564 0.355 0.0
C45 C 0.79572 0.75865 0.31819 0.0
C46 C 0.76441 0.76787 0.29987 0.0
C47 C 0.75097 0.79638 0.32015 0.0
C48 C 0.7468 0.74793 0.25983 0.0
C49 C 0.71839 0.75985 0.23597 0.0
C50 C 0.70253 0.74267 0.19846 0.0
C51 C 0.71512 0.71318 0.1838 0.0
C52 C 0.74286 0.69992 0.20567 0.0
C53 C 0.75823 0.71698 0.24413 0.0
H54 H 0.19836 0.81914 0.35282 0.0
H55 H 0.27911 0.80673 0.27966 0.0
H56 H 0.1996 0.73736 0.26141 0.0
H57 H 0.23246 0.7064 0.23066 0.0
H58 H 0.30512 0.70251 0.14272 0.0
H59 H 0.29122 0.79095 0.21637 0.0
C60 C 0.21016 0.80521 0.32811 0.0
C61 C 0.19622 0.77641 0.30924 0.0
C62 C 0.23954 0.81596 0.31641 0.0
C63 C 0.25565 0.79803 0.28574 0.0
C64 C 0.24185 0.76952 0.26411 0.0
C65 C 0.21169 0.75882 0.27671 0.0
C66 C 0.25928 0.75136 0.22944 0.0
C67 C 0.25097 0.71901 0.21619 0.0
C68 C 0.26645 0.70217 0.1836 0.0
C69 C 0.2921 0.71654 0.166 0.0
C70 C 0.30164 0.7483 0.17852 0.0
C71 C 0.28464 0.7659 0.20929 0.0
H72 H 0.3185 0.71968 0.88534 0.0
H73 H 0.23429 0.72702 0.79309 0.0
H74 H 0.3141 0.7957 0.79663 0.0
H75 H 0.28799 0.82285 0.74792 0.0
H76 H 0.20737 0.82466 0.64818 0.0
H77 H 0.21307 0.74844 0.73628 0.0
C78 C 0.30513 0.73208 0.85878 0.0
C79 C 0.31885 0.75934 0.84326 0.0
C80 C 0.27499 0.71999 0.84058 0.0
C81 C 0.2577 0.73669 0.80589 0.0
C82 C 0.27106 0.76475 0.78815 0.0
C83 C 0.3022 0.77519 0.80795 0.0
C84 C 0.25344 0.7826 0.74912 0.0
C85 C 0.26579 0.81169 0.73279 0.0
C86 C 0.24964 0.82671 0.69555 0.0
C87 C 0.22051 0.81305 0.67562 0.0
C88 C 0.20735 0.78529 0.6907 0.0
C89 C 0.22379 0.77023 0.7268 0.0
H90 H 0.31332 0.32039 0.93135 0.0
H91 H 0.29073 0.23369 0.85149 0.0
H92 H 0.23085 0.31866 0.83461 0.0
H93 H 0.19363 0.28726 0.80049 0.0
H94 H 0.18776 0.21558 0.69347 0.0
H95 H 0.27356 0.22194 0.78392 0.0
C96 C 0.29748 0.30693 0.90614 0.0
C97 C 0.27045 0.32215 0.88535 0.0
C98 C 0.30521 0.27524 0.89345 0.0
C99 C 0.28481 0.25847 0.85967 0.0
C100 C 0.25735 0.2736 0.83737 0.0
C101 C 0.25084 0.30574 0.85093 0.0
C102 C 0.23672 0.25694 0.79862 0.0
C103 C 0.20504 0.26772 0.78327 0.0
C104 C 0.18776 0.25341 0.74457 0.0
C105 C 0.20125 0.22725 0.72255 0.0
C106 C 0.23165 0.21563 0.73786 0.0
C107 C 0.24941 0.23067 0.77492 0.0
H108 H 0.70312 0.31365 0.89574 0.0
H109 H 0.78101 0.3075 0.81574 0.0
H110 H 0.70498 0.23393 0.80181 0.0
H111 H 0.72835 0.20705 0.75341 0.0
H112 H 0.80478 0.20297 0.67064 0.0
H113 H 0.80149 0.28328 0.76319 0.0
C114 C 0.71518 0.30106 0.87012 0.0
C115 C 0.70143 0.27259 0.84982 0.0
C116 C 0.74385 0.31377 0.85832 0.0
C117 C 0.75892 0.29707 0.82401 0.0
C118 C 0.74579 0.26735 0.80205 0.0
C119 C 0.71663 0.25578 0.81638 0.0
C120 C 0.76199 0.2486 0.76486 0.0
C121 C 0.74965 0.21828 0.74385 0.0
C122 C 0.76476 0.20189 0.70926 0.0
C123 C 0.79274 0.21537 0.69643 0.0
C124 C 0.80584 0.24431 0.7162 0.0
C125 C 0.79046 0.26091 0.74955 0.0
H126 H 0.7002 0.69255 0.85153 0.0
H127 H 0.77837 0.69982 0.77283 0.0
H128 H 0.72043 0.78368 0.80272 0.0
H129 H 0.73414 0.80057 0.7426 0.0
H130 H 0.81966 0.81801 0.68293 0.0
H131 H 0.81401 0.733 0.75497 0.0
C132 C 0.71427 0.70686 0.8318 0.0
C133 C 0.70655 0.73924 0.82698 0.0
C134 C 0.74084 0.69318 0.81364 0.0
C135 C 0.75897 0.71163 0.78804 0.0
C136 C 0.75205 0.74456 0.78253 0.0
C137 C 0.72603 0.75831 0.80382 0.0
C138 C 0.77149 0.76428 0.75455 0.0
C139 C 0.75838 0.793 0.73771 0.0
C140 C 0.77613 0.81247 0.71338 0.0
C141 C 0.80664 0.80302 0.70311 0.0
C142 C 0.81992 0.77388 0.71686 0.0
C143 C 0.80266 0.75477 0.74328 0.0
C144 C 0.05288 0.30597 0.62513 0.0
C145 C 0.06494 0.33568 0.64282 0.0
C146 C 0.05328 0.35823 0.61421 0.0
C147 C 0.03462 0.3412 0.58086 0.0
N148 N 0.03323 0.30934 0.58698 0.0
Co149 Co 0.0094 0.2764 0.54555 0.0
N150 N 0.98491 0.30997 0.5119 0.0
C151 C 0.9925 0.34152 0.5131 0.0
C152 C 0.97071 0.35891 0.48688 0.0
C153 C 0.94793 0.33691 0.46803 0.0
C154 C 0.95721 0.30729 0.48389 0.0
N155 N 0.98542 0.24373 0.50414 0.0
C156 C 0.95751 0.24669 0.47717 0.0
C157 C 0.94883 0.21769 0.45407 0.0
C158 C 0.97222 0.19586 0.46715 0.0
C159 C 0.99378 0.21272 0.49736 0.0
N160 N 0.03404 0.24259 0.5787 0.0
C161 C 0.03666 0.21151 0.56415 0.0
C162 C 0.0564 0.19377 0.59245 0.0
C163 C 0.06751 0.21505 0.62663 0.0
C164 C 0.05389 0.24482 0.61731 0.0
N165 N 0.97499 0.27458 0.58465 0.0
C166 C 0.92222 0.27089 0.6346 0.0
C167 C 0.93713 0.24294 0.61886 0.0
C168 C 0.96331 0.24529 0.59417 0.0
C169 C 0.93492 0.30083 0.6256 0.0
C170 C 0.96127 0.30215 0.60068 0.0
N171 N 0.04378 0.27776 0.50604 0.0
C172 C 0.06056 0.27319 0.43266 0.0
C173 C 0.09319 0.27234 0.45009 0.0
C174 C 0.10051 0.27572 0.49596 0.0
C175 C 0.07564 0.27823 0.52317 0.0
C176 C 0.0363 0.27621 0.46112 0.0
H177 H 0.08242 0.27954 0.55817 0.0
H178 H 0.01142 0.27642 0.44673 0.0
H179 H 0.97363 0.22323 0.58199 0.0
H180 H 0.97022 0.3255 0.59388 0.0
C181 C 0.01615 0.35455 0.54533 0.0
C182 C 0.06437 0.2751 0.64237 0.0
C183 C 0.93986 0.27695 0.4709 0.0
C184 C 0.01826 0.19927 0.52561 0.0
H185 H 0.0814 0.34038 0.67254 0.0
H186 H 0.05782 0.38398 0.61744 0.0
H187 H 0.97044 0.38475 0.48363 0.0
H188 H 0.9268 0.34208 0.4456 0.0
H189 H 0.92782 0.21287 0.43034 0.0
H190 H 0.97262 0.17042 0.45727 0.0
H191 H 0.0621 0.16839 0.58869 0.0
H192 H 0.08472 0.20946 0.65436 0.0
H193 H 0.92814 0.21924 0.62464 0.0
H194 H 0.92467 0.32312 0.63774 0.0
H195 H 0.0538 0.27113 0.39732 0.0
H196 H 0.12535 0.27507 0.51094 0.0
C197 C 0.71562 0.06476 0.5798 0.0
C198 C 0.68553 0.07674 0.58748 0.0
C199 C 0.66302 0.05736 0.56274 0.0
C200 C 0.68046 0.03457 0.54143 0.0
N201 N 0.71282 0.03814 0.55102 0.0
Co202 Co 0.74656 0.00959 0.52661 0.0
N203 N 0.71334 0.98152 0.48905 0.0
C204 C 0.68095 0.98566 0.48582 0.0
C205 C 0.66393 0.96281 0.45836 0.0
C206 C 0.68676 0.9427 0.44321 0.0
C207 C 0.71658 0.9544 0.4623 0.0
N208 N 0.78035 0.98067 0.50296 0.0
C209 C 0.7775 0.95324 0.47575 0.0
C210 C 0.80758 0.94055 0.46936 0.0
C211 C 0.83011 0.96017 0.49354 0.0
C212 C 0.81271 0.98377 0.51331 0.0
N213 N 0.77988 0.03795 0.56353 0.0
C214 C 0.81234 0.03478 0.56501 0.0
C215 C 0.82942 0.05792 0.59183 0.0
C216 C 0.80659 0.07722 0.60842 0.0
C217 C 0.77666 0.06468 0.59097 0.0
N218 N 0.74496 0.981 0.5759 0.0
C219 C 0.74478 0.93189 0.63498 0.0
C220 C 0.77339 0.94786 0.62954 0.0
C221 C 0.7729 0.97226 0.60018 0.0
C222 C 0.71581 0.94273 0.61349 0.0
C223 C 0.71642 0.9675 0.58452 0.0
N224 N 0.74821 0.03822 0.4772 0.0
C225 C 0.77938 0.07226 0.43614 0.0
C226 C 0.75132 0.08709 0.418 0.0
C227 C 0.72152 0.075 0.42664 0.0
C228 C 0.72053 0.05068 0.45619 0.0
C229 C 0.77725 0.04781 0.46504 0.0
H230 H 0.69716 0.04314 0.46252 0.0
H231 H 0.79954 0.03794 0.47828 0.0
H232 H 0.79567 0.9827 0.59642 0.0
H233 H 0.69371 0.97452 0.56841 0.0
C234 C 0.66727 0.01021 0.51105 0.0
C235 C 0.74603 0.07957 0.60102 0.0
C236 C 0.74712 0.93816 0.45502 0.0
C237 C 0.82602 0.00922 0.54168 0.0
H238 H 0.6804 0.09741 0.60873 0.0
H239 H 0.63699 0.05977 0.5603 0.0
H240 H 0.63794 0.96062 0.45095 0.0
H241 H 0.68199 0.92149 0.42113 0.0
H242 H 0.81271 0.91922 0.44933 0.0
H243 H 0.85612 0.95748 0.4965 0.0
H244 H 0.85542 0.06044 0.59854 0.0
H245 H 0.81148 0.09827 0.63074 0.0
H246 H 0.7964 0.94032 0.64587 0.0
H247 H 0.69299 0.93144 0.61783 0.0
H248 H 0.80306 0.08057 0.42997 0.0
H249 H 0.69909 0.08501 0.41192 0.0
C250 C 0.0643 0.78766 0.58439 0.0
C251 C 0.07541 0.8177 0.60208 0.0
C252 C 0.05583 0.84007 0.58189 0.0
C253 C 0.03391 0.82252 0.55323 0.0
N254 N 0.03808 0.79022 0.55414 0.0
Co255 Co 0.01158 0.75591 0.51759 0.0
N256 N 0.98463 0.789 0.48515 0.0
C257 C 0.98847 0.82142 0.48976 0.0
C258 C 0.96617 0.83796 0.46336 0.0
C259 C 0.94666 0.81476 0.44083 0.0
C260 C 0.9582 0.78528 0.45496 0.0
N261 N 0.98443 0.72168 0.48184 0.0
C262 C 0.95728 0.72439 0.45314 0.0
C263 C 0.94476 0.69444 0.43747 0.0
C264 C 0.96439 0.67194 0.45743 0.0
C265 C 0.98767 0.68938 0.48408 0.0
N266 N 0.03919 0.72291 0.54931 0.0
C267 C 0.03648 0.69047 0.54296 0.0
C268 C 0.05982 0.67401 0.56782 0.0
C269 C 0.07891 0.69732 0.59101 0.0
C270 C 0.06602 0.72674 0.57892 0.0
N271 N 0.9806 0.75587 0.56317 0.0
C272 C 0.93266 0.75565 0.62243 0.0
C273 C 0.94753 0.72706 0.60907 0.0
C274 C 0.97119 0.72771 0.57971 0.0
C275 C 0.94311 0.7844 0.60663 0.0
C276 C 0.96687 0.78399 0.57754 0.0
N277 N 0.04249 0.75586 0.47183 0.0
C278 C 0.07454 0.72721 0.42045 0.0
C279 C 0.08848 0.756 0.40974 0.0
C280 C 0.0784 0.78471 0.43014 0.0
C281 C 0.05566 0.78411 0.4606 0.0
C282 C 0.05187 0.72767 0.4513 0.0
H283 H 0.0494 0.80688 0.47498 0.0
H284 H 0.04241 0.70487 0.45817 0.0
H285 H 0.98128 0.70506 0.5705 0.0
H286 H 0.97332 0.80675 0.56654 0.0
C287 C 0.01112 0.83568 0.52229 0.0
C288 C 0.08062 0.75763 0.59564 0.0
C289 C 0.94201 0.75468 0.44075 0.0
C290 C 0.01219 0.67627 0.51265 0.0
H291 H 0.09608 0.82294 0.62626 0.0
H292 H 0.05799 0.86606 0.58647 0.0
H293 H 0.96366 0.86384 0.4619 0.0
H294 H 0.92572 0.81909 0.41759 0.0
H295 H 0.92335 0.68946 0.41451 0.0
H296 H 0.96163 0.64597 0.45368 0.0
H297 H 0.06291 0.64814 0.56845 0.0
H298 H 0.10016 0.69321 0.61382 0.0
H299 H 0.94099 0.7042 0.62114 0.0
H300 H 0.93241 0.80724 0.61577 0.0
H301 H 0.08092 0.70433 0.40499 0.0
H302 H 0.08854 0.8077 0.42335 0.0
C303 C 0.30071 0.96227 0.59772 0.0
C304 C 0.33074 0.95239 0.61633 0.0
C305 C 0.3532 0.97196 0.60158 0.0
C306 C 0.33575 0.99276 0.57493 0.0
N307 N 0.30347 0.98769 0.57169 0.0
Co308 Co 0.26976 0.01341 0.53635 0.0
N309 N 0.30291 0.04046 0.51152 0.0
C310 C 0.33533 0.03694 0.51893 0.0
C311 C 0.35233 0.05822 0.49741 0.0
C312 C 0.32943 0.07642 0.47475 0.0
C313 C 0.29959 0.06539 0.48392 0.0
N314 N 0.2359 0.04002 0.50267 0.0
C315 C 0.23857 0.06559 0.47694 0.0
C316 C 0.20842 0.07782 0.46255 0.0
C317 C 0.18603 0.05948 0.47939 0.0
C318 C 0.20358 0.03725 0.50336 0.0
N319 N 0.23652 0.98534 0.55936 0.0
C320 C 0.2041 0.98744 0.54964 0.0
C321 C 0.18708 0.96457 0.56832 0.0
C322 C 0.20995 0.94645 0.59102 0.0
C323 C 0.23981 0.95935 0.58503 0.0
N324 N 0.26921 0.0448 0.5875 0.0
C325 C 0.26546 0.09753 0.64766 0.0
C326 C 0.23861 0.07781 0.63523 0.0
C327 C 0.24101 0.0516 0.60533 0.0
C328 C 0.29486 0.08922 0.63275 0.0
C329 C 0.29634 0.06242 0.60343 0.0
N330 N 0.27032 0.9823 0.48512 0.0
C331 C 0.24136 0.94992 0.42554 0.0
C332 C 0.26972 0.93402 0.41714 0.0
C333 C 0.29864 0.94346 0.44203 0.0
C334 C 0.29845 0.96775 0.47546 0.0
C335 C 0.24222 0.9739 0.45932 0.0
H336 H 0.32118 0.97377 0.49365 0.0
H337 H 0.21966 0.9846 0.46472 0.0
H338 H 0.2194 0.03806 0.59599 0.0
H339 H 0.31941 0.05722 0.59298 0.0
C340 C 0.34894 0.01521 0.5492 0.0
C341 C 0.27042 0.94603 0.6049 0.0
C342 C 0.26888 0.07958 0.46564 0.0
C343 C 0.19041 0.01228 0.52475 0.0
H344 H 0.33587 0.93271 0.63779 0.0
H345 H 0.37923 0.9706 0.60854 0.0
H346 H 0.37832 0.06064 0.49872 0.0
H347 H 0.33415 0.09586 0.45413 0.0
H348 H 0.20311 0.09799 0.44203 0.0
H349 H 0.16 0.06193 0.47448 0.0
H350 H 0.16109 0.9616 0.56601 0.0
H351 H 0.20519 0.92611 0.61007 0.0
H352 H 0.21546 0.0836 0.64671 0.0
H353 H 0.31627 0.10394 0.64246 0.0
H354 H 0.21827 0.94287 0.40754 0.0
H355 H 0.32115 0.93163 0.4364 0.0
C356 C 0.56291 0.79931 0.09271 0.0
C357 C 0.57554 0.82829 0.11208 0.0
C358 C 0.5584 0.85221 0.09138 0.0
C359 C 0.53638 0.83652 0.06069 0.0
N360 N 0.53798 0.804 0.06105 0.0
Co361 Co 0.51197 0.77191 0.01983 0.0
N362 N 0.48958 0.80699 0.98572 0.0
C363 C 0.49457 0.83913 0.993 0.0
C364 C 0.47451 0.85735 0.96567 0.0
C365 C 0.45514 0.83557 0.93986 0.0
C366 C 0.46455 0.80525 0.95305 0.0
N367 N 0.48603 0.73972 0.97861 0.0
C368 C 0.46162 0.74441 0.94627 0.0
C369 C 0.44913 0.71537 0.92678 0.0
C370 C 0.46582 0.69146 0.94805 0.0
C371 C 0.48746 0.70716 0.97919 0.0
N372 N 0.53435 0.73677 0.05392 0.0
C373 C 0.52926 0.7046 0.04686 0.0
C374 C 0.54932 0.68641 0.0742 0.0
C375 C 0.56883 0.7082 0.09972 0.0
C376 C 0.55951 0.73853 0.08637 0.0
N377 N 0.47657 0.77303 0.05913 0.0
C378 C 0.42035 0.77408 0.10334 0.0
C379 C 0.43357 0.74503 0.08901 0.0
C380 C 0.46162 0.74502 0.0678 0.0
C381 C 0.43661 0.80266 0.09735 0.0
C382 C 0.46452 0.80161 0.07521 0.0
N383 N 0.54709 0.77068 0.98019 0.0
C384 C 0.58229 0.73975 0.93595 0.0
C385 C 0.59752 0.76769 0.92505 0.0
C386 C 0.58744 0.79728 0.94283 0.0
C387 C 0.56217 0.79825 0.96987 0.0
C388 C 0.55749 0.74176 0.96318 0.0
H389 H 0.55529 0.82152 0.98212 0.0
H390 H 0.54729 0.71944 0.97021 0.0
H391 H 0.47019 0.72199 0.05771 0.0
H392 H 0.47544 0.82421 0.07049 0.0
C393 C 0.51619 0.85145 0.02828 0.0
C394 C 0.57665 0.76807 0.10361 0.0
C395 C 0.44794 0.77567 0.93504 0.0
C396 C 0.50758 0.69214 0.01166 0.0
H397 H 0.59571 0.83172 0.13755 0.0
H398 H 0.56244 0.87796 0.09677 0.0
H399 H 0.47329 0.8834 0.96565 0.0
H400 H 0.43572 0.8413 0.91495 0.0
H401 H 0.42931 0.71183 0.90082 0.0
H402 H 0.46182 0.66571 0.94257 0.0
H403 H 0.55051 0.66037 0.07433 0.0
H404 H 0.58839 0.70242 0.1244 0.0
H405 H 0.42197 0.72228 0.09363 0.0
H406 H 0.42724 0.82573 0.1083 0.0
H407 H 0.58978 0.71618 0.9239 0.0
H408 H 0.59868 0.81958 0.93546 0.0
C409 C 0.21703 0.55514 0.09914 0.0
C410 C 0.18686 0.56444 0.11022 0.0
C411 C 0.16465 0.54816 0.08078 0.0
C412 C 0.18258 0.53001 0.05358 0.0
N413 N 0.21486 0.53333 0.0643 0.0
Co414 Co 0.24994 0.5128 0.03279 0.0
N415 N 0.21748 0.49064 0.98765 0.0
C416 C 0.18492 0.49293 0.98473 0.0
C417 C 0.16914 0.47351 0.95126 0.0
C418 C 0.19307 0.45737 0.93222 0.0
C419 C 0.22205 0.46804 0.9553 0.0
N420 N 0.28505 0.49243 1.00115 0.0
C421 C 0.28285 0.47015 0.96691 0.0
C422 C 0.31303 0.4615 0.95503 0.0
C423 C 0.33523 0.47859 0.9835 0.0
C424 C 0.31735 0.49657 0.01092 0.0
N425 N 0.28245 0.53459 0.0782 0.0
C426 C 0.31504 0.53232 0.08098 0.0
C427 C 0.33083 0.55032 0.11586 0.0
C428 C 0.30691 0.56538 0.13619 0.0
C429 C 0.27784 0.55559 0.11237 0.0
N430 N 0.24958 0.47424 0.07051 0.0
C431 C 0.2499 0.42078 0.12629 0.0
C432 C 0.2786 0.43522 0.11676 0.0
C433 C 0.27793 0.46135 0.08917 0.0
C434 C 0.22094 0.43325 0.106 0.0
C435 C 0.22129 0.45976 0.07879 0.0
N436 N 0.25047 0.55148 0.99505 0.0
C437 C 0.28042 0.59269 0.96209 0.0
C438 C 0.25224 0.60555 0.94027 0.0
C439 C 0.22296 0.59076 0.94719 0.0
C440 C 0.22262 0.56419 0.97435 0.0
C441 C 0.27904 0.56627 0.98888 0.0
H442 H 0.19946 0.55422 0.97803 0.0
H443 H 0.3016 0.55826 1.00437 0.0
H444 H 0.30082 0.4707 0.08331 0.0
H445 H 0.19835 0.46824 0.0648 0.0
C446 C 0.16993 0.51126 0.01626 0.0
C447 C 0.24692 0.56973 0.12024 0.0
C448 C 0.25309 0.45424 0.94773 0.0
C449 C 0.3301 0.51486 0.04865 0.0
H450 H 0.18161 0.58192 0.1361 0.0
H451 H 0.13859 0.55011 0.07858 0.0
H452 H 0.1433 0.47045 0.94292 0.0
H453 H 0.18966 0.43907 0.90539 0.0
H454 H 0.31836 0.44376 0.92954 0.0
H455 H 0.3613 0.47698 0.98528 0.0
H456 H 0.35666 0.55306 0.12455 0.0
H457 H 0.31048 0.58253 0.16435 0.0
H458 H 0.30182 0.4261 0.13013 0.0
H459 H 0.19795 0.42295 0.11168 0.0
H460 H 0.30381 0.60321 0.9589 0.0
H461 H 0.20027 0.59916 0.93105 0.0
C462 C 0.45258 0.27925 0.98195 0.0
C463 C 0.44048 0.30868 0.96849 0.0
C464 C 0.4605 0.33193 0.98999 0.0
C465 C 0.48362 0.31543 0.01515 0.0
N466 N 0.48004 0.283 0.01027 0.0
Co467 Co 0.50707 0.24992 0.04254 0.0
N468 N 0.53303 0.28418 0.08002 0.0
C469 C 0.52932 0.3165 0.07837 0.0
C470 C 0.55099 0.33405 0.10738 0.0
C471 C 0.56998 0.31168 0.12855 0.0
C472 C 0.55875 0.2816 0.11115 0.0
N473 N 0.53422 0.21687 0.07477 0.0
C474 C 0.56031 0.22064 0.10571 0.0
C475 C 0.57287 0.19116 0.11812 0.0
C476 C 0.55439 0.16791 0.09377 0.0
C477 C 0.53165 0.18444 0.06799 0.0
N478 N 0.48068 0.21579 1.00533 0.0
C479 C 0.48483 0.18351 1.00594 0.0
C480 C 0.46152 0.16611 0.97925 0.0
C481 C 0.44082 0.18859 0.96126 0.0
C482 C 0.45279 0.21849 0.97803 0.0
N483 N 0.53903 0.25051 0.99796 0.0
C484 C 0.58847 0.25148 0.94081 0.0
C485 C 0.57521 0.2224 0.95162 0.0
C486 C 0.55076 0.22246 0.97986 0.0
C487 C 0.57564 0.28004 0.95797 0.0
C488 C 0.55123 0.27903 0.98601 0.0
N489 N 0.47529 0.24922 0.08685 0.0
C490 C 0.43905 0.21974 0.12742 0.0
C491 C 0.42608 0.24843 0.14382 0.0
C492 C 0.43856 0.27749 0.13167 0.0
C493 C 0.46295 0.27735 0.10357 0.0
C494 C 0.46365 0.22067 0.09959 0.0
H495 H 0.47098 0.30033 0.09508 0.0
H496 H 0.47256 0.19798 0.08824 0.0
H497 H 0.54204 0.19944 0.98689 0.0
H498 H 0.54304 0.30173 0.99812 0.0
C499 C 0.50644 0.32967 0.0475 0.0
C500 C 0.43584 0.24865 0.96939 0.0
C501 C 0.57459 0.25149 0.12344 0.0
C502 C 0.50857 0.17033 0.03573 0.0
H503 H 0.41872 0.31291 0.94671 0.0
H504 H 0.45757 0.3578 0.98914 0.0
H505 H 0.55326 0.36005 0.11177 0.0
H506 H 0.59032 0.31697 0.15323 0.0
H507 H 0.59357 0.18698 0.14185 0.0
H508 H 0.55759 0.14205 0.09413 0.0
H509 H 0.45897 0.14013 0.9751 0.0
H510 H 0.41881 0.18357 0.93952 0.0
H511 H 0.5836 0.19956 0.93836 0.0
H512 H 0.58498 0.30328 0.95073 0.0
H513 H 0.43022 0.19662 0.13599 0.0
H514 H 0.42891 0.30038 0.14278 0.0
C515 C 0.73455 0.56147 0.08819 0.0
C516 C 0.70451 0.5744 0.09441 0.0
C517 C 0.68244 0.55905 0.06367 0.0
C518 C 0.70003 0.5376 0.04037 0.0
N519 N 0.73186 0.53793 0.05479 0.0
Co520 Co 0.76532 0.51123 0.0274 0.0
N521 N 0.73217 0.4826 0.99183 0.0
C522 C 0.70036 0.48899 0.98465 0.0
C523 C 0.68308 0.46545 0.95874 0.0
C524 C 0.70536 0.44278 0.94853 0.0
C525 C 0.73515 0.45379 0.96883 0.0
N526 N 0.79857 0.48462 0.99956 0.0
C527 C 0.79603 0.45575 0.97555 0.0
C528 C 0.82559 0.44663 0.96205 0.0
C529 C 0.84728 0.47056 0.97777 0.0
C530 C 0.82986 0.49295 0.99995 0.0
N531 N 0.79849 0.53993 0.063 0.0
C532 C 0.82993 0.54136 0.05647 0.0
C533 C 0.84725 0.56394 0.08409 0.0
C534 C 0.82532 0.57816 0.10925 0.0
C535 C 0.79565 0.56353 0.09549 0.0
N536 N 0.76709 0.48197 0.07532 0.0
C537 C 0.76941 0.43212 0.13275 0.0
C538 C 0.79796 0.4456 0.12186 0.0
C539 C 0.79627 0.47085 0.09342 0.0
C540 C 0.73977 0.44516 0.1167 0.0
C541 C 0.73913 0.47017 0.08802 0.0
N542 N 0.76384 0.54029 0.979 0.0
C543 C 0.76499 0.59418 0.95458 0.0
C544 C 0.76441 0.58219 0.91085 0.0
C545 C 0.76291 0.54889 0.90146 0.0
C546 C 0.76298 0.52829 0.93614 0.0
C547 C 0.76444 0.57292 0.988 0.0
H548 H 0.76243 0.50269 0.92815 0.0
H549 H 0.76454 0.58313 0.02106 0.0
H550 H 0.81857 0.48024 0.08449 0.0
H551 H 0.71595 0.47883 0.07454 0.0
C552 C 0.68721 0.51508 1.00728 0.0
C553 C 0.76506 0.57531 0.1109 0.0
C554 C 0.76581 0.43744 0.96225 0.0
C555 C 0.84265 0.51967 0.02619 0.0
H556 H 0.69918 0.5937 0.1178 0.0
H557 H 0.6566 0.56301 0.05897 0.0
H558 H 0.65723 0.46448 0.94926 0.0
H559 H 0.70034 0.42085 0.92799 0.0
H560 H 0.8308 0.42509 0.94252 0.0
H561 H 0.87288 0.47113 0.97438 0.0
H562 H 0.87281 0.56942 0.08581 0.0
H563 H 0.83038 0.59772 0.13404 0.0
H564 H 0.82126 0.43585 0.13377 0.0
H565 H 0.71724 0.43499 0.12448 0.0
H566 H 0.7653 0.61993 0.96282 0.0
H567 H 0.76196 0.53893 0.86777 0.0
C568 C 0.17464 0.27717 0.40403 0.0
C569 C 0.17467 0.24889 0.3764 0.0
C570 C 0.14768 0.28538 0.42639 0.0
C571 C 0.11961 0.26585 0.42144 0.0
H572 H 0.19619 0.29213 0.41018 0.0
H573 H 0.14915 0.3067 0.44871 0.0
S574 S 0.10718 0.19006 0.35109 0.0
N575 N 0.14401 0.20203 0.34402 0.0
N576 N 0.09337 0.21753 0.38541 0.0
C577 C 0.11892 0.2383 0.3923 0.0
C578 C 0.14644 0.2298 0.37002 0.0
C579 C 0.78327 0.14863 0.34656 0.0
C580 C 0.76774 0.17687 0.35998 0.0
C581 C 0.77622 0.11902 0.36326 0.0
C582 C 0.75374 0.11695 0.39424 0.0
H583 H 0.80178 0.1497 0.32438 0.0
H584 H 0.78938 0.09784 0.35323 0.0
S585 S 0.70656 0.1847 0.43889 0.0
N586 N 0.72844 0.20135 0.40422 0.0
N587 N 0.71566 0.14596 0.43685 0.0
C588 C 0.73723 0.14506 0.40649 0.0
C589 C 0.74422 0.17503 0.38912 0.0
C590 C 0.85078 0.76233 0.42079 0.0
C591 C 0.84501 0.76544 0.37483 0.0
C592 C 0.88205 0.75721 0.44156 0.0
C593 C 0.90868 0.75499 0.41715 0.0
H594 H 0.83106 0.76484 0.44106 0.0
H595 H 0.88562 0.75615 0.47714 0.0
S596 S 0.90693 0.7604 0.29632 0.0
N597 N 0.86878 0.76497 0.3056 0.0
N598 N 0.92752 0.75519 0.34486 0.0
C599 C 0.90327 0.75685 0.37117 0.0
C600 C 0.87141 0.76203 0.34993 0.0
C601 C 0.27237 0.84667 0.37749 0.0
C602 C 0.25306 0.84648 0.33683 0.0
C603 C 0.27991 0.87571 0.40197 0.0
C604 C 0.26805 0.90521 0.38648 0.0
H605 H 0.28011 0.82416 0.39149 0.0
H606 H 0.29318 0.87484 0.43449 0.0
S607 S 0.21975 0.91721 0.2792 0.0
N608 N 0.22466 0.87774 0.28008 0.0
N609 N 0.23898 0.93265 0.32595 0.0
C610 C 0.25054 0.90533 0.34441 0.0
C611 C 0.24295 0.87579 0.31957 0.0
C612 C 0.17143 0.76861 0.62146 0.0
C613 C 0.17582 0.77271 0.66792 0.0
C614 C 0.1408 0.76198 0.59844 0.0
C615 C 0.11343 0.75914 0.621 0.0
H616 H 0.1917 0.7717 0.60266 0.0
H617 H 0.13825 0.76033 0.56268 0.0
S618 S 0.11162 0.76627 0.74209 0.0
N619 N 0.15002 0.7722 0.73549 0.0
N620 N 0.09249 0.75958 0.69199 0.0
C621 C 0.11752 0.76179 0.66731 0.0
C622 C 0.14873 0.76852 0.69085 0.0
C623 C 0.25006 0.15869 0.73876 0.0
C624 C 0.24439 0.18682 0.71558 0.0
C625 C 0.2582 0.12977 0.71693 0.0
C626 C 0.26148 0.12854 0.67167 0.0
H627 H 0.24678 0.15874 0.77347 0.0
H628 H 0.26105 0.1081 0.73514 0.0
S629 S 0.25132 0.19593 0.59704 0.0
N630 N 0.24401 0.21205 0.64563 0.0
N631 N 0.25992 0.15766 0.60473 0.0
C632 C 0.25723 0.15675 0.64859 0.0
C633 C 0.24852 0.186 0.67058 0.0
C634 C 0.86538 0.23961 0.71269 0.0
C635 C 0.83641 0.25613 0.7014 0.0
C636 C 0.89331 0.2456 0.69239 0.0
C637 C 0.89339 0.26818 0.65958 0.0
H638 H 0.86607 0.22097 0.73622 0.0
H639 H 0.91481 0.23175 0.70163 0.0
S640 S 0.82338 0.31782 0.61832 0.0
N641 N 0.8094 0.29628 0.65604 0.0
N642 N 0.86165 0.30748 0.6174 0.0
C643 C 0.86474 0.28562 0.64905 0.0
C644 C 0.83631 0.27954 0.66995 0.0
C645 C 0.77298 0.8721 0.71917 0.0
C646 C 0.76261 0.84273 0.6972 0.0
C647 C 0.76489 0.90137 0.70035 0.0
C648 C 0.74638 0.90197 0.65894 0.0
H649 H 0.78861 0.87233 0.75005 0.0
H650 H 0.77451 0.92357 0.7172 0.0
S651 S 0.71255 0.83107 0.58952 0.0
N652 N 0.7319 0.81555 0.63358 0.0
N653 N 0.71695 0.87059 0.59749 0.0
C654 C 0.73454 0.87266 0.63783 0.0
C655 C 0.74271 0.84294 0.65714 0.0
C656 C 0.87834 0.78407 0.70959 0.0
C657 C 0.85104 0.76375 0.70056 0.0
C658 C 0.90526 0.78016 0.68584 0.0
C659 C 0.90594 0.75596 0.65164 0.0
H660 H 0.87818 0.8042 0.73375 0.0
H661 H 0.92525 0.79703 0.69329 0.0
S662 S 0.84069 0.69589 0.61595 0.0
N663 N 0.82673 0.71782 0.65643 0.0
N664 N 0.87694 0.71063 0.61119 0.0
C665 C 0.87934 0.73451 0.64373 0.0
C666 C 0.85201 0.73839 0.66827 0.0
C667 C 0.26232 0.85645 0.629 0.0
C668 C 0.26166 0.85655 0.67532 0.0
C669 C 0.26647 0.88502 0.60703 0.0
C670 C 0.27034 0.91537 0.63007 0.0
H671 H 0.25824 0.83406 0.60916 0.0
H672 H 0.26556 0.88348 0.57138 0.0
S673 S 0.27187 0.92973 0.75137 0.0
N674 N 0.2664 0.89029 0.74332 0.0
N675 N 0.27446 0.94365 0.70221 0.0
C676 C 0.27106 0.91586 0.67643 0.0
C677 C 0.26679 0.88666 0.69893 0.0
C678 C 0.1543 0.27864 0.68288 0.0
C679 C 0.15607 0.26554 0.72461 0.0
C680 C 0.12446 0.28324 0.65769 0.0
C681 C 0.09515 0.27478 0.67311 0.0
H682 H 0.17631 0.28382 0.66863 0.0
H683 H 0.12441 0.29207 0.62498 0.0
S684 S 0.08633 0.24076 0.78073 0.0
N685 N 0.12582 0.24519 0.78081 0.0
N686 N 0.06963 0.25396 0.73345 0.0
C687 C 0.09644 0.26293 0.7155 0.0
C688 C 0.12691 0.2583 0.74126 0.0
C689 C 0.74306 0.16977 0.63907 0.0
C690 C 0.75292 0.17048 0.685 0.0
C691 C 0.7395 0.14048 0.61273 0.0
C692 C 0.74613 0.11035 0.63079 0.0
H693 H 0.73943 0.19227 0.62295 0.0
H694 H 0.73281 0.14152 0.57753 0.0
S695 S 0.7722 0.09823 0.74893 0.0
N696 N 0.76861 0.13781 0.74712 0.0
N697 N 0.76211 0.08315 0.69797 0.0
C698 C 0.75509 0.11059 0.67676 0.0
C699 C 0.75844 0.14042 0.70366 0.0
C700 C 0.87303 0.27486 0.37413 0.0
C701 C 0.84538 0.26706 0.39419 0.0
C702 C 0.90341 0.27948 0.39929 0.0
C703 C 0.90708 0.27658 0.44531 0.0
H704 H 0.87159 0.27543 0.33855 0.0
H705 H 0.92441 0.28397 0.38247 0.0
S706 S 0.84202 0.25982 0.51429 0.0
N707 N 0.82348 0.25931 0.46349 0.0
N708 N 0.88044 0.26776 0.51021 0.0
C709 C 0.87946 0.27052 0.46596 0.0
C710 C 0.84864 0.26591 0.44056 0.0
C711 C 0.75807 0.84742 0.42671 0.0
C712 C 0.75586 0.84458 0.37999 0.0
C713 C 0.75412 0.87722 0.45031 0.0
C714 C 0.74758 0.90592 0.42859 0.0
H715 H 0.76427 0.82647 0.44545 0.0
H716 H 0.75718 0.87798 0.48605 0.0
S717 S 0.73778 0.9124 0.30711 0.0
N718 N 0.74544 0.87374 0.31322 0.0
N719 N 0.73769 0.92937 0.3574 0.0
C720 C 0.74391 0.90339 0.38201 0.0
C721 C 0.74801 0.87295 0.35785 0.0
C722 C 0.13836 0.7848 0.3217 0.0
C723 C 0.16608 0.76533 0.32607 0.0
C724 C 0.1127 0.78045 0.3471 0.0
C725 C 0.11377 0.75665 0.3784 0.0
H726 H 0.13729 0.80471 0.30012 0.0
H727 H 0.09234 0.7967 0.34334 0.0
S728 S 0.18077 0.69873 0.40144 0.0
N729 N 0.19265 0.72059 0.36257 0.0
N730 N 0.14482 0.71255 0.41089 0.0
C731 C 0.14076 0.73599 0.38151 0.0
C732 C 0.1668 0.74033 0.35528 0.0
C733 C 0.27194 0.16777 0.4319 0.0
C734 C 0.26006 0.16602 0.38658 0.0
C735 C 0.27615 0.13984 0.45658 0.0
C736 C 0.26817 0.10875 0.43737 0.0
H737 H 0.27663 0.19116 0.44899 0.0
H738 H 0.28438 0.14275 0.49151 0.0
S739 S 0.2364 0.09041 0.32016 0.0
N740 N 0.24083 0.13008 0.32375 0.0
N741 N 0.24858 0.07801 0.36975 0.0
C742 C 0.25712 0.10655 0.39191 0.0
C743 C 0.25307 0.13496 0.36672 0.0
C744 C 0.68122 0.77241 0.88554 0.0
C745 C 0.67774 0.75212 0.84675 0.0
C746 C 0.65472 0.77895 0.90965 0.0
C747 C 0.62398 0.76525 0.89582 0.0
H748 H 0.70487 0.78179 0.89857 0.0
H749 H 0.65871 0.79334 0.94051 0.0
S750 S 0.60172 0.71387 0.7935 0.0
N751 N 0.64082 0.72081 0.79369 0.0
N752 N 0.59116 0.73327 0.83835 0.0
C753 C 0.61998 0.74657 0.85566 0.0
C754 C 0.64682 0.73995 0.83133 0.0
C755 C 0.28362 0.6615 0.8574 0.0
C756 C 0.26378 0.68908 0.85861 0.0
C757 C 0.27892 0.6346 0.88242 0.0
C758 C 0.25414 0.63361 0.91042 0.0
H759 H 0.30399 0.66126 0.83819 0.0
H760 H 0.29547 0.61458 0.88042 0.0
S761 S 0.19483 0.69931 0.92525 0.0
N762 N 0.21779 0.7133 0.88969 0.0
N763 N 0.20872 0.66304 0.93641 0.0
C764 C 0.23325 0.66055 0.91063 0.0
C765 C 0.23814 0.68809 0.88501 0.0
C766 C 0.36026 0.25156 0.88661 0.0
C767 C 0.33628 0.26148 0.91356 0.0
C768 C 0.39217 0.24554 0.90491 0.0
C769 C 0.40107 0.24895 0.95076 0.0
H770 H 0.35485 0.25045 0.85102 0.0
H771 H 0.41035 0.23974 0.88299 0.0
S772 S 0.3469 0.27048 0.03603 0.0
N773 N 0.3233 0.27148 0.98885 0.0
N774 N 0.38308 0.2602 0.02282 0.0
C775 C 0.377 0.2569 0.97813 0.0
C776 C 0.34465 0.2631 0.95966 0.0
C777 C 0.7598 0.3465 0.93017 0.0
C778 C 0.75652 0.34466 0.8834 0.0
C779 C 0.76416 0.37621 0.95523 0.0
C780 C 0.76552 0.40568 0.93493 0.0
H781 H 0.75751 0.32475 0.94762 0.0
H782 H 0.7653 0.37621 0.99083 0.0
S783 S 0.75938 0.415 0.81415 0.0
N784 N 0.75595 0.37564 0.81827 0.0
N785 N 0.76434 0.43114 0.86521 0.0
C786 C 0.76356 0.40427 0.88843 0.0
C787 C 0.75912 0.37395 0.86281 0.0
C788 C 0.66586 0.25808 0.14931 0.0
C789 C 0.67028 0.26554 0.19525 0.0
C790 C 0.63499 0.25182 0.12676 0.0
C791 C 0.60734 0.25286 0.14923 0.0
H792 H 0.68638 0.2582 0.13038 0.0
H793 H 0.63257 0.24747 0.09122 0.0
S794 S 0.60545 0.26969 0.26933 0.0
N795 N 0.6442 0.27226 0.26247 0.0
N796 N 0.58617 0.26047 0.21991 0.0
C797 C 0.6114 0.25892 0.19526 0.0
C798 C 0.64288 0.26519 0.21834 0.0
C799 C 0.76362 0.66646 0.14287 0.0
C800 C 0.75468 0.66824 0.18628 0.0
C801 C 0.76841 0.63661 0.11979 0.0
C802 C 0.76413 0.6069 0.13867 0.0
H803 H 0.76572 0.68845 0.12589 0.0
H804 H 0.77426 0.63675 0.08611 0.0
S805 S 0.74085 0.59757 0.25109 0.0
N806 N 0.74217 0.63709 0.24713 0.0
N807 N 0.7508 0.58131 0.20383 0.0
C808 C 0.7559 0.60825 0.1823 0.0
C809 C 0.75132 0.63872 0.20602 0.0
C810 C 0.33226 0.75645 0.11364 0.0
C811 C 0.32997 0.76179 0.15922 0.0
C812 C 0.36117 0.76211 0.09561 0.0
C813 C 0.38891 0.77382 0.12221 0.0
H814 H 0.31191 0.74632 0.09198 0.0
H815 H 0.36219 0.75614 0.06078 0.0
S816 S 0.39542 0.79425 0.24255 0.0
N817 N 0.3578 0.78122 0.23005 0.0
N818 N 0.41195 0.79257 0.19572 0.0
C819 C 0.38655 0.78125 0.1672 0.0
C820 C 0.3571 0.77517 0.18578 0.0
C821 C 0.23619 0.33643 0.16937 0.0
C822 C 0.2572 0.33632 0.20903 0.0
C823 C 0.23268 0.36411 0.14395 0.0
C824 C 0.2506 0.39278 0.15644 0.0
H825 H 0.22368 0.3144 0.15662 0.0
H826 H 0.21711 0.36241 0.11302 0.0
S827 S 0.30723 0.40576 0.25905 0.0
N828 N 0.2948 0.36808 0.26045 0.0
N829 N 0.28834 0.41958 0.2135 0.0
C830 C 0.27062 0.39326 0.19701 0.0
C831 C 0.27391 0.36527 0.22291 0.0
C832 C 0.34263 0.23311 0.17957 0.0
C833 C 0.34216 0.25424 0.21717 0.0
C834 C 0.37048 0.23 0.15735 0.0
C835 C 0.39867 0.24829 0.17157 0.0
H836 H 0.32076 0.22039 0.16576 0.0
H837 H 0.36927 0.2146 0.12735 0.0
S838 S 0.41041 0.30488 0.27062 0.0
N839 N 0.37271 0.29207 0.26925 0.0
N840 N 0.425 0.28617 0.22799 0.0
C841 C 0.39889 0.26821 0.21048 0.0
C842 C 0.37066 0.27121 0.2331 0.0
C843 C 0.76195 0.3735 0.2214 0.0
C844 C 0.76004 0.34373 0.19683 0.0
C845 C 0.76663 0.40233 0.20098 0.0
C846 C 0.76995 0.40193 0.15571 0.0
H847 H 0.75777 0.37467 0.25584 0.0
H848 H 0.76628 0.42508 0.22014 0.0
S849 S 0.76932 0.33013 0.07798 0.0
N850 N 0.76369 0.31545 0.12573 0.0
N851 N 0.77301 0.36961 0.08759 0.0
C852 C 0.76991 0.37223 0.13147 0.0
C853 C 0.76485 0.34305 0.15204 0.0
C854 C 0.64457 0.76049 0.19735 0.0
C855 C 0.6718 0.75437 0.17461 0.0
C856 C 0.61395 0.76607 0.17443 0.0
C857 C 0.60963 0.76593 0.12808 0.0
H858 H 0.64662 0.7594 0.23291 0.0
H859 H 0.59333 0.76945 0.1929 0.0
S860 S 0.67327 0.75444 0.05322 0.0
N861 N 0.69254 0.75108 0.10307 0.0
N862 N 0.63509 0.76139 0.06044 0.0
C863 C 0.63676 0.76136 0.10514 0.0
C864 C 0.66782 0.75566 0.12828 0.0
C865 C 0.25641 0.64443 0.19755 0.0
C866 C 0.25645 0.66904 0.16774 0.0
C867 C 0.25167 0.61211 0.18219 0.0
C868 C 0.24671 0.60379 0.13674 0.0
H869 H 0.26163 0.65001 0.23272 0.0
H870 H 0.25322 0.59345 0.20572 0.0
S871 S 0.24142 0.65935 0.04569 0.0
N872 N 0.2484 0.6831 0.09102 0.0
N873 N 0.2399 0.62228 0.06237 0.0
C874 C 0.24499 0.62823 0.10683 0.0
C875 C 0.24978 0.66096 0.12231 0.0
C876 C 0.35652 0.77532 0.91081 0.0
C877 C 0.35141 0.76999 0.86452 0.0
C878 C 0.38781 0.7788 0.93313 0.0
C879 C 0.41513 0.777 0.91001 0.0
H880 H 0.33617 0.77539 0.93007 0.0
H881 H 0.39074 0.78152 0.96886 0.0
S882 S 0.41524 0.76512 0.78894 0.0
N883 N 0.37651 0.76452 0.7964 0.0
N884 N 0.43535 0.77118 0.83854 0.0
C885 C 0.41046 0.7732 0.86375 0.0
C886 C 0.37857 0.76973 0.84094 0.0
C887 C 0.26141 0.36379 0.94456 0.0
C888 C 0.26336 0.35575 0.89957 0.0
C889 C 0.25706 0.39575 0.95961 0.0
C890 C 0.25461 0.42056 0.93013 0.0
H891 H 0.26368 0.34527 0.96832 0.0
H892 H 0.25628 0.40125 0.99461 0.0
S893 S 0.25828 0.41253 0.8096 0.0
N894 N 0.26248 0.3753 0.8258 0.0
N895 N 0.25412 0.43558 0.85451 0.0
C896 C 0.25594 0.41298 0.88514 0.0
C897 C 0.26032 0.38043 0.86971 0.0
C898 C 0.64245 0.27935 0.85666 0.0
C899 C 0.67084 0.26131 0.86531 0.0
C900 C 0.61547 0.27494 0.87968 0.0
C901 C 0.61582 0.2525 0.91272 0.0
H902 H 0.64168 0.29816 0.83338 0.0
H903 H 0.59452 0.29002 0.87251 0.0
S904 S 0.68454 0.19914 0.94759 0.0
N905 N 0.69761 0.21977 0.90833 0.0
N906 N 0.64727 0.21156 0.95207 0.0
C907 C 0.64375 0.23344 0.92046 0.0
C908 C 0.67116 0.23788 0.89675 0.0
C909 C 0.72871 0.63526 0.82285 0.0
C910 C 0.75134 0.66075 0.82659 0.0
C911 C 0.7346 0.60775 0.84698 0.0
C912 C 0.76314 0.60518 0.87573 0.0
H913 H 0.70533 0.63774 0.80384 0.0
H914 H 0.71559 0.5898 0.84612 0.0
S915 S 0.83188 0.66288 0.89221 0.0
N916 N 0.80488 0.67985 0.85705 0.0
N917 N 0.81583 0.62809 0.90251 0.0
C918 C 0.78715 0.629 0.87651 0.0
C919 C 0.7813 0.65685 0.85176 0.0
loop_
_geom_bond_atom_site_label_1
_geom_bond_atom_site_label_2
_geom_bond_distance
_geom_bond_site_symmetry_2
_ccdc_geom_bond_type
H0 C6 0.930 . S
H1 C9 0.931 . S
H2 C11 0.931 . S
H3 C13 0.930 . S
H4 C15 0.930 . S
H5 C17 0.931 . S
C6 H0 0.930 . S
C6 C7 1.380 . S
C6 C8 1.394 . S
C7 C6 1.380 . S
C7 C11 1.382 . S
C8 C6 1.394 . S
C8 C9 1.400 . S
C9 H1 0.931 . S
C9 C8 1.400 . S
C9 C10 1.375 . S
C10 C9 1.375 . S
C10 C11 1.415 . S
C10 C12 1.501 . S
C11 H2 0.931 . S
C11 C7 1.382 . S
C11 C10 1.415 . S
C12 C10 1.501 . S
C12 C13 1.384 . S
C12 C17 1.408 . S
C13 H3 0.930 . S
C13 C12 1.384 . S
C13 C14 1.389 . S
C14 C13 1.389 . S
C14 C15 1.405 . S
C15 H4 0.930 . S
C15 C14 1.405 . S
C15 C16 1.364 . S
C16 C15 1.364 . S
C16 C17 1.400 . S
C17 H5 0.931 . S
C17 C12 1.408 . S
C17 C16 1.400 . S
H18 C24 0.930 . S
H19 C27 0.931 . S
H20 C29 0.931 . S
H21 C31 0.930 . S
H22 C33 0.930 . S
H23 C35 0.931 . S
C24 H18 0.930 . S
C24 C25 1.380 . S
C24 C26 1.394 . S
C25 C24 1.380 . S
C25 C29 1.382 . S
C26 C24 1.394 . S
C26 C27 1.400 . S
C27 H19 0.931 . S
C27 C26 1.400 . S
C27 C28 1.375 . S
C28 C27 1.375 . S
C28 C29 1.415 . S
C28 C30 1.501 . S
C29 H20 0.931 . S
C29 C25 1.382 . S
C29 C28 1.415 . S
C30 C28 1.501 . S
C30 C31 1.384 . S
C30 C35 1.408 . S
C31 H21 0.930 . S
C31 C30 1.384 . S
C31 C32 1.389 . S
C32 C31 1.389 . S
C32 C33 1.405 . S
C33 H22 0.930 . S
C33 C32 1.405 . S
C33 C34 1.364 . S
C34 C33 1.364 . S
C34 C35 1.400 . S
C35 H23 0.931 . S
C35 C30 1.408 . S
C35 C34 1.400 . S
H36 C42 0.930 . S
H37 C45 0.931 . S
H38 C47 0.931 . S
H39 C49 0.930 . S
H40 C51 0.930 . S
H41 C53 0.931 . S
C42 H36 0.930 . S
C42 C43 1.380 . S
C42 C44 1.394 . S
C43 C42 1.380 . S
C43 C47 1.382 . S
C44 C42 1.394 . S
C44 C45 1.400 . S
C45 H37 0.931 . S
C45 C44 1.400 . S
C45 C46 1.375 . S
C46 C45 1.375 . S
C46 C47 1.415 . S
C46 C48 1.501 . S
C47 H38 0.931 . S
C47 C43 1.382 . S
C47 C46 1.415 . S
C48 C46 1.501 . S
C48 C49 1.384 . S
C48 C53 1.408 . S
C49 H39 0.930 . S
C49 C48 1.384 . S
C49 C50 1.389 . S
C50 C49 1.389 . S
C50 C51 1.405 . S
C51 H40 0.930 . S
C51 C50 1.405 . S
C51 C52 1.364 . S
C52 C51 1.364 . S
C52 C53 1.400 . S
C53 H41 0.931 . S
C53 C48 1.408 . S
C53 C52 1.400 . S
H54 C60 0.930 . S
H55 C63 0.931 . S
H56 C65 0.931 . S
H57 C67 0.930 . S
H58 C69 0.930 . S
H59 C71 0.931 . S
C60 H54 0.930 . S
C60 C61 1.380 . S
C60 C62 1.394 . S
C61 C60 1.380 . S
C61 C65 1.382 . S
C62 C60 1.394 . S
C62 C63 1.400 . S
C63 H55 0.931 . S
C63 C62 1.400 . S
C63 C64 1.375 . S
C64 C63 1.375 . S
C64 C65 1.415 . S
C64 C66 1.501 . S
C65 H56 0.931 . S
C65 C61 1.382 . S
C65 C64 1.415 . S
C66 C64 1.501 . S
C66 C67 1.384 . S
C66 C71 1.408 . S
C67 H57 0.930 . S
C67 C66 1.384 . S
C67 C68 1.389 . S
C68 C67 1.389 . S
C68 C69 1.405 . S
C69 H58 0.930 . S
C69 C68 1.405 . S
C69 C70 1.364 . S
C70 C69 1.364 . S
C70 C71 1.400 . S
C71 H59 0.931 . S
C71 C66 1.408 . S
C71 C70 1.400 . S
H72 C78 0.930 . S
H73 C81 0.931 . S
H74 C83 0.931 . S
H75 C85 0.930 . S
H76 C87 0.930 . S
H77 C89 0.931 . S
C78 H72 0.930 . S
C78 C79 1.380 . S
C78 C80 1.394 . S
C79 C78 1.380 . S
C79 C83 1.382 . S
C80 C78 1.394 . S
C80 C81 1.400 . S
C81 H73 0.931 . S
C81 C80 1.400 . S
C81 C82 1.375 . S
C82 C81 1.375 . S
C82 C83 1.415 . S
C82 C84 1.501 . S
C83 H74 0.931 . S
C83 C79 1.382 . S
C83 C82 1.415 . S
C84 C82 1.501 . S
C84 C85 1.384 . S
C84 C89 1.408 . S
C85 H75 0.930 . S
C85 C84 1.384 . S
C85 C86 1.389 . S
C86 C85 1.389 . S
C86 C87 1.405 . S
C87 H76 0.930 . S
C87 C86 1.405 . S
C87 C88 1.364 . S
C88 C87 1.364 . S
C88 C89 1.400 . S
C89 H77 0.931 . S
C89 C84 1.408 . S
C89 C88 1.400 . S
H90 C96 0.930 . S
H91 C99 0.931 . S
H92 C101 0.931 . S
H93 C103 0.930 . S
H94 C105 0.930 . S
H95 C107 0.931 . S
C96 H90 0.930 . S
C96 C97 1.380 . S
C96 C98 1.394 . S
C97 C96 1.380 . S
C97 C101 1.382 . S
C98 C96 1.394 . S
C98 C99 1.400 . S
C99 H91 0.931 . S
C99 C98 1.400 . S
C99 C100 1.375 . S
C100 C99 1.375 . S
C100 C101 1.415 . S
C100 C102 1.501 . S
C101 H92 0.931 . S
C101 C97 1.382 . S
C101 C100 1.415 . S
C102 C100 1.501 . S
C102 C103 1.384 . S
C102 C107 1.408 . S
C103 H93 0.930 . S
C103 C102 1.384 . S
C103 C104 1.389 . S
C104 C103 1.389 . S
C104 C105 1.405 . S
C105 H94 0.930 . S
C105 C104 1.405 . S
C105 C106 1.364 . S
C106 C105 1.364 . S
C106 C107 1.400 . S
C107 H95 0.931 . S
C107 C102 1.408 . S
C107 C106 1.400 . S
H108 C114 0.930 . S
H109 C117 0.931 . S
H110 C119 0.931 . S
H111 C121 0.930 . S
H112 C123 0.930 . S
H113 C125 0.931 . S
C114 H108 0.930 . S
C114 C115 1.380 . S
C114 C116 1.394 . S
C115 C114 1.380 . S
C115 C119 1.382 . S
C116 C114 1.394 . S
C116 C117 1.400 . S
C117 H109 0.931 . S
C117 C116 1.400 . S
C117 C118 1.375 . S
C118 C117 1.375 . S
C118 C119 1.415 . S
C118 C120 1.501 . S
C119 H110 0.931 . S
C119 C115 1.382 . S
C119 C118 1.415 . S
C120 C118 1.501 . S
C120 C121 1.384 . S
C120 C125 1.408 . S
C121 H111 0.930 . S
C121 C120 1.384 . S
C121 C122 1.389 . S
C122 C121 1.389 . S
C122 C123 1.405 . S
C123 H112 0.930 . S
C123 C122 1.405 . S
C123 C124 1.364 . S
C124 C123 1.364 . S
C124 C125 1.400 . S
C125 H113 0.931 . S
C125 C120 1.408 . S
C125 C124 1.400 . S
H126 C132 0.930 . S
H127 C135 0.931 . S
H128 C137 0.931 . S
H129 C139 0.930 . S
H130 C141 0.930 . S
H131 C143 0.931 . S
C132 H126 0.930 . S
C132 C133 1.380 . S
C132 C134 1.394 . S
C133 C132 1.380 . S
C133 C137 1.382 . S
C134 C132 1.394 . S
C134 C135 1.400 . S
C135 H127 0.931 . S
C135 C134 1.400 . S
C135 C136 1.375 . S
C136 C135 1.375 . S
C136 C137 1.415 . S
C136 C138 1.501 . S
C137 H128 0.931 . S
C137 C133 1.382 . S
C137 C136 1.415 . S
C138 C136 1.501 . S
C138 C139 1.384 . S
C138 C143 1.408 . S
C139 H129 0.930 . S
C139 C138 1.384 . S
C139 C140 1.389 . S
C140 C139 1.389 . S
C140 C141 1.405 . S
C141 H130 0.930 . S
C141 C140 1.405 . S
C141 C142 1.364 . S
C142 C141 1.364 . S
C142 C143 1.400 . S
C143 H131 0.931 . S
C143 C138 1.408 . S
C143 C142 1.400 . S
C144 C145 1.443 . S
C144 N148 1.376 . S
C144 C182 1.389 . S
C145 C144 1.443 . S
C145 C146 1.340 . S
C145 H185 0.951 . S
C146 C145 1.340 . S
C146 C147 1.439 . S
C146 H186 0.950 . S
C147 C146 1.439 . S
C147 N148 1.374 . S
C147 C181 1.395 . S
N148 C144 1.376 . S
N148 C147 1.374 . S
N148 Co149 2.008 . S
Co149 N148 2.008 . S
Co149 N150 1.995 1_455 S
Co149 N155 2.008 1_455 S
Co149 N160 1.995 . S
Co149 N165 2.282 1_455 S
Co149 N171 2.282 . S
N150 Co149 1.995 1_655 S
N150 C151 1.376 . S
N150 C154 1.383 . S
C151 N150 1.376 . S
C151 C152 1.446 . S
C151 C181 1.391 1_655 S
C152 C151 1.446 . S
C152 C153 1.339 . S
C152 H187 0.949 . S
C153 C152 1.339 . S
C153 C154 1.439 . S
C153 H188 0.950 . S
C154 N150 1.383 . S
C154 C153 1.439 . S
C154 C183 1.392 . S
N155 Co149 2.008 1_655 S
N155 C156 1.376 . S
N155 C159 1.374 . S
C156 N155 1.376 . S
C156 C157 1.443 . S
C156 C183 1.389 . S
C157 C156 1.443 . S
C157 C158 1.340 . S
C157 H189 0.951 . S
C158 C157 1.340 . S
C158 C159 1.439 . S
C158 H190 0.950 . S
C159 N155 1.374 . S
C159 C158 1.439 . S
C159 C184 1.395 . S
N160 Co149 1.995 . S
N160 C161 1.376 . S
N160 C164 1.383 . S
C161 N160 1.376 . S
C161 C162 1.446 . S
C161 C184 1.391 1_455 S
C162 C161 1.446 . S
C162 C163 1.339 . S
C162 H191 0.949 . S
C163 C162 1.339 . S
C163 C164 1.439 . S
C163 H192 0.950 . S
C164 N160 1.383 . S
C164 C163 1.439 . S
C164 C182 1.392 . S
N165 Co149 2.282 1_655 S
N165 C168 1.332 . S
N165 C170 1.332 . S
C166 C167 1.386 . S
C166 C169 1.388 . S
C167 C166 1.386 . S
C167 C168 1.382 . S
C167 H193 0.950 . S
C168 N165 1.332 . S
C168 C167 1.382 . S
C168 H179 0.952 . S
C169 C166 1.388 . S
C169 C170 1.382 . S
C169 H194 0.950 . S
C170 N165 1.332 . S
C170 C169 1.382 . S
C170 H180 0.948 . S
N171 Co149 2.282 . S
N171 C175 1.332 . S
N171 C176 1.332 . S
C172 C173 1.388 . S
C172 C176 1.382 . S
C172 H195 0.950 . S
C173 C172 1.388 . S
C173 C174 1.386 . S
C174 C173 1.386 . S
C174 C175 1.382 . S
C174 H196 0.950 . S
C175 N171 1.332 . S
C175 C174 1.382 . S
C175 H177 0.952 . S
C176 N171 1.332 . S
C176 C172 1.382 . S
C176 H178 0.948 . S
H177 C175 0.952 . S
H178 C176 0.948 . S
H179 C168 0.952 . S
H180 C170 0.948 . S
C181 C147 1.395 . S
C181 C151 1.391 1_455 S
C182 C144 1.389 . S
C182 C164 1.392 . S
C183 C154 1.392 . S
C183 C156 1.389 . S
C184 C159 1.395 . S
C184 C161 1.391 1_655 S
H185 C145 0.951 . S
H186 C146 0.950 . S
H187 C152 0.949 . S
H188 C153 0.950 . S
H189 C157 0.951 . S
H190 C158 0.950 . S
H191 C162 0.949 . S
H192 C163 0.950 . S
H193 C167 0.950 . S
H194 C169 0.950 . S
H195 C172 0.950 . S
H196 C174 0.950 . S
C197 C198 1.443 . S
C197 N201 1.376 . S
C197 C235 1.389 . S
C198 C197 1.443 . S
C198 C199 1.340 . S
C198 H238 0.951 . S
C199 C198 1.340 . S
C199 C200 1.439 . S
C199 H239 0.950 . S
C200 C199 1.439 . S
C200 N201 1.374 . S
C200 C234 1.395 . S
N201 C197 1.376 . S
N201 C200 1.374 . S
N201 Co202 2.008 . S
Co202 N201 2.008 . S
Co202 N203 1.995 1_545 S
Co202 N208 2.008 1_545 S
Co202 N213 1.995 . S
Co202 N218 2.282 1_545 S
Co202 N224 2.282 . S
N203 Co202 1.995 1_565 S
N203 C204 1.376 . S
N203 C207 1.383 . S
C204 N203 1.376 . S
C204 C205 1.446 . S
C204 C234 1.391 1_565 S
C205 C204 1.446 . S
C205 C206 1.339 . S
C205 H240 0.949 . S
C206 C205 1.339 . S
C206 C207 1.439 . S
C206 H241 0.950 . S
C207 N203 1.383 . S
C207 C206 1.439 . S
C207 C236 1.392 . S
N208 Co202 2.008 1_565 S
N208 C209 1.376 . S
N208 C212 1.374 . S
C209 N208 1.376 . S
C209 C210 1.443 . S
C209 C236 1.389 . S
C210 C209 1.443 . S
C210 C211 1.340 . S
C210 H242 0.951 . S
C211 C210 1.340 . S
C211 C212 1.439 . S
C211 H243 0.950 . S
C212 N208 1.374 . S
C212 C211 1.439 . S
C212 C237 1.395 1_565 S
N213 Co202 1.995 . S
N213 C214 1.376 . S
N213 C217 1.383 . S
C214 N213 1.376 . S
C214 C215 1.446 . S
C214 C237 1.391 . S
C215 C214 1.446 . S
C215 C216 1.339 . S
C215 H244 0.949 . S
C216 C215 1.339 . S
C216 C217 1.439 . S
C216 H245 0.950 . S
C217 N213 1.383 . S
C217 C216 1.439 . S
C217 C235 1.392 . S
N218 Co202 2.282 1_565 S
N218 C221 1.332 . S
N218 C223 1.332 . S
C219 C220 1.386 . S
C219 C222 1.388 . S
C220 C219 1.386 . S
C220 C221 1.382 . S
C220 H246 0.950 . S
C221 N218 1.332 . S
C221 C220 1.382 . S
C221 H232 0.952 . S
C222 C219 1.388 . S
C222 C223 1.382 . S
C222 H247 0.950 . S
C223 N218 1.332 . S
C223 C222 1.382 . S
C223 H233 0.948 . S
N224 Co202 2.282 . S
N224 C228 1.332 . S
N224 C229 1.332 . S
C225 C226 1.388 . S
C225 C229 1.382 . S
C225 H248 0.950 . S
C226 C225 1.388 . S
C226 C227 1.386 . S
C227 C226 1.386 . S
C227 C228 1.382 . S
C227 H249 0.950 . S
C228 N224 1.332 . S
C228 C227 1.382 . S
C228 H230 0.952 . S
C229 N224 1.332 . S
C229 C225 1.382 . S
C229 H231 0.948 . S
H230 C228 0.952 . S
H231 C229 0.948 . S
H232 C221 0.952 . S
H233 C223 0.948 . S
C234 C200 1.395 . S
C234 C204 1.391 1_545 S
C235 C197 1.389 . S
C235 C217 1.392 . S
C236 C207 1.392 . S
C236 C209 1.389 . S
C237 C212 1.395 1_545 S
C237 C214 1.391 . S
H238 C198 0.951 . S
H239 C199 0.950 . S
H240 C205 0.949 . S
H241 C206 0.950 . S
H242 C210 0.951 . S
H243 C211 0.950 . S
H244 C215 0.949 . S
H245 C216 0.950 . S
H246 C220 0.950 . S
H247 C222 0.950 . S
H248 C225 0.950 . S
H249 C227 0.950 . S
C250 C251 1.443 . S
C250 N254 1.376 . S
C250 C288 1.389 . S
C251 C250 1.443 . S
C251 C252 1.340 . S
C251 H291 0.951 . S
C252 C251 1.340 . S
C252 C253 1.439 . S
C252 H292 0.950 . S
C253 C252 1.439 . S
C253 N254 1.374 . S
C253 C287 1.395 . S
N254 C250 1.376 . S
N254 C253 1.374 . S
N254 Co255 2.008 . S
Co255 N254 2.008 . S
Co255 N256 1.995 1_455 S
Co255 N261 2.008 1_455 S
Co255 N266 1.995 . S
Co255 N271 2.282 1_455 S
Co255 N277 2.282 . S
N256 Co255 1.995 1_655 S
N256 C257 1.376 . S
N256 C260 1.383 . S
C257 N256 1.376 . S
C257 C258 1.446 . S
C257 C287 1.391 1_655 S
C258 C257 1.446 . S
C258 C259 1.339 . S
C258 H293 0.949 . S
C259 C258 1.339 . S
C259 C260 1.439 . S
C259 H294 0.950 . S
C260 N256 1.383 . S
C260 C259 1.439 . S
C260 C289 1.392 . S
N261 Co255 2.008 1_655 S
N261 C262 1.376 . S
N261 C265 1.374 . S
C262 N261 1.376 . S
C262 C263 1.443 . S
C262 C289 1.389 . S
C263 C262 1.443 . S
C263 C264 1.340 . S
C263 H295 0.951 . S
C264 C263 1.340 . S
C264 C265 1.439 . S
C264 H296 0.950 . S
C265 N261 1.374 . S
C265 C264 1.439 . S
C265 C290 1.395 . S
N266 Co255 1.995 . S
N266 C267 1.376 . S
N266 C270 1.383 . S
C267 N266 1.376 . S
C267 C268 1.446 . S
C267 C290 1.391 1_455 S
C268 C267 1.446 . S
C268 C269 1.339 . S
C268 H297 0.949 . S
C269 C268 1.339 . S
C269 C270 1.439 . S
C269 H298 0.950 . S
C270 N266 1.383 . S
C270 C269 1.439 . S
C270 C288 1.392 . S
N271 Co255 2.282 1_655 S
N271 C274 1.332 . S
N271 C276 1.332 . S
C272 C273 1.386 . S
C272 C275 1.388 . S
C273 C272 1.386 . S
C273 C274 1.382 . S
C273 H299 0.950 . S
C274 N271 1.332 . S
C274 C273 1.382 . S
C274 H285 0.952 . S
C275 C272 1.388 . S
C275 C276 1.382 . S
C275 H300 0.950 . S
C276 N271 1.332 . S
C276 C275 1.382 . S
C276 H286 0.948 . S
N277 Co255 2.282 . S
N277 C281 1.332 . S
N277 C282 1.332 . S
C278 C279 1.388 . S
C278 C282 1.382 . S
C278 H301 0.950 . S
C279 C278 1.388 . S
C279 C280 1.386 . S
C280 C279 1.386 . S
C280 C281 1.382 . S
C280 H302 0.950 . S
C281 N277 1.332 . S
C281 C280 1.382 . S
C281 H283 0.952 . S
C282 N277 1.332 . S
C282 C278 1.382 . S
C282 H284 0.948 . S
H283 C281 0.952 . S
H284 C282 0.948 . S
H285 C274 0.952 . S
H286 C276 0.948 . S
C287 C253 1.395 . S
C287 C257 1.391 1_455 S
C288 C250 1.389 . S
C288 C270 1.392 . S
C289 C260 1.392 . S
C289 C262 1.389 . S
C290 C265 1.395 . S
C290 C267 1.391 1_655 S
H291 C251 0.951 . S
H292 C252 0.950 . S
H293 C258 0.949 . S
H294 C259 0.950 . S
H295 C263 0.951 . S
H296 C264 0.950 . S
H297 C268 0.949 . S
H298 C269 0.950 . S
H299 C273 0.950 . S
H300 C275 0.950 . S
H301 C278 0.950 . S
H302 C280 0.950 . S
C303 C304 1.443 . S
C303 N307 1.376 . S
C303 C341 1.389 . S
C304 C303 1.443 . S
C304 C305 1.340 . S
C304 H344 0.951 . S
C305 C304 1.340 . S
C305 C306 1.439 . S
C305 H345 0.950 . S
C306 C305 1.439 . S
C306 N307 1.374 . S
C306 C340 1.397 1_565 S
N307 C303 1.376 . S
N307 C306 1.374 . S
N307 Co308 2.008 1_565 S
Co308 N307 2.008 1_545 S
Co308 N309 1.995 . S
Co308 N314 2.008 . S
Co308 N319 1.995 1_545 S
Co308 N324 2.282 . S
Co308 N330 2.282 1_545 S
N309 Co308 1.995 . S
N309 C310 1.376 . S
N309 C313 1.383 . S
C310 N309 1.376 . S
C310 C311 1.446 . S
C310 C340 1.389 . S
C311 C310 1.446 . S
C311 C312 1.339 . S
C311 H346 0.949 . S
C312 C311 1.339 . S
C312 C313 1.439 . S
C312 H347 0.950 . S
C313 N309 1.383 . S
C313 C312 1.439 . S
C313 C342 1.392 . S
N314 Co308 2.008 . S
N314 C315 1.376 . S
N314 C318 1.374 . S
C315 N314 1.376 . S
C315 C316 1.443 . S
C315 C342 1.389 . S
C316 C315 1.443 . S
C316 C317 1.340 . S
C316 H348 0.951 . S
C317 C316 1.340 . S
C317 C318 1.439 . S
C317 H349 0.950 . S
C318 N314 1.374 . S
C318 C317 1.439 . S
C318 C343 1.395 . S
N319 Co308 1.995 1_565 S
N319 C320 1.376 . S
N319 C323 1.383 . S
C320 N319 1.376 . S
C320 C321 1.446 . S
C320 C343 1.391 1_565 S
C321 C320 1.446 . S
C321 C322 1.339 . S
C321 H350 0.949 . S
C322 C321 1.339 . S
C322 C323 1.439 . S
C322 H351 0.950 . S
C323 N319 1.383 . S
C323 C322 1.439 . S
C323 C341 1.392 . S
N324 Co308 2.282 . S
N324 C327 1.332 . S
N324 C329 1.332 . S
C325 C326 1.386 . S
C325 C328 1.388 . S
C326 C325 1.386 . S
C326 C327 1.382 . S
C326 H352 0.950 . S
C327 N324 1.332 . S
C327 C326 1.382 . S
C327 H338 0.952 . S
C328 C325 1.388 . S
C328 C329 1.382 . S
C328 H353 0.950 . S
C329 N324 1.332 . S
C329 C328 1.382 . S
C329 H339 0.948 . S
N330 Co308 2.282 1_565 S
N330 C334 1.332 . S
N330 C335 1.332 . S
C331 C332 1.388 . S
C331 C335 1.382 . S
C331 H354 0.950 . S
C332 C331 1.388 . S
C332 C333 1.386 . S
C333 C332 1.386 . S
C333 C334 1.382 . S
C333 H355 0.950 . S
C334 N330 1.332 . S
C334 C333 1.382 . S
C334 H336 0.952 . S
C335 N330 1.332 . S
C335 C331 1.382 . S
C335 H337 0.948 . S
H336 C334 0.952 . S
H337 C335 0.948 . S
H338 C327 0.952 . S
H339 C329 0.948 . S
C340 C306 1.397 1_545 S
C340 C310 1.389 . S
C341 C303 1.389 . S
C341 C323 1.392 . S
C342 C313 1.392 . S
C342 C315 1.389 . S
C343 C318 1.395 . S
C343 C320 1.391 1_545 S
H344 C304 0.951 . S
H345 C305 0.950 . S
H346 C311 0.949 . S
H347 C312 0.950 . S
H348 C316 0.951 . S
H349 C317 0.950 . S
H350 C321 0.949 . S
H351 C322 0.950 . S
H352 C326 0.950 . S
H353 C328 0.950 . S
H354 C331 0.950 . S
H355 C333 0.950 . S
C356 C357 1.443 . S
C356 N360 1.376 . S
C356 C394 1.389 . S
C357 C356 1.443 . S
C357 C358 1.340 . S
C357 H397 0.951 . S
C358 C357 1.340 . S
C358 C359 1.439 . S
C358 H398 0.950 . S
C359 C358 1.439 . S
C359 N360 1.374 . S
C359 C393 1.395 . S
N360 C356 1.376 . S
N360 C359 1.374 . S
N360 Co361 2.008 . S
Co361 N360 2.008 . S
Co361 N362 1.995 1_554 S
Co361 N367 2.008 1_554 S
Co361 N372 1.995 . S
Co361 N377 2.282 . S
Co361 N383 2.282 1_554 S
N362 Co361 1.995 1_556 S
N362 C363 1.376 . S
N362 C366 1.383 . S
C363 N362 1.376 . S
C363 C364 1.446 . S
C363 C393 1.391 1_556 S
C364 C363 1.446 . S
C364 C365 1.339 . S
C364 H399 0.949 . S
C365 C364 1.339 . S
C365 C366 1.439 . S
C365 H400 0.950 . S
C366 N362 1.383 . S
C366 C365 1.439 . S
C366 C395 1.392 . S
N367 Co361 2.008 1_556 S
N367 C368 1.376 . S
N367 C371 1.374 . S
C368 N367 1.376 . S
C368 C369 1.443 . S
C368 C395 1.389 . S
C369 C368 1.443 . S
C369 C370 1.340 . S
C369 H401 0.951 . S
C370 C369 1.340 . S
C370 C371 1.439 . S
C370 H402 0.950 . S
C371 N367 1.374 . S
C371 C370 1.439 . S
C371 C396 1.409 . S
N372 Co361 1.995 . S
N372 C373 1.376 . S
N372 C376 1.383 . S
C373 N372 1.376 . S
C373 C374 1.446 . S
C373 C396 1.379 1_554 S
C374 C373 1.446 . S
C374 C375 1.339 . S
C374 H403 0.949 . S
C375 C374 1.339 . S
C375 C376 1.439 . S
C375 H404 0.950 . S
C376 N372 1.383 . S
C376 C375 1.439 . S
C376 C394 1.392 . S
N377 Co361 2.282 . S
N377 C380 1.332 . S
N377 C382 1.332 . S
C378 C379 1.386 . S
C378 C381 1.388 . S
C379 C378 1.386 . S
C379 C380 1.382 . S
C379 H405 0.950 . S
C380 N377 1.332 . S
C380 C379 1.382 . S
C380 H391 0.952 . S
C381 C378 1.388 . S
C381 C382 1.382 . S
C381 H406 0.950 . S
C382 N377 1.332 . S
C382 C381 1.382 . S
C382 H392 0.948 . S
N383 Co361 2.282 1_556 S
N383 C387 1.332 . S
N383 C388 1.332 . S
C384 C385 1.388 . S
C384 C388 1.382 . S
C384 H407 0.950 . S
C385 C384 1.388 . S
C385 C386 1.386 . S
C386 C385 1.386 . S
C386 C387 1.382 . S
C386 H408 0.950 . S
C387 N383 1.332 . S
C387 C386 1.382 . S
C387 H389 0.952 . S
C388 N383 1.332 . S
C388 C384 1.382 . S
C388 H390 0.948 . S
H389 C387 0.952 . S
H390 C388 0.948 . S
H391 C380 0.952 . S
H392 C382 0.948 . S
C393 C359 1.395 . S
C393 C363 1.391 1_554 S
C394 C356 1.389 . S
C394 C376 1.392 . S
C395 C366 1.392 . S
C395 C368 1.389 . S
C396 C371 1.409 . S
C396 C373 1.379 1_556 S
H397 C357 0.951 . S
H398 C358 0.950 . S
H399 C364 0.949 . S
H400 C365 0.950 . S
H401 C369 0.951 . S
H402 C370 0.950 . S
H403 C374 0.949 . S
H404 C375 0.950 . S
H405 C379 0.950 . S
H406 C381 0.950 . S
H407 C384 0.950 . S
H408 C386 0.950 . S
C409 C410 1.443 . S
C409 N413 1.376 . S
C409 C447 1.389 . S
C410 C409 1.443 . S
C410 C411 1.340 . S
C410 H450 0.951 . S
C411 C410 1.340 . S
C411 C412 1.439 . S
C411 H451 0.950 . S
C412 C411 1.439 . S
C412 N413 1.374 . S
C412 C446 1.395 . S
N413 C409 1.376 . S
N413 C412 1.374 . S
N413 Co414 2.008 . S
Co414 N413 2.008 . S
Co414 N415 1.995 1_554 S
Co414 N420 2.008 . S
Co414 N425 1.995 . S
Co414 N430 2.282 . S
Co414 N436 2.282 1_554 S
N415 Co414 1.995 1_556 S
N415 C416 1.376 . S
N415 C419 1.383 . S
C416 N415 1.376 . S
C416 C417 1.446 . S
C416 C446 1.391 1_556 S
C417 C416 1.446 . S
C417 C418 1.339 . S
C417 H452 0.949 . S
C418 C417 1.339 . S
C418 C419 1.439 . S
C418 H453 0.950 . S
C419 N415 1.383 . S
C419 C418 1.439 . S
C419 C448 1.392 . S
N420 Co414 2.008 . S
N420 C421 1.376 1_554 S
N420 C424 1.374 . S
C421 N420 1.376 1_556 S
C421 C422 1.443 . S
C421 C448 1.389 . S
C422 C421 1.443 . S
C422 C423 1.340 1_556 S
C422 H454 0.951 . S
C423 C422 1.340 1_554 S
C423 C424 1.439 . S
C423 H455 0.950 . S
C424 N420 1.374 . S
C424 C423 1.439 . S
C424 C449 1.395 . S
N425 Co414 1.995 . S
N425 C426 1.376 . S
N425 C429 1.383 . S
C426 N425 1.376 . S
C426 C427 1.446 . S
C426 C449 1.391 . S
C427 C426 1.446 . S
C427 C428 1.339 . S
C427 H456 0.949 . S
C428 C427 1.339 . S
C428 C429 1.439 . S
C428 H457 0.950 . S
C429 N425 1.383 . S
C429 C428 1.439 . S
C429 C447 1.392 . S
N430 Co414 2.282 . S
N430 C433 1.332 . S
N430 C435 1.332 . S
C431 C432 1.386 . S
C431 C434 1.388 . S
C432 C431 1.386 . S
C432 C433 1.382 . S
C432 H458 0.950 . S
C433 N430 1.332 . S
C433 C432 1.382 . S
C433 H444 0.952 . S
C434 C431 1.388 . S
C434 C435 1.382 . S
C434 H459 0.950 . S
C435 N430 1.332 . S
C435 C434 1.382 . S
C435 H445 0.948 . S
N436 Co414 2.282 1_556 S
N436 C440 1.332 . S
N436 C441 1.332 . S
C437 C438 1.388 . S
C437 C441 1.382 . S
C437 H460 0.950 . S
C438 C437 1.388 . S
C438 C439 1.386 . S
C439 C438 1.386 . S
C439 C440 1.382 . S
C439 H461 0.950 . S
C440 N436 1.332 . S
C440 C439 1.382 . S
C440 H442 0.952 . S
C441 N436 1.332 . S
C441 C437 1.382 . S
C441 H443 0.948 . S
H442 C440 0.952 . S
H443 C441 0.948 . S
H444 C433 0.952 . S
H445 C435 0.948 . S
C446 C412 1.395 . S
C446 C416 1.391 1_554 S
C447 C409 1.389 . S
C447 C429 1.392 . S
C448 C419 1.392 . S
C448 C421 1.389 . S
C449 C424 1.395 . S
C449 C426 1.391 . S
H450 C410 0.951 . S
H451 C411 0.950 . S
H452 C417 0.949 . S
H453 C418 0.950 . S
H454 C422 0.951 . S
H455 C423 0.950 . S
H456 C427 0.949 . S
H457 C428 0.950 . S
H458 C432 0.950 . S
H459 C434 0.950 . S
H460 C437 0.950 . S
H461 C439 0.950 . S
C462 C463 1.443 . S
C462 N466 1.376 1_556 S
C462 C500 1.389 . S
C463 C462 1.443 . S
C463 C464 1.340 1_556 S
C463 H503 0.951 . S
C464 C463 1.340 1_554 S
C464 C465 1.439 . S
C464 H504 0.950 . S
C465 C464 1.439 . S
C465 N466 1.374 . S
C465 C499 1.395 . S
N466 C462 1.376 1_554 S
N466 C465 1.374 . S
N466 Co467 2.008 . S
Co467 N466 2.008 . S
Co467 N468 1.995 . S
Co467 N473 2.008 . S
Co467 N478 1.995 . S
Co467 N483 2.282 1_554 S
Co467 N489 2.282 . S
N468 Co467 1.995 . S
N468 C469 1.376 . S
N468 C472 1.383 . S
C469 N468 1.376 . S
C469 C470 1.446 . S
C469 C499 1.391 . S
C470 C469 1.446 . S
C470 C471 1.339 . S
C470 H505 0.949 . S
C471 C470 1.339 . S
C471 C472 1.439 . S
C471 H506 0.950 . S
C472 N468 1.383 . S
C472 C471 1.439 . S
C472 C501 1.392 . S
N473 Co467 2.008 . S
N473 C474 1.376 . S
N473 C477 1.374 . S
C474 N473 1.376 . S
C474 C475 1.443 . S
C474 C501 1.389 . S
C475 C474 1.443 . S
C475 C476 1.340 . S
C475 H507 0.951 . S
C476 C475 1.340 . S
C476 C477 1.439 . S
C476 H508 0.950 . S
C477 N473 1.374 . S
C477 C476 1.439 . S
C477 C502 1.395 . S
N478 Co467 1.995 . S
N478 C479 1.376 . S
N478 C482 1.383 1_554 S
C479 N478 1.376 . S
C479 C480 1.446 1_554 S
C479 C502 1.391 . S
C480 C479 1.446 1_556 S
C480 C481 1.339 . S
C480 H509 0.949 . S
C481 C480 1.339 . S
C481 C482 1.439 . S
C481 H510 0.950 . S
C482 N478 1.383 1_556 S
C482 C481 1.439 . S
C482 C500 1.392 . S
N483 Co467 2.282 1_556 S
N483 C486 1.332 . S
N483 C488 1.332 . S
C484 C485 1.386 . S
C484 C487 1.388 . S
C485 C484 1.386 . S
C485 C486 1.382 . S
C485 H511 0.950 . S
C486 N483 1.332 . S
C486 C485 1.382 . S
C486 H497 0.952 . S
C487 C484 1.388 . S
C487 C488 1.382 . S
C487 H512 0.950 . S
C488 N483 1.332 . S
C488 C487 1.382 . S
C488 H498 0.948 1_556 S
N489 Co467 2.282 . S
N489 C493 1.332 . S
N489 C494 1.332 . S
C490 C491 1.388 . S
C490 C494 1.382 . S
C490 H513 0.950 . S
C491 C490 1.388 . S
C491 C492 1.386 . S
C492 C491 1.386 . S
C492 C493 1.382 . S
C492 H514 0.950 . S
C493 N489 1.332 . S
C493 C492 1.382 . S
C493 H495 0.952 . S
C494 N489 1.332 . S
C494 C490 1.382 . S
C494 H496 0.948 . S
H495 C493 0.952 . S
H496 C494 0.948 . S
H497 C486 0.952 . S
H498 C488 0.948 1_554 S
C499 C465 1.395 . S
C499 C469 1.391 . S
C500 C462 1.389 . S
C500 C482 1.392 . S
C501 C472 1.392 . S
C501 C474 1.389 . S
C502 C477 1.395 . S
C502 C479 1.391 . S
H503 C463 0.951 . S
H504 C464 0.950 . S
H505 C470 0.949 . S
H506 C471 0.950 . S
H507 C475 0.951 . S
H508 C476 0.950 . S
H509 C480 0.949 . S
H510 C481 0.950 . S
H511 C485 0.950 . S
H512 C487 0.950 . S
H513 C490 0.950 . S
H514 C492 0.950 . S
C515 C516 1.443 . S
C515 N519 1.376 . S
C515 C553 1.389 . S
C516 C515 1.443 . S
C516 C517 1.340 . S
C516 H556 0.951 . S
C517 C516 1.340 . S
C517 C518 1.439 . S
C517 H557 0.950 . S
C518 C517 1.439 . S
C518 N519 1.374 . S
C518 C552 1.395 1_554 S
N519 C515 1.376 . S
N519 C518 1.374 . S
N519 Co520 2.008 . S
Co520 N519 2.008 . S
Co520 N521 1.995 1_554 S
Co520 N526 2.008 1_554 S
Co520 N531 1.995 . S
Co520 N536 2.282 . S
Co520 N542 2.282 1_554 S
N521 Co520 1.995 1_556 S
N521 C522 1.376 . S
N521 C525 1.383 . S
C522 N521 1.376 . S
C522 C523 1.446 . S
C522 C552 1.391 . S
C523 C522 1.446 . S
C523 C524 1.339 . S
C523 H558 0.949 . S
C524 C523 1.339 . S
C524 C525 1.439 . S
C524 H559 0.950 . S
C525 N521 1.383 . S
C525 C524 1.439 . S
C525 C554 1.392 . S
N526 Co520 2.008 1_556 S
N526 C527 1.376 . S
N526 C530 1.374 1_556 S
C527 N526 1.376 . S
C527 C528 1.443 . S
C527 C554 1.389 . S
C528 C527 1.443 . S
C528 C529 1.340 . S
C528 H560 0.951 . S
C529 C528 1.340 . S
C529 C530 1.439 1_556 S
C529 H561 0.950 . S
C530 N526 1.374 1_554 S
C530 C529 1.439 1_554 S
C530 C555 1.395 . S
N531 Co520 1.995 . S
N531 C532 1.376 . S
N531 C535 1.383 . S
C532 N531 1.376 . S
C532 C533 1.446 . S
C532 C555 1.391 . S
C533 C532 1.446 . S
C533 C534 1.339 . S
C533 H562 0.949 . S
C534 C533 1.339 . S
C534 C535 1.439 . S
C534 H563 0.950 . S
C535 N531 1.383 . S
C535 C534 1.439 . S
C535 C553 1.392 . S
N536 Co520 2.282 . S
N536 C539 1.332 . S
N536 C541 1.332 . S
C537 C538 1.386 . S
C537 C540 1.388 . S
C538 C537 1.386 . S
C538 C539 1.382 . S
C538 H564 0.950 . S
C539 N536 1.332 . S
C539 C538 1.382 . S
C539 H550 0.952 . S
C540 C537 1.388 . S
C540 C541 1.382 . S
C540 H565 0.950 . S
C541 N536 1.332 . S
C541 C540 1.382 . S
C541 H551 0.948 . S
N542 Co520 2.282 1_556 S
N542 C546 1.332 . S
N542 C547 1.332 . S
C543 C544 1.388 . S
C543 C547 1.382 . S
C543 H566 0.950 . S
C544 C543 1.388 . S
C544 C545 1.386 . S
C545 C544 1.386 . S
C545 C546 1.382 . S
C545 H567 0.950 . S
C546 N542 1.332 . S
C546 C545 1.382 . S
C546 H548 0.952 . S
C547 N542 1.332 . S
C547 C543 1.382 . S
C547 H549 0.948 . S
H548 C546 0.952 . S
H549 C547 0.948 . S
H550 C539 0.952 . S
H551 C541 0.948 . S
C552 C518 1.395 1_556 S
C552 C522 1.391 . S
C553 C515 1.389 . S
C553 C535 1.392 . S
C554 C525 1.392 . S
C554 C527 1.389 . S
C555 C530 1.395 . S
C555 C532 1.391 . S
H556 C516 0.951 . S
H557 C517 0.950 . S
H558 C523 0.949 . S
H559 C524 0.950 . S
H560 C528 0.951 . S
H561 C529 0.950 . S
H562 C533 0.949 . S
H563 C534 0.950 . S
H564 C538 0.950 . S
H565 C540 0.950 . S
H566 C543 0.950 . S
H567 C545 0.950 . S
C568 C569 1.369 . S
C568 C570 1.419 . S
C568 H572 0.930 . S
C569 C568 1.369 . S
C569 C578 1.429 . S
C570 C568 1.419 . S
C570 C571 1.363 . S
C570 H573 0.929 . S
C571 C570 1.363 . S
C571 C577 1.428 . S
H572 C568 0.930 . S
H573 C570 0.929 . S
S574 N575 1.613 . S
S574 N576 1.610 . S
N575 S574 1.613 . S
N575 C578 1.350 . S
N576 S574 1.610 . S
N576 C577 1.351 . S
C577 C571 1.428 . S
C577 N576 1.351 . S
C577 C578 1.434 . S
C578 C569 1.429 . S
C578 N575 1.350 . S
C578 C577 1.434 . S
C579 C580 1.369 . S
C579 C581 1.419 . S
C579 H583 0.930 . S
C580 C579 1.369 . S
C580 C589 1.429 . S
C581 C579 1.419 . S
C581 C582 1.363 . S
C581 H584 0.929 . S
C582 C581 1.363 . S
C582 C588 1.428 . S
H583 C579 0.930 . S
H584 C581 0.929 . S
S585 N586 1.613 . S
S585 N587 1.610 . S
N586 S585 1.613 . S
N586 C589 1.350 . S
N587 S585 1.610 . S
N587 C588 1.351 . S
C588 C582 1.428 . S
C588 N587 1.351 . S
C588 C589 1.434 . S
C589 C580 1.429 . S
C589 N586 1.350 . S
C589 C588 1.434 . S
C590 C591 1.369 . S
C590 C592 1.419 . S
C590 H594 0.930 . S
C591 C590 1.369 . S
C591 C600 1.429 . S
C592 C590 1.419 . S
C592 C593 1.363 . S
C592 H595 0.929 . S
C593 C592 1.363 . S
C593 C599 1.428 . S
H594 C590 0.930 . S
H595 C592 0.929 . S
S596 N597 1.613 . S
S596 N598 1.610 . S
N597 S596 1.613 . S
N597 C600 1.350 . S
N598 S596 1.610 . S
N598 C599 1.351 . S
C599 C593 1.428 . S
C599 N598 1.351 . S
C599 C600 1.434 . S
C600 C591 1.429 . S
C600 N597 1.350 . S
C600 C599 1.434 . S
C601 C602 1.369 . S
C601 C603 1.419 . S
C601 H605 0.930 . S
C602 C601 1.369 . S
C602 C611 1.429 . S
C603 C601 1.419 . S
C603 C604 1.363 . S
C603 H606 0.929 . S
C604 C603 1.363 . S
C604 C610 1.428 . S
H605 C601 0.930 . S
H606 C603 0.929 . S
S607 N608 1.613 . S
S607 N609 1.610 . S
N608 S607 1.613 . S
N608 C611 1.350 . S
N609 S607 1.610 . S
N609 C610 1.351 . S
C610 C604 1.428 . S
C610 N609 1.351 . S
C610 C611 1.434 . S
C611 C602 1.429 . S
C611 N608 1.350 . S
C611 C610 1.434 . S
C612 C613 1.369 . S
C612 C614 1.419 . S
C612 H616 0.930 . S
C613 C612 1.369 . S
C613 C622 1.429 . S
C614 C612 1.419 . S
C614 C615 1.363 . S
C614 H617 0.929 . S
C615 C614 1.363 . S
C615 C621 1.428 . S
H616 C612 0.930 . S
H617 C614 0.929 . S
S618 N619 1.613 . S
S618 N620 1.610 . S
N619 S618 1.613 . S
N619 C622 1.350 . S
N620 S618 1.610 . S
N620 C621 1.351 . S
C621 C615 1.428 . S
C621 N620 1.351 . S
C621 C622 1.434 . S
C622 C613 1.429 . S
C622 N619 1.350 . S
C622 C621 1.434 . S
C623 C624 1.369 . S
C623 C625 1.419 . S
C623 H627 0.930 . S
C624 C623 1.369 . S
C624 C633 1.429 . S
C625 C623 1.419 . S
C625 C626 1.363 . S
C625 H628 0.929 . S
C626 C625 1.363 . S
C626 C632 1.428 . S
H627 C623 0.930 . S
H628 C625 0.929 . S
S629 N630 1.613 . S
S629 N631 1.610 . S
N630 S629 1.613 . S
N630 C633 1.350 . S
N631 S629 1.610 . S
N631 C632 1.351 . S
C632 C626 1.428 . S
C632 N631 1.351 . S
C632 C633 1.434 . S
C633 C624 1.429 . S
C633 N630 1.350 . S
C633 C632 1.434 . S
C634 C635 1.369 . S
C634 C636 1.419 . S
C634 H638 0.930 . S
C635 C634 1.369 . S
C635 C644 1.429 . S
C636 C634 1.419 . S
C636 C637 1.363 . S
C636 H639 0.929 . S
C637 C636 1.363 . S
C637 C643 1.428 . S
H638 C634 0.930 . S
H639 C636 0.929 . S
S640 N641 1.613 . S
S640 N642 1.610 . S
N641 S640 1.613 . S
N641 C644 1.350 . S
N642 S640 1.610 . S
N642 C643 1.351 . S
C643 C637 1.428 . S
C643 N642 1.351 . S
C643 C644 1.434 . S
C644 C635 1.429 . S
C644 N641 1.350 . S
C644 C643 1.434 . S
C645 C646 1.369 . S
C645 C647 1.419 . S
C645 H649 0.930 . S
C646 C645 1.369 . S
C646 C655 1.429 . S
C647 C645 1.419 . S
C647 C648 1.363 . S
C647 H650 0.929 . S
C648 C647 1.363 . S
C648 C654 1.428 . S
H649 C645 0.930 . S
H650 C647 0.929 . S
S651 N652 1.613 . S
S651 N653 1.610 . S
N652 S651 1.613 . S
N652 C655 1.350 . S
N653 S651 1.610 . S
N653 C654 1.351 . S
C654 C648 1.428 . S
C654 N653 1.351 . S
C654 C655 1.434 . S
C655 C646 1.429 . S
C655 N652 1.350 . S
C655 C654 1.434 . S
C656 C657 1.369 . S
C656 C658 1.419 . S
C656 H660 0.930 . S
C657 C656 1.369 . S
C657 C666 1.429 . S
C658 C656 1.419 . S
C658 C659 1.363 . S
C658 H661 0.929 . S
C659 C658 1.363 . S
C659 C665 1.428 . S
H660 C656 0.930 . S
H661 C658 0.929 . S
S662 N663 1.613 . S
S662 N664 1.610 . S
N663 S662 1.613 . S
N663 C666 1.350 . S
N664 S662 1.610 . S
N664 C665 1.351 . S
C665 C659 1.428 . S
C665 N664 1.351 . S
C665 C666 1.434 . S
C666 C657 1.429 . S
C666 N663 1.350 . S
C666 C665 1.434 . S
C667 C668 1.369 . S
C667 C669 1.419 . S
C667 H671 0.930 . S
C668 C667 1.369 . S
C668 C677 1.429 . S
C669 C667 1.419 . S
C669 C670 1.363 . S
C669 H672 0.929 . S
C670 C669 1.363 . S
C670 C676 1.428 . S
H671 C667 0.930 . S
H672 C669 0.929 . S
S673 N674 1.613 . S
S673 N675 1.610 . S
N674 S673 1.613 . S
N674 C677 1.350 . S
N675 S673 1.610 . S
N675 C676 1.351 . S
C676 C670 1.428 . S
C676 N675 1.351 . S
C676 C677 1.434 . S
C677 C668 1.429 . S
C677 N674 1.350 . S
C677 C676 1.434 . S
C678 C679 1.369 . S
C678 C680 1.419 . S
C678 H682 0.930 . S
C679 C678 1.369 . S
C679 C688 1.429 . S
C680 C678 1.419 . S
C680 C681 1.363 . S
C680 H683 0.929 . S
C681 C680 1.363 . S
C681 C687 1.428 . S
H682 C678 0.930 . S
H683 C680 0.929 . S
S684 N685 1.613 . S
S684 N686 1.610 . S
N685 S684 1.613 . S
N685 C688 1.350 . S
N686 S684 1.610 . S
N686 C687 1.351 . S
C687 C681 1.428 . S
C687 N686 1.351 . S
C687 C688 1.434 . S
C688 C679 1.429 . S
C688 N685 1.350 . S
C688 C687 1.434 . S
C689 C690 1.369 . S
C689 C691 1.419 . S
C689 H693 0.930 . S
C690 C689 1.369 . S
C690 C699 1.429 . S
C691 C689 1.419 . S
C691 C692 1.363 . S
C691 H694 0.929 . S
C692 C691 1.363 . S
C692 C698 1.428 . S
H693 C689 0.930 . S
H694 C691 0.929 . S
S695 N696 1.613 . S
S695 N697 1.610 . S
N696 S695 1.613 . S
N696 C699 1.350 . S
N697 S695 1.610 . S
N697 C698 1.351 . S
C698 C692 1.428 . S
C698 N697 1.351 . S
C698 C699 1.434 . S
C699 C690 1.429 . S
C699 N696 1.350 . S
C699 C698 1.434 . S
C700 C701 1.369 . S
C700 C702 1.419 . S
C700 H704 0.930 . S
C701 C700 1.369 . S
C701 C710 1.429 . S
C702 C700 1.419 . S
C702 C703 1.363 . S
C702 H705 0.929 . S
C703 C702 1.363 . S
C703 C709 1.428 . S
H704 C700 0.930 . S
H705 C702 0.929 . S
S706 N707 1.613 . S
S706 N708 1.610 . S
N707 S706 1.613 . S
N707 C710 1.350 . S
N708 S706 1.610 . S
N708 C709 1.351 . S
C709 C703 1.428 . S
C709 N708 1.351 . S
C709 C710 1.434 . S
C710 C701 1.429 . S
C710 N707 1.350 . S
C710 C709 1.434 . S
C711 C712 1.369 . S
C711 C713 1.419 . S
C711 H715 0.930 . S
C712 C711 1.369 . S
C712 C721 1.429 . S
C713 C711 1.419 . S
C713 C714 1.363 . S
C713 H716 0.929 . S
C714 C713 1.363 . S
C714 C720 1.428 . S
H715 C711 0.930 . S
H716 C713 0.929 . S
S717 N718 1.613 . S
S717 N719 1.610 . S
N718 S717 1.613 . S
N718 C721 1.350 . S
N719 S717 1.610 . S
N719 C720 1.351 . S
C720 C714 1.428 . S
C720 N719 1.351 . S
C720 C721 1.434 . S
C721 C712 1.429 . S
C721 N718 1.350 . S
C721 C720 1.434 . S
C722 C723 1.369 . S
C722 C724 1.419 . S
C722 H726 0.930 . S
C723 C722 1.369 . S
C723 C732 1.429 . S
C724 C722 1.419 . S
C724 C725 1.363 . S
C724 H727 0.929 . S
C725 C724 1.363 . S
C725 C731 1.428 . S
H726 C722 0.930 . S
H727 C724 0.929 . S
S728 N729 1.613 . S
S728 N730 1.610 . S
N729 S728 1.613 . S
N729 C732 1.350 . S
N730 S728 1.610 . S
N730 C731 1.351 . S
C731 C725 1.428 . S
C731 N730 1.351 . S
C731 C732 1.434 . S
C732 C723 1.429 . S
C732 N729 1.350 . S
C732 C731 1.434 . S
C733 C734 1.369 . S
C733 C735 1.419 . S
C733 H737 0.930 . S
C734 C733 1.369 . S
C734 C743 1.429 . S
C735 C733 1.419 . S
C735 C736 1.363 . S
C735 H738 0.929 . S
C736 C735 1.363 . S
C736 C742 1.428 . S
H737 C733 0.930 . S
H738 C735 0.929 . S
S739 N740 1.613 . S
S739 N741 1.610 . S
N740 S739 1.613 . S
N740 C743 1.350 . S
N741 S739 1.610 . S
N741 C742 1.351 . S
C742 C736 1.428 . S
C742 N741 1.351 . S
C742 C743 1.434 . S
C743 C734 1.429 . S
C743 N740 1.350 . S
C743 C742 1.434 . S
C744 C745 1.369 . S
C744 C746 1.419 . S
C744 H748 0.930 . S
C745 C744 1.369 . S
C745 C754 1.429 . S
C746 C744 1.419 . S
C746 C747 1.363 . S
C746 H749 0.929 . S
C747 C746 1.363 . S
C747 C753 1.428 . S
H748 C744 0.930 . S
H749 C746 0.929 . S
S750 N751 1.613 . S
S750 N752 1.610 . S
N751 S750 1.613 . S
N751 C754 1.350 . S
N752 S750 1.610 . S
N752 C753 1.351 . S
C753 C747 1.428 . S
C753 N752 1.351 . S
C753 C754 1.434 . S
C754 C745 1.429 . S
C754 N751 1.350 . S
C754 C753 1.434 . S
C755 C756 1.369 . S
C755 C757 1.419 . S
C755 H759 0.930 . S
C756 C755 1.369 . S
C756 C765 1.429 . S
C757 C755 1.419 . S
C757 C758 1.363 . S
C757 H760 0.929 . S
C758 C757 1.363 . S
C758 C764 1.428 . S
H759 C755 0.930 . S
H760 C757 0.929 . S
S761 N762 1.613 . S
S761 N763 1.610 . S
N762 S761 1.613 . S
N762 C765 1.350 . S
N763 S761 1.610 . S
N763 C764 1.351 . S
C764 C758 1.428 . S
C764 N763 1.351 . S
C764 C765 1.434 . S
C765 C756 1.429 . S
C765 N762 1.350 . S
C765 C764 1.434 . S
C766 C767 1.369 . S
C766 C768 1.419 . S
C766 H770 0.930 . S
C767 C766 1.369 . S
C767 C776 1.429 . S
C768 C766 1.419 . S
C768 C769 1.363 . S
C768 H771 0.929 . S
C769 C768 1.363 . S
C769 C775 1.428 . S
H770 C766 0.930 . S
H771 C768 0.929 . S
S772 N773 1.613 . S
S772 N774 1.610 . S
N773 S772 1.613 . S
N773 C776 1.350 . S
N774 S772 1.610 . S
N774 C775 1.351 . S
C775 C769 1.428 . S
C775 N774 1.351 . S
C775 C776 1.434 . S
C776 C767 1.429 . S
C776 N773 1.350 . S
C776 C775 1.434 . S
C777 C778 1.369 . S
C777 C779 1.419 . S
C777 H781 0.930 . S
C778 C777 1.369 . S
C778 C787 1.429 . S
C779 C777 1.419 . S
C779 C780 1.363 . S
C779 H782 0.929 . S
C780 C779 1.363 . S
C780 C786 1.428 . S
H781 C777 0.930 . S
H782 C779 0.929 . S
S783 N784 1.613 . S
S783 N785 1.610 . S
N784 S783 1.613 . S
N784 C787 1.350 . S
N785 S783 1.610 . S
N785 C786 1.351 . S
C786 C780 1.428 . S
C786 N785 1.351 . S
C786 C787 1.434 . S
C787 C778 1.429 . S
C787 N784 1.350 . S
C787 C786 1.434 . S
C788 C789 1.369 . S
C788 C790 1.419 . S
C788 H792 0.930 . S
C789 C788 1.369 . S
C789 C798 1.429 . S
C790 C788 1.419 . S
C790 C791 1.363 . S
C790 H793 0.929 . S
C791 C790 1.363 . S
C791 C797 1.428 . S
H792 C788 0.930 . S
H793 C790 0.929 . S
S794 N795 1.613 . S
S794 N796 1.610 . S
N795 S794 1.613 . S
N795 C798 1.350 . S
N796 S794 1.610 . S
N796 C797 1.351 . S
C797 C791 1.428 . S
C797 N796 1.351 . S
C797 C798 1.434 . S
C798 C789 1.429 . S
C798 N795 1.350 . S
C798 C797 1.434 . S
C799 C800 1.369 . S
C799 C801 1.419 . S
C799 H803 0.930 . S
C800 C799 1.369 . S
C800 C809 1.429 . S
C801 C799 1.419 . S
C801 C802 1.363 . S
C801 H804 0.929 . S
C802 C801 1.363 . S
C802 C808 1.428 . S
H803 C799 0.930 . S
H804 C801 0.929 . S
S805 N806 1.613 . S
S805 N807 1.610 . S
N806 S805 1.613 . S
N806 C809 1.350 . S
N807 S805 1.610 . S
N807 C808 1.351 . S
C808 C802 1.428 . S
C808 N807 1.351 . S
C808 C809 1.434 . S
C809 C800 1.429 . S
C809 N806 1.350 . S
C809 C808 1.434 . S
C810 C811 1.369 . S
C810 C812 1.419 . S
C810 H814 0.930 . S
C811 C810 1.369 . S
C811 C820 1.429 . S
C812 C810 1.419 . S
C812 C813 1.363 . S
C812 H815 0.929 . S
C813 C812 1.363 . S
C813 C819 1.428 . S
H814 C810 0.930 . S
H815 C812 0.929 . S
S816 N817 1.613 . S
S816 N818 1.610 . S
N817 S816 1.613 . S
N817 C820 1.350 . S
N818 S816 1.610 . S
N818 C819 1.351 . S
C819 C813 1.428 . S
C819 N818 1.351 . S
C819 C820 1.434 . S
C820 C811 1.429 . S
C820 N817 1.350 . S
C820 C819 1.434 . S
C821 C822 1.369 . S
C821 C823 1.419 . S
C821 H825 0.930 . S
C822 C821 1.369 . S
C822 C831 1.429 . S
C823 C821 1.419 . S
C823 C824 1.363 . S
C823 H826 0.929 . S
C824 C823 1.363 . S
C824 C830 1.428 . S
H825 C821 0.930 . S
H826 C823 0.929 . S
S827 N828 1.613 . S
S827 N829 1.610 . S
N828 S827 1.613 . S
N828 C831 1.350 . S
N829 S827 1.610 . S
N829 C830 1.351 . S
C830 C824 1.428 . S
C830 N829 1.351 . S
C830 C831 1.434 . S
C831 C822 1.429 . S
C831 N828 1.350 . S
C831 C830 1.434 . S
C832 C833 1.369 . S
C832 C834 1.419 . S
C832 H836 0.930 . S
C833 C832 1.369 . S
C833 C842 1.429 . S
C834 C832 1.419 . S
C834 C835 1.363 . S
C834 H837 0.929 . S
C835 C834 1.363 . S
C835 C841 1.428 . S
H836 C832 0.930 . S
H837 C834 0.929 . S
S838 N839 1.613 . S
S838 N840 1.610 . S
N839 S838 1.613 . S
N839 C842 1.350 . S
N840 S838 1.610 . S
N840 C841 1.351 . S
C841 C835 1.428 . S
C841 N840 1.351 . S
C841 C842 1.434 . S
C842 C833 1.429 . S
C842 N839 1.350 . S
C842 C841 1.434 . S
C843 C844 1.369 . S
C843 C845 1.419 . S
C843 H847 0.930 . S
C844 C843 1.369 . S
C844 C853 1.429 . S
C845 C843 1.419 . S
C845 C846 1.363 . S
C845 H848 0.929 . S
C846 C845 1.363 . S
C846 C852 1.428 . S
H847 C843 0.930 . S
H848 C845 0.929 . S
S849 N850 1.613 . S
S849 N851 1.610 . S
N850 S849 1.613 . S
N850 C853 1.350 . S
N851 S849 1.610 . S
N851 C852 1.351 . S
C852 C846 1.428 . S
C852 N851 1.351 . S
C852 C853 1.434 . S
C853 C844 1.429 . S
C853 N850 1.350 . S
C853 C852 1.434 . S
C854 C855 1.369 . S
C854 C856 1.419 . S
C854 H858 0.930 . S
C855 C854 1.369 . S
C855 C864 1.429 . S
C856 C854 1.419 . S
C856 C857 1.363 . S
C856 H859 0.929 . S
C857 C856 1.363 . S
C857 C863 1.428 . S
H858 C854 0.930 . S
H859 C856 0.929 . S
S860 N861 1.613 . S
S860 N862 1.610 . S
N861 S860 1.613 . S
N861 C864 1.350 . S
N862 S860 1.610 . S
N862 C863 1.351 . S
C863 C857 1.428 . S
C863 N862 1.351 . S
C863 C864 1.434 . S
C864 C855 1.429 . S
C864 N861 1.350 . S
C864 C863 1.434 . S
C865 C866 1.369 . S
C865 C867 1.419 . S
C865 H869 0.930 . S
C866 C865 1.369 . S
C866 C875 1.429 . S
C867 C865 1.419 . S
C867 C868 1.363 . S
C867 H870 0.929 . S
C868 C867 1.363 . S
C868 C874 1.428 . S
H869 C865 0.930 . S
H870 C867 0.929 . S
S871 N872 1.613 . S
S871 N873 1.610 . S
N872 S871 1.613 . S
N872 C875 1.350 . S
N873 S871 1.610 . S
N873 C874 1.351 . S
C874 C868 1.428 . S
C874 N873 1.351 . S
C874 C875 1.434 . S
C875 C866 1.429 . S
C875 N872 1.350 . S
C875 C874 1.434 . S
C876 C877 1.369 . S
C876 C878 1.419 . S
C876 H880 0.930 . S
C877 C876 1.369 . S
C877 C886 1.429 . S
C878 C876 1.419 . S
C878 C879 1.363 . S
C878 H881 0.929 . S
C879 C878 1.363 . S
C879 C885 1.428 . S
H880 C876 0.930 . S
H881 C878 0.929 . S
S882 N883 1.613 . S
S882 N884 1.610 . S
N883 S882 1.613 . S
N883 C886 1.350 . S
N884 S882 1.610 . S
N884 C885 1.351 . S
C885 C879 1.428 . S
C885 N884 1.351 . S
C885 C886 1.434 . S
C886 C877 1.429 . S
C886 N883 1.350 . S
C886 C885 1.434 . S
C887 C888 1.369 . S
C887 C889 1.419 . S
C887 H891 0.930 . S
C888 C887 1.369 . S
C888 C897 1.429 . S
C889 C887 1.419 . S
C889 C890 1.363 . S
C889 H892 0.929 . S
C890 C889 1.363 . S
C890 C896 1.428 . S
H891 C887 0.930 . S
H892 C889 0.929 . S
S893 N894 1.613 . S
S893 N895 1.610 . S
N894 S893 1.613 . S
N894 C897 1.350 . S
N895 S893 1.610 . S
N895 C896 1.351 . S
C896 C890 1.428 . S
C896 N895 1.351 . S
C896 C897 1.434 . S
C897 C888 1.429 . S
C897 N894 1.350 . S
C897 C896 1.434 . S
C898 C899 1.369 . S
C898 C900 1.419 . S
C898 H902 0.930 . S
C899 C898 1.369 . S
C899 C908 1.429 . S
C900 C898 1.419 . S
C900 C901 1.363 . S
C900 H903 0.929 . S
C901 C900 1.363 . S
C901 C907 1.428 . S
H902 C898 0.930 . S
H903 C900 0.929 . S
S904 N905 1.613 . S
S904 N906 1.610 . S
N905 S904 1.613 . S
N905 C908 1.350 . S
N906 S904 1.610 . S
N906 C907 1.351 . S
C907 C901 1.428 . S
C907 N906 1.351 . S
C907 C908 1.434 . S
C908 C899 1.429 . S
C908 N905 1.350 . S
C908 C907 1.434 . S
C909 C910 1.369 . S
C909 C911 1.419 . S
C909 H913 0.930 . S
C910 C909 1.369 . S
C910 C919 1.429 . S
C911 C909 1.419 . S
C911 C912 1.363 . S
C911 H914 0.929 . S
C912 C911 1.363 . S
C912 C918 1.428 . S
H913 C909 0.930 . S
H914 C911 0.929 . S
S915 N916 1.613 . S
S915 N917 1.610 . S
N916 S915 1.613 . S
N916 C919 1.350 . S
N917 S915 1.610 . S
N917 C918 1.351 . S
C918 C912 1.428 . S
C918 N917 1.351 . S
C918 C919 1.434 . S
C919 C910 1.429 . S
C919 N916 1.350 . S
C919 C918 1.434 . S
C571 C173 1.497 . S
C569 C7 1.417 . S
C582 C226 1.302 . S
C580 C32 1.255 . S
C593 C289 1.546 . S
C591 C44 1.502 . S
C604 C332 1.283 . S
C602 C62 1.228 . S
C613 C88 1.492 . S
C615 C288 1.549 . S
C626 C325 1.324 . S
C624 C106 1.269 . S
C637 C166 1.498 . S
C635 C124 1.420 . S
C648 C219 1.258 . S
C646 C140 1.202 . S
C659 C272 1.540 . S
C657 C142 1.450 . S
C670 C341 1.815 . S
C668 C86 1.748 . S
C681 C182 1.584 . S
C679 C104 1.520 . S
C692 C235 1.756 . S
C690 C122 1.674 . S
C703 C183 1.580 . S
C701 C34 1.496 . S
C714 C236 1.807 . S
C712 C43 1.735 . S
C725 C279 1.547 . S
C723 C61 1.452 . S
C736 C342 1.773 . S
C734 C8 1.686 . S
C747 C385 1.486 . S
C745 C133 1.399 . S
C756 C80 1.615 . S
C758 C438 1.680 . S
C767 C98 1.513 . S
C769 C500 1.564 . S
C778 C116 1.622 . S
C780 C554 1.684 . S
C789 C25 1.460 . S
C791 C501 1.520 . S
C800 C52 1.676 . S
C802 C553 1.739 . S
C811 C70 1.451 . S
C813 C378 1.513 . S
C824 C431 1.641 . S
C822 C14 1.567 . S
C835 C491 1.514 . S
C833 C16 1.418 . S
C844 C26 1.308 . S
C846 C537 1.383 . S
C855 C50 1.536 . S
C857 C394 1.603 . S
C866 C68 1.301 . S
C868 C447 1.360 . S
C879 C395 1.551 . S
C877 C79 1.475 . S
C890 C448 1.410 . S
C888 C97 1.358 . S
C899 C115 1.474 . S
C901 C484 1.560 . S
C912 C544 1.334 . S
C910 C134 1.269 . S
