# Generated by pormake.
# Topology csq, (4,8)-cn, num edge types: 1
# Building blocks:
#     Node 0, Type 0, BuildingBlock: AZAVOO_clean_linker_0, # of connection points: 4
#     Node 1, Type 0, BuildingBlock: AZAVOO_clean_linker_0, # of connection points: 4
#     Node 2, Type 0, BuildingBlock: AZAVOO_clean_linker_0, # of connection points: 4
#     Node 3, Type 0, BuildingBlock: AZAVOO_clean_linker_0, # of connection points: 4
#     Node 4, Type 0, BuildingBlock: AZAVOO_clean_linker_0, # of connection points: 4
#     Node 5, Type 0, BuildingBlock: AZAVOO_clean_linker_0, # of connection points: 4
#     Node 6, Type 1, BuildingBlock: TAGTUT_clean_sbu_1, # of connection points: 8
#     Node 7, Type 1, BuildingBlock: TAGTUT_clean_sbu_1, # of connection points: 8
#     Node 8, Type 1, BuildingBlock: TAGTUT_clean_sbu_1, # of connection points: 8
#     Edge 9, Type (0, 1), BuildingBlock: TEMPAE_clean_linker_10, # of connection points: 2
#     Edge 10, Type (0, 1), BuildingBlock: TEMPAE_clean_linker_10, # of connection points: 2
#     Edge 11, Type (0, 1), BuildingBlock: TEMPAE_clean_linker_10, # of connection points: 2
#     Edge 12, Type (0, 1), BuildingBlock: TEMPAE_clean_linker_10, # of connection points: 2
#     Edge 13, Type (0, 1), BuildingBlock: TEMPAE_clean_linker_10, # of connection points: 2
#     Edge 14, Type (0, 1), BuildingBlock: TEMPAE_clean_linker_10, # of connection points: 2
#     Edge 15, Type (0, 1), BuildingBlock: TEMPAE_clean_linker_10, # of connection points: 2
#     Edge 16, Type (0, 1), BuildingBlock: TEMPAE_clean_linker_10, # of connection points: 2
#     Edge 17, Type (0, 1), BuildingBlock: TEMPAE_clean_linker_10, # of connection points: 2
#     Edge 18, Type (0, 1), BuildingBlock: TEMPAE_clean_linker_10, # of connection points: 2
#     Edge 19, Type (0, 1), BuildingBlock: TEMPAE_clean_linker_10, # of connection points: 2
#     Edge 20, Type (0, 1), BuildingBlock: TEMPAE_clean_linker_10, # of connection points: 2
#     Edge 21, Type (0, 1), BuildingBlock: TEMPAE_clean_linker_10, # of connection points: 2
#     Edge 22, Type (0, 1), BuildingBlock: TEMPAE_clean_linker_10, # of connection points: 2
#     Edge 23, Type (0, 1), BuildingBlock: TEMPAE_clean_linker_10, # of connection points: 2
#     Edge 24, Type (0, 1), BuildingBlock: TEMPAE_clean_linker_10, # of connection points: 2
#     Edge 25, Type (0, 1), BuildingBlock: TEMPAE_clean_linker_10, # of connection points: 2
#     Edge 26, Type (0, 1), BuildingBlock: TEMPAE_clean_linker_10, # of connection points: 2
#     Edge 27, Type (0, 1), BuildingBlock: TEMPAE_clean_linker_10, # of connection points: 2
#     Edge 28, Type (0, 1), BuildingBlock: TEMPAE_clean_linker_10, # of connection points: 2
#     Edge 29, Type (0, 1), BuildingBlock: TEMPAE_clean_linker_10, # of connection points: 2
#     Edge 30, Type (0, 1), BuildingBlock: TEMPAE_clean_linker_10, # of connection points: 2
#     Edge 31, Type (0, 1), BuildingBlock: TEMPAE_clean_linker_10, # of connection points: 2
#     Edge 32, Type (0, 1), BuildingBlock: TEMPAE_clean_linker_10, # of connection points: 2
# Relax obj value: 0.131
# Max RMSD: 0.238
# Mean RMSD: 0.201
data_MOF--net-csq--node1-TAGTUT_clean_sbu_1--node2-AZAVOO_clean_linker_0--edge1-TEMPAE_clean_linker_10
_symmetry_space_group_name_H-M    P1
_symmetry_Int_Tables_number       1
_symmetry_cell_setting            triclinic
loop_
_symmetry_equiv_pos_as_xyz
'x, y, z'
_cell_length_a     57.621967
_cell_length_b     56.686378
_cell_length_c     23.818958
_cell_angle_alpha  92.596876
_cell_angle_beta   92.273187
_cell_angle_gamma 119.84956
loop_
_atom_site_label
_atom_site_type_symbol
_atom_site_fract_x
_atom_site_fract_y
_atom_site_fract_z
_atom_type_partial_charge
H0 H 0.17474 0.46316 0.47836 0.0
H1 H 0.42643 0.52891 0.16473 0.0
H2 H 0.18335 0.44319 0.16635 0.0
H3 H 0.14686 0.4409 0.21912 0.0
H4 H 0.18439 0.52874 0.22473 0.0
H5 H 0.22011 0.53058 0.17055 0.0
H6 H 0.21867 0.44815 0.27117 0.0
H7 H 0.19739 0.44626 0.35912 0.0
H8 H 0.2266 0.53289 0.36051 0.0
H9 H 0.24792 0.53447 0.27277 0.0
H10 H 0.27893 0.45536 0.2553 0.0
H11 H 0.3025 0.45911 0.34586 0.0
H12 H 0.31996 0.5424 0.3751 0.0
H13 H 0.29719 0.53867 0.2833 0.0
H14 H 0.29295 0.45259 0.13181 0.0
H15 H 0.33713 0.45643 0.12925 0.0
H16 H 0.3747 0.54272 0.17817 0.0
H17 H 0.33038 0.5386 0.17991 0.0
H18 H 0.25834 0.44569 0.03971 0.0
H19 H 0.28237 0.44465 0.95821 0.0
H20 H 0.32794 0.53278 0.97185 0.0
H21 H 0.30289 0.53351 0.05202 0.0
H22 H 0.21529 0.44487 0.03 0.0
H23 H 0.19052 0.44206 0.94133 0.0
H24 H 0.20723 0.5245 0.97873 0.0
H25 H 0.23297 0.52763 0.06613 0.0
O26 O 0.18366 0.46444 0.44411 0.0
O27 O 0.19748 0.50858 0.44055 0.0
O28 O 0.38842 0.48245 0.13946 0.0
O29 O 0.40872 0.52682 0.16523 0.0
C30 C 0.23115 0.48942 0.15981 0.0
C31 C 0.24615 0.49202 0.21045 0.0
C32 C 0.27145 0.49411 0.20892 0.0
C33 C 0.28176 0.49301 0.15675 0.0
C34 C 0.2668 0.49012 0.10572 0.0
C35 C 0.24144 0.48849 0.10725 0.0
C36 C 0.20445 0.48705 0.16458 0.0
C37 C 0.1828 0.46176 0.17601 0.0
C38 C 0.16231 0.46059 0.20751 0.0
C39 C 0.16314 0.48471 0.22801 0.0
C40 C 0.183 0.50971 0.20992 0.0
C41 C 0.20338 0.51082 0.17815 0.0
C42 C 0.2347 0.49141 0.26564 0.0
C43 C 0.22062 0.46671 0.29086 0.0
C44 C 0.20844 0.4657 0.34098 0.0
C45 C 0.21022 0.48942 0.36676 0.0
C46 C 0.22479 0.51424 0.34171 0.0
C47 C 0.23702 0.51523 0.29171 0.0
C48 C 0.28669 0.49683 0.26266 0.0
C49 C 0.28801 0.47442 0.28121 0.0
C50 C 0.30102 0.47649 0.3334 0.0
C51 C 0.31281 0.50098 0.36806 0.0
C52 C 0.31114 0.5233 0.34939 0.0
C53 C 0.29826 0.52125 0.29702 0.0
C54 C 0.30854 0.49535 0.15568 0.0
C55 C 0.31077 0.47231 0.14165 0.0
C56 C 0.33601 0.47456 0.14037 0.0
C57 C 0.35947 0.49991 0.15345 0.0
C58 C 0.35707 0.52291 0.16781 0.0
C59 C 0.33181 0.52063 0.16891 0.0
C60 C 0.27849 0.48967 0.05125 0.0
C61 C 0.27289 0.46477 0.02393 0.0
C62 C 0.28698 0.46425 0.97783 0.0
C63 C 0.30732 0.48864 0.9585 0.0
C64 C 0.31222 0.5136 0.98491 0.0
C65 C 0.29794 0.51409 0.03084 0.0
C66 C 0.2261 0.48653 0.05422 0.0
C67 C 0.21403 0.46249 0.01854 0.0
C68 C 0.19993 0.4609 0.96806 0.0
C69 C 0.19719 0.48313 0.95331 0.0
C70 C 0.20913 0.50712 0.98931 0.0
C71 C 0.22367 0.50887 0.03919 0.0
C72 C 0.19679 0.48818 0.41934 0.0
C73 C 0.38634 0.50242 0.15222 0.0
H74 H 0.82836 0.34766 0.46342 0.0
H75 H 0.66152 0.05379 0.18334 0.0
H76 H 0.79287 0.2974 0.15842 0.0
H77 H 0.82404 0.34585 0.18416 0.0
H78 H 0.88966 0.32949 0.19628 0.0
H79 H 0.85835 0.28114 0.17045 0.0
H80 H 0.76823 0.27009 0.27019 0.0
H81 H 0.78649 0.30295 0.35278 0.0
H82 H 0.85812 0.29629 0.35833 0.0
H83 H 0.83947 0.26324 0.27621 0.0
H84 H 0.72026 0.20603 0.23607 0.0
H85 H 0.69739 0.18883 0.32202 0.0
H86 H 0.76913 0.19432 0.399 0.0
H87 H 0.79177 0.21048 0.31166 0.0
H88 H 0.70931 0.18278 0.12054 0.0
H89 H 0.67195 0.1359 0.11832 0.0
H90 H 0.72376 0.11226 0.2049 0.0
H91 H 0.76108 0.15914 0.20594 0.0
H92 H 0.74503 0.22616 0.03804 0.0
H93 H 0.71343 0.19698 0.96051 0.0
H94 H 0.73469 0.13525 0.98988 0.0
H95 H 0.76744 0.16534 0.06648 0.0
H96 H 0.78598 0.26868 0.03453 0.0
H97 H 0.81651 0.29498 0.96454 0.0
H98 H 0.86973 0.26539 0.01631 0.0
H99 H 0.83779 0.23738 0.08231 0.0
O100 O 0.82121 0.33413 0.43169 0.0
O101 O 0.85744 0.32966 0.43307 0.0
O102 O 0.65027 0.08561 0.13831 0.0
O103 O 0.67596 0.07249 0.18357 0.0
C104 C 0.80382 0.2565 0.16383 0.0
C105 C 0.79241 0.2461 0.21467 0.0
C106 C 0.77097 0.21909 0.21453 0.0
C107 C 0.76086 0.20262 0.16316 0.0
C108 C 0.77249 0.2132 0.11217 0.0
C109 C 0.7946 0.23986 0.11316 0.0
C110 C 0.82344 0.28592 0.16339 0.0
C111 C 0.81414 0.30454 0.16446 0.0
C112 C 0.8319 0.33211 0.17906 0.0
C113 C 0.85914 0.34129 0.19264 0.0
C114 C 0.86879 0.323 0.18543 0.0
C115 C 0.85097 0.29538 0.17102 0.0
C116 C 0.80248 0.26423 0.2675 0.0
C117 C 0.78769 0.27549 0.28984 0.0
C118 C 0.79825 0.29437 0.33678 0.0
C119 C 0.8238 0.3023 0.36208 0.0
C120 C 0.83838 0.29063 0.3399 0.0
C121 C 0.82777 0.27172 0.2931 0.0
C122 C 0.75751 0.20905 0.26725 0.0
C123 C 0.73099 0.20326 0.27116 0.0
C124 C 0.71807 0.19372 0.32027 0.0
C125 C 0.73166 0.19045 0.36674 0.0
C126 C 0.75844 0.19695 0.36363 0.0
C127 C 0.77125 0.20601 0.31391 0.0
C128 C 0.73796 0.17429 0.1629 0.0
C129 C 0.71258 0.16741 0.13867 0.0
C130 C 0.69126 0.14064 0.13764 0.0
C131 C 0.69488 0.1203 0.16135 0.0
C132 C 0.72029 0.12739 0.18618 0.0
C133 C 0.74163 0.15415 0.18692 0.0
C134 C 0.75875 0.19803 0.05759 0.0
C135 C 0.74392 0.20695 0.02609 0.0
C136 C 0.72551 0.19004 0.98241 0.0
C137 C 0.72131 0.1637 0.96989 0.0
C138 C 0.73763 0.15551 0.99856 0.0
C139 C 0.7563 0.17263 0.04223 0.0
C140 C 0.80936 0.25062 0.06246 0.0
C141 C 0.80357 0.26686 0.02863 0.0
C142 C 0.82146 0.28243 0.98964 0.0
C143 C 0.84598 0.28283 0.98528 0.0
C144 C 0.85101 0.26545 0.01761 0.0
C145 C 0.83274 0.24934 0.05547 0.0
C146 C 0.83524 0.32281 0.4111 0.0
C147 C 0.6723 0.0918 0.16028 0.0
H148 H 0.51854 0.81706 0.73728 0.0
H149 H 0.51956 0.61216 0.17076 0.0
H150 H 0.57717 0.84023 0.04979 0.0
H151 H 0.57894 0.87657 0.99506 0.0
H152 H 0.49295 0.83981 0.9952 0.0
H153 H 0.49122 0.8032 0.0495 0.0
H154 H 0.56211 0.80414 0.95205 0.0
H155 H 0.55177 0.81368 0.85808 0.0
H156 H 0.46727 0.75944 0.87552 0.0
H157 H 0.47794 0.75024 0.96974 0.0
H158 H 0.56425 0.75847 0.96471 0.0
H159 H 0.5681 0.7238 0.90739 0.0
H160 H 0.49274 0.66146 0.96203 0.0
H161 H 0.48823 0.69644 0.01725 0.0
H162 H 0.57481 0.73751 0.08137 0.0
H163 H 0.57766 0.69681 0.09928 0.0
H164 H 0.49801 0.65898 0.15921 0.0
H165 H 0.49523 0.6996 0.13999 0.0
H166 H 0.5865 0.77777 0.18673 0.0
H167 H 0.59226 0.75072 0.25712 0.0
H168 H 0.50848 0.71477 0.28891 0.0
H169 H 0.50315 0.74234 0.21938 0.0
H170 H 0.58843 0.8312 0.1583 0.0
H171 H 0.60028 0.87473 0.20944 0.0
H172 H 0.51667 0.84415 0.23651 0.0
H173 H 0.50502 0.80087 0.18492 0.0
O174 O 0.52222 0.81227 0.77373 0.0
O175 O 0.47911 0.78324 0.78358 0.0
O176 O 0.55902 0.64811 0.12834 0.0
O177 O 0.51905 0.62859 0.16379 0.0
C178 C 0.53244 0.79349 0.06961 0.0
C179 C 0.52682 0.77297 0.02674 0.0
C180 C 0.52747 0.74942 0.04007 0.0
C181 C 0.53287 0.74588 0.09643 0.0
C182 C 0.53813 0.76624 0.13955 0.0
C183 C 0.53837 0.79027 0.12589 0.0
C184 C 0.53408 0.81917 0.05351 0.0
C185 C 0.55886 0.84069 0.04023 0.0
C186 C 0.55983 0.86126 0.00874 0.0
C187 C 0.53605 0.86071 0.99093 0.0
C188 C 0.51151 0.84066 0.00898 0.0
C189 C 0.51051 0.81986 0.03998 0.0
C190 C 0.52076 0.77656 0.96761 0.0
C191 C 0.5414 0.79418 0.93528 0.0
C192 C 0.53543 0.79964 0.88168 0.0
C193 C 0.50867 0.78746 0.85941 0.0
C194 C 0.48808 0.76922 0.89148 0.0
C195 C 0.49411 0.76382 0.94514 0.0
C196 C 0.52594 0.72989 0.99491 0.0
C197 C 0.54797 0.73753 0.96225 0.0
C198 C 0.55032 0.71777 0.9302 0.0
C199 C 0.5309 0.69019 0.93144 0.0
C200 C 0.508 0.68271 0.96117 0.0
C201 C 0.50533 0.70257 0.99215 0.0
C202 C 0.53487 0.7215 0.10964 0.0
C203 C 0.55803 0.72041 0.09845 0.0
C204 C 0.55959 0.69715 0.10867 0.0
C205 C 0.53802 0.67461 0.13055 0.0
C206 C 0.51496 0.67595 0.14229 0.0
C207 C 0.51335 0.69915 0.1316 0.0
C208 C 0.54437 0.76187 0.19771 0.0
C209 C 0.56983 0.76534 0.21142 0.0
C210 C 0.57292 0.74941 0.25082 0.0
C211 C 0.5506 0.72992 0.27713 0.0
C212 C 0.52606 0.72948 0.26926 0.0
C213 C 0.52301 0.74548 0.22988 0.0
C214 C 0.54595 0.81291 0.16874 0.0
C215 C 0.57284 0.83366 0.17694 0.0
C216 C 0.5795 0.85855 0.20531 0.0
C217 C 0.55933 0.86279 0.22629 0.0
C218 C 0.53259 0.84131 0.22096 0.0
C219 C 0.52592 0.81656 0.192 0.0
C220 C 0.50234 0.79407 0.8033 0.0
C221 C 0.53944 0.64971 0.14078 0.0
H222 H 0.72381 0.54139 0.43381 0.0
H223 H 0.95436 0.57889 0.04384 0.0
H224 H 0.71949 0.49796 0.10367 0.0
H225 H 0.68273 0.48988 0.16223 0.0
H226 H 0.71236 0.57656 0.1811 0.0
H227 H 0.7487 0.58434 0.12156 0.0
H228 H 0.75076 0.51144 0.21803 0.0
H229 H 0.7355 0.51583 0.3103 0.0
H230 H 0.77539 0.60333 0.30201 0.0
H231 H 0.79116 0.59866 0.21035 0.0
H232 H 0.79824 0.51384 0.21578 0.0
H233 H 0.81958 0.51874 0.30966 0.0
H234 H 0.87026 0.60516 0.29427 0.0
H235 H 0.84831 0.60011 0.2001 0.0
H236 H 0.83007 0.51436 0.12925 0.0
H237 H 0.87333 0.51677 0.11989 0.0
H238 H 0.90278 0.59351 0.04371 0.0
H239 H 0.85956 0.59103 0.05412 0.0
H240 H 0.79934 0.49898 0.0166 0.0
H241 H 0.82324 0.49189 0.94204 0.0
H242 H 0.84054 0.56894 0.87867 0.0
H243 H 0.81773 0.57649 0.95635 0.0
H244 H 0.74 0.49641 0.98622 0.0
H245 H 0.71082 0.49034 0.90253 0.0
H246 H 0.74173 0.57741 0.91066 0.0
H247 H 0.77004 0.58301 0.99524 0.0
O248 O 0.73028 0.54018 0.39752 0.0
O249 O 0.7488 0.58474 0.38869 0.0
O250 O 0.92144 0.53861 0.09004 0.0
O251 O 0.93725 0.57769 0.04909 0.0
C252 C 0.76458 0.54691 0.10188 0.0
C253 C 0.78116 0.55197 0.15144 0.0
C254 C 0.80626 0.55369 0.14835 0.0
C255 C 0.81512 0.55051 0.09583 0.0
C256 C 0.79848 0.54503 0.04594 0.0
C257 C 0.77341 0.54381 0.0489 0.0
C258 C 0.73695 0.54176 0.10868 0.0
C259 C 0.71708 0.51505 0.11743 0.0
C260 C 0.69641 0.51053 0.15202 0.0
C261 C 0.6952 0.53266 0.17791 0.0
C262 C 0.71278 0.55906 0.16212 0.0
C263 C 0.73344 0.56355 0.1274 0.0
C264 C 0.77191 0.55472 0.20754 0.0
C265 C 0.75623 0.53153 0.23634 0.0
C266 C 0.74752 0.5341 0.28897 0.0
C267 C 0.75402 0.55991 0.31331 0.0
C268 C 0.7699 0.58314 0.28432 0.0
C269 C 0.77893 0.58056 0.23204 0.0
C270 C 0.82194 0.5566 0.20134 0.0
C271 C 0.81406 0.53379 0.2326 0.0
C272 C 0.82593 0.53669 0.28636 0.0
C273 C 0.84612 0.56242 0.30941 0.0
C274 C 0.85453 0.58518 0.27741 0.0
C275 C 0.84232 0.5823 0.22369 0.0
C276 C 0.84179 0.55264 0.09283 0.0
C277 C 0.84603 0.53186 0.11133 0.0
C278 C 0.87069 0.53321 0.10559 0.0
C279 C 0.89152 0.55534 0.08099 0.0
C280 C 0.8872 0.57619 0.06284 0.0
C281 C 0.86256 0.57486 0.06881 0.0
C282 C 0.80684 0.53826 0.99207 0.0
C283 C 0.80772 0.51402 0.98577 0.0
C284 C 0.82139 0.50998 0.94272 0.0
C285 C 0.83416 0.52992 0.90411 0.0
C286 C 0.83148 0.55336 0.90816 0.0
C287 C 0.81807 0.55756 0.95198 0.0
C288 C 0.75682 0.54008 0.99684 0.0
C289 C 0.74047 0.51411 0.96957 0.0
C290 C 0.72407 0.51076 0.9215 0.0
C291 C 0.7239 0.53341 0.89992 0.0
C292 C 0.74108 0.55952 0.92659 0.0
C293 C 0.75728 0.56278 0.9748 0.0
C294 C 0.74426 0.56248 0.36872 0.0
C295 C 0.91759 0.55662 0.0738 0.0
H296 H 0.28335 0.8814 0.41285 0.0
H297 H 0.09904 0.61197 0.03331 0.0
H298 H 0.28457 0.85518 0.1157 0.0
H299 H 0.32213 0.88908 0.17926 0.0
H300 H 0.34999 0.8317 0.19936 0.0
H301 H 0.31251 0.79813 0.13648 0.0
H302 H 0.23738 0.82829 0.18796 0.0
H303 H 0.2521 0.85425 0.27992 0.0
H304 H 0.29414 0.81152 0.32402 0.0
H305 H 0.27904 0.78555 0.23216 0.0
H306 H 0.18214 0.77361 0.15584 0.0
H307 H 0.14794 0.74866 0.22182 0.0
H308 H 0.19149 0.70841 0.27354 0.0
H309 H 0.22578 0.73416 0.20946 0.0
H310 H 0.17232 0.74754 0.034 0.0
H311 H 0.12973 0.70516 0.01098 0.0
H312 H 0.16485 0.65929 0.07731 0.0
H313 H 0.2073 0.70185 0.10001 0.0
H314 H 0.20792 0.75724 0.9425 0.0
H315 H 0.1856 0.71608 0.87826 0.0
H316 H 0.23107 0.68445 0.962 0.0
H317 H 0.25378 0.72602 0.02544 0.0
H318 H 0.24966 0.80595 0.9577 0.0
H319 H 0.27567 0.82344 0.8754 0.0
H320 H 0.33932 0.81406 0.95255 0.0
H321 H 0.31252 0.79494 0.03357 0.0
O322 O 0.27709 0.87036 0.37743 0.0
O323 O 0.29878 0.84817 0.39754 0.0
O324 O 0.09917 0.65335 0.00446 0.0
O325 O 0.11562 0.62902 0.04197 0.0
C326 C 0.2689 0.80118 0.10409 0.0
C327 C 0.25019 0.79119 0.14606 0.0
C328 C 0.22504 0.76764 0.13381 0.0
C329 C 0.2188 0.75337 0.08057 0.0
C330 C 0.23763 0.76288 0.03915 0.0
C331 C 0.26224 0.78745 0.04972 0.0
C332 C 0.29603 0.82433 0.12082 0.0
C333 C 0.29961 0.85051 0.1315 0.0
C334 C 0.32076 0.86962 0.16862 0.0
C335 C 0.33869 0.86282 0.19502 0.0
C336 C 0.33663 0.83762 0.17944 0.0
C337 C 0.3154 0.8185 0.14279 0.0
C338 C 0.25725 0.80518 0.20352 0.0
C339 C 0.24951 0.82438 0.21786 0.0
C340 C 0.25805 0.83925 0.27028 0.0
C341 C 0.27442 0.83506 0.30923 0.0
C342 C 0.28161 0.8153 0.295 0.0
C343 C 0.27298 0.8004 0.24266 0.0
C344 C 0.20639 0.75573 0.1785 0.0
C345 C 0.18447 0.75986 0.18259 0.0
C346 C 0.16489 0.74541 0.21979 0.0
C347 C 0.16693 0.72649 0.25293 0.0
C348 C 0.18949 0.72317 0.2496 0.0
C349 C 0.20908 0.73776 0.21289 0.0
C350 C 0.19277 0.72767 0.06868 0.0
C351 C 0.17068 0.7283 0.04372 0.0
C352 C 0.14644 0.70408 0.0305 0.0
C353 C 0.14389 0.67882 0.0423 0.0
C354 C 0.1661 0.67837 0.06776 0.0
C355 C 0.19034 0.70262 0.08085 0.0
C356 C 0.23249 0.74458 0.98832 0.0
C357 C 0.21421 0.74218 0.94479 0.0
C358 C 0.20137 0.71857 0.90844 0.0
C359 C 0.20649 0.69707 0.91582 0.0
C360 C 0.22679 0.70076 0.95575 0.0
C361 C 0.23993 0.72455 0.99149 0.0
C362 C 0.27931 0.79952 0.0022 0.0
C363 C 0.26917 0.80752 0.95685 0.0
C364 C 0.28392 0.81739 0.90986 0.0
C365 C 0.30934 0.81995 0.9079 0.0
C366 C 0.31973 0.81228 0.95345 0.0
C367 C 0.30462 0.80173 -2e-05 0.0
C368 C 0.28417 0.85149 0.36414 0.0
C369 C 0.1182 0.65303 0.02829 0.0
H370 H 0.38525 0.19102 0.7885 0.0
H371 H 0.42953 0.05356 0.314 0.0
H372 H 0.47839 0.26064 0.10555 0.0
H373 H 0.48409 0.29901 0.05323 0.0
H374 H 0.39802 0.26412 0.03529 0.0
H375 H 0.39255 0.22618 0.08974 0.0
H376 H 0.44756 0.2141 0.00395 0.0
H377 H 0.42869 0.20944 0.9076 0.0
H378 H 0.34941 0.15541 0.96036 0.0
H379 H 0.36853 0.16052 0.05679 0.0
H380 H 0.44472 0.16241 0.02907 0.0
H381 H 0.43458 0.12018 0.97667 0.0
H382 H 0.36877 0.07472 0.08015 0.0
H383 H 0.37891 0.11765 0.13238 0.0
H384 H 0.46917 0.15604 0.14621 0.0
H385 H 0.47383 0.11869 0.18201 0.0
H386 H 0.40812 0.09947 0.28724 0.0
H387 H 0.40344 0.13665 0.25042 0.0
H388 H 0.49659 0.2114 0.21983 0.0
H389 H 0.51606 0.19749 0.2954 0.0
H390 H 0.44533 0.17334 0.3868 0.0
H391 H 0.42605 0.18746 0.31098 0.0
H392 H 0.49355 0.25869 0.2245 0.0
H393 H 0.50605 0.30358 0.27065 0.0
H394 H 0.42247 0.28105 0.26428 0.0
H395 H 0.41012 0.23633 0.21972 0.0
O396 O 0.39228 0.19259 0.82692 0.0
O397 O 0.35197 0.16477 0.8561 0.0
O398 O 0.46023 0.0777 0.2407 0.0
O399 O 0.42812 0.06845 0.2992 0.0
C400 C 0.4321 0.21617 0.12813 0.0
C401 C 0.42082 0.19087 0.09608 0.0
C402 C 0.42112 0.16858 0.11936 0.0
C403 C 0.43329 0.17174 0.17383 0.0
C404 C 0.44448 0.19702 0.20603 0.0
C405 C 0.443 0.21891 0.18394 0.0
C406 C 0.43507 0.24059 0.10126 0.0
C407 C 0.46079 0.26155 0.0913 0.0
C408 C 0.46398 0.2833 0.06091 0.0
C409 C 0.44149 0.28441 0.03952 0.0
C410 C 0.41573 0.26391 0.05149 0.0
C411 C 0.41256 0.24217 0.08224 0.0
C412 C 0.40937 0.18784 0.03741 0.0
C413 C 0.4261 0.20141 0.99467 0.0
C414 C 0.41528 0.19864 0.93963 0.0
C415 C 0.38753 0.18209 0.92628 0.0
C416 C 0.37086 0.16835 0.96923 0.0
C417 C 0.38171 0.1712 0.02429 0.0
C418 C 0.41236 0.14307 0.08394 0.0
C419 C 0.42762 0.14347 0.0394 0.0
C420 C 0.42178 0.11932 0.00958 0.0
C421 C 0.4007 0.09423 0.02409 0.0
C422 C 0.38505 0.09383 0.06817 0.0
C423 C 0.39076 0.11821 0.09774 0.0
C424 C 0.43599 0.149 0.19579 0.0
C425 C 0.45576 0.14366 0.17685 0.0
C426 C 0.45839 0.12235 0.19741 0.0
C427 C 0.4413 0.10606 0.23744 0.0
C428 C 0.42158 0.1116 0.25645 0.0
C429 C 0.41888 0.13282 0.23557 0.0
C430 C 0.4599 0.20038 0.25994 0.0
C431 C 0.48596 0.20457 0.25762 0.0
C432 C 0.49689 0.19626 0.30042 0.0
C433 C 0.48196 0.18383 0.34631 0.0
C434 C 0.45732 0.18293 0.35197 0.0
C435 C 0.44633 0.19117 0.30889 0.0
C436 C 0.45092 0.24423 0.2193 0.0
C437 C 0.47796 0.26325 0.23449 0.0
C438 C 0.48507 0.28888 0.26012 0.0
C439 C 0.46521 0.2958 0.26986 0.0
C440 C 0.43816 0.27636 0.25613 0.0
C441 C 0.43109 0.25077 0.23139 0.0
C442 C 0.37609 0.17922 0.86776 0.0
C443 C 0.44389 0.08327 0.2591 0.0
C444 C 0.98173 0.42129 0.74663 0.0
C445 C 0.06 0.46645 0.67761 0.0
C446 C 0.04845 0.55308 0.70551 0.0
Mg447 Mg 0.00158 0.43975 0.6288 0.0
O448 O -0.00043 0.46994 0.65785 0.0
Mg449 Mg 0.0204 0.48894 0.73113 0.0
Mg450 Mg 0.01093 0.50203 0.61267 0.0
O451 O 0.02249 0.53445 0.56827 0.0
Mg452 Mg 0.01977 0.56388 0.60072 0.0
Mg453 Mg -0.00047 0.5152 0.4974 0.0
C454 C 0.97535 0.45145 0.51974 0.0
C455 C 0.04506 0.49787 0.50968 0.0
O456 O 0.99601 0.44613 0.76771 0.0
O457 O 0.98034 0.41445 0.69403 0.0
O458 O 0.05423 0.4804 0.71193 0.0
O459 O 0.043 0.4495 0.63927 0.0
O460 O 0.98172 0.4358 0.54568 0.0
O461 O 0.98097 0.47501 0.54155 0.0
C462 C 0.974 0.50514 0.7116 0.0
O463 O 0.97934 0.5082 0.65964 0.0
O464 O 0.98677 0.49807 0.74575 0.0
O465 O 0.02199 0.55767 0.4608 0.0
O466 O 0.03645 0.58991 0.53317 0.0
O467 O 0.96659 0.52401 0.52266 0.0
C468 C 0.03443 0.58278 0.48052 0.0
O469 O 0.97833 0.55271 0.59918 0.0
O470 O 0.04238 0.5692 0.6807 0.0
C471 C 0.96106 0.53699 0.56 0.0
O472 O 0.04075 0.52882 0.68472 0.0
O473 O 0.04185 0.4954 0.56279 0.0
O474 O 0.03182 0.50537 0.47802 0.0
C475 C 0.45184 0.99194 0.7873 0.0
C476 C 0.43408 0.93597 0.65133 0.0
C477 C 0.53835 0.96935 0.66754 0.0
Mg478 Mg 0.4568 0.99717 0.65778 0.0
O479 O 0.49141 0.0047 0.68154 0.0
Mg480 Mg 0.49395 0.97633 0.72515 0.0
Mg481 Mg 0.51444 0.0064 0.61997 0.0
O482 O 0.53776 0.00808 0.55975 0.0
Mg483 Mg 0.57199 0.01414 0.58363 0.0
Mg484 Mg 0.53671 0.03723 0.51674 0.0
C485 C 0.49135 0.04513 0.5781 0.0
C486 C 0.47761 0.98317 0.50177 0.0
O487 O 0.46956 0.98448 0.79065 0.0
O488 O 0.4446 0.99828 0.74143 0.0
O489 O 0.45399 0.94133 0.68557 0.0
O490 O 0.43231 0.95487 0.62788 0.0
O491 O 0.46906 0.03023 0.60052 0.0
O492 O 0.51179 0.04193 0.58613 0.0
C493 C 0.55267 0.03103 0.73612 0.0
O494 O 0.54969 0.03366 0.68357 0.0
O495 O 0.53435 0.01161 0.76145 0.0
O496 O 0.56017 0.02653 0.45168 0.0
O497 O 0.58245 0.00975 0.50049 0.0
O498 O 0.57686 0.07174 0.55863 0.0
C499 C 0.57561 0.01613 0.4542 0.0
O500 O 0.59759 0.056 0.61306 0.0
O501 O 0.5608 0.98353 0.64548 0.0
C502 C 0.59638 0.07581 0.59284 0.0
O503 O 0.51771 0.97154 0.65496 0.0
O504 O 0.47901 0.97909 0.55418 0.0
O505 O 0.49685 0.00309 0.47959 0.0
C506 C 0.54778 0.5721 0.46363 0.0
C507 C 0.58024 0.51976 0.49358 0.0
C508 C 0.47786 0.44277 0.52744 0.0
Mg509 Mg 0.56459 0.55349 0.57165 0.0
O510 O 0.52812 0.52671 0.56007 0.0
Mg511 Mg 0.51509 0.50467 0.48616 0.0
Mg512 Mg 0.5117 0.49745 0.61278 0.0
O513 O 0.49466 0.46807 0.66589 0.0
Mg514 Mg 0.45778 0.44296 0.65223 0.0
Mg515 Mg 0.50554 0.49203 0.73761 0.0
C516 C 0.54564 0.55222 0.69684 0.0
C517 C 0.55835 0.49441 0.68703 0.0
O518 O 0.53088 0.54703 0.44694 0.0
O519 O 0.56219 0.57886 0.51032 0.0
O520 O 0.55579 0.50772 0.47389 0.0
O521 O 0.58852 0.53731 0.53603 0.0
O522 O 0.56373 0.56412 0.66167 0.0
O523 O 0.52429 0.52922 0.68392 0.0
C524 C 0.46268 0.49874 0.54398 0.0
O525 O 0.47225 0.49727 0.59222 0.0
O526 O 0.47539 0.50171 0.4997 0.0
O527 O 0.48618 0.45172 0.78264 0.0
O528 O 0.45555 0.41838 0.72089 0.0
O529 O 0.46549 0.49207 0.74048 0.0
C530 C 0.46845 0.42659 0.76953 0.0
O531 O 0.43491 0.46253 0.67489 0.0
O532 O 0.46031 0.43151 0.56398 0.0
C533 C 0.44203 0.48089 0.71536 0.0
O534 O 0.49929 0.46602 0.53857 0.0
O535 O 0.55111 0.49762 0.63748 0.0
O536 O 0.54434 0.49166 0.72933 0.0
C537 C 0.13557 0.50235 0.27424 0.0
C538 C 0.14547 0.48419 0.27279 0.0
C539 C 0.12042 0.5032 0.31828 0.0
C540 C 0.11468 0.48524 0.36184 0.0
C541 C 0.12449 0.46679 0.36064 0.0
C542 C 0.13988 0.46661 0.31645 0.0
C543 C 0.11032 0.5232 0.3179 0.0
C544 C 0.1186 0.44714 0.40587 0.0
C545 C 0.09064 0.50468 0.49375 0.0
C546 C 0.06286 0.49027 0.48113 0.0
C547 C 0.10793 0.50222 0.45668 0.0
C548 C 0.097 0.48479 0.40646 0.0
C549 C 0.06883 0.46869 0.39617 0.0
C550 C 0.05215 0.47181 0.43338 0.0
C551 C 0.13785 0.51966 0.46922 0.0
C552 C 0.05622 0.44948 0.34389 0.0
H553 H 0.13955 0.51587 0.24068 0.0
H554 H 0.14796 0.45296 0.31675 0.0
H555 H 0.08807 0.51198 0.31402 0.0
H556 H 0.1168 0.53607 0.35824 0.0
H557 H 0.11767 0.53673 0.28269 0.0
H558 H 0.1275 0.4339 0.39861 0.0
H559 H 0.12657 0.45857 0.44764 0.0
H560 H 0.0966 0.43396 0.40762 0.0
H561 H 0.09888 0.51921 0.53033 0.0
H562 H 0.0306 0.46073 0.42368 0.0
H563 H 0.1462 0.53554 0.43856 0.0
H564 H 0.14764 0.50715 0.46443 0.0
H565 H 0.14314 0.52988 0.51246 0.0
H566 H 0.06006 0.46144 0.30631 0.0
H567 H 0.03419 0.43622 0.34542 0.0
H568 H 0.0653 0.43634 0.33821 0.0
C569 C 0.6948 0.15213 0.41042 0.0
C570 C 0.717 0.17844 0.41662 0.0
C571 C 0.67908 0.14065 0.45553 0.0
C572 C 0.68549 0.15615 0.50808 0.0
C573 C 0.70844 0.18256 0.51505 0.0
C574 C 0.72408 0.19341 0.46901 0.0
C575 C 0.65512 0.11215 0.44622 0.0
C576 C 0.71587 0.19991 0.56986 0.0
C577 C 0.62 0.12473 0.57265 0.0
C578 C 0.62088 0.10301 0.5966 0.0
C579 C 0.64291 0.14565 0.55108 0.0
C580 C 0.6669 0.14449 0.55353 0.0
C581 C 0.66909 0.12582 0.58768 0.0
C582 C 0.64592 0.10524 0.60935 0.0
C583 C 0.64021 0.16631 0.51792 0.0
C584 C 0.69468 0.12475 0.59379 0.0
H585 H 0.6896 0.14062 0.36978 0.0
H586 H 0.74127 0.21388 0.47339 0.0
H587 H 0.6561 0.09902 0.47831 0.0
H588 H 0.63636 0.11281 0.4507 0.0
H589 H 0.65391 0.10244 0.4038 0.0
H590 H 0.73762 0.21528 0.57426 0.0
H591 H 0.70455 0.21101 0.57062 0.0
H592 H 0.71075 0.18741 0.60675 0.0
H593 H 0.60086 0.12375 0.56473 0.0
H594 H 0.64702 0.08909 0.62983 0.0
H595 H 0.63699 0.1596 0.47237 0.0
H596 H 0.65875 0.18653 0.52407 0.0
H597 H 0.6229 0.16843 0.53021 0.0
H598 H 0.69577 0.11301 0.55639 0.0
H599 H 0.69539 0.11448 0.63194 0.0
H600 H 0.71254 0.1455 0.59614 0.0
C601 C 0.56452 0.69463 0.27981 0.0
C602 C 0.55179 0.70758 0.30514 0.0
C603 C 0.56417 0.67208 0.30263 0.0
C604 C 0.55066 0.6621 0.35195 0.0
C605 C 0.53782 0.67509 0.3779 0.0
C606 C 0.53852 0.69767 0.35414 0.0
C607 C 0.57801 0.65876 0.27358 0.0
C608 C 0.52334 0.66513 0.43076 0.0
C609 C 0.52963 0.58976 0.38872 0.0
C610 C 0.54964 0.59449 0.43051 0.0
C611 C 0.5299 0.61152 0.36203 0.0
C612 C 0.55068 0.6386 0.37744 0.0
C613 C 0.57138 0.64339 0.41815 0.0
C614 C 0.57062 0.62134 0.4441 0.0
C615 C 0.50749 0.60563 0.31869 0.0
C616 C 0.59405 0.67191 0.43531 0.0
H617 H 0.57424 0.70168 0.2411 0.0
H618 H 0.52865 0.70757 0.37391 0.0
H619 H 0.59265 0.65779 0.30369 0.0
H620 H 0.56301 0.63749 0.25834 0.0
H621 H 0.58874 0.66984 0.23717 0.0
H622 H 0.51409 0.67724 0.44535 0.0
H623 H 0.50738 0.64344 0.42319 0.0
H624 H 0.53754 0.66622 0.46502 0.0
H625 H 0.51329 0.56915 0.37809 0.0
H626 H 0.58632 0.62527 0.47599 0.0
H627 H 0.51579 0.61579 0.27976 0.0
H628 H 0.49515 0.61405 0.33524 0.0
H629 H 0.49423 0.58343 0.30764 0.0
H630 H 0.60442 0.68196 0.39777 0.0
H631 H 0.60905 0.67209 0.46638 0.0
H632 H 0.58593 0.68433 0.45409 0.0
C633 C 0.88755 0.5761 0.36959 0.0
C634 C 0.8597 0.56462 0.3648 0.0
C635 C 0.90034 0.57272 0.41712 0.0
C636 C 0.8848 0.55781 0.46108 0.0
C637 C 0.85708 0.54891 0.45919 0.0
C638 C 0.84472 0.5521 0.4105 0.0
C639 C 0.93006 0.58275 0.4175 0.0
C640 C 0.84001 0.53414 0.5062 0.0
C641 C 0.91593 0.51785 0.51121 0.0
C642 C 0.93566 0.53709 0.55088 0.0
C643 C 0.89661 0.52278 0.48599 0.0
C644 C 0.89686 0.54728 0.50186 0.0
C645 C 0.91369 0.56429 0.54868 0.0
C646 C 0.93326 0.55915 0.57251 0.0
C647 C 0.87845 0.50359 0.43722 0.0
C648 C 0.91315 0.58951 0.56944 0.0
H649 H 0.89908 0.5858 0.33422 0.0
H650 H 0.82316 0.54367 0.40709 0.0
H651 H 0.9405 0.59482 0.45762 0.0
H652 H 0.93335 0.56504 0.41415 0.0
H653 H 0.93944 0.59561 0.3821 0.0
H654 H 0.82297 0.53801 0.50909 0.0
H655 H 0.83147 0.51186 0.4974 0.0
H656 H 0.8518 0.54031 0.54752 0.0
H657 H 0.91716 0.50023 0.49582 0.0
H658 H 0.94799 0.5737 0.60447 0.0
H659 H 0.88501 0.51351 0.3972 0.0
H660 H 0.8575 0.49883 0.44133 0.0
H661 H 0.8788 0.48415 0.43427 0.0
H662 H 0.92069 0.59536 0.61443 0.0
H663 H 0.89257 0.58644 0.5645 0.0
H664 H 0.9263 0.60671 0.54448 0.0
C665 C 0.38374 0.88495 0.24822 0.0
C666 C 0.3575 0.88042 0.24302 0.0
C667 C 0.4012 0.90033 0.29504 0.0
C668 C 0.39221 0.91146 0.33767 0.0
C669 C 0.36564 0.90671 0.333 0.0
C670 C 0.34859 0.89121 0.28572 0.0
C671 C 0.42949 0.90514 0.29829 0.0
C672 C 0.35531 0.91816 0.37767 0.0
C673 C 0.43654 0.93765 0.4746 0.0
C674 C 0.45338 0.96504 0.46454 0.0
C675 C 0.41562 0.91997 0.43467 0.0
C676 C 0.41152 0.93014 0.38414 0.0
C677 C 0.42745 0.95816 0.37572 0.0
C678 C 0.44817 0.97519 0.41589 0.0
C679 C 0.39884 0.89023 0.44523 0.0
C680 C 0.42343 0.96997 0.32301 0.0
H681 H 0.39069 0.87665 0.21531 0.0
H682 H 0.3281 0.8872 0.28257 0.0
H683 H 0.44395 0.92721 0.29642 0.0
H684 H 0.434 0.89898 0.33901 0.0
H685 H 0.43282 0.8937 0.26345 0.0
H686 H 0.33436 0.91321 0.3669 0.0
H687 H 0.35607 0.90985 0.41855 0.0
H688 H 0.36826 0.94065 0.38362 0.0
H689 H 0.44042 0.92978 0.51231 0.0
H690 H 0.46076 0.99653 0.40848 0.0
H691 H 0.40404 0.87793 0.41632 0.0
H692 H 0.37721 0.88306 0.43635 0.0
H693 H 0.40215 0.8863 0.48929 0.0
H694 H 0.42849 0.96129 0.28593 0.0
H695 H 0.4361 0.99255 0.32508 0.0
H696 H 0.40212 0.96444 0.31594 0.0
C697 C 0.48756 0.33299 0.34657 0.0
C698 C 0.47217 0.32296 0.29521 0.0
C699 C 0.49027 0.3563 0.376 0.0
C700 C 0.47746 0.36988 0.35304 0.0
C701 C 0.46392 0.3612 0.29884 0.0
C702 C 0.46121 0.33761 0.2707 0.0
C703 C 0.50521 0.36523 0.43344 0.0
C704 C 0.45099 0.37585 0.2721 0.0
C705 C 0.45339 0.39956 0.46602 0.0
C706 C 0.47495 0.42638 0.4747 0.0
C707 C 0.45328 0.38139 0.42415 0.0
C708 C 0.475 0.39039 0.38929 0.0
C709 C 0.49543 0.41812 0.39393 0.0
C710 C 0.49531 0.4358 0.43701 0.0
C711 C 0.43092 0.35199 0.42028 0.0
C712 C 0.51848 0.42884 0.3564 0.0
H713 H 0.49608 0.32165 0.36533 0.0
H714 H 0.44973 0.33006 0.23032 0.0
H715 H 0.52015 0.38734 0.43606 0.0
H716 H 0.49089 0.36191 0.46613 0.0
H717 H 0.51576 0.35384 0.4433 0.0
H718 H 0.44495 0.36919 0.22672 0.0
H719 H 0.43285 0.37172 0.29402 0.0
H720 H 0.46491 0.39823 0.27643 0.0
H721 H 0.43731 0.39213 0.49425 0.0
H722 H 0.51192 0.45656 0.44277 0.0
H723 H 0.43907 0.3388 0.4331 0.0
H724 H 0.42221 0.34519 0.37624 0.0
H725 H 0.41458 0.34876 0.44769 0.0
H726 H 0.53499 0.42674 0.37657 0.0
H727 H 0.52629 0.4508 0.35061 0.0
H728 H 0.51268 0.41748 0.31436 0.0
C729 C 0.5454 0.87502 0.89398 0.0
C730 C 0.5364 0.87794 0.94615 0.0
C731 C 0.54494 0.89001 0.84933 0.0
C732 C 0.53568 0.90873 0.8575 0.0
C733 C 0.52674 0.91194 0.91039 0.0
C734 C 0.52686 0.89614 0.95409 0.0
C735 C 0.55408 0.88556 0.79326 0.0
C736 C 0.51725 0.93213 0.92083 0.0
C737 C 0.56007 0.96364 0.75411 0.0
C738 C 0.53757 0.95378 0.71589 0.0
C739 C 0.55932 0.94977 0.80183 0.0
C740 C 0.53573 0.92507 0.8105 0.0
C741 C 0.51285 0.91515 0.77221 0.0
C742 C 0.51394 0.92988 0.72567 0.0
C743 C 0.58384 0.96143 0.84264 0.0
C744 C 0.48746 0.88867 0.77959 0.0
H745 H 0.55234 0.86053 0.88786 0.0
H746 H 0.51981 0.89818 0.99456 0.0
H747 H 0.53738 0.87832 0.76022 0.0
H748 H 0.57078 0.90506 0.78078 0.0
H749 H 0.56093 0.87039 0.7942 0.0
H750 H 0.51151 0.93256 0.96468 0.0
H751 H 0.53331 0.9529 0.91261 0.0
H752 H 0.49971 0.92695 0.89137 0.0
H753 H 0.57813 0.98253 0.74729 0.0
H754 H 0.49647 0.92245 0.69627 0.0
H755 H 0.5924 0.94771 0.84175 0.0
H756 H 0.57829 0.96281 0.88624 0.0
H757 H 0.59961 0.98205 0.83252 0.0
H758 H 0.49162 0.87155 0.77644 0.0
H759 H 0.47109 0.88445 0.74744 0.0
H760 H 0.48036 0.88911 0.82201 0.0
C761 C 0.69011 0.54376 0.8564 0.0
C762 C 0.70419 0.52953 0.85306 0.0
C763 C 0.66893 0.53792 0.81696 0.0
C764 C 0.66148 0.5172 0.7731 0.0
C765 C 0.67678 0.50409 0.76706 0.0
C766 C 0.69793 0.51033 0.80732 0.0
C767 C 0.65321 0.55249 0.82497 0.0
C768 C 0.6698 0.48229 0.72026 0.0
C769 C 0.58668 0.48124 0.74274 0.0
C770 C 0.58417 0.49536 0.69829 0.0
C771 C 0.61186 0.48649 0.76422 0.0
C772 C 0.63517 0.50643 0.74068 0.0
C773 C 0.63265 0.51879 0.69212 0.0
C774 C 0.60702 0.51308 0.67135 0.0
C775 C 0.6135 0.47252 0.81556 0.0
C776 C 0.65697 0.53969 0.66501 0.0
H777 H 0.69459 0.55843 0.89178 0.0
H778 H 0.70907 0.49963 0.80383 0.0
H779 H 0.65029 0.56007 0.7847 0.0
H780 H 0.63305 0.53802 0.83853 0.0
H781 H 0.6633 0.57001 0.85719 0.0
H782 H 0.68657 0.47826 0.71429 0.0
H783 H 0.65205 0.46305 0.73061 0.0
H784 H 0.66453 0.48815 0.67994 0.0
H785 H 0.56894 0.46714 0.76298 0.0
H786 H 0.60511 0.52397 0.63684 0.0
H787 H 0.62157 0.48751 0.85283 0.0
H788 H 0.62733 0.46445 0.80986 0.0
H789 H 0.59359 0.45542 0.82468 0.0
H790 H 0.66539 0.55969 0.68953 0.0
H791 H 0.65182 0.5422 0.62105 0.0
H792 H 0.67282 0.53401 0.66479 0.0
C793 C 0.17381 0.64793 0.92308 0.0
C794 C 0.18747 0.66969 0.88913 0.0
C795 C 0.15136 0.62351 0.90084 0.0
C796 C 0.14269 0.62091 0.8434 0.0
C797 C 0.15795 0.64191 0.80798 0.0
C798 C 0.18005 0.66622 0.83147 0.0
C799 C 0.13586 0.6013 0.9394 0.0
C800 C 0.14974 0.63955 0.74607 0.0
C801 C 0.08855 0.55783 0.75954 0.0
C802 C 0.06845 0.56482 0.75395 0.0
C803 C 0.11233 0.57466 0.79309 0.0
C804 C 0.11568 0.59868 0.82182 0.0
C805 C 0.09397 0.60376 0.82191 0.0
C806 C 0.07065 0.58685 0.78749 0.0
C807 C 0.13459 0.568 0.7926 0.0
C808 C 0.09634 0.62861 0.85378 0.0
H809 H 0.17951 0.6507 0.96786 0.0
H810 H 0.19079 0.68302 0.80531 0.0
H811 H 0.11535 0.5982 0.94182 0.0
H812 H 0.13368 0.58174 0.92213 0.0
H813 H 0.14574 0.60615 0.98268 0.0
H814 H 0.1654 0.65614 0.72326 0.0
H815 H 0.14558 0.61963 0.72611 0.0
H816 H 0.131 0.64052 0.74102 0.0
H817 H 0.08687 0.54071 0.73375 0.0
H818 H 0.05488 0.59197 0.78384 0.0
H819 H 0.14838 0.57658 0.83117 0.0
H820 H 0.14641 0.57663 0.75567 0.0
H821 H 0.12619 0.54557 0.7884 0.0
H822 H 0.1056 0.63129 0.89701 0.0
H823 H 0.07653 0.62728 0.85669 0.0
H824 H 0.1095 0.64706 0.83191 0.0
C825 C 0.39621 0.0481 0.02666 0.0
C826 C 0.39696 0.06882 0.99539 0.0
C827 C 0.39977 0.02748 0.00082 0.0
C828 C 0.40477 0.02822 0.94307 0.0
C829 C 0.40279 0.04753 0.91044 0.0
C830 C 0.39855 0.06738 0.93702 0.0
C831 C 0.40031 0.00641 0.03646 0.0
C832 C 0.40775 0.049 0.84849 0.0
C833 C 0.45624 0.01533 0.88009 0.0
C834 C 0.44005 0.99491 0.83836 0.0
C835 C 0.44468 0.0245 0.91982 0.0
C836 C 0.41635 0.01236 0.91791 0.0
C837 C 0.40005 0.98901 0.88099 0.0
C838 C 0.41214 0.98093 0.84041 0.0
C839 C 0.46283 0.04937 0.95882 0.0
C840 C 0.36986 0.97439 0.88031 0.0
H841 H 0.39478 0.04907 0.07187 0.0
H842 H 0.39843 0.08306 0.91276 0.0
H843 H 0.39388 0.98693 0.01128 0.0
H844 H 0.42104 0.01417 0.05485 0.0
H845 H 0.38715 0.00236 0.07187 0.0
H846 H 0.40444 0.06463 0.82905 0.0
H847 H 0.42874 0.05408 0.84294 0.0
H848 H 0.39433 0.02899 0.8252 0.0
H849 H 0.47786 0.02595 0.87814 0.0
H850 H 0.39975 0.96478 0.80825 0.0
H851 H 0.45644 0.04614 0.00242 0.0
H852 H 0.46149 0.06712 0.94498 0.0
H853 H 0.48412 0.05449 0.95925 0.0
H854 H 0.3632 0.97439 0.92339 0.0
H855 H 0.36083 0.95298 0.86224 0.0
H856 H 0.36212 0.98494 0.85387 0.0
C857 C 0.33371 0.50716 0.87308 0.0
C858 C 0.32466 0.48798 0.91401 0.0
C859 C 0.35153 0.50768 0.83363 0.0
C860 C 0.3606 0.48862 0.83513 0.0
C861 C 0.35094 0.46875 0.87525 0.0
C862 C 0.33324 0.46873 0.91414 0.0
C863 C 0.36131 0.52917 0.79156 0.0
C864 C 0.36008 0.44804 0.87854 0.0
C865 C 0.395 0.47313 0.71722 0.0
C866 C 0.42181 0.4868 0.7394 0.0
C867 C 0.37495 0.47487 0.74606 0.0
C868 C 0.38185 0.49058 0.79836 0.0
C869 C 0.40912 0.5059 0.81882 0.0
C870 C 0.42868 0.50379 0.78925 0.0
C871 C 0.34619 0.45859 0.72221 0.0
C872 C 0.41751 0.52315 0.87404 0.0
H873 H 0.327 0.52194 0.8721 0.0
H874 H 0.32686 0.45413 0.94604 0.0
H875 H 0.38289 0.54403 0.80186 0.0
H876 H 0.35939 0.51981 0.74846 0.0
H877 H 0.35011 0.54044 0.79148 0.0
H878 H 0.34937 0.43285 0.90959 0.0
H879 H 0.35682 0.43704 0.83667 0.0
H880 H 0.38191 0.45861 0.89083 0.0
H881 H 0.38943 0.46013 0.67853 0.0
H882 H 0.44923 0.51439 0.80708 0.0
H883 H 0.33651 0.47129 0.72366 0.0
H884 H 0.33483 0.44116 0.74819 0.0
H885 H 0.34456 0.45048 0.67799 0.0
H886 H 0.40886 0.53678 0.87516 0.0
H887 H 0.43965 0.53582 0.88142 0.0
H888 H 0.40971 0.50974 0.90928 0.0
C889 C 0.88454 0.29618 0.92357 0.0
C890 C 0.86699 0.3027 0.95056 0.0
C891 C 0.9051 0.31527 0.89292 0.0
C892 C 0.90765 0.3412 0.88757 0.0
C893 C 0.89 0.34791 0.91432 0.0
C894 C 0.87022 0.32879 0.94619 0.0
C895 C 0.92393 0.30761 0.86589 0.0
C896 C 0.89169 0.37515 0.90856 0.0
C897 C 0.97085 0.40135 0.84037 0.0
C898 C 0.96397 0.40003 0.78279 0.0
C899 C 0.95314 0.38163 0.87479 0.0
C900 C 0.9277 0.3608 0.85125 0.0
C901 C 0.92077 0.3594 0.79308 0.0
C902 C 0.93914 0.37878 0.75946 0.0
C903 C 0.96149 0.38324 0.93636 0.0
C904 C 0.89356 0.33802 0.76667 0.0
H905 H 0.88216 0.27606 0.92596 0.0
H906 H 0.85743 0.33449 0.96811 0.0
H907 H 0.92096 0.30657 0.81936 0.0
H908 H 0.94507 0.32344 0.87791 0.0
H909 H 0.92078 0.28761 0.87819 0.0
H910 H 0.87627 0.37708 0.93162 0.0
H911 H 0.91178 0.39192 0.92482 0.0
H912 H 0.88905 0.37797 0.86341 0.0
H913 H 0.9901 0.41769 0.85837 0.0
H914 H 0.9336 0.37789 0.71505 0.0
H915 H 0.95883 0.36331 0.94772 0.0
H916 H 0.94853 0.38776 0.96268 0.0
H917 H 0.98272 0.39926 0.94703 0.0
H918 H 0.89001 0.31731 0.77362 0.0
H919 H 0.89144 0.33961 0.72064 0.0
H920 H 0.87764 0.34019 0.78696 0.0
C921 C 0.84621 0.50128 0.84094 0.0
C922 C 0.85204 0.52714 0.86363 0.0
C923 C 0.86489 0.49786 0.81064 0.0
C924 C 0.88981 0.52091 0.80127 0.0
C925 C 0.895 0.54725 0.82008 0.0
C926 C 0.87627 0.55004 0.85162 0.0
C927 C 0.8585 0.46941 0.79111 0.0
C928 C 0.92095 0.57241 0.80922 0.0
C929 C 0.95019 0.51112 0.79193 0.0
C930 C 0.95254 0.50963 0.73358 0.0
C931 C 0.92989 0.51473 0.81414 0.0
C932 C 0.91145 0.51721 0.77729 0.0
C933 C 0.91358 0.51569 0.71832 0.0
C934 C 0.93404 0.51183 0.69722 0.0
C935 C 0.92803 0.51562 0.87725 0.0
C936 C 0.89455 0.51852 0.67744 0.0
H937 H 0.82728 0.48348 0.84828 0.0
H938 H 0.88129 0.57014 0.86902 0.0
H939 H 0.86135 0.46821 0.7455 0.0
H940 H 0.8725 0.46441 0.81386 0.0
H941 H 0.83762 0.45377 0.7986 0.0
H942 H 0.92064 0.59147 0.82064 0.0
H943 H 0.93783 0.57285 0.83424 0.0
H944 H 0.92497 0.572 0.7641 0.0
H945 H 0.96426 0.50939 0.82062 0.0
H946 H 0.93524 0.51006 0.65221 0.0
H947 H 0.90797 0.49941 0.8879 0.0
H948 H 0.93034 0.53547 0.89283 0.0
H949 H 0.94357 0.5128 0.90006 0.0
H950 H 0.8946 0.51046 0.6341 0.0
H951 H 0.90078 0.54043 0.67644 0.0
H952 H 0.87371 0.50773 0.69054 0.0
C953 C 0.34966 0.85612 0.86687 0.0
C954 C 0.32529 0.83158 0.8591 0.0
C955 C 0.36423 0.86863 0.82075 0.0
C956 C 0.35449 0.85582 0.76563 0.0
C957 C 0.33019 0.83057 0.75779 0.0
C958 C 0.31562 0.81893 0.80468 0.0
C959 C 0.38977 0.89587 0.831 0.0
C960 C 0.31952 0.81604 0.7 0.0
C961 C 0.38517 0.9087 0.66023 0.0
C962 C 0.40963 0.9093 0.65525 0.0
C963 C 0.36531 0.88928 0.69166 0.0
C964 C 0.36981 0.86961 0.71687 0.0
C965 C 0.39242 0.86739 0.70363 0.0
C966 C 0.4122 0.88742 0.67312 0.0
C967 C 0.34156 0.89251 0.7046 0.0
C968 C 0.39754 0.84613 0.72785 0.0
H969 H 0.35689 0.86595 0.90901 0.0
H970 H 0.29671 0.79988 0.79897 0.0
H971 H 0.40698 0.89424 0.81626 0.0
H972 H 0.38823 0.91133 0.80665 0.0
H973 H 0.39418 0.90335 0.87622 0.0
H974 H 0.30134 0.79569 0.70158 0.0
H975 H 0.31442 0.82848 0.67299 0.0
H976 H 0.33513 0.81343 0.67948 0.0
H977 H 0.38294 0.92547 0.64638 0.0
H978 H 0.43097 0.88761 0.66876 0.0
H979 H 0.34555 0.90351 0.74676 0.0
H980 H 0.32309 0.87243 0.70573 0.0
H981 H 0.33791 0.90442 0.67319 0.0
H982 H 0.40615 0.85295 0.77199 0.0
H983 H 0.412 0.84299 0.70363 0.0
H984 H 0.37863 0.82635 0.72833 0.0
C985 C 0.42991 0.31921 0.00787 0.0
C986 C 0.44495 0.30606 0.00226 0.0
C987 C 0.43286 0.33936 0.97193 0.0
C988 C 0.45123 0.34643 0.92943 0.0
C989 C 0.4665 0.33328 0.92373 0.0
C990 C 0.46313 0.31323 0.9601 0.0
C991 C 0.41628 0.35301 0.97926 0.0
C992 C 0.48625 0.34019 0.87883 0.0
C993 C 0.44321 0.37891 0.79975 0.0
C994 C 0.4631 0.40632 0.81172 0.0
C995 C 0.43864 0.35933 0.83838 0.0
C996 C 0.45437 0.36732 0.8902 0.0
C997 C 0.47407 0.395 0.90315 0.0
C998 C 0.47819 0.41418 0.8638 0.0
C999 C 0.41739 0.32998 0.82316 0.0
C1000 C 0.49128 0.40426 0.95798 0.0
H1001 H 0.416 0.31389 0.04069 0.0
H1002 H 0.47444 0.30279 0.95486 0.0
H1003 H 0.42963 0.37538 0.9872 0.0
H1004 H 0.40363 0.3495 0.93999 0.0
H1005 H 0.40306 0.34535 0.01465 0.0
H1006 H 0.49692 0.32842 0.88071 0.0
H1007 H 0.47564 0.33591 0.8365 0.0
H1008 H 0.50135 0.36227 0.88349 0.0
H1009 H 0.43132 0.3726 0.75983 0.0
H1010 H 0.49358 0.43528 0.87362 0.0
H1011 H 0.40311 0.32227 0.85667 0.0
H1012 H 0.42688 0.31712 0.82003 0.0
H1013 H 0.40595 0.32735 0.78248 0.0
H1014 H 0.47846 0.39784 0.99412 0.0
H1015 H 0.50471 0.42674 0.96297 0.0
H1016 H 0.50382 0.39446 0.95997 0.0
C1017 C 0.15922 0.48575 0.9071 0.0
C1018 C 0.18053 0.48077 0.90223 0.0
C1019 C 0.14233 0.48255 0.85998 0.0
C1020 C 0.14728 0.47479 0.8063 0.0
C1021 C 0.1693 0.47047 0.80085 0.0
C1022 C 0.18544 0.47306 0.84923 0.0
C1023 C 0.11893 0.48713 0.86792 0.0
C1024 C 0.17565 0.46282 0.74436 0.0
C1025 C 0.0838 0.44321 0.71101 0.0
C1026 C 0.08516 0.46666 0.691 0.0
C1027 C 0.1052 0.44499 0.74477 0.0
C1028 C 0.12866 0.47071 0.757 0.0
C1029 C 0.13142 0.49367 0.73017 0.0
C1030 C 0.10929 0.49154 0.69855 0.0
C1031 C 0.10127 0.42007 0.77296 0.0
C1032 C 0.15686 0.52096 0.7392 0.0
H1033 H 0.15537 0.4915 0.94824 0.0
H1034 H 0.20206 0.46933 0.84561 0.0
H1035 H 0.12112 0.50422 0.84343 0.0
H1036 H 0.0999 0.46866 0.85191 0.0
H1037 H 0.11731 0.49199 0.9128 0.0
H1038 H 0.1964 0.46622 0.74535 0.0
H1039 H 0.16155 0.44091 0.73236 0.0
H1040 H 0.17324 0.47467 0.7111 0.0
H1041 H 0.06494 0.42407 0.7057 0.0
H1042 H 0.11023 0.50967 0.683 0.0
H1043 H 0.09763 0.42208 0.81789 0.0
H1044 H 0.11949 0.41817 0.77186 0.0
H1045 H 0.08391 0.40105 0.75283 0.0
H1046 H 0.15942 0.52916 0.7836 0.0
H1047 H 0.15677 0.53606 0.71115 0.0
H1048 H 0.17448 0.51859 0.73144 0.0
C1049 C 0.67278 0.14171 0.93961 0.0
C1050 C 0.69782 0.14398 0.93222 0.0
C1051 C 0.64996 0.12306 0.90567 0.0
C1052 C 0.65216 0.10615 0.86323 0.0
C1053 C 0.67736 0.10824 0.85546 0.0
C1054 C 0.69995 0.12711 0.89037 0.0
C1055 C 0.62343 0.12135 0.91549 0.0
C1056 C 0.68038 0.09055 0.81043 0.0
C1057 C 0.58652 0.0422 0.8163 0.0
C1058 C 0.57845 0.05007 0.76771 0.0
C1059 C 0.61106 0.05986 0.8465 0.0
C1060 C 0.6278 0.08609 0.82788 0.0
C1061 C 0.61999 0.09396 0.77824 0.0
C1062 C 0.5954 0.07581 0.74867 0.0
C1063 C 0.61875 0.05067 0.89909 0.0
C1064 C 0.63735 0.12176 0.75702 0.0
H1065 H 0.67094 0.1543 0.97279 0.0
H1066 H 0.7193 0.12886 0.88466 0.0
H1067 H 0.6152 0.12526 0.87635 0.0
H1068 H 0.60871 0.10053 0.92649 0.0
H1069 H 0.62525 0.13622 0.94986 0.0
H1070 H 0.70131 0.09456 0.81006 0.0
H1071 H 0.66695 0.0687 0.81707 0.0
H1072 H 0.67426 0.09416 0.7684 0.0
H1073 H 0.57369 0.02213 0.83066 0.0
H1074 H 0.58917 0.082 0.7113 0.0
H1075 H 0.61912 0.0633 0.93646 0.0
H1076 H 0.63921 0.05357 0.89716 0.0
H1077 H 0.60456 0.0289 0.90526 0.0
H1078 H 0.64137 0.13795 0.79027 0.0
H1079 H 0.62793 0.12505 0.71884 0.0
H1080 H 0.65698 0.12414 0.74679 0.0
C1081 C 0.53824 0.66816 0.84721 0.0
C1082 C 0.53555 0.66919 0.90509 0.0
C1083 C 0.5423 0.64797 0.82143 0.0
C1084 C 0.54447 0.62901 0.85493 0.0
C1085 C 0.54264 0.63061 0.91385 0.0
C1086 C 0.53787 0.65061 0.93828 0.0
C1087 C 0.54298 0.64617 0.75808 0.0
C1088 C 0.54501 0.61086 0.95072 0.0
C1089 C 0.52267 0.56256 0.77157 0.0
C1090 C 0.54676 0.56788 0.74894 0.0
C1091 C 0.52178 0.58167 0.80924 0.0
C1092 C 0.54587 0.60602 0.82678 0.0
C1093 C 0.5707 0.60984 0.80978 0.0
C1094 C 0.57083 0.5909 0.77003 0.0
C1095 C 0.49474 0.57626 0.82697 0.0
C1096 C 0.59687 0.63492 0.83019 0.0
H1097 H 0.53642 0.6827 0.82201 0.0
H1098 H 0.5361 0.65186 0.98336 0.0
H1099 H 0.56202 0.6475 0.74643 0.0
H1100 H 0.52631 0.62615 0.74003 0.0
H1101 H 0.54108 0.66258 0.73841 0.0
H1102 H 0.54757 0.61761 0.99619 0.0
H1103 H 0.52659 0.59059 0.94358 0.0
H1104 H 0.56223 0.60835 0.93973 0.0
H1105 H 0.50399 0.54465 0.756 0.0
H1106 H 0.58957 0.59483 0.75338 0.0
H1107 H 0.49368 0.59519 0.83346 0.0
H1108 H 0.49083 0.56628 0.86723 0.0
H1109 H 0.47836 0.5624 0.79518 0.0
H1110 H 0.59909 0.65262 0.80792 0.0
H1111 H 0.61435 0.63229 0.82224 0.0
H1112 H 0.5972 0.63982 0.87598 0.0
C1113 C 0.49557 0.14874 0.3563 0.0
C1114 C 0.48956 0.16764 0.38205 0.0
C1115 C 0.49893 0.13023 0.38782 0.0
C1116 C 0.4964 0.13074 0.44664 0.0
C1117 C 0.49174 0.15071 0.47333 0.0
C1118 C 0.4881 0.16878 0.44058 0.0
C1119 C 0.50346 0.10902 0.35761 0.0
C1120 C 0.48939 0.15219 0.53611 0.0
C1121 C 0.46967 0.06414 0.51647 0.0
C1122 C 0.49312 0.06636 0.54174 0.0
C1123 C 0.47061 0.08478 0.48473 0.0
C1124 C 0.49559 0.10851 0.47896 0.0
C1125 C 0.51943 0.11077 0.50376 0.0
C1126 C 0.51794 0.0895 0.53446 0.0
C1127 C 0.44477 0.0813 0.45799 0.0
C1128 C 0.54639 0.13588 0.49901 0.0
H1129 H 0.49623 0.14744 0.31089 0.0
H1130 H 0.48352 0.18341 0.46054 0.0
H1131 H 0.52051 0.10823 0.37885 0.0
H1132 H 0.48538 0.0886 0.35901 0.0
H1133 H 0.50757 0.11306 0.31284 0.0
H1134 H 0.48907 0.17085 0.55121 0.0
H1135 H 0.47062 0.13411 0.54704 0.0
H1136 H 0.50635 0.15183 0.55899 0.0
H1137 H 0.45045 0.0462 0.52153 0.0
H1138 H 0.53612 0.09138 0.55423 0.0
H1139 H 0.44668 0.0849 0.4126 0.0
H1140 H 0.44045 0.09659 0.47814 0.0
H1141 H 0.42742 0.06064 0.46219 0.0
H1142 H 0.55016 0.1396 0.45409 0.0
H1143 H 0.5631 0.13414 0.51942 0.0
H1144 H 0.54647 0.15398 0.51905 0.0
C1145 C 0.32135 0.48213 0.45479 0.0
C1146 C 0.32927 0.50389 0.42019 0.0
C1147 C 0.33982 0.48165 0.49425 0.0
C1148 C 0.36672 0.50325 0.49834 0.0
C1149 C 0.3736 0.52702 0.46982 0.0
C1150 C 0.35478 0.527 0.43078 0.0
C1151 C 0.33138 0.45642 0.52566 0.0
C1152 C 0.40195 0.55082 0.47379 0.0
C1153 C 0.42587 0.50554 0.58035 0.0
C1154 C 0.43607 0.49635 0.53739 0.0
C1155 C 0.40212 0.50647 0.56991 0.0
C1156 C 0.38852 0.49782 0.51557 0.0
C1157 C 0.39783 0.48662 0.47373 0.0
C1158 C 0.42143 0.48608 0.48524 0.0
C1159 C 0.39216 0.51755 0.61604 0.0
C1160 C 0.38382 0.4767 0.41531 0.0
H1161 H 0.3013 0.4646 0.4482 0.0
H1162 H 0.36104 0.54404 0.40471 0.0
H1163 H 0.3357 0.44213 0.50103 0.0
H1164 H 0.34259 0.46143 0.56745 0.0
H1165 H 0.30953 0.44578 0.53151 0.0
H1166 H 0.40275 0.56953 0.45915 0.0
H1167 H 0.41103 0.55524 0.51763 0.0
H1168 H 0.41435 0.54569 0.44688 0.0
H1169 H 0.43708 0.51319 0.62096 0.0
H1170 H 0.42893 0.47827 0.45249 0.0
H1171 H 0.3719 0.50156 0.62603 0.0
H1172 H 0.39029 0.53493 0.60181 0.0
H1173 H 0.40565 0.52444 0.65521 0.0
H1174 H 0.36238 0.46132 0.41798 0.0
H1175 H 0.39303 0.46736 0.38886 0.0
H1176 H 0.3847 0.49401 0.39359 0.0
C1177 C 0.90288 0.38436 0.21602 0.0
C1178 C 0.87592 0.36743 0.22634 0.0
C1179 C 0.92064 0.40468 0.2569 0.0
C1180 C 0.9112 0.40738 0.30941 0.0
C1181 C 0.88345 0.39238 0.31736 0.0
C1182 C 0.86609 0.37261 0.27551 0.0
C1183 C 0.94992 0.42136 0.2461 0.0
C1184 C 0.87255 0.39482 0.37259 0.0
C1185 C 0.95411 0.41552 0.44055 0.0
C1186 C 0.96117 0.4417 0.46307 0.0
C1187 C 0.93857 0.4046 0.38961 0.0
C1188 C 0.93039 0.4205 0.35948 0.0
C1189 C 0.93856 0.44747 0.38028 0.0
C1190 C 0.95351 0.45761 0.4324 0.0
C1191 C 0.92985 0.37548 0.36951 0.0
C1192 C 0.93071 0.46533 0.34912 0.0
H1193 H 0.91039 0.38056 0.17764 0.0
H1194 H 0.84528 0.35942 0.28382 0.0
H1195 H 0.9584 0.44278 0.26348 0.0
H1196 H 0.96125 0.41281 0.26751 0.0
H1197 H 0.95303 0.42119 0.20038 0.0
H1198 H 0.85027 0.38383 0.36989 0.0
H1199 H 0.87958 0.38621 0.40573 0.0
H1200 H 0.88008 0.41654 0.38608 0.0
H1201 H 0.95994 0.40303 0.46366 0.0
H1202 H 0.95861 0.47776 0.44943 0.0
H1203 H 0.93638 0.37472 0.32662 0.0
H1204 H 0.90763 0.36293 0.36708 0.0
H1205 H 0.93818 0.36603 0.39779 0.0
H1206 H 0.92904 0.4609 0.30281 0.0
H1207 H 0.94545 0.48729 0.35948 0.0
H1208 H 0.91094 0.46162 0.36198 0.0
C1209 C 0.58136 0.91343 0.22306 0.0
C1210 C 0.56585 0.88991 0.25126 0.0
C1211 C 0.58667 0.93914 0.24529 0.0
C1212 C 0.57631 0.94122 0.29694 0.0
C1213 C 0.56077 0.91748 0.32564 0.0
C1214 C 0.55565 0.89212 0.30228 0.0
C1215 C 0.60293 0.96391 0.21317 0.0
C1216 C 0.54956 0.91884 0.38126 0.0
C1217 C 0.60319 0.001 0.40334 0.0
C1218 C 0.58173 0.00609 0.40186 0.0
C1219 C 0.60356 0.98204 0.36419 0.0
C1220 C 0.58194 0.96801 0.32283 0.0
C1221 C 0.56249 0.97618 0.31598 0.0
C1222 C 0.56265 0.99531 0.35575 0.0
C1223 C 0.62505 0.97441 0.37219 0.0
C1224 C 0.5395 0.96219 0.27144 0.0
H1225 H 0.58887 0.91161 0.18301 0.0
H1226 H 0.54379 0.87394 0.32413 0.0
H1227 H 0.58998 0.97197 0.19791 0.0
H1228 H 0.6195 0.98037 0.24107 0.0
H1229 H 0.61155 0.95919 0.17633 0.0
H1230 H 0.53798 0.89847 0.39807 0.0
H1231 H 0.56614 0.93242 0.4129 0.0
H1232 H 0.53619 0.92756 0.37622 0.0
H1233 H 0.61832 0.00981 0.43838 0.0
H1234 H 0.54614 -0.00063 0.35408 0.0
H1235 H 0.63135 0.97049 0.33107 0.0
H1236 H 0.61693 0.95539 0.39443 0.0
H1237 H 0.64296 0.99061 0.3977 0.0
H1238 H 0.54629 0.95782 0.23137 0.0
H1239 H 0.52996 0.9747 0.26329 0.0
H1240 H 0.52406 0.94243 0.28592 0.0
C1241 C 0.67832 0.51217 0.2691 0.0
C1242 C 0.67853 0.52872 0.22672 0.0
C1243 C 0.66458 0.50976 0.31783 0.0
C1244 C 0.65005 0.52367 0.32388 0.0
C1245 C 0.64998 0.54025 0.28109 0.0
C1246 C 0.66443 0.54278 0.23332 0.0
C1247 C 0.66551 0.4922 0.36266 0.0
C1248 C 0.63441 0.55512 0.2855 0.0
C1249 C 0.5901 0.4972 0.41289 0.0
C1250 C 0.59973 0.51697 0.45868 0.0
C1251 C 0.60661 0.49846 0.37004 0.0
C1252 C 0.63364 0.51977 0.37327 0.0
C1253 C 0.64419 0.53834 0.42181 0.0
C1254 C 0.62709 0.53678 0.46392 0.0
C1255 C 0.59454 0.47819 0.31921 0.0
C1256 C 0.67311 0.56093 0.4276 0.0
H1257 H 0.68944 0.50149 0.26478 0.0
H1258 H 0.66446 0.55556 0.20078 0.0
H1259 H 0.67077 0.50347 0.40477 0.0
H1260 H 0.64543 0.47385 0.36401 0.0
H1261 H 0.68027 0.48545 0.35482 0.0
H1262 H 0.63658 0.56738 0.24892 0.0
H1263 H 0.6128 0.54024 0.2882 0.0
H1264 H 0.64135 0.56891 0.32457 0.0
H1265 H 0.5691 0.48159 0.40867 0.0
H1266 H 0.63483 0.55213 0.49907 0.0
H1267 H 0.60751 0.46955 0.30868 0.0
H1268 H 0.59301 0.48871 0.28226 0.0
H1269 H 0.57424 0.46114 0.32577 0.0
H1270 H 0.68655 0.55316 0.41501 0.0
H1271 H 0.67939 0.57046 0.47137 0.0
H1272 H 0.67582 0.57694 0.39912 0.0
C1273 C 0.15098 0.70175 0.34013 0.0
C1274 C 0.14497 0.70884 0.28811 0.0
C1275 C 0.13072 0.68211 0.37017 0.0
C1276 C 0.1037 0.66973 0.34837 0.0
C1277 C 0.09727 0.678 0.29772 0.0
C1278 C 0.11803 0.69728 0.26783 0.0
C1279 C 0.1384 0.67371 0.42396 0.0
C1280 C 0.0686 0.66567 0.27392 0.0
C1281 C 0.05938 0.59875 0.39443 0.0
C1282 C 0.04881 0.60427 0.44195 0.0
C1283 C 0.07648 0.61982 0.36208 0.0
C1284 C 0.08258 0.64688 0.37695 0.0
C1285 C 0.07047 0.65224 0.42255 0.0
C1286 C 0.05398 0.63089 0.45505 0.0
C1287 C 0.08934 0.61335 0.31421 0.0
C1288 C 0.07587 0.6807 0.43855 0.0
H1289 H 0.17168 0.71105 0.35672 0.0
H1290 H 0.11317 0.70242 0.22744 0.0
H1291 H 0.12748 0.67606 0.45911 0.0
H1292 H 0.13257 0.65185 0.41877 0.0
H1293 H 0.16028 0.68588 0.43596 0.0
H1294 H 0.06671 0.67687 0.23854 0.0
H1295 H 0.06091 0.64416 0.25824 0.0
H1296 H 0.05562 0.6656 0.30718 0.0
H1297 H 0.0555 0.5782 0.38436 0.0
H1298 H 0.04554 0.63513 0.49143 0.0
H1299 H 0.1113 0.62326 0.32448 0.0
H1300 H 0.08628 0.62162 0.27506 0.0
H1301 H 0.0812 0.59107 0.30591 0.0
H1302 H 0.09679 0.69346 0.45702 0.0
H1303 H 0.0621 0.6808 0.46978 0.0
H1304 H 0.07377 0.69038 0.4007 0.0
loop_
_geom_bond_atom_site_label_1
_geom_bond_atom_site_label_2
_geom_bond_distance
_geom_bond_site_symmetry_2
_ccdc_geom_bond_type
H0 O26 0.856 . S
H1 O29 0.854 . S
H2 C37 0.930 . S
H3 C38 0.930 . S
H4 C40 0.930 . S
H5 C41 0.930 . S
H6 C43 0.931 . S
H7 C44 0.930 . S
H8 C46 0.930 . S
H9 C47 0.929 . S
H10 C49 0.930 . S
H11 C50 0.931 . S
H12 C52 0.930 . S
H13 C53 0.929 . S
H14 C55 0.931 . S
H15 C56 0.930 . S
H16 C58 0.930 . S
H17 C59 0.932 . S
H18 C61 0.930 . S
H19 C62 0.925 1_556 S
H20 C64 0.931 1_556 S
H21 C65 0.930 . S
H22 C67 0.929 . S
H23 C68 0.931 . S
H24 C70 0.930 . S
H25 C71 0.929 . S
O26 H0 0.856 . S
O26 C72 1.300 . S
O27 C72 1.209 . S
O28 C73 1.199 . S
O29 H1 0.854 . S
O29 C73 1.297 . S
C30 C31 1.404 . S
C30 C35 1.397 . S
C30 C36 1.492 . S
C31 C30 1.404 . S
C31 C32 1.396 . S
C31 C42 1.492 . S
C32 C31 1.396 . S
C32 C33 1.397 . S
C32 C48 1.509 . S
C33 C32 1.397 . S
C33 C34 1.412 . S
C33 C54 1.485 . S
C34 C33 1.412 . S
C34 C35 1.388 . S
C34 C60 1.490 . S
C35 C30 1.397 . S
C35 C34 1.388 . S
C35 C66 1.519 . S
C36 C30 1.492 . S
C36 C37 1.363 . S
C36 C41 1.390 . S
C37 H2 0.930 . S
C37 C36 1.363 . S
C37 C38 1.372 . S
C38 H3 0.930 . S
C38 C37 1.372 . S
C38 C39 1.383 . S
C39 C38 1.383 . S
C39 C40 1.395 . S
C40 H4 0.930 . S
C40 C39 1.395 . S
C40 C41 1.362 . S
C41 H5 0.930 . S
C41 C36 1.390 . S
C41 C40 1.362 . S
C42 C31 1.492 . S
C42 C43 1.377 . S
C42 C47 1.397 . S
C43 H6 0.931 . S
C43 C42 1.377 . S
C43 C44 1.376 . S
C44 H7 0.930 . S
C44 C43 1.376 . S
C44 C45 1.376 . S
C45 C44 1.376 . S
C45 C46 1.378 . S
C45 C72 1.486 . S
C46 H8 0.930 . S
C46 C45 1.378 . S
C46 C47 1.376 . S
C47 H9 0.929 . S
C47 C42 1.397 . S
C47 C46 1.376 . S
C48 C32 1.509 . S
C48 C49 1.391 . S
C48 C53 1.386 . S
C49 H10 0.930 . S
C49 C48 1.391 . S
C49 C50 1.375 . S
C50 H11 0.931 . S
C50 C49 1.375 . S
C50 C51 1.375 . S
C51 C50 1.375 . S
C51 C52 1.361 . S
C52 H12 0.930 . S
C52 C51 1.361 . S
C52 C53 1.399 . S
C53 H13 0.929 . S
C53 C48 1.386 . S
C53 C52 1.399 . S
C54 C33 1.485 . S
C54 C55 1.394 . S
C54 C59 1.360 . S
C55 H14 0.931 . S
C55 C54 1.394 . S
C55 C56 1.372 . S
C56 H15 0.930 . S
C56 C55 1.372 . S
C56 C57 1.397 . S
C57 C56 1.397 . S
C57 C58 1.390 . S
C57 C73 1.476 . S
C58 H16 0.930 . S
C58 C57 1.390 . S
C58 C59 1.366 . S
C59 H17 0.932 . S
C59 C54 1.360 . S
C59 C58 1.366 . S
C60 C34 1.490 . S
C60 C61 1.380 . S
C60 C65 1.386 . S
C61 H18 0.930 . S
C61 C60 1.380 . S
C61 C62 1.390 . S
C62 H19 0.925 1_554 S
C62 C61 1.390 . S
C62 C63 1.366 1_554 S
C63 C62 1.366 1_556 S
C63 C64 1.380 1_556 S
C64 H20 0.931 1_554 S
C64 C63 1.380 1_554 S
C64 C65 1.387 . S
C65 H21 0.930 . S
C65 C60 1.386 . S
C65 C64 1.387 . S
C66 C35 1.519 . S
C66 C67 1.377 . S
C66 C71 1.361 . S
C67 H22 0.929 . S
C67 C66 1.377 . S
C67 C68 1.386 . S
C68 H23 0.931 . S
C68 C67 1.386 . S
C68 C69 1.363 . S
C69 C68 1.363 . S
C69 C70 1.385 . S
C70 H24 0.930 . S
C70 C69 1.385 . S
C70 C71 1.396 . S
C71 H25 0.929 . S
C71 C66 1.361 . S
C71 C70 1.396 . S
C72 O26 1.300 . S
C72 O27 1.209 . S
C72 C45 1.486 . S
C73 O28 1.199 . S
C73 O29 1.297 . S
C73 C57 1.476 . S
H74 O100 0.856 . S
H75 O103 0.854 . S
H76 C111 0.930 . S
H77 C112 0.930 . S
H78 C114 0.930 . S
H79 C115 0.930 . S
H80 C117 0.931 . S
H81 C118 0.930 . S
H82 C120 0.930 . S
H83 C121 0.929 . S
H84 C123 0.930 . S
H85 C124 0.931 . S
H86 C126 0.930 . S
H87 C127 0.929 . S
H88 C129 0.931 . S
H89 C130 0.930 . S
H90 C132 0.930 . S
H91 C133 0.932 . S
H92 C135 0.930 . S
H93 C136 0.929 . S
H94 C138 0.931 . S
H95 C139 0.930 . S
H96 C141 0.929 . S
H97 C142 0.931 . S
H98 C144 0.930 . S
H99 C145 0.929 . S
O100 H74 0.856 . S
O100 C146 1.300 . S
O101 C146 1.209 . S
O102 C147 1.199 . S
O103 H75 0.854 . S
O103 C147 1.297 . S
C104 C105 1.404 . S
C104 C109 1.397 . S
C104 C110 1.492 . S
C105 C104 1.404 . S
C105 C106 1.396 . S
C105 C116 1.492 . S
C106 C105 1.396 . S
C106 C107 1.397 . S
C106 C122 1.509 . S
C107 C106 1.397 . S
C107 C108 1.412 . S
C107 C128 1.485 . S
C108 C107 1.412 . S
C108 C109 1.388 . S
C108 C134 1.490 . S
C109 C104 1.397 . S
C109 C108 1.388 . S
C109 C140 1.519 . S
C110 C104 1.492 . S
C110 C111 1.363 . S
C110 C115 1.390 . S
C111 H76 0.930 . S
C111 C110 1.363 . S
C111 C112 1.372 . S
C112 H77 0.930 . S
C112 C111 1.372 . S
C112 C113 1.383 . S
C113 C112 1.383 . S
C113 C114 1.395 . S
C114 H78 0.930 . S
C114 C113 1.395 . S
C114 C115 1.362 . S
C115 H79 0.930 . S
C115 C110 1.390 . S
C115 C114 1.362 . S
C116 C105 1.492 . S
C116 C117 1.377 . S
C116 C121 1.397 . S
C117 H80 0.931 . S
C117 C116 1.377 . S
C117 C118 1.376 . S
C118 H81 0.930 . S
C118 C117 1.376 . S
C118 C119 1.376 . S
C119 C118 1.376 . S
C119 C120 1.378 . S
C119 C146 1.486 . S
C120 H82 0.930 . S
C120 C119 1.378 . S
C120 C121 1.376 . S
C121 H83 0.929 . S
C121 C116 1.397 . S
C121 C120 1.376 . S
C122 C106 1.509 . S
C122 C123 1.391 . S
C122 C127 1.386 . S
C123 H84 0.930 . S
C123 C122 1.391 . S
C123 C124 1.375 . S
C124 H85 0.931 . S
C124 C123 1.375 . S
C124 C125 1.375 . S
C125 C124 1.375 . S
C125 C126 1.361 . S
C126 H86 0.930 . S
C126 C125 1.361 . S
C126 C127 1.399 . S
C127 H87 0.929 . S
C127 C122 1.386 . S
C127 C126 1.399 . S
C128 C107 1.485 . S
C128 C129 1.394 . S
C128 C133 1.360 . S
C129 H88 0.931 . S
C129 C128 1.394 . S
C129 C130 1.372 . S
C130 H89 0.930 . S
C130 C129 1.372 . S
C130 C131 1.397 . S
C131 C130 1.397 . S
C131 C132 1.390 . S
C131 C147 1.476 . S
C132 H90 0.930 . S
C132 C131 1.390 . S
C132 C133 1.366 . S
C133 H91 0.932 . S
C133 C128 1.360 . S
C133 C132 1.366 . S
C134 C108 1.490 . S
C134 C135 1.380 . S
C134 C139 1.386 . S
C135 H92 0.930 . S
C135 C134 1.380 . S
C135 C136 1.381 1_554 S
C136 H93 0.929 . S
C136 C135 1.381 1_556 S
C136 C137 1.371 . S
C137 C136 1.371 . S
C137 C138 1.380 . S
C138 H94 0.931 . S
C138 C137 1.380 . S
C138 C139 1.387 1_556 S
C139 H95 0.930 . S
C139 C134 1.386 . S
C139 C138 1.387 1_554 S
C140 C109 1.519 . S
C140 C141 1.377 . S
C140 C145 1.361 . S
C141 H96 0.929 . S
C141 C140 1.377 . S
C141 C142 1.386 . S
C142 H97 0.931 . S
C142 C141 1.386 . S
C142 C143 1.363 . S
C143 C142 1.363 . S
C143 C144 1.385 . S
C144 H98 0.930 . S
C144 C143 1.385 . S
C144 C145 1.396 . S
C145 H99 0.929 . S
C145 C140 1.361 . S
C145 C144 1.396 . S
C146 O100 1.300 . S
C146 O101 1.209 . S
C146 C119 1.486 . S
C147 O102 1.199 . S
C147 O103 1.297 . S
C147 C131 1.476 . S
H148 O174 0.856 . S
H149 O177 0.854 . S
H150 C185 0.930 . S
H151 C186 0.930 . S
H152 C188 0.930 . S
H153 C189 0.930 . S
H154 C191 0.931 . S
H155 C192 0.930 . S
H156 C194 0.930 . S
H157 C195 0.929 . S
H158 C197 0.930 . S
H159 C198 0.931 . S
H160 C200 0.930 . S
H161 C201 0.929 . S
H162 C203 0.931 . S
H163 C204 0.930 . S
H164 C206 0.930 . S
H165 C207 0.937 . S
H166 C209 0.930 . S
H167 C210 0.929 . S
H168 C212 0.931 . S
H169 C213 0.930 . S
H170 C215 0.929 . S
H171 C216 0.931 . S
H172 C218 0.930 . S
H173 C219 0.929 . S
O174 H148 0.856 . S
O174 C220 1.300 . S
O175 C220 1.209 . S
O176 C221 1.199 . S
O177 H149 0.854 . S
O177 C221 1.297 . S
C178 C179 1.404 . S
C178 C183 1.397 1_556 S
C178 C184 1.492 . S
C179 C178 1.404 . S
C179 C180 1.396 . S
C179 C190 1.492 . S
C180 C179 1.396 . S
C180 C181 1.397 . S
C180 C196 1.509 . S
C181 C180 1.397 . S
C181 C182 1.412 1_556 S
C181 C202 1.485 1_556 S
C182 C181 1.412 1_554 S
C182 C183 1.388 . S
C182 C208 1.490 . S
C183 C178 1.397 1_554 S
C183 C182 1.388 . S
C183 C214 1.519 . S
C184 C178 1.492 . S
C184 C185 1.363 . S
C184 C189 1.390 . S
C185 H150 0.930 . S
C185 C184 1.363 . S
C185 C186 1.372 . S
C186 H151 0.930 . S
C186 C185 1.372 . S
C186 C187 1.383 . S
C187 C186 1.383 . S
C187 C188 1.395 . S
C188 H152 0.930 . S
C188 C187 1.395 . S
C188 C189 1.362 . S
C189 H153 0.930 . S
C189 C184 1.390 . S
C189 C188 1.362 . S
C190 C179 1.492 . S
C190 C191 1.377 . S
C190 C195 1.397 . S
C191 H154 0.931 . S
C191 C190 1.377 . S
C191 C192 1.376 . S
C192 H155 0.930 . S
C192 C191 1.376 . S
C192 C193 1.376 . S
C193 C192 1.376 . S
C193 C194 1.378 . S
C193 C220 1.486 . S
C194 H156 0.930 . S
C194 C193 1.378 . S
C194 C195 1.376 . S
C195 H157 0.929 . S
C195 C190 1.397 . S
C195 C194 1.376 . S
C196 C180 1.509 . S
C196 C197 1.391 . S
C196 C201 1.386 . S
C197 H158 0.930 . S
C197 C196 1.391 . S
C197 C198 1.375 . S
C198 H159 0.931 . S
C198 C197 1.375 . S
C198 C199 1.375 . S
C199 C198 1.375 . S
C199 C200 1.361 . S
C200 H160 0.930 . S
C200 C199 1.361 . S
C200 C201 1.399 . S
C201 H161 0.929 . S
C201 C196 1.386 . S
C201 C200 1.399 . S
C202 C181 1.485 1_554 S
C202 C203 1.394 . S
C202 C207 1.358 1_554 S
C203 H162 0.931 . S
C203 C202 1.394 . S
C203 C204 1.372 . S
C204 H163 0.930 . S
C204 C203 1.372 . S
C204 C205 1.397 . S
C205 C204 1.397 . S
C205 C206 1.390 . S
C205 C221 1.476 . S
C206 H164 0.930 . S
C206 C205 1.390 . S
C206 C207 1.362 1_554 S
C207 H165 0.937 . S
C207 C202 1.358 1_556 S
C207 C206 1.362 1_556 S
C208 C182 1.490 . S
C208 C209 1.380 . S
C208 C213 1.386 . S
C209 H166 0.930 . S
C209 C208 1.380 . S
C209 C210 1.381 . S
C210 H167 0.929 . S
C210 C209 1.381 . S
C210 C211 1.371 . S
C211 C210 1.371 . S
C211 C212 1.380 . S
C212 H168 0.931 . S
C212 C211 1.380 . S
C212 C213 1.387 . S
C213 H169 0.930 . S
C213 C208 1.386 . S
C213 C212 1.387 . S
C214 C183 1.519 . S
C214 C215 1.377 . S
C214 C219 1.361 . S
C215 H170 0.929 . S
C215 C214 1.377 . S
C215 C216 1.386 . S
C216 H171 0.931 . S
C216 C215 1.386 . S
C216 C217 1.363 . S
C217 C216 1.363 . S
C217 C218 1.385 . S
C218 H172 0.930 . S
C218 C217 1.385 . S
C218 C219 1.396 . S
C219 H173 0.929 . S
C219 C214 1.361 . S
C219 C218 1.396 . S
C220 O174 1.300 . S
C220 O175 1.209 . S
C220 C193 1.486 . S
C221 O176 1.199 . S
C221 O177 1.297 . S
C221 C205 1.476 . S
H222 O248 0.856 . S
H223 O251 0.854 . S
H224 C259 0.930 . S
H225 C260 0.930 . S
H226 C262 0.930 . S
H227 C263 0.930 . S
H228 C265 0.931 . S
H229 C266 0.930 . S
H230 C268 0.930 . S
H231 C269 0.929 . S
H232 C271 0.930 . S
H233 C272 0.931 . S
H234 C274 0.930 . S
H235 C275 0.929 . S
H236 C277 0.931 . S
H237 C278 0.930 . S
H238 C280 0.930 . S
H239 C281 0.932 . S
H240 C283 0.930 . S
H241 C284 0.929 . S
H242 C286 0.931 . S
H243 C287 0.930 . S
H244 C289 0.929 . S
H245 C290 0.931 . S
H246 C292 0.930 . S
H247 C293 0.929 1_554 S
O248 H222 0.856 . S
O248 C294 1.300 . S
O249 C294 1.209 . S
O250 C295 1.199 . S
O251 H223 0.854 . S
O251 C295 1.297 . S
C252 C253 1.404 . S
C252 C257 1.397 . S
C252 C258 1.492 . S
C253 C252 1.404 . S
C253 C254 1.396 . S
C253 C264 1.492 . S
C254 C253 1.396 . S
C254 C255 1.397 . S
C254 C270 1.509 . S
C255 C254 1.397 . S
C255 C256 1.412 . S
C255 C276 1.485 . S
C256 C255 1.412 . S
C256 C257 1.388 . S
C256 C282 1.490 1_554 S
C257 C252 1.397 . S
C257 C256 1.388 . S
C257 C288 1.519 . S
C258 C252 1.492 . S
C258 C259 1.363 . S
C258 C263 1.390 . S
C259 H224 0.930 . S
C259 C258 1.363 . S
C259 C260 1.372 . S
C260 H225 0.930 . S
C260 C259 1.372 . S
C260 C261 1.383 . S
C261 C260 1.383 . S
C261 C262 1.395 . S
C262 H226 0.930 . S
C262 C261 1.395 . S
C262 C263 1.362 . S
C263 H227 0.930 . S
C263 C258 1.390 . S
C263 C262 1.362 . S
C264 C253 1.492 . S
C264 C265 1.377 . S
C264 C269 1.397 . S
C265 H228 0.931 . S
C265 C264 1.377 . S
C265 C266 1.376 . S
C266 H229 0.930 . S
C266 C265 1.376 . S
C266 C267 1.376 . S
C267 C266 1.376 . S
C267 C268 1.378 . S
C267 C294 1.486 . S
C268 H230 0.930 . S
C268 C267 1.378 . S
C268 C269 1.376 . S
C269 H231 0.929 . S
C269 C264 1.397 . S
C269 C268 1.376 . S
C270 C254 1.509 . S
C270 C271 1.391 . S
C270 C275 1.386 . S
C271 H232 0.930 . S
C271 C270 1.391 . S
C271 C272 1.375 . S
C272 H233 0.931 . S
C272 C271 1.375 . S
C272 C273 1.375 . S
C273 C272 1.375 . S
C273 C274 1.361 . S
C274 H234 0.930 . S
C274 C273 1.361 . S
C274 C275 1.399 . S
C275 H235 0.929 . S
C275 C270 1.386 . S
C275 C274 1.399 . S
C276 C255 1.485 . S
C276 C277 1.394 . S
C276 C281 1.360 . S
C277 H236 0.931 . S
C277 C276 1.394 . S
C277 C278 1.372 . S
C278 H237 0.930 . S
C278 C277 1.372 . S
C278 C279 1.397 . S
C279 C278 1.397 . S
C279 C280 1.390 . S
C279 C295 1.476 . S
C280 H238 0.930 . S
C280 C279 1.390 . S
C280 C281 1.366 . S
C281 H239 0.932 . S
C281 C276 1.360 . S
C281 C280 1.366 . S
C282 C256 1.490 1_556 S
C282 C283 1.380 . S
C282 C287 1.386 . S
C283 H240 0.930 . S
C283 C282 1.380 . S
C283 C284 1.381 . S
C284 H241 0.929 . S
C284 C283 1.381 . S
C284 C285 1.371 . S
C285 C284 1.371 . S
C285 C286 1.380 . S
C286 H242 0.931 . S
C286 C285 1.380 . S
C286 C287 1.387 . S
C287 H243 0.930 . S
C287 C282 1.386 . S
C287 C286 1.387 . S
C288 C257 1.519 . S
C288 C289 1.377 . S
C288 C293 1.361 1_554 S
C289 H244 0.929 . S
C289 C288 1.377 . S
C289 C290 1.386 1_554 S
C290 H245 0.931 . S
C290 C289 1.386 1_556 S
C290 C291 1.363 . S
C291 C290 1.363 . S
C291 C292 1.385 . S
C292 H246 0.930 . S
C292 C291 1.385 . S
C292 C293 1.396 . S
C293 H247 0.929 1_556 S
C293 C288 1.361 1_556 S
C293 C292 1.396 . S
C294 O248 1.300 . S
C294 O249 1.209 . S
C294 C267 1.486 . S
C295 O250 1.199 . S
C295 O251 1.297 . S
C295 C279 1.476 . S
H296 O322 0.856 . S
H297 O325 0.854 . S
H298 C333 0.930 . S
H299 C334 0.930 . S
H300 C336 0.930 . S
H301 C337 0.930 . S
H302 C339 0.931 . S
H303 C340 0.930 . S
H304 C342 0.930 . S
H305 C343 0.929 . S
H306 C345 0.930 . S
H307 C346 0.931 . S
H308 C348 0.930 . S
H309 C349 0.929 . S
H310 C351 0.931 . S
H311 C352 0.930 . S
H312 C354 0.930 . S
H313 C355 0.932 . S
H314 C357 0.930 1_554 S
H315 C358 0.929 . S
H316 C360 0.931 . S
H317 C361 0.930 . S
H318 C363 0.929 . S
H319 C364 0.931 . S
H320 C366 0.930 . S
H321 C367 0.929 . S
O322 H296 0.856 . S
O322 C368 1.300 . S
O323 C368 1.209 . S
O324 C369 1.199 . S
O325 H297 0.854 . S
O325 C369 1.297 . S
C326 C327 1.404 . S
C326 C331 1.397 . S
C326 C332 1.492 . S
C327 C326 1.404 . S
C327 C328 1.396 . S
C327 C338 1.492 . S
C328 C327 1.396 . S
C328 C329 1.397 . S
C328 C344 1.509 . S
C329 C328 1.397 . S
C329 C330 1.412 . S
C329 C350 1.485 . S
C330 C329 1.412 . S
C330 C331 1.388 . S
C330 C356 1.490 . S
C331 C326 1.397 . S
C331 C330 1.388 . S
C331 C362 1.519 . S
C332 C326 1.492 . S
C332 C333 1.363 . S
C332 C337 1.390 . S
C333 H298 0.930 . S
C333 C332 1.363 . S
C333 C334 1.372 . S
C334 H299 0.930 . S
C334 C333 1.372 . S
C334 C335 1.383 . S
C335 C334 1.383 . S
C335 C336 1.395 . S
C336 H300 0.930 . S
C336 C335 1.395 . S
C336 C337 1.362 . S
C337 H301 0.930 . S
C337 C332 1.390 . S
C337 C336 1.362 . S
C338 C327 1.492 . S
C338 C339 1.377 . S
C338 C343 1.397 . S
C339 H302 0.931 . S
C339 C338 1.377 . S
C339 C340 1.376 . S
C340 H303 0.930 . S
C340 C339 1.376 . S
C340 C341 1.376 . S
C341 C340 1.376 . S
C341 C342 1.378 . S
C341 C368 1.486 . S
C342 H304 0.930 . S
C342 C341 1.378 . S
C342 C343 1.376 . S
C343 H305 0.929 . S
C343 C338 1.397 . S
C343 C342 1.376 . S
C344 C328 1.509 . S
C344 C345 1.391 . S
C344 C349 1.386 . S
C345 H306 0.930 . S
C345 C344 1.391 . S
C345 C346 1.375 . S
C346 H307 0.931 . S
C346 C345 1.375 . S
C346 C347 1.375 . S
C347 C346 1.375 . S
C347 C348 1.361 . S
C348 H308 0.930 . S
C348 C347 1.361 . S
C348 C349 1.399 . S
C349 H309 0.929 . S
C349 C344 1.386 . S
C349 C348 1.399 . S
C350 C329 1.485 . S
C350 C351 1.394 . S
C350 C355 1.360 . S
C351 H310 0.931 . S
C351 C350 1.394 . S
C351 C352 1.372 . S
C352 H311 0.930 . S
C352 C351 1.372 . S
C352 C353 1.397 . S
C353 C352 1.397 . S
C353 C354 1.390 . S
C353 C369 1.476 . S
C354 H312 0.930 . S
C354 C353 1.390 . S
C354 C355 1.366 . S
C355 H313 0.932 . S
C355 C350 1.360 . S
C355 C354 1.366 . S
C356 C330 1.490 . S
C356 C357 1.380 1_554 S
C356 C361 1.386 1_554 S
C357 H314 0.930 1_556 S
C357 C356 1.380 1_556 S
C357 C358 1.381 . S
C358 H315 0.929 . S
C358 C357 1.381 . S
C358 C359 1.371 . S
C359 C358 1.371 . S
C359 C360 1.380 . S
C360 H316 0.931 . S
C360 C359 1.380 . S
C360 C361 1.387 . S
C361 H317 0.930 . S
C361 C356 1.386 1_556 S
C361 C360 1.387 . S
C362 C331 1.519 . S
C362 C363 1.377 . S
C362 C367 1.361 . S
C363 H318 0.929 . S
C363 C362 1.377 . S
C363 C364 1.386 1_554 S
C364 H319 0.931 . S
C364 C363 1.386 1_556 S
C364 C365 1.363 . S
C365 C364 1.363 . S
C365 C366 1.385 . S
C366 H320 0.930 . S
C366 C365 1.385 . S
C366 C367 1.396 1_556 S
C367 H321 0.929 . S
C367 C362 1.361 . S
C367 C366 1.396 1_554 S
C368 O322 1.300 . S
C368 O323 1.209 . S
C368 C341 1.486 . S
C369 O324 1.199 . S
C369 O325 1.297 . S
C369 C353 1.476 . S
H370 O396 0.856 . S
H371 O399 0.854 . S
H372 C407 0.930 . S
H373 C408 0.930 . S
H374 C410 0.930 . S
H375 C411 0.930 . S
H376 C413 0.931 . S
H377 C414 0.930 . S
H378 C416 0.930 . S
H379 C417 0.929 . S
H380 C419 0.930 . S
H381 C420 0.931 . S
H382 C422 0.930 1_556 S
H383 C423 0.929 . S
H384 C425 0.931 . S
H385 C426 0.930 . S
H386 C428 0.930 . S
H387 C429 0.932 . S
H388 C431 0.930 . S
H389 C432 0.929 . S
H390 C434 0.931 . S
H391 C435 0.930 . S
H392 C437 0.929 . S
H393 C438 0.931 . S
H394 C440 0.930 . S
H395 C441 0.929 . S
O396 H370 0.856 . S
O396 C442 1.300 . S
O397 C442 1.209 . S
O398 C443 1.199 . S
O399 H371 0.854 . S
O399 C443 1.297 . S
C400 C401 1.404 . S
C400 C405 1.397 . S
C400 C406 1.492 . S
C401 C400 1.404 . S
C401 C402 1.396 . S
C401 C412 1.492 . S
C402 C401 1.396 . S
C402 C403 1.397 . S
C402 C418 1.509 . S
C403 C402 1.397 . S
C403 C404 1.412 . S
C403 C424 1.485 . S
C404 C403 1.412 . S
C404 C405 1.388 . S
C404 C430 1.490 . S
C405 C400 1.397 . S
C405 C404 1.388 . S
C405 C436 1.519 . S
C406 C400 1.492 . S
C406 C407 1.363 . S
C406 C411 1.390 . S
C407 H372 0.930 . S
C407 C406 1.363 . S
C407 C408 1.372 . S
C408 H373 0.930 . S
C408 C407 1.372 . S
C408 C409 1.383 . S
C409 C408 1.383 . S
C409 C410 1.395 . S
C410 H374 0.930 . S
C410 C409 1.395 . S
C410 C411 1.362 . S
C411 H375 0.930 . S
C411 C406 1.390 . S
C411 C410 1.362 . S
C412 C401 1.492 . S
C412 C413 1.377 . S
C412 C417 1.397 . S
C413 H376 0.931 . S
C413 C412 1.377 . S
C413 C414 1.376 1_554 S
C414 H377 0.930 . S
C414 C413 1.376 1_556 S
C414 C415 1.376 . S
C415 C414 1.376 . S
C415 C416 1.378 . S
C415 C442 1.486 . S
C416 H378 0.930 . S
C416 C415 1.378 . S
C416 C417 1.376 1_556 S
C417 H379 0.929 . S
C417 C412 1.397 . S
C417 C416 1.376 1_554 S
C418 C402 1.509 . S
C418 C419 1.391 . S
C418 C423 1.386 . S
C419 H380 0.930 . S
C419 C418 1.391 . S
C419 C420 1.375 . S
C420 H381 0.931 . S
C420 C419 1.375 . S
C420 C421 1.375 1_554 S
C421 C420 1.375 1_556 S
C421 C422 1.361 1_556 S
C422 H382 0.930 1_554 S
C422 C421 1.361 1_554 S
C422 C423 1.399 . S
C423 H383 0.929 . S
C423 C418 1.386 . S
C423 C422 1.399 . S
C424 C403 1.485 . S
C424 C425 1.394 . S
C424 C429 1.360 . S
C425 H384 0.931 . S
C425 C424 1.394 . S
C425 C426 1.372 . S
C426 H385 0.930 . S
C426 C425 1.372 . S
C426 C427 1.397 . S
C427 C426 1.397 . S
C427 C428 1.390 . S
C427 C443 1.476 . S
C428 H386 0.930 . S
C428 C427 1.390 . S
C428 C429 1.366 . S
C429 H387 0.932 . S
C429 C424 1.360 . S
C429 C428 1.366 . S
C430 C404 1.490 . S
C430 C431 1.380 . S
C430 C435 1.386 . S
C431 H388 0.930 . S
C431 C430 1.380 . S
C431 C432 1.381 . S
C432 H389 0.929 . S
C432 C431 1.381 . S
C432 C433 1.371 . S
C433 C432 1.371 . S
C433 C434 1.380 . S
C434 H390 0.931 . S
C434 C433 1.380 . S
C434 C435 1.387 . S
C435 H391 0.930 . S
C435 C430 1.386 . S
C435 C434 1.387 . S
C436 C405 1.519 . S
C436 C437 1.377 . S
C436 C441 1.361 . S
C437 H392 0.929 . S
C437 C436 1.377 . S
C437 C438 1.386 . S
C438 H393 0.931 . S
C438 C437 1.386 . S
C438 C439 1.363 . S
C439 C438 1.363 . S
C439 C440 1.385 . S
C440 H394 0.930 . S
C440 C439 1.385 . S
C440 C441 1.396 . S
C441 H395 0.929 . S
C441 C436 1.361 . S
C441 C440 1.396 . S
C442 O396 1.300 . S
C442 O397 1.209 . S
C442 C415 1.486 . S
C443 O398 1.199 . S
C443 O399 1.297 . S
C443 C427 1.476 . S
C444 O456 1.241 . S
C444 O457 1.280 . S
C445 O458 1.277 . S
C445 O459 1.245 . S
C446 O470 1.247 . S
C446 O472 1.289 . S
Mg447 O448 1.948 1_655 S
Mg447 O457 2.011 . S
Mg447 O459 1.949 1_655 S
Mg447 O460 2.083 . S
O448 Mg447 1.948 1_455 S
O448 Mg449 1.986 . S
O448 Mg450 1.917 . S
Mg449 O448 1.986 . S
Mg449 O456 2.042 1_455 S
Mg449 O458 2.041 . S
Mg449 O464 2.038 1_455 S
Mg449 O472 2.238 . S
Mg450 O448 1.917 . S
Mg450 O451 1.917 . S
Mg450 O461 2.106 1_455 S
Mg450 O463 2.079 1_455 S
Mg450 O472 2.106 . S
Mg450 O473 2.079 . S
O451 Mg450 1.917 . S
O451 Mg452 1.926 . S
O451 Mg453 1.986 . S
Mg452 O451 1.926 . S
Mg452 O466 1.984 . S
Mg452 O469 1.988 1_455 S
Mg452 O470 2.061 . S
Mg453 O451 1.986 . S
Mg453 O461 2.238 1_455 S
Mg453 O465 2.042 . S
Mg453 O467 2.041 1_455 S
Mg453 O474 2.038 . S
C454 O460 1.247 . S
C454 O461 1.289 . S
C455 O473 1.245 . S
C455 O474 1.274 . S
O456 C444 1.241 . S
O456 Mg449 2.042 1_655 S
O457 C444 1.280 . S
O457 Mg447 2.011 . S
O458 C445 1.277 . S
O458 Mg449 2.041 . S
O459 C445 1.245 . S
O459 Mg447 1.949 1_455 S
O460 Mg447 2.083 . S
O460 C454 1.247 . S
O461 Mg450 2.106 1_655 S
O461 Mg453 2.238 1_655 S
O461 C454 1.289 . S
C462 O463 1.245 . S
C462 O464 1.274 . S
O463 Mg450 2.079 1_655 S
O463 C462 1.245 . S
O464 Mg449 2.038 1_655 S
O464 C462 1.274 . S
O465 Mg453 2.042 . S
O465 C468 1.241 . S
O466 Mg452 1.984 . S
O466 C468 1.280 . S
O467 Mg453 2.041 1_655 S
O467 C471 1.277 . S
C468 O465 1.241 . S
C468 O466 1.280 . S
O469 Mg452 1.988 1_655 S
O469 C471 1.245 . S
O470 C446 1.247 . S
O470 Mg452 2.061 . S
C471 O467 1.277 . S
C471 O469 1.245 . S
O472 C446 1.289 . S
O472 Mg449 2.238 . S
O472 Mg450 2.106 . S
O473 Mg450 2.079 . S
O473 C455 1.245 . S
O474 Mg453 2.038 . S
O474 C455 1.274 . S
C475 O487 1.241 . S
C475 O488 1.280 . S
C476 O489 1.277 . S
C476 O490 1.245 . S
C477 O501 1.247 . S
C477 O503 1.289 . S
Mg478 O479 1.926 . S
Mg478 O488 1.984 . S
Mg478 O490 1.988 1_545 S
Mg478 O491 2.061 . S
O479 Mg478 1.926 . S
O479 Mg480 1.986 . S
O479 Mg481 1.917 . S
Mg480 O479 1.986 . S
Mg480 O487 2.042 . S
Mg480 O489 2.041 1_545 S
Mg480 O495 2.038 . S
Mg480 O503 2.238 1_545 S
Mg481 O479 1.917 . S
Mg481 O482 1.917 1_545 S
Mg481 O492 2.106 . S
Mg481 O494 2.079 . S
Mg481 O503 2.106 1_545 S
Mg481 O504 2.079 1_545 S
O482 Mg481 1.917 1_565 S
O482 Mg483 1.926 . S
O482 Mg484 1.986 1_565 S
Mg483 O482 1.926 . S
Mg483 O497 1.984 . S
Mg483 O500 1.988 1_565 S
Mg483 O501 2.061 . S
Mg484 O482 1.986 1_545 S
Mg484 O492 2.238 . S
Mg484 O496 2.042 1_545 S
Mg484 O498 2.041 . S
Mg484 O505 2.038 1_545 S
C485 O491 1.247 . S
C485 O492 1.289 . S
C486 O504 1.245 . S
C486 O505 1.274 . S
O487 C475 1.241 . S
O487 Mg480 2.042 . S
O488 C475 1.280 . S
O488 Mg478 1.984 . S
O489 C476 1.277 . S
O489 Mg480 2.041 1_565 S
O490 C476 1.245 . S
O490 Mg478 1.988 1_565 S
O491 Mg478 2.061 . S
O491 C485 1.247 . S
O492 Mg481 2.106 . S
O492 Mg484 2.238 . S
O492 C485 1.289 . S
C493 O494 1.245 . S
C493 O495 1.274 . S
O494 Mg481 2.079 . S
O494 C493 1.245 . S
O495 Mg480 2.038 . S
O495 C493 1.274 . S
O496 Mg484 2.042 1_565 S
O496 C499 1.241 . S
O497 Mg483 1.984 . S
O497 C499 1.280 . S
O498 Mg484 2.041 . S
O498 C502 1.277 . S
C499 O496 1.241 . S
C499 O497 1.280 . S
O500 Mg483 1.988 1_545 S
O500 C502 1.245 . S
O501 C477 1.247 . S
O501 Mg483 2.061 . S
C502 O498 1.277 . S
C502 O500 1.245 . S
O503 C477 1.289 . S
O503 Mg480 2.238 1_565 S
O503 Mg481 2.106 1_565 S
O504 Mg481 2.079 1_565 S
O504 C486 1.245 . S
O505 Mg484 2.038 1_565 S
O505 C486 1.274 . S
C506 O518 1.241 . S
C506 O519 1.280 . S
C507 O520 1.277 . S
C507 O521 1.245 . S
C508 O532 1.247 . S
C508 O534 1.289 . S
Mg509 O510 1.926 . S
Mg509 O519 1.984 . S
Mg509 O521 1.988 . S
Mg509 O522 2.061 . S
O510 Mg509 1.926 . S
O510 Mg511 1.986 . S
O510 Mg512 1.917 . S
Mg511 O510 1.986 . S
Mg511 O518 2.042 . S
Mg511 O520 2.041 . S
Mg511 O526 2.038 . S
Mg511 O534 2.238 . S
Mg512 O510 1.917 . S
Mg512 O513 1.917 . S
Mg512 O523 2.106 . S
Mg512 O525 2.079 . S
Mg512 O534 2.106 . S
Mg512 O535 2.079 . S
O513 Mg512 1.917 . S
O513 Mg514 1.926 . S
O513 Mg515 1.986 . S
Mg514 O513 1.926 . S
Mg514 O528 1.984 . S
Mg514 O531 1.988 . S
Mg514 O532 2.061 . S
Mg515 O513 1.986 . S
Mg515 O523 2.238 . S
Mg515 O527 2.042 . S
Mg515 O529 2.041 . S
Mg515 O536 2.038 . S
C516 O522 1.247 . S
C516 O523 1.289 . S
C517 O535 1.245 . S
C517 O536 1.274 . S
O518 C506 1.241 . S
O518 Mg511 2.042 . S
O519 C506 1.280 . S
O519 Mg509 1.984 . S
O520 C507 1.277 . S
O520 Mg511 2.041 . S
O521 C507 1.245 . S
O521 Mg509 1.988 . S
O522 Mg509 2.061 . S
O522 C516 1.247 . S
O523 Mg512 2.106 . S
O523 Mg515 2.238 . S
O523 C516 1.289 . S
C524 O525 1.245 . S
C524 O526 1.274 . S
O525 Mg512 2.079 . S
O525 C524 1.245 . S
O526 Mg511 2.038 . S
O526 C524 1.274 . S
O527 Mg515 2.042 . S
O527 C530 1.241 . S
O528 Mg514 1.984 . S
O528 C530 1.280 . S
O529 Mg515 2.041 . S
O529 C533 1.277 . S
C530 O527 1.241 . S
C530 O528 1.280 . S
O531 Mg514 1.988 . S
O531 C533 1.245 . S
O532 C508 1.247 . S
O532 Mg514 2.061 . S
C533 O529 1.277 . S
C533 O531 1.245 . S
O534 C508 1.289 . S
O534 Mg511 2.238 . S
O534 Mg512 2.106 . S
O535 Mg512 2.079 . S
O535 C517 1.245 . S
O536 Mg515 2.038 . S
O536 C517 1.274 . S
C537 C538 1.391 . S
C537 C539 1.394 . S
C537 H553 0.931 . S
C538 C537 1.391 . S
C538 C542 1.376 . S
C539 C537 1.394 . S
C539 C540 1.369 . S
C539 C543 1.531 . S
C540 C539 1.369 . S
C540 C541 1.410 . S
C540 C548 1.503 . S
C541 C540 1.410 . S
C541 C542 1.392 . S
C541 C544 1.511 . S
C542 C538 1.376 . S
C542 C541 1.392 . S
C542 H554 0.929 . S
C543 C539 1.531 . S
C543 H555 0.960 . S
C543 H556 0.962 . S
C543 H557 0.960 . S
C544 C541 1.511 . S
C544 H558 0.961 . S
C544 H559 0.961 . S
C544 H560 0.961 . S
C545 C546 1.370 . S
C545 C547 1.363 . S
C545 H561 0.931 . S
C546 C545 1.370 . S
C546 C550 1.408 . S
C547 C545 1.363 . S
C547 C548 1.370 . S
C547 C551 1.524 . S
C548 C540 1.503 . S
C548 C547 1.370 . S
C548 C549 1.403 . S
C549 C548 1.403 . S
C549 C550 1.404 . S
C549 C552 1.539 . S
C550 C546 1.408 . S
C550 C549 1.404 . S
C550 H562 0.930 . S
C551 C547 1.524 . S
C551 H563 0.956 . S
C551 H564 0.961 . S
C551 H565 0.961 . S
C552 C549 1.539 . S
C552 H566 0.958 . S
C552 H567 0.961 . S
C552 H568 0.960 . S
H553 C537 0.931 . S
H554 C542 0.929 . S
H555 C543 0.960 . S
H556 C543 0.962 . S
H557 C543 0.960 . S
H558 C544 0.961 . S
H559 C544 0.961 . S
H560 C544 0.961 . S
H561 C545 0.931 . S
H562 C550 0.930 . S
H563 C551 0.956 . S
H564 C551 0.961 . S
H565 C551 0.961 . S
H566 C552 0.958 . S
H567 C552 0.961 . S
H568 C552 0.960 . S
C569 C570 1.391 . S
C569 C571 1.394 . S
C569 H585 0.931 . S
C570 C569 1.391 . S
C570 C574 1.376 . S
C571 C569 1.394 . S
C571 C572 1.369 . S
C571 C575 1.531 . S
C572 C571 1.369 . S
C572 C573 1.410 . S
C572 C580 1.503 . S
C573 C572 1.410 . S
C573 C574 1.392 . S
C573 C576 1.511 . S
C574 C570 1.376 . S
C574 C573 1.392 . S
C574 H586 0.929 . S
C575 C571 1.531 . S
C575 H587 0.960 . S
C575 H588 0.962 . S
C575 H589 0.960 . S
C576 C573 1.511 . S
C576 H590 0.961 . S
C576 H591 0.961 . S
C576 H592 0.961 . S
C577 C578 1.370 . S
C577 C579 1.363 . S
C577 H593 0.931 . S
C578 C577 1.370 . S
C578 C582 1.408 . S
C579 C577 1.363 . S
C579 C580 1.370 . S
C579 C583 1.524 . S
C580 C572 1.503 . S
C580 C579 1.370 . S
C580 C581 1.403 . S
C581 C580 1.403 . S
C581 C582 1.404 . S
C581 C584 1.539 . S
C582 C578 1.408 . S
C582 C581 1.404 . S
C582 H594 0.930 . S
C583 C579 1.524 . S
C583 H595 0.956 . S
C583 H596 0.961 . S
C583 H597 0.961 . S
C584 C581 1.539 . S
C584 H598 0.958 . S
C584 H599 0.961 . S
C584 H600 0.960 . S
H585 C569 0.931 . S
H586 C574 0.929 . S
H587 C575 0.960 . S
H588 C575 0.962 . S
H589 C575 0.960 . S
H590 C576 0.961 . S
H591 C576 0.961 . S
H592 C576 0.961 . S
H593 C577 0.931 . S
H594 C582 0.930 . S
H595 C583 0.956 . S
H596 C583 0.961 . S
H597 C583 0.961 . S
H598 C584 0.958 . S
H599 C584 0.961 . S
H600 C584 0.960 . S
C601 C602 1.391 . S
C601 C603 1.394 . S
C601 H617 0.931 . S
C602 C601 1.391 . S
C602 C606 1.376 . S
C603 C601 1.394 . S
C603 C604 1.369 . S
C603 C607 1.531 . S
C604 C603 1.369 . S
C604 C605 1.410 . S
C604 C612 1.503 . S
C605 C604 1.410 . S
C605 C606 1.392 . S
C605 C608 1.511 . S
C606 C602 1.376 . S
C606 C605 1.392 . S
C606 H618 0.929 . S
C607 C603 1.531 . S
C607 H619 0.960 . S
C607 H620 0.962 . S
C607 H621 0.960 . S
C608 C605 1.511 . S
C608 H622 0.961 . S
C608 H623 0.961 . S
C608 H624 0.961 . S
C609 C610 1.370 . S
C609 C611 1.363 . S
C609 H625 0.931 . S
C610 C609 1.370 . S
C610 C614 1.408 . S
C611 C609 1.363 . S
C611 C612 1.370 . S
C611 C615 1.524 . S
C612 C604 1.503 . S
C612 C611 1.370 . S
C612 C613 1.403 . S
C613 C612 1.403 . S
C613 C614 1.404 . S
C613 C616 1.539 . S
C614 C610 1.408 . S
C614 C613 1.404 . S
C614 H626 0.930 . S
C615 C611 1.524 . S
C615 H627 0.956 . S
C615 H628 0.961 . S
C615 H629 0.961 . S
C616 C613 1.539 . S
C616 H630 0.958 . S
C616 H631 0.961 . S
C616 H632 0.960 . S
H617 C601 0.931 . S
H618 C606 0.929 . S
H619 C607 0.960 . S
H620 C607 0.962 . S
H621 C607 0.960 . S
H622 C608 0.961 . S
H623 C608 0.961 . S
H624 C608 0.961 . S
H625 C609 0.931 . S
H626 C614 0.930 . S
H627 C615 0.956 . S
H628 C615 0.961 . S
H629 C615 0.961 . S
H630 C616 0.958 . S
H631 C616 0.961 . S
H632 C616 0.960 . S
C633 C634 1.391 . S
C633 C635 1.394 . S
C633 H649 0.931 . S
C634 C633 1.391 . S
C634 C638 1.376 . S
C635 C633 1.394 . S
C635 C636 1.369 . S
C635 C639 1.531 . S
C636 C635 1.369 . S
C636 C637 1.410 . S
C636 C644 1.503 . S
C637 C636 1.410 . S
C637 C638 1.392 . S
C637 C640 1.511 . S
C638 C634 1.376 . S
C638 C637 1.392 . S
C638 H650 0.929 . S
C639 C635 1.531 . S
C639 H651 0.960 . S
C639 H652 0.962 . S
C639 H653 0.960 . S
C640 C637 1.511 . S
C640 H654 0.961 . S
C640 H655 0.961 . S
C640 H656 0.961 . S
C641 C642 1.370 . S
C641 C643 1.363 . S
C641 H657 0.931 . S
C642 C641 1.370 . S
C642 C646 1.408 . S
C643 C641 1.363 . S
C643 C644 1.370 . S
C643 C647 1.524 . S
C644 C636 1.503 . S
C644 C643 1.370 . S
C644 C645 1.403 . S
C645 C644 1.403 . S
C645 C646 1.404 . S
C645 C648 1.539 . S
C646 C642 1.408 . S
C646 C645 1.404 . S
C646 H658 0.930 . S
C647 C643 1.524 . S
C647 H659 0.956 . S
C647 H660 0.961 . S
C647 H661 0.961 . S
C648 C645 1.539 . S
C648 H662 0.958 . S
C648 H663 0.961 . S
C648 H664 0.960 . S
H649 C633 0.931 . S
H650 C638 0.929 . S
H651 C639 0.960 . S
H652 C639 0.962 . S
H653 C639 0.960 . S
H654 C640 0.961 . S
H655 C640 0.961 . S
H656 C640 0.961 . S
H657 C641 0.931 . S
H658 C646 0.930 . S
H659 C647 0.956 . S
H660 C647 0.961 . S
H661 C647 0.961 . S
H662 C648 0.958 . S
H663 C648 0.961 . S
H664 C648 0.960 . S
C665 C666 1.391 . S
C665 C667 1.394 . S
C665 H681 0.931 . S
C666 C665 1.391 . S
C666 C670 1.376 . S
C667 C665 1.394 . S
C667 C668 1.369 . S
C667 C671 1.531 . S
C668 C667 1.369 . S
C668 C669 1.410 . S
C668 C676 1.503 . S
C669 C668 1.410 . S
C669 C670 1.392 . S
C669 C672 1.511 . S
C670 C666 1.376 . S
C670 C669 1.392 . S
C670 H682 0.929 . S
C671 C667 1.531 . S
C671 H683 0.960 . S
C671 H684 0.962 . S
C671 H685 0.960 . S
C672 C669 1.511 . S
C672 H686 0.961 . S
C672 H687 0.961 . S
C672 H688 0.961 . S
C673 C674 1.370 . S
C673 C675 1.363 . S
C673 H689 0.931 . S
C674 C673 1.370 . S
C674 C678 1.408 . S
C675 C673 1.363 . S
C675 C676 1.370 . S
C675 C679 1.524 . S
C676 C668 1.503 . S
C676 C675 1.370 . S
C676 C677 1.403 . S
C677 C676 1.403 . S
C677 C678 1.404 . S
C677 C680 1.539 . S
C678 C674 1.408 . S
C678 C677 1.404 . S
C678 H690 0.930 . S
C679 C675 1.524 . S
C679 H691 0.956 . S
C679 H692 0.961 . S
C679 H693 0.961 . S
C680 C677 1.539 . S
C680 H694 0.958 . S
C680 H695 0.961 . S
C680 H696 0.960 . S
H681 C665 0.931 . S
H682 C670 0.929 . S
H683 C671 0.960 . S
H684 C671 0.962 . S
H685 C671 0.960 . S
H686 C672 0.961 . S
H687 C672 0.961 . S
H688 C672 0.961 . S
H689 C673 0.931 . S
H690 C678 0.930 . S
H691 C679 0.956 . S
H692 C679 0.961 . S
H693 C679 0.961 . S
H694 C680 0.958 . S
H695 C680 0.961 . S
H696 C680 0.960 . S
C697 C698 1.391 . S
C697 C699 1.394 . S
C697 H713 0.931 . S
C698 C697 1.391 . S
C698 C702 1.376 . S
C699 C697 1.394 . S
C699 C700 1.369 . S
C699 C703 1.531 . S
C700 C699 1.369 . S
C700 C701 1.410 . S
C700 C708 1.503 . S
C701 C700 1.410 . S
C701 C702 1.392 . S
C701 C704 1.511 . S
C702 C698 1.376 . S
C702 C701 1.392 . S
C702 H714 0.929 . S
C703 C699 1.531 . S
C703 H715 0.960 . S
C703 H716 0.962 . S
C703 H717 0.960 . S
C704 C701 1.511 . S
C704 H718 0.961 . S
C704 H719 0.961 . S
C704 H720 0.961 . S
C705 C706 1.370 . S
C705 C707 1.363 . S
C705 H721 0.931 . S
C706 C705 1.370 . S
C706 C710 1.408 . S
C707 C705 1.363 . S
C707 C708 1.370 . S
C707 C711 1.524 . S
C708 C700 1.503 . S
C708 C707 1.370 . S
C708 C709 1.403 . S
C709 C708 1.403 . S
C709 C710 1.404 . S
C709 C712 1.539 . S
C710 C706 1.408 . S
C710 C709 1.404 . S
C710 H722 0.930 . S
C711 C707 1.524 . S
C711 H723 0.956 . S
C711 H724 0.961 . S
C711 H725 0.961 . S
C712 C709 1.539 . S
C712 H726 0.958 . S
C712 H727 0.961 . S
C712 H728 0.960 . S
H713 C697 0.931 . S
H714 C702 0.929 . S
H715 C703 0.960 . S
H716 C703 0.962 . S
H717 C703 0.960 . S
H718 C704 0.961 . S
H719 C704 0.961 . S
H720 C704 0.961 . S
H721 C705 0.931 . S
H722 C710 0.930 . S
H723 C711 0.956 . S
H724 C711 0.961 . S
H725 C711 0.961 . S
H726 C712 0.958 . S
H727 C712 0.961 . S
H728 C712 0.960 . S
C729 C730 1.391 . S
C729 C731 1.394 . S
C729 H745 0.931 . S
C730 C729 1.391 . S
C730 C734 1.376 . S
C731 C729 1.394 . S
C731 C732 1.369 . S
C731 C735 1.531 . S
C732 C731 1.369 . S
C732 C733 1.410 . S
C732 C740 1.503 . S
C733 C732 1.410 . S
C733 C734 1.392 . S
C733 C736 1.511 . S
C734 C730 1.376 . S
C734 C733 1.392 . S
C734 H746 0.929 . S
C735 C731 1.531 . S
C735 H747 0.960 . S
C735 H748 0.962 . S
C735 H749 0.960 . S
C736 C733 1.511 . S
C736 H750 0.961 . S
C736 H751 0.961 . S
C736 H752 0.961 . S
C737 C738 1.370 . S
C737 C739 1.363 . S
C737 H753 0.931 . S
C738 C737 1.370 . S
C738 C742 1.408 . S
C739 C737 1.363 . S
C739 C740 1.370 . S
C739 C743 1.524 . S
C740 C732 1.503 . S
C740 C739 1.370 . S
C740 C741 1.403 . S
C741 C740 1.403 . S
C741 C742 1.404 . S
C741 C744 1.539 . S
C742 C738 1.408 . S
C742 C741 1.404 . S
C742 H754 0.930 . S
C743 C739 1.524 . S
C743 H755 0.956 . S
C743 H756 0.961 . S
C743 H757 0.961 . S
C744 C741 1.539 . S
C744 H758 0.958 . S
C744 H759 0.961 . S
C744 H760 0.960 . S
H745 C729 0.931 . S
H746 C734 0.929 . S
H747 C735 0.960 . S
H748 C735 0.962 . S
H749 C735 0.960 . S
H750 C736 0.961 . S
H751 C736 0.961 . S
H752 C736 0.961 . S
H753 C737 0.931 . S
H754 C742 0.930 . S
H755 C743 0.956 . S
H756 C743 0.961 . S
H757 C743 0.961 . S
H758 C744 0.958 . S
H759 C744 0.961 . S
H760 C744 0.960 . S
C761 C762 1.391 . S
C761 C763 1.394 . S
C761 H777 0.931 . S
C762 C761 1.391 . S
C762 C766 1.376 . S
C763 C761 1.394 . S
C763 C764 1.369 . S
C763 C767 1.531 . S
C764 C763 1.369 . S
C764 C765 1.410 . S
C764 C772 1.503 . S
C765 C764 1.410 . S
C765 C766 1.392 . S
C765 C768 1.511 . S
C766 C762 1.376 . S
C766 C765 1.392 . S
C766 H778 0.929 . S
C767 C763 1.531 . S
C767 H779 0.960 . S
C767 H780 0.962 . S
C767 H781 0.960 . S
C768 C765 1.511 . S
C768 H782 0.961 . S
C768 H783 0.961 . S
C768 H784 0.961 . S
C769 C770 1.370 . S
C769 C771 1.363 . S
C769 H785 0.931 . S
C770 C769 1.370 . S
C770 C774 1.408 . S
C771 C769 1.363 . S
C771 C772 1.370 . S
C771 C775 1.524 . S
C772 C764 1.503 . S
C772 C771 1.370 . S
C772 C773 1.403 . S
C773 C772 1.403 . S
C773 C774 1.404 . S
C773 C776 1.539 . S
C774 C770 1.408 . S
C774 C773 1.404 . S
C774 H786 0.930 . S
C775 C771 1.524 . S
C775 H787 0.956 . S
C775 H788 0.961 . S
C775 H789 0.961 . S
C776 C773 1.539 . S
C776 H790 0.958 . S
C776 H791 0.961 . S
C776 H792 0.960 . S
H777 C761 0.931 . S
H778 C766 0.929 . S
H779 C767 0.960 . S
H780 C767 0.962 . S
H781 C767 0.960 . S
H782 C768 0.961 . S
H783 C768 0.961 . S
H784 C768 0.961 . S
H785 C769 0.931 . S
H786 C774 0.930 . S
H787 C775 0.956 . S
H788 C775 0.961 . S
H789 C775 0.961 . S
H790 C776 0.958 . S
H791 C776 0.961 . S
H792 C776 0.960 . S
C793 C794 1.391 . S
C793 C795 1.394 . S
C793 H809 0.931 . S
C794 C793 1.391 . S
C794 C798 1.376 . S
C795 C793 1.394 . S
C795 C796 1.369 . S
C795 C799 1.531 . S
C796 C795 1.369 . S
C796 C797 1.410 . S
C796 C804 1.503 . S
C797 C796 1.410 . S
C797 C798 1.392 . S
C797 C800 1.511 . S
C798 C794 1.376 . S
C798 C797 1.392 . S
C798 H810 0.929 . S
C799 C795 1.531 . S
C799 H811 0.960 . S
C799 H812 0.962 . S
C799 H813 0.960 . S
C800 C797 1.511 . S
C800 H814 0.961 . S
C800 H815 0.961 . S
C800 H816 0.961 . S
C801 C802 1.370 . S
C801 C803 1.363 . S
C801 H817 0.931 . S
C802 C801 1.370 . S
C802 C806 1.408 . S
C803 C801 1.363 . S
C803 C804 1.370 . S
C803 C807 1.524 . S
C804 C796 1.503 . S
C804 C803 1.370 . S
C804 C805 1.403 . S
C805 C804 1.403 . S
C805 C806 1.404 . S
C805 C808 1.539 . S
C806 C802 1.408 . S
C806 C805 1.404 . S
C806 H818 0.930 . S
C807 C803 1.524 . S
C807 H819 0.956 . S
C807 H820 0.961 . S
C807 H821 0.961 . S
C808 C805 1.539 . S
C808 H822 0.958 . S
C808 H823 0.961 . S
C808 H824 0.960 . S
H809 C793 0.931 . S
H810 C798 0.929 . S
H811 C799 0.960 . S
H812 C799 0.962 . S
H813 C799 0.960 . S
H814 C800 0.961 . S
H815 C800 0.961 . S
H816 C800 0.961 . S
H817 C801 0.931 . S
H818 C806 0.930 . S
H819 C807 0.956 . S
H820 C807 0.961 . S
H821 C807 0.961 . S
H822 C808 0.958 . S
H823 C808 0.961 . S
H824 C808 0.960 . S
C825 C826 1.391 . S
C825 C827 1.394 . S
C825 H841 0.931 1_556 S
C826 C825 1.391 . S
C826 C830 1.376 . S
C827 C825 1.394 . S
C827 C828 1.369 . S
C827 C831 1.531 . S
C828 C827 1.369 . S
C828 C829 1.410 . S
C828 C836 1.503 . S
C829 C828 1.410 . S
C829 C830 1.392 . S
C829 C832 1.511 . S
C830 C826 1.376 . S
C830 C829 1.392 . S
C830 H842 0.929 . S
C831 C827 1.531 . S
C831 H843 0.960 . S
C831 H844 0.962 . S
C831 H845 0.960 . S
C832 C829 1.511 . S
C832 H846 0.961 . S
C832 H847 0.961 . S
C832 H848 0.961 . S
C833 C834 1.370 . S
C833 C835 1.363 . S
C833 H849 0.931 . S
C834 C833 1.370 . S
C834 C838 1.408 . S
C835 C833 1.363 . S
C835 C836 1.370 . S
C835 C839 1.524 . S
C836 C828 1.503 . S
C836 C835 1.370 . S
C836 C837 1.403 . S
C837 C836 1.403 . S
C837 C838 1.404 . S
C837 C840 1.539 . S
C838 C834 1.408 . S
C838 C837 1.404 . S
C838 H850 0.930 . S
C839 C835 1.524 . S
C839 H851 0.956 . S
C839 H852 0.961 . S
C839 H853 0.961 . S
C840 C837 1.539 . S
C840 H854 0.958 . S
C840 H855 0.961 . S
C840 H856 0.960 . S
H841 C825 0.931 1_554 S
H842 C830 0.929 . S
H843 C831 0.960 . S
H844 C831 0.962 . S
H845 C831 0.960 . S
H846 C832 0.961 . S
H847 C832 0.961 . S
H848 C832 0.961 . S
H849 C833 0.931 . S
H850 C838 0.930 . S
H851 C839 0.956 . S
H852 C839 0.961 . S
H853 C839 0.961 . S
H854 C840 0.958 . S
H855 C840 0.961 . S
H856 C840 0.960 . S
C857 C858 1.391 . S
C857 C859 1.394 . S
C857 H873 0.931 . S
C858 C857 1.391 . S
C858 C862 1.376 . S
C859 C857 1.394 . S
C859 C860 1.369 . S
C859 C863 1.531 . S
C860 C859 1.369 . S
C860 C861 1.410 . S
C860 C868 1.503 . S
C861 C860 1.410 . S
C861 C862 1.392 . S
C861 C864 1.511 . S
C862 C858 1.376 . S
C862 C861 1.392 . S
C862 H874 0.929 . S
C863 C859 1.531 . S
C863 H875 0.960 . S
C863 H876 0.962 . S
C863 H877 0.960 . S
C864 C861 1.511 . S
C864 H878 0.961 . S
C864 H879 0.961 . S
C864 H880 0.961 . S
C865 C866 1.370 . S
C865 C867 1.363 . S
C865 H881 0.931 . S
C866 C865 1.370 . S
C866 C870 1.408 . S
C867 C865 1.363 . S
C867 C868 1.370 . S
C867 C871 1.524 . S
C868 C860 1.503 . S
C868 C867 1.370 . S
C868 C869 1.403 . S
C869 C868 1.403 . S
C869 C870 1.404 . S
C869 C872 1.539 . S
C870 C866 1.408 . S
C870 C869 1.404 . S
C870 H882 0.930 . S
C871 C867 1.524 . S
C871 H883 0.956 . S
C871 H884 0.961 . S
C871 H885 0.961 . S
C872 C869 1.539 . S
C872 H886 0.958 . S
C872 H887 0.961 . S
C872 H888 0.960 . S
H873 C857 0.931 . S
H874 C862 0.929 . S
H875 C863 0.960 . S
H876 C863 0.962 . S
H877 C863 0.960 . S
H878 C864 0.961 . S
H879 C864 0.961 . S
H880 C864 0.961 . S
H881 C865 0.931 . S
H882 C870 0.930 . S
H883 C871 0.956 . S
H884 C871 0.961 . S
H885 C871 0.961 . S
H886 C872 0.958 . S
H887 C872 0.961 . S
H888 C872 0.960 . S
C889 C890 1.391 . S
C889 C891 1.394 . S
C889 H905 0.931 . S
C890 C889 1.391 . S
C890 C894 1.376 . S
C891 C889 1.394 . S
C891 C892 1.369 . S
C891 C895 1.531 . S
C892 C891 1.369 . S
C892 C893 1.410 . S
C892 C900 1.503 . S
C893 C892 1.410 . S
C893 C894 1.392 . S
C893 C896 1.511 . S
C894 C890 1.376 . S
C894 C893 1.392 . S
C894 H906 0.929 . S
C895 C891 1.531 . S
C895 H907 0.960 . S
C895 H908 0.962 . S
C895 H909 0.960 . S
C896 C893 1.511 . S
C896 H910 0.961 . S
C896 H911 0.961 . S
C896 H912 0.961 . S
C897 C898 1.370 . S
C897 C899 1.363 . S
C897 H913 0.931 . S
C898 C897 1.370 . S
C898 C902 1.408 . S
C899 C897 1.363 . S
C899 C900 1.370 . S
C899 C903 1.524 . S
C900 C892 1.503 . S
C900 C899 1.370 . S
C900 C901 1.403 . S
C901 C900 1.403 . S
C901 C902 1.404 . S
C901 C904 1.539 . S
C902 C898 1.408 . S
C902 C901 1.404 . S
C902 H914 0.930 . S
C903 C899 1.524 . S
C903 H915 0.956 . S
C903 H916 0.961 . S
C903 H917 0.961 . S
C904 C901 1.539 . S
C904 H918 0.958 . S
C904 H919 0.961 . S
C904 H920 0.960 . S
H905 C889 0.931 . S
H906 C894 0.929 . S
H907 C895 0.960 . S
H908 C895 0.962 . S
H909 C895 0.960 . S
H910 C896 0.961 . S
H911 C896 0.961 . S
H912 C896 0.961 . S
H913 C897 0.931 . S
H914 C902 0.930 . S
H915 C903 0.956 . S
H916 C903 0.961 . S
H917 C903 0.961 . S
H918 C904 0.958 . S
H919 C904 0.961 . S
H920 C904 0.960 . S
C921 C922 1.391 . S
C921 C923 1.394 . S
C921 H937 0.931 . S
C922 C921 1.391 . S
C922 C926 1.376 . S
C923 C921 1.394 . S
C923 C924 1.369 . S
C923 C927 1.531 . S
C924 C923 1.369 . S
C924 C925 1.410 . S
C924 C932 1.503 . S
C925 C924 1.410 . S
C925 C926 1.392 . S
C925 C928 1.511 . S
C926 C922 1.376 . S
C926 C925 1.392 . S
C926 H938 0.929 . S
C927 C923 1.531 . S
C927 H939 0.960 . S
C927 H940 0.962 . S
C927 H941 0.960 . S
C928 C925 1.511 . S
C928 H942 0.961 . S
C928 H943 0.961 . S
C928 H944 0.961 . S
C929 C930 1.370 . S
C929 C931 1.363 . S
C929 H945 0.931 . S
C930 C929 1.370 . S
C930 C934 1.408 . S
C931 C929 1.363 . S
C931 C932 1.370 . S
C931 C935 1.524 . S
C932 C924 1.503 . S
C932 C931 1.370 . S
C932 C933 1.403 . S
C933 C932 1.403 . S
C933 C934 1.404 . S
C933 C936 1.539 . S
C934 C930 1.408 . S
C934 C933 1.404 . S
C934 H946 0.930 . S
C935 C931 1.524 . S
C935 H947 0.956 . S
C935 H948 0.961 . S
C935 H949 0.961 . S
C936 C933 1.539 . S
C936 H950 0.958 . S
C936 H951 0.961 . S
C936 H952 0.960 . S
H937 C921 0.931 . S
H938 C926 0.929 . S
H939 C927 0.960 . S
H940 C927 0.962 . S
H941 C927 0.960 . S
H942 C928 0.961 . S
H943 C928 0.961 . S
H944 C928 0.961 . S
H945 C929 0.931 . S
H946 C934 0.930 . S
H947 C935 0.956 . S
H948 C935 0.961 . S
H949 C935 0.961 . S
H950 C936 0.958 . S
H951 C936 0.961 . S
H952 C936 0.960 . S
C953 C954 1.391 . S
C953 C955 1.394 . S
C953 H969 0.931 . S
C954 C953 1.391 . S
C954 C958 1.376 . S
C955 C953 1.394 . S
C955 C956 1.369 . S
C955 C959 1.531 . S
C956 C955 1.369 . S
C956 C957 1.410 . S
C956 C964 1.503 . S
C957 C956 1.410 . S
C957 C958 1.392 . S
C957 C960 1.511 . S
C958 C954 1.376 . S
C958 C957 1.392 . S
C958 H970 0.929 . S
C959 C955 1.531 . S
C959 H971 0.960 . S
C959 H972 0.962 . S
C959 H973 0.960 . S
C960 C957 1.511 . S
C960 H974 0.961 . S
C960 H975 0.961 . S
C960 H976 0.961 . S
C961 C962 1.370 . S
C961 C963 1.363 . S
C961 H977 0.931 . S
C962 C961 1.370 . S
C962 C966 1.408 . S
C963 C961 1.363 . S
C963 C964 1.370 . S
C963 C967 1.524 . S
C964 C956 1.503 . S
C964 C963 1.370 . S
C964 C965 1.403 . S
C965 C964 1.403 . S
C965 C966 1.404 . S
C965 C968 1.539 . S
C966 C962 1.408 . S
C966 C965 1.404 . S
C966 H978 0.930 . S
C967 C963 1.524 . S
C967 H979 0.956 . S
C967 H980 0.961 . S
C967 H981 0.961 . S
C968 C965 1.539 . S
C968 H982 0.958 . S
C968 H983 0.961 . S
C968 H984 0.960 . S
H969 C953 0.931 . S
H970 C958 0.929 . S
H971 C959 0.960 . S
H972 C959 0.962 . S
H973 C959 0.960 . S
H974 C960 0.961 . S
H975 C960 0.961 . S
H976 C960 0.961 . S
H977 C961 0.931 . S
H978 C966 0.930 . S
H979 C967 0.956 . S
H980 C967 0.961 . S
H981 C967 0.961 . S
H982 C968 0.958 . S
H983 C968 0.961 . S
H984 C968 0.960 . S
C985 C986 1.391 . S
C985 C987 1.394 . S
C985 H1001 0.931 . S
C986 C985 1.391 . S
C986 C990 1.376 . S
C987 C985 1.394 . S
C987 C988 1.369 1_554 S
C987 C991 1.531 . S
C988 C987 1.369 1_556 S
C988 C989 1.410 . S
C988 C996 1.503 . S
C989 C988 1.410 . S
C989 C990 1.392 1_556 S
C989 C992 1.511 . S
C990 C986 1.376 . S
C990 C989 1.392 1_554 S
C990 H1002 0.929 . S
C991 C987 1.531 . S
C991 H1003 0.960 . S
C991 H1004 0.962 . S
C991 H1005 0.960 . S
C992 C989 1.511 . S
C992 H1006 0.961 . S
C992 H1007 0.961 . S
C992 H1008 0.961 . S
C993 C994 1.370 . S
C993 C995 1.363 . S
C993 H1009 0.931 . S
C994 C993 1.370 . S
C994 C998 1.408 . S
C995 C993 1.363 . S
C995 C996 1.370 . S
C995 C999 1.524 . S
C996 C988 1.503 . S
C996 C995 1.370 . S
C996 C997 1.403 . S
C997 C996 1.403 . S
C997 C998 1.404 . S
C997 C1000 1.539 . S
C998 C994 1.408 . S
C998 C997 1.404 . S
C998 H1010 0.930 . S
C999 C995 1.524 . S
C999 H1011 0.956 . S
C999 H1012 0.961 . S
C999 H1013 0.961 . S
C1000 C997 1.539 . S
C1000 H1014 0.958 . S
C1000 H1015 0.961 . S
C1000 H1016 0.960 . S
H1001 C985 0.931 . S
H1002 C990 0.929 . S
H1003 C991 0.960 . S
H1004 C991 0.962 . S
H1005 C991 0.960 . S
H1006 C992 0.961 . S
H1007 C992 0.961 . S
H1008 C992 0.961 . S
H1009 C993 0.931 . S
H1010 C998 0.930 . S
H1011 C999 0.956 . S
H1012 C999 0.961 . S
H1013 C999 0.961 . S
H1014 C1000 0.958 . S
H1015 C1000 0.961 . S
H1016 C1000 0.960 . S
C1017 C1018 1.391 . S
C1017 C1019 1.394 . S
C1017 H1033 0.931 . S
C1018 C1017 1.391 . S
C1018 C1022 1.376 . S
C1019 C1017 1.394 . S
C1019 C1020 1.369 . S
C1019 C1023 1.531 . S
C1020 C1019 1.369 . S
C1020 C1021 1.410 . S
C1020 C1028 1.503 . S
C1021 C1020 1.410 . S
C1021 C1022 1.392 . S
C1021 C1024 1.511 . S
C1022 C1018 1.376 . S
C1022 C1021 1.392 . S
C1022 H1034 0.929 . S
C1023 C1019 1.531 . S
C1023 H1035 0.960 . S
C1023 H1036 0.962 . S
C1023 H1037 0.960 . S
C1024 C1021 1.511 . S
C1024 H1038 0.961 . S
C1024 H1039 0.961 . S
C1024 H1040 0.961 . S
C1025 C1026 1.370 . S
C1025 C1027 1.363 . S
C1025 H1041 0.931 . S
C1026 C1025 1.370 . S
C1026 C1030 1.408 . S
C1027 C1025 1.363 . S
C1027 C1028 1.370 . S
C1027 C1031 1.524 . S
C1028 C1020 1.503 . S
C1028 C1027 1.370 . S
C1028 C1029 1.403 . S
C1029 C1028 1.403 . S
C1029 C1030 1.404 . S
C1029 C1032 1.539 . S
C1030 C1026 1.408 . S
C1030 C1029 1.404 . S
C1030 H1042 0.930 . S
C1031 C1027 1.524 . S
C1031 H1043 0.956 . S
C1031 H1044 0.961 . S
C1031 H1045 0.961 . S
C1032 C1029 1.539 . S
C1032 H1046 0.958 . S
C1032 H1047 0.961 . S
C1032 H1048 0.960 . S
H1033 C1017 0.931 . S
H1034 C1022 0.929 . S
H1035 C1023 0.960 . S
H1036 C1023 0.962 . S
H1037 C1023 0.960 . S
H1038 C1024 0.961 . S
H1039 C1024 0.961 . S
H1040 C1024 0.961 . S
H1041 C1025 0.931 . S
H1042 C1030 0.930 . S
H1043 C1031 0.956 . S
H1044 C1031 0.961 . S
H1045 C1031 0.961 . S
H1046 C1032 0.958 . S
H1047 C1032 0.961 . S
H1048 C1032 0.960 . S
C1049 C1050 1.391 . S
C1049 C1051 1.394 . S
C1049 H1065 0.931 . S
C1050 C1049 1.391 . S
C1050 C1054 1.376 . S
C1051 C1049 1.394 . S
C1051 C1052 1.369 . S
C1051 C1055 1.531 . S
C1052 C1051 1.369 . S
C1052 C1053 1.410 . S
C1052 C1060 1.503 . S
C1053 C1052 1.410 . S
C1053 C1054 1.392 . S
C1053 C1056 1.511 . S
C1054 C1050 1.376 . S
C1054 C1053 1.392 . S
C1054 H1066 0.929 . S
C1055 C1051 1.531 . S
C1055 H1067 0.960 . S
C1055 H1068 0.962 . S
C1055 H1069 0.960 . S
C1056 C1053 1.511 . S
C1056 H1070 0.961 . S
C1056 H1071 0.961 . S
C1056 H1072 0.961 . S
C1057 C1058 1.370 . S
C1057 C1059 1.363 . S
C1057 H1073 0.931 . S
C1058 C1057 1.370 . S
C1058 C1062 1.408 . S
C1059 C1057 1.363 . S
C1059 C1060 1.370 . S
C1059 C1063 1.524 . S
C1060 C1052 1.503 . S
C1060 C1059 1.370 . S
C1060 C1061 1.403 . S
C1061 C1060 1.403 . S
C1061 C1062 1.404 . S
C1061 C1064 1.539 . S
C1062 C1058 1.408 . S
C1062 C1061 1.404 . S
C1062 H1074 0.930 . S
C1063 C1059 1.524 . S
C1063 H1075 0.956 . S
C1063 H1076 0.961 . S
C1063 H1077 0.961 . S
C1064 C1061 1.539 . S
C1064 H1078 0.958 . S
C1064 H1079 0.961 . S
C1064 H1080 0.960 . S
H1065 C1049 0.931 . S
H1066 C1054 0.929 . S
H1067 C1055 0.960 . S
H1068 C1055 0.962 . S
H1069 C1055 0.960 . S
H1070 C1056 0.961 . S
H1071 C1056 0.961 . S
H1072 C1056 0.961 . S
H1073 C1057 0.931 . S
H1074 C1062 0.930 . S
H1075 C1063 0.956 . S
H1076 C1063 0.961 . S
H1077 C1063 0.961 . S
H1078 C1064 0.958 . S
H1079 C1064 0.961 . S
H1080 C1064 0.960 . S
C1081 C1082 1.391 . S
C1081 C1083 1.394 . S
C1081 H1097 0.931 . S
C1082 C1081 1.391 . S
C1082 C1086 1.376 . S
C1083 C1081 1.394 . S
C1083 C1084 1.369 . S
C1083 C1087 1.531 . S
C1084 C1083 1.369 . S
C1084 C1085 1.410 . S
C1084 C1092 1.503 . S
C1085 C1084 1.410 . S
C1085 C1086 1.392 . S
C1085 C1088 1.511 . S
C1086 C1082 1.376 . S
C1086 C1085 1.392 . S
C1086 H1098 0.929 . S
C1087 C1083 1.531 . S
C1087 H1099 0.960 . S
C1087 H1100 0.962 . S
C1087 H1101 0.960 . S
C1088 C1085 1.511 . S
C1088 H1102 0.961 . S
C1088 H1103 0.961 . S
C1088 H1104 0.961 . S
C1089 C1090 1.370 . S
C1089 C1091 1.363 . S
C1089 H1105 0.931 . S
C1090 C1089 1.370 . S
C1090 C1094 1.408 . S
C1091 C1089 1.363 . S
C1091 C1092 1.370 . S
C1091 C1095 1.524 . S
C1092 C1084 1.503 . S
C1092 C1091 1.370 . S
C1092 C1093 1.403 . S
C1093 C1092 1.403 . S
C1093 C1094 1.404 . S
C1093 C1096 1.539 . S
C1094 C1090 1.408 . S
C1094 C1093 1.404 . S
C1094 H1106 0.930 . S
C1095 C1091 1.524 . S
C1095 H1107 0.956 . S
C1095 H1108 0.961 . S
C1095 H1109 0.961 . S
C1096 C1093 1.539 . S
C1096 H1110 0.958 . S
C1096 H1111 0.961 . S
C1096 H1112 0.960 . S
H1097 C1081 0.931 . S
H1098 C1086 0.929 . S
H1099 C1087 0.960 . S
H1100 C1087 0.962 . S
H1101 C1087 0.960 . S
H1102 C1088 0.961 . S
H1103 C1088 0.961 . S
H1104 C1088 0.961 . S
H1105 C1089 0.931 . S
H1106 C1094 0.930 . S
H1107 C1095 0.956 . S
H1108 C1095 0.961 . S
H1109 C1095 0.961 . S
H1110 C1096 0.958 . S
H1111 C1096 0.961 . S
H1112 C1096 0.960 . S
C1113 C1114 1.391 . S
C1113 C1115 1.394 . S
C1113 H1129 0.931 . S
C1114 C1113 1.391 . S
C1114 C1118 1.376 . S
C1115 C1113 1.394 . S
C1115 C1116 1.369 . S
C1115 C1119 1.531 . S
C1116 C1115 1.369 . S
C1116 C1117 1.410 . S
C1116 C1124 1.503 . S
C1117 C1116 1.410 . S
C1117 C1118 1.392 . S
C1117 C1120 1.511 . S
C1118 C1114 1.376 . S
C1118 C1117 1.392 . S
C1118 H1130 0.929 . S
C1119 C1115 1.531 . S
C1119 H1131 0.960 . S
C1119 H1132 0.962 . S
C1119 H1133 0.960 . S
C1120 C1117 1.511 . S
C1120 H1134 0.961 . S
C1120 H1135 0.961 . S
C1120 H1136 0.961 . S
C1121 C1122 1.370 . S
C1121 C1123 1.363 . S
C1121 H1137 0.931 . S
C1122 C1121 1.370 . S
C1122 C1126 1.408 . S
C1123 C1121 1.363 . S
C1123 C1124 1.370 . S
C1123 C1127 1.524 . S
C1124 C1116 1.503 . S
C1124 C1123 1.370 . S
C1124 C1125 1.403 . S
C1125 C1124 1.403 . S
C1125 C1126 1.404 . S
C1125 C1128 1.539 . S
C1126 C1122 1.408 . S
C1126 C1125 1.404 . S
C1126 H1138 0.930 . S
C1127 C1123 1.524 . S
C1127 H1139 0.956 . S
C1127 H1140 0.961 . S
C1127 H1141 0.961 . S
C1128 C1125 1.539 . S
C1128 H1142 0.958 . S
C1128 H1143 0.961 . S
C1128 H1144 0.960 . S
H1129 C1113 0.931 . S
H1130 C1118 0.929 . S
H1131 C1119 0.960 . S
H1132 C1119 0.962 . S
H1133 C1119 0.960 . S
H1134 C1120 0.961 . S
H1135 C1120 0.961 . S
H1136 C1120 0.961 . S
H1137 C1121 0.931 . S
H1138 C1126 0.930 . S
H1139 C1127 0.956 . S
H1140 C1127 0.961 . S
H1141 C1127 0.961 . S
H1142 C1128 0.958 . S
H1143 C1128 0.961 . S
H1144 C1128 0.960 . S
C1145 C1146 1.391 . S
C1145 C1147 1.394 . S
C1145 H1161 0.931 . S
C1146 C1145 1.391 . S
C1146 C1150 1.376 . S
C1147 C1145 1.394 . S
C1147 C1148 1.369 . S
C1147 C1151 1.531 . S
C1148 C1147 1.369 . S
C1148 C1149 1.410 . S
C1148 C1156 1.503 . S
C1149 C1148 1.410 . S
C1149 C1150 1.392 . S
C1149 C1152 1.511 . S
C1150 C1146 1.376 . S
C1150 C1149 1.392 . S
C1150 H1162 0.929 . S
C1151 C1147 1.531 . S
C1151 H1163 0.960 . S
C1151 H1164 0.962 . S
C1151 H1165 0.960 . S
C1152 C1149 1.511 . S
C1152 H1166 0.961 . S
C1152 H1167 0.961 . S
C1152 H1168 0.961 . S
C1153 C1154 1.370 . S
C1153 C1155 1.363 . S
C1153 H1169 0.931 . S
C1154 C1153 1.370 . S
C1154 C1158 1.408 . S
C1155 C1153 1.363 . S
C1155 C1156 1.370 . S
C1155 C1159 1.524 . S
C1156 C1148 1.503 . S
C1156 C1155 1.370 . S
C1156 C1157 1.403 . S
C1157 C1156 1.403 . S
C1157 C1158 1.404 . S
C1157 C1160 1.539 . S
C1158 C1154 1.408 . S
C1158 C1157 1.404 . S
C1158 H1170 0.930 . S
C1159 C1155 1.524 . S
C1159 H1171 0.956 . S
C1159 H1172 0.961 . S
C1159 H1173 0.961 . S
C1160 C1157 1.539 . S
C1160 H1174 0.958 . S
C1160 H1175 0.961 . S
C1160 H1176 0.960 . S
H1161 C1145 0.931 . S
H1162 C1150 0.929 . S
H1163 C1151 0.960 . S
H1164 C1151 0.962 . S
H1165 C1151 0.960 . S
H1166 C1152 0.961 . S
H1167 C1152 0.961 . S
H1168 C1152 0.961 . S
H1169 C1153 0.931 . S
H1170 C1158 0.930 . S
H1171 C1159 0.956 . S
H1172 C1159 0.961 . S
H1173 C1159 0.961 . S
H1174 C1160 0.958 . S
H1175 C1160 0.961 . S
H1176 C1160 0.960 . S
C1177 C1178 1.391 . S
C1177 C1179 1.394 . S
C1177 H1193 0.931 . S
C1178 C1177 1.391 . S
C1178 C1182 1.376 . S
C1179 C1177 1.394 . S
C1179 C1180 1.369 . S
C1179 C1183 1.531 . S
C1180 C1179 1.369 . S
C1180 C1181 1.410 . S
C1180 C1188 1.503 . S
C1181 C1180 1.410 . S
C1181 C1182 1.392 . S
C1181 C1184 1.511 . S
C1182 C1178 1.376 . S
C1182 C1181 1.392 . S
C1182 H1194 0.929 . S
C1183 C1179 1.531 . S
C1183 H1195 0.960 . S
C1183 H1196 0.962 . S
C1183 H1197 0.960 . S
C1184 C1181 1.511 . S
C1184 H1198 0.961 . S
C1184 H1199 0.961 . S
C1184 H1200 0.961 . S
C1185 C1186 1.370 . S
C1185 C1187 1.363 . S
C1185 H1201 0.931 . S
C1186 C1185 1.370 . S
C1186 C1190 1.408 . S
C1187 C1185 1.363 . S
C1187 C1188 1.370 . S
C1187 C1191 1.524 . S
C1188 C1180 1.503 . S
C1188 C1187 1.370 . S
C1188 C1189 1.403 . S
C1189 C1188 1.403 . S
C1189 C1190 1.404 . S
C1189 C1192 1.539 . S
C1190 C1186 1.408 . S
C1190 C1189 1.404 . S
C1190 H1202 0.930 . S
C1191 C1187 1.524 . S
C1191 H1203 0.956 . S
C1191 H1204 0.961 . S
C1191 H1205 0.961 . S
C1192 C1189 1.539 . S
C1192 H1206 0.958 . S
C1192 H1207 0.961 . S
C1192 H1208 0.960 . S
H1193 C1177 0.931 . S
H1194 C1182 0.929 . S
H1195 C1183 0.960 . S
H1196 C1183 0.962 . S
H1197 C1183 0.960 . S
H1198 C1184 0.961 . S
H1199 C1184 0.961 . S
H1200 C1184 0.961 . S
H1201 C1185 0.931 . S
H1202 C1190 0.930 . S
H1203 C1191 0.956 . S
H1204 C1191 0.961 . S
H1205 C1191 0.961 . S
H1206 C1192 0.958 . S
H1207 C1192 0.961 . S
H1208 C1192 0.960 . S
C1209 C1210 1.391 . S
C1209 C1211 1.394 . S
C1209 H1225 0.931 . S
C1210 C1209 1.391 . S
C1210 C1214 1.376 . S
C1211 C1209 1.394 . S
C1211 C1212 1.369 . S
C1211 C1215 1.531 . S
C1212 C1211 1.369 . S
C1212 C1213 1.410 . S
C1212 C1220 1.503 . S
C1213 C1212 1.410 . S
C1213 C1214 1.392 . S
C1213 C1216 1.511 . S
C1214 C1210 1.376 . S
C1214 C1213 1.392 . S
C1214 H1226 0.929 . S
C1215 C1211 1.531 . S
C1215 H1227 0.960 . S
C1215 H1228 0.962 . S
C1215 H1229 0.960 . S
C1216 C1213 1.511 . S
C1216 H1230 0.961 . S
C1216 H1231 0.961 . S
C1216 H1232 0.961 . S
C1217 C1218 1.370 . S
C1217 C1219 1.363 . S
C1217 H1233 0.931 . S
C1218 C1217 1.370 . S
C1218 C1222 1.408 . S
C1219 C1217 1.363 . S
C1219 C1220 1.370 . S
C1219 C1223 1.524 . S
C1220 C1212 1.503 . S
C1220 C1219 1.370 . S
C1220 C1221 1.403 . S
C1221 C1220 1.403 . S
C1221 C1222 1.404 . S
C1221 C1224 1.539 . S
C1222 C1218 1.408 . S
C1222 C1221 1.404 . S
C1222 H1234 0.930 . S
C1223 C1219 1.524 . S
C1223 H1235 0.956 . S
C1223 H1236 0.961 . S
C1223 H1237 0.961 . S
C1224 C1221 1.539 . S
C1224 H1238 0.958 . S
C1224 H1239 0.961 . S
C1224 H1240 0.960 . S
H1225 C1209 0.931 . S
H1226 C1214 0.929 . S
H1227 C1215 0.960 . S
H1228 C1215 0.962 . S
H1229 C1215 0.960 . S
H1230 C1216 0.961 . S
H1231 C1216 0.961 . S
H1232 C1216 0.961 . S
H1233 C1217 0.931 . S
H1234 C1222 0.930 . S
H1235 C1223 0.956 . S
H1236 C1223 0.961 . S
H1237 C1223 0.961 . S
H1238 C1224 0.958 . S
H1239 C1224 0.961 . S
H1240 C1224 0.960 . S
C1241 C1242 1.391 . S
C1241 C1243 1.394 . S
C1241 H1257 0.931 . S
C1242 C1241 1.391 . S
C1242 C1246 1.376 . S
C1243 C1241 1.394 . S
C1243 C1244 1.369 . S
C1243 C1247 1.531 . S
C1244 C1243 1.369 . S
C1244 C1245 1.410 . S
C1244 C1252 1.503 . S
C1245 C1244 1.410 . S
C1245 C1246 1.392 . S
C1245 C1248 1.511 . S
C1246 C1242 1.376 . S
C1246 C1245 1.392 . S
C1246 H1258 0.929 . S
C1247 C1243 1.531 . S
C1247 H1259 0.960 . S
C1247 H1260 0.962 . S
C1247 H1261 0.960 . S
C1248 C1245 1.511 . S
C1248 H1262 0.961 . S
C1248 H1263 0.961 . S
C1248 H1264 0.961 . S
C1249 C1250 1.370 . S
C1249 C1251 1.363 . S
C1249 H1265 0.931 . S
C1250 C1249 1.370 . S
C1250 C1254 1.408 . S
C1251 C1249 1.363 . S
C1251 C1252 1.370 . S
C1251 C1255 1.524 . S
C1252 C1244 1.503 . S
C1252 C1251 1.370 . S
C1252 C1253 1.403 . S
C1253 C1252 1.403 . S
C1253 C1254 1.404 . S
C1253 C1256 1.539 . S
C1254 C1250 1.408 . S
C1254 C1253 1.404 . S
C1254 H1266 0.930 . S
C1255 C1251 1.524 . S
C1255 H1267 0.956 . S
C1255 H1268 0.961 . S
C1255 H1269 0.961 . S
C1256 C1253 1.539 . S
C1256 H1270 0.958 . S
C1256 H1271 0.961 . S
C1256 H1272 0.960 . S
H1257 C1241 0.931 . S
H1258 C1246 0.929 . S
H1259 C1247 0.960 . S
H1260 C1247 0.962 . S
H1261 C1247 0.960 . S
H1262 C1248 0.961 . S
H1263 C1248 0.961 . S
H1264 C1248 0.961 . S
H1265 C1249 0.931 . S
H1266 C1254 0.930 . S
H1267 C1255 0.956 . S
H1268 C1255 0.961 . S
H1269 C1255 0.961 . S
H1270 C1256 0.958 . S
H1271 C1256 0.961 . S
H1272 C1256 0.960 . S
C1273 C1274 1.391 . S
C1273 C1275 1.394 . S
C1273 H1289 0.931 . S
C1274 C1273 1.391 . S
C1274 C1278 1.376 . S
C1275 C1273 1.394 . S
C1275 C1276 1.369 . S
C1275 C1279 1.531 . S
C1276 C1275 1.369 . S
C1276 C1277 1.410 . S
C1276 C1284 1.503 . S
C1277 C1276 1.410 . S
C1277 C1278 1.392 . S
C1277 C1280 1.511 . S
C1278 C1274 1.376 . S
C1278 C1277 1.392 . S
C1278 H1290 0.929 . S
C1279 C1275 1.531 . S
C1279 H1291 0.960 . S
C1279 H1292 0.962 . S
C1279 H1293 0.960 . S
C1280 C1277 1.511 . S
C1280 H1294 0.961 . S
C1280 H1295 0.961 . S
C1280 H1296 0.961 . S
C1281 C1282 1.370 . S
C1281 C1283 1.363 . S
C1281 H1297 0.931 . S
C1282 C1281 1.370 . S
C1282 C1286 1.408 . S
C1283 C1281 1.363 . S
C1283 C1284 1.370 . S
C1283 C1287 1.524 . S
C1284 C1276 1.503 . S
C1284 C1283 1.370 . S
C1284 C1285 1.403 . S
C1285 C1284 1.403 . S
C1285 C1286 1.404 . S
C1285 C1288 1.539 . S
C1286 C1282 1.408 . S
C1286 C1285 1.404 . S
C1286 H1298 0.930 . S
C1287 C1283 1.524 . S
C1287 H1299 0.956 . S
C1287 H1300 0.961 . S
C1287 H1301 0.961 . S
C1288 C1285 1.539 . S
C1288 H1302 0.958 . S
C1288 H1303 0.961 . S
C1288 H1304 0.960 . S
H1289 C1273 0.931 . S
H1290 C1278 0.929 . S
H1291 C1279 0.960 . S
H1292 C1279 0.962 . S
H1293 C1279 0.960 . S
H1294 C1280 0.961 . S
H1295 C1280 0.961 . S
H1296 C1280 0.961 . S
H1297 C1281 0.931 . S
H1298 C1286 0.930 . S
H1299 C1287 0.956 . S
H1300 C1287 0.961 . S
H1301 C1287 0.961 . S
H1302 C1288 0.958 . S
H1303 C1288 0.961 . S
H1304 C1288 0.960 . S
C538 C39 1.955 . S
C546 C455 1.899 . S
C570 C125 0.934 . S
C578 C502 0.874 . S
C610 C506 2.111 . S
C602 C211 2.047 . S
C642 C471 0.836 . S
C634 C273 0.843 . S
C666 C335 2.028 . S
C674 C486 1.971 . S
C706 C508 1.367 . S
C698 C439 1.379 . S
C738 C477 1.463 . S
C730 C187 1.432 . S
C762 C291 1.860 . S
C770 C517 1.836 . S
C802 C446 1.713 . S
C794 C359 1.605 . S
C826 C421 0.765 . S
C834 C475 0.689 . S
C858 C63 2.145 . S
C866 C533 2.263 . S
C898 C444 1.930 . S
C890 C143 1.956 1_556 S
C930 C462 2.211 . S
C922 C285 2.113 . S
C962 C476 1.966 . S
C954 C365 2.001 . S
C994 C530 2.001 . S
C986 C409 1.974 . S
C1026 C445 1.892 . S
C1018 C69 1.933 1_556 S
C1058 C493 2.040 . S
C1050 C137 1.976 . S
C1082 C199 0.330 . S
C1090 C516 0.412 . S
C1122 C485 1.760 . S
C1114 C433 1.696 . S
C1154 C524 0.492 . S
C1146 C51 0.435 . S
C1186 C454 1.476 . S
C1178 C113 1.489 . S
C1218 C499 1.806 . S
C1210 C217 1.845 . S
C1242 C261 2.047 . S
C1250 C507 2.079 . S
C1274 C347 0.686 . S
C1282 C468 0.644 . S
