# Generated by pormake.
# Topology nom, (4,4)-cn, num edge types: 1
# Building blocks:
#     Node 0, Type 0, BuildingBlock: NAWXER_clean_linker_0, # of connection points: 4
#     Node 1, Type 0, BuildingBlock: NAWXER_clean_linker_0, # of connection points: 4
#     Node 2, Type 0, BuildingBlock: NAWXER_clean_linker_0, # of connection points: 4
#     Node 3, Type 0, BuildingBlock: NAWXER_clean_linker_0, # of connection points: 4
#     Node 4, Type 0, BuildingBlock: NAWXER_clean_linker_0, # of connection points: 4
#     Node 5, Type 0, BuildingBlock: NAWXER_clean_linker_0, # of connection points: 4
#     Node 6, Type 1, BuildingBlock: AZAVOO_clean_sbu_0, # of connection points: 4
#     Node 7, Type 1, BuildingBlock: AZAVOO_clean_sbu_0, # of connection points: 4
#     Node 8, Type 1, BuildingBlock: AZAVOO_clean_sbu_0, # of connection points: 4
#     Node 9, Type 1, BuildingBlock: AZAVOO_clean_sbu_0, # of connection points: 4
#     Node 10, Type 1, BuildingBlock: AZAVOO_clean_sbu_0, # of connection points: 4
#     Node 11, Type 1, BuildingBlock: AZAVOO_clean_sbu_0, # of connection points: 4
#     Edge 12, Type (0, 1), BuildingBlock: ZUJKAS_clean_linker_0, # of connection points: 2
#     Edge 13, Type (0, 1), BuildingBlock: ZUJKAS_clean_linker_0, # of connection points: 2
#     Edge 14, Type (0, 1), BuildingBlock: ZUJKAS_clean_linker_0, # of connection points: 2
#     Edge 15, Type (0, 1), BuildingBlock: ZUJKAS_clean_linker_0, # of connection points: 2
#     Edge 16, Type (0, 1), BuildingBlock: ZUJKAS_clean_linker_0, # of connection points: 2
#     Edge 17, Type (0, 1), BuildingBlock: ZUJKAS_clean_linker_0, # of connection points: 2
#     Edge 18, Type (0, 1), BuildingBlock: ZUJKAS_clean_linker_0, # of connection points: 2
#     Edge 19, Type (0, 1), BuildingBlock: ZUJKAS_clean_linker_0, # of connection points: 2
#     Edge 20, Type (0, 1), BuildingBlock: ZUJKAS_clean_linker_0, # of connection points: 2
#     Edge 21, Type (0, 1), BuildingBlock: ZUJKAS_clean_linker_0, # of connection points: 2
#     Edge 22, Type (0, 1), BuildingBlock: ZUJKAS_clean_linker_0, # of connection points: 2
#     Edge 23, Type (0, 1), BuildingBlock: ZUJKAS_clean_linker_0, # of connection points: 2
#     Edge 24, Type (0, 1), BuildingBlock: ZUJKAS_clean_linker_0, # of connection points: 2
#     Edge 25, Type (0, 1), BuildingBlock: ZUJKAS_clean_linker_0, # of connection points: 2
#     Edge 26, Type (0, 1), BuildingBlock: ZUJKAS_clean_linker_0, # of connection points: 2
#     Edge 27, Type (0, 1), BuildingBlock: ZUJKAS_clean_linker_0, # of connection points: 2
#     Edge 28, Type (0, 1), BuildingBlock: ZUJKAS_clean_linker_0, # of connection points: 2
#     Edge 29, Type (0, 1), BuildingBlock: ZUJKAS_clean_linker_0, # of connection points: 2
#     Edge 30, Type (0, 1), BuildingBlock: ZUJKAS_clean_linker_0, # of connection points: 2
#     Edge 31, Type (0, 1), BuildingBlock: ZUJKAS_clean_linker_0, # of connection points: 2
#     Edge 32, Type (0, 1), BuildingBlock: ZUJKAS_clean_linker_0, # of connection points: 2
#     Edge 33, Type (0, 1), BuildingBlock: ZUJKAS_clean_linker_0, # of connection points: 2
#     Edge 34, Type (0, 1), BuildingBlock: ZUJKAS_clean_linker_0, # of connection points: 2
#     Edge 35, Type (0, 1), BuildingBlock: ZUJKAS_clean_linker_0, # of connection points: 2
# Relax obj value: 0.043
# Max RMSD: 0.156
# Mean RMSD: 0.129
data_MOF--net-nom--node1-AZAVOO_clean_sbu_0--node2-NAWXER_clean_linker_0--edge1-ZUJKAS_clean_linker_0
_symmetry_space_group_name_H-M    P1
_symmetry_Int_Tables_number       1
_symmetry_cell_setting            triclinic
loop_
_symmetry_equiv_pos_as_xyz
'x, y, z'
_cell_length_a     65.23981
_cell_length_b     65.807904
_cell_length_c     70.234355
_cell_angle_alpha  90.831797
_cell_angle_beta   90.971048
_cell_angle_gamma 119.98471
loop_
_atom_site_label
_atom_site_type_symbol
_atom_site_fract_x
_atom_site_fract_y
_atom_site_fract_z
_atom_type_partial_charge
C0 C 0.92105 0.48372 0.34335 0.0
C1 C 0.91144 0.4673 0.35785 0.0
C2 C 0.94277 0.48933 0.33573 0.0
C3 C 0.95524 0.47841 0.34225 0.0
C4 C 0.92388 0.45629 0.36436 0.0
C5 C 0.94574 0.46199 0.35673 0.0
C6 C 0.97915 0.48591 0.33525 0.0
C7 C 0.92948 0.45001 0.28499 0.0
C8 C 0.93272 0.46453 0.26949 0.0
C9 C 0.94612 0.45779 0.30012 0.0
C10 C 0.96621 0.48034 0.30014 0.0
C11 C 0.95285 0.48708 0.26958 0.0
C12 C 0.96945 0.49482 0.28467 0.0
C13 C 0.98449 0.48871 0.31571 0.0
C14 C 0.0914 0.53193 0.31743 0.0
C15 C 0.09681 0.55047 0.30506 0.0
C16 C 0.06819 0.51763 0.3233 0.0
C17 C 0.05012 0.5219 0.3171 0.0
C18 C 0.07849 0.55411 0.29841 0.0
C19 C 0.0554 0.53992 0.30431 0.0
C20 C 0.02572 0.50821 0.32396 0.0
C21 C 0.07225 0.5472 0.37516 0.0
C22 C 0.0728 0.53225 0.38901 0.0
C23 C 0.05527 0.53826 0.36031 0.0
C24 C 0.03864 0.51417 0.35892 0.0
C25 C 0.05593 0.50817 0.38768 0.0
C26 C 0.03892 0.49926 0.37284 0.0
C27 C 0.02034 0.50459 0.34345 0.0
H28 H 0.91176 0.4923 0.33788 0.0
H29 H 0.95005 0.50262 0.32501 0.0
H30 H 0.91697 0.4437 0.37562 0.0
H31 H 0.9553 0.45368 0.3622 0.0
H32 H 0.91438 0.43241 0.28523 0.0
H33 H 0.94348 0.44601 0.31162 0.0
H34 H 0.95575 0.49884 0.25801 0.0
H35 H 0.9848 0.51227 0.28432 0.0
H36 H 0.1051 0.52849 0.32256 0.0
H37 H 0.0644 0.50342 0.33279 0.0
H38 H 0.08211 0.56842 0.28908 0.0
H39 H 0.04174 0.5435 0.29931 0.0
H40 H 0.08504 0.5658 0.37573 0.0
H41 H 0.05504 0.5502 0.34996 0.0
H42 H 0.05561 0.49626 0.39831 0.0
H43 H 0.02603 0.48067 0.37217 0.0
N44 N -0.00275 0.49361 0.34835 0.0
N45 N 0.00759 0.50004 0.31088 0.0
C46 C 0.44691 0.92621 0.50403 0.0
C47 C 0.45737 0.917 0.51624 0.0
C48 C 0.45965 0.94945 0.49843 0.0
C49 C 0.48318 0.96399 0.50481 0.0
C50 C 0.48084 0.93176 0.52292 0.0
C51 C 0.49358 0.95512 0.51734 0.0
C52 C 0.49662 0.98853 0.4986 0.0
C53 C 0.48784 0.9426 0.44803 0.0
C54 C 0.47383 0.94349 0.43301 0.0
C55 C 0.4958 0.95918 0.46301 0.0
C56 C 0.4896 0.97679 0.46342 0.0
C57 C 0.46801 0.96139 0.43328 0.0
C58 C 0.47591 0.97793 0.44831 0.0
C59 C 0.49791 0.99446 0.47925 0.0
C60 C 0.55683 0.10024 0.48121 0.0
C61 C 0.54301 0.10494 0.46839 0.0
C62 C 0.54842 0.07752 0.48779 0.0
C63 C 0.52589 0.05925 0.4819 0.0
C64 C 0.52059 0.08654 0.46244 0.0
C65 C 0.51219 0.06394 0.46906 0.0
C66 C 0.51653 0.03497 0.48837 0.0
C67 C 0.52515 0.07925 0.54063 0.0
C68 C 0.54174 0.07992 0.55405 0.0
C69 C 0.51674 0.06275 0.52554 0.0
C70 C 0.52492 0.04675 0.52351 0.0
C71 C 0.54959 0.06362 0.55211 0.0
C72 C 0.54114 0.04711 0.53705 0.0
C73 C 0.51613 0.02911 0.5077 0.0
H74 H 0.4287 0.91557 0.49902 0.0
H75 H 0.45104 0.95613 0.48918 0.0
H76 H 0.48946 0.9252 0.53226 0.0
H77 H 0.51167 0.96614 0.52253 0.0
H78 H 0.49304 0.92933 0.44803 0.0
H79 H 0.507 0.95837 0.47418 0.0
H80 H 0.45711 0.96245 0.42197 0.0
H81 H 0.47104 0.99144 0.44825 0.0
H82 H 0.57431 0.114 0.48584 0.0
H83 H 0.5596 0.0742 0.4973 0.0
H84 H 0.50938 0.08966 0.45278 0.0
H85 H 0.4948 0.05012 0.46427 0.0
H86 H 0.5188 0.09159 0.5417 0.0
H87 H 0.50379 0.06244 0.5155 0.0
H88 H 0.56201 0.06339 0.56241 0.0
H89 H 0.54743 0.03471 0.53588 0.0
N90 N 0.50612 0.00607 0.5121 0.0
N91 N 0.50748 0.01741 0.47491 0.0
C92 C 0.56454 0.48867 0.58929 0.0
C93 C 0.547 0.47449 0.57558 0.0
C94 C 0.55885 0.4978 0.60511 0.0
C95 C 0.53544 0.49266 0.60768 0.0
C96 C 0.5236 0.46941 0.57817 0.0
C97 C 0.51791 0.47849 0.59402 0.0
C98 C 0.52931 0.50298 0.62395 0.0
C99 C 0.54925 0.45371 0.65064 0.0
C100 C 0.56957 0.46435 0.66267 0.0
C101 C 0.53917 0.46665 0.64386 0.0
C102 C 0.54926 0.49055 0.64882 0.0
C103 C 0.57973 0.48835 0.66753 0.0
C104 C 0.56956 0.50129 0.66077 0.0
C105 C 0.53749 0.50374 0.64283 0.0
C106 C 0.48297 0.53656 0.6892 0.0
C107 C 0.50101 0.55321 0.70149 0.0
C108 C 0.48852 0.52737 0.67333 0.0
C109 C 0.51223 0.53491 0.66928 0.0
C110 C 0.52471 0.56047 0.69752 0.0
C111 C 0.53024 0.55131 0.68162 0.0
C112 C 0.51837 0.52473 0.65295 0.0
C113 C 0.48209 0.56205 0.6287 0.0
C114 C 0.46111 0.54694 0.6183 0.0
C115 C 0.49808 0.55461 0.63379 0.0
C116 C 0.49323 0.53187 0.6287 0.0
C117 C 0.45676 0.5245 0.61273 0.0
C118 C 0.47268 0.5171 0.61782 0.0
C119 C 0.50943 0.52318 0.63418 0.0
H120 H 0.58281 0.49327 0.5875 0.0
H121 H 0.57287 0.50928 0.61511 0.0
H122 H 0.50965 0.45838 0.56794 0.0
H123 H 0.49976 0.47437 0.59564 0.0
H124 H 0.5406 0.43516 0.64698 0.0
H125 H 0.52304 0.45776 0.63518 0.0
H126 H 0.59548 0.49713 0.67664 0.0
H127 H 0.57748 0.51966 0.66492 0.0
H128 H 0.46452 0.53025 0.69207 0.0
H129 H 0.47426 0.51412 0.6644 0.0
H130 H 0.53902 0.57338 0.70662 0.0
H131 H 0.54864 0.55715 0.67887 0.0
H132 H 0.48592 0.57943 0.63322 0.0
H133 H 0.51414 0.56656 0.64175 0.0
H134 H 0.44101 0.51262 0.60439 0.0
H135 H 0.46872 0.4996 0.61351 0.0
N136 N 0.51535 0.51245 0.62043 0.0
N137 N 0.53202 0.5149 0.65654 0.0
C138 C 0.92616 0.4636 0.8206 0.0
C139 C 0.91535 0.46822 0.80507 0.0
C140 C 0.94832 0.48077 0.82777 0.0
C141 C 0.96001 0.5031 0.81979 0.0
C142 C 0.92683 0.49071 0.79733 0.0
C143 C 0.94902 0.50794 0.80456 0.0
C144 C 0.98482 0.52017 0.82552 0.0
C145 C 0.94436 0.51406 0.8784 0.0
C146 C 0.94979 0.50405 0.89385 0.0
C147 C 0.95814 0.52036 0.86218 0.0
C148 C 0.97759 0.51679 0.86115 0.0
C149 C 0.96918 0.50038 0.89272 0.0
C150 C 0.98306 0.50687 0.87658 0.0
C151 C 0.99324 0.52472 0.84464 0.0
C152 C 0.09899 0.5906 0.83758 0.0
C153 C 0.10662 0.58011 0.85114 0.0
C154 C 0.07501 0.5801 0.83221 0.0
C155 C 0.05841 0.5586 0.8399 0.0
C156 C 0.08986 0.55913 0.85934 0.0
C157 C 0.06604 0.5485 0.85377 0.0
C158 C 0.033 0.54639 0.83414 0.0
C159 C 0.07172 0.55267 0.77972 0.0
C160 C 0.06713 0.56465 0.76533 0.0
C161 C 0.05809 0.54568 0.79601 0.0
C162 C 0.03991 0.55095 0.79839 0.0
C163 C 0.04868 0.56958 0.76769 0.0
C164 C 0.03518 0.56273 0.78402 0.0
C165 C 0.02449 0.54276 0.81502 0.0
H166 H 0.91768 0.44653 0.82701 0.0
H167 H 0.95667 0.47621 0.83907 0.0
H168 H 0.91907 0.49474 0.78525 0.0
H169 H 0.95787 0.5249 0.79795 0.0
H170 H 0.92944 0.51698 0.87886 0.0
H171 H 0.95386 0.52845 0.85062 0.0
H172 H 0.97394 0.49296 0.90449 0.0
H173 H -0.00188 0.50415 0.87616 0.0
H174 H 0.11156 0.60694 0.83122 0.0
H175 H 0.0695 0.58873 0.822 0.0
H176 H 0.09526 0.55054 0.86968 0.0
H177 H 0.0536 0.53203 0.86005 0.0
H178 H 0.08589 0.54872 0.77842 0.0
H179 H 0.06161 0.53597 0.80663 0.0
H180 H 0.04434 0.57834 0.75674 0.0
H181 H 0.02093 0.56656 0.78541 0.0
N182 N 0.00077 0.52972 0.81151 0.0
N183 N 0.01697 0.53734 0.84815 0.0
C184 C 0.46717 0.92782 0.99097 0.0
C185 C 0.44944 0.91726 0.97658 0.0
C186 C 0.47517 0.95089 0.9972 0.0
C187 C 0.46549 0.96385 0.98931 0.0
C188 C 0.43946 0.93014 0.96897 0.0
C189 C 0.44754 0.95326 0.97518 0.0
C190 C 0.47576 0.98907 0.99431 0.0
C191 C 0.44231 0.95219 0.04828 0.0
C192 C 0.45859 0.95684 0.06339 0.0
C193 C 0.44955 0.96522 0.03173 0.0
C194 C 0.47318 0.98309 0.03006 0.0
C195 C 0.48222 0.97468 0.06164 0.0
C196 C 0.4894 0.9878 0.04518 0.0
C197 C 0.48086 -0.00199 0.01321 0.0
C198 C 0.52497 0.10315 0.00481 0.0
C199 C 0.54225 0.10982 0.01946 0.0
C200 C 0.51116 0.07953 -0.00098 0.0
C201 C 0.51503 0.06238 0.00737 0.0
C202 C 0.54564 0.0926 0.02808 0.0
C203 C 0.53223 0.06918 0.02208 0.0
C204 C 0.50079 0.03713 0.00189 0.0
C205 C 0.53439 0.07347 0.9476 0.0
C206 C 0.51825 0.06887 0.9324 0.0
C207 C 0.52701 0.06039 0.96411 0.0
C208 C 0.5032 0.04296 0.96592 0.0
C209 C 0.49457 0.05112 0.93406 0.0
C210 C 0.48713 0.03829 0.95068 0.0
C211 C 0.49515 0.0282 0.9829 0.0
H212 H 0.47561 0.91863 0.99686 0.0
H213 H 0.4896 0.95888 0.00766 0.0
H214 H 0.4256 0.92246 0.95802 0.0
H215 H 0.43997 0.963 0.96878 0.0
H216 H 0.42401 0.93845 0.04924 0.0
H217 H 0.43661 0.96162 0.02041 0.0
H218 H 0.49506 0.9788 0.07316 0.0
H219 H 0.50766 0.00168 0.04425 0.0
H220 H 0.52193 0.11615 0.99807 0.0
H221 H 0.49745 0.0747 0.98813 0.0
H222 H 0.55902 0.09731 0.03927 0.0
H223 H 0.53548 0.05634 0.02888 0.0
H224 H 0.55283 0.0868 0.94652 0.0
H225 H 0.53998 0.06369 0.97533 0.0
H226 H 0.48178 0.04728 0.92255 0.0
H227 H 0.46876 0.02468 0.95163 0.0
N228 N 0.48284 0.00452 0.97991 0.0
N229 N 0.4933 0.0216 0.01622 0.0
C230 C 0.4518 0.56064 0.15035 0.0
C231 C 0.4357 0.55224 0.1652 0.0
C232 C 0.46003 0.54666 0.14229 0.0
C233 C 0.45177 0.5237 0.1485 0.0
C234 C 0.42713 0.52922 0.17127 0.0
C235 C 0.43502 0.51505 0.16293 0.0
C236 C 0.46315 0.51013 0.14234 0.0
C237 C 0.43325 0.52145 0.08807 0.0
C238 C 0.45047 0.53633 0.07536 0.0
C239 C 0.43965 0.51286 0.10382 0.0
C240 C 0.46337 0.51897 0.10712 0.0
C241 C 0.47416 0.54231 0.07866 0.0
C242 C 0.48051 0.53354 0.09429 0.0
C243 C 0.47039 0.50972 0.12354 0.0
C244 C 0.51865 0.45164 0.1307 0.0
C245 C 0.54002 0.46666 0.12182 0.0
C246 C 0.50226 0.45893 0.13432 0.0
C247 C 0.50711 0.48147 0.12932 0.0
C248 C 0.54438 0.48889 0.11629 0.0
C249 C 0.52802 0.49615 0.11991 0.0
C250 C 0.49097 0.49033 0.13422 0.0
C251 C 0.5197 0.47974 0.18973 0.0
C252 C 0.50216 0.46399 0.20184 0.0
C253 C 0.51355 0.48816 0.17376 0.0
C254 C 0.4897 0.4806 0.16934 0.0
C255 C 0.47832 0.45682 0.19754 0.0
C256 C 0.47219 0.46512 0.18149 0.0
C257 C 0.48289 0.48986 0.15283 0.0
H258 H 0.45905 0.57853 0.14572 0.0
H259 H 0.47381 0.55438 0.13194 0.0
H260 H 0.41474 0.52241 0.18274 0.0
H261 H 0.42864 0.49756 0.1682 0.0
H262 H 0.41486 0.51659 0.0859 0.0
H263 H 0.42604 0.50128 0.11333 0.0
H264 H 0.48775 0.55347 0.06896 0.0
H265 H 0.49888 0.53833 0.09647 0.0
H266 H 0.51458 0.43425 0.13483 0.0
H267 H 0.48596 0.44709 0.14122 0.0
H268 H 0.56076 0.50101 0.10962 0.0
H269 H 0.53209 0.51359 0.11589 0.0
H270 H 0.53821 0.4855 0.19252 0.0
H271 H 0.52748 0.50071 0.16497 0.0
H272 H 0.4644 0.44508 0.20675 0.0
H273 H 0.45371 0.45942 0.17854 0.0
N274 N 0.46938 0.49982 0.15613 0.0
N275 N 0.48434 0.50017 0.12029 0.0
Mg276 Mg 0.61863 0.37333 0.37181 0.0
O277 O 0.61183 0.39184 0.39679 0.0
O278 O 0.62541 0.42915 0.38903 0.0
Mg279 Mg 0.64072 0.43444 0.35935 0.0
C280 C 0.61551 0.41244 0.40068 0.0
C281 C 0.60213 0.32261 0.38203 0.0
O282 O 0.59769 0.32109 0.36358 0.0
O283 O 0.65766 0.39163 0.38006 0.0
O284 O 0.67043 0.4284 0.37106 0.0
O285 O 0.58387 0.36415 0.35821 0.0
O286 O 0.61741 0.39671 0.3529 0.0
C287 C 0.67423 0.41275 0.37812 0.0
C288 C 0.59485 0.3842 0.35 0.0
O289 O 0.6111 0.34257 0.39042 0.0
Mg290 Mg 0.25881 0.63934 0.58999 0.0
O291 O 0.23481 0.62057 0.56364 0.0
O292 O 0.21138 0.58319 0.57142 0.0
Mg293 Mg 0.21958 0.57821 0.6022 0.0
C294 C 0.2183 0.59966 0.55949 0.0
C295 C 0.30286 0.68493 0.58179 0.0
O296 O 0.3063 0.67979 0.59914 0.0
O297 O 0.28055 0.62171 0.58455 0.0
O298 O 0.25666 0.58525 0.59419 0.0
O299 O 0.23234 0.64812 0.60126 0.0
O300 O 0.23313 0.61581 0.60781 0.0
C301 C 0.27647 0.60103 0.58791 0.0
C302 C 0.22296 0.62817 0.60965 0.0
O303 O 0.28377 0.67078 0.57279 0.0
Mg304 Mg 0.63059 0.25908 0.75765 0.0
O305 O 0.62428 0.23585 0.73097 0.0
O306 O 0.6391 0.21252 0.73758 0.0
Mg307 Mg 0.65374 0.21999 0.76826 0.0
C308 C 0.62871 0.21965 0.72618 0.0
C309 C 0.62916 0.3036 0.74888 0.0
O310 O 0.63843 0.30779 0.76624 0.0
O311 O 0.66977 0.28065 0.75196 0.0
O312 O 0.68341 0.25698 0.76065 0.0
O313 O 0.59576 0.23278 0.76904 0.0
O314 O 0.62931 0.233 0.77471 0.0
C315 C 0.68682 0.27672 0.75482 0.0
C316 C 0.60676 0.223 0.77673 0.0
O317 O 0.62349 0.28411 0.74065 0.0
Mg318 Mg 0.39812 0.65442 0.87348 0.0
O319 O 0.39989 0.63327 0.89855 0.0
O320 O 0.38143 0.59558 0.88894 0.0
Mg321 Mg 0.36957 0.5929 0.85767 0.0
C322 C 0.39253 0.61166 0.90171 0.0
C323 C 0.40525 0.70202 0.88524 0.0
O324 O 0.39837 0.69924 0.86723 0.0
O325 O 0.35898 0.64039 0.87801 0.0
O326 O 0.34229 0.60371 0.86614 0.0
O327 O 0.43235 0.65941 0.86267 0.0
O328 O 0.39716 0.62974 0.85424 0.0
C329 C 0.3407 0.62075 0.87348 0.0
C330 C 0.41982 0.63987 0.8531 0.0
O331 O 0.4075 0.68592 0.89304 0.0
Mg332 Mg 0.75451 0.39712 0.06589 0.0
O333 O 0.77565 0.39875 0.09298 0.0
O334 O 0.79711 0.38207 0.0854 0.0
Mg335 Mg 0.79101 0.37132 0.05374 0.0
C336 C 0.79042 0.39212 0.09748 0.0
C337 C 0.72365 0.41818 0.07396 0.0
O338 O 0.73206 0.42555 0.05701 0.0
O339 O 0.72986 0.35789 0.06879 0.0
O340 O 0.75225 0.34321 0.05873 0.0
O341 O 0.78373 0.43188 0.05693 0.0
O342 O 0.78059 0.39788 0.04888 0.0
C343 C 0.7325 0.34048 0.06432 0.0
C344 C 0.79232 0.42042 0.04822 0.0
O345 O 0.73005 0.40545 0.08275 0.0
Mg346 Mg 0.37278 0.7614 0.23294 0.0
O347 O 0.3923 0.78259 0.26004 0.0
O348 O 0.43053 0.80461 0.25333 0.0
Mg349 Mg 0.43527 0.79769 0.2222 0.0
C350 C 0.4136 0.79772 0.26494 0.0
C351 C 0.32109 0.72801 0.24034 0.0
O352 O 0.32113 0.73343 0.2224 0.0
O353 O 0.3878 0.73731 0.23675 0.0
O354 O 0.42551 0.7596 0.22864 0.0
O355 O 0.36667 0.79009 0.2237 0.0
O356 O 0.39791 0.78717 0.2162 0.0
C357 C 0.40824 0.74005 0.23381 0.0
C358 C 0.38686 0.79881 0.21546 0.0
O359 O 0.3406 0.73734 0.24975 0.0
H360 H 0.11244 0.56797 0.26991 0.0
H361 H 0.15238 0.59806 0.26164 0.0
H362 H 0.177 0.59967 0.3193 0.0
H363 H 0.13693 0.56979 0.32783 0.0
H364 H 0.1773 0.64404 0.28154 0.0
H365 H 0.22606 0.59464 0.28418 0.0
H366 H 0.19426 0.58011 0.28094 0.0
H367 H 0.2077 0.59197 0.30393 0.0
C368 C 0.12637 0.57464 0.28082 0.0
C369 C 0.12152 0.56662 0.29955 0.0
C370 C 0.14915 0.59173 0.27605 0.0
C371 C 0.16755 0.60095 0.28985 0.0
C372 C 0.16303 0.5925 0.30841 0.0
H373 H 0.31501 0.71097 0.27644 0.0
H374 H 0.27805 0.6812 0.29027 0.0
C375 C 0.14018 0.5754 0.31323 0.0
C376 C 0.191 0.62053 0.28499 0.0
H377 H 0.24797 0.6347 0.27683 0.0
C378 C 0.19281 0.64207 0.28058 0.0
C379 C 0.21113 0.61787 0.28399 0.0
C380 C 0.20985 0.5949 0.28839 0.0
C381 C 0.21423 0.66102 0.27487 0.0
C382 C 0.23419 0.65812 0.27314 0.0
C383 C 0.23258 0.6368 0.27813 0.0
C384 C 0.25643 0.67653 0.26509 0.0
C385 C 0.21532 0.68397 0.27072 0.0
C386 C 0.25645 0.68356 0.24633 0.0
C387 C 0.27743 0.70051 0.23842 0.0
C388 C 0.29883 0.71065 0.24908 0.0
C389 C 0.29878 0.70355 0.26789 0.0
C390 C 0.27773 0.68654 0.2758 0.0
H391 H 0.20118 0.68552 0.27804 0.0
H392 H 0.23276 0.69914 0.27518 0.0
H393 H 0.21274 0.68491 0.25516 0.0
H394 H 0.24025 0.67569 0.23771 0.0
H395 H 0.27686 0.70548 0.22387 0.0
H396 H 0.5399 0.11693 0.43189 0.0
H397 H 0.55179 0.15591 0.42009 0.0
H398 H 0.57785 0.18606 0.47632 0.0
H399 H 0.56581 0.14694 0.48834 0.0
H400 H 0.53482 0.18545 0.43394 0.0
H401 H 0.63292 0.22782 0.44114 0.0
H402 H 0.61375 0.19637 0.44122 0.0
H403 H 0.6164 0.21391 0.46192 0.0
C404 C 0.54817 0.13184 0.44177 0.0
C405 C 0.5518 0.12886 0.46107 0.0
C406 C 0.55504 0.15409 0.43498 0.0
C407 C 0.56581 0.17383 0.44731 0.0
C408 C 0.5699 0.17106 0.46652 0.0
H409 H 0.61099 0.31973 0.41991 0.0
H410 H 0.60194 0.2843 0.43734 0.0
C411 C 0.56302 0.14873 0.47335 0.0
C412 C 0.57155 0.19702 0.44006 0.0
H413 H 0.61744 0.25108 0.42964 0.0
C414 C 0.55287 0.19985 0.43307 0.0
C415 C 0.5951 0.21578 0.43912 0.0
C416 C 0.61578 0.21342 0.44611 0.0
C417 C 0.55714 0.22083 0.42484 0.0
C418 C 0.58073 0.2393 0.42328 0.0
C419 C 0.59938 0.2368 0.43083 0.0
C420 C 0.58636 0.26077 0.41286 0.0
C421 C 0.53636 0.22304 0.41782 0.0
C422 C 0.58088 0.25921 0.39331 0.0
C423 C 0.58601 0.27932 0.38334 0.0
C424 C 0.59682 0.30141 0.39272 0.0
C425 C 0.60255 0.30295 0.4123 0.0
C426 C 0.59745 0.28278 0.42227 0.0
H427 H 0.51972 0.21032 0.42471 0.0
H428 H 0.5395 0.24105 0.42055 0.0
H429 H 0.53385 0.21937 0.40223 0.0
H430 H 0.57269 0.24241 0.38574 0.0
H431 H 0.58148 0.27752 0.36827 0.0
H432 H 0.41312 0.52073 0.6206 0.0
H433 H 0.38377 0.53212 0.61258 0.0
H434 H 0.43952 0.60103 0.59811 0.0
H435 H 0.46912 0.58952 0.60562 0.0
H436 H 0.38049 0.56936 0.62953 0.0
H437 H 0.3933 0.57993 0.55141 0.0
H438 H 0.40409 0.56427 0.56545 0.0
H439 H 0.41947 0.59576 0.56637 0.0
C440 C 0.41916 0.53821 0.61544 0.0
C441 C 0.44344 0.55417 0.6136 0.0
C442 C 0.40237 0.54472 0.61097 0.0
C443 C 0.40947 0.56729 0.60451 0.0
C444 C 0.43368 0.58339 0.60277 0.0
H445 H 0.32295 0.63134 0.57985 0.0
H446 H 0.35606 0.62386 0.58257 0.0
C447 C 0.45055 0.57688 0.60727 0.0
C448 C 0.39138 0.57402 0.60041 0.0
H449 H 0.3654 0.58867 0.56462 0.0
C450 C 0.37722 0.57363 0.61535 0.0
C451 C 0.38729 0.57971 0.5819 0.0
C452 C 0.40168 0.57982 0.56528 0.0
C453 C 0.3589 0.57856 0.61229 0.0
C454 C 0.35437 0.58362 0.5937 0.0
C455 C 0.36889 0.58463 0.57881 0.0
C456 C 0.33424 0.58739 0.58959 0.0
C457 C 0.34454 0.57838 0.62898 0.0
C458 C 0.311 0.56908 0.59191 0.0
C459 C 0.29206 0.57324 0.59039 0.0
C460 C 0.29603 0.59581 0.58646 0.0
C461 C 0.31925 0.61378 0.58297 0.0
C462 C 0.33821 0.60957 0.58452 0.0
H463 H 0.3538 0.57988 0.64281 0.0
H464 H 0.34066 0.59298 0.62822 0.0
H465 H 0.32743 0.56161 0.62869 0.0
H466 H 0.30759 0.55173 0.59552 0.0
H467 H 0.27442 0.55893 0.59297 0.0
H468 H 0.90278 0.42248 0.79811 0.0
H469 H 0.86504 0.39079 0.78528 0.0
H470 H 0.83905 0.43919 0.77958 0.0
H471 H 0.87679 0.47108 0.79263 0.0
H472 H 0.82104 0.37633 0.80193 0.0
H473 H 0.822 0.40381 0.72734 0.0
H474 H 0.84847 0.41546 0.74229 0.0
H475 H 0.82794 0.4258 0.74546 0.0
C476 C 0.88903 0.42641 0.79419 0.0
C477 C 0.8927 0.44926 0.79655 0.0
C478 C 0.86756 0.40832 0.7867 0.0
C479 C 0.84939 0.41272 0.78129 0.0
C480 C 0.85305 0.43555 0.78332 0.0
H481 H 0.70165 0.32329 0.75022 0.0
H482 H 0.74195 0.35628 0.7546 0.0
C483 C 0.87457 0.45372 0.79083 0.0
C484 C 0.82607 0.39298 0.77491 0.0
H485 H 0.78628 0.37117 0.73742 0.0
C486 C 0.81349 0.37511 0.78779 0.0
C487 C 0.81627 0.3916 0.7565 0.0
C488 C 0.82939 0.41007 0.742 0.0
C489 C 0.79118 0.35599 0.78287 0.0
C490 C 0.78142 0.35443 0.76439 0.0
C491 C 0.79393 0.37235 0.7515 0.0
C492 C 0.75786 0.33459 0.75861 0.0
C493 C 0.77798 0.33794 0.7977 0.0
C494 C 0.75368 0.3115 0.75852 0.0
C495 C 0.73066 0.29258 0.75616 0.0
C496 C 0.71144 0.29644 0.75366 0.0
C497 C 0.71599 0.31965 0.75223 0.0
C498 C 0.73903 0.33856 0.75472 0.0
H499 H 0.78524 0.34466 0.81232 0.0
H500 H 0.75888 0.33247 0.79726 0.0
H501 H 0.77959 0.32219 0.7948 0.0
H502 H 0.76811 0.30812 0.76109 0.0
H503 H 0.72784 0.27495 0.75709 0.0
H504 H 0.44062 0.9022 0.93929 0.0
H505 H 0.4319 0.86414 0.92606 0.0
H506 H 0.43555 0.84096 0.98248 0.0
H507 H 0.44333 0.87873 0.99597 0.0
H508 H 0.46119 0.84532 0.9288 0.0
H509 H 0.37428 0.78599 0.96046 0.0
H510 H 0.38678 0.81742 0.96021 0.0
H511 H 0.39741 0.80455 0.97732 0.0
C512 C 0.43899 0.88885 0.94897 0.0
C513 C 0.44257 0.89352 0.96872 0.0
C514 C 0.43422 0.86715 0.94135 0.0
C515 C 0.43286 0.84964 0.95329 0.0
C516 C 0.43612 0.85407 0.97303 0.0
H517 H 0.41574 0.71196 0.92346 0.0
H518 H 0.42332 0.74767 0.94106 0.0
C519 C 0.44083 0.87577 0.98069 0.0
C520 C 0.42939 0.82733 0.94485 0.0
H521 H 0.39195 0.76798 0.94297 0.0
C522 C 0.44605 0.82842 0.93191 0.0
C523 C 0.40972 0.80528 0.94905 0.0
C524 C 0.39089 0.80314 0.96239 0.0
C525 C 0.44347 0.80809 0.9229 0.0
C526 C 0.42358 0.78613 0.92679 0.0
C527 C 0.40719 0.7849 0.94007 0.0
C528 C 0.41887 0.76447 0.91635 0.0
C529 C 0.46204 0.81024 0.90926 0.0
C530 C 0.4136 0.76209 0.89674 0.0
C531 C 0.40922 0.7418 0.88669 0.0
C532 C 0.41001 0.72346 0.89608 0.0
C533 C 0.41512 0.72582 0.9158 0.0
C534 C 0.4194 0.74615 0.92588 0.0
H535 H 0.47886 0.82715 0.91138 0.0
H536 H 0.46574 0.79561 0.91094 0.0
H537 H 0.45546 0.80938 0.89442 0.0
H538 H 0.4128 0.77593 0.8892 0.0
H539 H 0.40524 0.74054 0.87154 0.0
H540 H 0.56703 0.47408 0.09051 0.0
H541 H 0.5986 0.46482 0.08625 0.0
H542 H 0.58542 0.43378 0.14156 0.0
H543 H 0.55403 0.44338 0.14614 0.0
H544 H 0.63982 0.4808 0.11228 0.0
H545 H 0.58531 0.38349 0.10393 0.0
H546 H 0.57305 0.40243 0.10013 0.0
H547 H 0.57955 0.39723 0.12388 0.0
C548 C 0.57085 0.46533 0.10181 0.0
C549 C 0.55805 0.45953 0.11869 0.0
C550 C 0.58881 0.45996 0.09931 0.0
C551 C 0.5942 0.44852 0.11355 0.0
C552 C 0.58128 0.44234 0.1303 0.0
H553 H 0.70004 0.40334 0.10746 0.0
H554 H 0.66974 0.41144 0.11967 0.0
C555 C 0.56331 0.44777 0.13286 0.0
C556 C 0.61398 0.44394 0.11098 0.0
H557 H 0.6266 0.40033 0.1019 0.0
C558 C 0.63699 0.46321 0.11014 0.0
C559 C 0.61019 0.42096 0.10843 0.0
C560 C 0.58571 0.39976 0.10901 0.0
C561 C 0.65632 0.46014 0.10637 0.0
C562 C 0.6524 0.43722 0.10293 0.0
C563 C 0.62951 0.41788 0.1045 0.0
C564 C 0.67145 0.43311 0.09619 0.0
C565 C 0.68073 0.48148 0.10599 0.0
C566 C 0.68227 0.44248 0.07892 0.0
C567 C 0.69951 0.43794 0.07194 0.0
C568 C 0.70616 0.42375 0.08203 0.0
C569 C 0.69536 0.41441 0.09939 0.0
C570 C 0.67804 0.41898 0.10637 0.0
H571 H 0.68184 0.49626 0.11469 0.0
H572 H 0.69442 0.4775 0.11135 0.0
H573 H 0.68481 0.48737 0.09111 0.0
H574 H 0.67706 0.45299 0.07062 0.0
H575 H 0.70736 0.44531 0.05848 0.0
H576 H 0.42663 0.87841 0.49446 0.0
H577 H 0.4014 0.83831 0.50493 0.0
H578 H 0.43236 0.859 0.5616 0.0
H579 H 0.45684 0.8994 0.55151 0.0
H580 H 0.41143 0.80613 0.52042 0.0
H581 H 0.36224 0.82997 0.5713 0.0
H582 H 0.38148 0.85003 0.5539 0.0
H583 H 0.39368 0.84581 0.57566 0.0
C584 C 0.42793 0.8745 0.50921 0.0
C585 C 0.44353 0.89223 0.52221 0.0
C586 C 0.41364 0.85152 0.51511 0.0
C587 C 0.41467 0.84579 0.53412 0.0
C588 C 0.43091 0.86318 0.54696 0.0
H589 H 0.34287 0.72014 0.5991 0.0
H590 H 0.37046 0.75843 0.58648 0.0
C591 C 0.44511 0.88621 0.5411 0.0
C592 C 0.39844 0.82172 0.54056 0.0
H593 H 0.35516 0.79093 0.57225 0.0
C594 C 0.39905 0.80277 0.53169 0.0
C595 C 0.38216 0.8174 0.55516 0.0
C596 C 0.37962 0.83684 0.56444 0.0
C597 C 0.38416 0.77963 0.53736 0.0
C598 C 0.36827 0.77544 0.55218 0.0
C599 C 0.36752 0.79432 0.56095 0.0
C600 C 0.35237 0.7516 0.55906 0.0
C601 C 0.38579 0.75986 0.52777 0.0
C602 C 0.3331 0.7351 0.54773 0.0
C603 C 0.31716 0.71318 0.55493 0.0
C604 C 0.3203 0.70747 0.57357 0.0
C605 C 0.33992 0.72394 0.58469 0.0
C606 C 0.35572 0.74584 0.57753 0.0
H607 H 0.4016 0.76638 0.51877 0.0
H608 H 0.38648 0.74802 0.53856 0.0
H609 H 0.36976 0.74934 0.51856 0.0
H610 H 0.33011 0.73939 0.5335 0.0
H611 H 0.30221 0.70088 0.54602 0.0
H612 H 0.57411 0.42947 0.64493 0.0
H613 H 0.5861 0.40331 0.65939 0.0
H614 H 0.5998 0.4412 0.71303 0.0
H615 H 0.5868 0.46674 0.69897 0.0
H616 H 0.62765 0.4114 0.67726 0.0
H617 H 0.55338 0.37415 0.72734 0.0
H618 H 0.55446 0.39194 0.70766 0.0
H619 H 0.57141 0.40551 0.72924 0.0
C620 C 0.57954 0.43216 0.65984 0.0
C621 C 0.57921 0.45003 0.67085 0.0
C622 C 0.58655 0.41731 0.66803 0.0
C623 C 0.59337 0.42003 0.68737 0.0
C624 C 0.59411 0.43849 0.69818 0.0
H625 H 0.63564 0.34493 0.76394 0.0
H626 H 0.62806 0.37363 0.74841 0.0
C627 C 0.58697 0.45327 0.69004 0.0
C628 C 0.59916 0.40321 0.6963 0.0
H629 H 0.58266 0.36317 0.73151 0.0
C630 C 0.61779 0.40079 0.68908 0.0
C631 C 0.58613 0.3893 0.71165 0.0
C632 C 0.56508 0.39013 0.71933 0.0
C633 C 0.62402 0.38512 0.69705 0.0
C634 C 0.61115 0.37144 0.7125 0.0
C635 C 0.59253 0.37382 0.7197 0.0
C636 C 0.61665 0.35448 0.72144 0.0
C637 C 0.64454 0.38353 0.68913 0.0
C638 C 0.61259 0.33417 0.71139 0.0
C639 C 0.61678 0.31764 0.72024 0.0
C640 C 0.6251 0.3212 0.73929 0.0
C641 C 0.62928 0.34167 0.74924 0.0
C642 C 0.62496 0.3581 0.74042 0.0
H643 H 0.65552 0.39847 0.67985 0.0
H644 H 0.65597 0.38312 0.70084 0.0
H645 H 0.63765 0.36702 0.68052 0.0
H646 H 0.60583 0.33093 0.69681 0.0
H647 H 0.61337 0.30204 0.7122 0.0
H648 H 0.127 0.58734 0.88669 0.0
H649 H 0.16828 0.59953 0.89485 0.0
H650 H 0.18445 0.6066 0.83515 0.0
H651 H 0.14337 0.59494 0.827 0.0
H652 H 0.19024 0.57649 0.88562 0.0
H653 H 0.2401 0.66545 0.85674 0.0
H654 H 0.20849 0.65072 0.8597 0.0
H655 H 0.22058 0.64469 0.83891 0.0
C656 C 0.13951 0.5919 0.87536 0.0
C657 C 0.13205 0.59024 0.85622 0.0
C658 C 0.16305 0.59888 0.88002 0.0
C659 C 0.17955 0.60427 0.86564 0.0
C660 C 0.17223 0.60318 0.84654 0.0
H661 H 0.29803 0.58371 0.86156 0.0
H662 H 0.25934 0.58075 0.86248 0.0
C663 C 0.14874 0.59643 0.84188 0.0
C664 C 0.20372 0.60874 0.87041 0.0
H665 H 0.26211 0.64532 0.86166 0.0
C666 C 0.20598 0.59175 0.88064 0.0
C667 C 0.22431 0.62882 0.86423 0.0
C668 C 0.22327 0.64857 0.85447 0.0
C669 C 0.22815 0.5937 0.88402 0.0
C670 C 0.24853 0.61284 0.87652 0.0
C671 C 0.24643 0.63046 0.86717 0.0
C672 C 0.2719 0.6142 0.87719 0.0
C673 C 0.22945 0.57513 0.89548 0.0
C674 C 0.29197 0.63419 0.88487 0.0
C675 C 0.31427 0.6361 0.88417 0.0
C676 C 0.31692 0.61805 0.8757 0.0
C677 C 0.29668 0.59788 0.86833 0.0
C678 C 0.27446 0.59607 0.86894 0.0
H679 H 0.21455 0.56685 0.90543 0.0
H680 H 0.22813 0.56114 0.88566 0.0
H681 H 0.24638 0.58253 0.90382 0.0
H682 H 0.2904 0.64844 0.89121 0.0
H683 H 0.32947 0.65189 0.88997 0.0
H684 H 0.5679 0.14734 0.9971 0.0
H685 H 0.59743 0.18731 0.00771 0.0
H686 H 0.57989 0.16826 0.06618 0.0
H687 H 0.55088 0.12816 0.05564 0.0
H688 H 0.59688 0.22225 0.02848 0.0
H689 H 0.64974 0.19 0.06683 0.0
H690 H 0.62515 0.17138 0.05099 0.0
H691 H 0.62001 0.17773 0.07487 0.0
C692 C 0.57014 0.15184 0.01218 0.0
C693 C 0.55739 0.13469 0.02558 0.0
C694 C 0.58701 0.17461 0.01824 0.0
C695 C 0.59126 0.18058 0.03776 0.0
C696 C 0.57739 0.16385 0.05108 0.0
H697 H 0.68763 0.32651 0.07645 0.0
H698 H 0.65236 0.2877 0.07209 0.0
C699 C 0.56077 0.14102 0.04506 0.0
C700 C 0.61098 0.2039 0.04414 0.0
H701 H 0.66327 0.23055 0.06972 0.0
C702 C 0.61136 0.22411 0.03756 0.0
C703 C 0.63001 0.20623 0.0558 0.0
C704 C 0.63141 0.18521 0.0624 0.0
C705 C 0.6304 0.24662 0.04212 0.0
C706 C 0.64925 0.24894 0.05401 0.0
C707 C 0.64868 0.22873 0.06079 0.0
C708 C 0.67068 0.272 0.05825 0.0
C709 C 0.63057 0.2676 0.03354 0.0
C710 C 0.69287 0.27573 0.05281 0.0
C711 C 0.71309 0.29771 0.05557 0.0
C712 C 0.71155 0.31652 0.06377 0.0
C713 C 0.68943 0.31248 0.06995 0.0
C714 C 0.6692 0.29036 0.06731 0.0
H715 H 0.61782 0.26246 0.02127 0.0
H716 H 0.62549 0.27648 0.04447 0.0
H717 H 0.6485 0.28041 0.02864 0.0
H718 H 0.69446 0.26177 0.0459 0.0
H719 H 0.72978 0.3001 0.05066 0.0
H720 H 0.41968 0.5797 0.14988 0.0
H721 H 0.41455 0.60983 0.1664 0.0
H722 H 0.43447 0.59199 0.21981 0.0
H723 H 0.43879 0.56128 0.2034 0.0
H724 H 0.39961 0.60174 0.22461 0.0
H725 H 0.47045 0.67167 0.18321 0.0
H726 H 0.44708 0.65028 0.16793 0.0
H727 H 0.46451 0.6418 0.18239 0.0
C728 C 0.42267 0.58208 0.16518 0.0
C729 C 0.42975 0.56835 0.17538 0.0
C730 C 0.41992 0.59936 0.17458 0.0
C731 C 0.42481 0.6036 0.19425 0.0
C732 C 0.43079 0.58913 0.20461 0.0
H733 H 0.44953 0.73899 0.23733 0.0
H734 H 0.45471 0.70499 0.23228 0.0
C735 C 0.43318 0.57158 0.19525 0.0
C736 C 0.42447 0.62364 0.20382 0.0
H737 H 0.44595 0.68244 0.20051 0.0
C738 C 0.40992 0.61945 0.21949 0.0
C739 C 0.4385 0.64686 0.19755 0.0
C740 C 0.45622 0.65298 0.18199 0.0
C741 C 0.40816 0.63772 0.22846 0.0
C742 C 0.42076 0.66061 0.22117 0.0
C743 C 0.43609 0.6649 0.20604 0.0
C744 C 0.41731 0.68013 0.22797 0.0
C745 C 0.39295 0.63226 0.24569 0.0
C746 C 0.39454 0.67739 0.22785 0.0
C747 C 0.39152 0.69668 0.23112 0.0
C748 C 0.41127 0.71924 0.23406 0.0
C749 C 0.43399 0.72184 0.23501 0.0
C750 C 0.43696 0.70242 0.23211 0.0
H751 H 0.39234 0.61747 0.2536 0.0
H752 H 0.39951 0.64771 0.25557 0.0
H753 H 0.37455 0.62683 0.24098 0.0
H754 H 0.37914 0.66059 0.22414 0.0
H755 H 0.37379 0.69412 0.23011 0.0
H756 H 0.8971 0.49823 0.36816 0.0
H757 H 0.85765 0.48921 0.37772 0.0
H758 H 0.83449 0.41528 0.37555 0.0
H759 H 0.87396 0.42417 0.36579 0.0
H760 H 0.8178 0.46092 0.35324 0.0
H761 H 0.80663 0.42467 0.42577 0.0
H762 H 0.83537 0.4429 0.41577 0.0
H763 H 0.81774 0.41267 0.40825 0.0
C764 C 0.88367 0.48006 0.36989 0.0
C765 C 0.8885 0.46187 0.366 0.0
C766 C 0.86123 0.47496 0.3755 0.0
C767 C 0.84327 0.45162 0.37747 0.0
C768 C 0.84828 0.43344 0.37444 0.0
H769 H 0.69136 0.38286 0.38409 0.0
H770 H 0.73289 0.39307 0.38623 0.0
C771 C 0.87079 0.43853 0.36882 0.0
C772 C 0.81871 0.44632 0.38025 0.0
H773 H 0.77239 0.42151 0.41036 0.0
C774 C 0.80791 0.45248 0.3658 0.0
C775 C 0.80589 0.43509 0.39655 0.0
C776 C 0.81698 0.42855 0.41258 0.0
C777 C 0.78443 0.44739 0.36702 0.0
C778 C 0.7716 0.43637 0.38342 0.0
C779 C 0.78238 0.43015 0.39791 0.0
C780 C 0.74671 0.43053 0.38525 0.0
C781 C 0.77338 0.45321 0.35045 0.0
C782 C 0.74077 0.44828 0.38482 0.0
C783 C 0.71711 0.44253 0.38335 0.0
C784 C 0.69895 0.41891 0.3826 0.0
C785 C 0.70492 0.40122 0.38453 0.0
C786 C 0.72864 0.40701 0.38579 0.0
H787 H 0.78348 0.45597 0.33723 0.0
H788 H 0.75484 0.43903 0.34759 0.0
H789 H 0.77324 0.46965 0.35388 0.0
H790 H 0.7545 0.46657 0.38483 0.0
H791 H 0.71309 0.45658 0.38221 0.0
H792 H 0.08706 0.57248 0.41031 0.0
H793 H 0.11514 0.58738 0.43747 0.0
H794 H 0.12603 0.52816 0.4316 0.0
H795 H 0.09841 0.51343 0.40414 0.0
H796 H 0.11032 0.56386 0.47128 0.0
H797 H 0.19387 0.58434 0.43629 0.0
H798 H 0.16793 0.58011 0.42314 0.0
H799 H 0.16979 0.55522 0.43106 0.0
C800 C 0.09575 0.56285 0.41457 0.0
C801 C 0.09052 0.54178 0.40505 0.0
C802 C 0.1117 0.57133 0.43015 0.0
C803 C 0.12289 0.55904 0.43639 0.0
C804 C 0.11791 0.53814 0.42681 0.0
H805 H 0.1809 0.55796 0.54649 0.0
H806 H 0.15892 0.54972 0.51626 0.0
C807 C 0.10191 0.5296 0.41127 0.0
C808 C 0.13851 0.56721 0.4537 0.0
H809 H 0.19431 0.58354 0.47031 0.0
C810 C 0.12873 0.56836 0.47104 0.0
C811 C 0.16259 0.57329 0.45331 0.0
C812 C 0.17428 0.57342 0.43493 0.0
C813 C 0.14218 0.57469 0.48812 0.0
C814 C 0.16594 0.57977 0.48786 0.0
C815 C 0.176 0.57941 0.47045 0.0
C816 C 0.18027 0.58471 0.50569 0.0
C817 C 0.13083 0.57582 0.50635 0.0
C818 C 0.19999 0.60699 0.50951 0.0
C819 C 0.21268 0.61184 0.52685 0.0
C820 C 0.20594 0.59439 0.54058 0.0
C821 C 0.18657 0.57188 0.53635 0.0
C822 C 0.17389 0.56712 0.51909 0.0
H823 H 0.11466 0.57702 0.50356 0.0
H824 H 0.12569 0.55968 0.51444 0.0
H825 H 0.14342 0.59113 0.51544 0.0
H826 H 0.20523 0.62075 0.49925 0.0
H827 H 0.22754 0.62932 0.52958 0.0
H828 H 0.51617 0.09296 0.57652 0.0
H829 H 0.53047 0.1202 0.60408 0.0
H830 H 0.60115 0.13252 0.59614 0.0
H831 H 0.58714 0.10579 0.56831 0.0
H832 H 0.55163 0.11498 0.63696 0.0
H833 H 0.61149 0.19913 0.60281 0.0
H834 H 0.58936 0.1736 0.58951 0.0
H835 H 0.61704 0.17579 0.59653 0.0
C836 C 0.53484 0.10181 0.58043 0.0
C837 C 0.55053 0.09723 0.57023 0.0
C838 C 0.54295 0.11727 0.59622 0.0
C839 C 0.56691 0.12859 0.60199 0.0
C840 C 0.58267 0.12429 0.59171 0.0
H841 H 0.63249 0.18283 0.71183 0.0
H842 H 0.61693 0.16184 0.68139 0.0
C843 C 0.57458 0.1088 0.57596 0.0
C844 C 0.57514 0.14359 0.61954 0.0
H845 H 0.61524 0.19848 0.63672 0.0
C846 C 0.56538 0.13329 0.63689 0.0
C847 C 0.5929 0.16753 0.61937 0.0
C848 C 0.60318 0.17977 0.60104 0.0
C849 C 0.57348 0.14609 0.65417 0.0
C850 C 0.59201 0.1697 0.6541 0.0
C851 C 0.6012 0.18028 0.63671 0.0
C852 C 0.60245 0.18338 0.67205 0.0
C853 C 0.56222 0.13422 0.67241 0.0
C854 C 0.60005 0.20289 0.6766 0.0
C855 C 0.60896 0.21502 0.69405 0.0
C856 C 0.62057 0.20791 0.70715 0.0
C857 C 0.62355 0.18876 0.70218 0.0
C858 C 0.61459 0.17665 0.68481 0.0
H859 H 0.54466 0.11829 0.66967 0.0
H860 H 0.57385 0.12881 0.67977 0.0
H861 H 0.56 0.14639 0.68213 0.0
H862 H 0.59084 0.20841 0.66685 0.0
H863 H 0.60642 0.22973 0.69735 0.0
H864 H 0.52064 0.56102 0.73754 0.0
H865 H 0.51049 0.5765 0.76551 0.0
H866 H 0.45757 0.58197 0.73197 0.0
H867 H 0.46802 0.56712 0.70383 0.0
H868 H 0.48719 0.62223 0.75507 0.0
H869 H 0.44938 0.53998 0.7959 0.0
H870 H 0.47883 0.55069 0.78753 0.0
H871 H 0.45448 0.54058 0.77068 0.0
C872 C 0.50698 0.5657 0.73608 0.0
C873 C 0.49506 0.56276 0.71847 0.0
C874 C 0.50105 0.57432 0.75212 0.0
C875 C 0.48308 0.58007 0.75084 0.0
C876 C 0.4714 0.57749 0.73326 0.0
H877 H 0.39763 0.60018 0.83056 0.0
H878 H 0.41545 0.58614 0.80741 0.0
C879 C 0.47728 0.56885 0.71723 0.0
C880 C 0.47641 0.58892 0.76776 0.0
H881 H 0.45063 0.57286 0.811 0.0
C882 C 0.47936 0.61154 0.76738 0.0
C883 C 0.46606 0.57481 0.78369 0.0
C884 C 0.46178 0.55009 0.78453 0.0
C885 C 0.47189 0.62033 0.78241 0.0
C886 C 0.46149 0.6062 0.79834 0.0
C887 C 0.45884 0.5837 0.79884 0.0
C888 C 0.45138 0.61371 0.81379 0.0
C889 C 0.47434 0.64429 0.78081 0.0
C890 C 0.46578 0.63352 0.82544 0.0
C891 C 0.45563 0.64161 0.83878 0.0
C892 C 0.43093 0.62995 0.84069 0.0
C893 C 0.4167 0.60955 0.82953 0.0
C894 C 0.42685 0.60149 0.81625 0.0
H895 H 0.47857 0.65099 0.76613 0.0
H896 H 0.45777 0.64384 0.78498 0.0
H897 H 0.48884 0.65687 0.79059 0.0
H898 H 0.4848 0.64298 0.82393 0.0
H899 H 0.46707 0.65732 0.84721 0.0
H900 H 0.93276 0.46371 0.91377 0.0
H901 H 0.90931 0.45345 0.94255 0.0
H902 H 0.91188 0.52024 0.94224 0.0
H903 H 0.93504 0.53045 0.9133 0.0
H904 H 0.91966 0.475 0.97799 0.0
H905 H 0.84148 0.47458 0.94488 0.0
H906 H 0.86485 0.47537 0.93097 0.0
H907 H 0.86882 0.50165 0.94263 0.0
C908 C 0.92833 0.47621 0.91987 0.0
C909 C 0.93554 0.4978 0.91123 0.0
C910 C 0.91495 0.47033 0.93628 0.0
C911 C 0.90857 0.48594 0.94436 0.0
C912 C 0.91612 0.5077 0.93597 0.0
H913 H 0.81726 0.46701 0.04003 0.0
H914 H 0.84864 0.48563 0.01688 0.0
C915 C 0.92934 0.51351 0.91946 0.0
C916 C 0.89397 0.47932 0.96155 0.0
H917 H 0.84068 0.46877 0.978 0.0
C918 C 0.90242 0.4737 0.97802 0.0
C919 C 0.8715 0.47768 0.96155 0.0
C920 C 0.86098 0.48242 0.94403 0.0
C921 C 0.88889 0.46629 0.99446 0.0
C922 C 0.86633 0.46434 0.99433 0.0
C923 C 0.85811 0.47049 0.97805 0.0
C924 C 0.85003 0.45415 0.01028 0.0
C925 C 0.89875 0.46051 0.0118 0.0
C926 C 0.84073 0.4304 0.01439 0.0
C927 C 0.82275 0.41969 0.02748 0.0
C928 C 0.81375 0.43256 0.03671 0.0
C929 C 0.82387 0.45664 0.03322 0.0
C930 C 0.84176 0.4673 0.01999 0.0
H931 H 0.91832 0.46869 0.01144 0.0
H932 H 0.89404 0.46644 0.02506 0.0
H933 H 0.89106 0.4412 0.0123 0.0
H934 H 0.8466 0.41986 0.00679 0.0
H935 H 0.81528 0.40111 0.02972 0.0
H936 H 0.48084 0.93748 0.08284 0.0
H937 H 0.46814 0.91487 0.11193 0.0
H938 H 0.40687 0.92358 0.1131 0.0
H939 H 0.41934 0.94597 0.08384 0.0
H940 H 0.46009 0.92697 0.14784 0.0
H941 H 0.37782 0.8528 0.11526 0.0
H942 H 0.40074 0.87497 0.10118 0.0
H943 H 0.38027 0.88109 0.11327 0.0
C944 C 0.46471 0.93462 0.08935 0.0
C945 C 0.45096 0.94329 0.08104 0.0
C946 C 0.45748 0.92173 0.10593 0.0
C947 C 0.43642 0.91732 0.1145 0.0
C948 C 0.42291 0.92638 0.10647 0.0
H949 H 0.36578 0.82505 0.20887 0.0
H950 H 0.37845 0.85742 0.18685 0.0
C951 C 0.43003 0.93912 0.08978 0.0
C952 C 0.42855 0.90289 0.13167 0.0
H953 H 0.38492 0.8508 0.14795 0.0
C954 C 0.44359 0.91037 0.14793 0.0
C955 C 0.40699 0.88129 0.13171 0.0
C956 C 0.39058 0.8719 0.11439 0.0
C957 C 0.43779 0.8966 0.16417 0.0
C958 C 0.41654 0.87478 0.16401 0.0
C959 C 0.40115 0.86765 0.14801 0.0
C960 C 0.41079 0.85799 0.1795 0.0
C961 C 0.45452 0.90537 0.18128 0.0
C962 C 0.42499 0.8479 0.18281 0.0
C963 C 0.41777 0.82936 0.19527 0.0
C964 C 0.39618 0.82057 0.20459 0.0
C965 C 0.38252 0.83145 0.20192 0.0
C966 C 0.38971 0.84993 0.18936 0.0
H967 H 0.46623 0.92473 0.18128 0.0
H968 H 0.44463 0.90047 0.19473 0.0
H969 H 0.4659 0.89727 0.18099 0.0
H970 H 0.44109 0.85358 0.17504 0.0
H971 H 0.42863 0.8213 0.19691 0.0
H972 H 0.47913 0.41959 0.21588 0.0
H973 H 0.49023 0.40515 0.24384 0.0
H974 H 0.5517 0.47356 0.25377 0.0
H975 H 0.54013 0.48844 0.22646 0.0
H976 H 0.52966 0.40256 0.24942 0.0
H977 H 0.525 0.45904 0.30634 0.0
H978 H 0.51244 0.45651 0.28272 0.0
H979 H 0.54362 0.47585 0.28744 0.0
C980 C 0.49475 0.4317 0.22424 0.0
C981 C 0.5087 0.4552 0.21894 0.0
C982 C 0.50113 0.42337 0.24014 0.0
C983 C 0.52155 0.43838 0.25109 0.0
C984 C 0.53555 0.46181 0.24582 0.0
H985 H 0.61317 0.42564 0.33142 0.0
H986 H 0.59274 0.43771 0.3088 0.0
C987 C 0.52911 0.47019 0.23 0.0
C988 C 0.5291 0.42919 0.26725 0.0
H989 H 0.54671 0.43945 0.31418 0.0
C990 C 0.53302 0.41037 0.26365 0.0
C991 C 0.53342 0.43938 0.28582 0.0
C992 C 0.52816 0.45865 0.29087 0.0
C993 C 0.54208 0.40213 0.27794 0.0
C994 C 0.54723 0.41293 0.29626 0.0
C995 C 0.54276 0.43131 0.30004 0.0
C996 C 0.5587 0.40628 0.31125 0.0
C997 C 0.54695 0.38252 0.27322 0.0
C998 C 0.54612 0.38479 0.32035 0.0
C999 C 0.5577 0.37788 0.33344 0.0
C1000 C 0.58207 0.39234 0.33753 0.0
C1001 C 0.5944 0.41414 0.32872 0.0
C1002 C 0.58278 0.42108 0.31576 0.0
H1003 H 0.54437 0.37775 0.25777 0.0
H1004 H 0.56537 0.38764 0.27763 0.0
H1005 H 0.53483 0.36674 0.28123 0.0
H1006 H 0.52747 0.37321 0.31705 0.0
H1007 H 0.5477 0.36099 0.33999 0.0
H1008 H 0.47328 0.95148 0.39498 0.0
H1009 H 0.46019 0.92281 0.36854 0.0
H1010 H 0.44306 0.86746 0.40819 0.0
H1011 H 0.4561 0.89608 0.43478 0.0
H1012 H 0.46864 0.86578 0.37788 0.0
H1013 H 0.39252 0.87423 0.35231 0.0
H1014 H 0.41957 0.90189 0.35424 0.0
H1015 H 0.40685 0.88551 0.37533 0.0
C1016 C 0.46642 0.93316 0.3981 0.0
C1017 C 0.4656 0.92602 0.41697 0.0
C1018 C 0.45893 0.9168 0.38298 0.0
C1019 C 0.45028 0.89296 0.38644 0.0
C1020 C 0.44958 0.88577 0.40524 0.0
H1021 H 0.38255 0.78834 0.29384 0.0
H1022 H 0.39062 0.80864 0.32486 0.0
C1023 C 0.45713 0.90214 0.42039 0.0
C1024 C 0.44279 0.87575 0.37033 0.0
H1025 H 0.40618 0.85519 0.33091 0.0
C1026 C 0.4548 0.86324 0.36771 0.0
C1027 C 0.42446 0.87217 0.35728 0.0
C1028 C 0.40993 0.88397 0.36001 0.0
C1029 C 0.44965 0.84799 0.35191 0.0
C1030 C 0.43233 0.84554 0.33824 0.0
C1031 C 0.41962 0.85727 0.34131 0.0
C1032 C 0.42788 0.83186 0.32019 0.0
C1033 C 0.46285 0.83471 0.34999 0.0
C1034 C 0.44617 0.83815 0.30732 0.0
C1035 C 0.44167 0.82658 0.28962 0.0
C1036 C 0.41869 0.80861 0.28433 0.0
C1037 C 0.40045 0.80208 0.29742 0.0
C1038 C 0.40501 0.81366 0.31516 0.0
H1039 H 0.46958 0.83265 0.36405 0.0
H1040 H 0.45141 0.81704 0.34332 0.0
H1041 H 0.47832 0.84463 0.34086 0.0
H1042 H 0.46383 0.85251 0.31072 0.0
H1043 H 0.45612 0.83217 0.2799 0.0
H1044 H 0.57624 0.4559 0.57323 0.0
H1045 H 0.58764 0.44297 0.54443 0.0
H1046 H 0.54337 0.46042 0.51021 0.0
H1047 H 0.53192 0.47339 0.53886 0.0
H1048 H 0.53863 0.41692 0.5003 0.0
H1049 H 0.63303 0.48748 0.50507 0.0
H1050 H 0.62235 0.47001 0.52589 0.0
H1051 H 0.61047 0.48834 0.51901 0.0
C1052 C 0.56903 0.45707 0.55955 0.0
C1053 C 0.55326 0.46575 0.5583 0.0
C1054 C 0.57556 0.44968 0.54313 0.0
C1055 C 0.56659 0.45105 0.52519 0.0
C1056 C 0.55048 0.45924 0.52394 0.0
H1057 H 0.61851 0.45336 0.41336 0.0
H1058 H 0.60622 0.46124 0.44387 0.0
C1059 C 0.5439 0.46656 0.54033 0.0
C1060 C 0.57414 0.44425 0.50762 0.0
H1061 H 0.62213 0.45899 0.4803 0.0
C1062 C 0.55689 0.42603 0.49593 0.0
C1063 C 0.59794 0.45638 0.50192 0.0
C1064 C 0.61703 0.47678 0.51351 0.0
C1065 C 0.56279 0.41966 0.47859 0.0
C1066 C 0.58664 0.43163 0.47299 0.0
C1067 C 0.6039 0.44976 0.48473 0.0
C1068 C 0.59391 0.42645 0.45453 0.0
C1069 C 0.54336 0.4007 0.46614 0.0
C1070 C 0.59123 0.4043 0.45048 0.0
C1071 C 0.59817 0.39966 0.43297 0.0
C1072 C 0.60809 0.41719 0.41927 0.0
C1073 C 0.61093 0.43943 0.42352 0.0
C1074 C 0.60394 0.444 0.44098 0.0
H1075 H 0.52554 0.39709 0.47039 0.0
H1076 H 0.54574 0.40565 0.45095 0.0
H1077 H 0.54399 0.38424 0.46742 0.0
H1078 H 0.58392 0.39065 0.4609 0.0
H1079 H 0.59586 0.38239 0.43023 0.0
H1080 H 0.08292 0.53963 0.74492 0.0
H1081 H 0.10655 0.55143 0.71631 0.0
H1082 H 0.10567 0.61653 0.71671 0.0
H1083 H 0.083 0.60539 0.74583 0.0
H1084 H 0.09638 0.56231 0.68078 0.0
H1085 H 0.1759 0.63876 0.71421 0.0
H1086 H 0.15226 0.61701 0.72803 0.0
H1087 H 0.14895 0.63953 0.71664 0.0
C1088 C 0.08805 0.55662 0.73911 0.0
C1089 C 0.08124 0.57165 0.74779 0.0
C1090 C 0.10135 0.56323 0.72265 0.0
C1091 C 0.10811 0.58497 0.71454 0.0
C1092 C 0.10099 0.59984 0.72293 0.0
H1093 H 0.20027 0.65224 0.61899 0.0
H1094 H 0.16943 0.64152 0.64252 0.0
C1095 C 0.08781 0.59332 0.73946 0.0
C1096 C 0.12271 0.59203 0.69736 0.0
H1097 H 0.17657 0.63274 0.68108 0.0
C1098 C 0.11388 0.57774 0.68081 0.0
C1099 C 0.14552 0.61222 0.69746 0.0
C1100 C 0.15636 0.62768 0.71506 0.0
C1101 C 0.12737 0.58301 0.66436 0.0
C1102 C 0.15029 0.60295 0.66459 0.0
C1103 C 0.15889 0.61754 0.68096 0.0
C1104 C 0.16648 0.60805 0.64861 0.0
C1105 C 0.11706 0.56719 0.6469 0.0
C1106 C 0.17479 0.59265 0.64415 0.0
C1107 C 0.19246 0.59875 0.63085 0.0
C1108 C 0.20214 0.6204 0.62175 0.0
C1109 C 0.19312 0.63541 0.6257 0.0
C1110 C 0.17553 0.62934 0.63913 0.0
H1111 H 0.09743 0.55667 0.64721 0.0
H1112 H 0.12221 0.57753 0.63372 0.0
H1113 H 0.12398 0.55485 0.6463 0.0
H1114 H 0.16835 0.57634 0.65158 0.0
H1115 H 0.1991 0.58687 0.62828 0.0
H1116 H 0.50988 0.05176 0.89575 0.0
H1117 H 0.52378 0.07413 0.86657 0.0
H1118 H 0.55747 0.13867 0.90012 0.0
H1119 H 0.54422 0.11633 0.9293 0.0
H1120 H 0.51557 0.106 0.85092 0.0
H1121 H 0.61126 0.14684 0.86822 0.0
H1122 H 0.58913 0.12324 0.88179 0.0
H1123 H 0.59622 0.15308 0.88652 0.0
C1124 C 0.52028 0.07073 0.89684 0.0
C1125 C 0.52618 0.08236 0.91474 0.0
C1126 C 0.52822 0.08347 0.8802 0.0
C1127 C 0.54209 0.10804 0.88118 0.0
C1128 C 0.54743 0.11969 0.89905 0.0
H1129 H 0.56605 0.20887 0.79574 0.0
H1130 H 0.54883 0.17806 0.81915 0.0
C1131 C 0.53978 0.10695 0.91569 0.0
C1132 C 0.55069 0.12158 0.86356 0.0
H1133 H 0.60038 0.16451 0.84339 0.0
C1134 C 0.53415 0.11861 0.84915 0.0
C1135 C 0.57499 0.1376 0.86102 0.0
C1136 C 0.59393 0.14019 0.87512 0.0
C1137 C 0.54116 0.13194 0.83262 0.0
C1138 C 0.56525 0.14919 0.83076 0.0
C1139 C 0.58186 0.15148 0.84486 0.0
C1140 C 0.5737 0.16579 0.81483 0.0
C1141 C 0.52268 0.12721 0.81732 0.0
C1142 C 0.59352 0.16934 0.80465 0.0
C1143 C 0.60375 0.18736 0.79163 0.0
C1144 C 0.59419 0.202 0.78838 0.0
C1145 C 0.57365 0.19769 0.79782 0.0
C1146 C 0.56368 0.17996 0.81113 0.0
H1147 H 0.50791 0.10875 0.81754 0.0
H1148 H 0.51509 0.13875 0.81995 0.0
H1149 H 0.53032 0.13065 0.80293 0.0
H1150 H 0.60155 0.15863 0.80723 0.0
H1151 H 0.61942 0.19009 0.78444 0.0
H1152 H 0.41327 0.51172 0.05024 0.0
H1153 H 0.40328 0.52615 0.02162 0.0
H1154 H 0.46213 0.59557 0.03404 0.0
H1155 H 0.47244 0.58114 0.06248 0.0
H1156 H 0.3912 0.55972 0.01666 0.0
H1157 H 0.47486 0.5845 0.97996 0.0
H1158 H 0.46641 0.56714 0.00106 0.0
H1159 H 0.47933 0.5985 0.00297 0.0
C1160 C 0.42399 0.53008 0.0469 0.0
C1161 C 0.44375 0.54527 0.05849 0.0
C1162 C 0.41831 0.53829 0.03054 0.0
C1163 C 0.43224 0.56183 0.02548 0.0
C1164 C 0.45154 0.5772 0.03736 0.0
H1165 H 0.42216 0.64061 0.93047 0.0
H1166 H 0.43115 0.62919 0.96117 0.0
C1167 C 0.45736 0.56895 0.05363 0.0
C1168 C 0.42651 0.57024 0.00777 0.0
H1169 H 0.44907 0.59567 0.96534 0.0
C1170 C 0.40384 0.56754 0.00543 0.0
C1171 C 0.44301 0.5804 0.9931 0.0
C1172 C 0.46718 0.58263 0.99426 0.0
C1173 C 0.3973 0.57486 0.98887 0.0
C1174 C 0.41382 0.58504 0.97428 0.0
C1175 C 0.43653 0.58797 0.97666 0.0
C1176 C 0.4076 0.592 0.95611 0.0
C1177 C 0.37284 0.57181 0.98709 0.0
C1178 C 0.39148 0.57481 0.94313 0.0
C1179 C 0.38642 0.58122 0.92555 0.0
C1180 C 0.39736 0.60498 0.92063 0.0
C1181 C 0.41335 0.62217 0.93381 0.0
C1182 C 0.41854 0.6157 0.95134 0.0
H1183 H 0.36395 0.5681 0.00099 0.0
H1184 H 0.37365 0.58778 0.98123 0.0
H1185 H 0.36184 0.55689 0.97708 0.0
H1186 H 0.38309 0.5564 0.94649 0.0
H1187 H 0.37402 0.56751 0.91578 0.0
H1188 H 0.94229 0.47092 0.23158 0.0
H1189 H 0.91418 0.45774 0.20458 0.0
H1190 H 0.85607 0.42547 0.24289 0.0
H1191 H 0.88415 0.43884 0.27014 0.0
H1192 H 0.8519 0.39657 0.21144 0.0
H1193 H 0.87194 0.48475 0.18866 0.0
H1194 H 0.89782 0.48191 0.19124 0.0
H1195 H 0.88082 0.47973 0.2118 0.0
C1196 C 0.92354 0.46129 0.23433 0.0
C1197 C 0.91549 0.45614 0.25306 0.0
C1198 C 0.90749 0.45376 0.21886 0.0
C1199 C 0.88304 0.441 0.22175 0.0
C1200 C 0.87488 0.43543 0.24037 0.0
H1201 H 0.78313 0.41547 0.12698 0.0
H1202 H 0.8027 0.42569 0.15853 0.0
C1203 C 0.89095 0.44298 0.2559 0.0
C1204 C 0.86615 0.43307 0.20522 0.0
H1205 H 0.85051 0.45306 0.16615 0.0
C1206 C 0.85138 0.4089 0.20164 0.0
C1207 C 0.8652 0.44919 0.19263 0.0
C1208 C 0.87961 0.47535 0.19634 0.0
C1209 C 0.83647 0.40041 0.1853 0.0
C1210 C 0.83662 0.41654 0.17212 0.0
C1211 C 0.85058 0.4407 0.17616 0.0
C1212 C 0.82338 0.4088 0.15358 0.0
C1213 C 0.82079 0.37426 0.18229 0.0
C1214 C 0.82853 0.39594 0.14033 0.0
C1215 C 0.81741 0.39007 0.12232 0.0
C1216 C 0.80099 0.39709 0.11708 0.0
C1217 C 0.79563 0.40973 0.13051 0.0
C1218 C 0.80681 0.41561 0.14855 0.0
H1219 H 0.81725 0.36496 0.19597 0.0
H1220 H 0.80363 0.36991 0.17531 0.0
H1221 H 0.82979 0.36756 0.17297 0.0
H1222 H 0.84165 0.39096 0.14373 0.0
H1223 H 0.82207 0.3804 0.11237 0.0
loop_
_geom_bond_atom_site_label_1
_geom_bond_atom_site_label_2
_geom_bond_distance
_geom_bond_site_symmetry_2
_ccdc_geom_bond_type
C0 C1 1.384 . S
C0 C2 1.384 . S
C0 H28 0.931 . S
C1 C0 1.384 . S
C1 C4 1.382 . S
C2 C0 1.384 . S
C2 C3 1.381 . S
C2 H29 0.930 . S
C3 C2 1.381 . S
C3 C5 1.381 . S
C3 C6 1.487 . S
C4 C1 1.382 . S
C4 C5 1.387 . S
C4 H30 0.930 . S
C5 C3 1.381 . S
C5 C4 1.387 . S
C5 H31 0.931 . S
C6 C3 1.487 . S
C6 C13 1.399 . S
C6 N44 1.343 . S
C7 C8 1.384 . S
C7 C9 1.384 . S
C7 H32 0.931 . S
C8 C7 1.384 . S
C8 C11 1.382 . S
C9 C7 1.384 . S
C9 C10 1.381 . S
C9 H33 0.930 . S
C10 C9 1.381 . S
C10 C12 1.381 . S
C10 C13 1.487 . S
C11 C8 1.382 . S
C11 C12 1.387 . S
C11 H34 0.930 . S
C12 C10 1.381 . S
C12 C11 1.387 . S
C12 H35 0.931 . S
C13 C6 1.399 . S
C13 C10 1.487 . S
C13 N45 1.343 1_655 S
C14 C15 1.384 . S
C14 C16 1.384 . S
C14 H36 0.931 . S
C15 C14 1.384 . S
C15 C18 1.382 . S
C16 C14 1.384 . S
C16 C17 1.381 . S
C16 H37 0.930 . S
C17 C16 1.381 . S
C17 C19 1.381 . S
C17 C20 1.487 . S
C18 C15 1.382 . S
C18 C19 1.387 . S
C18 H38 0.930 . S
C19 C17 1.381 . S
C19 C18 1.387 . S
C19 H39 0.931 . S
C20 C17 1.487 . S
C20 C27 1.399 . S
C20 N45 1.343 . S
C21 C22 1.384 . S
C21 C23 1.384 . S
C21 H40 0.931 . S
C22 C21 1.384 . S
C22 C25 1.382 . S
C23 C21 1.384 . S
C23 C24 1.381 . S
C23 H41 0.930 . S
C24 C23 1.381 . S
C24 C26 1.381 . S
C24 C27 1.487 . S
C25 C22 1.382 . S
C25 C26 1.387 . S
C25 H42 0.930 . S
C26 C24 1.381 . S
C26 C25 1.387 . S
C26 H43 0.931 . S
C27 C20 1.399 . S
C27 C24 1.487 . S
C27 N44 1.343 1_455 S
H28 C0 0.931 . S
H29 C2 0.930 . S
H30 C4 0.930 . S
H31 C5 0.931 . S
H32 C7 0.931 . S
H33 C9 0.930 . S
H34 C11 0.930 . S
H35 C12 0.931 . S
H36 C14 0.931 . S
H37 C16 0.930 . S
H38 C18 0.930 . S
H39 C19 0.931 . S
H40 C21 0.931 . S
H41 C23 0.930 . S
H42 C25 0.930 . S
H43 C26 0.931 . S
N44 C6 1.343 . S
N44 C27 1.343 1_655 S
N45 C13 1.343 1_455 S
N45 C20 1.343 . S
C46 C47 1.384 . S
C46 C48 1.384 . S
C46 H74 0.931 . S
C47 C46 1.384 . S
C47 C50 1.382 . S
C48 C46 1.384 . S
C48 C49 1.381 . S
C48 H75 0.930 . S
C49 C48 1.381 . S
C49 C51 1.381 . S
C49 C52 1.487 . S
C50 C47 1.382 . S
C50 C51 1.387 . S
C50 H76 0.930 . S
C51 C49 1.381 . S
C51 C50 1.387 . S
C51 H77 0.931 . S
C52 C49 1.487 . S
C52 C59 1.399 . S
C52 N90 1.343 1_565 S
C53 C54 1.384 . S
C53 C55 1.384 . S
C53 H78 0.931 . S
C54 C53 1.384 . S
C54 C57 1.382 . S
C55 C53 1.384 . S
C55 C56 1.381 . S
C55 H79 0.930 . S
C56 C55 1.381 . S
C56 C58 1.381 . S
C56 C59 1.487 . S
C57 C54 1.382 . S
C57 C58 1.387 . S
C57 H80 0.930 . S
C58 C56 1.381 . S
C58 C57 1.387 . S
C58 H81 0.931 . S
C59 C52 1.399 . S
C59 C56 1.487 . S
C59 N91 1.343 1_565 S
C60 C61 1.384 . S
C60 C62 1.384 . S
C60 H82 0.931 . S
C61 C60 1.384 . S
C61 C64 1.382 . S
C62 C60 1.384 . S
C62 C63 1.381 . S
C62 H83 0.930 . S
C63 C62 1.381 . S
C63 C65 1.381 . S
C63 C66 1.487 . S
C64 C61 1.382 . S
C64 C65 1.387 . S
C64 H84 0.930 . S
C65 C63 1.381 . S
C65 C64 1.387 . S
C65 H85 0.931 . S
C66 C63 1.487 . S
C66 C73 1.399 . S
C66 N91 1.343 . S
C67 C68 1.384 . S
C67 C69 1.384 . S
C67 H86 0.931 . S
C68 C67 1.384 . S
C68 C71 1.382 . S
C69 C67 1.384 . S
C69 C70 1.381 . S
C69 H87 0.930 . S
C70 C69 1.381 . S
C70 C72 1.381 . S
C70 C73 1.487 . S
C71 C68 1.382 . S
C71 C72 1.387 . S
C71 H88 0.930 . S
C72 C70 1.381 . S
C72 C71 1.387 . S
C72 H89 0.931 . S
C73 C66 1.399 . S
C73 C70 1.487 . S
C73 N90 1.343 . S
H74 C46 0.931 . S
H75 C48 0.930 . S
H76 C50 0.930 . S
H77 C51 0.931 . S
H78 C53 0.931 . S
H79 C55 0.930 . S
H80 C57 0.930 . S
H81 C58 0.931 . S
H82 C60 0.931 . S
H83 C62 0.930 . S
H84 C64 0.930 . S
H85 C65 0.931 . S
H86 C67 0.931 . S
H87 C69 0.930 . S
H88 C71 0.930 . S
H89 C72 0.931 . S
N90 C52 1.343 1_545 S
N90 C73 1.343 . S
N91 C59 1.343 1_545 S
N91 C66 1.343 . S
C92 C93 1.384 . S
C92 C94 1.384 . S
C92 H120 0.931 . S
C93 C92 1.384 . S
C93 C96 1.382 . S
C94 C92 1.384 . S
C94 C95 1.381 . S
C94 H121 0.930 . S
C95 C94 1.381 . S
C95 C97 1.381 . S
C95 C98 1.487 . S
C96 C93 1.382 . S
C96 C97 1.387 . S
C96 H122 0.930 . S
C97 C95 1.381 . S
C97 C96 1.387 . S
C97 H123 0.931 . S
C98 C95 1.487 . S
C98 C105 1.399 . S
C98 N136 1.343 . S
C99 C100 1.384 . S
C99 C101 1.384 . S
C99 H124 0.931 . S
C100 C99 1.384 . S
C100 C103 1.382 . S
C101 C99 1.384 . S
C101 C102 1.381 . S
C101 H125 0.930 . S
C102 C101 1.381 . S
C102 C104 1.381 . S
C102 C105 1.487 . S
C103 C100 1.382 . S
C103 C104 1.387 . S
C103 H126 0.930 . S
C104 C102 1.381 . S
C104 C103 1.387 . S
C104 H127 0.931 . S
C105 C98 1.399 . S
C105 C102 1.487 . S
C105 N137 1.343 . S
C106 C107 1.384 . S
C106 C108 1.384 . S
C106 H128 0.931 . S
C107 C106 1.384 . S
C107 C110 1.382 . S
C108 C106 1.384 . S
C108 C109 1.381 . S
C108 H129 0.930 . S
C109 C108 1.381 . S
C109 C111 1.381 . S
C109 C112 1.487 . S
C110 C107 1.382 . S
C110 C111 1.387 . S
C110 H130 0.930 . S
C111 C109 1.381 . S
C111 C110 1.387 . S
C111 H131 0.931 . S
C112 C109 1.487 . S
C112 C119 1.399 . S
C112 N137 1.343 . S
C113 C114 1.384 . S
C113 C115 1.384 . S
C113 H132 0.931 . S
C114 C113 1.384 . S
C114 C117 1.382 . S
C115 C113 1.384 . S
C115 C116 1.381 . S
C115 H133 0.930 . S
C116 C115 1.381 . S
C116 C118 1.381 . S
C116 C119 1.487 . S
C117 C114 1.382 . S
C117 C118 1.387 . S
C117 H134 0.930 . S
C118 C116 1.381 . S
C118 C117 1.387 . S
C118 H135 0.931 . S
C119 C112 1.399 . S
C119 C116 1.487 . S
C119 N136 1.343 . S
H120 C92 0.931 . S
H121 C94 0.930 . S
H122 C96 0.930 . S
H123 C97 0.931 . S
H124 C99 0.931 . S
H125 C101 0.930 . S
H126 C103 0.930 . S
H127 C104 0.931 . S
H128 C106 0.931 . S
H129 C108 0.930 . S
H130 C110 0.930 . S
H131 C111 0.931 . S
H132 C113 0.931 . S
H133 C115 0.930 . S
H134 C117 0.930 . S
H135 C118 0.931 . S
N136 C98 1.343 . S
N136 C119 1.343 . S
N137 C105 1.343 . S
N137 C112 1.343 . S
C138 C139 1.384 . S
C138 C140 1.384 . S
C138 H166 0.931 . S
C139 C138 1.384 . S
C139 C142 1.382 . S
C140 C138 1.384 . S
C140 C141 1.381 . S
C140 H167 0.930 . S
C141 C140 1.381 . S
C141 C143 1.381 . S
C141 C144 1.487 . S
C142 C139 1.382 . S
C142 C143 1.387 . S
C142 H168 0.930 . S
C143 C141 1.381 . S
C143 C142 1.387 . S
C143 H169 0.931 . S
C144 C141 1.487 . S
C144 C151 1.399 . S
C144 N182 1.318 1_655 S
C145 C146 1.384 . S
C145 C147 1.384 . S
C145 H170 0.931 . S
C146 C145 1.384 . S
C146 C149 1.382 . S
C147 C145 1.384 . S
C147 C148 1.381 . S
C147 H171 0.930 . S
C148 C147 1.381 . S
C148 C150 1.381 . S
C148 C151 1.487 . S
C149 C146 1.382 . S
C149 C150 1.387 . S
C149 H172 0.930 . S
C150 C148 1.381 . S
C150 C149 1.387 . S
C150 H173 0.931 . S
C151 C144 1.399 . S
C151 C148 1.487 . S
C151 N183 1.343 1_655 S
C152 C153 1.384 . S
C152 C154 1.384 . S
C152 H174 0.931 . S
C153 C152 1.384 . S
C153 C156 1.382 . S
C154 C152 1.384 . S
C154 C155 1.381 . S
C154 H175 0.930 . S
C155 C154 1.381 . S
C155 C157 1.381 . S
C155 C158 1.487 . S
C156 C153 1.382 . S
C156 C157 1.387 . S
C156 H176 0.930 . S
C157 C155 1.381 . S
C157 C156 1.387 . S
C157 H177 0.931 . S
C158 C155 1.487 . S
C158 C165 1.399 . S
C158 N183 1.343 . S
C159 C160 1.384 . S
C159 C161 1.384 . S
C159 H178 0.931 . S
C160 C159 1.384 . S
C160 C163 1.382 . S
C161 C159 1.384 . S
C161 C162 1.381 . S
C161 H179 0.930 . S
C162 C161 1.381 . S
C162 C164 1.381 . S
C162 C165 1.487 . S
C163 C160 1.382 . S
C163 C164 1.387 . S
C163 H180 0.930 . S
C164 C162 1.381 . S
C164 C163 1.387 . S
C164 H181 0.931 . S
C165 C158 1.399 . S
C165 C162 1.487 . S
C165 N182 1.385 . S
H166 C138 0.931 . S
H167 C140 0.930 . S
H168 C142 0.930 . S
H169 C143 0.931 . S
H170 C145 0.931 . S
H171 C147 0.930 . S
H172 C149 0.930 . S
H173 C150 0.931 . S
H174 C152 0.931 . S
H175 C154 0.930 . S
H176 C156 0.930 . S
H177 C157 0.931 . S
H178 C159 0.931 . S
H179 C161 0.930 . S
H180 C163 0.930 . S
H181 C164 0.931 . S
N182 C144 1.318 1_455 S
N182 C165 1.385 . S
N183 C151 1.343 1_455 S
N183 C158 1.343 . S
C184 C185 1.384 . S
C184 C186 1.384 . S
C184 H212 0.931 . S
C185 C184 1.384 . S
C185 C188 1.382 . S
C186 C184 1.384 . S
C186 C187 1.381 . S
C186 H213 0.959 . S
C187 C186 1.381 . S
C187 C189 1.381 . S
C187 C190 1.487 . S
C188 C185 1.382 . S
C188 C189 1.387 . S
C188 H214 0.930 . S
C189 C187 1.381 . S
C189 C188 1.387 . S
C189 H215 0.931 . S
C190 C187 1.487 . S
C190 C197 1.399 1_566 S
C190 N228 1.343 1_565 S
C191 C192 1.384 . S
C191 C193 1.384 . S
C191 H216 0.931 . S
C192 C191 1.384 . S
C192 C195 1.382 . S
C193 C191 1.384 . S
C193 C194 1.381 . S
C193 H217 0.930 . S
C194 C193 1.381 . S
C194 C196 1.381 . S
C194 C197 1.487 1_565 S
C195 C192 1.382 . S
C195 C196 1.387 . S
C195 H218 0.930 . S
C196 C194 1.381 . S
C196 C195 1.387 . S
C196 H219 0.931 1_565 S
C197 C190 1.399 1_544 S
C197 C194 1.487 1_545 S
C197 N229 1.343 . S
C198 C199 1.384 . S
C198 C200 1.384 1_554 S
C198 H220 0.913 1_554 S
C199 C198 1.384 . S
C199 C202 1.382 . S
C200 C198 1.384 1_556 S
C200 C201 1.381 1_556 S
C200 H221 0.930 . S
C201 C200 1.381 1_554 S
C201 C203 1.381 . S
C201 C204 1.487 1_554 S
C202 C199 1.382 . S
C202 C203 1.387 . S
C202 H222 0.930 . S
C203 C201 1.381 . S
C203 C202 1.387 . S
C203 H223 0.931 . S
C204 C201 1.487 1_556 S
C204 C211 1.399 . S
C204 N229 1.343 1_556 S
C205 C206 1.384 . S
C205 C207 1.384 . S
C205 H224 0.931 . S
C206 C205 1.384 . S
C206 C209 1.382 . S
C207 C205 1.384 . S
C207 C208 1.381 . S
C207 H225 0.930 . S
C208 C207 1.381 . S
C208 C210 1.381 . S
C208 C211 1.487 . S
C209 C206 1.382 . S
C209 C210 1.387 . S
C209 H226 0.930 . S
C210 C208 1.381 . S
C210 C209 1.387 . S
C210 H227 0.931 . S
C211 C204 1.399 . S
C211 C208 1.487 . S
C211 N228 1.343 . S
H212 C184 0.931 . S
H213 C186 0.959 . S
H214 C188 0.930 . S
H215 C189 0.931 . S
H216 C191 0.931 . S
H217 C193 0.930 . S
H218 C195 0.930 . S
H219 C196 0.931 1_545 S
H220 C198 0.913 1_556 S
H221 C200 0.930 . S
H222 C202 0.930 . S
H223 C203 0.931 . S
H224 C205 0.931 . S
H225 C207 0.930 . S
H226 C209 0.930 . S
H227 C210 0.931 . S
N228 C190 1.343 1_545 S
N228 C211 1.343 . S
N229 C197 1.343 . S
N229 C204 1.343 1_554 S
C230 C231 1.384 . S
C230 C232 1.384 . S
C230 H258 0.931 . S
C231 C230 1.384 . S
C231 C234 1.382 . S
C232 C230 1.384 . S
C232 C233 1.381 . S
C232 H259 0.930 . S
C233 C232 1.381 . S
C233 C235 1.381 . S
C233 C236 1.487 . S
C234 C231 1.382 . S
C234 C235 1.387 . S
C234 H260 0.930 . S
C235 C233 1.381 . S
C235 C234 1.387 . S
C235 H261 0.931 . S
C236 C233 1.487 . S
C236 C243 1.399 . S
C236 N274 1.343 . S
C237 C238 1.384 . S
C237 C239 1.384 . S
C237 H262 0.931 . S
C238 C237 1.384 . S
C238 C241 1.382 . S
C239 C237 1.384 . S
C239 C240 1.381 . S
C239 H263 0.930 . S
C240 C239 1.381 . S
C240 C242 1.381 . S
C240 C243 1.487 . S
C241 C238 1.382 . S
C241 C242 1.387 . S
C241 H264 0.930 . S
C242 C240 1.381 . S
C242 C241 1.387 . S
C242 H265 0.931 . S
C243 C236 1.399 . S
C243 C240 1.487 . S
C243 N275 1.343 . S
C244 C245 1.384 . S
C244 C246 1.384 . S
C244 H266 0.931 . S
C245 C244 1.384 . S
C245 C248 1.382 . S
C246 C244 1.384 . S
C246 C247 1.381 . S
C246 H267 0.930 . S
C247 C246 1.381 . S
C247 C249 1.381 . S
C247 C250 1.487 . S
C248 C245 1.382 . S
C248 C249 1.387 . S
C248 H268 0.930 . S
C249 C247 1.381 . S
C249 C248 1.387 . S
C249 H269 0.931 . S
C250 C247 1.487 . S
C250 C257 1.399 . S
C250 N275 1.343 . S
C251 C252 1.384 . S
C251 C253 1.384 . S
C251 H270 0.931 . S
C252 C251 1.384 . S
C252 C255 1.382 . S
C253 C251 1.384 . S
C253 C254 1.381 . S
C253 H271 0.930 . S
C254 C253 1.381 . S
C254 C256 1.381 . S
C254 C257 1.487 . S
C255 C252 1.382 . S
C255 C256 1.387 . S
C255 H272 0.930 . S
C256 C254 1.381 . S
C256 C255 1.387 . S
C256 H273 0.931 . S
C257 C250 1.399 . S
C257 C254 1.487 . S
C257 N274 1.343 . S
H258 C230 0.931 . S
H259 C232 0.930 . S
H260 C234 0.930 . S
H261 C235 0.931 . S
H262 C237 0.931 . S
H263 C239 0.930 . S
H264 C241 0.930 . S
H265 C242 0.931 . S
H266 C244 0.931 . S
H267 C246 0.930 . S
H268 C248 0.930 . S
H269 C249 0.931 . S
H270 C251 0.931 . S
H271 C253 0.930 . S
H272 C255 0.930 . S
H273 C256 0.931 . S
N274 C236 1.343 . S
N274 C257 1.343 . S
N275 C243 1.343 . S
N275 C250 1.343 . S
Mg276 O277 2.028 . S
Mg276 O283 1.986 . S
Mg276 O285 2.114 . S
Mg276 O286 2.251 . S
Mg276 O289 2.010 . S
O277 Mg276 2.028 . S
O277 C280 1.250 . S
O278 Mg279 2.028 . S
O278 C280 1.248 . S
Mg279 O278 2.028 . S
Mg279 O284 2.032 . S
Mg279 O286 2.079 . S
C280 O277 1.250 . S
C280 O278 1.248 . S
C281 O282 1.264 . S
C281 O289 1.249 . S
O282 C281 1.264 . S
O283 Mg276 1.986 . S
O283 C287 1.246 . S
O284 Mg279 2.032 . S
O284 C287 1.259 . S
O285 Mg276 2.114 . S
O285 C288 1.252 . S
O286 Mg276 2.251 . S
O286 Mg279 2.079 . S
O286 C288 1.273 . S
C287 O283 1.246 . S
C287 O284 1.259 . S
C288 O285 1.252 . S
C288 O286 1.273 . S
O289 Mg276 2.010 . S
O289 C281 1.249 . S
Mg290 O291 2.028 . S
Mg290 O297 1.986 . S
Mg290 O299 2.114 . S
Mg290 O300 2.251 . S
Mg290 O303 2.010 . S
O291 Mg290 2.028 . S
O291 C294 1.250 . S
O292 Mg293 2.028 . S
O292 C294 1.248 . S
Mg293 O292 2.028 . S
Mg293 O298 2.032 . S
Mg293 O300 2.079 . S
C294 O291 1.250 . S
C294 O292 1.248 . S
C295 O296 1.264 . S
C295 O303 1.249 . S
O296 C295 1.264 . S
O297 Mg290 1.986 . S
O297 C301 1.246 . S
O298 Mg293 2.032 . S
O298 C301 1.259 . S
O299 Mg290 2.114 . S
O299 C302 1.252 . S
O300 Mg290 2.251 . S
O300 Mg293 2.079 . S
O300 C302 1.273 . S
C301 O297 1.246 . S
C301 O298 1.259 . S
C302 O299 1.252 . S
C302 O300 1.273 . S
O303 Mg290 2.010 . S
O303 C295 1.249 . S
Mg304 O305 2.028 . S
Mg304 O311 1.986 . S
Mg304 O313 2.114 . S
Mg304 O314 2.251 . S
Mg304 O317 2.010 . S
O305 Mg304 2.028 . S
O305 C308 1.250 . S
O306 Mg307 2.028 . S
O306 C308 1.248 . S
Mg307 O306 2.028 . S
Mg307 O312 2.032 . S
Mg307 O314 2.079 . S
C308 O305 1.250 . S
C308 O306 1.248 . S
C309 O310 1.264 . S
C309 O317 1.249 . S
O310 C309 1.264 . S
O311 Mg304 1.986 . S
O311 C315 1.246 . S
O312 Mg307 2.032 . S
O312 C315 1.259 . S
O313 Mg304 2.114 . S
O313 C316 1.252 . S
O314 Mg304 2.251 . S
O314 Mg307 2.079 . S
O314 C316 1.273 . S
C315 O311 1.246 . S
C315 O312 1.259 . S
C316 O313 1.252 . S
C316 O314 1.273 . S
O317 Mg304 2.010 . S
O317 C309 1.249 . S
Mg318 O319 2.028 . S
Mg318 O325 1.986 . S
Mg318 O327 2.114 . S
Mg318 O328 2.251 . S
Mg318 O331 2.010 . S
O319 Mg318 2.028 . S
O319 C322 1.250 . S
O320 Mg321 2.028 . S
O320 C322 1.248 . S
Mg321 O320 2.028 . S
Mg321 O326 2.032 . S
Mg321 O328 2.079 . S
C322 O319 1.250 . S
C322 O320 1.248 . S
C323 O324 1.264 . S
C323 O331 1.249 . S
O324 C323 1.264 . S
O325 Mg318 1.986 . S
O325 C329 1.246 . S
O326 Mg321 2.032 . S
O326 C329 1.259 . S
O327 Mg318 2.114 . S
O327 C330 1.252 . S
O328 Mg318 2.251 . S
O328 Mg321 2.079 . S
O328 C330 1.273 . S
C329 O325 1.246 . S
C329 O326 1.259 . S
C330 O327 1.252 . S
C330 O328 1.273 . S
O331 Mg318 2.010 . S
O331 C323 1.249 . S
Mg332 O333 2.028 . S
Mg332 O339 1.986 . S
Mg332 O341 2.114 . S
Mg332 O342 2.251 . S
Mg332 O345 2.010 . S
O333 Mg332 2.028 . S
O333 C336 1.250 . S
O334 Mg335 2.028 . S
O334 C336 1.248 . S
Mg335 O334 2.028 . S
Mg335 O340 2.032 . S
Mg335 O342 2.079 . S
C336 O333 1.250 . S
C336 O334 1.248 . S
C337 O338 1.264 . S
C337 O345 1.249 . S
O338 C337 1.264 . S
O339 Mg332 1.986 . S
O339 C343 1.246 . S
O340 Mg335 2.032 . S
O340 C343 1.259 . S
O341 Mg332 2.114 . S
O341 C344 1.252 . S
O342 Mg332 2.251 . S
O342 Mg335 2.079 . S
O342 C344 1.273 . S
C343 O339 1.246 . S
C343 O340 1.259 . S
C344 O341 1.252 . S
C344 O342 1.273 . S
O345 Mg332 2.010 . S
O345 C337 1.249 . S
Mg346 O347 2.028 . S
Mg346 O353 1.986 . S
Mg346 O355 2.114 . S
Mg346 O356 2.251 . S
Mg346 O359 2.010 . S
O347 Mg346 2.028 . S
O347 C350 1.250 . S
O348 Mg349 2.028 . S
O348 C350 1.248 . S
Mg349 O348 2.028 . S
Mg349 O354 2.032 . S
Mg349 O356 2.079 . S
C350 O347 1.250 . S
C350 O348 1.248 . S
C351 O352 1.264 . S
C351 O359 1.249 . S
O352 C351 1.264 . S
O353 Mg346 1.986 . S
O353 C357 1.246 . S
O354 Mg349 2.032 . S
O354 C357 1.259 . S
O355 Mg346 2.114 . S
O355 C358 1.252 . S
O356 Mg346 2.251 . S
O356 Mg349 2.079 . S
O356 C358 1.273 . S
C357 O353 1.246 . S
C357 O354 1.259 . S
C358 O355 1.252 . S
C358 O356 1.273 . S
O359 Mg346 2.010 . S
O359 C351 1.249 . S
H360 C368 0.929 . S
H361 C370 0.930 . S
H362 C372 0.930 . S
H363 C375 0.929 . S
H364 C378 0.930 . S
H365 C380 0.960 . S
H366 C380 0.960 . S
H367 C380 0.960 . S
C368 H360 0.929 . S
C368 C369 1.377 . S
C368 C370 1.384 . S
C369 C368 1.377 . S
C369 C375 1.390 . S
C370 H361 0.930 . S
C370 C368 1.384 . S
C370 C371 1.372 . S
C371 C370 1.372 . S
C371 C372 1.400 . S
C371 C376 1.490 . S
C372 H362 0.930 . S
C372 C371 1.400 . S
C372 C375 1.386 . S
H373 C389 0.930 . S
H374 C390 0.931 . S
C375 H363 0.929 . S
C375 C369 1.390 . S
C375 C372 1.386 . S
C376 C371 1.490 . S
C376 C378 1.395 . S
C376 C379 1.403 . S
H377 C383 0.930 . S
C378 H364 0.930 . S
C378 C376 1.395 . S
C378 C381 1.403 . S
C379 C376 1.403 . S
C379 C380 1.524 . S
C379 C383 1.400 . S
C380 H365 0.960 . S
C380 H366 0.960 . S
C380 H367 0.960 . S
C380 C379 1.524 . S
C381 C378 1.403 . S
C381 C382 1.392 . S
C381 C385 1.495 . S
C382 C381 1.392 . S
C382 C383 1.385 . S
C382 C384 1.478 . S
C383 H377 0.930 . S
C383 C379 1.400 . S
C383 C382 1.385 . S
C384 C382 1.478 . S
C384 C386 1.381 . S
C384 C390 1.383 . S
C385 C381 1.495 . S
C385 H391 0.959 . S
C385 H392 0.961 . S
C385 H393 0.960 . S
C386 C384 1.381 . S
C386 C387 1.394 . S
C386 H394 0.930 . S
C387 C386 1.394 . S
C387 C388 1.383 . S
C387 H395 0.929 . S
C388 C387 1.383 . S
C388 C389 1.377 . S
C389 H373 0.930 . S
C389 C388 1.377 . S
C389 C390 1.379 . S
C390 H374 0.931 . S
C390 C384 1.383 . S
C390 C389 1.379 . S
H391 C385 0.959 . S
H392 C385 0.961 . S
H393 C385 0.960 . S
H394 C386 0.930 . S
H395 C387 0.929 . S
H396 C404 0.929 . S
H397 C406 0.930 . S
H398 C408 0.930 . S
H399 C411 0.929 . S
H400 C414 0.930 . S
H401 C416 0.960 . S
H402 C416 0.960 . S
H403 C416 0.960 . S
C404 H396 0.929 . S
C404 C405 1.377 . S
C404 C406 1.384 . S
C405 C404 1.377 . S
C405 C411 1.390 . S
C406 H397 0.930 . S
C406 C404 1.384 . S
C406 C407 1.372 . S
C407 C406 1.372 . S
C407 C408 1.400 . S
C407 C412 1.490 . S
C408 H398 0.930 . S
C408 C407 1.400 . S
C408 C411 1.386 . S
H409 C425 0.930 . S
H410 C426 0.931 . S
C411 H399 0.929 . S
C411 C405 1.390 . S
C411 C408 1.386 . S
C412 C407 1.490 . S
C412 C414 1.395 . S
C412 C415 1.403 . S
H413 C419 0.930 . S
C414 H400 0.930 . S
C414 C412 1.395 . S
C414 C417 1.403 . S
C415 C412 1.403 . S
C415 C416 1.524 . S
C415 C419 1.400 . S
C416 H401 0.960 . S
C416 H402 0.960 . S
C416 H403 0.960 . S
C416 C415 1.524 . S
C417 C414 1.403 . S
C417 C418 1.392 . S
C417 C421 1.495 . S
C418 C417 1.392 . S
C418 C419 1.385 . S
C418 C420 1.478 . S
C419 H413 0.930 . S
C419 C415 1.400 . S
C419 C418 1.385 . S
C420 C418 1.478 . S
C420 C422 1.381 . S
C420 C426 1.383 . S
C421 C417 1.495 . S
C421 H427 0.959 . S
C421 H428 0.961 . S
C421 H429 0.960 . S
C422 C420 1.381 . S
C422 C423 1.394 . S
C422 H430 0.930 . S
C423 C422 1.394 . S
C423 C424 1.383 . S
C423 H431 0.929 . S
C424 C423 1.383 . S
C424 C425 1.377 . S
C425 H409 0.930 . S
C425 C424 1.377 . S
C425 C426 1.379 . S
C426 H410 0.931 . S
C426 C420 1.383 . S
C426 C425 1.379 . S
H427 C421 0.959 . S
H428 C421 0.961 . S
H429 C421 0.960 . S
H430 C422 0.930 . S
H431 C423 0.929 . S
H432 C440 0.929 . S
H433 C442 0.930 . S
H434 C444 0.930 . S
H435 C447 0.929 . S
H436 C450 0.930 . S
H437 C452 0.960 . S
H438 C452 0.960 . S
H439 C452 0.960 . S
C440 H432 0.929 . S
C440 C441 1.377 . S
C440 C442 1.384 . S
C441 C440 1.377 . S
C441 C447 1.390 . S
C442 H433 0.930 . S
C442 C440 1.384 . S
C442 C443 1.372 . S
C443 C442 1.372 . S
C443 C444 1.400 . S
C443 C448 1.490 . S
C444 H434 0.930 . S
C444 C443 1.400 . S
C444 C447 1.386 . S
H445 C461 0.930 . S
H446 C462 0.931 . S
C447 H435 0.929 . S
C447 C441 1.390 . S
C447 C444 1.386 . S
C448 C443 1.490 . S
C448 C450 1.395 . S
C448 C451 1.403 . S
H449 C455 0.930 . S
C450 H436 0.930 . S
C450 C448 1.395 . S
C450 C453 1.403 . S
C451 C448 1.403 . S
C451 C452 1.524 . S
C451 C455 1.400 . S
C452 H437 0.960 . S
C452 H438 0.960 . S
C452 H439 0.960 . S
C452 C451 1.524 . S
C453 C450 1.403 . S
C453 C454 1.392 . S
C453 C457 1.495 . S
C454 C453 1.392 . S
C454 C455 1.385 . S
C454 C456 1.478 . S
C455 H449 0.930 . S
C455 C451 1.400 . S
C455 C454 1.385 . S
C456 C454 1.478 . S
C456 C458 1.381 . S
C456 C462 1.383 . S
C457 C453 1.495 . S
C457 H463 0.959 . S
C457 H464 0.961 . S
C457 H465 0.960 . S
C458 C456 1.381 . S
C458 C459 1.394 . S
C458 H466 0.930 . S
C459 C458 1.394 . S
C459 C460 1.383 . S
C459 H467 0.929 . S
C460 C459 1.383 . S
C460 C461 1.377 . S
C461 H445 0.930 . S
C461 C460 1.377 . S
C461 C462 1.379 . S
C462 H446 0.931 . S
C462 C456 1.383 . S
C462 C461 1.379 . S
H463 C457 0.959 . S
H464 C457 0.961 . S
H465 C457 0.960 . S
H466 C458 0.930 . S
H467 C459 0.929 . S
H468 C476 0.929 . S
H469 C478 0.930 . S
H470 C480 0.930 . S
H471 C483 0.929 . S
H472 C486 0.930 . S
H473 C488 0.960 . S
H474 C488 0.960 . S
H475 C488 0.960 . S
C476 H468 0.929 . S
C476 C477 1.377 . S
C476 C478 1.384 . S
C477 C476 1.377 . S
C477 C483 1.390 . S
C478 H469 0.930 . S
C478 C476 1.384 . S
C478 C479 1.372 . S
C479 C478 1.372 . S
C479 C480 1.400 . S
C479 C484 1.490 . S
C480 H470 0.930 . S
C480 C479 1.400 . S
C480 C483 1.386 . S
H481 C497 0.930 . S
H482 C498 0.931 . S
C483 H471 0.929 . S
C483 C477 1.390 . S
C483 C480 1.386 . S
C484 C479 1.490 . S
C484 C486 1.395 . S
C484 C487 1.403 . S
H485 C491 0.930 . S
C486 H472 0.930 . S
C486 C484 1.395 . S
C486 C489 1.403 . S
C487 C484 1.403 . S
C487 C488 1.524 . S
C487 C491 1.400 . S
C488 H473 0.960 . S
C488 H474 0.960 . S
C488 H475 0.960 . S
C488 C487 1.524 . S
C489 C486 1.403 . S
C489 C490 1.392 . S
C489 C493 1.495 . S
C490 C489 1.392 . S
C490 C491 1.385 . S
C490 C492 1.478 . S
C491 H485 0.930 . S
C491 C487 1.400 . S
C491 C490 1.385 . S
C492 C490 1.478 . S
C492 C494 1.381 . S
C492 C498 1.383 . S
C493 C489 1.495 . S
C493 H499 0.959 . S
C493 H500 0.961 . S
C493 H501 0.960 . S
C494 C492 1.381 . S
C494 C495 1.394 . S
C494 H502 0.930 . S
C495 C494 1.394 . S
C495 C496 1.383 . S
C495 H503 0.929 . S
C496 C495 1.383 . S
C496 C497 1.377 . S
C497 H481 0.930 . S
C497 C496 1.377 . S
C497 C498 1.379 . S
C498 H482 0.931 . S
C498 C492 1.383 . S
C498 C497 1.379 . S
H499 C493 0.959 . S
H500 C493 0.961 . S
H501 C493 0.960 . S
H502 C494 0.930 . S
H503 C495 0.929 . S
H504 C512 0.929 . S
H505 C514 0.930 . S
H506 C516 0.930 . S
H507 C519 0.929 . S
H508 C522 0.930 . S
H509 C524 0.960 . S
H510 C524 0.960 . S
H511 C524 0.960 . S
C512 H504 0.929 . S
C512 C513 1.377 . S
C512 C514 1.384 . S
C513 C512 1.377 . S
C513 C519 1.390 . S
C514 H505 0.930 . S
C514 C512 1.384 . S
C514 C515 1.372 . S
C515 C514 1.372 . S
C515 C516 1.400 . S
C515 C520 1.490 . S
C516 H506 0.930 . S
C516 C515 1.400 . S
C516 C519 1.386 . S
H517 C533 0.930 . S
H518 C534 0.931 . S
C519 H507 0.929 . S
C519 C513 1.390 . S
C519 C516 1.386 . S
C520 C515 1.490 . S
C520 C522 1.395 . S
C520 C523 1.403 . S
H521 C527 0.930 . S
C522 H508 0.930 . S
C522 C520 1.395 . S
C522 C525 1.403 . S
C523 C520 1.403 . S
C523 C524 1.524 . S
C523 C527 1.400 . S
C524 H509 0.960 . S
C524 H510 0.960 . S
C524 H511 0.960 . S
C524 C523 1.524 . S
C525 C522 1.403 . S
C525 C526 1.392 . S
C525 C529 1.495 . S
C526 C525 1.392 . S
C526 C527 1.385 . S
C526 C528 1.478 . S
C527 H521 0.930 . S
C527 C523 1.400 . S
C527 C526 1.385 . S
C528 C526 1.478 . S
C528 C530 1.381 . S
C528 C534 1.383 . S
C529 C525 1.495 . S
C529 H535 0.959 . S
C529 H536 0.961 . S
C529 H537 0.960 . S
C530 C528 1.381 . S
C530 C531 1.394 . S
C530 H538 0.930 . S
C531 C530 1.394 . S
C531 C532 1.383 . S
C531 H539 0.929 . S
C532 C531 1.383 . S
C532 C533 1.377 . S
C533 H517 0.930 . S
C533 C532 1.377 . S
C533 C534 1.379 . S
C534 H518 0.931 . S
C534 C528 1.383 . S
C534 C533 1.379 . S
H535 C529 0.959 . S
H536 C529 0.961 . S
H537 C529 0.960 . S
H538 C530 0.930 . S
H539 C531 0.929 . S
H540 C548 0.929 . S
H541 C550 0.930 . S
H542 C552 0.930 . S
H543 C555 0.929 . S
H544 C558 0.930 . S
H545 C560 0.960 . S
H546 C560 0.960 . S
H547 C560 0.960 . S
C548 H540 0.929 . S
C548 C549 1.377 . S
C548 C550 1.384 . S
C549 C548 1.377 . S
C549 C555 1.390 . S
C550 H541 0.930 . S
C550 C548 1.384 . S
C550 C551 1.372 . S
C551 C550 1.372 . S
C551 C552 1.400 . S
C551 C556 1.490 . S
C552 H542 0.930 . S
C552 C551 1.400 . S
C552 C555 1.386 . S
H553 C569 0.930 . S
H554 C570 0.931 . S
C555 H543 0.929 . S
C555 C549 1.390 . S
C555 C552 1.386 . S
C556 C551 1.490 . S
C556 C558 1.395 . S
C556 C559 1.403 . S
H557 C563 0.930 . S
C558 H544 0.930 . S
C558 C556 1.395 . S
C558 C561 1.403 . S
C559 C556 1.403 . S
C559 C560 1.524 . S
C559 C563 1.400 . S
C560 H545 0.960 . S
C560 H546 0.960 . S
C560 H547 0.960 . S
C560 C559 1.524 . S
C561 C558 1.403 . S
C561 C562 1.392 . S
C561 C565 1.495 . S
C562 C561 1.392 . S
C562 C563 1.385 . S
C562 C564 1.478 . S
C563 H557 0.930 . S
C563 C559 1.400 . S
C563 C562 1.385 . S
C564 C562 1.478 . S
C564 C566 1.381 . S
C564 C570 1.383 . S
C565 C561 1.495 . S
C565 H571 0.959 . S
C565 H572 0.961 . S
C565 H573 0.960 . S
C566 C564 1.381 . S
C566 C567 1.394 . S
C566 H574 0.930 . S
C567 C566 1.394 . S
C567 C568 1.383 . S
C567 H575 0.929 . S
C568 C567 1.383 . S
C568 C569 1.377 . S
C569 H553 0.930 . S
C569 C568 1.377 . S
C569 C570 1.379 . S
C570 H554 0.931 . S
C570 C564 1.383 . S
C570 C569 1.379 . S
H571 C565 0.959 . S
H572 C565 0.961 . S
H573 C565 0.960 . S
H574 C566 0.930 . S
H575 C567 0.929 . S
H576 C584 0.929 . S
H577 C586 0.930 . S
H578 C588 0.930 . S
H579 C591 0.929 . S
H580 C594 0.930 . S
H581 C596 0.960 . S
H582 C596 0.960 . S
H583 C596 0.960 . S
C584 H576 0.929 . S
C584 C585 1.377 . S
C584 C586 1.384 . S
C585 C584 1.377 . S
C585 C591 1.390 . S
C586 H577 0.930 . S
C586 C584 1.384 . S
C586 C587 1.372 . S
C587 C586 1.372 . S
C587 C588 1.400 . S
C587 C592 1.490 . S
C588 H578 0.930 . S
C588 C587 1.400 . S
C588 C591 1.386 . S
H589 C605 0.930 . S
H590 C606 0.931 . S
C591 H579 0.929 . S
C591 C585 1.390 . S
C591 C588 1.386 . S
C592 C587 1.490 . S
C592 C594 1.395 . S
C592 C595 1.403 . S
H593 C599 0.930 . S
C594 H580 0.930 . S
C594 C592 1.395 . S
C594 C597 1.403 . S
C595 C592 1.403 . S
C595 C596 1.524 . S
C595 C599 1.400 . S
C596 H581 0.960 . S
C596 H582 0.960 . S
C596 H583 0.960 . S
C596 C595 1.524 . S
C597 C594 1.403 . S
C597 C598 1.392 . S
C597 C601 1.495 . S
C598 C597 1.392 . S
C598 C599 1.385 . S
C598 C600 1.478 . S
C599 H593 0.930 . S
C599 C595 1.400 . S
C599 C598 1.385 . S
C600 C598 1.478 . S
C600 C602 1.381 . S
C600 C606 1.383 . S
C601 C597 1.495 . S
C601 H607 0.959 . S
C601 H608 0.961 . S
C601 H609 0.960 . S
C602 C600 1.381 . S
C602 C603 1.394 . S
C602 H610 0.930 . S
C603 C602 1.394 . S
C603 C604 1.383 . S
C603 H611 0.929 . S
C604 C603 1.383 . S
C604 C605 1.377 . S
C605 H589 0.930 . S
C605 C604 1.377 . S
C605 C606 1.379 . S
C606 H590 0.931 . S
C606 C600 1.383 . S
C606 C605 1.379 . S
H607 C601 0.959 . S
H608 C601 0.961 . S
H609 C601 0.960 . S
H610 C602 0.930 . S
H611 C603 0.929 . S
H612 C620 0.929 . S
H613 C622 0.930 . S
H614 C624 0.930 . S
H615 C627 0.929 . S
H616 C630 0.930 . S
H617 C632 0.960 . S
H618 C632 0.960 . S
H619 C632 0.960 . S
C620 H612 0.929 . S
C620 C621 1.377 . S
C620 C622 1.384 . S
C621 C620 1.377 . S
C621 C627 1.390 . S
C622 H613 0.930 . S
C622 C620 1.384 . S
C622 C623 1.372 . S
C623 C622 1.372 . S
C623 C624 1.400 . S
C623 C628 1.490 . S
C624 H614 0.930 . S
C624 C623 1.400 . S
C624 C627 1.386 . S
H625 C641 0.930 . S
H626 C642 0.931 . S
C627 H615 0.929 . S
C627 C621 1.390 . S
C627 C624 1.386 . S
C628 C623 1.490 . S
C628 C630 1.395 . S
C628 C631 1.403 . S
H629 C635 0.930 . S
C630 H616 0.930 . S
C630 C628 1.395 . S
C630 C633 1.403 . S
C631 C628 1.403 . S
C631 C632 1.524 . S
C631 C635 1.400 . S
C632 H617 0.960 . S
C632 H618 0.960 . S
C632 H619 0.960 . S
C632 C631 1.524 . S
C633 C630 1.403 . S
C633 C634 1.392 . S
C633 C637 1.495 . S
C634 C633 1.392 . S
C634 C635 1.385 . S
C634 C636 1.478 . S
C635 H629 0.930 . S
C635 C631 1.400 . S
C635 C634 1.385 . S
C636 C634 1.478 . S
C636 C638 1.381 . S
C636 C642 1.383 . S
C637 C633 1.495 . S
C637 H643 0.959 . S
C637 H644 0.961 . S
C637 H645 0.960 . S
C638 C636 1.381 . S
C638 C639 1.394 . S
C638 H646 0.930 . S
C639 C638 1.394 . S
C639 C640 1.383 . S
C639 H647 0.929 . S
C640 C639 1.383 . S
C640 C641 1.377 . S
C641 H625 0.930 . S
C641 C640 1.377 . S
C641 C642 1.379 . S
C642 H626 0.931 . S
C642 C636 1.383 . S
C642 C641 1.379 . S
H643 C637 0.959 . S
H644 C637 0.961 . S
H645 C637 0.960 . S
H646 C638 0.930 . S
H647 C639 0.929 . S
H648 C656 0.929 . S
H649 C658 0.930 . S
H650 C660 0.930 . S
H651 C663 0.929 . S
H652 C666 0.930 . S
H653 C668 0.960 . S
H654 C668 0.960 . S
H655 C668 0.960 . S
C656 H648 0.929 . S
C656 C657 1.377 . S
C656 C658 1.384 . S
C657 C656 1.377 . S
C657 C663 1.390 . S
C658 H649 0.930 . S
C658 C656 1.384 . S
C658 C659 1.372 . S
C659 C658 1.372 . S
C659 C660 1.400 . S
C659 C664 1.490 . S
C660 H650 0.930 . S
C660 C659 1.400 . S
C660 C663 1.386 . S
H661 C677 0.930 . S
H662 C678 0.931 . S
C663 H651 0.929 . S
C663 C657 1.390 . S
C663 C660 1.386 . S
C664 C659 1.490 . S
C664 C666 1.395 . S
C664 C667 1.403 . S
H665 C671 0.930 . S
C666 H652 0.930 . S
C666 C664 1.395 . S
C666 C669 1.403 . S
C667 C664 1.403 . S
C667 C668 1.524 . S
C667 C671 1.400 . S
C668 H653 0.960 . S
C668 H654 0.960 . S
C668 H655 0.960 . S
C668 C667 1.524 . S
C669 C666 1.403 . S
C669 C670 1.392 . S
C669 C673 1.495 . S
C670 C669 1.392 . S
C670 C671 1.385 . S
C670 C672 1.478 . S
C671 H665 0.930 . S
C671 C667 1.400 . S
C671 C670 1.385 . S
C672 C670 1.478 . S
C672 C674 1.381 . S
C672 C678 1.383 . S
C673 C669 1.495 . S
C673 H679 0.959 . S
C673 H680 0.961 . S
C673 H681 0.960 . S
C674 C672 1.381 . S
C674 C675 1.394 . S
C674 H682 0.930 . S
C675 C674 1.394 . S
C675 C676 1.383 . S
C675 H683 0.929 . S
C676 C675 1.383 . S
C676 C677 1.377 . S
C677 H661 0.930 . S
C677 C676 1.377 . S
C677 C678 1.379 . S
C678 H662 0.931 . S
C678 C672 1.383 . S
C678 C677 1.379 . S
H679 C673 0.959 . S
H680 C673 0.961 . S
H681 C673 0.960 . S
H682 C674 0.930 . S
H683 C675 0.929 . S
H684 C692 0.929 1_556 S
H685 C694 0.930 . S
H686 C696 0.930 . S
H687 C699 0.929 . S
H688 C702 0.930 . S
H689 C704 0.960 . S
H690 C704 0.960 . S
H691 C704 0.960 . S
C692 H684 0.929 1_554 S
C692 C693 1.377 . S
C692 C694 1.384 . S
C693 C692 1.377 . S
C693 C699 1.390 . S
C694 H685 0.930 . S
C694 C692 1.384 . S
C694 C695 1.372 . S
C695 C694 1.372 . S
C695 C696 1.400 . S
C695 C700 1.490 . S
C696 H686 0.930 . S
C696 C695 1.400 . S
C696 C699 1.386 . S
H697 C713 0.930 . S
H698 C714 0.931 . S
C699 H687 0.929 . S
C699 C693 1.390 . S
C699 C696 1.386 . S
C700 C695 1.490 . S
C700 C702 1.395 . S
C700 C703 1.403 . S
H701 C707 0.930 . S
C702 H688 0.930 . S
C702 C700 1.395 . S
C702 C705 1.403 . S
C703 C700 1.403 . S
C703 C704 1.524 . S
C703 C707 1.400 . S
C704 H689 0.960 . S
C704 H690 0.960 . S
C704 H691 0.960 . S
C704 C703 1.524 . S
C705 C702 1.403 . S
C705 C706 1.392 . S
C705 C709 1.495 . S
C706 C705 1.392 . S
C706 C707 1.385 . S
C706 C708 1.478 . S
C707 H701 0.930 . S
C707 C703 1.400 . S
C707 C706 1.385 . S
C708 C706 1.478 . S
C708 C710 1.381 . S
C708 C714 1.383 . S
C709 C705 1.495 . S
C709 H715 0.959 . S
C709 H716 0.961 . S
C709 H717 0.960 . S
C710 C708 1.381 . S
C710 C711 1.394 . S
C710 H718 0.930 . S
C711 C710 1.394 . S
C711 C712 1.383 . S
C711 H719 0.929 . S
C712 C711 1.383 . S
C712 C713 1.377 . S
C713 H697 0.930 . S
C713 C712 1.377 . S
C713 C714 1.379 . S
C714 H698 0.931 . S
C714 C708 1.383 . S
C714 C713 1.379 . S
H715 C709 0.959 . S
H716 C709 0.961 . S
H717 C709 0.960 . S
H718 C710 0.930 . S
H719 C711 0.929 . S
H720 C728 0.929 . S
H721 C730 0.930 . S
H722 C732 0.930 . S
H723 C735 0.929 . S
H724 C738 0.930 . S
H725 C740 0.960 . S
H726 C740 0.960 . S
H727 C740 0.960 . S
C728 H720 0.929 . S
C728 C729 1.377 . S
C728 C730 1.384 . S
C729 C728 1.377 . S
C729 C735 1.390 . S
C730 H721 0.930 . S
C730 C728 1.384 . S
C730 C731 1.372 . S
C731 C730 1.372 . S
C731 C732 1.400 . S
C731 C736 1.490 . S
C732 H722 0.930 . S
C732 C731 1.400 . S
C732 C735 1.386 . S
H733 C749 0.930 . S
H734 C750 0.931 . S
C735 H723 0.929 . S
C735 C729 1.390 . S
C735 C732 1.386 . S
C736 C731 1.490 . S
C736 C738 1.395 . S
C736 C739 1.403 . S
H737 C743 0.930 . S
C738 H724 0.930 . S
C738 C736 1.395 . S
C738 C741 1.403 . S
C739 C736 1.403 . S
C739 C740 1.524 . S
C739 C743 1.400 . S
C740 H725 0.960 . S
C740 H726 0.960 . S
C740 H727 0.960 . S
C740 C739 1.524 . S
C741 C738 1.403 . S
C741 C742 1.392 . S
C741 C745 1.495 . S
C742 C741 1.392 . S
C742 C743 1.385 . S
C742 C744 1.478 . S
C743 H737 0.930 . S
C743 C739 1.400 . S
C743 C742 1.385 . S
C744 C742 1.478 . S
C744 C746 1.381 . S
C744 C750 1.383 . S
C745 C741 1.495 . S
C745 H751 0.959 . S
C745 H752 0.961 . S
C745 H753 0.960 . S
C746 C744 1.381 . S
C746 C747 1.394 . S
C746 H754 0.930 . S
C747 C746 1.394 . S
C747 C748 1.383 . S
C747 H755 0.929 . S
C748 C747 1.383 . S
C748 C749 1.377 . S
C749 H733 0.930 . S
C749 C748 1.377 . S
C749 C750 1.379 . S
C750 H734 0.931 . S
C750 C744 1.383 . S
C750 C749 1.379 . S
H751 C745 0.959 . S
H752 C745 0.961 . S
H753 C745 0.960 . S
H754 C746 0.930 . S
H755 C747 0.929 . S
H756 C764 0.929 . S
H757 C766 0.930 . S
H758 C768 0.930 . S
H759 C771 0.929 . S
H760 C774 0.930 . S
H761 C776 0.960 . S
H762 C776 0.960 . S
H763 C776 0.960 . S
C764 H756 0.929 . S
C764 C765 1.377 . S
C764 C766 1.384 . S
C765 C764 1.377 . S
C765 C771 1.390 . S
C766 H757 0.930 . S
C766 C764 1.384 . S
C766 C767 1.372 . S
C767 C766 1.372 . S
C767 C768 1.400 . S
C767 C772 1.490 . S
C768 H758 0.930 . S
C768 C767 1.400 . S
C768 C771 1.386 . S
H769 C785 0.930 . S
H770 C786 0.931 . S
C771 H759 0.929 . S
C771 C765 1.390 . S
C771 C768 1.386 . S
C772 C767 1.490 . S
C772 C774 1.395 . S
C772 C775 1.403 . S
H773 C779 0.930 . S
C774 H760 0.930 . S
C774 C772 1.395 . S
C774 C777 1.403 . S
C775 C772 1.403 . S
C775 C776 1.524 . S
C775 C779 1.400 . S
C776 H761 0.960 . S
C776 H762 0.960 . S
C776 H763 0.960 . S
C776 C775 1.524 . S
C777 C774 1.403 . S
C777 C778 1.392 . S
C777 C781 1.495 . S
C778 C777 1.392 . S
C778 C779 1.385 . S
C778 C780 1.478 . S
C779 H773 0.930 . S
C779 C775 1.400 . S
C779 C778 1.385 . S
C780 C778 1.478 . S
C780 C782 1.381 . S
C780 C786 1.383 . S
C781 C777 1.495 . S
C781 H787 0.959 . S
C781 H788 0.961 . S
C781 H789 0.960 . S
C782 C780 1.381 . S
C782 C783 1.394 . S
C782 H790 0.930 . S
C783 C782 1.394 . S
C783 C784 1.383 . S
C783 H791 0.929 . S
C784 C783 1.383 . S
C784 C785 1.377 . S
C785 H769 0.930 . S
C785 C784 1.377 . S
C785 C786 1.379 . S
C786 H770 0.931 . S
C786 C780 1.383 . S
C786 C785 1.379 . S
H787 C781 0.959 . S
H788 C781 0.961 . S
H789 C781 0.960 . S
H790 C782 0.930 . S
H791 C783 0.929 . S
H792 C800 0.929 . S
H793 C802 0.930 . S
H794 C804 0.930 . S
H795 C807 0.929 . S
H796 C810 0.930 . S
H797 C812 0.960 . S
H798 C812 0.960 . S
H799 C812 0.960 . S
C800 H792 0.929 . S
C800 C801 1.377 . S
C800 C802 1.384 . S
C801 C800 1.377 . S
C801 C807 1.390 . S
C802 H793 0.930 . S
C802 C800 1.384 . S
C802 C803 1.372 . S
C803 C802 1.372 . S
C803 C804 1.400 . S
C803 C808 1.490 . S
C804 H794 0.930 . S
C804 C803 1.400 . S
C804 C807 1.386 . S
H805 C821 0.930 . S
H806 C822 0.931 . S
C807 H795 0.929 . S
C807 C801 1.390 . S
C807 C804 1.386 . S
C808 C803 1.490 . S
C808 C810 1.395 . S
C808 C811 1.403 . S
H809 C815 0.930 . S
C810 H796 0.930 . S
C810 C808 1.395 . S
C810 C813 1.403 . S
C811 C808 1.403 . S
C811 C812 1.524 . S
C811 C815 1.400 . S
C812 H797 0.960 . S
C812 H798 0.960 . S
C812 H799 0.960 . S
C812 C811 1.524 . S
C813 C810 1.403 . S
C813 C814 1.392 . S
C813 C817 1.495 . S
C814 C813 1.392 . S
C814 C815 1.385 . S
C814 C816 1.478 . S
C815 H809 0.930 . S
C815 C811 1.400 . S
C815 C814 1.385 . S
C816 C814 1.478 . S
C816 C818 1.381 . S
C816 C822 1.383 . S
C817 C813 1.495 . S
C817 H823 0.959 . S
C817 H824 0.961 . S
C817 H825 0.960 . S
C818 C816 1.381 . S
C818 C819 1.394 . S
C818 H826 0.930 . S
C819 C818 1.394 . S
C819 C820 1.383 . S
C819 H827 0.929 . S
C820 C819 1.383 . S
C820 C821 1.377 . S
C821 H805 0.930 . S
C821 C820 1.377 . S
C821 C822 1.379 . S
C822 H806 0.931 . S
C822 C816 1.383 . S
C822 C821 1.379 . S
H823 C817 0.959 . S
H824 C817 0.961 . S
H825 C817 0.960 . S
H826 C818 0.930 . S
H827 C819 0.929 . S
H828 C836 0.929 . S
H829 C838 0.930 . S
H830 C840 0.930 . S
H831 C843 0.929 . S
H832 C846 0.930 . S
H833 C848 0.960 . S
H834 C848 0.960 . S
H835 C848 0.960 . S
C836 H828 0.929 . S
C836 C837 1.377 . S
C836 C838 1.384 . S
C837 C836 1.377 . S
C837 C843 1.390 . S
C838 H829 0.930 . S
C838 C836 1.384 . S
C838 C839 1.372 . S
C839 C838 1.372 . S
C839 C840 1.400 . S
C839 C844 1.490 . S
C840 H830 0.930 . S
C840 C839 1.400 . S
C840 C843 1.386 . S
H841 C857 0.930 . S
H842 C858 0.931 . S
C843 H831 0.929 . S
C843 C837 1.390 . S
C843 C840 1.386 . S
C844 C839 1.490 . S
C844 C846 1.395 . S
C844 C847 1.403 . S
H845 C851 0.930 . S
C846 H832 0.930 . S
C846 C844 1.395 . S
C846 C849 1.403 . S
C847 C844 1.403 . S
C847 C848 1.524 . S
C847 C851 1.400 . S
C848 H833 0.960 . S
C848 H834 0.960 . S
C848 H835 0.960 . S
C848 C847 1.524 . S
C849 C846 1.403 . S
C849 C850 1.392 . S
C849 C853 1.495 . S
C850 C849 1.392 . S
C850 C851 1.385 . S
C850 C852 1.478 . S
C851 H845 0.930 . S
C851 C847 1.400 . S
C851 C850 1.385 . S
C852 C850 1.478 . S
C852 C854 1.381 . S
C852 C858 1.383 . S
C853 C849 1.495 . S
C853 H859 0.959 . S
C853 H860 0.961 . S
C853 H861 0.960 . S
C854 C852 1.381 . S
C854 C855 1.394 . S
C854 H862 0.930 . S
C855 C854 1.394 . S
C855 C856 1.383 . S
C855 H863 0.929 . S
C856 C855 1.383 . S
C856 C857 1.377 . S
C857 H841 0.930 . S
C857 C856 1.377 . S
C857 C858 1.379 . S
C858 H842 0.931 . S
C858 C852 1.383 . S
C858 C857 1.379 . S
H859 C853 0.959 . S
H860 C853 0.961 . S
H861 C853 0.960 . S
H862 C854 0.930 . S
H863 C855 0.929 . S
H864 C872 0.929 . S
H865 C874 0.930 . S
H866 C876 0.930 . S
H867 C879 0.929 . S
H868 C882 0.930 . S
H869 C884 0.960 . S
H870 C884 0.960 . S
H871 C884 0.960 . S
C872 H864 0.929 . S
C872 C873 1.377 . S
C872 C874 1.384 . S
C873 C872 1.377 . S
C873 C879 1.390 . S
C874 H865 0.930 . S
C874 C872 1.384 . S
C874 C875 1.372 . S
C875 C874 1.372 . S
C875 C876 1.400 . S
C875 C880 1.490 . S
C876 H866 0.930 . S
C876 C875 1.400 . S
C876 C879 1.386 . S
H877 C893 0.930 . S
H878 C894 0.931 . S
C879 H867 0.929 . S
C879 C873 1.390 . S
C879 C876 1.386 . S
C880 C875 1.490 . S
C880 C882 1.395 . S
C880 C883 1.403 . S
H881 C887 0.930 . S
C882 H868 0.930 . S
C882 C880 1.395 . S
C882 C885 1.403 . S
C883 C880 1.403 . S
C883 C884 1.524 . S
C883 C887 1.400 . S
C884 H869 0.960 . S
C884 H870 0.960 . S
C884 H871 0.960 . S
C884 C883 1.524 . S
C885 C882 1.403 . S
C885 C886 1.392 . S
C885 C889 1.495 . S
C886 C885 1.392 . S
C886 C887 1.385 . S
C886 C888 1.478 . S
C887 H881 0.930 . S
C887 C883 1.400 . S
C887 C886 1.385 . S
C888 C886 1.478 . S
C888 C890 1.381 . S
C888 C894 1.383 . S
C889 C885 1.495 . S
C889 H895 0.959 . S
C889 H896 0.961 . S
C889 H897 0.960 . S
C890 C888 1.381 . S
C890 C891 1.394 . S
C890 H898 0.930 . S
C891 C890 1.394 . S
C891 C892 1.383 . S
C891 H899 0.929 . S
C892 C891 1.383 . S
C892 C893 1.377 . S
C893 H877 0.930 . S
C893 C892 1.377 . S
C893 C894 1.379 . S
C894 H878 0.931 . S
C894 C888 1.383 . S
C894 C893 1.379 . S
H895 C889 0.959 . S
H896 C889 0.961 . S
H897 C889 0.960 . S
H898 C890 0.930 . S
H899 C891 0.929 . S
H900 C908 0.929 . S
H901 C910 0.930 . S
H902 C912 0.930 . S
H903 C915 0.929 . S
H904 C918 0.930 . S
H905 C920 0.960 . S
H906 C920 0.960 . S
H907 C920 0.960 . S
C908 H900 0.929 . S
C908 C909 1.377 . S
C908 C910 1.384 . S
C909 C908 1.377 . S
C909 C915 1.390 . S
C910 H901 0.930 . S
C910 C908 1.384 . S
C910 C911 1.372 . S
C911 C910 1.372 . S
C911 C912 1.400 . S
C911 C916 1.490 . S
C912 H902 0.930 . S
C912 C911 1.400 . S
C912 C915 1.386 . S
H913 C929 0.930 . S
H914 C930 0.931 . S
C915 H903 0.929 . S
C915 C909 1.390 . S
C915 C912 1.386 . S
C916 C911 1.490 . S
C916 C918 1.395 . S
C916 C919 1.403 . S
H917 C923 0.930 . S
C918 H904 0.930 . S
C918 C916 1.395 . S
C918 C921 1.403 . S
C919 C916 1.403 . S
C919 C920 1.524 . S
C919 C923 1.400 . S
C920 H905 0.960 . S
C920 H906 0.960 . S
C920 H907 0.960 . S
C920 C919 1.524 . S
C921 C918 1.403 . S
C921 C922 1.392 . S
C921 C925 1.495 . S
C922 C921 1.392 . S
C922 C923 1.385 . S
C922 C924 1.478 1_556 S
C923 H917 0.930 . S
C923 C919 1.400 . S
C923 C922 1.385 . S
C924 C922 1.478 1_554 S
C924 C926 1.381 . S
C924 C930 1.382 . S
C925 C921 1.495 . S
C925 H931 0.959 . S
C925 H932 0.961 1_556 S
C925 H933 0.965 . S
C926 C924 1.381 . S
C926 C927 1.394 . S
C926 H934 0.930 1_554 S
C927 C926 1.394 . S
C927 C928 1.383 . S
C927 H935 0.929 . S
C928 C927 1.383 . S
C928 C929 1.377 . S
C929 H913 0.930 . S
C929 C928 1.377 . S
C929 C930 1.379 . S
C930 H914 0.931 . S
C930 C924 1.382 . S
C930 C929 1.379 . S
H931 C925 0.959 . S
H932 C925 0.961 1_554 S
H933 C925 0.965 . S
H934 C926 0.930 1_556 S
H935 C927 0.929 . S
H936 C944 0.929 . S
H937 C946 0.930 . S
H938 C948 0.930 . S
H939 C951 0.929 . S
H940 C954 0.930 . S
H941 C956 0.960 . S
H942 C956 0.960 . S
H943 C956 0.960 . S
C944 H936 0.929 . S
C944 C945 1.377 . S
C944 C946 1.384 . S
C945 C944 1.377 . S
C945 C951 1.390 . S
C946 H937 0.930 . S
C946 C944 1.384 . S
C946 C947 1.372 . S
C947 C946 1.372 . S
C947 C948 1.400 . S
C947 C952 1.490 . S
C948 H938 0.930 . S
C948 C947 1.400 . S
C948 C951 1.386 . S
H949 C965 0.930 . S
H950 C966 0.931 . S
C951 H939 0.929 . S
C951 C945 1.390 . S
C951 C948 1.386 . S
C952 C947 1.490 . S
C952 C954 1.395 . S
C952 C955 1.403 . S
H953 C959 0.930 . S
C954 H940 0.930 . S
C954 C952 1.395 . S
C954 C957 1.403 . S
C955 C952 1.403 . S
C955 C956 1.524 . S
C955 C959 1.400 . S
C956 H941 0.960 . S
C956 H942 0.960 . S
C956 H943 0.960 . S
C956 C955 1.524 . S
C957 C954 1.403 . S
C957 C958 1.392 . S
C957 C961 1.495 . S
C958 C957 1.392 . S
C958 C959 1.385 . S
C958 C960 1.478 . S
C959 H953 0.930 . S
C959 C955 1.400 . S
C959 C958 1.385 . S
C960 C958 1.478 . S
C960 C962 1.381 . S
C960 C966 1.383 . S
C961 C957 1.495 . S
C961 H967 0.959 . S
C961 H968 0.961 . S
C961 H969 0.960 . S
C962 C960 1.381 . S
C962 C963 1.394 . S
C962 H970 0.930 . S
C963 C962 1.394 . S
C963 C964 1.383 . S
C963 H971 0.929 . S
C964 C963 1.383 . S
C964 C965 1.377 . S
C965 H949 0.930 . S
C965 C964 1.377 . S
C965 C966 1.379 . S
C966 H950 0.931 . S
C966 C960 1.383 . S
C966 C965 1.379 . S
H967 C961 0.959 . S
H968 C961 0.961 . S
H969 C961 0.960 . S
H970 C962 0.930 . S
H971 C963 0.929 . S
H972 C980 0.929 . S
H973 C982 0.930 . S
H974 C984 0.930 . S
H975 C987 0.929 . S
H976 C990 0.930 . S
H977 C992 0.960 . S
H978 C992 0.960 . S
H979 C992 0.960 . S
C980 H972 0.929 . S
C980 C981 1.377 . S
C980 C982 1.384 . S
C981 C980 1.377 . S
C981 C987 1.390 . S
C982 H973 0.930 . S
C982 C980 1.384 . S
C982 C983 1.372 . S
C983 C982 1.372 . S
C983 C984 1.400 . S
C983 C988 1.490 . S
C984 H974 0.930 . S
C984 C983 1.400 . S
C984 C987 1.386 . S
H985 C1001 0.930 . S
H986 C1002 0.931 . S
C987 H975 0.929 . S
C987 C981 1.390 . S
C987 C984 1.386 . S
C988 C983 1.490 . S
C988 C990 1.395 . S
C988 C991 1.403 . S
H989 C995 0.930 . S
C990 H976 0.930 . S
C990 C988 1.395 . S
C990 C993 1.403 . S
C991 C988 1.403 . S
C991 C992 1.524 . S
C991 C995 1.400 . S
C992 H977 0.960 . S
C992 H978 0.960 . S
C992 H979 0.960 . S
C992 C991 1.524 . S
C993 C990 1.403 . S
C993 C994 1.392 . S
C993 C997 1.495 . S
C994 C993 1.392 . S
C994 C995 1.385 . S
C994 C996 1.478 . S
C995 H989 0.930 . S
C995 C991 1.400 . S
C995 C994 1.385 . S
C996 C994 1.478 . S
C996 C998 1.381 . S
C996 C1002 1.383 . S
C997 C993 1.495 . S
C997 H1003 0.959 . S
C997 H1004 0.961 . S
C997 H1005 0.960 . S
C998 C996 1.381 . S
C998 C999 1.394 . S
C998 H1006 0.930 . S
C999 C998 1.394 . S
C999 C1000 1.383 . S
C999 H1007 0.929 . S
C1000 C999 1.383 . S
C1000 C1001 1.377 . S
C1001 H985 0.930 . S
C1001 C1000 1.377 . S
C1001 C1002 1.379 . S
C1002 H986 0.931 . S
C1002 C996 1.383 . S
C1002 C1001 1.379 . S
H1003 C997 0.959 . S
H1004 C997 0.961 . S
H1005 C997 0.960 . S
H1006 C998 0.930 . S
H1007 C999 0.929 . S
H1008 C1016 0.929 . S
H1009 C1018 0.930 . S
H1010 C1020 0.930 . S
H1011 C1023 0.929 . S
H1012 C1026 0.930 . S
H1013 C1028 0.960 . S
H1014 C1028 0.960 . S
H1015 C1028 0.960 . S
C1016 H1008 0.929 . S
C1016 C1017 1.377 . S
C1016 C1018 1.384 . S
C1017 C1016 1.377 . S
C1017 C1023 1.390 . S
C1018 H1009 0.930 . S
C1018 C1016 1.384 . S
C1018 C1019 1.372 . S
C1019 C1018 1.372 . S
C1019 C1020 1.400 . S
C1019 C1024 1.490 . S
C1020 H1010 0.930 . S
C1020 C1019 1.400 . S
C1020 C1023 1.386 . S
H1021 C1037 0.930 . S
H1022 C1038 0.931 . S
C1023 H1011 0.929 . S
C1023 C1017 1.390 . S
C1023 C1020 1.386 . S
C1024 C1019 1.490 . S
C1024 C1026 1.395 . S
C1024 C1027 1.403 . S
H1025 C1031 0.930 . S
C1026 H1012 0.930 . S
C1026 C1024 1.395 . S
C1026 C1029 1.403 . S
C1027 C1024 1.403 . S
C1027 C1028 1.524 . S
C1027 C1031 1.400 . S
C1028 H1013 0.960 . S
C1028 H1014 0.960 . S
C1028 H1015 0.960 . S
C1028 C1027 1.524 . S
C1029 C1026 1.403 . S
C1029 C1030 1.392 . S
C1029 C1033 1.495 . S
C1030 C1029 1.392 . S
C1030 C1031 1.385 . S
C1030 C1032 1.478 . S
C1031 H1025 0.930 . S
C1031 C1027 1.400 . S
C1031 C1030 1.385 . S
C1032 C1030 1.478 . S
C1032 C1034 1.381 . S
C1032 C1038 1.383 . S
C1033 C1029 1.495 . S
C1033 H1039 0.959 . S
C1033 H1040 0.961 . S
C1033 H1041 0.960 . S
C1034 C1032 1.381 . S
C1034 C1035 1.394 . S
C1034 H1042 0.930 . S
C1035 C1034 1.394 . S
C1035 C1036 1.383 . S
C1035 H1043 0.929 . S
C1036 C1035 1.383 . S
C1036 C1037 1.377 . S
C1037 H1021 0.930 . S
C1037 C1036 1.377 . S
C1037 C1038 1.379 . S
C1038 H1022 0.931 . S
C1038 C1032 1.383 . S
C1038 C1037 1.379 . S
H1039 C1033 0.959 . S
H1040 C1033 0.961 . S
H1041 C1033 0.960 . S
H1042 C1034 0.930 . S
H1043 C1035 0.929 . S
H1044 C1052 0.929 . S
H1045 C1054 0.930 . S
H1046 C1056 0.930 . S
H1047 C1059 0.929 . S
H1048 C1062 0.930 . S
H1049 C1064 0.960 . S
H1050 C1064 0.960 . S
H1051 C1064 0.960 . S
C1052 H1044 0.929 . S
C1052 C1053 1.377 . S
C1052 C1054 1.384 . S
C1053 C1052 1.377 . S
C1053 C1059 1.390 . S
C1054 H1045 0.930 . S
C1054 C1052 1.384 . S
C1054 C1055 1.372 . S
C1055 C1054 1.372 . S
C1055 C1056 1.400 . S
C1055 C1060 1.490 . S
C1056 H1046 0.930 . S
C1056 C1055 1.400 . S
C1056 C1059 1.386 . S
H1057 C1073 0.930 . S
H1058 C1074 0.931 . S
C1059 H1047 0.929 . S
C1059 C1053 1.390 . S
C1059 C1056 1.386 . S
C1060 C1055 1.490 . S
C1060 C1062 1.395 . S
C1060 C1063 1.403 . S
H1061 C1067 0.930 . S
C1062 H1048 0.930 . S
C1062 C1060 1.395 . S
C1062 C1065 1.403 . S
C1063 C1060 1.403 . S
C1063 C1064 1.524 . S
C1063 C1067 1.400 . S
C1064 H1049 0.960 . S
C1064 H1050 0.960 . S
C1064 H1051 0.960 . S
C1064 C1063 1.524 . S
C1065 C1062 1.403 . S
C1065 C1066 1.392 . S
C1065 C1069 1.495 . S
C1066 C1065 1.392 . S
C1066 C1067 1.385 . S
C1066 C1068 1.478 . S
C1067 H1061 0.930 . S
C1067 C1063 1.400 . S
C1067 C1066 1.385 . S
C1068 C1066 1.478 . S
C1068 C1070 1.381 . S
C1068 C1074 1.383 . S
C1069 C1065 1.495 . S
C1069 H1075 0.959 . S
C1069 H1076 0.961 . S
C1069 H1077 0.960 . S
C1070 C1068 1.381 . S
C1070 C1071 1.394 . S
C1070 H1078 0.930 . S
C1071 C1070 1.394 . S
C1071 C1072 1.383 . S
C1071 H1079 0.929 . S
C1072 C1071 1.383 . S
C1072 C1073 1.377 . S
C1073 H1057 0.930 . S
C1073 C1072 1.377 . S
C1073 C1074 1.379 . S
C1074 H1058 0.931 . S
C1074 C1068 1.383 . S
C1074 C1073 1.379 . S
H1075 C1069 0.959 . S
H1076 C1069 0.961 . S
H1077 C1069 0.960 . S
H1078 C1070 0.930 . S
H1079 C1071 0.929 . S
H1080 C1088 0.929 . S
H1081 C1090 0.930 . S
H1082 C1092 0.930 . S
H1083 C1095 0.929 . S
H1084 C1098 0.930 . S
H1085 C1100 0.960 . S
H1086 C1100 0.960 . S
H1087 C1100 0.960 . S
C1088 H1080 0.929 . S
C1088 C1089 1.377 . S
C1088 C1090 1.384 . S
C1089 C1088 1.377 . S
C1089 C1095 1.390 . S
C1090 H1081 0.930 . S
C1090 C1088 1.384 . S
C1090 C1091 1.372 . S
C1091 C1090 1.372 . S
C1091 C1092 1.400 . S
C1091 C1096 1.490 . S
C1092 H1082 0.930 . S
C1092 C1091 1.400 . S
C1092 C1095 1.386 . S
H1093 C1109 0.930 . S
H1094 C1110 0.931 . S
C1095 H1083 0.929 . S
C1095 C1089 1.390 . S
C1095 C1092 1.386 . S
C1096 C1091 1.490 . S
C1096 C1098 1.395 . S
C1096 C1099 1.403 . S
H1097 C1103 0.930 . S
C1098 H1084 0.930 . S
C1098 C1096 1.395 . S
C1098 C1101 1.403 . S
C1099 C1096 1.403 . S
C1099 C1100 1.524 . S
C1099 C1103 1.400 . S
C1100 H1085 0.960 . S
C1100 H1086 0.960 . S
C1100 H1087 0.960 . S
C1100 C1099 1.524 . S
C1101 C1098 1.403 . S
C1101 C1102 1.392 . S
C1101 C1105 1.495 . S
C1102 C1101 1.392 . S
C1102 C1103 1.385 . S
C1102 C1104 1.478 . S
C1103 H1097 0.930 . S
C1103 C1099 1.400 . S
C1103 C1102 1.385 . S
C1104 C1102 1.478 . S
C1104 C1106 1.381 . S
C1104 C1110 1.383 . S
C1105 C1101 1.495 . S
C1105 H1111 0.959 . S
C1105 H1112 0.961 . S
C1105 H1113 0.960 . S
C1106 C1104 1.381 . S
C1106 C1107 1.394 . S
C1106 H1114 0.930 . S
C1107 C1106 1.394 . S
C1107 C1108 1.383 . S
C1107 H1115 0.929 . S
C1108 C1107 1.383 . S
C1108 C1109 1.377 . S
C1109 H1093 0.930 . S
C1109 C1108 1.377 . S
C1109 C1110 1.379 . S
C1110 H1094 0.931 . S
C1110 C1104 1.383 . S
C1110 C1109 1.379 . S
H1111 C1105 0.959 . S
H1112 C1105 0.961 . S
H1113 C1105 0.960 . S
H1114 C1106 0.930 . S
H1115 C1107 0.929 . S
H1116 C1124 0.929 . S
H1117 C1126 0.930 . S
H1118 C1128 0.930 . S
H1119 C1131 0.929 . S
H1120 C1134 0.930 . S
H1121 C1136 0.960 . S
H1122 C1136 0.960 . S
H1123 C1136 0.960 . S
C1124 H1116 0.929 . S
C1124 C1125 1.377 . S
C1124 C1126 1.384 . S
C1125 C1124 1.377 . S
C1125 C1131 1.390 . S
C1126 H1117 0.930 . S
C1126 C1124 1.384 . S
C1126 C1127 1.372 . S
C1127 C1126 1.372 . S
C1127 C1128 1.400 . S
C1127 C1132 1.490 . S
C1128 H1118 0.930 . S
C1128 C1127 1.400 . S
C1128 C1131 1.386 . S
H1129 C1145 0.930 . S
H1130 C1146 0.931 . S
C1131 H1119 0.929 . S
C1131 C1125 1.390 . S
C1131 C1128 1.386 . S
C1132 C1127 1.490 . S
C1132 C1134 1.395 . S
C1132 C1135 1.403 . S
H1133 C1139 0.930 . S
C1134 H1120 0.930 . S
C1134 C1132 1.395 . S
C1134 C1137 1.403 . S
C1135 C1132 1.403 . S
C1135 C1136 1.524 . S
C1135 C1139 1.400 . S
C1136 H1121 0.960 . S
C1136 H1122 0.960 . S
C1136 H1123 0.960 . S
C1136 C1135 1.524 . S
C1137 C1134 1.403 . S
C1137 C1138 1.392 . S
C1137 C1141 1.495 . S
C1138 C1137 1.392 . S
C1138 C1139 1.385 . S
C1138 C1140 1.478 . S
C1139 H1133 0.930 . S
C1139 C1135 1.400 . S
C1139 C1138 1.385 . S
C1140 C1138 1.478 . S
C1140 C1142 1.381 . S
C1140 C1146 1.383 . S
C1141 C1137 1.495 . S
C1141 H1147 0.959 . S
C1141 H1148 0.961 . S
C1141 H1149 0.960 . S
C1142 C1140 1.381 . S
C1142 C1143 1.394 . S
C1142 H1150 0.930 . S
C1143 C1142 1.394 . S
C1143 C1144 1.383 . S
C1143 H1151 0.929 . S
C1144 C1143 1.383 . S
C1144 C1145 1.377 . S
C1145 H1129 0.930 . S
C1145 C1144 1.377 . S
C1145 C1146 1.379 . S
C1146 H1130 0.931 . S
C1146 C1140 1.383 . S
C1146 C1145 1.379 . S
H1147 C1141 0.959 . S
H1148 C1141 0.961 . S
H1149 C1141 0.960 . S
H1150 C1142 0.930 . S
H1151 C1143 0.929 . S
H1152 C1160 0.929 . S
H1153 C1162 0.930 . S
H1154 C1164 0.930 . S
H1155 C1167 0.929 . S
H1156 C1170 0.930 . S
H1157 C1172 0.960 1_556 S
H1158 C1172 0.960 . S
H1159 C1172 0.960 . S
C1160 H1152 0.929 . S
C1160 C1161 1.377 . S
C1160 C1162 1.384 . S
C1161 C1160 1.377 . S
C1161 C1167 1.390 . S
C1162 H1153 0.930 . S
C1162 C1160 1.384 . S
C1162 C1163 1.372 . S
C1163 C1162 1.372 . S
C1163 C1164 1.400 . S
C1163 C1168 1.490 . S
C1164 H1154 0.930 . S
C1164 C1163 1.400 . S
C1164 C1167 1.386 . S
H1165 C1181 0.930 . S
H1166 C1182 0.931 . S
C1167 H1155 0.929 . S
C1167 C1161 1.390 . S
C1167 C1164 1.386 . S
C1168 C1163 1.490 . S
C1168 C1170 1.395 . S
C1168 C1171 1.403 . S
H1169 C1175 0.930 . S
C1170 H1156 0.930 . S
C1170 C1168 1.395 . S
C1170 C1173 1.403 . S
C1171 C1168 1.403 . S
C1171 C1172 1.524 . S
C1171 C1175 1.400 1_554 S
C1172 H1157 0.960 1_554 S
C1172 H1158 0.960 . S
C1172 H1159 0.960 . S
C1172 C1171 1.524 . S
C1173 C1170 1.403 . S
C1173 C1174 1.392 1_554 S
C1173 C1177 1.495 . S
C1174 C1173 1.392 1_556 S
C1174 C1175 1.385 . S
C1174 C1176 1.478 . S
C1175 H1169 0.930 . S
C1175 C1171 1.400 1_556 S
C1175 C1174 1.385 . S
C1176 C1174 1.478 . S
C1176 C1178 1.381 . S
C1176 C1182 1.383 . S
C1177 C1173 1.495 . S
C1177 H1183 0.959 . S
C1177 H1184 0.961 . S
C1177 H1185 0.970 . S
C1178 C1176 1.381 . S
C1178 C1179 1.394 . S
C1178 H1186 0.930 . S
C1179 C1178 1.394 . S
C1179 C1180 1.383 . S
C1179 H1187 0.929 . S
C1180 C1179 1.383 . S
C1180 C1181 1.377 . S
C1181 H1165 0.930 . S
C1181 C1180 1.377 . S
C1181 C1182 1.379 . S
C1182 H1166 0.931 . S
C1182 C1176 1.383 . S
C1182 C1181 1.379 . S
H1183 C1177 0.959 . S
H1184 C1177 0.961 . S
H1185 C1177 0.970 . S
H1186 C1178 0.930 . S
H1187 C1179 0.929 . S
H1188 C1196 0.929 . S
H1189 C1198 0.930 . S
H1190 C1200 0.930 . S
H1191 C1203 0.929 . S
H1192 C1206 0.930 . S
H1193 C1208 0.960 . S
H1194 C1208 0.960 . S
H1195 C1208 0.960 . S
C1196 H1188 0.929 . S
C1196 C1197 1.377 . S
C1196 C1198 1.384 . S
C1197 C1196 1.377 . S
C1197 C1203 1.390 . S
C1198 H1189 0.930 . S
C1198 C1196 1.384 . S
C1198 C1199 1.372 . S
C1199 C1198 1.372 . S
C1199 C1200 1.400 . S
C1199 C1204 1.490 . S
C1200 H1190 0.930 . S
C1200 C1199 1.400 . S
C1200 C1203 1.386 . S
H1201 C1217 0.930 . S
H1202 C1218 0.931 . S
C1203 H1191 0.929 . S
C1203 C1197 1.390 . S
C1203 C1200 1.386 . S
C1204 C1199 1.490 . S
C1204 C1206 1.395 . S
C1204 C1207 1.403 . S
H1205 C1211 0.930 . S
C1206 H1192 0.930 . S
C1206 C1204 1.395 . S
C1206 C1209 1.403 . S
C1207 C1204 1.403 . S
C1207 C1208 1.524 . S
C1207 C1211 1.400 . S
C1208 H1193 0.960 . S
C1208 H1194 0.960 . S
C1208 H1195 0.960 . S
C1208 C1207 1.524 . S
C1209 C1206 1.403 . S
C1209 C1210 1.392 . S
C1209 C1213 1.495 . S
C1210 C1209 1.392 . S
C1210 C1211 1.385 . S
C1210 C1212 1.478 . S
C1211 H1205 0.930 . S
C1211 C1207 1.400 . S
C1211 C1210 1.385 . S
C1212 C1210 1.478 . S
C1212 C1214 1.381 . S
C1212 C1218 1.383 . S
C1213 C1209 1.495 . S
C1213 H1219 0.959 . S
C1213 H1220 0.961 . S
C1213 H1221 0.960 . S
C1214 C1212 1.381 . S
C1214 C1215 1.394 . S
C1214 H1222 0.930 . S
C1215 C1214 1.394 . S
C1215 C1216 1.383 . S
C1215 H1223 0.929 . S
C1216 C1215 1.383 . S
C1216 C1217 1.377 . S
C1217 H1201 0.930 . S
C1217 C1216 1.377 . S
C1217 C1218 1.379 . S
C1218 H1202 0.931 . S
C1218 C1212 1.383 . S
C1218 C1217 1.379 . S
H1219 C1213 0.959 . S
H1220 C1213 0.961 . S
H1221 C1213 0.960 . S
H1222 C1214 0.930 . S
H1223 C1215 0.929 . S
C388 C351 1.279 . S
C369 C15 1.469 . S
C405 C61 1.508 . S
C424 C281 1.286 . S
C441 C114 1.464 . S
C460 C301 1.475 . S
C477 C139 1.410 . S
C496 C315 1.403 . S
C532 C323 1.191 . S
C513 C185 1.457 . S
C549 C245 1.459 . S
C568 C337 1.266 . S
C585 C47 1.503 . S
C604 C295 1.276 . S
C621 C100 1.449 . S
C640 C309 1.240 . S
C657 C153 1.394 . S
C676 C329 1.402 . S
C712 C343 1.455 . S
C693 C199 1.433 . S
C748 C357 1.459 . S
C729 C231 1.447 . S
C784 C287 1.471 . S
C765 C1 1.476 . S
C801 C22 1.411 . S
C820 C294 1.370 . S
C837 C68 1.438 . S
C856 C308 1.394 . S
C892 C330 1.432 . S
C873 C107 1.430 . S
C909 C146 1.427 . S
C928 C344 1.420 . S
C964 C358 1.388 . S
C945 C192 1.394 . S
C1000 C288 1.379 . S
C981 C252 1.377 . S
C1036 C350 1.372 . S
C1017 C54 1.417 . S
C1053 C93 1.412 . S
C1072 C280 1.408 . S
C1108 C302 1.403 . S
C1089 C160 1.407 . S
C1125 C206 1.431 . S
C1144 C316 1.433 . S
C1161 C238 1.472 . S
C1180 C322 1.449 . S
C1197 C8 1.449 . S
C1216 C336 1.410 . S
