# Generated by pormake.
# Topology zzz, (3,6)-cn, num edge types: 1
# Building blocks:
#     Node 0, Type 0, BuildingBlock: MIDCAF_clean_linker_0, # of connection points: 3
#     Node 1, Type 0, BuildingBlock: MIDCAF_clean_linker_0, # of connection points: 3
#     Node 2, Type 0, BuildingBlock: MIDCAF_clean_linker_0, # of connection points: 3
#     Node 3, Type 0, BuildingBlock: MIDCAF_clean_linker_0, # of connection points: 3
#     Node 4, Type 0, BuildingBlock: MIDCAF_clean_linker_0, # of connection points: 3
#     Node 5, Type 0, BuildingBlock: MIDCAF_clean_linker_0, # of connection points: 3
#     Node 6, Type 0, BuildingBlock: MIDCAF_clean_linker_0, # of connection points: 3
#     Node 7, Type 0, BuildingBlock: MIDCAF_clean_linker_0, # of connection points: 3
#     Node 8, Type 1, BuildingBlock: KUMBOL_clean_sbu_1, # of connection points: 6
#     Node 9, Type 1, BuildingBlock: KUMBOL_clean_sbu_1, # of connection points: 6
#     Node 10, Type 1, BuildingBlock: KUMBOL_clean_sbu_1, # of connection points: 6
#     Node 11, Type 1, BuildingBlock: KUMBOL_clean_sbu_1, # of connection points: 6
#     Edge 12, Type (0, 1), BuildingBlock: ZUJKAS_clean_linker_0, # of connection points: 2
#     Edge 13, Type (0, 1), BuildingBlock: ZUJKAS_clean_linker_0, # of connection points: 2
#     Edge 14, Type (0, 1), BuildingBlock: ZUJKAS_clean_linker_0, # of connection points: 2
#     Edge 15, Type (0, 1), BuildingBlock: ZUJKAS_clean_linker_0, # of connection points: 2
#     Edge 16, Type (0, 1), BuildingBlock: ZUJKAS_clean_linker_0, # of connection points: 2
#     Edge 17, Type (0, 1), BuildingBlock: ZUJKAS_clean_linker_0, # of connection points: 2
#     Edge 18, Type (0, 1), BuildingBlock: ZUJKAS_clean_linker_0, # of connection points: 2
#     Edge 19, Type (0, 1), BuildingBlock: ZUJKAS_clean_linker_0, # of connection points: 2
#     Edge 20, Type (0, 1), BuildingBlock: ZUJKAS_clean_linker_0, # of connection points: 2
#     Edge 21, Type (0, 1), BuildingBlock: ZUJKAS_clean_linker_0, # of connection points: 2
#     Edge 22, Type (0, 1), BuildingBlock: ZUJKAS_clean_linker_0, # of connection points: 2
#     Edge 23, Type (0, 1), BuildingBlock: ZUJKAS_clean_linker_0, # of connection points: 2
#     Edge 24, Type (0, 1), BuildingBlock: ZUJKAS_clean_linker_0, # of connection points: 2
#     Edge 25, Type (0, 1), BuildingBlock: ZUJKAS_clean_linker_0, # of connection points: 2
#     Edge 26, Type (0, 1), BuildingBlock: ZUJKAS_clean_linker_0, # of connection points: 2
#     Edge 27, Type (0, 1), BuildingBlock: ZUJKAS_clean_linker_0, # of connection points: 2
#     Edge 28, Type (0, 1), BuildingBlock: ZUJKAS_clean_linker_0, # of connection points: 2
#     Edge 29, Type (0, 1), BuildingBlock: ZUJKAS_clean_linker_0, # of connection points: 2
#     Edge 30, Type (0, 1), BuildingBlock: ZUJKAS_clean_linker_0, # of connection points: 2
#     Edge 31, Type (0, 1), BuildingBlock: ZUJKAS_clean_linker_0, # of connection points: 2
#     Edge 32, Type (0, 1), BuildingBlock: ZUJKAS_clean_linker_0, # of connection points: 2
#     Edge 33, Type (0, 1), BuildingBlock: ZUJKAS_clean_linker_0, # of connection points: 2
#     Edge 34, Type (0, 1), BuildingBlock: ZUJKAS_clean_linker_0, # of connection points: 2
#     Edge 35, Type (0, 1), BuildingBlock: ZUJKAS_clean_linker_0, # of connection points: 2
# Relax obj value: 0.290
# Max RMSD: 0.212
# Mean RMSD: 0.181
data_MOF--net-zzz--node1-KUMBOL_clean_sbu_1--node2-MIDCAF_clean_linker_0--edge1-ZUJKAS_clean_linker_0
_symmetry_space_group_name_H-M    P1
_symmetry_Int_Tables_number       1
_symmetry_cell_setting            triclinic
loop_
_symmetry_equiv_pos_as_xyz
'x, y, z'
_cell_length_a     70.498404
_cell_length_b     70.484261
_cell_length_c     26.124725
_cell_angle_alpha  90.057362
_cell_angle_beta   89.90648
_cell_angle_gamma 90.524481
loop_
_atom_site_label
_atom_site_type_symbol
_atom_site_fract_x
_atom_site_fract_y
_atom_site_fract_z
_atom_type_partial_charge
C0 C 0.78076 0.55437 0.35819 0.0
C1 C 0.78959 0.53656 0.36137 0.0
C2 C 0.78165 0.52141 0.33299 0.0
C3 C 0.76633 0.52434 0.2995 0.0
H4 H 0.70479 0.51403 0.17054 0.0
H5 H 0.67639 0.50914 0.11778 0.0
H6 H 0.66852 0.56979 0.11114 0.0
H7 H 0.6966 0.57442 0.16409 0.0
H8 H 0.74536 0.55988 0.0584 0.0
H9 H 0.76849 0.5619 0.98933 0.0
H10 H 0.81299 0.57258 0.0993 0.0
H11 H 0.78991 0.57076 0.16857 0.0
H12 H 0.76032 0.57158 0.31936 0.0
H13 H 0.78647 0.56644 0.3789 0.0
H14 H 0.78786 0.50743 0.3348 0.0
H15 H 0.76167 0.51277 0.27511 0.0
N16 N 0.73009 0.54341 0.23477 0.0
N17 N 0.73428 0.5558 0.15162 0.0
N18 N 0.75993 0.55504 0.20779 0.0
C19 C 0.72274 0.54811 0.1878 0.0
C20 C 0.75285 0.55921 0.16111 0.0
C21 C 0.74885 0.5473 0.24484 0.0
C22 C 0.7027 0.54459 0.17255 0.0
C23 C 0.69645 0.52621 0.15971 0.0
C24 C 0.68036 0.52348 0.12849 0.0
C25 C 0.67013 0.53907 0.10923 0.0
C26 C 0.67575 0.55737 0.12526 0.0
C27 C 0.69184 0.56006 0.15606 0.0
C28 C 0.76585 0.56475 0.11914 0.0
C29 C 0.75997 0.56317 0.06791 0.0
C30 C 0.77322 0.56424 0.02828 0.0
C31 C 0.79255 0.56708 0.0391 0.0
C32 C 0.79817 0.5704 0.08986 0.0
C33 C 0.78495 0.56922 0.12956 0.0
C34 C 0.75852 0.54247 0.29352 0.0
C35 C 0.76557 0.5573 0.32438 0.0
C36 C 0.96797 0.78488 0.34608 0.0
C37 C 0.98589 0.78893 0.36759 0.0
C38 C 1.00097 0.77667 0.35451 0.0
C39 C 0.99858 0.76218 0.31763 0.0
H40 H 0.00956 0.70071 0.18761 0.0
H41 H 0.01336 0.67154 0.13712 0.0
H42 H 0.95539 0.67618 0.08537 0.0
H43 H 0.95168 0.7046 0.13657 0.0
H44 H 0.96517 0.74871 0.05384 0.0
H45 H 0.96008 0.7716 0.98537 0.0
H46 H 0.96558 0.81748 0.09436 0.0
H47 H 0.97015 0.79481 0.16264 0.0
H48 H 0.95191 0.76879 0.29151 0.0
H49 H 0.9559 0.7938 0.35377 0.0
H50 H 0.01492 0.77876 0.37089 0.0
H51 H 0.01084 0.75427 0.30505 0.0
N52 N 0.98193 0.7316 0.23153 0.0
N53 N 0.97449 0.7376 0.14493 0.0
N54 N 0.97503 0.76253 0.20339 0.0
C55 C 0.97915 0.72513 0.18232 0.0
C56 C 0.97255 0.75629 0.155 0.0
C57 C 0.97964 0.75058 0.24185 0.0
C58 C 0.98022 0.70482 0.16679 0.0
C59 C 0.99745 0.69495 0.16718 0.0
C60 C 0.99969 0.67841 0.13726 0.0
C61 C 0.98478 0.67141 0.10614 0.0
C62 C 0.96722 0.68074 0.10885 0.0
C63 C 0.96503 0.69713 0.13852 0.0
C64 C 0.9682 0.7699 0.11373 0.0
C65 C 0.96508 0.76367 0.06327 0.0
C66 C 0.9622 0.77677 0.024 0.0
C67 C 0.9624 0.79635 0.03442 0.0
C68 C 0.96497 0.8025 0.08511 0.0
C69 C 0.96779 0.78945 0.12428 0.0
C70 C 0.98097 0.75932 0.29362 0.0
C71 C 0.96558 0.77032 0.31009 0.0
C72 C 0.73975 0.96631 0.34616 0.0
C73 C 0.73593 0.98452 0.36568 0.0
C74 C 0.74858 0.99942 0.35217 0.0
C75 C 0.76362 0.99642 0.3174 0.0
H76 H 0.826 0.00902 0.18743 0.0
H77 H 0.85504 0.01239 0.1355 0.0
H78 H 0.85732 0.95162 0.11865 0.0
H79 H 0.82881 0.94829 0.17111 0.0
H80 H 0.78622 0.96434 0.0598 0.0
H81 H 0.76602 0.95815 0.98582 0.0
H82 H 0.71823 0.94864 0.08655 0.0
H83 H 0.73827 0.9546 0.16031 0.0
H84 H 0.75624 0.9494 0.29493 0.0
H85 H 0.73043 0.95442 0.3545 0.0
H86 H 0.74645 0.0136 0.36691 0.0
H87 H 0.77213 0.00842 0.30487 0.0
N88 N 0.79622 0.97966 0.24114 0.0
N89 N 0.79406 0.96967 0.15507 0.0
N90 N 0.76702 0.96939 0.20631 0.0
C91 C 0.80468 0.97621 0.19463 0.0
C92 C 0.77529 0.96631 0.16039 0.0
C93 C 0.77713 0.97602 0.24679 0.0
C94 C 0.8253 0.97836 0.18425 0.0
C95 C 0.83336 0.99638 0.17515 0.0
C96 C 0.84984 0.9983 0.14478 0.0
C97 C 0.85828 0.98226 0.12227 0.0
C98 C 0.85108 0.96424 0.13502 0.0
C99 C 0.83489 0.96233 0.16576 0.0
C100 C 0.76379 0.96022 0.11599 0.0
C101 C 0.77148 0.96058 0.06625 0.0
C102 C 0.75995 0.95703 0.02383 0.0
C103 C 0.74059 0.9529 0.03042 0.0
C104 C 0.73318 0.9515 0.08025 0.0
C105 C 0.74464 0.95514 0.12257 0.0
C106 C 0.76642 0.97844 0.29553 0.0
C107 C 0.75469 0.96336 0.31179 0.0
C108 C 0.58235 0.73345 0.0899 0.0
C109 C 0.57657 0.73788 0.04009 0.0
C110 C 0.5717 0.75658 0.02804 0.0
C111 C 0.57059 0.77025 0.0665 0.0
H112 H 0.51648 0.81085 0.13397 0.0
H113 H 0.50972 0.83808 0.07913 0.0
H114 H 0.56016 0.8664 0.13478 0.0
H115 H 0.56681 0.83902 0.18958 0.0
H116 H 0.51716 0.7675 0.2782 0.0
H117 H 0.51113 0.74073 0.33618 0.0
H118 H 0.57123 0.7369 0.36583 0.0
H119 H 0.57707 0.76312 0.30708 0.0
H120 H 0.58405 0.74286 0.16761 0.0
H121 H 0.58611 0.71905 0.09983 0.0
H122 H 0.5672 0.7602 0.98964 0.0
H123 H 0.56529 0.78414 0.05656 0.0
N124 N 0.55975 0.79475 0.14914 0.0
N125 N 0.54499 0.79608 0.23016 0.0
N126 N 0.56266 0.76935 0.20556 0.0
C127 C 0.54937 0.80443 0.18405 0.0
C128 C 0.55211 0.77848 0.24118 0.0
C129 C 0.56642 0.77723 0.15944 0.0
C130 C 0.54184 0.82301 0.16734 0.0
C131 C 0.52561 0.82327 0.13626 0.0
C132 C 0.52197 0.83875 0.10403 0.0
C133 C 0.53453 0.85442 0.10179 0.0
C134 C 0.55009 0.85471 0.13558 0.0
C135 C 0.55381 0.8391 0.16751 0.0
C136 C 0.54757 0.76762 0.28853 0.0
C137 C 0.52894 0.76142 0.29885 0.0
C138 C 0.52555 0.74589 0.33179 0.0
C139 C 0.54072 0.73619 0.35506 0.0
C140 C 0.55917 0.74353 0.34774 0.0
C141 C 0.56253 0.75887 0.31475 0.0
C142 C 0.57395 0.76524 0.11775 0.0
C143 C 0.58104 0.74707 0.12861 0.0
C144 C 0.23701 0.50554 0.91021 0.0
C145 C 0.23213 0.49209 0.87225 0.0
C146 C 0.24433 0.47653 0.86542 0.0
C147 C 0.25977 0.47361 0.89839 0.0
H148 H 0.31533 0.51206 0.06264 0.0
H149 H 0.34316 0.51831 0.11686 0.0
H150 H 0.35436 0.4582 0.12216 0.0
H151 H 0.32689 0.45221 0.06807 0.0
H152 H 0.2799 0.44783 0.15575 0.0
H153 H 0.2579 0.44216 0.22613 0.0
H154 H 0.21072 0.44998 0.12303 0.0
H155 H 0.23249 0.45482 0.05279 0.0
H156 H 0.25476 0.51233 0.97465 0.0
H157 H 0.22803 0.51762 0.9174 0.0
H158 H 0.24146 0.46603 0.8361 0.0
H159 H 0.26775 0.4606 0.89494 0.0
N160 N 0.29197 0.48413 0.99758 0.0
N161 N 0.28882 0.4658 0.07269 0.0
N162 N 0.26335 0.46805 0.01636 0.0
C163 C 0.29964 0.47698 0.04181 0.0
C164 C 0.27066 0.46137 0.06054 0.0
C165 C 0.27372 0.47918 0.9845 0.0
C166 C 0.31909 0.48167 0.06028 0.0
C167 C 0.32424 0.50032 0.07374 0.0
C168 C 0.34 0.50383 0.10568 0.0
C169 C 0.35105 0.48876 0.12468 0.0
C170 C 0.34648 0.47025 0.10823 0.0
C171 C 0.33071 0.46677 0.07689 0.0
C172 C 0.25797 0.45247 0.09897 0.0
C173 C 0.26483 0.44773 0.14777 0.0
C174 C 0.25221 0.44456 0.18822 0.0
C175 C 0.23255 0.44622 0.18065 0.0
C176 C 0.22574 0.44862 0.13054 0.0
C177 C 0.23832 0.45159 0.09008 0.0
C178 C 0.26373 0.48633 0.93854 0.0
C179 C 0.25255 0.50265 0.94294 0.0
C180 C 0.04982 0.24689 0.86318 0.0
C181 C 0.03305 0.2361 0.86885 0.0
C182 C 0.01941 0.24242 0.90434 0.0
C183 C 0.02313 0.25808 0.93625 0.0
H184 H 0.01845 0.32461 0.03627 0.0
H185 H 0.0126 0.35356 0.0864 0.0
H186 H 0.07078 0.35306 0.13831 0.0
H187 H 0.07654 0.32503 0.08749 0.0
H188 H 0.06639 0.27787 0.1623 0.0
H189 H 0.07018 0.25319 0.22615 0.0
H190 H 0.08204 0.21256 0.10661 0.0
H191 H 0.07771 0.23716 0.04242 0.0
H192 H 0.06749 0.26914 0.89387 0.0
H193 H 0.06071 0.24242 0.8366 0.0
H194 H 0.00624 0.2346 0.90942 0.0
H195 H 0.01307 0.26144 0.96625 0.0
N196 N 0.04414 0.2957 0.99381 0.0
N197 N 0.06054 0.291 0.07133 0.0
N198 N 0.05751 0.26604 0.01334 0.0
C199 C 0.05099 0.30271 0.03938 0.0
C200 C 0.0638 0.2727 0.0588 0.0
C201 C 0.04786 0.27723 0.98055 0.0
C202 C 0.04796 0.32251 0.05775 0.0
C203 C 0.03008 0.33116 0.05699 0.0
C204 C 0.02669 0.34759 0.08654 0.0
C205 C 0.04113 0.35575 0.11732 0.0
C206 C 0.05926 0.3476 0.11507 0.0
C207 C 0.06259 0.33134 0.08585 0.0
C208 C 0.07124 0.25935 0.09722 0.0
C209 C 0.07035 0.26382 0.14961 0.0
C210 C 0.07262 0.24965 0.18635 0.0
C211 C 0.076 0.23083 0.17133 0.0
C212 C 0.07898 0.22686 0.11923 0.0
C213 C 0.07654 0.24096 0.08248 0.0
C214 C 0.04059 0.26779 0.93368 0.0
C215 C 0.05362 0.26241 0.89558 0.0
C216 C 0.28293 0.02408 0.90607 0.0
C217 C 0.28913 0.03841 0.87201 0.0
C218 C 0.27836 0.05516 0.86956 0.0
C219 C 0.26308 0.05816 0.90311 0.0
H220 H 0.20288 0.01781 0.05396 0.0
H221 H 0.17487 0.01211 0.10853 0.0
H222 H 0.1684 0.07252 0.12769 0.0
H223 H 0.1961 0.07807 0.07376 0.0
H224 H 0.24508 0.06543 0.16943 0.0
H225 H 0.26892 0.0702 0.23501 0.0
H226 H 0.30868 0.08989 0.12014 0.0
H227 H 0.285 0.08417 0.05399 0.0
H228 H 0.2643 0.01648 0.96821 0.0
H229 H 0.2908 0.01105 0.9098 0.0
H230 H 0.28227 0.06641 0.84329 0.0
H231 H 0.25624 0.07187 0.90316 0.0
N232 N 0.22927 0.04605 0.99772 0.0
N233 N 0.23251 0.06198 0.07669 0.0
N234 N 0.25834 0.06044 0.02107 0.0
C235 C 0.22152 0.05222 0.04302 0.0
C236 C 0.25087 0.06608 0.06622 0.0
C237 C 0.24783 0.05056 0.98658 0.0
C238 C 0.20162 0.04839 0.05919 0.0
C239 C 0.19493 0.02982 0.068 0.0
C240 C 0.179 0.02658 0.09974 0.0
C241 C 0.16962 0.04186 0.12353 0.0
C242 C 0.17547 0.0604 0.111 0.0
C243 C 0.19121 0.0636 0.07943 0.0
C244 C 0.26336 0.07392 0.1064 0.0
C245 C 0.25874 0.07126 0.15825 0.0
C246 C 0.27243 0.07412 0.19605 0.0
C247 C 0.29091 0.07998 0.18274 0.0
C248 C 0.29476 0.08479 0.13148 0.0
C249 C 0.28118 0.0816 0.09358 0.0
C250 C 0.25783 0.0444 0.93947 0.0
C251 C 0.26754 0.02708 0.93942 0.0
C252 C 0.44369 0.29641 0.1277 0.0
C253 C 0.44772 0.29239 0.17924 0.0
C254 C 0.45317 0.27388 0.19248 0.0
C255 C 0.45627 0.26029 0.1546 0.0
H256 H 0.45083 0.19648 0.06392 0.0
H257 H 0.45593 0.16835 0.11606 0.0
H258 H 0.51635 0.17886 0.11152 0.0
H259 H 0.51107 0.20697 0.05798 0.0
H260 H 0.45805 0.25667 0.8976 0.0
H261 H 0.46341 0.28283 0.83784 0.0
H262 H 0.51704 0.29507 0.9112 0.0
H263 H 0.51177 0.26846 0.96937 0.0
H264 H 0.44501 0.28683 0.05006 0.0
H265 H 0.43897 0.31036 0.11634 0.0
H266 H 0.45654 0.27024 0.23166 0.0
H267 H 0.46174 0.24661 0.16593 0.0
N268 N 0.46649 0.23435 0.07342 0.0
N269 N 0.48286 0.23148 0.99502 0.0
N270 N 0.46819 0.2602 0.01795 0.0
C271 C 0.47652 0.22359 0.04005 0.0
C272 C 0.47829 0.24992 0.9838 0.0
C273 C 0.46233 0.25262 0.06283 0.0
C274 C 0.48055 0.20381 0.05617 0.0
C275 C 0.46526 0.19236 0.0724 0.0
C276 C 0.46819 0.17639 0.10314 0.0
C277 C 0.48654 0.17147 0.11932 0.0
C278 C 0.50201 0.18213 0.0999 0.0
C279 C 0.49904 0.19817 0.06874 0.0
C280 C 0.48476 0.2601 0.93718 0.0
C281 C 0.47142 0.26437 0.89908 0.0
C282 C 0.47433 0.27972 0.8656 0.0
C283 C 0.49053 0.29152 0.86989 0.0
C284 C 0.50446 0.28637 0.90594 0.0
C285 C 0.50157 0.27092 0.93917 0.0
C286 C 0.45425 0.26502 0.1027 0.0
C287 C 0.44706 0.2829 0.08974 0.0
C288 C 0.06691 0.0301 0.71866 0.0
C289 C 0.05417 0.03982 0.80079 0.0
C290 C 0.05223 0.02968 0.75434 0.0
C291 C 0.07071 0.0505 0.81029 0.0
C292 C 0.08377 0.04038 0.72882 0.0
C293 C 0.0855 0.0507 0.77454 0.0
N294 N 0.06487 0.02026 0.67436 0.0
C295 C 0.07935 0.01932 0.63969 0.0
C296 C 0.09852 0.03986 0.69289 0.0
C297 C 0.09633 0.02917 0.64829 0.0
Gd298 Gd 0.99188 0.01955 0.57863 0.0
Gd299 Gd 0.036 1.00435 0.66273 0.0
N300 N 0.03642 0.01896 0.7445 0.0
C301 C 0.0396 0.03862 0.83698 0.0
C302 C 0.02294 0.01673 0.78164 0.0
C303 C 0.02406 0.02681 0.82764 0.0
H304 H 0.0116 1.00678 0.77756 0.0
H305 H 0.01308 0.02514 0.85634 0.0
H306 H 0.00822 0.02801 0.45959 0.0
H307 H 0.0778 0.01099 0.60515 0.0
H308 H 1.00269 0.01608 0.372 0.0
H309 H 0.04052 0.04625 0.87294 0.0
H310 H 0.07234 0.05838 0.84567 0.0
H311 H 0.95297 1.0075 0.64652 0.0
H312 H 0.1117 0.04749 0.69948 0.0
H313 H 0.10772 0.02849 0.62053 0.0
H314 H 0.94923 0.974 0.38963 0.0
H315 H 0.0983 0.05874 0.78285 0.0
H316 H 0.91821 0.97169 0.55279 0.0
H317 H 0.9245 0.98737 0.63589 0.0
N318 N 0.96319 1.00268 0.57131 0.0
C319 C 0.95976 0.99459 0.52491 0.0
C320 C 0.9506 1.00049 0.61057 0.0
C321 C 0.93087 0.98035 0.55749 0.0
C322 C 0.93436 0.98918 0.60445 0.0
C323 C 0.94348 0.9832 0.51675 0.0
H324 H 0.92773 0.96651 0.46122 0.0
N325 N 0.98725 0.01004 0.49339 0.0
C326 C 0.97214 0.99842 0.48478 0.0
C327 C 0.97973 0.99748 0.39452 0.0
C328 C 0.96817 0.99152 0.43518 0.0
C329 C 0.99744 0.01726 0.45324 0.0
C330 C 0.99418 0.01074 0.40346 0.0
O331 O 0.03375 0.03584 0.64793 0.0
O332 O 1.00156 0.03766 0.64595 0.0
O333 O 0.99793 0.04723 0.54627 0.0
O334 O 0.9683 0.03817 0.56233 0.0
O335 O 0.00669 0.9954 0.69352 0.0
O336 O 0.98582 0.01799 0.66345 0.0
O337 O 0.9923 0.98804 0.59426 0.0
O338 O 0.02442 0.98348 0.60328 0.0
O339 O 0.04976 0.98558 0.71645 0.0
O340 O 0.05603 0.98357 0.63519 0.0
O341 O 0.01927 0.0116 0.53784 0.0
O342 O 0.0434 0.0206 0.59094 0.0
C343 C 0.01824 0.04587 0.65147 0.0
C344 C 0.99033 1.00452 0.69613 0.0
C345 C 0.97299 0.06976 0.52627 0.0
C346 C 0.97939 0.10011 0.48464 0.0
C347 C 0.94746 0.0921 0.51301 0.0
C348 C 0.9538 0.07465 0.53114 0.0
C349 C 0.96014 0.10478 0.48979 0.0
C350 C 0.9857 0.08257 0.50315 0.0
C351 C 0.97983 0.05142 0.54542 0.0
C352 C 0.95237 0.97961 0.42735 0.0
C353 C 0.94009 0.9754 0.46808 0.0
H354 H 0.97712 0.99255 0.35585 0.0
C355 C 0.00718 0.97692 0.59381 0.0
C356 C 0.03669 0.01772 0.54493 0.0
C357 C 0.05671 0.9554 0.68232 0.0
C358 C 0.0388 0.92658 0.70259 0.0
C359 C 0.07081 0.92467 0.66769 0.0
C360 C 0.07202 0.94441 0.66604 0.0
C361 C 0.05442 0.91578 0.68621 0.0
C362 C 0.03999 0.94649 0.69951 0.0
C363 C 0.05835 0.97612 0.68032 0.0
H364 H 0.93266 0.09582 0.51697 0.0
H365 H 0.94372 0.06504 0.54903 0.0
H366 H 0.95492 0.11827 0.47625 0.0
H367 H 1.00046 0.07874 0.4986 0.0
H368 H 0.08274 0.91623 0.65545 0.0
H369 H 0.08494 0.95111 0.6522 0.0
H370 H 0.05428 0.90046 0.68907 0.0
H371 H 0.02802 0.95509 0.71076 0.0
C372 C 0.51241 0.9504 0.56015 0.0
C373 C 0.48463 0.93441 0.59505 0.0
C374 C 0.49435 0.95121 0.58111 0.0
C375 C 0.4938 0.91689 0.59055 0.0
C376 C 0.52122 0.93272 0.55273 0.0
C377 C 0.51206 0.91604 0.56942 0.0
N378 N 0.52074 0.96675 0.54361 0.0
C379 C 0.53719 0.96626 0.51585 0.0
C380 C 0.53866 0.93227 0.52711 0.0
C381 C 0.54652 0.94908 0.50786 0.0
Gd382 Gd 0.52038 0.03738 0.65903 0.0
Gd383 Gd 0.50449 0.99483 0.56389 0.0
N384 N 0.48579 0.96833 0.58465 0.0
C385 C 0.46573 0.93568 0.61114 0.0
C386 C 0.46696 0.96947 0.596 0.0
C387 C 0.45673 0.95324 0.61045 0.0
H388 H 0.45967 0.98279 0.59314 0.0
H389 H 0.44187 0.95427 0.62046 0.0
H390 H 0.55901 0.05613 0.59857 0.0
H391 H 0.54316 0.9792 0.50014 0.0
H392 H 0.56773 0.08556 0.55436 0.0
H393 H 0.45775 0.9231 0.62203 0.0
H394 H 0.48666 0.90385 0.60171 0.0
H395 H 0.48635 0.04914 0.74475 0.0
H396 H 0.54587 0.91897 0.52057 0.0
H397 H 0.55972 0.9488 0.48668 0.0
H398 H 0.51747 0.12812 0.59605 0.0
H399 H 0.51872 0.90236 0.56464 0.0
H400 H 0.47117 0.10689 0.71772 0.0
H401 H 0.46639 0.07675 0.76451 0.0
N402 N 0.50157 0.06312 0.68495 0.0
C403 C 0.50512 0.07987 0.66082 0.0
C404 C 0.4883 0.06206 0.72308 0.0
C405 C 0.47981 0.09474 0.7083 0.0
C406 C 0.47709 0.07775 0.73484 0.0
C407 C 0.4942 0.09609 0.6715 0.0
H408 H 0.49006 0.12583 0.65405 0.0
N409 N 0.53178 0.06573 0.62189 0.0
C410 C 0.52067 0.08121 0.62832 0.0
C411 C 0.54228 0.10003 0.5768 0.0
C412 C 0.52554 0.09874 0.60548 0.0
C413 C 0.54896 0.06747 0.59804 0.0
C414 C 0.55424 0.08443 0.57406 0.0
O415 O 0.50458 0.98404 0.64515 0.0
O416 O 0.51581 0.00873 0.69665 0.0
O417 O 0.54616 0.02945 0.69869 0.0
O418 O 0.52778 0.05179 0.72986 0.0
O419 O 0.4803 0.00991 0.60503 0.0
O420 O 0.49115 0.02581 0.67768 0.0
O421 O 0.506 0.04459 0.58404 0.0
O422 O 0.51814 0.02156 0.53265 0.0
O423 O 0.48377 1.00688 0.5126 0.0
O424 O 0.50167 0.98383 0.4867 0.0
O425 O 0.54301 0.02729 0.6033 0.0
O426 O 0.53604 0.99614 0.58282 0.0
C427 C 0.51065 0.99088 0.68923 0.0
C428 C 0.47746 0.01876 0.64894 0.0
C429 C 0.55557 0.0437 0.7799 0.0
C430 C 0.58311 0.03329 0.8282 0.0
C431 C 0.56257 0.05768 0.86277 0.0
C432 C 0.55113 0.05647 0.81935 0.0
C433 C 0.57848 0.04619 0.86728 0.0
C434 C 0.57155 0.03212 0.78461 0.0
C435 C 0.54278 0.04138 0.7359 0.0
C436 C 0.51403 0.1146 0.61367 0.0
C437 C 0.49842 0.11329 0.6467 0.0
H438 H 0.54652 0.11324 0.5587 0.0
C439 C 0.51075 0.03847 0.53833 0.0
C440 C 0.5482 0.01028 0.58813 0.0
C441 C 0.47009 0.98477 0.45543 0.0
C442 C 0.43763 0.98712 0.42433 0.0
C443 C 0.45358 0.95673 0.42368 0.0
C444 C 0.46978 0.9652 0.44473 0.0
C445 C 0.43758 0.96762 0.41327 0.0
C446 C 0.45396 0.99558 0.44509 0.0
C447 C 0.48697 0.99429 0.47694 0.0
H448 H 0.55899 0.06744 0.89325 0.0
H449 H 0.53868 0.06533 0.81702 0.0
H450 H 0.587 0.04715 0.90167 0.0
H451 H 0.57502 0.02215 0.75444 0.0
H452 H 0.45343 0.94168 0.41536 0.0
H453 H 0.482 0.95646 0.45246 0.0
H454 H 0.42513 0.96081 0.39702 0.0
H455 H 0.45421 0.01073 0.45253 0.0
C456 C 0.45992 0.49181 0.69728 0.0
C457 C 0.47238 0.47655 0.77325 0.0
C458 C 0.47434 0.48982 0.73313 0.0
C459 C 0.4559 0.46528 0.77659 0.0
C460 C 0.44331 0.48057 0.7007 0.0
C461 C 0.4414 0.46729 0.74047 0.0
N462 N 0.46233 0.50442 0.65838 0.0
C463 C 0.44844 0.50698 0.62284 0.0
C464 C 0.42915 0.48289 0.66378 0.0
C465 C 0.4317 0.49622 0.62483 0.0
Gd466 Gd 0.53299 0.50506 0.56873 0.0
Gd467 Gd 0.49094 0.52169 0.65826 0.0
N468 N 0.4904 0.50058 0.72818 0.0
C469 C 0.48705 0.475 0.80893 0.0
C470 C 0.50418 0.49989 0.76467 0.0
C471 C 0.50291 0.4869 0.80496 0.0
H472 H 0.51593 0.50961 0.76397 0.0
H473 H 0.51405 0.48626 0.83333 0.0
H474 H 0.509 0.5186 0.4627 0.0
H475 H 0.45003 0.51765 0.59364 0.0
H476 H 0.51374 0.53952 0.38898 0.0
H477 H 0.48611 0.46495 0.84022 0.0
H478 H 0.45421 0.45498 0.80706 0.0
H479 H 0.57419 0.50559 0.63271 0.0
H480 H 0.41618 0.47454 0.66515 0.0
H481 H 0.42073 0.4983 0.59648 0.0
H482 H 0.57718 0.56331 0.40916 0.0
H483 H 0.42877 0.4585 0.7436 0.0
H484 H 0.61271 0.54285 0.55478 0.0
H485 H 0.60552 0.5213 0.62708 0.0
N486 N 0.56334 0.51894 0.56629 0.0
C487 C 0.56711 0.53043 0.5257 0.0
C488 C 0.57693 0.51548 0.60215 0.0
C489 C 0.59882 0.53621 0.55756 0.0
C490 C 0.5948 0.52412 0.59853 0.0
C491 C 0.58496 0.53943 0.52035 0.0
H492 H 0.60206 0.55833 0.47347 0.0
N493 N 0.53579 0.52476 0.49628 0.0
C494 C 0.55302 0.53327 0.48943 0.0
C495 C 0.5421 0.54762 0.41092 0.0
C496 C 0.55653 0.54513 0.44688 0.0
C497 C 0.52202 0.52646 0.45998 0.0
C498 C 0.52483 0.5381 0.41729 0.0
O499 O 0.49352 0.49016 0.63893 0.0
O500 O 0.52551 0.48651 0.63626 0.0
O501 O 0.52876 0.48224 0.5141 0.0
O502 O 0.5563 0.48652 0.54898 0.0
O503 O 0.52114 0.52921 0.684 0.0
O504 O 0.53983 0.50512 0.65337 0.0
O505 O 0.53081 0.53712 0.57918 0.0
O506 O 0.49928 0.54283 0.59657 0.0
O507 O 0.49077 0.54147 0.72182 0.0
O508 O 0.46613 0.53887 0.67328 0.0
O509 O 0.50254 0.49981 0.5412 0.0
O510 O 0.4842 0.52382 0.57409 0.0
C511 C 0.50852 0.47941 0.64407 0.0
C512 C 0.5367 0.51897 0.68613 0.0
C513 C 0.54592 0.45482 0.5354 0.0
C514 C 0.53425 0.42263 0.51944 0.0
C515 C 0.55554 0.42892 0.59067 0.0
C516 C 0.55625 0.44812 0.5776 0.0
C517 C 0.54457 0.41623 0.56196 0.0
C518 C 0.53505 0.44197 0.50649 0.0
C519 C 0.54553 0.47518 0.52225 0.0
C520 C 0.57427 0.55414 0.44154 0.0
C521 C 0.58844 0.5513 0.47817 0.0
H522 H 0.54424 0.55661 0.37774 0.0
C523 C 0.51621 0.54865 0.58159 0.0
C524 C 0.48734 0.51061 0.53957 0.0
C525 C 0.47454 0.56968 0.70205 0.0
C526 C 0.48846 0.60062 0.72199 0.0
C527 C 0.4642 0.59784 0.65653 0.0
C528 C 0.46289 0.57833 0.66526 0.0
C529 C 0.47705 0.60893 0.68432 0.0
C530 C 0.487 0.58105 0.73103 0.0
C531 C 0.47463 0.54884 0.70846 0.0
H532 H 0.56344 0.42388 0.62336 0.0
H533 H 0.56466 0.4577 0.60096 0.0
H534 H 0.54436 0.40139 0.57266 0.0
H535 H 0.52683 0.44719 0.47449 0.0
H536 H 0.45535 0.60435 0.62776 0.0
H537 H 0.45306 0.57 0.64248 0.0
H538 H 0.47789 0.62404 0.67689 0.0
H539 H 0.49601 0.57461 0.75964 0.0
C540 C 0.031 0.46705 0.71714 0.0
C541 C 0.03335 0.47963 0.80325 0.0
C542 C 0.02551 0.48022 0.75363 0.0
C543 C 0.04723 0.46612 0.81485 0.0
C544 C 0.04433 0.45296 0.7292 0.0
C545 C 0.05266 0.45277 0.77797 0.0
N546 N 0.02308 0.46787 0.66986 0.0
C547 C 0.02669 0.45424 0.6341 0.0
C548 C 0.04877 0.43939 0.69194 0.0
C549 C 0.03975 0.43992 0.64436 0.0
Gd550 Gd 0.0206 0.53347 0.56774 0.0
Gd551 Gd 1.00096 0.4919 0.65611 0.0
N552 N 0.01178 0.49289 0.74147 0.0
C553 C 0.02657 0.49224 0.84024 0.0
C554 C 1.00407 0.50408 0.77864 0.0
C555 C 0.01164 0.50429 0.82808 0.0
H556 H 0.99176 0.51254 0.77094 0.0
H557 H 1.00571 0.5135 0.85705 0.0
H558 H 0.01321 0.51543 0.45197 0.0
H559 H 0.01954 0.45447 0.59759 0.0
H560 H 0.99258 0.52106 0.37693 0.0
H561 H 0.03223 0.49226 0.87877 0.0
H562 H 0.05351 0.46557 0.85265 0.0
H563 H 0.01765 0.57328 0.64042 0.0
H564 H 0.05891 0.42831 0.69975 0.0
H565 H 0.04281 0.42929 0.61566 0.0
H566 H 0.95648 0.57589 0.42439 0.0
H567 H 0.06309 0.44219 0.7878 0.0
H568 H 0.97261 0.60702 0.58183 0.0
H569 H 0.99724 0.60126 0.64716 0.0
N570 N 1.00329 0.56185 0.57546 0.0
C571 C 0.99069 0.56543 0.53741 0.0
C572 C 0.00631 0.57496 0.61322 0.0
C573 C 0.98117 0.59436 0.5795 0.0
C574 C 0.99503 0.59114 0.61651 0.0
C575 C 0.97918 0.58169 0.53858 0.0
H576 H 0.95747 0.59743 0.49859 0.0
N577 N 1.00171 0.53814 0.49518 0.0
C578 C 0.99011 0.55339 0.49556 0.0
C579 C 0.97879 0.54516 0.41107 0.0
C580 C 0.97806 0.55714 0.45385 0.0
C581 C 1.00324 0.52698 0.45265 0.0
C582 C 0.99164 0.53017 0.4102 0.0
O583 O 0.03288 0.49383 0.63957 0.0
O584 O 0.03791 0.52576 0.63715 0.0
O585 O 0.04395 0.52975 0.5151 0.0
O586 O 0.03868 0.55749 0.54709 0.0
O587 O 0.99436 0.52192 0.68349 0.0
O588 O 0.01955 0.53985 0.65354 0.0
O589 O 0.99159 0.52016 0.5522 0.0
O590 O 0.98046 0.51483 0.63253 0.0
O591 O 0.98232 0.47631 0.70744 0.0
O592 O 0.98109 0.47102 0.62595 0.0
O593 O 0.02763 0.50346 0.54249 0.0
O594 O 1.00238 0.48537 0.57109 0.0
C595 C 0.04397 0.50866 0.64741 0.0
C596 C 1.0058 0.53679 0.68702 0.0
C597 C 0.07073 0.5483 0.53352 0.0
C598 C 0.10302 0.5383 0.51399 0.0
C599 C 0.09668 0.55733 0.58974 0.0
C600 C 0.07738 0.55758 0.5777 0.0
C601 C 0.10946 0.54775 0.55819 0.0
C602 C 0.08363 0.53881 0.50189 0.0
C603 C 0.05037 0.54694 0.52126 0.0
C604 C 0.96599 0.57286 0.45582 0.0
C605 C 0.96653 0.5851 0.49813 0.0
H606 H 0.96978 0.54758 0.37821 0.0
C607 C 0.97735 0.51915 0.58449 0.0
C608 C 0.0161 0.48874 0.53794 0.0
C609 C 0.95229 0.46912 0.67125 0.0
C610 C 0.92297 0.48265 0.70361 0.0
C611 C 0.92185 0.45712 0.64135 0.0
C612 C 0.94165 0.45658 0.64066 0.0
C613 C 0.91252 0.46998 0.67302 0.0
C614 C 0.94285 0.4824 0.70215 0.0
C615 C 0.97314 0.46807 0.67024 0.0
H616 H 0.10174 0.56444 0.6239 0.0
H617 H 0.06769 0.56476 0.60327 0.0
H618 H 0.12435 0.54779 0.56828 0.0
H619 H 0.07836 0.53119 0.46867 0.0
H620 H 0.91373 0.44742 0.61768 0.0
H621 H 0.94867 0.44635 0.61633 0.0
H622 H 0.89715 0.47006 0.67374 0.0
H623 H 0.95085 0.49224 0.72587 0.0
H624 H 0.13897 0.01703 0.12517 0.0
H625 H 0.11526 0.01287 0.19359 0.0
H626 H 0.14453 0.05486 0.28482 0.0
H627 H 0.16773 0.0594 0.21654 0.0
H628 H 0.11756 1.00124 0.29019 0.0
H629 H 0.09227 0.0752 0.295 0.0
H630 H 0.1074 0.06656 0.24454 0.0
H631 H 0.11737 0.07408 0.30481 0.0
C632 C 0.14026 0.02543 0.15974 0.0
C633 C 0.1551 0.03879 0.16483 0.0
C634 C 0.12668 0.02306 0.1989 0.0
C635 C 0.12768 0.03392 0.24419 0.0
C636 C 0.14286 0.04681 0.24978 0.0
H637 H 0.06927 0.03912 0.538 0.0
H638 H 0.09086 0.04231 0.4648 0.0
C639 C 0.15624 0.04934 0.21059 0.0
C640 C 0.11335 0.03141 0.28634 0.0
H641 H 0.08376 0.05581 0.36662 0.0
C642 C 0.11004 0.01317 0.30646 0.0
C643 C 0.10339 0.04692 0.30798 0.0
C644 C 0.10513 0.06674 0.2866 0.0
C645 C 0.09767 0.01011 0.34825 0.0
C646 C 0.08807 0.02567 0.3705 0.0
C647 C 0.09117 0.04387 0.35001 0.0
C648 C 0.07489 0.02346 0.41524 0.0
C649 C 0.09544 0.99027 0.3692 0.0
C650 C 0.05855 0.01192 0.41204 0.0
C651 C 0.04622 0.01 0.45403 0.0
C652 C 0.04977 0.01974 0.50017 0.0
C653 C 0.0661 0.03134 0.50323 0.0
C654 C 0.07844 0.03325 0.46124 0.0
H655 H 0.10726 0.98097 0.35702 0.0
H656 H 0.0948 0.99041 0.41167 0.0
H657 H 0.08202 0.98396 0.35467 0.0
H658 H 0.05525 1.00444 0.3769 0.0
H659 H 0.03401 1.00068 0.45045 0.0
H660 H 0.5147 0.14442 0.1268 0.0
H661 H 0.51879 0.12039 0.19384 0.0
H662 H 0.4688 0.14074 0.27069 0.0
H663 H 0.46459 0.16455 0.20423 0.0
H664 H 0.52483 0.12384 0.29572 0.0
H665 H 0.45708 0.08491 0.26796 0.0
H666 H 0.46584 0.10206 0.22221 0.0
H667 H 0.45359 0.10974 0.27901 0.0
C668 C 0.50454 0.14375 0.15788 0.0
C669 C 0.48915 0.15636 0.15936 0.0
C670 C 0.50686 0.12994 0.19623 0.0
C671 C 0.49387 0.12835 0.23708 0.0
C672 C 0.4787 0.14112 0.23898 0.0
H673 H 0.49853 0.07541 0.53672 0.0
H674 H 0.49517 0.09643 0.46285 0.0
C675 C 0.47632 0.15482 0.20068 0.0
C676 C 0.49653 0.11394 0.27879 0.0
H677 H 0.47386 0.07846 0.34554 0.0
C678 C 0.51371 0.11383 0.30616 0.0
C679 C 0.48212 0.10069 0.29274 0.0
C680 C 0.4637 0.09919 0.26361 0.0
C681 C 0.51661 0.10136 0.34761 0.0
C682 C 0.50202 0.0886 0.36234 0.0
C683 C 0.48501 0.08835 0.33448 0.0
C684 C 0.50415 0.07565 0.40719 0.0
C685 C 0.5352 0.10195 0.37603 0.0
C686 C 0.51033 0.05691 0.40065 0.0
C687 C 0.51252 0.04485 0.44306 0.0
C688 C 0.50844 0.05123 0.49301 0.0
C689 C 0.50202 0.06998 0.49916 0.0
C690 C 0.5 0.08205 0.45683 0.0
H691 H 0.54555 0.11197 0.35841 0.0
H692 H 0.53267 0.10631 0.4163 0.0
H693 H 0.54148 0.08756 0.37684 0.0
H694 H 0.51356 0.05163 0.3627 0.0
H695 H 0.51736 0.03051 0.43663 0.0
H696 H 0.35109 0.51361 0.20626 0.0
H697 H 0.37478 0.51716 0.27402 0.0
H698 H 0.40874 0.47384 0.20339 0.0
H699 H 0.3855 0.4707 0.13451 0.0
H700 H 0.38673 0.49167 0.34441 0.0
H701 H 0.44845 0.51429 0.22713 0.0
H702 H 0.42461 0.51376 0.20215 0.0
H703 H 0.43808 0.49226 0.20635 0.0
C704 C 0.36379 0.50512 0.20431 0.0
C705 C 0.36629 0.49195 0.16426 0.0
C706 C 0.37729 0.50704 0.24359 0.0
C707 C 0.3938 0.49597 0.24391 0.0
C708 C 0.39641 0.48288 0.20386 0.0
H709 H 0.48617 0.4823 0.46675 0.0
H710 H 0.46366 0.47831 0.39595 0.0
C711 C 0.38292 0.48095 0.16457 0.0
C712 C 0.40787 0.49768 0.28694 0.0
H713 H 0.45471 0.50657 0.31404 0.0
C714 C 0.40156 0.49503 0.33761 0.0
C715 C 0.42734 0.50199 0.27857 0.0
C716 C 0.43503 0.50592 0.22568 0.0
C717 C 0.41408 0.4964 0.37962 0.0
C718 C 0.43348 0.50073 0.37118 0.0
C719 C 0.43987 0.50321 0.32063 0.0
C720 C 0.44723 0.50315 0.41446 0.0
C721 C 0.40653 0.49292 0.43288 0.0
C722 C 0.44574 0.51859 0.44828 0.0
C723 C 0.45873 0.52105 0.48851 0.0
C724 C 0.47347 0.508 0.4965 0.0
C725 C 0.47499 0.4926 0.46225 0.0
C726 C 0.4621 0.49028 0.42162 0.0
H727 H 0.39225 0.48613 0.43236 0.0
H728 H 0.41634 0.48375 0.4548 0.0
H729 H 0.40546 0.50666 0.45343 0.0
H730 H 0.4346 0.5289 0.44321 0.0
H731 H 0.45726 0.5333 0.51317 0.0
H732 H 0.00866 0.36255 0.1737 0.0
H733 H 1.00381 0.38632 0.24053 0.0
H734 H 0.06053 0.40783 0.21616 0.0
H735 H 0.06506 0.38503 0.14725 0.0
H736 H 0.02145 0.39008 0.32935 0.0
H737 H 0.03339 0.45684 0.22239 0.0
H738 H 0.03056 0.43429 0.19048 0.0
H739 H 0.05312 0.4411 0.21753 0.0
C740 C 0.01995 0.37267 0.18131 0.0
C741 C 0.0373 0.37165 0.15455 0.0
C742 C 0.01721 0.3862 0.22019 0.0
C743 C 0.0317 0.39916 0.2335 0.0
C744 C 0.0489 0.3984 0.20628 0.0
H745 H 0.04702 0.48474 0.47445 0.0
H746 H 0.05074 0.46281 0.40231 0.0
C747 C 0.05158 0.38503 0.16711 0.0
C748 C 0.02922 0.41263 0.27768 0.0
H749 H 0.03295 0.45932 0.31336 0.0
C750 C 0.02381 0.40525 0.32561 0.0
C751 C 0.03246 0.43247 0.27346 0.0
C752 C 0.03753 0.44167 0.22308 0.0
C753 C 0.02191 0.41693 0.36918 0.0
C754 C 0.02508 0.43678 0.36494 0.0
C755 C 0.03051 0.44417 0.31703 0.0
C756 C 0.02278 0.45011 0.40946 0.0
C757 C 0.01707 0.40768 0.41968 0.0
C758 C 1.00576 0.45063 0.43761 0.0
C759 C 1.0037 0.46299 0.47941 0.0
C760 C 0.01847 0.4755 0.49365 0.0
C761 C 0.03535 0.4753 0.46477 0.0
C762 C 0.03749 0.46275 0.42334 0.0
H763 H 0.02106 0.39246 0.42004 0.0
H764 H 0.02433 0.41493 0.45202 0.0
H765 H 1.00153 0.40841 0.42601 0.0
H766 H 0.99391 0.44159 0.427 0.0
H767 H 0.99039 0.4629 0.50014 0.0
H768 H 0.89289 1.00087 0.12505 0.0
H769 H 0.91661 1.00327 0.05628 0.0
H770 H 0.87965 0.9712 0.95631 0.0
H771 H 0.85664 0.96784 0.02579 0.0
H772 H 0.91288 0.95991 0.93927 0.0
H773 H 0.91792 0.03821 0.93974 0.0
H774 H 0.92472 0.02848 1.00022 0.0
H775 H 0.90067 0.0256 0.97786 0.0
C776 C 0.8899 0.99436 0.08834 0.0
C777 C 0.87288 0.98418 0.08089 0.0
C778 C 0.9034 0.99587 0.04871 0.0
C779 C 0.89992 0.98782 1.00008 0.0
C780 C 0.88288 0.97759 0.99303 0.0
H781 H 0.95876 0.0246 0.72414 0.0
H782 H 0.93718 0.01893 0.79518 0.0
C783 C 0.86965 0.9757 0.03287 0.0
C784 C 0.91386 0.9898 0.95653 0.0
H785 H 0.94046 0.02203 0.88888 0.0
C786 C 0.9188 0.97356 0.92817 0.0
C787 C 0.92154 1.00756 0.94094 0.0
C788 C 0.91579 0.02596 0.96592 0.0
C789 C 0.93089 0.97455 0.88505 0.0
C790 C 0.93917 0.99221 0.87072 0.0
C791 C 0.93436 0.0084 0.89947 0.0
C792 C 0.95208 0.99458 0.82501 0.0
C793 C 0.9339 0.95668 0.85429 0.0
C794 C 0.96781 0.98274 0.81662 0.0
C795 C 0.97983 0.98546 0.7741 0.0
C796 C 0.97695 1.0006 0.73981 0.0
C797 C 0.9614 0.01258 0.74883 0.0
C798 C 0.94908 0.00948 0.7902 0.0
H799 H 0.92204 0.94639 0.85972 0.0
H800 H 0.93522 0.95979 0.81278 0.0
H801 H 0.94708 0.94971 0.86739 0.0
H802 H 0.97107 0.97153 0.84337 0.0
H803 H 0.99169 0.97599 0.76888 0.0
H804 H 0.539 0.89338 0.11042 0.0
H805 H 0.53509 0.91748 0.04338 0.0
H806 H 0.52217 0.87341 0.93402 0.0
H807 H 0.52563 0.84948 1.00065 0.0
H808 H 0.55251 0.92472 0.95326 0.0
H809 H 0.47755 0.90686 0.91236 0.0
H810 H 0.4898 0.89749 0.96718 0.0
H811 H 0.49256 0.88666 0.9051 0.0
C812 C 0.53524 0.88884 0.07213 0.0
C813 C 0.53223 0.86943 0.06143 0.0
C814 C 0.53301 0.90266 0.0337 0.0
C815 C 0.52781 0.89744 0.98355 0.0
C816 C 0.52548 0.87802 0.97255 0.0
H817 H 0.50842 0.95184 0.68957 0.0
H818 H 0.51335 0.93025 0.76149 0.0
C819 C 0.52749 0.86427 0.0109 0.0
C820 C 0.52487 0.9121 0.94256 0.0
H821 H 0.49333 0.92645 0.85108 0.0
C822 C 0.53949 0.92519 0.93126 0.0
C823 C 0.50787 0.91294 0.91365 0.0
C824 C 0.49099 0.90037 0.92552 0.0
C825 C 0.53784 0.93849 0.89105 0.0
C826 C 0.521 0.93893 0.86138 0.0
C827 C 0.50631 0.92607 0.87326 0.0
C828 C 0.51828 0.95239 0.8175 0.0
C829 C 0.5544 0.95156 0.87974 0.0
C830 C 0.51906 0.97215 0.82468 0.0
C831 C 0.51621 0.9846 0.78345 0.0
C832 C 0.51228 0.97763 0.73386 0.0
C833 C 0.51118 0.95783 0.72702 0.0
C834 C 0.51412 0.94541 0.76824 0.0
H835 H 0.56779 0.94628 0.89673 0.0
H836 H 0.55646 0.95328 0.83785 0.0
H837 H 0.55155 0.96575 0.89635 0.0
H838 H 0.52175 0.97801 0.86234 0.0
H839 H 0.51715 0.99972 0.79055 0.0
H840 H 0.66873 0.51359 0.02916 0.0
H841 H 0.64515 0.511 0.96094 0.0
H842 H 0.6133 0.5564 0.02901 0.0
H843 H 0.63673 0.55901 0.09779 0.0
H844 H 0.60635 0.50336 0.96346 0.0
H845 H 0.6193 0.57507 0.88216 0.0
H846 H 0.63517 0.56445 0.92785 0.0
H847 H 0.61325 0.57468 0.94894 0.0
C848 C 0.6566 0.52288 0.03029 0.0
C849 C 0.65482 0.53655 0.06943 0.0
C850 C 0.64314 0.52147 0.99079 0.0
C851 C 0.62753 0.53373 0.98889 0.0
C852 C 0.62541 0.54707 0.02855 0.0
H853 H 0.5372 0.54752 0.75857 0.0
H854 H 0.5582 0.55097 0.83277 0.0
C855 C 0.63887 0.54851 0.06813 0.0
C856 C 0.6135 0.53234 0.94573 0.0
H857 H 0.59456 0.55692 0.84513 0.0
C858 C 0.60381 0.51508 0.93758 0.0
C859 C 0.6099 0.54765 0.91202 0.0
C860 C 0.62003 0.56648 0.91773 0.0
C861 C 0.59067 0.51273 0.89731 0.0
C862 C 0.58747 0.52785 0.86254 0.0
C863 C 0.59696 0.54523 0.87121 0.0
C864 C 0.57463 0.52585 0.81671 0.0
C865 C 0.57999 0.49413 0.89356 0.0
C866 C 0.57684 0.51078 0.78186 0.0
C867 C 0.5646 0.50858 0.7399 0.0
C868 C 0.55011 0.52174 0.73025 0.0
C869 C 0.54819 0.53711 0.76439 0.0
C870 C 0.56027 0.53913 0.80697 0.0
H871 H 0.57893 0.48704 0.93145 0.0
H872 H 0.56543 0.49611 0.87847 0.0
H873 H 0.58775 0.48445 0.86754 0.0
H874 H 0.58806 0.5006 0.78709 0.0
H875 H 0.56641 0.49634 0.71543 0.0
H876 H 0.95919 0.64376 0.07429 0.0
H877 H 0.96285 0.62055 1.0055 0.0
H878 H 0.02045 0.63948 0.98175 0.0
H879 H 0.01682 0.66312 0.0495 0.0
H880 H 0.97154 0.62756 0.90166 0.0
H881 H 0.0259 0.58155 0.98957 0.0
H882 H 0.01214 0.59821 0.02638 0.0
H883 H 0.03202 0.60635 0.98896 0.0
C884 C 0.97269 0.64309 0.05459 0.0
C885 C 0.98768 0.65557 0.06798 0.0
C886 C 0.97477 0.62967 0.01519 0.0
C887 C 0.99198 0.62805 0.98837 0.0
C888 C 0.00711 0.64013 1.00226 0.0
H889 H 0.03228 0.56115 0.72831 0.0
H890 H 0.02846 0.58317 0.80021 0.0
C891 C 1.00501 0.65366 0.04145 0.0
C892 C 0.99382 0.61432 0.94463 0.0
H893 H 0.01912 0.57616 0.90174 0.0
C894 C 0.98188 0.61625 0.90188 0.0
C895 C 0.00731 0.59954 0.94449 0.0
C896 C 0.01998 0.59611 0.98994 0.0
C897 C 0.98334 0.60418 0.85888 0.0
C898 C 0.99687 0.58942 0.85868 0.0
C899 C 0.00876 0.58744 0.90154 0.0
C900 C 0.99902 0.57599 0.81437 0.0
C901 C 0.97072 0.60773 0.81335 0.0
C902 C 0.98384 0.56436 0.79816 0.0
C903 C 0.98598 0.55176 0.75684 0.0
C904 C 1.0034 0.55035 0.7307 0.0
C905 C 0.01861 0.56192 0.74715 0.0
C906 C 0.01647 0.57449 0.78853 0.0
H907 H 0.9649 0.62233 0.81375 0.0
H908 H 0.97855 0.6056 0.7769 0.0
H909 H 0.9586 0.59759 0.81426 0.0
H910 H 0.97032 0.56488 0.81781 0.0
H911 H 0.97394 0.54311 0.7453 0.0
H912 H 0.05698 0.19763 0.15563 0.0
H913 H 0.04732 0.17438 0.21937 0.0
H914 H 0.07809 0.20534 0.33555 0.0
H915 H 0.08799 0.22888 0.27143 0.0
H916 H 0.06613 0.15085 0.28913 0.0
H917 H 0.02274 0.20623 0.3854 0.0
H918 H 0.03326 0.2099 0.32318 0.0
H919 H 0.04774 0.21099 0.37961 0.0
C920 C 0.06225 0.19925 0.19433 0.0
C921 C 0.07324 0.21515 0.20849 0.0
C922 C 0.0566 0.18597 0.23082 0.0
C923 C 0.06177 0.18832 0.2822 0.0
C924 C 0.07371 0.20349 0.29613 0.0
H925 H 0.01546 0.10968 0.51442 0.0
H926 H 0.038 0.13069 0.46992 0.0
C927 C 0.07936 0.21688 0.25953 0.0
C928 C 0.05308 0.17572 0.32102 0.0
H929 H 0.01886 0.17492 0.41367 0.0
C930 C 0.0561 0.15611 0.31715 0.0
C931 C 0.0398 0.18269 0.35698 0.0
C932 C 0.03552 0.20357 0.36158 0.0
C933 C 0.04566 0.14322 0.34709 0.0
C934 C 0.03198 0.15019 0.3816 0.0
C935 C 0.02949 0.16977 0.38712 0.0
C936 C 0.01873 0.13735 0.40838 0.0
C937 C 0.0485 0.1222 0.33991 0.0
C938 C 1.00052 0.13437 0.38835 0.0
C939 C 0.98768 0.1224 0.41338 0.0
C940 C 0.99287 0.11325 0.45896 0.0
C941 C 0.01115 0.11638 0.47906 0.0
C942 C 0.024 0.12838 0.4539 0.0
H943 H 0.06001 0.11907 0.31214 0.0
H944 H 0.05199 0.11555 0.37719 0.0
H945 H 0.03512 0.11556 0.32603 0.0
H946 H 0.9963 0.14124 0.35312 0.0
H947 H 0.97382 0.12004 0.39661 0.0
H948 H 0.32641 0.06684 0.16362 0.0
H949 H 0.35027 0.05773 0.22538 0.0
H950 H 0.31492 0.07758 0.34872 0.0
H951 H 0.29085 0.08743 0.28656 0.0
H952 H 0.36969 0.07827 0.30999 0.0
H953 H 0.32211 0.01843 0.36934 0.0
H954 H 0.31834 0.03103 0.31016 0.0
H955 H 0.31316 0.04229 0.37007 0.0
C956 C 0.32388 0.07002 0.20359 0.0
C957 C 0.30663 0.07789 0.22001 0.0
C958 C 0.33753 0.06464 0.23893 0.0
C959 C 0.33423 0.06685 0.29143 0.0
C960 C 0.31758 0.07565 0.30822 0.0
H961 H 0.42021 0.01239 0.48763 0.0
H962 H 0.3941 0.03383 0.46607 0.0
C963 C 0.30387 0.0812 0.27269 0.0
C964 C 0.34756 0.05805 0.32752 0.0
H965 H 0.35419 0.01653 0.39187 0.0
C966 C 0.36622 0.06508 0.32937 0.0
C967 C 0.34292 0.04076 0.35215 0.0
C968 C 0.32308 0.03253 0.35049 0.0
C969 C 0.38066 0.05463 0.35261 0.0
C970 C 0.37622 0.03676 0.37404 0.0
C971 C 0.35738 0.0303 0.37529 0.0
C972 C 0.39127 0.02351 0.3885 0.0
C973 C 0.40079 0.06201 0.35101 0.0
C974 C 0.39793 0.01055 0.35206 0.0
C975 C 0.41267 0.9983 0.36421 0.0
C976 C 0.421 0.99895 0.41292 0.0
C977 C 0.41405 0.01174 0.44969 0.0
C978 C 0.3992 0.02393 0.43757 0.0
H979 H 0.40163 0.07693 0.33747 0.0
H980 H 0.40727 0.06115 0.38963 0.0
H981 H 0.4093 0.05302 0.32486 0.0
H982 H 0.39191 0.01016 0.31392 0.0
H983 H 0.41794 0.98874 0.33508 0.0
H984 H 0.43846 0.29145 0.28166 0.0
H985 H 0.44776 0.31477 0.3467 0.0
H986 H 0.46995 0.35156 0.22882 0.0
H987 H 0.46136 0.32831 0.164 0.0
H988 H 0.48702 0.32539 0.35584 0.0
H989 H 0.44129 0.38804 0.32558 0.0
H990 H 0.43471 0.36448 0.30419 0.0
H991 H 0.45143 0.37847 0.26804 0.0
C992 C 0.44503 0.30465 0.2695 0.0
C993 C 0.44924 0.30792 0.21755 0.0
C994 C 0.45022 0.31798 0.30667 0.0
C995 C 0.45939 0.3349 0.2924 0.0
C996 C 0.46253 0.33874 0.24048 0.0
H997 H 0.53058 0.42159 0.41535 0.0
H998 H 0.51085 0.40009 0.36439 0.0
C999 C 0.45752 0.3254 0.20338 0.0
C1000 C 0.46804 0.34736 0.33151 0.0
H1001 H 0.46982 0.39318 0.37347 0.0
C1002 C 0.48304 0.34012 0.36056 0.0
C1003 C 0.46293 0.36659 0.33679 0.0
C1004 C 0.4466 0.37487 0.30733 0.0
C1005 C 0.4936 0.35184 0.39343 0.0
C1006 C 0.48874 0.37116 0.39795 0.0
C1007 C 0.47343 0.37831 0.36989 0.0
C1008 C 0.5001 0.38439 0.42949 0.0
C1009 C 0.51044 0.34372 0.42121 0.0
C1010 C 0.50044 0.38267 0.48295 0.0
C1011 C 0.51159 0.39503 0.5123 0.0
C1012 C 0.52257 0.40929 0.48854 0.0
C1013 C 0.5221 0.41093 0.43489 0.0
C1014 C 0.5109 0.39865 0.40569 0.0
H1015 H 0.51423 0.32942 0.40675 0.0
H1016 H 0.52298 0.35326 0.41718 0.0
H1017 H 0.50708 0.34252 0.46259 0.0
H1018 H 0.49202 0.37183 0.50191 0.0
H1019 H 0.51141 0.39358 0.55358 0.0
H1020 H 0.19545 0.43421 0.19189 0.0
H1021 H 0.17235 0.44691 0.25283 0.0
H1022 H 0.21709 0.47755 0.33015 0.0
H1023 H 0.24003 0.46579 0.2686 0.0
H1024 H 0.16853 0.44886 0.36312 0.0
H1025 H 0.18164 0.51892 0.27215 0.0
H1026 H 0.18969 0.49698 0.24431 0.0
H1027 H 0.20267 0.50782 0.296 0.0
C1028 C 0.20042 0.44342 0.22236 0.0
C1029 C 0.21957 0.44921 0.22472 0.0
C1030 C 0.18722 0.45056 0.25724 0.0
C1031 C 0.19303 0.46349 0.29503 0.0
C1032 C 0.21234 0.46781 0.3006 0.0
H1033 H 0.13219 0.51547 0.54423 0.0
H1034 H 0.15305 0.49654 0.49028 0.0
C1035 C 0.22549 0.46084 0.26564 0.0
C1036 C 0.17886 0.474 0.32519 0.0
H1037 H 0.16279 0.51876 0.34743 0.0
C1038 C 0.16718 0.46412 0.3597 0.0
C1039 C 0.17689 0.49385 0.31956 0.0
C1040 C 0.18824 0.50503 0.28066 0.0
C1041 C 0.15395 0.47374 0.39017 0.0
C1042 C 0.15268 0.49371 0.38635 0.0
C1043 C 0.16397 0.50347 0.35066 0.0
C1044 C 0.13985 0.5049 0.41916 0.0
C1045 C 0.14131 0.46244 0.42571 0.0
C1046 C 0.12598 0.51638 0.39691 0.0
C1047 C 0.11425 0.52747 0.42763 0.0
C1048 C 0.1162 0.52731 0.48122 0.0
C1049 C 0.13035 0.51602 0.50323 0.0
C1050 C 0.14211 0.50496 0.47247 0.0
H1051 H 0.14036 0.4473 0.41403 0.0
H1052 H 0.14726 0.46302 0.46499 0.0
H1053 H 0.12678 0.46839 0.42688 0.0
H1054 H 0.12421 0.51672 0.35573 0.0
H1055 H 0.10371 0.53624 0.40935 0.0
H1056 H 0.97989 0.79463 0.94127 0.0
H1057 H 0.98308 0.82011 0.87851 0.0
H1058 H 0.94729 0.8558 0.97064 0.0
H1059 H 0.94352 0.83017 0.03323 0.0
H1060 H 0.9515 0.84836 0.82775 0.0
H1061 H 0.00622 0.8773 0.96172 0.0
H1062 H 1.0003 0.85233 0.96092 0.0
H1063 H 0.98372 0.86901 0.98632 0.0
C1064 C 0.97212 0.80763 0.9474 0.0
C1065 C 0.96158 0.81045 0.99246 0.0
C1066 C 0.974 0.82217 0.91153 0.0
C1067 C 0.96542 0.83973 0.92023 0.0
C1068 C 0.95394 0.84226 0.96344 0.0
H1069 H 0.0173 0.93918 0.7833 0.0
H1070 H 0.9937 0.92127 0.83167 0.0
C1071 C 0.95197 0.82769 0.99926 0.0
C1072 C 0.97086 0.85603 0.88808 0.0
H1073 H 1.004 0.89131 0.88111 0.0
C1074 C 0.96275 0.85802 0.83947 0.0
C1075 C 0.9854 0.86858 0.904 0.0
C1076 C 0.99454 0.86683 0.95601 0.0
C1077 C 0.96934 0.872 0.80538 0.0
C1078 C 0.98474 0.88383 0.8201 0.0
C1079 C 0.99216 0.88233 0.8698 0.0
C1080 C 0.99499 0.8963 0.78354 0.0
C1081 C 0.95991 0.87379 0.75387 0.0
C1082 C 1.00298 0.88855 0.73903 0.0
C1083 C 0.01622 0.89892 0.71055 0.0
C1084 C 0.02209 0.9171 0.72663 0.0
C1085 C 0.0131 0.9253 0.76933 0.0
C1086 C 0.99964 0.91502 0.79735 0.0
H1087 H 0.94467 0.86969 0.75619 0.0
H1088 H 0.96103 0.88847 0.73872 0.0
H1089 H 0.96681 0.86402 0.72637 0.0
H1090 H 0.99993 0.87403 0.72799 0.0
H1091 H 0.02249 0.89232 0.67718 0.0
H1092 H 0.7114 0.92806 0.01158 0.0
H1093 H 0.68477 0.93343 0.9536 0.0
H1094 H 0.71321 0.9831 0.89355 0.0
H1095 H 0.73975 0.97781 0.95104 0.0
H1096 H 0.66605 0.96605 0.9723 0.0
H1097 H 0.68558 0.96361 0.76729 0.0
H1098 H 0.69923 0.95186 0.81625 0.0
H1099 H 0.7025 0.97684 0.80449 0.0
C1100 C 0.71223 0.93972 0.98467 0.0
C1101 C 0.72749 0.95267 0.98627 0.0
C1102 C 0.69709 0.9427 0.9514 0.0
C1103 C 0.69704 0.95863 0.91921 0.0
C1104 C 0.71311 0.97049 0.91722 0.0
H1105 H 0.6186 0.04352 0.85897 0.0
H1106 H 0.6457 0.02275 0.87346 0.0
C1107 C 0.72828 0.96749 0.95035 0.0
C1108 C 0.67898 0.96535 0.89746 0.0
H1109 H 0.6592 0.98413 0.7898 0.0
C1110 C 0.66434 0.96947 0.93209 0.0
C1111 C 0.67688 0.97001 0.84516 0.0
C1112 C 0.69184 0.96518 0.80609 0.0
C1113 C 0.64813 0.9791 0.9164 0.0
C1114 C 0.64654 0.98473 0.86484 0.0
C1115 C 0.66063 0.97979 0.82943 0.0
C1116 C 0.63105 0.99724 0.84899 0.0
C1117 C 0.63321 0.98415 0.95552 0.0
C1118 C 0.61404 0.98962 0.83003 0.0
C1119 C 0.5985 1.00142 0.82208 0.0
C1120 C 0.59983 0.02093 0.83328 0.0
C1121 C 0.61713 0.02852 0.85072 0.0
C1122 C 0.63264 0.01675 0.85846 0.0
H1123 H 0.63551 0.97689 0.99269 0.0
H1124 H 0.63353 0.99971 0.96222 0.0
H1125 H 0.61888 0.98033 0.94104 0.0
H1126 H 0.61261 0.97451 0.82321 0.0
H1127 H 0.58527 0.99518 0.80898 0.0
H1128 H 0.59981 0.71256 0.9911 0.0
H1129 H 0.58977 0.68725 0.93126 0.0
H1130 H 0.53132 0.7029 0.95426 0.0
H1131 H 0.54132 0.72837 0.01175 0.0
H1132 H 0.5659 0.65615 0.94299 0.0
H1133 H 0.53608 0.70558 0.80072 0.0
H1134 H 0.55121 0.71355 0.85223 0.0
H1135 H 0.52624 0.7095 0.86308 0.0
C1136 C 0.58489 0.71057 0.98268 0.0
C1137 C 0.57131 0.72255 1.00457 0.0
C1138 C 0.57916 0.69617 0.9489 0.0
C1139 C 0.55984 0.69358 0.93735 0.0
C1140 C 0.54632 0.70507 0.96126 0.0
H1141 H 0.49239 0.60188 0.82556 0.0
H1142 H 0.51309 0.62291 0.87531 0.0
C1143 C 0.55202 0.71955 0.99408 0.0
C1144 C 0.55345 0.67901 0.90033 0.0
H1145 H 0.52497 0.6733 0.79617 0.0
C1146 C 0.55723 0.65985 0.91029 0.0
C1147 C 0.54242 0.68391 0.85724 0.0
C1148 C 0.53893 0.70428 0.84238 0.0
C1149 C 0.54938 0.64538 0.8797 0.0
C1150 C 0.53715 0.6503 0.83897 0.0
C1151 C 0.53421 0.66949 0.82763 0.0
C1152 C 0.52634 0.63598 0.80908 0.0
C1153 C 0.55419 0.62505 0.89158 0.0
C1154 C 0.52662 0.63654 0.75533 0.0
C1155 C 0.51448 0.62487 0.72694 0.0
C1156 C 0.50194 0.61234 0.75186 0.0
C1157 C 0.50206 0.61134 0.80554 0.0
C1158 C 0.51402 0.62321 0.83394 0.0
H1159 H 0.56829 0.62404 0.91031 0.0
H1160 H 0.54348 0.61916 0.91852 0.0
H1161 H 0.55425 0.61617 0.85645 0.0
H1162 H 0.53595 0.64636 0.73535 0.0
H1163 H 0.51478 0.62572 0.68553 0.0
H1164 H 0.79362 0.53798 0.97137 0.0
H1165 H 0.81899 0.53016 0.91185 0.0
H1166 H 0.84981 0.5806 0.9571 0.0
H1167 H 0.82436 0.58844 0.01777 0.0
H1168 H 0.83438 0.54965 0.82989 0.0
H1169 H 0.88789 0.53828 0.98341 0.0
H1170 H 0.86293 0.5406 0.99718 0.0
H1171 H 0.87691 0.56118 0.98121 0.0
C1172 C 0.8056 0.54764 0.96797 0.0
C1173 C 0.807 0.56387 0.999 0.0
C1174 C 0.82014 0.54309 0.93415 0.0
C1175 C 0.83636 0.55468 0.93055 0.0
C1176 C 0.83755 0.5713 0.96006 0.0
H1177 H 0.92063 0.52112 0.69812 0.0
H1178 H 0.90184 0.54205 0.75356 0.0
C1179 C 0.82301 0.5758 0.9944 0.0
C1180 C 0.85207 0.54867 0.89689 0.0
H1181 H 0.8967 0.53025 0.89945 0.0
C1182 C 0.84815 0.54575 0.84482 0.0
C1183 C 0.86995 0.54347 0.9168 0.0
C1184 C 0.87474 0.54588 0.97273 0.0
C1185 C 0.8613 0.53695 0.81254 0.0
C1186 C 0.87888 0.5312 0.83281 0.0
C1187 C 0.8832 0.53486 0.88425 0.0
C1188 C 0.89184 0.51932 0.80254 0.0
C1189 C 0.85592 0.53282 0.75772 0.0
C1190 C 0.89256 0.49979 0.81245 0.0
C1191 C 0.90298 0.48791 0.78054 0.0
C1192 C 0.91303 0.49547 0.73883 0.0
C1193 C 0.91295 0.5151 0.73011 0.0
C1194 C 0.90229 0.52699 0.76166 0.0
H1195 H 0.84099 0.53664 0.74931 0.0
H1196 H 0.86537 0.541 0.73166 0.0
H1197 H 0.85786 0.51752 0.74916 0.0
H1198 H 0.88453 0.49368 0.84386 0.0
H1199 H 0.90301 0.47279 0.78795 0.0
H1200 H 0.02121 0.20241 0.91041 0.0
H1201 H 0.01905 0.17127 0.8699 0.0
H1202 H 0.03704 0.19576 0.72635 0.0
H1203 H 0.04002 0.22691 0.76764 0.0
H1204 H 0.99864 0.15657 0.80092 0.0
H1205 H 0.07211 0.15264 0.7279 0.0
H1206 H 0.06451 0.17138 0.76992 0.0
H1207 H 0.05989 0.17265 0.70215 0.0
C1208 C 0.02463 0.20123 0.87011 0.0
C1209 C 0.03074 0.21728 0.84237 0.0
C1210 C 0.02345 0.1833 0.84686 0.0
C1211 C 0.02819 0.1808 0.79494 0.0
C1212 C 0.03387 0.19694 0.76675 0.0
H1213 H 0.99155 0.07393 0.64344 0.0
H1214 H 0.99371 0.10676 0.67353 0.0
C1215 C 0.03539 0.21487 0.79032 0.0
C1216 C 0.02672 0.16139 0.77079 0.0
H1217 H 0.05069 0.12883 0.69846 0.0
C1218 C 0.01012 0.15052 0.77874 0.0
C1219 C 0.04169 0.1531 0.74229 0.0
C1220 C 0.06062 0.16296 0.73551 0.0
C1221 C 0.00809 0.13186 0.75973 0.0
C1222 C 0.02271 0.12387 0.7293 0.0
C1223 C 0.03929 0.13479 0.72111 0.0
C1224 C 0.02157 0.10401 0.70768 0.0
C1225 C 0.99054 0.12073 0.77467 0.0
C1226 C 0.0369 0.09151 0.71332 0.0
C1227 C 0.03599 0.07294 0.69396 0.0
C1228 C 0.01952 0.06601 0.66962 0.0
C1229 C 1.00431 0.07857 0.66301 0.0
C1230 C 1.00547 0.09739 0.68085 0.0
H1231 H 0.98421 0.12626 0.81063 0.0
H1232 H 0.97973 0.1221 0.74412 0.0
H1233 H 0.9937 0.10548 0.78022 0.0
H1234 H 0.04962 0.09604 0.73326 0.0
H1235 H 0.04817 0.06397 0.69886 0.0
H1236 H 0.30519 1.00635 0.82876 0.0
H1237 H 0.33643 1.00333 0.78856 0.0
H1238 H 0.34609 0.06339 0.80704 0.0
H1239 H 0.31543 0.06641 0.8493 0.0
H1240 H 0.35309 0.01823 0.70356 0.0
H1241 H 0.39302 0.0432 0.87348 0.0
H1242 H 0.36804 0.03753 0.8761 0.0
H1243 H 0.376 0.06011 0.85164 0.0
C1244 C 0.31397 0.01893 0.82474 0.0
C1245 C 0.30758 0.03662 0.84296 0.0
C1246 C 0.33188 0.0172 0.80129 0.0
C1247 C 0.344 0.03304 0.79557 0.0
C1248 C 0.33737 0.0508 0.81197 0.0
H1249 H 0.45743 0.05134 0.66363 0.0
H1250 H 0.42518 0.05483 0.69803 0.0
C1251 C 0.31954 0.05255 0.83555 0.0
C1252 C 0.36355 0.03099 0.77302 0.0
H1253 H 0.41071 0.03966 0.79659 0.0
C1254 C 0.36566 0.02284 0.72413 0.0
C1255 C 0.38015 0.03694 0.79953 0.0
C1256 C 0.37927 0.04475 0.85327 0.0
C1257 C 0.38368 0.02079 0.70099 0.0
C1258 C 0.4002 0.02688 0.72738 0.0
C1259 C 0.39811 0.03505 0.77612 0.0
C1260 C 0.41977 0.0247 0.70548 0.0
C1261 C 0.38493 0.01242 0.64796 0.0
C1262 C 0.42776 1.00664 0.69878 0.0
C1263 C 0.44645 1.00468 0.68056 0.0
C1264 C 0.45752 0.02071 0.66775 0.0
C1265 C 0.44945 0.03874 0.67403 0.0
C1266 C 0.4309 0.04073 0.69316 0.0
H1267 H 0.37091 0.01201 0.62862 0.0
H1268 H 0.39504 0.02071 0.62395 0.0
H1269 H 0.39026 0.9977 0.65061 0.0
H1270 H 0.41968 0.99404 0.70881 0.0
H1271 H 0.45239 0.99064 0.67795 0.0
H1272 H 0.462 0.31606 0.84241 0.0
H1273 H 0.46463 0.34652 0.79867 0.0
H1274 H 0.5253 0.34029 0.78993 0.0
H1275 H 0.52273 0.30929 0.83122 0.0
H1276 H 0.48124 0.37841 0.8273 0.0
H1277 H 0.51507 0.35621 0.64606 0.0
H1278 H 0.50518 0.33933 0.69084 0.0
H1279 H 0.52858 0.34913 0.70078 0.0
C1280 C 0.47591 0.32082 0.83006 0.0
C1281 C 0.49213 0.30986 0.8403 0.0
C1282 C 0.4774 0.33848 0.80539 0.0
C1283 C 0.49514 0.3458 0.79002 0.0
C1284 C 0.51136 0.33492 0.80007 0.0
H1285 H 0.53624 0.45533 0.67783 0.0
H1286 H 0.53251 0.423 0.711 0.0
C1287 C 0.50988 0.31719 0.8245 0.0
C1288 C 0.49668 0.36515 0.76592 0.0
H1289 H 0.5152 0.3895 0.66347 0.0
C1290 C 0.48854 0.38074 0.79125 0.0
C1291 C 0.50613 0.36842 0.71864 0.0
C1292 C 0.51406 0.35236 0.68722 0.0
C1293 C 0.48998 0.39934 0.77155 0.0
C1294 C 0.49978 0.4026 0.72498 0.0
C1295 C 0.5078 0.38707 0.69935 0.0
C1296 C 0.50201 0.42207 0.70268 0.0
C1297 C 0.48136 0.41547 0.80133 0.0
C1298 C 0.48617 0.43228 0.68572 0.0
C1299 C 0.48831 0.45069 0.66586 0.0
C1300 C 0.5063 0.45949 0.66308 0.0
C1301 C 0.52216 0.44909 0.67932 0.0
C1302 C 0.52005 0.43057 0.6985 0.0
H1303 H 0.47784 0.41131 0.84127 0.0
H1304 H 0.49114 0.42791 0.80231 0.0
H1305 H 0.46807 0.41993 0.78226 0.0
H1306 H 0.47212 0.42597 0.68766 0.0
H1307 H 0.47581 0.45801 0.65273 0.0
H1308 H 0.21326 0.52411 0.8387 0.0
H1309 H 0.18186 0.52597 0.79943 0.0
H1310 H 0.17767 0.46495 0.79866 0.0
H1311 H 0.20846 0.46294 0.84042 0.0
H1312 H 0.16695 0.51422 0.71137 0.0
H1313 H 0.12867 0.47695 0.86739 0.0
H1314 H 0.15309 0.48443 0.87346 0.0
H1315 H 0.14712 0.46284 0.83997 0.0
C1316 C 0.20564 0.51104 0.83077 0.0
C1317 C 0.21361 0.49337 0.84351 0.0
C1318 C 0.18763 0.51213 0.80783 0.0
C1319 C 0.17698 0.49563 0.797 0.0
C1320 C 0.18519 0.47797 0.8078 0.0
H1321 H 0.06494 0.47596 0.6568 0.0
H1322 H 0.09681 0.47247 0.69296 0.0
C1323 C 0.20312 0.47685 0.83101 0.0
C1324 C 0.1574 0.49692 0.77441 0.0
H1325 H 0.11105 0.48303 0.7918 0.0
C1326 C 0.15477 0.50744 0.72924 0.0
C1327 C 0.14127 0.48814 0.79734 0.0
C1328 C 0.1426 0.47762 0.84747 0.0
C1329 C 0.13674 0.50922 0.70636 0.0
C1330 C 0.12069 0.50037 0.72916 0.0
C1331 C 0.12329 0.48973 0.77402 0.0
C1332 C 0.10106 0.50242 0.70777 0.0
C1333 C 0.13508 0.52041 0.65747 0.0
C1334 C 0.09258 0.52034 0.70436 0.0
C1335 C 0.07416 0.52229 0.68477 0.0
C1336 C 0.06366 0.50636 0.66793 0.0
C1337 C 0.07227 0.48845 0.67081 0.0
C1338 C 0.09063 0.48647 0.69106 0.0
H1339 H 0.14878 0.52108 0.63646 0.0
H1340 H 0.1241 0.51417 0.63197 0.0
H1341 H 0.13086 0.53514 0.66683 0.0
H1342 H 0.10015 0.53288 0.71735 0.0
H1343 H 0.06811 0.53635 0.68319 0.0
H1344 H 0.96021 0.80829 0.42928 0.0
H1345 H 0.96393 0.83937 0.46868 0.0
H1346 H 0.02268 0.84088 0.42304 0.0
H1347 H 0.01866 0.81075 0.37888 0.0
H1348 H 0.98237 0.85454 0.54179 0.0
H1349 H 0.00873 0.89038 0.36726 0.0
H1350 H 0.99992 0.86633 0.36609 0.0
H1351 H 0.02402 0.87139 0.38522 0.0
C1352 C 0.97389 0.81526 0.42638 0.0
C1353 C 0.98895 0.80678 0.39912 0.0
C1354 C 0.97606 0.83313 0.4498 0.0
C1355 C 0.99344 0.84307 0.44766 0.0
C1356 C 0.00885 0.83409 0.42368 0.0
H1357 H 0.03486 0.95036 0.5766 0.0
H1358 H 0.03112 0.91798 0.54398 0.0
C1359 C 0.0066 0.81643 0.39919 0.0
C1360 C 0.99534 0.86272 0.47025 0.0
H1361 H 0.01143 0.90787 0.44497 0.0
C1362 C 0.98865 0.86615 0.52029 0.0
C1363 C 1.00329 0.87824 0.44251 0.0
C1364 C 0.00919 0.87647 0.38715 0.0
C1365 C 0.99005 0.88427 0.54333 0.0
C1366 C 0.99853 0.89949 0.51608 0.0
C1367 C 1.00514 0.89617 0.46618 0.0
C1368 C 1.00056 0.91901 0.53833 0.0
C1369 C 0.98253 0.88701 0.59688 0.0
C1370 C 0.98463 0.9305 0.54635 0.0
C1371 C 0.98671 0.94916 0.56483 0.0
C1372 C 1.00481 0.95682 0.57586 0.0
C1373 C 0.0207 0.94511 0.56851 0.0
C1374 C 0.0186 0.92652 0.54976 0.0
H1375 H 0.98032 0.87329 0.61704 0.0
H1376 H 0.99232 0.89603 0.61973 0.0
H1377 H 0.9687 0.89438 0.5949 0.0
H1378 H 0.97056 0.92515 0.53751 0.0
H1379 H 0.97411 0.95761 0.57011 0.0
H1380 H 0.71318 0.01631 0.36652 0.0
H1381 H 0.68271 0.02065 0.40925 0.0
H1382 H 0.68624 0.96439 0.47273 0.0
H1383 H 0.71727 0.96041 0.43326 0.0
H1384 H 0.6504 1.00297 0.39501 0.0
H1385 H 0.66967 0.99133 0.59767 0.0
H1386 H 0.68735 0.99422 0.54827 0.0
H1387 H 0.67584 0.97157 0.55799 0.0
C1388 C 0.70785 1.00502 0.3908 0.0
C1389 C 0.71801 0.98798 0.39606 0.0
C1390 C 0.69018 1.00746 0.41487 0.0
C1391 C 0.68201 0.99298 0.44502 0.0
C1392 C 0.69221 0.97605 0.45091 0.0
H1393 H 0.56961 0.97783 0.58889 0.0
H1394 H 0.60171 0.9733 0.5542 0.0
C1395 C 0.70998 0.97367 0.42737 0.0
C1396 C 0.66247 0.99521 0.46763 0.0
H1397 H 0.63659 0.99154 0.57863 0.0
C1398 C 0.6475 1.0006 0.43529 0.0
C1399 C 0.65837 0.99201 0.52021 0.0
C1400 C 0.67369 0.98715 0.55812 0.0
C1401 C 0.62878 1.00266 0.45359 0.0
C1402 C 0.62471 0.99948 0.50606 0.0
C1403 C 0.63959 0.99395 0.53842 0.0
C1404 C 0.60522 1.00225 0.52811 0.0
C1405 C 0.61342 0.00787 0.41613 0.0
C1406 C 0.59641 0.02004 0.52572 0.0
C1407 C 0.57806 0.02262 0.5454 0.0
C1408 C 0.56802 1.00757 0.56868 0.0
C1409 C 0.5769 0.98977 0.57139 0.0
C1410 C 0.59531 0.98718 0.55168 0.0
H1411 H 0.6176 1.00464 0.37605 0.0
H1412 H 0.59997 1.00021 0.42487 0.0
H1413 H 0.61074 0.02333 0.41878 0.0
H1414 H 0.60371 0.03199 0.50834 0.0
H1415 H 0.57157 0.03633 0.54083 0.0
H1416 H 0.56329 0.70454 0.35442 0.0
H1417 H 0.55835 0.67432 0.3981 0.0
H1418 H 0.50621 0.695 0.46271 0.0
H1419 H 0.51115 0.72554 0.41944 0.0
H1420 H 0.55437 0.66579 0.50294 0.0
H1421 H 0.48937 0.64494 0.39617 0.0
H1422 H 0.50472 0.66409 0.37541 0.0
H1423 H 0.48855 0.66757 0.42773 0.0
C1424 C 0.55086 0.70289 0.37844 0.0
C1425 C 0.53767 0.71774 0.38329 0.0
C1426 C 0.54799 0.68543 0.40324 0.0
C1427 C 0.53178 0.68213 0.43337 0.0
C1428 C 0.51866 0.69695 0.43891 0.0
H1429 H 0.48971 0.57715 0.57909 0.0
H1430 H 0.49363 0.60975 0.54858 0.0
C1431 C 0.52152 0.71448 0.41408 0.0
C1432 C 0.52879 0.6632 0.45869 0.0
H1433 H 0.49959 0.6241 0.46063 0.0
C1434 C 0.54236 0.65669 0.49375 0.0
C1435 C 0.51306 0.65128 0.44726 0.0
C1436 C 0.49813 0.65718 0.40932 0.0
C1437 C 0.54061 0.63882 0.51783 0.0
C1438 C 0.52518 0.62657 0.50519 0.0
C1439 C 0.51147 0.63325 0.47055 0.0
C1440 C 0.52309 0.60676 0.52648 0.0
C1441 C 0.55515 0.63362 0.55764 0.0
C1442 C 0.53823 0.59387 0.52489 0.0
C1443 C 0.53617 0.57537 0.54415 0.0
C1444 C 0.51865 0.56875 0.56342 0.0
C1445 C 0.50343 0.58157 0.56453 0.0
C1446 C 0.50564 0.6003 0.54668 0.0
H1447 H 0.56139 0.64648 0.5759 0.0
H1448 H 0.54891 0.62451 0.58809 0.0
H1449 H 0.56691 0.62586 0.53895 0.0
H1450 H 0.5517 0.598 0.50822 0.0
H1451 H 0.54839 0.56626 0.54357 0.0
H1452 H 0.8001 0.5515 0.45537 0.0
H1453 H 0.83105 0.54937 0.49817 0.0
H1454 H 0.85197 0.51492 0.37454 0.0
H1455 H 0.82125 0.51697 0.33153 0.0
H1456 H 0.85412 0.51098 0.52084 0.0
H1457 H 0.88888 0.56467 0.39507 0.0
H1458 H 0.86366 0.56464 0.40759 0.0
H1459 H 0.87356 0.54729 0.36531 0.0
C1460 C 0.81124 0.5434 0.43732 0.0
C1461 C 0.80799 0.53432 0.38992 0.0
C1462 C 0.82894 0.54215 0.46199 0.0
C1463 C 0.84391 0.53202 0.43959 0.0
C1464 C 0.84068 0.52281 0.39267 0.0
H1465 H 0.9642 0.51485 0.48652 0.0
H1466 H 0.93185 0.51858 0.45489 0.0
C1467 C 0.82298 0.52388 0.36827 0.0
C1468 C 0.86307 0.53131 0.46426 0.0
H1469 H 0.90858 0.54805 0.45201 0.0
C1470 C 0.86601 0.51919 0.50613 0.0
C1471 C 0.87863 0.54195 0.44503 0.0
C1472 C 0.87617 0.55549 0.40094 0.0
C1473 C 0.88417 0.51698 0.52816 0.0
C1474 C 0.89985 0.52752 0.50854 0.0
C1475 C 0.89673 0.5399 0.4672 0.0
C1476 C 0.9197 0.52541 0.52873 0.0
C1477 C 0.8865 0.5028 0.5709 0.0
C1478 C 0.92401 0.52824 0.58084 0.0
C1479 C 0.94265 0.52609 0.59903 0.0
C1480 C 0.95751 0.52135 0.56551 0.0
C1481 C 0.95322 0.51876 0.51337 0.0
C1482 C 0.93462 0.52082 0.49523 0.0
H1483 H 0.87463 0.49232 0.5718 0.0
H1484 H 0.90004 0.49499 0.56708 0.0
H1485 H 0.88662 0.51038 0.60815 0.0
H1486 H 0.913 0.53234 0.60744 0.0
H1487 H 0.94553 0.52846 0.63922 0.0
loop_
_geom_bond_atom_site_label_1
_geom_bond_atom_site_label_2
_geom_bond_distance
_geom_bond_site_symmetry_2
_ccdc_geom_bond_type
C0 C1 1.384 . S
C0 H13 0.947 . S
C0 C35 1.382 . S
C1 C0 1.384 . S
C1 C2 1.378 . S
C2 C1 1.378 . S
C2 C3 1.378 . S
C2 H14 0.952 . S
C3 C2 1.378 . S
C3 H15 0.950 . S
C3 C34 1.383 . S
H4 C23 0.947 . S
H5 C24 0.946 . S
H6 C26 0.953 . S
H7 C27 0.945 . S
H8 C29 0.952 . S
H9 C30 0.949 1_556 S
H10 C32 0.950 . S
H11 C33 0.948 . S
H12 C35 0.951 . S
H13 C0 0.947 . S
H14 C2 0.952 . S
H15 C3 0.950 . S
N16 C19 1.382 . S
N16 C21 1.363 . S
N17 C19 1.371 . S
N17 C20 1.372 . S
N18 C20 1.361 . S
N18 C21 1.377 . S
C19 N16 1.382 . S
C19 N17 1.371 . S
C19 C22 1.480 . S
C20 N17 1.372 . S
C20 N18 1.361 . S
C20 C28 1.457 . S
C21 N16 1.363 . S
C21 N18 1.377 . S
C21 C34 1.479 . S
C22 C19 1.480 . S
C22 C23 1.383 . S
C22 C27 1.385 . S
C23 H4 0.947 . S
C23 C22 1.383 . S
C23 C24 1.388 . S
C24 H5 0.946 . S
C24 C23 1.388 . S
C24 C25 1.384 . S
C25 C24 1.384 . S
C25 C26 1.377 . S
C26 H6 0.953 . S
C26 C25 1.377 . S
C26 C27 1.369 . S
C27 H7 0.945 . S
C27 C22 1.385 . S
C27 C26 1.369 . S
C28 C20 1.457 . S
C28 C29 1.372 . S
C28 C33 1.364 . S
C29 H8 0.952 . S
C29 C28 1.372 . S
C29 C30 1.389 . S
C30 H9 0.949 1_554 S
C30 C29 1.389 . S
C30 C31 1.387 . S
C31 C30 1.387 . S
C31 C32 1.372 . S
C32 H10 0.950 . S
C32 C31 1.372 . S
C32 C33 1.379 . S
C33 H11 0.948 . S
C33 C28 1.364 . S
C33 C32 1.379 . S
C34 C3 1.383 . S
C34 C21 1.479 . S
C34 C35 1.398 . S
C35 C0 1.382 . S
C35 H12 0.951 . S
C35 C34 1.398 . S
C36 C37 1.384 . S
C36 H49 0.947 . S
C36 C71 1.382 . S
C37 C36 1.384 . S
C37 C38 1.378 . S
C38 C37 1.378 . S
C38 C39 1.378 . S
C38 H50 0.952 . S
C39 C38 1.378 . S
C39 H51 0.950 . S
C39 C70 1.383 . S
H40 C59 0.947 . S
H41 C60 0.946 . S
H42 C62 0.953 . S
H43 C63 0.945 . S
H44 C65 0.952 . S
H45 C66 0.949 1_556 S
H46 C68 0.950 . S
H47 C69 0.948 . S
H48 C71 0.951 . S
H49 C36 0.947 . S
H50 C38 0.952 . S
H51 C39 0.950 . S
N52 C55 1.382 . S
N52 C57 1.363 . S
N53 C55 1.371 . S
N53 C56 1.372 . S
N54 C56 1.361 . S
N54 C57 1.377 . S
C55 N52 1.382 . S
C55 N53 1.371 . S
C55 C58 1.480 . S
C56 N53 1.372 . S
C56 N54 1.361 . S
C56 C64 1.457 . S
C57 N52 1.363 . S
C57 N54 1.377 . S
C57 C70 1.479 . S
C58 C55 1.480 . S
C58 C59 1.383 . S
C58 C63 1.385 . S
C59 H40 0.947 . S
C59 C58 1.383 . S
C59 C60 1.388 . S
C60 H41 0.946 . S
C60 C59 1.388 . S
C60 C61 1.384 . S
C61 C60 1.384 . S
C61 C62 1.377 . S
C62 H42 0.953 . S
C62 C61 1.377 . S
C62 C63 1.369 . S
C63 H43 0.945 . S
C63 C58 1.385 . S
C63 C62 1.369 . S
C64 C56 1.457 . S
C64 C65 1.372 . S
C64 C69 1.364 . S
C65 H44 0.952 . S
C65 C64 1.372 . S
C65 C66 1.389 . S
C66 H45 0.949 1_554 S
C66 C65 1.389 . S
C66 C67 1.387 . S
C67 C66 1.387 . S
C67 C68 1.372 . S
C68 H46 0.950 . S
C68 C67 1.372 . S
C68 C69 1.379 . S
C69 H47 0.948 . S
C69 C64 1.364 . S
C69 C68 1.379 . S
C70 C39 1.383 . S
C70 C57 1.479 . S
C70 C71 1.398 . S
C71 C36 1.382 . S
C71 H48 0.951 . S
C71 C70 1.398 . S
C72 C73 1.384 . S
C72 H85 0.947 . S
C72 C107 1.382 . S
C73 C72 1.384 . S
C73 C74 1.378 . S
C74 C73 1.378 . S
C74 C75 1.378 . S
C74 H86 0.952 . S
C75 C74 1.378 . S
C75 H87 0.950 . S
C75 C106 1.383 . S
H76 C95 0.947 . S
H77 C96 0.946 . S
H78 C98 0.953 . S
H79 C99 0.945 . S
H80 C101 0.952 . S
H81 C102 0.949 1_556 S
H82 C104 0.950 . S
H83 C105 0.948 . S
H84 C107 0.951 . S
H85 C72 0.947 . S
H86 C74 0.952 . S
H87 C75 0.950 . S
N88 C91 1.382 . S
N88 C93 1.363 . S
N89 C91 1.371 . S
N89 C92 1.372 . S
N90 C92 1.361 . S
N90 C93 1.377 . S
C91 N88 1.382 . S
C91 N89 1.371 . S
C91 C94 1.480 . S
C92 N89 1.372 . S
C92 N90 1.361 . S
C92 C100 1.457 . S
C93 N88 1.363 . S
C93 N90 1.377 . S
C93 C106 1.479 . S
C94 C91 1.480 . S
C94 C95 1.383 . S
C94 C99 1.385 . S
C95 H76 0.947 . S
C95 C94 1.383 . S
C95 C96 1.388 . S
C96 H77 0.946 . S
C96 C95 1.388 . S
C96 C97 1.384 . S
C97 C96 1.384 . S
C97 C98 1.377 . S
C98 H78 0.953 . S
C98 C97 1.377 . S
C98 C99 1.369 . S
C99 H79 0.945 . S
C99 C94 1.385 . S
C99 C98 1.369 . S
C100 C92 1.457 . S
C100 C101 1.372 . S
C100 C105 1.364 . S
C101 H80 0.952 . S
C101 C100 1.372 . S
C101 C102 1.389 . S
C102 H81 0.949 1_554 S
C102 C101 1.389 . S
C102 C103 1.387 . S
C103 C102 1.387 . S
C103 C104 1.372 . S
C104 H82 0.950 . S
C104 C103 1.372 . S
C104 C105 1.379 . S
C105 H83 0.948 . S
C105 C100 1.364 . S
C105 C104 1.379 . S
C106 C75 1.383 . S
C106 C93 1.479 . S
C106 C107 1.398 . S
C107 C72 1.382 . S
C107 H84 0.951 . S
C107 C106 1.398 . S
C108 C109 1.384 . S
C108 H121 0.947 . S
C108 C143 1.382 . S
C109 C108 1.384 . S
C109 C110 1.378 . S
C110 C109 1.378 . S
C110 C111 1.378 . S
C110 H122 0.952 1_554 S
C111 C110 1.378 . S
C111 H123 0.950 . S
C111 C142 1.383 . S
H112 C131 0.947 . S
H113 C132 0.946 . S
H114 C134 0.953 . S
H115 C135 0.945 . S
H116 C137 0.952 . S
H117 C138 0.949 . S
H118 C140 0.950 . S
H119 C141 0.948 . S
H120 C143 0.951 . S
H121 C108 0.947 . S
H122 C110 0.952 1_556 S
H123 C111 0.950 . S
N124 C127 1.382 . S
N124 C129 1.363 . S
N125 C127 1.371 . S
N125 C128 1.372 . S
N126 C128 1.361 . S
N126 C129 1.377 . S
C127 N124 1.382 . S
C127 N125 1.371 . S
C127 C130 1.480 . S
C128 N125 1.372 . S
C128 N126 1.361 . S
C128 C136 1.457 . S
C129 N124 1.363 . S
C129 N126 1.377 . S
C129 C142 1.479 . S
C130 C127 1.480 . S
C130 C131 1.383 . S
C130 C135 1.385 . S
C131 H112 0.947 . S
C131 C130 1.383 . S
C131 C132 1.388 . S
C132 H113 0.946 . S
C132 C131 1.388 . S
C132 C133 1.384 . S
C133 C132 1.384 . S
C133 C134 1.377 . S
C134 H114 0.953 . S
C134 C133 1.377 . S
C134 C135 1.369 . S
C135 H115 0.945 . S
C135 C130 1.385 . S
C135 C134 1.369 . S
C136 C128 1.457 . S
C136 C137 1.372 . S
C136 C141 1.364 . S
C137 H116 0.952 . S
C137 C136 1.372 . S
C137 C138 1.389 . S
C138 H117 0.949 . S
C138 C137 1.389 . S
C138 C139 1.387 . S
C139 C138 1.387 . S
C139 C140 1.372 . S
C140 H118 0.950 . S
C140 C139 1.372 . S
C140 C141 1.379 . S
C141 H119 0.948 . S
C141 C136 1.364 . S
C141 C140 1.379 . S
C142 C111 1.383 . S
C142 C129 1.479 . S
C142 C143 1.398 . S
C143 C108 1.382 . S
C143 H120 0.951 . S
C143 C142 1.398 . S
C144 C145 1.384 . S
C144 H157 0.947 . S
C144 C179 1.382 . S
C145 C144 1.384 . S
C145 C146 1.378 . S
C146 C145 1.378 . S
C146 C147 1.378 . S
C146 H158 0.952 . S
C147 C146 1.378 . S
C147 H159 0.950 . S
C147 C178 1.383 . S
H148 C167 0.947 1_556 S
H149 C168 0.946 . S
H150 C170 0.953 . S
H151 C171 0.945 . S
H152 C173 0.952 . S
H153 C174 0.949 . S
H154 C176 0.950 . S
H155 C177 0.948 . S
H156 C179 0.951 . S
H157 C144 0.947 . S
H158 C146 0.952 . S
H159 C147 0.950 . S
N160 C163 1.382 1_556 S
N160 C165 1.363 . S
N161 C163 1.371 . S
N161 C164 1.372 . S
N162 C164 1.361 . S
N162 C165 1.377 1_554 S
C163 N160 1.382 1_554 S
C163 N161 1.371 . S
C163 C166 1.480 . S
C164 N161 1.372 . S
C164 N162 1.361 . S
C164 C172 1.457 . S
C165 N160 1.363 . S
C165 N162 1.377 1_556 S
C165 C178 1.479 . S
C166 C163 1.480 . S
C166 C167 1.383 . S
C166 C171 1.385 . S
C167 H148 0.947 1_554 S
C167 C166 1.383 . S
C167 C168 1.388 . S
C168 H149 0.946 . S
C168 C167 1.388 . S
C168 C169 1.384 . S
C169 C168 1.384 . S
C169 C170 1.377 . S
C170 H150 0.953 . S
C170 C169 1.377 . S
C170 C171 1.369 . S
C171 H151 0.945 . S
C171 C166 1.385 . S
C171 C170 1.369 . S
C172 C164 1.457 . S
C172 C173 1.372 . S
C172 C177 1.364 . S
C173 H152 0.952 . S
C173 C172 1.372 . S
C173 C174 1.389 . S
C174 H153 0.949 . S
C174 C173 1.389 . S
C174 C175 1.387 . S
C175 C174 1.387 . S
C175 C176 1.372 . S
C176 H154 0.950 . S
C176 C175 1.372 . S
C176 C177 1.379 . S
C177 H155 0.948 . S
C177 C172 1.364 . S
C177 C176 1.379 . S
C178 C147 1.383 . S
C178 C165 1.479 . S
C178 C179 1.398 . S
C179 C144 1.382 . S
C179 H156 0.951 . S
C179 C178 1.398 . S
C180 C181 1.384 . S
C180 H193 0.947 . S
C180 C215 1.382 . S
C181 C180 1.384 . S
C181 C182 1.378 . S
C182 C181 1.378 . S
C182 C183 1.378 . S
C182 H194 0.952 . S
C183 C182 1.378 . S
C183 H195 0.950 . S
C183 C214 1.383 . S
H184 C203 0.947 1_556 S
H185 C204 0.946 . S
H186 C206 0.953 . S
H187 C207 0.945 . S
H188 C209 0.952 . S
H189 C210 0.949 . S
H190 C212 0.950 . S
H191 C213 0.948 . S
H192 C215 0.951 . S
H193 C180 0.947 . S
H194 C182 0.952 . S
H195 C183 0.950 . S
N196 C199 1.382 1_556 S
N196 C201 1.363 . S
N197 C199 1.371 . S
N197 C200 1.372 . S
N198 C200 1.361 . S
N198 C201 1.377 1_554 S
C199 N196 1.382 1_554 S
C199 N197 1.371 . S
C199 C202 1.480 . S
C200 N197 1.372 . S
C200 N198 1.361 . S
C200 C208 1.457 . S
C201 N196 1.363 . S
C201 N198 1.377 1_556 S
C201 C214 1.479 . S
C202 C199 1.480 . S
C202 C203 1.383 . S
C202 C207 1.385 . S
C203 H184 0.947 1_554 S
C203 C202 1.383 . S
C203 C204 1.388 . S
C204 H185 0.946 . S
C204 C203 1.388 . S
C204 C205 1.384 . S
C205 C204 1.384 . S
C205 C206 1.377 . S
C206 H186 0.953 . S
C206 C205 1.377 . S
C206 C207 1.369 . S
C207 H187 0.945 . S
C207 C202 1.385 . S
C207 C206 1.369 . S
C208 C200 1.457 . S
C208 C209 1.372 . S
C208 C213 1.364 . S
C209 H188 0.952 . S
C209 C208 1.372 . S
C209 C210 1.389 . S
C210 H189 0.949 . S
C210 C209 1.389 . S
C210 C211 1.387 . S
C211 C210 1.387 . S
C211 C212 1.372 . S
C212 H190 0.950 . S
C212 C211 1.372 . S
C212 C213 1.379 . S
C213 H191 0.948 . S
C213 C208 1.364 . S
C213 C212 1.379 . S
C214 C183 1.383 . S
C214 C201 1.479 . S
C214 C215 1.398 . S
C215 C180 1.382 . S
C215 H192 0.951 . S
C215 C214 1.398 . S
C216 C217 1.384 . S
C216 H229 0.947 . S
C216 C251 1.382 . S
C217 C216 1.384 . S
C217 C218 1.378 . S
C218 C217 1.378 . S
C218 C219 1.378 . S
C218 H230 0.952 . S
C219 C218 1.378 . S
C219 H231 0.950 . S
C219 C250 1.383 . S
H220 C239 0.947 1_556 S
H221 C240 0.946 . S
H222 C242 0.953 . S
H223 C243 0.945 . S
H224 C245 0.952 . S
H225 C246 0.949 . S
H226 C248 0.950 . S
H227 C249 0.948 . S
H228 C251 0.951 . S
H229 C216 0.947 . S
H230 C218 0.952 . S
H231 C219 0.950 . S
N232 C235 1.361 1_556 S
N232 C237 1.367 . S
N233 C235 1.371 . S
N233 C236 1.372 . S
N234 C236 1.361 . S
N234 C237 1.377 1_554 S
C235 N232 1.361 1_554 S
C235 N233 1.371 . S
C235 C238 1.480 . S
C236 N233 1.372 . S
C236 N234 1.361 . S
C236 C244 1.457 . S
C237 N232 1.367 . S
C237 N234 1.377 1_556 S
C237 C250 1.479 . S
C238 C235 1.480 . S
C238 C239 1.383 . S
C238 C243 1.385 . S
C239 H220 0.947 1_554 S
C239 C238 1.383 . S
C239 C240 1.388 . S
C240 H221 0.946 . S
C240 C239 1.388 . S
C240 C241 1.384 . S
C241 C240 1.384 . S
C241 C242 1.377 . S
C242 H222 0.953 . S
C242 C241 1.377 . S
C242 C243 1.369 . S
C243 H223 0.945 . S
C243 C238 1.385 . S
C243 C242 1.369 . S
C244 C236 1.457 . S
C244 C245 1.372 . S
C244 C249 1.364 . S
C245 H224 0.952 . S
C245 C244 1.372 . S
C245 C246 1.389 . S
C246 H225 0.949 . S
C246 C245 1.389 . S
C246 C247 1.387 . S
C247 C246 1.387 . S
C247 C248 1.372 . S
C248 H226 0.950 . S
C248 C247 1.372 . S
C248 C249 1.379 . S
C249 H227 0.948 . S
C249 C244 1.364 . S
C249 C248 1.379 . S
C250 C219 1.383 . S
C250 C237 1.479 . S
C250 C251 1.398 . S
C251 C216 1.382 . S
C251 H228 0.951 . S
C251 C250 1.398 . S
C252 C253 1.384 . S
C252 H265 0.947 . S
C252 C287 1.382 . S
C253 C252 1.384 . S
C253 C254 1.378 . S
C254 C253 1.378 . S
C254 C255 1.378 . S
C254 H266 0.952 . S
C255 C254 1.378 . S
C255 H267 0.950 . S
C255 C286 1.383 . S
H256 C275 0.947 . S
H257 C276 0.946 . S
H258 C278 0.953 . S
H259 C279 0.945 1_556 S
H260 C281 0.952 . S
H261 C282 0.949 . S
H262 C284 0.950 . S
H263 C285 0.948 . S
H264 C287 0.951 . S
H265 C252 0.947 . S
H266 C254 0.952 . S
H267 C255 0.950 . S
N268 C271 1.382 . S
N268 C273 1.363 . S
N269 C271 1.371 1_556 S
N269 C272 1.372 . S
N270 C272 1.361 1_554 S
N270 C273 1.377 . S
C271 N268 1.382 . S
C271 N269 1.371 1_554 S
C271 C274 1.480 . S
C272 N269 1.372 . S
C272 N270 1.361 1_556 S
C272 C280 1.457 . S
C273 N268 1.363 . S
C273 N270 1.377 . S
C273 C286 1.479 . S
C274 C271 1.480 . S
C274 C275 1.383 . S
C274 C279 1.385 . S
C275 H256 0.947 . S
C275 C274 1.383 . S
C275 C276 1.388 . S
C276 H257 0.946 . S
C276 C275 1.388 . S
C276 C277 1.384 . S
C277 C276 1.384 . S
C277 C278 1.377 . S
C278 H258 0.953 . S
C278 C277 1.377 . S
C278 C279 1.369 . S
C279 H259 0.945 1_554 S
C279 C274 1.385 . S
C279 C278 1.369 . S
C280 C272 1.457 . S
C280 C281 1.372 . S
C280 C285 1.364 . S
C281 H260 0.952 . S
C281 C280 1.372 . S
C281 C282 1.389 . S
C282 H261 0.949 . S
C282 C281 1.389 . S
C282 C283 1.387 . S
C283 C282 1.387 . S
C283 C284 1.372 . S
C284 H262 0.950 . S
C284 C283 1.372 . S
C284 C285 1.379 . S
C285 H263 0.948 . S
C285 C280 1.364 . S
C285 C284 1.379 . S
C286 C255 1.383 . S
C286 C273 1.479 . S
C286 C287 1.398 . S
C287 C252 1.382 . S
C287 H264 0.951 . S
C287 C286 1.398 . S
C288 C290 1.422 . S
C288 C292 1.415 . S
C288 N294 1.369 1_545 S
C289 C290 1.421 . S
C289 C291 1.417 . S
C289 C301 1.422 . S
C290 C288 1.422 . S
C290 C289 1.421 . S
C290 N300 1.359 . S
C291 C289 1.417 . S
C291 C293 1.329 . S
C291 H310 0.930 . S
C292 C288 1.415 . S
C292 C293 1.437 . S
C292 C296 1.413 . S
C293 C291 1.329 . S
C293 C292 1.437 . S
C293 H315 0.929 . S
N294 C288 1.369 1_565 S
N294 C295 1.338 . S
N294 Gd299 2.622 . S
C295 N294 1.338 . S
C295 C297 1.378 1_565 S
C295 H307 0.929 . S
C296 C292 1.413 . S
C296 C297 1.348 . S
C296 H312 0.931 . S
C297 C295 1.378 1_545 S
C297 C296 1.348 . S
C297 H313 0.930 . S
Gd298 N318 2.622 . S
Gd298 N325 2.570 . S
Gd298 O332 2.353 1_655 S
Gd298 O333 2.452 1_655 S
Gd298 O334 2.427 . S
Gd298 O336 2.388 . S
Gd298 O337 2.386 1_545 S
Gd298 O341 2.307 1_655 S
Gd298 C351 2.805 . S
Gd299 N294 2.622 . S
Gd299 N300 2.570 1_565 S
Gd299 O331 2.386 1_565 S
Gd299 O335 2.303 1_465 S
Gd299 O338 2.353 . S
Gd299 O339 2.468 . S
Gd299 O340 2.427 . S
Gd299 O342 2.388 . S
Gd299 C363 2.805 . S
N300 C290 1.359 . S
N300 Gd299 2.570 1_545 S
N300 C302 1.343 . S
C301 C289 1.422 . S
C301 C303 1.321 . S
C301 H309 0.931 . S
C302 N300 1.343 . S
C302 C303 1.390 . S
C302 H304 0.886 1_445 S
C303 C301 1.321 . S
C303 C302 1.390 . S
C303 H305 0.930 . S
H304 C302 0.886 1_665 S
H305 C303 0.930 . S
H306 C329 0.949 . S
H307 C295 0.929 . S
H308 C330 0.903 1_455 S
H309 C301 0.931 . S
H310 C291 0.930 . S
H311 C320 0.929 . S
H312 C296 0.931 . S
H313 C297 0.930 . S
H314 C352 0.930 . S
H315 C293 0.929 . S
H316 C321 0.941 . S
H317 C322 0.930 . S
N318 Gd298 2.622 . S
N318 C319 1.369 . S
N318 C320 1.338 . S
C319 N318 1.369 . S
C319 C323 1.415 1_545 S
C319 C326 1.422 . S
C320 H311 0.929 . S
C320 N318 1.338 . S
C320 C322 1.378 . S
C321 H316 0.941 . S
C321 C322 1.336 1_565 S
C321 C323 1.415 . S
C322 H317 0.930 . S
C322 C320 1.378 . S
C322 C321 1.336 1_545 S
C323 C319 1.415 1_565 S
C323 C321 1.415 . S
C323 C353 1.437 . S
H324 C353 0.929 . S
N325 Gd298 2.570 . S
N325 C326 1.359 . S
N325 C329 1.327 1_655 S
C326 C319 1.422 . S
C326 N325 1.359 . S
C326 C328 1.421 1_545 S
C327 C328 1.422 . S
C327 C330 1.378 . S
C327 H354 0.931 . S
C328 C326 1.421 1_565 S
C328 C327 1.422 . S
C328 C352 1.417 . S
C329 H306 0.949 . S
C329 N325 1.327 1_455 S
C329 C330 1.363 1_445 S
C330 H308 0.903 1_655 S
C330 C327 1.378 . S
C330 C329 1.363 1_665 S
O331 Gd299 2.386 1_545 S
O331 C343 1.265 . S
O332 Gd298 2.353 1_455 S
O332 C343 1.242 . S
O333 Gd298 2.452 1_455 S
O333 C351 1.226 1_455 S
O334 Gd298 2.427 . S
O334 C351 1.252 . S
O335 Gd299 2.303 1_645 S
O335 C344 1.264 . S
O336 Gd298 2.388 . S
O336 C344 1.252 . S
O337 Gd298 2.386 1_565 S
O337 C355 1.265 . S
O338 Gd299 2.353 . S
O338 C355 1.242 1_455 S
O339 Gd299 2.468 . S
O339 C363 1.263 . S
O340 Gd299 2.427 . S
O340 C363 1.252 . S
O341 Gd298 2.307 1_455 S
O341 C356 1.261 . S
O342 Gd299 2.388 . S
O342 C356 1.252 1_565 S
C343 O331 1.265 . S
C343 O332 1.242 . S
C344 O335 1.264 . S
C344 O336 1.252 . S
C345 C348 1.394 . S
C345 C350 1.410 . S
C345 C351 1.500 . S
C346 C349 1.383 . S
C346 C350 1.402 . S
C347 C348 1.396 . S
C347 C349 1.365 . S
C347 H364 0.929 . S
C348 C345 1.394 . S
C348 C347 1.396 . S
C348 H365 0.930 . S
C349 C346 1.383 . S
C349 C347 1.365 . S
C349 H366 0.931 . S
C350 C345 1.410 . S
C350 C346 1.402 . S
C350 H367 0.885 1_655 S
C351 Gd298 2.805 . S
C351 O333 1.226 1_655 S
C351 O334 1.252 . S
C351 C345 1.500 . S
C352 H314 0.930 . S
C352 C328 1.417 . S
C352 C353 1.329 . S
C353 C323 1.437 . S
C353 H324 0.929 . S
C353 C352 1.329 . S
H354 C327 0.931 . S
C355 O337 1.265 . S
C355 O338 1.242 1_655 S
C356 O341 1.261 . S
C356 O342 1.252 1_545 S
C357 C360 1.394 . S
C357 C362 1.370 . S
C357 C363 1.500 . S
C358 C361 1.383 . S
C358 C362 1.395 . S
C359 C360 1.396 . S
C359 C361 1.365 . S
C359 H368 0.929 . S
C360 C357 1.394 . S
C360 C359 1.396 . S
C360 H369 0.930 . S
C361 C358 1.383 . S
C361 C359 1.365 . S
C361 H370 0.931 . S
C362 C357 1.370 . S
C362 C358 1.395 . S
C362 H371 0.930 . S
C363 Gd299 2.805 . S
C363 O339 1.263 . S
C363 O340 1.252 . S
C363 C357 1.500 . S
H364 C347 0.929 . S
H365 C348 0.930 . S
H366 C349 0.931 . S
H367 C350 0.885 1_455 S
H368 C359 0.929 . S
H369 C360 0.930 . S
H370 C361 0.931 . S
H371 C362 0.930 . S
C372 C374 1.422 . S
C372 C376 1.415 . S
C372 N378 1.369 . S
C373 C374 1.421 . S
C373 C375 1.417 . S
C373 C385 1.422 . S
C374 C372 1.422 . S
C374 C373 1.421 . S
C374 N384 1.359 . S
C375 C373 1.417 . S
C375 C377 1.329 . S
C375 H394 0.930 . S
C376 C372 1.415 . S
C376 C377 1.437 . S
C376 C380 1.413 . S
C377 C375 1.329 . S
C377 C376 1.437 . S
C377 H399 0.929 . S
N378 C372 1.369 . S
N378 C379 1.338 . S
N378 Gd383 2.622 . S
C379 N378 1.338 . S
C379 C381 1.378 . S
C379 H391 0.929 . S
C380 C376 1.413 . S
C380 C381 1.348 . S
C380 H396 0.931 . S
C381 C379 1.378 . S
C381 C380 1.348 . S
C381 H397 0.930 . S
Gd382 N402 2.622 . S
Gd382 N409 2.570 . S
Gd382 O416 2.353 1_545 S
Gd382 O417 2.468 . S
Gd382 O418 2.427 . S
Gd382 O420 2.388 . S
Gd382 O421 2.386 . S
Gd382 O425 2.307 . S
Gd382 C435 2.805 . S
Gd383 N378 2.622 . S
Gd383 N384 2.570 . S
Gd383 O415 2.386 . S
Gd383 O419 2.307 1_565 S
Gd383 O422 2.353 1_565 S
Gd383 O423 2.468 . S
Gd383 O424 2.427 . S
Gd383 O426 2.388 . S
Gd383 C447 2.805 . S
N384 C374 1.359 . S
N384 Gd383 2.570 . S
N384 C386 1.343 . S
C385 C373 1.422 . S
C385 C387 1.321 . S
C385 H393 0.931 . S
C386 N384 1.343 . S
C386 C387 1.390 . S
C386 H388 0.931 . S
C387 C385 1.321 . S
C387 C386 1.390 . S
C387 H389 0.930 . S
H388 C386 0.931 . S
H389 C387 0.930 . S
H390 C413 0.931 . S
H391 C379 0.929 . S
H392 C414 0.930 . S
H393 C385 0.931 . S
H394 C375 0.930 . S
H395 C404 0.929 . S
H396 C380 0.931 . S
H397 C381 0.930 . S
H398 C436 0.930 . S
H399 C377 0.929 . S
H400 C405 0.931 . S
H401 C406 0.930 . S
N402 Gd382 2.622 . S
N402 C403 1.369 . S
N402 C404 1.338 . S
C403 N402 1.369 . S
C403 C407 1.415 . S
C403 C410 1.422 . S
C404 H395 0.929 . S
C404 N402 1.338 . S
C404 C406 1.378 . S
C405 H400 0.931 . S
C405 C406 1.348 . S
C405 C407 1.413 . S
C406 H401 0.930 . S
C406 C404 1.378 . S
C406 C405 1.348 . S
C407 C403 1.415 . S
C407 C405 1.413 . S
C407 C437 1.437 . S
H408 C437 0.929 . S
N409 Gd382 2.570 . S
N409 C410 1.359 . S
N409 C413 1.343 . S
C410 C403 1.422 . S
C410 N409 1.359 . S
C410 C412 1.421 . S
C411 C412 1.422 . S
C411 C414 1.321 . S
C411 H438 0.931 . S
C412 C410 1.421 . S
C412 C411 1.422 . S
C412 C436 1.417 . S
C413 H390 0.931 . S
C413 N409 1.343 . S
C413 C414 1.390 . S
C414 H392 0.930 . S
C414 C411 1.321 . S
C414 C413 1.390 . S
O415 Gd383 2.386 . S
O415 C427 1.265 . S
O416 Gd382 2.353 1_565 S
O416 C427 1.242 . S
O417 Gd382 2.468 . S
O417 C435 1.263 . S
O418 Gd382 2.427 . S
O418 C435 1.252 . S
O419 Gd383 2.307 1_545 S
O419 C428 1.261 . S
O420 Gd382 2.388 . S
O420 C428 1.252 . S
O421 Gd382 2.386 . S
O421 C439 1.265 . S
O422 Gd383 2.353 1_545 S
O422 C439 1.242 . S
O423 Gd383 2.468 . S
O423 C447 1.263 . S
O424 Gd383 2.427 . S
O424 C447 1.252 . S
O425 Gd382 2.307 . S
O425 C440 1.261 1_545 S
O426 Gd383 2.388 . S
O426 C440 1.252 . S
C427 O415 1.265 . S
C427 O416 1.242 . S
C428 O419 1.261 . S
C428 O420 1.252 . S
C429 C432 1.394 . S
C429 C434 1.370 . S
C429 C435 1.500 . S
C430 C433 1.383 . S
C430 C434 1.395 . S
C431 C432 1.396 . S
C431 C433 1.365 . S
C431 H448 0.929 . S
C432 C429 1.394 . S
C432 C431 1.396 . S
C432 H449 0.930 . S
C433 C430 1.383 . S
C433 C431 1.365 . S
C433 H450 0.931 . S
C434 C429 1.370 . S
C434 C430 1.395 . S
C434 H451 0.930 . S
C435 Gd382 2.805 . S
C435 O417 1.263 . S
C435 O418 1.252 . S
C435 C429 1.500 . S
C436 H398 0.930 . S
C436 C412 1.417 . S
C436 C437 1.329 . S
C437 C407 1.437 . S
C437 H408 0.929 . S
C437 C436 1.329 . S
H438 C411 0.931 . S
C439 O421 1.265 . S
C439 O422 1.242 . S
C440 O425 1.261 1_565 S
C440 O426 1.252 . S
C441 C444 1.394 . S
C441 C446 1.370 1_565 S
C441 C447 1.500 . S
C442 C445 1.383 1_545 S
C442 C446 1.395 . S
C443 C444 1.396 . S
C443 C445 1.365 . S
C443 H452 0.929 . S
C444 C441 1.394 . S
C444 C443 1.396 . S
C444 H453 0.930 . S
C445 C442 1.383 1_565 S
C445 C443 1.365 . S
C445 H454 0.931 . S
C446 C441 1.370 1_545 S
C446 C442 1.395 . S
C446 H455 0.930 . S
C447 Gd383 2.805 . S
C447 O423 1.263 . S
C447 O424 1.252 . S
C447 C441 1.500 . S
H448 C431 0.929 . S
H449 C432 0.930 . S
H450 C433 0.931 . S
H451 C434 0.930 . S
H452 C443 0.929 . S
H453 C444 0.930 . S
H454 C445 0.931 . S
H455 C446 0.930 . S
C456 C458 1.422 . S
C456 C460 1.415 . S
C456 N462 1.369 . S
C457 C458 1.421 . S
C457 C459 1.417 . S
C457 C469 1.422 . S
C458 C456 1.422 . S
C458 C457 1.421 . S
C458 N468 1.359 . S
C459 C457 1.417 . S
C459 C461 1.329 . S
C459 H478 0.930 . S
C460 C456 1.415 . S
C460 C461 1.437 . S
C460 C464 1.413 . S
C461 C459 1.329 . S
C461 C460 1.437 . S
C461 H483 0.929 . S
N462 C456 1.369 . S
N462 C463 1.338 . S
N462 Gd467 2.622 . S
C463 N462 1.338 . S
C463 C465 1.378 . S
C463 H475 0.929 . S
C464 C460 1.413 . S
C464 C465 1.348 . S
C464 H480 0.931 . S
C465 C463 1.378 . S
C465 C464 1.348 . S
C465 H481 0.930 . S
Gd466 N486 2.622 . S
Gd466 N493 2.570 . S
Gd466 O500 2.353 . S
Gd466 O501 2.468 . S
Gd466 O502 2.427 . S
Gd466 O504 2.388 . S
Gd466 O505 2.386 . S
Gd466 O509 2.307 . S
Gd466 C519 2.805 . S
Gd467 N462 2.622 . S
Gd467 N468 2.570 . S
Gd467 O499 2.386 . S
Gd467 O503 2.307 . S
Gd467 O506 2.353 . S
Gd467 O507 2.468 . S
Gd467 O508 2.427 . S
Gd467 O510 2.388 . S
Gd467 C531 2.805 . S
N468 C458 1.359 . S
N468 Gd467 2.570 . S
N468 C470 1.343 . S
C469 C457 1.422 . S
C469 C471 1.321 . S
C469 H477 0.931 . S
C470 N468 1.343 . S
C470 C471 1.390 . S
C470 H472 0.931 . S
C471 C469 1.321 . S
C471 C470 1.390 . S
C471 H473 0.930 . S
H472 C470 0.931 . S
H473 C471 0.930 . S
H474 C497 0.931 . S
H475 C463 0.929 . S
H476 C498 0.930 . S
H477 C469 0.931 . S
H478 C459 0.930 . S
H479 C488 0.929 . S
H480 C464 0.931 . S
H481 C465 0.930 . S
H482 C520 0.930 . S
H483 C461 0.929 . S
H484 C489 0.931 . S
H485 C490 0.930 . S
N486 Gd466 2.622 . S
N486 C487 1.369 . S
N486 C488 1.338 . S
C487 N486 1.369 . S
C487 C491 1.415 . S
C487 C494 1.422 . S
C488 H479 0.929 . S
C488 N486 1.338 . S
C488 C490 1.378 . S
C489 H484 0.931 . S
C489 C490 1.348 . S
C489 C491 1.413 . S
C490 H485 0.930 . S
C490 C488 1.378 . S
C490 C489 1.348 . S
C491 C487 1.415 . S
C491 C489 1.413 . S
C491 C521 1.437 . S
H492 C521 0.929 . S
N493 Gd466 2.570 . S
N493 C494 1.359 . S
N493 C497 1.343 . S
C494 C487 1.422 . S
C494 N493 1.359 . S
C494 C496 1.421 . S
C495 C496 1.422 . S
C495 C498 1.321 . S
C495 H522 0.931 . S
C496 C494 1.421 . S
C496 C495 1.422 . S
C496 C520 1.417 . S
C497 H474 0.931 . S
C497 N493 1.343 . S
C497 C498 1.390 . S
C498 H476 0.930 . S
C498 C495 1.321 . S
C498 C497 1.390 . S
O499 Gd467 2.386 . S
O499 C511 1.265 . S
O500 Gd466 2.353 . S
O500 C511 1.242 . S
O501 Gd466 2.468 . S
O501 C519 1.263 . S
O502 Gd466 2.427 . S
O502 C519 1.252 . S
O503 Gd467 2.307 . S
O503 C512 1.261 . S
O504 Gd466 2.388 . S
O504 C512 1.252 . S
O505 Gd466 2.386 . S
O505 C523 1.265 . S
O506 Gd467 2.353 . S
O506 C523 1.242 . S
O507 Gd467 2.468 . S
O507 C531 1.263 . S
O508 Gd467 2.427 . S
O508 C531 1.252 . S
O509 Gd466 2.307 . S
O509 C524 1.261 . S
O510 Gd467 2.388 . S
O510 C524 1.252 . S
C511 O499 1.265 . S
C511 O500 1.242 . S
C512 O503 1.261 . S
C512 O504 1.252 . S
C513 C516 1.394 . S
C513 C518 1.370 . S
C513 C519 1.500 . S
C514 C517 1.383 . S
C514 C518 1.395 . S
C515 C516 1.396 . S
C515 C517 1.365 . S
C515 H532 0.929 . S
C516 C513 1.394 . S
C516 C515 1.396 . S
C516 H533 0.930 . S
C517 C514 1.383 . S
C517 C515 1.365 . S
C517 H534 0.931 . S
C518 C513 1.370 . S
C518 C514 1.395 . S
C518 H535 0.930 . S
C519 Gd466 2.805 . S
C519 O501 1.263 . S
C519 O502 1.252 . S
C519 C513 1.500 . S
C520 H482 0.930 . S
C520 C496 1.417 . S
C520 C521 1.329 . S
C521 C491 1.437 . S
C521 H492 0.929 . S
C521 C520 1.329 . S
H522 C495 0.931 . S
C523 O505 1.265 . S
C523 O506 1.242 . S
C524 O509 1.261 . S
C524 O510 1.252 . S
C525 C528 1.394 . S
C525 C530 1.370 . S
C525 C531 1.500 . S
C526 C529 1.383 . S
C526 C530 1.395 . S
C527 C528 1.396 . S
C527 C529 1.365 . S
C527 H536 0.929 . S
C528 C525 1.394 . S
C528 C527 1.396 . S
C528 H537 0.930 . S
C529 C526 1.383 . S
C529 C527 1.365 . S
C529 H538 0.931 . S
C530 C525 1.370 . S
C530 C526 1.395 . S
C530 H539 0.930 . S
C531 Gd467 2.805 . S
C531 O507 1.263 . S
C531 O508 1.252 . S
C531 C525 1.500 . S
H532 C515 0.929 . S
H533 C516 0.930 . S
H534 C517 0.931 . S
H535 C518 0.930 . S
H536 C527 0.929 . S
H537 C528 0.930 . S
H538 C529 0.931 . S
H539 C530 0.930 . S
C540 C542 1.422 . S
C540 C544 1.415 . S
C540 N546 1.369 1_455 S
C541 C542 1.421 . S
C541 C543 1.417 . S
C541 C553 1.422 . S
C542 C540 1.422 . S
C542 C541 1.421 . S
C542 N552 1.359 . S
C543 C541 1.417 . S
C543 C545 1.329 . S
C543 H562 0.930 . S
C544 C540 1.415 . S
C544 C545 1.437 . S
C544 C548 1.413 . S
C545 C543 1.329 . S
C545 C544 1.437 . S
C545 H567 0.929 . S
N546 C540 1.369 1_655 S
N546 C547 1.338 . S
N546 Gd551 2.622 . S
C547 N546 1.338 . S
C547 C549 1.378 1_655 S
C547 H559 0.929 . S
C548 C544 1.413 . S
C548 C549 1.348 . S
C548 H564 0.931 . S
C549 C547 1.378 1_455 S
C549 C548 1.348 . S
C549 H565 0.930 1_455 S
Gd550 N570 2.622 . S
Gd550 N577 2.570 . S
Gd550 O584 2.353 . S
Gd550 O585 2.468 . S
Gd550 O586 2.427 . S
Gd550 O588 2.388 . S
Gd550 O589 2.386 1_455 S
Gd550 O593 2.307 . S
Gd550 C603 2.805 . S
Gd551 N546 2.622 . S
Gd551 N552 2.570 1_655 S
Gd551 O583 2.386 1_655 S
Gd551 O587 2.296 1_655 S
Gd551 O590 2.353 . S
Gd551 O591 2.468 . S
Gd551 O592 2.427 . S
Gd551 O594 2.388 . S
Gd551 C615 2.805 . S
N552 C542 1.359 . S
N552 Gd551 2.570 1_455 S
N552 C554 1.343 . S
C553 C541 1.422 . S
C553 C555 1.321 . S
C553 H561 0.931 . S
C554 N552 1.343 . S
C554 C555 1.390 . S
C554 H556 0.915 1_455 S
C555 C553 1.321 . S
C555 C554 1.390 . S
C555 H557 0.930 . S
H556 C554 0.915 1_655 S
H557 C555 0.930 . S
H558 C581 0.931 . S
H559 C547 0.929 . S
H560 C582 0.932 . S
H561 C553 0.931 . S
H562 C543 0.930 . S
H563 C572 0.929 . S
H564 C548 0.931 . S
H565 C549 0.930 1_655 S
H566 C604 0.930 . S
H567 C545 0.929 . S
H568 C573 0.931 1_655 S
H569 C574 0.930 . S
N570 Gd550 2.622 . S
N570 C571 1.369 . S
N570 C572 1.338 . S
C571 N570 1.369 . S
C571 C575 1.410 1_455 S
C571 C578 1.422 . S
C572 H563 0.929 . S
C572 N570 1.338 . S
C572 C574 1.378 . S
C573 H568 0.931 1_455 S
C573 C574 1.348 . S
C573 C575 1.412 1_455 S
C574 H569 0.930 . S
C574 C572 1.378 . S
C574 C573 1.348 . S
C575 C571 1.410 1_655 S
C575 C573 1.412 1_655 S
C575 C605 1.444 . S
H576 C605 0.929 . S
N577 Gd550 2.570 . S
N577 C578 1.359 . S
N577 C581 1.343 . S
C578 C571 1.422 . S
C578 N577 1.359 . S
C578 C580 1.421 1_455 S
C579 C580 1.422 . S
C579 C582 1.328 . S
C579 H606 0.931 . S
C580 C578 1.421 1_655 S
C580 C579 1.422 . S
C580 C604 1.417 . S
C581 H558 0.931 . S
C581 N577 1.343 . S
C581 C582 1.382 1_455 S
C582 H560 0.932 . S
C582 C579 1.328 . S
C582 C581 1.382 1_655 S
O583 Gd551 2.386 1_455 S
O583 C595 1.265 . S
O584 Gd550 2.353 . S
O584 C595 1.242 . S
O585 Gd550 2.468 . S
O585 C603 1.263 . S
O586 Gd550 2.427 . S
O586 C603 1.252 . S
O587 Gd551 2.296 1_455 S
O587 C596 1.271 . S
O588 Gd550 2.388 . S
O588 C596 1.252 . S
O589 Gd550 2.386 1_655 S
O589 C607 1.265 . S
O590 Gd551 2.353 . S
O590 C607 1.242 . S
O591 Gd551 2.468 . S
O591 C615 1.263 . S
O592 Gd551 2.427 . S
O592 C615 1.252 . S
O593 Gd550 2.307 . S
O593 C608 1.261 . S
O594 Gd551 2.388 . S
O594 C608 1.252 1_655 S
C595 O583 1.265 . S
C595 O584 1.242 . S
C596 O587 1.271 . S
C596 O588 1.252 . S
C597 C600 1.394 . S
C597 C602 1.370 . S
C597 C603 1.500 . S
C598 C601 1.383 . S
C598 C602 1.395 . S
C599 C600 1.396 . S
C599 C601 1.365 . S
C599 H616 0.929 . S
C600 C597 1.394 . S
C600 C599 1.396 . S
C600 H617 0.930 . S
C601 C598 1.383 . S
C601 C599 1.365 . S
C601 H618 0.931 . S
C602 C597 1.370 . S
C602 C598 1.395 . S
C602 H619 0.930 . S
C603 Gd550 2.805 . S
C603 O585 1.263 . S
C603 O586 1.252 . S
C603 C597 1.500 . S
C604 H566 0.930 . S
C604 C580 1.417 . S
C604 C605 1.329 . S
C605 C575 1.444 . S
C605 H576 0.929 . S
C605 C604 1.329 . S
H606 C579 0.931 . S
C607 O589 1.265 . S
C607 O590 1.242 . S
C608 O593 1.261 . S
C608 O594 1.252 1_455 S
C609 C612 1.394 . S
C609 C614 1.370 . S
C609 C615 1.500 . S
C610 C613 1.383 . S
C610 C614 1.395 . S
C611 C612 1.396 . S
C611 C613 1.365 . S
C611 H620 0.929 . S
C612 C609 1.394 . S
C612 C611 1.396 . S
C612 H621 0.930 . S
C613 C610 1.383 . S
C613 C611 1.365 . S
C613 H622 0.931 . S
C614 C609 1.370 . S
C614 C610 1.395 . S
C614 H623 0.930 . S
C615 Gd551 2.805 . S
C615 O591 1.263 . S
C615 O592 1.252 . S
C615 C609 1.500 . S
H616 C599 0.929 . S
H617 C600 0.930 . S
H618 C601 0.931 . S
H619 C602 0.930 . S
H620 C611 0.929 . S
H621 C612 0.930 . S
H622 C613 0.931 . S
H623 C614 0.930 . S
H624 C632 0.929 . S
H625 C634 0.930 . S
H626 C636 0.930 . S
H627 C639 0.929 . S
H628 C642 0.930 . S
H629 C644 0.960 . S
H630 C644 0.960 . S
H631 C644 0.960 . S
C632 H624 0.929 . S
C632 C633 1.377 . S
C632 C634 1.384 . S
C633 C632 1.377 . S
C633 C639 1.390 . S
C634 H625 0.930 . S
C634 C632 1.384 . S
C634 C635 1.372 . S
C635 C634 1.372 . S
C635 C636 1.400 . S
C635 C640 1.490 . S
C636 H626 0.930 . S
C636 C635 1.400 . S
C636 C639 1.386 . S
H637 C653 0.930 . S
H638 C654 0.931 . S
C639 H627 0.929 . S
C639 C633 1.390 . S
C639 C636 1.386 . S
C640 C635 1.490 . S
C640 C642 1.395 . S
C640 C643 1.403 . S
H641 C647 0.930 . S
C642 H628 0.930 . S
C642 C640 1.395 . S
C642 C645 1.403 . S
C643 C640 1.403 . S
C643 C644 1.524 . S
C643 C647 1.400 . S
C644 H629 0.960 . S
C644 H630 0.960 . S
C644 H631 0.960 . S
C644 C643 1.524 . S
C645 C642 1.403 . S
C645 C646 1.392 . S
C645 C649 1.495 1_545 S
C646 C645 1.392 . S
C646 C647 1.385 . S
C646 C648 1.478 . S
C647 H641 0.930 . S
C647 C643 1.400 . S
C647 C646 1.385 . S
C648 C646 1.478 . S
C648 C650 1.381 . S
C648 C654 1.383 . S
C649 C645 1.495 1_565 S
C649 H655 0.959 . S
C649 H656 0.961 . S
C649 H657 0.960 . S
C650 C648 1.381 . S
C650 C651 1.394 . S
C650 H658 0.930 . S
C651 C650 1.394 . S
C651 C652 1.383 . S
C651 H659 0.929 . S
C652 C651 1.383 . S
C652 C653 1.377 . S
C653 H637 0.930 . S
C653 C652 1.377 . S
C653 C654 1.379 . S
C654 H638 0.931 . S
C654 C648 1.383 . S
C654 C653 1.379 . S
H655 C649 0.959 . S
H656 C649 0.961 . S
H657 C649 0.960 . S
H658 C650 0.930 . S
H659 C651 0.929 . S
H660 C668 0.929 . S
H661 C670 0.930 . S
H662 C672 0.930 . S
H663 C675 0.929 . S
H664 C678 0.930 . S
H665 C680 0.960 . S
H666 C680 0.960 . S
H667 C680 0.960 . S
C668 H660 0.929 . S
C668 C669 1.377 . S
C668 C670 1.384 . S
C669 C668 1.377 . S
C669 C675 1.390 . S
C670 H661 0.930 . S
C670 C668 1.384 . S
C670 C671 1.372 . S
C671 C670 1.372 . S
C671 C672 1.400 . S
C671 C676 1.490 . S
C672 H662 0.930 . S
C672 C671 1.400 . S
C672 C675 1.386 . S
H673 C689 0.930 . S
H674 C690 0.931 . S
C675 H663 0.929 . S
C675 C669 1.390 . S
C675 C672 1.386 . S
C676 C671 1.490 . S
C676 C678 1.395 . S
C676 C679 1.403 . S
H677 C683 0.930 . S
C678 H664 0.930 . S
C678 C676 1.395 . S
C678 C681 1.403 . S
C679 C676 1.403 . S
C679 C680 1.524 . S
C679 C683 1.400 . S
C680 H665 0.960 . S
C680 H666 0.960 . S
C680 H667 0.960 . S
C680 C679 1.524 . S
C681 C678 1.403 . S
C681 C682 1.392 . S
C681 C685 1.495 . S
C682 C681 1.392 . S
C682 C683 1.385 . S
C682 C684 1.478 . S
C683 H677 0.930 . S
C683 C679 1.400 . S
C683 C682 1.385 . S
C684 C682 1.478 . S
C684 C686 1.381 . S
C684 C690 1.383 . S
C685 C681 1.495 . S
C685 H691 0.959 . S
C685 H692 0.961 . S
C685 H693 0.960 . S
C686 C684 1.381 . S
C686 C687 1.394 . S
C686 H694 0.930 . S
C687 C686 1.394 . S
C687 C688 1.383 . S
C687 H695 0.929 . S
C688 C687 1.383 . S
C688 C689 1.377 . S
C689 H673 0.930 . S
C689 C688 1.377 . S
C689 C690 1.379 . S
C690 H674 0.931 . S
C690 C684 1.383 . S
C690 C689 1.379 . S
H691 C685 0.959 . S
H692 C685 0.961 . S
H693 C685 0.960 . S
H694 C686 0.930 . S
H695 C687 0.929 . S
H696 C704 0.929 . S
H697 C706 0.930 . S
H698 C708 0.930 . S
H699 C711 0.929 . S
H700 C714 0.930 . S
H701 C716 0.960 . S
H702 C716 0.960 . S
H703 C716 0.960 . S
C704 H696 0.929 . S
C704 C705 1.377 . S
C704 C706 1.384 . S
C705 C704 1.377 . S
C705 C711 1.390 . S
C706 H697 0.930 . S
C706 C704 1.384 . S
C706 C707 1.372 . S
C707 C706 1.372 . S
C707 C708 1.400 . S
C707 C712 1.490 . S
C708 H698 0.930 . S
C708 C707 1.400 . S
C708 C711 1.386 . S
H709 C725 0.930 . S
H710 C726 0.931 . S
C711 H699 0.929 . S
C711 C705 1.390 . S
C711 C708 1.386 . S
C712 C707 1.490 . S
C712 C714 1.395 . S
C712 C715 1.403 . S
H713 C719 0.930 . S
C714 H700 0.930 . S
C714 C712 1.395 . S
C714 C717 1.403 . S
C715 C712 1.403 . S
C715 C716 1.524 . S
C715 C719 1.400 . S
C716 H701 0.960 . S
C716 H702 0.960 . S
C716 H703 0.960 . S
C716 C715 1.524 . S
C717 C714 1.403 . S
C717 C718 1.392 . S
C717 C721 1.495 . S
C718 C717 1.392 . S
C718 C719 1.385 . S
C718 C720 1.478 . S
C719 H713 0.930 . S
C719 C715 1.400 . S
C719 C718 1.385 . S
C720 C718 1.478 . S
C720 C722 1.381 . S
C720 C726 1.383 . S
C721 C717 1.495 . S
C721 H727 0.959 . S
C721 H728 0.961 . S
C721 H729 0.960 . S
C722 C720 1.381 . S
C722 C723 1.394 . S
C722 H730 0.930 . S
C723 C722 1.394 . S
C723 C724 1.383 . S
C723 H731 0.929 . S
C724 C723 1.383 . S
C724 C725 1.377 . S
C725 H709 0.930 . S
C725 C724 1.377 . S
C725 C726 1.379 . S
C726 H710 0.931 . S
C726 C720 1.383 . S
C726 C725 1.379 . S
H727 C721 0.959 . S
H728 C721 0.961 . S
H729 C721 0.960 . S
H730 C722 0.930 . S
H731 C723 0.929 . S
H732 C740 0.929 . S
H733 C742 0.930 . S
H734 C744 0.930 . S
H735 C747 0.929 . S
H736 C750 0.930 . S
H737 C752 0.960 . S
H738 C752 0.960 . S
H739 C752 0.960 . S
C740 H732 0.929 . S
C740 C741 1.377 . S
C740 C742 1.384 . S
C741 C740 1.377 . S
C741 C747 1.390 . S
C742 H733 0.930 . S
C742 C740 1.384 . S
C742 C743 1.372 . S
C743 C742 1.372 . S
C743 C744 1.400 . S
C743 C748 1.490 . S
C744 H734 0.930 . S
C744 C743 1.400 . S
C744 C747 1.386 . S
H745 C761 0.930 . S
H746 C762 0.931 . S
C747 H735 0.929 . S
C747 C741 1.390 . S
C747 C744 1.386 . S
C748 C743 1.490 . S
C748 C750 1.395 . S
C748 C751 1.403 . S
H749 C755 0.930 . S
C750 H736 0.930 . S
C750 C748 1.395 . S
C750 C753 1.403 . S
C751 C748 1.403 . S
C751 C752 1.524 . S
C751 C755 1.400 . S
C752 H737 0.960 . S
C752 H738 0.960 . S
C752 H739 0.960 . S
C752 C751 1.524 . S
C753 C750 1.403 . S
C753 C754 1.392 . S
C753 C757 1.495 1_455 S
C754 C753 1.392 . S
C754 C755 1.385 . S
C754 C756 1.478 . S
C755 H749 0.930 . S
C755 C751 1.400 . S
C755 C754 1.385 . S
C756 C754 1.478 . S
C756 C758 1.381 . S
C756 C762 1.383 . S
C757 C753 1.495 1_655 S
C757 H763 0.959 . S
C757 H764 0.961 . S
C757 H765 0.960 . S
C758 C756 1.381 . S
C758 C759 1.397 . S
C758 H766 0.930 1_455 S
C759 C758 1.397 . S
C759 C760 1.397 . S
C759 H767 0.913 1_455 S
C760 C759 1.397 . S
C760 C761 1.377 . S
C761 H745 0.930 . S
C761 C760 1.377 . S
C761 C762 1.379 . S
C762 H746 0.931 . S
C762 C756 1.383 . S
C762 C761 1.379 . S
H763 C757 0.959 . S
H764 C757 0.961 . S
H765 C757 0.960 . S
H766 C758 0.930 1_655 S
H767 C759 0.913 1_655 S
H768 C776 0.929 . S
H769 C778 0.930 . S
H770 C780 0.930 . S
H771 C783 0.929 . S
H772 C786 0.930 . S
H773 C788 0.960 . S
H774 C788 0.960 . S
H775 C788 0.960 . S
C776 H768 0.929 . S
C776 C777 1.377 . S
C776 C778 1.384 . S
C777 C776 1.377 . S
C777 C783 1.390 . S
C778 H769 0.930 . S
C778 C776 1.384 . S
C778 C779 1.372 1_554 S
C779 C778 1.372 1_556 S
C779 C780 1.400 . S
C779 C784 1.490 . S
C780 H770 0.930 . S
C780 C779 1.400 . S
C780 C783 1.386 1_556 S
H781 C797 0.930 . S
H782 C798 0.931 . S
C783 H771 0.929 . S
C783 C777 1.390 . S
C783 C780 1.386 1_554 S
C784 C779 1.490 . S
C784 C786 1.395 . S
C784 C787 1.403 . S
H785 C791 0.930 1_545 S
C786 H772 0.930 . S
C786 C784 1.395 . S
C786 C789 1.403 . S
C787 C784 1.403 . S
C787 C788 1.524 1_565 S
C787 C791 1.400 . S
C788 H773 0.960 . S
C788 H774 0.960 . S
C788 H775 0.960 . S
C788 C787 1.524 1_545 S
C789 C786 1.403 . S
C789 C790 1.392 . S
C789 C793 1.495 . S
C790 C789 1.392 . S
C790 C791 1.385 . S
C790 C792 1.478 . S
C791 H785 0.930 1_565 S
C791 C787 1.400 . S
C791 C790 1.385 . S
C792 C790 1.478 . S
C792 C794 1.381 . S
C792 C798 1.383 . S
C793 C789 1.495 . S
C793 H799 0.959 . S
C793 H800 0.961 . S
C793 H801 0.960 . S
C794 C792 1.381 . S
C794 C795 1.394 . S
C794 H802 0.930 . S
C795 C794 1.394 . S
C795 C796 1.383 . S
C795 H803 0.929 . S
C796 C795 1.383 . S
C796 C797 1.377 . S
C797 H781 0.930 . S
C797 C796 1.377 . S
C797 C798 1.379 . S
C798 H782 0.931 . S
C798 C792 1.383 . S
C798 C797 1.379 . S
H799 C793 0.959 . S
H800 C793 0.961 . S
H801 C793 0.960 . S
H802 C794 0.930 . S
H803 C795 0.929 . S
H804 C812 0.929 . S
H805 C814 0.930 . S
H806 C816 0.930 . S
H807 C819 0.929 . S
H808 C822 0.930 . S
H809 C824 0.960 . S
H810 C824 0.960 . S
H811 C824 0.960 . S
C812 H804 0.929 . S
C812 C813 1.377 . S
C812 C814 1.384 . S
C813 C812 1.377 . S
C813 C819 1.390 . S
C814 H805 0.930 . S
C814 C812 1.384 . S
C814 C815 1.372 1_554 S
C815 C814 1.372 1_556 S
C815 C816 1.400 . S
C815 C820 1.490 . S
C816 H806 0.930 . S
C816 C815 1.400 . S
C816 C819 1.386 1_556 S
H817 C833 0.930 . S
H818 C834 0.931 . S
C819 H807 0.929 . S
C819 C813 1.390 . S
C819 C816 1.386 1_554 S
C820 C815 1.490 . S
C820 C822 1.395 . S
C820 C823 1.403 . S
H821 C827 0.930 . S
C822 H808 0.930 . S
C822 C820 1.395 . S
C822 C825 1.403 . S
C823 C820 1.403 . S
C823 C824 1.524 . S
C823 C827 1.400 . S
C824 H809 0.960 . S
C824 H810 0.960 . S
C824 H811 0.960 . S
C824 C823 1.524 . S
C825 C822 1.403 . S
C825 C826 1.392 . S
C825 C829 1.495 . S
C826 C825 1.392 . S
C826 C827 1.385 . S
C826 C828 1.478 . S
C827 H821 0.930 . S
C827 C823 1.400 . S
C827 C826 1.385 . S
C828 C826 1.478 . S
C828 C830 1.381 . S
C828 C834 1.383 . S
C829 C825 1.495 . S
C829 H835 0.959 . S
C829 H836 0.961 . S
C829 H837 0.960 . S
C830 C828 1.381 . S
C830 C831 1.394 . S
C830 H838 0.930 . S
C831 C830 1.394 . S
C831 C832 1.383 . S
C831 H839 0.929 . S
C832 C831 1.383 . S
C832 C833 1.377 . S
C833 H817 0.930 . S
C833 C832 1.377 . S
C833 C834 1.379 . S
C834 H818 0.931 . S
C834 C828 1.383 . S
C834 C833 1.379 . S
H835 C829 0.959 . S
H836 C829 0.961 . S
H837 C829 0.960 . S
H838 C830 0.930 . S
H839 C831 0.929 . S
H840 C848 0.929 . S
H841 C850 0.930 . S
H842 C852 0.930 . S
H843 C855 0.929 . S
H844 C858 0.930 . S
H845 C860 0.960 . S
H846 C860 0.960 . S
H847 C860 0.960 . S
C848 H840 0.929 . S
C848 C849 1.377 . S
C848 C850 1.384 1_554 S
C849 C848 1.377 . S
C849 C855 1.390 . S
C850 H841 0.930 . S
C850 C848 1.384 1_556 S
C850 C851 1.372 . S
C851 C850 1.372 . S
C851 C852 1.400 1_556 S
C851 C856 1.490 . S
C852 H842 0.930 . S
C852 C851 1.400 1_554 S
C852 C855 1.386 . S
H853 C869 0.930 . S
H854 C870 0.931 . S
C855 H843 0.929 . S
C855 C849 1.390 . S
C855 C852 1.386 . S
C856 C851 1.490 . S
C856 C858 1.395 . S
C856 C859 1.403 . S
H857 C863 0.930 . S
C858 H844 0.930 . S
C858 C856 1.395 . S
C858 C861 1.403 . S
C859 C856 1.403 . S
C859 C860 1.524 . S
C859 C863 1.400 . S
C860 H845 0.960 . S
C860 H846 0.960 . S
C860 H847 0.960 . S
C860 C859 1.524 . S
C861 C858 1.403 . S
C861 C862 1.392 . S
C861 C865 1.495 . S
C862 C861 1.392 . S
C862 C863 1.385 . S
C862 C864 1.478 . S
C863 H857 0.930 . S
C863 C859 1.400 . S
C863 C862 1.385 . S
C864 C862 1.478 . S
C864 C866 1.381 . S
C864 C870 1.383 . S
C865 C861 1.495 . S
C865 H871 0.959 . S
C865 H872 0.961 . S
C865 H873 0.960 . S
C866 C864 1.381 . S
C866 C867 1.394 . S
C866 H874 0.930 . S
C867 C866 1.394 . S
C867 C868 1.383 . S
C867 H875 0.929 . S
C868 C867 1.383 . S
C868 C869 1.377 . S
C869 H853 0.930 . S
C869 C868 1.377 . S
C869 C870 1.379 . S
C870 H854 0.931 . S
C870 C864 1.383 . S
C870 C869 1.379 . S
H871 C865 0.959 . S
H872 C865 0.961 . S
H873 C865 0.960 . S
H874 C866 0.930 . S
H875 C867 0.929 . S
H876 C884 0.929 . S
H877 C886 0.930 1_556 S
H878 C888 0.930 1_455 S
H879 C891 0.929 . S
H880 C894 0.930 . S
H881 C896 0.960 1_455 S
H882 C896 0.960 1_554 S
H883 C896 0.960 1_454 S
C884 H876 0.929 . S
C884 C885 1.377 . S
C884 C886 1.384 . S
C885 C884 1.377 . S
C885 C891 1.390 . S
C886 H877 0.930 1_554 S
C886 C884 1.384 . S
C886 C887 1.372 1_554 S
C887 C886 1.372 1_556 S
C887 C888 1.400 1_556 S
C887 C892 1.490 . S
C888 H878 0.930 1_655 S
C888 C887 1.400 1_554 S
C888 C891 1.386 . S
H889 C905 0.930 . S
H890 C906 0.931 . S
C891 H879 0.929 . S
C891 C885 1.390 . S
C891 C888 1.386 . S
C892 C887 1.490 . S
C892 C894 1.395 . S
C892 C895 1.403 . S
H893 C899 0.959 . S
C894 H880 0.930 . S
C894 C892 1.395 . S
C894 C897 1.403 . S
C895 C892 1.403 . S
C895 C896 1.524 . S
C895 C899 1.400 . S
C896 H881 0.960 1_655 S
C896 H882 0.960 1_556 S
C896 H883 0.960 1_656 S
C896 C895 1.524 . S
C897 C894 1.403 . S
C897 C898 1.392 . S
C897 C901 1.495 . S
C898 C897 1.392 . S
C898 C899 1.385 . S
C898 C900 1.478 . S
C899 H893 0.959 . S
C899 C895 1.400 . S
C899 C898 1.385 . S
C900 C898 1.478 . S
C900 C902 1.381 . S
C900 C906 1.383 1_655 S
C901 C897 1.495 . S
C901 H907 0.959 . S
C901 H908 0.961 . S
C901 H909 0.960 . S
C902 C900 1.381 . S
C902 C903 1.394 . S
C902 H910 0.930 . S
C903 C902 1.394 . S
C903 C904 1.383 . S
C903 H911 0.929 . S
C904 C903 1.383 . S
C904 C905 1.377 1_655 S
C905 H889 0.930 . S
C905 C904 1.377 1_455 S
C905 C906 1.379 . S
C906 H890 0.931 . S
C906 C900 1.383 1_455 S
C906 C905 1.379 . S
H907 C901 0.959 . S
H908 C901 0.961 . S
H909 C901 0.960 . S
H910 C902 0.930 . S
H911 C903 0.929 . S
H912 C920 0.929 . S
H913 C922 0.930 . S
H914 C924 0.930 . S
H915 C927 0.929 . S
H916 C930 0.930 . S
H917 C932 0.960 . S
H918 C932 0.960 . S
H919 C932 0.960 . S
C920 H912 0.929 . S
C920 C921 1.377 . S
C920 C922 1.384 . S
C921 C920 1.377 . S
C921 C927 1.390 . S
C922 H913 0.930 . S
C922 C920 1.384 . S
C922 C923 1.372 . S
C923 C922 1.372 . S
C923 C924 1.400 . S
C923 C928 1.490 . S
C924 H914 0.930 . S
C924 C923 1.400 . S
C924 C927 1.386 . S
H925 C941 0.930 . S
H926 C942 0.931 . S
C927 H915 0.929 . S
C927 C921 1.390 . S
C927 C924 1.386 . S
C928 C923 1.490 . S
C928 C930 1.395 . S
C928 C931 1.403 . S
H929 C935 0.930 . S
C930 H916 0.930 . S
C930 C928 1.395 . S
C930 C933 1.403 . S
C931 C928 1.403 . S
C931 C932 1.524 . S
C931 C935 1.400 . S
C932 H917 0.960 . S
C932 H918 0.960 . S
C932 H919 0.960 . S
C932 C931 1.524 . S
C933 C930 1.403 . S
C933 C934 1.392 . S
C933 C937 1.495 . S
C934 C933 1.392 . S
C934 C935 1.385 . S
C934 C936 1.478 . S
C935 H929 0.930 . S
C935 C931 1.400 . S
C935 C934 1.385 . S
C936 C934 1.478 . S
C936 C938 1.381 . S
C936 C942 1.383 . S
C937 C933 1.495 . S
C937 H943 0.959 . S
C937 H944 0.961 . S
C937 H945 0.960 . S
C938 C936 1.381 . S
C938 C939 1.394 1_455 S
C938 H946 0.948 . S
C939 C938 1.394 1_655 S
C939 C940 1.383 1_655 S
C939 H947 0.929 . S
C940 C939 1.383 1_455 S
C940 C941 1.377 . S
C941 H925 0.930 . S
C941 C940 1.377 . S
C941 C942 1.379 . S
C942 H926 0.931 . S
C942 C936 1.383 . S
C942 C941 1.379 . S
H943 C937 0.959 . S
H944 C937 0.961 . S
H945 C937 0.960 . S
H946 C938 0.948 . S
H947 C939 0.929 . S
H948 C956 0.929 . S
H949 C958 0.930 . S
H950 C960 0.930 . S
H951 C963 0.929 . S
H952 C966 0.930 . S
H953 C968 0.960 1_565 S
H954 C968 0.964 . S
H955 C968 0.960 . S
C956 H948 0.929 . S
C956 C957 1.377 . S
C956 C958 1.384 . S
C957 C956 1.377 . S
C957 C963 1.390 . S
C958 H949 0.930 . S
C958 C956 1.384 . S
C958 C959 1.372 . S
C959 C958 1.372 . S
C959 C960 1.400 . S
C959 C964 1.490 . S
C960 H950 0.930 . S
C960 C959 1.400 . S
C960 C963 1.386 . S
H961 C977 0.930 . S
H962 C978 0.931 . S
C963 H951 0.929 . S
C963 C957 1.390 . S
C963 C960 1.386 . S
C964 C959 1.490 . S
C964 C966 1.395 . S
C964 C967 1.403 . S
H965 C971 0.930 . S
C966 H952 0.930 . S
C966 C964 1.395 . S
C966 C969 1.403 . S
C967 C964 1.403 . S
C967 C968 1.524 . S
C967 C971 1.400 . S
C968 H953 0.960 1_545 S
C968 H954 0.964 . S
C968 H955 0.960 . S
C968 C967 1.524 . S
C969 C966 1.403 . S
C969 C970 1.392 . S
C969 C973 1.495 . S
C970 C969 1.392 . S
C970 C971 1.385 . S
C970 C972 1.478 . S
C971 H965 0.930 . S
C971 C967 1.400 . S
C971 C970 1.385 . S
C972 C970 1.478 . S
C972 C974 1.381 . S
C972 C978 1.383 . S
C973 C969 1.495 . S
C973 H979 0.959 . S
C973 H980 0.961 . S
C973 H981 0.960 . S
C974 C972 1.381 . S
C974 C975 1.394 . S
C974 H982 0.930 . S
C975 C974 1.394 . S
C975 C976 1.383 . S
C975 H983 0.929 1_545 S
C976 C975 1.383 . S
C976 C977 1.377 . S
C977 H961 0.930 . S
C977 C976 1.377 . S
C977 C978 1.379 . S
C978 H962 0.931 . S
C978 C972 1.383 . S
C978 C977 1.379 . S
H979 C973 0.959 . S
H980 C973 0.961 . S
H981 C973 0.960 . S
H982 C974 0.930 . S
H983 C975 0.929 1_565 S
H984 C992 0.929 . S
H985 C994 0.930 . S
H986 C996 0.930 . S
H987 C999 0.929 . S
H988 C1002 0.930 . S
H989 C1004 0.960 . S
H990 C1004 0.960 . S
H991 C1004 0.960 . S
C992 H984 0.929 . S
C992 C993 1.377 . S
C992 C994 1.384 . S
C993 C992 1.377 . S
C993 C999 1.390 . S
C994 H985 0.930 . S
C994 C992 1.384 . S
C994 C995 1.372 . S
C995 C994 1.372 . S
C995 C996 1.400 . S
C995 C1000 1.490 . S
C996 H986 0.930 . S
C996 C995 1.400 . S
C996 C999 1.386 . S
H997 C1013 0.930 . S
H998 C1014 0.931 . S
C999 H987 0.929 . S
C999 C993 1.390 . S
C999 C996 1.386 . S
C1000 C995 1.490 . S
C1000 C1002 1.395 . S
C1000 C1003 1.403 . S
H1001 C1007 0.930 . S
C1002 H988 0.930 . S
C1002 C1000 1.395 . S
C1002 C1005 1.403 . S
C1003 C1000 1.403 . S
C1003 C1004 1.524 . S
C1003 C1007 1.400 . S
C1004 H989 0.960 . S
C1004 H990 0.960 . S
C1004 H991 0.960 . S
C1004 C1003 1.524 . S
C1005 C1002 1.403 . S
C1005 C1006 1.392 . S
C1005 C1009 1.495 . S
C1006 C1005 1.392 . S
C1006 C1007 1.385 . S
C1006 C1008 1.478 . S
C1007 H1001 0.930 . S
C1007 C1003 1.400 . S
C1007 C1006 1.385 . S
C1008 C1006 1.478 . S
C1008 C1010 1.381 . S
C1008 C1014 1.383 . S
C1009 C1005 1.495 . S
C1009 H1015 0.959 . S
C1009 H1016 0.961 . S
C1009 H1017 0.960 . S
C1010 C1008 1.381 . S
C1010 C1011 1.394 . S
C1010 H1018 0.930 . S
C1011 C1010 1.394 . S
C1011 C1012 1.383 . S
C1011 H1019 0.929 . S
C1012 C1011 1.383 . S
C1012 C1013 1.377 . S
C1013 H997 0.930 . S
C1013 C1012 1.377 . S
C1013 C1014 1.379 . S
C1014 H998 0.931 . S
C1014 C1008 1.383 . S
C1014 C1013 1.379 . S
H1015 C1009 0.959 . S
H1016 C1009 0.961 . S
H1017 C1009 0.960 . S
H1018 C1010 0.930 . S
H1019 C1011 0.929 . S
H1020 C1028 0.929 . S
H1021 C1030 0.930 . S
H1022 C1032 0.930 . S
H1023 C1035 0.929 . S
H1024 C1038 0.930 . S
H1025 C1040 0.960 . S
H1026 C1040 0.960 . S
H1027 C1040 0.960 . S
C1028 H1020 0.929 . S
C1028 C1029 1.377 . S
C1028 C1030 1.384 . S
C1029 C1028 1.377 . S
C1029 C1035 1.390 . S
C1030 H1021 0.930 . S
C1030 C1028 1.384 . S
C1030 C1031 1.372 . S
C1031 C1030 1.372 . S
C1031 C1032 1.400 . S
C1031 C1036 1.490 . S
C1032 H1022 0.930 . S
C1032 C1031 1.400 . S
C1032 C1035 1.386 . S
H1033 C1049 0.930 . S
H1034 C1050 0.931 . S
C1035 H1023 0.929 . S
C1035 C1029 1.390 . S
C1035 C1032 1.386 . S
C1036 C1031 1.490 . S
C1036 C1038 1.395 . S
C1036 C1039 1.403 . S
H1037 C1043 0.930 . S
C1038 H1024 0.930 . S
C1038 C1036 1.395 . S
C1038 C1041 1.403 . S
C1039 C1036 1.403 . S
C1039 C1040 1.524 . S
C1039 C1043 1.400 . S
C1040 H1025 0.960 . S
C1040 H1026 0.960 . S
C1040 H1027 0.960 . S
C1040 C1039 1.524 . S
C1041 C1038 1.403 . S
C1041 C1042 1.392 . S
C1041 C1045 1.495 . S
C1042 C1041 1.392 . S
C1042 C1043 1.385 . S
C1042 C1044 1.478 . S
C1043 H1037 0.930 . S
C1043 C1039 1.400 . S
C1043 C1042 1.385 . S
C1044 C1042 1.478 . S
C1044 C1046 1.381 . S
C1044 C1050 1.383 . S
C1045 C1041 1.495 . S
C1045 H1051 0.959 . S
C1045 H1052 0.961 . S
C1045 H1053 0.960 . S
C1046 C1044 1.381 . S
C1046 C1047 1.394 . S
C1046 H1054 0.930 . S
C1047 C1046 1.394 . S
C1047 C1048 1.383 . S
C1047 H1055 0.929 . S
C1048 C1047 1.383 . S
C1048 C1049 1.377 . S
C1049 H1033 0.930 . S
C1049 C1048 1.377 . S
C1049 C1050 1.379 . S
C1050 H1034 0.931 . S
C1050 C1044 1.383 . S
C1050 C1049 1.379 . S
H1051 C1045 0.959 . S
H1052 C1045 0.961 . S
H1053 C1045 0.960 . S
H1054 C1046 0.930 . S
H1055 C1047 0.929 . S
H1056 C1064 0.929 . S
H1057 C1066 0.930 . S
H1058 C1068 0.930 . S
H1059 C1071 0.929 . S
H1060 C1074 0.930 . S
H1061 C1076 0.960 . S
H1062 C1076 0.960 . S
H1063 C1076 0.960 1_654 S
C1064 H1056 0.929 . S
C1064 C1065 1.377 1_556 S
C1064 C1066 1.384 . S
C1065 C1064 1.377 1_554 S
C1065 C1071 1.390 . S
C1066 H1057 0.930 . S
C1066 C1064 1.384 . S
C1066 C1067 1.372 . S
C1067 C1066 1.372 . S
C1067 C1068 1.400 1_556 S
C1067 C1072 1.490 . S
C1068 H1058 0.930 . S
C1068 C1067 1.400 1_554 S
C1068 C1071 1.386 . S
H1069 C1085 0.930 . S
H1070 C1086 0.931 . S
C1071 H1059 0.929 . S
C1071 C1065 1.390 . S
C1071 C1068 1.386 . S
C1072 C1067 1.490 . S
C1072 C1074 1.395 . S
C1072 C1075 1.403 . S
H1073 C1079 0.930 1_455 S
C1074 H1060 0.930 . S
C1074 C1072 1.395 . S
C1074 C1077 1.403 . S
C1075 C1072 1.403 . S
C1075 C1076 1.524 1_655 S
C1075 C1079 1.400 . S
C1076 H1061 0.960 . S
C1076 H1062 0.960 . S
C1076 H1063 0.960 1_456 S
C1076 C1075 1.524 1_455 S
C1077 C1074 1.403 . S
C1077 C1078 1.392 . S
C1077 C1081 1.495 . S
C1078 C1077 1.392 . S
C1078 C1079 1.385 . S
C1078 C1080 1.478 . S
C1079 H1073 0.930 1_655 S
C1079 C1075 1.400 . S
C1079 C1078 1.385 . S
C1080 C1078 1.478 . S
C1080 C1082 1.381 1_655 S
C1080 C1086 1.383 . S
C1081 C1077 1.495 . S
C1081 H1087 0.959 . S
C1081 H1088 0.961 . S
C1081 H1089 0.960 . S
C1082 C1080 1.381 1_455 S
C1082 C1083 1.394 . S
C1082 H1090 0.930 . S
C1083 C1082 1.394 . S
C1083 C1084 1.383 . S
C1083 H1091 0.929 . S
C1084 C1083 1.383 . S
C1084 C1085 1.377 1_455 S
C1085 H1069 0.930 . S
C1085 C1084 1.377 1_655 S
C1085 C1086 1.379 . S
C1086 H1070 0.931 . S
C1086 C1080 1.383 . S
C1086 C1085 1.379 . S
H1087 C1081 0.959 . S
H1088 C1081 0.961 . S
H1089 C1081 0.960 . S
H1090 C1082 0.930 . S
H1091 C1083 0.929 . S
H1092 C1100 0.929 . S
H1093 C1102 0.930 1_554 S
H1094 C1104 0.930 . S
H1095 C1107 0.929 . S
H1096 C1110 0.930 . S
H1097 C1112 0.960 . S
H1098 C1112 0.960 . S
H1099 C1112 0.960 . S
C1100 H1092 0.929 . S
C1100 C1101 1.377 . S
C1100 C1102 1.384 1_554 S
C1101 C1100 1.377 . S
C1101 C1107 1.390 1_554 S
C1102 H1093 0.930 1_556 S
C1102 C1100 1.384 1_556 S
C1102 C1103 1.372 . S
C1103 C1102 1.372 . S
C1103 C1104 1.400 . S
C1103 C1108 1.490 . S
C1104 H1094 0.930 . S
C1104 C1103 1.400 . S
C1104 C1107 1.386 . S
H1105 C1121 0.930 . S
H1106 C1122 0.931 . S
C1107 H1095 0.929 . S
C1107 C1101 1.390 1_556 S
C1107 C1104 1.386 . S
C1108 C1103 1.490 . S
C1108 C1110 1.395 . S
C1108 C1111 1.403 . S
H1109 C1115 0.930 . S
C1110 H1096 0.930 . S
C1110 C1108 1.395 . S
C1110 C1113 1.403 . S
C1111 C1108 1.403 . S
C1111 C1112 1.524 . S
C1111 C1115 1.400 . S
C1112 H1097 0.960 . S
C1112 H1098 0.960 . S
C1112 H1099 0.960 . S
C1112 C1111 1.524 . S
C1113 C1110 1.403 . S
C1113 C1114 1.392 . S
C1113 C1117 1.495 1_565 S
C1114 C1113 1.392 . S
C1114 C1115 1.385 . S
C1114 C1116 1.478 . S
C1115 H1109 0.930 . S
C1115 C1111 1.400 . S
C1115 C1114 1.385 . S
C1116 C1114 1.478 . S
C1116 C1118 1.381 . S
C1116 C1122 1.383 1_565 S
C1117 C1113 1.495 1_545 S
C1117 H1123 0.962 . S
C1117 H1124 0.961 . S
C1117 H1125 0.960 1_545 S
C1118 C1116 1.381 . S
C1118 C1119 1.394 . S
C1118 H1126 0.930 . S
C1119 C1118 1.394 . S
C1119 C1120 1.383 1_565 S
C1119 H1127 0.929 . S
C1120 C1119 1.383 1_545 S
C1120 C1121 1.377 . S
C1121 H1105 0.930 . S
C1121 C1120 1.377 . S
C1121 C1122 1.379 . S
C1122 H1106 0.931 . S
C1122 C1116 1.383 1_545 S
C1122 C1121 1.379 . S
H1123 C1117 0.962 . S
H1124 C1117 0.961 . S
H1125 C1117 0.960 1_565 S
H1126 C1118 0.930 . S
H1127 C1119 0.929 . S
H1128 C1136 0.929 . S
H1129 C1138 0.930 . S
H1130 C1140 0.930 . S
H1131 C1143 0.929 . S
H1132 C1146 0.930 . S
H1133 C1148 0.960 . S
H1134 C1148 0.960 . S
H1135 C1148 0.960 . S
C1136 H1128 0.929 . S
C1136 C1137 1.377 1_556 S
C1136 C1138 1.384 . S
C1137 C1136 1.377 1_554 S
C1137 C1143 1.390 . S
C1138 H1129 0.930 . S
C1138 C1136 1.384 . S
C1138 C1139 1.372 . S
C1139 C1138 1.372 . S
C1139 C1140 1.400 . S
C1139 C1144 1.490 . S
C1140 H1130 0.930 . S
C1140 C1139 1.400 . S
C1140 C1143 1.386 1_556 S
H1141 C1157 0.930 . S
H1142 C1158 0.931 . S
C1143 H1131 0.929 . S
C1143 C1137 1.390 . S
C1143 C1140 1.386 1_554 S
C1144 C1139 1.490 . S
C1144 C1146 1.395 . S
C1144 C1147 1.403 . S
H1145 C1151 0.930 . S
C1146 H1132 0.930 . S
C1146 C1144 1.395 . S
C1146 C1149 1.403 . S
C1147 C1144 1.403 . S
C1147 C1148 1.524 . S
C1147 C1151 1.400 . S
C1148 H1133 0.960 . S
C1148 H1134 0.960 . S
C1148 H1135 0.960 . S
C1148 C1147 1.524 . S
C1149 C1146 1.403 . S
C1149 C1150 1.392 . S
C1149 C1153 1.495 . S
C1150 C1149 1.392 . S
C1150 C1151 1.385 . S
C1150 C1152 1.478 . S
C1151 H1145 0.930 . S
C1151 C1147 1.400 . S
C1151 C1150 1.385 . S
C1152 C1150 1.478 . S
C1152 C1154 1.381 . S
C1152 C1158 1.383 . S
C1153 C1149 1.495 . S
C1153 H1159 0.959 . S
C1153 H1160 0.961 . S
C1153 H1161 0.960 . S
C1154 C1152 1.381 . S
C1154 C1155 1.394 . S
C1154 H1162 0.930 . S
C1155 C1154 1.394 . S
C1155 C1156 1.383 . S
C1155 H1163 0.929 . S
C1156 C1155 1.383 . S
C1156 C1157 1.377 . S
C1157 H1141 0.930 . S
C1157 C1156 1.377 . S
C1157 C1158 1.379 . S
C1158 H1142 0.931 . S
C1158 C1152 1.383 . S
C1158 C1157 1.379 . S
H1159 C1153 0.959 . S
H1160 C1153 0.961 . S
H1161 C1153 0.960 . S
H1162 C1154 0.930 . S
H1163 C1155 0.929 . S
H1164 C1172 0.929 . S
H1165 C1174 0.930 . S
H1166 C1176 0.930 . S
H1167 C1179 0.929 1_554 S
H1168 C1182 0.930 . S
H1169 C1184 0.960 . S
H1170 C1184 0.960 1_554 S
H1171 C1184 0.960 . S
C1172 H1164 0.929 . S
C1172 C1173 1.377 . S
C1172 C1174 1.384 1_554 S
C1173 C1172 1.377 . S
C1173 C1179 1.390 1_554 S
C1174 H1165 0.930 . S
C1174 C1172 1.384 1_556 S
C1174 C1175 1.372 . S
C1175 C1174 1.372 . S
C1175 C1176 1.400 . S
C1175 C1180 1.490 . S
C1176 H1166 0.930 . S
C1176 C1175 1.400 . S
C1176 C1179 1.386 . S
H1177 C1193 0.930 . S
H1178 C1194 0.931 . S
C1179 H1167 0.929 1_556 S
C1179 C1173 1.390 1_556 S
C1179 C1176 1.386 . S
C1180 C1175 1.490 . S
C1180 C1182 1.395 . S
C1180 C1183 1.403 . S
H1181 C1187 0.930 . S
C1182 H1168 0.930 . S
C1182 C1180 1.395 . S
C1182 C1185 1.403 . S
C1183 C1180 1.403 . S
C1183 C1184 1.524 . S
C1183 C1187 1.400 . S
C1184 H1169 0.960 . S
C1184 H1170 0.960 1_556 S
C1184 H1171 0.960 . S
C1184 C1183 1.524 . S
C1185 C1182 1.403 . S
C1185 C1186 1.392 . S
C1185 C1189 1.495 . S
C1186 C1185 1.392 . S
C1186 C1187 1.385 . S
C1186 C1188 1.478 . S
C1187 H1181 0.930 . S
C1187 C1183 1.400 . S
C1187 C1186 1.385 . S
C1188 C1186 1.478 . S
C1188 C1190 1.381 . S
C1188 C1194 1.383 . S
C1189 C1185 1.495 . S
C1189 H1195 0.959 . S
C1189 H1196 0.961 . S
C1189 H1197 0.960 . S
C1190 C1188 1.381 . S
C1190 C1191 1.394 . S
C1190 H1198 0.930 . S
C1191 C1190 1.394 . S
C1191 C1192 1.383 . S
C1191 H1199 0.929 . S
C1192 C1191 1.383 . S
C1192 C1193 1.377 . S
C1193 H1177 0.930 . S
C1193 C1192 1.377 . S
C1193 C1194 1.379 . S
C1194 H1178 0.931 . S
C1194 C1188 1.383 . S
C1194 C1193 1.379 . S
H1195 C1189 0.959 . S
H1196 C1189 0.961 . S
H1197 C1189 0.960 . S
H1198 C1190 0.930 . S
H1199 C1191 0.929 . S
H1200 C1208 0.929 . S
H1201 C1210 0.930 . S
H1202 C1212 0.930 . S
H1203 C1215 0.929 . S
H1204 C1218 0.930 . S
H1205 C1220 0.960 . S
H1206 C1220 0.960 . S
H1207 C1220 0.960 . S
C1208 H1200 0.929 . S
C1208 C1209 1.377 . S
C1208 C1210 1.384 . S
C1209 C1208 1.377 . S
C1209 C1215 1.390 . S
C1210 H1201 0.930 . S
C1210 C1208 1.384 . S
C1210 C1211 1.372 . S
C1211 C1210 1.372 . S
C1211 C1212 1.400 . S
C1211 C1216 1.490 . S
C1212 H1202 0.930 . S
C1212 C1211 1.400 . S
C1212 C1215 1.386 . S
H1213 C1229 0.930 . S
H1214 C1230 0.931 . S
C1215 H1203 0.929 . S
C1215 C1209 1.390 . S
C1215 C1212 1.386 . S
C1216 C1211 1.490 . S
C1216 C1218 1.395 . S
C1216 C1219 1.403 . S
H1217 C1223 0.930 . S
C1218 H1204 0.930 . S
C1218 C1216 1.395 . S
C1218 C1221 1.403 . S
C1219 C1216 1.403 . S
C1219 C1220 1.524 . S
C1219 C1223 1.400 . S
C1220 H1205 0.960 . S
C1220 H1206 0.960 . S
C1220 H1207 0.960 . S
C1220 C1219 1.524 . S
C1221 C1218 1.403 . S
C1221 C1222 1.392 . S
C1221 C1225 1.495 1_455 S
C1222 C1221 1.392 . S
C1222 C1223 1.385 . S
C1222 C1224 1.478 . S
C1223 H1217 0.930 . S
C1223 C1219 1.400 . S
C1223 C1222 1.385 . S
C1224 C1222 1.478 . S
C1224 C1226 1.381 . S
C1224 C1230 1.383 . S
C1225 C1221 1.495 1_655 S
C1225 H1231 0.959 . S
C1225 H1232 0.961 . S
C1225 H1233 0.960 . S
C1226 C1224 1.381 . S
C1226 C1227 1.394 . S
C1226 H1234 0.930 . S
C1227 C1226 1.394 . S
C1227 C1228 1.383 . S
C1227 H1235 0.929 . S
C1228 C1227 1.383 . S
C1228 C1229 1.377 . S
C1229 H1213 0.930 . S
C1229 C1228 1.377 . S
C1229 C1230 1.379 . S
C1230 H1214 0.931 . S
C1230 C1224 1.383 . S
C1230 C1229 1.379 . S
H1231 C1225 0.959 . S
H1232 C1225 0.961 . S
H1233 C1225 0.960 . S
H1234 C1226 0.930 . S
H1235 C1227 0.929 . S
H1236 C1244 0.929 . S
H1237 C1246 0.930 . S
H1238 C1248 0.930 . S
H1239 C1251 0.929 . S
H1240 C1254 0.930 . S
H1241 C1256 0.960 . S
H1242 C1256 0.960 . S
H1243 C1256 0.960 . S
C1244 H1236 0.929 . S
C1244 C1245 1.377 . S
C1244 C1246 1.384 . S
C1245 C1244 1.377 . S
C1245 C1251 1.390 . S
C1246 H1237 0.930 . S
C1246 C1244 1.384 . S
C1246 C1247 1.372 . S
C1247 C1246 1.372 . S
C1247 C1248 1.400 . S
C1247 C1252 1.490 . S
C1248 H1238 0.930 . S
C1248 C1247 1.400 . S
C1248 C1251 1.386 . S
H1249 C1265 0.930 . S
H1250 C1266 0.931 . S
C1251 H1239 0.929 . S
C1251 C1245 1.390 . S
C1251 C1248 1.386 . S
C1252 C1247 1.490 . S
C1252 C1254 1.395 . S
C1252 C1255 1.403 . S
H1253 C1259 0.930 . S
C1254 H1240 0.930 . S
C1254 C1252 1.395 . S
C1254 C1257 1.403 . S
C1255 C1252 1.403 . S
C1255 C1256 1.524 . S
C1255 C1259 1.400 . S
C1256 H1241 0.960 . S
C1256 H1242 0.960 . S
C1256 H1243 0.960 . S
C1256 C1255 1.524 . S
C1257 C1254 1.403 . S
C1257 C1258 1.392 . S
C1257 C1261 1.495 . S
C1258 C1257 1.392 . S
C1258 C1259 1.385 . S
C1258 C1260 1.478 . S
C1259 H1253 0.930 . S
C1259 C1255 1.400 . S
C1259 C1258 1.385 . S
C1260 C1258 1.478 . S
C1260 C1262 1.381 . S
C1260 C1266 1.383 . S
C1261 C1257 1.495 . S
C1261 H1267 0.959 . S
C1261 H1268 0.961 . S
C1261 H1269 0.960 . S
C1262 C1260 1.381 . S
C1262 C1263 1.394 . S
C1262 H1270 0.896 1_545 S
C1263 C1262 1.394 . S
C1263 C1264 1.383 . S
C1263 H1271 0.929 1_545 S
C1264 C1263 1.383 . S
C1264 C1265 1.377 . S
C1265 H1249 0.930 . S
C1265 C1264 1.377 . S
C1265 C1266 1.379 . S
C1266 H1250 0.931 . S
C1266 C1260 1.383 . S
C1266 C1265 1.379 . S
H1267 C1261 0.959 . S
H1268 C1261 0.961 . S
H1269 C1261 0.960 . S
H1270 C1262 0.896 1_565 S
H1271 C1263 0.929 1_565 S
H1272 C1280 0.929 . S
H1273 C1282 0.930 . S
H1274 C1284 0.930 . S
H1275 C1287 0.929 . S
H1276 C1290 0.930 . S
H1277 C1292 0.960 . S
H1278 C1292 0.960 . S
H1279 C1292 0.960 . S
C1280 H1272 0.929 . S
C1280 C1281 1.377 . S
C1280 C1282 1.384 . S
C1281 C1280 1.377 . S
C1281 C1287 1.390 . S
C1282 H1273 0.930 . S
C1282 C1280 1.384 . S
C1282 C1283 1.372 . S
C1283 C1282 1.372 . S
C1283 C1284 1.400 . S
C1283 C1288 1.490 . S
C1284 H1274 0.930 . S
C1284 C1283 1.400 . S
C1284 C1287 1.386 . S
H1285 C1301 0.930 . S
H1286 C1302 0.931 . S
C1287 H1275 0.929 . S
C1287 C1281 1.390 . S
C1287 C1284 1.386 . S
C1288 C1283 1.490 . S
C1288 C1290 1.395 . S
C1288 C1291 1.403 . S
H1289 C1295 0.930 . S
C1290 H1276 0.930 . S
C1290 C1288 1.395 . S
C1290 C1293 1.403 . S
C1291 C1288 1.403 . S
C1291 C1292 1.524 . S
C1291 C1295 1.400 . S
C1292 H1277 0.960 . S
C1292 H1278 0.960 . S
C1292 H1279 0.960 . S
C1292 C1291 1.524 . S
C1293 C1290 1.403 . S
C1293 C1294 1.392 . S
C1293 C1297 1.495 . S
C1294 C1293 1.392 . S
C1294 C1295 1.385 . S
C1294 C1296 1.478 . S
C1295 H1289 0.930 . S
C1295 C1291 1.400 . S
C1295 C1294 1.385 . S
C1296 C1294 1.478 . S
C1296 C1298 1.381 . S
C1296 C1302 1.383 . S
C1297 C1293 1.495 . S
C1297 H1303 0.959 . S
C1297 H1304 0.961 . S
C1297 H1305 0.960 . S
C1298 C1296 1.381 . S
C1298 C1299 1.394 . S
C1298 H1306 0.930 . S
C1299 C1298 1.394 . S
C1299 C1300 1.383 . S
C1299 H1307 0.929 . S
C1300 C1299 1.383 . S
C1300 C1301 1.377 . S
C1301 H1285 0.930 . S
C1301 C1300 1.377 . S
C1301 C1302 1.379 . S
C1302 H1286 0.931 . S
C1302 C1296 1.383 . S
C1302 C1301 1.379 . S
H1303 C1297 0.959 . S
H1304 C1297 0.961 . S
H1305 C1297 0.960 . S
H1306 C1298 0.930 . S
H1307 C1299 0.929 . S
H1308 C1316 0.929 . S
H1309 C1318 0.930 . S
H1310 C1320 0.930 . S
H1311 C1323 0.929 . S
H1312 C1326 0.930 . S
H1313 C1328 0.960 . S
H1314 C1328 0.960 . S
H1315 C1328 0.960 . S
C1316 H1308 0.929 . S
C1316 C1317 1.377 . S
C1316 C1318 1.384 . S
C1317 C1316 1.377 . S
C1317 C1323 1.390 . S
C1318 H1309 0.930 . S
C1318 C1316 1.384 . S
C1318 C1319 1.372 . S
C1319 C1318 1.372 . S
C1319 C1320 1.400 . S
C1319 C1324 1.490 . S
C1320 H1310 0.930 . S
C1320 C1319 1.400 . S
C1320 C1323 1.386 . S
H1321 C1337 0.930 . S
H1322 C1338 0.931 . S
C1323 H1311 0.929 . S
C1323 C1317 1.390 . S
C1323 C1320 1.386 . S
C1324 C1319 1.490 . S
C1324 C1326 1.395 . S
C1324 C1327 1.403 . S
H1325 C1331 0.930 . S
C1326 H1312 0.930 . S
C1326 C1324 1.395 . S
C1326 C1329 1.403 . S
C1327 C1324 1.403 . S
C1327 C1328 1.524 . S
C1327 C1331 1.400 . S
C1328 H1313 0.960 . S
C1328 H1314 0.960 . S
C1328 H1315 0.960 . S
C1328 C1327 1.524 . S
C1329 C1326 1.403 . S
C1329 C1330 1.392 . S
C1329 C1333 1.495 . S
C1330 C1329 1.392 . S
C1330 C1331 1.385 . S
C1330 C1332 1.478 . S
C1331 H1325 0.930 . S
C1331 C1327 1.400 . S
C1331 C1330 1.385 . S
C1332 C1330 1.478 . S
C1332 C1334 1.381 . S
C1332 C1338 1.383 . S
C1333 C1329 1.495 . S
C1333 H1339 0.959 . S
C1333 H1340 0.961 . S
C1333 H1341 0.960 . S
C1334 C1332 1.381 . S
C1334 C1335 1.394 . S
C1334 H1342 0.930 . S
C1335 C1334 1.394 . S
C1335 C1336 1.383 . S
C1335 H1343 0.929 . S
C1336 C1335 1.383 . S
C1336 C1337 1.377 . S
C1337 H1321 0.930 . S
C1337 C1336 1.377 . S
C1337 C1338 1.379 . S
C1338 H1322 0.931 . S
C1338 C1332 1.383 . S
C1338 C1337 1.379 . S
H1339 C1333 0.959 . S
H1340 C1333 0.961 . S
H1341 C1333 0.960 . S
H1342 C1334 0.930 . S
H1343 C1335 0.929 . S
H1344 C1352 0.929 . S
H1345 C1354 0.930 . S
H1346 C1356 0.904 1_455 S
H1347 C1359 0.929 . S
H1348 C1362 0.930 . S
H1349 C1364 0.960 1_455 S
H1350 C1364 0.960 . S
H1351 C1364 0.960 1_455 S
C1352 H1344 0.929 . S
C1352 C1353 1.377 . S
C1352 C1354 1.384 . S
C1353 C1352 1.377 . S
C1353 C1359 1.390 . S
C1354 H1345 0.930 . S
C1354 C1352 1.384 . S
C1354 C1355 1.372 . S
C1355 C1354 1.372 . S
C1355 C1356 1.400 . S
C1355 C1360 1.490 . S
C1356 H1346 0.904 1_655 S
C1356 C1355 1.400 . S
C1356 C1359 1.386 . S
H1357 C1373 0.930 . S
H1358 C1374 0.931 . S
C1359 H1347 0.929 . S
C1359 C1353 1.390 . S
C1359 C1356 1.386 . S
C1360 C1355 1.490 . S
C1360 C1362 1.395 . S
C1360 C1363 1.403 . S
H1361 C1367 0.930 . S
C1362 H1348 0.930 . S
C1362 C1360 1.395 . S
C1362 C1365 1.403 . S
C1363 C1360 1.403 . S
C1363 C1364 1.524 . S
C1363 C1367 1.400 . S
C1364 H1349 0.960 1_655 S
C1364 H1350 0.960 . S
C1364 H1351 0.960 1_655 S
C1364 C1363 1.524 . S
C1365 C1362 1.403 . S
C1365 C1366 1.392 . S
C1365 C1369 1.495 . S
C1366 C1365 1.392 . S
C1366 C1367 1.385 . S
C1366 C1368 1.478 . S
C1367 H1361 0.930 . S
C1367 C1363 1.400 . S
C1367 C1366 1.385 . S
C1368 C1366 1.478 . S
C1368 C1370 1.381 . S
C1368 C1374 1.383 1_655 S
C1369 C1365 1.495 . S
C1369 H1375 0.959 . S
C1369 H1376 0.961 . S
C1369 H1377 0.960 . S
C1370 C1368 1.381 . S
C1370 C1371 1.394 . S
C1370 H1378 0.930 . S
C1371 C1370 1.394 . S
C1371 C1372 1.383 . S
C1371 H1379 0.929 . S
C1372 C1371 1.383 . S
C1372 C1373 1.377 1_655 S
C1373 H1357 0.930 . S
C1373 C1372 1.377 1_455 S
C1373 C1374 1.379 . S
C1374 H1358 0.931 . S
C1374 C1368 1.383 1_455 S
C1374 C1373 1.379 . S
H1375 C1369 0.959 . S
H1376 C1369 0.961 . S
H1377 C1369 0.960 . S
H1378 C1370 0.930 . S
H1379 C1371 0.929 . S
H1380 C1388 0.929 . S
H1381 C1390 0.930 . S
H1382 C1392 0.930 . S
H1383 C1395 0.929 . S
H1384 C1398 0.930 . S
H1385 C1400 0.960 . S
H1386 C1400 0.960 . S
H1387 C1400 0.960 . S
C1388 H1380 0.929 . S
C1388 C1389 1.377 . S
C1388 C1390 1.384 . S
C1389 C1388 1.377 . S
C1389 C1395 1.390 . S
C1390 H1381 0.930 . S
C1390 C1388 1.384 . S
C1390 C1391 1.372 . S
C1391 C1390 1.372 . S
C1391 C1392 1.400 . S
C1391 C1396 1.490 . S
C1392 H1382 0.930 . S
C1392 C1391 1.400 . S
C1392 C1395 1.386 . S
H1393 C1409 0.930 . S
H1394 C1410 0.931 . S
C1395 H1383 0.929 . S
C1395 C1389 1.390 . S
C1395 C1392 1.386 . S
C1396 C1391 1.490 . S
C1396 C1398 1.395 . S
C1396 C1399 1.403 . S
H1397 C1403 0.930 . S
C1398 H1384 0.930 . S
C1398 C1396 1.395 . S
C1398 C1401 1.403 . S
C1399 C1396 1.403 . S
C1399 C1400 1.524 . S
C1399 C1403 1.400 . S
C1400 H1385 0.960 . S
C1400 H1386 0.960 . S
C1400 H1387 0.960 . S
C1400 C1399 1.524 . S
C1401 C1398 1.403 . S
C1401 C1402 1.392 . S
C1401 C1405 1.495 . S
C1402 C1401 1.392 . S
C1402 C1403 1.385 . S
C1402 C1404 1.478 . S
C1403 H1397 0.930 . S
C1403 C1399 1.400 . S
C1403 C1402 1.385 . S
C1404 C1402 1.478 . S
C1404 C1406 1.381 1_565 S
C1404 C1410 1.383 . S
C1405 C1401 1.495 . S
C1405 H1411 0.959 . S
C1405 H1412 0.961 . S
C1405 H1413 0.960 1_565 S
C1406 C1404 1.381 1_545 S
C1406 C1407 1.394 . S
C1406 H1414 0.930 . S
C1407 C1406 1.394 . S
C1407 C1408 1.383 1_545 S
C1407 H1415 0.929 . S
C1408 C1407 1.383 1_565 S
C1408 C1409 1.377 . S
C1409 H1393 0.930 . S
C1409 C1408 1.377 . S
C1409 C1410 1.379 . S
C1410 H1394 0.931 . S
C1410 C1404 1.383 . S
C1410 C1409 1.379 . S
H1411 C1405 0.959 . S
H1412 C1405 0.961 . S
H1413 C1405 0.960 1_545 S
H1414 C1406 0.930 . S
H1415 C1407 0.929 . S
H1416 C1424 0.929 . S
H1417 C1426 0.930 . S
H1418 C1428 0.930 . S
H1419 C1431 0.929 . S
H1420 C1434 0.930 . S
H1421 C1436 0.960 . S
H1422 C1436 0.960 . S
H1423 C1436 0.960 . S
C1424 H1416 0.929 . S
C1424 C1425 1.377 . S
C1424 C1426 1.384 . S
C1425 C1424 1.377 . S
C1425 C1431 1.390 . S
C1426 H1417 0.930 . S
C1426 C1424 1.384 . S
C1426 C1427 1.372 . S
C1427 C1426 1.372 . S
C1427 C1428 1.400 . S
C1427 C1432 1.490 . S
C1428 H1418 0.930 . S
C1428 C1427 1.400 . S
C1428 C1431 1.386 . S
H1429 C1445 0.930 . S
H1430 C1446 0.931 . S
C1431 H1419 0.929 . S
C1431 C1425 1.390 . S
C1431 C1428 1.386 . S
C1432 C1427 1.490 . S
C1432 C1434 1.395 . S
C1432 C1435 1.403 . S
H1433 C1439 0.930 . S
C1434 H1420 0.930 . S
C1434 C1432 1.395 . S
C1434 C1437 1.403 . S
C1435 C1432 1.403 . S
C1435 C1436 1.524 . S
C1435 C1439 1.400 . S
C1436 H1421 0.960 . S
C1436 H1422 0.960 . S
C1436 H1423 0.960 . S
C1436 C1435 1.524 . S
C1437 C1434 1.403 . S
C1437 C1438 1.392 . S
C1437 C1441 1.495 . S
C1438 C1437 1.392 . S
C1438 C1439 1.385 . S
C1438 C1440 1.478 . S
C1439 H1433 0.930 . S
C1439 C1435 1.400 . S
C1439 C1438 1.385 . S
C1440 C1438 1.478 . S
C1440 C1442 1.381 . S
C1440 C1446 1.383 . S
C1441 C1437 1.495 . S
C1441 H1447 0.959 . S
C1441 H1448 0.961 . S
C1441 H1449 0.960 . S
C1442 C1440 1.381 . S
C1442 C1443 1.394 . S
C1442 H1450 0.930 . S
C1443 C1442 1.394 . S
C1443 C1444 1.383 . S
C1443 H1451 0.929 . S
C1444 C1443 1.383 . S
C1444 C1445 1.377 . S
C1445 H1429 0.930 . S
C1445 C1444 1.377 . S
C1445 C1446 1.379 . S
C1446 H1430 0.931 . S
C1446 C1440 1.383 . S
C1446 C1445 1.379 . S
H1447 C1441 0.959 . S
H1448 C1441 0.961 . S
H1449 C1441 0.960 . S
H1450 C1442 0.930 . S
H1451 C1443 0.929 . S
H1452 C1460 0.929 . S
H1453 C1462 0.930 . S
H1454 C1464 0.930 . S
H1455 C1467 0.929 . S
H1456 C1470 0.930 . S
H1457 C1472 0.960 . S
H1458 C1472 0.960 . S
H1459 C1472 0.960 . S
C1460 H1452 0.929 . S
C1460 C1461 1.377 . S
C1460 C1462 1.384 . S
C1461 C1460 1.377 . S
C1461 C1467 1.390 . S
C1462 H1453 0.930 . S
C1462 C1460 1.384 . S
C1462 C1463 1.372 . S
C1463 C1462 1.372 . S
C1463 C1464 1.400 . S
C1463 C1468 1.490 . S
C1464 H1454 0.930 . S
C1464 C1463 1.400 . S
C1464 C1467 1.386 . S
H1465 C1481 0.930 . S
H1466 C1482 0.931 . S
C1467 H1455 0.929 . S
C1467 C1461 1.390 . S
C1467 C1464 1.386 . S
C1468 C1463 1.490 . S
C1468 C1470 1.395 . S
C1468 C1471 1.403 . S
H1469 C1475 0.930 . S
C1470 H1456 0.930 . S
C1470 C1468 1.395 . S
C1470 C1473 1.403 . S
C1471 C1468 1.403 . S
C1471 C1472 1.524 . S
C1471 C1475 1.400 . S
C1472 H1457 0.960 . S
C1472 H1458 0.960 . S
C1472 H1459 0.960 . S
C1472 C1471 1.524 . S
C1473 C1470 1.403 . S
C1473 C1474 1.392 . S
C1473 C1477 1.495 . S
C1474 C1473 1.392 . S
C1474 C1475 1.385 . S
C1474 C1476 1.478 . S
C1475 H1469 0.930 . S
C1475 C1471 1.400 . S
C1475 C1474 1.385 . S
C1476 C1474 1.478 . S
C1476 C1478 1.381 . S
C1476 C1482 1.383 . S
C1477 C1473 1.495 . S
C1477 H1483 0.959 . S
C1477 H1484 0.961 . S
C1477 H1485 0.960 . S
C1478 C1476 1.381 . S
C1478 C1479 1.394 . S
C1478 H1486 0.930 . S
C1479 C1478 1.394 . S
C1479 C1480 1.383 . S
C1479 H1487 0.929 . S
C1480 C1479 1.383 . S
C1480 C1481 1.377 . S
C1481 H1465 0.930 . S
C1481 C1480 1.377 . S
C1481 C1482 1.379 . S
C1482 H1466 0.931 . S
C1482 C1476 1.383 . S
C1482 C1481 1.379 . S
H1483 C1477 0.959 . S
H1484 C1477 0.961 . S
H1485 C1477 0.960 . S
H1486 C1478 0.930 . S
H1487 C1479 0.929 . S
C633 C241 2.052 . S
C652 C356 2.163 . S
C688 C439 2.214 . S
C669 C277 2.100 . S
C724 C524 2.175 . S
C705 C169 2.034 . S
C760 C608 2.152 . S
C741 C205 2.032 . S
C796 C344 2.179 1_565 S
C777 C97 2.022 . S
C813 C133 2.127 . S
C832 C427 2.194 . S
C849 C25 2.005 . S
C868 C512 2.155 . S
C885 C61 2.005 . S
C904 C596 2.164 1_655 S
C940 C346 0.521 1_455 S
C921 C211 0.273 . S
C976 C442 0.492 . S
C957 C247 0.248 . S
C1012 C514 0.329 . S
C993 C253 0.370 . S
C1029 C175 0.259 . S
C1048 C598 0.523 . S
C1065 C67 0.365 . S
C1084 C358 0.476 . S
C1120 C430 0.432 . S
C1101 C103 0.394 . S
C1156 C526 0.517 . S
C1137 C109 0.280 . S
C1173 C31 0.356 . S
C1192 C610 0.360 . S
C1209 C181 2.435 . S
C1228 C343 2.642 . S
C1245 C217 2.414 . S
C1264 C428 2.639 . S
C1300 C511 2.674 . S
C1281 C283 2.387 . S
C1336 C595 2.652 . S
C1317 C145 2.455 . S
C1353 C37 2.417 . S
C1372 C355 2.630 . S
C1408 C440 2.633 . S
C1389 C73 2.399 . S
C1444 C523 2.666 . S
C1425 C139 2.402 . S
C1461 C1 2.444 . S
C1480 C607 2.655 . S
