# Generated by pormake.
# Topology pyr, (3,6)-cn, num edge types: 1
# Building blocks:
#     Node 0, Type 0, BuildingBlock: CUQRIR_clean_linker_1, # of connection points: 3
#     Node 1, Type 0, BuildingBlock: CUQRIR_clean_linker_1, # of connection points: 3
#     Node 2, Type 0, BuildingBlock: CUQRIR_clean_linker_1, # of connection points: 3
#     Node 3, Type 0, BuildingBlock: CUQRIR_clean_linker_1, # of connection points: 3
#     Node 4, Type 0, BuildingBlock: CUQRIR_clean_linker_1, # of connection points: 3
#     Node 5, Type 0, BuildingBlock: CUQRIR_clean_linker_1, # of connection points: 3
#     Node 6, Type 0, BuildingBlock: CUQRIR_clean_linker_1, # of connection points: 3
#     Node 7, Type 0, BuildingBlock: CUQRIR_clean_linker_1, # of connection points: 3
#     Node 8, Type 1, BuildingBlock: MIDCAF_clean_sbu_0, # of connection points: 6
#     Node 9, Type 1, BuildingBlock: MIDCAF_clean_sbu_0, # of connection points: 6
#     Node 10, Type 1, BuildingBlock: MIDCAF_clean_sbu_0, # of connection points: 6
#     Node 11, Type 1, BuildingBlock: MIDCAF_clean_sbu_0, # of connection points: 6
#     Edge 12, Type (0, 1), BuildingBlock: OJICUG_clean_linker_0, # of connection points: 2
#     Edge 13, Type (0, 1), BuildingBlock: OJICUG_clean_linker_0, # of connection points: 2
#     Edge 14, Type (0, 1), BuildingBlock: OJICUG_clean_linker_0, # of connection points: 2
#     Edge 15, Type (0, 1), BuildingBlock: OJICUG_clean_linker_0, # of connection points: 2
#     Edge 16, Type (0, 1), BuildingBlock: OJICUG_clean_linker_0, # of connection points: 2
#     Edge 17, Type (0, 1), BuildingBlock: OJICUG_clean_linker_0, # of connection points: 2
#     Edge 18, Type (0, 1), BuildingBlock: OJICUG_clean_linker_0, # of connection points: 2
#     Edge 19, Type (0, 1), BuildingBlock: OJICUG_clean_linker_0, # of connection points: 2
#     Edge 20, Type (0, 1), BuildingBlock: OJICUG_clean_linker_0, # of connection points: 2
#     Edge 21, Type (0, 1), BuildingBlock: OJICUG_clean_linker_0, # of connection points: 2
#     Edge 22, Type (0, 1), BuildingBlock: OJICUG_clean_linker_0, # of connection points: 2
#     Edge 23, Type (0, 1), BuildingBlock: OJICUG_clean_linker_0, # of connection points: 2
#     Edge 24, Type (0, 1), BuildingBlock: OJICUG_clean_linker_0, # of connection points: 2
#     Edge 25, Type (0, 1), BuildingBlock: OJICUG_clean_linker_0, # of connection points: 2
#     Edge 26, Type (0, 1), BuildingBlock: OJICUG_clean_linker_0, # of connection points: 2
#     Edge 27, Type (0, 1), BuildingBlock: OJICUG_clean_linker_0, # of connection points: 2
#     Edge 28, Type (0, 1), BuildingBlock: OJICUG_clean_linker_0, # of connection points: 2
#     Edge 29, Type (0, 1), BuildingBlock: OJICUG_clean_linker_0, # of connection points: 2
#     Edge 30, Type (0, 1), BuildingBlock: OJICUG_clean_linker_0, # of connection points: 2
#     Edge 31, Type (0, 1), BuildingBlock: OJICUG_clean_linker_0, # of connection points: 2
#     Edge 32, Type (0, 1), BuildingBlock: OJICUG_clean_linker_0, # of connection points: 2
#     Edge 33, Type (0, 1), BuildingBlock: OJICUG_clean_linker_0, # of connection points: 2
#     Edge 34, Type (0, 1), BuildingBlock: OJICUG_clean_linker_0, # of connection points: 2
#     Edge 35, Type (0, 1), BuildingBlock: OJICUG_clean_linker_0, # of connection points: 2
# Relax obj value: 0.107
# Max RMSD: 0.207
# Mean RMSD: 0.151
data_MOF--net-pry--node1-MIDCAF_clean_sbu_0--node2-CUQRIR_clean_linker_1--edge1-OJICUG_clean_linker_0
_symmetry_space_group_name_H-M    P1
_symmetry_Int_Tables_number       1
_symmetry_cell_setting            triclinic
loop_
_symmetry_equiv_pos_as_xyz
'x, y, z'
_cell_length_a     22.901915
_cell_length_b     22.949037
_cell_length_c     22.309072
_cell_angle_alpha  87.305991
_cell_angle_beta   91.842766
_cell_angle_gamma 93.211527
loop_
_atom_site_label
_atom_site_type_symbol
_atom_site_fract_x
_atom_site_fract_y
_atom_site_fract_z
_atom_type_partial_charge
C0 C 0.21752 0.29154 0.28936 0.0
N1 N 0.24904 0.24347 0.2988 0.0
N2 N 0.23882 0.32609 0.24318 0.0
C3 C 0.16049 0.30028 0.31913 0.0
C4 C 0.28443 0.29678 0.22475 0.0
N5 N 0.29086 0.24645 0.25832 0.0
C6 C 0.32071 0.31539 0.17151 0.0
H7 H 0.14013 0.25871 0.33791 0.0
H8 H 0.12845 0.31978 0.28687 0.0
H9 H 0.16898 0.33046 0.35623 0.0
H10 H 0.31826 0.36286 0.16043 0.0
H11 H 0.30439 0.29065 0.13224 0.0
H12 H 0.36701 0.3051 0.18067 0.0
C13 C 0.30276 0.77052 0.7316 0.0
N14 N 0.29744 0.81679 0.76644 0.0
N15 N 0.34862 0.73897 0.75071 0.0
C16 C 0.2678 0.76005 0.67416 0.0
C17 C 0.37098 0.76777 0.79883 0.0
N18 N 0.34025 0.81521 0.80839 0.0
C19 C 0.42548 0.75205 0.83395 0.0
H20 H 0.23679 0.72171 0.68165 0.0
H21 H 0.2972 0.75005 0.63788 0.0
H22 H 0.24227 0.79774 0.65862 0.0
H23 H 0.43523 0.70585 0.82828 0.0
H24 H 0.42079 0.75908 0.88229 0.0
H25 H 0.46284 0.78095 0.81808 0.0
C26 C 0.6684 0.32619 0.79546 0.0
N27 N 0.69802 0.31431 0.84779 0.0
N28 N 0.69514 0.37164 0.76428 0.0
C29 C 0.60961 0.29835 0.77794 0.0
C30 C 0.74229 0.38687 0.79936 0.0
N31 N 0.74419 0.35209 0.85011 0.0
C32 C 0.78382 0.43891 0.78656 0.0
H33 H 0.60933 0.28633 0.73037 0.0
H34 H 0.57567 0.33049 0.78206 0.0
H35 H 0.59817 0.25872 0.80643 0.0
H36 H 0.7802 0.4711 0.82168 0.0
H37 H 0.77497 0.46009 0.74175 0.0
H38 H 0.8295 0.4251 0.78828 0.0
C39 C 0.76049 0.72107 0.30453 0.0
N40 N 0.81296 0.75024 0.29542 0.0
N41 N 0.73228 0.7438 0.34985 0.0
C42 C 0.73966 0.66609 0.27412 0.0
C43 C 0.76921 0.7882 0.36758 0.0
N44 N 0.8185 0.79188 0.33533 0.0
C45 C 0.75902 0.82572 0.41952 0.0
H46 H 0.70587 0.6771 0.2393 0.0
H47 H 0.71929 0.6339 0.30691 0.0
H48 H 0.77565 0.64554 0.25235 0.0
H49 H 0.78708 0.81193 0.45853 0.0
H50 H 0.71255 0.82229 0.43245 0.0
H51 H 0.77134 0.87213 0.40761 0.0
C52 C 0.90065 0.95399 0.99943 0.0
N53 N 0.93676 0.92596 0.96502 0.0
N54 N 0.88481 1.00469 0.97158 0.0
C55 C 0.87677 0.92974 0.05822 0.0
C56 C 0.91326 0.00671 0.91927 0.0
N57 N 0.94564 0.95943 0.91548 0.0
C58 C 0.90435 0.05167 0.86904 0.0
H59 H 0.83178 0.91056 0.05025 0.0
H60 H 0.87434 0.96491 0.09025 0.0
H61 H 0.90438 0.89573 0.07916 0.0
H62 H 0.94619 0.06306 0.84646 0.0
H63 H 0.88682 0.09171 0.88595 0.0
H64 H 0.8728 0.03315 0.83526 0.0
C65 C 0.69107 0.16356 0.49072 0.0
N66 N 0.69584 0.11651 0.45694 0.0
N67 N 0.63442 0.17552 0.49644 0.0
C68 C 0.74168 0.20044 0.51547 0.0
C69 C 0.60492 0.13285 0.46624 0.0
N70 N 0.64183 0.09782 0.44062 0.0
C71 C 0.54017 0.13296 0.45141 0.0
H72 H 0.77644 0.17239 0.53408 0.0
H73 H 0.72721 0.22819 0.55103 0.0
H74 H 0.76035 0.22922 0.47873 0.0
H75 H 0.53271 0.16248 0.41137 0.0
H76 H 0.51644 0.14918 0.48931 0.0
H77 H 0.5222 0.08846 0.4414 0.0
C78 C 0.41146 0.56527 0.09824 0.0
N79 N 0.44698 0.61156 0.11435 0.0
N80 N 0.37599 0.57972 0.05083 0.0
C81 C 0.4046 0.50839 0.13473 0.0
C82 C 0.39248 0.63621 0.03726 0.0
N83 N 0.43464 0.65575 0.07624 0.0
C84 C 0.36205 0.67413 0.99043 0.0
H85 H 0.37594 0.47576 0.111 0.0
H86 H 0.38561 0.51624 0.17859 0.0
H87 H 0.44802 0.49018 0.14372 0.0
H88 H 0.32025 0.68712 1.00828 0.0
H89 H 0.35176 0.64959 0.94943 0.0
H90 H 0.38925 0.71407 0.97806 0.0
C91 C 0.04675 0.37881 0.66837 0.0
N92 N 0.09159 0.37573 0.63073 0.0
N93 N 0.04799 0.43167 0.69281 0.0
C94 C 1.00459 0.32856 0.68511 0.0
C95 C 0.09608 0.46041 0.66952 0.0
N96 N 0.12281 0.42624 0.63202 0.0
C97 C 0.11893 0.52025 0.68663 0.0
H98 H 0.99447 0.30119 0.64601 0.0
H99 H 0.9635 0.34444 0.70187 0.0
H100 H 0.02505 0.3009 0.72118 0.0
H101 H 0.14694 0.51596 0.72794 0.0
H102 H 0.08252 0.54793 0.69623 0.0
H103 H 0.14545 0.54208 0.65045 0.0
Zn104 Zn 0.98927 0.07008 0.59999 0.0
Zn105 Zn 0.11221 0.95348 0.49865 0.0
Zn106 Zn 0.04881 0.01734 0.54833 0.0
C107 C 0.14271 0.06432 0.45279 0.0
C108 C 1.00184 0.91734 0.46135 0.0
O109 O 0.04632 0.98366 0.64524 0.0
O110 O 0.95743 0.0104 0.65965 0.0
C111 C 0.0824 0.14349 0.58424 0.0
O112 O 0.11285 0.0767 0.49813 0.0
O113 O 0.14402 0.0119 0.43836 0.0
O114 O 0.05105 0.89551 0.46957 0.0
O115 O 0.99252 0.96651 0.48409 0.0
O116 O 0.05055 0.12845 0.62801 0.0
O117 O 0.08329 0.10969 0.53982 0.0
O118 O 0.95668 0.0107 0.50556 0.0
O119 O 0.93448 0.09655 0.53506 0.0
C120 C 0.92242 0.05378 0.5026 0.0
O121 O 0.09703 0.96657 0.62209 0.0
O122 O 0.16615 0.93472 0.5675 0.0
C123 C 1.00023 0.98128 0.67736 0.0
C124 C 0.14654 0.94274 0.61848 0.0
Zn125 Zn 0.46475 0.09041 0.01641 0.0
Zn126 Zn 0.59798 0.97061 0.1231 0.0
Zn127 Zn 0.52963 0.03223 0.07396 0.0
C128 C 0.66998 0.04375 0.06108 0.0
C129 C 0.5325 0.89048 0.06923 0.0
O130 O 0.48172 0.08002 0.14249 0.0
O131 O 0.40813 0.09777 0.07986 0.0
C132 C 0.56722 0.14787 0.99314 0.0
O133 O 0.61898 0.05476 0.03838 0.0
O134 O 0.67404 0.01137 0.10796 0.0
O135 O 0.58496 0.8949 0.08776 0.0
O136 O 0.50303 0.93695 0.06168 0.0
O137 O 0.51485 0.16142 0.99602 0.0
O138 O 0.58136 0.09676 0.01348 0.0
O139 O 0.46804 0.97231 0.01941 0.0
O140 O 0.44077 0.03815 0.95068 0.0
C141 C 0.44182 0.98528 0.96866 0.0
O142 O 0.53327 0.04978 0.17214 0.0
O143 O 0.57469 0.96991 0.20633 0.0
C144 C 0.42964 0.09788 0.13265 0.0
C145 C 0.55312 0.01754 0.21647 0.0
Zn146 Zn 0.58688 0.63033 0.61673 0.0
Zn147 Zn 0.41626 0.44195 0.41683 0.0
Zn148 Zn 0.46905 0.50855 0.49213 0.0
C149 C 0.50553 0.37851 0.47466 0.0
C150 C 0.45963 0.53973 0.34952 0.0
O151 O 0.41939 0.54948 0.55977 0.0
O152 O 0.50603 0.58792 0.58381 0.0
C153 C 0.56871 0.49534 0.57914 0.0
O154 O 0.5107 0.42481 0.50504 0.0
O155 O 0.46908 0.37507 0.43105 0.0
O156 O 0.42767 0.49369 0.34293 0.0
O157 O 0.48041 0.55248 0.40186 0.0
O158 O 0.56003 0.54998 0.57802 0.0
O159 O 0.53673 0.4644 0.54336 0.0
O160 O 0.51495 0.58048 0.44417 0.0
O161 O 0.54951 0.60435 0.53235 0.0
C162 C 0.55007 0.61323 0.47522 0.0
O163 O 0.38109 0.50498 0.52736 0.0
O164 O 0.34192 0.44278 0.46255 0.0
C165 C 0.45082 0.58437 0.59255 0.0
C166 C 0.33724 0.47282 0.5082 0.0
Zn167 Zn 0.04595 0.60317 0.95231 0.0
Zn168 Zn 0.95303 0.49527 0.12857 0.0
Zn169 Zn 1.00164 0.55503 0.03761 0.0
C170 C 0.07156 0.47514 0.13839 0.0
C171 C 0.89906 0.45326 0.02401 0.0
O172 O 0.98268 0.65044 0.03462 0.0
O173 O 0.05277 0.6844 0.97477 0.0
C174 C 0.13492 0.54705 1.003 0.0
O175 O 0.07154 0.51302 0.09382 0.0
O176 O 0.024 0.45668 0.16142 0.0
O177 O 0.89199 0.45033 0.08003 0.0
O178 O 0.93931 0.4881 1.00109 0.0
O179 O 0.12081 0.56447 0.9504 0.0
O180 O 0.09655 0.54444 0.04423 0.0
O181 O 0.97354 0.51353 0.95121 0.0
O182 O 0.98987 0.58656 0.88557 0.0
C183 C 0.97203 0.53435 0.89639 0.0
O184 O 0.9578 0.62227 0.08923 0.0
O185 O 0.93229 0.56621 0.16856 0.0
C186 C 0.01136 0.69394 1.00808 0.0
C187 C 0.93658 0.61618 0.14232 0.0
C188 C 0.20941 0.1424 0.31646 0.0
C189 C 0.23291 0.19474 0.33927 0.0
H190 H 0.1629 0.06055 0.33444 0.0
C191 C 0.22794 0.20369 0.40093 0.0
H192 H 0.20906 0.1355 0.26902 0.0
C193 C 0.19827 0.16187 0.43846 0.0
C194 C 0.17427 0.1098 0.41506 0.0
H195 H 0.24428 0.24459 0.41914 0.0
H196 H 0.19388 0.17036 0.4854 0.0
C197 C 0.1814 0.10006 0.354 0.0
C198 C 0.39126 0.91033 0.82657 0.0
C199 C 0.35895 0.86071 0.84853 0.0
H200 H 0.44278 0.98789 0.84731 0.0
C201 C 0.35456 0.85126 0.91109 0.0
H202 H 0.3978 0.91718 0.77894 0.0
C203 C 0.38205 0.89085 0.95082 0.0
C204 C 0.41458 0.94051 0.92864 0.0
H205 H 0.33101 0.81242 0.92907 0.0
H206 H 0.37691 0.88328 0.99854 0.0
C207 C 0.41805 0.95006 0.86598 0.0
C208 C 0.65243 0.46215 0.72419 0.0
C209 C 0.66981 0.40555 0.71528 0.0
H210 H 0.60737 0.53568 0.68736 0.0
C211 C 0.65883 0.38114 0.65941 0.0
H212 H 0.66029 0.4814 0.76731 0.0
C213 C 0.62864 0.41192 0.61385 0.0
C214 C 0.60881 0.4675 0.6235 0.0
H215 H 0.67249 0.33778 0.65166 0.0
H216 H 0.61982 0.39178 0.57144 0.0
C217 C 0.62243 0.49309 0.67852 0.0
C218 C 0.90119 0.69791 0.27732 0.0
C219 C 0.8566 0.73306 0.25513 0.0
H220 H 0.96293 0.63538 0.25817 0.0
C221 C 0.84585 0.73745 0.19248 0.0
H222 H 0.90858 0.69088 0.32503 0.0
C223 C 0.87616 0.70398 0.1535 0.0
C224 C 0.91777 0.66557 0.17672 0.0
H225 H 0.81034 0.76282 0.17443 0.0
H226 H 0.86307 0.70402 0.10649 0.0
C227 C 0.93169 0.66516 0.23868 0.0
C228 C 0.29902 0.16228 0.1963 0.0
C229 C 0.32378 0.19861 0.24 0.0
H230 H 0.31223 0.09927 0.13178 0.0
C231 C 0.38384 0.19534 0.255 0.0
H232 H 0.25381 0.16607 0.18168 0.0
C233 C 0.41882 0.15813 0.22444 0.0
C234 C 0.39397 0.12397 0.17835 0.0
H235 H 0.40428 0.22439 0.28732 0.0
H236 H 0.4656 0.15951 0.23362 0.0
C237 C 0.33309 0.12464 0.16706 0.0
C238 C 0.28216 0.90792 0.70878 0.0
C239 C 0.26085 0.86457 0.75006 0.0
H240 H 0.26196 0.96702 0.63505 0.0
C241 C 0.19982 0.85669 0.75645 0.0
H242 H 0.32853 0.91317 0.70088 0.0
C243 C 0.161 0.88712 0.71778 0.0
C244 C 0.183 0.92534 0.67186 0.0
H245 H 0.18233 0.82226 0.78672 0.0
H246 H 0.11445 0.87624 0.71982 0.0
C247 C 0.24376 0.93783 0.67011 0.0
C248 C 0.84268 0.36132 0.89629 0.0
C249 C 0.78196 0.36358 0.90139 0.0
H250 H 0.92758 0.38781 0.9319 0.0
C251 C 0.7601 0.38982 0.95095 0.0
H252 H 0.86027 0.34154 0.8581 0.0
C253 C 0.79847 0.41645 0.99283 0.0
C254 C 0.85915 0.41831 0.98483 0.0
H255 H 0.71351 0.3935 0.95481 0.0
H256 H 0.78062 0.43879 0.02925 0.0
C257 C 0.88099 0.38873 0.93754 0.0
C258 C 0.69155 0.7003 0.44396 0.0
C259 C 0.68408 0.71646 0.38271 0.0
H260 H 0.65436 0.65624 0.52173 0.0
C261 C 0.63037 0.7026 0.35347 0.0
H262 H 0.73305 0.70946 0.46715 0.0
C263 C 0.58555 0.67145 0.38445 0.0
C264 C 0.59357 0.6539 0.44535 0.0
H265 H 0.62369 0.71479 0.30637 0.0
H266 H 0.54507 0.66006 0.3604 0.0
C267 C 0.64654 0.66986 0.47515 0.0
C268 C 0.19093 0.36885 0.1515 0.0
C269 C 0.20895 0.37312 0.2121 0.0
H270 H 0.13402 0.39982 0.07989 0.0
C271 C 0.18863 0.41858 0.24458 0.0
H272 H 0.2049 0.33368 0.12567 0.0
C273 C 0.14653 0.45499 0.21906 0.0
C274 C 0.12572 0.44801 0.15986 0.0
H275 H 0.20204 0.4229 0.29122 0.0
H276 H 0.12798 0.48653 0.24655 0.0
C277 C 0.15008 0.40642 0.12541 0.0
C278 C 0.68974 0.21587 0.89704 0.0
C279 C 0.67695 0.2751 0.89559 0.0
H280 H 0.66444 0.12852 0.92873 0.0
C281 C 0.63264 0.29245 0.93156 0.0
H282 H 0.72255 0.20147 0.86802 0.0
C283 C 0.59968 0.25114 0.96612 0.0
C284 C 0.60994 0.19127 0.96517 0.0
H285 H 0.62088 0.33756 0.92953 0.0
H286 H 0.56407 0.26584 0.99134 0.0
C287 C 0.65656 0.17422 0.93173 0.0
C288 C 0.87674 0.88374 0.3501 0.0
C289 C 0.87162 0.82238 0.35541 0.0
H290 H 0.92071 0.96251 0.38125 0.0
C291 C 0.90983 0.79317 0.39525 0.0
H292 H 0.84598 0.90723 0.3216 0.0
C293 C 0.95267 0.82423 0.42854 0.0
C294 C 0.95646 0.88557 0.42502 0.0
H295 H 0.90381 0.74654 0.40399 0.0
H296 H 0.9811 0.80027 0.45934 0.0
C297 C 0.91841 0.91521 0.38513 0.0
C298 C 0.43413 0.70583 0.69949 0.0
C299 C 0.3759 0.69614 0.7169 0.0
H300 H 0.50326 0.67822 0.64741 0.0
C301 C 0.34291 0.64773 0.69501 0.0
H302 H 0.46006 0.74376 0.71396 0.0
C303 C 0.36703 0.6111 0.65489 0.0
C304 C 0.42522 0.62103 0.63717 0.0
H305 H 0.29788 0.63931 0.70764 0.0
H306 H 0.33979 0.57574 0.63705 0.0
C307 C 0.45867 0.66842 0.66073 0.0
C308 C 0.93257 0.9173 0.81713 0.0
C309 C 0.97015 0.94244 0.86072 0.0
H310 H 0.9135 0.90945 0.72315 0.0
C311 C 0.02514 0.96672 0.84361 0.0
H312 H 0.8896 0.89941 0.82938 0.0
C313 C 0.03944 0.97181 0.78277 0.0
C314 C 0.99825 0.95366 0.7385 0.0
H315 H 0.05419 0.98731 0.87657 0.0
H316 H 0.07942 0.99614 0.77012 0.0
C317 C 0.94624 0.9233 0.75644 0.0
C318 C 0.62334 0.11357 0.33279 0.0
C319 C 0.62626 0.0746 0.38326 0.0
H320 H 0.59387 0.12735 0.24126 0.0
C321 C 0.5993 0.01857 0.37997 0.0
H322 H 0.64201 0.15783 0.33546 0.0
C323 C 0.57098 1.00134 0.32659 0.0
C324 C 0.56777 0.04046 0.27606 0.0
H325 H 0.59911 0.98883 0.41912 0.0
H326 H 0.55251 0.95697 0.3243 0.0
C327 C 0.59388 0.09694 0.27991 0.0
C328 C 0.51329 0.58068 0.1964 0.0
C329 C 0.46912 0.61693 0.175 0.0
H330 H 0.54467 0.52694 0.27054 0.0
C331 C 0.43296 0.64025 0.21648 0.0
H332 H 0.54105 0.56175 0.16498 0.0
C333 C 0.43456 0.62007 0.27666 0.0
C334 C 0.47305 0.57718 0.29595 0.0
H335 H 0.39801 0.6675 0.20071 0.0
H336 H 0.40161 0.63317 0.30632 0.0
C337 C 0.51488 0.56036 0.25653 0.0
C338 C 0.97824 0.49435 0.73666 0.0
C339 C 0.01559 0.44802 0.74297 0.0
H340 H 0.93178 0.55699 0.78188 0.0
C341 C 0.02599 0.42179 0.80004 0.0
H342 H 0.96952 0.51469 0.69275 0.0
C343 C 1.00425 0.44544 0.85093 0.0
C344 C 0.97147 0.49554 0.84537 0.0
H345 H 0.05488 0.38602 0.80552 0.0
H346 H 0.01865 0.42843 0.89472 0.0
C347 C 0.95617 0.51789 0.7875 0.0
C348 C 0.82988 0.06273 0.0378 0.0
C349 C 0.83311 0.0341 0.98402 0.0
H350 H 0.77345 0.08989 0.10471 0.0
C351 C 0.78202 0.02381 0.94879 0.0
H352 H 0.86901 0.07114 0.06527 0.0
C353 C 0.72757 0.03543 0.97061 0.0
C354 C 0.7238 0.05717 0.02799 0.0
H355 H 0.78374 1.00122 0.90741 0.0
H356 H 0.68836 0.02103 0.94577 0.0
C357 C 0.77543 0.07377 0.05998 0.0
C358 C 0.79676 0.12088 0.42092 0.0
C359 C 0.74955 0.08842 0.44692 0.0
H360 H 0.88999 0.13378 0.41703 0.0
C361 C 0.76036 0.03457 0.47688 0.0
H362 H 0.78962 0.16247 0.39766 0.0
C363 C 0.81811 0.01748 0.48743 0.0
C364 C 0.8658 0.05415 0.46818 0.0
H365 H 0.72474 0.00904 0.49784 0.0
H366 H 0.82552 0.97939 0.51664 0.0
C367 C 0.85424 0.10416 0.43174 0.0
C368 C 0.29686 0.54197 0.9839 0.0
C369 C 0.31745 0.55582 0.04147 0.0
H370 H 0.22147 0.52691 0.92644 0.0
C371 C 0.27805 0.55588 0.08837 0.0
H372 H 0.3269 0.5417 0.94743 0.0
C373 C 0.21825 0.54724 0.07687 0.0
C374 C 0.19697 0.53894 0.0181 0.0
H375 H 0.29324 0.56746 0.13294 0.0
H376 H 0.1888 0.55251 0.11297 0.0
C377 C 0.23681 0.5336 0.97217 0.0
C378 C 0.22853 0.4552 0.63342 0.0
C379 C 0.17656 0.43986 0.60135 0.0
H380 H 0.32081 0.4766 0.62905 0.0
C381 C 0.17734 0.43796 0.53878 0.0
H382 H 0.22887 0.45586 0.68192 0.0
C383 C 0.22925 0.45108 0.50853 0.0
C384 C 0.28155 0.46628 0.54036 0.0
H385 H 0.13761 0.42646 0.5134 0.0
H386 H 0.22862 0.44859 0.46013 0.0
C387 C 0.28073 0.468 0.60317 0.0
C388 C 0.91415 0.8209 0.98764 0.0
C389 C 0.95544 0.86754 0.97637 0.0
H390 H 0.89964 0.72908 1.00832 0.0
C391 C 0.01505 0.85734 0.9806 0.0
H392 H 0.8678 0.828 0.984 0.0
C393 C 0.03323 0.80123 0.99551 0.0
C394 C 0.99204 0.75428 1.00649 0.0
H395 H 0.04737 0.8929 0.9726 0.0
H396 H 0.07965 0.79414 0.99682 0.0
C397 C 0.93228 0.76475 1.00284 0.0
C398 C 0.51765 0.72639 0.06216 0.0
C399 C 0.45947 0.71451 0.07778 0.0
H400 H 0.58571 0.79199 0.0444 0.0
C401 C 0.42403 0.76099 0.08745 0.0
H402 H 0.54511 0.69094 0.05365 0.0
C403 C 0.44676 0.81883 0.08176 0.0
C404 C 0.50502 0.83095 0.06543 0.0
H405 H 0.37878 0.75227 0.09926 0.0
H406 H 0.4195 0.85381 0.09222 0.0
C407 C 0.54025 0.78406 0.05588 0.0
C408 C 0.08607 0.30359 0.55245 0.0
C409 C 0.10984 0.32259 0.60737 0.0
H410 H 0.06155 0.22958 0.49997 0.0
C411 C 0.13897 0.28326 0.64602 0.0
H412 H 0.06267 0.33338 0.52263 0.0
C413 C 0.13772 0.2241 0.6337 0.0
C414 C 0.10795 0.20375 0.5821 0.0
H415 H 0.1568 0.29725 0.68888 0.0
H416 H 0.15436 0.19344 0.66762 0.0
C417 C 0.08572 0.24439 0.53946 0.0
C418 C 0.61866 0.27129 0.44857 0.0
C419 C 0.61308 0.23294 0.49914 0.0
H420 H 0.58762 0.34727 0.40105 0.0
C421 C 0.57617 0.24607 0.54508 0.0
H422 H 0.64601 0.26097 0.41222 0.0
C423 C 0.54294 0.29561 0.53893 0.0
C424 C 0.54579 0.33153 0.48628 0.0
H425 H 0.57063 0.21621 0.58377 0.0
H426 H 0.51291 0.30414 0.57361 0.0
C427 C 0.58485 0.3199 0.4419 0.0
loop_
_geom_bond_atom_site_label_1
_geom_bond_atom_site_label_2
_geom_bond_distance
_geom_bond_site_symmetry_2
_ccdc_geom_bond_type
C0 N1 1.317 . S
C0 N2 1.348 . S
C0 C3 1.485 . S
N1 C0 1.317 . S
N1 N5 1.370 . S
N2 C0 1.348 . S
N2 C4 1.346 . S
C3 C0 1.485 . S
C3 H7 0.960 . S
C3 H8 0.961 . S
C3 H9 0.960 . S
C4 N2 1.346 . S
C4 N5 1.307 . S
C4 C6 1.486 . S
N5 N1 1.370 . S
N5 C4 1.307 . S
C6 C4 1.486 . S
C6 H10 0.960 . S
C6 H11 0.960 . S
C6 H12 0.959 . S
H7 C3 0.960 . S
H8 C3 0.961 . S
H9 C3 0.960 . S
H10 C6 0.960 . S
H11 C6 0.960 . S
H12 C6 0.959 . S
C13 N14 1.317 . S
C13 N15 1.348 . S
C13 C16 1.485 . S
N14 C13 1.317 . S
N14 N18 1.370 . S
N15 C13 1.348 . S
N15 C17 1.346 . S
C16 C13 1.485 . S
C16 H20 0.960 . S
C16 H21 0.961 . S
C16 H22 0.960 . S
C17 N15 1.346 . S
C17 N18 1.307 . S
C17 C19 1.486 . S
N18 N14 1.370 . S
N18 C17 1.307 . S
C19 C17 1.486 . S
C19 H23 0.960 . S
C19 H24 0.960 . S
C19 H25 0.959 . S
H20 C16 0.960 . S
H21 C16 0.961 . S
H22 C16 0.960 . S
H23 C19 0.960 . S
H24 C19 0.960 . S
H25 C19 0.959 . S
C26 N27 1.317 . S
C26 N28 1.348 . S
C26 C29 1.485 . S
N27 C26 1.317 . S
N27 N31 1.370 . S
N28 C26 1.348 . S
N28 C30 1.346 . S
C29 C26 1.485 . S
C29 H33 0.960 . S
C29 H34 0.961 . S
C29 H35 0.960 . S
C30 N28 1.346 . S
C30 N31 1.307 . S
C30 C32 1.486 . S
N31 N27 1.370 . S
N31 C30 1.307 . S
C32 C30 1.486 . S
C32 H36 0.960 . S
C32 H37 0.960 . S
C32 H38 0.959 . S
H33 C29 0.960 . S
H34 C29 0.961 . S
H35 C29 0.960 . S
H36 C32 0.960 . S
H37 C32 0.960 . S
H38 C32 0.959 . S
C39 N40 1.317 . S
C39 N41 1.348 . S
C39 C42 1.485 . S
N40 C39 1.317 . S
N40 N44 1.370 . S
N41 C39 1.348 . S
N41 C43 1.346 . S
C42 C39 1.485 . S
C42 H46 0.960 . S
C42 H47 0.961 . S
C42 H48 0.960 . S
C43 N41 1.346 . S
C43 N44 1.307 . S
C43 C45 1.486 . S
N44 N40 1.370 . S
N44 C43 1.307 . S
C45 C43 1.486 . S
C45 H49 0.960 . S
C45 H50 0.960 . S
C45 H51 0.959 . S
H46 C42 0.960 . S
H47 C42 0.961 . S
H48 C42 0.960 . S
H49 C45 0.960 . S
H50 C45 0.960 . S
H51 C45 0.959 . S
C52 N53 1.317 . S
C52 N54 1.348 . S
C52 C55 1.485 1_556 S
N53 C52 1.317 . S
N53 N57 1.370 . S
N54 C52 1.348 . S
N54 C56 1.346 . S
C55 C52 1.485 1_554 S
C55 H59 0.960 . S
C55 H60 0.961 . S
C55 H61 0.960 . S
C56 N54 1.346 . S
C56 N57 1.307 . S
C56 C58 1.486 1_565 S
N57 N53 1.370 . S
N57 C56 1.307 . S
C58 C56 1.486 1_545 S
C58 H62 0.960 . S
C58 H63 0.960 . S
C58 H64 0.959 . S
H59 C55 0.960 . S
H60 C55 0.961 . S
H61 C55 0.960 . S
H62 C58 0.960 . S
H63 C58 0.960 . S
H64 C58 0.959 . S
C65 N66 1.317 . S
C65 N67 1.348 . S
C65 C68 1.485 . S
N66 C65 1.317 . S
N66 N70 1.370 . S
N67 C65 1.348 . S
N67 C69 1.346 . S
C68 C65 1.485 . S
C68 H72 0.960 . S
C68 H73 0.961 . S
C68 H74 0.960 . S
C69 N67 1.346 . S
C69 N70 1.307 . S
C69 C71 1.486 . S
N70 N66 1.370 . S
N70 C69 1.307 . S
C71 C69 1.486 . S
C71 H75 0.960 . S
C71 H76 0.960 . S
C71 H77 0.959 . S
H72 C68 0.960 . S
H73 C68 0.961 . S
H74 C68 0.960 . S
H75 C71 0.960 . S
H76 C71 0.960 . S
H77 C71 0.959 . S
C78 N79 1.317 . S
C78 N80 1.348 . S
C78 C81 1.485 . S
N79 C78 1.317 . S
N79 N83 1.370 . S
N80 C78 1.348 . S
N80 C82 1.346 . S
C81 C78 1.485 . S
C81 H85 0.960 . S
C81 H86 0.961 . S
C81 H87 0.960 . S
C82 N80 1.346 . S
C82 N83 1.307 . S
C82 C84 1.486 . S
N83 N79 1.370 . S
N83 C82 1.307 . S
C84 C82 1.486 . S
C84 H88 0.960 . S
C84 H89 0.960 1_554 S
C84 H90 0.959 . S
H85 C81 0.960 . S
H86 C81 0.961 . S
H87 C81 0.960 . S
H88 C84 0.960 . S
H89 C84 0.960 1_556 S
H90 C84 0.959 . S
C91 N92 1.317 . S
C91 N93 1.348 . S
C91 C94 1.485 1_455 S
N92 C91 1.317 . S
N92 N96 1.370 . S
N93 C91 1.348 . S
N93 C95 1.346 . S
C94 C91 1.485 1_655 S
C94 H98 0.960 . S
C94 H99 0.961 . S
C94 H100 0.960 1_655 S
C95 N93 1.346 . S
C95 N96 1.307 . S
C95 C97 1.486 . S
N96 N92 1.370 . S
N96 C95 1.307 . S
C97 C95 1.486 . S
C97 H101 0.960 . S
C97 H102 0.960 . S
C97 H103 0.959 . S
H98 C94 0.960 . S
H99 C94 0.961 . S
H100 C94 0.960 1_455 S
H101 C97 0.960 . S
H102 C97 0.960 . S
H103 C97 0.959 . S
Zn104 O110 1.920 . S
Zn104 O116 1.898 . S
Zn104 O119 1.905 . S
Zn105 O113 1.905 1_565 S
Zn105 O114 1.898 . S
Zn105 O122 1.920 . S
Zn106 O109 2.080 1_445 S
Zn106 O112 2.114 . S
Zn106 O115 2.120 1_545 S
Zn106 O117 2.120 . S
Zn106 O118 2.114 1_455 S
Zn106 O121 2.080 . S
C107 O112 1.166 . S
C107 O113 1.182 . S
C108 O114 1.176 . S
C108 O115 1.299 . S
O109 Zn106 2.080 1_665 S
O109 C123 1.305 1_565 S
O110 Zn104 1.920 . S
O110 C123 1.234 . S
C111 O116 1.167 1_455 S
C111 O117 1.299 . S
O112 Zn106 2.114 . S
O112 C107 1.166 . S
O113 Zn105 1.905 1_545 S
O113 C107 1.182 . S
O114 Zn105 1.898 . S
O114 C108 1.176 . S
O115 Zn106 2.120 1_565 S
O115 C108 1.299 . S
O116 Zn104 1.898 . S
O116 C111 1.167 1_655 S
O117 Zn106 2.120 . S
O117 C111 1.299 . S
O118 Zn106 2.114 1_655 S
O118 C120 1.166 . S
O119 Zn104 1.905 . S
O119 C120 1.182 . S
C120 O118 1.166 . S
C120 O119 1.182 . S
O121 Zn106 2.080 . S
O121 C124 1.305 1_545 S
O122 Zn105 1.920 . S
O122 C124 1.234 . S
C123 O109 1.305 1_545 S
C123 O110 1.234 . S
C124 O121 1.305 1_565 S
C124 O122 1.234 . S
Zn125 O131 1.920 1_556 S
Zn125 O137 1.898 . S
Zn125 O140 1.905 . S
Zn126 O134 1.905 . S
Zn126 O135 1.898 . S
Zn126 O143 1.920 . S
Zn127 O130 2.080 . S
Zn127 O133 2.114 1_545 S
Zn127 O136 2.120 1_545 S
Zn127 O138 2.120 . S
Zn127 O139 2.114 1_544 S
Zn127 O142 2.080 . S
C128 O133 1.166 . S
C128 O134 1.182 . S
C129 O135 1.167 . S
C129 O136 1.299 . S
O130 Zn127 2.080 . S
O130 C144 1.305 . S
O131 Zn125 1.920 1_554 S
O131 C144 1.234 . S
C132 O137 1.167 . S
C132 O138 1.299 1_556 S
O133 Zn127 2.114 1_565 S
O133 C128 1.166 . S
O134 Zn126 1.905 . S
O134 C128 1.182 . S
O135 Zn126 1.898 . S
O135 C129 1.167 . S
O136 Zn127 2.120 1_565 S
O136 C129 1.299 . S
O137 Zn125 1.898 . S
O137 C132 1.167 . S
O138 Zn127 2.120 . S
O138 C132 1.299 1_554 S
O139 Zn127 2.114 1_566 S
O139 C141 1.166 . S
O140 Zn125 1.905 . S
O140 C141 1.182 1_545 S
C141 O139 1.166 . S
C141 O140 1.182 1_565 S
O142 Zn127 2.080 . S
O142 C145 1.305 . S
O143 Zn126 1.920 . S
O143 C145 1.234 1_565 S
C144 O130 1.305 . S
C144 O131 1.234 . S
C145 O142 1.305 . S
C145 O143 1.234 1_545 S
Zn146 O152 1.920 . S
Zn146 O158 1.898 . S
Zn146 O161 1.905 . S
Zn147 O155 1.905 . S
Zn147 O156 1.898 . S
Zn147 O164 1.920 . S
Zn148 O151 2.080 . S
Zn148 O154 2.114 . S
Zn148 O157 2.120 . S
Zn148 O159 2.120 . S
Zn148 O160 2.114 . S
Zn148 O163 2.080 . S
C149 O154 1.166 . S
C149 O155 1.182 . S
C150 O156 1.167 . S
C150 O157 1.299 . S
O151 Zn148 2.080 . S
O151 C165 1.305 . S
O152 Zn146 1.920 . S
O152 C165 1.234 . S
C153 O158 1.167 . S
C153 O159 1.299 . S
O154 Zn148 2.114 . S
O154 C149 1.166 . S
O155 Zn147 1.905 . S
O155 C149 1.182 . S
O156 Zn147 1.898 . S
O156 C150 1.167 . S
O157 Zn148 2.120 . S
O157 C150 1.299 . S
O158 Zn146 1.898 . S
O158 C153 1.167 . S
O159 Zn148 2.120 . S
O159 C153 1.299 . S
O160 Zn148 2.114 . S
O160 C162 1.166 . S
O161 Zn146 1.905 . S
O161 C162 1.182 . S
C162 O160 1.166 . S
C162 O161 1.182 . S
O163 Zn148 2.080 . S
O163 C166 1.305 . S
O164 Zn147 1.920 . S
O164 C166 1.234 . S
C165 O151 1.305 . S
C165 O152 1.234 . S
C166 O163 1.305 . S
C166 O164 1.234 . S
Zn167 O173 1.920 . S
Zn167 O179 1.898 . S
Zn167 O182 1.905 . S
Zn168 O176 1.905 . S
Zn168 O177 1.898 . S
Zn168 O185 1.920 . S
Zn169 O172 2.080 1_454 S
Zn169 O175 2.114 . S
Zn169 O178 2.120 1_454 S
Zn169 O180 2.120 . S
Zn169 O181 2.114 1_554 S
Zn169 O184 2.080 1_455 S
C170 O175 1.166 . S
C170 O176 1.182 1_455 S
C171 O177 1.167 1_556 S
C171 O178 1.299 . S
O172 Zn169 2.080 1_656 S
O172 C186 1.305 1_655 S
O173 Zn167 1.920 . S
O173 C186 1.234 . S
C174 O179 1.167 1_554 S
C174 O180 1.299 . S
O175 Zn169 2.114 . S
O175 C170 1.166 . S
O176 Zn168 1.905 . S
O176 C170 1.182 1_655 S
O177 Zn168 1.898 . S
O177 C171 1.167 1_554 S
O178 Zn169 2.120 1_656 S
O178 C171 1.299 . S
O179 Zn167 1.898 . S
O179 C174 1.167 1_556 S
O180 Zn169 2.120 . S
O180 C174 1.299 . S
O181 Zn169 2.114 1_556 S
O181 C183 1.166 . S
O182 Zn167 1.905 . S
O182 C183 1.182 . S
C183 O181 1.166 . S
C183 O182 1.182 . S
O184 Zn169 2.080 1_655 S
O184 C187 1.305 . S
O185 Zn168 1.920 . S
O185 C187 1.234 . S
C186 O172 1.305 1_455 S
C186 O173 1.234 . S
C187 O184 1.305 . S
C187 O185 1.234 . S
C188 C189 1.387 . S
C188 H192 0.950 . S
C188 C197 1.390 . S
C189 C188 1.387 . S
C189 C191 1.387 . S
H190 C197 0.950 . S
C191 C189 1.387 . S
C191 C193 1.390 . S
C191 H195 0.950 . S
H192 C188 0.950 . S
C193 C191 1.390 . S
C193 C194 1.387 . S
C193 H196 0.950 . S
C194 C193 1.387 . S
C194 C197 1.387 . S
H195 C191 0.950 . S
H196 C193 0.950 . S
C197 C188 1.390 . S
C197 H190 0.950 . S
C197 C194 1.387 . S
C198 C199 1.387 . S
C198 H202 0.950 . S
C198 C207 1.390 . S
C199 C198 1.387 . S
C199 C201 1.387 . S
H200 C207 0.950 1_545 S
C201 C199 1.387 . S
C201 C203 1.390 . S
C201 H205 0.950 . S
H202 C198 0.950 . S
C203 C201 1.390 . S
C203 C204 1.387 . S
C203 H206 0.950 . S
C204 C203 1.387 . S
C204 C207 1.387 . S
H205 C201 0.950 . S
H206 C203 0.950 . S
C207 C198 1.390 . S
C207 H200 0.950 1_565 S
C207 C204 1.387 . S
C208 C209 1.387 . S
C208 H212 0.950 . S
C208 C217 1.390 . S
C209 C208 1.387 . S
C209 C211 1.387 . S
H210 C217 0.950 . S
C211 C209 1.387 . S
C211 C213 1.390 . S
C211 H215 0.950 . S
H212 C208 0.950 . S
C213 C211 1.390 . S
C213 C214 1.387 . S
C213 H216 0.950 . S
C214 C213 1.387 . S
C214 C217 1.387 . S
H215 C211 0.950 . S
H216 C213 0.950 . S
C217 C208 1.390 . S
C217 H210 0.950 . S
C217 C214 1.387 . S
C218 C219 1.387 . S
C218 H222 0.950 . S
C218 C227 1.390 . S
C219 C218 1.387 . S
C219 C221 1.387 . S
H220 C227 0.950 . S
C221 C219 1.387 . S
C221 C223 1.390 . S
C221 H225 0.950 . S
H222 C218 0.950 . S
C223 C221 1.390 . S
C223 C224 1.387 . S
C223 H226 0.950 . S
C224 C223 1.387 . S
C224 C227 1.387 . S
H225 C221 0.950 . S
H226 C223 0.950 . S
C227 C218 1.390 . S
C227 H220 0.950 . S
C227 C224 1.387 . S
C228 C229 1.387 . S
C228 H232 0.950 . S
C228 C237 1.390 . S
C229 C228 1.387 . S
C229 C231 1.387 . S
H230 C237 0.950 . S
C231 C229 1.387 . S
C231 C233 1.390 . S
C231 H235 0.950 . S
H232 C228 0.950 . S
C233 C231 1.390 . S
C233 C234 1.387 . S
C233 H236 0.950 . S
C234 C233 1.387 . S
C234 C237 1.387 . S
H235 C231 0.950 . S
H236 C233 0.950 . S
C237 C228 1.390 . S
C237 H230 0.950 . S
C237 C234 1.387 . S
C238 C239 1.387 . S
C238 H242 0.950 . S
C238 C247 1.390 . S
C239 C238 1.387 . S
C239 C241 1.387 . S
H240 C247 0.950 1_545 S
C241 C239 1.387 . S
C241 C243 1.390 . S
C241 H245 0.950 . S
H242 C238 0.950 . S
C243 C241 1.390 . S
C243 C244 1.387 . S
C243 H246 0.950 . S
C244 C243 1.387 . S
C244 C247 1.387 . S
H245 C241 0.950 . S
H246 C243 0.950 . S
C247 C238 1.390 . S
C247 H240 0.950 1_565 S
C247 C244 1.387 . S
C248 C249 1.387 . S
C248 H252 0.950 . S
C248 C257 1.390 . S
C249 C248 1.387 . S
C249 C251 1.387 . S
H250 C257 0.950 . S
C251 C249 1.387 . S
C251 C253 1.390 . S
C251 H255 0.950 . S
H252 C248 0.950 . S
C253 C251 1.390 . S
C253 C254 1.387 . S
C253 H256 0.950 1_556 S
C254 C253 1.387 . S
C254 C257 1.387 . S
H255 C251 0.950 . S
H256 C253 0.950 1_554 S
C257 C248 1.390 . S
C257 H250 0.950 . S
C257 C254 1.387 . S
C258 C259 1.387 . S
C258 H262 0.950 . S
C258 C267 1.390 . S
C259 C258 1.387 . S
C259 C261 1.387 . S
H260 C267 0.950 . S
C261 C259 1.387 . S
C261 C263 1.390 . S
C261 H265 0.950 . S
H262 C258 0.950 . S
C263 C261 1.390 . S
C263 C264 1.387 . S
C263 H266 0.950 . S
C264 C263 1.387 . S
C264 C267 1.387 . S
H265 C261 0.950 . S
H266 C263 0.950 . S
C267 C258 1.390 . S
C267 H260 0.950 . S
C267 C264 1.387 . S
C268 C269 1.387 . S
C268 H272 0.950 . S
C268 C277 1.390 . S
C269 C268 1.387 . S
C269 C271 1.387 . S
H270 C277 0.950 . S
C271 C269 1.387 . S
C271 C273 1.390 . S
C271 H275 0.950 . S
H272 C268 0.950 . S
C273 C271 1.390 . S
C273 C274 1.387 . S
C273 H276 0.950 . S
C274 C273 1.387 . S
C274 C277 1.387 . S
H275 C271 0.950 . S
H276 C273 0.950 . S
C277 C268 1.390 . S
C277 H270 0.950 . S
C277 C274 1.387 . S
C278 C279 1.387 . S
C278 H282 0.950 . S
C278 C287 1.390 . S
C279 C278 1.387 . S
C279 C281 1.387 . S
H280 C287 0.950 . S
C281 C279 1.387 . S
C281 C283 1.390 1_556 S
C281 H285 0.950 . S
H282 C278 0.950 . S
C283 C281 1.390 1_554 S
C283 C284 1.387 1_554 S
C283 H286 0.950 . S
C284 C283 1.387 1_556 S
C284 C287 1.387 . S
H285 C281 0.950 . S
H286 C283 0.950 . S
C287 C278 1.390 . S
C287 H280 0.950 . S
C287 C284 1.387 . S
C288 C289 1.387 . S
C288 H292 0.950 . S
C288 C297 1.390 . S
C289 C288 1.387 . S
C289 C291 1.387 . S
H290 C297 0.950 . S
C291 C289 1.387 . S
C291 C293 1.390 . S
C291 H295 0.950 . S
H292 C288 0.950 . S
C293 C291 1.390 . S
C293 C294 1.387 . S
C293 H296 0.950 . S
C294 C293 1.387 . S
C294 C297 1.387 . S
H295 C291 0.950 . S
H296 C293 0.950 . S
C297 C288 1.390 . S
C297 H290 0.950 . S
C297 C294 1.387 . S
C298 C299 1.387 . S
C298 H302 0.950 . S
C298 C307 1.390 . S
C299 C298 1.387 . S
C299 C301 1.387 . S
H300 C307 0.950 . S
C301 C299 1.387 . S
C301 C303 1.390 . S
C301 H305 0.950 . S
H302 C298 0.950 . S
C303 C301 1.390 . S
C303 C304 1.387 . S
C303 H306 0.950 . S
C304 C303 1.387 . S
C304 C307 1.387 . S
H305 C301 0.950 . S
H306 C303 0.950 . S
C307 C298 1.390 . S
C307 H300 0.950 . S
C307 C304 1.387 . S
C308 C309 1.387 . S
C308 H312 0.950 . S
C308 C317 1.390 1_655 S
C309 C308 1.387 . S
C309 C311 1.387 1_565 S
H310 C317 0.950 . S
C311 C309 1.387 1_545 S
C311 C313 1.390 . S
C311 H315 0.950 . S
H312 C308 0.950 . S
C313 C311 1.390 . S
C313 C314 1.387 1_545 S
C313 H316 0.950 . S
C314 C313 1.387 1_565 S
C314 C317 1.387 1_655 S
H315 C311 0.950 . S
H316 C313 0.950 . S
C317 C308 1.390 1_455 S
C317 H310 0.950 . S
C317 C314 1.387 1_455 S
C318 C319 1.387 . S
C318 H322 0.950 . S
C318 C327 1.390 . S
C319 C318 1.387 . S
C319 C321 1.387 . S
H320 C327 0.950 . S
C321 C319 1.387 . S
C321 C323 1.390 . S
C321 H325 0.950 1_545 S
H322 C318 0.950 . S
C323 C321 1.390 . S
C323 C324 1.387 . S
C323 H326 0.950 1_545 S
C324 C323 1.387 . S
C324 C327 1.387 . S
H325 C321 0.950 1_565 S
H326 C323 0.950 1_565 S
C327 C318 1.390 . S
C327 H320 0.950 . S
C327 C324 1.387 . S
C328 C329 1.387 . S
C328 H332 0.950 . S
C328 C337 1.390 . S
C329 C328 1.387 . S
C329 C331 1.387 . S
H330 C337 0.950 . S
C331 C329 1.387 . S
C331 C333 1.390 . S
C331 H335 0.950 . S
H332 C328 0.950 . S
C333 C331 1.390 . S
C333 C334 1.387 . S
C333 H336 0.950 . S
C334 C333 1.387 . S
C334 C337 1.387 . S
H335 C331 0.950 . S
H336 C333 0.950 . S
C337 C328 1.390 . S
C337 H330 0.950 . S
C337 C334 1.387 . S
C338 C339 1.387 1_655 S
C338 H342 0.950 . S
C338 C347 1.390 . S
C339 C338 1.387 1_455 S
C339 C341 1.387 . S
H340 C347 0.950 . S
C341 C339 1.387 . S
C341 C343 1.390 . S
C341 H345 0.950 . S
H342 C338 0.950 . S
C343 C341 1.390 . S
C343 C344 1.387 . S
C343 H346 0.950 . S
C344 C343 1.387 . S
C344 C347 1.387 1_455 S
H345 C341 0.950 . S
H346 C343 0.950 . S
C347 C338 1.390 . S
C347 H340 0.950 . S
C347 C344 1.387 1_655 S
C348 C349 1.387 1_546 S
C348 H352 0.950 . S
C348 C357 1.390 . S
C349 C348 1.387 1_564 S
C349 C351 1.387 . S
H350 C357 0.949 . S
C351 C349 1.387 . S
C351 C353 1.390 . S
C351 H355 0.950 . S
H352 C348 0.950 . S
C353 C351 1.390 . S
C353 C354 1.387 . S
C353 H356 0.950 . S
C354 C353 1.387 . S
C354 C357 1.388 1_564 S
H355 C351 0.950 . S
H356 C353 0.950 . S
C357 C348 1.390 . S
C357 H350 0.949 . S
C357 C354 1.388 1_546 S
C358 C359 1.387 . S
C358 H362 0.950 . S
C358 C367 1.390 . S
C359 C358 1.387 . S
C359 C361 1.387 . S
H360 C367 0.950 . S
C361 C359 1.387 . S
C361 C363 1.390 . S
C361 H365 0.950 . S
H362 C358 0.950 . S
C363 C361 1.390 . S
C363 C364 1.387 . S
C363 H366 0.950 . S
C364 C363 1.387 . S
C364 C367 1.387 . S
H365 C361 0.950 . S
H366 C363 0.950 . S
C367 C358 1.390 . S
C367 H360 0.950 . S
C367 C364 1.387 . S
C368 C369 1.387 . S
C368 H372 0.950 . S
C368 C377 1.390 . S
C369 C368 1.387 . S
C369 C371 1.387 . S
H370 C377 0.950 . S
C371 C369 1.387 . S
C371 C373 1.390 . S
C371 H375 0.950 . S
H372 C368 0.950 . S
C373 C371 1.390 . S
C373 C374 1.387 . S
C373 H376 0.950 . S
C374 C373 1.387 . S
C374 C377 1.387 . S
H375 C371 0.950 . S
H376 C373 0.950 . S
C377 C368 1.390 . S
C377 H370 0.950 . S
C377 C374 1.387 . S
C378 C379 1.387 . S
C378 H382 0.950 . S
C378 C387 1.390 . S
C379 C378 1.387 . S
C379 C381 1.387 . S
H380 C387 0.950 . S
C381 C379 1.387 . S
C381 C383 1.390 . S
C381 H385 0.950 . S
H382 C378 0.950 . S
C383 C381 1.390 . S
C383 C384 1.387 . S
C383 H386 0.950 . S
C384 C383 1.387 . S
C384 C387 1.387 . S
H385 C381 0.950 . S
H386 C383 0.950 . S
C387 C378 1.390 . S
C387 H380 0.950 . S
C387 C384 1.387 . S
C388 C389 1.387 . S
C388 H392 0.950 . S
C388 C397 1.390 . S
C389 C388 1.387 . S
C389 C391 1.387 1_556 S
H390 C397 0.950 . S
C391 C389 1.387 1_554 S
C391 C393 1.390 . S
C391 H395 0.950 . S
H392 C388 0.950 . S
C393 C391 1.390 . S
C393 C394 1.387 1_554 S
C393 H396 0.950 . S
C394 C393 1.387 1_556 S
C394 C397 1.387 . S
H395 C391 0.950 . S
H396 C393 0.950 . S
C397 C388 1.390 . S
C397 H390 0.950 . S
C397 C394 1.387 . S
C398 C399 1.387 . S
C398 H402 0.950 . S
C398 C407 1.390 . S
C399 C398 1.387 . S
C399 C401 1.387 . S
H400 C407 0.950 . S
C401 C399 1.387 . S
C401 C403 1.390 . S
C401 H405 0.950 . S
H402 C398 0.950 . S
C403 C401 1.390 . S
C403 C404 1.387 . S
C403 H406 0.950 . S
C404 C403 1.387 . S
C404 C407 1.387 . S
H405 C401 0.950 . S
H406 C403 0.950 . S
C407 C398 1.390 . S
C407 H400 0.950 . S
C407 C404 1.387 . S
C408 C409 1.387 . S
C408 H412 0.950 1_455 S
C408 C417 1.390 . S
C409 C408 1.387 . S
C409 C411 1.387 . S
H410 C417 0.950 1_655 S
C411 C409 1.387 . S
C411 C413 1.390 . S
C411 H415 0.950 . S
H412 C408 0.950 1_655 S
C413 C411 1.390 . S
C413 C414 1.387 . S
C413 H416 0.950 . S
C414 C413 1.387 . S
C414 C417 1.387 . S
H415 C411 0.950 . S
H416 C413 0.950 . S
C417 C408 1.390 . S
C417 H410 0.950 1_455 S
C417 C414 1.387 . S
C418 C419 1.387 . S
C418 H422 0.950 . S
C418 C427 1.390 . S
C419 C418 1.387 . S
C419 C421 1.387 . S
H420 C427 0.950 . S
C421 C419 1.387 . S
C421 C423 1.390 . S
C421 H425 0.950 . S
H422 C418 0.950 . S
C423 C421 1.390 . S
C423 C424 1.387 . S
C423 H426 0.950 . S
C424 C423 1.387 . S
C424 C427 1.387 . S
H425 C421 0.950 . S
H426 C423 0.950 . S
C427 C418 1.390 . S
C427 H420 0.950 . S
C427 C424 1.387 . S
C189 N1 1.493 . S
C194 C107 1.424 . S
C199 N18 1.751 . S
C204 C141 1.651 . S
C214 C153 1.132 . S
C209 N28 1.211 . S
C219 N40 1.592 . S
C224 C187 1.547 . S
C234 C144 1.632 . S
C229 N5 1.755 . S
C244 C124 1.521 . S
C239 N14 1.528 . S
C254 C171 1.383 . S
C249 N31 1.483 . S
C264 C162 1.194 . S
C259 N41 1.279 . S
C269 N2 1.476 . S
C274 C170 1.417 . S
C284 C132 1.459 . S
C279 N27 1.553 . S
C289 N44 1.593 . S
C294 C108 1.511 1_655 S
C299 N15 1.414 . S
C304 C165 1.286 . S
C314 C123 1.591 1_565 S
C309 N57 1.734 . S
C319 N70 1.391 . S
C324 C145 1.319 . S
C329 N79 1.455 . S
C334 C150 1.473 . S
C339 N93 1.448 . S
C344 C183 1.393 . S
C349 N54 1.522 1_554 S
C354 C128 1.466 . S
C364 C120 1.754 . S
C359 N66 1.853 . S
C374 C174 1.192 . S
C369 N80 1.232 . S
C384 C166 1.458 . S
C379 N96 1.522 . S
C389 N53 1.549 . S
C394 C186 1.459 1_655 S
C404 C129 1.488 . S
C399 N83 1.525 . S
C414 C111 1.527 . S
C409 N92 1.630 . S
C419 N67 1.519 . S
C424 C149 1.516 . S
