# Generated by pormake.
# Topology zzz, (3,6)-cn, num edge types: 1
# Building blocks:
#     Node 0, Type 0, BuildingBlock: BETDAH_clean_linker_0, # of connection points: 3
#     Node 1, Type 0, BuildingBlock: BETDAH_clean_linker_0, # of connection points: 3
#     Node 2, Type 0, BuildingBlock: BETDAH_clean_linker_0, # of connection points: 3
#     Node 3, Type 0, BuildingBlock: BETDAH_clean_linker_0, # of connection points: 3
#     Node 4, Type 0, BuildingBlock: BETDAH_clean_linker_0, # of connection points: 3
#     Node 5, Type 0, BuildingBlock: BETDAH_clean_linker_0, # of connection points: 3
#     Node 6, Type 0, BuildingBlock: BETDAH_clean_linker_0, # of connection points: 3
#     Node 7, Type 0, BuildingBlock: BETDAH_clean_linker_0, # of connection points: 3
#     Node 8, Type 1, BuildingBlock: KUMBUR_clean_sbu_0, # of connection points: 6
#     Node 9, Type 1, BuildingBlock: KUMBUR_clean_sbu_0, # of connection points: 6
#     Node 10, Type 1, BuildingBlock: KUMBUR_clean_sbu_0, # of connection points: 6
#     Node 11, Type 1, BuildingBlock: KUMBUR_clean_sbu_0, # of connection points: 6
#     Edge 12, Type (0, 1), BuildingBlock: KIFKEQ_clean_linker_1, # of connection points: 2
#     Edge 13, Type (0, 1), BuildingBlock: KIFKEQ_clean_linker_1, # of connection points: 2
#     Edge 14, Type (0, 1), BuildingBlock: KIFKEQ_clean_linker_1, # of connection points: 2
#     Edge 15, Type (0, 1), BuildingBlock: KIFKEQ_clean_linker_1, # of connection points: 2
#     Edge 16, Type (0, 1), BuildingBlock: KIFKEQ_clean_linker_1, # of connection points: 2
#     Edge 17, Type (0, 1), BuildingBlock: KIFKEQ_clean_linker_1, # of connection points: 2
#     Edge 18, Type (0, 1), BuildingBlock: KIFKEQ_clean_linker_1, # of connection points: 2
#     Edge 19, Type (0, 1), BuildingBlock: KIFKEQ_clean_linker_1, # of connection points: 2
#     Edge 20, Type (0, 1), BuildingBlock: KIFKEQ_clean_linker_1, # of connection points: 2
#     Edge 21, Type (0, 1), BuildingBlock: KIFKEQ_clean_linker_1, # of connection points: 2
#     Edge 22, Type (0, 1), BuildingBlock: KIFKEQ_clean_linker_1, # of connection points: 2
#     Edge 23, Type (0, 1), BuildingBlock: KIFKEQ_clean_linker_1, # of connection points: 2
#     Edge 24, Type (0, 1), BuildingBlock: KIFKEQ_clean_linker_1, # of connection points: 2
#     Edge 25, Type (0, 1), BuildingBlock: KIFKEQ_clean_linker_1, # of connection points: 2
#     Edge 26, Type (0, 1), BuildingBlock: KIFKEQ_clean_linker_1, # of connection points: 2
#     Edge 27, Type (0, 1), BuildingBlock: KIFKEQ_clean_linker_1, # of connection points: 2
#     Edge 28, Type (0, 1), BuildingBlock: KIFKEQ_clean_linker_1, # of connection points: 2
#     Edge 29, Type (0, 1), BuildingBlock: KIFKEQ_clean_linker_1, # of connection points: 2
#     Edge 30, Type (0, 1), BuildingBlock: KIFKEQ_clean_linker_1, # of connection points: 2
#     Edge 31, Type (0, 1), BuildingBlock: KIFKEQ_clean_linker_1, # of connection points: 2
#     Edge 32, Type (0, 1), BuildingBlock: KIFKEQ_clean_linker_1, # of connection points: 2
#     Edge 33, Type (0, 1), BuildingBlock: KIFKEQ_clean_linker_1, # of connection points: 2
#     Edge 34, Type (0, 1), BuildingBlock: KIFKEQ_clean_linker_1, # of connection points: 2
#     Edge 35, Type (0, 1), BuildingBlock: KIFKEQ_clean_linker_1, # of connection points: 2
# Relax obj value: 0.174
# Max RMSD: 0.164
# Mean RMSD: 0.117
data_MOF--net-zzz--node1-KUMBUR_clean_sbu_0--node2-BETDAH_clean_linker_0--edge1-KIFKEQ_clean_linker_1
_symmetry_space_group_name_H-M    P1
_symmetry_Int_Tables_number       1
_symmetry_cell_setting            triclinic
loop_
_symmetry_equiv_pos_as_xyz
'x, y, z'
_cell_length_a     51.280301
_cell_length_b     51.316234
_cell_length_c     15.01349
_cell_angle_alpha  90.829761
_cell_angle_beta   90.01025
_cell_angle_gamma 89.896681
loop_
_atom_site_label
_atom_site_type_symbol
_atom_site_fract_x
_atom_site_fract_y
_atom_site_fract_z
_atom_type_partial_charge
H0 H 0.82154 0.5684 0.19067 0.0
H1 H 0.74421 0.55452 0.09509 0.0
H2 H 0.76751 0.52525 0.35179 0.0
C3 C 0.80232 0.56037 0.20239 0.0
C4 C 0.79762 0.54607 0.27994 0.0
C5 C 0.78329 0.56314 0.13608 0.0
C6 C 0.75842 0.55276 0.14808 0.0
C7 C 0.75214 0.53964 0.22666 0.0
C8 C 0.77193 0.53624 0.29264 0.0
N9 N 0.72655 0.52899 0.23884 0.0
C10 C 0.70603 0.52996 0.17631 0.0
H11 H 0.97323 0.83352 0.19809 0.0
H12 H 0.98326 0.75562 0.09666 0.0
H13 H 0.02079 0.77928 0.34223 0.0
C14 C 0.98066 0.81396 0.20734 0.0
C15 C 0.99657 0.809 0.28147 0.0
C16 C 0.97598 0.79499 0.14065 0.0
C17 C 0.98683 0.77005 0.14856 0.0
C18 C 1.00308 0.76399 0.22046 0.0
C19 C 1.00807 0.7837 0.28687 0.0
N20 N 0.01505 0.73866 0.22563 0.0
C21 C 1.01249 0.7179 0.163 0.0
H22 H 0.70822 0.97849 0.21783 0.0
H23 H 0.78787 0.98107 0.1305 0.0
H24 H 0.76585 0.01583 0.38338 0.0
C25 C 0.72844 0.98334 0.2312 0.0
C26 C 0.73449 0.99728 0.30937 0.0
C27 C 0.7475 0.9775 0.1667 0.0
C28 C 0.7734 0.98514 0.18142 0.0
C29 C 0.78044 0.99876 0.25969 0.0
C30 C 0.76082 1.00465 0.32414 0.0
N31 N 0.80668 1.00761 0.27309 0.0
C32 C 0.82681 1.0063 0.2093 0.0
H33 H 0.56256 0.71628 0.22389 0.0
H34 H 0.56159 0.79454 0.12792 0.0
H35 H 0.53683 0.77867 0.39716 0.0
C36 C 0.55936 0.73691 0.23672 0.0
C37 C 0.54935 0.74503 0.31932 0.0
C38 C 0.56391 0.75468 0.16843 0.0
C39 C 0.55868 0.7812 0.18225 0.0
C40 C 0.54927 0.79025 0.26519 0.0
C41 C 0.54474 0.77199 0.33393 0.0
N42 N 0.54348 0.81726 0.2801 0.0
C43 C 0.54546 0.83686 0.21601 0.0
H44 H 0.22103 0.47922 0.10226 0.0
H45 H 0.29838 0.48938 0.20731 0.0
H46 H 0.27843 0.51987 0.94932 0.0
C47 C 0.24094 0.48585 0.09391 0.0
C48 C 0.24736 0.49929 0.01646 0.0
C49 C 0.25909 0.48249 0.16316 0.0
C50 C 0.28452 0.49203 0.15373 0.0
C51 C 0.29193 0.50539 0.07681 0.0
C52 C 0.27308 0.50922 1.0083 0.0
N53 N 0.31787 0.51549 0.06795 0.0
C54 C 0.3377 0.51419 0.1329 0.0
H55 H 0.06574 0.21451 0.13062 0.0
H56 H 0.05533 0.2929 0.22625 0.0
H57 H 0.01961 0.26825 0.9787 0.0
C58 C 0.05846 0.23402 0.11933 0.0
C59 C 0.04315 0.23867 0.04335 0.0
C60 C 0.06268 0.25333 0.18524 0.0
C61 C 0.05206 0.27824 0.17484 0.0
C62 C 0.03641 0.28401 0.10124 0.0
C63 C 0.03185 0.26402 0.03546 0.0
N64 N 0.02463 0.30936 0.09387 0.0
C65 C 0.02676 0.33021 0.15638 0.0
H66 H 0.33676 0.07207 0.1204 0.0
H67 H 0.25745 0.0701 0.21176 0.0
H68 H 0.27857 0.03311 0.96169 0.0
C69 C 0.3165 0.06706 0.10855 0.0
C70 C 0.31016 0.05242 0.03212 0.0
C71 C 0.29769 0.07344 0.17338 0.0
C72 C 0.27173 0.06563 0.16062 0.0
C73 C 0.26445 0.05125 0.08425 0.0
C74 C 0.28381 0.04485 0.01948 0.0
N75 N 0.23823 0.04209 0.07314 0.0
C76 C 0.21815 0.04417 0.13694 0.0
H77 H 0.47721 0.32932 0.09394 0.0
H78 H 0.47914 0.25162 0.19519 0.0
H79 H 0.50557 0.26658 0.92719 0.0
C80 C 0.48088 0.30868 0.08276 0.0
C81 C 0.49171 0.30033 1.00166 0.0
C82 C 0.4762 0.2912 0.15186 0.0
C83 C 0.48213 0.26474 0.14025 0.0
C84 C 0.49234 0.25546 0.05873 0.0
C85 C 0.49701 0.27342 0.98922 0.0
N86 N 0.49881 0.22851 0.04604 0.0
C87 C 0.4974 0.20932 0.11171 0.0
Tb88 Tb 0.04292 0.01759 0.74181 0.0
C89 C 0.94888 0.99557 0.51317 0.0
C90 C 0.96467 0.96345 0.40741 0.0
C91 C 0.91956 0.96206 0.45593 0.0
C92 C 0.96905 0.98515 0.46451 0.0
C93 C 0.9236 0.98483 0.507 0.0
C94 C 0.94012 0.95135 0.40611 0.0
C95 C 0.90753 0.02209 0.5899 0.0
N96 N 0.9535 0.01785 0.55951 0.0
C97 C 0.93288 0.03204 0.5929 0.0
C98 C 0.90294 0.99804 0.54846 0.0
Tb99 Tb 0.99637 0.03129 0.57227 0.0
N100 N 0.99236 0.99767 0.46736 0.0
C101 C 1.01118 0.99074 0.40646 0.0
C102 C 0.9847 0.95522 0.35071 0.0
C103 C 1.00782 0.96933 0.34881 0.0
H104 H 0.93623 0.05085 0.62411 0.0
H105 H 0.02323 0.96366 0.3032 0.0
H106 H 0.93657 0.93439 0.36403 0.0
H107 H 0.89156 0.03304 0.61921 0.0
H108 H 0.02931 1.00082 0.40203 0.0
H109 H 0.01565 0.08299 0.01705 0.0
H110 H 0.98218 0.93862 0.30611 0.0
H111 H 0.10194 1.00148 0.66666 0.0
H112 H 1.00855 0.04801 0.91068 0.0
H113 H 0.14704 0.01758 0.68085 0.0
H114 H 0.9004 0.95326 0.45146 0.0
H115 H 0.05816 0.1053 0.0257 0.0
H116 H 0.10446 0.1081 0.97484 0.0
H117 H 0.88325 0.99045 0.54531 0.0
H118 H 0.14035 0.09022 0.88403 0.0
N119 N 0.04686 0.04952 0.85229 0.0
C120 C 0.02752 0.05678 0.91103 0.0
C121 C 0.05532 0.08959 0.97765 0.0
C122 C 0.07557 0.08122 0.92214 0.0
C123 C 0.03135 0.07702 0.97303 0.0
C124 C 0.07077 0.06078 0.86014 0.0
H125 H 0.15652 0.05612 0.77608 0.0
N126 N 0.08577 0.03064 0.75322 0.0
C127 C 0.13144 0.02723 0.71704 0.0
C128 C 0.0909 0.05096 0.80891 0.0
C129 C 0.10585 0.01813 0.70948 0.0
C130 C 0.13669 0.04904 0.77052 0.0
C131 C 0.1164 0.06098 0.81824 0.0
O132 O 0.06869 0.99049 0.79779 0.0
O133 O 0.01723 1.00057 0.63998 0.0
O134 O 0.97376 0.01792 0.68816 0.0
O135 O 1.00389 0.01716 0.80461 0.0
O136 O 0.05452 0.9871 0.64496 0.0
O137 O 0.02867 0.99157 0.83764 0.0
O138 O 0.97175 0.05693 0.50285 0.0
O139 O 0.02141 0.04782 0.67558 0.0
O140 O 0.0634 0.03844 0.63493 0.0
O141 O 0.03637 0.02972 0.51441 0.0
O142 O 0.98507 0.06309 0.66528 0.0
O143 O 1.01273 0.05747 0.4811 0.0
C144 C 0.03243 0.98344 0.60676 0.0
C145 C 0.04738 0.9501 0.8064 0.0
C146 C 0.02014 0.91185 0.77643 0.0
C147 C 0.02302 0.93762 0.8084 0.0
C148 C 0.04192 0.89915 0.7384 0.0
C149 C 0.06891 0.93672 0.76985 0.0
C150 C 0.06603 0.91158 0.73496 0.0
C151 C 0.97966 0.01575 0.77373 0.0
C152 C 0.04994 0.97772 0.83481 0.0
C153 C 0.12098 0.08206 0.87671 0.0
C154 C 0.10056 0.09221 0.92843 0.0
C155 C 1.00674 0.06561 0.70739 0.0
C156 C 0.99192 0.09814 0.50282 0.0
C157 C 0.01589 0.11126 0.50925 0.0
C158 C 0.01722 0.13709 0.54156 0.0
C159 C 0.99416 0.1492 0.57213 0.0
C160 C 0.96912 0.11089 0.53207 0.0
C161 C 0.97037 0.1361 0.56767 0.0
C162 C 0.05946 0.0365 0.5479 0.0
C163 C 0.99115 0.07046 0.47406 0.0
H164 H 1.00627 0.948 0.83505 0.0
H165 H 0.04076 0.87918 0.71461 0.0
H166 H 0.0879 0.94585 0.76658 0.0
H167 H 0.08268 0.90152 0.7064 0.0
H168 H 0.03358 0.10131 0.48867 0.0
H169 H 0.99415 0.16922 0.59587 0.0
H170 H 0.95039 0.1012 0.52912 0.0
H171 H 0.95274 0.14571 0.5905 0.0
Tb172 Tb 0.52479 0.04932 0.74505 0.0
C173 C 0.5535 0.94892 0.54027 0.0
C174 C 0.58362 0.96157 0.425 0.0
C175 C 0.58558 0.9178 0.48403 0.0
C176 C 0.56285 0.96758 0.48369 0.0
C177 C 0.56435 0.92361 0.5399 0.0
C178 C 0.59524 0.93678 0.42674 0.0
C179 C 0.53107 0.911 0.64433 0.0
N180 N 0.53291 0.95521 0.59277 0.0
C181 C 0.52101 0.93633 0.64235 0.0
C182 C 0.55307 0.90469 0.59378 0.0
Tb183 Tb 0.51753 0.99731 0.58549 0.0
N184 N 0.55097 0.99128 0.48373 0.0
C185 C 0.55819 1.00922 0.42166 0.0
C186 C 0.59176 0.98042 0.36498 0.0
C187 C 0.57878 1.00424 0.36272 0.0
H188 H 0.50409 0.94103 0.68232 0.0
H189 H 0.58471 0.01891 0.31579 0.0
H190 H 0.61131 0.93191 0.38267 0.0
H191 H 0.52191 0.89642 0.68518 0.0
H192 H 0.5491 0.02795 0.41803 0.0
H193 H 0.45854 0.02787 0.0178 0.0
H194 H 0.6077 0.97663 0.31921 0.0
H195 H 0.5381 0.10585 0.64927 0.0
H196 H 0.4943 0.01909 0.9161 0.0
H197 H 0.51972 0.15022 0.64541 0.0
H198 H 0.59431 0.89855 0.48325 0.0
H199 H 0.43464 0.06961 0.01189 0.0
H200 H 0.43014 0.11394 0.94605 0.0
H201 H 0.56082 0.88505 0.5953 0.0
H202 H 0.44672 0.14728 0.84461 0.0
N203 N 0.49156 0.05528 0.84777 0.0
C204 C 0.48476 0.03753 0.91106 0.0
C205 C 0.45064 0.06592 0.96628 0.0
C206 C 0.45841 0.08465 0.90527 0.0
C207 C 0.46412 0.04241 0.96989 0.0
C208 C 0.47929 0.07877 0.84684 0.0
H209 H 0.48035 0.16112 0.73355 0.0
N210 N 0.50918 0.09135 0.73787 0.0
C211 C 0.51062 0.13555 0.68606 0.0
C212 C 0.4884 0.09743 0.78978 0.0
C213 C 0.521 0.11036 0.68863 0.0
C214 C 0.48837 0.14159 0.73561 0.0
C215 C 0.4772 0.12258 0.78938 0.0
O216 O 0.54958 0.07799 0.79853 0.0
O217 O 0.54459 0.0229 0.65263 0.0
O218 O 0.5393 0.98232 0.70044 0.0
O219 O 0.52567 1.01092 0.81247 0.0
O220 O 0.55663 0.06048 0.65438 0.0
O221 O 0.54917 0.03963 0.853 0.0
O222 O 0.49197 0.96897 0.53463 0.0
O223 O 0.49782 0.02381 0.67766 0.0
O224 O 0.50319 0.06439 0.62963 0.0
O225 O 0.51636 0.03556 0.51766 0.0
O226 O 0.48527 0.98644 0.67524 0.0
O227 O 0.49451 1.00642 0.47357 0.0
C228 C 0.56145 0.03796 0.62022 0.0
C229 C 0.59035 0.05975 0.82932 0.0
C230 C 0.62997 0.03411 0.80401 0.0
C231 C 0.6034 0.03562 0.82712 0.0
C232 C 0.64304 0.05704 0.77961 0.0
C233 C 0.60404 0.0824 0.80653 0.0
C234 C 0.6301 0.08094 0.78076 0.0
C235 C 0.53527 0.98797 0.78576 0.0
C236 C 0.56204 0.06139 0.84696 0.0
C237 C 0.45575 0.12817 0.84456 0.0
C238 C 0.44634 0.10921 0.90235 0.0
C239 C 0.48074 1.00898 0.70972 0.0
C240 C 0.45239 0.9881 0.4958 0.0
C241 C 0.44055 1.01282 0.50193 0.0
C242 C 0.41395 0.01523 0.52347 0.0
C243 C 0.39955 0.99259 0.54171 0.0
C244 C 0.43742 0.96579 0.51239 0.0
C245 C 0.41126 0.9681 0.53618 0.0
C246 C 0.50696 0.05858 0.54427 0.0
C247 C 0.48074 0.98526 0.48174 0.0
H248 H 0.59294 0.018 0.84348 0.0
H249 H 0.6636 0.05681 0.76328 0.0
H250 H 0.59442 0.10122 0.80697 0.0
H251 H 0.64043 0.09848 0.76286 0.0
H252 H 0.45195 0.03019 0.4901 0.0
H253 H 0.37891 0.99362 0.5566 0.0
H254 H 0.44615 0.94656 0.5089 0.0
H255 H 0.39993 0.9508 0.54936 0.0
Tb256 Tb 0.54922 0.51766 0.58903 0.0
C257 C 0.44011 0.49533 0.73363 0.0
C258 C 0.40953 0.51638 0.63545 0.0
C259 C 0.39655 0.47747 0.71422 0.0
C260 C 0.43454 0.51475 0.67435 0.0
C261 C 0.42103 0.47678 0.7561 0.0
C262 C 0.39081 0.49726 0.65391 0.0
C263 C 0.45085 0.45993 0.86569 0.0
N264 N 0.46387 0.4955 0.77298 0.0
C265 C 0.46907 0.47877 0.84125 0.0
C266 C 0.42685 0.45866 0.82197 0.0
Tb267 Tb 0.49281 0.52684 0.72756 0.0
N268 N 0.45316 0.53286 0.65864 0.0
C269 C 0.44704 0.55443 0.61022 0.0
C270 C 0.40385 0.53759 0.58139 0.0
C271 C 0.42257 0.55691 0.56995 0.0
H272 H 0.48768 0.47937 0.8749 0.0
H273 H 0.41823 0.57371 0.52971 0.0
H274 H 0.37162 0.49801 0.62384 0.0
H275 H 0.45538 0.44633 0.91792 0.0
H276 H 0.46098 0.56965 0.59998 0.0
H277 H 0.6239 0.47023 0.78497 0.0
H278 H 0.38493 0.53954 0.55 0.0
H279 H 0.55439 0.56533 0.44238 0.0
H280 H 0.5811 0.47453 0.71537 0.0
H281 H 0.58674 0.59832 0.39954 0.0
H282 H 0.38171 0.46325 0.72985 0.0
H283 H 0.6573 0.5043 0.76476 0.0
H284 H 0.67067 0.5459 0.6915 0.0
H285 H 0.41274 0.44409 0.84112 0.0
H286 H 0.66056 0.58087 0.58631 0.0
N287 N 0.58895 0.51139 0.65724 0.0
C288 C 0.59506 0.48974 0.70524 0.0
C289 C 0.63835 0.50637 0.73368 0.0
C290 C 0.63268 0.52768 0.68008 0.0
C291 C 0.61957 0.48711 0.7451 0.0
C292 C 0.60763 0.52946 0.64158 0.0
H293 H 0.62948 0.60031 0.47583 0.0
N294 N 0.57824 0.54896 0.54377 0.0
C295 C 0.59129 0.58463 0.45148 0.0
C296 C 0.60205 0.54899 0.58279 0.0
C297 C 0.57303 0.56582 0.47583 0.0
C298 C 0.61533 0.58575 0.49492 0.0
C299 C 0.62116 0.56751 0.56038 0.0
O300 O 0.55824 0.51203 0.45412 0.0
O301 O 0.50693 0.51653 0.59691 0.0
O302 O 0.49455 0.48548 0.68752 0.0
O303 O 0.53902 0.48133 0.66165 0.0
O304 O 0.52235 0.53076 0.48342 0.0
O305 O 0.55997 0.47997 0.54538 0.0
O306 O 0.48371 0.5326 0.86232 0.0
O307 O 0.53505 0.52792 0.71951 0.0
O308 O 0.54751 0.55903 0.62934 0.0
O309 O 0.50305 0.56322 0.65539 0.0
O310 O 0.51976 0.51403 0.83358 0.0
O311 O 0.48163 0.56448 0.77041 0.0
C312 C 0.50076 0.5252 0.52148 0.0
C313 C 0.54403 0.47189 0.39885 0.0
C314 C 0.50894 0.44117 0.36588 0.0
C315 C 0.52481 0.45442 0.42792 0.0
C316 C 0.51223 0.44615 0.27442 0.0
C317 C 0.54702 0.47637 0.30749 0.0
C318 C 0.53106 0.46369 0.24575 0.0
C319 C 0.51599 0.47108 0.68261 0.0
C320 C 0.56011 0.48693 0.4621 0.0
C321 C 0.64569 0.56667 0.60188 0.0
C322 C 0.65144 0.54677 0.66172 0.0
C323 C 0.54133 0.51946 0.7951 0.0
C324 C 0.49727 0.57305 0.91706 0.0
C325 C 0.51587 0.59118 0.888 0.0
C326 C 0.53147 0.60475 0.95004 0.0
C327 C 0.52851 0.59949 0.04144 0.0
C328 C 0.49459 0.56832 1.00839 0.0
C329 C 0.51027 0.58137 0.07009 0.0
C330 C 0.52608 0.57346 0.63453 0.0
C331 C 0.4815 0.55766 0.85383 0.0
H332 H 0.5222 0.45108 0.49839 0.0
H333 H 0.50091 0.43583 0.22434 0.0
H334 H 0.56157 0.48993 0.28398 0.0
H335 H 0.5335 0.46721 0.17532 0.0
H336 H 0.51821 0.59479 0.81759 0.0
H337 H 0.53966 0.61004 0.09145 0.0
H338 H 0.48049 0.5543 0.03192 0.0
H339 H 0.50806 0.57765 0.14049 0.0
Tb340 Tb 0.02854 0.54739 0.58612 0.0
C341 C 0.03573 0.44292 0.77197 0.0
C342 C 1.01362 0.41251 0.67369 0.0
C343 C 0.04851 0.39725 0.76923 0.0
C344 C 0.01727 0.43808 0.70743 0.0
C345 C 0.0511 0.42247 0.80567 0.0
C346 C 0.02982 0.39228 0.70312 0.0
C347 C 0.06849 0.45281 0.9146 0.0
N348 N 0.03751 0.46747 0.80556 0.0
C349 C 0.05292 0.47244 0.87864 0.0
C350 C 0.06792 0.4278 0.87697 0.0
Tb351 Tb 1.01137 0.49864 0.742 0.0
N352 N 1.00191 0.45814 0.68143 0.0
C353 C 0.98094 0.45321 0.62713 0.0
C354 C 0.9933 0.40788 0.61356 0.0
C355 C 0.97663 0.42825 0.59141 0.0
H356 H 0.05381 0.49184 0.90747 0.0
H357 H 0.96048 0.42481 0.54635 0.0
H358 H 0.02751 0.37261 0.67718 0.0
H359 H 0.08107 0.45706 0.97085 0.0
H360 H 0.96777 0.46838 0.60773 0.0
H361 H 0.07715 0.62293 0.78162 0.0
H362 H 0.98991 0.38858 0.58576 0.0
H363 H 0.98858 0.55287 0.41312 0.0
H364 H 0.0703 0.57888 0.72472 0.0
H365 H 0.96284 0.58703 0.3406 0.0
H366 H 0.06034 0.38133 0.79344 0.0
H367 H 0.04896 0.659 0.73189 0.0
H368 H 1.0132 0.67434 0.63117 0.0
H369 H 0.08 0.41262 0.90489 0.0
H370 H 0.98215 0.66464 0.51011 0.0
N371 N 0.03763 0.58856 0.64271 0.0
C372 C 0.0577 0.59391 0.70048 0.0
C373 C 0.04577 0.63945 0.70595 0.0
C374 C 0.02642 0.63437 0.64264 0.0
C375 C 0.06175 0.61918 0.73386 0.0
C376 C 0.02298 0.60849 0.61152 0.0
H377 H 0.96371 0.63225 0.39985 0.0
N378 N 1.00408 0.57825 0.51379 0.0
C379 C 0.9747 0.59185 0.39814 0.0
C380 C 1.00558 0.60312 0.54434 0.0
C381 C 0.98946 0.57252 0.4395 0.0
C382 C 0.97515 0.6173 0.43196 0.0
C383 C 0.991 0.62331 0.50521 0.0
O384 O 0.03929 0.54738 0.4512 0.0
O385 O 0.02554 0.50562 0.60972 0.0
O386 O 0.05394 0.49554 0.72034 0.0
O387 O 0.06242 0.53741 0.67228 0.0
O388 O 1.01251 0.51862 0.49085 0.0
O389 O 0.06831 0.55142 0.55359 0.0
O390 O 1.00287 0.49534 0.87772 0.0
O391 O 1.01387 0.54032 0.71822 0.0
O392 O 0.98596 0.55085 0.60417 0.0
O393 O 0.97669 0.50989 0.66077 0.0
O394 O 0.02594 0.52779 0.83893 0.0
O395 O 0.97225 0.49295 0.77982 0.0
C396 C 0.01626 0.49789 0.53562 0.0
C397 C 0.07719 0.52175 0.4351 0.0
C398 C 0.11291 0.49024 0.44281 0.0
C399 C 0.10113 0.51372 0.47124 0.0
C400 C 0.09992 0.47443 0.37954 0.0
C401 C 0.06505 0.50592 0.36994 0.0
C402 C 0.0762 0.48229 0.3435 0.0
C403 C 0.07036 0.51508 0.70723 0.0
C404 C 0.0639 0.54534 0.47037 0.0
C405 C 0.99336 0.6489 0.53861 0.0
C406 C 1.01103 0.65442 0.60746 0.0
C407 C 0.02231 0.54836 0.79316 0.0
C408 C 0.96355 0.51543 0.91656 0.0
C409 C 0.94493 0.53185 0.8772 0.0
C410 C 0.9316 0.55072 0.92888 0.0
C411 C 0.93801 0.55342 0.02002 0.0
C412 C 0.96935 0.51848 1.00746 0.0
C413 C 0.95685 0.53757 0.05848 0.0
C414 C 0.96925 0.53181 0.62134 0.0
C415 C 0.97789 0.49559 0.86419 0.0
H416 H 0.11067 0.52581 0.52125 0.0
H417 H 0.10861 0.45652 0.35462 0.0
H418 H 0.0466 0.51147 0.34057 0.0
H419 H 0.06653 0.47013 0.29412 0.0
H420 H 0.94065 0.52977 0.80685 0.0
H421 H 0.92777 0.56705 0.06323 0.0
H422 H 0.9837 0.50613 0.039 0.0
H423 H 0.96138 0.53973 0.12864 0.0
H424 H 0.20605 0.07968 0.26834 0.0
H425 H 0.17912 1.00892 0.14155 0.0
H426 H 0.16757 0.07993 0.36583 0.0
H427 H 0.14104 1.00859 0.23942 0.0
H428 H 0.06284 0.02599 0.36683 0.0
H429 H 0.10055 0.02876 0.26994 0.0
H430 H 0.14595 0.0603 0.48818 0.0
H431 H 0.10764 0.05839 0.58435 0.0
C432 C 0.19193 0.06409 0.26172 0.0
C433 C 0.1956 0.04428 0.19727 0.0
C434 C 0.16986 0.06411 0.31798 0.0
C435 C 0.15076 0.04433 0.31115 0.0
C436 C 0.15478 0.02448 0.2464 0.0
C437 C 0.17681 0.02449 0.19045 0.0
C438 C 0.08078 0.03333 0.39499 0.0
C439 C 0.08215 0.04075 0.4856 0.0
C440 C 0.10269 0.03487 0.33887 0.0
C441 C 0.12689 0.04414 0.37077 0.0
C442 C 0.12793 0.05285 0.46034 0.0
C443 C 0.10592 0.05133 0.51641 0.0
H444 H 0.45878 0.19517 0.22607 0.0
H445 H 0.53615 0.17461 0.13832 0.0
H446 H 0.45877 0.158 0.3273 0.0
H447 H 0.53666 0.1379 0.24026 0.0
H448 H 0.52293 0.0601 0.36873 0.0
H449 H 0.5194 0.09584 0.26508 0.0
H450 H 0.47624 0.14062 0.46127 0.0
H451 H 0.47892 0.10423 0.56374 0.0
C452 C 0.47585 0.18275 0.229 0.0
C453 C 0.49748 0.18777 0.17453 0.0
C454 C 0.47595 0.16146 0.28733 0.0
C455 C 0.49768 0.14458 0.29247 0.0
C456 C 0.51934 0.14994 0.23766 0.0
C457 C 0.5192 0.17119 0.17957 0.0
C458 C 0.51265 0.07745 0.39021 0.0
C459 C 0.5021 0.07939 0.47664 0.0
C460 C 0.51075 0.09822 0.33048 0.0
C461 C 0.49806 0.12168 0.35468 0.0
C462 C 0.48629 0.12309 0.43953 0.0
C463 C 0.48814 0.10223 0.49917 0.0
H464 H 0.35832 0.55641 0.21705 0.0
H465 H 0.36727 0.47325 0.18965 0.0
H466 H 0.39647 0.55826 0.31491 0.0
H467 H 0.40591 0.47492 0.2866 0.0
H468 H 0.46361 0.48588 0.52547 0.0
H469 H 0.42356 0.48234 0.43578 0.0
H470 H 0.44276 0.55457 0.30733 0.0
H471 H 0.48219 0.55808 0.39751 0.0
C472 C 0.36845 0.53847 0.23231 0.0
C473 C 0.35975 0.51471 0.1956 0.0
C474 C 0.39053 0.5395 0.28803 0.0
C475 C 0.40476 0.51678 0.30879 0.0
C476 C 0.39557 0.49285 0.27327 0.0
C477 C 0.37343 0.49187 0.21724 0.0
C478 C 0.45897 0.50115 0.47897 0.0
C479 C 0.47565 0.52276 0.47099 0.0
C480 C 0.43614 0.49899 0.42651 0.0
C481 C 0.42939 0.51838 0.36448 0.0
C482 C 0.44663 0.53956 0.3555 0.0
C483 C 0.46943 0.54155 0.40709 0.0
H484 H 0.03688 0.33405 0.3363 0.0
H485 H 0.01723 0.37998 0.10816 0.0
H486 H 0.03535 0.37351 0.43177 0.0
H487 H 0.01605 0.4193 0.20192 0.0
H488 H 0.98652 0.48027 0.39949 0.0
H489 H 0.98997 0.44014 0.31203 0.0
H490 H 0.0552 0.41602 0.47297 0.0
H491 H 0.05153 0.45678 0.56131 0.0
C492 C 0.0324 0.35261 0.30638 0.0
C493 C 0.02708 0.35377 0.2144 0.0
C494 C 0.03164 0.37536 0.36114 0.0
C495 C 0.02534 0.39997 0.32569 0.0
C496 C 0.02047 0.40092 0.23306 0.0
C497 C 0.02131 0.37828 0.17866 0.0
C498 C 1.00153 0.46635 0.41692 0.0
C499 C 0.0183 0.47168 0.48916 0.0
C500 C 1.0037 0.44325 0.3659 0.0
C501 C 0.02298 0.42443 0.38401 0.0
C502 C 0.03986 0.42968 0.45683 0.0
C503 C 0.03772 0.45306 0.50808 0.0
H504 H 0.86069 0.96694 0.16642 0.0
H505 H 0.84304 0.0472 0.11222 0.0
H506 H 0.89792 0.96855 0.0636 0.0
H507 H 0.88036 0.04928 0.01143 0.0
H508 H 0.93207 0.03985 0.76987 0.0
H509 H 0.89559 0.03608 0.87107 0.0
H510 H 0.9412 0.98506 0.03637 0.0
H511 H 0.97753 0.98786 0.93022 0.0
C512 C 0.8648 0.98494 0.13233 0.0
C513 C 0.84878 1.00688 0.14666 0.0
C514 C 0.88632 0.98598 0.07381 0.0
C515 C 0.89242 1.00902 0.02787 0.0
C516 C 0.87627 0.03097 0.04344 0.0
C517 C 0.85483 0.02988 0.10177 0.0
C518 C 0.93416 0.02712 0.82576 0.0
C519 C 0.9576 1.01348 0.83926 0.0
C520 C 0.91327 0.02543 0.88584 0.0
C521 C 0.91505 1.01024 0.96307 0.0
C522 C 0.9387 0.9967 0.97742 0.0
C523 C 0.95971 0.99845 0.91675 0.0
H524 H 0.54217 0.83517 0.03505 0.0
H525 H 0.55075 0.88801 0.25856 0.0
H526 H 0.54188 0.87214 0.93326 0.0
H527 H 0.55092 0.92507 0.15755 0.0
H528 H 0.51911 0.98582 0.96125 0.0
H529 H 0.52287 0.94979 0.06372 0.0
H530 H 0.56749 0.90638 0.86791 0.0
H531 H 0.5637 0.94264 0.76525 0.0
C532 C 0.54423 0.85473 0.06222 0.0
C533 C 0.54646 0.85873 0.15461 0.0
C534 C 0.54421 0.87599 1.0039 0.0
C535 C 0.54632 0.90186 0.03651 0.0
C536 C 0.54886 0.90563 0.12944 0.0
C537 C 0.54894 0.88436 0.18755 0.0
C538 C 0.52977 0.96873 0.93958 0.0
C539 C 0.54029 0.96708 0.85303 0.0
C540 C 0.5321 0.94792 0.99907 0.0
C541 C 0.54517 0.92472 0.97437 0.0
C542 C 0.55666 0.92351 0.8891 0.0
C543 C 0.55445 0.94441 0.82985 0.0
H544 H 0.67642 0.5709 0.12007 0.0
H545 H 0.68451 0.48759 0.09554 0.0
H546 H 0.63733 0.56926 0.02535 0.0
H547 H 0.64591 0.48576 0.99974 0.0
H548 H 0.56004 0.48645 0.91861 0.0
H549 H 0.59975 0.48974 1.00753 0.0
H550 H 0.61904 0.56179 0.87801 0.0
H551 H 0.57872 0.55848 0.7898 0.0
C552 C 0.66995 0.55224 0.09366 0.0
C553 C 0.68354 0.52937 0.11544 0.0
C554 C 0.64756 0.55127 0.03885 0.0
C555 C 0.63801 0.52733 1.00463 0.0
C556 C 0.65211 0.50455 0.02564 0.0
C557 C 0.67445 0.50556 0.08019 0.0
C558 C 0.57288 0.5029 0.90855 0.0
C559 C 0.5666 0.5217 0.84477 0.0
C560 C 0.59584 0.50476 0.9594 0.0
C561 C 0.6132 0.52583 0.94977 0.0
C562 C 0.60638 0.54522 0.88785 0.0
C563 C 0.58339 0.5432 0.83619 0.0
H564 H 1.00391 0.71368 0.98209 0.0
H565 H 0.02017 0.66809 0.21407 0.0
H566 H 1.00539 0.67385 0.88831 0.0
H567 H 0.0213 0.62845 0.12201 0.0
H568 H 0.05128 0.56609 0.93104 0.0
H569 H 0.04805 0.60672 0.01568 0.0
H570 H 0.98495 0.63156 0.84643 0.0
H571 H 0.98841 0.59026 0.76081 0.0
C572 C 1.00762 0.69512 0.0132 0.0
C573 C 1.01201 0.69416 0.1058 0.0
C574 C 1.00835 0.67217 0.9594 0.0
C575 C 1.01371 0.64754 0.99647 0.0
C576 C 0.01763 0.64682 0.08967 0.0
C577 C 0.0168 0.66965 0.14309 0.0
C578 C 0.03676 0.58023 0.91122 0.0
C579 C 0.02048 0.57488 0.83769 0.0
C580 C 0.03473 0.60365 0.96059 0.0
C581 C 0.01606 0.62281 0.93946 0.0
C582 C 0.99975 0.6176 0.86509 0.0
C583 C 1.00175 0.59388 0.81549 0.0
H584 H 0.10706 0.22471 0.21585 0.0
H585 H 0.04389 0.26458 0.3506 0.0
H586 H 0.1145 0.19857 0.34801 0.0
H587 H 0.05067 0.23839 0.48023 0.0
H588 H 0.05392 0.13219 0.41002 0.0
H589 H 0.08331 0.16505 0.36269 0.0
H590 H 0.06572 0.21135 0.59802 0.0
H591 H 0.03629 0.17725 0.64836 0.0
C592 C 0.09546 0.22858 0.2749 0.0
C593 C 0.07414 0.24577 0.27175 0.0
C594 C 0.09977 0.21372 0.35077 0.0
C595 C 0.08224 0.2153 0.42283 0.0
C596 C 0.06431 0.2361 0.42562 0.0
C597 C 0.06022 0.25116 0.3504 0.0
C598 C 0.05709 0.14857 0.45488 0.0
C599 C 0.04155 0.15256 0.53101 0.0
C600 C 0.07433 0.1677 0.42744 0.0
C601 C 0.07602 0.19156 0.47437 0.0
C602 C 0.06408 0.19359 0.5586 0.0
C603 C 0.04695 0.17418 0.58681 0.0
H604 H 0.28586 0.05447 0.33618 0.0
H605 H 0.33058 0.11447 0.20847 0.0
H606 H 0.31433 0.05666 0.46356 0.0
H607 H 0.35912 0.11733 0.3383 0.0
H608 H 0.37479 0.03559 0.62867 0.0
H609 H 0.34285 0.06788 0.58154 0.0
H610 H 0.39031 0.08381 0.35055 0.0
H611 H 0.42181 0.05226 0.39794 0.0
C612 C 0.30092 0.06926 0.33751 0.0
C613 C 0.30672 0.08351 0.26103 0.0
C614 C 0.31739 0.07063 0.41129 0.0
C615 C 0.33994 0.08627 0.40942 0.0
C616 C 0.34254 0.1043 0.34024 0.0
C617 C 0.32618 0.10272 0.2659 0.0
C618 C 0.37873 0.04676 0.56958 0.0
C619 C 0.40021 0.04057 0.51499 0.0
C620 C 0.36049 0.06533 0.54268 0.0
C621 C 0.36331 0.07762 0.46008 0.0
C622 C 0.38709 0.07463 0.41406 0.0
C623 C 0.40533 0.05623 0.44118 0.0
H624 H 0.42968 0.31236 0.20345 0.0
H625 H 0.50753 0.29605 0.29469 0.0
H626 H 0.42515 0.34632 0.31778 0.0
H627 H 0.50429 0.33091 0.40341 0.0
H628 H 0.51613 0.40523 0.49828 0.0
H629 H 0.49525 0.36291 0.5046 0.0
H630 H 0.44142 0.38664 0.29875 0.0
H631 H 0.46065 0.42932 0.29926 0.0
C632 C 0.4454 0.3154 0.25067 0.0
C633 C 0.46915 0.30218 0.23969 0.0
C634 C 0.44304 0.33511 0.31543 0.0
C635 C 0.4649 0.34273 0.36649 0.0
C636 C 0.48702 0.32631 0.36498 0.0
C637 C 0.48905 0.30614 0.3021 0.0
C638 C 0.49905 0.4018 0.45741 0.0
C639 C 0.49105 0.42004 0.39386 0.0
C640 C 0.4872 0.37729 0.46026 0.0
C641 C 0.46787 0.37041 0.39749 0.0
C642 C 0.45678 0.39047 0.34648 0.0
C643 C 0.46816 0.4151 0.34536 0.0
H644 H 0.22837 0.43998 0.19154 0.0
H645 H 0.26893 0.50201 0.33032 0.0
H646 H 0.19981 0.43481 0.31813 0.0
H647 H 0.2412 0.49594 0.45978 0.0
H648 H 0.15337 0.52413 0.46437 0.0
H649 H 0.19872 0.51358 0.44885 0.0
H650 H 0.18068 0.43145 0.46191 0.0
H651 H 0.13454 0.44226 0.47819 0.0
C652 C 0.23191 0.45172 0.25087 0.0
C653 C 0.24994 0.47223 0.24949 0.0
C654 C 0.21573 0.44854 0.32448 0.0
C655 C 0.2174 0.46587 0.39789 0.0
C656 C 0.23881 0.48294 0.4029 0.0
C657 C 0.25482 0.48633 0.3287 0.0
C658 C 0.15899 0.50383 0.46845 0.0
C659 C 0.14018 0.48399 0.46816 0.0
C660 C 0.18532 0.49768 0.45986 0.0
C661 C 0.19334 0.47153 0.45004 0.0
C662 C 0.17501 0.45177 0.46593 0.0
C663 C 0.14856 0.45796 0.47465 0.0
H664 H 0.93191 0.82466 0.11676 0.0
H665 H 0.99285 0.78412 0.97234 0.0
H666 H 0.92439 0.85229 0.9883 0.0
H667 H 0.98562 0.81149 0.84571 0.0
H668 H 0.99739 0.87278 0.67395 0.0
H669 H 0.96828 0.83932 0.73056 0.0
H670 H 0.95798 0.88464 0.97291 0.0
H671 H 0.98722 0.917 0.91909 0.0
C672 C 0.94291 0.82091 0.05629 0.0
C673 C 0.96378 0.80311 0.05586 0.0
C674 C 0.93851 0.83663 0.98254 0.0
C675 C 0.95528 0.83498 0.9085 0.0
C676 C 0.97256 0.8137 0.902 0.0
C677 C 0.97687 0.79794 0.97539 0.0
C678 C 0.98838 0.87585 0.73849 0.0
C679 C 0.99578 0.897 0.79371 0.0
C680 C 0.97141 0.85681 0.77034 0.0
C681 C 0.96154 0.85877 0.85756 0.0
C682 C 0.96529 0.88219 0.90564 0.0
C683 C 0.9824 0.90098 0.87448 0.0
H684 H 0.75935 0.99809 1.00633 0.0
H685 H 0.71529 0.93635 0.12695 0.0
H686 H 0.73126 0.99632 0.87746 0.0
H687 H 0.6872 0.93399 0.99586 0.0
H688 H 0.62361 0.99831 0.93495 0.0
H689 H 0.65586 0.9681 0.98593 0.0
H690 H 0.7036 0.98385 0.75557 0.0
H691 H 0.67065 1.01447 0.70355 0.0
C692 C 0.74456 0.98305 1.00303 0.0
C693 C 0.7388 0.96807 0.0779 0.0
C694 C 0.72835 0.98192 0.92849 0.0
C695 C 0.70615 0.9658 0.92804 0.0
C696 C 0.70358 0.94728 0.99566 0.0
C697 C 0.71967 0.94859 0.0707 0.0
C698 C 0.64029 0.99455 0.89244 0.0
C699 C 0.64501 1.00966 0.81689 0.0
C700 C 0.65898 0.97693 0.92175 0.0
C701 C 0.68289 0.97418 0.87654 0.0
C702 C 0.68573 0.98613 0.79339 0.0
C703 C 0.66693 1.0038 0.76388 0.0
H704 H 0.61022 0.73438 0.11118 0.0
H705 H 0.53131 0.74976 0.02905 0.0
H706 H 0.61419 0.70079 0.9953 0.0
H707 H 0.53407 0.71525 0.91874 0.0
H708 H 0.52289 0.6411 0.82008 0.0
H709 H 0.543 0.68384 0.81448 0.0
H710 H 0.59835 0.66022 0.01575 0.0
H711 H 0.57977 0.61724 0.01478 0.0
C712 C 0.59412 0.73124 0.06556 0.0
C713 C 0.57029 0.74407 0.07952 0.0
C714 C 0.59617 0.71175 0.99991 0.0
C715 C 0.57397 0.70396 0.95093 0.0
C716 C 0.55161 0.72002 0.95544 0.0
C717 C 0.54986 0.73997 0.01924 0.0
C718 C 0.54013 0.64468 0.86003 0.0
C719 C 0.54879 0.62634 0.9222 0.0
C720 C 0.55154 0.6694 0.85756 0.0
C721 C 0.57115 0.67635 0.91923 0.0
C722 C 0.5828 0.6563 0.96881 0.0
C723 C 0.57181 0.6315 0.96966 0.0
H724 H 0.78833 0.53436 0.98627 0.0
H725 H 0.79818 0.61234 0.08999 0.0
H726 H 0.82016 0.54227 0.873 0.0
H727 H 0.8286 0.62179 0.97045 0.0
H728 H 0.89647 0.535 0.79855 0.0
H729 H 0.85247 0.55099 0.78357 0.0
H730 H 0.87045 0.61434 0.96712 0.0
H731 H 0.91497 0.60033 0.97168 0.0
C732 C 0.79634 0.55381 0.98118 0.0
C733 C 0.79174 0.5724 0.04834 0.0
C734 C 0.81489 0.55858 0.91556 0.0
C735 C 0.82908 0.58218 0.91604 0.0
C736 C 0.8199 0.60263 0.97181 0.0
C737 C 0.80201 0.5975 0.03959 0.0
C738 C 0.89139 0.55301 0.83275 0.0
C739 C 0.90878 0.56519 0.89264 0.0
C740 C 0.86573 0.562 0.82556 0.0
C741 C 0.85667 0.58226 0.88212 0.0
C742 C 0.87563 0.59763 0.92628 0.0
C743 C 0.90148 0.5893 0.93047 0.0
H744 H 0.07825 0.20133 0.9845 0.0
H745 H 0.99764 0.22343 0.95441 0.0
H746 H 0.07021 0.1609 0.90311 0.0
H747 H 0.98972 0.18331 0.86817 0.0
H748 H 0.9752 0.09633 0.80886 0.0
H749 H 0.98382 0.13855 0.87889 0.0
H750 H 0.06221 0.13656 0.77372 0.0
H751 H 0.0534 0.0937 0.70539 0.0
C752 C 0.05873 0.19781 0.95959 0.0
C753 C 0.03857 0.21597 0.97817 0.0
C754 C 0.05414 0.17442 0.9115 0.0
C755 C 0.02915 0.16802 0.87872 0.0
C756 C 1.00919 0.18679 0.89342 0.0
C757 C 1.0138 0.21026 0.94206 0.0
C758 C 0.9944 0.10479 0.80134 0.0
C759 C 1.0138 0.09101 0.75358 0.0
C760 C 0.99933 0.12939 0.84088 0.0
C761 C 0.02383 0.14166 0.83321 0.0
C762 C 0.04319 0.12798 0.78359 0.0
C763 C 0.03823 0.10317 0.74423 0.0
H764 H 0.35049 0.02134 0.0794 0.0
H765 H 0.32121 0.06424 0.85615 0.0
H766 H 0.39053 1.01173 0.99858 0.0
H767 H 0.36154 0.05436 0.77318 0.0
H768 H 0.45148 0.97839 0.8148 0.0
H769 H 0.40909 0.98712 0.8818 0.0
H770 H 0.40822 0.06334 0.76358 0.0
H771 H 0.45069 0.05393 0.69371 0.0
C772 C 0.35238 0.02818 0.01177 0.0
C773 C 0.33232 0.04315 0.97391 0.0
C774 C 0.37548 0.02266 0.96497 0.0
C775 C 0.3796 0.03196 0.87817 0.0
C776 C 0.35934 0.04677 0.8396 0.0
C777 C 0.33598 0.05218 0.88667 0.0
C778 C 0.44232 0.99709 0.80338 0.0
C779 C 0.45503 0.0158 0.75162 0.0
C780 C 0.41792 1.00221 0.84227 0.0
C781 C 0.40505 0.02622 0.83026 0.0
C782 C 0.41731 0.04464 0.77503 0.0
C783 C 0.44191 0.03944 0.73592 0.0
H784 H 0.52863 0.33765 0.0226 0.0
H785 H 0.47028 0.31074 0.83687 0.0
H786 H 0.53556 0.37646 0.93422 0.0
H787 H 0.47734 0.34971 0.74633 0.0
H788 H 0.4727 0.43939 0.68699 0.0
H789 H 0.46874 0.39615 0.75156 0.0
H790 H 0.55166 0.39519 0.80122 0.0
H791 H 0.55535 0.43864 0.73949 0.0
C792 C 0.5178 0.33971 0.96111 0.0
C793 C 0.49921 0.32085 0.93621 0.0
C794 C 0.52175 0.36208 0.91008 0.0
C795 C 0.50705 0.36658 0.83243 0.0
C796 C 0.48892 0.34722 0.80591 0.0
C797 C 0.4851 0.32463 0.85704 0.0
C798 C 0.49014 0.42993 0.71142 0.0
C799 C 0.51429 0.443 0.70947 0.0
C800 C 0.4879 0.40488 0.74786 0.0
C801 C 0.5098 0.39198 0.78336 0.0
C802 C 0.53417 0.40453 0.77671 0.0
C803 C 0.53638 0.42953 0.74024 0.0
H804 H 0.22489 0.46305 0.90539 0.0
H805 H 0.21958 0.54392 0.98244 0.0
H806 H 0.18448 0.46675 0.82048 0.0
H807 H 0.17839 0.5477 0.90154 0.0
H808 H 0.10864 0.55302 0.71649 0.0
H809 H 0.15263 0.54997 0.77617 0.0
H810 H 0.14008 0.46845 0.82978 0.0
H811 H 0.09682 0.47133 0.76442 0.0
C812 C 0.21531 0.48185 0.90249 0.0
C813 C 0.22596 0.50333 0.94911 0.0
C814 C 0.19167 0.48393 0.85501 0.0
C815 C 0.17733 0.50749 0.8539 0.0
C816 C 0.18857 0.52923 0.89861 0.0
C817 C 0.21244 0.52717 0.94518 0.0
C818 C 0.11519 0.53438 0.74073 0.0
C819 C 0.09838 0.51264 0.73802 0.0
C820 C 0.14066 0.53263 0.77601 0.0
C821 C 0.15046 0.50905 0.81033 0.0
C822 C 0.13388 0.48708 0.80438 0.0
C823 C 0.10854 0.4888 0.76812 0.0
H824 H 0.96139 0.84505 0.34778 0.0
H825 H 0.04288 0.82497 0.36367 0.0
H826 H 0.96955 0.88557 0.42842 0.0
H827 H 0.05102 0.86519 0.44925 0.0
H828 H 0.06382 0.95288 0.5038 0.0
H829 H 0.0556 0.91005 0.43769 0.0
H830 H 0.97878 0.91017 0.55571 0.0
H831 H 0.98713 0.9536 0.62003 0.0
C832 C 0.98113 0.84902 0.36966 0.0
C833 C 1.00148 0.83144 0.34725 0.0
C834 C 0.98582 0.87246 0.41725 0.0
C835 C 1.0111 0.87947 0.44568 0.0
C836 C 0.0313 0.86122 0.42739 0.0
C837 C 0.02658 0.8377 0.3792 0.0
C838 C 0.04506 0.94384 0.51516 0.0
C839 C 0.02587 0.95729 0.56494 0.0
C840 C 0.04038 0.91891 0.47785 0.0
C841 C 0.01638 0.90599 0.48997 0.0
C842 C 0.99736 0.91925 0.54233 0.0
C843 C 1.00207 0.94437 0.57942 0.0
H844 H 0.72174 0.98298 0.48164 0.0
H845 H 0.69522 0.02982 0.26389 0.0
H846 H 0.68079 0.99211 0.56182 0.0
H847 H 0.65454 0.03866 0.34163 0.0
H848 H 0.59155 0.06938 0.52113 0.0
H849 H 0.63449 0.06132 0.4579 0.0
H850 H 0.63439 0.98398 0.56772 0.0
H851 H 0.59141 0.99281 0.63463 0.0
C852 C 0.70745 0.99576 0.45192 0.0
C853 C 0.71208 1.00614 0.36707 0.0
C854 C 0.68372 1.00075 0.49731 0.0
C855 C 0.66401 0.01644 0.45937 0.0
C856 C 0.66912 0.02705 0.37498 0.0
C857 C 0.6926 0.02198 0.32991 0.0
C858 C 0.60061 0.05058 0.53151 0.0
C859 C 0.5875 0.03143 0.5802 0.0
C860 C 0.62534 0.04582 0.49467 0.0
C861 C 0.63813 0.0217 0.5053 0.0
C862 C 0.62541 1.0028 0.55735 0.0
C863 C 0.60051 1.00766 0.59471 0.0
H864 H 0.51254 0.70759 0.2983 0.0
H865 H 0.57116 0.7343 0.48338 0.0
H866 H 0.50593 0.66856 0.3858 0.0
H867 H 0.56443 0.69508 0.573 0.0
H868 H 0.5694 0.60513 0.62924 0.0
H869 H 0.57317 0.64854 0.56575 0.0
H870 H 0.49011 0.64965 0.51921 0.0
H871 H 0.48658 0.60607 0.57997 0.0
C872 C 0.52352 0.70542 0.35943 0.0
C873 C 0.54211 0.7243 0.38437 0.0
C874 C 0.51975 0.68293 0.40996 0.0
C875 C 0.53462 0.67831 0.48714 0.0
C876 C 0.55272 0.69767 0.51376 0.0
C877 C 0.55636 0.7204 0.46315 0.0
C878 C 0.5519 0.61465 0.6057 0.0
C879 C 0.52775 0.60159 0.60818 0.0
C880 C 0.55403 0.63979 0.5699 0.0
C881 C 0.53202 0.65279 0.5356 0.0
C882 C 0.50767 0.64024 0.5428 0.0
C883 C 0.50556 0.61515 0.57865 0.0
H884 H 0.84804 0.53387 0.23357 0.0
H885 H 0.79999 0.54603 0.46664 0.0
H886 H 0.8867 0.53151 0.32715 0.0
H887 H 0.83929 0.54242 0.56131 0.0
H888 H 0.92948 0.49515 0.62391 0.0
H889 H 0.88641 0.49741 0.55306 0.0
H890 H 0.90228 0.57591 0.47209 0.0
H891 H 0.94478 0.57425 0.5461 0.0
C892 C 0.84555 0.53603 0.30492 0.0
C893 C 0.82053 0.54081 0.34157 0.0
C894 C 0.8679 0.53449 0.35866 0.0
C895 C 0.86624 0.53703 0.45162 0.0
C896 C 0.84126 0.54048 0.4897 0.0
C897 C 0.81869 0.54239 0.43537 0.0
C898 C 0.92384 0.51306 0.59199 0.0
C899 C 0.94143 0.53419 0.58837 0.0
C900 C 0.89896 0.51435 0.55167 0.0
C901 C 0.89088 0.53679 0.50635 0.0
C902 C 0.90788 0.55829 0.50607 0.0
C903 C 0.93252 0.55716 0.54759 0.0
loop_
_geom_bond_atom_site_label_1
_geom_bond_atom_site_label_2
_geom_bond_distance
_geom_bond_site_symmetry_2
_ccdc_geom_bond_type
H0 C3 0.929 . S
H1 C6 0.929 . S
H2 C8 0.930 . S
C3 H0 0.929 . S
C3 C4 1.398 . S
C3 C5 1.396 . S
C4 C3 1.398 . S
C4 C8 1.407 . S
C5 C3 1.396 . S
C5 C6 1.394 . S
C6 H1 0.929 . S
C6 C5 1.394 . S
C6 C7 1.382 . S
C7 C6 1.382 . S
C7 C8 1.392 . S
C7 N9 1.420 . S
C8 H2 0.930 . S
C8 C4 1.407 . S
C8 C7 1.392 . S
N9 C7 1.420 . S
N9 C10 1.244 . S
C10 N9 1.244 . S
H11 C14 0.929 . S
H12 C17 0.929 . S
H13 C19 0.930 . S
C14 H11 0.929 . S
C14 C15 1.398 . S
C14 C16 1.396 . S
C15 C14 1.398 . S
C15 C19 1.407 . S
C16 C14 1.396 . S
C16 C17 1.394 . S
C17 H12 0.929 . S
C17 C16 1.394 . S
C17 C18 1.382 . S
C18 C17 1.382 . S
C18 C19 1.392 . S
C18 N20 1.420 . S
C19 H13 0.930 . S
C19 C15 1.407 . S
C19 C18 1.392 . S
N20 C18 1.420 . S
N20 C21 1.244 . S
C21 N20 1.244 . S
H22 C25 0.929 . S
H23 C28 0.929 . S
H24 C30 0.930 . S
C25 H22 0.929 . S
C25 C26 1.398 . S
C25 C27 1.396 . S
C26 C25 1.398 . S
C26 C30 1.407 . S
C27 C25 1.396 . S
C27 C28 1.394 . S
C28 H23 0.929 . S
C28 C27 1.394 . S
C28 C29 1.382 . S
C29 C28 1.382 . S
C29 C30 1.392 . S
C29 N31 1.420 . S
C30 H24 0.930 . S
C30 C26 1.407 . S
C30 C29 1.392 . S
N31 C29 1.420 . S
N31 C32 1.244 . S
C32 N31 1.244 . S
H33 C36 0.929 . S
H34 C39 0.929 . S
H35 C41 0.930 . S
C36 H33 0.929 . S
C36 C37 1.398 . S
C36 C38 1.396 . S
C37 C36 1.398 . S
C37 C41 1.407 . S
C38 C36 1.396 . S
C38 C39 1.394 . S
C39 H34 0.929 . S
C39 C38 1.394 . S
C39 C40 1.382 . S
C40 C39 1.382 . S
C40 C41 1.392 . S
C40 N42 1.420 . S
C41 H35 0.930 . S
C41 C37 1.407 . S
C41 C40 1.392 . S
N42 C40 1.420 . S
N42 C43 1.244 . S
C43 N42 1.244 . S
H44 C47 0.929 . S
H45 C50 0.929 . S
H46 C52 0.930 . S
C47 H44 0.929 . S
C47 C48 1.398 . S
C47 C49 1.396 1_556 S
C48 C47 1.398 . S
C48 C52 1.407 . S
C49 C47 1.396 1_554 S
C49 C50 1.394 . S
C50 H45 0.929 . S
C50 C49 1.394 . S
C50 C51 1.382 . S
C51 C50 1.382 . S
C51 C52 1.392 1_554 S
C51 N53 1.420 . S
C52 H46 0.930 . S
C52 C48 1.407 . S
C52 C51 1.392 1_556 S
N53 C51 1.420 . S
N53 C54 1.244 . S
C54 N53 1.244 . S
H55 C58 0.929 . S
H56 C61 0.929 . S
H57 C63 0.930 . S
C58 H55 0.929 . S
C58 C59 1.398 . S
C58 C60 1.396 1_556 S
C59 C58 1.398 . S
C59 C63 1.407 . S
C60 C58 1.396 1_554 S
C60 C61 1.394 . S
C61 H56 0.929 . S
C61 C60 1.394 . S
C61 C62 1.382 . S
C62 C61 1.382 . S
C62 C63 1.392 1_554 S
C62 N64 1.420 . S
C63 H57 0.930 . S
C63 C59 1.407 . S
C63 C62 1.392 1_556 S
N64 C62 1.420 . S
N64 C65 1.244 . S
C65 N64 1.244 . S
H66 C69 0.929 . S
H67 C72 0.929 . S
H68 C74 0.930 . S
C69 H66 0.929 . S
C69 C70 1.398 . S
C69 C71 1.396 1_556 S
C70 C69 1.398 . S
C70 C74 1.407 . S
C71 C69 1.396 1_554 S
C71 C72 1.394 . S
C72 H67 0.929 . S
C72 C71 1.394 . S
C72 C73 1.374 1_554 S
C73 C72 1.374 1_556 S
C73 C74 1.401 . S
C73 N75 1.420 1_556 S
C74 H68 0.930 . S
C74 C70 1.407 . S
C74 C73 1.401 . S
N75 C73 1.420 1_554 S
N75 C76 1.244 . S
C76 N75 1.244 . S
H77 C80 0.929 . S
H78 C83 0.929 . S
H79 C85 0.930 . S
C80 H77 0.929 . S
C80 C81 1.398 . S
C80 C82 1.396 1_556 S
C81 C80 1.398 . S
C81 C85 1.407 . S
C82 C80 1.396 1_554 S
C82 C83 1.394 . S
C83 H78 0.929 . S
C83 C82 1.394 . S
C83 C84 1.382 . S
C84 C83 1.382 . S
C84 C85 1.392 1_554 S
C84 N86 1.420 . S
C85 H79 0.930 . S
C85 C81 1.407 . S
C85 C84 1.392 1_556 S
N86 C84 1.420 . S
N86 C87 1.244 . S
C87 N86 1.244 . S
Tb88 N119 2.660 1_565 S
Tb88 N126 2.591 1_565 S
Tb88 O132 2.546 . S
Tb88 O133 2.610 1_455 S
Tb88 O135 2.320 1_455 S
Tb88 O136 2.552 . S
Tb88 O137 2.413 . S
Tb88 O139 2.362 1_565 S
Tb88 O140 2.421 . S
Tb88 C152 2.833 . S
C89 C92 1.432 1_545 S
C89 C93 1.410 1_545 S
C89 N96 1.359 . S
C90 C92 1.417 . S
C90 C94 1.432 . S
C90 C102 1.410 . S
C91 C93 1.456 . S
C91 C94 1.317 . S
C91 H114 0.929 . S
C92 C89 1.432 1_565 S
C92 C90 1.417 . S
C92 N100 1.366 . S
C93 C89 1.410 1_565 S
C93 C91 1.456 . S
C93 C98 1.376 1_565 S
C94 C90 1.432 . S
C94 C91 1.317 . S
C94 H106 0.930 . S
C95 C97 1.392 . S
C95 C98 1.370 . S
C95 H107 0.931 . S
N96 C89 1.359 . S
N96 C97 1.327 . S
N96 Tb99 2.600 . S
C97 C95 1.392 . S
C97 N96 1.327 . S
C97 H104 0.930 . S
C98 C93 1.376 1_545 S
C98 C95 1.370 . S
C98 H117 0.930 . S
Tb99 N96 2.600 . S
Tb99 N100 2.644 1_545 S
Tb99 O133 2.362 1_545 S
Tb99 O134 2.421 . S
Tb99 O138 2.546 . S
Tb99 O139 2.610 1_655 S
Tb99 O141 2.320 1_655 S
Tb99 O142 2.552 1_655 S
Tb99 O143 2.413 . S
Tb99 C163 2.833 . S
N100 C92 1.366 . S
N100 Tb99 2.644 1_565 S
N100 C101 1.316 1_655 S
C101 N100 1.316 1_455 S
C101 C103 1.407 . S
C101 H108 0.930 . S
C102 C90 1.410 . S
C102 C103 1.345 1_655 S
C102 H110 0.930 . S
C103 C101 1.407 . S
C103 C102 1.345 1_455 S
C103 H105 0.930 . S
H104 C97 0.930 . S
H105 C103 0.930 . S
H106 C94 0.930 . S
H107 C95 0.931 . S
H108 C101 0.930 . S
H109 C123 0.930 1_654 S
H110 C102 0.930 . S
H111 C129 0.930 . S
H112 C120 0.930 1_655 S
H113 C127 0.931 . S
H114 C91 0.929 . S
H115 C121 0.930 . S
H116 C154 0.930 . S
H117 C98 0.930 . S
H118 C153 0.929 . S
N119 Tb88 2.660 1_545 S
N119 C120 1.305 . S
N119 C124 1.360 . S
C120 H112 0.930 1_455 S
C120 N119 1.305 . S
C120 C123 1.407 . S
C121 H115 0.930 . S
C121 C122 1.410 1_554 S
C121 C123 1.345 1_554 S
C122 C121 1.410 1_556 S
C122 C124 1.416 . S
C122 C154 1.432 1_556 S
C123 H109 0.930 1_456 S
C123 C120 1.407 . S
C123 C121 1.345 1_556 S
C124 N119 1.360 . S
C124 C122 1.416 . S
C124 C128 1.432 . S
H125 C130 0.930 . S
N126 Tb88 2.591 1_545 S
N126 C128 1.379 . S
N126 C129 1.313 1_545 S
C127 H113 0.931 . S
C127 C129 1.392 . S
C127 C130 1.370 1_565 S
C128 C124 1.432 . S
C128 N126 1.379 . S
C128 C131 1.414 . S
C129 H111 0.930 . S
C129 N126 1.313 1_565 S
C129 C127 1.392 . S
C130 H125 0.930 . S
C130 C127 1.370 1_545 S
C130 C131 1.385 . S
C131 C128 1.414 . S
C131 C130 1.385 . S
C131 C153 1.444 1_556 S
O132 Tb88 2.546 . S
O132 C152 1.251 . S
O133 Tb88 2.610 1_655 S
O133 Tb99 2.362 1_565 S
O133 C144 1.283 . S
O134 Tb99 2.421 . S
O134 C151 1.262 . S
O135 Tb88 2.320 1_655 S
O135 C151 1.260 1_565 S
O136 Tb88 2.552 . S
O136 C144 1.243 1_455 S
O137 Tb88 2.413 . S
O137 C152 1.256 . S
O138 Tb99 2.546 . S
O138 C163 1.251 . S
O139 Tb88 2.362 1_545 S
O139 Tb99 2.610 1_455 S
O139 C155 1.283 . S
O140 Tb88 2.421 . S
O140 C162 1.262 1_565 S
O141 Tb99 2.320 1_455 S
O141 C162 1.260 . S
O142 Tb99 2.552 1_455 S
O142 C155 1.243 . S
O143 Tb99 2.413 . S
O143 C163 1.256 . S
C144 O133 1.283 . S
C144 O136 1.243 1_655 S
C145 C147 1.382 . S
C145 C149 1.393 . S
C145 C152 1.500 . S
C146 C147 1.400 . S
C146 C148 1.384 . S
C147 C145 1.382 . S
C147 C146 1.400 . S
C147 H164 0.948 . S
C148 C146 1.384 . S
C148 C150 1.392 . S
C148 H165 0.931 1_556 S
C149 C145 1.393 . S
C149 C150 1.401 . S
C149 H166 0.930 . S
C150 C148 1.392 . S
C150 C149 1.401 . S
C150 H167 0.930 . S
C151 O134 1.262 . S
C151 O135 1.260 1_545 S
C152 Tb88 2.833 . S
C152 O132 1.251 . S
C152 O137 1.256 . S
C152 C145 1.500 . S
C153 H118 0.929 . S
C153 C131 1.444 1_554 S
C153 C154 1.317 . S
C154 H116 0.930 . S
C154 C122 1.432 1_554 S
C154 C153 1.317 . S
C155 O139 1.283 . S
C155 O142 1.243 . S
C156 C157 1.382 . S
C156 C160 1.393 . S
C156 C163 1.500 . S
C157 C156 1.382 . S
C157 C158 1.400 . S
C157 H168 0.930 1_655 S
C158 C157 1.400 . S
C158 C159 1.384 . S
C159 C158 1.384 . S
C159 C161 1.392 . S
C159 H169 0.931 . S
C160 C156 1.393 . S
C160 C161 1.401 . S
C160 H170 0.930 . S
C161 C159 1.392 . S
C161 C160 1.401 . S
C161 H171 0.930 . S
C162 O140 1.262 1_545 S
C162 O141 1.260 . S
C163 Tb99 2.833 . S
C163 O138 1.251 . S
C163 O143 1.256 . S
C163 C156 1.500 . S
H164 C147 0.948 . S
H165 C148 0.931 1_554 S
H166 C149 0.930 . S
H167 C150 0.930 . S
H168 C157 0.930 1_455 S
H169 C159 0.931 . S
H170 C160 0.930 . S
H171 C161 0.930 . S
Tb172 N203 2.660 . S
Tb172 N210 2.600 . S
Tb172 O216 2.546 . S
Tb172 O217 2.610 1_545 S
Tb172 O219 2.320 1_545 S
Tb172 O220 2.552 . S
Tb172 O221 2.413 . S
Tb172 O223 2.362 . S
Tb172 O224 2.421 . S
Tb172 C236 2.833 . S
C173 C176 1.432 . S
C173 C177 1.414 . S
C173 N180 1.359 . S
C174 C176 1.417 . S
C174 C178 1.432 . S
C174 C186 1.410 . S
C175 C177 1.444 . S
C175 C178 1.317 . S
C175 H198 0.929 . S
C176 C173 1.432 . S
C176 C174 1.417 . S
C176 N184 1.360 . S
C177 C173 1.414 . S
C177 C175 1.444 . S
C177 C182 1.385 . S
C178 C174 1.432 . S
C178 C175 1.317 . S
C178 H190 0.930 . S
C179 C181 1.392 . S
C179 C182 1.370 . S
C179 H191 0.931 . S
N180 C173 1.359 . S
N180 C181 1.327 . S
N180 Tb183 2.600 . S
C181 C179 1.392 . S
C181 N180 1.327 . S
C181 H188 0.930 . S
C182 C177 1.385 . S
C182 C179 1.370 . S
C182 H201 0.930 . S
Tb183 N180 2.600 . S
Tb183 N184 2.660 . S
Tb183 O217 2.362 . S
Tb183 O218 2.421 . S
Tb183 O222 2.546 . S
Tb183 O223 2.610 1_565 S
Tb183 O225 2.320 1_565 S
Tb183 O226 2.552 1_565 S
Tb183 O227 2.413 . S
Tb183 C247 2.833 . S
N184 C176 1.360 . S
N184 Tb183 2.660 . S
N184 C185 1.305 1_565 S
C185 N184 1.305 1_545 S
C185 C187 1.407 . S
C185 H192 0.930 . S
C186 C174 1.410 . S
C186 C187 1.345 1_565 S
C186 H194 0.930 . S
C187 C185 1.407 . S
C187 C186 1.345 1_545 S
C187 H189 0.930 . S
H188 C181 0.930 . S
H189 C187 0.930 . S
H190 C178 0.930 . S
H191 C179 0.931 . S
H192 C185 0.930 . S
H193 C207 0.930 1_564 S
H194 C186 0.930 . S
H195 C213 0.930 . S
H196 C204 0.930 1_565 S
H197 C211 0.931 . S
H198 C175 0.929 . S
H199 C205 0.930 . S
H200 C238 0.930 . S
H201 C182 0.930 . S
H202 C237 0.929 . S
N203 Tb172 2.660 . S
N203 C204 1.305 . S
N203 C208 1.360 . S
C204 H196 0.930 1_545 S
C204 N203 1.305 . S
C204 C207 1.407 . S
C205 H199 0.930 . S
C205 C206 1.414 . S
C205 C207 1.345 1_554 S
C206 C205 1.414 . S
C206 C208 1.407 1_554 S
C206 C238 1.437 . S
C207 H193 0.930 1_546 S
C207 C204 1.407 . S
C207 C205 1.345 1_556 S
C208 N203 1.360 . S
C208 C206 1.407 1_556 S
C208 C212 1.432 . S
H209 C214 0.930 . S
N210 Tb172 2.600 . S
N210 C212 1.359 . S
N210 C213 1.327 . S
C211 H197 0.931 . S
C211 C213 1.392 . S
C211 C214 1.370 . S
C212 C208 1.432 . S
C212 N210 1.359 . S
C212 C215 1.414 . S
C213 H195 0.930 . S
C213 N210 1.327 . S
C213 C211 1.392 . S
C214 H209 0.930 . S
C214 C211 1.370 . S
C214 C215 1.385 . S
C215 C212 1.414 . S
C215 C214 1.385 . S
C215 C237 1.444 1_556 S
O216 Tb172 2.546 . S
O216 C236 1.251 . S
O217 Tb172 2.610 1_565 S
O217 Tb183 2.362 . S
O217 C228 1.283 . S
O218 Tb183 2.421 . S
O218 C235 1.262 . S
O219 Tb172 2.320 1_565 S
O219 C235 1.260 . S
O220 Tb172 2.552 . S
O220 C228 1.243 1_545 S
O221 Tb172 2.413 . S
O221 C236 1.256 . S
O222 Tb183 2.546 . S
O222 C247 1.251 . S
O223 Tb172 2.362 . S
O223 Tb183 2.610 1_545 S
O223 C239 1.283 . S
O224 Tb172 2.421 . S
O224 C246 1.262 . S
O225 Tb183 2.320 1_545 S
O225 C246 1.260 . S
O226 Tb183 2.552 1_545 S
O226 C239 1.243 . S
O227 Tb183 2.413 . S
O227 C247 1.256 . S
C228 O217 1.283 . S
C228 O220 1.243 1_565 S
C229 C231 1.382 . S
C229 C233 1.393 . S
C229 C236 1.500 . S
C230 C231 1.400 . S
C230 C232 1.384 . S
C231 C229 1.382 . S
C231 C230 1.400 . S
C231 H248 0.930 . S
C232 C230 1.384 . S
C232 C234 1.392 . S
C232 H249 0.931 1_556 S
C233 C229 1.393 . S
C233 C234 1.401 . S
C233 H250 0.930 . S
C234 C232 1.392 . S
C234 C233 1.401 . S
C234 H251 0.930 . S
C235 O218 1.262 . S
C235 O219 1.260 . S
C236 Tb172 2.833 . S
C236 O216 1.251 . S
C236 O221 1.256 . S
C236 C229 1.500 . S
C237 H202 0.929 . S
C237 C215 1.444 1_554 S
C237 C238 1.317 . S
C238 H200 0.930 . S
C238 C206 1.437 . S
C238 C237 1.317 . S
C239 O223 1.283 . S
C239 O226 1.243 . S
C240 C241 1.382 . S
C240 C244 1.393 . S
C240 C247 1.500 . S
C241 C240 1.382 . S
C241 C242 1.400 . S
C241 H252 0.930 1_565 S
C242 C241 1.400 . S
C242 C243 1.384 . S
C243 C242 1.384 . S
C243 C245 1.392 . S
C243 H253 0.931 . S
C244 C240 1.393 . S
C244 C245 1.401 . S
C244 H254 0.930 . S
C245 C243 1.392 . S
C245 C244 1.401 . S
C245 H255 0.930 . S
C246 O224 1.262 . S
C246 O225 1.260 . S
C247 Tb183 2.833 . S
C247 O222 1.251 . S
C247 O227 1.256 . S
C247 C240 1.500 . S
H248 C231 0.930 . S
H249 C232 0.931 1_554 S
H250 C233 0.930 . S
H251 C234 0.930 . S
H252 C241 0.930 1_545 S
H253 C243 0.931 . S
H254 C244 0.930 . S
H255 C245 0.930 . S
Tb256 N287 2.660 . S
Tb256 N294 2.600 . S
Tb256 O300 2.546 . S
Tb256 O301 2.610 . S
Tb256 O303 2.320 . S
Tb256 O304 2.552 . S
Tb256 O305 2.413 . S
Tb256 O307 2.362 . S
Tb256 O308 2.421 . S
Tb256 C320 2.833 . S
C257 C260 1.432 . S
C257 C261 1.414 . S
C257 N264 1.359 . S
C258 C260 1.417 . S
C258 C262 1.432 . S
C258 C270 1.410 . S
C259 C261 1.444 . S
C259 C262 1.317 . S
C259 H282 0.929 . S
C260 C257 1.432 . S
C260 C258 1.417 . S
C260 N268 1.360 . S
C261 C257 1.414 . S
C261 C259 1.444 . S
C261 C266 1.385 . S
C262 C258 1.432 . S
C262 C259 1.317 . S
C262 H274 0.930 . S
C263 C265 1.392 . S
C263 C266 1.370 . S
C263 H275 0.931 . S
N264 C257 1.359 . S
N264 C265 1.327 . S
N264 Tb267 2.600 . S
C265 C263 1.392 . S
C265 N264 1.327 . S
C265 H272 0.930 . S
C266 C261 1.385 . S
C266 C263 1.370 . S
C266 H285 0.930 . S
Tb267 N264 2.600 . S
Tb267 N268 2.660 . S
Tb267 O301 2.362 . S
Tb267 O302 2.421 . S
Tb267 O306 2.546 . S
Tb267 O307 2.610 . S
Tb267 O309 2.320 . S
Tb267 O310 2.552 . S
Tb267 O311 2.413 . S
Tb267 C331 2.833 . S
N268 C260 1.360 . S
N268 Tb267 2.660 . S
N268 C269 1.305 . S
C269 N268 1.305 . S
C269 C271 1.407 . S
C269 H276 0.930 . S
C270 C258 1.410 . S
C270 C271 1.345 . S
C270 H278 0.930 . S
C271 C269 1.407 . S
C271 C270 1.345 . S
C271 H273 0.930 . S
H272 C265 0.930 . S
H273 C271 0.930 . S
H274 C262 0.930 . S
H275 C263 0.931 . S
H276 C269 0.930 . S
H277 C291 0.930 . S
H278 C270 0.930 . S
H279 C297 0.930 . S
H280 C288 0.930 . S
H281 C295 0.931 . S
H282 C259 0.929 . S
H283 C289 0.930 . S
H284 C322 0.930 . S
H285 C266 0.930 . S
H286 C321 0.929 . S
N287 Tb256 2.660 . S
N287 C288 1.305 . S
N287 C292 1.360 . S
C288 H280 0.930 . S
C288 N287 1.305 . S
C288 C291 1.407 . S
C289 H283 0.930 . S
C289 C290 1.410 . S
C289 C291 1.345 . S
C290 C289 1.410 . S
C290 C292 1.417 . S
C290 C322 1.432 . S
C291 H277 0.930 . S
C291 C288 1.407 . S
C291 C289 1.345 . S
C292 N287 1.360 . S
C292 C290 1.417 . S
C292 C296 1.432 . S
H293 C298 0.930 . S
N294 Tb256 2.600 . S
N294 C296 1.359 . S
N294 C297 1.327 . S
C295 H281 0.931 . S
C295 C297 1.392 . S
C295 C298 1.370 . S
C296 C292 1.432 . S
C296 N294 1.359 . S
C296 C299 1.414 . S
C297 H279 0.930 . S
C297 N294 1.327 . S
C297 C295 1.392 . S
C298 H293 0.930 . S
C298 C295 1.370 . S
C298 C299 1.385 . S
C299 C296 1.414 . S
C299 C298 1.385 . S
C299 C321 1.444 . S
O300 Tb256 2.546 . S
O300 C320 1.251 . S
O301 Tb256 2.610 . S
O301 Tb267 2.362 . S
O301 C312 1.283 . S
O302 Tb267 2.421 . S
O302 C319 1.262 . S
O303 Tb256 2.320 . S
O303 C319 1.260 . S
O304 Tb256 2.552 . S
O304 C312 1.243 . S
O305 Tb256 2.413 . S
O305 C320 1.256 . S
O306 Tb267 2.546 . S
O306 C331 1.251 . S
O307 Tb256 2.362 . S
O307 Tb267 2.610 . S
O307 C323 1.283 . S
O308 Tb256 2.421 . S
O308 C330 1.262 . S
O309 Tb267 2.320 . S
O309 C330 1.260 . S
O310 Tb267 2.552 . S
O310 C323 1.243 . S
O311 Tb267 2.413 . S
O311 C331 1.256 . S
C312 O301 1.283 . S
C312 O304 1.243 . S
C313 C315 1.382 . S
C313 C317 1.393 . S
C313 C320 1.500 . S
C314 C315 1.400 . S
C314 C316 1.384 . S
C315 C313 1.382 . S
C315 C314 1.400 . S
C315 H332 0.930 . S
C316 C314 1.384 . S
C316 C318 1.392 . S
C316 H333 0.931 . S
C317 C313 1.393 . S
C317 C318 1.401 . S
C317 H334 0.930 . S
C318 C316 1.392 . S
C318 C317 1.401 . S
C318 H335 0.930 . S
C319 O302 1.262 . S
C319 O303 1.260 . S
C320 Tb256 2.833 . S
C320 O300 1.251 . S
C320 O305 1.256 . S
C320 C313 1.500 . S
C321 H286 0.929 . S
C321 C299 1.444 . S
C321 C322 1.317 . S
C322 H284 0.930 . S
C322 C290 1.432 . S
C322 C321 1.317 . S
C323 O307 1.283 . S
C323 O310 1.243 . S
C324 C325 1.382 . S
C324 C328 1.393 1_556 S
C324 C331 1.500 . S
C325 C324 1.382 . S
C325 C326 1.400 1_556 S
C325 H336 0.930 . S
C326 C325 1.400 1_554 S
C326 C327 1.384 . S
C327 C326 1.384 . S
C327 C329 1.392 . S
C327 H337 0.931 . S
C328 C324 1.393 1_554 S
C328 C329 1.401 . S
C328 H338 0.930 . S
C329 C327 1.392 . S
C329 C328 1.401 . S
C329 H339 0.930 . S
C330 O308 1.262 . S
C330 O309 1.260 . S
C331 Tb267 2.833 . S
C331 O306 1.251 . S
C331 O311 1.256 . S
C331 C324 1.500 . S
H332 C315 0.930 . S
H333 C316 0.931 . S
H334 C317 0.930 . S
H335 C318 0.930 . S
H336 C325 0.930 . S
H337 C327 0.931 . S
H338 C328 0.930 . S
H339 C329 0.930 . S
Tb340 N371 2.660 . S
Tb340 N378 2.600 . S
Tb340 O384 2.546 . S
Tb340 O385 2.610 . S
Tb340 O387 2.320 . S
Tb340 O388 2.552 . S
Tb340 O389 2.413 . S
Tb340 O391 2.362 . S
Tb340 O392 2.421 1_455 S
Tb340 C404 2.833 . S
C341 C344 1.432 . S
C341 C345 1.414 . S
C341 N348 1.359 . S
C342 C344 1.417 . S
C342 C346 1.432 . S
C342 C354 1.410 . S
C343 C345 1.444 . S
C343 C346 1.317 . S
C343 H366 0.929 . S
C344 C341 1.432 . S
C344 C342 1.417 . S
C344 N352 1.360 . S
C345 C341 1.414 . S
C345 C343 1.444 . S
C345 C350 1.385 1_655 S
C346 C342 1.432 . S
C346 C343 1.317 . S
C346 H358 0.930 . S
C347 C349 1.392 . S
C347 C350 1.370 . S
C347 H359 0.931 . S
N348 C341 1.359 . S
N348 C349 1.327 1_655 S
N348 Tb351 2.600 . S
C349 C347 1.392 . S
C349 N348 1.327 1_455 S
C349 H356 0.930 . S
C350 C345 1.385 1_455 S
C350 C347 1.370 . S
C350 H369 0.930 . S
Tb351 N348 2.600 . S
Tb351 N352 2.660 . S
Tb351 O385 2.362 1_655 S
Tb351 O386 2.421 1_655 S
Tb351 O390 2.546 . S
Tb351 O391 2.610 1_655 S
Tb351 O393 2.320 . S
Tb351 O394 2.552 . S
Tb351 O395 2.413 . S
Tb351 C415 2.833 . S
N352 C344 1.360 . S
N352 Tb351 2.660 . S
N352 C353 1.305 . S
C353 N352 1.305 . S
C353 C355 1.407 . S
C353 H360 0.930 . S
C354 C342 1.410 . S
C354 C355 1.345 . S
C354 H362 0.930 . S
C355 C353 1.407 . S
C355 C354 1.345 . S
C355 H357 0.930 . S
H356 C349 0.930 . S
H357 C355 0.930 . S
H358 C346 0.930 . S
H359 C347 0.931 . S
H360 C353 0.930 . S
H361 C375 0.930 . S
H362 C354 0.930 . S
H363 C381 0.921 1_655 S
H364 C372 0.930 . S
H365 C379 0.931 . S
H366 C343 0.929 . S
H367 C373 0.930 . S
H368 C406 0.930 . S
H369 C350 0.930 . S
H370 C405 0.929 . S
N371 Tb340 2.660 . S
N371 C372 1.305 . S
N371 C376 1.360 . S
C372 H364 0.930 . S
C372 N371 1.305 . S
C372 C375 1.407 . S
C373 H367 0.930 . S
C373 C374 1.410 . S
C373 C375 1.345 . S
C374 C373 1.410 . S
C374 C376 1.417 . S
C374 C406 1.432 . S
C375 H361 0.930 . S
C375 C372 1.407 . S
C375 C373 1.345 . S
C376 N371 1.360 . S
C376 C374 1.417 . S
C376 C380 1.432 . S
H377 C382 0.930 . S
N378 Tb340 2.600 . S
N378 C380 1.359 . S
N378 C381 1.338 . S
C379 H365 0.931 . S
C379 C381 1.390 1_655 S
C379 C382 1.370 1_655 S
C380 C376 1.432 . S
C380 N378 1.359 . S
C380 C383 1.414 . S
C381 H363 0.921 1_455 S
C381 N378 1.338 . S
C381 C379 1.390 1_455 S
C382 H377 0.930 . S
C382 C379 1.370 1_455 S
C382 C383 1.385 . S
C383 C380 1.414 . S
C383 C382 1.385 . S
C383 C405 1.444 . S
O384 Tb340 2.546 . S
O384 C404 1.251 . S
O385 Tb340 2.610 . S
O385 Tb351 2.362 1_455 S
O385 C396 1.283 . S
O386 Tb351 2.421 1_455 S
O386 C403 1.262 . S
O387 Tb340 2.320 . S
O387 C403 1.260 . S
O388 Tb340 2.552 . S
O388 C396 1.243 . S
O389 Tb340 2.413 . S
O389 C404 1.256 . S
O390 Tb351 2.546 . S
O390 C415 1.251 . S
O391 Tb340 2.362 . S
O391 Tb351 2.610 1_455 S
O391 C407 1.283 1_455 S
O392 Tb340 2.421 1_655 S
O392 C414 1.262 . S
O393 Tb351 2.320 . S
O393 C414 1.260 . S
O394 Tb351 2.552 . S
O394 C407 1.243 . S
O395 Tb351 2.413 . S
O395 C415 1.256 . S
C396 O385 1.283 . S
C396 O388 1.243 . S
C397 C399 1.382 . S
C397 C401 1.393 . S
C397 C404 1.500 . S
C398 C399 1.400 . S
C398 C400 1.384 . S
C399 C397 1.382 . S
C399 C398 1.400 . S
C399 H416 0.930 . S
C400 C398 1.384 . S
C400 C402 1.392 . S
C400 H417 0.931 . S
C401 C397 1.393 . S
C401 C402 1.401 . S
C401 H418 0.930 . S
C402 C400 1.392 . S
C402 C401 1.401 . S
C402 H419 0.930 . S
C403 O386 1.262 . S
C403 O387 1.260 . S
C404 Tb340 2.833 . S
C404 O384 1.251 . S
C404 O389 1.256 . S
C404 C397 1.500 . S
C405 H370 0.929 . S
C405 C383 1.444 . S
C405 C406 1.317 . S
C406 H368 0.930 . S
C406 C374 1.432 . S
C406 C405 1.317 . S
C407 O391 1.283 1_655 S
C407 O394 1.243 . S
C408 C409 1.382 . S
C408 C412 1.393 1_556 S
C408 C415 1.500 . S
C409 C408 1.382 . S
C409 C410 1.400 1_556 S
C409 H420 0.930 . S
C410 C409 1.400 1_554 S
C410 C411 1.384 . S
C411 C410 1.384 . S
C411 C413 1.392 . S
C411 H421 0.931 . S
C412 C408 1.393 1_554 S
C412 C413 1.401 . S
C412 H422 0.930 . S
C413 C411 1.392 . S
C413 C412 1.401 . S
C413 H423 0.930 . S
C414 O392 1.262 . S
C414 O393 1.260 . S
C415 Tb351 2.833 . S
C415 O390 1.251 . S
C415 O395 1.256 . S
C415 C408 1.500 . S
H416 C399 0.930 . S
H417 C400 0.931 . S
H418 C401 0.930 . S
H419 C402 0.930 . S
H420 C409 0.930 . S
H421 C411 0.931 . S
H422 C412 0.930 . S
H423 C413 0.930 . S
H424 C432 0.950 . S
H425 C437 0.950 . S
H426 C434 0.950 . S
H427 C436 0.950 . S
H428 C438 0.950 . S
H429 C440 0.950 . S
H430 C442 0.950 . S
H431 C443 0.950 . S
C432 H424 0.950 . S
C432 C433 1.386 . S
C432 C434 1.391 . S
C433 C432 1.386 . S
C433 C437 1.393 . S
C434 H426 0.950 . S
C434 C432 1.391 . S
C434 C435 1.400 . S
C435 C434 1.400 . S
C435 C436 1.398 . S
C435 C441 1.491 . S
C436 H427 0.950 . S
C436 C435 1.398 . S
C436 C437 1.391 . S
C437 H425 0.950 . S
C437 C433 1.393 . S
C437 C436 1.391 . S
C438 H428 0.950 . S
C438 C439 1.386 . S
C438 C440 1.391 . S
C439 C438 1.386 . S
C439 C443 1.393 . S
C440 H429 0.950 . S
C440 C438 1.391 . S
C440 C441 1.400 . S
C441 C435 1.491 . S
C441 C440 1.400 . S
C441 C442 1.398 . S
C442 H430 0.950 . S
C442 C441 1.398 . S
C442 C443 1.391 . S
C443 H431 0.950 . S
C443 C439 1.393 . S
C443 C442 1.391 . S
H444 C452 0.950 . S
H445 C457 0.950 . S
H446 C454 0.950 . S
H447 C456 0.950 . S
H448 C458 0.950 . S
H449 C460 0.950 . S
H450 C462 0.950 . S
H451 C463 0.950 . S
C452 H444 0.950 . S
C452 C453 1.386 . S
C452 C454 1.391 . S
C453 C452 1.386 . S
C453 C457 1.393 . S
C454 H446 0.950 . S
C454 C452 1.391 . S
C454 C455 1.400 . S
C455 C454 1.400 . S
C455 C456 1.398 . S
C455 C461 1.491 . S
C456 H447 0.950 . S
C456 C455 1.398 . S
C456 C457 1.391 . S
C457 H445 0.950 . S
C457 C453 1.393 . S
C457 C456 1.391 . S
C458 H448 0.950 . S
C458 C459 1.386 . S
C458 C460 1.391 . S
C459 C458 1.386 . S
C459 C463 1.393 . S
C460 H449 0.950 . S
C460 C458 1.391 . S
C460 C461 1.400 . S
C461 C455 1.491 . S
C461 C460 1.400 . S
C461 C462 1.398 . S
C462 H450 0.950 . S
C462 C461 1.398 . S
C462 C463 1.391 . S
C463 H451 0.950 . S
C463 C459 1.393 . S
C463 C462 1.391 . S
H464 C472 0.950 . S
H465 C477 0.950 . S
H466 C474 0.950 . S
H467 C476 0.950 . S
H468 C478 0.950 . S
H469 C480 0.950 . S
H470 C482 0.950 . S
H471 C483 0.950 . S
C472 H464 0.950 . S
C472 C473 1.386 . S
C472 C474 1.391 . S
C473 C472 1.386 . S
C473 C477 1.393 . S
C474 H466 0.950 . S
C474 C472 1.391 . S
C474 C475 1.400 . S
C475 C474 1.400 . S
C475 C476 1.398 . S
C475 C481 1.491 . S
C476 H467 0.950 . S
C476 C475 1.398 . S
C476 C477 1.391 . S
C477 H465 0.950 . S
C477 C473 1.393 . S
C477 C476 1.391 . S
C478 H468 0.950 . S
C478 C479 1.386 . S
C478 C480 1.391 . S
C479 C478 1.386 . S
C479 C483 1.393 . S
C480 H469 0.950 . S
C480 C478 1.391 . S
C480 C481 1.400 . S
C481 C475 1.491 . S
C481 C480 1.400 . S
C481 C482 1.398 . S
C482 H470 0.950 . S
C482 C481 1.398 . S
C482 C483 1.391 . S
C483 H471 0.950 . S
C483 C479 1.393 . S
C483 C482 1.391 . S
H484 C492 0.950 . S
H485 C497 0.950 . S
H486 C494 0.950 . S
H487 C496 0.950 . S
H488 C498 0.950 . S
H489 C500 0.950 . S
H490 C502 0.950 . S
H491 C503 0.950 . S
C492 H484 0.950 . S
C492 C493 1.386 . S
C492 C494 1.391 . S
C493 C492 1.386 . S
C493 C497 1.393 . S
C494 H486 0.950 . S
C494 C492 1.391 . S
C494 C495 1.400 . S
C495 C494 1.400 . S
C495 C496 1.398 . S
C495 C501 1.491 . S
C496 H487 0.950 . S
C496 C495 1.398 . S
C496 C497 1.391 . S
C497 H485 0.950 . S
C497 C493 1.393 . S
C497 C496 1.391 . S
C498 H488 0.950 . S
C498 C499 1.386 . S
C498 C500 1.391 . S
C499 C498 1.386 . S
C499 C503 1.393 . S
C500 H489 0.950 . S
C500 C498 1.391 . S
C500 C501 1.400 . S
C501 C495 1.491 . S
C501 C500 1.400 . S
C501 C502 1.398 . S
C502 H490 0.950 . S
C502 C501 1.398 . S
C502 C503 1.391 . S
C503 H491 0.950 . S
C503 C499 1.393 . S
C503 C502 1.391 . S
H504 C512 0.950 . S
H505 C517 0.950 1_545 S
H506 C514 0.950 . S
H507 C516 0.950 1_545 S
H508 C518 0.950 . S
H509 C520 0.950 . S
H510 C522 0.950 . S
H511 C523 0.950 . S
C512 H504 0.950 . S
C512 C513 1.386 . S
C512 C514 1.391 . S
C513 C512 1.386 . S
C513 C517 1.393 . S
C514 H506 0.950 . S
C514 C512 1.391 . S
C514 C515 1.400 . S
C515 C514 1.400 . S
C515 C516 1.398 . S
C515 C521 1.491 1_554 S
C516 H507 0.950 1_565 S
C516 C515 1.398 . S
C516 C517 1.391 . S
C517 H505 0.950 1_565 S
C517 C513 1.393 . S
C517 C516 1.391 . S
C518 H508 0.950 . S
C518 C519 1.386 1_545 S
C518 C520 1.391 . S
C519 C518 1.386 1_565 S
C519 C523 1.393 . S
C520 H509 0.950 . S
C520 C518 1.391 . S
C520 C521 1.400 1_545 S
C521 C515 1.491 1_556 S
C521 C520 1.400 1_565 S
C521 C522 1.398 . S
C522 H510 0.950 . S
C522 C521 1.398 . S
C522 C523 1.391 . S
C523 H511 0.950 . S
C523 C519 1.393 . S
C523 C522 1.391 . S
H524 C532 0.950 . S
H525 C537 0.950 . S
H526 C534 0.950 1_556 S
H527 C536 0.950 . S
H528 C538 0.950 . S
H529 C540 0.950 1_554 S
H530 C542 0.950 . S
H531 C543 0.950 . S
C532 H524 0.950 . S
C532 C533 1.386 . S
C532 C534 1.391 . S
C533 C532 1.386 . S
C533 C537 1.393 . S
C534 H526 0.950 1_554 S
C534 C532 1.391 . S
C534 C535 1.400 . S
C535 C534 1.400 . S
C535 C536 1.398 . S
C535 C541 1.491 1_554 S
C536 H527 0.950 . S
C536 C535 1.398 . S
C536 C537 1.391 . S
C537 H525 0.950 . S
C537 C533 1.393 . S
C537 C536 1.391 . S
C538 H528 0.950 . S
C538 C539 1.386 . S
C538 C540 1.391 . S
C539 C538 1.386 . S
C539 C543 1.393 . S
C540 H529 0.950 1_556 S
C540 C538 1.391 . S
C540 C541 1.400 . S
C541 C535 1.491 1_556 S
C541 C540 1.400 . S
C541 C542 1.398 . S
C542 H530 0.950 . S
C542 C541 1.398 . S
C542 C543 1.391 . S
C543 H531 0.950 . S
C543 C539 1.393 . S
C543 C542 1.391 . S
H544 C552 0.950 . S
H545 C557 0.950 . S
H546 C554 0.950 . S
H547 C556 0.950 . S
H548 C558 0.950 . S
H549 C560 0.950 . S
H550 C562 0.950 . S
H551 C563 0.950 . S
C552 H544 0.950 . S
C552 C553 1.386 . S
C552 C554 1.391 . S
C553 C552 1.386 . S
C553 C557 1.393 . S
C554 H546 0.950 . S
C554 C552 1.391 . S
C554 C555 1.400 . S
C555 C554 1.400 . S
C555 C556 1.398 . S
C555 C561 1.491 1_554 S
C556 H547 0.950 . S
C556 C555 1.398 . S
C556 C557 1.391 . S
C557 H545 0.950 . S
C557 C553 1.393 . S
C557 C556 1.391 . S
C558 H548 0.950 . S
C558 C559 1.386 . S
C558 C560 1.391 . S
C559 C558 1.386 . S
C559 C563 1.393 . S
C560 H549 0.950 . S
C560 C558 1.391 . S
C560 C561 1.400 . S
C561 C555 1.491 1_556 S
C561 C560 1.400 . S
C561 C562 1.398 . S
C562 H550 0.950 . S
C562 C561 1.398 . S
C562 C563 1.391 . S
C563 H551 0.950 . S
C563 C559 1.393 . S
C563 C562 1.391 . S
H564 C572 0.950 . S
H565 C577 0.950 . S
H566 C574 0.950 1_556 S
H567 C576 0.950 . S
H568 C578 0.950 . S
H569 C580 0.950 1_554 S
H570 C582 0.950 . S
H571 C583 0.958 . S
C572 H564 0.950 . S
C572 C573 1.386 . S
C572 C574 1.391 . S
C573 C572 1.386 . S
C573 C577 1.393 . S
C574 H566 0.950 1_554 S
C574 C572 1.391 . S
C574 C575 1.400 . S
C575 C574 1.400 . S
C575 C576 1.398 . S
C575 C581 1.491 1_554 S
C576 H567 0.950 . S
C576 C575 1.398 . S
C576 C577 1.391 . S
C577 H565 0.950 . S
C577 C573 1.393 . S
C577 C576 1.391 . S
C578 H568 0.950 . S
C578 C579 1.386 . S
C578 C580 1.391 . S
C579 C578 1.386 . S
C579 C583 1.393 . S
C580 H569 0.950 1_556 S
C580 C578 1.391 . S
C580 C581 1.400 . S
C581 C575 1.491 1_556 S
C581 C580 1.400 . S
C581 C582 1.398 . S
C582 H570 0.950 . S
C582 C581 1.398 . S
C582 C583 1.391 . S
C583 H571 0.958 . S
C583 C579 1.393 . S
C583 C582 1.391 . S
H584 C592 0.950 . S
H585 C597 0.950 1_556 S
H586 C594 0.950 . S
H587 C596 0.950 . S
H588 C598 0.950 1_655 S
H589 C600 0.950 . S
H590 C602 0.950 . S
H591 C603 0.950 . S
C592 H584 0.950 . S
C592 C593 1.386 . S
C592 C594 1.391 . S
C593 C592 1.386 . S
C593 C597 1.393 . S
C594 H586 0.950 . S
C594 C592 1.391 . S
C594 C595 1.400 . S
C595 C594 1.400 . S
C595 C596 1.398 . S
C595 C601 1.491 . S
C596 H587 0.950 . S
C596 C595 1.398 . S
C596 C597 1.391 . S
C597 H585 0.950 1_554 S
C597 C593 1.393 . S
C597 C596 1.391 . S
C598 H588 0.950 1_455 S
C598 C599 1.386 . S
C598 C600 1.391 . S
C599 C598 1.386 . S
C599 C603 1.393 . S
C600 H589 0.950 . S
C600 C598 1.391 . S
C600 C601 1.400 . S
C601 C595 1.491 . S
C601 C600 1.400 . S
C601 C602 1.398 . S
C602 H590 0.950 . S
C602 C601 1.398 . S
C602 C603 1.391 . S
C603 H591 0.950 . S
C603 C599 1.393 . S
C603 C602 1.391 . S
H604 C612 0.950 1_556 S
H605 C617 0.950 . S
H606 C614 0.950 . S
H607 C616 0.950 . S
H608 C618 0.950 . S
H609 C620 0.950 . S
H610 C622 0.950 . S
H611 C623 0.950 . S
C612 H604 0.950 1_554 S
C612 C613 1.386 . S
C612 C614 1.391 . S
C613 C612 1.386 . S
C613 C617 1.393 . S
C614 H606 0.950 . S
C614 C612 1.391 . S
C614 C615 1.400 . S
C615 C614 1.400 . S
C615 C616 1.398 . S
C615 C621 1.491 . S
C616 H607 0.950 . S
C616 C615 1.398 . S
C616 C617 1.391 . S
C617 H605 0.950 . S
C617 C613 1.393 . S
C617 C616 1.391 . S
C618 H608 0.950 . S
C618 C619 1.386 . S
C618 C620 1.391 . S
C619 C618 1.386 . S
C619 C623 1.393 1_545 S
C620 H609 0.950 . S
C620 C618 1.391 . S
C620 C621 1.400 . S
C621 C615 1.491 . S
C621 C620 1.400 . S
C621 C622 1.398 . S
C622 H610 0.950 . S
C622 C621 1.398 . S
C622 C623 1.391 1_545 S
C623 H611 0.950 . S
C623 C619 1.393 1_565 S
C623 C622 1.391 1_565 S
H624 C632 0.950 . S
H625 C637 0.950 . S
H626 C634 0.950 . S
H627 C636 0.950 . S
H628 C638 0.950 . S
H629 C640 0.950 . S
H630 C642 0.950 . S
H631 C643 0.950 . S
C632 H624 0.950 . S
C632 C633 1.386 . S
C632 C634 1.391 . S
C633 C632 1.386 . S
C633 C637 1.393 . S
C634 H626 0.950 . S
C634 C632 1.391 . S
C634 C635 1.400 . S
C635 C634 1.400 . S
C635 C636 1.398 . S
C635 C641 1.491 . S
C636 H627 0.950 . S
C636 C635 1.398 . S
C636 C637 1.391 . S
C637 H625 0.950 . S
C637 C633 1.393 . S
C637 C636 1.391 . S
C638 H628 0.950 . S
C638 C639 1.386 . S
C638 C640 1.391 . S
C639 C638 1.386 . S
C639 C643 1.393 . S
C640 H629 0.950 . S
C640 C638 1.391 . S
C640 C641 1.400 . S
C641 C635 1.491 . S
C641 C640 1.400 . S
C641 C642 1.398 . S
C642 H630 0.950 . S
C642 C641 1.398 . S
C642 C643 1.391 . S
C643 H631 0.950 . S
C643 C639 1.393 . S
C643 C642 1.391 . S
H644 C652 0.950 . S
H645 C657 0.950 . S
H646 C654 0.950 . S
H647 C656 0.950 . S
H648 C658 0.950 . S
H649 C660 0.950 . S
H650 C662 0.950 . S
H651 C663 0.950 . S
C652 H644 0.950 . S
C652 C653 1.386 . S
C652 C654 1.391 . S
C653 C652 1.386 . S
C653 C657 1.393 . S
C654 H646 0.950 . S
C654 C652 1.391 . S
C654 C655 1.400 . S
C655 C654 1.400 . S
C655 C656 1.398 . S
C655 C661 1.491 . S
C656 H647 0.950 . S
C656 C655 1.398 . S
C656 C657 1.391 . S
C657 H645 0.950 . S
C657 C653 1.393 . S
C657 C656 1.391 . S
C658 H648 0.950 . S
C658 C659 1.386 . S
C658 C660 1.391 . S
C659 C658 1.386 . S
C659 C663 1.393 . S
C660 H649 0.950 . S
C660 C658 1.391 . S
C660 C661 1.400 . S
C661 C655 1.491 . S
C661 C660 1.400 . S
C661 C662 1.398 . S
C662 H650 0.950 . S
C662 C661 1.398 . S
C662 C663 1.391 . S
C663 H651 0.950 . S
C663 C659 1.393 . S
C663 C662 1.391 . S
H664 C672 0.950 . S
H665 C677 0.950 . S
H666 C674 0.950 . S
H667 C676 0.950 1_455 S
H668 C678 0.950 1_556 S
H669 C680 0.950 . S
H670 C682 0.950 . S
H671 C683 0.950 . S
C672 H664 0.950 . S
C672 C673 1.386 . S
C672 C674 1.391 . S
C673 C672 1.386 . S
C673 C677 1.393 . S
C674 H666 0.950 . S
C674 C672 1.391 . S
C674 C675 1.400 . S
C675 C674 1.400 . S
C675 C676 1.398 . S
C675 C681 1.491 . S
C676 H667 0.950 1_655 S
C676 C675 1.398 . S
C676 C677 1.391 . S
C677 H665 0.950 . S
C677 C673 1.393 . S
C677 C676 1.391 . S
C678 H668 0.950 1_554 S
C678 C679 1.386 1_554 S
C678 C680 1.391 . S
C679 C678 1.386 1_556 S
C679 C683 1.393 1_455 S
C680 H669 0.950 . S
C680 C678 1.391 . S
C680 C681 1.400 1_455 S
C681 C675 1.491 . S
C681 C680 1.400 1_655 S
C681 C682 1.398 . S
C682 H670 0.950 . S
C682 C681 1.398 . S
C682 C683 1.391 1_554 S
C683 H671 0.950 . S
C683 C679 1.393 1_655 S
C683 C682 1.391 1_556 S
H684 C692 0.950 . S
H685 C697 0.950 . S
H686 C694 0.950 . S
H687 C696 0.950 . S
H688 C698 0.950 . S
H689 C700 0.950 . S
H690 C702 0.950 . S
H691 C703 0.950 . S
C692 H684 0.950 . S
C692 C693 1.386 . S
C692 C694 1.391 . S
C693 C692 1.386 . S
C693 C697 1.393 . S
C694 H686 0.950 . S
C694 C692 1.391 . S
C694 C695 1.400 . S
C695 C694 1.400 . S
C695 C696 1.398 . S
C695 C701 1.491 . S
C696 H687 0.950 . S
C696 C695 1.398 . S
C696 C697 1.391 . S
C697 H685 0.950 . S
C697 C693 1.393 . S
C697 C696 1.391 . S
C698 H688 0.950 . S
C698 C699 1.386 1_554 S
C698 C700 1.391 1_545 S
C699 C698 1.386 1_556 S
C699 C703 1.393 . S
C700 H689 0.950 . S
C700 C698 1.391 1_565 S
C700 C701 1.400 . S
C701 C695 1.491 . S
C701 C700 1.400 . S
C701 C702 1.398 1_564 S
C702 H690 0.950 . S
C702 C701 1.398 1_546 S
C702 C703 1.391 . S
C703 H691 0.950 . S
C703 C699 1.393 . S
C703 C702 1.391 . S
H704 C712 0.950 . S
H705 C717 0.950 . S
H706 C714 0.950 . S
H707 C716 0.950 . S
H708 C718 0.950 . S
H709 C720 0.950 . S
H710 C722 0.950 . S
H711 C723 0.950 . S
C712 H704 0.950 . S
C712 C713 1.386 . S
C712 C714 1.391 . S
C713 C712 1.386 . S
C713 C717 1.393 . S
C714 H706 0.950 . S
C714 C712 1.391 . S
C714 C715 1.400 . S
C715 C714 1.400 . S
C715 C716 1.398 . S
C715 C721 1.491 . S
C716 H707 0.950 . S
C716 C715 1.398 . S
C716 C717 1.391 . S
C717 H705 0.950 . S
C717 C713 1.393 . S
C717 C716 1.391 . S
C718 H708 0.950 . S
C718 C719 1.386 . S
C718 C720 1.391 1_556 S
C719 C718 1.386 . S
C719 C723 1.393 1_556 S
C720 H709 0.950 . S
C720 C718 1.391 1_554 S
C720 C721 1.400 . S
C721 C715 1.491 . S
C721 C720 1.400 . S
C721 C722 1.398 . S
C722 H710 0.950 . S
C722 C721 1.398 . S
C722 C723 1.391 . S
C723 H711 0.950 . S
C723 C719 1.393 1_554 S
C723 C722 1.391 . S
H724 C732 0.950 . S
H725 C737 0.950 . S
H726 C734 0.950 . S
H727 C736 0.950 . S
H728 C738 0.950 . S
H729 C740 0.950 . S
H730 C742 0.950 . S
H731 C743 0.950 . S
C732 H724 0.950 . S
C732 C733 1.386 . S
C732 C734 1.391 . S
C733 C732 1.386 . S
C733 C737 1.393 . S
C734 H726 0.950 . S
C734 C732 1.391 . S
C734 C735 1.400 . S
C735 C734 1.400 . S
C735 C736 1.398 . S
C735 C741 1.491 . S
C736 H727 0.950 . S
C736 C735 1.398 . S
C736 C737 1.391 . S
C737 H725 0.950 . S
C737 C733 1.393 . S
C737 C736 1.391 . S
C738 H728 0.950 . S
C738 C739 1.386 1_556 S
C738 C740 1.391 . S
C739 C738 1.386 1_554 S
C739 C743 1.393 . S
C740 H729 0.950 . S
C740 C738 1.391 . S
C740 C741 1.400 1_556 S
C741 C735 1.491 . S
C741 C740 1.400 1_554 S
C741 C742 1.398 . S
C742 H730 0.950 . S
C742 C741 1.398 . S
C742 C743 1.391 . S
C743 H731 0.950 . S
C743 C739 1.393 . S
C743 C742 1.391 . S
H744 C752 0.950 . S
H745 C757 0.950 . S
H746 C754 0.950 . S
H747 C756 0.950 . S
H748 C758 0.950 . S
H749 C760 0.950 . S
H750 C762 0.950 . S
H751 C763 0.950 . S
C752 H744 0.950 . S
C752 C753 1.386 . S
C752 C754 1.391 . S
C753 C752 1.386 . S
C753 C757 1.393 . S
C754 H746 0.950 . S
C754 C752 1.391 . S
C754 C755 1.400 . S
C755 C754 1.400 . S
C755 C756 1.398 . S
C755 C761 1.491 . S
C756 H747 0.950 . S
C756 C755 1.398 . S
C756 C757 1.391 . S
C757 H745 0.950 . S
C757 C753 1.393 . S
C757 C756 1.391 . S
C758 H748 0.950 . S
C758 C759 1.386 . S
C758 C760 1.391 . S
C759 C758 1.386 . S
C759 C763 1.393 . S
C760 H749 0.950 . S
C760 C758 1.391 . S
C760 C761 1.400 . S
C761 C755 1.491 . S
C761 C760 1.400 . S
C761 C762 1.398 . S
C762 H750 0.950 . S
C762 C761 1.398 . S
C762 C763 1.391 . S
C763 H751 0.950 . S
C763 C759 1.393 . S
C763 C762 1.391 . S
H764 C772 0.950 . S
H765 C777 0.950 . S
H766 C774 0.950 . S
H767 C776 0.950 . S
H768 C778 0.950 . S
H769 C780 0.950 . S
H770 C782 0.950 . S
H771 C783 0.950 . S
C772 H764 0.950 . S
C772 C773 1.386 . S
C772 C774 1.391 . S
C773 C772 1.386 . S
C773 C777 1.393 . S
C774 H766 0.950 . S
C774 C772 1.391 . S
C774 C775 1.400 . S
C775 C774 1.400 . S
C775 C776 1.398 . S
C775 C781 1.491 . S
C776 H767 0.950 . S
C776 C775 1.398 . S
C776 C777 1.391 . S
C777 H765 0.950 . S
C777 C773 1.393 . S
C777 C776 1.391 . S
C778 H768 0.950 . S
C778 C779 1.386 . S
C778 C780 1.391 . S
C779 C778 1.386 . S
C779 C783 1.393 . S
C780 H769 0.950 . S
C780 C778 1.391 . S
C780 C781 1.400 . S
C781 C775 1.491 . S
C781 C780 1.400 . S
C781 C782 1.398 . S
C782 H770 0.950 . S
C782 C781 1.398 . S
C782 C783 1.391 . S
C783 H771 0.950 . S
C783 C779 1.393 . S
C783 C782 1.391 . S
H784 C792 0.950 . S
H785 C797 0.950 . S
H786 C794 0.950 . S
H787 C796 0.950 . S
H788 C798 0.950 . S
H789 C800 0.950 . S
H790 C802 0.950 . S
H791 C803 0.950 . S
C792 H784 0.950 . S
C792 C793 1.386 . S
C792 C794 1.391 . S
C793 C792 1.386 . S
C793 C797 1.393 . S
C794 H786 0.950 . S
C794 C792 1.391 . S
C794 C795 1.400 . S
C795 C794 1.400 . S
C795 C796 1.398 . S
C795 C801 1.491 . S
C796 H787 0.950 . S
C796 C795 1.398 . S
C796 C797 1.391 . S
C797 H785 0.950 . S
C797 C793 1.393 . S
C797 C796 1.391 . S
C798 H788 0.950 . S
C798 C799 1.386 . S
C798 C800 1.391 . S
C799 C798 1.386 . S
C799 C803 1.393 . S
C800 H789 0.950 . S
C800 C798 1.391 . S
C800 C801 1.400 . S
C801 C795 1.491 . S
C801 C800 1.400 . S
C801 C802 1.398 . S
C802 H790 0.950 . S
C802 C801 1.398 . S
C802 C803 1.391 . S
C803 H791 0.950 . S
C803 C799 1.393 . S
C803 C802 1.391 . S
H804 C812 0.950 . S
H805 C817 0.950 . S
H806 C814 0.950 . S
H807 C816 0.950 . S
H808 C818 0.950 . S
H809 C820 0.950 . S
H810 C822 0.950 . S
H811 C823 0.950 . S
C812 H804 0.950 . S
C812 C813 1.386 . S
C812 C814 1.391 . S
C813 C812 1.386 . S
C813 C817 1.393 . S
C814 H806 0.950 . S
C814 C812 1.391 . S
C814 C815 1.400 . S
C815 C814 1.400 . S
C815 C816 1.398 . S
C815 C821 1.491 . S
C816 H807 0.950 . S
C816 C815 1.398 . S
C816 C817 1.391 . S
C817 H805 0.950 . S
C817 C813 1.393 . S
C817 C816 1.391 . S
C818 H808 0.950 . S
C818 C819 1.386 . S
C818 C820 1.391 . S
C819 C818 1.386 . S
C819 C823 1.393 . S
C820 H809 0.950 . S
C820 C818 1.391 . S
C820 C821 1.400 . S
C821 C815 1.491 . S
C821 C820 1.400 . S
C821 C822 1.398 . S
C822 H810 0.950 . S
C822 C821 1.398 . S
C822 C823 1.391 . S
C823 H811 0.950 . S
C823 C819 1.393 . S
C823 C822 1.391 . S
H824 C832 0.950 . S
H825 C837 0.950 . S
H826 C834 0.950 . S
H827 C836 0.950 . S
H828 C838 0.950 1_455 S
H829 C840 0.950 . S
H830 C842 0.950 . S
H831 C843 0.950 . S
C832 H824 0.950 . S
C832 C833 1.386 . S
C832 C834 1.391 . S
C833 C832 1.386 . S
C833 C837 1.393 . S
C834 H826 0.950 . S
C834 C832 1.391 . S
C834 C835 1.400 . S
C835 C834 1.400 . S
C835 C836 1.398 . S
C835 C841 1.491 . S
C836 H827 0.950 . S
C836 C835 1.398 . S
C836 C837 1.391 . S
C837 H825 0.950 . S
C837 C833 1.393 . S
C837 C836 1.391 . S
C838 H828 0.950 1_655 S
C838 C839 1.386 . S
C838 C840 1.391 . S
C839 C838 1.386 . S
C839 C843 1.393 . S
C840 H829 0.950 . S
C840 C838 1.391 . S
C840 C841 1.400 . S
C841 C835 1.491 . S
C841 C840 1.400 . S
C841 C842 1.398 . S
C842 H830 0.950 . S
C842 C841 1.398 . S
C842 C843 1.391 . S
C843 H831 0.950 . S
C843 C839 1.393 . S
C843 C842 1.391 . S
H844 C852 0.950 . S
H845 C857 0.950 . S
H846 C854 0.950 . S
H847 C856 0.950 . S
H848 C858 0.950 1_545 S
H849 C860 0.964 . S
H850 C862 0.950 . S
H851 C863 0.950 . S
C852 H844 0.950 . S
C852 C853 1.386 . S
C852 C854 1.391 . S
C853 C852 1.386 . S
C853 C857 1.393 . S
C854 H846 0.950 . S
C854 C852 1.391 . S
C854 C855 1.400 . S
C855 C854 1.400 . S
C855 C856 1.398 . S
C855 C861 1.491 . S
C856 H847 0.950 . S
C856 C855 1.398 . S
C856 C857 1.391 . S
C857 H845 0.950 . S
C857 C853 1.393 . S
C857 C856 1.391 . S
C858 H848 0.950 1_565 S
C858 C859 1.386 . S
C858 C860 1.391 . S
C859 C858 1.386 . S
C859 C863 1.393 . S
C860 H849 0.964 . S
C860 C858 1.391 . S
C860 C861 1.400 . S
C861 C855 1.491 . S
C861 C860 1.400 . S
C861 C862 1.398 . S
C862 H850 0.950 . S
C862 C861 1.398 . S
C862 C863 1.391 . S
C863 H851 0.950 . S
C863 C859 1.393 . S
C863 C862 1.391 . S
H864 C872 0.950 . S
H865 C877 0.950 . S
H866 C874 0.950 . S
H867 C876 0.950 . S
H868 C878 0.950 . S
H869 C880 0.950 . S
H870 C882 0.950 . S
H871 C883 0.950 . S
C872 H864 0.950 . S
C872 C873 1.386 . S
C872 C874 1.391 . S
C873 C872 1.386 . S
C873 C877 1.393 . S
C874 H866 0.950 . S
C874 C872 1.391 . S
C874 C875 1.400 . S
C875 C874 1.400 . S
C875 C876 1.398 . S
C875 C881 1.491 . S
C876 H867 0.950 . S
C876 C875 1.398 . S
C876 C877 1.391 . S
C877 H865 0.950 . S
C877 C873 1.393 . S
C877 C876 1.391 . S
C878 H868 0.950 . S
C878 C879 1.386 . S
C878 C880 1.391 . S
C879 C878 1.386 . S
C879 C883 1.393 . S
C880 H869 0.950 . S
C880 C878 1.391 . S
C880 C881 1.400 . S
C881 C875 1.491 . S
C881 C880 1.400 . S
C881 C882 1.398 . S
C882 H870 0.950 . S
C882 C881 1.398 . S
C882 C883 1.391 . S
C883 H871 0.950 . S
C883 C879 1.393 . S
C883 C882 1.391 . S
H884 C892 0.950 . S
H885 C897 0.950 . S
H886 C894 0.950 . S
H887 C896 0.950 . S
H888 C898 0.950 . S
H889 C900 0.950 . S
H890 C902 0.950 . S
H891 C903 0.950 . S
C892 H884 0.950 . S
C892 C893 1.386 . S
C892 C894 1.391 . S
C893 C892 1.386 . S
C893 C897 1.393 . S
C894 H886 0.950 . S
C894 C892 1.391 . S
C894 C895 1.400 . S
C895 C894 1.400 . S
C895 C896 1.398 . S
C895 C901 1.491 . S
C896 H887 0.950 . S
C896 C895 1.398 . S
C896 C897 1.391 . S
C897 H885 0.950 . S
C897 C893 1.393 . S
C897 C896 1.391 . S
C898 H888 0.950 . S
C898 C899 1.386 . S
C898 C900 1.391 . S
C899 C898 1.386 . S
C899 C903 1.393 . S
C900 H889 0.950 . S
C900 C898 1.391 . S
C900 C901 1.400 . S
C901 C895 1.491 . S
C901 C900 1.400 . S
C901 C902 1.398 . S
C902 H890 0.950 . S
C902 C901 1.398 . S
C902 C903 1.391 . S
C903 H891 0.950 . S
C903 C899 1.393 . S
C903 C902 1.391 . S
C433 C76 1.869 . S
C439 C162 1.930 . S
C459 C246 1.949 . S
C453 C87 1.887 . S
C479 C312 1.912 . S
C473 C54 1.958 . S
C499 C396 1.922 . S
C493 C65 1.966 . S
C519 C151 1.921 1_565 S
C513 C32 1.850 . S
C533 C43 1.881 . S
C539 C235 1.955 . S
C553 C10 1.969 . S
C559 C323 1.914 . S
C573 C21 1.967 . S
C579 C407 1.915 . S
C599 C158 0.668 1_455 S
C593 C60 0.623 . S
C619 C242 0.585 1_545 S
C613 C71 0.619 . S
C639 C314 0.556 . S
C633 C82 0.615 . S
C653 C49 0.620 . S
C659 C398 0.604 . S
C673 C16 0.616 . S
C679 C146 0.653 . S
C699 C230 0.580 . S
C693 C27 0.643 . S
C719 C326 0.621 1_556 S
C713 C38 0.557 . S
C733 C5 0.613 . S
C739 C410 0.614 . S
C753 C59 1.996 . S
C759 C155 2.071 . S
C773 C70 1.975 . S
C779 C239 2.049 . S
C799 C319 2.056 . S
C793 C81 1.898 . S
C819 C403 2.097 . S
C813 C48 1.903 . S
C833 C15 2.009 . S
C839 C144 2.071 . S
C859 C228 2.039 . S
C853 C26 1.979 . S
C879 C330 2.061 . S
C873 C37 1.858 . S
C893 C4 1.907 . S
C899 C414 2.083 . S
