# Generated by pormake.
# Topology pth, (4,4)-cn, num edge types: 1
# Building blocks:
#     Node 0, Type 0, BuildingBlock: CEKHIL_clean_sbu_0, # of connection points: 4
#     Node 1, Type 0, BuildingBlock: CEKHIL_clean_sbu_0, # of connection points: 4
#     Node 2, Type 0, BuildingBlock: CEKHIL_clean_sbu_0, # of connection points: 4
#     Node 3, Type 1, BuildingBlock: MIFKUJ_clean_linker_1, # of connection points: 4
#     Node 4, Type 1, BuildingBlock: MIFKUJ_clean_linker_1, # of connection points: 4
#     Node 5, Type 1, BuildingBlock: MIFKUJ_clean_linker_1, # of connection points: 4
#     Edge 6, Type (0, 1), BuildingBlock: XIVTED_clean_linker_0, # of connection points: 2
#     Edge 7, Type (0, 1), BuildingBlock: XIVTED_clean_linker_0, # of connection points: 2
#     Edge 8, Type (0, 1), BuildingBlock: XIVTED_clean_linker_0, # of connection points: 2
#     Edge 9, Type (0, 1), BuildingBlock: XIVTED_clean_linker_0, # of connection points: 2
#     Edge 10, Type (0, 1), BuildingBlock: XIVTED_clean_linker_0, # of connection points: 2
#     Edge 11, Type (0, 1), BuildingBlock: XIVTED_clean_linker_0, # of connection points: 2
#     Edge 12, Type (0, 1), BuildingBlock: XIVTED_clean_linker_0, # of connection points: 2
#     Edge 13, Type (0, 1), BuildingBlock: XIVTED_clean_linker_0, # of connection points: 2
#     Edge 14, Type (0, 1), BuildingBlock: XIVTED_clean_linker_0, # of connection points: 2
#     Edge 15, Type (0, 1), BuildingBlock: XIVTED_clean_linker_0, # of connection points: 2
#     Edge 16, Type (0, 1), BuildingBlock: XIVTED_clean_linker_0, # of connection points: 2
#     Edge 17, Type (0, 1), BuildingBlock: XIVTED_clean_linker_0, # of connection points: 2
# Relax obj value: 0.014
# Max RMSD: 0.063
# Mean RMSD: 0.055
data_MOF--net-pth--node1-CEKHIL_clean_sbu_0--node2-MIFKUJ_clean_linker_1--edge1-XIVTED_clean_linker_0
_symmetry_space_group_name_H-M    P1
_symmetry_Int_Tables_number       1
_symmetry_cell_setting            triclinic
loop_
_symmetry_equiv_pos_as_xyz
'x, y, z'
_cell_length_a     29.303042
_cell_length_b     29.392495
_cell_length_c     64.876022
_cell_angle_alpha  90.974689
_cell_angle_beta   89.979676
_cell_angle_gamma 120.30058
loop_
_atom_site_label
_atom_site_type_symbol
_atom_site_fract_x
_atom_site_fract_y
_atom_site_fract_z
_atom_type_partial_charge
Co0 Co 0.02078 0.03036 0.05658 0.0
O1 O 0.98687 0.97541 0.07638 0.0
O2 O 0.05475 0.98842 0.05715 0.0
C3 C 0.02727 0.0959 0.07723 0.0
O4 O 0.06713 0.08389 0.03515 0.0
Co5 Co 0.96408 0.08826 0.04074 0.0
O6 O 0.03017 0.13126 0.02527 0.0
C7 C 0.92724 0.97933 0.02695 0.0
C8 C 0.02107 0.96151 0.07143 0.0
C9 C 0.06736 0.12073 0.02459 0.0
O10 O 0.96939 0.98262 0.03455 0.0
O11 O 0.91501 0.01509 0.02971 0.0
O12 O 0.06188 0.08084 0.0785 0.0
O13 O 0.98763 0.06803 0.06498 0.0
Co14 Co 0.00324 0.03314 0.37425 0.0
O15 O 0.9673 0.05484 0.3556 0.0
O16 O 0.03702 0.10944 0.37463 0.0
C17 C 0.0077 0.97566 0.35202 0.0
O18 O 0.0518 0.02471 0.39457 0.0
Co19 Co 0.94946 0.91657 0.38794 0.0
O20 O 0.02131 0.93807 0.39817 0.0
C21 C 0.91569 0.98764 0.40623 0.0
C22 C 0.00209 0.10297 0.36073 0.0
C23 C 0.05659 0.9862 0.40124 0.0
O24 O 0.95377 0.02732 0.39716 0.0
O25 O 0.90536 0.94015 0.4033 0.0
O26 O 0.04232 0.0256 0.35133 0.0
O27 O 0.96942 0.96291 0.36476 0.0
Co28 Co 0.00271 0.02826 0.70912 0.0
O29 O 0.05603 0.06447 0.6888 0.0
O30 O 0.04571 0.99554 0.70598 0.0
C31 C 0.93627 0.02385 0.68999 0.0
O32 O 0.95028 0.97905 0.73045 0.0
Co33 Co 0.9432 0.07982 0.7286 0.0
O34 O 0.89395 0.00754 0.738 0.0
C35 C 0.05149 0.11356 0.74288 0.0
C36 C 0.07097 0.03049 0.69195 0.0
C37 C 0.90777 0.9729 0.73894 0.0
O38 O 0.05174 0.07752 0.7314 0.0
O39 O 0.01312 0.12267 0.74313 0.0
O40 O 0.95082 0.9891 0.68743 0.0
O41 O 0.96448 0.06197 0.70287 0.0
H42 H 0.11234 0.51135 0.17726 0.0
H43 H 0.11143 0.44142 0.15592 0.0
H44 H 0.97395 0.32514 0.18804 0.0
H45 H 0.9727 0.39518 0.20859 0.0
H46 H 0.04674 0.54249 0.17785 0.0
H47 H 0.1066 0.47074 0.23224 0.0
H48 H 0.10265 0.40451 0.25585 0.0
H49 H 0.95131 0.37614 0.27769 0.0
H50 H 0.95501 0.44125 0.25388 0.0
H51 H 0.95137 0.57532 0.24871 0.0
H52 H 0.94744 0.64402 0.26888 0.0
H53 H 0.10389 0.75808 0.24808 0.0
H54 H 0.10642 0.68918 0.22729 0.0
H55 H 0.02488 0.54392 0.25353 0.0
H56 H 0.96639 0.61727 0.20253 0.0
H57 H 0.96485 0.68137 0.17974 0.0
H58 H 0.10645 0.70268 0.15012 0.0
H59 H 0.10989 0.64146 0.17407 0.0
C60 C 0.04295 0.45876 0.19477 0.0
C61 C 0.08196 0.47085 0.17979 0.0
C62 C 0.08153 0.43101 0.16762 0.0
C63 C 0.04269 0.3782 0.17045 0.0
C64 C 0.00456 0.36568 0.18577 0.0
C65 C 0.00419 0.40569 0.19763 0.0
C66 C 0.04065 0.50207 0.20604 0.0
C67 C 0.04325 0.54339 0.19447 0.0
C68 C 0.03358 0.50215 0.22765 0.0
C69 C 0.03089 0.46063 0.24118 0.0
C70 C 0.07236 0.44978 0.24197 0.0
C71 C 0.07029 0.41235 0.25561 0.0
C72 C 0.02664 0.38504 0.26864 0.0
C73 C 0.98517 0.39594 0.2677 0.0
C74 C 0.98737 0.43339 0.25417 0.0
C75 C 0.02912 0.62723 0.23651 0.0
C76 C 0.98462 0.61526 0.24841 0.0
C77 C 0.98266 0.65457 0.26005 0.0
C78 C 0.02561 0.70662 0.26034 0.0
C79 C 0.06985 0.71864 0.24808 0.0
C80 C 0.0715 0.67929 0.23623 0.0
C81 C 0.03215 0.5845 0.22535 0.0
C82 C 0.02937 0.54333 0.23693 0.0
C83 C 0.03888 0.58452 0.20377 0.0
C84 C 0.0388 0.62506 0.19034 0.0
C85 C 0.99793 0.63674 0.19151 0.0
C86 C 0.99656 0.67281 0.17813 0.0
C87 C 0.03537 0.69723 0.1629 0.0
C88 C 0.0763 0.68546 0.1618 0.0
C89 C 0.07806 0.64995 0.17539 0.0
H90 H 0.65917 0.11268 0.53825 0.0
H91 H 0.72715 0.10818 0.51759 0.0
H92 H 0.60572 0.96667 0.48708 0.0
H93 H 0.53858 0.97087 0.50788 0.0
H94 H 0.51143 0.04621 0.51001 0.0
H95 H 0.60758 0.10665 0.59062 0.0
H96 H 0.67282 0.10314 0.61265 0.0
H97 H 0.65691 0.97066 0.57659 0.0
H98 H 0.58893 0.97239 0.55539 0.0
H99 H 0.40126 0.96019 0.58429 0.0
H100 H 0.33149 0.95606 0.60615 0.0
H101 H 0.36592 0.10837 0.58434 0.0
H102 H 0.43429 0.11104 0.56196 0.0
H103 H 0.5073 0.03617 0.58623 0.0
H104 H 0.36336 0.96767 0.53724 0.0
H105 H 0.2935 0.96246 0.51504 0.0
H106 H 0.40647 0.10868 0.48686 0.0
H107 H 0.47586 0.11447 0.5096 0.0
C108 C 0.59388 0.04186 0.5247 0.0
C109 C 0.64739 0.08064 0.52715 0.0
C110 C 0.68608 0.07822 0.51526 0.0
C111 C 0.6718 0.03686 0.50081 0.0
C112 C 0.61811 0.99855 0.4983 0.0
C113 C 0.57963 0.00112 0.51006 0.0
C114 C 0.55209 0.04319 0.53714 0.0
C115 C 0.51083 0.0446 0.52672 0.0
C116 C 0.55127 0.04091 0.55892 0.0
C117 C 0.59369 0.04021 0.57118 0.0
C118 C 0.61816 0.07684 0.58744 0.0
C119 C 0.65595 0.07507 0.59993 0.0
C120 C 0.67057 0.0368 0.59638 0.0
C121 C 0.64631 0.00034 0.57994 0.0
C122 C 0.60795 0.00177 0.56758 0.0
C123 C 0.42271 0.03579 0.57145 0.0
C124 C 0.39341 0.99248 0.58415 0.0
C125 C 0.35379 0.9904 0.59676 0.0
C126 C 0.3431 0.03201 0.59717 0.0
C127 C 0.37236 0.0752 0.58424 0.0
C128 C 0.41165 0.07695 0.57146 0.0
C129 C 0.4667 0.03894 0.5591 0.0
C130 C 0.50843 0.03863 0.56955 0.0
C131 C 0.46818 0.04265 0.53738 0.0
C132 C 0.42479 0.04168 0.52521 0.0
C133 C 0.37287 0.9992 0.52661 0.0
C134 C 0.33309 0.99597 0.51372 0.0
C135 C 0.34448 0.03499 0.49906 0.0
C136 C 0.39623 0.07824 0.49809 0.0
C137 C 0.43601 0.08141 0.51099 0.0
H138 H 0.48758 0.39128 0.84573 0.0
H139 H 0.41254 0.32523 0.82521 0.0
H140 H 0.31503 0.38387 0.85065 0.0
H141 H 0.38957 0.44789 0.87168 0.0
H142 H 0.53229 0.50217 0.8448 0.0
H143 H 0.44241 0.36032 0.89179 0.0
H144 H 0.37104 0.29517 0.91321 0.0
H145 H 0.36849 0.42051 0.94771 0.0
H146 H 0.43714 0.48557 0.92557 0.0
H147 H 0.55851 0.62453 0.91444 0.0
H148 H 0.62222 0.69773 0.93604 0.0
H149 H 0.74028 0.65485 0.92202 0.0
H150 H 0.67656 0.58344 0.89933 0.0
H151 H 0.53115 0.51503 0.92106 0.0
H152 H 0.59583 0.65059 0.87184 0.0
H153 H 0.65624 0.72129 0.84956 0.0
H154 H 0.6984 0.61534 0.8196 0.0
H155 H 0.63913 0.54498 0.84266 0.0
C156 C 0.44392 0.42402 0.86036 0.0
C157 C 0.44982 0.38945 0.84694 0.0
C158 C 0.4069 0.35197 0.83512 0.0
C159 C 0.35743 0.34897 0.83621 0.0
C160 C 0.35198 0.38401 0.84967 0.0
C161 C 0.39469 0.42095 0.86166 0.0
C162 C 0.48968 0.46496 0.87238 0.0
C163 C 0.53262 0.50434 0.86151 0.0
C164 C 0.48896 0.46849 0.89417 0.0
C165 C 0.44504 0.42815 0.9068 0.0
C166 C 0.42577 0.37393 0.90361 0.0
C167 C 0.3854 0.33671 0.91595 0.0
C168 C 0.36482 0.35315 0.93208 0.0
C169 C 0.38421 0.4071 0.93543 0.0
C170 C 0.4235 0.44419 0.9228 0.0
C171 C 0.61294 0.59874 0.90534 0.0
C172 C 0.59835 0.63137 0.91589 0.0
C173 C 0.6348 0.6729 0.92843 0.0
C174 C 0.68643 0.68193 0.93117 0.0
C175 C 0.70118 0.6496 0.92019 0.0
C176 C 0.66479 0.60855 0.90728 0.0
C177 C 0.5725 0.55251 0.89345 0.0
C178 C 0.53093 0.51208 0.90436 0.0
C179 C 0.57361 0.54873 0.87174 0.0
C180 C 0.61356 0.59262 0.8592 0.0
C181 C 0.61908 0.64283 0.86088 0.0
C182 C 0.65309 0.68308 0.84787 0.0
C183 C 0.68192 0.67392 0.83266 0.0
C184 C 0.67719 0.62388 0.83126 0.0
C185 C 0.64312 0.58356 0.84435 0.0
H186 H 0.98042 0.15479 0.07071 0.0
H187 H 0.04823 0.29191 0.18148 0.0
H188 H 0.08179 0.135 0.11333 0.0
H189 H 0.03267 0.3702 0.12865 0.0
H190 H 0.04582 0.22354 0.15832 0.0
H191 H 0.98479 0.22473 0.09339 0.0
C192 C 0.0036 0.16524 0.08482 0.0
C193 C 0.03092 0.13934 0.09018 0.0
C194 C 0.04302 0.25578 0.15185 0.0
C195 C 0.03512 0.21801 0.11622 0.0
C196 C 0.04416 0.29445 0.165 0.0
C197 C 0.04086 0.33653 0.15684 0.0
C198 C 0.03723 0.25872 0.13051 0.0
C199 C 0.03567 0.33839 0.13543 0.0
C200 C 0.00617 0.2051 0.09767 0.0
C201 C 0.06044 0.15431 0.1086 0.0
N202 N 0.03354 0.29972 0.12296 0.0
N203 N 0.06132 0.19232 0.1211 0.0
H204 H 0.83686 0.91493 0.43028 0.0
H205 H 0.75768 0.11565 0.4809 0.0
H206 H 0.91799 0.0806 0.41618 0.0
H207 H 0.67802 0.94886 0.49241 0.0
H208 H 0.82021 0.10594 0.45867 0.0
H209 H 0.78137 0.92882 0.45428 0.0
C210 C 0.8431 0.95437 0.43218 0.0
C211 C 0.88221 0.99661 0.42103 0.0
C212 C 0.78912 0.07156 0.46613 0.0
C213 C 0.81818 0.01283 0.44877 0.0
C214 C 0.75365 0.07713 0.4789 0.0
C215 C 0.71227 0.03289 0.48837 0.0
C216 C 0.78324 0.02146 0.46291 0.0
C217 C 0.70868 0.98387 0.48513 0.0
C218 C 0.81129 0.96228 0.44599 0.0
C219 C 0.88833 0.0468 0.42438 0.0
N220 N 0.7435 0.9795 0.47267 0.0
N221 N 0.85652 0.05351 0.43791 0.0
H222 H 0.92955 0.89663 0.75185 0.0
H223 H 0.65773 0.74152 0.81371 0.0
H224 H 0.80914 0.94016 0.75391 0.0
H225 H 0.78023 0.70131 0.81731 0.0
H226 H 0.71171 0.81127 0.78997 0.0
H227 H 0.87423 0.82131 0.77377 0.0
C228 C 0.89146 0.89025 0.75677 0.0
C229 C 0.87423 0.92512 0.7511 0.0
C230 C 0.72698 0.78731 0.79592 0.0
C231 C 0.81091 0.83919 0.77615 0.0
C232 C 0.69623 0.74759 0.80963 0.0
C233 C 0.71466 0.7158 0.81777 0.0
C234 C 0.7768 0.79563 0.79016 0.0
C235 C 0.76435 0.72474 0.81139 0.0
C236 C 0.86 0.84735 0.76933 0.0
C237 C 0.82448 0.9148 0.75797 0.0
N238 N 0.79383 0.76399 0.79802 0.0
N239 N 0.79482 0.87302 0.77011 0.0
H240 H 0.10298 0.94181 0.07401 0.0
H241 H 0.94682 0.69172 0.14571 0.0
H242 H 0.94308 0.88458 0.09419 0.0
H243 H 0.11731 0.78647 0.14577 0.0
H244 H 0.94285 0.75326 0.12207 0.0
H245 H 0.10663 0.87516 0.09518 0.0
C246 C 0.06849 0.91484 0.08269 0.0
C247 C 0.02273 0.91879 0.08244 0.0
C248 C 0.9811 0.76046 0.12726 0.0
C249 C 0.02658 0.84272 0.10652 0.0
C250 C 0.98349 0.72555 0.14092 0.0
C251 C 0.03251 0.73394 0.14803 0.0
C252 C 0.02803 0.80387 0.12036 0.0
C253 C 0.07859 0.77784 0.14062 0.0
C254 C 0.07071 0.87713 0.09484 0.0
C255 C 0.97925 0.88309 0.09405 0.0
N256 N 0.07521 0.81111 0.1272 0.0
N257 N 0.98221 0.84653 0.10559 0.0
H258 H 0.13364 0.08094 0.4184 0.0
H259 H 0.27157 0.94538 0.47864 0.0
H260 H 0.08582 0.91604 0.41337 0.0
H261 H 0.32399 0.11104 0.48507 0.0
H262 H 0.20455 0.93553 0.45396 0.0
H263 H 0.20585 0.0948 0.44165 0.0
C264 C 0.13848 0.04778 0.42202 0.0
C265 C 0.10323 0.99716 0.414 0.0
C266 C 0.2306 0.97412 0.46074 0.0
C267 C 0.18545 0.0127 0.44063 0.0
C268 C 0.26869 0.97967 0.475 0.0
C269 C 0.30322 0.02902 0.48412 0.0
C270 C 0.22668 0.0182 0.45546 0.0
C271 C 0.29835 0.0723 0.47835 0.0
C272 C 0.17959 0.05569 0.43535 0.0
C273 C 0.11152 0.9557 0.41927 0.0
N274 N 0.26066 0.06586 0.46444 0.0
N275 N 0.15148 0.96438 0.43226 0.0
H276 H 0.15279 0.13148 0.73981 0.0
H277 H 0.25166 0.29514 0.84578 0.0
H278 H 0.05433 0.16868 0.77767 0.0
H279 H 0.35904 0.3143 0.79657 0.0
H280 H 0.1776 0.23639 0.82332 0.0
H281 H 0.22784 0.18628 0.76293 0.0
C282 C 0.14689 0.15095 0.753 0.0
C283 C 0.09726 0.1457 0.75675 0.0
C284 C 0.21744 0.25345 0.81749 0.0
C285 C 0.18257 0.20772 0.78329 0.0
C286 C 0.25986 0.28729 0.83026 0.0
C287 C 0.312 0.31043 0.82308 0.0
C288 C 0.22699 0.24185 0.79744 0.0
C289 C 0.31979 0.29716 0.80295 0.0
C290 C 0.18972 0.18231 0.76612 0.0
C291 C 0.09193 0.17194 0.77407 0.0
N292 N 0.27777 0.26378 0.79085 0.0
N293 N 0.13396 0.20158 0.78673 0.0
H294 H 0.86373 0.94363 0.66517 0.0
H295 H 0.75957 0.11932 0.61428 0.0
H296 H 0.91273 0.10209 0.68601 0.0
H297 H 0.67226 0.94923 0.60988 0.0
H298 H 0.82153 0.11482 0.63803 0.0
H299 H 0.79797 0.94565 0.64245 0.0
C300 C 0.86041 0.9787 0.66505 0.0
C301 C 0.89373 0.02281 0.67744 0.0
C302 C 0.78872 0.07849 0.63189 0.0
C303 C 0.81935 0.02563 0.65134 0.0
C304 C 0.75311 0.08096 0.61836 0.0
C305 C 0.71015 0.03456 0.6101 0.0
C306 C 0.78195 0.02932 0.63706 0.0
C307 C 0.705 0.98611 0.6156 0.0
C308 C 0.82291 0.9798 0.6521 0.0
C309 C 0.88777 0.0672 0.67672 0.0
N310 N 0.74051 0.98476 0.62871 0.0
N311 N 0.85163 0.06765 0.66375 0.0
H312 H 0.82138 0.93712 0.02057 0.0
H313 H 0.795 0.74537 0.92844 0.0
H314 H 0.95229 0.9165 0.00351 0.0
H315 H 0.66365 0.71453 0.96774 0.0
H316 H 0.85446 0.81497 0.95271 0.0
H317 H 0.76352 0.8628 0.99784 0.0
C318 C 0.83793 0.91689 0.01205 0.0
C319 C 0.8917 0.93296 0.01392 0.0
C320 C 0.81257 0.79269 0.95594 0.0
C321 C 0.82586 0.84843 0.9877 0.0
C322 C 0.77852 0.75278 0.94216 0.0
C323 C 0.72383 0.72401 0.94583 0.0
C324 C 0.79175 0.80455 0.97334 0.0
C325 C 0.70509 0.73633 0.96382 0.0
C326 C 0.80486 0.8744 0.99916 0.0
C327 C 0.91098 0.90515 0.00259 0.0
N328 N 0.73886 0.77589 0.97675 0.0
N329 N 0.87816 0.8645 0.98975 0.0
H330 H 0.95088 0.86857 0.35515 0.0
H331 H 0.06548 0.81191 0.25256 0.0
H332 H 0.07339 0.99268 0.31947 0.0
H333 H 0.9839 0.69517 0.29908 0.0
H334 H 0.06334 0.87811 0.27524 0.0
H335 H 0.95639 0.80343 0.333 0.0
C336 C 0.97901 0.8821 0.34267 0.0
C337 C 0.01175 0.93605 0.33912 0.0
C338 C 0.04601 0.83797 0.28045 0.0
C339 C 0.01794 0.8618 0.31362 0.0
C340 C 0.04738 0.80014 0.26755 0.0
C341 C 0.02464 0.74763 0.27382 0.0
C342 C 0.02131 0.82316 0.29969 0.0
C343 C 0.00097 0.73476 0.29333 0.0
C344 C 0.98222 0.84492 0.33006 0.0
C345 C 0.04753 0.95141 0.32275 0.0
N346 N -0.00026 0.77216 0.3055 0.0
N347 N 0.04947 0.91444 0.3105 0.0
H348 H 0.11931 0.97136 0.69622 0.0
H349 H 0.27434 0.06793 0.59 0.0
H350 H 0.11718 0.0894 0.65821 0.0
H351 H 0.31815 0.99305 0.63648 0.0
H352 H 0.20951 0.06784 0.61356 0.0
H353 H 0.18588 0.97075 0.6733 0.0
C354 C 0.13294 0.99722 0.68314 0.0
C355 C 0.11273 0.03051 0.67913 0.0
C356 C 0.23337 0.05147 0.6186 0.0
C357 C 0.18797 0.02951 0.65282 0.0
C358 C 0.27067 0.05174 0.60518 0.0
C359 C 0.30221 0.03076 0.61121 0.0
C360 C 0.22696 0.02962 0.63821 0.0
C361 C 0.29438 0.00907 0.63098 0.0
C362 C 0.17087 0.99688 0.67009 0.0
C363 C 0.13171 0.06318 0.66195 0.0
N364 N 0.25752 0.009 0.64375 0.0
N365 N 0.16794 0.06162 0.64939 0.0
H366 H 0.06342 0.16212 0.9879 0.0
H367 H 0.3703 0.34167 0.97343 0.0
H368 H 0.1717 0.14916 0.02909 0.0
H369 H 0.2646 0.27781 0.9211 0.0
H370 H 0.29833 0.28065 0.99587 0.0
H371 H 0.13684 0.21456 0.96476 0.0
C372 C 0.10272 0.17042 0.99208 0.0
C373 C 0.11162 0.15144 0.01046 0.0
C374 C 0.29114 0.27972 0.97946 0.0
C375 C 0.19567 0.21187 0.98419 0.0
C376 C 0.33194 0.31447 0.96672 0.0
C377 C 0.32302 0.31438 0.94548 0.0
C378 C 0.24089 0.24584 0.97091 0.0
C379 C 0.27284 0.27869 0.93742 0.0
C380 C 0.14443 0.19999 0.97881 0.0
C381 C 0.16323 0.16297 0.01504 0.0
N382 N 0.23332 0.24625 0.9502 0.0
N383 N 0.20359 0.19312 0.0021 0.0
H384 H 0.92478 0.10047 0.33676 0.0
H385 H 0.10571 0.39073 0.29337 0.0
H386 H 0.08301 0.20616 0.35936 0.0
H387 H 0.94132 0.2887 0.27718 0.0
H388 H 0.09928 0.32458 0.31758 0.0
H389 H 0.93044 0.17041 0.3154 0.0
C390 C 0.96063 0.13866 0.33737 0.0
C391 C 0.00357 0.14745 0.34981 0.0
C392 C 0.06461 0.31683 0.30877 0.0
C393 C 0.01067 0.22786 0.32508 0.0
C394 C 0.06835 0.35435 0.29483 0.0
C395 C 0.02397 0.34527 0.28322 0.0
C396 C 0.01622 0.26971 0.311 0.0
C397 C 0.9764 0.29773 0.28596 0.0
C398 C 0.96388 0.17863 0.32512 0.0
C399 C 0.04894 0.19778 0.35002 0.0
N400 N 0.97387 0.26179 0.29949 0.0
N401 N 0.05152 0.23603 0.33767 0.0
loop_
_geom_bond_atom_site_label_1
_geom_bond_atom_site_label_2
_geom_bond_distance
_geom_bond_site_symmetry_2
_ccdc_geom_bond_type
Co0 O1 2.216 1_445 S
Co0 O2 2.091 1_545 S
Co0 O4 2.004 . S
Co0 O10 2.021 1_445 S
Co0 O12 2.137 . S
Co0 O13 2.244 1_455 S
O1 Co0 2.216 1_665 S
O1 C8 1.247 1_655 S
O2 Co0 2.091 1_565 S
O2 C8 1.261 . S
C3 O12 1.247 . S
C3 O13 1.272 1_455 S
O4 Co0 2.004 . S
O4 C9 1.259 . S
Co5 O6 2.061 1_655 S
Co5 O11 2.052 . S
Co5 O13 2.135 . S
O6 Co5 2.061 1_455 S
O6 C9 1.235 . S
C7 O10 1.238 . S
C7 O11 1.241 1_565 S
C8 O1 1.247 1_455 S
C8 O2 1.261 . S
C9 O4 1.259 . S
C9 O6 1.235 . S
O10 Co0 2.021 1_665 S
O10 C7 1.238 . S
O11 Co5 2.052 . S
O11 C7 1.241 1_545 S
O12 Co0 2.137 . S
O12 C3 1.247 . S
O13 Co0 2.244 1_655 S
O13 C3 1.272 1_655 S
O13 Co5 2.135 . S
Co14 O15 2.216 1_455 S
Co14 O16 2.091 . S
Co14 O18 2.004 . S
Co14 O24 2.021 1_455 S
Co14 O26 2.137 . S
Co14 O27 2.244 1_445 S
O15 Co14 2.216 1_655 S
O15 C22 1.247 1_655 S
O16 Co14 2.091 . S
O16 C22 1.261 . S
C17 O26 1.247 1_565 S
C17 O27 1.272 1_455 S
O18 Co14 2.004 . S
O18 C23 1.259 . S
Co19 O20 2.061 1_655 S
Co19 O25 2.052 . S
Co19 O27 2.135 . S
O20 Co19 2.061 1_455 S
O20 C23 1.235 1_565 S
C21 O24 1.238 . S
C21 O25 1.241 1_545 S
C22 O15 1.247 1_455 S
C22 O16 1.261 . S
C23 O18 1.259 . S
C23 O20 1.235 1_545 S
O24 Co14 2.021 1_655 S
O24 C21 1.238 . S
O25 Co19 2.052 . S
O25 C21 1.241 1_565 S
O26 Co14 2.137 . S
O26 C17 1.247 1_545 S
O27 Co14 2.244 1_665 S
O27 C17 1.272 1_655 S
O27 Co19 2.135 . S
Co28 O29 2.216 . S
Co28 O30 2.091 1_545 S
Co28 O32 2.004 1_445 S
Co28 O38 2.021 . S
Co28 O40 2.137 1_445 S
Co28 O41 2.244 1_455 S
O29 Co28 2.216 . S
O29 C36 1.247 . S
O30 Co28 2.091 1_565 S
O30 C36 1.261 1_565 S
C31 O40 1.247 1_545 S
C31 O41 1.272 . S
O32 Co28 2.004 1_665 S
O32 C37 1.259 . S
Co33 O34 2.061 1_545 S
Co33 O39 2.052 1_655 S
Co33 O41 2.135 . S
O34 Co33 2.061 1_565 S
O34 C37 1.235 . S
C35 O38 1.238 . S
C35 O39 1.241 . S
C36 O29 1.247 . S
C36 O30 1.261 1_545 S
C37 O32 1.259 . S
C37 O34 1.235 . S
O38 Co28 2.021 . S
O38 C35 1.238 . S
O39 Co33 2.052 1_455 S
O39 C35 1.241 . S
O40 Co28 2.137 1_665 S
O40 C31 1.247 1_565 S
O41 Co28 2.244 1_655 S
O41 C31 1.272 . S
O41 Co33 2.135 . S
H42 C61 0.949 . S
H43 C62 0.950 . S
H44 C64 0.950 . S
H45 C65 0.950 . S
H46 C67 0.950 . S
H47 C70 0.950 . S
H48 C71 0.950 . S
H49 C73 0.951 . S
H50 C74 0.949 . S
H51 C76 0.949 . S
H52 C77 0.950 . S
H53 C79 0.950 . S
H54 C80 0.950 . S
H55 C82 0.950 1_655 S
H56 C85 0.950 . S
H57 C86 0.950 . S
H58 C88 0.951 . S
H59 C89 0.949 . S
C60 C61 1.376 . S
C60 C65 1.386 1_455 S
C60 C66 1.483 . S
C61 H42 0.949 . S
C61 C60 1.376 . S
C61 C62 1.397 . S
C62 H43 0.950 . S
C62 C61 1.397 . S
C62 C63 1.391 . S
C63 C62 1.391 . S
C63 C64 1.405 1_455 S
C64 H44 0.950 . S
C64 C63 1.405 1_655 S
C64 C65 1.367 . S
C65 H45 0.950 . S
C65 C60 1.386 1_655 S
C65 C64 1.367 . S
C66 C60 1.483 . S
C66 C67 1.382 . S
C66 C68 1.403 . S
C67 H46 0.950 . S
C67 C66 1.382 . S
C67 C83 1.411 . S
C68 C66 1.403 . S
C68 C69 1.489 . S
C68 C82 1.411 . S
C69 C68 1.489 . S
C69 C70 1.383 . S
C69 C74 1.382 1_455 S
C70 H47 0.950 . S
C70 C69 1.383 . S
C70 C71 1.395 . S
C71 H48 0.950 . S
C71 C70 1.395 . S
C71 C72 1.288 . S
C72 C71 1.288 . S
C72 C73 1.392 1_455 S
C73 H49 0.951 . S
C73 C72 1.392 1_655 S
C73 C74 1.392 . S
C74 H50 0.949 . S
C74 C69 1.382 1_655 S
C74 C73 1.392 . S
C75 C76 1.376 1_455 S
C75 C80 1.386 . S
C75 C81 1.483 . S
C76 H51 0.949 . S
C76 C75 1.376 1_655 S
C76 C77 1.397 . S
C77 H52 0.950 . S
C77 C76 1.397 . S
C77 C78 1.391 1_655 S
C78 C77 1.391 1_455 S
C78 C79 1.405 . S
C79 H53 0.950 . S
C79 C78 1.405 . S
C79 C80 1.367 . S
C80 H54 0.950 . S
C80 C75 1.386 . S
C80 C79 1.367 . S
C81 C75 1.483 . S
C81 C82 1.382 . S
C81 C83 1.403 . S
C82 H55 0.950 1_455 S
C82 C68 1.411 . S
C82 C81 1.382 . S
C83 C67 1.411 . S
C83 C81 1.403 . S
C83 C84 1.489 . S
C84 C83 1.489 . S
C84 C85 1.383 1_455 S
C84 C89 1.382 . S
C85 H56 0.950 . S
C85 C84 1.383 1_655 S
C85 C86 1.395 . S
C86 H57 0.950 . S
C86 C85 1.395 . S
C86 C87 1.288 1_655 S
C87 C86 1.288 1_455 S
C87 C88 1.392 . S
C88 H58 0.951 . S
C88 C87 1.392 . S
C88 C89 1.392 . S
C89 H59 0.949 . S
C89 C84 1.382 . S
C89 C88 1.392 . S
H90 C109 0.949 . S
H91 C110 0.950 . S
H92 C112 0.950 . S
H93 C113 0.950 . S
H94 C115 0.950 . S
H95 C118 0.950 . S
H96 C119 0.950 . S
H97 C121 0.951 . S
H98 C122 0.949 . S
H99 C124 0.949 . S
H100 C125 0.950 . S
H101 C127 0.950 . S
H102 C128 0.950 . S
H103 C130 0.950 . S
H104 C133 0.950 . S
H105 C134 0.950 . S
H106 C136 0.951 . S
H107 C137 0.949 . S
C108 C109 1.376 . S
C108 C113 1.386 1_545 S
C108 C114 1.483 . S
C109 H90 0.949 . S
C109 C108 1.376 . S
C109 C110 1.397 . S
C110 H91 0.950 . S
C110 C109 1.397 . S
C110 C111 1.391 . S
C111 C110 1.391 . S
C111 C112 1.405 1_545 S
C112 H92 0.950 . S
C112 C111 1.405 1_565 S
C112 C113 1.367 . S
C113 H93 0.950 . S
C113 C108 1.386 1_565 S
C113 C112 1.367 . S
C114 C108 1.483 . S
C114 C115 1.382 . S
C114 C116 1.403 . S
C115 H94 0.950 . S
C115 C114 1.382 . S
C115 C131 1.411 . S
C116 C114 1.403 . S
C116 C117 1.489 . S
C116 C130 1.411 . S
C117 C116 1.489 . S
C117 C118 1.383 . S
C117 C122 1.382 1_545 S
C118 H95 0.950 . S
C118 C117 1.383 . S
C118 C119 1.395 . S
C119 H96 0.950 . S
C119 C118 1.395 . S
C119 C120 1.288 . S
C120 C119 1.288 . S
C120 C121 1.392 1_545 S
C121 H97 0.951 . S
C121 C120 1.392 1_565 S
C121 C122 1.392 . S
C122 H98 0.949 . S
C122 C117 1.382 1_565 S
C122 C121 1.392 . S
C123 C124 1.376 1_545 S
C123 C128 1.386 . S
C123 C129 1.483 . S
C124 H99 0.949 . S
C124 C123 1.376 1_565 S
C124 C125 1.397 . S
C125 H100 0.950 . S
C125 C124 1.397 . S
C125 C126 1.391 1_565 S
C126 C125 1.391 1_545 S
C126 C127 1.405 . S
C127 H101 0.950 . S
C127 C126 1.405 . S
C127 C128 1.367 . S
C128 H102 0.950 . S
C128 C123 1.386 . S
C128 C127 1.367 . S
C129 C123 1.483 . S
C129 C130 1.382 . S
C129 C131 1.403 . S
C130 H103 0.950 . S
C130 C116 1.411 . S
C130 C129 1.382 . S
C131 C115 1.411 . S
C131 C129 1.403 . S
C131 C132 1.489 . S
C132 C131 1.489 . S
C132 C133 1.383 1_545 S
C132 C137 1.382 . S
C133 H104 0.950 . S
C133 C132 1.383 1_565 S
C133 C134 1.395 . S
C134 H105 0.950 . S
C134 C133 1.395 . S
C134 C135 1.288 1_565 S
C135 C134 1.288 1_545 S
C135 C136 1.392 . S
C136 H106 0.951 . S
C136 C135 1.392 . S
C136 C137 1.392 . S
C137 H107 0.949 . S
C137 C132 1.382 . S
C137 C136 1.392 . S
H138 C157 0.949 . S
H139 C158 0.950 . S
H140 C160 0.950 . S
H141 C161 0.950 . S
H142 C163 0.950 . S
H143 C166 0.950 . S
H144 C167 0.950 . S
H145 C169 0.951 . S
H146 C170 0.949 . S
H147 C172 0.949 . S
H148 C173 0.950 . S
H149 C175 0.950 . S
H150 C176 0.950 . S
H151 C178 0.950 . S
H152 C181 0.950 . S
H153 C182 0.950 . S
H154 C184 0.951 . S
H155 C185 0.949 . S
C156 C157 1.376 . S
C156 C161 1.386 . S
C156 C162 1.483 . S
C157 H138 0.949 . S
C157 C156 1.376 . S
C157 C158 1.397 . S
C158 H139 0.950 . S
C158 C157 1.397 . S
C158 C159 1.391 . S
C159 C158 1.391 . S
C159 C160 1.405 . S
C160 H140 0.950 . S
C160 C159 1.405 . S
C160 C161 1.367 . S
C161 H141 0.950 . S
C161 C156 1.386 . S
C161 C160 1.367 . S
C162 C156 1.483 . S
C162 C163 1.382 . S
C162 C164 1.403 . S
C163 H142 0.950 . S
C163 C162 1.382 . S
C163 C179 1.411 . S
C164 C162 1.403 . S
C164 C165 1.489 . S
C164 C178 1.411 . S
C165 C164 1.489 . S
C165 C166 1.383 . S
C165 C170 1.382 . S
C166 H143 0.950 . S
C166 C165 1.383 . S
C166 C167 1.395 . S
C167 H144 0.950 . S
C167 C166 1.395 . S
C167 C168 1.288 . S
C168 C167 1.288 . S
C168 C169 1.392 . S
C169 H145 0.951 . S
C169 C168 1.392 . S
C169 C170 1.392 . S
C170 H146 0.949 . S
C170 C165 1.382 . S
C170 C169 1.392 . S
C171 C172 1.376 . S
C171 C176 1.386 . S
C171 C177 1.483 . S
C172 H147 0.949 . S
C172 C171 1.376 . S
C172 C173 1.397 . S
C173 H148 0.950 . S
C173 C172 1.397 . S
C173 C174 1.391 . S
C174 C173 1.391 . S
C174 C175 1.405 . S
C175 H149 0.950 . S
C175 C174 1.405 . S
C175 C176 1.367 . S
C176 H150 0.950 . S
C176 C171 1.386 . S
C176 C175 1.367 . S
C177 C171 1.483 . S
C177 C178 1.382 . S
C177 C179 1.403 . S
C178 H151 0.950 . S
C178 C164 1.411 . S
C178 C177 1.382 . S
C179 C163 1.411 . S
C179 C177 1.403 . S
C179 C180 1.489 . S
C180 C179 1.489 . S
C180 C181 1.383 . S
C180 C185 1.382 . S
C181 H152 0.950 . S
C181 C180 1.383 . S
C181 C182 1.395 . S
C182 H153 0.950 . S
C182 C181 1.395 . S
C182 C183 1.288 . S
C183 C182 1.288 . S
C183 C184 1.392 . S
C184 H154 0.951 . S
C184 C183 1.392 . S
C184 C185 1.392 . S
C185 H155 0.949 . S
C185 C180 1.382 . S
C185 C184 1.392 . S
H186 C192 0.930 . S
H187 C196 0.930 . S
H188 C201 0.929 . S
H189 C199 0.929 . S
H190 C194 0.929 . S
H191 C200 0.929 . S
C192 H186 0.930 . S
C192 C193 1.367 . S
C192 C200 1.378 . S
C193 C192 1.367 . S
C193 C201 1.433 . S
C194 H190 0.929 . S
C194 C196 1.378 . S
C194 C198 1.350 . S
C195 C198 1.463 . S
C195 C200 1.350 . S
C195 N203 1.427 . S
C196 H187 0.930 . S
C196 C194 1.378 . S
C196 C197 1.367 . S
C197 C196 1.367 . S
C197 C199 1.433 . S
C198 C194 1.350 . S
C198 C195 1.463 . S
C198 N202 1.427 . S
C199 H189 0.929 . S
C199 C197 1.433 . S
C199 N202 1.384 . S
C200 H191 0.929 . S
C200 C192 1.378 . S
C200 C195 1.350 . S
C201 H188 0.929 . S
C201 C193 1.433 . S
C201 N203 1.384 . S
N202 C198 1.427 . S
N202 C199 1.384 . S
N203 C195 1.427 . S
N203 C201 1.384 . S
H204 C210 0.930 . S
H205 C214 0.930 . S
H206 C219 0.929 . S
H207 C217 0.929 . S
H208 C212 0.929 . S
H209 C218 0.929 . S
C210 H204 0.930 . S
C210 C211 1.367 . S
C210 C218 1.378 . S
C211 C210 1.367 . S
C211 C219 1.433 . S
C212 H208 0.929 . S
C212 C214 1.378 . S
C212 C216 1.350 . S
C213 C216 1.463 . S
C213 C218 1.350 . S
C213 N221 1.427 . S
C214 H205 0.930 . S
C214 C212 1.378 . S
C214 C215 1.367 . S
C215 C214 1.367 . S
C215 C217 1.433 . S
C216 C212 1.350 . S
C216 C213 1.463 . S
C216 N220 1.427 . S
C217 H207 0.929 . S
C217 C215 1.433 . S
C217 N220 1.384 . S
C218 H209 0.929 . S
C218 C210 1.378 . S
C218 C213 1.350 . S
C219 H206 0.929 . S
C219 C211 1.433 . S
C219 N221 1.384 . S
N220 C216 1.427 . S
N220 C217 1.384 . S
N221 C213 1.427 . S
N221 C219 1.384 . S
H222 C228 0.930 . S
H223 C232 0.930 . S
H224 C237 0.929 . S
H225 C235 0.929 . S
H226 C230 0.929 . S
H227 C236 0.929 . S
C228 H222 0.930 . S
C228 C229 1.367 . S
C228 C236 1.378 . S
C229 C228 1.367 . S
C229 C237 1.433 . S
C230 H226 0.929 . S
C230 C232 1.378 . S
C230 C234 1.350 . S
C231 C234 1.463 . S
C231 C236 1.350 . S
C231 N239 1.427 . S
C232 H223 0.930 . S
C232 C230 1.378 . S
C232 C233 1.367 . S
C233 C232 1.367 . S
C233 C235 1.433 . S
C234 C230 1.350 . S
C234 C231 1.463 . S
C234 N238 1.427 . S
C235 H225 0.929 . S
C235 C233 1.433 . S
C235 N238 1.384 . S
C236 H227 0.929 . S
C236 C228 1.378 . S
C236 C231 1.350 . S
C237 H224 0.929 . S
C237 C229 1.433 . S
C237 N239 1.384 . S
N238 C234 1.427 . S
N238 C235 1.384 . S
N239 C231 1.427 . S
N239 C237 1.384 . S
H240 C246 0.930 . S
H241 C250 0.930 . S
H242 C255 0.929 . S
H243 C253 0.929 . S
H244 C248 0.929 . S
H245 C254 0.929 . S
C246 H240 0.930 . S
C246 C247 1.367 . S
C246 C254 1.378 . S
C247 C246 1.367 . S
C247 C255 1.433 1_455 S
C248 H244 0.929 . S
C248 C250 1.378 . S
C248 C252 1.350 1_655 S
C249 C252 1.463 . S
C249 C254 1.350 . S
C249 N257 1.427 1_455 S
C250 H241 0.930 . S
C250 C248 1.378 . S
C250 C251 1.367 1_655 S
C251 C250 1.367 1_455 S
C251 C253 1.433 . S
C252 C248 1.350 1_455 S
C252 C249 1.463 . S
C252 N256 1.427 . S
C253 H243 0.929 . S
C253 C251 1.433 . S
C253 N256 1.384 . S
C254 H245 0.929 . S
C254 C246 1.378 . S
C254 C249 1.350 . S
C255 H242 0.929 . S
C255 C247 1.433 1_655 S
C255 N257 1.384 . S
N256 C252 1.427 . S
N256 C253 1.384 . S
N257 C249 1.427 1_655 S
N257 C255 1.384 . S
H258 C264 0.930 . S
H259 C268 0.930 . S
H260 C273 0.929 . S
H261 C271 0.929 . S
H262 C266 0.929 . S
H263 C272 0.929 . S
C264 H258 0.930 . S
C264 C265 1.367 . S
C264 C272 1.378 . S
C265 C264 1.367 . S
C265 C273 1.433 1_545 S
C266 H262 0.929 . S
C266 C268 1.378 . S
C266 C270 1.350 1_565 S
C267 C270 1.463 . S
C267 C272 1.350 . S
C267 N275 1.427 1_545 S
C268 H259 0.930 . S
C268 C266 1.378 . S
C268 C269 1.367 1_565 S
C269 C268 1.367 1_545 S
C269 C271 1.433 . S
C270 C266 1.350 1_545 S
C270 C267 1.463 . S
C270 N274 1.427 . S
C271 H261 0.929 . S
C271 C269 1.433 . S
C271 N274 1.384 . S
C272 H263 0.929 . S
C272 C264 1.378 . S
C272 C267 1.350 . S
C273 H260 0.929 . S
C273 C265 1.433 1_565 S
C273 N275 1.384 . S
N274 C270 1.427 . S
N274 C271 1.384 . S
N275 C267 1.427 1_565 S
N275 C273 1.384 . S
H276 C282 0.930 . S
H277 C286 0.930 . S
H278 C291 0.929 . S
H279 C289 0.929 . S
H280 C284 0.929 . S
H281 C290 0.929 . S
C282 H276 0.930 . S
C282 C283 1.367 . S
C282 C290 1.378 . S
C283 C282 1.367 . S
C283 C291 1.433 . S
C284 H280 0.929 . S
C284 C286 1.378 . S
C284 C288 1.350 . S
C285 C288 1.463 . S
C285 C290 1.350 . S
C285 N293 1.427 . S
C286 H277 0.930 . S
C286 C284 1.378 . S
C286 C287 1.367 . S
C287 C286 1.367 . S
C287 C289 1.433 . S
C288 C284 1.350 . S
C288 C285 1.463 . S
C288 N292 1.427 . S
C289 H279 0.929 . S
C289 C287 1.433 . S
C289 N292 1.384 . S
C290 H281 0.929 . S
C290 C282 1.378 . S
C290 C285 1.350 . S
C291 H278 0.929 . S
C291 C283 1.433 . S
C291 N293 1.384 . S
N292 C288 1.427 . S
N292 C289 1.384 . S
N293 C285 1.427 . S
N293 C291 1.384 . S
H294 C300 0.930 . S
H295 C304 0.930 . S
H296 C309 0.929 . S
H297 C307 0.929 . S
H298 C302 0.929 . S
H299 C308 0.929 . S
C300 H294 0.930 . S
C300 C301 1.367 1_565 S
C300 C308 1.378 . S
C301 C300 1.367 1_545 S
C301 C309 1.433 . S
C302 H298 0.929 . S
C302 C304 1.378 . S
C302 C306 1.350 . S
C303 C306 1.463 . S
C303 C308 1.350 1_545 S
C303 N311 1.427 . S
C304 H295 0.930 . S
C304 C302 1.378 . S
C304 C305 1.367 . S
C305 C304 1.367 . S
C305 C307 1.433 1_545 S
C306 C302 1.350 . S
C306 C303 1.463 . S
C306 N310 1.427 1_545 S
C307 H297 0.929 . S
C307 C305 1.433 1_565 S
C307 N310 1.384 . S
C308 H299 0.929 . S
C308 C300 1.378 . S
C308 C303 1.350 1_565 S
C309 H296 0.929 . S
C309 C301 1.433 . S
C309 N311 1.384 . S
N310 C306 1.427 1_565 S
N310 C307 1.384 . S
N311 C303 1.427 . S
N311 C309 1.384 . S
H312 C318 0.930 . S
H313 C322 0.930 . S
H314 C327 0.929 . S
H315 C325 0.929 . S
H316 C320 0.929 . S
H317 C326 0.929 . S
C318 H312 0.930 . S
C318 C319 1.367 . S
C318 C326 1.378 . S
C319 C318 1.367 . S
C319 C327 1.433 1_554 S
C320 H316 0.929 . S
C320 C322 1.378 . S
C320 C324 1.350 . S
C321 C324 1.463 . S
C321 C326 1.350 1_556 S
C321 N329 1.427 . S
C322 H313 0.930 . S
C322 C320 1.378 . S
C322 C323 1.367 . S
C323 C322 1.367 . S
C323 C325 1.433 . S
C324 C320 1.350 . S
C324 C321 1.463 . S
C324 N328 1.427 . S
C325 H315 0.929 . S
C325 C323 1.433 . S
C325 N328 1.384 . S
C326 H317 0.929 . S
C326 C318 1.378 . S
C326 C321 1.350 1_554 S
C327 H314 0.929 . S
C327 C319 1.433 1_556 S
C327 N329 1.384 . S
N328 C324 1.427 . S
N328 C325 1.384 . S
N329 C321 1.427 . S
N329 C327 1.384 . S
H330 C336 0.930 . S
H331 C340 0.930 . S
H332 C345 0.929 . S
H333 C343 0.929 . S
H334 C338 0.929 . S
H335 C344 0.929 . S
C336 H330 0.930 . S
C336 C337 1.367 1_655 S
C336 C344 1.378 . S
C337 C336 1.367 1_455 S
C337 C345 1.433 . S
C338 H334 0.929 . S
C338 C340 1.378 . S
C338 C342 1.350 . S
C339 C342 1.463 . S
C339 C344 1.350 1_455 S
C339 N347 1.427 . S
C340 H331 0.930 . S
C340 C338 1.378 . S
C340 C341 1.367 . S
C341 C340 1.367 . S
C341 C343 1.433 1_455 S
C342 C338 1.350 . S
C342 C339 1.463 . S
C342 N346 1.427 1_455 S
C343 H333 0.929 . S
C343 C341 1.433 1_655 S
C343 N346 1.384 . S
C344 H335 0.929 . S
C344 C336 1.378 . S
C344 C339 1.350 1_655 S
C345 H332 0.929 . S
C345 C337 1.433 . S
C345 N347 1.384 . S
N346 C342 1.427 1_655 S
N346 C343 1.384 . S
N347 C339 1.427 . S
N347 C345 1.384 . S
H348 C354 0.930 . S
H349 C358 0.930 . S
H350 C363 0.929 . S
H351 C361 0.929 . S
H352 C356 0.929 . S
H353 C362 0.929 . S
C354 H348 0.930 . S
C354 C355 1.367 1_565 S
C354 C362 1.378 . S
C355 C354 1.367 1_545 S
C355 C363 1.433 . S
C356 H352 0.929 . S
C356 C358 1.378 . S
C356 C360 1.350 . S
C357 C360 1.463 . S
C357 C362 1.350 1_545 S
C357 N365 1.427 . S
C358 H349 0.930 . S
C358 C356 1.378 . S
C358 C359 1.367 . S
C359 C358 1.367 . S
C359 C361 1.433 1_545 S
C360 C356 1.350 . S
C360 C357 1.463 . S
C360 N364 1.427 1_545 S
C361 H351 0.929 . S
C361 C359 1.433 1_565 S
C361 N364 1.384 . S
C362 H353 0.929 . S
C362 C354 1.378 . S
C362 C357 1.350 1_565 S
C363 H350 0.929 . S
C363 C355 1.433 . S
C363 N365 1.384 . S
N364 C360 1.427 1_565 S
N364 C361 1.384 . S
N365 C357 1.427 . S
N365 C363 1.384 . S
H366 C372 0.930 . S
H367 C376 0.930 . S
H368 C381 0.929 . S
H369 C379 0.929 . S
H370 C374 0.929 . S
H371 C380 0.929 . S
C372 H366 0.930 . S
C372 C373 1.367 1_556 S
C372 C380 1.378 . S
C373 C372 1.367 1_554 S
C373 C381 1.433 . S
C374 H370 0.929 . S
C374 C376 1.378 . S
C374 C378 1.350 . S
C375 C378 1.463 . S
C375 C380 1.350 . S
C375 N383 1.427 1_556 S
C376 H367 0.930 . S
C376 C374 1.378 . S
C376 C377 1.367 . S
C377 C376 1.367 . S
C377 C379 1.433 . S
C378 C374 1.350 . S
C378 C375 1.463 . S
C378 N382 1.427 . S
C379 H369 0.929 . S
C379 C377 1.433 . S
C379 N382 1.384 . S
C380 H371 0.929 . S
C380 C372 1.378 . S
C380 C375 1.350 . S
C381 H368 0.929 . S
C381 C373 1.433 . S
C381 N383 1.384 . S
N382 C378 1.427 . S
N382 C379 1.384 . S
N383 C375 1.427 1_554 S
N383 C381 1.384 . S
H384 C390 0.930 . S
H385 C394 0.930 . S
H386 C399 0.929 . S
H387 C397 0.929 . S
H388 C392 0.929 . S
H389 C398 0.929 . S
C390 H384 0.930 . S
C390 C391 1.366 1_655 S
C390 C398 1.379 . S
C391 C390 1.366 1_455 S
C391 C399 1.433 . S
C392 H388 0.929 . S
C392 C394 1.378 . S
C392 C396 1.350 . S
C393 C396 1.463 . S
C393 C398 1.350 1_455 S
C393 N401 1.427 . S
C394 H385 0.930 . S
C394 C392 1.378 . S
C394 C395 1.367 . S
C395 C394 1.367 . S
C395 C397 1.433 1_455 S
C396 C392 1.350 . S
C396 C393 1.463 . S
C396 N400 1.427 1_455 S
C397 H387 0.929 . S
C397 C395 1.433 1_655 S
C397 N400 1.384 . S
C398 H389 0.929 . S
C398 C390 1.379 . S
C398 C393 1.350 1_655 S
C399 H386 0.929 . S
C399 C391 1.433 . S
C399 N401 1.384 . S
N400 C396 1.427 1_655 S
N400 C397 1.384 . S
N401 C393 1.427 . S
N401 C399 1.384 . S
C197 C63 1.511 . S
C193 C3 1.509 . S
C211 C21 1.523 . S
C215 C111 1.545 . S
C229 C37 1.510 . S
C233 C183 1.519 . S
C247 C8 1.518 . S
C251 C87 1.512 . S
C269 C135 1.527 . S
C265 C23 1.516 . S
C283 C35 1.509 . S
C287 C159 1.527 . S
C305 C120 1.500 . S
C301 C31 1.497 . S
C319 C7 1.507 . S
C323 C174 1.530 . S
C341 C78 1.513 . S
C337 C17 1.511 . S
C359 C126 1.496 . S
C355 C36 1.495 . S
C377 C168 1.525 . S
C373 C9 1.505 . S
C391 C22 1.518 . S
C395 C72 1.514 . S
