# Generated by pormake.
# Topology eea, (3,6)-cn, num edge types: 1
# Building blocks:
#     Node 0, Type 0, BuildingBlock: VETTIZ_charged_linker_0, # of connection points: 3
#     Node 1, Type 0, BuildingBlock: VETTIZ_charged_linker_0, # of connection points: 3
#     Node 2, Type 0, BuildingBlock: VETTIZ_charged_linker_0, # of connection points: 3
#     Node 3, Type 0, BuildingBlock: VETTIZ_charged_linker_0, # of connection points: 3
#     Node 4, Type 0, BuildingBlock: VETTIZ_charged_linker_0, # of connection points: 3
#     Node 5, Type 0, BuildingBlock: VETTIZ_charged_linker_0, # of connection points: 3
#     Node 6, Type 0, BuildingBlock: VETTIZ_charged_linker_0, # of connection points: 3
#     Node 7, Type 0, BuildingBlock: VETTIZ_charged_linker_0, # of connection points: 3
#     Node 8, Type 0, BuildingBlock: VETTIZ_charged_linker_0, # of connection points: 3
#     Node 9, Type 0, BuildingBlock: VETTIZ_charged_linker_0, # of connection points: 3
#     Node 10, Type 0, BuildingBlock: VETTIZ_charged_linker_0, # of connection points: 3
#     Node 11, Type 0, BuildingBlock: VETTIZ_charged_linker_0, # of connection points: 3
#     Node 12, Type 0, BuildingBlock: VETTIZ_charged_linker_0, # of connection points: 3
#     Node 13, Type 0, BuildingBlock: VETTIZ_charged_linker_0, # of connection points: 3
#     Node 14, Type 0, BuildingBlock: VETTIZ_charged_linker_0, # of connection points: 3
#     Node 15, Type 0, BuildingBlock: VETTIZ_charged_linker_0, # of connection points: 3
#     Node 16, Type 0, BuildingBlock: VETTIZ_charged_linker_0, # of connection points: 3
#     Node 17, Type 0, BuildingBlock: VETTIZ_charged_linker_0, # of connection points: 3
#     Node 18, Type 1, BuildingBlock: CUKXOW_clean_sbu_0, # of connection points: 6
#     Node 19, Type 1, BuildingBlock: CUKXOW_clean_sbu_0, # of connection points: 6
#     Node 20, Type 1, BuildingBlock: CUKXOW_clean_sbu_0, # of connection points: 6
#     Node 21, Type 1, BuildingBlock: CUKXOW_clean_sbu_0, # of connection points: 6
#     Node 22, Type 1, BuildingBlock: CUKXOW_clean_sbu_0, # of connection points: 6
#     Node 23, Type 1, BuildingBlock: CUKXOW_clean_sbu_0, # of connection points: 6
#     Node 24, Type 1, BuildingBlock: CUKXOW_clean_sbu_0, # of connection points: 6
#     Node 25, Type 1, BuildingBlock: CUKXOW_clean_sbu_0, # of connection points: 6
#     Node 26, Type 1, BuildingBlock: CUKXOW_clean_sbu_0, # of connection points: 6
#     Edge 27, Type (0, 1), BuildingBlock: UVAHIK_clean_linker_0, # of connection points: 2
#     Edge 28, Type (0, 1), BuildingBlock: UVAHIK_clean_linker_0, # of connection points: 2
#     Edge 29, Type (0, 1), BuildingBlock: UVAHIK_clean_linker_0, # of connection points: 2
#     Edge 30, Type (0, 1), BuildingBlock: UVAHIK_clean_linker_0, # of connection points: 2
#     Edge 31, Type (0, 1), BuildingBlock: UVAHIK_clean_linker_0, # of connection points: 2
#     Edge 32, Type (0, 1), BuildingBlock: UVAHIK_clean_linker_0, # of connection points: 2
#     Edge 33, Type (0, 1), BuildingBlock: UVAHIK_clean_linker_0, # of connection points: 2
#     Edge 34, Type (0, 1), BuildingBlock: UVAHIK_clean_linker_0, # of connection points: 2
#     Edge 35, Type (0, 1), BuildingBlock: UVAHIK_clean_linker_0, # of connection points: 2
#     Edge 36, Type (0, 1), BuildingBlock: UVAHIK_clean_linker_0, # of connection points: 2
#     Edge 37, Type (0, 1), BuildingBlock: UVAHIK_clean_linker_0, # of connection points: 2
#     Edge 38, Type (0, 1), BuildingBlock: UVAHIK_clean_linker_0, # of connection points: 2
#     Edge 39, Type (0, 1), BuildingBlock: UVAHIK_clean_linker_0, # of connection points: 2
#     Edge 40, Type (0, 1), BuildingBlock: UVAHIK_clean_linker_0, # of connection points: 2
#     Edge 41, Type (0, 1), BuildingBlock: UVAHIK_clean_linker_0, # of connection points: 2
#     Edge 42, Type (0, 1), BuildingBlock: UVAHIK_clean_linker_0, # of connection points: 2
#     Edge 43, Type (0, 1), BuildingBlock: UVAHIK_clean_linker_0, # of connection points: 2
#     Edge 44, Type (0, 1), BuildingBlock: UVAHIK_clean_linker_0, # of connection points: 2
#     Edge 45, Type (0, 1), BuildingBlock: UVAHIK_clean_linker_0, # of connection points: 2
#     Edge 46, Type (0, 1), BuildingBlock: UVAHIK_clean_linker_0, # of connection points: 2
#     Edge 47, Type (0, 1), BuildingBlock: UVAHIK_clean_linker_0, # of connection points: 2
#     Edge 48, Type (0, 1), BuildingBlock: UVAHIK_clean_linker_0, # of connection points: 2
#     Edge 49, Type (0, 1), BuildingBlock: UVAHIK_clean_linker_0, # of connection points: 2
#     Edge 50, Type (0, 1), BuildingBlock: UVAHIK_clean_linker_0, # of connection points: 2
#     Edge 51, Type (0, 1), BuildingBlock: UVAHIK_clean_linker_0, # of connection points: 2
#     Edge 52, Type (0, 1), BuildingBlock: UVAHIK_clean_linker_0, # of connection points: 2
#     Edge 53, Type (0, 1), BuildingBlock: UVAHIK_clean_linker_0, # of connection points: 2
#     Edge 54, Type (0, 1), BuildingBlock: UVAHIK_clean_linker_0, # of connection points: 2
#     Edge 55, Type (0, 1), BuildingBlock: UVAHIK_clean_linker_0, # of connection points: 2
#     Edge 56, Type (0, 1), BuildingBlock: UVAHIK_clean_linker_0, # of connection points: 2
#     Edge 57, Type (0, 1), BuildingBlock: UVAHIK_clean_linker_0, # of connection points: 2
#     Edge 58, Type (0, 1), BuildingBlock: UVAHIK_clean_linker_0, # of connection points: 2
#     Edge 59, Type (0, 1), BuildingBlock: UVAHIK_clean_linker_0, # of connection points: 2
#     Edge 60, Type (0, 1), BuildingBlock: UVAHIK_clean_linker_0, # of connection points: 2
#     Edge 61, Type (0, 1), BuildingBlock: UVAHIK_clean_linker_0, # of connection points: 2
#     Edge 62, Type (0, 1), BuildingBlock: UVAHIK_clean_linker_0, # of connection points: 2
#     Edge 63, Type (0, 1), BuildingBlock: UVAHIK_clean_linker_0, # of connection points: 2
#     Edge 64, Type (0, 1), BuildingBlock: UVAHIK_clean_linker_0, # of connection points: 2
#     Edge 65, Type (0, 1), BuildingBlock: UVAHIK_clean_linker_0, # of connection points: 2
#     Edge 66, Type (0, 1), BuildingBlock: UVAHIK_clean_linker_0, # of connection points: 2
#     Edge 67, Type (0, 1), BuildingBlock: UVAHIK_clean_linker_0, # of connection points: 2
#     Edge 68, Type (0, 1), BuildingBlock: UVAHIK_clean_linker_0, # of connection points: 2
#     Edge 69, Type (0, 1), BuildingBlock: UVAHIK_clean_linker_0, # of connection points: 2
#     Edge 70, Type (0, 1), BuildingBlock: UVAHIK_clean_linker_0, # of connection points: 2
#     Edge 71, Type (0, 1), BuildingBlock: UVAHIK_clean_linker_0, # of connection points: 2
#     Edge 72, Type (0, 1), BuildingBlock: UVAHIK_clean_linker_0, # of connection points: 2
#     Edge 73, Type (0, 1), BuildingBlock: UVAHIK_clean_linker_0, # of connection points: 2
#     Edge 74, Type (0, 1), BuildingBlock: UVAHIK_clean_linker_0, # of connection points: 2
#     Edge 75, Type (0, 1), BuildingBlock: UVAHIK_clean_linker_0, # of connection points: 2
#     Edge 76, Type (0, 1), BuildingBlock: UVAHIK_clean_linker_0, # of connection points: 2
#     Edge 77, Type (0, 1), BuildingBlock: UVAHIK_clean_linker_0, # of connection points: 2
#     Edge 78, Type (0, 1), BuildingBlock: UVAHIK_clean_linker_0, # of connection points: 2
#     Edge 79, Type (0, 1), BuildingBlock: UVAHIK_clean_linker_0, # of connection points: 2
#     Edge 80, Type (0, 1), BuildingBlock: UVAHIK_clean_linker_0, # of connection points: 2
# Relax obj value: 0.018
# Max RMSD: 0.128
# Mean RMSD: 0.054
data_MOF--net-eea--node1-CUKXOW_clean_sbu_0--node2-VETTIZ_charged_linker_0--edge1-UVAHIK_clean_linker_0
_symmetry_space_group_name_H-M    P1
_symmetry_Int_Tables_number       1
_symmetry_cell_setting            triclinic
loop_
_symmetry_equiv_pos_as_xyz
'x, y, z'
_cell_length_a     81.835814
_cell_length_b     79.009927
_cell_length_c     91.463025
_cell_angle_alpha  92.983961
_cell_angle_beta   92.942833
_cell_angle_gamma 119.88919
loop_
_atom_site_label
_atom_site_type_symbol
_atom_site_fract_x
_atom_site_fract_y
_atom_site_fract_z
_atom_type_partial_charge
C0 C 0.25002 0.1814 0.40057 0.0
C1 C 0.2541 0.19978 0.40701 0.0
C2 C 0.2639 0.20644 0.42111 0.0
C3 C 0.26488 0.17636 0.42227 0.0
C4 C 0.25561 0.17005 0.40832 0.0
C5 C 0.25245 0.15024 0.40298 0.0
H6 H 0.26104 0.07139 0.41566 0.0
C7 C 0.26856 0.161 0.42731 0.0
C8 C 0.26151 0.14577 0.41597 0.0
H9 H 0.23298 0.07991 0.3777 0.0
H10 H 0.2423 0.11238 0.38802 0.0
H11 H 0.29737 0.11376 0.41966 0.0
H12 H 0.24439 0.08954 0.43917 0.0
H13 H 0.26268 0.10291 0.45319 0.0
H14 H 0.2616 0.08223 0.44302 0.0
H15 H 0.29238 0.0982 0.43437 0.0
H16 H 0.30259 0.1244 0.43786 0.0
C17 C 0.26318 0.15251 0.38908 0.0
C18 C 0.2308 0.13583 0.40055 0.0
C19 C 0.29675 0.16724 0.47952 0.0
C20 C 0.30212 0.15547 0.48705 0.0
C21 C 0.30095 0.1389 0.47944 0.0
C22 C 0.2938 0.13363 0.46466 0.0
C23 C 0.2878 0.14509 0.45739 0.0
C24 C 0.28986 0.16191 0.46467 0.0
C25 C 0.28389 0.17293 0.45485 0.0
C26 C 0.27704 0.15942 0.44072 0.0
C27 C 0.27913 0.14301 0.44237 0.0
C28 C 0.30153 0.19304 0.45298 0.0
C29 C 0.26759 0.17433 0.4616 0.0
C30 C 0.25679 0.08017 0.40958 0.0
C31 C 0.24621 0.07292 0.3958 0.0
C32 C 0.24134 0.08511 0.38821 0.0
C33 C 0.24662 0.10396 0.3943 0.0
C34 C 0.25674 0.11074 0.40823 0.0
C35 C 0.26171 0.09893 0.4156 0.0
C36 C 0.27185 0.10828 0.43051 0.0
C37 C 0.27208 0.12764 0.43089 0.0
C38 C 0.26326 0.129 0.41779 0.0
C39 C 0.29208 0.11125 0.43076 0.0
C40 C 0.25968 0.09512 0.44217 0.0
H41 H 0.27648 0.20057 0.43955 0.0
H42 H 0.24273 0.17599 0.38967 0.0
H43 H 0.22309 0.13984 0.40841 0.0
H44 H 0.22682 0.12064 0.40257 0.0
H45 H 0.22516 0.13593 0.38927 0.0
H46 H 0.27696 0.1665 0.39024 0.0
H47 H 0.25484 0.15265 0.37916 0.0
H48 H 0.26685 0.14095 0.38712 0.0
H49 H 0.29788 0.18027 0.48509 0.0
H50 H 0.30505 0.12968 0.48506 0.0
H51 H 0.29296 0.12067 0.45952 0.0
H52 H 0.31481 0.19244 0.45443 0.0
H53 H 0.30279 0.20461 0.46116 0.0
H54 H 0.30146 0.19773 0.44179 0.0
H55 H 0.25716 0.15997 0.46535 0.0
H56 H 0.25947 0.17805 0.45372 0.0
H57 H 0.27307 0.18539 0.47127 0.0
H58 H 0.26709 0.22051 0.42633 0.0
C59 C 0.26927 0.19482 0.42879 0.0
C60 C 0.9248 0.17769 0.40904 0.0
C61 C 0.93966 0.19465 0.41687 0.0
C62 C 0.93726 0.19994 0.43124 0.0
C63 C 0.90565 0.17155 0.42966 0.0
C64 C 0.90805 0.16646 0.41559 0.0
C65 C 0.89116 0.14781 0.40877 0.0
H66 H 0.80423 0.07051 0.41467 0.0
C67 C 0.88657 0.15664 0.43319 0.0
C68 C 0.878 0.14278 0.42093 0.0
H69 H 0.83991 0.08073 0.3791 0.0
H70 H 0.86329 0.1121 0.39138 0.0
H71 H 0.83775 0.08497 0.44013 0.0
H72 H 0.81112 0.1141 0.41992 0.0
H73 H 0.81695 0.12348 0.43844 0.0
H74 H 0.80042 0.09768 0.4338 0.0
H75 H 0.81379 0.07879 0.44235 0.0
H76 H 0.83327 0.09776 0.45416 0.0
C77 C 0.89737 0.13238 0.40589 0.0
C78 C 0.88316 0.15255 0.39485 0.0
C79 C 0.86483 0.15942 0.48398 0.0
C80 C 0.84773 0.14764 0.49021 0.0
C81 C 0.83232 0.13258 0.4811 0.0
C82 C 0.83416 0.12865 0.46638 0.0
C83 C 0.85157 0.13988 0.46056 0.0
C84 C 0.86637 0.15538 0.46916 0.0
C85 C 0.88345 0.16639 0.46075 0.0
C86 C 0.87666 0.1544 0.44592 0.0
C87 C 0.85806 0.13874 0.44598 0.0
C88 C 0.9002 0.16542 0.46848 0.0
C89 C 0.887 0.18746 0.45972 0.0
C90 C 0.81696 0.07971 0.40945 0.0
C91 C 0.8203 0.07325 0.39592 0.0
C92 C 0.83715 0.08541 0.38957 0.0
C93 C 0.85069 0.10359 0.39673 0.0
C94 C 0.84749 0.10957 0.41051 0.0
C95 C 0.83079 0.09776 0.4166 0.0
C96 C 0.83024 0.10603 0.43164 0.0
C97 C 0.84945 0.12466 0.43362 0.0
C98 C 0.85942 0.12667 0.4212 0.0
C99 C 0.82856 0.09118 0.44274 0.0
C100 C 0.81379 0.11048 0.43106 0.0
H101 H 0.91937 0.19326 0.44862 0.0
H102 H 0.9263 0.17297 0.3981 0.0
H103 H 0.88349 0.16673 0.39686 0.0
H104 H 0.86819 0.14162 0.39153 0.0
H105 H 0.89166 0.15378 0.38545 0.0
H106 H 0.90956 0.13526 0.41369 0.0
H107 H 0.90175 0.13249 0.39459 0.0
H108 H 0.88623 0.11736 0.40765 0.0
H109 H 0.87695 0.17119 0.49056 0.0
H110 H 0.81877 0.12369 0.48537 0.0
H111 H 0.82199 0.11682 0.46014 0.0
H112 H 0.8954 0.15048 0.47196 0.0
H113 H 0.90639 0.17595 0.47845 0.0
H114 H 0.91155 0.1683 0.46127 0.0
H115 H 0.87348 0.18765 0.4593 0.0
H116 H 0.89335 0.19375 0.44956 0.0
H117 H 0.89618 0.19739 0.46939 0.0
H118 H 0.94845 0.21302 0.43748 0.0
C119 C 0.92033 0.18851 0.43766 0.0
C120 C 0.93084 0.75104 0.41756 0.0
C121 C 0.9441 0.74629 0.4235 0.0
C122 C 0.94058 0.73679 0.43659 0.0
C123 C 0.91165 0.73799 0.43793 0.0
C124 C 0.91481 0.74673 0.42488 0.0
C125 C 0.89961 0.7512 0.42011 0.0
H126 H 0.82162 0.75522 0.43524 0.0
C127 C 0.89426 0.73663 0.44314 0.0
C128 C 0.88713 0.7443 0.4327 0.0
H129 H 0.85099 0.77021 0.39574 0.0
H130 H 0.873 0.76096 0.4056 0.0
H131 H 0.8221 0.71458 0.43724 0.0
H132 H 0.85706 0.77317 0.4577 0.0
H133 H 0.85575 0.75753 0.47108 0.0
H134 H 0.8344 0.75666 0.46376 0.0
H135 H 0.81438 0.72524 0.45111 0.0
H136 H 0.8269 0.71261 0.45582 0.0
C137 C 0.88928 0.73881 0.40539 0.0
C138 C 0.90893 0.77364 0.41932 0.0
C139 C 0.8729 0.7111 0.4927 0.0
C140 C 0.85856 0.71028 0.50096 0.0
C141 C 0.84638 0.71649 0.49509 0.0
C142 C 0.84844 0.72347 0.48118 0.0
C143 C 0.86297 0.72447 0.47308 0.0
C144 C 0.87498 0.71844 0.47887 0.0
C145 C 0.89024 0.72164 0.46897 0.0
C146 C 0.88516 0.73023 0.45621 0.0
C147 C 0.86912 0.73172 0.45868 0.0
C148 C 0.88808 0.70148 0.46424 0.0
C149 C 0.90961 0.73654 0.47732 0.0
C150 C 0.83262 0.7563 0.4286 0.0
C151 C 0.83454 0.76357 0.41469 0.0
C152 C 0.84933 0.765 0.40658 0.0
C153 C 0.86204 0.75946 0.41228 0.0
C154 C 0.85996 0.75235 0.42623 0.0
C155 C 0.84531 0.75068 0.43406 0.0
C156 C 0.84498 0.7424 0.44853 0.0
C157 C 0.86184 0.73933 0.44809 0.0
C158 C 0.87066 0.74536 0.43509 0.0
C159 C 0.8261 0.72274 0.44833 0.0
C160 C 0.84806 0.75808 0.46099 0.0
H161 H 0.92263 0.72549 0.45376 0.0
H162 H 0.93312 0.75851 0.40763 0.0
H163 H 0.9197 0.78168 0.42879 0.0
H164 H 0.89882 0.77898 0.41993 0.0
H165 H 0.91615 0.77813 0.40908 0.0
H166 H 0.8896 0.72488 0.40454 0.0
H167 H 0.896 0.7469 0.39583 0.0
H168 H 0.87406 0.73414 0.40433 0.0
H169 H 0.88259 0.70665 0.49709 0.0
H170 H 0.83519 0.71587 0.50129 0.0
H171 H 0.83872 0.72798 0.47734 0.0
H172 H 0.87288 0.69003 0.46217 0.0
H173 H 0.89456 0.69678 0.47293 0.0
H174 H 0.89428 0.70134 0.45383 0.0
H175 H 0.90841 0.74764 0.48447 0.0
H176 H 0.92048 0.7452 0.46994 0.0
H177 H 0.91496 0.72908 0.48446 0.0
H178 H 0.95033 0.73261 0.44128 0.0
C179 C 0.92443 0.7326 0.44381 0.0
C180 C 0.16002 0.2407 0.57836 0.0
C181 C 0.17563 0.24257 0.57133 0.0
C182 C 0.17928 0.25073 0.55772 0.0
C183 C 0.15206 0.25517 0.55844 0.0
C184 C 0.14841 0.24694 0.5717 0.0
C185 C 0.13079 0.24517 0.57743 0.0
H186 H 0.05506 0.25758 0.56836 0.0
C187 C 0.13722 0.26004 0.55454 0.0
C188 C 0.12469 0.25414 0.56559 0.0
H189 H 0.06839 0.22946 0.60262 0.0
H190 H 0.09751 0.23719 0.59234 0.0
H191 H 0.09701 0.29417 0.56787 0.0
H192 H 0.0669 0.23846 0.54202 0.0
H193 H 0.07855 0.25672 0.53004 0.0
H194 H 0.06087 0.25731 0.54062 0.0
H195 H 0.07914 0.28918 0.55339 0.0
H196 H 0.10355 0.29846 0.54986 0.0
C197 C 0.13642 0.2576 0.59241 0.0
C198 C 0.11631 0.22307 0.57805 0.0
C199 C 0.1384 0.29164 0.5074 0.0
C200 C 0.12669 0.298 0.50092 0.0
C201 C 0.11149 0.29662 0.5084 0.0
C202 C 0.10771 0.28851 0.52195 0.0
C203 C 0.11925 0.28173 0.52809 0.0
C204 C 0.13448 0.28366 0.52094 0.0
C205 C 0.14548 0.27608 0.52925 0.0
C206 C 0.1342 0.26904 0.54248 0.0
C207 C 0.11877 0.27223 0.54168 0.0
C208 C 0.16573 0.29348 0.53361 0.0
C209 C 0.14464 0.25894 0.51953 0.0
C210 C 0.0642 0.25299 0.57361 0.0
C211 C 0.05933 0.24286 0.58634 0.0
C212 C 0.07185 0.2375 0.59294 0.0
C213 C 0.08872 0.24183 0.58686 0.0
C214 C 0.09313 0.25151 0.57396 0.0
C215 C 0.08104 0.25705 0.5676 0.0
C216 C 0.08789 0.26688 0.55375 0.0
C217 C 0.1059 0.26596 0.55272 0.0
C218 C 0.10889 0.25699 0.5646 0.0
C219 C 0.09203 0.28826 0.55619 0.0
C220 C 0.07281 0.25438 0.54087 0.0
H221 H 0.17117 0.26328 0.54092 0.0
H222 H 0.15669 0.23413 0.5887 0.0
H223 H 0.11852 0.2138 0.56972 0.0
H224 H 0.10152 0.21945 0.57539 0.0
H225 H 0.11756 0.21816 0.589 0.0
H226 H 0.14991 0.27166 0.59208 0.0
H227 H 0.13852 0.24969 0.60136 0.0
H228 H 0.12599 0.26185 0.59543 0.0
H229 H 0.15037 0.29282 0.50203 0.0
H230 H 0.10224 0.30136 0.50359 0.0
H231 H 0.0958 0.28761 0.52701 0.0
H232 H 0.16543 0.30717 0.53655 0.0
H233 H 0.17483 0.29624 0.5244 0.0
H234 H 0.17267 0.29138 0.54346 0.0
H235 H 0.13077 0.25039 0.51286 0.0
H236 H 0.1458 0.24811 0.526 0.0
H237 H 0.15588 0.26444 0.5118 0.0
H238 H 0.19128 0.25234 0.55215 0.0
C239 C 0.16763 0.25713 0.55127 0.0
C240 C 0.75126 0.81992 0.59595 0.0
C241 C 0.74891 0.80312 0.58785 0.0
C242 C 0.74106 0.79888 0.57313 0.0
C243 C 0.73813 0.82796 0.5748 0.0
C244 C 0.74586 0.83212 0.58922 0.0
C245 C 0.74811 0.85096 0.59609 0.0
H246 H 0.73889 0.93079 0.58941 0.0
C247 C 0.73412 0.84359 0.57111 0.0
C248 C 0.73987 0.85708 0.58355 0.0
H249 H 0.7658 0.91855 0.62595 0.0
H250 H 0.75723 0.88709 0.61353 0.0
H251 H 0.75637 0.9161 0.56475 0.0
H252 H 0.70243 0.8874 0.58286 0.0
H253 H 0.69822 0.87916 0.5641 0.0
H254 H 0.70755 0.90488 0.56953 0.0
H255 H 0.73875 0.92309 0.56184 0.0
H256 H 0.73864 0.90406 0.55013 0.0
C257 C 0.76954 0.86559 0.59996 0.0
C258 C 0.73607 0.84623 0.6094 0.0
C259 C 0.70754 0.84289 0.51949 0.0
C260 C 0.70183 0.85506 0.51291 0.0
C261 C 0.70203 0.87033 0.52182 0.0
C262 C 0.70858 0.87395 0.53674 0.0
C263 C 0.71498 0.86217 0.54294 0.0
C264 C 0.71384 0.84658 0.53446 0.0
C265 C 0.72024 0.83495 0.54315 0.0
C266 C 0.72606 0.84659 0.55809 0.0
C267 C 0.72321 0.86269 0.55783 0.0
C268 C 0.73734 0.83558 0.53611 0.0
C269 C 0.70306 0.81405 0.54361 0.0
C270 C 0.74264 0.92115 0.5948 0.0
C271 C 0.75296 0.92703 0.60866 0.0
C272 C 0.75793 0.9143 0.61524 0.0
C273 C 0.75297 0.89609 0.60799 0.0
C274 C 0.74319 0.89067 0.59391 0.0
C275 C 0.73811 0.90308 0.58758 0.0
C276 C 0.7287 0.89541 0.57224 0.0
C277 C 0.72918 0.87646 0.57035 0.0
C278 C 0.73755 0.8737 0.58311 0.0
C279 C 0.74108 0.91039 0.56159 0.0
C280 C 0.70819 0.8916 0.57203 0.0
H281 H 0.72974 0.80715 0.55535 0.0
H282 H 0.75756 0.82373 0.6072 0.0
H283 H 0.72204 0.83279 0.60662 0.0
H284 H 0.73298 0.85787 0.6128 0.0
H285 H 0.74318 0.84361 0.61897 0.0
H286 H 0.77836 0.86229 0.59279 0.0
H287 H 0.77398 0.86503 0.61152 0.0
H288 H 0.77352 0.88086 0.59815 0.0
H289 H 0.70762 0.83101 0.5131 0.0
H290 H 0.69716 0.87958 0.51727 0.0
H291 H 0.7086 0.88593 0.54284 0.0
H292 H 0.74685 0.85041 0.53259 0.0
H293 H 0.73259 0.8249 0.52625 0.0
H294 H 0.74636 0.83275 0.54379 0.0
H295 H 0.68955 0.81425 0.54324 0.0
H296 H 0.70344 0.80748 0.55391 0.0
H297 H 0.70203 0.80412 0.5341 0.0
H298 H 0.73901 0.78595 0.56671 0.0
C299 C 0.7356 0.81116 0.56659 0.0
C300 C 0.07001 0.82533 0.58605 0.0
C301 C 0.05494 0.80846 0.57827 0.0
C302 C 0.05745 0.80238 0.56421 0.0
C303 C 0.08962 0.82975 0.56592 0.0
C304 C 0.08712 0.8357 0.5797 0.0
C305 C 0.10437 0.85417 0.58638 0.0
H306 H 0.19348 0.92762 0.58042 0.0
C307 C 0.10907 0.84375 0.56254 0.0
C308 C 0.1178 0.85804 0.57451 0.0
H309 H 0.15715 0.92149 0.61495 0.0
H310 H 0.13321 0.89012 0.60331 0.0
H311 H 0.18404 0.88311 0.57682 0.0
H312 H 0.1608 0.91389 0.55427 0.0
H313 H 0.16454 0.89957 0.541 0.0
H314 H 0.18439 0.91843 0.55261 0.0
H315 H 0.19608 0.89898 0.56294 0.0
H316 H 0.17877 0.87339 0.55837 0.0
C317 C 0.11153 0.84955 0.60079 0.0
C318 C 0.09905 0.8704 0.5884 0.0
C319 C 0.13146 0.83619 0.51305 0.0
C320 C 0.14892 0.84661 0.50705 0.0
C321 C 0.16444 0.86195 0.51581 0.0
C322 C 0.16246 0.8673 0.53016 0.0
C323 C 0.14476 0.8572 0.53585 0.0
C324 C 0.12976 0.84159 0.52748 0.0
C325 C 0.11233 0.83192 0.53568 0.0
C326 C 0.11917 0.84475 0.55013 0.0
C327 C 0.13809 0.85968 0.55007 0.0
C328 C 0.10766 0.81065 0.53772 0.0
C329 C 0.09636 0.83344 0.52709 0.0
C330 C 0.18035 0.91959 0.58548 0.0
C331 C 0.17728 0.92723 0.59864 0.0
C332 C 0.16008 0.91597 0.60494 0.0
C333 C 0.14605 0.8978 0.59806 0.0
C334 C 0.14908 0.89079 0.58462 0.0
C335 C 0.16608 0.90157 0.57863 0.0
C336 C 0.16654 0.89224 0.56401 0.0
C337 C 0.14689 0.87424 0.56212 0.0
C338 C 0.13677 0.87343 0.57425 0.0
C339 C 0.18222 0.88671 0.56547 0.0
C340 C 0.16932 0.90671 0.55228 0.0
H341 H 0.07572 0.80752 0.54729 0.0
H342 H 0.06844 0.83057 0.59677 0.0
H343 H 0.08746 0.86792 0.58011 0.0
H344 H 0.11083 0.88511 0.58669 0.0
H345 H 0.09417 0.87083 0.59945 0.0
H346 H 0.11064 0.83503 0.59933 0.0
H347 H 0.10286 0.84908 0.60989 0.0
H348 H 0.12655 0.86013 0.60427 0.0
H349 H 0.11939 0.8241 0.50663 0.0
H350 H 0.17801 0.87019 0.51139 0.0
H351 H 0.17472 0.8793 0.53619 0.0
H352 H 0.12074 0.80962 0.53862 0.0
H353 H 0.09829 0.80037 0.52826 0.0
H354 H 0.10104 0.80535 0.54801 0.0
H355 H 0.10205 0.84808 0.52281 0.0
H356 H 0.08513 0.83201 0.53396 0.0
H357 H 0.08985 0.82219 0.51756 0.0
H358 H 0.04611 0.78933 0.55805 0.0
C359 C 0.0747 0.8129 0.55802 0.0
C360 C 0.92051 0.51709 0.73728 0.0
C361 C 0.92306 0.5341 0.7452 0.0
C362 C 0.93108 0.53861 0.75987 0.0
C363 C 0.93266 0.50878 0.75884 0.0
C364 C 0.92527 0.50461 0.74432 0.0
C365 C 0.92223 0.48524 0.73785 0.0
H366 H 0.91888 0.39955 0.74874 0.0
C367 C 0.93477 0.49219 0.76322 0.0
C368 C 0.92867 0.47832 0.75097 0.0
H369 H 0.90507 0.41723 0.70819 0.0
H370 H 0.91499 0.44937 0.72017 0.0
H371 H 0.95813 0.44039 0.75735 0.0
H372 H 0.9014 0.4175 0.7697 0.0
H373 H 0.91659 0.42967 0.78566 0.0
H374 H 0.9167 0.40895 0.77652 0.0
H375 H 0.94812 0.42179 0.76989 0.0
H376 H 0.9601 0.44753 0.77615 0.0
C377 C 0.93518 0.48911 0.72518 0.0
C378 C 0.90084 0.47179 0.73313 0.0
C379 C 0.9572 0.49193 0.81607 0.0
C380 C 0.95886 0.47777 0.82374 0.0
C381 C 0.95446 0.45989 0.81597 0.0
C382 C 0.9485 0.45615 0.80095 0.0
C383 C 0.94665 0.4703 0.79353 0.0
C384 C 0.951 0.48785 0.80107 0.0
C385 C 0.94749 0.50082 0.79148 0.0
C386 C 0.9406 0.48826 0.7769 0.0
C387 C 0.94014 0.47043 0.7782 0.0
C388 C 0.96657 0.51992 0.79061 0.0
C389 C 0.93189 0.50396 0.79788 0.0
C390 C 0.91797 0.41036 0.74246 0.0
C391 C 0.91095 0.40585 0.72759 0.0
C392 C 0.9104 0.42041 0.71968 0.0
C393 C 0.91606 0.43898 0.72668 0.0
C394 C 0.92236 0.44301 0.74173 0.0
C395 C 0.92366 0.42894 0.74925 0.0
C396 C 0.9312 0.43588 0.76503 0.0
C397 C 0.93383 0.45632 0.76589 0.0
C398 C 0.92843 0.46036 0.75227 0.0
C399 C 0.95032 0.43635 0.76738 0.0
C400 C 0.91584 0.42232 0.77484 0.0
H401 H 0.94186 0.53028 0.77792 0.0
H402 H 0.91422 0.51317 0.72603 0.0
H403 H 0.8922 0.47344 0.74149 0.0
H404 H 0.89632 0.45607 0.73216 0.0
H405 H 0.89688 0.47556 0.7225 0.0
H406 H 0.94863 0.50334 0.72752 0.0
H407 H 0.92816 0.48967 0.71465 0.0
H408 H 0.93963 0.47807 0.72369 0.0
H409 H 0.96057 0.50588 0.8216 0.0
H410 H 0.95517 0.44849 0.82156 0.0
H411 H 0.94525 0.44221 0.79576 0.0
H412 H 0.97824 0.51665 0.78968 0.0
H413 H 0.9702 0.53014 0.80061 0.0
H414 H 0.9667 0.52758 0.78082 0.0
H415 H 0.92208 0.49122 0.80372 0.0
H416 H 0.92261 0.50518 0.7893 0.0
H417 H 0.93814 0.51716 0.80586 0.0
H418 H 0.9334 0.55178 0.76612 0.0
C419 C 0.93599 0.52612 0.7667 0.0
C420 C 0.59248 0.50772 0.74478 0.0
C421 C 0.60724 0.52427 0.75311 0.0
C422 C 0.60421 0.52945 0.76728 0.0
C423 C 0.5722 0.50173 0.76463 0.0
C424 C 0.57518 0.49672 0.75073 0.0
C425 C 0.55828 0.47839 0.74348 0.0
H426 H 0.46979 0.4024 0.74722 0.0
C427 C 0.55272 0.48715 0.76756 0.0
C428 C 0.54447 0.4735 0.75517 0.0
H429 H 0.50694 0.412 0.71279 0.0
H430 H 0.53037 0.44308 0.72549 0.0
H431 H 0.50199 0.41585 0.77353 0.0
H432 H 0.47786 0.4467 0.75226 0.0
H433 H 0.48267 0.45545 0.77092 0.0
H434 H 0.46587 0.42988 0.76563 0.0
H435 H 0.47808 0.41037 0.77505 0.0
H436 H 0.49737 0.42894 0.78724 0.0
C437 C 0.56404 0.46257 0.74091 0.0
C438 C 0.55128 0.48366 0.72931 0.0
C439 C 0.52901 0.49049 0.81733 0.0
C440 C 0.51153 0.47908 0.82315 0.0
C441 C 0.49627 0.46422 0.8138 0.0
C442 C 0.4986 0.46016 0.79922 0.0
C443 C 0.51636 0.47107 0.79382 0.0
C444 C 0.53104 0.48633 0.80268 0.0
C445 C 0.54863 0.49697 0.79477 0.0
C446 C 0.54225 0.48509 0.77992 0.0
C447 C 0.52342 0.46977 0.77951 0.0
C448 C 0.56469 0.49534 0.80309 0.0
C449 C 0.5529 0.51827 0.79361 0.0
C450 C 0.48286 0.4114 0.74233 0.0
C451 C 0.48658 0.40483 0.72902 0.0
C452 C 0.50387 0.41674 0.7231 0.0
C453 C 0.51744 0.43475 0.7305 0.0
C454 C 0.51382 0.44081 0.74408 0.0
C455 C 0.4967 0.42926 0.74972 0.0
C456 C 0.49568 0.43756 0.7646 0.0
C457 C 0.51511 0.45586 0.76704 0.0
C458 C 0.52561 0.45771 0.75495 0.0
C459 C 0.49303 0.42246 0.77577 0.0
C460 C 0.47964 0.44258 0.76343 0.0
H461 H 0.58536 0.52298 0.78392 0.0
H462 H 0.59446 0.50316 0.73396 0.0
H463 H 0.55178 0.49794 0.73127 0.0
H464 H 0.53641 0.47296 0.72548 0.0
H465 H 0.5603 0.48497 0.72028 0.0
H466 H 0.57569 0.46495 0.7491 0.0
H467 H 0.56903 0.46276 0.72981 0.0
H468 H 0.55245 0.44763 0.74231 0.0
H469 H 0.54106 0.50204 0.82411 0.0
H470 H 0.48247 0.45559 0.81777 0.0
H471 H 0.48652 0.4485 0.79277 0.0
H472 H 0.55919 0.48041 0.80683 0.0
H473 H 0.57091 0.50604 0.81297 0.0
H474 H 0.57613 0.49749 0.7962 0.0
H475 H 0.53963 0.51897 0.79285 0.0
H476 H 0.55969 0.52444 0.78355 0.0
H477 H 0.56194 0.52806 0.80338 0.0
H478 H 0.61532 0.54223 0.77386 0.0
C479 C 0.58677 0.51831 0.77306 0.0
C480 C 0.59756 0.08865 0.75186 0.0
C481 C 0.61177 0.08581 0.75856 0.0
C482 C 0.60907 0.07787 0.77229 0.0
C483 C 0.57873 0.07628 0.7725 0.0
C484 C 0.58124 0.08374 0.75895 0.0
C485 C 0.56495 0.08602 0.75329 0.0
H486 H 0.4829 0.08309 0.76526 0.0
C487 C 0.56041 0.0732 0.77699 0.0
C488 C 0.55223 0.07876 0.76572 0.0
H489 H 0.514 0.09993 0.72668 0.0
H490 H 0.53675 0.09223 0.73736 0.0
H491 H 0.48447 0.04468 0.76759 0.0
H492 H 0.51906 0.10247 0.7895 0.0
H493 H 0.51306 0.08536 0.80274 0.0
H494 H 0.49458 0.08657 0.7922 0.0
H495 H 0.47743 0.05254 0.78361 0.0
H496 H 0.49189 0.04121 0.78496 0.0
C497 C 0.55571 0.07255 0.73883 0.0
C498 C 0.57253 0.10809 0.7517 0.0
C499 C 0.53962 0.04979 0.82712 0.0
C500 C 0.5232 0.04537 0.83414 0.0
C501 C 0.50872 0.0471 0.82652 0.0
C502 C 0.51074 0.05358 0.81244 0.0
C503 C 0.52734 0.05829 0.80574 0.0
C504 C 0.5413 0.05603 0.81293 0.0
C505 C 0.55754 0.06084 0.80371 0.0
C506 C 0.55108 0.06661 0.78993 0.0
C507 C 0.53351 0.06533 0.79129 0.0
C508 C 0.55877 0.04204 0.80065 0.0
C509 C 0.57562 0.07832 0.81189 0.0
C510 C 0.49446 0.08492 0.759 0.0
C511 C 0.4967 0.09239 0.74515 0.0
C512 C 0.51211 0.09464 0.7375 0.0
C513 C 0.52528 0.09004 0.74368 0.0
C514 C 0.52307 0.08307 0.75769 0.0
C515 C 0.50767 0.08029 0.76498 0.0
C516 C 0.5073 0.07223 0.77957 0.0
C517 C 0.52529 0.07109 0.77998 0.0
C518 C 0.53453 0.0776 0.7672 0.0
C519 C 0.48933 0.05166 0.77904 0.0
C520 C 0.50845 0.08729 0.79172 0.0
H521 H 0.59148 0.06721 0.78973 0.0
H522 H 0.59922 0.09496 0.74143 0.0
H523 H 0.58326 0.1173 0.76094 0.0
H524 H 0.5615 0.11221 0.75212 0.0
H525 H 0.57938 0.11246 0.7413 0.0
H526 H 0.55691 0.05913 0.739 0.0
H527 H 0.56265 0.08019 0.72916 0.0
H528 H 0.54034 0.067 0.73709 0.0
H529 H 0.55106 0.04866 0.83256 0.0
H530 H 0.49565 0.04324 0.83138 0.0
H531 H 0.49927 0.0547 0.80734 0.0
H532 H 0.54453 0.02866 0.80007 0.0
H533 H 0.56784 0.04074 0.80945 0.0
H534 H 0.56407 0.04131 0.78989 0.0
H535 H 0.57243 0.08938 0.81689 0.0
H536 H 0.58682 0.08634 0.80459 0.0
H537 H 0.58145 0.07338 0.82088 0.0
H538 H 0.61964 0.07525 0.77761 0.0
C539 C 0.59265 0.0731 0.77928 0.0
C540 C 0.8278 0.57529 0.91556 0.0
C541 C 0.84475 0.57863 0.90998 0.0
C542 C 0.84975 0.58757 0.89673 0.0
C543 C 0.82122 0.58979 0.89495 0.0
C544 C 0.81631 0.58092 0.90789 0.0
C545 C 0.79768 0.57804 0.91221 0.0
H546 H 0.72146 0.58859 0.89842 0.0
C547 C 0.8062 0.59385 0.88981 0.0
C548 C 0.79237 0.58699 0.89987 0.0
H549 H 0.73266 0.55998 0.93347 0.0
H550 H 0.7625 0.56801 0.92453 0.0
H551 H 0.76335 0.62549 0.89953 0.0
H552 H 0.73635 0.57035 0.87277 0.0
H553 H 0.74855 0.58936 0.86145 0.0
H554 H 0.72953 0.58857 0.87099 0.0
H555 H 0.74623 0.6203 0.88437 0.0
H556 H 0.77102 0.6303 0.88185 0.0
C557 C 0.80129 0.58984 0.92726 0.0
C558 C 0.78369 0.55569 0.91207 0.0
C559 C 0.81152 0.62672 0.84272 0.0
C560 C 0.80041 0.63323 0.83538 0.0
C561 C 0.784 0.63076 0.84161 0.0
C562 C 0.77867 0.62176 0.85473 0.0
C563 C 0.78987 0.6152 0.8618 0.0
C564 C 0.80613 0.618 0.85587 0.0
C565 C 0.81675 0.61082 0.86511 0.0
C566 C 0.80403 0.60294 0.87747 0.0
C567 C 0.7882 0.60536 0.87542 0.0
C568 C 0.83637 0.62865 0.87063 0.0
C569 C 0.81757 0.59433 0.85582 0.0
C570 C 0.73029 0.58396 0.90411 0.0
C571 C 0.72466 0.57376 0.91678 0.0
C572 C 0.73674 0.5682 0.9239 0.0
C573 C 0.75405 0.57272 0.9186 0.0
C574 C 0.75944 0.58282 0.90595 0.0
C575 C 0.74765 0.58826 0.89889 0.0
C576 C 0.75569 0.59861 0.88542 0.0
C577 C 0.77411 0.59827 0.88554 0.0
C578 C 0.7762 0.58907 0.89764 0.0
C579 C 0.75919 0.61975 0.88776 0.0
C580 C 0.74185 0.58625 0.87188 0.0
H581 H 0.8427 0.59995 0.87919 0.0
H582 H 0.82339 0.56813 0.92557 0.0
H583 H 0.78726 0.54712 0.90413 0.0
H584 H 0.76898 0.55152 0.90838 0.0
H585 H 0.78398 0.55046 0.92307 0.0
H586 H 0.81471 0.60416 0.92781 0.0
H587 H 0.80252 0.58172 0.93642 0.0
H588 H 0.79026 0.5936 0.9293 0.0
H589 H 0.82407 0.62806 0.83825 0.0
H590 H 0.77531 0.63591 0.8364 0.0
H591 H 0.76603 0.62027 0.85887 0.0
H592 H 0.83548 0.64219 0.87251 0.0
H593 H 0.84685 0.63146 0.86248 0.0
H594 H 0.84199 0.62698 0.88136 0.0
H595 H 0.80412 0.5851 0.84877 0.0
H596 H 0.81923 0.58401 0.86258 0.0
H597 H 0.82924 0.60051 0.84849 0.0
H598 H 0.8628 0.5904 0.89226 0.0
C599 C 0.83811 0.59319 0.8892 0.0
C600 C 0.4156 0.15334 0.92934 0.0
C601 C 0.41369 0.13655 0.92152 0.0
C602 C 0.40563 0.13176 0.90683 0.0
C603 C 0.40212 0.16051 0.90791 0.0
C604 C 0.40981 0.16506 0.92235 0.0
C605 C 0.41163 0.1838 0.92897 0.0
H606 H 0.40256 0.26335 0.92083 0.0
C607 C 0.39792 0.17591 0.90389 0.0
C608 C 0.40338 0.18954 0.91621 0.0
H609 H 0.42813 0.25108 0.95825 0.0
H610 H 0.41967 0.21952 0.94616 0.0
H611 H 0.42042 0.24807 0.89679 0.0
H612 H 0.366 0.22014 0.91418 0.0
H613 H 0.36213 0.21137 0.89556 0.0
H614 H 0.37147 0.2372 0.90048 0.0
H615 H 0.40307 0.25536 0.89351 0.0
H616 H 0.4029 0.23614 0.88201 0.0
C617 C 0.43297 0.19873 0.93299 0.0
C618 C 0.39933 0.17899 0.94213 0.0
C619 C 0.37264 0.17477 0.85168 0.0
C620 C 0.36709 0.18689 0.8448 0.0
C621 C 0.36701 0.20216 0.85349 0.0
C622 C 0.37315 0.20586 0.86849 0.0
C623 C 0.37942 0.19417 0.875 0.0
C624 C 0.37854 0.17855 0.86673 0.0
C625 C 0.38475 0.16703 0.87576 0.0
C626 C 0.39014 0.17875 0.89064 0.0
C627 C 0.38726 0.19481 0.89006 0.0
C628 C 0.40209 0.16769 0.86914 0.0
C629 C 0.36759 0.1461 0.87611 0.0
C630 C 0.40604 0.25368 0.92647 0.0
C631 C 0.41599 0.2596 0.94048 0.0
C632 C 0.42057 0.24681 0.94741 0.0
C633 C 0.41567 0.22853 0.94035 0.0
C634 C 0.40635 0.2231 0.92611 0.0
C635 C 0.40155 0.23551 0.91945 0.0
C636 C 0.39249 0.2277 0.90403 0.0
C637 C 0.39291 0.20869 0.90248 0.0
C638 C 0.40096 0.20606 0.91546 0.0
C639 C 0.40521 0.24253 0.89343 0.0
C640 C 0.37199 0.22399 0.90339 0.0
H641 H 0.39399 0.1393 0.88877 0.0
H642 H 0.42152 0.15737 0.94068 0.0
H643 H 0.3856 0.16514 0.93942 0.0
H644 H 0.39555 0.19025 0.94508 0.0
H645 H 0.40658 0.17706 0.95197 0.0
H646 H 0.44203 0.19563 0.92594 0.0
H647 H 0.43733 0.19828 0.94459 0.0
H648 H 0.43675 0.21392 0.93111 0.0
H649 H 0.37289 0.16288 0.84546 0.0
H650 H 0.36222 0.21136 0.84869 0.0
H651 H 0.37297 0.21784 0.87441 0.0
H652 H 0.41181 0.18257 0.86581 0.0
H653 H 0.39764 0.15712 0.85924 0.0
H654 H 0.4108 0.16468 0.87702 0.0
H655 H 0.35404 0.14625 0.87546 0.0
H656 H 0.36775 0.13961 0.88649 0.0
H657 H 0.36682 0.13616 0.86672 0.0
H658 H 0.4042 0.11907 0.90047 0.0
C659 C 0.39981 0.14361 0.90001 0.0
C660 C 0.73867 0.15987 0.92293 0.0
C661 C 0.72325 0.14367 0.91476 0.0
C662 C 0.72557 0.13835 0.90037 0.0
C663 C 0.75809 0.16501 0.90258 0.0
C664 C 0.75584 0.17028 0.91665 0.0
C665 C 0.77348 0.18805 0.92375 0.0
H666 H 0.8637 0.25996 0.91875 0.0
C667 C 0.77767 0.17878 0.89935 0.0
C668 C 0.7868 0.19227 0.91173 0.0
H669 H 0.82814 0.25304 0.95402 0.0
H670 H 0.80338 0.22262 0.94162 0.0
H671 H 0.85244 0.21484 0.91317 0.0
H672 H 0.83126 0.24906 0.89317 0.0
H673 H 0.83393 0.23493 0.87904 0.0
H674 H 0.85436 0.25258 0.8908 0.0
H675 H 0.86502 0.23171 0.89998 0.0
H676 H 0.84706 0.20661 0.8944 0.0
C677 C 0.78032 0.18214 0.93765 0.0
C678 C 0.76892 0.2047 0.92674 0.0
C679 C 0.79919 0.17282 0.84913 0.0
C680 C 0.81666 0.1831 0.84313 0.0
C681 C 0.83243 0.19786 0.85205 0.0
C682 C 0.83072 0.20273 0.86662 0.0
C683 C 0.81305 0.19272 0.87236 0.0
C684 C 0.79776 0.17774 0.86377 0.0
C685 C 0.78034 0.1681 0.87197 0.0
C686 C 0.78756 0.18016 0.88675 0.0
C687 C 0.80665 0.1947 0.88684 0.0
C688 C 0.77495 0.14646 0.87319 0.0
C689 C 0.76476 0.17075 0.86389 0.0
C690 C 0.85058 0.25197 0.92382 0.0
C691 C 0.84796 0.25912 0.9374 0.0
C692 C 0.83073 0.24789 0.94368 0.0
C693 C 0.81623 0.23029 0.93636 0.0
C694 C 0.81881 0.22385 0.92251 0.0
C695 C 0.83584 0.23455 0.91655 0.0
C696 C 0.83584 0.22592 0.90149 0.0
C697 C 0.81588 0.20846 0.89931 0.0
C698 C 0.80599 0.20727 0.91168 0.0
C699 C 0.85093 0.21952 0.90215 0.0
C700 C 0.83912 0.24135 0.89047 0.0
H701 H 0.74366 0.14411 0.88327 0.0
H702 H 0.73749 0.1643 0.93405 0.0
H703 H 0.75773 0.20334 0.91852 0.0
H704 H 0.78113 0.21941 0.92573 0.0
H705 H 0.76379 0.20435 0.9378 0.0
H706 H 0.77884 0.16743 0.9355 0.0
H707 H 0.77186 0.18147 0.94695 0.0
H708 H 0.79545 0.19213 0.94118 0.0
H709 H 0.78691 0.16117 0.84259 0.0
H710 H 0.84602 0.206 0.84763 0.0
H711 H 0.84318 0.21428 0.87278 0.0
H712 H 0.78772 0.14485 0.87367 0.0
H713 H 0.76533 0.13682 0.86358 0.0
H714 H 0.76834 0.14075 0.8834 0.0
H715 H 0.77092 0.18563 0.85995 0.0
H716 H 0.75385 0.16962 0.87102 0.0
H717 H 0.75777 0.15988 0.85416 0.0
H718 H 0.7139 0.12617 0.89371 0.0
C719 C 0.74287 0.14887 0.89428 0.0
C720 C 0.58033 0.84563 0.07162 0.0
C721 C 0.58442 0.86382 0.07845 0.0
C722 C 0.59528 0.87066 0.09213 0.0
C723 C 0.59728 0.84108 0.0922 0.0
C724 C 0.58707 0.83465 0.07859 0.0
C725 C 0.58448 0.81527 0.07267 0.0
H726 H 0.59763 0.73842 0.0822 0.0
C727 C 0.60199 0.82615 0.09648 0.0
C728 C 0.59482 0.81114 0.08497 0.0
H729 H 0.56712 0.74635 0.04563 0.0
H730 H 0.57563 0.77831 0.05664 0.0
H731 H 0.63313 0.78199 0.0863 0.0
H732 H 0.58079 0.75449 0.10676 0.0
H733 H 0.59915 0.7684 0.1206 0.0
H734 H 0.59906 0.7485 0.11004 0.0
H735 H 0.62902 0.7654 0.10019 0.0
H736 H 0.63847 0.7913 0.10486 0.0
C737 C 0.59432 0.81828 0.05822 0.0
C738 C 0.56299 0.80014 0.07094 0.0
C739 C 0.63203 0.83203 0.14785 0.0
C740 C 0.63791 0.82038 0.15496 0.0
C741 C 0.63722 0.80432 0.14691 0.0
C742 C 0.62996 0.79937 0.13213 0.0
C743 C 0.62332 0.81063 0.12533 0.0
C744 C 0.62498 0.82701 0.13304 0.0
C745 C 0.6182 0.83785 0.12376 0.0
C746 C 0.61128 0.82468 0.10947 0.0
C747 C 0.61411 0.80864 0.11053 0.0
C748 C 0.63534 0.85835 0.12191 0.0
C749 C 0.60182 0.8384 0.1311 0.0
C750 C 0.59269 0.74697 0.07656 0.0
C751 C 0.58163 0.7397 0.06299 0.0
C752 C 0.57586 0.75159 0.05597 0.0
C753 C 0.58067 0.77013 0.06246 0.0
C754 C 0.59123 0.77688 0.07622 0.0
C755 C 0.59715 0.7654 0.08299 0.0
C756 C 0.60765 0.77461 0.09783 0.0
C757 C 0.60708 0.79355 0.09882 0.0
C758 C 0.59745 0.79479 0.08614 0.0
C759 C 0.62812 0.77846 0.09742 0.0
C760 C 0.59626 0.76085 0.1095 0.0
H761 H 0.60967 0.86523 0.10954 0.0
H762 H 0.57225 0.84017 0.06099 0.0
H763 H 0.55567 0.80301 0.07984 0.0
H764 H 0.55982 0.78495 0.0719 0.0
H765 H 0.5563 0.80082 0.06028 0.0
H766 H 0.60746 0.83287 0.05893 0.0
H767 H 0.58492 0.81754 0.04871 0.0
H768 H 0.59904 0.80762 0.05585 0.0
H769 H 0.63279 0.84469 0.15374 0.0
H770 H 0.64174 0.79519 0.1522 0.0
H771 H 0.62945 0.78676 0.12666 0.0
H772 H 0.64898 0.85847 0.1234 0.0
H773 H 0.63609 0.86969 0.13007 0.0
H774 H 0.63503 0.86293 0.11071 0.0
H775 H 0.59178 0.82374 0.13463 0.0
H776 H 0.59328 0.84214 0.12367 0.0
H777 H 0.60728 0.84909 0.14099 0.0
H778 H 0.59853 0.88463 0.09758 0.0
C779 C 0.60168 0.85937 0.09906 0.0
C780 C 0.25724 0.83974 0.07646 0.0
C781 C 0.27239 0.8557 0.08502 0.0
C782 C 0.26953 0.86064 0.09934 0.0
C783 C 0.2371 0.83372 0.09641 0.0
C784 C 0.23985 0.829 0.08235 0.0
C785 C 0.22258 0.81126 0.07483 0.0
H786 H 0.13359 0.73613 0.07815 0.0
C787 C 0.21748 0.81943 0.09925 0.0
C788 C 0.20889 0.80629 0.08662 0.0
H789 H 0.16983 0.74701 0.04287 0.0
H790 H 0.19376 0.77738 0.05608 0.0
H791 H 0.16602 0.74831 0.10408 0.0
H792 H 0.14232 0.78054 0.08442 0.0
H793 H 0.14757 0.78876 0.10319 0.0
H794 H 0.13039 0.76339 0.09761 0.0
H795 H 0.14222 0.74302 0.10592 0.0
H796 H 0.16167 0.76104 0.11828 0.0
C797 C 0.22766 0.79503 0.0716 0.0
C798 C 0.2159 0.81751 0.06103 0.0
C799 C 0.19434 0.82211 0.14939 0.0
C800 C 0.17683 0.81088 0.15522 0.0
C801 C 0.16144 0.79623 0.14584 0.0
C802 C 0.16362 0.79231 0.13119 0.0
C803 C 0.18137 0.80314 0.12573 0.0
C804 C 0.19623 0.81809 0.13467 0.0
C805 C 0.21382 0.82863 0.12676 0.0
C806 C 0.20718 0.81716 0.11174 0.0
C807 C 0.18823 0.80209 0.11128 0.0
C808 C 0.22963 0.8263 0.13479 0.0
C809 C 0.21858 0.85016 0.12603 0.0
C810 C 0.14656 0.74525 0.07319 0.0
C811 C 0.14989 0.73918 0.05949 0.0
C812 C 0.16706 0.7513 0.05348 0.0
C813 C 0.18092 0.76891 0.06118 0.0
C814 C 0.17772 0.7744 0.07513 0.0
C815 C 0.16067 0.76277 0.08084 0.0
C816 C 0.16 0.77061 0.09601 0.0
C817 C 0.17959 0.78867 0.09856 0.0
C818 C 0.18987 0.7908 0.0863 0.0
C819 C 0.15722 0.755 0.10672 0.0
C820 C 0.1442 0.77602 0.09541 0.0
H821 H 0.25078 0.85417 0.11606 0.0
H822 H 0.25881 0.83565 0.06535 0.0
H823 H 0.21736 0.83219 0.06337 0.0
H824 H 0.20078 0.8076 0.0574 0.0
H825 H 0.22446 0.81842 0.05175 0.0
H826 H 0.2388 0.79639 0.07987 0.0
H827 H 0.23307 0.79589 0.06061 0.0
H828 H 0.21563 0.78011 0.07232 0.0
H829 H 0.20651 0.83346 0.1562 0.0
H830 H 0.14764 0.78771 0.14984 0.0
H831 H 0.15143 0.78084 0.12471 0.0
H832 H 0.22379 0.81128 0.13841 0.0
H833 H 0.23623 0.83688 0.1447 0.0
H834 H 0.24082 0.82811 0.12772 0.0
H835 H 0.20549 0.85117 0.12525 0.0
H836 H 0.22569 0.85662 0.11616 0.0
H837 H 0.22752 0.85949 0.136 0.0
H838 H 0.28098 0.87269 0.10625 0.0
C839 C 0.25199 0.84977 0.10505 0.0
C840 C 0.26392 0.41734 0.08332 0.0
C841 C 0.2769 0.41215 0.08911 0.0
C842 C 0.27272 0.40149 0.10163 0.0
C843 C 0.2434 0.40202 0.10257 0.0
C844 C 0.24737 0.41213 0.09015 0.0
C845 C 0.23237 0.41688 0.08543 0.0
H846 H 0.15262 0.41795 0.0991 0.0
C847 C 0.22538 0.39958 0.10725 0.0
C848 C 0.21884 0.40821 0.0972 0.0
H849 H 0.18576 0.43876 0.06186 0.0
H850 H 0.20689 0.42821 0.07131 0.0
H851 H 0.15187 0.37768 0.09783 0.0
H852 H 0.18747 0.43244 0.12372 0.0
H853 H 0.18141 0.41366 0.13546 0.0
H854 H 0.16301 0.41659 0.12642 0.0
H855 H 0.14408 0.38495 0.1137 0.0
H856 H 0.15666 0.37164 0.1151 0.0
C857 C 0.22327 0.40619 0.06998 0.0
C858 C 0.24163 0.43949 0.08619 0.0
C859 C 0.20034 0.3681 0.15437 0.0
C860 C 0.18463 0.36512 0.16185 0.0
C861 C 0.17186 0.3703 0.15549 0.0
C862 C 0.17491 0.37881 0.14214 0.0
C863 C 0.19095 0.38227 0.13502 0.0
C864 C 0.20323 0.37673 0.14103 0.0
C865 C 0.2196 0.38176 0.13191 0.0
C866 C 0.21509 0.39125 0.11949 0.0
C867 C 0.19833 0.39156 0.12144 0.0
C868 C 0.21872 0.36245 0.12634 0.0
C869 C 0.23809 0.39649 0.1414 0.0
C870 C 0.1643 0.42009 0.09286 0.0
C871 C 0.16753 0.4294 0.07974 0.0
C872 C 0.1831 0.43203 0.07214 0.0
C873 C 0.1953 0.42573 0.07759 0.0
C874 C 0.19193 0.4166 0.09076 0.0
C875 C 0.17651 0.41371 0.09806 0.0
C876 C 0.17476 0.40319 0.11164 0.0
C877 C 0.19179 0.40038 0.11134 0.0
C878 C 0.20189 0.40846 0.09919 0.0
C879 C 0.15584 0.38338 0.10962 0.0
C880 C 0.17661 0.41701 0.12508 0.0
H881 H 0.2537 0.38836 0.1179 0.0
H882 H 0.26675 0.42575 0.07385 0.0
H883 H 0.2519 0.44652 0.09608 0.0
H884 H 0.23139 0.44461 0.08722 0.0
H885 H 0.24943 0.44534 0.07638 0.0
H886 H 0.22365 0.39233 0.06837 0.0
H887 H 0.23085 0.41547 0.06116 0.0
H888 H 0.20809 0.40156 0.06831 0.0
H889 H 0.21047 0.36441 0.15903 0.0
H890 H 0.1595 0.36785 0.16092 0.0
H891 H 0.16476 0.38259 0.13799 0.0
H892 H 0.20379 0.35048 0.12373 0.0
H893 H 0.22535 0.3576 0.1348 0.0
H894 H 0.22546 0.36358 0.11601 0.0
H895 H 0.23586 0.40691 0.14849 0.0
H896 H 0.24969 0.40584 0.1348 0.0
H897 H 0.24296 0.38877 0.1487 0.0
H898 H 0.28234 0.39707 0.10621 0.0
C899 C 0.25604 0.39638 0.10837 0.0
C900 C 0.49514 0.90883 0.24748 0.0
C901 C 0.5112 0.91105 0.24096 0.0
C902 C 0.51574 0.91997 0.22769 0.0
C903 C 0.48837 0.92421 0.22759 0.0
C904 C 0.48389 0.91534 0.24056 0.0
C905 C 0.46578 0.91314 0.2456 0.0
H906 H 0.3879 0.92078 0.23183 0.0
C907 C 0.4736 0.92894 0.22315 0.0
C908 C 0.46026 0.9224 0.2336 0.0
H909 H 0.40222 0.89744 0.26903 0.0
H910 H 0.43212 0.90593 0.25987 0.0
H911 H 0.42835 0.9594 0.23366 0.0
H912 H 0.40471 0.90476 0.20668 0.0
H913 H 0.41571 0.92431 0.19551 0.0
H914 H 0.39625 0.92175 0.20534 0.0
H915 H 0.41284 0.95433 0.21742 0.0
H916 H 0.43809 0.96507 0.21672 0.0
C917 C 0.47035 0.92501 0.26075 0.0
C918 C 0.45142 0.89093 0.2456 0.0
C919 C 0.47826 0.96298 0.17678 0.0
C920 C 0.46707 0.96971 0.16987 0.0
C921 C 0.45065 0.96687 0.17627 0.0
C922 C 0.44544 0.9574 0.18921 0.0
C923 C 0.45678 0.95073 0.1959 0.0
C924 C 0.47299 0.95378 0.18975 0.0
C925 C 0.48361 0.94616 0.19848 0.0
C926 C 0.47116 0.93812 0.21097 0.0
C927 C 0.45536 0.94062 0.20933 0.0
C928 C 0.50338 0.96374 0.20395 0.0
C929 C 0.48402 0.92976 0.1887 0.0
C930 C 0.39751 0.91764 0.2381 0.0
C931 C 0.39239 0.90802 0.25106 0.0
C932 C 0.40546 0.90427 0.25881 0.0
C933 C 0.42292 0.90934 0.25352 0.0
C934 C 0.42753 0.91835 0.24034 0.0
C935 C 0.41511 0.92275 0.23302 0.0
C936 C 0.42283 0.93315 0.21953 0.0
C937 C 0.44157 0.93353 0.21967 0.0
C938 C 0.44415 0.92469 0.23183 0.0
C939 C 0.4256 0.95404 0.2218 0.0
C940 C 0.40919 0.92048 0.20599 0.0
H941 H 0.50868 0.93333 0.21092 0.0
H942 H 0.49117 0.90174 0.25757 0.0
H943 H 0.453 0.88246 0.23622 0.0
H944 H 0.43654 0.88735 0.24413 0.0
H945 H 0.45365 0.88517 0.25588 0.0
H946 H 0.48458 0.93843 0.26148 0.0
H947 H 0.47033 0.91619 0.26983 0.0
H948 H 0.46051 0.93045 0.26276 0.0
H949 H 0.49077 0.96452 0.1721 0.0
H950 H 0.44187 0.9721 0.17133 0.0
H951 H 0.43276 0.9556 0.1935 0.0
H952 H 0.50242 0.97698 0.20713 0.0
H953 H 0.51329 0.96747 0.19523 0.0
H954 H 0.50975 0.9612 0.21392 0.0
H955 H 0.47106 0.92174 0.18091 0.0
H956 H 0.4841 0.9183 0.19508 0.0
H957 H 0.49641 0.93589 0.18208 0.0
H958 H 0.52812 0.92191 0.22253 0.0
C959 C 0.50447 0.92664 0.221 0.0
C960 C 0.07502 0.48392 0.26899 0.0
C961 C 0.06943 0.46464 0.26367 0.0
C962 C 0.05775 0.45657 0.25039 0.0
C963 C 0.05856 0.48734 0.24752 0.0
C964 C 0.06938 0.4949 0.26083 0.0
C965 C 0.07432 0.51566 0.26494 0.0
H966 H 0.07078 0.59615 0.24813 0.0
C967 C 0.05598 0.50295 0.24151 0.0
C968 C 0.06502 0.51949 0.25177 0.0
H969 H 0.09793 0.58856 0.28699 0.0
H970 H 0.08745 0.5552 0.27787 0.0
H971 H 0.08553 0.57738 0.22647 0.0
H972 H 0.03199 0.55207 0.245 0.0
H973 H 0.0278 0.54495 0.22596 0.0
H974 H 0.03944 0.57059 0.23228 0.0
H975 H 0.06645 0.58005 0.21874 0.0
H976 H 0.06922 0.55947 0.21298 0.0
C977 C 0.09618 0.52877 0.26616 0.0
C978 C 0.06506 0.51604 0.27923 0.0
C979 C 0.02503 0.49279 0.18966 0.0
C980 C 0.02291 0.50559 0.18068 0.0
C981 C 0.02798 0.52452 0.18665 0.0
C982 C 0.0355 0.53085 0.20128 0.0
C983 C 0.03829 0.51823 0.21 0.0
C984 C 0.03294 0.49948 0.20422 0.0
C985 C 0.03785 0.48851 0.21492 0.0
C986 C 0.04729 0.50387 0.22794 0.0
C987 C 0.0474 0.5212 0.225 0.0
C988 C 0.05185 0.48328 0.20801 0.0
C989 C 0.01923 0.47057 0.21866 0.0
C990 C 0.07421 0.58715 0.25471 0.0
C991 C 0.08505 0.59483 0.26832 0.0
C992 C 0.08964 0.5829 0.27646 0.0
C993 C 0.08349 0.56353 0.27115 0.0
C994 C 0.07283 0.55606 0.25746 0.0
C995 C 0.06841 0.56784 0.24946 0.0
C996 C 0.05783 0.55774 0.2348 0.0
C997 C 0.05615 0.53777 0.23552 0.0
C998 C 0.06494 0.5369 0.24882 0.0
C999 C 0.07022 0.56921 0.22255 0.0
C1000 C 0.03824 0.55629 0.23434 0.0
H1001 H 0.04366 0.46101 0.23214 0.0
H1002 H 0.08372 0.49038 0.2793 0.0
H1003 H 0.05117 0.50239 0.27947 0.0
H1004 H 0.0618 0.528 0.28024 0.0
H1005 H 0.07417 0.51723 0.28912 0.0
H1006 H 0.10247 0.52331 0.25797 0.0
H1007 H 0.10251 0.52894 0.27724 0.0
H1008 H 0.10098 0.544 0.2637 0.0
H1009 H 0.02145 0.47824 0.18525 0.0
H1010 H 0.02635 0.53453 0.17988 0.0
H1011 H 0.03923 0.54549 0.20514 0.0
H1012 H 0.06229 0.49566 0.20219 0.0
H1013 H 0.04426 0.47024 0.19988 0.0
H1014 H 0.06042 0.48052 0.21619 0.0
H1015 H 0.00758 0.47399 0.21871 0.0
H1016 H 0.02032 0.46619 0.22978 0.0
H1017 H 0.01468 0.45783 0.21045 0.0
H1018 H 0.05328 0.44173 0.24608 0.0
C1019 C 0.05229 0.46782 0.24229 0.0
C1020 C 0.40544 0.49456 0.25597 0.0
C1021 C 0.38983 0.478 0.24832 0.0
C1022 C 0.39174 0.47182 0.23407 0.0
C1023 C 0.42425 0.49844 0.23539 0.0
C1024 C 0.42236 0.50452 0.24932 0.0
C1025 C 0.44003 0.52267 0.25585 0.0
H1026 H 0.52949 0.59443 0.24876 0.0
C1027 C 0.4437 0.51199 0.23173 0.0
C1028 C 0.45302 0.52618 0.2437 0.0
H1029 H 0.49432 0.58934 0.28396 0.0
H1030 H 0.46973 0.55818 0.27254 0.0
H1031 H 0.5191 0.54973 0.24503 0.0
H1032 H 0.49634 0.58132 0.22305 0.0
H1033 H 0.49955 0.56675 0.20961 0.0
H1034 H 0.51971 0.58535 0.2211 0.0
H1035 H 0.53084 0.56508 0.23081 0.0
H1036 H 0.51293 0.5396 0.22668 0.0
C1037 C 0.44731 0.51768 0.27003 0.0
C1038 C 0.43538 0.53935 0.25824 0.0
C1039 C 0.46454 0.50335 0.18176 0.0
C1040 C 0.48195 0.51326 0.1756 0.0
C1041 C 0.49781 0.52835 0.18423 0.0
C1042 C 0.49625 0.53394 0.19864 0.0
C1043 C 0.47864 0.52434 0.20451 0.0
C1044 C 0.46327 0.50898 0.19626 0.0
C1045 C 0.44599 0.49981 0.20467 0.0
C1046 C 0.45339 0.51263 0.21913 0.0
C1047 C 0.47244 0.52714 0.21886 0.0
C1048 C 0.44073 0.47835 0.20662 0.0
C1049 C 0.43023 0.50192 0.19635 0.0
C1050 C 0.51648 0.58668 0.25401 0.0
C1051 C 0.51393 0.59455 0.2673 0.0
C1052 C 0.49686 0.58363 0.27385 0.0
C1053 C 0.48245 0.56559 0.26709 0.0
C1054 C 0.48494 0.55839 0.25352 0.0
C1055 C 0.50181 0.5688 0.24728 0.0
C1056 C 0.50168 0.55928 0.23256 0.0
C1057 C 0.4818 0.54164 0.23089 0.0
C1058 C 0.47212 0.54116 0.24322 0.0
C1059 C 0.51698 0.55318 0.23369 0.0
C1060 C 0.50457 0.57385 0.22089 0.0
H1061 H 0.40935 0.47651 0.21671 0.0
H1062 H 0.40461 0.49965 0.26698 0.0
H1063 H 0.42349 0.5371 0.25037 0.0
H1064 H 0.44725 0.55385 0.25621 0.0
H1065 H 0.4312 0.54013 0.26951 0.0
H1066 H 0.446 0.50299 0.26836 0.0
H1067 H 0.43901 0.51743 0.27933 0.0
H1068 H 0.46246 0.52795 0.2733 0.0
H1069 H 0.4522 0.49147 0.17544 0.0
H1070 H 0.51134 0.5362 0.17969 0.0
H1071 H 0.50877 0.54572 0.20457 0.0
H1072 H 0.45359 0.47692 0.20758 0.0
H1073 H 0.43132 0.46828 0.1971 0.0
H1074 H 0.43394 0.47308 0.21685 0.0
H1075 H 0.43622 0.51655 0.19199 0.0
H1076 H 0.41936 0.50103 0.20343 0.0
H1077 H 0.4232 0.49062 0.18688 0.0
H1078 H 0.37991 0.45931 0.2278 0.0
C1079 C 0.40885 0.4819 0.22759 0.0
Tb1080 Tb 0.51874 0.01467 0.99646 0.0
C1081 C 0.51324 0.97897 0.01325 0.0
Tb1082 Tb 0.4791 0.98691 0.00657 0.0
O1083 O 0.5309 0.02462 0.01925 0.0
O1084 O 0.5024 0.01497 0.01354 0.0
O1085 O 0.52351 0.99177 0.00398 0.0
C1086 C 0.44887 0.96557 0.02104 0.0
O1087 O 0.49664 0.97631 0.01691 0.0
C1088 C 0.4832 0.98193 0.97872 0.0
C1089 C 0.48462 0.02264 0.98987 0.0
O1090 O 0.45483 0.95872 0.01069 0.0
O1091 O 0.45994 0.9844 0.02323 0.0
O1092 O 0.46715 0.97778 0.9837 0.0
O1093 O 0.49538 0.98679 0.98945 0.0
O1094 O 0.47465 0.01026 -0.0005 0.0
O1095 O 0.50103 0.02499 0.986 0.0
C1096 C 0.54837 0.03514 0.98121 0.0
O1097 O 0.5429 0.04248 0.9916 0.0
O1098 O 0.53716 0.01629 0.97941 0.0
C1099 C 0.51478 0.02028 0.02419 0.0
Tb1100 Tb 0.97987 0.5013 -0.00017 0.0
C1101 C 0.02089 0.53772 0.00941 0.0
Tb1102 Tb 0.01279 0.49392 0.00784 0.0
O1103 O 0.96583 0.48693 0.0192 0.0
O1104 O 0.99508 0.50122 0.01911 0.0
O1105 O 0.00328 0.53145 0.0038 0.0
C1106 C 0.03917 0.48913 0.02201 0.0
O1107 O 0.02739 0.52572 0.01246 0.0
C1108 C 0.00395 0.49201 0.97965 0.0
C1109 C 0.97222 0.45828 0.99774 0.0
O1110 O 0.04179 0.49942 0.01082 0.0
O1111 O 0.02177 0.48166 0.02524 0.0
O1112 O 0.01184 0.48276 0.98522 0.0
O1113 O 0.00328 0.50316 0.98963 0.0
O1114 O 0.98816 0.46434 0.00619 0.0
O1115 O 0.96747 0.47057 0.99222 0.0
C1116 C 0.95668 0.51152 0.98675 0.0
O1117 O 0.96281 0.50088 0.98052 0.0
O1118 O 0.96346 0.51629 0.00044 0.0
C1119 C 0.98157 0.49062 0.02633 0.0
Tb1120 Tb 0.47951 0.49446 0.00405 0.0
C1121 C 0.4867 0.46083 0.99291 0.0
Tb1122 Tb 0.51924 0.50592 0.99535 0.0
O1123 O 0.46792 0.48494 0.98116 0.0
O1124 O 0.49585 0.5076 0.98644 0.0
O1125 O 0.47599 0.46542 0.0007 0.0
C1126 C 0.54928 0.51264 0.98112 0.0
O1127 O 0.50337 0.47423 0.98885 0.0
C1128 C 0.51457 0.50337 0.02335 0.0
C1129 C 0.5119 0.53958 0.00627 0.0
O1130 O 0.53393 0.51143 0.97525 0.0
O1131 O 0.54767 0.50995 0.99496 0.0
O1132 O 0.53054 0.51539 0.01836 0.0
O1133 O 0.50281 0.49258 0.01283 0.0
O1134 O 0.52276 0.53502 0.99863 0.0
O1135 O 0.49523 0.52614 0.0103 0.0
C1136 C 0.44986 0.48732 0.01891 0.0
O1137 O 0.45079 0.4895 0.00496 0.0
O1138 O 0.46568 0.48936 0.02451 0.0
C1139 C 0.48387 0.49671 0.97604 0.0
Tb1140 Tb 0.18523 0.35254 0.33113 0.0
C1141 C 0.18117 0.31209 0.34057 0.0
Tb1142 Tb 0.14567 0.31754 0.33601 0.0
O1143 O 0.18775 0.36875 0.35219 0.0
O1144 O 0.17043 0.33841 0.34887 0.0
O1145 O 0.19217 0.32991 0.33631 0.0
C1146 C 0.11319 0.29444 0.34733 0.0
O1147 O 0.16279 0.30459 0.34192 0.0
C1148 C 0.1571 0.31804 0.30972 0.0
C1149 C 0.15003 0.35818 0.32794 0.0
O1150 O 0.11469 0.29972 0.33402 0.0
O1151 O 0.12993 0.30189 0.35411 0.0
O1152 O 0.14519 0.30196 0.31519 0.0
O1153 O 0.16011 0.33241 0.31829 0.0
O1154 O 0.14043 0.34213 0.3349 0.0
O1155 O 0.16696 0.36349 0.32336 0.0
C1156 C 0.21703 0.37306 0.31824 0.0
O1157 O 0.21139 0.38004 0.32878 0.0
O1158 O 0.20481 0.35462 0.31503 0.0
C1159 C 0.17425 0.35328 0.35724 0.0
Tb1160 Tb 0.65182 0.83889 0.32848 0.0
C1161 C 0.69103 0.87257 0.34249 0.0
Tb1162 Tb 0.6812 0.82799 0.33948 0.0
O1163 O 0.64975 0.84841 0.35084 0.0
O1164 O 0.65656 0.82643 0.347 0.0
O1165 O 0.67593 0.86811 0.33349 0.0
C1166 C 0.70615 0.82187 0.35467 0.0
O1167 O 0.69471 0.85912 0.34732 0.0
C1168 C 0.67773 0.82976 0.31112 0.0
C1169 C 0.64184 0.79425 0.32577 0.0
O1170 O 0.70943 0.83167 0.34318 0.0
O1171 O 0.68882 0.81556 0.35767 0.0
O1172 O 0.68287 0.81835 0.317 0.0
O1173 O 0.67654 0.8406 0.32105 0.0
O1174 O 0.65696 0.79873 0.33478 0.0
O1175 O 0.63823 0.80771 0.32085 0.0
C1176 C 0.62799 0.84566 0.31233 0.0
O1177 O 0.62393 0.83588 0.32387 0.0
O1178 O 0.64541 0.85154 0.30987 0.0
C1179 C 0.65515 0.83725 0.35684 0.0
Tb1180 Tb 0.14526 0.82739 0.336 0.0
C1181 C 0.15264 0.79495 0.32266 0.0
Tb1182 Tb 0.18505 0.83989 0.32662 0.0
O1183 O 0.13324 0.81843 0.31315 0.0
O1184 O 0.16115 0.84106 0.31831 0.0
O1185 O 0.14236 0.79873 0.33161 0.0
C1186 C 0.21501 0.84775 0.31197 0.0
O1187 O 0.16865 0.80894 0.31812 0.0
C1188 C 0.18106 0.83648 0.35465 0.0
C1189 C 0.17744 0.87268 0.33943 0.0
O1190 O 0.21008 0.83741 0.32319 0.0
O1191 O 0.20307 0.85363 0.309 0.0
O1192 O 0.19693 0.84857 0.34956 0.0
O1193 O 0.16908 0.82596 0.34415 0.0
O1194 O 0.1887 0.86874 0.33179 0.0
O1195 O 0.16059 0.8589 0.34291 0.0
C1196 C 0.11551 0.81894 0.35113 0.0
O1197 O 0.11656 0.82231 0.33738 0.0
O1198 O 0.13126 0.8205 0.35639 0.0
C1199 C 0.14903 0.83041 0.30791 0.0
Tb1200 Tb 0.85198 0.68009 0.66196 0.0
C1201 C 0.84774 0.64543 0.67941 0.0
Tb1202 Tb 0.81293 0.65221 0.67292 0.0
O1203 O 0.86455 0.69081 0.68464 0.0
O1204 O 0.83596 0.68066 0.6792 0.0
O1205 O 0.857 0.65727 0.66929 0.0
C1206 C 0.78334 0.63146 0.68817 0.0
O1207 O 0.83157 0.64324 0.68377 0.0
C1208 C 0.81628 0.64586 0.64508 0.0
C1209 C 0.81712 0.6866 0.65507 0.0
O1210 O 0.78968 0.62413 0.67846 0.0
O1211 O 0.79368 0.6504 0.68928 0.0
O1212 O 0.80028 0.6414 0.65029 0.0
O1213 O 0.82886 0.65172 0.65564 0.0
O1214 O 0.8078 0.67488 0.66525 0.0
O1215 O 0.83336 0.68884 0.65087 0.0
C1216 C 0.88153 0.70102 0.64671 0.0
O1217 O 0.8749 0.70827 0.65622 0.0
O1218 O 0.87155 0.68206 0.64582 0.0
C1219 C 0.84854 0.68649 0.68975 0.0
Tb1220 Tb 0.31609 0.17156 0.66064 0.0
C1221 C 0.35553 0.20482 0.67469 0.0
Tb1222 Tb 0.34522 0.16009 0.67118 0.0
O1223 O 0.31426 0.18087 0.68314 0.0
O1224 O 0.32077 0.15873 0.67894 0.0
O1225 O 0.34041 0.20064 0.66581 0.0
C1226 C 0.36989 0.15326 0.68606 0.0
O1227 O 0.35908 0.19117 0.67928 0.0
C1228 C 0.34162 0.16233 0.6429 0.0
C1229 C 0.30559 0.12673 0.6576 0.0
O1230 O 0.37328 0.16327 0.67468 0.0
O1231 O 0.35262 0.14716 0.68913 0.0
O1232 O 0.3466 0.15068 0.64855 0.0
O1233 O 0.34063 0.1731 0.65301 0.0
O1234 O 0.32077 0.13099 0.66642 0.0
O1235 O 0.30209 0.14037 0.6529 0.0
C1236 C 0.29252 0.17873 0.64455 0.0
O1237 O 0.28842 0.16914 0.65618 0.0
O1238 O 0.30983 0.18424 0.642 0.0
C1239 C 0.31955 0.16951 0.68894 0.0
Tb1240 Tb 0.81179 0.16074 0.67051 0.0
C1241 C 0.82038 0.12786 0.66032 0.0
Tb1242 Tb 0.85184 0.17334 0.66231 0.0
O1243 O 0.80066 0.15063 0.64753 0.0
O1244 O 0.82814 0.17404 0.65295 0.0
O1245 O 0.80933 0.13213 0.66795 0.0
C1246 C 0.88266 0.18067 0.64902 0.0
O1247 O 0.83683 0.14157 0.65614 0.0
C1248 C 0.847 0.17148 0.6903 0.0
C1249 C 0.84303 0.20621 0.6722 0.0
O1250 O 0.88072 0.17853 0.66289 0.0
O1251 O 0.86719 0.17858 0.64257 0.0
O1252 O 0.86277 0.18385 0.68525 0.0
O1253 O 0.8355 0.16004 0.67988 0.0
O1254 O 0.85407 0.20198 0.6645 0.0
O1255 O 0.82676 0.19246 0.67657 0.0
C1256 C 0.78178 0.1533 0.68499 0.0
O1257 O 0.78258 0.15451 0.67093 0.0
O1258 O 0.79788 0.15643 0.69089 0.0
C1259 C 0.81654 0.16279 0.6425 0.0
C1260 C 0.30198 0.88745 0.08189 0.0
C1261 C 0.29111 0.86695 0.07909 0.0
C1262 C 0.31949 0.89797 0.07615 0.0
C1263 C 0.34658 0.89496 0.04631 0.0
H1264 H 0.38995 0.93653 0.07032 0.0
C1265 C 0.42079 0.93363 0.02538 0.0
C1266 C 0.43172 0.95401 0.02858 0.0
C1267 C 0.40407 0.92279 0.03207 0.0
C1268 C 0.37793 0.92511 0.06341 0.0
H1269 H 0.29043 0.84142 0.06835 0.0
H1270 H 0.32081 0.85982 0.05818 0.0
H1271 H 0.3598 0.91819 0.08092 0.0
H1272 H 0.43405 0.97909 0.04139 0.0
H1273 H 0.40468 0.96026 0.05289 0.0
H1274 H 0.36451 0.902 0.02874 0.0
C1275 C 0.31567 0.86775 0.06469 0.0
C1276 C 0.36067 0.9146 0.0695 0.0
C1277 C 0.29823 0.85723 0.07049 0.0
C1278 C 0.42585 0.96336 0.03875 0.0
C1279 C 0.40909 0.95254 0.0454 0.0
C1280 C 0.36379 0.90553 0.0402 0.0
C1281 C 0.32646 0.88824 0.06742 0.0
C1282 C 0.34482 0.89941 0.06101 0.0
C1283 C 0.39791 0.93214 0.04205 0.0
C1284 C 0.37969 0.92073 0.04867 0.0
H1285 H 0.29681 0.89543 0.0883 0.0
H1286 H 0.32739 0.91378 0.07829 0.0
H1287 H 0.33453 0.88353 0.03943 0.0
H1288 H 0.42508 0.92608 0.01762 0.0
H1289 H 0.39598 0.90706 0.02943 0.0
C1290 C 0.13513 0.42533 0.07541 0.0
C1291 C 0.15468 0.43624 0.07398 0.0
C1292 C 0.12307 0.43182 0.07017 0.0
C1293 C 0.12294 0.47601 0.05818 0.0
H1294 H 0.07256 0.43753 0.04108 0.0
C1295 C 0.07196 0.49454 0.02541 0.0
C1296 C 0.05319 0.48501 0.02913 0.0
C1297 C 0.08488 0.48956 0.03146 0.0
C1298 C 0.08654 0.44842 0.04593 0.0
H1299 H 0.17681 0.46268 0.06593 0.0
H1300 H 0.15567 0.47348 0.05616 0.0
H1301 H 0.0941 0.42672 0.04999 0.0
H1302 H 0.03322 0.46322 0.04229 0.0
H1303 H 0.05572 0.45431 0.0527 0.0
H1304 H 0.11536 0.49771 0.05365 0.0
C1305 C 0.1497 0.46012 0.06165 0.0
C1306 C 0.09888 0.44225 0.0511 0.0
C1307 C 0.16181 0.45375 0.06706 0.0
C1308 C 0.04762 0.47075 0.03922 0.0
C1309 C 0.06044 0.46559 0.04511 0.0
C1310 C 0.11065 0.4822 0.05281 0.0
C1311 C 0.13017 0.44925 0.06315 0.0
C1312 C 0.11721 0.45594 0.05739 0.0
C1313 C 0.07912 0.4748 0.04117 0.0
C1314 C 0.0923 0.46843 0.04675 0.0
H1315 H 0.12905 0.41164 0.08048 0.0
H1316 H 0.10817 0.42319 0.07174 0.0
H1317 H 0.13682 0.48697 0.06315 0.0
H1318 H 0.07658 0.50561 0.01765 0.0
H1319 H 0.09919 0.4968 0.0282 0.0
C1320 C 0.57034 0.70415 0.06567 0.0
C1321 C 0.57536 0.71948 0.05654 0.0
C1322 C 0.56376 0.68502 0.05967 0.0
C1323 C 0.5612 0.65584 0.02554 0.0
H1324 H 0.52146 0.61344 0.04422 0.0
C1325 C 0.53786 0.57464 0.0101 0.0
C1326 C 0.51872 0.56048 0.01062 0.0
C1327 C 0.54457 0.59422 0.01501 0.0
C1328 C 0.53238 0.62508 0.03872 0.0
H1329 H 0.57772 0.72663 0.03387 0.0
H1330 H 0.56551 0.69313 0.02338 0.0
H1331 H 0.53336 0.64708 0.05392 0.0
H1332 H 0.49146 0.55589 0.01627 0.0
H1333 H 0.50301 0.5901 0.0244 0.0
H1334 H 0.55972 0.63381 0.01001 0.0
C1335 C 0.56699 0.69597 0.03522 0.0
C1336 C 0.53945 0.64442 0.04445 0.0
C1337 C 0.57376 0.71518 0.04124 0.0
C1338 C 0.50633 0.56641 0.01583 0.0
C1339 C 0.513 0.58603 0.02059 0.0
C1340 C 0.55399 0.63648 0.01971 0.0
C1341 C 0.56178 0.68062 0.04436 0.0
C1342 C 0.55405 0.66006 0.03801 0.0
C1343 C 0.53226 0.60015 0.02043 0.0
C1344 C 0.53956 0.62084 0.02628 0.0
H1345 H 0.57112 0.7068 0.07749 0.0
H1346 H 0.56022 0.67367 0.06708 0.0
H1347 H 0.57257 0.66748 0.02036 0.0
H1348 H 0.54782 0.57054 0.00625 0.0
H1349 H 0.55953 0.60459 0.01492 0.0
C1350 C 0.86588 0.28255 0.95982 0.0
C1351 C 0.8625 0.2788 0.94443 0.0
C1352 C 0.87852 0.30146 0.96631 0.0
C1353 C 0.90049 0.3532 0.9578 0.0
H1354 H 0.93245 0.36342 0.99374 0.0
C1355 C 0.94075 0.43007 0.988 0.0
C1356 C 0.95948 0.43706 0.99374 0.0
C1357 C 0.92902 0.41035 0.98308 0.0
C1358 C 0.92372 0.36083 0.98364 0.0
H1359 H 0.87016 0.29214 0.92385 0.0
H1360 H 0.89266 0.32468 0.93509 0.0
H1361 H 0.91279 0.32982 0.9826 0.0
H1362 H 0.98043 0.42869 0.99918 0.0
H1363 H 0.96004 0.39423 0.99022 0.0
H1364 H 0.91177 0.3841 0.95848 0.0
C1365 C 0.88524 0.31313 0.94219 0.0
C1366 C 0.91229 0.34153 0.97734 0.0
C1367 C 0.87252 0.29432 0.93572 0.0
C1368 C 0.96604 0.42374 0.99485 0.0
C1369 C 0.95432 0.40397 0.98976 0.0
C1370 C 0.91197 0.37241 0.96402 0.0
C1371 C 0.88814 0.31706 0.95756 0.0
C1372 C 0.90053 0.33749 0.96433 0.0
C1373 C 0.93576 0.39711 0.98357 0.0
C1374 C 0.92366 0.3765 0.97705 0.0
H1375 H 0.85864 0.27091 0.96689 0.0
H1376 H 0.88032 0.30395 0.97819 0.0
H1377 H 0.89142 0.35067 0.94792 0.0
H1378 H 0.93516 0.43989 0.98718 0.0
H1379 H 0.91466 0.40551 0.97875 0.0
C1380 C 0.68982 0.56204 0.91288 0.0
C1381 C 0.70619 0.56849 0.92251 0.0
C1382 C 0.67225 0.55578 0.9184 0.0
C1383 C 0.64704 0.53485 0.95051 0.0
H1384 H 0.6129 0.55271 0.93723 0.0
C1385 C 0.58295 0.52111 0.98159 0.0
C1386 C 0.56631 0.51747 0.97354 0.0
C1387 C 0.5994 0.52653 0.9746 0.0
C1388 C 0.62211 0.5473 0.94089 0.0
H1389 H 0.71701 0.5744 0.94549 0.0
H1390 H 0.68635 0.5631 0.95503 0.0
H1391 H 0.64286 0.56412 0.92628 0.0
H1392 H 0.55355 0.51627 0.95188 0.0
H1393 H 0.58222 0.52525 0.93951 0.0
H1394 H 0.62638 0.51785 0.96495 0.0
C1395 C 0.6871 0.56265 0.94323 0.0
C1396 C 0.63929 0.55392 0.93465 0.0
C1397 C 0.70464 0.56907 0.93775 0.0
C1398 C 0.56627 0.51906 0.95832 0.0
C1399 C 0.58271 0.52433 0.95128 0.0
C1400 C 0.62982 0.52808 0.95663 0.0
C1401 C 0.6707 0.5557 0.93362 0.0
C1402 C 0.65203 0.54798 0.93957 0.0
C1403 C 0.59952 0.52825 0.95936 0.0
C1404 C 0.61726 0.53446 0.95208 0.0
H1405 H 0.69046 0.56122 0.90109 0.0
H1406 H 0.65978 0.55042 0.91075 0.0
H1407 H 0.65646 0.52976 0.95431 0.0
H1408 H 0.58336 0.52011 0.99336 0.0
H1409 H 0.61214 0.52979 0.98123 0.0
C1410 C 0.41036 0.10387 0.92603 0.0
C1411 C 0.42054 0.12442 0.92856 0.0
C1412 C 0.41697 0.09256 0.93259 0.0
C1413 C 0.46059 0.09611 0.94995 0.0
H1414 H 0.42552 0.04689 0.96481 0.0
C1415 C 0.48456 0.04347 0.97022 0.0
C1416 C 0.47698 0.03398 0.98282 0.0
C1417 C 0.47732 0.05408 0.96345 0.0
C1418 C 0.43553 0.06068 0.96083 0.0
H1419 H 0.4458 0.14918 0.93988 0.0
H1420 H 0.45697 0.1295 0.95165 0.0
H1421 H 0.41359 0.06642 0.95363 0.0
H1422 H 0.45581 0.02814 0.99817 0.0
H1423 H 0.44346 0.04704 0.98654 0.0
H1424 H 0.48258 0.09072 0.95753 0.0
C1425 C 0.44401 0.12209 0.94443 0.0
C1426 C 0.42866 0.07176 0.95425 0.0
C1427 C 0.43746 0.13338 0.93783 0.0
C1428 C 0.46194 0.03525 0.98846 0.0
C1429 C 0.45478 0.04599 0.98174 0.0
C1430 C 0.46746 0.0851 0.95658 0.0
C1431 C 0.43391 0.10155 0.94185 0.0
C1432 C 0.44112 0.08962 0.94874 0.0
C1433 C 0.46242 0.05557 0.96916 0.0
C1434 C 0.45502 0.06724 0.9621 0.0
H1435 H 0.39718 0.09648 0.91907 0.0
H1436 H 0.40893 0.07679 0.93025 0.0
H1437 H 0.47057 0.10967 0.94567 0.0
H1438 H 0.49597 0.04255 0.96546 0.0
H1439 H 0.4833 0.06095 0.95362 0.0
C1440 C 0.69779 0.14207 0.9299 0.0
C1441 C 0.70482 0.13241 0.92113 0.0
C1442 C 0.68047 0.13147 0.93587 0.0
C1443 C 0.64612 0.08147 0.94502 0.0
H1444 H 0.61229 0.10246 0.94708 0.0
C1445 C 0.57054 0.03653 0.96294 0.0
C1446 C 0.56523 0.04628 0.97324 0.0
C1447 C 0.58708 0.04696 0.95595 0.0
C1448 C 0.62165 0.09648 0.94667 0.0
H1449 H 0.69913 0.10393 0.91191 0.0
H1450 H 0.6687 0.08554 0.92193 0.0
H1451 H 0.64218 0.12076 0.93614 0.0
H1452 H 0.57267 0.07454 0.98409 0.0
H1453 H 0.60158 0.09283 0.97183 0.0
H1454 H 0.62551 0.05713 0.95548 0.0
C1455 C 0.67671 0.1013 0.92438 0.0
C1456 C 0.63881 0.10698 0.94043 0.0
C1457 C 0.69406 0.11189 0.91846 0.0
C1458 C 0.57647 0.06669 0.97618 0.0
C1459 C 0.59296 0.07715 0.96912 0.0
C1460 C 0.62892 0.07092 0.95117 0.0
C1461 C 0.6697 0.11095 0.93318 0.0
C1462 C 0.65129 0.09965 0.93959 0.0
C1463 C 0.59855 0.06737 0.95905 0.0
C1464 C 0.61654 0.07835 0.95212 0.0
H1465 H 0.70559 0.15788 0.93204 0.0
H1466 H 0.67563 0.13937 0.94274 0.0
H1467 H 0.65551 0.07553 0.94479 0.0
H1468 H 0.56204 0.02079 0.96043 0.0
H1469 H 0.5909 0.03907 0.9481 0.0
C1470 C 0.86062 0.57613 0.93327 0.0
C1471 C 0.85701 0.5726 0.91791 0.0
C1472 C 0.87169 0.56993 0.94082 0.0
C1473 C 0.90681 0.55412 0.93549 0.0
H1474 H 0.8914 0.53151 0.97248 0.0
C1475 C 0.94008 0.51365 0.96394 0.0
C1476 C 0.94477 0.51805 0.97917 0.0
C1477 C 0.92939 0.52043 0.95657 0.0
C1478 C 0.89598 0.53796 0.96224 0.0
H1479 H 0.8621 0.55975 0.8984 0.0
H1480 H 0.88128 0.54873 0.91157 0.0
H1481 H 0.8729 0.54332 0.95934 0.0
H1482 H 0.94194 0.53275 0.9987 0.0
H1483 H 0.92315 0.54458 0.98582 0.0
H1484 H 0.92977 0.54854 0.93835 0.0
C1485 C 0.87585 0.55661 0.91778 0.0
C1486 C 0.88541 0.54477 0.95471 0.0
C1487 C 0.86485 0.5629 0.91023 0.0
C1488 C 0.93844 0.52913 0.98695 0.0
C1489 C 0.92765 0.53582 0.9796 0.0
C1490 C 0.91732 0.54723 0.94298 0.0
C1491 C 0.87933 0.55998 0.93318 0.0
C1492 C 0.89069 0.55292 0.94124 0.0
C1493 C 0.92312 0.53164 0.96431 0.0
C1494 C 0.912 0.53906 0.95642 0.0
H1495 H 0.85499 0.58383 0.93947 0.0
H1496 H 0.87438 0.57309 0.95264 0.0
H1497 H 0.91146 0.56061 0.92528 0.0
H1498 H 0.94482 0.50513 0.95769 0.0
H1499 H 0.92593 0.51677 0.94482 0.0
C1500 C 0.41028 0.28693 0.94832 0.0
C1501 C 0.42268 0.27956 0.9474 0.0
C1502 C 0.41691 0.30616 0.95419 0.0
C1503 C 0.4584 0.34878 0.97576 0.0
H1504 H 0.43702 0.37789 0.95819 0.0
C1505 C 0.49199 0.43336 0.98442 0.0
C1506 C 0.4796 0.4399 0.98851 0.0
C1507 C 0.48502 0.41355 0.98006 0.0
C1508 C 0.44303 0.36988 0.96324 0.0
H1509 H 0.45169 0.28642 0.95174 0.0
H1510 H 0.46348 0.32013 0.96148 0.0
H1511 H 0.42481 0.34374 0.9494 0.0
H1512 H 0.45022 0.43088 0.99108 0.0
H1513 H 0.4381 0.39642 0.98315 0.0
H1514 H 0.4771 0.37537 0.98922 0.0
C1515 C 0.4485 0.311 0.95817 0.0
C1516 C 0.43597 0.35025 0.95829 0.0
C1517 C 0.44179 0.29169 0.95253 0.0
C1518 C 0.46014 0.42628 0.98809 0.0
C1519 C 0.45317 0.40658 0.98347 0.0
C1520 C 0.46567 0.36852 0.98052 0.0
C1521 C 0.43618 0.31856 0.95901 0.0
C1522 C 0.44352 0.3394 0.9645 0.0
C1523 C 0.46554 0.40004 0.97943 0.0
C1524 C 0.45801 0.3792 0.97433 0.0
H1525 H 0.39543 0.27778 0.94452 0.0
H1526 H 0.4069 0.31127 0.95493 0.0
H1527 H 0.46436 0.34086 0.98101 0.0
H1528 H 0.50705 0.44351 0.98466 0.0
H1529 H 0.49481 0.40883 0.9769 0.0
C1530 C 0.14234 0.70705 0.04668 0.0
C1531 C 0.1361 0.71966 0.052 0.0
C1532 C 0.12936 0.68809 0.04061 0.0
C1533 C 0.07882 0.65004 0.04024 0.0
H1534 H 0.09144 0.62458 0.00902 0.0
C1535 C 0.02647 0.57187 0.0135 0.0
C1536 C 0.03374 0.55907 0.01271 0.0
C1537 C 0.03851 0.59194 0.01718 0.0
C1538 C 0.08778 0.63151 0.01777 0.0
H1539 H 0.11147 0.72261 0.05469 0.0
H1540 H 0.08874 0.68964 0.04368 0.0
H1541 H 0.11305 0.6591 0.01701 0.0
H1542 H 0.05943 0.55741 0.01482 0.0
H1543 H 0.08046 0.59253 0.02106 0.0
H1544 H 0.05344 0.6224 0.04084 0.0
C1545 C 0.10364 0.69419 0.04455 0.0
C1546 C 0.10016 0.65127 0.0224 0.0
C1547 C 0.11664 0.71311 0.05079 0.0
C1548 C 0.05336 0.56685 0.01539 0.0
C1549 C 0.06543 0.58696 0.01887 0.0
C1550 C 0.06634 0.63036 0.03548 0.0
C1551 C 0.10981 0.68133 0.03956 0.0
C1552 C 0.09599 0.66072 0.03385 0.0
C1553 C 0.0581 0.59967 0.01993 0.0
C1554 C 0.07082 0.62084 0.02434 0.0
H1555 H 0.15725 0.71161 0.04769 0.0
H1556 H 0.13466 0.67854 0.03717 0.0
H1557 H 0.07524 0.65667 0.04925 0.0
H1558 H 0.01142 0.56636 0.01154 0.0
H1559 H 0.03252 0.60145 0.01784 0.0
C1560 C 0.29535 0.41849 0.06698 0.0
C1561 C 0.29495 0.41846 0.08233 0.0
C1562 C 0.31249 0.42608 0.06062 0.0
C1563 C 0.36187 0.43821 0.0668 0.0
H1564 H 0.37039 0.47466 0.03733 0.0
C1565 C 0.43364 0.4798 0.04203 0.0
C1566 C 0.43293 0.48153 0.02685 0.0
C1567 C 0.41724 0.47301 0.04938 0.0
C1568 C 0.36818 0.46435 0.04541 0.0
H1569 H 0.31228 0.42592 0.10301 0.0
H1570 H 0.34222 0.43883 0.09183 0.0
H1571 H 0.34071 0.45998 0.04884 0.0
H1572 H 0.41477 0.4778 0.00743 0.0
H1573 H 0.38607 0.46556 0.02013 0.0
H1574 H 0.38914 0.44221 0.06317 0.0
C1575 C 0.32921 0.43298 0.08476 0.0
C1576 C 0.35118 0.45597 0.05201 0.0
C1577 C 0.31205 0.42552 0.09114 0.0
C1578 C 0.41569 0.4767 0.01917 0.0
C1579 C 0.39927 0.46978 0.02648 0.0
C1580 C 0.37883 0.44646 0.06009 0.0
C1581 C 0.3296 0.43366 0.06946 0.0
C1582 C 0.34781 0.44273 0.0627 0.0
C1583 C 0.39981 0.4677 0.04166 0.0
C1584 C 0.38214 0.45955 0.04925 0.0
H1585 H 0.28241 0.41277 0.05984 0.0
H1586 H 0.31236 0.42609 0.04877 0.0
H1587 H 0.35957 0.42793 0.07493 0.0
H1588 H 0.44683 0.48348 0.0482 0.0
H1589 H 0.41823 0.4719 0.06111 0.0
C1590 C 0.55799 0.86697 0.06656 0.0
C1591 C 0.57724 0.87555 0.07142 0.0
C1592 C 0.55109 0.87815 0.06023 0.0
C1593 C 0.56464 0.92092 0.04006 0.0
H1594 H 0.52189 0.92183 0.05567 0.0
C1595 C 0.54002 0.9736 0.02071 0.0
C1596 C 0.52059 0.96714 0.01984 0.0
C1597 C 0.547 0.96249 0.02707 0.0
C1598 C 0.53362 0.92151 0.05098 0.0
H1599 H 0.60446 0.90233 0.07327 0.0
H1600 H 0.59242 0.92184 0.06186 0.0
H1601 H 0.53374 0.90191 0.06628 0.0
H1602 H 0.49314 0.94383 0.0247 0.0
H1603 H 0.50512 0.92405 0.03521 0.0
H1604 H 0.56426 0.93993 0.02444 0.0
C1605 C 0.58269 0.90652 0.06309 0.0
C1606 C 0.54045 0.91017 0.05714 0.0
C1607 C 0.58954 0.89543 0.06966 0.0
C1608 C 0.50823 0.94928 0.02534 0.0
C1609 C 0.51515 0.93799 0.03146 0.0
C1610 C 0.55761 0.932 0.03372 0.0
C1611 C 0.56339 0.89801 0.05842 0.0
C1612 C 0.55606 0.90985 0.05177 0.0
C1613 C 0.53465 0.94448 0.03247 0.0
C1614 C 0.54205 0.93252 0.03914 0.0
H1615 H 0.54823 0.85169 0.06787 0.0
H1616 H 0.53616 0.87126 0.05664 0.0
H1617 H 0.57659 0.92074 0.03565 0.0
H1618 H 0.54992 0.98742 0.0167 0.0
H1619 H 0.56212 0.9682 0.02791 0.0
C1620 C 0.95738 0.20993 0.3952 0.0
C1621 C 0.95765 0.20644 0.4101 0.0
C1622 C 0.97423 0.21987 0.38852 0.0
C1623 C 0.02583 0.25276 0.39634 0.0
H1624 H 0.02769 0.23206 0.35745 0.0
C1625 C 0.09577 0.28039 0.36918 0.0
C1626 C 0.09536 0.2834 0.35421 0.0
C1627 C 0.07896 0.27091 0.376 0.0
C1628 C 0.02735 0.23816 0.36824 0.0
H1629 H 0.97585 0.2109 0.42972 0.0
H1630 H 0.00532 0.22831 0.41805 0.0
H1631 H 0.99842 0.21627 0.36947 0.0
H1632 H 0.07722 0.27886 0.33456 0.0
H1633 H 0.04779 0.26234 0.34647 0.0
H1634 H 0.05478 0.27464 0.3951 0.0
C1635 C 0.99206 0.22351 0.41158 0.0
C1636 C 0.01057 0.22912 0.37513 0.0
C1637 C 0.97518 0.21355 0.41827 0.0
C1638 C 0.07788 0.27659 0.34611 0.0
C1639 C 0.06105 0.26708 0.35292 0.0
C1640 C 0.04262 0.26181 0.38945 0.0
C1641 C 0.99176 0.22657 0.39658 0.0
C1642 C 0.00961 0.23632 0.38926 0.0
C1643 C 0.06141 0.26426 0.36797 0.0
C1644 C 0.04357 0.2546 0.37532 0.0
H1645 H 0.94411 0.20494 0.38868 0.0
H1646 H 0.97353 0.22234 0.37702 0.0
H1647 H 0.02548 0.25882 0.40714 0.0
H1648 H 0.10909 0.28556 0.37569 0.0
H1649 H 0.07972 0.26873 0.38755 0.0
C1650 C 0.8277 0.78627 0.40074 0.0
C1651 C 0.82123 0.76971 0.40874 0.0
C1652 C 0.81524 0.79223 0.3954 0.0
C1653 C 0.76408 0.77447 0.38709 0.0
H1654 H 0.7813 0.82996 0.38722 0.0
C1655 C 0.71356 0.80358 0.3728 0.0
C1656 C 0.7196 0.81738 0.36234 0.0
C1657 C 0.72601 0.79827 0.37925 0.0
C1658 C 0.77635 0.81442 0.38708 0.0
H1659 H 0.7964 0.74624 0.41715 0.0
H1660 H 0.7749 0.75707 0.4084 0.0
H1661 H 0.80288 0.81947 0.39683 0.0
H1662 H 0.74338 0.83694 0.35071 0.0
H1663 H 0.76525 0.82786 0.36213 0.0
H1664 H 0.73745 0.76951 0.37751 0.0
C1665 C 0.78954 0.76529 0.40601 0.0
C1666 C 0.78871 0.80839 0.3925 0.0
C1667 C 0.80196 0.75923 0.41122 0.0
C1668 C 0.7384 0.82624 0.35875 0.0
C1669 C 0.75092 0.82111 0.36532 0.0
C1670 C 0.75167 0.78052 0.38182 0.0
C1671 C 0.79602 0.78188 0.39804 0.0
C1672 C 0.78277 0.78833 0.39249 0.0
C1673 C 0.74477 0.80688 0.37547 0.0
C1674 C 0.75772 0.80054 0.38168 0.0
H1675 H 0.84248 0.79484 0.39876 0.0
H1676 H 0.82068 0.8049 0.38912 0.0
H1677 H 0.7591 0.75891 0.38666 0.0
H1678 H 0.6991 0.79656 0.37575 0.0
H1679 H 0.72098 0.78739 0.38715 0.0
C1680 C 0.23864 0.048 0.37442 0.0
C1681 C 0.23965 0.05251 0.38964 0.0
C1682 C 0.23177 0.02869 0.36863 0.0
C1683 C 0.20344 0.9772 0.378 0.0
H1684 H 0.22521 0.96643 0.34462 0.0
C1685 C 0.17147 0.89911 0.34938 0.0
C1686 C 0.18411 0.89338 0.34441 0.0
C1687 C 0.17795 0.91863 0.35436 0.0
C1688 C 0.21907 0.96913 0.35404 0.0
H1689 H 0.23417 0.04007 0.41068 0.0
H1690 H 0.22313 0.00672 0.40069 0.0
H1691 H 0.23771 9e-05 0.35471 0.0
H1692 H 0.21351 0.90364 0.34092 0.0
H1693 H 0.22487 0.93744 0.34999 0.0
H1694 H 0.18539 0.94621 0.37776 0.0
C1695 C 0.22721 0.018 0.39316 0.0
C1696 C 0.22607 0.98851 0.3597 0.0
C1697 C 0.23387 0.03725 0.39893 0.0
C1698 C 0.20335 0.90759 0.34453 0.0
C1699 C 0.20986 0.92704 0.34967 0.0
C1700 C 0.19658 0.95782 0.37244 0.0
C1701 C 0.22591 0.01342 0.37792 0.0
C1702 C 0.21838 0.9928 0.37178 0.0
C1703 C 0.19726 0.93283 0.35466 0.0
C1704 C 0.20432 0.95352 0.36039 0.0
H1705 H 0.24319 0.05938 0.36694 0.0
H1706 H 0.2308 0.02573 0.35683 0.0
H1707 H 0.19694 0.97992 0.38716 0.0
H1708 H 0.15654 0.88854 0.34934 0.0
H1709 H 0.16777 0.92259 0.35787 0.0
C1710 C 0.53831 0.62955 0.26463 0.0
C1711 C 0.52842 0.61455 0.27379 0.0
C1712 C 0.5511 0.64861 0.27061 0.0
C1713 C 0.57856 0.67812 0.30532 0.0
H1714 H 0.57986 0.72052 0.28492 0.0
C1715 C 0.63423 0.75935 0.32213 0.0
C1716 C 0.62866 0.77342 0.32072 0.0
C1717 C 0.62204 0.7398 0.31681 0.0
C1718 C 0.57955 0.70889 0.29088 0.0
H1719 H 0.52476 0.60787 0.29652 0.0
H1720 H 0.54645 0.64129 0.30694 0.0
H1721 H 0.55861 0.68687 0.27512 0.0
H1722 H 0.60572 0.77791 0.31299 0.0
H1723 H 0.58426 0.74379 0.30415 0.0
H1724 H 0.59896 0.70019 0.32142 0.0
C1725 C 0.54456 0.63823 0.2951 0.0
C1726 C 0.56756 0.68953 0.2851 0.0
C1727 C 0.53191 0.61908 0.28911 0.0
C1728 C 0.61051 0.76747 0.31413 0.0
C1729 C 0.59824 0.74789 0.30897 0.0
C1730 C 0.59043 0.6975 0.31119 0.0
C1731 C 0.55417 0.65329 0.28591 0.0
C1732 C 0.56696 0.67388 0.29219 0.0
C1733 C 0.60391 0.73383 0.3101 0.0
C1734 C 0.59111 0.71314 0.30402 0.0
H1735 H 0.53585 0.62675 0.25278 0.0
H1736 H 0.55849 0.65971 0.26318 0.0
H1737 H 0.57863 0.66647 0.31101 0.0
H1738 H 0.64818 0.76349 0.32706 0.0
H1739 H 0.62702 0.72948 0.31767 0.0
C1740 C 0.36475 0.913 0.25491 0.0
C1741 C 0.37345 0.9016 0.25638 0.0
C1742 C 0.34692 0.90681 0.25986 0.0
C1743 C 0.3048 0.86272 0.27133 0.0
H1744 H 0.29442 0.90135 0.28964 0.0
C1745 C 0.24275 0.84388 0.30721 0.0
C1746 C 0.23201 0.85287 0.30427 0.0
C1747 C 0.25929 0.84929 0.30031 0.0
C1748 C 0.29708 0.89044 0.28442 0.0
H1749 H 0.36991 0.87449 0.26402 0.0
H1750 H 0.33944 0.86429 0.27332 0.0
H1751 H 0.32487 0.91202 0.27983 0.0
H1752 H 0.22983 0.87433 0.29177 0.0
H1753 H 0.25902 0.8841 0.2799 0.0
H1754 H 0.27716 0.84113 0.27649 0.0
C1755 C 0.34615 0.8778 0.26803 0.0
C1756 C 0.31449 0.89653 0.27874 0.0
C1757 C 0.36384 0.88386 0.26292 0.0
C1758 C 0.23792 0.86721 0.29422 0.0
C1759 C 0.2546 0.87284 0.28749 0.0
C1760 C 0.2875 0.85663 0.27721 0.0
C1761 C 0.33741 0.88917 0.26655 0.0
C1762 C 0.31862 0.88274 0.27217 0.0
C1763 C 0.26547 0.86398 0.29052 0.0
C1764 C 0.28352 0.87043 0.28384 0.0
H1765 H 0.37178 0.92684 0.25007 0.0
H1766 H 0.34055 0.91583 0.25834 0.0
H1767 H 0.30728 0.8517 0.26609 0.0
H1768 H 0.23845 0.83276 0.31491 0.0
H1769 H 0.2675 0.84235 0.3029 0.0
C1770 C 0.0641 0.43386 0.27443 0.0
C1771 C 0.07643 0.45336 0.27168 0.0
C1772 C 0.0709 0.42341 0.28205 0.0
C1773 C 0.11254 0.43044 0.30597 0.0
H1774 H 0.09317 0.37564 0.29343 0.0
C1775 C 0.15165 0.38855 0.31952 0.0
C1776 C 0.14088 0.3696 0.32401 0.0
C1777 C 0.14285 0.39881 0.31477 0.0
C1778 C 0.09854 0.39088 0.29716 0.0
H1779 H 0.10556 0.47707 0.27442 0.0
H1780 H 0.11754 0.45878 0.28729 0.0
H1781 H 0.07949 0.39332 0.2817 0.0
H1782 H 0.11245 0.34667 0.3273 0.0
H1783 H 0.09708 0.36455 0.31874 0.0
H1784 H 0.13212 0.42808 0.32102 0.0
C1785 C 0.10252 0.45167 0.28404 0.0
C1786 C 0.09068 0.40102 0.29048 0.0
C1787 C 0.09568 0.46215 0.27659 0.0
C1788 C 0.12116 0.36127 0.32394 0.0
C1789 C 0.11233 0.37143 0.31897 0.0
C1790 C 0.12055 0.42036 0.31251 0.0
C1791 C 0.09023 0.43217 0.28693 0.0
C1792 C 0.09773 0.42101 0.29468 0.0
C1793 C 0.12309 0.39022 0.31422 0.0
C1794 C 0.11375 0.40054 0.30806 0.0
H1795 H 0.04915 0.42681 0.27086 0.0
H1796 H 0.06097 0.40852 0.28424 0.0
H1797 H 0.11806 0.44569 0.30974 0.0
H1798 H 0.16687 0.39539 0.3195 0.0
H1799 H 0.15146 0.41323 0.31107 0.0
C1800 C 0.36521 0.47755 0.2639 0.0
C1801 C 0.37169 0.46729 0.25518 0.0
C1802 C 0.34841 0.4675 0.27065 0.0
C1803 C 0.31499 0.41835 0.28196 0.0
H1804 H 0.28161 0.43978 0.28503 0.0
C1805 C 0.2398 0.37437 0.30067 0.0
C1806 C 0.23459 0.38413 0.31104 0.0
C1807 C 0.25653 0.38467 0.29389 0.0
C1808 C 0.29089 0.43372 0.28436 0.0
H1809 H 0.36544 0.43832 0.24672 0.0
H1810 H 0.33582 0.42084 0.25802 0.0
H1811 H 0.31059 0.45729 0.2728 0.0
H1812 H 0.24256 0.41226 0.32241 0.0
H1813 H 0.27184 0.43039 0.31045 0.0
H1814 H 0.29506 0.39461 0.29331 0.0
C1815 C 0.34393 0.43667 0.25989 0.0
C1816 C 0.30752 0.44375 0.27738 0.0
C1817 C 0.3608 0.44672 0.25323 0.0
C1818 C 0.24629 0.40441 0.31445 0.0
C1819 C 0.26296 0.41477 0.30756 0.0
C1820 C 0.29829 0.40825 0.28882 0.0
C1821 C 0.33757 0.44692 0.26876 0.0
C1822 C 0.31979 0.4362 0.2761 0.0
C1823 C 0.26829 0.40497 0.29727 0.0
C1824 C 0.28608 0.41582 0.29009 0.0
H1825 H 0.37307 0.49341 0.26548 0.0
H1826 H 0.34409 0.47588 0.27752 0.0
H1827 H 0.32426 0.41228 0.28144 0.0
H1828 H 0.23098 0.35873 0.29782 0.0
H1829 H 0.26016 0.37678 0.28588 0.0
C1830 C 0.52807 0.89201 0.23947 0.0
C1831 C 0.52299 0.90378 0.24786 0.0
C1832 C 0.53888 0.88481 0.24603 0.0
C1833 C 0.5543 0.87639 0.28258 0.0
H1834 H 0.59154 0.87189 0.26077 0.0
C1835 C 0.59614 0.84181 0.30654 0.0
C1836 C 0.61527 0.85049 0.30393 0.0
C1837 C 0.58431 0.84716 0.29907 0.0
C1838 C 0.58134 0.87321 0.26709 0.0
H1839 H 0.52548 0.91761 0.26956 0.0
H1840 H 0.5449 0.90563 0.28098 0.0
H1841 H 0.57272 0.88439 0.24934 0.0
H1842 H 0.63714 0.87136 0.29144 0.0
H1843 H 0.61676 0.88126 0.27877 0.0
H1844 H 0.56357 0.86618 0.30058 0.0
C1845 C 0.54009 0.90141 0.26943 0.0
C1846 C 0.57031 0.88012 0.26044 0.0
C1847 C 0.52906 0.90838 0.26289 0.0
C1848 C 0.62238 0.8644 0.2936 0.0
C1849 C 0.61064 0.86995 0.28627 0.0
C1850 C 0.56549 0.86972 0.28929 0.0
C1851 C 0.54507 0.88944 0.2611 0.0
C1852 C 0.55667 0.88185 0.26811 0.0
C1853 C 0.59147 0.86151 0.28898 0.0
C1854 C 0.57918 0.86808 0.28165 0.0
H1855 H 0.52336 0.88807 0.22787 0.0
H1856 H 0.54213 0.87535 0.23931 0.0
H1857 H 0.54374 0.8772 0.28876 0.0
H1858 H 0.59031 0.83094 0.31441 0.0
H1859 H 0.56956 0.84004 0.30123 0.0
C1860 C 0.07935 0.62251 0.27473 0.0
C1861 C 0.09193 0.61537 0.27389 0.0
C1862 C 0.08586 0.64188 0.28017 0.0
C1863 C 0.12721 0.68476 0.30151 0.0
H1864 H 0.10402 0.71308 0.2855 0.0
C1865 C 0.15846 0.76867 0.31228 0.0
C1866 C 0.14583 0.77437 0.31735 0.0
C1867 C 0.15192 0.74918 0.30716 0.0
C1868 C 0.11054 0.70528 0.29009 0.0
H1869 H 0.12117 0.62281 0.27769 0.0
H1870 H 0.13277 0.65682 0.2866 0.0
H1871 H 0.09271 0.67936 0.27589 0.0
H1872 H 0.11646 0.76424 0.32082 0.0
H1873 H 0.10501 0.73027 0.31153 0.0
H1874 H 0.14547 0.71111 0.31534 0.0
C1875 C 0.11776 0.6474 0.2836 0.0
C1876 C 0.10401 0.68591 0.28468 0.0
C1877 C 0.11117 0.62795 0.27841 0.0
C1878 C 0.12654 0.76026 0.31708 0.0
C1879 C 0.11996 0.74087 0.31169 0.0
C1880 C 0.13395 0.70425 0.30672 0.0
C1881 C 0.10518 0.65463 0.28464 0.0
C1882 C 0.1122 0.67534 0.29035 0.0
C1883 C 0.1326 0.73517 0.30674 0.0
C1884 C 0.12561 0.71462 0.3011 0.0
H1885 H 0.06441 0.613 0.27142 0.0
H1886 H 0.07567 0.64673 0.28106 0.0
H1887 H 0.13363 0.67705 0.30639 0.0
H1888 H 0.1734 0.77923 0.31238 0.0
H1889 H 0.1619 0.74512 0.30333 0.0
C1890 C 0.81338 0.04061 0.38475 0.0
C1891 C 0.80684 0.05336 0.38897 0.0
C1892 C 0.80066 0.02138 0.37907 0.0
C1893 C 0.74967 0.98348 0.37717 0.0
H1894 H 0.76422 0.95704 0.34817 0.0
C1895 C 0.698 0.90709 0.34705 0.0
C1896 C 0.70418 0.89339 0.34746 0.0
C1897 C 0.71036 0.92678 0.35184 0.0
C1898 C 0.76004 0.96426 0.35632 0.0
H1899 H 0.78203 0.05632 0.39021 0.0
H1900 H 0.75977 0.02295 0.37972 0.0
H1901 H 0.78589 0.99146 0.35635 0.0
H1902 H 0.72815 0.88957 0.35307 0.0
H1903 H 0.74988 0.92417 0.36114 0.0
H1904 H 0.72356 0.95625 0.37673 0.0
C1905 C 0.77466 0.02753 0.38121 0.0
C1906 C 0.77246 0.98395 0.36107 0.0
C1907 C 0.78739 0.04669 0.38712 0.0
C1908 C 0.72298 0.89979 0.35266 0.0
C1909 C 0.73543 0.91956 0.3572 0.0
C1910 C 0.73714 0.96388 0.37221 0.0
C1911 C 0.78111 0.01453 0.37727 0.0
C1912 C 0.76753 0.99379 0.37168 0.0
C1913 C 0.72919 0.9332 0.35688 0.0
C1914 C 0.74229 0.95407 0.36185 0.0
H1915 H 0.82831 0.04533 0.38628 0.0
H1916 H 0.80618 0.01176 0.37647 0.0
H1917 H 0.74547 0.99039 0.38554 0.0
H1918 H 0.68356 0.90258 0.34318 0.0
H1919 H 0.70526 0.93706 0.35145 0.0
C1920 C 0.97919 0.75932 0.42489 0.0
C1921 C 0.96184 0.75201 0.41636 0.0
C1922 C 0.99607 0.76619 0.41817 0.0
C1923 C 0.01719 0.78763 0.38487 0.0
H1924 H 0.05489 0.77341 0.39578 0.0
C1925 C 0.08132 0.80813 0.35161 0.0
C1926 C 0.09857 0.81274 0.35916 0.0
C1927 C 0.06495 0.80111 0.35899 0.0
C1928 C 0.04466 0.7778 0.39277 0.0
H1929 H 0.9486 0.74531 0.39403 0.0
H1930 H 0.97811 0.75771 0.38238 0.0
H1931 H 0.02562 0.75977 0.40794 0.0
H1932 H 0.11252 0.81412 0.38033 0.0
H1933 H 0.08404 0.80244 0.39339 0.0
H1934 H 0.03622 0.80595 0.36995 0.0
C1935 C 0.97861 0.75829 0.39427 0.0
C1936 C 0.02787 0.76989 0.39969 0.0
C1937 C 0.96173 0.75123 0.40096 0.0
C1938 C 0.09933 0.8106 0.37427 0.0
C1939 C 0.08298 0.80376 0.3817 0.0
C1940 C 0.03405 0.79571 0.37808 0.0
C1941 C 0.99596 0.76606 0.40281 0.0
C1942 C 0.01391 0.7746 0.3957 0.0
C1943 C 0.06553 0.79875 0.37412 0.0
C1944 C 0.04794 0.79076 0.38183 0.0
H1945 H 0.97986 0.76039 0.43678 0.0
H1946 H 0.00928 0.77223 0.42502 0.0
H1947 H 0.00679 0.79177 0.38178 0.0
H1948 H 0.08036 0.80954 0.33992 0.0
H1949 H 0.05175 0.7971 0.35272 0.0
C1950 C 0.22943 0.20308 0.39218 0.0
C1951 C 0.24786 0.21177 0.3991 0.0
C1952 C 0.22342 0.21429 0.38478 0.0
C1953 C 0.23475 0.26557 0.38197 0.0
H1954 H 0.20004 0.24273 0.34675 0.0
C1955 C 0.20976 0.30967 0.34822 0.0
C1956 C 0.19004 0.30059 0.34509 0.0
C1957 C 0.21794 0.29912 0.35365 0.0
C1958 C 0.2097 0.24927 0.35659 0.0
H1959 H 0.27458 0.23895 0.4035 0.0
H1960 H 0.26424 0.25854 0.39032 0.0
H1961 H 0.21248 0.22394 0.35848 0.0
H1962 H 0.16353 0.2731 0.34468 0.0
H1963 H 0.17786 0.25469 0.354 0.0
H1964 H 0.23198 0.29094 0.37997 0.0
C1965 C 0.25426 0.24313 0.39087 0.0
C1966 C 0.21677 0.23849 0.36336 0.0
C1967 C 0.26022 0.23192 0.39841 0.0
C1968 C 0.17876 0.28057 0.34704 0.0
C1969 C 0.18696 0.26998 0.35229 0.0
C1970 C 0.22781 0.27641 0.3751 0.0
C1971 C 0.23576 0.23446 0.38399 0.0
C1972 C 0.22917 0.24639 0.37627 0.0
C1973 C 0.20659 0.27922 0.35586 0.0
C1974 C 0.21502 0.26826 0.36247 0.0
H1975 H 0.21952 0.18763 0.39272 0.0
H1976 H 0.20896 0.20718 0.3799 0.0
H1977 H 0.24404 0.27204 0.39199 0.0
H1978 H 0.21885 0.32508 0.34686 0.0
H1979 H 0.23313 0.30655 0.3562 0.0
C1980 C 0.62666 0.54043 0.73239 0.0
C1981 C 0.6258 0.53587 0.74708 0.0
C1982 C 0.64409 0.55081 0.72655 0.0
C1983 C 0.69539 0.58306 0.73711 0.0
H1984 H 0.69973 0.56777 0.69717 0.0
C1985 C 0.76028 0.63 0.70554 0.0
C1986 C 0.76642 0.62021 0.69603 0.0
C1987 C 0.74363 0.61948 0.71238 0.0
C1988 C 0.69884 0.5721 0.7084 0.0
H1989 H 0.64251 0.53858 0.76716 0.0
H1990 H 0.67297 0.55657 0.75694 0.0
H1991 H 0.66975 0.54984 0.7079 0.0
H1992 H 0.76042 0.59182 0.6865 0.0
H1993 H 0.73148 0.57332 0.69865 0.0
H1994 H 0.72462 0.60506 0.73769 0.0
C1995 C 0.66019 0.55241 0.74999 0.0
C1996 C 0.68155 0.56199 0.71448 0.0
C1997 C 0.64275 0.5421 0.75585 0.0
C1998 C 0.75591 0.5997 0.69374 0.0
C1999 C 0.73929 0.58915 0.70062 0.0
C2000 C 0.7127 0.59314 0.73103 0.0
C2001 C 0.66107 0.5568 0.73524 0.0
C2002 C 0.67958 0.56741 0.72889 0.0
C2003 C 0.73283 0.59893 0.70989 0.0
C2004 C 0.71462 0.58784 0.71658 0.0
H2005 H 0.61385 0.53608 0.72543 0.0
H2006 H 0.64426 0.55428 0.71524 0.0
H2007 H 0.69432 0.58773 0.74819 0.0
H2008 H 0.76815 0.64584 0.70748 0.0
H2009 H 0.73898 0.62751 0.71931 0.0
C2010 C 0.46397 0.08759 0.74103 0.0
C2011 C 0.48334 0.09832 0.73893 0.0
C2012 C 0.45162 0.09373 0.7358 0.0
C2013 C 0.45127 0.13751 0.72323 0.0
H2014 H 0.40011 0.09931 0.70752 0.0
C2015 C 0.40191 0.15702 0.68996 0.0
C2016 C 0.3831 0.1483 0.69352 0.0
C2017 C 0.4142 0.15146 0.69633 0.0
C2018 C 0.41431 0.11012 0.71202 0.0
H2019 H 0.50483 0.12392 0.72953 0.0
H2020 H 0.48318 0.13407 0.71982 0.0
H2021 H 0.42145 0.08818 0.71641 0.0
H2022 H 0.36235 0.12726 0.70666 0.0
H2023 H 0.38382 0.11731 0.7177 0.0
H2024 H 0.44417 0.15944 0.7184 0.0
C2025 C 0.47758 0.12116 0.72584 0.0
C2026 C 0.42654 0.10377 0.71715 0.0
C2027 C 0.48997 0.11514 0.73121 0.0
C2028 C 0.37682 0.13418 0.70374 0.0
C2029 C 0.38904 0.12843 0.70998 0.0
C2030 C 0.4391 0.14385 0.71795 0.0
C2031 C 0.45828 0.11065 0.72819 0.0
C2032 C 0.44519 0.11738 0.7228 0.0
C2033 C 0.4078 0.13692 0.70625 0.0
C2034 C 0.42052 0.13022 0.71228 0.0
H2035 H 0.4583 0.07441 0.74674 0.0
H2036 H 0.43689 0.08537 0.73795 0.0
H2037 H 0.4654 0.14841 0.72778 0.0
H2038 H 0.40708 0.16795 0.6821 0.0
H2039 H 0.42855 0.15813 0.69319 0.0
C2040 C 0.90919 0.3824 0.70709 0.0
C2041 C 0.90354 0.38573 0.72067 0.0
C2042 C 0.90271 0.36324 0.70104 0.0
C2043 C 0.88142 0.3123 0.71193 0.0
H2044 H 0.86963 0.29776 0.66997 0.0
C2045 C 0.84108 0.232 0.68775 0.0
C2046 C 0.84924 0.22701 0.67638 0.0
C2047 C 0.84775 0.25161 0.69244 0.0
C2048 C 0.873 0.30169 0.6817 0.0
H2049 H 0.88608 0.3718 0.73825 0.0
H2050 H 0.87435 0.33852 0.72759 0.0
H2051 H 0.88111 0.33167 0.6795 0.0
H2052 H 0.87041 0.2387 0.6607 0.0
H2053 H 0.88186 0.27308 0.66881 0.0
H2054 H 0.87287 0.28225 0.71413 0.0
C2055 C 0.88428 0.35055 0.72179 0.0
C2056 C 0.87964 0.3211 0.68717 0.0
C2057 C 0.89092 0.36963 0.72788 0.0
C2058 C 0.86387 0.24208 0.66952 0.0
C2059 C 0.87037 0.26174 0.6741 0.0
C2060 C 0.87458 0.29292 0.70648 0.0
C2061 C 0.8903 0.34707 0.70841 0.0
C2062 C 0.88379 0.32662 0.70238 0.0
C2063 C 0.86256 0.26667 0.68576 0.0
C2064 C 0.87018 0.28739 0.69134 0.0
H2065 H 0.91899 0.39461 0.70135 0.0
H2066 H 0.90779 0.36113 0.69079 0.0
H2067 H 0.88494 0.31607 0.72366 0.0
H2068 H 0.82984 0.22076 0.6933 0.0
H2069 H 0.84136 0.25503 0.70137 0.0
C2070 C 0.19458 0.95171 0.62061 0.0
C2071 C 0.1914 0.94729 0.60527 0.0
C2072 C 0.20705 0.97086 0.62672 0.0
C2073 C 0.23024 0.02232 0.61698 0.0
H2074 H 0.26152 0.03263 0.65331 0.0
C2075 C 0.27404 0.10025 0.646 0.0
C2076 C 0.29216 0.10595 0.65253 0.0
C2077 C 0.26153 0.08071 0.64087 0.0
C2078 C 0.25302 0.03004 0.64308 0.0
H2079 H 0.19909 0.9597 0.58436 0.0
H2080 H 0.22138 0.99267 0.59497 0.0
H2081 H 0.24099 0.99897 0.64284 0.0
H2082 H 0.31137 0.09559 0.65879 0.0
H2083 H 0.2898 0.06166 0.64947 0.0
H2084 H 0.24278 0.05334 0.61685 0.0
C2085 C 0.21391 0.98148 0.60232 0.0
C2086 C 0.24103 0.01069 0.63718 0.0
C2087 C 0.20133 0.96242 0.59622 0.0
C2088 C 0.29745 0.09166 0.6539 0.0
C2089 C 0.28502 0.07215 0.64862 0.0
C2090 C 0.24234 0.04164 0.6228 0.0
C2091 C 0.21676 0.98603 0.61764 0.0
C2092 C 0.22951 0.00658 0.62403 0.0
C2093 C 0.26692 0.06643 0.64198 0.0
C2094 C 0.25389 0.04577 0.63593 0.0
H2095 H 0.18738 0.9404 0.62793 0.0
H2096 H 0.20875 0.97382 0.63856 0.0
H2097 H 0.22135 0.01975 0.60698 0.0
H2098 H 0.26946 0.11087 0.64489 0.0
H2099 H 0.24759 0.07681 0.6361 0.0
C2100 C 0.02444 0.23065 0.583 0.0
C2101 C 0.04098 0.23722 0.59243 0.0
C2102 C 0.00702 0.22444 0.58871 0.0
C2103 C 0.98217 0.20436 0.62118 0.0
H2104 H 0.94785 0.22145 0.60675 0.0
C2105 C 0.91659 0.19001 0.65054 0.0
C2106 C 0.90009 0.18578 0.64196 0.0
C2107 C 0.93341 0.19568 0.64405 0.0
C2108 C 0.95713 0.21629 0.61074 0.0
H2109 H 0.05223 0.24301 0.61528 0.0
H2110 H 0.02176 0.23183 0.62522 0.0
H2111 H 0.97807 0.23295 0.59625 0.0
H2112 H 0.88797 0.18378 0.61988 0.0
H2113 H 0.91731 0.19324 0.6084 0.0
H2114 H 0.96125 0.18751 0.63553 0.0
C2115 C 0.0223 0.23133 0.6134 0.0
C2116 C 0.97446 0.22294 0.60477 0.0
C2117 C 0.03973 0.2377 0.6077 0.0
C2118 C 0.90056 0.18703 0.62673 0.0
C2119 C 0.91739 0.19258 0.62019 0.0
C2120 C 0.96479 0.19757 0.62707 0.0
C2121 C 0.00576 0.22452 0.60396 0.0
C2122 C 0.98721 0.21718 0.61003 0.0
C2123 C 0.93405 0.19709 0.6288 0.0
C2124 C 0.95213 0.2036 0.62202 0.0
H2125 H 0.02482 0.22979 0.57117 0.0
H2126 H 0.99446 0.21908 0.58118 0.0
H2127 H 0.9916 0.19942 0.62527 0.0
H2128 H 0.91659 0.18925 0.66234 0.0
H2129 H 0.94601 0.19936 0.65106 0.0
C2130 C 0.75022 0.78448 0.6088 0.0
C2131 C 0.75492 0.79024 0.59463 0.0
C2132 C 0.75606 0.77249 0.61524 0.0
C2133 C 0.77434 0.73883 0.60625 0.0
H2134 H 0.79045 0.74849 0.64795 0.0
C2135 C 0.81511 0.70541 0.63455 0.0
C2136 C 0.80909 0.69758 0.648 0.0
C2137 C 0.80769 0.71596 0.62791 0.0
C2138 C 0.78582 0.74551 0.63632 0.0
H2139 H 0.76963 0.78825 0.57617 0.0
H2140 H 0.78022 0.76772 0.5875 0.0
H2141 H 0.77923 0.76851 0.63662 0.0
H2142 H 0.7905 0.69456 0.66499 0.0
H2143 H 0.77771 0.71322 0.65344 0.0
H2144 H 0.78143 0.71613 0.60597 0.0
C2145 C 0.77159 0.77198 0.59352 0.0
C2146 C 0.77932 0.75693 0.62982 0.0
C2147 C 0.76559 0.7838 0.58703 0.0
C2148 C 0.79543 0.70042 0.65463 0.0
C2149 C 0.78818 0.71118 0.64807 0.0
C2150 C 0.78101 0.72754 0.61274 0.0
C2151 C 0.76691 0.76617 0.60772 0.0
C2152 C 0.77353 0.75377 0.61469 0.0
C2153 C 0.79426 0.71908 0.63466 0.0
C2154 C 0.78684 0.73079 0.62783 0.0
H2155 H 0.74182 0.78905 0.61483 0.0
H2156 H 0.7519 0.76803 0.62607 0.0
H2157 H 0.76966 0.73572 0.59464 0.0
H2158 H 0.82551 0.70334 0.6291 0.0
H2159 H 0.81272 0.72199 0.61762 0.0
C2160 C 0.03633 0.7936 0.59965 0.0
C2161 C 0.03665 0.79732 0.58479 0.0
C2162 C 0.01915 0.78339 0.60588 0.0
C2163 C 0.96786 0.74989 0.59628 0.0
H2164 H 0.96419 0.7662 0.63612 0.0
C2165 C 0.9046 0.70272 0.62926 0.0
C2166 C 0.89825 0.7124 0.63867 0.0
C2167 C 0.92097 0.7134 0.62213 0.0
C2168 C 0.96488 0.76157 0.62492 0.0
H2169 H 0.01923 0.79342 0.56482 0.0
H2170 H 0.98922 0.77574 0.57571 0.0
H2171 H 0.99366 0.78438 0.62476 0.0
H2172 H 0.90361 0.74074 0.64776 0.0
H2173 H 0.93206 0.7595 0.63511 0.0
H2174 H 0.93893 0.72731 0.59635 0.0
C2175 C 0.00223 0.7804 0.58251 0.0
C2176 C 0.98189 0.77184 0.61848 0.0
C2177 C 0.01942 0.79055 0.57626 0.0
C2178 C 0.90829 0.73294 0.64061 0.0
C2179 C 0.92463 0.74365 0.63344 0.0
C2180 C 0.95082 0.73965 0.60272 0.0
C2181 C 0.00189 0.77674 0.59741 0.0
C2182 C 0.98363 0.76605 0.60411 0.0
C2183 C 0.93128 0.734 0.62422 0.0
C2184 C 0.94916 0.7453 0.61715 0.0
H2185 H 0.04937 0.79838 0.60645 0.0
H2186 H 0.01941 0.7805 0.61731 0.0
H2187 H 0.96874 0.74491 0.58525 0.0
H2188 H 0.89709 0.68686 0.62759 0.0
H2189 H 0.92578 0.70547 0.61526 0.0
C2190 C 0.19257 0.22356 0.56998 0.0
C2191 C 0.18791 0.23585 0.57816 0.0
C2192 C 0.20351 0.21655 0.57666 0.0
C2193 C 0.2195 0.20957 0.61348 0.0
H2194 H 0.25581 0.20308 0.59187 0.0
C2195 C 0.2608 0.1752 0.63872 0.0
C2196 C 0.27987 0.18349 0.63598 0.0
C2197 C 0.24902 0.18038 0.63098 0.0
C2198 C 0.24586 0.20496 0.59812 0.0
H2199 H 0.19146 0.25099 0.59953 0.0
H2200 H 0.21108 0.23938 0.61109 0.0
H2201 H 0.23714 0.21547 0.57996 0.0
H2202 H 0.30164 0.20347 0.62298 0.0
H2203 H 0.28134 0.21309 0.60982 0.0
H2204 H 0.22885 0.20001 0.63186 0.0
C2205 C 0.20582 0.23456 0.59967 0.0
C2206 C 0.23493 0.21182 0.59121 0.0
C2207 C 0.19468 0.24133 0.59304 0.0
C2208 C 0.28694 0.19683 0.62526 0.0
C2209 C 0.27525 0.20222 0.61764 0.0
C2210 C 0.23057 0.20295 0.62044 0.0
C2211 C 0.21022 0.22191 0.59161 0.0
C2212 C 0.22166 0.21429 0.59883 0.0
C2213 C 0.25616 0.19417 0.62048 0.0
C2214 C 0.24394 0.20061 0.61287 0.0
H2215 H 0.18734 0.21897 0.55852 0.0
H2216 H 0.20637 0.20663 0.57015 0.0
H2217 H 0.2092 0.21095 0.61963 0.0
H2218 H 0.255 0.16475 0.64688 0.0
H2219 H 0.23432 0.17357 0.63326 0.0
C2220 C 0.74687 0.95389 0.61708 0.0
C2221 C 0.75951 0.94687 0.61577 0.0
C2222 C 0.75335 0.97308 0.62294 0.0
C2223 C 0.79503 0.01651 0.64366 0.0
H2224 H 0.77189 0.04432 0.62662 0.0
C2225 C 0.82657 0.10096 0.65195 0.0
C2226 C 0.81386 0.10699 0.65618 0.0
C2227 C 0.8201 0.0812 0.64773 0.0
C2228 C 0.77841 0.03667 0.63153 0.0
H2229 H 0.78876 0.95429 0.61949 0.0
H2230 H 0.80025 0.98797 0.62923 0.0
H2231 H 0.76022 0.01023 0.618 0.0
H2232 H 0.78439 0.09706 0.65922 0.0
H2233 H 0.77312 0.06272 0.65156 0.0
H2234 H 0.81367 0.04342 0.6568 0.0
C2235 C 0.78524 0.97859 0.6262 0.0
C2236 C 0.77165 0.01708 0.62668 0.0
C2237 C 0.77869 0.95929 0.62057 0.0
C2238 C 0.79458 0.09289 0.6561 0.0
C2239 C 0.78808 0.07325 0.65164 0.0
C2240 C 0.80199 0.03623 0.64833 0.0
C2241 C 0.77268 0.98582 0.62736 0.0
C2242 C 0.77981 0.00668 0.63271 0.0
C2243 C 0.80076 0.06722 0.64739 0.0
C2244 C 0.79368 0.04644 0.64235 0.0
H2245 H 0.73197 0.94451 0.61356 0.0
H2246 H 0.74316 0.97792 0.62397 0.0
H2247 H 0.80149 0.00896 0.64876 0.0
H2248 H 0.84151 0.11148 0.65192 0.0
H2249 H 0.83013 0.0769 0.64442 0.0
C2250 C 0.47935 0.37204 0.71786 0.0
C2251 C 0.47304 0.38506 0.72188 0.0
C2252 C 0.4665 0.35289 0.71208 0.0
C2253 C 0.41525 0.31567 0.70959 0.0
H2254 H 0.42973 0.28863 0.68105 0.0
C2255 C 0.36302 0.23953 0.67939 0.0
C2256 C 0.36889 0.22558 0.67976 0.0
C2257 C 0.37557 0.25915 0.68425 0.0
C2258 C 0.42557 0.29601 0.68907 0.0
H2259 H 0.44848 0.38856 0.7226 0.0
H2260 H 0.42601 0.35533 0.71195 0.0
H2261 H 0.45174 0.32295 0.68933 0.0
H2262 H 0.39256 0.22128 0.68541 0.0
H2263 H 0.41463 0.25574 0.69363 0.0
H2264 H 0.38885 0.28872 0.70896 0.0
C2265 C 0.44082 0.35965 0.71368 0.0
C2266 C 0.43818 0.31565 0.69388 0.0
C2267 C 0.45367 0.37873 0.71968 0.0
C2268 C 0.38761 0.23168 0.68502 0.0
C2269 C 0.40026 0.25139 0.68964 0.0
C2270 C 0.40254 0.29613 0.70459 0.0
C2271 C 0.44702 0.34638 0.70997 0.0
C2272 C 0.43327 0.32571 0.70432 0.0
C2273 C 0.39433 0.26527 0.68934 0.0
C2274 C 0.40765 0.28609 0.69439 0.0
H2275 H 0.49419 0.37648 0.71965 0.0
H2276 H 0.47182 0.34306 0.70965 0.0
H2277 H 0.41106 0.32274 0.71784 0.0
H2278 H 0.34865 0.23526 0.67547 0.0
H2279 H 0.37069 0.26961 0.68386 0.0
C2280 C 0.62895 0.08884 0.736 0.0
C2281 C 0.62947 0.09161 0.75137 0.0
C2282 C 0.64566 0.09556 0.72913 0.0
C2283 C 0.69551 0.10947 0.73504 0.0
H2284 H 0.70163 0.14008 0.70183 0.0
C2285 C 0.766 0.14806 0.70826 0.0
C2286 C 0.76486 0.14778 0.69289 0.0
C2287 C 0.74974 0.14186 0.71571 0.0
C2288 C 0.70008 0.13136 0.71096 0.0
H2289 H 0.64806 0.10332 0.77157 0.0
H2290 H 0.67724 0.11462 0.75953 0.0
H2291 H 0.67256 0.12704 0.71411 0.0
H2292 H 0.74607 0.14094 0.67319 0.0
H2293 H 0.7176 0.12962 0.6861 0.0
H2294 H 0.7228 0.11335 0.73173 0.0
C2295 C 0.66383 0.10726 0.75285 0.0
C2296 C 0.68344 0.12393 0.71801 0.0
C2297 C 0.64711 0.1007 0.75974 0.0
C2298 C 0.74731 0.14141 0.68507 0.0
C2299 C 0.73102 0.13502 0.69249 0.0
C2300 C 0.7121 0.11672 0.72789 0.0
C2301 C 0.66326 0.105 0.73747 0.0
C2302 C 0.68098 0.11289 0.73009 0.0
C2303 C 0.73202 0.13507 0.70791 0.0
C2304 C 0.71457 0.12773 0.71574 0.0
H2305 H 0.61561 0.08152 0.72924 0.0
H2306 H 0.64483 0.09334 0.71726 0.0
H2307 H 0.69389 0.10085 0.74426 0.0
H2308 H 0.77943 0.15298 0.71453 0.0
H2309 H 0.7511 0.14242 0.72759 0.0
C2310 C 0.92045 0.55205 0.72417 0.0
C2311 C 0.91646 0.54655 0.73848 0.0
C2312 C 0.91373 0.56337 0.71778 0.0
C2313 C 0.89372 0.59543 0.72709 0.0
H2314 H 0.87614 0.58446 0.68566 0.0
C2315 C 0.84997 0.62615 0.69952 0.0
C2316 C 0.85582 0.63431 0.68615 0.0
C2317 C 0.85781 0.61582 0.70594 0.0
C2318 C 0.88114 0.58777 0.69722 0.0
H2319 H 0.90202 0.54821 0.75724 0.0
H2320 H 0.88992 0.56752 0.74604 0.0
H2321 H 0.8891 0.56577 0.69679 0.0
H2322 H 0.87436 0.63793 0.66897 0.0
H2323 H 0.88783 0.61968 0.68012 0.0
H2324 H 0.88528 0.61711 0.72752 0.0
C2325 C 0.8987 0.56365 0.73985 0.0
C2326 C 0.88865 0.57714 0.7036 0.0
C2327 C 0.90559 0.55254 0.74627 0.0
C2328 C 0.86958 0.63185 0.6793 0.0
C2329 C 0.87722 0.62131 0.68562 0.0
C2330 C 0.88602 0.6059 0.72074 0.0
C2331 C 0.90266 0.56922 0.72552 0.0
C2332 C 0.89502 0.58081 0.71863 0.0
C2333 C 0.87145 0.61325 0.69902 0.0
C2334 C 0.87965 0.60216 0.70575 0.0
H2335 H 0.92893 0.54775 0.71797 0.0
H2336 H 0.91733 0.56764 0.70682 0.0
H2337 H 0.89882 0.59894 0.73863 0.0
H2338 H 0.83948 0.62788 0.70511 0.0
H2339 H 0.85302 0.60963 0.71623 0.0
C2340 C 0.49155 0.99104 0.15346 0.0
C2341 C 0.47238 0.97913 0.15588 0.0
C2342 C 0.49668 0.99817 0.1398 0.0
C2343 C 0.48126 0.00996 0.10579 0.0
H2344 H 0.51393 0.99419 0.08759 0.0
C2345 C 0.49399 0.01671 0.04423 0.0
C2346 C 0.51118 0.01931 0.03981 0.0
C2347 C 0.48985 0.01382 0.05884 0.0
C2348 C 0.50515 0.99915 0.09256 0.0
H2349 H 0.44356 0.9662 0.14589 0.0
H2350 H 0.45264 0.9793 0.12216 0.0
H2351 H 0.50573 0.98627 0.11246 0.0
H2352 H 0.53825 0.02265 0.04728 0.0
H2353 H 0.53162 0.01879 0.07291 0.0
H2354 H 0.48099 0.02329 0.0861 0.0
C2355 C 0.46361 0.98289 0.1309 0.0
C2356 C 0.50037 0.99446 0.1068 0.0
C2357 C 0.45845 0.97546 0.14451 0.0
C2358 C 0.52473 0.02034 0.05038 0.0
C2359 C 0.5208 0.01788 0.06505 0.0
C2360 C 0.48634 0.01502 0.09162 0.0
C2361 C 0.48277 0.99389 0.12834 0.0
C2362 C 0.48829 -0.0003 0.11349 0.0
C2363 C 0.5031 0.01404 0.06941 0.0
C2364 C 0.49826 0.00954 0.08476 0.0
H2365 H 0.50267 0.99464 0.16206 0.0
H2366 H 0.51156 0.00684 0.13812 0.0
H2367 H 0.47198 0.01422 0.1108 0.0
H2368 H 0.48368 0.01675 0.03637 0.0
H2369 H 0.47606 0.01088 0.06169 0.0
C2370 C 0.02848 0.51167 0.15448 0.0
C2371 C 0.01686 0.4999 0.16484 0.0
C2372 C 0.02309 0.50651 0.13948 0.0
C2373 C 0.98302 0.48295 0.11272 0.0
H2374 H 0.01841 0.48149 0.08678 0.0
C2375 C 0.96829 0.47491 0.0493 0.0
C2376 C 0.98392 0.48701 0.04174 0.0
C2377 C 0.97081 0.47257 0.06419 0.0
C2378 C 0.00839 0.48198 0.09383 0.0
H2379 H 0.99054 0.4736 0.16778 0.0
H2380 H 0.9807 0.46486 0.14128 0.0
H2381 H 0.02572 0.48516 0.11333 0.0
H2382 H 0.01438 0.50607 0.04368 0.0
H2383 H 0.01875 0.50247 0.06948 0.0
H2384 H 0.96621 0.48103 0.09331 0.0
C2385 C 0.99408 0.47791 0.14488 0.0
C2386 C 0.01255 0.48394 0.10903 0.0
C2387 C -0.0003 0.48286 0.15995 0.0
C2388 C 0.00208 0.49648 0.04919 0.0
C2389 C 0.00459 0.49428 0.06401 0.0
C2390 C 0.97898 0.48131 0.09748 0.0
C2391 C 0.00582 0.48966 0.13454 0.0
C2392 C 0.00011 0.48488 0.11859 0.0
C2393 C 0.989 0.48241 0.07177 0.0
C2394 C 0.99187 0.48134 0.08784 0.0
H2395 H 0.04185 0.52479 0.15802 0.0
H2396 H 0.0323 0.51588 0.13171 0.0
H2397 H 0.97327 0.48376 0.11991 0.0
H2398 H 0.95414 0.46741 0.04376 0.0
H2399 H 0.95851 0.46315 0.06976 0.0
C2400 C 0.47075 0.50788 0.1489 0.0
C2401 C 0.48356 0.50855 0.16005 0.0
C2402 C 0.47335 0.50538 0.13413 0.0
C2403 C 0.51095 0.51135 0.11036 0.0
H2404 H 0.46885 0.48506 0.08034 0.0
C2405 C 0.52215 0.51905 0.04896 0.0
C2406 C 0.51072 0.50279 0.0389 0.0
C2407 C 0.5184 0.51872 0.0637 0.0
C2408 C 0.48079 0.49224 0.08858 0.0
H2409 H 0.50849 0.50613 0.16462 0.0
H2410 H 0.51269 0.50103 0.13887 0.0
H2411 H 0.46273 0.4849 0.10611 0.0
H2412 H 0.48674 0.47324 0.03626 0.0
H2413 H 0.48039 0.47238 0.06209 0.0
H2414 H 0.52903 0.51811 0.09293 0.0
C2415 C 0.501 0.50311 0.14144 0.0
C2416 C 0.47727 0.4924 0.10338 0.0
C2417 C 0.49856 0.5059 0.1562 0.0
C2418 C 0.49561 0.48606 0.04382 0.0
C2419 C 0.49195 0.48563 0.0586 0.0
C2420 C 0.51447 0.511 0.0956 0.0
C2421 C 0.48867 0.50325 0.13019 0.0
C2422 C 0.49231 0.50211 0.11446 0.0
C2423 C 0.50329 0.50198 0.06874 0.0
C2424 C 0.49945 0.50164 0.0845 0.0
H2425 H 0.45917 0.51008 0.1516 0.0
H2426 H 0.46371 0.50585 0.12582 0.0
H2427 H 0.52292 0.51924 0.11851 0.0
H2428 H 0.53381 0.53218 0.04539 0.0
H2429 H 0.52721 0.53173 0.07109 0.0
C2430 C 0.95845 0.49131 0.8492 0.0
C2431 C 0.96451 0.48121 0.83984 0.0
C2432 C 0.96289 0.49353 0.86441 0.0
C2433 C 0.97244 0.46951 0.89356 0.0
H2434 H 0.99572 0.51977 0.91666 0.0
C2435 C 0.00013 0.47786 0.95395 0.0
C2436 C 0.99886 0.49122 0.96385 0.0
C2437 C 0.99563 0.47708 0.93892 0.0
C2438 C 0.98891 0.50556 0.91044 0.0
H2439 H 0.98079 0.46633 0.83921 0.0
H2440 H 0.98786 0.4696 0.86575 0.0
H2441 H 0.98855 0.51794 0.89017 0.0
H2442 H 0.99237 0.51462 0.96585 0.0
H2443 H 0.98341 0.51258 0.93967 0.0
H2444 H 0.97217 0.4569 0.91368 0.0
C2445 C 0.97962 0.47571 0.86126 0.0
C2446 C 0.98492 0.50457 0.89526 0.0
C2447 C 0.97546 0.47376 0.84606 0.0
C2448 C 0.99305 0.50387 0.95847 0.0
C2449 C 0.98823 0.5029 0.94343 0.0
C2450 C 0.97611 0.47043 0.90873 0.0
C2451 C 0.97323 0.48545 0.87056 0.0
C2452 C 0.97689 0.48657 0.88669 0.0
C2453 C 0.98949 0.48949 0.93344 0.0
C2454 C 0.98466 0.4885 0.91737 0.0
H2455 H 0.94977 0.49701 0.84487 0.0
H2456 H 0.95772 0.501 0.87139 0.0
H2457 H 0.96594 0.45541 0.8872 0.0
H2458 H 0.00475 0.46805 0.95781 0.0
H2459 H 0.99724 0.4669 0.9316 0.0
C2460 C 0.51874 0.50088 0.84655 0.0
C2461 C 0.50936 0.48205 0.839 0.0
C2462 C 0.51713 0.50341 0.86156 0.0
C2463 C 0.50292 0.47548 0.89465 0.0
H2464 H 0.50001 0.52023 0.91068 0.0
C2465 C 0.47639 0.47906 0.95115 0.0
C2466 C 0.48774 0.4961 0.96055 0.0
C2467 C 0.48019 0.47813 0.93652 0.0
C2468 C 0.50099 0.50777 0.90635 0.0
H2469 H 0.49097 0.45112 0.84147 0.0
H2470 H 0.48737 0.45561 0.86725 0.0
H2471 H 0.50415 0.51707 0.88461 0.0
H2472 H 0.51163 0.52569 0.96213 0.0
H2473 H 0.51813 0.52421 0.93633 0.0
H2474 H 0.49906 0.46589 0.91633 0.0
C2475 C 0.49638 0.46843 0.86173 0.0
C2476 C 0.50342 0.50597 0.89143 0.0
C2477 C 0.49817 0.46588 0.84681 0.0
C2478 C 0.50277 0.51235 0.95507 0.0
C2479 C 0.50642 0.51154 0.94034 0.0
C2480 C 0.50022 0.47716 0.90948 0.0
C2481 C 0.50597 0.48719 0.86936 0.0
C2482 C 0.50423 0.48968 0.88535 0.0
C2483 C 0.49523 0.49436 0.93098 0.0
C2484 C 0.49907 0.49322 0.91544 0.0
H2485 H 0.52731 0.51372 0.84089 0.0
H2486 H 0.52486 0.51807 0.86708 0.0
H2487 H 0.50397 0.46301 0.89049 0.0
H2488 H 0.46473 0.46633 0.95515 0.0
H2489 H 0.47126 0.46479 0.92948 0.0
C2490 C 0.52801 0.0269 0.85404 0.0
C2491 C 0.52096 0.03891 0.84928 0.0
C2492 C 0.52509 0.02023 0.86807 0.0
C2493 C 0.49149 0.00639 0.89506 0.0
H2494 H 0.53199 0.01756 0.92473 0.0
C2495 C 0.47676 0.99229 0.95501 0.0
C2496 C 0.48756 0.98657 0.96356 0.0
C2497 C 0.4814 0.9979 0.94093 0.0
C2498 C 0.52049 0.01396 0.91649 0.0
H2499 H 0.50615 0.05407 0.85597 0.0
H2500 H 0.50034 0.04163 0.88008 0.0
H2501 H 0.53956 0.02886 0.90025 0.0
H2502 H 0.51128 0.98159 0.96416 0.0
H2503 H 0.51909 0.99069 0.93921 0.0
H2504 H 0.47232 0.99107 0.91089 0.0
C2505 C 0.50809 0.03744 0.87289 0.0
C2506 C 0.52487 0.02054 0.90254 0.0
C2507 C 0.5113 0.0444 0.85903 0.0
C2508 C 0.50288 0.98615 0.95774 0.0
C2509 C 0.50737 0.99146 0.94351 0.0
C2510 C 0.48709 0.9995 0.90886 0.0
C2511 C 0.51481 0.02519 0.87747 0.0
C2512 C 0.51039 0.01709 0.89184 0.0
C2513 C 0.49671 0.99748 0.93494 0.0
C2514 C 0.50152 0.00354 0.91988 0.0
H2515 H 0.53532 0.02218 0.84681 0.0
H2516 H 0.53031 0.01071 0.8714 0.0
H2517 H 0.48011 0.00337 0.88687 0.0
H2518 H 0.46503 0.99301 0.95936 0.0
H2519 H 0.47316 0.00293 0.93487 0.0
C2520 C 0.13368 0.29539 0.47491 0.0
C2521 C 0.12998 0.30542 0.48619 0.0
C2522 C 0.13681 0.30221 0.46099 0.0
C2523 C 0.15262 0.34637 0.44167 0.0
H2524 H 0.13007 0.30896 0.40726 0.0
C2525 C 0.18097 0.36106 0.38435 0.0
C2526 C 0.16784 0.3524 0.37199 0.0
C2527 C 0.1749 0.3576 0.39846 0.0
C2528 C 0.13628 0.31967 0.41672 0.0
H2529 H 0.12669 0.33049 0.4918 0.0
H2530 H 0.13222 0.3425 0.46734 0.0
H2531 H 0.12177 0.29794 0.43155 0.0
H2532 H 0.13813 0.33551 0.36445 0.0
H2533 H 0.12739 0.32913 0.38905 0.0
H2534 H 0.16734 0.36807 0.42679 0.0
C2535 C 0.13271 0.32936 0.46933 0.0
C2536 C 0.13168 0.3133 0.43065 0.0
C2537 C 0.12942 0.32242 0.48327 0.0
C2538 C 0.14851 0.34151 0.37387 0.0
C2539 C 0.1424 0.33805 0.38793 0.0
C2540 C 0.15732 0.35275 0.42771 0.0
C2541 C 0.13638 0.31926 0.45805 0.0
C2542 C 0.14004 0.32649 0.44327 0.0
C2543 C 0.15558 0.34554 0.40037 0.0
C2544 C 0.14939 0.3394 0.41511 0.0
H2545 H 0.13401 0.28213 0.4768 0.0
H2546 H 0.13982 0.29425 0.45256 0.0
H2547 H 0.15933 0.35684 0.45123 0.0
H2548 H 0.19598 0.3696 0.38308 0.0
H2549 H 0.18541 0.36351 0.40782 0.0
C2550 C 0.70103 0.86868 0.48881 0.0
C2551 C 0.69636 0.85235 0.49679 0.0
C2552 C 0.69649 0.86633 0.47365 0.0
C2553 C 0.66657 0.82896 0.44279 0.0
H2554 H 0.70087 0.86919 0.41928 0.0
C2555 C 0.66042 0.82244 0.3788 0.0
C2556 C 0.66012 0.83821 0.37267 0.0
C2557 C 0.66497 0.82346 0.3939 0.0
C2558 C 0.69117 0.85787 0.42573 0.0
H2559 H 0.68284 0.8206 0.49491 0.0
H2560 H 0.67586 0.8166 0.4684 0.0
H2561 H 0.70864 0.87208 0.44569 0.0
H2562 H 0.66455 0.86745 0.37726 0.0
H2563 H 0.67295 0.86941 0.4036 0.0
H2564 H 0.64941 0.81457 0.42257 0.0
C2565 C 0.68266 0.83125 0.47392 0.0
C2566 C 0.69551 0.85956 0.44089 0.0
C2567 C 0.68694 0.83357 0.48915 0.0
C2568 C 0.66462 0.85507 0.38177 0.0
C2569 C 0.66951 0.85624 0.39679 0.0
C2570 C 0.66241 0.82711 0.42756 0.0
C2571 C 0.68744 0.84761 0.46594 0.0
C2572 C 0.68314 0.84528 0.44968 0.0
C2573 C 0.66964 0.84041 0.40299 0.0
C2574 C 0.67455 0.84169 0.41895 0.0
H2575 H 0.70854 0.88341 0.4942 0.0
H2576 H 0.70008 0.87928 0.46799 0.0
H2577 H 0.65655 0.8178 0.44916 0.0
H2578 H 0.65689 0.80925 0.37197 0.0
H2579 H 0.66505 0.81111 0.39845 0.0
C2580 C 0.13786 0.84101 0.48032 0.0
C2581 C 0.15085 0.84218 0.49152 0.0
C2582 C 0.14056 0.83854 0.46557 0.0
C2583 C 0.17836 0.84513 0.44177 0.0
H2584 H 0.1361 0.81764 0.41199 0.0
C2585 C 0.18881 0.85226 0.38023 0.0
C2586 C 0.17744 0.83587 0.37026 0.0
C2587 C 0.18525 0.85196 0.39501 0.0
C2588 C 0.1481 0.82516 0.42016 0.0
H2589 H 0.17632 0.84076 0.49621 0.0
H2590 H 0.18071 0.8357 0.47049 0.0
H2591 H 0.13018 0.81769 0.43777 0.0
H2592 H 0.1538 0.80613 0.3678 0.0
H2593 H 0.1478 0.80531 0.39372 0.0
H2594 H 0.19631 0.85199 0.42425 0.0
C2595 C 0.16877 0.83736 0.473 0.0
C2596 C 0.14468 0.82544 0.43497 0.0
C2597 C 0.16622 0.84013 0.48774 0.0
C2598 C 0.16261 0.81905 0.3753 0.0
C2599 C 0.15915 0.81863 0.39013 0.0
C2600 C 0.18178 0.84464 0.427 0.0
C2601 C 0.15618 0.83691 0.4617 0.0
C2602 C 0.15976 0.83561 0.44597 0.0
C2603 C 0.1704 0.83512 0.40018 0.0
C2604 C 0.1667 0.83486 0.41597 0.0
H2605 H 0.126 0.84276 0.48295 0.0
H2606 H 0.13071 0.83859 0.45722 0.0
H2607 H 0.19035 0.85337 0.44985 0.0
H2608 H 0.20026 0.86547 0.37655 0.0
H2609 H 0.19398 0.86507 0.40232 0.0
C2610 C 0.66064 0.82546 0.17641 0.0
C2611 C 0.64374 0.82425 0.1709 0.0
C2612 C 0.66551 0.82798 0.19156 0.0
C2613 C 0.65254 0.84045 0.2276 0.0
H2614 H 0.67766 0.8135 0.24253 0.0
C2615 C 0.67499 0.84658 0.28954 0.0
C2616 C 0.67408 0.83003 0.29525 0.0
C2617 C 0.67201 0.84689 0.27439 0.0
C2618 C 0.67042 0.82093 0.2386 0.0
H2619 H 0.61866 0.82469 0.17677 0.0
H2620 H 0.62665 0.82825 0.20318 0.0
H2621 H 0.67096 0.81213 0.21627 0.0
H2622 H 0.6689 0.80067 0.28985 0.0
H2623 H 0.66287 0.80077 0.26352 0.0
H2624 H 0.65096 0.84822 0.25 0.0
C2625 C 0.63656 0.82797 0.19591 0.0
C2626 C 0.66689 0.82047 0.22345 0.0
C2627 C 0.63189 0.82582 0.18077 0.0
C2628 C 0.66986 0.81369 0.28565 0.0
C2629 C 0.66656 0.81385 0.27055 0.0
C2630 C 0.65578 0.84063 0.24277 0.0
C2631 C 0.65338 0.82894 0.20154 0.0
C2632 C 0.65783 0.83016 0.21771 0.0
C2633 C 0.66778 0.83052 0.26467 0.0
C2634 C 0.66468 0.83078 0.2485 0.0
H2635 H 0.67008 0.82445 0.16898 0.0
H2636 H 0.67878 0.82912 0.19541 0.0
H2637 H 0.64582 0.84838 0.22364 0.0
H2638 H 0.67842 0.85943 0.29676 0.0
H2639 H 0.67337 0.86011 0.27031 0.0
C2640 C 0.16335 0.79784 0.17889 0.0
C2641 C 0.17472 0.81393 0.17107 0.0
C2642 C 0.16153 0.8005 0.1938 0.0
C2643 C 0.16876 0.83839 0.22328 0.0
H2644 H 0.16381 0.79839 0.24849 0.0
C2645 C 0.16788 0.84568 0.28683 0.0
C2646 C 0.15286 0.82955 0.29244 0.0
C2647 C 0.17152 0.8446 0.27213 0.0
C2648 C 0.16513 0.80964 0.24156 0.0
H2649 H 0.19298 0.84555 0.17291 0.0
H2650 H 0.19045 0.85009 0.19906 0.0
H2651 H 0.16875 0.79516 0.2227 0.0
H2652 H 0.1299 0.7997 0.28728 0.0
H2653 H 0.1364 0.7977 0.26165 0.0
H2654 H 0.16545 0.85298 0.24238 0.0
C2655 C 0.18261 0.83542 0.19358 0.0
C2656 C 0.16785 0.80776 0.22675 0.0
C2657 C 0.18427 0.83277 0.17859 0.0
C2658 C 0.14154 0.81235 0.28318 0.0
C2659 C 0.14534 0.81117 0.26857 0.0
C2660 C 0.16629 0.84039 0.23817 0.0
C2661 C 0.17124 0.81929 0.20138 0.0
C2662 C 0.1694 0.82194 0.21735 0.0
C2663 C 0.16034 0.82727 0.26291 0.0
C2664 C 0.16417 0.82588 0.24737 0.0
H2665 H 0.15601 0.78307 0.17357 0.0
H2666 H 0.15237 0.78776 0.19933 0.0
H2667 H 0.16966 0.84948 0.21637 0.0
H2668 H 0.17668 0.85915 0.29376 0.0
H2669 H 0.18321 0.8572 0.26802 0.0
C2670 C 0.1769 0.36637 0.18778 0.0
C2671 C 0.18189 0.35749 0.17653 0.0
C2672 C 0.17397 0.35924 0.20159 0.0
C2673 C 0.18448 0.32993 0.22637 0.0
H2674 H 0.14445 0.33058 0.24692 0.0
C2675 C 0.1562 0.30294 0.28466 0.0
C2676 C 0.16175 0.31967 0.29432 0.0
C2677 C 0.15901 0.30475 0.2697 0.0
C2678 C 0.15553 0.33013 0.24121 0.0
H2679 H 0.18795 0.3343 0.17096 0.0
H2680 H 0.18265 0.32164 0.19522 0.0
H2681 H 0.1478 0.3387 0.22146 0.0
H2682 H 0.17514 0.3514 0.29611 0.0
H2683 H 0.17978 0.35444 0.27005 0.0
H2684 H 0.19219 0.32153 0.24644 0.0
C2685 C 0.18116 0.33424 0.19333 0.0
C2686 C 0.15759 0.33494 0.22672 0.0
C2687 C 0.18418 0.34147 0.17946 0.0
C2688 C 0.17075 0.33824 0.28893 0.0
C2689 C 0.17342 0.34002 0.27406 0.0
C2690 C 0.1823 0.32495 0.24091 0.0
C2691 C 0.17586 0.34297 0.20451 0.0
C2692 C 0.17242 0.33547 0.21926 0.0
C2693 C 0.16729 0.3233 0.26432 0.0
C2694 C 0.16806 0.32546 0.24846 0.0
H2695 H 0.17547 0.37903 0.18597 0.0
H2696 H 0.17043 0.36666 0.21005 0.0
H2697 H 0.1961 0.3303 0.22096 0.0
H2698 H 0.14924 0.28847 0.28857 0.0
H2699 H 0.15411 0.2917 0.26226 0.0
C2700 C 0.825 0.65367 0.81865 0.0
C2701 C 0.80581 0.64215 0.82119 0.0
C2702 C 0.83014 0.66059 0.80493 0.0
C2703 C 0.81493 0.67329 0.77134 0.0
H2704 H 0.84717 0.65753 0.75239 0.0
C2705 C 0.82788 0.68235 0.70998 0.0
C2706 C 0.845 0.68498 0.70538 0.0
C2707 C 0.82365 0.67879 0.7245 0.0
C2708 C 0.83851 0.66248 0.75758 0.0
H2709 H 0.777 0.62953 0.81124 0.0
H2710 H 0.78612 0.64236 0.78744 0.0
H2711 H 0.83889 0.64888 0.77716 0.0
H2712 H 0.87184 0.68754 0.7125 0.0
H2713 H 0.86508 0.6825 0.73804 0.0
H2714 H 0.8149 0.68738 0.75203 0.0
C2715 C 0.79708 0.64578 0.79614 0.0
C2716 C 0.83367 0.65737 0.77175 0.0
C2717 C 0.7919 0.63853 0.80981 0.0
C2718 C 0.8584 0.68528 0.71574 0.0
C2719 C 0.85438 0.68213 0.73034 0.0
C2720 C 0.82008 0.67877 0.75726 0.0
C2721 C 0.81624 0.65652 0.79352 0.0
C2722 C 0.82175 0.66261 0.77871 0.0
C2723 C 0.83675 0.67834 0.73486 0.0
C2724 C 0.83184 0.67331 0.75012 0.0
H2725 H 0.83613 0.65724 0.82724 0.0
H2726 H 0.84502 0.66906 0.80319 0.0
H2727 H 0.8058 0.67759 0.77656 0.0
H2728 H 0.81767 0.68287 0.7023 0.0
H2729 H 0.80991 0.67588 0.72746 0.0
C2730 C 0.36688 0.20041 0.82055 0.0
C2731 C 0.36201 0.18411 0.82862 0.0
C2732 C 0.36248 0.198 0.80537 0.0
C2733 C 0.33229 0.1606 0.77465 0.0
H2734 H 0.36647 0.20071 0.75099 0.0
C2735 C 0.32494 0.15437 0.71065 0.0
C2736 C 0.32476 0.17031 0.7047 0.0
C2737 C 0.32977 0.15525 0.72568 0.0
C2738 C 0.35681 0.18942 0.75749 0.0
H2739 H 0.34844 0.15236 0.82684 0.0
H2740 H 0.34166 0.14824 0.80029 0.0
H2741 H 0.37456 0.20349 0.77735 0.0
H2742 H 0.3297 0.1997 0.70956 0.0
H2743 H 0.33857 0.20142 0.73578 0.0
H2744 H 0.31482 0.14638 0.75453 0.0
C2745 C 0.3485 0.16291 0.80577 0.0
C2746 C 0.36134 0.19105 0.77262 0.0
C2747 C 0.35265 0.1653 0.82102 0.0
C2748 C 0.32966 0.18719 0.71393 0.0
C2749 C 0.33483 0.18822 0.72887 0.0
C2750 C 0.32793 0.15882 0.75945 0.0
C2751 C 0.35338 0.17924 0.79772 0.0
C2752 C 0.34899 0.17684 0.78146 0.0
C2753 C 0.33485 0.17224 0.73489 0.0
C2754 C 0.34002 0.17337 0.7508 0.0
H2755 H 0.37438 0.21516 0.82591 0.0
H2756 H 0.36616 0.21092 0.79966 0.0
H2757 H 0.32229 0.1495 0.78107 0.0
H2758 H 0.3211 0.14116 0.70373 0.0
H2759 H 0.32975 0.14278 0.73009 0.0
C2760 C 0.83354 0.17671 0.8234 0.0
C2761 C 0.81839 0.17897 0.82748 0.0
C2762 C 0.83579 0.17399 0.80859 0.0
C2763 C 0.81104 0.1622 0.77085 0.0
H2764 H 0.86239 0.18845 0.75951 0.0
C2765 C 0.82833 0.15462 0.71106 0.0
C2766 C 0.84311 0.17132 0.70584 0.0
C2767 C 0.82487 0.15457 0.72589 0.0
C2768 C 0.84794 0.18118 0.76244 0.0
H2769 H 0.79361 0.18 0.81932 0.0
H2770 H 0.7978 0.17586 0.79344 0.0
H2771 H 0.85695 0.19009 0.78522 0.0
H2772 H 0.86572 0.20113 0.71179 0.0
H2773 H 0.85946 0.20132 0.73753 0.0
H2774 H 0.80204 0.15412 0.74793 0.0
C2775 C 0.8077 0.17565 0.80163 0.0
C2776 C 0.84481 0.18184 0.77726 0.0
C2777 C 0.80532 0.1781 0.81647 0.0
C2778 C 0.85433 0.188 0.7156 0.0
C2779 C 0.85078 0.18804 0.73037 0.0
C2780 C 0.81417 0.16172 0.75598 0.0
C2781 C 0.82309 0.17377 0.79748 0.0
C2782 C 0.82633 0.17241 0.78169 0.0
C2783 C 0.8361 0.17128 0.73574 0.0
C2784 C 0.83266 0.17131 0.75158 0.0
H2785 H 0.84368 0.17707 0.8317 0.0
H2786 H 0.84756 0.17214 0.80585 0.0
H2787 H 0.79662 0.15454 0.77384 0.0
H2788 H 0.8196 0.14151 0.70373 0.0
H2789 H 0.81361 0.14132 0.72965 0.0
C2790 C 0.3249 0.16082 0.5085 0.0
C2791 C 0.3081 0.1598 0.50297 0.0
C2792 C 0.32972 0.16326 0.52364 0.0
C2793 C 0.31672 0.17526 0.55984 0.0
H2794 H 0.34097 0.14716 0.57417 0.0
C2795 C 0.3391 0.17975 0.62164 0.0
C2796 C 0.33791 0.16294 0.62709 0.0
C2797 C 0.33604 0.18039 0.60655 0.0
C2798 C 0.33397 0.15491 0.57042 0.0
H2799 H 0.28323 0.16071 0.50879 0.0
H2800 H 0.29114 0.16414 0.53523 0.0
H2801 H 0.33449 0.14655 0.54798 0.0
H2802 H 0.33214 0.13346 0.62127 0.0
H2803 H 0.32601 0.13414 0.59503 0.0
H2804 H 0.31518 0.18261 0.58236 0.0
C2805 C 0.30099 0.16372 0.52797 0.0
C2806 C 0.33057 0.15489 0.5553 0.0
C2807 C 0.29638 0.16166 0.51281 0.0
C2808 C 0.33333 0.14667 0.61728 0.0
C2809 C 0.32996 0.14716 0.60223 0.0
C2810 C 0.31983 0.17501 0.57499 0.0
C2811 C 0.31762 0.16429 0.53362 0.0
C2812 C 0.32186 0.16502 0.54977 0.0
C2813 C 0.33147 0.1641 0.59662 0.0
C2814 C 0.32843 0.16475 0.58049 0.0
H2815 H 0.33424 0.15959 0.50108 0.0
H2816 H 0.34288 0.16415 0.5275 0.0
H2817 H 0.31024 0.18349 0.55605 0.0
H2818 H 0.34282 0.19256 0.62902 0.0
H2819 H 0.33763 0.1938 0.60268 0.0
C2820 C 0.83533 0.13412 0.51401 0.0
C2821 C 0.84599 0.15045 0.50617 0.0
C2822 C 0.83348 0.1365 0.52894 0.0
C2823 C 0.83877 0.17348 0.55843 0.0
H2824 H 0.83475 0.13365 0.58346 0.0
C2825 C 0.83581 0.17898 0.62185 0.0
C2826 C 0.82081 0.16245 0.6271 0.0
C2827 C 0.83999 0.17846 0.60725 0.0
C2828 C 0.83581 0.14485 0.57657 0.0
H2829 H 0.8632 0.18218 0.50807 0.0
H2830 H 0.86065 0.18628 0.5343 0.0
H2831 H 0.84078 0.13133 0.55784 0.0
H2832 H 0.79841 0.13247 0.62138 0.0
H2833 H 0.80589 0.13143 0.5959 0.0
H2834 H 0.83414 0.18712 0.57742 0.0
C2835 C 0.85332 0.17162 0.52878 0.0
C2836 C 0.83916 0.14349 0.56187 0.0
C2837 C 0.855 0.16925 0.51375 0.0
C2838 C 0.81002 0.14541 0.61756 0.0
C2839 C 0.81437 0.14478 0.60305 0.0
C2840 C 0.83569 0.17497 0.57323 0.0
C2841 C 0.8425 0.15526 0.53656 0.0
C2842 C 0.84033 0.15758 0.55251 0.0
C2843 C 0.82938 0.1613 0.59776 0.0
C2844 C 0.83387 0.16049 0.58235 0.0
H2845 H 0.82847 0.11938 0.50867 0.0
H2846 H 0.82475 0.12356 0.53444 0.0
H2847 H 0.83935 0.18448 0.55155 0.0
H2848 H 0.84426 0.19232 0.62902 0.0
H2849 H 0.85167 0.19135 0.60344 0.0
C2850 C 0.85372 0.68484 0.51812 0.0
C2851 C 0.85634 0.70342 0.51581 0.0
C2852 C 0.84997 0.67779 0.532 0.0
C2853 C 0.83261 0.68636 0.56679 0.0
H2854 H 0.84944 0.65197 0.58154 0.0
C2855 C 0.83698 0.65205 0.62456 0.0
C2856 C 0.81989 0.64895 0.62958 0.0
C2857 C 0.84138 0.65748 0.61035 0.0
C2858 C 0.84477 0.66171 0.57765 0.0
H2859 H 0.85823 0.72967 0.52615 0.0
H2860 H 0.85256 0.71785 0.55048 0.0
H2861 H 0.85871 0.66515 0.55794 0.0
H2862 H 0.79325 0.64744 0.62344 0.0
H2863 H 0.80036 0.65586 0.59844 0.0
H2864 H 0.81948 0.6838 0.58672 0.0
C2865 C 0.85258 0.7083 0.54156 0.0
C2866 C 0.84988 0.66907 0.56401 0.0
C2867 C 0.85597 0.71517 0.52767 0.0
C2868 C 0.80666 0.64999 0.61988 0.0
C2869 C 0.81087 0.65508 0.60561 0.0
C2870 C 0.82774 0.67925 0.58047 0.0
C2871 C 0.84908 0.68934 0.54385 0.0
C2872 C 0.84387 0.68151 0.5584 0.0
C2873 C 0.8285 0.65944 0.60078 0.0
C2874 C 0.83366 0.66676 0.58608 0.0
H2875 H 0.85386 0.67551 0.50908 0.0
H2876 H 0.84718 0.66306 0.53329 0.0
H2877 H 0.82738 0.69558 0.56275 0.0
H2878 H 0.84706 0.65056 0.6317 0.0
H2879 H 0.85509 0.6607 0.60707 0.0
loop_
_geom_bond_atom_site_label_1
_geom_bond_atom_site_label_2
_geom_bond_distance
_geom_bond_site_symmetry_2
_ccdc_geom_bond_type
C0 C1 1.391 . S
C0 C4 1.391 . S
C0 H42 0.948 . S
C1 C0 1.391 . S
C1 C2 1.391 . S
C2 C1 1.391 . S
C2 H58 0.947 . S
C2 C59 1.392 . S
C3 C4 1.391 . S
C3 C7 1.397 . S
C3 C59 1.419 . S
C4 C0 1.391 . S
C4 C3 1.391 . S
C4 C5 1.399 . S
C5 C4 1.399 . S
C5 C8 1.396 . S
C5 C17 1.453 . S
C5 C18 1.684 . S
H6 C30 0.948 . S
C7 C3 1.397 . S
C7 C8 1.394 . S
C7 C26 1.723 . S
C8 C5 1.396 . S
C8 C7 1.394 . S
C8 C38 1.723 . S
H9 C32 0.947 . S
H10 C33 0.948 . S
H11 C39 0.982 . S
H12 C40 0.979 . S
H13 C40 0.980 . S
H14 C40 0.983 . S
H15 C39 0.979 . S
H16 C39 0.977 . S
C17 C5 1.453 . S
C17 H46 0.982 . S
C17 H47 0.979 . S
C17 H48 0.977 . S
C18 C5 1.684 . S
C18 H43 0.979 . S
C18 H44 0.980 . S
C18 H45 0.983 . S
C19 C20 1.391 . S
C19 C24 1.391 . S
C19 H49 0.948 . S
C20 C19 1.391 . S
C20 C21 1.391 . S
C21 C20 1.391 . S
C21 C22 1.392 . S
C21 H50 0.947 . S
C22 C21 1.392 . S
C22 C23 1.419 . S
C22 H51 0.948 . S
C23 C22 1.419 . S
C23 C24 1.391 . S
C23 C27 1.397 . S
C24 C19 1.391 . S
C24 C23 1.391 . S
C24 C25 1.399 . S
C25 C24 1.399 . S
C25 C26 1.396 . S
C25 C28 1.453 . S
C25 C29 1.684 . S
C26 C7 1.723 . S
C26 C25 1.396 . S
C26 C27 1.394 . S
C27 C23 1.397 . S
C27 C26 1.394 . S
C27 C37 1.723 . S
C28 C25 1.453 . S
C28 H52 0.982 . S
C28 H53 0.979 . S
C28 H54 0.977 . S
C29 C25 1.684 . S
C29 H55 0.979 . S
C29 H56 0.980 . S
C29 H57 0.983 . S
C30 H6 0.948 . S
C30 C31 1.391 . S
C30 C35 1.391 . S
C31 C30 1.391 . S
C31 C32 1.391 . S
C32 H9 0.947 . S
C32 C31 1.391 . S
C32 C33 1.392 . S
C33 H10 0.948 . S
C33 C32 1.392 . S
C33 C34 1.419 . S
C34 C33 1.419 . S
C34 C35 1.391 . S
C34 C38 1.397 . S
C35 C30 1.391 . S
C35 C34 1.391 . S
C35 C36 1.399 . S
C36 C35 1.399 . S
C36 C37 1.396 . S
C36 C39 1.453 . S
C36 C40 1.684 . S
C37 C27 1.723 . S
C37 C36 1.396 . S
C37 C38 1.394 . S
C38 C8 1.723 . S
C38 C34 1.397 . S
C38 C37 1.394 . S
C39 H11 0.982 . S
C39 H15 0.979 . S
C39 H16 0.977 . S
C39 C36 1.453 . S
C40 H12 0.979 . S
C40 H13 0.980 . S
C40 H14 0.983 . S
C40 C36 1.684 . S
H41 C59 0.948 . S
H42 C0 0.948 . S
H43 C18 0.979 . S
H44 C18 0.980 . S
H45 C18 0.983 . S
H46 C17 0.982 . S
H47 C17 0.979 . S
H48 C17 0.977 . S
H49 C19 0.948 . S
H50 C21 0.947 . S
H51 C22 0.948 . S
H52 C28 0.982 . S
H53 C28 0.979 . S
H54 C28 0.977 . S
H55 C29 0.979 . S
H56 C29 0.980 . S
H57 C29 0.983 . S
H58 C2 0.947 . S
C59 C2 1.392 . S
C59 C3 1.419 . S
C59 H41 0.948 . S
C60 C61 1.391 . S
C60 C64 1.391 . S
C60 H102 0.948 . S
C61 C60 1.391 . S
C61 C62 1.391 . S
C62 C61 1.391 . S
C62 H118 0.947 . S
C62 C119 1.392 . S
C63 C64 1.391 . S
C63 C67 1.397 . S
C63 C119 1.419 . S
C64 C60 1.391 . S
C64 C63 1.391 . S
C64 C65 1.399 . S
C65 C64 1.399 . S
C65 C68 1.396 . S
C65 C77 1.453 . S
C65 C78 1.684 . S
H66 C90 0.948 . S
C67 C63 1.397 . S
C67 C68 1.394 . S
C67 C86 1.723 . S
C68 C65 1.396 . S
C68 C67 1.394 . S
C68 C98 1.723 . S
H69 C92 0.947 . S
H70 C93 0.948 . S
H71 C99 0.982 . S
H72 C100 0.979 . S
H73 C100 0.980 . S
H74 C100 0.983 . S
H75 C99 0.979 . S
H76 C99 0.977 . S
C77 C65 1.453 . S
C77 H106 0.982 . S
C77 H107 0.979 . S
C77 H108 0.977 . S
C78 C65 1.684 . S
C78 H103 0.979 . S
C78 H104 0.980 . S
C78 H105 0.983 . S
C79 C80 1.391 . S
C79 C84 1.391 . S
C79 H109 0.948 . S
C80 C79 1.391 . S
C80 C81 1.391 . S
C81 C80 1.391 . S
C81 C82 1.392 . S
C81 H110 0.947 . S
C82 C81 1.392 . S
C82 C83 1.419 . S
C82 H111 0.948 . S
C83 C82 1.419 . S
C83 C84 1.391 . S
C83 C87 1.397 . S
C84 C79 1.391 . S
C84 C83 1.391 . S
C84 C85 1.399 . S
C85 C84 1.399 . S
C85 C86 1.396 . S
C85 C88 1.453 . S
C85 C89 1.684 . S
C86 C67 1.723 . S
C86 C85 1.396 . S
C86 C87 1.394 . S
C87 C83 1.397 . S
C87 C86 1.394 . S
C87 C97 1.723 . S
C88 C85 1.453 . S
C88 H112 0.982 . S
C88 H113 0.979 . S
C88 H114 0.977 . S
C89 C85 1.684 . S
C89 H115 0.979 . S
C89 H116 0.980 . S
C89 H117 0.983 . S
C90 H66 0.948 . S
C90 C91 1.391 . S
C90 C95 1.391 . S
C91 C90 1.391 . S
C91 C92 1.391 . S
C92 H69 0.947 . S
C92 C91 1.391 . S
C92 C93 1.392 . S
C93 H70 0.948 . S
C93 C92 1.392 . S
C93 C94 1.419 . S
C94 C93 1.419 . S
C94 C95 1.391 . S
C94 C98 1.397 . S
C95 C90 1.391 . S
C95 C94 1.391 . S
C95 C96 1.399 . S
C96 C95 1.399 . S
C96 C97 1.396 . S
C96 C99 1.453 . S
C96 C100 1.684 . S
C97 C87 1.723 . S
C97 C96 1.396 . S
C97 C98 1.394 . S
C98 C68 1.723 . S
C98 C94 1.397 . S
C98 C97 1.394 . S
C99 H71 0.982 . S
C99 H75 0.979 . S
C99 H76 0.977 . S
C99 C96 1.453 . S
C100 H72 0.979 . S
C100 H73 0.980 . S
C100 H74 0.983 . S
C100 C96 1.684 . S
H101 C119 0.948 . S
H102 C60 0.948 . S
H103 C78 0.979 . S
H104 C78 0.980 . S
H105 C78 0.983 . S
H106 C77 0.982 . S
H107 C77 0.979 . S
H108 C77 0.977 . S
H109 C79 0.948 . S
H110 C81 0.947 . S
H111 C82 0.948 . S
H112 C88 0.982 . S
H113 C88 0.979 . S
H114 C88 0.977 . S
H115 C89 0.979 . S
H116 C89 0.980 . S
H117 C89 0.983 . S
H118 C62 0.947 . S
C119 C62 1.392 . S
C119 C63 1.419 . S
C119 H101 0.948 . S
C120 C121 1.391 . S
C120 C124 1.391 . S
C120 H162 0.948 . S
C121 C120 1.391 . S
C121 C122 1.391 . S
C122 C121 1.391 . S
C122 H178 0.947 . S
C122 C179 1.392 . S
C123 C124 1.391 . S
C123 C127 1.397 . S
C123 C179 1.419 . S
C124 C120 1.391 . S
C124 C123 1.391 . S
C124 C125 1.399 . S
C125 C124 1.399 . S
C125 C128 1.396 . S
C125 C137 1.453 . S
C125 C138 1.684 . S
H126 C150 0.948 . S
C127 C123 1.397 . S
C127 C128 1.394 . S
C127 C146 1.723 . S
C128 C125 1.396 . S
C128 C127 1.394 . S
C128 C158 1.723 . S
H129 C152 0.947 . S
H130 C153 0.948 . S
H131 C159 0.982 . S
H132 C160 0.979 . S
H133 C160 0.980 . S
H134 C160 0.983 . S
H135 C159 0.979 . S
H136 C159 0.977 . S
C137 C125 1.453 . S
C137 H166 0.982 . S
C137 H167 0.979 . S
C137 H168 0.977 . S
C138 C125 1.684 . S
C138 H163 0.979 . S
C138 H164 0.980 . S
C138 H165 0.983 . S
C139 C140 1.391 . S
C139 C144 1.391 . S
C139 H169 0.948 . S
C140 C139 1.391 . S
C140 C141 1.391 . S
C141 C140 1.391 . S
C141 C142 1.392 . S
C141 H170 0.947 . S
C142 C141 1.392 . S
C142 C143 1.419 . S
C142 H171 0.948 . S
C143 C142 1.419 . S
C143 C144 1.391 . S
C143 C147 1.397 . S
C144 C139 1.391 . S
C144 C143 1.391 . S
C144 C145 1.399 . S
C145 C144 1.399 . S
C145 C146 1.396 . S
C145 C148 1.453 . S
C145 C149 1.684 . S
C146 C127 1.723 . S
C146 C145 1.396 . S
C146 C147 1.394 . S
C147 C143 1.397 . S
C147 C146 1.394 . S
C147 C157 1.723 . S
C148 C145 1.453 . S
C148 H172 0.982 . S
C148 H173 0.979 . S
C148 H174 0.977 . S
C149 C145 1.684 . S
C149 H175 0.979 . S
C149 H176 0.980 . S
C149 H177 0.983 . S
C150 H126 0.948 . S
C150 C151 1.391 . S
C150 C155 1.391 . S
C151 C150 1.391 . S
C151 C152 1.391 . S
C152 H129 0.947 . S
C152 C151 1.391 . S
C152 C153 1.392 . S
C153 H130 0.948 . S
C153 C152 1.392 . S
C153 C154 1.419 . S
C154 C153 1.419 . S
C154 C155 1.391 . S
C154 C158 1.397 . S
C155 C150 1.391 . S
C155 C154 1.391 . S
C155 C156 1.399 . S
C156 C155 1.399 . S
C156 C157 1.396 . S
C156 C159 1.453 . S
C156 C160 1.684 . S
C157 C147 1.723 . S
C157 C156 1.396 . S
C157 C158 1.394 . S
C158 C128 1.723 . S
C158 C154 1.397 . S
C158 C157 1.394 . S
C159 H131 0.982 . S
C159 H135 0.979 . S
C159 H136 0.977 . S
C159 C156 1.453 . S
C160 H132 0.979 . S
C160 H133 0.980 . S
C160 H134 0.983 . S
C160 C156 1.684 . S
H161 C179 0.948 . S
H162 C120 0.948 . S
H163 C138 0.979 . S
H164 C138 0.980 . S
H165 C138 0.983 . S
H166 C137 0.982 . S
H167 C137 0.979 . S
H168 C137 0.977 . S
H169 C139 0.948 . S
H170 C141 0.947 . S
H171 C142 0.948 . S
H172 C148 0.982 . S
H173 C148 0.979 . S
H174 C148 0.977 . S
H175 C149 0.979 . S
H176 C149 0.980 . S
H177 C149 0.983 . S
H178 C122 0.947 . S
C179 C122 1.392 . S
C179 C123 1.419 . S
C179 H161 0.948 . S
C180 C181 1.391 . S
C180 C184 1.391 . S
C180 H222 0.948 . S
C181 C180 1.391 . S
C181 C182 1.391 . S
C182 C181 1.391 . S
C182 H238 0.947 . S
C182 C239 1.392 . S
C183 C184 1.391 . S
C183 C187 1.397 . S
C183 C239 1.419 . S
C184 C180 1.391 . S
C184 C183 1.391 . S
C184 C185 1.399 . S
C185 C184 1.399 . S
C185 C188 1.396 . S
C185 C197 1.453 . S
C185 C198 1.684 . S
H186 C210 0.948 . S
C187 C183 1.397 . S
C187 C188 1.394 . S
C187 C206 1.723 . S
C188 C185 1.396 . S
C188 C187 1.394 . S
C188 C218 1.723 . S
H189 C212 0.947 . S
H190 C213 0.948 . S
H191 C219 0.982 . S
H192 C220 0.979 . S
H193 C220 0.980 . S
H194 C220 0.983 . S
H195 C219 0.979 . S
H196 C219 0.977 . S
C197 C185 1.453 . S
C197 H226 0.982 . S
C197 H227 0.979 . S
C197 H228 0.977 . S
C198 C185 1.684 . S
C198 H223 0.979 . S
C198 H224 0.980 . S
C198 H225 0.983 . S
C199 C200 1.391 . S
C199 C204 1.391 . S
C199 H229 0.948 . S
C200 C199 1.391 . S
C200 C201 1.391 . S
C201 C200 1.391 . S
C201 C202 1.392 . S
C201 H230 0.947 . S
C202 C201 1.392 . S
C202 C203 1.419 . S
C202 H231 0.948 . S
C203 C202 1.419 . S
C203 C204 1.391 . S
C203 C207 1.397 . S
C204 C199 1.391 . S
C204 C203 1.391 . S
C204 C205 1.399 . S
C205 C204 1.399 . S
C205 C206 1.396 . S
C205 C208 1.453 . S
C205 C209 1.684 . S
C206 C187 1.723 . S
C206 C205 1.396 . S
C206 C207 1.394 . S
C207 C203 1.397 . S
C207 C206 1.394 . S
C207 C217 1.723 . S
C208 C205 1.453 . S
C208 H232 0.982 . S
C208 H233 0.979 . S
C208 H234 0.977 . S
C209 C205 1.684 . S
C209 H235 0.979 . S
C209 H236 0.980 . S
C209 H237 0.983 . S
C210 H186 0.948 . S
C210 C211 1.391 . S
C210 C215 1.391 . S
C211 C210 1.391 . S
C211 C212 1.391 . S
C212 H189 0.947 . S
C212 C211 1.391 . S
C212 C213 1.392 . S
C213 H190 0.948 . S
C213 C212 1.392 . S
C213 C214 1.419 . S
C214 C213 1.419 . S
C214 C215 1.391 . S
C214 C218 1.397 . S
C215 C210 1.391 . S
C215 C214 1.391 . S
C215 C216 1.399 . S
C216 C215 1.399 . S
C216 C217 1.396 . S
C216 C219 1.453 . S
C216 C220 1.684 . S
C217 C207 1.723 . S
C217 C216 1.396 . S
C217 C218 1.394 . S
C218 C188 1.723 . S
C218 C214 1.397 . S
C218 C217 1.394 . S
C219 H191 0.982 . S
C219 H195 0.979 . S
C219 H196 0.977 . S
C219 C216 1.453 . S
C220 H192 0.979 . S
C220 H193 0.980 . S
C220 H194 0.983 . S
C220 C216 1.684 . S
H221 C239 0.948 . S
H222 C180 0.948 . S
H223 C198 0.979 . S
H224 C198 0.980 . S
H225 C198 0.983 . S
H226 C197 0.982 . S
H227 C197 0.979 . S
H228 C197 0.977 . S
H229 C199 0.948 . S
H230 C201 0.947 . S
H231 C202 0.948 . S
H232 C208 0.982 . S
H233 C208 0.979 . S
H234 C208 0.977 . S
H235 C209 0.979 . S
H236 C209 0.980 . S
H237 C209 0.983 . S
H238 C182 0.947 . S
C239 C182 1.392 . S
C239 C183 1.419 . S
C239 H221 0.948 . S
C240 C241 1.391 . S
C240 C244 1.391 . S
C240 H282 0.948 . S
C241 C240 1.391 . S
C241 C242 1.391 . S
C242 C241 1.391 . S
C242 H298 0.947 . S
C242 C299 1.392 . S
C243 C244 1.391 . S
C243 C247 1.397 . S
C243 C299 1.419 . S
C244 C240 1.391 . S
C244 C243 1.391 . S
C244 C245 1.399 . S
C245 C244 1.399 . S
C245 C248 1.396 . S
C245 C257 1.453 . S
C245 C258 1.684 . S
H246 C270 0.948 . S
C247 C243 1.397 . S
C247 C248 1.394 . S
C247 C266 1.723 . S
C248 C245 1.396 . S
C248 C247 1.394 . S
C248 C278 1.723 . S
H249 C272 0.947 . S
H250 C273 0.948 . S
H251 C279 0.982 . S
H252 C280 0.979 . S
H253 C280 0.980 . S
H254 C280 0.983 . S
H255 C279 0.979 . S
H256 C279 0.977 . S
C257 C245 1.453 . S
C257 H286 0.982 . S
C257 H287 0.979 . S
C257 H288 0.977 . S
C258 C245 1.684 . S
C258 H283 0.979 . S
C258 H284 0.980 . S
C258 H285 0.983 . S
C259 C260 1.391 . S
C259 C264 1.391 . S
C259 H289 0.948 . S
C260 C259 1.391 . S
C260 C261 1.391 . S
C261 C260 1.391 . S
C261 C262 1.392 . S
C261 H290 0.947 . S
C262 C261 1.392 . S
C262 C263 1.419 . S
C262 H291 0.948 . S
C263 C262 1.419 . S
C263 C264 1.391 . S
C263 C267 1.397 . S
C264 C259 1.391 . S
C264 C263 1.391 . S
C264 C265 1.399 . S
C265 C264 1.399 . S
C265 C266 1.396 . S
C265 C268 1.453 . S
C265 C269 1.684 . S
C266 C247 1.723 . S
C266 C265 1.396 . S
C266 C267 1.394 . S
C267 C263 1.397 . S
C267 C266 1.394 . S
C267 C277 1.723 . S
C268 C265 1.453 . S
C268 H292 0.982 . S
C268 H293 0.979 . S
C268 H294 0.977 . S
C269 C265 1.684 . S
C269 H295 0.979 . S
C269 H296 0.980 . S
C269 H297 0.983 . S
C270 H246 0.948 . S
C270 C271 1.391 . S
C270 C275 1.391 . S
C271 C270 1.391 . S
C271 C272 1.391 . S
C272 H249 0.947 . S
C272 C271 1.391 . S
C272 C273 1.392 . S
C273 H250 0.948 . S
C273 C272 1.392 . S
C273 C274 1.419 . S
C274 C273 1.419 . S
C274 C275 1.391 . S
C274 C278 1.397 . S
C275 C270 1.391 . S
C275 C274 1.391 . S
C275 C276 1.399 . S
C276 C275 1.399 . S
C276 C277 1.396 . S
C276 C279 1.453 . S
C276 C280 1.684 . S
C277 C267 1.723 . S
C277 C276 1.396 . S
C277 C278 1.394 . S
C278 C248 1.723 . S
C278 C274 1.397 . S
C278 C277 1.394 . S
C279 H251 0.982 . S
C279 H255 0.979 . S
C279 H256 0.977 . S
C279 C276 1.453 . S
C280 H252 0.979 . S
C280 H253 0.980 . S
C280 H254 0.983 . S
C280 C276 1.684 . S
H281 C299 0.948 . S
H282 C240 0.948 . S
H283 C258 0.979 . S
H284 C258 0.980 . S
H285 C258 0.983 . S
H286 C257 0.982 . S
H287 C257 0.979 . S
H288 C257 0.977 . S
H289 C259 0.948 . S
H290 C261 0.947 . S
H291 C262 0.948 . S
H292 C268 0.982 . S
H293 C268 0.979 . S
H294 C268 0.977 . S
H295 C269 0.979 . S
H296 C269 0.980 . S
H297 C269 0.983 . S
H298 C242 0.947 . S
C299 C242 1.392 . S
C299 C243 1.419 . S
C299 H281 0.948 . S
C300 C301 1.391 . S
C300 C304 1.391 . S
C300 H342 0.948 . S
C301 C300 1.391 . S
C301 C302 1.391 . S
C302 C301 1.391 . S
C302 H358 0.947 . S
C302 C359 1.392 . S
C303 C304 1.391 . S
C303 C307 1.397 . S
C303 C359 1.419 . S
C304 C300 1.391 . S
C304 C303 1.391 . S
C304 C305 1.399 . S
C305 C304 1.399 . S
C305 C308 1.396 . S
C305 C317 1.453 . S
C305 C318 1.684 . S
H306 C330 0.948 . S
C307 C303 1.397 . S
C307 C308 1.394 . S
C307 C326 1.723 . S
C308 C305 1.396 . S
C308 C307 1.394 . S
C308 C338 1.723 . S
H309 C332 0.947 . S
H310 C333 0.948 . S
H311 C339 0.982 . S
H312 C340 0.979 . S
H313 C340 0.980 . S
H314 C340 0.983 . S
H315 C339 0.979 . S
H316 C339 0.977 . S
C317 C305 1.453 . S
C317 H346 0.982 . S
C317 H347 0.979 . S
C317 H348 0.977 . S
C318 C305 1.684 . S
C318 H343 0.979 . S
C318 H344 0.980 . S
C318 H345 0.983 . S
C319 C320 1.391 . S
C319 C324 1.391 . S
C319 H349 0.948 . S
C320 C319 1.391 . S
C320 C321 1.391 . S
C321 C320 1.391 . S
C321 C322 1.392 . S
C321 H350 0.947 . S
C322 C321 1.392 . S
C322 C323 1.419 . S
C322 H351 0.948 . S
C323 C322 1.419 . S
C323 C324 1.391 . S
C323 C327 1.397 . S
C324 C319 1.391 . S
C324 C323 1.391 . S
C324 C325 1.399 . S
C325 C324 1.399 . S
C325 C326 1.396 . S
C325 C328 1.453 . S
C325 C329 1.684 . S
C326 C307 1.723 . S
C326 C325 1.396 . S
C326 C327 1.394 . S
C327 C323 1.397 . S
C327 C326 1.394 . S
C327 C337 1.723 . S
C328 C325 1.453 . S
C328 H352 0.982 . S
C328 H353 0.979 . S
C328 H354 0.977 . S
C329 C325 1.684 . S
C329 H355 0.979 . S
C329 H356 0.980 . S
C329 H357 0.983 . S
C330 H306 0.948 . S
C330 C331 1.391 . S
C330 C335 1.391 . S
C331 C330 1.391 . S
C331 C332 1.391 . S
C332 H309 0.947 . S
C332 C331 1.391 . S
C332 C333 1.392 . S
C333 H310 0.948 . S
C333 C332 1.392 . S
C333 C334 1.419 . S
C334 C333 1.419 . S
C334 C335 1.391 . S
C334 C338 1.397 . S
C335 C330 1.391 . S
C335 C334 1.391 . S
C335 C336 1.399 . S
C336 C335 1.399 . S
C336 C337 1.396 . S
C336 C339 1.453 . S
C336 C340 1.684 . S
C337 C327 1.723 . S
C337 C336 1.396 . S
C337 C338 1.394 . S
C338 C308 1.723 . S
C338 C334 1.397 . S
C338 C337 1.394 . S
C339 H311 0.982 . S
C339 H315 0.979 . S
C339 H316 0.977 . S
C339 C336 1.453 . S
C340 H312 0.979 . S
C340 H313 0.980 . S
C340 H314 0.983 . S
C340 C336 1.684 . S
H341 C359 0.948 . S
H342 C300 0.948 . S
H343 C318 0.979 . S
H344 C318 0.980 . S
H345 C318 0.983 . S
H346 C317 0.982 . S
H347 C317 0.979 . S
H348 C317 0.977 . S
H349 C319 0.948 . S
H350 C321 0.947 . S
H351 C322 0.948 . S
H352 C328 0.982 . S
H353 C328 0.979 . S
H354 C328 0.977 . S
H355 C329 0.979 . S
H356 C329 0.980 . S
H357 C329 0.983 . S
H358 C302 0.947 . S
C359 C302 1.392 . S
C359 C303 1.419 . S
C359 H341 0.948 . S
C360 C361 1.391 . S
C360 C364 1.391 . S
C360 H402 0.948 . S
C361 C360 1.391 . S
C361 C362 1.391 . S
C362 C361 1.391 . S
C362 H418 0.947 . S
C362 C419 1.392 . S
C363 C364 1.391 . S
C363 C367 1.397 . S
C363 C419 1.419 . S
C364 C360 1.391 . S
C364 C363 1.391 . S
C364 C365 1.399 . S
C365 C364 1.399 . S
C365 C368 1.396 . S
C365 C377 1.453 . S
C365 C378 1.684 . S
H366 C390 0.948 . S
C367 C363 1.397 . S
C367 C368 1.394 . S
C367 C386 1.723 . S
C368 C365 1.396 . S
C368 C367 1.394 . S
C368 C398 1.723 . S
H369 C392 0.947 . S
H370 C393 0.948 . S
H371 C399 0.982 . S
H372 C400 0.979 . S
H373 C400 0.980 . S
H374 C400 0.983 . S
H375 C399 0.979 . S
H376 C399 0.977 . S
C377 C365 1.453 . S
C377 H406 0.982 . S
C377 H407 0.979 . S
C377 H408 0.977 . S
C378 C365 1.684 . S
C378 H403 0.979 . S
C378 H404 0.980 . S
C378 H405 0.983 . S
C379 C380 1.391 . S
C379 C384 1.391 . S
C379 H409 0.948 . S
C380 C379 1.391 . S
C380 C381 1.391 . S
C381 C380 1.391 . S
C381 C382 1.392 . S
C381 H410 0.947 . S
C382 C381 1.392 . S
C382 C383 1.419 . S
C382 H411 0.948 . S
C383 C382 1.419 . S
C383 C384 1.391 . S
C383 C387 1.397 . S
C384 C379 1.391 . S
C384 C383 1.391 . S
C384 C385 1.399 . S
C385 C384 1.399 . S
C385 C386 1.396 . S
C385 C388 1.453 . S
C385 C389 1.684 . S
C386 C367 1.723 . S
C386 C385 1.396 . S
C386 C387 1.394 . S
C387 C383 1.397 . S
C387 C386 1.394 . S
C387 C397 1.723 . S
C388 C385 1.453 . S
C388 H412 0.982 . S
C388 H413 0.979 . S
C388 H414 0.977 . S
C389 C385 1.684 . S
C389 H415 0.979 . S
C389 H416 0.980 . S
C389 H417 0.983 . S
C390 H366 0.948 . S
C390 C391 1.391 . S
C390 C395 1.391 . S
C391 C390 1.391 . S
C391 C392 1.391 . S
C392 H369 0.947 . S
C392 C391 1.391 . S
C392 C393 1.392 . S
C393 H370 0.948 . S
C393 C392 1.392 . S
C393 C394 1.419 . S
C394 C393 1.419 . S
C394 C395 1.391 . S
C394 C398 1.397 . S
C395 C390 1.391 . S
C395 C394 1.391 . S
C395 C396 1.399 . S
C396 C395 1.399 . S
C396 C397 1.396 . S
C396 C399 1.453 . S
C396 C400 1.684 . S
C397 C387 1.723 . S
C397 C396 1.396 . S
C397 C398 1.394 . S
C398 C368 1.723 . S
C398 C394 1.397 . S
C398 C397 1.394 . S
C399 H371 0.982 . S
C399 H375 0.979 . S
C399 H376 0.977 . S
C399 C396 1.453 . S
C400 H372 0.979 . S
C400 H373 0.980 . S
C400 H374 0.983 . S
C400 C396 1.684 . S
H401 C419 0.948 . S
H402 C360 0.948 . S
H403 C378 0.979 . S
H404 C378 0.980 . S
H405 C378 0.983 . S
H406 C377 0.982 . S
H407 C377 0.979 . S
H408 C377 0.977 . S
H409 C379 0.948 . S
H410 C381 0.947 . S
H411 C382 0.948 . S
H412 C388 0.982 . S
H413 C388 0.979 . S
H414 C388 0.977 . S
H415 C389 0.979 . S
H416 C389 0.980 . S
H417 C389 0.983 . S
H418 C362 0.947 . S
C419 C362 1.392 . S
C419 C363 1.419 . S
C419 H401 0.948 . S
C420 C421 1.391 . S
C420 C424 1.391 . S
C420 H462 0.948 . S
C421 C420 1.391 . S
C421 C422 1.391 . S
C422 C421 1.391 . S
C422 H478 0.947 . S
C422 C479 1.392 . S
C423 C424 1.391 . S
C423 C427 1.397 . S
C423 C479 1.419 . S
C424 C420 1.391 . S
C424 C423 1.391 . S
C424 C425 1.399 . S
C425 C424 1.399 . S
C425 C428 1.396 . S
C425 C437 1.453 . S
C425 C438 1.684 . S
H426 C450 0.948 . S
C427 C423 1.397 . S
C427 C428 1.394 . S
C427 C446 1.723 . S
C428 C425 1.396 . S
C428 C427 1.394 . S
C428 C458 1.723 . S
H429 C452 0.947 . S
H430 C453 0.948 . S
H431 C459 0.982 . S
H432 C460 0.979 . S
H433 C460 0.980 . S
H434 C460 0.983 . S
H435 C459 0.979 . S
H436 C459 0.977 . S
C437 C425 1.453 . S
C437 H466 0.982 . S
C437 H467 0.979 . S
C437 H468 0.977 . S
C438 C425 1.684 . S
C438 H463 0.979 . S
C438 H464 0.980 . S
C438 H465 0.983 . S
C439 C440 1.391 . S
C439 C444 1.391 . S
C439 H469 0.948 . S
C440 C439 1.391 . S
C440 C441 1.391 . S
C441 C440 1.391 . S
C441 C442 1.392 . S
C441 H470 0.947 . S
C442 C441 1.392 . S
C442 C443 1.419 . S
C442 H471 0.948 . S
C443 C442 1.419 . S
C443 C444 1.391 . S
C443 C447 1.397 . S
C444 C439 1.391 . S
C444 C443 1.391 . S
C444 C445 1.399 . S
C445 C444 1.399 . S
C445 C446 1.396 . S
C445 C448 1.453 . S
C445 C449 1.684 . S
C446 C427 1.723 . S
C446 C445 1.396 . S
C446 C447 1.394 . S
C447 C443 1.397 . S
C447 C446 1.394 . S
C447 C457 1.723 . S
C448 C445 1.453 . S
C448 H472 0.982 . S
C448 H473 0.979 . S
C448 H474 0.977 . S
C449 C445 1.684 . S
C449 H475 0.979 . S
C449 H476 0.980 . S
C449 H477 0.983 . S
C450 H426 0.948 . S
C450 C451 1.391 . S
C450 C455 1.391 . S
C451 C450 1.391 . S
C451 C452 1.391 . S
C452 H429 0.947 . S
C452 C451 1.391 . S
C452 C453 1.392 . S
C453 H430 0.948 . S
C453 C452 1.392 . S
C453 C454 1.419 . S
C454 C453 1.419 . S
C454 C455 1.391 . S
C454 C458 1.397 . S
C455 C450 1.391 . S
C455 C454 1.391 . S
C455 C456 1.399 . S
C456 C455 1.399 . S
C456 C457 1.396 . S
C456 C459 1.453 . S
C456 C460 1.684 . S
C457 C447 1.723 . S
C457 C456 1.396 . S
C457 C458 1.394 . S
C458 C428 1.723 . S
C458 C454 1.397 . S
C458 C457 1.394 . S
C459 H431 0.982 . S
C459 H435 0.979 . S
C459 H436 0.977 . S
C459 C456 1.453 . S
C460 H432 0.979 . S
C460 H433 0.980 . S
C460 H434 0.983 . S
C460 C456 1.684 . S
H461 C479 0.948 . S
H462 C420 0.948 . S
H463 C438 0.979 . S
H464 C438 0.980 . S
H465 C438 0.983 . S
H466 C437 0.982 . S
H467 C437 0.979 . S
H468 C437 0.977 . S
H469 C439 0.948 . S
H470 C441 0.947 . S
H471 C442 0.948 . S
H472 C448 0.982 . S
H473 C448 0.979 . S
H474 C448 0.977 . S
H475 C449 0.979 . S
H476 C449 0.980 . S
H477 C449 0.983 . S
H478 C422 0.947 . S
C479 C422 1.392 . S
C479 C423 1.419 . S
C479 H461 0.948 . S
C480 C481 1.391 . S
C480 C484 1.391 . S
C480 H522 0.948 . S
C481 C480 1.391 . S
C481 C482 1.391 . S
C482 C481 1.391 . S
C482 H538 0.947 . S
C482 C539 1.392 . S
C483 C484 1.391 . S
C483 C487 1.397 . S
C483 C539 1.419 . S
C484 C480 1.391 . S
C484 C483 1.391 . S
C484 C485 1.399 . S
C485 C484 1.399 . S
C485 C488 1.396 . S
C485 C497 1.453 . S
C485 C498 1.684 . S
H486 C510 0.948 . S
C487 C483 1.397 . S
C487 C488 1.394 . S
C487 C506 1.723 . S
C488 C485 1.396 . S
C488 C487 1.394 . S
C488 C518 1.723 . S
H489 C512 0.947 . S
H490 C513 0.948 . S
H491 C519 0.982 . S
H492 C520 0.979 . S
H493 C520 0.980 . S
H494 C520 0.983 . S
H495 C519 0.979 . S
H496 C519 0.977 . S
C497 C485 1.453 . S
C497 H526 0.982 . S
C497 H527 0.979 . S
C497 H528 0.977 . S
C498 C485 1.684 . S
C498 H523 0.979 . S
C498 H524 0.980 . S
C498 H525 0.983 . S
C499 C500 1.391 . S
C499 C504 1.391 . S
C499 H529 0.948 . S
C500 C499 1.391 . S
C500 C501 1.391 . S
C501 C500 1.391 . S
C501 C502 1.392 . S
C501 H530 0.947 . S
C502 C501 1.392 . S
C502 C503 1.419 . S
C502 H531 0.948 . S
C503 C502 1.419 . S
C503 C504 1.391 . S
C503 C507 1.397 . S
C504 C499 1.391 . S
C504 C503 1.391 . S
C504 C505 1.399 . S
C505 C504 1.399 . S
C505 C506 1.396 . S
C505 C508 1.453 . S
C505 C509 1.684 . S
C506 C487 1.723 . S
C506 C505 1.396 . S
C506 C507 1.394 . S
C507 C503 1.397 . S
C507 C506 1.394 . S
C507 C517 1.723 . S
C508 C505 1.453 . S
C508 H532 0.982 . S
C508 H533 0.979 . S
C508 H534 0.977 . S
C509 C505 1.684 . S
C509 H535 0.979 . S
C509 H536 0.980 . S
C509 H537 0.983 . S
C510 H486 0.948 . S
C510 C511 1.391 . S
C510 C515 1.391 . S
C511 C510 1.391 . S
C511 C512 1.391 . S
C512 H489 0.947 . S
C512 C511 1.391 . S
C512 C513 1.392 . S
C513 H490 0.948 . S
C513 C512 1.392 . S
C513 C514 1.419 . S
C514 C513 1.419 . S
C514 C515 1.391 . S
C514 C518 1.397 . S
C515 C510 1.391 . S
C515 C514 1.391 . S
C515 C516 1.399 . S
C516 C515 1.399 . S
C516 C517 1.396 . S
C516 C519 1.453 . S
C516 C520 1.684 . S
C517 C507 1.723 . S
C517 C516 1.396 . S
C517 C518 1.394 . S
C518 C488 1.723 . S
C518 C514 1.397 . S
C518 C517 1.394 . S
C519 H491 0.982 . S
C519 H495 0.979 . S
C519 H496 0.977 . S
C519 C516 1.453 . S
C520 H492 0.979 . S
C520 H493 0.980 . S
C520 H494 0.983 . S
C520 C516 1.684 . S
H521 C539 0.948 . S
H522 C480 0.948 . S
H523 C498 0.979 . S
H524 C498 0.980 . S
H525 C498 0.983 . S
H526 C497 0.982 . S
H527 C497 0.979 . S
H528 C497 0.977 . S
H529 C499 0.948 . S
H530 C501 0.947 . S
H531 C502 0.948 . S
H532 C508 0.982 . S
H533 C508 0.979 . S
H534 C508 0.977 . S
H535 C509 0.979 . S
H536 C509 0.980 . S
H537 C509 0.983 . S
H538 C482 0.947 . S
C539 C482 1.392 . S
C539 C483 1.419 . S
C539 H521 0.948 . S
C540 C541 1.391 . S
C540 C544 1.391 . S
C540 H582 0.948 . S
C541 C540 1.391 . S
C541 C542 1.391 . S
C542 C541 1.391 . S
C542 H598 0.947 . S
C542 C599 1.392 . S
C543 C544 1.391 . S
C543 C547 1.397 . S
C543 C599 1.419 . S
C544 C540 1.391 . S
C544 C543 1.391 . S
C544 C545 1.399 . S
C545 C544 1.399 . S
C545 C548 1.396 . S
C545 C557 1.453 . S
C545 C558 1.684 . S
H546 C570 0.948 . S
C547 C543 1.397 . S
C547 C548 1.394 . S
C547 C566 1.723 . S
C548 C545 1.396 . S
C548 C547 1.394 . S
C548 C578 1.723 . S
H549 C572 0.947 . S
H550 C573 0.948 . S
H551 C579 0.982 . S
H552 C580 0.979 . S
H553 C580 0.980 . S
H554 C580 0.983 . S
H555 C579 0.979 . S
H556 C579 0.977 . S
C557 C545 1.453 . S
C557 H586 0.982 . S
C557 H587 0.979 . S
C557 H588 0.977 . S
C558 C545 1.684 . S
C558 H583 0.979 . S
C558 H584 0.980 . S
C558 H585 0.983 . S
C559 C560 1.391 . S
C559 C564 1.391 . S
C559 H589 0.948 . S
C560 C559 1.391 . S
C560 C561 1.391 . S
C561 C560 1.391 . S
C561 C562 1.392 . S
C561 H590 0.947 . S
C562 C561 1.392 . S
C562 C563 1.419 . S
C562 H591 0.948 . S
C563 C562 1.419 . S
C563 C564 1.391 . S
C563 C567 1.397 . S
C564 C559 1.391 . S
C564 C563 1.391 . S
C564 C565 1.399 . S
C565 C564 1.399 . S
C565 C566 1.396 . S
C565 C568 1.453 . S
C565 C569 1.684 . S
C566 C547 1.723 . S
C566 C565 1.396 . S
C566 C567 1.394 . S
C567 C563 1.397 . S
C567 C566 1.394 . S
C567 C577 1.723 . S
C568 C565 1.453 . S
C568 H592 0.982 . S
C568 H593 0.979 . S
C568 H594 0.977 . S
C569 C565 1.684 . S
C569 H595 0.979 . S
C569 H596 0.980 . S
C569 H597 0.983 . S
C570 H546 0.948 . S
C570 C571 1.391 . S
C570 C575 1.391 . S
C571 C570 1.391 . S
C571 C572 1.391 . S
C572 H549 0.947 . S
C572 C571 1.391 . S
C572 C573 1.392 . S
C573 H550 0.948 . S
C573 C572 1.392 . S
C573 C574 1.419 . S
C574 C573 1.419 . S
C574 C575 1.391 . S
C574 C578 1.397 . S
C575 C570 1.391 . S
C575 C574 1.391 . S
C575 C576 1.399 . S
C576 C575 1.399 . S
C576 C577 1.396 . S
C576 C579 1.453 . S
C576 C580 1.684 . S
C577 C567 1.723 . S
C577 C576 1.396 . S
C577 C578 1.394 . S
C578 C548 1.723 . S
C578 C574 1.397 . S
C578 C577 1.394 . S
C579 H551 0.982 . S
C579 H555 0.979 . S
C579 H556 0.977 . S
C579 C576 1.453 . S
C580 H552 0.979 . S
C580 H553 0.980 . S
C580 H554 0.983 . S
C580 C576 1.684 . S
H581 C599 0.948 . S
H582 C540 0.948 . S
H583 C558 0.979 . S
H584 C558 0.980 . S
H585 C558 0.983 . S
H586 C557 0.982 . S
H587 C557 0.979 . S
H588 C557 0.977 . S
H589 C559 0.948 . S
H590 C561 0.947 . S
H591 C562 0.948 . S
H592 C568 0.982 . S
H593 C568 0.979 . S
H594 C568 0.977 . S
H595 C569 0.979 . S
H596 C569 0.980 . S
H597 C569 0.983 . S
H598 C542 0.947 . S
C599 C542 1.392 . S
C599 C543 1.419 . S
C599 H581 0.948 . S
C600 C601 1.391 . S
C600 C604 1.391 . S
C600 H642 0.948 . S
C601 C600 1.391 . S
C601 C602 1.391 . S
C602 C601 1.391 . S
C602 H658 0.947 . S
C602 C659 1.392 . S
C603 C604 1.391 . S
C603 C607 1.397 . S
C603 C659 1.419 . S
C604 C600 1.391 . S
C604 C603 1.391 . S
C604 C605 1.399 . S
C605 C604 1.399 . S
C605 C608 1.396 . S
C605 C617 1.453 . S
C605 C618 1.684 . S
H606 C630 0.948 . S
C607 C603 1.397 . S
C607 C608 1.394 . S
C607 C626 1.723 . S
C608 C605 1.396 . S
C608 C607 1.394 . S
C608 C638 1.723 . S
H609 C632 0.947 . S
H610 C633 0.948 . S
H611 C639 0.982 . S
H612 C640 0.979 . S
H613 C640 0.980 . S
H614 C640 0.983 . S
H615 C639 0.979 . S
H616 C639 0.977 . S
C617 C605 1.453 . S
C617 H646 0.982 . S
C617 H647 0.979 . S
C617 H648 0.977 . S
C618 C605 1.684 . S
C618 H643 0.979 . S
C618 H644 0.980 . S
C618 H645 0.983 . S
C619 C620 1.391 . S
C619 C624 1.391 . S
C619 H649 0.948 . S
C620 C619 1.391 . S
C620 C621 1.391 . S
C621 C620 1.391 . S
C621 C622 1.392 . S
C621 H650 0.947 . S
C622 C621 1.392 . S
C622 C623 1.419 . S
C622 H651 0.948 . S
C623 C622 1.419 . S
C623 C624 1.391 . S
C623 C627 1.397 . S
C624 C619 1.391 . S
C624 C623 1.391 . S
C624 C625 1.399 . S
C625 C624 1.399 . S
C625 C626 1.396 . S
C625 C628 1.453 . S
C625 C629 1.684 . S
C626 C607 1.723 . S
C626 C625 1.396 . S
C626 C627 1.394 . S
C627 C623 1.397 . S
C627 C626 1.394 . S
C627 C637 1.723 . S
C628 C625 1.453 . S
C628 H652 0.982 . S
C628 H653 0.979 . S
C628 H654 0.977 . S
C629 C625 1.684 . S
C629 H655 0.979 . S
C629 H656 0.980 . S
C629 H657 0.983 . S
C630 H606 0.948 . S
C630 C631 1.391 . S
C630 C635 1.391 . S
C631 C630 1.391 . S
C631 C632 1.391 . S
C632 H609 0.947 . S
C632 C631 1.391 . S
C632 C633 1.392 . S
C633 H610 0.948 . S
C633 C632 1.392 . S
C633 C634 1.419 . S
C634 C633 1.419 . S
C634 C635 1.391 . S
C634 C638 1.397 . S
C635 C630 1.391 . S
C635 C634 1.391 . S
C635 C636 1.399 . S
C636 C635 1.399 . S
C636 C637 1.396 . S
C636 C639 1.453 . S
C636 C640 1.684 . S
C637 C627 1.723 . S
C637 C636 1.396 . S
C637 C638 1.394 . S
C638 C608 1.723 . S
C638 C634 1.397 . S
C638 C637 1.394 . S
C639 H611 0.982 . S
C639 H615 0.979 . S
C639 H616 0.977 . S
C639 C636 1.453 . S
C640 H612 0.979 . S
C640 H613 0.980 . S
C640 H614 0.983 . S
C640 C636 1.684 . S
H641 C659 0.948 . S
H642 C600 0.948 . S
H643 C618 0.979 . S
H644 C618 0.980 . S
H645 C618 0.983 . S
H646 C617 0.982 . S
H647 C617 0.979 . S
H648 C617 0.977 . S
H649 C619 0.948 . S
H650 C621 0.947 . S
H651 C622 0.948 . S
H652 C628 0.982 . S
H653 C628 0.979 . S
H654 C628 0.977 . S
H655 C629 0.979 . S
H656 C629 0.980 . S
H657 C629 0.983 . S
H658 C602 0.947 . S
C659 C602 1.392 . S
C659 C603 1.419 . S
C659 H641 0.948 . S
C660 C661 1.391 . S
C660 C664 1.391 . S
C660 H702 0.948 . S
C661 C660 1.391 . S
C661 C662 1.391 . S
C662 C661 1.391 . S
C662 H718 0.947 . S
C662 C719 1.392 . S
C663 C664 1.391 . S
C663 C667 1.397 . S
C663 C719 1.419 . S
C664 C660 1.391 . S
C664 C663 1.391 . S
C664 C665 1.399 . S
C665 C664 1.399 . S
C665 C668 1.396 . S
C665 C677 1.453 . S
C665 C678 1.684 . S
H666 C690 0.948 . S
C667 C663 1.397 . S
C667 C668 1.394 . S
C667 C686 1.723 . S
C668 C665 1.396 . S
C668 C667 1.394 . S
C668 C698 1.723 . S
H669 C692 0.947 . S
H670 C693 0.948 . S
H671 C699 0.982 . S
H672 C700 0.979 . S
H673 C700 0.980 . S
H674 C700 0.983 . S
H675 C699 0.979 . S
H676 C699 0.977 . S
C677 C665 1.453 . S
C677 H706 0.982 . S
C677 H707 0.979 . S
C677 H708 0.977 . S
C678 C665 1.684 . S
C678 H703 0.979 . S
C678 H704 0.980 . S
C678 H705 0.983 . S
C679 C680 1.391 . S
C679 C684 1.391 . S
C679 H709 0.948 . S
C680 C679 1.391 . S
C680 C681 1.391 . S
C681 C680 1.391 . S
C681 C682 1.392 . S
C681 H710 0.947 . S
C682 C681 1.392 . S
C682 C683 1.419 . S
C682 H711 0.948 . S
C683 C682 1.419 . S
C683 C684 1.391 . S
C683 C687 1.397 . S
C684 C679 1.391 . S
C684 C683 1.391 . S
C684 C685 1.399 . S
C685 C684 1.399 . S
C685 C686 1.396 . S
C685 C688 1.453 . S
C685 C689 1.684 . S
C686 C667 1.723 . S
C686 C685 1.396 . S
C686 C687 1.394 . S
C687 C683 1.397 . S
C687 C686 1.394 . S
C687 C697 1.723 . S
C688 C685 1.453 . S
C688 H712 0.982 . S
C688 H713 0.979 . S
C688 H714 0.977 . S
C689 C685 1.684 . S
C689 H715 0.979 . S
C689 H716 0.980 . S
C689 H717 0.983 . S
C690 H666 0.948 . S
C690 C691 1.391 . S
C690 C695 1.391 . S
C691 C690 1.391 . S
C691 C692 1.391 . S
C692 H669 0.947 . S
C692 C691 1.391 . S
C692 C693 1.392 . S
C693 H670 0.948 . S
C693 C692 1.392 . S
C693 C694 1.419 . S
C694 C693 1.419 . S
C694 C695 1.391 . S
C694 C698 1.397 . S
C695 C690 1.391 . S
C695 C694 1.391 . S
C695 C696 1.399 . S
C696 C695 1.399 . S
C696 C697 1.396 . S
C696 C699 1.453 . S
C696 C700 1.684 . S
C697 C687 1.723 . S
C697 C696 1.396 . S
C697 C698 1.394 . S
C698 C668 1.723 . S
C698 C694 1.397 . S
C698 C697 1.394 . S
C699 H671 0.982 . S
C699 H675 0.979 . S
C699 H676 0.977 . S
C699 C696 1.453 . S
C700 H672 0.979 . S
C700 H673 0.980 . S
C700 H674 0.983 . S
C700 C696 1.684 . S
H701 C719 0.948 . S
H702 C660 0.948 . S
H703 C678 0.979 . S
H704 C678 0.980 . S
H705 C678 0.983 . S
H706 C677 0.982 . S
H707 C677 0.979 . S
H708 C677 0.977 . S
H709 C679 0.948 . S
H710 C681 0.947 . S
H711 C682 0.948 . S
H712 C688 0.982 . S
H713 C688 0.979 . S
H714 C688 0.977 . S
H715 C689 0.979 . S
H716 C689 0.980 . S
H717 C689 0.983 . S
H718 C662 0.947 . S
C719 C662 1.392 . S
C719 C663 1.419 . S
C719 H701 0.948 . S
C720 C721 1.391 . S
C720 C724 1.391 . S
C720 H762 0.948 . S
C721 C720 1.391 . S
C721 C722 1.391 . S
C722 C721 1.391 . S
C722 H778 0.947 . S
C722 C779 1.392 . S
C723 C724 1.391 . S
C723 C727 1.397 . S
C723 C779 1.419 . S
C724 C720 1.391 . S
C724 C723 1.391 . S
C724 C725 1.399 . S
C725 C724 1.399 . S
C725 C728 1.396 . S
C725 C737 1.453 . S
C725 C738 1.684 . S
H726 C750 0.948 . S
C727 C723 1.397 . S
C727 C728 1.394 . S
C727 C746 1.723 . S
C728 C725 1.396 . S
C728 C727 1.394 . S
C728 C758 1.723 . S
H729 C752 0.947 . S
H730 C753 0.948 . S
H731 C759 0.982 . S
H732 C760 0.979 . S
H733 C760 0.980 . S
H734 C760 0.983 . S
H735 C759 0.979 . S
H736 C759 0.977 . S
C737 C725 1.453 . S
C737 H766 0.982 . S
C737 H767 0.979 . S
C737 H768 0.977 . S
C738 C725 1.684 . S
C738 H763 0.979 . S
C738 H764 0.980 . S
C738 H765 0.983 . S
C739 C740 1.391 . S
C739 C744 1.391 . S
C739 H769 0.948 . S
C740 C739 1.391 . S
C740 C741 1.391 . S
C741 C740 1.391 . S
C741 C742 1.392 . S
C741 H770 0.947 . S
C742 C741 1.392 . S
C742 C743 1.419 . S
C742 H771 0.948 . S
C743 C742 1.419 . S
C743 C744 1.391 . S
C743 C747 1.397 . S
C744 C739 1.391 . S
C744 C743 1.391 . S
C744 C745 1.399 . S
C745 C744 1.399 . S
C745 C746 1.396 . S
C745 C748 1.453 . S
C745 C749 1.684 . S
C746 C727 1.723 . S
C746 C745 1.396 . S
C746 C747 1.394 . S
C747 C743 1.397 . S
C747 C746 1.394 . S
C747 C757 1.723 . S
C748 C745 1.453 . S
C748 H772 0.982 . S
C748 H773 0.979 . S
C748 H774 0.977 . S
C749 C745 1.684 . S
C749 H775 0.979 . S
C749 H776 0.980 . S
C749 H777 0.983 . S
C750 H726 0.948 . S
C750 C751 1.391 . S
C750 C755 1.391 . S
C751 C750 1.391 . S
C751 C752 1.391 . S
C752 H729 0.947 . S
C752 C751 1.391 . S
C752 C753 1.392 . S
C753 H730 0.948 . S
C753 C752 1.392 . S
C753 C754 1.419 . S
C754 C753 1.419 . S
C754 C755 1.391 . S
C754 C758 1.397 . S
C755 C750 1.391 . S
C755 C754 1.391 . S
C755 C756 1.399 . S
C756 C755 1.399 . S
C756 C757 1.396 . S
C756 C759 1.453 . S
C756 C760 1.684 . S
C757 C747 1.723 . S
C757 C756 1.396 . S
C757 C758 1.394 . S
C758 C728 1.723 . S
C758 C754 1.397 . S
C758 C757 1.394 . S
C759 H731 0.982 . S
C759 H735 0.979 . S
C759 H736 0.977 . S
C759 C756 1.453 . S
C760 H732 0.979 . S
C760 H733 0.980 . S
C760 H734 0.983 . S
C760 C756 1.684 . S
H761 C779 0.948 . S
H762 C720 0.948 . S
H763 C738 0.979 . S
H764 C738 0.980 . S
H765 C738 0.983 . S
H766 C737 0.982 . S
H767 C737 0.979 . S
H768 C737 0.977 . S
H769 C739 0.948 . S
H770 C741 0.947 . S
H771 C742 0.948 . S
H772 C748 0.982 . S
H773 C748 0.979 . S
H774 C748 0.977 . S
H775 C749 0.979 . S
H776 C749 0.980 . S
H777 C749 0.983 . S
H778 C722 0.947 . S
C779 C722 1.392 . S
C779 C723 1.419 . S
C779 H761 0.948 . S
C780 C781 1.391 . S
C780 C784 1.391 . S
C780 H822 0.948 . S
C781 C780 1.391 . S
C781 C782 1.391 . S
C782 C781 1.391 . S
C782 H838 0.947 . S
C782 C839 1.392 . S
C783 C784 1.391 . S
C783 C787 1.397 . S
C783 C839 1.419 . S
C784 C780 1.391 . S
C784 C783 1.391 . S
C784 C785 1.399 . S
C785 C784 1.399 . S
C785 C788 1.396 . S
C785 C797 1.453 . S
C785 C798 1.684 . S
H786 C810 0.948 . S
C787 C783 1.397 . S
C787 C788 1.394 . S
C787 C806 1.723 . S
C788 C785 1.396 . S
C788 C787 1.394 . S
C788 C818 1.723 . S
H789 C812 0.947 . S
H790 C813 0.948 . S
H791 C819 0.982 . S
H792 C820 0.979 . S
H793 C820 0.980 . S
H794 C820 0.983 . S
H795 C819 0.979 . S
H796 C819 0.977 . S
C797 C785 1.453 . S
C797 H826 0.982 . S
C797 H827 0.979 . S
C797 H828 0.977 . S
C798 C785 1.684 . S
C798 H823 0.979 . S
C798 H824 0.980 . S
C798 H825 0.983 . S
C799 C800 1.391 . S
C799 C804 1.391 . S
C799 H829 0.948 . S
C800 C799 1.391 . S
C800 C801 1.391 . S
C801 C800 1.391 . S
C801 C802 1.392 . S
C801 H830 0.947 . S
C802 C801 1.392 . S
C802 C803 1.419 . S
C802 H831 0.948 . S
C803 C802 1.419 . S
C803 C804 1.391 . S
C803 C807 1.397 . S
C804 C799 1.391 . S
C804 C803 1.391 . S
C804 C805 1.399 . S
C805 C804 1.399 . S
C805 C806 1.396 . S
C805 C808 1.453 . S
C805 C809 1.684 . S
C806 C787 1.723 . S
C806 C805 1.396 . S
C806 C807 1.394 . S
C807 C803 1.397 . S
C807 C806 1.394 . S
C807 C817 1.723 . S
C808 C805 1.453 . S
C808 H832 0.982 . S
C808 H833 0.979 . S
C808 H834 0.977 . S
C809 C805 1.684 . S
C809 H835 0.979 . S
C809 H836 0.980 . S
C809 H837 0.983 . S
C810 H786 0.948 . S
C810 C811 1.391 . S
C810 C815 1.391 . S
C811 C810 1.391 . S
C811 C812 1.391 . S
C812 H789 0.947 . S
C812 C811 1.391 . S
C812 C813 1.392 . S
C813 H790 0.948 . S
C813 C812 1.392 . S
C813 C814 1.419 . S
C814 C813 1.419 . S
C814 C815 1.391 . S
C814 C818 1.397 . S
C815 C810 1.391 . S
C815 C814 1.391 . S
C815 C816 1.399 . S
C816 C815 1.399 . S
C816 C817 1.396 . S
C816 C819 1.453 . S
C816 C820 1.684 . S
C817 C807 1.723 . S
C817 C816 1.396 . S
C817 C818 1.394 . S
C818 C788 1.723 . S
C818 C814 1.397 . S
C818 C817 1.394 . S
C819 H791 0.982 . S
C819 H795 0.979 . S
C819 H796 0.977 . S
C819 C816 1.453 . S
C820 H792 0.979 . S
C820 H793 0.980 . S
C820 H794 0.983 . S
C820 C816 1.684 . S
H821 C839 0.948 . S
H822 C780 0.948 . S
H823 C798 0.979 . S
H824 C798 0.980 . S
H825 C798 0.983 . S
H826 C797 0.982 . S
H827 C797 0.979 . S
H828 C797 0.977 . S
H829 C799 0.948 . S
H830 C801 0.947 . S
H831 C802 0.948 . S
H832 C808 0.982 . S
H833 C808 0.979 . S
H834 C808 0.977 . S
H835 C809 0.979 . S
H836 C809 0.980 . S
H837 C809 0.983 . S
H838 C782 0.947 . S
C839 C782 1.392 . S
C839 C783 1.419 . S
C839 H821 0.948 . S
C840 C841 1.391 . S
C840 C844 1.391 . S
C840 H882 0.948 . S
C841 C840 1.391 . S
C841 C842 1.391 . S
C842 C841 1.391 . S
C842 H898 0.947 . S
C842 C899 1.392 . S
C843 C844 1.391 . S
C843 C847 1.397 . S
C843 C899 1.419 . S
C844 C840 1.391 . S
C844 C843 1.391 . S
C844 C845 1.399 . S
C845 C844 1.399 . S
C845 C848 1.396 . S
C845 C857 1.453 . S
C845 C858 1.684 . S
H846 C870 0.948 . S
C847 C843 1.397 . S
C847 C848 1.394 . S
C847 C866 1.723 . S
C848 C845 1.396 . S
C848 C847 1.394 . S
C848 C878 1.723 . S
H849 C872 0.947 . S
H850 C873 0.948 . S
H851 C879 0.982 . S
H852 C880 0.979 . S
H853 C880 0.980 . S
H854 C880 0.983 . S
H855 C879 0.979 . S
H856 C879 0.977 . S
C857 C845 1.453 . S
C857 H886 0.982 . S
C857 H887 0.979 . S
C857 H888 0.977 . S
C858 C845 1.684 . S
C858 H883 0.979 . S
C858 H884 0.980 . S
C858 H885 0.983 . S
C859 C860 1.391 . S
C859 C864 1.391 . S
C859 H889 0.948 . S
C860 C859 1.391 . S
C860 C861 1.391 . S
C861 C860 1.391 . S
C861 C862 1.392 . S
C861 H890 0.947 . S
C862 C861 1.392 . S
C862 C863 1.419 . S
C862 H891 0.948 . S
C863 C862 1.419 . S
C863 C864 1.391 . S
C863 C867 1.397 . S
C864 C859 1.391 . S
C864 C863 1.391 . S
C864 C865 1.399 . S
C865 C864 1.399 . S
C865 C866 1.396 . S
C865 C868 1.453 . S
C865 C869 1.684 . S
C866 C847 1.723 . S
C866 C865 1.396 . S
C866 C867 1.394 . S
C867 C863 1.397 . S
C867 C866 1.394 . S
C867 C877 1.723 . S
C868 C865 1.453 . S
C868 H892 0.982 . S
C868 H893 0.979 . S
C868 H894 0.977 . S
C869 C865 1.684 . S
C869 H895 0.979 . S
C869 H896 0.980 . S
C869 H897 0.983 . S
C870 H846 0.948 . S
C870 C871 1.391 . S
C870 C875 1.391 . S
C871 C870 1.391 . S
C871 C872 1.391 . S
C872 H849 0.947 . S
C872 C871 1.391 . S
C872 C873 1.392 . S
C873 H850 0.948 . S
C873 C872 1.392 . S
C873 C874 1.419 . S
C874 C873 1.419 . S
C874 C875 1.391 . S
C874 C878 1.397 . S
C875 C870 1.391 . S
C875 C874 1.391 . S
C875 C876 1.399 . S
C876 C875 1.399 . S
C876 C877 1.396 . S
C876 C879 1.453 . S
C876 C880 1.684 . S
C877 C867 1.723 . S
C877 C876 1.396 . S
C877 C878 1.394 . S
C878 C848 1.723 . S
C878 C874 1.397 . S
C878 C877 1.394 . S
C879 H851 0.982 . S
C879 H855 0.979 . S
C879 H856 0.977 . S
C879 C876 1.453 . S
C880 H852 0.979 . S
C880 H853 0.980 . S
C880 H854 0.983 . S
C880 C876 1.684 . S
H881 C899 0.948 . S
H882 C840 0.948 . S
H883 C858 0.979 . S
H884 C858 0.980 . S
H885 C858 0.983 . S
H886 C857 0.982 . S
H887 C857 0.979 . S
H888 C857 0.977 . S
H889 C859 0.948 . S
H890 C861 0.947 . S
H891 C862 0.948 . S
H892 C868 0.982 . S
H893 C868 0.979 . S
H894 C868 0.977 . S
H895 C869 0.979 . S
H896 C869 0.980 . S
H897 C869 0.983 . S
H898 C842 0.947 . S
C899 C842 1.392 . S
C899 C843 1.419 . S
C899 H881 0.948 . S
C900 C901 1.391 . S
C900 C904 1.391 . S
C900 H942 0.948 . S
C901 C900 1.391 . S
C901 C902 1.391 . S
C902 C901 1.391 . S
C902 H958 0.947 . S
C902 C959 1.392 . S
C903 C904 1.391 . S
C903 C907 1.397 . S
C903 C959 1.419 . S
C904 C900 1.391 . S
C904 C903 1.391 . S
C904 C905 1.399 . S
C905 C904 1.399 . S
C905 C908 1.396 . S
C905 C917 1.453 . S
C905 C918 1.684 . S
H906 C930 0.948 . S
C907 C903 1.397 . S
C907 C908 1.394 . S
C907 C926 1.723 . S
C908 C905 1.396 . S
C908 C907 1.394 . S
C908 C938 1.723 . S
H909 C932 0.947 . S
H910 C933 0.948 . S
H911 C939 0.982 . S
H912 C940 0.979 . S
H913 C940 0.980 . S
H914 C940 0.983 . S
H915 C939 0.979 . S
H916 C939 0.977 . S
C917 C905 1.453 . S
C917 H946 0.982 . S
C917 H947 0.979 . S
C917 H948 0.977 . S
C918 C905 1.684 . S
C918 H943 0.979 . S
C918 H944 0.980 . S
C918 H945 0.983 . S
C919 C920 1.391 . S
C919 C924 1.391 . S
C919 H949 0.948 . S
C920 C919 1.391 . S
C920 C921 1.391 . S
C921 C920 1.391 . S
C921 C922 1.392 . S
C921 H950 0.947 . S
C922 C921 1.392 . S
C922 C923 1.419 . S
C922 H951 0.948 . S
C923 C922 1.419 . S
C923 C924 1.391 . S
C923 C927 1.397 . S
C924 C919 1.391 . S
C924 C923 1.391 . S
C924 C925 1.399 . S
C925 C924 1.399 . S
C925 C926 1.396 . S
C925 C928 1.453 . S
C925 C929 1.684 . S
C926 C907 1.723 . S
C926 C925 1.396 . S
C926 C927 1.394 . S
C927 C923 1.397 . S
C927 C926 1.394 . S
C927 C937 1.723 . S
C928 C925 1.453 . S
C928 H952 0.982 . S
C928 H953 0.979 . S
C928 H954 0.977 . S
C929 C925 1.684 . S
C929 H955 0.979 . S
C929 H956 0.980 . S
C929 H957 0.983 . S
C930 H906 0.948 . S
C930 C931 1.391 . S
C930 C935 1.391 . S
C931 C930 1.391 . S
C931 C932 1.391 . S
C932 H909 0.947 . S
C932 C931 1.391 . S
C932 C933 1.392 . S
C933 H910 0.948 . S
C933 C932 1.392 . S
C933 C934 1.419 . S
C934 C933 1.419 . S
C934 C935 1.391 . S
C934 C938 1.397 . S
C935 C930 1.391 . S
C935 C934 1.391 . S
C935 C936 1.399 . S
C936 C935 1.399 . S
C936 C937 1.396 . S
C936 C939 1.453 . S
C936 C940 1.684 . S
C937 C927 1.723 . S
C937 C936 1.396 . S
C937 C938 1.394 . S
C938 C908 1.723 . S
C938 C934 1.397 . S
C938 C937 1.394 . S
C939 H911 0.982 . S
C939 H915 0.979 . S
C939 H916 0.977 . S
C939 C936 1.453 . S
C940 H912 0.979 . S
C940 H913 0.980 . S
C940 H914 0.983 . S
C940 C936 1.684 . S
H941 C959 0.948 . S
H942 C900 0.948 . S
H943 C918 0.979 . S
H944 C918 0.980 . S
H945 C918 0.983 . S
H946 C917 0.982 . S
H947 C917 0.979 . S
H948 C917 0.977 . S
H949 C919 0.948 . S
H950 C921 0.947 . S
H951 C922 0.948 . S
H952 C928 0.982 . S
H953 C928 0.979 . S
H954 C928 0.977 . S
H955 C929 0.979 . S
H956 C929 0.980 . S
H957 C929 0.983 . S
H958 C902 0.947 . S
C959 C902 1.392 . S
C959 C903 1.419 . S
C959 H941 0.948 . S
C960 C961 1.391 . S
C960 C964 1.391 . S
C960 H1002 0.948 . S
C961 C960 1.391 . S
C961 C962 1.391 . S
C962 C961 1.391 . S
C962 H1018 0.947 . S
C962 C1019 1.392 . S
C963 C964 1.391 . S
C963 C967 1.397 . S
C963 C1019 1.419 . S
C964 C960 1.391 . S
C964 C963 1.391 . S
C964 C965 1.399 . S
C965 C964 1.399 . S
C965 C968 1.396 . S
C965 C977 1.453 . S
C965 C978 1.684 . S
H966 C990 0.948 . S
C967 C963 1.397 . S
C967 C968 1.394 . S
C967 C986 1.723 . S
C968 C965 1.396 . S
C968 C967 1.394 . S
C968 C998 1.723 . S
H969 C992 0.947 . S
H970 C993 0.948 . S
H971 C999 0.982 . S
H972 C1000 0.979 . S
H973 C1000 0.980 . S
H974 C1000 0.983 . S
H975 C999 0.979 . S
H976 C999 0.977 . S
C977 C965 1.453 . S
C977 H1006 0.982 . S
C977 H1007 0.979 . S
C977 H1008 0.977 . S
C978 C965 1.684 . S
C978 H1003 0.979 . S
C978 H1004 0.980 . S
C978 H1005 0.983 . S
C979 C980 1.391 . S
C979 C984 1.391 . S
C979 H1009 0.948 . S
C980 C979 1.391 . S
C980 C981 1.391 . S
C981 C980 1.391 . S
C981 C982 1.392 . S
C981 H1010 0.947 . S
C982 C981 1.392 . S
C982 C983 1.419 . S
C982 H1011 0.948 . S
C983 C982 1.419 . S
C983 C984 1.391 . S
C983 C987 1.397 . S
C984 C979 1.391 . S
C984 C983 1.391 . S
C984 C985 1.399 . S
C985 C984 1.399 . S
C985 C986 1.396 . S
C985 C988 1.453 . S
C985 C989 1.684 . S
C986 C967 1.723 . S
C986 C985 1.396 . S
C986 C987 1.394 . S
C987 C983 1.397 . S
C987 C986 1.394 . S
C987 C997 1.723 . S
C988 C985 1.453 . S
C988 H1012 0.982 . S
C988 H1013 0.979 . S
C988 H1014 0.977 . S
C989 C985 1.684 . S
C989 H1015 0.979 . S
C989 H1016 0.980 . S
C989 H1017 0.983 . S
C990 H966 0.948 . S
C990 C991 1.391 . S
C990 C995 1.391 . S
C991 C990 1.391 . S
C991 C992 1.391 . S
C992 H969 0.947 . S
C992 C991 1.391 . S
C992 C993 1.392 . S
C993 H970 0.948 . S
C993 C992 1.392 . S
C993 C994 1.419 . S
C994 C993 1.419 . S
C994 C995 1.391 . S
C994 C998 1.397 . S
C995 C990 1.391 . S
C995 C994 1.391 . S
C995 C996 1.399 . S
C996 C995 1.399 . S
C996 C997 1.396 . S
C996 C999 1.453 . S
C996 C1000 1.684 . S
C997 C987 1.723 . S
C997 C996 1.396 . S
C997 C998 1.394 . S
C998 C968 1.723 . S
C998 C994 1.397 . S
C998 C997 1.394 . S
C999 H971 0.982 . S
C999 H975 0.979 . S
C999 H976 0.977 . S
C999 C996 1.453 . S
C1000 H972 0.979 . S
C1000 H973 0.980 . S
C1000 H974 0.983 . S
C1000 C996 1.684 . S
H1001 C1019 0.948 . S
H1002 C960 0.948 . S
H1003 C978 0.979 . S
H1004 C978 0.980 . S
H1005 C978 0.983 . S
H1006 C977 0.982 . S
H1007 C977 0.979 . S
H1008 C977 0.977 . S
H1009 C979 0.948 . S
H1010 C981 0.947 . S
H1011 C982 0.948 . S
H1012 C988 0.982 . S
H1013 C988 0.979 . S
H1014 C988 0.977 . S
H1015 C989 0.979 . S
H1016 C989 0.980 . S
H1017 C989 0.983 . S
H1018 C962 0.947 . S
C1019 C962 1.392 . S
C1019 C963 1.419 . S
C1019 H1001 0.948 . S
C1020 C1021 1.391 . S
C1020 C1024 1.391 . S
C1020 H1062 0.948 . S
C1021 C1020 1.391 . S
C1021 C1022 1.391 . S
C1022 C1021 1.391 . S
C1022 H1078 0.947 . S
C1022 C1079 1.392 . S
C1023 C1024 1.391 . S
C1023 C1027 1.397 . S
C1023 C1079 1.419 . S
C1024 C1020 1.391 . S
C1024 C1023 1.391 . S
C1024 C1025 1.399 . S
C1025 C1024 1.399 . S
C1025 C1028 1.396 . S
C1025 C1037 1.453 . S
C1025 C1038 1.684 . S
H1026 C1050 0.948 . S
C1027 C1023 1.397 . S
C1027 C1028 1.394 . S
C1027 C1046 1.723 . S
C1028 C1025 1.396 . S
C1028 C1027 1.394 . S
C1028 C1058 1.723 . S
H1029 C1052 0.947 . S
H1030 C1053 0.948 . S
H1031 C1059 0.982 . S
H1032 C1060 0.979 . S
H1033 C1060 0.980 . S
H1034 C1060 0.983 . S
H1035 C1059 0.979 . S
H1036 C1059 0.977 . S
C1037 C1025 1.453 . S
C1037 H1066 0.982 . S
C1037 H1067 0.979 . S
C1037 H1068 0.977 . S
C1038 C1025 1.684 . S
C1038 H1063 0.979 . S
C1038 H1064 0.980 . S
C1038 H1065 0.983 . S
C1039 C1040 1.391 . S
C1039 C1044 1.391 . S
C1039 H1069 0.948 . S
C1040 C1039 1.391 . S
C1040 C1041 1.391 . S
C1041 C1040 1.391 . S
C1041 C1042 1.392 . S
C1041 H1070 0.947 . S
C1042 C1041 1.392 . S
C1042 C1043 1.419 . S
C1042 H1071 0.948 . S
C1043 C1042 1.419 . S
C1043 C1044 1.391 . S
C1043 C1047 1.397 . S
C1044 C1039 1.391 . S
C1044 C1043 1.391 . S
C1044 C1045 1.399 . S
C1045 C1044 1.399 . S
C1045 C1046 1.396 . S
C1045 C1048 1.453 . S
C1045 C1049 1.684 . S
C1046 C1027 1.723 . S
C1046 C1045 1.396 . S
C1046 C1047 1.394 . S
C1047 C1043 1.397 . S
C1047 C1046 1.394 . S
C1047 C1057 1.723 . S
C1048 C1045 1.453 . S
C1048 H1072 0.982 . S
C1048 H1073 0.979 . S
C1048 H1074 0.977 . S
C1049 C1045 1.684 . S
C1049 H1075 0.979 . S
C1049 H1076 0.980 . S
C1049 H1077 0.983 . S
C1050 H1026 0.948 . S
C1050 C1051 1.391 . S
C1050 C1055 1.391 . S
C1051 C1050 1.391 . S
C1051 C1052 1.391 . S
C1052 H1029 0.947 . S
C1052 C1051 1.391 . S
C1052 C1053 1.392 . S
C1053 H1030 0.948 . S
C1053 C1052 1.392 . S
C1053 C1054 1.419 . S
C1054 C1053 1.419 . S
C1054 C1055 1.391 . S
C1054 C1058 1.397 . S
C1055 C1050 1.391 . S
C1055 C1054 1.391 . S
C1055 C1056 1.399 . S
C1056 C1055 1.399 . S
C1056 C1057 1.396 . S
C1056 C1059 1.453 . S
C1056 C1060 1.684 . S
C1057 C1047 1.723 . S
C1057 C1056 1.396 . S
C1057 C1058 1.394 . S
C1058 C1028 1.723 . S
C1058 C1054 1.397 . S
C1058 C1057 1.394 . S
C1059 H1031 0.982 . S
C1059 H1035 0.979 . S
C1059 H1036 0.977 . S
C1059 C1056 1.453 . S
C1060 H1032 0.979 . S
C1060 H1033 0.980 . S
C1060 H1034 0.983 . S
C1060 C1056 1.684 . S
H1061 C1079 0.948 . S
H1062 C1020 0.948 . S
H1063 C1038 0.979 . S
H1064 C1038 0.980 . S
H1065 C1038 0.983 . S
H1066 C1037 0.982 . S
H1067 C1037 0.979 . S
H1068 C1037 0.977 . S
H1069 C1039 0.948 . S
H1070 C1041 0.947 . S
H1071 C1042 0.948 . S
H1072 C1048 0.982 . S
H1073 C1048 0.979 . S
H1074 C1048 0.977 . S
H1075 C1049 0.979 . S
H1076 C1049 0.980 . S
H1077 C1049 0.983 . S
H1078 C1022 0.947 . S
C1079 C1022 1.392 . S
C1079 C1023 1.419 . S
C1079 H1061 0.948 . S
Tb1080 O1083 2.453 . S
Tb1080 O1084 2.596 1_545 S
Tb1080 O1085 2.374 1_545 S
Tb1080 O1093 2.343 1_554 S
Tb1080 O1095 2.353 . S
Tb1080 O1097 2.427 1_554 S
Tb1080 O1098 2.513 1_554 S
C1081 O1085 1.251 . S
C1081 O1087 1.263 1_554 S
Tb1082 O1084 2.343 1_556 S
Tb1082 O1087 2.353 . S
Tb1082 O1090 2.427 1_556 S
Tb1082 O1091 2.513 1_556 S
Tb1082 O1092 2.453 . S
Tb1082 O1093 2.596 1_565 S
Tb1082 O1094 2.374 1_565 S
O1083 Tb1080 2.453 . S
O1083 C1099 1.245 . S
O1084 Tb1080 2.596 1_565 S
O1084 Tb1082 2.343 1_554 S
O1084 C1099 1.259 1_565 S
O1085 Tb1080 2.374 1_565 S
O1085 C1081 1.251 . S
C1086 O1090 1.275 . S
C1086 O1091 1.246 . S
O1087 C1081 1.263 1_556 S
O1087 Tb1082 2.353 . S
C1088 O1092 1.282 . S
C1088 O1093 1.252 1_565 S
C1089 O1094 1.250 . S
C1089 O1095 1.263 1_556 S
O1090 Tb1082 2.427 1_554 S
O1090 C1086 1.275 . S
O1091 Tb1082 2.513 1_554 S
O1091 C1086 1.246 . S
O1092 Tb1082 2.453 . S
O1092 C1088 1.282 . S
O1093 Tb1080 2.343 1_556 S
O1093 Tb1082 2.596 1_545 S
O1093 C1088 1.252 1_545 S
O1094 Tb1082 2.374 1_545 S
O1094 C1089 1.250 . S
O1095 Tb1080 2.353 . S
O1095 C1089 1.263 1_554 S
C1096 O1097 1.275 . S
C1096 O1098 1.246 . S
O1097 Tb1080 2.427 1_556 S
O1097 C1096 1.275 . S
O1098 Tb1080 2.513 1_556 S
O1098 C1096 1.246 . S
C1099 O1083 1.245 . S
C1099 O1084 1.259 1_545 S
Tb1100 O1103 2.453 . S
Tb1100 O1104 2.596 1_655 S
Tb1100 O1105 2.374 1_655 S
Tb1100 O1113 2.343 1_554 S
Tb1100 O1115 2.353 1_554 S
Tb1100 O1117 2.427 1_554 S
Tb1100 O1118 2.513 1_554 S
C1101 O1105 1.251 . S
C1101 O1107 1.263 . S
Tb1102 O1104 2.343 1_556 S
Tb1102 O1107 2.353 1_556 S
Tb1102 O1110 2.427 1_556 S
Tb1102 O1111 2.513 1_556 S
Tb1102 O1112 2.453 . S
Tb1102 O1113 2.596 1_455 S
Tb1102 O1114 2.374 1_455 S
O1103 Tb1100 2.453 . S
O1103 C1119 1.212 1_655 S
O1104 Tb1100 2.596 1_455 S
O1104 Tb1102 2.343 1_554 S
O1104 C1119 1.273 . S
O1105 Tb1100 2.374 1_455 S
O1105 C1101 1.251 . S
C1106 O1110 1.275 . S
C1106 O1111 1.246 . S
O1107 C1101 1.263 . S
O1107 Tb1102 2.353 1_554 S
C1108 O1112 1.228 1_655 S
C1108 O1113 1.266 . S
C1109 O1114 1.250 . S
C1109 O1115 1.263 . S
O1110 Tb1102 2.427 1_554 S
O1110 C1106 1.275 . S
O1111 Tb1102 2.513 1_554 S
O1111 C1106 1.246 . S
O1112 Tb1102 2.453 . S
O1112 C1108 1.228 1_455 S
O1113 Tb1100 2.343 1_556 S
O1113 Tb1102 2.596 1_655 S
O1113 C1108 1.266 . S
O1114 Tb1102 2.374 1_655 S
O1114 C1109 1.250 . S
O1115 Tb1100 2.353 1_556 S
O1115 C1109 1.263 . S
C1116 O1117 1.275 . S
C1116 O1118 1.246 . S
O1117 Tb1100 2.427 1_556 S
O1117 C1116 1.275 . S
O1118 Tb1100 2.513 1_556 S
O1118 C1116 1.246 . S
C1119 O1103 1.212 1_455 S
C1119 O1104 1.273 . S
Tb1120 O1123 2.453 . S
Tb1120 O1124 2.596 . S
Tb1120 O1125 2.374 . S
Tb1120 O1133 2.343 1_556 S
Tb1120 O1135 2.351 1_556 S
Tb1120 O1137 2.427 1_556 S
Tb1120 O1138 2.513 1_556 S
C1121 O1125 1.251 . S
C1121 O1127 1.249 1_556 S
Tb1122 O1124 2.343 1_554 S
Tb1122 O1127 2.358 . S
Tb1122 O1130 2.427 1_554 S
Tb1122 O1131 2.513 1_554 S
Tb1122 O1132 2.453 . S
Tb1122 O1133 2.596 . S
Tb1122 O1134 2.374 . S
O1123 Tb1120 2.453 . S
O1123 C1139 1.245 . S
O1124 Tb1120 2.596 . S
O1124 Tb1122 2.343 1_556 S
O1124 C1139 1.259 . S
O1125 Tb1120 2.374 . S
O1125 C1121 1.251 . S
C1126 O1130 1.275 . S
C1126 O1131 1.246 . S
O1127 C1121 1.249 1_554 S
O1127 Tb1122 2.358 . S
C1128 O1132 1.245 . S
C1128 O1133 1.259 . S
C1129 O1134 1.250 . S
C1129 O1135 1.273 . S
O1130 Tb1122 2.427 1_556 S
O1130 C1126 1.275 . S
O1131 Tb1122 2.513 1_556 S
O1131 C1126 1.246 . S
O1132 Tb1122 2.453 . S
O1132 C1128 1.245 . S
O1133 Tb1120 2.343 1_554 S
O1133 Tb1122 2.596 . S
O1133 C1128 1.259 . S
O1134 Tb1122 2.374 . S
O1134 C1129 1.250 . S
O1135 Tb1120 2.351 1_554 S
O1135 C1129 1.273 . S
C1136 O1137 1.275 . S
C1136 O1138 1.246 . S
O1137 Tb1120 2.427 1_554 S
O1137 C1136 1.275 . S
O1138 Tb1120 2.513 1_554 S
O1138 C1136 1.246 . S
C1139 O1123 1.245 . S
C1139 O1124 1.259 . S
Tb1140 O1143 2.453 . S
Tb1140 O1144 2.596 . S
Tb1140 O1145 2.374 . S
Tb1140 O1153 2.343 . S
Tb1140 O1155 2.353 . S
Tb1140 O1157 2.427 . S
Tb1140 O1158 2.513 . S
C1141 O1145 1.251 . S
C1141 O1147 1.263 . S
Tb1142 O1144 2.343 . S
Tb1142 O1147 2.353 . S
Tb1142 O1150 2.427 . S
Tb1142 O1151 2.513 . S
Tb1142 O1152 2.453 . S
Tb1142 O1153 2.596 . S
Tb1142 O1154 2.374 . S
O1143 Tb1140 2.453 . S
O1143 C1159 1.245 . S
O1144 Tb1140 2.596 . S
O1144 Tb1142 2.343 . S
O1144 C1159 1.259 . S
O1145 Tb1140 2.374 . S
O1145 C1141 1.251 . S
C1146 O1150 1.275 . S
C1146 O1151 1.246 . S
O1147 C1141 1.263 . S
O1147 Tb1142 2.353 . S
C1148 O1152 1.245 . S
C1148 O1153 1.259 . S
C1149 O1154 1.250 . S
C1149 O1155 1.263 . S
O1150 Tb1142 2.427 . S
O1150 C1146 1.275 . S
O1151 Tb1142 2.513 . S
O1151 C1146 1.246 . S
O1152 Tb1142 2.453 . S
O1152 C1148 1.245 . S
O1153 Tb1140 2.343 . S
O1153 Tb1142 2.596 . S
O1153 C1148 1.259 . S
O1154 Tb1142 2.374 . S
O1154 C1149 1.250 . S
O1155 Tb1140 2.353 . S
O1155 C1149 1.263 . S
C1156 O1157 1.275 . S
C1156 O1158 1.246 . S
O1157 Tb1140 2.427 . S
O1157 C1156 1.275 . S
O1158 Tb1140 2.513 . S
O1158 C1156 1.246 . S
C1159 O1143 1.245 . S
C1159 O1144 1.259 . S
Tb1160 O1163 2.453 . S
Tb1160 O1164 2.596 . S
Tb1160 O1165 2.374 . S
Tb1160 O1173 2.343 . S
Tb1160 O1175 2.353 . S
Tb1160 O1177 2.427 . S
Tb1160 O1178 2.513 . S
C1161 O1165 1.251 . S
C1161 O1167 1.263 . S
Tb1162 O1164 2.343 . S
Tb1162 O1167 2.353 . S
Tb1162 O1170 2.427 . S
Tb1162 O1171 2.513 . S
Tb1162 O1172 2.453 . S
Tb1162 O1173 2.596 . S
Tb1162 O1174 2.374 . S
O1163 Tb1160 2.453 . S
O1163 C1179 1.245 . S
O1164 Tb1160 2.596 . S
O1164 Tb1162 2.343 . S
O1164 C1179 1.259 . S
O1165 Tb1160 2.374 . S
O1165 C1161 1.251 . S
C1166 O1170 1.275 . S
C1166 O1171 1.246 . S
O1167 C1161 1.263 . S
O1167 Tb1162 2.353 . S
C1168 O1172 1.245 . S
C1168 O1173 1.259 . S
C1169 O1174 1.250 . S
C1169 O1175 1.263 . S
O1170 Tb1162 2.427 . S
O1170 C1166 1.275 . S
O1171 Tb1162 2.513 . S
O1171 C1166 1.246 . S
O1172 Tb1162 2.453 . S
O1172 C1168 1.245 . S
O1173 Tb1160 2.343 . S
O1173 Tb1162 2.596 . S
O1173 C1168 1.259 . S
O1174 Tb1162 2.374 . S
O1174 C1169 1.250 . S
O1175 Tb1160 2.353 . S
O1175 C1169 1.263 . S
C1176 O1177 1.275 . S
C1176 O1178 1.246 . S
O1177 Tb1160 2.427 . S
O1177 C1176 1.275 . S
O1178 Tb1160 2.513 . S
O1178 C1176 1.246 . S
C1179 O1163 1.245 . S
C1179 O1164 1.259 . S
Tb1180 O1183 2.453 . S
Tb1180 O1184 2.596 . S
Tb1180 O1185 2.374 . S
Tb1180 O1193 2.343 . S
Tb1180 O1195 2.353 . S
Tb1180 O1197 2.427 . S
Tb1180 O1198 2.513 . S
C1181 O1185 1.251 . S
C1181 O1187 1.263 . S
Tb1182 O1184 2.343 . S
Tb1182 O1187 2.353 . S
Tb1182 O1190 2.427 . S
Tb1182 O1191 2.513 . S
Tb1182 O1192 2.453 . S
Tb1182 O1193 2.596 . S
Tb1182 O1194 2.374 . S
O1183 Tb1180 2.453 . S
O1183 C1199 1.245 . S
O1184 Tb1180 2.596 . S
O1184 Tb1182 2.343 . S
O1184 C1199 1.259 . S
O1185 Tb1180 2.374 . S
O1185 C1181 1.251 . S
C1186 O1190 1.275 . S
C1186 O1191 1.246 . S
O1187 C1181 1.263 . S
O1187 Tb1182 2.353 . S
C1188 O1192 1.245 . S
C1188 O1193 1.259 . S
C1189 O1194 1.250 . S
C1189 O1195 1.263 . S
O1190 Tb1182 2.427 . S
O1190 C1186 1.275 . S
O1191 Tb1182 2.513 . S
O1191 C1186 1.246 . S
O1192 Tb1182 2.453 . S
O1192 C1188 1.245 . S
O1193 Tb1180 2.343 . S
O1193 Tb1182 2.596 . S
O1193 C1188 1.259 . S
O1194 Tb1182 2.374 . S
O1194 C1189 1.250 . S
O1195 Tb1180 2.353 . S
O1195 C1189 1.263 . S
C1196 O1197 1.275 . S
C1196 O1198 1.246 . S
O1197 Tb1180 2.427 . S
O1197 C1196 1.275 . S
O1198 Tb1180 2.513 . S
O1198 C1196 1.246 . S
C1199 O1183 1.245 . S
C1199 O1184 1.259 . S
Tb1200 O1203 2.453 . S
Tb1200 O1204 2.596 . S
Tb1200 O1205 2.374 . S
Tb1200 O1213 2.343 . S
Tb1200 O1215 2.353 . S
Tb1200 O1217 2.427 . S
Tb1200 O1218 2.513 . S
C1201 O1205 1.251 . S
C1201 O1207 1.263 . S
Tb1202 O1204 2.343 . S
Tb1202 O1207 2.353 . S
Tb1202 O1210 2.427 . S
Tb1202 O1211 2.513 . S
Tb1202 O1212 2.453 . S
Tb1202 O1213 2.596 . S
Tb1202 O1214 2.374 . S
O1203 Tb1200 2.453 . S
O1203 C1219 1.245 . S
O1204 Tb1200 2.596 . S
O1204 Tb1202 2.343 . S
O1204 C1219 1.259 . S
O1205 Tb1200 2.374 . S
O1205 C1201 1.251 . S
C1206 O1210 1.275 . S
C1206 O1211 1.246 . S
O1207 C1201 1.263 . S
O1207 Tb1202 2.353 . S
C1208 O1212 1.245 . S
C1208 O1213 1.259 . S
C1209 O1214 1.250 . S
C1209 O1215 1.263 . S
O1210 Tb1202 2.427 . S
O1210 C1206 1.275 . S
O1211 Tb1202 2.513 . S
O1211 C1206 1.246 . S
O1212 Tb1202 2.453 . S
O1212 C1208 1.245 . S
O1213 Tb1200 2.343 . S
O1213 Tb1202 2.596 . S
O1213 C1208 1.259 . S
O1214 Tb1202 2.374 . S
O1214 C1209 1.250 . S
O1215 Tb1200 2.353 . S
O1215 C1209 1.263 . S
C1216 O1217 1.275 . S
C1216 O1218 1.246 . S
O1217 Tb1200 2.427 . S
O1217 C1216 1.275 . S
O1218 Tb1200 2.513 . S
O1218 C1216 1.246 . S
C1219 O1203 1.245 . S
C1219 O1204 1.259 . S
Tb1220 O1223 2.453 . S
Tb1220 O1224 2.596 . S
Tb1220 O1225 2.374 . S
Tb1220 O1233 2.343 . S
Tb1220 O1235 2.353 . S
Tb1220 O1237 2.427 . S
Tb1220 O1238 2.513 . S
C1221 O1225 1.251 . S
C1221 O1227 1.263 . S
Tb1222 O1224 2.343 . S
Tb1222 O1227 2.353 . S
Tb1222 O1230 2.427 . S
Tb1222 O1231 2.513 . S
Tb1222 O1232 2.453 . S
Tb1222 O1233 2.596 . S
Tb1222 O1234 2.374 . S
O1223 Tb1220 2.453 . S
O1223 C1239 1.245 . S
O1224 Tb1220 2.596 . S
O1224 Tb1222 2.343 . S
O1224 C1239 1.259 . S
O1225 Tb1220 2.374 . S
O1225 C1221 1.251 . S
C1226 O1230 1.275 . S
C1226 O1231 1.246 . S
O1227 C1221 1.263 . S
O1227 Tb1222 2.353 . S
C1228 O1232 1.245 . S
C1228 O1233 1.259 . S
C1229 O1234 1.250 . S
C1229 O1235 1.263 . S
O1230 Tb1222 2.427 . S
O1230 C1226 1.275 . S
O1231 Tb1222 2.513 . S
O1231 C1226 1.246 . S
O1232 Tb1222 2.453 . S
O1232 C1228 1.245 . S
O1233 Tb1220 2.343 . S
O1233 Tb1222 2.596 . S
O1233 C1228 1.259 . S
O1234 Tb1222 2.374 . S
O1234 C1229 1.250 . S
O1235 Tb1220 2.353 . S
O1235 C1229 1.263 . S
C1236 O1237 1.275 . S
C1236 O1238 1.246 . S
O1237 Tb1220 2.427 . S
O1237 C1236 1.275 . S
O1238 Tb1220 2.513 . S
O1238 C1236 1.246 . S
C1239 O1223 1.245 . S
C1239 O1224 1.259 . S
Tb1240 O1243 2.453 . S
Tb1240 O1244 2.596 . S
Tb1240 O1245 2.374 . S
Tb1240 O1253 2.343 . S
Tb1240 O1255 2.353 . S
Tb1240 O1257 2.427 . S
Tb1240 O1258 2.513 . S
C1241 O1245 1.251 . S
C1241 O1247 1.263 . S
Tb1242 O1244 2.343 . S
Tb1242 O1247 2.353 . S
Tb1242 O1250 2.427 . S
Tb1242 O1251 2.513 . S
Tb1242 O1252 2.453 . S
Tb1242 O1253 2.596 . S
Tb1242 O1254 2.374 . S
O1243 Tb1240 2.453 . S
O1243 C1259 1.245 . S
O1244 Tb1240 2.596 . S
O1244 Tb1242 2.343 . S
O1244 C1259 1.259 . S
O1245 Tb1240 2.374 . S
O1245 C1241 1.251 . S
C1246 O1250 1.275 . S
C1246 O1251 1.246 . S
O1247 C1241 1.263 . S
O1247 Tb1242 2.353 . S
C1248 O1252 1.245 . S
C1248 O1253 1.259 . S
C1249 O1254 1.250 . S
C1249 O1255 1.263 . S
O1250 Tb1242 2.427 . S
O1250 C1246 1.275 . S
O1251 Tb1242 2.513 . S
O1251 C1246 1.246 . S
O1252 Tb1242 2.453 . S
O1252 C1248 1.245 . S
O1253 Tb1240 2.343 . S
O1253 Tb1242 2.596 . S
O1253 C1248 1.259 . S
O1254 Tb1242 2.374 . S
O1254 C1249 1.250 . S
O1255 Tb1240 2.353 . S
O1255 C1249 1.263 . S
C1256 O1257 1.275 . S
C1256 O1258 1.246 . S
O1257 Tb1240 2.427 . S
O1257 C1256 1.275 . S
O1258 Tb1240 2.513 . S
O1258 C1256 1.246 . S
C1259 O1243 1.245 . S
C1259 O1244 1.259 . S
C1260 C1261 1.349 . S
C1260 C1262 1.327 . S
C1260 H1285 0.950 . S
C1261 C1260 1.349 . S
C1261 C1277 1.349 . S
C1262 C1260 1.327 . S
C1262 C1281 1.429 . S
C1262 H1286 0.950 . S
C1263 C1280 1.574 . S
C1263 C1282 1.368 . S
C1263 H1287 0.949 . S
H1264 C1268 0.949 . S
C1265 C1266 1.349 . S
C1265 C1267 1.327 . S
C1265 H1288 0.950 . S
C1266 C1265 1.349 . S
C1266 C1278 1.349 . S
C1267 C1265 1.327 . S
C1267 C1283 1.429 . S
C1267 H1289 0.950 . S
C1268 H1264 0.949 . S
C1268 C1276 1.574 . S
C1268 C1284 1.368 . S
H1269 C1277 0.950 . S
H1270 C1275 0.950 . S
H1271 C1276 0.949 . S
H1272 C1278 0.950 . S
H1273 C1279 0.950 . S
H1274 C1280 0.949 . S
C1275 H1270 0.950 . S
C1275 C1277 1.327 . S
C1275 C1281 1.429 . S
C1276 C1268 1.574 . S
C1276 H1271 0.949 . S
C1276 C1282 1.368 . S
C1277 C1261 1.349 . S
C1277 H1269 0.950 . S
C1277 C1275 1.327 . S
C1278 C1266 1.349 . S
C1278 H1272 0.950 . S
C1278 C1279 1.327 . S
C1279 H1273 0.950 . S
C1279 C1278 1.327 . S
C1279 C1283 1.429 . S
C1280 C1263 1.574 . S
C1280 H1274 0.949 . S
C1280 C1284 1.368 . S
C1281 C1262 1.429 . S
C1281 C1275 1.429 . S
C1281 C1282 1.523 . S
C1282 C1263 1.368 . S
C1282 C1276 1.368 . S
C1282 C1281 1.523 . S
C1283 C1267 1.429 . S
C1283 C1279 1.429 . S
C1283 C1284 1.523 . S
C1284 C1268 1.368 . S
C1284 C1280 1.368 . S
C1284 C1283 1.523 . S
H1285 C1260 0.950 . S
H1286 C1262 0.950 . S
H1287 C1263 0.949 . S
H1288 C1265 0.950 . S
H1289 C1267 0.950 . S
C1290 C1291 1.349 . S
C1290 C1292 1.327 . S
C1290 H1315 0.950 . S
C1291 C1290 1.349 . S
C1291 C1307 1.349 . S
C1292 C1290 1.327 . S
C1292 C1311 1.429 . S
C1292 H1316 0.950 . S
C1293 C1310 1.574 . S
C1293 C1312 1.368 . S
C1293 H1317 0.949 . S
H1294 C1298 0.949 . S
C1295 C1296 1.349 . S
C1295 C1297 1.327 . S
C1295 H1318 0.950 . S
C1296 C1295 1.349 . S
C1296 C1308 1.349 . S
C1297 C1295 1.327 . S
C1297 C1313 1.429 . S
C1297 H1319 0.950 . S
C1298 H1294 0.949 . S
C1298 C1306 1.574 . S
C1298 C1314 1.368 . S
H1299 C1307 0.950 . S
H1300 C1305 0.950 . S
H1301 C1306 0.949 . S
H1302 C1308 0.950 . S
H1303 C1309 0.950 . S
H1304 C1310 0.949 . S
C1305 H1300 0.950 . S
C1305 C1307 1.327 . S
C1305 C1311 1.429 . S
C1306 C1298 1.574 . S
C1306 H1301 0.949 . S
C1306 C1312 1.368 . S
C1307 C1291 1.349 . S
C1307 H1299 0.950 . S
C1307 C1305 1.327 . S
C1308 C1296 1.349 . S
C1308 H1302 0.950 . S
C1308 C1309 1.327 . S
C1309 H1303 0.950 . S
C1309 C1308 1.327 . S
C1309 C1313 1.429 . S
C1310 C1293 1.574 . S
C1310 H1304 0.949 . S
C1310 C1314 1.368 . S
C1311 C1292 1.429 . S
C1311 C1305 1.429 . S
C1311 C1312 1.523 . S
C1312 C1293 1.368 . S
C1312 C1306 1.368 . S
C1312 C1311 1.523 . S
C1313 C1297 1.429 . S
C1313 C1309 1.429 . S
C1313 C1314 1.523 . S
C1314 C1298 1.368 . S
C1314 C1310 1.368 . S
C1314 C1313 1.523 . S
H1315 C1290 0.950 . S
H1316 C1292 0.950 . S
H1317 C1293 0.949 . S
H1318 C1295 0.950 . S
H1319 C1297 0.950 . S
C1320 C1321 1.349 . S
C1320 C1322 1.327 . S
C1320 H1345 0.950 . S
C1321 C1320 1.349 . S
C1321 C1337 1.349 . S
C1322 C1320 1.327 . S
C1322 C1341 1.429 . S
C1322 H1346 0.950 . S
C1323 C1340 1.574 . S
C1323 C1342 1.368 . S
C1323 H1347 0.949 . S
H1324 C1328 0.949 . S
C1325 C1326 1.349 . S
C1325 C1327 1.327 . S
C1325 H1348 0.952 1_554 S
C1326 C1325 1.349 . S
C1326 C1338 1.349 . S
C1327 C1325 1.327 . S
C1327 C1343 1.429 . S
C1327 H1349 0.950 . S
C1328 H1324 0.949 . S
C1328 C1336 1.574 . S
C1328 C1344 1.368 . S
H1329 C1337 0.950 . S
H1330 C1335 0.950 . S
H1331 C1336 0.949 . S
H1332 C1338 0.950 . S
H1333 C1339 0.950 . S
H1334 C1340 0.949 . S
C1335 H1330 0.950 . S
C1335 C1337 1.327 . S
C1335 C1341 1.429 . S
C1336 C1328 1.574 . S
C1336 H1331 0.949 . S
C1336 C1342 1.368 . S
C1337 C1321 1.349 . S
C1337 H1329 0.950 . S
C1337 C1335 1.327 . S
C1338 C1326 1.349 . S
C1338 H1332 0.950 . S
C1338 C1339 1.327 . S
C1339 H1333 0.950 . S
C1339 C1338 1.327 . S
C1339 C1343 1.429 . S
C1340 C1323 1.574 . S
C1340 H1334 0.949 . S
C1340 C1344 1.368 . S
C1341 C1322 1.429 . S
C1341 C1335 1.429 . S
C1341 C1342 1.523 . S
C1342 C1323 1.368 . S
C1342 C1336 1.368 . S
C1342 C1341 1.523 . S
C1343 C1327 1.429 . S
C1343 C1339 1.429 . S
C1343 C1344 1.523 . S
C1344 C1328 1.368 . S
C1344 C1340 1.368 . S
C1344 C1343 1.523 . S
H1345 C1320 0.950 . S
H1346 C1322 0.950 . S
H1347 C1323 0.949 . S
H1348 C1325 0.952 1_556 S
H1349 C1327 0.950 . S
C1350 C1351 1.349 . S
C1350 C1352 1.327 . S
C1350 H1375 0.950 . S
C1351 C1350 1.349 . S
C1351 C1367 1.349 . S
C1352 C1350 1.327 . S
C1352 C1371 1.429 . S
C1352 H1376 0.950 . S
C1353 C1370 1.574 . S
C1353 C1372 1.368 . S
C1353 H1377 0.949 . S
H1354 C1358 0.949 . S
C1355 C1356 1.349 . S
C1355 C1357 1.327 . S
C1355 H1378 0.950 . S
C1356 C1355 1.349 . S
C1356 C1368 1.349 . S
C1357 C1355 1.327 . S
C1357 C1373 1.429 . S
C1357 H1379 0.950 . S
C1358 H1354 0.949 . S
C1358 C1366 1.574 . S
C1358 C1374 1.368 . S
H1359 C1367 0.950 . S
H1360 C1365 0.950 . S
H1361 C1366 0.949 . S
H1362 C1368 0.950 . S
H1363 C1369 0.950 . S
H1364 C1370 0.949 . S
C1365 H1360 0.950 . S
C1365 C1367 1.327 . S
C1365 C1371 1.429 . S
C1366 C1358 1.574 . S
C1366 H1361 0.949 . S
C1366 C1372 1.368 . S
C1367 C1351 1.349 . S
C1367 H1359 0.950 . S
C1367 C1365 1.327 . S
C1368 C1356 1.349 . S
C1368 H1362 0.950 . S
C1368 C1369 1.327 . S
C1369 H1363 0.950 . S
C1369 C1368 1.327 . S
C1369 C1373 1.429 . S
C1370 C1353 1.574 . S
C1370 H1364 0.949 . S
C1370 C1374 1.368 . S
C1371 C1352 1.429 . S
C1371 C1365 1.429 . S
C1371 C1372 1.523 . S
C1372 C1353 1.368 . S
C1372 C1366 1.368 . S
C1372 C1371 1.523 . S
C1373 C1357 1.429 . S
C1373 C1369 1.429 . S
C1373 C1374 1.523 . S
C1374 C1358 1.368 . S
C1374 C1370 1.368 . S
C1374 C1373 1.523 . S
H1375 C1350 0.950 . S
H1376 C1352 0.950 . S
H1377 C1353 0.949 . S
H1378 C1355 0.950 . S
H1379 C1357 0.950 . S
C1380 C1381 1.349 . S
C1380 C1382 1.327 . S
C1380 H1405 0.950 . S
C1381 C1380 1.349 . S
C1381 C1397 1.349 . S
C1382 C1380 1.327 . S
C1382 C1401 1.429 . S
C1382 H1406 0.950 . S
C1383 C1400 1.574 . S
C1383 C1402 1.368 . S
C1383 H1407 0.949 . S
H1384 C1388 0.949 . S
C1385 C1386 1.349 . S
C1385 C1387 1.327 . S
C1385 H1408 0.950 . S
C1386 C1385 1.349 . S
C1386 C1398 1.349 . S
C1387 C1385 1.327 . S
C1387 C1403 1.429 . S
C1387 H1409 0.950 . S
C1388 H1384 0.949 . S
C1388 C1396 1.574 . S
C1388 C1404 1.368 . S
H1389 C1397 0.950 . S
H1390 C1395 0.950 . S
H1391 C1396 0.949 . S
H1392 C1398 0.950 . S
H1393 C1399 0.950 . S
H1394 C1400 0.949 . S
C1395 H1390 0.950 . S
C1395 C1397 1.327 . S
C1395 C1401 1.429 . S
C1396 C1388 1.574 . S
C1396 H1391 0.949 . S
C1396 C1402 1.368 . S
C1397 C1381 1.349 . S
C1397 H1389 0.950 . S
C1397 C1395 1.327 . S
C1398 C1386 1.349 . S
C1398 H1392 0.950 . S
C1398 C1399 1.327 . S
C1399 H1393 0.950 . S
C1399 C1398 1.327 . S
C1399 C1403 1.429 . S
C1400 C1383 1.574 . S
C1400 H1394 0.949 . S
C1400 C1404 1.368 . S
C1401 C1382 1.429 . S
C1401 C1395 1.429 . S
C1401 C1402 1.523 . S
C1402 C1383 1.368 . S
C1402 C1396 1.368 . S
C1402 C1401 1.523 . S
C1403 C1387 1.429 . S
C1403 C1399 1.429 . S
C1403 C1404 1.523 . S
C1404 C1388 1.368 . S
C1404 C1400 1.368 . S
C1404 C1403 1.523 . S
H1405 C1380 0.950 . S
H1406 C1382 0.950 . S
H1407 C1383 0.949 . S
H1408 C1385 0.950 . S
H1409 C1387 0.950 . S
C1410 C1411 1.349 . S
C1410 C1412 1.327 . S
C1410 H1435 0.950 . S
C1411 C1410 1.349 . S
C1411 C1427 1.349 . S
C1412 C1410 1.327 . S
C1412 C1431 1.429 . S
C1412 H1436 0.950 . S
C1413 C1430 1.574 . S
C1413 C1432 1.368 . S
C1413 H1437 0.949 . S
H1414 C1418 0.949 . S
C1415 C1416 1.349 . S
C1415 C1417 1.327 . S
C1415 H1438 0.950 . S
C1416 C1415 1.349 . S
C1416 C1428 1.349 . S
C1417 C1415 1.327 . S
C1417 C1433 1.429 . S
C1417 H1439 0.950 . S
C1418 H1414 0.949 . S
C1418 C1426 1.574 . S
C1418 C1434 1.368 . S
H1419 C1427 0.950 . S
H1420 C1425 0.950 . S
H1421 C1426 0.949 . S
H1422 C1428 0.950 . S
H1423 C1429 0.950 . S
H1424 C1430 0.949 . S
C1425 H1420 0.950 . S
C1425 C1427 1.327 . S
C1425 C1431 1.429 . S
C1426 C1418 1.574 . S
C1426 H1421 0.949 . S
C1426 C1432 1.368 . S
C1427 C1411 1.349 . S
C1427 H1419 0.950 . S
C1427 C1425 1.327 . S
C1428 C1416 1.349 . S
C1428 H1422 0.950 . S
C1428 C1429 1.327 . S
C1429 H1423 0.950 . S
C1429 C1428 1.327 . S
C1429 C1433 1.429 . S
C1430 C1413 1.574 . S
C1430 H1424 0.949 . S
C1430 C1434 1.368 . S
C1431 C1412 1.429 . S
C1431 C1425 1.429 . S
C1431 C1432 1.523 . S
C1432 C1413 1.368 . S
C1432 C1426 1.368 . S
C1432 C1431 1.523 . S
C1433 C1417 1.429 . S
C1433 C1429 1.429 . S
C1433 C1434 1.523 . S
C1434 C1418 1.368 . S
C1434 C1430 1.368 . S
C1434 C1433 1.523 . S
H1435 C1410 0.950 . S
H1436 C1412 0.950 . S
H1437 C1413 0.949 . S
H1438 C1415 0.950 . S
H1439 C1417 0.950 . S
C1440 C1441 1.349 . S
C1440 C1442 1.327 . S
C1440 H1465 0.950 . S
C1441 C1440 1.349 . S
C1441 C1457 1.349 . S
C1442 C1440 1.327 . S
C1442 C1461 1.429 . S
C1442 H1466 0.950 . S
C1443 C1460 1.574 . S
C1443 C1462 1.368 . S
C1443 H1467 0.949 . S
H1444 C1448 0.949 . S
C1445 C1446 1.349 . S
C1445 C1447 1.327 . S
C1445 H1468 0.950 . S
C1446 C1445 1.349 . S
C1446 C1458 1.349 . S
C1447 C1445 1.327 . S
C1447 C1463 1.429 . S
C1447 H1469 0.950 . S
C1448 H1444 0.949 . S
C1448 C1456 1.574 . S
C1448 C1464 1.368 . S
H1449 C1457 0.950 . S
H1450 C1455 0.950 . S
H1451 C1456 0.949 . S
H1452 C1458 0.950 . S
H1453 C1459 0.950 . S
H1454 C1460 0.949 . S
C1455 H1450 0.950 . S
C1455 C1457 1.327 . S
C1455 C1461 1.429 . S
C1456 C1448 1.574 . S
C1456 H1451 0.949 . S
C1456 C1462 1.368 . S
C1457 C1441 1.349 . S
C1457 H1449 0.950 . S
C1457 C1455 1.327 . S
C1458 C1446 1.349 . S
C1458 H1452 0.950 . S
C1458 C1459 1.327 . S
C1459 H1453 0.950 . S
C1459 C1458 1.327 . S
C1459 C1463 1.429 . S
C1460 C1443 1.574 . S
C1460 H1454 0.949 . S
C1460 C1464 1.368 . S
C1461 C1442 1.429 . S
C1461 C1455 1.429 . S
C1461 C1462 1.523 . S
C1462 C1443 1.368 . S
C1462 C1456 1.368 . S
C1462 C1461 1.523 . S
C1463 C1447 1.429 . S
C1463 C1459 1.429 . S
C1463 C1464 1.523 . S
C1464 C1448 1.368 . S
C1464 C1460 1.368 . S
C1464 C1463 1.523 . S
H1465 C1440 0.950 . S
H1466 C1442 0.950 . S
H1467 C1443 0.949 . S
H1468 C1445 0.950 . S
H1469 C1447 0.950 . S
C1470 C1471 1.349 . S
C1470 C1472 1.327 . S
C1470 H1495 0.950 . S
C1471 C1470 1.349 . S
C1471 C1487 1.349 . S
C1472 C1470 1.327 . S
C1472 C1491 1.429 . S
C1472 H1496 0.950 . S
C1473 C1490 1.574 . S
C1473 C1492 1.368 . S
C1473 H1497 0.949 . S
H1474 C1478 0.949 . S
C1475 C1476 1.349 . S
C1475 C1477 1.327 . S
C1475 H1498 0.950 . S
C1476 C1475 1.349 . S
C1476 C1488 1.349 . S
C1477 C1475 1.327 . S
C1477 C1493 1.429 . S
C1477 H1499 0.950 . S
C1478 H1474 0.949 . S
C1478 C1486 1.574 . S
C1478 C1494 1.368 . S
H1479 C1487 0.950 . S
H1480 C1485 0.950 . S
H1481 C1486 0.949 . S
H1482 C1488 0.950 . S
H1483 C1489 0.950 . S
H1484 C1490 0.949 . S
C1485 H1480 0.950 . S
C1485 C1487 1.327 . S
C1485 C1491 1.429 . S
C1486 C1478 1.574 . S
C1486 H1481 0.949 . S
C1486 C1492 1.368 . S
C1487 C1471 1.349 . S
C1487 H1479 0.950 . S
C1487 C1485 1.327 . S
C1488 C1476 1.349 . S
C1488 H1482 0.950 . S
C1488 C1489 1.327 . S
C1489 H1483 0.950 . S
C1489 C1488 1.327 . S
C1489 C1493 1.429 . S
C1490 C1473 1.574 . S
C1490 H1484 0.949 . S
C1490 C1494 1.368 . S
C1491 C1472 1.429 . S
C1491 C1485 1.429 . S
C1491 C1492 1.523 . S
C1492 C1473 1.368 . S
C1492 C1486 1.368 . S
C1492 C1491 1.523 . S
C1493 C1477 1.429 . S
C1493 C1489 1.429 . S
C1493 C1494 1.523 . S
C1494 C1478 1.368 . S
C1494 C1490 1.368 . S
C1494 C1493 1.523 . S
H1495 C1470 0.950 . S
H1496 C1472 0.950 . S
H1497 C1473 0.949 . S
H1498 C1475 0.950 . S
H1499 C1477 0.950 . S
C1500 C1501 1.349 . S
C1500 C1502 1.327 . S
C1500 H1525 0.950 . S
C1501 C1500 1.349 . S
C1501 C1517 1.349 . S
C1502 C1500 1.327 . S
C1502 C1521 1.429 . S
C1502 H1526 0.950 . S
C1503 C1520 1.574 . S
C1503 C1522 1.368 . S
C1503 H1527 0.949 . S
H1504 C1508 0.949 . S
C1505 C1506 1.349 . S
C1505 C1507 1.327 . S
C1505 H1528 0.950 1_556 S
C1506 C1505 1.349 . S
C1506 C1518 1.349 . S
C1507 C1505 1.327 . S
C1507 C1523 1.429 . S
C1507 H1529 0.950 . S
C1508 H1504 0.949 . S
C1508 C1516 1.574 . S
C1508 C1524 1.368 . S
H1509 C1517 0.950 . S
H1510 C1515 0.950 . S
H1511 C1516 0.949 . S
H1512 C1518 0.950 . S
H1513 C1519 0.950 . S
H1514 C1520 0.949 . S
C1515 H1510 0.950 . S
C1515 C1517 1.327 . S
C1515 C1521 1.429 . S
C1516 C1508 1.574 . S
C1516 H1511 0.949 . S
C1516 C1522 1.368 . S
C1517 C1501 1.349 . S
C1517 H1509 0.950 . S
C1517 C1515 1.327 . S
C1518 C1506 1.349 . S
C1518 H1512 0.950 . S
C1518 C1519 1.327 . S
C1519 H1513 0.950 . S
C1519 C1518 1.327 . S
C1519 C1523 1.429 . S
C1520 C1503 1.574 . S
C1520 H1514 0.949 . S
C1520 C1524 1.368 . S
C1521 C1502 1.429 . S
C1521 C1515 1.429 . S
C1521 C1522 1.523 . S
C1522 C1503 1.368 . S
C1522 C1516 1.368 . S
C1522 C1521 1.523 . S
C1523 C1507 1.429 . S
C1523 C1519 1.429 . S
C1523 C1524 1.523 . S
C1524 C1508 1.368 . S
C1524 C1520 1.368 . S
C1524 C1523 1.523 . S
H1525 C1500 0.950 . S
H1526 C1502 0.950 . S
H1527 C1503 0.949 . S
H1528 C1505 0.950 1_554 S
H1529 C1507 0.950 . S
C1530 C1531 1.349 . S
C1530 C1532 1.327 . S
C1530 H1555 0.950 . S
C1531 C1530 1.349 . S
C1531 C1547 1.349 . S
C1532 C1530 1.327 . S
C1532 C1551 1.429 . S
C1532 H1556 0.950 . S
C1533 C1550 1.574 . S
C1533 C1552 1.368 . S
C1533 H1557 0.949 . S
H1534 C1538 0.949 . S
C1535 C1536 1.349 . S
C1535 C1537 1.327 . S
C1535 H1558 0.950 . S
C1536 C1535 1.349 . S
C1536 C1548 1.349 . S
C1537 C1535 1.327 . S
C1537 C1553 1.429 . S
C1537 H1559 0.950 . S
C1538 H1534 0.949 . S
C1538 C1546 1.574 . S
C1538 C1554 1.368 . S
H1539 C1547 0.950 . S
H1540 C1545 0.950 . S
H1541 C1546 0.949 . S
H1542 C1548 0.950 . S
H1543 C1549 0.950 . S
H1544 C1550 0.949 . S
C1545 H1540 0.950 . S
C1545 C1547 1.327 . S
C1545 C1551 1.429 . S
C1546 C1538 1.574 . S
C1546 H1541 0.949 . S
C1546 C1552 1.368 . S
C1547 C1531 1.349 . S
C1547 H1539 0.950 . S
C1547 C1545 1.327 . S
C1548 C1536 1.349 . S
C1548 H1542 0.950 . S
C1548 C1549 1.327 . S
C1549 H1543 0.950 . S
C1549 C1548 1.327 . S
C1549 C1553 1.429 . S
C1550 C1533 1.574 . S
C1550 H1544 0.949 . S
C1550 C1554 1.368 . S
C1551 C1532 1.429 . S
C1551 C1545 1.429 . S
C1551 C1552 1.523 . S
C1552 C1533 1.368 . S
C1552 C1546 1.368 . S
C1552 C1551 1.523 . S
C1553 C1537 1.429 . S
C1553 C1549 1.429 . S
C1553 C1554 1.523 . S
C1554 C1538 1.368 . S
C1554 C1550 1.368 . S
C1554 C1553 1.523 . S
H1555 C1530 0.950 . S
H1556 C1532 0.950 . S
H1557 C1533 0.949 . S
H1558 C1535 0.950 . S
H1559 C1537 0.950 . S
C1560 C1561 1.349 . S
C1560 C1562 1.327 . S
C1560 H1585 0.950 . S
C1561 C1560 1.349 . S
C1561 C1577 1.349 . S
C1562 C1560 1.327 . S
C1562 C1581 1.429 . S
C1562 H1586 0.950 . S
C1563 C1580 1.574 . S
C1563 C1582 1.368 . S
C1563 H1587 0.949 . S
H1564 C1568 0.949 . S
C1565 C1566 1.349 . S
C1565 C1567 1.327 . S
C1565 H1588 0.950 . S
C1566 C1565 1.349 . S
C1566 C1578 1.349 . S
C1567 C1565 1.327 . S
C1567 C1583 1.429 . S
C1567 H1589 0.950 . S
C1568 H1564 0.949 . S
C1568 C1576 1.574 . S
C1568 C1584 1.368 . S
H1569 C1577 0.950 . S
H1570 C1575 0.950 . S
H1571 C1576 0.949 . S
H1572 C1578 0.950 . S
H1573 C1579 0.950 . S
H1574 C1580 0.949 . S
C1575 H1570 0.950 . S
C1575 C1577 1.327 . S
C1575 C1581 1.429 . S
C1576 C1568 1.574 . S
C1576 H1571 0.949 . S
C1576 C1582 1.368 . S
C1577 C1561 1.349 . S
C1577 H1569 0.950 . S
C1577 C1575 1.327 . S
C1578 C1566 1.349 . S
C1578 H1572 0.950 . S
C1578 C1579 1.327 . S
C1579 H1573 0.950 . S
C1579 C1578 1.327 . S
C1579 C1583 1.429 . S
C1580 C1563 1.574 . S
C1580 H1574 0.949 . S
C1580 C1584 1.368 . S
C1581 C1562 1.429 . S
C1581 C1575 1.429 . S
C1581 C1582 1.523 . S
C1582 C1563 1.368 . S
C1582 C1576 1.368 . S
C1582 C1581 1.523 . S
C1583 C1567 1.429 . S
C1583 C1579 1.429 . S
C1583 C1584 1.523 . S
C1584 C1568 1.368 . S
C1584 C1580 1.368 . S
C1584 C1583 1.523 . S
H1585 C1560 0.950 . S
H1586 C1562 0.950 . S
H1587 C1563 0.949 . S
H1588 C1565 0.950 . S
H1589 C1567 0.950 . S
C1590 C1591 1.349 . S
C1590 C1592 1.327 . S
C1590 H1615 0.950 . S
C1591 C1590 1.349 . S
C1591 C1607 1.349 . S
C1592 C1590 1.327 . S
C1592 C1611 1.429 . S
C1592 H1616 0.950 . S
C1593 C1610 1.574 . S
C1593 C1612 1.368 . S
C1593 H1617 0.949 . S
H1594 C1598 0.949 . S
C1595 C1596 1.349 . S
C1595 C1597 1.327 . S
C1595 H1618 0.950 . S
C1596 C1595 1.349 . S
C1596 C1608 1.349 . S
C1597 C1595 1.327 . S
C1597 C1613 1.429 . S
C1597 H1619 0.950 . S
C1598 H1594 0.949 . S
C1598 C1606 1.574 . S
C1598 C1614 1.368 . S
H1599 C1607 0.950 . S
H1600 C1605 0.950 . S
H1601 C1606 0.949 . S
H1602 C1608 0.950 . S
H1603 C1609 0.950 . S
H1604 C1610 0.949 . S
C1605 H1600 0.950 . S
C1605 C1607 1.327 . S
C1605 C1611 1.429 . S
C1606 C1598 1.574 . S
C1606 H1601 0.949 . S
C1606 C1612 1.368 . S
C1607 C1591 1.349 . S
C1607 H1599 0.950 . S
C1607 C1605 1.327 . S
C1608 C1596 1.349 . S
C1608 H1602 0.950 . S
C1608 C1609 1.327 . S
C1609 H1603 0.950 . S
C1609 C1608 1.327 . S
C1609 C1613 1.429 . S
C1610 C1593 1.574 . S
C1610 H1604 0.949 . S
C1610 C1614 1.368 . S
C1611 C1592 1.429 . S
C1611 C1605 1.429 . S
C1611 C1612 1.523 . S
C1612 C1593 1.368 . S
C1612 C1606 1.368 . S
C1612 C1611 1.523 . S
C1613 C1597 1.429 . S
C1613 C1609 1.429 . S
C1613 C1614 1.523 . S
C1614 C1598 1.368 . S
C1614 C1610 1.368 . S
C1614 C1613 1.523 . S
H1615 C1590 0.950 . S
H1616 C1592 0.950 . S
H1617 C1593 0.949 . S
H1618 C1595 0.950 . S
H1619 C1597 0.950 . S
C1620 C1621 1.349 . S
C1620 C1622 1.327 . S
C1620 H1645 0.950 . S
C1621 C1620 1.349 . S
C1621 C1637 1.349 . S
C1622 C1620 1.327 . S
C1622 C1641 1.429 . S
C1622 H1646 0.950 . S
C1623 C1640 1.574 . S
C1623 C1642 1.368 . S
C1623 H1647 0.949 . S
H1624 C1628 0.949 . S
C1625 C1626 1.349 . S
C1625 C1627 1.327 . S
C1625 H1648 0.950 . S
C1626 C1625 1.349 . S
C1626 C1638 1.349 . S
C1627 C1625 1.327 . S
C1627 C1643 1.429 . S
C1627 H1649 0.950 . S
C1628 H1624 0.949 . S
C1628 C1636 1.574 . S
C1628 C1644 1.368 . S
H1629 C1637 0.950 . S
H1630 C1635 0.950 . S
H1631 C1636 0.949 1_655 S
H1632 C1638 0.950 . S
H1633 C1639 0.950 . S
H1634 C1640 0.949 . S
C1635 H1630 0.950 . S
C1635 C1637 1.327 . S
C1635 C1641 1.429 . S
C1636 C1628 1.574 . S
C1636 H1631 0.949 1_455 S
C1636 C1642 1.368 . S
C1637 C1621 1.349 . S
C1637 H1629 0.950 . S
C1637 C1635 1.327 . S
C1638 C1626 1.349 . S
C1638 H1632 0.950 . S
C1638 C1639 1.327 . S
C1639 H1633 0.950 . S
C1639 C1638 1.327 . S
C1639 C1643 1.429 . S
C1640 C1623 1.574 . S
C1640 H1634 0.949 . S
C1640 C1644 1.368 . S
C1641 C1622 1.429 . S
C1641 C1635 1.429 . S
C1641 C1642 1.523 1_655 S
C1642 C1623 1.368 . S
C1642 C1636 1.368 . S
C1642 C1641 1.523 1_455 S
C1643 C1627 1.429 . S
C1643 C1639 1.429 . S
C1643 C1644 1.523 . S
C1644 C1628 1.368 . S
C1644 C1640 1.368 . S
C1644 C1643 1.523 . S
H1645 C1620 0.950 . S
H1646 C1622 0.950 . S
H1647 C1623 0.949 . S
H1648 C1625 0.950 . S
H1649 C1627 0.950 . S
C1650 C1651 1.349 . S
C1650 C1652 1.327 . S
C1650 H1675 0.950 . S
C1651 C1650 1.349 . S
C1651 C1667 1.349 . S
C1652 C1650 1.327 . S
C1652 C1671 1.429 . S
C1652 H1676 0.950 . S
C1653 C1670 1.574 . S
C1653 C1672 1.368 . S
C1653 H1677 0.949 . S
H1654 C1658 0.949 . S
C1655 C1656 1.349 . S
C1655 C1657 1.327 . S
C1655 H1678 0.950 . S
C1656 C1655 1.349 . S
C1656 C1668 1.349 . S
C1657 C1655 1.327 . S
C1657 C1673 1.429 . S
C1657 H1679 0.950 . S
C1658 H1654 0.949 . S
C1658 C1666 1.574 . S
C1658 C1674 1.368 . S
H1659 C1667 0.950 . S
H1660 C1665 0.950 . S
H1661 C1666 0.949 . S
H1662 C1668 0.950 . S
H1663 C1669 0.950 . S
H1664 C1670 0.949 . S
C1665 H1660 0.950 . S
C1665 C1667 1.327 . S
C1665 C1671 1.429 . S
C1666 C1658 1.574 . S
C1666 H1661 0.949 . S
C1666 C1672 1.368 . S
C1667 C1651 1.349 . S
C1667 H1659 0.950 . S
C1667 C1665 1.327 . S
C1668 C1656 1.349 . S
C1668 H1662 0.950 . S
C1668 C1669 1.327 . S
C1669 H1663 0.950 . S
C1669 C1668 1.327 . S
C1669 C1673 1.429 . S
C1670 C1653 1.574 . S
C1670 H1664 0.949 . S
C1670 C1674 1.368 . S
C1671 C1652 1.429 . S
C1671 C1665 1.429 . S
C1671 C1672 1.523 . S
C1672 C1653 1.368 . S
C1672 C1666 1.368 . S
C1672 C1671 1.523 . S
C1673 C1657 1.429 . S
C1673 C1669 1.429 . S
C1673 C1674 1.523 . S
C1674 C1658 1.368 . S
C1674 C1670 1.368 . S
C1674 C1673 1.523 . S
H1675 C1650 0.950 . S
H1676 C1652 0.950 . S
H1677 C1653 0.949 . S
H1678 C1655 0.950 . S
H1679 C1657 0.950 . S
C1680 C1681 1.349 . S
C1680 C1682 1.327 . S
C1680 H1705 0.950 . S
C1681 C1680 1.349 . S
C1681 C1697 1.349 . S
C1682 C1680 1.327 . S
C1682 C1701 1.429 . S
C1682 H1706 0.950 . S
C1683 C1700 1.574 . S
C1683 C1702 1.368 . S
C1683 H1707 0.949 . S
H1684 C1688 0.949 . S
C1685 C1686 1.349 . S
C1685 C1687 1.327 . S
C1685 H1708 0.950 . S
C1686 C1685 1.349 . S
C1686 C1698 1.349 . S
C1687 C1685 1.327 . S
C1687 C1703 1.429 . S
C1687 H1709 0.950 . S
C1688 H1684 0.949 . S
C1688 C1696 1.574 . S
C1688 C1704 1.368 . S
H1689 C1697 0.950 . S
H1690 C1695 0.950 . S
H1691 C1696 0.949 . S
H1692 C1698 0.950 . S
H1693 C1699 0.950 . S
H1694 C1700 0.949 . S
C1695 H1690 0.950 . S
C1695 C1697 1.327 . S
C1695 C1701 1.429 . S
C1696 C1688 1.574 . S
C1696 H1691 0.949 . S
C1696 C1702 1.368 . S
C1697 C1681 1.349 . S
C1697 H1689 0.950 . S
C1697 C1695 1.327 . S
C1698 C1686 1.349 . S
C1698 H1692 0.950 . S
C1698 C1699 1.327 . S
C1699 H1693 0.950 . S
C1699 C1698 1.327 . S
C1699 C1703 1.429 . S
C1700 C1683 1.574 . S
C1700 H1694 0.949 . S
C1700 C1704 1.368 . S
C1701 C1682 1.429 . S
C1701 C1695 1.429 . S
C1701 C1702 1.523 1_545 S
C1702 C1683 1.368 . S
C1702 C1696 1.368 . S
C1702 C1701 1.523 1_565 S
C1703 C1687 1.429 . S
C1703 C1699 1.429 . S
C1703 C1704 1.523 . S
C1704 C1688 1.368 . S
C1704 C1700 1.368 . S
C1704 C1703 1.523 . S
H1705 C1680 0.950 . S
H1706 C1682 0.950 . S
H1707 C1683 0.949 . S
H1708 C1685 0.950 . S
H1709 C1687 0.950 . S
C1710 C1711 1.349 . S
C1710 C1712 1.327 . S
C1710 H1735 0.950 . S
C1711 C1710 1.349 . S
C1711 C1727 1.349 . S
C1712 C1710 1.327 . S
C1712 C1731 1.429 . S
C1712 H1736 0.950 . S
C1713 C1730 1.574 . S
C1713 C1732 1.368 . S
C1713 H1737 0.949 . S
H1714 C1718 0.949 . S
C1715 C1716 1.349 . S
C1715 C1717 1.327 . S
C1715 H1738 0.950 . S
C1716 C1715 1.349 . S
C1716 C1728 1.349 . S
C1717 C1715 1.327 . S
C1717 C1733 1.429 . S
C1717 H1739 0.950 . S
C1718 H1714 0.949 . S
C1718 C1726 1.574 . S
C1718 C1734 1.368 . S
H1719 C1727 0.950 . S
H1720 C1725 0.950 . S
H1721 C1726 0.949 . S
H1722 C1728 0.950 . S
H1723 C1729 0.950 . S
H1724 C1730 0.949 . S
C1725 H1720 0.950 . S
C1725 C1727 1.327 . S
C1725 C1731 1.429 . S
C1726 C1718 1.574 . S
C1726 H1721 0.949 . S
C1726 C1732 1.368 . S
C1727 C1711 1.349 . S
C1727 H1719 0.950 . S
C1727 C1725 1.327 . S
C1728 C1716 1.349 . S
C1728 H1722 0.950 . S
C1728 C1729 1.327 . S
C1729 H1723 0.950 . S
C1729 C1728 1.327 . S
C1729 C1733 1.429 . S
C1730 C1713 1.574 . S
C1730 H1724 0.949 . S
C1730 C1734 1.368 . S
C1731 C1712 1.429 . S
C1731 C1725 1.429 . S
C1731 C1732 1.523 . S
C1732 C1713 1.368 . S
C1732 C1726 1.368 . S
C1732 C1731 1.523 . S
C1733 C1717 1.429 . S
C1733 C1729 1.429 . S
C1733 C1734 1.523 . S
C1734 C1718 1.368 . S
C1734 C1730 1.368 . S
C1734 C1733 1.523 . S
H1735 C1710 0.950 . S
H1736 C1712 0.950 . S
H1737 C1713 0.949 . S
H1738 C1715 0.950 . S
H1739 C1717 0.950 . S
C1740 C1741 1.349 . S
C1740 C1742 1.327 . S
C1740 H1765 0.950 . S
C1741 C1740 1.349 . S
C1741 C1757 1.349 . S
C1742 C1740 1.327 . S
C1742 C1761 1.429 . S
C1742 H1766 0.950 . S
C1743 C1760 1.574 . S
C1743 C1762 1.368 . S
C1743 H1767 0.949 . S
H1744 C1748 0.949 . S
C1745 C1746 1.349 . S
C1745 C1747 1.327 . S
C1745 H1768 0.950 . S
C1746 C1745 1.349 . S
C1746 C1758 1.349 . S
C1747 C1745 1.327 . S
C1747 C1763 1.429 . S
C1747 H1769 0.950 . S
C1748 H1744 0.949 . S
C1748 C1756 1.574 . S
C1748 C1764 1.368 . S
H1749 C1757 0.950 . S
H1750 C1755 0.950 . S
H1751 C1756 0.949 . S
H1752 C1758 0.950 . S
H1753 C1759 0.950 . S
H1754 C1760 0.949 . S
C1755 H1750 0.950 . S
C1755 C1757 1.327 . S
C1755 C1761 1.429 . S
C1756 C1748 1.574 . S
C1756 H1751 0.949 . S
C1756 C1762 1.368 . S
C1757 C1741 1.349 . S
C1757 H1749 0.950 . S
C1757 C1755 1.327 . S
C1758 C1746 1.349 . S
C1758 H1752 0.950 . S
C1758 C1759 1.327 . S
C1759 H1753 0.950 . S
C1759 C1758 1.327 . S
C1759 C1763 1.429 . S
C1760 C1743 1.574 . S
C1760 H1754 0.949 . S
C1760 C1764 1.368 . S
C1761 C1742 1.429 . S
C1761 C1755 1.429 . S
C1761 C1762 1.523 . S
C1762 C1743 1.368 . S
C1762 C1756 1.368 . S
C1762 C1761 1.523 . S
C1763 C1747 1.429 . S
C1763 C1759 1.429 . S
C1763 C1764 1.523 . S
C1764 C1748 1.368 . S
C1764 C1760 1.368 . S
C1764 C1763 1.523 . S
H1765 C1740 0.950 . S
H1766 C1742 0.950 . S
H1767 C1743 0.949 . S
H1768 C1745 0.950 . S
H1769 C1747 0.950 . S
C1770 C1771 1.349 . S
C1770 C1772 1.327 . S
C1770 H1795 0.950 . S
C1771 C1770 1.349 . S
C1771 C1787 1.349 . S
C1772 C1770 1.327 . S
C1772 C1791 1.429 . S
C1772 H1796 0.950 . S
C1773 C1790 1.574 . S
C1773 C1792 1.368 . S
C1773 H1797 0.949 . S
H1774 C1778 0.949 . S
C1775 C1776 1.349 . S
C1775 C1777 1.327 . S
C1775 H1798 0.950 . S
C1776 C1775 1.349 . S
C1776 C1788 1.349 . S
C1777 C1775 1.327 . S
C1777 C1793 1.429 . S
C1777 H1799 0.950 . S
C1778 H1774 0.949 . S
C1778 C1786 1.574 . S
C1778 C1794 1.368 . S
H1779 C1787 0.950 . S
H1780 C1785 0.950 . S
H1781 C1786 0.949 . S
H1782 C1788 0.950 . S
H1783 C1789 0.950 . S
H1784 C1790 0.949 . S
C1785 H1780 0.950 . S
C1785 C1787 1.327 . S
C1785 C1791 1.429 . S
C1786 C1778 1.574 . S
C1786 H1781 0.949 . S
C1786 C1792 1.368 . S
C1787 C1771 1.349 . S
C1787 H1779 0.950 . S
C1787 C1785 1.327 . S
C1788 C1776 1.349 . S
C1788 H1782 0.950 . S
C1788 C1789 1.327 . S
C1789 H1783 0.950 . S
C1789 C1788 1.327 . S
C1789 C1793 1.429 . S
C1790 C1773 1.574 . S
C1790 H1784 0.949 . S
C1790 C1794 1.368 . S
C1791 C1772 1.429 . S
C1791 C1785 1.429 . S
C1791 C1792 1.523 . S
C1792 C1773 1.368 . S
C1792 C1786 1.368 . S
C1792 C1791 1.523 . S
C1793 C1777 1.429 . S
C1793 C1789 1.429 . S
C1793 C1794 1.523 . S
C1794 C1778 1.368 . S
C1794 C1790 1.368 . S
C1794 C1793 1.523 . S
H1795 C1770 0.950 . S
H1796 C1772 0.950 . S
H1797 C1773 0.949 . S
H1798 C1775 0.950 . S
H1799 C1777 0.950 . S
C1800 C1801 1.349 . S
C1800 C1802 1.327 . S
C1800 H1825 0.950 . S
C1801 C1800 1.349 . S
C1801 C1817 1.349 . S
C1802 C1800 1.327 . S
C1802 C1821 1.429 . S
C1802 H1826 0.950 . S
C1803 C1820 1.574 . S
C1803 C1822 1.368 . S
C1803 H1827 0.949 . S
H1804 C1808 0.949 . S
C1805 C1806 1.349 . S
C1805 C1807 1.327 . S
C1805 H1828 0.950 . S
C1806 C1805 1.349 . S
C1806 C1818 1.349 . S
C1807 C1805 1.327 . S
C1807 C1823 1.429 . S
C1807 H1829 0.950 . S
C1808 H1804 0.949 . S
C1808 C1816 1.574 . S
C1808 C1824 1.368 . S
H1809 C1817 0.950 . S
H1810 C1815 0.950 . S
H1811 C1816 0.949 . S
H1812 C1818 0.950 . S
H1813 C1819 0.950 . S
H1814 C1820 0.949 . S
C1815 H1810 0.950 . S
C1815 C1817 1.327 . S
C1815 C1821 1.429 . S
C1816 C1808 1.574 . S
C1816 H1811 0.949 . S
C1816 C1822 1.368 . S
C1817 C1801 1.349 . S
C1817 H1809 0.950 . S
C1817 C1815 1.327 . S
C1818 C1806 1.349 . S
C1818 H1812 0.950 . S
C1818 C1819 1.327 . S
C1819 H1813 0.950 . S
C1819 C1818 1.327 . S
C1819 C1823 1.429 . S
C1820 C1803 1.574 . S
C1820 H1814 0.949 . S
C1820 C1824 1.368 . S
C1821 C1802 1.429 . S
C1821 C1815 1.429 . S
C1821 C1822 1.523 . S
C1822 C1803 1.368 . S
C1822 C1816 1.368 . S
C1822 C1821 1.523 . S
C1823 C1807 1.429 . S
C1823 C1819 1.429 . S
C1823 C1824 1.523 . S
C1824 C1808 1.368 . S
C1824 C1820 1.368 . S
C1824 C1823 1.523 . S
H1825 C1800 0.950 . S
H1826 C1802 0.950 . S
H1827 C1803 0.949 . S
H1828 C1805 0.950 . S
H1829 C1807 0.950 . S
C1830 C1831 1.349 . S
C1830 C1832 1.327 . S
C1830 H1855 0.950 . S
C1831 C1830 1.349 . S
C1831 C1847 1.349 . S
C1832 C1830 1.327 . S
C1832 C1851 1.429 . S
C1832 H1856 0.950 . S
C1833 C1850 1.574 . S
C1833 C1852 1.368 . S
C1833 H1857 0.949 . S
H1834 C1838 0.949 . S
C1835 C1836 1.349 . S
C1835 C1837 1.327 . S
C1835 H1858 0.950 . S
C1836 C1835 1.349 . S
C1836 C1848 1.349 . S
C1837 C1835 1.327 . S
C1837 C1853 1.429 . S
C1837 H1859 0.950 . S
C1838 H1834 0.949 . S
C1838 C1846 1.574 . S
C1838 C1854 1.368 . S
H1839 C1847 0.950 . S
H1840 C1845 0.950 . S
H1841 C1846 0.949 . S
H1842 C1848 0.950 . S
H1843 C1849 0.950 . S
H1844 C1850 0.949 . S
C1845 H1840 0.950 . S
C1845 C1847 1.327 . S
C1845 C1851 1.429 . S
C1846 C1838 1.574 . S
C1846 H1841 0.949 . S
C1846 C1852 1.368 . S
C1847 C1831 1.349 . S
C1847 H1839 0.950 . S
C1847 C1845 1.327 . S
C1848 C1836 1.349 . S
C1848 H1842 0.950 . S
C1848 C1849 1.327 . S
C1849 H1843 0.950 . S
C1849 C1848 1.327 . S
C1849 C1853 1.429 . S
C1850 C1833 1.574 . S
C1850 H1844 0.949 . S
C1850 C1854 1.368 . S
C1851 C1832 1.429 . S
C1851 C1845 1.429 . S
C1851 C1852 1.523 . S
C1852 C1833 1.368 . S
C1852 C1846 1.368 . S
C1852 C1851 1.523 . S
C1853 C1837 1.429 . S
C1853 C1849 1.429 . S
C1853 C1854 1.523 . S
C1854 C1838 1.368 . S
C1854 C1850 1.368 . S
C1854 C1853 1.523 . S
H1855 C1830 0.950 . S
H1856 C1832 0.950 . S
H1857 C1833 0.949 . S
H1858 C1835 0.950 . S
H1859 C1837 0.950 . S
C1860 C1861 1.349 . S
C1860 C1862 1.327 . S
C1860 H1885 0.950 . S
C1861 C1860 1.349 . S
C1861 C1877 1.349 . S
C1862 C1860 1.327 . S
C1862 C1881 1.429 . S
C1862 H1886 0.950 . S
C1863 C1880 1.574 . S
C1863 C1882 1.368 . S
C1863 H1887 0.949 . S
H1864 C1868 0.949 . S
C1865 C1866 1.349 . S
C1865 C1867 1.327 . S
C1865 H1888 0.950 . S
C1866 C1865 1.349 . S
C1866 C1878 1.349 . S
C1867 C1865 1.327 . S
C1867 C1883 1.429 . S
C1867 H1889 0.950 . S
C1868 H1864 0.949 . S
C1868 C1876 1.574 . S
C1868 C1884 1.368 . S
H1869 C1877 0.950 . S
H1870 C1875 0.950 . S
H1871 C1876 0.949 . S
H1872 C1878 0.950 . S
H1873 C1879 0.950 . S
H1874 C1880 0.949 . S
C1875 H1870 0.950 . S
C1875 C1877 1.327 . S
C1875 C1881 1.429 . S
C1876 C1868 1.574 . S
C1876 H1871 0.949 . S
C1876 C1882 1.368 . S
C1877 C1861 1.349 . S
C1877 H1869 0.950 . S
C1877 C1875 1.327 . S
C1878 C1866 1.349 . S
C1878 H1872 0.950 . S
C1878 C1879 1.327 . S
C1879 H1873 0.950 . S
C1879 C1878 1.327 . S
C1879 C1883 1.429 . S
C1880 C1863 1.574 . S
C1880 H1874 0.949 . S
C1880 C1884 1.368 . S
C1881 C1862 1.429 . S
C1881 C1875 1.429 . S
C1881 C1882 1.523 . S
C1882 C1863 1.368 . S
C1882 C1876 1.368 . S
C1882 C1881 1.523 . S
C1883 C1867 1.429 . S
C1883 C1879 1.429 . S
C1883 C1884 1.523 . S
C1884 C1868 1.368 . S
C1884 C1880 1.368 . S
C1884 C1883 1.523 . S
H1885 C1860 0.950 . S
H1886 C1862 0.950 . S
H1887 C1863 0.949 . S
H1888 C1865 0.950 . S
H1889 C1867 0.950 . S
C1890 C1891 1.349 . S
C1890 C1892 1.327 . S
C1890 H1915 0.950 . S
C1891 C1890 1.349 . S
C1891 C1907 1.349 . S
C1892 C1890 1.327 . S
C1892 C1911 1.429 . S
C1892 H1916 0.950 . S
C1893 C1910 1.574 . S
C1893 C1912 1.368 . S
C1893 H1917 0.949 . S
H1894 C1898 0.949 . S
C1895 C1896 1.349 . S
C1895 C1897 1.327 . S
C1895 H1918 0.950 . S
C1896 C1895 1.349 . S
C1896 C1908 1.349 . S
C1897 C1895 1.327 . S
C1897 C1913 1.429 . S
C1897 H1919 0.950 . S
C1898 H1894 0.949 . S
C1898 C1906 1.574 . S
C1898 C1914 1.368 . S
H1899 C1907 0.950 . S
H1900 C1905 0.950 . S
H1901 C1906 0.949 . S
H1902 C1908 0.950 . S
H1903 C1909 0.950 . S
H1904 C1910 0.949 . S
C1905 H1900 0.950 . S
C1905 C1907 1.327 . S
C1905 C1911 1.429 . S
C1906 C1898 1.574 . S
C1906 H1901 0.949 . S
C1906 C1912 1.368 . S
C1907 C1891 1.349 . S
C1907 H1899 0.950 . S
C1907 C1905 1.327 . S
C1908 C1896 1.349 . S
C1908 H1902 0.950 . S
C1908 C1909 1.327 . S
C1909 H1903 0.950 . S
C1909 C1908 1.327 . S
C1909 C1913 1.429 . S
C1910 C1893 1.574 . S
C1910 H1904 0.949 . S
C1910 C1914 1.368 . S
C1911 C1892 1.429 . S
C1911 C1905 1.429 . S
C1911 C1912 1.523 1_545 S
C1912 C1893 1.368 . S
C1912 C1906 1.368 . S
C1912 C1911 1.523 1_565 S
C1913 C1897 1.429 . S
C1913 C1909 1.429 . S
C1913 C1914 1.523 . S
C1914 C1898 1.368 . S
C1914 C1910 1.368 . S
C1914 C1913 1.523 . S
H1915 C1890 0.950 . S
H1916 C1892 0.950 . S
H1917 C1893 0.949 . S
H1918 C1895 0.950 . S
H1919 C1897 0.950 . S
C1920 C1921 1.349 . S
C1920 C1922 1.327 . S
C1920 H1945 0.950 . S
C1921 C1920 1.349 . S
C1921 C1937 1.349 . S
C1922 C1920 1.327 . S
C1922 C1941 1.429 . S
C1922 H1946 0.950 1_655 S
C1923 C1940 1.574 . S
C1923 C1942 1.368 . S
C1923 H1947 0.949 . S
H1924 C1928 0.949 . S
C1925 C1926 1.349 . S
C1925 C1927 1.327 . S
C1925 H1948 0.950 . S
C1926 C1925 1.349 . S
C1926 C1938 1.349 . S
C1927 C1925 1.327 . S
C1927 C1943 1.429 . S
C1927 H1949 0.950 . S
C1928 H1924 0.949 . S
C1928 C1936 1.574 . S
C1928 C1944 1.368 . S
H1929 C1937 0.950 . S
H1930 C1935 0.950 . S
H1931 C1936 0.949 . S
H1932 C1938 0.950 . S
H1933 C1939 0.950 . S
H1934 C1940 0.949 . S
C1935 H1930 0.950 . S
C1935 C1937 1.327 . S
C1935 C1941 1.429 . S
C1936 C1928 1.574 . S
C1936 H1931 0.949 . S
C1936 C1942 1.368 . S
C1937 C1921 1.349 . S
C1937 H1929 0.950 . S
C1937 C1935 1.327 . S
C1938 C1926 1.349 . S
C1938 H1932 0.950 . S
C1938 C1939 1.327 . S
C1939 H1933 0.950 . S
C1939 C1938 1.327 . S
C1939 C1943 1.429 . S
C1940 C1923 1.574 . S
C1940 H1934 0.949 . S
C1940 C1944 1.368 . S
C1941 C1922 1.429 . S
C1941 C1935 1.429 . S
C1941 C1942 1.523 1_655 S
C1942 C1923 1.368 . S
C1942 C1936 1.368 . S
C1942 C1941 1.523 1_455 S
C1943 C1927 1.429 . S
C1943 C1939 1.429 . S
C1943 C1944 1.523 . S
C1944 C1928 1.368 . S
C1944 C1940 1.368 . S
C1944 C1943 1.523 . S
H1945 C1920 0.950 . S
H1946 C1922 0.950 1_455 S
H1947 C1923 0.949 . S
H1948 C1925 0.950 . S
H1949 C1927 0.950 . S
C1950 C1951 1.349 . S
C1950 C1952 1.327 . S
C1950 H1975 0.950 . S
C1951 C1950 1.349 . S
C1951 C1967 1.349 . S
C1952 C1950 1.327 . S
C1952 C1971 1.429 . S
C1952 H1976 0.950 . S
C1953 C1970 1.574 . S
C1953 C1972 1.368 . S
C1953 H1977 0.949 . S
H1954 C1958 0.949 . S
C1955 C1956 1.349 . S
C1955 C1957 1.327 . S
C1955 H1978 0.950 . S
C1956 C1955 1.349 . S
C1956 C1968 1.349 . S
C1957 C1955 1.327 . S
C1957 C1973 1.429 . S
C1957 H1979 0.950 . S
C1958 H1954 0.949 . S
C1958 C1966 1.574 . S
C1958 C1974 1.368 . S
H1959 C1967 0.950 . S
H1960 C1965 0.950 . S
H1961 C1966 0.949 . S
H1962 C1968 0.950 . S
H1963 C1969 0.950 . S
H1964 C1970 0.949 . S
C1965 H1960 0.950 . S
C1965 C1967 1.327 . S
C1965 C1971 1.429 . S
C1966 C1958 1.574 . S
C1966 H1961 0.949 . S
C1966 C1972 1.368 . S
C1967 C1951 1.349 . S
C1967 H1959 0.950 . S
C1967 C1965 1.327 . S
C1968 C1956 1.349 . S
C1968 H1962 0.950 . S
C1968 C1969 1.327 . S
C1969 H1963 0.950 . S
C1969 C1968 1.327 . S
C1969 C1973 1.429 . S
C1970 C1953 1.574 . S
C1970 H1964 0.949 . S
C1970 C1974 1.368 . S
C1971 C1952 1.429 . S
C1971 C1965 1.429 . S
C1971 C1972 1.523 . S
C1972 C1953 1.368 . S
C1972 C1966 1.368 . S
C1972 C1971 1.523 . S
C1973 C1957 1.429 . S
C1973 C1969 1.429 . S
C1973 C1974 1.523 . S
C1974 C1958 1.368 . S
C1974 C1970 1.368 . S
C1974 C1973 1.523 . S
H1975 C1950 0.950 . S
H1976 C1952 0.950 . S
H1977 C1953 0.949 . S
H1978 C1955 0.950 . S
H1979 C1957 0.950 . S
C1980 C1981 1.349 . S
C1980 C1982 1.327 . S
C1980 H2005 0.950 . S
C1981 C1980 1.349 . S
C1981 C1997 1.349 . S
C1982 C1980 1.327 . S
C1982 C2001 1.429 . S
C1982 H2006 0.950 . S
C1983 C2000 1.574 . S
C1983 C2002 1.368 . S
C1983 H2007 0.949 . S
H1984 C1988 0.949 . S
C1985 C1986 1.349 . S
C1985 C1987 1.327 . S
C1985 H2008 0.950 . S
C1986 C1985 1.349 . S
C1986 C1998 1.349 . S
C1987 C1985 1.327 . S
C1987 C2003 1.429 . S
C1987 H2009 0.950 . S
C1988 H1984 0.949 . S
C1988 C1996 1.574 . S
C1988 C2004 1.368 . S
H1989 C1997 0.950 . S
H1990 C1995 0.950 . S
H1991 C1996 0.949 . S
H1992 C1998 0.950 . S
H1993 C1999 0.950 . S
H1994 C2000 0.949 . S
C1995 H1990 0.950 . S
C1995 C1997 1.327 . S
C1995 C2001 1.429 . S
C1996 C1988 1.574 . S
C1996 H1991 0.949 . S
C1996 C2002 1.368 . S
C1997 C1981 1.349 . S
C1997 H1989 0.950 . S
C1997 C1995 1.327 . S
C1998 C1986 1.349 . S
C1998 H1992 0.950 . S
C1998 C1999 1.327 . S
C1999 H1993 0.950 . S
C1999 C1998 1.327 . S
C1999 C2003 1.429 . S
C2000 C1983 1.574 . S
C2000 H1994 0.949 . S
C2000 C2004 1.368 . S
C2001 C1982 1.429 . S
C2001 C1995 1.429 . S
C2001 C2002 1.523 . S
C2002 C1983 1.368 . S
C2002 C1996 1.368 . S
C2002 C2001 1.523 . S
C2003 C1987 1.429 . S
C2003 C1999 1.429 . S
C2003 C2004 1.523 . S
C2004 C1988 1.368 . S
C2004 C2000 1.368 . S
C2004 C2003 1.523 . S
H2005 C1980 0.950 . S
H2006 C1982 0.950 . S
H2007 C1983 0.949 . S
H2008 C1985 0.950 . S
H2009 C1987 0.950 . S
C2010 C2011 1.349 . S
C2010 C2012 1.327 . S
C2010 H2035 0.950 . S
C2011 C2010 1.349 . S
C2011 C2027 1.349 . S
C2012 C2010 1.327 . S
C2012 C2031 1.429 . S
C2012 H2036 0.950 . S
C2013 C2030 1.574 . S
C2013 C2032 1.368 . S
C2013 H2037 0.949 . S
H2014 C2018 0.949 . S
C2015 C2016 1.349 . S
C2015 C2017 1.327 . S
C2015 H2038 0.950 . S
C2016 C2015 1.349 . S
C2016 C2028 1.349 . S
C2017 C2015 1.327 . S
C2017 C2033 1.429 . S
C2017 H2039 0.950 . S
C2018 H2014 0.949 . S
C2018 C2026 1.574 . S
C2018 C2034 1.368 . S
H2019 C2027 0.950 . S
H2020 C2025 0.950 . S
H2021 C2026 0.949 . S
H2022 C2028 0.950 . S
H2023 C2029 0.950 . S
H2024 C2030 0.949 . S
C2025 H2020 0.950 . S
C2025 C2027 1.327 . S
C2025 C2031 1.429 . S
C2026 C2018 1.574 . S
C2026 H2021 0.949 . S
C2026 C2032 1.368 . S
C2027 C2011 1.349 . S
C2027 H2019 0.950 . S
C2027 C2025 1.327 . S
C2028 C2016 1.349 . S
C2028 H2022 0.950 . S
C2028 C2029 1.327 . S
C2029 H2023 0.950 . S
C2029 C2028 1.327 . S
C2029 C2033 1.429 . S
C2030 C2013 1.574 . S
C2030 H2024 0.949 . S
C2030 C2034 1.368 . S
C2031 C2012 1.429 . S
C2031 C2025 1.429 . S
C2031 C2032 1.523 . S
C2032 C2013 1.368 . S
C2032 C2026 1.368 . S
C2032 C2031 1.523 . S
C2033 C2017 1.429 . S
C2033 C2029 1.429 . S
C2033 C2034 1.523 . S
C2034 C2018 1.368 . S
C2034 C2030 1.368 . S
C2034 C2033 1.523 . S
H2035 C2010 0.950 . S
H2036 C2012 0.950 . S
H2037 C2013 0.949 . S
H2038 C2015 0.950 . S
H2039 C2017 0.950 . S
C2040 C2041 1.349 . S
C2040 C2042 1.327 . S
C2040 H2065 0.950 . S
C2041 C2040 1.349 . S
C2041 C2057 1.349 . S
C2042 C2040 1.327 . S
C2042 C2061 1.429 . S
C2042 H2066 0.950 . S
C2043 C2060 1.574 . S
C2043 C2062 1.368 . S
C2043 H2067 0.949 . S
H2044 C2048 0.949 . S
C2045 C2046 1.349 . S
C2045 C2047 1.327 . S
C2045 H2068 0.950 . S
C2046 C2045 1.349 . S
C2046 C2058 1.349 . S
C2047 C2045 1.327 . S
C2047 C2063 1.429 . S
C2047 H2069 0.950 . S
C2048 H2044 0.949 . S
C2048 C2056 1.574 . S
C2048 C2064 1.368 . S
H2049 C2057 0.950 . S
H2050 C2055 0.950 . S
H2051 C2056 0.949 . S
H2052 C2058 0.950 . S
H2053 C2059 0.950 . S
H2054 C2060 0.949 . S
C2055 H2050 0.950 . S
C2055 C2057 1.327 . S
C2055 C2061 1.429 . S
C2056 C2048 1.574 . S
C2056 H2051 0.949 . S
C2056 C2062 1.368 . S
C2057 C2041 1.349 . S
C2057 H2049 0.950 . S
C2057 C2055 1.327 . S
C2058 C2046 1.349 . S
C2058 H2052 0.950 . S
C2058 C2059 1.327 . S
C2059 H2053 0.950 . S
C2059 C2058 1.327 . S
C2059 C2063 1.429 . S
C2060 C2043 1.574 . S
C2060 H2054 0.949 . S
C2060 C2064 1.368 . S
C2061 C2042 1.429 . S
C2061 C2055 1.429 . S
C2061 C2062 1.523 . S
C2062 C2043 1.368 . S
C2062 C2056 1.368 . S
C2062 C2061 1.523 . S
C2063 C2047 1.429 . S
C2063 C2059 1.429 . S
C2063 C2064 1.523 . S
C2064 C2048 1.368 . S
C2064 C2060 1.368 . S
C2064 C2063 1.523 . S
H2065 C2040 0.950 . S
H2066 C2042 0.950 . S
H2067 C2043 0.949 . S
H2068 C2045 0.950 . S
H2069 C2047 0.950 . S
C2070 C2071 1.349 . S
C2070 C2072 1.327 . S
C2070 H2095 0.950 . S
C2071 C2070 1.349 . S
C2071 C2087 1.349 . S
C2072 C2070 1.327 . S
C2072 C2091 1.429 . S
C2072 H2096 0.950 . S
C2073 C2090 1.574 . S
C2073 C2092 1.368 . S
C2073 H2097 0.949 . S
H2074 C2078 0.949 . S
C2075 C2076 1.349 . S
C2075 C2077 1.327 . S
C2075 H2098 0.950 . S
C2076 C2075 1.349 . S
C2076 C2088 1.349 . S
C2077 C2075 1.327 . S
C2077 C2093 1.429 . S
C2077 H2099 0.950 . S
C2078 H2074 0.949 . S
C2078 C2086 1.574 . S
C2078 C2094 1.368 . S
H2079 C2087 0.950 . S
H2080 C2085 0.950 . S
H2081 C2086 0.949 . S
H2082 C2088 0.950 . S
H2083 C2089 0.950 . S
H2084 C2090 0.949 . S
C2085 H2080 0.950 . S
C2085 C2087 1.327 . S
C2085 C2091 1.429 . S
C2086 C2078 1.574 . S
C2086 H2081 0.949 . S
C2086 C2092 1.368 . S
C2087 C2071 1.349 . S
C2087 H2079 0.950 . S
C2087 C2085 1.327 . S
C2088 C2076 1.349 . S
C2088 H2082 0.950 . S
C2088 C2089 1.327 . S
C2089 H2083 0.950 . S
C2089 C2088 1.327 . S
C2089 C2093 1.429 . S
C2090 C2073 1.574 . S
C2090 H2084 0.949 . S
C2090 C2094 1.368 . S
C2091 C2072 1.429 . S
C2091 C2085 1.429 . S
C2091 C2092 1.523 1_565 S
C2092 C2073 1.368 . S
C2092 C2086 1.368 . S
C2092 C2091 1.523 1_545 S
C2093 C2077 1.429 . S
C2093 C2089 1.429 . S
C2093 C2094 1.523 . S
C2094 C2078 1.368 . S
C2094 C2090 1.368 . S
C2094 C2093 1.523 . S
H2095 C2070 0.950 . S
H2096 C2072 0.950 . S
H2097 C2073 0.949 . S
H2098 C2075 0.950 . S
H2099 C2077 0.950 . S
C2100 C2101 1.349 . S
C2100 C2102 1.327 . S
C2100 H2125 0.950 . S
C2101 C2100 1.349 . S
C2101 C2117 1.349 . S
C2102 C2100 1.327 . S
C2102 C2121 1.429 . S
C2102 H2126 0.950 1_455 S
C2103 C2120 1.574 . S
C2103 C2122 1.368 . S
C2103 H2127 0.949 . S
H2104 C2108 0.949 . S
C2105 C2106 1.349 . S
C2105 C2107 1.327 . S
C2105 H2128 0.950 . S
C2106 C2105 1.349 . S
C2106 C2118 1.349 . S
C2107 C2105 1.327 . S
C2107 C2123 1.429 . S
C2107 H2129 0.950 . S
C2108 H2104 0.949 . S
C2108 C2116 1.574 . S
C2108 C2124 1.368 . S
H2109 C2117 0.950 . S
H2110 C2115 0.950 . S
H2111 C2116 0.949 . S
H2112 C2118 0.950 . S
H2113 C2119 0.950 . S
H2114 C2120 0.949 . S
C2115 H2110 0.950 . S
C2115 C2117 1.327 . S
C2115 C2121 1.429 . S
C2116 C2108 1.574 . S
C2116 H2111 0.949 . S
C2116 C2122 1.368 . S
C2117 C2101 1.349 . S
C2117 H2109 0.950 . S
C2117 C2115 1.327 . S
C2118 C2106 1.349 . S
C2118 H2112 0.950 . S
C2118 C2119 1.327 . S
C2119 H2113 0.950 . S
C2119 C2118 1.327 . S
C2119 C2123 1.429 . S
C2120 C2103 1.574 . S
C2120 H2114 0.949 . S
C2120 C2124 1.368 . S
C2121 C2102 1.429 . S
C2121 C2115 1.429 . S
C2121 C2122 1.523 1_455 S
C2122 C2103 1.368 . S
C2122 C2116 1.368 . S
C2122 C2121 1.523 1_655 S
C2123 C2107 1.429 . S
C2123 C2119 1.429 . S
C2123 C2124 1.523 . S
C2124 C2108 1.368 . S
C2124 C2120 1.368 . S
C2124 C2123 1.523 . S
H2125 C2100 0.950 . S
H2126 C2102 0.950 1_655 S
H2127 C2103 0.949 . S
H2128 C2105 0.950 . S
H2129 C2107 0.950 . S
C2130 C2131 1.349 . S
C2130 C2132 1.327 . S
C2130 H2155 0.950 . S
C2131 C2130 1.349 . S
C2131 C2147 1.349 . S
C2132 C2130 1.327 . S
C2132 C2151 1.429 . S
C2132 H2156 0.950 . S
C2133 C2150 1.574 . S
C2133 C2152 1.368 . S
C2133 H2157 0.949 . S
H2134 C2138 0.949 . S
C2135 C2136 1.349 . S
C2135 C2137 1.327 . S
C2135 H2158 0.950 . S
C2136 C2135 1.349 . S
C2136 C2148 1.349 . S
C2137 C2135 1.327 . S
C2137 C2153 1.429 . S
C2137 H2159 0.950 . S
C2138 H2134 0.949 . S
C2138 C2146 1.574 . S
C2138 C2154 1.368 . S
H2139 C2147 0.950 . S
H2140 C2145 0.950 . S
H2141 C2146 0.949 . S
H2142 C2148 0.950 . S
H2143 C2149 0.950 . S
H2144 C2150 0.949 . S
C2145 H2140 0.950 . S
C2145 C2147 1.327 . S
C2145 C2151 1.429 . S
C2146 C2138 1.574 . S
C2146 H2141 0.949 . S
C2146 C2152 1.368 . S
C2147 C2131 1.349 . S
C2147 H2139 0.950 . S
C2147 C2145 1.327 . S
C2148 C2136 1.349 . S
C2148 H2142 0.950 . S
C2148 C2149 1.327 . S
C2149 H2143 0.950 . S
C2149 C2148 1.327 . S
C2149 C2153 1.429 . S
C2150 C2133 1.574 . S
C2150 H2144 0.949 . S
C2150 C2154 1.368 . S
C2151 C2132 1.429 . S
C2151 C2145 1.429 . S
C2151 C2152 1.523 . S
C2152 C2133 1.368 . S
C2152 C2146 1.368 . S
C2152 C2151 1.523 . S
C2153 C2137 1.429 . S
C2153 C2149 1.429 . S
C2153 C2154 1.523 . S
C2154 C2138 1.368 . S
C2154 C2150 1.368 . S
C2154 C2153 1.523 . S
H2155 C2130 0.950 . S
H2156 C2132 0.950 . S
H2157 C2133 0.949 . S
H2158 C2135 0.950 . S
H2159 C2137 0.950 . S
C2160 C2161 1.349 . S
C2160 C2162 1.327 . S
C2160 H2185 0.950 . S
C2161 C2160 1.349 . S
C2161 C2177 1.349 . S
C2162 C2160 1.327 . S
C2162 C2181 1.429 . S
C2162 H2186 0.950 . S
C2163 C2180 1.574 . S
C2163 C2182 1.368 . S
C2163 H2187 0.949 . S
H2164 C2168 0.949 . S
C2165 C2166 1.349 . S
C2165 C2167 1.327 . S
C2165 H2188 0.950 . S
C2166 C2165 1.349 . S
C2166 C2178 1.349 . S
C2167 C2165 1.327 . S
C2167 C2183 1.429 . S
C2167 H2189 0.950 . S
C2168 H2164 0.949 . S
C2168 C2176 1.574 . S
C2168 C2184 1.368 . S
H2169 C2177 0.950 . S
H2170 C2175 0.950 . S
H2171 C2176 0.949 1_455 S
H2172 C2178 0.950 . S
H2173 C2179 0.950 . S
H2174 C2180 0.949 . S
C2175 H2170 0.950 . S
C2175 C2177 1.327 . S
C2175 C2181 1.429 . S
C2176 C2168 1.574 . S
C2176 H2171 0.949 1_655 S
C2176 C2182 1.368 . S
C2177 C2161 1.349 . S
C2177 H2169 0.950 . S
C2177 C2175 1.327 . S
C2178 C2166 1.349 . S
C2178 H2172 0.950 . S
C2178 C2179 1.327 . S
C2179 H2173 0.950 . S
C2179 C2178 1.327 . S
C2179 C2183 1.429 . S
C2180 C2163 1.574 . S
C2180 H2174 0.949 . S
C2180 C2184 1.368 . S
C2181 C2162 1.429 . S
C2181 C2175 1.429 . S
C2181 C2182 1.523 1_455 S
C2182 C2163 1.368 . S
C2182 C2176 1.368 . S
C2182 C2181 1.523 1_655 S
C2183 C2167 1.429 . S
C2183 C2179 1.429 . S
C2183 C2184 1.523 . S
C2184 C2168 1.368 . S
C2184 C2180 1.368 . S
C2184 C2183 1.523 . S
H2185 C2160 0.950 . S
H2186 C2162 0.950 . S
H2187 C2163 0.949 . S
H2188 C2165 0.950 . S
H2189 C2167 0.950 . S
C2190 C2191 1.349 . S
C2190 C2192 1.327 . S
C2190 H2215 0.950 . S
C2191 C2190 1.349 . S
C2191 C2207 1.349 . S
C2192 C2190 1.327 . S
C2192 C2211 1.429 . S
C2192 H2216 0.950 . S
C2193 C2210 1.574 . S
C2193 C2212 1.368 . S
C2193 H2217 0.949 . S
H2194 C2198 0.949 . S
C2195 C2196 1.349 . S
C2195 C2197 1.327 . S
C2195 H2218 0.950 . S
C2196 C2195 1.349 . S
C2196 C2208 1.349 . S
C2197 C2195 1.327 . S
C2197 C2213 1.429 . S
C2197 H2219 0.950 . S
C2198 H2194 0.949 . S
C2198 C2206 1.574 . S
C2198 C2214 1.368 . S
H2199 C2207 0.950 . S
H2200 C2205 0.950 . S
H2201 C2206 0.949 . S
H2202 C2208 0.950 . S
H2203 C2209 0.950 . S
H2204 C2210 0.949 . S
C2205 H2200 0.950 . S
C2205 C2207 1.327 . S
C2205 C2211 1.429 . S
C2206 C2198 1.574 . S
C2206 H2201 0.949 . S
C2206 C2212 1.368 . S
C2207 C2191 1.349 . S
C2207 H2199 0.950 . S
C2207 C2205 1.327 . S
C2208 C2196 1.349 . S
C2208 H2202 0.950 . S
C2208 C2209 1.327 . S
C2209 H2203 0.950 . S
C2209 C2208 1.327 . S
C2209 C2213 1.429 . S
C2210 C2193 1.574 . S
C2210 H2204 0.949 . S
C2210 C2214 1.368 . S
C2211 C2192 1.429 . S
C2211 C2205 1.429 . S
C2211 C2212 1.523 . S
C2212 C2193 1.368 . S
C2212 C2206 1.368 . S
C2212 C2211 1.523 . S
C2213 C2197 1.429 . S
C2213 C2209 1.429 . S
C2213 C2214 1.523 . S
C2214 C2198 1.368 . S
C2214 C2210 1.368 . S
C2214 C2213 1.523 . S
H2215 C2190 0.950 . S
H2216 C2192 0.950 . S
H2217 C2193 0.949 . S
H2218 C2195 0.950 . S
H2219 C2197 0.950 . S
C2220 C2221 1.349 . S
C2220 C2222 1.327 . S
C2220 H2245 0.950 . S
C2221 C2220 1.349 . S
C2221 C2237 1.349 . S
C2222 C2220 1.327 . S
C2222 C2241 1.429 . S
C2222 H2246 0.950 . S
C2223 C2240 1.574 . S
C2223 C2242 1.368 . S
C2223 H2247 0.949 . S
H2224 C2228 0.949 . S
C2225 C2226 1.349 . S
C2225 C2227 1.327 . S
C2225 H2248 0.950 . S
C2226 C2225 1.349 . S
C2226 C2238 1.349 . S
C2227 C2225 1.327 . S
C2227 C2243 1.429 . S
C2227 H2249 0.950 . S
C2228 H2224 0.949 . S
C2228 C2236 1.574 . S
C2228 C2244 1.368 . S
H2229 C2237 0.950 . S
H2230 C2235 0.950 . S
H2231 C2236 0.949 . S
H2232 C2238 0.950 . S
H2233 C2239 0.950 . S
H2234 C2240 0.949 . S
C2235 H2230 0.950 . S
C2235 C2237 1.327 . S
C2235 C2241 1.429 . S
C2236 C2228 1.574 . S
C2236 H2231 0.949 . S
C2236 C2242 1.368 . S
C2237 C2221 1.349 . S
C2237 H2229 0.950 . S
C2237 C2235 1.327 . S
C2238 C2226 1.349 . S
C2238 H2232 0.950 . S
C2238 C2239 1.327 . S
C2239 H2233 0.950 . S
C2239 C2238 1.327 . S
C2239 C2243 1.429 . S
C2240 C2223 1.574 . S
C2240 H2234 0.949 . S
C2240 C2244 1.368 . S
C2241 C2222 1.429 . S
C2241 C2235 1.429 . S
C2241 C2242 1.523 1_565 S
C2242 C2223 1.368 . S
C2242 C2236 1.368 . S
C2242 C2241 1.523 1_545 S
C2243 C2227 1.429 . S
C2243 C2239 1.429 . S
C2243 C2244 1.523 . S
C2244 C2228 1.368 . S
C2244 C2240 1.368 . S
C2244 C2243 1.523 . S
H2245 C2220 0.950 . S
H2246 C2222 0.950 . S
H2247 C2223 0.949 . S
H2248 C2225 0.950 . S
H2249 C2227 0.950 . S
C2250 C2251 1.349 . S
C2250 C2252 1.327 . S
C2250 H2275 0.950 . S
C2251 C2250 1.349 . S
C2251 C2267 1.349 . S
C2252 C2250 1.327 . S
C2252 C2271 1.429 . S
C2252 H2276 0.950 . S
C2253 C2270 1.574 . S
C2253 C2272 1.368 . S
C2253 H2277 0.949 . S
H2254 C2258 0.949 . S
C2255 C2256 1.349 . S
C2255 C2257 1.327 . S
C2255 H2278 0.950 . S
C2256 C2255 1.349 . S
C2256 C2268 1.349 . S
C2257 C2255 1.327 . S
C2257 C2273 1.429 . S
C2257 H2279 0.950 . S
C2258 H2254 0.949 . S
C2258 C2266 1.574 . S
C2258 C2274 1.368 . S
H2259 C2267 0.950 . S
H2260 C2265 0.950 . S
H2261 C2266 0.949 . S
H2262 C2268 0.950 . S
H2263 C2269 0.950 . S
H2264 C2270 0.949 . S
C2265 H2260 0.950 . S
C2265 C2267 1.327 . S
C2265 C2271 1.429 . S
C2266 C2258 1.574 . S
C2266 H2261 0.949 . S
C2266 C2272 1.368 . S
C2267 C2251 1.349 . S
C2267 H2259 0.950 . S
C2267 C2265 1.327 . S
C2268 C2256 1.349 . S
C2268 H2262 0.950 . S
C2268 C2269 1.327 . S
C2269 H2263 0.950 . S
C2269 C2268 1.327 . S
C2269 C2273 1.429 . S
C2270 C2253 1.574 . S
C2270 H2264 0.949 . S
C2270 C2274 1.368 . S
C2271 C2252 1.429 . S
C2271 C2265 1.429 . S
C2271 C2272 1.523 . S
C2272 C2253 1.368 . S
C2272 C2266 1.368 . S
C2272 C2271 1.523 . S
C2273 C2257 1.429 . S
C2273 C2269 1.429 . S
C2273 C2274 1.523 . S
C2274 C2258 1.368 . S
C2274 C2270 1.368 . S
C2274 C2273 1.523 . S
H2275 C2250 0.950 . S
H2276 C2252 0.950 . S
H2277 C2253 0.949 . S
H2278 C2255 0.950 . S
H2279 C2257 0.950 . S
C2280 C2281 1.349 . S
C2280 C2282 1.327 . S
C2280 H2305 0.950 . S
C2281 C2280 1.349 . S
C2281 C2297 1.349 . S
C2282 C2280 1.327 . S
C2282 C2301 1.429 . S
C2282 H2306 0.950 . S
C2283 C2300 1.574 . S
C2283 C2302 1.368 . S
C2283 H2307 0.949 . S
H2284 C2288 0.949 . S
C2285 C2286 1.349 . S
C2285 C2287 1.327 . S
C2285 H2308 0.950 . S
C2286 C2285 1.349 . S
C2286 C2298 1.349 . S
C2287 C2285 1.327 . S
C2287 C2303 1.429 . S
C2287 H2309 0.950 . S
C2288 H2284 0.949 . S
C2288 C2296 1.574 . S
C2288 C2304 1.368 . S
H2289 C2297 0.950 . S
H2290 C2295 0.950 . S
H2291 C2296 0.949 . S
H2292 C2298 0.950 . S
H2293 C2299 0.950 . S
H2294 C2300 0.949 . S
C2295 H2290 0.950 . S
C2295 C2297 1.327 . S
C2295 C2301 1.429 . S
C2296 C2288 1.574 . S
C2296 H2291 0.949 . S
C2296 C2302 1.368 . S
C2297 C2281 1.349 . S
C2297 H2289 0.950 . S
C2297 C2295 1.327 . S
C2298 C2286 1.349 . S
C2298 H2292 0.950 . S
C2298 C2299 1.327 . S
C2299 H2293 0.950 . S
C2299 C2298 1.327 . S
C2299 C2303 1.429 . S
C2300 C2283 1.574 . S
C2300 H2294 0.949 . S
C2300 C2304 1.368 . S
C2301 C2282 1.429 . S
C2301 C2295 1.429 . S
C2301 C2302 1.523 . S
C2302 C2283 1.368 . S
C2302 C2296 1.368 . S
C2302 C2301 1.523 . S
C2303 C2287 1.429 . S
C2303 C2299 1.429 . S
C2303 C2304 1.523 . S
C2304 C2288 1.368 . S
C2304 C2300 1.368 . S
C2304 C2303 1.523 . S
H2305 C2280 0.950 . S
H2306 C2282 0.950 . S
H2307 C2283 0.949 . S
H2308 C2285 0.950 . S
H2309 C2287 0.950 . S
C2310 C2311 1.349 . S
C2310 C2312 1.327 . S
C2310 H2335 0.950 . S
C2311 C2310 1.349 . S
C2311 C2327 1.349 . S
C2312 C2310 1.327 . S
C2312 C2331 1.429 . S
C2312 H2336 0.950 . S
C2313 C2330 1.574 . S
C2313 C2332 1.368 . S
C2313 H2337 0.949 . S
H2314 C2318 0.949 . S
C2315 C2316 1.349 . S
C2315 C2317 1.327 . S
C2315 H2338 0.950 . S
C2316 C2315 1.349 . S
C2316 C2328 1.349 . S
C2317 C2315 1.327 . S
C2317 C2333 1.429 . S
C2317 H2339 0.950 . S
C2318 H2314 0.949 . S
C2318 C2326 1.574 . S
C2318 C2334 1.368 . S
H2319 C2327 0.950 . S
H2320 C2325 0.950 . S
H2321 C2326 0.949 . S
H2322 C2328 0.950 . S
H2323 C2329 0.950 . S
H2324 C2330 0.949 . S
C2325 H2320 0.950 . S
C2325 C2327 1.327 . S
C2325 C2331 1.429 . S
C2326 C2318 1.574 . S
C2326 H2321 0.949 . S
C2326 C2332 1.368 . S
C2327 C2311 1.349 . S
C2327 H2319 0.950 . S
C2327 C2325 1.327 . S
C2328 C2316 1.349 . S
C2328 H2322 0.950 . S
C2328 C2329 1.327 . S
C2329 H2323 0.950 . S
C2329 C2328 1.327 . S
C2329 C2333 1.429 . S
C2330 C2313 1.574 . S
C2330 H2324 0.949 . S
C2330 C2334 1.368 . S
C2331 C2312 1.429 . S
C2331 C2325 1.429 . S
C2331 C2332 1.523 . S
C2332 C2313 1.368 . S
C2332 C2326 1.368 . S
C2332 C2331 1.523 . S
C2333 C2317 1.429 . S
C2333 C2329 1.429 . S
C2333 C2334 1.523 . S
C2334 C2318 1.368 . S
C2334 C2330 1.368 . S
C2334 C2333 1.523 . S
H2335 C2310 0.950 . S
H2336 C2312 0.950 . S
H2337 C2313 0.949 . S
H2338 C2315 0.950 . S
H2339 C2317 0.950 . S
C2340 C2341 1.349 . S
C2340 C2342 1.327 . S
C2340 H2365 0.950 . S
C2341 C2340 1.349 . S
C2341 C2357 1.349 . S
C2342 C2340 1.327 . S
C2342 C2361 1.429 . S
C2342 H2366 0.950 . S
C2343 C2360 1.574 . S
C2343 C2362 1.368 . S
C2343 H2367 0.949 . S
H2344 C2348 0.949 1_545 S
C2345 C2346 1.349 . S
C2345 C2347 1.327 . S
C2345 H2368 0.950 . S
C2346 C2345 1.349 . S
C2346 C2358 1.349 1_565 S
C2347 C2345 1.327 . S
C2347 C2363 1.429 . S
C2347 H2369 0.950 . S
C2348 H2344 0.949 1_565 S
C2348 C2356 1.574 . S
C2348 C2364 1.368 . S
H2349 C2357 0.950 . S
H2350 C2355 0.950 . S
H2351 C2356 0.949 . S
H2352 C2358 0.950 . S
H2353 C2359 0.950 . S
H2354 C2360 0.949 . S
C2355 H2350 0.950 . S
C2355 C2357 1.327 . S
C2355 C2361 1.429 . S
C2356 C2348 1.574 . S
C2356 H2351 0.949 . S
C2356 C2362 1.368 . S
C2357 C2341 1.349 . S
C2357 H2349 0.950 . S
C2357 C2355 1.327 . S
C2358 C2346 1.349 1_545 S
C2358 H2352 0.950 . S
C2358 C2359 1.327 . S
C2359 H2353 0.950 . S
C2359 C2358 1.327 . S
C2359 C2363 1.429 1_545 S
C2360 C2343 1.574 . S
C2360 H2354 0.949 . S
C2360 C2364 1.368 . S
C2361 C2342 1.429 . S
C2361 C2355 1.429 . S
C2361 C2362 1.523 . S
C2362 C2343 1.368 . S
C2362 C2356 1.368 . S
C2362 C2361 1.523 . S
C2363 C2347 1.429 . S
C2363 C2359 1.429 1_565 S
C2363 C2364 1.523 . S
C2364 C2348 1.368 . S
C2364 C2360 1.368 . S
C2364 C2363 1.523 . S
H2365 C2340 0.950 . S
H2366 C2342 0.950 . S
H2367 C2343 0.949 . S
H2368 C2345 0.950 . S
H2369 C2347 0.950 . S
C2370 C2371 1.349 . S
C2370 C2372 1.327 . S
C2370 H2395 0.950 . S
C2371 C2370 1.349 . S
C2371 C2387 1.349 . S
C2372 C2370 1.327 . S
C2372 C2391 1.429 . S
C2372 H2396 0.950 . S
C2373 C2390 1.574 . S
C2373 C2392 1.368 . S
C2373 H2397 0.949 1_455 S
H2374 C2378 0.949 . S
C2375 C2376 1.349 1_655 S
C2375 C2377 1.327 . S
C2375 H2398 0.950 . S
C2376 C2375 1.349 1_455 S
C2376 C2388 1.349 . S
C2377 C2375 1.327 . S
C2377 C2393 1.429 1_655 S
C2377 H2399 0.950 . S
C2378 H2374 0.949 . S
C2378 C2386 1.574 . S
C2378 C2394 1.368 . S
H2379 C2387 0.950 . S
H2380 C2385 0.950 1_655 S
H2381 C2386 0.949 . S
H2382 C2388 0.950 . S
H2383 C2389 0.950 . S
H2384 C2390 0.949 1_655 S
C2385 H2380 0.950 1_455 S
C2385 C2387 1.327 . S
C2385 C2391 1.429 . S
C2386 C2378 1.574 . S
C2386 H2381 0.949 . S
C2386 C2392 1.368 . S
C2387 C2371 1.349 . S
C2387 H2379 0.950 . S
C2387 C2385 1.327 . S
C2388 C2376 1.349 . S
C2388 H2382 0.950 . S
C2388 C2389 1.327 . S
C2389 H2383 0.950 . S
C2389 C2388 1.327 . S
C2389 C2393 1.429 . S
C2390 C2373 1.574 . S
C2390 H2384 0.949 1_455 S
C2390 C2394 1.368 . S
C2391 C2372 1.429 . S
C2391 C2385 1.429 . S
C2391 C2392 1.523 . S
C2392 C2373 1.368 . S
C2392 C2386 1.368 . S
C2392 C2391 1.523 . S
C2393 C2377 1.429 1_455 S
C2393 C2389 1.429 . S
C2393 C2394 1.523 . S
C2394 C2378 1.368 . S
C2394 C2390 1.368 . S
C2394 C2393 1.523 . S
H2395 C2370 0.950 . S
H2396 C2372 0.950 . S
H2397 C2373 0.949 1_655 S
H2398 C2375 0.950 . S
H2399 C2377 0.950 . S
C2400 C2401 1.349 . S
C2400 C2402 1.327 . S
C2400 H2425 0.950 . S
C2401 C2400 1.349 . S
C2401 C2417 1.349 . S
C2402 C2400 1.327 . S
C2402 C2421 1.429 . S
C2402 H2426 0.950 . S
C2403 C2420 1.574 . S
C2403 C2422 1.368 . S
C2403 H2427 0.949 . S
H2404 C2408 0.949 . S
C2405 C2406 1.349 . S
C2405 C2407 1.327 . S
C2405 H2428 0.950 . S
C2406 C2405 1.349 . S
C2406 C2418 1.349 . S
C2407 C2405 1.327 . S
C2407 C2423 1.429 . S
C2407 H2429 0.950 . S
C2408 H2404 0.949 . S
C2408 C2416 1.574 . S
C2408 C2424 1.368 . S
H2409 C2417 0.950 . S
H2410 C2415 0.950 . S
H2411 C2416 0.949 . S
H2412 C2418 0.950 . S
H2413 C2419 0.950 . S
H2414 C2420 0.949 . S
C2415 H2410 0.950 . S
C2415 C2417 1.327 . S
C2415 C2421 1.429 . S
C2416 C2408 1.574 . S
C2416 H2411 0.949 . S
C2416 C2422 1.368 . S
C2417 C2401 1.349 . S
C2417 H2409 0.950 . S
C2417 C2415 1.327 . S
C2418 C2406 1.349 . S
C2418 H2412 0.950 . S
C2418 C2419 1.327 . S
C2419 H2413 0.950 . S
C2419 C2418 1.327 . S
C2419 C2423 1.429 . S
C2420 C2403 1.574 . S
C2420 H2414 0.949 . S
C2420 C2424 1.368 . S
C2421 C2402 1.429 . S
C2421 C2415 1.429 . S
C2421 C2422 1.523 . S
C2422 C2403 1.368 . S
C2422 C2416 1.368 . S
C2422 C2421 1.523 . S
C2423 C2407 1.429 . S
C2423 C2419 1.429 . S
C2423 C2424 1.523 . S
C2424 C2408 1.368 . S
C2424 C2420 1.368 . S
C2424 C2423 1.523 . S
H2425 C2400 0.950 . S
H2426 C2402 0.950 . S
H2427 C2403 0.949 . S
H2428 C2405 0.950 . S
H2429 C2407 0.950 . S
C2430 C2431 1.349 . S
C2430 C2432 1.327 . S
C2430 H2455 0.950 . S
C2431 C2430 1.349 . S
C2431 C2447 1.349 . S
C2432 C2430 1.327 . S
C2432 C2451 1.429 . S
C2432 H2456 0.950 . S
C2433 C2450 1.574 . S
C2433 C2452 1.368 . S
C2433 H2457 0.949 . S
H2434 C2438 0.949 . S
C2435 C2436 1.349 . S
C2435 C2437 1.327 . S
C2435 H2458 0.950 . S
C2436 C2435 1.349 . S
C2436 C2448 1.349 . S
C2437 C2435 1.327 . S
C2437 C2453 1.429 . S
C2437 H2459 0.950 . S
C2438 H2434 0.949 . S
C2438 C2446 1.574 . S
C2438 C2454 1.368 . S
H2439 C2447 0.950 . S
H2440 C2445 0.950 . S
H2441 C2446 0.949 . S
H2442 C2448 0.950 . S
H2443 C2449 0.950 . S
H2444 C2450 0.949 . S
C2445 H2440 0.950 . S
C2445 C2447 1.327 . S
C2445 C2451 1.429 . S
C2446 C2438 1.574 . S
C2446 H2441 0.949 . S
C2446 C2452 1.368 . S
C2447 C2431 1.349 . S
C2447 H2439 0.950 . S
C2447 C2445 1.327 . S
C2448 C2436 1.349 . S
C2448 H2442 0.950 . S
C2448 C2449 1.327 . S
C2449 H2443 0.950 . S
C2449 C2448 1.327 . S
C2449 C2453 1.429 . S
C2450 C2433 1.574 . S
C2450 H2444 0.949 . S
C2450 C2454 1.368 . S
C2451 C2432 1.429 . S
C2451 C2445 1.429 . S
C2451 C2452 1.523 . S
C2452 C2433 1.368 . S
C2452 C2446 1.368 . S
C2452 C2451 1.523 . S
C2453 C2437 1.429 . S
C2453 C2449 1.429 . S
C2453 C2454 1.523 . S
C2454 C2438 1.368 . S
C2454 C2450 1.368 . S
C2454 C2453 1.523 . S
H2455 C2430 0.950 . S
H2456 C2432 0.950 . S
H2457 C2433 0.949 . S
H2458 C2435 0.950 . S
H2459 C2437 0.950 . S
C2460 C2461 1.349 . S
C2460 C2462 1.327 . S
C2460 H2485 0.950 . S
C2461 C2460 1.349 . S
C2461 C2477 1.349 . S
C2462 C2460 1.327 . S
C2462 C2481 1.429 . S
C2462 H2486 0.950 . S
C2463 C2480 1.574 . S
C2463 C2482 1.368 . S
C2463 H2487 0.949 . S
H2464 C2468 0.949 . S
C2465 C2466 1.349 . S
C2465 C2467 1.327 . S
C2465 H2488 0.950 . S
C2466 C2465 1.349 . S
C2466 C2478 1.349 . S
C2467 C2465 1.327 . S
C2467 C2483 1.429 . S
C2467 H2489 0.950 . S
C2468 H2464 0.949 . S
C2468 C2476 1.574 . S
C2468 C2484 1.368 . S
H2469 C2477 0.950 . S
H2470 C2475 0.950 . S
H2471 C2476 0.949 . S
H2472 C2478 0.950 . S
H2473 C2479 0.950 . S
H2474 C2480 0.949 . S
C2475 H2470 0.950 . S
C2475 C2477 1.327 . S
C2475 C2481 1.429 . S
C2476 C2468 1.574 . S
C2476 H2471 0.949 . S
C2476 C2482 1.368 . S
C2477 C2461 1.349 . S
C2477 H2469 0.950 . S
C2477 C2475 1.327 . S
C2478 C2466 1.349 . S
C2478 H2472 0.950 . S
C2478 C2479 1.327 . S
C2479 H2473 0.950 . S
C2479 C2478 1.327 . S
C2479 C2483 1.429 . S
C2480 C2463 1.574 . S
C2480 H2474 0.949 . S
C2480 C2484 1.368 . S
C2481 C2462 1.429 . S
C2481 C2475 1.429 . S
C2481 C2482 1.523 . S
C2482 C2463 1.368 . S
C2482 C2476 1.368 . S
C2482 C2481 1.523 . S
C2483 C2467 1.429 . S
C2483 C2479 1.429 . S
C2483 C2484 1.523 . S
C2484 C2468 1.368 . S
C2484 C2480 1.368 . S
C2484 C2483 1.523 . S
H2485 C2460 0.950 . S
H2486 C2462 0.950 . S
H2487 C2463 0.949 . S
H2488 C2465 0.950 . S
H2489 C2467 0.950 . S
C2490 C2491 1.349 . S
C2490 C2492 1.327 . S
C2490 H2515 0.950 . S
C2491 C2490 1.349 . S
C2491 C2507 1.349 . S
C2492 C2490 1.327 . S
C2492 C2511 1.429 . S
C2492 H2516 0.950 . S
C2493 C2510 1.574 . S
C2493 C2512 1.368 . S
C2493 H2517 0.949 . S
H2494 C2498 1.001 . S
C2495 C2496 1.349 . S
C2495 C2497 1.327 . S
C2495 H2518 0.950 . S
C2496 C2495 1.349 . S
C2496 C2508 1.349 1_545 S
C2497 C2495 1.327 . S
C2497 C2513 1.429 . S
C2497 H2519 0.950 . S
C2498 H2494 1.001 . S
C2498 C2506 1.574 . S
C2498 C2514 1.368 . S
H2499 C2507 0.950 . S
H2500 C2505 0.950 . S
H2501 C2506 0.949 . S
H2502 C2508 0.950 . S
H2503 C2509 0.950 1_565 S
H2504 C2510 0.949 . S
C2505 H2500 0.950 . S
C2505 C2507 1.327 . S
C2505 C2511 1.429 . S
C2506 C2498 1.574 . S
C2506 H2501 0.949 . S
C2506 C2512 1.368 . S
C2507 C2491 1.349 . S
C2507 H2499 0.950 . S
C2507 C2505 1.327 . S
C2508 C2496 1.349 1_565 S
C2508 H2502 0.950 . S
C2508 C2509 1.327 1_565 S
C2509 H2503 0.950 1_545 S
C2509 C2508 1.327 1_545 S
C2509 C2513 1.429 . S
C2510 C2493 1.574 . S
C2510 H2504 0.949 . S
C2510 C2514 1.368 . S
C2511 C2492 1.429 . S
C2511 C2505 1.429 . S
C2511 C2512 1.523 . S
C2512 C2493 1.368 . S
C2512 C2506 1.368 . S
C2512 C2511 1.523 . S
C2513 C2497 1.429 . S
C2513 C2509 1.429 . S
C2513 C2514 1.523 . S
C2514 C2498 1.368 . S
C2514 C2510 1.368 . S
C2514 C2513 1.523 . S
H2515 C2490 0.950 . S
H2516 C2492 0.950 . S
H2517 C2493 0.949 . S
H2518 C2495 0.950 . S
H2519 C2497 0.950 . S
C2520 C2521 1.349 . S
C2520 C2522 1.327 . S
C2520 H2545 0.950 . S
C2521 C2520 1.349 . S
C2521 C2537 1.349 . S
C2522 C2520 1.327 . S
C2522 C2541 1.429 . S
C2522 H2546 0.950 . S
C2523 C2540 1.574 . S
C2523 C2542 1.368 . S
C2523 H2547 0.949 . S
H2524 C2528 0.949 . S
C2525 C2526 1.349 . S
C2525 C2527 1.327 . S
C2525 H2548 0.950 . S
C2526 C2525 1.349 . S
C2526 C2538 1.349 . S
C2527 C2525 1.327 . S
C2527 C2543 1.429 . S
C2527 H2549 0.950 . S
C2528 H2524 0.949 . S
C2528 C2536 1.574 . S
C2528 C2544 1.368 . S
H2529 C2537 0.950 . S
H2530 C2535 0.950 . S
H2531 C2536 0.949 . S
H2532 C2538 0.950 . S
H2533 C2539 0.950 . S
H2534 C2540 0.949 . S
C2535 H2530 0.950 . S
C2535 C2537 1.327 . S
C2535 C2541 1.429 . S
C2536 C2528 1.574 . S
C2536 H2531 0.949 . S
C2536 C2542 1.368 . S
C2537 C2521 1.349 . S
C2537 H2529 0.950 . S
C2537 C2535 1.327 . S
C2538 C2526 1.349 . S
C2538 H2532 0.950 . S
C2538 C2539 1.327 . S
C2539 H2533 0.950 . S
C2539 C2538 1.327 . S
C2539 C2543 1.429 . S
C2540 C2523 1.574 . S
C2540 H2534 0.949 . S
C2540 C2544 1.368 . S
C2541 C2522 1.429 . S
C2541 C2535 1.429 . S
C2541 C2542 1.523 . S
C2542 C2523 1.368 . S
C2542 C2536 1.368 . S
C2542 C2541 1.523 . S
C2543 C2527 1.429 . S
C2543 C2539 1.429 . S
C2543 C2544 1.523 . S
C2544 C2528 1.368 . S
C2544 C2540 1.368 . S
C2544 C2543 1.523 . S
H2545 C2520 0.950 . S
H2546 C2522 0.950 . S
H2547 C2523 0.949 . S
H2548 C2525 0.950 . S
H2549 C2527 0.950 . S
C2550 C2551 1.349 . S
C2550 C2552 1.327 . S
C2550 H2575 0.950 . S
C2551 C2550 1.349 . S
C2551 C2567 1.349 . S
C2552 C2550 1.327 . S
C2552 C2571 1.429 . S
C2552 H2576 0.950 . S
C2553 C2570 1.574 . S
C2553 C2572 1.368 . S
C2553 H2577 0.949 . S
H2554 C2558 0.949 . S
C2555 C2556 1.349 . S
C2555 C2557 1.327 . S
C2555 H2578 0.950 . S
C2556 C2555 1.349 . S
C2556 C2568 1.349 . S
C2557 C2555 1.327 . S
C2557 C2573 1.429 . S
C2557 H2579 0.950 . S
C2558 H2554 0.949 . S
C2558 C2566 1.574 . S
C2558 C2574 1.368 . S
H2559 C2567 0.950 . S
H2560 C2565 0.950 . S
H2561 C2566 0.949 . S
H2562 C2568 0.950 . S
H2563 C2569 0.950 . S
H2564 C2570 0.949 . S
C2565 H2560 0.950 . S
C2565 C2567 1.327 . S
C2565 C2571 1.429 . S
C2566 C2558 1.574 . S
C2566 H2561 0.949 . S
C2566 C2572 1.368 . S
C2567 C2551 1.349 . S
C2567 H2559 0.950 . S
C2567 C2565 1.327 . S
C2568 C2556 1.349 . S
C2568 H2562 0.950 . S
C2568 C2569 1.327 . S
C2569 H2563 0.950 . S
C2569 C2568 1.327 . S
C2569 C2573 1.429 . S
C2570 C2553 1.574 . S
C2570 H2564 0.949 . S
C2570 C2574 1.368 . S
C2571 C2552 1.429 . S
C2571 C2565 1.429 . S
C2571 C2572 1.523 . S
C2572 C2553 1.368 . S
C2572 C2566 1.368 . S
C2572 C2571 1.523 . S
C2573 C2557 1.429 . S
C2573 C2569 1.429 . S
C2573 C2574 1.523 . S
C2574 C2558 1.368 . S
C2574 C2570 1.368 . S
C2574 C2573 1.523 . S
H2575 C2550 0.950 . S
H2576 C2552 0.950 . S
H2577 C2553 0.949 . S
H2578 C2555 0.950 . S
H2579 C2557 0.950 . S
C2580 C2581 1.349 . S
C2580 C2582 1.327 . S
C2580 H2605 0.950 . S
C2581 C2580 1.349 . S
C2581 C2597 1.349 . S
C2582 C2580 1.327 . S
C2582 C2601 1.429 . S
C2582 H2606 0.950 . S
C2583 C2600 1.574 . S
C2583 C2602 1.368 . S
C2583 H2607 0.949 . S
H2584 C2588 0.949 . S
C2585 C2586 1.349 . S
C2585 C2587 1.327 . S
C2585 H2608 0.950 . S
C2586 C2585 1.349 . S
C2586 C2598 1.349 . S
C2587 C2585 1.327 . S
C2587 C2603 1.429 . S
C2587 H2609 0.950 . S
C2588 H2584 0.949 . S
C2588 C2596 1.574 . S
C2588 C2604 1.368 . S
H2589 C2597 0.950 . S
H2590 C2595 0.950 . S
H2591 C2596 0.949 . S
H2592 C2598 0.950 . S
H2593 C2599 0.950 . S
H2594 C2600 0.949 . S
C2595 H2590 0.950 . S
C2595 C2597 1.327 . S
C2595 C2601 1.429 . S
C2596 C2588 1.574 . S
C2596 H2591 0.949 . S
C2596 C2602 1.368 . S
C2597 C2581 1.349 . S
C2597 H2589 0.950 . S
C2597 C2595 1.327 . S
C2598 C2586 1.349 . S
C2598 H2592 0.950 . S
C2598 C2599 1.327 . S
C2599 H2593 0.950 . S
C2599 C2598 1.327 . S
C2599 C2603 1.429 . S
C2600 C2583 1.574 . S
C2600 H2594 0.949 . S
C2600 C2604 1.368 . S
C2601 C2582 1.429 . S
C2601 C2595 1.429 . S
C2601 C2602 1.523 . S
C2602 C2583 1.368 . S
C2602 C2596 1.368 . S
C2602 C2601 1.523 . S
C2603 C2587 1.429 . S
C2603 C2599 1.429 . S
C2603 C2604 1.523 . S
C2604 C2588 1.368 . S
C2604 C2600 1.368 . S
C2604 C2603 1.523 . S
H2605 C2580 0.950 . S
H2606 C2582 0.950 . S
H2607 C2583 0.949 . S
H2608 C2585 0.950 . S
H2609 C2587 0.950 . S
C2610 C2611 1.349 . S
C2610 C2612 1.327 . S
C2610 H2635 0.950 . S
C2611 C2610 1.349 . S
C2611 C2627 1.349 . S
C2612 C2610 1.327 . S
C2612 C2631 1.429 . S
C2612 H2636 0.950 . S
C2613 C2630 1.574 . S
C2613 C2632 1.368 . S
C2613 H2637 0.949 . S
H2614 C2618 0.949 . S
C2615 C2616 1.349 . S
C2615 C2617 1.327 . S
C2615 H2638 0.950 . S
C2616 C2615 1.349 . S
C2616 C2628 1.349 . S
C2617 C2615 1.327 . S
C2617 C2633 1.429 . S
C2617 H2639 0.950 . S
C2618 H2614 0.949 . S
C2618 C2626 1.574 . S
C2618 C2634 1.368 . S
H2619 C2627 0.950 . S
H2620 C2625 0.950 . S
H2621 C2626 0.949 . S
H2622 C2628 0.950 . S
H2623 C2629 0.950 . S
H2624 C2630 0.949 . S
C2625 H2620 0.950 . S
C2625 C2627 1.327 . S
C2625 C2631 1.429 . S
C2626 C2618 1.574 . S
C2626 H2621 0.949 . S
C2626 C2632 1.368 . S
C2627 C2611 1.349 . S
C2627 H2619 0.950 . S
C2627 C2625 1.327 . S
C2628 C2616 1.349 . S
C2628 H2622 0.950 . S
C2628 C2629 1.327 . S
C2629 H2623 0.950 . S
C2629 C2628 1.327 . S
C2629 C2633 1.429 . S
C2630 C2613 1.574 . S
C2630 H2624 0.949 . S
C2630 C2634 1.368 . S
C2631 C2612 1.429 . S
C2631 C2625 1.429 . S
C2631 C2632 1.523 . S
C2632 C2613 1.368 . S
C2632 C2626 1.368 . S
C2632 C2631 1.523 . S
C2633 C2617 1.429 . S
C2633 C2629 1.429 . S
C2633 C2634 1.523 . S
C2634 C2618 1.368 . S
C2634 C2630 1.368 . S
C2634 C2633 1.523 . S
H2635 C2610 0.950 . S
H2636 C2612 0.950 . S
H2637 C2613 0.949 . S
H2638 C2615 0.950 . S
H2639 C2617 0.950 . S
C2640 C2641 1.349 . S
C2640 C2642 1.327 . S
C2640 H2665 0.950 . S
C2641 C2640 1.349 . S
C2641 C2657 1.349 . S
C2642 C2640 1.327 . S
C2642 C2661 1.429 . S
C2642 H2666 0.950 . S
C2643 C2660 1.574 . S
C2643 C2662 1.368 . S
C2643 H2667 0.949 . S
H2644 C2648 0.949 . S
C2645 C2646 1.349 . S
C2645 C2647 1.327 . S
C2645 H2668 0.950 . S
C2646 C2645 1.349 . S
C2646 C2658 1.349 . S
C2647 C2645 1.327 . S
C2647 C2663 1.429 . S
C2647 H2669 0.950 . S
C2648 H2644 0.949 . S
C2648 C2656 1.574 . S
C2648 C2664 1.368 . S
H2649 C2657 0.950 . S
H2650 C2655 0.950 . S
H2651 C2656 0.949 . S
H2652 C2658 0.950 . S
H2653 C2659 0.950 . S
H2654 C2660 0.949 . S
C2655 H2650 0.950 . S
C2655 C2657 1.327 . S
C2655 C2661 1.429 . S
C2656 C2648 1.574 . S
C2656 H2651 0.949 . S
C2656 C2662 1.368 . S
C2657 C2641 1.349 . S
C2657 H2649 0.950 . S
C2657 C2655 1.327 . S
C2658 C2646 1.349 . S
C2658 H2652 0.950 . S
C2658 C2659 1.327 . S
C2659 H2653 0.950 . S
C2659 C2658 1.327 . S
C2659 C2663 1.429 . S
C2660 C2643 1.574 . S
C2660 H2654 0.949 . S
C2660 C2664 1.368 . S
C2661 C2642 1.429 . S
C2661 C2655 1.429 . S
C2661 C2662 1.523 . S
C2662 C2643 1.368 . S
C2662 C2656 1.368 . S
C2662 C2661 1.523 . S
C2663 C2647 1.429 . S
C2663 C2659 1.429 . S
C2663 C2664 1.523 . S
C2664 C2648 1.368 . S
C2664 C2660 1.368 . S
C2664 C2663 1.523 . S
H2665 C2640 0.950 . S
H2666 C2642 0.950 . S
H2667 C2643 0.949 . S
H2668 C2645 0.950 . S
H2669 C2647 0.950 . S
C2670 C2671 1.349 . S
C2670 C2672 1.327 . S
C2670 H2695 0.950 . S
C2671 C2670 1.349 . S
C2671 C2687 1.349 . S
C2672 C2670 1.327 . S
C2672 C2691 1.429 . S
C2672 H2696 0.950 . S
C2673 C2690 1.574 . S
C2673 C2692 1.368 . S
C2673 H2697 0.949 . S
H2674 C2678 0.949 . S
C2675 C2676 1.349 . S
C2675 C2677 1.327 . S
C2675 H2698 0.950 . S
C2676 C2675 1.349 . S
C2676 C2688 1.349 . S
C2677 C2675 1.327 . S
C2677 C2693 1.429 . S
C2677 H2699 0.950 . S
C2678 H2674 0.949 . S
C2678 C2686 1.574 . S
C2678 C2694 1.368 . S
H2679 C2687 0.950 . S
H2680 C2685 0.950 . S
H2681 C2686 0.949 . S
H2682 C2688 0.950 . S
H2683 C2689 0.950 . S
H2684 C2690 0.949 . S
C2685 H2680 0.950 . S
C2685 C2687 1.327 . S
C2685 C2691 1.429 . S
C2686 C2678 1.574 . S
C2686 H2681 0.949 . S
C2686 C2692 1.368 . S
C2687 C2671 1.349 . S
C2687 H2679 0.950 . S
C2687 C2685 1.327 . S
C2688 C2676 1.349 . S
C2688 H2682 0.950 . S
C2688 C2689 1.327 . S
C2689 H2683 0.950 . S
C2689 C2688 1.327 . S
C2689 C2693 1.429 . S
C2690 C2673 1.574 . S
C2690 H2684 0.949 . S
C2690 C2694 1.368 . S
C2691 C2672 1.429 . S
C2691 C2685 1.429 . S
C2691 C2692 1.523 . S
C2692 C2673 1.368 . S
C2692 C2686 1.368 . S
C2692 C2691 1.523 . S
C2693 C2677 1.429 . S
C2693 C2689 1.429 . S
C2693 C2694 1.523 . S
C2694 C2678 1.368 . S
C2694 C2690 1.368 . S
C2694 C2693 1.523 . S
H2695 C2670 0.950 . S
H2696 C2672 0.950 . S
H2697 C2673 0.949 . S
H2698 C2675 0.950 . S
H2699 C2677 0.950 . S
C2700 C2701 1.349 . S
C2700 C2702 1.327 . S
C2700 H2725 0.950 . S
C2701 C2700 1.349 . S
C2701 C2717 1.349 . S
C2702 C2700 1.327 . S
C2702 C2721 1.429 . S
C2702 H2726 0.950 . S
C2703 C2720 1.574 . S
C2703 C2722 1.368 . S
C2703 H2727 0.949 . S
H2704 C2708 0.949 . S
C2705 C2706 1.349 . S
C2705 C2707 1.327 . S
C2705 H2728 0.950 . S
C2706 C2705 1.349 . S
C2706 C2718 1.349 . S
C2707 C2705 1.327 . S
C2707 C2723 1.429 . S
C2707 H2729 0.950 . S
C2708 H2704 0.949 . S
C2708 C2716 1.574 . S
C2708 C2724 1.368 . S
H2709 C2717 0.950 . S
H2710 C2715 0.950 . S
H2711 C2716 0.949 . S
H2712 C2718 0.950 . S
H2713 C2719 0.950 . S
H2714 C2720 0.949 . S
C2715 H2710 0.950 . S
C2715 C2717 1.327 . S
C2715 C2721 1.429 . S
C2716 C2708 1.574 . S
C2716 H2711 0.949 . S
C2716 C2722 1.368 . S
C2717 C2701 1.349 . S
C2717 H2709 0.950 . S
C2717 C2715 1.327 . S
C2718 C2706 1.349 . S
C2718 H2712 0.950 . S
C2718 C2719 1.327 . S
C2719 H2713 0.950 . S
C2719 C2718 1.327 . S
C2719 C2723 1.429 . S
C2720 C2703 1.574 . S
C2720 H2714 0.949 . S
C2720 C2724 1.368 . S
C2721 C2702 1.429 . S
C2721 C2715 1.429 . S
C2721 C2722 1.523 . S
C2722 C2703 1.368 . S
C2722 C2716 1.368 . S
C2722 C2721 1.523 . S
C2723 C2707 1.429 . S
C2723 C2719 1.429 . S
C2723 C2724 1.523 . S
C2724 C2708 1.368 . S
C2724 C2720 1.368 . S
C2724 C2723 1.523 . S
H2725 C2700 0.950 . S
H2726 C2702 0.950 . S
H2727 C2703 0.949 . S
H2728 C2705 0.950 . S
H2729 C2707 0.950 . S
C2730 C2731 1.349 . S
C2730 C2732 1.327 . S
C2730 H2755 0.950 . S
C2731 C2730 1.349 . S
C2731 C2747 1.349 . S
C2732 C2730 1.327 . S
C2732 C2751 1.429 . S
C2732 H2756 0.950 . S
C2733 C2750 1.574 . S
C2733 C2752 1.368 . S
C2733 H2757 0.949 . S
H2734 C2738 0.949 . S
C2735 C2736 1.349 . S
C2735 C2737 1.327 . S
C2735 H2758 0.950 . S
C2736 C2735 1.349 . S
C2736 C2748 1.349 . S
C2737 C2735 1.327 . S
C2737 C2753 1.429 . S
C2737 H2759 0.950 . S
C2738 H2734 0.949 . S
C2738 C2746 1.574 . S
C2738 C2754 1.368 . S
H2739 C2747 0.950 . S
H2740 C2745 0.950 . S
H2741 C2746 0.949 . S
H2742 C2748 0.950 . S
H2743 C2749 0.950 . S
H2744 C2750 0.949 . S
C2745 H2740 0.950 . S
C2745 C2747 1.327 . S
C2745 C2751 1.429 . S
C2746 C2738 1.574 . S
C2746 H2741 0.949 . S
C2746 C2752 1.368 . S
C2747 C2731 1.349 . S
C2747 H2739 0.950 . S
C2747 C2745 1.327 . S
C2748 C2736 1.349 . S
C2748 H2742 0.950 . S
C2748 C2749 1.327 . S
C2749 H2743 0.950 . S
C2749 C2748 1.327 . S
C2749 C2753 1.429 . S
C2750 C2733 1.574 . S
C2750 H2744 0.949 . S
C2750 C2754 1.368 . S
C2751 C2732 1.429 . S
C2751 C2745 1.429 . S
C2751 C2752 1.523 . S
C2752 C2733 1.368 . S
C2752 C2746 1.368 . S
C2752 C2751 1.523 . S
C2753 C2737 1.429 . S
C2753 C2749 1.429 . S
C2753 C2754 1.523 . S
C2754 C2738 1.368 . S
C2754 C2750 1.368 . S
C2754 C2753 1.523 . S
H2755 C2730 0.950 . S
H2756 C2732 0.950 . S
H2757 C2733 0.949 . S
H2758 C2735 0.950 . S
H2759 C2737 0.950 . S
C2760 C2761 1.349 . S
C2760 C2762 1.327 . S
C2760 H2785 0.950 . S
C2761 C2760 1.349 . S
C2761 C2777 1.349 . S
C2762 C2760 1.327 . S
C2762 C2781 1.429 . S
C2762 H2786 0.950 . S
C2763 C2780 1.574 . S
C2763 C2782 1.368 . S
C2763 H2787 0.949 . S
H2764 C2768 0.949 . S
C2765 C2766 1.349 . S
C2765 C2767 1.327 . S
C2765 H2788 0.950 . S
C2766 C2765 1.349 . S
C2766 C2778 1.349 . S
C2767 C2765 1.327 . S
C2767 C2783 1.429 . S
C2767 H2789 0.950 . S
C2768 H2764 0.949 . S
C2768 C2776 1.574 . S
C2768 C2784 1.368 . S
H2769 C2777 0.950 . S
H2770 C2775 0.950 . S
H2771 C2776 0.949 . S
H2772 C2778 0.950 . S
H2773 C2779 0.950 . S
H2774 C2780 0.949 . S
C2775 H2770 0.950 . S
C2775 C2777 1.327 . S
C2775 C2781 1.429 . S
C2776 C2768 1.574 . S
C2776 H2771 0.949 . S
C2776 C2782 1.368 . S
C2777 C2761 1.349 . S
C2777 H2769 0.950 . S
C2777 C2775 1.327 . S
C2778 C2766 1.349 . S
C2778 H2772 0.950 . S
C2778 C2779 1.327 . S
C2779 H2773 0.950 . S
C2779 C2778 1.327 . S
C2779 C2783 1.429 . S
C2780 C2763 1.574 . S
C2780 H2774 0.949 . S
C2780 C2784 1.368 . S
C2781 C2762 1.429 . S
C2781 C2775 1.429 . S
C2781 C2782 1.523 . S
C2782 C2763 1.368 . S
C2782 C2776 1.368 . S
C2782 C2781 1.523 . S
C2783 C2767 1.429 . S
C2783 C2779 1.429 . S
C2783 C2784 1.523 . S
C2784 C2768 1.368 . S
C2784 C2780 1.368 . S
C2784 C2783 1.523 . S
H2785 C2760 0.950 . S
H2786 C2762 0.950 . S
H2787 C2763 0.949 . S
H2788 C2765 0.950 . S
H2789 C2767 0.950 . S
C2790 C2791 1.349 . S
C2790 C2792 1.327 . S
C2790 H2815 0.950 . S
C2791 C2790 1.349 . S
C2791 C2807 1.349 . S
C2792 C2790 1.327 . S
C2792 C2811 1.429 . S
C2792 H2816 0.950 . S
C2793 C2810 1.574 . S
C2793 C2812 1.368 . S
C2793 H2817 0.949 . S
H2794 C2798 0.949 . S
C2795 C2796 1.349 . S
C2795 C2797 1.327 . S
C2795 H2818 0.950 . S
C2796 C2795 1.349 . S
C2796 C2808 1.349 . S
C2797 C2795 1.327 . S
C2797 C2813 1.429 . S
C2797 H2819 0.950 . S
C2798 H2794 0.949 . S
C2798 C2806 1.574 . S
C2798 C2814 1.368 . S
H2799 C2807 0.950 . S
H2800 C2805 0.950 . S
H2801 C2806 0.949 . S
H2802 C2808 0.950 . S
H2803 C2809 0.950 . S
H2804 C2810 0.949 . S
C2805 H2800 0.950 . S
C2805 C2807 1.327 . S
C2805 C2811 1.429 . S
C2806 C2798 1.574 . S
C2806 H2801 0.949 . S
C2806 C2812 1.368 . S
C2807 C2791 1.349 . S
C2807 H2799 0.950 . S
C2807 C2805 1.327 . S
C2808 C2796 1.349 . S
C2808 H2802 0.950 . S
C2808 C2809 1.327 . S
C2809 H2803 0.950 . S
C2809 C2808 1.327 . S
C2809 C2813 1.429 . S
C2810 C2793 1.574 . S
C2810 H2804 0.949 . S
C2810 C2814 1.368 . S
C2811 C2792 1.429 . S
C2811 C2805 1.429 . S
C2811 C2812 1.523 . S
C2812 C2793 1.368 . S
C2812 C2806 1.368 . S
C2812 C2811 1.523 . S
C2813 C2797 1.429 . S
C2813 C2809 1.429 . S
C2813 C2814 1.523 . S
C2814 C2798 1.368 . S
C2814 C2810 1.368 . S
C2814 C2813 1.523 . S
H2815 C2790 0.950 . S
H2816 C2792 0.950 . S
H2817 C2793 0.949 . S
H2818 C2795 0.950 . S
H2819 C2797 0.950 . S
C2820 C2821 1.349 . S
C2820 C2822 1.327 . S
C2820 H2845 0.950 . S
C2821 C2820 1.349 . S
C2821 C2837 1.349 . S
C2822 C2820 1.327 . S
C2822 C2841 1.429 . S
C2822 H2846 0.950 . S
C2823 C2840 1.574 . S
C2823 C2842 1.368 . S
C2823 H2847 0.949 . S
H2824 C2828 0.949 . S
C2825 C2826 1.349 . S
C2825 C2827 1.327 . S
C2825 H2848 0.950 . S
C2826 C2825 1.349 . S
C2826 C2838 1.349 . S
C2827 C2825 1.327 . S
C2827 C2843 1.429 . S
C2827 H2849 0.950 . S
C2828 H2824 0.949 . S
C2828 C2836 1.574 . S
C2828 C2844 1.368 . S
H2829 C2837 0.950 . S
H2830 C2835 0.950 . S
H2831 C2836 0.949 . S
H2832 C2838 0.950 . S
H2833 C2839 0.950 . S
H2834 C2840 0.949 . S
C2835 H2830 0.950 . S
C2835 C2837 1.327 . S
C2835 C2841 1.429 . S
C2836 C2828 1.574 . S
C2836 H2831 0.949 . S
C2836 C2842 1.368 . S
C2837 C2821 1.349 . S
C2837 H2829 0.950 . S
C2837 C2835 1.327 . S
C2838 C2826 1.349 . S
C2838 H2832 0.950 . S
C2838 C2839 1.327 . S
C2839 H2833 0.950 . S
C2839 C2838 1.327 . S
C2839 C2843 1.429 . S
C2840 C2823 1.574 . S
C2840 H2834 0.949 . S
C2840 C2844 1.368 . S
C2841 C2822 1.429 . S
C2841 C2835 1.429 . S
C2841 C2842 1.523 . S
C2842 C2823 1.368 . S
C2842 C2836 1.368 . S
C2842 C2841 1.523 . S
C2843 C2827 1.429 . S
C2843 C2839 1.429 . S
C2843 C2844 1.523 . S
C2844 C2828 1.368 . S
C2844 C2840 1.368 . S
C2844 C2843 1.523 . S
H2845 C2820 0.950 . S
H2846 C2822 0.950 . S
H2847 C2823 0.949 . S
H2848 C2825 0.950 . S
H2849 C2827 0.950 . S
C2850 C2851 1.349 . S
C2850 C2852 1.327 . S
C2850 H2875 0.950 . S
C2851 C2850 1.349 . S
C2851 C2867 1.349 . S
C2852 C2850 1.327 . S
C2852 C2871 1.429 . S
C2852 H2876 0.950 . S
C2853 C2870 1.574 . S
C2853 C2872 1.368 . S
C2853 H2877 0.949 . S
H2854 C2858 0.949 . S
C2855 C2856 1.349 . S
C2855 C2857 1.327 . S
C2855 H2878 0.950 . S
C2856 C2855 1.349 . S
C2856 C2868 1.349 . S
C2857 C2855 1.327 . S
C2857 C2873 1.429 . S
C2857 H2879 0.950 . S
C2858 H2854 0.949 . S
C2858 C2866 1.574 . S
C2858 C2874 1.368 . S
H2859 C2867 0.950 . S
H2860 C2865 0.950 . S
H2861 C2866 0.949 . S
H2862 C2868 0.950 . S
H2863 C2869 0.950 . S
H2864 C2870 0.949 . S
C2865 H2860 0.950 . S
C2865 C2867 1.327 . S
C2865 C2871 1.429 . S
C2866 C2858 1.574 . S
C2866 H2861 0.949 . S
C2866 C2872 1.368 . S
C2867 C2851 1.349 . S
C2867 H2859 0.950 . S
C2867 C2865 1.327 . S
C2868 C2856 1.349 . S
C2868 H2862 0.950 . S
C2868 C2869 1.327 . S
C2869 H2863 0.950 . S
C2869 C2868 1.327 . S
C2869 C2873 1.429 . S
C2870 C2853 1.574 . S
C2870 H2864 0.949 . S
C2870 C2874 1.368 . S
C2871 C2852 1.429 . S
C2871 C2865 1.429 . S
C2871 C2872 1.523 . S
C2872 C2853 1.368 . S
C2872 C2866 1.368 . S
C2872 C2871 1.523 . S
C2873 C2857 1.429 . S
C2873 C2869 1.429 . S
C2873 C2874 1.523 . S
C2874 C2858 1.368 . S
C2874 C2870 1.368 . S
C2874 C2873 1.523 . S
H2875 C2850 0.950 . S
H2876 C2852 0.950 . S
H2877 C2853 0.949 . S
H2878 C2855 0.950 . S
H2879 C2857 0.950 . S
C1261 C781 1.546 . S
C1266 C1086 1.532 . S
C1291 C871 1.505 . S
C1296 C1106 1.506 . S
C1321 C751 1.533 . S
C1326 C1129 1.560 . S
C1351 C691 1.417 . S
C1356 C1109 1.443 . S
C1386 C1126 1.392 . S
C1381 C571 1.368 . S
C1411 C601 1.419 . S
C1416 C1089 1.425 . S
C1446 C1096 1.531 . S
C1441 C661 1.511 . S
C1476 C1116 1.507 . S
C1471 C541 1.498 . S
C1501 C631 1.572 . S
C1506 C1121 1.560 . S
C1531 C811 1.447 . S
C1536 C1101 1.442 . S
C1561 C841 1.385 . S
C1566 C1136 1.392 . S
C1596 C1081 1.425 . S
C1591 C721 1.383 . S
C1626 C1146 1.532 . S
C1621 C61 1.546 . S
C1651 C151 1.505 . S
C1656 C1166 1.507 . S
C1681 C31 1.533 . S
C1686 C1189 1.560 . S
C1711 C1051 1.417 . S
C1716 C1169 1.442 . S
C1741 C931 1.368 . S
C1746 C1186 1.392 . S
C1771 C961 1.419 . S
C1776 C1149 1.425 . S
C1801 C1021 1.511 . S
C1806 C1156 1.531 . S
C1831 C901 1.497 . S
C1836 C1176 1.507 . S
C1866 C1181 1.560 . S
C1861 C991 1.572 . S
C1891 C91 1.447 . S
C1896 C1161 1.442 . S
C1926 C1196 1.392 . S
C1921 C121 1.385 . S
C1951 C1 1.383 . S
C1956 C1141 1.425 . S
C1986 C1206 1.532 . S
C1981 C421 1.546 . S
C2011 C511 1.505 . S
C2016 C1226 1.507 . S
C2046 C1249 1.560 . S
C2041 C391 1.533 . S
C2076 C1229 1.442 . S
C2071 C331 1.417 . S
C2106 C1246 1.392 . S
C2101 C211 1.368 . S
C2131 C241 1.419 . S
C2136 C1209 1.425 . S
C2161 C301 1.511 . S
C2166 C1216 1.531 . S
C2191 C181 1.497 . S
C2196 C1236 1.507 . S
C2226 C1241 1.560 . S
C2221 C271 1.572 . S
C2251 C451 1.447 . S
C2256 C1221 1.442 . S
C2281 C481 1.385 . S
C2286 C1256 1.392 . S
C2311 C361 1.383 . S
C2316 C1201 1.425 . S
C2341 C920 1.198 . S
C2346 C1099 1.188 1_565 S
C2376 C1119 1.657 . S
C2371 C980 1.689 . S
C2401 C1040 1.437 . S
C2406 C1128 1.446 . S
C2431 C380 1.649 . S
C2436 C1108 1.652 . S
C2461 C440 1.466 . S
C2466 C1139 1.446 . S
C2496 C1088 1.166 1_545 S
C2491 C500 1.184 . S
C2521 C200 1.198 . S
C2526 C1159 1.188 . S
C2551 C260 1.689 . S
C2556 C1179 1.646 . S
C2581 C320 1.438 . S
C2586 C1188 1.446 . S
C2611 C740 1.649 . S
C2616 C1168 1.646 . S
C2646 C1199 1.446 . S
C2641 C800 1.466 . S
C2671 C860 1.184 . S
C2676 C1148 1.188 . S
C2701 C560 1.198 . S
C2706 C1219 1.188 . S
C2731 C620 1.689 . S
C2736 C1239 1.646 . S
C2766 C1248 1.446 . S
C2761 C680 1.437 . S
C2791 C20 1.649 . S
C2796 C1228 1.646 . S
C2821 C80 1.466 . S
C2826 C1259 1.446 . S
C2851 C140 1.184 . S
C2856 C1208 1.188 . S
