# Generated by pormake.
# Topology ptr, (4,4)-cn, num edge types: 1
# Building blocks:
#     Node 0, Type 0, BuildingBlock: GALJAG_clean_sbu_0, # of connection points: 4
#     Node 1, Type 0, BuildingBlock: GALJAG_clean_sbu_0, # of connection points: 4
#     Node 2, Type 0, BuildingBlock: GALJAG_clean_sbu_0, # of connection points: 4
#     Node 3, Type 0, BuildingBlock: GALJAG_clean_sbu_0, # of connection points: 4
#     Node 4, Type 0, BuildingBlock: GALJAG_clean_sbu_0, # of connection points: 4
#     Node 5, Type 0, BuildingBlock: GALJAG_clean_sbu_0, # of connection points: 4
#     Node 6, Type 0, BuildingBlock: GALJAG_clean_sbu_0, # of connection points: 4
#     Node 7, Type 0, BuildingBlock: GALJAG_clean_sbu_0, # of connection points: 4
#     Node 8, Type 0, BuildingBlock: GALJAG_clean_sbu_0, # of connection points: 4
#     Node 9, Type 0, BuildingBlock: GALJAG_clean_sbu_0, # of connection points: 4
#     Node 10, Type 0, BuildingBlock: GALJAG_clean_sbu_0, # of connection points: 4
#     Node 11, Type 0, BuildingBlock: GALJAG_clean_sbu_0, # of connection points: 4
#     Node 12, Type 0, BuildingBlock: GALJAG_clean_sbu_0, # of connection points: 4
#     Node 13, Type 0, BuildingBlock: GALJAG_clean_sbu_0, # of connection points: 4
#     Node 14, Type 0, BuildingBlock: GALJAG_clean_sbu_0, # of connection points: 4
#     Node 15, Type 0, BuildingBlock: GALJAG_clean_sbu_0, # of connection points: 4
#     Node 16, Type 0, BuildingBlock: GALJAG_clean_sbu_0, # of connection points: 4
#     Node 17, Type 0, BuildingBlock: GALJAG_clean_sbu_0, # of connection points: 4
#     Node 18, Type 1, BuildingBlock: NAWXER_clean_linker_0, # of connection points: 4
#     Node 19, Type 1, BuildingBlock: NAWXER_clean_linker_0, # of connection points: 4
#     Node 20, Type 1, BuildingBlock: NAWXER_clean_linker_0, # of connection points: 4
#     Node 21, Type 1, BuildingBlock: NAWXER_clean_linker_0, # of connection points: 4
#     Node 22, Type 1, BuildingBlock: NAWXER_clean_linker_0, # of connection points: 4
#     Node 23, Type 1, BuildingBlock: NAWXER_clean_linker_0, # of connection points: 4
#     Node 24, Type 1, BuildingBlock: NAWXER_clean_linker_0, # of connection points: 4
#     Node 25, Type 1, BuildingBlock: NAWXER_clean_linker_0, # of connection points: 4
#     Node 26, Type 1, BuildingBlock: NAWXER_clean_linker_0, # of connection points: 4
#     Node 27, Type 1, BuildingBlock: NAWXER_clean_linker_0, # of connection points: 4
#     Node 28, Type 1, BuildingBlock: NAWXER_clean_linker_0, # of connection points: 4
#     Node 29, Type 1, BuildingBlock: NAWXER_clean_linker_0, # of connection points: 4
#     Node 30, Type 1, BuildingBlock: NAWXER_clean_linker_0, # of connection points: 4
#     Node 31, Type 1, BuildingBlock: NAWXER_clean_linker_0, # of connection points: 4
#     Node 32, Type 1, BuildingBlock: NAWXER_clean_linker_0, # of connection points: 4
#     Node 33, Type 1, BuildingBlock: NAWXER_clean_linker_0, # of connection points: 4
#     Node 34, Type 1, BuildingBlock: NAWXER_clean_linker_0, # of connection points: 4
#     Node 35, Type 1, BuildingBlock: NAWXER_clean_linker_0, # of connection points: 4
#     Edge 36, Type (0, 1), BuildingBlock: EZIPEK_clean_linker_0, # of connection points: 2
#     Edge 37, Type (0, 1), BuildingBlock: EZIPEK_clean_linker_0, # of connection points: 2
#     Edge 38, Type (0, 1), BuildingBlock: EZIPEK_clean_linker_0, # of connection points: 2
#     Edge 39, Type (0, 1), BuildingBlock: EZIPEK_clean_linker_0, # of connection points: 2
#     Edge 40, Type (0, 1), BuildingBlock: EZIPEK_clean_linker_0, # of connection points: 2
#     Edge 41, Type (0, 1), BuildingBlock: EZIPEK_clean_linker_0, # of connection points: 2
#     Edge 42, Type (0, 1), BuildingBlock: EZIPEK_clean_linker_0, # of connection points: 2
#     Edge 43, Type (0, 1), BuildingBlock: EZIPEK_clean_linker_0, # of connection points: 2
#     Edge 44, Type (0, 1), BuildingBlock: EZIPEK_clean_linker_0, # of connection points: 2
#     Edge 45, Type (0, 1), BuildingBlock: EZIPEK_clean_linker_0, # of connection points: 2
#     Edge 46, Type (0, 1), BuildingBlock: EZIPEK_clean_linker_0, # of connection points: 2
#     Edge 47, Type (0, 1), BuildingBlock: EZIPEK_clean_linker_0, # of connection points: 2
#     Edge 48, Type (0, 1), BuildingBlock: EZIPEK_clean_linker_0, # of connection points: 2
#     Edge 49, Type (0, 1), BuildingBlock: EZIPEK_clean_linker_0, # of connection points: 2
#     Edge 50, Type (0, 1), BuildingBlock: EZIPEK_clean_linker_0, # of connection points: 2
#     Edge 51, Type (0, 1), BuildingBlock: EZIPEK_clean_linker_0, # of connection points: 2
#     Edge 52, Type (0, 1), BuildingBlock: EZIPEK_clean_linker_0, # of connection points: 2
#     Edge 53, Type (0, 1), BuildingBlock: EZIPEK_clean_linker_0, # of connection points: 2
#     Edge 54, Type (0, 1), BuildingBlock: EZIPEK_clean_linker_0, # of connection points: 2
#     Edge 55, Type (0, 1), BuildingBlock: EZIPEK_clean_linker_0, # of connection points: 2
#     Edge 56, Type (0, 1), BuildingBlock: EZIPEK_clean_linker_0, # of connection points: 2
#     Edge 57, Type (0, 1), BuildingBlock: EZIPEK_clean_linker_0, # of connection points: 2
#     Edge 58, Type (0, 1), BuildingBlock: EZIPEK_clean_linker_0, # of connection points: 2
#     Edge 59, Type (0, 1), BuildingBlock: EZIPEK_clean_linker_0, # of connection points: 2
#     Edge 60, Type (0, 1), BuildingBlock: EZIPEK_clean_linker_0, # of connection points: 2
#     Edge 61, Type (0, 1), BuildingBlock: EZIPEK_clean_linker_0, # of connection points: 2
#     Edge 62, Type (0, 1), BuildingBlock: EZIPEK_clean_linker_0, # of connection points: 2
#     Edge 63, Type (0, 1), BuildingBlock: EZIPEK_clean_linker_0, # of connection points: 2
#     Edge 64, Type (0, 1), BuildingBlock: EZIPEK_clean_linker_0, # of connection points: 2
#     Edge 65, Type (0, 1), BuildingBlock: EZIPEK_clean_linker_0, # of connection points: 2
#     Edge 66, Type (0, 1), BuildingBlock: EZIPEK_clean_linker_0, # of connection points: 2
#     Edge 67, Type (0, 1), BuildingBlock: EZIPEK_clean_linker_0, # of connection points: 2
#     Edge 68, Type (0, 1), BuildingBlock: EZIPEK_clean_linker_0, # of connection points: 2
#     Edge 69, Type (0, 1), BuildingBlock: EZIPEK_clean_linker_0, # of connection points: 2
#     Edge 70, Type (0, 1), BuildingBlock: EZIPEK_clean_linker_0, # of connection points: 2
#     Edge 71, Type (0, 1), BuildingBlock: EZIPEK_clean_linker_0, # of connection points: 2
#     Edge 72, Type (0, 1), BuildingBlock: EZIPEK_clean_linker_0, # of connection points: 2
#     Edge 73, Type (0, 1), BuildingBlock: EZIPEK_clean_linker_0, # of connection points: 2
#     Edge 74, Type (0, 1), BuildingBlock: EZIPEK_clean_linker_0, # of connection points: 2
#     Edge 75, Type (0, 1), BuildingBlock: EZIPEK_clean_linker_0, # of connection points: 2
#     Edge 76, Type (0, 1), BuildingBlock: EZIPEK_clean_linker_0, # of connection points: 2
#     Edge 77, Type (0, 1), BuildingBlock: EZIPEK_clean_linker_0, # of connection points: 2
#     Edge 78, Type (0, 1), BuildingBlock: EZIPEK_clean_linker_0, # of connection points: 2
#     Edge 79, Type (0, 1), BuildingBlock: EZIPEK_clean_linker_0, # of connection points: 2
#     Edge 80, Type (0, 1), BuildingBlock: EZIPEK_clean_linker_0, # of connection points: 2
#     Edge 81, Type (0, 1), BuildingBlock: EZIPEK_clean_linker_0, # of connection points: 2
#     Edge 82, Type (0, 1), BuildingBlock: EZIPEK_clean_linker_0, # of connection points: 2
#     Edge 83, Type (0, 1), BuildingBlock: EZIPEK_clean_linker_0, # of connection points: 2
#     Edge 84, Type (0, 1), BuildingBlock: EZIPEK_clean_linker_0, # of connection points: 2
#     Edge 85, Type (0, 1), BuildingBlock: EZIPEK_clean_linker_0, # of connection points: 2
#     Edge 86, Type (0, 1), BuildingBlock: EZIPEK_clean_linker_0, # of connection points: 2
#     Edge 87, Type (0, 1), BuildingBlock: EZIPEK_clean_linker_0, # of connection points: 2
#     Edge 88, Type (0, 1), BuildingBlock: EZIPEK_clean_linker_0, # of connection points: 2
#     Edge 89, Type (0, 1), BuildingBlock: EZIPEK_clean_linker_0, # of connection points: 2
#     Edge 90, Type (0, 1), BuildingBlock: EZIPEK_clean_linker_0, # of connection points: 2
#     Edge 91, Type (0, 1), BuildingBlock: EZIPEK_clean_linker_0, # of connection points: 2
#     Edge 92, Type (0, 1), BuildingBlock: EZIPEK_clean_linker_0, # of connection points: 2
#     Edge 93, Type (0, 1), BuildingBlock: EZIPEK_clean_linker_0, # of connection points: 2
#     Edge 94, Type (0, 1), BuildingBlock: EZIPEK_clean_linker_0, # of connection points: 2
#     Edge 95, Type (0, 1), BuildingBlock: EZIPEK_clean_linker_0, # of connection points: 2
#     Edge 96, Type (0, 1), BuildingBlock: EZIPEK_clean_linker_0, # of connection points: 2
#     Edge 97, Type (0, 1), BuildingBlock: EZIPEK_clean_linker_0, # of connection points: 2
#     Edge 98, Type (0, 1), BuildingBlock: EZIPEK_clean_linker_0, # of connection points: 2
#     Edge 99, Type (0, 1), BuildingBlock: EZIPEK_clean_linker_0, # of connection points: 2
#     Edge 100, Type (0, 1), BuildingBlock: EZIPEK_clean_linker_0, # of connection points: 2
#     Edge 101, Type (0, 1), BuildingBlock: EZIPEK_clean_linker_0, # of connection points: 2
#     Edge 102, Type (0, 1), BuildingBlock: EZIPEK_clean_linker_0, # of connection points: 2
#     Edge 103, Type (0, 1), BuildingBlock: EZIPEK_clean_linker_0, # of connection points: 2
#     Edge 104, Type (0, 1), BuildingBlock: EZIPEK_clean_linker_0, # of connection points: 2
#     Edge 105, Type (0, 1), BuildingBlock: EZIPEK_clean_linker_0, # of connection points: 2
#     Edge 106, Type (0, 1), BuildingBlock: EZIPEK_clean_linker_0, # of connection points: 2
#     Edge 107, Type (0, 1), BuildingBlock: EZIPEK_clean_linker_0, # of connection points: 2
# Relax obj value: 0.045
# Max RMSD: 0.081
# Mean RMSD: 0.066
data_MOF--net-ptr--node1-GALJAG_clean_sbu_0--node2-NAWXER_clean_linker_0--edge1-EZIPEK_clean_linker_0
_symmetry_space_group_name_H-M    P1
_symmetry_Int_Tables_number       1
_symmetry_cell_setting            triclinic
loop_
_symmetry_equiv_pos_as_xyz
'x, y, z'
_cell_length_a     66.81497
_cell_length_b     66.912958
_cell_length_c     52.305271
_cell_angle_alpha  90.0267
_cell_angle_beta   89.981185
_cell_angle_gamma 120.04697
loop_
_atom_site_label
_atom_site_type_symbol
_atom_site_fract_x
_atom_site_fract_y
_atom_site_fract_z
_atom_type_partial_charge
In0 In 0.00275 0.34915 0.00945 0.0
O1 O 0.9792 0.35252 0.03881 0.0
O2 O 0.0147 0.37883 0.03762 0.0
C3 C 0.97282 0.30995 0.98502 0.0
C4 C 0.03168 0.33814 0.03331 0.0
C5 C 0.01175 0.37966 0.97158 0.0
O6 O 0.96712 0.31686 0.0047 0.0
O7 O 0.99355 0.32234 0.97811 0.0
O8 O 0.02722 0.37614 0.98067 0.0
O9 O 0.99209 0.36824 0.98176 0.0
C10 C 0.99517 0.37121 0.04798 0.0
O11 O 0.03735 0.35026 0.01326 0.0
O12 O 0.0112 0.33085 0.04067 0.0
In13 In 0.64987 0.64665 0.0149 0.0
O14 O 0.65119 0.62224 0.04486 0.0
O15 O 0.62081 0.62496 0.04263 0.0
C16 C 0.68841 0.65748 0.98821 0.0
C17 C 0.65837 0.6854 0.04002 0.0
C18 C 0.61984 0.62554 0.97634 0.0
O19 O 0.68209 0.64395 0.00712 0.0
O20 O 0.67576 0.66598 0.9832 0.0
O21 O 0.6255 0.64569 0.98359 0.0
O22 O 0.62892 0.61596 0.98876 0.0
C23 C 0.63129 0.61607 0.05353 0.0
O24 O 0.64109 0.67453 0.02559 0.0
O25 O 0.67163 0.67711 0.04132 0.0
In26 In 0.35087 0.00176 0.01444 0.0
O27 O 0.35783 0.03719 1.00073 0.0
O28 O 0.32578 0.00787 0.99055 0.0
C29 C 0.37953 0.01413 0.05496 0.0
C30 C 0.37194 0.99267 0.97581 0.0
C31 C 0.31328 0.97018 0.04008 0.0
O32 O 0.37199 0.02675 0.04633 0.0
O33 O 0.37303 0.99552 0.0429 0.0
O34 O 0.32184 0.96477 0.02162 0.0
O35 O 0.32334 0.99148 0.04511 0.0
C36 C 0.33899 0.02936 0.98878 0.0
O37 O 0.35105 0.97915 0.98156 0.0
O38 O 0.38225 0.01028 0.98982 0.0
In39 In 0.0008 0.65198 0.0128 0.0
O40 O 0.02286 0.65353 0.97838 0.0
O41 O 0.99325 0.6213 0.9878 0.0
C42 C 0.03163 0.68989 0.03863 0.0
C43 C 0.9714 0.66113 0.98712 0.0
C44 C 0.98978 0.62296 0.05274 0.0
O45 O 0.03756 0.67768 0.02581 0.0
O46 O 0.01042 0.68355 0.03745 0.0
O47 O 0.97754 0.63176 0.04664 0.0
O48 O 0.00709 0.62855 0.03865 0.0
C49 C 0.01017 0.63239 0.973 0.0
O50 O 0.96444 0.64334 1.00087 0.0
O51 O 0.99297 0.67464 0.98712 0.0
In52 In 0.35289 0.3498 0.01192 0.0
O53 O 0.35133 0.36703 0.97454 0.0
O54 O 0.38417 0.37801 0.99108 0.0
C55 C 0.31416 0.34207 0.0365 0.0
C56 C 0.34556 0.31171 0.98659 0.0
C57 C 0.38158 0.36655 0.05226 0.0
O58 O 0.32526 0.35923 0.02196 0.0
O59 O 0.32227 0.32869 0.0382 0.0
O60 O 0.37521 0.34671 0.04322 0.0
O61 O 0.37377 0.37783 0.04086 0.0
C62 C 0.37296 0.37984 0.97279 0.0
O63 O 0.36284 0.32281 1.00097 0.0
O64 O 0.33176 0.31934 0.98554 0.0
In65 In 0.65551 0.0023 0.01527 0.0
O66 O 0.65311 0.0278 0.04279 0.0
O67 O 0.62444 0.99363 0.0403 0.0
C68 C 0.69795 0.03315 0.99837 0.0
C69 C 0.6627 0.96955 0.03634 0.0
C70 C 0.62832 0.9975 0.97468 0.0
O71 O 0.68958 0.03612 0.01876 0.0
O72 O 0.6852 0.01428 0.98701 0.0
O73 O 0.62238 0.98201 0.9915 0.0
O74 O 0.64803 0.01487 0.9781 0.0
C75 C 0.6331 0.01326 0.05053 0.0
O76 O 0.65471 0.96752 0.01403 0.0
O77 O 0.66737 0.98803 0.04752 0.0
In78 In 0.66318 0.68106 0.34872 0.0
O79 O 0.64063 0.68474 0.37914 0.0
O80 O 0.67508 0.71262 0.37394 0.0
C81 C 0.63345 0.64143 0.32485 0.0
C82 C 0.69206 0.6709 0.37386 0.0
C83 C 0.67083 0.7096 0.30919 0.0
O84 O 0.62757 0.64883 0.34401 0.0
O85 O 0.65436 0.65356 0.31841 0.0
O86 O 0.68607 0.70512 0.31699 0.0
O87 O 0.65202 0.69996 0.32141 0.0
C88 C 0.65627 0.70462 0.38602 0.0
O89 O 0.69861 0.68444 0.35495 0.0
O90 O 0.67101 0.66213 0.37967 0.0
In91 In 0.31967 0.98686 0.34696 0.0
O92 O 0.31546 0.95976 0.37648 0.0
O93 O 0.28992 0.96995 0.37514 0.0
C94 C 0.35843 0.99529 0.32205 0.0
C95 C 0.33173 0.02699 0.37086 0.0
C96 C 0.28879 0.96565 0.30931 0.0
O97 O 0.35147 0.98271 0.34174 0.0
O98 O 0.34632 0.00398 0.31539 0.0
O99 O 0.29328 0.98513 0.31784 0.0
O100 O 0.29946 0.95682 0.31992 0.0
C101 C 0.29696 0.95762 0.38558 0.0
O102 O 0.31915 0.02055 0.35113 0.0
O103 O 0.33893 0.01368 0.37788 0.0
In104 In 0.01821 0.33451 0.34315 0.0
O105 O 0.0276 0.37083 0.32999 0.0
O106 O 0.99428 0.34315 0.32053 0.0
C107 C 0.04703 0.34387 0.38298 0.0
C108 C 0.03803 0.32452 0.30402 0.0
C109 C 0.97992 0.30341 0.36811 0.0
O110 O 0.04 0.35746 0.3763 0.0
O111 O 0.0399 0.32595 0.36948 0.0
O112 O 0.98741 0.2982 0.34851 0.0
O113 O 0.99134 0.32439 0.37459 0.0
C114 C 0.00873 0.36436 0.31853 0.0
O115 O 0.04877 0.34244 0.31749 0.0
O116 O 0.01724 0.31125 0.31037 0.0
In117 In 0.66597 0.98368 0.34341 0.0
O118 O 0.69061 0.98086 0.31507 0.0
O119 O 0.65497 0.955 0.31414 0.0
C120 C 0.69622 0.02287 0.3678 0.0
C121 C 0.6363 0.99342 0.31892 0.0
C122 C 0.65732 0.95357 0.38187 0.0
O123 O 0.70105 0.01666 0.347 0.0
O124 O 0.6759 0.00983 0.37573 0.0
O125 O 0.64305 0.95983 0.37545 0.0
O126 O 0.6756 0.96217 0.36875 0.0
C127 C 0.67488 0.96264 0.30483 0.0
O128 O 0.62962 0.97755 0.33536 0.0
O129 O 0.65785 0.00489 0.31551 0.0
In130 In 0.01447 0.67952 0.34701 0.0
O131 O 0.01745 0.70502 0.31601 0.0
O132 O 0.04536 0.69845 0.32059 0.0
C133 C 0.97434 0.66928 0.36987 0.0
C134 C 0.00468 0.64029 0.32244 0.0
C135 C 0.04352 0.70093 0.38627 0.0
O136 O 0.9835 0.68476 0.35298 0.0
O137 O 0.98495 0.65857 0.37471 0.0
O138 O 0.04076 0.68227 0.37704 0.0
O139 O 0.03195 0.70877 0.37567 0.0
C140 C 0.03709 0.70898 0.30853 0.0
O141 O 0.01661 0.64667 0.34267 0.0
O142 O 0.99699 0.65316 0.31527 0.0
In143 In 0.3162 0.33147 0.34824 0.0
O144 O 0.31585 0.29712 0.35009 0.0
O145 O 0.33439 0.32239 0.37874 0.0
C146 C 0.28812 0.32671 0.30888 0.0
C147 C 0.29144 0.335 0.3869 0.0
C148 C 0.35659 0.36201 0.32642 0.0
O149 O 0.2897 0.30987 0.31742 0.0
O150 O 0.30035 0.34561 0.32031 0.0
O151 O 0.34937 0.36669 0.34666 0.0
O152 O 0.34392 0.34183 0.31798 0.0
C153 C 0.32778 0.30236 0.37035 0.0
O154 O 0.30968 0.35229 0.37859 0.0
O155 O 0.28572 0.31621 0.37567 0.0
In156 In 0.33597 0.01718 0.67711 0.0
O157 O 0.3726 0.02328 0.68285 0.0
O158 O 0.34635 0.00104 0.70884 0.0
C159 C 0.34824 0.04633 0.6372 0.0
C160 C 0.32707 0.03803 0.71615 0.0
C161 C 0.30395 0.97834 0.65324 0.0
O162 O 0.33014 0.04024 0.65011 0.0
O163 O 0.36047 0.03784 0.64439 0.0
O164 O 0.29898 0.99219 0.66391 0.0
O165 O 0.32472 0.98344 0.65566 0.0
C166 C 0.36736 0.01068 0.70252 0.0
O167 O 0.31694 0.01633 0.71391 0.0
O168 O 0.34116 0.04901 0.69845 0.0
In169 In 0.98169 0.31792 0.68056 0.0
O170 O 0.97156 0.34545 0.68603 0.0
O171 O 0.00053 0.34932 0.70704 0.0
C172 C 0.95447 0.29544 0.64045 0.0
C173 C 0.96052 0.28701 0.71856 0.0
C174 C 0.02204 0.32923 0.65733 0.0
O175 O 0.95726 0.31454 0.64819 0.0
O176 O 0.96516 0.28758 0.65296 0.0
O177 O 0.01568 0.31762 0.67776 0.0
O178 O 0.00864 0.33602 0.64936 0.0
C179 C 0.98722 0.35705 0.70206 0.0
O180 O 0.98123 0.29398 0.71228 0.0
O181 O 0.95065 0.29555 0.7058 0.0
In182 In 0.6849 0.66978 0.67911 0.0
O183 O 0.69225 0.70619 0.66946 0.0
O184 O 0.66413 0.67791 0.65054 0.0
C185 C 0.71515 0.67994 0.71787 0.0
C186 C 0.70446 0.65883 0.64049 0.0
C187 C 0.64616 0.64054 0.70492 0.0
O188 O 0.70854 0.69374 0.71076 0.0
O189 O 0.70681 0.66138 0.70532 0.0
O190 O 0.65501 0.63364 0.6883 0.0
O191 O 0.65642 0.6621 0.70816 0.0
C192 C 0.67613 0.69949 0.65332 0.0
O193 O 0.68403 0.64529 0.64786 0.0
O194 O 0.71496 0.67758 0.65267 0.0
In195 In 0.33418 0.31812 0.67863 0.0
O196 O 0.35989 0.32077 0.64786 0.0
O197 O 0.32772 0.28937 0.6508 0.0
C198 C 0.36171 0.35711 0.70482 0.0
C199 C 0.30323 0.32583 0.65375 0.0
C200 C 0.32576 0.28767 0.71673 0.0
O201 O 0.36937 0.34945 0.68766 0.0
O202 O 0.34018 0.34547 0.70848 0.0
O203 O 0.31081 0.29272 0.70946 0.0
O204 O 0.34465 0.29771 0.70474 0.0
C205 C 0.34685 0.30063 0.63945 0.0
O206 O 0.29717 0.30929 0.66919 0.0
O207 O 0.32478 0.33865 0.6512 0.0
In208 In 0.68383 0.01865 0.68031 0.0
O209 O 0.6851 0.04088 0.64636 0.0
O210 O 0.7147 0.03769 0.65375 0.0
C211 C 0.64696 0.01681 0.70329 0.0
C212 C 0.67086 0.97838 0.65588 0.0
C213 C 0.71322 0.03633 0.72024 0.0
O214 O 0.65939 0.0324 0.6875 0.0
O215 O 0.65275 0.00178 0.70728 0.0
O216 O 0.7033 0.0151 0.71469 0.0
O217 O 0.7085 0.04837 0.70564 0.0
C218 C 0.70531 0.04603 0.63982 0.0
O219 O 0.68951 0.98898 0.6683 0.0
O220 O 0.65816 0.98731 0.65699 0.0
In221 In 0.98175 0.66631 0.67866 0.0
O222 O 0.97636 0.63011 0.685 0.0
O223 O 0.99975 0.65713 0.70951 0.0
C224 C 0.95245 0.65592 0.63871 0.0
C225 C 0.96118 0.67496 0.7178 0.0
C226 C 0.02049 0.69869 0.65509 0.0
O227 O 0.96498 0.64688 0.6413 0.0
O228 O 0.95427 0.6694 0.6565 0.0
O229 O 0.00748 0.70377 0.66757 0.0
O230 O 0.01458 0.67764 0.65551 0.0
C231 C 0.98997 0.63598 0.70386 0.0
O232 O 0.98152 0.68938 0.71074 0.0
O233 O 0.95132 0.65639 0.70512 0.0
C234 C 0.23997 0.3446 0.11709 0.0
C235 C 0.23623 0.32808 0.09834 0.0
C236 C 0.22182 0.34186 0.13269 0.0
C237 C 0.19961 0.32259 0.12974 0.0
C238 C 0.21404 0.30879 0.09534 0.0
C239 C 0.19578 0.3062 0.11078 0.0
C240 C 0.18013 0.32042 0.14525 0.0
C241 C 0.21864 0.30384 0.2074 0.0
C242 C 0.23134 0.32306 0.22332 0.0
C243 C 0.20323 0.30396 0.18935 0.0
C244 C 0.20008 0.32313 0.18741 0.0
C245 C 0.22907 0.34269 0.22027 0.0
C246 C 0.2133 0.34258 0.20272 0.0
C247 C 0.18099 0.32187 0.17209 0.0
C248 C 0.08583 0.30136 0.20285 0.0
C249 C 0.09234 0.3171 0.22319 0.0
C250 C 0.10259 0.30239 0.18592 0.0
C251 C 0.12598 0.31933 0.18907 0.0
C252 C 0.11561 0.33402 0.22623 0.0
C253 C 0.13229 0.33505 0.20941 0.0
C254 C 0.14438 0.31995 0.17272 0.0
C255 C 0.10166 0.33674 0.12003 0.0
C256 C 0.09393 0.32362 0.09752 0.0
C257 C 0.11755 0.33506 0.13593 0.0
C258 C 0.12539 0.31961 0.13008 0.0
C259 C 0.10192 0.3084 0.09142 0.0
C260 C 0.11745 0.30636 0.10761 0.0
C261 C 0.14358 0.31884 0.14566 0.0
H262 H 0.25696 0.35964 0.11957 0.0
H263 H 0.22503 0.35507 0.1467 0.0
H264 H 0.21088 0.29588 0.08096 0.0
H265 H 0.17871 0.29137 0.10801 0.0
H266 H 0.22006 0.2885 0.20961 0.0
H267 H 0.19292 0.2887 0.17787 0.0
H268 H 0.23868 0.35765 0.23241 0.0
H269 H 0.21093 0.35743 0.20158 0.0
H270 H 0.0679 0.28816 0.20032 0.0
H271 H 0.09736 0.28973 0.17075 0.0
H272 H 0.12088 0.3463 0.24183 0.0
H273 H 0.15021 0.34815 0.21234 0.0
H274 H 0.09592 0.34881 0.12487 0.0
H275 H 0.12415 0.34639 0.15234 0.0
H276 H 0.09632 0.29831 0.07399 0.0
H277 H 0.12352 0.29462 0.10238 0.0
N278 N 0.16146 0.31892 0.13303 0.0
N279 N 0.16314 0.32157 0.18475 0.0
C280 C 0.6593 0.89546 0.11914 0.0
C281 C 0.67364 0.9038 0.09755 0.0
C282 C 0.66067 0.87971 0.13555 0.0
C283 C 0.67677 0.87242 0.13095 0.0
C284 C 0.68947 0.8963 0.09266 0.0
C285 C 0.69102 0.88075 0.10923 0.0
C286 C 0.67744 0.85459 0.14716 0.0
C287 C 0.69441 0.91302 0.20317 0.0
C288 C 0.67932 0.90665 0.22413 0.0
C289 C 0.69306 0.89615 0.18624 0.0
C290 C 0.6764 0.87277 0.18997 0.0
C291 C 0.66257 0.88343 0.22768 0.0
C292 C 0.66115 0.86664 0.21079 0.0
C293 C 0.67603 0.8542 0.17418 0.0
C294 C 0.69113 0.77677 0.2059 0.0
C295 C 0.67522 0.76818 0.22614 0.0
C296 C 0.69061 0.79235 0.18842 0.0
C297 C 0.67416 0.79947 0.19104 0.0
C298 C 0.65851 0.77487 0.22843 0.0
C299 C 0.65808 0.7905 0.21111 0.0
C300 C 0.67498 0.81799 0.17483 0.0
C301 C 0.65427 0.75848 0.12086 0.0
C302 C 0.67078 0.76267 0.10189 0.0
C303 C 0.65638 0.77652 0.13622 0.0
C304 C 0.67501 0.79903 0.13279 0.0
C305 C 0.68945 0.78514 0.09848 0.0
C306 C 0.6914 0.80325 0.11365 0.0
C307 C 0.67658 0.81842 0.14793 0.0
H308 H 0.64681 0.90089 0.12303 0.0
H309 H 0.64875 0.87287 0.15147 0.0
H310 H 0.70055 0.90244 0.07597 0.0
H311 H 0.7033 0.87511 0.105 0.0
H312 H 0.70753 0.93091 0.2003 0.0
H313 H 0.70544 0.90128 0.17077 0.0
H314 H 0.65082 0.87827 0.2438 0.0
H315 H 0.6483 0.84874 0.21422 0.0
H316 H 0.70422 0.77184 0.20403 0.0
H317 H 0.70357 0.79945 0.17349 0.0
H318 H 0.64618 0.76844 0.24402 0.0
H319 H 0.64537 0.79589 0.21363 0.0
H320 H 0.63972 0.74126 0.12368 0.0
H321 H 0.64321 0.77296 0.15043 0.0
H322 H 0.70234 0.78865 0.08393 0.0
H323 H 0.70575 0.82054 0.11053 0.0
N324 N 0.67783 0.83671 0.13517 0.0
N325 N 0.67474 0.83586 0.18679 0.0
C326 C 0.1076 0.75946 0.12351 0.0
C327 C 0.09744 0.76459 0.10293 0.0
C328 C 0.12345 0.77712 0.13939 0.0
C329 C 0.12922 0.80012 0.13502 0.0
C330 C 0.10333 0.78754 0.09839 0.0
C331 C 0.11923 0.8052 0.11422 0.0
C332 C 0.14665 0.81916 0.15096 0.0
C333 C 0.08765 0.77619 0.20581 0.0
C334 C 0.09431 0.76898 0.22782 0.0
C335 C 0.10445 0.792 0.18901 0.0
C336 C 0.12808 0.80044 0.19381 0.0
C337 C 0.11779 0.77722 0.2325 0.0
C338 C 0.13452 0.79282 0.21568 0.0
C339 C 0.14645 0.8189 0.17797 0.0
C340 C 0.21949 0.91419 0.20838 0.0
C341 C 0.2285 0.9083 0.22944 0.0
C342 C 0.20469 0.89711 0.19117 0.0
C343 C 0.19886 0.874 0.19484 0.0
C344 C 0.22282 0.88529 0.23297 0.0
C345 C 0.20804 0.86828 0.21589 0.0
C346 C 0.18164 0.85524 0.17847 0.0
C347 C 0.24247 0.89843 0.12741 0.0
C348 C 0.23744 0.90503 0.1039 0.0
C349 C 0.22466 0.88237 0.14298 0.0
C350 C 0.20137 0.87334 0.13586 0.0
C351 C 0.21428 0.89562 0.09641 0.0
C352 C 0.19643 0.88006 0.1123 0.0
C353 C 0.18211 0.8554 0.15143 0.0
H354 H 0.10329 0.74182 0.12717 0.0
H355 H 0.13142 0.77284 0.15485 0.0
H356 H 0.09564 0.79176 0.08257 0.0
H357 H 0.12363 0.82284 0.11032 0.0
H358 H 0.06954 0.77002 0.20205 0.0
H359 H 0.09899 0.79812 0.17278 0.0
H360 H 0.12318 0.7718 0.24941 0.0
H361 H 0.15259 0.79919 0.21995 0.0
H362 H 0.22361 0.93189 0.20555 0.0
H363 H 0.19737 0.90184 0.17542 0.0
H364 H 0.22958 0.88047 0.24919 0.0
H365 H 0.2036 0.85054 0.21924 0.0
H366 H 0.26025 0.90528 0.13339 0.0
H367 H 0.22923 0.87669 0.16024 0.0
H368 H 0.21003 0.90034 0.07823 0.0
H369 H 0.17871 0.87311 0.10605 0.0
N370 N 0.16443 0.83741 0.13884 0.0
N371 N 0.16396 0.83694 0.1905 0.0
C372 C 0.32937 0.09555 0.82117 0.0
C373 C 0.31533 0.08884 0.79927 0.0
C374 C 0.32886 0.1112 0.83851 0.0
C375 C 0.31341 0.11951 0.83502 0.0
C376 C 0.29967 0.09679 0.7959 0.0
C377 C 0.29858 0.11178 0.8137 0.0
C378 C 0.31471 0.13859 0.85091 0.0
C379 C 0.30505 0.08456 0.9091 0.0
C380 C 0.32422 0.09162 0.92526 0.0
C381 C 0.30343 0.10061 0.89336 0.0
C382 C 0.32099 0.12391 0.8936 0.0
C383 C 0.34156 0.11493 0.92577 0.0
C384 C 0.33986 0.13097 0.91021 0.0
C385 C 0.31956 0.14131 0.87744 0.0
C386 C 0.31296 0.22523 0.90548 0.0
C387 C 0.33177 0.23553 0.92238 0.0
C388 C 0.30959 0.20664 0.89018 0.0
C389 C 0.32515 0.1983 0.89144 0.0
C390 C 0.34724 0.22718 0.92376 0.0
C391 C 0.34388 0.20864 0.90849 0.0
C392 C 0.32138 0.17793 0.87646 0.0
C393 C 0.33404 0.23144 0.81562 0.0
C394 C 0.31622 0.22438 0.79756 0.0
C395 C 0.33366 0.21571 0.83351 0.0
C396 C 0.31532 0.19273 0.83372 0.0
C397 C 0.29765 0.20163 0.79811 0.0
C398 C 0.29728 0.18591 0.81596 0.0
C399 C 0.31605 0.17503 0.85011 0.0
H400 H 0.34169 0.08973 0.82402 0.0
H401 H 0.34142 0.11756 0.85383 0.0
H402 H 0.28874 0.09191 0.77909 0.0
H403 H 0.28667 0.11804 0.81027 0.0
H404 H 0.29146 0.06663 0.90859 0.0
H405 H 0.28847 0.09486 0.88111 0.0
H406 H 0.35644 0.12067 0.93816 0.0
H407 H 0.35349 0.14889 0.91088 0.0
H408 H 0.30081 0.23144 0.90435 0.0
H409 H 0.29464 0.19856 0.87774 0.0
H410 H 0.36182 0.23496 0.93675 0.0
H411 H 0.35597 0.20237 0.90997 0.0
H412 H 0.3486 0.2489 0.81527 0.0
H413 H 0.34814 0.22127 0.84645 0.0
H414 H 0.28383 0.19588 0.78421 0.0
H415 H 0.2831 0.16824 0.81554 0.0
N416 N 0.31296 0.15551 0.83852 0.0
N417 N 0.3229 0.16095 0.889 0.0
C418 C 0.91568 0.22176 0.90609 0.0
C419 C 0.90828 0.23326 0.92267 0.0
C420 C 0.89962 0.20337 0.89111 0.0
C421 C 0.87597 0.19632 0.8925 0.0
C422 C 0.88473 0.22629 0.92407 0.0
C423 C 0.86868 0.20785 0.90923 0.0
C424 C 0.85849 0.17591 0.87818 0.0
C425 C 0.89757 0.22815 0.81658 0.0
C426 C 0.90836 0.22135 0.79832 0.0
C427 C 0.88262 0.21235 0.83468 0.0
C428 C 0.87838 0.18953 0.83494 0.0
C429 C 0.90453 0.19873 0.7988 0.0
C430 C 0.88952 0.1829 0.81686 0.0
C431 C 0.86053 0.17197 0.85203 0.0
C432 C 0.76863 0.09605 0.82155 0.0
C433 C 0.77547 0.08459 0.80418 0.0
C434 C 0.7844 0.11156 0.83935 0.0
C435 C 0.80727 0.11587 0.83996 0.0
C436 C 0.79789 0.08786 0.80579 0.0
C437 C 0.81373 0.10358 0.82335 0.0
C438 C 0.8253 0.13569 0.85453 0.0
C439 C 0.78411 0.08758 0.92053 0.0
C440 C 0.77471 0.09689 0.93806 0.0
C441 C 0.79897 0.10102 0.90081 0.0
C442 C 0.80396 0.12379 0.89726 0.0
C443 C 0.7773 0.1186 0.9315 0.0
C444 C 0.79234 0.13212 0.91213 0.0
C445 C 0.82304 0.13995 0.88049 0.0
H446 H 0.93383 0.22696 0.90489 0.0
H447 H 0.90561 0.19439 0.87887 0.0
H448 H 0.8788 0.23502 0.9368 0.0
H449 H 0.85053 0.20258 0.91081 0.0
H450 H 0.90018 0.24549 0.81631 0.0
H451 H 0.87372 0.21777 0.84781 0.0
H452 H 0.91264 0.19319 0.78473 0.0
H453 H 0.88631 0.16534 0.81647 0.0
H454 H 0.75144 0.09383 0.82048 0.0
H455 H 0.77913 0.12122 0.85149 0.0
H456 H 0.80347 0.0792 0.79252 0.0
H457 H 0.83132 0.10681 0.8233 0.0
H458 H 0.78027 0.0699 0.92178 0.0
H459 H 0.80719 0.09388 0.88901 0.0
H460 H 0.76788 0.12565 0.94093 0.0
H461 H 0.79511 0.14933 0.90892 0.0
N462 N 0.83975 0.15983 0.89124 0.0
N463 N 0.84395 0.15191 0.84133 0.0
C464 C 0.77736 0.69273 0.90885 0.0
C465 C 0.76534 0.67294 0.92407 0.0
C466 C 0.79581 0.69559 0.89358 0.0
C467 C 0.80243 0.67868 0.89338 0.0
C468 C 0.77192 0.65607 0.92393 0.0
C469 C 0.79046 0.65902 0.90885 0.0
C470 C 0.82255 0.68185 0.87832 0.0
C471 C 0.77006 0.67195 0.81742 0.0
C472 C 0.7775 0.69031 0.80006 0.0
C473 C 0.78545 0.67173 0.83538 0.0
C474 C 0.80849 0.68995 0.8363 0.0
C475 C 0.80024 0.70888 0.80153 0.0
C476 C 0.81565 0.70861 0.81939 0.0
C477 C 0.82589 0.68826 0.85227 0.0
C478 C 0.89991 0.66969 0.81861 0.0
C479 C 0.91078 0.68735 0.80045 0.0
C480 C 0.88471 0.67037 0.8365 0.0
C481 C 0.88029 0.68884 0.83657 0.0
C482 C 0.90704 0.70619 0.80105 0.0
C483 C 0.8918 0.70685 0.81887 0.0
C484 C 0.86149 0.68794 0.85244 0.0
C485 C 0.91464 0.6934 0.90899 0.0
C486 C 0.90704 0.67402 0.92487 0.0
C487 C 0.89888 0.69588 0.89366 0.0
C488 C 0.87531 0.679 0.89398 0.0
C489 C 0.8835 0.65723 0.92534 0.0
C490 C 0.86772 0.6598 0.91016 0.0
C491 C 0.85828 0.68178 0.87857 0.0
H492 H 0.7725 0.70592 0.90888 0.0
H493 H 0.80512 0.71116 0.88228 0.0
H494 H 0.76281 0.64073 0.93564 0.0
H495 H 0.79539 0.64586 0.90915 0.0
H496 H 0.75261 0.6574 0.81638 0.0
H497 H 0.77964 0.65682 0.84768 0.0
H498 H 0.80627 0.72312 0.78819 0.0
H499 H 0.83338 0.7227 0.81956 0.0
H500 H 0.90245 0.65492 0.81822 0.0
H501 H 0.87556 0.65591 0.84938 0.0
H502 H 0.91521 0.71989 0.78705 0.0
H503 H 0.88846 0.72111 0.81836 0.0
H504 H 0.93275 0.70657 0.90851 0.0
H505 H 0.90507 0.71114 0.88184 0.0
H506 H 0.87737 0.64218 0.93751 0.0
H507 H 0.8496 0.64668 0.91089 0.0
N508 N 0.83887 0.67884 0.89041 0.0
N509 N 0.84524 0.69108 0.84043 0.0
C510 C 0.74788 0.637 0.45135 0.0
C511 C 0.75547 0.65613 0.43509 0.0
C512 C 0.7638 0.6343 0.46613 0.0
C513 C 0.7875 0.65069 0.46478 0.0
C514 C 0.7791 0.67244 0.43365 0.0
C515 C 0.79502 0.66964 0.44823 0.0
C516 C 0.80474 0.64778 0.47952 0.0
C517 C 0.76537 0.66231 0.54039 0.0
C518 C 0.75471 0.6449 0.55888 0.0
C519 C 0.78031 0.66133 0.52234 0.0
C520 C 0.78469 0.64285 0.52247 0.0
C521 C 0.7585 0.6261 0.55855 0.0
C522 C 0.77351 0.62517 0.54061 0.0
C523 C 0.80289 0.64319 0.50599 0.0
C524 C 0.89686 0.65836 0.53379 0.0
C525 C 0.89 0.64433 0.55569 0.0
C526 C 0.88032 0.65767 0.51688 0.0
C527 C 0.85663 0.64196 0.52072 0.0
C528 C 0.86644 0.62856 0.55951 0.0
C529 C 0.84998 0.62724 0.54209 0.0
C530 C 0.83843 0.64263 0.50495 0.0
C531 C 0.88469 0.63495 0.4478 0.0
C532 C 0.8955 0.65355 0.43071 0.0
C533 C 0.86643 0.63245 0.46319 0.0
C534 C 0.85905 0.64877 0.46195 0.0
C535 C 0.88768 0.66942 0.4289 0.0
C536 C 0.86956 0.667 0.44432 0.0
C537 C 0.84006 0.64686 0.47827 0.0
H538 H 0.72967 0.62423 0.45256 0.0
H539 H 0.75766 0.61927 0.47833 0.0
H540 H 0.78518 0.68727 0.42115 0.0
H541 H 0.81322 0.68238 0.44675 0.0
H542 H 0.76276 0.67704 0.54054 0.0
H543 H 0.78919 0.67552 0.50905 0.0
H544 H 0.75048 0.61258 0.57278 0.0
H545 H 0.77683 0.6109 0.54125 0.0
H546 H 0.91495 0.67078 0.53059 0.0
H547 H 0.88613 0.67015 0.50151 0.0
H548 H 0.86074 0.61767 0.57634 0.0
H549 H 0.83189 0.61517 0.54582 0.0
H550 H 0.8905 0.62251 0.44933 0.0
H551 H 0.85819 0.6179 0.47613 0.0
H552 H 0.89585 0.68384 0.41577 0.0
H553 H 0.86401 0.67965 0.44282 0.0
N554 N 0.82324 0.64945 0.46676 0.0
N555 N 0.81976 0.64078 0.51755 0.0
C556 C 0.33375 0.23468 0.45639 0.0
C557 C 0.34625 0.24231 0.43346 0.0
C558 C 0.33681 0.21984 0.47262 0.0
C559 C 0.35293 0.21287 0.46656 0.0
C560 C 0.36213 0.23519 0.42717 0.0
C561 C 0.36548 0.22065 0.4436 0.0
C562 C 0.35518 0.1957 0.48242 0.0
C563 C 0.37253 0.25362 0.53995 0.0
C564 C 0.3562 0.24679 0.55978 0.0
C565 C 0.37182 0.23721 0.52274 0.0
C566 C 0.3549 0.21381 0.52537 0.0
C567 C 0.33904 0.22352 0.56198 0.0
C568 C 0.33852 0.20715 0.54506 0.0
C569 C 0.35525 0.19575 0.50944 0.0
C570 C 0.37435 0.11942 0.53736 0.0
C571 C 0.35921 0.11044 0.55827 0.0
C572 C 0.37348 0.13566 0.5212 0.0
C573 C 0.35728 0.14287 0.52565 0.0
C574 C 0.34319 0.11773 0.56277 0.0
C575 C 0.34231 0.13388 0.54669 0.0
C576 C 0.35642 0.16064 0.5096 0.0
C577 C 0.33631 0.09995 0.45757 0.0
C578 C 0.34872 0.10481 0.43458 0.0
C579 C 0.33876 0.11788 0.47336 0.0
C580 C 0.3543 0.14102 0.46689 0.0
C581 C 0.36395 0.12787 0.42783 0.0
C582 C 0.36677 0.1458 0.44389 0.0
C583 C 0.35607 0.16035 0.48256 0.0
H584 H 0.3212 0.23977 0.46139 0.0
H585 H 0.32601 0.21329 0.48944 0.0
H586 H 0.37179 0.24076 0.40945 0.0
H587 H 0.37772 0.21525 0.43822 0.0
H588 H 0.38601 0.2715 0.53814 0.0
H589 H 0.38487 0.24264 0.50796 0.0
H590 H 0.32638 0.21794 0.57723 0.0
H591 H 0.32544 0.18918 0.54754 0.0
H592 H 0.38686 0.11396 0.53372 0.0
H593 H 0.38558 0.14275 0.50546 0.0
H594 H 0.3314 0.11095 0.57884 0.0
H595 H 0.32981 0.13929 0.55064 0.0
H596 H 0.32423 0.08226 0.46293 0.0
H597 H 0.32802 0.11358 0.49025 0.0
H598 H 0.37349 0.13195 0.41002 0.0
H599 H 0.37854 0.16347 0.4382 0.0
N600 N 0.35568 0.17801 0.47014 0.0
N601 N 0.35581 0.17822 0.52183 0.0
C602 C 0.77008 0.09348 0.45308 0.0
C603 C 0.76182 0.09884 0.43095 0.0
C604 C 0.78629 0.11108 0.46875 0.0
C605 C 0.794 0.13436 0.463 0.0
C606 C 0.76987 0.12206 0.42484 0.0
C607 C 0.78578 0.13965 0.44075 0.0
C608 C 0.81184 0.15336 0.4788 0.0
C609 C 0.75321 0.11151 0.53476 0.0
C610 C 0.76007 0.10473 0.55695 0.0
C611 C 0.76987 0.12712 0.51767 0.0
C612 C 0.79353 0.13553 0.52221 0.0
C613 C 0.78361 0.11313 0.56148 0.0
C614 C 0.80015 0.12831 0.54428 0.0
C615 C 0.81188 0.15342 0.50585 0.0
C616 C 0.88962 0.24702 0.53564 0.0
C617 C 0.89695 0.23995 0.55722 0.0
C618 C 0.87413 0.23059 0.51828 0.0
C619 C 0.86618 0.20697 0.52214 0.0
C620 C 0.88923 0.21647 0.56091 0.0
C621 C 0.87398 0.20015 0.54355 0.0
C622 C 0.84803 0.18888 0.50583 0.0
C623 C 0.90854 0.23013 0.45371 0.0
C624 C 0.90353 0.23794 0.43101 0.0
C625 C 0.89067 0.21417 0.46929 0.0
C626 C 0.86744 0.20639 0.46298 0.0
C627 C 0.88037 0.22969 0.42425 0.0
C628 C 0.86251 0.21415 0.44014 0.0
C629 C 0.84811 0.18891 0.47879 0.0
H630 H 0.76428 0.07566 0.45793 0.0
H631 H 0.79304 0.10645 0.48511 0.0
H632 H 0.76387 0.12653 0.40771 0.0
H633 H 0.79173 0.15745 0.43563 0.0
H634 H 0.73506 0.10516 0.53105 0.0
H635 H 0.76428 0.13294 0.50128 0.0
H636 H 0.78917 0.10799 0.57847 0.0
H637 H 0.81824 0.13464 0.54838 0.0
H638 H 0.89538 0.26512 0.53266 0.0
H639 H 0.86791 0.23626 0.50231 0.0
H640 H 0.89475 0.21077 0.57749 0.0
H641 H 0.86797 0.18205 0.54707 0.0
H642 H 0.9263 0.23607 0.45909 0.0
H643 H 0.89511 0.20767 0.48601 0.0
H644 H 0.87615 0.23534 0.40668 0.0
H645 H 0.84478 0.20814 0.43453 0.0
N646 N 0.8299 0.1712 0.46646 0.0
N647 N 0.82999 0.17113 0.51805 0.0
C648 C 0.96723 0.55133 0.15335 0.0
C649 C 0.98223 0.56058 0.13236 0.0
C650 C 0.96865 0.53539 0.1695 0.0
C651 C 0.98531 0.52878 0.165 0.0
C652 C 0.99879 0.55398 0.12788 0.0
C653 C 0.00024 0.53816 0.14397 0.0
C654 C 0.98651 0.51103 0.18076 0.0
C655 C 0.00453 0.57036 0.23427 0.0
C656 C 0.99178 0.56475 0.25709 0.0
C657 C 0.00272 0.55294 0.21805 0.0
C658 C 0.98751 0.52957 0.22391 0.0
C659 C 0.9769 0.54147 0.26324 0.0
C660 C 0.97474 0.52405 0.24675 0.0
C661 C 0.98641 0.51076 0.2078 0.0
C662 C 0.0107 0.43819 0.23382 0.0
C663 C 0.99559 0.42752 0.25443 0.0
C664 C 0.00811 0.45364 0.2181 0.0
C665 C 0.99021 0.45847 0.22265 0.0
C666 C 0.9778 0.4324 0.2591 0.0
C667 C 0.97524 0.44788 0.24343 0.0
C668 C 0.98804 0.47582 0.2072 0.0
C669 C 0.97472 0.41883 0.15067 0.0
C670 C 0.98914 0.42639 0.12908 0.0
C671 C 0.97475 0.43491 0.16786 0.0
C672 C 0.98949 0.45872 0.16384 0.0
C673 C 0.00393 0.45006 0.12517 0.0
C674 C 0.00408 0.46607 0.14236 0.0
C675 C 0.98849 0.47631 0.18019 0.0
H676 H 0.95433 0.55627 0.157 0.0
H677 H 0.95656 0.52798 0.18521 0.0
H678 H 0.0105 0.561 0.11179 0.0
H679 H 0.01309 0.53322 0.13998 0.0
H680 H 0.01632 0.58824 0.22937 0.0
H681 H 0.01367 0.55781 0.20128 0.0
H682 H 0.96709 0.53682 0.28088 0.0
H683 H 0.96321 0.50619 0.25198 0.0
H684 H 0.02459 0.43468 0.23006 0.0
H685 H 0.02032 0.46211 0.2027 0.0
H686 H 0.96602 0.42431 0.27495 0.0
H687 H 0.96152 0.45158 0.2475 0.0
H688 H 0.9631 0.40057 0.15382 0.0
H689 H 0.96282 0.42876 0.18381 0.0
H690 H 0.01514 0.45614 0.10858 0.0
H691 H 0.01545 0.48431 0.13869 0.0
N692 N 0.98771 0.4939 0.16818 0.0
N693 N 0.98694 0.49301 0.21986 0.0
C694 C 0.44992 0.41443 0.15506 0.0
C695 C 0.43971 0.42032 0.13515 0.0
C696 C 0.46455 0.43123 0.17264 0.0
C697 C 0.46927 0.45412 0.17029 0.0
C698 C 0.44387 0.443 0.13339 0.0
C699 C 0.45868 0.45979 0.15067 0.0
C700 C 0.48722 0.47285 0.18604 0.0
C701 C 0.42784 0.43163 0.23977 0.0
C702 C 0.4335 0.42468 0.26267 0.0
C703 C 0.44526 0.447 0.22333 0.0
C704 C 0.46867 0.45522 0.22916 0.0
C705 C 0.45681 0.43303 0.26871 0.0
C706 C 0.47422 0.44811 0.25208 0.0
C707 C 0.48754 0.47292 0.21305 0.0
C708 C 0.56509 0.56921 0.23718 0.0
C709 C 0.5719 0.56425 0.2606 0.0
C710 C 0.54958 0.55135 0.22128 0.0
C711 C 0.54122 0.52814 0.22806 0.0
C712 C 0.56339 0.54115 0.26761 0.0
C713 C 0.5483 0.52328 0.25144 0.0
C714 C 0.52339 0.50883 0.2125 0.0
C715 C 0.58136 0.54567 0.15405 0.0
C716 C 0.57536 0.55566 0.13403 0.0
C717 C 0.56458 0.53102 0.17163 0.0
C718 C 0.54159 0.52605 0.16918 0.0
C719 C 0.55251 0.55107 0.13199 0.0
C720 C 0.53573 0.53623 0.14927 0.0
C721 C 0.52302 0.50854 0.18548 0.0
H722 H 0.44705 0.39704 0.15653 0.0
H723 H 0.4729 0.42661 0.18735 0.0
H724 H 0.43624 0.44786 0.11808 0.0
H725 H 0.46227 0.47738 0.1484 0.0
H726 H 0.40994 0.42557 0.23496 0.0
H727 H 0.44034 0.45296 0.20653 0.0
H728 H 0.4615 0.428 0.2864 0.0
H729 H 0.4921 0.45444 0.25727 0.0
H730 H 0.57125 0.58695 0.23159 0.0
H731 H 0.54363 0.55582 0.20415 0.0
H732 H 0.56829 0.53697 0.28571 0.0
H733 H 0.54188 0.50559 0.2574 0.0
H734 H 0.59889 0.54888 0.15575 0.0
H735 H 0.56935 0.52298 0.18656 0.0
H736 H 0.54756 0.55855 0.1166 0.0
H737 H 0.51806 0.53244 0.14692 0.0
N738 N 0.50491 0.49067 0.17344 0.0
N739 N 0.50566 0.4909 0.22511 0.0
C740 C 0.44563 0.02693 0.24194 0.0
C741 C 0.43407 0.00744 0.2577 0.0
C742 C 0.46346 0.02939 0.22586 0.0
C743 C 0.46985 0.01232 0.22526 0.0
C744 C 0.44054 0.9905 0.25731 0.0
C745 C 0.45842 0.993 0.24134 0.0
C746 C 0.48924 0.01496 0.20913 0.0
C747 C 0.43391 0.00727 0.15423 0.0
C748 C 0.43995 0.02651 0.1381 0.0
C749 C 0.45041 0.00568 0.16919 0.0
C750 C 0.47376 0.02279 0.16795 0.0
C751 C 0.46395 0.04226 0.13524 0.0
C752 C 0.48042 0.04068 0.15025 0.0
C753 C 0.49161 0.02086 0.18292 0.0
C754 C 0.56736 0.00508 0.14675 0.0
C755 C 0.57782 0.02318 0.12901 0.0
C756 C 0.55155 0.00464 0.16461 0.0
C757 C 0.54617 0.02244 0.16513 0.0
C758 C 0.57284 0.04119 0.12981 0.0
C759 C 0.55704 0.04075 0.14764 0.0
C760 C 0.5274 0.02084 0.18166 0.0
C761 C 0.58173 0.02549 0.23684 0.0
C762 C 0.57385 0.007 0.25409 0.0
C763 C 0.56601 0.02803 0.22143 0.0
C764 C 0.5422 0.01191 0.22282 0.0
C765 C 0.55012 0.99102 0.25564 0.0
C766 C 0.53445 0.99349 0.24021 0.0
C767 C 0.52497 0.01486 0.20788 0.0
H768 H 0.44082 0.04017 0.24211 0.0
H769 H 0.47242 0.04473 0.21414 0.0
H770 H 0.43176 0.97537 0.26938 0.0
H771 H 0.46322 0.97975 0.2414 0.0
H772 H 0.41662 0.99264 0.15491 0.0
H773 H 0.44492 0.99059 0.18113 0.0
H774 H 0.47065 0.05556 0.12086 0.0
H775 H 0.49853 0.05339 0.14771 0.0
H776 H 0.57089 0.99095 0.14621 0.0
H777 H 0.54292 0.98996 0.17732 0.0
H778 H 0.5807 0.05522 0.11616 0.0
H779 H 0.55296 0.05451 0.14747 0.0
H780 H 0.6 0.03802 0.23549 0.0
H781 H 0.57243 0.04281 0.20883 0.0
H782 H 0.54376 0.97665 0.26886 0.0
H783 H 0.51619 0.98097 0.24187 0.0
N784 N 0.50593 0.01209 0.22045 0.0
N785 N 0.51067 0.02369 0.17034 0.0
C786 C 0.57551 0.02115 0.78632 0.0
C787 C 0.57118 0.00838 0.76331 0.0
C788 C 0.55784 0.01617 0.80394 0.0
C789 C 0.53565 0.9973 0.80006 0.0
C790 C 0.54953 0.98771 0.7617 0.0
C791 C 0.53186 0.98276 0.77921 0.0
C792 C 0.51588 0.99367 0.8161 0.0
C793 C 0.56364 0.98365 0.86991 0.0
C794 C 0.5667 0.99373 0.89423 0.0
C795 C 0.54711 0.98316 0.853 0.0
C796 C 0.53423 0.99383 0.85963 0.0
C797 C 0.55346 0.00383 0.90105 0.0
C798 C 0.53773 0.00417 0.88389 0.0
C799 C 0.5156 0.99292 0.84314 0.0
C800 C 0.41991 0.97215 0.87259 0.0
C801 C 0.42637 0.98705 0.89375 0.0
C802 C 0.43677 0.97357 0.85553 0.0
C803 C 0.4602 0.99004 0.85941 0.0
C804 C 0.44968 0.00354 0.89746 0.0
C805 C 0.46644 0.00495 0.88053 0.0
C806 C 0.47878 0.99097 0.84313 0.0
C807 C 0.43736 0.01023 0.79091 0.0
C808 C 0.43076 0.99844 0.76747 0.0
C809 C 0.45284 0.00799 0.80698 0.0
C810 C 0.46137 0.99325 0.80033 0.0
C811 C 0.43959 0.98409 0.76053 0.0
C812 C 0.45467 0.98146 0.77685 0.0
C813 C 0.47906 0.99178 0.81614 0.0
H814 H 0.59247 0.03504 0.79131 0.0
H815 H 0.56145 0.02734 0.82036 0.0
H816 H 0.5458 0.97492 0.74712 0.0
H817 H 0.51509 0.96748 0.7764 0.0
H818 H 0.57364 0.97568 0.86429 0.0
H819 H 0.54417 0.97399 0.83512 0.0
H820 H 0.55546 0.01166 0.9197 0.0
H821 H 0.52806 0.01241 0.88984 0.0
H822 H 0.40194 0.95931 0.86952 0.0
H823 H 0.4316 0.96157 0.83968 0.0
H824 H 0.45492 0.01517 0.91367 0.0
H825 H 0.48439 0.01768 0.88402 0.0
H826 H 0.43092 0.02159 0.79645 0.0
H827 H 0.45853 0.01829 0.82423 0.0
H828 H 0.43485 0.97499 0.74243 0.0
H829 H 0.4613 0.97033 0.77098 0.0
N830 N 0.49754 0.99289 0.80382 0.0
N831 N 0.497 0.99158 0.8553 0.0
C832 C 0.99295 0.56623 0.79074 0.0
C833 C 0.00482 0.57348 0.76739 0.0
C834 C 0.99556 0.55074 0.80635 0.0
C835 C 0.01081 0.5429 0.7994 0.0
C836 C 0.01967 0.56532 0.76011 0.0
C837 C 0.02271 0.55027 0.77602 0.0
C838 C 0.01277 0.52531 0.81484 0.0
C839 C 0.03144 0.58387 0.87097 0.0
C840 C 0.01672 0.57746 0.89228 0.0
C841 C 0.03021 0.56697 0.85417 0.0
C842 C 0.01403 0.54352 0.85837 0.0
C843 C 0.00065 0.55411 0.89647 0.0
C844 C 0.99939 0.53729 0.87975 0.0
C845 C 0.01306 0.52505 0.84189 0.0
C846 C 0.0293 0.44752 0.86962 0.0
C847 C 0.01458 0.43936 0.89095 0.0
C848 C 0.02791 0.46289 0.85251 0.0
C849 C 0.0118 0.47024 0.85661 0.0
C850 C 0.99814 0.44624 0.89465 0.0
C851 C 0.99684 0.46163 0.87771 0.0
C852 C 0.01202 0.48881 0.84107 0.0
C853 C 0.9871 0.43015 0.78381 0.0
C854 C 0.99991 0.43516 0.76074 0.0
C855 C 0.99148 0.44739 0.80172 0.0
C856 C 0.00971 0.46994 0.79797 0.0
C857 C 0.02018 0.45714 0.75937 0.0
C858 C 0.02445 0.47446 0.77711 0.0
C859 C 0.0122 0.48923 0.8141 0.0
H860 H 0.9812 0.57213 0.79654 0.0
H861 H 0.98517 0.54452 0.82351 0.0
H862 H 0.02883 0.57055 0.74207 0.0
H863 H 0.03423 0.54418 0.76992 0.0
H864 H 0.04395 0.60187 0.86752 0.0
H865 H 0.04208 0.57216 0.83818 0.0
H866 H 0.98915 0.54891 0.91281 0.0
H867 H 0.98691 0.51934 0.88351 0.0
H868 H 0.0422 0.44247 0.86663 0.0
H869 H 0.04001 0.46971 0.83674 0.0
H870 H 0.9867 0.44013 0.91105 0.0
H871 H 0.98441 0.46719 0.88137 0.0
H872 H 0.97341 0.41292 0.78834 0.0
H873 H 0.98011 0.44318 0.81807 0.0
H874 H 0.0332 0.4615 0.74493 0.0
H875 H 0.03932 0.49153 0.77445 0.0
N876 N 0.01259 0.50747 0.80212 0.0
N877 N 0.0125 0.50674 0.85378 0.0
C878 C 0.55825 0.58448 0.78503 0.0
C879 C 0.56838 0.57684 0.76687 0.0
C880 C 0.53964 0.56852 0.79986 0.0
C881 C 0.53113 0.54469 0.79696 0.0
C882 C 0.5597 0.55311 0.76363 0.0
C883 C 0.54118 0.53716 0.77848 0.0
C884 C 0.51112 0.52737 0.81204 0.0
C885 C 0.56533 0.56594 0.87348 0.0
C886 C 0.5584 0.57616 0.89233 0.0
C887 C 0.54954 0.55147 0.85502 0.0
C888 C 0.52668 0.54717 0.85514 0.0
C889 C 0.53583 0.57251 0.89193 0.0
C890 C 0.52006 0.55801 0.87358 0.0
C891 C 0.50876 0.5291 0.83866 0.0
C892 C 0.43075 0.43533 0.86762 0.0
C893 C 0.42367 0.44224 0.88958 0.0
C894 C 0.44624 0.4518 0.85038 0.0
C895 C 0.45402 0.47543 0.85407 0.0
C896 C 0.43123 0.46573 0.8932 0.0
C897 C 0.44608 0.48211 0.87554 0.0
C898 C 0.47265 0.49359 0.83803 0.0
C899 C 0.41731 0.44742 0.78258 0.0
C900 C 0.42455 0.43641 0.7651 0.0
C901 C 0.43358 0.4658 0.79742 0.0
C902 C 0.45725 0.4731 0.79525 0.0
C903 C 0.44818 0.44416 0.7623 0.0
C904 C 0.46442 0.46242 0.77719 0.0
C905 C 0.47479 0.49204 0.81127 0.0
H906 H 0.56468 0.60277 0.7876 0.0
H907 H 0.53177 0.5748 0.81334 0.0
H908 H 0.56733 0.54696 0.74963 0.0
H909 H 0.5348 0.51891 0.77568 0.0
H910 H 0.58266 0.56847 0.87367 0.0
H911 H 0.55491 0.54284 0.84145 0.0
H912 H 0.53021 0.58021 0.90642 0.0
H913 H 0.50245 0.55473 0.87422 0.0
H914 H 0.42524 0.41728 0.86457 0.0
H915 H 0.45278 0.44602 0.83485 0.0
H916 H 0.42609 0.47145 0.91006 0.0
H917 H 0.45197 0.50017 0.87912 0.0
H918 H 0.3991 0.44168 0.78481 0.0
H919 H 0.42767 0.47417 0.8107 0.0
H920 H 0.454 0.43584 0.74883 0.0
H921 H 0.48257 0.4679 0.77498 0.0
N922 N 0.49404 0.50888 0.79947 0.0
N923 N 0.48966 0.51219 0.85044 0.0
C924 C 0.66564 0.76983 0.48499 0.0
C925 C 0.64787 0.75901 0.4669 0.0
C926 C 0.6652 0.78523 0.50278 0.0
C927 C 0.64684 0.78983 0.50284 0.0
C928 C 0.62926 0.76312 0.46733 0.0
C929 C 0.62881 0.7785 0.48508 0.0
C930 C 0.64766 0.80847 0.5189 0.0
C931 C 0.64345 0.75498 0.57407 0.0
C932 C 0.66209 0.76299 0.59114 0.0
C933 C 0.64049 0.77059 0.55902 0.0
C934 C 0.65634 0.79442 0.56058 0.0
C935 C 0.6777 0.78675 0.59306 0.0
C936 C 0.67479 0.80235 0.57798 0.0
C937 C 0.65328 0.81134 0.54521 0.0
C938 C 0.6386 0.88981 0.57577 0.0
C939 C 0.65766 0.90189 0.59207 0.0
C940 C 0.63701 0.87211 0.56012 0.0
C941 C 0.65444 0.86619 0.56062 0.0
C942 C 0.67504 0.89596 0.59263 0.0
C943 C 0.67333 0.87811 0.5772 0.0
C944 C 0.65247 0.8467 0.54521 0.0
C945 C 0.66384 0.89983 0.48436 0.0
C946 C 0.64645 0.89228 0.46569 0.0
C947 C 0.66337 0.88443 0.50277 0.0
C948 C 0.64542 0.86127 0.50284 0.0
C949 C 0.62806 0.86944 0.46635 0.0
C950 C 0.62764 0.85403 0.48466 0.0
C951 C 0.64685 0.84379 0.51893 0.0
H952 H 0.68024 0.76698 0.48472 0.0
H953 H 0.67966 0.79423 0.51573 0.0
H954 H 0.61547 0.75499 0.4534 0.0
H955 H 0.61463 0.78199 0.48455 0.0
H956 H 0.63117 0.73668 0.57252 0.0
H957 H 0.62568 0.76403 0.54641 0.0
H958 H 0.69215 0.79318 0.60621 0.0
H959 H 0.6871 0.82063 0.57975 0.0
H960 H 0.62498 0.89411 0.57519 0.0
H961 H 0.62199 0.86279 0.54798 0.0
H962 H 0.68986 0.9051 0.6051 0.0
H963 H 0.68686 0.87369 0.57809 0.0
H964 H 0.67825 0.91738 0.484 0.0
H965 H 0.67767 0.89034 0.51605 0.0
H966 H 0.61454 0.86332 0.45203 0.0
H967 H 0.61377 0.83622 0.48413 0.0
N968 N 0.64459 0.82475 0.50695 0.0
N969 N 0.65554 0.8304 0.55725 0.0
C970 C 0.11014 0.75307 0.48893 0.0
C971 C 0.10246 0.75905 0.46681 0.0
C972 C 0.12545 0.77029 0.50569 0.0
C973 C 0.13301 0.79368 0.50066 0.0
C974 C 0.10978 0.78229 0.4619 0.0
C975 C 0.12495 0.79945 0.47864 0.0
C976 C 0.15102 0.81247 0.51648 0.0
C977 C 0.09117 0.77448 0.5706 0.0
C978 C 0.09581 0.76388 0.5911 0.0
C979 C 0.10909 0.78999 0.55476 0.0
C980 C 0.13192 0.79511 0.55919 0.0
C981 C 0.11861 0.76901 0.59559 0.0
C982 C 0.13656 0.78469 0.57989 0.0
C983 C 0.1512 0.81252 0.54349 0.0
C984 C 0.22707 0.90826 0.56954 0.0
C985 C 0.23696 0.9032 0.59042 0.0
C986 C 0.21098 0.8905 0.55395 0.0
C987 C 0.20477 0.86744 0.55886 0.0
C988 C 0.23058 0.88021 0.59557 0.0
C989 C 0.21451 0.86245 0.57998 0.0
C990 C 0.18701 0.84829 0.54327 0.0
C991 C 0.24562 0.88988 0.48765 0.0
C992 C 0.23906 0.89742 0.46585 0.0
C993 C 0.22877 0.87427 0.50457 0.0
C994 C 0.2052 0.86635 0.50007 0.0
C995 C 0.21562 0.88965 0.46142 0.0
C996 C 0.19885 0.87423 0.47834 0.0
C997 C 0.18677 0.8483 0.51623 0.0
H998 H 0.10473 0.73517 0.49285 0.0
H999 H 0.13193 0.76537 0.52206 0.0
H1000 H 0.10402 0.78715 0.44487 0.0
H1001 H 0.13066 0.81733 0.47418 0.0
H1002 H 0.07368 0.77077 0.56694 0.0
H1003 H 0.10517 0.79827 0.53933 0.0
H1004 H 0.12247 0.76097 0.61133 0.0
H1005 H 0.15408 0.78862 0.58382 0.0
H1006 H 0.23174 0.92594 0.56543 0.0
H1007 H 0.20317 0.89475 0.5383 0.0
H1008 H 0.23805 0.87605 0.61165 0.0
H1009 H 0.20974 0.84478 0.58434 0.0
H1010 H 0.26368 0.89565 0.49122 0.0
H1011 H 0.23414 0.86796 0.5207 0.0
H1012 H 0.2103 0.89531 0.44465 0.0
H1013 H 0.18081 0.86824 0.47429 0.0
N1014 N 0.16876 0.83041 0.50405 0.0
N1015 N 0.16926 0.83033 0.55578 0.0
C1016 C 0.24273 0.35887 0.48514 0.0
C1017 C 0.23626 0.33917 0.47008 0.0
C1018 C 0.22711 0.35927 0.50269 0.0
C1019 C 0.20474 0.34015 0.50497 0.0
C1020 C 0.21429 0.31963 0.47346 0.0
C1021 C 0.19853 0.32026 0.49049 0.0
C1022 C 0.18694 0.34177 0.51996 0.0
C1023 C 0.22382 0.32063 0.57562 0.0
C1024 C 0.23728 0.33793 0.59338 0.0
C1025 C 0.20785 0.32267 0.56027 0.0
C1026 C 0.20502 0.34204 0.56247 0.0
C1027 C 0.2344 0.35726 0.59572 0.0
C1028 C 0.21818 0.35917 0.58054 0.0
C1029 C 0.18759 0.34381 0.54675 0.0
C1030 C 0.09304 0.32895 0.57104 0.0
C1031 C 0.09859 0.34236 0.59335 0.0
C1032 C 0.11052 0.33021 0.55528 0.0
C1033 C 0.13392 0.34547 0.56107 0.0
C1034 C 0.1219 0.35745 0.59935 0.0
C1035 C 0.13939 0.35904 0.58331 0.0
C1036 C 0.15277 0.34569 0.54575 0.0
C1037 C 0.11418 0.36379 0.48676 0.0
C1038 C 0.10528 0.34823 0.46622 0.0
C1039 C 0.12903 0.36217 0.5045 0.0
C1040 C 0.13496 0.34483 0.50197 0.0
C1041 C 0.11098 0.33082 0.46387 0.0
C1042 C 0.12573 0.32918 0.48152 0.0
C1043 C 0.15243 0.34403 0.51871 0.0
H1044 H 0.25954 0.37415 0.48267 0.0
H1045 H 0.23206 0.37486 0.51355 0.0
H1046 H 0.20898 0.3043 0.46199 0.0
H1047 H 0.18128 0.30542 0.49192 0.0
H1048 H 0.22573 0.30555 0.57365 0.0
H1049 H 0.19747 0.30895 0.54693 0.0
H1050 H 0.24465 0.37078 0.60933 0.0
H1051 H 0.21607 0.37411 0.5827 0.0
H1052 H 0.07515 0.31697 0.56627 0.0
H1053 H 0.10565 0.31867 0.53904 0.0
H1054 H 0.12652 0.36777 0.61661 0.0
H1055 H 0.15726 0.37066 0.5885 0.0
H1056 H 0.11004 0.37744 0.4887 0.0
H1057 H 0.13636 0.37481 0.51971 0.0
H1058 H 0.1043 0.31873 0.44807 0.0
H1059 H 0.13018 0.3158 0.47901 0.0
N1060 N 0.16948 0.34199 0.50702 0.0
N1061 N 0.17052 0.34571 0.55865 0.0
C1062 C 0.97682 0.39257 0.06716 0.0
C1063 C 0.99162 0.38319 0.0698 0.0
C1064 C 0.00381 0.40096 0.1122 0.0
C1065 C 0.98849 0.40975 0.10986 0.0
N1066 N 0.95728 0.41058 0.08776 0.0
N1067 N 0.01552 0.37423 0.09647 0.0
C1068 C 0.97393 0.4044 0.08817 0.0
C1069 C 0.00406 0.38616 0.09283 0.0
N1070 N 0.96655 0.39131 0.04413 0.0
N1071 N 0.01857 0.40732 0.13258 0.0
H1072 H 0.01585 0.36302 0.08283 0.0
H1073 H 0.02299 0.3738 0.11377 0.0
H1074 H 0.01821 0.41737 0.14764 0.0
H1075 H 0.03208 0.40386 0.13388 0.0
H1076 H 0.95775 0.40011 0.04007 0.0
H1077 H 0.9683 0.38289 0.02825 0.0
H1078 H 0.9445 0.40508 0.07379 0.0
H1079 H 0.95501 0.4197 0.10259 0.0
C1080 C 0.62598 0.60627 0.1001 0.0
C1081 C 0.62033 0.59903 0.07436 0.0
C1082 C 0.58946 0.56123 0.08877 0.0
C1083 C 0.59246 0.56993 0.11409 0.0
N1084 N 0.61246 0.60138 0.1439 0.0
N1085 N 0.59692 0.56983 0.04356 0.0
C1086 C 0.61063 0.59255 0.11989 0.0
C1087 C 0.6022 0.57648 0.06851 0.0
N1088 N 0.64602 0.62621 0.10558 0.0
N1089 N 0.5748 0.53826 0.08425 0.0
H1090 H 0.60695 0.57997 0.02833 0.0
H1091 H 0.58207 0.55481 0.03788 0.0
H1092 H 0.56552 0.52655 0.09876 0.0
H1093 H 0.57342 0.5304 0.06664 0.0
H1094 H 0.65212 0.63145 0.1241 0.0
H1095 H 0.65775 0.63631 0.09145 0.0
H1096 H 0.62368 0.61862 0.1485 0.0
H1097 H 0.6015 0.59194 0.15889 0.0
C1098 C 0.41527 0.04052 0.08015 0.0
C1099 C 0.39352 0.01991 0.07864 0.0
C1100 C 0.39806 0.01142 0.12315 0.0
C1101 C 0.42187 0.02824 0.12182 0.0
N1102 N 0.44355 0.06816 0.1093 0.0
N1103 N 0.36274 0.98666 0.10013 0.0
C1104 C 0.42808 0.04581 0.10324 0.0
C1105 C 0.38439 0.00563 0.10061 0.0
N1106 N 0.42421 0.05468 0.05942 0.0
N1107 N 0.38784 0.00395 0.14646 0.0
H1108 H 0.35144 0.98264 0.08474 0.0
H1109 H 0.3565 0.97436 0.11468 0.0
H1110 H 0.39696 0.01114 0.16337 0.0
H1111 H 0.37008 0.99332 0.14892 0.0
H1112 H 0.44104 0.06869 0.05912 0.0
H1113 H 0.41555 0.0514 0.04198 0.0
H1114 H 0.44719 0.08199 0.09727 0.0
H1115 H 0.45003 0.07286 0.12785 0.0
C1116 C 0.38783 0.97064 0.95278 0.0
C1117 C 0.38324 0.98919 0.95322 0.0
C1118 C 0.40182 0.00227 0.91129 0.0
C1119 C 0.40905 0.98569 0.91251 0.0
N1120 N 0.41032 0.95473 0.93454 0.0
N1121 N 0.3865 0.02342 0.93369 0.0
C1122 C 0.40216 0.96981 0.93313 0.0
C1123 C 0.39033 0.00517 0.93262 0.0
N1124 N 0.37874 0.954 0.9713 0.0
N1125 N 0.4057 0.01499 0.88949 0.0
H1126 H 0.37715 0.0256 0.94828 0.0
H1127 H 0.39367 0.03718 0.92091 0.0
H1128 H 0.41413 0.01324 0.87357 0.0
H1129 H 0.39889 0.02574 0.8862 0.0
H1130 H 0.37923 0.93871 0.97052 0.0
H1131 H 0.36928 0.95469 0.98679 0.0
H1132 H 0.40838 0.94464 0.95051 0.0
H1133 H 0.42031 0.95321 0.92018 0.0
C1134 C 0.00915 0.38654 0.92514 0.0
C1135 C 0.01595 0.39562 0.95014 0.0
C1136 C 0.02692 0.43425 0.93451 0.0
C1137 C 0.01697 0.42455 0.91043 0.0
N1138 N 0.99699 0.3913 0.883 0.0
N1139 N 0.0301 0.42756 0.97955 0.0
C1140 C 0.00784 0.40066 0.90567 0.0
C1141 C 0.02471 0.41939 0.95507 0.0
N1142 N 0.0043 0.36453 0.92001 0.0
N1143 N 0.0388 0.4577 0.93753 0.0
H1144 H 0.02939 0.41729 0.99493 0.0
H1145 H 0.0339 0.44408 0.98492 0.0
H1146 H 0.04082 0.46908 0.92279 0.0
H1147 H 0.04834 0.46596 0.9538 0.0
H1148 H 0.00128 0.35753 0.90168 0.0
H1149 H 0.00538 0.3539 0.93387 0.0
H1150 H 0.98764 0.37361 0.87951 0.0
H1151 H 0.99595 0.40114 0.86815 0.0
C1152 C 0.60883 0.62338 0.92999 0.0
C1153 C 0.60363 0.61371 0.95495 0.0
C1154 C 0.57012 0.57876 0.93828 0.0
C1155 C 0.57414 0.58918 0.91377 0.0
N1156 N 0.59495 0.62268 0.88694 0.0
N1157 N 0.57675 0.58453 0.98388 0.0
C1158 C 0.59282 0.6119 0.9098 0.0
C1159 C 0.58354 0.59203 0.95939 0.0
N1160 N 0.6295 0.64291 0.92527 0.0
N1161 N 0.55396 0.55594 0.94125 0.0
H1162 H 0.58572 0.59415 0.99988 0.0
H1163 H 0.56103 0.56995 0.98839 0.0
H1164 H 0.54379 0.54555 0.92624 0.0
H1165 H 0.55206 0.54678 0.95803 0.0
H1166 H 0.63538 0.64922 0.90695 0.0
H1167 H 0.64175 0.65183 0.93944 0.0
H1168 H 0.60669 0.6401 0.88381 0.0
H1169 H 0.58369 0.6147 0.87165 0.0
C1170 C 0.99685 0.61218 0.93081 0.0
C1171 C 0.0139 0.6213 0.95038 0.0
C1172 C 0.03453 0.60371 0.93017 0.0
C1173 C 0.01765 0.59494 0.91048 0.0
N1174 N 0.98613 0.59515 0.88849 0.0
N1175 N 0.05102 0.62933 0.96661 0.0
C1176 C 0.99988 0.6006 0.90969 0.0
C1177 C 0.03354 0.6184 0.94924 0.0
N1178 N 0.97742 0.61403 0.93272 0.0
N1179 N 0.05074 0.59697 0.9314 0.0
H1180 H 0.05036 0.63912 0.98174 0.0
H1181 H 0.06689 0.63002 0.9651 0.0
H1182 H 0.05228 0.58661 0.91753 0.0
H1183 H 0.06176 0.60037 0.94689 0.0
H1184 H 0.96312 0.60533 0.9208 0.0
H1185 H 0.97484 0.62313 0.94726 0.0
H1186 H 0.97439 0.60083 0.88549 0.0
H1187 H 0.98798 0.58668 0.87269 0.0
C1188 C 0.40449 0.39499 0.93993 0.0
C1189 C 0.38467 0.39468 0.95024 0.0
C1190 C 0.38788 0.42206 0.91709 0.0
C1191 C 0.40974 0.42518 0.90979 0.0
N1192 N 0.44116 0.41808 0.91887 0.0
N1193 N 0.35979 0.4113 0.9511 0.0
C1194 C 0.41872 0.4126 0.92247 0.0
C1195 C 0.37685 0.40904 0.93943 0.0
N1196 N 0.4093 0.37795 0.9459 0.0
N1197 N 0.3774 0.43106 0.90241 0.0
H1198 H 0.35191 0.40296 0.9681 0.0
H1199 H 0.35515 0.42333 0.94532 0.0
H1200 H 0.38472 0.4402 0.88558 0.0
H1201 H 0.3605 0.42743 0.90554 0.0
H1202 H 0.42244 0.37643 0.93699 0.0
H1203 H 0.39854 0.36378 0.95727 0.0
H1204 H 0.44898 0.41077 0.92966 0.0
H1205 H 0.45269 0.43162 0.90723 0.0
C1206 C 0.59891 0.97505 0.94019 0.0
C1207 C 0.61303 0.99619 0.95326 0.0
C1208 C 0.60092 0.01587 0.92287 0.0
C1209 C 0.58387 0.9943 0.91285 0.0
N1210 N 0.56375 0.95263 0.91597 0.0
N1211 N 0.62198 0.03561 0.96076 0.0
C1212 C 0.58204 0.97362 0.92255 0.0
C1213 C 0.61263 0.01638 0.94561 0.0
N1214 N 0.60209 0.9566 0.94371 0.0
N1215 N 0.60611 0.03591 0.9106 0.0
H1216 H 0.62866 0.0362 0.97891 0.0
H1217 H 0.62027 0.04994 0.95671 0.0
H1218 H 0.59844 0.03618 0.89332 0.0
H1219 H 0.6198 0.05193 0.91614 0.0
H1220 H 0.59352 0.94156 0.93285 0.0
H1221 H 0.61513 0.95726 0.95523 0.0
H1222 H 0.56056 0.93727 0.9246 0.0
H1223 H 0.55051 0.95074 0.90388 0.0
C1224 C 0.59843 0.01564 0.06369 0.0
C1225 C 0.62034 0.0185 0.07007 0.0
C1226 C 0.61584 0.02815 0.11418 0.0
C1227 C 0.59283 0.02246 0.1085 0.0
N1228 N 0.56096 0.00797 0.07876 0.0
N1229 N 0.64904 0.02479 0.10195 0.0
C1230 C 0.58379 0.01552 0.08345 0.0
C1231 C 0.62896 0.02426 0.09543 0.0
N1232 N 0.59192 0.0137 0.03861 0.0
N1233 N 0.62525 0.03759 0.13739 0.0
H1234 H 0.65915 0.02199 0.08884 0.0
H1235 H 0.65481 0.02623 0.12071 0.0
H1236 H 0.61601 0.04042 0.15164 0.0
H1237 H 0.64267 0.04438 0.14174 0.0
H1238 H 0.5772 0.01394 0.03251 0.0
H1239 H 0.6024 0.01412 0.02357 0.0
H1240 H 0.55276 0.0002 0.06166 0.0
H1241 H 0.54964 0.00771 0.09266 0.0
C1242 C 0.96587 0.58534 0.07571 0.0
C1243 C 0.98521 0.60807 0.07546 0.0
C1244 C 0.99827 0.60095 0.11653 0.0
C1245 C 0.98106 0.57736 0.11475 0.0
N1246 N 0.9489 0.54637 0.09252 0.0
N1247 N 0.02051 0.63764 0.09488 0.0
C1248 C 0.96471 0.5694 0.09451 0.0
C1249 C 0.00152 0.61597 0.09578 0.0
N1250 N 0.94887 0.57889 0.05774 0.0
N1251 N 0.01131 0.60894 0.13826 0.0
H1252 H 0.02309 0.64956 0.08062 0.0
H1253 H 0.03443 0.64342 0.10739 0.0
H1254 H 0.00927 0.59828 0.15378 0.0
H1255 H 0.02262 0.62636 0.14193 0.0
H1256 H 0.93319 0.56344 0.05847 0.0
H1257 H 0.94966 0.58971 0.04297 0.0
H1258 H 0.93835 0.53893 0.07663 0.0
H1259 H 0.94721 0.53429 0.1062 0.0
C1260 C 0.4208 0.39504 0.06881 0.0
C1261 C 0.39807 0.37676 0.07373 0.0
C1262 C 0.4034 0.38506 0.11964 0.0
C1263 C 0.42611 0.40349 0.11471 0.0
N1264 N 0.45862 0.42197 0.08601 0.0
N1265 N 0.37013 0.35012 0.10374 0.0
C1266 C 0.43551 0.40718 0.08967 0.0
C1267 C 0.39019 0.37031 0.09918 0.0
N1268 N 0.42814 0.40107 0.04414 0.0
N1269 N 0.39402 0.38242 0.14348 0.0
H1270 H 0.36033 0.33886 0.08912 0.0
H1271 H 0.36443 0.34346 0.12198 0.0
H1272 H 0.40316 0.39285 0.15894 0.0
H1273 H 0.37668 0.371 0.14753 0.0
H1274 H 0.44334 0.41605 0.03919 0.0
H1275 H 0.41843 0.39153 0.02843 0.0
H1276 H 0.46698 0.42383 0.06863 0.0
H1277 H 0.46993 0.43084 0.10099 0.0
C1278 C 0.64814 0.70911 0.43195 0.0
C1279 C 0.65297 0.71789 0.4066 0.0
C1280 C 0.65631 0.75421 0.42131 0.0
C1281 C 0.64958 0.74474 0.4462 0.0
N1282 N 0.63564 0.71213 0.47464 0.0
N1283 N 0.65739 0.74686 0.37611 0.0
C1284 C 0.64446 0.72185 0.45136 0.0
C1285 C 0.65589 0.73992 0.40098 0.0
N1286 N 0.64817 0.6892 0.43775 0.0
N1287 N 0.66383 0.77709 0.41725 0.0
H1288 H 0.65675 0.73672 0.36063 0.0
H1289 H 0.65707 0.76166 0.37066 0.0
H1290 H 0.66435 0.78816 0.43161 0.0
H1291 H 0.67141 0.78558 0.40022 0.0
H1292 H 0.64737 0.68334 0.45637 0.0
H1293 H 0.65097 0.67945 0.42416 0.0
H1294 H 0.6292 0.69472 0.47864 0.0
H1295 H 0.63303 0.72107 0.48941 0.0
C1296 C 0.28177 0.95202 0.43028 0.0
C1297 C 0.2845 0.94225 0.40736 0.0
C1298 C 0.26162 0.90342 0.42551 0.0
C1299 C 0.25649 0.91303 0.44699 0.0
N1300 N 0.26024 0.94611 0.46963 0.0
N1301 N 0.2754 0.90876 0.38176 0.0
C1302 C 0.26629 0.93727 0.44941 0.0
C1303 C 0.27424 0.91797 0.40468 0.0
N1304 N 0.29452 0.97536 0.43401 0.0
N1305 N 0.25446 0.88037 0.42511 0.0
H1306 H 0.28441 0.9188 0.36601 0.0
H1307 H 0.26602 0.89119 0.37762 0.0
H1308 H 0.24476 0.86913 0.43981 0.0
H1309 H 0.25968 0.8727 0.41134 0.0
H1310 H 0.29509 0.9834 0.45126 0.0
H1311 H 0.30624 0.98666 0.42053 0.0
H1312 H 0.26449 0.96332 0.47094 0.0
H1313 H 0.2497 0.9359 0.48453 0.0
C1314 C 0.05238 0.34031 0.42974 0.0
C1315 C 0.06231 0.34825 0.40523 0.0
C1316 C 0.10092 0.36106 0.42264 0.0
C1317 C 0.09068 0.35043 0.44627 0.0
N1318 N 0.05686 0.32899 0.47253 0.0
N1319 N 0.09552 0.36528 0.37746 0.0
C1320 C 0.06646 0.34001 0.45 0.0
C1321 C 0.08649 0.35856 0.40147 0.0
N1322 N 0.02951 0.33312 0.43357 0.0
N1323 N 0.12448 0.37376 0.42064 0.0
H1324 H 0.08558 0.3646 0.36175 0.0
H1325 H 0.11254 0.37034 0.37274 0.0
H1326 H 0.13551 0.37582 0.43579 0.0
H1327 H 0.1331 0.38382 0.40481 0.0
H1328 H 0.02164 0.32923 0.45146 0.0
H1329 H 0.01867 0.33272 0.41899 0.0
H1330 H 0.03914 0.31872 0.4755 0.0
H1331 H 0.06671 0.329 0.488 0.0
C1332 C 0.05395 0.30202 0.2822 0.0
C1333 C 0.04895 0.32028 0.28162 0.0
C1334 C 0.0674 0.33234 0.23951 0.0
C1335 C 0.07507 0.31614 0.24174 0.0
N1336 N 0.077 0.28623 0.26532 0.0
N1337 N 0.05133 0.35348 0.26047 0.0
C1338 C 0.06845 0.30091 0.26296 0.0
C1339 C 0.05569 0.33556 0.26039 0.0
N1340 N 0.04509 0.28594 0.30131 0.0
N1341 N 0.07107 0.34435 0.2172 0.0
H1342 H 0.04174 0.35576 0.2747 0.0
H1343 H 0.05823 0.36686 0.24719 0.0
H1344 H 0.07965 0.34235 0.20159 0.0
H1345 H 0.06399 0.35476 0.21324 0.0
H1346 H 0.04594 0.27082 0.30133 0.0
H1347 H 0.03543 0.28683 0.31645 0.0
H1348 H 0.07523 0.27668 0.28172 0.0
H1349 H 0.08718 0.28454 0.25132 0.0
C1350 C 0.68957 0.74856 0.28841 0.0
C1351 C 0.67422 0.7244 0.28674 0.0
C1352 C 0.66316 0.72876 0.24321 0.0
C1353 C 0.67658 0.75306 0.24598 0.0
N1354 N 0.70189 0.78663 0.27096 0.0
N1355 N 0.64599 0.69104 0.26334 0.0
C1356 C 0.68982 0.76312 0.26842 0.0
C1357 C 0.66097 0.71435 0.26428 0.0
N1358 N 0.70376 0.75757 0.30919 0.0
N1359 N 0.65285 0.71955 0.22025 0.0
H1360 H 0.64506 0.67971 0.27761 0.0
H1361 H 0.63373 0.68288 0.24902 0.0
H1362 H 0.65387 0.72968 0.20459 0.0
H1363 H 0.64469 0.70203 0.21594 0.0
H1364 H 0.71713 0.77461 0.31042 0.0
H1365 H 0.70319 0.74764 0.32483 0.0
H1366 H 0.70963 0.79518 0.28789 0.0
H1367 H 0.70321 0.79784 0.25635 0.0
C1368 C 0.24886 0.93881 0.29326 0.0
C1369 C 0.27258 0.95398 0.28803 0.0
C1370 C 0.26712 0.94091 0.24351 0.0
C1371 C 0.2433 0.92585 0.24863 0.0
N1372 N 0.21036 0.91403 0.27622 0.0
N1373 N 0.30339 0.97365 0.25756 0.0
C1374 C 0.23381 0.92597 0.27288 0.0
C1375 C 0.28141 0.95639 0.26288 0.0
N1376 N 0.24094 0.93607 0.31784 0.0
N1377 N 0.27626 0.93963 0.22058 0.0
H1378 H 0.31419 0.98531 0.27139 0.0
H1379 H 0.31021 0.97772 0.23916 0.0
H1380 H 0.26627 0.92876 0.20578 0.0
H1381 H 0.29393 0.94817 0.21678 0.0
H1382 H 0.2245 0.92328 0.32345 0.0
H1383 H 0.25134 0.94583 0.33307 0.0
H1384 H 0.20217 0.91513 0.29265 0.0
H1385 H 0.19887 0.90449 0.26162 0.0
C1386 C 0.69142 0.93927 0.28677 0.0
C1387 C 0.67906 0.95115 0.28303 0.0
C1388 C 0.66862 0.9356 0.23955 0.0
C1389 C 0.68124 0.92397 0.24316 0.0
N1390 N 0.70847 0.9182 0.26766 0.0
N1391 N 0.6603 0.965 0.25463 0.0
C1392 C 0.69394 0.927 0.26598 0.0
C1393 C 0.66899 0.95065 0.25899 0.0
N1394 N 0.69965 0.93868 0.31054 0.0
N1395 N 0.65566 0.93163 0.21793 0.0
H1396 H 0.66067 0.97649 0.26838 0.0
H1397 H 0.65461 0.96708 0.23683 0.0
H1398 H 0.65566 0.92138 0.20289 0.0
H1399 H 0.64387 0.93733 0.21546 0.0
H1400 H 0.70636 0.92809 0.31529 0.0
H1401 H 0.69834 0.94764 0.32617 0.0
H1402 H 0.71998 0.92176 0.2827 0.0
H1403 H 0.71044 0.90883 0.2529 0.0
C1404 C 0.05349 0.71432 0.26447 0.0
C1405 C 0.04932 0.72408 0.28652 0.0
C1406 C 0.07038 0.76258 0.26715 0.0
C1407 C 0.07693 0.75319 0.24662 0.0
N1408 N 0.07602 0.7206 0.22583 0.0
N1409 N 0.05512 0.75746 0.31026 0.0
C1410 C 0.06872 0.72914 0.24522 0.0
C1411 C 0.05786 0.74819 0.28813 0.0
N1412 N 0.04233 0.69084 0.26166 0.0
N1413 N 0.07616 0.78528 0.26654 0.0
H1414 H 0.046 0.74749 0.326 0.0
H1415 H 0.06323 0.77512 0.31383 0.0
H1416 H 0.08587 0.79647 0.25182 0.0
H1417 H 0.06987 0.79264 0.27947 0.0
H1418 H 0.04277 0.68259 0.24498 0.0
H1419 H 0.03089 0.67947 0.27528 0.0
H1420 H 0.07305 0.70378 0.22537 0.0
H1421 H 0.08627 0.73077 0.21074 0.0
C1422 C 0.2787 0.32051 0.26192 0.0
C1423 C 0.27322 0.32472 0.28688 0.0
C1424 C 0.23828 0.32328 0.27032 0.0
C1425 C 0.24521 0.32206 0.24501 0.0
N1426 N 0.27365 0.32258 0.2162 0.0
N1427 N 0.25043 0.33511 0.3138 0.0
C1428 C 0.2658 0.32131 0.24062 0.0
C1429 C 0.25381 0.32761 0.29078 0.0
N1430 N 0.29644 0.31614 0.25848 0.0
N1431 N 0.21655 0.31961 0.27492 0.0
H1432 H 0.26166 0.33908 0.32915 0.0
H1433 H 0.23783 0.33971 0.31678 0.0
H1434 H 0.20435 0.31565 0.26049 0.0
H1435 H 0.20981 0.31801 0.29326 0.0
H1436 H 0.29956 0.31038 0.24125 0.0
H1437 H 0.30724 0.31689 0.27327 0.0
H1438 H 0.28979 0.32465 0.21185 0.0
H1439 H 0.26482 0.32344 0.20019 0.0
C1440 C 0.28705 0.34149 0.43351 0.0
C1441 C 0.27772 0.33647 0.40838 0.0
C1442 C 0.24346 0.33728 0.42342 0.0
C1443 C 0.25138 0.33951 0.44897 0.0
N1444 N 0.27918 0.34032 0.47899 0.0
N1445 N 0.24458 0.3242 0.38076 0.0
C1446 C 0.27287 0.34085 0.45424 0.0
C1447 C 0.25517 0.33271 0.40373 0.0
N1448 N 0.30929 0.3465 0.43767 0.0
N1449 N 0.22516 0.34029 0.41777 0.0
H1450 H 0.25219 0.3199 0.36603 0.0
H1451 H 0.22729 0.31906 0.37734 0.0
H1452 H 0.21656 0.34447 0.43155 0.0
H1453 H 0.22017 0.34115 0.39912 0.0
H1454 H 0.31789 0.35288 0.45496 0.0
H1455 H 0.31969 0.34563 0.42337 0.0
H1456 H 0.2934 0.33875 0.48403 0.0
H1457 H 0.2691 0.33952 0.49461 0.0
C1458 C 0.64872 0.94233 0.42828 0.0
C1459 C 0.65314 0.93731 0.40319 0.0
C1460 C 0.65489 0.90389 0.41955 0.0
C1461 C 0.64849 0.90772 0.44417 0.0
N1462 N 0.63546 0.92811 0.47121 0.0
N1463 N 0.65561 0.91068 0.374 0.0
C1464 C 0.64423 0.92621 0.44831 0.0
C1465 C 0.65487 0.91733 0.39855 0.0
N1466 N 0.65003 0.963 0.43331 0.0
N1467 N 0.6618 0.88795 0.41637 0.0
H1468 H 0.655 0.9197 0.35804 0.0
H1469 H 0.65447 0.895 0.36939 0.0
H1470 H 0.6622 0.8778 0.43126 0.0
H1471 H 0.6691 0.88625 0.39951 0.0
H1472 H 0.6495 0.96866 0.45172 0.0
H1473 H 0.65376 0.97552 0.41938 0.0
H1474 H 0.62964 0.93972 0.47444 0.0
H1475 H 0.63216 0.91674 0.48636 0.0
C1476 C 0.04866 0.71424 0.43162 0.0
C1477 C 0.05873 0.71276 0.40834 0.0
C1478 C 0.09746 0.73715 0.42622 0.0
C1479 C 0.08735 0.74124 0.44801 0.0
N1480 N 0.05357 0.73484 0.47143 0.0
N1481 N 0.09246 0.72365 0.38235 0.0
C1482 C 0.06298 0.72994 0.45083 0.0
C1483 C 0.08309 0.72419 0.40542 0.0
N1484 N 0.02545 0.70018 0.43551 0.0
N1485 N 0.1208 0.74561 0.42555 0.0
H1486 H 0.08251 0.71408 0.3668 0.0
H1487 H 0.10994 0.73384 0.378 0.0
H1488 H 0.13184 0.75546 0.44032 0.0
H1489 H 0.12901 0.74134 0.41144 0.0
H1490 H 0.01726 0.69884 0.45288 0.0
H1491 H 0.01462 0.68816 0.42197 0.0
H1492 H 0.03605 0.72935 0.47312 0.0
H1493 H 0.06354 0.74563 0.48631 0.0
C1494 C 0.30148 0.04258 0.74868 0.0
C1495 C 0.32384 0.04994 0.73845 0.0
C1496 C 0.34001 0.08378 0.76644 0.0
C1497 C 0.3183 0.07503 0.7788 0.0
N1498 N 0.27964 0.04311 0.78538 0.0
N1499 N 0.36526 0.07378 0.74392 0.0
C1500 C 0.2994 0.05347 0.77108 0.0
C1501 C 0.3434 0.06943 0.74919 0.0
N1502 N 0.28214 0.02617 0.73641 0.0
N1503 N 0.35716 0.10609 0.7702 0.0
H1504 H 0.36859 0.06273 0.73302 0.0
H1505 H 0.37987 0.08675 0.75308 0.0
H1506 H 0.35513 0.11772 0.78165 0.0
H1507 H 0.37247 0.11372 0.75967 0.0
H1508 H 0.26547 0.0219 0.7419 0.0
H1509 H 0.28265 0.01862 0.71918 0.0
H1510 H 0.26621 0.02638 0.78189 0.0
H1511 H 0.27771 0.0503 0.80225 0.0
C1512 C 0.92721 0.24918 0.73261 0.0
C1513 C 0.94823 0.26952 0.73876 0.0
C1514 C 0.94476 0.25644 0.78321 0.0
C1515 C 0.92247 0.23756 0.77765 0.0
N1516 N 0.89077 0.21787 0.74802 0.0
N1517 N 0.97551 0.29437 0.77062 0.0
C1518 C 0.91323 0.23441 0.75258 0.0
C1519 C 0.95673 0.27362 0.76423 0.0
N1520 N 0.921 0.24352 0.70759 0.0
N1521 N 0.95463 0.2577 0.80648 0.0
H1522 H 0.98456 0.30755 0.75742 0.0
H1523 H 0.98093 0.29932 0.78939 0.0
H1524 H 0.94629 0.24548 0.82086 0.0
H1525 H 0.97177 0.26968 0.81075 0.0
H1526 H 0.90711 0.22773 0.70186 0.0
H1527 H 0.93106 0.25357 0.69233 0.0
H1528 H 0.88233 0.21653 0.73083 0.0
H1529 H 0.87987 0.20668 0.76211 0.0
C1530 C 0.72702 0.68871 0.76413 0.0
C1531 C 0.73209 0.68518 0.73871 0.0
C1532 C 0.76633 0.68424 0.75372 0.0
C1533 C 0.76209 0.68912 0.77891 0.0
N1534 N 0.74102 0.70015 0.80753 0.0
N1535 N 0.75954 0.68565 0.70847 0.0
C1536 C 0.7432 0.69263 0.78395 0.0
C1537 C 0.75264 0.68473 0.73326 0.0
N1538 N 0.70633 0.68728 0.76956 0.0
N1539 N 0.78285 0.67827 0.74942 0.0
H1540 H 0.75043 0.68706 0.69305 0.0
H1541 H 0.77547 0.68756 0.70334 0.0
H1542 H 0.7932 0.67752 0.76388 0.0
H1543 H 0.78489 0.67205 0.73194 0.0
H1544 H 0.70046 0.6869 0.7881 0.0
H1545 H 0.69417 0.6848 0.7556 0.0
H1546 H 0.72907 0.70536 0.81165 0.0
H1547 H 0.75247 0.70302 0.8225 0.0
C1548 C 0.73689 0.65349 0.62527 0.0
C1549 C 0.71589 0.65304 0.61982 0.0
C1550 C 0.71866 0.64389 0.57496 0.0
C1551 C 0.74105 0.6473 0.57988 0.0
N1552 N 0.77318 0.65905 0.60885 0.0
N1553 N 0.68774 0.65031 0.589 0.0
C1554 C 0.75064 0.65309 0.60482 0.0
C1555 C 0.7069 0.64875 0.59455 0.0
N1556 N 0.74325 0.65335 0.65008 0.0
N1557 N 0.70847 0.63555 0.55175 0.0
H1558 H 0.67845 0.65354 0.6028 0.0
H1559 H 0.682 0.6501 0.57044 0.0
H1560 H 0.71667 0.63196 0.53694 0.0
H1561 H 0.69127 0.63038 0.54786 0.0
H1562 H 0.75726 0.65147 0.65527 0.0
H1563 H 0.73303 0.65256 0.66556 0.0
H1564 H 0.78179 0.66588 0.62604 0.0
H1565 H 0.78398 0.65918 0.59436 0.0
C1566 C 0.33862 0.05412 0.59343 0.0
C1567 C 0.35389 0.06167 0.61471 0.0
C1568 C 0.37521 0.10075 0.59676 0.0
C1569 C 0.35968 0.09323 0.57576 0.0
N1570 N 0.33036 0.06227 0.55069 0.0
N1571 N 0.38926 0.09054 0.63455 0.0
C1572 C 0.34259 0.06969 0.57301 0.0
C1573 C 0.37317 0.08443 0.61556 0.0
N1574 N 0.31997 0.03222 0.59307 0.0
N1575 N 0.39109 0.1237 0.59939 0.0
H1576 H 0.38776 0.07947 0.64937 0.0
H1577 H 0.40494 0.10601 0.63474 0.0
H1578 H 0.3935 0.13599 0.58563 0.0
H1579 H 0.40104 0.13086 0.61572 0.0
H1580 H 0.30661 0.02651 0.57982 0.0
H1581 H 0.31718 0.01989 0.60691 0.0
H1582 H 0.31917 0.04499 0.54632 0.0
H1583 H 0.33291 0.07335 0.53543 0.0
C1584 C 0.9157 0.27388 0.61924 0.0
C1585 C 0.93998 0.28317 0.61807 0.0
C1586 C 0.93631 0.26554 0.57593 0.0
C1587 C 0.91211 0.25678 0.57681 0.0
N1588 N 0.87904 0.25574 0.59668 0.0
N1589 N 0.97409 0.29181 0.59384 0.0
C1590 C 0.90192 0.26205 0.59763 0.0
C1591 C 0.95051 0.28015 0.59596 0.0
N1592 N 0.90569 0.27522 0.64151 0.0
N1593 N 0.9456 0.25935 0.55627 0.0
H1594 H 0.98502 0.30272 0.6081 0.0
H1595 H 0.98286 0.29224 0.57721 0.0
H1596 H 0.93589 0.2496 0.54067 0.0
H1597 H 0.9626 0.26273 0.55603 0.0
H1598 H 0.88792 0.26649 0.64463 0.0
H1599 H 0.91518 0.28368 0.6578 0.0
H1600 H 0.87113 0.26119 0.6099 0.0
H1601 H 0.86826 0.24648 0.58148 0.0
C1602 C 0.35995 0.27342 0.62491 0.0
C1603 C 0.35369 0.2902 0.61875 0.0
C1604 C 0.3513 0.28029 0.57334 0.0
C1605 C 0.35762 0.26351 0.57944 0.0
N1606 N 0.37376 0.24824 0.60966 0.0
N1607 N 0.34972 0.31412 0.58715 0.0
C1608 C 0.36377 0.26138 0.60486 0.0
C1609 C 0.3515 0.29516 0.59292 0.0
N1610 N 0.36184 0.26874 0.64995 0.0
N1611 N 0.34394 0.28122 0.54922 0.0
H1612 H 0.35026 0.3255 0.60112 0.0
H1613 H 0.35006 0.31982 0.56855 0.0
H1614 H 0.34352 0.27062 0.53436 0.0
H1615 H 0.33662 0.29125 0.54437 0.0
H1616 H 0.36335 0.2547 0.65583 0.0
H1617 H 0.3608 0.27838 0.66505 0.0
H1618 H 0.38061 0.24766 0.62733 0.0
H1619 H 0.37715 0.2395 0.59531 0.0
C1620 C 0.72257 0.08384 0.61647 0.0
C1621 C 0.71717 0.06045 0.6172 0.0
C1622 C 0.73773 0.06545 0.57669 0.0
C1623 C 0.74294 0.08876 0.57586 0.0
N1624 N 0.73737 0.11935 0.59212 0.0
N1625 N 0.71619 0.02773 0.59656 0.0
C1626 C 0.73426 0.09764 0.5948 0.0
C1627 C 0.72376 0.05089 0.59686 0.0
N1628 N 0.71785 0.09327 0.63723 0.0
N1629 N 0.74672 0.05747 0.55849 0.0
H1630 H 0.70656 0.01664 0.61135 0.0
H1631 H 0.71801 0.01908 0.581 0.0
H1632 H 0.75569 0.06714 0.54251 0.0
H1633 H 0.74625 0.04172 0.55965 0.0
H1634 H 0.72371 0.11081 0.63924 0.0
H1635 H 0.70951 0.08383 0.65356 0.0
H1636 H 0.7293 0.12592 0.60362 0.0
H1637 H 0.74672 0.13034 0.57712 0.0
C1638 C 0.93818 0.67229 0.6051 0.0
C1639 C 0.93798 0.6527 0.6158 0.0
C1640 C 0.90994 0.62844 0.58315 0.0
C1641 C 0.9072 0.64735 0.57569 0.0
N1642 N 0.91537 0.68627 0.58437 0.0
N1643 N 0.92058 0.61114 0.61726 0.0
C1644 C 0.92041 0.66904 0.58796 0.0
C1645 C 0.92313 0.63045 0.60536 0.0
N1646 N 0.95578 0.69405 0.6105 0.0
N1647 N 0.90041 0.60877 0.56875 0.0
H1648 H 0.92914 0.61166 0.6341 0.0
H1649 H 0.90819 0.59448 0.61178 0.0
H1650 H 0.89117 0.60692 0.55199 0.0
H1651 H 0.9037 0.59531 0.572 0.0
H1652 H 0.95757 0.70871 0.60138 0.0
H1653 H 0.97007 0.69722 0.62155 0.0
H1654 H 0.92324 0.70157 0.59487 0.0
H1655 H 0.90163 0.68435 0.57313 0.0
C1656 C 0.95841 0.68388 0.76402 0.0
C1657 C 0.9492 0.67957 0.73885 0.0
C1658 C 0.91429 0.67886 0.75452 0.0
C1659 C 0.92427 0.68501 0.77926 0.0
N1660 N 0.95718 0.69707 0.80693 0.0
N1661 N 0.92084 0.67804 0.70914 0.0
C1662 C 0.94678 0.68865 0.78383 0.0
C1663 C 0.92782 0.6785 0.73381 0.0
N1664 N 0.97762 0.6823 0.76928 0.0
N1665 N 0.8916 0.67255 0.75095 0.0
H1666 H 0.93057 0.67841 0.69337 0.0
H1667 H 0.90662 0.67969 0.70424 0.0
H1668 H 0.88099 0.67248 0.76562 0.0
H1669 H 0.8827 0.66539 0.73398 0.0
H1670 H 0.98366 0.68274 0.78774 0.0
H1671 H 0.98649 0.67858 0.75539 0.0
H1672 H 0.97447 0.70241 0.81054 0.0
H1673 H 0.94904 0.70051 0.82192 0.0
C1674 C 0.3163 0.27444 0.76251 0.0
C1675 C 0.32148 0.27068 0.73723 0.0
C1676 C 0.32449 0.2375 0.75191 0.0
C1677 C 0.31781 0.24029 0.77682 0.0
N1678 N 0.3036 0.2588 0.80514 0.0
N1679 N 0.32522 0.24571 0.70672 0.0
C1680 C 0.31258 0.258 0.78192 0.0
C1681 C 0.32408 0.25136 0.7316 0.0
N1682 N 0.31597 0.29421 0.76827 0.0
N1683 N 0.33192 0.22208 0.7478 0.0
H1684 H 0.32412 0.25498 0.69128 0.0
H1685 H 0.32482 0.23054 0.70129 0.0
H1686 H 0.33243 0.21151 0.76214 0.0
H1687 H 0.33947 0.22115 0.73074 0.0
H1688 H 0.31504 0.29924 0.78687 0.0
H1689 H 0.31839 0.30658 0.75464 0.0
H1690 H 0.29708 0.2697 0.80912 0.0
H1691 H 0.30096 0.24723 0.81988 0.0
C1692 C 0.72321 0.03896 0.76718 0.0
C1693 C 0.72982 0.04689 0.74169 0.0
C1694 C 0.76566 0.07998 0.75739 0.0
C1695 C 0.75999 0.07111 0.78265 0.0
N1696 N 0.73558 0.03994 0.81101 0.0
N1697 N 0.75984 0.07157 0.71213 0.0
C1698 C 0.73942 0.04987 0.78737 0.0
C1699 C 0.75182 0.0664 0.73668 0.0
N1700 N 0.70111 0.0219 0.77235 0.0
N1701 N 0.78366 0.10183 0.7532 0.0
H1702 H 0.75053 0.06158 0.69647 0.0
H1703 H 0.77668 0.08423 0.7076 0.0
H1704 H 0.794 0.11267 0.76783 0.0
H1705 H 0.78692 0.11003 0.7355 0.0
H1706 H 0.69462 0.01723 0.79083 0.0
H1707 H 0.68856 0.01373 0.75825 0.0
H1708 H 0.72208 0.02334 0.81492 0.0
H1709 H 0.74709 0.04748 0.8262 0.0
C1710 C 0.04141 0.31149 0.05712 0.0
C1711 C 0.04817 0.33405 0.04825 0.0
C1712 C 0.08627 0.34849 0.06781 0.0
C1713 C 0.07834 0.32678 0.07975 0.0
N1714 N 0.04684 0.2885 0.08913 0.0
N1715 N 0.07544 0.3751 0.05031 0.0
C1716 C 0.05548 0.30846 0.07531 0.0
C1717 C 0.07022 0.35288 0.05486 0.0
N1718 N 0.022 0.29285 0.04754 0.0
N1719 N 0.10922 0.3648 0.06833 0.0
H1720 H 0.06384 0.3794 0.04223 0.0
H1721 H 0.09041 0.38939 0.05719 0.0
H1722 H 0.12166 0.36206 0.07713 0.0
H1723 H 0.11618 0.38003 0.05777 0.0
H1724 H 0.01751 0.27585 0.05154 0.0
H1725 H 0.01171 0.29427 0.03349 0.0
H1726 H 0.02952 0.27559 0.08855 0.0
H1727 H 0.05644 0.28575 0.10297 0.0
C1728 C 0.66234 0.72472 0.04375 0.0
C1729 C 0.66201 0.70548 0.05559 0.0
C1730 C 0.6708 0.72539 0.09692 0.0
C1731 C 0.66844 0.74336 0.08567 0.0
N1732 N 0.65787 0.75823 0.04921 0.0
N1733 N 0.6606 0.68534 0.09447 0.0
C1734 C 0.66308 0.74254 0.05927 0.0
C1735 C 0.66487 0.70523 0.08247 0.0
N1736 N 0.6628 0.72643 0.01769 0.0
N1737 N 0.67919 0.72775 0.12124 0.0
H1738 H 0.6549 0.66982 0.08477 0.0
H1739 H 0.66019 0.68358 0.11428 0.0
H1740 H 0.68402 0.74242 0.13237 0.0
H1741 H 0.68347 0.71618 0.12941 0.0
H1742 H 0.66545 0.74119 0.00808 0.0
H1743 H 0.6628 0.714 0.00565 0.0
H1744 H 0.65144 0.75694 0.03077 0.0
H1745 H 0.65795 0.77138 0.05999 0.0
C1746 C 0.27524 0.95727 0.06201 0.0
C1747 C 0.29333 0.95292 0.05535 0.0
C1748 C 0.27269 0.91553 0.0771 0.0
C1749 C 0.25648 0.92142 0.08684 0.0
N1750 N 0.24528 0.95032 0.09259 0.0
N1751 N 0.31171 0.93002 0.06199 0.0
C1752 C 0.25856 0.943 0.08043 0.0
C1753 C 0.29274 0.93259 0.0643 0.0
N1754 N 0.27335 0.9744 0.05003 0.0
N1755 N 0.26869 0.89348 0.07941 0.0
H1756 H 0.32731 0.9426 0.05413 0.0
H1757 H 0.31277 0.91651 0.07051 0.0
H1758 H 0.25385 0.88026 0.08798 0.0
H1759 H 0.27889 0.88783 0.07045 0.0
H1760 H 0.25923 0.97681 0.05253 0.0
H1761 H 0.28447 0.98451 0.03545 0.0
H1762 H 0.2478 0.96691 0.09041 0.0
H1763 H 0.23334 0.94072 0.10678 0.0
C1764 C 0.33321 0.04195 0.94559 0.0
C1765 C 0.33347 0.04415 0.97263 0.0
C1766 C 0.32405 0.07504 0.96844 0.0
C1767 C 0.32646 0.07462 0.94151 0.0
N1768 N 0.33675 0.06015 0.9045 0.0
N1769 N 0.3308 0.06364 0.01015 0.0
C1770 C 0.33182 0.05864 0.93006 0.0
C1771 C 0.32942 0.061 0.98417 0.0
N1772 N 0.33426 0.02392 0.93468 0.0
N1773 N 0.31585 0.0883 0.97888 0.0
H1774 H 0.33323 0.05274 0.0224 0.0
H1775 H 0.33083 0.07738 0.01952 0.0
H1776 H 0.31154 0.09861 0.96791 0.0
H1777 H 0.31143 0.08763 0.99807 0.0
H1778 H 0.33149 0.01996 0.91529 0.0
H1779 H 0.33611 0.01172 0.94518 0.0
H1780 H 0.34344 0.05084 0.8956 0.0
H1781 H 0.33607 0.0722 0.89243 0.0
C1782 C 0.94894 0.29447 0.94551 0.0
C1783 C 0.95595 0.29018 0.96952 0.0
C1784 C 0.9307 0.24851 0.9635 0.0
C1785 C 0.92517 0.25278 0.93862 0.0
N1786 N 0.93123 0.27925 0.90428 0.0
N1787 N 0.95602 0.26357 1.00044 0.0
C1788 C 0.93498 0.27562 0.92912 0.0
C1789 C 0.94747 0.26731 0.97833 0.0
N1790 N 0.95481 0.31651 0.93888 0.0
N1791 N 0.91956 0.22655 0.97308 0.0
H1792 H 0.96804 0.27696 0.01194 0.0
H1793 H 0.95251 0.24732 0.00654 0.0
H1794 H 0.90776 0.21228 0.96245 0.0
H1795 H 0.92082 0.22258 0.99204 0.0
H1796 H 0.94832 0.32058 0.92285 0.0
H1797 H 0.96458 0.3307 0.95066 0.0
H1798 H 0.94001 0.29528 0.89534 0.0
H1799 H 0.9206 0.26589 0.89188 0.0
C1800 C 0.73102 0.6741 0.98173 0.0
C1801 C 0.70821 0.66175 0.97186 0.0
C1802 C 0.72316 0.65906 0.92993 0.0
C1803 C 0.74578 0.66976 0.94036 0.0
N1804 N 0.77145 0.68547 0.9765 0.0
N1805 N 0.68191 0.6392 0.93812 0.0
C1806 C 0.74978 0.67672 0.96638 0.0
C1807 C 0.70408 0.65343 0.94632 0.0
N1808 N 0.73479 0.68406 0.00539 0.0
N1809 N 0.71996 0.65448 0.9043 0.0
H1810 H 0.66747 0.63432 0.94969 0.0
H1811 H 0.67778 0.63058 0.92066 0.0
H1812 H 0.73341 0.6576 0.89183 0.0
H1813 H 0.70432 0.6492 0.89499 0.0
H1814 H 0.75114 0.69539 0.01264 0.0
H1815 H 0.72144 0.68243 0.01716 0.0
H1816 H 0.77503 0.68834 0.99595 0.0
H1817 H 0.7858 0.68856 0.96559 0.0
C1818 C 0.957 0.66515 0.94417 0.0
C1819 C 0.9555 0.66537 0.97128 0.0
C1820 C 0.92387 0.67387 0.96784 0.0
C1821 C 0.92382 0.6712 0.9409 0.0
N1822 N 0.93756 0.66047 0.90365 0.0
N1823 N 0.93652 0.66813 0.00927 0.0
C1824 C 0.93969 0.66587 0.9291 0.0
C1825 C 0.93854 0.66908 0.98322 0.0
N1826 N 0.97501 0.66439 0.93271 0.0
N1827 N 0.91058 0.6819 0.97858 0.0
H1828 H 0.94799 0.6664 0.02132 0.0
H1829 H 0.92274 0.6678 0.01895 0.0
H1830 H 0.89977 0.68577 0.9679 0.0
H1831 H 0.91164 0.68659 0.99773 0.0
H1832 H 0.97843 0.66692 0.9132 0.0
H1833 H 0.98771 0.66303 0.94279 0.0
H1834 H 0.94684 0.65381 0.89457 0.0
H1835 H 0.925 0.66063 0.89194 0.0
C1836 C 0.34741 0.29603 0.94382 0.0
C1837 C 0.34258 0.29233 0.97039 0.0
C1838 C 0.32911 0.25112 0.96512 0.0
C1839 C 0.33531 0.25508 0.93888 0.0
N1840 N 0.35341 0.28144 0.90377 0.0
N1841 N 0.33173 0.26749 0.00727 0.0
C1842 C 0.34527 0.27759 0.92834 0.0
C1843 C 0.33435 0.2702 0.98134 0.0
N1844 N 0.35387 0.31716 0.93337 0.0
N1845 N 0.31747 0.22901 0.97428 0.0
H1846 H 0.33457 0.28091 0.01962 0.0
H1847 H 0.32829 0.25244 0.01678 0.0
H1848 H 0.31341 0.21462 0.96297 0.0
H1849 H 0.31024 0.22467 0.99247 0.0
H1850 H 0.35496 0.32026 0.91378 0.0
H1851 H 0.35687 0.33147 0.94423 0.0
H1852 H 0.36318 0.2978 0.8958 0.0
H1853 H 0.35192 0.26831 0.89176 0.0
C1854 C 0.73723 0.04468 0.98006 0.0
C1855 C 0.72062 0.05087 0.98785 0.0
C1856 C 0.74792 0.09077 0.97617 0.0
C1857 C 0.76046 0.08318 0.96115 0.0
N1858 N 0.77698 0.05886 0.96725 0.0
N1859 N 0.71039 0.08085 0.99206 0.0
C1860 C 0.7581 0.06162 0.96817 0.0
C1861 C 0.72611 0.07426 0.98593 0.0
N1862 N 0.73321 0.02279 0.98403 0.0
N1863 N 0.75827 0.11299 0.98464 0.0
H1864 H 0.69352 0.06938 0.99783 0.0
H1865 H 0.71365 0.09762 0.98883 0.0
H1866 H 0.77589 0.12437 0.98172 0.0
H1867 H 0.75031 0.11877 0.99747 0.0
H1868 H 0.74321 0.01656 0.97577 0.0
H1869 H 0.71944 0.01062 0.99498 0.0
H1870 H 0.77715 0.04436 0.9742 0.0
H1871 H 0.79334 0.0726 0.96269 0.0
C1872 C 0.64767 0.92874 0.05164 0.0
C1873 C 0.66626 0.95177 0.04905 0.0
C1874 C 0.68971 0.94344 0.07846 0.0
C1875 C 0.67168 0.92009 0.07982 0.0
N1876 N 0.63589 0.88924 0.06293 0.0
N1877 N 0.70682 0.97925 0.05461 0.0
C1878 C 0.6514 0.91234 0.06486 0.0
C1879 C 0.68787 0.95857 0.06083 0.0
N1880 N 0.6261 0.92279 0.04293 0.0
N1881 N 0.70814 0.95146 0.09477 0.0
H1882 H 0.70628 0.99046 0.04113 0.0
H1883 H 0.72349 0.98414 0.06073 0.0
H1884 H 0.71005 0.94101 0.10818 0.0
H1885 H 0.72047 0.96889 0.09653 0.0
H1886 H 0.61145 0.90698 0.04695 0.0
H1887 H 0.62232 0.93429 0.03368 0.0
H1888 H 0.62201 0.88244 0.05024 0.0
H1889 H 0.63814 0.8767 0.0722 0.0
C1890 C 0.04267 0.71087 0.08085 0.0
C1891 C 0.04813 0.70952 0.05482 0.0
C1892 C 0.08668 0.74331 0.061 0.0
C1893 C 0.08042 0.7458 0.08622 0.0
N1894 N 0.05097 0.73486 0.11849 0.0
N1895 N 0.07339 0.72751 0.0187 0.0
C1896 C 0.05795 0.73044 0.09565 0.0
C1897 C 0.06963 0.72658 0.04448 0.0
N1898 N 0.02355 0.69299 0.09196 0.0
N1899 N 0.10908 0.75648 0.05305 0.0
H1900 H 0.06101 0.71616 0.00579 0.0
H1901 H 0.0878 0.74096 0.00983 0.0
H1902 H 0.12207 0.76894 0.06459 0.0
H1903 H 0.11519 0.75367 0.03588 0.0
H1904 H 0.02036 0.69196 0.11154 0.0
H1905 H 0.01191 0.67805 0.08224 0.0
H1906 H 0.03395 0.72573 0.12496 0.0
H1907 H 0.06168 0.749 0.12996 0.0
C1908 C 0.29467 0.33633 0.07894 0.0
C1909 C 0.29414 0.33871 0.05202 0.0
C1910 C 0.2563 0.33608 0.05562 0.0
C1911 C 0.25578 0.33103 0.08208 0.0
N1912 N 0.27245 0.32174 0.11786 0.0
N1913 N 0.27279 0.33695 0.01406 0.0
C1914 C 0.27437 0.32975 0.09342 0.0
C1915 C 0.2745 0.33754 0.04012 0.0
N1916 N 0.31492 0.34161 0.09088 0.0
N1917 N 0.23993 0.34029 0.04547 0.0
H1918 H 0.28559 0.33765 1.00206 0.0
H1919 H 0.2578 0.33364 0.00441 0.0
H1920 H 0.22645 0.3396 0.05622 0.0
H1921 H 0.24087 0.34645 0.02697 0.0
H1922 H 0.3168 0.34231 0.11069 0.0
H1923 H 0.3305 0.34789 0.08108 0.0
H1924 H 0.28458 0.31827 0.12612 0.0
H1925 H 0.25769 0.31641 0.12902 0.0
C1926 C 0.71349 0.67587 0.41467 0.0
C1927 C 0.70819 0.66693 0.38942 0.0
C1928 C 0.7345 0.65157 0.39375 0.0
C1929 C 0.73868 0.65925 0.41953 0.0
N1930 N 0.73023 0.67598 0.45587 0.0
N1931 N 0.71067 0.64361 0.35585 0.0
C1932 C 0.72754 0.67055 0.43041 0.0
C1933 C 0.71794 0.6541 0.37915 0.0
N1934 N 0.70593 0.6903 0.42319 0.0
N1935 N 0.74663 0.64216 0.38316 0.0
H1936 H 0.69865 0.64522 0.3446 0.0
H1937 H 0.71513 0.63194 0.34843 0.0
H1938 H 0.75813 0.63908 0.39358 0.0
H1939 H 0.74645 0.63869 0.36374 0.0
H1940 H 0.71124 0.69942 0.44031 0.0
H1941 H 0.69573 0.69474 0.41219 0.0
H1942 H 0.7205 0.68174 0.46566 0.0
H1943 H 0.7411 0.67319 0.46781 0.0
C1944 C 0.31785 0.05116 0.39308 0.0
C1945 C 0.33641 0.04772 0.38583 0.0
C1946 C 0.36294 0.08091 0.41207 0.0
C1947 C 0.34486 0.08568 0.41706 0.0
N1948 N 0.30658 0.07859 0.40694 0.0
N1949 N 0.37757 0.06244 0.38389 0.0
C1950 C 0.32276 0.07181 0.40587 0.0
C1951 C 0.35927 0.06351 0.39401 0.0
N1952 N 0.29543 0.03419 0.38925 0.0
N1953 N 0.38328 0.09231 0.42526 0.0
H1954 H 0.37567 0.05048 0.36992 0.0
H1955 H 0.39473 0.0749 0.38736 0.0
H1956 H 0.38651 0.10488 0.43899 0.0
H1957 H 0.39608 0.08778 0.4243 0.0
H1958 H 0.28138 0.03504 0.3966 0.0
H1959 H 0.29081 0.01816 0.3813 0.0
H1960 H 0.29103 0.07022 0.3969 0.0
H1961 H 0.30968 0.0939 0.41565 0.0
C1962 C 0.95796 0.2648 0.39007 0.0
C1963 C 0.95975 0.28616 0.38311 0.0
C1964 C 0.92587 0.27679 0.40956 0.0
C1965 C 0.92259 0.25443 0.41407 0.0
N1966 N 0.93248 0.22533 0.40327 0.0
N1967 N 0.9419 0.30987 0.38137 0.0
C1968 C 0.93771 0.24786 0.40267 0.0
C1969 C 0.94268 0.29143 0.39145 0.0
N1970 N 0.97605 0.26106 0.3861 0.0
N1971 N 0.91358 0.28445 0.42323 0.0
H1972 H 0.95319 0.32039 0.36713 0.0
H1973 H 0.92848 0.31314 0.38507 0.0
H1974 H 0.90152 0.27452 0.43719 0.0
H1975 H 0.91703 0.30145 0.4225 0.0
H1976 H 0.97633 0.24665 0.39319 0.0
H1977 H 0.99182 0.27341 0.37834 0.0
H1978 H 0.94179 0.2193 0.39307 0.0
H1979 H 0.91748 0.21226 0.41174 0.0
C1980 C 0.00826 0.40142 0.31272 0.0
C1981 C 0.0045 0.38017 0.30246 0.0
C1982 C 0.99213 0.38887 0.26182 0.0
C1983 C 0.99838 0.41113 0.27115 0.0
N1984 N 0.01581 0.44017 0.30401 0.0
N1985 N 0.99704 0.35558 0.26552 0.0
C1986 C 0.0074 0.41787 0.29622 0.0
C1987 C 0.99747 0.37433 0.27656 0.0
N1988 N 0.01167 0.40551 0.3384 0.0
N1989 N 0.98059 0.38139 0.2391 0.0
H1990 H 0.00123 0.34459 0.27523 0.0
H1991 H 0.99469 0.35216 0.24599 0.0
H1992 H 0.97643 0.39157 0.22768 0.0
H1993 H 0.97332 0.36441 0.23272 0.0
H1994 H 0.01213 0.41966 0.34733 0.0
H1995 H 0.01173 0.39362 0.35124 0.0
H1996 H 0.02491 0.44672 0.321 0.0
H1997 H 0.01545 0.45271 0.2925 0.0
C1998 C 0.62321 0.60421 0.30269 0.0
C1999 C 0.61695 0.6208 0.30998 0.0
C2000 C 0.57959 0.59792 0.28858 0.0
C2001 C 0.58725 0.58331 0.2782 0.0
N2002 N 0.61824 0.57512 0.27183 0.0
N2003 N 0.59104 0.63597 0.30473 0.0
C2004 C 0.6096 0.58712 0.2843 0.0
C2005 C 0.59559 0.61834 0.30165 0.0
N2006 N 0.64169 0.60425 0.31397 0.0
N2007 N 0.55691 0.59207 0.28652 0.0
H2008 H 0.60269 0.6518 0.3129 0.0
H2009 H 0.57672 0.6358 0.29659 0.0
H2010 H 0.54448 0.57695 0.27764 0.0
H2011 H 0.55003 0.60101 0.29594 0.0
H2012 H 0.64566 0.59122 0.3111 0.0
H2013 H 0.65154 0.61589 0.32829 0.0
H2014 H 0.63533 0.57895 0.27366 0.0
H2015 H 0.60905 0.56282 0.25779 0.0
C2016 C 0.40099 0.01183 0.31484 0.0
C2017 C 0.37792 0.99784 0.30625 0.0
C2018 C 0.39178 0.99174 0.2652 0.0
C2019 C 0.41481 0.00447 0.27437 0.0
N2020 N 0.4416 0.02421 0.30873 0.0
N2021 N 0.35095 0.97092 0.27558 0.0
C2022 C 0.4195 0.01382 0.29947 0.0
C2023 C 0.37319 0.98683 0.28203 0.0
N2024 N 0.4052 0.02384 0.33724 0.0
N2025 N 0.38773 0.98475 0.24022 0.0
H2026 H 0.33693 0.96651 0.28766 0.0
H2027 H 0.34654 0.96056 0.25935 0.0
H2028 H 0.40088 0.98756 0.22745 0.0
H2029 H 0.37156 0.97777 0.23158 0.0
H2030 H 0.42162 0.03634 0.34324 0.0
H2031 H 0.39202 0.02248 0.34912 0.0
H2032 H 0.44585 0.02912 0.32774 0.0
H2033 H 0.45565 0.02655 0.29776 0.0
C2034 C 0.60868 0.98144 0.28216 0.0
C2035 C 0.62003 0.99681 0.3028 0.0
C2036 C 0.60034 0.01837 0.29226 0.0
C2037 C 0.59037 0.00405 0.2705 0.0
N2038 N 0.58808 0.97465 0.24202 0.0
N2039 N 0.62928 0.03156 0.32587 0.0
C2040 C 0.59537 0.9863 0.26471 0.0
C2041 C 0.61669 0.01584 0.30732 0.0
N2042 N 0.61042 0.96204 0.27937 0.0
N2043 N 0.59349 0.03378 0.29907 0.0
H2044 H 0.64062 0.02967 0.338 0.0
H2045 H 0.62964 0.04719 0.32821 0.0
H2046 H 0.58165 0.03618 0.28847 0.0
H2047 H 0.59815 0.04293 0.31621 0.0
H2048 H 0.6005 0.94886 0.26651 0.0
H2049 H 0.62055 0.95818 0.29122 0.0
H2050 H 0.59331 0.96332 0.23532 0.0
H2051 H 0.57838 0.9778 0.22869 0.0
C2052 C 0.02031 0.6176 0.30019 0.0
C2053 C 0.00111 0.62007 0.30716 0.0
C2054 C 0.97599 0.5872 0.27974 0.0
C2055 C 0.99469 0.58334 0.27494 0.0
N2056 N 0.03322 0.59157 0.28575 0.0
N2057 N 0.95971 0.60394 0.30812 0.0
C2058 C 0.01642 0.59753 0.28678 0.0
C2059 C 0.97863 0.6039 0.29826 0.0
N2060 N 0.04239 0.63496 0.3049 0.0
N2061 N 0.95601 0.57561 0.26594 0.0
H2062 H 0.96089 0.61533 0.32244 0.0
H2063 H 0.9428 0.59115 0.3041 0.0
H2064 H 0.95352 0.56356 0.25183 0.0
H2065 H 0.94277 0.57954 0.2668 0.0
H2066 H 0.05692 0.63489 0.29778 0.0
H2067 H 0.04627 0.65057 0.31344 0.0
H2068 H 0.04851 0.6001 0.29622 0.0
H2069 H 0.03088 0.57671 0.27657 0.0
C2070 C 0.38087 0.40116 0.30612 0.0
C2071 C 0.37764 0.37908 0.31247 0.0
C2072 C 0.41057 0.38649 0.28526 0.0
C2073 C 0.41492 0.40923 0.2807 0.0
N2074 N 0.40775 0.44004 0.29206 0.0
N2075 N 0.39289 0.35312 0.31307 0.0
C2076 C 0.40119 0.41715 0.29283 0.0
C2077 C 0.39356 0.37246 0.30354 0.0
N2078 N 0.36398 0.40645 0.31118 0.0
N2079 N 0.42194 0.37791 0.27141 0.0
H2080 H 0.38118 0.34282 0.32711 0.0
H2081 H 0.40547 0.34871 0.30907 0.0
H2082 H 0.43426 0.38748 0.25753 0.0
H2083 H 0.41762 0.36064 0.27204 0.0
H2084 H 0.36455 0.42138 0.30441 0.0
H2085 H 0.34827 0.39502 0.31977 0.0
H2086 H 0.39961 0.44709 0.30274 0.0
H2087 H 0.42272 0.45237 0.28282 0.0
C2088 C 0.31479 0.26352 0.39054 0.0
C2089 C 0.33288 0.28608 0.38426 0.0
C2090 C 0.35963 0.28034 0.4112 0.0
C2091 C 0.34206 0.25718 0.41566 0.0
N2092 N 0.30472 0.22508 0.4043 0.0
N2093 N 0.37378 0.31373 0.38361 0.0
C2094 C 0.3202 0.24824 0.40364 0.0
C2095 C 0.35571 0.29383 0.3931 0.0
N2096 N 0.29226 0.25706 0.38557 0.0
N2097 N 0.37969 0.2898 0.42499 0.0
H2098 H 0.37172 0.32369 0.36967 0.0
H2099 H 0.39102 0.31902 0.38753 0.0
H2100 H 0.38312 0.28064 0.43875 0.0
H2101 H 0.392 0.30732 0.42446 0.0
H2102 H 0.27837 0.2417 0.39229 0.0
H2103 H 0.28719 0.26792 0.37713 0.0
H2104 H 0.28948 0.21737 0.39368 0.0
H2105 H 0.30819 0.21326 0.41338 0.0
C2106 C 0.70743 0.05909 0.39281 0.0
C2107 C 0.71345 0.04309 0.38273 0.0
C2108 C 0.75235 0.06604 0.40078 0.0
C2109 C 0.74527 0.08008 0.41377 0.0
N2110 N 0.71462 0.08744 0.42564 0.0
N2111 N 0.74023 0.02867 0.38215 0.0
C2112 C 0.72239 0.07593 0.41074 0.0
C2113 C 0.73557 0.04585 0.38796 0.0
N2114 N 0.68786 0.05878 0.38457 0.0
N2115 N 0.77519 0.07223 0.40017 0.0
H2116 H 0.72815 0.01298 0.37403 0.0
H2117 H 0.75528 0.02896 0.38798 0.0
H2118 H 0.7881 0.08714 0.40893 0.0
H2119 H 0.78153 0.06384 0.3888 0.0
H2120 H 0.68384 0.07146 0.38945 0.0
H2121 H 0.6769 0.04729 0.37073 0.0
H2122 H 0.69738 0.08332 0.4261 0.0
H2123 H 0.7249 0.09962 0.43932 0.0
C2124 C 0.95699 0.68037 0.40556 0.0
C2125 C 0.95394 0.66544 0.38481 0.0
C2126 C 0.91227 0.64325 0.39328 0.0
C2127 C 0.91564 0.65707 0.41524 0.0
N2128 N 0.94147 0.68605 0.44504 0.0
N2129 N 0.92962 0.63117 0.36036 0.0
C2130 C 0.9381 0.6749 0.42214 0.0
C2131 C 0.93184 0.64638 0.37912 0.0
N2132 N 0.97788 0.69995 0.40923 0.0
N2133 N 0.89033 0.62774 0.38546 0.0
H2134 H 0.94341 0.63356 0.34887 0.0
H2135 H 0.91454 0.6155 0.3572 0.0
H2136 H 0.87561 0.62489 0.39545 0.0
H2137 H 0.88656 0.61893 0.36813 0.0
H2138 H 0.98051 0.7128 0.42227 0.0
H2139 H 0.99231 0.70434 0.39784 0.0
H2140 H 0.95774 0.69741 0.45249 0.0
H2141 H 0.92806 0.68244 0.45778 0.0
C2142 C 0.37891 0.98505 0.72539 0.0
C2143 C 0.38445 0.00757 0.71758 0.0
C2144 C 0.42196 0.02347 0.73908 0.0
C2145 C 0.41494 0.00148 0.74992 0.0
N2146 N 0.38471 0.9621 0.75705 0.0
N2147 N 0.40957 0.04891 0.72153 0.0
C2148 C 0.39284 0.98244 0.74408 0.0
C2149 C 0.40558 0.02702 0.72554 0.0
N2150 N 0.36089 0.96609 0.71427 0.0
N2151 N 0.44443 0.04082 0.74111 0.0
H2152 H 0.39776 0.05247 0.71265 0.0
H2153 H 0.42363 0.06349 0.72941 0.0
H2154 H 0.45711 0.03878 0.7504 0.0
H2155 H 0.45095 0.05644 0.73137 0.0
H2156 H 0.35751 0.94932 0.71755 0.0
H2157 H 0.35091 0.96722 0.69963 0.0
H2158 H 0.36777 0.94849 0.75535 0.0
H2159 H 0.39411 0.95961 0.77136 0.0
C2160 C 0.00759 0.39998 0.70842 0.0
C2161 C 0.98911 0.37771 0.71465 0.0
C2162 C 0.97208 0.39552 0.74112 0.0
C2163 C 0.9932 0.41684 0.73994 0.0
N2164 N 0.0181 0.43995 0.70567 0.0
N2165 N 0.9532 0.35403 0.73716 0.0
C2166 C 0.00782 0.41967 0.71889 0.0
C2167 C 0.971 0.37539 0.73081 0.0
N2168 N 0.02473 0.40251 0.69222 0.0
N2169 N 0.95235 0.39518 0.74857 0.0
H2170 H 0.95181 0.33875 0.73027 0.0
H2171 H 0.94091 0.35156 0.75098 0.0
H2172 H 0.95214 0.41041 0.75231 0.0
H2173 H 0.93602 0.38047 0.74756 0.0
H2174 H 0.03966 0.41839 0.6892 0.0
H2175 H 0.02467 0.38859 0.68315 0.0
H2176 H 0.02738 0.44235 0.68883 0.0
H2177 H 0.01395 0.4528 0.7093 0.0
C2178 C 0.60365 0.61308 0.71009 0.0
C2179 C 0.62619 0.62442 0.72077 0.0
C2180 C 0.61095 0.60399 0.76141 0.0
C2181 C 0.58825 0.59368 0.7512 0.0
N2182 N 0.56224 0.59035 0.71743 0.0
N2183 N 0.6516 0.63263 0.75689 0.0
C2184 C 0.58439 0.59874 0.72594 0.0
C2185 C 0.62991 0.62051 0.74658 0.0
N2186 N 0.60074 0.61584 0.6847 0.0
N2187 N 0.61442 0.59731 0.78494 0.0
H2188 H 0.6662 0.6436 0.74618 0.0
H2189 H 0.6551 0.63284 0.7763 0.0
H2190 H 0.60093 0.58559 0.79655 0.0
H2191 H 0.63064 0.60209 0.7924 0.0
H2192 H 0.58523 0.60611 0.67495 0.0
H2193 H 0.61431 0.627 0.67281 0.0
H2194 H 0.55807 0.59529 0.70029 0.0
H2195 H 0.54775 0.57959 0.72842 0.0
C2196 C 0.67901 0.71868 0.6113 0.0
C2197 C 0.67254 0.71577 0.6375 0.0
C2198 C 0.6577 0.74251 0.6328 0.0
C2199 C 0.6654 0.74646 0.60702 0.0
N2200 N 0.68577 0.74084 0.57228 0.0
N2201 N 0.65816 0.72639 0.67426 0.0
C2202 C 0.67664 0.73516 0.59637 0.0
C2203 C 0.66263 0.72817 0.64858 0.0
N2204 N 0.68741 0.70565 0.60072 0.0
N2205 N 0.64502 0.75191 0.64188 0.0
H2206 H 0.66053 0.71525 0.68618 0.0
H2207 H 0.65344 0.7369 0.68415 0.0
H2208 H 0.64133 0.7627 0.63095 0.0
H2209 H 0.63672 0.74779 0.65952 0.0
H2210 H 0.68973 0.70471 0.58117 0.0
H2211 H 0.69105 0.6947 0.6114 0.0
H2212 H 0.6964 0.73527 0.56432 0.0
H2213 H 0.68402 0.75253 0.56062 0.0
C2214 C 0.29273 0.95604 0.61195 0.0
C2215 C 0.28707 0.95856 0.63753 0.0
C2216 C 0.24784 0.92584 0.63144 0.0
C2217 C 0.25423 0.92209 0.60681 0.0
N2218 N 0.28388 0.93077 0.57536 0.0
N2219 N 0.26079 0.94314 0.67327 0.0
C2220 C 0.27704 0.93634 0.59759 0.0
C2221 C 0.26502 0.94272 0.64775 0.0
N2222 N 0.31247 0.97301 0.60078 0.0
N2223 N 0.22523 0.91371 0.639 0.0
H2224 H 0.27316 0.95476 0.686 0.0
H2225 H 0.24587 0.93055 0.68227 0.0
H2226 H 0.21218 0.90111 0.62763 0.0
H2227 H 0.21909 0.91749 0.65555 0.0
H2228 H 0.31601 0.97326 0.58135 0.0
H2229 H 0.32436 0.98804 0.61018 0.0
H2230 H 0.301 0.939 0.5692 0.0
H2231 H 0.27283 0.91656 0.56416 0.0
C2232 C 0.05846 0.35538 0.63309 0.0
C2233 C 0.04261 0.33302 0.6425 0.0
C2234 C 0.06606 0.31811 0.62346 0.0
C2235 C 0.07991 0.33959 0.61105 0.0
N2236 N 0.08695 0.37775 0.60078 0.0
N2237 N 0.02863 0.29192 0.64148 0.0
C2238 C 0.07552 0.35804 0.61499 0.0
C2239 C 0.0457 0.31403 0.63642 0.0
N2240 N 0.05773 0.3742 0.64204 0.0
N2241 N 0.07257 0.30174 0.62337 0.0
H2242 H 0.0128 0.28783 0.64963 0.0
H2243 H 0.02917 0.27748 0.63497 0.0
H2244 H 0.08766 0.30424 0.61455 0.0
H2245 H 0.06428 0.2867 0.63428 0.0
H2246 H 0.07026 0.39112 0.63769 0.0
H2247 H 0.046 0.37303 0.65594 0.0
H2248 H 0.08265 0.39072 0.60095 0.0
H2249 H 0.0993 0.38024 0.58704 0.0
C2250 C 0.2883 0.33059 0.61152 0.0
C2251 C 0.28637 0.32918 0.63858 0.0
C2252 C 0.25112 0.33184 0.63598 0.0
C2253 C 0.25457 0.33576 0.60924 0.0
N2254 N 0.2792 0.34367 0.57242 0.0
N2255 N 0.26841 0.33277 0.67701 0.0
C2256 C 0.27403 0.33662 0.59727 0.0
C2257 C 0.26844 0.33099 0.65098 0.0
N2258 N 0.3028 0.32486 0.59927 0.0
N2259 N 0.23095 0.32808 0.64693 0.0
H2260 H 0.28104 0.33267 0.68864 0.0
H2261 H 0.25715 0.33654 0.68687 0.0
H2262 H 0.21774 0.32834 0.63659 0.0
H2263 H 0.22645 0.32268 0.66579 0.0
H2264 H 0.30323 0.32342 0.57947 0.0
H2265 H 0.31249 0.31898 0.60894 0.0
H2266 H 0.29449 0.34682 0.56356 0.0
H2267 H 0.26934 0.34855 0.5614 0.0
C2268 C 0.6644 0.95963 0.6127 0.0
C2269 C 0.66523 0.95796 0.63974 0.0
C2270 C 0.65746 0.91815 0.63545 0.0
C2271 C 0.65959 0.92096 0.60849 0.0
N2272 N 0.66881 0.94563 0.57157 0.0
N2273 N 0.66391 0.93627 0.67715 0.0
C2274 C 0.66392 0.94199 0.59711 0.0
C2275 C 0.66222 0.93741 0.6512 0.0
N2276 N 0.66407 0.97802 0.60175 0.0
N2277 N 0.65004 0.89684 0.6459 0.0
H2278 H 0.66562 0.94929 0.68948 0.0
H2279 H 0.66481 0.92296 0.6864 0.0
H2280 H 0.64611 0.88231 0.63492 0.0
H2281 H 0.64583 0.89305 0.66513 0.0
H2282 H 0.66074 0.97871 0.58242 0.0
H2283 H 0.66529 0.99187 0.61211 0.0
H2284 H 0.67482 0.96159 0.56276 0.0
H2285 H 0.66894 0.9333 0.55948 0.0
C2286 C 0.04003 0.71096 0.61248 0.0
C2287 C 0.03978 0.71562 0.63895 0.0
C2288 C 0.07505 0.75312 0.63346 0.0
C2289 C 0.07667 0.74721 0.60776 0.0
N2290 N 0.0631 0.7186 0.57421 0.0
N2291 N 0.05898 0.73941 0.67565 0.0
C2292 C 0.05985 0.72555 0.59767 0.0
C2293 C 0.05781 0.73627 0.64975 0.0
N2294 N 0.02088 0.69332 0.60113 0.0
N2295 N 0.08947 0.77505 0.64207 0.0
H2296 H 0.04686 0.72732 0.68823 0.0
H2297 H 0.07306 0.75299 0.68482 0.0
H2298 H 0.10219 0.78793 0.63065 0.0
H2299 H 0.08749 0.78104 0.65973 0.0
H2300 H 0.01932 0.69071 0.58142 0.0
H2301 H 0.00554 0.68279 0.61095 0.0
H2302 H 0.0526 0.70197 0.56713 0.0
H2303 H 0.07753 0.72869 0.56282 0.0
C2304 C 0.97474 0.59806 0.7271 0.0
C2305 C 0.99381 0.61935 0.71888 0.0
C2306 C 0.01987 0.61146 0.74439 0.0
C2307 C 0.0012 0.58915 0.75024 0.0
N2308 N 0.96192 0.55921 0.74171 0.0
N2309 N 0.03525 0.64344 0.7147 0.0
C2310 C 0.97894 0.58182 0.73991 0.0
C2311 C 0.01662 0.62524 0.72607 0.0
N2312 N 0.95261 0.59378 0.72412 0.0
N2313 N 0.04046 0.6199 0.75698 0.0
H2314 H 0.03368 0.65328 0.70023 0.0
H2315 H 0.05219 0.64709 0.71758 0.0
H2316 H 0.04339 0.61062 0.77105 0.0
H2317 H 0.05381 0.63695 0.75527 0.0
H2318 H 0.93835 0.57948 0.73213 0.0
H2319 H 0.94859 0.60563 0.71621 0.0
H2320 H 0.94611 0.55258 0.7323 0.0
H2321 H 0.96446 0.54661 0.75036 0.0
C2322 C 0.38775 0.39986 0.70938 0.0
C2323 C 0.37707 0.37753 0.72049 0.0
C2324 C 0.39745 0.39381 0.76092 0.0
C2325 C 0.40739 0.41623 0.75012 0.0
N2326 N 0.40996 0.44139 0.71581 0.0
N2327 N 0.36959 0.35291 0.75718 0.0
C2328 C 0.40196 0.41948 0.7248 0.0
C2329 C 0.38119 0.37443 0.74644 0.0
N2330 N 0.38447 0.40224 0.68399 0.0
N2331 N 0.40429 0.39103 0.78468 0.0
H2332 H 0.35891 0.33802 0.74676 0.0
H2333 H 0.36952 0.34979 0.77667 0.0
H2334 H 0.41569 0.40484 0.79614 0.0
H2335 H 0.39988 0.37508 0.79259 0.0
H2336 H 0.39378 0.41761 0.67389 0.0
H2337 H 0.37321 0.38843 0.67245 0.0
H2338 H 0.40479 0.44514 0.69857 0.0
H2339 H 0.42065 0.45611 0.72649 0.0
C2340 C 0.60428 0.00025 0.70896 0.0
C2341 C 0.6272 0.01651 0.71633 0.0
C2342 C 0.61204 0.03469 0.74499 0.0
C2343 C 0.58964 0.01504 0.74264 0.0
N2344 N 0.56522 0.99323 0.70745 0.0
N2345 N 0.65321 0.0499 0.74141 0.0
C2346 C 0.5856 0.00146 0.72031 0.0
C2347 C 0.63121 0.0341 0.73418 0.0
N2348 N 0.60021 0.98374 0.69111 0.0
N2349 N 0.61447 0.05508 0.75341 0.0
H2350 H 0.66781 0.05009 0.73402 0.0
H2351 H 0.65669 0.06161 0.75626 0.0
H2352 H 0.60011 0.05702 0.75665 0.0
H2353 H 0.63023 0.07052 0.75336 0.0
H2354 H 0.58365 0.97013 0.68714 0.0
H2355 H 0.61344 0.98285 0.68152 0.0
H2356 H 0.56207 0.98502 0.68976 0.0
H2357 H 0.55295 0.99775 0.71284 0.0
loop_
_geom_bond_atom_site_label_1
_geom_bond_atom_site_label_2
_geom_bond_distance
_geom_bond_site_symmetry_2
_ccdc_geom_bond_type
In0 O1 2.294 1_455 S
In0 O2 2.326 . S
In0 O6 2.266 1_455 S
In0 O7 2.326 1_454 S
In0 O8 2.266 1_554 S
In0 O9 2.326 1_454 S
In0 O11 2.294 . S
In0 O12 2.326 . S
O1 In0 2.294 1_655 S
O1 C10 1.242 . S
O2 In0 2.326 . S
O2 C10 1.249 1_455 S
C3 O6 1.252 1_556 S
C3 O7 1.260 . S
C4 O11 1.240 . S
C4 O12 1.252 . S
C5 O8 1.252 . S
C5 O9 1.260 1_455 S
O6 In0 2.266 1_655 S
O6 C3 1.252 1_554 S
O7 In0 2.326 1_656 S
O7 C3 1.260 . S
O8 In0 2.266 1_556 S
O8 C5 1.252 . S
O9 In0 2.326 1_656 S
O9 C5 1.260 1_655 S
C10 O1 1.242 . S
C10 O2 1.249 1_655 S
O11 In0 2.294 . S
O11 C4 1.240 . S
O12 In0 2.326 . S
O12 C4 1.252 . S
In13 O14 2.294 . S
In13 O15 2.326 . S
In13 O19 2.267 . S
In13 O20 2.326 1_554 S
In13 O21 2.266 1_554 S
In13 O22 2.326 1_554 S
In13 O24 2.294 . S
In13 O25 2.326 . S
O14 In13 2.294 . S
O14 C23 1.240 . S
O15 In13 2.326 . S
O15 C23 1.252 . S
C16 O19 1.250 1_556 S
C16 O20 1.260 . S
C17 O24 1.240 . S
C17 O25 1.252 . S
C18 O21 1.252 . S
C18 O22 1.260 . S
O19 In13 2.267 . S
O19 C16 1.250 1_554 S
O20 In13 2.326 1_556 S
O20 C16 1.260 . S
O21 In13 2.266 1_556 S
O21 C18 1.252 . S
O22 In13 2.326 1_556 S
O22 C18 1.260 . S
C23 O14 1.240 . S
C23 O15 1.252 . S
O24 In13 2.294 . S
O24 C17 1.240 . S
O25 In13 2.326 . S
O25 C17 1.252 . S
In26 O27 2.294 . S
In26 O28 2.326 1_554 S
In26 O32 2.266 . S
In26 O33 2.326 1_545 S
In26 O34 2.266 1_545 S
In26 O35 2.326 1_545 S
In26 O37 2.294 1_544 S
In26 O38 2.326 1_554 S
O27 In26 2.294 . S
O27 C36 1.240 1_554 S
O28 In26 2.326 1_556 S
O28 C36 1.252 . S
C29 O32 1.252 . S
C29 O33 1.260 1_545 S
C30 O37 1.242 1_545 S
C30 O38 1.249 . S
C31 O34 1.252 . S
C31 O35 1.260 . S
O32 In26 2.266 . S
O32 C29 1.252 . S
O33 In26 2.326 1_565 S
O33 C29 1.260 1_565 S
O34 In26 2.266 1_565 S
O34 C31 1.252 . S
O35 In26 2.326 1_565 S
O35 C31 1.260 . S
C36 O27 1.240 1_556 S
C36 O28 1.252 . S
O37 In26 2.294 1_566 S
O37 C30 1.242 1_565 S
O38 In26 2.326 1_556 S
O38 C30 1.249 . S
In39 O40 2.293 1_554 S
In39 O41 2.326 1_454 S
In39 O45 2.265 . S
In39 O46 2.326 . S
In39 O47 2.267 1_455 S
In39 O48 2.324 . S
In39 O50 2.296 1_455 S
In39 O51 2.327 1_454 S
O40 In39 2.293 1_556 S
O40 C49 1.240 . S
O41 In39 2.326 1_656 S
O41 C49 1.252 1_655 S
C42 O45 1.252 . S
C42 O46 1.260 . S
C43 O50 1.240 1_556 S
C43 O51 1.252 . S
C44 O47 1.290 . S
C44 O48 1.232 1_655 S
O45 In39 2.265 . S
O45 C42 1.252 . S
O46 In39 2.326 . S
O46 C42 1.260 . S
O47 In39 2.267 1_655 S
O47 C44 1.290 . S
O48 In39 2.324 . S
O48 C44 1.232 1_455 S
C49 O40 1.240 . S
C49 O41 1.252 1_455 S
O50 In39 2.296 1_655 S
O50 C43 1.240 1_554 S
O51 In39 2.327 1_656 S
O51 C43 1.252 . S
In52 O53 2.294 1_554 S
In52 O54 2.326 1_554 S
In52 O58 2.266 . S
In52 O59 2.326 . S
In52 O60 2.266 . S
In52 O61 2.326 . S
In52 O63 2.295 . S
In52 O64 2.326 1_554 S
O53 In52 2.294 1_556 S
O53 C62 1.240 . S
O54 In52 2.326 1_556 S
O54 C62 1.252 . S
C55 O58 1.252 . S
C55 O59 1.260 . S
C56 O63 1.236 1_556 S
C56 O64 1.252 . S
C57 O60 1.252 . S
C57 O61 1.260 . S
O58 In52 2.266 . S
O58 C55 1.252 . S
O59 In52 2.326 . S
O59 C55 1.260 . S
O60 In52 2.266 . S
O60 C57 1.252 . S
O61 In52 2.326 . S
O61 C57 1.260 . S
C62 O53 1.240 . S
C62 O54 1.252 . S
O63 In52 2.295 . S
O63 C56 1.236 1_554 S
O64 In52 2.326 1_556 S
O64 C56 1.252 . S
In65 O66 2.293 . S
In65 O67 2.326 1_545 S
In65 O71 2.265 . S
In65 O72 2.326 1_554 S
In65 O73 2.267 1_544 S
In65 O74 2.324 1_554 S
In65 O76 2.296 1_545 S
In65 O77 2.327 1_545 S
O66 In65 2.293 . S
O66 C75 1.240 . S
O67 In65 2.326 1_565 S
O67 C75 1.252 1_565 S
C68 O71 1.252 1_556 S
C68 O72 1.260 . S
C69 O76 1.240 . S
C69 O77 1.252 . S
C70 O73 1.293 . S
C70 O74 1.230 1_565 S
O71 In65 2.265 . S
O71 C68 1.252 1_554 S
O72 In65 2.326 1_556 S
O72 C68 1.260 . S
O73 In65 2.267 1_566 S
O73 C70 1.293 . S
O74 In65 2.324 1_556 S
O74 C70 1.230 1_545 S
C75 O66 1.240 . S
C75 O67 1.252 1_545 S
O76 In65 2.296 1_565 S
O76 C69 1.240 . S
O77 In65 2.327 1_565 S
O77 C69 1.252 . S
In78 O79 2.294 . S
In78 O80 2.326 . S
In78 O84 2.266 . S
In78 O85 2.326 . S
In78 O86 2.266 . S
In78 O87 2.326 . S
In78 O89 2.294 . S
In78 O90 2.326 . S
O79 In78 2.294 . S
O79 C88 1.240 . S
O80 In78 2.326 . S
O80 C88 1.252 . S
C81 O84 1.252 . S
C81 O85 1.260 . S
C82 O89 1.240 . S
C82 O90 1.252 . S
C83 O86 1.252 . S
C83 O87 1.260 . S
O84 In78 2.266 . S
O84 C81 1.252 . S
O85 In78 2.326 . S
O85 C81 1.260 . S
O86 In78 2.266 . S
O86 C83 1.252 . S
O87 In78 2.326 . S
O87 C83 1.260 . S
C88 O79 1.240 . S
C88 O80 1.252 . S
O89 In78 2.294 . S
O89 C82 1.240 . S
O90 In78 2.326 . S
O90 C82 1.252 . S
In91 O92 2.294 . S
In91 O93 2.326 . S
In91 O97 2.266 . S
In91 O98 2.320 1_565 S
In91 O99 2.266 . S
In91 O100 2.326 . S
In91 O102 2.294 1_565 S
In91 O103 2.326 1_565 S
O92 In91 2.294 . S
O92 C101 1.240 . S
O93 In91 2.326 . S
O93 C101 1.252 . S
C94 O97 1.252 . S
C94 O98 1.228 1_565 S
C95 O102 1.240 . S
C95 O103 1.252 . S
C96 O99 1.252 . S
C96 O100 1.260 . S
O97 In91 2.266 . S
O97 C94 1.252 . S
O98 In91 2.320 1_545 S
O98 C94 1.228 1_545 S
O99 In91 2.266 . S
O99 C96 1.252 . S
O100 In91 2.326 . S
O100 C96 1.260 . S
C101 O92 1.240 . S
C101 O93 1.252 . S
O102 In91 2.294 1_545 S
O102 C95 1.240 . S
O103 In91 2.326 1_545 S
O103 C95 1.252 . S
In104 O105 2.294 . S
In104 O106 2.326 . S
In104 O110 2.266 . S
In104 O111 2.326 . S
In104 O112 2.266 1_455 S
In104 O113 2.326 1_455 S
In104 O115 2.294 . S
In104 O116 2.326 . S
O105 In104 2.294 . S
O105 C114 1.240 . S
O106 In104 2.326 . S
O106 C114 1.252 . S
C107 O110 1.252 . S
C107 O111 1.260 . S
C108 O115 1.240 . S
C108 O116 1.252 . S
C109 O112 1.252 . S
C109 O113 1.260 . S
O110 In104 2.266 . S
O110 C107 1.252 . S
O111 In104 2.326 . S
O111 C107 1.260 . S
O112 In104 2.266 1_655 S
O112 C109 1.252 . S
O113 In104 2.326 1_655 S
O113 C109 1.260 . S
C114 O105 1.240 . S
C114 O106 1.252 . S
O115 In104 2.294 . S
O115 C108 1.240 . S
O116 In104 2.326 . S
O116 C108 1.252 . S
In117 O118 2.294 . S
In117 O119 2.326 . S
In117 O123 2.266 1_565 S
In117 O124 2.326 1_565 S
In117 O125 2.266 . S
In117 O126 2.326 . S
In117 O128 2.294 . S
In117 O129 2.353 . S
O118 In117 2.294 . S
O118 C127 1.240 . S
O119 In117 2.326 . S
O119 C127 1.252 . S
C120 O123 1.252 . S
C120 O124 1.260 . S
C121 O128 1.240 . S
C121 O129 1.252 . S
C122 O125 1.252 . S
C122 O126 1.260 . S
O123 In117 2.266 1_545 S
O123 C120 1.252 . S
O124 In117 2.326 1_545 S
O124 C120 1.260 . S
O125 In117 2.266 . S
O125 C122 1.252 . S
O126 In117 2.326 . S
O126 C122 1.260 . S
C127 O118 1.240 . S
C127 O119 1.252 . S
O128 In117 2.294 . S
O128 C121 1.240 . S
O129 In117 2.353 . S
O129 C121 1.252 . S
In130 O131 2.294 . S
In130 O132 2.326 . S
In130 O136 2.266 1_455 S
In130 O137 2.326 1_455 S
In130 O138 2.266 . S
In130 O139 2.326 . S
In130 O141 2.294 . S
In130 O142 2.326 . S
O131 In130 2.294 . S
O131 C140 1.240 . S
O132 In130 2.326 . S
O132 C140 1.252 . S
C133 O136 1.252 . S
C133 O137 1.260 . S
C134 O141 1.240 . S
C134 O142 1.252 . S
C135 O138 1.252 . S
C135 O139 1.260 . S
O136 In130 2.266 1_655 S
O136 C133 1.252 . S
O137 In130 2.326 1_655 S
O137 C133 1.260 . S
O138 In130 2.266 . S
O138 C135 1.252 . S
O139 In130 2.326 . S
O139 C135 1.260 . S
C140 O131 1.240 . S
C140 O132 1.252 . S
O141 In130 2.294 . S
O141 C134 1.240 . S
O142 In130 2.326 . S
O142 C134 1.252 . S
In143 O144 2.294 . S
In143 O145 2.326 . S
In143 O149 2.266 . S
In143 O150 2.326 . S
In143 O151 2.266 . S
In143 O152 2.326 . S
In143 O154 2.294 . S
In143 O155 2.326 . S
O144 In143 2.294 . S
O144 C153 1.240 . S
O145 In143 2.326 . S
O145 C153 1.252 . S
C146 O149 1.252 . S
C146 O150 1.260 . S
C147 O154 1.240 . S
C147 O155 1.252 . S
C148 O151 1.252 . S
C148 O152 1.260 . S
O149 In143 2.266 . S
O149 C146 1.252 . S
O150 In143 2.326 . S
O150 C146 1.260 . S
O151 In143 2.266 . S
O151 C148 1.252 . S
O152 In143 2.326 . S
O152 C148 1.260 . S
C153 O144 1.240 . S
C153 O145 1.252 . S
O154 In143 2.294 . S
O154 C147 1.240 . S
O155 In143 2.326 . S
O155 C147 1.252 . S
In156 O157 2.294 . S
In156 O158 2.326 . S
In156 O162 2.266 . S
In156 O163 2.326 . S
In156 O164 2.266 1_545 S
In156 O165 2.326 1_545 S
In156 O167 2.294 . S
In156 O168 2.326 . S
O157 In156 2.294 . S
O157 C166 1.240 . S
O158 In156 2.326 . S
O158 C166 1.252 . S
C159 O162 1.252 . S
C159 O163 1.260 . S
C160 O167 1.240 . S
C160 O168 1.252 . S
C161 O164 1.252 . S
C161 O165 1.260 . S
O162 In156 2.266 . S
O162 C159 1.252 . S
O163 In156 2.326 . S
O163 C159 1.260 . S
O164 In156 2.266 1_565 S
O164 C161 1.252 . S
O165 In156 2.326 1_565 S
O165 C161 1.260 . S
C166 O157 1.240 . S
C166 O158 1.252 . S
O167 In156 2.294 . S
O167 C160 1.240 . S
O168 In156 2.326 . S
O168 C160 1.252 . S
In169 O170 2.294 . S
In169 O171 2.331 . S
In169 O175 2.266 . S
In169 O176 2.326 . S
In169 O177 2.266 1_655 S
In169 O178 2.326 1_655 S
In169 O180 2.294 . S
In169 O181 2.326 . S
O170 In169 2.294 . S
O170 C179 1.240 . S
O171 In169 2.331 . S
O171 C179 1.280 . S
C172 O175 1.252 . S
C172 O176 1.260 . S
C173 O180 1.240 . S
C173 O181 1.252 . S
C174 O177 1.252 . S
C174 O178 1.260 . S
O175 In169 2.266 . S
O175 C172 1.252 . S
O176 In169 2.326 . S
O176 C172 1.260 . S
O177 In169 2.266 1_455 S
O177 C174 1.252 . S
O178 In169 2.326 1_455 S
O178 C174 1.260 . S
C179 O170 1.240 . S
C179 O171 1.280 . S
O180 In169 2.294 . S
O180 C173 1.240 . S
O181 In169 2.326 . S
O181 C173 1.252 . S
In182 O183 2.294 . S
In182 O184 2.326 . S
In182 O188 2.266 . S
In182 O189 2.326 . S
In182 O190 2.266 . S
In182 O191 2.326 . S
In182 O193 2.294 . S
In182 O194 2.326 . S
O183 In182 2.294 . S
O183 C192 1.240 . S
O184 In182 2.326 . S
O184 C192 1.252 . S
C185 O188 1.252 . S
C185 O189 1.260 . S
C186 O193 1.240 . S
C186 O194 1.252 . S
C187 O190 1.252 . S
C187 O191 1.260 . S
O188 In182 2.266 . S
O188 C185 1.252 . S
O189 In182 2.326 . S
O189 C185 1.260 . S
O190 In182 2.266 . S
O190 C187 1.252 . S
O191 In182 2.326 . S
O191 C187 1.260 . S
C192 O183 1.240 . S
C192 O184 1.252 . S
O193 In182 2.294 . S
O193 C186 1.240 . S
O194 In182 2.326 . S
O194 C186 1.252 . S
In195 O196 2.294 . S
In195 O197 2.326 . S
In195 O201 2.266 . S
In195 O202 2.326 . S
In195 O203 2.266 . S
In195 O204 2.326 . S
In195 O206 2.294 . S
In195 O207 2.326 . S
O196 In195 2.294 . S
O196 C205 1.240 . S
O197 In195 2.326 . S
O197 C205 1.252 . S
C198 O201 1.252 . S
C198 O202 1.260 . S
C199 O206 1.240 . S
C199 O207 1.252 . S
C200 O203 1.252 . S
C200 O204 1.260 . S
O201 In195 2.266 . S
O201 C198 1.252 . S
O202 In195 2.326 . S
O202 C198 1.260 . S
O203 In195 2.266 . S
O203 C200 1.252 . S
O204 In195 2.326 . S
O204 C200 1.260 . S
C205 O196 1.240 . S
C205 O197 1.252 . S
O206 In195 2.294 . S
O206 C199 1.240 . S
O207 In195 2.326 . S
O207 C199 1.252 . S
In208 O209 2.294 . S
In208 O210 2.326 . S
In208 O214 2.266 . S
In208 O215 2.325 . S
In208 O216 2.266 . S
In208 O217 2.326 . S
In208 O219 2.294 1_545 S
In208 O220 2.326 1_545 S
O209 In208 2.294 . S
O209 C218 1.240 . S
O210 In208 2.326 . S
O210 C218 1.252 . S
C211 O214 1.252 . S
C211 O215 1.258 . S
C212 O219 1.240 . S
C212 O220 1.252 . S
C213 O216 1.252 . S
C213 O217 1.260 . S
O214 In208 2.266 . S
O214 C211 1.252 . S
O215 In208 2.325 . S
O215 C211 1.258 . S
O216 In208 2.266 . S
O216 C213 1.252 . S
O217 In208 2.326 . S
O217 C213 1.260 . S
C218 O209 1.240 . S
C218 O210 1.252 . S
O219 In208 2.294 1_565 S
O219 C212 1.240 . S
O220 In208 2.326 1_565 S
O220 C212 1.252 . S
In221 O222 2.294 . S
In221 O223 2.355 . S
In221 O227 2.266 . S
In221 O228 2.326 . S
In221 O229 2.266 1_655 S
In221 O230 2.326 1_655 S
In221 O232 2.294 . S
In221 O233 2.326 . S
O222 In221 2.294 . S
O222 C231 1.240 . S
O223 In221 2.355 . S
O223 C231 1.252 . S
C224 O227 1.252 . S
C224 O228 1.260 . S
C225 O232 1.240 . S
C225 O233 1.252 . S
C226 O229 1.252 . S
C226 O230 1.260 . S
O227 In221 2.266 . S
O227 C224 1.252 . S
O228 In221 2.326 . S
O228 C224 1.260 . S
O229 In221 2.266 1_455 S
O229 C226 1.252 . S
O230 In221 2.326 1_455 S
O230 C226 1.260 . S
C231 O222 1.240 . S
C231 O223 1.252 . S
O232 In221 2.294 . S
O232 C225 1.240 . S
O233 In221 2.326 . S
O233 C225 1.252 . S
C234 C235 1.384 . S
C234 C236 1.384 . S
C234 H262 0.931 . S
C235 C234 1.384 . S
C235 C238 1.382 . S
C236 C234 1.384 . S
C236 C237 1.381 . S
C236 H263 0.930 . S
C237 C236 1.381 . S
C237 C239 1.381 . S
C237 C240 1.487 . S
C238 C235 1.382 . S
C238 C239 1.387 . S
C238 H264 0.930 . S
C239 C237 1.381 . S
C239 C238 1.387 . S
C239 H265 0.931 . S
C240 C237 1.487 . S
C240 C247 1.399 . S
C240 N278 1.343 . S
C241 C242 1.384 . S
C241 C243 1.384 . S
C241 H266 0.931 . S
C242 C241 1.384 . S
C242 C245 1.382 . S
C243 C241 1.384 . S
C243 C244 1.381 . S
C243 H267 0.930 . S
C244 C243 1.381 . S
C244 C246 1.381 . S
C244 C247 1.487 . S
C245 C242 1.382 . S
C245 C246 1.387 . S
C245 H268 0.930 . S
C246 C244 1.381 . S
C246 C245 1.387 . S
C246 H269 0.931 . S
C247 C240 1.399 . S
C247 C244 1.487 . S
C247 N279 1.343 . S
C248 C249 1.384 . S
C248 C250 1.384 . S
C248 H270 0.931 . S
C249 C248 1.384 . S
C249 C252 1.382 . S
C250 C248 1.384 . S
C250 C251 1.381 . S
C250 H271 0.930 . S
C251 C250 1.381 . S
C251 C253 1.381 . S
C251 C254 1.487 . S
C252 C249 1.382 . S
C252 C253 1.387 . S
C252 H272 0.930 . S
C253 C251 1.381 . S
C253 C252 1.387 . S
C253 H273 0.931 . S
C254 C251 1.487 . S
C254 C261 1.399 . S
C254 N279 1.343 . S
C255 C256 1.384 . S
C255 C257 1.384 . S
C255 H274 0.931 . S
C256 C255 1.384 . S
C256 C259 1.382 . S
C257 C255 1.384 . S
C257 C258 1.381 . S
C257 H275 0.930 . S
C258 C257 1.381 . S
C258 C260 1.381 . S
C258 C261 1.487 . S
C259 C256 1.382 . S
C259 C260 1.387 . S
C259 H276 0.930 . S
C260 C258 1.381 . S
C260 C259 1.387 . S
C260 H277 0.931 . S
C261 C254 1.399 . S
C261 C258 1.487 . S
C261 N278 1.343 . S
H262 C234 0.931 . S
H263 C236 0.930 . S
H264 C238 0.930 . S
H265 C239 0.931 . S
H266 C241 0.931 . S
H267 C243 0.930 . S
H268 C245 0.930 . S
H269 C246 0.931 . S
H270 C248 0.931 . S
H271 C250 0.930 . S
H272 C252 0.930 . S
H273 C253 0.931 . S
H274 C255 0.931 . S
H275 C257 0.930 . S
H276 C259 0.930 . S
H277 C260 0.931 . S
N278 C240 1.343 . S
N278 C261 1.343 . S
N279 C247 1.343 . S
N279 C254 1.343 . S
C280 C281 1.384 . S
C280 C282 1.384 . S
C280 H308 0.931 . S
C281 C280 1.384 . S
C281 C284 1.382 . S
C282 C280 1.384 . S
C282 C283 1.381 . S
C282 H309 0.930 . S
C283 C282 1.381 . S
C283 C285 1.381 . S
C283 C286 1.487 . S
C284 C281 1.382 . S
C284 C285 1.387 . S
C284 H310 0.930 . S
C285 C283 1.381 . S
C285 C284 1.387 . S
C285 H311 0.931 . S
C286 C283 1.487 . S
C286 C293 1.399 . S
C286 N324 1.343 . S
C287 C288 1.384 . S
C287 C289 1.384 . S
C287 H312 0.931 . S
C288 C287 1.384 . S
C288 C291 1.382 . S
C289 C287 1.384 . S
C289 C290 1.381 . S
C289 H313 0.930 . S
C290 C289 1.381 . S
C290 C292 1.381 . S
C290 C293 1.487 . S
C291 C288 1.382 . S
C291 C292 1.387 . S
C291 H314 0.930 . S
C292 C290 1.381 . S
C292 C291 1.387 . S
C292 H315 0.931 . S
C293 C286 1.399 . S
C293 C290 1.487 . S
C293 N325 1.343 . S
C294 C295 1.384 . S
C294 C296 1.384 . S
C294 H316 0.931 . S
C295 C294 1.384 . S
C295 C298 1.382 . S
C296 C294 1.384 . S
C296 C297 1.381 . S
C296 H317 0.930 . S
C297 C296 1.381 . S
C297 C299 1.381 . S
C297 C300 1.487 . S
C298 C295 1.382 . S
C298 C299 1.387 . S
C298 H318 0.930 . S
C299 C297 1.381 . S
C299 C298 1.387 . S
C299 H319 0.931 . S
C300 C297 1.487 . S
C300 C307 1.399 . S
C300 N325 1.343 . S
C301 C302 1.384 . S
C301 C303 1.384 . S
C301 H320 0.931 . S
C302 C301 1.384 . S
C302 C305 1.382 . S
C303 C301 1.384 . S
C303 C304 1.381 . S
C303 H321 0.930 . S
C304 C303 1.381 . S
C304 C306 1.381 . S
C304 C307 1.487 . S
C305 C302 1.382 . S
C305 C306 1.387 . S
C305 H322 0.930 . S
C306 C304 1.381 . S
C306 C305 1.387 . S
C306 H323 0.931 . S
C307 C300 1.399 . S
C307 C304 1.487 . S
C307 N324 1.343 . S
H308 C280 0.931 . S
H309 C282 0.930 . S
H310 C284 0.930 . S
H311 C285 0.931 . S
H312 C287 0.931 . S
H313 C289 0.930 . S
H314 C291 0.930 . S
H315 C292 0.931 . S
H316 C294 0.931 . S
H317 C296 0.930 . S
H318 C298 0.930 . S
H319 C299 0.931 . S
H320 C301 0.931 . S
H321 C303 0.930 . S
H322 C305 0.930 . S
H323 C306 0.931 . S
N324 C286 1.343 . S
N324 C307 1.343 . S
N325 C293 1.343 . S
N325 C300 1.343 . S
C326 C327 1.384 . S
C326 C328 1.384 . S
C326 H354 0.931 . S
C327 C326 1.384 . S
C327 C330 1.382 . S
C328 C326 1.384 . S
C328 C329 1.381 . S
C328 H355 0.930 . S
C329 C328 1.381 . S
C329 C331 1.381 . S
C329 C332 1.487 . S
C330 C327 1.382 . S
C330 C331 1.387 . S
C330 H356 0.930 . S
C331 C329 1.381 . S
C331 C330 1.387 . S
C331 H357 0.931 . S
C332 C329 1.487 . S
C332 C339 1.399 . S
C332 N370 1.343 . S
C333 C334 1.384 . S
C333 C335 1.384 . S
C333 H358 0.931 . S
C334 C333 1.384 . S
C334 C337 1.382 . S
C335 C333 1.384 . S
C335 C336 1.381 . S
C335 H359 0.930 . S
C336 C335 1.381 . S
C336 C338 1.381 . S
C336 C339 1.487 . S
C337 C334 1.382 . S
C337 C338 1.387 . S
C337 H360 0.930 . S
C338 C336 1.381 . S
C338 C337 1.387 . S
C338 H361 0.931 . S
C339 C332 1.399 . S
C339 C336 1.487 . S
C339 N371 1.343 . S
C340 C341 1.384 . S
C340 C342 1.384 . S
C340 H362 0.931 . S
C341 C340 1.384 . S
C341 C344 1.382 . S
C342 C340 1.384 . S
C342 C343 1.381 . S
C342 H363 0.930 . S
C343 C342 1.381 . S
C343 C345 1.381 . S
C343 C346 1.487 . S
C344 C341 1.382 . S
C344 C345 1.387 . S
C344 H364 0.930 . S
C345 C343 1.381 . S
C345 C344 1.387 . S
C345 H365 0.931 . S
C346 C343 1.487 . S
C346 C353 1.399 . S
C346 N371 1.343 . S
C347 C348 1.384 . S
C347 C349 1.384 . S
C347 H366 0.931 . S
C348 C347 1.384 . S
C348 C351 1.382 . S
C349 C347 1.384 . S
C349 C350 1.381 . S
C349 H367 0.930 . S
C350 C349 1.381 . S
C350 C352 1.381 . S
C350 C353 1.487 . S
C351 C348 1.382 . S
C351 C352 1.387 . S
C351 H368 0.930 . S
C352 C350 1.381 . S
C352 C351 1.387 . S
C352 H369 0.931 . S
C353 C346 1.399 . S
C353 C350 1.487 . S
C353 N370 1.343 . S
H354 C326 0.931 . S
H355 C328 0.930 . S
H356 C330 0.930 . S
H357 C331 0.931 . S
H358 C333 0.931 . S
H359 C335 0.930 . S
H360 C337 0.930 . S
H361 C338 0.931 . S
H362 C340 0.931 . S
H363 C342 0.930 . S
H364 C344 0.930 . S
H365 C345 0.931 . S
H366 C347 0.931 . S
H367 C349 0.930 . S
H368 C351 0.930 . S
H369 C352 0.931 . S
N370 C332 1.343 . S
N370 C353 1.343 . S
N371 C339 1.343 . S
N371 C346 1.343 . S
C372 C373 1.384 . S
C372 C374 1.384 . S
C372 H400 0.931 . S
C373 C372 1.384 . S
C373 C376 1.382 . S
C374 C372 1.384 . S
C374 C375 1.381 . S
C374 H401 0.930 . S
C375 C374 1.381 . S
C375 C377 1.381 . S
C375 C378 1.487 . S
C376 C373 1.382 . S
C376 C377 1.387 . S
C376 H402 0.930 . S
C377 C375 1.381 . S
C377 C376 1.387 . S
C377 H403 0.931 . S
C378 C375 1.487 . S
C378 C385 1.399 . S
C378 N416 1.343 . S
C379 C380 1.384 . S
C379 C381 1.384 . S
C379 H404 0.931 . S
C380 C379 1.384 . S
C380 C383 1.382 . S
C381 C379 1.384 . S
C381 C382 1.381 . S
C381 H405 0.930 . S
C382 C381 1.381 . S
C382 C384 1.381 . S
C382 C385 1.487 . S
C383 C380 1.382 . S
C383 C384 1.387 . S
C383 H406 0.930 . S
C384 C382 1.381 . S
C384 C383 1.387 . S
C384 H407 0.931 . S
C385 C378 1.399 . S
C385 C382 1.487 . S
C385 N417 1.343 . S
C386 C387 1.384 . S
C386 C388 1.384 . S
C386 H408 0.931 . S
C387 C386 1.384 . S
C387 C390 1.382 . S
C388 C386 1.384 . S
C388 C389 1.381 . S
C388 H409 0.930 . S
C389 C388 1.381 . S
C389 C391 1.381 . S
C389 C392 1.487 . S
C390 C387 1.382 . S
C390 C391 1.387 . S
C390 H410 0.930 . S
C391 C389 1.381 . S
C391 C390 1.387 . S
C391 H411 0.931 . S
C392 C389 1.487 . S
C392 C399 1.399 . S
C392 N417 1.343 . S
C393 C394 1.384 . S
C393 C395 1.384 . S
C393 H412 0.931 . S
C394 C393 1.384 . S
C394 C397 1.382 . S
C395 C393 1.384 . S
C395 C396 1.381 . S
C395 H413 0.930 . S
C396 C395 1.381 . S
C396 C398 1.381 . S
C396 C399 1.487 . S
C397 C394 1.382 . S
C397 C398 1.387 . S
C397 H414 0.930 . S
C398 C396 1.381 . S
C398 C397 1.387 . S
C398 H415 0.931 . S
C399 C392 1.399 . S
C399 C396 1.487 . S
C399 N416 1.343 . S
H400 C372 0.931 . S
H401 C374 0.930 . S
H402 C376 0.930 . S
H403 C377 0.931 . S
H404 C379 0.931 . S
H405 C381 0.930 . S
H406 C383 0.930 . S
H407 C384 0.931 . S
H408 C386 0.931 . S
H409 C388 0.930 . S
H410 C390 0.930 . S
H411 C391 0.931 . S
H412 C393 0.931 . S
H413 C395 0.930 . S
H414 C397 0.930 . S
H415 C398 0.931 . S
N416 C378 1.343 . S
N416 C399 1.343 . S
N417 C385 1.343 . S
N417 C392 1.343 . S
C418 C419 1.384 . S
C418 C420 1.384 . S
C418 H446 0.931 . S
C419 C418 1.384 . S
C419 C422 1.382 . S
C420 C418 1.384 . S
C420 C421 1.381 . S
C420 H447 0.930 . S
C421 C420 1.381 . S
C421 C423 1.381 . S
C421 C424 1.487 . S
C422 C419 1.382 . S
C422 C423 1.387 . S
C422 H448 0.930 . S
C423 C421 1.381 . S
C423 C422 1.387 . S
C423 H449 0.931 . S
C424 C421 1.487 . S
C424 C431 1.399 . S
C424 N462 1.343 . S
C425 C426 1.384 . S
C425 C427 1.384 . S
C425 H450 0.931 . S
C426 C425 1.384 . S
C426 C429 1.382 . S
C427 C425 1.384 . S
C427 C428 1.381 . S
C427 H451 0.930 . S
C428 C427 1.381 . S
C428 C430 1.381 . S
C428 C431 1.487 . S
C429 C426 1.382 . S
C429 C430 1.387 . S
C429 H452 0.930 . S
C430 C428 1.381 . S
C430 C429 1.387 . S
C430 H453 0.931 . S
C431 C424 1.399 . S
C431 C428 1.487 . S
C431 N463 1.343 . S
C432 C433 1.384 . S
C432 C434 1.384 . S
C432 H454 0.931 . S
C433 C432 1.384 . S
C433 C436 1.382 . S
C434 C432 1.384 . S
C434 C435 1.381 . S
C434 H455 0.930 . S
C435 C434 1.381 . S
C435 C437 1.381 . S
C435 C438 1.487 . S
C436 C433 1.382 . S
C436 C437 1.387 . S
C436 H456 0.930 . S
C437 C435 1.381 . S
C437 C436 1.387 . S
C437 H457 0.931 . S
C438 C435 1.487 . S
C438 C445 1.399 . S
C438 N463 1.343 . S
C439 C440 1.384 . S
C439 C441 1.384 . S
C439 H458 0.931 . S
C440 C439 1.384 . S
C440 C443 1.382 . S
C441 C439 1.384 . S
C441 C442 1.381 . S
C441 H459 0.930 . S
C442 C441 1.381 . S
C442 C444 1.381 . S
C442 C445 1.487 . S
C443 C440 1.382 . S
C443 C444 1.387 . S
C443 H460 0.930 . S
C444 C442 1.381 . S
C444 C443 1.387 . S
C444 H461 0.931 . S
C445 C438 1.399 . S
C445 C442 1.487 . S
C445 N462 1.343 . S
H446 C418 0.931 . S
H447 C420 0.930 . S
H448 C422 0.930 . S
H449 C423 0.931 . S
H450 C425 0.931 . S
H451 C427 0.930 . S
H452 C429 0.930 . S
H453 C430 0.931 . S
H454 C432 0.931 . S
H455 C434 0.930 . S
H456 C436 0.930 . S
H457 C437 0.931 . S
H458 C439 0.931 . S
H459 C441 0.930 . S
H460 C443 0.930 . S
H461 C444 0.931 . S
N462 C424 1.343 . S
N462 C445 1.343 . S
N463 C431 1.343 . S
N463 C438 1.343 . S
C464 C465 1.384 . S
C464 C466 1.384 . S
C464 H492 0.931 . S
C465 C464 1.384 . S
C465 C468 1.382 . S
C466 C464 1.384 . S
C466 C467 1.381 . S
C466 H493 0.930 . S
C467 C466 1.381 . S
C467 C469 1.381 . S
C467 C470 1.487 . S
C468 C465 1.382 . S
C468 C469 1.387 . S
C468 H494 0.930 . S
C469 C467 1.381 . S
C469 C468 1.387 . S
C469 H495 0.931 . S
C470 C467 1.487 . S
C470 C477 1.399 . S
C470 N508 1.343 . S
C471 C472 1.384 . S
C471 C473 1.384 . S
C471 H496 0.931 . S
C472 C471 1.384 . S
C472 C475 1.382 . S
C473 C471 1.384 . S
C473 C474 1.381 . S
C473 H497 0.930 . S
C474 C473 1.381 . S
C474 C476 1.381 . S
C474 C477 1.487 . S
C475 C472 1.382 . S
C475 C476 1.387 . S
C475 H498 0.930 . S
C476 C474 1.381 . S
C476 C475 1.387 . S
C476 H499 0.931 . S
C477 C470 1.399 . S
C477 C474 1.487 . S
C477 N509 1.343 . S
C478 C479 1.384 . S
C478 C480 1.384 . S
C478 H500 0.931 . S
C479 C478 1.384 . S
C479 C482 1.382 . S
C480 C478 1.384 . S
C480 C481 1.381 . S
C480 H501 0.930 . S
C481 C480 1.381 . S
C481 C483 1.381 . S
C481 C484 1.487 . S
C482 C479 1.382 . S
C482 C483 1.387 . S
C482 H502 0.930 . S
C483 C481 1.381 . S
C483 C482 1.387 . S
C483 H503 0.931 . S
C484 C481 1.487 . S
C484 C491 1.399 . S
C484 N509 1.343 . S
C485 C486 1.384 . S
C485 C487 1.384 . S
C485 H504 0.931 . S
C486 C485 1.384 . S
C486 C489 1.382 . S
C487 C485 1.384 . S
C487 C488 1.381 . S
C487 H505 0.930 . S
C488 C487 1.381 . S
C488 C490 1.381 . S
C488 C491 1.487 . S
C489 C486 1.382 . S
C489 C490 1.387 . S
C489 H506 0.930 . S
C490 C488 1.381 . S
C490 C489 1.387 . S
C490 H507 0.931 . S
C491 C484 1.399 . S
C491 C488 1.487 . S
C491 N508 1.343 . S
H492 C464 0.931 . S
H493 C466 0.930 . S
H494 C468 0.930 . S
H495 C469 0.931 . S
H496 C471 0.931 . S
H497 C473 0.930 . S
H498 C475 0.930 . S
H499 C476 0.931 . S
H500 C478 0.931 . S
H501 C480 0.930 . S
H502 C482 0.930 . S
H503 C483 0.931 . S
H504 C485 0.931 . S
H505 C487 0.930 . S
H506 C489 0.930 . S
H507 C490 0.931 . S
N508 C470 1.343 . S
N508 C491 1.343 . S
N509 C477 1.343 . S
N509 C484 1.343 . S
C510 C511 1.384 . S
C510 C512 1.384 . S
C510 H538 0.931 . S
C511 C510 1.384 . S
C511 C514 1.382 . S
C512 C510 1.384 . S
C512 C513 1.381 . S
C512 H539 0.930 . S
C513 C512 1.381 . S
C513 C515 1.381 . S
C513 C516 1.487 . S
C514 C511 1.382 . S
C514 C515 1.387 . S
C514 H540 0.930 . S
C515 C513 1.381 . S
C515 C514 1.387 . S
C515 H541 0.931 . S
C516 C513 1.487 . S
C516 C523 1.399 . S
C516 N554 1.343 . S
C517 C518 1.384 . S
C517 C519 1.384 . S
C517 H542 0.931 . S
C518 C517 1.384 . S
C518 C521 1.382 . S
C519 C517 1.384 . S
C519 C520 1.381 . S
C519 H543 0.930 . S
C520 C519 1.381 . S
C520 C522 1.381 . S
C520 C523 1.487 . S
C521 C518 1.382 . S
C521 C522 1.387 . S
C521 H544 0.930 . S
C522 C520 1.381 . S
C522 C521 1.387 . S
C522 H545 0.931 . S
C523 C516 1.399 . S
C523 C520 1.487 . S
C523 N555 1.343 . S
C524 C525 1.384 . S
C524 C526 1.384 . S
C524 H546 0.931 . S
C525 C524 1.384 . S
C525 C528 1.382 . S
C526 C524 1.384 . S
C526 C527 1.381 . S
C526 H547 0.930 . S
C527 C526 1.381 . S
C527 C529 1.381 . S
C527 C530 1.487 . S
C528 C525 1.382 . S
C528 C529 1.387 . S
C528 H548 0.930 . S
C529 C527 1.381 . S
C529 C528 1.387 . S
C529 H549 0.931 . S
C530 C527 1.487 . S
C530 C537 1.399 . S
C530 N555 1.343 . S
C531 C532 1.384 . S
C531 C533 1.384 . S
C531 H550 0.931 . S
C532 C531 1.384 . S
C532 C535 1.382 . S
C533 C531 1.384 . S
C533 C534 1.381 . S
C533 H551 0.930 . S
C534 C533 1.381 . S
C534 C536 1.381 . S
C534 C537 1.487 . S
C535 C532 1.382 . S
C535 C536 1.387 . S
C535 H552 0.930 . S
C536 C534 1.381 . S
C536 C535 1.387 . S
C536 H553 0.931 . S
C537 C530 1.399 . S
C537 C534 1.487 . S
C537 N554 1.343 . S
H538 C510 0.931 . S
H539 C512 0.930 . S
H540 C514 0.930 . S
H541 C515 0.931 . S
H542 C517 0.931 . S
H543 C519 0.930 . S
H544 C521 0.930 . S
H545 C522 0.931 . S
H546 C524 0.931 . S
H547 C526 0.930 . S
H548 C528 0.930 . S
H549 C529 0.931 . S
H550 C531 0.931 . S
H551 C533 0.930 . S
H552 C535 0.930 . S
H553 C536 0.931 . S
N554 C516 1.343 . S
N554 C537 1.343 . S
N555 C523 1.343 . S
N555 C530 1.343 . S
C556 C557 1.384 . S
C556 C558 1.384 . S
C556 H584 0.931 . S
C557 C556 1.384 . S
C557 C560 1.382 . S
C558 C556 1.384 . S
C558 C559 1.381 . S
C558 H585 0.930 . S
C559 C558 1.381 . S
C559 C561 1.381 . S
C559 C562 1.487 . S
C560 C557 1.382 . S
C560 C561 1.387 . S
C560 H586 0.930 . S
C561 C559 1.381 . S
C561 C560 1.387 . S
C561 H587 0.931 . S
C562 C559 1.487 . S
C562 C569 1.399 . S
C562 N600 1.343 . S
C563 C564 1.384 . S
C563 C565 1.384 . S
C563 H588 0.931 . S
C564 C563 1.384 . S
C564 C567 1.382 . S
C565 C563 1.384 . S
C565 C566 1.381 . S
C565 H589 0.930 . S
C566 C565 1.381 . S
C566 C568 1.381 . S
C566 C569 1.487 . S
C567 C564 1.382 . S
C567 C568 1.387 . S
C567 H590 0.930 . S
C568 C566 1.381 . S
C568 C567 1.387 . S
C568 H591 0.931 . S
C569 C562 1.399 . S
C569 C566 1.487 . S
C569 N601 1.343 . S
C570 C571 1.384 . S
C570 C572 1.384 . S
C570 H592 0.931 . S
C571 C570 1.384 . S
C571 C574 1.382 . S
C572 C570 1.384 . S
C572 C573 1.381 . S
C572 H593 0.930 . S
C573 C572 1.381 . S
C573 C575 1.381 . S
C573 C576 1.487 . S
C574 C571 1.382 . S
C574 C575 1.387 . S
C574 H594 0.930 . S
C575 C573 1.381 . S
C575 C574 1.387 . S
C575 H595 0.931 . S
C576 C573 1.487 . S
C576 C583 1.399 . S
C576 N601 1.343 . S
C577 C578 1.384 . S
C577 C579 1.384 . S
C577 H596 0.931 . S
C578 C577 1.384 . S
C578 C581 1.382 . S
C579 C577 1.384 . S
C579 C580 1.381 . S
C579 H597 0.930 . S
C580 C579 1.381 . S
C580 C582 1.381 . S
C580 C583 1.487 . S
C581 C578 1.382 . S
C581 C582 1.387 . S
C581 H598 0.930 . S
C582 C580 1.381 . S
C582 C581 1.387 . S
C582 H599 0.931 . S
C583 C576 1.399 . S
C583 C580 1.487 . S
C583 N600 1.343 . S
H584 C556 0.931 . S
H585 C558 0.930 . S
H586 C560 0.930 . S
H587 C561 0.931 . S
H588 C563 0.931 . S
H589 C565 0.930 . S
H590 C567 0.930 . S
H591 C568 0.931 . S
H592 C570 0.931 . S
H593 C572 0.930 . S
H594 C574 0.930 . S
H595 C575 0.931 . S
H596 C577 0.931 . S
H597 C579 0.930 . S
H598 C581 0.930 . S
H599 C582 0.931 . S
N600 C562 1.343 . S
N600 C583 1.343 . S
N601 C569 1.343 . S
N601 C576 1.343 . S
C602 C603 1.384 . S
C602 C604 1.384 . S
C602 H630 0.931 . S
C603 C602 1.384 . S
C603 C606 1.382 . S
C604 C602 1.384 . S
C604 C605 1.381 . S
C604 H631 0.930 . S
C605 C604 1.381 . S
C605 C607 1.381 . S
C605 C608 1.487 . S
C606 C603 1.382 . S
C606 C607 1.387 . S
C606 H632 0.930 . S
C607 C605 1.381 . S
C607 C606 1.387 . S
C607 H633 0.931 . S
C608 C605 1.487 . S
C608 C615 1.399 . S
C608 N646 1.343 . S
C609 C610 1.384 . S
C609 C611 1.384 . S
C609 H634 0.931 . S
C610 C609 1.384 . S
C610 C613 1.382 . S
C611 C609 1.384 . S
C611 C612 1.381 . S
C611 H635 0.930 . S
C612 C611 1.381 . S
C612 C614 1.381 . S
C612 C615 1.487 . S
C613 C610 1.382 . S
C613 C614 1.387 . S
C613 H636 0.930 . S
C614 C612 1.381 . S
C614 C613 1.387 . S
C614 H637 0.931 . S
C615 C608 1.399 . S
C615 C612 1.487 . S
C615 N647 1.343 . S
C616 C617 1.384 . S
C616 C618 1.384 . S
C616 H638 0.931 . S
C617 C616 1.384 . S
C617 C620 1.382 . S
C618 C616 1.384 . S
C618 C619 1.381 . S
C618 H639 0.930 . S
C619 C618 1.381 . S
C619 C621 1.381 . S
C619 C622 1.487 . S
C620 C617 1.382 . S
C620 C621 1.387 . S
C620 H640 0.930 . S
C621 C619 1.381 . S
C621 C620 1.387 . S
C621 H641 0.931 . S
C622 C619 1.487 . S
C622 C629 1.399 . S
C622 N647 1.343 . S
C623 C624 1.384 . S
C623 C625 1.384 . S
C623 H642 0.931 . S
C624 C623 1.384 . S
C624 C627 1.382 . S
C625 C623 1.384 . S
C625 C626 1.381 . S
C625 H643 0.930 . S
C626 C625 1.381 . S
C626 C628 1.381 . S
C626 C629 1.487 . S
C627 C624 1.382 . S
C627 C628 1.387 . S
C627 H644 0.930 . S
C628 C626 1.381 . S
C628 C627 1.387 . S
C628 H645 0.931 . S
C629 C622 1.399 . S
C629 C626 1.487 . S
C629 N646 1.343 . S
H630 C602 0.931 . S
H631 C604 0.930 . S
H632 C606 0.930 . S
H633 C607 0.931 . S
H634 C609 0.931 . S
H635 C611 0.930 . S
H636 C613 0.930 . S
H637 C614 0.931 . S
H638 C616 0.931 . S
H639 C618 0.930 . S
H640 C620 0.930 . S
H641 C621 0.931 . S
H642 C623 0.931 . S
H643 C625 0.930 . S
H644 C627 0.930 . S
H645 C628 0.931 . S
N646 C608 1.343 . S
N646 C629 1.343 . S
N647 C615 1.343 . S
N647 C622 1.343 . S
C648 C649 1.384 . S
C648 C650 1.384 . S
C648 H676 0.931 . S
C649 C648 1.384 . S
C649 C652 1.382 1_655 S
C650 C648 1.384 . S
C650 C651 1.391 . S
C650 H677 0.930 . S
C651 C650 1.391 . S
C651 C653 1.376 1_655 S
C651 C654 1.476 1_655 S
C652 C649 1.382 1_455 S
C652 C653 1.387 . S
C652 H678 0.930 . S
C653 C651 1.376 1_455 S
C653 C652 1.387 . S
C653 H679 0.931 . S
C654 C651 1.476 1_455 S
C654 C661 1.399 1_455 S
C654 N692 1.351 . S
C655 C656 1.384 . S
C655 C657 1.384 . S
C655 H680 0.931 . S
C656 C655 1.384 . S
C656 C659 1.382 1_455 S
C657 C655 1.384 . S
C657 C658 1.384 . S
C657 H681 0.930 . S
C658 C657 1.384 . S
C658 C660 1.373 1_455 S
C658 C661 1.496 1_455 S
C659 C656 1.382 1_655 S
C659 C660 1.387 . S
C659 H682 0.930 . S
C660 C658 1.373 1_655 S
C660 C659 1.387 . S
C660 H683 0.931 . S
C661 C654 1.399 1_655 S
C661 C658 1.496 1_655 S
C661 N693 1.364 . S
C662 C663 1.384 . S
C662 C664 1.384 . S
C662 H684 0.931 . S
C663 C662 1.384 . S
C663 C666 1.382 1_455 S
C664 C662 1.384 . S
C664 C665 1.403 . S
C664 H685 0.930 . S
C665 C664 1.403 . S
C665 C667 1.370 1_455 S
C665 C668 1.476 1_455 S
C666 C663 1.382 1_655 S
C666 C667 1.387 . S
C666 H686 0.930 . S
C667 C665 1.370 1_655 S
C667 C666 1.387 . S
C667 H687 0.931 . S
C668 C665 1.476 1_655 S
C668 C675 1.399 1_655 S
C668 N693 1.318 . S
C669 C670 1.384 . S
C669 C671 1.384 . S
C669 H688 0.931 . S
C670 C669 1.384 . S
C670 C673 1.382 1_655 S
C671 C669 1.384 . S
C671 C672 1.382 . S
C671 H689 0.930 . S
C672 C671 1.382 . S
C672 C674 1.380 1_655 S
C672 C675 1.496 1_655 S
C673 C670 1.382 1_455 S
C673 C674 1.387 . S
C673 H690 0.930 . S
C674 C672 1.380 1_455 S
C674 C673 1.387 . S
C674 H691 0.931 . S
C675 C668 1.399 1_455 S
C675 C672 1.496 1_455 S
C675 N692 1.335 . S
H676 C648 0.931 . S
H677 C650 0.930 . S
H678 C652 0.930 . S
H679 C653 0.931 . S
H680 C655 0.931 . S
H681 C657 0.930 . S
H682 C659 0.930 . S
H683 C660 0.931 . S
H684 C662 0.931 . S
H685 C664 0.930 . S
H686 C666 0.930 . S
H687 C667 0.931 . S
H688 C669 0.931 . S
H689 C671 0.930 . S
H690 C673 0.930 . S
H691 C674 0.931 . S
N692 C654 1.351 . S
N692 C675 1.335 . S
N693 C661 1.364 . S
N693 C668 1.318 . S
C694 C695 1.384 . S
C694 C696 1.384 . S
C694 H722 0.931 . S
C695 C694 1.384 . S
C695 C698 1.382 . S
C696 C694 1.384 . S
C696 C697 1.381 . S
C696 H723 0.930 . S
C697 C696 1.381 . S
C697 C699 1.381 . S
C697 C700 1.487 . S
C698 C695 1.382 . S
C698 C699 1.387 . S
C698 H724 0.930 . S
C699 C697 1.381 . S
C699 C698 1.387 . S
C699 H725 0.931 . S
C700 C697 1.487 . S
C700 C707 1.399 . S
C700 N738 1.343 . S
C701 C702 1.384 . S
C701 C703 1.384 . S
C701 H726 0.931 . S
C702 C701 1.384 . S
C702 C705 1.382 . S
C703 C701 1.384 . S
C703 C704 1.381 . S
C703 H727 0.930 . S
C704 C703 1.381 . S
C704 C706 1.381 . S
C704 C707 1.487 . S
C705 C702 1.382 . S
C705 C706 1.387 . S
C705 H728 0.930 . S
C706 C704 1.381 . S
C706 C705 1.387 . S
C706 H729 0.931 . S
C707 C700 1.399 . S
C707 C704 1.487 . S
C707 N739 1.343 . S
C708 C709 1.384 . S
C708 C710 1.384 . S
C708 H730 0.931 . S
C709 C708 1.384 . S
C709 C712 1.382 . S
C710 C708 1.384 . S
C710 C711 1.381 . S
C710 H731 0.930 . S
C711 C710 1.381 . S
C711 C713 1.381 . S
C711 C714 1.487 . S
C712 C709 1.382 . S
C712 C713 1.387 . S
C712 H732 0.930 . S
C713 C711 1.381 . S
C713 C712 1.387 . S
C713 H733 0.931 . S
C714 C711 1.487 . S
C714 C721 1.399 . S
C714 N739 1.343 . S
C715 C716 1.384 . S
C715 C717 1.384 . S
C715 H734 0.931 . S
C716 C715 1.384 . S
C716 C719 1.382 . S
C717 C715 1.384 . S
C717 C718 1.381 . S
C717 H735 0.930 . S
C718 C717 1.381 . S
C718 C720 1.381 . S
C718 C721 1.487 . S
C719 C716 1.382 . S
C719 C720 1.387 . S
C719 H736 0.930 . S
C720 C718 1.381 . S
C720 C719 1.387 . S
C720 H737 0.931 . S
C721 C714 1.399 . S
C721 C718 1.487 . S
C721 N738 1.343 . S
H722 C694 0.931 . S
H723 C696 0.930 . S
H724 C698 0.930 . S
H725 C699 0.931 . S
H726 C701 0.931 . S
H727 C703 0.930 . S
H728 C705 0.930 . S
H729 C706 0.931 . S
H730 C708 0.931 . S
H731 C710 0.930 . S
H732 C712 0.930 . S
H733 C713 0.931 . S
H734 C715 0.931 . S
H735 C717 0.930 . S
H736 C719 0.930 . S
H737 C720 0.931 . S
N738 C700 1.343 . S
N738 C721 1.343 . S
N739 C707 1.343 . S
N739 C714 1.343 . S
C740 C741 1.384 1_545 S
C740 C742 1.384 . S
C740 H768 0.931 . S
C741 C740 1.384 1_565 S
C741 C744 1.382 . S
C742 C740 1.384 . S
C742 C743 1.381 1_545 S
C742 H769 0.930 . S
C743 C742 1.381 1_565 S
C743 C745 1.381 . S
C743 C746 1.487 . S
C744 C741 1.382 . S
C744 C745 1.387 . S
C744 H770 0.930 . S
C745 C743 1.381 . S
C745 C744 1.387 . S
C745 H771 0.931 . S
C746 C743 1.487 . S
C746 C753 1.399 1_565 S
C746 N784 1.343 . S
C747 C748 1.384 1_565 S
C747 C749 1.384 . S
C747 H772 0.931 . S
C748 C747 1.384 1_545 S
C748 C751 1.382 . S
C749 C747 1.384 . S
C749 C750 1.381 1_565 S
C749 H773 0.930 . S
C750 C749 1.381 1_545 S
C750 C752 1.381 . S
C750 C753 1.487 . S
C751 C748 1.382 . S
C751 C752 1.387 . S
C751 H774 0.930 . S
C752 C750 1.381 . S
C752 C751 1.387 . S
C752 H775 0.931 . S
C753 C746 1.399 1_545 S
C753 C750 1.487 . S
C753 N785 1.343 . S
C754 C755 1.384 1_565 S
C754 C756 1.384 . S
C754 H776 0.931 . S
C755 C754 1.384 1_545 S
C755 C758 1.382 . S
C756 C754 1.384 . S
C756 C757 1.381 1_565 S
C756 H777 0.930 . S
C757 C756 1.381 1_545 S
C757 C759 1.381 . S
C757 C760 1.487 . S
C758 C755 1.382 . S
C758 C759 1.387 . S
C758 H778 0.930 . S
C759 C757 1.381 . S
C759 C758 1.387 . S
C759 H779 0.931 . S
C760 C757 1.487 . S
C760 C767 1.399 1_545 S
C760 N785 1.343 . S
C761 C762 1.384 1_545 S
C761 C763 1.384 . S
C761 H780 0.931 . S
C762 C761 1.384 1_565 S
C762 C765 1.382 . S
C763 C761 1.384 . S
C763 C764 1.381 1_545 S
C763 H781 0.930 . S
C764 C763 1.381 1_565 S
C764 C766 1.381 . S
C764 C767 1.487 . S
C765 C762 1.382 . S
C765 C766 1.387 . S
C765 H782 0.930 . S
C766 C764 1.381 . S
C766 C765 1.387 . S
C766 H783 0.931 . S
C767 C760 1.399 1_565 S
C767 C764 1.487 . S
C767 N784 1.343 . S
H768 C740 0.931 . S
H769 C742 0.930 . S
H770 C744 0.930 . S
H771 C745 0.931 . S
H772 C747 0.931 . S
H773 C749 0.930 . S
H774 C751 0.930 . S
H775 C752 0.931 . S
H776 C754 0.931 . S
H777 C756 0.930 . S
H778 C758 0.930 . S
H779 C759 0.931 . S
H780 C761 0.931 . S
H781 C763 0.930 . S
H782 C765 0.930 . S
H783 C766 0.931 . S
N784 C746 1.343 . S
N784 C767 1.343 . S
N785 C753 1.343 . S
N785 C760 1.343 . S
C786 C787 1.384 . S
C786 C788 1.384 . S
C786 H814 0.931 . S
C787 C786 1.384 . S
C787 C790 1.382 1_545 S
C788 C786 1.384 . S
C788 C789 1.384 . S
C788 H815 0.930 . S
C789 C788 1.384 . S
C789 C791 1.374 1_545 S
C789 C792 1.496 1_545 S
C790 C787 1.382 1_565 S
C790 C791 1.387 . S
C790 H816 0.930 . S
C791 C789 1.374 1_565 S
C791 C790 1.387 . S
C791 H817 0.931 . S
C792 C789 1.496 1_565 S
C792 C799 1.399 1_565 S
C792 N830 1.364 . S
C793 C794 1.384 . S
C793 C795 1.384 . S
C793 H818 0.931 . S
C794 C793 1.384 . S
C794 C797 1.382 1_565 S
C795 C793 1.384 . S
C795 C796 1.392 . S
C795 H819 0.930 . S
C796 C795 1.392 . S
C796 C798 1.376 1_565 S
C796 C799 1.476 1_565 S
C797 C794 1.382 1_545 S
C797 C798 1.387 . S
C797 H820 0.930 . S
C798 C796 1.376 1_545 S
C798 C797 1.387 . S
C798 H821 0.931 . S
C799 C792 1.399 1_545 S
C799 C796 1.476 1_545 S
C799 N831 1.351 . S
C800 C801 1.384 . S
C800 C802 1.384 . S
C800 H822 0.931 . S
C801 C800 1.384 . S
C801 C804 1.382 1_565 S
C802 C800 1.384 . S
C802 C803 1.381 . S
C802 H823 0.930 . S
C803 C802 1.381 . S
C803 C805 1.381 1_565 S
C803 C806 1.496 1_565 S
C804 C801 1.382 1_545 S
C804 C805 1.387 . S
C804 H824 0.930 . S
C805 C803 1.381 1_545 S
C805 C804 1.387 . S
C805 H825 0.931 . S
C806 C803 1.496 1_545 S
C806 C813 1.399 1_545 S
C806 N831 1.335 . S
C807 C808 1.384 . S
C807 C809 1.384 . S
C807 H826 0.931 . S
C808 C807 1.384 . S
C808 C811 1.382 1_545 S
C809 C807 1.384 . S
C809 C810 1.404 . S
C809 H827 0.930 . S
C810 C809 1.404 . S
C810 C812 1.369 1_545 S
C810 C813 1.476 1_545 S
C811 C808 1.382 1_565 S
C811 C812 1.387 . S
C811 H828 0.930 . S
C812 C810 1.369 1_565 S
C812 C811 1.387 . S
C812 H829 0.931 . S
C813 C806 1.399 1_565 S
C813 C810 1.476 1_565 S
C813 N830 1.318 . S
H814 C786 0.931 . S
H815 C788 0.930 . S
H816 C790 0.930 . S
H817 C791 0.931 . S
H818 C793 0.931 . S
H819 C795 0.930 . S
H820 C797 0.930 . S
H821 C798 0.931 . S
H822 C800 0.931 . S
H823 C802 0.930 . S
H824 C804 0.930 . S
H825 C805 0.931 . S
H826 C807 0.931 . S
H827 C809 0.930 . S
H828 C811 0.930 . S
H829 C812 0.931 . S
N830 C792 1.364 . S
N830 C813 1.318 . S
N831 C799 1.351 . S
N831 C806 1.335 . S
C832 C833 1.384 . S
C832 C834 1.384 . S
C832 H860 0.931 . S
C833 C832 1.384 . S
C833 C836 1.382 1_655 S
C834 C832 1.384 . S
C834 C835 1.406 . S
C834 H861 0.930 . S
C835 C834 1.406 . S
C835 C837 1.369 1_655 S
C835 C838 1.475 1_655 S
C836 C833 1.382 1_455 S
C836 C837 1.387 . S
C836 H862 0.930 . S
C837 C835 1.369 1_455 S
C837 C836 1.387 . S
C837 H863 0.931 . S
C838 C835 1.475 1_455 S
C838 C845 1.399 1_455 S
C838 N876 1.319 . S
C839 C840 1.384 . S
C839 C841 1.384 . S
C839 H864 0.931 . S
C840 C839 1.384 . S
C840 C843 1.382 1_455 S
C841 C839 1.384 . S
C841 C842 1.382 . S
C841 H865 0.930 . S
C842 C841 1.382 . S
C842 C844 1.379 1_455 S
C842 C845 1.496 1_455 S
C843 C840 1.382 1_655 S
C843 C844 1.387 . S
C843 H866 0.930 . S
C844 C842 1.379 1_655 S
C844 C843 1.387 . S
C844 H867 0.931 . S
C845 C838 1.399 1_655 S
C845 C842 1.496 1_655 S
C845 N877 1.335 . S
C846 C847 1.384 . S
C846 C848 1.384 . S
C846 H868 0.931 . S
C847 C846 1.384 . S
C847 C850 1.382 1_455 S
C848 C846 1.384 . S
C848 C849 1.393 . S
C848 H869 0.930 . S
C849 C848 1.393 . S
C849 C851 1.375 1_455 S
C849 C852 1.475 1_455 S
C850 C847 1.382 1_655 S
C850 C851 1.387 . S
C850 H870 0.930 . S
C851 C849 1.375 1_655 S
C851 C850 1.387 . S
C851 H871 0.931 . S
C852 C849 1.475 1_655 S
C852 C859 1.399 1_655 S
C852 N877 1.350 . S
C853 C854 1.384 . S
C853 C855 1.384 . S
C853 H872 0.931 . S
C854 C853 1.384 . S
C854 C857 1.382 1_655 S
C855 C853 1.384 . S
C855 C856 1.385 . S
C855 H873 0.930 . S
C856 C855 1.385 . S
C856 C858 1.371 1_655 S
C856 C859 1.496 1_655 S
C857 C854 1.382 1_455 S
C857 C858 1.387 . S
C857 H874 0.930 . S
C858 C856 1.371 1_455 S
C858 C857 1.387 . S
C858 H875 0.931 . S
C859 C852 1.399 1_455 S
C859 C856 1.496 1_455 S
C859 N876 1.364 . S
H860 C832 0.931 . S
H861 C834 0.930 . S
H862 C836 0.930 . S
H863 C837 0.931 . S
H864 C839 0.931 . S
H865 C841 0.930 . S
H866 C843 0.930 . S
H867 C844 0.931 . S
H868 C846 0.931 . S
H869 C848 0.930 . S
H870 C850 0.930 . S
H871 C851 0.931 . S
H872 C853 0.931 . S
H873 C855 0.930 . S
H874 C857 0.930 . S
H875 C858 0.931 . S
N876 C838 1.319 . S
N876 C859 1.364 . S
N877 C845 1.335 . S
N877 C852 1.350 . S
C878 C879 1.384 . S
C878 C880 1.384 . S
C878 H906 0.931 . S
C879 C878 1.384 . S
C879 C882 1.382 . S
C880 C878 1.384 . S
C880 C881 1.381 . S
C880 H907 0.930 . S
C881 C880 1.381 . S
C881 C883 1.381 . S
C881 C884 1.487 . S
C882 C879 1.382 . S
C882 C883 1.387 . S
C882 H908 0.930 . S
C883 C881 1.381 . S
C883 C882 1.387 . S
C883 H909 0.931 . S
C884 C881 1.487 . S
C884 C891 1.399 . S
C884 N922 1.343 . S
C885 C886 1.384 . S
C885 C887 1.384 . S
C885 H910 0.931 . S
C886 C885 1.384 . S
C886 C889 1.382 . S
C887 C885 1.384 . S
C887 C888 1.381 . S
C887 H911 0.930 . S
C888 C887 1.381 . S
C888 C890 1.381 . S
C888 C891 1.487 . S
C889 C886 1.382 . S
C889 C890 1.387 . S
C889 H912 0.930 . S
C890 C888 1.381 . S
C890 C889 1.387 . S
C890 H913 0.931 . S
C891 C884 1.399 . S
C891 C888 1.487 . S
C891 N923 1.343 . S
C892 C893 1.384 . S
C892 C894 1.384 . S
C892 H914 0.931 . S
C893 C892 1.384 . S
C893 C896 1.382 . S
C894 C892 1.384 . S
C894 C895 1.381 . S
C894 H915 0.930 . S
C895 C894 1.381 . S
C895 C897 1.381 . S
C895 C898 1.487 . S
C896 C893 1.382 . S
C896 C897 1.387 . S
C896 H916 0.930 . S
C897 C895 1.381 . S
C897 C896 1.387 . S
C897 H917 0.931 . S
C898 C895 1.487 . S
C898 C905 1.399 . S
C898 N923 1.343 . S
C899 C900 1.384 . S
C899 C901 1.384 . S
C899 H918 0.931 . S
C900 C899 1.384 . S
C900 C903 1.382 . S
C901 C899 1.384 . S
C901 C902 1.381 . S
C901 H919 0.930 . S
C902 C901 1.381 . S
C902 C904 1.381 . S
C902 C905 1.487 . S
C903 C900 1.382 . S
C903 C904 1.387 . S
C903 H920 0.930 . S
C904 C902 1.381 . S
C904 C903 1.387 . S
C904 H921 0.931 . S
C905 C898 1.399 . S
C905 C902 1.487 . S
C905 N922 1.343 . S
H906 C878 0.931 . S
H907 C880 0.930 . S
H908 C882 0.930 . S
H909 C883 0.931 . S
H910 C885 0.931 . S
H911 C887 0.930 . S
H912 C889 0.930 . S
H913 C890 0.931 . S
H914 C892 0.931 . S
H915 C894 0.930 . S
H916 C896 0.930 . S
H917 C897 0.931 . S
H918 C899 0.931 . S
H919 C901 0.930 . S
H920 C903 0.930 . S
H921 C904 0.931 . S
N922 C884 1.343 . S
N922 C905 1.343 . S
N923 C891 1.343 . S
N923 C898 1.343 . S
C924 C925 1.384 . S
C924 C926 1.384 . S
C924 H952 0.931 . S
C925 C924 1.384 . S
C925 C928 1.382 . S
C926 C924 1.384 . S
C926 C927 1.381 . S
C926 H953 0.930 . S
C927 C926 1.381 . S
C927 C929 1.381 . S
C927 C930 1.487 . S
C928 C925 1.382 . S
C928 C929 1.387 . S
C928 H954 0.930 . S
C929 C927 1.381 . S
C929 C928 1.387 . S
C929 H955 0.931 . S
C930 C927 1.487 . S
C930 C937 1.399 . S
C930 N968 1.343 . S
C931 C932 1.384 . S
C931 C933 1.384 . S
C931 H956 0.931 . S
C932 C931 1.384 . S
C932 C935 1.382 . S
C933 C931 1.384 . S
C933 C934 1.381 . S
C933 H957 0.930 . S
C934 C933 1.381 . S
C934 C936 1.381 . S
C934 C937 1.487 . S
C935 C932 1.382 . S
C935 C936 1.387 . S
C935 H958 0.930 . S
C936 C934 1.381 . S
C936 C935 1.387 . S
C936 H959 0.931 . S
C937 C930 1.399 . S
C937 C934 1.487 . S
C937 N969 1.343 . S
C938 C939 1.384 . S
C938 C940 1.384 . S
C938 H960 0.931 . S
C939 C938 1.384 . S
C939 C942 1.382 . S
C940 C938 1.384 . S
C940 C941 1.381 . S
C940 H961 0.930 . S
C941 C940 1.381 . S
C941 C943 1.381 . S
C941 C944 1.487 . S
C942 C939 1.382 . S
C942 C943 1.387 . S
C942 H962 0.930 . S
C943 C941 1.381 . S
C943 C942 1.387 . S
C943 H963 0.931 . S
C944 C941 1.487 . S
C944 C951 1.399 . S
C944 N969 1.343 . S
C945 C946 1.384 . S
C945 C947 1.384 . S
C945 H964 0.931 . S
C946 C945 1.384 . S
C946 C949 1.382 . S
C947 C945 1.384 . S
C947 C948 1.381 . S
C947 H965 0.930 . S
C948 C947 1.381 . S
C948 C950 1.381 . S
C948 C951 1.487 . S
C949 C946 1.382 . S
C949 C950 1.387 . S
C949 H966 0.930 . S
C950 C948 1.381 . S
C950 C949 1.387 . S
C950 H967 0.931 . S
C951 C944 1.399 . S
C951 C948 1.487 . S
C951 N968 1.343 . S
H952 C924 0.931 . S
H953 C926 0.930 . S
H954 C928 0.930 . S
H955 C929 0.931 . S
H956 C931 0.931 . S
H957 C933 0.930 . S
H958 C935 0.930 . S
H959 C936 0.931 . S
H960 C938 0.931 . S
H961 C940 0.930 . S
H962 C942 0.930 . S
H963 C943 0.931 . S
H964 C945 0.931 . S
H965 C947 0.930 . S
H966 C949 0.930 . S
H967 C950 0.931 . S
N968 C930 1.343 . S
N968 C951 1.343 . S
N969 C937 1.343 . S
N969 C944 1.343 . S
C970 C971 1.384 . S
C970 C972 1.384 . S
C970 H998 0.931 . S
C971 C970 1.384 . S
C971 C974 1.382 . S
C972 C970 1.384 . S
C972 C973 1.381 . S
C972 H999 0.930 . S
C973 C972 1.381 . S
C973 C975 1.381 . S
C973 C976 1.487 . S
C974 C971 1.382 . S
C974 C975 1.387 . S
C974 H1000 0.930 . S
C975 C973 1.381 . S
C975 C974 1.387 . S
C975 H1001 0.931 . S
C976 C973 1.487 . S
C976 C983 1.399 . S
C976 N1014 1.343 . S
C977 C978 1.384 . S
C977 C979 1.384 . S
C977 H1002 0.931 . S
C978 C977 1.384 . S
C978 C981 1.382 . S
C979 C977 1.384 . S
C979 C980 1.381 . S
C979 H1003 0.930 . S
C980 C979 1.381 . S
C980 C982 1.381 . S
C980 C983 1.487 . S
C981 C978 1.382 . S
C981 C982 1.387 . S
C981 H1004 0.930 . S
C982 C980 1.381 . S
C982 C981 1.387 . S
C982 H1005 0.931 . S
C983 C976 1.399 . S
C983 C980 1.487 . S
C983 N1015 1.343 . S
C984 C985 1.384 . S
C984 C986 1.384 . S
C984 H1006 0.931 . S
C985 C984 1.384 . S
C985 C988 1.382 . S
C986 C984 1.384 . S
C986 C987 1.381 . S
C986 H1007 0.930 . S
C987 C986 1.381 . S
C987 C989 1.381 . S
C987 C990 1.487 . S
C988 C985 1.382 . S
C988 C989 1.387 . S
C988 H1008 0.930 . S
C989 C987 1.381 . S
C989 C988 1.387 . S
C989 H1009 0.931 . S
C990 C987 1.487 . S
C990 C997 1.399 . S
C990 N1015 1.343 . S
C991 C992 1.384 . S
C991 C993 1.384 . S
C991 H1010 0.931 . S
C992 C991 1.384 . S
C992 C995 1.382 . S
C993 C991 1.384 . S
C993 C994 1.381 . S
C993 H1011 0.930 . S
C994 C993 1.381 . S
C994 C996 1.381 . S
C994 C997 1.487 . S
C995 C992 1.382 . S
C995 C996 1.387 . S
C995 H1012 0.930 . S
C996 C994 1.381 . S
C996 C995 1.387 . S
C996 H1013 0.931 . S
C997 C990 1.399 . S
C997 C994 1.487 . S
C997 N1014 1.343 . S
H998 C970 0.931 . S
H999 C972 0.930 . S
H1000 C974 0.930 . S
H1001 C975 0.931 . S
H1002 C977 0.931 . S
H1003 C979 0.930 . S
H1004 C981 0.930 . S
H1005 C982 0.931 . S
H1006 C984 0.931 . S
H1007 C986 0.930 . S
H1008 C988 0.930 . S
H1009 C989 0.931 . S
H1010 C991 0.931 . S
H1011 C993 0.930 . S
H1012 C995 0.930 . S
H1013 C996 0.931 . S
N1014 C976 1.343 . S
N1014 C997 1.343 . S
N1015 C983 1.343 . S
N1015 C990 1.343 . S
C1016 C1017 1.384 . S
C1016 C1018 1.384 . S
C1016 H1044 0.931 . S
C1017 C1016 1.384 . S
C1017 C1020 1.382 . S
C1018 C1016 1.384 . S
C1018 C1019 1.381 . S
C1018 H1045 0.930 . S
C1019 C1018 1.381 . S
C1019 C1021 1.381 . S
C1019 C1022 1.487 . S
C1020 C1017 1.382 . S
C1020 C1021 1.387 . S
C1020 H1046 0.930 . S
C1021 C1019 1.381 . S
C1021 C1020 1.387 . S
C1021 H1047 0.931 . S
C1022 C1019 1.487 . S
C1022 C1029 1.399 . S
C1022 N1060 1.343 . S
C1023 C1024 1.384 . S
C1023 C1025 1.384 . S
C1023 H1048 0.931 . S
C1024 C1023 1.384 . S
C1024 C1027 1.382 . S
C1025 C1023 1.384 . S
C1025 C1026 1.381 . S
C1025 H1049 0.930 . S
C1026 C1025 1.381 . S
C1026 C1028 1.381 . S
C1026 C1029 1.487 . S
C1027 C1024 1.382 . S
C1027 C1028 1.387 . S
C1027 H1050 0.930 . S
C1028 C1026 1.381 . S
C1028 C1027 1.387 . S
C1028 H1051 0.931 . S
C1029 C1022 1.399 . S
C1029 C1026 1.487 . S
C1029 N1061 1.343 . S
C1030 C1031 1.384 . S
C1030 C1032 1.384 . S
C1030 H1052 0.931 . S
C1031 C1030 1.384 . S
C1031 C1034 1.382 . S
C1032 C1030 1.384 . S
C1032 C1033 1.381 . S
C1032 H1053 0.930 . S
C1033 C1032 1.381 . S
C1033 C1035 1.381 . S
C1033 C1036 1.487 . S
C1034 C1031 1.382 . S
C1034 C1035 1.387 . S
C1034 H1054 0.930 . S
C1035 C1033 1.381 . S
C1035 C1034 1.387 . S
C1035 H1055 0.931 . S
C1036 C1033 1.487 . S
C1036 C1043 1.399 . S
C1036 N1061 1.343 . S
C1037 C1038 1.384 . S
C1037 C1039 1.384 . S
C1037 H1056 0.931 . S
C1038 C1037 1.384 . S
C1038 C1041 1.382 . S
C1039 C1037 1.384 . S
C1039 C1040 1.381 . S
C1039 H1057 0.930 . S
C1040 C1039 1.381 . S
C1040 C1042 1.381 . S
C1040 C1043 1.487 . S
C1041 C1038 1.382 . S
C1041 C1042 1.387 . S
C1041 H1058 0.930 . S
C1042 C1040 1.381 . S
C1042 C1041 1.387 . S
C1042 H1059 0.931 . S
C1043 C1036 1.399 . S
C1043 C1040 1.487 . S
C1043 N1060 1.343 . S
H1044 C1016 0.931 . S
H1045 C1018 0.930 . S
H1046 C1020 0.930 . S
H1047 C1021 0.931 . S
H1048 C1023 0.931 . S
H1049 C1025 0.930 . S
H1050 C1027 0.930 . S
H1051 C1028 0.931 . S
H1052 C1030 0.931 . S
H1053 C1032 0.930 . S
H1054 C1034 0.930 . S
H1055 C1035 0.931 . S
H1056 C1037 0.931 . S
H1057 C1039 0.930 . S
H1058 C1041 0.930 . S
H1059 C1042 0.931 . S
N1060 C1022 1.343 . S
N1060 C1043 1.343 . S
N1061 C1029 1.343 . S
N1061 C1036 1.343 . S
C1062 C1063 1.363 . S
C1062 C1068 1.379 . S
C1062 N1070 1.356 . S
C1063 C1062 1.363 . S
C1063 C1069 1.363 1_655 S
C1064 C1065 1.363 1_455 S
C1064 C1069 1.379 . S
C1064 N1071 1.356 . S
C1065 C1064 1.363 1_655 S
C1065 C1068 1.363 . S
N1066 C1068 1.356 . S
N1066 H1078 0.984 . S
N1066 H1079 0.985 . S
N1067 C1069 1.356 . S
N1067 H1072 0.984 . S
N1067 H1073 0.985 . S
C1068 C1062 1.379 . S
C1068 C1065 1.363 . S
C1068 N1066 1.356 . S
C1069 C1063 1.363 1_455 S
C1069 C1064 1.379 . S
C1069 N1067 1.356 . S
N1070 C1062 1.356 . S
N1070 H1076 0.984 . S
N1070 H1077 0.984 . S
N1071 C1064 1.356 . S
N1071 H1074 0.984 . S
N1071 H1075 0.985 . S
H1072 N1067 0.984 . S
H1073 N1067 0.985 . S
H1074 N1071 0.984 . S
H1075 N1071 0.985 . S
H1076 N1070 0.984 . S
H1077 N1070 0.984 . S
H1078 N1066 0.984 . S
H1079 N1066 0.985 . S
C1080 C1081 1.363 . S
C1080 C1086 1.379 . S
C1080 N1088 1.356 . S
C1081 C1080 1.363 . S
C1081 C1087 1.363 . S
C1082 C1083 1.363 . S
C1082 C1087 1.379 . S
C1082 N1089 1.356 . S
C1083 C1082 1.363 . S
C1083 C1086 1.363 . S
N1084 C1086 1.356 . S
N1084 H1096 0.984 . S
N1084 H1097 0.985 . S
N1085 C1087 1.356 . S
N1085 H1090 0.984 . S
N1085 H1091 0.985 . S
C1086 C1080 1.379 . S
C1086 C1083 1.363 . S
C1086 N1084 1.356 . S
C1087 C1081 1.363 . S
C1087 C1082 1.379 . S
C1087 N1085 1.356 . S
N1088 C1080 1.356 . S
N1088 H1094 0.984 . S
N1088 H1095 0.984 . S
N1089 C1082 1.356 . S
N1089 H1092 0.984 . S
N1089 H1093 0.985 . S
H1090 N1085 0.984 . S
H1091 N1085 0.985 . S
H1092 N1089 0.984 . S
H1093 N1089 0.985 . S
H1094 N1088 0.984 . S
H1095 N1088 0.984 . S
H1096 N1084 0.984 . S
H1097 N1084 0.985 . S
C1098 C1099 1.363 . S
C1098 C1104 1.379 . S
C1098 N1106 1.356 . S
C1099 C1098 1.363 . S
C1099 C1105 1.363 1_545 S
C1100 C1101 1.363 1_565 S
C1100 C1105 1.379 . S
C1100 N1107 1.356 . S
C1101 C1100 1.363 1_545 S
C1101 C1104 1.363 . S
N1102 C1104 1.356 . S
N1102 H1114 0.984 . S
N1102 H1115 0.985 . S
N1103 C1105 1.356 . S
N1103 H1108 0.984 . S
N1103 H1109 0.985 . S
C1104 C1098 1.379 . S
C1104 C1101 1.363 . S
C1104 N1102 1.356 . S
C1105 C1099 1.363 1_565 S
C1105 C1100 1.379 . S
C1105 N1103 1.356 . S
N1106 C1098 1.356 . S
N1106 H1112 0.984 . S
N1106 H1113 0.984 . S
N1107 C1100 1.356 . S
N1107 H1110 0.984 . S
N1107 H1111 0.985 . S
H1108 N1103 0.984 . S
H1109 N1103 0.985 . S
H1110 N1107 0.984 . S
H1111 N1107 0.985 . S
H1112 N1106 0.984 . S
H1113 N1106 0.984 . S
H1114 N1102 0.984 . S
H1115 N1102 0.985 . S
C1116 C1117 1.363 . S
C1116 C1122 1.379 . S
C1116 N1124 1.356 . S
C1117 C1116 1.363 . S
C1117 C1123 1.363 1_565 S
C1118 C1119 1.363 1_545 S
C1118 C1123 1.379 . S
C1118 N1125 1.356 . S
C1119 C1118 1.363 1_565 S
C1119 C1122 1.363 . S
N1120 C1122 1.356 . S
N1120 H1132 0.984 . S
N1120 H1133 0.985 . S
N1121 C1123 1.356 . S
N1121 H1126 0.984 . S
N1121 H1127 0.985 . S
C1122 C1116 1.379 . S
C1122 C1119 1.363 . S
C1122 N1120 1.356 . S
C1123 C1117 1.363 1_545 S
C1123 C1118 1.379 . S
C1123 N1121 1.356 . S
N1124 C1116 1.356 . S
N1124 H1130 0.984 . S
N1124 H1131 0.984 . S
N1125 C1118 1.356 . S
N1125 H1128 0.984 . S
N1125 H1129 0.985 . S
H1126 N1121 0.984 . S
H1127 N1121 0.985 . S
H1128 N1125 0.984 . S
H1129 N1125 0.985 . S
H1130 N1124 0.984 . S
H1131 N1124 0.984 . S
H1132 N1120 0.984 . S
H1133 N1120 0.985 . S
C1134 C1135 1.363 . S
C1134 C1140 1.379 . S
C1134 N1142 1.356 . S
C1135 C1134 1.363 . S
C1135 C1141 1.363 1_455 S
C1136 C1137 1.363 1_655 S
C1136 C1141 1.379 . S
C1136 N1143 1.356 . S
C1137 C1136 1.363 1_455 S
C1137 C1140 1.363 . S
N1138 C1140 1.356 . S
N1138 H1150 0.984 . S
N1138 H1151 0.985 . S
N1139 C1141 1.356 . S
N1139 H1144 0.984 . S
N1139 H1145 0.985 . S
C1140 C1134 1.379 . S
C1140 C1137 1.363 . S
C1140 N1138 1.356 . S
C1141 C1135 1.363 1_655 S
C1141 C1136 1.379 . S
C1141 N1139 1.356 . S
N1142 C1134 1.356 . S
N1142 H1148 0.984 . S
N1142 H1149 0.984 . S
N1143 C1136 1.356 . S
N1143 H1146 0.984 . S
N1143 H1147 0.985 . S
H1144 N1139 0.984 . S
H1145 N1139 0.985 . S
H1146 N1143 0.984 . S
H1147 N1143 0.985 . S
H1148 N1142 0.984 . S
H1149 N1142 0.984 . S
H1150 N1138 0.984 . S
H1151 N1138 0.985 . S
C1152 C1153 1.363 . S
C1152 C1158 1.379 . S
C1152 N1160 1.356 . S
C1153 C1152 1.363 . S
C1153 C1159 1.363 . S
C1154 C1155 1.363 . S
C1154 C1159 1.379 . S
C1154 N1161 1.356 . S
C1155 C1154 1.363 . S
C1155 C1158 1.363 . S
N1156 C1158 1.356 . S
N1156 H1168 0.984 . S
N1156 H1169 0.985 . S
N1157 C1159 1.356 . S
N1157 H1162 0.984 . S
N1157 H1163 0.985 . S
C1158 C1152 1.379 . S
C1158 C1155 1.363 . S
C1158 N1156 1.356 . S
C1159 C1153 1.363 . S
C1159 C1154 1.379 . S
C1159 N1157 1.356 . S
N1160 C1152 1.356 . S
N1160 H1166 0.984 . S
N1160 H1167 0.984 . S
N1161 C1154 1.356 . S
N1161 H1164 0.984 . S
N1161 H1165 0.985 . S
H1162 N1157 0.984 . S
H1163 N1157 0.985 . S
H1164 N1161 0.984 . S
H1165 N1161 0.985 . S
H1166 N1160 0.984 . S
H1167 N1160 0.984 . S
H1168 N1156 0.984 . S
H1169 N1156 0.985 . S
C1170 C1171 1.363 1_655 S
C1170 C1176 1.379 . S
C1170 N1178 1.356 . S
C1171 C1170 1.363 1_455 S
C1171 C1177 1.363 . S
C1172 C1173 1.363 . S
C1172 C1177 1.379 . S
C1172 N1179 1.356 . S
C1173 C1172 1.363 . S
C1173 C1176 1.363 1_455 S
N1174 C1176 1.356 . S
N1174 H1186 0.984 . S
N1174 H1187 0.985 . S
N1175 C1177 1.356 . S
N1175 H1180 0.984 . S
N1175 H1181 0.985 . S
C1176 C1170 1.379 . S
C1176 C1173 1.363 1_655 S
C1176 N1174 1.356 . S
C1177 C1171 1.363 . S
C1177 C1172 1.379 . S
C1177 N1175 1.356 . S
N1178 C1170 1.356 . S
N1178 H1184 0.984 . S
N1178 H1185 0.984 . S
N1179 C1172 1.356 . S
N1179 H1182 0.984 . S
N1179 H1183 0.985 . S
H1180 N1175 0.984 . S
H1181 N1175 0.985 . S
H1182 N1179 0.984 . S
H1183 N1179 0.985 . S
H1184 N1178 0.984 . S
H1185 N1178 0.984 . S
H1186 N1174 0.984 . S
H1187 N1174 0.985 . S
C1188 C1189 1.363 . S
C1188 C1194 1.379 . S
C1188 N1196 1.356 . S
C1189 C1188 1.363 . S
C1189 C1195 1.363 . S
C1190 C1191 1.363 . S
C1190 C1195 1.379 . S
C1190 N1197 1.356 . S
C1191 C1190 1.363 . S
C1191 C1194 1.363 . S
N1192 C1194 1.356 . S
N1192 H1204 0.984 . S
N1192 H1205 0.985 . S
N1193 C1195 1.356 . S
N1193 H1198 0.984 . S
N1193 H1199 0.985 . S
C1194 C1188 1.379 . S
C1194 C1191 1.363 . S
C1194 N1192 1.356 . S
C1195 C1189 1.363 . S
C1195 C1190 1.379 . S
C1195 N1193 1.356 . S
N1196 C1188 1.356 . S
N1196 H1202 0.984 . S
N1196 H1203 0.984 . S
N1197 C1190 1.356 . S
N1197 H1200 0.984 . S
N1197 H1201 0.985 . S
H1198 N1193 0.984 . S
H1199 N1193 0.985 . S
H1200 N1197 0.984 . S
H1201 N1197 0.985 . S
H1202 N1196 0.984 . S
H1203 N1196 0.984 . S
H1204 N1192 0.984 . S
H1205 N1192 0.985 . S
C1206 C1207 1.363 . S
C1206 C1212 1.379 . S
C1206 N1214 1.356 . S
C1207 C1206 1.363 . S
C1207 C1213 1.363 1_565 S
C1208 C1209 1.363 1_545 S
C1208 C1213 1.379 . S
C1208 N1215 1.356 . S
C1209 C1208 1.363 1_565 S
C1209 C1212 1.363 . S
N1210 C1212 1.356 . S
N1210 H1222 0.984 . S
N1210 H1223 0.985 . S
N1211 C1213 1.356 . S
N1211 H1216 0.984 . S
N1211 H1217 0.985 . S
C1212 C1206 1.379 . S
C1212 C1209 1.363 . S
C1212 N1210 1.356 . S
C1213 C1207 1.363 1_545 S
C1213 C1208 1.379 . S
C1213 N1211 1.356 . S
N1214 C1206 1.356 . S
N1214 H1220 0.984 . S
N1214 H1221 0.984 . S
N1215 C1208 1.356 . S
N1215 H1218 0.984 . S
N1215 H1219 0.985 . S
H1216 N1211 0.984 . S
H1217 N1211 0.985 . S
H1218 N1215 0.984 . S
H1219 N1215 0.985 . S
H1220 N1214 0.984 . S
H1221 N1214 0.984 . S
H1222 N1210 0.984 . S
H1223 N1210 0.985 . S
C1224 C1225 1.363 1_565 S
C1224 C1230 1.379 . S
C1224 N1232 1.356 . S
C1225 C1224 1.363 1_545 S
C1225 C1231 1.363 . S
C1226 C1227 1.363 . S
C1226 C1231 1.379 . S
C1226 N1233 1.356 . S
C1227 C1226 1.363 . S
C1227 C1230 1.363 1_545 S
N1228 C1230 1.356 . S
N1228 H1240 0.984 . S
N1228 H1241 0.985 . S
N1229 C1231 1.356 . S
N1229 H1234 0.984 . S
N1229 H1235 0.985 . S
C1230 C1224 1.379 . S
C1230 C1227 1.363 1_565 S
C1230 N1228 1.356 . S
C1231 C1225 1.363 . S
C1231 C1226 1.379 . S
C1231 N1229 1.356 . S
N1232 C1224 1.356 . S
N1232 H1238 0.984 . S
N1232 H1239 0.984 . S
N1233 C1226 1.356 . S
N1233 H1236 0.984 . S
N1233 H1237 0.985 . S
H1234 N1229 0.984 . S
H1235 N1229 0.985 . S
H1236 N1233 0.984 . S
H1237 N1233 0.985 . S
H1238 N1232 0.984 . S
H1239 N1232 0.984 . S
H1240 N1228 0.984 . S
H1241 N1228 0.985 . S
C1242 C1243 1.363 . S
C1242 C1248 1.379 . S
C1242 N1250 1.356 . S
C1243 C1242 1.363 . S
C1243 C1249 1.363 1_655 S
C1244 C1245 1.363 1_455 S
C1244 C1249 1.379 . S
C1244 N1251 1.356 . S
C1245 C1244 1.363 1_655 S
C1245 C1248 1.363 . S
N1246 C1248 1.356 . S
N1246 H1258 0.984 . S
N1246 H1259 0.985 . S
N1247 C1249 1.356 . S
N1247 H1252 0.984 . S
N1247 H1253 0.985 . S
C1248 C1242 1.379 . S
C1248 C1245 1.363 . S
C1248 N1246 1.356 . S
C1249 C1243 1.363 1_455 S
C1249 C1244 1.379 . S
C1249 N1247 1.356 . S
N1250 C1242 1.356 . S
N1250 H1256 0.984 . S
N1250 H1257 0.984 . S
N1251 C1244 1.356 . S
N1251 H1254 0.984 . S
N1251 H1255 0.985 . S
H1252 N1247 0.984 . S
H1253 N1247 0.985 . S
H1254 N1251 0.984 . S
H1255 N1251 0.985 . S
H1256 N1250 0.984 . S
H1257 N1250 0.984 . S
H1258 N1246 0.984 . S
H1259 N1246 0.985 . S
C1260 C1261 1.363 . S
C1260 C1266 1.379 . S
C1260 N1268 1.356 . S
C1261 C1260 1.363 . S
C1261 C1267 1.363 . S
C1262 C1263 1.363 . S
C1262 C1267 1.379 . S
C1262 N1269 1.356 . S
C1263 C1262 1.363 . S
C1263 C1266 1.363 . S
N1264 C1266 1.356 . S
N1264 H1276 0.984 . S
N1264 H1277 0.985 . S
N1265 C1267 1.356 . S
N1265 H1270 0.984 . S
N1265 H1271 0.985 . S
C1266 C1260 1.379 . S
C1266 C1263 1.363 . S
C1266 N1264 1.356 . S
C1267 C1261 1.363 . S
C1267 C1262 1.379 . S
C1267 N1265 1.356 . S
N1268 C1260 1.356 . S
N1268 H1274 0.984 . S
N1268 H1275 0.984 . S
N1269 C1262 1.356 . S
N1269 H1272 0.984 . S
N1269 H1273 0.985 . S
H1270 N1265 0.984 . S
H1271 N1265 0.985 . S
H1272 N1269 0.984 . S
H1273 N1269 0.985 . S
H1274 N1268 0.984 . S
H1275 N1268 0.984 . S
H1276 N1264 0.984 . S
H1277 N1264 0.985 . S
C1278 C1279 1.363 . S
C1278 C1284 1.379 . S
C1278 N1286 1.356 . S
C1279 C1278 1.363 . S
C1279 C1285 1.363 . S
C1280 C1281 1.363 . S
C1280 C1285 1.379 . S
C1280 N1287 1.356 . S
C1281 C1280 1.363 . S
C1281 C1284 1.363 . S
N1282 C1284 1.356 . S
N1282 H1294 0.984 . S
N1282 H1295 0.985 . S
N1283 C1285 1.356 . S
N1283 H1288 0.984 . S
N1283 H1289 0.985 . S
C1284 C1278 1.379 . S
C1284 C1281 1.363 . S
C1284 N1282 1.356 . S
C1285 C1279 1.363 . S
C1285 C1280 1.379 . S
C1285 N1283 1.356 . S
N1286 C1278 1.356 . S
N1286 H1292 0.984 . S
N1286 H1293 0.984 . S
N1287 C1280 1.356 . S
N1287 H1290 0.984 . S
N1287 H1291 0.985 . S
H1288 N1283 0.984 . S
H1289 N1283 0.985 . S
H1290 N1287 0.984 . S
H1291 N1287 0.985 . S
H1292 N1286 0.984 . S
H1293 N1286 0.984 . S
H1294 N1282 0.984 . S
H1295 N1282 0.985 . S
C1296 C1297 1.363 . S
C1296 C1302 1.379 . S
C1296 N1304 1.356 . S
C1297 C1296 1.363 . S
C1297 C1303 1.363 . S
C1298 C1299 1.363 . S
C1298 C1303 1.379 . S
C1298 N1305 1.356 . S
C1299 C1298 1.363 . S
C1299 C1302 1.363 . S
N1300 C1302 1.356 . S
N1300 H1312 0.984 . S
N1300 H1313 0.985 . S
N1301 C1303 1.356 . S
N1301 H1306 0.984 . S
N1301 H1307 0.985 . S
C1302 C1296 1.379 . S
C1302 C1299 1.363 . S
C1302 N1300 1.356 . S
C1303 C1297 1.363 . S
C1303 C1298 1.379 . S
C1303 N1301 1.356 . S
N1304 C1296 1.356 . S
N1304 H1310 0.984 . S
N1304 H1311 0.984 . S
N1305 C1298 1.356 . S
N1305 H1308 0.984 . S
N1305 H1309 0.985 . S
H1306 N1301 0.984 . S
H1307 N1301 0.985 . S
H1308 N1305 0.984 . S
H1309 N1305 0.985 . S
H1310 N1304 0.984 . S
H1311 N1304 0.984 . S
H1312 N1300 0.984 . S
H1313 N1300 0.985 . S
C1314 C1315 1.363 . S
C1314 C1320 1.379 . S
C1314 N1322 1.356 . S
C1315 C1314 1.363 . S
C1315 C1321 1.363 . S
C1316 C1317 1.363 . S
C1316 C1321 1.379 . S
C1316 N1323 1.356 . S
C1317 C1316 1.363 . S
C1317 C1320 1.363 . S
N1318 C1320 1.356 . S
N1318 H1330 0.984 . S
N1318 H1331 0.985 . S
N1319 C1321 1.356 . S
N1319 H1324 0.984 . S
N1319 H1325 0.985 . S
C1320 C1314 1.379 . S
C1320 C1317 1.363 . S
C1320 N1318 1.356 . S
C1321 C1315 1.363 . S
C1321 C1316 1.379 . S
C1321 N1319 1.356 . S
N1322 C1314 1.356 . S
N1322 H1328 0.984 . S
N1322 H1329 0.984 . S
N1323 C1316 1.356 . S
N1323 H1326 0.984 . S
N1323 H1327 0.985 . S
H1324 N1319 0.984 . S
H1325 N1319 0.985 . S
H1326 N1323 0.984 . S
H1327 N1323 0.985 . S
H1328 N1322 0.984 . S
H1329 N1322 0.984 . S
H1330 N1318 0.984 . S
H1331 N1318 0.985 . S
C1332 C1333 1.363 . S
C1332 C1338 1.379 . S
C1332 N1340 1.356 . S
C1333 C1332 1.363 . S
C1333 C1339 1.363 . S
C1334 C1335 1.363 . S
C1334 C1339 1.379 . S
C1334 N1341 1.356 . S
C1335 C1334 1.363 . S
C1335 C1338 1.363 . S
N1336 C1338 1.356 . S
N1336 H1348 0.984 . S
N1336 H1349 0.985 . S
N1337 C1339 1.356 . S
N1337 H1342 0.984 . S
N1337 H1343 0.985 . S
C1338 C1332 1.379 . S
C1338 C1335 1.363 . S
C1338 N1336 1.356 . S
C1339 C1333 1.363 . S
C1339 C1334 1.379 . S
C1339 N1337 1.356 . S
N1340 C1332 1.356 . S
N1340 H1346 0.984 . S
N1340 H1347 0.984 . S
N1341 C1334 1.356 . S
N1341 H1344 0.984 . S
N1341 H1345 0.985 . S
H1342 N1337 0.984 . S
H1343 N1337 0.985 . S
H1344 N1341 0.984 . S
H1345 N1341 0.985 . S
H1346 N1340 0.984 . S
H1347 N1340 0.984 . S
H1348 N1336 0.984 . S
H1349 N1336 0.985 . S
C1350 C1351 1.363 . S
C1350 C1356 1.379 . S
C1350 N1358 1.356 . S
C1351 C1350 1.363 . S
C1351 C1357 1.363 . S
C1352 C1353 1.363 . S
C1352 C1357 1.379 . S
C1352 N1359 1.356 . S
C1353 C1352 1.363 . S
C1353 C1356 1.363 . S
N1354 C1356 1.356 . S
N1354 H1366 0.984 . S
N1354 H1367 0.985 . S
N1355 C1357 1.356 . S
N1355 H1360 0.984 . S
N1355 H1361 0.985 . S
C1356 C1350 1.379 . S
C1356 C1353 1.363 . S
C1356 N1354 1.356 . S
C1357 C1351 1.363 . S
C1357 C1352 1.379 . S
C1357 N1355 1.356 . S
N1358 C1350 1.356 . S
N1358 H1364 0.984 . S
N1358 H1365 0.984 . S
N1359 C1352 1.356 . S
N1359 H1362 0.984 . S
N1359 H1363 0.985 . S
H1360 N1355 0.984 . S
H1361 N1355 0.985 . S
H1362 N1359 0.984 . S
H1363 N1359 0.985 . S
H1364 N1358 0.984 . S
H1365 N1358 0.984 . S
H1366 N1354 0.984 . S
H1367 N1354 0.985 . S
C1368 C1369 1.363 . S
C1368 C1374 1.379 . S
C1368 N1376 1.356 . S
C1369 C1368 1.363 . S
C1369 C1375 1.363 . S
C1370 C1371 1.363 . S
C1370 C1375 1.379 . S
C1370 N1377 1.356 . S
C1371 C1370 1.363 . S
C1371 C1374 1.363 . S
N1372 C1374 1.356 . S
N1372 H1384 0.984 . S
N1372 H1385 0.985 . S
N1373 C1375 1.356 . S
N1373 H1378 0.984 . S
N1373 H1379 0.985 . S
C1374 C1368 1.379 . S
C1374 C1371 1.363 . S
C1374 N1372 1.356 . S
C1375 C1369 1.363 . S
C1375 C1370 1.379 . S
C1375 N1373 1.356 . S
N1376 C1368 1.356 . S
N1376 H1382 0.984 . S
N1376 H1383 0.984 . S
N1377 C1370 1.356 . S
N1377 H1380 0.984 . S
N1377 H1381 0.985 . S
H1378 N1373 0.984 . S
H1379 N1373 0.985 . S
H1380 N1377 0.984 . S
H1381 N1377 0.985 . S
H1382 N1376 0.984 . S
H1383 N1376 0.984 . S
H1384 N1372 0.984 . S
H1385 N1372 0.985 . S
C1386 C1387 1.363 . S
C1386 C1392 1.379 . S
C1386 N1394 1.356 . S
C1387 C1386 1.363 . S
C1387 C1393 1.363 . S
C1388 C1389 1.363 . S
C1388 C1393 1.379 . S
C1388 N1395 1.356 . S
C1389 C1388 1.363 . S
C1389 C1392 1.363 . S
N1390 C1392 1.356 . S
N1390 H1402 0.984 . S
N1390 H1403 0.985 . S
N1391 C1393 1.356 . S
N1391 H1396 0.984 . S
N1391 H1397 0.985 . S
C1392 C1386 1.379 . S
C1392 C1389 1.363 . S
C1392 N1390 1.356 . S
C1393 C1387 1.363 . S
C1393 C1388 1.379 . S
C1393 N1391 1.356 . S
N1394 C1386 1.356 . S
N1394 H1400 0.984 . S
N1394 H1401 0.984 . S
N1395 C1388 1.356 . S
N1395 H1398 0.984 . S
N1395 H1399 0.985 . S
H1396 N1391 0.984 . S
H1397 N1391 0.985 . S
H1398 N1395 0.984 . S
H1399 N1395 0.985 . S
H1400 N1394 0.984 . S
H1401 N1394 0.984 . S
H1402 N1390 0.984 . S
H1403 N1390 0.985 . S
C1404 C1405 1.363 . S
C1404 C1410 1.379 . S
C1404 N1412 1.356 . S
C1405 C1404 1.363 . S
C1405 C1411 1.363 . S
C1406 C1407 1.363 . S
C1406 C1411 1.379 . S
C1406 N1413 1.356 . S
C1407 C1406 1.363 . S
C1407 C1410 1.363 . S
N1408 C1410 1.356 . S
N1408 H1420 0.984 . S
N1408 H1421 0.985 . S
N1409 C1411 1.356 . S
N1409 H1414 0.984 . S
N1409 H1415 0.985 . S
C1410 C1404 1.379 . S
C1410 C1407 1.363 . S
C1410 N1408 1.356 . S
C1411 C1405 1.363 . S
C1411 C1406 1.379 . S
C1411 N1409 1.356 . S
N1412 C1404 1.356 . S
N1412 H1418 0.984 . S
N1412 H1419 0.984 . S
N1413 C1406 1.356 . S
N1413 H1416 0.984 . S
N1413 H1417 0.985 . S
H1414 N1409 0.984 . S
H1415 N1409 0.985 . S
H1416 N1413 0.984 . S
H1417 N1413 0.985 . S
H1418 N1412 0.984 . S
H1419 N1412 0.984 . S
H1420 N1408 0.984 . S
H1421 N1408 0.985 . S
C1422 C1423 1.363 . S
C1422 C1428 1.379 . S
C1422 N1430 1.356 . S
C1423 C1422 1.363 . S
C1423 C1429 1.363 . S
C1424 C1425 1.363 . S
C1424 C1429 1.379 . S
C1424 N1431 1.356 . S
C1425 C1424 1.363 . S
C1425 C1428 1.363 . S
N1426 C1428 1.356 . S
N1426 H1438 0.984 . S
N1426 H1439 0.985 . S
N1427 C1429 1.356 . S
N1427 H1432 0.984 . S
N1427 H1433 0.985 . S
C1428 C1422 1.379 . S
C1428 C1425 1.363 . S
C1428 N1426 1.356 . S
C1429 C1423 1.363 . S
C1429 C1424 1.379 . S
C1429 N1427 1.356 . S
N1430 C1422 1.356 . S
N1430 H1436 0.984 . S
N1430 H1437 0.984 . S
N1431 C1424 1.356 . S
N1431 H1434 0.984 . S
N1431 H1435 0.985 . S
H1432 N1427 0.984 . S
H1433 N1427 0.985 . S
H1434 N1431 0.984 . S
H1435 N1431 0.985 . S
H1436 N1430 0.984 . S
H1437 N1430 0.984 . S
H1438 N1426 0.984 . S
H1439 N1426 0.985 . S
C1440 C1441 1.363 . S
C1440 C1446 1.379 . S
C1440 N1448 1.356 . S
C1441 C1440 1.363 . S
C1441 C1447 1.363 . S
C1442 C1443 1.363 . S
C1442 C1447 1.379 . S
C1442 N1449 1.356 . S
C1443 C1442 1.363 . S
C1443 C1446 1.363 . S
N1444 C1446 1.356 . S
N1444 H1456 0.984 . S
N1444 H1457 0.985 . S
N1445 C1447 1.356 . S
N1445 H1450 0.984 . S
N1445 H1451 0.985 . S
C1446 C1440 1.379 . S
C1446 C1443 1.363 . S
C1446 N1444 1.356 . S
C1447 C1441 1.363 . S
C1447 C1442 1.379 . S
C1447 N1445 1.356 . S
N1448 C1440 1.356 . S
N1448 H1454 0.984 . S
N1448 H1455 0.984 . S
N1449 C1442 1.356 . S
N1449 H1452 0.984 . S
N1449 H1453 0.985 . S
H1450 N1445 0.984 . S
H1451 N1445 0.985 . S
H1452 N1449 0.984 . S
H1453 N1449 0.985 . S
H1454 N1448 0.984 . S
H1455 N1448 0.984 . S
H1456 N1444 0.984 . S
H1457 N1444 0.985 . S
C1458 C1459 1.363 . S
C1458 C1464 1.379 . S
C1458 N1466 1.356 . S
C1459 C1458 1.363 . S
C1459 C1465 1.363 . S
C1460 C1461 1.363 . S
C1460 C1465 1.379 . S
C1460 N1467 1.356 . S
C1461 C1460 1.363 . S
C1461 C1464 1.363 . S
N1462 C1464 1.356 . S
N1462 H1474 0.984 . S
N1462 H1475 0.985 . S
N1463 C1465 1.356 . S
N1463 H1468 0.984 . S
N1463 H1469 0.985 . S
C1464 C1458 1.379 . S
C1464 C1461 1.363 . S
C1464 N1462 1.356 . S
C1465 C1459 1.363 . S
C1465 C1460 1.379 . S
C1465 N1463 1.356 . S
N1466 C1458 1.356 . S
N1466 H1472 0.984 . S
N1466 H1473 0.984 . S
N1467 C1460 1.356 . S
N1467 H1470 0.984 . S
N1467 H1471 0.985 . S
H1468 N1463 0.984 . S
H1469 N1463 0.985 . S
H1470 N1467 0.984 . S
H1471 N1467 0.985 . S
H1472 N1466 0.984 . S
H1473 N1466 0.984 . S
H1474 N1462 0.984 . S
H1475 N1462 0.985 . S
C1476 C1477 1.363 . S
C1476 C1482 1.379 . S
C1476 N1484 1.356 . S
C1477 C1476 1.363 . S
C1477 C1483 1.363 . S
C1478 C1479 1.363 . S
C1478 C1483 1.379 . S
C1478 N1485 1.356 . S
C1479 C1478 1.363 . S
C1479 C1482 1.363 . S
N1480 C1482 1.356 . S
N1480 H1492 0.984 . S
N1480 H1493 0.985 . S
N1481 C1483 1.356 . S
N1481 H1486 0.984 . S
N1481 H1487 0.985 . S
C1482 C1476 1.379 . S
C1482 C1479 1.363 . S
C1482 N1480 1.356 . S
C1483 C1477 1.363 . S
C1483 C1478 1.379 . S
C1483 N1481 1.356 . S
N1484 C1476 1.356 . S
N1484 H1490 0.984 . S
N1484 H1491 0.984 . S
N1485 C1478 1.356 . S
N1485 H1488 0.984 . S
N1485 H1489 0.985 . S
H1486 N1481 0.984 . S
H1487 N1481 0.985 . S
H1488 N1485 0.984 . S
H1489 N1485 0.985 . S
H1490 N1484 0.984 . S
H1491 N1484 0.984 . S
H1492 N1480 0.984 . S
H1493 N1480 0.985 . S
C1494 C1495 1.363 . S
C1494 C1500 1.379 . S
C1494 N1502 1.356 . S
C1495 C1494 1.363 . S
C1495 C1501 1.363 . S
C1496 C1497 1.363 . S
C1496 C1501 1.379 . S
C1496 N1503 1.356 . S
C1497 C1496 1.363 . S
C1497 C1500 1.363 . S
N1498 C1500 1.356 . S
N1498 H1510 0.984 . S
N1498 H1511 0.985 . S
N1499 C1501 1.356 . S
N1499 H1504 0.984 . S
N1499 H1505 0.985 . S
C1500 C1494 1.379 . S
C1500 C1497 1.363 . S
C1500 N1498 1.356 . S
C1501 C1495 1.363 . S
C1501 C1496 1.379 . S
C1501 N1499 1.356 . S
N1502 C1494 1.356 . S
N1502 H1508 0.984 . S
N1502 H1509 0.984 . S
N1503 C1496 1.356 . S
N1503 H1506 0.984 . S
N1503 H1507 0.985 . S
H1504 N1499 0.984 . S
H1505 N1499 0.985 . S
H1506 N1503 0.984 . S
H1507 N1503 0.985 . S
H1508 N1502 0.984 . S
H1509 N1502 0.984 . S
H1510 N1498 0.984 . S
H1511 N1498 0.985 . S
C1512 C1513 1.363 . S
C1512 C1518 1.379 . S
C1512 N1520 1.356 . S
C1513 C1512 1.363 . S
C1513 C1519 1.363 . S
C1514 C1515 1.363 . S
C1514 C1519 1.379 . S
C1514 N1521 1.356 . S
C1515 C1514 1.363 . S
C1515 C1518 1.363 . S
N1516 C1518 1.356 . S
N1516 H1528 0.984 . S
N1516 H1529 0.985 . S
N1517 C1519 1.356 . S
N1517 H1522 0.984 . S
N1517 H1523 0.985 . S
C1518 C1512 1.379 . S
C1518 C1515 1.363 . S
C1518 N1516 1.356 . S
C1519 C1513 1.363 . S
C1519 C1514 1.379 . S
C1519 N1517 1.356 . S
N1520 C1512 1.356 . S
N1520 H1526 0.984 . S
N1520 H1527 0.984 . S
N1521 C1514 1.356 . S
N1521 H1524 0.984 . S
N1521 H1525 0.985 . S
H1522 N1517 0.984 . S
H1523 N1517 0.985 . S
H1524 N1521 0.984 . S
H1525 N1521 0.985 . S
H1526 N1520 0.984 . S
H1527 N1520 0.984 . S
H1528 N1516 0.984 . S
H1529 N1516 0.985 . S
C1530 C1531 1.363 . S
C1530 C1536 1.379 . S
C1530 N1538 1.356 . S
C1531 C1530 1.363 . S
C1531 C1537 1.363 . S
C1532 C1533 1.363 . S
C1532 C1537 1.379 . S
C1532 N1539 1.356 . S
C1533 C1532 1.363 . S
C1533 C1536 1.363 . S
N1534 C1536 1.356 . S
N1534 H1546 0.984 . S
N1534 H1547 0.985 . S
N1535 C1537 1.356 . S
N1535 H1540 0.984 . S
N1535 H1541 0.985 . S
C1536 C1530 1.379 . S
C1536 C1533 1.363 . S
C1536 N1534 1.356 . S
C1537 C1531 1.363 . S
C1537 C1532 1.379 . S
C1537 N1535 1.356 . S
N1538 C1530 1.356 . S
N1538 H1544 0.984 . S
N1538 H1545 0.984 . S
N1539 C1532 1.356 . S
N1539 H1542 0.984 . S
N1539 H1543 0.985 . S
H1540 N1535 0.984 . S
H1541 N1535 0.985 . S
H1542 N1539 0.984 . S
H1543 N1539 0.985 . S
H1544 N1538 0.984 . S
H1545 N1538 0.984 . S
H1546 N1534 0.984 . S
H1547 N1534 0.985 . S
C1548 C1549 1.363 . S
C1548 C1554 1.379 . S
C1548 N1556 1.356 . S
C1549 C1548 1.363 . S
C1549 C1555 1.363 . S
C1550 C1551 1.363 . S
C1550 C1555 1.379 . S
C1550 N1557 1.356 . S
C1551 C1550 1.363 . S
C1551 C1554 1.363 . S
N1552 C1554 1.356 . S
N1552 H1564 0.984 . S
N1552 H1565 0.985 . S
N1553 C1555 1.356 . S
N1553 H1558 0.984 . S
N1553 H1559 0.985 . S
C1554 C1548 1.379 . S
C1554 C1551 1.363 . S
C1554 N1552 1.356 . S
C1555 C1549 1.363 . S
C1555 C1550 1.379 . S
C1555 N1553 1.356 . S
N1556 C1548 1.356 . S
N1556 H1562 0.984 . S
N1556 H1563 0.984 . S
N1557 C1550 1.356 . S
N1557 H1560 0.984 . S
N1557 H1561 0.985 . S
H1558 N1553 0.984 . S
H1559 N1553 0.985 . S
H1560 N1557 0.984 . S
H1561 N1557 0.985 . S
H1562 N1556 0.984 . S
H1563 N1556 0.984 . S
H1564 N1552 0.984 . S
H1565 N1552 0.985 . S
C1566 C1567 1.363 . S
C1566 C1572 1.379 . S
C1566 N1574 1.356 . S
C1567 C1566 1.363 . S
C1567 C1573 1.363 . S
C1568 C1569 1.363 . S
C1568 C1573 1.379 . S
C1568 N1575 1.356 . S
C1569 C1568 1.363 . S
C1569 C1572 1.363 . S
N1570 C1572 1.356 . S
N1570 H1582 0.984 . S
N1570 H1583 0.985 . S
N1571 C1573 1.356 . S
N1571 H1576 0.984 . S
N1571 H1577 0.985 . S
C1572 C1566 1.379 . S
C1572 C1569 1.363 . S
C1572 N1570 1.356 . S
C1573 C1567 1.363 . S
C1573 C1568 1.379 . S
C1573 N1571 1.356 . S
N1574 C1566 1.356 . S
N1574 H1580 0.984 . S
N1574 H1581 0.984 . S
N1575 C1568 1.356 . S
N1575 H1578 0.984 . S
N1575 H1579 0.985 . S
H1576 N1571 0.984 . S
H1577 N1571 0.985 . S
H1578 N1575 0.984 . S
H1579 N1575 0.985 . S
H1580 N1574 0.984 . S
H1581 N1574 0.984 . S
H1582 N1570 0.984 . S
H1583 N1570 0.985 . S
C1584 C1585 1.363 . S
C1584 C1590 1.379 . S
C1584 N1592 1.356 . S
C1585 C1584 1.363 . S
C1585 C1591 1.363 . S
C1586 C1587 1.363 . S
C1586 C1591 1.379 . S
C1586 N1593 1.356 . S
C1587 C1586 1.363 . S
C1587 C1590 1.363 . S
N1588 C1590 1.356 . S
N1588 H1600 0.984 . S
N1588 H1601 0.985 . S
N1589 C1591 1.356 . S
N1589 H1594 0.984 . S
N1589 H1595 0.985 . S
C1590 C1584 1.379 . S
C1590 C1587 1.363 . S
C1590 N1588 1.356 . S
C1591 C1585 1.363 . S
C1591 C1586 1.379 . S
C1591 N1589 1.356 . S
N1592 C1584 1.356 . S
N1592 H1598 0.984 . S
N1592 H1599 0.984 . S
N1593 C1586 1.356 . S
N1593 H1596 0.984 . S
N1593 H1597 0.985 . S
H1594 N1589 0.984 . S
H1595 N1589 0.985 . S
H1596 N1593 0.984 . S
H1597 N1593 0.985 . S
H1598 N1592 0.984 . S
H1599 N1592 0.984 . S
H1600 N1588 0.984 . S
H1601 N1588 0.985 . S
C1602 C1603 1.363 . S
C1602 C1608 1.379 . S
C1602 N1610 1.356 . S
C1603 C1602 1.363 . S
C1603 C1609 1.363 . S
C1604 C1605 1.363 . S
C1604 C1609 1.379 . S
C1604 N1611 1.356 . S
C1605 C1604 1.363 . S
C1605 C1608 1.363 . S
N1606 C1608 1.356 . S
N1606 H1618 0.984 . S
N1606 H1619 0.985 . S
N1607 C1609 1.356 . S
N1607 H1612 0.984 . S
N1607 H1613 0.985 . S
C1608 C1602 1.379 . S
C1608 C1605 1.363 . S
C1608 N1606 1.356 . S
C1609 C1603 1.363 . S
C1609 C1604 1.379 . S
C1609 N1607 1.356 . S
N1610 C1602 1.356 . S
N1610 H1616 0.984 . S
N1610 H1617 0.984 . S
N1611 C1604 1.356 . S
N1611 H1614 0.984 . S
N1611 H1615 0.985 . S
H1612 N1607 0.984 . S
H1613 N1607 0.985 . S
H1614 N1611 0.984 . S
H1615 N1611 0.985 . S
H1616 N1610 0.984 . S
H1617 N1610 0.984 . S
H1618 N1606 0.984 . S
H1619 N1606 0.985 . S
C1620 C1621 1.363 . S
C1620 C1626 1.379 . S
C1620 N1628 1.356 . S
C1621 C1620 1.363 . S
C1621 C1627 1.363 . S
C1622 C1623 1.363 . S
C1622 C1627 1.379 . S
C1622 N1629 1.356 . S
C1623 C1622 1.363 . S
C1623 C1626 1.363 . S
N1624 C1626 1.356 . S
N1624 H1636 0.984 . S
N1624 H1637 0.985 . S
N1625 C1627 1.356 . S
N1625 H1630 0.984 . S
N1625 H1631 0.985 . S
C1626 C1620 1.379 . S
C1626 C1623 1.363 . S
C1626 N1624 1.356 . S
C1627 C1621 1.363 . S
C1627 C1622 1.379 . S
C1627 N1625 1.356 . S
N1628 C1620 1.356 . S
N1628 H1634 0.984 . S
N1628 H1635 0.984 . S
N1629 C1622 1.356 . S
N1629 H1632 0.984 . S
N1629 H1633 0.985 . S
H1630 N1625 0.984 . S
H1631 N1625 0.985 . S
H1632 N1629 0.984 . S
H1633 N1629 0.985 . S
H1634 N1628 0.984 . S
H1635 N1628 0.984 . S
H1636 N1624 0.984 . S
H1637 N1624 0.985 . S
C1638 C1639 1.363 . S
C1638 C1644 1.379 . S
C1638 N1646 1.356 . S
C1639 C1638 1.363 . S
C1639 C1645 1.363 . S
C1640 C1641 1.363 . S
C1640 C1645 1.379 . S
C1640 N1647 1.356 . S
C1641 C1640 1.363 . S
C1641 C1644 1.363 . S
N1642 C1644 1.356 . S
N1642 H1654 0.984 . S
N1642 H1655 0.985 . S
N1643 C1645 1.356 . S
N1643 H1648 0.984 . S
N1643 H1649 0.985 . S
C1644 C1638 1.379 . S
C1644 C1641 1.363 . S
C1644 N1642 1.356 . S
C1645 C1639 1.363 . S
C1645 C1640 1.379 . S
C1645 N1643 1.356 . S
N1646 C1638 1.356 . S
N1646 H1652 0.984 . S
N1646 H1653 0.984 . S
N1647 C1640 1.356 . S
N1647 H1650 0.984 . S
N1647 H1651 0.985 . S
H1648 N1643 0.984 . S
H1649 N1643 0.985 . S
H1650 N1647 0.984 . S
H1651 N1647 0.985 . S
H1652 N1646 0.984 . S
H1653 N1646 0.984 . S
H1654 N1642 0.984 . S
H1655 N1642 0.985 . S
C1656 C1657 1.363 . S
C1656 C1662 1.379 . S
C1656 N1664 1.356 . S
C1657 C1656 1.363 . S
C1657 C1663 1.363 . S
C1658 C1659 1.363 . S
C1658 C1663 1.379 . S
C1658 N1665 1.356 . S
C1659 C1658 1.363 . S
C1659 C1662 1.363 . S
N1660 C1662 1.356 . S
N1660 H1672 0.984 . S
N1660 H1673 0.985 . S
N1661 C1663 1.356 . S
N1661 H1666 0.984 . S
N1661 H1667 0.985 . S
C1662 C1656 1.379 . S
C1662 C1659 1.363 . S
C1662 N1660 1.356 . S
C1663 C1657 1.363 . S
C1663 C1658 1.379 . S
C1663 N1661 1.356 . S
N1664 C1656 1.356 . S
N1664 H1670 0.984 . S
N1664 H1671 0.984 . S
N1665 C1658 1.356 . S
N1665 H1668 0.984 . S
N1665 H1669 0.985 . S
H1666 N1661 0.984 . S
H1667 N1661 0.985 . S
H1668 N1665 0.984 . S
H1669 N1665 0.985 . S
H1670 N1664 0.984 . S
H1671 N1664 0.984 . S
H1672 N1660 0.984 . S
H1673 N1660 0.985 . S
C1674 C1675 1.363 . S
C1674 C1680 1.379 . S
C1674 N1682 1.356 . S
C1675 C1674 1.363 . S
C1675 C1681 1.363 . S
C1676 C1677 1.363 . S
C1676 C1681 1.379 . S
C1676 N1683 1.356 . S
C1677 C1676 1.363 . S
C1677 C1680 1.363 . S
N1678 C1680 1.356 . S
N1678 H1690 0.984 . S
N1678 H1691 0.985 . S
N1679 C1681 1.356 . S
N1679 H1684 0.984 . S
N1679 H1685 0.985 . S
C1680 C1674 1.379 . S
C1680 C1677 1.363 . S
C1680 N1678 1.356 . S
C1681 C1675 1.363 . S
C1681 C1676 1.379 . S
C1681 N1679 1.356 . S
N1682 C1674 1.356 . S
N1682 H1688 0.984 . S
N1682 H1689 0.984 . S
N1683 C1676 1.356 . S
N1683 H1686 0.984 . S
N1683 H1687 0.985 . S
H1684 N1679 0.984 . S
H1685 N1679 0.985 . S
H1686 N1683 0.984 . S
H1687 N1683 0.985 . S
H1688 N1682 0.984 . S
H1689 N1682 0.984 . S
H1690 N1678 0.984 . S
H1691 N1678 0.985 . S
C1692 C1693 1.363 . S
C1692 C1698 1.379 . S
C1692 N1700 1.356 . S
C1693 C1692 1.363 . S
C1693 C1699 1.363 . S
C1694 C1695 1.363 . S
C1694 C1699 1.379 . S
C1694 N1701 1.356 . S
C1695 C1694 1.363 . S
C1695 C1698 1.363 . S
N1696 C1698 1.356 . S
N1696 H1708 0.984 . S
N1696 H1709 0.985 . S
N1697 C1699 1.356 . S
N1697 H1702 0.984 . S
N1697 H1703 0.985 . S
C1698 C1692 1.379 . S
C1698 C1695 1.363 . S
C1698 N1696 1.356 . S
C1699 C1693 1.363 . S
C1699 C1694 1.379 . S
C1699 N1697 1.356 . S
N1700 C1692 1.356 . S
N1700 H1706 0.984 . S
N1700 H1707 0.984 . S
N1701 C1694 1.356 . S
N1701 H1704 0.984 . S
N1701 H1705 0.985 . S
H1702 N1697 0.984 . S
H1703 N1697 0.985 . S
H1704 N1701 0.984 . S
H1705 N1701 0.985 . S
H1706 N1700 0.984 . S
H1707 N1700 0.984 . S
H1708 N1696 0.984 . S
H1709 N1696 0.985 . S
C1710 C1711 1.363 . S
C1710 C1716 1.379 . S
C1710 N1718 1.356 . S
C1711 C1710 1.363 . S
C1711 C1717 1.363 . S
C1712 C1713 1.363 . S
C1712 C1717 1.379 . S
C1712 N1719 1.356 . S
C1713 C1712 1.363 . S
C1713 C1716 1.363 . S
N1714 C1716 1.356 . S
N1714 H1726 0.984 . S
N1714 H1727 0.985 . S
N1715 C1717 1.356 . S
N1715 H1720 0.984 . S
N1715 H1721 0.985 . S
C1716 C1710 1.379 . S
C1716 C1713 1.363 . S
C1716 N1714 1.356 . S
C1717 C1711 1.363 . S
C1717 C1712 1.379 . S
C1717 N1715 1.356 . S
N1718 C1710 1.356 . S
N1718 H1724 0.984 . S
N1718 H1725 0.984 . S
N1719 C1712 1.356 . S
N1719 H1722 0.984 . S
N1719 H1723 0.985 . S
H1720 N1715 0.984 . S
H1721 N1715 0.985 . S
H1722 N1719 0.984 . S
H1723 N1719 0.985 . S
H1724 N1718 0.984 . S
H1725 N1718 0.984 . S
H1726 N1714 0.984 . S
H1727 N1714 0.985 . S
C1728 C1729 1.363 . S
C1728 C1734 1.379 . S
C1728 N1736 1.356 . S
C1729 C1728 1.363 . S
C1729 C1735 1.363 . S
C1730 C1731 1.363 . S
C1730 C1735 1.379 . S
C1730 N1737 1.356 . S
C1731 C1730 1.363 . S
C1731 C1734 1.363 . S
N1732 C1734 1.356 . S
N1732 H1744 0.984 . S
N1732 H1745 0.985 . S
N1733 C1735 1.356 . S
N1733 H1738 0.984 . S
N1733 H1739 0.985 . S
C1734 C1728 1.379 . S
C1734 C1731 1.363 . S
C1734 N1732 1.356 . S
C1735 C1729 1.363 . S
C1735 C1730 1.379 . S
C1735 N1733 1.356 . S
N1736 C1728 1.356 . S
N1736 H1742 0.984 . S
N1736 H1743 0.984 . S
N1737 C1730 1.356 . S
N1737 H1740 0.984 . S
N1737 H1741 0.985 . S
H1738 N1733 0.984 . S
H1739 N1733 0.985 . S
H1740 N1737 0.984 . S
H1741 N1737 0.985 . S
H1742 N1736 0.984 . S
H1743 N1736 0.984 . S
H1744 N1732 0.984 . S
H1745 N1732 0.985 . S
C1746 C1747 1.363 . S
C1746 C1752 1.379 . S
C1746 N1754 1.356 . S
C1747 C1746 1.363 . S
C1747 C1753 1.363 . S
C1748 C1749 1.363 . S
C1748 C1753 1.379 . S
C1748 N1755 1.356 . S
C1749 C1748 1.363 . S
C1749 C1752 1.363 . S
N1750 C1752 1.356 . S
N1750 H1762 0.984 . S
N1750 H1763 0.985 . S
N1751 C1753 1.356 . S
N1751 H1756 0.984 . S
N1751 H1757 0.985 . S
C1752 C1746 1.379 . S
C1752 C1749 1.363 . S
C1752 N1750 1.356 . S
C1753 C1747 1.363 . S
C1753 C1748 1.379 . S
C1753 N1751 1.356 . S
N1754 C1746 1.356 . S
N1754 H1760 0.984 . S
N1754 H1761 0.984 . S
N1755 C1748 1.356 . S
N1755 H1758 0.984 . S
N1755 H1759 0.985 . S
H1756 N1751 0.984 . S
H1757 N1751 0.985 . S
H1758 N1755 0.984 . S
H1759 N1755 0.985 . S
H1760 N1754 0.984 . S
H1761 N1754 0.984 . S
H1762 N1750 0.984 . S
H1763 N1750 0.985 . S
C1764 C1765 1.363 . S
C1764 C1770 1.379 . S
C1764 N1772 1.356 . S
C1765 C1764 1.363 . S
C1765 C1771 1.363 . S
C1766 C1767 1.363 . S
C1766 C1771 1.379 . S
C1766 N1773 1.356 . S
C1767 C1766 1.363 . S
C1767 C1770 1.363 . S
N1768 C1770 1.356 . S
N1768 H1780 0.984 . S
N1768 H1781 0.985 . S
N1769 C1771 1.356 1_554 S
N1769 H1774 0.984 . S
N1769 H1775 0.985 . S
C1770 C1764 1.379 . S
C1770 C1767 1.363 . S
C1770 N1768 1.356 . S
C1771 C1765 1.363 . S
C1771 C1766 1.379 . S
C1771 N1769 1.356 1_556 S
N1772 C1764 1.356 . S
N1772 H1778 0.984 . S
N1772 H1779 0.984 . S
N1773 C1766 1.356 . S
N1773 H1776 0.984 . S
N1773 H1777 0.985 . S
H1774 N1769 0.984 . S
H1775 N1769 0.985 . S
H1776 N1773 0.984 . S
H1777 N1773 0.985 . S
H1778 N1772 0.984 . S
H1779 N1772 0.984 . S
H1780 N1768 0.984 . S
H1781 N1768 0.985 . S
C1782 C1783 1.363 . S
C1782 C1788 1.379 . S
C1782 N1790 1.356 . S
C1783 C1782 1.363 . S
C1783 C1789 1.363 . S
C1784 C1785 1.363 . S
C1784 C1789 1.379 . S
C1784 N1791 1.356 . S
C1785 C1784 1.363 . S
C1785 C1788 1.363 . S
N1786 C1788 1.356 . S
N1786 H1798 0.984 . S
N1786 H1799 0.985 . S
N1787 C1789 1.356 1_554 S
N1787 H1792 0.984 . S
N1787 H1793 0.985 . S
C1788 C1782 1.379 . S
C1788 C1785 1.363 . S
C1788 N1786 1.356 . S
C1789 C1783 1.363 . S
C1789 C1784 1.379 . S
C1789 N1787 1.356 1_556 S
N1790 C1782 1.356 . S
N1790 H1796 0.984 . S
N1790 H1797 0.984 . S
N1791 C1784 1.356 . S
N1791 H1794 0.984 . S
N1791 H1795 0.985 . S
H1792 N1787 0.984 . S
H1793 N1787 0.985 . S
H1794 N1791 0.984 . S
H1795 N1791 0.985 . S
H1796 N1790 0.984 . S
H1797 N1790 0.984 . S
H1798 N1786 0.984 . S
H1799 N1786 0.985 . S
C1800 C1801 1.363 . S
C1800 C1806 1.379 . S
C1800 N1808 1.356 . S
C1801 C1800 1.363 . S
C1801 C1807 1.363 . S
C1802 C1803 1.363 . S
C1802 C1807 1.379 . S
C1802 N1809 1.356 . S
C1803 C1802 1.363 . S
C1803 C1806 1.363 . S
N1804 C1806 1.356 . S
N1804 H1816 0.984 . S
N1804 H1817 0.985 . S
N1805 C1807 1.356 . S
N1805 H1810 0.984 . S
N1805 H1811 0.985 . S
C1806 C1800 1.379 . S
C1806 C1803 1.363 . S
C1806 N1804 1.356 . S
C1807 C1801 1.363 . S
C1807 C1802 1.379 . S
C1807 N1805 1.356 . S
N1808 C1800 1.356 . S
N1808 H1814 0.984 . S
N1808 H1815 0.984 . S
N1809 C1802 1.356 . S
N1809 H1812 0.984 . S
N1809 H1813 0.985 . S
H1810 N1805 0.984 . S
H1811 N1805 0.985 . S
H1812 N1809 0.984 . S
H1813 N1809 0.985 . S
H1814 N1808 0.984 . S
H1815 N1808 0.984 . S
H1816 N1804 0.984 . S
H1817 N1804 0.985 . S
C1818 C1819 1.363 . S
C1818 C1824 1.379 . S
C1818 N1826 1.356 . S
C1819 C1818 1.363 . S
C1819 C1825 1.363 . S
C1820 C1821 1.363 . S
C1820 C1825 1.379 . S
C1820 N1827 1.356 . S
C1821 C1820 1.363 . S
C1821 C1824 1.363 . S
N1822 C1824 1.356 . S
N1822 H1834 0.984 . S
N1822 H1835 0.985 . S
N1823 C1825 1.356 1_554 S
N1823 H1828 0.984 . S
N1823 H1829 0.985 . S
C1824 C1818 1.379 . S
C1824 C1821 1.363 . S
C1824 N1822 1.356 . S
C1825 C1819 1.363 . S
C1825 C1820 1.379 . S
C1825 N1823 1.356 1_556 S
N1826 C1818 1.356 . S
N1826 H1832 0.984 . S
N1826 H1833 0.984 . S
N1827 C1820 1.356 . S
N1827 H1830 0.984 . S
N1827 H1831 0.985 . S
H1828 N1823 0.984 . S
H1829 N1823 0.985 . S
H1830 N1827 0.984 . S
H1831 N1827 0.985 . S
H1832 N1826 0.984 . S
H1833 N1826 0.984 . S
H1834 N1822 0.984 . S
H1835 N1822 0.985 . S
C1836 C1837 1.363 . S
C1836 C1842 1.379 . S
C1836 N1844 1.356 . S
C1837 C1836 1.363 . S
C1837 C1843 1.363 . S
C1838 C1839 1.363 . S
C1838 C1843 1.379 . S
C1838 N1845 1.356 . S
C1839 C1838 1.363 . S
C1839 C1842 1.363 . S
N1840 C1842 1.356 . S
N1840 H1852 0.984 . S
N1840 H1853 0.985 . S
N1841 C1843 1.356 1_554 S
N1841 H1846 0.984 . S
N1841 H1847 0.985 . S
C1842 C1836 1.379 . S
C1842 C1839 1.363 . S
C1842 N1840 1.356 . S
C1843 C1837 1.363 . S
C1843 C1838 1.379 . S
C1843 N1841 1.356 1_556 S
N1844 C1836 1.356 . S
N1844 H1850 0.984 . S
N1844 H1851 0.984 . S
N1845 C1838 1.356 . S
N1845 H1848 0.984 . S
N1845 H1849 0.985 . S
H1846 N1841 0.984 . S
H1847 N1841 0.985 . S
H1848 N1845 0.984 . S
H1849 N1845 0.985 . S
H1850 N1844 0.984 . S
H1851 N1844 0.984 . S
H1852 N1840 0.984 . S
H1853 N1840 0.985 . S
C1854 C1855 1.363 . S
C1854 C1860 1.379 . S
C1854 N1862 1.356 . S
C1855 C1854 1.363 . S
C1855 C1861 1.363 . S
C1856 C1857 1.363 . S
C1856 C1861 1.379 . S
C1856 N1863 1.356 . S
C1857 C1856 1.363 . S
C1857 C1860 1.363 . S
N1858 C1860 1.356 . S
N1858 H1870 0.984 . S
N1858 H1871 0.985 . S
N1859 C1861 1.356 . S
N1859 H1864 0.984 . S
N1859 H1865 0.985 . S
C1860 C1854 1.379 . S
C1860 C1857 1.363 . S
C1860 N1858 1.356 . S
C1861 C1855 1.363 . S
C1861 C1856 1.379 . S
C1861 N1859 1.356 . S
N1862 C1854 1.356 . S
N1862 H1868 0.984 . S
N1862 H1869 0.984 . S
N1863 C1856 1.356 . S
N1863 H1866 0.984 . S
N1863 H1867 0.985 . S
H1864 N1859 0.984 . S
H1865 N1859 0.985 . S
H1866 N1863 0.984 . S
H1867 N1863 0.985 . S
H1868 N1862 0.984 . S
H1869 N1862 0.984 . S
H1870 N1858 0.984 . S
H1871 N1858 0.985 . S
C1872 C1873 1.363 . S
C1872 C1878 1.379 . S
C1872 N1880 1.356 . S
C1873 C1872 1.363 . S
C1873 C1879 1.363 . S
C1874 C1875 1.363 . S
C1874 C1879 1.379 . S
C1874 N1881 1.356 . S
C1875 C1874 1.363 . S
C1875 C1878 1.363 . S
N1876 C1878 1.356 . S
N1876 H1888 0.984 . S
N1876 H1889 0.985 . S
N1877 C1879 1.356 . S
N1877 H1882 0.984 . S
N1877 H1883 0.985 . S
C1878 C1872 1.379 . S
C1878 C1875 1.363 . S
C1878 N1876 1.356 . S
C1879 C1873 1.363 . S
C1879 C1874 1.379 . S
C1879 N1877 1.356 . S
N1880 C1872 1.356 . S
N1880 H1886 0.984 . S
N1880 H1887 0.984 . S
N1881 C1874 1.356 . S
N1881 H1884 0.984 . S
N1881 H1885 0.985 . S
H1882 N1877 0.984 . S
H1883 N1877 0.985 . S
H1884 N1881 0.984 . S
H1885 N1881 0.985 . S
H1886 N1880 0.984 . S
H1887 N1880 0.984 . S
H1888 N1876 0.984 . S
H1889 N1876 0.985 . S
C1890 C1891 1.363 . S
C1890 C1896 1.379 . S
C1890 N1898 1.356 . S
C1891 C1890 1.363 . S
C1891 C1897 1.363 . S
C1892 C1893 1.363 . S
C1892 C1897 1.379 . S
C1892 N1899 1.356 . S
C1893 C1892 1.363 . S
C1893 C1896 1.363 . S
N1894 C1896 1.356 . S
N1894 H1906 0.984 . S
N1894 H1907 0.985 . S
N1895 C1897 1.356 . S
N1895 H1900 0.984 . S
N1895 H1901 0.979 1_554 S
C1896 C1890 1.379 . S
C1896 C1893 1.363 . S
C1896 N1894 1.356 . S
C1897 C1891 1.363 . S
C1897 C1892 1.379 . S
C1897 N1895 1.356 . S
N1898 C1890 1.356 . S
N1898 H1904 0.984 . S
N1898 H1905 0.984 . S
N1899 C1892 1.356 . S
N1899 H1902 0.984 . S
N1899 H1903 0.985 . S
H1900 N1895 0.984 . S
H1901 N1895 0.979 1_556 S
H1902 N1899 0.984 . S
H1903 N1899 0.985 . S
H1904 N1898 0.984 . S
H1905 N1898 0.984 . S
H1906 N1894 0.984 . S
H1907 N1894 0.985 . S
C1908 C1909 1.363 . S
C1908 C1914 1.379 . S
C1908 N1916 1.356 . S
C1909 C1908 1.363 . S
C1909 C1915 1.363 . S
C1910 C1911 1.363 . S
C1910 C1915 1.379 . S
C1910 N1917 1.356 . S
C1911 C1910 1.363 . S
C1911 C1914 1.363 . S
N1912 C1914 1.356 . S
N1912 H1924 0.984 . S
N1912 H1925 0.985 . S
N1913 C1915 1.356 . S
N1913 H1918 0.984 . S
N1913 H1919 0.985 . S
C1914 C1908 1.379 . S
C1914 C1911 1.363 . S
C1914 N1912 1.356 . S
C1915 C1909 1.363 . S
C1915 C1910 1.379 . S
C1915 N1913 1.356 . S
N1916 C1908 1.356 . S
N1916 H1922 0.984 . S
N1916 H1923 0.984 . S
N1917 C1910 1.356 . S
N1917 H1920 0.984 . S
N1917 H1921 0.985 . S
H1918 N1913 0.984 . S
H1919 N1913 0.985 . S
H1920 N1917 0.984 . S
H1921 N1917 0.985 . S
H1922 N1916 0.984 . S
H1923 N1916 0.984 . S
H1924 N1912 0.984 . S
H1925 N1912 0.985 . S
C1926 C1927 1.363 . S
C1926 C1932 1.379 . S
C1926 N1934 1.356 . S
C1927 C1926 1.363 . S
C1927 C1933 1.363 . S
C1928 C1929 1.363 . S
C1928 C1933 1.379 . S
C1928 N1935 1.356 . S
C1929 C1928 1.363 . S
C1929 C1932 1.363 . S
N1930 C1932 1.356 . S
N1930 H1942 0.984 . S
N1930 H1943 0.985 . S
N1931 C1933 1.356 . S
N1931 H1936 0.984 . S
N1931 H1937 0.985 . S
C1932 C1926 1.379 . S
C1932 C1929 1.363 . S
C1932 N1930 1.356 . S
C1933 C1927 1.363 . S
C1933 C1928 1.379 . S
C1933 N1931 1.356 . S
N1934 C1926 1.356 . S
N1934 H1940 0.984 . S
N1934 H1941 0.984 . S
N1935 C1928 1.356 . S
N1935 H1938 0.984 . S
N1935 H1939 0.985 . S
H1936 N1931 0.984 . S
H1937 N1931 0.985 . S
H1938 N1935 0.984 . S
H1939 N1935 0.985 . S
H1940 N1934 0.984 . S
H1941 N1934 0.984 . S
H1942 N1930 0.984 . S
H1943 N1930 0.985 . S
C1944 C1945 1.363 . S
C1944 C1950 1.379 . S
C1944 N1952 1.356 . S
C1945 C1944 1.363 . S
C1945 C1951 1.363 . S
C1946 C1947 1.363 . S
C1946 C1951 1.379 . S
C1946 N1953 1.356 . S
C1947 C1946 1.363 . S
C1947 C1950 1.363 . S
N1948 C1950 1.356 . S
N1948 H1960 0.984 . S
N1948 H1961 0.985 . S
N1949 C1951 1.356 . S
N1949 H1954 0.984 . S
N1949 H1955 0.985 . S
C1950 C1944 1.379 . S
C1950 C1947 1.363 . S
C1950 N1948 1.356 . S
C1951 C1945 1.363 . S
C1951 C1946 1.379 . S
C1951 N1949 1.356 . S
N1952 C1944 1.356 . S
N1952 H1958 0.984 . S
N1952 H1959 0.984 . S
N1953 C1946 1.356 . S
N1953 H1956 0.984 . S
N1953 H1957 0.985 . S
H1954 N1949 0.984 . S
H1955 N1949 0.985 . S
H1956 N1953 0.984 . S
H1957 N1953 0.985 . S
H1958 N1952 0.984 . S
H1959 N1952 0.984 . S
H1960 N1948 0.984 . S
H1961 N1948 0.985 . S
C1962 C1963 1.363 . S
C1962 C1968 1.379 . S
C1962 N1970 1.356 . S
C1963 C1962 1.363 . S
C1963 C1969 1.363 . S
C1964 C1965 1.363 . S
C1964 C1969 1.379 . S
C1964 N1971 1.356 . S
C1965 C1964 1.363 . S
C1965 C1968 1.363 . S
N1966 C1968 1.356 . S
N1966 H1978 0.984 . S
N1966 H1979 0.985 . S
N1967 C1969 1.356 . S
N1967 H1972 0.984 . S
N1967 H1973 0.985 . S
C1968 C1962 1.379 . S
C1968 C1965 1.363 . S
C1968 N1966 1.356 . S
C1969 C1963 1.363 . S
C1969 C1964 1.379 . S
C1969 N1967 1.356 . S
N1970 C1962 1.356 . S
N1970 H1976 0.984 . S
N1970 H1977 0.984 . S
N1971 C1964 1.356 . S
N1971 H1974 0.984 . S
N1971 H1975 0.985 . S
H1972 N1967 0.984 . S
H1973 N1967 0.985 . S
H1974 N1971 0.984 . S
H1975 N1971 0.985 . S
H1976 N1970 0.984 . S
H1977 N1970 0.984 . S
H1978 N1966 0.984 . S
H1979 N1966 0.985 . S
C1980 C1981 1.363 . S
C1980 C1986 1.379 . S
C1980 N1988 1.356 . S
C1981 C1980 1.363 . S
C1981 C1987 1.363 . S
C1982 C1983 1.363 . S
C1982 C1987 1.379 . S
C1982 N1989 1.370 . S
C1983 C1982 1.363 . S
C1983 C1986 1.363 . S
N1984 C1986 1.356 . S
N1984 H1996 0.984 . S
N1984 H1997 0.985 . S
N1985 C1987 1.356 . S
N1985 H1990 0.984 . S
N1985 H1991 0.985 . S
C1986 C1980 1.379 . S
C1986 C1983 1.363 . S
C1986 N1984 1.356 . S
C1987 C1981 1.363 . S
C1987 C1982 1.379 . S
C1987 N1985 1.356 . S
N1988 C1980 1.356 . S
N1988 H1994 0.984 . S
N1988 H1995 0.984 . S
N1989 C1982 1.370 . S
N1989 H1992 0.969 . S
N1989 H1993 1.011 1_455 S
H1990 N1985 0.984 . S
H1991 N1985 0.985 . S
H1992 N1989 0.969 . S
H1993 N1989 1.011 1_655 S
H1994 N1988 0.984 . S
H1995 N1988 0.984 . S
H1996 N1984 0.984 . S
H1997 N1984 0.985 . S
C1998 C1999 1.363 . S
C1998 C2004 1.379 . S
C1998 N2006 1.356 . S
C1999 C1998 1.363 . S
C1999 C2005 1.363 . S
C2000 C2001 1.363 . S
C2000 C2005 1.379 . S
C2000 N2007 1.356 . S
C2001 C2000 1.363 . S
C2001 C2004 1.363 . S
N2002 C2004 1.356 . S
N2002 H2014 0.984 . S
N2002 H2015 0.985 . S
N2003 C2005 1.356 . S
N2003 H2008 0.984 . S
N2003 H2009 0.985 . S
C2004 C1998 1.379 . S
C2004 C2001 1.363 . S
C2004 N2002 1.356 . S
C2005 C1999 1.363 . S
C2005 C2000 1.379 . S
C2005 N2003 1.356 . S
N2006 C1998 1.356 . S
N2006 H2012 0.984 . S
N2006 H2013 0.984 . S
N2007 C2000 1.356 . S
N2007 H2010 0.984 . S
N2007 H2011 0.985 . S
H2008 N2003 0.984 . S
H2009 N2003 0.985 . S
H2010 N2007 0.984 . S
H2011 N2007 0.985 . S
H2012 N2006 0.984 . S
H2013 N2006 0.984 . S
H2014 N2002 0.984 . S
H2015 N2002 0.985 . S
C2016 C2017 1.363 1_545 S
C2016 C2022 1.379 . S
C2016 N2024 1.356 . S
C2017 C2016 1.363 1_565 S
C2017 C2023 1.363 . S
C2018 C2019 1.363 . S
C2018 C2023 1.379 . S
C2018 N2025 1.356 . S
C2019 C2018 1.363 . S
C2019 C2022 1.363 1_565 S
N2020 C2022 1.356 . S
N2020 H2032 0.984 . S
N2020 H2033 0.985 . S
N2021 C2023 1.356 . S
N2021 H2026 0.984 . S
N2021 H2027 0.985 . S
C2022 C2016 1.379 . S
C2022 C2019 1.363 1_545 S
C2022 N2020 1.356 . S
C2023 C2017 1.363 . S
C2023 C2018 1.379 . S
C2023 N2021 1.356 . S
N2024 C2016 1.356 . S
N2024 H2030 0.984 . S
N2024 H2031 0.984 . S
N2025 C2018 1.356 . S
N2025 H2028 0.984 . S
N2025 H2029 0.985 . S
H2026 N2021 0.984 . S
H2027 N2021 0.985 . S
H2028 N2025 0.984 . S
H2029 N2025 0.985 . S
H2030 N2024 0.984 . S
H2031 N2024 0.984 . S
H2032 N2020 0.984 . S
H2033 N2020 0.985 . S
C2034 C2035 1.363 . S
C2034 C2040 1.379 . S
C2034 N2042 1.356 . S
C2035 C2034 1.363 . S
C2035 C2041 1.363 1_565 S
C2036 C2037 1.363 1_545 S
C2036 C2041 1.379 . S
C2036 N2043 1.356 . S
C2037 C2036 1.363 1_565 S
C2037 C2040 1.363 . S
N2038 C2040 1.356 . S
N2038 H2050 0.984 . S
N2038 H2051 0.985 . S
N2039 C2041 1.356 . S
N2039 H2044 0.984 . S
N2039 H2045 0.985 . S
C2040 C2034 1.379 . S
C2040 C2037 1.363 . S
C2040 N2038 1.356 . S
C2041 C2035 1.363 1_545 S
C2041 C2036 1.379 . S
C2041 N2039 1.356 . S
N2042 C2034 1.356 . S
N2042 H2048 0.984 . S
N2042 H2049 0.984 . S
N2043 C2036 1.356 . S
N2043 H2046 0.984 . S
N2043 H2047 0.985 . S
H2044 N2039 0.984 . S
H2045 N2039 0.985 . S
H2046 N2043 0.984 . S
H2047 N2043 0.985 . S
H2048 N2042 0.984 . S
H2049 N2042 0.984 . S
H2050 N2038 0.984 . S
H2051 N2038 0.985 . S
C2052 C2053 1.363 . S
C2052 C2058 1.379 . S
C2052 N2060 1.356 . S
C2053 C2052 1.363 . S
C2053 C2059 1.363 1_455 S
C2054 C2055 1.363 1_655 S
C2054 C2059 1.379 . S
C2054 N2061 1.356 . S
C2055 C2054 1.363 1_455 S
C2055 C2058 1.363 . S
N2056 C2058 1.356 . S
N2056 H2068 0.984 . S
N2056 H2069 0.985 . S
N2057 C2059 1.356 . S
N2057 H2062 0.984 . S
N2057 H2063 0.985 . S
C2058 C2052 1.379 . S
C2058 C2055 1.363 . S
C2058 N2056 1.356 . S
C2059 C2053 1.363 1_655 S
C2059 C2054 1.379 . S
C2059 N2057 1.356 . S
N2060 C2052 1.356 . S
N2060 H2066 0.984 . S
N2060 H2067 0.984 . S
N2061 C2054 1.356 . S
N2061 H2064 0.984 . S
N2061 H2065 0.985 . S
H2062 N2057 0.984 . S
H2063 N2057 0.985 . S
H2064 N2061 0.984 . S
H2065 N2061 0.985 . S
H2066 N2060 0.984 . S
H2067 N2060 0.984 . S
H2068 N2056 0.984 . S
H2069 N2056 0.985 . S
C2070 C2071 1.363 . S
C2070 C2076 1.379 . S
C2070 N2078 1.356 . S
C2071 C2070 1.363 . S
C2071 C2077 1.363 . S
C2072 C2073 1.363 . S
C2072 C2077 1.379 . S
C2072 N2079 1.356 . S
C2073 C2072 1.363 . S
C2073 C2076 1.363 . S
N2074 C2076 1.356 . S
N2074 H2086 0.984 . S
N2074 H2087 0.985 . S
N2075 C2077 1.356 . S
N2075 H2080 0.984 . S
N2075 H2081 0.985 . S
C2076 C2070 1.379 . S
C2076 C2073 1.363 . S
C2076 N2074 1.356 . S
C2077 C2071 1.363 . S
C2077 C2072 1.379 . S
C2077 N2075 1.356 . S
N2078 C2070 1.356 . S
N2078 H2084 0.984 . S
N2078 H2085 0.984 . S
N2079 C2072 1.356 . S
N2079 H2082 0.984 . S
N2079 H2083 0.985 . S
H2080 N2075 0.984 . S
H2081 N2075 0.985 . S
H2082 N2079 0.984 . S
H2083 N2079 0.985 . S
H2084 N2078 0.984 . S
H2085 N2078 0.984 . S
H2086 N2074 0.984 . S
H2087 N2074 0.985 . S
C2088 C2089 1.363 . S
C2088 C2094 1.379 . S
C2088 N2096 1.356 . S
C2089 C2088 1.363 . S
C2089 C2095 1.363 . S
C2090 C2091 1.363 . S
C2090 C2095 1.379 . S
C2090 N2097 1.356 . S
C2091 C2090 1.363 . S
C2091 C2094 1.363 . S
N2092 C2094 1.356 . S
N2092 H2104 0.984 . S
N2092 H2105 0.985 . S
N2093 C2095 1.356 . S
N2093 H2098 0.984 . S
N2093 H2099 0.985 . S
C2094 C2088 1.379 . S
C2094 C2091 1.363 . S
C2094 N2092 1.356 . S
C2095 C2089 1.363 . S
C2095 C2090 1.379 . S
C2095 N2093 1.356 . S
N2096 C2088 1.356 . S
N2096 H2102 0.984 . S
N2096 H2103 0.984 . S
N2097 C2090 1.356 . S
N2097 H2100 0.984 . S
N2097 H2101 0.985 . S
H2098 N2093 0.984 . S
H2099 N2093 0.985 . S
H2100 N2097 0.984 . S
H2101 N2097 0.985 . S
H2102 N2096 0.984 . S
H2103 N2096 0.984 . S
H2104 N2092 0.984 . S
H2105 N2092 0.985 . S
C2106 C2107 1.363 . S
C2106 C2112 1.379 . S
C2106 N2114 1.356 . S
C2107 C2106 1.363 . S
C2107 C2113 1.363 . S
C2108 C2109 1.363 . S
C2108 C2113 1.379 . S
C2108 N2115 1.356 . S
C2109 C2108 1.363 . S
C2109 C2112 1.363 . S
N2110 C2112 1.356 . S
N2110 H2122 0.984 . S
N2110 H2123 0.985 . S
N2111 C2113 1.356 . S
N2111 H2116 0.984 . S
N2111 H2117 0.985 . S
C2112 C2106 1.379 . S
C2112 C2109 1.363 . S
C2112 N2110 1.356 . S
C2113 C2107 1.363 . S
C2113 C2108 1.379 . S
C2113 N2111 1.356 . S
N2114 C2106 1.356 . S
N2114 H2120 0.984 . S
N2114 H2121 0.984 . S
N2115 C2108 1.356 . S
N2115 H2118 0.984 . S
N2115 H2119 0.985 . S
H2116 N2111 0.984 . S
H2117 N2111 0.985 . S
H2118 N2115 0.984 . S
H2119 N2115 0.985 . S
H2120 N2114 0.984 . S
H2121 N2114 0.984 . S
H2122 N2110 0.984 . S
H2123 N2110 0.985 . S
C2124 C2125 1.363 . S
C2124 C2130 1.379 . S
C2124 N2132 1.356 . S
C2125 C2124 1.363 . S
C2125 C2131 1.363 . S
C2126 C2127 1.363 . S
C2126 C2131 1.379 . S
C2126 N2133 1.356 . S
C2127 C2126 1.363 . S
C2127 C2130 1.363 . S
N2128 C2130 1.356 . S
N2128 H2140 0.984 . S
N2128 H2141 0.985 . S
N2129 C2131 1.356 . S
N2129 H2134 0.984 . S
N2129 H2135 0.985 . S
C2130 C2124 1.379 . S
C2130 C2127 1.363 . S
C2130 N2128 1.356 . S
C2131 C2125 1.363 . S
C2131 C2126 1.379 . S
C2131 N2129 1.356 . S
N2132 C2124 1.356 . S
N2132 H2138 0.984 . S
N2132 H2139 0.984 . S
N2133 C2126 1.356 . S
N2133 H2136 0.984 . S
N2133 H2137 0.985 . S
H2134 N2129 0.984 . S
H2135 N2129 0.985 . S
H2136 N2133 0.984 . S
H2137 N2133 0.985 . S
H2138 N2132 0.984 . S
H2139 N2132 0.984 . S
H2140 N2128 0.984 . S
H2141 N2128 0.985 . S
C2142 C2143 1.363 1_565 S
C2142 C2148 1.379 . S
C2142 N2150 1.356 . S
C2143 C2142 1.363 1_545 S
C2143 C2149 1.363 . S
C2144 C2145 1.363 . S
C2144 C2149 1.379 . S
C2144 N2151 1.356 . S
C2145 C2144 1.363 . S
C2145 C2148 1.363 1_545 S
N2146 C2148 1.356 . S
N2146 H2158 0.984 . S
N2146 H2159 0.985 . S
N2147 C2149 1.356 . S
N2147 H2152 0.984 . S
N2147 H2153 0.985 . S
C2148 C2142 1.379 . S
C2148 C2145 1.363 1_565 S
C2148 N2146 1.356 . S
C2149 C2143 1.363 . S
C2149 C2144 1.379 . S
C2149 N2147 1.356 . S
N2150 C2142 1.356 . S
N2150 H2156 0.984 . S
N2150 H2157 0.984 . S
N2151 C2144 1.356 . S
N2151 H2154 0.984 . S
N2151 H2155 0.985 . S
H2152 N2147 0.984 . S
H2153 N2147 0.985 . S
H2154 N2151 0.984 . S
H2155 N2151 0.985 . S
H2156 N2150 0.984 . S
H2157 N2150 0.984 . S
H2158 N2146 0.984 . S
H2159 N2146 0.985 . S
C2160 C2161 1.363 1_455 S
C2160 C2166 1.379 . S
C2160 N2168 1.356 . S
C2161 C2160 1.363 1_655 S
C2161 C2167 1.363 . S
C2162 C2163 1.363 . S
C2162 C2167 1.379 . S
C2162 N2169 1.356 . S
C2163 C2162 1.363 . S
C2163 C2166 1.363 1_655 S
N2164 C2166 1.356 . S
N2164 H2176 0.984 . S
N2164 H2177 0.985 . S
N2165 C2167 1.356 . S
N2165 H2170 0.984 . S
N2165 H2171 0.985 . S
C2166 C2160 1.379 . S
C2166 C2163 1.363 1_455 S
C2166 N2164 1.356 . S
C2167 C2161 1.363 . S
C2167 C2162 1.379 . S
C2167 N2165 1.356 . S
N2168 C2160 1.356 . S
N2168 H2174 0.984 . S
N2168 H2175 0.984 . S
N2169 C2162 1.356 . S
N2169 H2172 0.984 . S
N2169 H2173 0.985 . S
H2170 N2165 0.984 . S
H2171 N2165 0.985 . S
H2172 N2169 0.984 . S
H2173 N2169 0.985 . S
H2174 N2168 0.984 . S
H2175 N2168 0.984 . S
H2176 N2164 0.984 . S
H2177 N2164 0.985 . S
C2178 C2179 1.363 . S
C2178 C2184 1.379 . S
C2178 N2186 1.356 . S
C2179 C2178 1.363 . S
C2179 C2185 1.363 . S
C2180 C2181 1.363 . S
C2180 C2185 1.379 . S
C2180 N2187 1.356 . S
C2181 C2180 1.363 . S
C2181 C2184 1.363 . S
N2182 C2184 1.356 . S
N2182 H2194 0.984 . S
N2182 H2195 0.985 . S
N2183 C2185 1.356 . S
N2183 H2188 0.984 . S
N2183 H2189 0.985 . S
C2184 C2178 1.379 . S
C2184 C2181 1.363 . S
C2184 N2182 1.356 . S
C2185 C2179 1.363 . S
C2185 C2180 1.379 . S
C2185 N2183 1.356 . S
N2186 C2178 1.356 . S
N2186 H2192 0.984 . S
N2186 H2193 0.984 . S
N2187 C2180 1.356 . S
N2187 H2190 0.984 . S
N2187 H2191 0.985 . S
H2188 N2183 0.984 . S
H2189 N2183 0.985 . S
H2190 N2187 0.984 . S
H2191 N2187 0.985 . S
H2192 N2186 0.984 . S
H2193 N2186 0.984 . S
H2194 N2182 0.984 . S
H2195 N2182 0.985 . S
C2196 C2197 1.363 . S
C2196 C2202 1.379 . S
C2196 N2204 1.356 . S
C2197 C2196 1.363 . S
C2197 C2203 1.363 . S
C2198 C2199 1.363 . S
C2198 C2203 1.379 . S
C2198 N2205 1.356 . S
C2199 C2198 1.363 . S
C2199 C2202 1.363 . S
N2200 C2202 1.356 . S
N2200 H2212 0.984 . S
N2200 H2213 0.985 . S
N2201 C2203 1.356 . S
N2201 H2206 0.984 . S
N2201 H2207 0.985 . S
C2202 C2196 1.379 . S
C2202 C2199 1.363 . S
C2202 N2200 1.356 . S
C2203 C2197 1.363 . S
C2203 C2198 1.379 . S
C2203 N2201 1.356 . S
N2204 C2196 1.356 . S
N2204 H2210 0.984 . S
N2204 H2211 0.984 . S
N2205 C2198 1.356 . S
N2205 H2208 0.984 . S
N2205 H2209 0.985 . S
H2206 N2201 0.984 . S
H2207 N2201 0.985 . S
H2208 N2205 0.984 . S
H2209 N2205 0.985 . S
H2210 N2204 0.984 . S
H2211 N2204 0.984 . S
H2212 N2200 0.984 . S
H2213 N2200 0.985 . S
C2214 C2215 1.363 . S
C2214 C2220 1.379 . S
C2214 N2222 1.356 . S
C2215 C2214 1.363 . S
C2215 C2221 1.363 . S
C2216 C2217 1.363 . S
C2216 C2221 1.379 . S
C2216 N2223 1.356 . S
C2217 C2216 1.363 . S
C2217 C2220 1.363 . S
N2218 C2220 1.356 . S
N2218 H2230 0.984 . S
N2218 H2231 0.985 . S
N2219 C2221 1.356 . S
N2219 H2224 0.984 . S
N2219 H2225 0.985 . S
C2220 C2214 1.379 . S
C2220 C2217 1.363 . S
C2220 N2218 1.356 . S
C2221 C2215 1.363 . S
C2221 C2216 1.379 . S
C2221 N2219 1.356 . S
N2222 C2214 1.356 . S
N2222 H2228 0.984 . S
N2222 H2229 0.984 . S
N2223 C2216 1.356 . S
N2223 H2226 0.984 . S
N2223 H2227 0.985 . S
H2224 N2219 0.984 . S
H2225 N2219 0.985 . S
H2226 N2223 0.984 . S
H2227 N2223 0.985 . S
H2228 N2222 0.984 . S
H2229 N2222 0.984 . S
H2230 N2218 0.984 . S
H2231 N2218 0.985 . S
C2232 C2233 1.363 . S
C2232 C2238 1.379 . S
C2232 N2240 1.356 . S
C2233 C2232 1.363 . S
C2233 C2239 1.363 . S
C2234 C2235 1.363 . S
C2234 C2239 1.379 . S
C2234 N2241 1.356 . S
C2235 C2234 1.363 . S
C2235 C2238 1.363 . S
N2236 C2238 1.356 . S
N2236 H2248 0.984 . S
N2236 H2249 0.985 . S
N2237 C2239 1.356 . S
N2237 H2242 0.984 . S
N2237 H2243 0.985 . S
C2238 C2232 1.379 . S
C2238 C2235 1.363 . S
C2238 N2236 1.356 . S
C2239 C2233 1.363 . S
C2239 C2234 1.379 . S
C2239 N2237 1.356 . S
N2240 C2232 1.356 . S
N2240 H2246 0.984 . S
N2240 H2247 0.984 . S
N2241 C2234 1.356 . S
N2241 H2244 0.984 . S
N2241 H2245 0.985 . S
H2242 N2237 0.984 . S
H2243 N2237 0.985 . S
H2244 N2241 0.984 . S
H2245 N2241 0.985 . S
H2246 N2240 0.984 . S
H2247 N2240 0.984 . S
H2248 N2236 0.984 . S
H2249 N2236 0.985 . S
C2250 C2251 1.363 . S
C2250 C2256 1.379 . S
C2250 N2258 1.356 . S
C2251 C2250 1.363 . S
C2251 C2257 1.363 . S
C2252 C2253 1.363 . S
C2252 C2257 1.379 . S
C2252 N2259 1.356 . S
C2253 C2252 1.363 . S
C2253 C2256 1.363 . S
N2254 C2256 1.356 . S
N2254 H2266 0.984 . S
N2254 H2267 0.985 . S
N2255 C2257 1.356 . S
N2255 H2260 0.984 . S
N2255 H2261 0.985 . S
C2256 C2250 1.379 . S
C2256 C2253 1.363 . S
C2256 N2254 1.356 . S
C2257 C2251 1.363 . S
C2257 C2252 1.379 . S
C2257 N2255 1.356 . S
N2258 C2250 1.356 . S
N2258 H2264 0.984 . S
N2258 H2265 0.984 . S
N2259 C2252 1.356 . S
N2259 H2262 0.984 . S
N2259 H2263 0.985 . S
H2260 N2255 0.984 . S
H2261 N2255 0.985 . S
H2262 N2259 0.984 . S
H2263 N2259 0.985 . S
H2264 N2258 0.984 . S
H2265 N2258 0.984 . S
H2266 N2254 0.984 . S
H2267 N2254 0.985 . S
C2268 C2269 1.363 . S
C2268 C2274 1.379 . S
C2268 N2276 1.356 . S
C2269 C2268 1.363 . S
C2269 C2275 1.363 . S
C2270 C2271 1.363 . S
C2270 C2275 1.379 . S
C2270 N2277 1.356 . S
C2271 C2270 1.363 . S
C2271 C2274 1.363 . S
N2272 C2274 1.356 . S
N2272 H2284 0.984 . S
N2272 H2285 0.985 . S
N2273 C2275 1.356 . S
N2273 H2278 0.984 . S
N2273 H2279 0.985 . S
C2274 C2268 1.379 . S
C2274 C2271 1.363 . S
C2274 N2272 1.356 . S
C2275 C2269 1.363 . S
C2275 C2270 1.379 . S
C2275 N2273 1.356 . S
N2276 C2268 1.356 . S
N2276 H2282 0.984 . S
N2276 H2283 0.984 . S
N2277 C2270 1.356 . S
N2277 H2280 0.984 . S
N2277 H2281 0.985 . S
H2278 N2273 0.984 . S
H2279 N2273 0.985 . S
H2280 N2277 0.984 . S
H2281 N2277 0.985 . S
H2282 N2276 0.984 . S
H2283 N2276 0.984 . S
H2284 N2272 0.984 . S
H2285 N2272 0.985 . S
C2286 C2287 1.363 . S
C2286 C2292 1.379 . S
C2286 N2294 1.356 . S
C2287 C2286 1.363 . S
C2287 C2293 1.363 . S
C2288 C2289 1.363 . S
C2288 C2293 1.379 . S
C2288 N2295 1.356 . S
C2289 C2288 1.363 . S
C2289 C2292 1.363 . S
N2290 C2292 1.356 . S
N2290 H2302 0.984 . S
N2290 H2303 0.985 . S
N2291 C2293 1.356 . S
N2291 H2296 0.984 . S
N2291 H2297 0.985 . S
C2292 C2286 1.379 . S
C2292 C2289 1.363 . S
C2292 N2290 1.356 . S
C2293 C2287 1.363 . S
C2293 C2288 1.379 . S
C2293 N2291 1.356 . S
N2294 C2286 1.356 . S
N2294 H2300 0.984 . S
N2294 H2301 0.984 . S
N2295 C2288 1.356 . S
N2295 H2298 0.984 . S
N2295 H2299 0.985 . S
H2296 N2291 0.984 . S
H2297 N2291 0.985 . S
H2298 N2295 0.984 . S
H2299 N2295 0.985 . S
H2300 N2294 0.984 . S
H2301 N2294 0.984 . S
H2302 N2290 0.984 . S
H2303 N2290 0.985 . S
C2304 C2305 1.363 . S
C2304 C2310 1.379 . S
C2304 N2312 1.356 . S
C2305 C2304 1.363 . S
C2305 C2311 1.363 1_655 S
C2306 C2307 1.363 1_455 S
C2306 C2311 1.379 . S
C2306 N2313 1.356 . S
C2307 C2306 1.363 1_655 S
C2307 C2310 1.363 . S
N2308 C2310 1.356 . S
N2308 H2320 0.984 . S
N2308 H2321 0.985 . S
N2309 C2311 1.356 . S
N2309 H2314 0.984 . S
N2309 H2315 0.985 . S
C2310 C2304 1.379 . S
C2310 C2307 1.363 . S
C2310 N2308 1.356 . S
C2311 C2305 1.363 1_455 S
C2311 C2306 1.379 . S
C2311 N2309 1.356 . S
N2312 C2304 1.356 . S
N2312 H2318 0.984 . S
N2312 H2319 0.984 . S
N2313 C2306 1.356 . S
N2313 H2316 0.984 . S
N2313 H2317 0.985 . S
H2314 N2309 0.984 . S
H2315 N2309 0.985 . S
H2316 N2313 0.984 . S
H2317 N2313 0.985 . S
H2318 N2312 0.984 . S
H2319 N2312 0.984 . S
H2320 N2308 0.984 . S
H2321 N2308 0.985 . S
C2322 C2323 1.363 . S
C2322 C2328 1.379 . S
C2322 N2330 1.356 . S
C2323 C2322 1.363 . S
C2323 C2329 1.363 . S
C2324 C2325 1.363 . S
C2324 C2329 1.379 . S
C2324 N2331 1.356 . S
C2325 C2324 1.363 . S
C2325 C2328 1.363 . S
N2326 C2328 1.356 . S
N2326 H2338 0.984 . S
N2326 H2339 0.985 . S
N2327 C2329 1.356 . S
N2327 H2332 0.984 . S
N2327 H2333 0.985 . S
C2328 C2322 1.379 . S
C2328 C2325 1.363 . S
C2328 N2326 1.356 . S
C2329 C2323 1.363 . S
C2329 C2324 1.379 . S
C2329 N2327 1.356 . S
N2330 C2322 1.356 . S
N2330 H2336 0.984 . S
N2330 H2337 0.984 . S
N2331 C2324 1.356 . S
N2331 H2334 0.984 . S
N2331 H2335 0.985 . S
H2332 N2327 0.984 . S
H2333 N2327 0.985 . S
H2334 N2331 0.984 . S
H2335 N2331 0.985 . S
H2336 N2330 0.984 . S
H2337 N2330 0.984 . S
H2338 N2326 0.984 . S
H2339 N2326 0.985 . S
C2340 C2341 1.363 1_565 S
C2340 C2346 1.379 . S
C2340 N2348 1.356 . S
C2341 C2340 1.363 1_545 S
C2341 C2347 1.363 . S
C2342 C2343 1.363 . S
C2342 C2347 1.379 . S
C2342 N2349 1.356 . S
C2343 C2342 1.363 . S
C2343 C2346 1.363 1_545 S
N2344 C2346 1.356 . S
N2344 H2356 0.984 . S
N2344 H2357 0.985 . S
N2345 C2347 1.356 . S
N2345 H2350 0.984 . S
N2345 H2351 0.985 . S
C2346 C2340 1.379 . S
C2346 C2343 1.363 1_565 S
C2346 N2344 1.356 . S
C2347 C2341 1.363 . S
C2347 C2342 1.379 . S
C2347 N2345 1.356 . S
N2348 C2340 1.356 . S
N2348 H2354 0.984 . S
N2348 H2355 0.984 . S
N2349 C2342 1.356 . S
N2349 H2352 0.984 . S
N2349 H2353 0.985 . S
H2350 N2345 0.984 . S
H2351 N2345 0.985 . S
H2352 N2349 0.984 . S
H2353 N2349 0.985 . S
H2354 N2348 0.984 . S
H2355 N2348 0.984 . S
H2356 N2344 0.984 . S
H2357 N2344 0.985 . S
C1063 C10 1.567 . S
C1065 C670 1.556 . S
C1081 C23 1.621 . S
C1083 C716 1.599 . S
C1101 C748 1.564 . S
C1099 C29 1.569 . S
C1117 C30 1.567 1_565 S
C1119 C801 1.555 . S
C1135 C5 1.572 . S
C1137 C847 1.570 . S
C1153 C18 1.626 . S
C1155 C886 1.614 . S
C1171 C49 1.562 . S
C1173 C840 1.551 . S
C1191 C893 1.608 . S
C1189 C62 1.621 . S
C1209 C794 1.566 . S
C1207 C70 1.561 . S
C1225 C75 1.561 . S
C1227 C755 1.552 . S
C1245 C649 1.570 . S
C1243 C44 1.566 . S
C1261 C57 1.625 . S
C1263 C695 1.604 . S
C1279 C88 1.657 . S
C1281 C925 1.644 . S
C1297 C101 1.661 . S
C1299 C992 1.635 . S
C1317 C1038 1.622 . S
C1315 C107 1.645 . S
C1333 C108 1.623 . S
C1335 C249 1.600 . S
C1351 C83 1.646 . S
C1353 C295 1.623 . S
C1369 C96 1.647 . S
C1371 C341 1.621 . S
C1387 C127 1.625 . S
C1389 C288 1.601 . S
C1405 C140 1.642 . S
C1407 C334 1.616 . S
C1425 C242 1.616 . S
C1423 C146 1.639 . S
C1443 C1017 1.633 . S
C1441 C147 1.657 . S
C1461 C946 1.638 . S
C1459 C122 1.650 . S
C1479 C971 1.641 . S
C1477 C135 1.666 . S
C1495 C160 1.625 . S
C1497 C373 1.612 . S
C1513 C173 1.641 . S
C1515 C426 1.626 . S
C1531 C185 1.639 . S
C1533 C472 1.626 . S
C1549 C186 1.655 . S
C1551 C518 1.642 . S
C1569 C571 1.629 . S
C1567 C159 1.652 . S
C1587 C617 1.641 . S
C1585 C172 1.666 . S
C1605 C564 1.635 . S
C1603 C205 1.659 . S
C1623 C610 1.636 . S
C1621 C218 1.661 . S
C1639 C224 1.644 . S
C1641 C525 1.631 . S
C1659 C479 1.609 . S
C1657 C225 1.622 . S
C1675 C200 1.645 . S
C1677 C394 1.632 . S
C1695 C433 1.633 . S
C1693 C213 1.648 . S
C1713 C256 1.538 . S
C1711 C4 1.549 . S
C1729 C17 1.520 . S
C1731 C302 1.507 . S
C1749 C348 1.538 . S
C1747 C31 1.550 . S
C1767 C380 1.528 . S
C1765 C36 1.548 . S
C1785 C419 1.533 . S
C1783 C3 1.554 . S
C1803 C465 1.502 . S
C1801 C16 1.523 . S
C1819 C43 1.552 . S
C1821 C486 1.537 . S
C1837 C56 1.519 . S
C1839 C387 1.497 . S
C1855 C68 1.546 . S
C1857 C440 1.524 . S
C1873 C69 1.552 . S
C1875 C281 1.546 . S
C1893 C327 1.541 . S
C1891 C42 1.550 . S
C1909 C55 1.523 . S
C1911 C235 1.511 . S
C1929 C511 1.522 . S
C1927 C82 1.544 . S
C1945 C95 1.565 . S
C1947 C578 1.552 . S
C1963 C109 1.576 . S
C1965 C624 1.562 . S
C1983 C663 1.483 . S
C1981 C114 1.482 . S
C1999 C81 1.550 . S
C2001 C709 1.538 . S
C2017 C94 1.488 . S
C2019 C741 1.485 . S
C2035 C121 1.485 . S
C2037 C762 1.479 . S
C2053 C134 1.481 . S
C2055 C656 1.481 . S
C2073 C702 1.535 . S
C2071 C148 1.546 . S
C2089 C153 1.547 . S
C2091 C557 1.533 . S
C2107 C120 1.578 . S
C2109 C603 1.565 . S
C2127 C532 1.548 . S
C2125 C133 1.569 . S
C2145 C808 1.484 . S
C2143 C166 1.484 . S
C2161 C179 1.479 . S
C2163 C854 1.480 . S
C2179 C187 1.545 . S
C2181 C879 1.526 . S
C2199 C932 1.522 . S
C2197 C192 1.544 . S
C2217 C985 1.566 . S
C2215 C161 1.580 . S
C2233 C174 1.570 . S
C2235 C1031 1.558 . S
C2251 C199 1.546 . S
C2253 C1024 1.533 . S
C2269 C212 1.564 . S
C2271 C939 1.543 . S
C2289 C978 1.561 . S
C2287 C226 1.574 . S
C2307 C833 1.480 . S
C2305 C231 1.479 . S
C2325 C900 1.531 . S
C2323 C198 1.551 . S
C2341 C211 1.489 . S
C2343 C787 1.487 . S
