# Generated by pormake.
# Topology apo, (3,6)-cn, num edge types: 1
# Building blocks:
#     Node 0, Type 0, BuildingBlock: BELTOD_clean_linker_0, # of connection points: 3
#     Node 1, Type 0, BuildingBlock: BELTOD_clean_linker_0, # of connection points: 3
#     Node 2, Type 0, BuildingBlock: BELTOD_clean_linker_0, # of connection points: 3
#     Node 3, Type 0, BuildingBlock: BELTOD_clean_linker_0, # of connection points: 3
#     Node 4, Type 0, BuildingBlock: BELTOD_clean_linker_0, # of connection points: 3
#     Node 5, Type 0, BuildingBlock: BELTOD_clean_linker_0, # of connection points: 3
#     Node 6, Type 0, BuildingBlock: BELTOD_clean_linker_0, # of connection points: 3
#     Node 7, Type 0, BuildingBlock: BELTOD_clean_linker_0, # of connection points: 3
#     Node 8, Type 1, BuildingBlock: MIDCAF_clean_sbu_0, # of connection points: 6
#     Node 9, Type 1, BuildingBlock: MIDCAF_clean_sbu_0, # of connection points: 6
#     Node 10, Type 1, BuildingBlock: MIDCAF_clean_sbu_0, # of connection points: 6
#     Node 11, Type 1, BuildingBlock: MIDCAF_clean_sbu_0, # of connection points: 6
#     Edge 12, Type (0, 1), BuildingBlock: MIFKUJ_clean_linker_0, # of connection points: 2
#     Edge 13, Type (0, 1), BuildingBlock: MIFKUJ_clean_linker_0, # of connection points: 2
#     Edge 14, Type (0, 1), BuildingBlock: MIFKUJ_clean_linker_0, # of connection points: 2
#     Edge 15, Type (0, 1), BuildingBlock: MIFKUJ_clean_linker_0, # of connection points: 2
#     Edge 16, Type (0, 1), BuildingBlock: MIFKUJ_clean_linker_0, # of connection points: 2
#     Edge 17, Type (0, 1), BuildingBlock: MIFKUJ_clean_linker_0, # of connection points: 2
#     Edge 18, Type (0, 1), BuildingBlock: MIFKUJ_clean_linker_0, # of connection points: 2
#     Edge 19, Type (0, 1), BuildingBlock: MIFKUJ_clean_linker_0, # of connection points: 2
#     Edge 20, Type (0, 1), BuildingBlock: MIFKUJ_clean_linker_0, # of connection points: 2
#     Edge 21, Type (0, 1), BuildingBlock: MIFKUJ_clean_linker_0, # of connection points: 2
#     Edge 22, Type (0, 1), BuildingBlock: MIFKUJ_clean_linker_0, # of connection points: 2
#     Edge 23, Type (0, 1), BuildingBlock: MIFKUJ_clean_linker_0, # of connection points: 2
#     Edge 24, Type (0, 1), BuildingBlock: MIFKUJ_clean_linker_0, # of connection points: 2
#     Edge 25, Type (0, 1), BuildingBlock: MIFKUJ_clean_linker_0, # of connection points: 2
#     Edge 26, Type (0, 1), BuildingBlock: MIFKUJ_clean_linker_0, # of connection points: 2
#     Edge 27, Type (0, 1), BuildingBlock: MIFKUJ_clean_linker_0, # of connection points: 2
#     Edge 28, Type (0, 1), BuildingBlock: MIFKUJ_clean_linker_0, # of connection points: 2
#     Edge 29, Type (0, 1), BuildingBlock: MIFKUJ_clean_linker_0, # of connection points: 2
#     Edge 30, Type (0, 1), BuildingBlock: MIFKUJ_clean_linker_0, # of connection points: 2
#     Edge 31, Type (0, 1), BuildingBlock: MIFKUJ_clean_linker_0, # of connection points: 2
#     Edge 32, Type (0, 1), BuildingBlock: MIFKUJ_clean_linker_0, # of connection points: 2
#     Edge 33, Type (0, 1), BuildingBlock: MIFKUJ_clean_linker_0, # of connection points: 2
#     Edge 34, Type (0, 1), BuildingBlock: MIFKUJ_clean_linker_0, # of connection points: 2
#     Edge 35, Type (0, 1), BuildingBlock: MIFKUJ_clean_linker_0, # of connection points: 2
# Relax obj value: 0.078
# Max RMSD: 0.096
# Mean RMSD: 0.083
data_MOF--net-apo--node1-MIDCAF_clean_sbu_0--node2-BELTOD_clean_linker_0--edge1-MIFKUJ_clean_linker_0
_symmetry_space_group_name_H-M    P1
_symmetry_Int_Tables_number       1
_symmetry_cell_setting            triclinic
loop_
_symmetry_equiv_pos_as_xyz
'x, y, z'
_cell_length_a     49.91802
_cell_length_b     59.240999
_cell_length_c     52.806194
_cell_angle_alpha  89.658128
_cell_angle_beta   90.027039
_cell_angle_gamma 90.146616
loop_
_atom_site_label
_atom_site_type_symbol
_atom_site_fract_x
_atom_site_fract_y
_atom_site_fract_z
_atom_type_partial_charge
P0 P 0.35985 0.30744 0.38237 0.0
H1 H 0.37059 0.27584 0.42368 0.0
H2 H 0.36996 0.27953 0.46955 0.0
H3 H 0.33825 0.34709 0.46172 0.0
H4 H 0.33985 0.34343 0.41559 0.0
H5 H 0.35107 0.28821 0.33282 0.0
H6 H 0.31097 0.2764 0.30992 0.0
H7 H 0.26194 0.29734 0.37292 0.0
H8 H 0.30232 0.30941 0.39567 0.0
H9 H 0.4139 0.32436 0.37291 0.0
H10 H 0.33296 0.34832 0.36375 0.0
O11 O 0.38273 0.28759 0.37669 0.0
H12 H 0.43105 0.35953 0.35462 0.0
H13 H 0.34997 0.38357 0.34526 0.0
C14 C 0.35583 0.30953 0.41621 0.0
C15 C 0.36336 0.29141 0.43181 0.0
C16 C 0.36272 0.29349 0.45815 0.0
C17 C 0.35423 0.31369 0.46949 0.0
C18 C 0.34541 0.33144 0.4537 0.0
C19 C 0.3462 0.32936 0.42729 0.0
C20 C 0.3297 0.2992 0.36613 0.0
C21 C 0.33169 0.29018 0.34175 0.0
C22 C 0.30876 0.2834 0.3287 0.0
C23 C 0.28327 0.28569 0.33971 0.0
C24 C 0.28127 0.29541 0.3639 0.0
C25 C 0.30434 0.30215 0.37701 0.0
C26 C 0.37217 0.33361 0.36929 0.0
C27 C 0.39981 0.33714 0.36681 0.0
C28 C 0.40958 0.35722 0.35624 0.0
C29 C 0.39186 0.37425 0.34825 0.0
C30 C 0.36414 0.3708 0.35128 0.0
C31 C 0.35438 0.35063 0.36173 0.0
P32 P 0.22019 0.13098 0.90866 0.0
H33 H 0.2246 0.08754 0.88322 0.0
H34 H 0.19255 0.06441 0.86009 0.0
H35 H 0.13048 0.11332 0.87491 0.0
H36 H 0.16303 0.13669 0.89779 0.0
H37 H 0.24824 0.17353 0.91821 0.0
H38 H 0.26877 0.20139 0.88972 0.0
H39 H 0.23715 0.16543 0.82532 0.0
H40 H 0.217 0.13769 0.85369 0.0
H41 H 0.21612 0.10787 0.95691 0.0
H42 H 0.19246 0.17224 0.92579 0.0
O43 O 0.24742 0.1156 0.91476 0.0
H44 H 0.19538 0.11751 0.99726 0.0
H45 H 0.17151 0.18207 0.96634 0.0
C46 C 0.19601 0.11356 0.89269 0.0
C47 C 0.20406 0.09322 0.88173 0.0
C48 C 0.18568 0.07999 0.8685 0.0
C49 C 0.15888 0.08692 0.86586 0.0
C50 C 0.15099 0.10757 0.87652 0.0
C51 C 0.16947 0.12081 0.8898 0.0
C52 C 0.23057 0.1538 0.88819 0.0
C53 C 0.24515 0.17201 0.89799 0.0
C54 C 0.25688 0.1879 0.88168 0.0
C55 C 0.2546 0.18558 0.85525 0.0
C56 C 0.23944 0.16758 0.84556 0.0
C57 C 0.22765 0.15181 0.86186 0.0
C58 C 0.20633 0.13953 0.93857 0.0
C59 C 0.20672 0.12423 0.95889 0.0
C60 C 0.19469 0.12969 0.98189 0.0
C61 C 0.18185 0.15057 0.98501 0.0
C62 C 0.18159 0.16599 0.96461 0.0
C63 C 0.19353 0.1604 0.94145 0.0
P64 P 0.87141 0.20076 0.64256 0.0
H65 H 0.89328 0.22992 0.60274 0.0
H66 H 0.89516 0.22678 0.55692 0.0
H67 H 0.84544 0.16698 0.56072 0.0
H68 H 0.84466 0.16974 0.6068 0.0
H69 H 0.86263 0.2263 0.68858 0.0
H70 H 0.82242 0.23822 0.71107 0.0
H71 H 0.77328 0.20673 0.65387 0.0
H72 H 0.81373 0.19483 0.63138 0.0
H73 H 0.92206 0.1827 0.66192 0.0
H74 H 0.84127 0.15869 0.65063 0.0
O75 O 0.89563 0.21903 0.65008 0.0
H76 H 0.93496 0.1456 0.67842 0.0
H77 H 0.8544 0.12133 0.66636 0.0
C78 C 0.86914 0.1999 0.60838 0.0
C79 C 0.88261 0.21618 0.59378 0.0
C80 C 0.88346 0.21447 0.56739 0.0
C81 C 0.87058 0.19652 0.55492 0.0
C82 C 0.85605 0.18079 0.56961 0.0
C83 C 0.85542 0.18243 0.59607 0.0
C84 C 0.84122 0.21012 0.65798 0.0
C85 C 0.84322 0.22216 0.68068 0.0
C86 C 0.82021 0.22897 0.69356 0.0
C87 C 0.79466 0.22353 0.6842 0.0
C88 C 0.7927 0.21107 0.66164 0.0
C89 C 0.81581 0.20442 0.64864 0.0
C90 C 0.88068 0.17348 0.65501 0.0
C91 C 0.90706 0.1695 0.66301 0.0
C92 C 0.91444 0.14833 0.6725 0.0
C93 C 0.89566 0.13066 0.67365 0.0
C94 C 0.86927 0.13466 0.66553 0.0
C95 C 0.86179 0.15597 0.65649 0.0
P96 P 0.71653 0.36353 0.10002 0.0
H97 H 0.71162 0.3761 0.15297 0.0
H98 H 0.67774 0.39706 0.17637 0.0
H99 H 0.62898 0.40091 0.10883 0.0
H100 H 0.66264 0.3794 0.08576 0.0
H101 H 0.77211 0.34909 0.10326 0.0
H102 H 0.79533 0.32222 0.13056 0.0
H103 H 0.71966 0.30201 0.1635 0.0
H104 H 0.69653 0.32937 0.1362 0.0
H105 H 0.71855 0.38416 0.04986 0.0
H106 H 0.68984 0.32192 0.08285 0.0
O107 O 0.73901 0.38407 0.09556 0.0
H108 H 0.70272 0.37228 0.00841 0.0
H109 H 0.67417 0.30962 0.04105 0.0
C110 C 0.68947 0.37581 0.11775 0.0
C111 C 0.69333 0.38097 0.14337 0.0
C112 C 0.67404 0.39315 0.15666 0.0
C113 C 0.65065 0.40074 0.14447 0.0
C114 C 0.64655 0.39503 0.11892 0.0
C115 C 0.66586 0.38277 0.10565 0.0
C116 C 0.73269 0.34151 0.11805 0.0
C117 C 0.76047 0.33879 0.11623 0.0
C118 C 0.77372 0.32329 0.13179 0.0
C119 C 0.75939 0.31004 0.14939 0.0
C120 C 0.73133 0.31222 0.15047 0.0
C121 C 0.71808 0.32774 0.13479 0.0
C122 C 0.70582 0.35374 0.06936 0.0
C123 C 0.70919 0.36773 0.04811 0.0
C124 C 0.70021 0.36086 0.02432 0.0
C125 C 0.68743 0.33986 0.02127 0.0
C126 C 0.68389 0.32591 0.04272 0.0
C127 C 0.69296 0.33284 0.0666 0.0
P128 P 0.71008 0.64341 0.59442 0.0
H129 H 0.71848 0.62816 0.54267 0.0
H130 H 0.69932 0.63939 0.50204 0.0
H131 H 0.65226 0.69039 0.53936 0.0
H132 H 0.67219 0.67942 0.58022 0.0
H133 H 0.69451 0.65985 0.64521 0.0
H134 H 0.71644 0.68607 0.67415 0.0
H135 H 0.7744 0.70269 0.61628 0.0
H136 H 0.75228 0.6765 0.58725 0.0
H137 H 0.71406 0.59899 0.61818 0.0
H138 H 0.65315 0.64965 0.6074 0.0
O139 O 0.73691 0.62756 0.58837 0.0
H140 H 0.68212 0.57508 0.6404 0.0
H141 H 0.62102 0.62598 0.63048 0.0
C142 C 0.6969 0.65306 0.56448 0.0
C143 C 0.70437 0.642 0.54218 0.0
C144 C 0.69344 0.64845 0.51891 0.0
C145 C 0.67441 0.66583 0.51753 0.0
C146 C 0.66687 0.67691 0.53991 0.0
C147 C 0.67821 0.67067 0.56322 0.0
C148 C 0.72181 0.66618 0.61401 0.0
C149 C 0.71151 0.66948 0.63844 0.0
C150 C 0.72406 0.6845 0.65505 0.0
C151 C 0.7473 0.69619 0.64756 0.0
C152 C 0.75672 0.69366 0.62265 0.0
C153 C 0.744 0.67885 0.606 0.0
C154 C 0.68591 0.62596 0.61072 0.0
C155 C 0.69379 0.60502 0.62061 0.0
C156 C 0.67551 0.59144 0.63366 0.0
C157 C 0.64897 0.59864 0.63743 0.0
C158 C 0.64119 0.6198 0.6277 0.0
C159 C 0.65954 0.63336 0.61447 0.0
P160 P 0.86705 0.80904 0.13506 0.0
H161 H 0.88844 0.82267 0.18391 0.0
H162 H 0.90041 0.85931 0.20175 0.0
H163 H 0.87432 0.89199 0.13257 0.0
H164 H 0.86117 0.85546 0.11555 0.0
H165 H 0.8585 0.77831 0.17745 0.0
H166 H 0.81871 0.76403 0.19857 0.0
H167 H 0.76915 0.80265 0.14696 0.0
H168 H 0.80951 0.81829 0.12727 0.0
H169 H 0.9058 0.82583 0.09895 0.0
H170 H 0.82866 0.79313 0.09559 0.0
O171 O 0.89219 0.79183 0.14291 0.0
H172 H 0.90807 0.82628 0.05299 0.0
H173 H 0.82974 0.79502 0.04949 0.0
C174 C 0.87454 0.83631 0.1482 0.0
C175 C 0.88522 0.83779 0.17267 0.0
C176 C 0.89222 0.85875 0.18278 0.0
C177 C 0.88868 0.87869 0.16854 0.0
C178 C 0.87716 0.8771 0.14424 0.0
C179 C 0.8699 0.85613 0.1343 0.0
C180 C 0.83696 0.79853 0.14997 0.0
C181 C 0.83908 0.78364 0.17056 0.0
C182 C 0.81616 0.77536 0.1826 0.0
C183 C 0.79044 0.78162 0.17417 0.0
C184 C 0.78847 0.79736 0.1541 0.0
C185 C 0.81156 0.80605 0.14245 0.0
C186 C 0.8667 0.81017 0.10084 0.0
C187 C 0.88901 0.81922 0.08828 0.0
C188 C 0.89016 0.81962 0.06186 0.0
C189 C 0.86886 0.81107 0.04723 0.0
C190 C 0.84659 0.80173 0.05997 0.0
C191 C 0.8457 0.80101 0.0865 0.0
P192 P 0.20374 0.85858 0.40256 0.0
H193 H 0.21662 0.87304 0.45396 0.0
H194 H 0.20011 0.86174 0.49534 0.0
H195 H 0.15364 0.80848 0.46064 0.0
H196 H 0.16918 0.82099 0.41892 0.0
H197 H 0.2242 0.86311 0.35145 0.0
H198 H 0.24592 0.83701 0.32231 0.0
H199 H 0.23927 0.78384 0.37835 0.0
H200 H 0.21731 0.80995 0.40722 0.0
H201 H 0.17184 0.89674 0.41846 0.0
H202 H 0.17113 0.84936 0.35672 0.0
O203 O 0.22663 0.87883 0.4066 0.0
H204 H 0.1351 0.91758 0.39859 0.0
H205 H 0.13485 0.87052 0.33646 0.0
C206 C 0.19451 0.84761 0.43332 0.0
C207 C 0.2032 0.85871 0.45522 0.0
C208 C 0.19381 0.85207 0.47906 0.0
C209 C 0.17554 0.83405 0.48162 0.0
C210 C 0.1674 0.8226 0.45955 0.0
C211 C 0.17652 0.82953 0.43563 0.0
C212 C 0.21858 0.8384 0.38131 0.0
C213 C 0.22716 0.84575 0.35734 0.0
C214 C 0.23972 0.83085 0.34075 0.0
C215 C 0.24418 0.80829 0.34791 0.0
C216 C 0.23561 0.80098 0.37202 0.0
C217 C 0.22303 0.81594 0.38862 0.0
C218 C 0.17463 0.8718 0.38886 0.0
C219 C 0.16363 0.89071 0.40074 0.0
C220 C 0.14255 0.90253 0.38945 0.0
C221 C 0.13222 0.8957 0.36593 0.0
C222 C 0.14262 0.87625 0.35448 0.0
C223 C 0.16347 0.86422 0.36602 0.0
P224 P 0.3483 0.68668 0.87455 0.0
H225 H 0.36124 0.67226 0.8235 0.0
H226 H 0.37933 0.63717 0.80622 0.0
H227 H 0.37942 0.6077 0.8812 0.0
H228 H 0.36091 0.64263 0.89833 0.0
H229 H 0.31626 0.72719 0.87975 0.0
H230 H 0.27529 0.7402 0.85898 0.0
H231 H 0.26754 0.67573 0.82186 0.0
H232 H 0.30843 0.66278 0.8428 0.0
H233 H 0.39392 0.68898 0.90817 0.0
H234 H 0.3081 0.68501 0.91596 0.0
O235 O 0.36928 0.7064 0.86359 0.0
H236 H 0.39877 0.69013 0.95403 0.0
H237 H 0.31268 0.68681 0.96222 0.0
C238 C 0.35985 0.66011 0.86218 0.0
C239 C 0.36495 0.65816 0.83618 0.0
C240 C 0.37521 0.63812 0.82632 0.0
C241 C 0.3809 0.61977 0.84239 0.0
C242 C 0.37549 0.62168 0.86843 0.0
C243 C 0.36484 0.64164 0.87822 0.0
C244 C 0.31553 0.6941 0.86277 0.0
C245 C 0.30546 0.71571 0.86751 0.0
C246 C 0.28202 0.72312 0.85562 0.0
C247 C 0.26826 0.70905 0.83859 0.0
C248 C 0.2779 0.68707 0.83457 0.0
C249 C 0.30126 0.67962 0.84666 0.0
C250 C 0.35068 0.68733 0.90865 0.0
C251 C 0.37607 0.68859 0.91982 0.0
C252 C 0.37878 0.68939 0.9461 0.0
C253 C 0.35609 0.68898 0.96192 0.0
C254 C 0.33058 0.68717 0.95065 0.0
C255 C 0.32791 0.68629 0.92419 0.0
Zn256 Zn 0.03292 0.14198 0.29825 0.0
Zn257 Zn 0.97135 0.14989 0.21813 0.0
Zn258 Zn 0.00091 0.14456 0.25884 0.0
C259 C 0.02127 0.16558 0.20464 0.0
C260 C 0.9728 0.10346 0.2289 0.0
O261 O 0.97975 0.16069 0.29119 0.0
O262 O 0.00904 0.15754 0.32247 0.0
C263 C 0.06134 0.1664 0.26326 0.0
O264 O 0.02542 0.16023 0.22805 0.0
O265 O 0.99837 0.16296 0.19498 0.0
O266 O 0.9616 0.11768 0.21451 0.0
O267 O 0.98912 0.11012 0.24631 0.0
O268 O 0.06424 0.15853 0.28531 0.0
O269 O 0.03948 0.16279 0.25083 0.0
O270 O 0.00676 0.108 0.26729 0.0
O271 O 0.03541 0.10883 0.29934 0.0
C272 C 0.02153 0.09775 0.28376 0.0
O273 O 0.96507 0.16517 0.26916 0.0
O274 O 0.94443 0.17011 0.23241 0.0
C275 C 0.98641 0.16391 0.31451 0.0
C276 C 0.9459 0.1737 0.25586 0.0
Zn277 Zn 0.52477 0.34898 0.70968 0.0
Zn278 Zn 0.47928 0.36304 0.79709 0.0
Zn279 Zn 0.50128 0.35747 0.7526 0.0
C280 C 0.4873 0.40604 0.77733 0.0
C281 C 0.44243 0.33887 0.76827 0.0
O282 O 0.53886 0.33752 0.75917 0.0
O283 O 0.55389 0.3293 0.72085 0.0
C284 C 0.52508 0.39608 0.7161 0.0
O285 O 0.49572 0.39443 0.75833 0.0
O286 O 0.47996 0.39634 0.79749 0.0
O287 O 0.44475 0.34818 0.7896 0.0
O288 O 0.46162 0.34028 0.75197 0.0
O289 O 0.53405 0.38075 0.70194 0.0
O290 O 0.51102 0.39089 0.73579 0.0
O291 O 0.47214 0.33963 0.72736 0.0
O292 O 0.49471 0.33479 0.69176 0.0
C293 C 0.47334 0.33265 0.70428 0.0
O294 O 0.52785 0.3428 0.78278 0.0
O295 O 0.50527 0.34672 0.8185 0.0
C296 C 0.55592 0.3277 0.74455 0.0
C297 C 0.52591 0.34006 0.80702 0.0
Zn298 Zn 0.02232 0.85994 0.79763 0.0
Zn299 Zn 0.9665 0.8576 0.71317 0.0
Zn300 Zn 0.99465 0.85833 0.75567 0.0
C301 C 0.97052 0.90266 0.72657 0.0
C302 C 0.93785 0.83243 0.74868 0.0
O303 O 0.03366 0.84105 0.74895 0.0
O304 O 0.05563 0.84627 0.78484 0.0
C305 C 0.01241 0.90426 0.78476 0.0
O306 O 0.98383 0.8936 0.74494 0.0
O307 O 0.96084 0.89048 0.70929 0.0
O308 O 0.93663 0.83893 0.72592 0.0
O309 O 0.95783 0.83803 0.76281 0.0
O310 O 0.02213 0.89287 0.80279 0.0
O311 O 0.00158 0.89426 0.76568 0.0
O312 O 0.97134 0.84052 0.78597 0.0
O313 O 0.99854 0.84124 0.81902 0.0
C314 C 0.97647 0.8355 0.80929 0.0
O315 O 0.02005 0.84282 0.72574 0.0
O316 O 0.99392 0.84297 0.6919 0.0
C317 C 0.05486 0.83853 0.76265 0.0
C318 C 0.01617 0.83849 0.7021 0.0
Zn319 Zn 0.51493 0.64022 0.20235 0.0
Zn320 Zn 0.4744 0.63836 0.29456 0.0
Zn321 Zn 0.49501 0.64029 0.24939 0.0
C322 C 0.5201 0.66518 0.29879 0.0
C323 C 0.4843 0.59422 0.28231 0.0
O324 O 0.4655 0.65682 0.22322 0.0
O325 O 0.485 0.65591 0.18556 0.0
C326 C 0.55008 0.66483 0.23334 0.0
O327 O 0.52263 0.65891 0.27554 0.0
O328 O 0.49947 0.65963 0.31119 0.0
O329 O 0.4783 0.60564 0.30157 0.0
O330 O 0.4904 0.60429 0.26135 0.0
O331 O 0.54691 0.65839 0.21081 0.0
O332 O 0.5329 0.65968 0.25065 0.0
O333 O 0.50404 0.60519 0.23795 0.0
O334 O 0.51921 0.60711 0.19854 0.0
C335 C 0.51321 0.5956 0.2179 0.0
O336 O 0.45506 0.65659 0.24774 0.0
O337 O 0.43816 0.64922 0.28563 0.0
C338 C 0.46542 0.66138 0.1993 0.0
C339 C 0.43556 0.65747 0.26369 0.0
H340 H 0.13383 0.91067 0.31704 0.0
H341 H 0.10585 0.93993 0.29772 0.0
H342 H 0.05752 0.94218 0.36537 0.0
H343 H 0.08595 0.91334 0.38502 0.0
H344 H 0.05453 0.94951 0.28564 0.0
H345 H 0.04705 0.99651 0.3806 0.0
H346 H 0.07049 0.99836 0.42172 0.0
H347 H 0.14383 0.97804 0.38613 0.0
H348 H 0.12093 0.97641 0.34478 0.0
H349 H 0.98491 0.06399 0.29334 0.0
H350 H 0.99544 0.02369 0.30015 0.0
H351 H 0.07807 0.03684 0.2816 0.0
H352 H 0.06773 0.07667 0.27458 0.0
H353 H 0.05814 0.01995 0.33586 0.0
H354 H 0.05888 0.01037 0.24475 0.0
H355 H 0.03922 0.00893 0.20203 0.0
H356 H 0.9862 0.95578 0.22585 0.0
H357 H 0.00532 0.95711 0.26888 0.0
C358 C 0.11682 0.917 0.32753 0.0
C359 C 0.11226 0.91001 0.35265 0.0
C360 C 0.10079 0.93368 0.31645 0.0
C361 C 0.07988 0.94354 0.33025 0.0
C362 C 0.07385 0.93509 0.35453 0.0
C363 C 0.0901 0.91867 0.36575 0.0
C364 C 0.06705 0.96455 0.32076 0.0
C365 C 0.05504 0.96489 0.29667 0.0
C366 C 0.06808 0.9847 0.33503 0.0
C367 C 0.08219 0.98606 0.3597 0.0
C368 C 0.0682 0.99252 0.38157 0.0
C369 C 0.08139 0.99353 0.4049 0.0
C370 C 0.1086 0.98824 0.40655 0.0
C371 C 0.12273 0.98206 0.38485 0.0
C372 C 0.10966 0.98109 0.36146 0.0
C373 C 0.00507 0.058 0.28993 0.0
C374 C 0.02555 0.07321 0.28326 0.0
C375 C 0.011 0.03506 0.29368 0.0
C376 C 0.0374 0.02731 0.29092 0.0
C377 C 0.05749 0.04243 0.2833 0.0
C378 C 0.05161 0.06514 0.27943 0.0
C379 C 0.04556 0.00497 0.30077 0.0
C380 C 0.0569 0.00445 0.32504 0.0
C381 C 0.04446 0.98495 0.28631 0.0
C382 C 0.03287 0.98443 0.2604 0.0
C383 C 0.0426 0.99875 0.24113 0.0
C384 C 0.03174 0.99778 0.21673 0.0
C385 C 0.01124 0.98245 0.21128 0.0
C386 C 0.00187 0.96782 0.23013 0.0
C387 C 0.01274 0.96867 0.25452 0.0
H388 H 0.00275 0.98181 0.19244 0.0
H389 H 0.11876 0.98898 0.42465 0.0
H390 H 0.42401 0.59661 0.86071 0.0
H391 H 0.44422 0.56228 0.84357 0.0
H392 H 0.38537 0.56146 0.78376 0.0
H393 H 0.36514 0.59591 0.80077 0.0
H394 H 0.39214 0.51946 0.80919 0.0
H395 H 0.44592 0.57626 0.7679 0.0
H396 H 0.4747 0.61012 0.76584 0.0
H397 H 0.5321 0.57812 0.81477 0.0
H398 H 0.50339 0.54423 0.81751 0.0
H399 H 0.45011 0.42691 0.74847 0.0
H400 H 0.43438 0.46586 0.75291 0.0
H401 H 0.4958 0.47813 0.80875 0.0
H402 H 0.51196 0.43934 0.8037 0.0
H403 H 0.48676 0.51564 0.7809 0.0
H404 H 0.43324 0.4609 0.82614 0.0
H405 H 0.4053 0.42669 0.83032 0.0
H406 H 0.3482 0.45447 0.77796 0.0
H407 H 0.37603 0.48874 0.77319 0.0
C408 C 0.41536 0.58907 0.84395 0.0
C409 C 0.39299 0.59889 0.83209 0.0
C410 C 0.42703 0.56959 0.83407 0.0
C411 C 0.41641 0.55947 0.81229 0.0
C412 C 0.39393 0.5691 0.80052 0.0
C413 C 0.38246 0.58877 0.8102 0.0
C414 C 0.4283 0.5384 0.80235 0.0
C415 C 0.41271 0.51868 0.80262 0.0
C416 C 0.45532 0.53732 0.79439 0.0
C417 C 0.47248 0.55775 0.79297 0.0
C418 C 0.46458 0.57652 0.77838 0.0
C419 C 0.48089 0.59571 0.77708 0.0
C420 C 0.5052 0.59628 0.79018 0.0
C421 C 0.51326 0.57766 0.80462 0.0
C422 C 0.497 0.55845 0.80603 0.0
C423 C 0.4608 0.43825 0.76096 0.0
C424 C 0.48252 0.43043 0.77538 0.0
C425 C 0.45169 0.46039 0.76368 0.0
C426 C 0.4636 0.47479 0.78151 0.0
C427 C 0.4863 0.46734 0.79488 0.0
C428 C 0.49555 0.44524 0.79199 0.0
C429 C 0.45083 0.49659 0.78818 0.0
C430 C 0.46621 0.51643 0.78735 0.0
C431 C 0.42373 0.49774 0.79608 0.0
C432 C 0.40685 0.47726 0.79909 0.0
C433 C 0.41482 0.45964 0.81539 0.0
C434 C 0.399 0.44025 0.81788 0.0
C435 C 0.37503 0.43838 0.80436 0.0
C436 C 0.3668 0.45593 0.78838 0.0
C437 C 0.38258 0.47534 0.78578 0.0
H438 H 0.36281 0.42335 0.80631 0.0
H439 H 0.51781 0.61115 0.78913 0.0
H440 H 0.6578 0.57168 0.67893 0.0
H441 H 0.6286 0.54211 0.69562 0.0
H442 H 0.56627 0.56258 0.6438 0.0
H443 H 0.59596 0.59141 0.62595 0.0
H444 H 0.5812 0.5362 0.71746 0.0
H445 H 0.53728 0.51576 0.61982 0.0
H446 H 0.54741 0.52171 0.5745 0.0
H447 H 0.63156 0.52397 0.59129 0.0
H448 H 0.62192 0.51777 0.63663 0.0
H449 H 0.49719 0.43493 0.72564 0.0
H450 H 0.51119 0.47398 0.71648 0.0
H451 H 0.58302 0.4488 0.68125 0.0
H452 H 0.56977 0.41027 0.69171 0.0
H453 H 0.55583 0.4804 0.65191 0.0
H454 H 0.58606 0.46805 0.73719 0.0
H455 H 0.58092 0.45958 0.78263 0.0
H456 H 0.53374 0.51936 0.79195 0.0
H457 H 0.53732 0.52763 0.74621 0.0
C458 C 0.63785 0.56996 0.67109 0.0
C459 C 0.62951 0.58355 0.65062 0.0
C460 C 0.62101 0.55324 0.68094 0.0
C461 C 0.59541 0.54984 0.67066 0.0
C462 C 0.58612 0.56467 0.65176 0.0
C463 C 0.60309 0.58126 0.64167 0.0
C464 C 0.58018 0.52911 0.67748 0.0
C465 C 0.57523 0.52415 0.70313 0.0
C466 C 0.57276 0.5132 0.65882 0.0
C467 C 0.57884 0.5166 0.63159 0.0
C468 C 0.55793 0.51748 0.61379 0.0
C469 C 0.56359 0.52089 0.58812 0.0
C470 C 0.59011 0.5233 0.58003 0.0
C471 C 0.61103 0.52219 0.59759 0.0
C472 C 0.60548 0.51873 0.62326 0.0
C473 C 0.51629 0.43791 0.71686 0.0
C474 C 0.53265 0.41967 0.71023 0.0
C475 C 0.52408 0.46011 0.71116 0.0
C476 C 0.5482 0.46422 0.69826 0.0
C477 C 0.56429 0.44597 0.69117 0.0
C478 C 0.55667 0.42396 0.69717 0.0
C479 C 0.55711 0.48739 0.69185 0.0
C480 C 0.56094 0.49277 0.66623 0.0
C481 C 0.56407 0.50332 0.71062 0.0
C482 C 0.5615 0.49821 0.73808 0.0
C483 C 0.57406 0.47915 0.74876 0.0
C484 C 0.57141 0.47438 0.7746 0.0
C485 C 0.55673 0.4888 0.7901 0.0
C486 C 0.54475 0.50806 0.77981 0.0
C487 C 0.54698 0.51274 0.75391 0.0
H488 H 0.55479 0.48514 0.81013 0.0
H489 H 0.59444 0.52598 0.56016 0.0
H490 H 0.86449 0.91998 0.16247 0.0
H491 H 0.88107 0.95677 0.17608 0.0
H492 H 0.94886 0.92495 0.21192 0.0
H493 H 0.9331 0.88806 0.19754 0.0
H494 H 0.92303 0.9607 0.24133 0.0
H495 H 0.96163 0.94703 0.15947 0.0
H496 H 0.96051 0.93625 0.11444 0.0
H497 H 0.90686 0.99104 0.09831 0.0
H498 H 0.90735 0.00193 0.14335 0.0
H499 H 0.00382 0.06601 0.2379 0.0
H500 H 0.99032 0.02623 0.234 0.0
H501 H 0.91395 0.04719 0.20413 0.0
H502 H 0.92611 0.08664 0.21078 0.0
H503 H 0.94788 0.01532 0.17367 0.0
H504 H 0.91294 0.03095 0.2564 0.0
H505 H 0.91512 0.04125 0.30136 0.0
H506 H 0.96123 0.9818 0.3174 0.0
H507 H 0.9598 0.97139 0.27239 0.0
C508 C 0.88302 0.92072 0.1731 0.0
C509 C 0.89756 0.90096 0.17863 0.0
C510 C 0.89233 0.94177 0.18106 0.0
C511 C 0.91623 0.94353 0.1949 0.0
C512 C 0.93029 0.92388 0.20136 0.0
C513 C 0.92116 0.9028 0.19316 0.0
C514 C 0.92719 0.96606 0.2012 0.0
C515 C 0.9289 0.97261 0.22666 0.0
C516 C 0.93451 0.98152 0.18193 0.0
C517 C 0.93433 0.97515 0.15481 0.0
C518 C 0.94942 0.95666 0.14635 0.0
C519 C 0.94893 0.95055 0.12083 0.0
C520 C 0.93357 0.96292 0.10354 0.0
C521 C 0.91872 0.98146 0.11173 0.0
C522 C 0.91912 0.98762 0.13725 0.0
C523 C 0.98372 0.06204 0.23184 0.0
C524 C 0.96566 0.07938 0.22585 0.0
C525 C 0.97627 0.03938 0.22898 0.0
C526 C 0.9511 0.03385 0.21893 0.0
C527 C 0.93338 0.05116 0.21213 0.0
C528 C 0.94043 0.07367 0.21585 0.0
C529 C 0.94352 0.01018 0.21385 0.0
C530 C 0.94237 0.00342 0.18849 0.0
C531 C 0.93685 0.99461 0.23334 0.0
C532 C 0.93736 0.00088 0.2606 0.0
C533 C 0.92423 0.02037 0.26927 0.0
C534 C 0.92509 0.02614 0.2949 0.0
C535 C 0.93855 0.01233 0.31221 0.0
C536 C 0.95099 0.99261 0.30395 0.0
C537 C 0.9503 0.98684 0.27834 0.0
H538 H 0.93917 0.01681 0.33204 0.0
H539 H 0.93321 0.95817 0.08378 0.0
H540 H 0.9214 0.11964 0.71769 0.0
H541 H 0.93481 0.08196 0.7323 0.0
H542 H 0.90271 0.05319 0.66369 0.0
H543 H 0.88824 0.09063 0.64975 0.0
H544 H 0.88954 0.0276 0.70001 0.0
H545 H 0.97271 0.06309 0.676 0.0
H546 H 0.00833 0.092 0.67692 0.0
H547 H 0.02225 0.07803 0.75569 0.0
H548 H 0.98642 0.04922 0.75536 0.0
H549 H 0.9648 0.92826 0.68425 0.0
H550 H 0.9531 0.96822 0.68144 0.0
H551 H 0.95381 0.97279 0.76287 0.0
H552 H 0.96405 0.93228 0.76587 0.0
H553 H 0.98251 0.01064 0.72736 0.0
H554 H 0.89927 0.97225 0.7482 0.0
H555 H 0.86624 0.94158 0.74308 0.0
H556 H 0.85536 0.96017 0.66503 0.0
H557 H 0.88868 0.99073 0.66961 0.0
C558 C 0.91724 0.1052 0.70582 0.0
C559 C 0.90379 0.10796 0.68263 0.0
C560 C 0.92502 0.0837 0.71409 0.0
C561 C 0.92015 0.06466 0.69897 0.0
C562 C 0.90664 0.06752 0.6758 0.0
C563 C 0.89839 0.08891 0.6678 0.0
C564 C 0.92873 0.04167 0.70714 0.0
C565 C 0.90993 0.02402 0.70589 0.0
C566 C 0.95519 0.03685 0.71542 0.0
C567 C 0.97662 0.05424 0.71573 0.0
C568 C 0.98319 0.06633 0.69358 0.0
C569 C 0.00344 0.08266 0.69399 0.0
C570 C 0.01746 0.0869 0.71638 0.0
C571 C 0.0113 0.07476 0.7384 0.0
C572 C 0.99102 0.05843 0.73811 0.0
C573 C 0.96266 0.93778 0.70158 0.0
C574 C 0.96591 0.92727 0.72531 0.0
C575 C 0.95611 0.9606 0.69992 0.0
C576 C 0.95279 0.97338 0.72193 0.0
C577 C 0.95663 0.96318 0.74569 0.0
C578 C 0.96272 0.94015 0.74737 0.0
C579 C 0.94345 0.99695 0.71965 0.0
C580 C 0.96206 0.01455 0.72194 0.0
C581 C 0.917 0.00175 0.71189 0.0
C582 C 0.89663 0.98364 0.7092 0.0
C583 C 0.89 0.96967 0.7299 0.0
C584 C 0.8712 0.95233 0.7271 0.0
C585 C 0.85875 0.94889 0.70373 0.0
C586 C 0.86503 0.96284 0.68312 0.0
C587 C 0.88385 0.98019 0.68582 0.0
H588 H 0.84422 0.93545 0.7016 0.0
H589 H 0.03315 0.09954 0.71666 0.0
H590 H 0.59558 0.4006 0.14288 0.0
H591 H 0.56511 0.42825 0.16162 0.0
H592 H 0.63256 0.46319 0.19435 0.0
H593 H 0.66297 0.43581 0.17575 0.0
H594 H 0.59085 0.46236 0.22679 0.0
H595 H 0.60546 0.47987 0.13778 0.0
H596 H 0.60444 0.47145 0.0921 0.0
H597 H 0.51948 0.46037 0.09595 0.0
H598 H 0.52009 0.46845 0.14176 0.0
H599 H 0.55839 0.57759 0.23661 0.0
H600 H 0.57514 0.53943 0.22993 0.0
H601 H 0.5007 0.52144 0.19333 0.0
H602 H 0.48503 0.56043 0.19819 0.0
H603 H 0.53811 0.50824 0.16591 0.0
H604 H 0.52445 0.50171 0.25535 0.0
H605 H 0.5289 0.51361 0.29984 0.0
H606 H 0.61402 0.50519 0.29603 0.0
H607 H 0.61052 0.49443 0.2512 0.0
C608 C 0.60387 0.41411 0.1542 0.0
C609 C 0.63173 0.41604 0.15771 0.0
C610 C 0.58644 0.42984 0.16497 0.0
C611 C 0.59657 0.44792 0.17921 0.0
C612 C 0.62425 0.44932 0.18357 0.0
C613 C 0.64164 0.4336 0.17292 0.0
C614 C 0.57891 0.46646 0.18792 0.0
C615 C 0.57923 0.47246 0.21359 0.0
C616 C 0.56325 0.47922 0.17074 0.0
C617 C 0.56287 0.47447 0.14322 0.0
C618 C 0.5866 0.47547 0.12891 0.0
C619 C 0.58609 0.47079 0.103 0.0
C620 C 0.56192 0.4653 0.09115 0.0
C621 C 0.53819 0.46456 0.10517 0.0
C622 C 0.53861 0.46919 0.1311 0.0
C623 C 0.54546 0.56526 0.22767 0.0
C624 C 0.52035 0.57162 0.21825 0.0
C625 C 0.55492 0.54337 0.22401 0.0
C626 C 0.53903 0.52721 0.21158 0.0
C627 C 0.51335 0.53347 0.20307 0.0
C628 C 0.50429 0.55564 0.20598 0.0
C629 C 0.55042 0.50477 0.20493 0.0
C630 C 0.54897 0.49795 0.17951 0.0
C631 C 0.56524 0.49144 0.22242 0.0
C632 C 0.56719 0.49725 0.24974 0.0
C633 C 0.54416 0.50248 0.2639 0.0
C634 C 0.5465 0.50905 0.2892 0.0
C635 C 0.57162 0.50995 0.30078 0.0
C636 C 0.59455 0.50441 0.28706 0.0
C637 C 0.59242 0.49815 0.26166 0.0
H638 H 0.57332 0.51501 0.32038 0.0
H639 H 0.56156 0.46169 0.07108 0.0
H640 H 0.43183 0.37949 0.31318 0.0
H641 H 0.4503 0.41483 0.29631 0.0
H642 H 0.39428 0.45255 0.34153 0.0
H643 H 0.37563 0.41732 0.35826 0.0
H644 H 0.39828 0.47095 0.29588 0.0
H645 H 0.46012 0.44377 0.35965 0.0
H646 H 0.49129 0.41657 0.37926 0.0
H647 H 0.54075 0.41863 0.31276 0.0
H648 H 0.50965 0.44561 0.29261 0.0
H649 H 0.49345 0.56763 0.32344 0.0
H650 H 0.48143 0.5279 0.32878 0.0
H651 H 0.45718 0.52497 0.25044 0.0
H652 H 0.46808 0.56515 0.2454 0.0
H653 H 0.4948 0.4876 0.30811 0.0
H654 H 0.39865 0.49382 0.24902 0.0
H655 H 0.3672 0.52272 0.23311 0.0
H656 H 0.38592 0.56509 0.29644 0.0
H657 H 0.41716 0.53632 0.31287 0.0
C658 C 0.42349 0.39533 0.31954 0.0
C659 C 0.40237 0.39562 0.33717 0.0
C660 C 0.43403 0.41551 0.30985 0.0
C661 C 0.42388 0.43637 0.31785 0.0
C662 C 0.40238 0.43667 0.335 0.0
C663 C 0.39172 0.41652 0.34455 0.0
C664 C 0.4361 0.45796 0.30914 0.0
C665 C 0.41946 0.47449 0.2983 0.0
C666 C 0.46371 0.46271 0.31238 0.0
C667 C 0.48235 0.44644 0.32449 0.0
C668 C 0.4775 0.43825 0.34912 0.0
C669 C 0.49518 0.4229 0.36034 0.0
C670 C 0.51793 0.4158 0.34722 0.0
C671 C 0.52308 0.42408 0.32287 0.0
C672 C 0.50543 0.43939 0.31154 0.0
C673 C 0.48604 0.5584 0.30722 0.0
C674 C 0.48199 0.56938 0.28389 0.0
C675 C 0.47927 0.53568 0.31027 0.0
C676 C 0.46822 0.5235 0.29008 0.0
C677 C 0.4656 0.53407 0.26631 0.0
C678 C 0.47223 0.55691 0.2633 0.0
C679 C 0.45705 0.50061 0.29489 0.0
C680 C 0.47381 0.48388 0.30504 0.0
C681 C 0.42951 0.4958 0.29141 0.0
C682 C 0.41045 0.51305 0.28196 0.0
C683 C 0.39597 0.50928 0.25956 0.0
C684 C 0.37819 0.52564 0.25046 0.0
C685 C 0.37464 0.54576 0.2637 0.0
C686 C 0.38876 0.54953 0.28615 0.0
C687 C 0.40652 0.53322 0.29535 0.0
H688 H 0.3609 0.55841 0.25661 0.0
H689 H 0.53161 0.40393 0.35596 0.0
H690 H 0.11986 0.09948 0.83178 0.0
H691 H 0.08854 0.0747 0.80915 0.0
H692 H 0.12263 0.01682 0.84709 0.0
H693 H 0.15361 0.04129 0.8697 0.0
H694 H 0.11735 0.00941 0.79723 0.0
H695 H 0.06375 0.041 0.86558 0.0
H696 H 0.04199 0.07198 0.88876 0.0
H697 H 0.99758 0.09015 0.82205 0.0
H698 H 0.01932 0.05941 0.79842 0.0
H699 H 0.00766 0.93141 0.82542 0.0
H700 H 0.02416 0.97003 0.82921 0.0
H701 H 0.04246 0.97132 0.74936 0.0
H702 H 0.02613 0.93233 0.74558 0.0
H703 H 0.01886 0.01294 0.80916 0.0
H704 H 0.10647 0.99156 0.74554 0.0
H705 H 0.12823 0.95851 0.7261 0.0
H706 H 0.10488 0.91729 0.78958 0.0
H707 H 0.08333 0.95017 0.80948 0.0
C708 C 0.12049 0.08148 0.83539 0.0
C709 C 0.13933 0.07232 0.85242 0.0
C710 C 0.10268 0.06736 0.82239 0.0
C711 C 0.10334 0.04391 0.82636 0.0
C712 C 0.12198 0.03484 0.84349 0.0
C713 C 0.13972 0.04885 0.85639 0.0
C714 C 0.08472 0.02842 0.8131 0.0
C715 C 0.09577 0.01045 0.79945 0.0
C716 C 0.05654 0.0298 0.81582 0.0
C717 C 0.04353 0.04821 0.8301 0.0
C718 C 0.04956 0.05177 0.85579 0.0
C719 C 0.03718 0.06923 0.86903 0.0
C720 C 0.01852 0.0831 0.85686 0.0
C721 C 0.01212 0.07947 0.83144 0.0
C722 C 0.02447 0.06204 0.81811 0.0
C723 C 0.01445 0.94019 0.80853 0.0
C724 C 0.01589 0.92893 0.78528 0.0
C725 C 0.02366 0.96232 0.81066 0.0
C726 C 0.03483 0.97344 0.78964 0.0
C727 C 0.03402 0.96296 0.76583 0.0
C728 C 0.0247 0.94075 0.76369 0.0
C729 C 0.05165 0.99367 0.79411 0.0
C730 C 0.04034 0.01247 0.80606 0.0
C731 C 0.07969 0.99294 0.79028 0.0
C732 C 0.09306 0.97321 0.77879 0.0
C733 C 0.10608 0.97544 0.75534 0.0
C734 C 0.11836 0.95675 0.74426 0.0
C735 C 0.11785 0.93579 0.75656 0.0
C736 C 0.10519 0.93351 0.78004 0.0
C737 C 0.09296 0.95216 0.79122 0.0
H738 H 0.12731 0.92134 0.74792 0.0
H739 H 0.00894 0.09661 0.86715 0.0
H740 H 0.14883 0.12288 0.01217 0.0
H741 H 0.12558 0.13103 0.05175 0.0
H742 H 0.15976 0.19794 0.05217 0.0
H743 H 0.18339 0.18981 0.01241 0.0
H744 H 0.16057 0.17531 0.10071 0.0
H745 H 0.09889 0.19444 0.03429 0.0
H746 H 0.07368 0.18785 0.99485 0.0
H747 H 0.03485 0.13044 0.02881 0.0
H748 H 0.06014 0.13649 0.06836 0.0
H749 H 0.01998 0.19686 0.16703 0.0
H750 H 0.05211 0.20111 0.13245 0.0
H751 H 0.10326 0.15146 0.16792 0.0
H752 H 0.0718 0.14829 0.20329 0.0
H753 H 0.06134 0.17075 0.10052 0.0
H754 H 0.16612 0.15257 0.14296 0.0
H755 H 0.19066 0.15912 0.18279 0.0
H756 H 0.14259 0.2177 0.19715 0.0
H757 H 0.11829 0.21183 0.15721 0.0
C758 C 0.15164 0.13926 0.02078 0.0
C759 C 0.16794 0.15571 0.00917 0.0
C760 C 0.13826 0.14392 0.04335 0.0
C761 C 0.1409 0.1651 0.05484 0.0
C762 C 0.15752 0.18148 0.0436 0.0
C763 C 0.17078 0.17688 0.02082 0.0
C764 C 0.12529 0.17023 0.07799 0.0
C765 C 0.13886 0.1745 0.10076 0.0
C766 C 0.097 0.1694 0.0779 0.0
C767 C 0.08157 0.16582 0.05422 0.0
C768 C 0.08512 0.18031 0.03329 0.0
C769 C 0.0708 0.17669 0.01092 0.0
C770 C 0.05271 0.15871 0.00931 0.0
C771 C 0.04887 0.14435 0.03008 0.0
C772 C 0.06318 0.14788 0.05249 0.0
C773 C 0.0386 0.18752 0.16786 0.0
C774 C 0.04348 0.17228 0.18777 0.0
C775 C 0.05686 0.1898 0.148 0.0
C776 C 0.08012 0.17651 0.14732 0.0
C777 C 0.08577 0.16223 0.16805 0.0
C778 C 0.06777 0.1604 0.18832 0.0
C779 C 0.09647 0.1757 0.12371 0.0
C780 C 0.08302 0.172 0.1007 0.0
C781 C 0.12482 0.17728 0.12366 0.0
C782 C 0.14023 0.18164 0.14716 0.0
C783 C 0.16099 0.16699 0.1545 0.0
C784 C 0.17486 0.17056 0.17712 0.0
C785 C 0.1682 0.18877 0.19255 0.0
C786 C 0.1478 0.20357 0.18527 0.0
C787 C 0.13397 0.20014 0.16261 0.0
H788 H 0.17888 0.19133 0.21013 0.0
H789 H 0.04164 0.15593 0.99197 0.0
H790 H 0.34456 0.28244 0.50726 0.0
H791 H 0.355 0.28585 0.55226 0.0
H792 H 0.37867 0.35519 0.54044 0.0
H793 H 0.36965 0.35159 0.4953 0.0
H794 H 0.41606 0.33426 0.56436 0.0
H795 H 0.32165 0.3399 0.57539 0.0
H796 H 0.27421 0.32905 0.57068 0.0
H797 H 0.2894 0.26646 0.60945 0.0
H798 H 0.33704 0.27679 0.61408 0.0
H799 H 0.423 0.35071 0.70332 0.0
H800 H 0.39099 0.34594 0.66832 0.0
H801 H 0.43899 0.29175 0.63879 0.0
H802 H 0.47105 0.29675 0.67318 0.0
H803 H 0.3616 0.30939 0.63814 0.0
H804 H 0.45988 0.31139 0.58233 0.0
H805 H 0.5068 0.3235 0.58833 0.0
H806 H 0.48114 0.37533 0.63932 0.0
H807 H 0.43407 0.36382 0.63321 0.0
C808 C 0.35187 0.29847 0.51423 0.0
C809 C 0.35651 0.31666 0.49747 0.0
C810 C 0.35749 0.30048 0.54009 0.0
C811 C 0.36754 0.32082 0.54987 0.0
C812 C 0.37093 0.33932 0.5334 0.0
C813 C 0.36551 0.33728 0.50754 0.0
C814 C 0.37734 0.32208 0.57648 0.0
C815 C 0.40391 0.32902 0.5804 0.0
C816 C 0.36163 0.31534 0.59762 0.0
C817 C 0.33299 0.30906 0.59491 0.0
C818 C 0.31493 0.32374 0.58274 0.0
C819 C 0.28799 0.3177 0.58012 0.0
C820 C 0.27881 0.29706 0.58971 0.0
C821 C 0.29655 0.28244 0.60201 0.0
C822 C 0.32352 0.28839 0.60467 0.0
C823 C 0.42592 0.33705 0.69005 0.0
C824 C 0.44959 0.32428 0.69064 0.0
C825 C 0.40765 0.33434 0.67007 0.0
C826 C 0.41294 0.31876 0.65075 0.0
C827 C 0.43466 0.30396 0.65341 0.0
C828 C 0.45296 0.30683 0.67307 0.0
C829 C 0.40015 0.32119 0.62553 0.0
C830 C 0.37334 0.31487 0.62194 0.0
C831 C 0.41537 0.32889 0.60459 0.0
C832 C 0.44351 0.3366 0.60748 0.0
C833 C 0.46426 0.32548 0.59466 0.0
C834 C 0.49087 0.33223 0.5981 0.0
C835 C 0.49695 0.35013 0.61425 0.0
C836 C 0.47642 0.36143 0.62686 0.0
C837 C 0.44977 0.3548 0.62341 0.0
H838 H 0.51758 0.35527 0.61696 0.0
H839 H 0.25794 0.29241 0.58766 0.0
H840 H 0.6396 0.31935 0.01015 0.0
H841 H 0.62064 0.31192 0.9684 0.0
H842 H 0.69224 0.33818 0.93313 0.0
H843 H 0.71142 0.34556 0.97492 0.0
H844 H 0.64962 0.35705 0.9129 0.0
H845 H 0.67634 0.28182 0.92883 0.0
H846 H 0.68171 0.24628 0.95279 0.0
H847 H 0.5963 0.2378 0.95532 0.0
H848 H 0.59038 0.27347 0.93169 0.0
H849 H 0.57981 0.34414 0.79841 0.0
H850 H 0.61605 0.33529 0.82816 0.0
H851 H 0.55799 0.30928 0.88146 0.0
H852 H 0.52222 0.31668 0.85116 0.0
H853 H 0.60325 0.28678 0.88678 0.0
H854 H 0.57846 0.36681 0.88027 0.0
H855 H 0.5731 0.40249 0.85643 0.0
H856 H 0.65632 0.40112 0.83591 0.0
H857 H 0.66206 0.36528 0.85943 0.0
C858 C 0.6516 0.32307 0.99356 0.0
C859 C 0.67699 0.33317 0.99593 0.0
C860 C 0.64073 0.31879 0.96963 0.0
C861 C 0.65507 0.32432 0.94754 0.0
C862 C 0.68076 0.33378 0.94986 0.0
C863 C 0.69164 0.33809 0.97378 0.0
C864 C 0.64219 0.32212 0.92223 0.0
C865 C 0.64008 0.34149 0.90692 0.0
C866 C 0.62952 0.30192 0.91439 0.0
C867 C 0.63292 0.28042 0.92861 0.0
C868 C 0.65868 0.27247 0.93466 0.0
C869 C 0.66183 0.25228 0.94816 0.0
C870 C 0.63936 0.23981 0.95561 0.0
C871 C 0.61369 0.24748 0.94954 0.0
C872 C 0.61043 0.26767 0.93605 0.0
C873 C 0.57503 0.33544 0.81589 0.0
C874 C 0.54825 0.33089 0.82232 0.0
C875 C 0.59568 0.33077 0.83312 0.0
C876 C 0.58972 0.32208 0.85735 0.0
C877 C 0.56317 0.31604 0.86299 0.0
C878 C 0.54268 0.32041 0.84568 0.0
C879 C 0.60998 0.32189 0.87806 0.0
C880 C 0.61342 0.30213 0.89252 0.0
C881 C 0.62398 0.3417 0.88515 0.0
C882 C 0.62063 0.36336 0.8714 0.0
C883 C 0.59557 0.37412 0.87061 0.0
C884 C 0.59247 0.39434 0.85715 0.0
C885 C 0.61434 0.40404 0.84462 0.0
C886 C 0.63939 0.39357 0.84559 0.0
C887 C 0.64259 0.37332 0.85899 0.0
H888 H 0.6119 0.41968 0.8342 0.0
H889 H 0.64184 0.22418 0.96606 0.0
H890 H 0.87311 0.22922 0.51761 0.0
H891 H 0.88485 0.22428 0.47315 0.0
H892 H 0.88624 0.15206 0.48399 0.0
H893 H 0.87614 0.1569 0.52874 0.0
H894 H 0.9291 0.16381 0.46164 0.0
H895 H 0.83727 0.17987 0.44701 0.0
H896 H 0.79466 0.2006 0.45022 0.0
H897 H 0.83072 0.25843 0.41448 0.0
H898 H 0.87369 0.23817 0.41137 0.0
H899 H 0.93186 0.15816 0.31729 0.0
H900 H 0.90377 0.16556 0.35461 0.0
H901 H 0.97071 0.19811 0.39108 0.0
H902 H 0.99873 0.19045 0.35433 0.0
H903 H 0.88838 0.202 0.38713 0.0
H904 H 0.979 0.1739 0.44784 0.0
H905 H 0.01953 0.1505 0.44337 0.0
H906 H 0.98063 0.11112 0.38602 0.0
H907 H 0.93974 0.13403 0.39045 0.0
C908 C 0.87587 0.21226 0.51058 0.0
C909 C 0.87391 0.19349 0.527 0.0
C910 C 0.88221 0.20944 0.48496 0.0
C911 C 0.88632 0.18777 0.47504 0.0
C912 C 0.88319 0.16897 0.49112 0.0
C913 C 0.87713 0.17178 0.51676 0.0
C914 C 0.89654 0.1848 0.44873 0.0
C915 C 0.91995 0.17207 0.44542 0.0
C916 C 0.88457 0.19526 0.4273 0.0
C917 C 0.85878 0.20755 0.42915 0.0
C918 C 0.83619 0.19708 0.44002 0.0
C919 C 0.81195 0.20873 0.44179 0.0
C920 C 0.81 0.23083 0.43261 0.0
C921 C 0.83227 0.24131 0.4216 0.0
C922 C 0.85657 0.22974 0.4198 0.0
C923 C 0.94022 0.16758 0.33293 0.0
C924 C 0.96753 0.17348 0.33311 0.0
C925 C 0.9242 0.17176 0.35426 0.0
C926 C 0.93535 0.18195 0.37582 0.0
C927 C 0.96183 0.18989 0.37482 0.0
C928 C 0.97782 0.18552 0.3538 0.0
C929 C 0.92109 0.1816 0.40052 0.0
C930 C 0.89714 0.19365 0.40347 0.0
C931 C 0.93213 0.17009 0.42164 0.0
C932 C 0.9564 0.15581 0.41935 0.0
C933 C 0.97905 0.16015 0.43439 0.0
C934 C 0.00209 0.14699 0.43185 0.0
C935 C 0.00268 0.12937 0.41437 0.0
C936 C 0.98018 0.12481 0.3995 0.0
C937 C 0.95707 0.13788 0.40201 0.0
H938 H 0.02056 0.11924 0.41239 0.0
H939 H 0.79121 0.23982 0.43398 0.0
H940 H 0.8921 0.84337 0.01677 0.0
H941 H 0.89864 0.8425 0.97133 0.0
H942 H 0.85374 0.78029 0.9671 0.0
H943 H 0.84921 0.77994 0.01312 0.0
H944 H 0.89299 0.77571 0.93882 0.0
H945 H 0.82922 0.83342 0.94287 0.0
H946 H 0.80669 0.86784 0.9578 0.0
H947 H 0.8746 0.90779 0.9353 0.0
H948 H 0.89773 0.87359 0.92057 0.0
H949 H 0.9218 0.84002 0.80785 0.0
H950 H 0.89018 0.82927 0.84144 0.0
H951 H 0.95498 0.79869 0.88345 0.0
H952 H 0.98595 0.80842 0.84968 0.0
H953 H 0.88969 0.84517 0.88605 0.0
H954 H 0.93714 0.7607 0.92455 0.0
H955 H 0.95377 0.72493 0.90696 0.0
H956 H 0.90717 0.7356 0.83961 0.0
H957 H 0.8899 0.77124 0.85692 0.0
C958 C 0.88378 0.82932 0.00635 0.0
C959 C 0.87036 0.81159 0.01893 0.0
C960 C 0.88707 0.8291 0.9801 0.0
C961 C 0.87626 0.81156 0.96547 0.0
C962 C 0.8622 0.79411 0.97783 0.0
C963 C 0.85937 0.79407 0.00424 0.0
C964 C 0.88157 0.81077 0.93765 0.0
C965 C 0.89196 0.79084 0.92722 0.0
C966 C 0.87907 0.83014 0.92192 0.0
C967 C 0.86525 0.85087 0.93067 0.0
C968 C 0.83942 0.84952 0.94122 0.0
C969 C 0.82653 0.86901 0.94965 0.0
C970 C 0.83921 0.88999 0.94752 0.0
C971 C 0.86479 0.89153 0.93692 0.0
C972 C 0.87778 0.8721 0.92848 0.0
C973 C 0.92892 0.83004 0.82369 0.0
C974 C 0.95626 0.82489 0.82604 0.0
C975 C 0.91093 0.82417 0.84307 0.0
C976 C 0.92006 0.81303 0.86505 0.0
C977 C 0.94714 0.8068 0.86658 0.0
C978 C 0.96496 0.81254 0.84728 0.0
C979 C 0.90275 0.81057 0.88792 0.0
C980 C 0.89006 0.82988 0.89743 0.0
C981 C 0.90215 0.79039 0.90241 0.0
C982 C 0.91227 0.76874 0.89205 0.0
C983 C 0.93025 0.75535 0.90608 0.0
C984 C 0.93984 0.7351 0.89612 0.0
C985 C 0.93156 0.72801 0.87217 0.0
C986 C 0.91362 0.74113 0.85814 0.0
C987 C 0.90395 0.76138 0.868 0.0
H988 H 0.93903 0.71234 0.8645 0.0
H989 H 0.8292 0.90505 0.95406 0.0
H990 H 0.62111 0.67011 0.50706 0.0
H991 H 0.60015 0.67575 0.4655 0.0
H992 H 0.67816 0.67978 0.43074 0.0
H993 H 0.69926 0.67394 0.47226 0.0
H994 H 0.6395 0.71315 0.41284 0.0
H995 H 0.64896 0.63296 0.42556 0.0
H996 H 0.64395 0.59722 0.44928 0.0
H997 H 0.55846 0.60504 0.44906 0.0
H998 H 0.56299 0.64104 0.42568 0.0
H999 H 0.5742 0.65875 0.29389 0.0
H1000 H 0.60798 0.6674 0.32622 0.0
H1001 H 0.54873 0.70357 0.36908 0.0
H1002 H 0.51525 0.69542 0.33678 0.0
H1003 H 0.58346 0.65061 0.37985 0.0
H1004 H 0.57672 0.73582 0.37968 0.0
H1005 H 0.58312 0.77401 0.36177 0.0
H1006 H 0.66331 0.75685 0.3398 0.0
H1007 H 0.65716 0.71844 0.35733 0.0
C1008 C 0.63377 0.67255 0.49061 0.0
C1009 C 0.66179 0.67153 0.49285 0.0
C1010 C 0.6218 0.67565 0.4669 0.0
C1011 C 0.63763 0.67803 0.44506 0.0
C1012 C 0.66562 0.67796 0.44737 0.0
C1013 C 0.67761 0.67453 0.47103 0.0
C1014 C 0.62488 0.67944 0.41973 0.0
C1015 C 0.62747 0.69938 0.40547 0.0
C1016 C 0.60913 0.66153 0.4102 0.0
C1017 C 0.60634 0.6398 0.42407 0.0
C1018 C 0.62911 0.62716 0.43075 0.0
C1019 C 0.62635 0.60684 0.4441 0.0
C1020 C 0.60091 0.59889 0.45072 0.0
C1021 C 0.57816 0.61123 0.44394 0.0
C1022 C 0.58081 0.63158 0.43062 0.0
C1023 C 0.56883 0.66969 0.30941 0.0
C1024 C 0.5421 0.6764 0.31281 0.0
C1025 C 0.58812 0.67455 0.32796 0.0
C1026 C 0.58097 0.68641 0.34994 0.0
C1027 C 0.55493 0.69495 0.35204 0.0
C1028 C 0.53571 0.69008 0.33362 0.0
C1029 C 0.5976 0.68449 0.3731 0.0
C1030 C 0.59575 0.66429 0.38702 0.0
C1031 C 0.61372 0.70224 0.38242 0.0
C1032 C 0.61625 0.72416 0.36922 0.0
C1033 C 0.59545 0.74003 0.37046 0.0
C1034 C 0.59915 0.76179 0.36066 0.0
C1035 C 0.62366 0.7679 0.34978 0.0
C1036 C 0.64438 0.75214 0.34832 0.0
C1037 C 0.64075 0.73034 0.35807 0.0
H1038 H 0.62652 0.78478 0.3423 0.0
H1039 H 0.59881 0.58315 0.46105 0.0
H1040 H 0.32867 0.66573 0.99923 0.0
H1041 H 0.33792 0.66552 0.04489 0.0
H1042 H 0.40066 0.71467 0.03357 0.0
H1043 H 0.39119 0.71544 0.98828 0.0
H1044 H 0.4177 0.67631 0.05856 0.0
H1045 H 0.34522 0.72943 0.06289 0.0
H1046 H 0.29903 0.74301 0.0567 0.0
H1047 H 0.2692 0.68894 0.10337 0.0
H1048 H 0.31521 0.67481 0.10951 0.0
H1049 H 0.46579 0.70088 0.17397 0.0
H1050 H 0.43589 0.71054 0.139 0.0
H1051 H 0.38478 0.65435 0.15866 0.0
H1052 H 0.41461 0.64494 0.19426 0.0
H1053 H 0.3583 0.69426 0.13104 0.0
H1054 H 0.42987 0.6397 0.12427 0.0
H1055 H 0.47604 0.62653 0.13179 0.0
H1056 H 0.50683 0.68297 0.08939 0.0
H1057 H 0.46081 0.69671 0.08206 0.0
C1058 C 0.34403 0.67686 0.00653 0.0
C1059 C 0.35946 0.69034 0.98997 0.0
C1060 C 0.3493 0.6767 0.03265 0.0
C1061 C 0.37006 0.69002 0.04263 0.0
C1062 C 0.38467 0.70415 0.02627 0.0
C1063 C 0.37935 0.70443 1.00032 0.0
C1064 C 0.37849 0.6878 0.06953 0.0
C1065 C 0.40469 0.68044 0.07433 0.0
C1066 C 0.36132 0.69251 0.09021 0.0
C1067 C 0.33364 0.70087 0.08636 0.0
C1068 C 0.3288 0.72027 0.07158 0.0
C1069 C 0.30265 0.72811 0.06814 0.0
C1070 C 0.28118 0.71679 0.07955 0.0
C1071 C 0.28584 0.69765 0.09448 0.0
C1072 C 0.31195 0.68972 0.09796 0.0
C1073 C 0.44736 0.6914 0.17173 0.0
C1074 C 0.44248 0.67215 0.18663 0.0
C1075 C 0.43031 0.69688 0.1517 0.0
C1076 C 0.40845 0.68288 0.14594 0.0
C1077 C 0.40155 0.66537 0.1628 0.0
C1078 C 0.41856 0.66002 0.18315 0.0
C1079 C 0.39753 0.68328 0.11978 0.0
C1080 C 0.37107 0.69007 0.11517 0.0
C1081 C 0.41429 0.67788 0.09907 0.0
C1082 C 0.44194 0.66934 0.10283 0.0
C1083 C 0.4465 0.64938 0.1167 0.0
C1084 C 0.47263 0.64181 0.12092 0.0
C1085 C 0.49436 0.65393 0.11112 0.0
C1086 C 0.48998 0.67361 0.097 0.0
C1087 C 0.46388 0.6813 0.0928 0.0
H1088 H 0.51458 0.64805 0.11442 0.0
H1089 H 0.26096 0.7229 0.07689 0.0
H1090 H 0.12434 0.81962 0.49209 0.0
H1091 H 0.10331 0.81488 0.53323 0.0
H1092 H 0.17736 0.83284 0.57012 0.0
H1093 H 0.19932 0.83604 0.52886 0.0
H1094 H 0.15086 0.80243 0.59865 0.0
H1095 H 0.12996 0.87267 0.55984 0.0
H1096 H 0.11549 0.89868 0.5259 0.0
H1097 H 0.03776 0.86748 0.52513 0.0
H1098 H 0.0519 0.84104 0.55882 0.0
H1099 H 0.07023 0.84698 0.70556 0.0
H1100 H 0.10368 0.84068 0.6722 0.0
H1101 H 0.04394 0.80682 0.62719 0.0
H1102 H 0.01083 0.81256 0.66045 0.0
H1103 H 0.06775 0.84769 0.60593 0.0
H1104 H 0.0918 0.77719 0.64735 0.0
H1105 H 0.10792 0.75486 0.6838 0.0
H1106 H 0.18217 0.79157 0.68305 0.0
H1107 H 0.16629 0.81446 0.64684 0.0
C1108 C 0.13656 0.8219 0.50882 0.0
C1109 C 0.16357 0.82856 0.5069 0.0
C1110 C 0.12433 0.81943 0.53246 0.0
C1111 C 0.13853 0.82409 0.55481 0.0
C1112 C 0.16589 0.82938 0.55316 0.0
C1113 C 0.17831 0.83151 0.52946 0.0
C1114 C 0.12405 0.82535 0.57942 0.0
C1115 C 0.13285 0.8125 0.60034 0.0
C1116 C 0.10077 0.83878 0.58188 0.0
C1117 C 0.09207 0.85475 0.56171 0.0
C1118 C 0.10984 0.87126 0.55231 0.0
C1119 C 0.10169 0.88609 0.53313 0.0
C1120 C 0.07574 0.8847 0.52333 0.0
C1121 C 0.05787 0.86852 0.53273 0.0
C1122 C 0.06593 0.85361 0.55188 0.0
C1123 C 0.0646 0.83732 0.68906 0.0
C1124 C 0.03793 0.83024 0.6856 0.0
C1125 C 0.08366 0.83388 0.66994 0.0
C1126 C 0.07616 0.82343 0.64719 0.0
C1127 C 0.05007 0.81497 0.64458 0.0
C1128 C 0.03119 0.81827 0.6636 0.0
C1129 C 0.09384 0.82405 0.62468 0.0
C1130 C 0.08577 0.8376 0.60422 0.0
C1131 C 0.11799 0.81174 0.62305 0.0
C1132 C 0.12774 0.7977 0.64451 0.0
C1133 C 0.11147 0.78066 0.65508 0.0
C1134 C 0.12058 0.76787 0.67568 0.0
C1135 C 0.14604 0.7718 0.68573 0.0
C1136 C 0.16245 0.78855 0.67522 0.0
C1137 C 0.15341 0.80143 0.65465 0.0
H1138 H 0.15309 0.7618 0.70158 0.0
H1139 H 0.06947 0.8962 0.50848 0.0
H1140 H 0.27764 0.24616 0.31402 0.0
H1141 H 0.23829 0.23216 0.29169 0.0
H1142 H 0.19466 0.29207 0.31232 0.0
H1143 H 0.23416 0.30617 0.33499 0.0
H1144 H 0.16456 0.25609 0.3196 0.0
H1145 H 0.21647 0.28362 0.25085 0.0
H1146 H 0.2564 0.28922 0.22408 0.0
H1147 H 0.25866 0.21822 0.20836 0.0
H1148 H 0.21902 0.21211 0.23538 0.0
H1149 H 0.05657 0.21089 0.25196 0.0
H1150 H 0.09347 0.2383 0.25415 0.0
H1151 H 0.15033 0.18368 0.25715 0.0
H1152 H 0.11352 0.15639 0.2557 0.0
H1153 H 0.17016 0.22506 0.23278 0.0
H1154 H 0.12496 0.19796 0.30983 0.0
H1155 H 0.08433 0.19219 0.33566 0.0
H1156 H 0.06914 0.26351 0.33421 0.0
H1157 H 0.10947 0.26961 0.30794 0.0
C1158 C 0.2598 0.25652 0.31355 0.0
C1159 C 0.25911 0.27737 0.32613 0.0
C1160 C 0.23729 0.24852 0.3007 0.0
C1161 C 0.21363 0.26126 0.29984 0.0
C1162 C 0.21274 0.282 0.31258 0.0
C1163 C 0.23528 0.28999 0.32561 0.0
C1164 C 0.18958 0.25222 0.28664 0.0
C1165 C 0.16566 0.24981 0.30037 0.0
C1166 C 0.1909 0.24383 0.26158 0.0
C1167 C 0.21483 0.2474 0.24531 0.0
C1168 C 0.2256 0.26916 0.24186 0.0
C1169 C 0.24818 0.27243 0.22661 0.0
C1170 C 0.26009 0.25408 0.21456 0.0
C1171 C 0.24942 0.23242 0.21771 0.0
C1172 C 0.22687 0.22905 0.23297 0.0
C1173 C 0.07703 0.20483 0.25174 0.0
C1174 C 0.08235 0.18163 0.2537 0.0
C1175 C 0.09807 0.22047 0.25318 0.0
C1176 C 0.12457 0.21298 0.25625 0.0
C1177 C 0.13003 0.18981 0.25484 0.0
C1178 C 0.10902 0.17422 0.25392 0.0
C1179 C 0.14567 0.22836 0.26594 0.0
C1180 C 0.16898 0.23185 0.25169 0.0
C1181 C 0.14382 0.23781 0.29044 0.0
C1182 C 0.11999 0.23421 0.3067 0.0
C1183 C 0.11284 0.21238 0.31488 0.0
C1184 C 0.08988 0.20905 0.3296 0.0
C1185 C 0.07411 0.22747 0.33651 0.0
C1186 C 0.08134 0.24926 0.32879 0.0
C1187 C 0.10423 0.25266 0.31398 0.0
H1188 H 0.05633 0.22486 0.3479 0.0
H1189 H 0.27756 0.25666 0.20275 0.0
H1190 H 0.2593 0.23158 0.85785 0.0
H1191 H 0.28664 0.2563 0.83095 0.0
H1192 H 0.31088 0.19899 0.78657 0.0
H1193 H 0.28393 0.17414 0.81362 0.0
H1194 H 0.35327 0.22403 0.80181 0.0
H1195 H 0.27034 0.23775 0.76034 0.0
H1196 H 0.22229 0.2468 0.75702 0.0
H1197 H 0.23675 0.31188 0.78974 0.0
H1198 H 0.28485 0.3031 0.79362 0.0
H1199 H 0.43743 0.30109 0.73864 0.0
H1200 H 0.40029 0.2739 0.73978 0.0
H1201 H 0.35678 0.31771 0.79009 0.0
H1202 H 0.39316 0.34504 0.7883 0.0
H1203 H 0.32248 0.29515 0.76127 0.0
H1204 H 0.40119 0.27737 0.81264 0.0
H1205 H 0.44916 0.26887 0.8186 0.0
H1206 H 0.44196 0.21176 0.76932 0.0
H1207 H 0.39399 0.22013 0.76284 0.0
C1208 C 0.27032 0.22429 0.84227 0.0
C1209 C 0.26945 0.20093 0.83786 0.0
C1210 C 0.28572 0.23844 0.82675 0.0
C1211 C 0.30057 0.22951 0.80657 0.0
C1212 C 0.29942 0.20625 0.80191 0.0
C1213 C 0.2839 0.1921 0.81731 0.0
C1214 C 0.31899 0.24423 0.79181 0.0
C1215 C 0.34645 0.23928 0.79235 0.0
C1216 C 0.31014 0.26427 0.77978 0.0
C1217 C 0.28122 0.2697 0.77739 0.0
C1218 C 0.26326 0.25393 0.767 0.0
C1219 C 0.23601 0.25902 0.76499 0.0
C1220 C 0.22647 0.27989 0.77319 0.0
C1221 C 0.24418 0.29572 0.78338 0.0
C1222 C 0.27145 0.29071 0.78546 0.0
C1223 C 0.41947 0.30529 0.74906 0.0
C1224 C 0.41828 0.32506 0.7636 0.0
C1225 C 0.39836 0.28966 0.7499 0.0
C1226 C 0.376 0.29354 0.7655 0.0
C1227 C 0.37382 0.31425 0.77802 0.0
C1228 C 0.39475 0.32982 0.77712 0.0
C1229 C 0.35675 0.27524 0.77198 0.0
C1230 C 0.32916 0.27953 0.77002 0.0
C1231 C 0.36544 0.25466 0.78298 0.0
C1232 C 0.39416 0.24953 0.78701 0.0
C1233 C 0.4099 0.26308 0.80297 0.0
C1234 C 0.43707 0.25829 0.80645 0.0
C1235 C 0.44862 0.23983 0.79428 0.0
C1236 C 0.433 0.22609 0.77867 0.0
C1237 C 0.40583 0.23085 0.77509 0.0
H1238 H 0.46965 0.23614 0.79699 0.0
H1239 H 0.20537 0.28379 0.77162 0.0
H1240 H 0.74935 0.19909 0.69485 0.0
H1241 H 0.70852 0.21216 0.71578 0.0
H1242 H 0.7439 0.27813 0.72503 0.0
H1243 H 0.78487 0.26504 0.7045 0.0
H1244 H 0.71484 0.2672 0.76622 0.0
H1245 H 0.70158 0.26636 0.67544 0.0
H1246 H 0.70055 0.24898 0.63312 0.0
H1247 H 0.64189 0.20095 0.65892 0.0
H1248 H 0.64285 0.21789 0.70152 0.0
H1249 H 0.60575 0.34299 0.75427 0.0
H1250 H 0.64626 0.31989 0.7559 0.0
H1251 H 0.59769 0.25954 0.75531 0.0
H1252 H 0.55709 0.28281 0.75392 0.0
H1253 H 0.63154 0.2622 0.71526 0.0
H1254 H 0.63947 0.26754 0.80439 0.0
H1255 H 0.63893 0.28675 0.84557 0.0
H1256 H 0.7056 0.32797 0.82262 0.0
H1257 H 0.70652 0.30899 0.78114 0.0
C1258 C 0.74841 0.21636 0.70139 0.0
C1259 C 0.77023 0.23109 0.6978 0.0
C1260 C 0.72513 0.2238 0.71345 0.0
C1261 C 0.72299 0.24623 0.72175 0.0
C1262 C 0.74508 0.26074 0.71892 0.0
C1263 C 0.76846 0.25325 0.70709 0.0
C1264 C 0.69716 0.25512 0.73155 0.0
C1265 C 0.69663 0.26616 0.75508 0.0
C1266 C 0.6732 0.25333 0.71733 0.0
C1267 C 0.67253 0.2432 0.69172 0.0
C1268 C 0.68862 0.25199 0.67213 0.0
C1269 C 0.68803 0.24223 0.64809 0.0
C1270 C 0.67123 0.22383 0.64336 0.0
C1271 C 0.65494 0.21518 0.66264 0.0
C1272 C 0.65549 0.22484 0.68672 0.0
C1273 C 0.60379 0.32482 0.75584 0.0
C1274 C 0.57847 0.31459 0.75452 0.0
C1275 C 0.6269 0.3116 0.75668 0.0
C1276 C 0.62501 0.28796 0.75574 0.0
C1277 C 0.59959 0.27774 0.7562 0.0
C1278 C 0.57645 0.29099 0.75562 0.0
C1279 C 0.64921 0.27448 0.74978 0.0
C1280 C 0.64954 0.26274 0.72679 0.0
C1281 C 0.67286 0.27577 0.76444 0.0
C1282 C 0.67298 0.2869 0.78957 0.0
C1283 C 0.65398 0.28076 0.80806 0.0
C1284 C 0.65361 0.2916 0.83149 0.0
C1285 C 0.67215 0.30865 0.83671 0.0
C1286 C 0.69124 0.31476 0.81855 0.0
C1287 C 0.69177 0.30389 0.7951 0.0
H1288 H 0.67174 0.3171 0.85483 0.0
H1289 H 0.6708 0.2163 0.62474 0.0
H1290 H 0.75021 0.30248 0.20006 0.0
H1291 H 0.77621 0.2787 0.22913 0.0
H1292 H 0.82805 0.25961 0.16756 0.0
H1293 H 0.80165 0.28254 0.13836 0.0
H1294 H 0.81738 0.22422 0.19557 0.0
H1295 H 0.84523 0.30118 0.21084 0.0
H1296 H 0.8384 0.34101 0.2225 0.0
H1297 H 0.80872 0.3204 0.29539 0.0
H1298 H 0.81506 0.28041 0.28401 0.0
H1299 H 0.94867 0.21896 0.2575 0.0
H1300 H 0.90956 0.24315 0.25223 0.0
H1301 H 0.85789 0.18685 0.27032 0.0
H1302 H 0.89719 0.16248 0.27476 0.0
H1303 H 0.86232 0.25838 0.27 0.0
H1304 H 0.8133 0.18184 0.22357 0.0
H1305 H 0.8253 0.14395 0.20802 0.0
H1306 H 0.90487 0.16721 0.19101 0.0
H1307 H 0.89324 0.20524 0.20627 0.0
C1308 C 0.76687 0.2929 0.19265 0.0
C1309 C 0.77394 0.29452 0.16688 0.0
C1310 C 0.78189 0.2795 0.20935 0.0
C1311 C 0.8043 0.26757 0.20062 0.0
C1312 C 0.81088 0.26868 0.17479 0.0
C1313 C 0.7959 0.28197 0.15813 0.0
C1314 C 0.82147 0.25419 0.21816 0.0
C1315 C 0.82684 0.23164 0.21206 0.0
C1316 C 0.83408 0.26383 0.23961 0.0
C1317 C 0.83029 0.28783 0.24646 0.0
C1318 C 0.83704 0.30515 0.22927 0.0
C1319 C 0.8333 0.32775 0.23584 0.0
C1320 C 0.82305 0.33323 0.25964 0.0
C1321 C 0.81659 0.31613 0.27694 0.0
C1322 C 0.82026 0.2935 0.27045 0.0
C1323 C 0.92905 0.21213 0.26191 0.0
C1324 C 0.92583 0.18894 0.26654 0.0
C1325 C 0.90663 0.22594 0.25873 0.0
C1326 C 0.88076 0.21665 0.26012 0.0
C1327 C 0.87768 0.19428 0.26873 0.0
C1328 C 0.90014 0.1804 0.2716 0.0
C1329 C 0.85834 0.22856 0.2472 0.0
C1330 C 0.85208 0.25079 0.25404 0.0
C1331 C 0.84543 0.21891 0.22591 0.0
C1332 C 0.85248 0.19624 0.21632 0.0
C1333 C 0.83332 0.17884 0.21646 0.0
C1334 C 0.84006 0.15735 0.20772 0.0
C1335 C 0.86586 0.15315 0.19864 0.0
C1336 C 0.88493 0.17046 0.19814 0.0
C1337 C 0.87828 0.19197 0.20684 0.0
H1338 H 0.87106 0.1365 0.19193 0.0
H1339 H 0.82017 0.35074 0.26469 0.0
H1340 H 0.80087 0.69426 0.65644 0.0
H1341 H 0.82707 0.71622 0.68669 0.0
H1342 H 0.75537 0.75021 0.7111 0.0
H1343 H 0.72886 0.72807 0.68075 0.0
H1344 H 0.79875 0.77924 0.69873 0.0
H1345 H 0.78212 0.71489 0.75102 0.0
H1346 H 0.77957 0.6743 0.76129 0.0
H1347 H 0.86422 0.66787 0.74897 0.0
H1348 H 0.86723 0.70836 0.73825 0.0
H1349 H 0.88897 0.84212 0.76838 0.0
H1350 H 0.84983 0.81711 0.76621 0.0
H1351 H 0.9008 0.7627 0.74163 0.0
H1352 H 0.93985 0.7873 0.74539 0.0
H1353 H 0.85898 0.74514 0.76315 0.0
H1354 H 0.87346 0.80384 0.69947 0.0
H1355 H 0.87858 0.84336 0.68522 0.0
H1356 H 0.80066 0.85903 0.71464 0.0
H1357 H 0.79525 0.81962 0.72934 0.0
C1358 C 0.79067 0.70643 0.66822 0.0
C1359 C 0.76287 0.7096 0.66612 0.0
C1360 C 0.80561 0.71878 0.68568 0.0
C1361 C 0.79311 0.73464 0.70133 0.0
C1362 C 0.76533 0.73791 0.69932 0.0
C1363 C 0.75026 0.72529 0.68203 0.0
C1364 C 0.80965 0.74873 0.71843 0.0
C1365 C 0.81138 0.77192 0.71334 0.0
C1366 C 0.82652 0.73904 0.73707 0.0
C1367 C 0.82486 0.71469 0.74373 0.0
C1368 C 0.80017 0.70481 0.75034 0.0
C1369 C 0.79864 0.68181 0.75627 0.0
C1370 C 0.82171 0.66851 0.75576 0.0
C1371 C 0.84636 0.6782 0.74937 0.0
C1372 C 0.848 0.70118 0.74341 0.0
C1373 C 0.89186 0.82445 0.76398 0.0
C1374 C 0.91728 0.81646 0.75725 0.0
C1375 C 0.86949 0.81024 0.76239 0.0
C1376 C 0.87221 0.78823 0.75287 0.0
C1377 C 0.89806 0.77962 0.74887 0.0
C1378 C 0.92044 0.79365 0.75109 0.0
C1379 C 0.84869 0.77557 0.74289 0.0
C1380 C 0.84572 0.75262 0.74917 0.0
C1381 C 0.83102 0.78535 0.72486 0.0
C1382 C 0.83409 0.80892 0.71575 0.0
C1383 C 0.85748 0.81576 0.70297 0.0
C1384 C 0.86043 0.83812 0.69483 0.0
C1385 C 0.83999 0.85372 0.69909 0.0
C1386 C 0.8165 0.84695 0.71141 0.0
C1387 C 0.81348 0.82461 0.71966 0.0
H1388 H 0.84231 0.87103 0.69279 0.0
H1389 H 0.82049 0.65071 0.76035 0.0
H1390 H 0.78467 0.73858 0.19308 0.0
H1391 H 0.74492 0.72092 0.21071 0.0
H1392 H 0.7 0.78194 0.19741 0.0
H1393 H 0.74048 0.80056 0.18161 0.0
H1394 H 0.68302 0.7632 0.23962 0.0
H1395 H 0.6979 0.73681 0.15567 0.0
H1396 H 0.72314 0.72051 0.12009 0.0
H1397 H 0.73407 0.65904 0.16232 0.0
H1398 H 0.70918 0.67511 0.19831 0.0
H1399 H 0.55457 0.70974 0.22656 0.0
H1400 H 0.59652 0.73106 0.22285 0.0
H1401 H 0.64082 0.67193 0.24594 0.0
H1402 H 0.59874 0.65052 0.2491 0.0
H1403 H 0.6583 0.68984 0.2011 0.0
H1404 H 0.63389 0.71768 0.28307 0.0
H1405 H 0.59985 0.73421 0.31097 0.0
H1406 H 0.60168 0.7957 0.26754 0.0
H1407 H 0.63439 0.77897 0.23822 0.0
C1408 C 0.76664 0.7486 0.19444 0.0
C1409 C 0.76601 0.77111 0.18571 0.0
C1410 C 0.7437 0.73828 0.20427 0.0
C1411 C 0.71924 0.74989 0.20489 0.0
C1412 C 0.71858 0.77256 0.19698 0.0
C1413 C 0.74173 0.78309 0.18757 0.0
C1414 C 0.69421 0.73788 0.21244 0.0
C1415 C 0.67754 0.74723 0.23111 0.0
C1416 C 0.68696 0.71699 0.20139 0.0
C1417 C 0.70193 0.70725 0.17978 0.0
C1418 C 0.70586 0.71988 0.15744 0.0
C1419 C 0.72008 0.71067 0.13719 0.0
C1420 C 0.73027 0.68878 0.13897 0.0
C1421 C 0.7262 0.67602 0.16099 0.0
C1422 C 0.71203 0.68516 0.18131 0.0
C1423 C 0.57323 0.70165 0.2318 0.0
C1424 C 0.5736 0.67877 0.23872 0.0
C1425 C 0.59717 0.71374 0.22952 0.0
C1426 C 0.62181 0.7031 0.23421 0.0
C1427 C 0.62203 0.68047 0.24231 0.0
C1428 C 0.59806 0.66835 0.24445 0.0
C1429 C 0.64734 0.71496 0.22845 0.0
C1430 C 0.66402 0.70562 0.20994 0.0
C1431 C 0.65407 0.73608 0.23917 0.0
C1432 C 0.63647 0.74694 0.25823 0.0
C1433 C 0.62696 0.73469 0.27933 0.0
C1434 C 0.60771 0.74404 0.29529 0.0
C1435 C 0.59859 0.76601 0.29103 0.0
C1436 C 0.60873 0.77867 0.27078 0.0
C1437 C 0.6275 0.76919 0.25436 0.0
H1438 H 0.58374 0.77325 0.30348 0.0
H1439 H 0.74126 0.68168 0.12327 0.0
H1440 H 0.23286 0.76388 0.33829 0.0
H1441 H 0.25957 0.73726 0.31373 0.0
H1442 H 0.31486 0.79057 0.29406 0.0
H1443 H 0.28838 0.81729 0.31871 0.0
H1444 H 0.30642 0.75921 0.25385 0.0
H1445 H 0.32887 0.75967 0.3433 0.0
H1446 H 0.31822 0.75708 0.38883 0.0
H1447 H 0.28671 0.69026 0.37833 0.0
H1448 H 0.29684 0.69261 0.33264 0.0
H1449 H 0.43052 0.69922 0.2423 0.0
H1450 H 0.39143 0.72383 0.24651 0.0
H1451 H 0.34561 0.66791 0.27669 0.0
H1452 H 0.38503 0.64377 0.27371 0.0
H1453 H 0.34592 0.69982 0.30883 0.0
H1454 H 0.32882 0.69664 0.22033 0.0
H1455 H 0.34039 0.69844 0.17504 0.0
H1456 H 0.36148 0.76841 0.18239 0.0
H1457 H 0.35047 0.76693 0.22791 0.0
C1458 C 0.25059 0.76999 0.32859 0.0
C1459 C 0.25868 0.79265 0.33077 0.0
C1460 C 0.26569 0.7548 0.31437 0.0
C1461 C 0.28929 0.76192 0.30222 0.0
C1462 C 0.29662 0.78477 0.30314 0.0
C1463 C 0.28148 0.8 0.31732 0.0
C1464 C 0.30804 0.74508 0.29151 0.0
C1465 C 0.31519 0.74622 0.26577 0.0
C1466 C 0.31909 0.72795 0.30702 0.0
C1467 C 0.31335 0.72641 0.33454 0.0
C1468 C 0.31951 0.74449 0.35068 0.0
C1469 C 0.31358 0.74306 0.37651 0.0
C1470 C 0.30173 0.72354 0.38646 0.0
C1471 C 0.29585 0.70539 0.3706 0.0
C1472 C 0.30169 0.70675 0.34474 0.0
C1473 C 0.41177 0.69206 0.2489 0.0
C1474 C 0.41071 0.66976 0.25794 0.0
C1475 C 0.3894 0.70612 0.25131 0.0
C1476 C 0.36556 0.69781 0.26219 0.0
C1477 C 0.36382 0.6748 0.26854 0.0
C1478 C 0.38627 0.66097 0.2667 0.0
C1479 C 0.34428 0.7135 0.27089 0.0
C1480 C 0.33686 0.71239 0.29652 0.0
C1481 C 0.33299 0.73044 0.25516 0.0
C1482 C 0.33899 0.73162 0.22763 0.0
C1483 C 0.33607 0.71239 0.21235 0.0
C1484 C 0.34254 0.71335 0.18661 0.0
C1485 C 0.35174 0.73351 0.17583 0.0
C1486 C 0.35437 0.75279 0.19077 0.0
C1487 C 0.34798 0.75191 0.21655 0.0
H1488 H 0.35677 0.73421 0.15591 0.0
H1489 H 0.29715 0.72246 0.40646 0.0
H1490 H 0.25682 0.70398 0.78813 0.0
H1491 H 0.21982 0.72092 0.76415 0.0
H1492 H 0.19001 0.75119 0.83263 0.0
H1493 H 0.22654 0.73402 0.85671 0.0
H1494 H 0.14943 0.73442 0.80408 0.0
H1495 H 0.22959 0.78035 0.79124 0.0
H1496 H 0.27592 0.78715 0.7768 0.0
H1497 H 0.25387 0.76819 0.70122 0.0
H1498 H 0.20748 0.76096 0.71533 0.0
H1499 H 0.10713 0.84805 0.77003 0.0
H1500 H 0.14397 0.82119 0.76901 0.0
H1501 H 0.09159 0.77116 0.73637 0.0
H1502 H 0.0544 0.79832 0.73728 0.0
H1503 H 0.17174 0.79161 0.73829 0.0
H1504 H 0.10044 0.72403 0.77401 0.0
H1505 H 0.05442 0.7201 0.7907 0.0
H1506 H 0.05988 0.786 0.82382 0.0
H1507 H 0.10602 0.79013 0.80763 0.0
C1508 C 0.24209 0.71392 0.79814 0.0
C1509 C 0.24468 0.71775 0.82433 0.0
C1510 C 0.22108 0.72371 0.78437 0.0
C1511 C 0.20226 0.73748 0.79655 0.0
C1512 C 0.20428 0.74064 0.82282 0.0
C1513 C 0.2253 0.73096 0.83654 0.0
C1514 C 0.18112 0.74961 0.78209 0.0
C1515 C 0.1543 0.74659 0.78934 0.0
C1516 C 0.18734 0.76551 0.7628 0.0
C1517 C 0.21521 0.7698 0.75441 0.0
C1518 C 0.2347 0.77743 0.7716 0.0
C1519 C 0.26095 0.7814 0.76347 0.0
C1520 C 0.26786 0.77802 0.73813 0.0
C1521 C 0.24851 0.77073 0.72086 0.0
C1522 C 0.22225 0.76669 0.72891 0.0
C1523 C 0.10373 0.83161 0.76171 0.0
C1524 C 0.07792 0.82508 0.7541 0.0
C1525 C 0.12484 0.81628 0.76103 0.0
C1526 C 0.1204 0.79404 0.75311 0.0
C1527 C 0.09534 0.78821 0.74278 0.0
C1528 C 0.07416 0.80373 0.74322 0.0
C1529 C 0.14022 0.77656 0.76052 0.0
C1530 C 0.16679 0.77871 0.7522 0.0
C1531 C 0.13387 0.75998 0.779 0.0
C1532 C 0.10647 0.75746 0.78938 0.0
C1533 C 0.0918 0.73762 0.78494 0.0
C1534 C 0.06573 0.73536 0.7943 0.0
C1535 C 0.0542 0.75282 0.80824 0.0
C1536 C 0.0688 0.77252 0.81297 0.0
C1537 C 0.0949 0.77482 0.80372 0.0
H1538 H 0.03399 0.75107 0.81541 0.0
H1539 H 0.28819 0.78112 0.73187 0.0
loop_
_geom_bond_atom_site_label_1
_geom_bond_atom_site_label_2
_geom_bond_distance
_geom_bond_site_symmetry_2
_ccdc_geom_bond_type
P0 O11 1.490 . S
P0 C14 1.812 . S
P0 C20 1.803 . S
P0 C26 1.819 . S
H1 C15 0.941 . S
H2 C16 0.939 . S
H3 C18 0.940 . S
H4 C19 0.940 . S
H5 C21 0.939 . S
H6 C22 0.942 . S
H7 C24 0.940 . S
H8 C25 0.939 . S
H9 C27 0.941 . S
H10 C31 0.939 . S
O11 P0 1.490 . S
H12 C28 0.939 . S
H13 C30 0.940 . S
C14 P0 1.812 . S
C14 C15 1.389 . S
C14 C19 1.391 . S
C15 H1 0.941 . S
C15 C14 1.389 . S
C15 C16 1.397 . S
C16 H2 0.939 . S
C16 C15 1.397 . S
C16 C17 1.378 . S
C17 C16 1.378 . S
C17 C18 1.378 . S
C18 H3 0.940 . S
C18 C17 1.378 . S
C18 C19 1.396 . S
C19 H4 0.940 . S
C19 C14 1.391 . S
C19 C18 1.396 . S
C20 P0 1.803 . S
C20 C21 1.378 . S
C20 C25 1.400 . S
C21 H5 0.939 . S
C21 C20 1.378 . S
C21 C22 1.361 . S
C22 H6 0.942 . S
C22 C21 1.361 . S
C22 C23 1.369 . S
C23 C22 1.369 . S
C23 C24 1.404 . S
C24 H7 0.940 . S
C24 C23 1.404 . S
C24 C25 1.389 . S
C25 H8 0.939 . S
C25 C20 1.400 . S
C25 C24 1.389 . S
C26 P0 1.819 . S
C26 C27 1.391 . S
C26 C31 1.391 . S
C27 H9 0.941 . S
C27 C26 1.391 . S
C27 C28 1.396 . S
C28 H12 0.939 . S
C28 C27 1.396 . S
C28 C29 1.397 . S
C29 C28 1.397 . S
C29 C30 1.385 . S
C30 H13 0.940 . S
C30 C29 1.385 . S
C30 C31 1.388 . S
C31 H10 0.939 . S
C31 C26 1.391 . S
C31 C30 1.388 . S
P32 O43 1.490 . S
P32 C46 1.812 . S
P32 C52 1.803 . S
P32 C58 1.819 . S
H33 C47 0.941 . S
H34 C48 0.939 . S
H35 C50 0.940 . S
H36 C51 0.940 . S
H37 C53 0.939 . S
H38 C54 0.942 . S
H39 C56 0.940 . S
H40 C57 0.939 . S
H41 C59 0.941 . S
H42 C63 0.939 . S
O43 P32 1.490 . S
H44 C60 0.939 . S
H45 C62 0.940 . S
C46 P32 1.812 . S
C46 C47 1.389 . S
C46 C51 1.391 . S
C47 H33 0.941 . S
C47 C46 1.389 . S
C47 C48 1.397 . S
C48 H34 0.939 . S
C48 C47 1.397 . S
C48 C49 1.378 . S
C49 C48 1.378 . S
C49 C50 1.378 . S
C50 H35 0.940 . S
C50 C49 1.378 . S
C50 C51 1.396 . S
C51 H36 0.940 . S
C51 C46 1.391 . S
C51 C50 1.396 . S
C52 P32 1.803 . S
C52 C53 1.378 . S
C52 C57 1.400 . S
C53 H37 0.939 . S
C53 C52 1.378 . S
C53 C54 1.361 . S
C54 H38 0.942 . S
C54 C53 1.361 . S
C54 C55 1.369 . S
C55 C54 1.369 . S
C55 C56 1.404 . S
C56 H39 0.940 . S
C56 C55 1.404 . S
C56 C57 1.389 . S
C57 H40 0.939 . S
C57 C52 1.400 . S
C57 C56 1.389 . S
C58 P32 1.819 . S
C58 C59 1.391 . S
C58 C63 1.391 . S
C59 H41 0.941 . S
C59 C58 1.391 . S
C59 C60 1.396 . S
C60 H44 0.939 . S
C60 C59 1.396 . S
C60 C61 1.397 . S
C61 C60 1.397 . S
C61 C62 1.385 . S
C62 H45 0.940 . S
C62 C61 1.385 . S
C62 C63 1.388 . S
C63 H42 0.939 . S
C63 C58 1.391 . S
C63 C62 1.388 . S
P64 O75 1.490 . S
P64 C78 1.812 . S
P64 C84 1.803 . S
P64 C90 1.819 . S
H65 C79 0.941 . S
H66 C80 0.939 . S
H67 C82 0.940 . S
H68 C83 0.940 . S
H69 C85 0.939 . S
H70 C86 0.942 . S
H71 C88 0.940 . S
H72 C89 0.939 . S
H73 C91 0.941 . S
H74 C95 0.939 . S
O75 P64 1.490 . S
H76 C92 0.939 . S
H77 C94 0.940 . S
C78 P64 1.812 . S
C78 C79 1.389 . S
C78 C83 1.391 . S
C79 H65 0.941 . S
C79 C78 1.389 . S
C79 C80 1.397 . S
C80 H66 0.939 . S
C80 C79 1.397 . S
C80 C81 1.378 . S
C81 C80 1.378 . S
C81 C82 1.378 . S
C82 H67 0.940 . S
C82 C81 1.378 . S
C82 C83 1.396 . S
C83 H68 0.940 . S
C83 C78 1.391 . S
C83 C82 1.396 . S
C84 P64 1.803 . S
C84 C85 1.378 . S
C84 C89 1.400 . S
C85 H69 0.939 . S
C85 C84 1.378 . S
C85 C86 1.361 . S
C86 H70 0.942 . S
C86 C85 1.361 . S
C86 C87 1.369 . S
C87 C86 1.369 . S
C87 C88 1.404 . S
C88 H71 0.940 . S
C88 C87 1.404 . S
C88 C89 1.389 . S
C89 H72 0.939 . S
C89 C84 1.400 . S
C89 C88 1.389 . S
C90 P64 1.819 . S
C90 C91 1.391 . S
C90 C95 1.391 . S
C91 H73 0.941 . S
C91 C90 1.391 . S
C91 C92 1.396 . S
C92 H76 0.939 . S
C92 C91 1.396 . S
C92 C93 1.397 . S
C93 C92 1.397 . S
C93 C94 1.385 . S
C94 H77 0.940 . S
C94 C93 1.385 . S
C94 C95 1.388 . S
C95 H74 0.939 . S
C95 C90 1.391 . S
C95 C94 1.388 . S
P96 O107 1.490 . S
P96 C110 1.812 . S
P96 C116 1.803 . S
P96 C122 1.819 . S
H97 C111 0.941 . S
H98 C112 0.939 . S
H99 C114 0.940 . S
H100 C115 0.940 . S
H101 C117 0.939 . S
H102 C118 0.942 . S
H103 C120 0.940 . S
H104 C121 0.939 . S
H105 C123 0.941 . S
H106 C127 0.939 . S
O107 P96 1.490 . S
H108 C124 0.939 . S
H109 C126 0.940 . S
C110 P96 1.812 . S
C110 C111 1.389 . S
C110 C115 1.391 . S
C111 H97 0.941 . S
C111 C110 1.389 . S
C111 C112 1.397 . S
C112 H98 0.939 . S
C112 C111 1.397 . S
C112 C113 1.378 . S
C113 C112 1.378 . S
C113 C114 1.378 . S
C114 H99 0.940 . S
C114 C113 1.378 . S
C114 C115 1.396 . S
C115 H100 0.940 . S
C115 C110 1.391 . S
C115 C114 1.396 . S
C116 P96 1.803 . S
C116 C117 1.378 . S
C116 C121 1.400 . S
C117 H101 0.939 . S
C117 C116 1.378 . S
C117 C118 1.361 . S
C118 H102 0.942 . S
C118 C117 1.361 . S
C118 C119 1.369 . S
C119 C118 1.369 . S
C119 C120 1.404 . S
C120 H103 0.940 . S
C120 C119 1.404 . S
C120 C121 1.389 . S
C121 H104 0.939 . S
C121 C116 1.400 . S
C121 C120 1.389 . S
C122 P96 1.819 . S
C122 C123 1.391 . S
C122 C127 1.391 . S
C123 H105 0.941 . S
C123 C122 1.391 . S
C123 C124 1.396 . S
C124 H108 0.939 . S
C124 C123 1.396 . S
C124 C125 1.397 . S
C125 C124 1.397 . S
C125 C126 1.385 . S
C126 H109 0.940 . S
C126 C125 1.385 . S
C126 C127 1.388 . S
C127 H106 0.939 . S
C127 C122 1.391 . S
C127 C126 1.388 . S
P128 O139 1.490 . S
P128 C142 1.812 . S
P128 C148 1.803 . S
P128 C154 1.819 . S
H129 C143 0.941 . S
H130 C144 0.939 . S
H131 C146 0.940 . S
H132 C147 0.940 . S
H133 C149 0.939 . S
H134 C150 0.942 . S
H135 C152 0.940 . S
H136 C153 0.939 . S
H137 C155 0.941 . S
H138 C159 0.939 . S
O139 P128 1.490 . S
H140 C156 0.939 . S
H141 C158 0.940 . S
C142 P128 1.812 . S
C142 C143 1.389 . S
C142 C147 1.391 . S
C143 H129 0.941 . S
C143 C142 1.389 . S
C143 C144 1.397 . S
C144 H130 0.939 . S
C144 C143 1.397 . S
C144 C145 1.378 . S
C145 C144 1.378 . S
C145 C146 1.378 . S
C146 H131 0.940 . S
C146 C145 1.378 . S
C146 C147 1.396 . S
C147 H132 0.940 . S
C147 C142 1.391 . S
C147 C146 1.396 . S
C148 P128 1.803 . S
C148 C149 1.378 . S
C148 C153 1.400 . S
C149 H133 0.939 . S
C149 C148 1.378 . S
C149 C150 1.361 . S
C150 H134 0.942 . S
C150 C149 1.361 . S
C150 C151 1.369 . S
C151 C150 1.369 . S
C151 C152 1.404 . S
C152 H135 0.940 . S
C152 C151 1.404 . S
C152 C153 1.389 . S
C153 H136 0.939 . S
C153 C148 1.400 . S
C153 C152 1.389 . S
C154 P128 1.819 . S
C154 C155 1.391 . S
C154 C159 1.391 . S
C155 H137 0.941 . S
C155 C154 1.391 . S
C155 C156 1.396 . S
C156 H140 0.939 . S
C156 C155 1.396 . S
C156 C157 1.397 . S
C157 C156 1.397 . S
C157 C158 1.385 . S
C158 H141 0.940 . S
C158 C157 1.385 . S
C158 C159 1.388 . S
C159 H138 0.939 . S
C159 C154 1.391 . S
C159 C158 1.388 . S
P160 O171 1.490 . S
P160 C174 1.812 . S
P160 C180 1.803 . S
P160 C186 1.819 . S
H161 C175 0.941 . S
H162 C176 0.939 . S
H163 C178 0.940 . S
H164 C179 0.940 . S
H165 C181 0.939 . S
H166 C182 0.942 . S
H167 C184 0.940 . S
H168 C185 0.939 . S
H169 C187 0.941 . S
H170 C191 0.939 . S
O171 P160 1.490 . S
H172 C188 0.939 . S
H173 C190 0.940 . S
C174 P160 1.812 . S
C174 C175 1.389 . S
C174 C179 1.391 . S
C175 H161 0.941 . S
C175 C174 1.389 . S
C175 C176 1.397 . S
C176 H162 0.939 . S
C176 C175 1.397 . S
C176 C177 1.378 . S
C177 C176 1.378 . S
C177 C178 1.378 . S
C178 H163 0.940 . S
C178 C177 1.378 . S
C178 C179 1.396 . S
C179 H164 0.940 . S
C179 C174 1.391 . S
C179 C178 1.396 . S
C180 P160 1.803 . S
C180 C181 1.378 . S
C180 C185 1.400 . S
C181 H165 0.939 . S
C181 C180 1.378 . S
C181 C182 1.361 . S
C182 H166 0.942 . S
C182 C181 1.361 . S
C182 C183 1.369 . S
C183 C182 1.369 . S
C183 C184 1.404 . S
C184 H167 0.940 . S
C184 C183 1.404 . S
C184 C185 1.389 . S
C185 H168 0.939 . S
C185 C180 1.400 . S
C185 C184 1.389 . S
C186 P160 1.819 . S
C186 C187 1.391 . S
C186 C191 1.391 . S
C187 H169 0.941 . S
C187 C186 1.391 . S
C187 C188 1.396 . S
C188 H172 0.939 . S
C188 C187 1.396 . S
C188 C189 1.397 . S
C189 C188 1.397 . S
C189 C190 1.385 . S
C190 H173 0.940 . S
C190 C189 1.385 . S
C190 C191 1.388 . S
C191 H170 0.939 . S
C191 C186 1.391 . S
C191 C190 1.388 . S
P192 O203 1.490 . S
P192 C206 1.812 . S
P192 C212 1.803 . S
P192 C218 1.819 . S
H193 C207 0.941 . S
H194 C208 0.939 . S
H195 C210 0.940 . S
H196 C211 0.940 . S
H197 C213 0.939 . S
H198 C214 0.942 . S
H199 C216 0.940 . S
H200 C217 0.939 . S
H201 C219 0.941 . S
H202 C223 0.939 . S
O203 P192 1.490 . S
H204 C220 0.939 . S
H205 C222 0.940 . S
C206 P192 1.812 . S
C206 C207 1.389 . S
C206 C211 1.391 . S
C207 H193 0.941 . S
C207 C206 1.389 . S
C207 C208 1.397 . S
C208 H194 0.939 . S
C208 C207 1.397 . S
C208 C209 1.378 . S
C209 C208 1.378 . S
C209 C210 1.378 . S
C210 H195 0.940 . S
C210 C209 1.378 . S
C210 C211 1.396 . S
C211 H196 0.940 . S
C211 C206 1.391 . S
C211 C210 1.396 . S
C212 P192 1.803 . S
C212 C213 1.378 . S
C212 C217 1.400 . S
C213 H197 0.939 . S
C213 C212 1.378 . S
C213 C214 1.361 . S
C214 H198 0.942 . S
C214 C213 1.361 . S
C214 C215 1.369 . S
C215 C214 1.369 . S
C215 C216 1.404 . S
C216 H199 0.940 . S
C216 C215 1.404 . S
C216 C217 1.389 . S
C217 H200 0.939 . S
C217 C212 1.400 . S
C217 C216 1.389 . S
C218 P192 1.819 . S
C218 C219 1.391 . S
C218 C223 1.391 . S
C219 H201 0.941 . S
C219 C218 1.391 . S
C219 C220 1.396 . S
C220 H204 0.939 . S
C220 C219 1.396 . S
C220 C221 1.397 . S
C221 C220 1.397 . S
C221 C222 1.385 . S
C222 H205 0.940 . S
C222 C221 1.385 . S
C222 C223 1.388 . S
C223 H202 0.939 . S
C223 C218 1.391 . S
C223 C222 1.388 . S
P224 O235 1.490 . S
P224 C238 1.812 . S
P224 C244 1.803 . S
P224 C250 1.819 . S
H225 C239 0.941 . S
H226 C240 0.939 . S
H227 C242 0.940 . S
H228 C243 0.940 . S
H229 C245 0.939 . S
H230 C246 0.942 . S
H231 C248 0.940 . S
H232 C249 0.939 . S
H233 C251 0.941 . S
H234 C255 0.939 . S
O235 P224 1.490 . S
H236 C252 0.939 . S
H237 C254 0.940 . S
C238 P224 1.812 . S
C238 C239 1.389 . S
C238 C243 1.391 . S
C239 H225 0.941 . S
C239 C238 1.389 . S
C239 C240 1.397 . S
C240 H226 0.939 . S
C240 C239 1.397 . S
C240 C241 1.378 . S
C241 C240 1.378 . S
C241 C242 1.378 . S
C242 H227 0.940 . S
C242 C241 1.378 . S
C242 C243 1.396 . S
C243 H228 0.940 . S
C243 C238 1.391 . S
C243 C242 1.396 . S
C244 P224 1.803 . S
C244 C245 1.378 . S
C244 C249 1.400 . S
C245 H229 0.939 . S
C245 C244 1.378 . S
C245 C246 1.361 . S
C246 H230 0.942 . S
C246 C245 1.361 . S
C246 C247 1.369 . S
C247 C246 1.369 . S
C247 C248 1.404 . S
C248 H231 0.940 . S
C248 C247 1.404 . S
C248 C249 1.389 . S
C249 H232 0.939 . S
C249 C244 1.400 . S
C249 C248 1.389 . S
C250 P224 1.819 . S
C250 C251 1.391 . S
C250 C255 1.391 . S
C251 H233 0.941 . S
C251 C250 1.391 . S
C251 C252 1.396 . S
C252 H236 0.939 . S
C252 C251 1.396 . S
C252 C253 1.397 . S
C253 C252 1.397 . S
C253 C254 1.385 . S
C254 H237 0.940 . S
C254 C253 1.385 . S
C254 C255 1.388 . S
C255 H234 0.939 . S
C255 C250 1.391 . S
C255 C254 1.388 . S
Zn256 O262 1.920 . S
Zn256 O268 1.898 . S
Zn256 O271 1.905 . S
Zn257 O265 1.905 1_655 S
Zn257 O266 1.898 . S
Zn257 O274 1.920 . S
Zn258 O261 2.080 1_455 S
Zn258 O264 2.114 . S
Zn258 O267 2.120 1_455 S
Zn258 O269 2.120 . S
Zn258 O270 2.114 . S
Zn258 O273 2.080 1_455 S
C259 O264 1.166 . S
C259 O265 1.182 . S
C260 O266 1.167 . S
C260 O267 1.299 . S
O261 Zn258 2.080 1_655 S
O261 C275 1.305 . S
O262 Zn256 1.920 . S
O262 C275 1.234 1_455 S
C263 O268 1.167 . S
C263 O269 1.299 . S
O264 Zn258 2.114 . S
O264 C259 1.166 . S
O265 Zn257 1.905 1_455 S
O265 C259 1.182 . S
O266 Zn257 1.898 . S
O266 C260 1.167 . S
O267 Zn258 2.120 1_655 S
O267 C260 1.299 . S
O268 Zn256 1.898 . S
O268 C263 1.167 . S
O269 Zn258 2.120 . S
O269 C263 1.299 . S
O270 Zn258 2.114 . S
O270 C272 1.166 . S
O271 Zn256 1.905 . S
O271 C272 1.182 . S
C272 O270 1.166 . S
C272 O271 1.182 . S
O273 Zn258 2.080 1_655 S
O273 C276 1.305 . S
O274 Zn257 1.920 . S
O274 C276 1.234 . S
C275 O261 1.305 . S
C275 O262 1.234 1_655 S
C276 O273 1.305 . S
C276 O274 1.234 . S
Zn277 O283 1.920 . S
Zn277 O289 1.898 . S
Zn277 O292 1.905 . S
Zn278 O286 1.905 . S
Zn278 O287 1.898 . S
Zn278 O295 1.920 . S
Zn279 O282 2.080 . S
Zn279 O285 2.114 . S
Zn279 O288 2.120 . S
Zn279 O290 2.120 . S
Zn279 O291 2.114 . S
Zn279 O294 2.080 . S
C280 O285 1.166 . S
C280 O286 1.182 . S
C281 O287 1.167 . S
C281 O288 1.299 . S
O282 Zn279 2.080 . S
O282 C296 1.305 . S
O283 Zn277 1.920 . S
O283 C296 1.234 . S
C284 O289 1.167 . S
C284 O290 1.299 . S
O285 Zn279 2.114 . S
O285 C280 1.166 . S
O286 Zn278 1.905 . S
O286 C280 1.182 . S
O287 Zn278 1.898 . S
O287 C281 1.167 . S
O288 Zn279 2.120 . S
O288 C281 1.299 . S
O289 Zn277 1.898 . S
O289 C284 1.167 . S
O290 Zn279 2.120 . S
O290 C284 1.299 . S
O291 Zn279 2.114 . S
O291 C293 1.166 . S
O292 Zn277 1.905 . S
O292 C293 1.182 . S
C293 O291 1.166 . S
C293 O292 1.182 . S
O294 Zn279 2.080 . S
O294 C297 1.305 . S
O295 Zn278 1.920 . S
O295 C297 1.234 . S
C296 O282 1.305 . S
C296 O283 1.234 . S
C297 O294 1.305 . S
C297 O295 1.234 . S
Zn298 O304 1.920 . S
Zn298 O310 1.898 . S
Zn298 O313 1.905 1_455 S
Zn299 O307 1.905 . S
Zn299 O308 1.898 . S
Zn299 O316 1.920 1_655 S
Zn300 O303 2.093 . S
Zn300 O306 2.100 1_455 S
Zn300 O309 2.107 1_455 S
Zn300 O311 2.135 . S
Zn300 O312 2.103 1_455 S
Zn300 O315 2.091 . S
C301 O306 1.166 . S
C301 O307 1.182 . S
C302 O308 1.167 . S
C302 O309 1.299 . S
O303 Zn300 2.093 . S
O303 C317 1.305 . S
O304 Zn298 1.920 . S
O304 C317 1.234 . S
C305 O310 1.167 . S
C305 O311 1.299 . S
O306 Zn300 2.100 1_655 S
O306 C301 1.166 . S
O307 Zn299 1.905 . S
O307 C301 1.182 . S
O308 Zn299 1.898 . S
O308 C302 1.167 . S
O309 Zn300 2.107 1_655 S
O309 C302 1.299 . S
O310 Zn298 1.898 . S
O310 C305 1.167 . S
O311 Zn300 2.135 . S
O311 C305 1.299 . S
O312 Zn300 2.103 1_655 S
O312 C314 1.166 . S
O313 Zn298 1.905 1_655 S
O313 C314 1.182 . S
C314 O312 1.166 . S
C314 O313 1.182 . S
O315 Zn300 2.091 . S
O315 C318 1.305 . S
O316 Zn299 1.920 1_455 S
O316 C318 1.234 . S
C317 O303 1.305 . S
C317 O304 1.234 . S
C318 O315 1.305 . S
C318 O316 1.234 . S
Zn319 O325 1.920 . S
Zn319 O331 1.898 . S
Zn319 O334 1.905 . S
Zn320 O328 1.905 . S
Zn320 O329 1.898 . S
Zn320 O337 1.920 . S
Zn321 O324 2.080 . S
Zn321 O327 2.114 . S
Zn321 O330 2.120 . S
Zn321 O332 2.120 . S
Zn321 O333 2.114 . S
Zn321 O336 2.080 . S
C322 O327 1.166 . S
C322 O328 1.182 . S
C323 O329 1.167 . S
C323 O330 1.299 . S
O324 Zn321 2.080 . S
O324 C338 1.305 . S
O325 Zn319 1.920 . S
O325 C338 1.234 . S
C326 O331 1.167 . S
C326 O332 1.299 . S
O327 Zn321 2.114 . S
O327 C322 1.166 . S
O328 Zn320 1.905 . S
O328 C322 1.182 . S
O329 Zn320 1.898 . S
O329 C323 1.167 . S
O330 Zn321 2.120 . S
O330 C323 1.299 . S
O331 Zn319 1.898 . S
O331 C326 1.167 . S
O332 Zn321 2.120 . S
O332 C326 1.299 . S
O333 Zn321 2.114 . S
O333 C335 1.166 . S
O334 Zn319 1.905 . S
O334 C335 1.182 . S
C335 O333 1.166 . S
C335 O334 1.182 . S
O336 Zn321 2.080 . S
O336 C339 1.305 . S
O337 Zn320 1.920 . S
O337 C339 1.234 . S
C338 O324 1.305 . S
C338 O325 1.234 . S
C339 O336 1.305 . S
C339 O337 1.234 . S
H340 C358 0.951 . S
H341 C360 0.951 . S
H342 C362 0.950 . S
H343 C363 0.950 . S
H344 C365 0.950 . S
H345 C368 0.950 . S
H346 C369 0.950 . S
H347 C371 0.950 . S
H348 C372 0.950 . S
H349 C373 0.951 . S
H350 C375 0.951 . S
H351 C377 0.950 . S
H352 C378 0.950 . S
H353 C380 0.950 . S
H354 C383 0.950 . S
H355 C384 0.950 . S
H356 C386 0.950 1_655 S
H357 C387 0.950 . S
C358 H340 0.951 . S
C358 C359 1.366 . S
C358 C360 1.388 . S
C359 C358 1.366 . S
C359 C363 1.385 . S
C360 H341 0.951 . S
C360 C358 1.388 . S
C360 C361 1.366 . S
C361 C360 1.366 . S
C361 C362 1.414 . S
C361 C364 1.499 . S
C362 H342 0.950 . S
C362 C361 1.414 . S
C362 C363 1.374 . S
C363 H343 0.950 . S
C363 C359 1.385 . S
C363 C362 1.374 . S
C364 C361 1.499 . S
C364 C365 1.373 . S
C364 C366 1.389 1_565 S
C365 H344 0.950 . S
C365 C364 1.373 . S
C365 C381 1.377 1_565 S
C366 C364 1.389 1_545 S
C366 C367 1.524 . S
C366 C380 1.377 . S
C367 C366 1.524 . S
C367 C368 1.397 1_545 S
C367 C372 1.363 . S
C368 H345 0.950 . S
C368 C367 1.397 1_565 S
C368 C369 1.334 . S
C369 H346 0.950 . S
C369 C368 1.334 . S
C369 C370 1.287 1_565 S
C370 C369 1.287 1_545 S
C370 C371 1.524 . S
C370 H389 0.913 . S
C371 H347 0.950 . S
C371 C370 1.524 . S
C371 C372 1.415 . S
C372 H348 0.950 . S
C372 C367 1.363 . S
C372 C371 1.415 . S
C373 H349 0.951 . S
C373 C374 1.366 . S
C373 C375 1.388 . S
C374 C373 1.366 . S
C374 C378 1.385 . S
C375 H350 0.951 . S
C375 C373 1.388 . S
C375 C376 1.366 . S
C376 C375 1.366 . S
C376 C377 1.414 . S
C376 C379 1.499 . S
C377 H351 0.950 . S
C377 C376 1.414 . S
C377 C378 1.374 . S
C378 H352 0.950 . S
C378 C374 1.385 . S
C378 C377 1.374 . S
C379 C376 1.499 . S
C379 C380 1.373 . S
C379 C381 1.389 . S
C380 H353 0.950 . S
C380 C366 1.377 . S
C380 C379 1.373 . S
C381 C365 1.377 1_545 S
C381 C379 1.389 . S
C381 C382 1.522 1_545 S
C382 C381 1.522 1_565 S
C382 C383 1.377 1_565 S
C382 C387 1.389 . S
C383 H354 0.950 . S
C383 C382 1.377 1_545 S
C383 C384 1.334 . S
C384 H355 0.950 . S
C384 C383 1.334 . S
C384 C385 1.287 1_545 S
C385 C384 1.287 1_565 S
C385 C386 1.524 . S
C385 H388 0.999 . S
C386 H356 0.950 1_455 S
C386 C385 1.524 . S
C386 C387 1.415 . S
C387 H357 0.950 . S
C387 C382 1.389 . S
C387 C386 1.415 . S
H388 C385 0.999 . S
H389 C370 0.913 . S
H390 C408 0.951 . S
H391 C410 0.951 . S
H392 C412 0.950 . S
H393 C413 0.950 . S
H394 C415 0.950 . S
H395 C418 0.950 . S
H396 C419 0.950 . S
H397 C421 0.950 . S
H398 C422 0.950 . S
H399 C423 0.951 . S
H400 C425 0.951 . S
H401 C427 0.950 . S
H402 C428 0.950 . S
H403 C430 0.950 . S
H404 C433 0.950 . S
H405 C434 0.950 . S
H406 C436 0.950 . S
H407 C437 0.950 . S
C408 H390 0.951 . S
C408 C409 1.366 . S
C408 C410 1.388 . S
C409 C408 1.366 . S
C409 C413 1.385 . S
C410 H391 0.951 . S
C410 C408 1.388 . S
C410 C411 1.366 . S
C411 C410 1.366 . S
C411 C412 1.414 . S
C411 C414 1.499 . S
C412 H392 0.950 . S
C412 C411 1.414 . S
C412 C413 1.374 . S
C413 H393 0.950 . S
C413 C409 1.385 . S
C413 C412 1.374 . S
C414 C411 1.499 . S
C414 C415 1.373 . S
C414 C416 1.389 . S
C415 H394 0.950 . S
C415 C414 1.373 . S
C415 C431 1.377 . S
C416 C414 1.389 . S
C416 C417 1.524 . S
C416 C430 1.377 . S
C417 C416 1.524 . S
C417 C418 1.397 . S
C417 C422 1.363 . S
C418 H395 0.950 . S
C418 C417 1.397 . S
C418 C419 1.334 . S
C419 H396 0.950 . S
C419 C418 1.334 . S
C419 C420 1.287 . S
C420 C419 1.287 . S
C420 C421 1.524 . S
C420 H439 0.913 . S
C421 H397 0.950 . S
C421 C420 1.524 . S
C421 C422 1.415 . S
C422 H398 0.950 . S
C422 C417 1.363 . S
C422 C421 1.415 . S
C423 H399 0.951 . S
C423 C424 1.366 . S
C423 C425 1.388 . S
C424 C423 1.366 . S
C424 C428 1.385 . S
C425 H400 0.951 . S
C425 C423 1.388 . S
C425 C426 1.366 . S
C426 C425 1.366 . S
C426 C427 1.414 . S
C426 C429 1.499 . S
C427 H401 0.950 . S
C427 C426 1.414 . S
C427 C428 1.374 . S
C428 H402 0.950 . S
C428 C424 1.385 . S
C428 C427 1.374 . S
C429 C426 1.499 . S
C429 C430 1.373 . S
C429 C431 1.389 . S
C430 H403 0.950 . S
C430 C416 1.377 . S
C430 C429 1.373 . S
C431 C415 1.377 . S
C431 C429 1.389 . S
C431 C432 1.524 . S
C432 C431 1.524 . S
C432 C433 1.397 . S
C432 C437 1.363 . S
C433 H404 0.950 . S
C433 C432 1.397 . S
C433 C434 1.334 . S
C434 H405 0.950 . S
C434 C433 1.334 . S
C434 C435 1.287 . S
C435 C434 1.287 . S
C435 C436 1.524 . S
C435 H438 0.999 . S
C436 H406 0.950 . S
C436 C435 1.524 . S
C436 C437 1.415 . S
C437 H407 0.950 . S
C437 C432 1.363 . S
C437 C436 1.415 . S
H438 C435 0.999 . S
H439 C420 0.913 . S
H440 C458 0.951 . S
H441 C460 0.951 . S
H442 C462 0.950 . S
H443 C463 0.950 . S
H444 C465 0.950 . S
H445 C468 0.950 . S
H446 C469 0.950 . S
H447 C471 0.950 . S
H448 C472 0.950 . S
H449 C473 0.951 . S
H450 C475 0.951 . S
H451 C477 0.950 . S
H452 C478 0.950 . S
H453 C480 0.950 . S
H454 C483 0.950 . S
H455 C484 0.950 . S
H456 C486 0.950 . S
H457 C487 0.950 . S
C458 H440 0.951 . S
C458 C459 1.366 . S
C458 C460 1.388 . S
C459 C458 1.366 . S
C459 C463 1.385 . S
C460 H441 0.951 . S
C460 C458 1.388 . S
C460 C461 1.366 . S
C461 C460 1.366 . S
C461 C462 1.414 . S
C461 C464 1.499 . S
C462 H442 0.950 . S
C462 C461 1.414 . S
C462 C463 1.374 . S
C463 H443 0.950 . S
C463 C459 1.385 . S
C463 C462 1.374 . S
C464 C461 1.499 . S
C464 C465 1.373 . S
C464 C466 1.389 . S
C465 H444 0.950 . S
C465 C464 1.373 . S
C465 C481 1.377 . S
C466 C464 1.389 . S
C466 C467 1.524 . S
C466 C480 1.377 . S
C467 C466 1.524 . S
C467 C468 1.397 . S
C467 C472 1.363 . S
C468 H445 0.950 . S
C468 C467 1.397 . S
C468 C469 1.334 . S
C469 H446 0.950 . S
C469 C468 1.334 . S
C469 C470 1.287 . S
C470 C469 1.287 . S
C470 C471 1.524 . S
C470 H489 0.913 . S
C471 H447 0.950 . S
C471 C470 1.524 . S
C471 C472 1.415 . S
C472 H448 0.950 . S
C472 C467 1.363 . S
C472 C471 1.415 . S
C473 H449 0.951 . S
C473 C474 1.366 . S
C473 C475 1.388 . S
C474 C473 1.366 . S
C474 C478 1.385 . S
C475 H450 0.951 . S
C475 C473 1.388 . S
C475 C476 1.366 . S
C476 C475 1.366 . S
C476 C477 1.414 . S
C476 C479 1.499 . S
C477 H451 0.950 . S
C477 C476 1.414 . S
C477 C478 1.374 . S
C478 H452 0.950 . S
C478 C474 1.385 . S
C478 C477 1.374 . S
C479 C476 1.499 . S
C479 C480 1.373 . S
C479 C481 1.389 . S
C480 H453 0.950 . S
C480 C466 1.377 . S
C480 C479 1.373 . S
C481 C465 1.377 . S
C481 C479 1.389 . S
C481 C482 1.524 . S
C482 C481 1.524 . S
C482 C483 1.397 . S
C482 C487 1.363 . S
C483 H454 0.950 . S
C483 C482 1.397 . S
C483 C484 1.334 . S
C484 H455 0.950 . S
C484 C483 1.334 . S
C484 C485 1.287 . S
C485 C484 1.287 . S
C485 C486 1.524 . S
C485 H488 0.999 . S
C486 H456 0.950 . S
C486 C485 1.524 . S
C486 C487 1.415 . S
C487 H457 0.950 . S
C487 C482 1.363 . S
C487 C486 1.415 . S
H488 C485 0.999 . S
H489 C470 0.913 . S
H490 C508 0.951 . S
H491 C510 0.951 . S
H492 C512 0.950 . S
H493 C513 0.950 . S
H494 C515 0.950 . S
H495 C518 0.950 . S
H496 C519 0.950 . S
H497 C521 0.950 . S
H498 C522 0.950 . S
H499 C523 0.951 1_455 S
H500 C525 0.951 . S
H501 C527 0.950 . S
H502 C528 0.950 . S
H503 C530 0.950 . S
H504 C533 0.950 . S
H505 C534 0.950 . S
H506 C536 0.950 1_455 S
H507 C537 0.950 . S
C508 H490 0.951 . S
C508 C509 1.366 . S
C508 C510 1.388 . S
C509 C508 1.366 . S
C509 C513 1.385 . S
C510 H491 0.951 . S
C510 C508 1.388 . S
C510 C511 1.366 . S
C511 C510 1.366 . S
C511 C512 1.414 . S
C511 C514 1.499 . S
C512 H492 0.950 . S
C512 C511 1.414 . S
C512 C513 1.374 . S
C513 H493 0.950 . S
C513 C509 1.385 . S
C513 C512 1.374 . S
C514 C511 1.499 . S
C514 C515 1.373 . S
C514 C516 1.389 1_565 S
C515 H494 0.950 . S
C515 C514 1.373 . S
C515 C531 1.377 1_565 S
C516 C514 1.389 1_545 S
C516 C517 1.524 . S
C516 C530 1.377 . S
C517 C516 1.524 . S
C517 C518 1.397 1_545 S
C517 C522 1.363 . S
C518 H495 0.950 . S
C518 C517 1.397 1_565 S
C518 C519 1.334 . S
C519 H496 0.950 . S
C519 C518 1.334 . S
C519 C520 1.287 1_565 S
C520 C519 1.287 1_545 S
C520 C521 1.524 . S
C520 H539 0.913 . S
C521 H497 0.950 . S
C521 C520 1.524 . S
C521 C522 1.415 . S
C522 H498 0.950 . S
C522 C517 1.363 . S
C522 C521 1.415 . S
C523 H499 0.951 1_655 S
C523 C524 1.366 . S
C523 C525 1.388 . S
C524 C523 1.366 . S
C524 C528 1.385 . S
C525 H500 0.951 . S
C525 C523 1.388 . S
C525 C526 1.366 . S
C526 C525 1.366 . S
C526 C527 1.414 . S
C526 C529 1.499 . S
C527 H501 0.950 . S
C527 C526 1.414 . S
C527 C528 1.374 . S
C528 H502 0.950 . S
C528 C524 1.385 . S
C528 C527 1.374 . S
C529 C526 1.499 . S
C529 C530 1.373 . S
C529 C531 1.389 . S
C530 H503 0.950 . S
C530 C516 1.377 . S
C530 C529 1.373 . S
C531 C515 1.377 1_545 S
C531 C529 1.389 . S
C531 C532 1.529 . S
C532 C531 1.529 . S
C532 C533 1.416 . S
C532 C537 1.338 1_545 S
C533 H504 0.950 . S
C533 C532 1.416 . S
C533 C534 1.334 . S
C534 H505 0.950 . S
C534 C533 1.334 . S
C534 C535 1.287 1_545 S
C535 C534 1.287 1_565 S
C535 C536 1.524 . S
C535 H538 0.999 . S
C536 H506 0.950 1_655 S
C536 C535 1.524 . S
C536 C537 1.415 . S
C537 H507 0.950 . S
C537 C532 1.338 1_565 S
C537 C536 1.415 . S
H538 C535 0.999 . S
H539 C520 0.913 . S
H540 C558 0.951 . S
H541 C560 0.951 . S
H542 C562 0.950 . S
H543 C563 0.950 . S
H544 C565 0.950 1_545 S
H545 C568 0.950 . S
H546 C569 0.950 . S
H547 C571 0.950 . S
H548 C572 0.950 . S
H549 C573 0.951 . S
H550 C575 0.951 . S
H551 C577 0.950 . S
H552 C578 0.950 . S
H553 C580 0.950 . S
H554 C583 0.950 . S
H555 C584 0.950 . S
H556 C586 0.950 . S
H557 C587 0.950 . S
C558 H540 0.951 . S
C558 C559 1.366 . S
C558 C560 1.388 . S
C559 C558 1.366 . S
C559 C563 1.385 . S
C560 H541 0.951 . S
C560 C558 1.388 . S
C560 C561 1.366 . S
C561 C560 1.366 . S
C561 C562 1.414 . S
C561 C564 1.499 . S
C562 H542 0.950 . S
C562 C561 1.414 . S
C562 C563 1.374 . S
C563 H543 0.950 . S
C563 C559 1.385 . S
C563 C562 1.374 . S
C564 C561 1.499 . S
C564 C565 1.378 1_545 S
C564 C566 1.389 . S
C565 H544 0.950 1_565 S
C565 C564 1.378 1_565 S
C565 C581 1.371 . S
C566 C564 1.389 . S
C566 C567 1.524 . S
C566 C580 1.377 1_545 S
C567 C566 1.524 . S
C567 C568 1.397 . S
C567 C572 1.363 . S
C568 H545 0.950 . S
C568 C567 1.397 . S
C568 C569 1.334 . S
C569 H546 0.950 . S
C569 C568 1.334 . S
C569 C570 1.287 . S
C570 C569 1.287 . S
C570 C571 1.524 . S
C570 H589 0.913 . S
C571 H547 0.950 . S
C571 C570 1.524 . S
C571 C572 1.415 . S
C572 H548 0.950 . S
C572 C567 1.363 . S
C572 C571 1.415 . S
C573 H549 0.951 . S
C573 C574 1.366 . S
C573 C575 1.388 . S
C574 C573 1.366 . S
C574 C578 1.385 . S
C575 H550 0.951 . S
C575 C573 1.388 . S
C575 C576 1.366 . S
C576 C575 1.366 . S
C576 C577 1.414 . S
C576 C579 1.499 . S
C577 H551 0.950 . S
C577 C576 1.414 . S
C577 C578 1.374 . S
C578 H552 0.950 . S
C578 C574 1.385 . S
C578 C577 1.374 . S
C579 C576 1.499 . S
C579 C580 1.373 . S
C579 C581 1.389 . S
C580 H553 0.950 . S
C580 C566 1.377 1_565 S
C580 C579 1.373 . S
C581 C565 1.371 . S
C581 C579 1.389 . S
C581 C582 1.524 . S
C582 C581 1.524 . S
C582 C583 1.397 . S
C582 C587 1.363 . S
C583 H554 0.950 . S
C583 C582 1.397 . S
C583 C584 1.334 . S
C584 H555 0.950 . S
C584 C583 1.334 . S
C584 C585 1.287 . S
C585 C584 1.287 . S
C585 C586 1.524 . S
C585 H588 0.999 . S
C586 H556 0.950 . S
C586 C585 1.524 . S
C586 C587 1.415 . S
C587 H557 0.950 . S
C587 C582 1.363 . S
C587 C586 1.415 . S
H588 C585 0.999 . S
H589 C570 0.913 . S
H590 C608 0.951 . S
H591 C610 0.951 . S
H592 C612 0.950 . S
H593 C613 0.950 . S
H594 C615 0.950 . S
H595 C618 0.950 . S
H596 C619 0.950 . S
H597 C621 0.950 . S
H598 C622 0.950 . S
H599 C623 0.951 . S
H600 C625 0.951 . S
H601 C627 0.950 . S
H602 C628 0.950 . S
H603 C630 0.950 . S
H604 C633 0.950 . S
H605 C634 0.950 . S
H606 C636 0.950 . S
H607 C637 0.950 . S
C608 H590 0.951 . S
C608 C609 1.366 . S
C608 C610 1.388 . S
C609 C608 1.366 . S
C609 C613 1.385 . S
C610 H591 0.951 . S
C610 C608 1.388 . S
C610 C611 1.366 . S
C611 C610 1.366 . S
C611 C612 1.414 . S
C611 C614 1.499 . S
C612 H592 0.950 . S
C612 C611 1.414 . S
C612 C613 1.374 . S
C613 H593 0.950 . S
C613 C609 1.385 . S
C613 C612 1.374 . S
C614 C611 1.499 . S
C614 C615 1.373 . S
C614 C616 1.389 . S
C615 H594 0.950 . S
C615 C614 1.373 . S
C615 C631 1.377 . S
C616 C614 1.389 . S
C616 C617 1.524 . S
C616 C630 1.377 . S
C617 C616 1.524 . S
C617 C618 1.397 . S
C617 C622 1.363 . S
C618 H595 0.950 . S
C618 C617 1.397 . S
C618 C619 1.334 . S
C619 H596 0.950 . S
C619 C618 1.334 . S
C619 C620 1.287 . S
C620 C619 1.287 . S
C620 C621 1.524 . S
C620 H639 0.913 . S
C621 H597 0.950 . S
C621 C620 1.524 . S
C621 C622 1.415 . S
C622 H598 0.950 . S
C622 C617 1.363 . S
C622 C621 1.415 . S
C623 H599 0.951 . S
C623 C624 1.366 . S
C623 C625 1.388 . S
C624 C623 1.366 . S
C624 C628 1.385 . S
C625 H600 0.951 . S
C625 C623 1.388 . S
C625 C626 1.366 . S
C626 C625 1.366 . S
C626 C627 1.414 . S
C626 C629 1.499 . S
C627 H601 0.950 . S
C627 C626 1.414 . S
C627 C628 1.374 . S
C628 H602 0.950 . S
C628 C624 1.385 . S
C628 C627 1.374 . S
C629 C626 1.499 . S
C629 C630 1.373 . S
C629 C631 1.389 . S
C630 H603 0.950 . S
C630 C616 1.377 . S
C630 C629 1.373 . S
C631 C615 1.377 . S
C631 C629 1.389 . S
C631 C632 1.524 . S
C632 C631 1.524 . S
C632 C633 1.397 . S
C632 C637 1.363 . S
C633 H604 0.950 . S
C633 C632 1.397 . S
C633 C634 1.334 . S
C634 H605 0.950 . S
C634 C633 1.334 . S
C634 C635 1.287 . S
C635 C634 1.287 . S
C635 C636 1.524 . S
C635 H638 0.999 . S
C636 H606 0.950 . S
C636 C635 1.524 . S
C636 C637 1.415 . S
C637 H607 0.950 . S
C637 C632 1.363 . S
C637 C636 1.415 . S
H638 C635 0.999 . S
H639 C620 0.913 . S
H640 C658 0.951 . S
H641 C660 0.951 . S
H642 C662 0.950 . S
H643 C663 0.950 . S
H644 C665 0.950 . S
H645 C668 0.950 . S
H646 C669 0.950 . S
H647 C671 0.950 . S
H648 C672 0.950 . S
H649 C673 0.951 . S
H650 C675 0.951 . S
H651 C677 0.950 . S
H652 C678 0.950 . S
H653 C680 0.950 . S
H654 C683 0.950 . S
H655 C684 0.950 . S
H656 C686 0.950 . S
H657 C687 0.950 . S
C658 H640 0.951 . S
C658 C659 1.366 . S
C658 C660 1.388 . S
C659 C658 1.366 . S
C659 C663 1.385 . S
C660 H641 0.951 . S
C660 C658 1.388 . S
C660 C661 1.366 . S
C661 C660 1.366 . S
C661 C662 1.414 . S
C661 C664 1.499 . S
C662 H642 0.950 . S
C662 C661 1.414 . S
C662 C663 1.374 . S
C663 H643 0.950 . S
C663 C659 1.385 . S
C663 C662 1.374 . S
C664 C661 1.499 . S
C664 C665 1.373 . S
C664 C666 1.389 . S
C665 H644 0.950 . S
C665 C664 1.373 . S
C665 C681 1.377 . S
C666 C664 1.389 . S
C666 C667 1.524 . S
C666 C680 1.377 . S
C667 C666 1.524 . S
C667 C668 1.397 . S
C667 C672 1.363 . S
C668 H645 0.950 . S
C668 C667 1.397 . S
C668 C669 1.334 . S
C669 H646 0.950 . S
C669 C668 1.334 . S
C669 C670 1.287 . S
C670 C669 1.287 . S
C670 C671 1.524 . S
C670 H689 0.913 . S
C671 H647 0.950 . S
C671 C670 1.524 . S
C671 C672 1.415 . S
C672 H648 0.950 . S
C672 C667 1.363 . S
C672 C671 1.415 . S
C673 H649 0.951 . S
C673 C674 1.366 . S
C673 C675 1.388 . S
C674 C673 1.366 . S
C674 C678 1.385 . S
C675 H650 0.951 . S
C675 C673 1.388 . S
C675 C676 1.366 . S
C676 C675 1.366 . S
C676 C677 1.414 . S
C676 C679 1.499 . S
C677 H651 0.950 . S
C677 C676 1.414 . S
C677 C678 1.374 . S
C678 H652 0.950 . S
C678 C674 1.385 . S
C678 C677 1.374 . S
C679 C676 1.499 . S
C679 C680 1.373 . S
C679 C681 1.389 . S
C680 H653 0.950 . S
C680 C666 1.377 . S
C680 C679 1.373 . S
C681 C665 1.377 . S
C681 C679 1.389 . S
C681 C682 1.524 . S
C682 C681 1.524 . S
C682 C683 1.397 . S
C682 C687 1.363 . S
C683 H654 0.950 . S
C683 C682 1.397 . S
C683 C684 1.334 . S
C684 H655 0.950 . S
C684 C683 1.334 . S
C684 C685 1.287 . S
C685 C684 1.287 . S
C685 C686 1.524 . S
C685 H688 0.999 . S
C686 H656 0.950 . S
C686 C685 1.524 . S
C686 C687 1.415 . S
C687 H657 0.950 . S
C687 C682 1.363 . S
C687 C686 1.415 . S
H688 C685 0.999 . S
H689 C670 0.913 . S
H690 C708 0.951 . S
H691 C710 0.951 . S
H692 C712 0.950 . S
H693 C713 0.950 . S
H694 C715 0.951 . S
H695 C718 0.950 . S
H696 C719 0.950 . S
H697 C721 0.940 1_655 S
H698 C722 0.950 . S
H699 C723 0.951 . S
H700 C725 0.951 . S
H701 C727 0.950 . S
H702 C728 0.950 . S
H703 C730 0.950 . S
H704 C733 0.950 . S
H705 C734 0.950 . S
H706 C736 0.950 . S
H707 C737 0.950 . S
C708 H690 0.951 . S
C708 C709 1.366 . S
C708 C710 1.388 . S
C709 C708 1.366 . S
C709 C713 1.385 . S
C710 H691 0.951 . S
C710 C708 1.388 . S
C710 C711 1.366 . S
C711 C710 1.366 . S
C711 C712 1.414 . S
C711 C714 1.499 . S
C712 H692 0.950 . S
C712 C711 1.414 . S
C712 C713 1.374 . S
C713 H693 0.950 . S
C713 C709 1.385 . S
C713 C712 1.374 . S
C714 C711 1.499 . S
C714 C715 1.373 1_545 S
C714 C716 1.389 . S
C715 H694 0.951 . S
C715 C714 1.373 1_565 S
C715 C731 1.377 . S
C716 C714 1.389 . S
C716 C717 1.524 . S
C716 C730 1.377 1_545 S
C717 C716 1.524 . S
C717 C718 1.397 . S
C717 C722 1.363 . S
C718 H695 0.950 . S
C718 C717 1.397 . S
C718 C719 1.334 . S
C719 H696 0.950 . S
C719 C718 1.334 . S
C719 C720 1.287 . S
C720 C719 1.287 . S
C720 C721 1.524 . S
C720 H739 0.913 . S
C721 H697 0.940 1_455 S
C721 C720 1.524 . S
C721 C722 1.415 . S
C722 H698 0.950 . S
C722 C717 1.363 . S
C722 C721 1.415 . S
C723 H699 0.951 . S
C723 C724 1.366 . S
C723 C725 1.388 . S
C724 C723 1.366 . S
C724 C728 1.385 . S
C725 H700 0.951 . S
C725 C723 1.388 . S
C725 C726 1.366 . S
C726 C725 1.366 . S
C726 C727 1.414 . S
C726 C729 1.499 . S
C727 H701 0.950 . S
C727 C726 1.414 . S
C727 C728 1.374 . S
C728 H702 0.950 . S
C728 C724 1.385 . S
C728 C727 1.374 . S
C729 C726 1.499 . S
C729 C730 1.373 . S
C729 C731 1.389 . S
C730 H703 0.950 . S
C730 C716 1.377 1_565 S
C730 C729 1.373 . S
C731 C715 1.377 . S
C731 C729 1.389 . S
C731 C732 1.524 . S
C732 C731 1.524 . S
C732 C733 1.397 . S
C732 C737 1.363 . S
C733 H704 0.950 . S
C733 C732 1.397 . S
C733 C734 1.334 . S
C734 H705 0.950 . S
C734 C733 1.334 . S
C734 C735 1.287 . S
C735 C734 1.287 . S
C735 C736 1.524 . S
C735 H738 0.999 . S
C736 H706 0.950 . S
C736 C735 1.524 . S
C736 C737 1.415 . S
C737 H707 0.950 . S
C737 C732 1.363 . S
C737 C736 1.415 . S
H738 C735 0.999 . S
H739 C720 0.913 . S
H740 C758 0.951 . S
H741 C760 0.951 . S
H742 C762 0.950 . S
H743 C763 0.950 1_556 S
H744 C765 0.950 . S
H745 C768 0.950 . S
H746 C769 0.950 1_556 S
H747 C771 0.950 . S
H748 C772 0.950 . S
H749 C773 0.951 . S
H750 C775 0.951 . S
H751 C777 0.950 . S
H752 C778 0.950 . S
H753 C780 0.950 . S
H754 C783 0.950 . S
H755 C784 0.950 . S
H756 C786 0.950 . S
H757 C787 0.950 . S
C758 H740 0.951 . S
C758 C759 1.366 . S
C758 C760 1.388 1_556 S
C759 C758 1.366 . S
C759 C763 1.385 1_556 S
C760 H741 0.951 . S
C760 C758 1.388 1_554 S
C760 C761 1.366 . S
C761 C760 1.366 . S
C761 C762 1.414 . S
C761 C764 1.499 . S
C762 H742 0.950 . S
C762 C761 1.414 . S
C762 C763 1.374 . S
C763 H743 0.950 1_554 S
C763 C759 1.385 1_554 S
C763 C762 1.374 . S
C764 C761 1.499 . S
C764 C765 1.373 . S
C764 C766 1.389 . S
C765 H744 0.950 . S
C765 C764 1.373 . S
C765 C781 1.377 . S
C766 C764 1.389 . S
C766 C767 1.524 . S
C766 C780 1.377 . S
C767 C766 1.524 . S
C767 C768 1.397 . S
C767 C772 1.363 . S
C768 H745 0.950 . S
C768 C767 1.397 . S
C768 C769 1.334 . S
C769 H746 0.950 1_554 S
C769 C768 1.334 . S
C769 C770 1.287 . S
C770 C769 1.287 . S
C770 C771 1.524 . S
C770 H789 0.913 1_554 S
C771 H747 0.950 . S
C771 C770 1.524 . S
C771 C772 1.415 . S
C772 H748 0.950 . S
C772 C767 1.363 . S
C772 C771 1.415 . S
C773 H749 0.951 . S
C773 C774 1.366 . S
C773 C775 1.388 . S
C774 C773 1.366 . S
C774 C778 1.385 . S
C775 H750 0.951 . S
C775 C773 1.388 . S
C775 C776 1.366 . S
C776 C775 1.366 . S
C776 C777 1.414 . S
C776 C779 1.499 . S
C777 H751 0.950 . S
C777 C776 1.414 . S
C777 C778 1.374 . S
C778 H752 0.950 . S
C778 C774 1.385 . S
C778 C777 1.374 . S
C779 C776 1.499 . S
C779 C780 1.373 . S
C779 C781 1.389 . S
C780 H753 0.950 . S
C780 C766 1.377 . S
C780 C779 1.373 . S
C781 C765 1.377 . S
C781 C779 1.389 . S
C781 C782 1.524 . S
C782 C781 1.524 . S
C782 C783 1.397 . S
C782 C787 1.363 . S
C783 H754 0.950 . S
C783 C782 1.397 . S
C783 C784 1.334 . S
C784 H755 0.950 . S
C784 C783 1.334 . S
C784 C785 1.287 . S
C785 C784 1.287 . S
C785 C786 1.524 . S
C785 H788 0.999 . S
C786 H756 0.950 . S
C786 C785 1.524 . S
C786 C787 1.415 . S
C787 H757 0.950 . S
C787 C782 1.363 . S
C787 C786 1.415 . S
H788 C785 0.999 . S
H789 C770 0.913 1_556 S
H790 C808 0.951 . S
H791 C810 0.951 . S
H792 C812 0.950 . S
H793 C813 0.950 . S
H794 C815 0.950 . S
H795 C818 0.950 . S
H796 C819 0.950 . S
H797 C821 0.950 . S
H798 C822 0.950 . S
H799 C823 0.951 . S
H800 C825 0.951 . S
H801 C827 0.950 . S
H802 C828 0.950 . S
H803 C830 0.950 . S
H804 C833 0.950 . S
H805 C834 0.950 . S
H806 C836 0.950 . S
H807 C837 0.950 . S
C808 H790 0.951 . S
C808 C809 1.366 . S
C808 C810 1.388 . S
C809 C808 1.366 . S
C809 C813 1.385 . S
C810 H791 0.951 . S
C810 C808 1.388 . S
C810 C811 1.366 . S
C811 C810 1.366 . S
C811 C812 1.414 . S
C811 C814 1.499 . S
C812 H792 0.950 . S
C812 C811 1.414 . S
C812 C813 1.374 . S
C813 H793 0.950 . S
C813 C809 1.385 . S
C813 C812 1.374 . S
C814 C811 1.499 . S
C814 C815 1.373 . S
C814 C816 1.389 . S
C815 H794 0.950 . S
C815 C814 1.373 . S
C815 C831 1.377 . S
C816 C814 1.389 . S
C816 C817 1.524 . S
C816 C830 1.377 . S
C817 C816 1.524 . S
C817 C818 1.397 . S
C817 C822 1.363 . S
C818 H795 0.950 . S
C818 C817 1.397 . S
C818 C819 1.334 . S
C819 H796 0.950 . S
C819 C818 1.334 . S
C819 C820 1.287 . S
C820 C819 1.287 . S
C820 C821 1.524 . S
C820 H839 0.913 . S
C821 H797 0.950 . S
C821 C820 1.524 . S
C821 C822 1.415 . S
C822 H798 0.950 . S
C822 C817 1.363 . S
C822 C821 1.415 . S
C823 H799 0.951 . S
C823 C824 1.366 . S
C823 C825 1.388 . S
C824 C823 1.366 . S
C824 C828 1.385 . S
C825 H800 0.951 . S
C825 C823 1.388 . S
C825 C826 1.366 . S
C826 C825 1.366 . S
C826 C827 1.414 . S
C826 C829 1.499 . S
C827 H801 0.950 . S
C827 C826 1.414 . S
C827 C828 1.374 . S
C828 H802 0.950 . S
C828 C824 1.385 . S
C828 C827 1.374 . S
C829 C826 1.499 . S
C829 C830 1.373 . S
C829 C831 1.389 . S
C830 H803 0.950 . S
C830 C816 1.377 . S
C830 C829 1.373 . S
C831 C815 1.377 . S
C831 C829 1.389 . S
C831 C832 1.524 . S
C832 C831 1.524 . S
C832 C833 1.397 . S
C832 C837 1.363 . S
C833 H804 0.950 . S
C833 C832 1.397 . S
C833 C834 1.334 . S
C834 H805 0.950 . S
C834 C833 1.334 . S
C834 C835 1.287 . S
C835 C834 1.287 . S
C835 C836 1.524 . S
C835 H838 0.999 . S
C836 H806 0.950 . S
C836 C835 1.524 . S
C836 C837 1.415 . S
C837 H807 0.950 . S
C837 C832 1.363 . S
C837 C836 1.415 . S
H838 C835 0.999 . S
H839 C820 0.913 . S
H840 C858 0.951 . S
H841 C860 0.951 . S
H842 C862 0.950 . S
H843 C863 0.950 . S
H844 C865 0.950 . S
H845 C868 0.950 . S
H846 C869 0.950 . S
H847 C871 0.950 . S
H848 C872 0.950 . S
H849 C873 0.951 . S
H850 C875 0.951 . S
H851 C877 0.950 . S
H852 C878 0.950 . S
H853 C880 0.950 . S
H854 C883 0.950 . S
H855 C884 0.950 . S
H856 C886 0.950 . S
H857 C887 0.950 . S
C858 H840 0.951 . S
C858 C859 1.366 . S
C858 C860 1.388 1_554 S
C859 C858 1.366 . S
C859 C863 1.385 1_554 S
C860 H841 0.951 . S
C860 C858 1.388 1_556 S
C860 C861 1.366 . S
C861 C860 1.366 . S
C861 C862 1.414 . S
C861 C864 1.499 . S
C862 H842 0.950 . S
C862 C861 1.414 . S
C862 C863 1.374 . S
C863 H843 0.950 . S
C863 C859 1.385 1_556 S
C863 C862 1.374 . S
C864 C861 1.499 . S
C864 C865 1.373 . S
C864 C866 1.389 . S
C865 H844 0.950 . S
C865 C864 1.373 . S
C865 C881 1.377 . S
C866 C864 1.389 . S
C866 C867 1.524 . S
C866 C880 1.377 . S
C867 C866 1.524 . S
C867 C868 1.397 . S
C867 C872 1.363 . S
C868 H845 0.950 . S
C868 C867 1.397 . S
C868 C869 1.334 . S
C869 H846 0.950 . S
C869 C868 1.334 . S
C869 C870 1.287 . S
C870 C869 1.287 . S
C870 C871 1.524 . S
C870 H889 0.913 . S
C871 H847 0.950 . S
C871 C870 1.524 . S
C871 C872 1.415 . S
C872 H848 0.950 . S
C872 C867 1.363 . S
C872 C871 1.415 . S
C873 H849 0.951 . S
C873 C874 1.366 . S
C873 C875 1.388 . S
C874 C873 1.366 . S
C874 C878 1.385 . S
C875 H850 0.951 . S
C875 C873 1.388 . S
C875 C876 1.366 . S
C876 C875 1.366 . S
C876 C877 1.414 . S
C876 C879 1.499 . S
C877 H851 0.950 . S
C877 C876 1.414 . S
C877 C878 1.374 . S
C878 H852 0.950 . S
C878 C874 1.385 . S
C878 C877 1.374 . S
C879 C876 1.499 . S
C879 C880 1.373 . S
C879 C881 1.389 . S
C880 H853 0.950 . S
C880 C866 1.377 . S
C880 C879 1.373 . S
C881 C865 1.377 . S
C881 C879 1.389 . S
C881 C882 1.524 . S
C882 C881 1.524 . S
C882 C883 1.397 . S
C882 C887 1.363 . S
C883 H854 0.950 . S
C883 C882 1.397 . S
C883 C884 1.334 . S
C884 H855 0.950 . S
C884 C883 1.334 . S
C884 C885 1.287 . S
C885 C884 1.287 . S
C885 C886 1.524 . S
C885 H888 0.999 . S
C886 H856 0.950 . S
C886 C885 1.524 . S
C886 C887 1.415 . S
C887 H857 0.950 . S
C887 C882 1.363 . S
C887 C886 1.415 . S
H888 C885 0.999 . S
H889 C870 0.913 . S
H890 C908 0.951 . S
H891 C910 0.951 . S
H892 C912 0.950 . S
H893 C913 0.950 . S
H894 C915 0.950 . S
H895 C918 0.950 . S
H896 C919 0.950 . S
H897 C921 0.950 . S
H898 C922 0.950 . S
H899 C923 0.951 . S
H900 C925 0.951 . S
H901 C927 0.950 . S
H902 C928 0.950 . S
H903 C930 0.950 . S
H904 C933 0.950 . S
H905 C934 0.950 . S
H906 C936 0.950 . S
H907 C937 0.950 . S
C908 H890 0.951 . S
C908 C909 1.366 . S
C908 C910 1.388 . S
C909 C908 1.366 . S
C909 C913 1.385 . S
C910 H891 0.951 . S
C910 C908 1.388 . S
C910 C911 1.366 . S
C911 C910 1.366 . S
C911 C912 1.414 . S
C911 C914 1.499 . S
C912 H892 0.950 . S
C912 C911 1.414 . S
C912 C913 1.374 . S
C913 H893 0.950 . S
C913 C909 1.385 . S
C913 C912 1.374 . S
C914 C911 1.499 . S
C914 C915 1.373 . S
C914 C916 1.389 . S
C915 H894 0.950 . S
C915 C914 1.373 . S
C915 C931 1.377 . S
C916 C914 1.389 . S
C916 C917 1.524 . S
C916 C930 1.377 . S
C917 C916 1.524 . S
C917 C918 1.397 . S
C917 C922 1.363 . S
C918 H895 0.950 . S
C918 C917 1.397 . S
C918 C919 1.334 . S
C919 H896 0.950 . S
C919 C918 1.334 . S
C919 C920 1.287 . S
C920 C919 1.287 . S
C920 C921 1.524 . S
C920 H939 0.913 . S
C921 H897 0.950 . S
C921 C920 1.524 . S
C921 C922 1.415 . S
C922 H898 0.950 . S
C922 C917 1.363 . S
C922 C921 1.415 . S
C923 H899 0.951 . S
C923 C924 1.366 . S
C923 C925 1.388 . S
C924 C923 1.366 . S
C924 C928 1.385 . S
C925 H900 0.951 . S
C925 C923 1.388 . S
C925 C926 1.366 . S
C926 C925 1.366 . S
C926 C927 1.414 . S
C926 C929 1.499 . S
C927 H901 0.950 . S
C927 C926 1.414 . S
C927 C928 1.374 . S
C928 H902 0.950 . S
C928 C924 1.385 . S
C928 C927 1.374 . S
C929 C926 1.499 . S
C929 C930 1.373 . S
C929 C931 1.389 . S
C930 H903 0.950 . S
C930 C916 1.377 . S
C930 C929 1.373 . S
C931 C915 1.377 . S
C931 C929 1.389 . S
C931 C932 1.524 . S
C932 C931 1.524 . S
C932 C933 1.397 . S
C932 C937 1.363 . S
C933 H904 0.950 . S
C933 C932 1.397 . S
C933 C934 1.334 1_655 S
C934 H905 0.950 . S
C934 C933 1.334 1_455 S
C934 C935 1.287 . S
C935 C934 1.287 . S
C935 C936 1.524 . S
C935 H938 0.999 . S
C936 H906 0.950 . S
C936 C935 1.524 . S
C936 C937 1.415 1_455 S
C937 H907 0.950 . S
C937 C932 1.363 . S
C937 C936 1.415 1_655 S
H938 C935 0.999 . S
H939 C920 0.913 . S
H940 C958 0.951 . S
H941 C960 0.951 . S
H942 C962 0.950 . S
H943 C963 0.950 . S
H944 C965 0.950 . S
H945 C968 0.950 . S
H946 C969 0.950 . S
H947 C971 0.950 . S
H948 C972 0.950 . S
H949 C973 0.951 . S
H950 C975 0.951 . S
H951 C977 0.950 . S
H952 C978 0.950 . S
H953 C980 0.950 . S
H954 C983 0.950 . S
H955 C984 0.950 . S
H956 C986 0.950 . S
H957 C987 0.950 . S
C958 H940 0.951 . S
C958 C959 1.366 . S
C958 C960 1.388 1_554 S
C959 C958 1.366 . S
C959 C963 1.385 1_554 S
C960 H941 0.951 . S
C960 C958 1.388 1_556 S
C960 C961 1.366 . S
C961 C960 1.366 . S
C961 C962 1.414 . S
C961 C964 1.499 . S
C962 H942 0.950 . S
C962 C961 1.414 . S
C962 C963 1.374 . S
C963 H943 0.950 . S
C963 C959 1.385 1_556 S
C963 C962 1.374 . S
C964 C961 1.499 . S
C964 C965 1.373 . S
C964 C966 1.389 . S
C965 H944 0.950 . S
C965 C964 1.373 . S
C965 C981 1.377 . S
C966 C964 1.389 . S
C966 C967 1.524 . S
C966 C980 1.377 . S
C967 C966 1.524 . S
C967 C968 1.397 . S
C967 C972 1.363 . S
C968 H945 0.950 . S
C968 C967 1.397 . S
C968 C969 1.334 . S
C969 H946 0.950 . S
C969 C968 1.334 . S
C969 C970 1.287 . S
C970 C969 1.287 . S
C970 C971 1.524 . S
C970 H989 0.913 . S
C971 H947 0.950 . S
C971 C970 1.524 . S
C971 C972 1.415 . S
C972 H948 0.950 . S
C972 C967 1.363 . S
C972 C971 1.415 . S
C973 H949 0.951 . S
C973 C974 1.366 . S
C973 C975 1.388 . S
C974 C973 1.366 . S
C974 C978 1.385 . S
C975 H950 0.951 . S
C975 C973 1.388 . S
C975 C976 1.366 . S
C976 C975 1.366 . S
C976 C977 1.414 . S
C976 C979 1.499 . S
C977 H951 0.950 . S
C977 C976 1.414 . S
C977 C978 1.374 . S
C978 H952 0.950 . S
C978 C974 1.385 . S
C978 C977 1.374 . S
C979 C976 1.499 . S
C979 C980 1.373 . S
C979 C981 1.389 . S
C980 H953 0.950 . S
C980 C966 1.377 . S
C980 C979 1.373 . S
C981 C965 1.377 . S
C981 C979 1.389 . S
C981 C982 1.524 . S
C982 C981 1.524 . S
C982 C983 1.397 . S
C982 C987 1.363 . S
C983 H954 0.950 . S
C983 C982 1.397 . S
C983 C984 1.334 . S
C984 H955 0.950 . S
C984 C983 1.334 . S
C984 C985 1.287 . S
C985 C984 1.287 . S
C985 C986 1.524 . S
C985 H988 0.999 . S
C986 H956 0.950 . S
C986 C985 1.524 . S
C986 C987 1.415 . S
C987 H957 0.950 . S
C987 C982 1.363 . S
C987 C986 1.415 . S
H988 C985 0.999 . S
H989 C970 0.913 . S
H990 C1008 0.951 . S
H991 C1010 0.951 . S
H992 C1012 0.950 . S
H993 C1013 0.950 . S
H994 C1015 0.950 . S
H995 C1018 0.950 . S
H996 C1019 0.950 . S
H997 C1021 0.950 . S
H998 C1022 0.950 . S
H999 C1023 0.951 . S
H1000 C1025 0.951 . S
H1001 C1027 0.950 . S
H1002 C1028 0.950 . S
H1003 C1030 0.950 . S
H1004 C1033 0.950 . S
H1005 C1034 0.950 . S
H1006 C1036 0.950 . S
H1007 C1037 0.950 . S
C1008 H990 0.951 . S
C1008 C1009 1.366 . S
C1008 C1010 1.388 . S
C1009 C1008 1.366 . S
C1009 C1013 1.385 . S
C1010 H991 0.951 . S
C1010 C1008 1.388 . S
C1010 C1011 1.366 . S
C1011 C1010 1.366 . S
C1011 C1012 1.414 . S
C1011 C1014 1.499 . S
C1012 H992 0.950 . S
C1012 C1011 1.414 . S
C1012 C1013 1.374 . S
C1013 H993 0.950 . S
C1013 C1009 1.385 . S
C1013 C1012 1.374 . S
C1014 C1011 1.499 . S
C1014 C1015 1.373 . S
C1014 C1016 1.389 . S
C1015 H994 0.950 . S
C1015 C1014 1.373 . S
C1015 C1031 1.377 . S
C1016 C1014 1.389 . S
C1016 C1017 1.524 . S
C1016 C1030 1.377 . S
C1017 C1016 1.524 . S
C1017 C1018 1.397 . S
C1017 C1022 1.363 . S
C1018 H995 0.950 . S
C1018 C1017 1.397 . S
C1018 C1019 1.334 . S
C1019 H996 0.950 . S
C1019 C1018 1.334 . S
C1019 C1020 1.287 . S
C1020 C1019 1.287 . S
C1020 C1021 1.524 . S
C1020 H1039 0.913 . S
C1021 H997 0.950 . S
C1021 C1020 1.524 . S
C1021 C1022 1.415 . S
C1022 H998 0.950 . S
C1022 C1017 1.363 . S
C1022 C1021 1.415 . S
C1023 H999 0.951 . S
C1023 C1024 1.366 . S
C1023 C1025 1.388 . S
C1024 C1023 1.366 . S
C1024 C1028 1.385 . S
C1025 H1000 0.951 . S
C1025 C1023 1.388 . S
C1025 C1026 1.366 . S
C1026 C1025 1.366 . S
C1026 C1027 1.414 . S
C1026 C1029 1.499 . S
C1027 H1001 0.950 . S
C1027 C1026 1.414 . S
C1027 C1028 1.374 . S
C1028 H1002 0.950 . S
C1028 C1024 1.385 . S
C1028 C1027 1.374 . S
C1029 C1026 1.499 . S
C1029 C1030 1.373 . S
C1029 C1031 1.389 . S
C1030 H1003 0.950 . S
C1030 C1016 1.377 . S
C1030 C1029 1.373 . S
C1031 C1015 1.377 . S
C1031 C1029 1.389 . S
C1031 C1032 1.524 . S
C1032 C1031 1.524 . S
C1032 C1033 1.397 . S
C1032 C1037 1.363 . S
C1033 H1004 0.950 . S
C1033 C1032 1.397 . S
C1033 C1034 1.334 . S
C1034 H1005 0.950 . S
C1034 C1033 1.334 . S
C1034 C1035 1.287 . S
C1035 C1034 1.287 . S
C1035 C1036 1.524 . S
C1035 H1038 0.999 . S
C1036 H1006 0.950 . S
C1036 C1035 1.524 . S
C1036 C1037 1.415 . S
C1037 H1007 0.950 . S
C1037 C1032 1.363 . S
C1037 C1036 1.415 . S
H1038 C1035 0.999 . S
H1039 C1020 0.913 . S
H1040 C1058 0.951 . S
H1041 C1060 0.951 . S
H1042 C1062 0.950 . S
H1043 C1063 0.950 . S
H1044 C1065 0.950 . S
H1045 C1068 0.950 . S
H1046 C1069 0.950 . S
H1047 C1071 0.950 . S
H1048 C1072 0.950 . S
H1049 C1073 0.951 . S
H1050 C1075 0.951 . S
H1051 C1077 0.950 . S
H1052 C1078 0.950 . S
H1053 C1080 0.950 . S
H1054 C1083 0.950 . S
H1055 C1084 0.950 . S
H1056 C1086 0.950 . S
H1057 C1087 0.950 . S
C1058 H1040 0.951 . S
C1058 C1059 1.366 1_554 S
C1058 C1060 1.388 . S
C1059 C1058 1.366 1_556 S
C1059 C1063 1.385 . S
C1060 H1041 0.951 . S
C1060 C1058 1.388 . S
C1060 C1061 1.366 . S
C1061 C1060 1.366 . S
C1061 C1062 1.414 . S
C1061 C1064 1.499 . S
C1062 H1042 0.950 . S
C1062 C1061 1.414 . S
C1062 C1063 1.374 1_554 S
C1063 H1043 0.950 . S
C1063 C1059 1.385 . S
C1063 C1062 1.374 1_556 S
C1064 C1061 1.499 . S
C1064 C1065 1.373 . S
C1064 C1066 1.389 . S
C1065 H1044 0.950 . S
C1065 C1064 1.373 . S
C1065 C1081 1.377 . S
C1066 C1064 1.389 . S
C1066 C1067 1.524 . S
C1066 C1080 1.377 . S
C1067 C1066 1.524 . S
C1067 C1068 1.397 . S
C1067 C1072 1.363 . S
C1068 H1045 0.950 . S
C1068 C1067 1.397 . S
C1068 C1069 1.334 . S
C1069 H1046 0.950 . S
C1069 C1068 1.334 . S
C1069 C1070 1.287 . S
C1070 C1069 1.287 . S
C1070 C1071 1.524 . S
C1070 H1089 0.913 . S
C1071 H1047 0.950 . S
C1071 C1070 1.524 . S
C1071 C1072 1.415 . S
C1072 H1048 0.950 . S
C1072 C1067 1.363 . S
C1072 C1071 1.415 . S
C1073 H1049 0.951 . S
C1073 C1074 1.366 . S
C1073 C1075 1.388 . S
C1074 C1073 1.366 . S
C1074 C1078 1.385 . S
C1075 H1050 0.951 . S
C1075 C1073 1.388 . S
C1075 C1076 1.366 . S
C1076 C1075 1.366 . S
C1076 C1077 1.414 . S
C1076 C1079 1.499 . S
C1077 H1051 0.950 . S
C1077 C1076 1.414 . S
C1077 C1078 1.374 . S
C1078 H1052 0.950 . S
C1078 C1074 1.385 . S
C1078 C1077 1.374 . S
C1079 C1076 1.499 . S
C1079 C1080 1.373 . S
C1079 C1081 1.389 . S
C1080 H1053 0.950 . S
C1080 C1066 1.377 . S
C1080 C1079 1.373 . S
C1081 C1065 1.377 . S
C1081 C1079 1.389 . S
C1081 C1082 1.524 . S
C1082 C1081 1.524 . S
C1082 C1083 1.397 . S
C1082 C1087 1.363 . S
C1083 H1054 0.950 . S
C1083 C1082 1.397 . S
C1083 C1084 1.334 . S
C1084 H1055 0.950 . S
C1084 C1083 1.334 . S
C1084 C1085 1.287 . S
C1085 C1084 1.287 . S
C1085 C1086 1.524 . S
C1085 H1088 0.999 . S
C1086 H1056 0.950 . S
C1086 C1085 1.524 . S
C1086 C1087 1.415 . S
C1087 H1057 0.950 . S
C1087 C1082 1.363 . S
C1087 C1086 1.415 . S
H1088 C1085 0.999 . S
H1089 C1070 0.913 . S
H1090 C1108 0.951 . S
H1091 C1110 0.951 . S
H1092 C1112 0.950 . S
H1093 C1113 0.950 . S
H1094 C1115 0.950 . S
H1095 C1118 0.950 . S
H1096 C1119 0.950 . S
H1097 C1121 0.950 . S
H1098 C1122 0.950 . S
H1099 C1123 0.951 . S
H1100 C1125 0.951 . S
H1101 C1127 0.950 . S
H1102 C1128 0.950 . S
H1103 C1130 0.950 . S
H1104 C1133 0.950 . S
H1105 C1134 0.950 . S
H1106 C1136 0.950 . S
H1107 C1137 0.950 . S
C1108 H1090 0.951 . S
C1108 C1109 1.366 . S
C1108 C1110 1.388 . S
C1109 C1108 1.366 . S
C1109 C1113 1.385 . S
C1110 H1091 0.951 . S
C1110 C1108 1.388 . S
C1110 C1111 1.366 . S
C1111 C1110 1.366 . S
C1111 C1112 1.414 . S
C1111 C1114 1.499 . S
C1112 H1092 0.950 . S
C1112 C1111 1.414 . S
C1112 C1113 1.374 . S
C1113 H1093 0.950 . S
C1113 C1109 1.385 . S
C1113 C1112 1.374 . S
C1114 C1111 1.499 . S
C1114 C1115 1.373 . S
C1114 C1116 1.389 . S
C1115 H1094 0.950 . S
C1115 C1114 1.373 . S
C1115 C1131 1.377 . S
C1116 C1114 1.389 . S
C1116 C1117 1.524 . S
C1116 C1130 1.377 . S
C1117 C1116 1.524 . S
C1117 C1118 1.397 . S
C1117 C1122 1.363 . S
C1118 H1095 0.950 . S
C1118 C1117 1.397 . S
C1118 C1119 1.334 . S
C1119 H1096 0.950 . S
C1119 C1118 1.334 . S
C1119 C1120 1.287 . S
C1120 C1119 1.287 . S
C1120 C1121 1.524 . S
C1120 H1139 0.913 . S
C1121 H1097 0.950 . S
C1121 C1120 1.524 . S
C1121 C1122 1.415 . S
C1122 H1098 0.950 . S
C1122 C1117 1.363 . S
C1122 C1121 1.415 . S
C1123 H1099 0.951 . S
C1123 C1124 1.366 . S
C1123 C1125 1.388 . S
C1124 C1123 1.366 . S
C1124 C1128 1.385 . S
C1125 H1100 0.951 . S
C1125 C1123 1.388 . S
C1125 C1126 1.366 . S
C1126 C1125 1.366 . S
C1126 C1127 1.414 . S
C1126 C1129 1.499 . S
C1127 H1101 0.950 . S
C1127 C1126 1.414 . S
C1127 C1128 1.374 . S
C1128 H1102 0.950 . S
C1128 C1124 1.385 . S
C1128 C1127 1.374 . S
C1129 C1126 1.499 . S
C1129 C1130 1.373 . S
C1129 C1131 1.389 . S
C1130 H1103 0.950 . S
C1130 C1116 1.377 . S
C1130 C1129 1.373 . S
C1131 C1115 1.377 . S
C1131 C1129 1.389 . S
C1131 C1132 1.524 . S
C1132 C1131 1.524 . S
C1132 C1133 1.397 . S
C1132 C1137 1.363 . S
C1133 H1104 0.950 . S
C1133 C1132 1.397 . S
C1133 C1134 1.334 . S
C1134 H1105 0.950 . S
C1134 C1133 1.334 . S
C1134 C1135 1.287 . S
C1135 C1134 1.287 . S
C1135 C1136 1.524 . S
C1135 H1138 0.999 . S
C1136 H1106 0.950 . S
C1136 C1135 1.524 . S
C1136 C1137 1.415 . S
C1137 H1107 0.950 . S
C1137 C1132 1.363 . S
C1137 C1136 1.415 . S
H1138 C1135 0.999 . S
H1139 C1120 0.913 . S
H1140 C1158 0.951 . S
H1141 C1160 0.951 . S
H1142 C1162 0.950 . S
H1143 C1163 0.950 . S
H1144 C1165 0.950 . S
H1145 C1168 0.950 . S
H1146 C1169 0.950 . S
H1147 C1171 0.950 . S
H1148 C1172 0.950 . S
H1149 C1173 0.951 . S
H1150 C1175 0.951 . S
H1151 C1177 0.950 . S
H1152 C1178 0.950 . S
H1153 C1180 0.950 . S
H1154 C1183 0.950 . S
H1155 C1184 0.950 . S
H1156 C1186 0.950 . S
H1157 C1187 0.950 . S
C1158 H1140 0.951 . S
C1158 C1159 1.366 . S
C1158 C1160 1.388 . S
C1159 C1158 1.366 . S
C1159 C1163 1.385 . S
C1160 H1141 0.951 . S
C1160 C1158 1.388 . S
C1160 C1161 1.366 . S
C1161 C1160 1.366 . S
C1161 C1162 1.414 . S
C1161 C1164 1.499 . S
C1162 H1142 0.950 . S
C1162 C1161 1.414 . S
C1162 C1163 1.374 . S
C1163 H1143 0.950 . S
C1163 C1159 1.385 . S
C1163 C1162 1.374 . S
C1164 C1161 1.499 . S
C1164 C1165 1.373 . S
C1164 C1166 1.389 . S
C1165 H1144 0.950 . S
C1165 C1164 1.373 . S
C1165 C1181 1.377 . S
C1166 C1164 1.389 . S
C1166 C1167 1.524 . S
C1166 C1180 1.377 . S
C1167 C1166 1.524 . S
C1167 C1168 1.397 . S
C1167 C1172 1.363 . S
C1168 H1145 0.950 . S
C1168 C1167 1.397 . S
C1168 C1169 1.334 . S
C1169 H1146 0.950 . S
C1169 C1168 1.334 . S
C1169 C1170 1.287 . S
C1170 C1169 1.287 . S
C1170 C1171 1.524 . S
C1170 H1189 0.913 . S
C1171 H1147 0.950 . S
C1171 C1170 1.524 . S
C1171 C1172 1.415 . S
C1172 H1148 0.950 . S
C1172 C1167 1.363 . S
C1172 C1171 1.415 . S
C1173 H1149 0.951 . S
C1173 C1174 1.366 . S
C1173 C1175 1.388 . S
C1174 C1173 1.366 . S
C1174 C1178 1.385 . S
C1175 H1150 0.951 . S
C1175 C1173 1.388 . S
C1175 C1176 1.366 . S
C1176 C1175 1.366 . S
C1176 C1177 1.414 . S
C1176 C1179 1.499 . S
C1177 H1151 0.950 . S
C1177 C1176 1.414 . S
C1177 C1178 1.374 . S
C1178 H1152 0.950 . S
C1178 C1174 1.385 . S
C1178 C1177 1.374 . S
C1179 C1176 1.499 . S
C1179 C1180 1.373 . S
C1179 C1181 1.389 . S
C1180 H1153 0.950 . S
C1180 C1166 1.377 . S
C1180 C1179 1.373 . S
C1181 C1165 1.377 . S
C1181 C1179 1.389 . S
C1181 C1182 1.524 . S
C1182 C1181 1.524 . S
C1182 C1183 1.397 . S
C1182 C1187 1.363 . S
C1183 H1154 0.950 . S
C1183 C1182 1.397 . S
C1183 C1184 1.334 . S
C1184 H1155 0.950 . S
C1184 C1183 1.334 . S
C1184 C1185 1.287 . S
C1185 C1184 1.287 . S
C1185 C1186 1.524 . S
C1185 H1188 0.999 . S
C1186 H1156 0.950 . S
C1186 C1185 1.524 . S
C1186 C1187 1.415 . S
C1187 H1157 0.950 . S
C1187 C1182 1.363 . S
C1187 C1186 1.415 . S
H1188 C1185 0.999 . S
H1189 C1170 0.913 . S
H1190 C1208 0.951 . S
H1191 C1210 0.951 . S
H1192 C1212 0.950 . S
H1193 C1213 0.950 . S
H1194 C1215 0.950 . S
H1195 C1218 0.950 . S
H1196 C1219 0.950 . S
H1197 C1221 0.950 . S
H1198 C1222 0.950 . S
H1199 C1223 0.951 . S
H1200 C1225 0.951 . S
H1201 C1227 0.950 . S
H1202 C1228 0.950 . S
H1203 C1230 0.950 . S
H1204 C1233 0.950 . S
H1205 C1234 0.950 . S
H1206 C1236 0.950 . S
H1207 C1237 0.950 . S
C1208 H1190 0.951 . S
C1208 C1209 1.366 . S
C1208 C1210 1.388 . S
C1209 C1208 1.366 . S
C1209 C1213 1.385 . S
C1210 H1191 0.951 . S
C1210 C1208 1.388 . S
C1210 C1211 1.366 . S
C1211 C1210 1.366 . S
C1211 C1212 1.414 . S
C1211 C1214 1.499 . S
C1212 H1192 0.950 . S
C1212 C1211 1.414 . S
C1212 C1213 1.374 . S
C1213 H1193 0.950 . S
C1213 C1209 1.385 . S
C1213 C1212 1.374 . S
C1214 C1211 1.499 . S
C1214 C1215 1.373 . S
C1214 C1216 1.389 . S
C1215 H1194 0.950 . S
C1215 C1214 1.373 . S
C1215 C1231 1.377 . S
C1216 C1214 1.389 . S
C1216 C1217 1.524 . S
C1216 C1230 1.377 . S
C1217 C1216 1.524 . S
C1217 C1218 1.397 . S
C1217 C1222 1.363 . S
C1218 H1195 0.950 . S
C1218 C1217 1.397 . S
C1218 C1219 1.334 . S
C1219 H1196 0.950 . S
C1219 C1218 1.334 . S
C1219 C1220 1.287 . S
C1220 C1219 1.287 . S
C1220 C1221 1.524 . S
C1220 H1239 0.913 . S
C1221 H1197 0.950 . S
C1221 C1220 1.524 . S
C1221 C1222 1.415 . S
C1222 H1198 0.950 . S
C1222 C1217 1.363 . S
C1222 C1221 1.415 . S
C1223 H1199 0.951 . S
C1223 C1224 1.366 . S
C1223 C1225 1.388 . S
C1224 C1223 1.366 . S
C1224 C1228 1.385 . S
C1225 H1200 0.951 . S
C1225 C1223 1.388 . S
C1225 C1226 1.366 . S
C1226 C1225 1.366 . S
C1226 C1227 1.414 . S
C1226 C1229 1.499 . S
C1227 H1201 0.950 . S
C1227 C1226 1.414 . S
C1227 C1228 1.374 . S
C1228 H1202 0.950 . S
C1228 C1224 1.385 . S
C1228 C1227 1.374 . S
C1229 C1226 1.499 . S
C1229 C1230 1.373 . S
C1229 C1231 1.389 . S
C1230 H1203 0.950 . S
C1230 C1216 1.377 . S
C1230 C1229 1.373 . S
C1231 C1215 1.377 . S
C1231 C1229 1.389 . S
C1231 C1232 1.524 . S
C1232 C1231 1.524 . S
C1232 C1233 1.397 . S
C1232 C1237 1.363 . S
C1233 H1204 0.950 . S
C1233 C1232 1.397 . S
C1233 C1234 1.334 . S
C1234 H1205 0.950 . S
C1234 C1233 1.334 . S
C1234 C1235 1.287 . S
C1235 C1234 1.287 . S
C1235 C1236 1.524 . S
C1235 H1238 0.999 . S
C1236 H1206 0.950 . S
C1236 C1235 1.524 . S
C1236 C1237 1.415 . S
C1237 H1207 0.950 . S
C1237 C1232 1.363 . S
C1237 C1236 1.415 . S
H1238 C1235 0.999 . S
H1239 C1220 0.913 . S
H1240 C1258 0.951 . S
H1241 C1260 0.951 . S
H1242 C1262 0.950 . S
H1243 C1263 0.950 . S
H1244 C1265 0.950 . S
H1245 C1268 0.950 . S
H1246 C1269 0.950 . S
H1247 C1271 0.950 . S
H1248 C1272 0.950 . S
H1249 C1273 0.951 . S
H1250 C1275 0.951 . S
H1251 C1277 0.950 . S
H1252 C1278 0.950 . S
H1253 C1280 0.950 . S
H1254 C1283 0.950 . S
H1255 C1284 0.950 . S
H1256 C1286 0.950 . S
H1257 C1287 0.950 . S
C1258 H1240 0.951 . S
C1258 C1259 1.366 . S
C1258 C1260 1.388 . S
C1259 C1258 1.366 . S
C1259 C1263 1.385 . S
C1260 H1241 0.951 . S
C1260 C1258 1.388 . S
C1260 C1261 1.366 . S
C1261 C1260 1.366 . S
C1261 C1262 1.414 . S
C1261 C1264 1.499 . S
C1262 H1242 0.950 . S
C1262 C1261 1.414 . S
C1262 C1263 1.374 . S
C1263 H1243 0.950 . S
C1263 C1259 1.385 . S
C1263 C1262 1.374 . S
C1264 C1261 1.499 . S
C1264 C1265 1.373 . S
C1264 C1266 1.389 . S
C1265 H1244 0.950 . S
C1265 C1264 1.373 . S
C1265 C1281 1.377 . S
C1266 C1264 1.389 . S
C1266 C1267 1.524 . S
C1266 C1280 1.377 . S
C1267 C1266 1.524 . S
C1267 C1268 1.397 . S
C1267 C1272 1.363 . S
C1268 H1245 0.950 . S
C1268 C1267 1.397 . S
C1268 C1269 1.334 . S
C1269 H1246 0.950 . S
C1269 C1268 1.334 . S
C1269 C1270 1.287 . S
C1270 C1269 1.287 . S
C1270 C1271 1.524 . S
C1270 H1289 0.913 . S
C1271 H1247 0.950 . S
C1271 C1270 1.524 . S
C1271 C1272 1.415 . S
C1272 H1248 0.950 . S
C1272 C1267 1.363 . S
C1272 C1271 1.415 . S
C1273 H1249 0.951 . S
C1273 C1274 1.366 . S
C1273 C1275 1.388 . S
C1274 C1273 1.366 . S
C1274 C1278 1.385 . S
C1275 H1250 0.951 . S
C1275 C1273 1.388 . S
C1275 C1276 1.366 . S
C1276 C1275 1.366 . S
C1276 C1277 1.414 . S
C1276 C1279 1.499 . S
C1277 H1251 0.950 . S
C1277 C1276 1.414 . S
C1277 C1278 1.374 . S
C1278 H1252 0.950 . S
C1278 C1274 1.385 . S
C1278 C1277 1.374 . S
C1279 C1276 1.499 . S
C1279 C1280 1.373 . S
C1279 C1281 1.389 . S
C1280 H1253 0.950 . S
C1280 C1266 1.377 . S
C1280 C1279 1.373 . S
C1281 C1265 1.377 . S
C1281 C1279 1.389 . S
C1281 C1282 1.524 . S
C1282 C1281 1.524 . S
C1282 C1283 1.397 . S
C1282 C1287 1.363 . S
C1283 H1254 0.950 . S
C1283 C1282 1.397 . S
C1283 C1284 1.334 . S
C1284 H1255 0.950 . S
C1284 C1283 1.334 . S
C1284 C1285 1.287 . S
C1285 C1284 1.287 . S
C1285 C1286 1.524 . S
C1285 H1288 0.999 . S
C1286 H1256 0.950 . S
C1286 C1285 1.524 . S
C1286 C1287 1.415 . S
C1287 H1257 0.950 . S
C1287 C1282 1.363 . S
C1287 C1286 1.415 . S
H1288 C1285 0.999 . S
H1289 C1270 0.913 . S
H1290 C1308 0.951 . S
H1291 C1310 0.951 . S
H1292 C1312 0.950 . S
H1293 C1313 0.950 . S
H1294 C1315 0.950 . S
H1295 C1318 0.950 . S
H1296 C1319 0.950 . S
H1297 C1321 0.950 . S
H1298 C1322 0.950 . S
H1299 C1323 0.951 . S
H1300 C1325 0.951 . S
H1301 C1327 0.950 . S
H1302 C1328 0.950 . S
H1303 C1330 0.950 . S
H1304 C1333 0.950 . S
H1305 C1334 0.950 . S
H1306 C1336 0.950 . S
H1307 C1337 0.950 . S
C1308 H1290 0.951 . S
C1308 C1309 1.366 . S
C1308 C1310 1.388 . S
C1309 C1308 1.366 . S
C1309 C1313 1.385 . S
C1310 H1291 0.951 . S
C1310 C1308 1.388 . S
C1310 C1311 1.366 . S
C1311 C1310 1.366 . S
C1311 C1312 1.414 . S
C1311 C1314 1.499 . S
C1312 H1292 0.950 . S
C1312 C1311 1.414 . S
C1312 C1313 1.374 . S
C1313 H1293 0.950 . S
C1313 C1309 1.385 . S
C1313 C1312 1.374 . S
C1314 C1311 1.499 . S
C1314 C1315 1.373 . S
C1314 C1316 1.389 . S
C1315 H1294 0.950 . S
C1315 C1314 1.373 . S
C1315 C1331 1.377 . S
C1316 C1314 1.389 . S
C1316 C1317 1.524 . S
C1316 C1330 1.377 . S
C1317 C1316 1.524 . S
C1317 C1318 1.397 . S
C1317 C1322 1.363 . S
C1318 H1295 0.950 . S
C1318 C1317 1.397 . S
C1318 C1319 1.334 . S
C1319 H1296 0.950 . S
C1319 C1318 1.334 . S
C1319 C1320 1.287 . S
C1320 C1319 1.287 . S
C1320 C1321 1.524 . S
C1320 H1339 0.913 . S
C1321 H1297 0.950 . S
C1321 C1320 1.524 . S
C1321 C1322 1.415 . S
C1322 H1298 0.950 . S
C1322 C1317 1.363 . S
C1322 C1321 1.415 . S
C1323 H1299 0.951 . S
C1323 C1324 1.366 . S
C1323 C1325 1.388 . S
C1324 C1323 1.366 . S
C1324 C1328 1.385 . S
C1325 H1300 0.951 . S
C1325 C1323 1.388 . S
C1325 C1326 1.366 . S
C1326 C1325 1.366 . S
C1326 C1327 1.414 . S
C1326 C1329 1.499 . S
C1327 H1301 0.950 . S
C1327 C1326 1.414 . S
C1327 C1328 1.374 . S
C1328 H1302 0.950 . S
C1328 C1324 1.385 . S
C1328 C1327 1.374 . S
C1329 C1326 1.499 . S
C1329 C1330 1.373 . S
C1329 C1331 1.389 . S
C1330 H1303 0.950 . S
C1330 C1316 1.377 . S
C1330 C1329 1.373 . S
C1331 C1315 1.377 . S
C1331 C1329 1.389 . S
C1331 C1332 1.524 . S
C1332 C1331 1.524 . S
C1332 C1333 1.397 . S
C1332 C1337 1.363 . S
C1333 H1304 0.950 . S
C1333 C1332 1.397 . S
C1333 C1334 1.334 . S
C1334 H1305 0.950 . S
C1334 C1333 1.334 . S
C1334 C1335 1.287 . S
C1335 C1334 1.287 . S
C1335 C1336 1.524 . S
C1335 H1338 0.999 . S
C1336 H1306 0.950 . S
C1336 C1335 1.524 . S
C1336 C1337 1.415 . S
C1337 H1307 0.950 . S
C1337 C1332 1.363 . S
C1337 C1336 1.415 . S
H1338 C1335 0.999 . S
H1339 C1320 0.913 . S
H1340 C1358 0.951 . S
H1341 C1360 0.951 . S
H1342 C1362 0.950 . S
H1343 C1363 0.950 . S
H1344 C1365 0.950 . S
H1345 C1368 0.950 . S
H1346 C1369 0.950 . S
H1347 C1371 0.950 . S
H1348 C1372 0.950 . S
H1349 C1373 0.951 . S
H1350 C1375 0.951 . S
H1351 C1377 0.950 . S
H1352 C1378 0.950 . S
H1353 C1380 0.950 . S
H1354 C1383 0.950 . S
H1355 C1384 0.950 . S
H1356 C1386 0.950 . S
H1357 C1387 0.950 . S
C1358 H1340 0.951 . S
C1358 C1359 1.366 . S
C1358 C1360 1.388 . S
C1359 C1358 1.366 . S
C1359 C1363 1.385 . S
C1360 H1341 0.951 . S
C1360 C1358 1.388 . S
C1360 C1361 1.366 . S
C1361 C1360 1.366 . S
C1361 C1362 1.414 . S
C1361 C1364 1.499 . S
C1362 H1342 0.950 . S
C1362 C1361 1.414 . S
C1362 C1363 1.374 . S
C1363 H1343 0.950 . S
C1363 C1359 1.385 . S
C1363 C1362 1.374 . S
C1364 C1361 1.499 . S
C1364 C1365 1.373 . S
C1364 C1366 1.389 . S
C1365 H1344 0.950 . S
C1365 C1364 1.373 . S
C1365 C1381 1.377 . S
C1366 C1364 1.389 . S
C1366 C1367 1.524 . S
C1366 C1380 1.377 . S
C1367 C1366 1.524 . S
C1367 C1368 1.397 . S
C1367 C1372 1.363 . S
C1368 H1345 0.950 . S
C1368 C1367 1.397 . S
C1368 C1369 1.334 . S
C1369 H1346 0.950 . S
C1369 C1368 1.334 . S
C1369 C1370 1.287 . S
C1370 C1369 1.287 . S
C1370 C1371 1.524 . S
C1370 H1389 0.913 . S
C1371 H1347 0.950 . S
C1371 C1370 1.524 . S
C1371 C1372 1.415 . S
C1372 H1348 0.950 . S
C1372 C1367 1.363 . S
C1372 C1371 1.415 . S
C1373 H1349 0.951 . S
C1373 C1374 1.366 . S
C1373 C1375 1.388 . S
C1374 C1373 1.366 . S
C1374 C1378 1.385 . S
C1375 H1350 0.951 . S
C1375 C1373 1.388 . S
C1375 C1376 1.366 . S
C1376 C1375 1.366 . S
C1376 C1377 1.414 . S
C1376 C1379 1.499 . S
C1377 H1351 0.950 . S
C1377 C1376 1.414 . S
C1377 C1378 1.374 . S
C1378 H1352 0.950 . S
C1378 C1374 1.385 . S
C1378 C1377 1.374 . S
C1379 C1376 1.499 . S
C1379 C1380 1.373 . S
C1379 C1381 1.389 . S
C1380 H1353 0.950 . S
C1380 C1366 1.377 . S
C1380 C1379 1.373 . S
C1381 C1365 1.377 . S
C1381 C1379 1.389 . S
C1381 C1382 1.524 . S
C1382 C1381 1.524 . S
C1382 C1383 1.397 . S
C1382 C1387 1.363 . S
C1383 H1354 0.950 . S
C1383 C1382 1.397 . S
C1383 C1384 1.334 . S
C1384 H1355 0.950 . S
C1384 C1383 1.334 . S
C1384 C1385 1.287 . S
C1385 C1384 1.287 . S
C1385 C1386 1.524 . S
C1385 H1388 0.999 . S
C1386 H1356 0.950 . S
C1386 C1385 1.524 . S
C1386 C1387 1.415 . S
C1387 H1357 0.950 . S
C1387 C1382 1.363 . S
C1387 C1386 1.415 . S
H1388 C1385 0.999 . S
H1389 C1370 0.913 . S
H1390 C1408 0.951 . S
H1391 C1410 0.951 . S
H1392 C1412 0.950 . S
H1393 C1413 0.950 . S
H1394 C1415 0.950 . S
H1395 C1418 0.950 . S
H1396 C1419 0.950 . S
H1397 C1421 0.950 . S
H1398 C1422 0.950 . S
H1399 C1423 0.951 . S
H1400 C1425 0.951 . S
H1401 C1427 0.950 . S
H1402 C1428 0.950 . S
H1403 C1430 0.950 . S
H1404 C1433 0.950 . S
H1405 C1434 0.950 . S
H1406 C1436 0.950 . S
H1407 C1437 0.950 . S
C1408 H1390 0.951 . S
C1408 C1409 1.366 . S
C1408 C1410 1.388 . S
C1409 C1408 1.366 . S
C1409 C1413 1.385 . S
C1410 H1391 0.951 . S
C1410 C1408 1.388 . S
C1410 C1411 1.366 . S
C1411 C1410 1.366 . S
C1411 C1412 1.414 . S
C1411 C1414 1.499 . S
C1412 H1392 0.950 . S
C1412 C1411 1.414 . S
C1412 C1413 1.374 . S
C1413 H1393 0.950 . S
C1413 C1409 1.385 . S
C1413 C1412 1.374 . S
C1414 C1411 1.499 . S
C1414 C1415 1.373 . S
C1414 C1416 1.389 . S
C1415 H1394 0.950 . S
C1415 C1414 1.373 . S
C1415 C1431 1.377 . S
C1416 C1414 1.389 . S
C1416 C1417 1.524 . S
C1416 C1430 1.377 . S
C1417 C1416 1.524 . S
C1417 C1418 1.397 . S
C1417 C1422 1.363 . S
C1418 H1395 0.950 . S
C1418 C1417 1.397 . S
C1418 C1419 1.334 . S
C1419 H1396 0.950 . S
C1419 C1418 1.334 . S
C1419 C1420 1.287 . S
C1420 C1419 1.287 . S
C1420 C1421 1.524 . S
C1420 H1439 0.913 . S
C1421 H1397 0.950 . S
C1421 C1420 1.524 . S
C1421 C1422 1.415 . S
C1422 H1398 0.950 . S
C1422 C1417 1.363 . S
C1422 C1421 1.415 . S
C1423 H1399 0.951 . S
C1423 C1424 1.366 . S
C1423 C1425 1.388 . S
C1424 C1423 1.366 . S
C1424 C1428 1.385 . S
C1425 H1400 0.951 . S
C1425 C1423 1.388 . S
C1425 C1426 1.366 . S
C1426 C1425 1.366 . S
C1426 C1427 1.414 . S
C1426 C1429 1.499 . S
C1427 H1401 0.950 . S
C1427 C1426 1.414 . S
C1427 C1428 1.374 . S
C1428 H1402 0.950 . S
C1428 C1424 1.385 . S
C1428 C1427 1.374 . S
C1429 C1426 1.499 . S
C1429 C1430 1.373 . S
C1429 C1431 1.389 . S
C1430 H1403 0.950 . S
C1430 C1416 1.377 . S
C1430 C1429 1.373 . S
C1431 C1415 1.377 . S
C1431 C1429 1.389 . S
C1431 C1432 1.524 . S
C1432 C1431 1.524 . S
C1432 C1433 1.397 . S
C1432 C1437 1.363 . S
C1433 H1404 0.950 . S
C1433 C1432 1.397 . S
C1433 C1434 1.334 . S
C1434 H1405 0.950 . S
C1434 C1433 1.334 . S
C1434 C1435 1.287 . S
C1435 C1434 1.287 . S
C1435 C1436 1.524 . S
C1435 H1438 0.999 . S
C1436 H1406 0.950 . S
C1436 C1435 1.524 . S
C1436 C1437 1.415 . S
C1437 H1407 0.950 . S
C1437 C1432 1.363 . S
C1437 C1436 1.415 . S
H1438 C1435 0.999 . S
H1439 C1420 0.913 . S
H1440 C1458 0.951 . S
H1441 C1460 0.951 . S
H1442 C1462 0.950 . S
H1443 C1463 0.950 . S
H1444 C1465 0.950 . S
H1445 C1468 0.950 . S
H1446 C1469 0.950 . S
H1447 C1471 0.950 . S
H1448 C1472 0.950 . S
H1449 C1473 0.951 . S
H1450 C1475 0.951 . S
H1451 C1477 0.950 . S
H1452 C1478 0.950 . S
H1453 C1480 0.950 . S
H1454 C1483 0.950 . S
H1455 C1484 0.950 . S
H1456 C1486 0.950 . S
H1457 C1487 0.950 . S
C1458 H1440 0.951 . S
C1458 C1459 1.366 . S
C1458 C1460 1.388 . S
C1459 C1458 1.366 . S
C1459 C1463 1.385 . S
C1460 H1441 0.951 . S
C1460 C1458 1.388 . S
C1460 C1461 1.366 . S
C1461 C1460 1.366 . S
C1461 C1462 1.414 . S
C1461 C1464 1.499 . S
C1462 H1442 0.950 . S
C1462 C1461 1.414 . S
C1462 C1463 1.374 . S
C1463 H1443 0.950 . S
C1463 C1459 1.385 . S
C1463 C1462 1.374 . S
C1464 C1461 1.499 . S
C1464 C1465 1.373 . S
C1464 C1466 1.389 . S
C1465 H1444 0.950 . S
C1465 C1464 1.373 . S
C1465 C1481 1.377 . S
C1466 C1464 1.389 . S
C1466 C1467 1.524 . S
C1466 C1480 1.377 . S
C1467 C1466 1.524 . S
C1467 C1468 1.397 . S
C1467 C1472 1.363 . S
C1468 H1445 0.950 . S
C1468 C1467 1.397 . S
C1468 C1469 1.334 . S
C1469 H1446 0.950 . S
C1469 C1468 1.334 . S
C1469 C1470 1.287 . S
C1470 C1469 1.287 . S
C1470 C1471 1.524 . S
C1470 H1489 0.913 . S
C1471 H1447 0.950 . S
C1471 C1470 1.524 . S
C1471 C1472 1.415 . S
C1472 H1448 0.950 . S
C1472 C1467 1.363 . S
C1472 C1471 1.415 . S
C1473 H1449 0.951 . S
C1473 C1474 1.366 . S
C1473 C1475 1.388 . S
C1474 C1473 1.366 . S
C1474 C1478 1.385 . S
C1475 H1450 0.951 . S
C1475 C1473 1.388 . S
C1475 C1476 1.366 . S
C1476 C1475 1.366 . S
C1476 C1477 1.414 . S
C1476 C1479 1.499 . S
C1477 H1451 0.950 . S
C1477 C1476 1.414 . S
C1477 C1478 1.374 . S
C1478 H1452 0.950 . S
C1478 C1474 1.385 . S
C1478 C1477 1.374 . S
C1479 C1476 1.499 . S
C1479 C1480 1.373 . S
C1479 C1481 1.389 . S
C1480 H1453 0.950 . S
C1480 C1466 1.377 . S
C1480 C1479 1.373 . S
C1481 C1465 1.377 . S
C1481 C1479 1.389 . S
C1481 C1482 1.524 . S
C1482 C1481 1.524 . S
C1482 C1483 1.397 . S
C1482 C1487 1.363 . S
C1483 H1454 0.950 . S
C1483 C1482 1.397 . S
C1483 C1484 1.334 . S
C1484 H1455 0.950 . S
C1484 C1483 1.334 . S
C1484 C1485 1.287 . S
C1485 C1484 1.287 . S
C1485 C1486 1.524 . S
C1485 H1488 0.999 . S
C1486 H1456 0.950 . S
C1486 C1485 1.524 . S
C1486 C1487 1.415 . S
C1487 H1457 0.950 . S
C1487 C1482 1.363 . S
C1487 C1486 1.415 . S
H1488 C1485 0.999 . S
H1489 C1470 0.913 . S
H1490 C1508 0.951 . S
H1491 C1510 0.951 . S
H1492 C1512 0.950 . S
H1493 C1513 0.950 . S
H1494 C1515 0.950 . S
H1495 C1518 0.950 . S
H1496 C1519 0.950 . S
H1497 C1521 0.950 . S
H1498 C1522 0.950 . S
H1499 C1523 0.951 . S
H1500 C1525 0.951 . S
H1501 C1527 0.950 . S
H1502 C1528 0.950 . S
H1503 C1530 0.950 . S
H1504 C1533 0.950 . S
H1505 C1534 0.950 . S
H1506 C1536 0.950 . S
H1507 C1537 0.950 . S
C1508 H1490 0.951 . S
C1508 C1509 1.366 . S
C1508 C1510 1.388 . S
C1509 C1508 1.366 . S
C1509 C1513 1.385 . S
C1510 H1491 0.951 . S
C1510 C1508 1.388 . S
C1510 C1511 1.366 . S
C1511 C1510 1.366 . S
C1511 C1512 1.414 . S
C1511 C1514 1.499 . S
C1512 H1492 0.950 . S
C1512 C1511 1.414 . S
C1512 C1513 1.374 . S
C1513 H1493 0.950 . S
C1513 C1509 1.385 . S
C1513 C1512 1.374 . S
C1514 C1511 1.499 . S
C1514 C1515 1.373 . S
C1514 C1516 1.389 . S
C1515 H1494 0.950 . S
C1515 C1514 1.373 . S
C1515 C1531 1.377 . S
C1516 C1514 1.389 . S
C1516 C1517 1.524 . S
C1516 C1530 1.377 . S
C1517 C1516 1.524 . S
C1517 C1518 1.397 . S
C1517 C1522 1.363 . S
C1518 H1495 0.950 . S
C1518 C1517 1.397 . S
C1518 C1519 1.334 . S
C1519 H1496 0.950 . S
C1519 C1518 1.334 . S
C1519 C1520 1.287 . S
C1520 C1519 1.287 . S
C1520 C1521 1.524 . S
C1520 H1539 0.913 . S
C1521 H1497 0.950 . S
C1521 C1520 1.524 . S
C1521 C1522 1.415 . S
C1522 H1498 0.950 . S
C1522 C1517 1.363 . S
C1522 C1521 1.415 . S
C1523 H1499 0.951 . S
C1523 C1524 1.366 . S
C1523 C1525 1.388 . S
C1524 C1523 1.366 . S
C1524 C1528 1.385 . S
C1525 H1500 0.951 . S
C1525 C1523 1.388 . S
C1525 C1526 1.366 . S
C1526 C1525 1.366 . S
C1526 C1527 1.414 . S
C1526 C1529 1.499 . S
C1527 H1501 0.950 . S
C1527 C1526 1.414 . S
C1527 C1528 1.374 . S
C1528 H1502 0.950 . S
C1528 C1524 1.385 . S
C1528 C1527 1.374 . S
C1529 C1526 1.499 . S
C1529 C1530 1.373 . S
C1529 C1531 1.389 . S
C1530 H1503 0.950 . S
C1530 C1516 1.377 . S
C1530 C1529 1.373 . S
C1531 C1515 1.377 . S
C1531 C1529 1.389 . S
C1531 C1532 1.524 . S
C1532 C1531 1.524 . S
C1532 C1533 1.397 . S
C1532 C1537 1.363 . S
C1533 H1504 0.950 . S
C1533 C1532 1.397 . S
C1533 C1534 1.334 . S
C1534 H1505 0.950 . S
C1534 C1533 1.334 . S
C1534 C1535 1.287 . S
C1535 C1534 1.287 . S
C1535 C1536 1.524 . S
C1535 H1538 0.999 . S
C1536 H1506 0.950 . S
C1536 C1535 1.524 . S
C1536 C1537 1.415 . S
C1537 H1507 0.950 . S
C1537 C1532 1.363 . S
C1537 C1536 1.415 . S
H1538 C1535 0.999 . S
H1539 C1520 0.913 . S
C359 C221 1.342 . S
C374 C272 1.314 . S
C424 C280 1.260 . S
C409 C241 1.323 . S
C474 C284 1.300 . S
C459 C157 1.332 . S
C509 C177 1.314 . S
C524 C260 1.242 . S
C574 C301 1.315 . S
C559 C93 1.377 . S
C624 C335 1.259 . S
C609 C113 1.305 . S
C659 C29 1.371 . S
C674 C323 1.301 . S
C709 C49 1.293 . S
C724 C305 1.243 . S
C774 C259 1.262 . S
C759 C61 1.374 . S
C824 C293 1.257 . S
C809 C17 1.404 . S
C874 C297 1.268 . S
C859 C125 1.383 . S
C924 C275 1.258 . S
C909 C81 1.406 . S
C974 C314 1.263 . S
C959 C189 1.393 . S
C1009 C145 1.377 . S
C1024 C322 1.256 . S
C1074 C338 1.268 . S
C1059 C253 1.398 . S
C1109 C209 1.382 . S
C1124 C318 1.257 . S
C1174 C263 1.320 . S
C1159 C23 1.489 . S
C1224 C281 1.318 . S
C1209 C55 1.462 . S
C1259 C87 1.473 . S
C1274 C296 1.312 . S
C1324 C276 1.315 . S
C1309 C119 1.453 . S
C1374 C302 1.319 . S
C1359 C151 1.460 . S
C1409 C183 1.482 . S
C1424 C326 1.317 . S
C1459 C215 1.447 . S
C1474 C339 1.312 . S
C1509 C247 1.469 . S
C1524 C317 1.314 . S
