# Generated by pormake.
# Topology eea, (3,6)-cn, num edge types: 1
# Building blocks:
#     Node 0, Type 0, BuildingBlock: PAMTOO_clean_linker_0, # of connection points: 3
#     Node 1, Type 0, BuildingBlock: PAMTOO_clean_linker_0, # of connection points: 3
#     Node 2, Type 0, BuildingBlock: PAMTOO_clean_linker_0, # of connection points: 3
#     Node 3, Type 0, BuildingBlock: PAMTOO_clean_linker_0, # of connection points: 3
#     Node 4, Type 0, BuildingBlock: PAMTOO_clean_linker_0, # of connection points: 3
#     Node 5, Type 0, BuildingBlock: PAMTOO_clean_linker_0, # of connection points: 3
#     Node 6, Type 0, BuildingBlock: PAMTOO_clean_linker_0, # of connection points: 3
#     Node 7, Type 0, BuildingBlock: PAMTOO_clean_linker_0, # of connection points: 3
#     Node 8, Type 0, BuildingBlock: PAMTOO_clean_linker_0, # of connection points: 3
#     Node 9, Type 0, BuildingBlock: PAMTOO_clean_linker_0, # of connection points: 3
#     Node 10, Type 0, BuildingBlock: PAMTOO_clean_linker_0, # of connection points: 3
#     Node 11, Type 0, BuildingBlock: PAMTOO_clean_linker_0, # of connection points: 3
#     Node 12, Type 0, BuildingBlock: PAMTOO_clean_linker_0, # of connection points: 3
#     Node 13, Type 0, BuildingBlock: PAMTOO_clean_linker_0, # of connection points: 3
#     Node 14, Type 0, BuildingBlock: PAMTOO_clean_linker_0, # of connection points: 3
#     Node 15, Type 0, BuildingBlock: PAMTOO_clean_linker_0, # of connection points: 3
#     Node 16, Type 0, BuildingBlock: PAMTOO_clean_linker_0, # of connection points: 3
#     Node 17, Type 0, BuildingBlock: PAMTOO_clean_linker_0, # of connection points: 3
#     Node 18, Type 1, BuildingBlock: NUHQIS_clean_sbu_0, # of connection points: 6
#     Node 19, Type 1, BuildingBlock: NUHQIS_clean_sbu_0, # of connection points: 6
#     Node 20, Type 1, BuildingBlock: NUHQIS_clean_sbu_0, # of connection points: 6
#     Node 21, Type 1, BuildingBlock: NUHQIS_clean_sbu_0, # of connection points: 6
#     Node 22, Type 1, BuildingBlock: NUHQIS_clean_sbu_0, # of connection points: 6
#     Node 23, Type 1, BuildingBlock: NUHQIS_clean_sbu_0, # of connection points: 6
#     Node 24, Type 1, BuildingBlock: NUHQIS_clean_sbu_0, # of connection points: 6
#     Node 25, Type 1, BuildingBlock: NUHQIS_clean_sbu_0, # of connection points: 6
#     Node 26, Type 1, BuildingBlock: NUHQIS_clean_sbu_0, # of connection points: 6
#     Edge 27, Type (0, 1), BuildingBlock: MIFKUJ_clean_linker_0, # of connection points: 2
#     Edge 28, Type (0, 1), BuildingBlock: MIFKUJ_clean_linker_0, # of connection points: 2
#     Edge 29, Type (0, 1), BuildingBlock: MIFKUJ_clean_linker_0, # of connection points: 2
#     Edge 30, Type (0, 1), BuildingBlock: MIFKUJ_clean_linker_0, # of connection points: 2
#     Edge 31, Type (0, 1), BuildingBlock: MIFKUJ_clean_linker_0, # of connection points: 2
#     Edge 32, Type (0, 1), BuildingBlock: MIFKUJ_clean_linker_0, # of connection points: 2
#     Edge 33, Type (0, 1), BuildingBlock: MIFKUJ_clean_linker_0, # of connection points: 2
#     Edge 34, Type (0, 1), BuildingBlock: MIFKUJ_clean_linker_0, # of connection points: 2
#     Edge 35, Type (0, 1), BuildingBlock: MIFKUJ_clean_linker_0, # of connection points: 2
#     Edge 36, Type (0, 1), BuildingBlock: MIFKUJ_clean_linker_0, # of connection points: 2
#     Edge 37, Type (0, 1), BuildingBlock: MIFKUJ_clean_linker_0, # of connection points: 2
#     Edge 38, Type (0, 1), BuildingBlock: MIFKUJ_clean_linker_0, # of connection points: 2
#     Edge 39, Type (0, 1), BuildingBlock: MIFKUJ_clean_linker_0, # of connection points: 2
#     Edge 40, Type (0, 1), BuildingBlock: MIFKUJ_clean_linker_0, # of connection points: 2
#     Edge 41, Type (0, 1), BuildingBlock: MIFKUJ_clean_linker_0, # of connection points: 2
#     Edge 42, Type (0, 1), BuildingBlock: MIFKUJ_clean_linker_0, # of connection points: 2
#     Edge 43, Type (0, 1), BuildingBlock: MIFKUJ_clean_linker_0, # of connection points: 2
#     Edge 44, Type (0, 1), BuildingBlock: MIFKUJ_clean_linker_0, # of connection points: 2
#     Edge 45, Type (0, 1), BuildingBlock: MIFKUJ_clean_linker_0, # of connection points: 2
#     Edge 46, Type (0, 1), BuildingBlock: MIFKUJ_clean_linker_0, # of connection points: 2
#     Edge 47, Type (0, 1), BuildingBlock: MIFKUJ_clean_linker_0, # of connection points: 2
#     Edge 48, Type (0, 1), BuildingBlock: MIFKUJ_clean_linker_0, # of connection points: 2
#     Edge 49, Type (0, 1), BuildingBlock: MIFKUJ_clean_linker_0, # of connection points: 2
#     Edge 50, Type (0, 1), BuildingBlock: MIFKUJ_clean_linker_0, # of connection points: 2
#     Edge 51, Type (0, 1), BuildingBlock: MIFKUJ_clean_linker_0, # of connection points: 2
#     Edge 52, Type (0, 1), BuildingBlock: MIFKUJ_clean_linker_0, # of connection points: 2
#     Edge 53, Type (0, 1), BuildingBlock: MIFKUJ_clean_linker_0, # of connection points: 2
#     Edge 54, Type (0, 1), BuildingBlock: MIFKUJ_clean_linker_0, # of connection points: 2
#     Edge 55, Type (0, 1), BuildingBlock: MIFKUJ_clean_linker_0, # of connection points: 2
#     Edge 56, Type (0, 1), BuildingBlock: MIFKUJ_clean_linker_0, # of connection points: 2
#     Edge 57, Type (0, 1), BuildingBlock: MIFKUJ_clean_linker_0, # of connection points: 2
#     Edge 58, Type (0, 1), BuildingBlock: MIFKUJ_clean_linker_0, # of connection points: 2
#     Edge 59, Type (0, 1), BuildingBlock: MIFKUJ_clean_linker_0, # of connection points: 2
#     Edge 60, Type (0, 1), BuildingBlock: MIFKUJ_clean_linker_0, # of connection points: 2
#     Edge 61, Type (0, 1), BuildingBlock: MIFKUJ_clean_linker_0, # of connection points: 2
#     Edge 62, Type (0, 1), BuildingBlock: MIFKUJ_clean_linker_0, # of connection points: 2
#     Edge 63, Type (0, 1), BuildingBlock: MIFKUJ_clean_linker_0, # of connection points: 2
#     Edge 64, Type (0, 1), BuildingBlock: MIFKUJ_clean_linker_0, # of connection points: 2
#     Edge 65, Type (0, 1), BuildingBlock: MIFKUJ_clean_linker_0, # of connection points: 2
#     Edge 66, Type (0, 1), BuildingBlock: MIFKUJ_clean_linker_0, # of connection points: 2
#     Edge 67, Type (0, 1), BuildingBlock: MIFKUJ_clean_linker_0, # of connection points: 2
#     Edge 68, Type (0, 1), BuildingBlock: MIFKUJ_clean_linker_0, # of connection points: 2
#     Edge 69, Type (0, 1), BuildingBlock: MIFKUJ_clean_linker_0, # of connection points: 2
#     Edge 70, Type (0, 1), BuildingBlock: MIFKUJ_clean_linker_0, # of connection points: 2
#     Edge 71, Type (0, 1), BuildingBlock: MIFKUJ_clean_linker_0, # of connection points: 2
#     Edge 72, Type (0, 1), BuildingBlock: MIFKUJ_clean_linker_0, # of connection points: 2
#     Edge 73, Type (0, 1), BuildingBlock: MIFKUJ_clean_linker_0, # of connection points: 2
#     Edge 74, Type (0, 1), BuildingBlock: MIFKUJ_clean_linker_0, # of connection points: 2
#     Edge 75, Type (0, 1), BuildingBlock: MIFKUJ_clean_linker_0, # of connection points: 2
#     Edge 76, Type (0, 1), BuildingBlock: MIFKUJ_clean_linker_0, # of connection points: 2
#     Edge 77, Type (0, 1), BuildingBlock: MIFKUJ_clean_linker_0, # of connection points: 2
#     Edge 78, Type (0, 1), BuildingBlock: MIFKUJ_clean_linker_0, # of connection points: 2
#     Edge 79, Type (0, 1), BuildingBlock: MIFKUJ_clean_linker_0, # of connection points: 2
#     Edge 80, Type (0, 1), BuildingBlock: MIFKUJ_clean_linker_0, # of connection points: 2
# Relax obj value: 0.056
# Max RMSD: 0.196
# Mean RMSD: 0.137
data_MOF--net-eea--node1-NUHQIS_clean_sbu_0--node2-PAMTOO_clean_linker_0--edge1-MIFKUJ_clean_linker_0
_symmetry_space_group_name_H-M    P1
_symmetry_Int_Tables_number       1
_symmetry_cell_setting            triclinic
loop_
_symmetry_equiv_pos_as_xyz
'x, y, z'
_cell_length_a     71.356933
_cell_length_b     71.873231
_cell_length_c     85.255334
_cell_angle_alpha  93.338681
_cell_angle_beta   93.585578
_cell_angle_gamma 119.8151
loop_
_atom_site_label
_atom_site_type_symbol
_atom_site_fract_x
_atom_site_fract_y
_atom_site_fract_z
_atom_type_partial_charge
H0 H 0.26708 0.10778 0.43177 0.0
H1 H 0.26499 0.16616 0.42767 0.0
H2 H 0.24549 0.12004 0.38719 0.0
H3 H 0.26372 0.1632 0.37774 0.0
C4 C 0.26249 0.17147 0.38872 0.0
O5 O 0.24901 0.15635 0.39807 0.0
H6 H 0.27902 0.18154 0.39516 0.0
C7 C 0.26399 0.11813 0.42461 0.0
C8 C 0.25619 0.11147 0.40854 0.0
C9 C 0.26734 0.13789 0.43163 0.0
C10 C 0.263 0.15112 0.42239 0.0
C11 C 0.255 0.1445 0.40647 0.0
C12 C 0.25169 0.12484 0.39956 0.0
H13 H 0.9401 0.16534 0.43722 0.0
H14 H 0.88253 0.10265 0.4331 0.0
H15 H 0.92 0.12323 0.39381 0.0
H16 H 0.873 0.095 0.38294 0.0
C17 C 0.86795 0.08932 0.39463 0.0
O18 O 0.88573 0.092 0.40407 0.0
H19 H 0.86137 0.09911 0.39999 0.0
C20 C 0.92877 0.15029 0.43022 0.0
C21 C 0.93244 0.14641 0.41464 0.0
C22 C 0.91089 0.1346 0.43704 0.0
C23 C 0.89656 0.11486 0.42813 0.0
C24 C 0.89988 0.11091 0.4126 0.0
C25 C 0.9178 0.12653 0.40591 0.0
H26 H 0.86547 0.78035 0.447 0.0
H27 H 0.92836 0.78554 0.44976 0.0
H28 H 0.906 0.80447 0.40919 0.0
H29 H 0.93061 0.78357 0.40115 0.0
C30 C 0.94043 0.78673 0.41267 0.0
O31 O 0.93809 0.80114 0.42262 0.0
H32 H 0.93436 0.77119 0.41796 0.0
C33 C 0.88044 0.78462 0.44189 0.0
C34 C 0.88354 0.79266 0.42702 0.0
C35 C 0.8964 0.78187 0.4502 0.0
C36 C 0.91579 0.78741 0.44352 0.0
C37 C 0.91923 0.79566 0.42883 0.0
C38 C 0.90321 0.79835 0.42064 0.0
H39 H 0.07545 0.22732 0.58685 0.0
H40 H 0.13248 0.22108 0.58803 0.0
H41 H 0.09209 0.20062 0.62578 0.0
H42 H 0.13828 0.21885 0.63696 0.0
C43 C 0.14423 0.21769 0.6254 0.0
O44 O 0.12679 0.20381 0.6146 0.0
H45 H 0.15261 0.23414 0.62139 0.0
C46 C 0.08625 0.22283 0.59281 0.0
C47 C 0.08139 0.21383 0.60729 0.0
C48 C 0.10461 0.22556 0.58571 0.0
C49 C 0.11809 0.2189 0.59316 0.0
C50 C 0.11348 0.20989 0.60751 0.0
C51 C 0.09519 0.20732 0.61454 0.0
H52 H 0.75564 0.84349 0.60821 0.0
H53 H 0.75328 0.90188 0.6173 0.0
H54 H 0.77403 0.87723 0.65499 0.0
H55 H 0.75127 0.90131 0.66702 0.0
C56 C 0.75117 0.90795 0.65558 0.0
O57 O 0.76711 0.90801 0.64721 0.0
H58 H 0.73477 0.89763 0.64898 0.0
C59 C 0.75784 0.85679 0.61631 0.0
C60 C 0.7654 0.8584 0.63224 0.0
C61 C 0.75335 0.87234 0.61075 0.0
C62 C 0.75631 0.88951 0.62136 0.0
C63 C 0.76367 0.89111 0.63724 0.0
C64 C 0.76827 0.87569 0.64265 0.0
H65 H 0.14605 0.90923 0.5902 0.0
H66 H 0.08479 0.85074 0.59072 0.0
H67 H 0.11301 0.89561 0.63231 0.0
H68 H 0.09299 0.84965 0.63786 0.0
C69 C 0.07967 0.84248 0.62799 0.0
O70 O 0.08003 0.85881 0.62001 0.0
H71 H 0.08228 0.83149 0.61986 0.0
C72 C 0.13237 0.89883 0.59638 0.0
C73 C 0.13169 0.90504 0.6122 0.0
C74 C 0.11562 0.87924 0.58848 0.0
C75 C 0.09796 0.86583 0.59659 0.0
C76 C 0.0971 0.87182 0.61233 0.0
C77 C 0.11384 0.89136 0.62008 0.0
H78 H 0.92017 0.42986 0.76658 0.0
H79 H 0.91587 0.48692 0.76154 0.0
H80 H 0.89544 0.43901 0.72206 0.0
H81 H 0.91304 0.48172 0.71107 0.0
C82 C 0.91315 0.49057 0.72224 0.0
O83 O 0.89969 0.47604 0.73196 0.0
H84 H 0.93008 0.49978 0.72815 0.0
C85 C 0.91581 0.43937 0.7594 0.0
C86 C 0.90746 0.4319 0.74351 0.0
C87 C 0.91884 0.45913 0.76609 0.0
C88 C 0.91395 0.47177 0.75658 0.0
C89 C 0.90567 0.46448 0.74073 0.0
C90 C 0.90238 0.44463 0.73423 0.0
H91 H 0.59736 0.497 0.7649 0.0
H92 H 0.539 0.43474 0.75954 0.0
H93 H 0.57847 0.45534 0.72138 0.0
H94 H 0.53039 0.42905 0.71064 0.0
C95 C 0.52527 0.42126 0.7217 0.0
O96 O 0.54342 0.42429 0.73086 0.0
H97 H 0.51717 0.4288 0.72808 0.0
C98 C 0.58621 0.482 0.75781 0.0
C99 C 0.59057 0.47816 0.74242 0.0
C100 C 0.56751 0.46661 0.76411 0.0
C101 C 0.55328 0.44707 0.75488 0.0
C102 C 0.5573 0.44316 0.73956 0.0
C103 C 0.57581 0.45862 0.73334 0.0
H104 H 0.52843 0.10632 0.77783 0.0
H105 H 0.59049 0.11002 0.77803 0.0
H106 H 0.5694 0.13578 0.74114 0.0
H107 H 0.59079 0.11259 0.72981 0.0
C108 C 0.6014 0.11478 0.74071 0.0
O109 O 0.60033 0.12877 0.75193 0.0
H110 H 0.59529 0.09867 0.74512 0.0
C111 C 0.54342 0.11125 0.77253 0.0
C112 C 0.54698 0.12182 0.75873 0.0
C113 C 0.55897 0.10697 0.77962 0.0
C114 C 0.57836 0.1133 0.77275 0.0
C115 C 0.58192 0.12336 0.75876 0.0
C116 C 0.56632 0.12771 0.75182 0.0
H117 H 0.74588 0.56644 0.92377 0.0
H118 H 0.80215 0.55893 0.92527 0.0
H119 H 0.76009 0.53704 0.96198 0.0
H120 H 0.80634 0.55887 0.97368 0.0
C121 C 0.81291 0.55601 0.96288 0.0
O122 O 0.7959 0.54174 0.95194 0.0
H123 H 0.8225 0.57179 0.95806 0.0
C124 C 0.75595 0.56094 0.92951 0.0
C125 C 0.7504 0.55127 0.94369 0.0
C126 C 0.77443 0.5636 0.92265 0.0
C127 C 0.78762 0.5567 0.9302 0.0
C128 C 0.78257 0.5475 0.94446 0.0
C129 C 0.76394 0.54458 0.95109 0.0
H130 H 0.42957 0.18132 0.94324 0.0
H131 H 0.43071 0.24183 0.94963 0.0
H132 H 0.44942 0.21802 0.98896 0.0
H133 H 0.427 0.24305 0.99889 0.0
C134 C 0.42812 0.25013 0.98749 0.0
O135 O 0.44402 0.24918 0.97969 0.0
H136 H 0.41196 0.24067 0.9804 0.0
C137 C 0.43254 0.19539 0.95078 0.0
C138 C 0.44003 0.19773 0.96681 0.0
C139 C 0.42907 0.21116 0.94436 0.0
C140 C 0.43296 0.22929 0.95429 0.0
C141 C 0.44013 0.23158 0.97032 0.0
C142 C 0.44377 0.21595 0.97654 0.0
H143 H 0.81491 0.24893 0.92347 0.0
H144 H 0.75522 0.18923 0.92464 0.0
H145 H 0.77968 0.23706 0.96452 0.0
H146 H 0.76233 0.19154 0.97226 0.0
C147 C 0.74953 0.18319 0.96211 0.0
O148 O 0.74898 0.19843 0.95326 0.0
H149 H 0.75353 0.17259 0.95476 0.0
C150 C 0.80096 0.23884 0.92953 0.0
C151 C 0.79931 0.24591 0.94486 0.0
C152 C 0.78514 0.21853 0.92206 0.0
C153 C 0.76763 0.20494 0.93019 0.0
C154 C 0.76592 0.21161 0.94554 0.0
C155 C 0.78158 0.23204 0.95279 0.0
H156 H 0.59793 0.77032 0.09419 0.0
H157 H 0.59829 0.83038 0.09354 0.0
H158 H 0.58124 0.78876 0.05064 0.0
H159 H 0.60588 0.83568 0.046 0.0
C160 C 0.60175 0.84184 0.05674 0.0
O161 O 0.5857 0.8248 0.06339 0.0
H162 H 0.61671 0.8507 0.06521 0.0
C163 C 0.59612 0.78196 0.08771 0.0
C164 C 0.58953 0.77725 0.07139 0.0
C165 C 0.59936 0.80107 0.09588 0.0
C166 C 0.5959 0.81554 0.08751 0.0
C167 C 0.58951 0.81107 0.07124 0.0
C168 C 0.5863 0.79201 0.06322 0.0
H169 H 0.27112 0.83829 0.1042 0.0
H170 H 0.21507 0.77439 0.10024 0.0
H171 H 0.25516 0.79433 0.06237 0.0
H172 H 0.20779 0.76555 0.05092 0.0
C173 C 0.20249 0.75917 0.0624 0.0
O174 O 0.22052 0.76305 0.07215 0.0
H175 H 0.19442 0.76751 0.06771 0.0
C176 C 0.26072 0.82268 0.09759 0.0
C177 C 0.26566 0.81828 0.08257 0.0
C178 C 0.2424 0.80704 0.1041 0.0
C179 C 0.2291 0.78682 0.09543 0.0
C180 C 0.23374 0.7824 0.08045 0.0
C181 C 0.25195 0.798 0.07406 0.0
H182 H 0.19783 0.44579 0.11395 0.0
H183 H 0.25988 0.44942 0.11469 0.0
H184 H 0.23794 0.47191 0.07616 0.0
H185 H 0.25773 0.44601 0.06663 0.0
C186 C 0.26946 0.45015 0.07728 0.0
O187 O 0.26872 0.46528 0.08756 0.0
H188 H 0.26457 0.43509 0.08302 0.0
C189 C 0.21281 0.45061 0.1087 0.0
C190 C 0.21584 0.45967 0.09421 0.0
C191 C 0.2286 0.44701 0.11631 0.0
C192 C 0.24748 0.45206 0.10906 0.0
C193 C 0.2506 0.46074 0.09452 0.0
C194 C 0.23498 0.46475 0.08722 0.0
H195 H 0.41508 0.90144 0.25703 0.0
H196 H 0.471 0.89328 0.25769 0.0
H197 H 0.42961 0.87162 0.29474 0.0
H198 H 0.47602 0.89182 0.30663 0.0
C199 C 0.4824 0.89032 0.29534 0.0
O200 O 0.46529 0.87634 0.28434 0.0
H201 H 0.49112 0.90668 0.29122 0.0
C202 C 0.42501 0.89553 0.26241 0.0
C203 C 0.41964 0.88582 0.2766 0.0
C204 C 0.44345 0.89832 0.25537 0.0
C205 C 0.4568 0.89153 0.26287 0.0
C206 C 0.45194 0.88227 0.27712 0.0
C207 C 0.43334 0.87923 0.28387 0.0
H208 H 0.09335 0.51482 0.2795 0.0
H209 H 0.09291 0.5745 0.28532 0.0
H210 H 0.11204 0.55171 0.32512 0.0
H211 H 0.08948 0.57623 0.3343 0.0
C212 C 0.09132 0.58409 0.32319 0.0
O213 O 0.107 0.5828 0.31532 0.0
H214 H 0.07532 0.57558 0.31584 0.0
C215 C 0.09551 0.52854 0.28706 0.0
C216 C 0.10287 0.53107 0.30315 0.0
C217 C 0.09176 0.54401 0.28046 0.0
C218 C 0.09568 0.56234 0.29014 0.0
C219 C 0.10291 0.56495 0.30619 0.0
C220 C 0.10648 0.54941 0.31267 0.0
H221 H 0.47979 0.57815 0.25537 0.0
H222 H 0.42026 0.5187 0.25788 0.0
H223 H 0.44755 0.56658 0.29784 0.0
H224 H 0.4289 0.52148 0.30592 0.0
C225 C 0.4161 0.51317 0.29576 0.0
O226 O 0.41558 0.52838 0.28687 0.0
H227 H 0.42011 0.50252 0.28847 0.0
C228 C 0.46632 0.56805 0.26184 0.0
C229 C 0.46575 0.57509 0.27746 0.0
C230 C 0.45006 0.54775 0.25465 0.0
C231 C 0.43305 0.53435 0.26326 0.0
C232 C 0.43229 0.54117 0.27881 0.0
C233 C 0.44855 0.56145 0.28587 0.0
Tb234 Tb 0.4938 0.9974 0.99942 0.0
Eu235 Eu 0.50752 0.01643 0.03711 0.0
C236 C 0.51036 0.97602 0.02379 0.0
C237 C 0.46006 0.97776 0.02382 0.0
C238 C 0.49087 0.99593 0.95553 0.0
C239 C 0.51793 0.01734 0.93826 0.0
C240 C 0.51266 0.00782 0.95237 0.0
C241 C 0.47453 0.99405 0.94439 0.0
C242 C 0.47982 0.00374 0.93032 0.0
C243 C 0.50159 0.01538 0.92701 0.0
C244 C 0.48495 0.9851 0.97016 0.0
O245 O 0.48124 0.01913 1.00401 0.0
O246 O 0.50602 0.04215 0.02436 0.0
O247 O 0.53842 0.03002 0.02528 0.0
O248 O 0.52382 0.02806 1.00008 0.0
C249 C 0.49128 0.0379 0.0126 0.0
O250 O 0.50158 0.02981 0.05865 0.0
O251 O 0.52881 0.02431 0.0589 0.0
O252 O 0.50415 0.98368 0.0354 0.0
O253 O 0.51148 0.98279 0.0097 0.0
O254 O 0.46829 0.97332 0.01176 0.0
O255 O 0.47108 0.99594 0.03303 0.0
C256 C 0.54059 0.03571 0.01084 0.0
O257 O 0.50052 0.98511 0.979 0.0
O258 O 0.47246 0.98901 0.97861 0.0
C259 C 0.51048 0.0181 0.08209 0.0
C260 C 0.4985 0.99759 0.11009 0.0
C261 C 0.48732 0.00728 0.10352 0.0
C262 C 0.4933 0.0175 0.08972 0.0
C263 C 0.52171 0.00848 0.0887 0.0
C264 C 0.51577 0.99832 0.10252 0.0
C265 C 0.5167 0.02881 0.06739 0.0
H266 H 0.53483 0.02586 0.93606 0.0
H267 H 0.52569 0.00964 0.9607 0.0
H268 H 0.45762 0.98501 0.94656 0.0
H269 H 0.46681 0.00216 0.92208 0.0
H270 H 0.47416 0.00728 0.10919 0.0
H271 H 0.48447 0.02496 0.08504 0.0
H272 H 0.53509 0.00871 0.0832 0.0
H273 H 0.52458 0.99083 0.10718 0.0
Tb274 Tb 0.01642 0.49792 1.00312 0.0
Eu275 Eu 0.99948 0.4913 0.03886 0.0
C276 C 0.03766 0.53551 0.0306 0.0
C277 C 0.03955 0.48555 0.03017 0.0
C278 C 0.02026 0.50108 0.9599 0.0
C279 C 0.02469 0.50705 0.93236 0.0
C280 C 0.0337 0.50911 0.94782 0.0
C281 C 0.99763 0.49065 0.9564 0.0
C282 C 0.98857 0.48855 0.94092 0.0
C283 C 1.00203 0.49694 0.92877 0.0
C284 C 0.0301 0.50495 0.97622 0.0
O285 O 0.99311 0.46352 1.00201 0.0
O286 O 0.97424 0.46207 0.02337 0.0
O287 O 0.98239 0.50552 0.02523 0.0
O288 O 0.98481 0.4954 0.99969 0.0
C289 C 0.97642 0.45333 0.01016 0.0
O290 O 0.98717 0.47214 0.05864 0.0
O291 O 0.99163 0.50434 0.05949 0.0
O292 O 0.03189 0.52174 0.0412 0.0
O293 O 0.0285 0.52946 0.016 0.0
O294 O 0.04159 0.49641 0.01788 0.0
O295 O 0.02269 0.4788 0.03828 0.0
C296 C 0.97602 0.50215 0.01001 0.0
O297 O 0.02777 0.51864 0.98535 0.0
O298 O 0.02652 0.48801 0.98322 0.0
C299 C 0.99683 0.49227 0.08353 0.0
C300 C 0.01538 0.50169 0.11514 0.0
C301 C 0.99271 0.48948 0.11144 0.0
C302 C 0.98353 0.48483 0.09576 0.0
C303 C 0.01947 0.50431 0.08708 0.0
C304 C 0.02868 0.50904 0.10279 0.0
C305 C 0.98684 0.48762 0.06718 0.0
H306 H 0.03545 0.51337 0.92322 0.0
H307 H 0.05121 0.51725 0.95037 0.0
H308 H 0.98704 0.48451 0.96567 0.0
H309 H 0.97108 0.48085 0.93854 0.0
H310 H 0.98202 0.48382 0.12069 0.0
H311 H 0.96602 0.47556 0.09318 0.0
H312 H 0.02996 0.51011 0.07771 0.0
H313 H 0.0462 0.51828 0.10526 0.0
Tb314 Tb 0.52522 0.52038 0.03018 0.0
Eu315 Eu 0.50691 0.51849 0.99298 0.0
C316 C 0.50159 0.47704 0.00802 0.0
C317 C 0.5549 0.5256 1.00294 0.0
C318 C 0.52552 0.51966 0.07339 0.0
C319 C 0.52257 0.51186 0.10075 0.0
C320 C 0.53281 0.514 0.08695 0.0
C321 C 0.50751 0.52262 0.07366 0.0
C322 C 0.49732 0.52057 0.08743 0.0
C323 C 0.50492 0.51545 0.1012 0.0
C324 C 0.53709 0.52311 0.05917 0.0
O325 O 0.54063 0.55275 0.02275 0.0
O326 O 0.5122 0.54874 0.00642 0.0
O327 O 0.47743 0.5065 0.0063 0.0
O328 O 0.49438 0.51925 0.03171 0.0
C329 C 0.52972 0.56097 0.0161 0.0
O330 O 0.50915 0.53541 0.97219 0.0
O331 O 0.48534 0.50139 0.97137 0.0
O332 O 0.50715 0.48778 0.9956 0.0
O333 O 0.50294 0.4866 0.022 0.0
O334 O 0.54948 0.5188 0.01685 0.0
O335 O 0.54259 0.52975 0.99332 0.0
C336 C 0.47695 0.51059 0.02145 0.0
O337 O 0.53121 0.50611 0.04935 0.0
O338 O 0.53935 0.53936 0.05181 0.0
C339 C 0.50157 0.5139 0.94778 0.0
C340 C 0.51337 0.50608 0.91807 0.0
C341 C 0.52667 0.52562 0.92759 0.0
C342 C 0.52085 0.5295 0.94226 0.0
C343 C 0.48822 0.49442 0.93825 0.0
C344 C 0.49408 0.49051 0.9236 0.0
C345 C 0.49513 0.5179 0.96325 0.0
H346 H 0.52889 0.50808 0.11122 0.0
H347 H 0.54667 0.51163 0.08696 0.0
H348 H 0.50155 0.52695 0.06332 0.0
H349 H 0.4836 0.52316 0.08735 0.0
H350 H 0.54145 0.53812 0.92361 0.0
H351 H 0.53146 0.54479 0.94921 0.0
H352 H 0.47322 0.48214 0.94214 0.0
H353 H 0.48357 0.47517 0.91667 0.0
Tb354 Tb 0.15926 0.33126 0.33279 0.0
Eu355 Eu 0.17235 0.34976 0.37058 0.0
C356 C 0.1762 0.31026 0.35696 0.0
C357 C 0.12542 0.31072 0.35709 0.0
C358 C 0.15592 0.32881 0.28905 0.0
C359 C 0.15767 0.32631 0.26072 0.0
C360 C 0.15121 0.31636 0.27456 0.0
C361 C 0.16693 0.35138 0.28956 0.0
C362 C 0.17335 0.36136 0.27572 0.0
C363 C 0.16898 0.34893 0.26115 0.0
C364 C 0.15058 0.31819 0.30364 0.0
O365 O 0.14691 0.35328 0.33695 0.0
O366 O 0.17056 0.37549 0.35814 0.0
O367 O 0.20343 0.36448 0.35888 0.0
O368 O 0.18894 0.36211 0.33353 0.0
C369 C 0.15638 0.37165 0.34607 0.0
O370 O 0.16632 0.36307 0.39209 0.0
O371 O 0.19305 0.35678 0.39256 0.0
O372 O 0.16906 0.31704 0.36846 0.0
O373 O 0.17815 0.31797 0.3432 0.0
O374 O 0.13401 0.30676 0.34506 0.0
O375 O 0.13598 0.32891 0.36631 0.0
C376 C 0.20562 0.37006 0.34439 0.0
O377 O 0.16706 0.31994 0.31242 0.0
O378 O 0.1377 0.32155 0.31205 0.0
C379 C 0.17419 0.35058 0.41507 0.0
C380 C 0.16114 0.32895 0.44236 0.0
C381 C 0.17385 0.35159 0.44355 0.0
C382 C 0.18034 0.3623 0.43 0.0
C383 C 0.16137 0.32802 0.41378 0.0
C384 C 0.15493 0.31729 0.42731 0.0
C385 C 0.18124 0.36188 0.4009 0.0
H386 H 0.1538 0.31628 0.24968 0.0
H387 H 0.14281 0.29892 0.27399 0.0
H388 H 0.17088 0.36125 0.3007 0.0
H389 H 0.18222 0.3788 0.27648 0.0
H390 H 0.17909 0.36102 0.45497 0.0
H391 H 0.19025 0.37972 0.43119 0.0
H392 H 0.15638 0.31872 0.4023 0.0
H393 H 0.14492 0.29988 0.42598 0.0
Tb394 Tb 0.68329 0.82768 0.33538 0.0
Eu395 Eu 0.66444 0.81997 0.37009 0.0
C396 C 0.70452 0.86486 0.36299 0.0
C397 C 0.7055 0.81554 0.36304 0.0
C398 C 0.68711 0.83149 0.29235 0.0
C399 C 0.69111 0.83444 0.26446 0.0
C400 C 0.70019 0.83675 0.27993 0.0
C401 C 0.66484 0.82411 0.28923 0.0
C402 C 0.65571 0.82178 0.27373 0.0
C403 C 0.66874 0.82675 0.26115 0.0
C404 C 0.69689 0.83366 0.30847 0.0
O405 O 0.65191 0.79818 0.33138 0.0
O406 O 0.65011 0.78737 0.35624 0.0
O407 O 0.63893 0.82017 0.35344 0.0
O408 O 0.66145 0.84076 0.33575 0.0
C409 C 0.64382 0.78311 0.34102 0.0
O410 O 0.656 0.80186 0.39063 0.0
O411 O 0.65001 0.82848 0.38902 0.0
O412 O 0.68646 0.85582 0.36979 0.0
O413 O 0.70803 0.85425 0.3516 0.0
O414 O 0.69864 0.81222 0.34789 0.0
O415 O 0.69712 0.82252 0.37353 0.0
C416 C 0.64288 0.83257 0.34195 0.0
O417 O 0.69765 0.84877 0.31818 0.0
O418 O 0.69043 0.81575 0.31494 0.0
C419 C 0.65919 0.8221 0.41431 0.0
C420 C 0.67649 0.83613 0.44612 0.0
C421 C 0.65392 0.82325 0.44208 0.0
C422 C 0.64536 0.81629 0.42629 0.0
C423 C 0.68169 0.83512 0.4182 0.0
C424 C 0.69029 0.84206 0.434 0.0
C425 C 0.64999 0.81424 0.39784 0.0
H426 H 0.70166 0.83878 0.25509 0.0
H427 H 0.71743 0.8426 0.28219 0.0
H428 H 0.65453 0.82001 0.29876 0.0
H429 H 0.63842 0.81569 0.27156 0.0
H430 H 0.64289 0.81815 0.45115 0.0
H431 H 0.62795 0.80619 0.42345 0.0
H432 H 0.69257 0.83978 0.40902 0.0
H433 H 0.70771 0.85214 0.43672 0.0
Tb434 Tb 0.19787 0.85673 0.36745 0.0
Eu435 Eu 0.17719 0.85298 0.33089 0.0
C436 C 0.17326 0.81253 0.34644 0.0
C437 C 0.22578 0.86074 0.33905 0.0
C438 C 0.20182 0.85684 0.41097 0.0
C439 C 0.17053 0.83749 0.42552 0.0
C440 C 0.18065 0.83964 0.41165 0.0
C441 C 0.21278 0.87165 0.42433 0.0
C442 C 0.20259 0.86966 0.4381 0.0
C443 C 0.1813 0.85272 0.43877 0.0
C444 C 0.21196 0.86085 0.3961 0.0
O445 O 0.21305 0.8885 0.35906 0.0
O446 O 0.18346 0.88386 0.34395 0.0
O447 O 0.1488 0.84059 0.34538 0.0
O448 O 0.16752 0.85654 0.36983 0.0
C449 C 0.20167 0.89649 0.35282 0.0
O450 O 0.17748 0.8689 0.30986 0.0
O451 O 0.15423 0.83491 0.3101 0.0
O452 O 0.17831 0.8228 0.33378 0.0
O453 O 0.17523 0.82264 0.36033 0.0
O454 O 0.22155 0.85509 0.35339 0.0
O455 O 0.21256 0.86388 0.32956 0.0
C456 C 0.14931 0.84654 0.36035 0.0
O457 O 0.20696 0.84411 0.38622 0.0
O458 O 0.21169 0.87623 0.38895 0.0
C459 C 0.1688 0.84668 0.28619 0.0
C460 C 0.18146 0.84007 0.25668 0.0
C461 C 0.16521 0.84565 0.25762 0.0
C462 C 0.15895 0.84894 0.27227 0.0
C463 C 0.18488 0.84096 0.28535 0.0
C464 C 0.19116 0.83767 0.27072 0.0
C465 C 0.16285 0.85109 0.30155 0.0
H466 H 0.15404 0.8244 0.42571 0.0
H467 H 0.17174 0.82821 0.40138 0.0
H468 H 0.22904 0.88511 0.42398 0.0
H469 H 0.2113 0.88151 0.4482 0.0
H470 H 0.15763 0.84792 0.24707 0.0
H471 H 0.14662 0.8535 0.27274 0.0
H472 H 0.19267 0.83918 0.29603 0.0
H473 H 0.20353 0.83314 0.2704 0.0
Tb474 Tb 0.82433 0.66162 0.66612 0.0
Eu475 Eu 0.8365 0.68028 0.7039 0.0
C476 C 0.84051 0.64053 0.69093 0.0
C477 C 0.78978 0.64044 0.68994 0.0
C478 C 0.82391 0.66079 0.62228 0.0
C479 C 0.84934 0.67453 0.60241 0.0
C480 C 0.84308 0.66423 0.61612 0.0
C481 C 0.811 0.66771 0.61427 0.0
C482 C 0.81726 0.67801 0.60051 0.0
C483 C 0.8365 0.68152 0.5944 0.0
C484 C 0.81738 0.64973 0.63681 0.0
O485 O 0.81048 0.68229 0.67023 0.0
O486 O 0.83419 0.70549 0.69098 0.0
O487 O 0.86781 0.69431 0.69253 0.0
O488 O 0.85364 0.69293 0.66736 0.0
C489 C 0.81973 0.70094 0.67895 0.0
O490 O 0.82952 0.69296 0.72529 0.0
O491 O 0.85775 0.68903 0.72581 0.0
O492 O 0.83354 0.64772 0.7023 0.0
O493 O 0.84253 0.64791 0.67703 0.0
O494 O 0.79849 0.63683 0.67782 0.0
O495 O 0.80021 0.6584 0.69947 0.0
C496 C 0.87024 0.70048 0.67824 0.0
O497 O 0.83287 0.65033 0.64615 0.0
O498 O 0.80394 0.65274 0.64479 0.0
C499 C 0.83935 0.68246 0.74898 0.0
C500 C 0.82815 0.66259 0.7773 0.0
C501 C 0.81788 0.6735 0.77137 0.0
C502 C 0.82347 0.68339 0.7574 0.0
C503 C 0.84973 0.67168 0.75496 0.0
C504 C 0.84418 0.66186 0.76894 0.0
C505 C 0.84511 0.6929 0.73415 0.0
H506 H 0.86439 0.6772 0.59817 0.0
H507 H 0.85335 0.65898 0.6219 0.0
H508 H 0.79601 0.6651 0.61859 0.0
H509 H 0.80683 0.68291 0.59452 0.0
H510 H 0.8053 0.6742 0.7774 0.0
H511 H 0.81529 0.69169 0.75316 0.0
H512 H 0.8622 0.67082 0.74889 0.0
H513 H 0.8527 0.65393 0.7733 0.0
Tb514 Tb 0.34294 0.15223 0.66827 0.0
Eu515 Eu 0.32894 0.15435 0.70408 0.0
C516 C 0.3667 0.19479 0.69112 0.0
C517 C 0.36741 0.14425 0.69725 0.0
C518 C 0.34599 0.15754 0.62542 0.0
C519 C 0.35379 0.16802 0.59902 0.0
C520 C 0.35999 0.16353 0.61354 0.0
C521 C 0.32597 0.15679 0.62284 0.0
C522 C 0.31967 0.16108 0.60827 0.0
C523 C 0.33339 0.16642 0.59614 0.0
C524 C 0.35204 0.15134 0.64019 0.0
O525 O 0.32521 0.11946 0.67476 0.0
O526 O 0.30254 0.12426 0.68989 0.0
O527 O 0.31375 0.16904 0.68897 0.0
O528 O 0.31255 0.15244 0.66483 0.0
C529 C 0.30647 0.11173 0.68057 0.0
O530 O 0.31542 0.13837 0.72492 0.0
O531 O 0.32389 0.17169 0.72363 0.0
O532 O 0.36173 0.18345 0.70325 0.0
O533 O 0.35626 0.18605 0.67702 0.0
O534 O 0.36789 0.1504 0.68296 0.0
O535 O 0.35253 0.1422 0.70649 0.0
C536 C 0.30607 0.16294 0.67403 0.0
O537 O 0.36431 0.16699 0.65112 0.0
O538 O 0.33631 0.13514 0.64597 0.0
C539 C 0.32734 0.16112 0.74874 0.0
C540 C 0.34608 0.17183 0.78035 0.0
C541 C 0.32358 0.16312 0.77675 0.0
C542 C 0.31432 0.15784 0.76107 0.0
C543 C 0.34976 0.16964 0.75219 0.0
C544 C 0.35908 0.17496 0.76789 0.0
C545 C 0.31731 0.1557 0.73238 0.0
H546 H 0.36459 0.17188 0.58982 0.0
H547 H 0.37551 0.16424 0.61536 0.0
H548 H 0.31499 0.1524 0.63193 0.0
H549 H 0.30394 0.1599 0.60642 0.0
H550 H 0.31307 0.16017 0.78606 0.0
H551 H 0.29696 0.15118 0.75857 0.0
H552 H 0.36003 0.17226 0.74275 0.0
H553 H 0.37647 0.18181 0.77026 0.0
Tb554 Tb 0.85677 0.17591 0.69851 0.0
Eu555 Eu 0.84148 0.18066 0.66248 0.0
C556 C 0.83354 0.13585 0.67348 0.0
C557 C 0.8867 0.18334 0.67124 0.0
C558 C 0.85869 0.17452 0.74198 0.0
C559 C 0.8322 0.15924 0.761 0.0
C560 C 0.83998 0.15711 0.74676 0.0
C561 C 0.86961 0.19399 0.7519 0.0
C562 C 0.8618 0.19611 0.76614 0.0
C563 C 0.84298 0.17877 0.77083 0.0
C564 C 0.86667 0.17246 0.7267 0.0
O565 O 0.85545 0.20542 0.69994 0.0
O566 O 0.86369 0.21381 0.67501 0.0
O567 O 0.81699 0.18162 0.67738 0.0
O568 O 0.82197 0.16417 0.69762 0.0
C569 C 0.86284 0.21961 0.68967 0.0
O570 O 0.84831 0.20066 0.64301 0.0
O571 O 0.81999 0.16871 0.64037 0.0
O572 O 0.82486 0.14526 0.6655 0.0
O573 O 0.85014 0.14688 0.68427 0.0
O574 O 0.88596 0.18917 0.68602 0.0
O575 O 0.86951 0.17504 0.66088 0.0
C576 C 0.81051 0.1712 0.68992 0.0
O577 O 0.85313 0.15618 0.71659 0.0
O578 O 0.87719 0.19003 0.71979 0.0
C579 C 0.83937 0.1811 0.61785 0.0
C580 C 0.85379 0.17366 0.58926 0.0
C581 C 0.86222 0.19474 0.5965 0.0
C582 C 0.85502 0.19841 0.61058 0.0
C583 C 0.83075 0.16002 0.61056 0.0
C584 C 0.83787 0.15635 0.59641 0.0
C585 C 0.83286 0.18531 0.63321 0.0
H586 H 0.81755 0.14564 0.7642 0.0
H587 H 0.8312 0.14183 0.73947 0.0
H588 H 0.88419 0.20762 0.74865 0.0
H589 H 0.87066 0.21127 0.77358 0.0
H590 H 0.87467 0.20844 0.59144 0.0
H591 H 0.86194 0.21484 0.61591 0.0
H592 H 0.81859 0.14631 0.6158 0.0
H593 H 0.83075 0.13994 0.59101 0.0
H594 H 0.28038 0.86155 0.08294 0.0
H595 H 0.31242 0.88865 0.07178 0.0
H596 H 0.32645 0.83946 0.05523 0.0
H597 H 0.29482 0.81239 0.06677 0.0
H598 H 0.36251 0.87469 0.06901 0.0
H599 H 0.30421 0.85982 0.02982 0.0
H600 H 0.26912 0.8559 0.01983 0.0
H601 H 0.29278 0.92249 0.03522 0.0
H602 H 0.32793 0.92674 0.04551 0.0
H603 H 0.43858 0.93417 0.01594 0.0
H604 H 0.40415 0.90723 0.0247 0.0
H605 H 0.39807 0.95781 0.04925 0.0
H606 H 0.43268 0.98484 0.04083 0.0
H607 H 0.35788 0.92222 0.03085 0.0
H608 H 0.41477 0.93646 0.07148 0.0
H609 H 0.4503 0.94111 0.08113 0.0
H610 H 0.42908 0.87602 0.06267 0.0
H611 H 0.39354 0.87112 0.05276 0.0
C612 C 0.29039 0.85653 0.07703 0.0
C613 C 0.28504 0.8348 0.07572 0.0
C614 C 0.30856 0.872 0.07052 0.0
C615 C 0.32169 0.86604 0.06251 0.0
C616 C 0.3165 0.8444 0.0613 0.0
C617 C 0.29833 0.82893 0.0678 0.0
C618 C 0.34106 0.8824 0.05563 0.0
C619 C 0.36139 0.88484 0.0605 0.0
C620 C 0.33974 0.89603 0.04479 0.0
C621 C 0.31864 0.89354 0.03858 0.0
C622 C 0.30188 0.87358 0.03119 0.0
C623 C 0.28198 0.87131 0.02545 0.0
C624 C 0.2787 0.88892 0.02693 0.0
C625 C 0.29533 0.90886 0.03411 0.0
C626 C 0.31525 0.91121 0.03988 0.0
C627 C 0.42978 0.93957 0.02303 0.0
C628 C 0.43836 0.96159 0.02778 0.0
C629 C 0.41015 0.92418 0.02802 0.0
C630 C 0.39866 0.9306 0.03762 0.0
C631 C 0.4067 0.9526 0.04181 0.0
C632 C 0.42651 0.96797 0.03706 0.0
C633 C 0.37908 0.91428 0.0442 0.0
C634 C 0.35883 0.91194 0.03931 0.0
C635 C 0.38042 0.90076 0.05505 0.0
C636 C 0.4016 0.9035 0.06125 0.0
C637 C 0.41776 0.9232 0.06939 0.0
C638 C 0.43789 0.92588 0.07493 0.0
C639 C 0.442 0.90891 0.07248 0.0
C640 C 0.42593 0.88919 0.06455 0.0
C641 C 0.40577 0.88643 0.05899 0.0
H642 H 0.45761 0.91106 0.07677 0.0
H643 H 0.26329 0.88713 0.02247 0.0
H644 H 0.20292 0.4556 0.0624 0.0
H645 H 0.17386 0.4604 0.05011 0.0
H646 H 0.16039 0.476 0.09606 0.0
H647 H 0.19007 0.47252 0.10845 0.0
H648 H 0.12305 0.44161 0.07444 0.0
H649 H 0.18374 0.51492 0.07703 0.0
H650 H 0.22036 0.54245 0.07156 0.0
H651 H 0.20169 0.52464 0.02171 0.0
H652 H 0.16502 0.49676 0.02691 0.0
H653 H 0.04894 0.47748 0.05965 0.0
H654 H 0.07921 0.47284 0.06899 0.0
H655 H 0.10076 0.48022 0.02238 0.0
H656 H 0.07097 0.48588 0.01315 0.0
H657 H 0.13423 0.50109 0.0424 0.0
H658 H 0.0741 0.42964 0.03816 0.0
H659 H 0.03751 0.40034 0.04201 0.0
H660 H 0.05447 0.41136 0.09224 0.0
H661 H 0.09109 0.44093 0.08872 0.0
C662 C 0.19411 0.46048 0.06992 0.0
C663 C 0.19884 0.46348 0.08648 0.0
C664 C 0.17739 0.46305 0.06285 0.0
C665 C 0.16494 0.46841 0.07221 0.0
C666 C 0.16971 0.47166 0.08866 0.0
C667 C 0.18662 0.46949 0.09571 0.0
C668 C 0.14656 0.47019 0.06496 0.0
C669 C 0.12542 0.45469 0.06754 0.0
C670 C 0.14973 0.4868 0.05549 0.0
C671 C 0.17174 0.50358 0.05237 0.0
C672 C 0.18751 0.51672 0.06491 0.0
C673 C 0.20826 0.53242 0.06186 0.0
C674 C 0.21337 0.53525 0.0463 0.0
C675 C 0.19772 0.52241 0.03375 0.0
C676 C 0.17695 0.50666 0.03675 0.0
C677 C 0.06003 0.47797 0.05135 0.0
C678 C 0.05747 0.4819 0.03563 0.0
C679 C 0.07732 0.47521 0.05669 0.0
C680 C 0.09211 0.47572 0.04633 0.0
C681 C 0.08958 0.47969 0.03061 0.0
C682 C 0.0725 0.48287 0.02533 0.0
C683 C 0.11045 0.47263 0.05204 0.0
C684 C 0.13166 0.48784 0.04917 0.0
C685 C 0.10729 0.45544 0.06098 0.0
C686 C 0.08529 0.43763 0.06317 0.0
C687 C 0.06998 0.42592 0.05004 0.0
C688 C 0.04925 0.40924 0.05216 0.0
C689 C 0.04366 0.40402 0.06736 0.0
C690 C 0.05882 0.41543 0.08047 0.0
C691 C 0.07958 0.43214 0.07842 0.0
H692 H 0.02759 0.3911 0.06898 0.0
H693 H 0.22944 0.54742 0.04395 0.0
H694 H 0.55525 0.74992 0.04977 0.0
H695 H 0.54641 0.71429 0.038 0.0
H696 H 0.60448 0.72164 0.0631 0.0
H697 H 0.61375 0.75756 0.07457 0.0
H698 H 0.59751 0.70251 0.0331 0.0
H699 H 0.55692 0.69367 0.07758 0.0
H700 H 0.53207 0.69862 0.09388 0.0
H701 H 0.48081 0.66737 0.05584 0.0
H702 H 0.50547 0.66253 0.03922 0.0
H703 H 0.56709 0.59182 0.03357 0.0
H704 H 0.57828 0.62964 0.04055 0.0
H705 H 0.52026 0.62027 0.01397 0.0
H706 H 0.50889 0.58241 0.00695 0.0
H707 H 0.52707 0.64069 0.04363 0.0
H708 H 0.56818 0.64783 0.99967 0.0
H709 H 0.59355 0.64261 0.98419 0.0
H710 H 0.64444 0.67652 0.02221 0.0
H711 H 0.61927 0.68169 0.03802 0.0
C712 C 0.56636 0.74413 0.05254 0.0
C713 C 0.58512 0.75648 0.06319 0.0
C714 C 0.5612 0.72371 0.04591 0.0
C715 C 0.57464 0.71522 0.04986 0.0
C716 C 0.59385 0.72787 0.05995 0.0
C717 C 0.59902 0.74829 0.06659 0.0
C718 C 0.56811 0.69276 0.04414 0.0
C719 C 0.5822 0.68896 0.03551 0.0
C720 C 0.548 0.67514 0.04711 0.0
C721 C 0.53311 0.67796 0.05709 0.0
C722 C 0.5404 0.68802 0.07264 0.0
C723 C 0.52634 0.69078 0.08195 0.0
C724 C 0.50489 0.68337 0.07588 0.0
C725 C 0.49744 0.67314 0.06051 0.0
C726 C 0.51145 0.67037 0.05114 0.0
C727 C 0.55677 0.59783 0.0291 0.0
C728 C 0.53709 0.58411 0.0197 0.0
C729 C 0.56324 0.61947 0.03305 0.0
C730 C 0.55016 0.62777 0.02768 0.0
C731 C 0.5306 0.61417 0.0182 0.0
C732 C 0.52416 0.59256 0.01418 0.0
C733 C 0.55642 0.6504 0.03253 0.0
C734 C 0.5423 0.65423 0.04108 0.0
C735 C 0.57657 0.66799 0.02959 0.0
C736 C 0.59177 0.66497 0.02009 0.0
C737 C 0.58473 0.65402 1.00479 0.0
C738 C 0.59908 0.6511 0.99594 0.0
C739 C 0.62058 0.65918 1.00223 0.0
C740 C 0.62777 0.67025 0.01736 0.0
C741 C 0.61347 0.6732 0.02626 0.0
H742 H 0.63167 0.6569 0.99536 0.0
H743 H 0.49403 0.68551 0.08311 0.0
H744 H 0.8212 0.28338 0.93089 0.0
H745 H 0.85112 0.31806 0.94284 0.0
H746 H 0.84527 0.29308 0.98812 0.0
H747 H 0.816 0.25783 0.97615 0.0
H748 H 0.84974 0.33714 0.98681 0.0
H749 H 0.88307 0.29507 0.97211 0.0
H750 H 0.88983 0.27204 0.95348 0.0
H751 H 0.9148 0.32206 0.92242 0.0
H752 H 0.90786 0.34527 0.94078 0.0
H753 H 0.9477 0.42188 0.02674 0.0
H754 H 0.91757 0.38638 0.0163 0.0
H755 H 0.93459 0.40035 0.96897 0.0
H756 H 0.96538 0.43552 0.97946 0.0
H757 H 0.92377 0.36106 0.97159 0.0
H758 H 0.89142 0.40355 0.98496 0.0
H759 H 0.88375 0.42725 1.00217 0.0
H760 H 0.85555 0.37805 0.03357 0.0
H761 H 0.86345 0.35421 0.01676 0.0
C762 C 0.82635 0.28508 0.94336 0.0
C763 C 0.81629 0.2676 0.95248 0.0
C764 C 0.84334 0.30501 0.95018 0.0
C765 C 0.85042 0.30802 0.96631 0.0
C766 C 0.83995 0.29101 0.97564 0.0
C767 C 0.82314 0.2709 0.96877 0.0
C768 C 0.86933 0.32876 0.97322 0.0
C769 C 0.86601 0.34233 0.98371 0.0
C770 C 0.89034 0.33566 0.9687 0.0
C771 C 0.89474 0.32181 0.95774 0.0
C772 C 0.88982 0.30108 0.96124 0.0
C773 C 0.89372 0.28801 0.95075 0.0
C774 C 0.90269 0.29556 0.93675 0.0
C775 C 0.90783 0.31623 0.93326 0.0
C776 C 0.90394 0.32935 0.94371 0.0
C777 C 0.94507 0.41733 0.01411 0.0
C778 C 0.95884 0.43149 1.0039 0.0
C779 C 0.92775 0.39708 0.00814 0.0
C780 C 0.92345 0.39082 0.9918 0.0
C781 C 0.93749 0.4048 0.98162 0.0
C782 C 0.9551 0.4249 0.98762 0.0
C783 C 0.90435 0.36973 0.98531 0.0
C784 C 0.90758 0.35602 0.97481 0.0
C785 C 0.88317 0.36289 0.98962 0.0
C786 C 0.87823 0.37716 0.99967 0.0
C787 C 0.88372 0.39784 0.9956 0.0
C788 C 0.87932 0.41129 1.00527 0.0
C789 C 0.86919 0.40416 0.01894 0.0
C790 C 0.86341 0.38355 0.02298 0.0
C791 C 0.86786 0.37006 0.01339 0.0
H792 H 0.86578 0.4146 0.02641 0.0
H793 H 0.90569 0.28542 0.92864 0.0
H794 H 0.7106 0.53944 0.92827 0.0
H795 H 0.67863 0.53605 0.93965 0.0
H796 H 0.71281 0.55222 0.98636 0.0
H797 H 0.7452 0.55629 0.97506 0.0
H798 H 0.67033 0.51698 0.98438 0.0
H799 H 0.70694 0.58941 0.97025 0.0
H800 H 0.72485 0.61771 0.95249 0.0
H801 H 0.66606 0.5893 0.92094 0.0
H802 H 0.64788 0.56062 0.9384 0.0
H803 H 0.59038 0.5306 0.02125 0.0
H804 H 0.62447 0.53572 0.01248 0.0
H805 H 0.5998 0.53146 0.96407 0.0
H806 H 0.56614 0.52728 0.97282 0.0
H807 H 0.63934 0.56222 0.96838 0.0
H808 H 0.60304 0.48878 0.98148 0.0
H809 H 0.5851 0.45974 0.99868 0.0
H810 H 0.64272 0.48892 0.03146 0.0
H811 H 0.66094 0.51833 0.01458 0.0
C812 C 0.71147 0.54253 0.94096 0.0
C813 C 0.73061 0.54833 0.95072 0.0
C814 C 0.69311 0.54047 0.94744 0.0
C815 C 0.69342 0.54409 0.96383 0.0
C816 C 0.71225 0.54935 0.97368 0.0
C817 C 0.73071 0.55157 0.96718 0.0
C818 C 0.6741 0.54255 0.9706 0.0
C819 C 0.66369 0.52706 0.98109 0.0
C820 C 0.66526 0.55544 0.96604 0.0
C821 C 0.6761 0.57276 0.95557 0.0
C822 C 0.69787 0.58909 0.95946 0.0
C823 C 0.70807 0.60522 0.94946 0.0
C824 C 0.69661 0.60528 0.93558 0.0
C825 C 0.67492 0.58923 0.93169 0.0
C826 C 0.66465 0.57304 0.94164 0.0
C827 C 0.59223 0.53074 0.00874 0.0
C828 C 0.57554 0.52851 0.99774 0.0
C829 C 0.6117 0.53355 1.00372 0.0
C830 C 0.61466 0.53365 0.98756 0.0
C831 C 0.59799 0.53148 0.97659 0.0
C832 C 0.5787 0.52905 0.98162 0.0
C833 C 0.63516 0.53631 0.982 0.0
C834 C 0.64591 0.55211 0.97175 0.0
C835 C 0.64421 0.52358 0.98671 0.0
C836 C 0.63327 0.50588 0.99684 0.0
C837 C 0.61183 0.48909 0.99241 0.0
C838 C 0.60162 0.47255 1.00209 0.0
C839 C 0.61273 0.4725 0.01616 0.0
C840 C 0.63411 0.48899 0.02057 0.0
C841 C 0.6444 0.50559 0.01095 0.0
H842 H 0.60478 0.45967 0.02364 0.0
H843 H 0.70453 0.61778 0.92785 0.0
H844 H 0.41452 0.15387 0.96213 0.0
H845 H 0.42295 0.127 0.97141 0.0
H846 H 0.48388 0.17784 0.99523 0.0
H847 H 0.47569 0.20481 0.98577 0.0
H848 H 0.48838 0.14764 0.97717 0.0
H849 H 0.44319 0.14841 0.01635 0.0
H850 H 0.41031 0.14623 0.02589 0.0
H851 H 0.37165 0.0817 1.00317 0.0
H852 H 0.40427 0.0836 0.99329 0.0
H853 H 0.51486 0.08126 0.02154 0.0
H854 H 0.50573 0.10865 0.01471 0.0
H855 H 0.44576 0.05931 0.98874 0.0
H856 H 0.45484 0.03186 0.99535 0.0
H857 H 0.44088 0.089 0.00849 0.0
H858 H 0.48509 0.08754 0.96939 0.0
H859 H 0.51713 0.08931 0.95865 0.0
H860 H 0.55668 0.15478 0.97938 0.0
H861 H 0.52508 0.15313 0.99082 0.0
C862 C 0.42969 0.1593 0.96936 0.0
C863 C 0.44447 0.18142 0.97322 0.0
C864 C 0.43441 0.14395 0.97474 0.0
C865 C 0.45397 0.15046 0.98408 0.0
C866 C 0.46867 0.17252 0.98806 0.0
C867 C 0.46391 0.18787 0.98276 0.0
C868 C 0.45947 0.13425 0.98917 0.0
C869 C 0.47824 0.13504 0.98427 0.0
C870 C 0.44579 0.11745 0.99799 0.0
C871 C 0.42615 0.11623 1.00396 0.0
C872 C 0.42765 0.13382 0.01328 0.0
C873 C 0.40906 0.13262 0.01877 0.0
C874 C 0.38889 0.11385 0.0151 0.0
C875 C 0.38728 0.09623 1.00598 0.0
C876 C 0.40582 0.09735 1.00045 0.0
C877 C 0.49969 0.07624 0.01444 0.0
C878 C 0.48558 0.05443 0.00894 0.0
C879 C 0.49454 0.09189 0.01052 0.0
C880 C 0.47512 0.08596 1.00119 0.0
C881 C 0.46081 0.06417 0.99597 0.0
C882 C 0.46608 0.04855 0.99969 0.0
C883 C 0.4699 0.10253 0.9966 0.0
C884 C 0.45114 0.10173 1.00152 0.0
C885 C 0.48352 0.11925 0.9877 0.0
C886 C 0.50274 0.12009 0.9812 0.0
C887 C 0.5007 0.10219 0.97194 0.0
C888 C 0.51879 0.10317 0.96571 0.0
C889 C 0.53898 0.12208 0.96844 0.0
C890 C 0.5411 0.14005 0.97741 0.0
C891 C 0.52311 0.13908 0.98381 0.0
H892 H 0.55293 0.12284 0.96352 0.0
H893 H 0.37452 0.11296 0.01937 0.0
H894 H 0.74148 0.16544 0.99014 0.0
H895 H 0.70628 0.14099 0.99924 0.0
H896 H 0.6735 0.14412 0.95609 0.0
H897 H 0.70867 0.16839 0.94687 0.0
H898 H 0.65513 0.14849 0.9834 0.0
H899 H 0.67798 0.10142 0.95978 0.0
H900 H 0.7032 0.08781 0.95607 0.0
H901 H 0.70208 0.07447 1.00455 0.0
H902 H 0.67708 0.0883 0.00862 0.0
H903 H 0.55034 0.05717 0.9844 0.0
H904 H 0.58621 0.08323 0.97742 0.0
H905 H 0.61596 0.07617 0.02055 0.0
H906 H 0.58008 0.05012 0.02772 0.0
H907 H 0.63649 0.07454 0.99452 0.0
H908 H 0.61291 0.11946 0.01838 0.0
H909 H 0.58864 0.13386 0.02328 0.0
H910 H 0.59227 0.15255 0.97614 0.0
H911 H 0.61607 0.13768 0.97079 0.0
C912 C 0.72673 0.16108 0.98269 0.0
C913 C 0.72777 0.16924 0.96799 0.0
C914 C 0.70668 0.14705 0.98786 0.0
C915 C 0.6873 0.14078 0.97834 0.0
C916 C 0.68827 0.14892 0.96366 0.0
C917 C 0.70834 0.16281 0.95843 0.0
C918 C 0.66601 0.12543 0.98358 0.0
C919 C 0.6509 0.13221 0.98563 0.0
C920 C 0.66085 0.10446 0.98698 0.0
C921 C 0.67585 0.09612 0.98455 0.0
C922 C 0.68327 0.09577 0.96969 0.0
C923 C 0.69749 0.08798 0.96751 0.0
C924 C 0.70429 0.08034 0.98008 0.0
C925 C 0.69683 0.08043 0.99484 0.0
C926 C 0.68262 0.08823 0.99708 0.0
C927 C 0.56449 0.06115 0.99244 0.0
C928 C 0.56234 0.05159 0.00665 0.0
C929 C 0.58498 0.07612 0.98844 0.0
C930 C 0.60372 0.08173 0.99852 0.0
C931 C 0.60168 0.07207 0.01263 0.0
C932 C 0.58116 0.05725 0.01672 0.0
C933 C 0.62546 0.0975 0.99417 0.0
C934 C 0.64068 0.09081 0.99231 0.0
C935 C 0.63078 0.11862 0.99108 0.0
C936 C 0.61609 0.1272 0.99412 0.0
C937 C 0.60829 0.12634 0.00897 0.0
C938 C 0.59462 0.13461 0.01184 0.0
C939 C 0.58884 0.14403 1.00001 0.0
C940 C 0.59667 0.14516 0.98527 0.0
C941 C 0.61023 0.13678 0.9823 0.0
H942 H 0.57838 0.15054 1.00232 0.0
H943 H 0.71529 0.07431 0.97837 0.0
H944 H 0.82016 0.54253 0.99093 0.0
H945 H 0.84654 0.53115 0.99779 0.0
H946 H 0.86553 0.53862 0.95047 0.0
H947 H 0.83898 0.54993 0.94356 0.0
H948 H 0.86286 0.50205 0.96191 0.0
H949 H 0.89599 0.57762 0.97894 0.0
H950 H 0.89838 0.60991 0.99285 0.0
H951 H 0.89497 0.58339 0.03713 0.0
H952 H 0.89225 0.55079 0.02345 0.0
H953 H 0.96391 0.50572 0.97968 0.0
H954 H 0.93512 0.51292 0.97071 0.0
H955 H 0.91877 0.51368 0.01854 0.0
H956 H 0.94793 0.50722 0.02765 0.0
H957 H 0.92012 0.54612 1.00589 0.0
H958 H 0.88724 0.47032 0.98888 0.0
H959 H 0.88512 0.43821 0.97484 0.0
H960 H 0.88817 0.46483 0.93067 0.0
H961 H 0.89061 0.49723 0.94443 0.0
C962 C 0.82985 0.54155 0.98198 0.0
C963 C 0.82776 0.54728 0.96677 0.0
C964 C 0.84492 0.5351 0.9859 0.0
C965 C 0.8582 0.53432 0.9747 0.0
C966 C 0.85548 0.53915 0.95929 0.0
C967 C 0.84041 0.54566 0.95537 0.0
C968 C 0.87564 0.52952 0.97934 0.0
C969 C 0.87553 0.51178 0.97142 0.0
C970 C 0.89197 0.54206 0.99188 0.0
C971 C 0.8937 0.56168 1.00015 0.0
C972 C 0.89558 0.5786 0.99163 0.0
C973 C 0.89702 0.59697 0.99947 0.0
C974 C 0.89677 0.59868 0.01586 0.0
C975 C 0.89513 0.58204 0.02444 0.0
C976 C 0.89366 0.56362 0.01665 0.0
C977 C 0.95413 0.50735 0.98828 0.0
C978 C 0.95826 0.50596 1.0044 0.0
C979 C 0.93758 0.51134 0.98312 0.0
C980 C 0.92455 0.51359 0.99391 0.0
C981 C 0.92859 0.51204 0.00998 0.0
C982 C 0.94529 0.50833 0.01517 0.0
C983 C 0.90724 0.51837 0.98867 0.0
C984 C 0.90743 0.53624 0.99643 0.0
C985 C 0.89099 0.5059 0.97601 0.0
C986 C 0.8893 0.4863 0.96771 0.0
C987 C 0.8876 0.4694 0.97619 0.0
C988 C 0.88633 0.45113 0.96828 0.0
C989 C 0.88657 0.44951 0.95189 0.0
C990 C 0.88801 0.46612 0.94336 0.0
C991 C 0.88932 0.48443 0.95121 0.0
H992 H 0.88559 0.43537 0.9458 0.0
H993 H 0.89789 0.61291 0.02191 0.0
H994 H 0.44369 0.27706 0.01516 0.0
H995 H 0.45482 0.31541 0.01884 0.0
H996 H 0.43708 0.31354 0.9692 0.0
H997 H 0.42598 0.27517 0.96552 0.0
H998 H 0.47728 0.34766 0.97948 0.0
H999 H 0.4054 0.31571 0.9959 0.0
H1000 H 0.37572 0.29264 0.01135 0.0
H1001 H 0.41488 0.3289 0.05441 0.0
H1002 H 0.44492 0.35201 0.03922 0.0
H1003 H 0.48657 0.45012 0.98062 0.0
H1004 H 0.47287 0.41139 0.97747 0.0
H1005 H 0.4845 0.41219 0.02786 0.0
H1006 H 0.49751 0.45088 0.03117 0.0
H1007 H 0.4472 0.37834 0.01731 0.0
H1008 H 0.51916 0.41014 1.00134 0.0
H1009 H 0.54918 0.43327 0.9862 0.0
H1010 H 0.51087 0.39728 0.94284 0.0
H1011 H 0.48043 0.37412 0.9577 0.0
C1012 C 0.44194 0.28483 1.00511 0.0
C1013 C 0.43373 0.27323 0.9901 0.0
C1014 C 0.44826 0.30667 0.00721 0.0
C1015 C 0.44656 0.31724 0.99431 0.0
C1016 C 0.43843 0.30565 0.9793 0.0
C1017 C 0.43203 0.28381 0.97722 0.0
C1018 C 0.45398 0.34057 0.99636 0.0
C1019 C 0.47051 0.35436 0.98759 0.0
C1020 C 0.44554 0.34931 0.00727 0.0
C1021 C 0.42749 0.33545 0.01642 0.0
C1022 C 0.40775 0.31865 0.00867 0.0
C1023 C 0.39085 0.30559 0.01738 0.0
C1024 C 0.39344 0.30927 0.03385 0.0
C1025 C 0.41291 0.32605 0.04165 0.0
C1026 C 0.42988 0.33915 0.03299 0.0
C1027 C 0.48624 0.44207 0.99104 0.0
C1028 C 0.49324 0.45358 1.00614 0.0
C1029 C 0.47847 0.41992 0.98921 0.0
C1030 C 0.47802 0.40892 1.0024 0.0
C1031 C 0.48474 0.42034 0.01751 0.0
C1032 C 0.49222 0.44245 0.01938 0.0
C1033 C 0.47053 0.38552 1.00041 0.0
C1034 C 0.454 0.37169 0.0092 0.0
C1035 C 0.47908 0.37674 0.98959 0.0
C1036 C 0.49744 0.39052 0.98063 0.0
C1037 C 0.51708 0.40724 0.98857 0.0
C1038 C 0.53418 0.42035 0.98004 0.0
C1039 C 0.53194 0.41678 0.96357 0.0
C1040 C 0.51258 0.40005 0.9556 0.0
C1041 C 0.49539 0.38692 0.96407 0.0
H1042 H 0.54521 0.42696 0.957 0.0
H1043 H 0.38033 0.29914 0.04057 0.0
H1044 H 0.17735 0.73544 0.03523 0.0
H1045 H 0.14926 0.69724 0.03152 0.0
H1046 H 0.16213 0.69146 0.08057 0.0
H1047 H 0.19016 0.72977 0.08436 0.0
H1048 H 0.15795 0.65724 0.05997 0.0
H1049 H 0.11916 0.69431 0.07033 0.0
H1050 H 0.10814 0.72146 0.06684 0.0
H1051 H 0.083 0.69465 0.01879 0.0
H1052 H 0.09416 0.66752 0.02192 0.0
H1053 H 0.06179 0.55423 0.05927 0.0
H1054 H 0.08984 0.59205 0.06623 0.0
H1055 H 0.0795 0.60616 0.01904 0.0
H1056 H 0.05143 0.56862 0.01203 0.0
H1057 H 0.08221 0.63623 0.04091 0.0
H1058 H 0.12259 0.60055 0.02991 0.0
H1059 H 0.13368 0.57338 0.03303 0.0
H1060 H 0.15591 0.59747 0.08184 0.0
H1061 H 0.14465 0.62461 0.07907 0.0
C1062 C 0.17433 0.72594 0.04516 0.0
C1063 C 0.18623 0.73539 0.05998 0.0
C1064 C 0.15824 0.70419 0.04306 0.0
C1065 C 0.15363 0.69156 0.05578 0.0
C1066 C 0.16556 0.70092 0.07059 0.0
C1067 C 0.18155 0.72273 0.07273 0.0
C1068 C 0.13605 0.66869 0.05361 0.0
C1069 C 0.14131 0.65261 0.05605 0.0
C1070 C 0.11445 0.66273 0.04825 0.0
C1071 C 0.10769 0.679 0.04632 0.0
C1072 C 0.11145 0.69432 0.05898 0.0
C1073 C 0.10515 0.70968 0.05707 0.0
C1074 C 0.09492 0.70981 0.04259 0.0
C1075 C 0.09094 0.69454 0.02999 0.0
C1076 C 0.09724 0.67916 0.03183 0.0
C1077 C 0.06545 0.5654 0.05039 0.0
C1078 C 0.05438 0.55838 0.03509 0.0
C1079 C 0.08154 0.58698 0.05437 0.0
C1080 C 0.08686 0.60187 0.04311 0.0
C1081 C 0.07564 0.59494 0.02791 0.0
C1082 C 0.05962 0.57343 0.02392 0.0
C1083 C 0.10413 0.62471 0.04703 0.0
C1084 C 0.09881 0.64082 0.04494 0.0
C1085 C 0.12567 0.63067 0.05265 0.0
C1086 C 0.13254 0.61444 0.05433 0.0
C1087 C 0.12967 0.59994 0.04135 0.0
C1088 C 0.13602 0.58457 0.04304 0.0
C1089 C 0.14543 0.58366 0.05764 0.0
C1090 C 0.14858 0.59817 0.07055 0.0
C1091 C 0.14223 0.61356 0.06892 0.0
H1092 H 0.15033 0.57175 0.05893 0.0
H1093 H 0.09005 0.72172 0.04114 0.0
H1094 H 0.28644 0.47211 0.0518 0.0
H1095 H 0.32253 0.48425 0.04314 0.0
H1096 H 0.33947 0.46011 0.08359 0.0
H1097 H 0.30341 0.4482 0.09233 0.0
H1098 H 0.37327 0.49859 0.07781 0.0
H1099 H 0.3236 0.43076 0.04793 0.0
H1100 H 0.29055 0.40491 0.03061 0.0
H1101 H 0.31047 0.44757 0.9941 0.0
H1102 H 0.34352 0.47381 0.01129 0.0
H1103 H 0.46399 0.49704 0.04997 0.0
H1104 H 0.42944 0.48781 0.05999 0.0
H1105 H 0.40851 0.50379 0.01674 0.0
H1106 H 0.44269 0.51178 0.00633 0.0
H1107 H 0.37672 0.46978 0.02442 0.0
H1108 H 0.42717 0.53783 0.05462 0.0
H1109 H 0.4606 0.56274 0.07197 0.0
H1110 H 0.43976 0.51936 0.10798 0.0
H1111 H 0.40627 0.49408 0.09079 0.0
C1112 C 0.29794 0.4695 0.05884 0.0
C1113 C 0.29207 0.45881 0.07251 0.0
C1114 C 0.31851 0.47639 0.05389 0.0
C1115 C 0.33357 0.47272 0.06256 0.0
C1116 C 0.32807 0.46298 0.07666 0.0
C1117 C 0.30749 0.45611 0.08161 0.0
C1118 C 0.35469 0.47826 0.05658 0.0
C1119 C 0.37406 0.49218 0.06619 0.0
C1120 C 0.35574 0.47012 0.04133 0.0
C1121 C 0.33591 0.45434 0.03096 0.0
C1122 C 0.32085 0.4347 0.03625 0.0
C1123 C 0.30213 0.41997 0.02645 0.0
C1124 C 0.29838 0.42462 0.01128 0.0
C1125 C 0.31338 0.444 1.00586 0.0
C1126 C 0.33211 0.4588 0.01563 0.0
C1127 C 0.45204 0.49868 0.04264 0.0
C1128 C 0.45605 0.50529 0.02742 0.0
C1129 C 0.43231 0.49353 0.04842 0.0
C1130 C 0.41646 0.49563 0.03933 0.0
C1131 C 0.42046 0.50212 0.02405 0.0
C1132 C 0.43999 0.50671 0.01809 0.0
C1133 C 0.39549 0.49046 0.04552 0.0
C1134 C 0.37606 0.47645 0.03599 0.0
C1135 C 0.39444 0.49854 0.06084 0.0
C1136 C 0.41427 0.51401 0.07137 0.0
C1137 C 0.42973 0.53358 0.06622 0.0
C1138 C 0.44869 0.54776 0.07603 0.0
C1139 C 0.4523 0.54262 0.09106 0.0
C1140 C 0.43692 0.52332 0.09634 0.0
C1141 C 0.41793 0.50909 0.08658 0.0
H1142 H 0.467 0.5536 0.09861 0.0
H1143 H 0.28388 0.41319 1.00371 0.0
H1144 H 0.58703 0.84675 0.02761 0.0
H1145 H 0.57136 0.86947 0.02158 0.0
H1146 H 0.58176 0.89253 0.07101 0.0
H1147 H 0.5974 0.86978 0.07702 0.0
H1148 H 0.54074 0.87948 0.05792 0.0
H1149 H 0.61377 0.92482 0.04547 0.0
H1150 H 0.64649 0.93354 0.03221 0.0
H1151 H 0.6099 0.91995 0.98693 0.0
H1152 H 0.57686 0.91085 0.99992 0.0
H1153 H 0.52012 0.96592 0.05243 0.0
H1154 H 0.53462 0.9422 0.05752 0.0
H1155 H 0.53091 0.92661 0.00734 0.0
H1156 H 0.51711 0.95094 1.00216 0.0
H1157 H 0.56819 0.93506 0.02029 0.0
H1158 H 0.49512 0.89032 0.03256 0.0
H1159 H 0.46177 0.87919 0.04563 0.0
H1160 H 0.49758 0.89021 0.09087 0.0
H1161 H 0.5312 0.90173 0.07813 0.0
C1162 C 0.58623 0.85694 0.03711 0.0
C1163 C 0.5937 0.85688 0.05273 0.0
C1164 C 0.57731 0.86988 0.03368 0.0
C1165 C 0.5756 0.88283 0.04584 0.0
C1166 C 0.58303 0.88273 0.06145 0.0
C1167 C 0.59203 0.86987 0.06487 0.0
C1168 C 0.56528 0.89584 0.04239 0.0
C1169 C 0.54687 0.89186 0.04986 0.0
C1170 C 0.57294 0.91146 0.03149 0.0
C1171 C 0.59279 0.91694 0.02367 0.0
C1172 C 0.61265 0.9235 0.03268 0.0
C1173 C 0.63127 0.92855 0.02522 0.0
C1174 C 0.63026 0.92724 0.00874 0.0
C1175 C 0.61064 0.92093 0.99969 0.0
C1176 C 0.59197 0.91584 0.0071 0.0
C1177 C 0.52218 0.95727 0.04247 0.0
C1178 C 0.51751 0.96034 0.02688 0.0
C1179 C 0.53037 0.9436 0.0454 0.0
C1180 C 0.53365 0.93238 0.03282 0.0
C1181 C 0.52856 0.9351 0.01725 0.0
C1182 C 0.52063 0.94899 0.0143 0.0
C1183 C 0.54353 0.91881 0.03587 0.0
C1184 C 0.56192 0.92266 0.02833 0.0
C1185 C 0.53577 0.90299 0.04667 0.0
C1186 C 0.51572 0.89703 0.05439 0.0
C1187 C 0.49594 0.89063 0.04531 0.0
C1188 C 0.47697 0.88419 0.05266 0.0
C1189 C 0.47757 0.88393 0.06906 0.0
C1190 C 0.49715 0.89037 0.07817 0.0
C1191 C 0.51615 0.89686 0.07089 0.0
H1192 H 0.46285 0.87866 0.07474 0.0
H1193 H 0.64469 0.93116 1.00298 0.0
H1194 H 0.94911 0.19015 0.41758 0.0
H1195 H 0.98101 0.21749 0.40657 0.0
H1196 H 0.99051 0.16782 0.38423 0.0
H1197 H 0.95914 0.1404 0.39577 0.0
H1198 H 0.02807 0.20028 0.39762 0.0
H1199 H 0.96918 0.19359 0.36294 0.0
H1200 H 0.93469 0.19267 0.35579 0.0
H1201 H 0.96245 0.25792 0.37668 0.0
H1202 H 0.99704 0.25914 0.38416 0.0
H1203 H 0.10398 0.26763 0.34704 0.0
H1204 H 0.07007 0.23939 0.35549 0.0
H1205 H 0.06472 0.28727 0.38465 0.0
H1206 H 0.09871 0.31558 0.37642 0.0
H1207 H 0.02488 0.25527 0.36674 0.0
H1208 H 0.08317 0.26106 0.40229 0.0
H1209 H 0.11795 0.26221 0.40864 0.0
H1210 H 0.09105 0.19831 0.38527 0.0
H1211 H 0.05619 0.19692 0.37855 0.0
C1212 C 0.95807 0.18502 0.41043 0.0
C1213 C 0.95153 0.16305 0.40757 0.0
C1214 C 0.97618 0.20068 0.40399 0.0
C1215 C 0.98801 0.1947 0.39439 0.0
C1216 C 0.98158 0.1728 0.39154 0.0
C1217 C 0.96352 0.15713 0.39804 0.0
C1218 C 0.00732 0.21135 0.38758 0.0
C1219 C 0.02725 0.21207 0.39066 0.0
C1220 C 0.00641 0.22704 0.37875 0.0
C1221 C 0.98564 0.22638 0.37424 0.0
C1222 C 0.96788 0.20769 0.36612 0.0
C1223 C 0.94832 0.20712 0.36199 0.0
C1224 C 0.94636 0.22521 0.36581 0.0
C1225 C 0.96398 0.24392 0.37374 0.0
C1226 C 0.98358 0.24456 0.37792 0.0
C1227 C 0.09547 0.27218 0.35512 0.0
C1228 C 0.10407 0.29383 0.36112 0.0
C1229 C 0.07615 0.25603 0.35996 0.0
C1230 C 0.06501 0.26128 0.37075 0.0
C1231 C 0.07311 0.28293 0.37631 0.0
C1232 C 0.09257 0.29905 0.37164 0.0
C1233 C 0.04544 0.2441 0.37681 0.0
C1234 C 0.02555 0.24334 0.37362 0.0
C1235 C 0.04635 0.22834 0.38549 0.0
C1236 C 0.06715 0.22897 0.38977 0.0
C1237 C 0.08472 0.24732 0.3984 0.0
C1238 C 0.10444 0.24801 0.40208 0.0
C1239 C 0.10673 0.23037 0.39732 0.0
C1240 C 0.08926 0.21197 0.38892 0.0
C1241 C 0.06952 0.21122 0.38518 0.0
H1242 H 0.12202 0.23095 0.40017 0.0
H1243 H 0.93121 0.22474 0.3626 0.0
H1244 H 0.83964 0.76473 0.42437 0.0
H1245 H 0.81089 0.76924 0.41153 0.0
H1246 H 0.85888 0.8295 0.39638 0.0
H1247 H 0.88784 0.82559 0.40991 0.0
H1248 H 0.82786 0.83412 0.40733 0.0
H1249 H 0.82978 0.78332 0.37016 0.0
H1250 H 0.83002 0.75033 0.3608 0.0
H1251 H 0.7668 0.71139 0.37591 0.0
H1252 H 0.7663 0.74415 0.38557 0.0
H1253 H 0.72988 0.80513 0.34473 0.0
H1254 H 0.76131 0.80185 0.3535 0.0
H1255 H 0.75374 0.81489 0.40201 0.0
H1256 H 0.72261 0.81861 0.39336 0.0
H1257 H 0.7671 0.77577 0.37118 0.0
H1258 H 0.8028 0.84393 0.4232 0.0
H1259 H 0.804 0.87831 0.43027 0.0
H1260 H 0.79543 0.8855 0.38113 0.0
H1261 H 0.79454 0.85136 0.37376 0.0
C1262 C 0.84414 0.77904 0.41841 0.0
C1263 C 0.8661 0.79487 0.41828 0.0
C1264 C 0.82764 0.78146 0.41088 0.0
C1265 C 0.83266 0.7996 0.40281 0.0
C1266 C 0.85457 0.81534 0.4025 0.0
C1267 C 0.87113 0.81299 0.41012 0.0
C1268 C 0.81497 0.80237 0.39519 0.0
C1269 C 0.81463 0.82138 0.39938 0.0
C1270 C 0.79789 0.78597 0.38454 0.0
C1271 C 0.79808 0.76621 0.3787 0.0
C1272 C 0.81599 0.76772 0.37159 0.0
C1273 C 0.81617 0.74906 0.36622 0.0
C1274 C 0.79846 0.72878 0.36779 0.0
C1275 C 0.78051 0.72711 0.37471 0.0
C1276 C 0.78026 0.74572 0.38012 0.0
C1277 C 0.73484 0.80724 0.35727 0.0
C1278 C 0.72377 0.81227 0.36833 0.0
C1279 C 0.75281 0.80532 0.36227 0.0
C1280 C 0.76011 0.80844 0.3784 0.0
C1281 C 0.7487 0.81284 0.38948 0.0
C1282 C 0.73081 0.81486 0.3845 0.0
C1283 C 0.77971 0.80724 0.38369 0.0
C1284 C 0.7804 0.78854 0.37906 0.0
C1285 C 0.79738 0.82414 0.39362 0.0
C1286 C 0.79841 0.84497 0.39794 0.0
C1287 C 0.8013 0.85291 0.4139 0.0
C1288 C 0.80191 0.87235 0.41796 0.0
C1289 C 0.79974 0.88405 0.40616 0.0
C1290 C 0.79705 0.87639 0.39026 0.0
C1291 C 0.79648 0.85698 0.38614 0.0
H1292 H 0.80017 0.89907 0.40933 0.0
H1293 H 0.79863 0.71435 0.36362 0.0
H1294 H 0.22142 0.08212 0.38804 0.0
H1295 H 0.21378 0.04672 0.37685 0.0
H1296 H 0.27303 0.05684 0.40195 0.0
H1297 H 0.28124 0.09272 0.41274 0.0
H1298 H 0.26693 0.03796 0.37218 0.0
H1299 H 0.22486 0.0265 0.41609 0.0
H1300 H 0.19889 0.02986 0.4321 0.0
H1301 H 0.14866 0.99791 0.39344 0.0
H1302 H 0.17443 0.99463 0.37711 0.0
H1303 H 0.23917 0.92758 0.37004 0.0
H1304 H 0.24969 0.96509 0.37761 0.0
H1305 H 0.1911 0.95517 0.35157 0.0
H1306 H 0.18036 0.91761 0.34401 0.0
H1307 H 0.19714 0.97417 0.38132 0.0
H1308 H 0.23943 0.98463 0.33769 0.0
H1309 H 0.26564 0.98111 0.32207 0.0
H1310 H 0.31572 0.01454 0.36066 0.0
H1311 H 0.28972 0.01799 0.37661 0.0
C1312 C 0.23302 0.07699 0.39099 0.0
C1313 C 0.25191 0.09022 0.40134 0.0
C1314 C 0.22852 0.05666 0.3847 0.0
C1315 C 0.24269 0.04903 0.38875 0.0
C1316 C 0.26184 0.06239 0.39873 0.0
C1317 C 0.2664 0.08278 0.405 0.0
C1318 C 0.23714 0.02686 0.38294 0.0
C1319 C 0.2518 0.02397 0.37433 0.0
C1320 C 0.2172 0.00868 0.3855 0.0
C1321 C 0.20163 0.01051 0.39533 0.0
C1322 C 0.20832 0.02034 0.41096 0.0
C1323 C 0.19363 0.0222 0.4201 0.0
C1324 C 0.17215 0.01415 0.41378 0.0
C1325 C 0.16531 0.00416 0.39832 0.0
C1326 C 0.17995 0.00228 0.38912 0.0
C1327 C 0.22861 0.93342 0.36579 0.0
C1328 C 0.2089 0.91959 0.35644 0.0
C1329 C 0.2347 0.95489 0.37008 0.0
C1330 C 0.22123 0.96293 0.36508 0.0
C1331 C 0.20173 0.94927 0.35554 0.0
C1332 C 0.19566 0.92782 0.3512 0.0
C1333 C 0.22688 0.98524 0.37049 0.0
C1334 C 0.21225 0.98815 0.3791 0.0
C1335 C 0.24687 0.00338 0.36798 0.0
C1336 C 0.26256 0.00138 0.3584 0.0
C1337 C 0.25598 0.99107 0.3429 0.0
C1338 C 0.27081 0.98912 0.33397 0.0
C1339 C 0.29232 0.99755 0.34038 0.0
C1340 C 0.29905 0.008 0.35572 0.0
C1341 C 0.28428 0.00997 0.3647 0.0
H1342 H 0.30378 0.99603 0.33345 0.0
H1343 H 0.1608 0.01561 0.42088 0.0
H1344 H 0.48513 0.61307 0.26402 0.0
H1345 H 0.5155 0.64778 0.27558 0.0
H1346 H 0.51631 0.62071 0.31928 0.0
H1347 H 0.48604 0.58574 0.30771 0.0
H1348 H 0.52098 0.66125 0.32403 0.0
H1349 H 0.55304 0.62722 0.29475 0.0
H1350 H 0.55744 0.60859 0.27128 0.0
H1351 H 0.57246 0.66307 0.2455 0.0
H1352 H 0.56783 0.68191 0.26876 0.0
H1353 H 0.62419 0.7472 0.35692 0.0
H1354 H 0.59419 0.71149 0.34673 0.0
H1355 H 0.59326 0.73371 0.30091 0.0
H1356 H 0.62351 0.76934 0.3109 0.0
H1357 H 0.58895 0.69474 0.29793 0.0
H1358 H 0.55589 0.72841 0.32651 0.0
H1359 H 0.55094 0.7472 0.34962 0.0
H1360 H 0.53733 0.69381 0.37632 0.0
H1361 H 0.54251 0.67482 0.35343 0.0
C1362 C 0.49182 0.61444 0.27606 0.0
C1363 C 0.48329 0.59655 0.28488 0.0
C1364 C 0.50914 0.63431 0.28267 0.0
C1365 C 0.51835 0.63673 0.29821 0.0
C1366 C 0.50945 0.61916 0.30725 0.0
C1367 C 0.49211 0.59921 0.30063 0.0
C1368 C 0.53753 0.65754 0.30488 0.0
C1369 C 0.53597 0.66845 0.31848 0.0
C1370 C 0.5569 0.66711 0.29742 0.0
C1371 C 0.5599 0.6559 0.28346 0.0
C1372 C 0.55713 0.63517 0.28404 0.0
C1373 C 0.55968 0.62458 0.27078 0.0
C1374 C 0.56518 0.63462 0.2569 0.0
C1375 C 0.56818 0.6553 0.25626 0.0
C1376 C 0.56561 0.66595 0.26948 0.0
C1377 C 0.61767 0.7445 0.34465 0.0
C1378 C 0.62622 0.76119 0.33475 0.0
C1379 C 0.60044 0.72408 0.33887 0.0
C1380 C 0.59125 0.72 0.32311 0.0
C1381 C 0.60005 0.73649 0.31312 0.0
C1382 C 0.61735 0.75688 0.31887 0.0
C1383 C 0.57239 0.6986 0.31704 0.0
C1384 C 0.57401 0.68755 0.30354 0.0
C1385 C 0.55304 0.68896 0.32455 0.0
C1386 C 0.54981 0.70029 0.33831 0.0
C1387 C 0.552 0.72075 0.33735 0.0
C1388 C 0.54913 0.73142 0.3504 0.0
C1389 C 0.54389 0.72173 0.36444 0.0
C1390 C 0.54143 0.70131 0.36544 0.0
C1391 C 0.54432 0.69058 0.35243 0.0
H1392 H 0.54167 0.73002 0.37453 0.0
H1393 H 0.56715 0.62639 0.24664 0.0
H1394 H 0.37974 0.87408 0.26138 0.0
H1395 H 0.34782 0.87054 0.27294 0.0
H1396 H 0.38224 0.88638 0.31953 0.0
H1397 H 0.41455 0.89054 0.30805 0.0
H1398 H 0.34003 0.85141 0.31784 0.0
H1399 H 0.37594 0.92366 0.30327 0.0
H1400 H 0.3933 0.95179 0.28529 0.0
H1401 H 0.33394 0.92282 0.25432 0.0
H1402 H 0.31631 0.89431 0.27201 0.0
H1403 H 0.26211 0.86622 0.35644 0.0
H1404 H 0.29558 0.87094 0.34676 0.0
H1405 H 0.26863 0.86548 0.29884 0.0
H1406 H 0.2355 0.86159 0.30848 0.0
H1407 H 0.30846 0.89629 0.30221 0.0
H1408 H 0.2727 0.82331 0.31586 0.0
H1409 H 0.25522 0.79447 0.33328 0.0
H1410 H 0.31365 0.82367 0.36524 0.0
H1411 H 0.33142 0.85289 0.34812 0.0
C1412 C 0.38067 0.87706 0.27408 0.0
C1413 C 0.39986 0.88279 0.28375 0.0
C1414 C 0.36234 0.87492 0.28067 0.0
C1415 C 0.36272 0.87841 0.29708 0.0
C1416 C 0.3816 0.88361 0.30683 0.0
C1417 C 0.40003 0.88589 0.30024 0.0
C1418 C 0.34341 0.87679 0.30399 0.0
C1419 C 0.33327 0.86141 0.31461 0.0
C1420 C 0.33435 0.88954 0.29951 0.0
C1421 C 0.34487 0.90674 0.2889 0.0
C1422 C 0.36664 0.92319 0.29257 0.0
C1423 C 0.37652 0.93921 0.28244 0.0
C1424 C 0.36474 0.93906 0.26865 0.0
C1425 C 0.34305 0.9229 0.26499 0.0
C1426 C 0.3331 0.90681 0.27507 0.0
C1427 C 0.2633 0.866 0.34384 0.0
C1428 C 0.2461 0.86349 0.33324 0.0
C1429 C 0.28244 0.86859 0.3383 0.0
C1430 C 0.28459 0.86823 0.32202 0.0
C1431 C 0.26744 0.86583 0.31144 0.0
C1432 C 0.24845 0.86357 0.31699 0.0
C1433 C 0.30477 0.87065 0.31595 0.0
C1434 C 0.31515 0.88625 0.30549 0.0
C1435 C 0.31395 0.85799 0.32051 0.0
C1436 C 0.30331 0.84041 0.33079 0.0
C1437 C 0.28177 0.82367 0.32666 0.0
C1438 C 0.27181 0.80724 0.33647 0.0
C1439 C 0.28328 0.80725 0.35037 0.0
C1440 C 0.30477 0.82369 0.35448 0.0
C1441 C 0.31479 0.84019 0.34472 0.0
H1442 H 0.27553 0.79451 0.35794 0.0
H1443 H 0.37242 0.95148 0.26083 0.0
H1444 H 0.13707 0.53823 0.32411 0.0
H1445 H 0.14565 0.51154 0.33346 0.0
H1446 H 0.08809 0.4607 0.30587 0.0
H1447 H 0.07887 0.48716 0.29707 0.0
H1448 H 0.09325 0.44821 0.33356 0.0
H1449 H 0.13855 0.48152 0.29262 0.0
H1450 H 0.16533 0.51169 0.2793 0.0
H1451 H 0.21303 0.52973 0.31911 0.0
H1452 H 0.18642 0.49983 0.33277 0.0
H1453 H 0.12279 0.36732 0.32589 0.0
H1454 H 0.1135 0.39497 0.32053 0.0
H1455 H 0.16786 0.4413 0.35316 0.0
H1456 H 0.17728 0.41376 0.35866 0.0
H1457 H 0.16496 0.45671 0.32433 0.0
H1458 H 0.11903 0.42116 0.36444 0.0
H1459 H 0.09187 0.38991 0.37664 0.0
H1460 H 0.04483 0.37484 0.33693 0.0
H1461 H 0.07182 0.40584 0.32438 0.0
C1462 C 0.12602 0.52133 0.32027 0.0
C1463 C 0.10738 0.51484 0.30973 0.0
C1464 C 0.13107 0.50612 0.32549 0.0
C1465 C 0.11772 0.48417 0.32012 0.0
C1466 C 0.0987 0.47756 0.31008 0.0
C1467 C 0.09356 0.49273 0.30495 0.0
C1468 C 0.12388 0.46813 0.32454 0.0
C1469 C 0.10885 0.44997 0.33141 0.0
C1470 C 0.14438 0.47061 0.32197 0.0
C1471 C 0.16041 0.48859 0.31379 0.0
C1472 C 0.15469 0.49203 0.29859 0.0
C1473 C 0.16985 0.50906 0.29097 0.0
C1474 C 0.19085 0.52266 0.29837 0.0
C1475 C 0.19675 0.51921 0.3134 0.0
C1476 C 0.18164 0.50222 0.32108 0.0
C1477 C 0.13278 0.38338 0.33195 0.0
C1478 C 0.15073 0.38832 0.34274 0.0
C1479 C 0.12738 0.39912 0.32891 0.0
C1480 C 0.1399 0.42009 0.33656 0.0
C1481 C 0.15797 0.42517 0.34719 0.0
C1482 C 0.16327 0.40939 0.35034 0.0
C1483 C 0.1343 0.43682 0.33326 0.0
C1484 C 0.14943 0.45506 0.32658 0.0
C1485 C 0.11382 0.4343 0.33584 0.0
C1486 C 0.09752 0.41571 0.3434 0.0
C1487 C 0.10295 0.41108 0.35825 0.0
C1488 C 0.08757 0.39343 0.36524 0.0
C1489 C 0.06665 0.38036 0.35755 0.0
C1490 C 0.06105 0.38496 0.34287 0.0
C1491 C 0.07637 0.40258 0.33582 0.0
H1492 H 0.05477 0.3667 0.36298 0.0
H1493 H 0.20257 0.53583 0.29245 0.0
H1494 H 0.40617 0.50546 0.32622 0.0
H1495 H 0.37051 0.48218 0.33515 0.0
H1496 H 0.34118 0.46642 0.28689 0.0
H1497 H 0.37689 0.48974 0.27793 0.0
H1498 H 0.31739 0.47534 0.30712 0.0
H1499 H 0.35052 0.43121 0.3045 0.0
H1500 H 0.37923 0.42226 0.31037 0.0
H1501 H 0.37279 0.42725 0.35996 0.0
H1502 H 0.34423 0.43653 0.35438 0.0
H1503 H 0.21671 0.38294 0.31519 0.0
H1504 H 0.25251 0.40837 0.30793 0.0
H1505 H 0.27962 0.41863 0.35643 0.0
H1506 H 0.24382 0.39279 0.3638 0.0
H1507 H 0.30494 0.41367 0.33704 0.0
H1508 H 0.27083 0.45649 0.33976 0.0
H1509 H 0.24186 0.46509 0.33394 0.0
H1510 H 0.25 0.46276 0.28452 0.0
H1511 H 0.27882 0.45383 0.29002 0.0
C1512 C 0.39208 0.49709 0.31755 0.0
C1513 C 0.39417 0.49945 0.3014 0.0
C1514 C 0.37176 0.48376 0.32264 0.0
C1515 C 0.35322 0.47248 0.31167 0.0
C1516 C 0.35527 0.47502 0.29555 0.0
C1517 C 0.3756 0.48828 0.29045 0.0
C1518 C 0.33173 0.45782 0.31697 0.0
C1519 C 0.31458 0.46171 0.31352 0.0
C1520 C 0.32825 0.44038 0.32566 0.0
C1521 C 0.34541 0.4348 0.32903 0.0
C1522 C 0.35536 0.43059 0.31666 0.0
C1523 C 0.37158 0.42542 0.31994 0.0
C1524 C 0.37787 0.42425 0.33553 0.0
C1525 C 0.36792 0.4282 0.34788 0.0
C1526 C 0.35171 0.4334 0.34467 0.0
C1527 C 0.23023 0.39065 0.32437 0.0
C1528 C 0.22735 0.38586 0.34011 0.0
C1529 C 0.25071 0.40528 0.32019 0.0
C1530 C 0.26871 0.41566 0.33167 0.0
C1531 C 0.26594 0.41086 0.34738 0.0
C1532 C 0.24545 0.39612 0.35158 0.0
C1533 C 0.29051 0.43112 0.32716 0.0
C1534 C 0.30774 0.42737 0.33074 0.0
C1535 C 0.29406 0.44873 0.31863 0.0
C1536 C 0.27688 0.45431 0.31529 0.0
C1537 C 0.26635 0.45766 0.32764 0.0
C1538 C 0.24997 0.46262 0.3244 0.0
C1539 C 0.24406 0.46442 0.30887 0.0
C1540 C 0.25458 0.46134 0.29655 0.0
C1541 C 0.27096 0.45636 0.29972 0.0
H1542 H 0.23137 0.46825 0.30639 0.0
H1543 H 0.39042 0.42024 0.33804 0.0
H1544 H 0.47827 0.85878 0.31368 0.0
H1545 H 0.50465 0.8471 0.31982 0.0
H1546 H 0.54766 0.89157 0.28929 0.0
H1547 H 0.52108 0.90295 0.28294 0.0
H1548 H 0.54809 0.85408 0.28649 0.0
H1549 H 0.55549 0.90498 0.32896 0.0
H1550 H 0.54285 0.91987 0.34989 0.0
H1551 H 0.52189 0.86256 0.37343 0.0
H1552 H 0.53414 0.8472 0.3525 0.0
H1553 H 0.64547 0.85937 0.31947 0.0
H1554 H 0.61765 0.8677 0.31006 0.0
H1555 H 0.57408 0.82471 0.34104 0.0
H1556 H 0.60187 0.81663 0.35073 0.0
H1557 H 0.57417 0.8616 0.3431 0.0
H1558 H 0.56793 0.81108 0.30072 0.0
H1559 H 0.58179 0.79705 0.28012 0.0
H1560 H 0.60159 0.85417 0.25656 0.0
H1561 H 0.58813 0.8687 0.27717 0.0
C1562 C 0.49331 0.8659 0.30823 0.0
C1563 C 0.49791 0.88206 0.29813 0.0
C1564 C 0.50837 0.85929 0.31174 0.0
C1565 C 0.52835 0.86878 0.30526 0.0
C1566 C 0.53245 0.88412 0.29451 0.0
C1567 C 0.51733 0.89069 0.29095 0.0
C1568 C 0.54535 0.86349 0.31031 0.0
C1569 C 0.55396 0.85592 0.29885 0.0
C1570 C 0.55284 0.86563 0.32646 0.0
C1571 C 0.54553 0.87486 0.33908 0.0
C1572 C 0.54804 0.89549 0.33854 0.0
C1573 C 0.54097 0.90402 0.35041 0.0
C1574 C 0.53152 0.89214 0.36296 0.0
C1575 C 0.52918 0.87173 0.36368 0.0
C1576 C 0.5362 0.86311 0.35183 0.0
C1577 C 0.62996 0.85165 0.32426 0.0
C1578 C 0.62596 0.83738 0.3359 0.0
C1579 C 0.61401 0.85634 0.3188 0.0
C1580 C 0.59367 0.84668 0.32473 0.0
C1581 C 0.58964 0.83238 0.33629 0.0
C1582 C 0.60558 0.82776 0.3418 0.0
C1583 C 0.57677 0.85193 0.31932 0.0
C1584 C 0.56825 0.85963 0.33074 0.0
C1585 C 0.56945 0.84994 0.30315 0.0
C1586 C 0.57718 0.84106 0.29057 0.0
C1587 C 0.57535 0.82071 0.2912 0.0
C1588 C 0.58313 0.81266 0.27952 0.0
C1589 C 0.5926 0.82473 0.26706 0.0
C1590 C 0.59426 0.84485 0.26623 0.0
C1591 C 0.58654 0.85299 0.2779 0.0
H1592 H 0.5986 0.81847 0.25803 0.0
H1593 H 0.52606 0.89878 0.37214 0.0
H1594 H 0.10866 0.60977 0.35136 0.0
H1595 H 0.12186 0.64852 0.35624 0.0
H1596 H 0.10309 0.64961 0.30734 0.0
H1597 H 0.08995 0.61088 0.30246 0.0
H1598 H 0.14439 0.68181 0.31737 0.0
H1599 H 0.07352 0.65255 0.3357 0.0
H1600 H 0.04431 0.63015 0.35173 0.0
H1601 H 0.0863 0.66441 0.39424 0.0
H1602 H 0.11587 0.68683 0.37845 0.0
H1603 H 0.15664 0.78504 0.31941 0.0
H1604 H 0.14218 0.74622 0.31655 0.0
H1605 H 0.15604 0.74786 0.36679 0.0
H1606 H 0.16984 0.78677 0.36981 0.0
H1607 H 0.11812 0.71419 0.3571 0.0
H1608 H 0.18876 0.74378 0.33946 0.0
H1609 H 0.21858 0.76623 0.32393 0.0
H1610 H 0.17841 0.73132 0.2809 0.0
H1611 H 0.1482 0.70883 0.29617 0.0
C1612 C 0.10711 0.61829 0.34175 0.0
C1613 C 0.09801 0.60742 0.3266 0.0
C1614 C 0.11462 0.64035 0.34453 0.0
C1615 C 0.11324 0.65187 0.33218 0.0
C1616 C 0.1042 0.64099 0.31704 0.0
C1617 C 0.09663 0.61894 0.31428 0.0
C1618 C 0.12199 0.67543 0.33486 0.0
C1619 C 0.13846 0.68889 0.32591 0.0
C1620 C 0.11475 0.68466 0.34638 0.0
C1621 C 0.09697 0.67122 0.35589 0.0
C1622 C 0.07658 0.65518 0.34846 0.0
C1623 C 0.05995 0.64251 0.35751 0.0
C1624 C 0.06347 0.64581 0.374 0.0
C1625 C 0.08361 0.66185 0.38147 0.0
C1626 C 0.1003 0.67456 0.37248 0.0
C1627 C 0.15667 0.77717 0.32986 0.0
C1628 C 0.16453 0.78899 0.34483 0.0
C1629 C 0.14846 0.75496 0.3282 0.0
C1630 C 0.14842 0.74415 0.34141 0.0
C1631 C 0.15598 0.75586 0.35642 0.0
C1632 C 0.16391 0.77809 0.35813 0.0
C1633 C 0.1404 0.72063 0.33948 0.0
C1634 C 0.12412 0.70716 0.34859 0.0
C1635 C 0.14795 0.71137 0.32819 0.0
C1636 C 0.16615 0.72474 0.31897 0.0
C1637 C 0.18624 0.74097 0.32668 0.0
C1638 C 0.20322 0.7537 0.31793 0.0
C1639 C 0.2004 0.75024 0.30144 0.0
C1640 C 0.18058 0.734 0.29368 0.0
C1641 C 0.16352 0.72124 0.30238 0.0
H1642 H 0.21357 0.76013 0.29469 0.0
H1643 H 0.05057 0.63598 0.38098 0.0
H1644 H 0.82795 0.06959 0.40592 0.0
H1645 H 0.79992 0.03137 0.40177 0.0
H1646 H 0.84174 0.01802 0.37462 0.0
H1647 H 0.86954 0.05638 0.37843 0.0
H1648 H 0.80175 0.99852 0.36007 0.0
H1649 H 0.83332 0.00501 0.41323 0.0
H1650 H 0.84508 0.02088 0.44097 0.0
H1651 H 0.7795 0.00327 0.44817 0.0
H1652 H 0.76739 0.98753 0.4204 0.0
H1653 H 0.74642 0.88587 0.35582 0.0
H1654 H 0.77377 0.92366 0.36281 0.0
H1655 H 0.72856 0.93313 0.38861 0.0
H1656 H 0.70108 0.89501 0.38193 0.0
H1657 H 0.76897 0.95483 0.40415 0.0
H1658 H 0.73716 0.94821 0.35151 0.0
H1659 H 0.72493 0.93286 0.3237 0.0
H1660 H 0.79042 0.95137 0.31545 0.0
H1661 H 0.803 0.96655 0.34329 0.0
C1662 C 0.83109 0.05845 0.39906 0.0
C1663 C 0.85079 0.06584 0.39239 0.0
C1664 C 0.81516 0.03662 0.39678 0.0
C1665 C 0.8188 0.02176 0.38801 0.0
C1666 C 0.83856 0.02917 0.38142 0.0
C1667 C 0.85442 0.05101 0.38361 0.0
C1668 C 0.80187 0.99858 0.38534 0.0
C1669 C 0.79482 0.98891 0.36973 0.0
C1670 C 0.79229 0.98619 0.39792 0.0
C1671 C 0.79949 0.99527 0.4147 0.0
C1672 C 0.82143 0.00463 0.42071 0.0
C1673 C 0.82815 0.01359 0.43644 0.0
C1674 C 0.81306 0.01314 0.44631 0.0
C1675 C 0.79118 0.00363 0.4405 0.0
C1676 C 0.78437 0.99467 0.42477 0.0
C1677 C 0.74225 0.89592 0.36304 0.0
C1678 C 0.72145 0.88748 0.36815 0.0
C1679 C 0.75793 0.91756 0.36701 0.0
C1680 C 0.75307 0.93134 0.37596 0.0
C1681 C 0.73261 0.92281 0.38161 0.0
C1682 C 0.71692 0.90104 0.37775 0.0
C1683 C 0.76916 0.95475 0.37889 0.0
C1684 C 0.77595 0.96447 0.39452 0.0
C1685 C 0.77847 0.96726 0.36633 0.0
C1686 C 0.77099 0.95835 0.34953 0.0
C1687 C 0.74893 0.94888 0.34379 0.0
C1688 C 0.74194 0.94023 0.32802 0.0
C1689 C 0.75688 0.9411 0.31782 0.0
C1690 C 0.77886 0.95068 0.32337 0.0
C1691 C 0.78594 0.95934 0.33914 0.0
H1692 H 0.75144 0.93438 0.30562 0.0
H1693 H 0.8183 0.02013 0.45848 0.0
H1694 H 0.9647 0.76681 0.41415 0.0
H1695 H 1.00172 0.78026 0.40724 0.0
H1696 H 0.00592 0.84032 0.39721 0.0
H1697 H 0.96856 0.82657 0.40374 0.0
H1698 H 0.02073 0.82768 0.37474 0.0
H1699 H 0.03519 0.83711 0.43058 0.0
H1700 H 0.03112 0.8276 0.45798 0.0
H1701 H 0.04635 0.77788 0.44694 0.0
H1702 H 0.05031 0.78695 0.41943 0.0
H1703 H 0.14439 0.86238 0.38887 0.0
H1704 H 0.11061 0.85562 0.39919 0.0
H1705 H 0.07396 0.81339 0.35705 0.0
H1706 H 0.10767 0.82066 0.34643 0.0
H1707 H 0.07755 0.82236 0.40746 0.0
H1708 H 0.02819 0.81406 0.34782 0.0
H1709 H 0.0348 0.82891 0.32206 0.0
H1710 H 0.0929 0.88537 0.34343 0.0
H1711 H 0.08649 0.871 0.36935 0.0
C1712 C 0.97365 0.78299 0.41069 0.0
C1713 C 0.96392 0.7958 0.40974 0.0
C1714 C 0.99486 0.79072 0.4068 0.0
C1715 C 0.00683 0.81147 0.40193 0.0
C1716 C 0.9971 0.82431 0.40101 0.0
C1717 C 0.97583 0.81652 0.40482 0.0
C1718 C 0.02894 0.81918 0.39692 0.0
C1719 C 0.03316 0.82658 0.38194 0.0
C1720 C 0.04545 0.8183 0.40641 0.0
C1721 C 0.04284 0.81258 0.4229 0.0
C1722 C 0.03746 0.824 0.43396 0.0
C1723 C 0.03521 0.81872 0.44951 0.0
C1724 C 0.03839 0.80208 0.45418 0.0
C1725 C 0.04384 0.79072 0.4433 0.0
C1726 C 0.04613 0.79595 0.42773 0.0
C1727 C 0.12915 0.85173 0.38175 0.0
C1728 C 0.12878 0.84223 0.36674 0.0
C1729 C 0.10981 0.84782 0.3877 0.0
C1730 C 0.08967 0.83425 0.37882 0.0
C1731 C 0.08927 0.82436 0.36399 0.0
C1732 C 0.1086 0.82846 0.35794 0.0
C1733 C 0.06908 0.83026 0.38509 0.0
C1734 C 0.06515 0.82356 0.4003 0.0
C1735 C 0.05309 0.83245 0.37601 0.0
C1736 C 0.05694 0.84134 0.36049 0.0
C1737 C 0.04232 0.82968 0.34703 0.0
C1738 C 0.04605 0.83801 0.3324 0.0
C1739 C 0.06429 0.85804 0.3311 0.0
C1740 C 0.07882 0.86982 0.34444 0.0
C1741 C 0.07515 0.86158 0.3591 0.0
H1742 H 0.06716 0.86445 0.31976 0.0
H1743 H 0.03671 0.79806 0.46625 0.0
H1744 H 0.2831 0.21564 0.38985 0.0
H1745 H 0.267 0.2379 0.38373 0.0
H1746 H 0.20438 0.18046 0.37184 0.0
H1747 H 0.22066 0.15821 0.3773 0.0
H1748 H 0.20892 0.20762 0.35203 0.0
H1749 H 0.21852 0.21156 0.40826 0.0
H1750 H 0.23843 0.21779 0.43451 0.0
H1751 H 0.28101 0.28396 0.42727 0.0
H1752 H 0.26153 0.27805 0.40087 0.0
H1753 H 0.16929 0.28642 0.38207 0.0
H1754 H 0.18162 0.26085 0.38695 0.0
H1755 H 0.21165 0.27319 0.34344 0.0
H1756 H 0.1989 0.29828 0.33826 0.0
H1757 H 0.22045 0.26641 0.39192 0.0
H1758 H 0.21142 0.22916 0.32746 0.0
H1759 H 0.18735 0.21982 0.30271 0.0
H1760 H 0.13593 0.21456 0.32913 0.0
H1761 H 0.15957 0.22357 0.35403 0.0
C1762 C 0.26593 0.20783 0.38587 0.0
C1763 C 0.25298 0.18527 0.38438 0.0
C1764 C 0.25672 0.22052 0.38246 0.0
C1765 C 0.23436 0.21086 0.37769 0.0
C1766 C 0.22161 0.18829 0.37561 0.0
C1767 C 0.23087 0.1756 0.37881 0.0
C1768 C 0.22419 0.22425 0.37509 0.0
C1769 C 0.21145 0.22048 0.36075 0.0
C1770 C 0.22697 0.24065 0.38664 0.0
C1771 C 0.23868 0.2443 0.40253 0.0
C1772 C 0.23222 0.2274 0.41222 0.0
C1773 C 0.24342 0.23088 0.42713 0.0
C1774 C 0.261 0.25125 0.43254 0.0
C1775 C 0.2674 0.26819 0.42306 0.0
C1776 C 0.25628 0.26479 0.40813 0.0
C1777 C 0.17841 0.28359 0.37349 0.0
C1778 C 0.1831 0.29435 0.35976 0.0
C1779 C 0.18548 0.26901 0.37632 0.0
C1780 C 0.1974 0.26496 0.3655 0.0
C1781 C 0.20212 0.27573 0.35181 0.0
C1782 C 0.19489 0.29015 0.3489 0.0
C1783 C 0.20551 0.25001 0.36875 0.0
C1784 C 0.21788 0.25352 0.38321 0.0
C1785 C 0.20179 0.23291 0.35753 0.0
C1786 C 0.18736 0.22725 0.3426 0.0
C1787 C 0.19495 0.22593 0.32799 0.0
C1788 C 0.18139 0.2207 0.31393 0.0
C1789 C 0.16015 0.21667 0.31435 0.0
C1790 C 0.1524 0.21777 0.32882 0.0
C1791 C 0.16589 0.22297 0.34291 0.0
H1792 H 0.14968 0.21264 0.30345 0.0
H1793 H 0.26965 0.25391 0.44409 0.0
H1794 H 0.60954 0.52229 0.74629 0.0
H1795 H 0.6426 0.54894 0.73613 0.0
H1796 H 0.64925 0.49795 0.71278 0.0
H1797 H 0.6169 0.47118 0.72372 0.0
H1798 H 0.68709 0.52794 0.72579 0.0
H1799 H 0.63078 0.52774 0.69235 0.0
H1800 H 0.59772 0.52971 0.68573 0.0
H1801 H 0.62895 0.59409 0.70899 0.0
H1802 H 0.66211 0.5924 0.71595 0.0
H1803 H 0.76728 0.59779 0.6783 0.0
H1804 H 0.73246 0.56959 0.68562 0.0
H1805 H 0.7285 0.61658 0.71689 0.0
H1806 H 0.76328 0.64482 0.70975 0.0
H1807 H 0.68898 0.58768 0.6982 0.0
H1808 H 0.74487 0.5862 0.7324 0.0
H1809 H 0.77805 0.58397 0.73759 0.0
H1810 H 0.74699 0.52167 0.71094 0.0
H1811 H 0.7137 0.52368 0.7054 0.0
C1812 C 0.61813 0.51669 0.73916 0.0
C1813 C 0.61046 0.49451 0.73585 0.0
C1814 C 0.63692 0.53198 0.73315 0.0
C1815 C 0.64827 0.52549 0.72344 0.0
C1816 C 0.64073 0.50339 0.72016 0.0
C1817 C 0.62207 0.48807 0.72631 0.0
C1818 C 0.66823 0.54178 0.71699 0.0
C1819 C 0.68735 0.54077 0.71953 0.0
C1820 C 0.66878 0.55876 0.70898 0.0
C1821 C 0.64887 0.55987 0.70479 0.0
C1822 C 0.63055 0.54226 0.69616 0.0
C1823 C 0.61179 0.54333 0.69233 0.0
C1824 C 0.61121 0.56199 0.69697 0.0
C1825 C 0.62941 0.57964 0.70542 0.0
C1826 C 0.6482 0.57864 0.7093 0.0
C1827 C 0.75891 0.60216 0.68663 0.0
C1828 C 0.76811 0.62354 0.6935 0.0
C1829 C 0.73906 0.58602 0.69083 0.0
C1830 C 0.728 0.591 0.70187 0.0
C1831 C 0.73679 0.61242 0.70835 0.0
C1832 C 0.75672 0.62851 0.7043 0.0
C1833 C 0.70765 0.57382 0.70713 0.0
C1834 C 0.68855 0.57471 0.70436 0.0
C1835 C 0.70705 0.55661 0.71476 0.0
C1836 C 0.72688 0.55519 0.71836 0.0
C1837 C 0.74516 0.57209 0.72757 0.0
C1838 C 0.76398 0.57085 0.73058 0.0
C1839 C 0.76465 0.55272 0.72456 0.0
C1840 C 0.74646 0.53573 0.71557 0.0
C1841 C 0.72761 0.53689 0.71251 0.0
H1842 H 0.77924 0.5518 0.72688 0.0
H1843 H 0.59668 0.56279 0.69399 0.0
H1844 H 0.52428 0.13731 0.77405 0.0
H1845 H 0.49409 0.14107 0.76298 0.0
H1846 H 0.50145 0.1204 0.71641 0.0
H1847 H 0.5317 0.11642 0.72746 0.0
H1848 H 0.49348 0.15479 0.71684 0.0
H1849 H 0.46292 0.0849 0.73653 0.0
H1850 H 0.45893 0.06076 0.75707 0.0
H1851 H 0.43625 0.09359 0.78728 0.0
H1852 H 0.44038 0.11813 0.76698 0.0
H1853 H 0.39287 0.13421 0.68014 0.0
H1854 H 0.4228 0.1293 0.69011 0.0
H1855 H 0.41182 0.14092 0.73799 0.0
H1856 H 0.38126 0.14498 0.72807 0.0
H1857 H 0.42182 0.11065 0.73668 0.0
H1858 H 0.45105 0.17983 0.71797 0.0
H1859 H 0.45511 0.20505 0.69842 0.0
H1860 H 0.48252 0.17708 0.6682 0.0
H1861 H 0.47751 0.15082 0.68725 0.0
C1862 C 0.5195 0.13356 0.76145 0.0
C1863 C 0.5302 0.12627 0.75166 0.0
C1864 C 0.50227 0.13577 0.75514 0.0
C1865 C 0.49527 0.13065 0.73892 0.0
C1866 C 0.50655 0.12435 0.72898 0.0
C1867 C 0.52386 0.12215 0.7353 0.0
C1868 C 0.47569 0.13109 0.73251 0.0
C1869 C 0.47772 0.14492 0.72097 0.0
C1870 C 0.4553 0.11865 0.73828 0.0
C1871 C 0.4521 0.10344 0.75028 0.0
C1872 C 0.45715 0.08702 0.74757 0.0
C1873 C 0.45487 0.07327 0.75917 0.0
C1874 C 0.44738 0.07567 0.77348 0.0
C1875 C 0.44205 0.09176 0.77619 0.0
C1876 C 0.44433 0.10557 0.76463 0.0
C1877 C 0.39674 0.1356 0.6928 0.0
C1878 C 0.38481 0.14017 0.70332 0.0
C1879 C 0.41391 0.13284 0.69849 0.0
C1880 C 0.41992 0.13518 0.71482 0.0
C1881 C 0.40757 0.13908 0.72535 0.0
C1882 C 0.39013 0.14146 0.71966 0.0
C1883 C 0.4395 0.13435 0.72089 0.0
C1884 C 0.43751 0.12048 0.73243 0.0
C1885 C 0.46002 0.147 0.71527 0.0
C1886 C 0.46367 0.16318 0.70398 0.0
C1887 C 0.45779 0.17892 0.70711 0.0
C1888 C 0.46026 0.19342 0.6961 0.0
C1889 C 0.46921 0.1928 0.6821 0.0
C1890 C 0.47559 0.17756 0.67906 0.0
C1891 C 0.47283 0.16278 0.68992 0.0
H1892 H 0.47117 0.20411 0.67362 0.0
H1893 H 0.44569 0.06504 0.78246 0.0
H1894 H 0.89031 0.39444 0.7575 0.0
H1895 H 0.8852 0.35973 0.74703 0.0
H1896 H 0.91027 0.38615 0.70387 0.0
H1897 H 0.91575 0.42119 0.71438 0.0
H1898 H 0.8732 0.34591 0.69862 0.0
H1899 H 0.94202 0.37903 0.72984 0.0
H1900 H 0.96776 0.398 0.75367 0.0
H1901 H 0.92954 0.34502 0.78005 0.0
H1902 H 0.90338 0.32585 0.75643 0.0
H1903 H 0.88 0.25385 0.67196 0.0
H1904 H 0.88978 0.29106 0.67996 0.0
H1905 H 0.87002 0.27379 0.72623 0.0
H1906 H 0.86058 0.2367 0.71846 0.0
H1907 H 0.90741 0.31119 0.72836 0.0
H1908 H 0.83726 0.27944 0.69813 0.0
H1909 H 0.81073 0.26043 0.67469 0.0
H1910 H 0.85078 0.31066 0.64681 0.0
H1911 H 0.87771 0.32983 0.67005 0.0
C1912 C 0.89495 0.39297 0.74584 0.0
C1913 C 0.90366 0.41064 0.73683 0.0
C1914 C 0.89196 0.3731 0.73986 0.0
C1915 C 0.89766 0.37049 0.72478 0.0
C1916 C 0.90584 0.3879 0.71556 0.0
C1917 C 0.90889 0.40785 0.72156 0.0
C1918 C 0.89498 0.3495 0.71873 0.0
C1919 C 0.88097 0.33845 0.70494 0.0
C1920 C 0.90484 0.33968 0.72718 0.0
C1921 C 0.92065 0.35108 0.74139 0.0
C1922 C 0.93902 0.37149 0.74075 0.0
C1923 C 0.95369 0.38226 0.75422 0.0
C1924 C 0.95026 0.37274 0.76837 0.0
C1925 C 0.93217 0.35238 0.76908 0.0
C1926 C 0.91743 0.34154 0.75565 0.0
C1927 C 0.8778 0.25798 0.68386 0.0
C1928 C 0.86941 0.24229 0.69455 0.0
C1929 C 0.88333 0.27924 0.68839 0.0
C1930 C 0.88038 0.28512 0.70363 0.0
C1931 C 0.87241 0.26959 0.71441 0.0
C1932 C 0.86697 0.24837 0.70992 0.0
C1933 C 0.88532 0.30739 0.70838 0.0
C1934 C 0.89979 0.31871 0.72193 0.0
C1935 C 0.87582 0.3174 0.69975 0.0
C1936 C 0.85961 0.30594 0.68578 0.0
C1937 C 0.84049 0.28634 0.68697 0.0
C1938 C 0.82537 0.27555 0.67373 0.0
C1939 C 0.8291 0.2843 0.65926 0.0
C1940 C 0.84793 0.30388 0.65802 0.0
C1941 C 0.86312 0.31472 0.67122 0.0
H1942 H 0.81737 0.27592 0.64902 0.0
H1943 H 0.96164 0.38111 0.77879 0.0
H1944 H 0.17543 0.92236 0.61085 0.0
H1945 H 0.20486 0.95675 0.62372 0.0
H1946 H 0.15833 0.96863 0.6455 0.0
H1947 H 0.12867 0.93454 0.63217 0.0
H1948 H 0.18787 0.00398 0.63372 0.0
H1949 H 0.18971 0.95319 0.66678 0.0
H1950 H 0.19115 0.92079 0.67291 0.0
H1951 H 0.25293 0.9458 0.65452 0.0
H1952 H 0.25172 0.97823 0.64807 0.0
H1953 H 0.26439 0.09186 0.68759 0.0
H1954 H 0.23489 0.05589 0.67741 0.0
H1955 H 0.27934 0.04476 0.65195 0.0
H1956 H 0.30904 0.08074 0.66211 0.0
H1957 H 0.2506 0.009 0.66638 0.0
H1958 H 0.24814 0.05941 0.63283 0.0
H1959 H 0.24711 0.09227 0.6275 0.0
H1960 H 0.18634 0.06793 0.64732 0.0
H1961 H 0.18721 0.03508 0.65304 0.0
C1962 C 0.17141 0.93234 0.61827 0.0
C1963 C 0.14966 0.92569 0.62045 0.0
C1964 C 0.1883 0.95192 0.62577 0.0
C1965 C 0.18384 0.96518 0.63573 0.0
C1966 C 0.16216 0.95863 0.63791 0.0
C1967 C 0.14524 0.93905 0.63039 0.0
C1968 C 0.2018 0.98607 0.6436 0.0
C1969 C 0.2014 0.00501 0.64106 0.0
C1970 C 0.21972 0.98752 0.65291 0.0
C1971 C 0.22053 0.96805 0.65681 0.0
C1972 C 0.20352 0.9517 0.66393 0.0
C1973 C 0.20431 0.93334 0.66748 0.0
C1974 C 0.22209 0.93121 0.66408 0.0
C1975 C 0.23915 0.94746 0.65714 0.0
C1976 C 0.23844 0.96585 0.65355 0.0
C1977 C 0.26799 0.08171 0.67996 0.0
C1978 C 0.28907 0.08924 0.67558 0.0
C1979 C 0.25107 0.06117 0.67412 0.0
C1980 C 0.25488 0.04778 0.66378 0.0
C1981 C 0.27606 0.05488 0.65989 0.0
C1982 C 0.29299 0.07547 0.66568 0.0
C1983 C 0.2366 0.02677 0.65648 0.0
C1984 C 0.23698 0.00787 0.65909 0.0
C1985 C 0.21865 0.02535 0.64726 0.0
C1986 C 0.21785 0.04487 0.64351 0.0
C1987 C 0.23462 0.06112 0.63615 0.0
C1988 C 0.23407 0.07975 0.63305 0.0
C1989 C 0.2167 0.08221 0.63711 0.0
C1990 C 0.19981 0.06602 0.64421 0.0
C1991 C 0.20031 0.04739 0.64738 0.0
H1992 H 0.21632 0.09666 0.63472 0.0
H1993 H 0.22267 0.91699 0.66684 0.0
H1994 H 0.0655 0.24164 0.60829 0.0
H1995 H 0.0331 0.23708 0.6197 0.0
H1996 H 0.02115 0.17635 0.635 0.0
H1997 H 0.05321 0.18043 0.62322 0.0
H1998 H 0.99037 0.20537 0.61285 0.0
H1999 H 0.99996 0.17172 0.6709 0.0
H2000 H 0.02916 0.17409 0.6895 0.0
H2001 H 0.07359 0.23653 0.67596 0.0
H2002 H 0.04459 0.23466 0.65745 0.0
H2003 H 0.89125 0.16095 0.64639 0.0
H2004 H 0.92479 0.16644 0.63652 0.0
H2005 H 0.96213 0.21825 0.67352 0.0
H2006 H 0.92843 0.21206 0.68394 0.0
H2007 H 0.98139 0.1962 0.66964 0.0
H2008 H 0.95184 0.22674 0.63337 0.0
H2009 H 0.92328 0.22608 0.61504 0.0
H2010 H 0.92028 0.174 0.58553 0.0
H2011 H 0.94877 0.17429 0.6037 0.0
C2012 C 0.05589 0.22717 0.61392 0.0
C2013 C 0.062 0.21136 0.61474 0.0
C2014 C 0.0374 0.22465 0.6205 0.0
C2015 C 0.02475 0.20643 0.62825 0.0
C2016 C 0.03082 0.19067 0.62922 0.0
C2017 C 0.04923 0.19309 0.62254 0.0
C2018 C 0.00511 0.20386 0.63521 0.0
C2019 C 0.9884 0.20338 0.62527 0.0
C2020 C 1.00265 0.20153 0.65144 0.0
C2021 C 0.02015 0.20293 0.66267 0.0
C2022 C 0.01594 0.18598 0.67193 0.0
C2023 C 0.03246 0.18723 0.68246 0.0
C2024 C 0.05324 0.20541 0.68387 0.0
C2025 C 0.05752 0.22241 0.6748 0.0
C2026 C 0.04105 0.22125 0.66428 0.0
C2027 C 0.90661 0.17348 0.65247 0.0
C2028 C 0.90722 0.18621 0.66587 0.0
C2029 C 0.9258 0.1767 0.64675 0.0
C2030 C 0.94605 0.19316 0.65399 0.0
C2031 C 0.94672 0.20553 0.66765 0.0
C2032 C 0.92747 0.20201 0.6736 0.0
C2033 C 0.96645 0.19747 0.64726 0.0
C2034 C 0.98332 0.19824 0.65723 0.0
C2035 C 0.96917 0.20034 0.63107 0.0
C2036 C 0.95237 0.20048 0.61995 0.0
C2037 C 0.94506 0.21513 0.62299 0.0
C2038 C 0.9289 0.21482 0.61262 0.0
C2039 C 0.91999 0.20001 0.59913 0.0
C2040 C 0.92722 0.18547 0.59597 0.0
C2041 C 0.94343 0.18576 0.60627 0.0
H2042 H 0.90754 0.19983 0.59109 0.0
H2043 H 0.066 0.20634 0.69202 0.0
H2044 H 0.74125 0.81457 0.62631 0.0
H2045 H 0.75048 0.78802 0.63514 0.0
H2046 H 0.81053 0.83925 0.65975 0.0
H2047 H 0.80154 0.86591 0.65078 0.0
H2048 H 0.81599 0.80934 0.64183 0.0
H2049 H 0.76996 0.80976 0.68038 0.0
H2050 H 0.73683 0.80739 0.68957 0.0
H2051 H 0.69872 0.74279 0.66687 0.0
H2052 H 0.73159 0.74489 0.65734 0.0
H2053 H 0.84237 0.74428 0.68796 0.0
H2054 H 0.83291 0.7712 0.68045 0.0
H2055 H 0.77417 0.72117 0.65358 0.0
H2056 H 0.78359 0.69418 0.66085 0.0
H2057 H 0.76819 0.75066 0.67302 0.0
H2058 H 0.81386 0.74973 0.63479 0.0
H2059 H 0.84657 0.7519 0.62498 0.0
H2060 H 0.88494 0.8174 0.6459 0.0
H2061 H 0.85262 0.81537 0.65638 0.0
C2062 C 0.75644 0.82015 0.63357 0.0
C2063 C 0.77067 0.84228 0.63789 0.0
C2064 C 0.76162 0.80499 0.63868 0.0
C2065 C 0.7811 0.8117 0.64818 0.0
C2066 C 0.79539 0.83378 0.65246 0.0
C2067 C 0.79016 0.84894 0.64743 0.0
C2068 C 0.78674 0.79567 0.65345 0.0
C2069 C 0.80575 0.79671 0.64887 0.0
C2070 C 0.77301 0.7789 0.66226 0.0
C2071 C 0.75321 0.77757 0.66801 0.0
C2072 C 0.75449 0.79512 0.67723 0.0
C2073 C 0.73576 0.79381 0.68253 0.0
C2074 C 0.71567 0.77497 0.67878 0.0
C2075 C 0.71428 0.75738 0.66975 0.0
C2076 C 0.73296 0.75862 0.66441 0.0
C2077 C 0.82738 0.739 0.68052 0.0
C2078 C 0.81373 0.71714 0.67496 0.0
C2079 C 0.82206 0.75439 0.67621 0.0
C2080 C 0.80291 0.74812 0.66642 0.0
C2081 C 0.78901 0.72627 0.66115 0.0
C2082 C 0.79447 0.71092 0.66526 0.0
C2083 C 0.79751 0.76441 0.66147 0.0
C2084 C 0.77851 0.76337 0.66606 0.0
C2085 C 0.81123 0.78115 0.65263 0.0
C2086 C 0.83083 0.78228 0.6466 0.0
C2087 C 0.82934 0.76448 0.63756 0.0
C2088 C 0.84782 0.76568 0.63187 0.0
C2089 C 0.86786 0.78471 0.63493 0.0
C2090 C 0.86945 0.80259 0.64367 0.0
C2091 C 0.85106 0.80141 0.64952 0.0
H2092 H 0.88212 0.78564 0.63043 0.0
H2093 H 0.70119 0.77399 0.68289 0.0
H2094 H 0.07164 0.82617 0.65661 0.0
H2095 H 0.03641 0.80321 0.66624 0.0
H2096 H 0.00372 0.80564 0.62276 0.0
H2097 H 0.03896 0.82851 0.61305 0.0
H2098 H 0.98583 0.81153 0.64968 0.0
H2099 H 0.00708 0.76237 0.62762 0.0
H2100 H 0.0316 0.74779 0.62447 0.0
H2101 H 0.03079 0.73672 0.67344 0.0
H2102 H 0.0065 0.75153 0.67694 0.0
H2103 H 0.8804 0.72188 0.6518 0.0
H2104 H 0.91642 0.74749 0.64484 0.0
H2105 H 0.94558 0.74081 0.68842 0.0
H2106 H 0.90952 0.71512 0.69554 0.0
H2107 H 0.96591 0.738 0.66284 0.0
H2108 H 0.94386 0.78519 0.68512 0.0
H2109 H 0.91989 0.80018 0.68919 0.0
H2110 H 0.92287 0.81578 0.64123 0.0
H2111 H 0.94651 0.80044 0.63675 0.0
C2112 C 0.05693 0.82198 0.6492 0.0
C2113 C 0.058 0.82948 0.63424 0.0
C2114 C 0.03684 0.80881 0.65467 0.0
C2115 C 0.01747 0.80273 0.64521 0.0
C2116 C 0.01849 0.81029 0.63029 0.0
C2117 C 0.03858 0.82334 0.62477 0.0
C2118 C 0.99613 0.78806 0.65071 0.0
C2119 C 0.98134 0.79536 0.65237 0.0
C2120 C 0.99059 0.76721 0.65467 0.0
C2121 C 0.00517 0.75828 0.65258 0.0
C2122 C 0.01229 0.757 0.63775 0.0
C2123 C 0.02611 0.74866 0.63589 0.0
C2124 C 0.0328 0.74139 0.64875 0.0
C2125 C 0.02563 0.74239 0.66349 0.0
C2126 C 0.01182 0.75074 0.66542 0.0
C2127 C 0.89444 0.72589 0.65996 0.0
C2128 C 0.89207 0.71646 0.67425 0.0
C2129 C 0.91502 0.7406 0.65598 0.0
C2130 C 0.93366 0.74615 0.66616 0.0
C2131 C 0.93139 0.73675 0.68041 0.0
C2132 C 0.91077 0.72214 0.68448 0.0
C2133 C 0.95551 0.76139 0.6617 0.0
C2134 C 0.9704 0.7542 0.66021 0.0
C2135 C 0.96119 0.78238 0.65801 0.0
C2136 C 0.94679 0.79145 0.66055 0.0
C2137 C 0.93921 0.79158 0.67538 0.0
C2138 C 0.9257 0.80017 0.67777 0.0
C2139 C 0.91982 0.80887 0.66547 0.0
C2140 C 0.92741 0.80899 0.65074 0.0
C2141 C 0.94086 0.80034 0.64826 0.0
H2142 H 0.90946 0.81561 0.6674 0.0
H2143 H 0.0435 0.73493 0.64729 0.0
H2144 H 0.13666 0.17974 0.63629 0.0
H2145 H 0.16285 0.16769 0.64205 0.0
H2146 H 0.2133 0.2255 0.62562 0.0
H2147 H 0.18705 0.23728 0.61954 0.0
H2148 H 0.218 0.19156 0.61682 0.0
H2149 H 0.207 0.22216 0.66495 0.0
H2150 H 0.18524 0.22546 0.68515 0.0
H2151 H 0.16249 0.15997 0.69454 0.0
H2152 H 0.18392 0.1562 0.67425 0.0
H2153 H 0.29719 0.19355 0.68567 0.0
H2154 H 0.2693 0.20106 0.67518 0.0
H2155 H 0.24824 0.14959 0.63772 0.0
H2156 H 0.27682 0.14267 0.64778 0.0
H2157 H 0.2279 0.17889 0.67254 0.0
H2158 H 0.22455 0.15803 0.60615 0.0
H2159 H 0.24842 0.15687 0.58685 0.0
H2160 H 0.30415 0.20837 0.61506 0.0
H2161 H 0.28061 0.20975 0.63458 0.0
C2162 C 0.15328 0.18966 0.63372 0.0
C2163 C 0.15988 0.20945 0.62757 0.0
C2164 C 0.16824 0.18283 0.63704 0.0
C2165 C 0.19013 0.19582 0.63446 0.0
C2166 C 0.19652 0.21519 0.6277 0.0
C2167 C 0.18155 0.22196 0.62431 0.0
C2168 C 0.20669 0.19008 0.63982 0.0
C2169 C 0.22013 0.18871 0.62899 0.0
C2170 C 0.20967 0.18657 0.65573 0.0
C2171 C 0.19688 0.18884 0.66798 0.0
C2172 C 0.19724 0.20842 0.67125 0.0
C2173 C 0.18499 0.21038 0.68272 0.0
C2174 C 0.17244 0.19292 0.69109 0.0
C2175 C 0.17218 0.17347 0.68803 0.0
C2176 C 0.18439 0.17142 0.67656 0.0
C2177 C 0.28671 0.18391 0.67514 0.0
C2178 C 0.28927 0.16758 0.66752 0.0
C2179 C 0.27072 0.18819 0.66916 0.0
C2180 C 0.25673 0.17607 0.65554 0.0
C2181 C 0.25911 0.15954 0.64801 0.0
C2182 C 0.2754 0.15552 0.65382 0.0
C2183 C 0.23944 0.18055 0.6496 0.0
C2184 C 0.22576 0.1816 0.66033 0.0
C2185 C 0.23656 0.18416 0.63368 0.0
C2186 C 0.25082 0.18391 0.62184 0.0
C2187 C 0.24188 0.16919 0.60818 0.0
C2188 C 0.25536 0.16847 0.59722 0.0
C2189 C 0.27777 0.1826 0.59968 0.0
C2190 C 0.28678 0.19744 0.61316 0.0
C2191 C 0.27339 0.19815 0.6242 0.0
H2192 H 0.28816 0.18204 0.59116 0.0
H2193 H 0.16297 0.19446 0.69997 0.0
H2194 H 0.73515 0.92843 0.63781 0.0
H2195 H 0.74624 0.96679 0.64061 0.0
H2196 H 0.7903 0.9772 0.6816 0.0
H2197 H 0.77881 0.93876 0.679 0.0
H2198 H 0.77018 0.99982 0.68606 0.0
H2199 H 0.80791 0.98804 0.64518 0.0
H2200 H 0.81062 0.97078 0.62024 0.0
H2201 H 0.77325 0.99318 0.59457 0.0
H2202 H 0.77003 0.01031 0.61942 0.0
H2203 H 0.84521 0.1107 0.68943 0.0
H2204 H 0.82854 0.07159 0.68574 0.0
H2205 H 0.78409 0.06829 0.64753 0.0
H2206 H 0.80076 0.10759 0.65106 0.0
H2207 H 0.80149 0.04189 0.64094 0.0
H2208 H 0.76623 0.05596 0.68223 0.0
H2209 H 0.7648 0.07375 0.70737 0.0
H2210 H 0.79884 0.04747 0.7325 0.0
H2211 H 0.80078 0.02979 0.70745 0.0
C2212 C 0.74684 0.93889 0.6476 0.0
C2213 C 0.75588 0.93072 0.65838 0.0
C2214 C 0.7533 0.96077 0.64912 0.0
C2215 C 0.76925 0.97487 0.66122 0.0
C2216 C 0.7779 0.96659 0.67222 0.0
C2217 C 0.77135 0.9447 0.67075 0.0
C2218 C 0.77769 0.9984 0.66209 0.0
C2219 C 0.77717 0.00904 0.67624 0.0
C2220 C 0.78641 0.01034 0.64915 0.0
C2221 C 0.78852 1.00025 0.63418 0.0
C2222 C 0.80013 0.98915 0.63424 0.0
C2223 C 0.80178 0.97941 0.62011 0.0
C2224 C 0.79206 0.98083 0.60584 0.0
C2225 C 0.78074 0.99206 0.60565 0.0
C2226 C 0.779 0.0018 0.61974 0.0
C2227 C 0.83197 0.10173 0.68016 0.0
C2228 C 0.82423 0.11227 0.67059 0.0
C2229 C 0.82242 0.07936 0.67812 0.0
C2230 C 0.80491 0.06708 0.66651 0.0
C2231 C 0.79754 0.07753 0.6566 0.0
C2232 C 0.80705 0.09996 0.65867 0.0
C2233 C 0.79419 0.04329 0.66496 0.0
C2234 C 0.79429 0.03261 0.65069 0.0
C2235 C 0.7852 0.03133 0.67782 0.0
C2236 C 0.78379 0.04168 0.69294 0.0
C2237 C 0.77354 0.05409 0.6931 0.0
C2238 C 0.77262 0.06414 0.70734 0.0
C2239 C 0.78176 0.06177 0.72152 0.0
C2240 C 0.79178 0.0493 0.7215 0.0
C2241 C 0.79277 0.03924 0.70728 0.0
H2242 H 0.78105 0.06958 0.73253 0.0
H2243 H 0.79334 0.97327 0.59492 0.0
H2244 H 0.50203 0.39942 0.69334 0.0
H2245 H 0.4751 0.36095 0.68764 0.0
H2246 H 0.4848 0.35147 0.73632 0.0
H2247 H 0.51164 0.38997 0.74207 0.0
H2248 H 0.48506 0.32076 0.71528 0.0
H2249 H 0.4405 0.35245 0.72367 0.0
H2250 H 0.42706 0.37758 0.71927 0.0
H2251 H 0.40705 0.3516 0.67062 0.0
H2252 H 0.42066 0.3265 0.67467 0.0
H2253 H 0.39341 0.21729 0.71806 0.0
H2254 H 0.42094 0.25548 0.72224 0.0
H2255 H 0.40626 0.26295 0.67396 0.0
H2256 H 0.37851 0.2247 0.66968 0.0
H2257 H 0.40888 0.29479 0.69394 0.0
H2258 H 0.45407 0.26452 0.68455 0.0
H2259 H 0.46966 0.24091 0.68755 0.0
H2260 H 0.48898 0.26433 0.73671 0.0
H2261 H 0.47363 0.28824 0.73395 0.0
C2262 C 0.49847 0.38907 0.70278 0.0
C2263 C 0.50921 0.39752 0.71806 0.0
C2264 C 0.48303 0.36716 0.69954 0.0
C2265 C 0.47794 0.35337 0.71157 0.0
C2266 C 0.48858 0.36182 0.72686 0.0
C2267 C 0.5039 0.38374 0.73012 0.0
C2268 C 0.46168 0.33009 0.70818 0.0
C2269 C 0.46832 0.31506 0.71083 0.0
C2270 C 0.44003 0.32271 0.7019 0.0
C2271 C 0.43181 0.33776 0.69944 0.0
C2272 C 0.43341 0.35223 0.712 0.0
C2273 C 0.42572 0.36644 0.70957 0.0
C2274 C 0.41626 0.36623 0.69466 0.0
C2275 C 0.41442 0.35177 0.68215 0.0
C2276 C 0.4221 0.33753 0.68451 0.0
C2277 C 0.39603 0.227 0.7083 0.0
C2278 C 0.3837 0.21791 0.69353 0.0
C2279 C 0.4119 0.24883 0.71069 0.0
C2280 C 0.41582 0.26205 0.69838 0.0
C2281 C 0.40353 0.25305 0.68363 0.0
C2282 C 0.3877 0.23116 0.68119 0.0
C2283 C 0.43223 0.2854 0.70111 0.0
C2284 C 0.42562 0.30046 0.69837 0.0
C2285 C 0.45397 0.29285 0.7072 0.0
C2286 C 0.46251 0.27798 0.70908 0.0
C2287 C 0.46145 0.26447 0.69604 0.0
C2288 C 0.47033 0.25111 0.69768 0.0
C2289 C 0.48023 0.25105 0.71234 0.0
C2290 C 0.4813 0.26438 0.72537 0.0
C2291 C 0.47258 0.2779 0.72376 0.0
H2292 H 0.48713 0.24072 0.71359 0.0
H2293 H 0.41031 0.37724 0.69281 0.0
H2294 H 0.62275 0.1438 0.7197 0.0
H2295 H 0.65943 0.15619 0.71211 0.0
H2296 H 0.66851 0.11789 0.74564 0.0
H2297 H 0.63196 0.10581 0.7534 0.0
H2298 H 0.70511 0.1562 0.74571 0.0
H2299 H 0.65429 0.09961 0.70644 0.0
H2300 H 0.62244 0.08134 0.68645 0.0
H2301 H 0.65103 0.13533 0.65908 0.0
H2302 H 0.68293 0.15405 0.67904 0.0
H2303 H 0.79052 0.14783 0.71411 0.0
H2304 H 0.75625 0.14089 0.72348 0.0
H2305 H 0.74913 0.17856 0.68849 0.0
H2306 H 0.78326 0.18524 0.67878 0.0
H2307 H 0.71202 0.14222 0.68928 0.0
H2308 H 0.76414 0.198 0.72814 0.0
H2309 H 0.79614 0.21553 0.74802 0.0
H2310 H 0.76553 0.16266 0.77616 0.0
H2311 H 0.73342 0.14464 0.75633 0.0
C2312 C 0.63268 0.13817 0.72548 0.0
C2313 C 0.62445 0.12352 0.73686 0.0
C2314 C 0.65358 0.14518 0.72113 0.0
C2315 C 0.66659 0.13763 0.72808 0.0
C2316 C 0.65874 0.12382 0.74003 0.0
C2317 C 0.63786 0.11686 0.74441 0.0
C2318 C 0.68797 0.1434 0.72245 0.0
C2319 C 0.70661 0.15297 0.7334 0.0
C2320 C 0.69003 0.13957 0.70634 0.0
C2321 C 0.67088 0.12832 0.69431 0.0
C2322 C 0.6537 0.10765 0.69622 0.0
C2323 C 0.63566 0.0972 0.68489 0.0
C2324 C 0.63468 0.10719 0.67153 0.0
C2325 C 0.65179 0.12763 0.66945 0.0
C2326 C 0.66986 0.13816 0.68077 0.0
C2327 C 0.78173 0.15471 0.70839 0.0
C2328 C 0.7897 0.16711 0.69566 0.0
C2329 C 0.76216 0.15082 0.71385 0.0
C2330 C 0.75022 0.15946 0.70685 0.0
C2331 C 0.75807 0.17177 0.69411 0.0
C2332 C 0.77762 0.17559 0.68857 0.0
C2333 C 0.72923 0.15506 0.71252 0.0
C2334 C 0.71061 0.14565 0.70158 0.0
C2335 C 0.72723 0.159 0.72864 0.0
C2336 C 0.74643 0.16989 0.74067 0.0
C2337 C 0.76428 0.19003 0.73851 0.0
C2338 C 0.78243 0.20007 0.74978 0.0
C2339 C 0.78287 0.1902 0.76333 0.0
C2340 C 0.76515 0.17028 0.76565 0.0
C2341 C 0.74696 0.16016 0.75441 0.0
H2342 H 0.79691 0.19801 0.77204 0.0
H2343 H 0.6207 0.09907 0.66276 0.0
H2344 H 0.93725 0.53374 0.71909 0.0
H2345 H 0.92418 0.55854 0.71316 0.0
H2346 H 0.85795 0.50617 0.71063 0.0
H2347 H 0.871 0.48124 0.71585 0.0
H2348 H 0.86093 0.52999 0.68845 0.0
H2349 H 0.88349 0.54382 0.74405 0.0
H2350 H 0.90868 0.55261 0.76806 0.0
H2351 H 0.95295 0.61355 0.75226 0.0
H2352 H 0.92814 0.605 0.72804 0.0
H2353 H 0.83758 0.62075 0.71787 0.0
H2354 H 0.84857 0.59426 0.72294 0.0
H2355 H 0.86921 0.59736 0.67619 0.0
H2356 H 0.85796 0.62359 0.6709 0.0
H2357 H 0.88723 0.59722 0.72401 0.0
H2358 H 0.86027 0.54814 0.66218 0.0
H2359 H 0.83173 0.53735 0.64004 0.0
H2360 H 0.79009 0.54316 0.67179 0.0
H2361 H 0.81824 0.55368 0.69414 0.0
C2362 C 0.91992 0.5276 0.71728 0.0
C2363 C 0.90512 0.50575 0.71843 0.0
C2364 C 0.91246 0.54175 0.71395 0.0
C2365 C 0.89007 0.53432 0.71184 0.0
C2366 C 0.87529 0.51232 0.71236 0.0
C2367 C 0.88275 0.49813 0.71547 0.0
C2368 C 0.88198 0.54947 0.70926 0.0
C2369 C 0.86672 0.5447 0.69622 0.0
C2370 C 0.88914 0.56844 0.71958 0.0
C2371 C 0.90404 0.57368 0.73417 0.0
C2372 C 0.89866 0.55903 0.74564 0.0
C2373 C 0.91287 0.56398 0.7593 0.0
C2374 C 0.93243 0.58361 0.76166 0.0
C2375 C 0.9378 0.59835 0.7504 0.0
C2376 C 0.92367 0.59347 0.73671 0.0
C2377 C 0.84438 0.61576 0.70863 0.0
C2378 C 0.84686 0.62427 0.69396 0.0
C2379 C 0.85071 0.60066 0.71158 0.0
C2380 C 0.85956 0.59374 0.69991 0.0
C2381 C 0.86212 0.60225 0.68528 0.0
C2382 C 0.85575 0.61731 0.6823 0.0
C2383 C 0.86642 0.57785 0.70312 0.0
C2384 C 0.88148 0.58251 0.71624 0.0
C2385 C 0.8586 0.55848 0.69315 0.0
C2386 C 0.84147 0.55192 0.6798 0.0
C2387 C 0.84499 0.54704 0.66444 0.0
C2388 C 0.82889 0.54098 0.65186 0.0
C2389 C 0.80914 0.53964 0.6545 0.0
C2390 C 0.80542 0.54428 0.66975 0.0
C2391 C 0.82146 0.55033 0.68237 0.0
H2392 H 0.79671 0.53496 0.64474 0.0
H2393 H 0.9434 0.58741 0.77224 0.0
H2394 H 0.41539 0.89293 0.22968 0.0
H2395 H 0.4242 0.90984 0.20513 0.0
H2396 H 0.49239 0.94268 0.22191 0.0
H2397 H 0.48365 0.92676 0.24685 0.0
H2398 H 0.48309 0.96932 0.20837 0.0
H2399 H 0.46813 0.89722 0.19419 0.0
H2400 H 0.44656 0.85751 0.19186 0.0
H2401 H 0.39572 0.85868 0.163 0.0
H2402 H 0.41687 0.89843 0.16532 0.0
H2403 H 0.52555 1.00007 0.13534 0.0
H2404 H 0.51554 0.98282 0.15972 0.0
H2405 H 0.4477 0.95435 0.14295 0.0
H2406 H 0.45762 0.97109 0.1183 0.0
H2407 H 0.45614 0.92552 0.15628 0.0
H2408 H 0.47184 0.9979 0.17024 0.0
H2409 H 0.49391 0.03757 0.17246 0.0
H2410 H 0.54406 0.03571 0.20169 0.0
H2411 H 0.52241 0.99599 0.19947 0.0
C2412 C 0.43226 0.90394 0.22825 0.0
C2413 C 0.44881 0.90842 0.24028 0.0
C2414 C 0.43729 0.9134 0.21409 0.0
C2415 C 0.459 0.92729 0.21154 0.0
C2416 C 0.47553 0.93193 0.22356 0.0
C2417 C 0.47051 0.92262 0.23777 0.0
C2418 C 0.46449 0.93718 0.19642 0.0
C2419 C 0.47743 0.95969 0.197 0.0
C2420 C 0.45669 0.92471 0.18153 0.0
C2421 C 0.44399 0.90081 0.18006 0.0
C2422 C 0.45228 0.88901 0.18744 0.0
C2423 C 0.44014 0.8665 0.18611 0.0
C2424 C 0.41976 0.85558 0.17732 0.0
C2425 C 0.4115 0.86716 0.16982 0.0
C2426 C 0.42356 0.88968 0.17112 0.0
C2427 C 0.5085 0.98998 0.13677 0.0
C2428 C 0.49238 0.98701 0.12489 0.0
C2429 C 0.5028 0.98029 0.15077 0.0
C2430 C 0.48087 0.96752 0.15324 0.0
C2431 C 0.46472 0.96423 0.14132 0.0
C2432 C 0.47042 0.97395 0.1273 0.0
C2433 C 0.47482 0.95759 0.16827 0.0
C2434 C 0.46177 0.93511 0.16767 0.0
C2435 C 0.48258 0.97006 0.18314 0.0
C2436 C 0.49558 0.99396 0.18457 0.0
C2437 C 0.48764 0.00594 0.17705 0.0
C2438 C 0.50006 0.02844 0.17832 0.0
C2439 C 0.52039 0.03915 0.18718 0.0
C2440 C 0.52832 0.02739 0.19482 0.0
C2441 C 0.51597 0.00488 0.19357 0.0
H2442 H 0.52999 0.05657 0.18815 0.0
H2443 H 0.41039 0.83815 0.17631 0.0
H2444 H 0.10605 0.57403 0.25911 0.0
H2445 H 0.09439 0.56834 0.23076 0.0
H2446 H 0.04864 0.50151 0.23503 0.0
H2447 H 0.0602 0.50709 0.26331 0.0
H2448 H 0.07146 0.50542 0.21047 0.0
H2449 H 0.03201 0.53823 0.23067 0.0
H2450 H 0.02792 0.56633 0.24542 0.0
H2451 H 0.06906 0.61307 0.2157 0.0
H2452 H 0.07364 0.58529 0.2009 0.0
H2453 H 0.00392 0.47485 0.13856 0.0
H2454 H 0.0187 0.48373 0.16633 0.0
H2455 H 0.06353 0.54894 0.15729 0.0
H2456 H 0.04841 0.54029 0.12951 0.0
H2457 H 0.0437 0.54777 0.18376 0.0
H2458 H 0.08157 0.51437 0.16267 0.0
H2459 H 0.08534 0.48611 0.14785 0.0
H2460 H 0.04706 0.44038 0.17924 0.0
H2461 H 0.04279 0.46829 0.19412 0.0
C2462 C 0.09332 0.5582 0.25403 0.0
C2463 C 0.08407 0.54099 0.26343 0.0
C2464 C 0.0867 0.55496 0.23783 0.0
C2465 C 0.07058 0.53451 0.2308 0.0
C2466 C 0.06119 0.51739 0.2402 0.0
C2467 C 0.06783 0.5206 0.25635 0.0
C2468 C 0.06374 0.53073 0.21358 0.0
C2469 C 0.06516 0.51452 0.20466 0.0
C2470 C 0.05614 0.54304 0.20593 0.0
C2471 C 0.05335 0.55974 0.21479 0.0
C2472 C 0.04033 0.55454 0.22736 0.0
C2473 C 0.0379 0.5704 0.23572 0.0
C2474 C 0.04828 0.59148 0.23153 0.0
C2475 C 0.06106 0.59674 0.21895 0.0
C2476 C 0.06357 0.58094 0.21056 0.0
C2477 C 0.01687 0.4911 0.14249 0.0
C2478 C 0.025 0.50688 0.13185 0.0
C2479 C 0.02543 0.49611 0.15833 0.0
C2480 C 0.04235 0.51694 0.16383 0.0
C2481 C 0.05052 0.53274 0.15326 0.0
C2482 C 0.04199 0.52773 0.13738 0.0
C2483 C 0.05113 0.52225 0.18072 0.0
C2484 C 0.05012 0.53876 0.18956 0.0
C2485 C 0.0591 0.51021 0.18831 0.0
C2486 C 0.06171 0.49339 0.17943 0.0
C2487 C 0.07381 0.49824 0.16634 0.0
C2488 C 0.07606 0.4823 0.15794 0.0
C2489 C 0.06641 0.46145 0.16258 0.0
C2490 C 0.05452 0.45653 0.17565 0.0
C2491 C 0.05219 0.47241 0.18408 0.0
H2492 H 0.06817 0.44913 0.15606 0.0
H2493 H 0.04637 0.60374 0.23801 0.0
H2494 H 0.4574 0.57051 0.22904 0.0
H2495 H 0.46173 0.55993 0.20231 0.0
H2496 H 0.44981 0.49863 0.21643 0.0
H2497 H 0.44546 0.50917 0.24328 0.0
H2498 H 0.48709 0.51991 0.20086 0.0
H2499 H 0.41214 0.49923 0.19277 0.0
H2500 H 0.38028 0.50391 0.19394 0.0
H2501 H 0.40809 0.55596 0.16478 0.0
H2502 H 0.44029 0.55182 0.16362 0.0
H2503 H 0.49385 0.48565 0.12266 0.0
H2504 H 0.47978 0.4863 0.14804 0.0
H2505 H 0.48044 0.54507 0.13898 0.0
H2506 H 0.49415 0.54429 0.11357 0.0
H2507 H 0.44538 0.52011 0.15213 0.0
H2508 H 0.52171 0.54453 0.16295 0.0
H2509 H 0.55478 0.54182 0.16222 0.0
H2510 H 0.52571 0.48499 0.18667 0.0
H2511 H 0.49234 0.48722 0.18737 0.0
C2512 C 0.45558 0.55473 0.22641 0.0
C2513 C 0.45114 0.54067 0.23822 0.0
C2514 C 0.45791 0.54865 0.21113 0.0
C2515 C 0.45595 0.52844 0.20738 0.0
C2516 C 0.45129 0.51425 0.21909 0.0
C2517 C 0.4487 0.52024 0.23437 0.0
C2518 C 0.46004 0.52279 0.19146 0.0
C2519 C 0.4777 0.51949 0.19019 0.0
C2520 C 0.44809 0.52279 0.17758 0.0
C2521 C 0.42872 0.52532 0.17821 0.0
C2522 C 0.41156 0.5118 0.18671 0.0
C2523 C 0.39341 0.51433 0.18735 0.0
C2524 C 0.39218 0.53025 0.17946 0.0
C2525 C 0.40907 0.54365 0.17089 0.0
C2526 C 0.42726 0.54119 0.17022 0.0
C2527 C 0.49094 0.49866 0.12609 0.0
C2528 C 0.4952 0.51498 0.11617 0.0
C2529 C 0.48291 0.49903 0.14059 0.0
C2530 C 0.47937 0.51593 0.14555 0.0
C2531 C 0.48301 0.53186 0.13542 0.0
C2532 C 0.49083 0.53138 0.12089 0.0
C2533 C 0.4727 0.5176 0.1615 0.0
C2534 C 0.45459 0.52021 0.16278 0.0
C2535 C 0.4844 0.51722 0.17543 0.0
C2536 C 0.50445 0.51589 0.17504 0.0
C2537 C 0.52231 0.53137 0.16806 0.0
C2538 C 0.54112 0.52993 0.16767 0.0
C2539 C 0.54232 0.51321 0.17435 0.0
C2540 C 0.52474 0.49791 0.18147 0.0
C2541 C 0.50588 0.49925 0.18188 0.0
H2542 H 0.55689 0.51213 0.17404 0.0
H2543 H 0.37812 0.53218 0.17997 0.0
H2544 H 0.90475 0.43469 0.79062 0.0
H2545 H 0.91845 0.44518 0.81854 0.0
H2546 H 0.96356 0.5096 0.80808 0.0
H2547 H 0.95011 0.49904 0.77993 0.0
H2548 H 0.98302 0.49307 0.82673 0.0
H2549 H 0.92075 0.50113 0.827 0.0
H2550 H 0.88229 0.49069 0.82124 0.0
H2551 H 0.86325 0.4371 0.84876 0.0
H2552 H 0.90158 0.44702 0.8545 0.0
H2553 H 0.01609 0.52819 0.90849 0.0
H2554 H 1.00143 0.52523 0.88118 0.0
H2555 H 0.95199 0.45945 0.8848 0.0
H2556 H 0.96657 0.46229 0.91214 0.0
H2557 H 0.93548 0.48106 0.86962 0.0
H2558 H 0.99721 0.47085 0.86684 0.0
H2559 H 0.03559 0.48085 0.87237 0.0
H2560 H 0.05545 0.53838 0.8493 0.0
H2561 H 0.01717 0.52886 0.84383 0.0
C2562 C 0.9176 0.4511 0.79426 0.0
C2563 C 0.92647 0.46603 0.7831 0.0
C2564 C 0.92525 0.45712 0.81023 0.0
C2565 C 0.94187 0.47822 0.81539 0.0
C2566 C 0.95065 0.49326 0.80432 0.0
C2567 C 0.9429 0.48726 0.7883 0.0
C2568 C 0.95071 0.48404 0.83225 0.0
C2569 C 0.97273 0.4909 0.83612 0.0
C2570 C 0.93716 0.48075 0.84446 0.0
C2571 C 0.91406 0.47474 0.84108 0.0
C2572 C 0.90836 0.48701 0.83172 0.0
C2573 C 0.88657 0.48121 0.82848 0.0
C2574 C 0.87033 0.46322 0.83461 0.0
C2575 C 0.87585 0.45102 0.84402 0.0
C2576 C 0.89761 0.45675 0.84729 0.0
C2577 C 1.00215 0.51306 0.90344 0.0
C2578 C 0.9926 0.49539 0.91241 0.0
C2579 C 0.99376 0.51142 0.88786 0.0
C2580 C 0.97579 0.49204 0.88091 0.0
C2581 C 0.96586 0.47457 0.88995 0.0
C2582 C 0.9742 0.47621 0.90557 0.0
C2583 C 0.96768 0.48973 0.86407 0.0
C2584 C 0.9458 0.48351 0.86022 0.0
C2585 C 0.98135 0.49358 0.85186 0.0
C2586 C 0.00436 0.49927 0.85509 0.0
C2587 C 0.00977 0.48572 0.86306 0.0
C2588 C 0.03151 0.49129 0.86616 0.0
C2589 C 0.04796 0.51028 0.86123 0.0
C2590 C 0.0427 0.5237 0.85314 0.0
C2591 C 0.02099 0.51822 0.85003 0.0
H2592 H 0.06477 0.51456 0.86364 0.0
H2593 H 0.85348 0.45875 0.83208 0.0
H2594 H 0.52801 0.45695 0.77367 0.0
H2595 H 0.51987 0.46394 0.79999 0.0
H2596 H 0.58773 0.49401 0.81721 0.0
H2597 H 0.5959 0.48616 0.79102 0.0
H2598 H 0.56323 0.46856 0.83782 0.0
H2599 H 0.56356 0.52419 0.80935 0.0
H2600 H 0.55328 0.53928 0.78737 0.0
H2601 H 0.48653 0.504 0.79665 0.0
H2602 H 0.49636 0.48846 0.81856 0.0
H2603 H 0.55392 0.51677 0.91002 0.0
H2604 H 0.56396 0.51087 0.8841 0.0
H2605 H 0.49679 0.47977 0.8648 0.0
H2606 H 0.48673 0.48646 0.89051 0.0
H2607 H 0.52229 0.50695 0.84544 0.0
H2608 H 0.52219 0.45072 0.87364 0.0
H2609 H 0.53282 0.43607 0.89574 0.0
H2610 H 0.5997 0.47315 0.88711 0.0
H2611 H 0.58949 0.48824 0.86507 0.0
C2612 C 0.5412 0.46483 0.78308 0.0
C2613 C 0.56263 0.47101 0.78019 0.0
C2614 C 0.53655 0.46905 0.7981 0.0
C2615 C 0.55323 0.47981 0.81054 0.0
C2616 C 0.57461 0.48579 0.80777 0.0
C2617 C 0.57928 0.48147 0.79275 0.0
C2618 C 0.5483 0.48465 0.82644 0.0
C2619 C 0.55456 0.47723 0.83952 0.0
C2620 C 0.53663 0.49562 0.82864 0.0
C2621 C 0.53068 0.50502 0.81551 0.0
C2622 C 0.54666 0.51953 0.80663 0.0
C2623 C 0.54092 0.52818 0.7942 0.0
C2624 C 0.51926 0.52257 0.79059 0.0
C2625 C 0.5033 0.50832 0.79944 0.0
C2626 C 0.50895 0.4996 0.81188 0.0
C2627 C 0.54129 0.50885 0.90024 0.0
C2628 C 0.51949 0.50206 0.90238 0.0
C2629 C 0.54703 0.50527 0.88545 0.0
C2630 C 0.53109 0.49463 0.87253 0.0
C2631 C 0.50936 0.48794 0.87461 0.0
C2632 C 0.50361 0.49159 0.88936 0.0
C2633 C 0.53704 0.49068 0.85679 0.0
C2634 C 0.531 0.49831 0.84374 0.0
C2635 C 0.54896 0.47997 0.85464 0.0
C2636 C 0.5551 0.47076 0.8678 0.0
C2637 C 0.53918 0.45586 0.87652 0.0
C2638 C 0.54513 0.44746 0.88903 0.0
C2639 C 0.56693 0.45372 0.89285 0.0
C2640 C 0.58282 0.46834 0.88415 0.0
C2641 C 0.57696 0.4768 0.87164 0.0
H2642 H 0.5715 0.4472 0.90254 0.0
H2643 H 0.51485 0.52928 0.78096 0.0
H2644 H 0.52293 0.06971 0.78473 0.0
H2645 H 0.514 0.05349 0.80959 0.0
H2646 H 0.57598 0.10366 0.83253 0.0
H2647 H 0.58522 0.11958 0.80746 0.0
H2648 H 0.56611 0.06635 0.8432 0.0
H2649 H 0.52872 0.1056 0.83555 0.0
H2650 H 0.50504 0.11577 0.8206 0.0
H2651 H 0.45153 0.05105 0.81892 0.0
H2652 H 0.47498 0.0404 0.83367 0.0
H2653 H 0.5369 0.05394 0.92188 0.0
H2654 H 0.54712 0.06877 0.89669 0.0
H2655 H 0.48926 0.01421 0.87246 0.0
H2656 H 0.47922 0.99882 0.8975 0.0
H2657 H 0.49713 0.054 0.86273 0.0
H2658 H 0.53523 0.01521 0.87061 0.0
H2659 H 0.55947 0.00555 0.88536 0.0
H2660 H 0.61221 0.07068 0.88695 0.0
H2661 H 0.58818 0.08081 0.87241 0.0
C2662 C 0.53471 0.07715 0.79506 0.0
C2663 C 0.55467 0.09599 0.79425 0.0
C2664 C 0.52957 0.06793 0.80927 0.0
C2665 C 0.54409 0.07766 0.82304 0.0
C2666 C 0.56447 0.09595 0.82209 0.0
C2667 C 0.56975 0.10501 0.80778 0.0
C2668 C 0.53766 0.06916 0.8385 0.0
C2669 C 0.55118 0.06394 0.84756 0.0
C2670 C 0.51798 0.06568 0.84411 0.0
C2671 C 0.50366 0.07217 0.83561 0.0
C2672 C 0.51193 0.09351 0.83194 0.0
C2673 C 0.49855 0.09936 0.82349 0.0
C2674 C 0.47681 0.08405 0.81878 0.0
C2675 C 0.46838 0.06288 0.82257 0.0
C2676 C 0.4817 0.05694 0.83099 0.0
C2677 C 0.52641 0.04494 0.9112 0.0
C2678 C 0.50727 0.02506 0.91177 0.0
C2679 C 0.53224 0.05352 0.89682 0.0
C2680 C 0.51902 0.0425 0.88271 0.0
C2681 C 0.49966 0.02299 0.88323 0.0
C2682 C 0.4939 0.01428 0.89759 0.0
C2683 C 0.52558 0.05119 0.86736 0.0
C2684 C 0.51208 0.05647 0.85836 0.0
C2685 C 0.54535 0.05489 0.86187 0.0
C2686 C 0.55985 0.04882 0.87057 0.0
C2687 C 0.55195 0.02752 0.87423 0.0
C2688 C 0.56566 0.02195 0.88253 0.0
C2689 C 0.58735 0.0375 0.88713 0.0
C2690 C 0.5954 0.05865 0.8834 0.0
C2691 C 0.58174 0.06432 0.87512 0.0
H2692 H 0.59794 0.03316 0.89355 0.0
H2693 H 0.46648 0.0886 0.81222 0.0
H2694 H 0.11859 0.2132 0.56001 0.0
H2695 H 0.1277 0.23017 0.53543 0.0
H2696 H 0.11152 0.27751 0.55267 0.0
H2697 H 0.10242 0.26066 0.57729 0.0
H2698 H 0.09509 0.26285 0.52247 0.0
H2699 H 0.16428 0.28999 0.55259 0.0
H2700 H 0.19307 0.28741 0.56814 0.0
H2701 H 0.19869 0.25151 0.52847 0.0
H2702 H 0.1697 0.25362 0.51274 0.0
H2703 H 0.14627 0.33995 0.46812 0.0
H2704 H 0.13609 0.32155 0.49205 0.0
H2705 H 0.15056 0.27368 0.4731 0.0
H2706 H 0.16122 0.29227 0.44927 0.0
H2707 H 0.16757 0.28798 0.50381 0.0
H2708 H 0.09872 0.26161 0.47354 0.0
H2709 H 0.07009 0.26456 0.45809 0.0
H2710 H 0.06407 0.29951 0.49818 0.0
H2711 H 0.0929 0.29704 0.51382 0.0
C2712 C 0.11712 0.22732 0.55861 0.0
C2713 C 0.10984 0.23561 0.57063 0.0
C2714 C 0.1223 0.23698 0.54455 0.0
C2715 C 0.12051 0.25526 0.54227 0.0
C2716 C 0.11298 0.26341 0.55415 0.0
C2717 C 0.10774 0.25372 0.5682 0.0
C2718 C 0.12652 0.26592 0.52751 0.0
C2719 C 0.11103 0.26859 0.51849 0.0
C2720 C 0.14716 0.27298 0.52213 0.0
C2721 C 0.16466 0.27177 0.53154 0.0
C2722 C 0.17154 0.2814 0.54722 0.0
C2723 C 0.18791 0.28005 0.55606 0.0
C2724 C 0.19767 0.26926 0.54931 0.0
C2725 C 0.1911 0.25984 0.53369 0.0
C2726 C 0.17471 0.26112 0.52481 0.0
C2727 C 0.1474 0.32557 0.46908 0.0
C2728 C 0.15454 0.31756 0.45678 0.0
C2729 C 0.14141 0.31498 0.48271 0.0
C2730 C 0.14239 0.29613 0.4843 0.0
C2731 C 0.14962 0.28816 0.4721 0.0
C2732 C 0.15554 0.2987 0.45844 0.0
C2733 C 0.13616 0.28494 0.4988 0.0
C2734 C 0.15162 0.28219 0.50778 0.0
C2735 C 0.11551 0.27786 0.50416 0.0
C2736 C 0.09812 0.27931 0.4948 0.0
C2737 C 0.09142 0.27008 0.47902 0.0
C2738 C 0.07513 0.27163 0.47024 0.0
C2739 C 0.06531 0.28226 0.47714 0.0
C2740 C 0.07172 0.29131 0.49285 0.0
C2741 C 0.08802 0.28981 0.50168 0.0
H2742 H 0.0527 0.28344 0.47032 0.0
H2743 H 0.21034 0.26823 0.55618 0.0
H2744 H 0.76928 0.8629 0.58506 0.0
H2745 H 0.75659 0.8596 0.55719 0.0
H2746 H 0.70839 0.87548 0.57029 0.0
H2747 H 0.72073 0.87835 0.59827 0.0
H2748 H 0.69147 0.84064 0.54824 0.0
H2749 H 0.75252 0.91218 0.55514 0.0
H2750 H 0.79049 0.94042 0.56331 0.0
H2751 H 0.81263 0.90928 0.53099 0.0
H2752 H 0.77478 0.88066 0.52279 0.0
H2753 H 0.6614 0.85084 0.46974 0.0
H2754 H 0.67505 0.85971 0.49778 0.0
H2755 H 0.7256 0.84545 0.48858 0.0
H2756 H 0.71201 0.83649 0.46054 0.0
H2757 H 0.74093 0.88155 0.50895 0.0
H2758 H 0.68024 0.80891 0.50343 0.0
H2759 H 0.64234 0.78032 0.49544 0.0
H2760 H 0.61967 0.81345 0.52538 0.0
H2761 H 0.65745 0.84241 0.53338 0.0
C2762 C 0.75591 0.86558 0.58201 0.0
C2763 C 0.74595 0.87083 0.59384 0.0
C2764 C 0.74882 0.86389 0.56609 0.0
C2765 C 0.7317 0.86751 0.56169 0.0
C2766 C 0.72169 0.87272 0.57346 0.0
C2767 C 0.72883 0.87448 0.5894 0.0
C2768 C 0.72388 0.8652 0.54479 0.0
C2769 C 0.70217 0.84986 0.53968 0.0
C2770 C 0.73801 0.87692 0.53362 0.0
C2771 C 0.7608 0.89417 0.53845 0.0
C2772 C 0.76548 0.91126 0.54986 0.0
C2773 C 0.78699 0.92735 0.55448 0.0
C2774 C 0.80396 0.92662 0.5477 0.0
C2775 C 0.79946 0.90982 0.53625 0.0
C2776 C 0.77798 0.89367 0.5316 0.0
C2777 C 0.6754 0.84955 0.4737 0.0
C2778 C 0.68554 0.84281 0.46295 0.0
C2779 C 0.6832 0.85468 0.4897 0.0
C2780 C 0.70116 0.85298 0.49528 0.0
C2781 C 0.71172 0.84689 0.48451 0.0
C2782 C 0.70396 0.84182 0.46849 0.0
C2783 C 0.70856 0.85687 0.51239 0.0
C2784 C 0.73019 0.87248 0.51753 0.0
C2785 C 0.69437 0.84538 0.52361 0.0
C2786 C 0.67166 0.82794 0.51887 0.0
C2787 C 0.66717 0.81019 0.50821 0.0
C2788 C 0.64571 0.7939 0.5037 0.0
C2789 C 0.62861 0.7951 0.50986 0.0
C2790 C 0.63293 0.81256 0.52059 0.0
C2791 C 0.65436 0.82891 0.52513 0.0
H2792 H 0.612 0.78247 0.50635 0.0
H2793 H 0.8206 0.9391 0.55129 0.0
H2794 H 0.10703 0.8396 0.57569 0.0
H2795 H 0.112 0.82973 0.54892 0.0
H2796 H 0.13265 0.89427 0.53725 0.0
H2797 H 0.12727 0.90411 0.56385 0.0
H2798 H 0.10634 0.86363 0.51275 0.0
H2799 H 0.16956 0.88053 0.54851 0.0
H2800 H 0.18844 0.87626 0.57205 0.0
H2801 H 0.16429 0.81001 0.55521 0.0
H2802 H 0.145 0.81382 0.53166 0.0
H2803 H 0.17835 0.88503 0.45447 0.0
H2804 H 0.16098 0.88377 0.47853 0.0
H2805 H 0.14179 0.81671 0.47948 0.0
H2806 H 0.15912 0.81787 0.45523 0.0
H2807 H 0.16216 0.84211 0.50849 0.0
H2808 H 0.10465 0.82759 0.47004 0.0
H2809 H 0.08735 0.8328 0.4461 0.0
H2810 H 0.1002 0.89409 0.46751 0.0
H2811 H 0.11841 0.88971 0.49138 0.0
C2812 C 0.11225 0.85157 0.56733 0.0
C2813 C 0.11695 0.8727 0.57192 0.0
C2814 C 0.1152 0.84594 0.55207 0.0
C2815 C 0.12291 0.86133 0.54115 0.0
C2816 C 0.12671 0.88215 0.54549 0.0
C2817 C 0.12384 0.88781 0.56074 0.0
C2818 C 0.12845 0.85632 0.52557 0.0
C2819 C 0.11859 0.859 0.51178 0.0
C2820 C 0.14398 0.84966 0.52432 0.0
C2821 C 0.15563 0.84738 0.53844 0.0
C2822 C 0.16813 0.86501 0.5499 0.0
C2823 C 0.17893 0.86268 0.56323 0.0
C2824 C 0.17751 0.84286 0.56515 0.0
C2825 C 0.16533 0.82534 0.55372 0.0
C2826 C 0.15447 0.82757 0.54038 0.0
C2827 C 0.1704 0.87001 0.4598 0.0
C2828 C 0.17014 0.85156 0.45307 0.0
C2829 C 0.16036 0.86927 0.47346 0.0
C2830 C 0.14999 0.85011 0.48071 0.0
C2831 C 0.14965 0.83162 0.47401 0.0
C2832 C 0.15946 0.83227 0.46018 0.0
C2833 C 0.14044 0.84992 0.49567 0.0
C2834 C 0.14959 0.84631 0.50937 0.0
C2835 C 0.12427 0.85573 0.4968 0.0
C2836 C 0.11311 0.85839 0.4825 0.0
C2837 C 0.10402 0.84231 0.46961 0.0
C2838 C 0.09403 0.8451 0.45604 0.0
C2839 C 0.09262 0.86372 0.4553 0.0
C2840 C 0.10129 0.87965 0.46811 0.0
C2841 C 0.11151 0.87705 0.48166 0.0
H2842 H 0.08479 0.8658 0.4448 0.0
H2843 H 0.18589 0.84109 0.57548 0.0
H2844 H 0.6298 0.79531 0.11236 0.0
H2845 H 0.63865 0.79991 0.14097 0.0
H2846 H 0.59266 0.82142 0.14718 0.0
H2847 H 0.58358 0.81671 0.11848 0.0
H2848 H 0.63079 0.84581 0.16672 0.0
H2849 H 0.5785 0.77123 0.15352 0.0
H2850 H 0.56269 0.73537 0.1386 0.0
H2851 H 0.61896 0.7316 0.15426 0.0
H2852 H 0.63528 0.7676 0.16908 0.0
H2853 H 0.63806 0.8364 0.24976 0.0
H2854 H 0.62296 0.8317 0.22225 0.0
H2855 H 0.66318 0.80605 0.20767 0.0
H2856 H 0.6776 0.80985 0.23509 0.0
H2857 H 0.62323 0.78289 0.19293 0.0
H2858 H 0.67691 0.85878 0.20378 0.0
H2859 H 0.69327 0.89497 0.2183 0.0
H2860 H 0.63445 0.89623 0.20699 0.0
H2861 H 0.61765 0.85991 0.19257 0.0
C2862 C 0.62152 0.80097 0.11981 0.0
C2863 C 0.60583 0.80543 0.11318 0.0
C2864 C 0.62662 0.80362 0.13614 0.0
C2865 C 0.61604 0.81066 0.14619 0.0
C2866 C 0.60095 0.8159 0.13962 0.0
C2867 C 0.59584 0.81327 0.12323 0.0
C2868 C 0.6205 0.81201 0.16355 0.0
C2869 C 0.62879 0.83198 0.17253 0.0
C2870 C 0.61807 0.794 0.17105 0.0
C2871 C 0.60818 0.77219 0.16233 0.0
C2872 C 0.58757 0.76281 0.1537 0.0
C2873 C 0.57851 0.74246 0.14527 0.0
C2874 C 0.58983 0.73123 0.14546 0.0
C2875 C 0.61022 0.74032 0.15412 0.0
C2876 C 0.61937 0.76069 0.16255 0.0
C2877 C 0.64345 0.8295 0.2407 0.0
C2878 C 0.65914 0.82363 0.24459 0.0
C2879 C 0.63497 0.82702 0.22498 0.0
C2880 C 0.64215 0.81878 0.21289 0.0
C2881 C 0.65746 0.81251 0.2168 0.0
C2882 C 0.66585 0.8149 0.23247 0.0
C2883 C 0.63408 0.81683 0.19607 0.0
C2884 C 0.62502 0.79668 0.18718 0.0
C2885 C 0.63582 0.83469 0.18868 0.0
C2886 C 0.64595 0.85655 0.19726 0.0
C2887 C 0.66742 0.86672 0.2045 0.0
C2888 C 0.67678 0.88726 0.21269 0.0
C2889 C 0.66488 0.89786 0.21361 0.0
C2890 C 0.64363 0.88798 0.20629 0.0
C2891 C 0.63418 0.86743 0.1981 0.0
H2892 H 0.67216 0.91376 0.21996 0.0
H2893 H 0.58279 0.71548 0.13892 0.0
H2894 H 0.27019 0.82818 0.13099 0.0
H2895 H 0.26096 0.83521 0.157 0.0
H2896 H 0.19322 0.803 0.13899 0.0
H2897 H 0.20239 0.79661 0.11285 0.0
H2898 H 0.20439 0.83928 0.1572 0.0
H2899 H 0.21375 0.77783 0.16121 0.0
H2900 H 0.23333 0.75769 0.15944 0.0
H2901 H 0.28417 0.80469 0.19369 0.0
H2902 H 0.26502 0.82528 0.19551 0.0
H2903 H 0.15589 0.81967 0.22886 0.0
H2904 H 0.16748 0.81547 0.20317 0.0
H2905 H 0.23429 0.8492 0.22355 0.0
H2906 H 0.22284 0.85361 0.24929 0.0
H2907 H 0.22508 0.81366 0.20445 0.0
H2908 H 0.21492 0.87443 0.20111 0.0
H2909 H 0.1951 0.89433 0.20293 0.0
H2910 H 0.14559 0.84847 0.16741 0.0
H2911 H 0.16495 0.82811 0.16554 0.0
C2912 C 0.25336 0.82282 0.13253 0.0
C2913 C 0.23701 0.81173 0.11987 0.0
C2914 C 0.24809 0.82666 0.14743 0.0
C2915 C 0.22636 0.81937 0.14999 0.0
C2916 C 0.21008 0.80869 0.13731 0.0
C2917 C 0.21533 0.80487 0.12241 0.0
C2918 C 0.2205 0.82273 0.16589 0.0
C2919 C 0.20871 0.83347 0.1675 0.0
C2920 C 0.22658 0.81561 0.1794 0.0
C2921 C 0.23807 0.80321 0.17837 0.0
C2922 C 0.22919 0.78396 0.16827 0.0
C2923 C 0.24019 0.77245 0.16727 0.0
C2924 C 0.26001 0.77994 0.17641 0.0
C2925 C 0.26883 0.79893 0.1866 0.0
C2926 C 0.25791 0.81051 0.18763 0.0
C2927 C 0.17307 0.82636 0.22786 0.0
C2928 C 0.18845 0.83706 0.24112 0.0
C2929 C 0.17967 0.82392 0.21317 0.0
C2930 C 0.20178 0.83226 0.2114 0.0
C2931 C 0.21715 0.84264 0.22465 0.0
C2932 C 0.21056 0.84508 0.23936 0.0
C2933 C 0.20882 0.83006 0.19573 0.0
C2934 C 0.22084 0.81955 0.19416 0.0
C2935 C 0.20293 0.83737 0.18225 0.0
C2936 C 0.19129 0.84964 0.18329 0.0
C2937 C 0.19972 0.86849 0.19378 0.0
C2938 C 0.18858 0.87987 0.1948 0.0
C2939 C 0.16907 0.87264 0.18532 0.0
C2940 C 0.16069 0.85404 0.17476 0.0
C2941 C 0.17175 0.84259 0.1737 0.0
H2942 H 0.16048 0.88147 0.18613 0.0
H2943 H 0.2685 0.771 0.17562 0.0
H2944 H 0.21316 0.45807 0.14158 0.0
H2945 H 0.2054 0.4418 0.16646 0.0
H2946 H 0.22861 0.39932 0.15113 0.0
H2947 H 0.23595 0.41523 0.12597 0.0
H2948 H 0.19017 0.3777 0.16339 0.0
H2949 H 0.25881 0.44121 0.17911 0.0
H2950 H 0.28564 0.48009 0.18179 0.0
H2951 H 0.24394 0.49305 0.20892 0.0
H2952 H 0.2167 0.45425 0.20622 0.0
H2953 H 0.18782 0.33809 0.23807 0.0
H2954 H 0.19988 0.35514 0.21386 0.0
H2955 H 0.17945 0.40071 0.2269 0.0
H2956 H 0.1674 0.38375 0.2512 0.0
H2957 H 0.21826 0.42056 0.21582 0.0
H2958 H 0.14893 0.35754 0.19895 0.0
H2959 H 0.12176 0.31874 0.19614 0.0
H2960 H 0.1645 0.305 0.17101 0.0
H2961 H 0.19207 0.34371 0.17386 0.0
C2962 C 0.21659 0.44524 0.14349 0.0
C2963 C 0.22511 0.43788 0.13178 0.0
C2964 C 0.21233 0.43609 0.15778 0.0
C2965 C 0.21661 0.41948 0.16072 0.0
C2966 C 0.22526 0.41218 0.14912 0.0
C2967 C 0.22959 0.42138 0.13481 0.0
C2968 C 0.21125 0.40925 0.17569 0.0
C2969 C 0.19661 0.38701 0.17486 0.0
C2970 C 0.21925 0.42148 0.19065 0.0
C2971 C 0.23563 0.44483 0.19234 0.0
C2972 C 0.25528 0.45236 0.18554 0.0
C2973 C 0.27058 0.47439 0.18708 0.0
C2974 C 0.26648 0.48904 0.19549 0.0
C2975 C 0.24709 0.48168 0.2024 0.0
C2976 C 0.23172 0.45967 0.20088 0.0
C2977 C 0.18572 0.35163 0.23572 0.0
C2978 C 0.1765 0.35946 0.24651 0.0
C2979 C 0.19266 0.36139 0.22189 0.0
C2980 C 0.19031 0.37904 0.21845 0.0
C2981 C 0.18143 0.38711 0.2293 0.0
C2982 C 0.17457 0.37742 0.24319 0.0
C2983 C 0.19704 0.38904 0.20351 0.0
C2984 C 0.21193 0.41123 0.20434 0.0
C2985 C 0.18923 0.37677 0.18855 0.0
C2986 C 0.17265 0.3535 0.18677 0.0
C2987 C 0.1526 0.34623 0.19293 0.0
C2988 C 0.13712 0.32426 0.19131 0.0
C2989 C 0.14142 0.30941 0.18344 0.0
C2990 C 0.1612 0.31652 0.17713 0.0
C2991 C 0.17676 0.33847 0.17873 0.0
H2992 H 0.12941 0.2924 0.18219 0.0
H2993 H 0.27835 0.50608 0.19667 0.0
H2994 H 0.78635 0.54979 0.89658 0.0
H2995 H 0.79531 0.56639 0.87184 0.0
H2996 H 0.78443 0.61705 0.89026 0.0
H2997 H 0.77505 0.60026 0.9149 0.0
H2998 H 0.76673 0.60409 0.86099 0.0
H2999 H 0.83642 0.62474 0.88778 0.0
H3000 H 0.86411 0.61888 0.90169 0.0
H3001 H 0.86212 0.57975 0.86087 0.0
H3002 H 0.83418 0.58514 0.84678 0.0
H3003 H 0.81924 0.67761 0.80451 0.0
H3004 H 0.80965 0.66034 0.82891 0.0
H3005 H 0.8146 0.60685 0.80843 0.0
H3006 H 0.82381 0.62381 0.78386 0.0
H3007 H 0.83533 0.62116 0.83852 0.0
H3008 H 0.76562 0.60123 0.81179 0.0
H3009 H 0.73836 0.60788 0.7981 0.0
H3010 H 0.74115 0.64691 0.83928 0.0
H3011 H 0.76868 0.64074 0.85315 0.0
C3012 C 0.78601 0.56454 0.89537 0.0
C3013 C 0.78005 0.57376 0.90768 0.0
C3014 C 0.79116 0.57404 0.88124 0.0
C3015 C 0.79085 0.59316 0.87924 0.0
C3016 C 0.78478 0.60231 0.8915 0.0
C3017 C 0.7794 0.59269 0.90557 0.0
C3018 C 0.79662 0.60351 0.86432 0.0
C3019 C 0.78187 0.60809 0.85621 0.0
C3020 C 0.81617 0.60834 0.85786 0.0
C3021 C 0.83306 0.60518 0.86628 0.0
C3022 C 0.84178 0.61476 0.88181 0.0
C3023 C 0.85753 0.61154 0.88972 0.0
C3024 C 0.86483 0.59891 0.88219 0.0
C3025 C 0.85643 0.58951 0.8667 0.0
C3026 C 0.84065 0.59266 0.85874 0.0
C3027 C 0.81803 0.66205 0.8051 0.0
C3028 C 0.82225 0.65209 0.79218 0.0
C3029 C 0.81262 0.65223 0.81909 0.0
C3030 C 0.81127 0.63224 0.82045 0.0
C3031 C 0.81562 0.62232 0.80764 0.0
C3032 C 0.82096 0.63208 0.79363 0.0
C3033 C 0.80547 0.62175 0.83527 0.0
C3034 C 0.8202 0.61715 0.84334 0.0
C3035 C 0.78599 0.61704 0.84174 0.0
C3036 C 0.76937 0.62069 0.83345 0.0
C3037 C 0.76055 0.61137 0.81789 0.0
C3038 C 0.74503 0.61503 0.8101 0.0
C3039 C 0.73807 0.62785 0.8178 0.0
C3040 C 0.74658 0.637 0.83332 0.0
C3041 C 0.76213 0.63341 0.84115 0.0
H3042 H 0.72605 0.63067 0.81175 0.0
H3043 H 0.87702 0.59643 0.88833 0.0
H3044 H 0.39887 0.22001 0.93089 0.0
H3045 H 0.386 0.21517 0.90289 0.0
H3046 H 0.42869 0.19118 0.89138 0.0
H3047 H 0.44232 0.19685 0.91926 0.0
H3048 H 0.42928 0.21776 0.87068 0.0
H3049 H 0.37441 0.15685 0.89315 0.0
H3050 H 0.34768 0.13834 0.91195 0.0
H3051 H 0.31235 0.16934 0.89709 0.0
H3052 H 0.33905 0.18827 0.87835 0.0
H3053 H 0.3776 0.16498 0.79407 0.0
H3054 H 0.39283 0.17355 0.82178 0.0
H3055 H 0.35168 0.19981 0.83214 0.0
H3056 H 0.33655 0.19152 0.80445 0.0
H3057 H 0.35042 0.17269 0.85336 0.0
H3058 H 0.4053 0.23287 0.83018 0.0
H3059 H 0.43196 0.2506 0.81119 0.0
H3060 H 0.46722 0.21999 0.82714 0.0
H3061 H 0.44058 0.20184 0.84608 0.0
C3062 C 0.40573 0.21396 0.92238 0.0
C3063 C 0.42151 0.20867 0.92733 0.0
C3064 C 0.3982 0.21101 0.9064 0.0
C3065 C 0.40615 0.2025 0.89507 0.0
C3066 C 0.42225 0.19766 0.89993 0.0
C3067 C 0.42986 0.2007 0.91589 0.0
C3068 C 0.39748 0.19836 0.87818 0.0
C3069 C 0.41206 0.20771 0.86687 0.0
C3070 C 0.37497 0.18556 0.87325 0.0
C3071 C 0.35885 0.17414 0.88447 0.0
C3072 C 0.36103 0.15985 0.89398 0.0
C3073 C 0.34588 0.14926 0.90461 0.0
C3074 C 0.32837 0.15271 0.90574 0.0
C3075 C 0.32595 0.16671 0.89622 0.0
C3076 C 0.34108 0.17736 0.88558 0.0
C3077 C 0.37201 0.17285 0.8022 0.0
C3078 C 0.35584 0.17754 0.79706 0.0
C3079 C 0.38069 0.17769 0.81803 0.0
C3080 C 0.37347 0.18744 0.82899 0.0
C3081 C 0.35742 0.19223 0.82388 0.0
C3082 C 0.34874 0.1874 0.80807 0.0
C3083 C 0.38221 0.19211 0.84587 0.0
C3084 C 0.36763 0.18281 0.85718 0.0
C3085 C 0.40472 0.20485 0.85078 0.0
C3086 C 0.42082 0.21584 0.83945 0.0
C3087 C 0.41864 0.22979 0.82956 0.0
C3088 C 0.43377 0.23994 0.81882 0.0
C3089 C 0.45124 0.23638 0.81793 0.0
C3090 C 0.45366 0.22271 0.82782 0.0
C3091 C 0.43856 0.2125 0.83857 0.0
H3092 H 0.46294 0.24425 0.80961 0.0
H3093 H 0.31664 0.14449 0.91398 0.0
H3094 H 0.79495 0.24197 0.89673 0.0
H3095 H 0.80104 0.23183 0.87048 0.0
H3096 H 0.78621 0.16957 0.88437 0.0
H3097 H 0.78033 0.17976 0.9108 0.0
H3098 H 0.82385 0.189 0.87023 0.0
H3099 H 0.7508 0.1731 0.85904 0.0
H3100 H 0.7201 0.1798 0.85875 0.0
H3101 H 0.75306 0.23263 0.83095 0.0
H3102 H 0.78412 0.22646 0.83126 0.0
H3103 H 0.82741 0.14961 0.79267 0.0
H3104 H 0.8142 0.15352 0.81775 0.0
H3105 H 0.82688 0.21689 0.80844 0.0
H3106 H 0.83969 0.21292 0.78319 0.0
H3107 H 0.78777 0.19362 0.82012 0.0
H3108 H 0.86181 0.21146 0.83324 0.0
H3109 H 0.89289 0.2053 0.83371 0.0
H3110 H 0.85811 0.14914 0.8581 0.0
H3111 H 0.82669 0.1548 0.85757 0.0
C3112 C 0.79291 0.22608 0.89417 0.0
C3113 C 0.78724 0.21167 0.90582 0.0
C3114 C 0.79623 0.22025 0.87914 0.0
C3115 C 0.79392 0.19989 0.87544 0.0
C3116 C 0.78799 0.18533 0.88698 0.0
C3117 C 0.78451 0.19112 0.90202 0.0
C3118 C 0.79888 0.19436 0.85979 0.0
C3119 C 0.81566 0.18958 0.85927 0.0
C3120 C 0.78854 0.19563 0.84551 0.0
C3121 C 0.76989 0.19942 0.84529 0.0
C3122 C 0.75159 0.18627 0.85298 0.0
C3123 C 0.7341 0.18994 0.85279 0.0
C3124 C 0.73465 0.20666 0.84487 0.0
C3125 C 0.75267 0.2197 0.83709 0.0
C3126 C 0.77021 0.2161 0.83726 0.0
C3127 C 0.82718 0.16429 0.79589 0.0
C3128 C 0.83469 0.181 0.78597 0.0
C3129 C 0.81977 0.16655 0.81027 0.0
C3130 C 0.81976 0.18558 0.81502 0.0
C3131 C 0.82682 0.2021 0.80502 0.0
C3132 C 0.83433 0.19989 0.79067 0.0
C3133 C 0.81287 0.18848 0.83059 0.0
C3134 C 0.79577 0.19281 0.8311 0.0
C3135 C 0.82295 0.18684 0.84487 0.0
C3136 C 0.84181 0.18341 0.8452 0.0
C3137 C 0.86072 0.19769 0.83858 0.0
C3138 C 0.87841 0.19431 0.83888 0.0
C3139 C 0.87745 0.1768 0.84589 0.0
C3140 C 0.85882 0.16267 0.85265 0.0
C3141 C 0.84107 0.16596 0.85236 0.0
H3142 H 0.89116 0.17422 0.84612 0.0
H3143 H 0.72108 0.20948 0.84473 0.0
H3144 H 0.2998 0.17666 0.44608 0.0
H3145 H 0.31134 0.18677 0.47452 0.0
H3146 H 0.26186 0.12358 0.48408 0.0
H3147 H 0.25035 0.11338 0.45574 0.0
H3148 H 0.26482 0.15876 0.50418 0.0
H3149 H 0.31076 0.13245 0.48412 0.0
H3150 H 0.33701 0.13266 0.46653 0.0
H3151 H 0.38256 0.19852 0.48387 0.0
H3152 H 0.35642 0.19878 0.50141 0.0
H3153 H 0.29419 0.13994 0.57924 0.0
H3154 H 0.28324 0.14086 0.55178 0.0
H3155 H 0.34453 0.19889 0.54935 0.0
H3156 H 0.35579 0.19765 0.57683 0.0
H3157 H 0.33736 0.17232 0.52533 0.0
H3158 H 0.29482 0.19819 0.54804 0.0
H3159 H 0.26922 0.19984 0.56541 0.0
H3160 H 0.21826 0.13852 0.54333 0.0
H3161 H 0.24362 0.1363 0.526 0.0
C3162 C 0.29137 0.165 0.45429 0.0
C3163 C 0.27432 0.14419 0.44875 0.0
C3164 C 0.29796 0.17077 0.47047 0.0
C3165 C 0.28744 0.15589 0.48134 0.0
C3166 C 0.27013 0.13528 0.47585 0.0
C3167 C 0.26372 0.12942 0.45969 0.0
C3168 C 0.29491 0.16138 0.49842 0.0
C3169 C 0.28062 0.16163 0.50889 0.0
C3170 C 0.31583 0.16593 0.5044 0.0
C3171 C 0.33155 0.16571 0.49392 0.0
C3172 C 0.3263 0.14703 0.48407 0.0
C3173 C 0.34117 0.14706 0.47414 0.0
C3174 C 0.36141 0.16562 0.47404 0.0
C3175 C 0.36685 0.18417 0.48393 0.0
C3176 C 0.35202 0.18424 0.49387 0.0
C3177 C 0.30515 0.15315 0.57296 0.0
C3178 C 0.32586 0.1687 0.58015 0.0
C3179 C 0.29885 0.15372 0.55725 0.0
C3180 C 0.31296 0.17009 0.54849 0.0
C3181 C 0.33338 0.18609 0.55585 0.0
C3182 C 0.3398 0.18537 0.57152 0.0
C3183 C 0.30709 0.1693 0.53133 0.0
C3184 C 0.32168 0.16988 0.52077 0.0
C3185 C 0.28654 0.16586 0.52528 0.0
C3186 C 0.27119 0.16704 0.53575 0.0
C3187 C 0.2782 0.18498 0.54696 0.0
C3188 C 0.26371 0.18604 0.55678 0.0
C3189 C 0.24212 0.16933 0.55544 0.0
C3190 C 0.23498 0.15148 0.54432 0.0
C3191 C 0.2494 0.15033 0.53448 0.0
H3192 H 0.23093 0.17018 0.56306 0.0
H3193 H 0.37291 0.1656 0.46635 0.0
H3194 H 0.90163 0.10845 0.46081 0.0
H3195 H 0.89408 0.11511 0.48752 0.0
H3196 H 0.90325 0.17683 0.47664 0.0
H3197 H 0.9114 0.17045 0.45007 0.0
H3198 H 0.92122 0.18069 0.50522 0.0
H3199 H 0.85179 0.13124 0.47657 0.0
H3200 H 0.82509 0.09791 0.46006 0.0
H3201 H 0.82877 0.05993 0.49589 0.0
H3202 H 0.85572 0.09304 0.51254 0.0
H3203 H 0.86313 0.19741 0.56391 0.0
H3204 H 0.87536 0.19083 0.53917 0.0
H3205 H 0.87357 0.13439 0.55556 0.0
H3206 H 0.86185 0.14115 0.58058 0.0
H3207 H 0.85285 0.12706 0.5251 0.0
H3208 H 0.92159 0.17771 0.55417 0.0
H3209 H 0.94805 0.21164 0.5702 0.0
H3210 H 0.94428 0.24799 0.53317 0.0
H3211 H 0.91776 0.2143 0.51692 0.0
C3212 C 0.90202 0.12343 0.46415 0.0
C3213 C 0.90698 0.13889 0.45337 0.0
C3214 C 0.89767 0.12721 0.47939 0.0
C3215 C 0.89772 0.14632 0.48402 0.0
C3216 C 0.9031 0.16196 0.47335 0.0
C3217 C 0.90775 0.15831 0.45818 0.0
C3218 C 0.89185 0.1499 0.49988 0.0
C3219 C 0.90616 0.16905 0.50948 0.0
C3220 C 0.8724 0.13454 0.50561 0.0
C3221 C 0.85593 0.11461 0.49573 0.0
C3222 C 0.847 0.11577 0.48089 0.0
C3223 C 0.83181 0.09692 0.47151 0.0
C3224 C 0.82529 0.07681 0.4769 0.0
C3225 C 0.83386 0.07552 0.49172 0.0
C3226 C 0.84908 0.09432 0.50114 0.0
C3227 C 0.86564 0.18377 0.56238 0.0
C3228 C 0.86146 0.16978 0.57425 0.0
C3229 C 0.87257 0.18 0.5482 0.0
C3230 C 0.87546 0.16219 0.54558 0.0
C3231 C 0.87136 0.14819 0.55736 0.0
C3232 C 0.86454 0.15202 0.5716 0.0
C3233 C 0.88214 0.15786 0.53032 0.0
C3234 C 0.86796 0.1386 0.52084 0.0
C3235 C 0.90158 0.1732 0.52464 0.0
C3236 C 0.91755 0.19348 0.53438 0.0
C3237 C 0.92628 0.19294 0.5495 0.0
C3238 C 0.94131 0.21212 0.55861 0.0
C3239 C 0.94774 0.23194 0.55274 0.0
C3240 C 0.93925 0.23262 0.53771 0.0
C3241 C 0.92427 0.21349 0.52852 0.0
H3242 H 0.95936 0.24676 0.55983 0.0
H3243 H 0.81356 0.06223 0.46961 0.0
H3244 H 0.87986 0.79274 0.4749 0.0
H3245 H 0.87119 0.77632 0.49972 0.0
H3246 H 0.89543 0.73433 0.48545 0.0
H3247 H 0.90381 0.75048 0.46044 0.0
H3248 H 0.85582 0.71242 0.49666 0.0
H3249 H 0.92447 0.77575 0.51345 0.0
H3250 H 0.95125 0.81466 0.51658 0.0
H3251 H 0.90868 0.82698 0.54313 0.0
H3252 H 0.88149 0.78815 0.53997 0.0
H3253 H 0.85414 0.67104 0.57018 0.0
H3254 H 0.86562 0.68889 0.54624 0.0
H3255 H 0.84473 0.73355 0.5609 0.0
H3256 H 0.83399 0.71627 0.58525 0.0
H3257 H 0.88325 0.75422 0.5495 0.0
H3258 H 0.8143 0.69143 0.53229 0.0
H3259 H 0.78705 0.65265 0.52902 0.0
H3260 H 0.82955 0.63948 0.50307 0.0
H3261 H 0.8572 0.67817 0.50638 0.0
C3262 C 0.88335 0.78002 0.47705 0.0
C3263 C 0.89248 0.77287 0.4657 0.0
C3264 C 0.87855 0.77077 0.49129 0.0
C3265 C 0.88279 0.75419 0.49448 0.0
C3266 C 0.89207 0.74713 0.48324 0.0
C3267 C 0.89699 0.75647 0.46902 0.0
C3268 C 0.87681 0.74374 0.50932 0.0
C3269 C 0.86209 0.72149 0.50823 0.0
C3270 C 0.88451 0.75569 0.52438 0.0
C3271 C 0.90085 0.77905 0.52634 0.0
C3272 C 0.92073 0.78677 0.51984 0.0
C3273 C 0.936 0.80881 0.52165 0.0
C3274 C 0.93164 0.82329 0.53002 0.0
C3275 C 0.91202 0.81574 0.53664 0.0
C3276 C 0.89668 0.79372 0.53485 0.0
C3277 C 0.85217 0.68479 0.56841 0.0
C3278 C 0.84311 0.6922 0.57966 0.0
C3279 C 0.85854 0.69485 0.55462 0.0
C3280 C 0.85579 0.71241 0.55166 0.0
C3281 C 0.84694 0.71998 0.5629 0.0
C3282 C 0.84061 0.70995 0.57675 0.0
C3283 C 0.86224 0.72288 0.53685 0.0
C3284 C 0.87702 0.74513 0.53794 0.0
C3285 C 0.85452 0.71095 0.52177 0.0
C3286 C 0.8379 0.68768 0.51972 0.0
C3287 C 0.81791 0.68025 0.526 0.0
C3288 C 0.80237 0.65828 0.52412 0.0
C3289 C 0.80659 0.6436 0.51588 0.0
C3290 C 0.82632 0.65087 0.50947 0.0
C3291 C 0.84192 0.67281 0.51133 0.0
H3292 H 0.79454 0.62661 0.51443 0.0
H3293 H 0.94349 0.84034 0.53141 0.0
loop_
_geom_bond_atom_site_label_1
_geom_bond_atom_site_label_2
_geom_bond_distance
_geom_bond_site_symmetry_2
_ccdc_geom_bond_type
H0 C7 0.929 . S
H1 C10 0.930 . S
H2 C12 0.929 . S
H3 C4 0.969 . S
C4 H3 0.969 . S
C4 O5 1.550 . S
C4 H6 0.973 . S
O5 C4 1.550 . S
O5 C11 1.412 . S
H6 C4 0.973 . S
C7 H0 0.929 . S
C7 C8 1.400 . S
C7 C9 1.364 . S
C8 C7 1.400 . S
C8 C12 1.377 . S
C9 C7 1.364 . S
C9 C10 1.374 . S
C10 H1 0.930 . S
C10 C9 1.374 . S
C10 C11 1.383 . S
C11 O5 1.412 . S
C11 C10 1.383 . S
C11 C12 1.394 . S
C12 H2 0.929 . S
C12 C8 1.377 . S
C12 C11 1.394 . S
H13 C20 0.929 . S
H14 C23 0.930 . S
H15 C25 0.929 . S
H16 C17 0.969 . S
C17 H16 0.969 . S
C17 O18 1.550 . S
C17 H19 0.973 . S
O18 C17 1.550 . S
O18 C24 1.412 . S
H19 C17 0.973 . S
C20 H13 0.929 . S
C20 C21 1.400 . S
C20 C22 1.364 . S
C21 C20 1.400 . S
C21 C25 1.377 . S
C22 C20 1.364 . S
C22 C23 1.374 . S
C23 H14 0.930 . S
C23 C22 1.374 . S
C23 C24 1.383 . S
C24 O18 1.412 . S
C24 C23 1.383 . S
C24 C25 1.394 . S
C25 H15 0.929 . S
C25 C21 1.377 . S
C25 C24 1.394 . S
H26 C33 0.929 . S
H27 C36 0.930 . S
H28 C38 0.929 . S
H29 C30 0.969 . S
C30 H29 0.969 . S
C30 O31 1.550 . S
C30 H32 0.973 . S
O31 C30 1.550 . S
O31 C37 1.412 . S
H32 C30 0.973 . S
C33 H26 0.929 . S
C33 C34 1.400 . S
C33 C35 1.364 . S
C34 C33 1.400 . S
C34 C38 1.377 . S
C35 C33 1.364 . S
C35 C36 1.374 . S
C36 H27 0.930 . S
C36 C35 1.374 . S
C36 C37 1.383 . S
C37 O31 1.412 . S
C37 C36 1.383 . S
C37 C38 1.394 . S
C38 H28 0.929 . S
C38 C34 1.377 . S
C38 C37 1.394 . S
H39 C46 0.929 . S
H40 C49 0.930 . S
H41 C51 0.929 . S
H42 C43 0.969 . S
C43 H42 0.969 . S
C43 O44 1.550 . S
C43 H45 0.973 . S
O44 C43 1.550 . S
O44 C50 1.412 . S
H45 C43 0.973 . S
C46 H39 0.929 . S
C46 C47 1.400 . S
C46 C48 1.364 . S
C47 C46 1.400 . S
C47 C51 1.377 . S
C48 C46 1.364 . S
C48 C49 1.374 . S
C49 H40 0.930 . S
C49 C48 1.374 . S
C49 C50 1.383 . S
C50 O44 1.412 . S
C50 C49 1.383 . S
C50 C51 1.394 . S
C51 H41 0.929 . S
C51 C47 1.377 . S
C51 C50 1.394 . S
H52 C59 0.929 . S
H53 C62 0.930 . S
H54 C64 0.929 . S
H55 C56 0.969 . S
C56 H55 0.969 . S
C56 O57 1.550 . S
C56 H58 0.973 . S
O57 C56 1.550 . S
O57 C63 1.412 . S
H58 C56 0.973 . S
C59 H52 0.929 . S
C59 C60 1.400 . S
C59 C61 1.364 . S
C60 C59 1.400 . S
C60 C64 1.377 . S
C61 C59 1.364 . S
C61 C62 1.374 . S
C62 H53 0.930 . S
C62 C61 1.374 . S
C62 C63 1.383 . S
C63 O57 1.412 . S
C63 C62 1.383 . S
C63 C64 1.394 . S
C64 H54 0.929 . S
C64 C60 1.377 . S
C64 C63 1.394 . S
H65 C72 0.929 . S
H66 C75 0.930 . S
H67 C77 0.929 . S
H68 C69 0.969 . S
C69 H68 0.969 . S
C69 O70 1.550 . S
C69 H71 0.973 . S
O70 C69 1.550 . S
O70 C76 1.412 . S
H71 C69 0.973 . S
C72 H65 0.929 . S
C72 C73 1.400 . S
C72 C74 1.364 . S
C73 C72 1.400 . S
C73 C77 1.377 . S
C74 C72 1.364 . S
C74 C75 1.374 . S
C75 H66 0.930 . S
C75 C74 1.374 . S
C75 C76 1.383 . S
C76 O70 1.412 . S
C76 C75 1.383 . S
C76 C77 1.394 . S
C77 H67 0.929 . S
C77 C73 1.377 . S
C77 C76 1.394 . S
H78 C85 0.929 . S
H79 C88 0.930 . S
H80 C90 0.929 . S
H81 C82 0.969 . S
C82 H81 0.969 . S
C82 O83 1.550 . S
C82 H84 0.973 . S
O83 C82 1.550 . S
O83 C89 1.412 . S
H84 C82 0.973 . S
C85 H78 0.929 . S
C85 C86 1.400 . S
C85 C87 1.364 . S
C86 C85 1.400 . S
C86 C90 1.377 . S
C87 C85 1.364 . S
C87 C88 1.374 . S
C88 H79 0.930 . S
C88 C87 1.374 . S
C88 C89 1.383 . S
C89 O83 1.412 . S
C89 C88 1.383 . S
C89 C90 1.394 . S
C90 H80 0.929 . S
C90 C86 1.377 . S
C90 C89 1.394 . S
H91 C98 0.929 . S
H92 C101 0.930 . S
H93 C103 0.929 . S
H94 C95 0.969 . S
C95 H94 0.969 . S
C95 O96 1.550 . S
C95 H97 0.973 . S
O96 C95 1.550 . S
O96 C102 1.412 . S
H97 C95 0.973 . S
C98 H91 0.929 . S
C98 C99 1.400 . S
C98 C100 1.364 . S
C99 C98 1.400 . S
C99 C103 1.377 . S
C100 C98 1.364 . S
C100 C101 1.374 . S
C101 H92 0.930 . S
C101 C100 1.374 . S
C101 C102 1.383 . S
C102 O96 1.412 . S
C102 C101 1.383 . S
C102 C103 1.394 . S
C103 H93 0.929 . S
C103 C99 1.377 . S
C103 C102 1.394 . S
H104 C111 0.929 . S
H105 C114 0.930 . S
H106 C116 0.929 . S
H107 C108 0.969 . S
C108 H107 0.969 . S
C108 O109 1.550 . S
C108 H110 0.973 . S
O109 C108 1.550 . S
O109 C115 1.412 . S
H110 C108 0.973 . S
C111 H104 0.929 . S
C111 C112 1.400 . S
C111 C113 1.364 . S
C112 C111 1.400 . S
C112 C116 1.377 . S
C113 C111 1.364 . S
C113 C114 1.374 . S
C114 H105 0.930 . S
C114 C113 1.374 . S
C114 C115 1.383 . S
C115 O109 1.412 . S
C115 C114 1.383 . S
C115 C116 1.394 . S
C116 H106 0.929 . S
C116 C112 1.377 . S
C116 C115 1.394 . S
H117 C124 0.929 . S
H118 C127 0.930 . S
H119 C129 0.929 . S
H120 C121 0.969 . S
C121 H120 0.969 . S
C121 O122 1.550 . S
C121 H123 0.973 . S
O122 C121 1.550 . S
O122 C128 1.412 . S
H123 C121 0.973 . S
C124 H117 0.929 . S
C124 C125 1.400 . S
C124 C126 1.364 . S
C125 C124 1.400 . S
C125 C129 1.377 . S
C126 C124 1.364 . S
C126 C127 1.374 . S
C127 H118 0.930 . S
C127 C126 1.374 . S
C127 C128 1.383 . S
C128 O122 1.412 . S
C128 C127 1.383 . S
C128 C129 1.394 . S
C129 H119 0.929 . S
C129 C125 1.377 . S
C129 C128 1.394 . S
H130 C137 0.929 . S
H131 C140 0.930 . S
H132 C142 0.929 . S
H133 C134 0.969 . S
C134 H133 0.969 . S
C134 O135 1.550 . S
C134 H136 0.973 . S
O135 C134 1.550 . S
O135 C141 1.412 . S
H136 C134 0.973 . S
C137 H130 0.929 . S
C137 C138 1.400 . S
C137 C139 1.364 . S
C138 C137 1.400 . S
C138 C142 1.377 . S
C139 C137 1.364 . S
C139 C140 1.374 . S
C140 H131 0.930 . S
C140 C139 1.374 . S
C140 C141 1.383 . S
C141 O135 1.412 . S
C141 C140 1.383 . S
C141 C142 1.394 . S
C142 H132 0.929 . S
C142 C138 1.377 . S
C142 C141 1.394 . S
H143 C150 0.929 . S
H144 C153 0.930 . S
H145 C155 0.929 . S
H146 C147 0.969 . S
C147 H146 0.969 . S
C147 O148 1.550 . S
C147 H149 0.973 . S
O148 C147 1.550 . S
O148 C154 1.412 . S
H149 C147 0.973 . S
C150 H143 0.929 . S
C150 C151 1.400 . S
C150 C152 1.364 . S
C151 C150 1.400 . S
C151 C155 1.377 . S
C152 C150 1.364 . S
C152 C153 1.374 . S
C153 H144 0.930 . S
C153 C152 1.374 . S
C153 C154 1.383 . S
C154 O148 1.412 . S
C154 C153 1.383 . S
C154 C155 1.394 . S
C155 H145 0.929 . S
C155 C151 1.377 . S
C155 C154 1.394 . S
H156 C163 0.929 . S
H157 C166 0.930 . S
H158 C168 0.929 . S
H159 C160 0.969 . S
C160 H159 0.969 . S
C160 O161 1.550 . S
C160 H162 0.973 . S
O161 C160 1.550 . S
O161 C167 1.412 . S
H162 C160 0.973 . S
C163 H156 0.929 . S
C163 C164 1.400 . S
C163 C165 1.364 . S
C164 C163 1.400 . S
C164 C168 1.377 . S
C165 C163 1.364 . S
C165 C166 1.374 . S
C166 H157 0.930 . S
C166 C165 1.374 . S
C166 C167 1.383 . S
C167 O161 1.412 . S
C167 C166 1.383 . S
C167 C168 1.394 . S
C168 H158 0.929 . S
C168 C164 1.377 . S
C168 C167 1.394 . S
H169 C176 0.929 . S
H170 C179 0.930 . S
H171 C181 0.929 . S
H172 C173 0.969 . S
C173 H172 0.969 . S
C173 O174 1.550 . S
C173 H175 0.973 . S
O174 C173 1.550 . S
O174 C180 1.412 . S
H175 C173 0.973 . S
C176 H169 0.929 . S
C176 C177 1.400 . S
C176 C178 1.364 . S
C177 C176 1.400 . S
C177 C181 1.377 . S
C178 C176 1.364 . S
C178 C179 1.374 . S
C179 H170 0.930 . S
C179 C178 1.374 . S
C179 C180 1.383 . S
C180 O174 1.412 . S
C180 C179 1.383 . S
C180 C181 1.394 . S
C181 H171 0.929 . S
C181 C177 1.377 . S
C181 C180 1.394 . S
H182 C189 0.929 . S
H183 C192 0.930 . S
H184 C194 0.929 . S
H185 C186 0.969 . S
C186 H185 0.969 . S
C186 O187 1.550 . S
C186 H188 0.973 . S
O187 C186 1.550 . S
O187 C193 1.412 . S
H188 C186 0.973 . S
C189 H182 0.929 . S
C189 C190 1.400 . S
C189 C191 1.364 . S
C190 C189 1.400 . S
C190 C194 1.377 . S
C191 C189 1.364 . S
C191 C192 1.374 . S
C192 H183 0.930 . S
C192 C191 1.374 . S
C192 C193 1.383 . S
C193 O187 1.412 . S
C193 C192 1.383 . S
C193 C194 1.394 . S
C194 H184 0.929 . S
C194 C190 1.377 . S
C194 C193 1.394 . S
H195 C202 0.929 . S
H196 C205 0.930 . S
H197 C207 0.929 . S
H198 C199 0.969 . S
C199 H198 0.969 . S
C199 O200 1.550 . S
C199 H201 0.973 . S
O200 C199 1.550 . S
O200 C206 1.412 . S
H201 C199 0.973 . S
C202 H195 0.929 . S
C202 C203 1.400 . S
C202 C204 1.364 . S
C203 C202 1.400 . S
C203 C207 1.377 . S
C204 C202 1.364 . S
C204 C205 1.374 . S
C205 H196 0.930 . S
C205 C204 1.374 . S
C205 C206 1.383 . S
C206 O200 1.412 . S
C206 C205 1.383 . S
C206 C207 1.394 . S
C207 H197 0.929 . S
C207 C203 1.377 . S
C207 C206 1.394 . S
H208 C215 0.929 . S
H209 C218 0.930 . S
H210 C220 0.929 . S
H211 C212 0.969 . S
C212 H211 0.969 . S
C212 O213 1.550 . S
C212 H214 0.973 . S
O213 C212 1.550 . S
O213 C219 1.412 . S
H214 C212 0.973 . S
C215 H208 0.929 . S
C215 C216 1.400 . S
C215 C217 1.364 . S
C216 C215 1.400 . S
C216 C220 1.377 . S
C217 C215 1.364 . S
C217 C218 1.374 . S
C218 H209 0.930 . S
C218 C217 1.374 . S
C218 C219 1.383 . S
C219 O213 1.412 . S
C219 C218 1.383 . S
C219 C220 1.394 . S
C220 H210 0.929 . S
C220 C216 1.377 . S
C220 C219 1.394 . S
H221 C228 0.929 . S
H222 C231 0.930 . S
H223 C233 0.929 . S
H224 C225 0.969 . S
C225 H224 0.969 . S
C225 O226 1.550 . S
C225 H227 0.973 . S
O226 C225 1.550 . S
O226 C232 1.412 . S
H227 C225 0.973 . S
C228 H221 0.929 . S
C228 C229 1.400 . S
C228 C230 1.364 . S
C229 C228 1.400 . S
C229 C233 1.377 . S
C230 C228 1.364 . S
C230 C231 1.374 . S
C231 H222 0.930 . S
C231 C230 1.374 . S
C231 C232 1.383 . S
C232 O226 1.412 . S
C232 C231 1.383 . S
C232 C233 1.394 . S
C233 H223 0.929 . S
C233 C229 1.377 . S
C233 C232 1.394 . S
Tb234 C244 2.825 1_565 S
Tb234 O245 2.347 1_566 S
Tb234 O248 2.366 1_565 S
Tb234 O253 2.418 . S
Tb234 O254 2.384 1_556 S
Tb234 O257 2.479 . S
Tb234 O258 2.471 1_565 S
Eu235 O246 2.418 . S
Eu235 O247 2.384 . S
Eu235 O250 2.479 . S
Eu235 O251 2.471 1_545 S
Eu235 O252 2.347 1_545 S
Eu235 O255 2.366 1_545 S
Eu235 C265 2.825 . S
C236 O252 1.259 . S
C236 O253 1.265 1_554 S
C237 O254 1.255 . S
C237 O255 1.265 . S
C238 C240 1.380 . S
C238 C241 1.374 . S
C238 C244 1.507 . S
C239 C240 1.384 . S
C239 C243 1.387 . S
C239 H266 0.959 . S
C240 C238 1.380 . S
C240 C239 1.384 . S
C240 H267 0.931 1_545 S
C241 C238 1.374 . S
C241 C242 1.390 . S
C241 H268 0.930 . S
C242 C241 1.390 . S
C242 C243 1.391 . S
C242 H269 0.930 . S
C243 C239 1.387 . S
C243 C242 1.391 . S
C244 Tb234 2.825 1_545 S
C244 C238 1.507 . S
C244 O257 1.238 1_545 S
C244 O258 1.247 . S
O245 Tb234 2.347 1_544 S
O245 C249 1.259 . S
O246 Eu235 2.418 . S
O246 C249 1.265 . S
O247 Eu235 2.384 . S
O247 C256 1.255 . S
O248 Tb234 2.366 1_545 S
O248 C256 1.265 1_556 S
C249 O245 1.259 . S
C249 O246 1.265 . S
O250 Eu235 2.479 . S
O250 C265 1.238 . S
O251 Eu235 2.471 1_565 S
O251 C265 1.247 1_565 S
O252 Eu235 2.347 1_565 S
O252 C236 1.259 . S
O253 Tb234 2.418 . S
O253 C236 1.265 1_556 S
O254 Tb234 2.384 1_554 S
O254 C237 1.255 . S
O255 Eu235 2.366 1_565 S
O255 C237 1.265 . S
C256 O247 1.255 . S
C256 O248 1.265 1_554 S
O257 Tb234 2.479 . S
O257 C244 1.238 1_565 S
O258 Tb234 2.471 1_545 S
O258 C244 1.247 . S
C259 C262 1.380 1_565 S
C259 C263 1.374 . S
C259 C265 1.507 1_565 S
C260 C261 1.360 1_565 S
C260 C264 1.391 . S
C261 C260 1.360 1_545 S
C261 C262 1.392 . S
C261 H270 0.951 . S
C262 C259 1.380 1_545 S
C262 C261 1.392 . S
C262 H271 0.931 . S
C263 C259 1.374 . S
C263 C264 1.390 . S
C263 H272 0.930 . S
C264 C260 1.391 . S
C264 C263 1.390 . S
C264 H273 0.930 . S
C265 Eu235 2.825 . S
C265 O250 1.238 . S
C265 O251 1.247 1_545 S
C265 C259 1.507 1_545 S
H266 C239 0.959 . S
H267 C240 0.931 1_565 S
H268 C241 0.930 . S
H269 C242 0.930 . S
H270 C261 0.951 . S
H271 C262 0.931 . S
H272 C263 0.930 . S
H273 C264 0.930 . S
Tb274 C284 2.825 . S
Tb274 O285 2.316 1_456 S
Tb274 O288 2.366 1_455 S
Tb274 O293 2.418 . S
Tb274 O294 2.384 1_556 S
Tb274 O297 2.479 . S
Tb274 O298 2.471 1_455 S
Eu275 O286 2.418 . S
Eu275 O287 2.384 . S
Eu275 O290 2.479 . S
Eu275 O291 2.471 1_655 S
Eu275 O292 2.347 1_655 S
Eu275 O295 2.366 1_655 S
Eu275 C305 2.825 1_655 S
C276 O292 1.259 . S
C276 O293 1.265 1_554 S
C277 O294 1.255 . S
C277 O295 1.265 . S
C278 C280 1.380 1_655 S
C278 C281 1.374 . S
C278 C284 1.507 1_655 S
C279 C280 1.384 1_655 S
C279 C283 1.387 . S
C279 H306 0.930 1_655 S
C280 C278 1.380 1_455 S
C280 C279 1.384 1_455 S
C280 H307 0.931 . S
C281 C278 1.374 . S
C281 C282 1.390 . S
C281 H308 0.930 . S
C282 C281 1.390 . S
C282 C283 1.391 . S
C282 H309 0.930 . S
C283 C279 1.387 . S
C283 C282 1.391 . S
C284 Tb274 2.825 . S
C284 C278 1.507 1_455 S
C284 O297 1.238 . S
C284 O298 1.247 1_455 S
O285 Tb274 2.316 1_654 S
O285 C289 1.288 . S
O286 Eu275 2.418 . S
O286 C289 1.265 . S
O287 Eu275 2.384 . S
O287 C296 1.255 1_554 S
O288 Tb274 2.366 1_655 S
O288 C296 1.265 . S
C289 O285 1.288 . S
C289 O286 1.265 . S
O290 Eu275 2.479 . S
O290 C305 1.238 1_655 S
O291 Eu275 2.471 1_455 S
O291 C305 1.247 . S
O292 Eu275 2.347 1_455 S
O292 C276 1.259 . S
O293 Tb274 2.418 . S
O293 C276 1.265 1_556 S
O294 Tb274 2.384 1_554 S
O294 C277 1.255 . S
O295 Eu275 2.366 1_455 S
O295 C277 1.265 . S
C296 O287 1.255 1_556 S
C296 O288 1.265 . S
O297 Tb274 2.479 . S
O297 C284 1.238 . S
O298 Tb274 2.471 1_655 S
O298 C284 1.247 1_655 S
C299 C302 1.380 . S
C299 C303 1.374 . S
C299 C305 1.507 . S
C300 C301 1.387 . S
C300 C304 1.391 . S
C301 C300 1.387 . S
C301 C302 1.384 . S
C301 H310 0.930 . S
C302 C299 1.380 . S
C302 C301 1.384 . S
C302 H311 0.931 1_455 S
C303 C299 1.374 . S
C303 C304 1.390 . S
C303 H312 0.930 . S
C304 C300 1.391 . S
C304 C303 1.390 . S
C304 H313 0.930 . S
C305 Eu275 2.825 1_455 S
C305 O290 1.238 1_455 S
C305 O291 1.247 . S
C305 C299 1.507 . S
H306 C279 0.930 1_455 S
H307 C280 0.931 . S
H308 C281 0.930 . S
H309 C282 0.930 . S
H310 C301 0.930 . S
H311 C302 0.931 1_655 S
H312 C303 0.930 . S
H313 C304 0.930 . S
Tb314 C324 2.825 . S
Tb314 O325 2.347 . S
Tb314 O328 2.366 . S
Tb314 O333 2.418 . S
Tb314 O334 2.384 . S
Tb314 O337 2.479 . S
Tb314 O338 2.471 . S
Eu315 O326 2.404 1_556 S
Eu315 O327 2.384 1_556 S
Eu315 O330 2.479 . S
Eu315 O331 2.471 . S
Eu315 O332 2.347 1_556 S
Eu315 O335 2.366 . S
Eu315 C345 2.825 . S
C316 O332 1.259 . S
C316 O333 1.265 . S
C317 O334 1.255 . S
C317 O335 1.265 1_554 S
C318 C320 1.380 . S
C318 C321 1.374 . S
C318 C324 1.507 . S
C319 C320 1.384 . S
C319 C323 1.387 . S
C319 H346 0.930 . S
C320 C318 1.380 . S
C320 C319 1.384 . S
C320 H347 0.931 . S
C321 C318 1.374 . S
C321 C322 1.390 . S
C321 H348 0.930 . S
C322 C321 1.390 . S
C322 C323 1.391 . S
C322 H349 0.930 . S
C323 C319 1.387 . S
C323 C322 1.391 . S
C324 Tb314 2.825 . S
C324 C318 1.507 . S
C324 O337 1.238 . S
C324 O338 1.247 . S
O325 Tb314 2.347 . S
O325 C329 1.259 . S
O326 Eu315 2.404 1_554 S
O326 C329 1.338 . S
O327 Eu315 2.384 1_554 S
O327 C336 1.255 . S
O328 Tb314 2.366 . S
O328 C336 1.265 . S
C329 O325 1.259 . S
C329 O326 1.338 . S
O330 Eu315 2.479 . S
O330 C345 1.238 . S
O331 Eu315 2.471 . S
O331 C345 1.247 . S
O332 Eu315 2.347 1_554 S
O332 C316 1.259 . S
O333 Tb314 2.418 . S
O333 C316 1.265 . S
O334 Tb314 2.384 . S
O334 C317 1.255 . S
O335 Eu315 2.366 . S
O335 C317 1.265 1_556 S
C336 O327 1.255 . S
C336 O328 1.265 . S
O337 Tb314 2.479 . S
O337 C324 1.238 . S
O338 Tb314 2.471 . S
O338 C324 1.247 . S
C339 C342 1.380 . S
C339 C343 1.374 . S
C339 C345 1.507 . S
C340 C341 1.387 . S
C340 C344 1.391 . S
C341 C340 1.387 . S
C341 C342 1.384 . S
C341 H350 0.930 . S
C342 C339 1.380 . S
C342 C341 1.384 . S
C342 H351 0.931 . S
C343 C339 1.374 . S
C343 C344 1.390 . S
C343 H352 0.930 . S
C344 C340 1.391 . S
C344 C343 1.390 . S
C344 H353 0.930 . S
C345 Eu315 2.825 . S
C345 O330 1.238 . S
C345 O331 1.247 . S
C345 C339 1.507 . S
H346 C319 0.930 . S
H347 C320 0.931 . S
H348 C321 0.930 . S
H349 C322 0.930 . S
H350 C341 0.930 . S
H351 C342 0.931 . S
H352 C343 0.930 . S
H353 C344 0.930 . S
Tb354 C364 2.825 . S
Tb354 O365 2.347 . S
Tb354 O368 2.366 . S
Tb354 O373 2.418 . S
Tb354 O374 2.384 . S
Tb354 O377 2.479 . S
Tb354 O378 2.471 . S
Eu355 O366 2.418 . S
Eu355 O367 2.384 . S
Eu355 O370 2.479 . S
Eu355 O371 2.471 . S
Eu355 O372 2.347 . S
Eu355 O375 2.366 . S
Eu355 C385 2.825 . S
C356 O372 1.259 . S
C356 O373 1.265 . S
C357 O374 1.255 . S
C357 O375 1.265 . S
C358 C360 1.380 . S
C358 C361 1.374 . S
C358 C364 1.507 . S
C359 C360 1.384 . S
C359 C363 1.387 . S
C359 H386 0.930 . S
C360 C358 1.380 . S
C360 C359 1.384 . S
C360 H387 0.931 . S
C361 C358 1.374 . S
C361 C362 1.390 . S
C361 H388 0.930 . S
C362 C361 1.390 . S
C362 C363 1.391 . S
C362 H389 0.930 . S
C363 C359 1.387 . S
C363 C362 1.391 . S
C364 Tb354 2.825 . S
C364 C358 1.507 . S
C364 O377 1.238 . S
C364 O378 1.247 . S
O365 Tb354 2.347 . S
O365 C369 1.259 . S
O366 Eu355 2.418 . S
O366 C369 1.265 . S
O367 Eu355 2.384 . S
O367 C376 1.255 . S
O368 Tb354 2.366 . S
O368 C376 1.265 . S
C369 O365 1.259 . S
C369 O366 1.265 . S
O370 Eu355 2.479 . S
O370 C385 1.238 . S
O371 Eu355 2.471 . S
O371 C385 1.247 . S
O372 Eu355 2.347 . S
O372 C356 1.259 . S
O373 Tb354 2.418 . S
O373 C356 1.265 . S
O374 Tb354 2.384 . S
O374 C357 1.255 . S
O375 Eu355 2.366 . S
O375 C357 1.265 . S
C376 O367 1.255 . S
C376 O368 1.265 . S
O377 Tb354 2.479 . S
O377 C364 1.238 . S
O378 Tb354 2.471 . S
O378 C364 1.247 . S
C379 C382 1.380 . S
C379 C383 1.374 . S
C379 C385 1.507 . S
C380 C381 1.387 . S
C380 C384 1.391 . S
C381 C380 1.387 . S
C381 C382 1.384 . S
C381 H390 0.930 . S
C382 C379 1.380 . S
C382 C381 1.384 . S
C382 H391 0.931 . S
C383 C379 1.374 . S
C383 C384 1.390 . S
C383 H392 0.930 . S
C384 C380 1.391 . S
C384 C383 1.390 . S
C384 H393 0.930 . S
C385 Eu355 2.825 . S
C385 O370 1.238 . S
C385 O371 1.247 . S
C385 C379 1.507 . S
H386 C359 0.930 . S
H387 C360 0.931 . S
H388 C361 0.930 . S
H389 C362 0.930 . S
H390 C381 0.930 . S
H391 C382 0.931 . S
H392 C383 0.930 . S
H393 C384 0.930 . S
Tb394 C404 2.825 . S
Tb394 O405 2.347 . S
Tb394 O408 2.366 . S
Tb394 O413 2.418 . S
Tb394 O414 2.384 . S
Tb394 O417 2.479 . S
Tb394 O418 2.471 . S
Eu395 O406 2.418 . S
Eu395 O407 2.384 . S
Eu395 O410 2.479 . S
Eu395 O411 2.471 . S
Eu395 O412 2.347 . S
Eu395 O415 2.366 . S
Eu395 C425 2.825 . S
C396 O412 1.259 . S
C396 O413 1.265 . S
C397 O414 1.255 . S
C397 O415 1.265 . S
C398 C400 1.380 . S
C398 C401 1.374 . S
C398 C404 1.507 . S
C399 C400 1.384 . S
C399 C403 1.387 . S
C399 H426 0.930 . S
C400 C398 1.380 . S
C400 C399 1.384 . S
C400 H427 0.931 . S
C401 C398 1.374 . S
C401 C402 1.390 . S
C401 H428 0.930 . S
C402 C401 1.390 . S
C402 C403 1.391 . S
C402 H429 0.930 . S
C403 C399 1.387 . S
C403 C402 1.391 . S
C404 Tb394 2.825 . S
C404 C398 1.507 . S
C404 O417 1.238 . S
C404 O418 1.247 . S
O405 Tb394 2.347 . S
O405 C409 1.259 . S
O406 Eu395 2.418 . S
O406 C409 1.265 . S
O407 Eu395 2.384 . S
O407 C416 1.255 . S
O408 Tb394 2.366 . S
O408 C416 1.265 . S
C409 O405 1.259 . S
C409 O406 1.265 . S
O410 Eu395 2.479 . S
O410 C425 1.238 . S
O411 Eu395 2.471 . S
O411 C425 1.247 . S
O412 Eu395 2.347 . S
O412 C396 1.259 . S
O413 Tb394 2.418 . S
O413 C396 1.265 . S
O414 Tb394 2.384 . S
O414 C397 1.255 . S
O415 Eu395 2.366 . S
O415 C397 1.265 . S
C416 O407 1.255 . S
C416 O408 1.265 . S
O417 Tb394 2.479 . S
O417 C404 1.238 . S
O418 Tb394 2.471 . S
O418 C404 1.247 . S
C419 C422 1.380 . S
C419 C423 1.374 . S
C419 C425 1.507 . S
C420 C421 1.387 . S
C420 C424 1.391 . S
C421 C420 1.387 . S
C421 C422 1.384 . S
C421 H430 0.930 . S
C422 C419 1.380 . S
C422 C421 1.384 . S
C422 H431 0.931 . S
C423 C419 1.374 . S
C423 C424 1.390 . S
C423 H432 0.930 . S
C424 C420 1.391 . S
C424 C423 1.390 . S
C424 H433 0.930 . S
C425 Eu395 2.825 . S
C425 O410 1.238 . S
C425 O411 1.247 . S
C425 C419 1.507 . S
H426 C399 0.930 . S
H427 C400 0.931 . S
H428 C401 0.930 . S
H429 C402 0.930 . S
H430 C421 0.930 . S
H431 C422 0.931 . S
H432 C423 0.930 . S
H433 C424 0.930 . S
Tb434 C444 2.825 . S
Tb434 O445 2.347 . S
Tb434 O448 2.366 . S
Tb434 O453 2.418 . S
Tb434 O454 2.384 . S
Tb434 O457 2.479 . S
Tb434 O458 2.471 . S
Eu435 O446 2.418 . S
Eu435 O447 2.384 . S
Eu435 O450 2.479 . S
Eu435 O451 2.471 . S
Eu435 O452 2.347 . S
Eu435 O455 2.366 . S
Eu435 C465 2.825 . S
C436 O452 1.259 . S
C436 O453 1.265 . S
C437 O454 1.255 . S
C437 O455 1.265 . S
C438 C440 1.380 . S
C438 C441 1.374 . S
C438 C444 1.507 . S
C439 C440 1.384 . S
C439 C443 1.387 . S
C439 H466 0.930 . S
C440 C438 1.380 . S
C440 C439 1.384 . S
C440 H467 0.931 . S
C441 C438 1.374 . S
C441 C442 1.390 . S
C441 H468 0.930 . S
C442 C441 1.390 . S
C442 C443 1.391 . S
C442 H469 0.930 . S
C443 C439 1.387 . S
C443 C442 1.391 . S
C444 Tb434 2.825 . S
C444 C438 1.507 . S
C444 O457 1.238 . S
C444 O458 1.247 . S
O445 Tb434 2.347 . S
O445 C449 1.259 . S
O446 Eu435 2.418 . S
O446 C449 1.265 . S
O447 Eu435 2.384 . S
O447 C456 1.255 . S
O448 Tb434 2.366 . S
O448 C456 1.265 . S
C449 O445 1.259 . S
C449 O446 1.265 . S
O450 Eu435 2.479 . S
O450 C465 1.238 . S
O451 Eu435 2.471 . S
O451 C465 1.247 . S
O452 Eu435 2.347 . S
O452 C436 1.259 . S
O453 Tb434 2.418 . S
O453 C436 1.265 . S
O454 Tb434 2.384 . S
O454 C437 1.255 . S
O455 Eu435 2.366 . S
O455 C437 1.265 . S
C456 O447 1.255 . S
C456 O448 1.265 . S
O457 Tb434 2.479 . S
O457 C444 1.238 . S
O458 Tb434 2.471 . S
O458 C444 1.247 . S
C459 C462 1.380 . S
C459 C463 1.374 . S
C459 C465 1.507 . S
C460 C461 1.387 . S
C460 C464 1.391 . S
C461 C460 1.387 . S
C461 C462 1.384 . S
C461 H470 0.930 . S
C462 C459 1.380 . S
C462 C461 1.384 . S
C462 H471 0.931 . S
C463 C459 1.374 . S
C463 C464 1.390 . S
C463 H472 0.930 . S
C464 C460 1.391 . S
C464 C463 1.390 . S
C464 H473 0.930 . S
C465 Eu435 2.825 . S
C465 O450 1.238 . S
C465 O451 1.247 . S
C465 C459 1.507 . S
H466 C439 0.930 . S
H467 C440 0.931 . S
H468 C441 0.930 . S
H469 C442 0.930 . S
H470 C461 0.930 . S
H471 C462 0.931 . S
H472 C463 0.930 . S
H473 C464 0.930 . S
Tb474 C484 2.825 . S
Tb474 O485 2.347 . S
Tb474 O488 2.366 . S
Tb474 O493 2.418 . S
Tb474 O494 2.384 . S
Tb474 O497 2.479 . S
Tb474 O498 2.471 . S
Eu475 O486 2.418 . S
Eu475 O487 2.384 . S
Eu475 O490 2.479 . S
Eu475 O491 2.471 . S
Eu475 O492 2.347 . S
Eu475 O495 2.366 . S
Eu475 C505 2.825 . S
C476 O492 1.259 . S
C476 O493 1.265 . S
C477 O494 1.255 . S
C477 O495 1.265 . S
C478 C480 1.380 . S
C478 C481 1.374 . S
C478 C484 1.507 . S
C479 C480 1.384 . S
C479 C483 1.387 . S
C479 H506 0.930 . S
C480 C478 1.380 . S
C480 C479 1.384 . S
C480 H507 0.931 . S
C481 C478 1.374 . S
C481 C482 1.390 . S
C481 H508 0.930 . S
C482 C481 1.390 . S
C482 C483 1.391 . S
C482 H509 0.930 . S
C483 C479 1.387 . S
C483 C482 1.391 . S
C484 Tb474 2.825 . S
C484 C478 1.507 . S
C484 O497 1.238 . S
C484 O498 1.247 . S
O485 Tb474 2.347 . S
O485 C489 1.259 . S
O486 Eu475 2.418 . S
O486 C489 1.265 . S
O487 Eu475 2.384 . S
O487 C496 1.255 . S
O488 Tb474 2.366 . S
O488 C496 1.265 . S
C489 O485 1.259 . S
C489 O486 1.265 . S
O490 Eu475 2.479 . S
O490 C505 1.238 . S
O491 Eu475 2.471 . S
O491 C505 1.247 . S
O492 Eu475 2.347 . S
O492 C476 1.259 . S
O493 Tb474 2.418 . S
O493 C476 1.265 . S
O494 Tb474 2.384 . S
O494 C477 1.255 . S
O495 Eu475 2.366 . S
O495 C477 1.265 . S
C496 O487 1.255 . S
C496 O488 1.265 . S
O497 Tb474 2.479 . S
O497 C484 1.238 . S
O498 Tb474 2.471 . S
O498 C484 1.247 . S
C499 C502 1.380 . S
C499 C503 1.374 . S
C499 C505 1.507 . S
C500 C501 1.387 . S
C500 C504 1.391 . S
C501 C500 1.387 . S
C501 C502 1.384 . S
C501 H510 0.930 . S
C502 C499 1.380 . S
C502 C501 1.384 . S
C502 H511 0.931 . S
C503 C499 1.374 . S
C503 C504 1.390 . S
C503 H512 0.930 . S
C504 C500 1.391 . S
C504 C503 1.390 . S
C504 H513 0.930 . S
C505 Eu475 2.825 . S
C505 O490 1.238 . S
C505 O491 1.247 . S
C505 C499 1.507 . S
H506 C479 0.930 . S
H507 C480 0.931 . S
H508 C481 0.930 . S
H509 C482 0.930 . S
H510 C501 0.930 . S
H511 C502 0.931 . S
H512 C503 0.930 . S
H513 C504 0.930 . S
Tb514 C524 2.825 . S
Tb514 O525 2.347 . S
Tb514 O528 2.366 . S
Tb514 O533 2.418 . S
Tb514 O534 2.384 . S
Tb514 O537 2.479 . S
Tb514 O538 2.471 . S
Eu515 O526 2.418 . S
Eu515 O527 2.384 . S
Eu515 O530 2.479 . S
Eu515 O531 2.471 . S
Eu515 O532 2.347 . S
Eu515 O535 2.366 . S
Eu515 C545 2.825 . S
C516 O532 1.259 . S
C516 O533 1.265 . S
C517 O534 1.255 . S
C517 O535 1.265 . S
C518 C520 1.380 . S
C518 C521 1.374 . S
C518 C524 1.507 . S
C519 C520 1.384 . S
C519 C523 1.387 . S
C519 H546 0.930 . S
C520 C518 1.380 . S
C520 C519 1.384 . S
C520 H547 0.931 . S
C521 C518 1.374 . S
C521 C522 1.390 . S
C521 H548 0.930 . S
C522 C521 1.390 . S
C522 C523 1.391 . S
C522 H549 0.930 . S
C523 C519 1.387 . S
C523 C522 1.391 . S
C524 Tb514 2.825 . S
C524 C518 1.507 . S
C524 O537 1.238 . S
C524 O538 1.247 . S
O525 Tb514 2.347 . S
O525 C529 1.259 . S
O526 Eu515 2.418 . S
O526 C529 1.265 . S
O527 Eu515 2.384 . S
O527 C536 1.255 . S
O528 Tb514 2.366 . S
O528 C536 1.265 . S
C529 O525 1.259 . S
C529 O526 1.265 . S
O530 Eu515 2.479 . S
O530 C545 1.238 . S
O531 Eu515 2.471 . S
O531 C545 1.247 . S
O532 Eu515 2.347 . S
O532 C516 1.259 . S
O533 Tb514 2.418 . S
O533 C516 1.265 . S
O534 Tb514 2.384 . S
O534 C517 1.255 . S
O535 Eu515 2.366 . S
O535 C517 1.265 . S
C536 O527 1.255 . S
C536 O528 1.265 . S
O537 Tb514 2.479 . S
O537 C524 1.238 . S
O538 Tb514 2.471 . S
O538 C524 1.247 . S
C539 C542 1.380 . S
C539 C543 1.374 . S
C539 C545 1.507 . S
C540 C541 1.387 . S
C540 C544 1.391 . S
C541 C540 1.387 . S
C541 C542 1.384 . S
C541 H550 0.930 . S
C542 C539 1.380 . S
C542 C541 1.384 . S
C542 H551 0.931 . S
C543 C539 1.374 . S
C543 C544 1.390 . S
C543 H552 0.930 . S
C544 C540 1.391 . S
C544 C543 1.390 . S
C544 H553 0.930 . S
C545 Eu515 2.825 . S
C545 O530 1.238 . S
C545 O531 1.247 . S
C545 C539 1.507 . S
H546 C519 0.930 . S
H547 C520 0.931 . S
H548 C521 0.930 . S
H549 C522 0.930 . S
H550 C541 0.930 . S
H551 C542 0.931 . S
H552 C543 0.930 . S
H553 C544 0.930 . S
Tb554 C564 2.825 . S
Tb554 O565 2.347 . S
Tb554 O568 2.366 . S
Tb554 O573 2.418 . S
Tb554 O574 2.384 . S
Tb554 O577 2.479 . S
Tb554 O578 2.471 . S
Eu555 O566 2.418 . S
Eu555 O567 2.384 . S
Eu555 O570 2.479 . S
Eu555 O571 2.471 . S
Eu555 O572 2.347 . S
Eu555 O575 2.366 . S
Eu555 C585 2.825 . S
C556 O572 1.259 . S
C556 O573 1.265 . S
C557 O574 1.255 . S
C557 O575 1.265 . S
C558 C560 1.380 . S
C558 C561 1.374 . S
C558 C564 1.507 . S
C559 C560 1.384 . S
C559 C563 1.387 . S
C559 H586 0.930 . S
C560 C558 1.380 . S
C560 C559 1.384 . S
C560 H587 0.931 . S
C561 C558 1.374 . S
C561 C562 1.390 . S
C561 H588 0.930 . S
C562 C561 1.390 . S
C562 C563 1.391 . S
C562 H589 0.930 . S
C563 C559 1.387 . S
C563 C562 1.391 . S
C564 Tb554 2.825 . S
C564 C558 1.507 . S
C564 O577 1.238 . S
C564 O578 1.247 . S
O565 Tb554 2.347 . S
O565 C569 1.259 . S
O566 Eu555 2.418 . S
O566 C569 1.265 . S
O567 Eu555 2.384 . S
O567 C576 1.255 . S
O568 Tb554 2.366 . S
O568 C576 1.265 . S
C569 O565 1.259 . S
C569 O566 1.265 . S
O570 Eu555 2.479 . S
O570 C585 1.238 . S
O571 Eu555 2.471 . S
O571 C585 1.247 . S
O572 Eu555 2.347 . S
O572 C556 1.259 . S
O573 Tb554 2.418 . S
O573 C556 1.265 . S
O574 Tb554 2.384 . S
O574 C557 1.255 . S
O575 Eu555 2.366 . S
O575 C557 1.265 . S
C576 O567 1.255 . S
C576 O568 1.265 . S
O577 Tb554 2.479 . S
O577 C564 1.238 . S
O578 Tb554 2.471 . S
O578 C564 1.247 . S
C579 C582 1.380 . S
C579 C583 1.374 . S
C579 C585 1.507 . S
C580 C581 1.387 . S
C580 C584 1.391 . S
C581 C580 1.387 . S
C581 C582 1.384 . S
C581 H590 0.930 . S
C582 C579 1.380 . S
C582 C581 1.384 . S
C582 H591 0.931 . S
C583 C579 1.374 . S
C583 C584 1.390 . S
C583 H592 0.930 . S
C584 C580 1.391 . S
C584 C583 1.390 . S
C584 H593 0.930 . S
C585 Eu555 2.825 . S
C585 O570 1.238 . S
C585 O571 1.247 . S
C585 C579 1.507 . S
H586 C559 0.930 . S
H587 C560 0.931 . S
H588 C561 0.930 . S
H589 C562 0.930 . S
H590 C581 0.930 . S
H591 C582 0.931 . S
H592 C583 0.930 . S
H593 C584 0.930 . S
H594 C612 0.951 . S
H595 C614 0.951 . S
H596 C616 0.950 . S
H597 C617 0.950 . S
H598 C619 0.950 . S
H599 C622 0.950 . S
H600 C623 0.950 . S
H601 C625 0.950 . S
H602 C626 0.950 . S
H603 C627 0.951 . S
H604 C629 0.951 . S
H605 C631 0.950 . S
H606 C632 0.950 . S
H607 C634 0.950 . S
H608 C637 0.950 . S
H609 C638 0.950 . S
H610 C640 0.950 . S
H611 C641 0.950 . S
C612 H594 0.951 . S
C612 C613 1.366 . S
C612 C614 1.388 . S
C613 C612 1.366 . S
C613 C617 1.385 . S
C614 H595 0.951 . S
C614 C612 1.388 . S
C614 C615 1.366 . S
C615 C614 1.366 . S
C615 C616 1.414 . S
C615 C618 1.499 . S
C616 H596 0.950 . S
C616 C615 1.414 . S
C616 C617 1.374 . S
C617 H597 0.950 . S
C617 C613 1.385 . S
C617 C616 1.374 . S
C618 C615 1.499 . S
C618 C619 1.373 . S
C618 C620 1.389 . S
C619 H598 0.950 . S
C619 C618 1.373 . S
C619 C635 1.377 . S
C620 C618 1.389 . S
C620 C621 1.524 . S
C620 C634 1.377 . S
C621 C620 1.524 . S
C621 C622 1.397 . S
C621 C626 1.363 . S
C622 H599 0.950 . S
C622 C621 1.397 . S
C622 C623 1.334 1_554 S
C623 H600 0.950 . S
C623 C622 1.334 1_556 S
C623 C624 1.287 . S
C624 C623 1.287 . S
C624 C625 1.524 . S
C624 H643 0.913 . S
C625 H601 0.950 . S
C625 C624 1.524 . S
C625 C626 1.415 1_556 S
C626 H602 0.950 . S
C626 C621 1.363 . S
C626 C625 1.415 1_554 S
C627 H603 0.951 . S
C627 C628 1.366 . S
C627 C629 1.388 . S
C628 C627 1.366 . S
C628 C632 1.385 . S
C629 H604 0.951 . S
C629 C627 1.388 . S
C629 C630 1.366 . S
C630 C629 1.366 . S
C630 C631 1.414 . S
C630 C633 1.499 . S
C631 H605 0.950 . S
C631 C630 1.414 . S
C631 C632 1.374 . S
C632 H606 0.950 . S
C632 C628 1.385 . S
C632 C631 1.374 . S
C633 C630 1.499 . S
C633 C634 1.373 . S
C633 C635 1.389 . S
C634 H607 0.950 . S
C634 C620 1.377 . S
C634 C633 1.373 . S
C635 C619 1.377 . S
C635 C633 1.389 . S
C635 C636 1.524 . S
C636 C635 1.524 . S
C636 C637 1.397 . S
C636 C641 1.363 . S
C637 H608 0.950 . S
C637 C636 1.397 . S
C637 C638 1.334 . S
C638 H609 0.950 . S
C638 C637 1.334 . S
C638 C639 1.287 . S
C639 C638 1.287 . S
C639 C640 1.524 . S
C639 H642 0.999 . S
C640 H610 0.950 . S
C640 C639 1.524 . S
C640 C641 1.415 . S
C641 H611 0.950 . S
C641 C636 1.363 . S
C641 C640 1.415 . S
H642 C639 0.999 . S
H643 C624 0.913 . S
H644 C662 0.951 . S
H645 C664 0.951 . S
H646 C666 0.950 . S
H647 C667 0.950 . S
H648 C669 0.950 . S
H649 C672 0.950 . S
H650 C673 0.950 . S
H651 C675 0.950 . S
H652 C676 0.950 . S
H653 C677 0.951 . S
H654 C679 0.951 . S
H655 C681 0.950 . S
H656 C682 0.950 . S
H657 C684 0.950 . S
H658 C687 0.950 . S
H659 C688 0.950 . S
H660 C690 0.950 . S
H661 C691 0.950 . S
C662 H644 0.951 . S
C662 C663 1.366 . S
C662 C664 1.388 . S
C663 C662 1.366 . S
C663 C667 1.385 . S
C664 H645 0.951 . S
C664 C662 1.388 . S
C664 C665 1.366 . S
C665 C664 1.366 . S
C665 C666 1.414 . S
C665 C668 1.499 . S
C666 H646 0.950 . S
C666 C665 1.414 . S
C666 C667 1.374 . S
C667 H647 0.950 . S
C667 C663 1.385 . S
C667 C666 1.374 . S
C668 C665 1.499 . S
C668 C669 1.373 . S
C668 C670 1.389 . S
C669 H648 0.950 . S
C669 C668 1.373 . S
C669 C685 1.377 . S
C670 C668 1.389 . S
C670 C671 1.524 . S
C670 C684 1.377 . S
C671 C670 1.524 . S
C671 C672 1.397 . S
C671 C676 1.363 . S
C672 H649 0.950 . S
C672 C671 1.397 . S
C672 C673 1.334 . S
C673 H650 0.950 . S
C673 C672 1.334 . S
C673 C674 1.287 . S
C674 C673 1.287 . S
C674 C675 1.524 . S
C674 H693 0.913 . S
C675 H651 0.950 . S
C675 C674 1.524 . S
C675 C676 1.415 . S
C676 H652 0.950 . S
C676 C671 1.363 . S
C676 C675 1.415 . S
C677 H653 0.951 . S
C677 C678 1.366 . S
C677 C679 1.388 . S
C678 C677 1.366 . S
C678 C682 1.385 . S
C679 H654 0.951 . S
C679 C677 1.388 . S
C679 C680 1.366 . S
C680 C679 1.366 . S
C680 C681 1.414 . S
C680 C683 1.499 . S
C681 H655 0.950 . S
C681 C680 1.414 . S
C681 C682 1.374 . S
C682 H656 0.950 . S
C682 C678 1.385 . S
C682 C681 1.374 . S
C683 C680 1.499 . S
C683 C684 1.373 . S
C683 C685 1.389 . S
C684 H657 0.950 . S
C684 C670 1.377 . S
C684 C683 1.373 . S
C685 C669 1.377 . S
C685 C683 1.389 . S
C685 C686 1.524 . S
C686 C685 1.524 . S
C686 C687 1.397 . S
C686 C691 1.363 . S
C687 H658 0.950 . S
C687 C686 1.397 . S
C687 C688 1.334 . S
C688 H659 0.950 . S
C688 C687 1.334 . S
C688 C689 1.287 . S
C689 C688 1.287 . S
C689 C690 1.524 . S
C689 H692 0.999 . S
C690 H660 0.950 . S
C690 C689 1.524 . S
C690 C691 1.415 . S
C691 H661 0.950 . S
C691 C686 1.363 . S
C691 C690 1.415 . S
H692 C689 0.999 . S
H693 C674 0.913 . S
H694 C712 0.951 . S
H695 C714 0.951 . S
H696 C716 0.950 . S
H697 C717 0.950 . S
H698 C719 0.950 . S
H699 C722 0.950 . S
H700 C723 0.950 . S
H701 C725 0.950 . S
H702 C726 0.950 . S
H703 C727 0.951 . S
H704 C729 0.951 . S
H705 C731 0.950 . S
H706 C732 0.950 . S
H707 C734 0.950 . S
H708 C737 0.950 . S
H709 C738 0.950 . S
H710 C740 0.950 . S
H711 C741 0.950 . S
C712 H694 0.951 . S
C712 C713 1.366 . S
C712 C714 1.388 . S
C713 C712 1.366 . S
C713 C717 1.385 . S
C714 H695 0.951 . S
C714 C712 1.388 . S
C714 C715 1.366 . S
C715 C714 1.366 . S
C715 C716 1.414 . S
C715 C718 1.499 . S
C716 H696 0.950 . S
C716 C715 1.414 . S
C716 C717 1.374 . S
C717 H697 0.950 . S
C717 C713 1.385 . S
C717 C716 1.374 . S
C718 C715 1.499 . S
C718 C719 1.373 . S
C718 C720 1.389 . S
C719 H698 0.950 . S
C719 C718 1.373 . S
C719 C735 1.377 . S
C720 C718 1.389 . S
C720 C721 1.524 . S
C720 C734 1.377 . S
C721 C720 1.524 . S
C721 C722 1.397 . S
C721 C726 1.363 . S
C722 H699 0.950 . S
C722 C721 1.397 . S
C722 C723 1.334 . S
C723 H700 0.950 . S
C723 C722 1.334 . S
C723 C724 1.287 . S
C724 C723 1.287 . S
C724 C725 1.524 . S
C724 H743 0.913 . S
C725 H701 0.950 . S
C725 C724 1.524 . S
C725 C726 1.415 . S
C726 H702 0.950 . S
C726 C721 1.363 . S
C726 C725 1.415 . S
C727 H703 0.951 . S
C727 C728 1.366 . S
C727 C729 1.388 . S
C728 C727 1.366 . S
C728 C732 1.385 . S
C729 H704 0.951 . S
C729 C727 1.388 . S
C729 C730 1.366 . S
C730 C729 1.366 . S
C730 C731 1.414 . S
C730 C733 1.499 . S
C731 H705 0.950 . S
C731 C730 1.414 . S
C731 C732 1.374 . S
C732 H706 0.950 . S
C732 C728 1.385 . S
C732 C731 1.374 . S
C733 C730 1.499 . S
C733 C734 1.373 . S
C733 C735 1.389 . S
C734 H707 0.950 . S
C734 C720 1.377 . S
C734 C733 1.373 . S
C735 C719 1.377 . S
C735 C733 1.389 . S
C735 C736 1.524 . S
C736 C735 1.524 . S
C736 C737 1.397 1_554 S
C736 C741 1.363 . S
C737 H708 0.950 . S
C737 C736 1.397 1_556 S
C737 C738 1.334 . S
C738 H709 0.950 . S
C738 C737 1.334 . S
C738 C739 1.287 . S
C739 C738 1.287 . S
C739 C740 1.524 . S
C739 H742 0.999 . S
C740 H710 0.950 . S
C740 C739 1.524 . S
C740 C741 1.415 1_556 S
C741 H711 0.950 . S
C741 C736 1.363 . S
C741 C740 1.415 1_554 S
H742 C739 0.999 . S
H743 C724 0.913 . S
H744 C762 0.951 . S
H745 C764 0.951 . S
H746 C766 0.950 . S
H747 C767 0.950 . S
H748 C769 0.961 . S
H749 C772 0.950 . S
H750 C773 0.950 . S
H751 C775 0.950 . S
H752 C776 0.950 . S
H753 C777 0.951 . S
H754 C779 0.951 . S
H755 C781 0.950 . S
H756 C782 0.950 . S
H757 C784 0.950 . S
H758 C787 0.950 1_556 S
H759 C788 0.950 . S
H760 C790 0.950 . S
H761 C791 0.950 . S
C762 H744 0.951 . S
C762 C763 1.366 . S
C762 C764 1.388 . S
C763 C762 1.366 . S
C763 C767 1.385 . S
C764 H745 0.951 . S
C764 C762 1.388 . S
C764 C765 1.366 . S
C765 C764 1.366 . S
C765 C766 1.414 . S
C765 C768 1.499 . S
C766 H746 0.950 . S
C766 C765 1.414 . S
C766 C767 1.374 . S
C767 H747 0.950 . S
C767 C763 1.385 . S
C767 C766 1.374 . S
C768 C765 1.499 . S
C768 C769 1.373 . S
C768 C770 1.389 . S
C769 H748 0.961 . S
C769 C768 1.373 . S
C769 C785 1.377 . S
C770 C768 1.389 . S
C770 C771 1.524 . S
C770 C784 1.377 . S
C771 C770 1.524 . S
C771 C772 1.397 . S
C771 C776 1.363 . S
C772 H749 0.950 . S
C772 C771 1.397 . S
C772 C773 1.334 . S
C773 H750 0.950 . S
C773 C772 1.334 . S
C773 C774 1.287 . S
C774 C773 1.287 . S
C774 C775 1.524 . S
C774 H793 0.913 . S
C775 H751 0.950 . S
C775 C774 1.524 . S
C775 C776 1.415 . S
C776 H752 0.950 . S
C776 C771 1.363 . S
C776 C775 1.415 . S
C777 H753 0.951 . S
C777 C778 1.342 1_554 S
C777 C779 1.388 . S
C778 C777 1.342 1_556 S
C778 C782 1.413 . S
C779 H754 0.951 . S
C779 C777 1.388 . S
C779 C780 1.366 1_554 S
C780 C779 1.366 1_556 S
C780 C781 1.414 . S
C780 C783 1.499 . S
C781 H755 0.950 . S
C781 C780 1.414 . S
C781 C782 1.374 . S
C782 H756 0.950 . S
C782 C778 1.413 . S
C782 C781 1.374 . S
C783 C780 1.499 . S
C783 C784 1.373 . S
C783 C785 1.389 . S
C784 H757 0.950 . S
C784 C770 1.377 . S
C784 C783 1.373 . S
C785 C769 1.377 . S
C785 C783 1.389 . S
C785 C786 1.524 1_556 S
C786 C785 1.524 1_554 S
C786 C787 1.397 . S
C786 C791 1.363 . S
C787 H758 0.950 1_554 S
C787 C786 1.397 . S
C787 C788 1.334 . S
C788 H759 0.950 . S
C788 C787 1.334 . S
C788 C789 1.287 . S
C789 C788 1.287 . S
C789 C790 1.524 . S
C789 H792 0.999 . S
C790 H760 0.950 . S
C790 C789 1.524 . S
C790 C791 1.415 . S
C791 H761 0.950 . S
C791 C786 1.363 . S
C791 C790 1.415 . S
H792 C789 0.999 . S
H793 C774 0.913 . S
H794 C812 0.951 . S
H795 C814 0.951 . S
H796 C816 0.950 . S
H797 C817 0.950 . S
H798 C819 0.950 . S
H799 C822 0.950 . S
H800 C823 0.950 . S
H801 C825 0.950 . S
H802 C826 0.950 . S
H803 C827 0.951 . S
H804 C829 0.963 . S
H805 C831 0.950 . S
H806 C832 0.950 . S
H807 C834 0.950 . S
H808 C837 0.950 . S
H809 C838 0.950 . S
H810 C840 0.950 . S
H811 C841 0.950 . S
C812 H794 0.951 . S
C812 C813 1.366 . S
C812 C814 1.388 . S
C813 C812 1.366 . S
C813 C817 1.385 . S
C814 H795 0.951 . S
C814 C812 1.388 . S
C814 C815 1.366 . S
C815 C814 1.366 . S
C815 C816 1.414 . S
C815 C818 1.499 . S
C816 H796 0.950 . S
C816 C815 1.414 . S
C816 C817 1.374 . S
C817 H797 0.950 . S
C817 C813 1.385 . S
C817 C816 1.374 . S
C818 C815 1.499 . S
C818 C819 1.373 . S
C818 C820 1.389 . S
C819 H798 0.950 . S
C819 C818 1.373 . S
C819 C835 1.377 . S
C820 C818 1.389 . S
C820 C821 1.524 . S
C820 C834 1.377 . S
C821 C820 1.524 . S
C821 C822 1.397 . S
C821 C826 1.363 . S
C822 H799 0.950 . S
C822 C821 1.397 . S
C822 C823 1.334 . S
C823 H800 0.950 . S
C823 C822 1.334 . S
C823 C824 1.287 . S
C824 C823 1.287 . S
C824 C825 1.524 . S
C824 H843 0.913 . S
C825 H801 0.950 . S
C825 C824 1.524 . S
C825 C826 1.415 . S
C826 H802 0.950 . S
C826 C821 1.363 . S
C826 C825 1.415 . S
C827 H803 0.951 . S
C827 C828 1.366 1_554 S
C827 C829 1.397 . S
C828 C827 1.366 1_556 S
C828 C832 1.385 . S
C829 H804 0.963 . S
C829 C827 1.397 . S
C829 C830 1.344 1_554 S
C830 C829 1.344 1_556 S
C830 C831 1.414 . S
C830 C833 1.499 . S
C831 H805 0.950 . S
C831 C830 1.414 . S
C831 C832 1.374 . S
C832 H806 0.950 . S
C832 C828 1.385 . S
C832 C831 1.374 . S
C833 C830 1.499 . S
C833 C834 1.373 . S
C833 C835 1.389 . S
C834 H807 0.950 . S
C834 C820 1.377 . S
C834 C833 1.373 . S
C835 C819 1.377 . S
C835 C833 1.389 . S
C835 C836 1.524 . S
C836 C835 1.524 . S
C836 C837 1.397 . S
C836 C841 1.363 1_556 S
C837 H808 0.950 . S
C837 C836 1.397 . S
C837 C838 1.334 . S
C838 H809 0.950 . S
C838 C837 1.334 . S
C838 C839 1.287 1_556 S
C839 C838 1.287 1_554 S
C839 C840 1.524 . S
C839 H842 0.999 . S
C840 H810 0.950 . S
C840 C839 1.524 . S
C840 C841 1.415 . S
C841 H811 0.950 . S
C841 C836 1.363 1_554 S
C841 C840 1.415 . S
H842 C839 0.999 . S
H843 C824 0.913 . S
H844 C862 0.951 . S
H845 C864 0.951 . S
H846 C866 0.950 . S
H847 C867 0.950 . S
H848 C869 0.950 . S
H849 C872 0.950 . S
H850 C873 0.950 . S
H851 C875 0.950 . S
H852 C876 0.950 . S
H853 C877 0.951 . S
H854 C879 0.951 . S
H855 C881 0.950 . S
H856 C882 0.950 . S
H857 C884 0.997 . S
H858 C887 0.950 . S
H859 C888 0.950 . S
H860 C890 0.950 . S
H861 C891 0.950 . S
C862 H844 0.951 . S
C862 C863 1.366 . S
C862 C864 1.388 . S
C863 C862 1.366 . S
C863 C867 1.385 . S
C864 H845 0.951 . S
C864 C862 1.388 . S
C864 C865 1.366 . S
C865 C864 1.366 . S
C865 C866 1.414 . S
C865 C868 1.499 . S
C866 H846 0.950 . S
C866 C865 1.414 . S
C866 C867 1.374 . S
C867 H847 0.950 . S
C867 C863 1.385 . S
C867 C866 1.374 . S
C868 C865 1.499 . S
C868 C869 1.373 . S
C868 C870 1.389 . S
C869 H848 0.950 . S
C869 C868 1.373 . S
C869 C885 1.377 . S
C870 C868 1.389 . S
C870 C871 1.524 1_556 S
C870 C884 1.367 1_556 S
C871 C870 1.524 1_554 S
C871 C872 1.397 . S
C871 C876 1.363 . S
C872 H849 0.950 . S
C872 C871 1.397 . S
C872 C873 1.334 . S
C873 H850 0.950 . S
C873 C872 1.334 . S
C873 C874 1.287 . S
C874 C873 1.287 . S
C874 C875 1.524 . S
C874 H893 0.913 . S
C875 H851 0.950 . S
C875 C874 1.524 . S
C875 C876 1.415 . S
C876 H852 0.950 . S
C876 C871 1.363 . S
C876 C875 1.415 . S
C877 H853 0.951 . S
C877 C878 1.366 . S
C877 C879 1.388 . S
C878 C877 1.366 . S
C878 C882 1.377 1_554 S
C879 H854 0.951 . S
C879 C877 1.388 . S
C879 C880 1.366 1_554 S
C880 C879 1.366 1_556 S
C880 C881 1.414 . S
C880 C883 1.499 . S
C881 H855 0.950 . S
C881 C880 1.414 . S
C881 C882 1.383 . S
C882 H856 0.950 . S
C882 C878 1.377 1_556 S
C882 C881 1.383 . S
C883 C880 1.499 . S
C883 C884 1.340 1_556 S
C883 C885 1.389 . S
C884 H857 0.997 . S
C884 C870 1.367 1_554 S
C884 C883 1.340 1_554 S
C885 C869 1.377 . S
C885 C883 1.389 . S
C885 C886 1.524 . S
C886 C885 1.524 . S
C886 C887 1.397 . S
C886 C891 1.363 . S
C887 H858 0.950 . S
C887 C886 1.397 . S
C887 C888 1.334 . S
C888 H859 0.950 . S
C888 C887 1.334 . S
C888 C889 1.287 . S
C889 C888 1.287 . S
C889 C890 1.524 . S
C889 H892 0.999 . S
C890 H860 0.950 . S
C890 C889 1.524 . S
C890 C891 1.415 . S
C891 H861 0.950 . S
C891 C886 1.363 . S
C891 C890 1.415 . S
H892 C889 0.999 . S
H893 C874 0.913 . S
H894 C912 0.951 . S
H895 C914 0.951 . S
H896 C916 0.950 . S
H897 C917 0.950 . S
H898 C919 0.950 . S
H899 C922 0.950 . S
H900 C923 0.950 . S
H901 C925 0.950 . S
H902 C926 0.950 . S
H903 C927 0.951 . S
H904 C929 0.951 . S
H905 C931 0.962 . S
H906 C932 0.950 . S
H907 C934 0.950 . S
H908 C937 0.950 . S
H909 C938 0.950 . S
H910 C940 0.950 . S
H911 C941 0.950 . S
C912 H894 0.951 . S
C912 C913 1.366 . S
C912 C914 1.388 . S
C913 C912 1.366 . S
C913 C917 1.385 . S
C914 H895 0.951 . S
C914 C912 1.388 . S
C914 C915 1.366 . S
C915 C914 1.366 . S
C915 C916 1.414 . S
C915 C918 1.499 . S
C916 H896 0.950 . S
C916 C915 1.414 . S
C916 C917 1.374 . S
C917 H897 0.950 . S
C917 C913 1.385 . S
C917 C916 1.374 . S
C918 C915 1.499 . S
C918 C919 1.373 . S
C918 C920 1.389 . S
C919 H898 0.950 . S
C919 C918 1.373 . S
C919 C935 1.377 . S
C920 C918 1.389 . S
C920 C921 1.524 . S
C920 C934 1.377 . S
C921 C920 1.524 . S
C921 C922 1.397 . S
C921 C926 1.363 . S
C922 H899 0.950 . S
C922 C921 1.397 . S
C922 C923 1.334 . S
C923 H900 0.950 . S
C923 C922 1.334 . S
C923 C924 1.287 . S
C924 C923 1.287 . S
C924 C925 1.524 . S
C924 H943 0.913 . S
C925 H901 0.950 . S
C925 C924 1.524 . S
C925 C926 1.415 . S
C926 H902 0.950 . S
C926 C921 1.363 . S
C926 C925 1.415 . S
C927 H903 0.951 . S
C927 C928 1.366 . S
C927 C929 1.388 . S
C928 C927 1.366 . S
C928 C932 1.385 1_556 S
C929 H904 0.951 . S
C929 C927 1.388 . S
C929 C930 1.366 . S
C930 C929 1.366 . S
C930 C931 1.394 1_556 S
C930 C933 1.499 . S
C931 H905 0.962 . S
C931 C930 1.394 1_554 S
C931 C932 1.383 . S
C932 H906 0.950 . S
C932 C928 1.385 1_554 S
C932 C931 1.383 . S
C933 C930 1.499 . S
C933 C934 1.373 . S
C933 C935 1.389 . S
C934 H907 0.950 . S
C934 C920 1.377 . S
C934 C933 1.373 . S
C935 C919 1.377 . S
C935 C933 1.389 . S
C935 C936 1.524 . S
C936 C935 1.524 . S
C936 C937 1.397 1_556 S
C936 C941 1.363 . S
C937 H908 0.950 . S
C937 C936 1.397 1_554 S
C937 C938 1.334 . S
C938 H909 0.950 . S
C938 C937 1.334 . S
C938 C939 1.287 . S
C939 C938 1.287 . S
C939 C940 1.524 1_554 S
C939 H942 0.999 . S
C940 H910 0.950 . S
C940 C939 1.524 1_556 S
C940 C941 1.415 . S
C941 H911 0.950 . S
C941 C936 1.363 . S
C941 C940 1.415 . S
H942 C939 0.999 . S
H943 C924 0.913 . S
H944 C962 0.951 . S
H945 C964 0.951 . S
H946 C966 0.950 . S
H947 C967 0.950 . S
H948 C969 0.950 . S
H949 C972 0.950 . S
H950 C973 0.961 . S
H951 C975 0.950 . S
H952 C976 0.950 . S
H953 C977 0.951 . S
H954 C979 0.951 . S
H955 C981 0.950 1_554 S
H956 C982 0.906 1_554 S
H957 C984 0.950 . S
H958 C987 0.950 . S
H959 C988 0.950 . S
H960 C990 0.950 . S
H961 C991 0.950 . S
C962 H944 0.951 . S
C962 C963 1.366 . S
C962 C964 1.388 . S
C963 C962 1.366 . S
C963 C967 1.385 . S
C964 H945 0.951 . S
C964 C962 1.388 . S
C964 C965 1.366 . S
C965 C964 1.366 . S
C965 C966 1.414 . S
C965 C968 1.499 . S
C966 H946 0.950 . S
C966 C965 1.414 . S
C966 C967 1.374 . S
C967 H947 0.950 . S
C967 C963 1.385 . S
C967 C966 1.374 . S
C968 C965 1.499 . S
C968 C969 1.373 . S
C968 C970 1.389 . S
C969 H948 0.950 . S
C969 C968 1.373 . S
C969 C985 1.377 . S
C970 C968 1.389 . S
C970 C971 1.524 . S
C970 C984 1.377 . S
C971 C970 1.524 . S
C971 C972 1.397 . S
C971 C976 1.363 1_556 S
C972 H949 0.950 . S
C972 C971 1.397 . S
C972 C973 1.334 1_556 S
C973 H950 0.961 . S
C973 C972 1.334 1_554 S
C973 C974 1.287 . S
C974 C973 1.287 . S
C974 C975 1.524 . S
C974 H993 0.913 . S
C975 H951 0.950 . S
C975 C974 1.524 . S
C975 C976 1.415 . S
C976 H952 0.950 . S
C976 C971 1.363 1_554 S
C976 C975 1.415 . S
C977 H953 0.951 . S
C977 C978 1.366 . S
C977 C979 1.388 . S
C978 C977 1.366 . S
C978 C982 1.417 . S
C979 H954 0.951 . S
C979 C977 1.388 . S
C979 C980 1.366 . S
C980 C979 1.366 . S
C980 C981 1.414 . S
C980 C983 1.499 . S
C981 H955 0.950 1_556 S
C981 C980 1.414 . S
C981 C982 1.386 . S
C982 H956 0.906 1_556 S
C982 C978 1.417 . S
C982 C981 1.386 . S
C983 C980 1.499 . S
C983 C984 1.373 . S
C983 C985 1.389 . S
C984 H957 0.950 . S
C984 C970 1.377 . S
C984 C983 1.373 . S
C985 C969 1.377 . S
C985 C983 1.389 . S
C985 C986 1.524 . S
C986 C985 1.524 . S
C986 C987 1.397 . S
C986 C991 1.363 . S
C987 H958 0.950 . S
C987 C986 1.397 . S
C987 C988 1.334 . S
C988 H959 0.950 . S
C988 C987 1.334 . S
C988 C989 1.287 . S
C989 C988 1.287 . S
C989 C990 1.524 . S
C989 H992 0.999 . S
C990 H960 0.950 . S
C990 C989 1.524 . S
C990 C991 1.415 . S
C991 H961 0.950 . S
C991 C986 1.363 . S
C991 C990 1.415 . S
H992 C989 0.999 . S
H993 C974 0.913 . S
H994 C1012 0.984 . S
H995 C1014 0.951 . S
H996 C1016 0.950 . S
H997 C1017 0.950 . S
H998 C1019 0.950 . S
H999 C1022 0.950 . S
H1000 C1023 0.950 . S
H1001 C1025 0.950 . S
H1002 C1026 0.950 . S
H1003 C1027 0.951 . S
H1004 C1029 0.951 . S
H1005 C1031 0.950 . S
H1006 C1032 0.950 . S
H1007 C1034 0.950 . S
H1008 C1037 0.950 . S
H1009 C1038 0.950 . S
H1010 C1040 0.950 . S
H1011 C1041 0.950 . S
C1012 H994 0.984 . S
C1012 C1013 1.332 1_554 S
C1012 C1014 1.391 . S
C1013 C1012 1.332 1_556 S
C1013 C1017 1.385 . S
C1014 H995 0.951 . S
C1014 C1012 1.391 . S
C1014 C1015 1.366 1_554 S
C1015 C1014 1.366 1_556 S
C1015 C1016 1.414 . S
C1015 C1018 1.499 . S
C1016 H996 0.950 . S
C1016 C1015 1.414 . S
C1016 C1017 1.374 . S
C1017 H997 0.950 . S
C1017 C1013 1.385 . S
C1017 C1016 1.374 . S
C1018 C1015 1.499 . S
C1018 C1019 1.373 . S
C1018 C1020 1.389 1_556 S
C1019 H998 0.950 . S
C1019 C1018 1.373 . S
C1019 C1035 1.377 . S
C1020 C1018 1.389 1_554 S
C1020 C1021 1.524 . S
C1020 C1034 1.377 . S
C1021 C1020 1.524 . S
C1021 C1022 1.397 . S
C1021 C1026 1.363 . S
C1022 H999 0.950 . S
C1022 C1021 1.397 . S
C1022 C1023 1.334 . S
C1023 H1000 0.950 . S
C1023 C1022 1.334 . S
C1023 C1024 1.287 . S
C1024 C1023 1.287 . S
C1024 C1025 1.524 . S
C1024 H1043 0.913 . S
C1025 H1001 0.950 . S
C1025 C1024 1.524 . S
C1025 C1026 1.415 . S
C1026 H1002 0.950 . S
C1026 C1021 1.363 . S
C1026 C1025 1.415 . S
C1027 H1003 0.951 . S
C1027 C1028 1.366 1_556 S
C1027 C1029 1.388 . S
C1028 C1027 1.366 1_554 S
C1028 C1032 1.385 . S
C1029 H1004 0.951 . S
C1029 C1027 1.388 . S
C1029 C1030 1.366 1_556 S
C1030 C1029 1.366 1_554 S
C1030 C1031 1.414 . S
C1030 C1033 1.498 1_554 S
C1031 H1005 0.950 . S
C1031 C1030 1.414 . S
C1031 C1032 1.374 . S
C1032 H1006 0.950 . S
C1032 C1028 1.385 . S
C1032 C1031 1.374 . S
C1033 C1030 1.498 1_556 S
C1033 C1034 1.364 1_556 S
C1033 C1035 1.399 . S
C1034 H1007 0.950 . S
C1034 C1020 1.377 . S
C1034 C1033 1.364 1_554 S
C1035 C1019 1.377 . S
C1035 C1033 1.399 . S
C1035 C1036 1.524 . S
C1036 C1035 1.524 . S
C1036 C1037 1.397 . S
C1036 C1041 1.363 . S
C1037 H1008 0.950 . S
C1037 C1036 1.397 . S
C1037 C1038 1.334 . S
C1038 H1009 0.950 . S
C1038 C1037 1.334 . S
C1038 C1039 1.287 . S
C1039 C1038 1.287 . S
C1039 C1040 1.524 . S
C1039 H1042 0.999 . S
C1040 H1010 0.950 . S
C1040 C1039 1.524 . S
C1040 C1041 1.415 . S
C1041 H1011 0.950 . S
C1041 C1036 1.363 . S
C1041 C1040 1.415 . S
H1042 C1039 0.999 . S
H1043 C1024 0.913 . S
H1044 C1062 0.951 . S
H1045 C1064 0.951 . S
H1046 C1066 0.950 . S
H1047 C1067 0.950 . S
H1048 C1069 0.950 . S
H1049 C1072 0.950 . S
H1050 C1073 0.950 . S
H1051 C1075 0.950 . S
H1052 C1076 0.950 . S
H1053 C1077 0.951 . S
H1054 C1079 0.951 . S
H1055 C1081 0.950 . S
H1056 C1082 0.950 . S
H1057 C1084 0.950 . S
H1058 C1087 0.959 . S
H1059 C1088 0.950 . S
H1060 C1090 0.950 . S
H1061 C1091 0.950 . S
C1062 H1044 0.951 . S
C1062 C1063 1.366 . S
C1062 C1064 1.388 . S
C1063 C1062 1.366 . S
C1063 C1067 1.385 . S
C1064 H1045 0.951 . S
C1064 C1062 1.388 . S
C1064 C1065 1.366 . S
C1065 C1064 1.366 . S
C1065 C1066 1.414 . S
C1065 C1068 1.499 . S
C1066 H1046 0.950 . S
C1066 C1065 1.414 . S
C1066 C1067 1.374 . S
C1067 H1047 0.950 . S
C1067 C1063 1.385 . S
C1067 C1066 1.374 . S
C1068 C1065 1.499 . S
C1068 C1069 1.373 . S
C1068 C1070 1.389 . S
C1069 H1048 0.950 . S
C1069 C1068 1.373 . S
C1069 C1085 1.377 . S
C1070 C1068 1.389 . S
C1070 C1071 1.524 . S
C1070 C1084 1.377 . S
C1071 C1070 1.524 . S
C1071 C1072 1.397 . S
C1071 C1076 1.363 . S
C1072 H1049 0.950 . S
C1072 C1071 1.397 . S
C1072 C1073 1.334 . S
C1073 H1050 0.950 . S
C1073 C1072 1.334 . S
C1073 C1074 1.287 . S
C1074 C1073 1.287 . S
C1074 C1075 1.524 . S
C1074 H1093 0.913 . S
C1075 H1051 0.950 . S
C1075 C1074 1.524 . S
C1075 C1076 1.415 . S
C1076 H1052 0.950 . S
C1076 C1071 1.363 . S
C1076 C1075 1.415 . S
C1077 H1053 0.951 . S
C1077 C1078 1.366 . S
C1077 C1079 1.388 . S
C1078 C1077 1.366 . S
C1078 C1082 1.385 . S
C1079 H1054 0.951 . S
C1079 C1077 1.388 . S
C1079 C1080 1.366 . S
C1080 C1079 1.366 . S
C1080 C1081 1.414 . S
C1080 C1083 1.499 . S
C1081 H1055 0.950 . S
C1081 C1080 1.414 . S
C1081 C1082 1.374 . S
C1082 H1056 0.950 . S
C1082 C1078 1.385 . S
C1082 C1081 1.374 . S
C1083 C1080 1.499 . S
C1083 C1084 1.373 . S
C1083 C1085 1.389 . S
C1084 H1057 0.950 . S
C1084 C1070 1.377 . S
C1084 C1083 1.373 . S
C1085 C1069 1.377 . S
C1085 C1083 1.389 . S
C1085 C1086 1.524 . S
C1086 C1085 1.524 . S
C1086 C1087 1.360 1_554 S
C1086 C1091 1.363 . S
C1087 H1058 0.959 . S
C1087 C1086 1.360 1_556 S
C1087 C1088 1.363 . S
C1088 H1059 0.950 . S
C1088 C1087 1.363 . S
C1088 C1089 1.287 . S
C1089 C1088 1.287 . S
C1089 C1090 1.524 1_556 S
C1089 H1092 0.999 . S
C1090 H1060 0.950 . S
C1090 C1089 1.524 1_554 S
C1090 C1091 1.415 . S
C1091 H1061 0.950 . S
C1091 C1086 1.363 . S
C1091 C1090 1.415 . S
H1092 C1089 0.999 . S
H1093 C1074 0.913 . S
H1094 C1112 0.951 . S
H1095 C1114 0.951 . S
H1096 C1116 0.950 . S
H1097 C1117 0.950 . S
H1098 C1119 0.950 . S
H1099 C1122 0.950 . S
H1100 C1123 0.950 . S
H1101 C1125 0.950 . S
H1102 C1126 0.950 . S
H1103 C1127 0.951 . S
H1104 C1129 0.951 . S
H1105 C1131 0.950 . S
H1106 C1132 0.950 . S
H1107 C1134 0.950 . S
H1108 C1137 0.950 . S
H1109 C1138 0.950 . S
H1110 C1140 0.950 . S
H1111 C1141 0.950 . S
C1112 H1094 0.951 . S
C1112 C1113 1.366 . S
C1112 C1114 1.388 . S
C1113 C1112 1.366 . S
C1113 C1117 1.385 . S
C1114 H1095 0.951 . S
C1114 C1112 1.388 . S
C1114 C1115 1.366 . S
C1115 C1114 1.366 . S
C1115 C1116 1.414 . S
C1115 C1118 1.499 . S
C1116 H1096 0.950 . S
C1116 C1115 1.414 . S
C1116 C1117 1.374 . S
C1117 H1097 0.950 . S
C1117 C1113 1.385 . S
C1117 C1116 1.374 . S
C1118 C1115 1.499 . S
C1118 C1119 1.373 . S
C1118 C1120 1.389 . S
C1119 H1098 0.950 . S
C1119 C1118 1.373 . S
C1119 C1135 1.377 . S
C1120 C1118 1.389 . S
C1120 C1121 1.524 . S
C1120 C1134 1.377 . S
C1121 C1120 1.524 . S
C1121 C1122 1.397 . S
C1121 C1126 1.363 . S
C1122 H1099 0.950 . S
C1122 C1121 1.397 . S
C1122 C1123 1.334 . S
C1123 H1100 0.950 . S
C1123 C1122 1.334 . S
C1123 C1124 1.287 . S
C1124 C1123 1.287 . S
C1124 C1125 1.524 . S
C1124 H1143 0.913 1_554 S
C1125 H1101 0.950 . S
C1125 C1124 1.524 . S
C1125 C1126 1.415 . S
C1126 H1102 0.950 . S
C1126 C1121 1.363 . S
C1126 C1125 1.415 . S
C1127 H1103 0.951 . S
C1127 C1128 1.366 . S
C1127 C1129 1.388 . S
C1128 C1127 1.366 . S
C1128 C1132 1.385 . S
C1129 H1104 0.951 . S
C1129 C1127 1.388 . S
C1129 C1130 1.366 . S
C1130 C1129 1.366 . S
C1130 C1131 1.414 . S
C1130 C1133 1.499 . S
C1131 H1105 0.950 . S
C1131 C1130 1.414 . S
C1131 C1132 1.374 . S
C1132 H1106 0.950 . S
C1132 C1128 1.385 . S
C1132 C1131 1.374 . S
C1133 C1130 1.499 . S
C1133 C1134 1.373 . S
C1133 C1135 1.389 . S
C1134 H1107 0.950 . S
C1134 C1120 1.377 . S
C1134 C1133 1.373 . S
C1135 C1119 1.377 . S
C1135 C1133 1.389 . S
C1135 C1136 1.524 . S
C1136 C1135 1.524 . S
C1136 C1137 1.397 . S
C1136 C1141 1.363 . S
C1137 H1108 0.950 . S
C1137 C1136 1.397 . S
C1137 C1138 1.334 . S
C1138 H1109 0.950 . S
C1138 C1137 1.334 . S
C1138 C1139 1.287 . S
C1139 C1138 1.287 . S
C1139 C1140 1.524 . S
C1139 H1142 0.999 . S
C1140 H1110 0.950 . S
C1140 C1139 1.524 . S
C1140 C1141 1.415 . S
C1141 H1111 0.950 . S
C1141 C1136 1.363 . S
C1141 C1140 1.415 . S
H1142 C1139 0.999 . S
H1143 C1124 0.913 1_556 S
H1144 C1162 0.951 . S
H1145 C1164 0.951 . S
H1146 C1166 0.950 . S
H1147 C1167 0.950 . S
H1148 C1169 0.950 . S
H1149 C1172 0.950 . S
H1150 C1173 0.950 1_554 S
H1151 C1175 0.950 . S
H1152 C1176 0.950 . S
H1153 C1177 0.951 . S
H1154 C1179 0.951 . S
H1155 C1181 0.950 1_556 S
H1156 C1182 0.950 1_556 S
H1157 C1184 0.950 . S
H1158 C1187 0.950 . S
H1159 C1188 0.950 . S
H1160 C1190 0.950 . S
H1161 C1191 0.950 . S
C1162 H1144 0.951 . S
C1162 C1163 1.366 . S
C1162 C1164 1.388 . S
C1163 C1162 1.366 . S
C1163 C1167 1.385 . S
C1164 H1145 0.951 . S
C1164 C1162 1.388 . S
C1164 C1165 1.366 . S
C1165 C1164 1.366 . S
C1165 C1166 1.414 . S
C1165 C1168 1.499 . S
C1166 H1146 0.950 . S
C1166 C1165 1.414 . S
C1166 C1167 1.374 . S
C1167 H1147 0.950 . S
C1167 C1163 1.385 . S
C1167 C1166 1.374 . S
C1168 C1165 1.499 . S
C1168 C1169 1.373 . S
C1168 C1170 1.389 . S
C1169 H1148 0.950 . S
C1169 C1168 1.373 . S
C1169 C1185 1.377 . S
C1170 C1168 1.389 . S
C1170 C1171 1.524 . S
C1170 C1184 1.377 . S
C1171 C1170 1.524 . S
C1171 C1172 1.397 . S
C1171 C1176 1.363 1_554 S
C1172 H1149 0.950 . S
C1172 C1171 1.397 . S
C1172 C1173 1.334 1_554 S
C1173 H1150 0.950 1_556 S
C1173 C1172 1.334 1_556 S
C1173 C1174 1.287 . S
C1174 C1173 1.287 . S
C1174 C1175 1.524 . S
C1174 H1193 0.913 . S
C1175 H1151 0.950 . S
C1175 C1174 1.524 . S
C1175 C1176 1.415 . S
C1176 H1152 0.950 . S
C1176 C1171 1.363 1_556 S
C1176 C1175 1.415 . S
C1177 H1153 0.951 . S
C1177 C1178 1.366 . S
C1177 C1179 1.388 . S
C1178 C1177 1.366 . S
C1178 C1182 1.385 . S
C1179 H1154 0.951 . S
C1179 C1177 1.388 . S
C1179 C1180 1.366 . S
C1180 C1179 1.366 . S
C1180 C1181 1.414 . S
C1180 C1183 1.499 . S
C1181 H1155 0.950 1_554 S
C1181 C1180 1.414 . S
C1181 C1182 1.374 . S
C1182 H1156 0.950 1_554 S
C1182 C1178 1.385 . S
C1182 C1181 1.374 . S
C1183 C1180 1.499 . S
C1183 C1184 1.373 . S
C1183 C1185 1.389 . S
C1184 H1157 0.950 . S
C1184 C1170 1.377 . S
C1184 C1183 1.373 . S
C1185 C1169 1.377 . S
C1185 C1183 1.389 . S
C1185 C1186 1.524 . S
C1186 C1185 1.524 . S
C1186 C1187 1.397 . S
C1186 C1191 1.363 . S
C1187 H1158 0.950 . S
C1187 C1186 1.397 . S
C1187 C1188 1.334 . S
C1188 H1159 0.950 . S
C1188 C1187 1.334 . S
C1188 C1189 1.287 . S
C1189 C1188 1.287 . S
C1189 C1190 1.524 . S
C1189 H1192 0.999 . S
C1190 H1160 0.950 . S
C1190 C1189 1.524 . S
C1190 C1191 1.415 . S
C1191 H1161 0.950 . S
C1191 C1186 1.363 . S
C1191 C1190 1.415 . S
H1192 C1189 0.999 . S
H1193 C1174 0.913 . S
H1194 C1212 0.951 . S
H1195 C1214 0.951 . S
H1196 C1216 0.950 . S
H1197 C1217 0.950 . S
H1198 C1219 0.950 . S
H1199 C1222 0.950 . S
H1200 C1223 0.950 . S
H1201 C1225 0.950 . S
H1202 C1226 0.950 . S
H1203 C1227 0.951 . S
H1204 C1229 0.951 . S
H1205 C1231 0.950 . S
H1206 C1232 0.950 . S
H1207 C1234 0.949 . S
H1208 C1237 0.950 . S
H1209 C1238 0.950 . S
H1210 C1240 0.950 . S
H1211 C1241 0.950 . S
C1212 H1194 0.951 . S
C1212 C1213 1.366 . S
C1212 C1214 1.388 . S
C1213 C1212 1.366 . S
C1213 C1217 1.385 . S
C1214 H1195 0.951 . S
C1214 C1212 1.388 . S
C1214 C1215 1.366 . S
C1215 C1214 1.366 . S
C1215 C1216 1.414 . S
C1215 C1218 1.499 . S
C1216 H1196 0.950 . S
C1216 C1215 1.414 . S
C1216 C1217 1.374 . S
C1217 H1197 0.950 . S
C1217 C1213 1.385 . S
C1217 C1216 1.374 . S
C1218 C1215 1.499 . S
C1218 C1219 1.373 . S
C1218 C1220 1.389 . S
C1219 H1198 0.950 . S
C1219 C1218 1.373 . S
C1219 C1235 1.377 1_655 S
C1220 C1218 1.389 . S
C1220 C1221 1.524 . S
C1220 C1234 1.374 1_655 S
C1221 C1220 1.524 . S
C1221 C1222 1.397 . S
C1221 C1226 1.363 . S
C1222 H1199 0.950 . S
C1222 C1221 1.397 . S
C1222 C1223 1.334 . S
C1223 H1200 0.950 . S
C1223 C1222 1.334 . S
C1223 C1224 1.287 . S
C1224 C1223 1.287 . S
C1224 C1225 1.524 . S
C1224 H1243 0.913 . S
C1225 H1201 0.950 . S
C1225 C1224 1.524 . S
C1225 C1226 1.415 . S
C1226 H1202 0.950 . S
C1226 C1221 1.363 . S
C1226 C1225 1.415 . S
C1227 H1203 0.951 . S
C1227 C1228 1.366 . S
C1227 C1229 1.388 . S
C1228 C1227 1.366 . S
C1228 C1232 1.385 . S
C1229 H1204 0.951 . S
C1229 C1227 1.388 . S
C1229 C1230 1.366 . S
C1230 C1229 1.366 . S
C1230 C1231 1.414 . S
C1230 C1233 1.499 . S
C1231 H1205 0.950 . S
C1231 C1230 1.414 . S
C1231 C1232 1.374 . S
C1232 H1206 0.950 . S
C1232 C1228 1.385 . S
C1232 C1231 1.374 . S
C1233 C1230 1.499 . S
C1233 C1234 1.376 . S
C1233 C1235 1.389 . S
C1234 H1207 0.949 . S
C1234 C1220 1.374 1_455 S
C1234 C1233 1.376 . S
C1235 C1219 1.377 1_455 S
C1235 C1233 1.389 . S
C1235 C1236 1.524 . S
C1236 C1235 1.524 . S
C1236 C1237 1.397 . S
C1236 C1241 1.363 . S
C1237 H1208 0.950 . S
C1237 C1236 1.397 . S
C1237 C1238 1.334 . S
C1238 H1209 0.950 . S
C1238 C1237 1.334 . S
C1238 C1239 1.287 . S
C1239 C1238 1.287 . S
C1239 C1240 1.524 . S
C1239 H1242 0.999 . S
C1240 H1210 0.950 . S
C1240 C1239 1.524 . S
C1240 C1241 1.415 . S
C1241 H1211 0.950 . S
C1241 C1236 1.363 . S
C1241 C1240 1.415 . S
H1242 C1239 0.999 . S
H1243 C1224 0.913 . S
H1244 C1262 0.951 . S
H1245 C1264 0.951 . S
H1246 C1266 0.950 . S
H1247 C1267 0.950 . S
H1248 C1269 0.950 . S
H1249 C1272 0.950 . S
H1250 C1273 0.950 . S
H1251 C1275 0.950 . S
H1252 C1276 0.950 . S
H1253 C1277 0.951 . S
H1254 C1279 0.951 . S
H1255 C1281 0.950 . S
H1256 C1282 0.950 . S
H1257 C1284 0.950 . S
H1258 C1287 0.950 . S
H1259 C1288 0.950 . S
H1260 C1290 0.950 . S
H1261 C1291 0.950 . S
C1262 H1244 0.951 . S
C1262 C1263 1.366 . S
C1262 C1264 1.388 . S
C1263 C1262 1.366 . S
C1263 C1267 1.385 . S
C1264 H1245 0.951 . S
C1264 C1262 1.388 . S
C1264 C1265 1.366 . S
C1265 C1264 1.366 . S
C1265 C1266 1.414 . S
C1265 C1268 1.499 . S
C1266 H1246 0.950 . S
C1266 C1265 1.414 . S
C1266 C1267 1.374 . S
C1267 H1247 0.950 . S
C1267 C1263 1.385 . S
C1267 C1266 1.374 . S
C1268 C1265 1.499 . S
C1268 C1269 1.373 . S
C1268 C1270 1.389 . S
C1269 H1248 0.950 . S
C1269 C1268 1.373 . S
C1269 C1285 1.377 . S
C1270 C1268 1.389 . S
C1270 C1271 1.524 . S
C1270 C1284 1.377 . S
C1271 C1270 1.524 . S
C1271 C1272 1.397 . S
C1271 C1276 1.363 . S
C1272 H1249 0.950 . S
C1272 C1271 1.397 . S
C1272 C1273 1.334 . S
C1273 H1250 0.950 . S
C1273 C1272 1.334 . S
C1273 C1274 1.287 . S
C1274 C1273 1.287 . S
C1274 C1275 1.524 . S
C1274 H1293 0.913 . S
C1275 H1251 0.950 . S
C1275 C1274 1.524 . S
C1275 C1276 1.415 . S
C1276 H1252 0.950 . S
C1276 C1271 1.363 . S
C1276 C1275 1.415 . S
C1277 H1253 0.951 . S
C1277 C1278 1.366 . S
C1277 C1279 1.388 . S
C1278 C1277 1.366 . S
C1278 C1282 1.385 . S
C1279 H1254 0.951 . S
C1279 C1277 1.388 . S
C1279 C1280 1.366 . S
C1280 C1279 1.366 . S
C1280 C1281 1.414 . S
C1280 C1283 1.499 . S
C1281 H1255 0.950 . S
C1281 C1280 1.414 . S
C1281 C1282 1.374 . S
C1282 H1256 0.950 . S
C1282 C1278 1.385 . S
C1282 C1281 1.374 . S
C1283 C1280 1.499 . S
C1283 C1284 1.373 . S
C1283 C1285 1.389 . S
C1284 H1257 0.950 . S
C1284 C1270 1.377 . S
C1284 C1283 1.373 . S
C1285 C1269 1.377 . S
C1285 C1283 1.389 . S
C1285 C1286 1.524 . S
C1286 C1285 1.524 . S
C1286 C1287 1.397 . S
C1286 C1291 1.363 . S
C1287 H1258 0.950 . S
C1287 C1286 1.397 . S
C1287 C1288 1.334 . S
C1288 H1259 0.950 . S
C1288 C1287 1.334 . S
C1288 C1289 1.287 . S
C1289 C1288 1.287 . S
C1289 C1290 1.524 . S
C1289 H1292 0.999 . S
C1290 H1260 0.950 . S
C1290 C1289 1.524 . S
C1290 C1291 1.415 . S
C1291 H1261 0.950 . S
C1291 C1286 1.363 . S
C1291 C1290 1.415 . S
H1292 C1289 0.999 . S
H1293 C1274 0.913 . S
H1294 C1312 0.951 . S
H1295 C1314 0.951 . S
H1296 C1316 0.950 . S
H1297 C1317 0.950 . S
H1298 C1319 0.950 . S
H1299 C1322 0.950 . S
H1300 C1323 0.950 . S
H1301 C1325 0.950 . S
H1302 C1326 0.950 . S
H1303 C1327 0.951 . S
H1304 C1329 0.951 . S
H1305 C1331 0.950 . S
H1306 C1332 0.950 . S
H1307 C1334 0.950 1_565 S
H1308 C1337 0.950 . S
H1309 C1338 0.950 . S
H1310 C1340 0.950 . S
H1311 C1341 0.950 . S
C1312 H1294 0.951 . S
C1312 C1313 1.366 . S
C1312 C1314 1.388 . S
C1313 C1312 1.366 . S
C1313 C1317 1.385 . S
C1314 H1295 0.951 . S
C1314 C1312 1.388 . S
C1314 C1315 1.366 . S
C1315 C1314 1.366 . S
C1315 C1316 1.414 . S
C1315 C1318 1.499 . S
C1316 H1296 0.950 . S
C1316 C1315 1.414 . S
C1316 C1317 1.374 . S
C1317 H1297 0.950 . S
C1317 C1313 1.385 . S
C1317 C1316 1.374 . S
C1318 C1315 1.499 . S
C1318 C1319 1.373 . S
C1318 C1320 1.389 . S
C1319 H1298 0.950 . S
C1319 C1318 1.373 . S
C1319 C1335 1.377 . S
C1320 C1318 1.389 . S
C1320 C1321 1.524 . S
C1320 C1334 1.377 . S
C1321 C1320 1.524 . S
C1321 C1322 1.397 . S
C1321 C1326 1.363 . S
C1322 H1299 0.950 . S
C1322 C1321 1.397 . S
C1322 C1323 1.334 . S
C1323 H1300 0.950 . S
C1323 C1322 1.334 . S
C1323 C1324 1.287 . S
C1324 C1323 1.287 . S
C1324 C1325 1.524 . S
C1324 H1343 0.913 . S
C1325 H1301 0.950 . S
C1325 C1324 1.524 . S
C1325 C1326 1.415 . S
C1326 H1302 0.950 . S
C1326 C1321 1.363 . S
C1326 C1325 1.415 . S
C1327 H1303 0.951 . S
C1327 C1328 1.366 . S
C1327 C1329 1.388 . S
C1328 C1327 1.366 . S
C1328 C1332 1.385 . S
C1329 H1304 0.951 . S
C1329 C1327 1.388 . S
C1329 C1330 1.366 . S
C1330 C1329 1.366 . S
C1330 C1331 1.414 . S
C1330 C1333 1.499 . S
C1331 H1305 0.950 . S
C1331 C1330 1.414 . S
C1331 C1332 1.374 . S
C1332 H1306 0.950 . S
C1332 C1328 1.385 . S
C1332 C1331 1.374 . S
C1333 C1330 1.499 . S
C1333 C1334 1.373 1_565 S
C1333 C1335 1.389 1_565 S
C1334 H1307 0.950 1_545 S
C1334 C1320 1.377 . S
C1334 C1333 1.373 1_545 S
C1335 C1319 1.377 . S
C1335 C1333 1.389 1_545 S
C1335 C1336 1.524 . S
C1336 C1335 1.524 . S
C1336 C1337 1.397 1_545 S
C1336 C1341 1.363 . S
C1337 H1308 0.950 . S
C1337 C1336 1.397 1_565 S
C1337 C1338 1.334 . S
C1338 H1309 0.950 . S
C1338 C1337 1.334 . S
C1338 C1339 1.287 . S
C1339 C1338 1.287 . S
C1339 C1340 1.524 1_565 S
C1339 H1342 0.999 . S
C1340 H1310 0.950 . S
C1340 C1339 1.524 1_545 S
C1340 C1341 1.415 . S
C1341 H1311 0.950 . S
C1341 C1336 1.363 . S
C1341 C1340 1.415 . S
H1342 C1339 0.999 . S
H1343 C1324 0.913 . S
H1344 C1362 0.951 . S
H1345 C1364 0.951 . S
H1346 C1366 0.950 . S
H1347 C1367 0.950 . S
H1348 C1369 0.950 . S
H1349 C1372 0.950 . S
H1350 C1373 0.950 . S
H1351 C1375 0.950 . S
H1352 C1376 0.950 . S
H1353 C1377 0.951 . S
H1354 C1379 0.951 . S
H1355 C1381 0.950 . S
H1356 C1382 0.950 . S
H1357 C1384 0.950 . S
H1358 C1387 0.950 . S
H1359 C1388 0.950 . S
H1360 C1390 0.950 . S
H1361 C1391 0.950 . S
C1362 H1344 0.951 . S
C1362 C1363 1.366 . S
C1362 C1364 1.388 . S
C1363 C1362 1.366 . S
C1363 C1367 1.385 . S
C1364 H1345 0.951 . S
C1364 C1362 1.388 . S
C1364 C1365 1.366 . S
C1365 C1364 1.366 . S
C1365 C1366 1.414 . S
C1365 C1368 1.499 . S
C1366 H1346 0.950 . S
C1366 C1365 1.414 . S
C1366 C1367 1.374 . S
C1367 H1347 0.950 . S
C1367 C1363 1.385 . S
C1367 C1366 1.374 . S
C1368 C1365 1.499 . S
C1368 C1369 1.373 . S
C1368 C1370 1.389 . S
C1369 H1348 0.950 . S
C1369 C1368 1.373 . S
C1369 C1385 1.377 . S
C1370 C1368 1.389 . S
C1370 C1371 1.524 . S
C1370 C1384 1.377 . S
C1371 C1370 1.524 . S
C1371 C1372 1.397 . S
C1371 C1376 1.363 . S
C1372 H1349 0.950 . S
C1372 C1371 1.397 . S
C1372 C1373 1.334 . S
C1373 H1350 0.950 . S
C1373 C1372 1.334 . S
C1373 C1374 1.287 . S
C1374 C1373 1.287 . S
C1374 C1375 1.524 . S
C1374 H1393 0.913 . S
C1375 H1351 0.950 . S
C1375 C1374 1.524 . S
C1375 C1376 1.415 . S
C1376 H1352 0.950 . S
C1376 C1371 1.363 . S
C1376 C1375 1.415 . S
C1377 H1353 0.951 . S
C1377 C1378 1.366 . S
C1377 C1379 1.388 . S
C1378 C1377 1.366 . S
C1378 C1382 1.385 . S
C1379 H1354 0.951 . S
C1379 C1377 1.388 . S
C1379 C1380 1.366 . S
C1380 C1379 1.366 . S
C1380 C1381 1.414 . S
C1380 C1383 1.499 . S
C1381 H1355 0.950 . S
C1381 C1380 1.414 . S
C1381 C1382 1.374 . S
C1382 H1356 0.950 . S
C1382 C1378 1.385 . S
C1382 C1381 1.374 . S
C1383 C1380 1.499 . S
C1383 C1384 1.373 . S
C1383 C1385 1.389 . S
C1384 H1357 0.950 . S
C1384 C1370 1.377 . S
C1384 C1383 1.373 . S
C1385 C1369 1.377 . S
C1385 C1383 1.389 . S
C1385 C1386 1.524 . S
C1386 C1385 1.524 . S
C1386 C1387 1.397 . S
C1386 C1391 1.363 . S
C1387 H1358 0.950 . S
C1387 C1386 1.397 . S
C1387 C1388 1.334 . S
C1388 H1359 0.950 . S
C1388 C1387 1.334 . S
C1388 C1389 1.287 . S
C1389 C1388 1.287 . S
C1389 C1390 1.524 . S
C1389 H1392 0.999 . S
C1390 H1360 0.950 . S
C1390 C1389 1.524 . S
C1390 C1391 1.415 . S
C1391 H1361 0.950 . S
C1391 C1386 1.363 . S
C1391 C1390 1.415 . S
H1392 C1389 0.999 . S
H1393 C1374 0.913 . S
H1394 C1412 0.951 . S
H1395 C1414 0.951 . S
H1396 C1416 0.950 . S
H1397 C1417 0.950 . S
H1398 C1419 0.950 . S
H1399 C1422 0.950 . S
H1400 C1423 0.950 . S
H1401 C1425 0.950 . S
H1402 C1426 0.950 . S
H1403 C1427 0.951 . S
H1404 C1429 0.951 . S
H1405 C1431 0.950 . S
H1406 C1432 0.950 . S
H1407 C1434 0.950 . S
H1408 C1437 0.950 . S
H1409 C1438 0.950 . S
H1410 C1440 0.950 . S
H1411 C1441 0.950 . S
C1412 H1394 0.951 . S
C1412 C1413 1.366 . S
C1412 C1414 1.388 . S
C1413 C1412 1.366 . S
C1413 C1417 1.385 . S
C1414 H1395 0.951 . S
C1414 C1412 1.388 . S
C1414 C1415 1.366 . S
C1415 C1414 1.366 . S
C1415 C1416 1.414 . S
C1415 C1418 1.499 . S
C1416 H1396 0.950 . S
C1416 C1415 1.414 . S
C1416 C1417 1.374 . S
C1417 H1397 0.950 . S
C1417 C1413 1.385 . S
C1417 C1416 1.374 . S
C1418 C1415 1.499 . S
C1418 C1419 1.373 . S
C1418 C1420 1.389 . S
C1419 H1398 0.950 . S
C1419 C1418 1.373 . S
C1419 C1435 1.377 . S
C1420 C1418 1.389 . S
C1420 C1421 1.524 . S
C1420 C1434 1.377 . S
C1421 C1420 1.524 . S
C1421 C1422 1.397 . S
C1421 C1426 1.363 . S
C1422 H1399 0.950 . S
C1422 C1421 1.397 . S
C1422 C1423 1.334 . S
C1423 H1400 0.950 . S
C1423 C1422 1.334 . S
C1423 C1424 1.287 . S
C1424 C1423 1.287 . S
C1424 C1425 1.524 . S
C1424 H1443 0.913 . S
C1425 H1401 0.950 . S
C1425 C1424 1.524 . S
C1425 C1426 1.415 . S
C1426 H1402 0.950 . S
C1426 C1421 1.363 . S
C1426 C1425 1.415 . S
C1427 H1403 0.951 . S
C1427 C1428 1.366 . S
C1427 C1429 1.388 . S
C1428 C1427 1.366 . S
C1428 C1432 1.385 . S
C1429 H1404 0.951 . S
C1429 C1427 1.388 . S
C1429 C1430 1.366 . S
C1430 C1429 1.366 . S
C1430 C1431 1.414 . S
C1430 C1433 1.499 . S
C1431 H1405 0.950 . S
C1431 C1430 1.414 . S
C1431 C1432 1.374 . S
C1432 H1406 0.950 . S
C1432 C1428 1.385 . S
C1432 C1431 1.374 . S
C1433 C1430 1.499 . S
C1433 C1434 1.373 . S
C1433 C1435 1.389 . S
C1434 H1407 0.950 . S
C1434 C1420 1.377 . S
C1434 C1433 1.373 . S
C1435 C1419 1.377 . S
C1435 C1433 1.389 . S
C1435 C1436 1.524 . S
C1436 C1435 1.524 . S
C1436 C1437 1.397 . S
C1436 C1441 1.363 . S
C1437 H1408 0.950 . S
C1437 C1436 1.397 . S
C1437 C1438 1.334 . S
C1438 H1409 0.950 . S
C1438 C1437 1.334 . S
C1438 C1439 1.287 . S
C1439 C1438 1.287 . S
C1439 C1440 1.524 . S
C1439 H1442 0.999 . S
C1440 H1410 0.950 . S
C1440 C1439 1.524 . S
C1440 C1441 1.415 . S
C1441 H1411 0.950 . S
C1441 C1436 1.363 . S
C1441 C1440 1.415 . S
H1442 C1439 0.999 . S
H1443 C1424 0.913 . S
H1444 C1462 0.951 . S
H1445 C1464 0.951 . S
H1446 C1466 0.950 . S
H1447 C1467 0.950 . S
H1448 C1469 0.950 . S
H1449 C1472 0.950 . S
H1450 C1473 0.950 . S
H1451 C1475 0.950 . S
H1452 C1476 0.950 . S
H1453 C1477 0.951 . S
H1454 C1479 0.951 . S
H1455 C1481 0.950 . S
H1456 C1482 0.950 . S
H1457 C1484 0.950 . S
H1458 C1487 0.950 . S
H1459 C1488 0.950 . S
H1460 C1490 0.950 . S
H1461 C1491 0.950 . S
C1462 H1444 0.951 . S
C1462 C1463 1.366 . S
C1462 C1464 1.388 . S
C1463 C1462 1.366 . S
C1463 C1467 1.385 . S
C1464 H1445 0.951 . S
C1464 C1462 1.388 . S
C1464 C1465 1.366 . S
C1465 C1464 1.366 . S
C1465 C1466 1.414 . S
C1465 C1468 1.499 . S
C1466 H1446 0.950 . S
C1466 C1465 1.414 . S
C1466 C1467 1.374 . S
C1467 H1447 0.950 . S
C1467 C1463 1.385 . S
C1467 C1466 1.374 . S
C1468 C1465 1.499 . S
C1468 C1469 1.373 . S
C1468 C1470 1.389 . S
C1469 H1448 0.950 . S
C1469 C1468 1.373 . S
C1469 C1485 1.377 . S
C1470 C1468 1.389 . S
C1470 C1471 1.524 . S
C1470 C1484 1.377 . S
C1471 C1470 1.524 . S
C1471 C1472 1.397 . S
C1471 C1476 1.363 . S
C1472 H1449 0.950 . S
C1472 C1471 1.397 . S
C1472 C1473 1.334 . S
C1473 H1450 0.950 . S
C1473 C1472 1.334 . S
C1473 C1474 1.287 . S
C1474 C1473 1.287 . S
C1474 C1475 1.524 . S
C1474 H1493 0.913 . S
C1475 H1451 0.950 . S
C1475 C1474 1.524 . S
C1475 C1476 1.415 . S
C1476 H1452 0.950 . S
C1476 C1471 1.363 . S
C1476 C1475 1.415 . S
C1477 H1453 0.951 . S
C1477 C1478 1.366 . S
C1477 C1479 1.388 . S
C1478 C1477 1.366 . S
C1478 C1482 1.385 . S
C1479 H1454 0.951 . S
C1479 C1477 1.388 . S
C1479 C1480 1.366 . S
C1480 C1479 1.366 . S
C1480 C1481 1.414 . S
C1480 C1483 1.499 . S
C1481 H1455 0.950 . S
C1481 C1480 1.414 . S
C1481 C1482 1.374 . S
C1482 H1456 0.950 . S
C1482 C1478 1.385 . S
C1482 C1481 1.374 . S
C1483 C1480 1.499 . S
C1483 C1484 1.373 . S
C1483 C1485 1.389 . S
C1484 H1457 0.950 . S
C1484 C1470 1.377 . S
C1484 C1483 1.373 . S
C1485 C1469 1.377 . S
C1485 C1483 1.389 . S
C1485 C1486 1.524 . S
C1486 C1485 1.524 . S
C1486 C1487 1.397 . S
C1486 C1491 1.363 . S
C1487 H1458 0.950 . S
C1487 C1486 1.397 . S
C1487 C1488 1.334 . S
C1488 H1459 0.950 . S
C1488 C1487 1.334 . S
C1488 C1489 1.287 . S
C1489 C1488 1.287 . S
C1489 C1490 1.524 . S
C1489 H1492 0.999 . S
C1490 H1460 0.950 . S
C1490 C1489 1.524 . S
C1490 C1491 1.415 . S
C1491 H1461 0.950 . S
C1491 C1486 1.363 . S
C1491 C1490 1.415 . S
H1492 C1489 0.999 . S
H1493 C1474 0.913 . S
H1494 C1512 0.951 . S
H1495 C1514 0.951 . S
H1496 C1516 0.950 . S
H1497 C1517 0.950 . S
H1498 C1519 0.950 . S
H1499 C1522 0.950 . S
H1500 C1523 0.950 . S
H1501 C1525 0.950 . S
H1502 C1526 0.950 . S
H1503 C1527 0.951 . S
H1504 C1529 0.951 . S
H1505 C1531 0.950 . S
H1506 C1532 0.950 . S
H1507 C1534 0.950 . S
H1508 C1537 0.950 . S
H1509 C1538 0.950 . S
H1510 C1540 0.950 . S
H1511 C1541 0.950 . S
C1512 H1494 0.951 . S
C1512 C1513 1.366 . S
C1512 C1514 1.388 . S
C1513 C1512 1.366 . S
C1513 C1517 1.385 . S
C1514 H1495 0.951 . S
C1514 C1512 1.388 . S
C1514 C1515 1.366 . S
C1515 C1514 1.366 . S
C1515 C1516 1.414 . S
C1515 C1518 1.499 . S
C1516 H1496 0.950 . S
C1516 C1515 1.414 . S
C1516 C1517 1.374 . S
C1517 H1497 0.950 . S
C1517 C1513 1.385 . S
C1517 C1516 1.374 . S
C1518 C1515 1.499 . S
C1518 C1519 1.373 . S
C1518 C1520 1.389 . S
C1519 H1498 0.950 . S
C1519 C1518 1.373 . S
C1519 C1535 1.377 . S
C1520 C1518 1.389 . S
C1520 C1521 1.524 . S
C1520 C1534 1.377 . S
C1521 C1520 1.524 . S
C1521 C1522 1.397 . S
C1521 C1526 1.363 . S
C1522 H1499 0.950 . S
C1522 C1521 1.397 . S
C1522 C1523 1.334 . S
C1523 H1500 0.950 . S
C1523 C1522 1.334 . S
C1523 C1524 1.287 . S
C1524 C1523 1.287 . S
C1524 C1525 1.524 . S
C1524 H1543 0.913 . S
C1525 H1501 0.950 . S
C1525 C1524 1.524 . S
C1525 C1526 1.415 . S
C1526 H1502 0.950 . S
C1526 C1521 1.363 . S
C1526 C1525 1.415 . S
C1527 H1503 0.951 . S
C1527 C1528 1.366 . S
C1527 C1529 1.388 . S
C1528 C1527 1.366 . S
C1528 C1532 1.385 . S
C1529 H1504 0.951 . S
C1529 C1527 1.388 . S
C1529 C1530 1.366 . S
C1530 C1529 1.366 . S
C1530 C1531 1.414 . S
C1530 C1533 1.499 . S
C1531 H1505 0.950 . S
C1531 C1530 1.414 . S
C1531 C1532 1.374 . S
C1532 H1506 0.950 . S
C1532 C1528 1.385 . S
C1532 C1531 1.374 . S
C1533 C1530 1.499 . S
C1533 C1534 1.373 . S
C1533 C1535 1.389 . S
C1534 H1507 0.950 . S
C1534 C1520 1.377 . S
C1534 C1533 1.373 . S
C1535 C1519 1.377 . S
C1535 C1533 1.389 . S
C1535 C1536 1.524 . S
C1536 C1535 1.524 . S
C1536 C1537 1.397 . S
C1536 C1541 1.363 . S
C1537 H1508 0.950 . S
C1537 C1536 1.397 . S
C1537 C1538 1.334 . S
C1538 H1509 0.950 . S
C1538 C1537 1.334 . S
C1538 C1539 1.287 . S
C1539 C1538 1.287 . S
C1539 C1540 1.524 . S
C1539 H1542 0.999 . S
C1540 H1510 0.950 . S
C1540 C1539 1.524 . S
C1540 C1541 1.415 . S
C1541 H1511 0.950 . S
C1541 C1536 1.363 . S
C1541 C1540 1.415 . S
H1542 C1539 0.999 . S
H1543 C1524 0.913 . S
H1544 C1562 0.951 . S
H1545 C1564 0.951 . S
H1546 C1566 0.950 . S
H1547 C1567 0.950 . S
H1548 C1569 0.950 . S
H1549 C1572 0.950 . S
H1550 C1573 0.950 . S
H1551 C1575 0.950 . S
H1552 C1576 0.950 . S
H1553 C1577 0.951 . S
H1554 C1579 0.951 . S
H1555 C1581 0.950 . S
H1556 C1582 0.950 . S
H1557 C1584 0.950 . S
H1558 C1587 0.950 . S
H1559 C1588 0.950 . S
H1560 C1590 0.950 . S
H1561 C1591 0.950 . S
C1562 H1544 0.951 . S
C1562 C1563 1.366 . S
C1562 C1564 1.388 . S
C1563 C1562 1.366 . S
C1563 C1567 1.385 . S
C1564 H1545 0.951 . S
C1564 C1562 1.388 . S
C1564 C1565 1.366 . S
C1565 C1564 1.366 . S
C1565 C1566 1.414 . S
C1565 C1568 1.499 . S
C1566 H1546 0.950 . S
C1566 C1565 1.414 . S
C1566 C1567 1.374 . S
C1567 H1547 0.950 . S
C1567 C1563 1.385 . S
C1567 C1566 1.374 . S
C1568 C1565 1.499 . S
C1568 C1569 1.373 . S
C1568 C1570 1.389 . S
C1569 H1548 0.950 . S
C1569 C1568 1.373 . S
C1569 C1585 1.377 . S
C1570 C1568 1.389 . S
C1570 C1571 1.524 . S
C1570 C1584 1.377 . S
C1571 C1570 1.524 . S
C1571 C1572 1.397 . S
C1571 C1576 1.363 . S
C1572 H1549 0.950 . S
C1572 C1571 1.397 . S
C1572 C1573 1.334 . S
C1573 H1550 0.950 . S
C1573 C1572 1.334 . S
C1573 C1574 1.287 . S
C1574 C1573 1.287 . S
C1574 C1575 1.524 . S
C1574 H1593 0.913 . S
C1575 H1551 0.950 . S
C1575 C1574 1.524 . S
C1575 C1576 1.415 . S
C1576 H1552 0.950 . S
C1576 C1571 1.363 . S
C1576 C1575 1.415 . S
C1577 H1553 0.951 . S
C1577 C1578 1.366 . S
C1577 C1579 1.388 . S
C1578 C1577 1.366 . S
C1578 C1582 1.385 . S
C1579 H1554 0.951 . S
C1579 C1577 1.388 . S
C1579 C1580 1.366 . S
C1580 C1579 1.366 . S
C1580 C1581 1.414 . S
C1580 C1583 1.499 . S
C1581 H1555 0.950 . S
C1581 C1580 1.414 . S
C1581 C1582 1.374 . S
C1582 H1556 0.950 . S
C1582 C1578 1.385 . S
C1582 C1581 1.374 . S
C1583 C1580 1.499 . S
C1583 C1584 1.373 . S
C1583 C1585 1.389 . S
C1584 H1557 0.950 . S
C1584 C1570 1.377 . S
C1584 C1583 1.373 . S
C1585 C1569 1.377 . S
C1585 C1583 1.389 . S
C1585 C1586 1.524 . S
C1586 C1585 1.524 . S
C1586 C1587 1.397 . S
C1586 C1591 1.363 . S
C1587 H1558 0.950 . S
C1587 C1586 1.397 . S
C1587 C1588 1.334 . S
C1588 H1559 0.950 . S
C1588 C1587 1.334 . S
C1588 C1589 1.287 . S
C1589 C1588 1.287 . S
C1589 C1590 1.524 . S
C1589 H1592 0.999 . S
C1590 H1560 0.950 . S
C1590 C1589 1.524 . S
C1590 C1591 1.415 . S
C1591 H1561 0.950 . S
C1591 C1586 1.363 . S
C1591 C1590 1.415 . S
H1592 C1589 0.999 . S
H1593 C1574 0.913 . S
H1594 C1612 0.951 . S
H1595 C1614 0.951 . S
H1596 C1616 0.950 . S
H1597 C1617 0.950 . S
H1598 C1619 0.950 . S
H1599 C1622 0.950 . S
H1600 C1623 0.950 . S
H1601 C1625 0.950 . S
H1602 C1626 0.950 . S
H1603 C1627 0.951 . S
H1604 C1629 0.951 . S
H1605 C1631 0.950 . S
H1606 C1632 0.950 . S
H1607 C1634 0.950 . S
H1608 C1637 0.950 . S
H1609 C1638 0.950 . S
H1610 C1640 0.950 . S
H1611 C1641 0.950 . S
C1612 H1594 0.951 . S
C1612 C1613 1.366 . S
C1612 C1614 1.388 . S
C1613 C1612 1.366 . S
C1613 C1617 1.385 . S
C1614 H1595 0.951 . S
C1614 C1612 1.388 . S
C1614 C1615 1.366 . S
C1615 C1614 1.366 . S
C1615 C1616 1.414 . S
C1615 C1618 1.499 . S
C1616 H1596 0.950 . S
C1616 C1615 1.414 . S
C1616 C1617 1.374 . S
C1617 H1597 0.950 . S
C1617 C1613 1.385 . S
C1617 C1616 1.374 . S
C1618 C1615 1.499 . S
C1618 C1619 1.373 . S
C1618 C1620 1.389 . S
C1619 H1598 0.950 . S
C1619 C1618 1.373 . S
C1619 C1635 1.377 . S
C1620 C1618 1.389 . S
C1620 C1621 1.524 . S
C1620 C1634 1.377 . S
C1621 C1620 1.524 . S
C1621 C1622 1.397 . S
C1621 C1626 1.363 . S
C1622 H1599 0.950 . S
C1622 C1621 1.397 . S
C1622 C1623 1.334 . S
C1623 H1600 0.950 . S
C1623 C1622 1.334 . S
C1623 C1624 1.287 . S
C1624 C1623 1.287 . S
C1624 C1625 1.524 . S
C1624 H1643 0.913 . S
C1625 H1601 0.950 . S
C1625 C1624 1.524 . S
C1625 C1626 1.415 . S
C1626 H1602 0.950 . S
C1626 C1621 1.363 . S
C1626 C1625 1.415 . S
C1627 H1603 0.951 . S
C1627 C1628 1.366 . S
C1627 C1629 1.388 . S
C1628 C1627 1.366 . S
C1628 C1632 1.385 . S
C1629 H1604 0.951 . S
C1629 C1627 1.388 . S
C1629 C1630 1.366 . S
C1630 C1629 1.366 . S
C1630 C1631 1.414 . S
C1630 C1633 1.499 . S
C1631 H1605 0.950 . S
C1631 C1630 1.414 . S
C1631 C1632 1.374 . S
C1632 H1606 0.950 . S
C1632 C1628 1.385 . S
C1632 C1631 1.374 . S
C1633 C1630 1.499 . S
C1633 C1634 1.373 . S
C1633 C1635 1.389 . S
C1634 H1607 0.950 . S
C1634 C1620 1.377 . S
C1634 C1633 1.373 . S
C1635 C1619 1.377 . S
C1635 C1633 1.389 . S
C1635 C1636 1.524 . S
C1636 C1635 1.524 . S
C1636 C1637 1.397 . S
C1636 C1641 1.363 . S
C1637 H1608 0.950 . S
C1637 C1636 1.397 . S
C1637 C1638 1.334 . S
C1638 H1609 0.950 . S
C1638 C1637 1.334 . S
C1638 C1639 1.287 . S
C1639 C1638 1.287 . S
C1639 C1640 1.524 . S
C1639 H1642 0.999 . S
C1640 H1610 0.950 . S
C1640 C1639 1.524 . S
C1640 C1641 1.415 . S
C1641 H1611 0.950 . S
C1641 C1636 1.363 . S
C1641 C1640 1.415 . S
H1642 C1639 0.999 . S
H1643 C1624 0.913 . S
H1644 C1662 0.951 . S
H1645 C1664 0.951 . S
H1646 C1666 0.950 . S
H1647 C1667 0.950 . S
H1648 C1669 0.950 . S
H1649 C1672 0.950 . S
H1650 C1673 0.950 . S
H1651 C1675 0.950 . S
H1652 C1676 0.950 . S
H1653 C1677 0.951 . S
H1654 C1679 0.951 . S
H1655 C1681 0.950 . S
H1656 C1682 0.950 . S
H1657 C1684 0.950 . S
H1658 C1687 0.950 . S
H1659 C1688 0.950 . S
H1660 C1690 0.950 . S
H1661 C1691 0.950 . S
C1662 H1644 0.951 . S
C1662 C1663 1.366 . S
C1662 C1664 1.388 . S
C1663 C1662 1.366 . S
C1663 C1667 1.385 . S
C1664 H1645 0.951 . S
C1664 C1662 1.388 . S
C1664 C1665 1.366 . S
C1665 C1664 1.366 . S
C1665 C1666 1.414 . S
C1665 C1668 1.499 1_545 S
C1666 H1646 0.950 . S
C1666 C1665 1.414 . S
C1666 C1667 1.374 . S
C1667 H1647 0.950 . S
C1667 C1663 1.385 . S
C1667 C1666 1.374 . S
C1668 C1665 1.499 1_565 S
C1668 C1669 1.373 . S
C1668 C1670 1.389 . S
C1669 H1648 0.950 . S
C1669 C1668 1.373 . S
C1669 C1685 1.377 . S
C1670 C1668 1.389 . S
C1670 C1671 1.524 . S
C1670 C1684 1.377 . S
C1671 C1670 1.524 . S
C1671 C1672 1.397 . S
C1671 C1676 1.363 . S
C1672 H1649 0.950 . S
C1672 C1671 1.397 . S
C1672 C1673 1.334 1_565 S
C1673 H1650 0.950 . S
C1673 C1672 1.334 1_545 S
C1673 C1674 1.287 . S
C1674 C1673 1.287 . S
C1674 C1675 1.524 1_545 S
C1674 H1693 0.913 . S
C1675 H1651 0.950 . S
C1675 C1674 1.524 1_565 S
C1675 C1676 1.415 . S
C1676 H1652 0.950 . S
C1676 C1671 1.363 . S
C1676 C1675 1.415 . S
C1677 H1653 0.951 . S
C1677 C1678 1.366 . S
C1677 C1679 1.388 . S
C1678 C1677 1.366 . S
C1678 C1682 1.385 . S
C1679 H1654 0.951 . S
C1679 C1677 1.388 . S
C1679 C1680 1.366 . S
C1680 C1679 1.366 . S
C1680 C1681 1.414 . S
C1680 C1683 1.499 . S
C1681 H1655 0.950 . S
C1681 C1680 1.414 . S
C1681 C1682 1.374 . S
C1682 H1656 0.950 . S
C1682 C1678 1.385 . S
C1682 C1681 1.374 . S
C1683 C1680 1.499 . S
C1683 C1684 1.373 . S
C1683 C1685 1.389 . S
C1684 H1657 0.950 . S
C1684 C1670 1.377 . S
C1684 C1683 1.373 . S
C1685 C1669 1.377 . S
C1685 C1683 1.389 . S
C1685 C1686 1.524 . S
C1686 C1685 1.524 . S
C1686 C1687 1.397 . S
C1686 C1691 1.363 . S
C1687 H1658 0.950 . S
C1687 C1686 1.397 . S
C1687 C1688 1.334 . S
C1688 H1659 0.950 . S
C1688 C1687 1.334 . S
C1688 C1689 1.287 . S
C1689 C1688 1.287 . S
C1689 C1690 1.524 . S
C1689 H1692 0.999 . S
C1690 H1660 0.950 . S
C1690 C1689 1.524 . S
C1690 C1691 1.415 . S
C1691 H1661 0.950 . S
C1691 C1686 1.363 . S
C1691 C1690 1.415 . S
H1692 C1689 0.999 . S
H1693 C1674 0.913 . S
H1694 C1712 0.951 . S
H1695 C1714 0.951 1_455 S
H1696 C1716 0.950 . S
H1697 C1717 0.950 . S
H1698 C1719 0.950 . S
H1699 C1722 0.950 . S
H1700 C1723 0.950 . S
H1701 C1725 0.950 . S
H1702 C1726 0.950 . S
H1703 C1727 0.951 . S
H1704 C1729 0.951 . S
H1705 C1731 0.950 . S
H1706 C1732 0.950 . S
H1707 C1734 0.950 . S
H1708 C1737 0.950 . S
H1709 C1738 0.950 . S
H1710 C1740 0.950 . S
H1711 C1741 0.950 . S
C1712 H1694 0.951 . S
C1712 C1713 1.366 . S
C1712 C1714 1.388 . S
C1713 C1712 1.366 . S
C1713 C1717 1.385 . S
C1714 H1695 0.951 1_655 S
C1714 C1712 1.388 . S
C1714 C1715 1.366 1_655 S
C1715 C1714 1.366 1_455 S
C1715 C1716 1.414 . S
C1715 C1718 1.499 . S
C1716 H1696 0.950 . S
C1716 C1715 1.414 . S
C1716 C1717 1.374 1_455 S
C1717 H1697 0.950 . S
C1717 C1713 1.385 . S
C1717 C1716 1.374 1_655 S
C1718 C1715 1.499 . S
C1718 C1719 1.373 . S
C1718 C1720 1.389 . S
C1719 H1698 0.950 . S
C1719 C1718 1.373 . S
C1719 C1735 1.377 . S
C1720 C1718 1.389 . S
C1720 C1721 1.524 . S
C1720 C1734 1.377 . S
C1721 C1720 1.524 . S
C1721 C1722 1.397 . S
C1721 C1726 1.363 . S
C1722 H1699 0.950 . S
C1722 C1721 1.397 . S
C1722 C1723 1.334 . S
C1723 H1700 0.950 . S
C1723 C1722 1.334 . S
C1723 C1724 1.287 . S
C1724 C1723 1.287 . S
C1724 C1725 1.524 . S
C1724 H1743 0.913 . S
C1725 H1701 0.950 . S
C1725 C1724 1.524 . S
C1725 C1726 1.415 . S
C1726 H1702 0.950 . S
C1726 C1721 1.363 . S
C1726 C1725 1.415 . S
C1727 H1703 0.951 . S
C1727 C1728 1.366 . S
C1727 C1729 1.388 . S
C1728 C1727 1.366 . S
C1728 C1732 1.385 . S
C1729 H1704 0.951 . S
C1729 C1727 1.388 . S
C1729 C1730 1.366 . S
C1730 C1729 1.366 . S
C1730 C1731 1.414 . S
C1730 C1733 1.499 . S
C1731 H1705 0.950 . S
C1731 C1730 1.414 . S
C1731 C1732 1.374 . S
C1732 H1706 0.950 . S
C1732 C1728 1.385 . S
C1732 C1731 1.374 . S
C1733 C1730 1.499 . S
C1733 C1734 1.373 . S
C1733 C1735 1.389 . S
C1734 H1707 0.950 . S
C1734 C1720 1.377 . S
C1734 C1733 1.373 . S
C1735 C1719 1.377 . S
C1735 C1733 1.389 . S
C1735 C1736 1.524 . S
C1736 C1735 1.524 . S
C1736 C1737 1.397 . S
C1736 C1741 1.363 . S
C1737 H1708 0.950 . S
C1737 C1736 1.397 . S
C1737 C1738 1.334 . S
C1738 H1709 0.950 . S
C1738 C1737 1.334 . S
C1738 C1739 1.287 . S
C1739 C1738 1.287 . S
C1739 C1740 1.524 . S
C1739 H1742 0.999 . S
C1740 H1710 0.950 . S
C1740 C1739 1.524 . S
C1740 C1741 1.415 . S
C1741 H1711 0.950 . S
C1741 C1736 1.363 . S
C1741 C1740 1.415 . S
H1742 C1739 0.999 . S
H1743 C1724 0.913 . S
H1744 C1762 0.951 . S
H1745 C1764 0.951 . S
H1746 C1766 0.950 . S
H1747 C1767 0.950 . S
H1748 C1769 0.950 . S
H1749 C1772 0.950 . S
H1750 C1773 0.950 . S
H1751 C1775 0.950 . S
H1752 C1776 0.950 . S
H1753 C1777 0.951 . S
H1754 C1779 0.951 . S
H1755 C1781 0.950 . S
H1756 C1782 0.950 . S
H1757 C1784 0.950 . S
H1758 C1787 0.950 . S
H1759 C1788 0.950 . S
H1760 C1790 0.950 . S
H1761 C1791 0.950 . S
C1762 H1744 0.951 . S
C1762 C1763 1.366 . S
C1762 C1764 1.388 . S
C1763 C1762 1.366 . S
C1763 C1767 1.385 . S
C1764 H1745 0.951 . S
C1764 C1762 1.388 . S
C1764 C1765 1.366 . S
C1765 C1764 1.366 . S
C1765 C1766 1.414 . S
C1765 C1768 1.499 . S
C1766 H1746 0.950 . S
C1766 C1765 1.414 . S
C1766 C1767 1.374 . S
C1767 H1747 0.950 . S
C1767 C1763 1.385 . S
C1767 C1766 1.374 . S
C1768 C1765 1.499 . S
C1768 C1769 1.373 . S
C1768 C1770 1.389 . S
C1769 H1748 0.950 . S
C1769 C1768 1.373 . S
C1769 C1785 1.377 . S
C1770 C1768 1.389 . S
C1770 C1771 1.524 . S
C1770 C1784 1.377 . S
C1771 C1770 1.524 . S
C1771 C1772 1.397 . S
C1771 C1776 1.363 . S
C1772 H1749 0.950 . S
C1772 C1771 1.397 . S
C1772 C1773 1.334 . S
C1773 H1750 0.950 . S
C1773 C1772 1.334 . S
C1773 C1774 1.287 . S
C1774 C1773 1.287 . S
C1774 C1775 1.524 . S
C1774 H1793 0.913 . S
C1775 H1751 0.950 . S
C1775 C1774 1.524 . S
C1775 C1776 1.415 . S
C1776 H1752 0.950 . S
C1776 C1771 1.363 . S
C1776 C1775 1.415 . S
C1777 H1753 0.951 . S
C1777 C1778 1.366 . S
C1777 C1779 1.388 . S
C1778 C1777 1.366 . S
C1778 C1782 1.385 . S
C1779 H1754 0.951 . S
C1779 C1777 1.388 . S
C1779 C1780 1.366 . S
C1780 C1779 1.366 . S
C1780 C1781 1.414 . S
C1780 C1783 1.499 . S
C1781 H1755 0.950 . S
C1781 C1780 1.414 . S
C1781 C1782 1.374 . S
C1782 H1756 0.950 . S
C1782 C1778 1.385 . S
C1782 C1781 1.374 . S
C1783 C1780 1.499 . S
C1783 C1784 1.373 . S
C1783 C1785 1.389 . S
C1784 H1757 0.950 . S
C1784 C1770 1.377 . S
C1784 C1783 1.373 . S
C1785 C1769 1.377 . S
C1785 C1783 1.389 . S
C1785 C1786 1.524 . S
C1786 C1785 1.524 . S
C1786 C1787 1.397 . S
C1786 C1791 1.363 . S
C1787 H1758 0.950 . S
C1787 C1786 1.397 . S
C1787 C1788 1.334 . S
C1788 H1759 0.950 . S
C1788 C1787 1.334 . S
C1788 C1789 1.287 . S
C1789 C1788 1.287 . S
C1789 C1790 1.524 . S
C1789 H1792 0.999 . S
C1790 H1760 0.950 . S
C1790 C1789 1.524 . S
C1790 C1791 1.415 . S
C1791 H1761 0.950 . S
C1791 C1786 1.363 . S
C1791 C1790 1.415 . S
H1792 C1789 0.999 . S
H1793 C1774 0.913 . S
H1794 C1812 0.951 . S
H1795 C1814 0.951 . S
H1796 C1816 0.950 . S
H1797 C1817 0.950 . S
H1798 C1819 0.950 . S
H1799 C1822 0.950 . S
H1800 C1823 0.950 . S
H1801 C1825 0.950 . S
H1802 C1826 0.950 . S
H1803 C1827 0.951 . S
H1804 C1829 0.951 . S
H1805 C1831 0.950 . S
H1806 C1832 0.950 . S
H1807 C1834 0.950 . S
H1808 C1837 0.950 . S
H1809 C1838 0.950 . S
H1810 C1840 0.950 . S
H1811 C1841 0.950 . S
C1812 H1794 0.951 . S
C1812 C1813 1.366 . S
C1812 C1814 1.388 . S
C1813 C1812 1.366 . S
C1813 C1817 1.385 . S
C1814 H1795 0.951 . S
C1814 C1812 1.388 . S
C1814 C1815 1.366 . S
C1815 C1814 1.366 . S
C1815 C1816 1.414 . S
C1815 C1818 1.499 . S
C1816 H1796 0.950 . S
C1816 C1815 1.414 . S
C1816 C1817 1.374 . S
C1817 H1797 0.950 . S
C1817 C1813 1.385 . S
C1817 C1816 1.374 . S
C1818 C1815 1.499 . S
C1818 C1819 1.373 . S
C1818 C1820 1.389 . S
C1819 H1798 0.950 . S
C1819 C1818 1.373 . S
C1819 C1835 1.377 . S
C1820 C1818 1.389 . S
C1820 C1821 1.524 . S
C1820 C1834 1.377 . S
C1821 C1820 1.524 . S
C1821 C1822 1.397 . S
C1821 C1826 1.363 . S
C1822 H1799 0.950 . S
C1822 C1821 1.397 . S
C1822 C1823 1.334 . S
C1823 H1800 0.950 . S
C1823 C1822 1.334 . S
C1823 C1824 1.287 . S
C1824 C1823 1.287 . S
C1824 C1825 1.524 . S
C1824 H1843 0.913 . S
C1825 H1801 0.950 . S
C1825 C1824 1.524 . S
C1825 C1826 1.415 . S
C1826 H1802 0.950 . S
C1826 C1821 1.363 . S
C1826 C1825 1.415 . S
C1827 H1803 0.951 . S
C1827 C1828 1.366 . S
C1827 C1829 1.388 . S
C1828 C1827 1.366 . S
C1828 C1832 1.385 . S
C1829 H1804 0.951 . S
C1829 C1827 1.388 . S
C1829 C1830 1.366 . S
C1830 C1829 1.366 . S
C1830 C1831 1.414 . S
C1830 C1833 1.499 . S
C1831 H1805 0.950 . S
C1831 C1830 1.414 . S
C1831 C1832 1.374 . S
C1832 H1806 0.950 . S
C1832 C1828 1.385 . S
C1832 C1831 1.374 . S
C1833 C1830 1.499 . S
C1833 C1834 1.373 . S
C1833 C1835 1.389 . S
C1834 H1807 0.950 . S
C1834 C1820 1.377 . S
C1834 C1833 1.373 . S
C1835 C1819 1.377 . S
C1835 C1833 1.389 . S
C1835 C1836 1.524 . S
C1836 C1835 1.524 . S
C1836 C1837 1.397 . S
C1836 C1841 1.363 . S
C1837 H1808 0.950 . S
C1837 C1836 1.397 . S
C1837 C1838 1.334 . S
C1838 H1809 0.950 . S
C1838 C1837 1.334 . S
C1838 C1839 1.287 . S
C1839 C1838 1.287 . S
C1839 C1840 1.524 . S
C1839 H1842 0.999 . S
C1840 H1810 0.950 . S
C1840 C1839 1.524 . S
C1840 C1841 1.415 . S
C1841 H1811 0.950 . S
C1841 C1836 1.363 . S
C1841 C1840 1.415 . S
H1842 C1839 0.999 . S
H1843 C1824 0.913 . S
H1844 C1862 0.951 . S
H1845 C1864 0.951 . S
H1846 C1866 0.950 . S
H1847 C1867 0.950 . S
H1848 C1869 0.950 . S
H1849 C1872 0.950 . S
H1850 C1873 0.950 . S
H1851 C1875 0.950 . S
H1852 C1876 0.950 . S
H1853 C1877 0.951 . S
H1854 C1879 0.951 . S
H1855 C1881 0.950 . S
H1856 C1882 0.950 . S
H1857 C1884 0.950 . S
H1858 C1887 0.950 . S
H1859 C1888 0.950 . S
H1860 C1890 0.950 . S
H1861 C1891 0.950 . S
C1862 H1844 0.951 . S
C1862 C1863 1.366 . S
C1862 C1864 1.388 . S
C1863 C1862 1.366 . S
C1863 C1867 1.385 . S
C1864 H1845 0.951 . S
C1864 C1862 1.388 . S
C1864 C1865 1.366 . S
C1865 C1864 1.366 . S
C1865 C1866 1.414 . S
C1865 C1868 1.499 . S
C1866 H1846 0.950 . S
C1866 C1865 1.414 . S
C1866 C1867 1.374 . S
C1867 H1847 0.950 . S
C1867 C1863 1.385 . S
C1867 C1866 1.374 . S
C1868 C1865 1.499 . S
C1868 C1869 1.373 . S
C1868 C1870 1.389 . S
C1869 H1848 0.950 . S
C1869 C1868 1.373 . S
C1869 C1885 1.377 . S
C1870 C1868 1.389 . S
C1870 C1871 1.524 . S
C1870 C1884 1.377 . S
C1871 C1870 1.524 . S
C1871 C1872 1.397 . S
C1871 C1876 1.363 . S
C1872 H1849 0.950 . S
C1872 C1871 1.397 . S
C1872 C1873 1.334 . S
C1873 H1850 0.950 . S
C1873 C1872 1.334 . S
C1873 C1874 1.287 . S
C1874 C1873 1.287 . S
C1874 C1875 1.524 . S
C1874 H1893 0.913 . S
C1875 H1851 0.950 . S
C1875 C1874 1.524 . S
C1875 C1876 1.415 . S
C1876 H1852 0.950 . S
C1876 C1871 1.363 . S
C1876 C1875 1.415 . S
C1877 H1853 0.951 . S
C1877 C1878 1.366 . S
C1877 C1879 1.388 . S
C1878 C1877 1.366 . S
C1878 C1882 1.385 . S
C1879 H1854 0.951 . S
C1879 C1877 1.388 . S
C1879 C1880 1.366 . S
C1880 C1879 1.366 . S
C1880 C1881 1.414 . S
C1880 C1883 1.499 . S
C1881 H1855 0.950 . S
C1881 C1880 1.414 . S
C1881 C1882 1.374 . S
C1882 H1856 0.950 . S
C1882 C1878 1.385 . S
C1882 C1881 1.374 . S
C1883 C1880 1.499 . S
C1883 C1884 1.373 . S
C1883 C1885 1.389 . S
C1884 H1857 0.950 . S
C1884 C1870 1.377 . S
C1884 C1883 1.373 . S
C1885 C1869 1.377 . S
C1885 C1883 1.389 . S
C1885 C1886 1.524 . S
C1886 C1885 1.524 . S
C1886 C1887 1.397 . S
C1886 C1891 1.363 . S
C1887 H1858 0.950 . S
C1887 C1886 1.397 . S
C1887 C1888 1.334 . S
C1888 H1859 0.950 . S
C1888 C1887 1.334 . S
C1888 C1889 1.287 . S
C1889 C1888 1.287 . S
C1889 C1890 1.524 . S
C1889 H1892 0.999 . S
C1890 H1860 0.950 . S
C1890 C1889 1.524 . S
C1890 C1891 1.415 . S
C1891 H1861 0.950 . S
C1891 C1886 1.363 . S
C1891 C1890 1.415 . S
H1892 C1889 0.999 . S
H1893 C1874 0.913 . S
H1894 C1912 0.951 . S
H1895 C1914 0.951 . S
H1896 C1916 0.950 . S
H1897 C1917 0.950 . S
H1898 C1919 0.950 . S
H1899 C1922 0.950 . S
H1900 C1923 0.950 . S
H1901 C1925 0.950 . S
H1902 C1926 0.950 . S
H1903 C1927 0.951 . S
H1904 C1929 0.951 . S
H1905 C1931 0.950 . S
H1906 C1932 0.950 . S
H1907 C1934 0.950 . S
H1908 C1937 0.950 . S
H1909 C1938 0.950 . S
H1910 C1940 0.950 . S
H1911 C1941 0.950 . S
C1912 H1894 0.951 . S
C1912 C1913 1.366 . S
C1912 C1914 1.388 . S
C1913 C1912 1.366 . S
C1913 C1917 1.385 . S
C1914 H1895 0.951 . S
C1914 C1912 1.388 . S
C1914 C1915 1.366 . S
C1915 C1914 1.366 . S
C1915 C1916 1.414 . S
C1915 C1918 1.499 . S
C1916 H1896 0.950 . S
C1916 C1915 1.414 . S
C1916 C1917 1.374 . S
C1917 H1897 0.950 . S
C1917 C1913 1.385 . S
C1917 C1916 1.374 . S
C1918 C1915 1.499 . S
C1918 C1919 1.373 . S
C1918 C1920 1.389 . S
C1919 H1898 0.950 . S
C1919 C1918 1.373 . S
C1919 C1935 1.377 . S
C1920 C1918 1.389 . S
C1920 C1921 1.524 . S
C1920 C1934 1.377 . S
C1921 C1920 1.524 . S
C1921 C1922 1.397 . S
C1921 C1926 1.363 . S
C1922 H1899 0.950 . S
C1922 C1921 1.397 . S
C1922 C1923 1.334 . S
C1923 H1900 0.950 . S
C1923 C1922 1.334 . S
C1923 C1924 1.287 . S
C1924 C1923 1.287 . S
C1924 C1925 1.524 . S
C1924 H1943 0.913 . S
C1925 H1901 0.950 . S
C1925 C1924 1.524 . S
C1925 C1926 1.415 . S
C1926 H1902 0.950 . S
C1926 C1921 1.363 . S
C1926 C1925 1.415 . S
C1927 H1903 0.951 . S
C1927 C1928 1.366 . S
C1927 C1929 1.388 . S
C1928 C1927 1.366 . S
C1928 C1932 1.385 . S
C1929 H1904 0.951 . S
C1929 C1927 1.388 . S
C1929 C1930 1.366 . S
C1930 C1929 1.366 . S
C1930 C1931 1.414 . S
C1930 C1933 1.499 . S
C1931 H1905 0.950 . S
C1931 C1930 1.414 . S
C1931 C1932 1.374 . S
C1932 H1906 0.950 . S
C1932 C1928 1.385 . S
C1932 C1931 1.374 . S
C1933 C1930 1.499 . S
C1933 C1934 1.373 . S
C1933 C1935 1.389 . S
C1934 H1907 0.950 . S
C1934 C1920 1.377 . S
C1934 C1933 1.373 . S
C1935 C1919 1.377 . S
C1935 C1933 1.389 . S
C1935 C1936 1.524 . S
C1936 C1935 1.524 . S
C1936 C1937 1.397 . S
C1936 C1941 1.363 . S
C1937 H1908 0.950 . S
C1937 C1936 1.397 . S
C1937 C1938 1.334 . S
C1938 H1909 0.950 . S
C1938 C1937 1.334 . S
C1938 C1939 1.287 . S
C1939 C1938 1.287 . S
C1939 C1940 1.524 . S
C1939 H1942 0.999 . S
C1940 H1910 0.950 . S
C1940 C1939 1.524 . S
C1940 C1941 1.415 . S
C1941 H1911 0.950 . S
C1941 C1936 1.363 . S
C1941 C1940 1.415 . S
H1942 C1939 0.999 . S
H1943 C1924 0.913 . S
H1944 C1962 0.951 . S
H1945 C1964 0.951 . S
H1946 C1966 0.950 . S
H1947 C1967 0.950 . S
H1948 C1969 0.950 . S
H1949 C1972 0.950 . S
H1950 C1973 0.950 . S
H1951 C1975 0.950 . S
H1952 C1976 0.950 . S
H1953 C1977 0.951 . S
H1954 C1979 0.951 . S
H1955 C1981 0.950 . S
H1956 C1982 0.950 . S
H1957 C1984 0.950 . S
H1958 C1987 0.950 . S
H1959 C1988 0.950 . S
H1960 C1990 0.950 . S
H1961 C1991 0.950 . S
C1962 H1944 0.951 . S
C1962 C1963 1.366 . S
C1962 C1964 1.388 . S
C1963 C1962 1.366 . S
C1963 C1967 1.385 . S
C1964 H1945 0.951 . S
C1964 C1962 1.388 . S
C1964 C1965 1.366 . S
C1965 C1964 1.366 . S
C1965 C1966 1.414 . S
C1965 C1968 1.499 . S
C1966 H1946 0.950 . S
C1966 C1965 1.414 . S
C1966 C1967 1.374 . S
C1967 H1947 0.950 . S
C1967 C1963 1.385 . S
C1967 C1966 1.374 . S
C1968 C1965 1.499 . S
C1968 C1969 1.373 . S
C1968 C1970 1.389 . S
C1969 H1948 0.950 . S
C1969 C1968 1.373 . S
C1969 C1985 1.377 1_565 S
C1970 C1968 1.389 . S
C1970 C1971 1.524 . S
C1970 C1984 1.377 1_565 S
C1971 C1970 1.524 . S
C1971 C1972 1.397 . S
C1971 C1976 1.363 . S
C1972 H1949 0.950 . S
C1972 C1971 1.397 . S
C1972 C1973 1.334 . S
C1973 H1950 0.950 . S
C1973 C1972 1.334 . S
C1973 C1974 1.287 . S
C1974 C1973 1.287 . S
C1974 C1975 1.524 . S
C1974 H1993 0.913 . S
C1975 H1951 0.950 . S
C1975 C1974 1.524 . S
C1975 C1976 1.415 . S
C1976 H1952 0.950 . S
C1976 C1971 1.363 . S
C1976 C1975 1.415 . S
C1977 H1953 0.951 . S
C1977 C1978 1.366 . S
C1977 C1979 1.388 . S
C1978 C1977 1.366 . S
C1978 C1982 1.385 . S
C1979 H1954 0.951 . S
C1979 C1977 1.388 . S
C1979 C1980 1.366 . S
C1980 C1979 1.366 . S
C1980 C1981 1.414 . S
C1980 C1983 1.499 . S
C1981 H1955 0.950 . S
C1981 C1980 1.414 . S
C1981 C1982 1.374 . S
C1982 H1956 0.950 . S
C1982 C1978 1.385 . S
C1982 C1981 1.374 . S
C1983 C1980 1.499 . S
C1983 C1984 1.373 . S
C1983 C1985 1.389 . S
C1984 H1957 0.950 . S
C1984 C1970 1.377 1_545 S
C1984 C1983 1.373 . S
C1985 C1969 1.377 1_545 S
C1985 C1983 1.389 . S
C1985 C1986 1.524 . S
C1986 C1985 1.524 . S
C1986 C1987 1.397 . S
C1986 C1991 1.363 . S
C1987 H1958 0.950 . S
C1987 C1986 1.397 . S
C1987 C1988 1.334 . S
C1988 H1959 0.950 . S
C1988 C1987 1.334 . S
C1988 C1989 1.287 . S
C1989 C1988 1.287 . S
C1989 C1990 1.524 . S
C1989 H1992 0.999 . S
C1990 H1960 0.950 . S
C1990 C1989 1.524 . S
C1990 C1991 1.415 . S
C1991 H1961 0.950 . S
C1991 C1986 1.363 . S
C1991 C1990 1.415 . S
H1992 C1989 0.999 . S
H1993 C1974 0.913 . S
H1994 C2012 0.951 . S
H1995 C2014 0.951 . S
H1996 C2016 0.950 . S
H1997 C2017 0.950 . S
H1998 C2019 0.959 . S
H1999 C2022 0.950 . S
H2000 C2023 0.950 . S
H2001 C2025 0.950 . S
H2002 C2026 0.950 . S
H2003 C2027 0.951 . S
H2004 C2029 0.951 . S
H2005 C2031 0.950 . S
H2006 C2032 0.950 . S
H2007 C2034 0.959 . S
H2008 C2037 0.950 . S
H2009 C2038 0.950 . S
H2010 C2040 0.950 . S
H2011 C2041 0.950 . S
C2012 H1994 0.951 . S
C2012 C2013 1.366 . S
C2012 C2014 1.388 . S
C2013 C2012 1.366 . S
C2013 C2017 1.385 . S
C2014 H1995 0.951 . S
C2014 C2012 1.388 . S
C2014 C2015 1.366 . S
C2015 C2014 1.366 . S
C2015 C2016 1.414 . S
C2015 C2018 1.499 . S
C2016 H1996 0.950 . S
C2016 C2015 1.414 . S
C2016 C2017 1.374 . S
C2017 H1997 0.950 . S
C2017 C2013 1.385 . S
C2017 C2016 1.374 . S
C2018 C2015 1.499 . S
C2018 C2019 1.374 1_455 S
C2018 C2020 1.389 . S
C2019 H1998 0.959 . S
C2019 C2018 1.374 1_655 S
C2019 C2035 1.376 . S
C2020 C2018 1.389 . S
C2020 C2021 1.524 . S
C2020 C2034 1.394 . S
C2021 C2020 1.524 . S
C2021 C2022 1.397 . S
C2021 C2026 1.363 . S
C2022 H1999 0.950 . S
C2022 C2021 1.397 . S
C2022 C2023 1.334 . S
C2023 H2000 0.950 . S
C2023 C2022 1.334 . S
C2023 C2024 1.287 . S
C2024 C2023 1.287 . S
C2024 C2025 1.524 . S
C2024 H2043 0.913 . S
C2025 H2001 0.950 . S
C2025 C2024 1.524 . S
C2025 C2026 1.415 . S
C2026 H2002 0.950 . S
C2026 C2021 1.363 . S
C2026 C2025 1.415 . S
C2027 H2003 0.951 . S
C2027 C2028 1.366 . S
C2027 C2029 1.388 . S
C2028 C2027 1.366 . S
C2028 C2032 1.385 . S
C2029 H2004 0.951 . S
C2029 C2027 1.388 . S
C2029 C2030 1.366 . S
C2030 C2029 1.366 . S
C2030 C2031 1.414 . S
C2030 C2033 1.499 . S
C2031 H2005 0.950 . S
C2031 C2030 1.414 . S
C2031 C2032 1.374 . S
C2032 H2006 0.950 . S
C2032 C2028 1.385 . S
C2032 C2031 1.374 . S
C2033 C2030 1.499 . S
C2033 C2034 1.361 1_655 S
C2033 C2035 1.389 . S
C2034 H2007 0.959 . S
C2034 C2020 1.394 . S
C2034 C2033 1.361 1_455 S
C2035 C2019 1.376 . S
C2035 C2033 1.389 . S
C2035 C2036 1.524 . S
C2036 C2035 1.524 . S
C2036 C2037 1.397 . S
C2036 C2041 1.363 . S
C2037 H2008 0.950 . S
C2037 C2036 1.397 . S
C2037 C2038 1.334 . S
C2038 H2009 0.950 . S
C2038 C2037 1.334 . S
C2038 C2039 1.287 . S
C2039 C2038 1.287 . S
C2039 C2040 1.524 . S
C2039 H2042 0.999 . S
C2040 H2010 0.950 . S
C2040 C2039 1.524 . S
C2040 C2041 1.415 . S
C2041 H2011 0.950 . S
C2041 C2036 1.363 . S
C2041 C2040 1.415 . S
H2042 C2039 0.999 . S
H2043 C2024 0.913 . S
H2044 C2062 0.951 . S
H2045 C2064 0.951 . S
H2046 C2066 0.950 . S
H2047 C2067 0.950 . S
H2048 C2069 0.950 . S
H2049 C2072 0.950 . S
H2050 C2073 0.950 . S
H2051 C2075 0.950 . S
H2052 C2076 0.950 . S
H2053 C2077 0.951 . S
H2054 C2079 0.951 . S
H2055 C2081 0.950 . S
H2056 C2082 0.950 . S
H2057 C2084 0.950 . S
H2058 C2087 0.950 . S
H2059 C2088 0.950 . S
H2060 C2090 0.950 . S
H2061 C2091 0.950 . S
C2062 H2044 0.951 . S
C2062 C2063 1.366 . S
C2062 C2064 1.388 . S
C2063 C2062 1.366 . S
C2063 C2067 1.385 . S
C2064 H2045 0.951 . S
C2064 C2062 1.388 . S
C2064 C2065 1.366 . S
C2065 C2064 1.366 . S
C2065 C2066 1.414 . S
C2065 C2068 1.499 . S
C2066 H2046 0.950 . S
C2066 C2065 1.414 . S
C2066 C2067 1.374 . S
C2067 H2047 0.950 . S
C2067 C2063 1.385 . S
C2067 C2066 1.374 . S
C2068 C2065 1.499 . S
C2068 C2069 1.373 . S
C2068 C2070 1.389 . S
C2069 H2048 0.950 . S
C2069 C2068 1.373 . S
C2069 C2085 1.377 . S
C2070 C2068 1.389 . S
C2070 C2071 1.524 . S
C2070 C2084 1.377 . S
C2071 C2070 1.524 . S
C2071 C2072 1.397 . S
C2071 C2076 1.363 . S
C2072 H2049 0.950 . S
C2072 C2071 1.397 . S
C2072 C2073 1.334 . S
C2073 H2050 0.950 . S
C2073 C2072 1.334 . S
C2073 C2074 1.287 . S
C2074 C2073 1.287 . S
C2074 C2075 1.524 . S
C2074 H2093 0.913 . S
C2075 H2051 0.950 . S
C2075 C2074 1.524 . S
C2075 C2076 1.415 . S
C2076 H2052 0.950 . S
C2076 C2071 1.363 . S
C2076 C2075 1.415 . S
C2077 H2053 0.951 . S
C2077 C2078 1.366 . S
C2077 C2079 1.388 . S
C2078 C2077 1.366 . S
C2078 C2082 1.385 . S
C2079 H2054 0.951 . S
C2079 C2077 1.388 . S
C2079 C2080 1.366 . S
C2080 C2079 1.366 . S
C2080 C2081 1.414 . S
C2080 C2083 1.499 . S
C2081 H2055 0.950 . S
C2081 C2080 1.414 . S
C2081 C2082 1.374 . S
C2082 H2056 0.950 . S
C2082 C2078 1.385 . S
C2082 C2081 1.374 . S
C2083 C2080 1.499 . S
C2083 C2084 1.373 . S
C2083 C2085 1.389 . S
C2084 H2057 0.950 . S
C2084 C2070 1.377 . S
C2084 C2083 1.373 . S
C2085 C2069 1.377 . S
C2085 C2083 1.389 . S
C2085 C2086 1.524 . S
C2086 C2085 1.524 . S
C2086 C2087 1.397 . S
C2086 C2091 1.363 . S
C2087 H2058 0.950 . S
C2087 C2086 1.397 . S
C2087 C2088 1.334 . S
C2088 H2059 0.950 . S
C2088 C2087 1.334 . S
C2088 C2089 1.287 . S
C2089 C2088 1.287 . S
C2089 C2090 1.524 . S
C2089 H2092 0.999 . S
C2090 H2060 0.950 . S
C2090 C2089 1.524 . S
C2090 C2091 1.415 . S
C2091 H2061 0.950 . S
C2091 C2086 1.363 . S
C2091 C2090 1.415 . S
H2092 C2089 0.999 . S
H2093 C2074 0.913 . S
H2094 C2112 0.951 . S
H2095 C2114 0.951 . S
H2096 C2116 0.950 . S
H2097 C2117 0.950 . S
H2098 C2119 0.950 . S
H2099 C2122 0.950 . S
H2100 C2123 0.950 1_455 S
H2101 C2125 0.950 . S
H2102 C2126 0.950 . S
H2103 C2127 0.951 . S
H2104 C2129 0.951 . S
H2105 C2131 0.950 . S
H2106 C2132 0.950 . S
H2107 C2134 0.950 . S
H2108 C2137 0.950 . S
H2109 C2138 0.950 . S
H2110 C2140 0.950 . S
H2111 C2141 0.950 . S
C2112 H2094 0.951 . S
C2112 C2113 1.366 . S
C2112 C2114 1.388 . S
C2113 C2112 1.366 . S
C2113 C2117 1.385 . S
C2114 H2095 0.951 . S
C2114 C2112 1.388 . S
C2114 C2115 1.366 . S
C2115 C2114 1.366 . S
C2115 C2116 1.414 . S
C2115 C2118 1.499 1_455 S
C2116 H2096 0.950 . S
C2116 C2115 1.414 . S
C2116 C2117 1.374 . S
C2117 H2097 0.950 . S
C2117 C2113 1.385 . S
C2117 C2116 1.374 . S
C2118 C2115 1.499 1_655 S
C2118 C2119 1.373 . S
C2118 C2120 1.389 . S
C2119 H2098 0.950 . S
C2119 C2118 1.373 . S
C2119 C2135 1.377 . S
C2120 C2118 1.389 . S
C2120 C2121 1.524 . S
C2120 C2134 1.377 . S
C2121 C2120 1.524 . S
C2121 C2122 1.397 . S
C2121 C2126 1.363 . S
C2122 H2099 0.950 . S
C2122 C2121 1.397 . S
C2122 C2123 1.334 . S
C2123 H2100 0.950 1_655 S
C2123 C2122 1.334 . S
C2123 C2124 1.287 . S
C2124 C2123 1.287 . S
C2124 C2125 1.524 . S
C2124 H2143 0.913 1_655 S
C2125 H2101 0.950 . S
C2125 C2124 1.524 . S
C2125 C2126 1.415 . S
C2126 H2102 0.950 . S
C2126 C2121 1.363 . S
C2126 C2125 1.415 . S
C2127 H2103 0.951 . S
C2127 C2128 1.366 . S
C2127 C2129 1.388 . S
C2128 C2127 1.366 . S
C2128 C2132 1.385 . S
C2129 H2104 0.951 . S
C2129 C2127 1.388 . S
C2129 C2130 1.366 . S
C2130 C2129 1.366 . S
C2130 C2131 1.414 . S
C2130 C2133 1.499 . S
C2131 H2105 0.950 . S
C2131 C2130 1.414 . S
C2131 C2132 1.374 . S
C2132 H2106 0.950 . S
C2132 C2128 1.385 . S
C2132 C2131 1.374 . S
C2133 C2130 1.499 . S
C2133 C2134 1.373 . S
C2133 C2135 1.389 . S
C2134 H2107 0.950 . S
C2134 C2120 1.377 . S
C2134 C2133 1.373 . S
C2135 C2119 1.377 . S
C2135 C2133 1.389 . S
C2135 C2136 1.524 . S
C2136 C2135 1.524 . S
C2136 C2137 1.397 . S
C2136 C2141 1.363 . S
C2137 H2108 0.950 . S
C2137 C2136 1.397 . S
C2137 C2138 1.334 . S
C2138 H2109 0.950 . S
C2138 C2137 1.334 . S
C2138 C2139 1.287 . S
C2139 C2138 1.287 . S
C2139 C2140 1.524 . S
C2139 H2142 0.999 . S
C2140 H2110 0.950 . S
C2140 C2139 1.524 . S
C2140 C2141 1.415 . S
C2141 H2111 0.950 . S
C2141 C2136 1.363 . S
C2141 C2140 1.415 . S
H2142 C2139 0.999 . S
H2143 C2124 0.913 1_455 S
H2144 C2162 0.951 . S
H2145 C2164 0.951 . S
H2146 C2166 0.950 . S
H2147 C2167 0.950 . S
H2148 C2169 0.950 . S
H2149 C2172 0.950 . S
H2150 C2173 0.950 . S
H2151 C2175 0.950 . S
H2152 C2176 0.950 . S
H2153 C2177 0.951 . S
H2154 C2179 0.951 . S
H2155 C2181 0.950 . S
H2156 C2182 0.950 . S
H2157 C2184 0.950 . S
H2158 C2187 0.950 . S
H2159 C2188 0.950 . S
H2160 C2190 0.950 . S
H2161 C2191 0.950 . S
C2162 H2144 0.951 . S
C2162 C2163 1.366 . S
C2162 C2164 1.388 . S
C2163 C2162 1.366 . S
C2163 C2167 1.385 . S
C2164 H2145 0.951 . S
C2164 C2162 1.388 . S
C2164 C2165 1.366 . S
C2165 C2164 1.366 . S
C2165 C2166 1.414 . S
C2165 C2168 1.499 . S
C2166 H2146 0.950 . S
C2166 C2165 1.414 . S
C2166 C2167 1.374 . S
C2167 H2147 0.950 . S
C2167 C2163 1.385 . S
C2167 C2166 1.374 . S
C2168 C2165 1.499 . S
C2168 C2169 1.373 . S
C2168 C2170 1.389 . S
C2169 H2148 0.950 . S
C2169 C2168 1.373 . S
C2169 C2185 1.377 . S
C2170 C2168 1.389 . S
C2170 C2171 1.524 . S
C2170 C2184 1.377 . S
C2171 C2170 1.524 . S
C2171 C2172 1.397 . S
C2171 C2176 1.363 . S
C2172 H2149 0.950 . S
C2172 C2171 1.397 . S
C2172 C2173 1.334 . S
C2173 H2150 0.950 . S
C2173 C2172 1.334 . S
C2173 C2174 1.287 . S
C2174 C2173 1.287 . S
C2174 C2175 1.524 . S
C2174 H2193 0.913 . S
C2175 H2151 0.950 . S
C2175 C2174 1.524 . S
C2175 C2176 1.415 . S
C2176 H2152 0.950 . S
C2176 C2171 1.363 . S
C2176 C2175 1.415 . S
C2177 H2153 0.951 . S
C2177 C2178 1.366 . S
C2177 C2179 1.388 . S
C2178 C2177 1.366 . S
C2178 C2182 1.385 . S
C2179 H2154 0.951 . S
C2179 C2177 1.388 . S
C2179 C2180 1.366 . S
C2180 C2179 1.366 . S
C2180 C2181 1.414 . S
C2180 C2183 1.499 . S
C2181 H2155 0.950 . S
C2181 C2180 1.414 . S
C2181 C2182 1.374 . S
C2182 H2156 0.950 . S
C2182 C2178 1.385 . S
C2182 C2181 1.374 . S
C2183 C2180 1.499 . S
C2183 C2184 1.373 . S
C2183 C2185 1.389 . S
C2184 H2157 0.950 . S
C2184 C2170 1.377 . S
C2184 C2183 1.373 . S
C2185 C2169 1.377 . S
C2185 C2183 1.389 . S
C2185 C2186 1.524 . S
C2186 C2185 1.524 . S
C2186 C2187 1.397 . S
C2186 C2191 1.363 . S
C2187 H2158 0.950 . S
C2187 C2186 1.397 . S
C2187 C2188 1.334 . S
C2188 H2159 0.950 . S
C2188 C2187 1.334 . S
C2188 C2189 1.287 . S
C2189 C2188 1.287 . S
C2189 C2190 1.524 . S
C2189 H2192 0.999 . S
C2190 H2160 0.950 . S
C2190 C2189 1.524 . S
C2190 C2191 1.415 . S
C2191 H2161 0.950 . S
C2191 C2186 1.363 . S
C2191 C2190 1.415 . S
H2192 C2189 0.999 . S
H2193 C2174 0.913 . S
H2194 C2212 0.951 . S
H2195 C2214 0.951 . S
H2196 C2216 0.950 . S
H2197 C2217 0.950 . S
H2198 C2219 0.950 . S
H2199 C2222 0.950 . S
H2200 C2223 0.950 1_565 S
H2201 C2225 0.950 . S
H2202 C2226 0.950 . S
H2203 C2227 0.951 . S
H2204 C2229 0.951 . S
H2205 C2231 0.950 . S
H2206 C2232 0.950 . S
H2207 C2234 0.950 . S
H2208 C2237 0.950 . S
H2209 C2238 0.950 . S
H2210 C2240 0.950 . S
H2211 C2241 0.950 . S
C2212 H2194 0.951 . S
C2212 C2213 1.366 . S
C2212 C2214 1.388 . S
C2213 C2212 1.366 . S
C2213 C2217 1.385 . S
C2214 H2195 0.951 . S
C2214 C2212 1.388 . S
C2214 C2215 1.366 . S
C2215 C2214 1.366 . S
C2215 C2216 1.414 . S
C2215 C2218 1.499 1_565 S
C2216 H2196 0.950 . S
C2216 C2215 1.414 . S
C2216 C2217 1.374 . S
C2217 H2197 0.950 . S
C2217 C2213 1.385 . S
C2217 C2216 1.374 . S
C2218 C2215 1.499 1_545 S
C2218 C2219 1.373 . S
C2218 C2220 1.389 . S
C2219 H2198 0.950 . S
C2219 C2218 1.373 . S
C2219 C2235 1.377 . S
C2220 C2218 1.389 . S
C2220 C2221 1.524 . S
C2220 C2234 1.377 . S
C2221 C2220 1.524 . S
C2221 C2222 1.397 . S
C2221 C2226 1.363 . S
C2222 H2199 0.950 . S
C2222 C2221 1.397 . S
C2222 C2223 1.334 . S
C2223 H2200 0.950 1_545 S
C2223 C2222 1.334 . S
C2223 C2224 1.287 . S
C2224 C2223 1.287 . S
C2224 C2225 1.524 . S
C2224 H2243 0.915 . S
C2225 H2201 0.950 . S
C2225 C2224 1.524 . S
C2225 C2226 1.415 . S
C2226 H2202 0.950 . S
C2226 C2221 1.363 . S
C2226 C2225 1.415 . S
C2227 H2203 0.951 . S
C2227 C2228 1.366 . S
C2227 C2229 1.388 . S
C2228 C2227 1.366 . S
C2228 C2232 1.385 . S
C2229 H2204 0.951 . S
C2229 C2227 1.388 . S
C2229 C2230 1.366 . S
C2230 C2229 1.366 . S
C2230 C2231 1.414 . S
C2230 C2233 1.499 . S
C2231 H2205 0.950 . S
C2231 C2230 1.414 . S
C2231 C2232 1.374 . S
C2232 H2206 0.950 . S
C2232 C2228 1.385 . S
C2232 C2231 1.374 . S
C2233 C2230 1.499 . S
C2233 C2234 1.373 . S
C2233 C2235 1.389 . S
C2234 H2207 0.950 . S
C2234 C2220 1.377 . S
C2234 C2233 1.373 . S
C2235 C2219 1.377 . S
C2235 C2233 1.389 . S
C2235 C2236 1.524 . S
C2236 C2235 1.524 . S
C2236 C2237 1.397 . S
C2236 C2241 1.363 . S
C2237 H2208 0.950 . S
C2237 C2236 1.397 . S
C2237 C2238 1.334 . S
C2238 H2209 0.950 . S
C2238 C2237 1.334 . S
C2238 C2239 1.287 . S
C2239 C2238 1.287 . S
C2239 C2240 1.524 . S
C2239 H2242 0.999 . S
C2240 H2210 0.950 . S
C2240 C2239 1.524 . S
C2240 C2241 1.415 . S
C2241 H2211 0.950 . S
C2241 C2236 1.363 . S
C2241 C2240 1.415 . S
H2242 C2239 0.999 . S
H2243 C2224 0.915 . S
H2244 C2262 0.951 . S
H2245 C2264 0.951 . S
H2246 C2266 0.950 . S
H2247 C2267 0.950 . S
H2248 C2269 0.950 . S
H2249 C2272 0.950 . S
H2250 C2273 0.950 . S
H2251 C2275 0.950 . S
H2252 C2276 0.950 . S
H2253 C2277 0.951 . S
H2254 C2279 0.951 . S
H2255 C2281 0.950 . S
H2256 C2282 0.950 . S
H2257 C2284 0.950 . S
H2258 C2287 0.950 . S
H2259 C2288 0.950 . S
H2260 C2290 0.950 . S
H2261 C2291 0.950 . S
C2262 H2244 0.951 . S
C2262 C2263 1.366 . S
C2262 C2264 1.388 . S
C2263 C2262 1.366 . S
C2263 C2267 1.385 . S
C2264 H2245 0.951 . S
C2264 C2262 1.388 . S
C2264 C2265 1.366 . S
C2265 C2264 1.366 . S
C2265 C2266 1.414 . S
C2265 C2268 1.499 . S
C2266 H2246 0.950 . S
C2266 C2265 1.414 . S
C2266 C2267 1.374 . S
C2267 H2247 0.950 . S
C2267 C2263 1.385 . S
C2267 C2266 1.374 . S
C2268 C2265 1.499 . S
C2268 C2269 1.373 . S
C2268 C2270 1.389 . S
C2269 H2248 0.950 . S
C2269 C2268 1.373 . S
C2269 C2285 1.377 . S
C2270 C2268 1.389 . S
C2270 C2271 1.524 . S
C2270 C2284 1.377 . S
C2271 C2270 1.524 . S
C2271 C2272 1.397 . S
C2271 C2276 1.363 . S
C2272 H2249 0.950 . S
C2272 C2271 1.397 . S
C2272 C2273 1.334 . S
C2273 H2250 0.950 . S
C2273 C2272 1.334 . S
C2273 C2274 1.287 . S
C2274 C2273 1.287 . S
C2274 C2275 1.524 . S
C2274 H2293 0.913 . S
C2275 H2251 0.950 . S
C2275 C2274 1.524 . S
C2275 C2276 1.415 . S
C2276 H2252 0.950 . S
C2276 C2271 1.363 . S
C2276 C2275 1.415 . S
C2277 H2253 0.951 . S
C2277 C2278 1.366 . S
C2277 C2279 1.388 . S
C2278 C2277 1.366 . S
C2278 C2282 1.385 . S
C2279 H2254 0.951 . S
C2279 C2277 1.388 . S
C2279 C2280 1.366 . S
C2280 C2279 1.366 . S
C2280 C2281 1.414 . S
C2280 C2283 1.499 . S
C2281 H2255 0.950 . S
C2281 C2280 1.414 . S
C2281 C2282 1.374 . S
C2282 H2256 0.950 . S
C2282 C2278 1.385 . S
C2282 C2281 1.374 . S
C2283 C2280 1.499 . S
C2283 C2284 1.373 . S
C2283 C2285 1.389 . S
C2284 H2257 0.950 . S
C2284 C2270 1.377 . S
C2284 C2283 1.373 . S
C2285 C2269 1.377 . S
C2285 C2283 1.389 . S
C2285 C2286 1.524 . S
C2286 C2285 1.524 . S
C2286 C2287 1.397 . S
C2286 C2291 1.363 . S
C2287 H2258 0.950 . S
C2287 C2286 1.397 . S
C2287 C2288 1.334 . S
C2288 H2259 0.950 . S
C2288 C2287 1.334 . S
C2288 C2289 1.287 . S
C2289 C2288 1.287 . S
C2289 C2290 1.524 . S
C2289 H2292 0.999 . S
C2290 H2260 0.950 . S
C2290 C2289 1.524 . S
C2290 C2291 1.415 . S
C2291 H2261 0.950 . S
C2291 C2286 1.363 . S
C2291 C2290 1.415 . S
H2292 C2289 0.999 . S
H2293 C2274 0.913 . S
H2294 C2312 0.951 . S
H2295 C2314 0.951 . S
H2296 C2316 0.950 . S
H2297 C2317 0.950 . S
H2298 C2319 0.950 . S
H2299 C2322 0.950 . S
H2300 C2323 0.950 . S
H2301 C2325 0.950 . S
H2302 C2326 0.950 . S
H2303 C2327 0.951 . S
H2304 C2329 0.951 . S
H2305 C2331 0.950 . S
H2306 C2332 0.950 . S
H2307 C2334 0.950 . S
H2308 C2337 0.950 . S
H2309 C2338 0.950 . S
H2310 C2340 0.950 . S
H2311 C2341 0.950 . S
C2312 H2294 0.951 . S
C2312 C2313 1.366 . S
C2312 C2314 1.388 . S
C2313 C2312 1.366 . S
C2313 C2317 1.385 . S
C2314 H2295 0.951 . S
C2314 C2312 1.388 . S
C2314 C2315 1.366 . S
C2315 C2314 1.366 . S
C2315 C2316 1.414 . S
C2315 C2318 1.499 . S
C2316 H2296 0.950 . S
C2316 C2315 1.414 . S
C2316 C2317 1.374 . S
C2317 H2297 0.950 . S
C2317 C2313 1.385 . S
C2317 C2316 1.374 . S
C2318 C2315 1.499 . S
C2318 C2319 1.373 . S
C2318 C2320 1.389 . S
C2319 H2298 0.950 . S
C2319 C2318 1.373 . S
C2319 C2335 1.377 . S
C2320 C2318 1.389 . S
C2320 C2321 1.524 . S
C2320 C2334 1.377 . S
C2321 C2320 1.524 . S
C2321 C2322 1.397 . S
C2321 C2326 1.363 . S
C2322 H2299 0.950 . S
C2322 C2321 1.397 . S
C2322 C2323 1.334 . S
C2323 H2300 0.950 . S
C2323 C2322 1.334 . S
C2323 C2324 1.287 . S
C2324 C2323 1.287 . S
C2324 C2325 1.524 . S
C2324 H2343 0.913 . S
C2325 H2301 0.950 . S
C2325 C2324 1.524 . S
C2325 C2326 1.415 . S
C2326 H2302 0.950 . S
C2326 C2321 1.363 . S
C2326 C2325 1.415 . S
C2327 H2303 0.951 . S
C2327 C2328 1.366 . S
C2327 C2329 1.388 . S
C2328 C2327 1.366 . S
C2328 C2332 1.385 . S
C2329 H2304 0.951 . S
C2329 C2327 1.388 . S
C2329 C2330 1.366 . S
C2330 C2329 1.366 . S
C2330 C2331 1.414 . S
C2330 C2333 1.499 . S
C2331 H2305 0.950 . S
C2331 C2330 1.414 . S
C2331 C2332 1.374 . S
C2332 H2306 0.950 . S
C2332 C2328 1.385 . S
C2332 C2331 1.374 . S
C2333 C2330 1.499 . S
C2333 C2334 1.373 . S
C2333 C2335 1.389 . S
C2334 H2307 0.950 . S
C2334 C2320 1.377 . S
C2334 C2333 1.373 . S
C2335 C2319 1.377 . S
C2335 C2333 1.389 . S
C2335 C2336 1.524 . S
C2336 C2335 1.524 . S
C2336 C2337 1.397 . S
C2336 C2341 1.363 . S
C2337 H2308 0.950 . S
C2337 C2336 1.397 . S
C2337 C2338 1.334 . S
C2338 H2309 0.950 . S
C2338 C2337 1.334 . S
C2338 C2339 1.287 . S
C2339 C2338 1.287 . S
C2339 C2340 1.524 . S
C2339 H2342 0.999 . S
C2340 H2310 0.950 . S
C2340 C2339 1.524 . S
C2340 C2341 1.415 . S
C2341 H2311 0.950 . S
C2341 C2336 1.363 . S
C2341 C2340 1.415 . S
H2342 C2339 0.999 . S
H2343 C2324 0.913 . S
H2344 C2362 0.951 . S
H2345 C2364 0.951 . S
H2346 C2366 0.950 . S
H2347 C2367 0.950 . S
H2348 C2369 0.950 . S
H2349 C2372 0.950 . S
H2350 C2373 0.950 . S
H2351 C2375 0.950 . S
H2352 C2376 0.950 . S
H2353 C2377 0.951 . S
H2354 C2379 0.951 . S
H2355 C2381 0.950 . S
H2356 C2382 0.950 . S
H2357 C2384 0.950 . S
H2358 C2387 0.950 . S
H2359 C2388 0.950 . S
H2360 C2390 0.950 . S
H2361 C2391 0.950 . S
C2362 H2344 0.951 . S
C2362 C2363 1.366 . S
C2362 C2364 1.388 . S
C2363 C2362 1.366 . S
C2363 C2367 1.385 . S
C2364 H2345 0.951 . S
C2364 C2362 1.388 . S
C2364 C2365 1.366 . S
C2365 C2364 1.366 . S
C2365 C2366 1.414 . S
C2365 C2368 1.499 . S
C2366 H2346 0.950 . S
C2366 C2365 1.414 . S
C2366 C2367 1.374 . S
C2367 H2347 0.950 . S
C2367 C2363 1.385 . S
C2367 C2366 1.374 . S
C2368 C2365 1.499 . S
C2368 C2369 1.373 . S
C2368 C2370 1.389 . S
C2369 H2348 0.950 . S
C2369 C2368 1.373 . S
C2369 C2385 1.377 . S
C2370 C2368 1.389 . S
C2370 C2371 1.524 . S
C2370 C2384 1.377 . S
C2371 C2370 1.524 . S
C2371 C2372 1.397 . S
C2371 C2376 1.363 . S
C2372 H2349 0.950 . S
C2372 C2371 1.397 . S
C2372 C2373 1.334 . S
C2373 H2350 0.950 . S
C2373 C2372 1.334 . S
C2373 C2374 1.287 . S
C2374 C2373 1.287 . S
C2374 C2375 1.524 . S
C2374 H2393 0.913 . S
C2375 H2351 0.950 . S
C2375 C2374 1.524 . S
C2375 C2376 1.415 . S
C2376 H2352 0.950 . S
C2376 C2371 1.363 . S
C2376 C2375 1.415 . S
C2377 H2353 0.951 . S
C2377 C2378 1.366 . S
C2377 C2379 1.388 . S
C2378 C2377 1.366 . S
C2378 C2382 1.385 . S
C2379 H2354 0.951 . S
C2379 C2377 1.388 . S
C2379 C2380 1.366 . S
C2380 C2379 1.366 . S
C2380 C2381 1.414 . S
C2380 C2383 1.499 . S
C2381 H2355 0.950 . S
C2381 C2380 1.414 . S
C2381 C2382 1.374 . S
C2382 H2356 0.950 . S
C2382 C2378 1.385 . S
C2382 C2381 1.374 . S
C2383 C2380 1.499 . S
C2383 C2384 1.373 . S
C2383 C2385 1.389 . S
C2384 H2357 0.950 . S
C2384 C2370 1.377 . S
C2384 C2383 1.373 . S
C2385 C2369 1.377 . S
C2385 C2383 1.389 . S
C2385 C2386 1.524 . S
C2386 C2385 1.524 . S
C2386 C2387 1.397 . S
C2386 C2391 1.363 . S
C2387 H2358 0.950 . S
C2387 C2386 1.397 . S
C2387 C2388 1.334 . S
C2388 H2359 0.950 . S
C2388 C2387 1.334 . S
C2388 C2389 1.287 . S
C2389 C2388 1.287 . S
C2389 C2390 1.524 . S
C2389 H2392 0.999 . S
C2390 H2360 0.950 . S
C2390 C2389 1.524 . S
C2390 C2391 1.415 . S
C2391 H2361 0.950 . S
C2391 C2386 1.363 . S
C2391 C2390 1.415 . S
H2392 C2389 0.999 . S
H2393 C2374 0.913 . S
H2394 C2412 0.951 . S
H2395 C2414 0.951 . S
H2396 C2416 0.950 . S
H2397 C2417 0.950 . S
H2398 C2419 0.950 . S
H2399 C2422 0.950 . S
H2400 C2423 0.950 . S
H2401 C2425 0.950 . S
H2402 C2426 0.950 . S
H2403 C2427 0.951 . S
H2404 C2429 0.951 . S
H2405 C2431 0.950 . S
H2406 C2432 0.950 . S
H2407 C2434 0.950 . S
H2408 C2437 0.963 1_565 S
H2409 C2438 0.950 . S
H2410 C2440 0.950 . S
H2411 C2441 0.950 . S
C2412 H2394 0.951 . S
C2412 C2413 1.366 . S
C2412 C2414 1.388 . S
C2413 C2412 1.366 . S
C2413 C2417 1.385 . S
C2414 H2395 0.951 . S
C2414 C2412 1.388 . S
C2414 C2415 1.366 . S
C2415 C2414 1.366 . S
C2415 C2416 1.414 . S
C2415 C2418 1.499 . S
C2416 H2396 0.950 . S
C2416 C2415 1.414 . S
C2416 C2417 1.374 . S
C2417 H2397 0.950 . S
C2417 C2413 1.385 . S
C2417 C2416 1.374 . S
C2418 C2415 1.499 . S
C2418 C2419 1.373 . S
C2418 C2420 1.389 . S
C2419 H2398 0.950 . S
C2419 C2418 1.373 . S
C2419 C2435 1.377 . S
C2420 C2418 1.389 . S
C2420 C2421 1.524 . S
C2420 C2434 1.377 . S
C2421 C2420 1.524 . S
C2421 C2422 1.397 . S
C2421 C2426 1.363 . S
C2422 H2399 0.950 . S
C2422 C2421 1.397 . S
C2422 C2423 1.334 . S
C2423 H2400 0.950 . S
C2423 C2422 1.334 . S
C2423 C2424 1.287 . S
C2424 C2423 1.287 . S
C2424 C2425 1.524 . S
C2424 H2443 0.913 . S
C2425 H2401 0.950 . S
C2425 C2424 1.524 . S
C2425 C2426 1.415 . S
C2426 H2402 0.950 . S
C2426 C2421 1.363 . S
C2426 C2425 1.415 . S
C2427 H2403 0.951 . S
C2427 C2428 1.366 . S
C2427 C2429 1.388 . S
C2428 C2427 1.366 . S
C2428 C2432 1.385 . S
C2429 H2404 0.951 . S
C2429 C2427 1.388 . S
C2429 C2430 1.366 . S
C2430 C2429 1.366 . S
C2430 C2431 1.414 . S
C2430 C2433 1.499 . S
C2431 H2405 0.950 . S
C2431 C2430 1.414 . S
C2431 C2432 1.374 . S
C2432 H2406 0.950 . S
C2432 C2428 1.385 . S
C2432 C2431 1.374 . S
C2433 C2430 1.499 . S
C2433 C2434 1.373 . S
C2433 C2435 1.389 . S
C2434 H2407 0.950 . S
C2434 C2420 1.377 . S
C2434 C2433 1.373 . S
C2435 C2419 1.377 . S
C2435 C2433 1.389 . S
C2435 C2436 1.524 . S
C2436 C2435 1.524 . S
C2436 C2437 1.397 1_565 S
C2436 C2441 1.363 . S
C2437 H2408 0.963 1_545 S
C2437 C2436 1.397 1_545 S
C2437 C2438 1.334 . S
C2438 H2409 0.950 . S
C2438 C2437 1.334 . S
C2438 C2439 1.287 . S
C2439 C2438 1.287 . S
C2439 C2440 1.524 . S
C2439 H2442 0.999 . S
C2440 H2410 0.950 . S
C2440 C2439 1.524 . S
C2440 C2441 1.415 1_545 S
C2441 H2411 0.950 . S
C2441 C2436 1.363 . S
C2441 C2440 1.415 1_565 S
H2442 C2439 0.999 . S
H2443 C2424 0.913 . S
H2444 C2462 0.951 . S
H2445 C2464 0.951 . S
H2446 C2466 0.950 . S
H2447 C2467 0.950 . S
H2448 C2469 0.950 . S
H2449 C2472 0.950 . S
H2450 C2473 0.953 . S
H2451 C2475 0.950 . S
H2452 C2476 0.950 . S
H2453 C2477 0.951 . S
H2454 C2479 0.951 . S
H2455 C2481 0.950 . S
H2456 C2482 0.950 . S
H2457 C2484 0.950 . S
H2458 C2487 0.950 . S
H2459 C2488 0.950 . S
H2460 C2490 0.950 . S
H2461 C2491 0.950 . S
C2462 H2444 0.951 . S
C2462 C2463 1.366 . S
C2462 C2464 1.388 . S
C2463 C2462 1.366 . S
C2463 C2467 1.385 . S
C2464 H2445 0.951 . S
C2464 C2462 1.388 . S
C2464 C2465 1.366 . S
C2465 C2464 1.366 . S
C2465 C2466 1.414 . S
C2465 C2468 1.499 . S
C2466 H2446 0.950 . S
C2466 C2465 1.414 . S
C2466 C2467 1.374 . S
C2467 H2447 0.950 . S
C2467 C2463 1.385 . S
C2467 C2466 1.374 . S
C2468 C2465 1.499 . S
C2468 C2469 1.373 . S
C2468 C2470 1.389 . S
C2469 H2448 0.950 . S
C2469 C2468 1.373 . S
C2469 C2485 1.377 . S
C2470 C2468 1.389 . S
C2470 C2471 1.524 . S
C2470 C2484 1.377 . S
C2471 C2470 1.524 . S
C2471 C2472 1.397 . S
C2471 C2476 1.363 . S
C2472 H2449 0.950 . S
C2472 C2471 1.397 . S
C2472 C2473 1.334 . S
C2473 H2450 0.953 . S
C2473 C2472 1.334 . S
C2473 C2474 1.287 . S
C2474 C2473 1.287 . S
C2474 C2475 1.524 . S
C2474 H2493 0.913 . S
C2475 H2451 0.950 . S
C2475 C2474 1.524 . S
C2475 C2476 1.415 . S
C2476 H2452 0.950 . S
C2476 C2471 1.363 . S
C2476 C2475 1.415 . S
C2477 H2453 0.951 . S
C2477 C2478 1.366 . S
C2477 C2479 1.388 . S
C2478 C2477 1.366 . S
C2478 C2482 1.385 . S
C2479 H2454 0.951 . S
C2479 C2477 1.388 . S
C2479 C2480 1.366 . S
C2480 C2479 1.366 . S
C2480 C2481 1.414 . S
C2480 C2483 1.499 . S
C2481 H2455 0.950 . S
C2481 C2480 1.414 . S
C2481 C2482 1.374 . S
C2482 H2456 0.950 . S
C2482 C2478 1.385 . S
C2482 C2481 1.374 . S
C2483 C2480 1.499 . S
C2483 C2484 1.373 . S
C2483 C2485 1.389 . S
C2484 H2457 0.950 . S
C2484 C2470 1.377 . S
C2484 C2483 1.373 . S
C2485 C2469 1.377 . S
C2485 C2483 1.389 . S
C2485 C2486 1.524 . S
C2486 C2485 1.524 . S
C2486 C2487 1.397 . S
C2486 C2491 1.363 . S
C2487 H2458 0.950 . S
C2487 C2486 1.397 . S
C2487 C2488 1.334 . S
C2488 H2459 0.950 . S
C2488 C2487 1.334 . S
C2488 C2489 1.287 . S
C2489 C2488 1.287 . S
C2489 C2490 1.524 . S
C2489 H2492 0.999 . S
C2490 H2460 0.950 . S
C2490 C2489 1.524 . S
C2490 C2491 1.415 . S
C2491 H2461 0.950 . S
C2491 C2486 1.363 . S
C2491 C2490 1.415 . S
H2492 C2489 0.999 . S
H2493 C2474 0.913 . S
H2494 C2512 0.951 . S
H2495 C2514 0.951 . S
H2496 C2516 0.950 . S
H2497 C2517 0.950 . S
H2498 C2519 0.950 . S
H2499 C2522 0.950 . S
H2500 C2523 0.950 . S
H2501 C2525 0.950 . S
H2502 C2526 0.950 . S
H2503 C2527 0.951 . S
H2504 C2529 0.951 . S
H2505 C2531 0.950 . S
H2506 C2532 0.950 . S
H2507 C2534 0.950 . S
H2508 C2537 0.950 . S
H2509 C2538 0.950 . S
H2510 C2540 0.950 . S
H2511 C2541 0.950 . S
C2512 H2494 0.951 . S
C2512 C2513 1.366 . S
C2512 C2514 1.388 . S
C2513 C2512 1.366 . S
C2513 C2517 1.385 . S
C2514 H2495 0.951 . S
C2514 C2512 1.388 . S
C2514 C2515 1.366 . S
C2515 C2514 1.366 . S
C2515 C2516 1.414 . S
C2515 C2518 1.499 . S
C2516 H2496 0.950 . S
C2516 C2515 1.414 . S
C2516 C2517 1.374 . S
C2517 H2497 0.950 . S
C2517 C2513 1.385 . S
C2517 C2516 1.374 . S
C2518 C2515 1.499 . S
C2518 C2519 1.373 . S
C2518 C2520 1.389 . S
C2519 H2498 0.950 . S
C2519 C2518 1.373 . S
C2519 C2535 1.377 . S
C2520 C2518 1.389 . S
C2520 C2521 1.524 . S
C2520 C2534 1.377 . S
C2521 C2520 1.524 . S
C2521 C2522 1.397 . S
C2521 C2526 1.363 . S
C2522 H2499 0.950 . S
C2522 C2521 1.397 . S
C2522 C2523 1.334 . S
C2523 H2500 0.950 . S
C2523 C2522 1.334 . S
C2523 C2524 1.287 . S
C2524 C2523 1.287 . S
C2524 C2525 1.524 . S
C2524 H2543 0.913 . S
C2525 H2501 0.950 . S
C2525 C2524 1.524 . S
C2525 C2526 1.415 . S
C2526 H2502 0.950 . S
C2526 C2521 1.363 . S
C2526 C2525 1.415 . S
C2527 H2503 0.951 . S
C2527 C2528 1.366 . S
C2527 C2529 1.388 . S
C2528 C2527 1.366 . S
C2528 C2532 1.385 . S
C2529 H2504 0.951 . S
C2529 C2527 1.388 . S
C2529 C2530 1.366 . S
C2530 C2529 1.366 . S
C2530 C2531 1.414 . S
C2530 C2533 1.499 . S
C2531 H2505 0.950 . S
C2531 C2530 1.414 . S
C2531 C2532 1.374 . S
C2532 H2506 0.950 . S
C2532 C2528 1.385 . S
C2532 C2531 1.374 . S
C2533 C2530 1.499 . S
C2533 C2534 1.373 . S
C2533 C2535 1.389 . S
C2534 H2507 0.950 . S
C2534 C2520 1.377 . S
C2534 C2533 1.373 . S
C2535 C2519 1.377 . S
C2535 C2533 1.389 . S
C2535 C2536 1.524 . S
C2536 C2535 1.524 . S
C2536 C2537 1.397 . S
C2536 C2541 1.363 . S
C2537 H2508 0.950 . S
C2537 C2536 1.397 . S
C2537 C2538 1.334 . S
C2538 H2509 0.950 . S
C2538 C2537 1.334 . S
C2538 C2539 1.287 . S
C2539 C2538 1.287 . S
C2539 C2540 1.524 . S
C2539 H2542 0.999 . S
C2540 H2510 0.950 . S
C2540 C2539 1.524 . S
C2540 C2541 1.415 . S
C2541 H2511 0.950 . S
C2541 C2536 1.363 . S
C2541 C2540 1.415 . S
H2542 C2539 0.999 . S
H2543 C2524 0.913 . S
H2544 C2562 0.951 . S
H2545 C2564 0.951 . S
H2546 C2566 0.950 . S
H2547 C2567 0.950 . S
H2548 C2569 0.950 . S
H2549 C2572 0.950 . S
H2550 C2573 0.950 . S
H2551 C2575 0.950 . S
H2552 C2576 0.950 . S
H2553 C2577 0.951 . S
H2554 C2579 0.951 . S
H2555 C2581 0.950 . S
H2556 C2582 0.950 . S
H2557 C2584 0.950 . S
H2558 C2587 0.950 . S
H2559 C2588 0.950 . S
H2560 C2590 0.950 . S
H2561 C2591 0.950 . S
C2562 H2544 0.951 . S
C2562 C2563 1.366 . S
C2562 C2564 1.388 . S
C2563 C2562 1.366 . S
C2563 C2567 1.385 . S
C2564 H2545 0.951 . S
C2564 C2562 1.388 . S
C2564 C2565 1.366 . S
C2565 C2564 1.366 . S
C2565 C2566 1.414 . S
C2565 C2568 1.499 . S
C2566 H2546 0.950 . S
C2566 C2565 1.414 . S
C2566 C2567 1.374 . S
C2567 H2547 0.950 . S
C2567 C2563 1.385 . S
C2567 C2566 1.374 . S
C2568 C2565 1.499 . S
C2568 C2569 1.373 . S
C2568 C2570 1.389 . S
C2569 H2548 0.950 . S
C2569 C2568 1.373 . S
C2569 C2585 1.377 . S
C2570 C2568 1.389 . S
C2570 C2571 1.524 . S
C2570 C2584 1.377 . S
C2571 C2570 1.524 . S
C2571 C2572 1.397 . S
C2571 C2576 1.363 . S
C2572 H2549 0.950 . S
C2572 C2571 1.397 . S
C2572 C2573 1.334 . S
C2573 H2550 0.950 . S
C2573 C2572 1.334 . S
C2573 C2574 1.287 . S
C2574 C2573 1.287 . S
C2574 C2575 1.524 . S
C2574 H2593 0.913 . S
C2575 H2551 0.950 . S
C2575 C2574 1.524 . S
C2575 C2576 1.415 . S
C2576 H2552 0.950 . S
C2576 C2571 1.363 . S
C2576 C2575 1.415 . S
C2577 H2553 0.951 . S
C2577 C2578 1.366 . S
C2577 C2579 1.388 . S
C2578 C2577 1.366 . S
C2578 C2582 1.385 . S
C2579 H2554 0.951 . S
C2579 C2577 1.388 . S
C2579 C2580 1.366 . S
C2580 C2579 1.366 . S
C2580 C2581 1.414 . S
C2580 C2583 1.499 . S
C2581 H2555 0.950 . S
C2581 C2580 1.414 . S
C2581 C2582 1.374 . S
C2582 H2556 0.950 . S
C2582 C2578 1.385 . S
C2582 C2581 1.374 . S
C2583 C2580 1.499 . S
C2583 C2584 1.373 . S
C2583 C2585 1.389 . S
C2584 H2557 0.950 . S
C2584 C2570 1.377 . S
C2584 C2583 1.373 . S
C2585 C2569 1.377 . S
C2585 C2583 1.389 . S
C2585 C2586 1.524 1_655 S
C2586 C2585 1.524 1_455 S
C2586 C2587 1.397 . S
C2586 C2591 1.363 . S
C2587 H2558 0.950 . S
C2587 C2586 1.397 . S
C2587 C2588 1.334 . S
C2588 H2559 0.950 . S
C2588 C2587 1.334 . S
C2588 C2589 1.287 . S
C2589 C2588 1.287 . S
C2589 C2590 1.524 . S
C2589 H2592 0.999 . S
C2590 H2560 0.950 . S
C2590 C2589 1.524 . S
C2590 C2591 1.415 . S
C2591 H2561 0.950 . S
C2591 C2586 1.363 . S
C2591 C2590 1.415 . S
H2592 C2589 0.999 . S
H2593 C2574 0.913 . S
H2594 C2612 0.951 . S
H2595 C2614 0.951 . S
H2596 C2616 0.950 . S
H2597 C2617 0.950 . S
H2598 C2619 0.950 . S
H2599 C2622 0.950 . S
H2600 C2623 0.950 . S
H2601 C2625 0.950 . S
H2602 C2626 0.950 . S
H2603 C2627 0.951 . S
H2604 C2629 0.951 . S
H2605 C2631 0.950 . S
H2606 C2632 0.950 . S
H2607 C2634 0.950 . S
H2608 C2637 0.950 . S
H2609 C2638 0.950 . S
H2610 C2640 0.950 . S
H2611 C2641 0.950 . S
C2612 H2594 0.951 . S
C2612 C2613 1.366 . S
C2612 C2614 1.388 . S
C2613 C2612 1.366 . S
C2613 C2617 1.385 . S
C2614 H2595 0.951 . S
C2614 C2612 1.388 . S
C2614 C2615 1.366 . S
C2615 C2614 1.366 . S
C2615 C2616 1.414 . S
C2615 C2618 1.499 . S
C2616 H2596 0.950 . S
C2616 C2615 1.414 . S
C2616 C2617 1.374 . S
C2617 H2597 0.950 . S
C2617 C2613 1.385 . S
C2617 C2616 1.374 . S
C2618 C2615 1.499 . S
C2618 C2619 1.373 . S
C2618 C2620 1.389 . S
C2619 H2598 0.950 . S
C2619 C2618 1.373 . S
C2619 C2635 1.377 . S
C2620 C2618 1.389 . S
C2620 C2621 1.524 . S
C2620 C2634 1.377 . S
C2621 C2620 1.524 . S
C2621 C2622 1.397 . S
C2621 C2626 1.363 . S
C2622 H2599 0.950 . S
C2622 C2621 1.397 . S
C2622 C2623 1.334 . S
C2623 H2600 0.950 . S
C2623 C2622 1.334 . S
C2623 C2624 1.287 . S
C2624 C2623 1.287 . S
C2624 C2625 1.524 . S
C2624 H2643 0.913 . S
C2625 H2601 0.950 . S
C2625 C2624 1.524 . S
C2625 C2626 1.415 . S
C2626 H2602 0.950 . S
C2626 C2621 1.363 . S
C2626 C2625 1.415 . S
C2627 H2603 0.951 . S
C2627 C2628 1.366 . S
C2627 C2629 1.388 . S
C2628 C2627 1.366 . S
C2628 C2632 1.385 . S
C2629 H2604 0.951 . S
C2629 C2627 1.388 . S
C2629 C2630 1.366 . S
C2630 C2629 1.366 . S
C2630 C2631 1.414 . S
C2630 C2633 1.499 . S
C2631 H2605 0.950 . S
C2631 C2630 1.414 . S
C2631 C2632 1.374 . S
C2632 H2606 0.950 . S
C2632 C2628 1.385 . S
C2632 C2631 1.374 . S
C2633 C2630 1.499 . S
C2633 C2634 1.373 . S
C2633 C2635 1.389 . S
C2634 H2607 0.950 . S
C2634 C2620 1.377 . S
C2634 C2633 1.373 . S
C2635 C2619 1.377 . S
C2635 C2633 1.389 . S
C2635 C2636 1.524 . S
C2636 C2635 1.524 . S
C2636 C2637 1.397 . S
C2636 C2641 1.363 . S
C2637 H2608 0.950 . S
C2637 C2636 1.397 . S
C2637 C2638 1.334 . S
C2638 H2609 0.950 . S
C2638 C2637 1.334 . S
C2638 C2639 1.287 . S
C2639 C2638 1.287 . S
C2639 C2640 1.524 . S
C2639 H2642 0.999 . S
C2640 H2610 0.950 . S
C2640 C2639 1.524 . S
C2640 C2641 1.415 . S
C2641 H2611 0.950 . S
C2641 C2636 1.363 . S
C2641 C2640 1.415 . S
H2642 C2639 0.999 . S
H2643 C2624 0.913 . S
H2644 C2662 0.951 . S
H2645 C2664 0.951 . S
H2646 C2666 0.950 . S
H2647 C2667 0.950 . S
H2648 C2669 0.950 . S
H2649 C2672 0.950 . S
H2650 C2673 0.950 . S
H2651 C2675 0.950 . S
H2652 C2676 0.950 . S
H2653 C2677 0.951 . S
H2654 C2679 0.951 . S
H2655 C2681 0.950 . S
H2656 C2682 0.950 . S
H2657 C2684 0.950 . S
H2658 C2687 0.950 . S
H2659 C2688 0.950 . S
H2660 C2690 0.950 . S
H2661 C2691 0.950 . S
C2662 H2644 0.951 . S
C2662 C2663 1.366 . S
C2662 C2664 1.388 . S
C2663 C2662 1.366 . S
C2663 C2667 1.385 . S
C2664 H2645 0.951 . S
C2664 C2662 1.388 . S
C2664 C2665 1.366 . S
C2665 C2664 1.366 . S
C2665 C2666 1.414 . S
C2665 C2668 1.499 . S
C2666 H2646 0.950 . S
C2666 C2665 1.414 . S
C2666 C2667 1.374 . S
C2667 H2647 0.950 . S
C2667 C2663 1.385 . S
C2667 C2666 1.374 . S
C2668 C2665 1.499 . S
C2668 C2669 1.373 . S
C2668 C2670 1.389 . S
C2669 H2648 0.950 . S
C2669 C2668 1.373 . S
C2669 C2685 1.377 . S
C2670 C2668 1.389 . S
C2670 C2671 1.524 . S
C2670 C2684 1.377 . S
C2671 C2670 1.524 . S
C2671 C2672 1.397 . S
C2671 C2676 1.363 . S
C2672 H2649 0.950 . S
C2672 C2671 1.397 . S
C2672 C2673 1.334 . S
C2673 H2650 0.950 . S
C2673 C2672 1.334 . S
C2673 C2674 1.287 . S
C2674 C2673 1.287 . S
C2674 C2675 1.524 . S
C2674 H2693 0.913 . S
C2675 H2651 0.950 . S
C2675 C2674 1.524 . S
C2675 C2676 1.415 . S
C2676 H2652 0.950 . S
C2676 C2671 1.363 . S
C2676 C2675 1.415 . S
C2677 H2653 0.951 . S
C2677 C2678 1.366 . S
C2677 C2679 1.388 . S
C2678 C2677 1.366 . S
C2678 C2682 1.385 . S
C2679 H2654 0.951 . S
C2679 C2677 1.388 . S
C2679 C2680 1.366 . S
C2680 C2679 1.366 . S
C2680 C2681 1.414 . S
C2680 C2683 1.499 . S
C2681 H2655 0.950 . S
C2681 C2680 1.414 . S
C2681 C2682 1.374 . S
C2682 H2656 0.950 . S
C2682 C2678 1.385 . S
C2682 C2681 1.374 . S
C2683 C2680 1.499 . S
C2683 C2684 1.373 . S
C2683 C2685 1.389 . S
C2684 H2657 0.950 . S
C2684 C2670 1.377 . S
C2684 C2683 1.373 . S
C2685 C2669 1.377 . S
C2685 C2683 1.389 . S
C2685 C2686 1.524 . S
C2686 C2685 1.524 . S
C2686 C2687 1.397 . S
C2686 C2691 1.363 . S
C2687 H2658 0.950 . S
C2687 C2686 1.397 . S
C2687 C2688 1.334 1_545 S
C2688 H2659 0.950 . S
C2688 C2687 1.334 1_565 S
C2688 C2689 1.287 . S
C2689 C2688 1.287 . S
C2689 C2690 1.524 1_565 S
C2689 H2692 0.999 . S
C2690 H2660 0.950 . S
C2690 C2689 1.524 1_545 S
C2690 C2691 1.415 . S
C2691 H2661 0.950 . S
C2691 C2686 1.363 . S
C2691 C2690 1.415 . S
H2692 C2689 0.999 . S
H2693 C2674 0.913 . S
H2694 C2712 0.951 . S
H2695 C2714 0.951 . S
H2696 C2716 0.950 . S
H2697 C2717 0.950 . S
H2698 C2719 0.950 . S
H2699 C2722 0.950 . S
H2700 C2723 0.950 . S
H2701 C2725 0.950 . S
H2702 C2726 0.950 . S
H2703 C2727 0.951 . S
H2704 C2729 0.951 . S
H2705 C2731 0.950 . S
H2706 C2732 0.950 . S
H2707 C2734 0.950 . S
H2708 C2737 0.950 . S
H2709 C2738 0.950 . S
H2710 C2740 0.950 . S
H2711 C2741 0.950 . S
C2712 H2694 0.951 . S
C2712 C2713 1.366 . S
C2712 C2714 1.388 . S
C2713 C2712 1.366 . S
C2713 C2717 1.385 . S
C2714 H2695 0.951 . S
C2714 C2712 1.388 . S
C2714 C2715 1.366 . S
C2715 C2714 1.366 . S
C2715 C2716 1.414 . S
C2715 C2718 1.499 . S
C2716 H2696 0.950 . S
C2716 C2715 1.414 . S
C2716 C2717 1.374 . S
C2717 H2697 0.950 . S
C2717 C2713 1.385 . S
C2717 C2716 1.374 . S
C2718 C2715 1.499 . S
C2718 C2719 1.373 . S
C2718 C2720 1.389 . S
C2719 H2698 0.950 . S
C2719 C2718 1.373 . S
C2719 C2735 1.377 . S
C2720 C2718 1.389 . S
C2720 C2721 1.524 . S
C2720 C2734 1.377 . S
C2721 C2720 1.524 . S
C2721 C2722 1.397 . S
C2721 C2726 1.363 . S
C2722 H2699 0.950 . S
C2722 C2721 1.397 . S
C2722 C2723 1.334 . S
C2723 H2700 0.950 . S
C2723 C2722 1.334 . S
C2723 C2724 1.287 . S
C2724 C2723 1.287 . S
C2724 C2725 1.524 . S
C2724 H2743 0.913 . S
C2725 H2701 0.950 . S
C2725 C2724 1.524 . S
C2725 C2726 1.415 . S
C2726 H2702 0.950 . S
C2726 C2721 1.363 . S
C2726 C2725 1.415 . S
C2727 H2703 0.951 . S
C2727 C2728 1.366 . S
C2727 C2729 1.388 . S
C2728 C2727 1.366 . S
C2728 C2732 1.385 . S
C2729 H2704 0.951 . S
C2729 C2727 1.388 . S
C2729 C2730 1.366 . S
C2730 C2729 1.366 . S
C2730 C2731 1.414 . S
C2730 C2733 1.499 . S
C2731 H2705 0.950 . S
C2731 C2730 1.414 . S
C2731 C2732 1.374 . S
C2732 H2706 0.950 . S
C2732 C2728 1.385 . S
C2732 C2731 1.374 . S
C2733 C2730 1.499 . S
C2733 C2734 1.373 . S
C2733 C2735 1.389 . S
C2734 H2707 0.950 . S
C2734 C2720 1.377 . S
C2734 C2733 1.373 . S
C2735 C2719 1.377 . S
C2735 C2733 1.389 . S
C2735 C2736 1.524 . S
C2736 C2735 1.524 . S
C2736 C2737 1.397 . S
C2736 C2741 1.363 . S
C2737 H2708 0.950 . S
C2737 C2736 1.397 . S
C2737 C2738 1.334 . S
C2738 H2709 0.950 . S
C2738 C2737 1.334 . S
C2738 C2739 1.287 . S
C2739 C2738 1.287 . S
C2739 C2740 1.524 . S
C2739 H2742 0.999 . S
C2740 H2710 0.950 . S
C2740 C2739 1.524 . S
C2740 C2741 1.415 . S
C2741 H2711 0.950 . S
C2741 C2736 1.363 . S
C2741 C2740 1.415 . S
H2742 C2739 0.999 . S
H2743 C2724 0.913 . S
H2744 C2762 0.951 . S
H2745 C2764 0.951 . S
H2746 C2766 0.950 . S
H2747 C2767 0.950 . S
H2748 C2769 0.950 . S
H2749 C2772 0.950 . S
H2750 C2773 0.950 . S
H2751 C2775 0.950 . S
H2752 C2776 0.950 . S
H2753 C2777 0.951 . S
H2754 C2779 0.951 . S
H2755 C2781 0.950 . S
H2756 C2782 0.950 . S
H2757 C2784 0.950 . S
H2758 C2787 0.950 . S
H2759 C2788 0.950 . S
H2760 C2790 0.950 . S
H2761 C2791 0.950 . S
C2762 H2744 0.951 . S
C2762 C2763 1.366 . S
C2762 C2764 1.388 . S
C2763 C2762 1.366 . S
C2763 C2767 1.385 . S
C2764 H2745 0.951 . S
C2764 C2762 1.388 . S
C2764 C2765 1.366 . S
C2765 C2764 1.366 . S
C2765 C2766 1.414 . S
C2765 C2768 1.499 . S
C2766 H2746 0.950 . S
C2766 C2765 1.414 . S
C2766 C2767 1.374 . S
C2767 H2747 0.950 . S
C2767 C2763 1.385 . S
C2767 C2766 1.374 . S
C2768 C2765 1.499 . S
C2768 C2769 1.373 . S
C2768 C2770 1.389 . S
C2769 H2748 0.950 . S
C2769 C2768 1.373 . S
C2769 C2785 1.377 . S
C2770 C2768 1.389 . S
C2770 C2771 1.524 . S
C2770 C2784 1.377 . S
C2771 C2770 1.524 . S
C2771 C2772 1.397 . S
C2771 C2776 1.363 . S
C2772 H2749 0.950 . S
C2772 C2771 1.397 . S
C2772 C2773 1.334 . S
C2773 H2750 0.950 . S
C2773 C2772 1.334 . S
C2773 C2774 1.287 . S
C2774 C2773 1.287 . S
C2774 C2775 1.524 . S
C2774 H2793 0.913 . S
C2775 H2751 0.950 . S
C2775 C2774 1.524 . S
C2775 C2776 1.415 . S
C2776 H2752 0.950 . S
C2776 C2771 1.363 . S
C2776 C2775 1.415 . S
C2777 H2753 0.951 . S
C2777 C2778 1.366 . S
C2777 C2779 1.388 . S
C2778 C2777 1.366 . S
C2778 C2782 1.385 . S
C2779 H2754 0.951 . S
C2779 C2777 1.388 . S
C2779 C2780 1.366 . S
C2780 C2779 1.366 . S
C2780 C2781 1.414 . S
C2780 C2783 1.499 . S
C2781 H2755 0.950 . S
C2781 C2780 1.414 . S
C2781 C2782 1.374 . S
C2782 H2756 0.950 . S
C2782 C2778 1.385 . S
C2782 C2781 1.374 . S
C2783 C2780 1.499 . S
C2783 C2784 1.373 . S
C2783 C2785 1.389 . S
C2784 H2757 0.950 . S
C2784 C2770 1.377 . S
C2784 C2783 1.373 . S
C2785 C2769 1.377 . S
C2785 C2783 1.389 . S
C2785 C2786 1.524 . S
C2786 C2785 1.524 . S
C2786 C2787 1.397 . S
C2786 C2791 1.363 . S
C2787 H2758 0.950 . S
C2787 C2786 1.397 . S
C2787 C2788 1.334 . S
C2788 H2759 0.950 . S
C2788 C2787 1.334 . S
C2788 C2789 1.287 . S
C2789 C2788 1.287 . S
C2789 C2790 1.524 . S
C2789 H2792 0.999 . S
C2790 H2760 0.950 . S
C2790 C2789 1.524 . S
C2790 C2791 1.415 . S
C2791 H2761 0.950 . S
C2791 C2786 1.363 . S
C2791 C2790 1.415 . S
H2792 C2789 0.999 . S
H2793 C2774 0.913 . S
H2794 C2812 0.951 . S
H2795 C2814 0.951 . S
H2796 C2816 0.950 . S
H2797 C2817 0.950 . S
H2798 C2819 0.950 . S
H2799 C2822 0.950 . S
H2800 C2823 0.950 . S
H2801 C2825 0.950 . S
H2802 C2826 0.950 . S
H2803 C2827 0.951 . S
H2804 C2829 0.951 . S
H2805 C2831 0.950 . S
H2806 C2832 0.950 . S
H2807 C2834 0.950 . S
H2808 C2837 0.950 . S
H2809 C2838 0.950 . S
H2810 C2840 0.950 . S
H2811 C2841 0.950 . S
C2812 H2794 0.951 . S
C2812 C2813 1.366 . S
C2812 C2814 1.388 . S
C2813 C2812 1.366 . S
C2813 C2817 1.385 . S
C2814 H2795 0.951 . S
C2814 C2812 1.388 . S
C2814 C2815 1.366 . S
C2815 C2814 1.366 . S
C2815 C2816 1.414 . S
C2815 C2818 1.499 . S
C2816 H2796 0.950 . S
C2816 C2815 1.414 . S
C2816 C2817 1.374 . S
C2817 H2797 0.950 . S
C2817 C2813 1.385 . S
C2817 C2816 1.374 . S
C2818 C2815 1.499 . S
C2818 C2819 1.373 . S
C2818 C2820 1.389 . S
C2819 H2798 0.950 . S
C2819 C2818 1.373 . S
C2819 C2835 1.377 . S
C2820 C2818 1.389 . S
C2820 C2821 1.524 . S
C2820 C2834 1.377 . S
C2821 C2820 1.524 . S
C2821 C2822 1.397 . S
C2821 C2826 1.363 . S
C2822 H2799 0.950 . S
C2822 C2821 1.397 . S
C2822 C2823 1.334 . S
C2823 H2800 0.950 . S
C2823 C2822 1.334 . S
C2823 C2824 1.287 . S
C2824 C2823 1.287 . S
C2824 C2825 1.524 . S
C2824 H2843 0.913 . S
C2825 H2801 0.950 . S
C2825 C2824 1.524 . S
C2825 C2826 1.415 . S
C2826 H2802 0.950 . S
C2826 C2821 1.363 . S
C2826 C2825 1.415 . S
C2827 H2803 0.951 . S
C2827 C2828 1.366 . S
C2827 C2829 1.388 . S
C2828 C2827 1.366 . S
C2828 C2832 1.385 . S
C2829 H2804 0.951 . S
C2829 C2827 1.388 . S
C2829 C2830 1.366 . S
C2830 C2829 1.366 . S
C2830 C2831 1.414 . S
C2830 C2833 1.499 . S
C2831 H2805 0.950 . S
C2831 C2830 1.414 . S
C2831 C2832 1.374 . S
C2832 H2806 0.950 . S
C2832 C2828 1.385 . S
C2832 C2831 1.374 . S
C2833 C2830 1.499 . S
C2833 C2834 1.373 . S
C2833 C2835 1.389 . S
C2834 H2807 0.950 . S
C2834 C2820 1.377 . S
C2834 C2833 1.373 . S
C2835 C2819 1.377 . S
C2835 C2833 1.389 . S
C2835 C2836 1.524 . S
C2836 C2835 1.524 . S
C2836 C2837 1.397 . S
C2836 C2841 1.363 . S
C2837 H2808 0.950 . S
C2837 C2836 1.397 . S
C2837 C2838 1.334 . S
C2838 H2809 0.950 . S
C2838 C2837 1.334 . S
C2838 C2839 1.287 . S
C2839 C2838 1.287 . S
C2839 C2840 1.524 . S
C2839 H2842 0.999 . S
C2840 H2810 0.950 . S
C2840 C2839 1.524 . S
C2840 C2841 1.415 . S
C2841 H2811 0.950 . S
C2841 C2836 1.363 . S
C2841 C2840 1.415 . S
H2842 C2839 0.999 . S
H2843 C2824 0.913 . S
H2844 C2862 0.951 . S
H2845 C2864 0.951 . S
H2846 C2866 0.950 . S
H2847 C2867 0.950 . S
H2848 C2869 0.950 . S
H2849 C2872 0.950 . S
H2850 C2873 0.950 . S
H2851 C2875 0.950 . S
H2852 C2876 0.950 . S
H2853 C2877 0.951 . S
H2854 C2879 0.951 . S
H2855 C2881 0.950 . S
H2856 C2882 0.950 . S
H2857 C2884 0.950 . S
H2858 C2887 0.950 . S
H2859 C2888 0.950 . S
H2860 C2890 0.950 . S
H2861 C2891 0.950 . S
C2862 H2844 0.951 . S
C2862 C2863 1.366 . S
C2862 C2864 1.388 . S
C2863 C2862 1.366 . S
C2863 C2867 1.385 . S
C2864 H2845 0.951 . S
C2864 C2862 1.388 . S
C2864 C2865 1.366 . S
C2865 C2864 1.366 . S
C2865 C2866 1.414 . S
C2865 C2868 1.499 . S
C2866 H2846 0.950 . S
C2866 C2865 1.414 . S
C2866 C2867 1.374 . S
C2867 H2847 0.950 . S
C2867 C2863 1.385 . S
C2867 C2866 1.374 . S
C2868 C2865 1.499 . S
C2868 C2869 1.373 . S
C2868 C2870 1.389 . S
C2869 H2848 0.950 . S
C2869 C2868 1.373 . S
C2869 C2885 1.377 . S
C2870 C2868 1.389 . S
C2870 C2871 1.524 . S
C2870 C2884 1.377 . S
C2871 C2870 1.524 . S
C2871 C2872 1.397 . S
C2871 C2876 1.363 . S
C2872 H2849 0.950 . S
C2872 C2871 1.397 . S
C2872 C2873 1.334 . S
C2873 H2850 0.950 . S
C2873 C2872 1.334 . S
C2873 C2874 1.287 . S
C2874 C2873 1.287 . S
C2874 C2875 1.524 . S
C2874 H2893 0.913 . S
C2875 H2851 0.950 . S
C2875 C2874 1.524 . S
C2875 C2876 1.415 . S
C2876 H2852 0.950 . S
C2876 C2871 1.363 . S
C2876 C2875 1.415 . S
C2877 H2853 0.951 . S
C2877 C2878 1.366 . S
C2877 C2879 1.388 . S
C2878 C2877 1.366 . S
C2878 C2882 1.385 . S
C2879 H2854 0.951 . S
C2879 C2877 1.388 . S
C2879 C2880 1.366 . S
C2880 C2879 1.366 . S
C2880 C2881 1.414 . S
C2880 C2883 1.499 . S
C2881 H2855 0.950 . S
C2881 C2880 1.414 . S
C2881 C2882 1.374 . S
C2882 H2856 0.950 . S
C2882 C2878 1.385 . S
C2882 C2881 1.374 . S
C2883 C2880 1.499 . S
C2883 C2884 1.373 . S
C2883 C2885 1.389 . S
C2884 H2857 0.950 . S
C2884 C2870 1.377 . S
C2884 C2883 1.373 . S
C2885 C2869 1.377 . S
C2885 C2883 1.389 . S
C2885 C2886 1.524 . S
C2886 C2885 1.524 . S
C2886 C2887 1.397 . S
C2886 C2891 1.363 . S
C2887 H2858 0.950 . S
C2887 C2886 1.397 . S
C2887 C2888 1.334 . S
C2888 H2859 0.950 . S
C2888 C2887 1.334 . S
C2888 C2889 1.287 . S
C2889 C2888 1.287 . S
C2889 C2890 1.524 . S
C2889 H2892 0.999 . S
C2890 H2860 0.950 . S
C2890 C2889 1.524 . S
C2890 C2891 1.415 . S
C2891 H2861 0.950 . S
C2891 C2886 1.363 . S
C2891 C2890 1.415 . S
H2892 C2889 0.999 . S
H2893 C2874 0.913 . S
H2894 C2912 0.951 . S
H2895 C2914 0.951 . S
H2896 C2916 0.950 . S
H2897 C2917 0.950 . S
H2898 C2919 0.950 . S
H2899 C2922 0.950 . S
H2900 C2923 0.950 . S
H2901 C2925 0.950 . S
H2902 C2926 0.950 . S
H2903 C2927 0.951 . S
H2904 C2929 0.951 . S
H2905 C2931 0.950 . S
H2906 C2932 0.950 . S
H2907 C2934 0.950 . S
H2908 C2937 0.950 . S
H2909 C2938 0.950 . S
H2910 C2940 0.950 . S
H2911 C2941 0.950 . S
C2912 H2894 0.951 . S
C2912 C2913 1.366 . S
C2912 C2914 1.388 . S
C2913 C2912 1.366 . S
C2913 C2917 1.385 . S
C2914 H2895 0.951 . S
C2914 C2912 1.388 . S
C2914 C2915 1.366 . S
C2915 C2914 1.366 . S
C2915 C2916 1.414 . S
C2915 C2918 1.499 . S
C2916 H2896 0.950 . S
C2916 C2915 1.414 . S
C2916 C2917 1.374 . S
C2917 H2897 0.950 . S
C2917 C2913 1.385 . S
C2917 C2916 1.374 . S
C2918 C2915 1.499 . S
C2918 C2919 1.373 . S
C2918 C2920 1.389 . S
C2919 H2898 0.950 . S
C2919 C2918 1.373 . S
C2919 C2935 1.377 . S
C2920 C2918 1.389 . S
C2920 C2921 1.524 . S
C2920 C2934 1.377 . S
C2921 C2920 1.524 . S
C2921 C2922 1.397 . S
C2921 C2926 1.363 . S
C2922 H2899 0.950 . S
C2922 C2921 1.397 . S
C2922 C2923 1.334 . S
C2923 H2900 0.950 . S
C2923 C2922 1.334 . S
C2923 C2924 1.287 . S
C2924 C2923 1.287 . S
C2924 C2925 1.524 . S
C2924 H2943 0.913 . S
C2925 H2901 0.950 . S
C2925 C2924 1.524 . S
C2925 C2926 1.415 . S
C2926 H2902 0.950 . S
C2926 C2921 1.363 . S
C2926 C2925 1.415 . S
C2927 H2903 0.951 . S
C2927 C2928 1.366 . S
C2927 C2929 1.388 . S
C2928 C2927 1.366 . S
C2928 C2932 1.385 . S
C2929 H2904 0.951 . S
C2929 C2927 1.388 . S
C2929 C2930 1.366 . S
C2930 C2929 1.366 . S
C2930 C2931 1.414 . S
C2930 C2933 1.499 . S
C2931 H2905 0.950 . S
C2931 C2930 1.414 . S
C2931 C2932 1.374 . S
C2932 H2906 0.950 . S
C2932 C2928 1.385 . S
C2932 C2931 1.374 . S
C2933 C2930 1.499 . S
C2933 C2934 1.373 . S
C2933 C2935 1.389 . S
C2934 H2907 0.950 . S
C2934 C2920 1.377 . S
C2934 C2933 1.373 . S
C2935 C2919 1.377 . S
C2935 C2933 1.389 . S
C2935 C2936 1.524 . S
C2936 C2935 1.524 . S
C2936 C2937 1.397 . S
C2936 C2941 1.363 . S
C2937 H2908 0.950 . S
C2937 C2936 1.397 . S
C2937 C2938 1.334 . S
C2938 H2909 0.950 . S
C2938 C2937 1.334 . S
C2938 C2939 1.287 . S
C2939 C2938 1.287 . S
C2939 C2940 1.524 . S
C2939 H2942 0.999 . S
C2940 H2910 0.950 . S
C2940 C2939 1.524 . S
C2940 C2941 1.415 . S
C2941 H2911 0.950 . S
C2941 C2936 1.363 . S
C2941 C2940 1.415 . S
H2942 C2939 0.999 . S
H2943 C2924 0.913 . S
H2944 C2962 0.951 . S
H2945 C2964 0.951 . S
H2946 C2966 0.950 . S
H2947 C2967 0.950 . S
H2948 C2969 0.950 . S
H2949 C2972 0.950 . S
H2950 C2973 0.950 . S
H2951 C2975 0.950 . S
H2952 C2976 0.950 . S
H2953 C2977 0.951 . S
H2954 C2979 0.951 . S
H2955 C2981 0.950 . S
H2956 C2982 0.950 . S
H2957 C2984 0.950 . S
H2958 C2987 0.950 . S
H2959 C2988 0.950 . S
H2960 C2990 0.950 . S
H2961 C2991 0.950 . S
C2962 H2944 0.951 . S
C2962 C2963 1.366 . S
C2962 C2964 1.388 . S
C2963 C2962 1.366 . S
C2963 C2967 1.385 . S
C2964 H2945 0.951 . S
C2964 C2962 1.388 . S
C2964 C2965 1.366 . S
C2965 C2964 1.366 . S
C2965 C2966 1.414 . S
C2965 C2968 1.499 . S
C2966 H2946 0.950 . S
C2966 C2965 1.414 . S
C2966 C2967 1.374 . S
C2967 H2947 0.950 . S
C2967 C2963 1.385 . S
C2967 C2966 1.374 . S
C2968 C2965 1.499 . S
C2968 C2969 1.373 . S
C2968 C2970 1.389 . S
C2969 H2948 0.950 . S
C2969 C2968 1.373 . S
C2969 C2985 1.377 . S
C2970 C2968 1.389 . S
C2970 C2971 1.524 . S
C2970 C2984 1.377 . S
C2971 C2970 1.524 . S
C2971 C2972 1.397 . S
C2971 C2976 1.363 . S
C2972 H2949 0.950 . S
C2972 C2971 1.397 . S
C2972 C2973 1.334 . S
C2973 H2950 0.950 . S
C2973 C2972 1.334 . S
C2973 C2974 1.287 . S
C2974 C2973 1.287 . S
C2974 C2975 1.524 . S
C2974 H2993 0.913 . S
C2975 H2951 0.950 . S
C2975 C2974 1.524 . S
C2975 C2976 1.415 . S
C2976 H2952 0.950 . S
C2976 C2971 1.363 . S
C2976 C2975 1.415 . S
C2977 H2953 0.951 . S
C2977 C2978 1.366 . S
C2977 C2979 1.388 . S
C2978 C2977 1.366 . S
C2978 C2982 1.385 . S
C2979 H2954 0.951 . S
C2979 C2977 1.388 . S
C2979 C2980 1.366 . S
C2980 C2979 1.366 . S
C2980 C2981 1.414 . S
C2980 C2983 1.499 . S
C2981 H2955 0.950 . S
C2981 C2980 1.414 . S
C2981 C2982 1.374 . S
C2982 H2956 0.950 . S
C2982 C2978 1.385 . S
C2982 C2981 1.374 . S
C2983 C2980 1.499 . S
C2983 C2984 1.373 . S
C2983 C2985 1.389 . S
C2984 H2957 0.950 . S
C2984 C2970 1.377 . S
C2984 C2983 1.373 . S
C2985 C2969 1.377 . S
C2985 C2983 1.389 . S
C2985 C2986 1.524 . S
C2986 C2985 1.524 . S
C2986 C2987 1.397 . S
C2986 C2991 1.363 . S
C2987 H2958 0.950 . S
C2987 C2986 1.397 . S
C2987 C2988 1.334 . S
C2988 H2959 0.950 . S
C2988 C2987 1.334 . S
C2988 C2989 1.287 . S
C2989 C2988 1.287 . S
C2989 C2990 1.524 . S
C2989 H2992 0.999 . S
C2990 H2960 0.950 . S
C2990 C2989 1.524 . S
C2990 C2991 1.415 . S
C2991 H2961 0.950 . S
C2991 C2986 1.363 . S
C2991 C2990 1.415 . S
H2992 C2989 0.999 . S
H2993 C2974 0.913 . S
H2994 C3012 0.951 . S
H2995 C3014 0.951 . S
H2996 C3016 0.950 . S
H2997 C3017 0.950 . S
H2998 C3019 0.950 . S
H2999 C3022 0.950 . S
H3000 C3023 0.950 . S
H3001 C3025 0.950 . S
H3002 C3026 0.950 . S
H3003 C3027 0.951 . S
H3004 C3029 0.951 . S
H3005 C3031 0.950 . S
H3006 C3032 0.950 . S
H3007 C3034 0.950 . S
H3008 C3037 0.950 . S
H3009 C3038 0.950 . S
H3010 C3040 0.950 . S
H3011 C3041 0.950 . S
C3012 H2994 0.951 . S
C3012 C3013 1.366 . S
C3012 C3014 1.388 . S
C3013 C3012 1.366 . S
C3013 C3017 1.385 . S
C3014 H2995 0.951 . S
C3014 C3012 1.388 . S
C3014 C3015 1.366 . S
C3015 C3014 1.366 . S
C3015 C3016 1.414 . S
C3015 C3018 1.499 . S
C3016 H2996 0.950 . S
C3016 C3015 1.414 . S
C3016 C3017 1.374 . S
C3017 H2997 0.950 . S
C3017 C3013 1.385 . S
C3017 C3016 1.374 . S
C3018 C3015 1.499 . S
C3018 C3019 1.373 . S
C3018 C3020 1.389 . S
C3019 H2998 0.950 . S
C3019 C3018 1.373 . S
C3019 C3035 1.377 . S
C3020 C3018 1.389 . S
C3020 C3021 1.524 . S
C3020 C3034 1.377 . S
C3021 C3020 1.524 . S
C3021 C3022 1.397 . S
C3021 C3026 1.363 . S
C3022 H2999 0.950 . S
C3022 C3021 1.397 . S
C3022 C3023 1.334 . S
C3023 H3000 0.950 . S
C3023 C3022 1.334 . S
C3023 C3024 1.287 . S
C3024 C3023 1.287 . S
C3024 C3025 1.524 . S
C3024 H3043 0.913 . S
C3025 H3001 0.950 . S
C3025 C3024 1.524 . S
C3025 C3026 1.415 . S
C3026 H3002 0.950 . S
C3026 C3021 1.363 . S
C3026 C3025 1.415 . S
C3027 H3003 0.951 . S
C3027 C3028 1.366 . S
C3027 C3029 1.388 . S
C3028 C3027 1.366 . S
C3028 C3032 1.385 . S
C3029 H3004 0.951 . S
C3029 C3027 1.388 . S
C3029 C3030 1.366 . S
C3030 C3029 1.366 . S
C3030 C3031 1.414 . S
C3030 C3033 1.499 . S
C3031 H3005 0.950 . S
C3031 C3030 1.414 . S
C3031 C3032 1.374 . S
C3032 H3006 0.950 . S
C3032 C3028 1.385 . S
C3032 C3031 1.374 . S
C3033 C3030 1.499 . S
C3033 C3034 1.373 . S
C3033 C3035 1.389 . S
C3034 H3007 0.950 . S
C3034 C3020 1.377 . S
C3034 C3033 1.373 . S
C3035 C3019 1.377 . S
C3035 C3033 1.389 . S
C3035 C3036 1.524 . S
C3036 C3035 1.524 . S
C3036 C3037 1.397 . S
C3036 C3041 1.363 . S
C3037 H3008 0.950 . S
C3037 C3036 1.397 . S
C3037 C3038 1.334 . S
C3038 H3009 0.950 . S
C3038 C3037 1.334 . S
C3038 C3039 1.287 . S
C3039 C3038 1.287 . S
C3039 C3040 1.524 . S
C3039 H3042 0.999 . S
C3040 H3010 0.950 . S
C3040 C3039 1.524 . S
C3040 C3041 1.415 . S
C3041 H3011 0.950 . S
C3041 C3036 1.363 . S
C3041 C3040 1.415 . S
H3042 C3039 0.999 . S
H3043 C3024 0.913 . S
H3044 C3062 0.951 . S
H3045 C3064 0.951 . S
H3046 C3066 0.950 . S
H3047 C3067 0.950 . S
H3048 C3069 0.950 . S
H3049 C3072 0.950 . S
H3050 C3073 0.950 . S
H3051 C3075 0.950 . S
H3052 C3076 0.950 . S
H3053 C3077 0.951 . S
H3054 C3079 0.951 . S
H3055 C3081 0.950 . S
H3056 C3082 0.950 . S
H3057 C3084 0.950 . S
H3058 C3087 0.950 . S
H3059 C3088 0.950 . S
H3060 C3090 0.950 . S
H3061 C3091 0.950 . S
C3062 H3044 0.951 . S
C3062 C3063 1.366 . S
C3062 C3064 1.388 . S
C3063 C3062 1.366 . S
C3063 C3067 1.385 . S
C3064 H3045 0.951 . S
C3064 C3062 1.388 . S
C3064 C3065 1.366 . S
C3065 C3064 1.366 . S
C3065 C3066 1.414 . S
C3065 C3068 1.499 . S
C3066 H3046 0.950 . S
C3066 C3065 1.414 . S
C3066 C3067 1.374 . S
C3067 H3047 0.950 . S
C3067 C3063 1.385 . S
C3067 C3066 1.374 . S
C3068 C3065 1.499 . S
C3068 C3069 1.373 . S
C3068 C3070 1.389 . S
C3069 H3048 0.950 . S
C3069 C3068 1.373 . S
C3069 C3085 1.377 . S
C3070 C3068 1.389 . S
C3070 C3071 1.524 . S
C3070 C3084 1.377 . S
C3071 C3070 1.524 . S
C3071 C3072 1.397 . S
C3071 C3076 1.363 . S
C3072 H3049 0.950 . S
C3072 C3071 1.397 . S
C3072 C3073 1.334 . S
C3073 H3050 0.950 . S
C3073 C3072 1.334 . S
C3073 C3074 1.287 . S
C3074 C3073 1.287 . S
C3074 C3075 1.524 . S
C3074 H3093 0.913 . S
C3075 H3051 0.950 . S
C3075 C3074 1.524 . S
C3075 C3076 1.415 . S
C3076 H3052 0.950 . S
C3076 C3071 1.363 . S
C3076 C3075 1.415 . S
C3077 H3053 0.951 . S
C3077 C3078 1.366 . S
C3077 C3079 1.388 . S
C3078 C3077 1.366 . S
C3078 C3082 1.385 . S
C3079 H3054 0.951 . S
C3079 C3077 1.388 . S
C3079 C3080 1.366 . S
C3080 C3079 1.366 . S
C3080 C3081 1.414 . S
C3080 C3083 1.499 . S
C3081 H3055 0.950 . S
C3081 C3080 1.414 . S
C3081 C3082 1.374 . S
C3082 H3056 0.950 . S
C3082 C3078 1.385 . S
C3082 C3081 1.374 . S
C3083 C3080 1.499 . S
C3083 C3084 1.373 . S
C3083 C3085 1.389 . S
C3084 H3057 0.950 . S
C3084 C3070 1.377 . S
C3084 C3083 1.373 . S
C3085 C3069 1.377 . S
C3085 C3083 1.389 . S
C3085 C3086 1.524 . S
C3086 C3085 1.524 . S
C3086 C3087 1.397 . S
C3086 C3091 1.363 . S
C3087 H3058 0.950 . S
C3087 C3086 1.397 . S
C3087 C3088 1.334 . S
C3088 H3059 0.950 . S
C3088 C3087 1.334 . S
C3088 C3089 1.287 . S
C3089 C3088 1.287 . S
C3089 C3090 1.524 . S
C3089 H3092 0.999 . S
C3090 H3060 0.950 . S
C3090 C3089 1.524 . S
C3090 C3091 1.415 . S
C3091 H3061 0.950 . S
C3091 C3086 1.363 . S
C3091 C3090 1.415 . S
H3092 C3089 0.999 . S
H3093 C3074 0.913 . S
H3094 C3112 0.951 . S
H3095 C3114 0.951 . S
H3096 C3116 0.950 . S
H3097 C3117 0.950 . S
H3098 C3119 0.950 . S
H3099 C3122 0.950 . S
H3100 C3123 0.950 . S
H3101 C3125 0.950 . S
H3102 C3126 0.950 . S
H3103 C3127 0.951 . S
H3104 C3129 0.951 . S
H3105 C3131 0.950 . S
H3106 C3132 0.950 . S
H3107 C3134 0.950 . S
H3108 C3137 0.950 . S
H3109 C3138 0.950 . S
H3110 C3140 0.950 . S
H3111 C3141 0.950 . S
C3112 H3094 0.951 . S
C3112 C3113 1.366 . S
C3112 C3114 1.388 . S
C3113 C3112 1.366 . S
C3113 C3117 1.385 . S
C3114 H3095 0.951 . S
C3114 C3112 1.388 . S
C3114 C3115 1.366 . S
C3115 C3114 1.366 . S
C3115 C3116 1.414 . S
C3115 C3118 1.499 . S
C3116 H3096 0.950 . S
C3116 C3115 1.414 . S
C3116 C3117 1.374 . S
C3117 H3097 0.950 . S
C3117 C3113 1.385 . S
C3117 C3116 1.374 . S
C3118 C3115 1.499 . S
C3118 C3119 1.373 . S
C3118 C3120 1.389 . S
C3119 H3098 0.950 . S
C3119 C3118 1.373 . S
C3119 C3135 1.377 . S
C3120 C3118 1.389 . S
C3120 C3121 1.524 . S
C3120 C3134 1.377 . S
C3121 C3120 1.524 . S
C3121 C3122 1.397 . S
C3121 C3126 1.363 . S
C3122 H3099 0.950 . S
C3122 C3121 1.397 . S
C3122 C3123 1.334 . S
C3123 H3100 0.950 . S
C3123 C3122 1.334 . S
C3123 C3124 1.287 . S
C3124 C3123 1.287 . S
C3124 C3125 1.524 . S
C3124 H3143 0.913 . S
C3125 H3101 0.950 . S
C3125 C3124 1.524 . S
C3125 C3126 1.415 . S
C3126 H3102 0.950 . S
C3126 C3121 1.363 . S
C3126 C3125 1.415 . S
C3127 H3103 0.951 . S
C3127 C3128 1.366 . S
C3127 C3129 1.388 . S
C3128 C3127 1.366 . S
C3128 C3132 1.385 . S
C3129 H3104 0.951 . S
C3129 C3127 1.388 . S
C3129 C3130 1.366 . S
C3130 C3129 1.366 . S
C3130 C3131 1.414 . S
C3130 C3133 1.499 . S
C3131 H3105 0.950 . S
C3131 C3130 1.414 . S
C3131 C3132 1.374 . S
C3132 H3106 0.950 . S
C3132 C3128 1.385 . S
C3132 C3131 1.374 . S
C3133 C3130 1.499 . S
C3133 C3134 1.373 . S
C3133 C3135 1.389 . S
C3134 H3107 0.950 . S
C3134 C3120 1.377 . S
C3134 C3133 1.373 . S
C3135 C3119 1.377 . S
C3135 C3133 1.389 . S
C3135 C3136 1.524 . S
C3136 C3135 1.524 . S
C3136 C3137 1.397 . S
C3136 C3141 1.363 . S
C3137 H3108 0.950 . S
C3137 C3136 1.397 . S
C3137 C3138 1.334 . S
C3138 H3109 0.950 . S
C3138 C3137 1.334 . S
C3138 C3139 1.287 . S
C3139 C3138 1.287 . S
C3139 C3140 1.524 . S
C3139 H3142 0.999 . S
C3140 H3110 0.950 . S
C3140 C3139 1.524 . S
C3140 C3141 1.415 . S
C3141 H3111 0.950 . S
C3141 C3136 1.363 . S
C3141 C3140 1.415 . S
H3142 C3139 0.999 . S
H3143 C3124 0.913 . S
H3144 C3162 0.951 . S
H3145 C3164 0.951 . S
H3146 C3166 0.950 . S
H3147 C3167 0.950 . S
H3148 C3169 0.950 . S
H3149 C3172 0.950 . S
H3150 C3173 0.950 . S
H3151 C3175 0.950 . S
H3152 C3176 0.950 . S
H3153 C3177 0.951 . S
H3154 C3179 0.951 . S
H3155 C3181 0.950 . S
H3156 C3182 0.950 . S
H3157 C3184 0.950 . S
H3158 C3187 0.950 . S
H3159 C3188 0.950 . S
H3160 C3190 0.950 . S
H3161 C3191 0.950 . S
C3162 H3144 0.951 . S
C3162 C3163 1.366 . S
C3162 C3164 1.388 . S
C3163 C3162 1.366 . S
C3163 C3167 1.385 . S
C3164 H3145 0.951 . S
C3164 C3162 1.388 . S
C3164 C3165 1.366 . S
C3165 C3164 1.366 . S
C3165 C3166 1.414 . S
C3165 C3168 1.499 . S
C3166 H3146 0.950 . S
C3166 C3165 1.414 . S
C3166 C3167 1.374 . S
C3167 H3147 0.950 . S
C3167 C3163 1.385 . S
C3167 C3166 1.374 . S
C3168 C3165 1.499 . S
C3168 C3169 1.373 . S
C3168 C3170 1.389 . S
C3169 H3148 0.950 . S
C3169 C3168 1.373 . S
C3169 C3185 1.377 . S
C3170 C3168 1.389 . S
C3170 C3171 1.524 . S
C3170 C3184 1.377 . S
C3171 C3170 1.524 . S
C3171 C3172 1.397 . S
C3171 C3176 1.363 . S
C3172 H3149 0.950 . S
C3172 C3171 1.397 . S
C3172 C3173 1.334 . S
C3173 H3150 0.950 . S
C3173 C3172 1.334 . S
C3173 C3174 1.287 . S
C3174 C3173 1.287 . S
C3174 C3175 1.524 . S
C3174 H3193 0.913 . S
C3175 H3151 0.950 . S
C3175 C3174 1.524 . S
C3175 C3176 1.415 . S
C3176 H3152 0.950 . S
C3176 C3171 1.363 . S
C3176 C3175 1.415 . S
C3177 H3153 0.951 . S
C3177 C3178 1.366 . S
C3177 C3179 1.388 . S
C3178 C3177 1.366 . S
C3178 C3182 1.385 . S
C3179 H3154 0.951 . S
C3179 C3177 1.388 . S
C3179 C3180 1.366 . S
C3180 C3179 1.366 . S
C3180 C3181 1.414 . S
C3180 C3183 1.499 . S
C3181 H3155 0.950 . S
C3181 C3180 1.414 . S
C3181 C3182 1.374 . S
C3182 H3156 0.950 . S
C3182 C3178 1.385 . S
C3182 C3181 1.374 . S
C3183 C3180 1.499 . S
C3183 C3184 1.373 . S
C3183 C3185 1.389 . S
C3184 H3157 0.950 . S
C3184 C3170 1.377 . S
C3184 C3183 1.373 . S
C3185 C3169 1.377 . S
C3185 C3183 1.389 . S
C3185 C3186 1.524 . S
C3186 C3185 1.524 . S
C3186 C3187 1.397 . S
C3186 C3191 1.363 . S
C3187 H3158 0.950 . S
C3187 C3186 1.397 . S
C3187 C3188 1.334 . S
C3188 H3159 0.950 . S
C3188 C3187 1.334 . S
C3188 C3189 1.287 . S
C3189 C3188 1.287 . S
C3189 C3190 1.524 . S
C3189 H3192 0.999 . S
C3190 H3160 0.950 . S
C3190 C3189 1.524 . S
C3190 C3191 1.415 . S
C3191 H3161 0.950 . S
C3191 C3186 1.363 . S
C3191 C3190 1.415 . S
H3192 C3189 0.999 . S
H3193 C3174 0.913 . S
H3194 C3212 0.951 . S
H3195 C3214 0.951 . S
H3196 C3216 0.950 . S
H3197 C3217 0.950 . S
H3198 C3219 0.950 . S
H3199 C3222 0.950 . S
H3200 C3223 0.950 . S
H3201 C3225 0.950 . S
H3202 C3226 0.950 . S
H3203 C3227 0.951 . S
H3204 C3229 0.951 . S
H3205 C3231 0.950 . S
H3206 C3232 0.950 . S
H3207 C3234 0.950 . S
H3208 C3237 0.950 . S
H3209 C3238 0.950 . S
H3210 C3240 0.950 . S
H3211 C3241 0.950 . S
C3212 H3194 0.951 . S
C3212 C3213 1.366 . S
C3212 C3214 1.388 . S
C3213 C3212 1.366 . S
C3213 C3217 1.385 . S
C3214 H3195 0.951 . S
C3214 C3212 1.388 . S
C3214 C3215 1.366 . S
C3215 C3214 1.366 . S
C3215 C3216 1.414 . S
C3215 C3218 1.499 . S
C3216 H3196 0.950 . S
C3216 C3215 1.414 . S
C3216 C3217 1.374 . S
C3217 H3197 0.950 . S
C3217 C3213 1.385 . S
C3217 C3216 1.374 . S
C3218 C3215 1.499 . S
C3218 C3219 1.373 . S
C3218 C3220 1.389 . S
C3219 H3198 0.950 . S
C3219 C3218 1.373 . S
C3219 C3235 1.377 . S
C3220 C3218 1.389 . S
C3220 C3221 1.524 . S
C3220 C3234 1.377 . S
C3221 C3220 1.524 . S
C3221 C3222 1.397 . S
C3221 C3226 1.363 . S
C3222 H3199 0.950 . S
C3222 C3221 1.397 . S
C3222 C3223 1.334 . S
C3223 H3200 0.950 . S
C3223 C3222 1.334 . S
C3223 C3224 1.287 . S
C3224 C3223 1.287 . S
C3224 C3225 1.524 . S
C3224 H3243 0.913 . S
C3225 H3201 0.950 . S
C3225 C3224 1.524 . S
C3225 C3226 1.415 . S
C3226 H3202 0.950 . S
C3226 C3221 1.363 . S
C3226 C3225 1.415 . S
C3227 H3203 0.951 . S
C3227 C3228 1.366 . S
C3227 C3229 1.388 . S
C3228 C3227 1.366 . S
C3228 C3232 1.385 . S
C3229 H3204 0.951 . S
C3229 C3227 1.388 . S
C3229 C3230 1.366 . S
C3230 C3229 1.366 . S
C3230 C3231 1.414 . S
C3230 C3233 1.499 . S
C3231 H3205 0.950 . S
C3231 C3230 1.414 . S
C3231 C3232 1.374 . S
C3232 H3206 0.950 . S
C3232 C3228 1.385 . S
C3232 C3231 1.374 . S
C3233 C3230 1.499 . S
C3233 C3234 1.373 . S
C3233 C3235 1.389 . S
C3234 H3207 0.950 . S
C3234 C3220 1.377 . S
C3234 C3233 1.373 . S
C3235 C3219 1.377 . S
C3235 C3233 1.389 . S
C3235 C3236 1.524 . S
C3236 C3235 1.524 . S
C3236 C3237 1.397 . S
C3236 C3241 1.363 . S
C3237 H3208 0.950 . S
C3237 C3236 1.397 . S
C3237 C3238 1.334 . S
C3238 H3209 0.950 . S
C3238 C3237 1.334 . S
C3238 C3239 1.287 . S
C3239 C3238 1.287 . S
C3239 C3240 1.524 . S
C3239 H3242 0.999 . S
C3240 H3210 0.950 . S
C3240 C3239 1.524 . S
C3240 C3241 1.415 . S
C3241 H3211 0.950 . S
C3241 C3236 1.363 . S
C3241 C3240 1.415 . S
H3242 C3239 0.999 . S
H3243 C3224 0.913 . S
H3244 C3262 0.951 . S
H3245 C3264 0.951 . S
H3246 C3266 0.950 . S
H3247 C3267 0.950 . S
H3248 C3269 0.950 . S
H3249 C3272 0.950 . S
H3250 C3273 0.950 . S
H3251 C3275 0.950 . S
H3252 C3276 0.950 . S
H3253 C3277 0.951 . S
H3254 C3279 0.951 . S
H3255 C3281 0.950 . S
H3256 C3282 0.950 . S
H3257 C3284 0.950 . S
H3258 C3287 0.950 . S
H3259 C3288 0.950 . S
H3260 C3290 0.950 . S
H3261 C3291 0.950 . S
C3262 H3244 0.951 . S
C3262 C3263 1.366 . S
C3262 C3264 1.388 . S
C3263 C3262 1.366 . S
C3263 C3267 1.385 . S
C3264 H3245 0.951 . S
C3264 C3262 1.388 . S
C3264 C3265 1.366 . S
C3265 C3264 1.366 . S
C3265 C3266 1.414 . S
C3265 C3268 1.499 . S
C3266 H3246 0.950 . S
C3266 C3265 1.414 . S
C3266 C3267 1.374 . S
C3267 H3247 0.950 . S
C3267 C3263 1.385 . S
C3267 C3266 1.374 . S
C3268 C3265 1.499 . S
C3268 C3269 1.373 . S
C3268 C3270 1.389 . S
C3269 H3248 0.950 . S
C3269 C3268 1.373 . S
C3269 C3285 1.377 . S
C3270 C3268 1.389 . S
C3270 C3271 1.524 . S
C3270 C3284 1.377 . S
C3271 C3270 1.524 . S
C3271 C3272 1.397 . S
C3271 C3276 1.363 . S
C3272 H3249 0.950 . S
C3272 C3271 1.397 . S
C3272 C3273 1.334 . S
C3273 H3250 0.950 . S
C3273 C3272 1.334 . S
C3273 C3274 1.287 . S
C3274 C3273 1.287 . S
C3274 C3275 1.524 . S
C3274 H3293 0.913 . S
C3275 H3251 0.950 . S
C3275 C3274 1.524 . S
C3275 C3276 1.415 . S
C3276 H3252 0.950 . S
C3276 C3271 1.363 . S
C3276 C3275 1.415 . S
C3277 H3253 0.951 . S
C3277 C3278 1.366 . S
C3277 C3279 1.388 . S
C3278 C3277 1.366 . S
C3278 C3282 1.385 . S
C3279 H3254 0.951 . S
C3279 C3277 1.388 . S
C3279 C3280 1.366 . S
C3280 C3279 1.366 . S
C3280 C3281 1.414 . S
C3280 C3283 1.499 . S
C3281 H3255 0.950 . S
C3281 C3280 1.414 . S
C3281 C3282 1.374 . S
C3282 H3256 0.950 . S
C3282 C3278 1.385 . S
C3282 C3281 1.374 . S
C3283 C3280 1.499 . S
C3283 C3284 1.373 . S
C3283 C3285 1.389 . S
C3284 H3257 0.950 . S
C3284 C3270 1.377 . S
C3284 C3283 1.373 . S
C3285 C3269 1.377 . S
C3285 C3283 1.389 . S
C3285 C3286 1.524 . S
C3286 C3285 1.524 . S
C3286 C3287 1.397 . S
C3286 C3291 1.363 . S
C3287 H3258 0.950 . S
C3287 C3286 1.397 . S
C3287 C3288 1.334 . S
C3288 H3259 0.950 . S
C3288 C3287 1.334 . S
C3288 C3289 1.287 . S
C3289 C3288 1.287 . S
C3289 C3290 1.524 . S
C3289 H3292 0.999 . S
C3290 H3260 0.950 . S
C3290 C3289 1.524 . S
C3290 C3291 1.415 . S
C3291 H3261 0.950 . S
C3291 C3286 1.363 . S
C3291 C3290 1.415 . S
H3292 C3289 0.999 . S
H3293 C3274 0.913 . S
C613 C177 1.693 . S
C628 C237 1.702 . S
C663 C190 1.853 . S
C678 C277 1.851 . S
C713 C164 1.611 . S
C728 C329 1.600 . S
C763 C151 1.465 . S
C778 C289 1.437 1_556 S
C828 C317 1.494 1_556 S
C813 C125 1.495 . S
C863 C138 1.313 . S
C878 C249 1.310 . S
C928 C256 1.687 1_556 S
C913 C147 1.646 . S
C978 C296 1.715 . S
C963 C121 1.655 . S
C1013 C134 1.634 . S
C1028 C316 1.696 . S
C1063 C173 1.455 . S
C1078 C276 1.498 . S
C1113 C186 1.410 . S
C1128 C336 1.442 . S
C1178 C236 1.432 . S
C1163 C160 1.391 . S
C1228 C357 1.702 . S
C1213 C21 1.693 . S
C1263 C34 1.853 . S
C1278 C397 1.851 . S
C1313 C8 1.611 . S
C1328 C449 1.600 . S
C1363 C229 1.466 . S
C1378 C409 1.447 . S
C1413 C203 1.495 . S
C1428 C437 1.494 . S
C1463 C216 1.314 . S
C1478 C369 1.310 . S
C1513 C225 1.645 . S
C1528 C376 1.687 . S
C1563 C199 1.655 . S
C1578 C416 1.715 . S
C1628 C436 1.695 . S
C1613 C212 1.633 . S
C1663 C17 1.455 . S
C1678 C396 1.499 . S
C1728 C456 1.443 . S
C1713 C30 1.411 . S
C1763 C4 1.392 . S
C1778 C356 1.432 . S
C1828 C477 1.702 . S
C1813 C99 1.693 . S
C1863 C112 1.854 . S
C1878 C517 1.852 . S
C1928 C569 1.600 . S
C1913 C86 1.611 . S
C1978 C529 1.446 . S
C1963 C73 1.465 . S
C2028 C557 1.494 . S
C2013 C47 1.495 . S
C2063 C60 1.313 . S
C2078 C489 1.310 . S
C2113 C69 1.645 . S
C2128 C496 1.687 . S
C2163 C43 1.655 . S
C2178 C536 1.715 . S
C2228 C556 1.696 . S
C2213 C56 1.634 . S
C2263 C95 1.456 . S
C2278 C516 1.499 . S
C2313 C108 1.410 . S
C2328 C576 1.442 . S
C2363 C82 1.392 . S
C2378 C476 1.433 . S
C2413 C204 1.412 . S
C2428 C260 1.391 . S
C2478 C300 1.972 . S
C2463 C217 2.000 . S
C2513 C230 1.567 . S
C2528 C323 1.581 . S
C2563 C87 1.842 . S
C2578 C283 1.846 . S
C2613 C100 1.694 . S
C2628 C340 1.679 . S
C2678 C243 1.245 . S
C2663 C113 1.238 . S
C2713 C48 1.411 . S
C2728 C380 1.390 . S
C2763 C61 2.000 . S
C2778 C420 1.972 . S
C2813 C74 1.567 . S
C2828 C443 1.581 . S
C2863 C165 1.842 . S
C2878 C403 1.846 . S
C2928 C460 1.679 . S
C2913 C178 1.694 . S
C2963 C191 1.238 . S
C2978 C363 1.245 . S
C3013 C126 1.412 . S
C3028 C500 1.391 . S
C3063 C139 2.000 . S
C3078 C540 1.972 . S
C3128 C563 1.582 . S
C3113 C152 1.567 . S
C3163 C9 1.842 . S
C3178 C523 1.846 . S
C3213 C22 1.694 . S
C3228 C580 1.679 . S
C3263 C35 1.237 . S
C3278 C483 1.245 . S
