# Generated by pormake.
# Topology ptr, (4,4)-cn, num edge types: 1
# Building blocks:
#     Node 0, Type 0, BuildingBlock: AZAVOO_clean_sbu_0, # of connection points: 4
#     Node 1, Type 0, BuildingBlock: AZAVOO_clean_sbu_0, # of connection points: 4
#     Node 2, Type 0, BuildingBlock: AZAVOO_clean_sbu_0, # of connection points: 4
#     Node 3, Type 0, BuildingBlock: AZAVOO_clean_sbu_0, # of connection points: 4
#     Node 4, Type 0, BuildingBlock: AZAVOO_clean_sbu_0, # of connection points: 4
#     Node 5, Type 0, BuildingBlock: AZAVOO_clean_sbu_0, # of connection points: 4
#     Node 6, Type 0, BuildingBlock: AZAVOO_clean_sbu_0, # of connection points: 4
#     Node 7, Type 0, BuildingBlock: AZAVOO_clean_sbu_0, # of connection points: 4
#     Node 8, Type 0, BuildingBlock: AZAVOO_clean_sbu_0, # of connection points: 4
#     Node 9, Type 0, BuildingBlock: AZAVOO_clean_sbu_0, # of connection points: 4
#     Node 10, Type 0, BuildingBlock: AZAVOO_clean_sbu_0, # of connection points: 4
#     Node 11, Type 0, BuildingBlock: AZAVOO_clean_sbu_0, # of connection points: 4
#     Node 12, Type 0, BuildingBlock: AZAVOO_clean_sbu_0, # of connection points: 4
#     Node 13, Type 0, BuildingBlock: AZAVOO_clean_sbu_0, # of connection points: 4
#     Node 14, Type 0, BuildingBlock: AZAVOO_clean_sbu_0, # of connection points: 4
#     Node 15, Type 0, BuildingBlock: AZAVOO_clean_sbu_0, # of connection points: 4
#     Node 16, Type 0, BuildingBlock: AZAVOO_clean_sbu_0, # of connection points: 4
#     Node 17, Type 0, BuildingBlock: AZAVOO_clean_sbu_0, # of connection points: 4
#     Node 18, Type 1, BuildingBlock: NAWXER_clean_linker_0, # of connection points: 4
#     Node 19, Type 1, BuildingBlock: NAWXER_clean_linker_0, # of connection points: 4
#     Node 20, Type 1, BuildingBlock: NAWXER_clean_linker_0, # of connection points: 4
#     Node 21, Type 1, BuildingBlock: NAWXER_clean_linker_0, # of connection points: 4
#     Node 22, Type 1, BuildingBlock: NAWXER_clean_linker_0, # of connection points: 4
#     Node 23, Type 1, BuildingBlock: NAWXER_clean_linker_0, # of connection points: 4
#     Node 24, Type 1, BuildingBlock: NAWXER_clean_linker_0, # of connection points: 4
#     Node 25, Type 1, BuildingBlock: NAWXER_clean_linker_0, # of connection points: 4
#     Node 26, Type 1, BuildingBlock: NAWXER_clean_linker_0, # of connection points: 4
#     Node 27, Type 1, BuildingBlock: NAWXER_clean_linker_0, # of connection points: 4
#     Node 28, Type 1, BuildingBlock: NAWXER_clean_linker_0, # of connection points: 4
#     Node 29, Type 1, BuildingBlock: NAWXER_clean_linker_0, # of connection points: 4
#     Node 30, Type 1, BuildingBlock: NAWXER_clean_linker_0, # of connection points: 4
#     Node 31, Type 1, BuildingBlock: NAWXER_clean_linker_0, # of connection points: 4
#     Node 32, Type 1, BuildingBlock: NAWXER_clean_linker_0, # of connection points: 4
#     Node 33, Type 1, BuildingBlock: NAWXER_clean_linker_0, # of connection points: 4
#     Node 34, Type 1, BuildingBlock: NAWXER_clean_linker_0, # of connection points: 4
#     Node 35, Type 1, BuildingBlock: NAWXER_clean_linker_0, # of connection points: 4
#     Edge 36, Type (0, 1), BuildingBlock: OJICUG_clean_linker_0, # of connection points: 2
#     Edge 37, Type (0, 1), BuildingBlock: OJICUG_clean_linker_0, # of connection points: 2
#     Edge 38, Type (0, 1), BuildingBlock: OJICUG_clean_linker_0, # of connection points: 2
#     Edge 39, Type (0, 1), BuildingBlock: OJICUG_clean_linker_0, # of connection points: 2
#     Edge 40, Type (0, 1), BuildingBlock: OJICUG_clean_linker_0, # of connection points: 2
#     Edge 41, Type (0, 1), BuildingBlock: OJICUG_clean_linker_0, # of connection points: 2
#     Edge 42, Type (0, 1), BuildingBlock: OJICUG_clean_linker_0, # of connection points: 2
#     Edge 43, Type (0, 1), BuildingBlock: OJICUG_clean_linker_0, # of connection points: 2
#     Edge 44, Type (0, 1), BuildingBlock: OJICUG_clean_linker_0, # of connection points: 2
#     Edge 45, Type (0, 1), BuildingBlock: OJICUG_clean_linker_0, # of connection points: 2
#     Edge 46, Type (0, 1), BuildingBlock: OJICUG_clean_linker_0, # of connection points: 2
#     Edge 47, Type (0, 1), BuildingBlock: OJICUG_clean_linker_0, # of connection points: 2
#     Edge 48, Type (0, 1), BuildingBlock: OJICUG_clean_linker_0, # of connection points: 2
#     Edge 49, Type (0, 1), BuildingBlock: OJICUG_clean_linker_0, # of connection points: 2
#     Edge 50, Type (0, 1), BuildingBlock: OJICUG_clean_linker_0, # of connection points: 2
#     Edge 51, Type (0, 1), BuildingBlock: OJICUG_clean_linker_0, # of connection points: 2
#     Edge 52, Type (0, 1), BuildingBlock: OJICUG_clean_linker_0, # of connection points: 2
#     Edge 53, Type (0, 1), BuildingBlock: OJICUG_clean_linker_0, # of connection points: 2
#     Edge 54, Type (0, 1), BuildingBlock: OJICUG_clean_linker_0, # of connection points: 2
#     Edge 55, Type (0, 1), BuildingBlock: OJICUG_clean_linker_0, # of connection points: 2
#     Edge 56, Type (0, 1), BuildingBlock: OJICUG_clean_linker_0, # of connection points: 2
#     Edge 57, Type (0, 1), BuildingBlock: OJICUG_clean_linker_0, # of connection points: 2
#     Edge 58, Type (0, 1), BuildingBlock: OJICUG_clean_linker_0, # of connection points: 2
#     Edge 59, Type (0, 1), BuildingBlock: OJICUG_clean_linker_0, # of connection points: 2
#     Edge 60, Type (0, 1), BuildingBlock: OJICUG_clean_linker_0, # of connection points: 2
#     Edge 61, Type (0, 1), BuildingBlock: OJICUG_clean_linker_0, # of connection points: 2
#     Edge 62, Type (0, 1), BuildingBlock: OJICUG_clean_linker_0, # of connection points: 2
#     Edge 63, Type (0, 1), BuildingBlock: OJICUG_clean_linker_0, # of connection points: 2
#     Edge 64, Type (0, 1), BuildingBlock: OJICUG_clean_linker_0, # of connection points: 2
#     Edge 65, Type (0, 1), BuildingBlock: OJICUG_clean_linker_0, # of connection points: 2
#     Edge 66, Type (0, 1), BuildingBlock: OJICUG_clean_linker_0, # of connection points: 2
#     Edge 67, Type (0, 1), BuildingBlock: OJICUG_clean_linker_0, # of connection points: 2
#     Edge 68, Type (0, 1), BuildingBlock: OJICUG_clean_linker_0, # of connection points: 2
#     Edge 69, Type (0, 1), BuildingBlock: OJICUG_clean_linker_0, # of connection points: 2
#     Edge 70, Type (0, 1), BuildingBlock: OJICUG_clean_linker_0, # of connection points: 2
#     Edge 71, Type (0, 1), BuildingBlock: OJICUG_clean_linker_0, # of connection points: 2
#     Edge 72, Type (0, 1), BuildingBlock: OJICUG_clean_linker_0, # of connection points: 2
#     Edge 73, Type (0, 1), BuildingBlock: OJICUG_clean_linker_0, # of connection points: 2
#     Edge 74, Type (0, 1), BuildingBlock: OJICUG_clean_linker_0, # of connection points: 2
#     Edge 75, Type (0, 1), BuildingBlock: OJICUG_clean_linker_0, # of connection points: 2
#     Edge 76, Type (0, 1), BuildingBlock: OJICUG_clean_linker_0, # of connection points: 2
#     Edge 77, Type (0, 1), BuildingBlock: OJICUG_clean_linker_0, # of connection points: 2
#     Edge 78, Type (0, 1), BuildingBlock: OJICUG_clean_linker_0, # of connection points: 2
#     Edge 79, Type (0, 1), BuildingBlock: OJICUG_clean_linker_0, # of connection points: 2
#     Edge 80, Type (0, 1), BuildingBlock: OJICUG_clean_linker_0, # of connection points: 2
#     Edge 81, Type (0, 1), BuildingBlock: OJICUG_clean_linker_0, # of connection points: 2
#     Edge 82, Type (0, 1), BuildingBlock: OJICUG_clean_linker_0, # of connection points: 2
#     Edge 83, Type (0, 1), BuildingBlock: OJICUG_clean_linker_0, # of connection points: 2
#     Edge 84, Type (0, 1), BuildingBlock: OJICUG_clean_linker_0, # of connection points: 2
#     Edge 85, Type (0, 1), BuildingBlock: OJICUG_clean_linker_0, # of connection points: 2
#     Edge 86, Type (0, 1), BuildingBlock: OJICUG_clean_linker_0, # of connection points: 2
#     Edge 87, Type (0, 1), BuildingBlock: OJICUG_clean_linker_0, # of connection points: 2
#     Edge 88, Type (0, 1), BuildingBlock: OJICUG_clean_linker_0, # of connection points: 2
#     Edge 89, Type (0, 1), BuildingBlock: OJICUG_clean_linker_0, # of connection points: 2
#     Edge 90, Type (0, 1), BuildingBlock: OJICUG_clean_linker_0, # of connection points: 2
#     Edge 91, Type (0, 1), BuildingBlock: OJICUG_clean_linker_0, # of connection points: 2
#     Edge 92, Type (0, 1), BuildingBlock: OJICUG_clean_linker_0, # of connection points: 2
#     Edge 93, Type (0, 1), BuildingBlock: OJICUG_clean_linker_0, # of connection points: 2
#     Edge 94, Type (0, 1), BuildingBlock: OJICUG_clean_linker_0, # of connection points: 2
#     Edge 95, Type (0, 1), BuildingBlock: OJICUG_clean_linker_0, # of connection points: 2
#     Edge 96, Type (0, 1), BuildingBlock: OJICUG_clean_linker_0, # of connection points: 2
#     Edge 97, Type (0, 1), BuildingBlock: OJICUG_clean_linker_0, # of connection points: 2
#     Edge 98, Type (0, 1), BuildingBlock: OJICUG_clean_linker_0, # of connection points: 2
#     Edge 99, Type (0, 1), BuildingBlock: OJICUG_clean_linker_0, # of connection points: 2
#     Edge 100, Type (0, 1), BuildingBlock: OJICUG_clean_linker_0, # of connection points: 2
#     Edge 101, Type (0, 1), BuildingBlock: OJICUG_clean_linker_0, # of connection points: 2
#     Edge 102, Type (0, 1), BuildingBlock: OJICUG_clean_linker_0, # of connection points: 2
#     Edge 103, Type (0, 1), BuildingBlock: OJICUG_clean_linker_0, # of connection points: 2
#     Edge 104, Type (0, 1), BuildingBlock: OJICUG_clean_linker_0, # of connection points: 2
#     Edge 105, Type (0, 1), BuildingBlock: OJICUG_clean_linker_0, # of connection points: 2
#     Edge 106, Type (0, 1), BuildingBlock: OJICUG_clean_linker_0, # of connection points: 2
#     Edge 107, Type (0, 1), BuildingBlock: OJICUG_clean_linker_0, # of connection points: 2
# Relax obj value: 0.082
# Max RMSD: 0.301
# Mean RMSD: 0.122
data_MOF--net-ptr--node1-AZAVOO_clean_sbu_0--node2-NAWXER_clean_linker_0--edge1-OJICUG_clean_linker_0
_symmetry_space_group_name_H-M    P1
_symmetry_Int_Tables_number       1
_symmetry_cell_setting            triclinic
loop_
_symmetry_equiv_pos_as_xyz
'x, y, z'
_cell_length_a     68.571883
_cell_length_b     67.438019
_cell_length_c     47.791442
_cell_angle_alpha  91.319772
_cell_angle_beta   91.183001
_cell_angle_gamma 120.07032
loop_
_atom_site_label
_atom_site_type_symbol
_atom_site_fract_x
_atom_site_fract_y
_atom_site_fract_z
_atom_type_partial_charge
Mg0 Mg 0.01693 0.3375 0.97889 0.0
O1 O -0.00041 0.34891 0.01145 0.0
O2 O 0.97408 0.35417 0.98789 0.0
Mg3 Mg 0.97561 0.34765 0.94128 0.0
C4 C 0.98404 0.35413 0.01072 0.0
C5 C 0.03048 0.3067 0.01537 0.0
O6 O 0.01751 0.2906 0.99664 0.0
O7 O 0.98546 0.30156 0.97319 0.0
O8 O 0.96244 0.30983 0.94882 0.0
O9 O 0.04257 0.37441 0.97323 0.0
O10 O 0.01064 0.3556 0.9483 0.0
C11 C 0.9667 0.29539 0.96015 0.0
C12 C 0.02876 0.37472 0.9546 0.0
O13 O 0.0327 0.32655 0.01387 0.0
Mg14 Mg 0.66197 0.65216 0.04956 0.0
O15 O 0.6332 0.64245 0.01675 0.0
O16 O 0.6028 0.63681 0.03939 0.0
Mg17 Mg 0.61179 0.64288 0.08621 0.0
C18 C 0.61255 0.63727 0.01676 0.0
C19 C 0.70449 0.68274 0.01311 0.0
O20 O 0.70892 0.69846 0.03284 0.0
O21 O 0.66735 0.68823 0.05648 0.0
O22 O 0.63698 0.68089 0.08052 0.0
O23 O 0.65044 0.61501 0.05467 0.0
O24 O 0.63862 0.63447 0.07995 0.0
C25 C 0.65563 0.69495 0.0698 0.0
C26 C 0.63737 0.61519 0.07373 0.0
O27 O 0.68696 0.66307 0.01443 0.0
Mg28 Mg 0.32818 0.96941 0.9891 0.0
O29 O 0.35785 0.99044 0.02003 0.0
O30 O 0.38754 0.01565 0.9968 0.0
Mg31 Mg 0.37688 0.00929 0.95008 0.0
C32 C 0.37827 0.00666 0.01957 0.0
C33 C 0.30536 0.94722 0.04562 0.0
O34 O 0.31963 0.9396 0.04557 0.0
O35 O 0.32228 -0.00084 0.98145 0.0
O36 O 0.35177 0.02195 0.95588 0.0
O37 O 0.34021 0.94412 0.98386 0.0
O38 O 0.34979 0.9739 0.95738 0.0
C39 C 0.33341 0.01714 0.96753 0.0
C40 C 0.35166 0.95647 0.9634 0.0
O41 O 0.30489 0.95896 0.0255 0.0
Mg42 Mg 0.98385 0.66052 0.04069 0.0
O43 O 0.00248 0.65019 0.00908 0.0
O44 O 0.02585 0.64257 0.03382 0.0
Mg45 Mg 0.02199 0.6474 0.08047 0.0
C46 C 0.01736 0.64407 0.0105 0.0
C47 C 0.95702 0.66064 0.98728 0.0
O48 O 0.95138 0.63893 0.9873 0.0
O49 O 0.01517 0.69576 0.05013 0.0
O50 O 0.03658 0.68599 0.07555 0.0
O51 O 0.95758 0.6234 0.04261 0.0
O52 O 0.98778 0.64095 0.07098 0.0
C53 C 0.03314 0.70113 0.0646 0.0
C54 C 0.97003 0.62225 0.06251 0.0
O55 O 0.97112 0.67441 0.00591 0.0
Mg56 Mg 0.3347 0.3513 0.97042 0.0
O57 O 0.36199 0.35989 0.00473 0.0
O58 O 0.3938 0.36712 0.98429 0.0
Mg59 Mg 0.38716 0.36437 0.93682 0.0
C60 C 0.38266 0.36512 0.00617 0.0
C61 C 0.2875 0.32291 0.99656 0.0
O62 O 0.28135 0.31748 0.96999 0.0
O63 O 0.33115 0.3163 0.96133 0.0
O64 O 0.36283 0.32579 0.93908 0.0
O65 O 0.34494 0.38848 0.96857 0.0
O66 O 0.35955 0.37156 0.94332 0.0
C67 C 0.3439 0.31078 0.94829 0.0
C68 C 0.35971 0.39006 0.95096 0.0
O69 O 0.30813 0.33652 0.00324 0.0
Mg70 Mg 0.66161 0.00835 0.04021 0.0
O71 O 0.63534 0.98956 0.00456 0.0
O72 O 0.60359 0.96216 0.02219 0.0
Mg73 Mg 0.60922 0.96427 0.06976 0.0
C74 C 0.61504 0.97312 1.00145 0.0
C75 C 0.68645 0.03301 0.98716 0.0
O76 O 0.66862 0.03543 0.98522 0.0
O77 O 0.66735 0.97826 0.04597 0.0
O78 O 0.6357 0.95332 0.06631 0.0
O79 O 0.64931 0.03333 0.04577 0.0
O80 O 0.63572 0.00067 0.06751 0.0
C81 C 0.65525 0.9592 0.05751 0.0
C82 C 0.63471 0.01879 0.06235 0.0
O83 O 0.68889 0.02306 0.00807 0.0
Mg84 Mg 0.67197 0.66498 0.32858 0.0
O85 O 0.65629 0.67689 0.36286 0.0
O86 O 0.63017 0.68234 0.34117 0.0
Mg87 Mg 0.63059 0.67642 0.29411 0.0
C88 C 0.64087 0.6823 0.36331 0.0
C89 C 0.70041 0.64557 0.35132 0.0
O90 O 0.70353 0.64669 0.32423 0.0
O91 O 0.64036 0.6295 0.32257 0.0
O92 O 0.61718 0.63814 0.29927 0.0
O93 O 0.69837 0.70151 0.32304 0.0
O94 O 0.66568 0.68387 0.29945 0.0
C95 C 0.62162 0.62351 0.30965 0.0
C96 C 0.68446 0.7025 0.30517 0.0
O97 O 0.68723 0.65191 0.36118 0.0
Mg98 Mg 0.33236 0.98903 0.3843 0.0
O99 O 0.30163 0.97901 0.35463 0.0
O100 O 0.27307 0.97402 0.3809 0.0
Mg101 Mg 0.28527 0.98156 0.42663 0.0
C102 C 0.28112 0.97392 0.35711 0.0
C103 C 0.37212 0.01799 0.3432 0.0
O104 O 0.37774 0.0346 0.3621 0.0
O105 O 0.33858 0.02542 0.3909 0.0
O106 O 0.30988 0.01912 0.41779 0.0
O107 O 0.32065 0.95193 0.38978 0.0
O108 O 0.31103 0.97229 0.41699 0.0
C109 C 0.32772 0.03267 0.40515 0.0
C110 C 0.30889 0.95269 0.4102 0.0
O111 O 0.35484 -0.00152 0.34659 0.0
Mg112 Mg 0.00615 0.31849 0.31601 0.0
O113 O 0.03108 0.33476 0.35368 0.0
O114 O 0.06355 0.36266 0.33821 0.0
Mg115 Mg 0.06028 0.36241 0.29047 0.0
C116 C 0.05136 0.351 0.35809 0.0
C117 C 0.97564 0.28919 0.36398 0.0
O118 O 0.99063 0.28251 0.36521 0.0
O119 O 0.00213 0.34973 0.31142 0.0
O120 O 0.03449 0.3744 0.29218 0.0
O121 O 0.01727 0.29268 0.30886 0.0
O122 O 0.03242 0.32643 0.28963 0.0
C123 C 0.0148 0.36881 0.30021 0.0
C124 C 0.03229 0.3075 0.29288 0.0
O125 O 0.97737 0.30336 0.34581 0.0
Mg126 Mg 0.64839 0.99021 0.37392 0.0
O127 O 0.66652 0.97859 0.34305 0.0
O128 O 0.69151 0.9735 0.36805 0.0
Mg129 Mg 0.68931 0.98117 0.41424 0.0
C130 C 0.68196 0.97325 0.34474 0.0
C131 C 0.63258 0.0185 0.33687 0.0
O132 O 0.6432 0.03411 0.35706 0.0
O133 O 0.67953 0.02649 0.37918 0.0
O134 O 0.70238 0.01874 0.40483 0.0
O135 O 0.62326 0.95316 0.38044 0.0
O136 O 0.65459 0.97353 0.40614 0.0
C137 C 0.69821 0.03292 0.3926 0.0
C138 C 0.63689 0.95403 0.40021 0.0
O139 O 0.6327 -0.00029 0.33748 0.0
Mg140 Mg 0.00385 0.67096 0.31367 0.0
O141 O 0.03194 0.68187 0.34726 0.0
O142 O 0.06368 0.68968 0.32638 0.0
Mg143 Mg 0.05588 0.68473 0.27898 0.0
C144 C 0.05285 0.68813 0.3484 0.0
C145 C 0.95763 0.64331 0.33917 0.0
O146 O 0.95277 0.63854 0.31224 0.0
O147 O 0.00114 0.63629 0.30589 0.0
O148 O 0.03236 0.64597 0.28245 0.0
O149 O 0.01327 0.70775 0.30972 0.0
O150 O 0.02691 0.69002 0.28423 0.0
C151 C 0.01379 0.63088 0.29244 0.0
C152 C 0.02666 0.70852 0.2905 0.0
O153 O 0.97798 0.6567 0.34726 0.0
Mg154 Mg 0.32286 0.33952 0.3676 0.0
O155 O 0.29693 0.32131 0.33148 0.0
O156 O 0.26597 0.29205 0.34799 0.0
Mg157 Mg 0.27144 0.29286 0.39552 0.0
C158 C 0.27708 0.30415 0.32773 0.0
C159 C 0.36986 0.36155 0.34045 0.0
O160 O 0.37576 0.35837 0.36554 0.0
O161 O 0.33025 0.31032 0.37105 0.0
O162 O 0.29928 0.28383 0.39122 0.0
O163 O 0.30896 0.36284 0.37611 0.0
O164 O 0.29732 0.32969 0.39593 0.0
C165 C 0.31902 0.29091 0.38219 0.0
C166 C 0.29545 0.34757 0.39295 0.0
O167 O 0.34954 0.35621 0.33525 0.0
Mg168 Mg 0.34942 0.00728 0.65398 0.0
O169 O 0.33262 0.01856 0.68748 0.0
O170 O 0.3068 0.02391 0.66483 0.0
Mg171 Mg 0.30811 0.01812 0.61796 0.0
C172 C 0.31703 0.02372 0.68734 0.0
C173 C 0.37918 0.00855 0.70544 0.0
O174 O 0.38491 0.03029 0.70522 0.0
O175 O 0.31795 0.97158 0.64779 0.0
O176 O 0.29469 0.97999 0.62425 0.0
O177 O 0.37554 0.04404 0.64874 0.0
O178 O 0.34326 0.02605 0.62437 0.0
C179 C 0.29912 0.96548 0.63502 0.0
C180 C 0.36176 0.04486 0.6305 0.0
O181 O 0.3644 0.99455 0.68756 0.0
Mg182 Mg 0.99249 0.323 0.71241 0.0
O183 O 0.9661 0.31402 0.67683 0.0
O184 O 0.93457 0.30968 0.69519 0.0
Mg185 Mg 0.94033 0.31422 0.74277 0.0
C186 C 0.94582 0.30986 0.67416 0.0
C187 C 0.04038 0.34669 0.68691 0.0
O188 O 0.04656 0.35214 0.71347 0.0
O189 O -0.00186 0.35917 0.71857 0.0
O190 O 0.96658 0.35223 0.73937 0.0
O191 O 0.98052 0.28578 0.71716 0.0
O192 O 0.9668 0.30472 0.73996 0.0
C193 C 0.98602 0.36614 0.73037 0.0
C194 C 0.96598 0.28554 0.73423 0.0
O195 O 0.01952 0.33493 0.68008 0.0
Mg196 Mg 0.67383 0.64461 0.65133 0.0
O197 O 0.70094 0.6647 0.68576 0.0
O198 O 0.73214 0.69122 0.66596 0.0
Mg199 Mg 0.72577 0.68593 0.61839 0.0
C200 C 0.72118 0.68144 0.68752 0.0
C201 C 0.64911 0.62394 0.70652 0.0
O202 O 0.66667 0.62132 0.71069 0.0
O203 O 0.66909 0.67503 0.64331 0.0
O204 O 0.70016 0.69811 0.62057 0.0
O205 O 0.68492 0.61854 0.64773 0.0
O206 O 0.69881 0.65025 0.6239 0.0
C207 C 0.68105 0.69322 0.63007 0.0
C208 C 0.69933 0.63208 0.63019 0.0
O209 O 0.64708 0.63238 0.68391 0.0
Mg210 Mg 0.31997 0.32585 0.70492 0.0
O211 O 0.33858 0.31677 0.67171 0.0
O212 O 0.36504 0.31255 0.69455 0.0
Mg213 Mg 0.36276 0.31738 0.74156 0.0
C214 C 0.35485 0.31259 0.67191 0.0
C215 C 0.29273 0.34672 0.67864 0.0
O216 O 0.29119 0.34992 0.70554 0.0
O217 O 0.35021 0.36243 0.71202 0.0
O218 O 0.37403 0.35505 0.73595 0.0
O219 O 0.29528 0.28827 0.70926 0.0
O220 O 0.32734 0.30762 0.7339 0.0
C221 C 0.36896 0.36916 0.72537 0.0
C222 C 0.30969 0.28825 0.72715 0.0
O223 O 0.30407 0.33742 0.67104 0.0
Mg224 Mg 0.66199 0.01783 0.6352 0.0
O225 O 0.69135 0.0296 0.66738 0.0
O226 O 0.72228 0.03682 0.64472 0.0
Mg227 Mg 0.71291 0.0315 0.59768 0.0
C228 C 0.71221 0.03567 0.6673 0.0
C229 C 0.63816 0.01792 0.68964 0.0
O230 O 0.6535 0.03975 0.68905 0.0
O231 O 0.6596 0.98314 0.62767 0.0
O232 O 0.69022 0.99287 0.60288 0.0
O233 O 0.67098 0.0544 0.63117 0.0
O234 O 0.68403 0.03664 0.60462 0.0
C235 C 0.67217 0.97779 0.61387 0.0
C236 C 0.68397 0.05515 0.61143 0.0
O237 O 0.63739 0.00423 0.67037 0.0
Mg238 Mg 0.98981 0.67877 0.69889 0.0
O239 O 0.96311 0.65847 0.66398 0.0
O240 O 0.93219 0.63131 0.68362 0.0
Mg241 Mg 0.93795 0.63635 0.73122 0.0
C242 C 0.94306 0.64137 0.66212 0.0
C243 C 0.03736 0.6997 0.67341 0.0
O244 O 0.04298 0.70002 0.69993 0.0
O245 O 0.99564 0.64892 0.70747 0.0
O246 O 0.96453 0.62546 0.72993 0.0
O247 O 0.97763 0.70406 0.70266 0.0
O248 O 0.96439 0.67228 0.72619 0.0
C249 C 0.98388 0.63076 0.72091 0.0
C250 C 0.96335 0.69019 0.72007 0.0
O251 O 0.0168 0.69222 0.66638 0.0
C252 C 0.22694 0.30945 0.10594 0.0
C253 C 0.22185 0.29411 0.08285 0.0
C254 C 0.2107 0.30558 0.1255 0.0
C255 C 0.18904 0.28623 0.12251 0.0
C256 C 0.20028 0.27444 0.08028 0.0
C257 C 0.18398 0.27065 0.09982 0.0
C258 C 0.17096 0.28393 0.14075 0.0
C259 C 0.21404 0.2727 0.20819 0.0
C260 C 0.22648 0.29275 0.2252 0.0
C261 C 0.19777 0.27103 0.18854 0.0
C262 C 0.19352 0.28922 0.18606 0.0
C263 C 0.22296 0.31133 0.22147 0.0
C264 C 0.20645 0.30947 0.20233 0.0
C265 C 0.17352 0.28621 0.17015 0.0
C266 C 0.08419 0.27233 0.20778 0.0
C267 C 0.09266 0.29016 0.2284 0.0
C268 C 0.09885 0.27034 0.18947 0.0
C269 C 0.1221 0.28615 0.19169 0.0
C270 C 0.11597 0.30544 0.23105 0.0
C271 C 0.13054 0.30337 0.21299 0.0
C272 C 0.13817 0.28476 0.17287 0.0
C273 C 0.09654 0.30407 0.11794 0.0
C274 C 0.08652 0.29028 0.09346 0.0
C275 C 0.11212 0.30147 0.13446 0.0
C276 C 0.11762 0.28453 0.12745 0.0
C277 C 0.09207 0.27334 0.08647 0.0
C278 C 0.10745 0.27055 0.10324 0.0
C279 C 0.13569 0.283 0.1433 0.0
H280 H 0.24315 0.32505 0.10825 0.0
H281 H 0.21478 0.31837 0.14213 0.0
H282 H 0.19587 0.26217 0.06291 0.0
H283 H 0.16727 0.25577 0.09695 0.0
H284 H 0.21644 0.25813 0.21072 0.0
H285 H 0.18769 0.25515 0.17641 0.0
H286 H 0.23205 0.32685 0.23452 0.0
H287 H 0.20318 0.32357 0.20092 0.0
H288 H 0.06624 0.26041 0.20533 0.0
H289 H 0.09207 0.25661 0.17356 0.0
H290 H 0.12289 0.3192 0.24693 0.0
H291 H 0.14844 0.31559 0.21528 0.0
H292 H 0.09261 0.31717 0.12422 0.0
H293 H 0.12034 0.31323 0.15225 0.0
H294 H 0.08513 0.26268 0.06754 0.0
H295 H 0.11171 0.25767 0.09699 0.0
N296 N 0.15212 0.28236 0.12844 0.0
N297 N 0.15703 0.28645 0.18498 0.0
C298 C 0.67883 0.90377 0.14282 0.0
C299 C 0.69152 0.91325 0.11904 0.0
C300 C 0.68561 0.89335 0.16252 0.0
C301 C 0.70545 0.8925 0.15915 0.0
C302 C 0.71173 0.913 0.11599 0.0
C303 C 0.71851 0.90248 0.13579 0.0
C304 C 0.71015 0.87767 0.17689 0.0
C305 C 0.71738 0.93375 0.23871 0.0
C306 C 0.69889 0.92547 0.25624 0.0
C307 C 0.72064 0.91848 0.22175 0.0
C308 C 0.70575 0.89475 0.22271 0.0
C309 C 0.68377 0.90179 0.25658 0.0
C310 C 0.68733 0.88657 0.24025 0.0
C311 C 0.70934 0.87805 0.20639 0.0
C312 C 0.7214 0.79737 0.23517 0.0
C313 C 0.70402 0.78706 0.25417 0.0
C314 C 0.72413 0.81615 0.22024 0.0
C315 C 0.70965 0.82497 0.2244 0.0
C316 C 0.69008 0.7964 0.25897 0.0
C317 C 0.69304 0.81536 0.24444 0.0
C318 C 0.71088 0.84351 0.20725 0.0
C319 C 0.67961 0.78171 0.1488 0.0
C320 C 0.69132 0.78312 0.12445 0.0
C321 C 0.68661 0.80085 0.16666 0.0
C322 C 0.70579 0.8218 0.16099 0.0
C323 C 0.71077 0.80396 0.11893 0.0
C324 C 0.71781 0.82322 0.13695 0.0
C325 C 0.71093 0.84272 0.17768 0.0
H326 H 0.66335 0.90403 0.14596 0.0
H327 H 0.67467 0.88497 0.17963 0.0
H328 H 0.7218 0.92015 0.09783 0.0
H329 H 0.73361 0.90152 0.13247 0.0
H330 H 0.72932 0.95196 0.23828 0.0
H331 H 0.73503 0.92509 0.20847 0.0
H332 H 0.66957 0.89499 0.27019 0.0
H333 H 0.67565 0.86833 0.24127 0.0
H334 H 0.7323 0.79037 0.23111 0.0
H335 H 0.73724 0.82352 0.20512 0.0
H336 H 0.67665 0.78878 0.27366 0.0
H337 H 0.68172 0.82192 0.24803 0.0
H338 H 0.66475 0.76582 0.15389 0.0
H339 H 0.67641 0.79941 0.18435 0.0
H340 H 0.72007 0.80555 0.10028 0.0
H341 H 0.73235 0.83936 0.13182 0.0
N342 N 0.71092 0.86002 0.16374 0.0
N343 N 0.70985 0.86101 0.22042 0.0
C344 C 0.11814 0.80412 0.10507 0.0
C345 C 0.09462 0.79307 0.10746 0.0
C346 C 0.13236 0.82337 0.12212 0.0
C347 C 0.12341 0.83195 0.14202 0.0
C348 C 0.08561 0.80259 0.12606 0.0
C349 C 0.09987 0.82193 0.14308 0.0
C350 C 0.13892 0.85054 0.16228 0.0
C351 C 0.08623 0.81087 0.23489 0.0
C352 C 0.08652 0.79016 0.23241 0.0
C353 C 0.10201 0.83028 0.22123 0.0
C354 C 0.11791 0.82911 0.2044 0.0
C355 C 0.10287 0.78937 0.21582 0.0
C356 C 0.11829 0.80858 0.20187 0.0
C357 C 0.13553 0.84967 0.19133 0.0
C358 C 0.21759 0.938 0.23747 0.0
C359 C 0.21909 0.92913 0.26321 0.0
C360 C 0.20188 0.92359 0.21652 0.0
C361 C 0.18803 0.89998 0.22073 0.0
C362 C 0.20501 0.90572 0.26755 0.0
C363 C 0.18976 0.89132 0.24656 0.0
C364 C 0.17112 0.88391 0.19927 0.0
C365 C 0.23628 0.91118 0.15261 0.0
C366 C 0.23627 0.92073 0.12676 0.0
C367 C 0.21664 0.90042 0.16782 0.0
C368 C 0.19677 0.89941 0.1577 0.0
C369 C 0.21653 0.92036 0.11724 0.0
C370 C 0.197 0.90977 0.13253 0.0
C371 C 0.17494 0.88427 0.17025 0.0
H372 H 0.1256 0.79746 0.09059 0.0
H373 H 0.15044 0.83092 0.12058 0.0
H374 H 0.06757 0.79449 0.12846 0.0
H375 H 0.09249 0.82862 0.15764 0.0
H376 H 0.07379 0.81209 0.24725 0.0
H377 H 0.10173 0.84615 0.22367 0.0
H378 H 0.10415 0.77403 0.21403 0.0
H379 H 0.13089 0.80757 0.18959 0.0
H380 H 0.22819 0.95609 0.23384 0.0
H381 H 0.20046 0.93098 0.19725 0.0
H382 H 0.20599 0.89848 0.28718 0.0
H383 H 0.17937 0.87326 0.25055 0.0
H384 H 0.25124 0.91135 0.16066 0.0
H385 H 0.21672 0.89194 0.18676 0.0
H386 H 0.21573 0.92714 0.09721 0.0
H387 H 0.18175 0.9088 0.12407 0.0
N388 N 0.15856 0.86776 0.15296 0.0
N389 N 0.15154 0.86647 0.20855 0.0
C390 C 0.31301 0.07768 0.80401 0.0
C391 C 0.29967 0.06922 0.77908 0.0
C392 C 0.31111 0.09322 0.82202 0.0
C393 C 0.29515 0.10002 0.81627 0.0
C394 C 0.28366 0.07602 0.77344 0.0
C395 C 0.28138 0.0911 0.79184 0.0
C396 C 0.29456 0.11846 0.83332 0.0
C397 C 0.28507 0.06703 0.90009 0.0
C398 C 0.30535 0.07472 0.91595 0.0
C399 C 0.28242 0.08176 0.88227 0.0
C400 C 0.2998 0.10452 0.88048 0.0
C401 C 0.3226 0.09769 0.91397 0.0
C402 C 0.31968 0.11247 0.89681 0.0
C403 C 0.2973 0.12074 0.86284 0.0
C404 C 0.2943 0.20765 0.88974 0.0
C405 C 0.31297 0.21795 0.90876 0.0
C406 C 0.28884 0.18723 0.87503 0.0
C407 C 0.30215 0.17699 0.87892 0.0
C408 C 0.32535 0.20687 0.91379 0.0
C409 C 0.31997 0.18661 0.89906 0.0
C410 C 0.29815 0.15647 0.8622 0.0
C411 C 0.31719 0.21283 0.80259 0.0
C412 C 0.3002 0.20871 0.78242 0.0
C413 C 0.31569 0.19512 0.8186 0.0
C414 C 0.2969 0.17296 0.81537 0.0
C415 C 0.28163 0.18634 0.77871 0.0
C416 C 0.28008 0.16859 0.79495 0.0
C417 C 0.29525 0.15429 0.8327 0.0
H418 H 0.32539 0.07279 0.8094 0.0
H419 H 0.32292 0.10058 0.83972 0.0
H420 H 0.27341 0.0705 0.75423 0.0
H421 H 0.26924 0.09635 0.78649 0.0
H422 H 0.27119 0.04965 0.90138 0.0
H423 H 0.26677 0.07551 0.87016 0.0
H424 H 0.3387 0.10426 0.92505 0.0
H425 H 0.33325 0.13007 0.89571 0.0
H426 H 0.28446 0.21581 0.88541 0.0
H427 H 0.27459 0.17976 0.8602 0.0
H428 H 0.33956 0.21418 0.92869 0.0
H429 H 0.33029 0.17886 0.90276 0.0
H430 H 0.33161 0.22984 0.80632 0.0
H431 H 0.32922 0.1988 0.83365 0.0
H432 H 0.26842 0.18248 0.76309 0.0
H433 H 0.26562 0.15151 0.79179 0.0
N434 N 0.2934 0.13531 0.81946 0.0
N435 N 0.29911 0.13963 0.87597 0.0
C436 C 0.9095 0.19337 0.90162 0.0
C437 C 0.90218 0.20305 0.92238 0.0
C438 C 0.89384 0.17454 0.88481 0.0
C439 C 0.87057 0.16538 0.88806 0.0
C440 C 0.879 0.19244 0.92724 0.0
C441 C 0.86339 0.17387 0.91026 0.0
C442 C 0.85343 0.14765 0.86813 0.0
C443 C 0.8934 0.20872 0.81623 0.0
C444 C 0.90365 0.20525 0.79289 0.0
C445 C 0.87806 0.19024 0.83134 0.0
C446 C 0.87319 0.16787 0.8242 0.0
C447 C 0.89867 0.1828 0.78562 0.0
C448 C 0.88352 0.16429 0.8011 0.0
C449 C 0.85543 0.1481 0.83872 0.0
C450 C 0.76277 0.07908 0.79257 0.0
C451 C 0.76953 0.07253 0.76803 0.0
C452 C 0.77846 0.09213 0.81416 0.0
C453 C 0.8012 0.09805 0.81251 0.0
C454 C 0.79229 0.07838 0.76659 0.0
C455 C 0.80777 0.09073 0.78857 0.0
C456 C 0.81899 0.11434 0.83311 0.0
C457 C 0.76674 0.06349 0.8931 0.0
C458 C 0.75691 0.0744 0.90783 0.0
C459 C 0.78584 0.07634 0.87734 0.0
C460 C 0.79541 0.10021 0.87655 0.0
C461 C 0.76639 0.09822 0.90644 0.0
C462 C 0.78553 0.11099 0.89117 0.0
C463 C 0.81652 0.11477 0.8624 0.0
H464 H 0.92723 0.20106 0.89732 0.0
H465 H 0.89991 0.16777 0.86856 0.0
H466 H 0.8728 0.19907 0.94352 0.0
H467 H 0.84559 0.16687 0.9137 0.0
H468 H 0.89703 0.22575 0.82276 0.0
H469 H 0.86966 0.19347 0.8483 0.0
H470 H 0.90598 0.17943 0.76754 0.0
H471 H 0.87961 0.14711 0.79478 0.0
H472 H 0.74543 0.07472 0.79498 0.0
H473 H 0.77277 0.09836 0.83136 0.0
H474 H 0.79858 0.07433 0.74803 0.0
H475 H 0.82522 0.09532 0.78635 0.0
H476 H 0.75972 0.04512 0.89391 0.0
H477 H 0.79342 0.0678 0.86637 0.0
H478 H 0.75939 0.10711 0.91791 0.0
H479 H 0.7928 0.12943 0.89094 0.0
N480 N 0.83388 0.1312 0.8786 0.0
N481 N 0.83841 0.13115 0.82259 0.0
C482 C 0.78157 0.71695 0.91461 0.0
C483 C 0.77068 0.69754 0.93103 0.0
C484 C 0.7988 0.71967 0.89709 0.0
C485 C 0.80545 0.70307 0.8959 0.0
C486 C 0.77743 0.68103 0.92973 0.0
C487 C 0.79473 0.68386 0.91251 0.0
C488 C 0.82412 0.70577 0.87848 0.0
C489 C 0.76888 0.69243 0.81419 0.0
C490 C 0.77544 0.70583 0.79027 0.0
C491 C 0.7849 0.69471 0.83454 0.0
C492 C 0.80779 0.71125 0.83227 0.0
C493 C 0.79823 0.72304 0.78874 0.0
C494 C 0.81407 0.72581 0.80956 0.0
C495 C 0.82574 0.71079 0.84975 0.0
C496 C 0.89336 0.68752 0.80992 0.0
C497 C 0.90431 0.70452 0.79023 0.0
C498 C 0.87943 0.68939 0.82935 0.0
C499 C 0.87657 0.70859 0.83004 0.0
C500 C 0.90154 0.72381 0.79102 0.0
C501 C 0.88768 0.72574 0.81066 0.0
C502 C 0.85991 0.70942 0.84843 0.0
C503 C 0.91215 0.70802 0.90573 0.0
C504 C 0.9035 0.68787 0.92088 0.0
C505 C 0.89754 0.71358 0.89155 0.0
C506 C 0.87405 0.6991 0.89237 0.0
C507 C 0.88001 0.67369 0.92205 0.0
C508 C 0.86546 0.67933 0.90811 0.0
C509 C 0.85814 0.70415 0.87701 0.0
H510 H 0.77669 0.72994 0.91525 0.0
H511 H 0.80711 0.73482 0.88477 0.0
H512 H 0.76961 0.66609 0.94248 0.0
H513 H 0.79969 0.67092 0.91208 0.0
H514 H 0.75149 0.67937 0.8167 0.0
H515 H 0.77938 0.68249 0.85097 0.0
H516 H 0.8043 0.73356 0.77068 0.0
H517 H 0.83161 0.73855 0.80699 0.0
H518 H 0.89537 0.67259 0.8102 0.0
H519 H 0.87041 0.67545 0.84328 0.0
H520 H 0.90955 0.73708 0.77598 0.0
H521 H 0.88533 0.74048 0.81044 0.0
H522 H 0.93018 0.71929 0.9045 0.0
H523 H 0.90457 0.72915 0.87994 0.0
H524 H 0.87283 0.65828 0.93398 0.0
H525 H 0.84743 0.66798 0.90923 0.0
N526 N 0.84031 0.70252 0.89084 0.0
N527 N 0.84373 0.71261 0.83611 0.0
C528 C 0.74643 0.6062 0.4436 0.0
C529 C 0.75485 0.62316 0.42347 0.0
C530 C 0.7612 0.6022 0.46005 0.0
C531 C 0.78465 0.61549 0.45708 0.0
C532 C 0.77825 0.63628 0.42049 0.0
C533 C 0.79294 0.63249 0.43707 0.0
C534 C 0.801 0.61162 0.47356 0.0
C535 C 0.76675 0.63086 0.5394 0.0
C536 C 0.75642 0.61475 0.56021 0.0
C537 C 0.78035 0.62832 0.52008 0.0
C538 C 0.7835 0.60933 0.52072 0.0
C539 C 0.7594 0.59561 0.56068 0.0
C540 C 0.77296 0.59302 0.54119 0.0
C541 C 0.79999 0.60801 0.5026 0.0
C542 C 0.89261 0.62957 0.53701 0.0
C543 C 0.88693 0.61624 0.56099 0.0
C544 C 0.87601 0.62639 0.51698 0.0
C545 C 0.85347 0.60909 0.51972 0.0
C546 C 0.86442 0.59855 0.56319 0.0
C547 C 0.84801 0.59495 0.54276 0.0
C548 C 0.8349 0.60799 0.50193 0.0
C549 C 0.88138 0.60335 0.43911 0.0
C550 C 0.88798 0.61947 0.4181 0.0
C551 C 0.86441 0.60048 0.45723 0.0
C552 C 0.85444 0.61427 0.45504 0.0
C553 C 0.8779 0.63302 0.41581 0.0
C554 C 0.86141 0.63053 0.43414 0.0
C555 C 0.83578 0.61133 0.47276 0.0
H556 H 0.72843 0.59569 0.44609 0.0
H557 H 0.75425 0.58852 0.47472 0.0
H558 H 0.78524 0.64963 0.40538 0.0
H559 H 0.8109 0.64301 0.43429 0.0
H560 H 0.76453 0.64564 0.53822 0.0
H561 H 0.7889 0.64157 0.50515 0.0
H562 H 0.75183 0.58303 0.5766 0.0
H563 H 0.77556 0.57847 0.54239 0.0
H564 H 0.90975 0.64308 0.53408 0.0
H565 H 0.88076 0.63824 0.50016 0.0
H566 H 0.859 0.58814 0.58142 0.0
H567 H 0.83072 0.58173 0.54572 0.0
H568 H 0.88893 0.59264 0.44104 0.0
H569 H 0.85891 0.58735 0.47258 0.0
H570 H 0.88291 0.64568 0.39986 0.0
H571 H 0.85401 0.64137 0.43188 0.0
N572 N 0.81879 0.613 0.45998 0.0
N573 N 0.81687 0.60622 0.51545 0.0
C574 C 0.34864 0.24122 0.46855 0.0
C575 C 0.36056 0.25031 0.44414 0.0
C576 C 0.35659 0.23204 0.48854 0.0
C577 C 0.37682 0.23203 0.48479 0.0
C578 C 0.38118 0.251 0.44073 0.0
C579 C 0.38913 0.24169 0.4608 0.0
C580 C 0.38266 0.21816 0.50283 0.0
C581 C 0.38972 0.27504 0.56322 0.0
C582 C 0.37163 0.26672 0.5814 0.0
C583 C 0.3931 0.25974 0.54648 0.0
C584 C 0.37877 0.23598 0.54833 0.0
C585 C 0.35703 0.24298 0.58256 0.0
C586 C 0.36073 0.22777 0.56646 0.0
C587 C 0.38262 0.2193 0.53238 0.0
C588 C 0.39743 0.14036 0.56205 0.0
C589 C 0.38021 0.12976 0.58121 0.0
C590 C 0.39969 0.15902 0.54725 0.0
C591 C 0.38492 0.16746 0.55169 0.0
C592 C 0.36606 0.13879 0.5864 0.0
C593 C 0.36857 0.15765 0.57201 0.0
C594 C 0.3853 0.18542 0.53412 0.0
C595 C 0.35297 0.1221 0.47855 0.0
C596 C 0.36416 0.12276 0.45399 0.0
C597 C 0.36021 0.14176 0.49548 0.0
C598 C 0.37915 0.16251 0.48866 0.0
C599 C 0.38335 0.14342 0.44728 0.0
C600 C 0.39066 0.16323 0.46437 0.0
C601 C 0.38452 0.18383 0.50454 0.0
H602 H 0.33286 0.24078 0.47195 0.0
H603 H 0.34625 0.22387 0.50619 0.0
H604 H 0.39068 0.2579 0.4221 0.0
H605 H 0.40451 0.24135 0.45719 0.0
H606 H 0.40127 0.2933 0.56216 0.0
H607 H 0.40719 0.26639 0.53271 0.0
H608 H 0.34317 0.23616 0.5967 0.0
H609 H 0.34948 0.2095 0.56816 0.0
H610 H 0.40848 0.1336 0.55769 0.0
H611 H 0.41258 0.1665 0.53186 0.0
H612 H 0.35273 0.13091 0.60119 0.0
H613 H 0.35702 0.16389 0.57579 0.0
H614 H 0.33833 0.10637 0.48456 0.0
H615 H 0.3504 0.14086 0.51337 0.0
H616 H 0.39225 0.14441 0.42842 0.0
H617 H 0.40499 0.17921 0.45836 0.0
N618 N 0.3836 0.20046 0.49012 0.0
N619 N 0.38406 0.20294 0.54687 0.0
C620 C 0.77129 0.12287 0.46014 0.0
C621 C 0.76053 0.12373 0.43521 0.0
C622 C 0.78546 0.14282 0.47597 0.0
C623 C 0.78908 0.16412 0.46741 0.0
C624 C 0.76413 0.14507 0.42658 0.0
C625 C 0.77856 0.16519 0.44242 0.0
C626 C 0.80484 0.18518 0.48402 0.0
C627 C 0.74335 0.14389 0.53229 0.0
C628 C 0.74746 0.13711 0.55824 0.0
C629 C 0.7611 0.16119 0.51808 0.0
C630 C 0.78335 0.17126 0.5291 0.0
C631 C 0.76935 0.14835 0.57028 0.0
C632 C 0.78716 0.16522 0.55578 0.0
C633 C 0.80291 0.18773 0.51314 0.0
C634 C 0.88335 0.2755 0.55377 0.0
C635 C 0.89209 0.2669 0.57397 0.0
C636 C 0.86695 0.26055 0.53379 0.0
C637 C 0.85879 0.23688 0.53436 0.0
C638 C 0.88432 0.2433 0.57385 0.0
C639 C 0.8676 0.2284 0.55449 0.0
C640 C 0.83997 0.22039 0.51566 0.0
C641 C 0.9022 0.24546 0.46478 0.0
C642 C 0.90096 0.25374 0.43847 0.0
C643 C 0.88316 0.23467 0.48096 0.0
C644 C 0.86258 0.2324 0.47149 0.0
C645 C 0.8804 0.25169 0.42918 0.0
C646 C 0.86141 0.24107 0.44551 0.0
C647 C 0.84164 0.21833 0.48648 0.0
H648 H 0.76864 0.10666 0.46755 0.0
H649 H 0.79374 0.14163 0.49489 0.0
H650 H 0.75612 0.14621 0.4074 0.0
H651 H 0.7814 0.18153 0.43529 0.0
H652 H 0.72648 0.1355 0.52281 0.0
H653 H 0.75745 0.16625 0.4982 0.0
H654 H 0.77285 0.14325 0.59023 0.0
H655 H 0.80407 0.17287 0.565 0.0
H656 H 0.88904 0.29365 0.55368 0.0
H657 H 0.86013 0.26733 0.51854 0.0
H658 H 0.89062 0.23627 0.58945 0.0
H659 H 0.86139 0.21015 0.55532 0.0
H660 H 0.91779 0.24689 0.47268 0.0
H661 H 0.88439 0.22724 0.50026 0.0
H662 H 0.8787 0.25749 0.40881 0.0
H663 H 0.8456 0.23909 0.4375 0.0
N664 N 0.82397 0.20078 0.47178 0.0
N665 N 0.82068 0.20512 0.52776 0.0
C666 C 0.94105 0.5288 0.13235 0.0
C667 C 0.95361 0.53717 0.1083 0.0
C668 C 0.94027 0.51023 0.14572 0.0
C669 C 0.95278 0.50033 0.13588 0.0
C670 C 0.96467 0.52622 0.09715 0.0
C671 C 0.96431 0.50795 0.11088 0.0
C672 C 0.95469 0.48276 0.15202 0.0
C673 C 0.98869 0.54517 0.20968 0.0
C674 C 0.97892 0.54343 0.23574 0.0
C675 C 0.98095 0.52601 0.19161 0.0
C676 C 0.96295 0.50474 0.19893 0.0
C677 C 0.96072 0.52221 0.24297 0.0
C678 C 0.95293 0.50297 0.22478 0.0
C679 C 0.95702 0.48392 0.1816 0.0
C680 C 0.98996 0.4225 0.21188 0.0
C681 C 0.97813 0.41362 0.23643 0.0
C682 C 0.98268 0.4328 0.19256 0.0
C683 C 0.96321 0.4341 0.19718 0.0
C684 C 0.95821 0.41421 0.24058 0.0
C685 C 0.95092 0.42453 0.22119 0.0
C686 C 0.95826 0.44924 0.18042 0.0
C687 C 0.94995 0.39344 0.11818 0.0
C688 C 0.96774 0.40196 0.09956 0.0
C689 C 0.94661 0.40856 0.1353 0.0
C690 C 0.9607 0.43237 0.13348 0.0
C691 C 0.98196 0.42575 0.09813 0.0
C692 C 0.9783 0.4408 0.11469 0.0
C693 C 0.95747 0.44882 0.15087 0.0
H694 H 0.93222 0.53693 0.14109 0.0
H695 H 0.93044 0.50411 0.16426 0.0
H696 H 0.97448 0.5325 0.07859 0.0
H697 H 0.97387 0.50047 0.10261 0.0
H698 H 0.00251 0.56135 0.20329 0.0
H699 H 0.98954 0.52772 0.17229 0.0
H700 H 0.95295 0.52034 0.26297 0.0
H701 H 0.93936 0.48659 0.23111 0.0
H702 H 0.00517 0.42195 0.20788 0.0
H703 H 0.99299 0.44082 0.17484 0.0
H704 H 0.9488 0.40756 0.25933 0.0
H705 H 0.93612 0.42582 0.22545 0.0
H706 H 0.93869 0.37514 0.11945 0.0
H707 H 0.93286 0.40173 0.1496 0.0
H708 H 0.99558 0.43272 0.08365 0.0
H709 H 0.98937 0.45911 0.11301 0.0
N710 N 0.95543 0.46545 0.13779 0.0
N711 N 0.95816 0.46685 0.19453 0.0
C712 C 0.44803 0.3915 0.12291 0.0
C713 C 0.43454 0.39928 0.11013 0.0
C714 C 0.46413 0.40495 0.14398 0.0
C715 C 0.46708 0.4264 0.1522 0.0
C716 C 0.43687 0.42029 0.11949 0.0
C717 C 0.45319 0.43384 0.14008 0.0
C718 C 0.48668 0.44271 0.16993 0.0
C719 C 0.43121 0.41223 0.23273 0.0
C720 C 0.43494 0.40006 0.25369 0.0
C721 C 0.44788 0.42473 0.2138 0.0
C722 C 0.46859 0.42528 0.2154 0.0
C723 C 0.45541 0.39995 0.25449 0.0
C724 C 0.47217 0.41266 0.23569 0.0
C725 C 0.48762 0.44195 0.19932 0.0
C726 C 0.55357 0.53771 0.23185 0.0
C727 C 0.5645 0.53564 0.25588 0.0
C728 C 0.5406 0.51885 0.21379 0.0
C729 C 0.53851 0.49748 0.21896 0.0
C730 C 0.56259 0.5143 0.26104 0.0
C731 C 0.54947 0.49529 0.24285 0.0
C732 C 0.52273 0.47713 0.20122 0.0
C733 C 0.57902 0.52188 0.14581 0.0
C734 C 0.57246 0.53302 0.12652 0.0
C735 C 0.56272 0.50353 0.16049 0.0
C736 C 0.53972 0.49599 0.1557 0.0
C737 C 0.54948 0.52516 0.12136 0.0
C738 C 0.53323 0.5066 0.13558 0.0
C739 C 0.52222 0.47727 0.17165 0.0
H740 H 0.44656 0.37538 0.11604 0.0
H741 H 0.47499 0.39915 0.15285 0.0
H742 H 0.42697 0.42687 0.10974 0.0
H743 H 0.45554 0.45055 0.14588 0.0
H744 H 0.41589 0.41314 0.23179 0.0
H745 H 0.44506 0.43505 0.19904 0.0
H746 H 0.45873 0.3905 0.27007 0.0
H747 H 0.48819 0.41316 0.23749 0.0
H748 H 0.55494 0.55397 0.22703 0.0
H749 H 0.53168 0.52089 0.19615 0.0
H750 H 0.57075 0.51218 0.27944 0.0
H751 H 0.54771 0.47884 0.24756 0.0
H752 H 0.59671 0.52782 0.15013 0.0
H753 H 0.56805 0.49536 0.17568 0.0
H754 H 0.54414 0.53357 0.10654 0.0
H755 H 0.51557 0.501 0.13153 0.0
N756 N 0.50408 0.46021 0.15719 0.0
N757 N 0.50557 0.45925 0.2139 0.0
C758 C 0.44511 0.04628 0.24016 0.0
C759 C 0.43442 0.02776 0.25798 0.0
C760 C 0.46214 0.0481 0.22287 0.0
C761 C 0.46878 0.03151 0.22334 0.0
C762 C 0.441 0.01111 0.25809 0.0
C763 C 0.45812 0.01308 0.24113 0.0
C764 C 0.48773 0.03373 0.20693 0.0
C765 C 0.43209 0.01759 0.14196 0.0
C766 C 0.43839 0.03007 0.11728 0.0
C767 C 0.44834 0.02013 0.16214 0.0
C768 C 0.4713 0.03607 0.15895 0.0
C769 C 0.46136 0.0463 0.11443 0.0
C770 C 0.47748 0.04936 0.13505 0.0
C771 C 0.48933 0.03681 0.17768 0.0
C772 C 0.56187 0.01688 0.14832 0.0
C773 C 0.57228 0.03253 0.12707 0.0
C774 C 0.54676 0.01875 0.16571 0.0
C775 C 0.5421 0.03663 0.16272 0.0
C776 C 0.56771 0.05052 0.12417 0.0
C777 C 0.55263 0.05245 0.14175 0.0
C778 C 0.52453 0.03739 0.17934 0.0
C779 C 0.57901 0.04735 0.24211 0.0
C780 C 0.57222 0.0288 0.25982 0.0
C781 C 0.56308 0.04923 0.2253 0.0
C782 C 0.54007 0.03268 0.22604 0.0
C783 C 0.54917 0.01237 0.26061 0.0
C784 C 0.53326 0.01441 0.24409 0.0
C785 C 0.5229 0.03433 0.20848 0.0
H786 H 0.44034 0.05935 0.2397 0.0
H787 H 0.47041 0.06265 0.20959 0.0
H788 H 0.43334 0.99687 0.27192 0.0
H789 H 0.46314 0.0002 0.24198 0.0
H790 H 0.41463 0.00525 0.14546 0.0
H791 H 0.44285 0.00875 0.17945 0.0
H792 H 0.46724 0.056 0.09569 0.0
H793 H 0.49504 0.06156 0.13168 0.0
H794 H 0.56522 0.00299 0.15137 0.0
H795 H 0.53828 0.00579 0.18098 0.0
H796 H 0.57528 0.0627 0.10783 0.0
H797 H 0.54896 0.06614 0.13874 0.0
H798 H 0.59665 0.06026 0.24108 0.0
H799 H 0.56871 0.06368 0.21185 0.0
H800 H 0.5434 -0.00192 0.27435 0.0
H801 H 0.5156 0.00152 0.24516 0.0
N802 N 0.50451 0.03251 0.22105 0.0
N803 N 0.50779 0.03863 0.16523 0.0
C804 C 0.57089 0.99658 0.79676 0.0
C805 C 0.56778 0.98596 0.77008 0.0
C806 C 0.5526 0.9903 0.81391 0.0
C807 C 0.5309 0.97291 0.805 0.0
C808 C 0.54604 0.96846 0.76131 0.0
C809 C 0.5278 0.96206 0.77857 0.0
C810 C 0.51102 0.96752 0.82167 0.0
C811 C 0.5506 0.94732 0.88339 0.0
C812 C 0.56177 0.96513 0.90381 0.0
C813 C 0.53436 0.94719 0.86495 0.0
C814 C 0.52884 0.96457 0.8673 0.0
C815 C 0.55664 0.98281 0.90543 0.0
C816 C 0.54008 0.98234 0.8876 0.0
C817 C 0.5101 0.96354 0.85055 0.0
C818 C 0.41362 0.93733 0.87409 0.0
C819 C 0.41752 0.9472 0.90129 0.0
C820 C 0.43169 0.94065 0.85795 0.0
C821 C 0.45397 0.95453 0.86846 0.0
C822 C 0.43966 0.9598 0.91245 0.0
C823 C 0.45773 0.96347 0.89615 0.0
C824 C 0.47353 0.95949 0.85128 0.0
C825 C 0.4375 0.98934 0.80364 0.0
C826 C 0.42983 0.98014 0.77627 0.0
C827 C 0.45175 0.98398 0.81892 0.0
C828 C 0.45835 0.96897 0.80738 0.0
C829 C 0.43643 0.96509 0.7648 0.0
C830 C 0.45064 0.95968 0.78014 0.0
C831 C 0.47484 0.9646 0.82257 0.0
H832 H 0.5874 0.01005 0.80424 0.0
H833 H 0.55539 -0.00033 0.83365 0.0
H834 H 0.54294 0.96021 0.7407 0.0
H835 H 0.51115 0.94888 0.77106 0.0
H836 H 0.55423 0.93344 0.88199 0.0
H837 H 0.5256 0.9332 0.84956 0.0
H838 H 0.56481 0.99652 0.92129 0.0
H839 H 0.53584 0.99576 0.88982 0.0
H840 H 0.39661 0.92738 0.86519 0.0
H841 H 0.42823 0.93265 0.83716 0.0
H842 H 0.44306 0.96772 0.9333 0.0
H843 H 0.47473 0.97394 0.90493 0.0
H844 H 0.43266 0.00087 0.81321 0.0
H845 H 0.45798 0.99197 0.83955 0.0
H846 H 0.43119 0.95801 0.74362 0.0
H847 H 0.4558 0.94839 0.77059 0.0
N848 N 0.49336 0.96796 0.80881 0.0
N849 N 0.49139 0.95953 0.86414 0.0
C850 C 0.00967 0.5766 0.80801 0.0
C851 C 0.02144 0.58588 0.78354 0.0
C852 C 0.01686 0.56582 0.8267 0.0
C853 C 0.03621 0.5644 0.82161 0.0
C854 C 0.0412 0.58511 0.77883 0.0
C855 C 0.04841 0.57426 0.79761 0.0
C856 C 0.04129 0.54924 0.83826 0.0
C857 C 0.05116 0.60518 0.90195 0.0
C858 C 0.03323 0.59695 0.92034 0.0
C859 C 0.0538 0.58987 0.88424 0.0
C860 C 0.03886 0.56616 0.88529 0.0
C861 C 0.0181 0.57328 0.92089 0.0
C862 C 0.02107 0.55802 0.9038 0.0
C863 C 0.04172 0.54947 0.86785 0.0
C864 C 0.05927 0.47133 0.89017 0.0
C865 C 0.04243 0.4593 0.90932 0.0
C866 C 0.06029 0.49004 0.87679 0.0
C867 C 0.04467 0.49713 0.88273 0.0
C868 C 0.02729 0.46683 0.9159 0.0
C869 C 0.0286 0.48582 0.90299 0.0
C870 C 0.04405 0.51535 0.86674 0.0
C871 C 0.01119 0.4535 0.80876 0.0
C872 C 0.02231 0.45488 0.7839 0.0
C873 C 0.01842 0.47274 0.8265 0.0
C874 C 0.03719 0.49377 0.8201 0.0
C875 C 0.04133 0.47582 0.77759 0.0
C876 C 0.04856 0.49522 0.79544 0.0
C877 C 0.04268 0.51461 0.83718 0.0
H878 H 0.99455 0.57722 0.81242 0.0
H879 H 0.00657 0.55758 0.84436 0.0
H880 H 0.05055 0.59204 0.7601 0.0
H881 H 0.06312 0.57293 0.79297 0.0
H882 H 0.0631 0.62338 0.90137 0.0
H883 H 0.06771 0.59646 0.87021 0.0
H884 H 0.00432 0.56654 0.93515 0.0
H885 H 0.00937 0.53978 0.90492 0.0
H886 H 0.07103 0.46568 0.88475 0.0
H887 H 0.07294 0.49868 0.86139 0.0
H888 H 0.01417 0.45772 0.93063 0.0
H889 H 0.0164 0.49099 0.90785 0.0
H890 H 0.99667 0.43753 0.81439 0.0
H891 H 0.00877 0.47129 0.84477 0.0
H892 H 0.05016 0.47735 0.75851 0.0
H893 H 0.06278 0.51142 0.78981 0.0
N894 N 0.04171 0.53176 0.82412 0.0
N895 N 0.04319 0.53256 0.88097 0.0
C896 C 0.56695 0.60186 0.79485 0.0
C897 C 0.57611 0.58932 0.78251 0.0
C898 C 0.54664 0.59055 0.80876 0.0
C899 C 0.53516 0.56658 0.81007 0.0
C900 C 0.56485 0.56543 0.78468 0.0
C901 C 0.54449 0.55417 0.79811 0.0
C902 C 0.51283 0.55376 0.82229 0.0
C903 C 0.56151 0.58562 0.89733 0.0
C904 C 0.55713 0.5999 0.91483 0.0
C905 C 0.54631 0.57233 0.8755 0.0
C906 C 0.52647 0.57314 0.87057 0.0
C907 C 0.53758 0.60122 0.90918 0.0
C908 C 0.52232 0.58781 0.88744 0.0
C909 C 0.50876 0.55662 0.85045 0.0
C910 C 0.43505 0.46509 0.87352 0.0
C911 C 0.42279 0.46958 0.89341 0.0
C912 C 0.45054 0.4825 0.85729 0.0
C913 C 0.45376 0.50472 0.85997 0.0
C914 C 0.42586 0.49179 0.89601 0.0
C915 C 0.44139 0.50929 0.87956 0.0
C916 C 0.47203 0.52351 0.84488 0.0
C917 C 0.42115 0.47308 0.78205 0.0
C918 C 0.42964 0.46277 0.76379 0.0
C919 C 0.43589 0.49288 0.79815 0.0
C920 C 0.45938 0.5024 0.7968 0.0
C921 C 0.45306 0.4736 0.76065 0.0
C922 C 0.46772 0.49307 0.77702 0.0
C923 C 0.47562 0.52154 0.81611 0.0
H924 H 0.57536 0.62032 0.7934 0.0
H925 H 0.53958 0.60037 0.81772 0.0
H926 H 0.57134 0.55532 0.77503 0.0
H927 H 0.53584 0.53564 0.79892 0.0
H928 H 0.57611 0.58377 0.90134 0.0
H929 H 0.54955 0.56059 0.86338 0.0
H930 H 0.5338 0.61225 0.92195 0.0
H931 H 0.507 0.58851 0.88417 0.0
H932 H 0.43287 0.44811 0.87069 0.0
H933 H 0.46044 0.47867 0.84311 0.0
H934 H 0.41679 0.49579 0.91132 0.0
H935 H 0.444 0.52645 0.88239 0.0
H936 H 0.4032 0.46528 0.78494 0.0
H937 H 0.42888 0.50025 0.8123 0.0
H938 H 0.46018 0.46656 0.7462 0.0
H939 H 0.4857 0.50023 0.77495 0.0
N940 N 0.49605 0.53662 0.80621 0.0
N941 N 0.48852 0.54129 0.86069 0.0
C942 C 0.64309 0.7442 0.47557 0.0
C943 C 0.62791 0.73312 0.45257 0.0
C944 C 0.64146 0.76041 0.49261 0.0
C945 C 0.62394 0.76522 0.48801 0.0
C946 C 0.61062 0.73832 0.44779 0.0
C947 C 0.60863 0.75404 0.46534 0.0
C948 C 0.62276 0.7835 0.5046 0.0
C949 C 0.62529 0.73536 0.56689 0.0
C950 C 0.64413 0.74654 0.58562 0.0
C951 C 0.6187 0.74812 0.55053 0.0
C952 C 0.63112 0.77219 0.55238 0.0
C953 C 0.65542 0.77052 0.58876 0.0
C954 C 0.64903 0.78318 0.5723 0.0
C955 C 0.62614 0.78663 0.53412 0.0
C956 C 0.62282 0.87385 0.55812 0.0
C957 C 0.64212 0.88476 0.57611 0.0
C958 C 0.61694 0.85305 0.54411 0.0
C959 C 0.63039 0.84294 0.54774 0.0
C960 C 0.65489 0.87404 0.58062 0.0
C961 C 0.64905 0.85334 0.56665 0.0
C962 C 0.62555 0.82164 0.53215 0.0
C963 C 0.64603 0.87548 0.46886 0.0
C964 C 0.62688 0.87395 0.45529 0.0
C965 C 0.64437 0.85721 0.48377 0.0
C966 C 0.62361 0.83691 0.48523 0.0
C967 C 0.60619 0.85321 0.45602 0.0
C968 C 0.60462 0.83475 0.47074 0.0
C969 C 0.62192 0.81849 0.50285 0.0
H970 H 0.65654 0.74068 0.4803 0.0
H971 H 0.65425 0.76951 0.50902 0.0
H972 H 0.59895 0.73088 0.42993 0.0
H973 H 0.5953 0.75781 0.46083 0.0
H974 H 0.61625 0.71686 0.56404 0.0
H975 H 0.60437 0.73923 0.53595 0.0
H976 H 0.66965 0.77959 0.60346 0.0
H977 H 0.65868 0.80172 0.57454 0.0
H978 H 0.61268 0.88176 0.55417 0.0
H979 H 0.60208 0.84502 0.53029 0.0
H980 H 0.66964 0.88185 0.59468 0.0
H981 H 0.65956 0.84577 0.57005 0.0
H982 H 0.66237 0.89089 0.46813 0.0
H983 H 0.65928 0.85903 0.49454 0.0
H984 H 0.59108 0.85144 0.44597 0.0
H985 H 0.58847 0.81913 0.47164 0.0
N986 N 0.62055 0.79953 0.49019 0.0
N987 N 0.62744 0.80557 0.54648 0.0
C988 C 0.11952 0.72512 0.46505 0.0
C989 C 0.10684 0.73202 0.44869 0.0
C990 C 0.13543 0.74028 0.4853 0.0
C991 C 0.13912 0.76263 0.48892 0.0
C992 C 0.11 0.7541 0.45328 0.0
C993 C 0.12621 0.76936 0.47295 0.0
C994 C 0.15811 0.78001 0.5067 0.0
C995 C 0.1012 0.74797 0.56681 0.0
C996 C 0.10528 0.73764 0.58973 0.0
C997 C 0.11826 0.76063 0.54839 0.0
C998 C 0.13974 0.76317 0.55239 0.0
C999 C 0.12661 0.73955 0.59307 0.0
C1000 C 0.14372 0.75238 0.57472 0.0
C1001 C 0.15879 0.77985 0.53621 0.0
C1002 C 0.22489 0.87673 0.56595 0.0
C1003 C 0.23742 0.87563 0.5889 0.0
C1004 C 0.21088 0.85723 0.54934 0.0
C1005 C 0.20929 0.83614 0.55491 0.0
C1006 C 0.23578 0.85447 0.59464 0.0
C1007 C 0.22161 0.83481 0.57791 0.0
C1008 C 0.1935 0.81545 0.5377 0.0
C1009 C 0.24999 0.85962 0.48248 0.0
C1010 C 0.24357 0.87095 0.46333 0.0
C1011 C 0.23359 0.84121 0.49695 0.0
C1012 C 0.21063 0.83379 0.49211 0.0
C1013 C 0.22063 0.86327 0.45813 0.0
C1014 C 0.20426 0.84462 0.47215 0.0
C1015 C 0.19312 0.81513 0.50813 0.0
H1016 H 0.1174 0.70819 0.46178 0.0
H1017 H 0.14549 0.73494 0.49723 0.0
H1018 H 0.10064 0.75993 0.44071 0.0
H1019 H 0.12904 0.78664 0.47529 0.0
H1020 H 0.08518 0.74731 0.56388 0.0
H1021 H 0.11498 0.76951 0.53199 0.0
H1022 H 0.13026 0.73157 0.61023 0.0
H1023 H 0.16027 0.75437 0.57838 0.0
H1024 H 0.22598 0.89278 0.56066 0.0
H1025 H 0.20104 0.85861 0.53228 0.0
H1026 H 0.24515 0.85308 0.61226 0.0
H1027 H 0.22032 0.8186 0.58284 0.0
H1028 H 0.26765 0.86543 0.4868 0.0
H1029 H 0.23882 0.8329 0.51207 0.0
H1030 H 0.21543 0.87188 0.44343 0.0
H1031 H 0.18663 0.83913 0.46811 0.0
N1032 N 0.17533 0.79759 0.49378 0.0
N1033 N 0.17646 0.79764 0.55063 0.0
C1034 C 0.24155 0.37818 0.4809 0.0
C1035 C 0.23353 0.35954 0.46151 0.0
C1036 C 0.22676 0.38001 0.49911 0.0
C1037 C 0.20376 0.3633 0.49797 0.0
C1038 C 0.2105 0.34296 0.46034 0.0
C1039 C 0.19574 0.34494 0.47824 0.0
C1040 C 0.18753 0.36544 0.51573 0.0
C1041 C 0.22814 0.34858 0.57583 0.0
C1042 C 0.23956 0.36477 0.59796 0.0
C1043 C 0.21274 0.35047 0.55806 0.0
C1044 C 0.20855 0.36873 0.56179 0.0
C1045 C 0.23559 0.38323 0.60137 0.0
C1046 C 0.22015 0.38509 0.5836 0.0
C1047 C 0.19042 0.36941 0.54507 0.0
C1048 C 0.09991 0.34922 0.58039 0.0
C1049 C 0.10594 0.36586 0.60219 0.0
C1050 C 0.11581 0.35089 0.56142 0.0
C1051 C 0.13806 0.36931 0.56368 0.0
C1052 C 0.12814 0.38454 0.60408 0.0
C1053 C 0.14408 0.38615 0.5851 0.0
C1054 C 0.15561 0.36953 0.54603 0.0
C1055 C 0.11236 0.37923 0.47891 0.0
C1056 C 0.10039 0.35969 0.46098 0.0
C1057 C 0.12848 0.38056 0.49856 0.0
C1058 C 0.13306 0.36252 0.50016 0.0
C1059 C 0.10424 0.34122 0.46374 0.0
C1060 C 0.1206 0.34275 0.48291 0.0
C1061 C 0.15265 0.36516 0.5168 0.0
H1062 H 0.25927 0.3911 0.48226 0.0
H1063 H 0.2332 0.39459 0.51378 0.0
H1064 H 0.2039 0.32853 0.44543 0.0
H1065 H 0.17801 0.332 0.47681 0.0
H1066 H 0.23036 0.33388 0.5729 0.0
H1067 H 0.20345 0.33711 0.5421 0.0
H1068 H 0.24425 0.39615 0.61799 0.0
H1069 H 0.21705 0.39919 0.58709 0.0
H1070 H 0.08314 0.33433 0.57868 0.0
H1071 H 0.11092 0.33717 0.5458 0.0
H1072 H 0.13328 0.39776 0.62045 0.0
H1073 H 0.16122 0.40037 0.58743 0.0
H1074 H 0.10972 0.3937 0.47714 0.0
H1075 H 0.13814 0.39609 0.51146 0.0
H1076 H 0.0955 0.32609 0.44997 0.0
H1077 H 0.12404 0.32874 0.48368 0.0
N1078 N 0.16873 0.36333 0.50286 0.0
N1079 N 0.1744 0.37151 0.55904 0.0
C1080 C 0.99581 0.37602 0.0568 0.0
C1081 C 0.97876 0.36277 0.0365 0.0
H1082 H 0.00568 0.39912 0.09276 0.0
C1083 C 0.95729 0.36036 0.03923 0.0
H1084 H 0.01255 0.37831 0.05511 0.0
C1085 C 0.95328 0.3719 0.06101 0.0
C1086 C 0.97079 0.38644 0.08008 0.0
H1087 H 0.94383 0.35021 0.02389 0.0
H1088 H 0.93689 0.37055 0.06193 0.0
C1089 C 0.99193 0.38799 0.07823 0.0
C1090 C 0.62049 0.57313 0.08192 0.0
C1091 C 0.6209 0.59396 0.08716 0.0
H1092 H 0.60486 0.53733 0.09077 0.0
C1093 C 0.60561 0.59447 0.1059 0.0
H1094 H 0.63219 0.57221 0.06779 0.0
C1095 C 0.58988 0.57457 0.11849 0.0
C1096 C 0.58944 0.55385 0.11319 0.0
H1097 H 0.60572 0.6102 0.11101 0.0
H1098 H 0.57815 0.57541 0.13267 0.0
C1099 C 0.60498 0.55323 0.09506 0.0
C1100 C 0.38827 -0.00286 0.06584 0.0
C1101 C 0.39221 0.01354 0.04585 0.0
H1102 H 0.39994 0.98897 0.10298 0.0
C1103 C 0.41042 0.03591 0.05041 0.0
H1104 H 0.37448 0.97966 0.06272 0.0
C1105 C 0.42469 0.04163 0.07428 0.0
C1106 C 0.42155 0.0249 0.09369 0.0
H1107 H 0.41371 0.04896 0.03544 0.0
H1108 H 0.43837 0.05914 0.07717 0.0
C1109 C 0.40289 0.00262 0.08919 0.0
C1110 C 0.37922 0.94243 0.95997 0.0
C1111 C 0.36693 0.95158 0.94741 0.0
H1112 H 0.40542 0.93409 0.95504 0.0
C1113 C 0.37017 0.95747 0.91922 0.0
H1114 H 0.37702 0.93786 0.98173 0.0
C1115 C 0.38585 0.95487 0.90396 0.0
C1116 C 0.39892 0.94675 0.91675 0.0
H1117 H 0.36078 0.96446 0.90904 0.0
H1118 H 0.38845 0.96017 0.88247 0.0
C1119 C 0.3954 0.94033 0.9448 0.0
C1120 C 0.05262 0.41732 0.94946 0.0
C1121 C 0.03273 0.39647 0.94261 0.0
H1122 H 0.07143 0.45371 0.9439 0.0
C1123 C 0.01651 0.39661 0.92425 0.0
H1124 H 0.06553 0.4178 0.96336 0.0
C1125 C 0.0197 0.41711 0.91374 0.0
C1126 C 0.03942 0.43785 0.92075 0.0
H1127 H 0.00129 0.38093 0.9179 0.0
H1128 H 0.00683 0.41676 0.89983 0.0
C1129 C 0.05603 0.43783 0.93838 0.0
C1130 C 0.57557 0.62161 0.99013 0.0
C1131 C 0.59893 0.62996 0.99004 0.0
H1132 H 0.54418 0.60538 0.96684 0.0
C1133 C 0.60872 0.62989 0.96449 0.0
H1134 H 0.56739 0.62135 0.00937 0.0
C1135 C 0.59533 0.62092 0.93985 0.0
C1136 C 0.57184 0.61174 0.94019 0.0
H1137 H 0.62667 0.63631 0.96358 0.0
H1138 H 0.60337 0.62088 0.92059 0.0
C1139 C 0.56222 0.61257 0.96558 0.0
C1140 C 0.00686 0.62476 0.96282 0.0
C1141 C 0.02309 0.63578 0.98475 0.0
H1142 H -0.00266 0.6035 0.92519 0.0
C1143 C 0.04377 0.63621 0.98336 0.0
H1144 H 0.99071 0.624 0.96341 0.0
C1145 C 0.0477 0.62488 0.96121 0.0
C1146 C 0.03083 0.61254 0.94041 0.0
H1147 H 0.05659 0.6446 0.99995 0.0
H1148 H 0.06337 0.62462 0.96123 0.0
C1149 C 0.01059 0.61298 0.94103 0.0
C1150 C 0.37048 0.42813 0.93141 0.0
C1151 C 0.3766 0.41221 0.94024 0.0
H1152 H 0.3803 0.4588 0.90907 0.0
C1153 C 0.3986 0.41664 0.93636 0.0
H1154 H 0.35356 0.42503 0.93426 0.0
C1155 C 0.41385 0.43588 0.92233 0.0
C1156 C 0.40736 0.45101 0.91157 0.0
H1157 H 0.40398 0.40507 0.94386 0.0
H1158 H 0.43063 0.43861 0.91933 0.0
C1159 C 0.38575 0.44739 0.91703 0.0
C1160 C 0.58235 0.94886 0.96811 0.0
C1161 C 0.60345 0.96869 0.9736 0.0
H1162 H 0.55274 0.93199 0.941 0.0
C1163 C 0.61206 0.98567 0.95349 0.0
H1164 H 0.57531 0.93541 0.9831 0.0
C1165 C 0.59902 0.98379 0.92967 0.0
C1166 C 0.57737 0.96469 0.9252 0.0
H1167 H 0.62824 0.00115 0.957 0.0
H1168 H 0.60539 -0.00222 0.91541 0.0
C1169 C 0.56948 0.94681 0.94398 0.0
C1170 C 0.59686 0.00411 0.08231 0.0
C1171 C 0.61766 0.02279 0.07547 0.0
H1172 H 0.56601 0.99259 0.10323 0.0
C1173 C 0.62269 0.04507 0.08349 0.0
H1174 H 0.59218 0.98683 0.07568 0.0
C1175 C 0.6077 0.04843 0.09965 0.0
C1176 C 0.58739 0.02955 0.10778 0.0
H1177 H 0.63865 0.05977 0.07846 0.0
H1178 H 0.61244 0.06569 0.10671 0.0
C1179 C 0.58186 0.00744 0.09816 0.0
C1180 C 0.97303 0.59982 0.10129 0.0
C1181 C 0.96504 0.60019 0.07413 0.0
H1182 H 0.97515 0.5793 0.13348 0.0
C1183 C 0.95276 0.57951 0.05828 0.0
H1184 H 0.98248 0.61551 0.11398 0.0
C1185 C 0.94899 0.55885 0.06928 0.0
C1186 C 0.95692 0.5586 0.0965 0.0
H1187 H 0.94654 0.57938 0.03722 0.0
H1188 H 0.93986 0.5431 0.05665 0.0
C1189 C 0.96878 0.57917 0.11249 0.0
C1190 C 0.3854 0.37561 0.05738 0.0
C1191 C 0.39459 0.37073 0.03396 0.0
H1192 H 0.39084 0.38837 0.10002 0.0
C1193 C 0.41604 0.3729 0.03692 0.0
H1194 H 0.36891 0.37407 0.05588 0.0
C1195 C 0.42845 0.38083 0.06231 0.0
C1196 C 0.41979 0.38701 0.08516 0.0
H1197 H 0.42355 0.36913 0.01936 0.0
H1198 H 0.44533 0.38331 0.06357 0.0
C1199 C 0.39794 0.38383 0.08265 0.0
C1200 C 0.61541 0.68746 0.39549 0.0
C1201 C 0.63712 0.69184 0.38942 0.0
H1202 H 0.59525 0.69589 0.42107 0.0
C1203 C 0.65556 0.70813 0.40609 0.0
H1204 H 0.60089 0.6749 0.38297 0.0
C1205 C 0.65254 0.72099 0.42717 0.0
C1206 C 0.63088 0.71746 0.43255 0.0
H1207 H 0.67252 0.71207 0.40155 0.0
H1208 H 0.66742 0.73453 0.4381 0.0
C1209 C 0.61228 0.69981 0.4171 0.0
C1210 C 0.2906 0.91033 0.41713 0.0
C1211 C 0.29251 0.93165 0.42407 0.0
H1212 H 0.27361 0.87423 0.42458 0.0
C1213 C 0.27861 0.93272 0.44456 0.0
H1214 H 0.30118 0.90895 0.4016 0.0
C1215 C 0.26268 0.9129 0.45716 0.0
C1216 C 0.26072 0.8917 0.45007 0.0
H1217 H 0.27992 0.94882 0.45097 0.0
H1218 H 0.25198 0.91413 0.47266 0.0
C1219 C 0.27492 0.89051 0.43023 0.0
C1220 C 0.0825 0.37502 0.3934 0.0
C1221 C 0.06191 0.35493 0.38658 0.0
H1222 H 0.11061 0.3924 0.42264 0.0
C1223 C 0.05271 0.33766 0.40628 0.0
H1224 H 0.08997 0.38871 0.37878 0.0
C1225 C 0.06465 0.33972 0.4313 0.0
C1226 C 0.08581 0.35926 0.43734 0.0
H1227 H 0.03688 0.32197 0.40172 0.0
H1228 H 0.05773 0.32567 0.44547 0.0
C1229 C 0.09425 0.37722 0.41861 0.0
C1230 C 0.06547 0.3204 0.26291 0.0
C1231 C 0.04839 0.30294 0.27803 0.0
H1232 H 0.09267 0.3299 0.23545 0.0
C1233 C 0.04602 0.28097 0.27701 0.0
H1234 H 0.06761 0.33738 0.26272 0.0
C1235 C 0.06031 0.27657 0.26076 0.0
C1236 C 0.07735 0.29418 0.24576 0.0
H1237 H 0.03285 0.26711 0.28822 0.0
H1238 H 0.05815 0.25951 0.26001 0.0
C1239 C 0.07985 0.31611 0.24714 0.0
C1240 C 0.71127 0.74378 0.29562 0.0
C1241 C 0.68958 0.72435 0.29253 0.0
H1242 H 0.73299 0.77896 0.2855 0.0
C1243 C 0.67291 0.72585 0.27669 0.0
H1244 H 0.72454 0.74313 0.30753 0.0
C1245 C 0.67765 0.74633 0.2646 0.0
C1246 C 0.69929 0.76565 0.26756 0.0
H1247 H 0.65616 0.71125 0.27347 0.0
H1248 H 0.66446 0.74698 0.25248 0.0
C1249 C 0.71615 0.76422 0.28298 0.0
C1250 C 0.24214 0.95499 0.33541 0.0
C1251 C 0.26555 0.96553 0.33209 0.0
H1252 H 0.20916 0.93527 0.31604 0.0
C1253 C 0.27357 0.96621 0.30503 0.0
H1254 H 0.23531 0.95418 0.35586 0.0
C1255 C 0.25843 0.95556 0.28209 0.0
C1256 C 0.23511 0.94386 0.28595 0.0
H1257 H 0.29149 0.97429 0.3017 0.0
H1258 H 0.26493 0.95544 0.26166 0.0
C1259 C 0.22711 0.94414 0.31264 0.0
C1260 C 0.67121 0.95234 0.29798 0.0
C1261 C 0.68762 0.96439 0.31943 0.0
H1262 H 0.66194 0.93032 0.26107 0.0
C1263 C 0.70871 0.96572 0.31794 0.0
H1264 H 0.65477 0.95092 0.29864 0.0
C1265 C 0.71292 0.95432 0.29617 0.0
C1266 C 0.69597 0.94101 0.27584 0.0
H1267 H 0.7217 0.97496 0.33412 0.0
H1268 H 0.72895 0.9548 0.29615 0.0
C1269 C 0.67526 0.94052 0.27655 0.0
C1270 C 0.04842 0.75141 0.28816 0.0
C1271 C 0.04129 0.72964 0.27588 0.0
H1272 H 0.06888 0.78773 0.28446 0.0
C1273 C 0.0482 0.72791 0.24897 0.0
H1274 H 0.04327 0.75315 0.30892 0.0
C1275 C 0.0622 0.74752 0.23464 0.0
C1276 C 0.07017 0.76943 0.24715 0.0
H1277 H 0.0426 0.71131 0.23878 0.0
H1278 H 0.06678 0.74542 0.21369 0.0
C1279 C 0.06293 0.77117 0.27403 0.0
C1280 C 0.27482 0.31604 0.27898 0.0
C1281 C 0.26584 0.29946 0.29955 0.0
H1282 H 0.2694 0.3268 0.23913 0.0
C1283 C 0.24507 0.27932 0.2937 0.0
H1284 H 0.2908 0.33172 0.28271 0.0
C1285 C 0.23297 0.27643 0.26855 0.0
C1286 C 0.24127 0.29372 0.2489 0.0
H1287 H 0.23774 0.26614 0.30898 0.0
H1288 H 0.2165 0.26127 0.26524 0.0
C1289 C 0.26258 0.31326 0.25402 0.0
C1290 C 0.27924 0.37162 0.41002 0.0
C1291 C 0.27883 0.35055 0.40898 0.0
H1292 H 0.26528 0.39112 0.42787 0.0
C1293 C 0.26328 0.33262 0.42506 0.0
H1294 H 0.29117 0.38583 0.39805 0.0
C1295 C 0.2485 0.33559 0.4418 0.0
C1296 C 0.24912 0.35668 0.44321 0.0
H1297 H 0.26267 0.3163 0.4252 0.0
H1298 H 0.23689 0.3215 0.45418 0.0
C1299 C 0.2646 0.37471 0.42719 0.0
C1300 C 0.6452 0.93566 0.43973 0.0
C1301 C 0.63338 0.9333 0.41439 0.0
H1302 H 0.65184 0.91896 0.47284 0.0
C1303 C 0.61873 0.9112 0.40284 0.0
H1304 H 0.65636 0.95244 0.4494 0.0
C1305 C 0.61643 0.89185 0.41609 0.0
C1306 C 0.62858 0.89425 0.44127 0.0
H1307 H 0.60943 0.90889 0.38329 0.0
H1308 H 0.60552 0.87507 0.40628 0.0
C1309 C 0.64271 0.91641 0.45309 0.0
C1310 C 0.08711 0.69895 0.37922 0.0
C1311 C 0.06539 0.69603 0.37578 0.0
H1312 H 0.11712 0.71228 0.40548 0.0
C1313 C 0.05652 0.70269 0.39802 0.0
H1314 H 0.09438 0.6939 0.36255 0.0
C1315 C 0.06964 0.71341 0.42238 0.0
C1316 C 0.0917 0.71728 0.42523 0.0
H1317 H 0.03987 0.70071 0.39609 0.0
H1318 H 0.06282 0.71939 0.43864 0.0
C1319 C 0.10008 0.70932 0.40383 0.0
C1320 C 0.29005 0.02792 0.71773 0.0
C1321 C 0.31196 0.03207 0.71348 0.0
H1322 H 0.26869 0.03524 0.74247 0.0
C1323 C 0.32941 0.04665 0.73259 0.0
H1324 H 0.27625 0.01658 0.70338 0.0
C1325 C 0.32531 0.05812 0.75443 0.0
C1326 C 0.30353 0.05485 0.75805 0.0
H1327 H 0.34651 0.05035 0.7296 0.0
H1328 H 0.33955 0.07044 0.76747 0.0
C1329 C 0.28581 0.03888 0.73998 0.0
C1330 C 0.95328 0.24585 0.74996 0.0
C1331 C 0.9492 0.26414 0.74697 0.0
H1332 H 0.94247 0.21312 0.76745 0.0
C1333 C 0.92949 0.26231 0.75767 0.0
H1334 H 0.9684 0.24682 0.74199 0.0
C1335 C 0.91448 0.24292 0.77174 0.0
C1336 C 0.91898 0.22501 0.77597 0.0
H1337 H 0.92559 0.27583 0.75531 0.0
H1338 H 0.89935 0.24209 0.77945 0.0
C1339 C 0.93839 0.22652 0.76449 0.0
C1340 C 0.7496 0.71122 0.72149 0.0
C1341 C 0.73299 0.68837 0.71524 0.0
H1342 H 0.77494 0.73503 0.75078 0.0
C1343 C 0.72886 0.67173 0.73493 0.0
H1344 H 0.7529 0.72442 0.70676 0.0
C1345 C 0.74207 0.67754 0.75966 0.0
C1346 C 0.75937 0.70031 0.76574 0.0
H1347 H 0.71624 0.65393 0.73052 0.0
H1348 H 0.73932 0.66381 0.77321 0.0
C1349 C 0.76237 0.7172 0.74668 0.0
C1350 C 0.70856 0.60431 0.60734 0.0
C1351 C 0.71535 0.62679 0.61676 0.0
H1352 H 0.7161 0.58284 0.58139 0.0
C1353 C 0.73666 0.6447 0.61011 0.0
H1354 H 0.69212 0.59024 0.61219 0.0
C1355 C 0.75038 0.64053 0.59278 0.0
C1356 C 0.74297 0.61836 0.5815 0.0
H1357 H 0.74257 0.66206 0.61778 0.0
H1358 H 0.7666 0.65481 0.58765 0.0
C1359 C 0.72225 0.60012 0.5897 0.0
C1360 C 0.34996 0.06806 0.60202 0.0
C1361 C 0.36663 0.06676 0.61814 0.0
H1362 H 0.34123 0.08914 0.57811 0.0
C1363 C 0.38805 0.0865 0.62195 0.0
H1364 H 0.33344 0.05324 0.59822 0.0
C1365 C 0.39266 0.10704 0.60979 0.0
C1366 C 0.37578 0.10827 0.59415 0.0
H1367 H 0.40132 0.08603 0.63409 0.0
H1368 H 0.40929 0.12201 0.61285 0.0
C1369 C 0.35441 0.08864 0.59043 0.0
C1370 C 0.91415 0.30311 0.64082 0.0
C1371 C 0.93414 0.3026 0.64625 0.0
H1372 H 0.88539 0.2926 0.613 0.0
C1373 C 0.9416 0.29287 0.62577 0.0
H1374 H 0.90804 0.31059 0.65613 0.0
C1375 C 0.92849 0.28234 0.60136 0.0
C1376 C 0.90797 0.28184 0.59668 0.0
H1377 H 0.95688 0.29214 0.62932 0.0
H1378 H 0.9339 0.27377 0.58664 0.0
C1379 C 0.90127 0.29298 0.61611 0.0
C1380 C 0.38193 0.30716 0.64297 0.0
C1381 C 0.36051 0.30487 0.64566 0.0
H1382 H 0.40236 0.29722 0.61988 0.0
C1383 C 0.34373 0.29246 0.62471 0.0
H1384 H 0.3952 0.31668 0.65875 0.0
C1385 C 0.34775 0.28104 0.60276 0.0
C1386 C 0.36876 0.28229 0.60102 0.0
H1387 H 0.32704 0.29029 0.62629 0.0
H1388 H 0.33414 0.27042 0.58779 0.0
C1389 C 0.38608 0.29614 0.62069 0.0
C1390 C 0.70791 0.09795 0.61183 0.0
C1391 C 0.699 0.07655 0.59763 0.0
H1392 H 0.73079 0.13425 0.61038 0.0
C1393 C 0.70509 0.07547 0.57001 0.0
H1394 H 0.70349 0.09915 0.63319 0.0
C1395 C 0.72007 0.09541 0.55686 0.0
C1396 C 0.72962 0.11671 0.57133 0.0
H1397 H 0.69834 0.05915 0.55859 0.0
H1398 H 0.72485 0.09411 0.53571 0.0
C1399 C 0.72343 0.11792 0.59887 0.0
C1400 C 0.93435 0.65102 0.61518 0.0
C1401 C 0.93113 0.63437 0.63447 0.0
H1402 H 0.9226 0.65871 0.57768 0.0
C1403 C 0.91495 0.61138 0.62814 0.0
H1404 H 0.94659 0.66893 0.61969 0.0
C1405 C 0.90165 0.60525 0.60339 0.0
C1406 C 0.90366 0.6221 0.58486 0.0
H1407 H 0.91233 0.59817 0.64256 0.0
H1408 H 0.88941 0.58732 0.59925 0.0
C1409 C 0.9206 0.64504 0.59087 0.0
C1410 C 0.92554 0.67652 0.73931 0.0
C1411 C 0.94688 0.69482 0.73354 0.0
H1412 H 0.89507 0.66537 0.76099 0.0
C1413 C 0.95326 0.71696 0.74392 0.0
H1414 H 0.91998 0.65941 0.73091 0.0
C1415 C 0.93911 0.72039 0.76162 0.0
C1416 C 0.91829 0.70174 0.7689 0.0
H1417 H 0.96973 0.73132 0.7398 0.0
H1418 H 0.94497 0.7374 0.77068 0.0
C1419 C 0.91133 0.67996 0.75664 0.0
C1420 C 0.2853 0.24927 0.74592 0.0
C1421 C 0.30668 0.26677 0.73857 0.0
H1422 H 0.26646 0.21736 0.76615 0.0
C1423 C 0.32544 0.2641 0.74353 0.0
H1424 H 0.27054 0.25092 0.74222 0.0
C1425 C 0.32314 0.24487 0.75677 0.0
C1426 C 0.30201 0.22789 0.76568 0.0
H1427 H 0.34197 0.27684 0.73714 0.0
H1428 H 0.33803 0.24343 0.76027 0.0
C1429 C 0.28299 0.23005 0.75953 0.0
C1430 C 0.72156 0.05619 0.71403 0.0
C1431 C 0.72553 0.04319 0.69404 0.0
H1432 H 0.73265 0.07645 0.75204 0.0
C1433 C 0.74305 0.03859 0.69919 0.0
H1434 H 0.70826 0.06018 0.71042 0.0
C1435 C 0.75658 0.0471 0.72376 0.0
C1436 C 0.75346 0.06118 0.74333 0.0
H1437 H 0.74628 0.02837 0.6842 0.0
H1438 H 0.76962 0.04276 0.72713 0.0
C1439 C 0.73553 0.06537 0.73813 0.0
C1440 C 0.06171 0.32059 0.05205 0.0
C1441 C 0.0438 0.3023 0.03664 0.0
H1442 H 0.08948 0.33132 0.08126 0.0
C1443 C 0.03944 0.2799 0.04087 0.0
H1444 H 0.06566 0.33809 0.04918 0.0
C1445 C 0.0529 0.27592 0.05972 0.0
C1446 C 0.07124 0.29428 0.07462 0.0
H1447 H 0.02567 0.26539 0.02947 0.0
H1448 H 0.04892 0.25842 0.06255 0.0
C1449 C 0.07533 0.31666 0.07064 0.0
C1450 C 0.65079 0.72759 0.08557 0.0
C1451 C 0.66519 0.71957 0.07714 0.0
H1452 H 0.64787 0.75426 0.1065 0.0
C1453 C 0.68865 0.73423 0.0805 0.0
H1454 H 0.63265 0.71681 0.08292 0.0
C1455 C 0.6974 0.75565 0.09448 0.0
C1456 C 0.6828 0.76271 0.10513 0.0
H1457 H 0.70016 0.72848 0.07428 0.0
H1458 H 0.71543 0.76595 0.09856 0.0
C1459 C 0.6595 0.74896 0.09929 0.0
C1460 C 0.27809 0.9542 0.07172 0.0
C1461 C 0.28938 0.94178 0.06834 0.0
H1462 H 0.25315 0.95791 0.09354 0.0
C1463 C 0.28456 0.92371 0.08608 0.0
H1464 H 0.28172 0.96848 0.05865 0.0
C1465 C 0.26791 0.91741 0.10586 0.0
C1466 C 0.25594 0.92925 0.10847 0.0
H1467 H 0.29302 0.91386 0.08397 0.0
H1468 H 0.26375 0.90263 0.11819 0.0
C1469 C 0.26168 0.94811 0.09168 0.0
C1470 C 0.30648 0.02148 0.93722 0.0
C1471 C 0.32268 0.03026 0.95929 0.0
H1472 H 0.28878 0.02865 0.90564 0.0
C1473 C 0.33118 0.05282 0.96939 0.0
H1474 H 0.30007 0.00414 0.92887 0.0
C1475 C 0.32419 0.06681 0.95671 0.0
C1476 C 0.30931 0.05871 0.93295 0.0
H1477 H 0.34382 0.05987 0.98634 0.0
H1478 H 0.3312 0.08425 0.96488 0.0
C1479 C 0.29999 0.03559 0.92398 0.0
C1480 C 0.95597 0.2539 0.95425 0.0
C1481 C 0.94971 0.27081 0.95561 0.0
H1482 H 0.94577 0.21897 0.94271 0.0
C1483 C 0.92726 0.26453 0.94894 0.0
H1484 H 0.97319 0.25826 0.95918 0.0
C1485 C 0.91172 0.24228 0.93949 0.0
C1486 C 0.91817 0.2256 0.93642 0.0
H1487 H 0.92186 0.27713 0.94989 0.0
H1488 H 0.89494 0.23855 0.93311 0.0
C1489 C 0.94034 0.23149 0.94456 0.0
C1490 C 0.73983 0.70896 0.98847 0.0
C1491 C 0.72052 0.68723 0.99055 0.0
H1492 H 0.77084 0.7293 0.96784 0.0
C1493 C 0.7171 0.66947 0.97152 0.0
H1494 H 0.74291 0.72303 0.00273 0.0
C1495 C 0.73306 0.67308 0.95163 0.0
C1496 C 0.75274 0.69455 0.95019 0.0
H1497 H 0.70234 0.65257 0.97238 0.0
H1498 H 0.73017 0.65893 0.93761 0.0
C1499 C 0.75576 0.71261 0.9684 0.0
C1500 C 0.95018 0.69128 0.96858 0.0
C1501 C 0.94503 0.66828 0.96806 0.0
H1502 H 0.94109 0.71553 0.95405 0.0
C1503 C 0.92718 0.65222 0.95033 0.0
H1504 H 0.96386 0.7041 0.98196 0.0
C1505 C 0.91415 0.65877 0.93446 0.0
C1506 C 0.91873 0.68155 0.93579 0.0
H1507 H 0.92281 0.6344 0.94927 0.0
H1508 H 0.90025 0.64588 0.9214 0.0
C1509 C 0.9372 0.69787 0.95252 0.0
C1510 C 0.35134 0.27996 0.9317 0.0
C1511 C 0.33602 0.28637 0.94147 0.0
H1512 H 0.356 0.25351 0.91356 0.0
C1513 C 0.31305 0.26964 0.94219 0.0
H1514 H 0.36915 0.2924 0.93092 0.0
C1515 C 0.30547 0.24719 0.93214 0.0
C1516 C 0.32077 0.24106 0.92153 0.0
H1517 H 0.30082 0.27407 0.94952 0.0
H1518 H 0.28763 0.23471 0.93233 0.0
C1519 C 0.34381 0.2576 0.92189 0.0
C1520 C 0.70242 0.05574 0.94454 0.0
C1521 C 0.7036 0.04208 0.96551 0.0
H1522 H 0.71829 0.07643 0.90957 0.0
C1523 C 0.7215 0.03752 0.96582 0.0
H1524 H 0.68877 0.05944 0.94357 0.0
C1525 C 0.73829 0.04709 0.94613 0.0
C1526 C 0.73758 0.06154 0.92596 0.0
H1527 H 0.72278 0.02689 0.98157 0.0
H1528 H 0.75232 0.04397 0.94742 0.0
C1529 C 0.71929 0.06545 0.92505 0.0
C1530 C 0.65141 0.92276 0.07405 0.0
C1531 C 0.66542 0.94537 0.06597 0.0
H1532 H 0.64887 0.89471 0.09679 0.0
C1533 C 0.68883 0.95585 0.07134 0.0
H1534 H 0.63335 0.91412 0.06986 0.0
C1535 C 0.6977 0.9448 0.08717 0.0
C1536 C 0.68327 0.92312 0.09766 0.0
H1537 H 0.70006 0.97329 0.0654 0.0
H1538 H 0.71553 0.95389 0.09287 0.0
C1539 C 0.66026 0.91173 0.08968 0.0
C1540 C 0.04374 0.74258 0.07026 0.0
C1541 C 0.04983 0.72554 0.07133 0.0
H1542 H 0.05319 0.77745 0.08083 0.0
C1543 C 0.07146 0.73157 0.08188 0.0
H1544 H 0.02718 0.73847 0.06232 0.0
C1545 C 0.08625 0.75374 0.09243 0.0
C1546 C 0.07979 0.7705 0.09281 0.0
H1547 H 0.07674 0.71891 0.08291 0.0
H1548 H 0.10235 0.75741 0.10156 0.0
C1549 C 0.05855 0.76483 0.08107 0.0
C1550 C 0.24745 0.30276 0.01135 0.0
C1551 C 0.2706 0.31401 0.0185 0.0
H1552 H 0.21392 0.28797 0.02599 0.0
C1553 C 0.27754 0.31727 0.04693 0.0
H1554 H 0.24157 0.29999 0.98963 0.0
C1555 C 0.26168 0.31005 0.06778 0.0
C1556 C 0.23853 0.29957 0.0607 0.0
H1557 H 0.29526 0.32564 0.05313 0.0
H1558 H 0.2676 0.31292 0.08949 0.0
C1559 C 0.23158 0.29571 0.03222 0.0
C1560 C 0.70925 0.63572 0.3987 0.0
C1561 C 0.71311 0.63833 0.36986 0.0
H1562 H 0.71936 0.62864 0.43836 0.0
C1563 C 0.72987 0.63459 0.35875 0.0
H1564 H 0.6964 0.63839 0.40788 0.0
C1565 C 0.74298 0.62915 0.37613 0.0
C1566 C 0.73955 0.62712 0.40504 0.0
H1567 H 0.73324 0.63632 0.33663 0.0
H1568 H 0.75598 0.62671 0.36697 0.0
C1569 C 0.72228 0.63003 0.41612 0.0
C1570 C 0.36081 0.07229 0.41304 0.0
C1571 C 0.33733 0.05749 0.4108 0.0
H1572 H 0.38788 0.10476 0.42893 0.0
C1573 C 0.32305 0.06579 0.41869 0.0
H1574 H 0.37221 0.06629 0.40717 0.0
C1575 C 0.33197 0.08772 0.43088 0.0
C1576 C 0.35535 0.10172 0.43577 0.0
H1577 H 0.30489 0.05487 0.41683 0.0
H1578 H 0.32046 0.09328 0.43779 0.0
C1579 C 0.36978 0.09427 0.42555 0.0
C1580 C 0.94321 0.29042 0.38523 0.0
C1581 C 0.95694 0.28047 0.38354 0.0
H1582 H 0.91522 0.29024 0.40438 0.0
C1583 C 0.95255 0.26211 0.40059 0.0
H1584 H 0.94629 0.30474 0.37255 0.0
C1585 C 0.93454 0.2536 0.41859 0.0
C1586 C 0.92066 0.26342 0.42015 0.0
H1587 H 0.96278 0.25403 0.3997 0.0
H1588 H 0.9312 0.23897 0.43082 0.0
C1589 C 0.92534 0.28205 0.4034 0.0
C1590 C 0.9815 0.37266 0.28648 0.0
C1591 C 0.00498 0.38274 0.29074 0.0
H1592 H 0.95454 0.37438 0.26538 0.0
C1593 C 0.01912 0.40465 0.28061 0.0
H1594 H 0.97013 0.35578 0.29397 0.0
C1595 C 0.01018 0.41523 0.26425 0.0
C1596 C 0.98694 0.40413 0.25763 0.0
H1597 H 0.03726 0.41301 0.28385 0.0
H1598 H 0.0216 0.4317 0.25576 0.0
C1599 C 0.97255 0.38326 0.26997 0.0
C1600 C 0.61346 0.58343 0.29864 0.0
C1601 C 0.60568 0.59901 0.30254 0.0
H1602 H 0.60649 0.55103 0.28042 0.0
C1603 C 0.5832 0.59199 0.29489 0.0
H1604 H 0.63074 0.58838 0.30423 0.0
C1605 C 0.56938 0.5707 0.28143 0.0
C1606 C 0.57777 0.55597 0.27508 0.0
H1607 H 0.57662 0.60349 0.29795 0.0
H1608 H 0.55241 0.5662 0.27481 0.0
C1609 C 0.5996 0.56206 0.28493 0.0
C1610 C 0.38242 0.00254 0.30145 0.0
C1611 C 0.38684 0.02123 0.31944 0.0
H1612 H 0.3939 0.99006 0.26771 0.0
C1613 C 0.40607 0.04265 0.31536 0.0
H1614 H 0.36769 0.98583 0.30385 0.0
C1615 C 0.42105 0.04507 0.2945 0.0
C1616 C 0.41715 0.02607 0.27747 0.0
H1617 H 0.40989 0.05742 0.32877 0.0
H1618 H 0.43617 0.06154 0.29252 0.0
C1619 C 0.39746 0.00492 0.28078 0.0
C1620 C 0.61988 0.04307 0.31288 0.0
C1621 C 0.61858 0.0217 0.31535 0.0
H1622 H 0.60632 0.0621 0.29327 0.0
C1623 C 0.60277 0.00304 0.29821 0.0
H1624 H 0.63189 0.0578 0.32572 0.0
C1625 C 0.58803 0.00548 0.27983 0.0
C1626 C 0.58894 0.02669 0.27789 0.0
H1627 H 0.60131 0.98634 0.29954 0.0
H1628 H 0.57577 0.99069 0.26727 0.0
C1629 C 0.6053 0.04557 0.29422 0.0
C1630 C 0.98192 0.59076 0.28311 0.0
C1631 C 0.00521 0.60661 0.28394 0.0
H1632 H 0.95523 0.55832 0.26677 0.0
C1633 C 0.01986 0.60004 0.27229 0.0
H1634 H 0.97017 0.59531 0.29187 0.0
C1635 C 0.01131 0.57889 0.25805 0.0
C1636 C 0.98792 0.56389 0.255 0.0
H1637 H 0.03791 0.61173 0.27291 0.0
H1638 H 0.023 0.57467 0.24842 0.0
C1639 C 0.97334 0.56958 0.26868 0.0
C1640 C 0.37928 0.36948 0.29017 0.0
C1641 C 0.38648 0.37075 0.31823 0.0
H1642 H 0.38878 0.37693 0.24771 0.0
C1643 C 0.40964 0.38082 0.32479 0.0
H1644 H 0.36151 0.36156 0.28439 0.0
C1645 C 0.42532 0.38993 0.30379 0.0
C1646 C 0.41817 0.38895 0.27571 0.0
H1647 H 0.41571 0.38208 0.34623 0.0
H1648 H 0.44309 0.39832 0.30974 0.0
C1649 C 0.39493 0.37835 0.26914 0.0
C1650 C 0.35412 0.29005 0.3951 0.0
C1651 C 0.33057 0.2783 0.39041 0.0
H1652 H 0.38219 0.2904 0.41628 0.0
C1653 C 0.31777 0.25574 0.39928 0.0
H1654 H 0.36445 0.30748 0.38854 0.0
C1655 C 0.32792 0.24605 0.41513 0.0
C1656 C 0.35104 0.25874 0.42248 0.0
H1657 H 0.29965 0.24612 0.39565 0.0
H1658 H 0.31743 0.22907 0.42295 0.0
C1659 C 0.36429 0.28033 0.4111 0.0
C1660 C 0.70849 0.07424 0.39889 0.0
C1661 C 0.71505 0.05756 0.39702 0.0
H1662 H 0.71789 0.10853 0.41276 0.0
C1663 C 0.73755 0.06402 0.40379 0.0
H1664 H 0.69124 0.06972 0.39389 0.0
C1665 C 0.75266 0.08603 0.41447 0.0
C1666 C 0.74565 0.10214 0.41875 0.0
H1667 H 0.74321 0.05166 0.40219 0.0
H1668 H 0.76962 0.09014 0.4206 0.0
C1669 C 0.72371 0.09641 0.40974 0.0
C1670 C 0.91702 0.626 0.35011 0.0
C1671 C 0.93949 0.63474 0.35948 0.0
H1672 H 0.88303 0.6143 0.36163 0.0
C1673 C 0.94452 0.63628 0.38842 0.0
H1674 H 0.9126 0.62456 0.32797 0.0
C1675 C 0.92747 0.63 0.40764 0.0
C1676 C 0.90527 0.62245 0.39817 0.0
H1677 H 0.96169 0.64281 0.39622 0.0
H1678 H 0.93178 0.63206 0.42986 0.0
C1679 C 0.9001 0.62011 0.3693 0.0
C1680 C 0.40847 0.01676 0.74319 0.0
C1681 C 0.39105 0.00088 0.72483 0.0
H1682 H 0.43448 0.02281 0.77342 0.0
C1683 C 0.38583 0.97787 0.72434 0.0
H1684 H 0.41299 0.03463 0.74409 0.0
C1685 C 0.3981 0.97103 0.74136 0.0
C1686 C 0.41587 0.98704 0.75928 0.0
H1687 H 0.37246 0.96515 0.71052 0.0
H1688 H 0.39369 0.95319 0.74043 0.0
C1689 C 0.42073 0.00994 0.76018 0.0
C1690 C 0.01921 0.40543 0.74084 0.0
C1691 C 0.99572 0.39079 0.73777 0.0
H1692 H 0.04617 0.43738 0.75819 0.0
C1693 C 0.98143 0.39899 0.74612 0.0
H1694 H 0.03066 0.3996 0.73463 0.0
C1695 C 0.99029 0.42051 0.75947 0.0
C1696 C 0.01362 0.43429 0.76491 0.0
H1697 H 0.96328 0.38827 0.74367 0.0
H1698 H 0.97877 0.42594 0.76672 0.0
C1699 C 0.0281 0.42704 0.75437 0.0
C1700 C 0.63102 0.60318 0.74973 0.0
C1701 C 0.63158 0.61675 0.72757 0.0
H1702 H 0.61301 0.584 0.7848 0.0
C1703 C 0.61485 0.62294 0.72525 0.0
H1704 H 0.64374 0.59825 0.75217 0.0
C1705 C 0.59745 0.61501 0.7441 0.0
C1706 C 0.59633 0.60056 0.76544 0.0
H1707 H 0.61495 0.63356 0.70854 0.0
H1708 H 0.58432 0.61933 0.74121 0.0
C1709 C 0.61347 0.59504 0.7684 0.0
C1710 C 0.68582 0.72957 0.61171 0.0
C1711 C 0.67169 0.708 0.62262 0.0
H1712 H 0.68814 0.75833 0.59116 0.0
C1713 C 0.64837 0.69981 0.62325 0.0
H1714 H 0.70385 0.7364 0.61094 0.0
C1715 C 0.63929 0.7125 0.61184 0.0
C1716 C 0.65342 0.73366 0.59992 0.0
H1717 H 0.63703 0.68319 0.63143 0.0
H1718 H 0.62124 0.70562 0.61192 0.0
C1719 C 0.6768 0.74222 0.60048 0.0
C1720 C 0.25982 0.93411 0.62407 0.0
C1721 C 0.28257 0.94091 0.62951 0.0
H1722 H 0.2276 0.90791 0.60784 0.0
C1723 C 0.28961 0.92477 0.62541 0.0
H1724 H 0.25382 0.94607 0.62739 0.0
C1725 C 0.27457 0.90287 0.61372 0.0
C1726 C 0.25227 0.8968 0.60615 0.0
H1727 H 0.30707 0.92956 0.62933 0.0
H1728 H 0.28079 0.89129 0.60896 0.0
C1729 C 0.24483 0.91229 0.6127 0.0
C1730 C 0.05071 0.34908 0.63668 0.0
C1731 C 0.0574 0.3532 0.66521 0.0
H1732 H 0.06082 0.35042 0.59441 0.0
C1733 C 0.08037 0.36287 0.67277 0.0
H1734 H 0.03316 0.34185 0.63013 0.0
C1735 C 0.09622 0.36758 0.65227 0.0
C1736 C 0.08945 0.36284 0.62375 0.0
H1737 H 0.08607 0.36625 0.69457 0.0
H1738 H 0.11366 0.37419 0.65887 0.0
C1739 C 0.06656 0.3539 0.61619 0.0
C1740 C 0.26676 0.3616 0.66658 0.0
C1741 C 0.28033 0.35264 0.65773 0.0
H1742 H 0.24317 0.37215 0.6549 0.0
C1743 C 0.28123 0.3487 0.62888 0.0
H1744 H 0.26563 0.36482 0.68862 0.0
C1745 C 0.26844 0.35312 0.60943 0.0
C1746 C 0.25445 0.36157 0.61835 0.0
H1747 H 0.29158 0.34191 0.62132 0.0
H1748 H 0.26946 0.34981 0.58738 0.0
C1749 C 0.25398 0.36597 0.64717 0.0
C1750 C 0.68011 0.94729 0.59727 0.0
C1751 C 0.66478 0.95337 0.60787 0.0
H1752 H 0.68491 0.921 0.57877 0.0
C1753 C 0.64205 0.93626 0.60986 0.0
H1754 H 0.69774 0.96002 0.5955 0.0
C1755 C 0.63465 0.91377 0.60013 0.0
C1756 C 0.6499 0.90797 0.58858 0.0
H1757 H 0.6298 0.94042 0.61785 0.0
H1758 H 0.61696 0.90101 0.60126 0.0
C1759 C 0.67277 0.92487 0.58778 0.0
C1760 C 0.07774 0.72036 0.65997 0.0
C1761 C 0.05473 0.70833 0.65199 0.0
H1762 H 0.11167 0.73935 0.64673 0.0
C1763 C 0.04846 0.70495 0.62333 0.0
H1764 H 0.08313 0.7233 0.68188 0.0
C1765 C 0.06485 0.71381 0.60311 0.0
C1766 C 0.08789 0.72643 0.61107 0.0
H1767 H 0.03086 0.69553 0.61648 0.0
H1768 H 0.05943 0.71086 0.58122 0.0
C1769 C 0.09413 0.7294 0.63976 0.0
C1770 C 0.98014 0.59521 0.74053 0.0
C1771 C 0.99409 0.61725 0.73068 0.0
H1772 H 0.97796 0.56789 0.76454 0.0
C1773 C 0.01759 0.62758 0.73498 0.0
H1774 H 0.962 0.58668 0.73725 0.0
C1775 C 0.02675 0.61689 0.75104 0.0
C1776 C 0.01253 0.59572 0.7629 0.0
H1777 H 0.02877 0.64461 0.72773 0.0
H1778 H 0.04476 0.62583 0.75558 0.0
C1779 C 0.98927 0.58454 0.7564 0.0
C1780 C 0.40722 0.40098 0.74008 0.0
C1781 C 0.385 0.39392 0.73098 0.0
H1782 H 0.43832 0.42776 0.75785 0.0
C1783 C 0.37799 0.41027 0.73038 0.0
H1784 H 0.41324 0.38889 0.74074 0.0
C1785 C 0.39263 0.43293 0.74016 0.0
C1786 C 0.41456 0.43964 0.75045 0.0
H1787 H 0.36095 0.40534 0.72355 0.0
H1788 H 0.38665 0.44506 0.74016 0.0
C1789 C 0.42174 0.42344 0.74973 0.0
C1790 C 0.60586 0.98604 0.7135 0.0
C1791 C 0.62114 0.00961 0.71145 0.0
H1792 H 0.5774 0.96004 0.73405 0.0
C1793 C 0.61947 0.02522 0.72979 0.0
H1794 H 0.60682 0.97355 0.69982 0.0
C1795 C 0.60245 0.0175 0.74917 0.0
C1796 C 0.58681 0.99397 0.75081 0.0
H1797 H 0.63095 0.04349 0.7287 0.0
H1798 H 0.60115 0.03009 0.76224 0.0
C1799 C 0.58893 0.9783 0.73302 0.0
loop_
_geom_bond_atom_site_label_1
_geom_bond_atom_site_label_2
_geom_bond_distance
_geom_bond_site_symmetry_2
_ccdc_geom_bond_type
Mg0 O1 2.028 1_556 S
Mg0 O7 1.986 1_455 S
Mg0 O9 2.114 . S
Mg0 O10 2.251 1_455 S
Mg0 O13 2.010 1_556 S
O1 Mg0 2.028 1_554 S
O1 C4 1.250 1_455 S
O2 Mg3 2.028 1_554 S
O2 C4 1.248 . S
Mg3 O2 2.028 1_556 S
Mg3 O8 2.032 . S
Mg3 O10 2.079 . S
C4 O1 1.250 1_655 S
C4 O2 1.248 . S
C5 O6 1.264 . S
C5 O13 1.249 . S
O6 C5 1.264 . S
O7 Mg0 1.986 1_655 S
O7 C11 1.246 . S
O8 Mg3 2.032 . S
O8 C11 1.259 . S
O9 Mg0 2.114 . S
O9 C12 1.252 . S
O10 Mg0 2.251 1_655 S
O10 Mg3 2.079 . S
O10 C12 1.273 1_655 S
C11 O7 1.246 . S
C11 O8 1.259 . S
C12 O9 1.252 . S
C12 O10 1.273 1_455 S
O13 Mg0 2.010 1_554 S
O13 C5 1.249 . S
Mg14 O15 2.028 1_554 S
Mg14 O21 1.986 . S
Mg14 O23 2.114 . S
Mg14 O24 2.251 . S
Mg14 O27 2.010 . S
O15 Mg14 2.028 1_556 S
O15 C18 1.250 . S
O16 Mg17 2.028 1_556 S
O16 C18 1.248 . S
Mg17 O16 2.028 1_554 S
Mg17 O22 2.032 . S
Mg17 O24 2.079 . S
C18 O15 1.250 . S
C18 O16 1.248 . S
C19 O20 1.264 1_556 S
C19 O27 1.249 1_556 S
O20 C19 1.264 1_554 S
O21 Mg14 1.986 . S
O21 C25 1.246 . S
O22 Mg17 2.032 . S
O22 C25 1.259 . S
O23 Mg14 2.114 . S
O23 C26 1.252 . S
O24 Mg14 2.251 . S
O24 Mg17 2.079 . S
O24 C26 1.273 . S
C25 O21 1.246 . S
C25 O22 1.259 . S
C26 O23 1.252 . S
C26 O24 1.273 . S
O27 Mg14 2.010 . S
O27 C19 1.249 1_554 S
Mg28 O29 2.028 1_566 S
Mg28 O35 1.986 1_565 S
Mg28 O37 2.114 . S
Mg28 O38 2.251 1_565 S
Mg28 O41 2.010 1_556 S
O29 Mg28 2.028 1_544 S
O29 C32 1.250 . S
O30 Mg31 2.028 1_554 S
O30 C32 1.248 . S
Mg31 O30 2.028 1_556 S
Mg31 O36 2.032 . S
Mg31 O38 2.079 . S
C32 O29 1.250 . S
C32 O30 1.248 . S
C33 O34 1.264 . S
C33 O41 1.249 . S
O34 C33 1.264 . S
O35 Mg28 1.986 1_545 S
O35 C39 1.246 . S
O36 Mg31 2.032 . S
O36 C39 1.259 . S
O37 Mg28 2.114 . S
O37 C40 1.252 . S
O38 Mg28 2.251 1_545 S
O38 Mg31 2.079 . S
O38 C40 1.273 1_545 S
C39 O35 1.246 . S
C39 O36 1.259 . S
C40 O37 1.252 . S
C40 O38 1.273 1_565 S
O41 Mg28 2.010 1_554 S
O41 C33 1.249 . S
Mg42 O43 2.007 1_654 S
Mg42 O49 1.986 1_655 S
Mg42 O51 2.114 . S
Mg42 O52 2.251 1_655 S
Mg42 O55 2.010 . S
O43 Mg42 2.007 1_456 S
O43 C46 1.300 . S
O44 Mg45 2.028 1_556 S
O44 C46 1.248 . S
Mg45 O44 2.028 1_554 S
Mg45 O50 2.032 . S
Mg45 O52 2.079 . S
C46 O43 1.300 . S
C46 O44 1.248 . S
C47 O48 1.264 1_556 S
C47 O55 1.249 1_556 S
O48 C47 1.264 1_554 S
O49 Mg42 1.986 1_455 S
O49 C53 1.246 . S
O50 Mg45 2.032 . S
O50 C53 1.259 . S
O51 Mg42 2.114 . S
O51 C54 1.252 . S
O52 Mg42 2.251 1_455 S
O52 Mg45 2.079 . S
O52 C54 1.273 1_455 S
C53 O49 1.246 . S
C53 O50 1.259 . S
C54 O51 1.252 . S
C54 O52 1.273 1_655 S
O55 Mg42 2.010 . S
O55 C47 1.249 1_554 S
Mg56 O57 2.028 1_556 S
Mg56 O63 1.986 . S
Mg56 O65 2.114 . S
Mg56 O66 2.251 . S
Mg56 O69 2.010 1_556 S
O57 Mg56 2.028 1_554 S
O57 C60 1.250 . S
O58 Mg59 2.028 1_554 S
O58 C60 1.248 . S
Mg59 O58 2.028 1_556 S
Mg59 O64 2.032 . S
Mg59 O66 2.079 . S
C60 O57 1.250 . S
C60 O58 1.248 . S
C61 O62 1.264 . S
C61 O69 1.249 . S
O62 C61 1.264 . S
O63 Mg56 1.986 . S
O63 C67 1.246 . S
O64 Mg59 2.032 . S
O64 C67 1.259 . S
O65 Mg56 2.114 . S
O65 C68 1.252 . S
O66 Mg56 2.251 . S
O66 Mg59 2.079 . S
O66 C68 1.273 . S
C67 O63 1.246 . S
C67 O64 1.259 . S
C68 O65 1.252 . S
C68 O66 1.273 . S
O69 Mg56 2.010 1_554 S
O69 C61 1.249 . S
Mg70 O71 2.028 1_554 S
Mg70 O77 1.986 1_545 S
Mg70 O79 2.114 . S
Mg70 O80 2.251 1_545 S
Mg70 O83 2.010 . S
O71 Mg70 2.028 1_556 S
O71 C74 1.250 1_545 S
O72 Mg73 2.028 1_556 S
O72 C74 1.248 . S
Mg73 O72 2.028 1_554 S
Mg73 O78 2.032 . S
Mg73 O80 2.079 . S
C74 O71 1.250 1_565 S
C74 O72 1.248 . S
C75 O76 1.264 . S
C75 O83 1.249 . S
O76 C75 1.264 . S
O77 Mg70 1.986 1_565 S
O77 C81 1.246 . S
O78 Mg73 2.032 . S
O78 C81 1.259 . S
O79 Mg70 2.114 . S
O79 C82 1.252 . S
O80 Mg70 2.251 1_565 S
O80 Mg73 2.079 . S
O80 C82 1.273 1_565 S
C81 O77 1.246 . S
C81 O78 1.259 . S
C82 O79 1.252 . S
C82 O80 1.273 1_545 S
O83 Mg70 2.010 . S
O83 C75 1.249 . S
Mg84 O85 2.028 . S
Mg84 O91 1.986 . S
Mg84 O93 2.114 . S
Mg84 O94 2.251 . S
Mg84 O97 2.010 . S
O85 Mg84 2.028 . S
O85 C88 1.250 . S
O86 Mg87 2.028 . S
O86 C88 1.248 . S
Mg87 O86 2.028 . S
Mg87 O92 2.032 . S
Mg87 O94 2.079 . S
C88 O85 1.250 . S
C88 O86 1.248 . S
C89 O90 1.264 . S
C89 O97 1.249 . S
O90 C89 1.264 . S
O91 Mg84 1.986 . S
O91 C95 1.246 . S
O92 Mg87 2.032 . S
O92 C95 1.259 . S
O93 Mg84 2.114 . S
O93 C96 1.252 . S
O94 Mg84 2.251 . S
O94 Mg87 2.079 . S
O94 C96 1.273 . S
C95 O91 1.246 . S
C95 O92 1.259 . S
C96 O93 1.252 . S
C96 O94 1.273 . S
O97 Mg84 2.010 . S
O97 C89 1.249 . S
Mg98 O99 2.028 . S
Mg98 O105 1.986 1_565 S
Mg98 O107 2.114 . S
Mg98 O108 2.251 . S
Mg98 O111 2.010 . S
O99 Mg98 2.028 . S
O99 C102 1.250 . S
O100 Mg101 2.028 . S
O100 C102 1.248 . S
Mg101 O100 2.028 . S
Mg101 O106 2.032 1_565 S
Mg101 O108 2.079 . S
C102 O99 1.250 . S
C102 O100 1.248 . S
C103 O104 1.264 . S
C103 O111 1.249 . S
O104 C103 1.264 . S
O105 Mg98 1.986 1_545 S
O105 C109 1.246 . S
O106 Mg101 2.032 1_545 S
O106 C109 1.259 . S
O107 Mg98 2.114 . S
O107 C110 1.252 . S
O108 Mg98 2.251 . S
O108 Mg101 2.079 . S
O108 C110 1.273 . S
C109 O105 1.246 . S
C109 O106 1.259 . S
C110 O107 1.252 . S
C110 O108 1.273 . S
O111 Mg98 2.010 . S
O111 C103 1.249 . S
Mg112 O113 2.028 . S
Mg112 O119 1.986 . S
Mg112 O121 2.114 . S
Mg112 O122 2.251 . S
Mg112 O125 2.010 1_455 S
O113 Mg112 2.028 . S
O113 C116 1.250 . S
O114 Mg115 2.028 . S
O114 C116 1.248 . S
Mg115 O114 2.028 . S
Mg115 O120 2.032 . S
Mg115 O122 2.079 . S
C116 O113 1.250 . S
C116 O114 1.248 . S
C117 O118 1.264 . S
C117 O125 1.249 . S
O118 C117 1.264 . S
O119 Mg112 1.986 . S
O119 C123 1.246 . S
O120 Mg115 2.032 . S
O120 C123 1.259 . S
O121 Mg112 2.114 . S
O121 C124 1.252 . S
O122 Mg112 2.251 . S
O122 Mg115 2.079 . S
O122 C124 1.273 . S
C123 O119 1.246 . S
C123 O120 1.259 . S
C124 O121 1.252 . S
C124 O122 1.273 . S
O125 Mg112 2.010 1_655 S
O125 C117 1.249 . S
Mg126 O127 2.028 . S
Mg126 O133 1.986 1_565 S
Mg126 O135 2.114 . S
Mg126 O136 2.251 . S
Mg126 O139 2.010 . S
O127 Mg126 2.028 . S
O127 C130 1.250 . S
O128 Mg129 2.028 . S
O128 C130 1.248 . S
Mg129 O128 2.028 . S
Mg129 O134 2.032 1_565 S
Mg129 O136 2.079 . S
C130 O127 1.250 . S
C130 O128 1.248 . S
C131 O132 1.264 . S
C131 O139 1.249 . S
O132 C131 1.264 . S
O133 Mg126 1.986 1_545 S
O133 C137 1.246 . S
O134 Mg129 2.032 1_545 S
O134 C137 1.259 . S
O135 Mg126 2.114 . S
O135 C138 1.252 . S
O136 Mg126 2.251 . S
O136 Mg129 2.079 . S
O136 C138 1.273 . S
C137 O133 1.246 . S
C137 O134 1.259 . S
C138 O135 1.252 . S
C138 O136 1.273 . S
O139 Mg126 2.010 . S
O139 C131 1.249 . S
Mg140 O141 2.028 . S
Mg140 O147 1.986 . S
Mg140 O149 2.114 . S
Mg140 O150 2.251 . S
Mg140 O153 2.010 1_455 S
O141 Mg140 2.028 . S
O141 C144 1.250 . S
O142 Mg143 2.028 . S
O142 C144 1.248 . S
Mg143 O142 2.028 . S
Mg143 O148 2.032 . S
Mg143 O150 2.079 . S
C144 O141 1.250 . S
C144 O142 1.248 . S
C145 O146 1.264 . S
C145 O153 1.249 . S
O146 C145 1.264 . S
O147 Mg140 1.986 . S
O147 C151 1.246 . S
O148 Mg143 2.032 . S
O148 C151 1.259 . S
O149 Mg140 2.114 . S
O149 C152 1.252 . S
O150 Mg140 2.251 . S
O150 Mg143 2.079 . S
O150 C152 1.273 . S
C151 O147 1.246 . S
C151 O148 1.259 . S
C152 O149 1.252 . S
C152 O150 1.273 . S
O153 Mg140 2.010 1_655 S
O153 C145 1.249 . S
Mg154 O155 2.028 . S
Mg154 O161 1.986 . S
Mg154 O163 2.114 . S
Mg154 O164 2.251 . S
Mg154 O167 2.010 . S
O155 Mg154 2.028 . S
O155 C158 1.250 . S
O156 Mg157 2.028 . S
O156 C158 1.248 . S
Mg157 O156 2.028 . S
Mg157 O162 2.032 . S
Mg157 O164 2.079 . S
C158 O155 1.250 . S
C158 O156 1.248 . S
C159 O160 1.264 . S
C159 O167 1.249 . S
O160 C159 1.264 . S
O161 Mg154 1.986 . S
O161 C165 1.246 . S
O162 Mg157 2.032 . S
O162 C165 1.259 . S
O163 Mg154 2.114 . S
O163 C166 1.252 . S
O164 Mg154 2.251 . S
O164 Mg157 2.079 . S
O164 C166 1.273 . S
C165 O161 1.246 . S
C165 O162 1.259 . S
C166 O163 1.252 . S
C166 O164 1.273 . S
O167 Mg154 2.010 . S
O167 C159 1.249 . S
Mg168 O169 2.028 . S
Mg168 O175 1.986 1_545 S
Mg168 O177 2.114 . S
Mg168 O178 2.251 . S
Mg168 O181 2.010 . S
O169 Mg168 2.028 . S
O169 C172 1.250 . S
O170 Mg171 2.028 . S
O170 C172 1.248 . S
Mg171 O170 2.028 . S
Mg171 O176 2.032 1_545 S
Mg171 O178 2.079 . S
C172 O169 1.250 . S
C172 O170 1.248 . S
C173 O174 1.264 . S
C173 O181 1.249 . S
O174 C173 1.264 . S
O175 Mg168 1.986 1_565 S
O175 C179 1.246 . S
O176 Mg171 2.032 1_565 S
O176 C179 1.259 . S
O177 Mg168 2.114 . S
O177 C180 1.252 . S
O178 Mg168 2.251 . S
O178 Mg171 2.079 . S
O178 C180 1.273 . S
C179 O175 1.246 . S
C179 O176 1.259 . S
C180 O177 1.252 . S
C180 O178 1.273 . S
O181 Mg168 2.010 . S
O181 C173 1.249 . S
Mg182 O183 2.028 . S
Mg182 O189 1.986 . S
Mg182 O191 2.114 . S
Mg182 O192 2.251 . S
Mg182 O195 2.010 1_655 S
O183 Mg182 2.028 . S
O183 C186 1.250 . S
O184 Mg185 2.028 . S
O184 C186 1.248 . S
Mg185 O184 2.028 . S
Mg185 O190 2.032 . S
Mg185 O192 2.079 . S
C186 O183 1.250 . S
C186 O184 1.248 . S
C187 O188 1.264 . S
C187 O195 1.249 . S
O188 C187 1.264 . S
O189 Mg182 1.986 . S
O189 C193 1.246 . S
O190 Mg185 2.032 . S
O190 C193 1.259 . S
O191 Mg182 2.114 . S
O191 C194 1.252 . S
O192 Mg182 2.251 . S
O192 Mg185 2.079 . S
O192 C194 1.273 . S
C193 O189 1.246 . S
C193 O190 1.259 . S
C194 O191 1.252 . S
C194 O192 1.273 . S
O195 Mg182 2.010 1_455 S
O195 C187 1.249 . S
Mg196 O197 2.028 . S
Mg196 O203 1.986 . S
Mg196 O205 2.114 . S
Mg196 O206 2.251 . S
Mg196 O209 2.010 . S
O197 Mg196 2.028 . S
O197 C200 1.250 . S
O198 Mg199 2.028 . S
O198 C200 1.248 . S
Mg199 O198 2.028 . S
Mg199 O204 2.032 . S
Mg199 O206 2.079 . S
C200 O197 1.250 . S
C200 O198 1.248 . S
C201 O202 1.264 . S
C201 O209 1.249 . S
O202 C201 1.264 . S
O203 Mg196 1.986 . S
O203 C207 1.246 . S
O204 Mg199 2.032 . S
O204 C207 1.259 . S
O205 Mg196 2.114 . S
O205 C208 1.252 . S
O206 Mg196 2.251 . S
O206 Mg199 2.079 . S
O206 C208 1.273 . S
C207 O203 1.246 . S
C207 O204 1.259 . S
C208 O205 1.252 . S
C208 O206 1.273 . S
O209 Mg196 2.010 . S
O209 C201 1.249 . S
Mg210 O211 2.028 . S
Mg210 O217 1.986 . S
Mg210 O219 2.114 . S
Mg210 O220 2.251 . S
Mg210 O223 2.010 . S
O211 Mg210 2.028 . S
O211 C214 1.250 . S
O212 Mg213 2.028 . S
O212 C214 1.248 . S
Mg213 O212 2.028 . S
Mg213 O218 2.032 . S
Mg213 O220 2.079 . S
C214 O211 1.250 . S
C214 O212 1.248 . S
C215 O216 1.264 . S
C215 O223 1.249 . S
O216 C215 1.264 . S
O217 Mg210 1.986 . S
O217 C221 1.246 . S
O218 Mg213 2.032 . S
O218 C221 1.259 . S
O219 Mg210 2.114 . S
O219 C222 1.252 . S
O220 Mg210 2.251 . S
O220 Mg213 2.079 . S
O220 C222 1.273 . S
C221 O217 1.246 . S
C221 O218 1.259 . S
C222 O219 1.252 . S
C222 O220 1.273 . S
O223 Mg210 2.010 . S
O223 C215 1.249 . S
Mg224 O225 2.028 . S
Mg224 O231 1.986 1_545 S
Mg224 O233 2.114 . S
Mg224 O234 2.251 . S
Mg224 O237 2.010 . S
O225 Mg224 2.028 . S
O225 C228 1.250 . S
O226 Mg227 2.028 . S
O226 C228 1.248 . S
Mg227 O226 2.028 . S
Mg227 O232 2.032 1_545 S
Mg227 O234 2.079 . S
C228 O225 1.250 . S
C228 O226 1.248 . S
C229 O230 1.264 . S
C229 O237 1.249 . S
O230 C229 1.264 . S
O231 Mg224 1.986 1_565 S
O231 C235 1.246 . S
O232 Mg227 2.032 1_565 S
O232 C235 1.259 . S
O233 Mg224 2.114 . S
O233 C236 1.252 . S
O234 Mg224 2.251 . S
O234 Mg227 2.079 . S
O234 C236 1.273 . S
C235 O231 1.246 . S
C235 O232 1.259 . S
C236 O233 1.252 . S
C236 O234 1.273 . S
O237 Mg224 2.010 . S
O237 C229 1.249 . S
Mg238 O239 2.028 . S
Mg238 O245 1.986 . S
Mg238 O247 2.114 . S
Mg238 O248 2.251 . S
Mg238 O251 2.010 1_655 S
O239 Mg238 2.028 . S
O239 C242 1.250 . S
O240 Mg241 2.028 . S
O240 C242 1.248 . S
Mg241 O240 2.028 . S
Mg241 O246 2.032 . S
Mg241 O248 2.079 . S
C242 O239 1.250 . S
C242 O240 1.248 . S
C243 O244 1.264 . S
C243 O251 1.249 . S
O244 C243 1.264 . S
O245 Mg238 1.986 . S
O245 C249 1.246 . S
O246 Mg241 2.032 . S
O246 C249 1.259 . S
O247 Mg238 2.114 . S
O247 C250 1.252 . S
O248 Mg238 2.251 . S
O248 Mg241 2.079 . S
O248 C250 1.273 . S
C249 O245 1.246 . S
C249 O246 1.259 . S
C250 O247 1.252 . S
C250 O248 1.273 . S
O251 Mg238 2.010 1_455 S
O251 C243 1.249 . S
C252 C253 1.384 . S
C252 C254 1.384 . S
C252 H280 0.931 . S
C253 C252 1.384 . S
C253 C256 1.382 . S
C254 C252 1.384 . S
C254 C255 1.381 . S
C254 H281 0.930 . S
C255 C254 1.381 . S
C255 C257 1.381 . S
C255 C258 1.487 . S
C256 C253 1.382 . S
C256 C257 1.387 . S
C256 H282 0.930 . S
C257 C255 1.381 . S
C257 C256 1.387 . S
C257 H283 0.931 . S
C258 C255 1.487 . S
C258 C265 1.399 . S
C258 N296 1.343 . S
C259 C260 1.384 . S
C259 C261 1.384 . S
C259 H284 0.931 . S
C260 C259 1.384 . S
C260 C263 1.382 . S
C261 C259 1.384 . S
C261 C262 1.381 . S
C261 H285 0.930 . S
C262 C261 1.381 . S
C262 C264 1.381 . S
C262 C265 1.487 . S
C263 C260 1.382 . S
C263 C264 1.387 . S
C263 H286 0.930 . S
C264 C262 1.381 . S
C264 C263 1.387 . S
C264 H287 0.931 . S
C265 C258 1.399 . S
C265 C262 1.487 . S
C265 N297 1.343 . S
C266 C267 1.384 . S
C266 C268 1.384 . S
C266 H288 0.931 . S
C267 C266 1.384 . S
C267 C270 1.382 . S
C268 C266 1.384 . S
C268 C269 1.381 . S
C268 H289 0.930 . S
C269 C268 1.381 . S
C269 C271 1.381 . S
C269 C272 1.487 . S
C270 C267 1.382 . S
C270 C271 1.387 . S
C270 H290 0.930 . S
C271 C269 1.381 . S
C271 C270 1.387 . S
C271 H291 0.931 . S
C272 C269 1.487 . S
C272 C279 1.399 . S
C272 N297 1.343 . S
C273 C274 1.384 . S
C273 C275 1.384 . S
C273 H292 0.931 . S
C274 C273 1.384 . S
C274 C277 1.382 . S
C275 C273 1.384 . S
C275 C276 1.381 . S
C275 H293 0.930 . S
C276 C275 1.381 . S
C276 C278 1.381 . S
C276 C279 1.487 . S
C277 C274 1.382 . S
C277 C278 1.387 . S
C277 H294 0.930 . S
C278 C276 1.381 . S
C278 C277 1.387 . S
C278 H295 0.931 . S
C279 C272 1.399 . S
C279 C276 1.487 . S
C279 N296 1.343 . S
H280 C252 0.931 . S
H281 C254 0.930 . S
H282 C256 0.930 . S
H283 C257 0.931 . S
H284 C259 0.931 . S
H285 C261 0.930 . S
H286 C263 0.930 . S
H287 C264 0.931 . S
H288 C266 0.931 . S
H289 C268 0.930 . S
H290 C270 0.930 . S
H291 C271 0.931 . S
H292 C273 0.931 . S
H293 C275 0.930 . S
H294 C277 0.930 . S
H295 C278 0.931 . S
N296 C258 1.343 . S
N296 C279 1.343 . S
N297 C265 1.343 . S
N297 C272 1.343 . S
C298 C299 1.384 . S
C298 C300 1.384 . S
C298 H326 0.931 . S
C299 C298 1.384 . S
C299 C302 1.382 . S
C300 C298 1.384 . S
C300 C301 1.381 . S
C300 H327 0.930 . S
C301 C300 1.381 . S
C301 C303 1.381 . S
C301 C304 1.487 . S
C302 C299 1.382 . S
C302 C303 1.387 . S
C302 H328 0.930 . S
C303 C301 1.381 . S
C303 C302 1.387 . S
C303 H329 0.931 . S
C304 C301 1.487 . S
C304 C311 1.399 . S
C304 N342 1.343 . S
C305 C306 1.384 . S
C305 C307 1.384 . S
C305 H330 0.931 . S
C306 C305 1.384 . S
C306 C309 1.382 . S
C307 C305 1.384 . S
C307 C308 1.381 . S
C307 H331 0.930 . S
C308 C307 1.381 . S
C308 C310 1.381 . S
C308 C311 1.487 . S
C309 C306 1.382 . S
C309 C310 1.387 . S
C309 H332 0.930 . S
C310 C308 1.381 . S
C310 C309 1.387 . S
C310 H333 0.931 . S
C311 C304 1.399 . S
C311 C308 1.487 . S
C311 N343 1.343 . S
C312 C313 1.384 . S
C312 C314 1.384 . S
C312 H334 0.931 . S
C313 C312 1.384 . S
C313 C316 1.382 . S
C314 C312 1.384 . S
C314 C315 1.381 . S
C314 H335 0.930 . S
C315 C314 1.381 . S
C315 C317 1.381 . S
C315 C318 1.487 . S
C316 C313 1.382 . S
C316 C317 1.387 . S
C316 H336 0.930 . S
C317 C315 1.381 . S
C317 C316 1.387 . S
C317 H337 0.931 . S
C318 C315 1.487 . S
C318 C325 1.399 . S
C318 N343 1.343 . S
C319 C320 1.384 . S
C319 C321 1.384 . S
C319 H338 0.931 . S
C320 C319 1.384 . S
C320 C323 1.382 . S
C321 C319 1.384 . S
C321 C322 1.381 . S
C321 H339 0.930 . S
C322 C321 1.381 . S
C322 C324 1.381 . S
C322 C325 1.487 . S
C323 C320 1.382 . S
C323 C324 1.387 . S
C323 H340 0.930 . S
C324 C322 1.381 . S
C324 C323 1.387 . S
C324 H341 0.931 . S
C325 C318 1.399 . S
C325 C322 1.487 . S
C325 N342 1.343 . S
H326 C298 0.931 . S
H327 C300 0.930 . S
H328 C302 0.930 . S
H329 C303 0.931 . S
H330 C305 0.931 . S
H331 C307 0.930 . S
H332 C309 0.930 . S
H333 C310 0.931 . S
H334 C312 0.931 . S
H335 C314 0.930 . S
H336 C316 0.930 . S
H337 C317 0.931 . S
H338 C319 0.931 . S
H339 C321 0.930 . S
H340 C323 0.930 . S
H341 C324 0.931 . S
N342 C304 1.343 . S
N342 C325 1.343 . S
N343 C311 1.343 . S
N343 C318 1.343 . S
C344 C345 1.384 . S
C344 C346 1.384 . S
C344 H372 0.931 . S
C345 C344 1.384 . S
C345 C348 1.382 . S
C346 C344 1.384 . S
C346 C347 1.381 . S
C346 H373 0.930 . S
C347 C346 1.381 . S
C347 C349 1.381 . S
C347 C350 1.487 . S
C348 C345 1.382 . S
C348 C349 1.387 . S
C348 H374 0.930 . S
C349 C347 1.381 . S
C349 C348 1.387 . S
C349 H375 0.931 . S
C350 C347 1.487 . S
C350 C357 1.399 . S
C350 N388 1.343 . S
C351 C352 1.384 . S
C351 C353 1.384 . S
C351 H376 0.931 . S
C352 C351 1.384 . S
C352 C355 1.382 . S
C353 C351 1.384 . S
C353 C354 1.381 . S
C353 H377 0.930 . S
C354 C353 1.381 . S
C354 C356 1.381 . S
C354 C357 1.487 . S
C355 C352 1.382 . S
C355 C356 1.387 . S
C355 H378 0.930 . S
C356 C354 1.381 . S
C356 C355 1.387 . S
C356 H379 0.931 . S
C357 C350 1.399 . S
C357 C354 1.487 . S
C357 N389 1.343 . S
C358 C359 1.384 . S
C358 C360 1.384 . S
C358 H380 0.931 . S
C359 C358 1.384 . S
C359 C362 1.382 . S
C360 C358 1.384 . S
C360 C361 1.381 . S
C360 H381 0.930 . S
C361 C360 1.381 . S
C361 C363 1.381 . S
C361 C364 1.487 . S
C362 C359 1.382 . S
C362 C363 1.387 . S
C362 H382 0.930 . S
C363 C361 1.381 . S
C363 C362 1.387 . S
C363 H383 0.931 . S
C364 C361 1.487 . S
C364 C371 1.399 . S
C364 N389 1.343 . S
C365 C366 1.384 . S
C365 C367 1.384 . S
C365 H384 0.931 . S
C366 C365 1.384 . S
C366 C369 1.382 . S
C367 C365 1.384 . S
C367 C368 1.381 . S
C367 H385 0.930 . S
C368 C367 1.381 . S
C368 C370 1.381 . S
C368 C371 1.487 . S
C369 C366 1.382 . S
C369 C370 1.387 . S
C369 H386 0.930 . S
C370 C368 1.381 . S
C370 C369 1.387 . S
C370 H387 0.931 . S
C371 C364 1.399 . S
C371 C368 1.487 . S
C371 N388 1.343 . S
H372 C344 0.931 . S
H373 C346 0.930 . S
H374 C348 0.930 . S
H375 C349 0.931 . S
H376 C351 0.931 . S
H377 C353 0.930 . S
H378 C355 0.930 . S
H379 C356 0.931 . S
H380 C358 0.931 . S
H381 C360 0.930 . S
H382 C362 0.930 . S
H383 C363 0.931 . S
H384 C365 0.931 . S
H385 C367 0.930 . S
H386 C369 0.930 . S
H387 C370 0.931 . S
N388 C350 1.343 . S
N388 C371 1.343 . S
N389 C357 1.343 . S
N389 C364 1.343 . S
C390 C391 1.384 . S
C390 C392 1.384 . S
C390 H418 0.931 . S
C391 C390 1.384 . S
C391 C394 1.382 . S
C392 C390 1.384 . S
C392 C393 1.381 . S
C392 H419 0.930 . S
C393 C392 1.381 . S
C393 C395 1.381 . S
C393 C396 1.487 . S
C394 C391 1.382 . S
C394 C395 1.387 . S
C394 H420 0.930 . S
C395 C393 1.381 . S
C395 C394 1.387 . S
C395 H421 0.931 . S
C396 C393 1.487 . S
C396 C403 1.399 . S
C396 N434 1.343 . S
C397 C398 1.384 . S
C397 C399 1.384 . S
C397 H422 0.931 . S
C398 C397 1.384 . S
C398 C401 1.382 . S
C399 C397 1.384 . S
C399 C400 1.381 . S
C399 H423 0.930 . S
C400 C399 1.381 . S
C400 C402 1.381 . S
C400 C403 1.487 . S
C401 C398 1.382 . S
C401 C402 1.387 . S
C401 H424 0.930 . S
C402 C400 1.381 . S
C402 C401 1.387 . S
C402 H425 0.931 . S
C403 C396 1.399 . S
C403 C400 1.487 . S
C403 N435 1.343 . S
C404 C405 1.384 . S
C404 C406 1.384 . S
C404 H426 0.931 . S
C405 C404 1.384 . S
C405 C408 1.382 . S
C406 C404 1.384 . S
C406 C407 1.381 . S
C406 H427 0.930 . S
C407 C406 1.381 . S
C407 C409 1.381 . S
C407 C410 1.487 . S
C408 C405 1.382 . S
C408 C409 1.387 . S
C408 H428 0.930 . S
C409 C407 1.381 . S
C409 C408 1.387 . S
C409 H429 0.931 . S
C410 C407 1.487 . S
C410 C417 1.399 . S
C410 N435 1.343 . S
C411 C412 1.384 . S
C411 C413 1.384 . S
C411 H430 0.931 . S
C412 C411 1.384 . S
C412 C415 1.382 . S
C413 C411 1.384 . S
C413 C414 1.381 . S
C413 H431 0.930 . S
C414 C413 1.381 . S
C414 C416 1.381 . S
C414 C417 1.487 . S
C415 C412 1.382 . S
C415 C416 1.387 . S
C415 H432 0.930 . S
C416 C414 1.381 . S
C416 C415 1.387 . S
C416 H433 0.931 . S
C417 C410 1.399 . S
C417 C414 1.487 . S
C417 N434 1.343 . S
H418 C390 0.931 . S
H419 C392 0.930 . S
H420 C394 0.930 . S
H421 C395 0.931 . S
H422 C397 0.931 . S
H423 C399 0.930 . S
H424 C401 0.930 . S
H425 C402 0.931 . S
H426 C404 0.931 . S
H427 C406 0.930 . S
H428 C408 0.930 . S
H429 C409 0.931 . S
H430 C411 0.931 . S
H431 C413 0.930 . S
H432 C415 0.930 . S
H433 C416 0.931 . S
N434 C396 1.343 . S
N434 C417 1.343 . S
N435 C403 1.343 . S
N435 C410 1.343 . S
C436 C437 1.384 . S
C436 C438 1.384 . S
C436 H464 0.931 . S
C437 C436 1.384 . S
C437 C440 1.382 . S
C438 C436 1.384 . S
C438 C439 1.381 . S
C438 H465 0.930 . S
C439 C438 1.381 . S
C439 C441 1.381 . S
C439 C442 1.487 . S
C440 C437 1.382 . S
C440 C441 1.387 . S
C440 H466 0.930 . S
C441 C439 1.381 . S
C441 C440 1.387 . S
C441 H467 0.931 . S
C442 C439 1.487 . S
C442 C449 1.399 . S
C442 N480 1.343 . S
C443 C444 1.384 . S
C443 C445 1.384 . S
C443 H468 0.931 . S
C444 C443 1.384 . S
C444 C447 1.382 . S
C445 C443 1.384 . S
C445 C446 1.381 . S
C445 H469 0.930 . S
C446 C445 1.381 . S
C446 C448 1.381 . S
C446 C449 1.487 . S
C447 C444 1.382 . S
C447 C448 1.387 . S
C447 H470 0.930 . S
C448 C446 1.381 . S
C448 C447 1.387 . S
C448 H471 0.931 . S
C449 C442 1.399 . S
C449 C446 1.487 . S
C449 N481 1.343 . S
C450 C451 1.384 . S
C450 C452 1.384 . S
C450 H472 0.931 . S
C451 C450 1.384 . S
C451 C454 1.382 . S
C452 C450 1.384 . S
C452 C453 1.381 . S
C452 H473 0.930 . S
C453 C452 1.381 . S
C453 C455 1.381 . S
C453 C456 1.487 . S
C454 C451 1.382 . S
C454 C455 1.387 . S
C454 H474 0.930 . S
C455 C453 1.381 . S
C455 C454 1.387 . S
C455 H475 0.931 . S
C456 C453 1.487 . S
C456 C463 1.399 . S
C456 N481 1.343 . S
C457 C458 1.384 . S
C457 C459 1.384 . S
C457 H476 0.931 . S
C458 C457 1.384 . S
C458 C461 1.382 . S
C459 C457 1.384 . S
C459 C460 1.381 . S
C459 H477 0.930 . S
C460 C459 1.381 . S
C460 C462 1.381 . S
C460 C463 1.487 . S
C461 C458 1.382 . S
C461 C462 1.387 . S
C461 H478 0.930 . S
C462 C460 1.381 . S
C462 C461 1.387 . S
C462 H479 0.931 . S
C463 C456 1.399 . S
C463 C460 1.487 . S
C463 N480 1.343 . S
H464 C436 0.931 . S
H465 C438 0.930 . S
H466 C440 0.930 . S
H467 C441 0.931 . S
H468 C443 0.931 . S
H469 C445 0.930 . S
H470 C447 0.930 . S
H471 C448 0.931 . S
H472 C450 0.931 . S
H473 C452 0.930 . S
H474 C454 0.930 . S
H475 C455 0.931 . S
H476 C457 0.931 . S
H477 C459 0.930 . S
H478 C461 0.930 . S
H479 C462 0.931 . S
N480 C442 1.343 . S
N480 C463 1.343 . S
N481 C449 1.343 . S
N481 C456 1.343 . S
C482 C483 1.384 . S
C482 C484 1.384 . S
C482 H510 0.931 . S
C483 C482 1.384 . S
C483 C486 1.382 . S
C484 C482 1.384 . S
C484 C485 1.381 . S
C484 H511 0.930 . S
C485 C484 1.381 . S
C485 C487 1.381 . S
C485 C488 1.487 . S
C486 C483 1.382 . S
C486 C487 1.387 . S
C486 H512 0.930 . S
C487 C485 1.381 . S
C487 C486 1.387 . S
C487 H513 0.931 . S
C488 C485 1.487 . S
C488 C495 1.399 . S
C488 N526 1.343 . S
C489 C490 1.384 . S
C489 C491 1.384 . S
C489 H514 0.931 . S
C490 C489 1.384 . S
C490 C493 1.382 . S
C491 C489 1.384 . S
C491 C492 1.381 . S
C491 H515 0.930 . S
C492 C491 1.381 . S
C492 C494 1.381 . S
C492 C495 1.487 . S
C493 C490 1.382 . S
C493 C494 1.387 . S
C493 H516 0.930 . S
C494 C492 1.381 . S
C494 C493 1.387 . S
C494 H517 0.931 . S
C495 C488 1.399 . S
C495 C492 1.487 . S
C495 N527 1.343 . S
C496 C497 1.384 . S
C496 C498 1.384 . S
C496 H518 0.931 . S
C497 C496 1.384 . S
C497 C500 1.382 . S
C498 C496 1.384 . S
C498 C499 1.381 . S
C498 H519 0.930 . S
C499 C498 1.381 . S
C499 C501 1.381 . S
C499 C502 1.487 . S
C500 C497 1.382 . S
C500 C501 1.387 . S
C500 H520 0.930 . S
C501 C499 1.381 . S
C501 C500 1.387 . S
C501 H521 0.931 . S
C502 C499 1.487 . S
C502 C509 1.399 . S
C502 N527 1.343 . S
C503 C504 1.384 . S
C503 C505 1.384 . S
C503 H522 0.931 . S
C504 C503 1.384 . S
C504 C507 1.382 . S
C505 C503 1.384 . S
C505 C506 1.381 . S
C505 H523 0.930 . S
C506 C505 1.381 . S
C506 C508 1.381 . S
C506 C509 1.487 . S
C507 C504 1.382 . S
C507 C508 1.387 . S
C507 H524 0.930 . S
C508 C506 1.381 . S
C508 C507 1.387 . S
C508 H525 0.931 . S
C509 C502 1.399 . S
C509 C506 1.487 . S
C509 N526 1.343 . S
H510 C482 0.931 . S
H511 C484 0.930 . S
H512 C486 0.930 . S
H513 C487 0.931 . S
H514 C489 0.931 . S
H515 C491 0.930 . S
H516 C493 0.930 . S
H517 C494 0.931 . S
H518 C496 0.931 . S
H519 C498 0.930 . S
H520 C500 0.930 . S
H521 C501 0.931 . S
H522 C503 0.931 . S
H523 C505 0.930 . S
H524 C507 0.930 . S
H525 C508 0.931 . S
N526 C488 1.343 . S
N526 C509 1.343 . S
N527 C495 1.343 . S
N527 C502 1.343 . S
C528 C529 1.384 . S
C528 C530 1.384 . S
C528 H556 0.931 . S
C529 C528 1.384 . S
C529 C532 1.382 . S
C530 C528 1.384 . S
C530 C531 1.381 . S
C530 H557 0.930 . S
C531 C530 1.381 . S
C531 C533 1.381 . S
C531 C534 1.487 . S
C532 C529 1.382 . S
C532 C533 1.387 . S
C532 H558 0.930 . S
C533 C531 1.381 . S
C533 C532 1.387 . S
C533 H559 0.931 . S
C534 C531 1.487 . S
C534 C541 1.399 . S
C534 N572 1.343 . S
C535 C536 1.384 . S
C535 C537 1.384 . S
C535 H560 0.931 . S
C536 C535 1.384 . S
C536 C539 1.382 . S
C537 C535 1.384 . S
C537 C538 1.381 . S
C537 H561 0.930 . S
C538 C537 1.381 . S
C538 C540 1.381 . S
C538 C541 1.487 . S
C539 C536 1.382 . S
C539 C540 1.387 . S
C539 H562 0.930 . S
C540 C538 1.381 . S
C540 C539 1.387 . S
C540 H563 0.931 . S
C541 C534 1.399 . S
C541 C538 1.487 . S
C541 N573 1.343 . S
C542 C543 1.384 . S
C542 C544 1.384 . S
C542 H564 0.931 . S
C543 C542 1.384 . S
C543 C546 1.382 . S
C544 C542 1.384 . S
C544 C545 1.381 . S
C544 H565 0.930 . S
C545 C544 1.381 . S
C545 C547 1.381 . S
C545 C548 1.487 . S
C546 C543 1.382 . S
C546 C547 1.387 . S
C546 H566 0.930 . S
C547 C545 1.381 . S
C547 C546 1.387 . S
C547 H567 0.931 . S
C548 C545 1.487 . S
C548 C555 1.399 . S
C548 N573 1.343 . S
C549 C550 1.384 . S
C549 C551 1.384 . S
C549 H568 0.931 . S
C550 C549 1.384 . S
C550 C553 1.382 . S
C551 C549 1.384 . S
C551 C552 1.381 . S
C551 H569 0.930 . S
C552 C551 1.381 . S
C552 C554 1.381 . S
C552 C555 1.487 . S
C553 C550 1.382 . S
C553 C554 1.387 . S
C553 H570 0.930 . S
C554 C552 1.381 . S
C554 C553 1.387 . S
C554 H571 0.931 . S
C555 C548 1.399 . S
C555 C552 1.487 . S
C555 N572 1.343 . S
H556 C528 0.931 . S
H557 C530 0.930 . S
H558 C532 0.930 . S
H559 C533 0.931 . S
H560 C535 0.931 . S
H561 C537 0.930 . S
H562 C539 0.930 . S
H563 C540 0.931 . S
H564 C542 0.931 . S
H565 C544 0.930 . S
H566 C546 0.930 . S
H567 C547 0.931 . S
H568 C549 0.931 . S
H569 C551 0.930 . S
H570 C553 0.930 . S
H571 C554 0.931 . S
N572 C534 1.343 . S
N572 C555 1.343 . S
N573 C541 1.343 . S
N573 C548 1.343 . S
C574 C575 1.384 . S
C574 C576 1.384 . S
C574 H602 0.931 . S
C575 C574 1.384 . S
C575 C578 1.382 . S
C576 C574 1.384 . S
C576 C577 1.381 . S
C576 H603 0.930 . S
C577 C576 1.381 . S
C577 C579 1.381 . S
C577 C580 1.487 . S
C578 C575 1.382 . S
C578 C579 1.387 . S
C578 H604 0.930 . S
C579 C577 1.381 . S
C579 C578 1.387 . S
C579 H605 0.931 . S
C580 C577 1.487 . S
C580 C587 1.399 . S
C580 N618 1.343 . S
C581 C582 1.384 . S
C581 C583 1.384 . S
C581 H606 0.931 . S
C582 C581 1.384 . S
C582 C585 1.382 . S
C583 C581 1.384 . S
C583 C584 1.381 . S
C583 H607 0.930 . S
C584 C583 1.381 . S
C584 C586 1.381 . S
C584 C587 1.487 . S
C585 C582 1.382 . S
C585 C586 1.387 . S
C585 H608 0.930 . S
C586 C584 1.381 . S
C586 C585 1.387 . S
C586 H609 0.931 . S
C587 C580 1.399 . S
C587 C584 1.487 . S
C587 N619 1.343 . S
C588 C589 1.384 . S
C588 C590 1.384 . S
C588 H610 0.931 . S
C589 C588 1.384 . S
C589 C592 1.382 . S
C590 C588 1.384 . S
C590 C591 1.381 . S
C590 H611 0.930 . S
C591 C590 1.381 . S
C591 C593 1.381 . S
C591 C594 1.487 . S
C592 C589 1.382 . S
C592 C593 1.387 . S
C592 H612 0.930 . S
C593 C591 1.381 . S
C593 C592 1.387 . S
C593 H613 0.931 . S
C594 C591 1.487 . S
C594 C601 1.399 . S
C594 N619 1.343 . S
C595 C596 1.384 . S
C595 C597 1.384 . S
C595 H614 0.931 . S
C596 C595 1.384 . S
C596 C599 1.382 . S
C597 C595 1.384 . S
C597 C598 1.381 . S
C597 H615 0.930 . S
C598 C597 1.381 . S
C598 C600 1.381 . S
C598 C601 1.487 . S
C599 C596 1.382 . S
C599 C600 1.387 . S
C599 H616 0.930 . S
C600 C598 1.381 . S
C600 C599 1.387 . S
C600 H617 0.931 . S
C601 C594 1.399 . S
C601 C598 1.487 . S
C601 N618 1.343 . S
H602 C574 0.931 . S
H603 C576 0.930 . S
H604 C578 0.930 . S
H605 C579 0.931 . S
H606 C581 0.931 . S
H607 C583 0.930 . S
H608 C585 0.930 . S
H609 C586 0.931 . S
H610 C588 0.931 . S
H611 C590 0.930 . S
H612 C592 0.930 . S
H613 C593 0.931 . S
H614 C595 0.931 . S
H615 C597 0.930 . S
H616 C599 0.930 . S
H617 C600 0.931 . S
N618 C580 1.343 . S
N618 C601 1.343 . S
N619 C587 1.343 . S
N619 C594 1.343 . S
C620 C621 1.384 . S
C620 C622 1.384 . S
C620 H648 0.931 . S
C621 C620 1.384 . S
C621 C624 1.382 . S
C622 C620 1.384 . S
C622 C623 1.381 . S
C622 H649 0.930 . S
C623 C622 1.381 . S
C623 C625 1.381 . S
C623 C626 1.487 . S
C624 C621 1.382 . S
C624 C625 1.387 . S
C624 H650 0.930 . S
C625 C623 1.381 . S
C625 C624 1.387 . S
C625 H651 0.931 . S
C626 C623 1.487 . S
C626 C633 1.399 . S
C626 N664 1.343 . S
C627 C628 1.384 . S
C627 C629 1.384 . S
C627 H652 0.931 . S
C628 C627 1.384 . S
C628 C631 1.382 . S
C629 C627 1.384 . S
C629 C630 1.381 . S
C629 H653 0.930 . S
C630 C629 1.381 . S
C630 C632 1.381 . S
C630 C633 1.487 . S
C631 C628 1.382 . S
C631 C632 1.387 . S
C631 H654 0.930 . S
C632 C630 1.381 . S
C632 C631 1.387 . S
C632 H655 0.931 . S
C633 C626 1.399 . S
C633 C630 1.487 . S
C633 N665 1.343 . S
C634 C635 1.384 . S
C634 C636 1.384 . S
C634 H656 0.931 . S
C635 C634 1.384 . S
C635 C638 1.382 . S
C636 C634 1.384 . S
C636 C637 1.381 . S
C636 H657 0.930 . S
C637 C636 1.381 . S
C637 C639 1.381 . S
C637 C640 1.487 . S
C638 C635 1.382 . S
C638 C639 1.387 . S
C638 H658 0.930 . S
C639 C637 1.381 . S
C639 C638 1.387 . S
C639 H659 0.931 . S
C640 C637 1.487 . S
C640 C647 1.399 . S
C640 N665 1.343 . S
C641 C642 1.384 . S
C641 C643 1.384 . S
C641 H660 0.931 . S
C642 C641 1.384 . S
C642 C645 1.382 . S
C643 C641 1.384 . S
C643 C644 1.381 . S
C643 H661 0.930 . S
C644 C643 1.381 . S
C644 C646 1.381 . S
C644 C647 1.487 . S
C645 C642 1.382 . S
C645 C646 1.387 . S
C645 H662 0.930 . S
C646 C644 1.381 . S
C646 C645 1.387 . S
C646 H663 0.931 . S
C647 C640 1.399 . S
C647 C644 1.487 . S
C647 N664 1.343 . S
H648 C620 0.931 . S
H649 C622 0.930 . S
H650 C624 0.930 . S
H651 C625 0.931 . S
H652 C627 0.931 . S
H653 C629 0.930 . S
H654 C631 0.930 . S
H655 C632 0.931 . S
H656 C634 0.931 . S
H657 C636 0.930 . S
H658 C638 0.930 . S
H659 C639 0.931 . S
H660 C641 0.931 . S
H661 C643 0.930 . S
H662 C645 0.930 . S
H663 C646 0.931 . S
N664 C626 1.343 . S
N664 C647 1.343 . S
N665 C633 1.343 . S
N665 C640 1.343 . S
C666 C667 1.384 . S
C666 C668 1.384 . S
C666 H694 0.931 . S
C667 C666 1.384 . S
C667 C670 1.382 1_655 S
C668 C666 1.384 . S
C668 C669 1.398 . S
C668 H695 0.930 . S
C669 C668 1.398 . S
C669 C671 1.372 1_655 S
C669 C672 1.474 1_655 S
C670 C667 1.382 1_455 S
C670 C671 1.387 . S
C670 H696 0.930 . S
C671 C669 1.372 1_455 S
C671 C670 1.387 . S
C671 H697 0.931 . S
C672 C669 1.474 1_455 S
C672 C679 1.398 1_455 S
C672 N710 1.349 . S
C673 C674 1.384 . S
C673 C675 1.384 . S
C673 H698 0.931 . S
C674 C673 1.384 . S
C674 C677 1.382 1_455 S
C675 C673 1.384 . S
C675 C676 1.381 . S
C675 H699 0.930 . S
C676 C675 1.381 . S
C676 C678 1.383 1_455 S
C676 C679 1.492 1_455 S
C677 C674 1.382 1_655 S
C677 C678 1.387 . S
C677 H700 0.930 . S
C678 C676 1.383 1_655 S
C678 C677 1.387 . S
C678 H701 0.931 . S
C679 C672 1.398 1_655 S
C679 C676 1.492 1_655 S
C679 N711 1.337 . S
C680 C681 1.384 . S
C680 C682 1.384 . S
C680 H702 0.931 . S
C681 C680 1.384 . S
C681 C684 1.382 1_455 S
C682 C680 1.384 . S
C682 C683 1.411 . S
C682 H703 0.930 . S
C683 C682 1.411 . S
C683 C685 1.365 1_455 S
C683 C686 1.474 1_455 S
C684 C681 1.382 1_655 S
C684 C685 1.387 . S
C684 H704 0.930 . S
C685 C683 1.365 1_655 S
C685 C684 1.387 . S
C685 H705 0.931 . S
C686 C683 1.474 1_655 S
C686 C693 1.398 1_655 S
C686 N711 1.342 . S
C687 C688 1.384 . S
C687 C689 1.384 . S
C687 H706 0.931 . S
C688 C687 1.384 . S
C688 C691 1.382 1_655 S
C689 C687 1.384 . S
C689 C690 1.381 1_655 S
C689 H707 0.930 . S
C690 C689 1.381 1_455 S
C690 C692 1.383 . S
C690 C693 1.498 . S
C691 C688 1.382 1_455 S
C691 C692 1.387 . S
C691 H708 0.930 . S
C692 C690 1.383 . S
C692 C691 1.387 . S
C692 H709 0.931 . S
C693 C686 1.398 1_455 S
C693 C690 1.498 . S
C693 N710 1.332 . S
H694 C666 0.931 . S
H695 C668 0.930 . S
H696 C670 0.930 . S
H697 C671 0.931 . S
H698 C673 0.931 . S
H699 C675 0.930 . S
H700 C677 0.930 . S
H701 C678 0.931 . S
H702 C680 0.931 . S
H703 C682 0.930 . S
H704 C684 0.930 . S
H705 C685 0.931 . S
H706 C687 0.931 . S
H707 C689 0.930 . S
H708 C691 0.930 . S
H709 C692 0.931 . S
N710 C672 1.349 . S
N710 C693 1.332 . S
N711 C679 1.337 . S
N711 C686 1.342 . S
C712 C713 1.384 . S
C712 C714 1.384 . S
C712 H740 0.931 . S
C713 C712 1.384 . S
C713 C716 1.382 . S
C714 C712 1.384 . S
C714 C715 1.381 . S
C714 H741 0.930 . S
C715 C714 1.381 . S
C715 C717 1.381 . S
C715 C718 1.487 . S
C716 C713 1.382 . S
C716 C717 1.387 . S
C716 H742 0.930 . S
C717 C715 1.381 . S
C717 C716 1.387 . S
C717 H743 0.931 . S
C718 C715 1.487 . S
C718 C725 1.399 . S
C718 N756 1.343 . S
C719 C720 1.384 . S
C719 C721 1.384 . S
C719 H744 0.931 . S
C720 C719 1.384 . S
C720 C723 1.382 . S
C721 C719 1.384 . S
C721 C722 1.381 . S
C721 H745 0.930 . S
C722 C721 1.381 . S
C722 C724 1.381 . S
C722 C725 1.487 . S
C723 C720 1.382 . S
C723 C724 1.387 . S
C723 H746 0.930 . S
C724 C722 1.381 . S
C724 C723 1.387 . S
C724 H747 0.931 . S
C725 C718 1.399 . S
C725 C722 1.487 . S
C725 N757 1.343 . S
C726 C727 1.384 . S
C726 C728 1.384 . S
C726 H748 0.931 . S
C727 C726 1.384 . S
C727 C730 1.382 . S
C728 C726 1.384 . S
C728 C729 1.381 . S
C728 H749 0.930 . S
C729 C728 1.381 . S
C729 C731 1.381 . S
C729 C732 1.487 . S
C730 C727 1.382 . S
C730 C731 1.387 . S
C730 H750 0.930 . S
C731 C729 1.381 . S
C731 C730 1.387 . S
C731 H751 0.931 . S
C732 C729 1.487 . S
C732 C739 1.399 . S
C732 N757 1.343 . S
C733 C734 1.384 . S
C733 C735 1.384 . S
C733 H752 0.931 . S
C734 C733 1.384 . S
C734 C737 1.382 . S
C735 C733 1.384 . S
C735 C736 1.381 . S
C735 H753 0.930 . S
C736 C735 1.381 . S
C736 C738 1.381 . S
C736 C739 1.487 . S
C737 C734 1.382 . S
C737 C738 1.387 . S
C737 H754 0.930 . S
C738 C736 1.381 . S
C738 C737 1.387 . S
C738 H755 0.931 . S
C739 C732 1.399 . S
C739 C736 1.487 . S
C739 N756 1.343 . S
H740 C712 0.931 . S
H741 C714 0.930 . S
H742 C716 0.930 . S
H743 C717 0.931 . S
H744 C719 0.931 . S
H745 C721 0.930 . S
H746 C723 0.930 . S
H747 C724 0.931 . S
H748 C726 0.931 . S
H749 C728 0.930 . S
H750 C730 0.930 . S
H751 C731 0.931 . S
H752 C733 0.931 . S
H753 C735 0.930 . S
H754 C737 0.930 . S
H755 C738 0.931 . S
N756 C718 1.343 . S
N756 C739 1.343 . S
N757 C725 1.343 . S
N757 C732 1.343 . S
C758 C759 1.384 1_545 S
C758 C760 1.384 . S
C758 H786 0.931 . S
C759 C758 1.384 1_565 S
C759 C762 1.382 . S
C760 C758 1.384 . S
C760 C761 1.381 1_545 S
C760 H787 0.930 . S
C761 C760 1.381 1_565 S
C761 C763 1.381 . S
C761 C764 1.487 . S
C762 C759 1.382 . S
C762 C763 1.387 . S
C762 H788 0.930 . S
C763 C761 1.381 . S
C763 C762 1.387 . S
C763 H789 0.931 . S
C764 C761 1.487 . S
C764 C771 1.399 1_565 S
C764 N802 1.343 . S
C765 C766 1.384 1_565 S
C765 C767 1.384 . S
C765 H790 0.931 . S
C766 C765 1.384 1_545 S
C766 C769 1.382 . S
C767 C765 1.384 . S
C767 C768 1.381 1_565 S
C767 H791 0.930 . S
C768 C767 1.381 1_545 S
C768 C770 1.381 . S
C768 C771 1.487 . S
C769 C766 1.382 . S
C769 C770 1.387 . S
C769 H792 0.930 . S
C770 C768 1.381 . S
C770 C769 1.387 . S
C770 H793 0.931 . S
C771 C764 1.399 1_545 S
C771 C768 1.487 . S
C771 N803 1.343 . S
C772 C773 1.384 1_565 S
C772 C774 1.384 . S
C772 H794 0.931 . S
C773 C772 1.384 1_545 S
C773 C776 1.382 . S
C774 C772 1.384 . S
C774 C775 1.381 1_565 S
C774 H795 0.930 . S
C775 C774 1.381 1_545 S
C775 C777 1.381 . S
C775 C778 1.487 . S
C776 C773 1.382 . S
C776 C777 1.387 . S
C776 H796 0.930 . S
C777 C775 1.381 . S
C777 C776 1.387 . S
C777 H797 0.931 . S
C778 C775 1.487 . S
C778 C785 1.399 1_545 S
C778 N803 1.343 . S
C779 C780 1.384 1_545 S
C779 C781 1.384 . S
C779 H798 0.931 . S
C780 C779 1.384 1_565 S
C780 C783 1.382 . S
C781 C779 1.384 . S
C781 C782 1.381 1_545 S
C781 H799 0.930 . S
C782 C781 1.381 1_565 S
C782 C784 1.381 . S
C782 C785 1.487 . S
C783 C780 1.382 . S
C783 C784 1.387 . S
C783 H800 0.930 . S
C784 C782 1.381 . S
C784 C783 1.387 . S
C784 H801 0.931 . S
C785 C778 1.399 1_565 S
C785 C782 1.487 . S
C785 N802 1.343 . S
H786 C758 0.931 . S
H787 C760 0.930 . S
H788 C762 0.930 . S
H789 C763 0.931 . S
H790 C765 0.931 . S
H791 C767 0.930 . S
H792 C769 0.930 . S
H793 C770 0.931 . S
H794 C772 0.931 . S
H795 C774 0.930 . S
H796 C776 0.930 . S
H797 C777 0.931 . S
H798 C779 0.931 . S
H799 C781 0.930 . S
H800 C783 0.930 . S
H801 C784 0.931 . S
N802 C764 1.343 . S
N802 C785 1.343 . S
N803 C771 1.343 . S
N803 C778 1.343 . S
C804 C805 1.384 . S
C804 C806 1.384 . S
C804 H832 0.931 . S
C805 C804 1.384 . S
C805 C808 1.382 1_545 S
C806 C804 1.384 . S
C806 C807 1.386 . S
C806 H833 0.930 . S
C807 C806 1.386 . S
C807 C809 1.370 1_545 S
C807 C810 1.497 1_545 S
C808 C805 1.382 1_565 S
C808 C809 1.387 . S
C808 H834 0.930 . S
C809 C807 1.370 1_565 S
C809 C808 1.387 . S
C809 H835 0.931 . S
C810 C807 1.497 1_565 S
C810 C817 1.399 1_565 S
C810 N848 1.366 . S
C811 C812 1.384 . S
C811 C813 1.384 . S
C811 H836 0.931 . S
C812 C811 1.384 . S
C812 C815 1.382 1_565 S
C813 C811 1.384 . S
C813 C814 1.387 . S
C813 H837 0.930 . S
C814 C813 1.387 . S
C814 C816 1.378 1_565 S
C814 C817 1.476 1_565 S
C815 C812 1.382 1_545 S
C815 C816 1.387 . S
C815 H838 0.930 . S
C816 C814 1.378 1_545 S
C816 C815 1.387 . S
C816 H839 0.931 . S
C817 C810 1.399 1_545 S
C817 C814 1.476 1_545 S
C817 N849 1.352 . S
C818 C819 1.384 . S
C818 C820 1.384 . S
C818 H840 0.931 . S
C819 C818 1.384 . S
C819 C822 1.382 1_565 S
C820 C818 1.384 . S
C820 C821 1.383 . S
C820 H841 0.930 . S
C821 C820 1.383 . S
C821 C823 1.377 1_565 S
C821 C824 1.497 1_565 S
C822 C819 1.382 1_545 S
C822 C823 1.387 . S
C822 H842 0.930 . S
C823 C821 1.377 1_545 S
C823 C822 1.387 . S
C823 H843 0.931 . S
C824 C821 1.497 1_545 S
C824 C831 1.399 1_545 S
C824 N849 1.336 . S
C825 C826 1.384 . S
C825 C827 1.384 . S
C825 H844 0.931 . S
C826 C825 1.384 . S
C826 C829 1.382 1_545 S
C827 C825 1.384 . S
C827 C828 1.400 . S
C827 H845 0.930 . S
C828 C827 1.400 . S
C828 C830 1.372 1_545 S
C828 C831 1.476 1_545 S
C829 C826 1.382 1_565 S
C829 C830 1.387 . S
C829 H846 0.930 . S
C830 C828 1.372 1_565 S
C830 C829 1.387 . S
C830 H847 0.931 . S
C831 C824 1.399 1_565 S
C831 C828 1.476 1_565 S
C831 N848 1.320 . S
H832 C804 0.931 . S
H833 C806 0.930 . S
H834 C808 0.930 . S
H835 C809 0.931 . S
H836 C811 0.931 . S
H837 C813 0.930 . S
H838 C815 0.930 . S
H839 C816 0.931 . S
H840 C818 0.931 . S
H841 C820 0.930 . S
H842 C822 0.930 . S
H843 C823 0.931 . S
H844 C825 0.931 . S
H845 C827 0.930 . S
H846 C829 0.930 . S
H847 C830 0.931 . S
N848 C810 1.366 . S
N848 C831 1.320 . S
N849 C817 1.352 . S
N849 C824 1.336 . S
C850 C851 1.384 . S
C850 C852 1.384 . S
C850 H878 0.931 . S
C851 C850 1.384 . S
C851 C854 1.382 1_655 S
C852 C850 1.384 . S
C852 C853 1.427 . S
C852 H879 0.930 . S
C853 C852 1.427 . S
C853 C855 1.358 1_655 S
C853 C856 1.465 . S
C854 C851 1.382 1_455 S
C854 C855 1.387 . S
C854 H880 0.930 . S
C855 C853 1.358 1_455 S
C855 C854 1.387 . S
C855 H881 0.931 . S
C856 C853 1.465 . S
C856 C863 1.398 . S
C856 N894 1.324 1_655 S
C857 C858 1.384 . S
C857 C859 1.384 . S
C857 H882 0.931 . S
C858 C857 1.384 . S
C858 C861 1.382 1_455 S
C859 C857 1.384 . S
C859 C860 1.382 . S
C859 H883 0.930 . S
C860 C859 1.382 . S
C860 C862 1.381 1_455 S
C860 C863 1.496 1_455 S
C861 C858 1.382 1_655 S
C861 C862 1.387 . S
C861 H884 0.930 . S
C862 C860 1.381 1_655 S
C862 C861 1.387 . S
C862 H885 0.931 . S
C863 C856 1.398 . S
C863 C860 1.496 1_655 S
C863 N895 1.359 . S
C864 C865 1.384 . S
C864 C866 1.384 . S
C864 H886 0.931 . S
C865 C864 1.384 . S
C865 C868 1.382 1_455 S
C866 C864 1.384 . S
C866 C867 1.414 . S
C866 H887 0.930 . S
C867 C866 1.414 . S
C867 C869 1.364 1_455 S
C867 C870 1.470 1_455 S
C868 C865 1.382 1_655 S
C868 C869 1.387 . S
C868 H888 0.930 . S
C869 C867 1.364 1_655 S
C869 C868 1.387 . S
C869 H889 0.931 . S
C870 C867 1.470 1_655 S
C870 C877 1.399 1_655 S
C870 N895 1.318 . S
C871 C872 1.384 . S
C871 C873 1.384 . S
C871 H890 0.931 . S
C872 C871 1.384 . S
C872 C875 1.382 1_655 S
C873 C871 1.384 . S
C873 C874 1.384 . S
C873 H891 0.930 . S
C874 C873 1.384 . S
C874 C876 1.373 1_655 S
C874 C877 1.496 1_655 S
C875 C872 1.382 1_455 S
C875 C876 1.387 . S
C875 H892 0.930 . S
C876 C874 1.373 1_455 S
C876 C875 1.387 . S
C876 H893 0.931 . S
C877 C870 1.399 1_455 S
C877 C874 1.496 1_455 S
C877 N894 1.359 . S
H878 C850 0.931 . S
H879 C852 0.930 . S
H880 C854 0.930 . S
H881 C855 0.931 . S
H882 C857 0.931 . S
H883 C859 0.930 . S
H884 C861 0.930 . S
H885 C862 0.931 . S
H886 C864 0.931 . S
H887 C866 0.930 . S
H888 C868 0.930 . S
H889 C869 0.931 . S
H890 C871 0.931 . S
H891 C873 0.930 . S
H892 C875 0.930 . S
H893 C876 0.931 . S
N894 C856 1.324 1_455 S
N894 C877 1.359 . S
N895 C863 1.359 . S
N895 C870 1.318 . S
C896 C897 1.384 . S
C896 C898 1.384 . S
C896 H924 0.931 . S
C897 C896 1.384 . S
C897 C900 1.382 . S
C898 C896 1.384 . S
C898 C899 1.381 . S
C898 H925 0.930 . S
C899 C898 1.381 . S
C899 C901 1.381 . S
C899 C902 1.487 . S
C900 C897 1.382 . S
C900 C901 1.387 . S
C900 H926 0.930 . S
C901 C899 1.381 . S
C901 C900 1.387 . S
C901 H927 0.931 . S
C902 C899 1.487 . S
C902 C909 1.399 . S
C902 N940 1.343 . S
C903 C904 1.384 . S
C903 C905 1.384 . S
C903 H928 0.931 . S
C904 C903 1.384 . S
C904 C907 1.382 . S
C905 C903 1.384 . S
C905 C906 1.381 . S
C905 H929 0.930 . S
C906 C905 1.381 . S
C906 C908 1.381 . S
C906 C909 1.487 . S
C907 C904 1.382 . S
C907 C908 1.387 . S
C907 H930 0.930 . S
C908 C906 1.381 . S
C908 C907 1.387 . S
C908 H931 0.931 . S
C909 C902 1.399 . S
C909 C906 1.487 . S
C909 N941 1.343 . S
C910 C911 1.384 . S
C910 C912 1.384 . S
C910 H932 0.931 . S
C911 C910 1.384 . S
C911 C914 1.382 . S
C912 C910 1.384 . S
C912 C913 1.381 . S
C912 H933 0.930 . S
C913 C912 1.381 . S
C913 C915 1.381 . S
C913 C916 1.487 . S
C914 C911 1.382 . S
C914 C915 1.387 . S
C914 H934 0.930 . S
C915 C913 1.381 . S
C915 C914 1.387 . S
C915 H935 0.931 . S
C916 C913 1.487 . S
C916 C923 1.399 . S
C916 N941 1.343 . S
C917 C918 1.384 . S
C917 C919 1.384 . S
C917 H936 0.931 . S
C918 C917 1.384 . S
C918 C921 1.382 . S
C919 C917 1.384 . S
C919 C920 1.381 . S
C919 H937 0.930 . S
C920 C919 1.381 . S
C920 C922 1.381 . S
C920 C923 1.487 . S
C921 C918 1.382 . S
C921 C922 1.387 . S
C921 H938 0.930 . S
C922 C920 1.381 . S
C922 C921 1.387 . S
C922 H939 0.931 . S
C923 C916 1.399 . S
C923 C920 1.487 . S
C923 N940 1.343 . S
H924 C896 0.931 . S
H925 C898 0.930 . S
H926 C900 0.930 . S
H927 C901 0.931 . S
H928 C903 0.931 . S
H929 C905 0.930 . S
H930 C907 0.930 . S
H931 C908 0.931 . S
H932 C910 0.931 . S
H933 C912 0.930 . S
H934 C914 0.930 . S
H935 C915 0.931 . S
H936 C917 0.931 . S
H937 C919 0.930 . S
H938 C921 0.930 . S
H939 C922 0.931 . S
N940 C902 1.343 . S
N940 C923 1.343 . S
N941 C909 1.343 . S
N941 C916 1.343 . S
C942 C943 1.384 . S
C942 C944 1.384 . S
C942 H970 0.931 . S
C943 C942 1.384 . S
C943 C946 1.382 . S
C944 C942 1.384 . S
C944 C945 1.381 . S
C944 H971 0.930 . S
C945 C944 1.381 . S
C945 C947 1.381 . S
C945 C948 1.487 . S
C946 C943 1.382 . S
C946 C947 1.387 . S
C946 H972 0.930 . S
C947 C945 1.381 . S
C947 C946 1.387 . S
C947 H973 0.931 . S
C948 C945 1.487 . S
C948 C955 1.399 . S
C948 N986 1.343 . S
C949 C950 1.384 . S
C949 C951 1.384 . S
C949 H974 0.931 . S
C950 C949 1.384 . S
C950 C953 1.382 . S
C951 C949 1.384 . S
C951 C952 1.381 . S
C951 H975 0.930 . S
C952 C951 1.381 . S
C952 C954 1.381 . S
C952 C955 1.487 . S
C953 C950 1.382 . S
C953 C954 1.387 . S
C953 H976 0.930 . S
C954 C952 1.381 . S
C954 C953 1.387 . S
C954 H977 0.931 . S
C955 C948 1.399 . S
C955 C952 1.487 . S
C955 N987 1.343 . S
C956 C957 1.384 . S
C956 C958 1.384 . S
C956 H978 0.931 . S
C957 C956 1.384 . S
C957 C960 1.382 . S
C958 C956 1.384 . S
C958 C959 1.381 . S
C958 H979 0.930 . S
C959 C958 1.381 . S
C959 C961 1.381 . S
C959 C962 1.487 . S
C960 C957 1.382 . S
C960 C961 1.387 . S
C960 H980 0.930 . S
C961 C959 1.381 . S
C961 C960 1.387 . S
C961 H981 0.931 . S
C962 C959 1.487 . S
C962 C969 1.399 . S
C962 N987 1.343 . S
C963 C964 1.384 . S
C963 C965 1.384 . S
C963 H982 0.931 . S
C964 C963 1.384 . S
C964 C967 1.382 . S
C965 C963 1.384 . S
C965 C966 1.381 . S
C965 H983 0.930 . S
C966 C965 1.381 . S
C966 C968 1.381 . S
C966 C969 1.487 . S
C967 C964 1.382 . S
C967 C968 1.387 . S
C967 H984 0.930 . S
C968 C966 1.381 . S
C968 C967 1.387 . S
C968 H985 0.931 . S
C969 C962 1.399 . S
C969 C966 1.487 . S
C969 N986 1.343 . S
H970 C942 0.931 . S
H971 C944 0.930 . S
H972 C946 0.930 . S
H973 C947 0.931 . S
H974 C949 0.931 . S
H975 C951 0.930 . S
H976 C953 0.930 . S
H977 C954 0.931 . S
H978 C956 0.931 . S
H979 C958 0.930 . S
H980 C960 0.930 . S
H981 C961 0.931 . S
H982 C963 0.931 . S
H983 C965 0.930 . S
H984 C967 0.930 . S
H985 C968 0.931 . S
N986 C948 1.343 . S
N986 C969 1.343 . S
N987 C955 1.343 . S
N987 C962 1.343 . S
C988 C989 1.384 . S
C988 C990 1.384 . S
C988 H1016 0.931 . S
C989 C988 1.384 . S
C989 C992 1.382 . S
C990 C988 1.384 . S
C990 C991 1.381 . S
C990 H1017 0.930 . S
C991 C990 1.381 . S
C991 C993 1.381 . S
C991 C994 1.487 . S
C992 C989 1.382 . S
C992 C993 1.387 . S
C992 H1018 0.930 . S
C993 C991 1.381 . S
C993 C992 1.387 . S
C993 H1019 0.931 . S
C994 C991 1.487 . S
C994 C1001 1.399 . S
C994 N1032 1.343 . S
C995 C996 1.384 . S
C995 C997 1.384 . S
C995 H1020 0.931 . S
C996 C995 1.384 . S
C996 C999 1.382 . S
C997 C995 1.384 . S
C997 C998 1.381 . S
C997 H1021 0.930 . S
C998 C997 1.381 . S
C998 C1000 1.381 . S
C998 C1001 1.487 . S
C999 C996 1.382 . S
C999 C1000 1.387 . S
C999 H1022 0.930 . S
C1000 C998 1.381 . S
C1000 C999 1.387 . S
C1000 H1023 0.931 . S
C1001 C994 1.399 . S
C1001 C998 1.487 . S
C1001 N1033 1.343 . S
C1002 C1003 1.384 . S
C1002 C1004 1.384 . S
C1002 H1024 0.931 . S
C1003 C1002 1.384 . S
C1003 C1006 1.382 . S
C1004 C1002 1.384 . S
C1004 C1005 1.381 . S
C1004 H1025 0.930 . S
C1005 C1004 1.381 . S
C1005 C1007 1.381 . S
C1005 C1008 1.487 . S
C1006 C1003 1.382 . S
C1006 C1007 1.387 . S
C1006 H1026 0.930 . S
C1007 C1005 1.381 . S
C1007 C1006 1.387 . S
C1007 H1027 0.931 . S
C1008 C1005 1.487 . S
C1008 C1015 1.399 . S
C1008 N1033 1.343 . S
C1009 C1010 1.384 . S
C1009 C1011 1.384 . S
C1009 H1028 0.931 . S
C1010 C1009 1.384 . S
C1010 C1013 1.382 . S
C1011 C1009 1.384 . S
C1011 C1012 1.381 . S
C1011 H1029 0.930 . S
C1012 C1011 1.381 . S
C1012 C1014 1.381 . S
C1012 C1015 1.487 . S
C1013 C1010 1.382 . S
C1013 C1014 1.387 . S
C1013 H1030 0.930 . S
C1014 C1012 1.381 . S
C1014 C1013 1.387 . S
C1014 H1031 0.931 . S
C1015 C1008 1.399 . S
C1015 C1012 1.487 . S
C1015 N1032 1.343 . S
H1016 C988 0.931 . S
H1017 C990 0.930 . S
H1018 C992 0.930 . S
H1019 C993 0.931 . S
H1020 C995 0.931 . S
H1021 C997 0.930 . S
H1022 C999 0.930 . S
H1023 C1000 0.931 . S
H1024 C1002 0.931 . S
H1025 C1004 0.930 . S
H1026 C1006 0.930 . S
H1027 C1007 0.931 . S
H1028 C1009 0.931 . S
H1029 C1011 0.930 . S
H1030 C1013 0.930 . S
H1031 C1014 0.931 . S
N1032 C994 1.343 . S
N1032 C1015 1.343 . S
N1033 C1001 1.343 . S
N1033 C1008 1.343 . S
C1034 C1035 1.384 . S
C1034 C1036 1.384 . S
C1034 H1062 0.931 . S
C1035 C1034 1.384 . S
C1035 C1038 1.382 . S
C1036 C1034 1.384 . S
C1036 C1037 1.381 . S
C1036 H1063 0.930 . S
C1037 C1036 1.381 . S
C1037 C1039 1.381 . S
C1037 C1040 1.487 . S
C1038 C1035 1.382 . S
C1038 C1039 1.387 . S
C1038 H1064 0.930 . S
C1039 C1037 1.381 . S
C1039 C1038 1.387 . S
C1039 H1065 0.931 . S
C1040 C1037 1.487 . S
C1040 C1047 1.399 . S
C1040 N1078 1.343 . S
C1041 C1042 1.384 . S
C1041 C1043 1.384 . S
C1041 H1066 0.931 . S
C1042 C1041 1.384 . S
C1042 C1045 1.382 . S
C1043 C1041 1.384 . S
C1043 C1044 1.381 . S
C1043 H1067 0.930 . S
C1044 C1043 1.381 . S
C1044 C1046 1.381 . S
C1044 C1047 1.487 . S
C1045 C1042 1.382 . S
C1045 C1046 1.387 . S
C1045 H1068 0.930 . S
C1046 C1044 1.381 . S
C1046 C1045 1.387 . S
C1046 H1069 0.931 . S
C1047 C1040 1.399 . S
C1047 C1044 1.487 . S
C1047 N1079 1.343 . S
C1048 C1049 1.384 . S
C1048 C1050 1.384 . S
C1048 H1070 0.931 . S
C1049 C1048 1.384 . S
C1049 C1052 1.382 . S
C1050 C1048 1.384 . S
C1050 C1051 1.381 . S
C1050 H1071 0.930 . S
C1051 C1050 1.381 . S
C1051 C1053 1.381 . S
C1051 C1054 1.487 . S
C1052 C1049 1.382 . S
C1052 C1053 1.387 . S
C1052 H1072 0.930 . S
C1053 C1051 1.381 . S
C1053 C1052 1.387 . S
C1053 H1073 0.931 . S
C1054 C1051 1.487 . S
C1054 C1061 1.399 . S
C1054 N1079 1.343 . S
C1055 C1056 1.384 . S
C1055 C1057 1.384 . S
C1055 H1074 0.931 . S
C1056 C1055 1.384 . S
C1056 C1059 1.382 . S
C1057 C1055 1.384 . S
C1057 C1058 1.381 . S
C1057 H1075 0.930 . S
C1058 C1057 1.381 . S
C1058 C1060 1.381 . S
C1058 C1061 1.487 . S
C1059 C1056 1.382 . S
C1059 C1060 1.387 . S
C1059 H1076 0.930 . S
C1060 C1058 1.381 . S
C1060 C1059 1.387 . S
C1060 H1077 0.931 . S
C1061 C1054 1.399 . S
C1061 C1058 1.487 . S
C1061 N1078 1.343 . S
H1062 C1034 0.931 . S
H1063 C1036 0.930 . S
H1064 C1038 0.930 . S
H1065 C1039 0.931 . S
H1066 C1041 0.931 . S
H1067 C1043 0.930 . S
H1068 C1045 0.930 . S
H1069 C1046 0.931 . S
H1070 C1048 0.931 . S
H1071 C1050 0.930 . S
H1072 C1052 0.930 . S
H1073 C1053 0.931 . S
H1074 C1055 0.931 . S
H1075 C1057 0.930 . S
H1076 C1059 0.930 . S
H1077 C1060 0.931 . S
N1078 C1040 1.343 . S
N1078 C1061 1.343 . S
N1079 C1047 1.343 . S
N1079 C1054 1.343 . S
C1080 C1081 1.387 . S
C1080 H1084 0.950 . S
C1080 C1089 1.390 . S
C1081 C1080 1.387 . S
C1081 C1083 1.387 . S
H1082 C1089 0.950 . S
C1083 C1081 1.387 . S
C1083 C1085 1.390 . S
C1083 H1087 0.950 . S
H1084 C1080 0.950 . S
C1085 C1083 1.390 . S
C1085 C1086 1.387 . S
C1085 H1088 0.950 . S
C1086 C1085 1.387 . S
C1086 C1089 1.387 . S
H1087 C1083 0.950 . S
H1088 C1085 0.950 . S
C1089 C1080 1.390 . S
C1089 H1082 0.950 . S
C1089 C1086 1.387 . S
C1090 C1091 1.387 . S
C1090 H1094 0.950 . S
C1090 C1099 1.390 . S
C1091 C1090 1.387 . S
C1091 C1093 1.387 . S
H1092 C1099 0.950 . S
C1093 C1091 1.387 . S
C1093 C1095 1.390 . S
C1093 H1097 0.950 . S
H1094 C1090 0.950 . S
C1095 C1093 1.390 . S
C1095 C1096 1.387 . S
C1095 H1098 0.950 . S
C1096 C1095 1.387 . S
C1096 C1099 1.387 . S
H1097 C1093 0.950 . S
H1098 C1095 0.950 . S
C1099 C1090 1.390 . S
C1099 H1092 0.950 . S
C1099 C1096 1.387 . S
C1100 C1101 1.387 1_565 S
C1100 H1104 0.950 . S
C1100 C1109 1.390 . S
C1101 C1100 1.387 1_545 S
C1101 C1103 1.387 . S
H1102 C1109 0.950 . S
C1103 C1101 1.387 . S
C1103 C1105 1.390 . S
C1103 H1107 0.950 . S
H1104 C1100 0.950 . S
C1105 C1103 1.390 . S
C1105 C1106 1.387 . S
C1105 H1108 0.950 . S
C1106 C1105 1.387 . S
C1106 C1109 1.387 1_545 S
H1107 C1103 0.950 . S
H1108 C1105 0.950 . S
C1109 C1100 1.390 . S
C1109 H1102 0.950 . S
C1109 C1106 1.387 1_565 S
C1110 C1111 1.387 . S
C1110 H1114 0.950 . S
C1110 C1119 1.390 . S
C1111 C1110 1.387 . S
C1111 C1113 1.387 . S
H1112 C1119 0.950 . S
C1113 C1111 1.387 . S
C1113 C1115 1.390 . S
C1113 H1117 0.950 . S
H1114 C1110 0.950 . S
C1115 C1113 1.390 . S
C1115 C1116 1.387 . S
C1115 H1118 0.950 . S
C1116 C1115 1.387 . S
C1116 C1119 1.387 . S
H1117 C1113 0.950 . S
H1118 C1115 0.950 . S
C1119 C1110 1.390 . S
C1119 H1112 0.950 . S
C1119 C1116 1.387 . S
C1120 C1121 1.387 . S
C1120 H1124 0.950 . S
C1120 C1129 1.390 . S
C1121 C1120 1.387 . S
C1121 C1123 1.387 1_455 S
H1122 C1129 0.950 . S
C1123 C1121 1.387 1_655 S
C1123 C1125 1.390 . S
C1123 H1127 0.950 . S
H1124 C1120 0.950 . S
C1125 C1123 1.390 . S
C1125 C1126 1.387 1_655 S
C1125 H1128 0.950 . S
C1126 C1125 1.387 1_455 S
C1126 C1129 1.387 . S
H1127 C1123 0.950 . S
H1128 C1125 0.950 . S
C1129 C1120 1.390 . S
C1129 H1122 0.950 . S
C1129 C1126 1.387 . S
C1130 C1131 1.387 . S
C1130 H1134 0.950 . S
C1130 C1139 1.390 . S
C1131 C1130 1.387 . S
C1131 C1133 1.387 . S
H1132 C1139 0.950 . S
C1133 C1131 1.387 . S
C1133 C1135 1.390 . S
C1133 H1137 0.950 . S
H1134 C1130 0.950 . S
C1135 C1133 1.390 . S
C1135 C1136 1.387 . S
C1135 H1138 0.950 . S
C1136 C1135 1.387 . S
C1136 C1139 1.387 . S
H1137 C1133 0.950 . S
H1138 C1135 0.950 . S
C1139 C1130 1.390 . S
C1139 H1132 0.950 . S
C1139 C1136 1.387 . S
C1140 C1141 1.387 1_655 S
C1140 H1144 0.950 . S
C1140 C1149 1.390 . S
C1141 C1140 1.387 1_455 S
C1141 C1143 1.387 . S
H1142 C1149 0.950 . S
C1143 C1141 1.387 . S
C1143 C1145 1.390 . S
C1143 H1147 0.950 . S
H1144 C1140 0.950 . S
C1145 C1143 1.390 . S
C1145 C1146 1.387 . S
C1145 H1148 0.950 . S
C1146 C1145 1.387 . S
C1146 C1149 1.387 1_455 S
H1147 C1143 0.950 . S
H1148 C1145 0.950 . S
C1149 C1140 1.390 . S
C1149 H1142 0.950 . S
C1149 C1146 1.387 1_655 S
C1150 C1151 1.387 . S
C1150 H1154 0.950 . S
C1150 C1159 1.390 . S
C1151 C1150 1.387 . S
C1151 C1153 1.387 . S
H1152 C1159 0.950 . S
C1153 C1151 1.387 . S
C1153 C1155 1.390 . S
C1153 H1157 0.950 . S
H1154 C1150 0.950 . S
C1155 C1153 1.390 . S
C1155 C1156 1.387 . S
C1155 H1158 0.950 . S
C1156 C1155 1.387 . S
C1156 C1159 1.387 . S
H1157 C1153 0.950 . S
H1158 C1155 0.950 . S
C1159 C1150 1.390 . S
C1159 H1152 0.950 . S
C1159 C1156 1.387 . S
C1160 C1161 1.387 . S
C1160 H1164 0.950 . S
C1160 C1169 1.390 . S
C1161 C1160 1.387 . S
C1161 C1163 1.387 1_565 S
H1162 C1169 0.950 . S
C1163 C1161 1.387 1_545 S
C1163 C1165 1.390 . S
C1163 H1167 0.950 . S
H1164 C1160 0.950 . S
C1165 C1163 1.390 . S
C1165 C1166 1.387 1_545 S
C1165 H1168 0.950 . S
C1166 C1165 1.387 1_565 S
C1166 C1169 1.387 . S
H1167 C1163 0.950 . S
H1168 C1165 0.950 . S
C1169 C1160 1.390 . S
C1169 H1162 0.950 . S
C1169 C1166 1.387 . S
C1170 C1171 1.387 1_565 S
C1170 H1174 0.950 . S
C1170 C1179 1.390 . S
C1171 C1170 1.387 1_545 S
C1171 C1173 1.387 . S
H1172 C1179 0.950 . S
C1173 C1171 1.387 . S
C1173 C1175 1.390 . S
C1173 H1177 0.950 . S
H1174 C1170 0.950 . S
C1175 C1173 1.390 . S
C1175 C1176 1.387 . S
C1175 H1178 0.950 . S
C1176 C1175 1.387 . S
C1176 C1179 1.387 1_545 S
H1177 C1173 0.950 . S
H1178 C1175 0.950 . S
C1179 C1170 1.390 . S
C1179 H1172 0.950 . S
C1179 C1176 1.387 1_565 S
C1180 C1181 1.387 . S
C1180 H1184 0.950 . S
C1180 C1189 1.390 . S
C1181 C1180 1.387 . S
C1181 C1183 1.387 1_655 S
H1182 C1189 0.950 . S
C1183 C1181 1.387 1_455 S
C1183 C1185 1.390 . S
C1183 H1187 0.950 . S
H1184 C1180 0.950 . S
C1185 C1183 1.390 . S
C1185 C1186 1.387 1_455 S
C1185 H1188 0.950 . S
C1186 C1185 1.387 1_655 S
C1186 C1189 1.387 . S
H1187 C1183 0.950 . S
H1188 C1185 0.950 . S
C1189 C1180 1.390 . S
C1189 H1182 0.950 . S
C1189 C1186 1.387 . S
C1190 C1191 1.387 . S
C1190 H1194 0.950 . S
C1190 C1199 1.390 . S
C1191 C1190 1.387 . S
C1191 C1193 1.387 . S
H1192 C1199 0.950 . S
C1193 C1191 1.387 . S
C1193 C1195 1.390 . S
C1193 H1197 0.950 . S
H1194 C1190 0.950 . S
C1195 C1193 1.390 . S
C1195 C1196 1.387 . S
C1195 H1198 0.950 . S
C1196 C1195 1.387 . S
C1196 C1199 1.387 . S
H1197 C1193 0.950 . S
H1198 C1195 0.950 . S
C1199 C1190 1.390 . S
C1199 H1192 0.950 . S
C1199 C1196 1.387 . S
C1200 C1201 1.387 . S
C1200 H1204 0.950 . S
C1200 C1209 1.390 . S
C1201 C1200 1.387 . S
C1201 C1203 1.387 . S
H1202 C1209 0.950 . S
C1203 C1201 1.387 . S
C1203 C1205 1.390 . S
C1203 H1207 0.950 . S
H1204 C1200 0.950 . S
C1205 C1203 1.390 . S
C1205 C1206 1.387 . S
C1205 H1208 0.950 . S
C1206 C1205 1.387 . S
C1206 C1209 1.387 . S
H1207 C1203 0.950 . S
H1208 C1205 0.950 . S
C1209 C1200 1.390 . S
C1209 H1202 0.950 . S
C1209 C1206 1.387 . S
C1210 C1211 1.387 . S
C1210 H1214 0.950 . S
C1210 C1219 1.390 . S
C1211 C1210 1.387 . S
C1211 C1213 1.387 . S
H1212 C1219 0.950 . S
C1213 C1211 1.387 . S
C1213 C1215 1.390 . S
C1213 H1217 0.950 . S
H1214 C1210 0.950 . S
C1215 C1213 1.390 . S
C1215 C1216 1.387 . S
C1215 H1218 0.950 . S
C1216 C1215 1.387 . S
C1216 C1219 1.387 . S
H1217 C1213 0.950 . S
H1218 C1215 0.950 . S
C1219 C1210 1.390 . S
C1219 H1212 0.950 . S
C1219 C1216 1.387 . S
C1220 C1221 1.387 . S
C1220 H1224 0.950 . S
C1220 C1229 1.390 . S
C1221 C1220 1.387 . S
C1221 C1223 1.387 . S
H1222 C1229 0.950 . S
C1223 C1221 1.387 . S
C1223 C1225 1.390 . S
C1223 H1227 0.950 . S
H1224 C1220 0.950 . S
C1225 C1223 1.390 . S
C1225 C1226 1.387 . S
C1225 H1228 0.950 . S
C1226 C1225 1.387 . S
C1226 C1229 1.387 . S
H1227 C1223 0.950 . S
H1228 C1225 0.950 . S
C1229 C1220 1.390 . S
C1229 H1222 0.950 . S
C1229 C1226 1.387 . S
C1230 C1231 1.387 . S
C1230 H1234 0.950 . S
C1230 C1239 1.390 . S
C1231 C1230 1.387 . S
C1231 C1233 1.387 . S
H1232 C1239 0.950 . S
C1233 C1231 1.387 . S
C1233 C1235 1.390 . S
C1233 H1237 0.950 . S
H1234 C1230 0.950 . S
C1235 C1233 1.390 . S
C1235 C1236 1.387 . S
C1235 H1238 0.950 . S
C1236 C1235 1.387 . S
C1236 C1239 1.387 . S
H1237 C1233 0.950 . S
H1238 C1235 0.950 . S
C1239 C1230 1.390 . S
C1239 H1232 0.950 . S
C1239 C1236 1.387 . S
C1240 C1241 1.387 . S
C1240 H1244 0.950 . S
C1240 C1249 1.390 . S
C1241 C1240 1.387 . S
C1241 C1243 1.387 . S
H1242 C1249 0.950 . S
C1243 C1241 1.387 . S
C1243 C1245 1.390 . S
C1243 H1247 0.950 . S
H1244 C1240 0.950 . S
C1245 C1243 1.390 . S
C1245 C1246 1.387 . S
C1245 H1248 0.950 . S
C1246 C1245 1.387 . S
C1246 C1249 1.387 . S
H1247 C1243 0.950 . S
H1248 C1245 0.950 . S
C1249 C1240 1.390 . S
C1249 H1242 0.950 . S
C1249 C1246 1.387 . S
C1250 C1251 1.387 . S
C1250 H1254 0.950 . S
C1250 C1259 1.390 . S
C1251 C1250 1.387 . S
C1251 C1253 1.387 . S
H1252 C1259 0.950 . S
C1253 C1251 1.387 . S
C1253 C1255 1.390 . S
C1253 H1257 0.950 . S
H1254 C1250 0.950 . S
C1255 C1253 1.390 . S
C1255 C1256 1.387 . S
C1255 H1258 0.950 . S
C1256 C1255 1.387 . S
C1256 C1259 1.387 . S
H1257 C1253 0.950 . S
H1258 C1255 0.950 . S
C1259 C1250 1.390 . S
C1259 H1252 0.950 . S
C1259 C1256 1.387 . S
C1260 C1261 1.387 . S
C1260 H1264 0.950 . S
C1260 C1269 1.390 . S
C1261 C1260 1.387 . S
C1261 C1263 1.387 . S
H1262 C1269 0.950 . S
C1263 C1261 1.387 . S
C1263 C1265 1.390 . S
C1263 H1267 0.950 . S
H1264 C1260 0.950 . S
C1265 C1263 1.390 . S
C1265 C1266 1.387 . S
C1265 H1268 0.950 . S
C1266 C1265 1.387 . S
C1266 C1269 1.387 . S
H1267 C1263 0.950 . S
H1268 C1265 0.950 . S
C1269 C1260 1.390 . S
C1269 H1262 0.950 . S
C1269 C1266 1.387 . S
C1270 C1271 1.387 . S
C1270 H1274 0.950 . S
C1270 C1279 1.390 . S
C1271 C1270 1.387 . S
C1271 C1273 1.387 . S
H1272 C1279 0.950 . S
C1273 C1271 1.387 . S
C1273 C1275 1.390 . S
C1273 H1277 0.950 . S
H1274 C1270 0.950 . S
C1275 C1273 1.390 . S
C1275 C1276 1.387 . S
C1275 H1278 0.950 . S
C1276 C1275 1.387 . S
C1276 C1279 1.387 . S
H1277 C1273 0.950 . S
H1278 C1275 0.950 . S
C1279 C1270 1.390 . S
C1279 H1272 0.950 . S
C1279 C1276 1.387 . S
C1280 C1281 1.387 . S
C1280 H1284 0.950 . S
C1280 C1289 1.390 . S
C1281 C1280 1.387 . S
C1281 C1283 1.387 . S
H1282 C1289 0.950 . S
C1283 C1281 1.387 . S
C1283 C1285 1.390 . S
C1283 H1287 0.950 . S
H1284 C1280 0.950 . S
C1285 C1283 1.390 . S
C1285 C1286 1.387 . S
C1285 H1288 0.950 . S
C1286 C1285 1.387 . S
C1286 C1289 1.387 . S
H1287 C1283 0.950 . S
H1288 C1285 0.950 . S
C1289 C1280 1.390 . S
C1289 H1282 0.950 . S
C1289 C1286 1.387 . S
C1290 C1291 1.387 . S
C1290 H1294 0.950 . S
C1290 C1299 1.390 . S
C1291 C1290 1.387 . S
C1291 C1293 1.387 . S
H1292 C1299 0.950 . S
C1293 C1291 1.387 . S
C1293 C1295 1.390 . S
C1293 H1297 0.950 . S
H1294 C1290 0.950 . S
C1295 C1293 1.390 . S
C1295 C1296 1.387 . S
C1295 H1298 0.950 . S
C1296 C1295 1.387 . S
C1296 C1299 1.387 . S
H1297 C1293 0.950 . S
H1298 C1295 0.950 . S
C1299 C1290 1.390 . S
C1299 H1292 0.950 . S
C1299 C1296 1.387 . S
C1300 C1301 1.387 . S
C1300 H1304 0.950 . S
C1300 C1309 1.390 . S
C1301 C1300 1.387 . S
C1301 C1303 1.387 . S
H1302 C1309 0.950 . S
C1303 C1301 1.387 . S
C1303 C1305 1.390 . S
C1303 H1307 0.950 . S
H1304 C1300 0.950 . S
C1305 C1303 1.390 . S
C1305 C1306 1.387 . S
C1305 H1308 0.950 . S
C1306 C1305 1.387 . S
C1306 C1309 1.387 . S
H1307 C1303 0.950 . S
H1308 C1305 0.950 . S
C1309 C1300 1.390 . S
C1309 H1302 0.950 . S
C1309 C1306 1.387 . S
C1310 C1311 1.387 . S
C1310 H1314 0.950 . S
C1310 C1319 1.390 . S
C1311 C1310 1.387 . S
C1311 C1313 1.387 . S
H1312 C1319 0.950 . S
C1313 C1311 1.387 . S
C1313 C1315 1.390 . S
C1313 H1317 0.950 . S
H1314 C1310 0.950 . S
C1315 C1313 1.390 . S
C1315 C1316 1.387 . S
C1315 H1318 0.950 . S
C1316 C1315 1.387 . S
C1316 C1319 1.387 . S
H1317 C1313 0.950 . S
H1318 C1315 0.950 . S
C1319 C1310 1.390 . S
C1319 H1312 0.950 . S
C1319 C1316 1.387 . S
C1320 C1321 1.387 . S
C1320 H1324 0.950 . S
C1320 C1329 1.390 . S
C1321 C1320 1.387 . S
C1321 C1323 1.387 . S
H1322 C1329 0.950 . S
C1323 C1321 1.387 . S
C1323 C1325 1.390 . S
C1323 H1327 0.950 . S
H1324 C1320 0.950 . S
C1325 C1323 1.390 . S
C1325 C1326 1.387 . S
C1325 H1328 0.950 . S
C1326 C1325 1.387 . S
C1326 C1329 1.387 . S
H1327 C1323 0.950 . S
H1328 C1325 0.950 . S
C1329 C1320 1.390 . S
C1329 H1322 0.950 . S
C1329 C1326 1.387 . S
C1330 C1331 1.387 . S
C1330 H1334 0.950 . S
C1330 C1339 1.390 . S
C1331 C1330 1.387 . S
C1331 C1333 1.387 . S
H1332 C1339 0.950 . S
C1333 C1331 1.387 . S
C1333 C1335 1.390 . S
C1333 H1337 0.950 . S
H1334 C1330 0.950 . S
C1335 C1333 1.390 . S
C1335 C1336 1.387 . S
C1335 H1338 0.950 . S
C1336 C1335 1.387 . S
C1336 C1339 1.387 . S
H1337 C1333 0.950 . S
H1338 C1335 0.950 . S
C1339 C1330 1.390 . S
C1339 H1332 0.950 . S
C1339 C1336 1.387 . S
C1340 C1341 1.387 . S
C1340 H1344 0.950 . S
C1340 C1349 1.390 . S
C1341 C1340 1.387 . S
C1341 C1343 1.387 . S
H1342 C1349 0.950 . S
C1343 C1341 1.387 . S
C1343 C1345 1.390 . S
C1343 H1347 0.950 . S
H1344 C1340 0.950 . S
C1345 C1343 1.390 . S
C1345 C1346 1.387 . S
C1345 H1348 0.950 . S
C1346 C1345 1.387 . S
C1346 C1349 1.387 . S
H1347 C1343 0.950 . S
H1348 C1345 0.950 . S
C1349 C1340 1.390 . S
C1349 H1342 0.950 . S
C1349 C1346 1.387 . S
C1350 C1351 1.387 . S
C1350 H1354 0.950 . S
C1350 C1359 1.390 . S
C1351 C1350 1.387 . S
C1351 C1353 1.387 . S
H1352 C1359 0.950 . S
C1353 C1351 1.387 . S
C1353 C1355 1.390 . S
C1353 H1357 0.950 . S
H1354 C1350 0.950 . S
C1355 C1353 1.390 . S
C1355 C1356 1.387 . S
C1355 H1358 0.950 . S
C1356 C1355 1.387 . S
C1356 C1359 1.387 . S
H1357 C1353 0.950 . S
H1358 C1355 0.950 . S
C1359 C1350 1.390 . S
C1359 H1352 0.950 . S
C1359 C1356 1.387 . S
C1360 C1361 1.387 . S
C1360 H1364 0.950 . S
C1360 C1369 1.390 . S
C1361 C1360 1.387 . S
C1361 C1363 1.387 . S
H1362 C1369 0.950 . S
C1363 C1361 1.387 . S
C1363 C1365 1.390 . S
C1363 H1367 0.950 . S
H1364 C1360 0.950 . S
C1365 C1363 1.390 . S
C1365 C1366 1.387 . S
C1365 H1368 0.950 . S
C1366 C1365 1.387 . S
C1366 C1369 1.387 . S
H1367 C1363 0.950 . S
H1368 C1365 0.950 . S
C1369 C1360 1.390 . S
C1369 H1362 0.950 . S
C1369 C1366 1.387 . S
C1370 C1371 1.387 . S
C1370 H1374 0.950 . S
C1370 C1379 1.390 . S
C1371 C1370 1.387 . S
C1371 C1373 1.387 . S
H1372 C1379 0.950 . S
C1373 C1371 1.387 . S
C1373 C1375 1.390 . S
C1373 H1377 0.950 . S
H1374 C1370 0.950 . S
C1375 C1373 1.390 . S
C1375 C1376 1.387 . S
C1375 H1378 0.950 . S
C1376 C1375 1.387 . S
C1376 C1379 1.387 . S
H1377 C1373 0.950 . S
H1378 C1375 0.950 . S
C1379 C1370 1.390 . S
C1379 H1372 0.950 . S
C1379 C1376 1.387 . S
C1380 C1381 1.387 . S
C1380 H1384 0.950 . S
C1380 C1389 1.390 . S
C1381 C1380 1.387 . S
C1381 C1383 1.387 . S
H1382 C1389 0.950 . S
C1383 C1381 1.387 . S
C1383 C1385 1.390 . S
C1383 H1387 0.950 . S
H1384 C1380 0.950 . S
C1385 C1383 1.390 . S
C1385 C1386 1.387 . S
C1385 H1388 0.950 . S
C1386 C1385 1.387 . S
C1386 C1389 1.387 . S
H1387 C1383 0.950 . S
H1388 C1385 0.950 . S
C1389 C1380 1.390 . S
C1389 H1382 0.950 . S
C1389 C1386 1.387 . S
C1390 C1391 1.387 . S
C1390 H1394 0.950 . S
C1390 C1399 1.390 . S
C1391 C1390 1.387 . S
C1391 C1393 1.387 . S
H1392 C1399 0.950 . S
C1393 C1391 1.387 . S
C1393 C1395 1.390 . S
C1393 H1397 0.950 . S
H1394 C1390 0.950 . S
C1395 C1393 1.390 . S
C1395 C1396 1.387 . S
C1395 H1398 0.950 . S
C1396 C1395 1.387 . S
C1396 C1399 1.387 . S
H1397 C1393 0.950 . S
H1398 C1395 0.950 . S
C1399 C1390 1.390 . S
C1399 H1392 0.950 . S
C1399 C1396 1.387 . S
C1400 C1401 1.387 . S
C1400 H1404 0.950 . S
C1400 C1409 1.390 . S
C1401 C1400 1.387 . S
C1401 C1403 1.387 . S
H1402 C1409 0.950 . S
C1403 C1401 1.387 . S
C1403 C1405 1.390 . S
C1403 H1407 0.950 . S
H1404 C1400 0.950 . S
C1405 C1403 1.390 . S
C1405 C1406 1.387 . S
C1405 H1408 0.950 . S
C1406 C1405 1.387 . S
C1406 C1409 1.387 . S
H1407 C1403 0.950 . S
H1408 C1405 0.950 . S
C1409 C1400 1.390 . S
C1409 H1402 0.950 . S
C1409 C1406 1.387 . S
C1410 C1411 1.387 . S
C1410 H1414 0.950 . S
C1410 C1419 1.390 . S
C1411 C1410 1.387 . S
C1411 C1413 1.387 . S
H1412 C1419 0.950 . S
C1413 C1411 1.387 . S
C1413 C1415 1.390 . S
C1413 H1417 0.950 . S
H1414 C1410 0.950 . S
C1415 C1413 1.390 . S
C1415 C1416 1.387 . S
C1415 H1418 0.950 . S
C1416 C1415 1.387 . S
C1416 C1419 1.387 . S
H1417 C1413 0.950 . S
H1418 C1415 0.950 . S
C1419 C1410 1.390 . S
C1419 H1412 0.950 . S
C1419 C1416 1.387 . S
C1420 C1421 1.387 . S
C1420 H1424 0.950 . S
C1420 C1429 1.390 . S
C1421 C1420 1.387 . S
C1421 C1423 1.387 . S
H1422 C1429 0.950 . S
C1423 C1421 1.387 . S
C1423 C1425 1.390 . S
C1423 H1427 0.950 . S
H1424 C1420 0.950 . S
C1425 C1423 1.390 . S
C1425 C1426 1.387 . S
C1425 H1428 0.950 . S
C1426 C1425 1.387 . S
C1426 C1429 1.387 . S
H1427 C1423 0.950 . S
H1428 C1425 0.950 . S
C1429 C1420 1.390 . S
C1429 H1422 0.950 . S
C1429 C1426 1.387 . S
C1430 C1431 1.387 . S
C1430 H1434 0.950 . S
C1430 C1439 1.390 . S
C1431 C1430 1.387 . S
C1431 C1433 1.387 . S
H1432 C1439 0.950 . S
C1433 C1431 1.387 . S
C1433 C1435 1.390 . S
C1433 H1437 0.950 . S
H1434 C1430 0.950 . S
C1435 C1433 1.390 . S
C1435 C1436 1.387 . S
C1435 H1438 0.950 . S
C1436 C1435 1.387 . S
C1436 C1439 1.387 . S
H1437 C1433 0.950 . S
H1438 C1435 0.950 . S
C1439 C1430 1.390 . S
C1439 H1432 0.950 . S
C1439 C1436 1.387 . S
C1440 C1441 1.387 . S
C1440 H1444 0.950 . S
C1440 C1449 1.390 . S
C1441 C1440 1.387 . S
C1441 C1443 1.387 . S
H1442 C1449 0.950 . S
C1443 C1441 1.387 . S
C1443 C1445 1.390 . S
C1443 H1447 0.950 . S
H1444 C1440 0.950 . S
C1445 C1443 1.390 . S
C1445 C1446 1.387 . S
C1445 H1448 0.950 . S
C1446 C1445 1.387 . S
C1446 C1449 1.387 . S
H1447 C1443 0.950 . S
H1448 C1445 0.950 . S
C1449 C1440 1.390 . S
C1449 H1442 0.950 . S
C1449 C1446 1.387 . S
C1450 C1451 1.387 . S
C1450 H1454 0.950 . S
C1450 C1459 1.390 . S
C1451 C1450 1.387 . S
C1451 C1453 1.387 . S
H1452 C1459 0.950 . S
C1453 C1451 1.387 . S
C1453 C1455 1.390 . S
C1453 H1457 0.950 . S
H1454 C1450 0.950 . S
C1455 C1453 1.390 . S
C1455 C1456 1.387 . S
C1455 H1458 0.950 . S
C1456 C1455 1.387 . S
C1456 C1459 1.387 . S
H1457 C1453 0.950 . S
H1458 C1455 0.950 . S
C1459 C1450 1.390 . S
C1459 H1452 0.950 . S
C1459 C1456 1.387 . S
C1460 C1461 1.387 . S
C1460 H1464 0.950 . S
C1460 C1469 1.390 . S
C1461 C1460 1.387 . S
C1461 C1463 1.387 . S
H1462 C1469 0.950 . S
C1463 C1461 1.387 . S
C1463 C1465 1.390 . S
C1463 H1467 0.950 . S
H1464 C1460 0.950 . S
C1465 C1463 1.390 . S
C1465 C1466 1.387 . S
C1465 H1468 0.950 . S
C1466 C1465 1.387 . S
C1466 C1469 1.387 . S
H1467 C1463 0.950 . S
H1468 C1465 0.950 . S
C1469 C1460 1.390 . S
C1469 H1462 0.950 . S
C1469 C1466 1.387 . S
C1470 C1471 1.387 . S
C1470 H1474 0.950 . S
C1470 C1479 1.390 . S
C1471 C1470 1.387 . S
C1471 C1473 1.387 . S
H1472 C1479 0.950 . S
C1473 C1471 1.387 . S
C1473 C1475 1.390 . S
C1473 H1477 0.950 . S
H1474 C1470 0.950 . S
C1475 C1473 1.390 . S
C1475 C1476 1.387 . S
C1475 H1478 0.950 . S
C1476 C1475 1.387 . S
C1476 C1479 1.387 . S
H1477 C1473 0.950 . S
H1478 C1475 0.950 . S
C1479 C1470 1.390 . S
C1479 H1472 0.950 . S
C1479 C1476 1.387 . S
C1480 C1481 1.387 . S
C1480 H1484 0.950 1_556 S
C1480 C1489 1.390 . S
C1481 C1480 1.387 . S
C1481 C1483 1.387 . S
H1482 C1489 0.950 . S
C1483 C1481 1.387 . S
C1483 C1485 1.390 . S
C1483 H1487 0.950 . S
H1484 C1480 0.950 1_554 S
C1485 C1483 1.390 . S
C1485 C1486 1.387 . S
C1485 H1488 0.950 . S
C1486 C1485 1.387 . S
C1486 C1489 1.387 . S
H1487 C1483 0.950 . S
H1488 C1485 0.950 . S
C1489 C1480 1.390 . S
C1489 H1482 0.950 . S
C1489 C1486 1.387 . S
C1490 C1491 1.387 . S
C1490 H1494 0.950 . S
C1490 C1499 1.390 . S
C1491 C1490 1.387 . S
C1491 C1493 1.387 . S
H1492 C1499 0.950 . S
C1493 C1491 1.387 . S
C1493 C1495 1.390 . S
C1493 H1497 0.950 . S
H1494 C1490 0.950 . S
C1495 C1493 1.390 . S
C1495 C1496 1.387 . S
C1495 H1498 0.950 . S
C1496 C1495 1.387 . S
C1496 C1499 1.387 . S
H1497 C1493 0.950 . S
H1498 C1495 0.950 . S
C1499 C1490 1.390 . S
C1499 H1492 0.950 . S
C1499 C1496 1.387 . S
C1500 C1501 1.387 . S
C1500 H1504 0.950 . S
C1500 C1509 1.390 . S
C1501 C1500 1.387 . S
C1501 C1503 1.387 . S
H1502 C1509 0.950 . S
C1503 C1501 1.387 . S
C1503 C1505 1.390 . S
C1503 H1507 0.950 . S
H1504 C1500 0.950 . S
C1505 C1503 1.390 . S
C1505 C1506 1.387 . S
C1505 H1508 0.950 . S
C1506 C1505 1.387 . S
C1506 C1509 1.387 . S
H1507 C1503 0.950 . S
H1508 C1505 0.950 . S
C1509 C1500 1.390 . S
C1509 H1502 0.950 . S
C1509 C1506 1.387 . S
C1510 C1511 1.387 . S
C1510 H1514 0.950 . S
C1510 C1519 1.390 . S
C1511 C1510 1.387 . S
C1511 C1513 1.387 . S
H1512 C1519 0.950 . S
C1513 C1511 1.387 . S
C1513 C1515 1.390 . S
C1513 H1517 0.950 . S
H1514 C1510 0.950 . S
C1515 C1513 1.390 . S
C1515 C1516 1.387 . S
C1515 H1518 0.950 . S
C1516 C1515 1.387 . S
C1516 C1519 1.387 . S
H1517 C1513 0.950 . S
H1518 C1515 0.950 . S
C1519 C1510 1.390 . S
C1519 H1512 0.950 . S
C1519 C1516 1.387 . S
C1520 C1521 1.387 . S
C1520 H1524 0.950 . S
C1520 C1529 1.390 . S
C1521 C1520 1.387 . S
C1521 C1523 1.387 . S
H1522 C1529 0.950 . S
C1523 C1521 1.387 . S
C1523 C1525 1.390 . S
C1523 H1527 0.950 . S
H1524 C1520 0.950 . S
C1525 C1523 1.390 . S
C1525 C1526 1.387 . S
C1525 H1528 0.950 . S
C1526 C1525 1.387 . S
C1526 C1529 1.387 . S
H1527 C1523 0.950 . S
H1528 C1525 0.950 . S
C1529 C1520 1.390 . S
C1529 H1522 0.950 . S
C1529 C1526 1.387 . S
C1530 C1531 1.387 . S
C1530 H1534 0.950 . S
C1530 C1539 1.390 . S
C1531 C1530 1.387 . S
C1531 C1533 1.387 . S
H1532 C1539 0.950 . S
C1533 C1531 1.387 . S
C1533 C1535 1.390 . S
C1533 H1537 0.950 . S
H1534 C1530 0.950 . S
C1535 C1533 1.390 . S
C1535 C1536 1.387 . S
C1535 H1538 0.950 . S
C1536 C1535 1.387 . S
C1536 C1539 1.387 . S
H1537 C1533 0.950 . S
H1538 C1535 0.950 . S
C1539 C1530 1.390 . S
C1539 H1532 0.950 . S
C1539 C1536 1.387 . S
C1540 C1541 1.387 . S
C1540 H1544 0.950 . S
C1540 C1549 1.390 . S
C1541 C1540 1.387 . S
C1541 C1543 1.387 . S
H1542 C1549 0.950 . S
C1543 C1541 1.387 . S
C1543 C1545 1.390 . S
C1543 H1547 0.950 . S
H1544 C1540 0.950 . S
C1545 C1543 1.390 . S
C1545 C1546 1.387 . S
C1545 H1548 0.950 . S
C1546 C1545 1.387 . S
C1546 C1549 1.387 . S
H1547 C1543 0.950 . S
H1548 C1545 0.950 . S
C1549 C1540 1.390 . S
C1549 H1542 0.950 . S
C1549 C1546 1.387 . S
C1550 C1551 1.387 . S
C1550 H1554 0.950 . S
C1550 C1559 1.390 . S
C1551 C1550 1.387 . S
C1551 C1553 1.387 . S
H1552 C1559 0.950 . S
C1553 C1551 1.387 . S
C1553 C1555 1.390 . S
C1553 H1557 0.950 . S
H1554 C1550 0.950 . S
C1555 C1553 1.390 . S
C1555 C1556 1.387 . S
C1555 H1558 0.950 . S
C1556 C1555 1.387 . S
C1556 C1559 1.387 . S
H1557 C1553 0.950 . S
H1558 C1555 0.950 . S
C1559 C1550 1.390 . S
C1559 H1552 0.950 . S
C1559 C1556 1.387 . S
C1560 C1561 1.387 . S
C1560 H1564 0.950 . S
C1560 C1569 1.390 . S
C1561 C1560 1.387 . S
C1561 C1563 1.387 . S
H1562 C1569 0.950 . S
C1563 C1561 1.387 . S
C1563 C1565 1.390 . S
C1563 H1567 0.950 . S
H1564 C1560 0.950 . S
C1565 C1563 1.390 . S
C1565 C1566 1.387 . S
C1565 H1568 0.950 . S
C1566 C1565 1.387 . S
C1566 C1569 1.387 . S
H1567 C1563 0.950 . S
H1568 C1565 0.950 . S
C1569 C1560 1.390 . S
C1569 H1562 0.950 . S
C1569 C1566 1.387 . S
C1570 C1571 1.387 . S
C1570 H1574 0.950 . S
C1570 C1579 1.390 . S
C1571 C1570 1.387 . S
C1571 C1573 1.387 . S
H1572 C1579 0.950 . S
C1573 C1571 1.387 . S
C1573 C1575 1.390 . S
C1573 H1577 0.950 . S
H1574 C1570 0.950 . S
C1575 C1573 1.390 . S
C1575 C1576 1.387 . S
C1575 H1578 0.950 . S
C1576 C1575 1.387 . S
C1576 C1579 1.387 . S
H1577 C1573 0.950 . S
H1578 C1575 0.950 . S
C1579 C1570 1.390 . S
C1579 H1572 0.950 . S
C1579 C1576 1.387 . S
C1580 C1581 1.387 . S
C1580 H1584 0.950 . S
C1580 C1589 1.390 . S
C1581 C1580 1.387 . S
C1581 C1583 1.387 . S
H1582 C1589 0.950 . S
C1583 C1581 1.387 . S
C1583 C1585 1.390 . S
C1583 H1587 0.950 . S
H1584 C1580 0.950 . S
C1585 C1583 1.390 . S
C1585 C1586 1.387 . S
C1585 H1588 0.950 . S
C1586 C1585 1.387 . S
C1586 C1589 1.387 . S
H1587 C1583 0.950 . S
H1588 C1585 0.950 . S
C1589 C1580 1.390 . S
C1589 H1582 0.950 . S
C1589 C1586 1.387 . S
C1590 C1591 1.387 . S
C1590 H1594 0.950 . S
C1590 C1599 1.390 . S
C1591 C1590 1.387 . S
C1591 C1593 1.387 . S
H1592 C1599 0.950 . S
C1593 C1591 1.387 . S
C1593 C1595 1.390 . S
C1593 H1597 0.950 . S
H1594 C1590 0.950 . S
C1595 C1593 1.390 . S
C1595 C1596 1.387 . S
C1595 H1598 0.950 1_455 S
C1596 C1595 1.387 . S
C1596 C1599 1.387 . S
H1597 C1593 0.950 . S
H1598 C1595 0.950 1_655 S
C1599 C1590 1.390 . S
C1599 H1592 0.950 . S
C1599 C1596 1.387 . S
C1600 C1601 1.387 . S
C1600 H1604 0.950 . S
C1600 C1609 1.390 . S
C1601 C1600 1.387 . S
C1601 C1603 1.387 . S
H1602 C1609 0.950 . S
C1603 C1601 1.387 . S
C1603 C1605 1.390 . S
C1603 H1607 0.950 . S
H1604 C1600 0.950 . S
C1605 C1603 1.390 . S
C1605 C1606 1.387 . S
C1605 H1608 0.950 . S
C1606 C1605 1.387 . S
C1606 C1609 1.387 . S
H1607 C1603 0.950 . S
H1608 C1605 0.950 . S
C1609 C1600 1.390 . S
C1609 H1602 0.950 . S
C1609 C1606 1.387 . S
C1610 C1611 1.387 . S
C1610 H1614 0.950 . S
C1610 C1619 1.390 . S
C1611 C1610 1.387 . S
C1611 C1613 1.387 1_565 S
H1612 C1619 0.950 . S
C1613 C1611 1.387 1_545 S
C1613 C1615 1.390 . S
C1613 H1617 0.950 . S
H1614 C1610 0.950 . S
C1615 C1613 1.390 . S
C1615 C1616 1.387 1_545 S
C1615 H1618 0.950 . S
C1616 C1615 1.387 1_565 S
C1616 C1619 1.387 . S
H1617 C1613 0.950 . S
H1618 C1615 0.950 . S
C1619 C1610 1.390 . S
C1619 H1612 0.950 . S
C1619 C1616 1.387 . S
C1620 C1621 1.387 1_545 S
C1620 H1624 0.950 . S
C1620 C1629 1.390 . S
C1621 C1620 1.387 1_565 S
C1621 C1623 1.387 . S
H1622 C1629 0.950 . S
C1623 C1621 1.387 . S
C1623 C1625 1.390 . S
C1623 H1627 0.950 . S
H1624 C1620 0.950 . S
C1625 C1623 1.390 . S
C1625 C1626 1.387 . S
C1625 H1628 0.950 . S
C1626 C1625 1.387 . S
C1626 C1629 1.387 1_565 S
H1627 C1623 0.950 . S
H1628 C1625 0.950 . S
C1629 C1620 1.390 . S
C1629 H1622 0.950 . S
C1629 C1626 1.387 1_545 S
C1630 C1631 1.387 . S
C1630 H1634 0.950 . S
C1630 C1639 1.390 . S
C1631 C1630 1.387 . S
C1631 C1633 1.387 . S
H1632 C1639 0.950 . S
C1633 C1631 1.387 . S
C1633 C1635 1.390 . S
C1633 H1637 0.950 . S
H1634 C1630 0.950 . S
C1635 C1633 1.390 . S
C1635 C1636 1.387 . S
C1635 H1638 0.950 . S
C1636 C1635 1.387 . S
C1636 C1639 1.387 . S
H1637 C1633 0.950 . S
H1638 C1635 0.950 . S
C1639 C1630 1.390 . S
C1639 H1632 0.950 . S
C1639 C1636 1.387 . S
C1640 C1641 1.387 . S
C1640 H1644 0.950 . S
C1640 C1649 1.390 . S
C1641 C1640 1.387 . S
C1641 C1643 1.387 . S
H1642 C1649 0.950 . S
C1643 C1641 1.387 . S
C1643 C1645 1.390 . S
C1643 H1647 0.950 . S
H1644 C1640 0.950 . S
C1645 C1643 1.390 . S
C1645 C1646 1.387 . S
C1645 H1648 0.950 . S
C1646 C1645 1.387 . S
C1646 C1649 1.387 . S
H1647 C1643 0.950 . S
H1648 C1645 0.950 . S
C1649 C1640 1.390 . S
C1649 H1642 0.950 . S
C1649 C1646 1.387 . S
C1650 C1651 1.387 . S
C1650 H1654 0.950 . S
C1650 C1659 1.390 . S
C1651 C1650 1.387 . S
C1651 C1653 1.387 . S
H1652 C1659 0.950 . S
C1653 C1651 1.387 . S
C1653 C1655 1.390 . S
C1653 H1657 0.950 . S
H1654 C1650 0.950 . S
C1655 C1653 1.390 . S
C1655 C1656 1.387 . S
C1655 H1658 0.950 . S
C1656 C1655 1.387 . S
C1656 C1659 1.387 . S
H1657 C1653 0.950 . S
H1658 C1655 0.950 . S
C1659 C1650 1.390 . S
C1659 H1652 0.950 . S
C1659 C1656 1.387 . S
C1660 C1661 1.387 . S
C1660 H1664 0.950 . S
C1660 C1669 1.390 . S
C1661 C1660 1.387 . S
C1661 C1663 1.387 . S
H1662 C1669 0.950 . S
C1663 C1661 1.387 . S
C1663 C1665 1.390 . S
C1663 H1667 0.950 . S
H1664 C1660 0.950 . S
C1665 C1663 1.390 . S
C1665 C1666 1.387 . S
C1665 H1668 0.950 . S
C1666 C1665 1.387 . S
C1666 C1669 1.387 . S
H1667 C1663 0.950 . S
H1668 C1665 0.950 . S
C1669 C1660 1.390 . S
C1669 H1662 0.950 . S
C1669 C1666 1.387 . S
C1670 C1671 1.387 . S
C1670 H1674 0.950 . S
C1670 C1679 1.390 . S
C1671 C1670 1.387 . S
C1671 C1673 1.387 . S
H1672 C1679 0.950 . S
C1673 C1671 1.387 . S
C1673 C1675 1.390 . S
C1673 H1677 0.950 . S
H1674 C1670 0.950 . S
C1675 C1673 1.390 . S
C1675 C1676 1.387 . S
C1675 H1678 0.950 . S
C1676 C1675 1.387 . S
C1676 C1679 1.387 . S
H1677 C1673 0.950 . S
H1678 C1675 0.950 . S
C1679 C1670 1.390 . S
C1679 H1672 0.950 . S
C1679 C1676 1.387 . S
C1680 C1681 1.387 . S
C1680 H1684 0.950 . S
C1680 C1689 1.390 . S
C1681 C1680 1.387 . S
C1681 C1683 1.387 1_545 S
H1682 C1689 0.950 . S
C1683 C1681 1.387 1_565 S
C1683 C1685 1.390 . S
C1683 H1687 0.950 . S
H1684 C1680 0.950 . S
C1685 C1683 1.390 . S
C1685 C1686 1.387 1_565 S
C1685 H1688 0.950 . S
C1686 C1685 1.387 1_545 S
C1686 C1689 1.387 . S
H1687 C1683 0.950 . S
H1688 C1685 0.950 . S
C1689 C1680 1.390 . S
C1689 H1682 0.950 . S
C1689 C1686 1.387 . S
C1690 C1691 1.387 . S
C1690 H1694 0.950 . S
C1690 C1699 1.390 . S
C1691 C1690 1.387 . S
C1691 C1693 1.387 . S
H1692 C1699 0.950 . S
C1693 C1691 1.387 . S
C1693 C1695 1.390 . S
C1693 H1697 0.950 . S
H1694 C1690 0.950 . S
C1695 C1693 1.390 . S
C1695 C1696 1.387 . S
C1695 H1698 0.950 . S
C1696 C1695 1.387 . S
C1696 C1699 1.387 . S
H1697 C1693 0.950 . S
H1698 C1695 0.950 . S
C1699 C1690 1.390 . S
C1699 H1692 0.950 . S
C1699 C1696 1.387 . S
C1700 C1701 1.387 . S
C1700 H1704 0.950 . S
C1700 C1709 1.390 . S
C1701 C1700 1.387 . S
C1701 C1703 1.387 . S
H1702 C1709 0.950 . S
C1703 C1701 1.387 . S
C1703 C1705 1.390 . S
C1703 H1707 0.950 . S
H1704 C1700 0.950 . S
C1705 C1703 1.390 . S
C1705 C1706 1.387 . S
C1705 H1708 0.950 . S
C1706 C1705 1.387 . S
C1706 C1709 1.387 . S
H1707 C1703 0.950 . S
H1708 C1705 0.950 . S
C1709 C1700 1.390 . S
C1709 H1702 0.950 . S
C1709 C1706 1.387 . S
C1710 C1711 1.387 . S
C1710 H1714 0.950 . S
C1710 C1719 1.390 . S
C1711 C1710 1.387 . S
C1711 C1713 1.387 . S
H1712 C1719 0.950 . S
C1713 C1711 1.387 . S
C1713 C1715 1.390 . S
C1713 H1717 0.950 . S
H1714 C1710 0.950 . S
C1715 C1713 1.390 . S
C1715 C1716 1.387 . S
C1715 H1718 0.950 . S
C1716 C1715 1.387 . S
C1716 C1719 1.387 . S
H1717 C1713 0.950 . S
H1718 C1715 0.950 . S
C1719 C1710 1.390 . S
C1719 H1712 0.950 . S
C1719 C1716 1.387 . S
C1720 C1721 1.387 . S
C1720 H1724 0.950 . S
C1720 C1729 1.390 . S
C1721 C1720 1.387 . S
C1721 C1723 1.387 . S
H1722 C1729 0.950 . S
C1723 C1721 1.387 . S
C1723 C1725 1.390 . S
C1723 H1727 0.950 . S
H1724 C1720 0.950 . S
C1725 C1723 1.390 . S
C1725 C1726 1.387 . S
C1725 H1728 0.950 . S
C1726 C1725 1.387 . S
C1726 C1729 1.387 . S
H1727 C1723 0.950 . S
H1728 C1725 0.950 . S
C1729 C1720 1.390 . S
C1729 H1722 0.950 . S
C1729 C1726 1.387 . S
C1730 C1731 1.387 . S
C1730 H1734 0.950 . S
C1730 C1739 1.390 . S
C1731 C1730 1.387 . S
C1731 C1733 1.387 . S
H1732 C1739 0.950 . S
C1733 C1731 1.387 . S
C1733 C1735 1.390 . S
C1733 H1737 0.950 . S
H1734 C1730 0.950 . S
C1735 C1733 1.390 . S
C1735 C1736 1.387 . S
C1735 H1738 0.950 . S
C1736 C1735 1.387 . S
C1736 C1739 1.387 . S
H1737 C1733 0.950 . S
H1738 C1735 0.950 . S
C1739 C1730 1.390 . S
C1739 H1732 0.950 . S
C1739 C1736 1.387 . S
C1740 C1741 1.387 . S
C1740 H1744 0.950 . S
C1740 C1749 1.390 . S
C1741 C1740 1.387 . S
C1741 C1743 1.387 . S
H1742 C1749 0.950 . S
C1743 C1741 1.387 . S
C1743 C1745 1.390 . S
C1743 H1747 0.950 . S
H1744 C1740 0.950 . S
C1745 C1743 1.390 . S
C1745 C1746 1.387 . S
C1745 H1748 0.950 . S
C1746 C1745 1.387 . S
C1746 C1749 1.387 . S
H1747 C1743 0.950 . S
H1748 C1745 0.950 . S
C1749 C1740 1.390 . S
C1749 H1742 0.950 . S
C1749 C1746 1.387 . S
C1750 C1751 1.387 . S
C1750 H1754 0.950 . S
C1750 C1759 1.390 . S
C1751 C1750 1.387 . S
C1751 C1753 1.387 . S
H1752 C1759 0.950 . S
C1753 C1751 1.387 . S
C1753 C1755 1.390 . S
C1753 H1757 0.950 . S
H1754 C1750 0.950 . S
C1755 C1753 1.390 . S
C1755 C1756 1.387 . S
C1755 H1758 0.950 . S
C1756 C1755 1.387 . S
C1756 C1759 1.387 . S
H1757 C1753 0.950 . S
H1758 C1755 0.950 . S
C1759 C1750 1.390 . S
C1759 H1752 0.950 . S
C1759 C1756 1.387 . S
C1760 C1761 1.387 . S
C1760 H1764 0.950 . S
C1760 C1769 1.390 . S
C1761 C1760 1.387 . S
C1761 C1763 1.387 . S
H1762 C1769 0.950 . S
C1763 C1761 1.387 . S
C1763 C1765 1.390 . S
C1763 H1767 0.950 . S
H1764 C1760 0.950 . S
C1765 C1763 1.390 . S
C1765 C1766 1.387 . S
C1765 H1768 0.950 . S
C1766 C1765 1.387 . S
C1766 C1769 1.387 . S
H1767 C1763 0.950 . S
H1768 C1765 0.950 . S
C1769 C1760 1.390 . S
C1769 H1762 0.950 . S
C1769 C1766 1.387 . S
C1770 C1771 1.387 . S
C1770 H1774 0.950 . S
C1770 C1779 1.390 . S
C1771 C1770 1.387 . S
C1771 C1773 1.387 . S
H1772 C1779 0.950 . S
C1773 C1771 1.387 . S
C1773 C1775 1.390 . S
C1773 H1777 0.950 . S
H1774 C1770 0.950 . S
C1775 C1773 1.390 . S
C1775 C1776 1.387 . S
C1775 H1778 0.950 1_655 S
C1776 C1775 1.387 . S
C1776 C1779 1.387 . S
H1777 C1773 0.950 . S
H1778 C1775 0.950 1_455 S
C1779 C1770 1.390 . S
C1779 H1772 0.950 . S
C1779 C1776 1.387 . S
C1780 C1781 1.387 . S
C1780 H1784 0.950 . S
C1780 C1789 1.390 . S
C1781 C1780 1.387 . S
C1781 C1783 1.387 . S
H1782 C1789 0.950 . S
C1783 C1781 1.387 . S
C1783 C1785 1.390 . S
C1783 H1787 0.950 . S
H1784 C1780 0.950 . S
C1785 C1783 1.390 . S
C1785 C1786 1.387 . S
C1785 H1788 0.950 . S
C1786 C1785 1.387 . S
C1786 C1789 1.387 . S
H1787 C1783 0.950 . S
H1788 C1785 0.950 . S
C1789 C1780 1.390 . S
C1789 H1782 0.950 . S
C1789 C1786 1.387 . S
C1790 C1791 1.387 1_565 S
C1790 H1794 0.950 . S
C1790 C1799 1.390 . S
C1791 C1790 1.387 1_545 S
C1791 C1793 1.387 . S
H1792 C1799 0.950 . S
C1793 C1791 1.387 . S
C1793 C1795 1.390 . S
C1793 H1797 0.950 . S
H1794 C1790 0.950 . S
C1795 C1793 1.390 . S
C1795 C1796 1.387 . S
C1795 H1798 0.950 . S
C1796 C1795 1.387 . S
C1796 C1799 1.387 1_545 S
H1797 C1793 0.950 . S
H1798 C1795 0.950 . S
C1799 C1790 1.390 . S
C1799 H1792 0.950 . S
C1799 C1796 1.387 1_565 S
C1081 C4 1.457 . S
C1086 C688 1.504 . S
C1091 C26 1.565 . S
C1096 C734 1.547 . S
C1106 C766 1.468 . S
C1101 C32 1.419 . S
C1111 C40 1.427 . S
C1116 C819 1.468 . S
C1121 C12 1.476 . S
C1126 C865 1.518 . S
C1131 C18 1.494 . S
C1136 C904 1.534 . S
C1141 C46 1.451 . S
C1146 C858 1.500 . S
C1156 C911 1.555 . S
C1151 C68 1.562 . S
C1166 C812 1.476 . S
C1161 C74 1.423 . S
C1171 C82 1.427 . S
C1176 C773 1.465 . S
C1186 C667 1.511 . S
C1181 C54 1.481 . S
C1191 C60 1.492 . S
C1196 C713 1.522 . S
C1201 C88 1.614 . S
C1206 C943 1.649 . S
C1211 C110 1.637 . S
C1216 C1010 1.602 . S
C1226 C1056 1.590 . S
C1221 C116 1.565 . S
C1231 C124 1.502 . S
C1236 C267 1.485 . S
C1241 C96 1.568 . S
C1246 C313 1.551 . S
C1251 C102 1.550 . S
C1256 C359 1.560 . S
C1261 C130 1.545 . S
C1266 C306 1.563 . S
C1271 C152 1.627 . S
C1276 C352 1.595 . S
C1286 C260 1.590 . S
C1281 C158 1.566 . S
C1296 C1035 1.551 . S
C1291 C166 1.571 . S
C1306 C964 1.547 . S
C1301 C138 1.556 . S
C1316 C989 1.589 . S
C1311 C144 1.574 . S
C1321 C172 1.550 . S
C1326 C391 1.581 . S
C1331 C194 1.626 . S
C1336 C444 1.607 . S
C1341 C200 1.570 . S
C1346 C490 1.607 . S
C1351 C208 1.562 . S
C1356 C536 1.553 . S
C1366 C589 1.541 . S
C1361 C180 1.562 . S
C1376 C635 1.581 . S
C1371 C186 1.564 . S
C1386 C582 1.638 . S
C1381 C214 1.617 . S
C1396 C628 1.599 . S
C1391 C236 1.635 . S
C1401 C242 1.554 . S
C1406 C543 1.594 . S
C1416 C497 1.493 . S
C1411 C250 1.500 . S
C1421 C222 1.572 . S
C1426 C412 1.565 . S
C1436 C451 1.579 . S
C1431 C228 1.554 . S
C1446 C274 1.621 . S
C1441 C5 1.394 . S
C1451 C25 1.596 . S
C1456 C320 1.542 . S
C1466 C366 1.651 . S
C1461 C33 1.438 . S
C1476 C398 1.545 . S
C1471 C39 1.576 . S
C1486 C437 1.577 . S
C1481 C11 1.641 . S
C1496 C483 1.510 . S
C1491 C19 1.296 . S
C1501 C47 1.396 . S
C1506 C504 1.611 . S
C1511 C67 1.593 . S
C1516 C405 1.517 . S
C1521 C75 1.448 1_556 S
C1526 C458 1.635 . S
C1531 C81 1.582 . S
C1536 C299 1.565 . S
C1546 C345 1.597 . S
C1541 C53 1.635 . S
C1551 C61 1.286 . S
C1556 C253 1.523 . S
C1566 C529 1.539 . S
C1561 C89 1.306 . S
C1571 C109 1.642 . S
C1576 C596 1.595 . S
C1581 C117 1.366 . S
C1586 C642 1.607 . S
C1596 C681 1.312 . S
C1591 C123 1.296 . S
C1601 C95 1.542 . S
C1606 C727 1.506 . S
C1611 C103 1.150 . S
C1616 C759 1.319 . S
C1621 C131 1.139 . S
C1626 C780 1.316 . S
C1631 C151 1.329 . S
C1636 C674 1.333 . S
C1646 C720 1.541 . S
C1641 C159 1.308 . S
C1651 C165 1.541 . S
C1656 C575 1.504 . S
C1661 C137 1.621 . S
C1666 C621 1.571 . S
C1676 C550 1.558 . S
C1671 C145 1.339 . S
C1686 C826 1.337 . S
C1681 C173 1.146 . S
C1691 C193 1.305 . S
C1696 C872 1.317 . S
C1701 C201 1.302 . S
C1706 C897 1.516 . S
C1716 C950 1.480 . S
C1711 C207 1.533 . S
C1726 C1003 1.584 . S
C1721 C179 1.635 . S
C1731 C187 1.339 . S
C1736 C1049 1.580 . S
C1741 C215 1.318 . S
C1746 C1042 1.574 . S
C1751 C235 1.641 . S
C1756 C957 1.573 . S
C1766 C996 1.603 . S
C1761 C243 1.363 . S
C1776 C851 1.295 . S
C1771 C249 1.273 . S
C1786 C918 1.491 . S
C1781 C221 1.545 . S
C1791 C229 1.150 . S
C1796 C805 1.327 . S
