# Generated by pormake.
# Topology zzz, (3,6)-cn, num edge types: 1
# Building blocks:
#     Node 0, Type 0, BuildingBlock: CUQRIR_clean_linker_1, # of connection points: 3
#     Node 1, Type 0, BuildingBlock: CUQRIR_clean_linker_1, # of connection points: 3
#     Node 2, Type 0, BuildingBlock: CUQRIR_clean_linker_1, # of connection points: 3
#     Node 3, Type 0, BuildingBlock: CUQRIR_clean_linker_1, # of connection points: 3
#     Node 4, Type 0, BuildingBlock: CUQRIR_clean_linker_1, # of connection points: 3
#     Node 5, Type 0, BuildingBlock: CUQRIR_clean_linker_1, # of connection points: 3
#     Node 6, Type 0, BuildingBlock: CUQRIR_clean_linker_1, # of connection points: 3
#     Node 7, Type 0, BuildingBlock: CUQRIR_clean_linker_1, # of connection points: 3
#     Node 8, Type 1, BuildingBlock: NUHQIS_clean_sbu_0, # of connection points: 6
#     Node 9, Type 1, BuildingBlock: NUHQIS_clean_sbu_0, # of connection points: 6
#     Node 10, Type 1, BuildingBlock: NUHQIS_clean_sbu_0, # of connection points: 6
#     Node 11, Type 1, BuildingBlock: NUHQIS_clean_sbu_0, # of connection points: 6
#     Edge 12, Type (0, 1), BuildingBlock: OJICUG_clean_linker_0, # of connection points: 2
#     Edge 13, Type (0, 1), BuildingBlock: OJICUG_clean_linker_0, # of connection points: 2
#     Edge 14, Type (0, 1), BuildingBlock: OJICUG_clean_linker_0, # of connection points: 2
#     Edge 15, Type (0, 1), BuildingBlock: OJICUG_clean_linker_0, # of connection points: 2
#     Edge 16, Type (0, 1), BuildingBlock: OJICUG_clean_linker_0, # of connection points: 2
#     Edge 17, Type (0, 1), BuildingBlock: OJICUG_clean_linker_0, # of connection points: 2
#     Edge 18, Type (0, 1), BuildingBlock: OJICUG_clean_linker_0, # of connection points: 2
#     Edge 19, Type (0, 1), BuildingBlock: OJICUG_clean_linker_0, # of connection points: 2
#     Edge 20, Type (0, 1), BuildingBlock: OJICUG_clean_linker_0, # of connection points: 2
#     Edge 21, Type (0, 1), BuildingBlock: OJICUG_clean_linker_0, # of connection points: 2
#     Edge 22, Type (0, 1), BuildingBlock: OJICUG_clean_linker_0, # of connection points: 2
#     Edge 23, Type (0, 1), BuildingBlock: OJICUG_clean_linker_0, # of connection points: 2
#     Edge 24, Type (0, 1), BuildingBlock: OJICUG_clean_linker_0, # of connection points: 2
#     Edge 25, Type (0, 1), BuildingBlock: OJICUG_clean_linker_0, # of connection points: 2
#     Edge 26, Type (0, 1), BuildingBlock: OJICUG_clean_linker_0, # of connection points: 2
#     Edge 27, Type (0, 1), BuildingBlock: OJICUG_clean_linker_0, # of connection points: 2
#     Edge 28, Type (0, 1), BuildingBlock: OJICUG_clean_linker_0, # of connection points: 2
#     Edge 29, Type (0, 1), BuildingBlock: OJICUG_clean_linker_0, # of connection points: 2
#     Edge 30, Type (0, 1), BuildingBlock: OJICUG_clean_linker_0, # of connection points: 2
#     Edge 31, Type (0, 1), BuildingBlock: OJICUG_clean_linker_0, # of connection points: 2
#     Edge 32, Type (0, 1), BuildingBlock: OJICUG_clean_linker_0, # of connection points: 2
#     Edge 33, Type (0, 1), BuildingBlock: OJICUG_clean_linker_0, # of connection points: 2
#     Edge 34, Type (0, 1), BuildingBlock: OJICUG_clean_linker_0, # of connection points: 2
#     Edge 35, Type (0, 1), BuildingBlock: OJICUG_clean_linker_0, # of connection points: 2
# Relax obj value: 0.429
# Max RMSD: 0.190
# Mean RMSD: 0.135
data_MOF--net-zzz--node1-NUHQIS_clean_sbu_0--node2-CUQRIR_clean_linker_1--edge1-OJICUG_clean_linker_0
_symmetry_space_group_name_H-M    P1
_symmetry_Int_Tables_number       1
_symmetry_cell_setting            triclinic
loop_
_symmetry_equiv_pos_as_xyz
'x, y, z'
_cell_length_a     34.3504
_cell_length_b     34.34578
_cell_length_c     9.3255678
_cell_angle_alpha  89.789622
_cell_angle_beta   89.95301
_cell_angle_gamma 90.011433
loop_
_atom_site_label
_atom_site_type_symbol
_atom_site_fract_x
_atom_site_fract_y
_atom_site_fract_z
_atom_type_partial_charge
C0 C 0.76814 0.53251 0.40463 0.0
N1 N 0.80568 0.51866 0.40379 0.0
N2 N 0.75098 0.52884 0.27186 0.0
C3 C 0.74812 0.54863 0.53406 0.0
C4 C 0.78031 0.51406 0.1916 0.0
N5 N 0.81179 0.50582 0.27168 0.0
C6 C 0.77943 0.50914 0.03059 0.0
H7 H 0.71744 0.53863 0.53762 0.0
H8 H 0.74797 0.58087 0.52646 0.0
H9 H 0.76335 0.53989 0.63394 0.0
H10 H 0.75573 0.52629 0.98021 0.0
H11 H 0.77606 0.47786 1.00376 0.0
H12 H 0.80732 0.51916 0.98333 0.0
C13 C 1.02192 0.76848 0.40767 0.0
N14 N 0.03566 0.80609 0.40585 0.0
N15 N 1.0256 0.75122 0.27514 0.0
C16 C 1.00599 0.74842 0.53784 0.0
C17 C 0.0403 0.78054 0.19407 0.0
N18 N 0.04849 0.81211 0.27338 0.0
C19 C 0.04524 0.77959 0.033 0.0
H20 H 1.01675 0.718 0.54285 0.0
H21 H 0.97378 0.74741 0.52978 0.0
H22 H 1.01413 0.76411 0.63716 0.0
H23 H 0.02806 0.75586 0.98331 0.0
H24 H 0.0765 0.77617 1.00573 0.0
H25 H 0.03526 0.80747 0.98541 0.0
C26 C 0.7859 1.02197 0.40765 0.0
N27 N 0.74833 0.0357 0.40522 0.0
N28 N 0.80328 1.02542 0.27508 0.0
C29 C 0.8058 1.00628 0.53836 0.0
C30 C 0.77411 0.03999 0.19338 0.0
N31 N 0.74245 0.0483 0.27233 0.0
C32 C 0.77546 0.04496 0.0323 0.0
H33 H 0.83619 1.01713 0.54312 0.0
H34 H 0.80691 0.97406 0.53123 0.0
H35 H 0.78997 1.01451 0.63742 0.0
H36 H 0.79934 0.02783 0.98322 0.0
H37 H 0.77894 0.07624 1.00488 0.0
H38 H 0.74771 0.03497 0.98433 0.0
C39 C 0.5311 0.78613 0.40663 0.0
N40 N 0.517 0.74872 0.40617 0.0
N41 N 0.52725 0.80339 0.27394 0.0
C42 C 0.54749 0.806 0.5358 0.0
C43 C 0.51207 0.77428 0.19397 0.0
N44 N 0.50389 0.74275 0.2743 0.0
C45 C 0.50663 0.77545 0.03312 0.0
H46 H 0.53723 0.83659 0.5401 0.0
H47 H 0.5797 0.80647 0.52708 0.0
H48 H 0.5392 0.79048 0.63579 0.0
H49 H 0.52365 0.79924 0.98235 0.0
H50 H 0.47528 0.77889 1.00736 0.0
H51 H 0.51651 0.74767 0.98524 0.0
C52 C 0.28588 0.5239 0.31036 0.0
N53 N 0.24892 0.53923 0.31004 0.0
N54 N 0.30351 0.52852 0.44182 0.0
C55 C 0.30513 0.5058 0.18288 0.0
C56 C 0.27509 0.54557 0.52031 0.0
N57 N 0.24374 0.55403 0.43987 0.0
C58 C 0.27646 0.55231 0.6803 0.0
H59 H 0.3066 0.47382 0.19928 0.0
H60 H 0.33539 0.51678 0.17255 0.0
H61 H 0.28876 0.51195 0.08292 0.0
H62 H 0.28144 0.58366 0.70206 0.0
H63 H 0.29935 0.53457 0.73303 0.0
H64 H 0.24817 0.54428 0.7294 0.0
C65 C 0.0299 0.28681 0.30899 0.0
N66 N 1.01447 0.24986 0.30873 0.0
N67 N 1.0249 0.30453 0.44008 0.0
C68 C 0.04851 0.30597 0.18178 0.0
C69 C 1.0075 0.27615 0.51844 0.0
N70 N 0.99922 0.2448 0.43821 0.0
C71 C 1.00046 0.27746 0.67837 0.0
H72 H 0.08041 0.30741 0.19922 0.0
H73 H 0.0376 0.33624 0.17053 0.0
H74 H 0.0427 0.28954 0.08193 0.0
H75 H 0.96907 0.28246 0.69984 0.0
H76 H 1.01813 0.3003 0.73123 0.0
H77 H 1.00837 0.24915 0.72769 0.0
C78 C 0.26764 0.03011 0.30873 0.0
N79 N 0.30438 1.0143 0.30805 0.0
N80 N 0.24982 1.02507 0.43985 0.0
C81 C 0.24874 0.04909 0.18185 0.0
C82 C 0.27792 1.00724 0.51787 0.0
N83 N 0.30924 0.99879 0.43731 0.0
C84 C 0.27634 0.99985 0.67766 0.0
H85 H 0.24752 0.08097 0.19975 0.0
H86 H 0.2184 0.03841 0.17057 0.0
H87 H 0.2652 0.04334 0.08183 0.0
H88 H 0.2712 0.96843 0.6985 0.0
H89 H 0.25348 1.01748 0.73077 0.0
H90 H 0.30458 1.0076 0.72729 0.0
C91 C 0.52557 0.2682 0.3095 0.0
N92 N 0.54212 0.3046 0.30657 0.0
N93 N 0.53128 0.25025 0.44005 0.0
C94 C 0.50518 0.24976 0.18518 0.0
C95 C 0.55032 0.27794 0.51568 0.0
N96 N 0.55873 0.30912 0.43385 0.0
C97 C 0.55856 0.27627 0.67482 0.0
H98 H 0.47343 0.24927 0.20693 0.0
H99 H 0.51507 0.21919 0.17284 0.0
H100 H 0.51052 0.26611 0.08434 0.0
H101 H 0.59007 0.2711 0.69288 0.0
H102 H 0.54116 0.25347 0.72983 0.0
H103 H 0.55105 0.30445 0.72508 0.0
Tb104 Tb 0.04747 1.01368 0.98545 0.0
Eu105 Eu 1.00347 0.04486 0.70875 0.0
C106 C 0.09571 0.03539 0.69867 0.0
C107 C 1.02002 0.1061 0.96402 0.0
C108 C 0.12806 0.98249 0.22074 0.0
C109 C 0.17739 0.94131 0.11509 0.0
C110 C 0.15407 0.9747 0.10768 0.0
C111 C 0.13212 0.96251 0.35022 0.0
C112 C 0.1578 0.93128 0.35889 0.0
C113 C 0.17111 0.91522 0.22945 0.0
C114 C 0.09202 1.00383 0.19629 0.0
O115 O 0.98706 1.00384 0.05533 0.0
O116 O 0.95786 0.04212 0.885 0.0
O117 O 1.01778 0.9811 0.66467 0.0
O118 O 0.04199 0.95648 0.87463 0.0
C119 C 0.95608 1.02174 1.00473 0.0
O120 O 0.95662 1.0261 0.5686 0.0
O121 O 0.99012 0.07781 0.51484 0.0
O122 O 0.06654 0.05583 0.64801 0.0
O123 O 0.09103 1.01309 0.81259 0.0
O124 O 0.03334 0.07528 0.03355 0.0
O125 O 1.00739 0.10262 0.83096 0.0
C126 C 0.03011 0.9512 0.7409 0.0
O127 O 0.09442 0.03326 0.10832 0.0
O128 O 0.06143 0.9822 0.17146 0.0
C129 C 0.92437 0.07701 0.45028 0.0
C130 C 0.87819 0.14227 0.43728 0.0
C131 C 0.87019 0.1142 0.54355 0.0
C132 C 0.89503 0.08199 0.55409 0.0
C133 C 0.92301 0.0988 0.32383 0.0
C134 C 0.89614 0.1289 0.31112 0.0
C135 C 0.96013 0.056 0.48319 0.0
H136 H 0.19117 0.93125 1.01752 0.0
H137 H 0.15238 0.99067 1.00752 0.0
H138 H 0.11239 0.96801 0.43844 0.0
H139 H 0.15667 0.91371 0.4556 0.0
H140 H 0.85309 0.12207 0.63666 0.0
H141 H 0.89468 0.06461 0.65127 0.0
H142 H 0.9448 0.09493 0.24095 0.0
H143 H 0.89881 0.14781 0.21833 0.0
Tb144 Tb 0.54054 0.0475 0.98474 0.0
Eu145 Eu 0.50949 1.00404 0.70715 0.0
C146 C 0.51918 0.09619 0.69906 0.0
C147 C 0.44819 1.02012 0.96299 0.0
C148 C 0.57189 0.12778 0.21927 0.0
C149 C 0.61332 0.17693 0.11247 0.0
C150 C 0.5798 0.1538 0.10594 0.0
C151 C 0.59198 0.13161 0.34821 0.0
C152 C 0.62336 0.1571 0.35616 0.0
C153 C 0.63939 0.17057 0.22646 0.0
C154 C 0.55031 0.09189 0.19542 0.0
O155 O 0.55007 0.987 0.05392 0.0
O156 O 0.51217 0.95808 0.8825 0.0
O157 O 0.57325 1.01844 0.66344 0.0
O158 O 0.5978 0.04178 0.87427 0.0
C159 C 0.53231 0.95613 1.00244 0.0
O160 O 0.52825 0.95756 0.56554 0.0
O161 O 0.4767 0.99136 0.51296 0.0
O162 O 0.49846 0.06726 0.64868 0.0
O163 O 0.54165 0.09112 0.81189 0.0
O164 O 0.47892 0.03341 0.03245 0.0
O165 O 0.45174 1.0076 0.82993 0.0
C166 C 0.60312 0.03029 0.7402 0.0
O167 O 0.521 0.09446 0.10747 0.0
O168 O 0.57177 0.06116 0.17094 0.0
C169 C 0.47741 0.92582 0.44595 0.0
C170 C 0.41245 0.87916 0.43137 0.0
C171 C 0.44063 0.87085 0.53651 0.0
C172 C 0.47265 0.89587 0.54793 0.0
C173 C 0.4555 0.9251 0.32008 0.0
C174 C 0.42548 0.89821 0.30645 0.0
C175 C 0.49847 0.96142 0.48026 0.0
H176 H 0.62342 0.19071 1.01462 0.0
H177 H 0.56378 0.15225 1.00613 0.0
H178 H 0.5864 0.11183 0.43654 0.0
H179 H 0.64098 0.15576 0.45243 0.0
H180 H 0.43297 0.85312 0.6286 0.0
H181 H 0.49011 0.89506 0.64457 0.0
H182 H 0.45932 0.9473 0.23831 0.0
H183 H 0.40646 0.90136 0.21445 0.0
Tb184 Tb 0.5066 0.54061 0.98495 0.0
Eu185 Eu 0.55017 0.51012 0.70609 0.0
C186 C 0.45778 0.51915 0.70016 0.0
C187 C 0.5347 0.44857 0.9622 0.0
C188 C 0.42648 0.57084 0.22393 0.0
C189 C 0.39697 0.62158 0.36388 0.0
C190 C 0.42272 0.59048 0.35375 0.0
C191 C 0.40007 0.57876 0.11224 0.0
C192 C 0.3765 0.61192 0.12113 0.0
C193 C 0.3829 0.63778 0.23539 0.0
C194 C 0.46253 0.54973 0.19765 0.0
O195 O 0.56718 0.55042 0.05254 0.0
O196 O 0.5964 0.51303 0.88012 0.0
O197 O 0.53557 0.57387 0.66371 0.0
O198 O 0.5119 0.59799 0.87484 0.0
C199 C 0.59822 0.53303 1.00029 0.0
O200 O 0.59654 0.52889 0.56293 0.0
O201 O 0.56221 0.47776 0.51052 0.0
O202 O 0.48695 0.49886 0.64901 0.0
O203 O 0.46261 0.54139 0.81354 0.0
O204 O 0.52139 0.47916 0.03217 0.0
O205 O 0.54696 0.45225 0.82865 0.0
C206 C 0.52347 0.60353 0.74081 0.0
O207 O 0.46003 0.52052 0.1095 0.0
O208 O 0.49295 0.57156 0.17168 0.0
C209 C 0.62732 0.47854 0.43674 0.0
C210 C 0.67515 0.41454 0.41236 0.0
C211 C 0.68408 0.44274 0.51635 0.0
C212 C 0.65855 0.47417 0.53303 0.0
C213 C 0.62679 0.45677 0.31075 0.0
C214 C 0.65382 0.4271 0.29202 0.0
C215 C 0.59207 0.49954 0.47638 0.0
H216 H 0.39836 0.63895 0.46057 0.0
H217 H 0.44271 0.58479 0.4411 0.0
H218 H 0.40155 0.56306 1.01187 0.0
H219 H 0.36229 0.62211 0.02438 0.0
H220 H 0.70321 0.4354 0.60468 0.0
H221 H 0.66028 0.49156 0.62948 0.0
H222 H 0.6037 0.46052 0.23268 0.0
H223 H 0.64975 0.4081 0.2007 0.0
Tb224 Tb 1.01299 0.5069 0.98544 0.0
Eu225 Eu 0.0441 0.55115 0.70873 0.0
C226 C 0.03464 0.45874 0.69866 0.0
C227 C 0.10537 0.53419 0.96404 0.0
C228 C 0.98189 0.42621 0.22178 0.0
C229 C 0.94078 0.37678 0.1167 0.0
C230 C 0.97411 0.4002 0.10907 0.0
C231 C 0.962 0.42205 0.35127 0.0
C232 C 0.93085 0.39627 0.36018 0.0
C233 C 0.91472 0.38302 0.23082 0.0
C234 C 1.00315 0.46231 0.19692 0.0
O235 O 1.00335 0.56735 0.0552 0.0
O236 O 0.04157 0.59665 0.88489 0.0
O237 O 0.98037 0.53689 0.66432 0.0
O238 O 0.95583 0.51236 0.87406 0.0
C239 C 1.02128 0.59839 1.0046 0.0
O240 O 1.02536 0.59829 0.56885 0.0
O241 O 0.07699 0.56481 0.51512 0.0
O242 O 0.0548 0.4881 0.64733 0.0
O243 O 1.01263 0.46321 0.81325 0.0
O244 O 0.07457 0.52096 0.03369 0.0
O245 O 0.10189 0.54688 0.83087 0.0
C246 C 0.95054 0.5244 0.74033 0.0
O247 O 0.0326 0.45998 0.10944 0.0
O248 O 0.98145 0.49284 0.17114 0.0
C249 C 0.07645 0.63077 0.45256 0.0
C250 C 0.14221 0.67626 0.4425 0.0
C251 C 0.11427 0.68403 0.54902 0.0
C252 C 0.08177 0.65953 0.55795 0.0
C253 C 0.09822 0.63257 0.32633 0.0
C254 C 0.12853 0.65926 0.31515 0.0
C255 C 0.05528 0.59496 0.48387 0.0
H256 H 0.9307 0.36298 0.0193 0.0
H257 H 0.99002 0.40195 1.00894 0.0
H258 H 0.96751 0.44178 0.43928 0.0
H259 H 0.91334 0.39731 0.45684 0.0
H260 H 0.12238 0.70052 0.64316 0.0
H261 H 0.06445 0.65953 0.65508 0.0
H262 H 0.09421 0.61114 0.24255 0.0
H263 H 0.14737 0.65689 0.22231 0.0
C264 C 0.19331 0.99709 0.56923 0.0
C265 C 0.20901 0.02752 0.48527 0.0
H266 H 0.14809 0.97672 0.70716 0.0
C267 C 0.18546 0.0607 0.46358 0.0
H268 H 0.20913 0.97011 0.58272 0.0
C269 C 0.14806 0.0634 0.52862 0.0
C270 C 0.13416 0.03369 0.6211 0.0
H271 H 0.19627 0.08488 0.40045 0.0
H272 H 0.1307 0.08926 0.51065 0.0
C273 C 0.15777 1.00078 0.6406 0.0
C274 C 0.55864 0.19318 0.5677 0.0
C275 C 0.52818 0.20951 0.48606 0.0
H276 H 0.57872 0.14748 0.70403 0.0
C277 C 0.49447 0.1866 0.46664 0.0
H278 H 0.58598 0.20847 0.57924 0.0
C279 C 0.49137 0.14918 0.53156 0.0
C280 C 0.5212 0.13467 0.62176 0.0
H281 H 0.47023 0.19791 0.40536 0.0
H282 H 0.46514 0.13227 0.51535 0.0
C283 C 0.55459 0.15767 0.63922 0.0
C284 C 0.35958 0.55669 0.57245 0.0
C285 C 0.34432 0.52641 0.48752 0.0
H286 H 0.40452 0.57709 0.71093 0.0
C287 C 0.36828 0.4936 0.46513 0.0
H288 H 0.34342 0.58342 0.58655 0.0
C289 C 0.40566 0.4911 0.53027 0.0
C290 C 0.41918 0.52062 0.62355 0.0
H291 H 0.35783 0.46955 0.40124 0.0
H292 H 0.42337 0.46554 0.51151 0.0
C293 C 0.39515 0.55317 0.64383 0.0
C294 C 0.06002 0.36929 0.46292 0.0
C295 C 0.02715 0.34535 0.48573 0.0
H296 H 0.08821 0.42432 0.50885 0.0
C297 C 0.99688 0.3607 0.57087 0.0
H298 H 0.08408 0.35882 0.39889 0.0
C299 C 1.00047 0.39624 0.64208 0.0
C300 C 0.03307 0.42024 0.62143 0.0
H301 H 0.97008 0.34463 0.58524 0.0
H302 H 0.97655 0.40562 0.70942 0.0
C303 C 0.06259 0.40668 0.52787 0.0
C304 C 0.85765 0.05586 0.14148 0.0
C305 C 0.84415 1.02526 0.22959 0.0
H306 H 0.9006 0.07736 0.99613 0.0
C307 C 0.86963 0.9936 0.25257 0.0
H308 H 0.84013 0.08172 0.12627 0.0
C309 C 0.90671 0.99241 0.18426 0.0
C310 C 0.91827 1.02201 0.08692 0.0
H311 H 0.8605 0.96937 0.31905 0.0
H312 H 0.92559 0.96769 0.20317 0.0
C313 C 0.89276 0.05343 0.06653 0.0
C314 C 0.49738 0.85798 0.13996 0.0
C315 C 0.52789 0.84419 0.22742 0.0
H316 H 0.47625 0.90116 0.99476 0.0
C317 C 0.55981 0.86935 0.24953 0.0
H318 H 0.47131 0.84075 0.12566 0.0
C319 C 0.56131 0.90643 0.18103 0.0
C320 C 0.53178 0.91826 0.08432 0.0
H321 H 0.58397 0.85999 0.31555 0.0
H322 H 0.5862 0.9251 0.19934 0.0
C323 C 0.50013 0.89306 0.06463 0.0
C324 C 0.6968 0.49888 0.13648 0.0
C325 C 0.7102 0.52924 0.22504 0.0
H326 H 0.65403 0.47775 0.99038 0.0
C327 C 0.68467 0.56083 0.2479 0.0
H328 H 0.71427 0.47301 0.12152 0.0
C329 C 0.64763 0.56214 0.17933 0.0
C330 C 0.63618 0.53279 0.08163 0.0
H331 H 0.69366 0.58489 0.31475 0.0
H332 H 0.62867 0.58675 0.19858 0.0
C333 C 0.66178 0.5015 0.06097 0.0
C334 C 0.99363 0.68481 0.25269 0.0
C335 C 1.0252 0.7104 0.22889 0.0
H336 H 0.96766 0.62881 0.20428 0.0
C337 C 0.05554 0.69697 0.1399 0.0
H338 H 0.96958 0.69381 0.31983 0.0
C339 C 0.05297 0.66187 0.06524 0.0
C340 C 1.02166 0.63624 0.08655 0.0
H341 H 0.08139 0.71446 0.12413 0.0
H342 H 0.07673 0.65413 0.99438 0.0
C343 C 0.9923 0.64775 0.18454 0.0
C344 C 0.93108 0.23261 0.37668 0.0
C345 C 0.96389 0.22369 0.46021 0.0
H346 H 0.87404 0.21463 0.31315 0.0
C347 C 0.961 0.19637 0.57026 0.0
H348 H 0.93262 0.25513 0.29527 0.0
C349 C 0.92685 0.17521 0.58747 0.0
C350 C 0.89635 0.17895 0.4864 0.0
H351 H 0.98592 0.18983 0.63674 0.0
H352 H 0.92722 0.15183 0.66567 0.0
C353 C 0.89714 0.21066 0.39087 0.0
C354 C 0.35729 0.96021 0.56941 0.0
C355 C 0.33023 0.96338 0.45901 0.0
H356 H 0.40187 0.92637 0.66373 0.0
C357 C 0.32163 0.93082 0.37417 0.0
H358 H 0.3636 0.98493 0.63686 0.0
C359 C 0.34378 0.89698 0.38715 0.0
C360 C 0.3754 0.89613 0.48253 0.0
H361 H 0.29929 0.93254 0.29248 0.0
H362 H 0.34016 0.87418 0.30824 0.0
C363 C 0.37861 0.92613 0.58545 0.0
C364 C 0.62589 0.32262 0.36073 0.0
C365 C 0.59427 0.33015 0.45196 0.0
H366 H 0.68118 0.34276 0.2853 0.0
C367 C 0.59842 0.35654 0.56383 0.0
H368 H 0.62351 0.30079 0.27764 0.0
C369 C 0.63229 0.37836 0.57519 0.0
C370 C 0.66077 0.37658 0.4658 0.0
H371 H 0.57447 0.36219 0.63593 0.0
H372 H 0.63263 0.40116 0.65505 0.0
C373 C 0.65944 0.34537 0.36897 0.0
C374 C 0.1953 0.59192 0.57184 0.0
C375 C 0.2227 0.58934 0.46236 0.0
H376 H 0.15094 0.62561 0.66772 0.0
C377 C 0.23194 0.62244 0.38042 0.0
H378 H 0.18856 0.56675 0.63723 0.0
C379 C 0.21027 0.6565 0.39569 0.0
C380 C 0.17855 0.65715 0.49078 0.0
H381 H 0.25454 0.62111 0.29953 0.0
H382 H 0.21454 0.67995 0.31927 0.0
C383 C 0.17438 0.62615 0.59007 0.0
C384 C 0.11708 0.82632 0.31982 0.0
C385 C 0.08265 0.83451 0.24452 0.0
H386 H 0.17536 0.84456 0.3651 0.0
C387 C 0.083 0.86167 0.13339 0.0
H388 H 0.11742 0.804 0.40215 0.0
C389 C 0.11655 0.88298 0.10566 0.0
C390 C 0.14952 0.87913 0.19554 0.0
H391 H 0.05679 0.86764 0.07296 0.0
H392 H 0.11447 0.90604 0.02658 0.0
C393 C 0.15053 0.84831 0.29479 0.0
C394 C 0.72832 0.11699 0.31665 0.0
C395 C 0.72016 0.08245 0.24241 0.0
H396 H 0.71005 0.17531 0.36053 0.0
C397 C 0.69312 0.08268 0.13132 0.0
H398 H 0.75057 0.11743 0.39884 0.0
C399 C 0.67181 0.11618 0.10292 0.0
C400 C 0.67557 0.14923 0.19204 0.0
H401 H 0.68721 0.05639 0.07157 0.0
H402 H 0.64877 0.114 0.02422 0.0
C403 C 0.70637 0.15041 0.29084 0.0
C404 C 0.43564 0.72741 0.32369 0.0
C405 C 0.46994 0.72 0.24653 0.0
H406 H 0.37786 0.70801 0.37199 0.0
C407 C 0.46968 0.69308 0.13529 0.0
H408 H 0.43521 0.7495 0.40625 0.0
C409 C 0.43642 0.67126 0.10918 0.0
C410 C 0.40372 0.67433 0.2008 0.0
H411 H 0.49579 0.68762 0.07364 0.0
H412 H 0.43864 0.6484 0.02999 0.0
C413 C 0.4025 0.70489 0.30031 0.0
C414 C 0.82597 0.43724 0.3198 0.0
C415 C 0.83417 0.47164 0.24382 0.0
H416 H 0.84413 0.37894 0.36636 0.0
C417 C 0.86128 0.47122 0.13283 0.0
H418 H 0.80367 0.43694 0.40199 0.0
C419 C 0.88253 0.43763 0.10589 0.0
C420 C 0.87867 0.40469 0.19642 0.0
H421 H 0.86727 0.4974 0.07185 0.0
H422 H 0.90553 0.43967 0.0268 0.0
C423 C 0.84789 0.40375 0.29557 0.0
C424 C 1.0029 0.21517 0.07145 0.0
C425 C 1.01968 0.21682 0.20989 0.0
H426 H 0.98926 0.17979 0.886 0.0
C427 C 0.03631 0.18212 0.26276 0.0
H428 H 0.98842 0.24062 0.02827 0.0
C429 C 0.03655 0.14738 0.18245 0.0
C430 C 1.01979 0.14509 0.04429 0.0
H431 H 0.04852 0.18166 0.36978 0.0
H432 H 0.04965 0.12187 0.23102 0.0
C433 C 1.00309 0.17994 0.98997 0.0
C434 C 0.33916 1.00298 0.07068 0.0
C435 C 0.33749 1.01956 0.20925 0.0
H436 H 0.37462 0.98959 0.88486 0.0
C437 C 0.37213 0.03607 0.26218 0.0
H438 H 0.3137 0.98862 0.02756 0.0
C439 C 0.4069 0.03637 0.18172 0.0
C440 C 0.40921 1.01981 0.04341 0.0
H441 H 0.37251 0.04812 0.36932 0.0
H442 H 0.43239 0.04936 0.23026 0.0
C443 C 0.37441 1.00324 0.98902 0.0
C444 C 0.55172 0.3394 0.06785 0.0
C445 C 0.53644 0.33785 0.20869 0.0
H446 H 0.56363 0.37478 0.87989 0.0
C447 C 0.52084 0.37263 0.2639 0.0
H448 H 0.56534 0.31379 0.02278 0.0
C449 C 0.52018 0.40743 0.18343 0.0
C450 C 0.53544 0.40961 0.04281 0.0
H451 H 0.50979 0.37307 0.3727 0.0
H452 H 0.50797 0.43303 0.23375 0.0
C453 C 0.55108 0.37468 0.98614 0.0
C454 C 0.21424 0.55158 0.07298 0.0
C455 C 0.21598 0.53417 0.21062 0.0
H456 H 0.17878 0.56584 0.88786 0.0
C457 C 0.18146 0.51697 0.26233 0.0
H458 H 0.23958 0.56648 0.03084 0.0
C459 C 0.14675 0.51682 0.18168 0.0
C460 C 0.14436 0.53424 0.04438 0.0
H461 H 0.18112 0.50424 0.36876 0.0
H462 H 0.12136 0.50327 0.2293 0.0
C463 C 0.17905 0.55148 0.99112 0.0
C464 C 0.05004 0.84215 0.63839 0.0
C465 C 0.03015 0.83878 0.50596 0.0
H466 H 0.0661 0.87939 0.81655 0.0
C467 C 1.01001 0.87202 0.45761 0.0
H468 H 0.06712 0.81788 0.67761 0.0
C469 C 1.00969 0.9071 0.53561 0.0
C470 C 0.0298 0.91129 0.66696 0.0
H471 H 0.99524 0.87117 0.35511 0.0
H472 H 0.99391 0.93148 0.49013 0.0
C473 C 0.04968 0.87776 0.71794 0.0
C474 C 0.71212 0.05021 0.63743 0.0
C475 C 0.71558 0.03025 0.50539 0.0
H476 H 0.67473 0.06633 0.81537 0.0
C477 C 0.68246 1.00999 0.45751 0.0
H478 H 0.73634 0.06736 0.67617 0.0
C479 C 0.64734 1.00967 0.53559 0.0
C480 C 0.64306 0.02989 0.66647 0.0
H481 H 0.68344 0.99513 0.35532 0.0
H482 H 0.62302 0.99382 0.49056 0.0
C483 C 0.67648 0.04984 0.71709 0.0
C484 C 0.5027 0.71233 0.63839 0.0
C485 C 0.52285 0.71608 0.50654 0.0
H486 H 0.48667 0.67463 0.81624 0.0
C487 C 0.54362 0.68329 0.45883 0.0
H488 H 0.48521 0.73634 0.67688 0.0
C489 C 0.54417 0.64812 0.53689 0.0
C490 C 0.52371 0.64352 0.66746 0.0
H491 H 0.55862 0.68453 0.35672 0.0
H492 H 0.56038 0.62402 0.49203 0.0
C493 C 0.50332 0.67666 0.71806 0.0
C494 C 0.87133 0.54474 0.45668 0.0
C495 C 0.83826 0.52424 0.50437 0.0
H496 H 0.93067 0.56116 0.49017 0.0
C497 C 0.8417 0.50408 0.63655 0.0
H498 H 0.8704 0.55972 0.35435 0.0
C499 C 0.87726 0.5045 0.71653 0.0
C500 C 0.91065 0.52471 0.66615 0.0
H501 H 0.81752 0.48675 0.67518 0.0
H502 H 0.87899 0.48786 0.81494 0.0
C503 C 0.90638 0.54511 0.53511 0.0
loop_
_geom_bond_atom_site_label_1
_geom_bond_atom_site_label_2
_geom_bond_distance
_geom_bond_site_symmetry_2
_ccdc_geom_bond_type
C0 N1 1.317 . S
C0 N2 1.348 . S
C0 C3 1.485 . S
N1 C0 1.317 . S
N1 N5 1.370 . S
N2 C0 1.348 . S
N2 C4 1.346 . S
C3 C0 1.485 . S
C3 H7 0.960 . S
C3 H8 0.961 . S
C3 H9 0.960 . S
C4 N2 1.346 . S
C4 N5 1.307 . S
C4 C6 1.486 . S
N5 N1 1.370 . S
N5 C4 1.307 . S
C6 C4 1.486 . S
C6 H10 0.960 . S
C6 H11 0.960 . S
C6 H12 0.959 . S
H7 C3 0.960 . S
H8 C3 0.961 . S
H9 C3 0.960 . S
H10 C6 0.960 . S
H11 C6 0.960 . S
H12 C6 0.959 . S
C13 N14 1.317 . S
C13 N15 1.348 . S
C13 C16 1.485 . S
N14 C13 1.317 . S
N14 N18 1.371 . S
N15 C13 1.348 . S
N15 C17 1.346 1_655 S
C16 C13 1.485 . S
C16 H20 0.960 1_655 S
C16 H21 0.961 . S
C16 H22 0.960 . S
C17 N15 1.346 1_455 S
C17 N18 1.307 1_455 S
C17 C19 1.486 . S
N18 N14 1.371 . S
N18 C17 1.307 1_655 S
C19 C17 1.486 . S
C19 H23 0.960 1_455 S
C19 H24 0.960 . S
C19 H25 0.959 . S
H20 C16 0.960 1_455 S
H21 C16 0.961 . S
H22 C16 0.960 . S
H23 C19 0.960 1_655 S
H24 C19 0.960 . S
H25 C19 0.959 . S
C26 N27 1.317 . S
C26 N28 1.348 . S
C26 C29 1.485 . S
N27 C26 1.317 . S
N27 N31 1.371 . S
N28 C26 1.348 . S
N28 C30 1.346 1_565 S
C29 C26 1.485 . S
C29 H33 0.960 1_565 S
C29 H34 0.961 . S
C29 H35 0.960 . S
C30 N28 1.346 1_545 S
C30 N31 1.307 1_545 S
C30 C32 1.486 . S
N31 N27 1.371 . S
N31 C30 1.307 1_565 S
C32 C30 1.486 . S
C32 H36 0.960 1_545 S
C32 H37 0.960 . S
C32 H38 0.959 . S
H33 C29 0.960 1_545 S
H34 C29 0.961 . S
H35 C29 0.960 . S
H36 C32 0.960 1_565 S
H37 C32 0.960 . S
H38 C32 0.959 . S
C39 N40 1.317 . S
C39 N41 1.348 . S
C39 C42 1.485 . S
N40 C39 1.317 . S
N40 N44 1.370 . S
N41 C39 1.348 . S
N41 C43 1.346 . S
C42 C39 1.485 . S
C42 H46 0.960 . S
C42 H47 0.961 . S
C42 H48 0.960 . S
C43 N41 1.346 . S
C43 N44 1.307 . S
C43 C45 1.486 . S
N44 N40 1.370 . S
N44 C43 1.307 . S
C45 C43 1.486 . S
C45 H49 0.960 . S
C45 H50 0.960 . S
C45 H51 0.959 . S
H46 C42 0.960 . S
H47 C42 0.961 . S
H48 C42 0.960 . S
H49 C45 0.960 . S
H50 C45 0.960 . S
H51 C45 0.959 . S
C52 N53 1.317 . S
C52 N54 1.348 1_556 S
C52 C55 1.485 . S
N53 C52 1.317 . S
N53 N57 1.370 1_556 S
N54 C52 1.348 1_554 S
N54 C56 1.346 . S
C55 C52 1.485 . S
C55 H59 0.960 . S
C55 H60 0.961 . S
C55 H61 0.960 . S
C56 N54 1.346 . S
C56 N57 1.307 . S
C56 C58 1.486 . S
N57 N53 1.370 1_554 S
N57 C56 1.307 . S
C58 C56 1.486 . S
C58 H62 0.960 . S
C58 H63 0.960 . S
C58 H64 0.959 . S
H59 C55 0.960 . S
H60 C55 0.961 . S
H61 C55 0.960 . S
H62 C58 0.960 . S
H63 C58 0.960 . S
H64 C58 0.959 . S
C65 N66 1.317 . S
C65 N67 1.350 1_556 S
C65 C68 1.485 . S
N66 C65 1.317 . S
N66 N70 1.371 1_556 S
N67 C65 1.350 1_554 S
N67 C69 1.345 1_655 S
C68 C65 1.485 . S
C68 H72 0.960 1_655 S
C68 H73 0.961 . S
C68 H74 0.960 . S
C69 N67 1.345 1_455 S
C69 N70 1.307 1_455 S
C69 C71 1.487 . S
N70 N66 1.371 1_554 S
N70 C69 1.307 1_655 S
C71 C69 1.487 . S
C71 H75 0.960 1_455 S
C71 H76 0.960 . S
C71 H77 0.959 . S
H72 C68 0.960 1_455 S
H73 C68 0.961 . S
H74 C68 0.960 . S
H75 C71 0.960 1_655 S
H76 C71 0.960 . S
H77 C71 0.959 . S
C78 N79 1.317 . S
C78 N80 1.350 1_556 S
C78 C81 1.485 . S
N79 C78 1.317 . S
N79 N83 1.371 1_556 S
N80 C78 1.350 1_554 S
N80 C82 1.345 1_565 S
C81 C78 1.485 . S
C81 H85 0.960 1_565 S
C81 H86 0.961 . S
C81 H87 0.960 . S
C82 N80 1.345 1_545 S
C82 N83 1.307 1_545 S
C82 C84 1.487 . S
N83 N79 1.371 1_554 S
N83 C82 1.307 1_565 S
C84 C82 1.487 . S
C84 H88 0.960 1_545 S
C84 H89 0.960 . S
C84 H90 0.959 . S
H85 C81 0.960 1_545 S
H86 C81 0.961 . S
H87 C81 0.960 . S
H88 C84 0.960 1_565 S
H89 C84 0.960 . S
H90 C84 0.959 . S
C91 N92 1.317 . S
C91 N93 1.348 1_556 S
C91 C94 1.485 . S
N92 C91 1.317 . S
N92 N96 1.370 1_556 S
N93 C91 1.348 1_554 S
N93 C95 1.346 . S
C94 C91 1.485 . S
C94 H98 0.960 . S
C94 H99 0.961 . S
C94 H100 0.960 . S
C95 N93 1.346 . S
C95 N96 1.307 . S
C95 C97 1.486 . S
N96 N92 1.370 1_554 S
N96 C95 1.307 . S
C97 C95 1.486 . S
C97 H101 0.960 . S
C97 H102 0.960 . S
C97 H103 0.959 . S
H98 C94 0.960 . S
H99 C94 0.961 . S
H100 C94 0.960 . S
H101 C97 0.960 . S
H102 C97 0.960 . S
H103 C97 0.959 . S
Tb104 C114 2.825 1_556 S
Tb104 O115 2.347 1_455 S
Tb104 O118 2.366 . S
Tb104 O123 2.418 . S
Tb104 O124 2.384 1_565 S
Tb104 O127 2.479 1_556 S
Tb104 O128 2.471 1_556 S
Eu105 O116 2.418 . S
Eu105 O117 2.384 1_545 S
Eu105 O120 2.479 . S
Eu105 O121 2.471 . S
Eu105 O122 2.347 1_655 S
Eu105 O125 2.366 . S
Eu105 C135 2.825 . S
C106 O122 1.259 1_565 S
C106 O123 1.265 . S
C107 O124 1.255 . S
C107 O125 1.265 1_455 S
C108 C110 1.380 . S
C108 C111 1.374 . S
C108 C114 1.507 . S
C109 C110 1.384 . S
C109 C113 1.387 . S
C109 H136 0.930 . S
C110 C108 1.380 . S
C110 C109 1.384 . S
C110 H137 0.931 . S
C111 C108 1.374 . S
C111 C112 1.390 . S
C111 H138 0.930 1_455 S
C112 C111 1.390 . S
C112 C113 1.391 . S
C112 H139 0.930 1_455 S
C113 C109 1.387 . S
C113 C112 1.391 . S
C114 Tb104 2.825 1_554 S
C114 C108 1.507 . S
C114 O127 1.238 . S
C114 O128 1.247 . S
O115 Tb104 2.347 1_655 S
O115 C119 1.259 1_565 S
O116 Eu105 2.418 . S
O116 C119 1.265 . S
O117 Eu105 2.384 1_565 S
O117 C126 1.255 . S
O118 Tb104 2.366 . S
O118 C126 1.265 1_455 S
C119 O115 1.259 1_545 S
C119 O116 1.265 . S
O120 Eu105 2.479 . S
O120 C135 1.238 . S
O121 Eu105 2.471 . S
O121 C135 1.247 . S
O122 Eu105 2.347 1_455 S
O122 C106 1.259 1_545 S
O123 Tb104 2.418 . S
O123 C106 1.265 . S
O124 Tb104 2.384 1_545 S
O124 C107 1.255 . S
O125 Eu105 2.366 . S
O125 C107 1.265 1_655 S
C126 O117 1.255 . S
C126 O118 1.265 1_655 S
O127 Tb104 2.479 1_554 S
O127 C114 1.238 . S
O128 Tb104 2.471 1_554 S
O128 C114 1.247 . S
C129 C132 1.380 . S
C129 C133 1.374 . S
C129 C135 1.507 . S
C130 C131 1.387 . S
C130 C134 1.391 . S
C131 C130 1.387 . S
C131 C132 1.384 . S
C131 H140 0.930 . S
C132 C129 1.380 . S
C132 C131 1.384 . S
C132 H141 0.931 . S
C133 C129 1.374 . S
C133 C134 1.390 . S
C133 H142 0.930 1_655 S
C134 C130 1.391 . S
C134 C133 1.390 . S
C134 H143 0.930 1_655 S
C135 Eu105 2.825 . S
C135 O120 1.238 . S
C135 O121 1.247 . S
C135 C129 1.507 . S
H136 C109 0.930 . S
H137 C110 0.931 . S
H138 C111 0.930 1_655 S
H139 C112 0.930 1_655 S
H140 C131 0.930 . S
H141 C132 0.931 . S
H142 C133 0.930 1_455 S
H143 C134 0.930 1_455 S
Tb144 C154 2.825 1_556 S
Tb144 O155 2.347 1_545 S
Tb144 O158 2.366 . S
Tb144 O163 2.418 . S
Tb144 O164 2.384 . S
Tb144 O167 2.479 1_556 S
Tb144 O168 2.471 1_556 S
Eu145 O156 2.418 . S
Eu145 O157 2.384 . S
Eu145 O160 2.479 . S
Eu145 O161 2.471 . S
Eu145 O162 2.347 1_565 S
Eu145 O165 2.366 . S
Eu145 C175 2.825 . S
C146 O162 1.259 . S
C146 O163 1.265 . S
C147 O164 1.255 . S
C147 O165 1.265 1_545 S
C148 C150 1.380 . S
C148 C151 1.374 . S
C148 C154 1.507 . S
C149 C150 1.384 . S
C149 C153 1.387 . S
C149 H176 0.930 . S
C150 C148 1.380 . S
C150 C149 1.384 . S
C150 H177 0.931 . S
C151 C148 1.374 . S
C151 C152 1.390 . S
C151 H178 0.930 1_545 S
C152 C151 1.390 . S
C152 C153 1.391 . S
C152 H179 0.930 1_545 S
C153 C149 1.387 . S
C153 C152 1.391 . S
C154 Tb144 2.825 1_554 S
C154 C148 1.507 . S
C154 O167 1.238 . S
C154 O168 1.247 . S
O155 Tb144 2.347 1_565 S
O155 C159 1.259 . S
O156 Eu145 2.418 . S
O156 C159 1.265 . S
O157 Eu145 2.384 . S
O157 C166 1.255 . S
O158 Tb144 2.366 . S
O158 C166 1.265 1_545 S
C159 O155 1.259 . S
C159 O156 1.265 . S
O160 Eu145 2.479 . S
O160 C175 1.238 . S
O161 Eu145 2.471 . S
O161 C175 1.247 . S
O162 Eu145 2.347 1_545 S
O162 C146 1.259 . S
O163 Tb144 2.418 . S
O163 C146 1.265 . S
O164 Tb144 2.384 . S
O164 C147 1.255 . S
O165 Eu145 2.366 . S
O165 C147 1.265 1_565 S
C166 O157 1.255 . S
C166 O158 1.265 1_565 S
O167 Tb144 2.479 1_554 S
O167 C154 1.238 . S
O168 Tb144 2.471 1_554 S
O168 C154 1.247 . S
C169 C172 1.380 . S
C169 C173 1.374 . S
C169 C175 1.507 . S
C170 C171 1.387 . S
C170 C174 1.391 . S
C171 C170 1.387 . S
C171 C172 1.384 . S
C171 H180 0.930 . S
C172 C169 1.380 . S
C172 C171 1.384 . S
C172 H181 0.931 . S
C173 C169 1.374 . S
C173 C174 1.390 . S
C173 H182 0.930 1_565 S
C174 C170 1.391 . S
C174 C173 1.390 . S
C174 H183 0.930 1_565 S
C175 Eu145 2.825 . S
C175 O160 1.238 . S
C175 O161 1.247 . S
C175 C169 1.507 . S
H176 C149 0.930 . S
H177 C150 0.931 . S
H178 C151 0.930 1_565 S
H179 C152 0.930 1_565 S
H180 C171 0.930 . S
H181 C172 0.931 . S
H182 C173 0.930 1_545 S
H183 C174 0.930 1_545 S
Tb184 C194 2.825 1_556 S
Tb184 O195 2.347 . S
Tb184 O198 2.366 . S
Tb184 O203 2.418 . S
Tb184 O204 2.384 . S
Tb184 O207 2.479 1_556 S
Tb184 O208 2.471 1_556 S
Eu185 O196 2.418 . S
Eu185 O197 2.384 . S
Eu185 O200 2.479 . S
Eu185 O201 2.471 . S
Eu185 O202 2.347 . S
Eu185 O205 2.366 . S
Eu185 C215 2.825 . S
C186 O202 1.259 . S
C186 O203 1.265 . S
C187 O204 1.255 . S
C187 O205 1.265 . S
C188 C190 1.380 . S
C188 C191 1.374 . S
C188 C194 1.507 . S
C189 C190 1.384 . S
C189 C193 1.387 . S
C189 H216 0.930 . S
C190 C188 1.380 . S
C190 C189 1.384 . S
C190 H217 0.931 . S
C191 C188 1.374 . S
C191 C192 1.390 . S
C191 H218 0.930 . S
C192 C191 1.390 . S
C192 C193 1.391 . S
C192 H219 0.930 . S
C193 C189 1.387 . S
C193 C192 1.391 . S
C194 Tb184 2.825 1_554 S
C194 C188 1.507 . S
C194 O207 1.238 . S
C194 O208 1.247 . S
O195 Tb184 2.347 . S
O195 C199 1.259 . S
O196 Eu185 2.418 . S
O196 C199 1.265 . S
O197 Eu185 2.384 . S
O197 C206 1.255 . S
O198 Tb184 2.366 . S
O198 C206 1.265 . S
C199 O195 1.259 . S
C199 O196 1.265 . S
O200 Eu185 2.479 . S
O200 C215 1.238 . S
O201 Eu185 2.471 . S
O201 C215 1.247 . S
O202 Eu185 2.347 . S
O202 C186 1.259 . S
O203 Tb184 2.418 . S
O203 C186 1.265 . S
O204 Tb184 2.384 . S
O204 C187 1.255 . S
O205 Eu185 2.366 . S
O205 C187 1.265 . S
C206 O197 1.255 . S
C206 O198 1.265 . S
O207 Tb184 2.479 1_554 S
O207 C194 1.238 . S
O208 Tb184 2.471 1_554 S
O208 C194 1.247 . S
C209 C212 1.380 . S
C209 C213 1.374 . S
C209 C215 1.507 . S
C210 C211 1.387 . S
C210 C214 1.391 . S
C211 C210 1.387 . S
C211 C212 1.384 . S
C211 H220 0.930 . S
C212 C209 1.380 . S
C212 C211 1.384 . S
C212 H221 0.931 . S
C213 C209 1.374 . S
C213 C214 1.390 . S
C213 H222 0.930 . S
C214 C210 1.391 . S
C214 C213 1.390 . S
C214 H223 0.930 . S
C215 Eu185 2.825 . S
C215 O200 1.238 . S
C215 O201 1.247 . S
C215 C209 1.507 . S
H216 C189 0.930 . S
H217 C190 0.931 . S
H218 C191 0.930 . S
H219 C192 0.930 . S
H220 C211 0.930 . S
H221 C212 0.931 . S
H222 C213 0.930 . S
H223 C214 0.930 . S
Tb224 C234 2.825 1_556 S
Tb224 O235 2.347 . S
Tb224 O238 2.366 . S
Tb224 O243 2.418 . S
Tb224 O244 2.384 1_655 S
Tb224 O247 2.479 1_556 S
Tb224 O248 2.471 1_556 S
Eu225 O236 2.418 . S
Eu225 O237 2.384 1_455 S
Eu225 O240 2.479 . S
Eu225 O241 2.471 . S
Eu225 O242 2.347 . S
Eu225 O245 2.366 . S
Eu225 C255 2.825 . S
C226 O242 1.259 1_655 S
C226 O243 1.265 . S
C227 O244 1.255 . S
C227 O245 1.265 . S
C228 C230 1.380 . S
C228 C231 1.374 . S
C228 C234 1.507 . S
C229 C230 1.384 . S
C229 C233 1.387 . S
C229 H256 0.930 . S
C230 C228 1.380 . S
C230 C229 1.384 . S
C230 H257 0.931 . S
C231 C228 1.374 . S
C231 C232 1.390 . S
C231 H258 0.930 . S
C232 C231 1.390 . S
C232 C233 1.391 . S
C232 H259 0.930 . S
C233 C229 1.387 . S
C233 C232 1.391 . S
C234 Tb224 2.825 1_554 S
C234 C228 1.507 . S
C234 O247 1.238 . S
C234 O248 1.247 . S
O235 Tb224 2.347 . S
O235 C239 1.259 1_655 S
O236 Eu225 2.418 . S
O236 C239 1.265 . S
O237 Eu225 2.384 1_655 S
O237 C246 1.255 . S
O238 Tb224 2.366 . S
O238 C246 1.265 . S
C239 O235 1.259 1_455 S
C239 O236 1.265 . S
O240 Eu225 2.479 . S
O240 C255 1.238 . S
O241 Eu225 2.471 . S
O241 C255 1.247 . S
O242 Eu225 2.347 . S
O242 C226 1.259 1_455 S
O243 Tb224 2.418 . S
O243 C226 1.265 . S
O244 Tb224 2.384 1_455 S
O244 C227 1.255 . S
O245 Eu225 2.366 . S
O245 C227 1.265 . S
C246 O237 1.255 . S
C246 O238 1.265 . S
O247 Tb224 2.479 1_554 S
O247 C234 1.238 . S
O248 Tb224 2.471 1_554 S
O248 C234 1.247 . S
C249 C252 1.380 . S
C249 C253 1.374 . S
C249 C255 1.507 . S
C250 C251 1.387 . S
C250 C254 1.391 . S
C251 C250 1.387 . S
C251 C252 1.384 . S
C251 H260 0.930 . S
C252 C249 1.380 . S
C252 C251 1.384 . S
C252 H261 0.931 . S
C253 C249 1.374 . S
C253 C254 1.390 . S
C253 H262 0.930 . S
C254 C250 1.391 . S
C254 C253 1.390 . S
C254 H263 0.930 . S
C255 Eu225 2.825 . S
C255 O240 1.238 . S
C255 O241 1.247 . S
C255 C249 1.507 . S
H256 C229 0.930 . S
H257 C230 0.931 . S
H258 C231 0.930 . S
H259 C232 0.930 . S
H260 C251 0.930 . S
H261 C252 0.931 . S
H262 C253 0.930 . S
H263 C254 0.930 . S
C264 C265 1.391 . S
C264 H268 0.950 . S
C264 C273 1.390 . S
C265 C264 1.391 . S
C265 C267 1.384 1_565 S
H266 C273 0.950 . S
C267 C265 1.384 1_545 S
C267 C269 1.390 . S
C267 H271 0.950 . S
H268 C264 0.950 . S
C269 C267 1.390 . S
C269 C270 1.365 1_545 S
C269 H272 0.950 . S
C270 C269 1.365 1_565 S
C270 C273 1.410 . S
H271 C267 0.950 . S
H272 C269 0.950 . S
C273 C264 1.390 . S
C273 H266 0.950 . S
C273 C270 1.410 . S
C274 C275 1.387 . S
C274 H278 0.950 . S
C274 C283 1.390 . S
C275 C274 1.387 . S
C275 C277 1.387 . S
H276 C283 0.950 . S
C277 C275 1.387 . S
C277 C279 1.390 . S
C277 H281 0.950 . S
H278 C274 0.950 . S
C279 C277 1.390 . S
C279 C280 1.387 . S
C279 H282 0.950 . S
C280 C279 1.387 . S
C280 C283 1.387 . S
H281 C277 0.950 . S
H282 C279 0.950 . S
C283 C274 1.390 . S
C283 H276 0.950 . S
C283 C280 1.387 . S
C284 C285 1.387 . S
C284 H288 0.950 . S
C284 C293 1.390 . S
C285 C284 1.387 . S
C285 C287 1.387 . S
H286 C293 0.950 . S
C287 C285 1.387 . S
C287 C289 1.390 . S
C287 H291 0.950 . S
H288 C284 0.950 . S
C289 C287 1.390 . S
C289 C290 1.387 . S
C289 H292 0.950 . S
C290 C289 1.387 . S
C290 C293 1.387 . S
H291 C287 0.950 . S
H292 C289 0.950 . S
C293 C284 1.390 . S
C293 H286 0.950 . S
C293 C290 1.387 . S
C294 C295 1.396 . S
C294 H298 0.950 . S
C294 C303 1.390 . S
C295 C294 1.396 . S
C295 C297 1.379 1_455 S
H296 C303 0.950 . S
C297 C295 1.379 1_655 S
C297 C299 1.390 . S
C297 H301 0.950 . S
H298 C294 0.950 . S
C299 C297 1.390 . S
C299 C300 1.361 1_655 S
C299 H302 0.950 . S
C300 C299 1.361 1_455 S
C300 C303 1.414 . S
H301 C297 0.950 . S
H302 C299 0.950 . S
C303 C294 1.390 . S
C303 H296 0.950 . S
C303 C300 1.414 . S
C304 C305 1.397 . S
C304 H308 0.950 . S
C304 C313 1.390 . S
C305 C304 1.397 . S
C305 C307 1.378 1_545 S
H306 C313 0.950 . S
C307 C305 1.378 1_565 S
C307 C309 1.390 . S
C307 H311 0.950 . S
H308 C304 0.950 . S
C309 C307 1.390 . S
C309 C310 1.387 1_565 S
C309 H312 0.950 . S
C310 C309 1.387 1_545 S
C310 C313 1.387 . S
H311 C307 0.950 . S
H312 C309 0.950 . S
C313 C304 1.390 . S
C313 H306 0.950 . S
C313 C310 1.387 . S
C314 C315 1.387 . S
C314 H318 0.950 . S
C314 C323 1.390 . S
C315 C314 1.387 . S
C315 C317 1.387 . S
H316 C323 0.950 . S
C317 C315 1.387 . S
C317 C319 1.390 . S
C317 H321 0.950 . S
H318 C314 0.950 . S
C319 C317 1.390 . S
C319 C320 1.387 . S
C319 H322 0.950 . S
C320 C319 1.387 . S
C320 C323 1.387 . S
H321 C317 0.950 . S
H322 C319 0.950 . S
C323 C314 1.390 . S
C323 H316 0.950 . S
C323 C320 1.387 . S
C324 C325 1.387 . S
C324 H328 0.950 . S
C324 C333 1.390 . S
C325 C324 1.387 . S
C325 C327 1.387 . S
H326 C333 0.950 . S
C327 C325 1.387 . S
C327 C329 1.390 . S
C327 H331 0.950 . S
H328 C324 0.950 . S
C329 C327 1.390 . S
C329 C330 1.387 . S
C329 H332 0.950 . S
C330 C329 1.387 . S
C330 C333 1.387 . S
H331 C327 0.950 . S
H332 C329 0.950 . S
C333 C324 1.390 . S
C333 H326 0.950 . S
C333 C330 1.387 . S
C334 C335 1.398 . S
C334 H338 0.950 . S
C334 C343 1.390 . S
C335 C334 1.398 . S
C335 C337 1.377 1_655 S
H336 C343 0.950 . S
C337 C335 1.377 1_455 S
C337 C339 1.390 . S
C337 H341 0.950 . S
H338 C334 0.950 . S
C339 C337 1.390 . S
C339 C340 1.364 1_455 S
C339 H342 0.950 . S
C340 C339 1.364 1_655 S
C340 C343 1.410 . S
H341 C337 0.950 . S
H342 C339 0.950 . S
C343 C334 1.390 . S
C343 H336 0.950 . S
C343 C340 1.410 . S
C344 C345 1.399 . S
C344 H348 0.950 1_554 S
C344 C353 1.390 . S
C345 C344 1.399 . S
C345 C347 1.394 . S
H346 C353 0.950 . S
C347 C345 1.394 . S
C347 C349 1.390 . S
C347 H351 0.946 1_655 S
H348 C344 0.950 1_556 S
C349 C347 1.390 . S
C349 C350 1.387 . S
C349 H352 0.950 . S
C350 C349 1.387 . S
C350 C353 1.387 . S
H351 C347 0.946 1_455 S
H352 C349 0.950 . S
C353 C344 1.390 . S
C353 H346 0.950 . S
C353 C350 1.387 . S
C354 C355 1.388 . S
C354 H358 0.950 1_565 S
C354 C363 1.390 . S
C355 C354 1.388 . S
C355 C357 1.393 . S
H356 C363 0.950 . S
C357 C355 1.393 . S
C357 C359 1.390 . S
C357 H361 0.950 1_554 S
H358 C354 0.950 1_545 S
C359 C357 1.390 . S
C359 C360 1.387 . S
C359 H362 0.950 . S
C360 C359 1.387 . S
C360 C363 1.387 . S
H361 C357 0.950 1_556 S
H362 C359 0.950 . S
C363 C354 1.390 . S
C363 H356 0.950 . S
C363 C360 1.387 . S
C364 C365 1.387 . S
C364 H368 0.950 . S
C364 C373 1.390 . S
C365 C364 1.387 . S
C365 C367 1.387 . S
H366 C373 0.950 . S
C367 C365 1.387 . S
C367 C369 1.390 . S
C367 H371 0.950 . S
H368 C364 0.950 . S
C369 C367 1.390 . S
C369 C370 1.387 . S
C369 H372 0.950 . S
C370 C369 1.387 . S
C370 C373 1.387 . S
H371 C367 0.950 . S
H372 C369 0.950 . S
C373 C364 1.390 . S
C373 H366 0.950 . S
C373 C370 1.387 . S
C374 C375 1.387 . S
C374 H378 0.950 . S
C374 C383 1.390 . S
C375 C374 1.387 . S
C375 C377 1.387 . S
H376 C383 0.950 . S
C377 C375 1.387 . S
C377 C379 1.390 . S
C377 H381 0.950 . S
H378 C374 0.950 . S
C379 C377 1.390 . S
C379 C380 1.387 . S
C379 H382 0.950 . S
C380 C379 1.387 . S
C380 C383 1.387 . S
H381 C377 0.950 . S
H382 C379 0.950 . S
C383 C374 1.390 . S
C383 H376 0.950 . S
C383 C380 1.387 . S
C384 C385 1.395 . S
C384 H388 0.950 . S
C384 C393 1.390 . S
C385 C384 1.395 . S
C385 C387 1.391 . S
H386 C393 0.950 . S
C387 C385 1.391 . S
C387 C389 1.390 . S
C387 H391 0.950 1_455 S
H388 C384 0.950 . S
C389 C387 1.390 . S
C389 C390 1.387 . S
C389 H392 0.950 . S
C390 C389 1.387 . S
C390 C393 1.387 . S
H391 C387 0.950 1_655 S
H392 C389 0.950 . S
C393 C384 1.390 . S
C393 H386 0.950 . S
C393 C390 1.387 . S
C394 C395 1.395 . S
C394 H398 0.950 . S
C394 C403 1.390 . S
C395 C394 1.395 . S
C395 C397 1.390 . S
H396 C403 0.950 . S
C397 C395 1.390 . S
C397 C399 1.390 . S
C397 H401 0.950 1_545 S
H398 C394 0.950 . S
C399 C397 1.390 . S
C399 C400 1.387 . S
C399 H402 0.950 . S
C400 C399 1.387 . S
C400 C403 1.387 . S
H401 C397 0.950 1_565 S
H402 C399 0.950 . S
C403 C394 1.390 . S
C403 H396 0.950 . S
C403 C400 1.387 . S
C404 C405 1.387 . S
C404 H408 0.950 . S
C404 C413 1.390 . S
C405 C404 1.387 . S
C405 C407 1.387 . S
H406 C413 0.950 . S
C407 C405 1.387 . S
C407 C409 1.390 . S
C407 H411 0.950 . S
H408 C404 0.950 . S
C409 C407 1.390 . S
C409 C410 1.387 . S
C409 H412 0.950 . S
C410 C409 1.387 . S
C410 C413 1.387 . S
H411 C407 0.950 . S
H412 C409 0.950 . S
C413 C404 1.390 . S
C413 H406 0.950 . S
C413 C410 1.387 . S
C414 C415 1.387 . S
C414 H418 0.950 . S
C414 C423 1.390 . S
C415 C414 1.387 . S
C415 C417 1.387 . S
H416 C423 0.950 . S
C417 C415 1.387 . S
C417 C419 1.390 . S
C417 H421 0.950 . S
H418 C414 0.950 . S
C419 C417 1.390 . S
C419 C420 1.387 . S
C419 H422 0.950 . S
C420 C419 1.387 . S
C420 C423 1.387 . S
H421 C417 0.950 . S
H422 C419 0.950 . S
C423 C414 1.390 . S
C423 H416 0.950 . S
C423 C420 1.387 . S
C424 C425 1.387 . S
C424 H428 0.950 1_455 S
C424 C433 1.390 . S
C425 C424 1.387 . S
C425 C427 1.387 1_556 S
H426 C433 0.950 . S
C427 C425 1.387 1_554 S
C427 C429 1.390 . S
C427 H431 0.950 . S
H428 C424 0.950 1_655 S
C429 C427 1.390 . S
C429 C430 1.387 1_554 S
C429 H432 0.950 . S
C430 C429 1.387 1_556 S
C430 C433 1.387 . S
H431 C427 0.950 . S
H432 C429 0.950 . S
C433 C424 1.390 . S
C433 H426 0.950 . S
C433 C430 1.387 . S
C434 C435 1.390 . S
C434 H438 0.946 1_545 S
C434 C443 1.392 . S
C435 C434 1.390 . S
C435 C437 1.387 1_556 S
H436 C443 0.950 . S
C437 C435 1.387 1_554 S
C437 C439 1.390 . S
C437 H441 0.950 . S
H438 C434 0.946 1_565 S
C439 C437 1.390 . S
C439 C440 1.387 1_554 S
C439 H442 0.950 . S
C440 C439 1.387 1_556 S
C440 C443 1.387 . S
H441 C437 0.950 . S
H442 C439 0.950 . S
C443 C434 1.392 . S
C443 H436 0.950 . S
C443 C440 1.387 . S
C444 C445 1.387 . S
C444 H448 0.950 . S
C444 C453 1.390 . S
C445 C444 1.387 . S
C445 C447 1.387 1_556 S
H446 C453 0.950 . S
C447 C445 1.387 1_554 S
C447 C449 1.390 . S
C447 H451 0.950 . S
H448 C444 0.950 . S
C449 C447 1.390 . S
C449 C450 1.387 1_554 S
C449 H452 0.950 . S
C450 C449 1.387 1_556 S
C450 C453 1.387 . S
H451 C447 0.950 . S
H452 C449 0.950 . S
C453 C444 1.390 . S
C453 H446 0.950 . S
C453 C450 1.387 . S
C454 C455 1.387 . S
C454 H458 0.950 . S
C454 C463 1.390 . S
C455 C454 1.387 . S
C455 C457 1.387 1_556 S
H456 C463 0.950 . S
C457 C455 1.387 1_554 S
C457 C459 1.390 . S
C457 H461 0.950 . S
H458 C454 0.950 . S
C459 C457 1.390 . S
C459 C460 1.387 1_554 S
C459 H462 0.950 . S
C460 C459 1.387 1_556 S
C460 C463 1.387 . S
H461 C457 0.950 . S
H462 C459 0.950 . S
C463 C454 1.390 . S
C463 H456 0.950 . S
C463 C460 1.387 . S
C464 C465 1.387 . S
C464 H468 0.950 . S
C464 C473 1.390 . S
C465 C464 1.387 . S
C465 C467 1.387 . S
H466 C473 0.950 . S
C467 C465 1.387 . S
C467 C469 1.390 . S
C467 H471 0.950 . S
H468 C464 0.950 . S
C469 C467 1.390 . S
C469 C470 1.387 . S
C469 H472 0.950 . S
C470 C469 1.387 . S
C470 C473 1.387 . S
H471 C467 0.950 . S
H472 C469 0.950 . S
C473 C464 1.390 . S
C473 H466 0.950 . S
C473 C470 1.387 . S
C474 C475 1.387 . S
C474 H478 0.950 . S
C474 C483 1.390 . S
C475 C474 1.387 . S
C475 C477 1.387 . S
H476 C483 0.950 . S
C477 C475 1.387 . S
C477 C479 1.390 . S
C477 H481 0.950 . S
H478 C474 0.950 . S
C479 C477 1.390 . S
C479 C480 1.387 . S
C479 H482 0.950 . S
C480 C479 1.387 . S
C480 C483 1.387 . S
H481 C477 0.950 . S
H482 C479 0.950 . S
C483 C474 1.390 . S
C483 H476 0.950 . S
C483 C480 1.387 . S
C484 C485 1.387 . S
C484 H488 0.950 . S
C484 C493 1.390 . S
C485 C484 1.387 . S
C485 C487 1.387 . S
H486 C493 0.950 . S
C487 C485 1.387 . S
C487 C489 1.390 . S
C487 H491 0.950 . S
H488 C484 0.950 . S
C489 C487 1.390 . S
C489 C490 1.387 . S
C489 H492 0.950 . S
C490 C489 1.387 . S
C490 C493 1.387 . S
H491 C487 0.950 . S
H492 C489 0.950 . S
C493 C484 1.390 . S
C493 H486 0.950 . S
C493 C490 1.387 . S
C494 C495 1.387 . S
C494 H498 0.950 . S
C494 C503 1.390 . S
C495 C494 1.387 . S
C495 C497 1.387 . S
H496 C503 0.950 . S
C497 C495 1.387 . S
C497 C499 1.390 . S
C497 H501 0.950 . S
H498 C494 0.950 . S
C499 C497 1.390 . S
C499 C500 1.387 . S
C499 H502 0.950 . S
C500 C499 1.387 . S
C500 C503 1.387 . S
H501 C497 0.950 . S
H502 C499 0.950 . S
C503 C494 1.390 . S
C503 H496 0.950 . S
C503 C500 1.387 . S
C265 N80 2.005 . S
C270 C106 2.179 . S
C280 C146 2.197 . S
C275 N93 2.026 . S
C290 C186 2.211 . S
C285 N54 2.045 . S
C300 C226 2.192 1_455 S
C295 N67 2.019 1_455 S
C310 C119 2.179 1_554 S
C305 N28 2.005 1_545 S
C315 N41 2.021 . S
C320 C159 2.199 1_554 S
C325 N2 2.036 . S
C330 C199 2.210 1_554 S
C335 N15 2.023 . S
C340 C239 2.193 1_654 S
C350 C130 0.772 . S
C345 N70 0.770 . S
C360 C170 0.775 . S
C355 N83 0.776 . S
C370 C210 0.761 . S
C365 N96 0.763 . S
C375 N57 0.770 . S
C380 C250 0.765 . S
C385 N18 0.782 1_455 S
C390 C113 0.783 . S
C400 C153 0.775 . S
C395 N31 0.776 1_545 S
C410 C193 0.761 . S
C405 N44 0.764 . S
C415 N5 0.771 . S
C420 C233 0.772 . S
C425 N66 2.397 1_455 S
C430 C107 2.534 . S
C435 N79 2.349 1_545 S
C440 C147 2.490 . S
C450 C187 2.475 . S
C445 N92 2.337 . S
C460 C227 2.523 . S
C455 N53 2.380 . S
C465 N14 2.386 . S
C470 C126 2.541 . S
C480 C166 2.489 . S
C475 N27 2.338 . S
C490 C206 2.473 . S
C485 N40 2.317 . S
C495 N1 2.366 . S
C500 C246 2.526 . S
