# Generated by pormake.
# Topology pyr, (3,6)-cn, num edge types: 1
# Building blocks:
#     Node 0, Type 0, BuildingBlock: ESEHIV_clean_linker_0, # of connection points: 3
#     Node 1, Type 0, BuildingBlock: ESEHIV_clean_linker_0, # of connection points: 3
#     Node 2, Type 0, BuildingBlock: ESEHIV_clean_linker_0, # of connection points: 3
#     Node 3, Type 0, BuildingBlock: ESEHIV_clean_linker_0, # of connection points: 3
#     Node 4, Type 0, BuildingBlock: ESEHIV_clean_linker_0, # of connection points: 3
#     Node 5, Type 0, BuildingBlock: ESEHIV_clean_linker_0, # of connection points: 3
#     Node 6, Type 0, BuildingBlock: ESEHIV_clean_linker_0, # of connection points: 3
#     Node 7, Type 0, BuildingBlock: ESEHIV_clean_linker_0, # of connection points: 3
#     Node 8, Type 1, BuildingBlock: BETDIP_clean_sbu_0, # of connection points: 6
#     Node 9, Type 1, BuildingBlock: BETDIP_clean_sbu_0, # of connection points: 6
#     Node 10, Type 1, BuildingBlock: BETDIP_clean_sbu_0, # of connection points: 6
#     Node 11, Type 1, BuildingBlock: BETDIP_clean_sbu_0, # of connection points: 6
#     Edge 12, Type (0, 1), BuildingBlock: CIFDUS_clean_linker_0, # of connection points: 2
#     Edge 13, Type (0, 1), BuildingBlock: CIFDUS_clean_linker_0, # of connection points: 2
#     Edge 14, Type (0, 1), BuildingBlock: CIFDUS_clean_linker_0, # of connection points: 2
#     Edge 15, Type (0, 1), BuildingBlock: CIFDUS_clean_linker_0, # of connection points: 2
#     Edge 16, Type (0, 1), BuildingBlock: CIFDUS_clean_linker_0, # of connection points: 2
#     Edge 17, Type (0, 1), BuildingBlock: CIFDUS_clean_linker_0, # of connection points: 2
#     Edge 18, Type (0, 1), BuildingBlock: CIFDUS_clean_linker_0, # of connection points: 2
#     Edge 19, Type (0, 1), BuildingBlock: CIFDUS_clean_linker_0, # of connection points: 2
#     Edge 20, Type (0, 1), BuildingBlock: CIFDUS_clean_linker_0, # of connection points: 2
#     Edge 21, Type (0, 1), BuildingBlock: CIFDUS_clean_linker_0, # of connection points: 2
#     Edge 22, Type (0, 1), BuildingBlock: CIFDUS_clean_linker_0, # of connection points: 2
#     Edge 23, Type (0, 1), BuildingBlock: CIFDUS_clean_linker_0, # of connection points: 2
#     Edge 24, Type (0, 1), BuildingBlock: CIFDUS_clean_linker_0, # of connection points: 2
#     Edge 25, Type (0, 1), BuildingBlock: CIFDUS_clean_linker_0, # of connection points: 2
#     Edge 26, Type (0, 1), BuildingBlock: CIFDUS_clean_linker_0, # of connection points: 2
#     Edge 27, Type (0, 1), BuildingBlock: CIFDUS_clean_linker_0, # of connection points: 2
#     Edge 28, Type (0, 1), BuildingBlock: CIFDUS_clean_linker_0, # of connection points: 2
#     Edge 29, Type (0, 1), BuildingBlock: CIFDUS_clean_linker_0, # of connection points: 2
#     Edge 30, Type (0, 1), BuildingBlock: CIFDUS_clean_linker_0, # of connection points: 2
#     Edge 31, Type (0, 1), BuildingBlock: CIFDUS_clean_linker_0, # of connection points: 2
#     Edge 32, Type (0, 1), BuildingBlock: CIFDUS_clean_linker_0, # of connection points: 2
#     Edge 33, Type (0, 1), BuildingBlock: CIFDUS_clean_linker_0, # of connection points: 2
#     Edge 34, Type (0, 1), BuildingBlock: CIFDUS_clean_linker_0, # of connection points: 2
#     Edge 35, Type (0, 1), BuildingBlock: CIFDUS_clean_linker_0, # of connection points: 2
# Relax obj value: 0.185
# Max RMSD: 0.212
# Mean RMSD: 0.096
data_MOF--net-pyr--node1-BETDIP_clean_sbu_0--node2-ESEHIV_clean_linker_0--edge1-CIFDUS_clean_linker_0
_symmetry_space_group_name_H-M    P1
_symmetry_Int_Tables_number       1
_symmetry_cell_setting            triclinic
loop_
_symmetry_equiv_pos_as_xyz
'x, y, z'
_cell_length_a     29.728475
_cell_length_b     32.321153
_cell_length_c     30.441664
_cell_angle_alpha  88.410864
_cell_angle_beta   92.8487
_cell_angle_gamma 106.17813
loop_
_atom_site_label
_atom_site_type_symbol
_atom_site_fract_x
_atom_site_fract_y
_atom_site_fract_z
_atom_type_partial_charge
H0 H 0.33942 0.32663 0.31811 0.0
H1 H 0.44373 0.25888 0.3052 0.0
H2 H 0.38199 0.30522 0.1905 0.0
C3 C 0.36257 0.31531 0.29822 0.0
C4 C 0.3583 0.31989 0.25232 0.0
C5 C 0.39223 0.2923 0.31801 0.0
C6 C 0.42112 0.2772 0.29088 0.0
C7 C 0.41677 0.2808 0.24485 0.0
C8 C 0.38654 0.30359 0.22598 0.0
H9 H 0.10215 0.82251 0.80393 0.0
H10 H 0.16127 0.71551 0.80731 0.0
H11 H 0.10035 0.75221 0.68655 0.0
C12 C 0.10762 0.79463 0.78845 0.0
C13 C 0.09612 0.78868 0.74339 0.0
C14 C 0.13166 0.76857 0.81184 0.0
C15 C 0.14202 0.735 0.7896 0.0
C16 C 0.13342 0.73012 0.74388 0.0
C17 C 0.10792 0.75564 0.72165 0.0
H18 H 0.69725 0.34694 0.96013 0.0
H19 H 0.70883 0.45401 0.87151 0.0
H20 H 0.5851 0.34561 0.8636 0.0
C21 C 0.68269 0.36162 0.93254 0.0
C22 C 0.63884 0.33966 0.9128 0.0
C23 C 0.7078 0.40281 0.9179 0.0
C24 C 0.68883 0.42244 0.88273 0.0
C25 C 0.64395 0.40313 0.86326 0.0
C26 C 0.61942 0.36112 0.8782 0.0
H27 H 0.83374 0.75087 0.4587 0.0
H28 H 0.94109 0.75508 0.3673 0.0
H29 H 0.82919 0.63909 0.38253 0.0
C30 C 0.84821 0.73515 0.43433 0.0
C31 C 0.82508 0.69203 0.42302 0.0
C32 C 0.89058 0.75829 0.41551 0.0
C33 C 0.90886 0.73787 0.38247 0.0
C34 C 0.88638 0.69485 0.36973 0.0
C35 C 0.84525 0.6724 0.39104 0.0
H36 H 0.54567 0.79822 0.84797 0.0
H37 H 0.65886 0.74019 0.8353 0.0
H38 H 0.61445 0.76007 0.96221 0.0
C39 C 0.57082 0.78233 0.86168 0.0
C40 C 0.57643 0.78021 0.9076 0.0
C41 C 0.6023 0.77066 0.8345 0.0
C42 C 0.63386 0.74953 0.85455 0.0
C43 C 0.63754 0.74435 0.90045 0.0
C44 C 0.60858 0.75976 0.92676 0.0
H45 H 0.87792 0.40347 0.34689 0.0
H46 H 0.92303 0.28792 0.35236 0.0
H47 H 0.88286 0.33516 0.46949 0.0
C48 C 0.88642 0.37748 0.36563 0.0
C49 C 0.87688 0.37254 0.41053 0.0
C50 C 0.8996 0.34549 0.34335 0.0
C51 C 0.91369 0.31362 0.36847 0.0
C52 C 0.90967 0.31096 0.41428 0.0
C53 C 0.89029 0.33997 0.43496 0.0
H54 H 0.35862 0.76132 0.21059 0.0
H55 H 0.31891 0.65331 0.29965 0.0
H56 H 0.45543 0.74534 0.31468 0.0
C57 C 0.36592 0.74379 0.23963 0.0
C58 C 0.40944 0.75951 0.2624 0.0
C59 C 0.33274 0.70554 0.25232 0.0
C60 C 0.34473 0.68192 0.28863 0.0
C61 C 0.38928 0.69493 0.31134 0.0
C62 C 0.42131 0.73441 0.29795 0.0
H63 H 0.07169 0.33434 0.82083 0.0
H64 H 0.16669 0.34999 0.71612 0.0
H65 H 0.1892 0.4481 0.8144 0.0
C66 C 0.10289 0.35313 0.80511 0.0
C67 C 0.12825 0.39379 0.82275 0.0
C68 C 0.11721 0.33656 0.76706 0.0
C69 C 0.15727 0.36165 0.74636 0.0
C70 C 0.18384 0.40209 0.76258 0.0
C71 C 0.16871 0.4177 0.80084 0.0
Tb72 Tb 0.95221 1.04232 0.59726 0.0
Tb73 Tb 0.04992 0.05984 0.57433 0.0
C74 C 0.86674 1.01245 0.61251 0.0
C75 C 0.83228 0.97336 0.6283 0.0
C76 C 0.82084 0.93409 0.60575 0.0
C77 C 0.78526 0.89879 0.62052 0.0
C78 C 0.76052 0.90246 0.65776 0.0
C79 C 0.77302 0.94158 0.68053 0.0
C80 C 0.80817 0.97658 0.66581 0.0
C81 C 1.00756 0.11379 0.63439 0.0
C82 C 0.01501 0.98803 0.64365 0.0
C83 C 0.13593 0.08925 0.56115 0.0
C84 C 0.17212 0.129 0.55074 0.0
C85 C 0.16173 0.16246 0.5256 0.0
C86 C 0.19811 0.19652 0.51023 0.0
C87 C 0.24518 0.19731 0.51975 0.0
C88 C 0.2551 0.16541 0.54774 0.0
C89 C 0.21882 0.13152 0.56308 0.0
C90 C 0.99517 0.98782 0.53773 0.0
C91 C 0.98656 0.11364 0.52748 0.0
O92 O 0.88381 1.01158 0.57387 0.0
O93 O 0.89844 1.03299 0.64152 0.0
O94 O 0.0179 0.07871 0.62914 0.0
O95 O 0.96441 0.10817 0.621 0.0
O96 O 0.97211 0.98937 0.63196 0.0
O97 O 0.05211 1.01711 0.62958 0.0
O98 O 0.11845 0.08651 0.59998 0.0
O99 O 0.10407 0.07358 0.53016 0.0
O100 O 0.98437 1.0228 0.5426 0.0
O101 O 0.03858 0.99428 0.55052 0.0
O102 O 0.02948 0.11291 0.54019 0.0
O103 O 0.94955 0.08413 0.5412 0.0
H104 H 0.83887 0.93076 0.57657 0.0
H105 H 0.77659 0.869 0.60246 0.0
H106 H 0.75575 0.9452 0.71011 0.0
H107 H 0.81628 1.0065 0.68367 0.0
H108 H 0.12578 0.16113 0.51602 0.0
H109 H 0.18946 0.22047 0.48838 0.0
H110 H 0.29103 0.16544 0.55578 0.0
H111 H 0.22737 0.10607 0.58277 0.0
Tb112 Tb 0.58824 0.05659 0.10292 0.0
Tb113 Tb 0.4894 1.03603 1.07298 0.0
C114 C 0.67451 0.08547 0.12202 0.0
C115 C 0.71257 0.12425 0.13235 0.0
C116 C 0.71197 0.16528 0.11647 0.0
C117 C 0.7494 0.20128 0.12728 0.0
C118 C 0.78776 0.19665 0.15416 0.0
C119 C 0.78838 0.15513 0.16878 0.0
C120 C 0.75122 0.1194 0.15791 0.0
C121 C 0.53426 0.98478 0.13983 0.0
C122 C 0.52352 0.10773 0.14134 0.0
C123 C 0.40426 1.00156 1.05332 0.0
C124 C 0.37613 0.96073 1.03423 0.0
C125 C 0.33253 0.93983 1.05125 0.0
C126 C 0.30343 0.90308 1.03099 0.0
C127 C 0.31737 0.8869 0.99306 0.0
C128 C 0.36214 0.90701 0.9774 0.0
C129 C 0.39132 0.94334 0.99794 0.0
C130 C 0.54115 0.10908 1.03744 0.0
C131 C 0.55505 0.98645 1.03267 0.0
O132 O 0.65639 0.08232 1.08185 0.0
O133 O 0.64291 0.07161 0.15143 0.0
O134 O 0.52378 1.01958 0.13142 0.0
O135 O 0.57721 0.99051 0.12964 0.0
O136 O 0.56675 0.10936 0.13132 0.0
O137 O 0.48729 0.07625 0.12763 0.0
O138 O 0.42328 0.99906 0.09256 0.0
O139 O 0.433 1.02784 1.02716 0.0
O140 O 0.55365 0.07483 1.04477 0.0
O141 O 0.49783 0.10151 1.04747 0.0
O142 O 0.51182 0.98501 1.0421 0.0
O143 O 0.59099 1.01711 1.04795 0.0
H144 H 0.68249 0.16951 0.09625 0.0
H145 H 0.74788 0.23277 0.11539 0.0
H146 H 0.8166 0.1503 0.19037 0.0
H147 H 0.75232 0.08786 0.17015 0.0
H148 H 0.32049 0.95256 1.0796 0.0
H149 H 0.26963 0.888 1.04445 0.0
H150 H 0.374 0.89606 0.94794 0.0
H151 H 0.42507 0.95866 0.98443 0.0
Tb152 Tb 0.50628 0.58128 0.61776 0.0
Tb153 Tb 0.50218 0.50726 0.56493 0.0
C154 C 0.48238 0.64159 0.65085 0.0
C155 C 0.43524 0.64379 0.6618 0.0
C156 C 0.39846 0.63668 0.62948 0.0
C157 C 0.3534 0.63646 0.64054 0.0
C158 C 0.344 0.64288 0.68416 0.0
C159 C 0.38054 0.64941 0.7166 0.0
C160 C 0.42581 0.65004 0.70546 0.0
C161 C 0.54521 0.52568 0.65939 0.0
C162 C 0.4149 0.49999 0.62016 0.0
C163 C 0.52434 0.44501 0.53343 0.0
C164 C 0.5659 0.44105 0.51142 0.0
C165 C 0.58818 0.41038 0.52745 0.0
C166 C 0.63008 0.40832 0.51016 0.0
C167 C 0.65024 0.43667 0.4762 0.0
C168 C 0.62773 0.46715 0.45976 0.0
C169 C 0.58603 0.46959 0.47749 0.0
C170 C 0.4645 0.56391 0.52269 0.0
C171 C 0.59461 0.58863 0.5638 0.0
O172 O 0.48975 0.63994 0.60901 0.0
O173 O 0.499 0.61428 0.67437 0.0
O174 O 0.50826 0.5167 0.63461 0.0
O175 O 0.56042 0.56732 0.6623 0.0
O176 O 0.43266 0.5421 0.62482 0.0
O177 O 0.4385 0.47771 0.59977 0.0
O178 O 0.53237 0.45638 0.5745 0.0
O179 O 0.49718 0.46522 0.51224 0.0
O180 O 0.50098 0.57202 0.54802 0.0
O181 O 0.44868 0.52227 0.51972 0.0
O182 O 0.57375 0.54815 0.55295 0.0
O183 O 0.57385 0.61011 0.58868 0.0
H184 H 0.40427 0.63097 0.5956 0.0
H185 H 0.3258 0.63114 0.61497 0.0
H186 H 0.37434 0.655 0.7504 0.0
H187 H 0.45344 0.65517 0.73099 0.0
H188 H 0.57346 0.38839 0.55389 0.0
H189 H 0.64642 0.38415 0.52294 0.0
H190 H 0.64272 0.48941 0.43363 0.0
H191 H 0.56997 0.49407 0.46508 0.0
Tb192 Tb 0.01574 0.5925 1.06471 0.0
Tb193 Tb 0.00853 0.51672 0.11924 0.0
C194 C 0.99875 0.65336 1.01969 0.0
C195 C 0.95708 0.6686 1.01015 0.0
C196 C 0.91194 0.63974 1.00957 0.0
C197 C 0.87299 0.65375 0.99595 0.0
C198 C 0.87844 0.69697 0.98307 0.0
C199 C 0.92358 0.72613 0.98587 0.0
C200 C 0.96255 0.71198 0.99908 0.0
C201 C 0.09629 0.59365 0.10851 0.0
C202 C 0.97355 0.58997 0.15955 0.0
C203 C 0.02094 0.45347 0.1633 0.0
C204 C 0.05452 0.42774 0.16418 0.0
C205 C 0.09985 0.44544 0.14948 0.0
C206 C 0.13436 0.42429 0.15819 0.0
C207 C 0.12364 0.38398 0.18015 0.0
C208 C 0.07659 0.3644 0.1904 0.0
C209 C 0.04256 0.38647 0.18321 0.0
C210 C 0.92756 0.51702 1.07854 0.0
C211 C 0.05062 0.52059 1.02263 0.0
O212 O 0.99667 0.6157 1.00393 0.0
O213 O 0.01644 0.65782 1.05998 0.0
O214 O 0.05546 0.57973 0.12207 0.0
O215 O 0.09279 0.61164 1.0705 0.0
O216 O 0.97275 0.60357 0.11809 0.0
O217 O 0.99047 0.55685 0.16954 0.0
O218 O 0.03831 0.49363 0.17489 0.0
O219 O 0.99237 0.44955 0.12874 0.0
O220 O 0.9676 0.529 1.06233 0.0
O221 O 0.93271 0.5041 0.11858 0.0
O222 O 0.04788 0.50297 1.06283 0.0
O223 O 0.03626 0.55528 1.01475 0.0
H224 H 0.90697 0.60607 1.0183 0.0
H225 H 0.83892 0.63031 0.99387 0.0
H226 H 0.92895 0.75981 0.97715 0.0
H227 H 0.99711 0.73474 0.9997 0.0
H228 H 0.10913 0.47654 0.13303 0.0
H229 H 0.16977 0.44091 0.14963 0.0
H230 H 0.06612 0.33263 0.20543 0.0
H231 H 1.00731 0.37188 0.19384 0.0
H232 H 0.36496 0.33068 0.38818 0.0
H233 H 0.39992 0.2148 0.353 0.0
H234 H 0.36593 0.17921 0.4189 0.0
H235 H 0.31077 0.17444 0.47634 0.0
H236 H 0.26272 0.28452 0.50488 0.0
H237 H 0.31519 0.32796 0.45084 0.0
C238 C 0.36525 0.29763 0.3947 0.0
C239 C 0.38417 0.27561 0.36421 0.0
C240 C 0.34177 0.2756 0.43104 0.0
C241 C 0.38619 0.23342 0.37511 0.0
C242 C 0.3658 0.21239 0.41276 0.0
C243 C 0.31283 0.20833 0.47176 0.0
C244 C 0.28293 0.2263 0.49439 0.0
C245 C 0.34122 0.23228 0.43942 0.0
C246 C 0.28528 0.27 0.48754 0.0
C247 C 0.31521 0.29474 0.45666 0.0
H248 H 0.21705 0.76234 0.84439 0.0
H249 H 0.09936 0.80713 0.87884 0.0
H250 H 0.14548 0.8447 0.94172 0.0
H251 H 0.22275 0.87316 0.97933 0.0
H252 H 0.33698 0.82217 0.94809 0.0
H253 H 0.28724 0.77714 0.89187 0.0
C254 C 0.20013 0.77851 0.86634 0.0
C255 C 0.15467 0.78232 0.85589 0.0
C256 C 0.22642 0.79938 0.90276 0.0
C257 C 0.13467 0.80457 0.88503 0.0
C258 C 0.16097 0.82595 0.92119 0.0
C259 C 0.2365 0.85121 0.96136 0.0
C260 C 0.28416 0.85222 0.96706 0.0
C261 C 0.20754 0.82496 0.92927 0.0
C262 C 0.30101 0.82334 0.94332 0.0
C263 C 0.27252 0.79738 0.91127 0.0
H264 H 0.58956 0.37774 0.78515 0.0
H265 H 0.65032 0.48887 0.86603 0.0
H266 H 0.6279 0.53532 0.81047 0.0
H267 H 0.59345 0.54635 0.73787 0.0
H268 H 0.52434 0.43664 0.65864 0.0
H269 H 0.54729 0.38852 0.71381 0.0
C270 C 0.59747 0.41201 0.79087 0.0
C271 C 0.62336 0.4294 0.82978 0.0
C272 C 0.58326 0.43929 0.75857 0.0
C273 C 0.63233 0.47414 0.83617 0.0
C274 C 0.61916 0.50106 0.80433 0.0
C275 C 0.58338 0.5119 0.73245 0.0
C276 C 0.55797 0.49552 0.69332 0.0
C277 C 0.59534 0.48426 0.76509 0.0
C278 C 0.54456 0.45053 0.6878 0.0
C279 C 0.55755 0.42286 0.71965 0.0
H280 H 0.90695 0.71795 0.28287 0.0
H281 H 0.9088 0.61841 0.37938 0.0
H282 H 0.93568 0.57749 0.32475 0.0
H283 H 0.9579 0.56868 0.24828 0.0
H284 H 0.95164 0.66673 0.15094 0.0
H285 H 0.92754 0.70844 0.20617 0.0
C286 C 0.91369 0.68751 0.29209 0.0
C287 C 0.90606 0.67177 0.33577 0.0
C288 C 0.92819 0.66327 0.25982 0.0
C289 C 0.91433 0.63168 0.34638 0.0
C290 C 0.92971 0.60807 0.31494 0.0
C291 C 0.95119 0.5991 0.239 0.0
C292 C 0.95683 0.614 0.19477 0.0
C293 C 0.93654 0.62326 0.27131 0.0
C294 C 0.94763 0.65376 0.18416 0.0
C295 C 0.93388 0.678 0.21601 0.0
H296 H 0.50301 0.26471 0.25038 0.0
H297 H 0.36924 0.23089 0.17815 0.0
H298 H 0.39178 0.17599 0.13925 0.0
H299 H 0.4459 0.13367 0.1295 0.0
H300 H 0.58014 0.16478 0.20008 0.0
H301 H 0.56078 0.22433 0.23634 0.0
C302 C 0.47912 0.24559 0.22577 0.0
C303 C 0.43465 0.25232 0.21705 0.0
C304 C 0.49192 0.21307 0.20387 0.0
C305 C 0.4041 0.22734 0.18492 0.0
C306 C 0.41664 0.19539 0.163 0.0
C307 C 0.47093 0.15329 0.15302 0.0
C308 C 0.51385 0.14434 0.16301 0.0
C309 C 0.45988 0.18737 0.17294 0.0
C310 C 0.54656 0.17086 0.19239 0.0
C311 C 0.53551 0.20485 0.21299 0.0
H312 H 0.0246 0.824 0.75802 0.0
H313 H 0.13781 0.83141 0.67205 0.0
H314 H 0.12295 0.89412 0.63454 0.0
H315 H 0.0806 0.94869 0.62809 0.0
H316 H 0.96416 0.94065 0.70986 0.0
H317 H 0.97752 0.87649 0.74746 0.0
C318 C 0.04549 0.83915 0.73071 0.0
C319 C 0.082 0.82295 0.7176 0.0
C320 C 0.03667 0.87535 0.70907 0.0
C321 C 0.10898 0.84279 0.68222 0.0
C322 C 0.10086 0.87893 0.66105 0.0
C323 C 0.05835 0.93307 0.6544 0.0
C324 C 0.02222 0.94974 0.66706 0.0
C325 C 0.06535 0.89582 0.67463 0.0
C326 C 0.99261 0.92852 0.7001 0.0
C327 C 1.00019 0.89188 0.72142 0.0
H328 H 0.72432 0.41835 1.00542 0.0
H329 H 0.79206 0.44206 0.88175 0.0
H330 H 0.86557 0.4821 0.9194 0.0
H331 H 0.91164 0.50856 0.98859 0.0
H332 H 0.84178 0.48575 0.11144 0.0
H333 H 0.76847 0.44802 1.0732 0.0
C334 C 0.75528 0.43207 0.98677 0.0
C335 C 0.75283 0.42669 0.94091 0.0
C336 C 0.79717 0.45565 1.00856 0.0
C337 C 0.79303 0.44554 0.9171 0.0
C338 C 0.83508 0.46851 0.93864 0.0
C339 C 0.88019 0.49582 1.00682 0.0
C340 C 0.88243 0.4998 1.05296 0.0
C341 C 0.83772 0.47369 0.98448 0.0
C342 C 0.84125 0.48303 1.07602 0.0
C343 C 0.79922 0.46122 1.05418 0.0
H344 H 0.79446 0.7024 0.50618 0.0
H345 H 0.75194 0.62561 0.38924 0.0
H346 H 0.68064 0.58535 0.42358 0.0
H347 H 0.62772 0.57296 0.48555 0.0
H348 H 0.66492 0.65544 0.59821 0.0
H349 H 0.73966 0.69298 0.56615 0.0
C350 C 0.76958 0.67754 0.48742 0.0
C351 C 0.78011 0.66753 0.44465 0.0
C352 C 0.72693 0.65538 0.50666 0.0
C353 C 0.74669 0.63398 0.42237 0.0
C354 C 0.70512 0.61097 0.44188 0.0
C355 C 0.65229 0.59899 0.50327 0.0
C356 C 0.64067 0.61102 0.54458 0.0
C357 C 0.6947 0.62142 0.48392 0.0
C358 C 0.67276 0.64538 0.56651 0.0
C359 C 0.71562 0.66688 0.54812 0.0
H360 H 0.26945 0.30202 0.2801 0.0
H361 H 0.35759 0.36963 0.17745 0.0
H362 H 0.29112 0.39098 0.14308 0.0
H363 H 0.20879 0.39173 0.14358 0.0
H364 H 0.12582 0.33306 0.25358 0.0
H365 H 0.18949 0.30619 0.28291 0.0
C366 C 0.27479 0.3224 0.25084 0.0
C367 C 0.31891 0.33486 0.23195 0.0
C368 C 0.23705 0.33557 0.23209 0.0
C369 C 0.32411 0.35959 0.19281 0.0
C370 C 0.28613 0.37187 0.17319 0.0
C371 C 0.20453 0.37366 0.17431 0.0
C372 C 0.16182 0.36464 0.1959 0.0
C373 C 0.24249 0.36027 0.19278 0.0
C374 C 0.15727 0.33985 0.2351 0.0
C375 C 0.19412 0.3249 0.25253 0.0
H376 H 0.67449 0.27234 0.94094 0.0
H377 H 0.54469 0.30763 0.92731 0.0
H378 H 0.50398 0.24015 0.96364 0.0
H379 H 0.50533 0.17239 1.00259 0.0
H380 H 0.63422 0.13591 1.01587 0.0
H381 H 0.67509 0.20259 0.97733 0.0
C382 C 0.63725 0.26541 0.94582 0.0
C383 C 0.61301 0.29581 0.93114 0.0
C384 C 0.61386 0.22628 0.96723 0.0
C385 C 0.56451 0.28525 0.93744 0.0
C386 C 0.54117 0.24662 0.95872 0.0
C387 C 0.54238 0.17882 0.99695 0.0
C388 C 0.5666 0.14886 1.01246 0.0
C389 C 0.5655 0.2171 0.97423 0.0
C390 C 0.61457 0.15804 1.00449 0.0
C391 C 0.63796 0.19632 0.98237 0.0
H392 H 0.85602 0.82593 0.4394 0.0
H393 H 0.98507 0.79019 0.43363 0.0
H394 H 0.0277 0.85706 0.46982 0.0
H395 H 0.0286 0.92436 0.50662 0.0
H396 H 0.90106 0.96238 0.51101 0.0
H397 H 0.85786 0.89614 0.47282 0.0
C398 C 0.89352 0.8327 0.44588 0.0
C399 C 0.91695 0.80226 0.43344 0.0
C400 C 0.91821 0.87171 0.46706 0.0
C401 C 0.96579 0.8126 0.44192 0.0
C402 C 0.99029 0.85091 0.46314 0.0
C403 C 0.99133 0.91842 0.49908 0.0
C404 C 0.96822 0.94864 0.51223 0.0
C405 C 0.96689 0.88049 0.47635 0.0
C406 C 0.91993 0.94003 0.50169 0.0
C407 C 0.89519 0.90198 0.47971 0.0
H408 H 0.16029 0.65736 0.76858 0.0
H409 H 0.1707 0.75127 0.66268 0.0
H410 H 0.23178 0.7269 0.63149 0.0
H411 H 0.29257 0.68949 0.64134 0.0
H412 H 0.29077 0.60335 0.75232 0.0
H413 H 0.21775 0.61552 0.77534 0.0
C414 C 0.17573 0.67258 0.73863 0.0
C415 C 0.1609 0.70689 0.71893 0.0
C416 C 0.21369 0.6607 0.72234 0.0
C417 C 0.18035 0.7246 0.67893 0.0
C418 C 0.21624 0.71122 0.66123 0.0
C419 C 0.27562 0.67267 0.67004 0.0
C420 C 0.29705 0.64582 0.69528 0.0
C421 C 0.23468 0.6809 0.68379 0.0
C422 C 0.27509 0.62458 0.73268 0.0
C423 C 0.23334 0.63145 0.74574 0.0
H424 H 0.64566 0.74452 0.76532 0.0
H425 H 0.57828 0.84208 0.79795 0.0
H426 H 0.61317 0.88563 0.73722 0.0
H427 H 0.67748 0.90565 0.68764 0.0
H428 H 0.7585 0.81694 0.66555 0.0
H429 H 0.70513 0.76174 0.70952 0.0
C430 C 0.63877 0.77547 0.75996 0.0
C431 C 0.61079 0.78999 0.78896 0.0
C432 C 0.66276 0.80309 0.72703 0.0
C433 C 0.59968 0.8289 0.77787 0.0
C434 C 0.62043 0.85481 0.74298 0.0
C435 C 0.68325 0.87406 0.69211 0.0
C436 C 0.72272 0.86588 0.67459 0.0
C437 C 0.65443 0.84364 0.71956 0.0
C438 C 0.72865 0.82428 0.67908 0.0
C439 C 0.69832 0.79282 0.70455 0.0
H440 H 0.94002 0.30849 0.28093 0.0
H441 H 0.82589 0.36482 0.2973 0.0
H442 H 0.78674 0.33119 0.23123 0.0
H443 H 0.77353 0.27052 0.18237 0.0
H444 H 0.88261 0.20808 0.16828 0.0
H445 H 0.934 0.25843 0.21993 0.0
C446 C 0.90696 0.31402 0.26974 0.0
C447 C 0.88565 0.33809 0.29567 0.0
C448 C 0.88256 0.2922 0.23262 0.0
C449 C 0.84378 0.34645 0.27904 0.0
C450 C 0.82055 0.32655 0.24116 0.0
C451 C 0.80916 0.26886 0.18907 0.0
C452 C 0.82358 0.23468 0.17262 0.0
C453 C 0.83794 0.297 0.21968 0.0
C454 C 0.87007 0.23331 0.18167 0.0
C455 C 0.89951 0.26209 0.21123 0.0
H456 H 0.44359 0.71613 0.39007 0.0
H457 H 0.36383 0.60654 0.31473 0.0
H458 H 0.3772 0.55805 0.37297 0.0
H459 H 0.41118 0.54505 0.44575 0.0
H460 H 0.49596 0.65263 0.52006 0.0
H461 H 0.48118 0.70259 0.46257 0.0
C462 C 0.42936 0.68168 0.38609 0.0
C463 C 0.40153 0.66579 0.3476 0.0
C464 C 0.43796 0.65306 0.42005 0.0
C465 C 0.38392 0.6206 0.34392 0.0
C466 C 0.3919 0.59242 0.37736 0.0
C467 C 0.42632 0.57944 0.44963 0.0
C468 C 0.45431 0.59475 0.4879 0.0
C469 C 0.41852 0.6081 0.41576 0.0
C470 C 0.47394 0.63961 0.4915 0.0
C471 C 0.4656 0.66833 0.45834 0.0
H472 H 0.12983 0.47769 0.84261 0.0
H473 H 0.09174 0.34896 0.89773 0.0
H474 H 0.06681 0.37564 0.96418 0.0
H475 H 0.05425 0.43611 1.00766 0.0
H476 H 0.09056 0.56396 0.95018 0.0
H477 H 0.11786 0.53735 0.88541 0.0
C478 C 0.11648 0.4553 0.86917 0.0
C479 C 0.11293 0.41095 0.8642 0.0
C480 C 0.10172 0.47093 0.90773 0.0
C481 C 0.09461 0.38301 0.8995 0.0
C482 C 0.08049 0.3984 0.93802 0.0
C483 C 0.06855 0.45825 0.9812 0.0
C484 C 0.07021 0.50241 0.98465 0.0
C485 C 0.08367 0.44238 0.94271 0.0
C486 C 0.08846 0.53 0.94916 0.0
C487 C 0.10421 0.51472 0.9117 0.0
H488 H 0.634 0.84846 0.9461 0.0
H489 H 0.48724 0.78456 0.92367 0.0
H490 H 0.46683 0.84358 0.9603 0.0
H491 H 0.49207 0.91445 0.99758 0.0
H492 H 0.64036 0.97838 1.01391 0.0
H493 H 0.65877 0.91842 0.98029 0.0
C494 C 0.5975 0.84709 0.95004 0.0
C495 C 0.56209 0.81193 0.93357 0.0
C496 C 0.58642 0.88146 0.96937 0.0
C497 C 0.51494 0.81106 0.93714 0.0
C498 C 0.50342 0.84489 0.95769 0.0
C499 C 0.52835 0.91534 0.99348 0.0
C500 C 0.5647 0.951 1.00843 0.0
C501 C 0.539 0.88052 0.97364 0.0
C502 C 0.61155 0.95156 1.0028 0.0
C503 C 0.62227 0.91713 0.98372 0.0
H504 H 0.98707 0.28134 0.41464 0.0
H505 H 0.85021 0.25553 0.46825 0.0
H506 H 0.86133 0.19139 0.50622 0.0
H507 H 0.90951 0.14264 0.52419 0.0
H508 H 0.048 0.16915 0.47399 0.0
H509 H 0.03662 0.23278 0.43436 0.0
C510 C 0.95986 0.26164 0.43479 0.0
C511 C 0.91807 0.27334 0.43898 0.0
C512 C 0.96661 0.22482 0.4568 0.0
C513 C 0.88301 0.24764 0.46515 0.0
C514 C 0.88918 0.21077 0.48657 0.0
C515 C 0.93709 0.16205 0.50422 0.0
C516 C 0.97934 0.15089 0.5016 0.0
C517 C 0.93074 0.19901 0.48255 0.0
C518 C 0.01507 0.17695 0.47636 0.0
C519 C 0.00859 0.21336 0.45378 0.0
H520 H 0.27611 0.62208 0.23793 0.0
H521 H 0.28203 0.75522 0.20897 0.0
H522 H 0.21288 0.73258 0.16039 0.0
H523 H 0.15049 0.67522 0.1242 0.0
H524 H 0.13596 0.54314 0.16189 0.0
H525 H 0.20758 0.56494 0.2091 0.0
C526 C 0.26212 0.64639 0.22177 0.0
C527 C 0.28626 0.6906 0.22657 0.0
C528 C 0.22043 0.63322 0.19492 0.0
C529 C 0.26642 0.72099 0.20488 0.0
C530 C 0.22616 0.70811 0.1772 0.0
C531 C 0.16314 0.65125 0.14272 0.0
C532 C 0.13871 0.60737 0.13852 0.0
C533 C 0.2032 0.66435 0.17141 0.0
C534 C 0.1547 0.57687 0.16373 0.0
C535 C 0.1956 0.58947 0.19095 0.0
H536 H 0.24555 0.37168 0.71639 0.0
H537 H 0.22043 0.49091 0.75404 0.0
H538 H 0.28827 0.53144 0.71369 0.0
H539 H 0.35516 0.53342 0.66657 0.0
H540 H 0.37522 0.41313 0.62568 0.0
H541 H 0.30829 0.37334 0.66688 0.0
C542 C 0.25394 0.40651 0.7154 0.0
C543 C 0.2268 0.42763 0.73869 0.0
C544 C 0.29233 0.42983 0.69091 0.0
C545 C 0.24034 0.47313 0.73745 0.0
C546 C 0.27913 0.49656 0.71383 0.0
C547 C 0.34468 0.49849 0.66628 0.0
C548 C 0.37076 0.47659 0.6426 0.0
C549 C 0.30543 0.47531 0.69023 0.0
C550 C 0.35624 0.43122 0.64311 0.0
C551 C 0.31786 0.40824 0.66699 0.0
H552 H 0.72831 0.77013 0.87806 0.0
H553 H 0.63656 0.68873 0.97033 0.0
H554 H 0.70327 0.66791 1.00531 0.0
H555 H 0.78771 0.67281 1.00904 0.0
H556 H 0.87761 0.75221 0.91381 0.0
H557 H 0.81143 0.77399 0.88079 0.0
C558 C 0.72263 0.74716 0.90529 0.0
C559 C 0.67737 0.73034 0.92106 0.0
C560 C 0.7609 0.73534 0.92498 0.0
C561 C 0.67104 0.70191 0.95745 0.0
C562 C 0.70913 0.69002 0.9774 0.0
C563 C 0.79278 0.69463 0.98088 0.0
C564 C 0.83781 0.71098 0.96421 0.0
C565 C 0.75424 0.70649 0.96135 0.0
C566 C 0.84371 0.73974 0.92802 0.0
C567 C 0.80575 0.75194 0.90876 0.0
H568 H 0.38813 0.83507 0.24121 0.0
H569 H 0.50351 0.77843 0.24559 0.0
H570 H 0.5521 0.84262 0.20846 0.0
H571 H 0.56032 0.91349 0.17033 0.0
H572 H 0.44523 0.97043 0.16872 0.0
H573 H 0.39804 0.90753 0.20809 0.0
C574 C 0.42409 0.83682 0.23442 0.0
C575 C 0.44186 0.80145 0.24627 0.0
C576 C 0.45172 0.87381 0.21267 0.0
C577 C 0.48879 0.80493 0.23744 0.0
C578 C 0.51649 0.8416 0.21571 0.0
C579 C 0.52492 0.91222 0.17868 0.0
C580 C 0.50616 0.94667 0.16552 0.0
C581 C 0.49811 0.87599 0.20242 0.0
C582 C 0.4604 0.94436 0.17731 0.0
C583 C 0.43344 0.90836 0.20023 0.0
H584 H 0.15014 0.27148 0.73541 0.0
H585 H 0.02192 0.30582 0.75199 0.0
H586 H 0.97752 0.24091 0.713 0.0
H587 H 0.97496 0.1755 0.67125 0.0
H588 H 0.1021 0.13867 0.65781 0.0
H589 H 0.14676 0.2031 0.6978 0.0
C590 C 0.11242 0.26472 0.73072 0.0
C591 C 0.08967 0.29412 0.74685 0.0
C592 C 0.08681 0.22681 0.70832 0.0
C593 C 0.0406 0.28408 0.7406 0.0
C594 C 0.01513 0.24693 0.71789 0.0
C595 C 0.01246 0.18138 0.67718 0.0
C596 C 0.03504 0.15202 0.66092 0.0
C597 C 0.03783 0.21824 0.70117 0.0
C598 C 0.08363 0.16038 0.66952 0.0
C599 C 0.10923 0.19741 0.69252 0.0
H600 H 0.80342 0.39314 0.36737 0.0
H601 H 0.87427 0.39982 0.49554 0.0
H602 H 0.81098 0.42241 0.52709 0.0
H603 H 0.73206 0.43403 0.51891 0.0
H604 H 0.66454 0.4299 0.38974 0.0
H605 H 0.7314 0.41403 0.35755 0.0
C606 C 0.80646 0.401 0.40193 0.0
C607 C 0.84396 0.39446 0.4289 0.0
C608 C 0.77033 0.41426 0.41972 0.0
C609 C 0.84567 0.40379 0.47395 0.0
C610 C 0.8095 0.41683 0.49204 0.0
C611 C 0.7324 0.43009 0.48367 0.0
C612 C 0.69339 0.43267 0.45668 0.0
C613 C 0.77103 0.42101 0.46539 0.0
C614 C 0.69427 0.42815 0.41106 0.0
C615 C 0.73233 0.41886 0.39272 0.0
loop_
_geom_bond_atom_site_label_1
_geom_bond_atom_site_label_2
_geom_bond_distance
_geom_bond_site_symmetry_2
_ccdc_geom_bond_type
H0 C3 0.931 . S
H1 C6 0.928 . S
H2 C8 0.930 . S
C3 H0 0.931 . S
C3 C4 1.413 . S
C3 C5 1.360 . S
C4 C3 1.413 . S
C4 C8 1.429 . S
C5 C3 1.360 . S
C5 C6 1.372 . S
C6 H1 0.928 . S
C6 C5 1.372 . S
C6 C7 1.404 . S
C7 C6 1.404 . S
C7 C8 1.391 . S
C8 H2 0.930 . S
C8 C4 1.429 . S
C8 C7 1.391 . S
H9 C12 0.931 . S
H10 C15 0.928 . S
H11 C17 0.930 . S
C12 H9 0.931 . S
C12 C13 1.413 . S
C12 C14 1.360 . S
C13 C12 1.413 . S
C13 C17 1.429 . S
C14 C12 1.360 . S
C14 C15 1.372 . S
C15 H10 0.928 . S
C15 C14 1.372 . S
C15 C16 1.404 . S
C16 C15 1.404 . S
C16 C17 1.391 . S
C17 H11 0.930 . S
C17 C13 1.429 . S
C17 C16 1.391 . S
H18 C21 0.931 . S
H19 C24 0.928 . S
H20 C26 0.930 . S
C21 H18 0.931 . S
C21 C22 1.413 . S
C21 C23 1.360 . S
C22 C21 1.413 . S
C22 C26 1.429 . S
C23 C21 1.360 . S
C23 C24 1.372 . S
C24 H19 0.928 . S
C24 C23 1.372 . S
C24 C25 1.404 . S
C25 C24 1.404 . S
C25 C26 1.391 . S
C26 H20 0.930 . S
C26 C22 1.429 . S
C26 C25 1.391 . S
H27 C30 0.931 . S
H28 C33 0.928 . S
H29 C35 0.930 . S
C30 H27 0.931 . S
C30 C31 1.413 . S
C30 C32 1.360 . S
C31 C30 1.413 . S
C31 C35 1.429 . S
C32 C30 1.360 . S
C32 C33 1.372 . S
C33 H28 0.928 . S
C33 C32 1.372 . S
C33 C34 1.404 . S
C34 C33 1.404 . S
C34 C35 1.391 . S
C35 H29 0.930 . S
C35 C31 1.429 . S
C35 C34 1.391 . S
H36 C39 0.931 . S
H37 C42 0.928 . S
H38 C44 0.930 . S
C39 H36 0.931 . S
C39 C40 1.413 . S
C39 C41 1.360 . S
C40 C39 1.413 . S
C40 C44 1.429 . S
C41 C39 1.360 . S
C41 C42 1.372 . S
C42 H37 0.928 . S
C42 C41 1.372 . S
C42 C43 1.404 . S
C43 C42 1.404 . S
C43 C44 1.391 . S
C44 H38 0.930 . S
C44 C40 1.429 . S
C44 C43 1.391 . S
H45 C48 0.931 . S
H46 C51 0.928 . S
H47 C53 0.930 . S
C48 H45 0.931 . S
C48 C49 1.413 . S
C48 C50 1.360 . S
C49 C48 1.413 . S
C49 C53 1.429 . S
C50 C48 1.360 . S
C50 C51 1.372 . S
C51 H46 0.928 . S
C51 C50 1.372 . S
C51 C52 1.404 . S
C52 C51 1.404 . S
C52 C53 1.391 . S
C53 H47 0.930 . S
C53 C49 1.429 . S
C53 C52 1.391 . S
H54 C57 0.931 . S
H55 C60 0.928 . S
H56 C62 0.930 . S
C57 H54 0.931 . S
C57 C58 1.413 . S
C57 C59 1.360 . S
C58 C57 1.413 . S
C58 C62 1.429 . S
C59 C57 1.360 . S
C59 C60 1.372 . S
C60 H55 0.928 . S
C60 C59 1.372 . S
C60 C61 1.404 . S
C61 C60 1.404 . S
C61 C62 1.391 . S
C62 H56 0.930 . S
C62 C58 1.429 . S
C62 C61 1.391 . S
H63 C66 0.931 . S
H64 C69 0.928 . S
H65 C71 0.930 . S
C66 H63 0.931 . S
C66 C67 1.413 . S
C66 C68 1.360 . S
C67 C66 1.413 . S
C67 C71 1.429 . S
C68 C66 1.360 . S
C68 C69 1.372 . S
C69 H64 0.928 . S
C69 C68 1.372 . S
C69 C70 1.404 . S
C70 C69 1.404 . S
C70 C71 1.391 . S
C71 H65 0.930 . S
C71 C67 1.429 . S
C71 C70 1.391 . S
Tb72 C74 2.824 . S
Tb72 O92 2.508 . S
Tb72 O93 2.444 . S
Tb72 O94 2.650 1_665 S
Tb72 O95 2.391 1_565 S
Tb72 O96 2.396 1_655 S
Tb72 O100 2.344 . S
Tb72 O103 2.325 1_565 S
Tb73 C83 2.809 . S
Tb73 O94 2.325 . S
Tb73 O97 2.341 1_545 S
Tb73 O98 2.484 . S
Tb73 O99 2.440 . S
Tb73 O100 2.658 1_445 S
Tb73 O101 2.409 1_545 S
Tb73 O102 2.378 . S
C74 Tb72 2.824 . S
C74 C75 1.514 . S
C74 O92 1.248 . S
C74 O93 1.266 . S
C75 C74 1.514 . S
C75 C76 1.359 . S
C75 C80 1.348 . S
C76 C75 1.359 . S
C76 C77 1.380 . S
C76 H104 0.929 . S
C77 C76 1.380 . S
C77 C78 1.347 . S
C77 H105 0.931 . S
C78 C77 1.347 . S
C78 C79 1.369 . S
C79 C78 1.369 . S
C79 C80 1.408 . S
C79 H106 0.930 . S
C80 C75 1.348 . S
C80 C79 1.408 . S
C80 H107 0.930 . S
C81 O94 1.281 . S
C81 O95 1.254 1_455 S
C82 O96 1.234 . S
C82 O97 1.266 . S
C83 Tb73 2.809 . S
C83 C84 1.514 . S
C83 O98 1.248 . S
C83 O99 1.266 . S
C84 C83 1.514 . S
C84 C85 1.359 . S
C84 C89 1.348 . S
C85 C84 1.359 . S
C85 C86 1.380 . S
C85 H108 0.929 . S
C86 C85 1.380 . S
C86 C87 1.347 . S
C86 H109 0.931 . S
C87 C86 1.347 . S
C87 C88 1.369 . S
C88 C87 1.369 . S
C88 C89 1.408 . S
C88 H110 0.930 . S
C89 C84 1.348 . S
C89 C88 1.408 . S
C89 H111 0.930 . S
C90 O100 1.281 . S
C90 O101 1.254 1_655 S
C91 O102 1.236 1_655 S
C91 O103 1.266 . S
O92 Tb72 2.508 . S
O92 C74 1.248 . S
O93 Tb72 2.444 . S
O93 C74 1.266 . S
O94 Tb72 2.650 1_445 S
O94 Tb73 2.325 . S
O94 C81 1.281 . S
O95 Tb72 2.391 1_545 S
O95 C81 1.254 1_655 S
O96 Tb72 2.396 1_455 S
O96 C82 1.234 . S
O97 Tb73 2.341 1_565 S
O97 C82 1.266 . S
O98 Tb73 2.484 . S
O98 C83 1.248 . S
O99 Tb73 2.440 . S
O99 C83 1.266 . S
O100 Tb72 2.344 . S
O100 Tb73 2.658 1_665 S
O100 C90 1.281 . S
O101 Tb73 2.409 1_565 S
O101 C90 1.254 1_455 S
O102 Tb73 2.378 . S
O102 C91 1.236 1_455 S
O103 Tb72 2.325 1_545 S
O103 C91 1.266 . S
H104 C76 0.929 . S
H105 C77 0.931 . S
H106 C79 0.930 . S
H107 C80 0.930 . S
H108 C85 0.929 . S
H109 C86 0.931 . S
H110 C88 0.930 . S
H111 C89 0.930 . S
Tb112 C114 2.809 . S
Tb112 O132 2.484 . S
Tb112 O133 2.440 . S
Tb112 O134 2.658 1_545 S
Tb112 O135 2.409 1_545 S
Tb112 O136 2.378 . S
Tb112 O140 2.325 1_554 S
Tb112 O143 2.341 1_544 S
Tb113 C123 2.809 . S
Tb113 O134 2.325 1_556 S
Tb113 O137 2.341 1_566 S
Tb113 O138 2.484 . S
Tb113 O139 2.440 . S
Tb113 O140 2.658 1_565 S
Tb113 O141 2.409 1_565 S
Tb113 O142 2.378 . S
C114 Tb112 2.809 . S
C114 C115 1.514 . S
C114 O132 1.248 . S
C114 O133 1.266 . S
C115 C114 1.514 . S
C115 C116 1.359 . S
C115 C120 1.348 . S
C116 C115 1.359 . S
C116 C117 1.380 . S
C116 H144 0.929 . S
C117 C116 1.380 . S
C117 C118 1.347 . S
C117 H145 0.931 . S
C118 C117 1.347 . S
C118 C119 1.369 . S
C119 C118 1.369 . S
C119 C120 1.408 . S
C119 H146 0.930 . S
C120 C115 1.348 . S
C120 C119 1.408 . S
C120 H147 0.930 . S
C121 O134 1.281 . S
C121 O135 1.254 . S
C122 O136 1.236 . S
C122 O137 1.266 . S
C123 Tb113 2.809 . S
C123 C124 1.514 . S
C123 O138 1.248 . S
C123 O139 1.266 . S
C124 C123 1.514 . S
C124 C125 1.359 . S
C124 C129 1.348 . S
C125 C124 1.359 . S
C125 C126 1.380 . S
C125 H148 0.929 . S
C126 C125 1.380 . S
C126 C127 1.347 . S
C126 H149 0.931 . S
C127 C126 1.347 . S
C127 C128 1.369 . S
C128 C127 1.369 . S
C128 C129 1.408 . S
C128 H150 0.930 . S
C129 C124 1.348 . S
C129 C128 1.408 . S
C129 H151 0.930 . S
C130 O140 1.281 . S
C130 O141 1.254 . S
C131 O142 1.236 . S
C131 O143 1.266 . S
O132 Tb112 2.484 . S
O132 C114 1.248 . S
O133 Tb112 2.440 . S
O133 C114 1.266 . S
O134 Tb112 2.658 1_565 S
O134 Tb113 2.325 1_554 S
O134 C121 1.281 . S
O135 Tb112 2.409 1_565 S
O135 C121 1.254 . S
O136 Tb112 2.378 . S
O136 C122 1.236 . S
O137 Tb113 2.341 1_544 S
O137 C122 1.266 . S
O138 Tb113 2.484 . S
O138 C123 1.248 . S
O139 Tb113 2.440 . S
O139 C123 1.266 . S
O140 Tb112 2.325 1_556 S
O140 Tb113 2.658 1_545 S
O140 C130 1.281 . S
O141 Tb113 2.409 1_545 S
O141 C130 1.254 . S
O142 Tb113 2.378 . S
O142 C131 1.236 . S
O143 Tb112 2.341 1_566 S
O143 C131 1.266 . S
H144 C116 0.929 . S
H145 C117 0.931 . S
H146 C119 0.930 . S
H147 C120 0.930 . S
H148 C125 0.929 . S
H149 C126 0.931 . S
H150 C128 0.930 . S
H151 C129 0.930 . S
Tb152 C154 2.809 . S
Tb152 O172 2.484 . S
Tb152 O173 2.440 . S
Tb152 O174 2.658 . S
Tb152 O175 2.409 . S
Tb152 O176 2.378 . S
Tb152 O180 2.325 . S
Tb152 O183 2.341 . S
Tb153 C163 2.809 . S
Tb153 O174 2.325 . S
Tb153 O177 2.341 . S
Tb153 O178 2.484 . S
Tb153 O179 2.440 . S
Tb153 O180 2.658 . S
Tb153 O181 2.409 . S
Tb153 O182 2.378 . S
C154 Tb152 2.809 . S
C154 C155 1.514 . S
C154 O172 1.248 . S
C154 O173 1.266 . S
C155 C154 1.514 . S
C155 C156 1.359 . S
C155 C160 1.348 . S
C156 C155 1.359 . S
C156 C157 1.380 . S
C156 H184 0.929 . S
C157 C156 1.380 . S
C157 C158 1.347 . S
C157 H185 0.931 . S
C158 C157 1.347 . S
C158 C159 1.369 . S
C159 C158 1.369 . S
C159 C160 1.408 . S
C159 H186 0.930 . S
C160 C155 1.348 . S
C160 C159 1.408 . S
C160 H187 0.930 . S
C161 O174 1.281 . S
C161 O175 1.254 . S
C162 O176 1.236 . S
C162 O177 1.266 . S
C163 Tb153 2.809 . S
C163 C164 1.514 . S
C163 O178 1.248 . S
C163 O179 1.266 . S
C164 C163 1.514 . S
C164 C165 1.359 . S
C164 C169 1.348 . S
C165 C164 1.359 . S
C165 C166 1.380 . S
C165 H188 0.929 . S
C166 C165 1.380 . S
C166 C167 1.347 . S
C166 H189 0.931 . S
C167 C166 1.347 . S
C167 C168 1.369 . S
C168 C167 1.369 . S
C168 C169 1.408 . S
C168 H190 0.930 . S
C169 C164 1.348 . S
C169 C168 1.408 . S
C169 H191 0.930 . S
C170 O180 1.281 . S
C170 O181 1.254 . S
C171 O182 1.236 . S
C171 O183 1.266 . S
O172 Tb152 2.484 . S
O172 C154 1.248 . S
O173 Tb152 2.440 . S
O173 C154 1.266 . S
O174 Tb152 2.658 . S
O174 Tb153 2.325 . S
O174 C161 1.281 . S
O175 Tb152 2.409 . S
O175 C161 1.254 . S
O176 Tb152 2.378 . S
O176 C162 1.236 . S
O177 Tb153 2.341 . S
O177 C162 1.266 . S
O178 Tb153 2.484 . S
O178 C163 1.248 . S
O179 Tb153 2.440 . S
O179 C163 1.266 . S
O180 Tb152 2.325 . S
O180 Tb153 2.658 . S
O180 C170 1.281 . S
O181 Tb153 2.409 . S
O181 C170 1.254 . S
O182 Tb153 2.378 . S
O182 C171 1.236 . S
O183 Tb152 2.341 . S
O183 C171 1.266 . S
H184 C156 0.929 . S
H185 C157 0.931 . S
H186 C159 0.930 . S
H187 C160 0.930 . S
H188 C165 0.929 . S
H189 C166 0.931 . S
H190 C168 0.930 . S
H191 C169 0.930 . S
Tb192 C194 2.809 . S
Tb192 O212 2.484 . S
Tb192 O213 2.440 . S
Tb192 O214 2.658 1_656 S
Tb192 O215 2.409 1_656 S
Tb192 O216 2.378 1_556 S
Tb192 O220 2.325 . S
Tb192 O223 2.341 1_655 S
Tb193 C203 2.809 . S
Tb193 O214 2.325 . S
Tb193 O217 2.341 1_455 S
Tb193 O218 2.484 . S
Tb193 O219 2.440 . S
Tb193 O220 2.658 1_454 S
Tb193 O221 2.416 1_455 S
Tb193 O222 2.378 1_554 S
C194 Tb192 2.809 . S
C194 C195 1.514 . S
C194 O212 1.248 . S
C194 O213 1.266 . S
C195 C194 1.514 . S
C195 C196 1.359 . S
C195 C200 1.348 . S
C196 C195 1.359 . S
C196 C197 1.380 . S
C196 H224 0.929 . S
C197 C196 1.380 . S
C197 C198 1.347 . S
C197 H225 0.931 . S
C198 C197 1.347 . S
C198 C199 1.369 . S
C199 C198 1.369 . S
C199 C200 1.408 . S
C199 H226 0.930 . S
C200 C195 1.348 . S
C200 C199 1.408 . S
C200 H227 0.930 . S
C201 O214 1.281 . S
C201 O215 1.254 . S
C202 O216 1.236 . S
C202 O217 1.266 . S
C203 Tb193 2.809 . S
C203 C204 1.514 . S
C203 O218 1.248 . S
C203 O219 1.266 . S
C204 C203 1.514 . S
C204 C205 1.359 . S
C204 C209 1.348 . S
C205 C204 1.359 . S
C205 C206 1.380 . S
C205 H228 0.929 . S
C206 C205 1.380 . S
C206 C207 1.347 . S
C206 H229 0.931 . S
C207 C206 1.347 . S
C207 C208 1.369 . S
C208 C207 1.369 . S
C208 C209 1.408 . S
C208 H230 0.930 . S
C209 C204 1.348 . S
C209 C208 1.408 . S
C209 H231 0.930 . S
C210 O220 1.281 . S
C210 O221 1.246 1_556 S
C211 O222 1.236 . S
C211 O223 1.266 . S
O212 Tb192 2.484 . S
O212 C194 1.248 . S
O213 Tb192 2.440 . S
O213 C194 1.266 . S
O214 Tb192 2.658 1_454 S
O214 Tb193 2.325 . S
O214 C201 1.281 . S
O215 Tb192 2.409 1_454 S
O215 C201 1.254 . S
O216 Tb192 2.378 1_554 S
O216 C202 1.236 . S
O217 Tb193 2.341 1_655 S
O217 C202 1.266 . S
O218 Tb193 2.484 . S
O218 C203 1.248 . S
O219 Tb193 2.440 . S
O219 C203 1.266 . S
O220 Tb192 2.325 . S
O220 Tb193 2.658 1_656 S
O220 C210 1.281 . S
O221 Tb193 2.416 1_655 S
O221 C210 1.246 1_554 S
O222 Tb193 2.378 1_556 S
O222 C211 1.236 . S
O223 Tb192 2.341 1_455 S
O223 C211 1.266 . S
H224 C196 0.929 . S
H225 C197 0.931 . S
H226 C199 0.930 . S
H227 C200 0.930 . S
H228 C205 0.929 . S
H229 C206 0.931 . S
H230 C208 0.930 . S
H231 C209 0.930 . S
H232 C238 0.930 . S
H233 C241 0.930 . S
H234 C242 0.930 . S
H235 C243 0.930 . S
H236 C246 0.930 . S
H237 C247 0.930 . S
C238 H232 0.930 . S
C238 C239 1.355 . S
C238 C240 1.415 . S
C239 C238 1.355 . S
C239 C241 1.419 . S
C240 C238 1.415 . S
C240 C245 1.425 . S
C240 C247 1.409 . S
C241 H233 0.930 . S
C241 C239 1.419 . S
C241 C242 1.362 . S
C242 H234 0.930 . S
C242 C241 1.362 . S
C242 C245 1.409 . S
C243 H235 0.930 . S
C243 C244 1.355 . S
C243 C245 1.415 . S
C244 C243 1.355 . S
C244 C246 1.419 . S
C245 C240 1.425 . S
C245 C242 1.409 . S
C245 C243 1.415 . S
C246 H236 0.930 . S
C246 C244 1.419 . S
C246 C247 1.362 . S
C247 H237 0.930 . S
C247 C240 1.409 . S
C247 C246 1.362 . S
H248 C254 0.930 . S
H249 C257 0.930 . S
H250 C258 0.930 . S
H251 C259 0.930 . S
H252 C262 0.930 . S
H253 C263 0.930 . S
C254 H248 0.930 . S
C254 C255 1.355 . S
C254 C256 1.415 . S
C255 C254 1.355 . S
C255 C257 1.419 . S
C256 C254 1.415 . S
C256 C261 1.425 . S
C256 C263 1.409 . S
C257 H249 0.930 . S
C257 C255 1.419 . S
C257 C258 1.362 . S
C258 H250 0.930 . S
C258 C257 1.362 . S
C258 C261 1.409 . S
C259 H251 0.930 . S
C259 C260 1.355 . S
C259 C261 1.415 . S
C260 C259 1.355 . S
C260 C262 1.419 . S
C261 C256 1.425 . S
C261 C258 1.409 . S
C261 C259 1.415 . S
C262 H252 0.930 . S
C262 C260 1.419 . S
C262 C263 1.362 . S
C263 H253 0.930 . S
C263 C256 1.409 . S
C263 C262 1.362 . S
H264 C270 0.930 . S
H265 C273 0.930 . S
H266 C274 0.930 . S
H267 C275 0.930 . S
H268 C278 0.930 . S
H269 C279 0.930 . S
C270 H264 0.930 . S
C270 C271 1.355 . S
C270 C272 1.415 . S
C271 C270 1.355 . S
C271 C273 1.419 . S
C272 C270 1.415 . S
C272 C277 1.425 . S
C272 C279 1.409 . S
C273 H265 0.930 . S
C273 C271 1.419 . S
C273 C274 1.362 . S
C274 H266 0.930 . S
C274 C273 1.362 . S
C274 C277 1.409 . S
C275 H267 0.930 . S
C275 C276 1.355 . S
C275 C277 1.415 . S
C276 C275 1.355 . S
C276 C278 1.419 . S
C277 C272 1.425 . S
C277 C274 1.409 . S
C277 C275 1.415 . S
C278 H268 0.930 . S
C278 C276 1.419 . S
C278 C279 1.362 . S
C279 H269 0.930 . S
C279 C272 1.409 . S
C279 C278 1.362 . S
H280 C286 0.930 . S
H281 C289 0.930 . S
H282 C290 0.930 . S
H283 C291 0.930 . S
H284 C294 0.930 . S
H285 C295 0.930 . S
C286 H280 0.930 . S
C286 C287 1.355 . S
C286 C288 1.415 . S
C287 C286 1.355 . S
C287 C289 1.419 . S
C288 C286 1.415 . S
C288 C293 1.425 . S
C288 C295 1.409 . S
C289 H281 0.930 . S
C289 C287 1.419 . S
C289 C290 1.362 . S
C290 H282 0.930 . S
C290 C289 1.362 . S
C290 C293 1.409 . S
C291 H283 0.930 . S
C291 C292 1.355 . S
C291 C293 1.415 . S
C292 C291 1.355 . S
C292 C294 1.419 . S
C293 C288 1.425 . S
C293 C290 1.409 . S
C293 C291 1.415 . S
C294 H284 0.930 . S
C294 C292 1.419 . S
C294 C295 1.362 . S
C295 H285 0.930 . S
C295 C288 1.409 . S
C295 C294 1.362 . S
H296 C302 0.930 . S
H297 C305 0.930 . S
H298 C306 0.930 . S
H299 C307 0.930 . S
H300 C310 0.930 . S
H301 C311 0.930 . S
C302 H296 0.930 . S
C302 C303 1.355 . S
C302 C304 1.415 . S
C303 C302 1.355 . S
C303 C305 1.419 . S
C304 C302 1.415 . S
C304 C309 1.425 . S
C304 C311 1.409 . S
C305 H297 0.930 . S
C305 C303 1.419 . S
C305 C306 1.362 . S
C306 H298 0.930 . S
C306 C305 1.362 . S
C306 C309 1.409 . S
C307 H299 0.930 . S
C307 C308 1.355 . S
C307 C309 1.415 . S
C308 C307 1.355 . S
C308 C310 1.419 . S
C309 C304 1.425 . S
C309 C306 1.409 . S
C309 C307 1.415 . S
C310 H300 0.930 . S
C310 C308 1.419 . S
C310 C311 1.362 . S
C311 H301 0.930 . S
C311 C304 1.409 . S
C311 C310 1.362 . S
H312 C318 0.930 . S
H313 C321 0.930 . S
H314 C322 0.930 . S
H315 C323 0.930 . S
H316 C326 0.930 . S
H317 C327 0.930 . S
C318 H312 0.930 . S
C318 C319 1.355 . S
C318 C320 1.415 . S
C319 C318 1.355 . S
C319 C321 1.419 . S
C320 C318 1.415 . S
C320 C325 1.425 . S
C320 C327 1.409 1_455 S
C321 H313 0.930 . S
C321 C319 1.419 . S
C321 C322 1.362 . S
C322 H314 0.930 . S
C322 C321 1.362 . S
C322 C325 1.409 . S
C323 H315 0.930 . S
C323 C324 1.355 . S
C323 C325 1.415 . S
C324 C323 1.355 . S
C324 C326 1.419 1_455 S
C325 C320 1.425 . S
C325 C322 1.409 . S
C325 C323 1.415 . S
C326 H316 0.930 . S
C326 C324 1.419 1_655 S
C326 C327 1.362 . S
C327 H317 0.930 . S
C327 C320 1.409 1_655 S
C327 C326 1.362 . S
H328 C334 0.930 . S
H329 C337 0.930 . S
H330 C338 0.930 . S
H331 C339 0.930 . S
H332 C342 0.930 . S
H333 C343 0.930 . S
C334 H328 0.930 . S
C334 C335 1.355 . S
C334 C336 1.415 . S
C335 C334 1.355 . S
C335 C337 1.419 . S
C336 C334 1.415 . S
C336 C341 1.425 . S
C336 C343 1.409 . S
C337 H329 0.930 . S
C337 C335 1.419 . S
C337 C338 1.362 . S
C338 H330 0.930 . S
C338 C337 1.362 . S
C338 C341 1.409 . S
C339 H331 0.930 . S
C339 C340 1.355 . S
C339 C341 1.415 . S
C340 C339 1.355 . S
C340 C342 1.419 . S
C341 C336 1.425 . S
C341 C338 1.409 . S
C341 C339 1.415 . S
C342 H332 0.930 . S
C342 C340 1.419 . S
C342 C343 1.362 . S
C343 H333 0.930 . S
C343 C336 1.409 . S
C343 C342 1.362 . S
H344 C350 0.930 . S
H345 C353 0.930 . S
H346 C354 0.930 . S
H347 C355 0.930 . S
H348 C358 0.930 . S
H349 C359 0.930 . S
C350 H344 0.930 . S
C350 C351 1.355 . S
C350 C352 1.415 . S
C351 C350 1.355 . S
C351 C353 1.419 . S
C352 C350 1.415 . S
C352 C357 1.425 . S
C352 C359 1.409 . S
C353 H345 0.930 . S
C353 C351 1.419 . S
C353 C354 1.362 . S
C354 H346 0.930 . S
C354 C353 1.362 . S
C354 C357 1.409 . S
C355 H347 0.930 . S
C355 C356 1.355 . S
C355 C357 1.415 . S
C356 C355 1.355 . S
C356 C358 1.419 . S
C357 C352 1.425 . S
C357 C354 1.409 . S
C357 C355 1.415 . S
C358 H348 0.930 . S
C358 C356 1.419 . S
C358 C359 1.362 . S
C359 H349 0.930 . S
C359 C352 1.409 . S
C359 C358 1.362 . S
H360 C366 0.930 . S
H361 C369 0.930 . S
H362 C370 0.930 . S
H363 C371 0.930 . S
H364 C374 0.930 . S
H365 C375 0.930 . S
C366 H360 0.930 . S
C366 C367 1.355 . S
C366 C368 1.415 . S
C367 C366 1.355 . S
C367 C369 1.419 . S
C368 C366 1.415 . S
C368 C373 1.425 . S
C368 C375 1.409 . S
C369 H361 0.930 . S
C369 C367 1.419 . S
C369 C370 1.362 . S
C370 H362 0.930 . S
C370 C369 1.362 . S
C370 C373 1.409 . S
C371 H363 0.930 . S
C371 C372 1.355 . S
C371 C373 1.415 . S
C372 C371 1.355 . S
C372 C374 1.419 . S
C373 C368 1.425 . S
C373 C370 1.409 . S
C373 C371 1.415 . S
C374 H364 0.930 . S
C374 C372 1.419 . S
C374 C375 1.362 . S
C375 H365 0.930 . S
C375 C368 1.409 . S
C375 C374 1.362 . S
H376 C382 0.930 . S
H377 C385 0.930 . S
H378 C386 0.930 . S
H379 C387 0.930 . S
H380 C390 0.930 . S
H381 C391 0.930 . S
C382 H376 0.930 . S
C382 C383 1.355 . S
C382 C384 1.415 . S
C383 C382 1.355 . S
C383 C385 1.419 . S
C384 C382 1.415 . S
C384 C389 1.425 . S
C384 C391 1.409 . S
C385 H377 0.930 . S
C385 C383 1.419 . S
C385 C386 1.362 . S
C386 H378 0.930 . S
C386 C385 1.362 . S
C386 C389 1.409 . S
C387 H379 0.930 . S
C387 C388 1.355 . S
C387 C389 1.415 . S
C388 C387 1.355 . S
C388 C390 1.419 . S
C389 C384 1.425 . S
C389 C386 1.409 . S
C389 C387 1.415 . S
C390 H380 0.930 . S
C390 C388 1.419 . S
C390 C391 1.362 . S
C391 H381 0.930 . S
C391 C384 1.409 . S
C391 C390 1.362 . S
H392 C398 0.930 . S
H393 C401 0.930 . S
H394 C402 0.930 . S
H395 C403 0.930 . S
H396 C406 0.930 . S
H397 C407 0.930 . S
C398 H392 0.930 . S
C398 C399 1.355 . S
C398 C400 1.415 . S
C399 C398 1.355 . S
C399 C401 1.419 . S
C400 C398 1.415 . S
C400 C405 1.425 . S
C400 C407 1.409 . S
C401 H393 0.930 . S
C401 C399 1.419 . S
C401 C402 1.362 . S
C402 H394 0.930 . S
C402 C401 1.362 . S
C402 C405 1.409 . S
C403 H395 0.930 . S
C403 C404 1.355 . S
C403 C405 1.415 . S
C404 C403 1.355 . S
C404 C406 1.419 . S
C405 C400 1.425 . S
C405 C402 1.409 . S
C405 C403 1.415 . S
C406 H396 0.930 . S
C406 C404 1.419 . S
C406 C407 1.362 . S
C407 H397 0.930 . S
C407 C400 1.409 . S
C407 C406 1.362 . S
H408 C414 0.930 . S
H409 C417 0.930 . S
H410 C418 0.930 . S
H411 C419 0.930 . S
H412 C422 0.930 . S
H413 C423 0.930 . S
C414 H408 0.930 . S
C414 C415 1.355 . S
C414 C416 1.415 . S
C415 C414 1.355 . S
C415 C417 1.419 . S
C416 C414 1.415 . S
C416 C421 1.425 . S
C416 C423 1.409 . S
C417 H409 0.930 . S
C417 C415 1.419 . S
C417 C418 1.362 . S
C418 H410 0.930 . S
C418 C417 1.362 . S
C418 C421 1.409 . S
C419 H411 0.930 . S
C419 C420 1.355 . S
C419 C421 1.415 . S
C420 C419 1.355 . S
C420 C422 1.419 . S
C421 C416 1.425 . S
C421 C418 1.409 . S
C421 C419 1.415 . S
C422 H412 0.930 . S
C422 C420 1.419 . S
C422 C423 1.362 . S
C423 H413 0.930 . S
C423 C416 1.409 . S
C423 C422 1.362 . S
H424 C430 0.930 . S
H425 C433 0.930 . S
H426 C434 0.930 . S
H427 C435 0.930 . S
H428 C438 0.930 . S
H429 C439 0.930 . S
C430 H424 0.930 . S
C430 C431 1.355 . S
C430 C432 1.415 . S
C431 C430 1.355 . S
C431 C433 1.419 . S
C432 C430 1.415 . S
C432 C437 1.425 . S
C432 C439 1.409 . S
C433 H425 0.930 . S
C433 C431 1.419 . S
C433 C434 1.362 . S
C434 H426 0.930 . S
C434 C433 1.362 . S
C434 C437 1.409 . S
C435 H427 0.930 . S
C435 C436 1.355 . S
C435 C437 1.415 . S
C436 C435 1.355 . S
C436 C438 1.419 . S
C437 C432 1.425 . S
C437 C434 1.409 . S
C437 C435 1.415 . S
C438 H428 0.930 . S
C438 C436 1.419 . S
C438 C439 1.362 . S
C439 H429 0.930 . S
C439 C432 1.409 . S
C439 C438 1.362 . S
H440 C446 0.930 . S
H441 C449 0.930 . S
H442 C450 0.930 . S
H443 C451 0.930 . S
H444 C454 0.930 . S
H445 C455 0.930 . S
C446 H440 0.930 . S
C446 C447 1.355 . S
C446 C448 1.415 . S
C447 C446 1.355 . S
C447 C449 1.419 . S
C448 C446 1.415 . S
C448 C453 1.425 . S
C448 C455 1.409 . S
C449 H441 0.930 . S
C449 C447 1.419 . S
C449 C450 1.362 . S
C450 H442 0.930 . S
C450 C449 1.362 . S
C450 C453 1.409 . S
C451 H443 0.930 . S
C451 C452 1.355 . S
C451 C453 1.415 . S
C452 C451 1.355 . S
C452 C454 1.419 . S
C453 C448 1.425 . S
C453 C450 1.409 . S
C453 C451 1.415 . S
C454 H444 0.930 . S
C454 C452 1.419 . S
C454 C455 1.362 . S
C455 H445 0.930 . S
C455 C448 1.409 . S
C455 C454 1.362 . S
H456 C462 0.930 . S
H457 C465 0.930 . S
H458 C466 0.930 . S
H459 C467 0.930 . S
H460 C470 0.930 . S
H461 C471 0.930 . S
C462 H456 0.930 . S
C462 C463 1.355 . S
C462 C464 1.415 . S
C463 C462 1.355 . S
C463 C465 1.419 . S
C464 C462 1.415 . S
C464 C469 1.425 . S
C464 C471 1.409 . S
C465 H457 0.930 . S
C465 C463 1.419 . S
C465 C466 1.362 . S
C466 H458 0.930 . S
C466 C465 1.362 . S
C466 C469 1.409 . S
C467 H459 0.930 . S
C467 C468 1.355 . S
C467 C469 1.415 . S
C468 C467 1.355 . S
C468 C470 1.419 . S
C469 C464 1.425 . S
C469 C466 1.409 . S
C469 C467 1.415 . S
C470 H460 0.930 . S
C470 C468 1.419 . S
C470 C471 1.362 . S
C471 H461 0.930 . S
C471 C464 1.409 . S
C471 C470 1.362 . S
H472 C478 0.930 . S
H473 C481 0.930 . S
H474 C482 0.930 . S
H475 C483 0.930 . S
H476 C486 0.930 . S
H477 C487 0.930 . S
C478 H472 0.930 . S
C478 C479 1.355 . S
C478 C480 1.415 . S
C479 C478 1.355 . S
C479 C481 1.419 . S
C480 C478 1.415 . S
C480 C485 1.425 . S
C480 C487 1.409 . S
C481 H473 0.930 . S
C481 C479 1.419 . S
C481 C482 1.362 . S
C482 H474 0.930 . S
C482 C481 1.362 . S
C482 C485 1.409 . S
C483 H475 0.930 . S
C483 C484 1.355 . S
C483 C485 1.415 . S
C484 C483 1.355 . S
C484 C486 1.419 . S
C485 C480 1.425 . S
C485 C482 1.409 . S
C485 C483 1.415 . S
C486 H476 0.930 . S
C486 C484 1.419 . S
C486 C487 1.362 . S
C487 H477 0.930 . S
C487 C480 1.409 . S
C487 C486 1.362 . S
H488 C494 0.930 . S
H489 C497 0.930 . S
H490 C498 0.930 . S
H491 C499 0.930 . S
H492 C502 0.930 . S
H493 C503 0.930 . S
C494 H488 0.930 . S
C494 C495 1.355 . S
C494 C496 1.415 . S
C495 C494 1.355 . S
C495 C497 1.419 . S
C496 C494 1.415 . S
C496 C501 1.425 . S
C496 C503 1.409 . S
C497 H489 0.930 . S
C497 C495 1.419 . S
C497 C498 1.362 . S
C498 H490 0.930 . S
C498 C497 1.362 . S
C498 C501 1.409 . S
C499 H491 0.930 . S
C499 C500 1.355 . S
C499 C501 1.415 . S
C500 C499 1.355 . S
C500 C502 1.419 . S
C501 C496 1.425 . S
C501 C498 1.409 . S
C501 C499 1.415 . S
C502 H492 0.930 . S
C502 C500 1.419 . S
C502 C503 1.362 . S
C503 H493 0.930 . S
C503 C496 1.409 . S
C503 C502 1.362 . S
H504 C510 0.930 . S
H505 C513 0.930 . S
H506 C514 0.930 . S
H507 C515 0.930 . S
H508 C518 0.930 . S
H509 C519 0.930 . S
C510 H504 0.930 . S
C510 C511 1.355 . S
C510 C512 1.415 . S
C511 C510 1.355 . S
C511 C513 1.419 . S
C512 C510 1.415 . S
C512 C517 1.425 . S
C512 C519 1.409 1_655 S
C513 H505 0.930 . S
C513 C511 1.419 . S
C513 C514 1.362 . S
C514 H506 0.930 . S
C514 C513 1.362 . S
C514 C517 1.409 . S
C515 H507 0.930 . S
C515 C516 1.355 . S
C515 C517 1.415 . S
C516 C515 1.355 . S
C516 C518 1.419 1_655 S
C517 C512 1.425 . S
C517 C514 1.409 . S
C517 C515 1.415 . S
C518 H508 0.930 . S
C518 C516 1.419 1_455 S
C518 C519 1.362 . S
C519 H509 0.930 . S
C519 C512 1.409 1_455 S
C519 C518 1.362 . S
H520 C526 0.930 . S
H521 C529 0.930 . S
H522 C530 0.930 . S
H523 C531 0.930 . S
H524 C534 0.930 . S
H525 C535 0.930 . S
C526 H520 0.930 . S
C526 C527 1.355 . S
C526 C528 1.415 . S
C527 C526 1.355 . S
C527 C529 1.419 . S
C528 C526 1.415 . S
C528 C533 1.425 . S
C528 C535 1.409 . S
C529 H521 0.930 . S
C529 C527 1.419 . S
C529 C530 1.362 . S
C530 H522 0.930 . S
C530 C529 1.362 . S
C530 C533 1.409 . S
C531 H523 0.930 . S
C531 C532 1.355 . S
C531 C533 1.415 . S
C532 C531 1.355 . S
C532 C534 1.419 . S
C533 C528 1.425 . S
C533 C530 1.409 . S
C533 C531 1.415 . S
C534 H524 0.930 . S
C534 C532 1.419 . S
C534 C535 1.362 . S
C535 H525 0.930 . S
C535 C528 1.409 . S
C535 C534 1.362 . S
H536 C542 0.930 . S
H537 C545 0.930 . S
H538 C546 0.930 . S
H539 C547 0.930 . S
H540 C550 0.930 . S
H541 C551 0.930 . S
C542 H536 0.930 . S
C542 C543 1.355 . S
C542 C544 1.415 . S
C543 C542 1.355 . S
C543 C545 1.419 . S
C544 C542 1.415 . S
C544 C549 1.425 . S
C544 C551 1.409 . S
C545 H537 0.930 . S
C545 C543 1.419 . S
C545 C546 1.362 . S
C546 H538 0.930 . S
C546 C545 1.362 . S
C546 C549 1.409 . S
C547 H539 0.930 . S
C547 C548 1.355 . S
C547 C549 1.415 . S
C548 C547 1.355 . S
C548 C550 1.419 . S
C549 C544 1.425 . S
C549 C546 1.409 . S
C549 C547 1.415 . S
C550 H540 0.930 . S
C550 C548 1.419 . S
C550 C551 1.362 . S
C551 H541 0.930 . S
C551 C544 1.409 . S
C551 C550 1.362 . S
H552 C558 0.930 . S
H553 C561 0.930 . S
H554 C562 0.930 . S
H555 C563 0.930 . S
H556 C566 0.930 . S
H557 C567 0.930 . S
C558 H552 0.930 . S
C558 C559 1.355 . S
C558 C560 1.415 . S
C559 C558 1.355 . S
C559 C561 1.419 . S
C560 C558 1.415 . S
C560 C565 1.425 . S
C560 C567 1.409 . S
C561 H553 0.930 . S
C561 C559 1.419 . S
C561 C562 1.362 . S
C562 H554 0.930 . S
C562 C561 1.362 . S
C562 C565 1.409 . S
C563 H555 0.930 . S
C563 C564 1.355 . S
C563 C565 1.415 . S
C564 C563 1.355 . S
C564 C566 1.419 . S
C565 C560 1.425 . S
C565 C562 1.409 . S
C565 C563 1.415 . S
C566 H556 0.930 . S
C566 C564 1.419 . S
C566 C567 1.362 . S
C567 H557 0.930 . S
C567 C560 1.409 . S
C567 C566 1.362 . S
H568 C574 0.930 . S
H569 C577 0.930 . S
H570 C578 0.930 . S
H571 C579 0.930 . S
H572 C582 0.930 . S
H573 C583 0.930 . S
C574 H568 0.930 . S
C574 C575 1.355 . S
C574 C576 1.415 . S
C575 C574 1.355 . S
C575 C577 1.419 . S
C576 C574 1.415 . S
C576 C581 1.425 . S
C576 C583 1.409 . S
C577 H569 0.930 . S
C577 C575 1.419 . S
C577 C578 1.362 . S
C578 H570 0.930 . S
C578 C577 1.362 . S
C578 C581 1.409 . S
C579 H571 0.930 . S
C579 C580 1.355 . S
C579 C581 1.415 . S
C580 C579 1.355 . S
C580 C582 1.419 . S
C581 C576 1.425 . S
C581 C578 1.409 . S
C581 C579 1.415 . S
C582 H572 0.930 . S
C582 C580 1.419 . S
C582 C583 1.362 . S
C583 H573 0.930 . S
C583 C576 1.409 . S
C583 C582 1.362 . S
H584 C590 0.930 . S
H585 C593 0.930 . S
H586 C594 0.930 . S
H587 C595 0.930 . S
H588 C598 0.918 1_655 S
H589 C599 0.930 . S
C590 H584 0.930 . S
C590 C591 1.355 . S
C590 C592 1.415 . S
C591 C590 1.355 . S
C591 C593 1.419 . S
C592 C590 1.415 . S
C592 C597 1.425 . S
C592 C599 1.409 . S
C593 H585 0.930 . S
C593 C591 1.419 . S
C593 C594 1.362 . S
C594 H586 0.930 . S
C594 C593 1.362 . S
C594 C597 1.409 . S
C595 H587 0.930 . S
C595 C596 1.355 . S
C595 C597 1.415 . S
C596 C595 1.355 . S
C596 C598 1.419 . S
C597 C592 1.425 . S
C597 C594 1.409 . S
C597 C595 1.415 . S
C598 H588 0.918 1_455 S
C598 C596 1.419 . S
C598 C599 1.362 . S
C599 H589 0.930 . S
C599 C592 1.409 . S
C599 C598 1.362 . S
H600 C606 0.930 . S
H601 C609 0.930 . S
H602 C610 0.930 . S
H603 C611 0.930 . S
H604 C614 0.930 . S
H605 C615 0.930 . S
C606 H600 0.930 . S
C606 C607 1.355 . S
C606 C608 1.415 . S
C607 C606 1.355 . S
C607 C609 1.419 . S
C608 C606 1.415 . S
C608 C613 1.425 . S
C608 C615 1.409 . S
C609 H601 0.930 . S
C609 C607 1.419 . S
C609 C610 1.362 . S
C610 H602 0.930 . S
C610 C609 1.362 . S
C610 C613 1.409 . S
C611 H603 0.930 . S
C611 C612 1.355 . S
C611 C613 1.415 . S
C612 C611 1.355 . S
C612 C614 1.419 . S
C613 C608 1.425 . S
C613 C610 1.409 . S
C613 C611 1.415 . S
C614 H604 0.930 . S
C614 C612 1.419 . S
C614 C615 1.362 . S
C615 H605 0.930 . S
C615 C608 1.409 . S
C615 C614 1.362 . S
C239 C5 1.102 . S
C244 C87 1.134 . S
C255 C14 1.048 . S
C260 C127 1.054 . S
C276 C161 2.355 . S
C271 C25 2.367 . S
C287 C34 2.638 . S
C292 C202 2.573 . S
C308 C122 1.260 . S
C303 C7 1.210 . S
C324 C82 1.773 . S
C319 C13 1.629 . S
C340 C210 1.694 . S
C335 C23 1.701 . S
C356 C171 1.776 . S
C351 C31 1.860 . S
C367 C4 1.319 . S
C372 C207 1.316 . S
C388 C130 2.058 . S
C383 C22 2.102 . S
C399 C32 2.413 . S
C404 C90 2.333 . S
C415 C16 1.357 . S
C420 C158 1.428 . S
C436 C78 1.155 . S
C431 C41 1.129 . S
C447 C50 0.936 . S
C452 C118 0.980 . S
C463 C61 2.363 . S
C468 C170 2.355 . S
C479 C67 2.655 . S
C484 C211 2.594 . S
C495 C40 1.277 . S
C500 C131 1.271 . S
C516 C91 1.758 . S
C511 C52 1.611 . S
C532 C201 1.702 . S
C527 C59 1.686 . S
C548 C162 1.781 . S
C543 C70 1.864 . S
C559 C43 1.359 . S
C564 C198 1.355 . S
C580 C121 2.045 . S
C575 C58 2.113 . S
C596 C81 2.279 . S
C591 C68 2.381 . S
C607 C49 1.418 . S
C612 C167 1.441 . S
