# Generated by pormake.
# Topology csq, (4,8)-cn, num edge types: 1
# Building blocks:
#     Node 0, Type 0, BuildingBlock: NAHDIM_clean_linker_0, # of connection points: 4
#     Node 1, Type 0, BuildingBlock: NAHDIM_clean_linker_0, # of connection points: 4
#     Node 2, Type 0, BuildingBlock: NAHDIM_clean_linker_0, # of connection points: 4
#     Node 3, Type 0, BuildingBlock: NAHDIM_clean_linker_0, # of connection points: 4
#     Node 4, Type 0, BuildingBlock: NAHDIM_clean_linker_0, # of connection points: 4
#     Node 5, Type 0, BuildingBlock: NAHDIM_clean_linker_0, # of connection points: 4
#     Node 6, Type 1, BuildingBlock: TAGTUT_clean_sbu_3, # of connection points: 8
#     Node 7, Type 1, BuildingBlock: TAGTUT_clean_sbu_3, # of connection points: 8
#     Node 8, Type 1, BuildingBlock: TAGTUT_clean_sbu_3, # of connection points: 8
#     Edge 9, Type (0, 1), BuildingBlock: UVAHIK_clean_linker_0, # of connection points: 2
#     Edge 10, Type (0, 1), BuildingBlock: UVAHIK_clean_linker_0, # of connection points: 2
#     Edge 11, Type (0, 1), BuildingBlock: UVAHIK_clean_linker_0, # of connection points: 2
#     Edge 12, Type (0, 1), BuildingBlock: UVAHIK_clean_linker_0, # of connection points: 2
#     Edge 13, Type (0, 1), BuildingBlock: UVAHIK_clean_linker_0, # of connection points: 2
#     Edge 14, Type (0, 1), BuildingBlock: UVAHIK_clean_linker_0, # of connection points: 2
#     Edge 15, Type (0, 1), BuildingBlock: UVAHIK_clean_linker_0, # of connection points: 2
#     Edge 16, Type (0, 1), BuildingBlock: UVAHIK_clean_linker_0, # of connection points: 2
#     Edge 17, Type (0, 1), BuildingBlock: UVAHIK_clean_linker_0, # of connection points: 2
#     Edge 18, Type (0, 1), BuildingBlock: UVAHIK_clean_linker_0, # of connection points: 2
#     Edge 19, Type (0, 1), BuildingBlock: UVAHIK_clean_linker_0, # of connection points: 2
#     Edge 20, Type (0, 1), BuildingBlock: UVAHIK_clean_linker_0, # of connection points: 2
#     Edge 21, Type (0, 1), BuildingBlock: UVAHIK_clean_linker_0, # of connection points: 2
#     Edge 22, Type (0, 1), BuildingBlock: UVAHIK_clean_linker_0, # of connection points: 2
#     Edge 23, Type (0, 1), BuildingBlock: UVAHIK_clean_linker_0, # of connection points: 2
#     Edge 24, Type (0, 1), BuildingBlock: UVAHIK_clean_linker_0, # of connection points: 2
#     Edge 25, Type (0, 1), BuildingBlock: UVAHIK_clean_linker_0, # of connection points: 2
#     Edge 26, Type (0, 1), BuildingBlock: UVAHIK_clean_linker_0, # of connection points: 2
#     Edge 27, Type (0, 1), BuildingBlock: UVAHIK_clean_linker_0, # of connection points: 2
#     Edge 28, Type (0, 1), BuildingBlock: UVAHIK_clean_linker_0, # of connection points: 2
#     Edge 29, Type (0, 1), BuildingBlock: UVAHIK_clean_linker_0, # of connection points: 2
#     Edge 30, Type (0, 1), BuildingBlock: UVAHIK_clean_linker_0, # of connection points: 2
#     Edge 31, Type (0, 1), BuildingBlock: UVAHIK_clean_linker_0, # of connection points: 2
#     Edge 32, Type (0, 1), BuildingBlock: UVAHIK_clean_linker_0, # of connection points: 2
# Relax obj value: 0.052
# Max RMSD: 0.125
# Mean RMSD: 0.094
data_MOF--net-csq--node1-TAGTUT_clean_sbu_3--node2-NAHDIM_clean_linker_0--edge1-UVAHIK_clean_linker_0
_symmetry_space_group_name_H-M    P1
_symmetry_Int_Tables_number       1
_symmetry_cell_setting            triclinic
loop_
_symmetry_equiv_pos_as_xyz
'x, y, z'
_cell_length_a     81.689403
_cell_length_b     80.986955
_cell_length_c     31.578263
_cell_angle_alpha  92.205253
_cell_angle_beta   92.026103
_cell_angle_gamma 119.94419
loop_
_atom_site_label
_atom_site_type_symbol
_atom_site_fract_x
_atom_site_fract_y
_atom_site_fract_z
_atom_type_partial_charge
C0 C 0.31793 0.50855 0.42419 0.0
C1 C 0.31142 0.49111 0.3933 0.0
C2 C 0.29129 0.48319 0.32774 0.0
C3 C 0.28249 0.46321 0.32783 0.0
C4 C 0.26638 0.45144 0.30077 0.0
C5 C 0.25899 0.45985 0.27326 0.0
C6 C 0.2681 0.47998 0.27258 0.0
C7 C 0.28429 0.49136 0.29949 0.0
C8 C 0.25722 0.43004 0.3016 0.0
C9 C 0.26054 0.48948 0.24396 0.0
C10 C 0.13479 0.40175 0.40536 0.0
C11 C 0.14423 0.4176 0.37475 0.0
C12 C 0.15739 0.41493 0.30926 0.0
C13 C 0.1689 0.43412 0.30095 0.0
C14 C 0.18465 0.43981 0.27654 0.0
C15 C 0.18926 0.42603 0.2613 0.0
C16 C 0.17748 0.40657 0.26947 0.0
C17 C 0.16137 0.40122 0.29245 0.0
C18 C 0.19653 0.4606 0.26776 0.0
C19 C 0.18214 0.39146 0.25518 0.0
C20 C 0.15568 0.3904 0.98622 0.0
C21 C 0.16473 0.41005 0.99737 0.0
C22 C 0.18229 0.41933 0.02068 0.0
C23 C 0.1907 0.4086 0.03396 0.0
C24 C 0.1819 0.3889 0.02128 0.0
C25 C 0.16462 0.38014 0.99689 0.0
C26 C 0.19165 0.44052 0.0318 0.0
C27 C 0.1905 0.377 0.0343 0.0
C28 C 0.32767 0.43182 0.04699 0.0
C29 C 0.31906 0.43252 0.00353 0.0
C30 C 0.29443 0.44039 0.02047 0.0
C31 C 0.28944 0.45457 0.01971 0.0
C32 C 0.27225 0.45152 0.0349 0.0
C33 C 0.2598 0.43383 0.05141 0.0
C34 C 0.26459 0.41929 0.0517 0.0
C35 C 0.28181 0.42268 0.03621 0.0
C36 C 0.26757 0.46732 0.03424 0.0
C37 C 0.25165 0.40027 0.06929 0.0
C38 C 0.24142 0.44778 0.24601 0.0
C39 C 0.22412 0.44175 0.26405 0.0
C40 C 0.20702 0.43215 0.23937 0.0
C41 C 0.20715 0.42863 0.19517 0.0
C42 C 0.19036 0.41991 0.16889 0.0
C43 C 0.19063 0.41623 0.12558 0.0
C44 C 0.20775 0.42136 0.1067 0.0
C45 C 0.2082 0.41775 0.06262 0.0
C46 C 0.22542 0.42245 0.04531 0.0
C47 C 0.2423 0.43081 0.0708 0.0
C48 C 0.24222 0.43514 0.11457 0.0
C49 C 0.25905 0.4441 0.14079 0.0
C50 C 0.25884 0.44832 0.1838 0.0
C51 C 0.24176 0.44344 0.2024 0.0
C52 C 0.22458 0.43407 0.17677 0.0
C53 C 0.22485 0.43024 0.13262 0.0
C54 C 0.10585 0.36466 0.98166 0.0
C55 C 0.12337 0.38387 0.97476 0.0
O56 O 0.30655 0.49511 0.35411 0.0
O57 O 0.31157 0.44454 0.00635 0.0
O58 O 0.13824 0.38094 0.96571 0.0
O59 O 0.14268 0.4094 0.33441 0.0
H60 H 0.29881 0.47911 0.4065 0.0
H61 H 0.30639 0.51196 0.4267 0.0
H62 H 0.33056 0.52117 0.41295 0.0
H63 H 0.32149 0.50566 0.45633 0.0
H64 H 0.28821 0.45677 0.3487 0.0
H65 H 0.29133 0.50678 0.2994 0.0
H66 H 0.2428 0.42414 0.31325 0.0
H67 H 0.26547 0.42569 0.32241 0.0
H68 H 0.25567 0.42361 0.26895 0.0
H69 H 0.2686 0.50529 0.24915 0.0
H70 H 0.24544 0.48432 0.24947 0.0
H71 H 0.2613 0.48562 0.21027 0.0
H72 H 0.15944 0.42637 0.38619 0.0
H73 H 0.13608 0.40796 0.43814 0.0
H74 H 0.14183 0.39303 0.40556 0.0
H75 H 0.11956 0.39224 0.39553 0.0
H76 H 0.16553 0.44462 0.31361 0.0
H77 H 0.15228 0.38642 0.29911 0.0
H78 H 0.20046 0.46211 0.23424 0.0
H79 H 0.2098 0.46721 0.28844 0.0
H80 H 0.18905 0.46864 0.2742 0.0
H81 H 0.1736 0.37787 0.27063 0.0
H82 H 0.19738 0.39648 0.26234 0.0
H83 H 0.1792 0.38844 0.22034 0.0
H84 H 0.12666 0.39261 0.00534 0.0
H85 H 0.15806 0.41813 0.98789 0.0
H86 H 0.15761 0.36502 0.9875 0.0
H87 H 0.19035 0.44301 0.06601 0.0
H88 H 0.18507 0.44729 0.01311 0.0
H89 H 0.20697 0.44765 0.02616 0.0
H90 H 0.18089 0.36154 0.02579 0.0
H91 H 0.19404 0.37906 0.06909 0.0
H92 H 0.20385 0.38171 0.01824 0.0
H93 H 0.30771 0.4178 0.9929 0.0
H94 H 0.33446 0.42292 0.04411 0.0
H95 H 0.31652 0.42542 0.07 0.0
H96 H 0.33838 0.44638 0.06007 0.0
H97 H 0.29919 0.46817 0.00752 0.0
H98 H 0.2853 0.41147 0.0372 0.0
H99 H 0.2667 0.4719 0.06729 0.0
H100 H 0.2535 0.462 0.01741 0.0
H101 H 0.2783 0.47993 0.0185 0.0
H102 H 0.25716 0.39023 0.06629 0.0
H103 H 0.23745 0.39359 0.05237 0.0
H104 H 0.24986 0.40245 0.10336 0.0
H105 H 0.22399 0.44484 0.29775 0.0
H106 H 0.17679 0.4158 0.18155 0.0
H107 H 0.17722 0.40928 0.10712 0.0
H108 H 0.22564 0.41928 0.01171 0.0
H109 H 0.27262 0.44809 0.12832 0.0
H110 H 0.27223 0.4553 0.2024 0.0
H111 H 0.09366 0.36666 0.98834 0.0
H112 H 0.10877 0.35823 0.00929 0.0
H113 H 0.10197 0.35455 0.95336 0.0
C114 C 0.85338 0.26862 0.39005 0.0
C115 C 0.8672 0.28306 0.36047 0.0
C116 C 0.84664 0.27141 0.29479 0.0
C117 C 0.8508 0.25732 0.28076 0.0
C118 C 0.83908 0.24314 0.24932 0.0
C119 C 0.82264 0.2428 0.23223 0.0
C120 C 0.81863 0.2572 0.24573 0.0
C121 C 0.83095 0.27156 0.27623 0.0
C122 C 0.84407 0.22829 0.23497 0.0
C123 C 0.80104 0.25711 0.22902 0.0
C124 C 0.7405 0.10978 0.34373 0.0
C125 C 0.7361 0.12263 0.31712 0.0
C126 C 0.75307 0.14082 0.25797 0.0
C127 C 0.74757 0.1547 0.26039 0.0
C128 C 0.75738 0.17169 0.23961 0.0
C129 C 0.77316 0.17493 0.21655 0.0
C130 C 0.77864 0.16088 0.21396 0.0
C131 C 0.76823 0.14382 0.23403 0.0
C132 C 0.75091 0.18617 0.24232 0.0
C133 C 0.79564 0.16396 0.1905 0.0
C134 C 0.73891 0.1438 0.95381 0.0
C135 C 0.73267 0.15628 0.96763 0.0
C136 C 0.74562 0.17466 0.98539 0.0
C137 C 0.7651 0.18047 0.98979 0.0
C138 C 0.77151 0.16842 0.97283 0.0
C139 C 0.75828 0.15027 0.95453 0.0
C140 C 0.7384 0.18744 0.00165 0.0
C141 C 0.7922 0.17427 0.97624 0.0
C142 C 0.88503 0.31387 0.99072 0.0
C143 C 0.87469 0.30632 0.94672 0.0
C144 C 0.84309 0.28176 0.966 0.0
C145 C 0.8248 0.27812 0.97288 0.0
C146 C 0.81169 0.26145 0.99142 0.0
C147 C 0.81697 0.24796 0.00285 0.0
C148 C 0.83522 0.25119 0.99467 0.0
C149 C 0.84813 0.26808 0.97663 0.0
C150 C 0.79231 0.2584 0.9995 0.0
C151 C 0.84119 0.23689 0.00554 0.0
C152 C 0.80893 0.22652 0.20296 0.0
C153 C 0.79724 0.20923 0.2208 0.0
C154 C 0.78413 0.19311 0.19562 0.0
C155 C 0.78224 0.19428 0.15136 0.0
C156 C 0.76886 0.17845 0.1253 0.0
C157 C 0.76752 0.17949 0.08165 0.0
C158 C 0.77933 0.19651 0.06229 0.0
C159 C 0.77822 0.19757 0.01775 0.0
C160 C 0.79031 0.2146 0.99941 0.0
C161 C 0.80367 0.23072 0.0245 0.0
C162 C 0.80489 0.22996 0.06919 0.0
C163 C 0.81815 0.24587 0.09544 0.0
C164 C 0.81956 0.2448 0.13923 0.0
C165 C 0.80763 0.22784 0.15853 0.0
C166 C 0.79413 0.21166 0.1327 0.0
C167 C 0.7927 0.21276 0.08805 0.0
C168 C 0.70858 0.0953 0.96879 0.0
C169 C 0.7092 0.11359 0.95582 0.0
O170 O 0.85722 0.28495 0.32628 0.0
O171 O 0.85534 0.29861 0.94959 0.0
O172 O 0.7267 0.1254 0.9401 0.0
O173 O 0.74413 0.12444 0.27844 0.0
H174 H 0.87681 0.2781 0.34894 0.0
H175 H 0.84488 0.25437 0.3729 0.0
H176 H 0.84359 0.27333 0.40176 0.0
H177 H 0.86121 0.26707 0.41767 0.0
H178 H 0.86316 0.25729 0.29404 0.0
H179 H 0.82795 0.28259 0.28705 0.0
H180 H 0.83423 0.21448 0.24815 0.0
H181 H 0.85877 0.23235 0.24574 0.0
H182 H 0.84248 0.22606 0.1998 0.0
H183 H 0.79908 0.26828 0.2457 0.0
H184 H 0.78834 0.24295 0.23258 0.0
H185 H 0.80193 0.25961 0.19468 0.0
H186 H 0.74276 0.1368 0.3352 0.0
H187 H 0.73435 0.10824 0.37517 0.0
H188 H 0.75607 0.1162 0.34903 0.0
H189 H 0.73467 0.0954 0.32728 0.0
H190 H 0.73553 0.15222 0.27814 0.0
H191 H 0.77227 0.13294 0.23221 0.0
H192 H 0.74929 0.19037 0.21005 0.0
H193 H 0.76178 0.19921 0.26103 0.0
H194 H 0.73726 0.18065 0.25763 0.0
H195 H 0.7995 0.15286 0.19635 0.0
H196 H 0.80803 0.1782 0.20016 0.0
H197 H 0.79253 0.16358 0.15587 0.0
H198 H 0.70719 0.12042 0.98496 0.0
H199 H 0.71769 0.15158 0.96524 0.0
H200 H 0.76294 0.14064 0.94276 0.0
H201 H 0.73875 0.18777 0.03686 0.0
H202 H 0.72363 0.18236 0.98936 0.0
H203 H 0.74763 0.20228 0.99251 0.0
H204 H 0.79493 0.16343 0.9606 0.0
H205 H 0.79726 0.17648 0.01021 0.0
H206 H 0.80062 0.18804 0.96142 0.0
H207 H 0.87758 0.29517 0.93351 0.0
H208 H 0.90055 0.32028 0.98831 0.0
H209 H 0.88034 0.3021 0.01246 0.0
H210 H 0.88212 0.32485 0.00481 0.0
H211 H 0.82094 0.28863 0.9644 0.0
H212 H 0.8621 0.27043 0.9713 0.0
H213 H 0.78985 0.25662 0.03381 0.0
H214 H 0.78134 0.24507 0.9818 0.0
H215 H 0.79052 0.27046 0.9897 0.0
H216 H 0.85514 0.24057 0.99344 0.0
H217 H 0.83045 0.22241 0.99206 0.0
H218 H 0.84212 0.23628 0.04054 0.0
H219 H 0.79855 0.20823 0.2548 0.0
H220 H 0.75935 0.165 0.13833 0.0
H221 H 0.75712 0.1667 0.06335 0.0
H222 H 0.7896 0.21518 0.96517 0.0
H223 H 0.82767 0.25931 0.0824 0.0
H224 H 0.83015 0.25742 0.15778 0.0
H225 H 0.69486 0.08565 0.98232 0.0
H226 H 0.72013 0.09887 0.99335 0.0
H227 H 0.71045 0.08769 0.94098 0.0
C228 C 0.54744 0.80438 0.30674 0.0
C229 C 0.55693 0.82342 0.2856 0.0
C230 C 0.5556 0.81266 0.2119 0.0
C231 C 0.57468 0.81855 0.20662 0.0
C232 C 0.57977 0.80919 0.17598 0.0
C233 C 0.56546 0.79361 0.15018 0.0
C234 C 0.54625 0.78826 0.15404 0.0
C235 C 0.54159 0.79807 0.18458 0.0
C236 C 0.60042 0.81557 0.17203 0.0
C237 C 0.53065 0.77173 0.12706 0.0
C238 C 0.60272 0.69319 0.22593 0.0
C239 C 0.58435 0.69303 0.23497 0.0
C240 C 0.57667 0.70896 0.1793 0.0
C241 C 0.56257 0.70593 0.14867 0.0
C242 C 0.56273 0.72122 0.12904 0.0
C243 C 0.57781 0.74002 0.13946 0.0
C244 C 0.59238 0.7432 0.16994 0.0
C245 C 0.59161 0.72764 0.1898 0.0
C246 C 0.54668 0.71723 0.0974 0.0
C247 C 0.60876 0.76304 0.18144 0.0
C248 C 0.61737 0.74032 0.874 0.0
C249 C 0.59852 0.73018 0.88493 0.0
C250 C 0.5905 0.73944 0.90735 0.0
C251 C 0.60192 0.75905 0.92074 0.0
C252 C 0.62097 0.76927 0.90943 0.0
C253 C 0.62829 0.75982 0.88532 0.0
C254 C 0.56986 0.7282 0.91658 0.0
C255 C 0.63369 0.79014 0.92296 0.0
C256 C 0.56039 0.86033 0.91531 0.0
C257 C 0.57455 0.86307 0.8819 0.0
C258 C 0.57434 0.83295 0.88293 0.0
C259 C 0.56043 0.81367 0.88045 0.0
C260 C 0.56329 0.8003 0.90155 0.0
C261 C 0.58069 0.80641 0.92482 0.0
C262 C 0.59516 0.82578 0.92583 0.0
C263 C 0.59182 0.83887 0.90491 0.0
C264 C 0.54765 0.77971 0.89957 0.0
C265 C 0.6141 0.83263 0.94922 0.0
C266 C 0.57056 0.78178 0.12261 0.0
C267 C 0.57223 0.76731 0.14142 0.0
C268 C 0.5781 0.75627 0.11867 0.0
C269 C 0.58297 0.76001 0.07623 0.0
C270 C 0.59036 0.75019 0.05353 0.0
C271 C 0.59447 0.75348 0.01127 0.0
C272 C 0.59082 0.76629 0.98972 0.0
C273 C 0.59403 0.76903 0.94611 0.0
C274 C 0.59025 0.78193 0.92591 0.0
C275 C 0.58379 0.79258 0.9482 0.0
C276 C 0.58067 0.7902 0.99187 0.0
C277 C 0.57442 0.8009 0.01543 0.0
C278 C 0.57141 0.79843 0.05845 0.0
C279 C 0.57406 0.78483 0.07923 0.0
C280 C 0.58035 0.77391 0.05603 0.0
C281 C 0.58393 0.77679 0.01249 0.0
C282 C 0.64456 0.71759 0.85987 0.0
C283 C 0.62485 0.71508 0.86345 0.0
O284 O 0.5503 0.82062 0.24334 0.0
O285 O 0.57048 0.84546 0.86379 0.0
O286 O 0.62531 0.73166 0.85218 0.0
O287 O 0.57534 0.69343 0.19737 0.0
H288 H 0.57247 0.82912 0.28787 0.0
H289 H 0.55103 0.79423 0.29079 0.0
H290 H 0.5318 0.79795 0.30451 0.0
H291 H 0.55249 0.80651 0.34072 0.0
H292 H 0.58564 0.83041 0.22643 0.0
H293 H 0.52691 0.79383 0.18851 0.0
H294 H 0.60326 0.80429 0.18275 0.0
H295 H 0.60989 0.82906 0.19131 0.0
H296 H 0.60393 0.81767 0.13829 0.0
H297 H 0.51647 0.76973 0.13296 0.0
H298 H 0.53069 0.75839 0.13379 0.0
H299 H 0.53318 0.77407 0.09293 0.0
H300 H 0.58776 0.7057 0.25652 0.0
H301 H 0.60991 0.69276 0.25605 0.0
H302 H 0.61249 0.7064 0.21058 0.0
H303 H 0.59977 0.68071 0.20439 0.0
H304 H 0.55117 0.69146 0.1407 0.0
H305 H 0.60282 0.73017 0.21297 0.0
H306 H 0.55192 0.71964 0.06499 0.0
H307 H 0.54125 0.72711 0.10433 0.0
H308 H 0.53477 0.70231 0.09755 0.0
H309 H 0.62006 0.76288 0.20174 0.0
H310 H 0.60359 0.77153 0.19888 0.0
H311 H 0.61495 0.77037 0.15224 0.0
H312 H 0.62142 0.71268 0.89736 0.0
H313 H 0.59001 0.71512 0.87525 0.0
H314 H 0.6428 0.7675 0.87629 0.0
H315 H 0.56865 0.72428 0.95006 0.0
H316 H 0.5621 0.71481 0.89588 0.0
H317 H 0.56289 0.73684 0.91213 0.0
H318 H 0.6488 0.79505 0.91798 0.0
H319 H 0.63233 0.79292 0.957 0.0
H320 H 0.62939 0.7988 0.90412 0.0
H321 H 0.589 0.87061 0.89783 0.0
H322 H 0.56335 0.87439 0.92957 0.0
H323 H 0.56159 0.852 0.94114 0.0
H324 H 0.54566 0.85251 0.90084 0.0
H325 H 0.54709 0.80923 0.8629 0.0
H326 H 0.60298 0.85363 0.90538 0.0
H327 H 0.5439 0.77512 0.93222 0.0
H328 H 0.55263 0.77052 0.8846 0.0
H329 H 0.53473 0.77736 0.88119 0.0
H330 H 0.62424 0.84792 0.94497 0.0
H331 H 0.62035 0.82396 0.9379 0.0
H332 H 0.61216 0.8307 0.98365 0.0
H333 H 0.56882 0.76454 0.17425 0.0
H334 H 0.59313 0.73991 0.06829 0.0
H335 H 0.60028 0.74562 0.99557 0.0
H336 H 0.59265 0.78394 0.89244 0.0
H337 H 0.57184 0.81134 0.0009 0.0
H338 H 0.56668 0.80708 0.07508 0.0
H339 H 0.64476 0.70467 0.86981 0.0
H340 H 0.65502 0.73001 0.88091 0.0
H341 H 0.64888 0.72012 0.82667 0.0
C342 C 0.91938 0.62371 0.19137 0.0
C343 C 0.9067 0.60928 0.22241 0.0
C344 C 0.8741 0.59031 0.19089 0.0
C345 C 0.85975 0.57146 0.18169 0.0
C346 C 0.84127 0.56702 0.16966 0.0
C347 C 0.83726 0.58198 0.16486 0.0
C348 C 0.85162 0.60113 0.17501 0.0
C349 C 0.86989 0.60511 0.18842 0.0
C350 C 0.82622 0.54631 0.16096 0.0
C351 C 0.84782 0.61741 0.17035 0.0
C352 C 0.71494 0.58121 0.30704 0.0
C353 C 0.73238 0.58709 0.28384 0.0
C354 C 0.74765 0.57242 0.24421 0.0
C355 C 0.75984 0.58891 0.22372 0.0
C356 C 0.77258 0.5887 0.1953 0.0
C357 C 0.77329 0.57175 0.18753 0.0
C358 C 0.76122 0.55521 0.20852 0.0
C359 C 0.74846 0.55576 0.23639 0.0
C360 C 0.78525 0.60656 0.17335 0.0
C361 C 0.76175 0.53696 0.20137 0.0
C362 C 0.70439 0.51379 0.95572 0.0
C363 C 0.71585 0.53324 0.9489 0.0
C364 C 0.73559 0.54232 0.9562 0.0
C365 C 0.74392 0.53173 0.9708 0.0
C366 C 0.73246 0.51183 0.97473 0.0
C367 C 0.71281 0.50308 0.96661 0.0
C368 C 0.74748 0.56338 0.95007 0.0
C369 C 0.7409 0.49999 0.98925 0.0
C370 C 0.88342 0.5713 0.93708 0.0
C371 C 0.87113 0.55074 0.91828 0.0
C372 C 0.84027 0.54769 0.9079 0.0
C373 C 0.83521 0.56137 0.89895 0.0
C374 C 0.8201 0.5615 0.91857 0.0
C375 C 0.8097 0.54735 0.94701 0.0
C376 C 0.81385 0.53257 0.95331 0.0
C377 C 0.82917 0.53296 0.93378 0.0
C378 C 0.81597 0.57737 0.91096 0.0
C379 C 0.80274 0.51693 0.98248 0.0
C380 C 0.81848 0.57752 0.146 0.0
C381 C 0.80516 0.5774 0.17279 0.0
C382 C 0.78664 0.57136 0.15734 0.0
C383 C 0.78102 0.56469 0.11426 0.0
C384 C 0.76228 0.55755 0.09813 0.0
C385 C 0.75672 0.55009 0.05631 0.0
C386 C 0.76977 0.54988 0.02865 0.0
C387 C 0.76412 0.54168 0.98651 0.0
C388 C 0.77746 0.54157 0.96002 0.0
C389 C 0.7964 0.5494 0.97464 0.0
C390 C 0.8023 0.55775 0.01656 0.0
C391 C 0.82127 0.56585 0.03212 0.0
C392 C 0.82669 0.57278 0.07419 0.0
C393 C 0.81338 0.5719 0.10239 0.0
C394 C 0.79446 0.56493 0.08676 0.0
C395 C 0.78888 0.55771 0.04381 0.0
C396 C 0.66403 0.50183 0.00571 0.0
C397 C 0.67467 0.5128 0.96802 0.0
O398 O 0.8918 0.59348 0.20052 0.0
O399 O 0.85628 0.54932 0.8926 0.0
O400 O 0.68521 0.50504 0.95254 0.0
O401 O 0.73489 0.57192 0.27142 0.0
H402 H 0.90124 0.61641 0.24389 0.0
H403 H 0.91141 0.62927 0.17351 0.0
H404 H 0.92453 0.61701 0.16803 0.0
H405 H 0.93175 0.63599 0.20902 0.0
H406 H 0.86312 0.56015 0.18397 0.0
H407 H 0.88088 0.61978 0.19555 0.0
H408 H 0.81257 0.54355 0.1733 0.0
H409 H 0.83039 0.53658 0.17551 0.0
H410 H 0.82391 0.54279 0.12617 0.0
H411 H 0.86078 0.63157 0.17703 0.0
H412 H 0.83707 0.61612 0.1926 0.0
H413 H 0.84195 0.61671 0.13764 0.0
H414 H 0.74553 0.59954 0.29898 0.0
H415 H 0.72018 0.58819 0.34 0.0
H416 H 0.7101 0.56633 0.3171 0.0
H417 H 0.69828 0.58761 0.26661 0.0
H418 H 0.75943 0.60195 0.22955 0.0
H419 H 0.73903 0.54312 0.25235 0.0
H420 H 0.78313 0.60345 0.13839 0.0
H421 H 0.80029 0.61137 0.18243 0.0
H422 H 0.78251 0.61839 0.18154 0.0
H423 H 0.75225 0.52571 0.22203 0.0
H424 H 0.77642 0.53979 0.20755 0.0
H425 H 0.75739 0.53149 0.16771 0.0
H426 H 0.684 0.52785 0.98073 0.0
H427 H 0.70938 0.54136 0.93842 0.0
H428 H 0.70382 0.48798 0.97074 0.0
H429 H 0.75282 0.57133 0.98154 0.0
H430 H 0.73932 0.56898 0.93301 0.0
H431 H 0.75996 0.56622 0.93202 0.0
H432 H 0.73002 0.48473 0.99116 0.0
H433 H 0.74842 0.5057 0.021 0.0
H434 H 0.75146 0.50092 0.96686 0.0
H435 H 0.86557 0.54126 0.94506 0.0
H436 H 0.89544 0.57267 0.95753 0.0
H437 H 0.87487 0.57538 0.95692 0.0
H438 H 0.88907 0.58136 0.9114 0.0
H439 H 0.84376 0.57253 0.87837 0.0
H440 H 0.83275 0.52199 0.93938 0.0
H441 H 0.81895 0.58629 0.94094 0.0
H442 H 0.80074 0.57127 0.90125 0.0
H443 H 0.82461 0.58666 0.88611 0.0
H444 H 0.80579 0.50505 0.97898 0.0
H445 H 0.78732 0.51114 0.97605 0.0
H446 H 0.80644 0.5229 0.01592 0.0
H447 H 0.80916 0.58174 0.20623 0.0
H448 H 0.7516 0.55728 0.1179 0.0
H449 H 0.74199 0.5444 0.0461 0.0
H450 H 0.77295 0.53484 0.92815 0.0
H451 H 0.83213 0.56671 0.01216 0.0
H452 H 0.84145 0.57865 0.08441 0.0
H453 H 0.65502 0.48633 0.99672 0.0
H454 H 0.655 0.50745 0.01766 0.0
H455 H 0.67436 0.50364 0.03188 0.0
C456 C 0.27706 0.8339 0.81952 0.0
C457 C 0.28596 0.84945 0.85586 0.0
C458 C 0.27422 0.83108 0.91805 0.0
C459 C 0.26192 0.83713 0.93258 0.0
C460 C 0.24723 0.82572 0.95827 0.0
C461 C 0.24477 0.80788 0.96933 0.0
C462 C 0.25744 0.80197 0.95541 0.0
C463 C 0.27223 0.81385 0.93049 0.0
C464 C 0.23429 0.83269 0.97344 0.0
C465 C 0.25515 0.78297 0.96627 0.0
C466 C 0.12019 0.7446 0.8118 0.0
C467 C 0.13154 0.73752 0.83707 0.0
C468 C 0.14482 0.74644 0.90979 0.0
C469 C 0.15732 0.73931 0.90913 0.0
C470 C 0.17304 0.74664 0.93838 0.0
C471 C 0.17659 0.76179 0.96811 0.0
C472 C 0.16364 0.7686 0.96957 0.0
C473 C 0.14763 0.76044 0.94097 0.0
C474 C 0.18619 0.73863 0.93651 0.0
C475 C 0.16711 0.78508 0.99984 0.0
C476 C 0.15363 0.73233 0.24171 0.0
C477 C 0.16457 0.72501 0.2248 0.0
C478 C 0.18051 0.73654 0.20235 0.0
C479 C 0.18558 0.75574 0.19678 0.0
C480 C 0.17493 0.76329 0.21504 0.0
C481 C 0.15918 0.7515 0.23768 0.0
C482 C 0.19189 0.72822 0.18432 0.0
C483 C 0.18006 0.78376 0.21014 0.0
C484 C 0.32268 0.86996 0.20196 0.0
C485 C 0.31717 0.86426 0.24726 0.0
C486 C 0.28954 0.83205 0.2337 0.0
C487 C 0.28403 0.81272 0.22842 0.0
C488 C 0.26607 0.79924 0.21006 0.0
C489 C 0.25321 0.80529 0.19749 0.0
C490 C 0.25822 0.82461 0.20528 0.0
C491 C 0.27638 0.83783 0.22276 0.0
C492 C 0.26109 0.77871 0.20257 0.0
C493 C 0.2446 0.83145 0.19364 0.0
C494 C 0.22859 0.79517 0.99426 0.0
C495 C 0.2109 0.78425 0.97259 0.0
C496 C 0.19491 0.772 0.99373 0.0
C497 C 0.1966 0.77036 0.03792 0.0
C498 C 0.18098 0.75783 0.06016 0.0
C499 C 0.18269 0.75691 0.10395 0.0
C500 C 0.20014 0.76836 0.12711 0.0
C501 C 0.20197 0.76792 0.17177 0.0
C502 C 0.21949 0.77973 0.19378 0.0
C503 C 0.23535 0.792 0.17235 0.0
C504 C 0.23388 0.7924 0.12769 0.0
C505 C 0.24966 0.80442 0.10517 0.0
C506 C 0.24797 0.80533 0.06151 0.0
C507 C 0.23048 0.79412 0.03856 0.0
C508 C 0.21443 0.78166 0.06046 0.0
C509 C 0.21617 0.78072 0.10509 0.0
C510 C 0.10524 0.69928 0.24402 0.0
C511 C 0.12507 0.70213 0.25259 0.0
O512 O 0.28825 0.84165 0.89242 0.0
O513 O 0.30766 0.84455 0.24867 0.0
O514 O 0.13773 0.72136 0.26219 0.0
O515 O 0.13027 0.74047 0.88007 0.0
H516 H 0.27643 0.85536 0.86095 0.0
H517 H 0.26291 0.82244 0.82773 0.0
H518 H 0.28612 0.82751 0.81362 0.0
H519 H 0.27519 0.83995 0.78994 0.0
H520 H 0.2639 0.85084 0.92443 0.0
H521 H 0.28198 0.80946 0.91948 0.0
H522 H 0.21984 0.82343 0.95829 0.0
H523 H 0.23922 0.84767 0.96572 0.0
H524 H 0.23326 0.83173 0.00833 0.0
H525 H 0.26539 0.77991 0.95057 0.0
H526 H 0.24056 0.77133 0.95657 0.0
H527 H 0.25727 0.78286 0.00114 0.0
H528 H 0.14654 0.7463 0.82865 0.0
H529 H 0.12113 0.74252 0.77716 0.0
H530 H 0.12603 0.76009 0.81984 0.0
H531 H 0.10508 0.73684 0.81937 0.0
H532 H 0.15489 0.72811 0.88559 0.0
H533 H 0.13776 0.76571 0.94132 0.0
H534 H 0.19055 0.73692 0.96901 0.0
H535 H 0.19915 0.7487 0.92099 0.0
H536 H 0.17954 0.7246 0.91809 0.0
H537 H 0.15698 0.79018 0.9932 0.0
H538 H 0.18173 0.79721 0.99789 0.0
H539 H 0.16565 0.78058 0.03287 0.0
H540 H 0.12844 0.69708 0.2226 0.0
H541 H 0.16078 0.71037 0.22935 0.0
H542 H 0.1508 0.75707 0.25142 0.0
H543 H 0.19126 0.72837 0.14917 0.0
H544 H 0.18663 0.71331 0.19306 0.0
H545 H 0.20697 0.73712 0.19592 0.0
H546 H 0.16994 0.78726 0.22495 0.0
H547 H 0.18037 0.78653 0.17593 0.0
H548 H 0.19445 0.79348 0.22506 0.0
H549 H 0.30795 0.86991 0.25757 0.0
H550 H 0.3308 0.88577 0.20116 0.0
H551 H 0.3098 0.86446 0.18027 0.0
H552 H 0.33144 0.86401 0.19004 0.0
H553 H 0.29414 0.80831 0.23738 0.0
H554 H 0.28011 0.85262 0.22708 0.0
H555 H 0.25807 0.77448 0.16807 0.0
H556 H 0.24806 0.7693 0.21873 0.0
H557 H 0.27262 0.77626 0.21438 0.0
H558 H 0.24929 0.84594 0.20827 0.0
H559 H 0.23025 0.82142 0.20382 0.0
H560 H 0.2435 0.83195 0.15863 0.0
H561 H 0.20951 0.78545 0.93869 0.0
H562 H 0.16722 0.74871 0.04393 0.0
H563 H 0.17013 0.74718 0.11947 0.0
H564 H 0.2207 0.77964 0.22808 0.0
H565 H 0.26353 0.81338 0.12103 0.0
H566 H 0.26056 0.81501 0.046 0.0
H567 H 0.10087 0.70467 0.27178 0.0
H568 H 0.09478 0.6839 0.23684 0.0
H569 H 0.10512 0.70722 0.2162 0.0
C570 C 0.37471 0.25301 0.39719 0.0
C571 C 0.39432 0.26063 0.38017 0.0
C572 C 0.40354 0.25441 0.31142 0.0
C573 C 0.42304 0.26255 0.32116 0.0
C574 C 0.43404 0.25767 0.29611 0.0
C575 C 0.42521 0.24384 0.26155 0.0
C576 C 0.40561 0.23607 0.25098 0.0
C577 C 0.39518 0.24191 0.27548 0.0
C578 C 0.45499 0.26684 0.30763 0.0
C579 C 0.39539 0.22088 0.2153 0.0
C580 C 0.47 0.18928 0.44328 0.0
C581 C 0.46103 0.17263 0.40945 0.0
C582 C 0.46429 0.18645 0.34076 0.0
C583 C 0.44546 0.17774 0.32436 0.0
C584 C 0.44014 0.18606 0.29243 0.0
C585 C 0.45395 0.20352 0.27709 0.0
C586 C 0.47307 0.21201 0.29289 0.0
C587 C 0.47802 0.20309 0.32395 0.0
C588 C 0.41975 0.17634 0.27554 0.0
C589 C 0.4882 0.23081 0.2781 0.0
C590 C 0.47922 0.18234 0.00832 0.0
C591 C 0.46018 0.17774 0.00929 0.0
C592 C 0.45527 0.19001 0.03065 0.0
C593 C 0.46963 0.20731 0.05126 0.0
C594 C 0.4888 0.21215 0.04994 0.0
C595 C 0.49332 0.19955 0.02858 0.0
C596 C 0.43467 0.18442 0.03139 0.0
C597 C 0.50445 0.23057 0.07136 0.0
C598 C 0.44685 0.32206 0.99365 0.0
C599 C 0.4608 0.318 0.97081 0.0
C600 C 0.45411 0.28626 0.99092 0.0
C601 C 0.43899 0.26749 0.9893 0.0
C602 C 0.43919 0.25405 0.01578 0.0
C603 C 0.45514 0.25947 0.044 0.0
C604 C 0.47061 0.27836 0.04548 0.0
C605 C 0.46996 0.29157 0.01894 0.0
C606 C 0.42247 0.23402 0.01328 0.0
C607 C 0.48804 0.28447 0.07447 0.0
C608 C 0.4357 0.23541 0.24096 0.0
C609 C 0.43967 0.22357 0.26502 0.0
C610 C 0.44824 0.21389 0.24771 0.0
C611 C 0.45212 0.21519 0.20435 0.0
C612 C 0.4591 0.20426 0.18486 0.0
C613 C 0.46296 0.20571 0.14216 0.0
C614 C 0.46041 0.2185 0.11765 0.0
C615 C 0.46443 0.22019 0.07433 0.0
C616 C 0.46252 0.23361 0.05141 0.0
C617 C 0.45616 0.24513 0.07021 0.0
C618 C 0.45118 0.24301 0.11295 0.0
C619 C 0.44393 0.25373 0.13239 0.0
C620 C 0.43885 0.25131 0.17436 0.0
C621 C 0.44105 0.23825 0.19853 0.0
C622 C 0.44889 0.22774 0.17992 0.0
C623 C 0.45353 0.22978 0.13683 0.0
C624 C 0.46341 0.13741 0.99799 0.0
C625 C 0.47292 0.15316 0.96683 0.0
O626 O 0.39237 0.25811 0.33622 0.0
O627 O 0.4531 0.29842 0.96379 0.0
O628 O 0.4846 0.17066 0.9887 0.0
O629 O 0.46981 0.17888 0.37186 0.0
H630 H 0.40031 0.252 0.3931 0.0
H631 H 0.36557 0.23769 0.38666 0.0
H632 H 0.36794 0.26104 0.3852 0.0
H633 H 0.37576 0.2543 0.43248 0.0
H634 H 0.42971 0.27265 0.34835 0.0
H635 H 0.38014 0.23591 0.26803 0.0
H636 H 0.45766 0.25701 0.32637 0.0
H637 H 0.4604 0.28047 0.32716 0.0
H638 H 0.46308 0.26968 0.27868 0.0
H639 H 0.37978 0.21436 0.21542 0.0
H640 H 0.39897 0.20938 0.21757 0.0
H641 H 0.39989 0.22727 0.1844 0.0
H642 H 0.44566 0.1677 0.40531 0.0
H643 H 0.46292 0.18494 0.47355 0.0
H644 H 0.46843 0.20133 0.43239 0.0
H645 H 0.48533 0.19433 0.44914 0.0
H646 H 0.43495 0.16437 0.3361 0.0
H647 H 0.49258 0.20947 0.33644 0.0
H648 H 0.41886 0.17625 0.24034 0.0
H649 H 0.41305 0.18439 0.28804 0.0
H650 H 0.41154 0.16141 0.28506 0.0
H651 H 0.50191 0.23643 0.29679 0.0
H652 H 0.48363 0.24162 0.28058 0.0
H653 H 0.49048 0.22894 0.24424 0.0
H654 H 0.46171 0.15389 0.94736 0.0
H655 H 0.44898 0.16459 0.9938 0.0
H656 H 0.50795 0.20306 0.02769 0.0
H657 H 0.43065 0.18387 0.06475 0.0
H658 H 0.42513 0.17032 0.0144 0.0
H659 H 0.43242 0.19536 0.01643 0.0
H660 H 0.51869 0.23249 0.0666 0.0
H661 H 0.5025 0.23081 0.10596 0.0
H662 H 0.50377 0.24285 0.05876 0.0
H663 H 0.47412 0.32438 0.99121 0.0
H664 H 0.45275 0.3377 0.99917 0.0
H665 H 0.44422 0.31566 0.02494 0.0
H666 H 0.43313 0.31583 0.97464 0.0
H667 H 0.42692 0.26343 0.96726 0.0
H668 H 0.48217 0.30574 0.01947 0.0
H669 H 0.41756 0.2298 0.04553 0.0
H670 H 0.42683 0.22394 0.00044 0.0
H671 H 0.41046 0.23254 0.99261 0.0
H672 H 0.499 0.29963 0.07161 0.0
H673 H 0.49424 0.27532 0.06696 0.0
H674 H 0.48409 0.28253 0.10794 0.0
H675 H 0.43611 0.22192 0.29797 0.0
H676 H 0.46144 0.1943 0.20235 0.0
H677 H 0.46817 0.19685 0.12872 0.0
H678 H 0.46588 0.235 0.01833 0.0
H679 H 0.44193 0.26397 0.11523 0.0
H680 H 0.43327 0.25986 0.18777 0.0
H681 H 0.47417 0.13671 0.01918 0.0
H682 H 0.45457 0.12333 0.98029 0.0
H683 H 0.45409 0.14016 0.0182 0.0
C684 C 0.04311 0.49157 0.55323 0.0
C685 C 0.04495 0.46775 0.70705 0.0
C686 C 0.99053 0.46444 0.71185 0.0
Mg687 Mg 0.02224 0.51428 0.51852 0.0
Mg688 Mg 0.01701 0.54314 0.58493 0.0
O689 O 0.01145 0.51809 0.57193 0.0
Mg690 Mg 0.0213 0.50668 0.61356 0.0
O691 O 0.03127 0.49406 0.65172 0.0
Mg692 Mg 0.01583 0.46696 0.62685 0.0
Mg693 Mg 0.03123 0.49743 0.71088 0.0
C694 C 0.0005 0.52434 0.67142 0.0
O695 O 0.04395 0.53568 0.64635 0.0
O696 O 0.00393 0.52515 0.48301 0.0
O697 O 0.04552 0.52856 0.71448 0.0
O698 O 0.04757 0.54503 0.52108 0.0
O699 O 3e-05 0.54356 0.53241 0.0
O700 O 0.04581 0.56339 0.57274 0.0
O701 O 0.99906 0.47722 0.58565 0.0
O702 O 0.99748 0.48337 0.51769 0.0
C703 C 0.99203 0.47172 0.54738 0.0
C704 C 0.99707 0.5358 0.49466 0.0
O705 O 0.00225 0.50966 0.66242 0.0
O706 O 0.03487 0.46008 0.67198 0.0
O707 O 0.00681 0.53882 0.64848 0.0
O708 O 0.99383 0.45813 0.67741 0.0
O709 O 0.04585 0.48239 0.72653 0.0
O710 O 0.00264 0.48058 0.73005 0.0
O711 O 0.03934 0.50486 0.56188 0.0
O712 O 0.03698 0.47676 0.57486 0.0
C713 C 0.0545 0.56105 0.54247 0.0
C714 C 0.04974 0.54065 0.68574 0.0
C715 C 0.5053 0.0295 0.52481 0.0
C716 C 0.5584 0.02371 0.44866 0.0
C717 C 0.53375 0.9685 0.50353 0.0
Mg718 Mg 0.48473 0.01115 0.61081 0.0
Mg719 Mg 0.50641 0.00119 0.68666 0.0
O720 O 0.49821 0.99727 0.62902 0.0
Mg721 Mg 0.51696 0.00475 0.58435 0.0
O722 O 0.53413 0.01226 0.53648 0.0
Mg723 Mg 0.51539 0.99749 0.48727 0.0
Mg724 Mg 0.55567 0.00988 0.53982 0.0
C725 C 0.52896 0.9816 0.6495 0.0
O726 O 0.5426 0.02704 0.62873 0.0
O727 O 0.46308 0.99415 0.6609 0.0
O728 O 0.56682 0.02518 0.60099 0.0
O729 O 0.5011 0.03636 0.66064 0.0
O730 O 0.47835 0.98611 0.7094 0.0
O731 O 0.51878 0.03094 0.70684 0.0
O732 O 0.49316 0.98285 0.53729 0.0
O733 O 0.46968 0.98686 0.56004 0.0
C734 C 0.47587 0.97894 0.53424 0.0
C735 C 0.4633 0.98563 0.69436 0.0
O736 O 0.52555 0.98366 0.61053 0.0
O737 O 0.54023 0.01448 0.44282 0.0
O738 O 0.52431 0.98847 0.68127 0.0
O739 O 0.52222 0.97291 0.48586 0.0
O740 O 0.56708 0.02415 0.4836 0.0
O741 O 0.54732 0.98028 0.52941 0.0
O742 O 0.50774 0.0256 0.5627 0.0
O743 O 0.50836 0.02158 0.4924 0.0
C744 C 0.5131 0.04184 0.69249 0.0
C745 C 0.56011 0.03144 0.62958 0.0
C746 C 0.51749 0.53392 0.6409 0.0
C747 C 0.45987 0.47301 0.70165 0.0
C748 C 0.48899 0.44467 0.65572 0.0
Mg749 Mg 0.54265 0.53544 0.56156 0.0
Mg750 Mg 0.52383 0.50251 0.48256 0.0
O751 O 0.52998 0.50766 0.54112 0.0
Mg752 Mg 0.50882 0.49686 0.58013 0.0
O753 O 0.48889 0.48737 0.62213 0.0
Mg754 Mg 0.50518 0.49208 0.6754 0.0
Mg755 Mg 0.46832 0.46244 0.61206 0.0
C756 C 0.50007 0.46052 0.51409 0.0
O757 O 0.48564 0.49352 0.53063 0.0
O758 O 0.56642 0.5401 0.51578 0.0
O759 O 0.46046 0.46578 0.54757 0.0
O760 O 0.52792 0.5431 0.50868 0.0
O761 O 0.55256 0.51637 0.46427 0.0
O762 O 0.51128 0.51875 0.46102 0.0
O763 O 0.53013 0.49949 0.63222 0.0
O764 O 0.55549 0.52671 0.61596 0.0
C765 C 0.54746 0.51263 0.63976 0.0
C766 C 0.56716 0.53125 0.48172 0.0
O767 O 0.50114 0.46671 0.55285 0.0
O768 O 0.47776 0.48357 0.71127 0.0
O769 O 0.50649 0.47167 0.48351 0.0
O770 O 0.49883 0.46096 0.6759 0.0
O771 O 0.45327 0.46388 0.66531 0.0
O772 O 0.477 0.44201 0.62546 0.0
O773 O 0.51752 0.52719 0.60354 0.0
O774 O 0.51209 0.52323 0.6723 0.0
C775 C 0.51661 0.53568 0.47564 0.0
C776 C 0.46859 0.47958 0.52298 0.0
C777 C 0.11759 0.42379 0.35324 0.0
C778 C 0.13513 0.42993 0.37525 0.0
C779 C 0.10808 0.434 0.3587 0.0
C780 C 0.11321 0.47953 0.40568 0.0
H781 H 0.06072 0.44696 0.42974 0.0
C782 C 0.07372 0.50123 0.52195 0.0
C783 C 0.05397 0.49235 0.51672 0.0
C784 C 0.0838 0.49717 0.49244 0.0
C785 C 0.0752 0.45638 0.42213 0.0
H786 H 0.1566 0.45168 0.41954 0.0
H787 H 0.13997 0.46936 0.42956 0.0
H788 H 0.07819 0.43282 0.40018 0.0
H789 H 0.02923 0.47339 0.47589 0.0
H790 H 0.04683 0.46674 0.42332 0.0
H791 H 0.11033 0.50303 0.42957 0.0
C792 C 0.13372 0.45696 0.40728 0.0
C793 C 0.08526 0.44822 0.40515 0.0
C794 C 0.14322 0.44678 0.40176 0.0
C795 C 0.04453 0.48054 0.4801 0.0
C796 C 0.05459 0.47659 0.45039 0.0
C797 C 0.10311 0.48772 0.4227 0.0
C798 C 0.11583 0.45045 0.3866 0.0
C799 C 0.10454 0.45961 0.39787 0.0
C800 C 0.07422 0.48409 0.45732 0.0
C801 C 0.08412 0.47617 0.43225 0.0
H802 H 0.11095 0.41074 0.33294 0.0
H803 H 0.0944 0.42869 0.342 0.0
H804 H 0.12796 0.48873 0.39979 0.0
H805 H 0.08117 0.5101 0.55051 0.0
H806 H 0.09886 0.50307 0.49909 0.0
C807 C 0.70592 0.12155 0.33663 0.0
C808 C 0.71491 0.11435 0.31098 0.0
C809 C 0.68621 0.1126 0.33521 0.0
C810 C 0.64472 0.06519 0.31369 0.0
H811 H 0.61818 0.0926 0.33848 0.0
C812 C 0.57017 0.02652 0.37569 0.0
C813 C 0.57024 0.03509 0.41521 0.0
C814 C 0.58461 0.0366 0.34836 0.0
C815 C 0.62533 0.08472 0.33103 0.0
H816 H 0.71037 0.09238 0.26301 0.0
H817 H 0.67578 0.07671 0.26025 0.0
H818 H 0.65065 0.11 0.31674 0.0
H819 H 0.58432 0.06101 0.45619 0.0
H820 H 0.60914 0.07869 0.40852 0.0
H821 H 0.61975 0.04008 0.33007 0.0
C822 C 0.68401 0.0893 0.28151 0.0
C823 C 0.64394 0.09468 0.31879 0.0
C824 C 0.70378 0.0983 0.28289 0.0
C825 C 0.58398 0.05419 0.42568 0.0
C826 C 0.59813 0.06433 0.39825 0.0
C827 C 0.62608 0.05522 0.32579 0.0
C828 C 0.67499 0.09613 0.30829 0.0
C829 C 0.65414 0.08516 0.31185 0.0
C830 C 0.59905 0.05544 0.36002 0.0
C831 C 0.6165 0.06502 0.33644 0.0
H832 H 0.71415 0.13376 0.3589 0.0
H833 H 0.67978 0.11806 0.35688 0.0
H834 H 0.65217 0.0574 0.30887 0.0
H835 H 0.55977 0.0117 0.3673 0.0
H836 H 0.58498 0.02942 0.31905 0.0
C837 C 0.56073 0.65756 0.23294 0.0
C838 C 0.57119 0.67518 0.25655 0.0
C839 C 0.54898 0.64098 0.25302 0.0
C840 C 0.52593 0.6234 0.35392 0.0
H841 H 0.53043 0.57919 0.32221 0.0
C842 C 0.51766 0.5667 0.46699 0.0
C843 C 0.51217 0.54816 0.45052 0.0
C844 C 0.51832 0.58032 0.44032 0.0
C845 C 0.52854 0.59118 0.33084 0.0
H846 H 0.57784 0.68917 0.31969 0.0
H847 H 0.55757 0.66013 0.35501 0.0
H848 H 0.5452 0.60709 0.28089 0.0
H849 H 0.50082 0.52873 0.3942 0.0
H850 H 0.50188 0.55256 0.34765 0.0
H851 H 0.50996 0.60766 0.40516 0.0
C852 C 0.55801 0.65923 0.3208 0.0
C853 C 0.5371 0.60725 0.30717 0.0
C854 C 0.56974 0.67583 0.30068 0.0
C855 C 0.50536 0.54296 0.4078 0.0
C856 C 0.50607 0.55664 0.38104 0.0
C857 C 0.51737 0.6073 0.37768 0.0
C858 C 0.54758 0.64159 0.29722 0.0
C859 C 0.53635 0.62375 0.31913 0.0
C860 C 0.51349 0.57569 0.39662 0.0
C861 C 0.51905 0.59121 0.3671 0.0
H862 H 0.56173 0.65662 0.19891 0.0
H863 H 0.54106 0.62764 0.23392 0.0
H864 H 0.52479 0.63576 0.36343 0.0
H865 H 0.52274 0.57111 0.49991 0.0
H866 H 0.52412 0.59486 0.45342 0.0
C867 C 0.92493 0.59167 0.22923 0.0
C868 C 0.91773 0.60244 0.24868 0.0
C869 C 0.9341 0.58431 0.25361 0.0
C870 C 0.95715 0.58943 0.36029 0.0
H871 H 0.94693 0.53794 0.33204 0.0
C872 C 0.97618 0.54926 0.47829 0.0
C873 C 0.98613 0.54038 0.46361 0.0
C874 C 0.96773 0.55592 0.44988 0.0
C875 C 0.95006 0.5524 0.33999 0.0
H876 H 0.91442 0.61382 0.30891 0.0
H877 H 0.9301 0.60068 0.35165 0.0
H878 H 0.93284 0.55201 0.28682 0.0
H879 H 0.99412 0.53062 0.40728 0.0
H880 H 0.97914 0.5423 0.35723 0.0
H881 H 0.97403 0.58968 0.41388 0.0
C882 C 0.92905 0.59828 0.31745 0.0
C883 C 0.94204 0.56049 0.3141 0.0
C884 C 0.91999 0.60575 0.29302 0.0
C885 C 0.98658 0.53742 0.41959 0.0
C886 C 0.97803 0.5441 0.39097 0.0
C887 C 0.96504 0.58131 0.38622 0.0
C888 C 0.93615 0.58739 0.29805 0.0
C889 C 0.94533 0.57904 0.32425 0.0
C890 C 0.96897 0.55386 0.40601 0.0
C891 C 0.96138 0.56264 0.37667 0.0
H892 H 0.92322 0.58873 0.19512 0.0
H893 H 0.93959 0.5762 0.23759 0.0
H894 H 0.96035 0.60388 0.36854 0.0
H895 H 0.97525 0.55152 0.51194 0.0
H896 H 0.96044 0.56297 0.46235 0.0
C897 C 0.34777 0.8666 0.27646 0.0
C898 C 0.33464 0.87305 0.27743 0.0
C899 C 0.36419 0.87535 0.30369 0.0
C900 C 0.38308 0.90413 0.40457 0.0
H901 H 0.43296 0.92386 0.36151 0.0
C902 C 0.44636 0.96713 0.48878 0.0
C903 C 0.46249 0.96583 0.49963 0.0
C904 C 0.43218 0.95366 0.46039 0.0
C905 C 0.41911 0.91809 0.37405 0.0
H906 H 0.32866 0.89393 0.30681 0.0
H907 H 0.35705 0.90897 0.35444 0.0
H908 H 0.4046 0.90342 0.31449 0.0
H909 H 0.47701 0.95007 0.48695 0.0
H910 H 0.45177 0.92614 0.43643 0.0
H911 H 0.39735 0.91923 0.46344 0.0
C912 C 0.35457 0.89703 0.33313 0.0
C913 C 0.40293 0.90644 0.34726 0.0
C914 C 0.33833 0.88845 0.30581 0.0
C915 C 0.46466 0.95133 0.47932 0.0
C916 C 0.45028 0.93768 0.45056 0.0
C917 C 0.39913 0.91565 0.43115 0.0
C918 C 0.36763 0.89055 0.33251 0.0
C919 C 0.38477 0.89998 0.36196 0.0
C920 C 0.43367 0.93847 0.44203 0.0
C921 C 0.41726 0.92335 0.41574 0.0
H922 H 0.34533 0.85486 0.25454 0.0
H923 H 0.37406 0.87011 0.30258 0.0
H924 H 0.36927 0.89901 0.41697 0.0
H925 H 0.44443 0.97837 0.50302 0.0
H926 H 0.41977 0.95491 0.45344 0.0
C927 C 0.41692 0.28621 0.43493 0.0
C928 C 0.40694 0.28143 0.39504 0.0
C929 C 0.42807 0.3053 0.44998 0.0
C930 C 0.45382 0.3537 0.41414 0.0
H931 H 0.44799 0.37012 0.52685 0.0
C932 C 0.4827 0.43261 0.46177 0.0
C933 C 0.49039 0.43972 0.50334 0.0
C934 C 0.47349 0.41309 0.45076 0.0
C935 C 0.45004 0.36574 0.49559 0.0
H936 H 0.40024 0.29286 0.34032 0.0
H937 H 0.42011 0.32624 0.36616 0.0
H938 H 0.43019 0.33624 0.5033 0.0
H939 H 0.49457 0.43191 0.56599 0.0
H940 H 0.47861 0.3976 0.54661 0.0
H941 H 0.47375 0.38299 0.40626 0.0
C942 C 0.41946 0.3152 0.38552 0.0
C943 C 0.4398 0.34636 0.48209 0.0
C944 C 0.40811 0.29611 0.37073 0.0
C945 C 0.48861 0.42682 0.53382 0.0
C946 C 0.47947 0.40718 0.52268 0.0
C947 C 0.4642 0.373 0.42774 0.0
C948 C 0.42953 0.31997 0.42529 0.0
C949 C 0.44134 0.34024 0.44093 0.0
C950 C 0.47189 0.40011 0.48088 0.0
C951 C 0.46213 0.37933 0.46827 0.0
H952 H 0.416 0.27513 0.45453 0.0
H953 H 0.43571 0.30861 0.48073 0.0
H954 H 0.45552 0.3493 0.38254 0.0
H955 H 0.48357 0.44214 0.43767 0.0
H956 H 0.4674 0.40817 0.4186 0.0
C957 C 0.5861 0.8952 0.85205 0.0
C958 C 0.57366 0.87538 0.84811 0.0
C959 C 0.58417 0.90708 0.82394 0.0
C960 C 0.56266 0.9089 0.72095 0.0
H961 H 0.5611 0.95119 0.77849 0.0
C962 C 0.53182 0.95231 0.6431 0.0
C963 C 0.53886 0.97116 0.65934 0.0
C964 C 0.53887 0.9412 0.66016 0.0
C965 C 0.56192 0.93977 0.76156 0.0
H966 H 0.54944 0.85243 0.81158 0.0
H967 H 0.54615 0.87329 0.76204 0.0
H968 H 0.5682 0.93061 0.81932 0.0
H969 H 0.55992 0.99395 0.70229 0.0
H970 H 0.57298 0.97508 0.73028 0.0
H971 H 0.55627 0.91813 0.66303 0.0
C972 C 0.55759 0.87954 0.78651 0.0
C973 C 0.56591 0.92789 0.78515 0.0
C974 C 0.55945 0.86763 0.81487 0.0
C975 C 0.55412 0.97931 0.68984 0.0
C976 C 0.56144 0.96842 0.70609 0.0
C977 C 0.55884 0.92098 0.69711 0.0
C978 C 0.5697 0.89941 0.79136 0.0
C979 C 0.56626 0.91231 0.76521 0.0
C980 C 0.55326 0.94895 0.69314 0.0
C981 C 0.55837 0.93655 0.71722 0.0
H982 H 0.59702 0.90157 0.87767 0.0
H983 H 0.59376 0.92234 0.82827 0.0
H984 H 0.56289 0.89698 0.70482 0.0
H985 H 0.52001 0.94579 0.61953 0.0
H986 H 0.53222 0.92627 0.64939 0.0
C987 C 0.66215 0.52896 0.92048 0.0
C988 C 0.66114 0.51204 0.93304 0.0
C989 C 0.64946 0.52835 0.88878 0.0
C990 C 0.6023 0.49766 0.83771 0.0
H991 H 0.62128 0.53188 0.7465 0.0
C992 C 0.5542 0.49453 0.69388 0.0
C993 C 0.5587 0.51191 0.67656 0.0
C994 C 0.5661 0.49392 0.72607 0.0
C995 C 0.61566 0.52243 0.77208 0.0
H996 H 0.64643 0.48126 0.92139 0.0
H997 H 0.62392 0.48017 0.86648 0.0
H998 H 0.64341 0.53214 0.80049 0.0
H999 H 0.57843 0.54242 0.68111 0.0
H1000 H 0.59866 0.5415 0.73797 0.0
H1001 H 0.57451 0.48826 0.80998 0.0
C1002 C 0.63447 0.49386 0.88149 0.0
C1003 C 0.62839 0.52253 0.80286 0.0
C1004 C 0.64733 0.4945 0.9128 0.0
C1005 C 0.57478 0.52875 0.6933 0.0
C1006 C 0.58646 0.52819 0.72575 0.0
C1007 C 0.58951 0.49771 0.80715 0.0
C1008 C 0.63541 0.51078 0.86924 0.0
C1009 C 0.62184 0.51022 0.83606 0.0
C1010 C 0.58258 0.51074 0.74186 0.0
C1011 C 0.59603 0.51021 0.77409 0.0
H1012 H 0.67271 0.54268 0.93534 0.0
H1013 H 0.65044 0.5416 0.88002 0.0
H1014 H 0.5969 0.48812 0.86322 0.0
H1015 H 0.54189 0.48132 0.68152 0.0
H1016 H 0.5627 0.48021 0.73755 0.0
C1017 C 0.13434 0.71127 0.79817 0.0
C1018 C 0.12425 0.71663 0.82518 0.0
C1019 C 0.12716 0.69213 0.78481 0.0
C1020 C 0.08229 0.64698 0.76736 0.0
H1021 H 0.11434 0.62436 0.76078 0.0
C1022 C 0.05676 0.57413 0.67866 0.0
C1023 C 0.06037 0.56117 0.69947 0.0
C1024 C 0.06541 0.59321 0.69389 0.0
C1025 C 0.10521 0.63047 0.76262 0.0
H1026 H 0.09879 0.70624 0.85945 0.0
H1027 H 0.08616 0.67267 0.83615 0.0
H1028 H 0.12767 0.65727 0.78998 0.0
H1029 H 0.07597 0.55801 0.75247 0.0
H1030 H 0.09114 0.59144 0.77923 0.0
H1031 H 0.05981 0.62021 0.7403 0.0
C1032 C 0.09963 0.6833 0.82527 0.0
C1033 C 0.11286 0.64933 0.77903 0.0
C1034 C 0.10688 0.70245 0.83882 0.0
C1035 C 0.07303 0.56773 0.73559 0.0
C1036 C 0.08177 0.58687 0.75078 0.0
C1037 C 0.07468 0.62819 0.75075 0.0
C1038 C 0.10962 0.67796 0.79784 0.0
C1039 C 0.10148 0.65778 0.78153 0.0
C1040 C 0.07784 0.59975 0.73042 0.0
C1041 C 0.08606 0.61974 0.74807 0.0
H1042 H 0.14768 0.72196 0.78688 0.0
H1043 H 0.13507 0.68849 0.76327 0.0
H1044 H 0.0732 0.65316 0.76845 0.0
H1045 H 0.0466 0.56935 0.65171 0.0
H1046 H 0.06218 0.60281 0.67735 0.0
C1047 C 0.50024 0.14748 0.95288 0.0
C1048 C 0.48437 0.14836 0.93723 0.0
C1049 C 0.50938 0.14084 0.92631 0.0
C1050 C 0.51489 0.13092 0.81404 0.0
H1051 H 0.51793 0.088 0.85529 0.0
C1052 C 0.51043 0.07113 0.70314 0.0
C1053 C 0.51839 0.06013 0.71632 0.0
C1054 C 0.51206 0.08618 0.72949 0.0
C1055 C 0.51771 0.10027 0.84344 0.0
H1056 H 0.46622 0.14382 0.88106 0.0
H1057 H 0.48233 0.13257 0.83464 0.0
H1058 H 0.5101 0.1069 0.90327 0.0
H1059 H 0.53588 0.05754 0.76594 0.0
H1060 H 0.5391 0.08414 0.81162 0.0
H1061 H 0.52211 0.12409 0.75396 0.0
C1062 C 0.48771 0.13699 0.8674 0.0
C1063 C 0.51314 0.11107 0.87102 0.0
C1064 C 0.47842 0.14335 0.89403 0.0
C1065 C 0.52937 0.06556 0.75501 0.0
C1066 C 0.5311 0.08074 0.78135 0.0
C1067 C 0.51967 0.12026 0.78655 0.0
C1068 C 0.50302 0.13527 0.88345 0.0
C1069 C 0.51107 0.12609 0.85623 0.0
C1070 C 0.52185 0.09076 0.76961 0.0
C1071 C 0.52047 0.10435 0.80048 0.0
H1072 H 0.50518 0.15134 0.98599 0.0
H1073 H 0.52121 0.13975 0.93944 0.0
H1074 H 0.51364 0.14261 0.80198 0.0
H1075 H 0.50197 0.06748 0.67343 0.0
H1076 H 0.50459 0.09339 0.71935 0.0
C1077 C 0.3501 0.45776 0.97624 0.0
C1078 C 0.33389 0.43948 0.97099 0.0
C1079 C 0.36417 0.46369 0.94708 0.0
C1080 C 0.37249 0.45511 0.83744 0.0
H1081 H 0.42413 0.47259 0.87925 0.0
C1082 C 0.42718 0.45649 0.72715 0.0
C1083 C 0.44617 0.47112 0.73331 0.0
C1084 C 0.41402 0.4546 0.75628 0.0
C1085 C 0.40988 0.46809 0.86699 0.0
H1086 H 0.31941 0.41343 0.93018 0.0
H1087 H 0.34377 0.42396 0.87885 0.0
H1088 H 0.39991 0.46618 0.92956 0.0
H1089 H 0.46622 0.49533 0.77502 0.0
H1090 H 0.44305 0.49228 0.82564 0.0
H1091 H 0.38228 0.45709 0.77501 0.0
C1092 C 0.34566 0.43359 0.90576 0.0
C1093 C 0.39601 0.46438 0.89585 0.0
C1094 C 0.33176 0.42755 0.93521 0.0
C1095 C 0.45171 0.48384 0.76946 0.0
C1096 C 0.43844 0.48205 0.79853 0.0
C1097 C 0.38636 0.45904 0.80863 0.0
C1098 C 0.36208 0.45162 0.91165 0.0
C1099 C 0.37713 0.45745 0.88129 0.0
C1100 C 0.4194 0.46742 0.79219 0.0
C1101 C 0.40514 0.46513 0.823 0.0
H1102 H 0.35199 0.46736 0.00318 0.0
H1103 H 0.37664 0.47772 0.95208 0.0
H1104 H 0.35808 0.45006 0.82543 0.0
H1105 H 0.42244 0.4463 0.69992 0.0
H1106 H 0.39963 0.44286 0.75083 0.0
C1107 C 0.87613 0.33593 0.91777 0.0
C1108 C 0.88221 0.32245 0.91704 0.0
C1109 C 0.88442 0.35167 0.89272 0.0
C1110 C 0.9132 0.38965 0.85853 0.0
H1111 H 0.93015 0.3843 0.74843 0.0
C1112 C 0.97294 0.45261 0.77757 0.0
C1113 C 0.97324 0.45148 0.73314 0.0
C1114 C 0.95843 0.43782 0.79819 0.0
C1115 C 0.92525 0.38612 0.77872 0.0
H1116 H 0.9021 0.31523 0.89053 0.0
H1117 H 0.91664 0.34262 0.84725 0.0
H1118 H 0.91097 0.35609 0.78629 0.0
H1119 H 0.9576 0.43501 0.67523 0.0
H1120 H 0.93198 0.40966 0.71096 0.0
H1121 H 0.92745 0.41975 0.85072 0.0
C1122 C 0.9051 0.34081 0.86607 0.0
C1123 C 0.91446 0.36989 0.80078 0.0
C1124 C 0.89681 0.32512 0.89098 0.0
C1125 C 0.95791 0.43614 0.70959 0.0
C1126 C 0.94329 0.42152 0.73012 0.0
C1127 C 0.92394 0.40594 0.8363 0.0
C1128 C 0.89908 0.35434 0.86669 0.0
C1129 C 0.90868 0.37146 0.84141 0.0
C1130 C 0.9438 0.42172 0.77473 0.0
C1131 C 0.93044 0.40442 0.79645 0.0
H1132 H 0.86515 0.33444 0.93819 0.0
H1133 H 0.8794 0.36177 0.89383 0.0
H1134 H 0.90907 0.39141 0.88984 0.0
H1135 H 0.98459 0.46423 0.7966 0.0
H1136 H 0.9594 0.43848 0.83256 0.0
C1137 C 0.88664 0.54953 0.8508 0.0
C1138 C 0.88306 0.54488 0.89317 0.0
C1139 C 0.89904 0.54557 0.82917 0.0
C1140 C 0.92437 0.51805 0.83309 0.0
H1141 H 0.95774 0.55671 0.7602 0.0
C1142 C 0.97288 0.50803 0.7166 0.0
C1143 C 0.9897 0.52448 0.70765 0.0
C1144 C 0.96046 0.50942 0.74409 0.0
C1145 C 0.94874 0.54586 0.78089 0.0
H1146 H 0.88998 0.5329 0.94636 0.0
H1147 H 0.91189 0.52625 0.90887 0.0
H1148 H 0.93452 0.5611 0.79688 0.0
H1149 H 0.00779 0.55478 0.72364 0.0
H1150 H 0.98667 0.55708 0.77285 0.0
H1151 H 0.93907 0.50307 0.8177 0.0
C1152 C 0.90468 0.5324 0.89189 0.0
C1153 C 0.93514 0.54823 0.80136 0.0
C1154 C 0.89219 0.53625 0.91343 0.0
C1155 C 0.99474 0.54194 0.72951 0.0
C1156 C 0.98254 0.54327 0.75738 0.0
C1157 C 0.93809 0.51571 0.81267 0.0
C1158 C 0.90842 0.53719 0.84962 0.0
C1159 C 0.92273 0.53435 0.82761 0.0
C1160 C 0.96483 0.52724 0.7634 0.0
C1161 C 0.95048 0.52964 0.78639 0.0
H1162 H 0.88009 0.55651 0.8346 0.0
H1163 H 0.9014 0.54925 0.79647 0.0
H1164 H 0.91492 0.507 0.85284 0.0
H1165 H 0.9687 0.4944 0.70005 0.0
H1166 H 0.94696 0.49678 0.74805 0.0
C1167 C 0.30556 0.88038 0.82111 0.0
C1168 C 0.30487 0.86547 0.84379 0.0
C1169 C 0.32268 0.89461 0.80716 0.0
C1170 C 0.37426 0.91779 0.82619 0.0
H1171 H 0.37557 0.93064 0.70886 0.0
C1172 C 0.44435 0.96151 0.74602 0.0
C1173 C 0.44536 0.97396 0.71506 0.0
C1174 C 0.42722 0.9495 0.76359 0.0
C1175 C 0.37543 0.92752 0.74192 0.0
H1176 H 0.32154 0.85346 0.86835 0.0
H1177 H 0.35155 0.87859 0.84476 0.0
H1178 H 0.34567 0.90745 0.73624 0.0
H1179 H 0.42919 0.98396 0.67935 0.0
H1180 H 0.39939 0.96337 0.71085 0.0
H1181 H 0.40394 0.93794 0.83216 0.0
C1182 C 0.33885 0.87939 0.8384 0.0
C1183 C 0.35829 0.91416 0.75753 0.0
C1184 C 0.32168 0.86502 0.85193 0.0
C1185 C 0.4289 0.97446 0.70292 0.0
C1186 C 0.41177 0.96255 0.7208 0.0
C1187 C 0.39138 0.93131 0.81073 0.0
C1188 C 0.33949 0.89426 0.81564 0.0
C1189 C 0.35756 0.90903 0.7997 0.0
C1190 C 0.41066 0.94974 0.75099 0.0
C1191 C 0.39224 0.9362 0.76824 0.0
H1192 H 0.29276 0.88087 0.81374 0.0
H1193 H 0.32277 0.90593 0.78976 0.0
H1194 H 0.37405 0.91427 0.85899 0.0
H1195 H 0.4567 0.96063 0.756 0.0
H1196 H 0.42689 0.93964 0.78619 0.0
C1197 C 0.45222 0.31936 0.89331 0.0
C1198 C 0.46514 0.3274 0.92894 0.0
C1199 C 0.45579 0.32883 0.85566 0.0
C1200 C 0.49379 0.36832 0.79981 0.0
H1201 H 0.45213 0.37171 0.74684 0.0
C1202 C 0.50326 0.43111 0.70482 0.0
C1203 C 0.48971 0.42814 0.67221 0.0
C1204 C 0.50153 0.4159 0.72741 0.0
C1205 C 0.46385 0.37059 0.76051 0.0
H1206 H 0.49175 0.35177 0.95322 0.0
H1207 H 0.49792 0.3684 0.88787 0.0
H1208 H 0.44627 0.35056 0.80407 0.0
H1209 H 0.46478 0.40652 0.63496 0.0
H1210 H 0.46182 0.3799 0.6744 0.0
H1211 H 0.51148 0.38897 0.75725 0.0
C1212 C 0.48527 0.35454 0.8885 0.0
C1213 C 0.46049 0.35846 0.79346 0.0
C1214 C 0.4817 0.34508 0.92606 0.0
C1215 C 0.47535 0.40935 0.6602 0.0
C1216 C 0.47357 0.3941 0.68298 0.0
C1217 C 0.49715 0.38047 0.76687 0.0
C1218 C 0.4723 0.34662 0.85292 0.0
C1219 C 0.4755 0.35756 0.81429 0.0
C1220 C 0.48621 0.39734 0.71792 0.0
C1221 C 0.4823 0.38213 0.74759 0.0
H1222 H 0.43921 0.30587 0.89481 0.0
H1223 H 0.44555 0.3223 0.8288 0.0
H1224 H 0.5056 0.36767 0.81461 0.0
H1225 H 0.51462 0.44538 0.71465 0.0
H1226 H 0.51149 0.41895 0.75419 0.0
C1227 C 0.11468 0.3854 0.89743 0.0
C1228 C 0.11939 0.39368 0.93924 0.0
C1229 C 0.10925 0.39364 0.86573 0.0
C1230 C 0.11104 0.43834 0.83822 0.0
H1231 H 0.06281 0.40539 0.77614 0.0
C1232 C 0.06672 0.46784 0.76491 0.0
C1233 C 0.05579 0.45943 0.72658 0.0
C1234 C 0.07649 0.45994 0.78466 0.0
C1235 C 0.07649 0.41476 0.79247 0.0
H1236 H 0.12294 0.41748 0.98015 0.0
H1237 H 0.11378 0.43202 0.92478 0.0
H1238 H 0.07689 0.39152 0.82182 0.0
H1239 H 0.04691 0.43616 0.67863 0.0
H1240 H 0.06421 0.42238 0.71319 0.0
H1241 H 0.11061 0.46161 0.80953 0.0
C1242 C 0.1142 0.41914 0.9165 0.0
C1243 C 0.08454 0.4068 0.8187 0.0
C1244 C 0.11936 0.41078 0.94825 0.0
C1245 C 0.05514 0.44299 0.70816 0.0
C1246 C 0.06499 0.43505 0.72805 0.0
C1247 C 0.1031 0.44628 0.81178 0.0
C1248 C 0.10877 0.41049 0.87509 0.0
C1249 C 0.10163 0.41858 0.84277 0.0
C1250 C 0.07572 0.44341 0.76667 0.0
C1251 C 0.08543 0.43465 0.7896 0.0
H1252 H 0.11475 0.3723 0.88955 0.0
H1253 H 0.10528 0.38677 0.83399 0.0
H1254 H 0.12439 0.44773 0.85585 0.0
H1255 H 0.06757 0.48047 0.78022 0.0
H1256 H 0.08426 0.46656 0.81477 0.0
C1257 C 0.69603 0.10752 0.87927 0.0
C1258 C 0.69336 0.10877 0.92272 0.0
C1259 C 0.68083 0.1011 0.84924 0.0
C1260 C 0.63117 0.09059 0.83232 0.0
H1261 H 0.63057 0.05725 0.74006 0.0
C1262 C 0.56798 0.04351 0.70645 0.0
C1263 C 0.57351 0.04401 0.66466 0.0
C1264 C 0.58168 0.05316 0.74008 0.0
C1265 C 0.6306 0.06664 0.7655 0.0
H1266 H 0.67269 0.1041 0.96878 0.0
H1267 H 0.64593 0.09241 0.91624 0.0
H1268 H 0.65635 0.07054 0.79445 0.0
H1269 H 0.59737 0.05617 0.62479 0.0
H1270 H 0.62104 0.07291 0.68302 0.0
H1271 H 0.60498 0.08616 0.80304 0.0
C1272 C 0.65989 0.09694 0.90533 0.0
C1273 C 0.64543 0.07435 0.79658 0.0
C1274 C 0.67517 0.10357 0.93541 0.0
C1275 C 0.59272 0.05527 0.65676 0.0
C1276 C 0.60628 0.06484 0.69006 0.0
C1277 C 0.61614 0.08268 0.80117 0.0
C1278 C 0.6625 0.09533 0.86192 0.0
C1279 C 0.64613 0.08671 0.82998 0.0
C1280 C 0.60101 0.06333 0.73214 0.0
C1281 C 0.61595 0.07092 0.76708 0.0
H1282 H 0.70979 0.11114 0.86846 0.0
H1283 H 0.68343 0.10038 0.81602 0.0
H1284 H 0.6313 0.10007 0.85763 0.0
H1285 H 0.55329 0.03479 0.71339 0.0
H1286 H 0.57729 0.0518 0.77234 0.0
C1287 C 0.60183 0.67983 0.85207 0.0
C1288 C 0.61046 0.69791 0.83555 0.0
C1289 C 0.58984 0.6635 0.82616 0.0
C1290 C 0.57822 0.64517 0.71337 0.0
H1291 H 0.5366 0.6024 0.76256 0.0
C1292 C 0.54378 0.56765 0.6402 0.0
C1293 C 0.52525 0.55452 0.64984 0.0
C1294 C 0.55244 0.58662 0.65678 0.0
C1295 C 0.54787 0.61424 0.74769 0.0
H1296 H 0.61358 0.71305 0.77856 0.0
H1297 H 0.592 0.68453 0.73339 0.0
H1298 H 0.55413 0.6326 0.80348 0.0
H1299 H 0.50065 0.55092 0.68108 0.0
H1300 H 0.51515 0.58418 0.70755 0.0
H1301 H 0.57156 0.62685 0.65705 0.0
C1302 C 0.59465 0.68295 0.76641 0.0
C1303 C 0.55821 0.63156 0.77166 0.0
C1304 C 0.60683 0.69932 0.79236 0.0
C1305 C 0.51503 0.56085 0.67352 0.0
C1306 C 0.52346 0.57987 0.68909 0.0
C1307 C 0.56766 0.62786 0.68905 0.0
C1308 C 0.58609 0.66479 0.78294 0.0
C1309 C 0.57384 0.64712 0.75532 0.0
C1310 C 0.54257 0.59284 0.68265 0.0
C1311 C 0.55258 0.612 0.70621 0.0
H1312 H 0.60474 0.67829 0.88498 0.0
H1313 H 0.58396 0.64978 0.83989 0.0
H1314 H 0.59021 0.65679 0.69972 0.0
H1315 H 0.55199 0.56297 0.62241 0.0
H1316 H 0.56719 0.59604 0.65134 0.0
C1317 C 0.45238 0.14531 0.45687 0.0
C1318 C 0.46311 0.15609 0.42394 0.0
C1319 C 0.4545 0.13036 0.47154 0.0
C1320 C 0.46575 0.09468 0.43812 0.0
H1321 H 0.48721 0.0977 0.55166 0.0
C1322 C 0.49992 0.0503 0.47708 0.0
C1323 C 0.49852 0.04306 0.51732 0.0
C1324 C 0.49339 0.06283 0.46877 0.0
C1325 C 0.48082 0.09639 0.52017 0.0
H1326 H 0.4848 0.15963 0.38111 0.0
H1327 H 0.48776 0.13306 0.40554 0.0
H1328 H 0.47923 0.12187 0.53151 0.0
H1329 H 0.48921 0.04345 0.58063 0.0
H1330 H 0.4773 0.06514 0.56577 0.0
H1331 H 0.46706 0.06927 0.42638 0.0
C1332 C 0.47781 0.13636 0.42003 0.0
C1333 C 0.47634 0.11026 0.50868 0.0
C1334 C 0.47604 0.15154 0.40603 0.0
C1335 C 0.4905 0.04878 0.5493 0.0
C1336 C 0.48374 0.06126 0.5408 0.0
C1337 C 0.46988 0.08068 0.44973 0.0
C1338 C 0.46711 0.12571 0.45289 0.0
C1339 C 0.46929 0.10977 0.4672 0.0
C1340 C 0.48501 0.06833 0.50027 0.0
C1341 C 0.4781 0.08171 0.49041 0.0
H1342 H 0.44241 0.14856 0.47139 0.0
H1343 H 0.44613 0.12227 0.49697 0.0
H1344 H 0.46011 0.09396 0.40608 0.0
H1345 H 0.50626 0.04643 0.45184 0.0
H1346 H 0.49518 0.06841 0.4376 0.0
C1347 C 0.32913 0.47531 0.42092 0.0
C1348 C 0.32706 0.48631 0.39023 0.0
C1349 C 0.34477 0.47269 0.42223 0.0
C1350 C 0.39403 0.49516 0.38907 0.0
H1351 H 0.39098 0.45064 0.43778 0.0
C1352 C 0.45723 0.49746 0.47999 0.0
C1353 C 0.45678 0.48029 0.48756 0.0
C1354 C 0.4427 0.49729 0.45486 0.0
C1355 C 0.39225 0.46305 0.42312 0.0
H1356 H 0.33976 0.50312 0.33645 0.0
H1357 H 0.36666 0.49783 0.33742 0.0
H1358 H 0.36222 0.45071 0.41788 0.0
H1359 H 0.44239 0.44992 0.47078 0.0
H1360 H 0.41781 0.44973 0.42449 0.0
H1361 H 0.42409 0.5073 0.39325 0.0
C1362 C 0.35635 0.49147 0.36106 0.0
C1363 C 0.37561 0.46322 0.41245 0.0
C1364 C 0.3408 0.49432 0.36015 0.0
C1365 C 0.44282 0.4633 0.46592 0.0
C1366 C 0.42861 0.46321 0.43981 0.0
C1367 C 0.4107 0.49485 0.39896 0.0
C1368 C 0.35874 0.48092 0.39263 0.0
C1369 C 0.37627 0.47956 0.39693 0.0
C1370 C 0.42768 0.47999 0.436 0.0
C1371 C 0.4101 0.47908 0.41769 0.0
H1372 H 0.31895 0.4693 0.44496 0.0
H1373 H 0.34625 0.46486 0.44769 0.0
H1374 H 0.39519 0.50805 0.37722 0.0
H1375 H 0.46786 0.51075 0.49642 0.0
H1376 H 0.44259 0.51056 0.45305 0.0
C1377 C 0.87562 0.31727 0.38171 0.0
C1378 C 0.8794 0.3022 0.38486 0.0
C1379 C 0.88705 0.33474 0.40463 0.0
C1380 C 0.93419 0.3632 0.46341 0.0
H1381 H 0.91325 0.39497 0.49783 0.0
C1382 C 0.97709 0.43675 0.55925 0.0
C1383 C 0.97768 0.45155 0.53629 0.0
C1384 C 0.96428 0.41765 0.54621 0.0
C1385 C 0.91921 0.38615 0.48861 0.0
H1386 H 0.89743 0.29332 0.41633 0.0
H1387 H 0.91687 0.32347 0.45785 0.0
H1388 H 0.89229 0.3629 0.46557 0.0
H1389 H 0.96483 0.45803 0.48298 0.0
H1390 H 0.94212 0.42475 0.46118 0.0
H1391 H 0.9611 0.38656 0.48738 0.0
C1392 C 0.90563 0.32215 0.43626 0.0
C1393 C 0.90728 0.36786 0.4697 0.0
C1394 C 0.89443 0.30481 0.41268 0.0
C1395 C 0.96478 0.44693 0.50113 0.0
C1396 C 0.95173 0.42792 0.48877 0.0
C1397 C 0.94605 0.38136 0.48313 0.0
C1398 C 0.90222 0.33745 0.43226 0.0
C1399 C 0.91466 0.35628 0.45588 0.0
C1400 C 0.95156 0.41314 0.51078 0.0
C1401 C 0.9387 0.39311 0.49506 0.0
H1402 H 0.86397 0.31572 0.36118 0.0
H1403 H 0.8841 0.3462 0.40002 0.0
H1404 H 0.94052 0.35492 0.45273 0.0
H1405 H 0.98687 0.43987 0.58641 0.0
H1406 H 0.96435 0.40641 0.56361 0.0
C1407 C 0.53576 0.83733 0.30161 0.0
C1408 C 0.55296 0.83759 0.30909 0.0
C1409 C 0.53188 0.84983 0.3252 0.0
C1410 C 0.54551 0.87954 0.4262 0.0
H1411 H 0.52499 0.90712 0.36793 0.0
C1412 C 0.54723 0.94662 0.50148 0.0
C1413 C 0.53255 0.95018 0.4898 0.0
C1414 C 0.5477 0.93091 0.48296 0.0
C1415 C 0.53039 0.89929 0.38492 0.0
H1416 H 0.57921 0.85059 0.34823 0.0
H1417 H 0.57257 0.87255 0.38909 0.0
H1418 H 0.52984 0.88378 0.32794 0.0
H1419 H 0.50609 0.93914 0.45186 0.0
H1420 H 0.50673 0.91157 0.42033 0.0
H1421 H 0.54621 0.89518 0.48315 0.0
C1422 C 0.56209 0.86273 0.36495 0.0
C1423 C 0.53322 0.88593 0.3619 0.0
C1424 C 0.56599 0.85031 0.34126 0.0
C1425 C 0.51774 0.93698 0.46123 0.0
C1426 C 0.51817 0.92123 0.44288 0.0
C1427 C 0.54261 0.89285 0.44928 0.0
C1428 C 0.545 0.86265 0.35721 0.0
C1429 C 0.54103 0.87607 0.38216 0.0
C1430 C 0.53344 0.91831 0.45252 0.0
C1431 C 0.5352 0.90306 0.42885 0.0
H1432 H 0.52525 0.82734 0.27775 0.0
H1433 H 0.51847 0.84923 0.31888 0.0
H1434 H 0.55127 0.87194 0.44287 0.0
H1435 H 0.55886 0.95646 0.52342 0.0
H1436 H 0.55974 0.9292 0.49101 0.0
C1437 C 0.72167 0.61073 0.28454 0.0
C1438 C 0.72248 0.59131 0.25288 0.0
C1439 C 0.70262 0.60264 0.31967 0.0
C1440 C 0.65863 0.5527 0.357 0.0
H1441 H 0.64279 0.5882 0.39635 0.0
C1442 C 0.5866 0.52769 0.42649 0.0
C1443 C 0.58536 0.53835 0.46122 0.0
C1444 C 0.60341 0.53434 0.40603 0.0
C1445 C 0.64724 0.5782 0.38625 0.0
H1446 H 0.70145 0.5569 0.21811 0.0
H1447 H 0.67101 0.54621 0.2742 0.0
H1448 H 0.66986 0.59915 0.35253 0.0
H1449 H 0.60104 0.56437 0.50185 0.0
H1450 H 0.63054 0.576 0.4659 0.0
H1451 H 0.63579 0.53164 0.39004 0.0
C1452 C 0.68286 0.56065 0.27669 0.0
C1453 C 0.66279 0.58447 0.36112 0.0
C1454 C 0.70124 0.56735 0.24012 0.0
C1455 C 0.60148 0.5558 0.47521 0.0
C1456 C 0.61835 0.56251 0.45451 0.0
C1457 C 0.64312 0.54642 0.38209 0.0
C1458 C 0.68395 0.57787 0.31669 0.0
C1459 C 0.66843 0.57169 0.3457 0.0
C1460 C 0.61947 0.55185 0.41963 0.0
C1461 C 0.63703 0.55901 0.39641 0.0
H1462 H 0.73376 0.62503 0.28869 0.0
H1463 H 0.70261 0.61273 0.34307 0.0
H1464 H 0.6629 0.5426 0.34652 0.0
H1465 H 0.57452 0.51419 0.41473 0.0
H1466 H 0.60367 0.52591 0.37887 0.0
C1467 C 0.12183 0.69441 0.33011 0.0
C1468 C 0.1253 0.69046 0.28871 0.0
C1469 C 0.11968 0.68215 0.36217 0.0
C1470 C 0.10565 0.63173 0.37322 0.0
H1471 H 0.11828 0.64756 0.49297 0.0
C1472 C 0.08118 0.5753 0.49432 0.0
C1473 C 0.07098 0.57786 0.52635 0.0
C1474 C 0.09309 0.59052 0.47066 0.0
C1475 C 0.11471 0.64293 0.45963 0.0
H1476 H 0.13049 0.67132 0.24913 0.0
H1477 H 0.12732 0.65024 0.30521 0.0
H1478 H 0.12929 0.67166 0.44028 0.0
H1479 H 0.06691 0.59893 0.56166 0.0
H1480 H 0.08749 0.62542 0.52 0.0
H1481 H 0.09068 0.60314 0.39223 0.0
C1482 C 0.12569 0.66248 0.31274 0.0
C1483 C 0.12096 0.65673 0.42944 0.0
C1484 C 0.12764 0.67462 0.28064 0.0
C1485 C 0.07448 0.59642 0.53707 0.0
C1486 C 0.08633 0.61165 0.51318 0.0
C1487 C 0.09951 0.618 0.40324 0.0
C1488 C 0.12112 0.66575 0.3536 0.0
C1489 C 0.11625 0.65129 0.38585 0.0
C1490 C 0.095 0.60864 0.47834 0.0
C1491 C 0.1037 0.62341 0.44686 0.0
H1492 H 0.12005 0.7066 0.33722 0.0
H1493 H 0.11601 0.68507 0.39308 0.0
H1494 H 0.10135 0.62695 0.34012 0.0
H1495 H 0.07905 0.56125 0.48567 0.0
H1496 H 0.09998 0.58785 0.44476 0.0
loop_
_geom_bond_atom_site_label_1
_geom_bond_atom_site_label_2
_geom_bond_distance
_geom_bond_site_symmetry_2
_ccdc_geom_bond_type
C0 C1 1.560 . S
C0 H61 0.959 . S
C0 H62 0.959 . S
C0 H63 0.960 . S
C1 C0 1.560 . S
C1 O56 1.426 . S
C1 H60 0.980 . S
C2 C3 1.407 . S
C2 C7 1.418 . S
C2 O56 1.334 . S
C3 C2 1.407 . S
C3 C4 1.360 . S
C3 H64 0.929 . S
C4 C3 1.360 . S
C4 C5 1.401 . S
C4 C8 1.527 . S
C5 C4 1.401 . S
C5 C6 1.405 . S
C5 C38 1.587 . S
C6 C5 1.405 . S
C6 C7 1.332 . S
C6 C9 1.496 . S
C7 C2 1.418 . S
C7 C6 1.332 . S
C7 H65 0.929 . S
C8 C4 1.527 . S
C8 H66 0.959 . S
C8 H67 0.961 . S
C8 H68 0.961 . S
C9 C6 1.496 . S
C9 H69 0.960 . S
C9 H70 0.960 . S
C9 H71 0.961 . S
C10 C11 1.517 . S
C10 H73 0.961 . S
C10 H74 0.960 . S
C10 H75 0.959 . S
C11 C10 1.517 . S
C11 O59 1.468 . S
C11 H72 0.980 . S
C12 C13 1.349 . S
C12 C17 1.367 . S
C12 O59 1.408 . S
C13 C12 1.349 . S
C13 C14 1.407 . S
C13 H76 0.930 . S
C14 C13 1.407 . S
C14 C15 1.449 . S
C14 C18 1.535 . S
C15 C14 1.449 . S
C15 C16 1.384 . S
C15 C40 1.553 . S
C16 C15 1.384 . S
C16 C17 1.364 . S
C16 C19 1.450 . S
C17 C12 1.367 . S
C17 C16 1.364 . S
C17 H77 0.931 . S
C18 C14 1.535 . S
C18 H78 0.959 . S
C18 H79 0.961 . S
C18 H80 0.959 . S
C19 C16 1.450 . S
C19 H81 0.960 . S
C19 H82 0.960 . S
C19 H83 0.960 . S
C20 C21 1.309 . S
C20 C25 1.304 . S
C20 O58 1.435 1_554 S
C21 C20 1.309 . S
C21 C22 1.476 . S
C21 H85 0.930 . S
C22 C21 1.476 . S
C22 C23 1.400 . S
C22 C26 1.567 . S
C23 C22 1.400 . S
C23 C24 1.373 . S
C23 C45 1.432 . S
C24 C23 1.373 . S
C24 C25 1.339 . S
C24 C27 1.530 . S
C25 C20 1.304 . S
C25 C24 1.339 . S
C25 H86 0.930 . S
C26 C22 1.567 . S
C26 H87 0.961 . S
C26 H88 0.960 . S
C26 H89 0.958 . S
C27 C24 1.530 . S
C27 H90 0.961 . S
C27 H91 0.960 . S
C27 H92 0.960 . S
C28 C29 1.530 . S
C28 H94 0.961 . S
C28 H95 0.961 1_556 S
C28 H96 0.959 . S
C29 C28 1.530 . S
C29 O57 1.412 . S
C29 H93 0.980 1_556 S
C30 C31 1.288 . S
C30 C35 1.377 . S
C30 O57 1.393 1_554 S
C31 C30 1.288 . S
C31 C32 1.369 . S
C31 H97 0.932 . S
C32 C31 1.369 . S
C32 C33 1.398 . S
C32 C36 1.527 . S
C33 C32 1.398 . S
C33 C34 1.380 . S
C33 C47 1.497 . S
C34 C33 1.380 . S
C34 C35 1.383 . S
C34 C37 1.603 . S
C35 C30 1.377 . S
C35 C34 1.383 . S
C35 H98 0.929 . S
C36 C32 1.527 . S
C36 H99 0.961 . S
C36 H100 0.959 . S
C36 H101 0.959 . S
C37 C34 1.603 . S
C37 H102 0.960 . S
C37 H103 0.962 . S
C37 H104 0.961 . S
C38 C5 1.587 . S
C38 C39 1.360 . S
C38 C51 1.412 . S
C39 C38 1.360 . S
C39 C40 1.365 . S
C39 H105 0.929 . S
C40 C15 1.553 . S
C40 C39 1.365 . S
C40 C41 1.404 . S
C41 C40 1.404 . S
C41 C42 1.395 . S
C41 C52 1.451 . S
C42 C41 1.395 . S
C42 C43 1.322 . S
C42 H106 0.930 . S
C43 C42 1.322 . S
C43 C44 1.459 . S
C43 H107 0.929 . S
C44 C43 1.459 . S
C44 C45 1.445 . S
C44 C53 1.395 . S
C45 C23 1.432 . S
C45 C44 1.445 . S
C45 C46 1.370 . S
C46 C45 1.370 . S
C46 C47 1.438 . S
C46 H108 0.930 . S
C47 C33 1.497 . S
C47 C46 1.438 . S
C47 C48 1.360 . S
C48 C47 1.360 . S
C48 C49 1.401 . S
C48 C53 1.446 . S
C49 C48 1.401 . S
C49 C50 1.347 . S
C49 H109 0.929 . S
C50 C49 1.347 . S
C50 C51 1.455 . S
C50 H110 0.930 . S
C51 C38 1.412 . S
C51 C50 1.455 . S
C51 C52 1.331 . S
C52 C41 1.451 . S
C52 C51 1.331 . S
C52 C53 1.497 . S
C53 C44 1.395 . S
C53 C48 1.446 . S
C53 C52 1.497 . S
C54 C55 1.582 . S
C54 H111 0.962 . S
C54 H112 0.959 . S
C54 H113 0.958 . S
C55 C54 1.582 . S
C55 O58 1.458 . S
C55 H84 0.980 1_556 S
O56 C1 1.426 . S
O56 C2 1.334 . S
O57 C29 1.412 . S
O57 C30 1.393 1_556 S
O58 C20 1.435 1_556 S
O58 C55 1.458 . S
O59 C11 1.468 . S
O59 C12 1.408 . S
H60 C1 0.980 . S
H61 C0 0.959 . S
H62 C0 0.959 . S
H63 C0 0.960 . S
H64 C3 0.929 . S
H65 C7 0.929 . S
H66 C8 0.959 . S
H67 C8 0.961 . S
H68 C8 0.961 . S
H69 C9 0.960 . S
H70 C9 0.960 . S
H71 C9 0.961 . S
H72 C11 0.980 . S
H73 C10 0.961 . S
H74 C10 0.960 . S
H75 C10 0.959 . S
H76 C13 0.930 . S
H77 C17 0.931 . S
H78 C18 0.959 . S
H79 C18 0.961 . S
H80 C18 0.959 . S
H81 C19 0.960 . S
H82 C19 0.960 . S
H83 C19 0.960 . S
H84 C55 0.980 1_554 S
H85 C21 0.930 . S
H86 C25 0.930 . S
H87 C26 0.961 . S
H88 C26 0.960 . S
H89 C26 0.958 . S
H90 C27 0.961 . S
H91 C27 0.960 . S
H92 C27 0.960 . S
H93 C29 0.980 1_554 S
H94 C28 0.961 . S
H95 C28 0.961 1_554 S
H96 C28 0.959 . S
H97 C31 0.932 . S
H98 C35 0.929 . S
H99 C36 0.961 . S
H100 C36 0.959 . S
H101 C36 0.959 . S
H102 C37 0.960 . S
H103 C37 0.962 . S
H104 C37 0.961 . S
H105 C39 0.929 . S
H106 C42 0.930 . S
H107 C43 0.929 . S
H108 C46 0.930 . S
H109 C49 0.929 . S
H110 C50 0.930 . S
H111 C54 0.962 . S
H112 C54 0.959 . S
H113 C54 0.958 . S
C114 C115 1.560 . S
C114 H175 0.959 . S
C114 H176 0.959 . S
C114 H177 0.960 . S
C115 C114 1.560 . S
C115 O170 1.426 . S
C115 H174 0.980 . S
C116 C117 1.407 . S
C116 C121 1.418 . S
C116 O170 1.334 . S
C117 C116 1.407 . S
C117 C118 1.360 . S
C117 H178 0.929 . S
C118 C117 1.360 . S
C118 C119 1.401 . S
C118 C122 1.527 . S
C119 C118 1.401 . S
C119 C120 1.405 . S
C119 C152 1.587 . S
C120 C119 1.405 . S
C120 C121 1.332 . S
C120 C123 1.496 . S
C121 C116 1.418 . S
C121 C120 1.332 . S
C121 H179 0.929 . S
C122 C118 1.527 . S
C122 H180 0.959 . S
C122 H181 0.961 . S
C122 H182 0.961 . S
C123 C120 1.496 . S
C123 H183 0.960 . S
C123 H184 0.960 . S
C123 H185 0.961 . S
C124 C125 1.517 . S
C124 H187 0.961 . S
C124 H188 0.960 . S
C124 H189 0.959 . S
C125 C124 1.517 . S
C125 O173 1.468 . S
C125 H186 0.980 . S
C126 C127 1.349 . S
C126 C131 1.367 . S
C126 O173 1.408 . S
C127 C126 1.349 . S
C127 C128 1.407 . S
C127 H190 0.930 . S
C128 C127 1.407 . S
C128 C129 1.449 . S
C128 C132 1.535 . S
C129 C128 1.449 . S
C129 C130 1.384 . S
C129 C154 1.553 . S
C130 C129 1.384 . S
C130 C131 1.364 . S
C130 C133 1.450 . S
C131 C126 1.367 . S
C131 C130 1.364 . S
C131 H191 0.931 . S
C132 C128 1.535 . S
C132 H192 0.959 . S
C132 H193 0.961 . S
C132 H194 0.959 . S
C133 C130 1.450 . S
C133 H195 0.960 . S
C133 H196 0.960 . S
C133 H197 0.960 . S
C134 C135 1.309 . S
C134 C139 1.304 . S
C134 O172 1.435 . S
C135 C134 1.309 . S
C135 C136 1.476 . S
C135 H199 0.930 . S
C136 C135 1.476 . S
C136 C137 1.400 . S
C136 C140 1.557 1_556 S
C137 C136 1.400 . S
C137 C138 1.373 . S
C137 C159 1.432 1_556 S
C138 C137 1.373 . S
C138 C139 1.339 . S
C138 C141 1.530 . S
C139 C134 1.304 . S
C139 C138 1.339 . S
C139 H200 0.930 . S
C140 C136 1.557 1_554 S
C140 H201 0.983 . S
C140 H202 0.968 . S
C140 H203 0.938 1_554 S
C141 C138 1.530 . S
C141 H204 0.961 . S
C141 H205 0.960 1_556 S
C141 H206 0.960 . S
C142 C143 1.530 . S
C142 H208 0.961 . S
C142 H209 0.961 . S
C142 H210 0.959 . S
C143 C142 1.530 . S
C143 O171 1.412 . S
C143 H207 0.980 . S
C144 C145 1.288 . S
C144 C149 1.377 . S
C144 O171 1.393 . S
C145 C144 1.288 . S
C145 C146 1.369 . S
C145 H211 0.932 . S
C146 C145 1.369 . S
C146 C147 1.398 . S
C146 C150 1.527 . S
C147 C146 1.398 . S
C147 C148 1.380 . S
C147 C161 1.497 1_556 S
C148 C147 1.380 . S
C148 C149 1.383 . S
C148 C151 1.603 . S
C149 C144 1.377 . S
C149 C148 1.383 . S
C149 H212 0.929 . S
C150 C146 1.527 . S
C150 H213 0.961 1_556 S
C150 H214 0.959 . S
C150 H215 0.959 . S
C151 C148 1.603 . S
C151 H216 0.960 . S
C151 H217 0.962 . S
C151 H218 0.961 1_556 S
C152 C119 1.587 . S
C152 C153 1.360 . S
C152 C165 1.412 . S
C153 C152 1.360 . S
C153 C154 1.365 . S
C153 H219 0.929 . S
C154 C129 1.553 . S
C154 C153 1.365 . S
C154 C155 1.404 . S
C155 C154 1.404 . S
C155 C156 1.395 . S
C155 C166 1.451 . S
C156 C155 1.395 . S
C156 C157 1.322 . S
C156 H220 0.930 . S
C157 C156 1.322 . S
C157 C158 1.459 . S
C157 H221 0.929 . S
C158 C157 1.459 . S
C158 C159 1.445 . S
C158 C167 1.395 . S
C159 C137 1.432 1_554 S
C159 C158 1.445 . S
C159 C160 1.370 1_554 S
C160 C159 1.370 1_556 S
C160 C161 1.438 1_556 S
C160 H222 0.930 . S
C161 C147 1.497 1_554 S
C161 C160 1.438 1_554 S
C161 C162 1.360 . S
C162 C161 1.360 . S
C162 C163 1.401 . S
C162 C167 1.446 . S
C163 C162 1.401 . S
C163 C164 1.347 . S
C163 H223 0.929 . S
C164 C163 1.347 . S
C164 C165 1.455 . S
C164 H224 0.930 . S
C165 C152 1.412 . S
C165 C164 1.455 . S
C165 C166 1.331 . S
C166 C155 1.451 . S
C166 C165 1.331 . S
C166 C167 1.497 . S
C167 C158 1.395 . S
C167 C162 1.446 . S
C167 C166 1.497 . S
C168 C169 1.582 . S
C168 H225 0.962 . S
C168 H226 0.959 . S
C168 H227 0.958 . S
C169 C168 1.582 . S
C169 O172 1.458 . S
C169 H198 0.980 . S
O170 C115 1.426 . S
O170 C116 1.334 . S
O171 C143 1.412 . S
O171 C144 1.393 . S
O172 C134 1.435 . S
O172 C169 1.458 . S
O173 C125 1.468 . S
O173 C126 1.408 . S
H174 C115 0.980 . S
H175 C114 0.959 . S
H176 C114 0.959 . S
H177 C114 0.960 . S
H178 C117 0.929 . S
H179 C121 0.929 . S
H180 C122 0.959 . S
H181 C122 0.961 . S
H182 C122 0.961 . S
H183 C123 0.960 . S
H184 C123 0.960 . S
H185 C123 0.961 . S
H186 C125 0.980 . S
H187 C124 0.961 . S
H188 C124 0.960 . S
H189 C124 0.959 . S
H190 C127 0.930 . S
H191 C131 0.931 . S
H192 C132 0.959 . S
H193 C132 0.961 . S
H194 C132 0.959 . S
H195 C133 0.960 . S
H196 C133 0.960 . S
H197 C133 0.960 . S
H198 C169 0.980 . S
H199 C135 0.930 . S
H200 C139 0.930 . S
H201 C140 0.983 . S
H202 C140 0.968 . S
H203 C140 0.938 1_556 S
H204 C141 0.961 . S
H205 C141 0.960 1_554 S
H206 C141 0.960 . S
H207 C143 0.980 . S
H208 C142 0.961 . S
H209 C142 0.961 . S
H210 C142 0.959 . S
H211 C145 0.932 . S
H212 C149 0.929 . S
H213 C150 0.961 1_554 S
H214 C150 0.959 . S
H215 C150 0.959 . S
H216 C151 0.960 . S
H217 C151 0.962 . S
H218 C151 0.961 1_554 S
H219 C153 0.929 . S
H220 C156 0.930 . S
H221 C157 0.929 . S
H222 C160 0.930 . S
H223 C163 0.929 . S
H224 C164 0.930 . S
H225 C168 0.962 . S
H226 C168 0.959 . S
H227 C168 0.958 . S
C228 C229 1.560 . S
C228 H289 0.959 . S
C228 H290 0.959 . S
C228 H291 0.960 . S
C229 C228 1.560 . S
C229 O284 1.426 . S
C229 H288 0.980 . S
C230 C231 1.407 . S
C230 C235 1.418 . S
C230 O284 1.334 . S
C231 C230 1.407 . S
C231 C232 1.360 . S
C231 H292 0.929 . S
C232 C231 1.360 . S
C232 C233 1.401 . S
C232 C236 1.527 . S
C233 C232 1.401 . S
C233 C234 1.405 . S
C233 C266 1.587 . S
C234 C233 1.405 . S
C234 C235 1.332 . S
C234 C237 1.496 . S
C235 C230 1.418 . S
C235 C234 1.332 . S
C235 H293 0.929 . S
C236 C232 1.527 . S
C236 H294 0.959 . S
C236 H295 0.961 . S
C236 H296 0.961 . S
C237 C234 1.496 . S
C237 H297 0.960 . S
C237 H298 0.960 . S
C237 H299 0.961 . S
C238 C239 1.517 . S
C238 H301 0.961 . S
C238 H302 0.960 . S
C238 H303 0.959 . S
C239 C238 1.517 . S
C239 O287 1.468 . S
C239 H300 0.980 . S
C240 C241 1.349 . S
C240 C245 1.367 . S
C240 O287 1.408 . S
C241 C240 1.349 . S
C241 C242 1.407 . S
C241 H304 0.930 . S
C242 C241 1.407 . S
C242 C243 1.449 . S
C242 C246 1.535 . S
C243 C242 1.449 . S
C243 C244 1.384 . S
C243 C268 1.553 . S
C244 C243 1.384 . S
C244 C245 1.364 . S
C244 C247 1.450 . S
C245 C240 1.367 . S
C245 C244 1.364 . S
C245 H305 0.931 . S
C246 C242 1.535 . S
C246 H306 0.959 . S
C246 H307 0.961 . S
C246 H308 0.959 . S
C247 C244 1.450 . S
C247 H309 0.960 . S
C247 H310 0.960 . S
C247 H311 0.960 . S
C248 C249 1.309 . S
C248 C253 1.304 . S
C248 O286 1.435 . S
C249 C248 1.309 . S
C249 C250 1.476 . S
C249 H313 0.930 . S
C250 C249 1.476 . S
C250 C251 1.400 . S
C250 C254 1.567 . S
C251 C250 1.400 . S
C251 C252 1.373 . S
C251 C273 1.432 . S
C252 C251 1.373 . S
C252 C253 1.339 . S
C252 C255 1.530 . S
C253 C248 1.304 . S
C253 C252 1.339 . S
C253 H314 0.930 . S
C254 C250 1.567 . S
C254 H315 0.961 . S
C254 H316 0.960 . S
C254 H317 0.958 . S
C255 C252 1.530 . S
C255 H318 0.961 . S
C255 H319 0.960 . S
C255 H320 0.960 . S
C256 C257 1.530 . S
C256 H322 0.961 . S
C256 H323 0.961 . S
C256 H324 0.959 . S
C257 C256 1.530 . S
C257 O285 1.412 . S
C257 H321 0.980 . S
C258 C259 1.288 . S
C258 C263 1.377 . S
C258 O285 1.393 . S
C259 C258 1.288 . S
C259 C260 1.369 . S
C259 H325 0.932 . S
C260 C259 1.369 . S
C260 C261 1.398 . S
C260 C264 1.527 . S
C261 C260 1.398 . S
C261 C262 1.380 . S
C261 C275 1.497 . S
C262 C261 1.380 . S
C262 C263 1.383 . S
C262 C265 1.603 . S
C263 C258 1.377 . S
C263 C262 1.383 . S
C263 H326 0.929 . S
C264 C260 1.527 . S
C264 H327 0.961 . S
C264 H328 0.959 . S
C264 H329 0.959 . S
C265 C262 1.603 . S
C265 H330 0.960 . S
C265 H331 0.962 . S
C265 H332 0.961 . S
C266 C233 1.587 . S
C266 C267 1.360 . S
C266 C279 1.412 . S
C267 C266 1.360 . S
C267 C268 1.365 . S
C267 H333 0.929 . S
C268 C243 1.553 . S
C268 C267 1.365 . S
C268 C269 1.404 . S
C269 C268 1.404 . S
C269 C270 1.395 . S
C269 C280 1.451 . S
C270 C269 1.395 . S
C270 C271 1.322 . S
C270 H334 0.930 . S
C271 C270 1.322 . S
C271 C272 1.459 . S
C271 H335 0.929 . S
C272 C271 1.459 . S
C272 C273 1.445 1_554 S
C272 C281 1.395 . S
C273 C251 1.432 . S
C273 C272 1.445 1_556 S
C273 C274 1.370 . S
C274 C273 1.370 . S
C274 C275 1.438 . S
C274 H336 0.930 . S
C275 C261 1.497 . S
C275 C274 1.438 . S
C275 C276 1.360 1_556 S
C276 C275 1.360 1_554 S
C276 C277 1.401 . S
C276 C281 1.446 . S
C277 C276 1.401 . S
C277 C278 1.347 . S
C277 H337 0.929 . S
C278 C277 1.347 . S
C278 C279 1.455 . S
C278 H338 0.930 . S
C279 C266 1.412 . S
C279 C278 1.455 . S
C279 C280 1.331 . S
C280 C269 1.451 . S
C280 C279 1.331 . S
C280 C281 1.497 . S
C281 C272 1.395 . S
C281 C276 1.446 . S
C281 C280 1.497 . S
C282 C283 1.582 . S
C282 H339 0.962 . S
C282 H340 0.959 . S
C282 H341 0.958 . S
C283 C282 1.582 . S
C283 O286 1.458 . S
C283 H312 0.980 . S
O284 C229 1.426 . S
O284 C230 1.334 . S
O285 C257 1.412 . S
O285 C258 1.393 . S
O286 C248 1.435 . S
O286 C283 1.458 . S
O287 C239 1.468 . S
O287 C240 1.408 . S
H288 C229 0.980 . S
H289 C228 0.959 . S
H290 C228 0.959 . S
H291 C228 0.960 . S
H292 C231 0.929 . S
H293 C235 0.929 . S
H294 C236 0.959 . S
H295 C236 0.961 . S
H296 C236 0.961 . S
H297 C237 0.960 . S
H298 C237 0.960 . S
H299 C237 0.961 . S
H300 C239 0.980 . S
H301 C238 0.961 . S
H302 C238 0.960 . S
H303 C238 0.959 . S
H304 C241 0.930 . S
H305 C245 0.931 . S
H306 C246 0.959 . S
H307 C246 0.961 . S
H308 C246 0.959 . S
H309 C247 0.960 . S
H310 C247 0.960 . S
H311 C247 0.960 . S
H312 C283 0.980 . S
H313 C249 0.930 . S
H314 C253 0.930 . S
H315 C254 0.961 . S
H316 C254 0.960 . S
H317 C254 0.958 . S
H318 C255 0.961 . S
H319 C255 0.960 . S
H320 C255 0.960 . S
H321 C257 0.980 . S
H322 C256 0.961 . S
H323 C256 0.961 . S
H324 C256 0.959 . S
H325 C259 0.932 . S
H326 C263 0.929 . S
H327 C264 0.961 . S
H328 C264 0.959 . S
H329 C264 0.959 . S
H330 C265 0.960 . S
H331 C265 0.962 . S
H332 C265 0.961 . S
H333 C267 0.929 . S
H334 C270 0.930 . S
H335 C271 0.929 . S
H336 C274 0.930 . S
H337 C277 0.929 . S
H338 C278 0.930 . S
H339 C282 0.962 . S
H340 C282 0.959 . S
H341 C282 0.958 . S
C342 C343 1.560 . S
C342 H403 0.959 . S
C342 H404 0.959 . S
C342 H405 0.960 . S
C343 C342 1.560 . S
C343 O398 1.426 . S
C343 H402 0.980 . S
C344 C345 1.407 . S
C344 C349 1.418 . S
C344 O398 1.334 . S
C345 C344 1.407 . S
C345 C346 1.360 . S
C345 H406 0.929 . S
C346 C345 1.360 . S
C346 C347 1.401 . S
C346 C350 1.527 . S
C347 C346 1.401 . S
C347 C348 1.405 . S
C347 C380 1.587 . S
C348 C347 1.405 . S
C348 C349 1.332 . S
C348 C351 1.496 . S
C349 C344 1.418 . S
C349 C348 1.332 . S
C349 H407 0.929 . S
C350 C346 1.527 . S
C350 H408 0.959 . S
C350 H409 0.961 . S
C350 H410 0.961 . S
C351 C348 1.496 . S
C351 H411 0.960 . S
C351 H412 0.960 . S
C351 H413 0.961 . S
C352 C353 1.517 . S
C352 H415 0.961 . S
C352 H416 0.960 . S
C352 H417 0.959 . S
C353 C352 1.517 . S
C353 O401 1.468 . S
C353 H414 0.980 . S
C354 C355 1.349 . S
C354 C359 1.367 . S
C354 O401 1.408 . S
C355 C354 1.349 . S
C355 C356 1.407 . S
C355 H418 0.930 . S
C356 C355 1.407 . S
C356 C357 1.449 . S
C356 C360 1.535 . S
C357 C356 1.449 . S
C357 C358 1.384 . S
C357 C382 1.553 . S
C358 C357 1.384 . S
C358 C359 1.364 . S
C358 C361 1.450 . S
C359 C354 1.367 . S
C359 C358 1.364 . S
C359 H419 0.931 . S
C360 C356 1.535 . S
C360 H420 0.959 . S
C360 H421 0.961 . S
C360 H422 0.959 . S
C361 C358 1.450 . S
C361 H423 0.960 . S
C361 H424 0.960 . S
C361 H425 0.960 . S
C362 C363 1.309 . S
C362 C367 1.304 . S
C362 O400 1.435 . S
C363 C362 1.309 . S
C363 C364 1.476 . S
C363 H427 0.930 . S
C364 C363 1.476 . S
C364 C365 1.400 . S
C364 C368 1.567 . S
C365 C364 1.400 . S
C365 C366 1.373 . S
C365 C387 1.432 . S
C366 C365 1.373 . S
C366 C367 1.339 . S
C366 C369 1.530 . S
C367 C362 1.304 . S
C367 C366 1.339 . S
C367 H428 0.930 . S
C368 C364 1.567 . S
C368 H429 0.961 . S
C368 H430 0.960 . S
C368 H431 0.958 . S
C369 C366 1.530 . S
C369 H432 0.961 . S
C369 H433 0.960 . S
C369 H434 0.960 . S
C370 C371 1.530 . S
C370 H436 0.961 . S
C370 H437 0.961 . S
C370 H438 0.959 . S
C371 C370 1.530 . S
C371 O399 1.412 . S
C371 H435 0.980 . S
C372 C373 1.288 . S
C372 C377 1.377 . S
C372 O399 1.393 . S
C373 C372 1.288 . S
C373 C374 1.369 . S
C373 H439 0.932 . S
C374 C373 1.369 . S
C374 C375 1.398 . S
C374 C378 1.527 . S
C375 C374 1.398 . S
C375 C376 1.380 . S
C375 C389 1.497 . S
C376 C375 1.380 . S
C376 C377 1.383 . S
C376 C379 1.603 . S
C377 C372 1.377 . S
C377 C376 1.383 . S
C377 H440 0.929 . S
C378 C374 1.527 . S
C378 H441 0.961 . S
C378 H442 0.959 . S
C378 H443 0.959 . S
C379 C376 1.603 . S
C379 H444 0.960 . S
C379 H445 0.962 . S
C379 H446 0.961 . S
C380 C347 1.587 . S
C380 C381 1.360 . S
C380 C393 1.412 . S
C381 C380 1.360 . S
C381 C382 1.365 . S
C381 H447 0.929 . S
C382 C357 1.553 . S
C382 C381 1.365 . S
C382 C383 1.404 . S
C383 C382 1.404 . S
C383 C384 1.395 . S
C383 C394 1.451 . S
C384 C383 1.395 . S
C384 C385 1.322 . S
C384 H448 0.930 . S
C385 C384 1.322 . S
C385 C386 1.459 1_554 S
C385 H449 0.929 . S
C386 C385 1.459 1_556 S
C386 C387 1.445 . S
C386 C395 1.395 1_556 S
C387 C365 1.432 . S
C387 C386 1.445 . S
C387 C388 1.370 . S
C388 C387 1.370 . S
C388 C389 1.438 . S
C388 H450 0.930 . S
C389 C375 1.497 . S
C389 C388 1.438 . S
C389 C390 1.360 . S
C390 C389 1.360 . S
C390 C391 1.401 1_556 S
C390 C395 1.446 1_556 S
C391 C390 1.401 1_554 S
C391 C392 1.347 . S
C391 H451 0.929 . S
C392 C391 1.347 . S
C392 C393 1.455 . S
C392 H452 0.930 . S
C393 C380 1.412 . S
C393 C392 1.455 . S
C393 C394 1.331 . S
C394 C383 1.451 . S
C394 C393 1.331 . S
C394 C395 1.497 . S
C395 C386 1.395 1_554 S
C395 C390 1.446 1_554 S
C395 C394 1.497 . S
C396 C397 1.582 . S
C396 H453 0.962 . S
C396 H454 0.959 . S
C396 H455 0.958 . S
C397 C396 1.582 . S
C397 O400 1.458 . S
C397 H426 0.980 . S
O398 C343 1.426 . S
O398 C344 1.334 . S
O399 C371 1.412 . S
O399 C372 1.393 . S
O400 C362 1.435 . S
O400 C397 1.458 . S
O401 C353 1.468 . S
O401 C354 1.408 . S
H402 C343 0.980 . S
H403 C342 0.959 . S
H404 C342 0.959 . S
H405 C342 0.960 . S
H406 C345 0.929 . S
H407 C349 0.929 . S
H408 C350 0.959 . S
H409 C350 0.961 . S
H410 C350 0.961 . S
H411 C351 0.960 . S
H412 C351 0.960 . S
H413 C351 0.961 . S
H414 C353 0.980 . S
H415 C352 0.961 . S
H416 C352 0.960 . S
H417 C352 0.959 . S
H418 C355 0.930 . S
H419 C359 0.931 . S
H420 C360 0.959 . S
H421 C360 0.961 . S
H422 C360 0.959 . S
H423 C361 0.960 . S
H424 C361 0.960 . S
H425 C361 0.960 . S
H426 C397 0.980 . S
H427 C363 0.930 . S
H428 C367 0.930 . S
H429 C368 0.961 . S
H430 C368 0.960 . S
H431 C368 0.958 . S
H432 C369 0.961 . S
H433 C369 0.960 . S
H434 C369 0.960 . S
H435 C371 0.980 . S
H436 C370 0.961 . S
H437 C370 0.961 . S
H438 C370 0.959 . S
H439 C373 0.932 . S
H440 C377 0.929 . S
H441 C378 0.961 . S
H442 C378 0.959 . S
H443 C378 0.959 . S
H444 C379 0.960 . S
H445 C379 0.962 . S
H446 C379 0.961 . S
H447 C381 0.929 . S
H448 C384 0.930 . S
H449 C385 0.929 . S
H450 C388 0.930 . S
H451 C391 0.929 . S
H452 C392 0.930 . S
H453 C396 0.962 . S
H454 C396 0.959 . S
H455 C396 0.958 . S
C456 C457 1.560 . S
C456 H517 0.959 . S
C456 H518 0.959 . S
C456 H519 0.960 . S
C457 C456 1.560 . S
C457 O512 1.426 . S
C457 H516 0.980 . S
C458 C459 1.407 . S
C458 C463 1.418 . S
C458 O512 1.334 . S
C459 C458 1.407 . S
C459 C460 1.360 . S
C459 H520 0.929 . S
C460 C459 1.360 . S
C460 C461 1.401 . S
C460 C464 1.527 . S
C461 C460 1.401 . S
C461 C462 1.405 . S
C461 C494 1.587 1_556 S
C462 C461 1.405 . S
C462 C463 1.332 . S
C462 C465 1.487 1_556 S
C463 C458 1.418 . S
C463 C462 1.332 . S
C463 H521 0.929 . S
C464 C460 1.527 . S
C464 H522 0.959 . S
C464 H523 0.961 . S
C464 H524 0.961 1_556 S
C465 C462 1.487 1_554 S
C465 H525 0.956 1_554 S
C465 H526 0.953 1_554 S
C465 H527 0.980 . S
C466 C467 1.517 . S
C466 H529 0.961 . S
C466 H530 0.960 . S
C466 H531 0.959 . S
C467 C466 1.517 . S
C467 O515 1.468 . S
C467 H528 0.980 . S
C468 C469 1.349 . S
C468 C473 1.367 . S
C468 O515 1.408 . S
C469 C468 1.349 . S
C469 C470 1.407 . S
C469 H532 0.930 . S
C470 C469 1.407 . S
C470 C471 1.449 . S
C470 C474 1.535 . S
C471 C470 1.449 . S
C471 C472 1.384 . S
C471 C496 1.553 1_556 S
C472 C471 1.384 . S
C472 C473 1.364 . S
C472 C475 1.450 . S
C473 C468 1.367 . S
C473 C472 1.364 . S
C473 H533 0.931 . S
C474 C470 1.535 . S
C474 H534 0.959 . S
C474 H535 0.961 . S
C474 H536 0.959 . S
C475 C472 1.450 . S
C475 H537 0.960 . S
C475 H538 0.960 . S
C475 H539 0.960 1_556 S
C476 C477 1.309 . S
C476 C481 1.304 . S
C476 O514 1.435 . S
C477 C476 1.309 . S
C477 C478 1.476 . S
C477 H541 0.930 . S
C478 C477 1.476 . S
C478 C479 1.400 . S
C478 C482 1.567 . S
C479 C478 1.400 . S
C479 C480 1.373 . S
C479 C501 1.432 . S
C480 C479 1.373 . S
C480 C481 1.339 . S
C480 C483 1.530 . S
C481 C476 1.304 . S
C481 C480 1.339 . S
C481 H542 0.930 . S
C482 C478 1.567 . S
C482 H543 0.961 . S
C482 H544 0.960 . S
C482 H545 0.958 . S
C483 C480 1.530 . S
C483 H546 0.961 . S
C483 H547 0.960 . S
C483 H548 0.960 . S
C484 C485 1.530 . S
C484 H550 0.961 . S
C484 H551 0.961 . S
C484 H552 0.959 . S
C485 C484 1.530 . S
C485 O513 1.412 . S
C485 H549 0.980 . S
C486 C487 1.288 . S
C486 C491 1.377 . S
C486 O513 1.393 . S
C487 C486 1.288 . S
C487 C488 1.369 . S
C487 H553 0.932 . S
C488 C487 1.369 . S
C488 C489 1.398 . S
C488 C492 1.527 . S
C489 C488 1.398 . S
C489 C490 1.380 . S
C489 C503 1.497 . S
C490 C489 1.380 . S
C490 C491 1.383 . S
C490 C493 1.603 . S
C491 C486 1.377 . S
C491 C490 1.383 . S
C491 H554 0.929 . S
C492 C488 1.527 . S
C492 H555 0.961 . S
C492 H556 0.959 . S
C492 H557 0.959 . S
C493 C490 1.603 . S
C493 H558 0.960 . S
C493 H559 0.962 . S
C493 H560 0.961 . S
C494 C461 1.587 1_554 S
C494 C495 1.360 1_554 S
C494 C507 1.412 . S
C495 C494 1.360 1_556 S
C495 C496 1.365 1_556 S
C495 H561 0.929 . S
C496 C471 1.553 1_554 S
C496 C495 1.365 1_554 S
C496 C497 1.404 . S
C497 C496 1.404 . S
C497 C498 1.395 . S
C497 C508 1.451 . S
C498 C497 1.395 . S
C498 C499 1.322 . S
C498 H562 0.930 . S
C499 C498 1.322 . S
C499 C500 1.459 . S
C499 H563 0.929 . S
C500 C499 1.459 . S
C500 C501 1.445 . S
C500 C509 1.395 . S
C501 C479 1.432 . S
C501 C500 1.445 . S
C501 C502 1.370 . S
C502 C501 1.370 . S
C502 C503 1.438 . S
C502 H564 0.930 . S
C503 C489 1.497 . S
C503 C502 1.438 . S
C503 C504 1.360 . S
C504 C503 1.360 . S
C504 C505 1.401 . S
C504 C509 1.446 . S
C505 C504 1.401 . S
C505 C506 1.347 . S
C505 H565 0.929 . S
C506 C505 1.347 . S
C506 C507 1.455 . S
C506 H566 0.930 . S
C507 C494 1.412 . S
C507 C506 1.455 . S
C507 C508 1.331 . S
C508 C497 1.451 . S
C508 C507 1.331 . S
C508 C509 1.497 . S
C509 C500 1.395 . S
C509 C504 1.446 . S
C509 C508 1.497 . S
C510 C511 1.582 . S
C510 H567 0.962 . S
C510 H568 0.959 . S
C510 H569 0.958 . S
C511 C510 1.582 . S
C511 O514 1.458 . S
C511 H540 0.980 . S
O512 C457 1.426 . S
O512 C458 1.334 . S
O513 C485 1.412 . S
O513 C486 1.393 . S
O514 C476 1.435 . S
O514 C511 1.458 . S
O515 C467 1.468 . S
O515 C468 1.408 . S
H516 C457 0.980 . S
H517 C456 0.959 . S
H518 C456 0.959 . S
H519 C456 0.960 . S
H520 C459 0.929 . S
H521 C463 0.929 . S
H522 C464 0.959 . S
H523 C464 0.961 . S
H524 C464 0.961 1_554 S
H525 C465 0.956 1_556 S
H526 C465 0.953 1_556 S
H527 C465 0.980 . S
H528 C467 0.980 . S
H529 C466 0.961 . S
H530 C466 0.960 . S
H531 C466 0.959 . S
H532 C469 0.930 . S
H533 C473 0.931 . S
H534 C474 0.959 . S
H535 C474 0.961 . S
H536 C474 0.959 . S
H537 C475 0.960 . S
H538 C475 0.960 . S
H539 C475 0.960 1_554 S
H540 C511 0.980 . S
H541 C477 0.930 . S
H542 C481 0.930 . S
H543 C482 0.961 . S
H544 C482 0.960 . S
H545 C482 0.958 . S
H546 C483 0.961 . S
H547 C483 0.960 . S
H548 C483 0.960 . S
H549 C485 0.980 . S
H550 C484 0.961 . S
H551 C484 0.961 . S
H552 C484 0.959 . S
H553 C487 0.932 . S
H554 C491 0.929 . S
H555 C492 0.961 . S
H556 C492 0.959 . S
H557 C492 0.959 . S
H558 C493 0.960 . S
H559 C493 0.962 . S
H560 C493 0.961 . S
H561 C495 0.929 . S
H562 C498 0.930 . S
H563 C499 0.929 . S
H564 C502 0.930 . S
H565 C505 0.929 . S
H566 C506 0.930 . S
H567 C510 0.962 . S
H568 C510 0.959 . S
H569 C510 0.958 . S
C570 C571 1.560 . S
C570 H631 0.959 . S
C570 H632 0.959 . S
C570 H633 0.960 . S
C571 C570 1.560 . S
C571 O626 1.426 . S
C571 H630 0.980 . S
C572 C573 1.407 . S
C572 C577 1.418 . S
C572 O626 1.334 . S
C573 C572 1.407 . S
C573 C574 1.360 . S
C573 H634 0.929 . S
C574 C573 1.360 . S
C574 C575 1.401 . S
C574 C578 1.527 . S
C575 C574 1.401 . S
C575 C576 1.405 . S
C575 C608 1.587 . S
C576 C575 1.405 . S
C576 C577 1.332 . S
C576 C579 1.496 . S
C577 C572 1.418 . S
C577 C576 1.332 . S
C577 H635 0.929 . S
C578 C574 1.527 . S
C578 H636 0.959 . S
C578 H637 0.961 . S
C578 H638 0.961 . S
C579 C576 1.496 . S
C579 H639 0.960 . S
C579 H640 0.960 . S
C579 H641 0.961 . S
C580 C581 1.517 . S
C580 H643 0.961 . S
C580 H644 0.960 . S
C580 H645 0.959 . S
C581 C580 1.517 . S
C581 O629 1.468 . S
C581 H642 0.980 . S
C582 C583 1.349 . S
C582 C587 1.367 . S
C582 O629 1.408 . S
C583 C582 1.349 . S
C583 C584 1.407 . S
C583 H646 0.930 . S
C584 C583 1.407 . S
C584 C585 1.449 . S
C584 C588 1.535 . S
C585 C584 1.449 . S
C585 C586 1.384 . S
C585 C610 1.553 . S
C586 C585 1.384 . S
C586 C587 1.364 . S
C586 C589 1.450 . S
C587 C582 1.367 . S
C587 C586 1.364 . S
C587 H647 0.931 . S
C588 C584 1.535 . S
C588 H648 0.959 . S
C588 H649 0.961 . S
C588 H650 0.959 . S
C589 C586 1.450 . S
C589 H651 0.960 . S
C589 H652 0.960 . S
C589 H653 0.960 . S
C590 C591 1.309 . S
C590 C595 1.304 . S
C590 O628 1.435 1_554 S
C591 C590 1.309 . S
C591 C592 1.476 . S
C591 H655 0.930 . S
C592 C591 1.476 . S
C592 C593 1.400 . S
C592 C596 1.567 . S
C593 C592 1.400 . S
C593 C594 1.373 . S
C593 C615 1.432 . S
C594 C593 1.373 . S
C594 C595 1.339 . S
C594 C597 1.530 . S
C595 C590 1.304 . S
C595 C594 1.339 . S
C595 H656 0.930 . S
C596 C592 1.567 . S
C596 H657 0.961 . S
C596 H658 0.960 . S
C596 H659 0.958 . S
C597 C594 1.530 . S
C597 H660 0.961 . S
C597 H661 0.960 . S
C597 H662 0.960 . S
C598 C599 1.530 . S
C598 H664 0.961 . S
C598 H665 0.961 . S
C598 H666 0.959 . S
C599 C598 1.530 . S
C599 O627 1.412 . S
C599 H663 0.980 1_556 S
C600 C601 1.288 . S
C600 C605 1.377 . S
C600 O627 1.393 1_554 S
C601 C600 1.288 . S
C601 C602 1.369 . S
C601 H667 0.932 . S
C602 C601 1.369 . S
C602 C603 1.398 . S
C602 C606 1.527 . S
C603 C602 1.398 . S
C603 C604 1.380 . S
C603 C617 1.497 . S
C604 C603 1.380 . S
C604 C605 1.383 . S
C604 C607 1.603 . S
C605 C600 1.377 . S
C605 C604 1.383 . S
C605 H668 0.929 . S
C606 C602 1.527 . S
C606 H669 0.961 . S
C606 H670 0.959 . S
C606 H671 0.959 . S
C607 C604 1.603 . S
C607 H672 0.960 . S
C607 H673 0.962 . S
C607 H674 0.961 . S
C608 C575 1.587 . S
C608 C609 1.360 . S
C608 C621 1.412 . S
C609 C608 1.360 . S
C609 C610 1.365 . S
C609 H675 0.929 . S
C610 C585 1.553 . S
C610 C609 1.365 . S
C610 C611 1.404 . S
C611 C610 1.404 . S
C611 C612 1.395 . S
C611 C622 1.451 . S
C612 C611 1.395 . S
C612 C613 1.322 . S
C612 H676 0.930 . S
C613 C612 1.322 . S
C613 C614 1.459 . S
C613 H677 0.929 . S
C614 C613 1.459 . S
C614 C615 1.445 . S
C614 C623 1.395 . S
C615 C593 1.432 . S
C615 C614 1.445 . S
C615 C616 1.370 . S
C616 C615 1.370 . S
C616 C617 1.438 . S
C616 H678 0.930 . S
C617 C603 1.497 . S
C617 C616 1.438 . S
C617 C618 1.360 . S
C618 C617 1.360 . S
C618 C619 1.401 . S
C618 C623 1.446 . S
C619 C618 1.401 . S
C619 C620 1.347 . S
C619 H679 0.929 . S
C620 C619 1.347 . S
C620 C621 1.455 . S
C620 H680 0.930 . S
C621 C608 1.412 . S
C621 C620 1.455 . S
C621 C622 1.331 . S
C622 C611 1.451 . S
C622 C621 1.331 . S
C622 C623 1.497 . S
C623 C614 1.395 . S
C623 C618 1.446 . S
C623 C622 1.497 . S
C624 C625 1.582 . S
C624 H681 0.962 . S
C624 H682 0.959 . S
C624 H683 0.958 . S
C625 C624 1.582 . S
C625 O628 1.458 . S
C625 H654 0.980 1_556 S
O626 C571 1.426 . S
O626 C572 1.334 . S
O627 C599 1.412 . S
O627 C600 1.393 1_556 S
O628 C590 1.435 1_556 S
O628 C625 1.458 . S
O629 C581 1.468 . S
O629 C582 1.408 . S
H630 C571 0.980 . S
H631 C570 0.959 . S
H632 C570 0.959 . S
H633 C570 0.960 . S
H634 C573 0.929 . S
H635 C577 0.929 . S
H636 C578 0.959 . S
H637 C578 0.961 . S
H638 C578 0.961 . S
H639 C579 0.960 . S
H640 C579 0.960 . S
H641 C579 0.961 . S
H642 C581 0.980 . S
H643 C580 0.961 . S
H644 C580 0.960 . S
H645 C580 0.959 . S
H646 C583 0.930 . S
H647 C587 0.931 . S
H648 C588 0.959 . S
H649 C588 0.961 . S
H650 C588 0.959 . S
H651 C589 0.960 . S
H652 C589 0.960 . S
H653 C589 0.960 . S
H654 C625 0.980 1_554 S
H655 C591 0.930 . S
H656 C595 0.930 . S
H657 C596 0.961 . S
H658 C596 0.960 . S
H659 C596 0.958 . S
H660 C597 0.961 . S
H661 C597 0.960 . S
H662 C597 0.960 . S
H663 C599 0.980 1_554 S
H664 C598 0.961 . S
H665 C598 0.961 . S
H666 C598 0.959 . S
H667 C601 0.932 . S
H668 C605 0.929 . S
H669 C606 0.961 . S
H670 C606 0.959 . S
H671 C606 0.959 . S
H672 C607 0.960 . S
H673 C607 0.962 . S
H674 C607 0.961 . S
H675 C609 0.929 . S
H676 C612 0.930 . S
H677 C613 0.929 . S
H678 C616 0.930 . S
H679 C619 0.929 . S
H680 C620 0.930 . S
H681 C624 0.962 . S
H682 C624 0.959 . S
H683 C624 0.958 . S
C684 O711 1.312 . S
C684 O712 1.208 . S
C685 O706 1.331 . S
C685 O709 1.244 . S
C686 O708 1.264 . S
C686 O710 1.273 . S
Mg687 O689 1.936 . S
Mg687 O696 2.081 1_455 S
Mg687 O698 2.023 . S
Mg687 O702 2.031 1_455 S
Mg687 O711 2.291 . S
Mg688 O689 1.963 . S
Mg688 O699 1.942 1_455 S
Mg688 O700 1.955 . S
Mg688 O707 1.986 1_455 S
O689 Mg687 1.936 . S
O689 Mg688 1.963 . S
O689 Mg690 1.915 . S
Mg690 O689 1.915 . S
Mg690 O691 1.915 . S
Mg690 O695 2.013 . S
Mg690 O701 2.114 1_455 S
Mg690 O705 2.013 1_455 S
Mg690 O711 2.114 . S
O691 Mg690 1.915 . S
O691 Mg692 1.936 . S
O691 Mg693 1.963 . S
Mg692 O691 1.936 . S
Mg692 O701 2.291 1_455 S
Mg692 O706 2.081 . S
Mg692 O708 2.023 1_455 S
Mg692 O712 2.031 . S
Mg693 O691 1.963 . S
Mg693 O697 1.986 . S
Mg693 O709 1.942 . S
Mg693 O710 1.955 1_455 S
C694 O705 1.191 . S
C694 O707 1.307 . S
O695 Mg690 2.013 . S
O695 C714 1.191 . S
O696 Mg687 2.081 1_655 S
O696 C704 1.331 . S
O697 Mg693 1.986 . S
O697 C714 1.307 . S
O698 Mg687 2.023 . S
O698 C713 1.264 . S
O699 Mg688 1.942 1_655 S
O699 C704 1.244 . S
O700 Mg688 1.955 . S
O700 C713 1.273 . S
O701 Mg690 2.114 1_655 S
O701 Mg692 2.291 1_655 S
O701 C703 1.312 . S
O702 Mg687 2.031 1_655 S
O702 C703 1.208 . S
C703 O701 1.312 . S
C703 O702 1.208 . S
C704 O696 1.331 . S
C704 O699 1.244 . S
O705 Mg690 2.013 1_655 S
O705 C694 1.191 . S
O706 C685 1.331 . S
O706 Mg692 2.081 . S
O707 Mg688 1.986 1_655 S
O707 C694 1.307 . S
O708 C686 1.264 . S
O708 Mg692 2.023 1_655 S
O709 C685 1.244 . S
O709 Mg693 1.942 . S
O710 C686 1.273 . S
O710 Mg693 1.955 1_655 S
O711 C684 1.312 . S
O711 Mg687 2.291 . S
O711 Mg690 2.114 . S
O712 C684 1.208 . S
O712 Mg692 2.031 . S
C713 O698 1.264 . S
C713 O700 1.273 . S
C714 O695 1.191 . S
C714 O697 1.307 . S
C715 O742 1.312 . S
C715 O743 1.208 . S
C716 O737 1.331 . S
C716 O740 1.244 . S
C717 O739 1.264 . S
C717 O741 1.273 . S
Mg718 O720 1.939 . S
Mg718 O727 2.083 . S
Mg718 O729 2.020 1_565 S
Mg718 O733 2.034 . S
Mg718 O742 2.290 1_565 S
Mg719 O720 1.963 . S
Mg719 O730 1.942 . S
Mg719 O731 1.955 1_565 S
Mg719 O738 1.986 . S
O720 Mg718 1.939 . S
O720 Mg719 1.963 . S
O720 Mg721 1.916 1_565 S
Mg721 O720 1.916 1_545 S
Mg721 O722 1.915 . S
Mg721 O726 2.018 . S
Mg721 O732 2.110 1_545 S
Mg721 O736 2.001 1_545 S
Mg721 O742 2.125 . S
O722 Mg721 1.915 . S
O722 Mg723 1.936 . S
O722 Mg724 1.963 . S
Mg723 O722 1.936 . S
Mg723 O732 2.291 1_545 S
Mg723 O737 2.081 . S
Mg723 O739 2.023 1_545 S
Mg723 O743 2.031 . S
Mg724 O722 1.963 . S
Mg724 O728 1.986 . S
Mg724 O740 1.942 . S
Mg724 O741 1.955 1_545 S
C725 O736 1.191 . S
C725 O738 1.307 . S
O726 Mg721 2.018 . S
O726 C745 1.191 . S
O727 Mg718 2.083 . S
O727 C735 1.331 . S
O728 Mg724 1.986 . S
O728 C745 1.307 . S
O729 Mg718 2.020 1_545 S
O729 C744 1.264 . S
O730 Mg719 1.942 . S
O730 C735 1.244 . S
O731 Mg719 1.955 1_545 S
O731 C744 1.273 . S
O732 Mg721 2.110 1_565 S
O732 Mg723 2.291 1_565 S
O732 C734 1.312 . S
O733 Mg718 2.034 . S
O733 C734 1.208 . S
C734 O732 1.312 . S
C734 O733 1.208 . S
C735 O727 1.331 . S
C735 O730 1.244 . S
O736 Mg721 2.001 1_565 S
O736 C725 1.191 . S
O737 C716 1.331 . S
O737 Mg723 2.081 . S
O738 Mg719 1.986 . S
O738 C725 1.307 . S
O739 C717 1.264 . S
O739 Mg723 2.023 1_565 S
O740 C716 1.244 . S
O740 Mg724 1.942 . S
O741 C717 1.273 . S
O741 Mg724 1.955 1_565 S
O742 C715 1.312 . S
O742 Mg718 2.290 1_545 S
O742 Mg721 2.125 . S
O743 C715 1.208 . S
O743 Mg723 2.031 . S
C744 O729 1.264 . S
C744 O731 1.273 . S
C745 O726 1.191 . S
C745 O728 1.307 . S
C746 O773 1.312 . S
C746 O774 1.208 . S
C747 O768 1.331 . S
C747 O771 1.244 . S
C748 O770 1.264 . S
C748 O772 1.273 . S
Mg749 O751 1.936 . S
Mg749 O758 2.081 . S
Mg749 O760 2.023 . S
Mg749 O764 2.031 . S
Mg749 O773 2.291 . S
Mg750 O751 1.963 . S
Mg750 O761 1.942 . S
Mg750 O762 1.955 . S
Mg750 O769 1.986 . S
O751 Mg749 1.936 . S
O751 Mg750 1.963 . S
O751 Mg752 1.915 . S
Mg752 O751 1.915 . S
Mg752 O753 1.915 . S
Mg752 O757 2.013 . S
Mg752 O763 2.114 . S
Mg752 O767 2.013 . S
Mg752 O773 2.114 . S
O753 Mg752 1.915 . S
O753 Mg754 1.936 . S
O753 Mg755 1.963 . S
Mg754 O753 1.936 . S
Mg754 O763 2.291 . S
Mg754 O768 2.081 . S
Mg754 O770 2.023 . S
Mg754 O774 2.031 . S
Mg755 O753 1.963 . S
Mg755 O759 1.986 . S
Mg755 O771 1.942 . S
Mg755 O772 1.955 . S
C756 O767 1.191 . S
C756 O769 1.307 . S
O757 Mg752 2.013 . S
O757 C776 1.191 . S
O758 Mg749 2.081 . S
O758 C766 1.331 . S
O759 Mg755 1.986 . S
O759 C776 1.307 . S
O760 Mg749 2.023 . S
O760 C775 1.264 . S
O761 Mg750 1.942 . S
O761 C766 1.244 . S
O762 Mg750 1.955 . S
O762 C775 1.273 . S
O763 Mg752 2.114 . S
O763 Mg754 2.291 . S
O763 C765 1.312 . S
O764 Mg749 2.031 . S
O764 C765 1.208 . S
C765 O763 1.312 . S
C765 O764 1.208 . S
C766 O758 1.331 . S
C766 O761 1.244 . S
O767 Mg752 2.013 . S
O767 C756 1.191 . S
O768 C747 1.331 . S
O768 Mg754 2.081 . S
O769 Mg750 1.986 . S
O769 C756 1.307 . S
O770 C748 1.264 . S
O770 Mg754 2.023 . S
O771 C747 1.244 . S
O771 Mg755 1.942 . S
O772 C748 1.273 . S
O772 Mg755 1.955 . S
O773 C746 1.312 . S
O773 Mg749 2.291 . S
O773 Mg752 2.114 . S
O774 C746 1.208 . S
O774 Mg754 2.031 . S
C775 O760 1.264 . S
C775 O762 1.273 . S
C776 O757 1.191 . S
C776 O759 1.307 . S
C777 C778 1.349 . S
C777 C779 1.327 . S
C777 H802 0.950 . S
C778 C777 1.349 . S
C778 C794 1.349 . S
C779 C777 1.327 . S
C779 C798 1.429 . S
C779 H803 0.950 . S
C780 C797 1.574 . S
C780 C799 1.368 . S
C780 H804 0.949 . S
H781 C785 0.949 . S
C782 C783 1.349 . S
C782 C784 1.327 . S
C782 H805 0.950 . S
C783 C782 1.349 . S
C783 C795 1.349 . S
C784 C782 1.327 . S
C784 C800 1.429 . S
C784 H806 0.950 . S
C785 H781 0.949 . S
C785 C793 1.574 . S
C785 C801 1.368 . S
H786 C794 0.950 . S
H787 C792 0.950 . S
H788 C793 0.949 . S
H789 C795 0.950 . S
H790 C796 0.950 . S
H791 C797 0.949 . S
C792 H787 0.950 . S
C792 C794 1.327 . S
C792 C798 1.429 . S
C793 C785 1.574 . S
C793 H788 0.949 . S
C793 C799 1.368 . S
C794 C778 1.349 . S
C794 H786 0.950 . S
C794 C792 1.327 . S
C795 C783 1.349 . S
C795 H789 0.950 . S
C795 C796 1.327 . S
C796 H790 0.950 . S
C796 C795 1.327 . S
C796 C800 1.429 . S
C797 C780 1.574 . S
C797 H791 0.949 . S
C797 C801 1.368 . S
C798 C779 1.429 . S
C798 C792 1.429 . S
C798 C799 1.523 . S
C799 C780 1.368 . S
C799 C793 1.368 . S
C799 C798 1.523 . S
C800 C784 1.429 . S
C800 C796 1.429 . S
C800 C801 1.523 . S
C801 C785 1.368 . S
C801 C797 1.368 . S
C801 C800 1.523 . S
H802 C777 0.950 . S
H803 C779 0.950 . S
H804 C780 0.949 . S
H805 C782 0.950 . S
H806 C784 0.950 . S
C807 C808 1.349 . S
C807 C809 1.327 . S
C807 H832 0.950 . S
C808 C807 1.349 . S
C808 C824 1.349 . S
C809 C807 1.327 . S
C809 C828 1.429 . S
C809 H833 0.950 . S
C810 C827 1.574 . S
C810 C829 1.368 . S
C810 H834 0.949 . S
H811 C815 0.949 . S
C812 C813 1.349 . S
C812 C814 1.327 . S
C812 H835 0.950 . S
C813 C812 1.349 . S
C813 C825 1.349 . S
C814 C812 1.327 . S
C814 C830 1.429 . S
C814 H836 0.950 . S
C815 H811 0.949 . S
C815 C823 1.574 . S
C815 C831 1.368 . S
H816 C824 0.950 . S
H817 C822 0.950 . S
H818 C823 0.949 . S
H819 C825 0.950 . S
H820 C826 0.950 . S
H821 C827 0.949 . S
C822 H817 0.950 . S
C822 C824 1.327 . S
C822 C828 1.429 . S
C823 C815 1.574 . S
C823 H818 0.949 . S
C823 C829 1.368 . S
C824 C808 1.349 . S
C824 H816 0.950 . S
C824 C822 1.327 . S
C825 C813 1.349 . S
C825 H819 0.950 . S
C825 C826 1.327 . S
C826 H820 0.950 . S
C826 C825 1.327 . S
C826 C830 1.429 . S
C827 C810 1.574 . S
C827 H821 0.949 . S
C827 C831 1.368 . S
C828 C809 1.429 . S
C828 C822 1.429 . S
C828 C829 1.523 . S
C829 C810 1.368 . S
C829 C823 1.368 . S
C829 C828 1.523 . S
C830 C814 1.429 . S
C830 C826 1.429 . S
C830 C831 1.523 . S
C831 C815 1.368 . S
C831 C827 1.368 . S
C831 C830 1.523 . S
H832 C807 0.950 . S
H833 C809 0.950 . S
H834 C810 0.949 . S
H835 C812 0.950 . S
H836 C814 0.950 . S
C837 C838 1.349 . S
C837 C839 1.327 . S
C837 H862 0.950 . S
C838 C837 1.349 . S
C838 C854 1.349 . S
C839 C837 1.327 . S
C839 C858 1.429 . S
C839 H863 0.950 . S
C840 C857 1.574 . S
C840 C859 1.368 . S
C840 H864 0.949 . S
H841 C845 0.949 . S
C842 C843 1.349 . S
C842 C844 1.327 . S
C842 H865 0.950 . S
C843 C842 1.349 . S
C843 C855 1.349 . S
C844 C842 1.327 . S
C844 C860 1.429 . S
C844 H866 0.950 . S
C845 H841 0.949 . S
C845 C853 1.574 . S
C845 C861 1.368 . S
H846 C854 0.950 . S
H847 C852 0.950 . S
H848 C853 0.949 . S
H849 C855 0.950 . S
H850 C856 0.950 . S
H851 C857 0.949 . S
C852 H847 0.950 . S
C852 C854 1.327 . S
C852 C858 1.429 . S
C853 C845 1.574 . S
C853 H848 0.949 . S
C853 C859 1.368 . S
C854 C838 1.349 . S
C854 H846 0.950 . S
C854 C852 1.327 . S
C855 C843 1.349 . S
C855 H849 0.950 . S
C855 C856 1.327 . S
C856 H850 0.950 . S
C856 C855 1.327 . S
C856 C860 1.429 . S
C857 C840 1.574 . S
C857 H851 0.949 . S
C857 C861 1.368 . S
C858 C839 1.429 . S
C858 C852 1.429 . S
C858 C859 1.523 . S
C859 C840 1.368 . S
C859 C853 1.368 . S
C859 C858 1.523 . S
C860 C844 1.429 . S
C860 C856 1.429 . S
C860 C861 1.523 . S
C861 C845 1.368 . S
C861 C857 1.368 . S
C861 C860 1.523 . S
H862 C837 0.950 . S
H863 C839 0.950 . S
H864 C840 0.949 . S
H865 C842 0.950 . S
H866 C844 0.950 . S
C867 C868 1.349 . S
C867 C869 1.327 . S
C867 H892 0.950 . S
C868 C867 1.349 . S
C868 C884 1.349 . S
C869 C867 1.327 . S
C869 C888 1.429 . S
C869 H893 0.950 . S
C870 C887 1.574 . S
C870 C889 1.368 . S
C870 H894 0.949 . S
H871 C875 0.949 . S
C872 C873 1.349 . S
C872 C874 1.327 . S
C872 H895 0.950 . S
C873 C872 1.349 . S
C873 C885 1.349 . S
C874 C872 1.327 . S
C874 C890 1.429 . S
C874 H896 0.950 . S
C875 H871 0.949 . S
C875 C883 1.574 . S
C875 C891 1.368 . S
H876 C884 0.950 . S
H877 C882 0.950 . S
H878 C883 0.949 . S
H879 C885 0.950 . S
H880 C886 0.950 . S
H881 C887 0.949 . S
C882 H877 0.950 . S
C882 C884 1.327 . S
C882 C888 1.429 . S
C883 C875 1.574 . S
C883 H878 0.949 . S
C883 C889 1.368 . S
C884 C868 1.349 . S
C884 H876 0.950 . S
C884 C882 1.327 . S
C885 C873 1.349 . S
C885 H879 0.950 . S
C885 C886 1.327 . S
C886 H880 0.950 . S
C886 C885 1.327 . S
C886 C890 1.429 . S
C887 C870 1.574 . S
C887 H881 0.949 . S
C887 C891 1.368 . S
C888 C869 1.429 . S
C888 C882 1.429 . S
C888 C889 1.523 . S
C889 C870 1.368 . S
C889 C883 1.368 . S
C889 C888 1.523 . S
C890 C874 1.429 . S
C890 C886 1.429 . S
C890 C891 1.523 . S
C891 C875 1.368 . S
C891 C887 1.368 . S
C891 C890 1.523 . S
H892 C867 0.950 . S
H893 C869 0.950 . S
H894 C870 0.949 . S
H895 C872 0.950 . S
H896 C874 0.950 . S
C897 C898 1.349 . S
C897 C899 1.327 . S
C897 H922 0.950 . S
C898 C897 1.349 . S
C898 C914 1.349 . S
C899 C897 1.327 . S
C899 C918 1.429 . S
C899 H923 0.950 . S
C900 C917 1.574 . S
C900 C919 1.368 . S
C900 H924 0.949 . S
H901 C905 0.949 . S
C902 C903 1.349 . S
C902 C904 1.327 . S
C902 H925 0.950 . S
C903 C902 1.349 . S
C903 C915 1.349 . S
C904 C902 1.327 . S
C904 C920 1.429 . S
C904 H926 0.950 . S
C905 H901 0.949 . S
C905 C913 1.574 . S
C905 C921 1.368 . S
H906 C914 0.950 . S
H907 C912 0.950 . S
H908 C913 0.949 . S
H909 C915 0.950 . S
H910 C916 0.950 . S
H911 C917 0.949 . S
C912 H907 0.950 . S
C912 C914 1.327 . S
C912 C918 1.429 . S
C913 C905 1.574 . S
C913 H908 0.949 . S
C913 C919 1.368 . S
C914 C898 1.349 . S
C914 H906 0.950 . S
C914 C912 1.327 . S
C915 C903 1.349 . S
C915 H909 0.950 . S
C915 C916 1.327 . S
C916 H910 0.950 . S
C916 C915 1.327 . S
C916 C920 1.429 . S
C917 C900 1.574 . S
C917 H911 0.949 . S
C917 C921 1.368 . S
C918 C899 1.429 . S
C918 C912 1.429 . S
C918 C919 1.523 . S
C919 C900 1.368 . S
C919 C913 1.368 . S
C919 C918 1.523 . S
C920 C904 1.429 . S
C920 C916 1.429 . S
C920 C921 1.523 . S
C921 C905 1.368 . S
C921 C917 1.368 . S
C921 C920 1.523 . S
H922 C897 0.950 . S
H923 C899 0.950 . S
H924 C900 0.949 . S
H925 C902 0.950 . S
H926 C904 0.950 . S
C927 C928 1.349 . S
C927 C929 1.327 . S
C927 H952 0.950 . S
C928 C927 1.349 . S
C928 C944 1.349 . S
C929 C927 1.327 . S
C929 C948 1.429 . S
C929 H953 0.950 . S
C930 C947 1.574 . S
C930 C949 1.368 . S
C930 H954 0.949 . S
H931 C935 0.949 . S
C932 C933 1.349 . S
C932 C934 1.327 . S
C932 H955 0.950 . S
C933 C932 1.349 . S
C933 C945 1.349 . S
C934 C932 1.327 . S
C934 C950 1.429 . S
C934 H956 0.950 . S
C935 H931 0.949 . S
C935 C943 1.574 . S
C935 C951 1.368 . S
H936 C944 0.950 . S
H937 C942 0.950 . S
H938 C943 0.949 . S
H939 C945 0.950 . S
H940 C946 0.950 . S
H941 C947 0.949 . S
C942 H937 0.950 . S
C942 C944 1.327 . S
C942 C948 1.429 . S
C943 C935 1.574 . S
C943 H938 0.949 . S
C943 C949 1.368 . S
C944 C928 1.349 . S
C944 H936 0.950 . S
C944 C942 1.327 . S
C945 C933 1.349 . S
C945 H939 0.950 . S
C945 C946 1.327 . S
C946 H940 0.950 . S
C946 C945 1.327 . S
C946 C950 1.429 . S
C947 C930 1.574 . S
C947 H941 0.949 . S
C947 C951 1.368 . S
C948 C929 1.429 . S
C948 C942 1.429 . S
C948 C949 1.523 . S
C949 C930 1.368 . S
C949 C943 1.368 . S
C949 C948 1.523 . S
C950 C934 1.429 . S
C950 C946 1.429 . S
C950 C951 1.523 . S
C951 C935 1.368 . S
C951 C947 1.368 . S
C951 C950 1.523 . S
H952 C927 0.950 . S
H953 C929 0.950 . S
H954 C930 0.949 . S
H955 C932 0.950 . S
H956 C934 0.950 . S
C957 C958 1.349 . S
C957 C959 1.327 . S
C957 H982 0.950 . S
C958 C957 1.349 . S
C958 C974 1.349 . S
C959 C957 1.327 . S
C959 C978 1.429 . S
C959 H983 0.950 . S
C960 C977 1.574 . S
C960 C979 1.368 . S
C960 H984 0.949 . S
H961 C965 0.949 . S
C962 C963 1.349 . S
C962 C964 1.327 . S
C962 H985 0.950 . S
C963 C962 1.349 . S
C963 C975 1.349 . S
C964 C962 1.327 . S
C964 C980 1.429 . S
C964 H986 0.950 . S
C965 H961 0.949 . S
C965 C973 1.574 . S
C965 C981 1.368 . S
H966 C974 0.950 . S
H967 C972 0.950 . S
H968 C973 0.949 . S
H969 C975 0.950 . S
H970 C976 0.950 . S
H971 C977 0.949 . S
C972 H967 0.950 . S
C972 C974 1.327 . S
C972 C978 1.429 . S
C973 C965 1.574 . S
C973 H968 0.949 . S
C973 C979 1.368 . S
C974 C958 1.349 . S
C974 H966 0.950 . S
C974 C972 1.327 . S
C975 C963 1.349 . S
C975 H969 0.950 . S
C975 C976 1.327 . S
C976 H970 0.950 . S
C976 C975 1.327 . S
C976 C980 1.429 . S
C977 C960 1.574 . S
C977 H971 0.949 . S
C977 C981 1.368 . S
C978 C959 1.429 . S
C978 C972 1.429 . S
C978 C979 1.523 . S
C979 C960 1.368 . S
C979 C973 1.368 . S
C979 C978 1.523 . S
C980 C964 1.429 . S
C980 C976 1.429 . S
C980 C981 1.523 . S
C981 C965 1.368 . S
C981 C977 1.368 . S
C981 C980 1.523 . S
H982 C957 0.950 . S
H983 C959 0.950 . S
H984 C960 0.949 . S
H985 C962 0.950 . S
H986 C964 0.950 . S
C987 C988 1.349 . S
C987 C989 1.327 . S
C987 H1012 0.950 . S
C988 C987 1.349 . S
C988 C1004 1.349 . S
C989 C987 1.327 . S
C989 C1008 1.429 . S
C989 H1013 0.950 . S
C990 C1007 1.574 . S
C990 C1009 1.368 . S
C990 H1014 0.949 . S
H991 C995 0.949 . S
C992 C993 1.349 . S
C992 C994 1.327 . S
C992 H1015 0.950 . S
C993 C992 1.349 . S
C993 C1005 1.349 . S
C994 C992 1.327 . S
C994 C1010 1.429 . S
C994 H1016 0.950 . S
C995 H991 0.949 . S
C995 C1003 1.574 . S
C995 C1011 1.368 . S
H996 C1004 0.950 . S
H997 C1002 0.950 . S
H998 C1003 0.949 . S
H999 C1005 0.950 . S
H1000 C1006 0.950 . S
H1001 C1007 0.949 . S
C1002 H997 0.950 . S
C1002 C1004 1.327 . S
C1002 C1008 1.429 . S
C1003 C995 1.574 . S
C1003 H998 0.949 . S
C1003 C1009 1.368 . S
C1004 C988 1.349 . S
C1004 H996 0.950 . S
C1004 C1002 1.327 . S
C1005 C993 1.349 . S
C1005 H999 0.950 . S
C1005 C1006 1.327 . S
C1006 H1000 0.950 . S
C1006 C1005 1.327 . S
C1006 C1010 1.429 . S
C1007 C990 1.574 . S
C1007 H1001 0.949 . S
C1007 C1011 1.368 . S
C1008 C989 1.429 . S
C1008 C1002 1.429 . S
C1008 C1009 1.523 . S
C1009 C990 1.368 . S
C1009 C1003 1.368 . S
C1009 C1008 1.523 . S
C1010 C994 1.429 . S
C1010 C1006 1.429 . S
C1010 C1011 1.523 . S
C1011 C995 1.368 . S
C1011 C1007 1.368 . S
C1011 C1010 1.523 . S
H1012 C987 0.950 . S
H1013 C989 0.950 . S
H1014 C990 0.949 . S
H1015 C992 0.950 . S
H1016 C994 0.950 . S
C1017 C1018 1.349 . S
C1017 C1019 1.327 . S
C1017 H1042 0.950 . S
C1018 C1017 1.349 . S
C1018 C1034 1.349 . S
C1019 C1017 1.327 . S
C1019 C1038 1.429 . S
C1019 H1043 0.950 . S
C1020 C1037 1.574 . S
C1020 C1039 1.368 . S
C1020 H1044 0.949 . S
H1021 C1025 0.949 . S
C1022 C1023 1.349 . S
C1022 C1024 1.327 . S
C1022 H1045 0.950 . S
C1023 C1022 1.349 . S
C1023 C1035 1.349 . S
C1024 C1022 1.327 . S
C1024 C1040 1.429 . S
C1024 H1046 0.950 . S
C1025 H1021 0.949 . S
C1025 C1033 1.574 . S
C1025 C1041 1.368 . S
H1026 C1034 0.950 . S
H1027 C1032 0.950 . S
H1028 C1033 0.949 . S
H1029 C1035 0.950 . S
H1030 C1036 0.950 . S
H1031 C1037 0.949 . S
C1032 H1027 0.950 . S
C1032 C1034 1.327 . S
C1032 C1038 1.429 . S
C1033 C1025 1.574 . S
C1033 H1028 0.949 . S
C1033 C1039 1.368 . S
C1034 C1018 1.349 . S
C1034 H1026 0.950 . S
C1034 C1032 1.327 . S
C1035 C1023 1.349 . S
C1035 H1029 0.950 . S
C1035 C1036 1.327 . S
C1036 H1030 0.950 . S
C1036 C1035 1.327 . S
C1036 C1040 1.429 . S
C1037 C1020 1.574 . S
C1037 H1031 0.949 . S
C1037 C1041 1.368 . S
C1038 C1019 1.429 . S
C1038 C1032 1.429 . S
C1038 C1039 1.523 . S
C1039 C1020 1.368 . S
C1039 C1033 1.368 . S
C1039 C1038 1.523 . S
C1040 C1024 1.429 . S
C1040 C1036 1.429 . S
C1040 C1041 1.523 . S
C1041 C1025 1.368 . S
C1041 C1037 1.368 . S
C1041 C1040 1.523 . S
H1042 C1017 0.950 . S
H1043 C1019 0.950 . S
H1044 C1020 0.949 . S
H1045 C1022 0.950 . S
H1046 C1024 0.950 . S
C1047 C1048 1.349 . S
C1047 C1049 1.327 . S
C1047 H1072 0.950 . S
C1048 C1047 1.349 . S
C1048 C1064 1.349 . S
C1049 C1047 1.327 . S
C1049 C1068 1.429 . S
C1049 H1073 0.950 . S
C1050 C1067 1.574 . S
C1050 C1069 1.368 . S
C1050 H1074 0.949 . S
H1051 C1055 0.949 . S
C1052 C1053 1.349 . S
C1052 C1054 1.327 . S
C1052 H1075 0.950 . S
C1053 C1052 1.349 . S
C1053 C1065 1.349 . S
C1054 C1052 1.327 . S
C1054 C1070 1.429 . S
C1054 H1076 0.950 . S
C1055 H1051 0.949 . S
C1055 C1063 1.574 . S
C1055 C1071 1.368 . S
H1056 C1064 0.950 . S
H1057 C1062 0.950 . S
H1058 C1063 0.949 . S
H1059 C1065 0.950 . S
H1060 C1066 0.950 . S
H1061 C1067 0.949 . S
C1062 H1057 0.950 . S
C1062 C1064 1.327 . S
C1062 C1068 1.429 . S
C1063 C1055 1.574 . S
C1063 H1058 0.949 . S
C1063 C1069 1.368 . S
C1064 C1048 1.349 . S
C1064 H1056 0.950 . S
C1064 C1062 1.327 . S
C1065 C1053 1.349 . S
C1065 H1059 0.950 . S
C1065 C1066 1.327 . S
C1066 H1060 0.950 . S
C1066 C1065 1.327 . S
C1066 C1070 1.429 . S
C1067 C1050 1.574 . S
C1067 H1061 0.949 . S
C1067 C1071 1.368 . S
C1068 C1049 1.429 . S
C1068 C1062 1.429 . S
C1068 C1069 1.523 . S
C1069 C1050 1.368 . S
C1069 C1063 1.368 . S
C1069 C1068 1.523 . S
C1070 C1054 1.429 . S
C1070 C1066 1.429 . S
C1070 C1071 1.523 . S
C1071 C1055 1.368 . S
C1071 C1067 1.368 . S
C1071 C1070 1.523 . S
H1072 C1047 0.950 . S
H1073 C1049 0.950 . S
H1074 C1050 0.949 . S
H1075 C1052 0.950 . S
H1076 C1054 0.950 . S
C1077 C1078 1.349 . S
C1077 C1079 1.327 . S
C1077 H1102 0.950 . S
C1078 C1077 1.349 . S
C1078 C1094 1.349 . S
C1079 C1077 1.327 . S
C1079 C1098 1.429 . S
C1079 H1103 0.950 . S
C1080 C1097 1.574 . S
C1080 C1099 1.368 . S
C1080 H1104 0.949 . S
H1081 C1085 0.949 . S
C1082 C1083 1.349 . S
C1082 C1084 1.327 . S
C1082 H1105 0.950 . S
C1083 C1082 1.349 . S
C1083 C1095 1.349 . S
C1084 C1082 1.327 . S
C1084 C1100 1.429 . S
C1084 H1106 0.950 . S
C1085 H1081 0.949 . S
C1085 C1093 1.574 . S
C1085 C1101 1.368 . S
H1086 C1094 0.950 . S
H1087 C1092 0.950 . S
H1088 C1093 0.949 . S
H1089 C1095 0.950 . S
H1090 C1096 0.950 . S
H1091 C1097 0.949 . S
C1092 H1087 0.950 . S
C1092 C1094 1.327 . S
C1092 C1098 1.429 . S
C1093 C1085 1.574 . S
C1093 H1088 0.949 . S
C1093 C1099 1.368 . S
C1094 C1078 1.349 . S
C1094 H1086 0.950 . S
C1094 C1092 1.327 . S
C1095 C1083 1.349 . S
C1095 H1089 0.950 . S
C1095 C1096 1.327 . S
C1096 H1090 0.950 . S
C1096 C1095 1.327 . S
C1096 C1100 1.429 . S
C1097 C1080 1.574 . S
C1097 H1091 0.949 . S
C1097 C1101 1.368 . S
C1098 C1079 1.429 . S
C1098 C1092 1.429 . S
C1098 C1099 1.523 . S
C1099 C1080 1.368 . S
C1099 C1093 1.368 . S
C1099 C1098 1.523 . S
C1100 C1084 1.429 . S
C1100 C1096 1.429 . S
C1100 C1101 1.523 . S
C1101 C1085 1.368 . S
C1101 C1097 1.368 . S
C1101 C1100 1.523 . S
H1102 C1077 0.950 . S
H1103 C1079 0.950 . S
H1104 C1080 0.949 . S
H1105 C1082 0.950 . S
H1106 C1084 0.950 . S
C1107 C1108 1.349 . S
C1107 C1109 1.327 . S
C1107 H1132 0.950 . S
C1108 C1107 1.349 . S
C1108 C1124 1.349 . S
C1109 C1107 1.327 . S
C1109 C1128 1.429 . S
C1109 H1133 0.950 . S
C1110 C1127 1.574 . S
C1110 C1129 1.368 . S
C1110 H1134 0.949 . S
H1111 C1115 0.949 . S
C1112 C1113 1.349 . S
C1112 C1114 1.327 . S
C1112 H1135 0.950 . S
C1113 C1112 1.349 . S
C1113 C1125 1.349 . S
C1114 C1112 1.327 . S
C1114 C1130 1.429 . S
C1114 H1136 0.950 . S
C1115 H1111 0.949 . S
C1115 C1123 1.574 . S
C1115 C1131 1.368 . S
H1116 C1124 0.950 . S
H1117 C1122 0.950 . S
H1118 C1123 0.949 . S
H1119 C1125 0.950 . S
H1120 C1126 0.950 . S
H1121 C1127 0.949 . S
C1122 H1117 0.950 . S
C1122 C1124 1.327 . S
C1122 C1128 1.429 . S
C1123 C1115 1.574 . S
C1123 H1118 0.949 . S
C1123 C1129 1.368 . S
C1124 C1108 1.349 . S
C1124 H1116 0.950 . S
C1124 C1122 1.327 . S
C1125 C1113 1.349 . S
C1125 H1119 0.950 . S
C1125 C1126 1.327 . S
C1126 H1120 0.950 . S
C1126 C1125 1.327 . S
C1126 C1130 1.429 . S
C1127 C1110 1.574 . S
C1127 H1121 0.949 . S
C1127 C1131 1.368 . S
C1128 C1109 1.429 . S
C1128 C1122 1.429 . S
C1128 C1129 1.523 . S
C1129 C1110 1.368 . S
C1129 C1123 1.368 . S
C1129 C1128 1.523 . S
C1130 C1114 1.429 . S
C1130 C1126 1.429 . S
C1130 C1131 1.523 . S
C1131 C1115 1.368 . S
C1131 C1127 1.368 . S
C1131 C1130 1.523 . S
H1132 C1107 0.950 . S
H1133 C1109 0.950 . S
H1134 C1110 0.949 . S
H1135 C1112 0.950 . S
H1136 C1114 0.950 . S
C1137 C1138 1.349 . S
C1137 C1139 1.327 . S
C1137 H1162 0.950 . S
C1138 C1137 1.349 . S
C1138 C1154 1.349 . S
C1139 C1137 1.327 . S
C1139 C1158 1.429 . S
C1139 H1163 0.950 . S
C1140 C1157 1.574 . S
C1140 C1159 1.368 . S
C1140 H1164 0.949 . S
H1141 C1145 0.949 . S
C1142 C1143 1.349 . S
C1142 C1144 1.327 . S
C1142 H1165 0.950 . S
C1143 C1142 1.349 . S
C1143 C1155 1.349 . S
C1144 C1142 1.327 . S
C1144 C1160 1.429 . S
C1144 H1166 0.950 . S
C1145 H1141 0.949 . S
C1145 C1153 1.574 . S
C1145 C1161 1.368 . S
H1146 C1154 0.950 . S
H1147 C1152 0.950 . S
H1148 C1153 0.949 . S
H1149 C1155 0.950 . S
H1150 C1156 0.950 . S
H1151 C1157 0.949 . S
C1152 H1147 0.950 . S
C1152 C1154 1.327 . S
C1152 C1158 1.429 . S
C1153 C1145 1.574 . S
C1153 H1148 0.949 . S
C1153 C1159 1.368 . S
C1154 C1138 1.349 . S
C1154 H1146 0.950 . S
C1154 C1152 1.327 . S
C1155 C1143 1.349 . S
C1155 H1149 0.950 . S
C1155 C1156 1.327 . S
C1156 H1150 0.950 . S
C1156 C1155 1.327 . S
C1156 C1160 1.429 . S
C1157 C1140 1.574 . S
C1157 H1151 0.949 . S
C1157 C1161 1.368 . S
C1158 C1139 1.429 . S
C1158 C1152 1.429 . S
C1158 C1159 1.523 . S
C1159 C1140 1.368 . S
C1159 C1153 1.368 . S
C1159 C1158 1.523 . S
C1160 C1144 1.429 . S
C1160 C1156 1.429 . S
C1160 C1161 1.523 . S
C1161 C1145 1.368 . S
C1161 C1157 1.368 . S
C1161 C1160 1.523 . S
H1162 C1137 0.950 . S
H1163 C1139 0.950 . S
H1164 C1140 0.949 . S
H1165 C1142 0.950 . S
H1166 C1144 0.950 . S
C1167 C1168 1.349 . S
C1167 C1169 1.327 . S
C1167 H1192 0.950 . S
C1168 C1167 1.349 . S
C1168 C1184 1.349 . S
C1169 C1167 1.327 . S
C1169 C1188 1.429 . S
C1169 H1193 0.950 . S
C1170 C1187 1.574 . S
C1170 C1189 1.368 . S
C1170 H1194 0.949 . S
H1171 C1175 0.949 . S
C1172 C1173 1.349 . S
C1172 C1174 1.327 . S
C1172 H1195 0.950 . S
C1173 C1172 1.349 . S
C1173 C1185 1.349 . S
C1174 C1172 1.327 . S
C1174 C1190 1.429 . S
C1174 H1196 0.950 . S
C1175 H1171 0.949 . S
C1175 C1183 1.574 . S
C1175 C1191 1.368 . S
H1176 C1184 0.950 . S
H1177 C1182 0.950 . S
H1178 C1183 0.949 . S
H1179 C1185 0.950 . S
H1180 C1186 0.950 . S
H1181 C1187 0.949 . S
C1182 H1177 0.950 . S
C1182 C1184 1.327 . S
C1182 C1188 1.429 . S
C1183 C1175 1.574 . S
C1183 H1178 0.949 . S
C1183 C1189 1.368 . S
C1184 C1168 1.349 . S
C1184 H1176 0.950 . S
C1184 C1182 1.327 . S
C1185 C1173 1.349 . S
C1185 H1179 0.950 . S
C1185 C1186 1.327 . S
C1186 H1180 0.950 . S
C1186 C1185 1.327 . S
C1186 C1190 1.429 . S
C1187 C1170 1.574 . S
C1187 H1181 0.949 . S
C1187 C1191 1.368 . S
C1188 C1169 1.429 . S
C1188 C1182 1.429 . S
C1188 C1189 1.523 . S
C1189 C1170 1.368 . S
C1189 C1183 1.368 . S
C1189 C1188 1.523 . S
C1190 C1174 1.429 . S
C1190 C1186 1.429 . S
C1190 C1191 1.523 . S
C1191 C1175 1.368 . S
C1191 C1187 1.368 . S
C1191 C1190 1.523 . S
H1192 C1167 0.950 . S
H1193 C1169 0.950 . S
H1194 C1170 0.949 . S
H1195 C1172 0.950 . S
H1196 C1174 0.950 . S
C1197 C1198 1.349 . S
C1197 C1199 1.327 . S
C1197 H1222 0.950 . S
C1198 C1197 1.349 . S
C1198 C1214 1.349 . S
C1199 C1197 1.327 . S
C1199 C1218 1.429 . S
C1199 H1223 0.950 . S
C1200 C1217 1.574 . S
C1200 C1219 1.368 . S
C1200 H1224 0.949 . S
H1201 C1205 0.949 . S
C1202 C1203 1.349 . S
C1202 C1204 1.327 . S
C1202 H1225 0.950 . S
C1203 C1202 1.349 . S
C1203 C1215 1.349 . S
C1204 C1202 1.327 . S
C1204 C1220 1.429 . S
C1204 H1226 0.950 . S
C1205 H1201 0.949 . S
C1205 C1213 1.574 . S
C1205 C1221 1.368 . S
H1206 C1214 0.950 . S
H1207 C1212 0.950 . S
H1208 C1213 0.949 . S
H1209 C1215 0.950 . S
H1210 C1216 0.950 . S
H1211 C1217 0.949 . S
C1212 H1207 0.950 . S
C1212 C1214 1.327 . S
C1212 C1218 1.429 . S
C1213 C1205 1.574 . S
C1213 H1208 0.949 . S
C1213 C1219 1.368 . S
C1214 C1198 1.349 . S
C1214 H1206 0.950 . S
C1214 C1212 1.327 . S
C1215 C1203 1.349 . S
C1215 H1209 0.950 . S
C1215 C1216 1.327 . S
C1216 H1210 0.950 . S
C1216 C1215 1.327 . S
C1216 C1220 1.429 . S
C1217 C1200 1.574 . S
C1217 H1211 0.949 . S
C1217 C1221 1.368 . S
C1218 C1199 1.429 . S
C1218 C1212 1.429 . S
C1218 C1219 1.523 . S
C1219 C1200 1.368 . S
C1219 C1213 1.368 . S
C1219 C1218 1.523 . S
C1220 C1204 1.429 . S
C1220 C1216 1.429 . S
C1220 C1221 1.523 . S
C1221 C1205 1.368 . S
C1221 C1217 1.368 . S
C1221 C1220 1.523 . S
H1222 C1197 0.950 . S
H1223 C1199 0.950 . S
H1224 C1200 0.949 . S
H1225 C1202 0.950 . S
H1226 C1204 0.950 . S
C1227 C1228 1.349 . S
C1227 C1229 1.327 . S
C1227 H1252 0.950 . S
C1228 C1227 1.349 . S
C1228 C1244 1.349 . S
C1229 C1227 1.327 . S
C1229 C1248 1.429 . S
C1229 H1253 0.950 . S
C1230 C1247 1.574 . S
C1230 C1249 1.368 . S
C1230 H1254 0.949 . S
H1231 C1235 0.949 . S
C1232 C1233 1.349 . S
C1232 C1234 1.327 . S
C1232 H1255 0.950 . S
C1233 C1232 1.349 . S
C1233 C1245 1.349 . S
C1234 C1232 1.327 . S
C1234 C1250 1.429 . S
C1234 H1256 0.950 . S
C1235 H1231 0.949 . S
C1235 C1243 1.574 . S
C1235 C1251 1.368 . S
H1236 C1244 0.950 . S
H1237 C1242 0.950 . S
H1238 C1243 0.949 . S
H1239 C1245 0.950 . S
H1240 C1246 0.950 . S
H1241 C1247 0.949 . S
C1242 H1237 0.950 . S
C1242 C1244 1.327 . S
C1242 C1248 1.429 . S
C1243 C1235 1.574 . S
C1243 H1238 0.949 . S
C1243 C1249 1.368 . S
C1244 C1228 1.349 . S
C1244 H1236 0.950 . S
C1244 C1242 1.327 . S
C1245 C1233 1.349 . S
C1245 H1239 0.950 . S
C1245 C1246 1.327 . S
C1246 H1240 0.950 . S
C1246 C1245 1.327 . S
C1246 C1250 1.429 . S
C1247 C1230 1.574 . S
C1247 H1241 0.949 . S
C1247 C1251 1.368 . S
C1248 C1229 1.429 . S
C1248 C1242 1.429 . S
C1248 C1249 1.523 . S
C1249 C1230 1.368 . S
C1249 C1243 1.368 . S
C1249 C1248 1.523 . S
C1250 C1234 1.429 . S
C1250 C1246 1.429 . S
C1250 C1251 1.523 . S
C1251 C1235 1.368 . S
C1251 C1247 1.368 . S
C1251 C1250 1.523 . S
H1252 C1227 0.950 . S
H1253 C1229 0.950 . S
H1254 C1230 0.949 . S
H1255 C1232 0.950 . S
H1256 C1234 0.950 . S
C1257 C1258 1.349 . S
C1257 C1259 1.327 . S
C1257 H1282 0.950 . S
C1258 C1257 1.349 . S
C1258 C1274 1.349 . S
C1259 C1257 1.327 . S
C1259 C1278 1.429 . S
C1259 H1283 0.950 . S
C1260 C1277 1.574 . S
C1260 C1279 1.368 . S
C1260 H1284 0.949 . S
H1261 C1265 0.949 . S
C1262 C1263 1.349 . S
C1262 C1264 1.327 . S
C1262 H1285 0.950 . S
C1263 C1262 1.349 . S
C1263 C1275 1.349 . S
C1264 C1262 1.327 . S
C1264 C1280 1.429 . S
C1264 H1286 0.950 . S
C1265 H1261 0.949 . S
C1265 C1273 1.574 . S
C1265 C1281 1.368 . S
H1266 C1274 0.950 . S
H1267 C1272 0.950 . S
H1268 C1273 0.949 . S
H1269 C1275 0.950 . S
H1270 C1276 0.950 . S
H1271 C1277 0.949 . S
C1272 H1267 0.950 . S
C1272 C1274 1.327 . S
C1272 C1278 1.429 . S
C1273 C1265 1.574 . S
C1273 H1268 0.949 . S
C1273 C1279 1.368 . S
C1274 C1258 1.349 . S
C1274 H1266 0.950 . S
C1274 C1272 1.327 . S
C1275 C1263 1.349 . S
C1275 H1269 0.950 . S
C1275 C1276 1.327 . S
C1276 H1270 0.950 . S
C1276 C1275 1.327 . S
C1276 C1280 1.429 . S
C1277 C1260 1.574 . S
C1277 H1271 0.949 . S
C1277 C1281 1.368 . S
C1278 C1259 1.429 . S
C1278 C1272 1.429 . S
C1278 C1279 1.523 . S
C1279 C1260 1.368 . S
C1279 C1273 1.368 . S
C1279 C1278 1.523 . S
C1280 C1264 1.429 . S
C1280 C1276 1.429 . S
C1280 C1281 1.523 . S
C1281 C1265 1.368 . S
C1281 C1277 1.368 . S
C1281 C1280 1.523 . S
H1282 C1257 0.950 . S
H1283 C1259 0.950 . S
H1284 C1260 0.949 . S
H1285 C1262 0.950 . S
H1286 C1264 0.950 . S
C1287 C1288 1.349 . S
C1287 C1289 1.327 . S
C1287 H1312 0.950 . S
C1288 C1287 1.349 . S
C1288 C1304 1.349 . S
C1289 C1287 1.327 . S
C1289 C1308 1.429 . S
C1289 H1313 0.950 . S
C1290 C1307 1.574 . S
C1290 C1309 1.368 . S
C1290 H1314 0.949 . S
H1291 C1295 0.949 . S
C1292 C1293 1.349 . S
C1292 C1294 1.327 . S
C1292 H1315 0.950 . S
C1293 C1292 1.349 . S
C1293 C1305 1.349 . S
C1294 C1292 1.327 . S
C1294 C1310 1.429 . S
C1294 H1316 0.950 . S
C1295 H1291 0.949 . S
C1295 C1303 1.574 . S
C1295 C1311 1.368 . S
H1296 C1304 0.950 . S
H1297 C1302 0.950 . S
H1298 C1303 0.949 . S
H1299 C1305 0.950 . S
H1300 C1306 0.950 . S
H1301 C1307 0.949 . S
C1302 H1297 0.950 . S
C1302 C1304 1.327 . S
C1302 C1308 1.429 . S
C1303 C1295 1.574 . S
C1303 H1298 0.949 . S
C1303 C1309 1.368 . S
C1304 C1288 1.349 . S
C1304 H1296 0.950 . S
C1304 C1302 1.327 . S
C1305 C1293 1.349 . S
C1305 H1299 0.950 . S
C1305 C1306 1.327 . S
C1306 H1300 0.950 . S
C1306 C1305 1.327 . S
C1306 C1310 1.429 . S
C1307 C1290 1.574 . S
C1307 H1301 0.949 . S
C1307 C1311 1.368 . S
C1308 C1289 1.429 . S
C1308 C1302 1.429 . S
C1308 C1309 1.523 . S
C1309 C1290 1.368 . S
C1309 C1303 1.368 . S
C1309 C1308 1.523 . S
C1310 C1294 1.429 . S
C1310 C1306 1.429 . S
C1310 C1311 1.523 . S
C1311 C1295 1.368 . S
C1311 C1307 1.368 . S
C1311 C1310 1.523 . S
H1312 C1287 0.950 . S
H1313 C1289 0.950 . S
H1314 C1290 0.949 . S
H1315 C1292 0.950 . S
H1316 C1294 0.950 . S
C1317 C1318 1.349 . S
C1317 C1319 1.327 . S
C1317 H1342 0.950 . S
C1318 C1317 1.349 . S
C1318 C1334 1.349 . S
C1319 C1317 1.327 . S
C1319 C1338 1.429 . S
C1319 H1343 0.950 . S
C1320 C1337 1.574 . S
C1320 C1339 1.368 . S
C1320 H1344 0.949 . S
H1321 C1325 0.949 . S
C1322 C1323 1.349 . S
C1322 C1324 1.327 . S
C1322 H1345 0.950 . S
C1323 C1322 1.349 . S
C1323 C1335 1.349 . S
C1324 C1322 1.327 . S
C1324 C1340 1.429 . S
C1324 H1346 0.950 . S
C1325 H1321 0.949 . S
C1325 C1333 1.574 . S
C1325 C1341 1.368 . S
H1326 C1334 0.950 . S
H1327 C1332 0.950 . S
H1328 C1333 0.949 . S
H1329 C1335 0.950 . S
H1330 C1336 0.950 . S
H1331 C1337 0.949 . S
C1332 H1327 0.950 . S
C1332 C1334 1.327 . S
C1332 C1338 1.429 . S
C1333 C1325 1.574 . S
C1333 H1328 0.949 . S
C1333 C1339 1.368 . S
C1334 C1318 1.349 . S
C1334 H1326 0.950 . S
C1334 C1332 1.327 . S
C1335 C1323 1.349 . S
C1335 H1329 0.950 . S
C1335 C1336 1.327 . S
C1336 H1330 0.950 . S
C1336 C1335 1.327 . S
C1336 C1340 1.429 . S
C1337 C1320 1.574 . S
C1337 H1331 0.949 . S
C1337 C1341 1.368 . S
C1338 C1319 1.429 . S
C1338 C1332 1.429 . S
C1338 C1339 1.523 . S
C1339 C1320 1.368 . S
C1339 C1333 1.368 . S
C1339 C1338 1.523 . S
C1340 C1324 1.429 . S
C1340 C1336 1.429 . S
C1340 C1341 1.523 . S
C1341 C1325 1.368 . S
C1341 C1337 1.368 . S
C1341 C1340 1.523 . S
H1342 C1317 0.950 . S
H1343 C1319 0.950 . S
H1344 C1320 0.949 . S
H1345 C1322 0.950 . S
H1346 C1324 0.950 . S
C1347 C1348 1.349 . S
C1347 C1349 1.327 . S
C1347 H1372 0.950 . S
C1348 C1347 1.349 . S
C1348 C1364 1.349 . S
C1349 C1347 1.327 . S
C1349 C1368 1.429 . S
C1349 H1373 0.950 . S
C1350 C1367 1.574 . S
C1350 C1369 1.368 . S
C1350 H1374 0.949 . S
H1351 C1355 0.949 . S
C1352 C1353 1.349 . S
C1352 C1354 1.327 . S
C1352 H1375 0.950 . S
C1353 C1352 1.349 . S
C1353 C1365 1.349 . S
C1354 C1352 1.327 . S
C1354 C1370 1.429 . S
C1354 H1376 0.950 . S
C1355 H1351 0.949 . S
C1355 C1363 1.574 . S
C1355 C1371 1.368 . S
H1356 C1364 0.950 . S
H1357 C1362 0.950 . S
H1358 C1363 0.949 . S
H1359 C1365 0.950 . S
H1360 C1366 0.950 . S
H1361 C1367 0.949 . S
C1362 H1357 0.950 . S
C1362 C1364 1.327 . S
C1362 C1368 1.429 . S
C1363 C1355 1.574 . S
C1363 H1358 0.949 . S
C1363 C1369 1.368 . S
C1364 C1348 1.349 . S
C1364 H1356 0.950 . S
C1364 C1362 1.327 . S
C1365 C1353 1.349 . S
C1365 H1359 0.950 . S
C1365 C1366 1.327 . S
C1366 H1360 0.950 . S
C1366 C1365 1.327 . S
C1366 C1370 1.429 . S
C1367 C1350 1.574 . S
C1367 H1361 0.949 . S
C1367 C1371 1.368 . S
C1368 C1349 1.429 . S
C1368 C1362 1.429 . S
C1368 C1369 1.523 . S
C1369 C1350 1.368 . S
C1369 C1363 1.368 . S
C1369 C1368 1.523 . S
C1370 C1354 1.429 . S
C1370 C1366 1.429 . S
C1370 C1371 1.523 . S
C1371 C1355 1.368 . S
C1371 C1367 1.368 . S
C1371 C1370 1.523 . S
H1372 C1347 0.950 . S
H1373 C1349 0.950 . S
H1374 C1350 0.949 . S
H1375 C1352 0.950 . S
H1376 C1354 0.950 . S
C1377 C1378 1.349 . S
C1377 C1379 1.327 . S
C1377 H1402 0.950 . S
C1378 C1377 1.349 . S
C1378 C1394 1.349 . S
C1379 C1377 1.327 . S
C1379 C1398 1.429 . S
C1379 H1403 0.950 . S
C1380 C1397 1.574 . S
C1380 C1399 1.368 . S
C1380 H1404 0.949 . S
H1381 C1385 0.949 . S
C1382 C1383 1.349 . S
C1382 C1384 1.327 . S
C1382 H1405 0.950 . S
C1383 C1382 1.349 . S
C1383 C1395 1.349 . S
C1384 C1382 1.327 . S
C1384 C1400 1.429 . S
C1384 H1406 0.950 . S
C1385 H1381 0.949 . S
C1385 C1393 1.574 . S
C1385 C1401 1.368 . S
H1386 C1394 0.950 . S
H1387 C1392 0.950 . S
H1388 C1393 0.949 . S
H1389 C1395 0.950 . S
H1390 C1396 0.950 . S
H1391 C1397 0.949 . S
C1392 H1387 0.950 . S
C1392 C1394 1.327 . S
C1392 C1398 1.429 . S
C1393 C1385 1.574 . S
C1393 H1388 0.949 . S
C1393 C1399 1.368 . S
C1394 C1378 1.349 . S
C1394 H1386 0.950 . S
C1394 C1392 1.327 . S
C1395 C1383 1.349 . S
C1395 H1389 0.950 . S
C1395 C1396 1.327 . S
C1396 H1390 0.950 . S
C1396 C1395 1.327 . S
C1396 C1400 1.429 . S
C1397 C1380 1.574 . S
C1397 H1391 0.949 . S
C1397 C1401 1.368 . S
C1398 C1379 1.429 . S
C1398 C1392 1.429 . S
C1398 C1399 1.523 . S
C1399 C1380 1.368 . S
C1399 C1393 1.368 . S
C1399 C1398 1.523 . S
C1400 C1384 1.429 . S
C1400 C1396 1.429 . S
C1400 C1401 1.523 . S
C1401 C1385 1.368 . S
C1401 C1397 1.368 . S
C1401 C1400 1.523 . S
H1402 C1377 0.950 . S
H1403 C1379 0.950 . S
H1404 C1380 0.949 . S
H1405 C1382 0.950 . S
H1406 C1384 0.950 . S
C1407 C1408 1.349 . S
C1407 C1409 1.327 . S
C1407 H1432 0.950 . S
C1408 C1407 1.349 . S
C1408 C1424 1.349 . S
C1409 C1407 1.327 . S
C1409 C1428 1.429 . S
C1409 H1433 0.950 . S
C1410 C1427 1.574 . S
C1410 C1429 1.368 . S
C1410 H1434 0.949 . S
H1411 C1415 0.949 . S
C1412 C1413 1.349 . S
C1412 C1414 1.327 . S
C1412 H1435 0.950 . S
C1413 C1412 1.349 . S
C1413 C1425 1.349 . S
C1414 C1412 1.327 . S
C1414 C1430 1.429 . S
C1414 H1436 0.950 . S
C1415 H1411 0.949 . S
C1415 C1423 1.574 . S
C1415 C1431 1.368 . S
H1416 C1424 0.950 . S
H1417 C1422 0.950 . S
H1418 C1423 0.949 . S
H1419 C1425 0.950 . S
H1420 C1426 0.950 . S
H1421 C1427 0.949 . S
C1422 H1417 0.950 . S
C1422 C1424 1.327 . S
C1422 C1428 1.429 . S
C1423 C1415 1.574 . S
C1423 H1418 0.949 . S
C1423 C1429 1.368 . S
C1424 C1408 1.349 . S
C1424 H1416 0.950 . S
C1424 C1422 1.327 . S
C1425 C1413 1.349 . S
C1425 H1419 0.950 . S
C1425 C1426 1.327 . S
C1426 H1420 0.950 . S
C1426 C1425 1.327 . S
C1426 C1430 1.429 . S
C1427 C1410 1.574 . S
C1427 H1421 0.949 . S
C1427 C1431 1.368 . S
C1428 C1409 1.429 . S
C1428 C1422 1.429 . S
C1428 C1429 1.523 . S
C1429 C1410 1.368 . S
C1429 C1423 1.368 . S
C1429 C1428 1.523 . S
C1430 C1414 1.429 . S
C1430 C1426 1.429 . S
C1430 C1431 1.523 . S
C1431 C1415 1.368 . S
C1431 C1427 1.368 . S
C1431 C1430 1.523 . S
H1432 C1407 0.950 . S
H1433 C1409 0.950 . S
H1434 C1410 0.949 . S
H1435 C1412 0.950 . S
H1436 C1414 0.950 . S
C1437 C1438 1.349 . S
C1437 C1439 1.327 . S
C1437 H1462 0.950 . S
C1438 C1437 1.349 . S
C1438 C1454 1.349 . S
C1439 C1437 1.327 . S
C1439 C1458 1.429 . S
C1439 H1463 0.950 . S
C1440 C1457 1.574 . S
C1440 C1459 1.368 . S
C1440 H1464 0.949 . S
H1441 C1445 0.949 . S
C1442 C1443 1.349 . S
C1442 C1444 1.327 . S
C1442 H1465 0.950 . S
C1443 C1442 1.349 . S
C1443 C1455 1.349 . S
C1444 C1442 1.327 . S
C1444 C1460 1.429 . S
C1444 H1466 0.950 . S
C1445 H1441 0.949 . S
C1445 C1453 1.574 . S
C1445 C1461 1.368 . S
H1446 C1454 0.950 . S
H1447 C1452 0.950 . S
H1448 C1453 0.949 . S
H1449 C1455 0.950 . S
H1450 C1456 0.950 . S
H1451 C1457 0.949 . S
C1452 H1447 0.950 . S
C1452 C1454 1.327 . S
C1452 C1458 1.429 . S
C1453 C1445 1.574 . S
C1453 H1448 0.949 . S
C1453 C1459 1.368 . S
C1454 C1438 1.349 . S
C1454 H1446 0.950 . S
C1454 C1452 1.327 . S
C1455 C1443 1.349 . S
C1455 H1449 0.950 . S
C1455 C1456 1.327 . S
C1456 H1450 0.950 . S
C1456 C1455 1.327 . S
C1456 C1460 1.429 . S
C1457 C1440 1.574 . S
C1457 H1451 0.949 . S
C1457 C1461 1.368 . S
C1458 C1439 1.429 . S
C1458 C1452 1.429 . S
C1458 C1459 1.523 . S
C1459 C1440 1.368 . S
C1459 C1453 1.368 . S
C1459 C1458 1.523 . S
C1460 C1444 1.429 . S
C1460 C1456 1.429 . S
C1460 C1461 1.523 . S
C1461 C1445 1.368 . S
C1461 C1457 1.368 . S
C1461 C1460 1.523 . S
H1462 C1437 0.950 . S
H1463 C1439 0.950 . S
H1464 C1440 0.949 . S
H1465 C1442 0.950 . S
H1466 C1444 0.950 . S
C1467 C1468 1.349 . S
C1467 C1469 1.327 . S
C1467 H1492 0.950 . S
C1468 C1467 1.349 . S
C1468 C1484 1.349 . S
C1469 C1467 1.327 . S
C1469 C1488 1.429 . S
C1469 H1493 0.950 . S
C1470 C1487 1.574 . S
C1470 C1489 1.368 . S
C1470 H1494 0.949 . S
H1471 C1475 0.949 . S
C1472 C1473 1.349 . S
C1472 C1474 1.327 . S
C1472 H1495 0.950 . S
C1473 C1472 1.349 . S
C1473 C1485 1.349 . S
C1474 C1472 1.327 . S
C1474 C1490 1.429 . S
C1474 H1496 0.950 . S
C1475 H1471 0.949 . S
C1475 C1483 1.574 . S
C1475 C1491 1.368 . S
H1476 C1484 0.950 . S
H1477 C1482 0.950 . S
H1478 C1483 0.949 . S
H1479 C1485 0.950 . S
H1480 C1486 0.950 . S
H1481 C1487 0.949 . S
C1482 H1477 0.950 . S
C1482 C1484 1.327 . S
C1482 C1488 1.429 . S
C1483 C1475 1.574 . S
C1483 H1478 0.949 . S
C1483 C1489 1.368 . S
C1484 C1468 1.349 . S
C1484 H1476 0.950 . S
C1484 C1482 1.327 . S
C1485 C1473 1.349 . S
C1485 H1479 0.950 . S
C1485 C1486 1.327 . S
C1486 H1480 0.950 . S
C1486 C1485 1.327 . S
C1486 C1490 1.429 . S
C1487 C1470 1.574 . S
C1487 H1481 0.949 . S
C1487 C1491 1.368 . S
C1488 C1469 1.429 . S
C1488 C1482 1.429 . S
C1488 C1489 1.523 . S
C1489 C1470 1.368 . S
C1489 C1483 1.368 . S
C1489 C1488 1.523 . S
C1490 C1474 1.429 . S
C1490 C1486 1.429 . S
C1490 C1491 1.523 . S
C1491 C1475 1.368 . S
C1491 C1487 1.368 . S
C1491 C1490 1.523 . S
H1492 C1467 0.950 . S
H1493 C1469 0.950 . S
H1494 C1470 0.949 . S
H1495 C1472 0.950 . S
H1496 C1474 0.950 . S
C778 C11 1.384 . S
C783 C684 1.712 . S
C808 C125 1.223 . S
C813 C716 1.652 . S
C843 C775 2.140 . S
C838 C239 1.579 . S
C873 C704 1.371 . S
C868 C343 1.181 . S
C898 C485 1.214 . S
C903 C734 1.606 . S
C933 C756 0.993 . S
C928 C571 0.923 . S
C963 C725 1.702 . S
C958 C257 1.212 . S
C988 C397 0.777 . S
C993 C765 1.229 . S
C1023 C714 1.675 . S
C1018 C467 1.258 . S
C1048 C625 1.145 . S
C1053 C744 1.660 . S
C1078 C29 1.588 . S
C1083 C747 2.010 . S
C1113 C686 1.685 . S
C1108 C143 1.240 . S
C1143 C694 1.528 . S
C1138 C371 1.313 . S
C1173 C735 1.398 . S
C1168 C457 1.088 . S
C1203 C748 2.018 . S
C1198 C599 1.784 . S
C1233 C685 1.572 . S
C1228 C55 1.291 . S
C1263 C745 1.547 . S
C1258 C169 1.292 . S
C1288 C283 0.919 . S
C1293 C746 1.097 . S
C1323 C715 1.540 . S
C1318 C581 0.969 . S
C1353 C776 0.890 . S
C1348 C1 0.801 . S
C1383 C703 1.337 . S
C1378 C115 1.043 . S
C1413 C717 1.401 . S
C1408 C229 1.068 . S
C1438 C353 1.233 . S
C1443 C766 2.012 . S
C1468 C511 1.377 . S
C1473 C713 1.694 . S
