# Generated by pormake.
# Topology ctn, (3,4)-cn, num edge types: 1
# Building blocks:
#     Node 0, Type 0, BuildingBlock: CUQRIR_clean_linker_1, # of connection points: 3
#     Node 1, Type 0, BuildingBlock: CUQRIR_clean_linker_1, # of connection points: 3
#     Node 2, Type 0, BuildingBlock: CUQRIR_clean_linker_1, # of connection points: 3
#     Node 3, Type 0, BuildingBlock: CUQRIR_clean_linker_1, # of connection points: 3
#     Node 4, Type 0, BuildingBlock: CUQRIR_clean_linker_1, # of connection points: 3
#     Node 5, Type 0, BuildingBlock: CUQRIR_clean_linker_1, # of connection points: 3
#     Node 6, Type 0, BuildingBlock: CUQRIR_clean_linker_1, # of connection points: 3
#     Node 7, Type 0, BuildingBlock: CUQRIR_clean_linker_1, # of connection points: 3
#     Node 8, Type 0, BuildingBlock: CUQRIR_clean_linker_1, # of connection points: 3
#     Node 9, Type 0, BuildingBlock: CUQRIR_clean_linker_1, # of connection points: 3
#     Node 10, Type 0, BuildingBlock: CUQRIR_clean_linker_1, # of connection points: 3
#     Node 11, Type 0, BuildingBlock: CUQRIR_clean_linker_1, # of connection points: 3
#     Node 12, Type 0, BuildingBlock: CUQRIR_clean_linker_1, # of connection points: 3
#     Node 13, Type 0, BuildingBlock: CUQRIR_clean_linker_1, # of connection points: 3
#     Node 14, Type 0, BuildingBlock: CUQRIR_clean_linker_1, # of connection points: 3
#     Node 15, Type 0, BuildingBlock: CUQRIR_clean_linker_1, # of connection points: 3
#     Node 16, Type 1, BuildingBlock: TATPOV_clean_sbu_0, # of connection points: 4
#     Node 17, Type 1, BuildingBlock: TATPOV_clean_sbu_0, # of connection points: 4
#     Node 18, Type 1, BuildingBlock: TATPOV_clean_sbu_0, # of connection points: 4
#     Node 19, Type 1, BuildingBlock: TATPOV_clean_sbu_0, # of connection points: 4
#     Node 20, Type 1, BuildingBlock: TATPOV_clean_sbu_0, # of connection points: 4
#     Node 21, Type 1, BuildingBlock: TATPOV_clean_sbu_0, # of connection points: 4
#     Node 22, Type 1, BuildingBlock: TATPOV_clean_sbu_0, # of connection points: 4
#     Node 23, Type 1, BuildingBlock: TATPOV_clean_sbu_0, # of connection points: 4
#     Node 24, Type 1, BuildingBlock: TATPOV_clean_sbu_0, # of connection points: 4
#     Node 25, Type 1, BuildingBlock: TATPOV_clean_sbu_0, # of connection points: 4
#     Node 26, Type 1, BuildingBlock: TATPOV_clean_sbu_0, # of connection points: 4
#     Node 27, Type 1, BuildingBlock: TATPOV_clean_sbu_0, # of connection points: 4
#     Edge 28, Type (0, 1), BuildingBlock: XUDNAN_clean_linker_2, # of connection points: 2
#     Edge 29, Type (0, 1), BuildingBlock: XUDNAN_clean_linker_2, # of connection points: 2
#     Edge 30, Type (0, 1), BuildingBlock: XUDNAN_clean_linker_2, # of connection points: 2
#     Edge 31, Type (0, 1), BuildingBlock: XUDNAN_clean_linker_2, # of connection points: 2
#     Edge 32, Type (0, 1), BuildingBlock: XUDNAN_clean_linker_2, # of connection points: 2
#     Edge 33, Type (0, 1), BuildingBlock: XUDNAN_clean_linker_2, # of connection points: 2
#     Edge 34, Type (0, 1), BuildingBlock: XUDNAN_clean_linker_2, # of connection points: 2
#     Edge 35, Type (0, 1), BuildingBlock: XUDNAN_clean_linker_2, # of connection points: 2
#     Edge 36, Type (0, 1), BuildingBlock: XUDNAN_clean_linker_2, # of connection points: 2
#     Edge 37, Type (0, 1), BuildingBlock: XUDNAN_clean_linker_2, # of connection points: 2
#     Edge 38, Type (0, 1), BuildingBlock: XUDNAN_clean_linker_2, # of connection points: 2
#     Edge 39, Type (0, 1), BuildingBlock: XUDNAN_clean_linker_2, # of connection points: 2
#     Edge 40, Type (0, 1), BuildingBlock: XUDNAN_clean_linker_2, # of connection points: 2
#     Edge 41, Type (0, 1), BuildingBlock: XUDNAN_clean_linker_2, # of connection points: 2
#     Edge 42, Type (0, 1), BuildingBlock: XUDNAN_clean_linker_2, # of connection points: 2
#     Edge 43, Type (0, 1), BuildingBlock: XUDNAN_clean_linker_2, # of connection points: 2
#     Edge 44, Type (0, 1), BuildingBlock: XUDNAN_clean_linker_2, # of connection points: 2
#     Edge 45, Type (0, 1), BuildingBlock: XUDNAN_clean_linker_2, # of connection points: 2
#     Edge 46, Type (0, 1), BuildingBlock: XUDNAN_clean_linker_2, # of connection points: 2
#     Edge 47, Type (0, 1), BuildingBlock: XUDNAN_clean_linker_2, # of connection points: 2
#     Edge 48, Type (0, 1), BuildingBlock: XUDNAN_clean_linker_2, # of connection points: 2
#     Edge 49, Type (0, 1), BuildingBlock: XUDNAN_clean_linker_2, # of connection points: 2
#     Edge 50, Type (0, 1), BuildingBlock: XUDNAN_clean_linker_2, # of connection points: 2
#     Edge 51, Type (0, 1), BuildingBlock: XUDNAN_clean_linker_2, # of connection points: 2
#     Edge 52, Type (0, 1), BuildingBlock: XUDNAN_clean_linker_2, # of connection points: 2
#     Edge 53, Type (0, 1), BuildingBlock: XUDNAN_clean_linker_2, # of connection points: 2
#     Edge 54, Type (0, 1), BuildingBlock: XUDNAN_clean_linker_2, # of connection points: 2
#     Edge 55, Type (0, 1), BuildingBlock: XUDNAN_clean_linker_2, # of connection points: 2
#     Edge 56, Type (0, 1), BuildingBlock: XUDNAN_clean_linker_2, # of connection points: 2
#     Edge 57, Type (0, 1), BuildingBlock: XUDNAN_clean_linker_2, # of connection points: 2
#     Edge 58, Type (0, 1), BuildingBlock: XUDNAN_clean_linker_2, # of connection points: 2
#     Edge 59, Type (0, 1), BuildingBlock: XUDNAN_clean_linker_2, # of connection points: 2
#     Edge 60, Type (0, 1), BuildingBlock: XUDNAN_clean_linker_2, # of connection points: 2
#     Edge 61, Type (0, 1), BuildingBlock: XUDNAN_clean_linker_2, # of connection points: 2
#     Edge 62, Type (0, 1), BuildingBlock: XUDNAN_clean_linker_2, # of connection points: 2
#     Edge 63, Type (0, 1), BuildingBlock: XUDNAN_clean_linker_2, # of connection points: 2
#     Edge 64, Type (0, 1), BuildingBlock: XUDNAN_clean_linker_2, # of connection points: 2
#     Edge 65, Type (0, 1), BuildingBlock: XUDNAN_clean_linker_2, # of connection points: 2
#     Edge 66, Type (0, 1), BuildingBlock: XUDNAN_clean_linker_2, # of connection points: 2
#     Edge 67, Type (0, 1), BuildingBlock: XUDNAN_clean_linker_2, # of connection points: 2
#     Edge 68, Type (0, 1), BuildingBlock: XUDNAN_clean_linker_2, # of connection points: 2
#     Edge 69, Type (0, 1), BuildingBlock: XUDNAN_clean_linker_2, # of connection points: 2
#     Edge 70, Type (0, 1), BuildingBlock: XUDNAN_clean_linker_2, # of connection points: 2
#     Edge 71, Type (0, 1), BuildingBlock: XUDNAN_clean_linker_2, # of connection points: 2
#     Edge 72, Type (0, 1), BuildingBlock: XUDNAN_clean_linker_2, # of connection points: 2
#     Edge 73, Type (0, 1), BuildingBlock: XUDNAN_clean_linker_2, # of connection points: 2
#     Edge 74, Type (0, 1), BuildingBlock: XUDNAN_clean_linker_2, # of connection points: 2
#     Edge 75, Type (0, 1), BuildingBlock: XUDNAN_clean_linker_2, # of connection points: 2
# Relax obj value: 0.083
# Max RMSD: 0.208
# Mean RMSD: 0.129
data_MOF--net-ctn--node1-TATPOV_clean_sbu_0--node2-CUQRIR_clean_linker_1--edge1-XUDNAN_clean_linker_2
_symmetry_space_group_name_H-M    P1
_symmetry_Int_Tables_number       1
_symmetry_cell_setting            triclinic
loop_
_symmetry_equiv_pos_as_xyz
'x, y, z'
_cell_length_a     51.869761
_cell_length_b     48.307965
_cell_length_c     49.503674
_cell_angle_alpha  97.816769
_cell_angle_beta   90.096882
_cell_angle_gamma 93.935052
loop_
_atom_site_label
_atom_site_type_symbol
_atom_site_fract_x
_atom_site_fract_y
_atom_site_fract_z
_atom_type_partial_charge
C0 C 0.03754 0.99516 0.0571 0.0
N1 N 0.04911 0.00509 0.03551 0.0
N2 N 0.01567 0.00816 0.0638 0.0
C3 C 0.04707 0.97182 0.07092 0.0
C4 C 0.01434 0.0265 0.04552 0.0
N5 N 0.03468 0.02474 0.02824 0.0
C6 C 0.99183 0.04409 0.04286 0.0
H7 H 0.04261 0.9516 0.05767 0.0
H8 H 0.03791 0.97092 0.09103 0.0
H9 H 0.06832 0.97457 0.07395 0.0
H10 H 0.99617 0.06508 0.05474 0.0
H11 H 0.97389 0.03458 0.05096 0.0
H12 H 0.98847 0.0468 0.02127 0.0
C13 C 0.26343 0.73388 0.24122 0.0
N14 N 0.27469 0.71942 0.25908 0.0
N15 N 0.27969 0.7552 0.23513 0.0
C16 C 0.23745 0.72558 0.22774 0.0
C17 C 0.30144 0.753 0.24972 0.0
N18 N 0.29854 0.73098 0.26419 0.0
C19 C 0.32455 0.77377 0.25135 0.0
H20 H 0.23299 0.7026 0.22586 0.0
H21 H 0.23669 0.73212 0.20715 0.0
H22 H 0.22233 0.73598 0.24041 0.0
H23 H 0.31884 0.79454 0.24723 0.0
H24 H 0.3387 0.76634 0.2357 0.0
H25 H 0.334 0.7761 0.27173 0.0
C26 C 0.97194 0.47592 0.09164 0.0
N27 N 0.98565 0.45291 0.0877 0.0
N28 N 0.95435 0.4754 0.0713 0.0
C29 C 0.97698 0.49979 0.11437 0.0
C30 C 0.95804 0.45123 0.05478 0.0
N31 N 0.97725 0.43767 0.06464 0.0
C32 C 0.94175 0.43997 0.03 0.0
H33 H 0.96438 0.49607 0.13178 0.0
H34 H 0.97257 0.51998 0.10771 0.0
H35 H 0.99736 0.50131 0.12157 0.0
H36 H 0.9511 0.44685 0.01166 0.0
H37 H 0.92215 0.44788 0.03173 0.0
H38 H 0.93999 0.41673 0.02719 0.0
C39 C 0.70458 0.73995 0.233 0.0
N40 N 0.72241 0.75623 0.22138 0.0
N41 N 0.69908 0.75194 0.25841 0.0
C42 C 0.69118 0.71332 0.21884 0.0
C43 C 0.714 0.77632 0.26178 0.0
N44 N 0.72855 0.77883 0.23934 0.0
C45 C 0.71284 0.79854 0.28618 0.0
H46 H 0.67403 0.71859 0.20765 0.0
H47 H 0.68453 0.69927 0.23376 0.0
H48 H 0.7042 0.70223 0.20392 0.0
H49 H 0.69456 0.7963 0.29748 0.0
H50 H 0.71489 0.81976 0.27989 0.0
H51 H 0.72897 0.79655 0.30037 0.0
C52 C 0.03483 0.98215 0.46559 0.0
N53 N 0.05546 0.98768 0.4829 0.0
N54 N 0.03809 0.99625 0.44384 0.0
C55 C 0.01275 0.96083 0.46839 0.0
C56 C 0.06146 0.01038 0.44838 0.0
N57 N 0.07217 0.00491 0.47188 0.0
C58 C 0.07302 0.03109 0.43085 0.0
H59 H 0.01911 0.94361 0.47897 0.0
H60 H 0.00455 0.95179 0.44814 0.0
H61 H 0.99728 0.97118 0.48055 0.0
H62 H 0.05773 0.04039 0.42003 0.0
H63 H 0.08568 0.02014 0.41545 0.0
H64 H 0.08494 0.04814 0.4433 0.0
C65 C 0.18998 0.72945 0.79337 0.0
N66 N 0.21081 0.71962 0.80442 0.0
N67 N 0.18947 0.72249 0.76603 0.0
C68 C 0.17062 0.74699 0.80904 0.0
C69 C 0.21082 0.70822 0.76064 0.0
N70 N 0.2241 0.70677 0.78402 0.0
C71 C 0.21729 0.69361 0.73293 0.0
H72 H 0.15561 0.73295 0.81717 0.0
H73 H 0.161 0.75995 0.7957 0.0
H74 H 0.18009 0.76091 0.82644 0.0
H75 H 0.23245 0.70663 0.72377 0.0
H76 H 0.20016 0.69052 0.71913 0.0
H77 H 0.2249 0.67299 0.73461 0.0
C78 C 0.92316 0.55969 0.45506 0.0
N79 N 0.94124 0.581 0.45311 0.0
N80 N 0.90555 0.56739 0.4743 0.0
C81 C 0.92314 0.5308 0.43921 0.0
C82 C 0.91334 0.59428 0.48374 0.0
N83 N 0.93483 0.60269 0.4707 0.0
C84 C 0.90174 0.61124 0.50796 0.0
H85 H 0.90307 0.52173 0.43514 0.0
H86 H 0.933 0.51699 0.45147 0.0
H87 H 0.93324 0.53121 0.41952 0.0
H88 H 0.91675 0.61745 0.52406 0.0
H89 H 0.88517 0.59961 0.51643 0.0
H90 H 0.89476 0.63066 0.50179 0.0
C91 C 0.79285 0.81105 0.83189 0.0
N92 N 0.81669 0.80227 0.82628 0.0
N93 N 0.78454 0.82505 0.81208 0.0
C94 C 0.77752 0.8056 0.85669 0.0
C95 C 0.80418 0.82448 0.79409 0.0
N96 N 0.824 0.81072 0.80276 0.0
C97 C 0.8025 0.83446 0.76664 0.0
H98 H 0.76336 0.82164 0.86187 0.0
H99 H 0.79042 0.80546 0.87455 0.0
H100 H 0.76693 0.78469 0.85245 0.0
H101 H 0.80965 0.85682 0.76854 0.0
H102 H 0.78218 0.83278 0.75922 0.0
H103 H 0.8143 0.82213 0.75135 0.0
C104 C 0.30109 0.33198 0.3387 0.0
N105 N 0.3217 0.31708 0.33128 0.0
N106 N 0.29873 0.35207 0.32255 0.0
C107 C 0.28364 0.32733 0.36218 0.0
C108 C 0.31858 0.3489 0.30497 0.0
N109 N 0.33292 0.3278 0.31049 0.0
C110 C 0.32207 0.36446 0.28068 0.0
H111 H 0.27512 0.34702 0.37082 0.0
H112 H 0.29422 0.31911 0.37853 0.0
H113 H 0.2677 0.31164 0.35471 0.0
H114 H 0.33551 0.38325 0.28627 0.0
H115 H 0.30339 0.37153 0.27424 0.0
H116 H 0.33021 0.35109 0.2632 0.0
C117 C 0.46796 0.98628 0.57294 0.0
N118 N 0.48067 0.96345 0.57653 0.0
N119 N 0.4491 0.97947 0.55381 0.0
C120 C 0.47501 0.01553 0.58674 0.0
C121 C 0.45075 0.95169 0.54606 0.0
N122 N 0.46969 0.94182 0.56011 0.0
C123 C 0.43506 0.93454 0.52337 0.0
H124 H 0.45793 0.02819 0.58868 0.0
H125 H 0.48956 0.0258 0.57425 0.0
H126 H 0.48345 0.01518 0.60729 0.0
H127 H 0.41631 0.94365 0.5207 0.0
H128 H 0.43159 0.9126 0.52755 0.0
H129 H 0.44599 0.93426 0.50409 0.0
C130 C 0.20842 0.24517 0.72461 0.0
N131 N 0.23033 0.26004 0.71857 0.0
N132 N 0.19816 0.2572 0.7481 0.0
C133 C 0.19766 0.21831 0.70827 0.0
C134 C 0.21461 0.27973 0.75627 0.0
N135 N 0.2342 0.2814 0.73844 0.0
C136 C 0.2125 0.29909 0.78255 0.0
H137 H 0.18634 0.22335 0.69076 0.0
H138 H 0.18465 0.20595 0.72058 0.0
H139 H 0.21354 0.20543 0.70011 0.0
H140 H 0.22382 0.29121 0.79859 0.0
H141 H 0.19217 0.29997 0.78929 0.0
H142 H 0.22061 0.32051 0.7803 0.0
C143 C 0.76351 0.20846 0.72599 0.0
N144 N 0.77607 0.19502 0.74375 0.0
N145 N 0.77771 0.23166 0.72081 0.0
C146 C 0.73763 0.19856 0.7131 0.0
C147 C 0.79952 0.23177 0.73604 0.0
N148 N 0.79848 0.20952 0.75022 0.0
C149 C 0.82177 0.25363 0.73714 0.0
H150 H 0.734 0.17554 0.71206 0.0
H151 H 0.73629 0.20446 0.69227 0.0
H152 H 0.72232 0.20873 0.72566 0.0
H153 H 0.81933 0.26982 0.75494 0.0
H154 H 0.82258 0.26422 0.71866 0.0
H155 H 0.84036 0.24414 0.73968 0.0
C156 C 0.5397 0.49085 0.56295 0.0
N157 N 0.5507 0.50078 0.54105 0.0
N158 N 0.51808 0.50401 0.57046 0.0
C159 C 0.54961 0.46742 0.57635 0.0
C160 C 0.51631 0.52246 0.55234 0.0
N161 N 0.53614 0.52062 0.53441 0.0
C162 C 0.4937 0.54012 0.55042 0.0
H163 H 0.5442 0.44718 0.5635 0.0
H164 H 0.54145 0.46695 0.59699 0.0
H165 H 0.57098 0.46969 0.57813 0.0
H166 H 0.49811 0.5609 0.56268 0.0
H167 H 0.4759 0.53035 0.55854 0.0
H168 H 0.49002 0.5433 0.52901 0.0
C169 C 0.54485 0.48438 0.9674 0.0
N170 N 0.56663 0.48596 0.98296 0.0
N171 N 0.54831 0.49996 0.94674 0.0
C172 C 0.5212 0.4652 0.9705 0.0
C173 C 0.57293 0.51111 0.95028 0.0
N174 N 0.5841 0.50262 0.97218 0.0
C175 C 0.58639 0.52988 0.932 0.0
H176 H 0.51181 0.45771 0.95044 0.0
H177 H 0.50711 0.47688 0.98359 0.0
H178 H 0.52613 0.4468 0.98016 0.0
H179 H 0.57229 0.54075 0.9211 0.0
H180 H 0.59785 0.51701 0.9168 0.0
H181 H 0.5999 0.54575 0.94394 0.0
C182 C 0.69411 0.23832 0.28942 0.0
N183 N 0.71607 0.22846 0.29819 0.0
N184 N 0.6874 0.22543 0.26418 0.0
C185 C 0.68056 0.26254 0.30407 0.0
C186 C 0.70611 0.20767 0.25758 0.0
N187 N 0.7237 0.20964 0.27814 0.0
C188 C 0.70643 0.18742 0.23168 0.0
H189 H 0.66642 0.25457 0.31845 0.0
H190 H 0.6699 0.27322 0.2895 0.0
H191 H 0.69455 0.27807 0.31577 0.0
H192 H 0.71871 0.197 0.21661 0.0
H193 H 0.68669 0.1826 0.22286 0.0
H194 H 0.7147 0.16768 0.23542 0.0
C195 C 0.44448 0.05121 0.97155 0.0
N196 N 0.45994 0.07384 0.96699 0.0
N197 N 0.42354 0.05913 0.9863 0.0
C198 C 0.45106 0.02134 0.96354 0.0
C199 C 0.42693 0.08746 0.99055 0.0
N200 N 0.44898 0.09632 0.97884 0.0
C201 C 0.40846 0.1067 0.00552 0.0
H202 H 0.44336 0.00784 0.97851 0.0
H203 H 0.4723 0.01999 0.96211 0.0
H204 H 0.44238 0.01329 0.94325 0.0
H205 H 0.41416 0.11083 0.02739 0.0
H206 H 0.38836 0.09716 0.00376 0.0
H207 H 0.40909 0.12707 0.99752 0.0
Zn208 Zn 0.29172 0.8516 0.01936 0.0
Zn209 Zn 0.24529 0.8748 0.02544 0.0
O210 O 0.24868 0.8599 0.06251 0.0
O211 O 0.28616 0.84091 0.05735 0.0
O212 O 0.21146 0.89479 0.0262 0.0
O213 O 0.30965 0.88854 0.01416 0.0
O214 O 0.27234 0.90752 0.02136 0.0
C215 C 0.26654 0.84669 0.07176 0.0
C216 C 0.25563 0.82558 0.9794 0.0
O217 O 0.24079 0.84245 0.99273 0.0
O218 O 0.27913 0.82567 0.98621 0.0
C219 C 0.19933 0.8958 0.00397 0.0
O220 O 0.20824 0.88301 0.98112 0.0
C221 C 0.29649 0.90979 0.01663 0.0
Zn222 Zn 0.09615 0.46611 0.30601 0.0
Zn223 Zn 0.12411 0.5123 0.29325 0.0
O224 O 0.0982 0.52985 0.3211 0.0
O225 O 0.07844 0.49229 0.33458 0.0
O226 O 0.14957 0.54351 0.28479 0.0
O227 O 0.12859 0.44811 0.31544 0.0
O228 O 0.1496 0.48722 0.30752 0.0
C229 C 0.0818 0.51872 0.3363 0.0
C230 C 0.09117 0.47516 0.24937 0.0
O231 O 0.1076 0.49578 0.25629 0.0
O232 O 0.08271 0.46003 0.26688 0.0
C233 C 0.15119 0.56894 0.29577 0.0
O234 O 0.13368 0.57787 0.31338 0.0
C235 C 0.1496 0.46295 0.31479 0.0
Zn236 Zn 0.80925 0.60317 0.953 0.0
Zn237 Zn 0.79419 0.63712 0.99651 0.0
O238 O 0.82316 0.61715 0.01254 0.0
O239 O 0.83846 0.5927 0.97598 0.0
O240 O 0.7813 0.66366 0.02807 0.0
O241 O 0.8143 0.63539 0.93106 0.0
O242 O 0.80634 0.6636 0.96849 0.0
C243 C 0.83933 0.60049 1.00149 0.0
C244 C 0.7578 0.58778 0.96973 0.0
O245 O 0.76188 0.60986 0.9869 0.0
O246 O 0.77516 0.58028 0.95286 0.0
C247 C 0.79311 0.67176 0.05062 0.0
O248 O 0.81607 0.66304 0.0546 0.0
C249 C 0.81297 0.65993 0.9435 0.0
Zn250 Zn 0.84198 0.00505 0.30764 0.0
Zn251 Zn 0.86789 0.00743 0.26028 0.0
O252 O 0.84913 0.04415 0.26515 0.0
O253 O 0.82606 0.04123 0.30212 0.0
O254 O 0.88867 0.00841 0.22551 0.0
O255 O 0.87582 0.00643 0.32816 0.0
O256 O 0.89626 0.00516 0.28911 0.0
C257 C 0.8329 0.05431 0.28248 0.0
C258 C 0.82872 0.9578 0.26663 0.0
O259 O 0.84345 0.97158 0.25188 0.0
O260 O 0.82546 0.96705 0.29149 0.0
C261 C 0.8958 0.98538 0.21318 0.0
O262 O 0.88939 0.96211 0.22328 0.0
C263 C 0.89668 0.00542 0.31492 0.0
Zn264 Zn 0.2877 0.11145 0.44742 0.0
Zn265 Zn 0.28952 0.14251 0.49634 0.0
O266 O 0.31878 0.11666 0.50066 0.0
O267 O 0.31968 0.09411 0.45886 0.0
O268 O 0.2872 0.16738 0.53264 0.0
O269 O 0.29198 0.14564 0.42825 0.0
O270 O 0.29857 0.17051 0.46867 0.0
C271 C 0.32882 0.09904 0.48292 0.0
C272 C 0.24179 0.10213 0.47711 0.0
O273 O 0.25337 0.1211 0.49417 0.0
O274 O 0.25252 0.09379 0.45481 0.0
C275 C 0.30526 0.17343 0.5503 0.0
O276 O 0.32802 0.16365 0.54516 0.0
C277 C 0.29815 0.16884 0.44269 0.0
Zn278 Zn 0.34856 0.50723 0.81777 0.0
Zn279 Zn 0.37199 0.50709 0.76903 0.0
O280 O 0.35135 0.54282 0.7728 0.0
O281 O 0.32953 0.54078 0.81072 0.0
O282 O 0.39151 0.50708 0.73322 0.0
O283 O 0.3832 0.51265 0.83712 0.0
O284 O 0.40182 0.50842 0.79698 0.0
C285 C 0.33505 0.55291 0.79014 0.0
C286 C 0.33707 0.45612 0.78105 0.0
O287 O 0.3499 0.46911 0.76414 0.0
O288 O 0.33432 0.46752 0.80536 0.0
C289 C 0.3994 0.48407 0.72166 0.0
O290 O 0.3943 0.46123 0.73292 0.0
C291 C 0.40348 0.51113 0.82293 0.0
Zn292 Zn 0.79488 0.35508 0.52334 0.0
Zn293 Zn 0.74876 0.37336 0.52266 0.0
O294 O 0.74875 0.35279 0.55782 0.0
O295 O 0.78625 0.33394 0.55412 0.0
O296 O 0.714 0.39184 0.52265 0.0
O297 O 0.81264 0.39313 0.53105 0.0
O298 O 0.77466 0.40858 0.52359 0.0
C299 C 0.76519 0.33734 0.56653 0.0
C300 C 0.76879 0.33415 0.47366 0.0
O301 O 0.74999 0.34602 0.48598 0.0
O302 O 0.79087 0.33623 0.48492 0.0
C303 C 0.6981 0.38799 0.5026 0.0
O304 O 0.70312 0.37011 0.48114 0.0
C305 C 0.7989 0.41313 0.52819 0.0
Zn306 Zn 0.58527 0.95506 0.79323 0.0
Zn307 Zn 0.62289 0.99439 0.78711 0.0
O308 O 0.60156 0.01407 0.81885 0.0
O309 O 0.5695 0.98222 0.82172 0.0
O310 O 0.65272 0.02219 0.78081 0.0
O311 O 0.61122 0.92874 0.80267 0.0
O312 O 0.64208 0.96048 0.79577 0.0
C313 C 0.58033 0.00629 0.82946 0.0
C314 C 0.58526 0.97035 0.73967 0.0
O315 O 0.60386 0.98743 0.74957 0.0
O316 O 0.57416 0.95367 0.75429 0.0
C317 C 0.65718 0.04699 0.79306 0.0
O318 O 0.64124 0.05698 0.81195 0.0
C319 C 0.63502 0.93616 0.80149 0.0
Zn320 Zn 0.99601 0.26268 0.87222 0.0
Zn321 Zn 0.00194 0.21866 0.8967 0.0
O322 O 0.03376 0.22039 0.871 0.0
O323 O 0.02668 0.25538 0.84844 0.0
O324 O 0.00829 0.18508 0.91648 0.0
O325 O 1.00059 0.28866 0.90701 0.0
O326 O 0.00205 0.25198 0.92874 0.0
C327 C 0.04048 0.23582 0.85284 0.0
C328 C 0.95224 0.2235 0.86311 0.0
O329 O 0.96622 0.20871 0.87604 0.0
O330 O 0.96035 0.24804 0.85963 0.0
C331 C 0.01319 0.16154 0.9033 0.0
O332 O 0.0132 0.15875 0.87652 0.0
C333 C 0.00214 0.27851 0.92915 0.0
Zn334 Zn 0.49715 0.76055 0.38091 0.0
Zn335 Zn 0.50069 0.71712 0.40669 0.0
O336 O 0.53354 0.71833 0.38179 0.0
O337 O 0.5295 0.75495 0.36055 0.0
O338 O 0.50624 0.68311 0.42626 0.0
O339 O 0.49825 0.78646 0.41607 0.0
O340 O 0.50041 0.75035 0.43855 0.0
C341 C 0.54207 0.73447 0.36487 0.0
C342 C 0.45355 0.72182 0.3691 0.0
O343 O 0.46474 0.70855 0.38597 0.0
O344 O 0.46385 0.74468 0.36319 0.0
C345 C 0.51132 0.65981 0.41271 0.0
O346 O 0.5117 0.65765 0.38596 0.0
C347 C 0.4997 0.77672 0.43845 0.0
Zn348 Zn 0.96759 0.82612 0.61364 0.0
Zn349 Zn 0.01 0.80856 0.63612 0.0
O350 O 0.02476 0.84572 0.62372 0.0
O351 O 0.98979 0.86049 0.6065 0.0
O352 O 0.03845 0.79258 0.65542 0.0
O353 O 0.94777 0.82618 0.64907 0.0
O354 O 0.98186 0.80932 0.66571 0.0
C355 C 0.01378 0.86382 0.61201 0.0
C356 C 0.98487 0.77388 0.58556 0.0
O357 O 0.00251 0.77839 0.60381 0.0
O358 O 0.96714 0.7907 0.58541 0.0
C359 C 0.06289 0.79538 0.65355 0.0
O360 O 0.07345 0.812 0.63712 0.0
C361 C 0.95883 0.8168 0.6684 0.0
Zn362 Zn 0.46644 0.33081 0.11207 0.0
Zn363 Zn 0.50652 0.30733 0.13256 0.0
O364 O 0.52375 0.3437 0.12067 0.0
O365 O 0.49052 0.36455 0.10707 0.0
O366 O 0.53384 0.29014 0.15231 0.0
O367 O 0.4458 0.32935 0.14697 0.0
O368 O 0.47861 0.30914 0.16218 0.0
C369 C 0.51465 0.36428 0.11104 0.0
C370 C 0.48006 0.27773 0.08101 0.0
O371 O 0.49702 0.27835 0.09974 0.0
O372 O 0.46486 0.29731 0.08155 0.0
C373 C 0.55766 0.2877 0.1474 0.0
O374 O 0.56804 0.29767 0.12621 0.0
C375 C 0.45617 0.31807 0.16549 0.0
H376 H 0.25429 0.74718 0.82715 0.0
H377 H 0.18198 0.70411 0.84554 0.0
H378 H 0.18679 0.72457 0.89403 0.0
H379 H 0.28714 0.74171 0.89533 0.0
H380 H 0.3038 0.77575 0.89567 0.0
H381 H 0.29659 0.75386 0.8637 0.0
H382 H 0.27321 0.79419 0.84705 0.0
H383 H 0.2796 0.81592 0.87915 0.0
H384 H 0.24684 0.80872 0.86661 0.0
H385 H 0.19461 0.75777 0.93727 0.0
H386 H 0.20983 0.79375 0.97558 0.0
H387 H 0.27911 0.81224 0.93065 0.0
C388 C 0.24025 0.74105 0.84176 0.0
C389 C 0.21776 0.72421 0.8329 0.0
C390 C 0.1993 0.71702 0.85222 0.0
C391 C 0.20184 0.72864 0.87968 0.0
C392 C 0.22338 0.74678 0.88756 0.0
C393 C 0.24277 0.75217 0.86941 0.0
C394 C 0.26321 0.77358 0.88287 0.0
C395 C 0.28923 0.76044 0.88449 0.0
C396 C 0.26585 0.79963 0.86803 0.0
C397 C 0.25165 0.78032 0.9109 0.0
C398 C 0.22858 0.76477 0.91315 0.0
C399 C 0.21304 0.76946 0.9361 0.0
C400 C 0.22164 0.7901 0.95759 0.0
C401 C 0.24569 0.80539 0.95607 0.0
C402 C 0.26084 0.80038 0.93245 0.0
H403 H 0.97601 0.5415 0.45097 0.0
H404 H 0.95927 0.61789 0.41991 0.0
H405 H 0.99766 0.6137 0.39002 0.0
H406 H 0.0469 0.549 0.44725 0.0
H407 H 0.04915 0.51214 0.43613 0.0
H408 H 0.02309 0.52383 0.45787 0.0
H409 H 0.98974 0.49765 0.42262 0.0
H410 H 0.01564 0.48583 0.40087 0.0
H411 H 0.99081 0.50496 0.38787 0.0
H412 H 0.036 0.59836 0.36067 0.0
H413 H 0.06848 0.57227 0.33289 0.0
H414 H 0.0572 0.50425 0.38145 0.0
C415 C 0.98047 0.55733 0.43787 0.0
C416 C 0.96459 0.5798 0.43732 0.0
C417 C 0.97132 0.60054 0.42049 0.0
C418 C 0.99303 0.5983 0.40354 0.0
C419 C 0.00778 0.57521 0.40382 0.0
C420 C 1.00168 0.55509 0.42059 0.0
C421 C 0.01885 0.53091 0.41537 0.0
C422 C 0.03548 0.52887 0.44066 0.0
C423 C 0.00281 0.50321 0.40613 0.0
C424 C 0.03518 0.5401 0.39249 0.0
C425 C 0.02899 0.56598 0.38646 0.0
C426 C 0.0411 0.57818 0.36538 0.0
C427 C 0.05956 0.56327 0.34976 0.0
C428 C 0.06529 0.53623 0.35498 0.0
C429 C 0.05322 0.52487 0.37695 0.0
H430 H 0.81016 0.74649 0.81861 0.0
H431 H 0.8475 0.81696 0.87035 0.0
H432 H 0.85433 0.78665 0.90601 0.0
H433 H 0.77537 0.71949 0.86633 0.0
H434 H 0.77811 0.68286 0.85446 0.0
H435 H 0.78128 0.70798 0.83083 0.0
H436 H 0.82635 0.69183 0.81624 0.0
H437 H 0.82305 0.66581 0.83911 0.0
H438 H 0.85085 0.6906 0.84185 0.0
H439 H 0.84767 0.75124 0.93919 0.0
H440 H 0.83551 0.7114 0.9644 0.0
H441 H 0.80498 0.66311 0.88959 0.0
C442 C 0.8213 0.75491 0.83675 0.0
C443 C 0.82919 0.78366 0.84154 0.0
C444 C 0.84231 0.7947 0.86608 0.0
C445 C 0.84591 0.7777 0.88649 0.0
C446 C 0.83664 0.74962 0.88169 0.0
C447 C 0.82536 0.73808 0.85701 0.0
C448 C 0.81506 0.70808 0.85765 0.0
C449 C 0.78572 0.70442 0.85199 0.0
C450 C 0.82971 0.68788 0.83752 0.0
C451 C 0.82127 0.70485 0.88688 0.0
C452 C 0.83361 0.72903 0.90052 0.0
C453 C 0.83873 0.73193 0.9285 0.0
C454 C 0.83153 0.70934 0.94271 0.0
C455 C 0.81962 0.68413 0.92885 0.0
C456 C 0.81456 0.68195 0.90058 0.0
H457 H 0.98732 0.00584 0.4456 0.0
H458 H 0.05019 0.98606 0.39051 0.0
H459 H 0.0211 0.98724 0.35096 0.0
H460 H 0.93762 0.96318 0.40475 0.0
H461 H 0.91314 0.98751 0.4135 0.0
H462 H 0.93918 0.98547 0.43711 0.0
H463 H 0.95081 0.0387 0.43848 0.0
H464 H 0.92493 0.04087 0.41474 0.0
H465 H 0.95747 0.05274 0.40709 0.0
H466 H 0.98501 0.99131 0.31761 0.0
H467 H 0.94435 0.99573 0.29289 0.0
H468 H 0.90483 0.01127 0.37018 0.0
C469 C 0.99479 1.00155 0.42517 0.0
C470 C 0.02092 0.99603 0.42092 0.0
C471 C 0.03025 0.99069 0.394 0.0
C472 C 0.01387 0.99123 0.37152 0.0
C473 C 0.98819 0.99694 0.37638 0.0
C474 C 0.97865 1.0018 0.40255 0.0
C475 C 0.95023 0.00704 0.40225 0.0
C476 C 0.9341 0.98445 0.41516 0.0
C477 C 0.9456 0.0366 0.41648 0.0
C478 C 0.94526 0.00446 0.37184 0.0
C479 C 0.96739 0.99876 0.35724 0.0
C480 C 0.96753 0.9957 0.32883 0.0
C481 C 0.94436 0.99832 0.31497 0.0
C482 C 0.92136 0.00379 0.32955 0.0
C483 C 0.92201 0.00699 0.35838 0.0
H484 H 0.21736 0.25053 0.6651 0.0
H485 H 0.28126 0.25159 0.7216 0.0
H486 H 0.30915 0.2337 0.68351 0.0
H487 H 0.2288 0.18603 0.62757 0.0
H488 H 0.21927 0.1951 0.59504 0.0
H489 H 0.20576 0.21205 0.62589 0.0
H490 H 0.22137 0.2606 0.61296 0.0
H491 H 0.23485 0.24381 0.58194 0.0
H492 H 0.255 0.26769 0.60551 0.0
H493 H 0.32866 0.21141 0.63975 0.0
H494 H 0.33819 0.18636 0.59436 0.0
H495 H 0.26055 0.1977 0.56692 0.0
C496 C 0.23736 0.2474 0.66926 0.0
C497 C 0.24736 0.25279 0.69612 0.0
C498 C 0.27351 0.2483 0.70102 0.0
C499 C 0.28939 0.23795 0.67954 0.0
C500 C 0.27872 0.23212 0.65332 0.0
C501 C 0.25329 0.23676 0.64812 0.0
C502 C 0.24583 0.22661 0.61867 0.0
C503 C 0.22361 0.20358 0.61669 0.0
C504 C 0.23886 0.25115 0.6039 0.0
C505 C 0.27086 0.21499 0.60819 0.0
C506 C 0.2897 0.21865 0.62837 0.0
C507 C 0.31412 0.20867 0.62373 0.0
C508 C 0.31934 0.19443 0.59787 0.0
C509 C 0.30016 0.19005 0.577 0.0
C510 C 0.27571 0.20078 0.58232 0.0
H511 H 0.49852 0.53819 0.61253 0.0
H512 H 0.49411 0.45293 0.57146 0.0
H513 H 0.46218 0.43899 0.60503 0.0
H514 H 0.49338 0.52182 0.68069 0.0
H515 H 0.47344 0.55003 0.69257 0.0
H516 H 0.49553 0.55347 0.66502 0.0
H517 H 0.45779 0.5639 0.63445 0.0
H518 H 0.43556 0.56051 0.66194 0.0
H519 H 0.4298 0.53945 0.62927 0.0
H520 H 0.43272 0.4338 0.64397 0.0
H521 H 0.40604 0.43768 0.68527 0.0
H522 H 0.42743 0.52693 0.70072 0.0
C523 C 0.49062 0.51668 0.61067 0.0
C524 C 0.49894 0.49644 0.58975 0.0
C525 C 0.48825 0.46849 0.58769 0.0
C526 C 0.47004 0.46048 0.60654 0.0
C527 C 0.46244 0.4808 0.62714 0.0
C528 C 0.4722 0.50837 0.62926 0.0
C529 C 0.46079 0.52591 0.65355 0.0
C530 C 0.48206 0.53854 0.67418 0.0
C531 C 0.44505 0.5488 0.64424 0.0
C532 C 0.4434 0.50378 0.66493 0.0
C533 C 0.44472 0.47793 0.64932 0.0
C534 C 0.43132 0.45397 0.65622 0.0
C535 C 0.41626 0.45639 0.67978 0.0
C536 C 0.4145 0.48261 0.69615 0.0
C537 C 0.42811 0.50667 0.68841 0.0
H538 H 0.80342 0.23892 0.67478 0.0
H539 H 0.73769 0.26487 0.72294 0.0
H540 H 0.72584 0.29475 0.6883 0.0
H541 H 0.82065 0.30573 0.65215 0.0
H542 H 0.83013 0.29015 0.6188 0.0
H543 H 0.83288 0.27138 0.64759 0.0
H544 H 0.80473 0.22946 0.622 0.0
H545 H 0.80172 0.24821 0.59324 0.0
H546 H 0.77316 0.23511 0.6094 0.0
H547 H 0.72157 0.32182 0.64709 0.0
H548 H 0.72605 0.3439 0.60466 0.0
H549 H 0.79493 0.29938 0.58487 0.0
C550 C 0.78678 0.25128 0.67811 0.0
C551 C 0.77166 0.25016 0.70156 0.0
C552 C 0.74959 0.26588 0.70511 0.0
C553 C 0.74275 0.28278 0.68556 0.0
C554 C 0.75818 0.28354 0.66255 0.0
C555 C 0.77979 0.2682 0.65888 0.0
C556 C 0.79322 0.27238 0.63255 0.0
C557 C 0.82085 0.28571 0.63811 0.0
C558 C 0.79319 0.24464 0.61316 0.0
C559 C 0.7759 0.2925 0.6219 0.0
C560 C 0.7557 0.29874 0.63929 0.0
C561 C 0.73736 0.31704 0.63336 0.0
C562 C 0.73999 0.32944 0.60919 0.0
C563 C 0.76084 0.3235 0.59137 0.0
C564 C 0.77876 0.30457 0.59795 0.0
H565 H 0.48282 0.93392 0.61852 0.0
H566 H 0.52687 0.99254 0.57498 0.0
H567 H 0.56136 0.99785 0.61047 0.0
H568 H 0.49449 0.96889 0.68274 0.0
H569 H 0.49705 0.93842 0.69967 0.0
H570 H 0.47809 0.93587 0.66889 0.0
H571 H 0.50485 0.8958 0.64621 0.0
H572 H 0.5237 0.89789 0.67715 0.0
H573 H 0.53956 0.90109 0.64524 0.0
H574 H 0.58783 1.00137 0.65393 0.0
H575 H 0.60524 1.00096 0.70047 0.0
H576 H 0.5437 0.93928 0.71485 0.0
C577 C 0.50023 0.94698 0.61609 0.0
C578 C 0.50252 0.96271 0.59421 0.0
C579 C 0.52505 0.98036 0.59178 0.0
C580 C 0.54464 0.98342 0.61175 0.0
C581 C 0.54141 0.9684 0.63378 0.0
C582 C 0.51991 0.9502 0.63584 0.0
C583 C 0.52 0.93822 0.6625 0.0
C584 C 0.49599 0.94582 0.67944 0.0
C585 C 0.52217 0.90636 0.65747 0.0
C586 C 0.5444 0.95323 0.67555 0.0
C587 C 0.55666 0.97036 0.65864 0.0
C588 C 0.57865 0.98764 0.66716 0.0
C589 C 0.58834 0.98738 0.69366 0.0
C590 C 0.57594 0.97002 0.7113 0.0
C591 C 0.55384 0.9526 0.70185 0.0
H592 H 0.81848 0.24393 0.79393 0.0
H593 H 0.82347 0.16163 0.74819 0.0
H594 H 0.85958 0.15288 0.77787 0.0
H595 H 0.88475 0.25969 0.79617 0.0
H596 H 0.88544 0.28019 0.82946 0.0
H597 H 0.85673 0.27734 0.80861 0.0
H598 H 0.83003 0.25889 0.84748 0.0
H599 H 0.85876 0.26161 0.86848 0.0
H600 H 0.83978 0.2287 0.86162 0.0
H601 H 0.8984 0.15523 0.81026 0.0
H602 H 0.93796 0.17012 0.8383 0.0
H603 H 0.90986 0.25267 0.85902 0.0
C604 C 0.82689 0.22388 0.79056 0.0
C605 C 0.8177 0.20315 0.76923 0.0
C606 C 0.82941 0.17732 0.76511 0.0
C607 C 0.85015 0.17231 0.78175 0.0
C608 C 0.85917 0.19351 0.80227 0.0
C609 C 0.84796 0.21889 0.80652 0.0
C610 C 0.86318 0.23965 0.82725 0.0
C611 C 0.87312 0.26574 0.81461 0.0
C612 C 0.84697 0.24767 0.85272 0.0
C613 C 0.8851 0.22229 0.83353 0.0
C614 C 0.88219 0.19548 0.81952 0.0
C615 C 0.90071 0.17611 0.82148 0.0
C616 C 0.92306 0.18465 0.83755 0.0
C617 C 0.92689 0.21247 0.85084 0.0
C618 C 0.90735 0.2312 0.84918 0.0
H619 H 0.50011 0.92955 0.51755 0.0
H620 H 0.46111 0.89462 0.58337 0.0
H621 H 0.47109 0.84679 0.56265 0.0
H622 H 0.47391 0.8818 0.4677 0.0
H623 H 0.50155 0.88001 0.44566 0.0
H624 H 0.49747 0.91119 0.46903 0.0
H625 H 0.5426 0.90794 0.49043 0.0
H626 H 0.5471 0.87686 0.46678 0.0
H627 H 0.55026 0.87609 0.50293 0.0
H628 H 0.47945 0.80245 0.53031 0.0
H629 H 0.4841 0.76679 0.4898 0.0
H630 H 0.51554 0.83189 0.44455 0.0
C631 C 0.49494 0.91181 0.52814 0.0
C632 C 0.48066 0.91546 0.55232 0.0
C633 C 0.47281 0.892 0.56524 0.0
C634 C 0.47831 0.86487 0.55351 0.0
C635 C 0.49159 0.86177 0.52886 0.0
C636 C 0.49996 0.88476 0.51647 0.0
C637 C 0.5103 0.87605 0.48831 0.0
C638 C 0.49488 0.88795 0.46641 0.0
C639 C 0.53929 0.88475 0.48705 0.0
C640 C 0.50559 0.84462 0.48622 0.0
C641 C 0.49533 0.83657 0.50994 0.0
C642 C 0.48787 0.80853 0.51183 0.0
C643 C 0.49057 0.78841 0.48876 0.0
C644 C 0.50012 0.7966 0.46405 0.0
C645 C 0.50819 0.82497 0.46316 0.0
H646 H 0.15224 0.27988 0.7535 0.0
H647 H 0.19534 0.2129 0.77597 0.0
H648 H 0.15852 0.19781 0.80394 0.0
H649 H 0.12426 0.29826 0.81785 0.0
H650 H 0.09367 0.3061 0.80443 0.0
H651 H 0.12258 0.30989 0.78483 0.0
H652 H 0.10132 0.27646 0.74428 0.0
H653 H 0.07228 0.27262 0.76374 0.0
H654 H 0.08831 0.24207 0.74961 0.0
H655 H 0.11743 0.19222 0.83158 0.0
H656 H 0.07595 0.19629 0.8561 0.0
H657 H 0.06034 0.26726 0.81487 0.0
C658 C 0.15357 0.2618 0.76404 0.0
C659 C 0.17621 0.24724 0.76259 0.0
C660 C 0.17783 0.22394 0.77681 0.0
C661 C 0.1571 0.21535 0.79268 0.0
C662 C 0.13497 0.23035 0.79397 0.0
C663 C 0.13309 0.25303 0.77991 0.0
C664 C 0.10776 0.26636 0.78548 0.0
C665 C 0.11236 0.29696 0.79895 0.0
C666 C 0.09146 0.26423 0.75921 0.0
C667 C 0.09577 0.24793 0.80514 0.0
C668 C 0.11162 0.22719 0.80977 0.0
C669 C 0.10478 0.20826 0.82793 0.0
C670 C 0.0812 0.21073 0.84178 0.0
C671 C 0.06479 0.23202 0.83741 0.0
C672 C 0.07227 0.25061 0.81864 0.0
H673 H 0.5403 0.57699 0.53824 0.0
H674 H 0.5365 0.50137 0.48016 0.0
H675 H 0.53375 0.52939 0.4424 0.0
H676 H 0.49192 0.60753 0.5067 0.0
H677 H 0.50558 0.64312 0.51388 0.0
H678 H 0.51274 0.61797 0.53602 0.0
H679 H 0.56179 0.62798 0.52908 0.0
H680 H 0.55484 0.65356 0.50724 0.0
H681 H 0.57446 0.62518 0.495 0.0
H682 H 0.52667 0.56531 0.41126 0.0
H683 H 0.51618 0.60592 0.3891 0.0
H684 H 0.52057 0.65847 0.46765 0.0
C685 C 0.53988 0.56653 0.51745 0.0
C686 C 0.53979 0.53697 0.51212 0.0
C687 C 0.5381 0.52386 0.48478 0.0
C688 C 0.53605 0.53972 0.46317 0.0
C689 C 0.5353 0.56871 0.46922 0.0
C690 C 0.53722 0.58204 0.49573 0.0
C691 C 0.53306 0.61302 0.49702 0.0
C692 C 0.50942 0.62086 0.51443 0.0
C693 C 0.5575 0.631 0.50772 0.0
C694 C 0.52813 0.61499 0.46713 0.0
C695 C 0.52982 0.58924 0.45143 0.0
C696 C 0.5255 0.5856 0.42335 0.0
C697 C 0.51947 0.60885 0.41094 0.0
C698 C 0.51748 0.63549 0.42656 0.0
C699 C 0.52187 0.63845 0.45509 0.0
H700 H 0.85371 0.85089 0.78247 0.0
H701 H 0.8494 0.76278 0.79139 0.0
H702 H 0.8884 0.75665 0.7633 0.0
H703 H 0.86426 0.83839 0.7129 0.0
H704 H 0.88463 0.86989 0.71127 0.0
H705 H 0.86083 0.86896 0.73757 0.0
H706 H 0.89641 0.88368 0.77454 0.0
H707 H 0.92039 0.88477 0.74832 0.0
H708 H 0.92429 0.86341 0.775 0.0
H709 H 0.9261 0.75963 0.73073 0.0
H710 H 0.95504 0.76963 0.69292 0.0
H711 H 0.92902 0.85354 0.69894 0.0
C712 C 0.86122 0.83038 0.77885 0.0
C713 C 0.84869 0.80743 0.78957 0.0
C714 C 0.85907 0.78091 0.78433 0.0
C715 C 0.88114 0.7772 0.7681 0.0
C716 C 0.8923 0.8001 0.75684 0.0
C717 C 0.88242 0.82612 0.76177 0.0
C718 C 0.89506 0.84626 0.74402 0.0
C719 C 0.875 0.85646 0.72533 0.0
C720 C 0.90992 0.87099 0.76152 0.0
C721 C 0.91333 0.8274 0.72788 0.0
C722 C 0.9121 0.80113 0.73618 0.0
C723 C 0.92722 0.78013 0.72413 0.0
C724 C 0.94362 0.786 0.70276 0.0
C725 C 0.94412 0.8123 0.69312 0.0
C726 C 0.92893 0.83327 0.70599 0.0
H727 H 0.02196 0.98739 0.5242 0.0
H728 H 0.09613 0.95977 0.49658 0.0
H729 H 0.09762 0.93132 0.53459 0.0
H730 H 0.03085 0.98443 0.59962 0.0
H731 H 0.99787 0.97072 0.60225 0.0
H732 H 0.00612 0.99447 0.57798 0.0
H733 H 0.9858 0.95816 0.53907 0.0
H734 H 0.9776 0.93434 0.56306 0.0
H735 H 0.99696 0.92333 0.53385 0.0
H736 H 0.08715 0.89962 0.5706 0.0
H737 H 0.06514 0.86635 0.59837 0.0
H738 H 0.99635 0.91264 0.59987 0.0
C739 C 0.03886 0.97603 0.52681 0.0
C740 C 0.05903 0.97586 0.50777 0.0
C741 C 0.08076 0.96055 0.51137 0.0
C742 C 0.08167 0.94429 0.53284 0.0
C743 C 0.06071 0.94371 0.55052 0.0
C744 C 0.03973 0.95935 0.54771 0.0
C745 C 0.01786 0.95188 0.56617 0.0
C746 C 0.01289 0.97687 0.58779 0.0
C747 C 0.99312 0.94129 0.54954 0.0
C748 C 0.02922 0.92866 0.57893 0.0
C749 C 0.05423 0.92473 0.57034 0.0
C750 C 0.06777 0.90289 0.57784 0.0
C751 C 0.05515 0.88412 0.5937 0.0
C752 C 0.02907 0.88698 0.60136 0.0
C753 C 0.01638 0.91009 0.59456 0.0
H754 H 0.19092 0.75595 0.72641 0.0
H755 H 0.14151 0.69833 0.76608 0.0
H756 H 0.10403 0.70845 0.73884 0.0
H757 H 0.14638 0.80728 0.72612 0.0
H758 H 0.15499 0.81709 0.69329 0.0
H759 H 0.17855 0.80287 0.71326 0.0
H760 H 0.18572 0.76388 0.67315 0.0
H761 H 0.16231 0.77813 0.65291 0.0
H762 H 0.15842 0.74192 0.65827 0.0
H763 H 0.07182 0.72765 0.71092 0.0
H764 H 0.04604 0.75406 0.68296 0.0
H765 H 0.11595 0.80025 0.66091 0.0
C766 C 0.17226 0.74506 0.72865 0.0
C767 C 0.1688 0.72615 0.74786 0.0
C768 C 0.14422 0.71264 0.75112 0.0
C769 C 0.12298 0.71828 0.7358 0.0
C770 C 0.12678 0.7375 0.71736 0.0
C771 C 0.15079 0.75062 0.71355 0.0
C772 C 0.14909 0.77181 0.69373 0.0
C773 C 0.15776 0.80152 0.70743 0.0
C774 C 0.16482 0.76343 0.66799 0.0
C775 C 0.12031 0.76896 0.68751 0.0
C776 C 0.10793 0.74888 0.70124 0.0
C777 C 0.08128 0.74321 0.69981 0.0
C778 C 0.06681 0.75846 0.68394 0.0
C779 C 0.07895 0.77925 0.66967 0.0
C780 C 0.10612 0.78437 0.67138 0.0
H781 H 0.92196 0.65594 0.47302 0.0
H782 H 0.9833 0.60479 0.4909 0.0
H783 H 0.00677 0.64624 0.51706 0.0
H784 H 0.96235 0.72464 0.47301 0.0
H785 H 0.93714 0.74404 0.48995 0.0
H786 H 0.92894 0.71248 0.46682 0.0
H787 H 0.9026 0.69228 0.50493 0.0
H788 H 0.91105 0.72337 0.52836 0.0
H789 H 0.91827 0.68961 0.53692 0.0
H790 H 0.01911 0.69043 0.54799 0.0
H791 H 0.02037 0.73412 0.58023 0.0
H792 H 0.94936 0.75612 0.54446 0.0
C793 C 0.94082 0.65392 0.48164 0.0
C794 C 0.95113 0.62751 0.47978 0.0
C795 C 0.97554 0.62511 0.49163 0.0
C796 C 0.98885 0.64849 0.50663 0.0
C797 C 0.9774 0.67403 0.50949 0.0
C798 C 0.95403 0.67695 0.49706 0.0
C799 C 0.94402 0.70537 0.50644 0.0
C800 C 0.94307 0.72266 0.48263 0.0
C801 C 0.91742 0.70246 0.51997 0.0
C802 C 0.9648 0.71752 0.52701 0.0
C803 C 0.98413 0.69935 0.52807 0.0
C804 C 0.00437 0.70506 0.54696 0.0
C805 C 0.00481 0.72989 0.56531 0.0
C806 C 0.98498 0.74863 0.56488 0.0
C807 C 0.96494 0.74241 0.54517 0.0
H808 H 0.76642 0.80402 0.27339 0.0
H809 H 0.72848 0.80841 0.1963 0.0
H810 H 0.75446 0.85241 0.19195 0.0
H811 H 0.76117 0.87451 0.29733 0.0
H812 H 0.79118 0.87916 0.31635 0.0
H813 H 0.77404 0.84521 0.31045 0.0
H814 H 0.81473 0.82384 0.28833 0.0
H815 H 0.83211 0.85775 0.29429 0.0
H816 H 0.82987 0.83871 0.26033 0.0
H817 H 0.78272 0.89822 0.19803 0.0
H818 H 0.80722 0.94301 0.21566 0.0
H819 H 0.82107 0.91132 0.29181 0.0
C820 C 0.76388 0.81408 0.25543 0.0
C821 C 0.74578 0.80255 0.23496 0.0
C822 C 0.74287 0.81631 0.21177 0.0
C823 C 0.75739 0.84149 0.20927 0.0
C824 C 0.77442 0.85283 0.23039 0.0
C825 C 0.77751 0.83961 0.25314 0.0
C826 C 0.79426 0.85768 0.27463 0.0
C827 C 0.77926 0.86455 0.30125 0.0
C828 C 0.81923 0.84366 0.27968 0.0
C829 C 0.79978 0.8834 0.26069 0.0
C830 C 0.78879 0.87998 0.23488 0.0
C831 C 0.79139 0.90108 0.2182 0.0
C832 C 0.80531 0.9264 0.22833 0.0
C833 C 0.81574 0.93059 0.25512 0.0
C834 C 0.81305 0.90871 0.27133 0.0
H835 H 0.73211 0.17238 0.31269 0.0
H836 H 0.76365 0.2086 0.24361 0.0
H837 H 0.79774 0.17478 0.23924 0.0
H838 H 0.79499 0.15458 0.34089 0.0
H839 H 0.78092 0.12226 0.35059 0.0
H840 H 0.76149 0.15179 0.35044 0.0
H841 H 0.72838 0.12092 0.31822 0.0
H842 H 0.7478 0.09144 0.31796 0.0
H843 H 0.73915 0.10309 0.28629 0.0
H844 H 0.82509 0.13384 0.23932 0.0
H845 H 0.84483 0.08978 0.24469 0.0
H846 H 0.79525 0.07981 0.31381 0.0
C847 C 0.74678 0.17361 0.29729 0.0
C848 C 0.74567 0.19307 0.27862 0.0
C849 C 0.76454 0.19382 0.25812 0.0
C850 C 0.78388 0.17475 0.25554 0.0
C851 C 0.78404 0.15511 0.27372 0.0
C852 C 0.76614 0.15456 0.29438 0.0
C853 C 0.76938 0.13001 0.30987 0.0
C854 C 0.77717 0.14028 0.33972 0.0
C855 C 0.74471 0.1102 0.30795 0.0
C856 C 0.79139 0.11644 0.29424 0.0
C857 C 0.79972 0.13137 0.27363 0.0
C858 C 0.81897 0.12216 0.25562 0.0
C859 C 0.83 0.09703 0.25877 0.0
C860 C 0.82171 0.08129 0.2797 0.0
C861 C 0.80223 0.09138 0.29772 0.0
H862 H 0.39719 0.01529 0.95588 0.0
H863 H 0.40278 0.06255 0.03682 0.0
H864 H 0.36619 0.03286 0.05162 0.0
H865 H 0.32809 0.99762 0.95236 0.0
H866 H 0.33135 0.96232 0.93614 0.0
H867 H 0.35532 0.98979 0.93075 0.0
H868 H 0.39139 0.96139 0.94747 0.0
H869 H 0.3676 0.93373 0.95254 0.0
H870 H 0.38857 0.94942 0.98034 0.0
H871 H 0.32931 0.99732 0.0576 0.0
H872 H 0.30034 0.95416 0.0568 0.0
H873 H 0.32366 0.92634 0.97413 0.0
C874 C 0.39077 0.01932 0.97673 0.0
C875 C 0.40246 0.04156 0.99507 0.0
C876 C 0.3935 0.0462 0.02221 0.0
C877 C 0.37283 0.02938 0.0308 0.0
C878 C 0.36173 0.00759 0.01215 0.0
C879 C 0.37079 1.00214 0.98586 0.0
C880 C 0.35769 0.97553 0.97078 0.0
C881 C 0.34219 0.9817 0.94605 0.0
C882 C 0.37749 0.95373 0.9623 0.0
C883 C 0.33999 0.96668 0.99279 0.0
C884 C 0.34205 0.98587 0.01625 0.0
C885 C 0.32755 0.98216 0.03936 0.0
C886 C 0.31108 0.95777 0.0387 0.0
C887 C 0.30987 0.9373 0.01538 0.0
C888 C 0.32423 0.94194 0.99209 0.0
H889 H 0.2467 0.34289 0.32089 0.0
H890 H 0.30902 0.40786 0.32782 0.0
H891 H 0.27718 0.44405 0.3297 0.0
H892 H 0.20619 0.3741 0.27777 0.0
H893 H 0.17643 0.36326 0.29328 0.0
H894 H 0.20409 0.34283 0.29403 0.0
H895 H 0.20155 0.34723 0.34671 0.0
H896 H 0.17386 0.36774 0.34613 0.0
H897 H 0.20189 0.38148 0.36646 0.0
H898 H 0.23891 0.47254 0.32844 0.0
H899 H 0.19668 0.49188 0.32336 0.0
H900 H 0.15889 0.40824 0.3182 0.0
C901 C 0.25346 0.3648 0.32319 0.0
C902 C 0.28011 0.37287 0.3243 0.0
C903 C 0.28856 0.40155 0.32683 0.0
C904 C 0.27068 0.42212 0.32806 0.0
C905 C 0.24445 0.41352 0.32686 0.0
C906 C 0.23583 0.38556 0.3245 0.0
C907 C 0.20664 0.3819 0.3225 0.0
C908 C 0.19783 0.3645 0.29527 0.0
C909 C 0.19532 0.36882 0.34691 0.0
C910 C 0.20021 0.41214 0.32367 0.0
C911 C 0.22231 0.43003 0.32634 0.0
C912 C 0.22144 0.4588 0.32661 0.0
C913 C 0.19735 0.46957 0.32368 0.0
C914 C 0.17447 0.4516 0.32054 0.0
C915 C 0.17598 0.42256 0.32096 0.0
H916 H 0.11713 0.99746 0.44658 0.0
H917 H 0.08297 0.03828 0.51958 0.0
H918 H 0.12469 0.06576 0.53176 0.0
H919 H 0.18449 0.99674 0.47386 0.0
H920 H 0.19815 0.00381 0.44183 0.0
H921 H 0.16742 0.98408 0.44237 0.0
H922 H 0.1469 0.01933 0.41516 0.0
H923 H 0.17731 0.03954 0.41503 0.0
H924 H 0.14906 0.05603 0.4286 0.0
H925 H 0.16872 0.09323 0.53192 0.0
H926 H 0.21109 0.11615 0.52166 0.0
H927 H 0.21481 0.05774 0.44718 0.0
C928 C 0.11889 0.01148 0.46561 0.0
C929 C 0.09724 0.01574 0.48238 0.0
C930 C 0.09967 0.03455 0.50686 0.0
C931 C 0.12319 0.05029 0.51374 0.0
C932 C 0.14393 0.04666 0.49591 0.0
C933 C 0.14202 0.02735 0.47252 0.0
C934 C 0.16594 0.02913 0.45529 0.0
C935 C 0.17983 1.00182 0.45323 0.0
C936 C 0.1594 0.03645 0.42685 0.0
C937 C 0.18145 0.053 0.47215 0.0
C938 C 0.16868 0.06271 0.49567 0.0
C939 C 0.17899 0.08551 0.51373 0.0
C940 C 0.20301 0.09849 0.50766 0.0
C941 C 0.21631 0.08881 0.48358 0.0
C942 C 0.20524 0.06572 0.46576 0.0
H943 H 0.74226 0.18964 0.78414 0.0
H944 H 0.78606 0.1432 0.72149 0.0
H945 H 0.76334 0.09884 0.731 0.0
H946 H 0.7353 0.13485 0.83148 0.0
H947 H 0.70254 0.14289 0.83961 0.0
H948 H 0.72569 0.17001 0.83145 0.0
H949 H 0.69495 0.18059 0.79343 0.0
H950 H 0.6719 0.1533 0.80114 0.0
H951 H 0.68407 0.15278 0.767 0.0
H952 H 0.73232 0.06079 0.74322 0.0
H953 H 0.69549 0.03128 0.7574 0.0
H954 H 0.67023 0.10262 0.81137 0.0
C955 C 0.74775 0.16988 0.77347 0.0
C956 C 0.76675 0.16936 0.75313 0.0
C957 C 0.7725 0.14357 0.73811 0.0
C958 C 0.7595 0.11843 0.74322 0.0
C959 C 0.74052 0.11958 0.76316 0.0
C960 C 0.73469 0.14463 0.77817 0.0
C961 C 0.71153 0.14047 0.79621 0.0
C962 C 0.71923 0.14747 0.82649 0.0
C963 C 0.68931 0.15781 0.789 0.0
C964 C 0.70484 0.10935 0.78848 0.0
C965 C 0.72199 0.09767 0.76961 0.0
C966 C 0.71899 0.06961 0.75828 0.0
C967 C 0.69791 0.05303 0.76639 0.0
C968 C 0.67995 0.06456 0.78557 0.0
C969 C 0.6837 0.09308 0.79687 0.0
H970 H 0.41154 0.01238 0.57424 0.0
H971 H 0.45599 0.98841 0.50197 0.0
H972 H 0.4316 0.01911 0.47663 0.0
H973 H 0.3514 0.01449 0.54094 0.0
H974 H 0.34127 0.04466 0.5628 0.0
H975 H 0.36316 0.02207 0.57564 0.0
H976 H 0.3961 0.06452 0.58911 0.0
H977 H 0.37428 0.08728 0.5763 0.0
H978 H 0.40682 0.08601 0.56368 0.0
H979 H 0.40075 0.04919 0.45855 0.0
H980 H 0.3655 0.07804 0.44845 0.0
H981 H 0.34171 0.0848 0.53299 0.0
C982 C 0.41623 0.01407 0.5532 0.0
C983 C 0.4355 0.99827 0.53983 0.0
C984 C 0.44114 1.00043 0.51227 0.0
C985 C 0.42751 0.01784 0.49787 0.0
C986 C 0.40848 0.0331 0.51151 0.0
C987 C 0.40289 0.03158 0.53859 0.0
C988 C 0.3809 0.04955 0.54803 0.0
C989 C 0.35782 0.03162 0.55739 0.0
C990 C 0.39008 0.07325 0.57062 0.0
C991 C 0.37468 0.06091 0.52187 0.0
C992 C 0.39092 0.05115 0.50113 0.0
C993 C 0.38811 0.05728 0.47467 0.0
C994 C 0.36799 0.0736 0.46913 0.0
C995 C 0.35103 0.08378 0.48998 0.0
C996 C 0.35469 0.07769 0.51679 0.0
H997 H 0.6015 0.50702 0.55427 0.0
H998 H 0.54557 0.46163 0.49716 0.0
H999 H 0.5789 0.43082 0.47786 0.0
H1000 H 0.66141 0.49779 0.51182 0.0
H1001 H 0.68035 0.49179 0.54076 0.0
H1002 H 0.654 0.51438 0.54549 0.0
H1003 H 0.63403 0.48432 0.58066 0.0
H1004 H 0.65995 0.46128 0.57567 0.0
H1005 H 0.6269 0.44728 0.57076 0.0
H1006 H 0.61671 0.40178 0.46815 0.0
H1007 H 0.65589 0.3758 0.46909 0.0
H1008 H 0.68672 0.43632 0.53622 0.0
C1009 C 0.59687 0.49157 0.53666 0.0
C1010 C 0.57146 0.48804 0.52571 0.0
C1011 C 0.56535 0.46612 0.50424 0.0
C1012 C 0.58409 0.44815 0.49359 0.0
C1013 C 0.60879 0.45174 0.50523 0.0
C1014 C 0.61526 0.47286 0.52639 0.0
C1015 C 0.64198 0.46965 0.53778 0.0
C1016 C 0.66053 0.4949 0.53371 0.0
C1017 C 0.64062 0.46538 0.56801 0.0
C1018 C 0.64933 0.44324 0.52 0.0
C1019 C 0.63002 0.43356 0.50111 0.0
C1020 C 0.63203 0.40928 0.48274 0.0
C1021 C 0.65439 0.3946 0.48349 0.0
C1022 C 0.67444 0.40387 0.50277 0.0
C1023 C 0.67174 0.42856 0.52131 0.0
H1024 H 0.69623 0.23669 0.34899 0.0
H1025 H 0.76692 0.24511 0.30353 0.0
H1026 H 0.78897 0.27038 0.34492 0.0
H1027 H 0.70139 0.30547 0.38196 0.0
H1028 H 0.68758 0.29773 0.41371 0.0
H1029 H 0.67866 0.27559 0.38238 0.0
H1030 H 0.69276 0.2322 0.40262 0.0
H1031 H 0.70137 0.25411 0.43421 0.0
H1032 H 0.7249 0.23266 0.41667 0.0
H1033 H 0.80205 0.29815 0.38986 0.0
H1034 H 0.80575 0.32647 0.43519 0.0
H1035 H 0.72491 0.30489 0.45013 0.0
C1036 C 0.71647 0.24349 0.34796 0.0
C1037 C 0.72999 0.23882 0.32317 0.0
C1038 C 0.75644 0.24792 0.32247 0.0
C1039 C 0.76899 0.26253 0.34581 0.0
C1040 C 0.7547 0.26806 0.36955 0.0
C1041 C 0.72901 0.2588 0.37082 0.0
C1042 C 0.71732 0.26991 0.39788 0.0
C1043 C 0.69492 0.28826 0.39372 0.0
C1044 C 0.70858 0.24578 0.41379 0.0
C1045 C 0.74037 0.28725 0.41155 0.0
C1046 C 0.76181 0.28549 0.39497 0.0
C1047 C 0.78543 0.29959 0.40303 0.0
C1048 C 0.7873 0.31567 0.42881 0.0
C1049 C 0.76559 0.31796 0.44612 0.0
C1050 C 0.74175 0.30372 0.43723 0.0
H1051 H 0.45818 0.05117 0.91467 0.0
H1052 H 0.5096 0.09475 0.97764 0.0
H1053 H 0.54681 0.08794 0.94641 0.0
H1054 H 0.49781 0.99832 0.89472 0.0
H1055 H 0.48912 0.99417 0.85905 0.0
H1056 H 0.46661 0.00759 0.88424 0.0
H1057 H 0.46354 0.05194 0.8605 0.0
H1058 H 0.48601 0.03858 0.83506 0.0
H1059 H 0.49261 0.07274 0.85441 0.0
H1060 H 0.57896 0.07135 0.90881 0.0
H1061 H 0.60224 0.04487 0.87085 0.0
H1062 H 0.52887 0.00957 0.83522 0.0
C1063 C 0.47725 0.05981 0.92156 0.0
C1064 C 0.48116 0.07369 0.94827 0.0
C1065 C 0.50626 0.08455 0.95697 0.0
C1066 C 0.52745 0.08065 0.93939 0.0
C1067 C 0.52302 0.06588 0.91331 0.0
C1068 C 0.4984 0.05569 0.90453 0.0
C1069 C 0.4987 0.03772 0.87711 0.0
C1070 C 0.48741 0.00769 0.87891 0.0
C1071 C 0.48437 0.05105 0.85549 0.0
C1072 C 0.5274 0.03857 0.87201 0.0
C1073 C 0.54123 0.05539 0.89267 0.0
C1074 C 0.56824 0.05834 0.89246 0.0
C1075 C 0.58131 0.04332 0.87086 0.0
C1076 C 0.56729 0.02514 0.8503 0.0
C1077 C 0.54006 0.02326 0.85077 0.0
H1078 H 0.30176 0.26406 0.32338 0.0
H1079 H 0.35693 0.32122 0.37165 0.0
H1080 H 0.35903 0.2878 0.40537 0.0
H1081 H 0.26614 0.24469 0.37528 0.0
H1082 H 0.25951 0.20825 0.36199 0.0
H1083 H 0.26616 0.23358 0.33901 0.0
H1084 H 0.30389 0.20603 0.31763 0.0
H1085 H 0.29685 0.17994 0.33987 0.0
H1086 H 0.32892 0.1968 0.3394 0.0
H1087 H 0.34815 0.25235 0.43771 0.0
H1088 H 0.33127 0.21377 0.46244 0.0
H1089 H 0.28434 0.17884 0.39178 0.0
C1090 C 0.31539 0.26859 0.34025 0.0
C1091 C 0.32984 0.2946 0.3447 0.0
C1092 C 0.34651 0.30086 0.36763 0.0
C1093 C 0.3475 0.28218 0.38696 0.0
C1094 C 0.33191 0.25722 0.38274 0.0
C1095 C 0.31674 0.25002 0.35949 0.0
C1096 C 0.30035 0.22305 0.36067 0.0
C1097 C 0.27133 0.22769 0.35915 0.0
C1098 C 0.30797 0.20009 0.33805 0.0
C1099 C 0.30795 0.21665 0.38857 0.0
C1100 C 0.32608 0.23662 0.40108 0.0
C1101 C 0.33443 0.23624 0.42784 0.0
C1102 C 0.32452 0.21445 0.44184 0.0
C1103 C 0.30664 0.19324 0.42897 0.0
C1104 C 0.29825 0.19456 0.40203 0.0
H1105 H 0.49874 0.51407 0.95038 0.0
H1106 H 0.55839 0.48888 0.89296 0.0
H1107 H 0.52852 0.49178 0.85452 0.0
H1108 H 0.44677 0.47369 0.91266 0.0
H1109 H 0.42344 0.49929 0.92172 0.0
H1110 H 0.45013 0.49691 0.9444 0.0
H1111 H 0.46345 0.54951 0.94371 0.0
H1112 H 0.43688 0.55201 0.92089 0.0
H1113 H 0.46938 0.56221 0.91152 0.0
H1114 H 0.49177 0.49671 0.82249 0.0
H1115 H 0.45024 0.50057 0.7992 0.0
H1116 H 0.41408 0.52069 0.87784 0.0
C1117 C 0.5054 0.50926 0.92967 0.0
C1118 C 0.53088 0.5017 0.92446 0.0
C1119 C 0.53906 0.49533 0.89721 0.0
C1120 C 0.52223 0.49681 0.87533 0.0
C1121 C 0.49721 0.50446 0.88112 0.0
C1122 C 0.48875 0.51037 0.90763 0.0
C1123 C 0.4606 0.51681 0.90833 0.0
C1124 C 0.44427 0.49539 0.92262 0.0
C1125 C 0.4574 0.54693 0.92191 0.0
C1126 C 0.45449 0.51347 0.87809 0.0
C1127 C 0.4759 0.50658 0.86272 0.0
C1128 C 0.47486 0.50214 0.8343 0.0
C1129 C 0.45121 0.50445 0.82126 0.0
C1130 C 0.42887 0.51093 0.83665 0.0
C1131 C 0.43076 0.51573 0.86544 0.0
H1132 H 0.76888 0.73922 0.20426 0.0
H1133 H 0.69438 0.75988 0.17671 0.0
H1134 H 0.70627 0.74469 0.12877 0.0
H1135 H 0.80709 0.75781 0.14436 0.0
H1136 H 0.82686 0.72856 0.14446 0.0
H1137 H 0.81396 0.745 0.17597 0.0
H1138 H 0.79297 0.69699 0.18512 0.0
H1139 H 0.80558 0.68045 0.1536 0.0
H1140 H 0.77136 0.67716 0.15993 0.0
H1141 H 0.72429 0.72286 0.08497 0.0
H1142 H 0.74705 0.69569 0.04774 0.0
H1143 H 0.81003 0.68791 0.10354 0.0
C1144 C 0.75558 0.74129 0.1879 0.0
C1145 C 0.73099 0.75115 0.1937 0.0
C1146 C 0.71344 0.75275 0.17222 0.0
C1147 C 0.72006 0.7442 0.1451 0.0
C1148 C 0.74429 0.73395 0.13992 0.0
C1149 C 0.76186 0.73253 0.16067 0.0
C1150 C 0.78559 0.71827 0.14975 0.0
C1151 C 0.80981 0.73863 0.15388 0.0
C1152 C 0.78906 0.69164 0.16288 0.0
C1153 C 0.7783 0.71125 0.1198 0.0
C1154 C 0.75454 0.7208 0.11455 0.0
C1155 C 0.74307 0.71558 0.08873 0.0
C1156 C 0.75613 0.70003 0.06772 0.0
C1157 C 0.78038 0.6897 0.07264 0.0
C1158 C 0.79166 0.69573 0.09901 0.0
H1159 H 0.99573 0.04172 0.10601 0.0
H1160 H 0.99118 0.95717 0.06324 0.0
H1161 H 0.95883 0.94259 0.09614 0.0
H1162 H 0.99033 0.02366 0.17336 0.0
H1163 H 0.97051 0.05174 0.18596 0.0
H1164 H 0.99261 0.05581 0.15853 0.0
H1165 H 0.95494 0.06724 0.12841 0.0
H1166 H 0.93271 0.06327 0.15578 0.0
H1167 H 0.92684 0.043 0.12274 0.0
H1168 H 0.92923 0.9366 0.13474 0.0
H1169 H 0.90248 0.93961 0.17596 0.0
H1170 H 0.9244 0.02863 0.19354 0.0
C1171 C 0.98765 0.02026 0.10361 0.0
C1172 C 0.99601 1.00037 0.08242 0.0
C1173 C 0.98518 0.97245 0.07966 0.0
C1174 C 0.96677 0.96409 0.09813 0.0
C1175 C 0.95918 0.98402 0.11909 0.0
C1176 C 0.96907 0.01159 0.12186 0.0
C1177 C 0.95777 0.02862 0.14651 0.0
C1178 C 0.97908 0.04066 0.16732 0.0
C1179 C 0.94213 0.05191 0.13784 0.0
C1180 C 0.94029 0.00621 0.15734 0.0
C1181 C 0.94146 0.98067 0.14115 0.0
C1182 C 0.92794 0.95653 0.14745 0.0
C1183 C 0.91285 0.95845 0.17098 0.0
C1184 C 0.91122 0.98436 0.18792 0.0
C1185 C 0.925 0.0086 0.18082 0.0
H1186 H 0.30888 0.76332 0.19135 0.0
H1187 H 0.24015 0.7887 0.23461 0.0
H1188 H 0.22982 0.81713 0.19837 0.0
H1189 H 0.32542 0.83031 0.16519 0.0
H1190 H 0.33646 0.81308 0.13313 0.0
H1191 H 0.33921 0.79688 0.16362 0.0
H1192 H 0.31355 0.75225 0.13984 0.0
H1193 H 0.3105 0.76838 0.1094 0.0
H1194 H 0.282 0.75512 0.12555 0.0
H1195 H 0.22561 0.83998 0.15537 0.0
H1196 H 0.22851 0.85637 0.11012 0.0
H1197 H 0.30042 0.81601 0.0956 0.0
C1198 C 0.29205 0.77547 0.19342 0.0
C1199 C 0.27534 0.77411 0.21571 0.0
C1200 C 0.25311 0.78965 0.21759 0.0
C1201 C 0.24716 0.80581 0.19717 0.0
C1202 C 0.26376 0.80628 0.17507 0.0
C1203 C 0.28587 0.79168 0.17322 0.0
C1204 C 0.29989 0.79458 0.14685 0.0
C1205 C 0.32684 0.80962 0.15254 0.0
C1206 C 0.30157 0.76588 0.12938 0.0
C1207 C 0.28202 0.81267 0.13392 0.0
C1208 C 0.26134 0.81934 0.15051 0.0
C1209 C 0.24187 0.83509 0.14233 0.0
C1210 C 0.24364 0.84425 0.11656 0.0
C1211 C 0.2647 0.83759 0.09924 0.0
C1212 C 0.28411 0.82167 0.1083 0.0
H1213 H 0.9827 0.43332 0.13561 0.0
H1214 H 0.03587 0.46407 0.07781 0.0
H1215 H 0.07133 0.46863 0.11224 0.0
H1216 H 0.00291 0.47847 0.19034 0.0
H1217 H 0.99966 0.45483 0.21553 0.0
H1218 H 0.98011 0.44829 0.18503 0.0
H1219 H 0.99698 0.39889 0.17343 0.0
H1220 H 0.01619 0.40488 0.20434 0.0
H1221 H 0.0313 0.39507 0.17201 0.0
H1222 H 0.0978 0.47895 0.15567 0.0
H1223 H 0.11506 0.48842 0.20295 0.0
H1224 H 0.04483 0.4487 0.23187 0.0
C1225 C 0.00219 0.43955 0.12998 0.0
C1226 C 0.00704 0.44772 0.10417 0.0
C1227 C 0.03229 0.45703 0.09741 0.0
C1228 C 0.05235 0.45985 0.11687 0.0
C1229 C 0.04673 0.45281 0.14275 0.0
C1230 C 0.02237 0.44215 0.1491 0.0
C1231 C 0.02062 0.4386 0.17895 0.0
C1232 C 0.99959 0.4561 0.19329 0.0
C1233 C 0.01601 0.40751 0.18238 0.0
C1234 C 0.04738 0.45008 0.18872 0.0
C1235 C 0.06221 0.45813 0.16758 0.0
C1236 C 0.08664 0.47199 0.17225 0.0
C1237 C 0.0962 0.47749 0.19915 0.0
C1238 C 0.08141 0.46897 0.22097 0.0
C1239 C 0.05681 0.45488 0.21552 0.0
H1240 H 0.34915 0.72399 0.25379 0.0
H1241 H 0.29075 0.71821 0.31549 0.0
H1242 H 0.32388 0.70649 0.34744 0.0
H1243 H 0.39143 0.6711 0.27288 0.0
H1244 H 0.42041 0.69203 0.26677 0.0
H1245 H 0.3914 0.6944 0.24736 0.0
H1246 H 0.39342 0.74808 0.26234 0.0
H1247 H 0.42249 0.74589 0.2815 0.0
H1248 H 0.39507 0.76144 0.29816 0.0
H1249 H 0.36486 0.69999 0.37421 0.0
H1250 H 0.40921 0.70457 0.39413 0.0
H1251 H 0.44048 0.71925 0.3159 0.0
C1252 C 0.34332 0.72004 0.27395 0.0
C1253 C 0.31737 0.7219 0.28213 0.0
C1254 C 0.31044 0.71637 0.30863 0.0
C1255 C 0.32916 0.70977 0.32692 0.0
C1256 C 0.3548 0.70892 0.31844 0.0
C1257 C 0.36183 0.71414 0.29257 0.0
C1258 C 0.39088 0.71556 0.28936 0.0
C1259 C 0.399 0.69185 0.26781 0.0
C1260 C 0.40105 0.74445 0.28245 0.0
C1261 C 0.39924 0.71114 0.31769 0.0
C1262 C 0.37822 0.70655 0.33404 0.0
C1263 C 0.38142 0.70324 0.36146 0.0
C1264 C 0.40664 0.70564 0.37259 0.0
C1265 C 0.42816 0.71192 0.35644 0.0
C1266 C 0.42433 0.714 0.32856 0.0
H1267 H 0.99659 0.42876 0.01431 0.0
H1268 H 0.97916 0.38906 0.08585 0.0
H1269 H 0.9888 0.34297 0.06033 0.0
H1270 H 0.96542 0.37819 0.9685 0.0
H1271 H 0.98799 0.38055 0.94112 0.0
H1272 H 0.98454 0.41042 0.96643 0.0
H1273 H 0.03362 0.41328 0.9774 0.0
H1274 H 0.03734 0.38352 0.95185 0.0
H1275 H 0.04817 0.38289 0.98637 0.0
H1276 H 0.99458 0.30034 0.02415 0.0
H1277 H 0.99669 0.26626 0.98201 0.0
H1278 H 0.00951 0.3353 0.93486 0.0
C1279 C 0.99559 0.4104 0.0247 0.0
C1280 C 0.98736 0.41217 0.0519 0.0
C1281 C 0.98584 0.38792 0.06505 0.0
C1282 C 0.99117 0.36176 0.05066 0.0
C1283 C 0.99822 0.36048 0.0233 0.0
C1284 C 1.00073 0.38435 0.01063 0.0
C1285 C 0.00609 0.37745 0.98059 0.0
C1286 C 0.98474 0.38722 0.96315 0.0
C1287 C 0.03291 0.39003 0.97365 0.0
C1288 C 0.00541 0.34589 0.97798 0.0
C1289 C 1.00119 0.33632 0.00278 0.0
C1290 C 0.99829 0.30768 0.00473 0.0
C1291 C 0.99949 0.28846 0.9807 0.0
C1292 C 0.00326 0.29804 0.95509 0.0
C1293 C 0.00666 0.32716 0.95405 0.0
H1294 H 0.65329 0.77452 0.26387 0.0
H1295 H 0.69814 0.71087 0.29041 0.0
H1296 H 0.66199 0.69725 0.32007 0.0
H1297 H 0.62528 0.79648 0.32815 0.0
H1298 H 0.59457 0.80264 0.31381 0.0
H1299 H 0.62356 0.80596 0.29424 0.0
H1300 H 0.60307 0.76996 0.25511 0.0
H1301 H 0.57402 0.76651 0.27459 0.0
H1302 H 0.59083 0.73592 0.26228 0.0
H1303 H 0.62043 0.69209 0.34788 0.0
H1304 H 0.57828 0.69622 0.3713 0.0
H1305 H 0.562 0.76378 0.32564 0.0
C1306 C 0.65527 0.75767 0.27593 0.0
C1307 C 0.67819 0.74367 0.27521 0.0
C1308 C 0.68052 0.72169 0.291 0.0
C1309 C 0.66015 0.7139 0.30776 0.0
C1310 C 0.6377 0.72834 0.30827 0.0
C1311 C 0.63524 0.74977 0.2927 0.0
C1312 C 0.60962 0.76259 0.29721 0.0
C1313 C 0.6135 0.79376 0.30907 0.0
C1314 C 0.59343 0.75848 0.27072 0.0
C1315 C 0.59799 0.74522 0.3179 0.0
C1316 C 0.61428 0.72547 0.32405 0.0
C1317 C 0.6075 0.70744 0.3431 0.0
C1318 C 0.58354 0.7099 0.35629 0.0
C1319 C 0.5668 0.73031 0.35038 0.0
C1320 C 0.57424 0.74792 0.33074 0.0
H1321 H 0.03919 0.08106 0.03121 0.0
H1322 H 0.03536 0.00463 0.97428 0.0
H1323 H 0.03384 0.03192 0.9359 0.0
H1324 H 0.99191 0.11156 0.99792 0.0
H1325 H 0.00586 0.14706 0.00477 0.0
H1326 H 0.01224 0.12227 0.02758 0.0
H1327 H 0.06151 0.1316 0.02155 0.0
H1328 H 0.05534 0.15678 0.999 0.0
H1329 H 0.07483 0.128 0.98774 0.0
H1330 H 0.02801 0.06719 0.90389 0.0
H1331 H 0.01827 0.10735 0.88069 0.0
H1332 H 0.02179 0.16126 0.95849 0.0
C1333 C 0.03905 0.07027 0.01056 0.0
C1334 C 0.03876 0.04068 0.00572 0.0
C1335 C 0.03731 0.02713 0.97853 0.0
C1336 C 0.03592 0.04258 0.95656 0.0
C1337 C 0.03552 0.07163 0.96208 0.0
C1338 C 0.03705 0.08539 0.98845 0.0
C1339 C 0.03328 0.11638 0.98906 0.0
C1340 C 0.0094 0.1248 0.00582 0.0
C1341 C 0.0577 0.13424 0.99998 0.0
C1342 C 0.02899 0.11783 0.95895 0.0
C1343 C 0.03068 0.09182 0.94375 0.0
C1344 C 0.02684 0.08768 0.91558 0.0
C1345 C 0.02124 0.11068 0.90258 0.0
C1346 C 0.0192 0.13755 0.91768 0.0
C1347 C 0.02318 0.14104 0.94631 0.0
H1348 H 0.37386 0.36063 0.29772 0.0
H1349 H 0.342 0.27473 0.2886 0.0
H1350 H 0.37547 0.26142 0.25453 0.0
H1351 H 0.37838 0.36234 0.2294 0.0
H1352 H 0.40723 0.38555 0.23056 0.0
H1353 H 0.38627 0.38691 0.25952 0.0
H1354 H 0.42436 0.37834 0.29055 0.0
H1355 H 0.44567 0.37741 0.26176 0.0
H1356 H 0.44306 0.34845 0.28127 0.0
H1357 H 0.40878 0.25905 0.21689 0.0
H1358 H 0.43687 0.2679 0.17803 0.0
H1359 H 0.44186 0.35675 0.20729 0.0
C1360 C 0.37448 0.33887 0.28908 0.0
C1361 C 0.35555 0.31863 0.2959 0.0
C1362 C 0.35671 0.2904 0.28414 0.0
C1363 C 0.37553 0.28276 0.2646 0.0
C1364 C 0.39285 0.3037 0.25694 0.0
C1365 C 0.39241 0.33124 0.26887 0.0
C1366 C 0.40993 0.3506 0.25422 0.0
C1367 C 0.39453 0.37263 0.24275 0.0
C1368 C 0.43207 0.36452 0.27308 0.0
C1369 C 0.41982 0.32984 0.23163 0.0
C1370 C 0.41037 0.30278 0.23399 0.0
C1371 C 0.41641 0.28012 0.21503 0.0
C1372 C 0.43229 0.2853 0.19305 0.0
C1373 C 0.44134 0.31295 0.18986 0.0
C1374 C 0.43515 0.33544 0.20943 0.0
H1375 H 0.53559 0.48998 0.02641 0.0
H1376 H 0.60259 0.44982 0.99277 0.0
H1377 H 0.60192 0.4207 0.03003 0.0
H1378 H 0.54629 0.48331 0.10085 0.0
H1379 H 0.51233 0.47468 0.10521 0.0
H1380 H 0.52269 0.49791 0.08114 0.0
H1381 H 0.49678 0.46585 0.04278 0.0
H1382 H 0.48644 0.44254 0.06657 0.0
H1383 H 0.50298 0.4293 0.03601 0.0
H1384 H 0.58954 0.39053 0.06641 0.0
H1385 H 0.56482 0.3598 0.09464 0.0
H1386 H 0.50313 0.41644 0.10138 0.0
C1387 C 0.55068 0.47577 0.0276 0.0
C1388 C 0.56961 0.47279 0.00718 0.0
C1389 C 0.58861 0.4534 0.00875 0.0
C1390 C 0.58819 0.43655 0.02981 0.0
C1391 C 0.56849 0.43916 0.049 0.0
C1392 C 0.55 0.45831 0.04797 0.0
C1393 C 0.52822 0.4537 0.06756 0.0
C1394 C 0.52735 0.4789 0.09002 0.0
C1395 C 0.50208 0.44746 0.05232 0.0
C1396 C 0.53672 0.42821 0.07897 0.0
C1397 C 0.5604 0.42066 0.06874 0.0
C1398 C 0.5712 0.39654 0.07488 0.0
C1399 C 0.55705 0.37924 0.09104 0.0
C1400 C 0.53208 0.38577 0.1003 0.0
C1401 C 0.52228 0.41105 0.09485 0.0
H1402 H 0.68663 0.24431 0.21524 0.0
H1403 H 0.63807 0.21636 0.27858 0.0
H1404 H 0.59906 0.22644 0.25365 0.0
H1405 H 0.651 0.30165 0.20483 0.0
H1406 H 0.65528 0.2982 0.16843 0.0
H1407 H 0.67912 0.28614 0.18971 0.0
H1408 H 0.67407 0.23675 0.16155 0.0
H1409 H 0.65028 0.2487 0.14005 0.0
H1410 H 0.64249 0.21861 0.15716 0.0
H1411 H 0.56611 0.24204 0.22373 0.0
H1412 H 0.54048 0.26289 0.19093 0.0
H1413 H 0.61031 0.28196 0.14667 0.0
C1414 C 0.66766 0.23987 0.22338 0.0
C1415 C 0.66498 0.22937 0.24852 0.0
C1416 C 0.64015 0.22428 0.2592 0.0
C1417 C 0.61805 0.22988 0.24519 0.0
C1418 C 0.62125 0.24062 0.22058 0.0
C1419 C 0.64539 0.24557 0.2097 0.0
C1420 C 0.64344 0.25886 0.18378 0.0
C1421 C 0.65807 0.28794 0.18689 0.0
C1422 C 0.65314 0.23957 0.15918 0.0
C1423 C 0.61448 0.26103 0.18208 0.0
C1424 C 0.60211 0.25012 0.2034 0.0
C1425 C 0.57553 0.25048 0.20683 0.0
C1426 C 0.56115 0.26246 0.18808 0.0
C1427 C 0.57335 0.2741 0.16617 0.0
C1428 C 0.60038 0.27312 0.16308 0.0
H1429 H 0.48149 0.11824 0.01897 0.0
H1430 H 0.43898 0.13758 0.94974 0.0
H1431 H 0.44748 0.1884 0.96557 0.0
H1432 H 0.45726 0.16537 0.06547 0.0
H1433 H 0.486 0.1755 0.08595 0.0
H1434 H 0.48243 0.14149 0.066 0.0
H1435 H 0.52545 0.15111 0.04135 0.0
H1436 H 0.52965 0.18501 0.06179 0.0
H1437 H 0.5303 0.18225 0.02511 0.0
H1438 H 0.45229 0.23551 0.99428 0.0
H1439 H 0.45714 0.2759 0.03081 0.0
H1440 H 0.4978 0.22575 0.08103 0.0
C1441 C 0.4754 0.13338 0.00647 0.0
C1442 C 0.4603 0.12447 0.98287 0.0
C1443 C 0.45127 0.1444 0.96743 0.0
C1444 C 0.45587 0.17315 0.97641 0.0
C1445 C 0.46981 0.18139 1.00066 0.0
C1446 C 0.48 0.16205 0.01514 0.0
C1447 C 0.49164 0.17592 0.04209 0.0
C1448 C 0.47854 0.16385 0.06628 0.0
C1449 C 0.52101 0.17343 0.04261 0.0
C1450 C 0.48521 0.20585 0.04122 0.0
C1451 C 0.47282 0.20867 0.01709 0.0
C1452 C 0.46261 0.23373 0.01292 0.0
C1453 C 0.46525 0.25648 0.03386 0.0
C1454 C 0.47804 0.25402 0.05864 0.0
C1455 C 0.48838 0.22843 0.0621 0.0
H1456 H 0.24351 0.3273 0.71319 0.0
H1457 H 0.27305 0.28081 0.77376 0.0
H1458 H 0.30669 0.31906 0.78733 0.0
H1459 H 0.30787 0.36244 0.69554 0.0
H1460 H 0.2935 0.39474 0.69212 0.0
H1461 H 0.27487 0.36174 0.68385 0.0
H1462 H 0.23966 0.37942 0.71766 0.0
H1463 H 0.25824 0.41227 0.7263 0.0
H1464 H 0.24847 0.39162 0.75272 0.0
H1465 H 0.33145 0.36439 0.79951 0.0
H1466 H 0.34844 0.41379 0.80803 0.0
H1467 H 0.30456 0.43206 0.73877 0.0
C1468 C 0.25785 0.32493 0.72847 0.0
C1469 C 0.25638 0.30108 0.74213 0.0
C1470 C 0.27451 0.29882 0.76286 0.0
C1471 C 0.29353 0.32041 0.77064 0.0
C1472 C 0.29412 0.34412 0.75741 0.0
C1473 C 0.27701 0.34647 0.73652 0.0
C1474 C 0.28034 0.37539 0.7276 0.0
C1475 C 0.28971 0.37346 0.69802 0.0
C1476 C 0.25518 0.39056 0.73131 0.0
C1477 C 0.30124 0.38921 0.74747 0.0
C1478 C 0.30896 0.37061 0.76431 0.0
C1479 C 0.32609 0.37896 0.78604 0.0
C1480 C 0.33551 0.40704 0.79082 0.0
C1481 C 0.32804 0.42644 0.77382 0.0
C1482 C 0.31101 0.41737 0.7516 0.0
H1483 H 0.22798 0.66477 0.81445 0.0
H1484 H 0.26941 0.71192 0.75797 0.0
H1485 H 0.30386 0.67858 0.75466 0.0
H1486 H 0.28668 0.64461 0.8494 0.0
H1487 H 0.2717 0.61058 0.85317 0.0
H1488 H 0.25216 0.64005 0.85328 0.0
H1489 H 0.22423 0.61232 0.81389 0.0
H1490 H 0.24392 0.583 0.81326 0.0
H1491 H 0.23956 0.59868 0.78269 0.0
H1492 H 0.3306 0.63667 0.75301 0.0
H1493 H 0.35031 0.59217 0.75703 0.0
H1494 H 0.29217 0.57321 0.81604 0.0
C1495 C 0.24481 0.66852 0.80221 0.0
C1496 C 0.24624 0.6908 0.78648 0.0
C1497 C 0.26812 0.69484 0.77008 0.0
C1498 C 0.28769 0.67603 0.7681 0.0
C1499 C 0.28522 0.65351 0.78298 0.0
C1500 C 0.26459 0.64999 0.80016 0.0
C1501 C 0.26593 0.62333 0.81293 0.0
C1502 C 0.26933 0.63005 0.84404 0.0
C1503 C 0.24199 0.60315 0.80522 0.0
C1504 C 0.29007 0.61203 0.79966 0.0
C1505 C 0.30094 0.62972 0.78246 0.0
C1506 C 0.32252 0.62288 0.76678 0.0
C1507 C 0.33347 0.59746 0.76904 0.0
C1508 C 0.32292 0.57925 0.78695 0.0
C1509 C 0.30092 0.58679 0.80239 0.0
H1510 H 0.86048 0.53876 0.45665 0.0
H1511 H 0.91574 0.5534 0.52347 0.0
H1512 H 0.89016 0.5197 0.54793 0.0
H1513 H 0.80184 0.52802 0.4983 0.0
H1514 H 0.78761 0.50046 0.47343 0.0
H1515 H 0.80849 0.52817 0.46258 0.0
H1516 H 0.83769 0.49152 0.43779 0.0
H1517 H 0.81682 0.46378 0.44836 0.0
H1518 H 0.85084 0.46618 0.45657 0.0
H1519 H 0.86211 0.4812 0.5624 0.0
H1520 H 0.83358 0.43878 0.56577 0.0
H1521 H 0.79502 0.44905 0.49042 0.0
C1522 C 0.86676 0.53504 0.47663 0.0
C1523 C 0.88974 0.54868 0.48855 0.0
C1524 C 0.89792 0.54323 0.51443 0.0
C1525 C 0.88351 0.52427 0.52839 0.0
C1526 C 0.86092 0.51101 0.51615 0.0
C1527 C 0.85252 0.51608 0.49086 0.0
C1528 C 0.82872 0.49722 0.4814 0.0
C1529 C 0.80527 0.51451 0.47878 0.0
C1530 C 0.83384 0.47857 0.45444 0.0
C1531 C 0.82558 0.4802 0.50493 0.0
C1532 C 0.84425 0.48879 0.52486 0.0
C1533 C 0.84703 0.47466 0.5473 0.0
C1534 C 0.83077 0.45066 0.54907 0.0
C1535 C 0.81184 0.44122 0.52871 0.0
C1536 C 0.80876 0.45654 0.50672 0.0
H1537 H 0.7759 0.8783 0.80543 0.0
H1538 H 0.73778 0.79742 0.81388 0.0
H1539 H 0.69517 0.81754 0.81324 0.0
H1540 H 0.73318 0.92024 0.84721 0.0
H1541 H 0.73363 0.94776 0.82597 0.0
H1542 H 0.7611 0.92701 0.82684 0.0
H1543 H 0.75824 0.91372 0.77436 0.0
H1544 H 0.73092 0.93466 0.7733 0.0
H1545 H 0.72825 0.89825 0.75882 0.0
H1546 H 0.65727 0.84654 0.81307 0.0
H1547 H 0.62563 0.88176 0.8102 0.0
H1548 H 0.68818 0.94409 0.80041 0.0
C1549 C 0.75848 0.86492 0.80687 0.0
C1550 C 0.75987 0.83647 0.80999 0.0
C1551 C 0.73689 0.81938 0.8119 0.0
C1552 C 0.71273 0.8306 0.81149 0.0
C1553 C 0.71198 0.85889 0.80889 0.0
C1554 C 0.73419 0.8758 0.80632 0.0
C1555 C 0.72789 0.90546 0.80353 0.0
C1556 C 0.73965 0.92634 0.82731 0.0
C1557 C 0.73685 0.91349 0.77585 0.0
C1558 C 0.69867 0.9026 0.80508 0.0
C1559 C 0.68996 0.87558 0.80829 0.0
C1560 C 0.66381 0.86775 0.81044 0.0
C1561 C 0.646 0.88798 0.80886 0.0
C1562 C 0.65437 0.91574 0.80505 0.0
C1563 C 0.68113 0.92309 0.80335 0.0
H1564 H 0.60968 0.54737 1.00139 0.0
H1565 H 0.6193 0.46794 0.95214 0.0
H1566 H 0.66633 0.47953 0.95033 0.0
H1567 H 0.65001 0.58571 0.96454 0.0
H1568 H 0.66399 0.61021 0.99229 0.0
H1569 H 0.63228 0.59357 0.99562 0.0
H1570 H 0.64665 0.57447 0.03922 0.0
H1571 H 0.67833 0.59166 0.03652 0.0
H1572 H 0.67487 0.55458 0.03838 0.0
H1573 H 0.7099 0.50252 0.94692 0.0
H1574 H 0.74899 0.53398 0.94516 0.0
H1575 H 0.71209 0.60002 0.99612 0.0
C1576 C 0.62209 0.53193 0.99168 0.0
C1577 C 0.61132 0.50616 0.97807 0.0
C1578 C 0.6276 0.48707 0.96381 0.0
C1579 C 0.65421 0.49368 0.96242 0.0
C1580 C 0.66419 0.51969 0.9752 0.0
C1581 C 0.64877 0.53845 0.98989 0.0
C1582 C 0.66391 0.56624 0.99886 0.0
C1583 C 0.65182 0.59034 0.98712 0.0
C1584 C 0.66607 0.57208 0.03011 0.0
C1585 C 0.68992 0.56043 0.98614 0.0
C1586 C 0.68961 0.53337 0.97275 0.0
C1587 C 0.71059 0.52358 0.95778 0.0
C1588 C 0.73265 0.54175 0.95671 0.0
C1589 C 0.73371 0.5695 0.97056 0.0
C1590 C 0.712 0.57887 0.98555 0.0
H1591 H 0.23092 0.71474 0.28753 0.0
H1592 H 0.29248 0.66785 0.24978 0.0
H1593 H 0.26852 0.6234 0.25767 0.0
H1594 H 0.21312 0.66735 0.33926 0.0
H1595 H 0.17921 0.67242 0.33598 0.0
H1596 H 0.20301 0.70009 0.33072 0.0
H1597 H 0.1831 0.70187 0.28301 0.0
H1598 H 0.15954 0.67391 0.28784 0.0
H1599 H 0.18033 0.6705 0.25859 0.0
H1600 H 0.23503 0.5845 0.26398 0.0
H1601 H 0.19673 0.55372 0.2723 0.0
H1602 H 0.15699 0.62637 0.30669 0.0
C1603 C 0.23957 0.69505 0.28178 0.0
C1604 C 0.2635 0.69438 0.26835 0.0
C1605 C 0.27431 0.6685 0.2605 0.0
C1606 C 0.26076 0.6433 0.26475 0.0
C1607 C 0.23661 0.64457 0.27711 0.0
C1608 C 0.22632 0.66984 0.28595 0.0
C1609 C 0.19938 0.66553 0.29709 0.0
C1610 C 0.19864 0.67703 0.32758 0.0
C1611 C 0.17942 0.67873 0.28064 0.0
C1612 C 0.19578 0.63388 0.29253 0.0
C1613 C 0.21747 0.62219 0.281 0.0
C1614 C 0.21812 0.5934 0.27342 0.0
C1615 C 0.19617 0.57612 0.27805 0.0
C1616 C 0.17387 0.58762 0.29026 0.0
C1617 C 0.17381 0.61691 0.29761 0.0
H1618 H 0.94858 0.49865 0.02519 0.0
H1619 H 0.92122 0.49977 0.10787 0.0
H1620 H 0.89173 0.53644 0.10065 0.0
H1621 H 0.94457 0.57256 0.01978 0.0
H1622 H 0.933 0.56597 0.98499 0.0
H1623 H 0.9537 0.54206 0.99769 0.0
H1624 H 0.91951 0.50086 0.9836 0.0
H1625 H 0.89887 0.52458 0.97062 0.0
H1626 H 0.88692 0.50341 0.99582 0.0
H1627 H 0.8641 0.57171 0.08344 0.0
H1628 H 0.83761 0.59911 0.05668 0.0
H1629 H 0.88158 0.57233 0.98443 0.0
C1630 C 0.93632 0.50662 0.04171 0.0
C1631 C 0.93716 0.49663 0.06713 0.0
C1632 C 0.92103 0.50759 0.0884 0.0
C1633 C 0.90428 0.52834 0.08445 0.0
C1634 C 0.90384 0.5377 0.05903 0.0
C1635 C 0.91927 0.52697 0.03795 0.0
C1636 C 0.9138 0.53889 0.01199 0.0
C1637 C 0.93769 0.55588 0.0031 0.0
C1638 C 0.90419 0.51555 0.98917 0.0
C1639 C 0.89256 0.5577 0.0216 0.0
C1640 C 0.88738 0.55716 0.0489 0.0
C1641 C 0.86806 0.57238 0.06208 0.0
C1642 C 0.85318 0.58797 0.04674 0.0
C1643 C 0.85751 0.58782 0.01847 0.0
C1644 C 0.87782 0.57291 0.006 0.0
H1645 H 0.09902 0.01183 0.05187 0.0
H1646 H 0.04658 0.96639 0.9911 0.0
H1647 H 0.08127 0.93685 0.97318 0.0
H1648 H 0.16152 0.0044 0.01383 0.0
H1649 H 0.17856 0.99776 0.0438 0.0
H1650 H 0.15189 0.01998 0.04713 0.0
H1651 H 0.12974 0.98862 0.07998 0.0
H1652 H 0.15599 0.96593 0.07635 0.0
H1653 H 0.12333 0.95168 0.06881 0.0
H1654 H 0.12019 0.90934 0.9647 0.0
H1655 H 0.15964 0.88407 0.96747 0.0
H1656 H 0.18539 0.94232 0.03844 0.0
C1657 C 0.0955 0.99669 0.0338 0.0
C1658 C 0.07074 0.99294 0.02129 0.0
C1659 C 0.06596 0.9713 0.99926 0.0
C1660 C 0.08545 0.95398 0.98941 0.0
C1661 C 0.10948 0.95779 1.00256 0.0
C1662 C 0.11455 0.97846 0.02446 0.0
C1663 C 0.14049 0.97522 0.03762 0.0
C1664 C 0.15923 1.00087 0.03546 0.0
C1665 C 0.13717 0.97005 0.06746 0.0
C1666 C 0.14903 0.94935 0.01989 0.0
C1667 C 0.13103 0.94002 0.99949 0.0
C1668 C 0.13444 0.9165 0.98054 0.0
C1669 C 0.15691 0.90224 0.98232 0.0
C1670 C 0.1755 0.91106 0.00326 0.0
C1671 C 0.17138 0.9349 0.02238 0.0
loop_
_geom_bond_atom_site_label_1
_geom_bond_atom_site_label_2
_geom_bond_distance
_geom_bond_site_symmetry_2
_ccdc_geom_bond_type
C0 N1 1.304 1_565 S
C0 N2 1.333 1_565 S
C0 C3 1.510 . S
N1 C0 1.304 1_545 S
N1 N5 1.370 . S
N2 C0 1.333 1_545 S
N2 C4 1.346 . S
C3 C0 1.510 . S
C3 H7 0.960 . S
C3 H8 0.961 . S
C3 H9 0.960 . S
C4 N2 1.346 . S
C4 N5 1.307 . S
C4 C6 1.486 1_455 S
N5 N1 1.370 . S
N5 C4 1.307 . S
C6 C4 1.486 1_655 S
C6 H10 0.960 . S
C6 H11 0.960 . S
C6 H12 0.959 . S
H7 C3 0.960 . S
H8 C3 0.961 . S
H9 C3 0.960 . S
H10 C6 0.960 . S
H11 C6 0.960 . S
H12 C6 0.959 . S
C13 N14 1.317 . S
C13 N15 1.348 . S
C13 C16 1.485 . S
N14 C13 1.317 . S
N14 N18 1.370 . S
N15 C13 1.348 . S
N15 C17 1.346 . S
C16 C13 1.485 . S
C16 H20 0.960 . S
C16 H21 0.961 . S
C16 H22 0.960 . S
C17 N15 1.346 . S
C17 N18 1.307 . S
C17 C19 1.486 . S
N18 N14 1.370 . S
N18 C17 1.307 . S
C19 C17 1.486 . S
C19 H23 0.960 . S
C19 H24 0.960 . S
C19 H25 0.959 . S
H20 C16 0.960 . S
H21 C16 0.961 . S
H22 C16 0.960 . S
H23 C19 0.960 . S
H24 C19 0.960 . S
H25 C19 0.959 . S
C26 N27 1.317 . S
C26 N28 1.348 . S
C26 C29 1.485 . S
N27 C26 1.317 . S
N27 N31 1.370 . S
N28 C26 1.348 . S
N28 C30 1.346 . S
C29 C26 1.485 . S
C29 H33 0.960 . S
C29 H34 0.961 . S
C29 H35 0.960 . S
C30 N28 1.346 . S
C30 N31 1.307 . S
C30 C32 1.486 . S
N31 N27 1.370 . S
N31 C30 1.307 . S
C32 C30 1.486 . S
C32 H36 0.960 . S
C32 H37 0.960 . S
C32 H38 0.959 . S
H33 C29 0.960 . S
H34 C29 0.961 . S
H35 C29 0.960 . S
H36 C32 0.960 . S
H37 C32 0.960 . S
H38 C32 0.959 . S
C39 N40 1.317 . S
C39 N41 1.348 . S
C39 C42 1.485 . S
N40 C39 1.317 . S
N40 N44 1.370 . S
N41 C39 1.348 . S
N41 C43 1.346 . S
C42 C39 1.485 . S
C42 H46 0.960 . S
C42 H47 0.961 . S
C42 H48 0.960 . S
C43 N41 1.346 . S
C43 N44 1.307 . S
C43 C45 1.486 . S
N44 N40 1.370 . S
N44 C43 1.307 . S
C45 C43 1.486 . S
C45 H49 0.960 . S
C45 H50 0.960 . S
C45 H51 0.959 . S
H46 C42 0.960 . S
H47 C42 0.961 . S
H48 C42 0.960 . S
H49 C45 0.960 . S
H50 C45 0.960 . S
H51 C45 0.959 . S
C52 N53 1.317 . S
C52 N54 1.348 . S
C52 C55 1.485 . S
N53 C52 1.317 . S
N53 N57 1.370 . S
N54 C52 1.348 . S
N54 C56 1.346 . S
C55 C52 1.485 . S
C55 H59 0.960 . S
C55 H60 0.961 1_455 S
C55 H61 0.960 . S
C56 N54 1.346 . S
C56 N57 1.307 . S
C56 C58 1.486 1_565 S
N57 N53 1.370 . S
N57 C56 1.307 . S
C58 C56 1.486 1_545 S
C58 H62 0.960 . S
C58 H63 0.960 1_545 S
C58 H64 0.959 . S
H59 C55 0.960 . S
H60 C55 0.961 1_655 S
H61 C55 0.960 . S
H62 C58 0.960 . S
H63 C58 0.960 1_565 S
H64 C58 0.959 . S
C65 N66 1.317 . S
C65 N67 1.348 . S
C65 C68 1.485 . S
N66 C65 1.317 . S
N66 N70 1.370 . S
N67 C65 1.348 . S
N67 C69 1.346 . S
C68 C65 1.485 . S
C68 H72 0.960 . S
C68 H73 0.961 . S
C68 H74 0.960 . S
C69 N67 1.346 . S
C69 N70 1.307 . S
C69 C71 1.486 . S
N70 N66 1.370 . S
N70 C69 1.307 . S
C71 C69 1.486 . S
C71 H75 0.960 . S
C71 H76 0.960 . S
C71 H77 0.959 . S
H72 C68 0.960 . S
H73 C68 0.961 . S
H74 C68 0.960 . S
H75 C71 0.960 . S
H76 C71 0.960 . S
H77 C71 0.959 . S
C78 N79 1.317 . S
C78 N80 1.348 . S
C78 C81 1.485 . S
N79 C78 1.317 . S
N79 N83 1.370 . S
N80 C78 1.348 . S
N80 C82 1.346 . S
C81 C78 1.485 . S
C81 H85 0.960 . S
C81 H86 0.961 . S
C81 H87 0.960 . S
C82 N80 1.346 . S
C82 N83 1.307 . S
C82 C84 1.486 . S
N83 N79 1.370 . S
N83 C82 1.307 . S
C84 C82 1.486 . S
C84 H88 0.960 . S
C84 H89 0.960 . S
C84 H90 0.959 . S
H85 C81 0.960 . S
H86 C81 0.961 . S
H87 C81 0.960 . S
H88 C84 0.960 . S
H89 C84 0.960 . S
H90 C84 0.959 . S
C91 N92 1.317 . S
C91 N93 1.348 . S
C91 C94 1.485 . S
N92 C91 1.317 . S
N92 N96 1.370 . S
N93 C91 1.348 . S
N93 C95 1.346 . S
C94 C91 1.485 . S
C94 H98 0.960 . S
C94 H99 0.961 . S
C94 H100 0.960 . S
C95 N93 1.346 . S
C95 N96 1.307 . S
C95 C97 1.486 . S
N96 N92 1.370 . S
N96 C95 1.307 . S
C97 C95 1.486 . S
C97 H101 0.960 . S
C97 H102 0.960 . S
C97 H103 0.959 . S
H98 C94 0.960 . S
H99 C94 0.961 . S
H100 C94 0.960 . S
H101 C97 0.960 . S
H102 C97 0.960 . S
H103 C97 0.959 . S
C104 N105 1.317 . S
C104 N106 1.348 . S
C104 C107 1.485 . S
N105 C104 1.317 . S
N105 N109 1.370 . S
N106 C104 1.348 . S
N106 C108 1.346 . S
C107 C104 1.485 . S
C107 H111 0.960 . S
C107 H112 0.961 . S
C107 H113 0.960 . S
C108 N106 1.346 . S
C108 N109 1.307 . S
C108 C110 1.486 . S
N109 N105 1.370 . S
N109 C108 1.307 . S
C110 C108 1.486 . S
C110 H114 0.960 . S
C110 H115 0.960 . S
C110 H116 0.959 . S
H111 C107 0.960 . S
H112 C107 0.961 . S
H113 C107 0.960 . S
H114 C110 0.960 . S
H115 C110 0.960 . S
H116 C110 0.959 . S
C117 N118 1.317 . S
C117 N119 1.348 . S
C117 C120 1.485 1_565 S
N118 C117 1.317 . S
N118 N122 1.370 . S
N119 C117 1.348 . S
N119 C121 1.346 . S
C120 C117 1.485 1_545 S
C120 H124 0.960 . S
C120 H125 0.961 . S
C120 H126 0.960 . S
C121 N119 1.346 . S
C121 N122 1.307 . S
C121 C123 1.486 . S
N122 N118 1.370 . S
N122 C121 1.307 . S
C123 C121 1.486 . S
C123 H127 0.960 . S
C123 H128 0.960 . S
C123 H129 0.959 . S
H124 C120 0.960 . S
H125 C120 0.961 . S
H126 C120 0.960 . S
H127 C123 0.960 . S
H128 C123 0.960 . S
H129 C123 0.959 . S
C130 N131 1.317 . S
C130 N132 1.348 . S
C130 C133 1.485 . S
N131 C130 1.317 . S
N131 N135 1.370 . S
N132 C130 1.348 . S
N132 C134 1.346 . S
C133 C130 1.485 . S
C133 H137 0.960 . S
C133 H138 0.961 . S
C133 H139 0.960 . S
C134 N132 1.346 . S
C134 N135 1.307 . S
C134 C136 1.486 . S
N135 N131 1.370 . S
N135 C134 1.307 . S
C136 C134 1.486 . S
C136 H140 0.960 . S
C136 H141 0.960 . S
C136 H142 0.959 . S
H137 C133 0.960 . S
H138 C133 0.961 . S
H139 C133 0.960 . S
H140 C136 0.960 . S
H141 C136 0.960 . S
H142 C136 0.959 . S
C143 N144 1.317 . S
C143 N145 1.348 . S
C143 C146 1.485 . S
N144 C143 1.317 . S
N144 N148 1.370 . S
N145 C143 1.348 . S
N145 C147 1.346 . S
C146 C143 1.485 . S
C146 H150 0.960 . S
C146 H151 0.961 . S
C146 H152 0.960 . S
C147 N145 1.346 . S
C147 N148 1.307 . S
C147 C149 1.486 . S
N148 N144 1.370 . S
N148 C147 1.307 . S
C149 C147 1.486 . S
C149 H153 0.960 . S
C149 H154 0.960 . S
C149 H155 0.959 . S
H150 C146 0.960 . S
H151 C146 0.961 . S
H152 C146 0.960 . S
H153 C149 0.960 . S
H154 C149 0.960 . S
H155 C149 0.959 . S
C156 N157 1.317 . S
C156 N158 1.348 . S
C156 C159 1.485 . S
N157 C156 1.317 . S
N157 N161 1.370 . S
N158 C156 1.348 . S
N158 C160 1.346 . S
C159 C156 1.485 . S
C159 H163 0.960 . S
C159 H164 0.961 . S
C159 H165 0.960 . S
C160 N158 1.346 . S
C160 N161 1.307 . S
C160 C162 1.486 . S
N161 N157 1.370 . S
N161 C160 1.307 . S
C162 C160 1.486 . S
C162 H166 0.960 . S
C162 H167 0.960 . S
C162 H168 0.959 . S
H163 C159 0.960 . S
H164 C159 0.961 . S
H165 C159 0.960 . S
H166 C162 0.960 . S
H167 C162 0.960 . S
H168 C162 0.959 . S
C169 N170 1.317 . S
C169 N171 1.348 . S
C169 C172 1.485 . S
N170 C169 1.317 . S
N170 N174 1.370 . S
N171 C169 1.348 . S
N171 C173 1.346 . S
C172 C169 1.485 . S
C172 H176 0.960 . S
C172 H177 0.961 . S
C172 H178 0.960 . S
C173 N171 1.346 . S
C173 N174 1.307 . S
C173 C175 1.486 . S
N174 N170 1.370 . S
N174 C173 1.307 . S
C175 C173 1.486 . S
C175 H179 0.960 . S
C175 H180 0.960 . S
C175 H181 0.959 . S
H176 C172 0.960 . S
H177 C172 0.961 . S
H178 C172 0.960 . S
H179 C175 0.960 . S
H180 C175 0.960 . S
H181 C175 0.959 . S
C182 N183 1.317 . S
C182 N184 1.348 . S
C182 C185 1.485 . S
N183 C182 1.317 . S
N183 N187 1.370 . S
N184 C182 1.348 . S
N184 C186 1.346 . S
C185 C182 1.485 . S
C185 H189 0.960 . S
C185 H190 0.961 . S
C185 H191 0.960 . S
C186 N184 1.346 . S
C186 N187 1.307 . S
C186 C188 1.486 . S
N187 N183 1.370 . S
N187 C186 1.307 . S
C188 C186 1.486 . S
C188 H192 0.960 . S
C188 H193 0.960 . S
C188 H194 0.959 . S
H189 C185 0.960 . S
H190 C185 0.961 . S
H191 C185 0.960 . S
H192 C188 0.960 . S
H193 C188 0.960 . S
H194 C188 0.959 . S
C195 N196 1.317 . S
C195 N197 1.348 . S
C195 C198 1.485 . S
N196 C195 1.317 . S
N196 N200 1.370 . S
N197 C195 1.348 . S
N197 C199 1.346 . S
C198 C195 1.485 . S
C198 H202 0.960 . S
C198 H203 0.961 . S
C198 H204 0.960 . S
C199 N197 1.346 . S
C199 N200 1.307 . S
C199 C201 1.486 . S
N200 N196 1.370 . S
N200 C199 1.307 . S
C201 C199 1.486 . S
C201 H205 0.960 1_556 S
C201 H206 0.960 . S
C201 H207 0.958 1_556 S
H202 C198 0.960 . S
H203 C198 0.961 . S
H204 C198 0.960 . S
H205 C201 0.960 1_554 S
H206 C201 0.960 . S
H207 C201 0.958 1_554 S
Zn208 O211 2.031 . S
Zn208 O213 2.049 1_554 S
Zn208 O218 2.067 1_554 S
Zn209 O210 1.962 . S
Zn209 O212 1.986 . S
Zn209 O214 1.996 . S
Zn209 O217 1.943 1_554 S
O210 Zn209 1.962 . S
O210 C215 1.254 . S
O211 Zn208 2.031 . S
O211 C215 1.269 . S
O212 Zn209 1.986 . S
O212 C219 1.262 . S
O213 Zn208 2.049 1_556 S
O213 C221 1.260 . S
O214 Zn209 1.996 . S
O214 C221 1.257 1_554 S
C215 O210 1.254 . S
C215 O211 1.269 . S
C216 O217 1.249 . S
C216 O218 1.270 . S
O217 Zn209 1.943 1_556 S
O217 C216 1.249 . S
O218 Zn208 2.067 1_556 S
O218 C216 1.270 . S
C219 O212 1.262 . S
C219 O220 1.232 . S
O220 C219 1.232 . S
C221 O213 1.260 . S
C221 O214 1.257 1_556 S
Zn222 O225 2.031 . S
Zn222 O227 2.049 . S
Zn222 O232 2.067 . S
Zn223 O224 1.962 . S
Zn223 O226 1.986 . S
Zn223 O228 1.996 . S
Zn223 O231 1.943 . S
O224 Zn223 1.962 . S
O224 C229 1.254 . S
O225 Zn222 2.031 . S
O225 C229 1.269 . S
O226 Zn223 1.986 . S
O226 C233 1.262 . S
O227 Zn222 2.049 . S
O227 C235 1.260 . S
O228 Zn223 1.996 . S
O228 C235 1.257 . S
C229 O224 1.254 . S
C229 O225 1.269 . S
C230 O231 1.249 . S
C230 O232 1.270 . S
O231 Zn223 1.943 . S
O231 C230 1.249 . S
O232 Zn222 2.067 . S
O232 C230 1.270 . S
C233 O226 1.262 . S
C233 O234 1.232 . S
O234 C233 1.232 . S
C235 O227 1.260 . S
C235 O228 1.257 . S
Zn236 O239 2.031 . S
Zn236 O241 2.049 . S
Zn236 O246 2.067 . S
Zn237 O238 1.962 . S
Zn237 O240 1.986 . S
Zn237 O242 1.996 1_554 S
Zn237 O245 1.943 . S
O238 Zn237 1.962 . S
O238 C243 1.254 . S
O239 Zn236 2.031 . S
O239 C243 1.269 1_556 S
O240 Zn237 1.986 . S
O240 C247 1.262 . S
O241 Zn236 2.049 . S
O241 C249 1.260 . S
O242 Zn237 1.996 1_556 S
O242 C249 1.257 . S
C243 O238 1.254 . S
C243 O239 1.269 1_554 S
C244 O245 1.249 1_556 S
C244 O246 1.270 . S
O245 Zn237 1.943 . S
O245 C244 1.249 1_554 S
O246 Zn236 2.067 . S
O246 C244 1.270 . S
C247 O240 1.262 . S
C247 O248 1.232 . S
O248 C247 1.232 . S
C249 O241 1.260 . S
C249 O242 1.257 . S
Zn250 O253 2.031 . S
Zn250 O255 2.049 1_545 S
Zn250 O260 2.067 1_545 S
Zn251 O252 1.962 . S
Zn251 O254 1.986 . S
Zn251 O256 1.996 . S
Zn251 O259 1.943 1_545 S
O252 Zn251 1.962 . S
O252 C257 1.254 . S
O253 Zn250 2.031 . S
O253 C257 1.269 . S
O254 Zn251 1.986 . S
O254 C261 1.262 . S
O255 Zn250 2.049 1_565 S
O255 C263 1.260 . S
O256 Zn251 1.996 . S
O256 C263 1.257 1_545 S
C257 O252 1.254 . S
C257 O253 1.269 . S
C258 O259 1.249 . S
C258 O260 1.270 . S
O259 Zn251 1.943 1_565 S
O259 C258 1.249 . S
O260 Zn250 2.067 1_565 S
O260 C258 1.270 . S
C261 O254 1.262 . S
C261 O262 1.232 . S
O262 C261 1.232 . S
C263 O255 1.260 . S
C263 O256 1.257 1_565 S
Zn264 O267 2.031 . S
Zn264 O269 2.049 . S
Zn264 O274 2.067 . S
Zn265 O266 1.962 . S
Zn265 O268 1.986 . S
Zn265 O270 1.996 . S
Zn265 O273 1.943 . S
O266 Zn265 1.962 . S
O266 C271 1.254 . S
O267 Zn264 2.031 . S
O267 C271 1.269 . S
O268 Zn265 1.986 . S
O268 C275 1.262 . S
O269 Zn264 2.049 . S
O269 C277 1.260 . S
O270 Zn265 1.996 . S
O270 C277 1.257 . S
C271 O266 1.254 . S
C271 O267 1.269 . S
C272 O273 1.249 . S
C272 O274 1.270 . S
O273 Zn265 1.943 . S
O273 C272 1.249 . S
O274 Zn264 2.067 . S
O274 C272 1.270 . S
C275 O268 1.262 . S
C275 O276 1.232 . S
O276 C275 1.232 . S
C277 O269 1.260 . S
C277 O270 1.257 . S
Zn278 O281 2.031 . S
Zn278 O283 2.049 . S
Zn278 O288 2.067 . S
Zn279 O280 1.962 . S
Zn279 O282 1.986 . S
Zn279 O284 1.996 . S
Zn279 O287 1.943 . S
O280 Zn279 1.962 . S
O280 C285 1.254 . S
O281 Zn278 2.031 . S
O281 C285 1.269 . S
O282 Zn279 1.986 . S
O282 C289 1.262 . S
O283 Zn278 2.049 . S
O283 C291 1.260 . S
O284 Zn279 1.996 . S
O284 C291 1.257 . S
C285 O280 1.254 . S
C285 O281 1.269 . S
C286 O287 1.249 . S
C286 O288 1.270 . S
O287 Zn279 1.943 . S
O287 C286 1.249 . S
O288 Zn278 2.067 . S
O288 C286 1.270 . S
C289 O282 1.262 . S
C289 O290 1.232 . S
O290 C289 1.232 . S
C291 O283 1.260 . S
C291 O284 1.257 . S
Zn292 O295 2.031 . S
Zn292 O297 2.049 . S
Zn292 O302 2.067 . S
Zn293 O294 1.962 . S
Zn293 O296 1.986 . S
Zn293 O298 1.996 . S
Zn293 O301 1.943 . S
O294 Zn293 1.962 . S
O294 C299 1.254 . S
O295 Zn292 2.031 . S
O295 C299 1.269 . S
O296 Zn293 1.986 . S
O296 C303 1.262 . S
O297 Zn292 2.049 . S
O297 C305 1.260 . S
O298 Zn293 1.996 . S
O298 C305 1.257 . S
C299 O294 1.254 . S
C299 O295 1.269 . S
C300 O301 1.249 . S
C300 O302 1.270 . S
O301 Zn293 1.943 . S
O301 C300 1.249 . S
O302 Zn292 2.067 . S
O302 C300 1.270 . S
C303 O296 1.262 . S
C303 O304 1.232 . S
O304 C303 1.232 . S
C305 O297 1.260 . S
C305 O298 1.257 . S
Zn306 O309 2.031 1_565 S
Zn306 O311 2.049 . S
Zn306 O316 2.067 . S
Zn307 O308 1.962 . S
Zn307 O310 1.986 . S
Zn307 O312 1.996 1_545 S
Zn307 O315 1.943 . S
O308 Zn307 1.962 . S
O308 C313 1.254 . S
O309 Zn306 2.031 1_545 S
O309 C313 1.269 . S
O310 Zn307 1.986 . S
O310 C317 1.262 . S
O311 Zn306 2.049 . S
O311 C319 1.260 . S
O312 Zn307 1.996 1_565 S
O312 C319 1.257 . S
C313 O308 1.254 . S
C313 O309 1.269 . S
C314 O315 1.249 1_565 S
C314 O316 1.270 . S
O315 Zn307 1.943 . S
O315 C314 1.249 1_545 S
O316 Zn306 2.067 . S
O316 C314 1.270 . S
C317 O310 1.262 . S
C317 O318 1.232 . S
O318 C317 1.232 . S
C319 O311 1.260 . S
C319 O312 1.257 . S
Zn320 O323 2.031 . S
Zn320 O325 2.049 1_455 S
Zn320 O330 2.067 1_455 S
Zn321 O322 1.962 . S
Zn321 O324 1.986 . S
Zn321 O326 1.996 . S
Zn321 O329 1.943 1_455 S
O322 Zn321 1.962 . S
O322 C327 1.254 . S
O323 Zn320 2.031 . S
O323 C327 1.269 . S
O324 Zn321 1.986 . S
O324 C331 1.262 . S
O325 Zn320 2.049 1_655 S
O325 C333 1.260 . S
O326 Zn321 1.996 . S
O326 C333 1.257 1_455 S
C327 O322 1.254 . S
C327 O323 1.269 . S
C328 O329 1.249 . S
C328 O330 1.270 . S
O329 Zn321 1.943 1_655 S
O329 C328 1.249 . S
O330 Zn320 2.067 1_655 S
O330 C328 1.270 . S
C331 O324 1.262 . S
C331 O332 1.232 . S
O332 C331 1.232 . S
C333 O325 1.260 . S
C333 O326 1.257 1_655 S
Zn334 O337 2.031 . S
Zn334 O339 2.049 . S
Zn334 O344 2.067 . S
Zn335 O336 1.962 . S
Zn335 O338 1.986 . S
Zn335 O340 1.996 . S
Zn335 O343 1.943 . S
O336 Zn335 1.962 . S
O336 C341 1.254 . S
O337 Zn334 2.031 . S
O337 C341 1.269 . S
O338 Zn335 1.986 . S
O338 C345 1.262 . S
O339 Zn334 2.049 . S
O339 C347 1.260 . S
O340 Zn335 1.996 . S
O340 C347 1.257 . S
C341 O336 1.254 . S
C341 O337 1.269 . S
C342 O343 1.249 . S
C342 O344 1.270 . S
O343 Zn335 1.943 . S
O343 C342 1.249 . S
O344 Zn334 2.067 . S
O344 C342 1.270 . S
C345 O338 1.262 . S
C345 O346 1.232 . S
O346 C345 1.232 . S
C347 O339 1.260 . S
C347 O340 1.257 . S
Zn348 O351 2.031 1_655 S
Zn348 O353 2.049 . S
Zn348 O358 2.067 . S
Zn349 O350 1.962 . S
Zn349 O352 1.986 . S
Zn349 O354 1.996 1_455 S
Zn349 O357 1.943 . S
O350 Zn349 1.962 . S
O350 C355 1.254 . S
O351 Zn348 2.031 1_455 S
O351 C355 1.269 . S
O352 Zn349 1.986 . S
O352 C359 1.262 . S
O353 Zn348 2.049 . S
O353 C361 1.260 . S
O354 Zn349 1.996 1_655 S
O354 C361 1.257 . S
C355 O350 1.254 . S
C355 O351 1.269 . S
C356 O357 1.249 . S
C356 O358 1.270 1_455 S
O357 Zn349 1.943 . S
O357 C356 1.249 . S
O358 Zn348 2.067 . S
O358 C356 1.270 1_655 S
C359 O352 1.262 . S
C359 O360 1.232 . S
O360 C359 1.232 . S
C361 O353 1.260 . S
C361 O354 1.257 . S
Zn362 O365 2.031 . S
Zn362 O367 2.049 . S
Zn362 O372 2.067 . S
Zn363 O364 1.962 . S
Zn363 O366 1.986 . S
Zn363 O368 1.996 . S
Zn363 O371 1.943 . S
O364 Zn363 1.962 . S
O364 C369 1.254 . S
O365 Zn362 2.031 . S
O365 C369 1.269 . S
O366 Zn363 1.986 . S
O366 C373 1.262 . S
O367 Zn362 2.049 . S
O367 C375 1.260 . S
O368 Zn363 1.996 . S
O368 C375 1.257 . S
C369 O364 1.254 . S
C369 O365 1.269 . S
C370 O371 1.249 . S
C370 O372 1.270 . S
O371 Zn363 1.943 . S
O371 C370 1.249 . S
O372 Zn362 2.067 . S
O372 C370 1.270 . S
C373 O366 1.262 . S
C373 O374 1.232 . S
O374 C373 1.232 . S
C375 O367 1.260 . S
C375 O368 1.257 . S
H376 C388 0.930 . S
H377 C390 0.930 . S
H378 C391 0.930 . S
H379 C395 0.959 . S
H380 C395 0.959 . S
H381 C395 0.961 . S
H382 C396 0.960 . S
H383 C396 0.961 . S
H384 C396 0.959 . S
H385 C399 0.929 . S
H386 C400 0.931 . S
H387 C402 0.930 . S
C388 H376 0.930 . S
C388 C389 1.399 . S
C388 C393 1.399 . S
C389 C388 1.399 . S
C389 C390 1.376 . S
C390 H377 0.930 . S
C390 C389 1.376 . S
C390 C391 1.388 . S
C391 H378 0.930 . S
C391 C390 1.388 . S
C391 C392 1.390 . S
C392 C391 1.390 . S
C392 C393 1.394 . S
C392 C398 1.465 . S
C393 C388 1.399 . S
C393 C392 1.394 . S
C393 C394 1.516 . S
C394 C393 1.516 . S
C394 C395 1.502 . S
C394 C396 1.561 . S
C394 C397 1.526 . S
C395 H379 0.959 . S
C395 H380 0.959 . S
C395 H381 0.961 . S
C395 C394 1.502 . S
C396 H382 0.960 . S
C396 H383 0.961 . S
C396 H384 0.959 . S
C396 C394 1.561 . S
C397 C394 1.526 . S
C397 C398 1.396 . S
C397 C402 1.390 . S
C398 C392 1.465 . S
C398 C397 1.396 . S
C398 C399 1.399 . S
C399 H385 0.929 . S
C399 C398 1.399 . S
C399 C400 1.385 . S
C400 H386 0.931 . S
C400 C399 1.385 . S
C400 C401 1.389 . S
C401 C400 1.389 . S
C401 C402 1.387 . S
C402 H387 0.930 . S
C402 C397 1.390 . S
C402 C401 1.387 . S
H403 C415 0.930 . S
H404 C417 0.930 . S
H405 C418 0.930 . S
H406 C422 0.959 . S
H407 C422 0.959 . S
H408 C422 0.961 . S
H409 C423 0.960 1_655 S
H410 C423 0.961 . S
H411 C423 0.959 . S
H412 C426 0.929 . S
H413 C427 0.931 . S
H414 C429 0.930 . S
C415 H403 0.930 . S
C415 C416 1.399 . S
C415 C420 1.399 1_655 S
C416 C415 1.399 . S
C416 C417 1.376 . S
C417 H404 0.930 . S
C417 C416 1.376 . S
C417 C418 1.388 1_655 S
C418 H405 0.930 . S
C418 C417 1.388 1_455 S
C418 C419 1.390 . S
C419 C418 1.390 . S
C419 C420 1.394 . S
C419 C425 1.465 . S
C420 C415 1.399 1_455 S
C420 C419 1.394 . S
C420 C421 1.516 . S
C421 C420 1.516 . S
C421 C422 1.502 . S
C421 C423 1.561 . S
C421 C424 1.526 . S
C422 H406 0.959 . S
C422 H407 0.959 . S
C422 H408 0.961 . S
C422 C421 1.502 . S
C423 H409 0.960 1_455 S
C423 H410 0.961 . S
C423 H411 0.959 . S
C423 C421 1.561 . S
C424 C421 1.526 . S
C424 C425 1.396 . S
C424 C429 1.390 . S
C425 C419 1.465 . S
C425 C424 1.396 . S
C425 C426 1.399 . S
C426 H412 0.929 . S
C426 C425 1.399 . S
C426 C427 1.385 . S
C427 H413 0.931 . S
C427 C426 1.385 . S
C427 C428 1.389 . S
C428 C427 1.389 . S
C428 C429 1.387 . S
C429 H414 0.930 . S
C429 C424 1.390 . S
C429 C428 1.387 . S
H430 C442 0.930 . S
H431 C444 0.930 . S
H432 C445 0.930 . S
H433 C449 0.959 . S
H434 C449 0.959 . S
H435 C449 0.961 . S
H436 C450 0.960 . S
H437 C450 0.961 . S
H438 C450 0.959 . S
H439 C453 0.929 . S
H440 C454 0.931 . S
H441 C456 0.930 . S
C442 H430 0.930 . S
C442 C443 1.399 . S
C442 C447 1.399 . S
C443 C442 1.399 . S
C443 C444 1.376 . S
C444 H431 0.930 . S
C444 C443 1.376 . S
C444 C445 1.388 . S
C445 H432 0.930 . S
C445 C444 1.388 . S
C445 C446 1.390 . S
C446 C445 1.390 . S
C446 C447 1.394 . S
C446 C452 1.465 . S
C447 C442 1.399 . S
C447 C446 1.394 . S
C447 C448 1.516 . S
C448 C447 1.516 . S
C448 C449 1.502 . S
C448 C450 1.561 . S
C448 C451 1.526 . S
C449 H433 0.959 . S
C449 H434 0.959 . S
C449 H435 0.961 . S
C449 C448 1.502 . S
C450 H436 0.960 . S
C450 H437 0.961 . S
C450 H438 0.959 . S
C450 C448 1.561 . S
C451 C448 1.526 . S
C451 C452 1.396 . S
C451 C456 1.390 . S
C452 C446 1.465 . S
C452 C451 1.396 . S
C452 C453 1.399 . S
C453 H439 0.929 . S
C453 C452 1.399 . S
C453 C454 1.385 . S
C454 H440 0.931 . S
C454 C453 1.385 . S
C454 C455 1.389 . S
C455 C454 1.389 . S
C455 C456 1.387 . S
C456 H441 0.930 . S
C456 C451 1.390 . S
C456 C455 1.387 . S
H457 C469 0.930 . S
H458 C471 0.930 . S
H459 C472 0.930 . S
H460 C476 0.959 . S
H461 C476 0.959 . S
H462 C476 0.961 . S
H463 C477 0.960 . S
H464 C477 0.961 . S
H465 C477 0.959 . S
H466 C480 0.929 . S
H467 C481 0.931 . S
H468 C483 0.930 . S
C469 H457 0.930 . S
C469 C470 1.399 1_655 S
C469 C474 1.399 . S
C470 C469 1.399 1_455 S
C470 C471 1.376 . S
C471 H458 0.930 . S
C471 C470 1.376 . S
C471 C472 1.388 . S
C472 H459 0.930 . S
C472 C471 1.388 . S
C472 C473 1.390 1_455 S
C473 C472 1.390 1_655 S
C473 C474 1.394 . S
C473 C479 1.465 . S
C474 C469 1.399 . S
C474 C473 1.394 . S
C474 C475 1.516 . S
C475 C474 1.516 . S
C475 C476 1.502 . S
C475 C477 1.561 1_565 S
C475 C478 1.526 . S
C476 H460 0.959 . S
C476 H461 0.959 . S
C476 H462 0.961 . S
C476 C475 1.502 . S
C477 H463 0.960 . S
C477 H464 0.961 . S
C477 H465 0.959 . S
C477 C475 1.561 1_545 S
C478 C475 1.526 . S
C478 C479 1.396 . S
C478 C483 1.390 . S
C479 C473 1.465 . S
C479 C478 1.396 . S
C479 C480 1.399 . S
C480 H466 0.929 . S
C480 C479 1.399 . S
C480 C481 1.385 . S
C481 H467 0.931 . S
C481 C480 1.385 . S
C481 C482 1.389 . S
C482 C481 1.389 . S
C482 C483 1.387 . S
C483 H468 0.930 . S
C483 C478 1.390 . S
C483 C482 1.387 . S
H484 C496 0.930 . S
H485 C498 0.930 . S
H486 C499 0.930 . S
H487 C503 0.959 . S
H488 C503 0.959 . S
H489 C503 0.961 . S
H490 C504 0.960 . S
H491 C504 0.961 . S
H492 C504 0.959 . S
H493 C507 0.929 . S
H494 C508 0.931 . S
H495 C510 0.930 . S
C496 H484 0.930 . S
C496 C497 1.399 . S
C496 C501 1.399 . S
C497 C496 1.399 . S
C497 C498 1.376 . S
C498 H485 0.930 . S
C498 C497 1.376 . S
C498 C499 1.388 . S
C499 H486 0.930 . S
C499 C498 1.388 . S
C499 C500 1.390 . S
C500 C499 1.390 . S
C500 C501 1.394 . S
C500 C506 1.465 . S
C501 C496 1.399 . S
C501 C500 1.394 . S
C501 C502 1.516 . S
C502 C501 1.516 . S
C502 C503 1.502 . S
C502 C504 1.561 . S
C502 C505 1.526 . S
C503 H487 0.959 . S
C503 H488 0.959 . S
C503 H489 0.961 . S
C503 C502 1.502 . S
C504 H490 0.960 . S
C504 H491 0.961 . S
C504 H492 0.959 . S
C504 C502 1.561 . S
C505 C502 1.526 . S
C505 C506 1.396 . S
C505 C510 1.390 . S
C506 C500 1.465 . S
C506 C505 1.396 . S
C506 C507 1.399 . S
C507 H493 0.929 . S
C507 C506 1.399 . S
C507 C508 1.385 . S
C508 H494 0.931 . S
C508 C507 1.385 . S
C508 C509 1.389 . S
C509 C508 1.389 . S
C509 C510 1.387 . S
C510 H495 0.930 . S
C510 C505 1.390 . S
C510 C509 1.387 . S
H511 C523 0.930 . S
H512 C525 0.930 . S
H513 C526 0.930 . S
H514 C530 0.959 . S
H515 C530 0.959 . S
H516 C530 0.961 . S
H517 C531 0.960 . S
H518 C531 0.961 . S
H519 C531 0.959 . S
H520 C534 0.929 . S
H521 C535 0.931 . S
H522 C537 0.930 . S
C523 H511 0.930 . S
C523 C524 1.399 . S
C523 C528 1.399 . S
C524 C523 1.399 . S
C524 C525 1.376 . S
C525 H512 0.930 . S
C525 C524 1.376 . S
C525 C526 1.388 . S
C526 H513 0.930 . S
C526 C525 1.388 . S
C526 C527 1.390 . S
C527 C526 1.390 . S
C527 C528 1.394 . S
C527 C533 1.465 . S
C528 C523 1.399 . S
C528 C527 1.394 . S
C528 C529 1.516 . S
C529 C528 1.516 . S
C529 C530 1.502 . S
C529 C531 1.561 . S
C529 C532 1.526 . S
C530 H514 0.959 . S
C530 H515 0.959 . S
C530 H516 0.961 . S
C530 C529 1.502 . S
C531 H517 0.960 . S
C531 H518 0.961 . S
C531 H519 0.959 . S
C531 C529 1.561 . S
C532 C529 1.526 . S
C532 C533 1.396 . S
C532 C537 1.390 . S
C533 C527 1.465 . S
C533 C532 1.396 . S
C533 C534 1.399 . S
C534 H520 0.929 . S
C534 C533 1.399 . S
C534 C535 1.385 . S
C535 H521 0.931 . S
C535 C534 1.385 . S
C535 C536 1.389 . S
C536 C535 1.389 . S
C536 C537 1.387 . S
C537 H522 0.930 . S
C537 C532 1.390 . S
C537 C536 1.387 . S
H538 C550 0.930 . S
H539 C552 0.930 . S
H540 C553 0.930 . S
H541 C557 0.959 . S
H542 C557 0.959 . S
H543 C557 0.961 . S
H544 C558 0.960 . S
H545 C558 0.961 . S
H546 C558 0.959 . S
H547 C561 0.929 . S
H548 C562 0.931 . S
H549 C564 0.930 . S
C550 H538 0.930 . S
C550 C551 1.399 . S
C550 C555 1.399 . S
C551 C550 1.399 . S
C551 C552 1.376 . S
C552 H539 0.930 . S
C552 C551 1.376 . S
C552 C553 1.388 . S
C553 H540 0.930 . S
C553 C552 1.388 . S
C553 C554 1.390 . S
C554 C553 1.390 . S
C554 C555 1.394 . S
C554 C560 1.465 . S
C555 C550 1.399 . S
C555 C554 1.394 . S
C555 C556 1.516 . S
C556 C555 1.516 . S
C556 C557 1.502 . S
C556 C558 1.561 . S
C556 C559 1.526 . S
C557 H541 0.959 . S
C557 H542 0.959 . S
C557 H543 0.961 . S
C557 C556 1.502 . S
C558 H544 0.960 . S
C558 H545 0.961 . S
C558 H546 0.959 . S
C558 C556 1.561 . S
C559 C556 1.526 . S
C559 C560 1.396 . S
C559 C564 1.390 . S
C560 C554 1.465 . S
C560 C559 1.396 . S
C560 C561 1.399 . S
C561 H547 0.929 . S
C561 C560 1.399 . S
C561 C562 1.385 . S
C562 H548 0.931 . S
C562 C561 1.385 . S
C562 C563 1.389 . S
C563 C562 1.389 . S
C563 C564 1.387 . S
C564 H549 0.930 . S
C564 C559 1.390 . S
C564 C563 1.387 . S
H565 C577 0.930 . S
H566 C579 0.930 1_545 S
H567 C580 0.930 . S
H568 C584 0.959 . S
H569 C584 0.959 . S
H570 C584 0.961 . S
H571 C585 0.960 . S
H572 C585 0.961 . S
H573 C585 0.959 . S
H574 C588 0.929 . S
H575 C589 0.931 . S
H576 C591 0.930 . S
C577 H565 0.930 . S
C577 C578 1.399 . S
C577 C582 1.399 . S
C578 C577 1.399 . S
C578 C579 1.376 . S
C579 H566 0.930 1_565 S
C579 C578 1.376 . S
C579 C580 1.388 1_565 S
C580 H567 0.930 . S
C580 C579 1.388 1_545 S
C580 C581 1.390 1_545 S
C581 C580 1.390 1_565 S
C581 C582 1.394 . S
C581 C587 1.465 . S
C582 C577 1.399 . S
C582 C581 1.394 . S
C582 C583 1.516 . S
C583 C582 1.516 . S
C583 C584 1.502 . S
C583 C585 1.561 . S
C583 C586 1.526 . S
C584 H568 0.959 . S
C584 H569 0.959 . S
C584 H570 0.961 . S
C584 C583 1.502 . S
C585 H571 0.960 . S
C585 H572 0.961 . S
C585 H573 0.959 . S
C585 C583 1.561 . S
C586 C583 1.526 . S
C586 C587 1.396 . S
C586 C591 1.390 . S
C587 C581 1.465 . S
C587 C586 1.396 . S
C587 C588 1.399 1_565 S
C588 H574 0.929 . S
C588 C587 1.399 1_545 S
C588 C589 1.385 . S
C589 H575 0.931 . S
C589 C588 1.385 . S
C589 C590 1.389 1_545 S
C590 C589 1.389 1_565 S
C590 C591 1.387 . S
C591 H576 0.930 . S
C591 C586 1.390 . S
C591 C590 1.387 . S
H592 C604 0.930 . S
H593 C606 0.930 . S
H594 C607 0.930 . S
H595 C611 0.959 . S
H596 C611 0.959 . S
H597 C611 0.961 . S
H598 C612 0.960 . S
H599 C612 0.961 . S
H600 C612 0.959 . S
H601 C615 0.929 . S
H602 C616 0.931 . S
H603 C618 0.930 . S
C604 H592 0.930 . S
C604 C605 1.399 . S
C604 C609 1.399 . S
C605 C604 1.399 . S
C605 C606 1.376 . S
C606 H593 0.930 . S
C606 C605 1.376 . S
C606 C607 1.388 . S
C607 H594 0.930 . S
C607 C606 1.388 . S
C607 C608 1.390 . S
C608 C607 1.390 . S
C608 C609 1.394 . S
C608 C614 1.465 . S
C609 C604 1.399 . S
C609 C608 1.394 . S
C609 C610 1.516 . S
C610 C609 1.516 . S
C610 C611 1.502 . S
C610 C612 1.561 . S
C610 C613 1.526 . S
C611 H595 0.959 . S
C611 H596 0.959 . S
C611 H597 0.961 . S
C611 C610 1.502 . S
C612 H598 0.960 . S
C612 H599 0.961 . S
C612 H600 0.959 . S
C612 C610 1.561 . S
C613 C610 1.526 . S
C613 C614 1.396 . S
C613 C618 1.390 . S
C614 C608 1.465 . S
C614 C613 1.396 . S
C614 C615 1.399 . S
C615 H601 0.929 . S
C615 C614 1.399 . S
C615 C616 1.385 . S
C616 H602 0.931 . S
C616 C615 1.385 . S
C616 C617 1.389 . S
C617 C616 1.389 . S
C617 C618 1.387 . S
C618 H603 0.930 . S
C618 C613 1.390 . S
C618 C617 1.387 . S
H619 C631 0.930 . S
H620 C633 0.930 . S
H621 C634 0.930 . S
H622 C638 0.959 . S
H623 C638 0.959 . S
H624 C638 0.961 . S
H625 C639 0.960 . S
H626 C639 0.961 . S
H627 C639 0.959 . S
H628 C642 0.929 . S
H629 C643 0.931 . S
H630 C645 0.930 . S
C631 H619 0.930 . S
C631 C632 1.399 . S
C631 C636 1.399 . S
C632 C631 1.399 . S
C632 C633 1.376 . S
C633 H620 0.930 . S
C633 C632 1.376 . S
C633 C634 1.388 . S
C634 H621 0.930 . S
C634 C633 1.388 . S
C634 C635 1.390 . S
C635 C634 1.390 . S
C635 C636 1.394 . S
C635 C641 1.465 . S
C636 C631 1.399 . S
C636 C635 1.394 . S
C636 C637 1.516 . S
C637 C636 1.516 . S
C637 C638 1.502 . S
C637 C639 1.561 . S
C637 C640 1.526 . S
C638 H622 0.959 . S
C638 H623 0.959 . S
C638 H624 0.961 . S
C638 C637 1.502 . S
C639 H625 0.960 . S
C639 H626 0.961 . S
C639 H627 0.959 . S
C639 C637 1.561 . S
C640 C637 1.526 . S
C640 C641 1.396 . S
C640 C645 1.390 . S
C641 C635 1.465 . S
C641 C640 1.396 . S
C641 C642 1.399 . S
C642 H628 0.929 . S
C642 C641 1.399 . S
C642 C643 1.385 . S
C643 H629 0.931 . S
C643 C642 1.385 . S
C643 C644 1.389 . S
C644 C643 1.389 . S
C644 C645 1.387 . S
C645 H630 0.930 . S
C645 C640 1.390 . S
C645 C644 1.387 . S
H646 C658 0.930 . S
H647 C660 0.930 . S
H648 C661 0.930 . S
H649 C665 0.959 . S
H650 C665 0.959 . S
H651 C665 0.961 . S
H652 C666 0.960 . S
H653 C666 0.961 . S
H654 C666 0.959 . S
H655 C669 0.929 . S
H656 C670 0.931 . S
H657 C672 0.930 . S
C658 H646 0.930 . S
C658 C659 1.399 . S
C658 C663 1.399 . S
C659 C658 1.399 . S
C659 C660 1.376 . S
C660 H647 0.930 . S
C660 C659 1.376 . S
C660 C661 1.388 . S
C661 H648 0.930 . S
C661 C660 1.388 . S
C661 C662 1.390 . S
C662 C661 1.390 . S
C662 C663 1.394 . S
C662 C668 1.465 . S
C663 C658 1.399 . S
C663 C662 1.394 . S
C663 C664 1.516 . S
C664 C663 1.516 . S
C664 C665 1.502 . S
C664 C666 1.561 . S
C664 C667 1.526 . S
C665 H649 0.959 . S
C665 H650 0.959 . S
C665 H651 0.961 . S
C665 C664 1.502 . S
C666 H652 0.960 . S
C666 H653 0.961 . S
C666 H654 0.959 . S
C666 C664 1.561 . S
C667 C664 1.526 . S
C667 C668 1.396 . S
C667 C672 1.390 . S
C668 C662 1.465 . S
C668 C667 1.396 . S
C668 C669 1.399 . S
C669 H655 0.929 . S
C669 C668 1.399 . S
C669 C670 1.385 . S
C670 H656 0.931 . S
C670 C669 1.385 . S
C670 C671 1.389 . S
C671 C670 1.389 . S
C671 C672 1.387 . S
C672 H657 0.930 . S
C672 C667 1.390 . S
C672 C671 1.387 . S
H673 C685 0.930 . S
H674 C687 0.930 . S
H675 C688 0.930 . S
H676 C692 0.959 . S
H677 C692 0.959 . S
H678 C692 0.961 . S
H679 C693 0.960 . S
H680 C693 0.961 . S
H681 C693 0.959 . S
H682 C696 0.929 . S
H683 C697 0.931 . S
H684 C699 0.930 . S
C685 H673 0.930 . S
C685 C686 1.399 . S
C685 C690 1.399 . S
C686 C685 1.399 . S
C686 C687 1.376 . S
C687 H674 0.930 . S
C687 C686 1.376 . S
C687 C688 1.388 . S
C688 H675 0.930 . S
C688 C687 1.388 . S
C688 C689 1.390 . S
C689 C688 1.390 . S
C689 C690 1.394 . S
C689 C695 1.465 . S
C690 C685 1.399 . S
C690 C689 1.394 . S
C690 C691 1.516 . S
C691 C690 1.516 . S
C691 C692 1.502 . S
C691 C693 1.561 . S
C691 C694 1.526 . S
C692 H676 0.959 . S
C692 H677 0.959 . S
C692 H678 0.961 . S
C692 C691 1.502 . S
C693 H679 0.960 . S
C693 H680 0.961 . S
C693 H681 0.959 . S
C693 C691 1.561 . S
C694 C691 1.526 . S
C694 C695 1.396 . S
C694 C699 1.390 . S
C695 C689 1.465 . S
C695 C694 1.396 . S
C695 C696 1.399 . S
C696 H682 0.929 . S
C696 C695 1.399 . S
C696 C697 1.385 . S
C697 H683 0.931 . S
C697 C696 1.385 . S
C697 C698 1.389 . S
C698 C697 1.389 . S
C698 C699 1.387 . S
C699 H684 0.930 . S
C699 C694 1.390 . S
C699 C698 1.387 . S
H700 C712 0.930 . S
H701 C714 0.930 . S
H702 C715 0.930 . S
H703 C719 0.959 . S
H704 C719 0.959 . S
H705 C719 0.961 . S
H706 C720 0.960 . S
H707 C720 0.961 . S
H708 C720 0.959 . S
H709 C723 0.929 . S
H710 C724 0.931 . S
H711 C726 0.930 . S
C712 H700 0.930 . S
C712 C713 1.399 . S
C712 C717 1.399 . S
C713 C712 1.399 . S
C713 C714 1.376 . S
C714 H701 0.930 . S
C714 C713 1.376 . S
C714 C715 1.388 . S
C715 H702 0.930 . S
C715 C714 1.388 . S
C715 C716 1.390 . S
C716 C715 1.390 . S
C716 C717 1.394 . S
C716 C722 1.465 . S
C717 C712 1.399 . S
C717 C716 1.394 . S
C717 C718 1.516 . S
C718 C717 1.516 . S
C718 C719 1.502 . S
C718 C720 1.561 . S
C718 C721 1.526 . S
C719 H703 0.959 . S
C719 H704 0.959 . S
C719 H705 0.961 . S
C719 C718 1.502 . S
C720 H706 0.960 . S
C720 H707 0.961 . S
C720 H708 0.959 . S
C720 C718 1.561 . S
C721 C718 1.526 . S
C721 C722 1.396 . S
C721 C726 1.390 . S
C722 C716 1.465 . S
C722 C721 1.396 . S
C722 C723 1.399 . S
C723 H709 0.929 . S
C723 C722 1.399 . S
C723 C724 1.385 . S
C724 H710 0.931 . S
C724 C723 1.385 . S
C724 C725 1.389 . S
C725 C724 1.389 . S
C725 C726 1.387 . S
C726 H711 0.930 . S
C726 C721 1.390 . S
C726 C725 1.387 . S
H727 C739 0.930 . S
H728 C741 0.930 . S
H729 C742 0.930 . S
H730 C746 0.959 . S
H731 C746 0.959 . S
H732 C746 0.961 . S
H733 C747 0.960 . S
H734 C747 0.961 . S
H735 C747 0.959 . S
H736 C750 0.929 . S
H737 C751 0.931 . S
H738 C753 0.930 . S
C739 H727 0.930 . S
C739 C740 1.399 . S
C739 C744 1.399 . S
C740 C739 1.399 . S
C740 C741 1.376 . S
C741 H728 0.930 . S
C741 C740 1.376 . S
C741 C742 1.388 . S
C742 H729 0.930 . S
C742 C741 1.388 . S
C742 C743 1.390 . S
C743 C742 1.390 . S
C743 C744 1.394 . S
C743 C749 1.465 . S
C744 C739 1.399 . S
C744 C743 1.394 . S
C744 C745 1.516 . S
C745 C744 1.516 . S
C745 C746 1.502 . S
C745 C747 1.561 . S
C745 C748 1.526 . S
C746 H730 0.959 . S
C746 H731 0.959 . S
C746 H732 0.961 . S
C746 C745 1.502 . S
C747 H733 0.960 . S
C747 H734 0.961 . S
C747 H735 0.959 . S
C747 C745 1.561 . S
C748 C745 1.526 . S
C748 C749 1.396 . S
C748 C753 1.390 . S
C749 C743 1.465 . S
C749 C748 1.396 . S
C749 C750 1.399 . S
C750 H736 0.929 . S
C750 C749 1.399 . S
C750 C751 1.385 . S
C751 H737 0.931 . S
C751 C750 1.385 . S
C751 C752 1.389 . S
C752 C751 1.389 . S
C752 C753 1.387 . S
C753 H738 0.930 . S
C753 C748 1.390 . S
C753 C752 1.387 . S
H754 C766 0.930 . S
H755 C768 0.930 . S
H756 C769 0.930 . S
H757 C773 0.959 . S
H758 C773 0.959 . S
H759 C773 0.961 . S
H760 C774 0.960 . S
H761 C774 0.961 . S
H762 C774 0.959 . S
H763 C777 0.929 . S
H764 C778 0.931 . S
H765 C780 0.930 . S
C766 H754 0.930 . S
C766 C767 1.399 . S
C766 C771 1.399 . S
C767 C766 1.399 . S
C767 C768 1.376 . S
C768 H755 0.930 . S
C768 C767 1.376 . S
C768 C769 1.388 . S
C769 H756 0.930 . S
C769 C768 1.388 . S
C769 C770 1.390 . S
C770 C769 1.390 . S
C770 C771 1.394 . S
C770 C776 1.465 . S
C771 C766 1.399 . S
C771 C770 1.394 . S
C771 C772 1.516 . S
C772 C771 1.516 . S
C772 C773 1.502 . S
C772 C774 1.561 . S
C772 C775 1.526 . S
C773 H757 0.959 . S
C773 H758 0.959 . S
C773 H759 0.961 . S
C773 C772 1.502 . S
C774 H760 0.960 . S
C774 H761 0.961 . S
C774 H762 0.959 . S
C774 C772 1.561 . S
C775 C772 1.526 . S
C775 C776 1.396 . S
C775 C780 1.390 . S
C776 C770 1.465 . S
C776 C775 1.396 . S
C776 C777 1.399 . S
C777 H763 0.929 . S
C777 C776 1.399 . S
C777 C778 1.385 . S
C778 H764 0.931 . S
C778 C777 1.385 . S
C778 C779 1.389 . S
C779 C778 1.389 . S
C779 C780 1.387 . S
C780 H765 0.930 . S
C780 C775 1.390 . S
C780 C779 1.387 . S
H781 C793 0.930 . S
H782 C795 0.930 . S
H783 C796 0.930 . S
H784 C800 0.959 . S
H785 C800 0.959 . S
H786 C800 0.961 . S
H787 C801 0.960 . S
H788 C801 0.961 . S
H789 C801 0.959 . S
H790 C804 0.929 . S
H791 C805 0.931 . S
H792 C807 0.930 1_455 S
C793 H781 0.930 . S
C793 C794 1.399 . S
C793 C798 1.399 . S
C794 C793 1.399 . S
C794 C795 1.376 . S
C795 H782 0.930 . S
C795 C794 1.376 . S
C795 C796 1.388 . S
C796 H783 0.930 . S
C796 C795 1.388 . S
C796 C797 1.390 . S
C797 C796 1.390 . S
C797 C798 1.394 . S
C797 C803 1.465 . S
C798 C793 1.399 . S
C798 C797 1.394 . S
C798 C799 1.516 . S
C799 C798 1.516 . S
C799 C800 1.502 1_655 S
C799 C801 1.561 . S
C799 C802 1.526 . S
C800 H784 0.959 . S
C800 H785 0.959 . S
C800 H786 0.961 . S
C800 C799 1.502 1_455 S
C801 H787 0.960 . S
C801 H788 0.961 . S
C801 H789 0.959 . S
C801 C799 1.561 . S
C802 C799 1.526 . S
C802 C803 1.396 . S
C802 C807 1.389 . S
C803 C797 1.465 . S
C803 C802 1.396 . S
C803 C804 1.399 . S
C804 H790 0.929 . S
C804 C803 1.399 . S
C804 C805 1.385 . S
C805 H791 0.931 . S
C805 C804 1.385 . S
C805 C806 1.396 . S
C806 C805 1.396 . S
C806 C807 1.386 . S
C807 H792 0.930 1_655 S
C807 C802 1.389 . S
C807 C806 1.386 . S
H808 C820 0.930 . S
H809 C822 0.930 . S
H810 C823 0.930 . S
H811 C827 0.959 . S
H812 C827 0.959 . S
H813 C827 0.961 . S
H814 C828 0.960 . S
H815 C828 0.961 . S
H816 C828 0.959 . S
H817 C831 0.929 . S
H818 C832 0.931 . S
H819 C834 0.930 . S
C820 H808 0.930 . S
C820 C821 1.399 . S
C820 C825 1.399 . S
C821 C820 1.399 . S
C821 C822 1.376 . S
C822 H809 0.930 . S
C822 C821 1.376 . S
C822 C823 1.388 . S
C823 H810 0.930 . S
C823 C822 1.388 . S
C823 C824 1.390 . S
C824 C823 1.390 . S
C824 C825 1.394 . S
C824 C830 1.465 . S
C825 C820 1.399 . S
C825 C824 1.394 . S
C825 C826 1.516 . S
C826 C825 1.516 . S
C826 C827 1.502 . S
C826 C828 1.561 . S
C826 C829 1.526 . S
C827 H811 0.959 . S
C827 H812 0.959 . S
C827 H813 0.961 . S
C827 C826 1.502 . S
C828 H814 0.960 . S
C828 H815 0.961 . S
C828 H816 0.959 . S
C828 C826 1.561 . S
C829 C826 1.526 . S
C829 C830 1.396 . S
C829 C834 1.390 . S
C830 C824 1.465 . S
C830 C829 1.396 . S
C830 C831 1.399 . S
C831 H817 0.929 . S
C831 C830 1.399 . S
C831 C832 1.385 . S
C832 H818 0.931 . S
C832 C831 1.385 . S
C832 C833 1.389 . S
C833 C832 1.389 . S
C833 C834 1.387 . S
C834 H819 0.930 . S
C834 C829 1.390 . S
C834 C833 1.387 . S
H835 C847 0.930 . S
H836 C849 0.930 . S
H837 C850 0.930 . S
H838 C854 0.959 . S
H839 C854 0.959 . S
H840 C854 0.961 . S
H841 C855 0.960 . S
H842 C855 0.961 . S
H843 C855 0.959 . S
H844 C858 0.929 . S
H845 C859 0.931 . S
H846 C861 0.930 . S
C847 H835 0.930 . S
C847 C848 1.399 . S
C847 C852 1.399 . S
C848 C847 1.399 . S
C848 C849 1.376 . S
C849 H836 0.930 . S
C849 C848 1.376 . S
C849 C850 1.388 . S
C850 H837 0.930 . S
C850 C849 1.388 . S
C850 C851 1.390 . S
C851 C850 1.390 . S
C851 C852 1.394 . S
C851 C857 1.465 . S
C852 C847 1.399 . S
C852 C851 1.394 . S
C852 C853 1.516 . S
C853 C852 1.516 . S
C853 C854 1.502 . S
C853 C855 1.561 . S
C853 C856 1.526 . S
C854 H838 0.959 . S
C854 H839 0.959 . S
C854 H840 0.961 . S
C854 C853 1.502 . S
C855 H841 0.960 . S
C855 H842 0.961 . S
C855 H843 0.959 . S
C855 C853 1.561 . S
C856 C853 1.526 . S
C856 C857 1.396 . S
C856 C861 1.390 . S
C857 C851 1.465 . S
C857 C856 1.396 . S
C857 C858 1.399 . S
C858 H844 0.929 . S
C858 C857 1.399 . S
C858 C859 1.385 . S
C859 H845 0.931 . S
C859 C858 1.385 . S
C859 C860 1.389 . S
C860 C859 1.389 . S
C860 C861 1.387 . S
C861 H846 0.930 . S
C861 C856 1.390 . S
C861 C860 1.387 . S
H862 C874 0.930 . S
H863 C876 0.930 . S
H864 C877 0.920 1_554 S
H865 C881 0.959 . S
H866 C881 0.959 . S
H867 C881 0.961 . S
H868 C882 0.960 . S
H869 C882 0.961 . S
H870 C882 0.959 . S
H871 C885 0.929 . S
H872 C886 0.931 . S
H873 C888 0.930 . S
C874 H862 0.930 . S
C874 C875 1.399 . S
C874 C879 1.399 . S
C875 C874 1.399 . S
C875 C876 1.376 . S
C876 H863 0.930 . S
C876 C875 1.376 . S
C876 C877 1.388 1_545 S
C877 H864 0.920 1_556 S
C877 C876 1.388 1_565 S
C877 C878 1.390 . S
C878 C877 1.390 . S
C878 C879 1.394 1_565 S
C878 C884 1.465 . S
C879 C874 1.399 . S
C879 C878 1.394 1_545 S
C879 C880 1.516 1_545 S
C880 C879 1.516 1_565 S
C880 C881 1.502 1_565 S
C880 C882 1.561 . S
C880 C883 1.526 . S
C881 H865 0.959 . S
C881 H866 0.959 . S
C881 H867 0.961 . S
C881 C880 1.502 1_545 S
C882 H868 0.960 . S
C882 H869 0.961 . S
C882 H870 0.959 . S
C882 C880 1.561 . S
C883 C880 1.526 . S
C883 C884 1.396 . S
C883 C888 1.390 . S
C884 C878 1.465 . S
C884 C883 1.396 . S
C884 C885 1.399 1_556 S
C885 H871 0.929 . S
C885 C884 1.399 1_554 S
C885 C886 1.385 . S
C886 H872 0.931 . S
C886 C885 1.385 . S
C886 C887 1.389 1_554 S
C887 C886 1.389 1_556 S
C887 C888 1.387 . S
C888 H873 0.930 . S
C888 C883 1.390 . S
C888 C887 1.387 . S
H889 C901 0.930 . S
H890 C903 0.930 . S
H891 C904 0.930 . S
H892 C908 0.959 . S
H893 C908 0.959 . S
H894 C908 0.961 . S
H895 C909 0.960 . S
H896 C909 0.961 . S
H897 C909 0.959 . S
H898 C912 0.929 . S
H899 C913 0.931 . S
H900 C915 0.930 . S
C901 H889 0.930 . S
C901 C902 1.399 . S
C901 C906 1.399 . S
C902 C901 1.399 . S
C902 C903 1.376 . S
C903 H890 0.930 . S
C903 C902 1.376 . S
C903 C904 1.388 . S
C904 H891 0.930 . S
C904 C903 1.388 . S
C904 C905 1.390 . S
C905 C904 1.390 . S
C905 C906 1.394 . S
C905 C911 1.465 . S
C906 C901 1.399 . S
C906 C905 1.394 . S
C906 C907 1.516 . S
C907 C906 1.516 . S
C907 C908 1.502 . S
C907 C909 1.561 . S
C907 C910 1.526 . S
C908 H892 0.959 . S
C908 H893 0.959 . S
C908 H894 0.961 . S
C908 C907 1.502 . S
C909 H895 0.960 . S
C909 H896 0.961 . S
C909 H897 0.959 . S
C909 C907 1.561 . S
C910 C907 1.526 . S
C910 C911 1.396 . S
C910 C915 1.390 . S
C911 C905 1.465 . S
C911 C910 1.396 . S
C911 C912 1.399 . S
C912 H898 0.929 . S
C912 C911 1.399 . S
C912 C913 1.385 . S
C913 H899 0.931 . S
C913 C912 1.385 . S
C913 C914 1.389 . S
C914 C913 1.389 . S
C914 C915 1.387 . S
C915 H900 0.930 . S
C915 C910 1.390 . S
C915 C914 1.387 . S
H916 C928 0.937 . S
H917 C930 0.930 1_565 S
H918 C931 0.930 . S
H919 C935 0.954 1_565 S
H920 C935 0.959 . S
H921 C935 0.961 1_565 S
H922 C936 0.960 . S
H923 C936 0.961 . S
H924 C936 0.959 . S
H925 C939 0.929 . S
H926 C940 0.931 . S
H927 C942 0.930 . S
C928 H916 0.937 . S
C928 C929 1.408 . S
C928 C933 1.384 1_565 S
C929 C928 1.408 . S
C929 C930 1.376 1_565 S
C930 H917 0.930 1_545 S
C930 C929 1.376 1_545 S
C930 C931 1.388 . S
C931 H918 0.930 . S
C931 C930 1.388 . S
C931 C932 1.390 . S
C932 C931 1.390 . S
C932 C933 1.394 . S
C932 C938 1.465 . S
C933 C928 1.384 1_545 S
C933 C932 1.394 . S
C933 C934 1.516 . S
C934 C933 1.516 . S
C934 C935 1.502 . S
C934 C936 1.561 . S
C934 C937 1.526 . S
C935 H919 0.954 1_545 S
C935 H920 0.959 . S
C935 H921 0.961 1_545 S
C935 C934 1.502 . S
C936 H922 0.960 . S
C936 H923 0.961 . S
C936 H924 0.959 . S
C936 C934 1.561 . S
C937 C934 1.526 . S
C937 C938 1.396 . S
C937 C942 1.390 . S
C938 C932 1.465 . S
C938 C937 1.396 . S
C938 C939 1.399 . S
C939 H925 0.929 . S
C939 C938 1.399 . S
C939 C940 1.385 . S
C940 H926 0.931 . S
C940 C939 1.385 . S
C940 C941 1.389 . S
C941 C940 1.389 . S
C941 C942 1.387 . S
C942 H927 0.930 . S
C942 C937 1.390 . S
C942 C941 1.387 . S
H943 C955 0.930 . S
H944 C957 0.930 . S
H945 C958 0.930 . S
H946 C962 0.959 . S
H947 C962 0.959 . S
H948 C962 0.961 . S
H949 C963 0.960 . S
H950 C963 0.961 . S
H951 C963 0.959 . S
H952 C966 0.929 . S
H953 C967 0.931 . S
H954 C969 0.930 . S
C955 H943 0.930 . S
C955 C956 1.399 . S
C955 C960 1.399 . S
C956 C955 1.399 . S
C956 C957 1.376 . S
C957 H944 0.930 . S
C957 C956 1.376 . S
C957 C958 1.388 . S
C958 H945 0.930 . S
C958 C957 1.388 . S
C958 C959 1.390 . S
C959 C958 1.390 . S
C959 C960 1.394 . S
C959 C965 1.465 . S
C960 C955 1.399 . S
C960 C959 1.394 . S
C960 C961 1.516 . S
C961 C960 1.516 . S
C961 C962 1.502 . S
C961 C963 1.561 . S
C961 C964 1.526 . S
C962 H946 0.959 . S
C962 H947 0.959 . S
C962 H948 0.961 . S
C962 C961 1.502 . S
C963 H949 0.960 . S
C963 H950 0.961 . S
C963 H951 0.959 . S
C963 C961 1.561 . S
C964 C961 1.526 . S
C964 C965 1.396 . S
C964 C969 1.390 . S
C965 C959 1.465 . S
C965 C964 1.396 . S
C965 C966 1.399 . S
C966 H952 0.929 . S
C966 C965 1.399 . S
C966 C967 1.385 . S
C967 H953 0.931 . S
C967 C966 1.385 . S
C967 C968 1.389 . S
C968 C967 1.389 . S
C968 C969 1.387 . S
C969 H954 0.930 . S
C969 C964 1.390 . S
C969 C968 1.387 . S
H970 C982 0.930 . S
H971 C984 0.930 . S
H972 C985 0.930 . S
H973 C989 0.959 . S
H974 C989 0.959 . S
H975 C989 0.961 . S
H976 C990 0.960 . S
H977 C990 0.961 . S
H978 C990 0.959 . S
H979 C993 0.929 . S
H980 C994 0.931 . S
H981 C996 0.930 . S
C982 H970 0.930 . S
C982 C983 1.399 1_545 S
C982 C987 1.399 . S
C983 C982 1.399 1_565 S
C983 C984 1.376 . S
C984 H971 0.930 . S
C984 C983 1.376 . S
C984 C985 1.388 1_565 S
C985 H972 0.930 . S
C985 C984 1.388 1_545 S
C985 C986 1.390 . S
C986 C985 1.390 . S
C986 C987 1.394 . S
C986 C992 1.465 . S
C987 C982 1.399 . S
C987 C986 1.394 . S
C987 C988 1.516 . S
C988 C987 1.516 . S
C988 C989 1.502 . S
C988 C990 1.561 . S
C988 C991 1.526 . S
C989 H973 0.959 . S
C989 H974 0.959 . S
C989 H975 0.961 . S
C989 C988 1.502 . S
C990 H976 0.960 . S
C990 H977 0.961 . S
C990 H978 0.959 . S
C990 C988 1.561 . S
C991 C988 1.526 . S
C991 C992 1.396 . S
C991 C996 1.390 . S
C992 C986 1.465 . S
C992 C991 1.396 . S
C992 C993 1.399 . S
C993 H979 0.929 . S
C993 C992 1.399 . S
C993 C994 1.385 . S
C994 H980 0.931 . S
C994 C993 1.385 . S
C994 C995 1.389 . S
C995 C994 1.389 . S
C995 C996 1.387 . S
C996 H981 0.930 . S
C996 C991 1.390 . S
C996 C995 1.387 . S
H997 C1009 0.930 . S
H998 C1011 0.930 . S
H999 C1012 0.930 . S
H1000 C1016 0.959 . S
H1001 C1016 0.959 . S
H1002 C1016 0.961 . S
H1003 C1017 0.960 . S
H1004 C1017 0.961 . S
H1005 C1017 0.959 . S
H1006 C1020 0.929 . S
H1007 C1021 0.931 . S
H1008 C1023 0.930 . S
C1009 H997 0.930 . S
C1009 C1010 1.399 . S
C1009 C1014 1.399 . S
C1010 C1009 1.399 . S
C1010 C1011 1.376 . S
C1011 H998 0.930 . S
C1011 C1010 1.376 . S
C1011 C1012 1.388 . S
C1012 H999 0.930 . S
C1012 C1011 1.388 . S
C1012 C1013 1.390 . S
C1013 C1012 1.390 . S
C1013 C1014 1.394 . S
C1013 C1019 1.465 . S
C1014 C1009 1.399 . S
C1014 C1013 1.394 . S
C1014 C1015 1.516 . S
C1015 C1014 1.516 . S
C1015 C1016 1.502 . S
C1015 C1017 1.561 . S
C1015 C1018 1.526 . S
C1016 H1000 0.959 . S
C1016 H1001 0.959 . S
C1016 H1002 0.961 . S
C1016 C1015 1.502 . S
C1017 H1003 0.960 . S
C1017 H1004 0.961 . S
C1017 H1005 0.959 . S
C1017 C1015 1.561 . S
C1018 C1015 1.526 . S
C1018 C1019 1.396 . S
C1018 C1023 1.390 . S
C1019 C1013 1.465 . S
C1019 C1018 1.396 . S
C1019 C1020 1.399 . S
C1020 H1006 0.929 . S
C1020 C1019 1.399 . S
C1020 C1021 1.385 . S
C1021 H1007 0.931 . S
C1021 C1020 1.385 . S
C1021 C1022 1.389 . S
C1022 C1021 1.389 . S
C1022 C1023 1.387 . S
C1023 H1008 0.930 . S
C1023 C1018 1.390 . S
C1023 C1022 1.387 . S
H1024 C1036 0.930 . S
H1025 C1038 0.930 . S
H1026 C1039 0.930 . S
H1027 C1043 0.959 . S
H1028 C1043 0.959 . S
H1029 C1043 0.961 . S
H1030 C1044 0.960 . S
H1031 C1044 0.961 . S
H1032 C1044 0.959 . S
H1033 C1047 0.929 . S
H1034 C1048 0.931 . S
H1035 C1050 0.930 . S
C1036 H1024 0.930 . S
C1036 C1037 1.399 . S
C1036 C1041 1.399 . S
C1037 C1036 1.399 . S
C1037 C1038 1.376 . S
C1038 H1025 0.930 . S
C1038 C1037 1.376 . S
C1038 C1039 1.388 . S
C1039 H1026 0.930 . S
C1039 C1038 1.388 . S
C1039 C1040 1.390 . S
C1040 C1039 1.390 . S
C1040 C1041 1.394 . S
C1040 C1046 1.465 . S
C1041 C1036 1.399 . S
C1041 C1040 1.394 . S
C1041 C1042 1.516 . S
C1042 C1041 1.516 . S
C1042 C1043 1.502 . S
C1042 C1044 1.561 . S
C1042 C1045 1.526 . S
C1043 H1027 0.959 . S
C1043 H1028 0.959 . S
C1043 H1029 0.961 . S
C1043 C1042 1.502 . S
C1044 H1030 0.960 . S
C1044 H1031 0.961 . S
C1044 H1032 0.959 . S
C1044 C1042 1.561 . S
C1045 C1042 1.526 . S
C1045 C1046 1.396 . S
C1045 C1050 1.390 . S
C1046 C1040 1.465 . S
C1046 C1045 1.396 . S
C1046 C1047 1.399 . S
C1047 H1033 0.929 . S
C1047 C1046 1.399 . S
C1047 C1048 1.385 . S
C1048 H1034 0.931 . S
C1048 C1047 1.385 . S
C1048 C1049 1.389 . S
C1049 C1048 1.389 . S
C1049 C1050 1.387 . S
C1050 H1035 0.930 . S
C1050 C1045 1.390 . S
C1050 C1049 1.387 . S
H1051 C1063 0.930 . S
H1052 C1065 0.930 . S
H1053 C1066 0.930 . S
H1054 C1070 0.959 . S
H1055 C1070 0.959 . S
H1056 C1070 0.961 . S
H1057 C1071 0.960 . S
H1058 C1071 0.961 . S
H1059 C1071 0.959 . S
H1060 C1074 0.929 1_565 S
H1061 C1075 0.931 1_565 S
H1062 C1077 0.930 . S
C1063 H1051 0.930 . S
C1063 C1064 1.399 . S
C1063 C1068 1.399 . S
C1064 C1063 1.399 . S
C1064 C1065 1.376 . S
C1065 H1052 0.930 . S
C1065 C1064 1.376 . S
C1065 C1066 1.388 . S
C1066 H1053 0.930 . S
C1066 C1065 1.388 . S
C1066 C1067 1.390 . S
C1067 C1066 1.390 . S
C1067 C1068 1.394 . S
C1067 C1073 1.465 . S
C1068 C1063 1.399 . S
C1068 C1067 1.394 . S
C1068 C1069 1.516 . S
C1069 C1068 1.516 . S
C1069 C1070 1.502 . S
C1069 C1071 1.561 . S
C1069 C1072 1.526 . S
C1070 H1054 0.959 . S
C1070 H1055 0.959 . S
C1070 H1056 0.961 . S
C1070 C1069 1.502 . S
C1071 H1057 0.960 . S
C1071 H1058 0.961 . S
C1071 H1059 0.959 . S
C1071 C1069 1.561 . S
C1072 C1069 1.526 . S
C1072 C1073 1.396 . S
C1072 C1077 1.390 . S
C1073 C1067 1.465 . S
C1073 C1072 1.396 . S
C1073 C1074 1.399 . S
C1074 H1060 0.929 1_545 S
C1074 C1073 1.399 . S
C1074 C1075 1.385 . S
C1075 H1061 0.931 1_545 S
C1075 C1074 1.385 . S
C1075 C1076 1.389 . S
C1076 C1075 1.389 . S
C1076 C1077 1.387 . S
C1077 H1062 0.930 . S
C1077 C1072 1.390 . S
C1077 C1076 1.387 . S
H1078 C1090 0.930 . S
H1079 C1092 0.930 . S
H1080 C1093 0.930 . S
H1081 C1097 0.959 . S
H1082 C1097 0.959 . S
H1083 C1097 0.961 . S
H1084 C1098 0.960 . S
H1085 C1098 0.961 . S
H1086 C1098 0.959 . S
H1087 C1101 0.929 . S
H1088 C1102 0.931 . S
H1089 C1104 0.930 . S
C1090 H1078 0.930 . S
C1090 C1091 1.399 . S
C1090 C1095 1.399 . S
C1091 C1090 1.399 . S
C1091 C1092 1.376 . S
C1092 H1079 0.930 . S
C1092 C1091 1.376 . S
C1092 C1093 1.388 . S
C1093 H1080 0.930 . S
C1093 C1092 1.388 . S
C1093 C1094 1.390 . S
C1094 C1093 1.390 . S
C1094 C1095 1.394 . S
C1094 C1100 1.465 . S
C1095 C1090 1.399 . S
C1095 C1094 1.394 . S
C1095 C1096 1.516 . S
C1096 C1095 1.516 . S
C1096 C1097 1.502 . S
C1096 C1098 1.561 . S
C1096 C1099 1.526 . S
C1097 H1081 0.959 . S
C1097 H1082 0.959 . S
C1097 H1083 0.961 . S
C1097 C1096 1.502 . S
C1098 H1084 0.960 . S
C1098 H1085 0.961 . S
C1098 H1086 0.959 . S
C1098 C1096 1.561 . S
C1099 C1096 1.526 . S
C1099 C1100 1.396 . S
C1099 C1104 1.390 . S
C1100 C1094 1.465 . S
C1100 C1099 1.396 . S
C1100 C1101 1.399 . S
C1101 H1087 0.929 . S
C1101 C1100 1.399 . S
C1101 C1102 1.385 . S
C1102 H1088 0.931 . S
C1102 C1101 1.385 . S
C1102 C1103 1.389 . S
C1103 C1102 1.389 . S
C1103 C1104 1.387 . S
C1104 H1089 0.930 . S
C1104 C1099 1.390 . S
C1104 C1103 1.387 . S
H1105 C1117 0.930 . S
H1106 C1119 0.930 . S
H1107 C1120 0.930 . S
H1108 C1124 0.959 . S
H1109 C1124 0.959 . S
H1110 C1124 0.961 . S
H1111 C1125 0.960 . S
H1112 C1125 0.961 . S
H1113 C1125 0.959 . S
H1114 C1128 0.929 . S
H1115 C1129 0.931 . S
H1116 C1131 0.930 . S
C1117 H1105 0.930 . S
C1117 C1118 1.399 . S
C1117 C1122 1.399 . S
C1118 C1117 1.399 . S
C1118 C1119 1.376 . S
C1119 H1106 0.930 . S
C1119 C1118 1.376 . S
C1119 C1120 1.388 . S
C1120 H1107 0.930 . S
C1120 C1119 1.388 . S
C1120 C1121 1.390 . S
C1121 C1120 1.390 . S
C1121 C1122 1.394 . S
C1121 C1127 1.465 . S
C1122 C1117 1.399 . S
C1122 C1121 1.394 . S
C1122 C1123 1.516 . S
C1123 C1122 1.516 . S
C1123 C1124 1.502 . S
C1123 C1125 1.561 . S
C1123 C1126 1.526 . S
C1124 H1108 0.959 . S
C1124 H1109 0.959 . S
C1124 H1110 0.961 . S
C1124 C1123 1.502 . S
C1125 H1111 0.960 . S
C1125 H1112 0.961 . S
C1125 H1113 0.959 . S
C1125 C1123 1.561 . S
C1126 C1123 1.526 . S
C1126 C1127 1.396 . S
C1126 C1131 1.390 . S
C1127 C1121 1.465 . S
C1127 C1126 1.396 . S
C1127 C1128 1.399 . S
C1128 H1114 0.929 . S
C1128 C1127 1.399 . S
C1128 C1129 1.385 . S
C1129 H1115 0.931 . S
C1129 C1128 1.385 . S
C1129 C1130 1.389 . S
C1130 C1129 1.389 . S
C1130 C1131 1.387 . S
C1131 H1116 0.930 . S
C1131 C1126 1.390 . S
C1131 C1130 1.387 . S
H1132 C1144 0.930 . S
H1133 C1146 0.930 . S
H1134 C1147 0.930 . S
H1135 C1151 0.959 . S
H1136 C1151 0.959 . S
H1137 C1151 0.961 . S
H1138 C1152 0.960 . S
H1139 C1152 0.961 . S
H1140 C1152 0.959 . S
H1141 C1155 0.929 . S
H1142 C1156 0.931 . S
H1143 C1158 0.930 . S
C1144 H1132 0.930 . S
C1144 C1145 1.399 . S
C1144 C1149 1.399 . S
C1145 C1144 1.399 . S
C1145 C1146 1.376 . S
C1146 H1133 0.930 . S
C1146 C1145 1.376 . S
C1146 C1147 1.388 . S
C1147 H1134 0.930 . S
C1147 C1146 1.388 . S
C1147 C1148 1.390 . S
C1148 C1147 1.390 . S
C1148 C1149 1.394 . S
C1148 C1154 1.465 . S
C1149 C1144 1.399 . S
C1149 C1148 1.394 . S
C1149 C1150 1.516 . S
C1150 C1149 1.516 . S
C1150 C1151 1.502 . S
C1150 C1152 1.561 . S
C1150 C1153 1.526 . S
C1151 H1135 0.959 . S
C1151 H1136 0.959 . S
C1151 H1137 0.961 . S
C1151 C1150 1.502 . S
C1152 H1138 0.960 . S
C1152 H1139 0.961 . S
C1152 H1140 0.959 . S
C1152 C1150 1.561 . S
C1153 C1150 1.526 . S
C1153 C1154 1.396 . S
C1153 C1158 1.390 . S
C1154 C1148 1.465 . S
C1154 C1153 1.396 . S
C1154 C1155 1.399 . S
C1155 H1141 0.929 . S
C1155 C1154 1.399 . S
C1155 C1156 1.385 . S
C1156 H1142 0.931 . S
C1156 C1155 1.385 . S
C1156 C1157 1.389 . S
C1157 C1156 1.389 . S
C1157 C1158 1.387 . S
C1158 H1143 0.930 . S
C1158 C1153 1.390 . S
C1158 C1157 1.387 . S
H1159 C1171 0.930 . S
H1160 C1173 0.930 . S
H1161 C1174 0.930 . S
H1162 C1178 0.959 . S
H1163 C1178 0.959 . S
H1164 C1178 0.961 . S
H1165 C1179 0.960 . S
H1166 C1179 0.961 . S
H1167 C1179 0.959 . S
H1168 C1182 0.929 . S
H1169 C1183 0.931 . S
H1170 C1185 0.930 . S
C1171 H1159 0.930 . S
C1171 C1172 1.399 . S
C1171 C1176 1.399 . S
C1172 C1171 1.399 . S
C1172 C1173 1.376 1_545 S
C1173 H1160 0.930 . S
C1173 C1172 1.376 1_565 S
C1173 C1174 1.388 . S
C1174 H1161 0.930 . S
C1174 C1173 1.388 . S
C1174 C1175 1.390 . S
C1175 C1174 1.390 . S
C1175 C1176 1.394 1_565 S
C1175 C1181 1.465 . S
C1176 C1171 1.399 . S
C1176 C1175 1.394 1_545 S
C1176 C1177 1.516 . S
C1177 C1176 1.516 . S
C1177 C1178 1.502 . S
C1177 C1179 1.561 . S
C1177 C1180 1.526 . S
C1178 H1162 0.959 . S
C1178 H1163 0.959 . S
C1178 H1164 0.961 . S
C1178 C1177 1.502 . S
C1179 H1165 0.960 . S
C1179 H1166 0.961 . S
C1179 H1167 0.959 . S
C1179 C1177 1.561 . S
C1180 C1177 1.526 . S
C1180 C1181 1.396 1_545 S
C1180 C1185 1.390 . S
C1181 C1175 1.465 . S
C1181 C1180 1.396 1_565 S
C1181 C1182 1.399 . S
C1182 H1168 0.929 . S
C1182 C1181 1.399 . S
C1182 C1183 1.385 . S
C1183 H1169 0.931 . S
C1183 C1182 1.385 . S
C1183 C1184 1.389 1_565 S
C1184 C1183 1.389 1_545 S
C1184 C1185 1.387 . S
C1185 H1170 0.930 . S
C1185 C1180 1.390 . S
C1185 C1184 1.387 . S
H1186 C1198 0.930 . S
H1187 C1200 0.930 . S
H1188 C1201 0.930 . S
H1189 C1205 0.959 . S
H1190 C1205 0.959 . S
H1191 C1205 0.961 . S
H1192 C1206 0.960 . S
H1193 C1206 0.961 . S
H1194 C1206 0.959 . S
H1195 C1209 0.929 . S
H1196 C1210 0.931 . S
H1197 C1212 0.930 . S
C1198 H1186 0.930 . S
C1198 C1199 1.399 . S
C1198 C1203 1.399 . S
C1199 C1198 1.399 . S
C1199 C1200 1.376 . S
C1200 H1187 0.930 . S
C1200 C1199 1.376 . S
C1200 C1201 1.388 . S
C1201 H1188 0.930 . S
C1201 C1200 1.388 . S
C1201 C1202 1.390 . S
C1202 C1201 1.390 . S
C1202 C1203 1.394 . S
C1202 C1208 1.465 . S
C1203 C1198 1.399 . S
C1203 C1202 1.394 . S
C1203 C1204 1.516 . S
C1204 C1203 1.516 . S
C1204 C1205 1.502 . S
C1204 C1206 1.561 . S
C1204 C1207 1.526 . S
C1205 H1189 0.959 . S
C1205 H1190 0.959 . S
C1205 H1191 0.961 . S
C1205 C1204 1.502 . S
C1206 H1192 0.960 . S
C1206 H1193 0.961 . S
C1206 H1194 0.959 . S
C1206 C1204 1.561 . S
C1207 C1204 1.526 . S
C1207 C1208 1.396 . S
C1207 C1212 1.390 . S
C1208 C1202 1.465 . S
C1208 C1207 1.396 . S
C1208 C1209 1.399 . S
C1209 H1195 0.929 . S
C1209 C1208 1.399 . S
C1209 C1210 1.385 . S
C1210 H1196 0.931 . S
C1210 C1209 1.385 . S
C1210 C1211 1.389 . S
C1211 C1210 1.389 . S
C1211 C1212 1.387 . S
C1212 H1197 0.930 . S
C1212 C1207 1.390 . S
C1212 C1211 1.387 . S
H1213 C1225 0.930 . S
H1214 C1227 0.930 . S
H1215 C1228 0.930 . S
H1216 C1232 0.959 . S
H1217 C1232 0.959 . S
H1218 C1232 0.961 1_655 S
H1219 C1233 0.960 . S
H1220 C1233 0.961 . S
H1221 C1233 0.959 . S
H1222 C1236 0.929 . S
H1223 C1237 0.931 . S
H1224 C1239 0.930 . S
C1225 H1213 0.930 . S
C1225 C1226 1.399 . S
C1225 C1230 1.399 1_655 S
C1226 C1225 1.399 . S
C1226 C1227 1.376 1_655 S
C1227 H1214 0.930 . S
C1227 C1226 1.376 1_455 S
C1227 C1228 1.388 . S
C1228 H1215 0.930 . S
C1228 C1227 1.388 . S
C1228 C1229 1.390 . S
C1229 C1228 1.390 . S
C1229 C1230 1.394 . S
C1229 C1235 1.465 . S
C1230 C1225 1.399 1_455 S
C1230 C1229 1.394 . S
C1230 C1231 1.516 . S
C1231 C1230 1.516 . S
C1231 C1232 1.502 . S
C1231 C1233 1.561 . S
C1231 C1234 1.526 . S
C1232 H1216 0.959 . S
C1232 H1217 0.959 . S
C1232 H1218 0.961 1_455 S
C1232 C1231 1.502 . S
C1233 H1219 0.960 . S
C1233 H1220 0.961 . S
C1233 H1221 0.959 . S
C1233 C1231 1.561 . S
C1234 C1231 1.526 . S
C1234 C1235 1.396 . S
C1234 C1239 1.390 . S
C1235 C1229 1.465 . S
C1235 C1234 1.396 . S
C1235 C1236 1.399 . S
C1236 H1222 0.929 . S
C1236 C1235 1.399 . S
C1236 C1237 1.385 . S
C1237 H1223 0.931 . S
C1237 C1236 1.385 . S
C1237 C1238 1.389 . S
C1238 C1237 1.389 . S
C1238 C1239 1.387 . S
C1239 H1224 0.930 . S
C1239 C1234 1.390 . S
C1239 C1238 1.387 . S
H1240 C1252 0.930 . S
H1241 C1254 0.930 . S
H1242 C1255 0.930 . S
H1243 C1259 0.959 . S
H1244 C1259 0.959 . S
H1245 C1259 0.961 . S
H1246 C1260 0.960 . S
H1247 C1260 0.961 . S
H1248 C1260 0.959 . S
H1249 C1263 0.929 . S
H1250 C1264 0.931 . S
H1251 C1266 0.930 . S
C1252 H1240 0.930 . S
C1252 C1253 1.399 . S
C1252 C1257 1.399 . S
C1253 C1252 1.399 . S
C1253 C1254 1.376 . S
C1254 H1241 0.930 . S
C1254 C1253 1.376 . S
C1254 C1255 1.388 . S
C1255 H1242 0.930 . S
C1255 C1254 1.388 . S
C1255 C1256 1.390 . S
C1256 C1255 1.390 . S
C1256 C1257 1.394 . S
C1256 C1262 1.465 . S
C1257 C1252 1.399 . S
C1257 C1256 1.394 . S
C1257 C1258 1.516 . S
C1258 C1257 1.516 . S
C1258 C1259 1.502 . S
C1258 C1260 1.561 . S
C1258 C1261 1.526 . S
C1259 H1243 0.959 . S
C1259 H1244 0.959 . S
C1259 H1245 0.961 . S
C1259 C1258 1.502 . S
C1260 H1246 0.960 . S
C1260 H1247 0.961 . S
C1260 H1248 0.959 . S
C1260 C1258 1.561 . S
C1261 C1258 1.526 . S
C1261 C1262 1.396 . S
C1261 C1266 1.390 . S
C1262 C1256 1.465 . S
C1262 C1261 1.396 . S
C1262 C1263 1.399 . S
C1263 H1249 0.929 . S
C1263 C1262 1.399 . S
C1263 C1264 1.385 . S
C1264 H1250 0.931 . S
C1264 C1263 1.385 . S
C1264 C1265 1.389 . S
C1265 C1264 1.389 . S
C1265 C1266 1.387 . S
C1266 H1251 0.930 . S
C1266 C1261 1.390 . S
C1266 C1265 1.387 . S
H1267 C1279 0.930 . S
H1268 C1281 0.930 . S
H1269 C1282 0.930 1_455 S
H1270 C1286 0.959 . S
H1271 C1286 0.959 . S
H1272 C1286 0.961 . S
H1273 C1287 0.960 . S
H1274 C1287 0.961 . S
H1275 C1287 0.959 . S
H1276 C1290 0.929 . S
H1277 C1291 0.931 . S
H1278 C1293 0.930 . S
C1279 H1267 0.930 . S
C1279 C1280 1.399 . S
C1279 C1284 1.399 . S
C1280 C1279 1.399 . S
C1280 C1281 1.376 . S
C1281 H1268 0.930 . S
C1281 C1280 1.376 . S
C1281 C1282 1.388 . S
C1282 H1269 0.930 1_655 S
C1282 C1281 1.388 . S
C1282 C1283 1.390 . S
C1283 C1282 1.390 . S
C1283 C1284 1.394 . S
C1283 C1289 1.465 . S
C1284 C1279 1.399 . S
C1284 C1283 1.394 . S
C1284 C1285 1.516 1_554 S
C1285 C1284 1.516 1_556 S
C1285 C1286 1.502 . S
C1285 C1287 1.561 . S
C1285 C1288 1.526 . S
C1286 H1270 0.959 . S
C1286 H1271 0.959 . S
C1286 H1272 0.961 . S
C1286 C1285 1.502 . S
C1287 H1273 0.960 . S
C1287 H1274 0.961 . S
C1287 H1275 0.959 . S
C1287 C1285 1.561 . S
C1288 C1285 1.526 . S
C1288 C1289 1.396 1_556 S
C1288 C1293 1.390 . S
C1289 C1283 1.465 . S
C1289 C1288 1.396 1_554 S
C1289 C1290 1.399 1_655 S
C1290 H1276 0.929 . S
C1290 C1289 1.399 1_455 S
C1290 C1291 1.385 1_554 S
C1291 H1277 0.931 . S
C1291 C1290 1.385 1_556 S
C1291 C1292 1.389 1_455 S
C1292 C1291 1.389 1_655 S
C1292 C1293 1.387 . S
C1293 H1278 0.930 . S
C1293 C1288 1.390 . S
C1293 C1292 1.387 . S
H1294 C1306 0.930 . S
H1295 C1308 0.930 . S
H1296 C1309 0.930 . S
H1297 C1313 0.959 . S
H1298 C1313 0.959 . S
H1299 C1313 0.961 . S
H1300 C1314 0.960 . S
H1301 C1314 0.961 . S
H1302 C1314 0.959 . S
H1303 C1317 0.929 . S
H1304 C1318 0.931 . S
H1305 C1320 0.930 . S
C1306 H1294 0.930 . S
C1306 C1307 1.399 . S
C1306 C1311 1.399 . S
C1307 C1306 1.399 . S
C1307 C1308 1.376 . S
C1308 H1295 0.930 . S
C1308 C1307 1.376 . S
C1308 C1309 1.388 . S
C1309 H1296 0.930 . S
C1309 C1308 1.388 . S
C1309 C1310 1.390 . S
C1310 C1309 1.390 . S
C1310 C1311 1.394 . S
C1310 C1316 1.465 . S
C1311 C1306 1.399 . S
C1311 C1310 1.394 . S
C1311 C1312 1.516 . S
C1312 C1311 1.516 . S
C1312 C1313 1.502 . S
C1312 C1314 1.561 . S
C1312 C1315 1.526 . S
C1313 H1297 0.959 . S
C1313 H1298 0.959 . S
C1313 H1299 0.961 . S
C1313 C1312 1.502 . S
C1314 H1300 0.960 . S
C1314 H1301 0.961 . S
C1314 H1302 0.959 . S
C1314 C1312 1.561 . S
C1315 C1312 1.526 . S
C1315 C1316 1.396 . S
C1315 C1320 1.390 . S
C1316 C1310 1.465 . S
C1316 C1315 1.396 . S
C1316 C1317 1.399 . S
C1317 H1303 0.929 . S
C1317 C1316 1.399 . S
C1317 C1318 1.385 . S
C1318 H1304 0.931 . S
C1318 C1317 1.385 . S
C1318 C1319 1.389 . S
C1319 C1318 1.389 . S
C1319 C1320 1.387 . S
C1320 H1305 0.930 . S
C1320 C1315 1.390 . S
C1320 C1319 1.387 . S
H1321 C1333 0.930 . S
H1322 C1335 0.930 . S
H1323 C1336 0.930 1_655 S
H1324 C1340 0.959 . S
H1325 C1340 0.959 . S
H1326 C1340 0.961 . S
H1327 C1341 0.960 . S
H1328 C1341 0.961 . S
H1329 C1341 0.959 1_556 S
H1330 C1344 0.929 . S
H1331 C1345 0.931 . S
H1332 C1347 0.930 . S
C1333 H1321 0.930 . S
C1333 C1334 1.399 . S
C1333 C1338 1.399 . S
C1334 C1333 1.399 . S
C1334 C1335 1.376 1_554 S
C1335 H1322 0.930 . S
C1335 C1334 1.376 1_556 S
C1335 C1336 1.388 . S
C1336 H1323 0.930 1_455 S
C1336 C1335 1.388 . S
C1336 C1337 1.390 . S
C1337 C1336 1.390 . S
C1337 C1338 1.394 1_556 S
C1337 C1343 1.465 . S
C1338 C1333 1.399 . S
C1338 C1337 1.394 1_554 S
C1338 C1339 1.516 . S
C1339 C1338 1.516 . S
C1339 C1340 1.502 . S
C1339 C1341 1.561 . S
C1339 C1342 1.526 1_554 S
C1340 H1324 0.959 . S
C1340 H1325 0.959 . S
C1340 H1326 0.961 . S
C1340 C1339 1.502 . S
C1341 H1327 0.960 . S
C1341 H1328 0.961 . S
C1341 H1329 0.959 1_554 S
C1341 C1339 1.561 . S
C1342 C1339 1.526 1_556 S
C1342 C1343 1.396 . S
C1342 C1347 1.390 . S
C1343 C1337 1.465 . S
C1343 C1342 1.396 . S
C1343 C1344 1.399 1_455 S
C1344 H1330 0.929 . S
C1344 C1343 1.399 1_655 S
C1344 C1345 1.385 . S
C1345 H1331 0.931 . S
C1345 C1344 1.385 . S
C1345 C1346 1.389 1_655 S
C1346 C1345 1.389 1_455 S
C1346 C1347 1.387 . S
C1347 H1332 0.930 . S
C1347 C1342 1.390 . S
C1347 C1346 1.387 . S
H1348 C1360 0.930 . S
H1349 C1362 0.930 . S
H1350 C1363 0.930 . S
H1351 C1367 0.959 . S
H1352 C1367 0.959 . S
H1353 C1367 0.961 . S
H1354 C1368 0.960 . S
H1355 C1368 0.961 . S
H1356 C1368 0.959 . S
H1357 C1371 0.929 . S
H1358 C1372 0.931 . S
H1359 C1374 0.930 . S
C1360 H1348 0.930 . S
C1360 C1361 1.399 . S
C1360 C1365 1.399 . S
C1361 C1360 1.399 . S
C1361 C1362 1.376 . S
C1362 H1349 0.930 . S
C1362 C1361 1.376 . S
C1362 C1363 1.388 . S
C1363 H1350 0.930 . S
C1363 C1362 1.388 . S
C1363 C1364 1.390 . S
C1364 C1363 1.390 . S
C1364 C1365 1.394 . S
C1364 C1370 1.465 . S
C1365 C1360 1.399 . S
C1365 C1364 1.394 . S
C1365 C1366 1.516 . S
C1366 C1365 1.516 . S
C1366 C1367 1.502 . S
C1366 C1368 1.561 . S
C1366 C1369 1.526 . S
C1367 H1351 0.959 . S
C1367 H1352 0.959 . S
C1367 H1353 0.961 . S
C1367 C1366 1.502 . S
C1368 H1354 0.960 . S
C1368 H1355 0.961 . S
C1368 H1356 0.959 . S
C1368 C1366 1.561 . S
C1369 C1366 1.526 . S
C1369 C1370 1.396 . S
C1369 C1374 1.390 . S
C1370 C1364 1.465 . S
C1370 C1369 1.396 . S
C1370 C1371 1.399 . S
C1371 H1357 0.929 . S
C1371 C1370 1.399 . S
C1371 C1372 1.385 . S
C1372 H1358 0.931 . S
C1372 C1371 1.385 . S
C1372 C1373 1.389 . S
C1373 C1372 1.389 . S
C1373 C1374 1.387 . S
C1374 H1359 0.930 . S
C1374 C1369 1.390 . S
C1374 C1373 1.387 . S
H1375 C1387 0.930 . S
H1376 C1389 0.930 . S
H1377 C1390 0.930 . S
H1378 C1394 0.959 . S
H1379 C1394 0.959 . S
H1380 C1394 0.961 . S
H1381 C1395 0.960 . S
H1382 C1395 0.961 . S
H1383 C1395 0.959 . S
H1384 C1398 0.929 . S
H1385 C1399 0.931 . S
H1386 C1401 0.930 . S
C1387 H1375 0.930 . S
C1387 C1388 1.399 1_554 S
C1387 C1392 1.399 . S
C1388 C1387 1.399 1_556 S
C1388 C1389 1.376 . S
C1389 H1376 0.930 . S
C1389 C1388 1.376 . S
C1389 C1390 1.388 1_556 S
C1390 H1377 0.930 . S
C1390 C1389 1.388 1_554 S
C1390 C1391 1.390 . S
C1391 C1390 1.390 . S
C1391 C1392 1.394 . S
C1391 C1397 1.465 . S
C1392 C1387 1.399 . S
C1392 C1391 1.394 . S
C1392 C1393 1.516 . S
C1393 C1392 1.516 . S
C1393 C1394 1.502 . S
C1393 C1395 1.561 . S
C1393 C1396 1.526 . S
C1394 H1378 0.959 . S
C1394 H1379 0.959 . S
C1394 H1380 0.961 . S
C1394 C1393 1.502 . S
C1395 H1381 0.960 . S
C1395 H1382 0.961 . S
C1395 H1383 0.959 . S
C1395 C1393 1.561 . S
C1396 C1393 1.526 . S
C1396 C1397 1.396 . S
C1396 C1401 1.390 . S
C1397 C1391 1.465 . S
C1397 C1396 1.396 . S
C1397 C1398 1.399 . S
C1398 H1384 0.929 . S
C1398 C1397 1.399 . S
C1398 C1399 1.385 . S
C1399 H1385 0.931 . S
C1399 C1398 1.385 . S
C1399 C1400 1.389 . S
C1400 C1399 1.389 . S
C1400 C1401 1.387 . S
C1401 H1386 0.930 . S
C1401 C1396 1.390 . S
C1401 C1400 1.387 . S
H1402 C1414 0.930 . S
H1403 C1416 0.930 . S
H1404 C1417 0.930 . S
H1405 C1421 0.959 . S
H1406 C1421 0.959 . S
H1407 C1421 0.961 . S
H1408 C1422 0.960 . S
H1409 C1422 0.961 . S
H1410 C1422 0.959 . S
H1411 C1425 0.929 . S
H1412 C1426 0.931 . S
H1413 C1428 0.930 . S
C1414 H1402 0.930 . S
C1414 C1415 1.399 . S
C1414 C1419 1.399 . S
C1415 C1414 1.399 . S
C1415 C1416 1.376 . S
C1416 H1403 0.930 . S
C1416 C1415 1.376 . S
C1416 C1417 1.388 . S
C1417 H1404 0.930 . S
C1417 C1416 1.388 . S
C1417 C1418 1.390 . S
C1418 C1417 1.390 . S
C1418 C1419 1.394 . S
C1418 C1424 1.465 . S
C1419 C1414 1.399 . S
C1419 C1418 1.394 . S
C1419 C1420 1.516 . S
C1420 C1419 1.516 . S
C1420 C1421 1.502 . S
C1420 C1422 1.561 . S
C1420 C1423 1.526 . S
C1421 H1405 0.959 . S
C1421 H1406 0.959 . S
C1421 H1407 0.961 . S
C1421 C1420 1.502 . S
C1422 H1408 0.960 . S
C1422 H1409 0.961 . S
C1422 H1410 0.959 . S
C1422 C1420 1.561 . S
C1423 C1420 1.526 . S
C1423 C1424 1.396 . S
C1423 C1428 1.390 . S
C1424 C1418 1.465 . S
C1424 C1423 1.396 . S
C1424 C1425 1.399 . S
C1425 H1411 0.929 . S
C1425 C1424 1.399 . S
C1425 C1426 1.385 . S
C1426 H1412 0.931 . S
C1426 C1425 1.385 . S
C1426 C1427 1.389 . S
C1427 C1426 1.389 . S
C1427 C1428 1.387 . S
C1428 H1413 0.930 . S
C1428 C1423 1.390 . S
C1428 C1427 1.387 . S
H1429 C1441 0.930 . S
H1430 C1443 0.930 . S
H1431 C1444 0.934 . S
H1432 C1448 0.959 . S
H1433 C1448 0.959 . S
H1434 C1448 0.961 . S
H1435 C1449 0.960 1_556 S
H1436 C1449 0.961 . S
H1437 C1449 0.970 . S
H1438 C1452 0.929 . S
H1439 C1453 0.931 . S
H1440 C1455 0.930 . S
C1441 H1429 0.930 . S
C1441 C1442 1.399 . S
C1441 C1446 1.399 1_556 S
C1442 C1441 1.399 . S
C1442 C1443 1.376 . S
C1443 H1430 0.930 . S
C1443 C1442 1.376 . S
C1443 C1444 1.366 1_556 S
C1444 H1431 0.934 . S
C1444 C1443 1.366 1_554 S
C1444 C1445 1.409 . S
C1445 C1444 1.409 . S
C1445 C1446 1.394 . S
C1445 C1451 1.465 . S
C1446 C1441 1.399 1_554 S
C1446 C1445 1.394 . S
C1446 C1447 1.516 . S
C1447 C1446 1.516 . S
C1447 C1448 1.502 . S
C1447 C1449 1.561 . S
C1447 C1450 1.526 . S
C1448 H1432 0.959 . S
C1448 H1433 0.959 . S
C1448 H1434 0.961 . S
C1448 C1447 1.502 . S
C1449 H1435 0.960 1_554 S
C1449 H1436 0.961 . S
C1449 H1437 0.970 . S
C1449 C1447 1.561 . S
C1450 C1447 1.526 . S
C1450 C1451 1.396 . S
C1450 C1455 1.390 . S
C1451 C1445 1.465 . S
C1451 C1450 1.396 . S
C1451 C1452 1.399 . S
C1452 H1438 0.929 . S
C1452 C1451 1.399 . S
C1452 C1453 1.385 . S
C1453 H1439 0.931 . S
C1453 C1452 1.385 . S
C1453 C1454 1.389 . S
C1454 C1453 1.389 . S
C1454 C1455 1.387 . S
C1455 H1440 0.930 . S
C1455 C1450 1.390 . S
C1455 C1454 1.387 . S
H1456 C1468 0.930 . S
H1457 C1470 0.930 . S
H1458 C1471 0.930 . S
H1459 C1475 0.959 . S
H1460 C1475 0.959 . S
H1461 C1475 0.961 . S
H1462 C1476 0.960 . S
H1463 C1476 0.961 . S
H1464 C1476 0.959 . S
H1465 C1479 0.929 . S
H1466 C1480 0.931 . S
H1467 C1482 0.930 . S
C1468 H1456 0.930 . S
C1468 C1469 1.399 . S
C1468 C1473 1.399 . S
C1469 C1468 1.399 . S
C1469 C1470 1.376 . S
C1470 H1457 0.930 . S
C1470 C1469 1.376 . S
C1470 C1471 1.388 . S
C1471 H1458 0.930 . S
C1471 C1470 1.388 . S
C1471 C1472 1.390 . S
C1472 C1471 1.390 . S
C1472 C1473 1.394 . S
C1472 C1478 1.465 . S
C1473 C1468 1.399 . S
C1473 C1472 1.394 . S
C1473 C1474 1.516 . S
C1474 C1473 1.516 . S
C1474 C1475 1.502 . S
C1474 C1476 1.561 . S
C1474 C1477 1.526 . S
C1475 H1459 0.959 . S
C1475 H1460 0.959 . S
C1475 H1461 0.961 . S
C1475 C1474 1.502 . S
C1476 H1462 0.960 . S
C1476 H1463 0.961 . S
C1476 H1464 0.959 . S
C1476 C1474 1.561 . S
C1477 C1474 1.526 . S
C1477 C1478 1.396 . S
C1477 C1482 1.390 . S
C1478 C1472 1.465 . S
C1478 C1477 1.396 . S
C1478 C1479 1.399 . S
C1479 H1465 0.929 . S
C1479 C1478 1.399 . S
C1479 C1480 1.385 . S
C1480 H1466 0.931 . S
C1480 C1479 1.385 . S
C1480 C1481 1.389 . S
C1481 C1480 1.389 . S
C1481 C1482 1.387 . S
C1482 H1467 0.930 . S
C1482 C1477 1.390 . S
C1482 C1481 1.387 . S
H1483 C1495 0.930 . S
H1484 C1497 0.930 . S
H1485 C1498 0.930 . S
H1486 C1502 0.959 . S
H1487 C1502 0.959 . S
H1488 C1502 0.961 . S
H1489 C1503 0.960 . S
H1490 C1503 0.961 . S
H1491 C1503 0.959 . S
H1492 C1506 0.929 . S
H1493 C1507 0.931 . S
H1494 C1509 0.930 . S
C1495 H1483 0.930 . S
C1495 C1496 1.399 . S
C1495 C1500 1.399 . S
C1496 C1495 1.399 . S
C1496 C1497 1.376 . S
C1497 H1484 0.930 . S
C1497 C1496 1.376 . S
C1497 C1498 1.388 . S
C1498 H1485 0.930 . S
C1498 C1497 1.388 . S
C1498 C1499 1.390 . S
C1499 C1498 1.390 . S
C1499 C1500 1.394 . S
C1499 C1505 1.465 . S
C1500 C1495 1.399 . S
C1500 C1499 1.394 . S
C1500 C1501 1.516 . S
C1501 C1500 1.516 . S
C1501 C1502 1.502 . S
C1501 C1503 1.561 . S
C1501 C1504 1.526 . S
C1502 H1486 0.959 . S
C1502 H1487 0.959 . S
C1502 H1488 0.961 . S
C1502 C1501 1.502 . S
C1503 H1489 0.960 . S
C1503 H1490 0.961 . S
C1503 H1491 0.959 . S
C1503 C1501 1.561 . S
C1504 C1501 1.526 . S
C1504 C1505 1.396 . S
C1504 C1509 1.390 . S
C1505 C1499 1.465 . S
C1505 C1504 1.396 . S
C1505 C1506 1.399 . S
C1506 H1492 0.929 . S
C1506 C1505 1.399 . S
C1506 C1507 1.385 . S
C1507 H1493 0.931 . S
C1507 C1506 1.385 . S
C1507 C1508 1.389 . S
C1508 C1507 1.389 . S
C1508 C1509 1.387 . S
C1509 H1494 0.930 . S
C1509 C1504 1.390 . S
C1509 C1508 1.387 . S
H1510 C1522 0.930 . S
H1511 C1524 0.930 . S
H1512 C1525 0.930 . S
H1513 C1529 0.959 . S
H1514 C1529 0.959 . S
H1515 C1529 0.961 . S
H1516 C1530 0.960 . S
H1517 C1530 0.961 . S
H1518 C1530 0.959 . S
H1519 C1533 0.929 . S
H1520 C1534 0.931 . S
H1521 C1536 0.930 . S
C1522 H1510 0.930 . S
C1522 C1523 1.399 . S
C1522 C1527 1.399 . S
C1523 C1522 1.399 . S
C1523 C1524 1.376 . S
C1524 H1511 0.930 . S
C1524 C1523 1.376 . S
C1524 C1525 1.388 . S
C1525 H1512 0.930 . S
C1525 C1524 1.388 . S
C1525 C1526 1.390 . S
C1526 C1525 1.390 . S
C1526 C1527 1.394 . S
C1526 C1532 1.465 . S
C1527 C1522 1.399 . S
C1527 C1526 1.394 . S
C1527 C1528 1.516 . S
C1528 C1527 1.516 . S
C1528 C1529 1.502 . S
C1528 C1530 1.561 . S
C1528 C1531 1.526 . S
C1529 H1513 0.959 . S
C1529 H1514 0.959 . S
C1529 H1515 0.961 . S
C1529 C1528 1.502 . S
C1530 H1516 0.960 . S
C1530 H1517 0.961 . S
C1530 H1518 0.959 . S
C1530 C1528 1.561 . S
C1531 C1528 1.526 . S
C1531 C1532 1.396 . S
C1531 C1536 1.390 . S
C1532 C1526 1.465 . S
C1532 C1531 1.396 . S
C1532 C1533 1.399 . S
C1533 H1519 0.929 . S
C1533 C1532 1.399 . S
C1533 C1534 1.385 . S
C1534 H1520 0.931 . S
C1534 C1533 1.385 . S
C1534 C1535 1.389 . S
C1535 C1534 1.389 . S
C1535 C1536 1.387 . S
C1536 H1521 0.930 . S
C1536 C1531 1.390 . S
C1536 C1535 1.387 . S
H1537 C1549 0.930 . S
H1538 C1551 0.930 . S
H1539 C1552 0.930 . S
H1540 C1556 0.959 . S
H1541 C1556 0.959 . S
H1542 C1556 0.961 . S
H1543 C1557 0.960 . S
H1544 C1557 0.961 . S
H1545 C1557 0.959 . S
H1546 C1560 0.929 . S
H1547 C1561 0.931 . S
H1548 C1563 0.930 . S
C1549 H1537 0.930 . S
C1549 C1550 1.399 . S
C1549 C1554 1.399 . S
C1550 C1549 1.399 . S
C1550 C1551 1.376 . S
C1551 H1538 0.930 . S
C1551 C1550 1.376 . S
C1551 C1552 1.388 . S
C1552 H1539 0.930 . S
C1552 C1551 1.388 . S
C1552 C1553 1.390 . S
C1553 C1552 1.390 . S
C1553 C1554 1.394 . S
C1553 C1559 1.465 . S
C1554 C1549 1.399 . S
C1554 C1553 1.394 . S
C1554 C1555 1.516 . S
C1555 C1554 1.516 . S
C1555 C1556 1.502 . S
C1555 C1557 1.561 . S
C1555 C1558 1.526 . S
C1556 H1540 0.959 . S
C1556 H1541 0.959 . S
C1556 H1542 0.961 . S
C1556 C1555 1.502 . S
C1557 H1543 0.960 . S
C1557 H1544 0.961 . S
C1557 H1545 0.959 . S
C1557 C1555 1.561 . S
C1558 C1555 1.526 . S
C1558 C1559 1.396 . S
C1558 C1563 1.390 . S
C1559 C1553 1.465 . S
C1559 C1558 1.396 . S
C1559 C1560 1.399 . S
C1560 H1546 0.929 . S
C1560 C1559 1.399 . S
C1560 C1561 1.385 . S
C1561 H1547 0.931 . S
C1561 C1560 1.385 . S
C1561 C1562 1.389 . S
C1562 C1561 1.389 . S
C1562 C1563 1.387 . S
C1563 H1548 0.930 . S
C1563 C1558 1.390 . S
C1563 C1562 1.387 . S
H1564 C1576 0.930 1_554 S
H1565 C1578 0.930 . S
H1566 C1579 0.930 . S
H1567 C1583 0.959 . S
H1568 C1583 0.959 . S
H1569 C1583 0.961 . S
H1570 C1584 0.960 . S
H1571 C1584 0.961 . S
H1572 C1584 0.959 . S
H1573 C1587 0.929 . S
H1574 C1588 0.931 . S
H1575 C1590 0.930 . S
C1576 H1564 0.930 1_556 S
C1576 C1577 1.399 . S
C1576 C1581 1.399 . S
C1577 C1576 1.399 . S
C1577 C1578 1.376 . S
C1578 H1565 0.930 . S
C1578 C1577 1.376 . S
C1578 C1579 1.388 . S
C1579 H1566 0.930 . S
C1579 C1578 1.388 . S
C1579 C1580 1.390 . S
C1580 C1579 1.390 . S
C1580 C1581 1.394 . S
C1580 C1586 1.465 . S
C1581 C1576 1.399 . S
C1581 C1580 1.394 . S
C1581 C1582 1.516 1_556 S
C1582 C1581 1.516 1_554 S
C1582 C1583 1.502 . S
C1582 C1584 1.561 . S
C1582 C1585 1.526 1_554 S
C1583 H1567 0.959 . S
C1583 H1568 0.959 . S
C1583 H1569 0.961 . S
C1583 C1582 1.502 . S
C1584 H1570 0.960 . S
C1584 H1571 0.961 . S
C1584 H1572 0.959 . S
C1584 C1582 1.561 . S
C1585 C1582 1.526 1_556 S
C1585 C1586 1.396 . S
C1585 C1590 1.390 1_556 S
C1586 C1580 1.465 . S
C1586 C1585 1.396 . S
C1586 C1587 1.399 . S
C1587 H1573 0.929 . S
C1587 C1586 1.399 . S
C1587 C1588 1.385 . S
C1588 H1574 0.931 . S
C1588 C1587 1.385 . S
C1588 C1589 1.389 . S
C1589 C1588 1.389 . S
C1589 C1590 1.387 1_556 S
C1590 H1575 0.930 . S
C1590 C1585 1.390 1_554 S
C1590 C1589 1.387 1_554 S
H1591 C1603 0.930 . S
H1592 C1605 0.930 . S
H1593 C1606 0.930 . S
H1594 C1610 0.959 . S
H1595 C1610 0.959 . S
H1596 C1610 0.961 . S
H1597 C1611 0.960 . S
H1598 C1611 0.961 . S
H1599 C1611 0.959 . S
H1600 C1614 0.929 . S
H1601 C1615 0.931 . S
H1602 C1617 0.930 . S
C1603 H1591 0.930 . S
C1603 C1604 1.399 . S
C1603 C1608 1.399 . S
C1604 C1603 1.399 . S
C1604 C1605 1.376 . S
C1605 H1592 0.930 . S
C1605 C1604 1.376 . S
C1605 C1606 1.388 . S
C1606 H1593 0.930 . S
C1606 C1605 1.388 . S
C1606 C1607 1.390 . S
C1607 C1606 1.390 . S
C1607 C1608 1.394 . S
C1607 C1613 1.465 . S
C1608 C1603 1.399 . S
C1608 C1607 1.394 . S
C1608 C1609 1.516 . S
C1609 C1608 1.516 . S
C1609 C1610 1.502 . S
C1609 C1611 1.561 . S
C1609 C1612 1.526 . S
C1610 H1594 0.959 . S
C1610 H1595 0.959 . S
C1610 H1596 0.961 . S
C1610 C1609 1.502 . S
C1611 H1597 0.960 . S
C1611 H1598 0.961 . S
C1611 H1599 0.959 . S
C1611 C1609 1.561 . S
C1612 C1609 1.526 . S
C1612 C1613 1.396 . S
C1612 C1617 1.390 . S
C1613 C1607 1.465 . S
C1613 C1612 1.396 . S
C1613 C1614 1.399 . S
C1614 H1600 0.929 . S
C1614 C1613 1.399 . S
C1614 C1615 1.385 . S
C1615 H1601 0.931 . S
C1615 C1614 1.385 . S
C1615 C1616 1.389 . S
C1616 C1615 1.389 . S
C1616 C1617 1.387 . S
C1617 H1602 0.930 . S
C1617 C1612 1.390 . S
C1617 C1616 1.387 . S
H1618 C1630 0.930 . S
H1619 C1632 0.930 . S
H1620 C1633 0.930 . S
H1621 C1637 0.959 . S
H1622 C1637 0.959 1_556 S
H1623 C1637 0.961 . S
H1624 C1638 0.960 . S
H1625 C1638 0.961 . S
H1626 C1638 0.959 . S
H1627 C1641 0.929 . S
H1628 C1642 0.931 . S
H1629 C1644 0.930 1_556 S
C1630 H1618 0.930 . S
C1630 C1631 1.399 . S
C1630 C1635 1.399 . S
C1631 C1630 1.399 . S
C1631 C1632 1.376 . S
C1632 H1619 0.930 . S
C1632 C1631 1.376 . S
C1632 C1633 1.388 . S
C1633 H1620 0.930 . S
C1633 C1632 1.388 . S
C1633 C1634 1.390 . S
C1634 C1633 1.390 . S
C1634 C1635 1.394 . S
C1634 C1640 1.465 . S
C1635 C1630 1.399 . S
C1635 C1634 1.394 . S
C1635 C1636 1.516 . S
C1636 C1635 1.516 . S
C1636 C1637 1.502 . S
C1636 C1638 1.561 1_554 S
C1636 C1639 1.526 . S
C1637 H1621 0.959 . S
C1637 H1622 0.959 1_554 S
C1637 H1623 0.961 . S
C1637 C1636 1.502 . S
C1638 H1624 0.960 . S
C1638 H1625 0.961 . S
C1638 H1626 0.959 . S
C1638 C1636 1.561 1_556 S
C1639 C1636 1.526 . S
C1639 C1640 1.396 . S
C1639 C1644 1.390 . S
C1640 C1634 1.465 . S
C1640 C1639 1.396 . S
C1640 C1641 1.399 . S
C1641 H1627 0.929 . S
C1641 C1640 1.399 . S
C1641 C1642 1.385 . S
C1642 H1628 0.931 . S
C1642 C1641 1.385 . S
C1642 C1643 1.389 . S
C1643 C1642 1.389 . S
C1643 C1644 1.387 . S
C1644 H1629 0.930 1_554 S
C1644 C1639 1.390 . S
C1644 C1643 1.387 . S
H1645 C1657 0.930 . S
H1646 C1659 0.930 . S
H1647 C1660 0.930 . S
H1648 C1664 0.959 . S
H1649 C1664 0.959 . S
H1650 C1664 0.961 . S
H1651 C1665 0.960 1_545 S
H1652 C1665 0.961 . S
H1653 C1665 0.959 . S
H1654 C1668 0.929 . S
H1655 C1669 0.931 . S
H1656 C1671 0.930 . S
C1657 H1645 0.930 . S
C1657 C1658 1.399 1_545 S
C1657 C1662 1.399 1_545 S
C1658 C1657 1.399 1_565 S
C1658 C1659 1.376 . S
C1659 H1646 0.930 . S
C1659 C1658 1.376 . S
C1659 C1660 1.388 . S
C1660 H1647 0.930 . S
C1660 C1659 1.388 . S
C1660 C1661 1.390 . S
C1661 C1660 1.390 . S
C1661 C1662 1.394 . S
C1661 C1667 1.465 . S
C1662 C1657 1.399 1_565 S
C1662 C1661 1.394 . S
C1662 C1663 1.516 . S
C1663 C1662 1.516 . S
C1663 C1664 1.502 1_565 S
C1663 C1665 1.561 . S
C1663 C1666 1.526 . S
C1664 H1648 0.959 . S
C1664 H1649 0.959 . S
C1664 H1650 0.961 . S
C1664 C1663 1.502 1_545 S
C1665 H1651 0.960 1_565 S
C1665 H1652 0.961 . S
C1665 H1653 0.959 . S
C1665 C1663 1.561 . S
C1666 C1663 1.526 . S
C1666 C1667 1.396 . S
C1666 C1671 1.390 . S
C1667 C1661 1.465 . S
C1667 C1666 1.396 . S
C1667 C1668 1.399 . S
C1668 H1654 0.929 . S
C1668 C1667 1.399 . S
C1668 C1669 1.385 . S
C1669 H1655 0.931 . S
C1669 C1668 1.385 . S
C1669 C1670 1.389 . S
C1670 C1669 1.389 . S
C1670 C1671 1.387 . S
C1671 H1656 0.930 . S
C1671 C1666 1.390 . S
C1671 C1670 1.387 . S
C401 C216 1.303 . S
C389 N66 1.290 . S
C428 C229 1.556 . S
C416 N79 1.551 . S
C443 N92 1.823 . S
C455 C249 1.800 . S
C482 C263 1.329 . S
C470 N54 1.337 . S
C509 C275 1.516 . S
C497 N131 1.528 . S
C536 C289 1.162 . S
C524 N158 1.172 . S
C551 N145 1.522 . S
C563 C299 1.545 . S
C590 C314 1.786 . S
C578 N118 1.753 . S
C605 N148 1.902 . S
C617 C328 1.864 . S
C644 C347 1.420 . S
C632 N122 1.487 . S
C659 N132 1.238 . S
C671 C327 1.198 . S
C698 C345 1.423 . S
C686 N161 1.435 . S
C713 N96 1.953 . S
C725 C361 1.890 . S
C740 N53 1.644 . S
C752 C355 1.672 . S
C767 N67 1.138 . S
C779 C359 1.138 . S
C794 N83 1.337 . S
C806 C356 1.353 1_655 S
C821 N44 1.389 . S
C833 C258 1.396 . S
C848 N187 1.431 . S
C860 C257 1.477 . S
C887 C221 1.063 . S
C875 N197 1.160 . S
C914 C235 1.305 . S
C902 N106 1.403 . S
C929 N57 1.815 . S
C941 C272 1.840 . S
C968 C317 1.492 . S
C956 N144 1.445 . S
C995 C271 1.358 . S
C983 N119 1.347 . S
C1022 C303 1.717 . S
C1010 N157 1.702 . S
C1049 C300 1.277 . S
C1037 N183 1.310 . S
C1064 N196 1.499 . S
C1076 C313 1.526 . S
C1091 N105 1.820 . S
C1103 C277 1.802 . S
C1130 C291 1.313 . S
C1118 N171 1.340 . S
C1145 N40 1.499 . S
C1157 C247 1.514 . S
C1184 C261 1.164 . S
C1172 N2 1.173 1_655 S
C1211 C215 1.545 . S
C1199 N15 1.523 . S
C1238 C230 1.782 . S
C1226 N27 1.760 . S
C1253 N18 1.890 . S
C1265 C342 1.809 . S
C1280 N31 1.522 . S
C1292 C333 1.440 . S
C1307 N41 1.226 . S
C1319 C341 1.245 . S
C1334 N5 1.433 . S
C1346 C331 1.436 . S
C1373 C375 1.888 . S
C1361 N109 1.955 . S
C1400 C369 1.701 . S
C1388 N170 1.684 . S
C1427 C373 1.139 . S
C1415 N184 1.115 . S
C1442 N200 1.376 . S
C1454 C370 1.332 . S
C1469 N135 1.384 . S
C1481 C286 1.375 . S
C1508 C285 1.477 . S
C1496 N70 1.431 . S
C1535 C305 1.134 . S
C1523 N80 1.164 . S
C1562 C319 1.364 . S
C1550 N93 1.408 . S
C1577 N174 1.809 . S
C1589 C244 1.815 . S
C1616 C233 1.491 . S
C1604 N14 1.445 . S
C1631 N28 1.372 . S
C1643 C243 1.366 . S
C1670 C219 1.711 . S
C1658 N1 1.683 1_565 S
