# Generated by pormake.
# Topology pto, (3,4)-cn, num edge types: 1
# Building blocks:
#     Node 0, Type 0, BuildingBlock: WUSLED_clean_sbu_0, # of connection points: 3
#     Node 1, Type 0, BuildingBlock: WUSLED_clean_sbu_0, # of connection points: 3
#     Node 2, Type 0, BuildingBlock: WUSLED_clean_sbu_0, # of connection points: 3
#     Node 3, Type 0, BuildingBlock: WUSLED_clean_sbu_0, # of connection points: 3
#     Node 4, Type 0, BuildingBlock: WUSLED_clean_sbu_0, # of connection points: 3
#     Node 5, Type 0, BuildingBlock: WUSLED_clean_sbu_0, # of connection points: 3
#     Node 6, Type 0, BuildingBlock: WUSLED_clean_sbu_0, # of connection points: 3
#     Node 7, Type 0, BuildingBlock: WUSLED_clean_sbu_0, # of connection points: 3
#     Node 8, Type 1, BuildingBlock: MUDLON_clean_linker_0, # of connection points: 4
#     Node 9, Type 1, BuildingBlock: MUDLON_clean_linker_0, # of connection points: 4
#     Node 10, Type 1, BuildingBlock: MUDLON_clean_linker_0, # of connection points: 4
#     Node 11, Type 1, BuildingBlock: MUDLON_clean_linker_0, # of connection points: 4
#     Node 12, Type 1, BuildingBlock: MUDLON_clean_linker_0, # of connection points: 4
#     Node 13, Type 1, BuildingBlock: MUDLON_clean_linker_0, # of connection points: 4
#     Edge 14, Type (0, 1), BuildingBlock: AJUNOK_clean_linker_0, # of connection points: 2
#     Edge 15, Type (0, 1), BuildingBlock: AJUNOK_clean_linker_0, # of connection points: 2
#     Edge 16, Type (0, 1), BuildingBlock: AJUNOK_clean_linker_0, # of connection points: 2
#     Edge 17, Type (0, 1), BuildingBlock: AJUNOK_clean_linker_0, # of connection points: 2
#     Edge 18, Type (0, 1), BuildingBlock: AJUNOK_clean_linker_0, # of connection points: 2
#     Edge 19, Type (0, 1), BuildingBlock: AJUNOK_clean_linker_0, # of connection points: 2
#     Edge 20, Type (0, 1), BuildingBlock: AJUNOK_clean_linker_0, # of connection points: 2
#     Edge 21, Type (0, 1), BuildingBlock: AJUNOK_clean_linker_0, # of connection points: 2
#     Edge 22, Type (0, 1), BuildingBlock: AJUNOK_clean_linker_0, # of connection points: 2
#     Edge 23, Type (0, 1), BuildingBlock: AJUNOK_clean_linker_0, # of connection points: 2
#     Edge 24, Type (0, 1), BuildingBlock: AJUNOK_clean_linker_0, # of connection points: 2
#     Edge 25, Type (0, 1), BuildingBlock: AJUNOK_clean_linker_0, # of connection points: 2
#     Edge 26, Type (0, 1), BuildingBlock: AJUNOK_clean_linker_0, # of connection points: 2
#     Edge 27, Type (0, 1), BuildingBlock: AJUNOK_clean_linker_0, # of connection points: 2
#     Edge 28, Type (0, 1), BuildingBlock: AJUNOK_clean_linker_0, # of connection points: 2
#     Edge 29, Type (0, 1), BuildingBlock: AJUNOK_clean_linker_0, # of connection points: 2
#     Edge 30, Type (0, 1), BuildingBlock: AJUNOK_clean_linker_0, # of connection points: 2
#     Edge 31, Type (0, 1), BuildingBlock: AJUNOK_clean_linker_0, # of connection points: 2
#     Edge 32, Type (0, 1), BuildingBlock: AJUNOK_clean_linker_0, # of connection points: 2
#     Edge 33, Type (0, 1), BuildingBlock: AJUNOK_clean_linker_0, # of connection points: 2
#     Edge 34, Type (0, 1), BuildingBlock: AJUNOK_clean_linker_0, # of connection points: 2
#     Edge 35, Type (0, 1), BuildingBlock: AJUNOK_clean_linker_0, # of connection points: 2
#     Edge 36, Type (0, 1), BuildingBlock: AJUNOK_clean_linker_0, # of connection points: 2
#     Edge 37, Type (0, 1), BuildingBlock: AJUNOK_clean_linker_0, # of connection points: 2
# Relax obj value: 0.006
# Max RMSD: 0.037
# Mean RMSD: 0.021
data_MOF--net-pto--node1-WUSLED_clean_sbu_0--node2-MUDLON_clean_linker_0--edge1-AJUNOK_clean_linker_0
_symmetry_space_group_name_H-M    P1
_symmetry_Int_Tables_number       1
_symmetry_cell_setting            triclinic
loop_
_symmetry_equiv_pos_as_xyz
'x, y, z'
_cell_length_a     41.573713
_cell_length_b     69.369481
_cell_length_c     55.847115
_cell_angle_alpha  89.557071
_cell_angle_beta   90.547949
_cell_angle_gamma 90.673888
loop_
_atom_site_label
_atom_site_type_symbol
_atom_site_fract_x
_atom_site_fract_y
_atom_site_fract_z
_atom_type_partial_charge
C0 C 0.22775 0.22468 0.36762 0.0
C1 C 0.20068 0.21801 0.38009 0.0
C2 C 0.22981 0.18955 0.39347 0.0
C3 C 0.20167 0.20061 0.39289 0.0
C4 C 0.25678 0.19613 0.3806 0.0
C5 C 0.25571 0.21349 0.36768 0.0
U6 U 0.25404 0.25963 0.31792 0.0
O7 O 0.22611 0.28051 0.29675 0.0
O8 O 0.26578 0.29065 0.31983 0.0
C9 C 0.24142 0.29546 0.30595 0.0
C10 C 0.22661 0.24354 0.35532 0.0
C11 C 0.22141 0.31137 0.31455 0.0
C12 C 0.17036 0.324 0.32797 0.0
C13 C 0.18918 0.30841 0.32116 0.0
C14 C 0.2159 0.34561 0.32243 0.0
C15 C 0.18339 0.34282 0.32836 0.0
C16 C 0.23465 0.33005 0.31548 0.0
C17 C 0.31437 0.24398 0.27067 0.0
C18 C 0.31941 0.25279 0.22854 0.0
C19 C 0.36686 0.24468 0.2518 0.0
C20 C 0.34778 0.24148 0.27195 0.0
C21 C 0.35291 0.25037 0.22986 0.0
C22 C 0.30033 0.24973 0.24876 0.0
C23 C 0.29474 0.24016 0.29219 0.0
O24 O 0.25296 0.25416 0.35669 0.0
O25 O 0.21336 0.24358 0.33386 0.0
O26 O 0.26338 0.23924 0.28896 0.0
O27 O 0.30335 0.24967 0.31154 0.0
H28 H 0.17886 0.2264 0.38019 0.0
H29 H 0.18046 0.19588 0.40251 0.0
H30 H 0.27902 0.18815 0.38107 0.0
H31 H 0.2769 0.21837 0.35813 0.0
H32 H 0.14538 0.3214 0.33246 0.0
H33 H 0.17841 0.29413 0.32076 0.0
H34 H 0.22688 0.35983 0.32316 0.0
H35 H 0.25951 0.33263 0.31062 0.0
H36 H 0.30784 0.25674 0.21179 0.0
H37 H 0.39262 0.24278 0.25341 0.0
H38 H 0.35916 0.23701 0.28859 0.0
H39 H 0.2746 0.25172 0.24713 0.0
C40 C 0.23016 0.80026 0.65777 0.0
C41 C 0.23091 0.8181 0.66956 0.0
C42 C 0.23212 0.83504 0.6312 0.0
C43 C 0.23165 0.83536 0.65636 0.0
C44 C 0.23165 0.81717 0.61951 0.0
C45 C 0.23066 0.79996 0.63268 0.0
U46 U 0.25384 0.7674 0.71043 0.0
O47 O 0.2244 0.74714 0.73173 0.0
O48 O 0.26503 0.73651 0.71099 0.0
C49 C 0.24012 0.73202 0.72434 0.0
C50 C 0.22841 0.78182 0.6711 0.0
C51 C 0.2201 0.71565 0.71621 0.0
C52 C 0.19282 0.69744 0.68485 0.0
C53 C 0.21157 0.71333 0.69201 0.0
C54 C 0.19059 0.68627 0.72601 0.0
C55 C 0.18233 0.68366 0.70177 0.0
C56 C 0.2094 0.70207 0.73312 0.0
C57 C 0.31201 0.78474 0.75866 0.0
C58 C 0.32922 0.76322 0.79072 0.0
C59 C 0.34928 0.79615 0.78926 0.0
C60 C 0.33112 0.7995 0.76847 0.0
C61 C 0.34852 0.77798 0.80062 0.0
C62 C 0.31103 0.76659 0.76994 0.0
C63 C 0.2937 0.78827 0.73646 0.0
O64 O 0.2548 0.77157 0.67128 0.0
O65 O 0.21409 0.78218 0.692 0.0
O66 O 0.2623 0.78874 0.73882 0.0
O67 O 0.3028 0.7782 0.71792 0.0
H68 H 0.23072 0.81872 0.68893 0.0
H69 H 0.23197 0.84895 0.66578 0.0
H70 H 0.23138 0.81651 0.60013 0.0
H71 H 0.23 0.78637 0.62324 0.0
H72 H 0.18672 0.69585 0.66606 0.0
H73 H 0.21944 0.72375 0.67869 0.0
H74 H 0.18212 0.67624 0.73957 0.0
H75 H 0.21553 0.70372 0.7519 0.0
H76 H 0.3282 0.74909 0.79909 0.0
H77 H 0.36447 0.80766 0.79617 0.0
H78 H 0.33228 0.81355 0.7599 0.0
H79 H 0.29638 0.75502 0.76255 0.0
C80 C 0.72009 0.78522 0.27568 0.0
C81 C 0.73284 0.78415 0.25247 0.0
C82 C 0.67883 0.78367 0.23519 0.0
C83 C 0.71238 0.78334 0.23243 0.0
C84 C 0.66615 0.78411 0.25842 0.0
C85 C 0.68655 0.78502 0.27841 0.0
U86 U 0.78248 0.76677 0.32152 0.0
O87 O 0.82368 0.78208 0.33808 0.0
O88 O 0.78483 0.77049 0.36053 0.0
C89 C 0.8111 0.78121 0.35957 0.0
C90 C 0.74108 0.78755 0.29708 0.0
C91 C 0.81011 0.79957 0.37262 0.0
C92 C 0.78155 0.82799 0.38564 0.0
C93 C 0.78256 0.81111 0.3721 0.0
C94 C 0.83599 0.82237 0.39963 0.0
C95 C 0.80806 0.83362 0.39989 0.0
C96 C 0.83693 0.80546 0.3862 0.0
C97 C 0.81462 0.71541 0.31597 0.0
C98 C 0.84524 0.69891 0.34707 0.0
C99 C 0.84033 0.68498 0.30753 0.0
C100 C 0.82166 0.70057 0.30003 0.0
C101 C 0.8521 0.68388 0.33119 0.0
C102 C 0.82664 0.71456 0.33952 0.0
C103 C 0.7945 0.73149 0.30772 0.0
O104 O 0.73315 0.77723 0.31602 0.0
O105 O 0.7723 0.78832 0.29349 0.0
O106 O 0.81007 0.74672 0.2995 0.0
O107 O 0.77042 0.73585 0.32169 0.0
H108 H 0.75858 0.7843 0.24969 0.0
H109 H 0.72279 0.783 0.21474 0.0
H110 H 0.64038 0.78393 0.26113 0.0
H111 H 0.67604 0.78584 0.29605 0.0
H112 H 0.75972 0.83637 0.38547 0.0
H113 H 0.76167 0.8069 0.36154 0.0
H114 H 0.85707 0.82659 0.40996 0.0
H115 H 0.85851 0.79686 0.38662 0.0
H116 H 0.85404 0.69848 0.36538 0.0
H117 H 0.84591 0.67391 0.2947 0.0
H118 H 0.81276 0.70107 0.28174 0.0
H119 H 0.82153 0.72594 0.35205 0.0
C120 C 0.76618 0.20587 0.68566 0.0
C121 C 0.77046 0.21115 0.66156 0.0
C122 C 0.77953 0.17761 0.65108 0.0
C123 C 0.77682 0.19714 0.64441 0.0
C124 C 0.77518 0.1724 0.67523 0.0
C125 C 0.76858 0.18641 0.69234 0.0
U126 U 0.7765 0.25627 0.71223 0.0
O127 O 0.74096 0.27541 0.72831 0.0
O128 O 0.78194 0.26521 0.74976 0.0
C129 C 0.75464 0.27458 0.7496 0.0
C130 C 0.75922 0.22038 0.70404 0.0
C131 C 0.73293 0.27012 0.76954 0.0
C132 C 0.70023 0.24742 0.79234 0.0
C133 C 0.72094 0.25136 0.77326 0.0
C134 C 0.70321 0.28098 0.80404 0.0
C135 C 0.69124 0.26219 0.80797 0.0
C136 C 0.72395 0.28488 0.78501 0.0
C137 C 0.83187 0.29337 0.68173 0.0
C138 C 0.82972 0.32843 0.68281 0.0
C139 C 0.88019 0.31265 0.67511 0.0
C140 C 0.86486 0.29468 0.67693 0.0
C141 C 0.86282 0.32975 0.67796 0.0
C142 C 0.81441 0.3104 0.68482 0.0
C143 C 0.81641 0.27413 0.68322 0.0
O144 O 0.78349 0.22514 0.71813 0.0
O145 O 0.74226 0.23527 0.69688 0.0
O146 O 0.78513 0.27333 0.67952 0.0
O147 O 0.82604 0.26315 0.70113 0.0
H148 H 0.76873 0.22609 0.65595 0.0
H149 H 0.77925 0.20158 0.62588 0.0
H150 H 0.77722 0.1575 0.68093 0.0
H151 H 0.7654 0.18204 0.71085 0.0
H152 H 0.69086 0.2329 0.79466 0.0
H153 H 0.7275 0.23982 0.76136 0.0
H154 H 0.69668 0.29261 0.81581 0.0
H155 H 0.73297 0.29946 0.78235 0.0
H156 H 0.81554 0.34132 0.68464 0.0
H157 H 0.90576 0.31318 0.67153 0.0
H158 H 0.87881 0.28175 0.67454 0.0
H159 H 0.7889 0.30981 0.68858 0.0
C160 C 0.81744 0.71618 0.72274 0.0
C161 C 0.82538 0.71441 0.69849 0.0
C162 C 0.85559 0.68527 0.70753 0.0
C163 C 0.84416 0.69902 0.69093 0.0
C164 C 0.84737 0.68709 0.73176 0.0
C165 C 0.82849 0.70242 0.73928 0.0
U166 U 0.78456 0.76765 0.71783 0.0
O167 O 0.73597 0.77823 0.72477 0.0
O168 O 0.77669 0.78861 0.74659 0.0
C169 C 0.74529 0.78808 0.74367 0.0
C170 C 0.79773 0.7322 0.73125 0.0
C171 C 0.72655 0.78458 0.76554 0.0
C172 C 0.69775 0.76287 0.7924 0.0
C173 C 0.71652 0.76588 0.77203 0.0
C174 C 0.69958 0.79714 0.80042 0.0
C175 C 0.68905 0.77847 0.80684 0.0
C176 C 0.71817 0.80015 0.77995 0.0
C177 C 0.80792 0.80112 0.66595 0.0
C178 C 0.79843 0.83567 0.665 0.0
C179 C 0.81019 0.81886 0.62831 0.0
C180 C 0.81269 0.80155 0.64115 0.0
C181 C 0.80285 0.83611 0.64004 0.0
C182 C 0.80076 0.8183 0.67783 0.0
C183 C 0.80997 0.78259 0.67893 0.0
O184 O 0.8138 0.74736 0.73906 0.0
O185 O 0.77267 0.73668 0.71787 0.0
O186 O 0.78353 0.77202 0.67873 0.0
O187 O 0.82433 0.78304 0.70001 0.0
H188 H 0.81703 0.72489 0.68543 0.0
H189 H 0.84957 0.6978 0.67208 0.0
H190 H 0.85596 0.67682 0.74498 0.0
H191 H 0.82263 0.70357 0.75807 0.0
H192 H 0.68941 0.74838 0.79651 0.0
H193 H 0.72278 0.75364 0.76115 0.0
H194 H 0.69336 0.80943 0.81122 0.0
H195 H 0.72579 0.81467 0.77526 0.0
H196 H 0.79336 0.84876 0.67463 0.0
H197 H 0.81349 0.81869 0.6091 0.0
H198 H 0.81811 0.78843 0.63166 0.0
H199 H 0.79693 0.81828 0.69699 0.0
C200 C 0.72441 0.23644 0.27161 0.0
C201 C 0.72377 0.25439 0.25986 0.0
C202 C 0.68541 0.2417 0.23056 0.0
C203 C 0.70438 0.25701 0.2395 0.0
C204 C 0.68624 0.22375 0.24242 0.0
C205 C 0.70563 0.22114 0.26275 0.0
U206 U 0.78446 0.25519 0.31801 0.0
O207 O 0.78677 0.2508 0.35699 0.0
O208 O 0.82633 0.24092 0.33457 0.0
C209 C 0.81357 0.24095 0.35601 0.0
C210 C 0.74436 0.23353 0.29316 0.0
C211 C 0.81402 0.22237 0.36912 0.0
C212 C 0.78663 0.19488 0.38752 0.0
C213 C 0.78558 0.21196 0.37402 0.0
C214 C 0.84456 0.19807 0.39082 0.0
C215 C 0.81614 0.18777 0.39616 0.0
C216 C 0.84348 0.21519 0.37748 0.0
C217 C 0.81501 0.3074 0.31262 0.0
C218 C 0.84808 0.32316 0.34295 0.0
C219 C 0.83888 0.33891 0.30466 0.0
C220 C 0.81996 0.32321 0.29727 0.0
C221 C 0.85306 0.3391 0.32762 0.0
C222 C 0.8292 0.30743 0.33551 0.0
C223 C 0.79525 0.291 0.30434 0.0
O224 O 0.77557 0.2339 0.28966 0.0
O225 O 0.73575 0.24336 0.31204 0.0
O226 O 0.7714 0.28581 0.31837 0.0
O227 O 0.81126 0.27629 0.29605 0.0
H228 H 0.73807 0.26638 0.26655 0.0
H229 H 0.70374 0.2711 0.23103 0.0
H230 H 0.67192 0.2117 0.2359 0.0
H231 H 0.70588 0.20719 0.27161 0.0
H232 H 0.76424 0.18754 0.39173 0.0
H233 H 0.7625 0.21717 0.36775 0.0
H234 H 0.86768 0.19292 0.39709 0.0
H235 H 0.8657 0.22296 0.37388 0.0
H236 H 0.85872 0.3229 0.36073 0.0
H237 H 0.84292 0.35073 0.29222 0.0
H238 H 0.80936 0.32335 0.27947 0.0
H239 H 0.82573 0.29529 0.34757 0.0
C240 C 0.22044 0.22408 0.66032 0.0
C241 C 0.22698 0.2065 0.67193 0.0
C242 C 0.22302 0.18957 0.63388 0.0
C243 C 0.22821 0.18939 0.65882 0.0
C244 C 0.21696 0.20729 0.62235 0.0
C245 C 0.21553 0.22434 0.63547 0.0
U246 U 0.24687 0.25631 0.71232 0.0
O247 O 0.25849 0.2873 0.71282 0.0
O248 O 0.21884 0.27593 0.73462 0.0
C249 C 0.23417 0.29136 0.72672 0.0
C250 C 0.21914 0.24232 0.67365 0.0
C251 C 0.21366 0.30728 0.7185 0.0
C252 C 0.18162 0.32306 0.68763 0.0
C253 C 0.20112 0.3078 0.69509 0.0
C254 C 0.18695 0.33743 0.7269 0.0
C255 C 0.17409 0.33797 0.70353 0.0
C256 C 0.20654 0.3222 0.73431 0.0
C257 C 0.30913 0.23693 0.75787 0.0
C258 C 0.31699 0.24039 0.80094 0.0
C259 C 0.36268 0.23468 0.7755 0.0
C260 C 0.34236 0.23437 0.75544 0.0
C261 C 0.35014 0.23727 0.79852 0.0
C262 C 0.29662 0.24019 0.78081 0.0
C263 C 0.28815 0.23519 0.73643 0.0
O264 O 0.20606 0.24136 0.69498 0.0
O265 O 0.24549 0.25297 0.67312 0.0
O266 O 0.29625 0.24595 0.71791 0.0
O267 O 0.25691 0.23439 0.73995 0.0
H268 H 0.23116 0.20599 0.6911 0.0
H269 H 0.23308 0.17599 0.66818 0.0
H270 H 0.21384 0.20804 0.60309 0.0
H271 H 0.21084 0.23779 0.62615 0.0
H272 H 0.1726 0.32327 0.66938 0.0
H273 H 0.20645 0.29642 0.6826 0.0
H274 H 0.18147 0.34864 0.73957 0.0
H275 H 0.21602 0.32202 0.75245 0.0
H276 H 0.30671 0.24249 0.81846 0.0
H277 H 0.38824 0.23276 0.77299 0.0
H278 H 0.35262 0.23189 0.73798 0.0
H279 H 0.2711 0.24227 0.78329 0.0
C280 C 0.19407 0.73294 0.34488 0.0
C281 C 0.21179 0.71601 0.3417 0.0
C282 C 0.16357 0.69639 0.34811 0.0
C283 C 0.19669 0.6979 0.34342 0.0
C284 C 0.14591 0.71338 0.35093 0.0
C285 C 0.16102 0.73144 0.34938 0.0
U286 U 0.25023 0.77047 0.31604 0.0
O287 O 0.24363 0.80167 0.31065 0.0
O288 O 0.28402 0.7912 0.33249 0.0
C289 C 0.26767 0.80624 0.32504 0.0
C290 C 0.20939 0.75225 0.34396 0.0
C291 C 0.26058 0.82058 0.34346 0.0
C292 C 0.23793 0.82914 0.38186 0.0
C293 C 0.24364 0.81541 0.3642 0.0
C294 C 0.26551 0.85342 0.35802 0.0
C295 C 0.24912 0.84825 0.37905 0.0
C296 C 0.27127 0.83967 0.34041 0.0
C297 C 0.29623 0.75746 0.25956 0.0
C298 C 0.32785 0.78083 0.23693 0.0
C299 C 0.33011 0.7469 0.22713 0.0
C300 C 0.30829 0.74268 0.24538 0.0
C301 C 0.34029 0.766 0.2228 0.0
C302 C 0.30608 0.77657 0.25525 0.0
C303 C 0.27362 0.75265 0.27884 0.0
O304 O 0.24053 0.75309 0.3483 0.0
O305 O 0.20032 0.76338 0.32604 0.0
O306 O 0.24628 0.76198 0.27826 0.0
O307 O 0.28638 0.75148 0.30041 0.0
H308 H 0.23735 0.71675 0.33815 0.0
H309 H 0.21109 0.68509 0.34161 0.0
H310 H 0.12032 0.71271 0.35439 0.0
H311 H 0.14688 0.74429 0.35183 0.0
H312 H 0.22468 0.82484 0.39766 0.0
H313 H 0.235 0.80075 0.36676 0.0
H314 H 0.27441 0.86801 0.35541 0.0
H315 H 0.28433 0.84392 0.32449 0.0
H316 H 0.33479 0.79571 0.23373 0.0
H317 H 0.33942 0.73518 0.21663 0.0
H318 H 0.30096 0.72784 0.24851 0.0
H319 H 0.29693 0.78818 0.26603 0.0
H320 H 0.99212 0.41344 0.40063 0.0
N321 N 0.01777 0.43982 0.37174 0.0
H322 H 0.94896 0.39031 0.39111 0.0
H323 H 0.97945 0.44069 0.33169 0.0
H324 H 0.93661 0.41734 0.32177 0.0
H325 H 0.03489 0.42938 0.32653 0.0
H326 H 0.07819 0.40761 0.31631 0.0
H327 H 0.06493 0.42788 0.40056 0.0
H328 H 0.10927 0.40647 0.39032 0.0
H329 H 0.98419 0.46299 0.39927 0.0
H330 H 0.04634 0.46374 0.33787 0.0
H331 H 0.98159 0.49804 0.39782 0.0
H332 H 0.04566 0.49877 0.33726 0.0
H333 H 0.98729 0.60703 0.4038 0.0
H334 H 0.94368 0.6297 0.39546 0.0
H335 H 0.93692 0.60873 0.32299 0.0
H336 H 0.9801 0.58605 0.33151 0.0
H337 H 0.03634 0.59764 0.32906 0.0
H338 H 0.07703 0.62275 0.32257 0.0
H339 H 0.10263 0.62048 0.3977 0.0
H340 H 0.06059 0.59601 0.40418 0.0
H341 H 0.01315 0.55973 0.40882 0.0
H342 H 0.01303 0.52463 0.40731 0.0
H343 H 0.01792 0.52754 0.32999 0.0
N344 N 0.01629 0.5845 0.37272 0.0
H345 H 0.02021 0.56276 0.33205 0.0
C346 C 0.9889 0.42874 0.36695 0.0
C347 C 0.9795 0.41464 0.38364 0.0
C348 C 0.95508 0.40139 0.3781 0.0
C349 C 0.9395 0.40199 0.35568 0.0
C350 C 0.94792 0.41668 0.3393 0.0
C351 C 0.97243 0.42998 0.34489 0.0
C352 C 0.04672 0.43031 0.3644 0.0
C353 C 0.05138 0.42481 0.34049 0.0
C354 C 0.07634 0.41243 0.33463 0.0
C355 C 0.09728 0.40539 0.3525 0.0
C356 C 0.09344 0.41162 0.37619 0.0
C357 C 0.06839 0.42396 0.38204 0.0
C358 C 0.01563 0.46054 0.36898 0.0
C359 C 0.99735 0.47072 0.3855 0.0
C360 C 0.99624 0.49083 0.38478 0.0
C361 C 0.01396 0.50145 0.36771 0.0
C362 C 0.03152 0.49121 0.35061 0.0
C363 C 0.03215 0.47099 0.35108 0.0
C364 C 0.98682 0.59475 0.36844 0.0
C365 C 0.9757 0.60697 0.38635 0.0
C366 C 0.95105 0.61999 0.3815 0.0
C367 C 0.93692 0.62097 0.35858 0.0
C368 C 0.94701 0.60809 0.34092 0.0
C369 C 0.97178 0.59509 0.34579 0.0
C370 C 0.04528 0.5951 0.36722 0.0
C371 C 0.05127 0.60215 0.344 0.0
C372 C 0.07476 0.61647 0.34029 0.0
C373 C 0.09302 0.62371 0.35966 0.0
C374 C 0.08873 0.61538 0.38247 0.0
C375 C 0.065 0.60127 0.38618 0.0
C376 C 0.01619 0.56383 0.37064 0.0
C377 C 0.01422 0.55273 0.39158 0.0
C378 C 0.01382 0.53262 0.39059 0.0
C379 C 0.0149 0.52303 0.36847 0.0
C380 C 0.0172 0.53429 0.34738 0.0
C381 C 0.0181 0.5545 0.34847 0.0
H382 H 0.99363 0.42559 0.70018 0.0
N383 N 0.01528 0.43965 0.6573 0.0
H384 H 0.95154 0.40123 0.70525 0.0
H385 H 0.97115 0.42955 0.62486 0.0
H386 H 0.92771 0.40571 0.62997 0.0
H387 H 0.04471 0.41621 0.62759 0.0
H388 H 0.08604 0.39255 0.6378 0.0
H389 H 0.04932 0.43832 0.69941 0.0
H390 H 0.09035 0.41438 0.70995 0.0
H391 H 0.99392 0.46074 0.69541 0.0
H392 H 0.0396 0.46502 0.62666 0.0
H393 H 0.9929 0.49592 0.69794 0.0
H394 H 0.04033 0.5001 0.62947 0.0
H395 H 0.98578 0.5882 0.70737 0.0
H396 H 0.94447 0.61181 0.71697 0.0
H397 H 0.93681 0.62734 0.64215 0.0
H398 H 0.97865 0.60402 0.6328 0.0
H399 H 0.04981 0.60227 0.63134 0.0
H400 H 0.09461 0.62489 0.63889 0.0
H401 H 0.08848 0.61256 0.71459 0.0
H402 H 0.04383 0.59024 0.70698 0.0
H403 H 0.02111 0.56031 0.70301 0.0
H404 H 0.02284 0.52512 0.7027 0.0
H405 H 0.0049 0.52593 0.62629 0.0
N406 N 0.01406 0.58412 0.66378 0.0
H407 H 0.00497 0.56111 0.62675 0.0
C408 C 0.98567 0.42933 0.66202 0.0
C409 C 0.97882 0.42177 0.68488 0.0
C410 C 0.95451 0.40787 0.68779 0.0
C411 C 0.93625 0.40148 0.66799 0.0
C412 C 0.94155 0.4102 0.64553 0.0
C413 C 0.96609 0.42395 0.6426 0.0
C414 C 0.04391 0.4289 0.6627 0.0
C415 C 0.05522 0.4162 0.64541 0.0
C416 C 0.0785 0.40259 0.65134 0.0
C417 C 0.09081 0.40137 0.6748 0.0
C418 C 0.08112 0.41497 0.69176 0.0
C419 C 0.05775 0.42865 0.68577 0.0
C420 C 0.01636 0.46025 0.66054 0.0
C421 C 0.00398 0.46923 0.68093 0.0
C422 C 0.00366 0.48942 0.68243 0.0
C423 C 0.01608 0.501 0.66373 0.0
C424 C 0.02965 0.4918 0.64391 0.0
C425 C 0.02959 0.47172 0.64233 0.0
C426 C 0.98535 0.59448 0.66933 0.0
C427 C 0.97475 0.59639 0.693 0.0
C428 C 0.95115 0.60989 0.69846 0.0
C429 C 0.93797 0.62168 0.68035 0.0
C430 C 0.94708 0.61874 0.65651 0.0
C431 C 0.97062 0.6053 0.65111 0.0
C432 C 0.04378 0.59432 0.66846 0.0
C433 C 0.05881 0.60407 0.64946 0.0
C434 C 0.08413 0.61705 0.65381 0.0
C435 C 0.09507 0.62039 0.6773 0.0
C436 C 0.08091 0.61 0.69626 0.0
C437 C 0.05539 0.59715 0.6919 0.0
C438 C 0.01345 0.56337 0.66474 0.0
C439 C 0.01784 0.55295 0.68619 0.0
C440 C 0.0185 0.53272 0.686 0.0
C441 C 0.01444 0.52253 0.66442 0.0
C442 C 0.00904 0.53315 0.64318 0.0
C443 C 0.00874 0.55328 0.64338 0.0
H444 H 0.20148 0.08611 0.54302 0.0
N445 N 0.25566 0.0844 0.51548 0.0
H446 H 0.19206 0.10922 0.5751 0.0
H447 H 0.29864 0.10755 0.5361 0.0
H448 H 0.28923 0.13102 0.56766 0.0
H449 H 0.29736 0.09399 0.48148 0.0
H450 H 0.28974 0.11764 0.44913 0.0
H451 H 0.19825 0.10025 0.50166 0.0
H452 H 0.19032 0.12348 0.4692 0.0
H453 H 0.1984 0.06648 0.50318 0.0
H454 H 0.2947 0.05634 0.52911 0.0
H455 H 0.18776 0.03191 0.50257 0.0
H456 H 0.28387 0.02161 0.52964 0.0
H457 H 0.16392 0.91947 0.53151 0.0
H458 H 0.17126 0.89561 0.56363 0.0
H459 H 0.26974 0.91478 0.57278 0.0
H460 H 0.26218 0.93867 0.54068 0.0
H461 H 0.26718 0.92688 0.5001 0.0
H462 H 0.27772 0.90537 0.46688 0.0
H463 H 0.17946 0.91111 0.44249 0.0
H464 H 0.16909 0.93308 0.47577 0.0
H465 H 0.16838 0.96946 0.52407 0.0
H466 H 0.1789 1.00416 0.52641 0.0
H467 H 0.27681 0.99495 0.50412 0.0
N468 N 0.20865 0.94192 0.51189 0.0
H469 H 0.2664 0.96039 0.50293 0.0
C470 C 0.25089 0.09511 0.53717 0.0
C471 C 0.22097 0.09553 0.54869 0.0
C472 C 0.2155 0.10892 0.56683 0.0
C473 C 0.23971 0.12222 0.57358 0.0
C474 C 0.2701 0.12097 0.56294 0.0
C475 C 0.27556 0.10757 0.54494 0.0
C476 C 0.24849 0.09519 0.49391 0.0
C477 C 0.27372 0.09996 0.4784 0.0
C478 C 0.26929 0.11344 0.45993 0.0
C479 C 0.23939 0.12239 0.45661 0.0
C480 C 0.21365 0.11687 0.47139 0.0
C481 C 0.21811 0.10341 0.48985 0.0
C482 C 0.24766 0.06408 0.51593 0.0
C483 C 0.21728 0.05687 0.50889 0.0
C484 C 0.21111 0.03697 0.50876 0.0
C485 C 0.23499 0.0238 0.51594 0.0
C486 C 0.26507 0.03117 0.5235 0.0
C487 C 0.27127 0.05104 0.52342 0.0
C488 C 0.21241 0.93076 0.53361 0.0
C489 C 0.18683 0.91882 0.54086 0.0
C490 C 0.19108 0.90522 0.55915 0.0
C491 C 0.2212 0.90317 0.57043 0.0
C492 C 0.24642 0.91585 0.56409 0.0
C493 C 0.24206 0.92958 0.54585 0.0
C494 C 0.21719 0.93173 0.49044 0.0
C495 C 0.24801 0.92396 0.48741 0.0
C496 C 0.25395 0.91142 0.46853 0.0
C497 C 0.22923 0.90626 0.4524 0.0
C498 C 0.19894 0.91481 0.4547 0.0
C499 C 0.19301 0.92738 0.47361 0.0
C500 C 0.21632 0.96226 0.51314 0.0
C501 C 0.19212 0.97499 0.51978 0.0
C502 C 0.19816 0.99485 0.52092 0.0
C503 C 0.22869 1.00252 0.5153 0.0
C504 C 0.2531 0.98965 0.50887 0.0
C505 C 0.24707 0.96975 0.50795 0.0
H506 H 0.53975 0.7545 0.12364 0.0
N507 N 0.51537 0.78698 0.10249 0.0
H508 H 0.58225 0.75379 0.15427 0.0
H509 H 0.55557 0.81551 0.11372 0.0
H510 H 0.59892 0.81481 0.14377 0.0
H511 H 0.48132 0.8147 0.12216 0.0
H512 H 0.43627 0.81088 0.14995 0.0
H513 H 0.48349 0.7531 0.11293 0.0
H514 H 0.43893 0.7492 0.14072 0.0
H515 H 0.51975 0.75096 0.08291 0.0
H516 H 0.51462 0.81149 0.06596 0.0
H517 H 0.51914 0.74331 0.04043 0.0
H518 H 0.51664 0.80424 0.02331 0.0
H519 H 0.54627 0.72891 0.90064 0.0
H520 H 0.59189 0.73485 0.87401 0.0
H521 H 0.5978 0.79375 0.89822 0.0
H522 H 0.55226 0.78764 0.92501 0.0
H523 H 0.49944 0.78883 0.90657 0.0
H524 H 0.4555 0.79404 0.87823 0.0
H525 H 0.42513 0.73469 0.88689 0.0
H526 H 0.46985 0.72943 0.91522 0.0
H527 H 0.54596 0.7356 0.96263 0.0
H528 H 0.54785 0.74339 1.00517 0.0
H529 H 0.48728 0.79259 0.99131 0.0
N530 N 0.51624 0.75438 0.92739 0.0
H531 H 0.48745 0.78552 0.94902 0.0
C532 C 0.54429 0.78518 0.11662 0.0
C533 C 0.55289 0.76765 0.1276 0.0
C534 C 0.57722 0.76725 0.1451 0.0
C535 C 0.5933 0.78434 0.15181 0.0
C536 C 0.58631 0.80152 0.13942 0.0
C537 C 0.56189 0.80192 0.12209 0.0
C538 C 0.48577 0.78429 0.11537 0.0
C539 C 0.47166 0.80041 0.12575 0.0
C540 C 0.44623 0.79819 0.14177 0.0
C541 C 0.4345 0.77972 0.14774 0.0
C542 C 0.44751 0.76361 0.13639 0.0
C543 C 0.47303 0.76585 0.12042 0.0
C544 C 0.5164 0.78184 0.07759 0.0
C545 C 0.51842 0.76263 0.07005 0.0
C546 C 0.51863 0.75831 0.04558 0.0
C547 C 0.51763 0.77312 0.02814 0.0
C548 C 0.51655 0.79236 0.03598 0.0
C549 C 0.51569 0.79659 0.06038 0.0
C550 C 0.54588 0.75776 0.91473 0.0
C551 C 0.55793 0.74295 0.90059 0.0
C552 C 0.58397 0.74636 0.88546 0.0
C553 C 0.59841 0.76475 0.88414 0.0
C554 C 0.58703 0.77946 0.8989 0.0
C555 C 0.56111 0.77598 0.91422 0.0
C556 C 0.48791 0.75866 0.9132 0.0
C557 C 0.48313 0.77697 0.90278 0.0
C558 C 0.45779 0.78 0.88664 0.0
C559 C 0.43671 0.76481 0.8805 0.0
C560 C 0.44101 0.74665 0.89133 0.0
C561 C 0.46634 0.74366 0.90759 0.0
C562 C 0.51649 0.75974 0.95241 0.0
C563 C 0.53328 0.74814 0.96883 0.0
C564 C 0.53404 0.75254 0.99323 0.0
C565 C 0.51753 0.7686 1.00197 0.0
C566 C 0.50078 0.78029 0.98541 0.0
C567 C 0.50057 0.77608 0.96095 0.0
H568 H 0.76327 0.09266 0.53728 0.0
N569 N 0.82211 0.08256 0.52014 0.0
H570 H 0.75369 0.1151 0.56999 0.0
H571 H 0.86522 0.09601 0.55132 0.0
H572 H 0.85579 0.11773 0.58486 0.0
H573 H 0.87231 0.09659 0.49645 0.0
H574 H 0.87175 0.12037 0.46366 0.0
H575 H 0.76865 0.0949 0.49547 0.0
H576 H 0.76794 0.11852 0.46296 0.0
H577 H 0.76405 0.06471 0.51088 0.0
H578 H 0.86345 0.05446 0.52855 0.0
H579 H 0.75367 0.03013 0.50948 0.0
H580 H 0.85306 0.0197 0.52861 0.0
H581 H 0.731 0.9173 0.53627 0.0
H582 H 0.73768 0.89439 0.56935 0.0
H583 H 0.83485 0.91533 0.5806 0.0
H584 H 0.82804 0.93808 0.54708 0.0
H585 H 0.8343 0.92458 0.50662 0.0
H586 H 0.84458 0.90066 0.47593 0.0
H587 H 0.74645 0.90524 0.4508 0.0
H588 H 0.73642 0.92962 0.4814 0.0
H589 H 0.737 0.96764 0.53138 0.0
H590 H 0.74781 1.0023 0.53288 0.0
H591 H 0.84273 0.99294 0.50448 0.0
N592 N 0.77566 0.93998 0.51706 0.0
H593 H 0.83227 0.95839 0.50435 0.0
C594 C 0.8151 0.09289 0.54168 0.0
C595 C 0.78356 0.09796 0.54763 0.0
C596 C 0.77811 0.11075 0.56642 0.0
C597 C 0.80406 0.11859 0.57962 0.0
C598 C 0.83537 0.11245 0.57455 0.0
C599 C 0.84079 0.09986 0.55565 0.0
C600 C 0.82069 0.09374 0.4983 0.0
C601 C 0.8495 0.10094 0.48873 0.0
C602 C 0.84912 0.11459 0.47018 0.0
C603 C 0.81979 0.12124 0.46072 0.0
C604 C 0.7909 0.11341 0.4696 0.0
C605 C 0.79131 0.09983 0.48826 0.0
C606 C 0.81477 0.06221 0.51946 0.0
C607 C 0.78371 0.05505 0.51445 0.0
C608 C 0.77773 0.03513 0.51397 0.0
C609 C 0.80251 0.02191 0.51889 0.0
C610 C 0.83346 0.02927 0.52422 0.0
C611 C 0.83945 0.04916 0.52439 0.0
C612 C 0.77883 0.92943 0.53929 0.0
C613 C 0.7534 0.91731 0.54633 0.0
C614 C 0.75726 0.90428 0.56529 0.0
C615 C 0.78672 0.90317 0.57776 0.0
C616 C 0.81188 0.91588 0.57132 0.0
C617 C 0.80797 0.92894 0.55227 0.0
C618 C 0.78445 0.92901 0.49629 0.0
C619 C 0.81521 0.92095 0.49411 0.0
C620 C 0.82099 0.90707 0.47672 0.0
C621 C 0.79613 0.90081 0.46131 0.0
C622 C 0.76606 0.90979 0.46244 0.0
C623 C 0.76031 0.92373 0.47984 0.0
C624 C 0.7835 0.96033 0.51755 0.0
C625 C 0.76016 0.97313 0.52556 0.0
C626 C 0.76634 0.99298 0.52619 0.0
C627 C 0.7961 1.00062 0.51859 0.0
C628 C 0.81966 0.9877 0.51075 0.0
C629 C 0.81356 0.96778 0.51043 0.0
H630 H 0.53334 0.23161 0.12286 0.0
N631 N 0.5195 0.26682 0.10289 0.0
H632 H 0.57675 0.2248 0.15121 0.0
H633 H 0.56764 0.29021 0.11552 0.0
H634 H 0.61068 0.28366 0.14465 0.0
H635 H 0.49513 0.29414 0.12994 0.0
H636 H 0.4513 0.29086 0.15864 0.0
H637 H 0.47762 0.23584 0.10655 0.0
H638 H 0.43337 0.23267 0.13459 0.0
H639 H 0.52131 0.23077 0.08263 0.0
H640 H 0.51771 0.29153 0.06645 0.0
H641 H 0.51975 0.22346 0.04028 0.0
H642 H 0.5185 0.28447 0.02363 0.0
H643 H 0.54989 0.20887 0.9013 0.0
H644 H 0.59433 0.21578 0.87398 0.0
H645 H 0.59538 0.2752 0.89656 0.0
H646 H 0.55047 0.26817 0.92362 0.0
H647 H 0.49633 0.26561 0.90392 0.0
H648 H 0.45228 0.2661 0.87465 0.0
H649 H 0.42919 0.20683 0.89216 0.0
H650 H 0.47427 0.20622 0.9208 0.0
H651 H 0.54813 0.21544 0.96342 0.0
H652 H 0.54979 0.22369 1.00577 0.0
H653 H 0.48941 0.27283 0.99094 0.0
N654 N 0.51835 0.23369 0.92795 0.0
H655 H 0.48984 0.26513 0.94848 0.0
C656 C 0.54748 0.26145 0.11674 0.0
C657 C 0.55067 0.2429 0.1268 0.0
C658 C 0.57534 0.23906 0.14328 0.0
C659 C 0.59721 0.25367 0.15013 0.0
C660 C 0.59465 0.27199 0.13939 0.0
C661 C 0.57006 0.27578 0.12281 0.0
C662 C 0.48971 0.2654 0.11591 0.0
C663 C 0.48114 0.28088 0.13042 0.0
C664 C 0.45602 0.27898 0.14675 0.0
C665 C 0.43872 0.26153 0.14878 0.0
C666 C 0.44635 0.24628 0.13348 0.0
C667 C 0.47162 0.24816 0.11724 0.0
C668 C 0.5191 0.2618 0.07785 0.0
C669 C 0.52017 0.24261 0.07002 0.0
C670 C 0.51978 0.23844 0.04555 0.0
C671 C 0.51909 0.25334 0.02824 0.0
C672 C 0.51839 0.27254 0.03624 0.0
C673 C 0.5182 0.27665 0.06074 0.0
C674 C 0.54707 0.23791 0.91454 0.0
C675 C 0.56019 0.22328 0.90067 0.0
C676 C 0.58562 0.22725 0.88518 0.0
C677 C 0.59854 0.246 0.88331 0.0
C678 C 0.58587 0.26062 0.89765 0.0
C679 C 0.56037 0.25661 0.91319 0.0
C680 C 0.48888 0.2357 0.91432 0.0
C681 C 0.48158 0.25279 0.90174 0.0
C682 C 0.45629 0.25308 0.88504 0.0
C683 C 0.43781 0.23636 0.88069 0.0
C684 C 0.44362 0.21977 0.89464 0.0
C685 C 0.46906 0.21945 0.91119 0.0
C686 C 0.51859 0.2394 0.95276 0.0
C687 C 0.5354 0.22803 0.96937 0.0
C688 C 0.53601 0.23271 0.99366 0.0
C689 C 0.51933 0.24882 1.00208 0.0
C690 C 0.50282 0.26042 0.98526 0.0
C691 C 0.50273 0.25589 0.96084 0.0
C692 C 0.14303 0.35828 0.35498 0.0
C693 C 0.1629 0.35943 0.33476 0.0
C694 C 0.12262 0.37343 0.36092 0.0
C695 C 0.12114 0.39031 0.34681 0.0
H696 H 0.14315 0.34552 0.36629 0.0
H697 H 0.10724 0.37168 0.37635 0.0
S698 S 0.16881 0.40075 0.29232 0.0
N699 N 0.17997 0.37893 0.30068 0.0
N700 N 0.14218 0.40757 0.3122 0.0
C701 C 0.14129 0.3918 0.32678 0.0
C702 C 0.16207 0.37636 0.32071 0.0
C703 C 0.13494 0.66989 0.67932 0.0
C704 C 0.16183 0.66697 0.69436 0.0
C705 C 0.11401 0.65462 0.67337 0.0
C706 C 0.11912 0.63586 0.68228 0.0
H707 H 0.12945 0.6842 0.67267 0.0
H708 H 0.09309 0.65766 0.66232 0.0
S709 S 0.1879 0.62009 0.72001 0.0
N710 N 0.1939 0.6435 0.71631 0.0
N711 N 0.15425 0.61489 0.70536 0.0
C712 C 0.14643 0.6326 0.69668 0.0
C713 C 0.16785 0.64811 0.70265 0.0
C714 C 0.90153 0.67094 0.35136 0.0
C715 C 0.8724 0.66743 0.33903 0.0
C716 C 0.92186 0.65579 0.358 0.0
C717 C 0.91388 0.63652 0.35256 0.0
H718 H 0.9091 0.68556 0.35538 0.0
H719 H 0.94443 0.65924 0.36692 0.0
S720 S 0.83892 0.6194 0.32273 0.0
N721 N 0.83551 0.64309 0.32321 0.0
N722 N 0.87393 0.61464 0.33554 0.0
C723 C 0.88448 0.63275 0.34079 0.0
C724 C 0.86371 0.64818 0.33407 0.0
C725 C 0.90021 0.35193 0.65582 0.0
C726 C 0.87939 0.34878 0.6752 0.0
C727 C 0.91757 0.36924 0.6533 0.0
C728 C 0.91486 0.38418 0.67006 0.0
H729 H 0.90338 0.34083 0.64253 0.0
H730 H 0.93404 0.37065 0.63846 0.0
S731 S 0.86254 0.38358 0.72353 0.0
N732 N 0.85651 0.36224 0.71125 0.0
N733 N 0.88853 0.39502 0.70615 0.0
C734 C 0.89349 0.38145 0.68922 0.0
C735 C 0.87583 0.36374 0.69183 0.0
C736 C 0.22032 0.17232 0.43238 0.0
C737 C 0.23146 0.17184 0.40868 0.0
C738 C 0.22246 0.15616 0.44748 0.0
C739 C 0.23587 0.13883 0.43955 0.0
H740 H 0.2105 0.18545 0.43954 0.0
H741 H 0.21426 0.15742 0.46576 0.0
S742 S 0.26616 0.12948 0.37853 0.0
N743 N 0.2547 0.15219 0.37754 0.0
N744 N 0.25891 0.12182 0.40606 0.0
C745 C 0.24659 0.138 0.41578 0.0
C746 C 0.24435 0.15449 0.40033 0.0
C747 C 0.38892 0.75795 0.82282 0.0
C748 C 0.36895 0.77419 0.82209 0.0
C749 C 0.41003 0.75472 0.84214 0.0
C750 C 0.41195 0.7676 0.86146 0.0
H751 H 0.38898 0.74798 0.808 0.0
H752 H 0.42574 0.74239 0.84154 0.0
S753 S 0.36202 0.81099 0.86955 0.0
N754 N 0.35046 0.80238 0.84331 0.0
N755 N 0.39018 0.79632 0.87961 0.0
C756 C 0.39127 0.7835 0.86137 0.0
C757 C 0.36978 0.78679 0.8417 0.0
C758 C 0.79424 0.8684 0.40651 0.0
C759 C 0.80617 0.85084 0.41556 0.0
C760 C 0.79147 0.88461 0.42125 0.0
C761 C 0.80063 0.88388 0.44556 0.0
H762 H 0.78707 0.86963 0.38787 0.0
H763 H 0.78213 0.89782 0.41358 0.0
S764 S 0.83071 0.84095 0.4785 0.0
N765 N 0.82549 0.83347 0.45073 0.0
N766 N 0.82045 0.86387 0.47831 0.0
C767 C 0.81236 0.86638 0.45486 0.0
C768 C 0.8151 0.8499 0.4399 0.0
C769 C 0.64175 0.26994 0.83109 0.0
C770 C 0.66874 0.2582 0.82797 0.0
C771 C 0.6196 0.26615 0.84937 0.0
C772 C 0.62364 0.2505 0.86526 0.0
H773 H 0.63729 0.28189 0.81896 0.0
H774 H 0.5987 0.27525 0.85066 0.0
S775 S 0.69207 0.21664 0.86627 0.0
N776 N 0.69948 0.23112 0.84331 0.0
N777 N 0.6579 0.22402 0.87772 0.0
C778 C 0.651 0.23897 0.86275 0.0
C779 C 0.67352 0.24281 0.8441 0.0
C780 C 0.20782 0.86701 0.62101 0.0
C781 C 0.23178 0.85327 0.61704 0.0
C782 C 0.20511 0.88344 0.60632 0.0
C783 C 0.22656 0.88687 0.58737 0.0
H784 H 0.19033 0.8647 0.63503 0.0
H785 H 0.18576 0.89339 0.60955 0.0
S786 S 0.2946 0.85582 0.57038 0.0
N787 N 0.27823 0.8446 0.59352 0.0
N788 N 0.2731 0.87541 0.56588 0.0
C789 C 0.25128 0.87356 0.58375 0.0
C790 C 0.25387 0.85677 0.59856 0.0
C791 C 0.66078 0.77084 0.19522 0.0
C792 C 0.65712 0.78414 0.21389 0.0
C793 C 0.64015 0.77096 0.17514 0.0
C794 C 0.61542 0.78455 0.17288 0.0
H795 H 0.67944 0.76009 0.1963 0.0
H796 H 0.64368 0.76042 0.16122 0.0
S797 S 0.59592 0.82255 0.21669 0.0
N798 N 0.62723 0.81147 0.22858 0.0
N799 N 0.58814 0.81143 0.19123 0.0
C800 C 0.61162 0.79795 0.19139 0.0
C801 C 0.63252 0.7978 0.21179 0.0
C802 C 0.76829 0.14543 0.63218 0.0
C803 C 0.78656 0.16264 0.63291 0.0
C804 C 0.7741 0.13125 0.61499 0.0
C805 C 0.79857 0.13366 0.59795 0.0
H806 H 0.74901 0.14299 0.6448 0.0
H807 H 0.75942 0.11824 0.61513 0.0
S808 S 0.8534 0.17607 0.59224 0.0
N809 N 0.83059 0.1811 0.61535 0.0
N810 N 0.84086 0.1548 0.58264 0.0
C811 C 0.81705 0.1508 0.59851 0.0
C812 C 0.81118 0.1652 0.61603 0.0
C813 C 0.39664 0.23952 0.20271 0.0
C814 C 0.37339 0.2533 0.20839 0.0
C815 C 0.41699 0.24211 0.18306 0.0
C816 C 0.41501 0.25859 0.1683 0.0
H817 H 0.39921 0.22663 0.21359 0.0
H818 H 0.435 0.2313 0.17979 0.0
S819 S 0.35767 0.29874 0.17498 0.0
N820 N 0.34936 0.28398 0.19749 0.0
N821 N 0.38713 0.28859 0.16018 0.0
C822 C 0.39149 0.27233 0.17349 0.0
C823 C 0.37076 0.26972 0.19356 0.0
C824 C 0.86995 0.65017 0.70773 0.0
C825 C 0.87632 0.66915 0.69979 0.0
C826 C 0.88977 0.63484 0.70125 0.0
C827 C 0.91659 0.63791 0.68649 0.0
H828 H 0.84941 0.64712 0.71899 0.0
H829 H 0.88398 0.62047 0.70775 0.0
S830 S 0.94524 0.68503 0.66248 0.0
N831 N 0.91242 0.69024 0.67742 0.0
N832 N 0.94944 0.66147 0.66513 0.0
C833 C 0.92335 0.65682 0.67857 0.0
C834 C 0.90327 0.67241 0.68522 0.0
C835 C 0.90439 0.35186 0.34559 0.0
C836 C 0.87408 0.3555 0.33522 0.0
C837 C 0.92515 0.36699 0.35229 0.0
C838 C 0.91646 0.38638 0.34888 0.0
H839 H 0.91244 0.33719 0.34814 0.0
H840 H 0.94848 0.36345 0.3598 0.0
S841 S 0.83879 0.40371 0.32424 0.0
N842 N 0.83566 0.37998 0.3231 0.0
N843 N 0.87485 0.40841 0.33558 0.0
C844 C 0.88605 0.39025 0.33886 0.0
C845 C 0.86484 0.37483 0.33208 0.0
C846 C 0.16136 0.37327 0.70071 0.0
C847 C 0.15266 0.35398 0.69592 0.0
C848 C 0.14132 0.38857 0.69387 0.0
C849 C 0.11194 0.38512 0.68189 0.0
H850 H 0.18398 0.37659 0.70964 0.0
H851 H 0.14902 0.4032 0.69776 0.0
S852 S 0.07661 0.33724 0.66716 0.0
N853 N 0.11161 0.3323 0.67985 0.0
N854 N 0.07417 0.36098 0.66688 0.0
C855 C 0.10274 0.36591 0.67733 0.0
C856 C 0.12304 0.35036 0.68434 0.0
C857 C 0.12668 0.67406 0.37045 0.0
C858 C 0.14735 0.67726 0.35099 0.0
C859 C 0.11 0.65656 0.37332 0.0
C860 C 0.11326 0.64144 0.35687 0.0
H861 H 0.1232 0.68524 0.38359 0.0
H862 H 0.09372 0.65508 0.38827 0.0
S863 S 0.16521 0.64217 0.3032 0.0
N864 N 0.17052 0.66372 0.31509 0.0
N865 N 0.13973 0.63057 0.32085 0.0
C866 C 0.13434 0.64427 0.33756 0.0
C867 C 0.15133 0.66218 0.33459 0.0
C868 C 0.8227 0.85935 0.60869 0.0
C869 C 0.79958 0.85435 0.62599 0.0
C870 C 0.81902 0.87562 0.5939 0.0
C871 C 0.79198 0.88753 0.59573 0.0
H872 H 0.84363 0.85043 0.6063 0.0
H873 H 0.83691 0.87848 0.58031 0.0
S874 S 0.72539 0.88147 0.63901 0.0
N875 N 0.74917 0.86303 0.6446 0.0
N876 N 0.74267 0.89386 0.61718 0.0
C877 C 0.76924 0.88309 0.6135 0.0
C878 C 0.77296 0.86649 0.62856 0.0
C879 C 0.63143 0.23858 0.21067 0.0
C880 C 0.66383 0.24455 0.20948 0.0
C881 C 0.61031 0.24137 0.19129 0.0
C882 C 0.62072 0.2502 0.1699 0.0
H883 H 0.62215 0.23201 0.22689 0.0
H884 H 0.5854 0.23692 0.19328 0.0
S885 S 0.70382 0.26705 0.15697 0.0
N886 N 0.70578 0.25879 0.18476 0.0
N887 N 0.66605 0.26399 0.14825 0.0
C888 C 0.6532 0.25596 0.16832 0.0
C889 C 0.67474 0.25314 0.18811 0.0
C890 C 0.25141 0.15912 0.62314 0.0
C891 C 0.22513 0.1715 0.61976 0.0
C892 C 0.25537 0.14286 0.60869 0.0
C893 C 0.23312 0.13825 0.59039 0.0
H894 H 0.26966 0.16236 0.63653 0.0
H895 H 0.27635 0.134 0.61161 0.0
S896 S 0.15911 0.16536 0.57516 0.0
N897 N 0.17546 0.17736 0.5977 0.0
N898 N 0.18335 0.14717 0.57014 0.0
C899 C 0.2062 0.15018 0.58732 0.0
C900 C 0.20215 0.16671 0.60205 0.0
C901 C 0.35992 0.76224 0.18074 0.0
C902 C 0.36401 0.7703 0.20366 0.0
C903 C 0.38256 0.76554 0.16264 0.0
C904 C 0.41005 0.77709 0.16675 0.0
H905 H 0.33902 0.75332 0.17676 0.0
H906 H 0.3785 0.75902 0.14529 0.0
S907 S 0.4332 0.80043 0.22403 0.0
N908 N 0.39848 0.78962 0.22971 0.0
N909 N 0.44085 0.79591 0.19568 0.0
C910 C 0.41448 0.7852 0.18957 0.0
C911 C 0.39151 0.7818 0.20801 0.0
C912 C 0.83593 0.17052 0.43295 0.0
C913 C 0.81733 0.17025 0.41175 0.0
C914 C 0.83697 0.1545 0.44837 0.0
C915 C 0.81937 0.13755 0.44329 0.0
H916 H 0.84931 0.18338 0.43796 0.0
H917 H 0.85111 0.15556 0.46471 0.0
S918 S 0.76894 0.12875 0.38927 0.0
N919 N 0.78238 0.15109 0.38581 0.0
N920 N 0.78405 0.12106 0.41503 0.0
C921 C 0.80105 0.13692 0.42202 0.0
C922 C 0.8001 0.15323 0.40621 0.0
C923 C 0.37092 0.25098 0.83732 0.0
C924 C 0.37162 0.2364 0.81995 0.0
C925 C 0.39203 0.25077 0.85711 0.0
C926 C 0.41435 0.23585 0.8604 0.0
H927 H 0.35442 0.26287 0.83532 0.0
H928 H 0.39096 0.2624 0.8699 0.0
S929 S 0.42518 0.19397 0.82039 0.0
N930 N 0.39571 0.20629 0.8078 0.0
N931 N 0.43581 0.20613 0.84455 0.0
C932 C 0.41493 0.22104 0.84333 0.0
C933 C 0.3935 0.22127 0.82322 0.0
C934 C 0.23098 0.88088 0.3922 0.0
C935 C 0.24402 0.86278 0.39805 0.0
C936 C 0.22613 0.89485 0.40984 0.0
C937 C 0.23457 0.89133 0.43392 0.0
H938 H 0.2242 0.88421 0.37387 0.0
H939 H 0.216 0.90858 0.40456 0.0
S940 S 0.26954 0.84629 0.45859 0.0
N941 N 0.26545 0.84218 0.42963 0.0
N942 N 0.25603 0.86829 0.46277 0.0
C943 C 0.24761 0.8733 0.44 0.0
C944 C 0.25236 0.85906 0.42209 0.0
C945 C 0.64099 0.78745 0.83095 0.0
C946 C 0.66769 0.77545 0.82781 0.0
C947 C 0.61932 0.78425 0.84969 0.0
C948 C 0.62343 0.76888 0.86596 0.0
H949 H 0.63623 0.79907 0.8184 0.0
H950 H 0.59859 0.79349 0.85096 0.0
S951 S 0.69117 0.73459 0.86731 0.0
N952 N 0.69842 0.74857 0.84385 0.0
N953 N 0.65735 0.74241 0.87886 0.0
C954 C 0.6505 0.75714 0.86352 0.0
C955 C 0.67269 0.76045 0.84452 0.0
loop_
_geom_bond_atom_site_label_1
_geom_bond_atom_site_label_2
_geom_bond_distance
_geom_bond_site_symmetry_2
_ccdc_geom_bond_type
C0 C1 1.264 . S
C0 C5 1.479 . S
C0 C10 1.465 . S
C1 C0 1.264 . S
C1 C3 1.339 . S
C1 H28 0.931 . S
C2 C3 1.395 . S
C2 C4 1.320 . S
C3 C1 1.339 . S
C3 C2 1.395 . S
C3 H29 0.929 . S
C4 C2 1.320 . S
C4 C5 1.405 . S
C4 H30 0.930 . S
C5 C0 1.479 . S
C5 C4 1.405 . S
C5 H31 0.931 . S
U6 O7 2.454 . S
U6 O8 2.458 . S
U6 C9 2.984 . S
U6 C10 2.847 . S
U6 C23 2.882 . S
U6 O24 2.441 . S
U6 O25 2.420 . S
U6 O26 2.455 . S
U6 O27 2.449 . S
O7 U6 2.454 . S
O7 C9 1.353 . S
O8 U6 2.458 . S
O8 C9 1.286 . S
C9 U6 2.984 . S
C9 O7 1.353 . S
C9 O8 1.286 . S
C9 C11 1.363 . S
C10 C0 1.465 . S
C10 U6 2.847 . S
C10 O24 1.249 . S
C10 O25 1.202 . S
C11 C9 1.363 . S
C11 C13 1.408 . S
C11 C16 1.342 . S
C12 C13 1.310 . S
C12 C15 1.461 . S
C12 H32 0.932 . S
C13 C11 1.408 . S
C13 C12 1.310 . S
C13 H33 0.930 . S
C14 C15 1.474 . S
C14 C16 1.285 . S
C14 H34 0.929 . S
C15 C12 1.461 . S
C15 C14 1.474 . S
C16 C11 1.342 . S
C16 C14 1.285 . S
C16 H35 0.930 . S
C17 C20 1.424 . S
C17 C22 1.245 . S
C17 C23 1.428 . S
C18 C21 1.260 . S
C18 C22 1.477 . S
C18 H36 0.932 . S
C19 C20 1.384 . S
C19 C21 1.479 . S
C19 H37 0.929 . S
C20 C17 1.424 . S
C20 C19 1.384 . S
C20 H38 0.928 . S
C21 C18 1.260 . S
C21 C19 1.479 . S
C22 C17 1.245 . S
C22 C18 1.477 . S
C22 H39 0.932 . S
C23 U6 2.882 . S
C23 C17 1.428 . S
C23 O26 1.301 . S
C23 O27 1.282 . S
O24 U6 2.441 . S
O24 C10 1.249 . S
O25 U6 2.420 . S
O25 C10 1.202 . S
O26 U6 2.455 . S
O26 C23 1.301 . S
O27 U6 2.449 . S
O27 C23 1.282 . S
H28 C1 0.931 . S
H29 C3 0.929 . S
H30 C4 0.930 . S
H31 C5 0.931 . S
H32 C12 0.932 . S
H33 C13 0.930 . S
H34 C14 0.929 . S
H35 C16 0.930 . S
H36 C18 0.932 . S
H37 C19 0.929 . S
H38 C20 0.928 . S
H39 C22 0.932 . S
C40 C41 1.264 . S
C40 C45 1.479 . S
C40 C50 1.465 . S
C41 C40 1.264 . S
C41 C43 1.339 . S
C41 H68 0.931 . S
C42 C43 1.395 . S
C42 C44 1.320 . S
C43 C41 1.339 . S
C43 C42 1.395 . S
C43 H69 0.929 . S
C44 C42 1.320 . S
C44 C45 1.405 . S
C44 H70 0.930 . S
C45 C40 1.479 . S
C45 C44 1.405 . S
C45 H71 0.931 . S
U46 O47 2.454 . S
U46 O48 2.458 . S
U46 C49 2.984 . S
U46 C50 2.847 . S
U46 C63 2.882 . S
U46 O64 2.441 . S
U46 O65 2.420 . S
U46 O66 2.455 . S
U46 O67 2.449 . S
O47 U46 2.454 . S
O47 C49 1.353 . S
O48 U46 2.458 . S
O48 C49 1.286 . S
C49 U46 2.984 . S
C49 O47 1.353 . S
C49 O48 1.286 . S
C49 C51 1.363 . S
C50 C40 1.465 . S
C50 U46 2.847 . S
C50 O64 1.249 . S
C50 O65 1.202 . S
C51 C49 1.363 . S
C51 C53 1.408 . S
C51 C56 1.342 . S
C52 C53 1.310 . S
C52 C55 1.461 . S
C52 H72 0.932 . S
C53 C51 1.408 . S
C53 C52 1.310 . S
C53 H73 0.930 . S
C54 C55 1.474 . S
C54 C56 1.285 . S
C54 H74 0.929 . S
C55 C52 1.461 . S
C55 C54 1.474 . S
C56 C51 1.342 . S
C56 C54 1.285 . S
C56 H75 0.930 . S
C57 C60 1.424 . S
C57 C62 1.245 . S
C57 C63 1.428 . S
C58 C61 1.260 . S
C58 C62 1.477 . S
C58 H76 0.932 . S
C59 C60 1.384 . S
C59 C61 1.479 . S
C59 H77 0.929 . S
C60 C57 1.424 . S
C60 C59 1.384 . S
C60 H78 0.928 . S
C61 C58 1.260 . S
C61 C59 1.479 . S
C62 C57 1.245 . S
C62 C58 1.477 . S
C62 H79 0.932 . S
C63 U46 2.882 . S
C63 C57 1.428 . S
C63 O66 1.301 . S
C63 O67 1.282 . S
O64 U46 2.441 . S
O64 C50 1.249 . S
O65 U46 2.420 . S
O65 C50 1.202 . S
O66 U46 2.455 . S
O66 C63 1.301 . S
O67 U46 2.449 . S
O67 C63 1.282 . S
H68 C41 0.931 . S
H69 C43 0.929 . S
H70 C44 0.930 . S
H71 C45 0.931 . S
H72 C52 0.932 . S
H73 C53 0.930 . S
H74 C54 0.929 . S
H75 C56 0.930 . S
H76 C58 0.932 . S
H77 C59 0.929 . S
H78 C60 0.928 . S
H79 C62 0.932 . S
C80 C81 1.264 . S
C80 C85 1.479 . S
C80 C90 1.465 . S
C81 C80 1.264 . S
C81 C83 1.339 . S
C81 H108 0.931 . S
C82 C83 1.395 . S
C82 C84 1.320 . S
C83 C81 1.339 . S
C83 C82 1.395 . S
C83 H109 0.929 . S
C84 C82 1.320 . S
C84 C85 1.405 . S
C84 H110 0.930 . S
C85 C80 1.479 . S
C85 C84 1.405 . S
C85 H111 0.931 . S
U86 O87 2.454 . S
U86 O88 2.458 . S
U86 C89 2.984 . S
U86 C90 2.847 . S
U86 C103 2.882 . S
U86 O104 2.441 . S
U86 O105 2.420 . S
U86 O106 2.455 . S
U86 O107 2.449 . S
O87 U86 2.454 . S
O87 C89 1.353 . S
O88 U86 2.458 . S
O88 C89 1.286 . S
C89 U86 2.984 . S
C89 O87 1.353 . S
C89 O88 1.286 . S
C89 C91 1.363 . S
C90 C80 1.465 . S
C90 U86 2.847 . S
C90 O104 1.249 . S
C90 O105 1.202 . S
C91 C89 1.363 . S
C91 C93 1.408 . S
C91 C96 1.342 . S
C92 C93 1.310 . S
C92 C95 1.461 . S
C92 H112 0.932 . S
C93 C91 1.408 . S
C93 C92 1.310 . S
C93 H113 0.930 . S
C94 C95 1.474 . S
C94 C96 1.285 . S
C94 H114 0.929 . S
C95 C92 1.461 . S
C95 C94 1.474 . S
C96 C91 1.342 . S
C96 C94 1.285 . S
C96 H115 0.930 . S
C97 C100 1.424 . S
C97 C102 1.245 . S
C97 C103 1.428 . S
C98 C101 1.260 . S
C98 C102 1.477 . S
C98 H116 0.932 . S
C99 C100 1.384 . S
C99 C101 1.479 . S
C99 H117 0.929 . S
C100 C97 1.424 . S
C100 C99 1.384 . S
C100 H118 0.928 . S
C101 C98 1.260 . S
C101 C99 1.479 . S
C102 C97 1.245 . S
C102 C98 1.477 . S
C102 H119 0.932 . S
C103 U86 2.882 . S
C103 C97 1.428 . S
C103 O106 1.301 . S
C103 O107 1.282 . S
O104 U86 2.441 . S
O104 C90 1.249 . S
O105 U86 2.420 . S
O105 C90 1.202 . S
O106 U86 2.455 . S
O106 C103 1.301 . S
O107 U86 2.449 . S
O107 C103 1.282 . S
H108 C81 0.931 . S
H109 C83 0.929 . S
H110 C84 0.930 . S
H111 C85 0.931 . S
H112 C92 0.932 . S
H113 C93 0.930 . S
H114 C94 0.929 . S
H115 C96 0.930 . S
H116 C98 0.932 . S
H117 C99 0.929 . S
H118 C100 0.928 . S
H119 C102 0.932 . S
C120 C121 1.264 . S
C120 C125 1.479 . S
C120 C130 1.465 . S
C121 C120 1.264 . S
C121 C123 1.339 . S
C121 H148 0.931 . S
C122 C123 1.395 . S
C122 C124 1.320 . S
C123 C121 1.339 . S
C123 C122 1.395 . S
C123 H149 0.929 . S
C124 C122 1.320 . S
C124 C125 1.405 . S
C124 H150 0.930 . S
C125 C120 1.479 . S
C125 C124 1.405 . S
C125 H151 0.931 . S
U126 O127 2.454 . S
U126 O128 2.458 . S
U126 C129 2.984 . S
U126 C130 2.847 . S
U126 C143 2.882 . S
U126 O144 2.441 . S
U126 O145 2.420 . S
U126 O146 2.455 . S
U126 O147 2.449 . S
O127 U126 2.454 . S
O127 C129 1.353 . S
O128 U126 2.458 . S
O128 C129 1.286 . S
C129 U126 2.984 . S
C129 O127 1.353 . S
C129 O128 1.286 . S
C129 C131 1.363 . S
C130 C120 1.465 . S
C130 U126 2.847 . S
C130 O144 1.249 . S
C130 O145 1.202 . S
C131 C129 1.363 . S
C131 C133 1.408 . S
C131 C136 1.342 . S
C132 C133 1.310 . S
C132 C135 1.461 . S
C132 H152 0.932 . S
C133 C131 1.408 . S
C133 C132 1.310 . S
C133 H153 0.930 . S
C134 C135 1.474 . S
C134 C136 1.285 . S
C134 H154 0.929 . S
C135 C132 1.461 . S
C135 C134 1.474 . S
C136 C131 1.342 . S
C136 C134 1.285 . S
C136 H155 0.930 . S
C137 C140 1.424 . S
C137 C142 1.245 . S
C137 C143 1.428 . S
C138 C141 1.260 . S
C138 C142 1.477 . S
C138 H156 0.932 . S
C139 C140 1.384 . S
C139 C141 1.479 . S
C139 H157 0.929 . S
C140 C137 1.424 . S
C140 C139 1.384 . S
C140 H158 0.928 . S
C141 C138 1.260 . S
C141 C139 1.479 . S
C142 C137 1.245 . S
C142 C138 1.477 . S
C142 H159 0.932 . S
C143 U126 2.882 . S
C143 C137 1.428 . S
C143 O146 1.301 . S
C143 O147 1.282 . S
O144 U126 2.441 . S
O144 C130 1.249 . S
O145 U126 2.420 . S
O145 C130 1.202 . S
O146 U126 2.455 . S
O146 C143 1.301 . S
O147 U126 2.449 . S
O147 C143 1.282 . S
H148 C121 0.931 . S
H149 C123 0.929 . S
H150 C124 0.930 . S
H151 C125 0.931 . S
H152 C132 0.932 . S
H153 C133 0.930 . S
H154 C134 0.929 . S
H155 C136 0.930 . S
H156 C138 0.932 . S
H157 C139 0.929 . S
H158 C140 0.928 . S
H159 C142 0.932 . S
C160 C161 1.264 . S
C160 C165 1.479 . S
C160 C170 1.465 . S
C161 C160 1.264 . S
C161 C163 1.339 . S
C161 H188 0.931 . S
C162 C163 1.395 . S
C162 C164 1.320 . S
C163 C161 1.339 . S
C163 C162 1.395 . S
C163 H189 0.929 . S
C164 C162 1.320 . S
C164 C165 1.405 . S
C164 H190 0.930 . S
C165 C160 1.479 . S
C165 C164 1.405 . S
C165 H191 0.931 . S
U166 O167 2.454 . S
U166 O168 2.458 . S
U166 C169 2.984 . S
U166 C170 2.847 . S
U166 C183 2.882 . S
U166 O184 2.441 . S
U166 O185 2.420 . S
U166 O186 2.455 . S
U166 O187 2.449 . S
O167 U166 2.454 . S
O167 C169 1.353 . S
O168 U166 2.458 . S
O168 C169 1.286 . S
C169 U166 2.984 . S
C169 O167 1.353 . S
C169 O168 1.286 . S
C169 C171 1.363 . S
C170 C160 1.465 . S
C170 U166 2.847 . S
C170 O184 1.249 . S
C170 O185 1.202 . S
C171 C169 1.363 . S
C171 C173 1.408 . S
C171 C176 1.342 . S
C172 C173 1.310 . S
C172 C175 1.461 . S
C172 H192 0.932 . S
C173 C171 1.408 . S
C173 C172 1.310 . S
C173 H193 0.930 . S
C174 C175 1.474 . S
C174 C176 1.285 . S
C174 H194 0.929 . S
C175 C172 1.461 . S
C175 C174 1.474 . S
C176 C171 1.342 . S
C176 C174 1.285 . S
C176 H195 0.930 . S
C177 C180 1.424 . S
C177 C182 1.245 . S
C177 C183 1.428 . S
C178 C181 1.260 . S
C178 C182 1.477 . S
C178 H196 0.932 . S
C179 C180 1.384 . S
C179 C181 1.479 . S
C179 H197 0.929 . S
C180 C177 1.424 . S
C180 C179 1.384 . S
C180 H198 0.928 . S
C181 C178 1.260 . S
C181 C179 1.479 . S
C182 C177 1.245 . S
C182 C178 1.477 . S
C182 H199 0.932 . S
C183 U166 2.882 . S
C183 C177 1.428 . S
C183 O186 1.301 . S
C183 O187 1.282 . S
O184 U166 2.441 . S
O184 C170 1.249 . S
O185 U166 2.420 . S
O185 C170 1.202 . S
O186 U166 2.455 . S
O186 C183 1.301 . S
O187 U166 2.449 . S
O187 C183 1.282 . S
H188 C161 0.931 . S
H189 C163 0.929 . S
H190 C164 0.930 . S
H191 C165 0.931 . S
H192 C172 0.932 . S
H193 C173 0.930 . S
H194 C174 0.929 . S
H195 C176 0.930 . S
H196 C178 0.932 . S
H197 C179 0.929 . S
H198 C180 0.928 . S
H199 C182 0.932 . S
C200 C201 1.264 . S
C200 C205 1.479 . S
C200 C210 1.465 . S
C201 C200 1.264 . S
C201 C203 1.339 . S
C201 H228 0.931 . S
C202 C203 1.395 . S
C202 C204 1.320 . S
C203 C201 1.339 . S
C203 C202 1.395 . S
C203 H229 0.929 . S
C204 C202 1.320 . S
C204 C205 1.405 . S
C204 H230 0.930 . S
C205 C200 1.479 . S
C205 C204 1.405 . S
C205 H231 0.931 . S
U206 O207 2.454 . S
U206 O208 2.458 . S
U206 C209 2.984 . S
U206 C210 2.847 . S
U206 C223 2.882 . S
U206 O224 2.441 . S
U206 O225 2.420 . S
U206 O226 2.455 . S
U206 O227 2.449 . S
O207 U206 2.454 . S
O207 C209 1.353 . S
O208 U206 2.458 . S
O208 C209 1.286 . S
C209 U206 2.984 . S
C209 O207 1.353 . S
C209 O208 1.286 . S
C209 C211 1.363 . S
C210 C200 1.465 . S
C210 U206 2.847 . S
C210 O224 1.249 . S
C210 O225 1.202 . S
C211 C209 1.363 . S
C211 C213 1.408 . S
C211 C216 1.342 . S
C212 C213 1.310 . S
C212 C215 1.461 . S
C212 H232 0.932 . S
C213 C211 1.408 . S
C213 C212 1.310 . S
C213 H233 0.930 . S
C214 C215 1.474 . S
C214 C216 1.285 . S
C214 H234 0.929 . S
C215 C212 1.461 . S
C215 C214 1.474 . S
C216 C211 1.342 . S
C216 C214 1.285 . S
C216 H235 0.930 . S
C217 C220 1.424 . S
C217 C222 1.245 . S
C217 C223 1.428 . S
C218 C221 1.260 . S
C218 C222 1.477 . S
C218 H236 0.932 . S
C219 C220 1.384 . S
C219 C221 1.479 . S
C219 H237 0.929 . S
C220 C217 1.424 . S
C220 C219 1.384 . S
C220 H238 0.928 . S
C221 C218 1.260 . S
C221 C219 1.479 . S
C222 C217 1.245 . S
C222 C218 1.477 . S
C222 H239 0.932 . S
C223 U206 2.882 . S
C223 C217 1.428 . S
C223 O226 1.301 . S
C223 O227 1.282 . S
O224 U206 2.441 . S
O224 C210 1.249 . S
O225 U206 2.420 . S
O225 C210 1.202 . S
O226 U206 2.455 . S
O226 C223 1.301 . S
O227 U206 2.449 . S
O227 C223 1.282 . S
H228 C201 0.931 . S
H229 C203 0.929 . S
H230 C204 0.930 . S
H231 C205 0.931 . S
H232 C212 0.932 . S
H233 C213 0.930 . S
H234 C214 0.929 . S
H235 C216 0.930 . S
H236 C218 0.932 . S
H237 C219 0.929 . S
H238 C220 0.928 . S
H239 C222 0.932 . S
C240 C241 1.264 . S
C240 C245 1.479 . S
C240 C250 1.465 . S
C241 C240 1.264 . S
C241 C243 1.339 . S
C241 H268 0.931 . S
C242 C243 1.395 . S
C242 C244 1.320 . S
C243 C241 1.339 . S
C243 C242 1.395 . S
C243 H269 0.929 . S
C244 C242 1.320 . S
C244 C245 1.405 . S
C244 H270 0.930 . S
C245 C240 1.479 . S
C245 C244 1.405 . S
C245 H271 0.931 . S
U246 O247 2.454 . S
U246 O248 2.458 . S
U246 C249 2.984 . S
U246 C250 2.847 . S
U246 C263 2.882 . S
U246 O264 2.441 . S
U246 O265 2.420 . S
U246 O266 2.455 . S
U246 O267 2.449 . S
O247 U246 2.454 . S
O247 C249 1.353 . S
O248 U246 2.458 . S
O248 C249 1.286 . S
C249 U246 2.984 . S
C249 O247 1.353 . S
C249 O248 1.286 . S
C249 C251 1.363 . S
C250 C240 1.465 . S
C250 U246 2.847 . S
C250 O264 1.249 . S
C250 O265 1.202 . S
C251 C249 1.363 . S
C251 C253 1.408 . S
C251 C256 1.342 . S
C252 C253 1.310 . S
C252 C255 1.461 . S
C252 H272 0.932 . S
C253 C251 1.408 . S
C253 C252 1.310 . S
C253 H273 0.930 . S
C254 C255 1.474 . S
C254 C256 1.285 . S
C254 H274 0.929 . S
C255 C252 1.461 . S
C255 C254 1.474 . S
C256 C251 1.342 . S
C256 C254 1.285 . S
C256 H275 0.930 . S
C257 C260 1.424 . S
C257 C262 1.245 . S
C257 C263 1.428 . S
C258 C261 1.260 . S
C258 C262 1.477 . S
C258 H276 0.932 . S
C259 C260 1.384 . S
C259 C261 1.479 . S
C259 H277 0.929 . S
C260 C257 1.424 . S
C260 C259 1.384 . S
C260 H278 0.928 . S
C261 C258 1.260 . S
C261 C259 1.479 . S
C262 C257 1.245 . S
C262 C258 1.477 . S
C262 H279 0.932 . S
C263 U246 2.882 . S
C263 C257 1.428 . S
C263 O266 1.301 . S
C263 O267 1.282 . S
O264 U246 2.441 . S
O264 C250 1.249 . S
O265 U246 2.420 . S
O265 C250 1.202 . S
O266 U246 2.455 . S
O266 C263 1.301 . S
O267 U246 2.449 . S
O267 C263 1.282 . S
H268 C241 0.931 . S
H269 C243 0.929 . S
H270 C244 0.930 . S
H271 C245 0.931 . S
H272 C252 0.932 . S
H273 C253 0.930 . S
H274 C254 0.929 . S
H275 C256 0.930 . S
H276 C258 0.932 . S
H277 C259 0.929 . S
H278 C260 0.928 . S
H279 C262 0.932 . S
C280 C281 1.264 . S
C280 C285 1.479 . S
C280 C290 1.465 . S
C281 C280 1.264 . S
C281 C283 1.339 . S
C281 H308 0.931 . S
C282 C283 1.395 . S
C282 C284 1.320 . S
C283 C281 1.339 . S
C283 C282 1.395 . S
C283 H309 0.929 . S
C284 C282 1.320 . S
C284 C285 1.405 . S
C284 H310 0.930 . S
C285 C280 1.479 . S
C285 C284 1.405 . S
C285 H311 0.931 . S
U286 O287 2.454 . S
U286 O288 2.458 . S
U286 C289 2.984 . S
U286 C290 2.847 . S
U286 C303 2.882 . S
U286 O304 2.441 . S
U286 O305 2.420 . S
U286 O306 2.455 . S
U286 O307 2.449 . S
O287 U286 2.454 . S
O287 C289 1.353 . S
O288 U286 2.458 . S
O288 C289 1.286 . S
C289 U286 2.984 . S
C289 O287 1.353 . S
C289 O288 1.286 . S
C289 C291 1.363 . S
C290 C280 1.465 . S
C290 U286 2.847 . S
C290 O304 1.249 . S
C290 O305 1.202 . S
C291 C289 1.363 . S
C291 C293 1.408 . S
C291 C296 1.342 . S
C292 C293 1.310 . S
C292 C295 1.461 . S
C292 H312 0.932 . S
C293 C291 1.408 . S
C293 C292 1.310 . S
C293 H313 0.930 . S
C294 C295 1.474 . S
C294 C296 1.285 . S
C294 H314 0.929 . S
C295 C292 1.461 . S
C295 C294 1.474 . S
C296 C291 1.342 . S
C296 C294 1.285 . S
C296 H315 0.930 . S
C297 C300 1.424 . S
C297 C302 1.245 . S
C297 C303 1.428 . S
C298 C301 1.260 . S
C298 C302 1.477 . S
C298 H316 0.932 . S
C299 C300 1.384 . S
C299 C301 1.479 . S
C299 H317 0.929 . S
C300 C297 1.424 . S
C300 C299 1.384 . S
C300 H318 0.928 . S
C301 C298 1.260 . S
C301 C299 1.479 . S
C302 C297 1.245 . S
C302 C298 1.477 . S
C302 H319 0.932 . S
C303 U286 2.882 . S
C303 C297 1.428 . S
C303 O306 1.301 . S
C303 O307 1.282 . S
O304 U286 2.441 . S
O304 C290 1.249 . S
O305 U286 2.420 . S
O305 C290 1.202 . S
O306 U286 2.455 . S
O306 C303 1.301 . S
O307 U286 2.449 . S
O307 C303 1.282 . S
H308 C281 0.931 . S
H309 C283 0.929 . S
H310 C284 0.930 . S
H311 C285 0.931 . S
H312 C292 0.932 . S
H313 C293 0.930 . S
H314 C294 0.929 . S
H315 C296 0.930 . S
H316 C298 0.932 . S
H317 C299 0.929 . S
H318 C300 0.928 . S
H319 C302 0.932 . S
H320 C347 0.929 . S
N321 C346 1.433 1_455 S
N321 C352 1.435 . S
N321 C358 1.423 . S
H322 C348 0.930 . S
H323 C351 0.931 . S
H324 C350 0.929 . S
H325 C353 0.930 . S
H326 C354 0.932 . S
H327 C357 0.929 . S
H328 C356 0.931 . S
H329 C359 0.929 . S
H330 C363 0.932 . S
H331 C360 0.931 1_655 S
H332 C362 0.929 . S
H333 C365 0.929 . S
H334 C366 0.930 . S
H335 C368 0.929 . S
H336 C369 0.931 . S
H337 C371 0.930 . S
H338 C372 0.932 . S
H339 C374 0.931 . S
H340 C375 0.929 . S
H341 C377 0.929 . S
H342 C378 0.931 1_655 S
H343 C380 0.929 . S
N344 C364 1.433 1_455 S
N344 C370 1.435 . S
N344 C376 1.423 . S
H345 C381 0.932 . S
C346 N321 1.433 1_655 S
C346 C347 1.363 . S
C346 C351 1.370 . S
C347 H320 0.929 . S
C347 C346 1.363 . S
C347 C348 1.385 . S
C348 H322 0.930 . S
C348 C347 1.385 . S
C348 C349 1.357 . S
C349 C348 1.357 . S
C349 C350 1.406 . S
C350 H324 0.929 . S
C350 C349 1.406 . S
C350 C351 1.391 . S
C351 H323 0.931 . S
C351 C346 1.370 . S
C351 C350 1.391 . S
C352 N321 1.435 . S
C352 C353 1.358 . S
C352 C357 1.371 . S
C353 H325 0.930 . S
C353 C352 1.358 . S
C353 C354 1.405 . S
C354 H326 0.932 . S
C354 C353 1.405 . S
C354 C355 1.383 . S
C355 C354 1.383 . S
C355 C356 1.393 . S
C356 H328 0.931 . S
C356 C355 1.393 . S
C356 C357 1.382 . S
C357 H327 0.929 . S
C357 C352 1.371 . S
C357 C356 1.382 . S
C358 N321 1.423 . S
C358 C359 1.362 1_455 S
C358 C363 1.388 . S
C359 H329 0.929 . S
C359 C358 1.362 1_655 S
C359 C360 1.376 1_655 S
C360 H331 0.931 1_455 S
C360 C359 1.376 1_455 S
C360 C361 1.396 . S
C361 C360 1.396 . S
C361 C362 1.348 . S
C361 C379 1.472 . S
C362 H332 0.929 . S
C362 C361 1.348 . S
C362 C363 1.443 . S
C363 H330 0.932 . S
C363 C358 1.388 . S
C363 C362 1.443 . S
C364 N344 1.433 1_655 S
C364 C365 1.363 . S
C364 C369 1.370 . S
C365 H333 0.929 . S
C365 C364 1.363 . S
C365 C366 1.385 . S
C366 H334 0.930 . S
C366 C365 1.385 . S
C366 C367 1.357 . S
C367 C366 1.357 . S
C367 C368 1.406 . S
C368 H335 0.929 . S
C368 C367 1.406 . S
C368 C369 1.391 . S
C369 H336 0.931 . S
C369 C364 1.370 . S
C369 C368 1.391 . S
C370 N344 1.435 . S
C370 C371 1.358 . S
C370 C375 1.371 . S
C371 H337 0.930 . S
C371 C370 1.358 . S
C371 C372 1.405 . S
C372 H338 0.932 . S
C372 C371 1.405 . S
C372 C373 1.383 . S
C373 C372 1.383 . S
C373 C374 1.393 . S
C374 H339 0.931 . S
C374 C373 1.393 . S
C374 C375 1.382 . S
C375 H340 0.929 . S
C375 C370 1.371 . S
C375 C374 1.382 . S
C376 N344 1.423 . S
C376 C377 1.362 1_455 S
C376 C381 1.388 . S
C377 H341 0.929 . S
C377 C376 1.362 1_655 S
C377 C378 1.376 1_655 S
C378 H342 0.931 1_455 S
C378 C377 1.376 1_455 S
C378 C379 1.396 . S
C379 C361 1.472 . S
C379 C378 1.396 . S
C379 C380 1.348 . S
C380 H343 0.929 . S
C380 C379 1.348 . S
C380 C381 1.443 . S
C381 H345 0.932 . S
C381 C376 1.388 . S
C381 C380 1.443 . S
H382 C409 0.929 . S
N383 C408 1.433 1_455 S
N383 C414 1.435 . S
N383 C420 1.423 . S
H384 C410 0.930 . S
H385 C413 0.931 . S
H386 C412 0.929 . S
H387 C415 0.930 . S
H388 C416 0.932 . S
H389 C419 0.929 . S
H390 C418 0.931 . S
H391 C421 0.929 . S
H392 C425 0.932 . S
H393 C422 0.931 1_655 S
H394 C424 0.929 . S
H395 C427 0.929 . S
H396 C428 0.930 . S
H397 C430 0.929 . S
H398 C431 0.931 . S
H399 C433 0.930 . S
H400 C434 0.932 . S
H401 C436 0.931 . S
H402 C437 0.929 . S
H403 C439 0.931 1_655 S
H404 C440 0.931 1_655 S
H405 C442 0.929 . S
N406 C426 1.433 1_455 S
N406 C432 1.435 . S
N406 C438 1.423 . S
H407 C443 0.932 . S
C408 N383 1.433 1_655 S
C408 C409 1.363 . S
C408 C413 1.370 . S
C409 H382 0.929 . S
C409 C408 1.363 . S
C409 C410 1.385 . S
C410 H384 0.930 . S
C410 C409 1.385 . S
C410 C411 1.357 . S
C411 C410 1.357 . S
C411 C412 1.406 . S
C412 H386 0.929 . S
C412 C411 1.406 . S
C412 C413 1.391 . S
C413 H385 0.931 . S
C413 C408 1.370 . S
C413 C412 1.391 . S
C414 N383 1.435 . S
C414 C415 1.358 . S
C414 C419 1.371 . S
C415 H387 0.930 . S
C415 C414 1.358 . S
C415 C416 1.405 . S
C416 H388 0.932 . S
C416 C415 1.405 . S
C416 C417 1.383 . S
C417 C416 1.383 . S
C417 C418 1.393 . S
C418 H390 0.931 . S
C418 C417 1.393 . S
C418 C419 1.382 . S
C419 H389 0.929 . S
C419 C414 1.371 . S
C419 C418 1.382 . S
C420 N383 1.423 . S
C420 C421 1.362 1_455 S
C420 C425 1.388 . S
C421 H391 0.929 . S
C421 C420 1.362 1_655 S
C421 C422 1.376 1_655 S
C422 H393 0.931 1_455 S
C422 C421 1.376 1_455 S
C422 C423 1.396 . S
C423 C422 1.396 . S
C423 C424 1.348 . S
C423 C441 1.472 . S
C424 H394 0.929 . S
C424 C423 1.348 . S
C424 C425 1.443 . S
C425 H392 0.932 . S
C425 C420 1.388 . S
C425 C424 1.443 . S
C426 N406 1.433 1_655 S
C426 C427 1.363 . S
C426 C431 1.370 . S
C427 H395 0.929 . S
C427 C426 1.363 . S
C427 C428 1.385 . S
C428 H396 0.930 . S
C428 C427 1.385 . S
C428 C429 1.357 . S
C429 C428 1.357 . S
C429 C430 1.406 . S
C430 H397 0.929 . S
C430 C429 1.406 . S
C430 C431 1.391 . S
C431 H398 0.931 . S
C431 C426 1.370 . S
C431 C430 1.391 . S
C432 N406 1.435 . S
C432 C433 1.358 . S
C432 C437 1.371 . S
C433 H399 0.930 . S
C433 C432 1.358 . S
C433 C434 1.405 . S
C434 H400 0.932 . S
C434 C433 1.405 . S
C434 C435 1.383 . S
C435 C434 1.383 . S
C435 C436 1.393 . S
C436 H401 0.931 . S
C436 C435 1.393 . S
C436 C437 1.382 . S
C437 H402 0.929 . S
C437 C432 1.371 . S
C437 C436 1.382 . S
C438 N406 1.423 . S
C438 C439 1.361 . S
C438 C443 1.388 . S
C439 H403 0.931 1_455 S
C439 C438 1.361 . S
C439 C440 1.376 . S
C440 H404 0.931 1_455 S
C440 C439 1.376 . S
C440 C441 1.396 . S
C441 C423 1.472 . S
C441 C440 1.396 . S
C441 C442 1.348 . S
C442 H405 0.929 . S
C442 C441 1.348 . S
C442 C443 1.443 . S
C443 H407 0.932 . S
C443 C438 1.388 . S
C443 C442 1.443 . S
H444 C471 0.929 . S
N445 C470 1.433 . S
N445 C476 1.435 . S
N445 C482 1.423 . S
H446 C472 0.930 . S
H447 C475 0.931 . S
H448 C474 0.929 . S
H449 C477 0.930 . S
H450 C478 0.932 . S
H451 C481 0.929 . S
H452 C480 0.931 . S
H453 C483 0.929 . S
H454 C487 0.932 . S
H455 C484 0.931 . S
H456 C486 0.929 . S
H457 C489 0.929 . S
H458 C490 0.930 . S
H459 C492 0.929 . S
H460 C493 0.931 . S
H461 C495 0.930 . S
H462 C496 0.932 . S
H463 C498 0.931 . S
H464 C499 0.929 . S
H465 C501 0.929 . S
H466 C502 0.931 . S
H467 C504 0.929 . S
N468 C488 1.433 . S
N468 C494 1.435 . S
N468 C500 1.423 . S
H469 C505 0.932 . S
C470 N445 1.433 . S
C470 C471 1.363 . S
C470 C475 1.370 . S
C471 H444 0.929 . S
C471 C470 1.363 . S
C471 C472 1.385 . S
C472 H446 0.930 . S
C472 C471 1.385 . S
C472 C473 1.357 . S
C473 C472 1.357 . S
C473 C474 1.406 . S
C474 H448 0.929 . S
C474 C473 1.406 . S
C474 C475 1.391 . S
C475 H447 0.931 . S
C475 C470 1.370 . S
C475 C474 1.391 . S
C476 N445 1.435 . S
C476 C477 1.358 . S
C476 C481 1.371 . S
C477 H449 0.930 . S
C477 C476 1.358 . S
C477 C478 1.405 . S
C478 H450 0.932 . S
C478 C477 1.405 . S
C478 C479 1.383 . S
C479 C478 1.383 . S
C479 C480 1.393 . S
C480 H452 0.931 . S
C480 C479 1.393 . S
C480 C481 1.382 . S
C481 H451 0.929 . S
C481 C476 1.371 . S
C481 C480 1.382 . S
C482 N445 1.423 . S
C482 C483 1.362 . S
C482 C487 1.388 . S
C483 H453 0.929 . S
C483 C482 1.362 . S
C483 C484 1.376 . S
C484 H455 0.931 . S
C484 C483 1.376 . S
C484 C485 1.396 . S
C485 C484 1.396 . S
C485 C486 1.348 . S
C485 C503 1.472 1_545 S
C486 H456 0.929 . S
C486 C485 1.348 . S
C486 C487 1.443 . S
C487 H454 0.932 . S
C487 C482 1.388 . S
C487 C486 1.443 . S
C488 N468 1.433 . S
C488 C489 1.363 . S
C488 C493 1.370 . S
C489 H457 0.929 . S
C489 C488 1.363 . S
C489 C490 1.385 . S
C490 H458 0.930 . S
C490 C489 1.385 . S
C490 C491 1.357 . S
C491 C490 1.357 . S
C491 C492 1.406 . S
C492 H459 0.929 . S
C492 C491 1.406 . S
C492 C493 1.391 . S
C493 H460 0.931 . S
C493 C488 1.370 . S
C493 C492 1.391 . S
C494 N468 1.435 . S
C494 C495 1.358 . S
C494 C499 1.371 . S
C495 H461 0.930 . S
C495 C494 1.358 . S
C495 C496 1.405 . S
C496 H462 0.932 . S
C496 C495 1.405 . S
C496 C497 1.383 . S
C497 C496 1.383 . S
C497 C498 1.393 . S
C498 H463 0.931 . S
C498 C497 1.393 . S
C498 C499 1.382 . S
C499 H464 0.929 . S
C499 C494 1.371 . S
C499 C498 1.382 . S
C500 N468 1.423 . S
C500 C501 1.362 . S
C500 C505 1.388 . S
C501 H465 0.929 . S
C501 C500 1.362 . S
C501 C502 1.376 . S
C502 H466 0.931 . S
C502 C501 1.376 . S
C502 C503 1.396 . S
C503 C485 1.472 1_565 S
C503 C502 1.396 . S
C503 C504 1.348 . S
C504 H467 0.929 . S
C504 C503 1.348 . S
C504 C505 1.443 . S
C505 H469 0.932 . S
C505 C500 1.388 . S
C505 C504 1.443 . S
H506 C533 0.929 . S
N507 C532 1.433 . S
N507 C538 1.435 . S
N507 C544 1.423 . S
H508 C534 0.930 . S
H509 C537 0.931 . S
H510 C536 0.929 . S
H511 C539 0.930 . S
H512 C540 0.932 . S
H513 C543 0.929 . S
H514 C542 0.931 . S
H515 C545 0.929 . S
H516 C549 0.932 . S
H517 C546 0.931 . S
H518 C548 0.929 . S
H519 C551 0.929 . S
H520 C552 0.930 . S
H521 C554 0.929 . S
H522 C555 0.931 . S
H523 C557 0.930 . S
H524 C558 0.932 . S
H525 C560 0.931 . S
H526 C561 0.929 . S
H527 C563 0.929 . S
H528 C564 0.931 . S
H529 C566 0.929 . S
N530 C550 1.433 . S
N530 C556 1.435 . S
N530 C562 1.423 . S
H531 C567 0.932 . S
C532 N507 1.433 . S
C532 C533 1.363 . S
C532 C537 1.370 . S
C533 H506 0.929 . S
C533 C532 1.363 . S
C533 C534 1.385 . S
C534 H508 0.930 . S
C534 C533 1.385 . S
C534 C535 1.357 . S
C535 C534 1.357 . S
C535 C536 1.406 . S
C536 H510 0.929 . S
C536 C535 1.406 . S
C536 C537 1.391 . S
C537 H509 0.931 . S
C537 C532 1.370 . S
C537 C536 1.391 . S
C538 N507 1.435 . S
C538 C539 1.358 . S
C538 C543 1.371 . S
C539 H511 0.930 . S
C539 C538 1.358 . S
C539 C540 1.405 . S
C540 H512 0.932 . S
C540 C539 1.405 . S
C540 C541 1.383 . S
C541 C540 1.383 . S
C541 C542 1.393 . S
C542 H514 0.931 . S
C542 C541 1.393 . S
C542 C543 1.382 . S
C543 H513 0.929 . S
C543 C538 1.371 . S
C543 C542 1.382 . S
C544 N507 1.423 . S
C544 C545 1.362 . S
C544 C549 1.388 . S
C545 H515 0.929 . S
C545 C544 1.362 . S
C545 C546 1.376 . S
C546 H517 0.931 . S
C546 C545 1.376 . S
C546 C547 1.396 . S
C547 C546 1.396 . S
C547 C548 1.348 . S
C547 C565 1.472 1_554 S
C548 H518 0.929 . S
C548 C547 1.348 . S
C548 C549 1.443 . S
C549 H516 0.932 . S
C549 C544 1.388 . S
C549 C548 1.443 . S
C550 N530 1.433 . S
C550 C551 1.363 . S
C550 C555 1.370 . S
C551 H519 0.929 . S
C551 C550 1.363 . S
C551 C552 1.385 . S
C552 H520 0.930 . S
C552 C551 1.385 . S
C552 C553 1.357 . S
C553 C552 1.357 . S
C553 C554 1.406 . S
C554 H521 0.929 . S
C554 C553 1.406 . S
C554 C555 1.391 . S
C555 H522 0.931 . S
C555 C550 1.370 . S
C555 C554 1.391 . S
C556 N530 1.435 . S
C556 C557 1.358 . S
C556 C561 1.371 . S
C557 H523 0.930 . S
C557 C556 1.358 . S
C557 C558 1.405 . S
C558 H524 0.932 . S
C558 C557 1.405 . S
C558 C559 1.383 . S
C559 C558 1.383 . S
C559 C560 1.393 . S
C560 H525 0.931 . S
C560 C559 1.393 . S
C560 C561 1.382 . S
C561 H526 0.929 . S
C561 C556 1.371 . S
C561 C560 1.382 . S
C562 N530 1.423 . S
C562 C563 1.362 . S
C562 C567 1.388 . S
C563 H527 0.929 . S
C563 C562 1.362 . S
C563 C564 1.376 . S
C564 H528 0.931 . S
C564 C563 1.376 . S
C564 C565 1.396 . S
C565 C547 1.472 1_556 S
C565 C564 1.396 . S
C565 C566 1.348 . S
C566 H529 0.929 . S
C566 C565 1.348 . S
C566 C567 1.443 . S
C567 H531 0.932 . S
C567 C562 1.388 . S
C567 C566 1.443 . S
H568 C595 0.929 . S
N569 C594 1.433 . S
N569 C600 1.435 . S
N569 C606 1.423 . S
H570 C596 0.930 . S
H571 C599 0.931 . S
H572 C598 0.929 . S
H573 C601 0.930 . S
H574 C602 0.932 . S
H575 C605 0.929 . S
H576 C604 0.931 . S
H577 C607 0.929 . S
H578 C611 0.932 . S
H579 C608 0.931 . S
H580 C610 0.929 . S
H581 C613 0.929 . S
H582 C614 0.930 . S
H583 C616 0.929 . S
H584 C617 0.931 . S
H585 C619 0.930 . S
H586 C620 0.932 . S
H587 C622 0.931 . S
H588 C623 0.929 . S
H589 C625 0.929 . S
H590 C626 0.931 . S
H591 C628 0.929 . S
N592 C612 1.433 . S
N592 C618 1.435 . S
N592 C624 1.423 . S
H593 C629 0.932 . S
C594 N569 1.433 . S
C594 C595 1.363 . S
C594 C599 1.370 . S
C595 H568 0.929 . S
C595 C594 1.363 . S
C595 C596 1.385 . S
C596 H570 0.930 . S
C596 C595 1.385 . S
C596 C597 1.357 . S
C597 C596 1.357 . S
C597 C598 1.406 . S
C598 H572 0.929 . S
C598 C597 1.406 . S
C598 C599 1.391 . S
C599 H571 0.931 . S
C599 C594 1.370 . S
C599 C598 1.391 . S
C600 N569 1.435 . S
C600 C601 1.358 . S
C600 C605 1.371 . S
C601 H573 0.930 . S
C601 C600 1.358 . S
C601 C602 1.405 . S
C602 H574 0.932 . S
C602 C601 1.405 . S
C602 C603 1.383 . S
C603 C602 1.383 . S
C603 C604 1.393 . S
C604 H576 0.931 . S
C604 C603 1.393 . S
C604 C605 1.382 . S
C605 H575 0.929 . S
C605 C600 1.371 . S
C605 C604 1.382 . S
C606 N569 1.423 . S
C606 C607 1.362 . S
C606 C611 1.388 . S
C607 H577 0.929 . S
C607 C606 1.362 . S
C607 C608 1.376 . S
C608 H579 0.931 . S
C608 C607 1.376 . S
C608 C609 1.396 . S
C609 C608 1.396 . S
C609 C610 1.348 . S
C609 C627 1.472 1_545 S
C610 H580 0.929 . S
C610 C609 1.348 . S
C610 C611 1.443 . S
C611 H578 0.932 . S
C611 C606 1.388 . S
C611 C610 1.443 . S
C612 N592 1.433 . S
C612 C613 1.363 . S
C612 C617 1.370 . S
C613 H581 0.929 . S
C613 C612 1.363 . S
C613 C614 1.385 . S
C614 H582 0.930 . S
C614 C613 1.385 . S
C614 C615 1.357 . S
C615 C614 1.357 . S
C615 C616 1.406 . S
C616 H583 0.929 . S
C616 C615 1.406 . S
C616 C617 1.391 . S
C617 H584 0.931 . S
C617 C612 1.370 . S
C617 C616 1.391 . S
C618 N592 1.435 . S
C618 C619 1.358 . S
C618 C623 1.371 . S
C619 H585 0.930 . S
C619 C618 1.358 . S
C619 C620 1.405 . S
C620 H586 0.932 . S
C620 C619 1.405 . S
C620 C621 1.383 . S
C621 C620 1.383 . S
C621 C622 1.393 . S
C622 H587 0.931 . S
C622 C621 1.393 . S
C622 C623 1.382 . S
C623 H588 0.929 . S
C623 C618 1.371 . S
C623 C622 1.382 . S
C624 N592 1.423 . S
C624 C625 1.362 . S
C624 C629 1.388 . S
C625 H589 0.929 . S
C625 C624 1.362 . S
C625 C626 1.376 . S
C626 H590 0.931 . S
C626 C625 1.376 . S
C626 C627 1.396 . S
C627 C609 1.472 1_565 S
C627 C626 1.396 . S
C627 C628 1.348 . S
C628 H591 0.929 . S
C628 C627 1.348 . S
C628 C629 1.443 . S
C629 H593 0.932 . S
C629 C624 1.388 . S
C629 C628 1.443 . S
H630 C657 0.929 . S
N631 C656 1.433 . S
N631 C662 1.435 . S
N631 C668 1.423 . S
H632 C658 0.930 . S
H633 C661 0.931 . S
H634 C660 0.929 . S
H635 C663 0.930 . S
H636 C664 0.932 . S
H637 C667 0.929 . S
H638 C666 0.931 . S
H639 C669 0.929 . S
H640 C673 0.932 . S
H641 C670 0.931 . S
H642 C672 0.929 . S
H643 C675 0.929 . S
H644 C676 0.930 . S
H645 C678 0.929 . S
H646 C679 0.931 . S
H647 C681 0.930 . S
H648 C682 0.932 . S
H649 C684 0.931 . S
H650 C685 0.929 . S
H651 C687 0.929 . S
H652 C688 0.931 . S
H653 C690 0.929 . S
N654 C674 1.433 . S
N654 C680 1.435 . S
N654 C686 1.423 . S
H655 C691 0.932 . S
C656 N631 1.433 . S
C656 C657 1.363 . S
C656 C661 1.370 . S
C657 H630 0.929 . S
C657 C656 1.363 . S
C657 C658 1.385 . S
C658 H632 0.930 . S
C658 C657 1.385 . S
C658 C659 1.357 . S
C659 C658 1.357 . S
C659 C660 1.406 . S
C660 H634 0.929 . S
C660 C659 1.406 . S
C660 C661 1.391 . S
C661 H633 0.931 . S
C661 C656 1.370 . S
C661 C660 1.391 . S
C662 N631 1.435 . S
C662 C663 1.358 . S
C662 C667 1.371 . S
C663 H635 0.930 . S
C663 C662 1.358 . S
C663 C664 1.405 . S
C664 H636 0.932 . S
C664 C663 1.405 . S
C664 C665 1.383 . S
C665 C664 1.383 . S
C665 C666 1.393 . S
C666 H638 0.931 . S
C666 C665 1.393 . S
C666 C667 1.382 . S
C667 H637 0.929 . S
C667 C662 1.371 . S
C667 C666 1.382 . S
C668 N631 1.423 . S
C668 C669 1.362 . S
C668 C673 1.388 . S
C669 H639 0.929 . S
C669 C668 1.362 . S
C669 C670 1.376 . S
C670 H641 0.931 . S
C670 C669 1.376 . S
C670 C671 1.396 . S
C671 C670 1.396 . S
C671 C672 1.348 . S
C671 C689 1.472 1_554 S
C672 H642 0.929 . S
C672 C671 1.348 . S
C672 C673 1.443 . S
C673 H640 0.932 . S
C673 C668 1.388 . S
C673 C672 1.443 . S
C674 N654 1.433 . S
C674 C675 1.363 . S
C674 C679 1.370 . S
C675 H643 0.929 . S
C675 C674 1.363 . S
C675 C676 1.385 . S
C676 H644 0.930 . S
C676 C675 1.385 . S
C676 C677 1.357 . S
C677 C676 1.357 . S
C677 C678 1.406 . S
C678 H645 0.929 . S
C678 C677 1.406 . S
C678 C679 1.391 . S
C679 H646 0.931 . S
C679 C674 1.370 . S
C679 C678 1.391 . S
C680 N654 1.435 . S
C680 C681 1.358 . S
C680 C685 1.371 . S
C681 H647 0.930 . S
C681 C680 1.358 . S
C681 C682 1.405 . S
C682 H648 0.932 . S
C682 C681 1.405 . S
C682 C683 1.383 . S
C683 C682 1.383 . S
C683 C684 1.393 . S
C684 H649 0.931 . S
C684 C683 1.393 . S
C684 C685 1.382 . S
C685 H650 0.929 . S
C685 C680 1.371 . S
C685 C684 1.382 . S
C686 N654 1.423 . S
C686 C687 1.362 . S
C686 C691 1.388 . S
C687 H651 0.929 . S
C687 C686 1.362 . S
C687 C688 1.376 . S
C688 H652 0.931 . S
C688 C687 1.376 . S
C688 C689 1.396 . S
C689 C671 1.472 1_556 S
C689 C688 1.396 . S
C689 C690 1.348 . S
C690 H653 0.929 . S
C690 C689 1.348 . S
C690 C691 1.443 . S
C691 H655 0.932 . S
C691 C686 1.388 . S
C691 C690 1.443 . S
C692 C693 1.369 . S
C692 C694 1.419 . S
C692 H696 0.930 . S
C693 C692 1.369 . S
C693 C702 1.429 . S
C694 C692 1.419 . S
C694 C695 1.363 . S
C694 H697 0.929 . S
C695 C694 1.363 . S
C695 C701 1.428 . S
H696 C692 0.930 . S
H697 C694 0.929 . S
S698 N699 1.613 . S
S698 N700 1.610 . S
N699 S698 1.613 . S
N699 C702 1.350 . S
N700 S698 1.610 . S
N700 C701 1.351 . S
C701 C695 1.428 . S
C701 N700 1.351 . S
C701 C702 1.434 . S
C702 C693 1.429 . S
C702 N699 1.350 . S
C702 C701 1.434 . S
C703 C704 1.369 . S
C703 C705 1.419 . S
C703 H707 0.930 . S
C704 C703 1.369 . S
C704 C713 1.429 . S
C705 C703 1.419 . S
C705 C706 1.363 . S
C705 H708 0.929 . S
C706 C705 1.363 . S
C706 C712 1.428 . S
H707 C703 0.930 . S
H708 C705 0.929 . S
S709 N710 1.613 . S
S709 N711 1.610 . S
N710 S709 1.613 . S
N710 C713 1.350 . S
N711 S709 1.610 . S
N711 C712 1.351 . S
C712 C706 1.428 . S
C712 N711 1.351 . S
C712 C713 1.434 . S
C713 C704 1.429 . S
C713 N710 1.350 . S
C713 C712 1.434 . S
C714 C715 1.369 . S
C714 C716 1.419 . S
C714 H718 0.930 . S
C715 C714 1.369 . S
C715 C724 1.429 . S
C716 C714 1.419 . S
C716 C717 1.363 . S
C716 H719 0.929 . S
C717 C716 1.363 . S
C717 C723 1.428 . S
H718 C714 0.930 . S
H719 C716 0.929 . S
S720 N721 1.613 . S
S720 N722 1.610 . S
N721 S720 1.613 . S
N721 C724 1.350 . S
N722 S720 1.610 . S
N722 C723 1.351 . S
C723 C717 1.428 . S
C723 N722 1.351 . S
C723 C724 1.434 . S
C724 C715 1.429 . S
C724 N721 1.350 . S
C724 C723 1.434 . S
C725 C726 1.369 . S
C725 C727 1.419 . S
C725 H729 0.930 . S
C726 C725 1.369 . S
C726 C735 1.429 . S
C727 C725 1.419 . S
C727 C728 1.363 . S
C727 H730 0.929 . S
C728 C727 1.363 . S
C728 C734 1.428 . S
H729 C725 0.930 . S
H730 C727 0.929 . S
S731 N732 1.613 . S
S731 N733 1.610 . S
N732 S731 1.613 . S
N732 C735 1.350 . S
N733 S731 1.610 . S
N733 C734 1.351 . S
C734 C728 1.428 . S
C734 N733 1.351 . S
C734 C735 1.434 . S
C735 C726 1.429 . S
C735 N732 1.350 . S
C735 C734 1.434 . S
C736 C737 1.369 . S
C736 C738 1.419 . S
C736 H740 0.930 . S
C737 C736 1.369 . S
C737 C746 1.429 . S
C738 C736 1.419 . S
C738 C739 1.363 . S
C738 H741 0.929 . S
C739 C738 1.363 . S
C739 C745 1.428 . S
H740 C736 0.930 . S
H741 C738 0.929 . S
S742 N743 1.613 . S
S742 N744 1.610 . S
N743 S742 1.613 . S
N743 C746 1.350 . S
N744 S742 1.610 . S
N744 C745 1.351 . S
C745 C739 1.428 . S
C745 N744 1.351 . S
C745 C746 1.434 . S
C746 C737 1.429 . S
C746 N743 1.350 . S
C746 C745 1.434 . S
C747 C748 1.369 . S
C747 C749 1.419 . S
C747 H751 0.930 . S
C748 C747 1.369 . S
C748 C757 1.429 . S
C749 C747 1.419 . S
C749 C750 1.363 . S
C749 H752 0.929 . S
C750 C749 1.363 . S
C750 C756 1.428 . S
H751 C747 0.930 . S
H752 C749 0.929 . S
S753 N754 1.613 . S
S753 N755 1.610 . S
N754 S753 1.613 . S
N754 C757 1.350 . S
N755 S753 1.610 . S
N755 C756 1.351 . S
C756 C750 1.428 . S
C756 N755 1.351 . S
C756 C757 1.434 . S
C757 C748 1.429 . S
C757 N754 1.350 . S
C757 C756 1.434 . S
C758 C759 1.369 . S
C758 C760 1.419 . S
C758 H762 0.930 . S
C759 C758 1.369 . S
C759 C768 1.429 . S
C760 C758 1.419 . S
C760 C761 1.363 . S
C760 H763 0.929 . S
C761 C760 1.363 . S
C761 C767 1.428 . S
H762 C758 0.930 . S
H763 C760 0.929 . S
S764 N765 1.613 . S
S764 N766 1.610 . S
N765 S764 1.613 . S
N765 C768 1.350 . S
N766 S764 1.610 . S
N766 C767 1.351 . S
C767 C761 1.428 . S
C767 N766 1.351 . S
C767 C768 1.434 . S
C768 C759 1.429 . S
C768 N765 1.350 . S
C768 C767 1.434 . S
C769 C770 1.369 . S
C769 C771 1.419 . S
C769 H773 0.930 . S
C770 C769 1.369 . S
C770 C779 1.429 . S
C771 C769 1.419 . S
C771 C772 1.363 . S
C771 H774 0.929 . S
C772 C771 1.363 . S
C772 C778 1.428 . S
H773 C769 0.930 . S
H774 C771 0.929 . S
S775 N776 1.613 . S
S775 N777 1.610 . S
N776 S775 1.613 . S
N776 C779 1.350 . S
N777 S775 1.610 . S
N777 C778 1.351 . S
C778 C772 1.428 . S
C778 N777 1.351 . S
C778 C779 1.434 . S
C779 C770 1.429 . S
C779 N776 1.350 . S
C779 C778 1.434 . S
C780 C781 1.369 . S
C780 C782 1.419 . S
C780 H784 0.930 . S
C781 C780 1.369 . S
C781 C790 1.429 . S
C782 C780 1.419 . S
C782 C783 1.363 . S
C782 H785 0.929 . S
C783 C782 1.363 . S
C783 C789 1.428 . S
H784 C780 0.930 . S
H785 C782 0.929 . S
S786 N787 1.613 . S
S786 N788 1.610 . S
N787 S786 1.613 . S
N787 C790 1.350 . S
N788 S786 1.610 . S
N788 C789 1.351 . S
C789 C783 1.428 . S
C789 N788 1.351 . S
C789 C790 1.434 . S
C790 C781 1.429 . S
C790 N787 1.350 . S
C790 C789 1.434 . S
C791 C792 1.369 . S
C791 C793 1.419 . S
C791 H795 0.930 . S
C792 C791 1.369 . S
C792 C801 1.429 . S
C793 C791 1.419 . S
C793 C794 1.363 . S
C793 H796 0.929 . S
C794 C793 1.363 . S
C794 C800 1.428 . S
H795 C791 0.930 . S
H796 C793 0.929 . S
S797 N798 1.613 . S
S797 N799 1.610 . S
N798 S797 1.613 . S
N798 C801 1.350 . S
N799 S797 1.610 . S
N799 C800 1.351 . S
C800 C794 1.428 . S
C800 N799 1.351 . S
C800 C801 1.434 . S
C801 C792 1.429 . S
C801 N798 1.350 . S
C801 C800 1.434 . S
C802 C803 1.369 . S
C802 C804 1.419 . S
C802 H806 0.930 . S
C803 C802 1.369 . S
C803 C812 1.429 . S
C804 C802 1.419 . S
C804 C805 1.363 . S
C804 H807 0.929 . S
C805 C804 1.363 . S
C805 C811 1.428 . S
H806 C802 0.930 . S
H807 C804 0.929 . S
S808 N809 1.613 . S
S808 N810 1.610 . S
N809 S808 1.613 . S
N809 C812 1.350 . S
N810 S808 1.610 . S
N810 C811 1.351 . S
C811 C805 1.428 . S
C811 N810 1.351 . S
C811 C812 1.434 . S
C812 C803 1.429 . S
C812 N809 1.350 . S
C812 C811 1.434 . S
C813 C814 1.369 . S
C813 C815 1.419 . S
C813 H817 0.930 . S
C814 C813 1.369 . S
C814 C823 1.429 . S
C815 C813 1.419 . S
C815 C816 1.363 . S
C815 H818 0.929 . S
C816 C815 1.363 . S
C816 C822 1.428 . S
H817 C813 0.930 . S
H818 C815 0.929 . S
S819 N820 1.613 . S
S819 N821 1.610 . S
N820 S819 1.613 . S
N820 C823 1.350 . S
N821 S819 1.610 . S
N821 C822 1.351 . S
C822 C816 1.428 . S
C822 N821 1.351 . S
C822 C823 1.434 . S
C823 C814 1.429 . S
C823 N820 1.350 . S
C823 C822 1.434 . S
C824 C825 1.369 . S
C824 C826 1.419 . S
C824 H828 0.930 . S
C825 C824 1.369 . S
C825 C834 1.429 . S
C826 C824 1.419 . S
C826 C827 1.363 . S
C826 H829 0.929 . S
C827 C826 1.363 . S
C827 C833 1.428 . S
H828 C824 0.930 . S
H829 C826 0.929 . S
S830 N831 1.613 . S
S830 N832 1.610 . S
N831 S830 1.613 . S
N831 C834 1.350 . S
N832 S830 1.610 . S
N832 C833 1.351 . S
C833 C827 1.428 . S
C833 N832 1.351 . S
C833 C834 1.434 . S
C834 C825 1.429 . S
C834 N831 1.350 . S
C834 C833 1.434 . S
C835 C836 1.369 . S
C835 C837 1.419 . S
C835 H839 0.930 . S
C836 C835 1.369 . S
C836 C845 1.429 . S
C837 C835 1.419 . S
C837 C838 1.363 . S
C837 H840 0.929 . S
C838 C837 1.363 . S
C838 C844 1.428 . S
H839 C835 0.930 . S
H840 C837 0.929 . S
S841 N842 1.613 . S
S841 N843 1.610 . S
N842 S841 1.613 . S
N842 C845 1.350 . S
N843 S841 1.610 . S
N843 C844 1.351 . S
C844 C838 1.428 . S
C844 N843 1.351 . S
C844 C845 1.434 . S
C845 C836 1.429 . S
C845 N842 1.350 . S
C845 C844 1.434 . S
C846 C847 1.369 . S
C846 C848 1.419 . S
C846 H850 0.930 . S
C847 C846 1.369 . S
C847 C856 1.429 . S
C848 C846 1.419 . S
C848 C849 1.363 . S
C848 H851 0.929 . S
C849 C848 1.363 . S
C849 C855 1.428 . S
H850 C846 0.930 . S
H851 C848 0.929 . S
S852 N853 1.613 . S
S852 N854 1.610 . S
N853 S852 1.613 . S
N853 C856 1.350 . S
N854 S852 1.610 . S
N854 C855 1.351 . S
C855 C849 1.428 . S
C855 N854 1.351 . S
C855 C856 1.434 . S
C856 C847 1.429 . S
C856 N853 1.350 . S
C856 C855 1.434 . S
C857 C858 1.369 . S
C857 C859 1.419 . S
C857 H861 0.930 . S
C858 C857 1.369 . S
C858 C867 1.429 . S
C859 C857 1.419 . S
C859 C860 1.363 . S
C859 H862 0.929 . S
C860 C859 1.363 . S
C860 C866 1.428 . S
H861 C857 0.930 . S
H862 C859 0.929 . S
S863 N864 1.613 . S
S863 N865 1.610 . S
N864 S863 1.613 . S
N864 C867 1.350 . S
N865 S863 1.610 . S
N865 C866 1.351 . S
C866 C860 1.428 . S
C866 N865 1.351 . S
C866 C867 1.434 . S
C867 C858 1.429 . S
C867 N864 1.350 . S
C867 C866 1.434 . S
C868 C869 1.369 . S
C868 C870 1.419 . S
C868 H872 0.930 . S
C869 C868 1.369 . S
C869 C878 1.429 . S
C870 C868 1.419 . S
C870 C871 1.363 . S
C870 H873 0.929 . S
C871 C870 1.363 . S
C871 C877 1.428 . S
H872 C868 0.930 . S
H873 C870 0.929 . S
S874 N875 1.613 . S
S874 N876 1.610 . S
N875 S874 1.613 . S
N875 C878 1.350 . S
N876 S874 1.610 . S
N876 C877 1.351 . S
C877 C871 1.428 . S
C877 N876 1.351 . S
C877 C878 1.434 . S
C878 C869 1.429 . S
C878 N875 1.350 . S
C878 C877 1.434 . S
C879 C880 1.369 . S
C879 C881 1.419 . S
C879 H883 0.930 . S
C880 C879 1.369 . S
C880 C889 1.429 . S
C881 C879 1.419 . S
C881 C882 1.363 . S
C881 H884 0.929 . S
C882 C881 1.363 . S
C882 C888 1.428 . S
H883 C879 0.930 . S
H884 C881 0.929 . S
S885 N886 1.613 . S
S885 N887 1.610 . S
N886 S885 1.613 . S
N886 C889 1.350 . S
N887 S885 1.610 . S
N887 C888 1.351 . S
C888 C882 1.428 . S
C888 N887 1.351 . S
C888 C889 1.434 . S
C889 C880 1.429 . S
C889 N886 1.350 . S
C889 C888 1.434 . S
C890 C891 1.369 . S
C890 C892 1.419 . S
C890 H894 0.930 . S
C891 C890 1.369 . S
C891 C900 1.429 . S
C892 C890 1.419 . S
C892 C893 1.363 . S
C892 H895 0.929 . S
C893 C892 1.363 . S
C893 C899 1.428 . S
H894 C890 0.930 . S
H895 C892 0.929 . S
S896 N897 1.613 . S
S896 N898 1.610 . S
N897 S896 1.613 . S
N897 C900 1.350 . S
N898 S896 1.610 . S
N898 C899 1.351 . S
C899 C893 1.428 . S
C899 N898 1.351 . S
C899 C900 1.434 . S
C900 C891 1.429 . S
C900 N897 1.350 . S
C900 C899 1.434 . S
C901 C902 1.369 . S
C901 C903 1.419 . S
C901 H905 0.930 . S
C902 C901 1.369 . S
C902 C911 1.429 . S
C903 C901 1.419 . S
C903 C904 1.363 . S
C903 H906 0.929 . S
C904 C903 1.363 . S
C904 C910 1.428 . S
H905 C901 0.930 . S
H906 C903 0.929 . S
S907 N908 1.613 . S
S907 N909 1.610 . S
N908 S907 1.613 . S
N908 C911 1.350 . S
N909 S907 1.610 . S
N909 C910 1.351 . S
C910 C904 1.428 . S
C910 N909 1.351 . S
C910 C911 1.434 . S
C911 C902 1.429 . S
C911 N908 1.350 . S
C911 C910 1.434 . S
C912 C913 1.369 . S
C912 C914 1.419 . S
C912 H916 0.930 . S
C913 C912 1.369 . S
C913 C922 1.429 . S
C914 C912 1.419 . S
C914 C915 1.363 . S
C914 H917 0.929 . S
C915 C914 1.363 . S
C915 C921 1.428 . S
H916 C912 0.930 . S
H917 C914 0.929 . S
S918 N919 1.613 . S
S918 N920 1.610 . S
N919 S918 1.613 . S
N919 C922 1.350 . S
N920 S918 1.610 . S
N920 C921 1.351 . S
C921 C915 1.428 . S
C921 N920 1.351 . S
C921 C922 1.434 . S
C922 C913 1.429 . S
C922 N919 1.350 . S
C922 C921 1.434 . S
C923 C924 1.369 . S
C923 C925 1.419 . S
C923 H927 0.930 . S
C924 C923 1.369 . S
C924 C933 1.429 . S
C925 C923 1.419 . S
C925 C926 1.363 . S
C925 H928 0.929 . S
C926 C925 1.363 . S
C926 C932 1.428 . S
H927 C923 0.930 . S
H928 C925 0.929 . S
S929 N930 1.613 . S
S929 N931 1.610 . S
N930 S929 1.613 . S
N930 C933 1.350 . S
N931 S929 1.610 . S
N931 C932 1.351 . S
C932 C926 1.428 . S
C932 N931 1.351 . S
C932 C933 1.434 . S
C933 C924 1.429 . S
C933 N930 1.350 . S
C933 C932 1.434 . S
C934 C935 1.369 . S
C934 C936 1.419 . S
C934 H938 0.930 . S
C935 C934 1.369 . S
C935 C944 1.429 . S
C936 C934 1.419 . S
C936 C937 1.363 . S
C936 H939 0.929 . S
C937 C936 1.363 . S
C937 C943 1.428 . S
H938 C934 0.930 . S
H939 C936 0.929 . S
S940 N941 1.613 . S
S940 N942 1.610 . S
N941 S940 1.613 . S
N941 C944 1.350 . S
N942 S940 1.610 . S
N942 C943 1.351 . S
C943 C937 1.428 . S
C943 N942 1.351 . S
C943 C944 1.434 . S
C944 C935 1.429 . S
C944 N941 1.350 . S
C944 C943 1.434 . S
C945 C946 1.369 . S
C945 C947 1.419 . S
C945 H949 0.930 . S
C946 C945 1.369 . S
C946 C955 1.429 . S
C947 C945 1.419 . S
C947 C948 1.363 . S
C947 H950 0.929 . S
C948 C947 1.363 . S
C948 C954 1.428 . S
H949 C945 0.930 . S
H950 C947 0.929 . S
S951 N952 1.613 . S
S951 N953 1.610 . S
N952 S951 1.613 . S
N952 C955 1.350 . S
N953 S951 1.610 . S
N953 C954 1.351 . S
C954 C948 1.428 . S
C954 N953 1.351 . S
C954 C955 1.434 . S
C955 C946 1.429 . S
C955 N952 1.350 . S
C955 C954 1.434 . S
C695 C355 1.573 . S
C693 C15 1.566 . S
C706 C435 1.699 . S
C704 C55 1.753 . S
C717 C367 1.636 . S
C715 C101 1.728 . S
C728 C411 1.774 . S
C726 C141 1.971 . S
C739 C479 1.537 . S
C737 C2 1.509 . S
C750 C559 1.476 . S
C748 C61 1.492 . S
C759 C95 1.847 . S
C761 C621 1.770 . S
C772 C677 1.492 . S
C770 C135 1.622 . S
C783 C491 1.586 . S
C781 C42 1.659 . S
C792 C82 1.602 . S
C794 C535 1.483 . S
C805 C597 1.809 . S
C803 C122 2.063 . S
C816 C665 1.487 . S
C814 C21 1.494 . S
C825 C162 1.970 . S
C827 C429 1.766 . S
C838 C349 1.629 . S
C836 C221 1.720 . S
C847 C255 1.752 . S
C849 C417 1.698 . S
C858 C282 1.518 . S
C860 C373 1.570 . S
C871 C615 1.817 . S
C869 C181 2.077 . S
C882 C659 1.509 . S
C880 C202 1.653 . S
C893 C473 1.582 . S
C891 C242 1.750 . S
C902 C301 1.495 . S
C904 C541 1.470 . S
C915 C603 1.768 . S
C913 C215 1.849 . S
C926 C683 1.488 . S
C924 C261 1.528 . S
C937 C497 1.524 . S
C935 C295 1.557 . S
C946 C175 1.626 . S
C948 C553 1.468 . S
